# Generated by pormake.
# Topology ptr, (4,4)-cn, num edge types: 1
# Building blocks:
#     Node 0, Type 0, BuildingBlock: QUQFOY_clean_sbu_1, # of connection points: 4
#     Node 1, Type 0, BuildingBlock: QUQFOY_clean_sbu_1, # of connection points: 4
#     Node 2, Type 0, BuildingBlock: QUQFOY_clean_sbu_1, # of connection points: 4
#     Node 3, Type 0, BuildingBlock: QUQFOY_clean_sbu_1, # of connection points: 4
#     Node 4, Type 0, BuildingBlock: QUQFOY_clean_sbu_1, # of connection points: 4
#     Node 5, Type 0, BuildingBlock: QUQFOY_clean_sbu_1, # of connection points: 4
#     Node 6, Type 0, BuildingBlock: QUQFOY_clean_sbu_1, # of connection points: 4
#     Node 7, Type 0, BuildingBlock: QUQFOY_clean_sbu_1, # of connection points: 4
#     Node 8, Type 0, BuildingBlock: QUQFOY_clean_sbu_1, # of connection points: 4
#     Node 9, Type 0, BuildingBlock: QUQFOY_clean_sbu_1, # of connection points: 4
#     Node 10, Type 0, BuildingBlock: QUQFOY_clean_sbu_1, # of connection points: 4
#     Node 11, Type 0, BuildingBlock: QUQFOY_clean_sbu_1, # of connection points: 4
#     Node 12, Type 0, BuildingBlock: QUQFOY_clean_sbu_1, # of connection points: 4
#     Node 13, Type 0, BuildingBlock: QUQFOY_clean_sbu_1, # of connection points: 4
#     Node 14, Type 0, BuildingBlock: QUQFOY_clean_sbu_1, # of connection points: 4
#     Node 15, Type 0, BuildingBlock: QUQFOY_clean_sbu_1, # of connection points: 4
#     Node 16, Type 0, BuildingBlock: QUQFOY_clean_sbu_1, # of connection points: 4
#     Node 17, Type 0, BuildingBlock: QUQFOY_clean_sbu_1, # of connection points: 4
#     Node 18, Type 1, BuildingBlock: NAHDIM_clean_linker_0, # of connection points: 4
#     Node 19, Type 1, BuildingBlock: NAHDIM_clean_linker_0, # of connection points: 4
#     Node 20, Type 1, BuildingBlock: NAHDIM_clean_linker_0, # of connection points: 4
#     Node 21, Type 1, BuildingBlock: NAHDIM_clean_linker_0, # of connection points: 4
#     Node 22, Type 1, BuildingBlock: NAHDIM_clean_linker_0, # of connection points: 4
#     Node 23, Type 1, BuildingBlock: NAHDIM_clean_linker_0, # of connection points: 4
#     Node 24, Type 1, BuildingBlock: NAHDIM_clean_linker_0, # of connection points: 4
#     Node 25, Type 1, BuildingBlock: NAHDIM_clean_linker_0, # of connection points: 4
#     Node 26, Type 1, BuildingBlock: NAHDIM_clean_linker_0, # of connection points: 4
#     Node 27, Type 1, BuildingBlock: NAHDIM_clean_linker_0, # of connection points: 4
#     Node 28, Type 1, BuildingBlock: NAHDIM_clean_linker_0, # of connection points: 4
#     Node 29, Type 1, BuildingBlock: NAHDIM_clean_linker_0, # of connection points: 4
#     Node 30, Type 1, BuildingBlock: NAHDIM_clean_linker_0, # of connection points: 4
#     Node 31, Type 1, BuildingBlock: NAHDIM_clean_linker_0, # of connection points: 4
#     Node 32, Type 1, BuildingBlock: NAHDIM_clean_linker_0, # of connection points: 4
#     Node 33, Type 1, BuildingBlock: NAHDIM_clean_linker_0, # of connection points: 4
#     Node 34, Type 1, BuildingBlock: NAHDIM_clean_linker_0, # of connection points: 4
#     Node 35, Type 1, BuildingBlock: NAHDIM_clean_linker_0, # of connection points: 4
#     Edge 36, Type (0, 1), BuildingBlock: ZUJKAS_clean_linker_0, # of connection points: 2
#     Edge 37, Type (0, 1), BuildingBlock: ZUJKAS_clean_linker_0, # of connection points: 2
#     Edge 38, Type (0, 1), BuildingBlock: ZUJKAS_clean_linker_0, # of connection points: 2
#     Edge 39, Type (0, 1), BuildingBlock: ZUJKAS_clean_linker_0, # of connection points: 2
#     Edge 40, Type (0, 1), BuildingBlock: ZUJKAS_clean_linker_0, # of connection points: 2
#     Edge 41, Type (0, 1), BuildingBlock: ZUJKAS_clean_linker_0, # of connection points: 2
#     Edge 42, Type (0, 1), BuildingBlock: ZUJKAS_clean_linker_0, # of connection points: 2
#     Edge 43, Type (0, 1), BuildingBlock: ZUJKAS_clean_linker_0, # of connection points: 2
#     Edge 44, Type (0, 1), BuildingBlock: ZUJKAS_clean_linker_0, # of connection points: 2
#     Edge 45, Type (0, 1), BuildingBlock: ZUJKAS_clean_linker_0, # of connection points: 2
#     Edge 46, Type (0, 1), BuildingBlock: ZUJKAS_clean_linker_0, # of connection points: 2
#     Edge 47, Type (0, 1), BuildingBlock: ZUJKAS_clean_linker_0, # of connection points: 2
#     Edge 48, Type (0, 1), BuildingBlock: ZUJKAS_clean_linker_0, # of connection points: 2
#     Edge 49, Type (0, 1), BuildingBlock: ZUJKAS_clean_linker_0, # of connection points: 2
#     Edge 50, Type (0, 1), BuildingBlock: ZUJKAS_clean_linker_0, # of connection points: 2
#     Edge 51, Type (0, 1), BuildingBlock: ZUJKAS_clean_linker_0, # of connection points: 2
#     Edge 52, Type (0, 1), BuildingBlock: ZUJKAS_clean_linker_0, # of connection points: 2
#     Edge 53, Type (0, 1), BuildingBlock: ZUJKAS_clean_linker_0, # of connection points: 2
#     Edge 54, Type (0, 1), BuildingBlock: ZUJKAS_clean_linker_0, # of connection points: 2
#     Edge 55, Type (0, 1), BuildingBlock: ZUJKAS_clean_linker_0, # of connection points: 2
#     Edge 56, Type (0, 1), BuildingBlock: ZUJKAS_clean_linker_0, # of connection points: 2
#     Edge 57, Type (0, 1), BuildingBlock: ZUJKAS_clean_linker_0, # of connection points: 2
#     Edge 58, Type (0, 1), BuildingBlock: ZUJKAS_clean_linker_0, # of connection points: 2
#     Edge 59, Type (0, 1), BuildingBlock: ZUJKAS_clean_linker_0, # of connection points: 2
#     Edge 60, Type (0, 1), BuildingBlock: ZUJKAS_clean_linker_0, # of connection points: 2
#     Edge 61, Type (0, 1), BuildingBlock: ZUJKAS_clean_linker_0, # of connection points: 2
#     Edge 62, Type (0, 1), BuildingBlock: ZUJKAS_clean_linker_0, # of connection points: 2
#     Edge 63, Type (0, 1), BuildingBlock: ZUJKAS_clean_linker_0, # of connection points: 2
#     Edge 64, Type (0, 1), BuildingBlock: ZUJKAS_clean_linker_0, # of connection points: 2
#     Edge 65, Type (0, 1), BuildingBlock: ZUJKAS_clean_linker_0, # of connection points: 2
#     Edge 66, Type (0, 1), BuildingBlock: ZUJKAS_clean_linker_0, # of connection points: 2
#     Edge 67, Type (0, 1), BuildingBlock: ZUJKAS_clean_linker_0, # of connection points: 2
#     Edge 68, Type (0, 1), BuildingBlock: ZUJKAS_clean_linker_0, # of connection points: 2
#     Edge 69, Type (0, 1), BuildingBlock: ZUJKAS_clean_linker_0, # of connection points: 2
#     Edge 70, Type (0, 1), BuildingBlock: ZUJKAS_clean_linker_0, # of connection points: 2
#     Edge 71, Type (0, 1), BuildingBlock: ZUJKAS_clean_linker_0, # of connection points: 2
#     Edge 72, Type (0, 1), BuildingBlock: ZUJKAS_clean_linker_0, # of connection points: 2
#     Edge 73, Type (0, 1), BuildingBlock: ZUJKAS_clean_linker_0, # of connection points: 2
#     Edge 74, Type (0, 1), BuildingBlock: ZUJKAS_clean_linker_0, # of connection points: 2
#     Edge 75, Type (0, 1), BuildingBlock: ZUJKAS_clean_linker_0, # of connection points: 2
#     Edge 76, Type (0, 1), BuildingBlock: ZUJKAS_clean_linker_0, # of connection points: 2
#     Edge 77, Type (0, 1), BuildingBlock: ZUJKAS_clean_linker_0, # of connection points: 2
#     Edge 78, Type (0, 1), BuildingBlock: ZUJKAS_clean_linker_0, # of connection points: 2
#     Edge 79, Type (0, 1), BuildingBlock: ZUJKAS_clean_linker_0, # of connection points: 2
#     Edge 80, Type (0, 1), BuildingBlock: ZUJKAS_clean_linker_0, # of connection points: 2
#     Edge 81, Type (0, 1), BuildingBlock: ZUJKAS_clean_linker_0, # of connection points: 2
#     Edge 82, Type (0, 1), BuildingBlock: ZUJKAS_clean_linker_0, # of connection points: 2
#     Edge 83, Type (0, 1), BuildingBlock: ZUJKAS_clean_linker_0, # of connection points: 2
#     Edge 84, Type (0, 1), BuildingBlock: ZUJKAS_clean_linker_0, # of connection points: 2
#     Edge 85, Type (0, 1), BuildingBlock: ZUJKAS_clean_linker_0, # of connection points: 2
#     Edge 86, Type (0, 1), BuildingBlock: ZUJKAS_clean_linker_0, # of connection points: 2
#     Edge 87, Type (0, 1), BuildingBlock: ZUJKAS_clean_linker_0, # of connection points: 2
#     Edge 88, Type (0, 1), BuildingBlock: ZUJKAS_clean_linker_0, # of connection points: 2
#     Edge 89, Type (0, 1), BuildingBlock: ZUJKAS_clean_linker_0, # of connection points: 2
#     Edge 90, Type (0, 1), BuildingBlock: ZUJKAS_clean_linker_0, # of connection points: 2
#     Edge 91, Type (0, 1), BuildingBlock: ZUJKAS_clean_linker_0, # of connection points: 2
#     Edge 92, Type (0, 1), BuildingBlock: ZUJKAS_clean_linker_0, # of connection points: 2
#     Edge 93, Type (0, 1), BuildingBlock: ZUJKAS_clean_linker_0, # of connection points: 2
#     Edge 94, Type (0, 1), BuildingBlock: ZUJKAS_clean_linker_0, # of connection points: 2
#     Edge 95, Type (0, 1), BuildingBlock: ZUJKAS_clean_linker_0, # of connection points: 2
#     Edge 96, Type (0, 1), BuildingBlock: ZUJKAS_clean_linker_0, # of connection points: 2
#     Edge 97, Type (0, 1), BuildingBlock: ZUJKAS_clean_linker_0, # of connection points: 2
#     Edge 98, Type (0, 1), BuildingBlock: ZUJKAS_clean_linker_0, # of connection points: 2
#     Edge 99, Type (0, 1), BuildingBlock: ZUJKAS_clean_linker_0, # of connection points: 2
#     Edge 100, Type (0, 1), BuildingBlock: ZUJKAS_clean_linker_0, # of connection points: 2
#     Edge 101, Type (0, 1), BuildingBlock: ZUJKAS_clean_linker_0, # of connection points: 2
#     Edge 102, Type (0, 1), BuildingBlock: ZUJKAS_clean_linker_0, # of connection points: 2
#     Edge 103, Type (0, 1), BuildingBlock: ZUJKAS_clean_linker_0, # of connection points: 2
#     Edge 104, Type (0, 1), BuildingBlock: ZUJKAS_clean_linker_0, # of connection points: 2
#     Edge 105, Type (0, 1), BuildingBlock: ZUJKAS_clean_linker_0, # of connection points: 2
#     Edge 106, Type (0, 1), BuildingBlock: ZUJKAS_clean_linker_0, # of connection points: 2
#     Edge 107, Type (0, 1), BuildingBlock: ZUJKAS_clean_linker_0, # of connection points: 2
# Relax obj value: 0.010
# Max RMSD: 0.100
# Mean RMSD: 0.055
data_MOF--net-ptr--node1-QUQFOY_clean_sbu_1--node2-NAHDIM_clean_linker_0--edge1-ZUJKAS_clean_linker_0
_symmetry_space_group_name_H-M    P1
_symmetry_Int_Tables_number       1
_symmetry_cell_setting            triclinic
loop_
_symmetry_equiv_pos_as_xyz
'x, y, z'
_cell_length_a     116.83324
_cell_length_b     116.32844
_cell_length_c     99.967889
_cell_angle_alpha  90.81508
_cell_angle_beta   90.234676
_cell_angle_gamma 119.93214
loop_
_atom_site_label
_atom_site_type_symbol
_atom_site_fract_x
_atom_site_fract_y
_atom_site_fract_z
_atom_type_partial_charge
O0 O 0.00833 0.35343 0.02632 0.0
Cd1 Cd 0.01627 0.34846 0.01048 0.0
Cd2 Cd 0.99067 0.33513 0.00252 0.0
O3 O 0.98724 0.3419 0.0205 0.0
O4 O 0.03371 0.35185 0.01739 0.0
O5 O 0.01735 0.33181 0.0119 0.0
C6 C 0.02908 0.3392 0.01687 0.0
C7 C 0.97833 0.31309 0.99521 0.0
C8 C 0.9963 0.34966 0.02865 0.0
C9 C 0.01001 0.35732 0.98511 0.0
O10 O 0.99813 0.34849 0.98728 0.0
O11 O 0.01925 0.35897 0.99306 0.0
O12 O 0.97339 0.32084 0.99531 0.0
O13 O 0.99013 0.31769 1.00001 0.0
O14 O 0.6397 0.6421 0.03426 0.0
Cd15 Cd 0.64427 0.65691 0.0208 0.0
Cd16 Cd 0.65764 0.64635 0.00864 0.0
O17 O 0.65176 0.63435 0.02527 0.0
O18 O 0.64168 0.67049 0.03046 0.0
O19 O 0.66116 0.67422 0.02341 0.0
C20 C 0.65426 0.6784 0.02972 0.0
C21 C 0.67941 0.65589 0.00143 0.0
C22 C 0.64404 0.63403 0.03437 0.0
C23 C 0.63489 0.64556 0.99339 0.0
O24 O 0.64386 0.64241 0.99368 0.0
O25 O 0.63341 0.65174 0.00321 0.0
O26 O 0.67133 0.64333 1.00017 0.0
O27 O 0.67525 0.66311 0.00718 0.0
O28 O 0.35523 0.00533 0.98818 0.0
Cd29 Cd 0.3475 0.01014 0.00441 0.0
Cd30 Cd 0.3371 0.98415 0.00874 0.0
O31 O 0.34477 0.98357 0.9903 0.0
O32 O 0.35025 0.02813 0.00054 0.0
O33 O 0.33049 0.01016 0.00119 0.0
C34 C 0.33764 0.02271 0.99904 0.0
C35 C 0.31493 0.97182 0.01435 0.0
C36 C 0.3526 0.99391 0.98392 0.0
C37 C 0.35666 0.00253 0.0291 0.0
O38 O 0.35008 0.99067 0.02467 0.0
O39 O 0.35632 0.01187 0.02296 0.0
O40 O 0.32218 0.96635 0.0134 0.0
O41 O 0.32014 0.98418 0.01132 0.0
O42 O 0.99436 0.64806 0.9922 0.0
Cd43 Cd 0.98741 0.65419 0.0081 0.0
Cd44 Cd 0.01314 0.66679 0.01503 0.0
O45 O 0.0157 0.66049 0.99648 0.0
O46 O 0.96995 0.65161 0.00201 0.0
O47 O 0.98736 0.6713 0.00639 0.0
C48 C 0.97528 0.66436 0.00222 0.0
C49 C 0.02389 0.68905 0.02159 0.0
C50 C 0.00629 0.65214 0.98901 0.0
C51 C 0.99445 0.64523 0.0331 0.0
O52 O 0.0064 0.65305 0.03001 0.0
O53 O 0.98508 0.64473 0.0261 0.0
O54 O 0.03011 0.68248 0.02123 0.0
O55 O 0.01166 0.68303 0.0178 0.0
O56 O 0.36509 0.3631 0.98286 0.0
Cd57 Cd 0.3596 0.34792 0.99615 0.0
Cd58 Cd 0.34629 0.35875 0.00746 0.0
O59 O 0.3517 0.36996 0.99029 0.0
O60 O 0.36075 0.33325 0.98685 0.0
O61 O 0.34197 0.33147 0.99386 0.0
C62 C 0.34808 0.32619 0.9879 0.0
C63 C 0.32456 0.34878 0.01502 0.0
C64 C 0.3602 0.37067 0.98192 0.0
C65 C 0.36887 0.35956 0.02328 0.0
O66 O 0.36046 0.36342 0.02225 0.0
O67 O 0.36985 0.35249 0.01405 0.0
O68 O 0.33247 0.36138 0.01632 0.0
O69 O 0.32888 0.34183 0.00898 0.0
O70 O 0.64602 0.99611 0.02981 0.0
Cd71 Cd 0.65346 0.99033 0.014 0.0
Cd72 Cd 0.66521 0.01632 0.0095 0.0
O73 O 0.65885 0.01778 0.02831 0.0
O74 O 0.65098 0.97255 0.0187 0.0
O75 O 0.67056 0.99066 0.01732 0.0
C76 C 0.66365 0.97822 0.02002 0.0
C77 C 0.68724 0.02718 0.00323 0.0
C78 C 0.65001 0.00777 0.03441 0.0
C79 C 0.64473 0.99826 0.98955 0.0
O80 O 0.65138 0.01001 0.99427 0.0
O81 O 0.64515 0.98875 0.99522 0.0
O82 O 0.68075 0.03347 0.0041 0.0
O83 O 0.6813 0.01485 0.00649 0.0
O84 O 0.67269 0.69307 0.36444 0.0
Cd85 Cd 0.68226 0.68879 0.34952 0.0
Cd86 Cd 0.65809 0.67728 0.3377 0.0
O87 O 0.65286 0.6833 0.35499 0.0
O88 O 0.69894 0.69135 0.35781 0.0
O89 O 0.68279 0.67181 0.35068 0.0
C90 C 0.69426 0.67874 0.35634 0.0
C91 C 0.64589 0.6554 0.32986 0.0
C92 C 0.66058 0.68987 0.36466 0.0
C93 C 0.68002 0.69989 0.32326 0.0
O94 O 0.66777 0.69145 0.32355 0.0
O95 O 0.68772 0.70031 0.33254 0.0
O96 O 0.64142 0.6635 0.32891 0.0
O97 O 0.65725 0.65966 0.33563 0.0
O98 O 0.30304 0.97337 0.37272 0.0
Cd99 Cd 0.30845 0.98815 0.35889 0.0
Cd100 Cd 0.31986 0.97521 0.34688 0.0
O101 O 0.31379 0.96405 0.36396 0.0
O102 O 0.30649 0.00229 0.36821 0.0
O103 O 0.32572 0.00519 0.36135 0.0
C104 C 0.3191 0.00987 0.36738 0.0
C105 C 0.34096 0.98197 0.33881 0.0
C106 C 0.30656 0.96465 0.37309 0.0
C107 C 0.29789 0.97619 0.33184 0.0
O108 O 0.30582 0.97172 0.33241 0.0
O109 O 0.2976 0.98347 0.34128 0.0
O110 O 0.33167 0.96976 0.33802 0.0
O111 O 0.33837 0.99043 0.34452 0.0
O112 O 0.0322 0.33614 0.32177 0.0
Cd113 Cd 0.0263 0.34478 0.33629 0.0
Cd114 Cd 0.01304 0.31956 0.34516 0.0
O115 O 0.01922 0.31532 0.32734 0.0
O116 O 0.03227 0.3629 0.32956 0.0
O117 O 0.01119 0.34788 0.33179 0.0
C118 C 0.02004 0.3596 0.32819 0.0
C119 C 0.99092 0.30789 0.35122 0.0
C120 C 0.02771 0.32383 0.31957 0.0
C121 C 0.03451 0.33961 0.36304 0.0
O122 O 0.02661 0.32735 0.36071 0.0
O123 O 0.03523 0.34824 0.35491 0.0
O124 O 0.99818 0.30242 0.35136 0.0
O125 O 0.99614 0.32 0.34728 0.0
O126 O 0.6666 0.96877 0.32461 0.0
Cd127 Cd 0.65593 0.97286 0.33833 0.0
Cd128 Cd 0.67983 0.98611 0.35059 0.0
O129 O 0.68636 0.98046 0.33393 0.0
O130 O 0.63883 0.96698 0.3289 0.0
O131 O 0.65246 0.9879 0.33474 0.0
C132 C 0.64157 0.97917 0.32898 0.0
C133 C 0.68947 0.00839 0.35692 0.0
C134 C 0.67894 0.97296 0.3245 0.0
C135 C 0.6584 0.96357 0.36555 0.0
O136 O 0.67058 0.97231 0.36528 0.0
O137 O 0.65074 0.96245 0.35593 0.0
O138 O 0.69531 0.00166 0.35917 0.0
O139 O 0.67816 0.00247 0.35076 0.0
O140 O 0.03394 0.70119 0.32245 0.0
Cd141 Cd 0.02858 0.68614 0.33588 0.0
Cd142 Cd 0.01476 0.69667 0.34676 0.0
O143 O 0.02027 0.70781 0.32952 0.0
O144 O 0.03206 0.6728 0.32699 0.0
O145 O 0.01204 0.66865 0.33253 0.0
C146 C 0.0195 0.66464 0.32714 0.0
C147 C 0.99278 0.68628 0.35359 0.0
C148 C 0.0289 0.7086 0.32129 0.0
C149 C 0.03722 0.69808 0.36314 0.0
O150 O 0.0287 0.70177 0.36194 0.0
O151 O 0.0384 0.69105 0.354 0.0
O152 O 0.00042 0.69894 0.35481 0.0
O153 O 0.99755 0.67946 0.34814 0.0
O154 O 0.30553 0.33186 0.36206 0.0
Cd155 Cd 0.31109 0.32316 0.34722 0.0
Cd156 Cd 0.32245 0.34758 0.33708 0.0
O157 O 0.31691 0.35239 0.35494 0.0
O158 O 0.30973 0.30677 0.35483 0.0
O159 O 0.32871 0.32429 0.34935 0.0
C160 C 0.32244 0.31255 0.3543 0.0
C161 C 0.34418 0.35962 0.32976 0.0
C162 C 0.30941 0.34415 0.36354 0.0
C163 C 0.30041 0.32584 0.32091 0.0
O164 O 0.30809 0.33825 0.32248 0.0
O165 O 0.30052 0.31782 0.32935 0.0
O166 O 0.33635 0.36444 0.32924 0.0
O167 O 0.33973 0.348 0.33478 0.0
O168 O 0.33621 0.03186 0.69464 0.0
Cd169 Cd 0.3469 0.02825 0.68054 0.0
Cd170 Cd 0.32224 0.01388 0.66883 0.0
O171 O 0.31625 0.01931 0.68603 0.0
O172 O 0.36439 0.03504 0.68949 0.0
O173 O 0.35155 0.01395 0.68368 0.0
C174 C 0.36237 0.02309 0.68921 0.0
C175 C 0.31078 0.99179 0.66143 0.0
C176 C 0.3238 0.02713 0.6952 0.0
C177 C 0.343 0.03697 0.65358 0.0
O178 O 0.33096 0.02791 0.65423 0.0
O179 O 0.35112 0.03847 0.66287 0.0
O180 O 0.3058 0.99945 0.66033 0.0
O181 O 0.3223 0.99664 0.66702 0.0
O182 O 0.97548 0.30133 0.6957 0.0
Cd183 Cd 0.97843 0.31551 0.6819 0.0
Cd184 Cd 0.99097 0.30388 0.66904 0.0
O185 O 0.98596 0.29225 0.6858 0.0
O186 O 0.97195 0.3262 0.69151 0.0
O187 O 0.99267 0.33455 0.68526 0.0
C188 C 0.98376 0.33619 0.69115 0.0
C189 C 0.01276 0.31511 0.66183 0.0
C190 C 0.97932 0.29285 0.69555 0.0
C191 C 0.96784 0.3028 0.65475 0.0
O192 O 0.97651 0.29924 0.65472 0.0
O193 O 0.96723 0.30961 0.66448 0.0
O194 O 0.00538 0.30248 0.66002 0.0
O195 O 0.00781 0.32141 0.66807 0.0
O196 O 0.69078 0.66691 0.65389 0.0
Cd197 Cd 0.68547 0.67593 0.66863 0.0
Cd198 Cd 0.67519 0.65174 0.67965 0.0
O199 O 0.68156 0.64686 0.66237 0.0
O200 O 0.68865 0.69291 0.6608 0.0
O201 O 0.66872 0.67663 0.6658 0.0
C202 C 0.67608 0.68829 0.66098 0.0
C203 C 0.65342 0.63965 0.68676 0.0
C204 C 0.68811 0.6549 0.6532 0.0
C205 C 0.69683 0.67427 0.69521 0.0
O206 O 0.68921 0.66179 0.69432 0.0
O207 O 0.69652 0.68176 0.68624 0.0
O208 O 0.6614 0.63505 0.6878 0.0
O209 O 0.65771 0.65101 0.68118 0.0
O210 O 0.32737 0.30433 0.65801 0.0
Cd211 Cd 0.32013 0.31162 0.67268 0.0
Cd212 Cd 0.34486 0.32362 0.68151 0.0
O213 O 0.34831 0.31835 0.66279 0.0
O214 O 0.30389 0.311 0.66549 0.0
O215 O 0.32251 0.32971 0.67002 0.0
C216 C 0.31049 0.3238 0.66553 0.0
C217 C 0.358 0.34534 0.68959 0.0
C218 C 0.33953 0.30935 0.65524 0.0
C219 C 0.32452 0.30208 0.69841 0.0
O220 O 0.33672 0.30901 0.69573 0.0
O221 O 0.31592 0.3026 0.69103 0.0
O222 O 0.36242 0.33716 0.68893 0.0
O223 O 0.34609 0.34124 0.68538 0.0
O224 O 0.70195 0.03291 0.64721 0.0
Cd225 Cd 0.69619 0.01794 0.66084 0.0
Cd226 Cd 0.68374 0.02977 0.67206 0.0
O227 O 0.68903 0.04038 0.65452 0.0
O228 O 0.69717 0.00311 0.65176 0.0
O229 O 0.67845 0.0015 0.65868 0.0
C230 C 0.6845 0.99611 0.65281 0.0
C231 C 0.66244 0.02152 0.68039 0.0
C232 C 0.6973 0.04067 0.6461 0.0
C233 C 0.70618 0.03008 0.68769 0.0
O234 O 0.69812 0.03437 0.6866 0.0
O235 O 0.70667 0.02257 0.67862 0.0
O236 O 0.67101 0.03401 0.68093 0.0
O237 O 0.66583 0.01367 0.67464 0.0
O238 O 0.96596 0.66721 0.69757 0.0
Cd239 Cd 0.96998 0.65645 0.68371 0.0
Cd240 Cd 0.98364 0.6805 0.67239 0.0
O241 O 0.97819 0.68709 0.6892 0.0
O242 O 0.96523 0.63957 0.69283 0.0
O243 O 0.9856 0.65386 0.68675 0.0
C244 C 0.97752 0.64288 0.69245 0.0
C245 C 0.00565 0.69071 0.66583 0.0
C246 C 0.97045 0.67966 0.69816 0.0
C247 C 0.9609 0.65905 0.65645 0.0
O248 O 0.96975 0.67122 0.65732 0.0
O249 O 0.95954 0.65119 0.6658 0.0
O250 O 0.99859 0.69627 0.66408 0.0
O251 O 1.00028 0.67943 0.67175 0.0
C252 C 0.1884 0.28317 0.07127 0.0
C253 C 0.19865 0.29519 0.07941 0.0
C254 C 0.19107 0.29273 0.10212 0.0
C255 C 0.19297 0.30518 0.10595 0.0
C256 C 0.1845 0.30629 0.11514 0.0
C257 C 0.17381 0.29465 0.1204 0.0
C258 C 0.17215 0.28207 0.1168 0.0
C259 C 0.18098 0.2813 0.10785 0.0
C260 C 0.18675 0.31987 0.11892 0.0
C261 C 0.16076 0.26944 0.12201 0.0
C262 C 0.08911 0.29884 0.08193 0.0
C263 C 0.09659 0.29383 0.08966 0.0
C264 C 0.11634 0.3021 0.10391 0.0
C265 C 0.1137 0.28951 0.10804 0.0
C266 C 0.12262 0.28815 0.1164 0.0
C267 C 0.13437 0.29959 0.12077 0.0
C268 C 0.13691 0.31229 0.11688 0.0
C269 C 0.12784 0.31336 0.10849 0.0
C270 C 0.11961 0.27447 0.12041 0.0
C271 C 0.14929 0.32469 0.12144 0.0
C272 C 0.11137 0.29539 0.20738 0.0
C273 C 0.10942 0.28341 0.20164 0.0
C274 C 0.11956 0.28295 0.1946 0.0
C275 C 0.13188 0.29469 0.19319 0.0
C276 C 0.13395 0.3067 0.19911 0.0
C277 C 0.12366 0.30687 0.20617 0.0
C278 C 0.11707 0.26994 0.18852 0.0
C279 C 0.14697 0.31939 0.19781 0.0
C280 C 0.2102 0.27229 0.20175 0.0
C281 C 0.20955 0.28356 0.20911 0.0
C282 C 0.18833 0.28253 0.20635 0.0
C283 C 0.17547 0.27251 0.20332 0.0
C284 C 0.16667 0.27528 0.19642 0.0
C285 C 0.17077 0.28851 0.19285 0.0
C286 C 0.18359 0.29881 0.19651 0.0
C287 C 0.19229 0.29569 0.20317 0.0
C288 C 0.15304 0.26405 0.19283 0.0
C289 C 0.18811 0.31308 0.19333 0.0
C290 C 0.16375 0.2956 0.12863 0.0
C291 C 0.15419 0.29726 0.12188 0.0
C292 C 0.14433 0.29821 0.1288 0.0
C293 C 0.14394 0.29754 0.14291 0.0
C294 C 0.13422 0.29858 0.15019 0.0
C295 C 0.13379 0.29769 0.16407 0.0
C296 C 0.14303 0.29567 0.17119 0.0
C297 C 0.14247 0.29443 0.18526 0.0
C298 C 0.1518 0.2924 0.19203 0.0
C299 C 0.16169 0.29147 0.18511 0.0
C300 C 0.16243 0.29272 0.17102 0.0
C301 C 0.17225 0.29183 0.16372 0.0
C302 C 0.17284 0.29299 0.14987 0.0
C303 C 0.16347 0.29478 0.14274 0.0
C304 C 0.1535 0.29574 0.1499 0.0
C305 C 0.15303 0.29478 0.16405 0.0
C306 C 0.08099 0.28501 0.20222 0.0
C307 C 0.0886 0.28671 0.21533 0.0
O308 O 0.19865 0.29158 0.09257 0.0
O309 O 0.19658 0.27924 0.21263 0.0
O310 O 0.10175 0.2964 0.21404 0.0
O311 O 0.10816 0.30382 0.09549 0.0
H312 H 0.19584 0.30303 0.07892 0.0
H313 H 0.17841 0.27962 0.07543 0.0
H314 H 0.19062 0.27493 0.0716 0.0
H315 H 0.18828 0.2859 0.06068 0.0
H316 H 0.20098 0.31399 0.10161 0.0
H317 H 0.17969 0.27174 0.10482 0.0
H318 H 0.17896 0.32131 0.11417 0.0
H319 H 0.19653 0.3279 0.11563 0.0
H320 H 0.18604 0.32075 0.12993 0.0
H321 H 0.16042 0.26044 0.11763 0.0
H322 H 0.15128 0.26908 0.11971 0.0
H323 H 0.16162 0.26922 0.13305 0.0
H324 H 0.09794 0.28608 0.08437 0.0
H325 H 0.08922 0.29566 0.07126 0.0
H326 H 0.09616 0.30968 0.08013 0.0
H327 H 0.07162 0.29213 0.09269 0.0
H328 H 0.10478 0.2807 0.1047 0.0
H329 H 0.12976 0.32303 0.10533 0.0
H330 H 0.12753 0.2726 0.11683 0.0
H331 H 0.10998 0.26655 0.1163 0.0
H332 H 0.11943 0.27384 0.13149 0.0
H333 H 0.14945 0.33386 0.1182 0.0
H334 H 0.15806 0.3246 0.1173 0.0
H335 H 0.15018 0.32493 0.13252 0.0
H336 H 0.08792 0.27713 0.21791 0.0
H337 H 0.10003 0.27438 0.20252 0.0
H338 H 0.12512 0.31605 0.21066 0.0
H339 H 0.1177 0.2707 0.17746 0.0
H340 H 0.10722 0.26154 0.19113 0.0
H341 H 0.12478 0.26771 0.19199 0.0
H342 H 0.14697 0.32796 0.20286 0.0
H343 H 0.14923 0.32165 0.18707 0.0
H344 H 0.155 0.31813 0.20224 0.0
H345 H 0.21322 0.29203 0.20215 0.0
H346 H 0.2205 0.27554 0.19872 0.0
H347 H 0.20388 0.26936 0.19258 0.0
H348 H 0.20662 0.26349 0.20822 0.0
H349 H 0.17246 0.26242 0.20606 0.0
H350 H 0.20209 0.30354 0.20602 0.0
H351 H 0.15104 0.26414 0.18197 0.0
H352 H 0.14556 0.26541 0.19836 0.0
H353 H 0.15177 0.25421 0.19532 0.0
H354 H 0.19782 0.32004 0.19807 0.0
H355 H 0.1807 0.31574 0.19678 0.0
H356 H 0.189 0.31438 0.18234 0.0
H357 H 0.15439 0.29774 0.11104 0.0
H358 H 0.12681 0.30006 0.14523 0.0
H359 H 0.12606 0.29853 0.16914 0.0
H360 H 0.15121 0.29131 0.2028 0.0
H361 H 0.17961 0.29025 0.16863 0.0
H362 H 0.18066 0.29232 0.14479 0.0
H363 H 0.07042 0.2774 0.20334 0.0
H364 H 0.08506 0.2817 0.19398 0.0
H365 H 0.08169 0.29454 0.19937 0.0
C366 C 0.73218 0.92661 0.10546 0.0
C367 C 0.71997 0.91538 0.09828 0.0
C368 C 0.71033 0.89704 0.11425 0.0
C369 C 0.69914 0.88914 0.1218 0.0
C370 C 0.69804 0.8784 0.12906 0.0
C371 C 0.70863 0.87576 0.12908 0.0
C372 C 0.72003 0.88374 0.12151 0.0
C373 C 0.7207 0.89418 0.11404 0.0
C374 C 0.68556 0.86988 0.13669 0.0
C375 C 0.73154 0.88127 0.12132 0.0
C376 C 0.69961 0.78283 0.09126 0.0
C377 C 0.70522 0.79601 0.09813 0.0
C378 C 0.69819 0.80885 0.11196 0.0
C379 C 0.71106 0.81889 0.11548 0.0
C380 C 0.71315 0.8297 0.12364 0.0
C381 C 0.70217 0.83048 0.12844 0.0
C382 C 0.68922 0.82033 0.12506 0.0
C383 C 0.68741 0.80963 0.11685 0.0
C384 C 0.7271 0.84037 0.12707 0.0
C385 C 0.67731 0.82082 0.13008 0.0
C386 C 0.71215 0.81325 0.21401 0.0
C387 C 0.72395 0.82322 0.2085 0.0
C388 C 0.72427 0.83386 0.20171 0.0
C389 C 0.71257 0.83456 0.20042 0.0
C390 C 0.70074 0.82469 0.20614 0.0
C391 C 0.7007 0.81416 0.21287 0.0
C392 C 0.73707 0.84429 0.19577 0.0
C393 C 0.68811 0.82518 0.20498 0.0
C394 C 0.73498 0.93667 0.20839 0.0
C395 C 0.72443 0.92451 0.21563 0.0
C396 C 0.72608 0.90448 0.21372 0.0
C397 C 0.73596 0.90146 0.21073 0.0
C398 C 0.73291 0.88947 0.20423 0.0
C399 C 0.71959 0.88018 0.20098 0.0
C400 C 0.70946 0.88284 0.20475 0.0
C401 C 0.71282 0.89501 0.21105 0.0
C402 C 0.74395 0.88689 0.20054 0.0
C403 C 0.69512 0.87295 0.20189 0.0
C404 C 0.70777 0.86459 0.13692 0.0
C405 C 0.70493 0.85292 0.13 0.0
C406 C 0.70431 0.84214 0.13665 0.0
C407 C 0.70622 0.84281 0.15068 0.0
C408 C 0.70542 0.83206 0.15771 0.0
C409 C 0.70748 0.83288 0.1715 0.0
C410 C 0.71043 0.84449 0.17879 0.0
C411 C 0.71269 0.84548 0.19279 0.0
C412 C 0.71548 0.85713 0.19974 0.0
C413 C 0.71632 0.86799 0.19306 0.0
C414 C 0.71431 0.86727 0.17903 0.0
C415 C 0.71543 0.87813 0.17192 0.0
C416 C 0.71335 0.87731 0.15815 0.0
C417 C 0.71003 0.86557 0.15092 0.0
C418 C 0.7091 0.85458 0.15783 0.0
C419 C 0.71123 0.85543 0.1719 0.0
C420 C 0.72286 0.79329 0.20885 0.0
C421 C 0.72102 0.7992 0.22194 0.0
O422 O 0.7107 0.9073 0.10749 0.0
O423 O 0.72965 0.91656 0.21921 0.0
O424 O 0.71125 0.80255 0.22036 0.0
O425 O 0.69577 0.79832 0.10391 0.0
H426 H 0.72314 0.90945 0.09211 0.0
H427 H 0.73729 0.92256 0.11151 0.0
H428 H 0.72938 0.93238 0.11229 0.0
H429 H 0.73929 0.9334 0.09802 0.0
H430 H 0.69117 0.89136 0.12188 0.0
H431 H 0.72941 0.90008 0.10819 0.0
H432 H 0.6819 0.85921 0.13448 0.0
H433 H 0.67762 0.87214 0.13421 0.0
H434 H 0.68769 0.87158 0.14759 0.0
H435 H 0.74034 0.88938 0.11644 0.0
H436 H 0.72863 0.87185 0.11577 0.0
H437 H 0.73433 0.88019 0.13167 0.0
H438 H 0.7126 0.80455 0.09221 0.0
H439 H 0.70203 0.78511 0.08039 0.0
H440 H 0.68872 0.77904 0.08981 0.0
H441 H 0.70694 0.77285 0.10264 0.0
H442 H 0.71952 0.8184 0.11185 0.0
H443 H 0.67753 0.80183 0.11414 0.0
H444 H 0.72876 0.85012 0.12367 0.0
H445 H 0.73459 0.83841 0.12242 0.0
H446 H 0.7286 0.84109 0.13809 0.0
H447 H 0.66789 0.81188 0.12701 0.0
H448 H 0.67739 0.82974 0.12614 0.0
H449 H 0.67775 0.82172 0.14117 0.0
H450 H 0.7305 0.80818 0.22487 0.0
H451 H 0.73295 0.82278 0.20932 0.0
H452 H 0.69165 0.80647 0.21718 0.0
H453 H 0.73588 0.84443 0.18476 0.0
H454 H 0.7454 0.84251 0.1979 0.0
H455 H 0.73964 0.85423 0.19982 0.0
H456 H 0.67976 0.81682 0.21013 0.0
H457 H 0.68542 0.82485 0.19426 0.0
H458 H 0.68961 0.83467 0.20935 0.0
H459 H 0.71603 0.9192 0.20843 0.0
H460 H 0.73103 0.94323 0.2055 0.0
H461 H 0.73794 0.93345 0.19915 0.0
H462 H 0.74389 0.94239 0.21485 0.0
H463 H 0.74614 0.90875 0.21309 0.0
H464 H 0.70511 0.8971 0.21391 0.0
H465 H 0.74357 0.88477 0.18963 0.0
H466 H 0.74267 0.87801 0.20583 0.0
H467 H 0.75384 0.89542 0.20317 0.0
H468 H 0.68838 0.8758 0.20685 0.0
H469 H 0.69274 0.86296 0.2053 0.0
H470 H 0.69323 0.87223 0.19093 0.0
H471 H 0.70341 0.8523 0.11924 0.0
H472 H 0.70318 0.82287 0.15263 0.0
H473 H 0.70674 0.82428 0.17638 0.0
H474 H 0.71718 0.8578 0.21048 0.0
H475 H 0.71794 0.88743 0.17693 0.0
H476 H 0.71438 0.886 0.15324 0.0
H477 H 0.73052 0.79039 0.21022 0.0
H478 H 0.72612 0.80066 0.20076 0.0
H479 H 0.71345 0.78442 0.20562 0.0
C480 C 0.18396 0.90187 0.08085 0.0
C481 C 0.19556 0.90804 0.09089 0.0
C482 C 0.18613 0.89161 0.10878 0.0
C483 C 0.17714 0.8954 0.1135 0.0
C484 C 0.16736 0.88757 0.12269 0.0
C485 C 0.16658 0.87577 0.12732 0.0
C486 C 0.17596 0.87224 0.12305 0.0
C487 C 0.18565 0.88025 0.11387 0.0
C488 C 0.15762 0.89173 0.12719 0.0
C489 C 0.17551 0.85981 0.12793 0.0
C490 C 0.0692 0.8135 0.10358 0.0
C491 C 0.08017 0.81151 0.09755 0.0
C492 C 0.09832 0.81951 0.11414 0.0
C493 C 0.106 0.81565 0.12146 0.0
C494 C 0.11736 0.82499 0.12849 0.0
C495 C 0.12081 0.83851 0.12863 0.0
C496 C 0.11301 0.8425 0.12133 0.0
C497 C 0.10196 0.833 0.114 0.0
C498 C 0.12566 0.82036 0.13572 0.0
C499 C 0.11632 0.85682 0.12128 0.0
C500 C 0.09918 0.82804 0.2164 0.0
C501 C 0.1067 0.8229 0.2108 0.0
C502 C 0.11802 0.831 0.20335 0.0
C503 C 0.12161 0.8444 0.20117 0.0
C504 C 0.11404 0.84959 0.20696 0.0
C505 C 0.10305 0.84137 0.21473 0.0
C506 C 0.12613 0.82523 0.19787 0.0
C507 C 0.11748 0.86378 0.20492 0.0
C508 C 0.20944 0.93351 0.21091 0.0
C509 C 0.20319 0.92511 0.2233 0.0
C510 C 0.18911 0.9025 0.214 0.0
C511 C 0.18788 0.88997 0.21246 0.0
C512 C 0.17714 0.87967 0.20545 0.0
C513 C 0.16735 0.882 0.19987 0.0
C514 C 0.16844 0.89461 0.20146 0.0
C515 C 0.17931 0.90474 0.20847 0.0
C516 C 0.17626 0.86634 0.20392 0.0
C517 C 0.15812 0.89739 0.19569 0.0
C518 C 0.15534 0.86666 0.13577 0.0
C519 C 0.14394 0.85691 0.12923 0.0
C520 C 0.1326 0.84849 0.13634 0.0
C521 C 0.13258 0.84976 0.15044 0.0
C522 C 0.12119 0.84183 0.15788 0.0
C523 C 0.12136 0.84293 0.17176 0.0
C524 C 0.13293 0.85201 0.17876 0.0
C525 C 0.13327 0.85302 0.1929 0.0
C526 C 0.14477 0.86262 0.19946 0.0
C527 C 0.15597 0.8713 0.1923 0.0
C528 C 0.15596 0.87013 0.1782 0.0
C529 C 0.16718 0.87848 0.17071 0.0
C530 C 0.16703 0.87735 0.15682 0.0
C531 C 0.15565 0.86784 0.14989 0.0
C532 C 0.14423 0.85931 0.15724 0.0
C533 C 0.14439 0.86044 0.17141 0.0
C534 C 0.06642 0.81114 0.21575 0.0
C535 C 0.07765 0.80856 0.21947 0.0
O536 O 0.1952 0.8984 0.0992 0.0
O537 O 0.19989 0.91205 0.22078 0.0
O538 O 0.08841 0.82043 0.22383 0.0
O539 O 0.08745 0.8099 0.10758 0.0
H540 H 0.19504 0.9158 0.09703 0.0
H541 H 0.17438 0.8976 0.08609 0.0
H542 H 0.18412 0.89384 0.07484 0.0
H543 H 0.1845 0.90955 0.07398 0.0
H544 H 0.17752 0.90431 0.10994 0.0
H545 H 0.1927 0.87746 0.11031 0.0
H546 H 0.14749 0.8841 0.12396 0.0
H547 H 0.15982 0.90143 0.12306 0.0
H548 H 0.1577 0.89244 0.13828 0.0
H549 H 0.184 0.85888 0.12435 0.0
H550 H 0.16621 0.85099 0.12436 0.0
H551 H 0.17548 0.85976 0.13904 0.0
H552 H 0.0867 0.82037 0.09155 0.0
H553 H 0.06299 0.81411 0.09548 0.0
H554 H 0.07349 0.82285 0.10958 0.0
H555 H 0.06283 0.80523 0.11025 0.0
H556 H 0.10314 0.80523 0.12149 0.0
H557 H 0.09617 0.8362 0.10837 0.0
H558 H 0.12417 0.82054 0.14666 0.0
H559 H 0.13631 0.82708 0.13378 0.0
H560 H 0.123 0.81009 0.13268 0.0
H561 H 0.10822 0.85798 0.11685 0.0
H562 H 0.12535 0.86268 0.11533 0.0
H563 H 0.11837 0.86105 0.13161 0.0
H564 H 0.08016 0.80468 0.21036 0.0
H565 H 0.10384 0.81263 0.21248 0.0
H566 H 0.09723 0.84524 0.21929 0.0
H567 H 0.12456 0.82373 0.18689 0.0
H568 H 0.12339 0.81552 0.20236 0.0
H569 H 0.13682 0.83216 0.19975 0.0
H570 H 0.10951 0.86566 0.20832 0.0
H571 H 0.1194 0.86635 0.19419 0.0
H572 H 0.12663 0.8705 0.21067 0.0
H573 H 0.19419 0.92555 0.22598 0.0
H574 H 0.21225 0.94401 0.21301 0.0
H575 H 0.20234 0.92983 0.20236 0.0
H576 H 0.21838 0.9331 0.20794 0.0
H577 H 0.19546 0.88831 0.21674 0.0
H578 H 0.18004 0.91435 0.20949 0.0
H579 H 0.17576 0.86367 0.19313 0.0
H580 H 0.16706 0.85861 0.20858 0.0
H581 H 0.18483 0.8662 0.2086 0.0
H582 H 0.16009 0.90754 0.19827 0.0
H583 H 0.14822 0.89008 0.19943 0.0
H584 H 0.15783 0.89626 0.18463 0.0
H585 H 0.14383 0.85599 0.11841 0.0
H586 H 0.112 0.83466 0.15306 0.0
H587 H 0.11229 0.83655 0.17694 0.0
H588 H 0.14491 0.86353 0.21029 0.0
H589 H 0.17623 0.88597 0.17552 0.0
H590 H 0.17595 0.88402 0.15157 0.0
H591 H 0.06331 0.81468 0.22466 0.0
H592 H 0.05777 0.80198 0.21165 0.0
H593 H 0.06979 0.81885 0.20797 0.0
C594 C 0.31148 0.12198 0.93751 0.0
C595 C 0.30138 0.10844 0.93141 0.0
C596 C 0.29981 0.1155 0.90916 0.0
C597 C 0.28684 0.11308 0.90812 0.0
C598 C 0.28373 0.12074 0.89971 0.0
C599 C 0.29391 0.1312 0.89246 0.0
C600 C 0.307 0.1335 0.89339 0.0
C601 C 0.30971 0.12539 0.90153 0.0
C602 C 0.26962 0.11777 0.89875 0.0
C603 C 0.31821 0.14475 0.88613 0.0
C604 C 0.26931 0.1848 0.94274 0.0
C605 C 0.28151 0.19268 0.93415 0.0
C606 C 0.28014 0.18421 0.91161 0.0
C607 C 0.29305 0.18689 0.90932 0.0
C608 C 0.2955 0.17907 0.90024 0.0
C609 C 0.28475 0.1682 0.89355 0.0
C610 C 0.27171 0.16568 0.89569 0.0
C611 C 0.26963 0.17394 0.9045 0.0
C612 C 0.30954 0.18226 0.89802 0.0
C613 C 0.25994 0.15402 0.88903 0.0
C614 C 0.27753 0.18525 0.80647 0.0
C615 C 0.29019 0.18931 0.8116 0.0
C616 C 0.29275 0.18041 0.81858 0.0
C617 C 0.28233 0.16731 0.8207 0.0
C618 C 0.26959 0.1632 0.81534 0.0
C619 C 0.26744 0.17219 0.80807 0.0
C620 C 0.30659 0.185 0.82361 0.0
C621 C 0.25822 0.14933 0.81731 0.0
C622 C 0.27686 0.07623 0.80965 0.0
C623 C 0.27941 0.08416 0.79679 0.0
C624 C 0.28832 0.10702 0.80559 0.0
C625 C 0.29988 0.11918 0.80766 0.0
C626 C 0.29978 0.12961 0.81478 0.0
C627 C 0.28774 0.12781 0.81991 0.0
C628 C 0.27592 0.11563 0.81761 0.0
C629 C 0.27632 0.10535 0.8105 0.0
C630 C 0.31254 0.14248 0.81703 0.0
C631 C 0.26289 0.11343 0.82286 0.0
C632 C 0.29103 0.14026 0.88463 0.0
C633 C 0.2894 0.14977 0.89172 0.0
C634 C 0.28703 0.15891 0.88514 0.0
C635 C 0.28657 0.15883 0.871 0.0
C636 C 0.28464 0.16815 0.86402 0.0
C637 C 0.28395 0.16782 0.85011 0.0
C638 C 0.28535 0.15827 0.84261 0.0
C639 C 0.2847 0.15787 0.82845 0.0
C640 C 0.28582 0.14803 0.82137 0.0
C641 C 0.28751 0.13848 0.82802 0.0
C642 C 0.28843 0.13887 0.84215 0.0
C643 C 0.2903 0.12951 0.84914 0.0
C644 C 0.2911 0.1299 0.86304 0.0
C645 C 0.2901 0.13969 0.8705 0.0
C646 C 0.28802 0.14912 0.86366 0.0
C647 C 0.28733 0.14879 0.84946 0.0
C648 C 0.26499 0.20535 0.80866 0.0
C649 C 0.27779 0.20614 0.80387 0.0
O650 O 0.30303 0.10855 0.91767 0.0
O651 O 0.28927 0.09722 0.79897 0.0
O652 O 0.27491 0.1936 0.79951 0.0
O653 O 0.27762 0.19128 0.92082 0.0
H654 H 0.29126 0.10651 0.93368 0.0
H655 H 0.30999 0.12992 0.93327 0.0
H656 H 0.3217 0.12422 0.93533 0.0
H657 H 0.3103 0.12214 0.94852 0.0
H658 H 0.27915 0.10519 0.91385 0.0
H659 H 0.31968 0.12709 0.90242 0.0
H660 H 0.2687 0.12569 0.90411 0.0
H661 H 0.26262 0.1081 0.90322 0.0
H662 H 0.26673 0.11767 0.88813 0.0
H663 H 0.32799 0.14621 0.88924 0.0
H664 H 0.31812 0.15414 0.88799 0.0
H665 H 0.31696 0.14264 0.8752 0.0
H666 H 0.28813 0.18847 0.93578 0.0
H667 H 0.2722 0.18569 0.95347 0.0
H668 H 0.2643 0.17414 0.93972 0.0
H669 H 0.26221 0.18844 0.94147 0.0
H670 H 0.30118 0.19507 0.91469 0.0
H671 H 0.2597 0.17205 0.90633 0.0
H672 H 0.31116 0.17466 0.90288 0.0
H673 H 0.31683 0.19216 0.90224 0.0
H674 H 0.31139 0.18199 0.88716 0.0
H675 H 0.25043 0.15255 0.89296 0.0
H676 H 0.26036 0.14479 0.89051 0.0
H677 H 0.26013 0.15564 0.8781 0.0
H678 H 0.28487 0.20961 0.81249 0.0
H679 H 0.2981 0.19934 0.80992 0.0
H680 H 0.25776 0.16914 0.80385 0.0
H681 H 0.30689 0.1859 0.83468 0.0
H682 H 0.31389 0.19476 0.81952 0.0
H683 H 0.3096 0.1776 0.82087 0.0
H684 H 0.24862 0.14829 0.81415 0.0
H685 H 0.25761 0.14656 0.82798 0.0
H686 H 0.2599 0.14221 0.81132 0.0
H687 H 0.27016 0.08386 0.7935 0.0
H688 H 0.26912 0.06572 0.80781 0.0
H689 H 0.27337 0.08036 0.81769 0.0
H690 H 0.28605 0.07657 0.81321 0.0
H691 H 0.30908 0.12042 0.8038 0.0
H692 H 0.26723 0.09607 0.80895 0.0
H693 H 0.31452 0.1445 0.82794 0.0
H694 H 0.31165 0.15079 0.81281 0.0
H695 H 0.32108 0.14233 0.81238 0.0
H696 H 0.25448 0.10364 0.81968 0.0
H697 H 0.26103 0.12134 0.81928 0.0
H698 H 0.26329 0.11402 0.83396 0.0
H699 H 0.28992 0.15002 0.90258 0.0
H700 H 0.28361 0.17579 0.86926 0.0
H701 H 0.28231 0.17516 0.8453 0.0
H702 H 0.28513 0.14764 0.81052 0.0
H703 H 0.29118 0.12176 0.84394 0.0
H704 H 0.29249 0.12242 0.86788 0.0
H705 H 0.25772 0.2023 0.80027 0.0
H706 H 0.26692 0.21507 0.81281 0.0
H707 H 0.2606 0.19791 0.81668 0.0
C708 C 0.79912 0.07027 0.91027 0.0
C709 C 0.80115 0.08159 0.91982 0.0
C710 C 0.81126 0.10147 0.90579 0.0
C711 C 0.80908 0.11098 0.89975 0.0
C712 C 0.81897 0.12128 0.89235 0.0
C713 C 0.83133 0.12197 0.89085 0.0
C714 C 0.83364 0.1124 0.89691 0.0
C715 C 0.82362 0.10227 0.90437 0.0
C716 C 0.81622 0.13142 0.88613 0.0
C717 C 0.84671 0.11284 0.89544 0.0
C718 C 0.9176 0.21137 0.92977 0.0
C719 C 0.90992 0.19865 0.92211 0.0
C720 C 0.88987 0.18681 0.90827 0.0
C721 C 0.89233 0.17667 0.90404 0.0
C722 C 0.88329 0.16623 0.89569 0.0
C723 C 0.87161 0.16598 0.89139 0.0
C724 C 0.86923 0.1763 0.89542 0.0
C725 C 0.8784 0.18657 0.90383 0.0
C726 C 0.88611 0.15536 0.89159 0.0
C727 C 0.85692 0.17637 0.89094 0.0
C728 C 0.89667 0.18249 0.80517 0.0
C729 C 0.89847 0.17285 0.81168 0.0
C730 C 0.88806 0.1625 0.81855 0.0
C731 C 0.87565 0.16187 0.8191 0.0
C732 C 0.87376 0.17144 0.81243 0.0
C733 C 0.88429 0.18158 0.80547 0.0
C734 C 0.89034 0.15229 0.82533 0.0
C735 C 0.86066 0.17105 0.8128 0.0
C736 C 0.79093 0.06349 0.81037 0.0
C737 C 0.79379 0.07576 0.80241 0.0
C738 C 0.81625 0.09433 0.80537 0.0
C739 C 0.82861 0.09597 0.80864 0.0
C740 C 0.83818 0.10746 0.81541 0.0
C741 C 0.83535 0.11765 0.81869 0.0
C742 C 0.8231 0.11634 0.81475 0.0
C743 C 0.81366 0.10467 0.80812 0.0
C744 C 0.8512 0.10859 0.81931 0.0
C745 C 0.81994 0.12721 0.81769 0.0
C746 C 0.84186 0.13277 0.88299 0.0
C747 C 0.85137 0.14406 0.88992 0.0
C748 C 0.86161 0.1546 0.8832 0.0
C749 C 0.86236 0.15398 0.86911 0.0
C750 C 0.87238 0.1645 0.86199 0.0
C751 C 0.87313 0.1637 0.84814 0.0
C752 C 0.86391 0.15233 0.84088 0.0
C753 C 0.86475 0.15131 0.82684 0.0
C754 C 0.85529 0.13996 0.81991 0.0
C755 C 0.84502 0.12945 0.82664 0.0
C756 C 0.84414 0.1302 0.84071 0.0
C757 C 0.8341 0.11969 0.84784 0.0
C758 C 0.83332 0.12051 0.86167 0.0
C759 C 0.84256 0.13185 0.86893 0.0
C760 C 0.85282 0.14253 0.86196 0.0
C761 C 0.85361 0.1417 0.84784 0.0
C762 C 0.92643 0.20356 0.81176 0.0
C763 C 0.91983 0.19672 0.79844 0.0
O764 O 0.80115 0.09175 0.91273 0.0
O765 O 0.80713 0.08275 0.79942 0.0
O766 O 0.9065 0.19283 0.79856 0.0
O767 O 0.89821 0.1969 0.91665 0.0
H768 H 0.81071 0.08541 0.9253 0.0
H769 H 0.80729 0.07376 0.90301 0.0
H770 H 0.78969 0.06639 0.90456 0.0
H771 H 0.79892 0.06205 0.91599 0.0
H772 H 0.79954 0.11031 0.90089 0.0
H773 H 0.82553 0.09504 0.90897 0.0
H774 H 0.82388 0.14156 0.88941 0.0
H775 H 0.80634 0.12989 0.88882 0.0
H776 H 0.81672 0.13084 0.87508 0.0
H777 H 0.84672 0.10425 0.90013 0.0
H778 H 0.85467 0.12211 0.90017 0.0
H779 H 0.84908 0.11298 0.88468 0.0
H780 H 0.90871 0.18971 0.92733 0.0
H781 H 0.91778 0.20837 0.94039 0.0
H782 H 0.91061 0.2152 0.93186 0.0
H783 H 0.9348 0.22188 0.91856 0.0
H784 H 0.90122 0.17676 0.90729 0.0
H785 H 0.87661 0.19446 0.90708 0.0
H786 H 0.87794 0.14562 0.89481 0.0
H787 H 0.89553 0.15686 0.89596 0.0
H788 H 0.88663 0.15493 0.88052 0.0
H789 H 0.85692 0.18553 0.89423 0.0
H790 H 0.8481 0.16767 0.89509 0.0
H791 H 0.85598 0.17548 0.87987 0.0
H792 H 0.92102 0.18791 0.79675 0.0
H793 H 0.90794 0.17331 0.81152 0.0
H794 H 0.88296 0.189 0.80038 0.0
H795 H 0.88981 0.15327 0.83634 0.0
H796 H 0.90011 0.1534 0.8229 0.0
H797 H 0.88249 0.14214 0.82231 0.0
H798 H 0.86097 0.1796 0.80765 0.0
H799 H 0.8577 0.17106 0.82334 0.0
H800 H 0.85294 0.16174 0.80791 0.0
H801 H 0.79098 0.08179 0.80889 0.0
H802 H 0.78026 0.05768 0.81279 0.0
H803 H 0.79668 0.06659 0.81991 0.0
H804 H 0.79375 0.05705 0.80463 0.0
H805 H 0.8306 0.08802 0.80623 0.0
H806 H 0.80431 0.10369 0.80502 0.0
H807 H 0.85273 0.11013 0.83031 0.0
H808 H 0.8594 0.11737 0.8145 0.0
H809 H 0.85174 0.09964 0.81634 0.0
H810 H 0.81046 0.12516 0.81299 0.0
H811 H 0.82799 0.13682 0.81404 0.0
H812 H 0.81929 0.12826 0.82867 0.0
H813 H 0.85084 0.14461 0.90073 0.0
H814 H 0.87977 0.17346 0.86706 0.0
H815 H 0.88106 0.17211 0.8432 0.0
H816 H 0.85598 0.13926 0.80913 0.0
H817 H 0.82672 0.1107 0.84281 0.0
H818 H 0.82539 0.11211 0.86662 0.0
H819 H 0.93713 0.20681 0.81162 0.0
H820 H 0.92193 0.19664 0.82016 0.0
H821 H 0.92525 0.21235 0.81363 0.0
C822 C 0.80038 0.68164 0.93286 0.0
C823 C 0.79899 0.69379 0.92985 0.0
C824 C 0.80839 0.69868 0.9078 0.0
C825 C 0.81923 0.71155 0.90862 0.0
C826 C 0.8302 0.71534 0.90038 0.0
C827 C 0.83038 0.70592 0.89136 0.0
C828 C 0.81931 0.69293 0.89044 0.0
C829 C 0.80831 0.68958 0.89849 0.0
C830 C 0.84169 0.72932 0.90152 0.0
C831 C 0.81922 0.68246 0.88126 0.0
C832 C 0.92689 0.73185 0.9129 0.0
C833 C 0.91565 0.72201 0.92173 0.0
C834 C 0.89598 0.71268 0.90688 0.0
C835 C 0.88681 0.70127 0.89987 0.0
C836 C 0.87655 0.70107 0.89234 0.0
C837 C 0.87553 0.71266 0.89174 0.0
C838 C 0.88477 0.72428 0.8988 0.0
C839 C 0.89488 0.72417 0.90635 0.0
C840 C 0.86681 0.68848 0.885 0.0
C841 C 0.88396 0.73682 0.89831 0.0
C842 C 0.9042 0.73 0.80819 0.0
C843 C 0.89434 0.71685 0.81038 0.0
C844 C 0.88242 0.71402 0.81644 0.0
C845 C 0.88038 0.72458 0.82042 0.0
C846 C 0.89006 0.73781 0.81764 0.0
C847 C 0.9018 0.74033 0.81139 0.0
C848 C 0.8721 0.69977 0.81882 0.0
C849 C 0.88814 0.7493 0.82159 0.0
C850 C 0.79332 0.7269 0.81008 0.0
C851 C 0.79868 0.72418 0.79717 0.0
C852 C 0.8133 0.71623 0.80578 0.0
C853 C 0.81438 0.70493 0.80761 0.0
C854 C 0.82515 0.7056 0.81459 0.0
C855 C 0.8351 0.71794 0.81987 0.0
C856 C 0.83425 0.7295 0.81784 0.0
C857 C 0.82337 0.72855 0.8108 0.0
C858 C 0.82581 0.69309 0.81649 0.0
C859 C 0.84476 0.74282 0.82329 0.0
C860 C 0.84247 0.70938 0.88359 0.0
C861 C 0.85309 0.70967 0.8904 0.0
C862 C 0.86473 0.7126 0.88381 0.0
C863 C 0.86585 0.71522 0.86997 0.0
C864 C 0.87743 0.7182 0.86303 0.0
C865 C 0.87835 0.7205 0.84936 0.0
C866 C 0.86771 0.71985 0.84207 0.0
C867 C 0.86843 0.72185 0.82809 0.0
C868 C 0.8577 0.7212 0.82117 0.0
C869 C 0.8462 0.71868 0.82785 0.0
C870 C 0.8453 0.71668 0.84183 0.0
C871 C 0.83392 0.71423 0.84888 0.0
C872 C 0.83304 0.71204 0.86259 0.0
C873 C 0.84343 0.71205 0.86975 0.0
C874 C 0.85512 0.71482 0.86289 0.0
C875 C 0.85605 0.71714 0.84892 0.0
C876 C 0.93572 0.73746 0.81445 0.0
C877 C 0.92353 0.72729 0.80651 0.0
O878 O 0.79804 0.69479 0.91612 0.0
O879 O 0.80236 0.71469 0.79927 0.0
O880 O 0.91605 0.73304 0.80293 0.0
O881 O 0.90569 0.71211 0.9139 0.0
H882 H 0.80786 0.70284 0.93388 0.0
H883 H 0.80944 0.68267 0.92817 0.0
H884 H 0.7917 0.67244 0.92886 0.0
H885 H 0.80125 0.68067 0.94381 0.0
H886 H 0.8191 0.71859 0.91574 0.0
H887 H 0.7998 0.67966 0.89796 0.0
H888 H 0.85001 0.72924 0.90682 0.0
H889 H 0.8391 0.73599 0.90716 0.0
H890 H 0.84516 0.73344 0.89143 0.0
H891 H 0.81066 0.67245 0.88308 0.0
H892 H 0.82846 0.68208 0.88258 0.0
H893 H 0.81871 0.685 0.8707 0.0
H894 H 0.91164 0.72738 0.9276 0.0
H895 H 0.93494 0.73967 0.91921 0.0
H896 H 0.9233 0.73676 0.90596 0.0
H897 H 0.93097 0.72667 0.90684 0.0
H898 H 0.88772 0.69245 0.90033 0.0
H899 H 0.90186 0.73312 0.9117 0.0
H900 H 0.86739 0.69026 0.87408 0.0
H901 H 0.8566 0.68549 0.88812 0.0
H902 H 0.86868 0.68016 0.88686 0.0
H903 H 0.89222 0.7452 0.90389 0.0
H904 H 0.87449 0.73499 0.90266 0.0
H905 H 0.88411 0.73972 0.88776 0.0
H906 H 0.91793 0.71878 0.81326 0.0
H907 H 0.89595 0.70879 0.80735 0.0
H908 H 0.90939 0.75043 0.8094 0.0
H909 H 0.8713 0.69789 0.82972 0.0
H910 H 0.87452 0.69268 0.8138 0.0
H911 H 0.8623 0.69781 0.81514 0.0
H912 H 0.89679 0.75903 0.81908 0.0
H913 H 0.8864 0.74915 0.83251 0.0
H914 H 0.87927 0.7483 0.81638 0.0
H915 H 0.80736 0.73353 0.7938 0.0
H916 H 0.79015 0.73431 0.80829 0.0
H917 H 0.80105 0.73095 0.81805 0.0
H918 H 0.78476 0.71762 0.81373 0.0
H919 H 0.80663 0.69549 0.80366 0.0
H920 H 0.8228 0.73745 0.8094 0.0
H921 H 0.82556 0.69105 0.82733 0.0
H922 H 0.83527 0.69445 0.81256 0.0
H923 H 0.8175 0.68435 0.81137 0.0
H924 H 0.84274 0.75092 0.82077 0.0
H925 H 0.85451 0.74523 0.81921 0.0
H926 H 0.84541 0.74242 0.83434 0.0
H927 H 0.85227 0.70752 0.901 0.0
H928 H 0.8859 0.71875 0.86809 0.0
H929 H 0.8875 0.72271 0.84456 0.0
H930 H 0.85829 0.72267 0.81045 0.0
H931 H 0.82555 0.71395 0.84388 0.0
H932 H 0.82406 0.71023 0.86749 0.0
H933 H 0.94174 0.74647 0.80848 0.0
H934 H 0.94192 0.73309 0.81733 0.0
H935 H 0.93261 0.74045 0.82372 0.0
C936 C 0.85523 0.6311 0.40346 0.0
C937 C 0.86604 0.63956 0.41377 0.0
C938 C 0.85576 0.63244 0.43532 0.0
C939 C 0.85747 0.64425 0.44112 0.0
C940 C 0.8485 0.64402 0.45057 0.0
C941 C 0.83759 0.63172 0.45423 0.0
C942 C 0.83616 0.61976 0.44877 0.0
C943 C 0.84541 0.62028 0.43949 0.0
C944 C 0.8505 0.65693 0.45641 0.0
C945 C 0.82465 0.60648 0.45243 0.0
C946 C 0.75135 0.63448 0.41989 0.0
C947 C 0.75788 0.62923 0.42877 0.0
C948 C 0.77764 0.6373 0.44297 0.0
C949 C 0.77628 0.62473 0.44493 0.0
C950 C 0.78589 0.62339 0.45211 0.0
C951 C 0.79713 0.63484 0.45736 0.0
C952 C 0.79851 0.64749 0.45544 0.0
C953 C 0.78869 0.64854 0.44832 0.0
C954 C 0.78408 0.60974 0.45404 0.0
C955 C 0.81041 0.6599 0.46083 0.0
C956 C 0.77787 0.62933 0.54501 0.0
C957 C 0.77433 0.61783 0.53728 0.0
C958 C 0.78378 0.61665 0.52967 0.0
C959 C 0.79694 0.62737 0.52944 0.0
C960 C 0.80057 0.63885 0.53746 0.0
C961 C 0.79101 0.63955 0.54532 0.0
C962 C 0.77966 0.60398 0.5218 0.0
C963 C 0.8145 0.65046 0.53756 0.0
C964 C 0.87891 0.60778 0.5322 0.0
C965 C 0.87576 0.61729 0.53993 0.0
C966 C 0.85363 0.61432 0.53734 0.0
C967 C 0.841 0.60419 0.53365 0.0
C968 C 0.83181 0.60707 0.52777 0.0
C969 C 0.8353 0.62044 0.52582 0.0
C970 C 0.84784 0.63078 0.53018 0.0
C971 C 0.8569 0.62761 0.5359 0.0
C972 C 0.81846 0.59581 0.52341 0.0
C973 C 0.85169 0.64514 0.52865 0.0
C974 C 0.82725 0.63147 0.46302 0.0
C975 C 0.81745 0.63328 0.45701 0.0
C976 C 0.80754 0.63353 0.46459 0.0
C977 C 0.80745 0.63211 0.47862 0.0
C978 C 0.7979 0.63274 0.4866 0.0
C979 C 0.79785 0.63126 0.50039 0.0
C980 C 0.80712 0.6287 0.5067 0.0
C981 C 0.80686 0.62672 0.52067 0.0
C982 C 0.81619 0.62413 0.52657 0.0
C983 C 0.82592 0.62358 0.51894 0.0
C984 C 0.82643 0.62569 0.50499 0.0
C985 C 0.83618 0.62537 0.49703 0.0
C986 C 0.83658 0.62743 0.48332 0.0
C987 C 0.8271 0.62963 0.47698 0.0
C988 C 0.81717 0.62998 0.48481 0.0
C989 C 0.81691 0.62814 0.49885 0.0
C990 C 0.75545 0.63415 0.53649 0.0
C991 C 0.7559 0.62656 0.54874 0.0
O992 O 0.86383 0.63259 0.42552 0.0
O993 O 0.86231 0.61092 0.54239 0.0
O994 O 0.76896 0.63093 0.55231 0.0
O995 O 0.76861 0.63901 0.43594 0.0
H996 H 0.86554 0.64876 0.41561 0.0
H997 H 0.84545 0.62891 0.4073 0.0
H998 H 0.85496 0.62155 0.40146 0.0
H999 H 0.85699 0.63651 0.39393 0.0
H1000 H 0.86577 0.65364 0.43821 0.0
H1001 H 0.84429 0.61122 0.43505 0.0
H1002 H 0.84247 0.65863 0.45283 0.0
H1003 H 0.86013 0.66553 0.45357 0.0
H1004 H 0.84999 0.65644 0.4675 0.0
H1005 H 0.82486 0.59811 0.44717 0.0
H1006 H 0.81524 0.60616 0.44988 0.0
H1007 H 0.82476 0.60509 0.46338 0.0
H1008 H 0.75103 0.62073 0.43504 0.0
H1009 H 0.75483 0.62972 0.40055 0.0
H1010 H 0.75484 0.64499 0.42338 0.0
H1011 H 0.74111 0.63043 0.42399 0.0
H1012 H 0.76777 0.61592 0.44088 0.0
H1013 H 0.78967 0.65819 0.44677 0.0
H1014 H 0.79226 0.60909 0.44915 0.0
H1015 H 0.77455 0.60177 0.44979 0.0
H1016 H 0.7845 0.60797 0.46487 0.0
H1017 H 0.81011 0.66902 0.45836 0.0
H1018 H 0.81955 0.66065 0.45665 0.0
H1019 H 0.811 0.65934 0.47187 0.0
H1020 H 0.75073 0.61577 0.54628 0.0
H1021 H 0.76427 0.60967 0.53729 0.0
H1022 H 0.79367 0.64831 0.55145 0.0
H1023 H 0.77904 0.60572 0.51101 0.0
H1024 H 0.76988 0.59582 0.52492 0.0
H1025 H 0.78709 0.60076 0.52304 0.0
H1026 H 0.81538 0.65915 0.54325 0.0
H1027 H 0.81784 0.65349 0.52717 0.0
H1028 H 0.82125 0.64748 0.54221 0.0
H1029 H 0.87878 0.62601 0.53344 0.0
H1030 H 0.88966 0.61265 0.53014 0.0
H1031 H 0.87346 0.60493 0.52248 0.0
H1032 H 0.87593 0.59863 0.53794 0.0
H1033 H 0.8385 0.59398 0.53505 0.0
H1034 H 0.86647 0.6355 0.53931 0.0
H1035 H 0.81693 0.59649 0.51254 0.0
H1036 H 0.81058 0.5966 0.52879 0.0
H1037 H 0.81738 0.58594 0.52537 0.0
H1038 H 0.86145 0.652 0.53335 0.0
H1039 H 0.84411 0.647 0.53324 0.0
H1040 H 0.85211 0.64743 0.51786 0.0
H1041 H 0.8175 0.63448 0.44626 0.0
H1042 H 0.7904 0.63448 0.48227 0.0
H1043 H 0.79034 0.632 0.50601 0.0
H1044 H 0.81587 0.62248 0.53725 0.0
H1045 H 0.84365 0.62357 0.50132 0.0
H1046 H 0.84435 0.62715 0.47771 0.0
H1047 H 0.76051 0.64497 0.53879 0.0
H1048 H 0.74509 0.63072 0.53336 0.0
H1049 H 0.76045 0.63244 0.52791 0.0
C1050 C 0.39894 0.26526 0.43544 0.0
C1051 C 0.38636 0.25437 0.42845 0.0
C1052 C 0.37664 0.23559 0.4439 0.0
C1053 C 0.36536 0.22752 0.45126 0.0
C1054 C 0.36401 0.2164 0.45797 0.0
C1055 C 0.37449 0.21359 0.45772 0.0
C1056 C 0.38595 0.2217 0.45028 0.0
C1057 C 0.38682 0.23248 0.44327 0.0
C1058 C 0.35139 0.20772 0.46533 0.0
C1059 C 0.39735 0.21906 0.44978 0.0
C1060 C 0.36536 0.12006 0.41974 0.0
C1061 C 0.37101 0.13335 0.42639 0.0
C1062 C 0.36397 0.14639 0.43992 0.0
C1063 C 0.37682 0.15649 0.44339 0.0
C1064 C 0.37887 0.16737 0.45142 0.0
C1065 C 0.36787 0.16817 0.4561 0.0
C1066 C 0.35493 0.158 0.45269 0.0
C1067 C 0.35317 0.14723 0.44464 0.0
C1068 C 0.39279 0.17804 0.45493 0.0
C1069 C 0.34299 0.15851 0.45758 0.0
C1070 C 0.3735 0.14791 0.54168 0.0
C1071 C 0.38553 0.15817 0.53685 0.0
C1072 C 0.38606 0.16899 0.53026 0.0
C1073 C 0.37435 0.16957 0.52842 0.0
C1074 C 0.36227 0.15938 0.53341 0.0
C1075 C 0.36203 0.14868 0.53999 0.0
C1076 C 0.39912 0.17976 0.52512 0.0
C1077 C 0.34962 0.15972 0.53162 0.0
C1078 C 0.39889 0.26972 0.54423 0.0
C1079 C 0.38568 0.2582 0.54879 0.0
C1080 C 0.3852 0.23723 0.54561 0.0
C1081 C 0.39523 0.23417 0.54386 0.0
C1082 C 0.39312 0.22317 0.53601 0.0
C1083 C 0.38049 0.21479 0.5302 0.0
C1084 C 0.37012 0.21756 0.53248 0.0
C1085 C 0.37266 0.22887 0.54004 0.0
C1086 C 0.40443 0.22058 0.53389 0.0
C1087 C 0.35636 0.20855 0.52698 0.0
C1088 C 0.37349 0.2022 0.46527 0.0
C1089 C 0.37096 0.19076 0.45806 0.0
C1090 C 0.36993 0.17971 0.46451 0.0
C1091 C 0.37111 0.17986 0.4786 0.0
C1092 C 0.3699 0.16883 0.48542 0.0
C1093 C 0.37108 0.16907 0.49929 0.0
C1094 C 0.3735 0.18036 0.50688 0.0
C1095 C 0.37474 0.18071 0.52098 0.0
C1096 C 0.37682 0.19196 0.52826 0.0
C1097 C 0.37813 0.20314 0.52181 0.0
C1098 C 0.37734 0.20313 0.50767 0.0
C1099 C 0.3792 0.21438 0.50079 0.0
C1100 C 0.37809 0.21416 0.48691 0.0
C1101 C 0.37504 0.20266 0.47936 0.0
C1102 C 0.37362 0.19137 0.48605 0.0
C1103 C 0.37479 0.19161 0.50021 0.0
C1104 C 0.38499 0.12839 0.53731 0.0
C1105 C 0.38229 0.13398 0.55014 0.0
O1106 O 0.37727 0.24627 0.43778 0.0
O1107 O 0.38775 0.24809 0.55307 0.0
O1108 O 0.37243 0.13708 0.54788 0.0
O1109 O 0.36157 0.13573 0.4321 0.0
H1110 H 0.38914 0.24839 0.42184 0.0
H1111 H 0.40417 0.26091 0.44078 0.0
H1112 H 0.39658 0.2709 0.4429 0.0
H1113 H 0.4058 0.27224 0.42795 0.0
H1114 H 0.35752 0.22992 0.45164 0.0
H1115 H 0.39556 0.23848 0.4375 0.0
H1116 H 0.34798 0.19707 0.46334 0.0
H1117 H 0.34337 0.20973 0.46244 0.0
H1118 H 0.35321 0.2096 0.47625 0.0
H1119 H 0.40626 0.22733 0.44521 0.0
H1120 H 0.3944 0.20989 0.44377 0.0
H1121 H 0.39998 0.21746 0.46001 0.0
H1122 H 0.37835 0.1418 0.42036 0.0
H1123 H 0.36776 0.12223 0.40886 0.0
H1124 H 0.35446 0.11622 0.41831 0.0
H1125 H 0.37277 0.11028 0.43127 0.0
H1126 H 0.3853 0.15596 0.43988 0.0
H1127 H 0.3433 0.13938 0.44196 0.0
H1128 H 0.39451 0.18777 0.45137 0.0
H1129 H 0.40032 0.17602 0.45046 0.0
H1130 H 0.39418 0.17887 0.46597 0.0
H1131 H 0.33358 0.14975 0.45415 0.0
H1132 H 0.3433 0.16763 0.45393 0.0
H1133 H 0.34315 0.15901 0.46868 0.0
H1134 H 0.39151 0.14303 0.55352 0.0
H1135 H 0.39455 0.15782 0.53807 0.0
H1136 H 0.3528 0.14076 0.54376 0.0
H1137 H 0.39857 0.1802 0.51406 0.0
H1138 H 0.40743 0.17812 0.52776 0.0
H1139 H 0.40127 0.18954 0.5293 0.0
H1140 H 0.34104 0.15104 0.53613 0.0
H1141 H 0.34756 0.1599 0.52079 0.0
H1142 H 0.35071 0.16894 0.53629 0.0
H1143 H 0.37869 0.2548 0.54009 0.0
H1144 H 0.39757 0.27784 0.5402 0.0
H1145 H 0.40301 0.26623 0.53617 0.0
H1146 H 0.40609 0.27369 0.55271 0.0
H1147 H 0.40483 0.24063 0.54842 0.0
H1148 H 0.36481 0.23109 0.5418 0.0
H1149 H 0.40524 0.21866 0.52312 0.0
H1150 H 0.40252 0.21161 0.53943 0.0
H1151 H 0.41401 0.22902 0.53745 0.0
H1152 H 0.34902 0.21084 0.53146 0.0
H1153 H 0.35325 0.19801 0.52887 0.0
H1154 H 0.35628 0.20974 0.516 0.0
H1155 H 0.36987 0.1905 0.44726 0.0
H1156 H 0.368 0.15985 0.48011 0.0
H1157 H 0.37002 0.16027 0.50399 0.0
H1158 H 0.37761 0.19207 0.53908 0.0
H1159 H 0.38152 0.2235 0.50606 0.0
H1160 H 0.37962 0.22313 0.48218 0.0
H1161 H 0.39275 0.12572 0.53921 0.0
H1162 H 0.38852 0.13587 0.52931 0.0
H1163 H 0.37586 0.11943 0.53365 0.0
C1164 C 0.86054 0.21366 0.40805 0.0
C1165 C 0.86549 0.22743 0.41451 0.0
C1166 C 0.85638 0.22007 0.4366 0.0
C1167 C 0.84557 0.22218 0.43661 0.0
C1168 C 0.83474 0.21482 0.44493 0.0
C1169 C 0.83464 0.20498 0.45319 0.0
C1170 C 0.84564 0.20297 0.45329 0.0
C1171 C 0.85651 0.21078 0.44519 0.0
C1172 C 0.82334 0.21747 0.44474 0.0
C1173 C 0.84582 0.19239 0.46171 0.0
C1174 C 0.73713 0.13439 0.43522 0.0
C1175 C 0.74759 0.13417 0.42616 0.0
C1176 C 0.76798 0.14527 0.43997 0.0
C1177 C 0.7771 0.14322 0.44707 0.0
C1178 C 0.78782 0.15368 0.45393 0.0
C1179 C 0.78934 0.16652 0.45382 0.0
C1180 C 0.78022 0.16874 0.44656 0.0
C1181 C 0.76968 0.15812 0.43963 0.0
C1182 C 0.79746 0.15097 0.46139 0.0
C1183 C 0.78156 0.18233 0.44626 0.0
C1184 C 0.76365 0.15911 0.54009 0.0
C1185 C 0.77171 0.15417 0.53553 0.0
C1186 C 0.78328 0.16229 0.52843 0.0
C1187 C 0.78656 0.17548 0.52552 0.0
C1188 C 0.77846 0.18048 0.53031 0.0
C1189 C 0.76723 0.17227 0.53777 0.0
C1190 C 0.79197 0.15677 0.52409 0.0
C1191 C 0.78161 0.19447 0.52751 0.0
C1192 C 0.87487 0.26383 0.53754 0.0
C1193 C 0.86917 0.25484 0.54966 0.0
C1194 C 0.85461 0.2327 0.53952 0.0
C1195 C 0.85329 0.22025 0.537 0.0
C1196 C 0.84233 0.21031 0.52993 0.0
C1197 C 0.83245 0.21294 0.52523 0.0
C1198 C 0.83361 0.22546 0.52784 0.0
C1199 C 0.84467 0.23522 0.53498 0.0
C1200 C 0.84136 0.19703 0.52737 0.0
C1201 C 0.82322 0.22855 0.52296 0.0
C1202 C 0.82278 0.19642 0.46124 0.0
C1203 C 0.81187 0.18605 0.4546 0.0
C1204 C 0.80037 0.17758 0.46146 0.0
C1205 C 0.79964 0.17943 0.47537 0.0
C1206 C 0.7881 0.17129 0.48252 0.0
C1207 C 0.7876 0.17294 0.49628 0.0
C1208 C 0.79868 0.18266 0.50346 0.0
C1209 C 0.79845 0.18409 0.51753 0.0
C1210 C 0.80962 0.19397 0.5243 0.0
C1211 C 0.82101 0.20265 0.51739 0.0
C1212 C 0.82142 0.2014 0.50333 0.0
C1213 C 0.83268 0.21006 0.49606 0.0
C1214 C 0.83307 0.2086 0.48225 0.0
C1215 C 0.82231 0.19831 0.47521 0.0
C1216 C 0.81074 0.18968 0.4823 0.0
C1217 C 0.81028 0.19125 0.49638 0.0
C1218 C 0.73041 0.14031 0.53934 0.0
C1219 C 0.74248 0.13908 0.54302 0.0
O1220 O 0.86669 0.2267 0.42825 0.0
O1221 O 0.86564 0.24189 0.54622 0.0
O1222 O 0.75257 0.15149 0.54712 0.0
O1223 O 0.75772 0.13456 0.43379 0.0
H1224 H 0.85828 0.23075 0.41225 0.0
H1225 H 0.85076 0.20642 0.41213 0.0
H1226 H 0.8676 0.21011 0.41013 0.0
H1227 H 0.85931 0.21391 0.39706 0.0
H1228 H 0.84563 0.22964 0.43022 0.0
H1229 H 0.86496 0.20929 0.44512 0.0
H1230 H 0.81473 0.20905 0.43962 0.0
H1231 H 0.82579 0.22672 0.43941 0.0
H1232 H 0.82038 0.21824 0.45511 0.0
H1233 H 0.8543 0.19094 0.45932 0.0
H1234 H 0.83652 0.18279 0.46019 0.0
H1235 H 0.84653 0.19523 0.47245 0.0
H1236 H 0.75163 0.14286 0.41947 0.0
H1237 H 0.72889 0.13378 0.42907 0.0
H1238 H 0.74144 0.14372 0.44126 0.0
H1239 H 0.73311 0.12594 0.44219 0.0
H1240 H 0.77576 0.1333 0.44725 0.0
H1241 H 0.7628 0.15997 0.4341 0.0
H1242 H 0.80773 0.15813 0.45843 0.0
H1243 H 0.79558 0.14073 0.4595 0.0
H1244 H 0.79672 0.15235 0.4723 0.0
H1245 H 0.77319 0.18227 0.44088 0.0
H1246 H 0.79088 0.1893 0.44123 0.0
H1247 H 0.78211 0.18615 0.45662 0.0
H1248 H 0.74535 0.13551 0.53392 0.0
H1249 H 0.76907 0.14406 0.53773 0.0
H1250 H 0.76099 0.176 0.54154 0.0
H1251 H 0.79088 0.15484 0.51313 0.0
H1252 H 0.78933 0.14733 0.52912 0.0
H1253 H 0.80251 0.16405 0.52628 0.0
H1254 H 0.77335 0.19618 0.53022 0.0
H1255 H 0.78385 0.19669 0.51676 0.0
H1256 H 0.79049 0.20155 0.53341 0.0
H1257 H 0.86036 0.25521 0.55328 0.0
H1258 H 0.87788 0.27424 0.54038 0.0
H1259 H 0.86739 0.2606 0.52937 0.0
H1260 H 0.8836 0.26349 0.53366 0.0
H1261 H 0.86097 0.21837 0.54055 0.0
H1262 H 0.84546 0.24477 0.53684 0.0
H1263 H 0.8413 0.19523 0.51643 0.0
H1264 H 0.83193 0.189 0.53137 0.0
H1265 H 0.84969 0.19642 0.53203 0.0
H1266 H 0.8256 0.23881 0.52571 0.0
H1267 H 0.81353 0.22145 0.52727 0.0
H1268 H 0.8222 0.22732 0.51191 0.0
H1269 H 0.81236 0.18452 0.44393 0.0
H1270 H 0.77932 0.16354 0.47757 0.0
H1271 H 0.77844 0.16639 0.50123 0.0
H1272 H 0.80942 0.19499 0.53509 0.0
H1273 H 0.84133 0.21805 0.50096 0.0
H1274 H 0.84199 0.21556 0.47719 0.0
H1275 H 0.72688 0.14343 0.54823 0.0
H1276 H 0.72225 0.13074 0.53534 0.0
H1277 H 0.73308 0.14787 0.53148 0.0
C1278 C 0.02261 0.47101 0.26001 0.0
C1279 C 0.00901 0.4593 0.25613 0.0
C1280 C 0.00466 0.46511 0.23444 0.0
C1281 C 0.99162 0.46248 0.23382 0.0
C1282 C 0.98819 0.47019 0.22587 0.0
C1283 C 0.99812 0.48088 0.21864 0.0
C1284 C 0.01132 0.48348 0.21925 0.0
C1285 C 0.01437 0.47536 0.22697 0.0
C1286 C 0.974 0.467 0.22535 0.0
C1287 C 0.02224 0.49494 0.21194 0.0
C1288 C 0.96423 0.54626 0.23632 0.0
C1289 C 0.97381 0.54615 0.24679 0.0
C1290 C 0.98573 0.53712 0.23408 0.0
C1291 C 0.99784 0.54033 0.22838 0.0
C1292 C 0.9995 0.53084 0.22116 0.0
C1293 C 0.98869 0.51781 0.21953 0.0
C1294 C 0.97644 0.5144 0.22541 0.0
C1295 C 0.97509 0.52406 0.2327 0.0
C1296 C 0.01274 0.53477 0.21512 0.0
C1297 C 0.96471 0.50059 0.22383 0.0
C1298 C 0.97355 0.53046 0.13542 0.0
C1299 C 0.98671 0.53447 0.13869 0.0
C1300 C 0.99002 0.52563 0.14463 0.0
C1301 C 0.9799 0.51259 0.14749 0.0
C1302 C 0.96668 0.50838 0.14368 0.0
C1303 C 0.96371 0.51736 0.13751 0.0
C1304 C 0.00428 0.53029 0.14806 0.0
C1305 C 0.95567 0.49453 0.14645 0.0
C1306 C 0.00393 0.43838 0.14001 0.0
C1307 C 0.99207 0.43516 0.13092 0.0
C1308 C 0.99183 0.4559 0.13206 0.0
C1309 C 0.00189 0.46915 0.13212 0.0
C1310 C 0.00063 0.47887 0.13937 0.0
C1311 C 0.98882 0.47524 0.14635 0.0
C1312 C 0.97833 0.46193 0.14572 0.0
C1313 C 0.98 0.45236 0.13867 0.0
C1314 C 0.012 0.49296 0.13976 0.0
C1315 C 0.96539 0.4578 0.15256 0.0
C1316 C 0.99477 0.48963 0.21088 0.0
C1317 C 0.99339 0.49933 0.21794 0.0
C1318 C 0.9901 0.50783 0.21138 0.0
C1319 C 0.98818 0.50673 0.19735 0.0
C1320 C 0.98473 0.51505 0.19046 0.0
C1321 C 0.98296 0.51398 0.17664 0.0
C1322 C 0.98461 0.5046 0.16915 0.0
C1323 C 0.98304 0.50359 0.15506 0.0
C1324 C 0.98448 0.49397 0.14795 0.0
C1325 C 0.98755 0.48529 0.15453 0.0
C1326 C 0.98936 0.48628 0.16859 0.0
C1327 C 0.99262 0.47783 0.17552 0.0
C1328 C 0.99424 0.4788 0.18937 0.0
C1329 C 0.99294 0.48842 0.19682 0.0
C1330 C 0.98968 0.49705 0.19003 0.0
C1331 C 0.98788 0.49597 0.17592 0.0
C1332 C 0.96293 0.55008 0.14516 0.0
C1333 C 0.97362 0.55137 0.13551 0.0
O1334 O 0.00797 0.45783 0.24232 0.0
O1335 O 0.99373 0.44676 0.12541 0.0
O1336 O 0.9701 0.53898 0.13011 0.0
O1337 O 0.9848 0.54695 0.24064 0.0
H1338 H 0.00127 0.4614 0.25996 0.0
H1339 H 0.02385 0.4803 0.25569 0.0
H1340 H 0.03057 0.4693 0.2562 0.0
H1341 H 0.02364 0.47239 0.27106 0.0
H1342 H 0.98417 0.45441 0.23957 0.0
H1343 H 0.02442 0.47721 0.22754 0.0
H1344 H 0.9731 0.47489 0.2308 0.0
H1345 H 0.96723 0.45733 0.22996 0.0
H1346 H 0.97079 0.46677 0.21482 0.0
H1347 H 0.03215 0.49645 0.21459 0.0
H1348 H 0.02209 0.50423 0.21427 0.0
H1349 H 0.02067 0.49308 0.20099 0.0
H1350 H 0.96867 0.53684 0.25257 0.0
H1351 H 0.95561 0.54596 0.24132 0.0
H1352 H 0.96048 0.53749 0.22949 0.0
H1353 H 0.96921 0.55532 0.23019 0.0
H1354 H 0.00601 0.55039 0.22953 0.0
H1355 H 0.96566 0.52131 0.23712 0.0
H1356 H 0.01617 0.52791 0.21843 0.0
H1357 H 0.02036 0.54509 0.21792 0.0
H1358 H 0.01175 0.53393 0.20405 0.0
H1359 H 0.95574 0.49959 0.2287 0.0
H1360 H 0.96711 0.49334 0.22828 0.0
H1361 H 0.9625 0.49797 0.21304 0.0
H1362 H 0.98305 0.55548 0.1413 0.0
H1363 H 0.9944 0.54447 0.13653 0.0
H1364 H 0.95361 0.51433 0.13471 0.0
H1365 H 0.00567 0.53123 0.1591 0.0
H1366 H 0.0111 0.54005 0.14364 0.0
H1367 H 0.00701 0.52291 0.14448 0.0
H1368 H 0.94585 0.49297 0.14335 0.0
H1369 H 0.95548 0.49253 0.1573 0.0
H1370 H 0.95747 0.48721 0.14101 0.0
H1371 H 0.98296 0.43042 0.13702 0.0
H1372 H 0.00276 0.42922 0.14461 0.0
H1373 H 0.00472 0.44529 0.14822 0.0
H1374 H 0.01323 0.44314 0.13422 0.0
H1375 H 0.01091 0.47177 0.1268 0.0
H1376 H 0.97202 0.44217 0.13818 0.0
H1377 H 0.01472 0.49649 0.1503 0.0
H1378 H 0.00896 0.49953 0.13485 0.0
H1379 H 0.02086 0.49396 0.13462 0.0
H1380 H 0.95767 0.44755 0.14966 0.0
H1381 H 0.96176 0.46472 0.15007 0.0
H1382 H 0.96689 0.45827 0.16356 0.0
H1383 H 0.99486 0.50024 0.22872 0.0
H1384 H 0.98337 0.52249 0.19567 0.0
H1385 H 0.9803 0.52065 0.17191 0.0
H1386 H 0.98318 0.49321 0.13716 0.0
H1387 H 0.99391 0.47034 0.17033 0.0
H1388 H 0.99662 0.47195 0.19416 0.0
H1389 H 0.96559 0.55993 0.14961 0.0
H1390 H 0.96197 0.54336 0.15341 0.0
H1391 H 0.95324 0.54592 0.13989 0.0
C1392 C 0.47991 0.4397 0.27531 0.0
C1393 C 0.46891 0.43758 0.26546 0.0
C1394 C 0.47849 0.44026 0.24354 0.0
C1395 C 0.47714 0.45065 0.23832 0.0
C1396 C 0.48614 0.45928 0.22898 0.0
C1397 C 0.4967 0.45746 0.22481 0.0
C1398 C 0.49767 0.44657 0.22955 0.0
C1399 C 0.48841 0.43797 0.23876 0.0
C1400 C 0.48462 0.47059 0.22386 0.0
C1401 C 0.50879 0.44432 0.22529 0.0
C1402 C 0.56599 0.51979 0.27018 0.0
C1403 C 0.5732 0.53009 0.25934 0.0
C1404 C 0.55622 0.52067 0.24145 0.0
C1405 C 0.55795 0.50987 0.23798 0.0
C1406 C 0.54895 0.4997 0.22936 0.0
C1407 C 0.53805 0.50034 0.22405 0.0
C1408 C 0.53657 0.51143 0.22709 0.0
C1409 C 0.54573 0.52149 0.2357 0.0
C1410 C 0.5509 0.48807 0.22616 0.0
C1411 C 0.5251 0.51247 0.22152 0.0
C1412 C 0.56054 0.51601 0.13775 0.0
C1413 C 0.56175 0.50531 0.14243 0.0
C1414 C 0.55141 0.49493 0.14935 0.0
C1415 C 0.53962 0.49522 0.15162 0.0
C1416 C 0.53822 0.50577 0.14662 0.0
C1417 C 0.54872 0.51602 0.13973 0.0
C1418 C 0.55316 0.48375 0.15447 0.0
C1419 C 0.52574 0.50634 0.14879 0.0
C1420 C 0.45418 0.39742 0.14613 0.0
C1421 C 0.45694 0.40923 0.13744 0.0
C1422 C 0.4795 0.4277 0.13987 0.0
C1423 C 0.49183 0.42925 0.14312 0.0
C1424 C 0.50158 0.44086 0.14955 0.0
C1425 C 0.49898 0.45127 0.15249 0.0
C1426 C 0.48677 0.45004 0.14855 0.0
C1427 C 0.47713 0.43825 0.14227 0.0
C1428 C 0.51457 0.4419 0.15344 0.0
C1429 C 0.48385 0.46113 0.15114 0.0
C1430 C 0.50735 0.46764 0.21651 0.0
C1431 C 0.51739 0.47881 0.22314 0.0
C1432 C 0.52771 0.48896 0.21613 0.0
C1433 C 0.52807 0.48805 0.20204 0.0
C1434 C 0.53825 0.49814 0.19466 0.0
C1435 C 0.53854 0.49712 0.18079 0.0
C1436 C 0.52869 0.48595 0.17378 0.0
C1437 C 0.52896 0.48477 0.15969 0.0
C1438 C 0.5191 0.47347 0.15304 0.0
C1439 C 0.50887 0.46322 0.1601 0.0
C1440 C 0.50835 0.46427 0.17418 0.0
C1441 C 0.49815 0.45419 0.18159 0.0
C1442 C 0.49773 0.45531 0.19544 0.0
C1443 C 0.50759 0.46646 0.20243 0.0
C1444 C 0.51799 0.47673 0.19517 0.0
C1445 C 0.51833 0.47566 0.18103 0.0
C1446 C 0.59125 0.53414 0.14276 0.0
C1447 C 0.58333 0.52929 0.12959 0.0
O1448 O 0.47055 0.43255 0.25341 0.0
O1449 O 0.47022 0.41602 0.13423 0.0
O1450 O 0.57046 0.52655 0.13145 0.0
O1451 O 0.5642 0.53034 0.25041 0.0
H1452 H 0.46971 0.44743 0.264 0.0
H1453 H 0.48966 0.44711 0.27131 0.0
H1454 H 0.47994 0.43028 0.27688 0.0
H1455 H 0.47856 0.4435 0.28509 0.0
H1456 H 0.46914 0.45209 0.24168 0.0
H1457 H 0.48923 0.42979 0.24274 0.0
H1458 H 0.49282 0.48012 0.22788 0.0
H1459 H 0.4751 0.46978 0.22688 0.0
H1460 H 0.48522 0.47089 0.21278 0.0
H1461 H 0.50809 0.43532 0.2298 0.0
H1462 H 0.51841 0.45305 0.22826 0.0
H1463 H 0.50868 0.44326 0.21423 0.0
H1464 H 0.57996 0.52759 0.25384 0.0
H1465 H 0.57321 0.51988 0.27752 0.0
H1466 H 0.56039 0.50965 0.26574 0.0
H1467 H 0.55894 0.52195 0.27555 0.0
H1468 H 0.56616 0.50919 0.24208 0.0
H1469 H 0.54454 0.52991 0.23831 0.0
H1470 H 0.54254 0.47888 0.23019 0.0
H1471 H 0.56027 0.48938 0.23045 0.0
H1472 H 0.55092 0.48669 0.21515 0.0
H1473 H 0.52564 0.52199 0.22439 0.0
H1474 H 0.5157 0.50417 0.22524 0.0
H1475 H 0.52486 0.51157 0.21044 0.0
H1476 H 0.58328 0.52019 0.12594 0.0
H1477 H 0.57075 0.505 0.14086 0.0
H1478 H 0.54781 0.52425 0.13603 0.0
H1479 H 0.55255 0.48352 0.16555 0.0
H1480 H 0.56276 0.48473 0.15154 0.0
H1481 H 0.54506 0.47411 0.15053 0.0
H1482 H 0.52607 0.51504 0.14398 0.0
H1483 H 0.52416 0.50682 0.15968 0.0
H1484 H 0.51713 0.49715 0.14468 0.0
H1485 H 0.45422 0.41561 0.14347 0.0
H1486 H 0.44355 0.39177 0.14874 0.0
H1487 H 0.46008 0.40102 0.15556 0.0
H1488 H 0.4569 0.39067 0.14084 0.0
H1489 H 0.49364 0.42114 0.14097 0.0
H1490 H 0.46781 0.43733 0.13917 0.0
H1491 H 0.51629 0.44379 0.16438 0.0
H1492 H 0.52276 0.45044 0.14833 0.0
H1493 H 0.51491 0.43278 0.15077 0.0
H1494 H 0.47432 0.45906 0.14655 0.0
H1495 H 0.49191 0.47055 0.14713 0.0
H1496 H 0.48346 0.4626 0.16209 0.0
H1497 H 0.51717 0.4796 0.23396 0.0
H1498 H 0.54611 0.50694 0.19953 0.0
H1499 H 0.54661 0.50521 0.17564 0.0
H1500 H 0.51944 0.4726 0.14225 0.0
H1501 H 0.49035 0.44532 0.17677 0.0
H1502 H 0.48962 0.44729 0.20062 0.0
H1503 H 0.60164 0.53662 0.14115 0.0
H1504 H 0.58697 0.52634 0.15041 0.0
H1505 H 0.5912 0.54309 0.14672 0.0
C1506 C 0.46238 0.00074 0.27406 0.0
C1507 C 0.45716 0.00857 0.26643 0.0
C1508 C 0.4631 0.00555 0.2439 0.0
C1509 C 0.47445 0.0179 0.24196 0.0
C1510 C 0.48413 0.01919 0.2329 0.0
C1511 C 0.48247 0.00787 0.22572 0.0
C1512 C 0.47076 0.99552 0.22724 0.0
C1513 C 0.46111 0.99458 0.23619 0.0
C1514 C 0.49632 0.03258 0.23123 0.0
C1515 C 0.46867 0.98323 0.21979 0.0
C1516 C 0.56183 0.9939 0.26236 0.0
C1517 C 0.55119 0.99207 0.25287 0.0
C1518 C 0.54259 0.0047 0.24152 0.0
C1519 C 0.53276 0.99376 0.23421 0.0
C1520 C 0.52361 0.99505 0.22616 0.0
C1521 C 0.52443 0.00756 0.22521 0.0
C1522 C 0.53455 0.01866 0.23222 0.0
C1523 C 0.54349 0.01707 0.24031 0.0
C1524 C 0.51293 0.98298 0.21882 0.0
C1525 C 0.5358 0.03217 0.23129 0.0
C1526 C 0.54807 0.01308 0.14028 0.0
C1527 C 0.53718 0.00128 0.14471 0.0
C1528 C 0.5265 0.00141 0.15091 0.0
C1529 C 0.52685 0.01364 0.15308 0.0
C1530 C 0.5376 0.02548 0.14829 0.0
C1531 C 0.548 0.025 0.14179 0.0
C1532 C 0.51497 0.9885 0.15543 0.0
C1533 C 0.53826 0.03867 0.15036 0.0
C1534 C 0.44573 0.02771 0.14764 0.0
C1535 C 0.45132 0.02692 0.13402 0.0
C1536 C 0.46479 0.01682 0.1401 0.0
C1537 C 0.46485 0.00485 0.14046 0.0
C1538 C 0.47494 0.00391 0.14715 0.0
C1539 C 0.48534 0.01534 0.15348 0.0
C1540 C 0.48561 0.02761 0.15277 0.0
C1541 C 0.47529 0.02822 0.14619 0.0
C1542 C 0.47436 0.99068 0.14767 0.0
C1543 C 0.49672 0.04006 0.15914 0.0
C1544 C 0.49344 0.00875 0.21754 0.0
C1545 C 0.50356 0.00799 0.22424 0.0
C1546 C 0.51433 0.00886 0.21736 0.0
C1547 C 0.51511 0.01053 0.20336 0.0
C1548 C 0.52588 0.0116 0.19615 0.0
C1549 C 0.52639 0.01291 0.18233 0.0
C1550 C 0.51614 0.01318 0.17517 0.0
C1551 C 0.51636 0.01405 0.16106 0.0
C1552 C 0.50622 0.01473 0.15429 0.0
C1553 C 0.49569 0.01438 0.16124 0.0
C1554 C 0.49509 0.01311 0.17532 0.0
C1555 C 0.48446 0.01236 0.18261 0.0
C1556 C 0.48395 0.01106 0.19644 0.0
C1557 C 0.49397 0.01032 0.20352 0.0
C1558 C 0.50483 0.01115 0.1964 0.0
C1559 C 0.50537 0.01252 0.18229 0.0
C1560 C 0.56773 0.00401 0.14982 0.0
C1561 C 0.56266 0.00394 0.13563 0.0
O1562 O 0.45407 0.00387 0.25331 0.0
O1563 O 0.4544 0.01683 0.13389 0.0
O1564 O 0.55886 0.01347 0.13467 0.0
O1565 O 0.55126 0.00371 0.2499 0.0
H1566 H 0.46492 0.01922 0.26661 0.0
H1567 H 0.47159 0.00213 0.26942 0.0
H1568 H 0.45495 0.98998 0.27386 0.0
H1569 H 0.46468 0.0043 0.28463 0.0
H1570 H 0.47579 0.02655 0.24751 0.0
H1571 H 0.45222 0.98514 0.23766 0.0
H1572 H 0.50496 0.03246 0.23572 0.0
H1573 H 0.49535 0.04068 0.23613 0.0
H1574 H 0.49834 0.03477 0.22044 0.0
H1575 H 0.45915 0.97432 0.22232 0.0
H1576 H 0.47686 0.98132 0.22219 0.0
H1577 H 0.46881 0.98478 0.20885 0.0
H1578 H 0.54117 0.98377 0.25536 0.0
H1579 H 0.55648 0.98828 0.2715 0.0
H1580 H 0.56574 0.00399 0.26723 0.0
H1581 H 0.57361 0.98877 0.25084 0.0
H1582 H 0.53206 0.98415 0.23482 0.0
H1583 H 0.55115 0.02547 0.24589 0.0
H1584 H 0.514 0.98459 0.20788 0.0
H1585 H 0.50306 0.98143 0.22159 0.0
H1586 H 0.51328 0.97384 0.22106 0.0
H1587 H 0.54493 0.04004 0.2363 0.0
H1588 H 0.52714 0.03197 0.23607 0.0
H1589 H 0.53581 0.03477 0.22064 0.0
H1590 H 0.55411 0.99397 0.13324 0.0
H1591 H 0.53687 0.99189 0.14345 0.0
H1592 H 0.55636 0.03404 0.13824 0.0
H1593 H 0.51535 0.98795 0.16649 0.0
H1594 H 0.5151 0.97975 0.151 0.0
H1595 H 0.50548 0.98793 0.15269 0.0
H1596 H 0.54759 0.04706 0.14657 0.0
H1597 H 0.53744 0.04042 0.16118 0.0
H1598 H 0.52981 0.03855 0.14511 0.0
H1599 H 0.46034 0.03655 0.13203 0.0
H1600 H 0.44305 0.03563 0.14766 0.0
H1601 H 0.45317 0.0301 0.15571 0.0
H1602 H 0.4368 0.01809 0.14991 0.0
H1603 H 0.45678 0.99613 0.13567 0.0
H1604 H 0.47553 0.03762 0.14595 0.0
H1605 H 0.47471 0.98803 0.15823 0.0
H1606 H 0.4831 0.99135 0.14259 0.0
H1607 H 0.46529 0.9826 0.14277 0.0
H1608 H 0.49629 0.04907 0.15643 0.0
H1609 H 0.5064 0.04134 0.15606 0.0
H1610 H 0.49617 0.03917 0.17019 0.0
H1611 H 0.50302 0.00667 0.23499 0.0
H1612 H 0.53402 0.01137 0.20111 0.0
H1613 H 0.53494 0.01366 0.17732 0.0
H1614 H 0.50648 0.01545 0.14348 0.0
H1615 H 0.47638 0.01273 0.17769 0.0
H1616 H 0.47554 0.01055 0.20153 0.0
H1617 H 0.57095 0.99652 0.15056 0.0
H1618 H 0.55978 0.00149 0.15719 0.0
H1619 H 0.57619 0.01396 0.15248 0.0
C1620 C 0.55085 0.96835 0.77529 0.0
C1621 C 0.5506 0.9788 0.76629 0.0
C1622 C 0.54299 0.99078 0.78103 0.0
C1623 C 0.54685 0.00287 0.78759 0.0
C1624 C 0.53784 0.00489 0.79507 0.0
C1625 C 0.52464 0.99445 0.79611 0.0
C1626 C 0.52066 0.98212 0.78961 0.0
C1627 C 0.52984 0.98042 0.78208 0.0
C1628 C 0.5424 0.01821 0.80178 0.0
C1629 C 0.50666 0.97076 0.79056 0.0
C1630 C 0.47127 0.006 0.74452 0.0
C1631 C 0.45994 0.00148 0.75447 0.0
C1632 C 0.47167 0.00702 0.77587 0.0
C1633 C 0.46813 0.99433 0.78042 0.0
C1634 C 0.47614 0.99255 0.78969 0.0
C1635 C 0.48788 0.00371 0.79455 0.0
C1636 C 0.49112 0.01658 0.7905 0.0
C1637 C 0.48287 0.01807 0.78129 0.0
C1638 C 0.47219 0.97871 0.79409 0.0
C1639 C 0.50347 0.02868 0.79565 0.0
C1640 C 0.46366 0.00249 0.88087 0.0
C1641 C 0.4597 0.99063 0.8737 0.0
C1642 C 0.46897 0.98852 0.86682 0.0
C1643 C 0.48242 0.99863 0.86692 0.0
C1644 C 0.48644 0.01051 0.87436 0.0
C1645 C 0.477 0.01219 0.88142 0.0
C1646 C 0.46439 0.97549 0.85949 0.0
C1647 C 0.50068 0.02148 0.87476 0.0
C1648 C 0.54583 0.95901 0.87741 0.0
C1649 C 0.55002 0.97262 0.88375 0.0
C1650 C 0.53195 0.97713 0.88214 0.0
C1651 C 0.5186 0.9685 0.87934 0.0
C1652 C 0.51112 0.97276 0.87212 0.0
C1653 C 0.51711 0.98612 0.86804 0.0
C1654 C 0.5305 0.99506 0.87148 0.0
C1655 C 0.53784 0.9904 0.87835 0.0
C1656 C 0.49688 0.96292 0.86869 0.0
C1657 C 0.53707 0.00951 0.86783 0.0
C1658 C 0.51491 0.99652 0.80375 0.0
C1659 C 0.50667 0.99978 0.79661 0.0
C1660 C 0.49716 0.00172 0.80307 0.0
C1661 C 0.4961 0.00084 0.81714 0.0
C1662 C 0.48701 0.00324 0.82402 0.0
C1663 C 0.4859 0.00213 0.83786 0.0
C1664 C 0.49365 0.99831 0.84533 0.0
C1665 C 0.49229 0.99673 0.85935 0.0
C1666 C 0.50022 0.99299 0.86645 0.0
C1667 C 0.50942 0.9906 0.85993 0.0
C1668 C 0.51085 0.99204 0.8459 0.0
C1669 C 0.51984 0.9895 0.83896 0.0
C1670 C 0.52127 0.99107 0.82519 0.0
C1671 C 0.51361 0.99501 0.81777 0.0
C1672 C 0.50428 0.99735 0.82451 0.0
C1673 C 0.50297 0.99596 0.8386 0.0
C1674 C 0.44709 0.01656 0.87483 0.0
C1675 C 0.4435 0.00367 0.88203 0.0
O1676 O 0.55228 0.9896 0.77392 0.0
O1677 O 0.53893 0.97252 0.88877 0.0
O1678 O 0.45486 0.00467 0.88762 0.0
O1679 O 0.46454 0.0089 0.76627 0.0
H1680 H 0.54099 0.9743 0.76078 0.0
H1681 H 0.54265 0.96461 0.78254 0.0
H1682 H 0.56031 0.97264 0.78101 0.0
H1683 H 0.54966 0.95978 0.76914 0.0
H1684 H 0.55699 0.01081 0.78676 0.0
H1685 H 0.52662 0.97096 0.77712 0.0
H1686 H 0.536 0.02224 0.79856 0.0
H1687 H 0.55282 0.02551 0.79946 0.0
H1688 H 0.54147 0.01701 0.81279 0.0
H1689 H 0.50544 0.96141 0.78608 0.0
H1690 H 0.49991 0.97334 0.78525 0.0
H1691 H 0.50361 0.96902 0.80118 0.0
H1692 H 0.4561 0.99079 0.75639 0.0
H1693 H 0.46765 0.00026 0.73496 0.0
H1694 H 0.47911 0.00429 0.74869 0.0
H1695 H 0.47565 0.01674 0.74248 0.0
H1696 H 0.45912 0.98578 0.7768 0.0
H1697 H 0.48538 0.02786 0.77789 0.0
H1698 H 0.47979 0.97619 0.79095 0.0
H1699 H 0.46249 0.97113 0.78981 0.0
H1700 H 0.47167 0.97825 0.80517 0.0
H1701 H 0.50423 0.03804 0.79212 0.0
H1702 H 0.51228 0.02823 0.79227 0.0
H1703 H 0.50362 0.02883 0.80676 0.0
H1704 H 0.439 0.99533 0.87458 0.0
H1705 H 0.44941 0.98291 0.8737 0.0
H1706 H 0.47995 0.02123 0.88717 0.0
H1707 H 0.46514 0.97713 0.84855 0.0
H1708 H 0.454 0.96807 0.8618 0.0
H1709 H 0.47083 0.97133 0.86215 0.0
H1710 H 0.50199 0.03056 0.87999 0.0
H1711 H 0.50449 0.02406 0.86443 0.0
H1712 H 0.50676 0.01802 0.88003 0.0
H1713 H 0.55462 0.98021 0.87584 0.0
H1714 H 0.55444 0.95887 0.87292 0.0
H1715 H 0.53839 0.95676 0.86935 0.0
H1716 H 0.54139 0.95115 0.88503 0.0
H1717 H 0.51415 0.9583 0.88252 0.0
H1718 H 0.54813 0.9971 0.8809 0.0
H1719 H 0.49502 0.96312 0.85781 0.0
H1720 H 0.49035 0.96573 0.87413 0.0
H1721 H 0.49412 0.95264 0.8714 0.0
H1722 H 0.54674 0.01552 0.87305 0.0
H1723 H 0.53059 0.01367 0.87036 0.0
H1724 H 0.53875 0.01045 0.85689 0.0
H1725 H 0.50747 0.00056 0.7858 0.0
H1726 H 0.48069 0.00607 0.81876 0.0
H1727 H 0.47879 0.00419 0.84262 0.0
H1728 H 0.49909 0.99175 0.87719 0.0
H1729 H 0.52591 0.98631 0.8441 0.0
H1730 H 0.52839 0.98903 0.82041 0.0
H1731 H 0.45153 0.02513 0.88199 0.0
H1732 H 0.43819 0.01595 0.87007 0.0
H1733 H 0.45435 0.01831 0.86685 0.0
C1734 C 0.02001 0.55154 0.74902 0.0
C1735 C 0.00943 0.55269 0.75696 0.0
C1736 C 0.01145 0.54663 0.77948 0.0
C1737 C 0.99868 0.53654 0.78252 0.0
C1738 C 0.99672 0.5266 0.79153 0.0
C1739 C 0.0078 0.5267 0.79746 0.0
C1740 C 0.0207 0.53712 0.79467 0.0
C1741 C 0.02233 0.54711 0.78587 0.0
C1742 C 0.98284 0.51581 0.79448 0.0
C1743 C 0.03277 0.53747 0.8006 0.0
C1744 C 0.9983 0.46114 0.74846 0.0
C1745 C 0.00378 0.45508 0.75834 0.0
C1746 C 0.99852 0.46158 0.77966 0.0
C1747 C 0.01108 0.47165 0.78387 0.0
C1748 C 0.01248 0.48163 0.79289 0.0
C1749 C 0.00108 0.48151 0.79778 0.0
C1750 C 0.9884 0.471 0.79408 0.0
C1751 C 0.98729 0.46105 0.78515 0.0
C1752 C 0.02615 0.4925 0.79693 0.0
C1753 C 0.97606 0.47054 0.79921 0.0
C1754 C 0.0047 0.46327 0.88468 0.0
C1755 C 0.01634 0.4718 0.87798 0.0
C1756 C 0.0174 0.48265 0.87093 0.0
C1757 C 0.00648 0.48478 0.8704 0.0
C1758 C 0.99485 0.47632 0.87744 0.0
C1759 C 0.9942 0.46577 0.88468 0.0
C1760 C 0.03018 0.49179 0.86405 0.0
C1761 C 0.98304 0.47833 0.87717 0.0
C1762 C 0.02484 0.58277 0.87058 0.0
C1763 C 0.01683 0.57444 0.88238 0.0
C1764 C 0.01905 0.55472 0.88182 0.0
C1765 C 0.0293 0.55223 0.87891 0.0
C1766 C 0.02669 0.54019 0.87285 0.0
C1767 C 0.01348 0.53036 0.86993 0.0
C1768 C 0.00301 0.53252 0.87364 0.0
C1769 C 0.00591 0.5447 0.87956 0.0
C1770 C 0.03807 0.53813 0.86919 0.0
C1771 C 0.9888 0.52205 0.87107 0.0
C1772 C 0.00595 0.51538 0.8057 0.0
C1773 C 0.0038 0.50387 0.79894 0.0
C1774 C 0.00249 0.49294 0.80586 0.0
C1775 C 0.00327 0.4934 0.81999 0.0
C1776 C 0.00196 0.48257 0.82727 0.0
C1777 C 0.00302 0.48323 0.84117 0.0
C1778 C 0.00563 0.49482 0.8483 0.0
C1779 C 0.0072 0.49578 0.8624 0.0
C1780 C 0.00968 0.50743 0.86916 0.0
C1781 C 0.01065 0.51822 0.86222 0.0
C1782 C 0.00918 0.51748 0.84813 0.0
C1783 C 0.01015 0.52819 0.84084 0.0
C1784 C 0.00889 0.52745 0.82696 0.0
C1785 C 0.00677 0.51605 0.81983 0.0
C1786 C 0.00552 0.50504 0.82699 0.0
C1787 C 0.00673 0.50576 0.84115 0.0
C1788 C 0.99339 0.43296 0.87803 0.0
C1789 C 0.00564 0.44292 0.88608 0.0
O1790 O 0.01347 0.55583 0.77022 0.0
O1791 O 0.02214 0.56683 0.88687 0.0
O1792 O 0.00347 0.45271 0.89148 0.0
O1793 O 0.99692 0.45234 0.77025 0.0
H1794 H 1.00012 0.54294 0.75622 0.0
H1795 H 0.02143 0.54352 0.75314 0.0
H1796 H 0.02958 0.561 0.74963 0.0
H1797 H 0.01692 0.54907 0.73835 0.0
H1798 H 0.99027 0.53644 0.77777 0.0
H1799 H 0.03214 0.55505 0.78349 0.0
H1800 H 0.98104 0.50633 0.78981 0.0
H1801 H 0.97531 0.51812 0.79056 0.0
H1802 H 0.98154 0.51432 0.80544 0.0
H1803 H 0.04209 0.54565 0.79657 0.0
H1804 H 0.03246 0.52791 0.79855 0.0
H1805 H 0.0329 0.53882 0.81162 0.0
H1806 H 0.01442 0.46233 0.7601 0.0
H1807 H 0.00357 0.46313 0.7388 0.0
H1808 H 0.99972 0.47069 0.75258 0.0
H1809 H 0.98757 0.45433 0.74661 0.0
H1810 H 0.01983 0.47176 0.78017 0.0
H1811 H 0.97764 0.4531 0.782 0.0
H1812 H 0.02702 0.49351 0.80801 0.0
H1813 H 0.02787 0.5021 0.79298 0.0
H1814 H 0.03399 0.49061 0.79311 0.0
H1815 H 0.96694 0.46146 0.79574 0.0
H1816 H 0.97568 0.47938 0.79576 0.0
H1817 H 0.97628 0.47089 0.81032 0.0
H1818 H 0.01422 0.44734 0.87925 0.0
H1819 H 0.02465 0.47013 0.87842 0.0
H1820 H 0.98534 0.4592 0.89009 0.0
H1821 H 0.0287 0.49037 0.85305 0.0
H1822 H 0.03827 0.48989 0.86698 0.0
H1823 H 0.03329 0.50231 0.86647 0.0
H1824 H 0.97435 0.47021 0.88218 0.0
H1825 H 0.98026 0.47892 0.86667 0.0
H1826 H 0.98562 0.48786 0.8823 0.0
H1827 H 0.0065 0.56801 0.87876 0.0
H1828 H 0.02083 0.58909 0.86704 0.0
H1829 H 0.02423 0.57614 0.86216 0.0
H1830 H 0.0354 0.5892 0.87347 0.0
H1831 H 0.03939 0.55995 0.88097 0.0
H1832 H 0.99792 0.54635 0.88243 0.0
H1833 H 0.03801 0.53651 0.85821 0.0
H1834 H 0.03691 0.52911 0.87409 0.0
H1835 H 0.04778 0.54672 0.87222 0.0
H1836 H 0.98178 0.52476 0.87563 0.0
H1837 H 0.98687 0.51242 0.87514 0.0
H1838 H 0.98685 0.52064 0.86012 0.0
H1839 H 0.00337 0.5035 0.78808 0.0
H1840 H 1.00011 0.47346 0.82229 0.0
H1841 H 0.00189 0.47457 0.84624 0.0
H1842 H 0.01094 0.50813 0.87995 0.0
H1843 H 0.01195 0.5373 0.84576 0.0
H1844 H 0.00971 0.53599 0.82188 0.0
H1845 H 0.9846 0.42828 0.88458 0.0
H1846 H 0.99494 0.4251 0.87345 0.0
H1847 H 0.99139 0.4381 0.86984 0.0
C1848 C 0.51994 0.56525 0.74675 0.0
C1849 C 0.53064 0.57227 0.75764 0.0
C1850 C 0.52094 0.55588 0.77555 0.0
C1851 C 0.51086 0.55861 0.779 0.0
C1852 C 0.5008 0.55038 0.78774 0.0
C1853 C 0.50083 0.53924 0.7932 0.0
C1854 C 0.5112 0.53674 0.79015 0.0
C1855 C 0.52116 0.54515 0.7814 0.0
C1856 C 0.48994 0.5534 0.79091 0.0
C1857 C 0.51159 0.52502 0.79591 0.0
C1858 C 0.42187 0.44295 0.76068 0.0
C1859 C 0.43069 0.45214 0.77146 0.0
C1860 C 0.43965 0.47492 0.77975 0.0
C1861 C 0.44932 0.47469 0.78801 0.0
C1862 C 0.45846 0.48604 0.79523 0.0
C1863 C 0.45785 0.49785 0.79436 0.0
C1864 C 0.44803 0.4981 0.78625 0.0
C1865 C 0.43905 0.4866 0.77902 0.0
C1866 C 0.46888 0.48544 0.80369 0.0
C1867 C 0.44707 0.51051 0.78519 0.0
C1868 C 0.42984 0.49208 0.8797 0.0
C1869 C 0.43808 0.48719 0.87561 0.0
C1870 C 0.44976 0.49528 0.86866 0.0
C1871 C 0.45295 0.50837 0.86539 0.0
C1872 C 0.44466 0.51332 0.86967 0.0
C1873 C 0.43332 0.50515 0.87701 0.0
C1874 C 0.45865 0.48984 0.86485 0.0
C1875 C 0.4477 0.52719 0.86643 0.0
C1876 C 0.54735 0.58899 0.87159 0.0
C1877 C 0.5402 0.58698 0.88495 0.0
C1878 C 0.52129 0.56468 0.88026 0.0
C1879 C 0.5179 0.55135 0.88025 0.0
C1880 C 0.50698 0.54175 0.87287 0.0
C1881 C 0.499 0.54555 0.86565 0.0
C1882 C 0.50202 0.55895 0.8661 0.0
C1883 C 0.51326 0.56843 0.87323 0.0
C1884 C 0.50408 0.52756 0.87268 0.0
C1885 C 0.4934 0.56328 0.859 0.0
C1886 C 0.48955 0.52978 0.8014 0.0
C1887 C 0.47899 0.51904 0.79477 0.0
C1888 C 0.4678 0.50998 0.80169 0.0
C1889 C 0.46681 0.51194 0.81553 0.0
C1890 C 0.45531 0.50356 0.8226 0.0
C1891 C 0.45455 0.50537 0.83629 0.0
C1892 C 0.46542 0.51536 0.84351 0.0
C1893 C 0.46495 0.51693 0.85753 0.0
C1894 C 0.476 0.5269 0.86437 0.0
C1895 C 0.48754 0.53549 0.85761 0.0
C1896 C 0.48814 0.53419 0.84357 0.0
C1897 C 0.49955 0.5427 0.83641 0.0
C1898 C 0.49997 0.54143 0.82257 0.0
C1899 C 0.48915 0.53134 0.81542 0.0
C1900 C 0.47766 0.52247 0.82248 0.0
C1901 C 0.47706 0.52403 0.83653 0.0
C1902 C 0.39676 0.47432 0.87814 0.0
C1903 C 0.40838 0.47238 0.882 0.0
O1904 O 0.53047 0.56312 0.76652 0.0
O1905 O 0.53233 0.5735 0.88719 0.0
O1906 O 0.41867 0.48446 0.88659 0.0
O1907 O 0.43091 0.46418 0.77226 0.0
H1908 H 0.52889 0.57961 0.76316 0.0
H1909 H 0.50996 0.56025 0.75118 0.0
H1910 H 0.52137 0.55767 0.74132 0.0
H1911 H 0.52032 0.57256 0.73947 0.0
H1912 H 0.51065 0.56701 0.77481 0.0
H1913 H 0.52902 0.54317 0.77881 0.0
H1914 H 0.48029 0.54502 0.78741 0.0
H1915 H 0.49149 0.56263 0.78615 0.0
H1916 H 0.48935 0.55444 0.80191 0.0
H1917 H 0.52074 0.52489 0.79321 0.0
H1918 H 0.50293 0.51569 0.79215 0.0
H1919 H 0.51093 0.52522 0.80698 0.0
H1920 H 0.42937 0.44753 0.78147 0.0
H1921 H 0.43459 0.44124 0.74829 0.0
H1922 H 0.41533 0.44692 0.75729 0.0
H1923 H 0.41386 0.43422 0.76603 0.0
H1924 H 0.4499 0.46573 0.78879 0.0
H1925 H 0.43157 0.48672 0.77267 0.0
H1926 H 0.46738 0.48693 0.81439 0.0
H1927 H 0.47885 0.49352 0.80095 0.0
H1928 H 0.46862 0.47579 0.80255 0.0
H1929 H 0.43831 0.50884 0.77922 0.0
H1930 H 0.4561 0.51838 0.78041 0.0
H1931 H 0.44653 0.5142 0.79534 0.0
H1932 H 0.41133 0.46891 0.87288 0.0
H1933 H 0.43546 0.47713 0.87806 0.0
H1934 H 0.42691 0.50883 0.88041 0.0
H1935 H 0.45786 0.48779 0.85392 0.0
H1936 H 0.45598 0.48048 0.87008 0.0
H1937 H 0.46912 0.49722 0.86724 0.0
H1938 H 0.43949 0.52896 0.86911 0.0
H1939 H 0.44973 0.52902 0.85559 0.0
H1940 H 0.45671 0.53449 0.87203 0.0
H1941 H 0.53404 0.59179 0.88466 0.0
H1942 H 0.55347 0.59969 0.86936 0.0
H1943 H 0.54008 0.58425 0.86326 0.0
H1944 H 0.5538 0.58449 0.87187 0.0
H1945 H 0.52409 0.54854 0.88581 0.0
H1946 H 0.5156 0.57867 0.87335 0.0
H1947 H 0.50293 0.5238 0.86221 0.0
H1948 H 0.49463 0.52123 0.87785 0.0
H1949 H 0.51199 0.52649 0.87771 0.0
H1950 H 0.49593 0.57353 0.86194 0.0
H1951 H 0.48284 0.55642 0.86121 0.0
H1952 H 0.49464 0.56292 0.84803 0.0
H1953 H 0.47958 0.51759 0.7841 0.0
H1954 H 0.44672 0.49558 0.81759 0.0
H1955 H 0.44539 0.4987 0.84116 0.0
H1956 H 0.47561 0.52799 0.87513 0.0
H1957 H 0.50827 0.55051 0.8414 0.0
H1958 H 0.50896 0.54833 0.81757 0.0
H1959 H 0.39319 0.47738 0.88704 0.0
H1960 H 0.38849 0.46503 0.87378 0.0
H1961 H 0.39995 0.48216 0.87052 0.0
C1962 C 0.65134 0.78835 0.60096 0.0
C1963 C 0.64018 0.77505 0.59541 0.0
C1964 C 0.63735 0.78207 0.57361 0.0
C1965 C 0.62436 0.77965 0.57319 0.0
C1966 C 0.62096 0.78739 0.56524 0.0
C1967 C 0.63087 0.79791 0.55782 0.0
C1968 C 0.644 0.80028 0.5582 0.0
C1969 C 0.647 0.7921 0.56589 0.0
C1970 C 0.60683 0.7844 0.56491 0.0
C1971 C 0.65494 0.81162 0.55077 0.0
C1972 C 0.61071 0.85396 0.60815 0.0
C1973 C 0.62245 0.86271 0.59931 0.0
C1974 C 0.61964 0.85296 0.57721 0.0
C1975 C 0.63219 0.85519 0.57382 0.0
C1976 C 0.63361 0.84651 0.56497 0.0
C1977 C 0.6222 0.83527 0.55962 0.0
C1978 C 0.60951 0.83312 0.56295 0.0
C1979 C 0.60841 0.84218 0.57152 0.0
C1980 C 0.64729 0.84928 0.56147 0.0
C1981 C 0.59711 0.8211 0.55773 0.0
C1982 C 0.60863 0.85031 0.47572 0.0
C1983 C 0.62179 0.8537 0.47824 0.0
C1984 C 0.62477 0.84454 0.48397 0.0
C1985 C 0.61438 0.83179 0.48728 0.0
C1986 C 0.60116 0.82816 0.48414 0.0
C1987 C 0.59848 0.83746 0.47824 0.0
C1988 C 0.63901 0.84856 0.48674 0.0
C1989 C 0.58986 0.8146 0.48737 0.0
C1990 C 0.62893 0.7518 0.48102 0.0
C1991 C 0.62311 0.75258 0.46747 0.0
C1992 C 0.62564 0.77469 0.47092 0.0
C1993 C 0.63551 0.78802 0.47093 0.0
C1994 C 0.63416 0.79763 0.47827 0.0
C1995 C 0.6224 0.79384 0.48542 0.0
C1996 C 0.61204 0.78047 0.48481 0.0
C1997 C 0.61384 0.77099 0.47774 0.0
C1998 C 0.64541 0.81179 0.4786 0.0
C1999 C 0.59911 0.77615 0.49176 0.0
C2000 C 0.62764 0.80685 0.55023 0.0
C2001 C 0.62634 0.81649 0.55748 0.0
C2002 C 0.62355 0.82544 0.5511 0.0
C2003 C 0.62206 0.82485 0.53701 0.0
C2004 C 0.61949 0.83384 0.53023 0.0
C2005 C 0.61783 0.83304 0.51639 0.0
C2006 C 0.61887 0.82335 0.50877 0.0
C2007 C 0.61726 0.82252 0.49468 0.0
C2008 C 0.61835 0.81276 0.48741 0.0
C2009 C 0.62112 0.80379 0.4938 0.0
C2010 C 0.6228 0.8045 0.50789 0.0
C2011 C 0.62567 0.7957 0.51467 0.0
C2012 C 0.62708 0.79633 0.52853 0.0
C2013 C 0.626 0.80599 0.53615 0.0
C2014 C 0.62323 0.81504 0.52953 0.0
C2015 C 0.62162 0.81429 0.51538 0.0
C2016 C 0.60087 0.87459 0.48206 0.0
C2017 C 0.61117 0.8724 0.47485 0.0
O2018 O 0.6408 0.77492 0.58156 0.0
O2019 O 0.62793 0.76577 0.46427 0.0
O2020 O 0.60542 0.85918 0.47085 0.0
O2021 O 0.61821 0.86105 0.58609 0.0
H2022 H 0.63054 0.7739 0.59853 0.0
H2023 H 0.65031 0.79666 0.59702 0.0
H2024 H 0.66112 0.78977 0.59799 0.0
H2025 H 0.65098 0.78879 0.61205 0.0
H2026 H 0.6169 0.77169 0.57904 0.0
H2027 H 0.657 0.79381 0.56631 0.0
H2028 H 0.60613 0.79243 0.5703 0.0
H2029 H 0.60003 0.77482 0.56967 0.0
H2030 H 0.6035 0.78408 0.55442 0.0
H2031 H 0.66483 0.81312 0.55347 0.0
H2032 H 0.65484 0.82097 0.55292 0.0
H2033 H 0.65336 0.80959 0.53984 0.0
H2034 H 0.62992 0.85949 0.60057 0.0
H2035 H 0.61392 0.85507 0.6188 0.0
H2036 H 0.6065 0.84338 0.60507 0.0
H2037 H 0.60287 0.85667 0.6072 0.0
H2038 H 0.64084 0.86371 0.57813 0.0
H2039 H 0.59877 0.84063 0.57421 0.0
H2040 H 0.64916 0.84177 0.56617 0.0
H2041 H 0.65507 0.85929 0.56498 0.0
H2042 H 0.64812 0.84847 0.55047 0.0
H2043 H 0.58807 0.82013 0.56243 0.0
H2044 H 0.59756 0.81195 0.55959 0.0
H2045 H 0.59627 0.82184 0.54675 0.0
H2046 H 0.61933 0.87507 0.48222 0.0
H2047 H 0.62971 0.86348 0.47574 0.0
H2048 H 0.58839 0.83488 0.476 0.0
H2049 H 0.64078 0.84923 0.49772 0.0
H2050 H 0.64598 0.8583 0.48236 0.0
H2051 H 0.64116 0.84093 0.48264 0.0
H2052 H 0.58013 0.81336 0.48441 0.0
H2053 H 0.58984 0.81291 0.49828 0.0
H2054 H 0.59117 0.80687 0.48212 0.0
H2055 H 0.61216 0.74735 0.46804 0.0
H2056 H 0.62508 0.74133 0.48388 0.0
H2057 H 0.62617 0.75665 0.48901 0.0
H2058 H 0.63988 0.75687 0.48055 0.0
H2059 H 0.64451 0.79079 0.4655 0.0
H2060 H 0.60597 0.76076 0.47752 0.0
H2061 H 0.64805 0.81544 0.48911 0.0
H2062 H 0.64228 0.81821 0.47351 0.0
H2063 H 0.65434 0.81286 0.47356 0.0
H2064 H 0.59132 0.76608 0.48842 0.0
H2065 H 0.59558 0.78327 0.48989 0.0
H2066 H 0.60056 0.776 0.50272 0.0
H2067 H 0.62755 0.81705 0.56828 0.0
H2068 H 0.61867 0.84156 0.53555 0.0
H2069 H 0.61574 0.84016 0.51176 0.0
H2070 H 0.61707 0.81218 0.47661 0.0
H2071 H 0.6268 0.78816 0.50935 0.0
H2072 H 0.6291 0.78917 0.5332 0.0
H2073 H 0.60523 0.88515 0.48529 0.0
H2074 H 0.59743 0.86834 0.49108 0.0
H2075 H 0.59218 0.87185 0.47544 0.0
C2076 C 0.12527 0.73539 0.58269 0.0
C2077 C 0.12643 0.74654 0.59199 0.0
C2078 C 0.13782 0.76659 0.57827 0.0
C2079 C 0.1362 0.77614 0.57155 0.0
C2080 C 0.14668 0.78641 0.56468 0.0
C2081 C 0.15908 0.78702 0.56439 0.0
C2082 C 0.16084 0.77743 0.57121 0.0
C2083 C 0.15023 0.76736 0.57817 0.0
C2084 C 0.14449 0.79658 0.55769 0.0
C2085 C 0.17393 0.77779 0.57108 0.0
C2086 C 0.22969 0.85233 0.61192 0.0
C2087 C 0.23592 0.86182 0.60024 0.0
C2088 C 0.21807 0.85128 0.58328 0.0
C2089 C 0.21983 0.84043 0.5802 0.0
C2090 C 0.21091 0.83009 0.57167 0.0
C2091 C 0.20002 0.83059 0.5661 0.0
C2092 C 0.19837 0.84162 0.56895 0.0
C2093 C 0.20747 0.85185 0.57745 0.0
C2094 C 0.21303 0.81853 0.56872 0.0
C2095 C 0.18691 0.84249 0.56311 0.0
C2096 C 0.22597 0.84949 0.48063 0.0
C2097 C 0.22765 0.83907 0.48533 0.0
C2098 C 0.2174 0.82831 0.49193 0.0
C2099 C 0.20523 0.82793 0.49386 0.0
C2100 C 0.20341 0.83824 0.48892 0.0
C2101 C 0.21382 0.84888 0.48236 0.0
C2102 C 0.21961 0.8174 0.49702 0.0
C2103 C 0.19053 0.8381 0.49075 0.0
C2104 C 0.12229 0.72688 0.48385 0.0
C2105 C 0.12525 0.73989 0.47735 0.0
C2106 C 0.14744 0.75901 0.47982 0.0
C2107 C 0.16009 0.76136 0.48297 0.0
C2108 C 0.16935 0.77316 0.48951 0.0
C2109 C 0.16591 0.78295 0.49265 0.0
C2110 C 0.15339 0.78097 0.48868 0.0
C2111 C 0.14426 0.76898 0.48233 0.0
C2112 C 0.18267 0.77502 0.4934 0.0
C2113 C 0.14959 0.79141 0.49143 0.0
C2114 C 0.17019 0.79768 0.55691 0.0
C2115 C 0.17956 0.80887 0.5641 0.0
C2116 C 0.19015 0.81936 0.55768 0.0
C2117 C 0.19133 0.81887 0.54363 0.0
C2118 C 0.20166 0.82939 0.53681 0.0
C2119 C 0.2027 0.82882 0.52297 0.0
C2120 C 0.19353 0.81764 0.51545 0.0
C2121 C 0.19453 0.81693 0.50139 0.0
C2122 C 0.18534 0.80561 0.49423 0.0
C2123 C 0.1751 0.79487 0.50075 0.0
C2124 C 0.17387 0.79543 0.51479 0.0
C2125 C 0.16369 0.7848 0.52167 0.0
C2126 C 0.16246 0.78551 0.53545 0.0
C2127 C 0.17142 0.79683 0.54292 0.0
C2128 C 0.18194 0.80754 0.53624 0.0
C2129 C 0.1831 0.80688 0.52214 0.0
C2130 C 0.2567 0.86864 0.48565 0.0
C2131 C 0.2487 0.86347 0.47256 0.0
O2132 O 0.12713 0.75685 0.58457 0.0
O2133 O 0.13857 0.74705 0.47436 0.0
O2134 O 0.23572 0.86033 0.47453 0.0
O2135 O 0.22617 0.86131 0.59186 0.0
H2136 H 0.13544 0.75025 0.59839 0.0
H2137 H 0.13412 0.739 0.57633 0.0
H2138 H 0.11645 0.73165 0.57603 0.0
H2139 H 0.12446 0.72704 0.58868 0.0
H2140 H 0.12663 0.7755 0.5717 0.0
H2141 H 0.15174 0.76013 0.58336 0.0
H2142 H 0.15223 0.80674 0.56083 0.0
H2143 H 0.13463 0.79538 0.55983 0.0
H2144 H 0.1453 0.79564 0.54672 0.0
H2145 H 0.17344 0.76904 0.57598 0.0
H2146 H 0.1815 0.78691 0.57637 0.0
H2147 H 0.17724 0.77816 0.56061 0.0
H2148 H 0.24234 0.85904 0.59449 0.0
H2149 H 0.23751 0.85292 0.61875 0.0
H2150 H 0.22377 0.84192 0.60821 0.0
H2151 H 0.2231 0.85486 0.61767 0.0
H2152 H 0.22805 0.83987 0.58444 0.0
H2153 H 0.20622 0.86028 0.5798 0.0
H2154 H 0.20451 0.80926 0.57242 0.0
H2155 H 0.22222 0.8198 0.57346 0.0
H2156 H 0.21354 0.8173 0.55774 0.0
H2157 H 0.1871 0.85181 0.56615 0.0
H2158 H 0.17747 0.83392 0.56641 0.0
H2159 H 0.18707 0.84194 0.55202 0.0
H2160 H 0.24895 0.85451 0.46897 0.0
H2161 H 0.23692 0.83927 0.48402 0.0
H2162 H 0.21258 0.85691 0.47867 0.0
H2163 H 0.21848 0.81679 0.50806 0.0
H2164 H 0.22955 0.81901 0.49454 0.0
H2165 H 0.21203 0.80771 0.49265 0.0
H2166 H 0.19058 0.84673 0.48607 0.0
H2167 H 0.18855 0.83821 0.5016 0.0
H2168 H 0.1823 0.82883 0.48631 0.0
H2169 H 0.12259 0.74533 0.48482 0.0
H2170 H 0.11163 0.72094 0.48628 0.0
H2171 H 0.12811 0.72905 0.49329 0.0
H2172 H 0.12496 0.72094 0.47711 0.0
H2173 H 0.16251 0.75369 0.48073 0.0
H2174 H 0.13465 0.76741 0.47934 0.0
H2175 H 0.18428 0.77682 0.50437 0.0
H2176 H 0.19056 0.78387 0.48839 0.0
H2177 H 0.18366 0.76628 0.49061 0.0
H2178 H 0.14015 0.78903 0.48638 0.0
H2179 H 0.1575 0.80123 0.48803 0.0
H2180 H 0.14849 0.79224 0.50236 0.0
H2181 H 0.17864 0.80938 0.57486 0.0
H2182 H 0.20903 0.83822 0.54208 0.0
H2183 H 0.21083 0.83724 0.51826 0.0
H2184 H 0.18622 0.80511 0.48347 0.0
H2185 H 0.15651 0.77581 0.51649 0.0
H2186 H 0.1544 0.77704 0.54018 0.0
H2187 H 0.26715 0.87139 0.48397 0.0
H2188 H 0.25266 0.8609 0.49339 0.0
H2189 H 0.25639 0.87748 0.48953 0.0
C2190 C 0.14982 0.37974 0.60874 0.0
C2191 C 0.13933 0.37579 0.59764 0.0
C2192 C 0.14958 0.36924 0.5798 0.0
C2193 C 0.15957 0.38211 0.5766 0.0
C2194 C 0.16977 0.38407 0.5679 0.0
C2195 C 0.16998 0.37296 0.56226 0.0
C2196 C 0.15973 0.36001 0.56512 0.0
C2197 C 0.14962 0.35834 0.57381 0.0
C2198 C 0.18045 0.39802 0.56488 0.0
C2199 C 0.15961 0.34795 0.55919 0.0
C2200 C 0.26678 0.40284 0.58401 0.0
C2201 C 0.25578 0.39057 0.59085 0.0
C2202 C 0.23679 0.38086 0.57513 0.0
C2203 C 0.22839 0.36942 0.56769 0.0
C2204 C 0.21731 0.36821 0.56086 0.0
C2205 C 0.21488 0.37898 0.56107 0.0
C2206 C 0.22334 0.39061 0.56859 0.0
C2207 C 0.23409 0.39136 0.57571 0.0
C2208 C 0.20826 0.35542 0.55339 0.0
C2209 C 0.22109 0.40231 0.56906 0.0
C2210 C 0.23767 0.38726 0.4754 0.0
C2211 C 0.22775 0.37452 0.47895 0.0
C2212 C 0.21643 0.37267 0.48563 0.0
C2213 C 0.21502 0.3838 0.48881 0.0
C2214 C 0.22472 0.39657 0.48469 0.0
C2215 C 0.23588 0.3981 0.47788 0.0
C2216 C 0.20606 0.35886 0.48949 0.0
C2217 C 0.22346 0.40861 0.48777 0.0
C2218 C 0.12736 0.38582 0.48129 0.0
C2219 C 0.13271 0.38331 0.46825 0.0
C2220 C 0.14776 0.37573 0.4764 0.0
C2221 C 0.1491 0.36456 0.47814 0.0
C2222 C 0.16012 0.36548 0.48483 0.0
C2223 C 0.17008 0.37794 0.48986 0.0
C2224 C 0.16896 0.38936 0.4879 0.0
C2225 C 0.1578 0.38815 0.48122 0.0
C2226 C 0.16103 0.35312 0.48671 0.0
C2227 C 0.17949 0.40282 0.49303 0.0
C2228 C 0.18129 0.3749 0.55392 0.0
C2229 C 0.19232 0.37583 0.56047 0.0
C2230 C 0.20353 0.3781 0.5534 0.0
C2231 C 0.20379 0.37947 0.53934 0.0
C2232 C 0.21502 0.3821 0.53193 0.0
C2233 C 0.21504 0.38303 0.51808 0.0
C2234 C 0.20387 0.38148 0.51109 0.0
C2235 C 0.20371 0.38213 0.49697 0.0
C2236 C 0.19258 0.38092 0.49036 0.0
C2237 C 0.18149 0.37898 0.49749 0.0
C2238 C 0.18137 0.37804 0.51159 0.0
C2239 C 0.17031 0.3759 0.51905 0.0
C2240 C 0.17027 0.37492 0.53292 0.0
C2241 C 0.18126 0.376 0.53985 0.0
C2242 C 0.19255 0.37824 0.53254 0.0
C2243 C 0.1926 0.37927 0.5184 0.0
C2244 C 0.26822 0.39403 0.48197 0.0
C2245 C 0.25657 0.38388 0.47338 0.0
O2246 O 0.13986 0.36684 0.58869 0.0
O2247 O 0.13661 0.37397 0.47016 0.0
O2248 O 0.24896 0.38937 0.46943 0.0
O2249 O 0.24739 0.38133 0.58139 0.0
H2250 H 0.14103 0.38479 0.59223 0.0
H2251 H 0.1599 0.38483 0.60453 0.0
H2252 H 0.1484 0.37081 0.61408 0.0
H2253 H 0.14917 0.38667 0.61605 0.0
H2254 H 0.15959 0.39069 0.58093 0.0
H2255 H 0.14183 0.34845 0.57622 0.0
H2256 H 0.1901 0.39965 0.5687 0.0
H2257 H 0.17853 0.40563 0.56949 0.0
H2258 H 0.1813 0.39942 0.55389 0.0
H2259 H 0.1508 0.33855 0.5622 0.0
H2260 H 0.16864 0.3478 0.56245 0.0
H2261 H 0.15976 0.34845 0.54811 0.0
H2262 H 0.25014 0.3938 0.59734 0.0
H2263 H 0.27389 0.40985 0.59161 0.0
H2264 H 0.26262 0.40812 0.57844 0.0
H2265 H 0.27218 0.40002 0.57677 0.0
H2266 H 0.23048 0.36133 0.56736 0.0
H2267 H 0.24038 0.40025 0.58151 0.0
H2268 H 0.19777 0.35223 0.55543 0.0
H2269 H 0.21016 0.3473 0.55616 0.0
H2270 H 0.20979 0.35699 0.54248 0.0
H2271 H 0.22953 0.41124 0.57378 0.0
H2272 H 0.2121 0.39969 0.57493 0.0
H2273 H 0.21945 0.40481 0.55882 0.0
H2274 H 0.2508 0.37508 0.47972 0.0
H2275 H 0.22881 0.36601 0.47645 0.0
H2276 H 0.24348 0.40786 0.47485 0.0
H2277 H 0.20584 0.35809 0.50055 0.0
H2278 H 0.20798 0.35114 0.48518 0.0
H2279 H 0.19614 0.35681 0.48608 0.0
H2280 H 0.23199 0.4179 0.4841 0.0
H2281 H 0.22267 0.40961 0.49874 0.0
H2282 H 0.21427 0.40737 0.48306 0.0
H2283 H 0.14126 0.39277 0.46489 0.0
H2284 H 0.12405 0.39314 0.47968 0.0
H2285 H 0.13515 0.38987 0.48919 0.0
H2286 H 0.1189 0.37644 0.48491 0.0
H2287 H 0.14135 0.35504 0.47435 0.0
H2288 H 0.15703 0.39695 0.47993 0.0
H2289 H 0.1616 0.35149 0.49755 0.0
H2290 H 0.17021 0.3544 0.48208 0.0
H2291 H 0.15244 0.34416 0.48222 0.0
H2292 H 0.17748 0.41085 0.4902 0.0
H2293 H 0.18925 0.40512 0.48904 0.0
H2294 H 0.18016 0.40271 0.50411 0.0
H2295 H 0.1922 0.37485 0.57126 0.0
H2296 H 0.22392 0.38341 0.53675 0.0
H2297 H 0.22394 0.38496 0.51292 0.0
H2298 H 0.19253 0.38147 0.47954 0.0
H2299 H 0.16154 0.37493 0.51425 0.0
H2300 H 0.16148 0.37325 0.53813 0.0
H2301 H 0.27452 0.38985 0.4851 0.0
H2302 H 0.26449 0.39656 0.4911 0.0
H2303 H 0.27432 0.40328 0.47637 0.0
H2304 H 0.00919 0.35656 0.05261 0.0
H2305 H 0.00621 0.36879 0.07105 0.0
H2306 H 0.97424 0.36877 0.04923 0.0
H2307 H 0.97673 0.35586 0.03109 0.0
H2308 H 0.01046 0.39252 0.07004 0.0
H2309 H 0.95859 0.36104 0.08536 0.0
H2310 H 0.96671 0.35496 0.07443 0.0
H2311 H 0.9597 0.36446 0.06784 0.0
C2312 C 0.0013 0.35888 0.05192 0.0
C2313 C 0.99316 0.35525 0.04047 0.0
C2314 C 0.99963 0.3659 0.06244 0.0
C2315 C 0.98994 0.36966 0.06162 0.0
C2316 C 0.98154 0.3657 0.05031 0.0
H2317 H 1.00009 0.43982 0.10439 0.0
H2318 H 0.99877 0.42379 0.08758 0.0
C2319 C 0.98301 0.35838 0.0399 0.0
C2320 C 0.98961 0.37881 0.07195 0.0
H2321 H 0.96933 0.38379 0.09278 0.0
C2322 C 0.00146 0.39052 0.0751 0.0
C2323 C 0.97793 0.37619 0.07866 0.0
C2324 C 0.96505 0.36341 0.07651 0.0
C2325 C 0.00198 0.39969 0.08467 0.0
C2326 C 0.99018 0.39742 0.09088 0.0
C2327 C 0.97834 0.38564 0.08787 0.0
C2328 C 0.99001 0.40699 0.10076 0.0
C2329 C 0.01526 0.41153 0.08824 0.0
C2330 C 0.98491 0.40278 0.11358 0.0
C2331 C 0.98526 0.41187 0.1231 0.0
C2332 C 0.99074 0.42535 0.12003 0.0
C2333 C 0.99568 0.4295 0.1071 0.0
C2334 C 0.99509 0.42037 0.09751 0.0
H2335 H 0.02345 0.40959 0.08594 0.0
H2336 H 0.01678 0.42012 0.08224 0.0
H2337 H 0.01592 0.41428 0.09901 0.0
H2338 H 0.98091 0.39252 0.11632 0.0
H2339 H 0.9815 0.40842 0.13301 0.0
H2340 H 0.62878 0.63152 0.05599 0.0
H2341 H 0.61999 0.61387 0.07235 0.0
H2342 H 0.64004 0.5957 0.05293 0.0
H2343 H 0.64885 0.61331 0.03637 0.0
H2344 H 0.613 0.57816 0.05769 0.0
H2345 H 0.6388 0.60721 0.1035 0.0
H2346 H 0.63056 0.6141 0.09417 0.0
H2347 H 0.64421 0.61333 0.08688 0.0
C2348 C 0.63146 0.62386 0.05525 0.0
C2349 C 0.63954 0.62384 0.04485 0.0
C2350 C 0.62647 0.61382 0.06467 0.0
C2351 C 0.6295 0.60358 0.06394 0.0
C2352 C 0.63766 0.60357 0.05369 0.0
H2353 H 0.59998 0.53077 0.10954 0.0
H2354 H 0.61145 0.54849 0.0934 0.0
C2355 C 0.6427 0.61366 0.04426 0.0
C2356 C 0.62348 0.5925 0.07345 0.0
H2357 H 0.6206 0.58545 0.10671 0.0
C2358 C 0.61476 0.5797 0.0684 0.0
C2359 C 0.62577 0.59459 0.0874 0.0
C2360 C 0.63544 0.60802 0.09333 0.0
C2361 C 0.60793 0.56898 0.07698 0.0
C2362 C 0.61007 0.57111 0.09096 0.0
C2363 C 0.61895 0.58387 0.09599 0.0
C2364 C 0.60303 0.56027 0.10056 0.0
C2365 C 0.59816 0.55558 0.07106 0.0
C2366 C 0.59472 0.56117 0.11011 0.0
C2367 C 0.5882 0.55109 0.11934 0.0
C2368 C 0.58983 0.53989 0.11916 0.0
C2369 C 0.59831 0.53913 0.10971 0.0
C2370 C 0.60484 0.54922 0.10048 0.0
H2371 H 0.59536 0.55632 0.0606 0.0
H2372 H 0.60266 0.54913 0.07097 0.0
H2373 H 0.58906 0.5507 0.07713 0.0
H2374 H 0.5933 0.56969 0.11042 0.0
H2375 H 0.58195 0.55208 0.1267 0.0
H2376 H 0.37476 0.02691 0.03959 0.0
H2377 H 0.39034 0.03157 0.05814 0.0
H2378 H 0.37389 0.98962 0.06401 0.0
H2379 H 0.35825 0.98483 0.04558 0.0
H2380 H 0.3787 0.00538 0.08817 0.0
H2381 H 0.42218 0.02509 0.05478 0.0
H2382 H 0.41194 0.0325 0.05318 0.0
H2383 H 0.40543 0.01536 0.04855 0.0
C2384 C 0.37437 0.01867 0.0449 0.0
C2385 C 0.36533 0.00549 0.04103 0.0
C2386 C 0.38332 0.02136 0.05544 0.0
C2387 C 0.38337 0.01093 0.06228 0.0
C2388 C 0.37404 0.9978 0.05879 0.0
H2389 H 0.42983 0.00309 0.12585 0.0
H2390 H 0.41323 0.99929 0.10866 0.0
C2391 C 0.36513 0.99509 0.04824 0.0
C2392 C 0.39336 0.01365 0.07284 0.0
H2393 H 0.4264 0.02602 0.07799 0.0
C2394 C 0.38913 0.0099 0.08598 0.0
C2395 C 0.40695 0.01951 0.06989 0.0
C2396 C 0.41195 0.02327 0.05583 0.0
C2397 C 0.39818 0.01203 0.09634 0.0
C2398 C 0.41176 0.01781 0.09338 0.0
C2399 C 0.41598 0.0216 0.08023 0.0
C2400 C 0.4218 0.02002 0.10375 0.0
C2401 C 0.39313 0.00831 0.11039 0.0
C2402 C 0.4323 0.03287 0.10643 0.0
C2403 C 0.44189 0.03503 0.11608 0.0
C2404 C 0.44125 0.02435 0.12311 0.0
C2405 C 0.43069 0.01147 0.12043 0.0
C2406 C 0.42112 0.00932 0.11074 0.0
H2407 H 0.3833 0.0075 0.11158 0.0
H2408 H 0.39207 0.99852 0.11267 0.0
H2409 H 0.40011 0.0157 0.11782 0.0
H2410 H 0.43301 0.04126 0.10114 0.0
H2411 H 0.44978 0.04507 0.11811 0.0
H2412 H 0.36182 0.01083 0.96308 0.0
H2413 H 0.37542 0.01075 0.94464 0.0
H2414 H 0.37354 0.97537 0.96002 0.0
H2415 H 0.35931 0.97503 0.97808 0.0
H2416 H 0.39883 0.01429 0.94625 0.0
H2417 H 0.36777 0.96538 0.92152 0.0
H2418 H 0.3613 0.97203 0.93385 0.0
H2419 H 0.37011 0.96375 0.93897 0.0
C2420 C 0.36407 0.00287 0.96235 0.0
C2421 C 0.35948 0.99291 0.97198 0.0
C2422 C 0.37188 0.00285 0.95183 0.0
C2423 C 0.37545 0.99299 0.95082 0.0
C2424 C 0.37065 0.98287 0.96031 0.0
H2425 H 0.44702 0.00796 0.90963 0.0
H2426 H 0.43044 0.00465 0.92621 0.0
C2427 C 0.36257 0.98273 0.97069 0.0
C2428 C 0.38506 0.99401 0.94053 0.0
H2429 H 0.39073 0.97671 0.91607 0.0
C2430 C 0.39698 0.00609 0.93958 0.0
C2431 C 0.38265 0.98338 0.9317 0.0
C2432 C 0.3697 0.97047 0.93145 0.0
C2433 C 0.40654 0.00783 0.93014 0.0
C2434 C 0.40443 0.99701 0.92178 0.0
C2435 C 0.39246 0.98496 0.92262 0.0
C2436 C 0.41435 0.9981 0.91185 0.0
C2437 C 0.41863 0.02141 0.92905 0.0
C2438 C 0.41072 0.99487 0.89833 0.0
C2439 C 0.42011 0.99634 0.88886 0.0
C2440 C 0.43334 0.00111 0.89269 0.0
C2441 C 0.43692 0.00417 0.90629 0.0
C2442 C 0.42746 0.00245 0.91579 0.0
H2443 H 0.41675 0.02931 0.93289 0.0
H2444 H 0.42678 0.02182 0.93515 0.0
H2445 H 0.42194 0.02363 0.91853 0.0
H2446 H 0.40067 0.99146 0.89503 0.0
H2447 H 0.4171 0.994 0.87845 0.0
H2448 H 0.0291 0.38342 0.9835 0.0
H2449 H 0.03046 0.39919 0.96667 0.0
H2450 H 0.99841 0.36721 0.94439 0.0
H2451 H 0.99662 0.35159 0.96144 0.0
H2452 H 0.03442 0.40269 0.94029 0.0
H2453 H 0.98344 0.39105 0.95145 0.0
H2454 H 0.99212 0.385 0.96145 0.0
H2455 H 0.98397 0.37657 0.94606 0.0
C2456 C 0.0225 0.37976 0.97489 0.0
C2457 C 0.01263 0.36634 0.97385 0.0
C2458 C 0.02326 0.38877 0.96531 0.0
C2459 C 0.01425 0.38444 0.95449 0.0
C2460 C 0.00514 0.37085 0.95289 0.0
H2461 H 0.01734 0.42779 0.88351 0.0
H2462 H 0.02035 0.41449 0.9004 0.0
C2463 C 0.0042 0.36192 0.96258 0.0
C2464 C 0.01388 0.39414 0.94527 0.0
H2465 H 0.99302 0.40363 0.93192 0.0
C2466 C 0.0254 0.40298 0.93852 0.0
C2467 C 0.0022 0.39477 0.94323 0.0
C2468 C 0.98978 0.38644 0.95105 0.0
C2469 C 0.02545 0.41215 0.92947 0.0
C2470 C 0.01354 0.41217 0.92679 0.0
C2471 C 0.00213 0.40355 0.93383 0.0
C2472 C 0.01252 0.42087 0.91668 0.0
C2473 C 0.03832 0.42185 0.9231 0.0
C2474 C 0.00673 0.42858 0.92005 0.0
C2475 C 0.00464 0.43588 0.91032 0.0
C2476 C 0.00857 0.43584 0.89704 0.0
C2477 C 0.01447 0.42821 0.89372 0.0
C2478 C 0.01631 0.42071 0.9034 0.0
H2479 H 0.04691 0.42364 0.92945 0.0
H2480 H 0.0392 0.41766 0.91336 0.0
H2481 H 0.03888 0.43151 0.9213 0.0
H2482 H 0.00359 0.42878 0.93019 0.0
H2483 H 0.99982 0.4414 0.91321 0.0
H2484 H 0.64014 0.64224 0.96756 0.0
H2485 H 0.62479 0.6343 0.94847 0.0
H2486 H 0.59355 0.63059 0.97416 0.0
H2487 H 0.6091 0.63935 0.99304 0.0
H2488 H 0.6047 0.61187 0.94396 0.0
H2489 H 0.58699 0.64787 0.94391 0.0
H2490 H 0.60082 0.65034 0.95413 0.0
H2491 H 0.58413 0.64005 0.95981 0.0
C2492 C 0.63004 0.63994 0.96905 0.0
C2493 C 0.62582 0.64149 0.98173 0.0
C2494 C 0.62127 0.63538 0.95815 0.0
C2495 C 0.60801 0.63202 0.95977 0.0
C2496 C 0.60379 0.63353 0.97249 0.0
H2497 H 0.54564 0.57558 0.90679 0.0
H2498 H 0.56182 0.58675 0.92464 0.0
C2499 C 0.61266 0.63844 0.98332 0.0
C2500 C 0.59847 0.6261 0.94838 0.0
H2501 H 0.57358 0.62743 0.93175 0.0
C2502 C 0.59801 0.6154 0.9412 0.0
C2503 C 0.58986 0.6308 0.94456 0.0
C2504 C 0.59058 0.64299 0.95092 0.0
C2505 C 0.58909 0.60914 0.93053 0.0
C2506 C 0.57985 0.61323 0.92733 0.0
C2507 C 0.58049 0.62411 0.93431 0.0
C2508 C 0.56955 0.60646 0.91672 0.0
C2509 C 0.58993 0.59842 0.92264 0.0
C2510 C 0.56791 0.61385 0.90668 0.0
C2511 C 0.55827 0.60752 0.89667 0.0
C2512 C 0.5502 0.59363 0.89631 0.0
C2513 C 0.55172 0.58627 0.90655 0.0
C2514 C 0.56113 0.59265 0.91674 0.0
H2515 H 0.60003 0.59977 0.92321 0.0
H2516 H 0.58306 0.58862 0.92692 0.0
H2517 H 0.58728 0.59832 0.91194 0.0
H2518 H 0.57417 0.62454 0.90649 0.0
H2519 H 0.55721 0.6135 0.88908 0.0
H2520 H 0.02994 0.65459 0.98149 0.0
H2521 H 0.03391 0.64348 0.96256 0.0
H2522 H 0.99299 0.62565 0.95054 0.0
H2523 H 0.98891 0.63668 0.96934 0.0
H2524 H 0.0202 0.61513 0.95845 0.0
H2525 H 0.01356 0.64109 0.91556 0.0
H2526 H 0.01701 0.64797 0.93239 0.0
H2527 H 0.00058 0.63533 0.92763 0.0
C2528 C 0.02183 0.64847 0.9747 0.0
C2529 C 0.0091 0.64651 0.97694 0.0
C2530 C 0.02412 0.64211 0.96392 0.0
C2531 C 0.01377 0.63387 0.95511 0.0
C2532 C 0.00115 0.63215 0.95712 0.0
H2533 H 0.99679 0.57876 0.89014 0.0
H2534 H 0.99709 0.59357 0.90795 0.0
C2535 C 0.99883 0.63841 0.96792 0.0
C2536 C 0.01585 0.62627 0.94435 0.0
H2537 H 0.01314 0.62078 0.91057 0.0
C2538 C 0.01885 0.61645 0.94795 0.0
C2539 C 0.014 0.62803 0.93071 0.0
C2540 C 0.01122 0.63875 0.92629 0.0
C2541 C 0.01951 0.60794 0.93829 0.0
C2542 C 0.01738 0.6095 0.92466 0.0
C2543 C 0.01473 0.61957 0.92104 0.0
C2544 C 0.01732 0.60048 0.91404 0.0
C2545 C 0.02192 0.59699 0.94282 0.0
C2546 C 0.02864 0.59953 0.91151 0.0
C2547 C 0.02845 0.591 0.90142 0.0
C2548 C 0.01696 0.58331 0.89364 0.0
C2549 C 0.00572 0.58443 0.89609 0.0
C2550 C 0.0059 0.59292 0.9062 0.0
H2551 H 0.02019 0.59518 0.95371 0.0
H2552 H 0.01544 0.58759 0.93725 0.0
H2553 H 0.03234 0.59984 0.94086 0.0
H2554 H 0.03765 0.6055 0.91724 0.0
H2555 H 0.03731 0.59046 0.89959 0.0
H2556 H 0.3838 0.38164 0.96924 0.0
H2557 H 0.39223 0.39911 0.95268 0.0
H2558 H 0.35548 0.39949 0.95365 0.0
H2559 H 0.3473 0.38251 0.97083 0.0
H2560 H 0.38532 0.40031 0.92869 0.0
H2561 H 0.38032 0.43795 0.95853 0.0
H2562 H 0.3779 0.42276 0.96565 0.0
H2563 H 0.36477 0.42298 0.95633 0.0
C2564 C 0.37753 0.38547 0.96595 0.0
C2565 C 0.36493 0.38078 0.9714 0.0
C2566 C 0.38236 0.39548 0.95648 0.0
C2567 C 0.37462 0.40087 0.95209 0.0
C2568 C 0.36184 0.39586 0.95719 0.0
H2569 H 0.39175 0.4458 0.87874 0.0
H2570 H 0.38357 0.42853 0.89555 0.0
C2571 C 0.35711 0.38606 0.96692 0.0
C2572 C 0.37992 0.41153 0.94199 0.0
H2573 H 0.38484 0.44238 0.93537 0.0
C2574 C 0.3853 0.40955 0.93021 0.0
C2575 C 0.38014 0.42371 0.94403 0.0
C2576 C 0.37561 0.42704 0.95689 0.0
C2577 C 0.39077 0.41932 0.92042 0.0
C2578 C 0.39033 0.4312 0.92213 0.0
C2579 C 0.38507 0.43323 0.93395 0.0
C2580 C 0.3953 0.44168 0.91185 0.0
C2581 C 0.39729 0.41689 0.90855 0.0
C2582 C 0.40421 0.45496 0.91546 0.0
C2583 C 0.40856 0.46493 0.90594 0.0
C2584 C 0.40423 0.46179 0.89253 0.0
C2585 C 0.39535 0.44849 0.88896 0.0
C2586 C 0.39078 0.43859 0.89854 0.0
H2587 H 0.4008 0.40987 0.911 0.0
H2588 H 0.38999 0.41238 0.90022 0.0
H2589 H 0.40583 0.42625 0.90507 0.0
H2590 H 0.40779 0.45763 0.92569 0.0
H2591 H 0.41528 0.47506 0.90915 0.0
H2592 H 0.63533 0.01391 0.98037 0.0
H2593 H 0.6196 0.00914 0.96212 0.0
H2594 H 0.61877 0.97225 0.95364 0.0
H2595 H 0.63407 0.97668 0.97241 0.0
H2596 H 0.62047 0.00618 0.93653 0.0
H2597 H 0.58023 0.95902 0.9562 0.0
H2598 H 0.59485 0.96979 0.96592 0.0
H2599 H 0.59516 0.95856 0.95354 0.0
C2600 C 0.63181 0.00477 0.97463 0.0
C2601 C 0.63586 0.99562 0.97789 0.0
C2602 C 0.62281 0.00206 0.96418 0.0
C2603 C 0.61777 0.99021 0.95665 0.0
C2604 C 0.62218 0.98126 0.95957 0.0
H2605 H 0.57604 0.98036 0.88076 0.0
H2606 H 0.59261 0.98437 0.89799 0.0
C2607 C 0.63101 0.98385 0.97021 0.0
C2608 C 0.60797 0.98739 0.94575 0.0
H2609 H 0.57714 0.96463 0.93429 0.0
C2610 C 0.61097 0.9971 0.93607 0.0
C2611 C 0.59548 0.97565 0.94525 0.0
C2612 C 0.59116 0.96522 0.95586 0.0
C2613 C 0.60187 0.99545 0.92597 0.0
C2614 C 0.58958 0.98349 0.92517 0.0
C2615 C 0.58659 0.97376 0.93482 0.0
C2616 C 0.57954 0.98097 0.91463 0.0
C2617 C 0.60538 0.00676 0.91659 0.0
C2618 C 0.56652 0.97718 0.91818 0.0
C2619 C 0.55695 0.97452 0.90833 0.0
C2620 C 0.56026 0.97584 0.8947 0.0
C2621 C 0.57328 0.97953 0.89118 0.0
C2622 C 0.58277 0.98192 0.90103 0.0
H2623 H 0.61293 0.0164 0.9211 0.0
H2624 H 0.60959 0.0051 0.90732 0.0
H2625 H 0.59656 0.00751 0.91383 0.0
H2626 H 0.56375 0.97625 0.9286 0.0
H2627 H 0.54697 0.97144 0.91143 0.0
H2628 H 0.63157 0.98855 0.05016 0.0
H2629 H 0.61967 0.99133 0.06874 0.0
H2630 H 0.64219 0.03381 0.06473 0.0
H2631 H 0.65411 0.03114 0.04592 0.0
H2632 H 0.62879 0.00546 0.09331 0.0
H2633 H 0.6035 0.02518 0.06143 0.0
H2634 H 0.61199 0.01715 0.05443 0.0
H2635 H 0.62124 0.03382 0.06096 0.0
C2636 C 0.63408 0.99851 0.05324 0.0
C2637 C 0.64372 0.00962 0.04645 0.0
C2638 C 0.62728 1.00007 0.06389 0.0
C2639 C 0.62992 0.01275 0.06797 0.0
C2640 C 0.63986 0.02392 0.06157 0.0
H2641 H 0.58306 0.02804 0.12704 0.0
H2642 H 0.60074 0.03179 0.11143 0.0
C2643 C 0.64671 0.02237 0.05088 0.0
C2644 C 0.62188 0.01406 0.07865 0.0
H2645 H 0.59766 0.02182 0.08409 0.0
C2646 C 0.62209 0.00918 0.09135 0.0
C2647 C 0.61319 0.01896 0.07605 0.0
C2648 C 0.61233 0.024 0.06247 0.0
C2649 C 0.61354 0.00869 0.10142 0.0
C2650 C 0.60445 0.01303 0.09863 0.0
C2651 C 0.60465 0.01848 0.08615 0.0
C2652 C 0.59392 0.01093 0.10811 0.0
C2653 C 0.61416 0.00334 0.11489 0.0
C2654 C 0.58419 0.99798 0.11122 0.0
C2655 C 0.57406 0.99581 0.11996 0.0
C2656 C 0.57335 0.00656 0.12564 0.0
C2657 C 0.58318 0.01956 0.12258 0.0
C2658 C 0.59331 0.02172 0.11375 0.0
H2659 H 0.62387 0.00401 0.11667 0.0
H2660 H 0.61237 0.00879 0.12308 0.0
H2661 H 0.6064 0.99273 0.1153 0.0
H2662 H 0.58441 0.98952 0.10684 0.0
H2663 H 0.56675 0.98571 0.12232 0.0
H2664 H 0.01205 0.64206 0.04842 0.0
H2665 H 0.00723 0.62583 0.06585 0.0
H2666 H 0.96556 0.61145 0.06092 0.0
H2667 H 0.97024 0.62767 0.04335 0.0
H2668 H 0.97687 0.61641 0.08915 0.0
H2669 H 0.9887 0.58449 0.05683 0.0
H2670 H 0.00063 0.60193 0.05714 0.0
H2671 H 0.9845 0.59627 0.05009 0.0
C2672 C 0.00185 0.63553 0.05108 0.0
C2673 C 0.99152 0.63612 0.04442 0.0
C2674 C 0.99913 0.62623 0.06101 0.0
C2675 C 0.98605 0.61738 0.06452 0.0
C2676 C 0.97572 0.61819 0.05827 0.0
H2677 H 0.95921 0.54632 0.11201 0.0
H2678 H 0.96154 0.56215 0.09481 0.0
C2679 C 0.97842 0.62745 0.04824 0.0
C2680 C 0.98324 0.6071 0.07452 0.0
H2681 H 0.98522 0.57922 0.07981 0.0
C2682 C 0.97861 0.60822 0.08712 0.0
C2683 C 0.98542 0.5964 0.07174 0.0
C2684 C 0.98999 0.59457 0.05819 0.0
C2685 C 0.97645 0.59908 0.09718 0.0
C2686 C 0.97906 0.58863 0.09453 0.0
C2687 C 0.98332 0.5873 0.08181 0.0
C2688 C 0.97766 0.5791 0.10493 0.0
C2689 C 0.97139 0.60063 0.11055 0.0
C2690 C 0.98605 0.58341 0.11619 0.0
C2691 C 0.98485 0.57438 0.12593 0.0
C2692 C 0.9753 0.56088 0.12451 0.0
C2693 C 0.96684 0.55662 0.11323 0.0
C2694 C 0.96811 0.56564 0.10345 0.0
H2695 H 0.96705 0.60721 0.10999 0.0
H2696 H 0.96381 0.59083 0.11433 0.0
H2697 H 0.9797 0.60507 0.11789 0.0
H2698 H 0.99357 0.59374 0.11742 0.0
H2699 H 0.99135 0.57797 0.13462 0.0
H2700 H 0.38969 0.35542 0.02785 0.0
H2701 H 0.40483 0.36306 0.04716 0.0
H2702 H 0.38355 0.38082 0.06468 0.0
H2703 H 0.36834 0.37322 0.04553 0.0
H2704 H 0.42092 0.39001 0.05638 0.0
H2705 H 0.38579 0.35816 0.09497 0.0
H2706 H 0.3826 0.35465 0.07726 0.0
H2707 H 0.38009 0.36718 0.08515 0.0
C2708 C 0.38816 0.36086 0.03586 0.0
C2709 C 0.37778 0.36368 0.03515 0.0
C2710 C 0.39684 0.36523 0.04686 0.0
C2711 C 0.3952 0.37236 0.0574 0.0
C2712 C 0.38484 0.37514 0.05675 0.0
H2713 H 0.43474 0.41063 0.13148 0.0
H2714 H 0.42037 0.40187 0.11165 0.0
C2715 C 0.3762 0.37083 0.04575 0.0
C2716 C 0.4046 0.37735 0.06886 0.0
H2717 H 0.40648 0.37578 0.1028 0.0
C2718 C 0.41782 0.38683 0.06653 0.0
C2719 C 0.40047 0.37318 0.08206 0.0
C2720 C 0.38649 0.36265 0.08505 0.0
C2721 C 0.42698 0.39259 0.07713 0.0
C2722 C 0.42282 0.38855 0.09036 0.0
C2723 C 0.40963 0.3789 0.09265 0.0
C2724 C 0.43191 0.39431 0.10204 0.0
C2725 C 0.44091 0.40326 0.07412 0.0
C2726 C 0.44314 0.39293 0.10322 0.0
C2727 C 0.4514 0.39801 0.1145 0.0
C2728 C 0.44855 0.40451 0.12481 0.0
C2729 C 0.43727 0.40582 0.12361 0.0
C2730 C 0.42904 0.40078 0.11233 0.0
H2731 H 0.44159 0.40756 0.06411 0.0
H2732 H 0.44464 0.41138 0.08177 0.0
H2733 H 0.44747 0.3989 0.07423 0.0
H2734 H 0.44537 0.3877 0.09555 0.0
H2735 H 0.45991 0.39666 0.11528 0.0
H2736 H 0.66954 0.69477 0.39051 0.0
H2737 H 0.66207 0.70349 0.40883 0.0
H2738 H 0.63389 0.70523 0.38208 0.0
H2739 H 0.64074 0.69571 0.36404 0.0
H2740 H 0.66375 0.72585 0.41203 0.0
H2741 H 0.61052 0.68912 0.41264 0.0
H2742 H 0.622 0.68645 0.40297 0.0
H2743 H 0.61514 0.69611 0.39637 0.0
C2744 C 0.66159 0.69681 0.38864 0.0
C2745 C 0.65563 0.69446 0.37591 0.0
C2746 C 0.65734 0.70182 0.39909 0.0
C2747 C 0.64722 0.70482 0.39696 0.0
C2748 C 0.64135 0.70256 0.38418 0.0
H2749 H 0.63985 0.76313 0.44557 0.0
H2750 H 0.64522 0.75131 0.42876 0.0
C2751 C 0.64535 0.69721 0.37382 0.0
C2752 C 0.64346 0.71113 0.40783 0.0
H2753 H 0.61705 0.71013 0.42344 0.0
C2754 C 0.65353 0.72228 0.41463 0.0
C2755 C 0.63015 0.70641 0.41145 0.0
C2756 C 0.61887 0.69378 0.40557 0.0
C2757 C 0.65069 0.72897 0.4247 0.0
C2758 C 0.63734 0.72483 0.42764 0.0
C2759 C 0.62728 0.7135 0.42106 0.0
C2760 C 0.63359 0.73199 0.43757 0.0
C2761 C 0.66209 0.74021 0.43227 0.0
C2762 C 0.62464 0.72501 0.44774 0.0
C2763 C 0.6211 0.73168 0.45711 0.0
C2764 C 0.62661 0.74553 0.45669 0.0
C2765 C 0.63544 0.75248 0.44636 0.0
C2766 C 0.63869 0.74574 0.43679 0.0
H2767 H 0.67096 0.73903 0.43219 0.0
H2768 H 0.66479 0.74971 0.42736 0.0
H2769 H 0.65953 0.74083 0.44283 0.0
H2770 H 0.62045 0.71438 0.44853 0.0
H2771 H 0.61417 0.72603 0.46484 0.0
H2772 H 0.31129 0.94406 0.37655 0.0
H2773 H 0.30221 0.92706 0.39366 0.0
H2774 H 0.28171 0.94572 0.41106 0.0
H2775 H 0.29082 0.96285 0.39409 0.0
H2776 H 0.29477 0.93809 0.42992 0.0
H2777 H 0.26339 0.89701 0.39428 0.0
H2778 H 0.28058 0.90631 0.39011 0.0
H2779 H 0.27076 0.91425 0.38994 0.0
C2780 C 0.30489 0.9446 0.38404 0.0
C2781 C 0.30171 0.95478 0.38388 0.0
C2782 C 0.29966 0.93483 0.39376 0.0
C2783 C 0.29111 0.93502 0.40347 0.0
C2784 C 0.28822 0.94536 0.40359 0.0
H2785 H 0.24638 0.88572 0.4695 0.0
H2786 H 0.2569 0.9031 0.45286 0.0
C2787 C 0.29344 0.95513 0.39388 0.0
C2788 C 0.2851 0.9244 0.41346 0.0
H2789 H 0.26409 0.89116 0.41671 0.0
C2790 C 0.28805 0.92782 0.42706 0.0
C2791 C 0.27635 0.91104 0.40965 0.0
C2792 C 0.27246 0.90689 0.39522 0.0
C2793 C 0.28257 0.91818 0.43697 0.0
C2794 C 0.27374 0.90483 0.43318 0.0
C2795 C 0.27087 0.9014 0.41957 0.0
C2796 C 0.26727 0.89427 0.44317 0.0
C2797 C 0.28647 0.92234 0.4514 0.0
C2798 C 0.26936 0.88339 0.44302 0.0
C2799 C 0.26325 0.87339 0.45242 0.0
C2800 C 0.2548 0.874 0.46201 0.0
C2801 C 0.25271 0.88491 0.46211 0.0
C2802 C 0.25881 0.8949 0.45271 0.0
H2803 H 0.29584 0.93198 0.4523 0.0
H2804 H 0.27862 0.92349 0.45636 0.0
H2805 H 0.28767 0.91474 0.45685 0.0
H2806 H 0.27584 0.88272 0.43572 0.0
H2807 H 0.26518 0.86519 0.45223 0.0
H2808 H 0.05372 0.36478 0.37016 0.0
H2809 H 0.06953 0.37153 0.38876 0.0
H2810 H 0.05129 0.33096 0.40151 0.0
H2811 H 0.03555 0.32404 0.3828 0.0
H2812 H 0.06581 0.36888 0.41631 0.0
H2813 H 0.09004 0.34123 0.39742 0.0
H2814 H 0.07893 0.34406 0.38722 0.0
H2815 H 0.0725 0.33126 0.3995 0.0
C2816 C 0.05302 0.35727 0.37694 0.0
C2817 C 0.04343 0.34384 0.37491 0.0
C2818 C 0.06206 0.36116 0.38757 0.0
C2819 C 0.06173 0.35171 0.39636 0.0
C2820 C 0.0519 0.33837 0.39466 0.0
H2821 H 0.11174 0.35799 0.4641 0.0
H2822 H 0.09418 0.35027 0.44704 0.0
C2823 C 0.04286 0.33445 0.384 0.0
C2824 C 0.07179 0.35585 0.40719 0.0
H2825 H 0.09706 0.35175 0.41868 0.0
C2826 C 0.07266 0.36515 0.41684 0.0
C2827 C 0.0807 0.35097 0.40782 0.0
C2828 C 0.08062 0.34142 0.39739 0.0
C2829 C 0.08215 0.36961 0.42719 0.0
C2830 C 0.0911 0.36478 0.42777 0.0
C2831 C 0.09016 0.3554 0.4182 0.0
C2832 C 0.10167 0.3695 0.4381 0.0
C2833 C 0.08242 0.37933 0.43752 0.0
C2834 C 0.11175 0.38283 0.4386 0.0
C2835 C 0.12181 0.38724 0.44826 0.0
C2836 C 0.12207 0.37835 0.45747 0.0
C2837 C 0.11192 0.365 0.45697 0.0
C2838 C 0.10188 0.3606 0.44728 0.0
H2839 H 0.07298 0.37948 0.43763 0.0
H2840 H 0.08436 0.3769 0.44767 0.0
H2841 H 0.09047 0.38945 0.43515 0.0
H2842 H 0.11186 0.38982 0.43148 0.0
H2843 H 0.12941 0.3976 0.44854 0.0
H2844 H 0.02178 0.29851 0.31274 0.0
H2845 H 0.03143 0.29166 0.2948 0.0
H2846 H 0.05507 0.33237 0.28297 0.0
H2847 H 0.04543 0.33933 0.30076 0.0
H2848 H 0.04262 0.31404 0.26139 0.0
H2849 H 0.06959 0.29829 0.2957 0.0
H2850 H 0.05218 0.2909 0.29861 0.0
H2851 H 0.06278 0.30844 0.30124 0.0
C2852 C 0.02899 0.30601 0.30629 0.0
C2853 C 0.0329 0.31949 0.30825 0.0
C2854 C 0.03454 0.30208 0.2961 0.0
C2855 C 0.04412 0.31154 0.28772 0.0
C2856 C 0.04775 0.32493 0.28939 0.0
H2857 H 0.09208 0.31145 0.22161 0.0
H2858 H 0.08118 0.31735 0.23909 0.0
C2859 C 0.04223 0.32888 0.29958 0.0
C2860 C 0.05045 0.30755 0.27725 0.0
H2861 H 0.07049 0.29432 0.27258 0.0
C2862 C 0.04872 0.30973 0.26381 0.0
C2863 C 0.0584 0.30195 0.28048 0.0
C2864 C 0.06098 0.29983 0.29479 0.0
C2865 C 0.05462 0.30631 0.25347 0.0
C2866 C 0.06267 0.30081 0.2567 0.0
C2867 C 0.06433 0.29855 0.27014 0.0
C2868 C 0.0695 0.29734 0.24629 0.0
C2869 C 0.05198 0.30838 0.23917 0.0
C2870 C 0.06682 0.28421 0.24479 0.0
C2871 C 0.07315 0.28085 0.23494 0.0
C2872 C 0.08242 0.2906 0.22652 0.0
C2873 C 0.08513 0.30377 0.22808 0.0
C2874 C 0.07881 0.30712 0.23796 0.0
H2875 H 0.04294 0.30921 0.23824 0.0
H2876 H 0.06044 0.31773 0.23556 0.0
H2877 H 0.05085 0.30012 0.23256 0.0
H2878 H 0.05968 0.27652 0.25113 0.0
H2879 H 0.07072 0.2706 0.23382 0.0
H2880 H 0.70531 0.72052 0.32 0.0
H2881 H 0.71308 0.73763 0.30292 0.0
H2882 H 0.67417 0.71856 0.28492 0.0
H2883 H 0.66627 0.70152 0.30191 0.0
H2884 H 0.71247 0.73531 0.27421 0.0
H2885 H 0.68242 0.75692 0.29279 0.0
H2886 H 0.68553 0.74582 0.3026 0.0
H2887 H 0.67318 0.73935 0.28952 0.0
C2888 C 0.69842 0.71992 0.31236 0.0
C2889 C 0.68513 0.7097 0.31241 0.0
C2890 C 0.70288 0.72971 0.30262 0.0
C2891 C 0.69413 0.72947 0.29283 0.0
C2892 C 0.681 0.71905 0.29256 0.0
H2893 H 0.69667 0.77743 0.22663 0.0
H2894 H 0.69074 0.76071 0.24391 0.0
C2895 C 0.67654 0.70928 0.30226 0.0
C2896 C 0.6986 0.74019 0.28295 0.0
H2897 H 0.69286 0.76451 0.27187 0.0
C2898 C 0.70828 0.74178 0.27374 0.0
C2899 C 0.69309 0.74859 0.2824 0.0
C2900 C 0.68306 0.7477 0.29242 0.0
C2901 C 0.71233 0.75131 0.26369 0.0
C2902 C 0.70669 0.75959 0.26304 0.0
C2903 C 0.69713 0.75811 0.27237 0.0
C2904 C 0.71039 0.76974 0.25263 0.0
C2905 C 0.72231 0.75217 0.25363 0.0
C2906 C 0.72336 0.78042 0.25191 0.0
C2907 C 0.72674 0.78999 0.2421 0.0
C2908 C 0.71718 0.78916 0.23294 0.0
C2909 C 0.70419 0.77844 0.23369 0.0
C2910 C 0.70081 0.76888 0.24351 0.0
H2911 H 0.72326 0.74313 0.25355 0.0
H2912 H 0.71957 0.75362 0.2434 0.0
H2913 H 0.73212 0.7608 0.25625 0.0
H2914 H 0.73084 0.78138 0.25898 0.0
H2915 H 0.73685 0.79805 0.24164 0.0
H2916 H 0.29699 0.96212 0.30936 0.0
H2917 H 0.28109 0.95487 0.29086 0.0
H2918 H 0.26194 0.97437 0.30947 0.0
H2919 H 0.27779 0.98163 0.32817 0.0
H2920 H 0.24461 0.94779 0.30126 0.0
H2921 H 0.27829 0.97674 0.26044 0.0
H2922 H 0.28385 0.96741 0.26991 0.0
H2923 H 0.28268 0.98072 0.27792 0.0
C2924 C 0.28948 0.96499 0.3095 0.0
C2925 C 0.28868 0.97248 0.32026 0.0
C2926 C 0.28044 0.96089 0.29886 0.0
C2927 C 0.27046 0.96423 0.29872 0.0
C2928 C 0.26964 0.97177 0.30937 0.0
H2929 H 0.20351 0.94083 0.24419 0.0
H2930 H 0.21956 0.95055 0.26267 0.0
C2931 C 0.27872 0.97592 0.32003 0.0
C2932 C 0.26047 0.95923 0.28777 0.0
H2933 H 0.25692 0.95926 0.25386 0.0
C2934 C 0.24725 0.9504 0.2909 0.0
C2935 C 0.26399 0.96262 0.27428 0.0
C2936 C 0.27795 0.97249 0.27041 0.0
C2937 C 0.2375 0.94453 0.28085 0.0
C2938 C 0.24106 0.94778 0.26734 0.0
C2939 C 0.25424 0.95676 0.26423 0.0
C2940 C 0.23127 0.94183 0.25627 0.0
C2941 C 0.22356 0.9346 0.28471 0.0
C2942 C 0.2327 0.93395 0.24641 0.0
C2943 C 0.22357 0.92841 0.23586 0.0
C2944 C 0.21281 0.93064 0.23499 0.0
C2945 C 0.21154 0.93872 0.24477 0.0
C2946 C 0.22067 0.94425 0.25532 0.0
H2947 H 0.22311 0.93092 0.295 0.0
H2948 H 0.21739 0.93939 0.28436 0.0
H2949 H 0.21919 0.92599 0.27762 0.0
H2950 H 0.24089 0.93207 0.2469 0.0
H2951 H 0.22493 0.92243 0.22832 0.0
H2952 H 0.70402 0.97677 0.32249 0.0
H2953 H 0.71284 0.96914 0.30437 0.0
H2954 H 0.67537 0.95203 0.28351 0.0
H2955 H 0.66647 0.95957 0.30148 0.0
H2956 H 0.70164 0.94155 0.2947 0.0
H2957 H 0.7034 0.97576 0.25552 0.0
H2958 H 0.7027 0.97893 0.27316 0.0
H2959 H 0.68802 0.96712 0.26423 0.0
C2960 C 0.69769 0.97147 0.31401 0.0
C2961 C 0.68455 0.96881 0.31343 0.0
C2962 C 0.70273 0.96709 0.30369 0.0
C2963 C 0.69478 0.96015 0.29258 0.0
C2964 C 0.68171 0.95753 0.29194 0.0
H2965 H 0.70102 0.92419 0.21918 0.0
H2966 H 0.69418 0.93248 0.2384 0.0
C2967 C 0.67663 0.96181 0.30225 0.0
C2968 C 0.69994 0.95526 0.28176 0.0
H2969 H 0.70648 0.95797 0.24837 0.0
C2970 C 0.70283 0.94519 0.28458 0.0
C2971 C 0.70141 0.96004 0.2686 0.0
C2972 C 0.69884 0.97114 0.26516 0.0
C2973 C 0.70675 0.93944 0.27445 0.0
C2974 C 0.70808 0.94412 0.26123 0.0
C2975 C 0.7054 0.95436 0.25849 0.0
C2976 C 0.71201 0.93841 0.25001 0.0
C2977 C 0.70899 0.92813 0.2779 0.0
C2978 C 0.7243 0.93898 0.25016 0.0
C2979 C 0.72817 0.93414 0.23924 0.0
C2980 C 0.71986 0.92873 0.22793 0.0
C2981 C 0.70756 0.92816 0.22782 0.0
C2982 C 0.70367 0.93294 0.23876 0.0
H2983 H 0.70426 0.9235 0.28748 0.0
H2984 H 0.70508 0.92036 0.26987 0.0
H2985 H 0.71976 0.93193 0.27899 0.0
H2986 H 0.73102 0.94344 0.2586 0.0
H2987 H 0.73778 0.93487 0.23949 0.0
H2988 H 0.05238 0.71933 0.30838 0.0
H2989 H 0.06061 0.73643 0.29144 0.0
H2990 H 0.02396 0.73699 0.29254 0.0
H2991 H 0.01596 0.72035 0.31008 0.0
H2992 H 0.05323 0.73698 0.2674 0.0
H2993 H 0.04905 0.77554 0.29647 0.0
H2994 H 0.04669 0.76051 0.30394 0.0
H2995 H 0.03345 0.76056 0.29466 0.0
C2996 C 0.04608 0.72313 0.30505 0.0
C2997 C 0.03355 0.71857 0.31062 0.0
C2998 C 0.0508 0.73291 0.29535 0.0
C2999 C 0.04304 0.73824 0.29086 0.0
C3000 C 0.03034 0.73339 0.29613 0.0
H3001 H 0.06031 0.78207 0.2166 0.0
H3002 H 0.05174 0.76505 0.23367 0.0
C3003 C 0.02572 0.72379 0.30607 0.0
C3004 C 0.04823 0.74864 0.28049 0.0
H3005 H 0.05352 0.77951 0.27327 0.0
C3006 C 0.05336 0.74632 0.26873 0.0
C3007 C 0.04863 0.76094 0.28229 0.0
C3008 C 0.04429 0.76461 0.29508 0.0
C3009 C 0.05883 0.75587 0.25873 0.0
C3010 C 0.05863 0.7679 0.26023 0.0
C3011 C 0.05356 0.77026 0.27202 0.0
C3012 C 0.06376 0.77825 0.24981 0.0
C3013 C 0.06509 0.75307 0.24688 0.0
C3014 C 0.07297 0.79148 0.25324 0.0
C3015 C 0.07757 0.80132 0.24356 0.0
C3016 C 0.0732 0.79808 0.23017 0.0
C3017 C 0.06397 0.78483 0.22678 0.0
C3018 C 0.05917 0.77506 0.23652 0.0
H3019 H 0.06838 0.74588 0.24939 0.0
H3020 H 0.05772 0.74861 0.23861 0.0
H3021 H 0.07375 0.76227 0.24327 0.0
H3022 H 0.0766 0.79423 0.26344 0.0
H3023 H 0.08452 0.81143 0.24663 0.0
H3024 H 0.29568 0.34033 0.30272 0.0
H3025 H 0.27954 0.33209 0.28435 0.0
H3026 H 0.26762 0.29182 0.29465 0.0
H3027 H 0.28375 0.29995 0.31315 0.0
H3028 H 0.27267 0.29855 0.26609 0.0
H3029 H 0.23841 0.31295 0.28938 0.0
H3030 H 0.25551 0.32571 0.28927 0.0
H3031 H 0.25054 0.31111 0.29896 0.0
C3032 C 0.28966 0.32972 0.3011 0.0
C3033 C 0.29098 0.3208 0.30945 0.0
C3034 C 0.2804 0.32504 0.29062 0.0
C3035 C 0.2723 0.31137 0.28828 0.0
C3036 C 0.27375 0.30242 0.29638 0.0
H3037 H 0.20387 0.27295 0.23442 0.0
H3038 H 0.21884 0.2792 0.25384 0.0
C3039 C 0.28296 0.30709 0.30693 0.0
C3040 C 0.2624 0.30649 0.27728 0.0
H3041 H 0.23435 0.30595 0.26656 0.0
C3042 C 0.26425 0.30008 0.2662 0.0
C3043 C 0.25137 0.30841 0.27756 0.0
C3044 C 0.24872 0.31482 0.28946 0.0
C3045 C 0.25552 0.29589 0.25518 0.0
C3046 C 0.24476 0.29824 0.25526 0.0
C3047 C 0.24269 0.30428 0.26651 0.0
C3048 C 0.23566 0.29467 0.24365 0.0
C3049 C 0.25786 0.28898 0.24351 0.0
C3050 C 0.24016 0.30143 0.2316 0.0
C3051 C 0.23161 0.29801 0.22058 0.0
C3052 C 0.21839 0.28781 0.22144 0.0
C3053 C 0.21392 0.28103 0.23355 0.0
C3054 C 0.22246 0.28454 0.24461 0.0
H3055 H 0.26483 0.28546 0.24615 0.0
H3056 H 0.24841 0.28038 0.23991 0.0
H3057 H 0.26212 0.29601 0.23515 0.0
H3058 H 0.2503 0.30934 0.23072 0.0
H3059 H 0.23536 0.30323 0.21131 0.0
H3060 H 0.31305 0.36902 0.36828 0.0
H3061 H 0.30459 0.37634 0.38695 0.0
H3062 H 0.28681 0.33721 0.40351 0.0
H3063 H 0.2952 0.32977 0.38494 0.0
H3064 H 0.277 0.36466 0.39425 0.0
H3065 H 0.30839 0.36277 0.43509 0.0
H3066 H 0.31257 0.36335 0.41764 0.0
H3067 H 0.30014 0.34809 0.42466 0.0
C3068 C 0.30743 0.36199 0.37595 0.0
C3069 C 0.30482 0.3488 0.37512 0.0
C3070 C 0.30259 0.36619 0.38658 0.0
C3071 C 0.2952 0.35735 0.39664 0.0
C3072 C 0.29266 0.34423 0.39592 0.0
H3073 H 0.2561 0.36036 0.46865 0.0
H3074 H 0.26512 0.35415 0.44962 0.0
C3075 C 0.29742 0.33999 0.38527 0.0
C3076 C 0.28971 0.36168 0.40766 0.0
H3077 H 0.29076 0.36612 0.44155 0.0
C3078 C 0.28005 0.36507 0.40459 0.0
C3079 C 0.2937 0.36215 0.42111 0.0
C3080 C 0.30435 0.35901 0.42488 0.0
C3081 C 0.27399 0.3686 0.4147 0.0
C3082 C 0.27795 0.36902 0.42819 0.0
C3083 C 0.28772 0.36575 0.43121 0.0
C3084 C 0.27199 0.37267 0.43936 0.0
C3085 C 0.26315 0.37144 0.41087 0.0
C3086 C 0.27288 0.38517 0.43993 0.0
C3087 C 0.26762 0.38868 0.45073 0.0
C3088 C 0.26147 0.37981 0.46122 0.0
C3089 C 0.26064 0.36734 0.46064 0.0
C3090 C 0.26584 0.3638 0.44981 0.0
H3091 H 0.25889 0.36721 0.40083 0.0
H3092 H 0.25509 0.36735 0.4183 0.0
H3093 H 0.26728 0.38233 0.41055 0.0
H3094 H 0.27787 0.39229 0.43214 0.0
H3095 H 0.26856 0.39843 0.45103 0.0
H3096 H 0.67154 0.96393 0.38844 0.0
H3097 H 0.66319 0.94812 0.4067 0.0
H3098 H 0.6253 0.9266 0.38673 0.0
H3099 H 0.63352 0.94231 0.36838 0.0
H3100 H 0.64042 0.94111 0.42329 0.0
H3101 H 0.63631 0.89823 0.39389 0.0
H3102 H 0.6461 0.91515 0.38848 0.0
H3103 H 0.62844 0.90662 0.38662 0.0
C3104 C 0.66142 0.95585 0.38792 0.0
C3105 C 0.65322 0.95435 0.3769 0.0
C3106 C 0.65668 0.94684 0.39837 0.0
C3107 C 0.64371 0.93611 0.39794 0.0
C3108 C 0.63541 0.9347 0.38711 0.0
H3109 H 0.59861 0.87015 0.45078 0.0
H3110 H 0.60646 0.88564 0.43215 0.0
C3111 C 0.64011 0.94374 0.37668 0.0
C3112 C 0.63885 0.92645 0.4089 0.0
H3113 H 0.62827 0.89406 0.41598 0.0
C3114 C 0.63779 0.93083 0.42173 0.0
C3115 C 0.63538 0.91305 0.40677 0.0
C3116 C 0.63668 0.90794 0.39323 0.0
C3117 C 0.63318 0.9221 0.4325 0.0
C3118 C 0.62986 0.90872 0.43042 0.0
C3119 C 0.63085 0.90433 0.41755 0.0
C3120 C 0.62534 0.89913 0.44148 0.0
C3121 C 0.63164 0.92723 0.44593 0.0
C3122 C 0.63347 0.90143 0.45274 0.0
C3123 C 0.62899 0.89264 0.46338 0.0
C3124 C 0.61638 0.88128 0.46286 0.0
C3125 C 0.6084 0.8788 0.4514 0.0
C3126 C 0.61286 0.88763 0.44078 0.0
H3127 H 0.63101 0.93641 0.44497 0.0
H3128 H 0.62266 0.91967 0.45106 0.0
H3129 H 0.64035 0.92964 0.45234 0.0
H3130 H 0.64325 0.91009 0.45335 0.0
H3131 H 0.63533 0.8948 0.47209 0.0
H3132 H 0.05828 0.6944 0.36769 0.0
H3133 H 0.07329 0.702 0.38705 0.0
H3134 H 0.05145 0.71906 0.40479 0.0
H3135 H 0.03634 0.71149 0.38549 0.0
H3136 H 0.08891 0.72936 0.3969 0.0
H3137 H 0.05374 0.69523 0.43435 0.0
H3138 H 0.05102 0.69213 0.41654 0.0
H3139 H 0.04801 0.70426 0.42456 0.0
C3140 C 0.05659 0.69969 0.37573 0.0
C3141 C 0.04607 0.70231 0.37505 0.0
C3142 C 0.06521 0.70405 0.38677 0.0
C3143 C 0.06339 0.71098 0.39737 0.0
C3144 C 0.0529 0.71357 0.39677 0.0
H3145 H 0.10342 0.74256 0.47366 0.0
H3146 H 0.08897 0.73645 0.45388 0.0
C3147 C 0.04431 0.70928 0.38571 0.0
C3148 C 0.07266 0.71574 0.40893 0.0
H3149 H 0.07467 0.71177 0.44244 0.0
C3150 C 0.08584 0.72551 0.40686 0.0
C3151 C 0.06856 0.71071 0.42188 0.0
C3152 C 0.05459 0.69993 0.42453 0.0
C3153 C 0.09503 0.73055 0.4175 0.0
C3154 C 0.09096 0.72545 0.43046 0.0
C3155 C 0.07776 0.71568 0.4325 0.0
C3156 C 0.10024 0.72996 0.44205 0.0
C3157 C 0.10892 0.74149 0.4148 0.0
C3158 C 0.11138 0.72835 0.44195 0.0
C3159 C 0.1197 0.73194 0.45319 0.0
C3160 C 0.11697 0.73711 0.46476 0.0
C3161 C 0.10584 0.73874 0.46482 0.0
C3162 C 0.09756 0.73521 0.45356 0.0
H3163 H 0.10939 0.74683 0.4055 0.0
H3164 H 0.11289 0.74878 0.42326 0.0
H3165 H 0.1154 0.73712 0.41351 0.0
H3166 H 0.11346 0.72401 0.43331 0.0
H3167 H 0.1281 0.73038 0.45296 0.0
H3168 H 0.337 0.04296 0.71682 0.0
H3169 H 0.32821 0.0511 0.73433 0.0
H3170 H 0.28935 0.02907 0.71638 0.0
H3171 H 0.29807 0.02093 0.69868 0.0
H3172 H 0.29766 0.0559 0.7221 0.0
H3173 H 0.30479 0.03152 0.7661 0.0
H3174 H 0.31935 0.04045 0.75623 0.0
H3175 H 0.30509 0.02618 0.74911 0.0
C3176 C 0.32655 0.03971 0.71664 0.0
C3177 C 0.31824 0.03128 0.70633 0.0
C3178 C 0.32154 0.04432 0.72672 0.0
C3179 C 0.30811 0.04054 0.72674 0.0
C3180 C 0.29974 0.03202 0.71657 0.0
H3181 H 0.26404 0.06686 0.77679 0.0
H3182 H 0.27043 0.05593 0.75965 0.0
C3183 C 0.30474 0.02737 0.70648 0.0
C3184 C 0.30303 0.04615 0.73695 0.0
H3185 H 0.30012 0.04893 0.77064 0.0
C3186 C 0.29805 0.05428 0.73271 0.0
C3187 C 0.30363 0.04404 0.75077 0.0
C3188 C 0.30839 0.03498 0.75585 0.0
C3189 C 0.29403 0.0607 0.74197 0.0
C3190 C 0.2948 0.05874 0.7558 0.0
C3191 C 0.29959 0.05045 0.76003 0.0
C3192 C 0.29089 0.06538 0.76608 0.0
C3193 C 0.28941 0.06988 0.73687 0.0
C3194 C 0.30021 0.07405 0.77556 0.0
C3195 C 0.29657 0.08025 0.78537 0.0
C3196 C 0.28356 0.07794 0.78583 0.0
C3197 C 0.2742 0.06906 0.77646 0.0
C3198 C 0.27784 0.06284 0.76667 0.0
H3199 H 0.29247 0.07281 0.72639 0.0
H3200 H 0.27847 0.06474 0.73715 0.0
H3201 H 0.29336 0.07899 0.74325 0.0
H3202 H 0.3103 0.07603 0.77536 0.0
H3203 H 0.30391 0.08681 0.79266 0.0
H3204 H 0.96933 0.29415 0.71979 0.0
H3205 H 0.96116 0.2775 0.73724 0.0
H3206 H 0.97194 0.25311 0.71369 0.0
H3207 H 0.98026 0.26978 0.69613 0.0
H3208 H 0.94433 0.24059 0.7235 0.0
H3209 H 0.98251 0.26659 0.7633 0.0
H3210 H 0.97629 0.27625 0.75546 0.0
H3211 H 0.98561 0.27071 0.74582 0.0
C3212 C 0.97012 0.28532 0.71836 0.0
C3213 C 0.97543 0.28328 0.70656 0.0
C3214 C 0.9655 0.27585 0.72837 0.0
C3215 C 0.96605 0.26416 0.72676 0.0
C3216 C 0.97152 0.26214 0.71511 0.0
H3217 H 0.94083 0.19982 0.78366 0.0
H3218 H 0.95242 0.21578 0.76591 0.0
C3219 C 0.97628 0.27168 0.70512 0.0
C3220 C 0.96011 0.25371 0.73689 0.0
H3221 H 0.96275 0.24722 0.76961 0.0
C3222 C 0.94842 0.24195 0.73354 0.0
C3223 C 0.9655 0.25558 0.74995 0.0
C3224 C 0.97823 0.26791 0.75389 0.0
C3225 C 0.94173 0.23215 0.74308 0.0
C3226 C 0.94692 0.2342 0.75623 0.0
C3227 C 0.95881 0.24577 0.7595 0.0
C3228 C 0.9399 0.22453 0.76681 0.0
C3229 C 0.92906 0.21975 0.73919 0.0
C3230 C 0.92915 0.22434 0.77319 0.0
C3231 C 0.92256 0.21532 0.78333 0.0
C3232 C 0.92651 0.20618 0.78709 0.0
C3233 C 0.93741 0.20654 0.78075 0.0
C3234 C 0.94405 0.21565 0.77068 0.0
H3235 H 0.9271 0.219 0.72823 0.0
H3236 H 0.92944 0.21083 0.74237 0.0
H3237 H 0.92069 0.21973 0.74441 0.0
H3238 H 0.92593 0.23125 0.77038 0.0
H3239 H 0.91443 0.21552 0.78826 0.0
H3240 H 0.71611 0.70021 0.69932 0.0
H3241 H 0.73331 0.70913 0.71676 0.0
H3242 H 0.71682 0.67028 0.73378 0.0
H3243 H 0.69971 0.66123 0.71635 0.0
H3244 H 0.73165 0.70909 0.74494 0.0
H3245 H 0.75539 0.6807 0.72702 0.0
H3246 H 0.74347 0.68249 0.71707 0.0
H3247 H 0.73806 0.67062 0.73026 0.0
C3248 C 0.71609 0.69357 0.70681 0.0
C3249 C 0.7066 0.67997 0.70635 0.0
C3250 C 0.72593 0.69869 0.71676 0.0
C3251 C 0.72648 0.69031 0.72638 0.0
C3252 C 0.71674 0.67685 0.72626 0.0
H3253 H 0.7774 0.69903 0.79334 0.0
H3254 H 0.75995 0.69129 0.77619 0.0
C3255 C 0.70692 0.67172 0.71632 0.0
C3256 C 0.73732 0.69557 0.73647 0.0
H3257 H 0.76298 0.69209 0.74791 0.0
C3258 C 0.73856 0.70545 0.74556 0.0
C3259 C 0.74632 0.6908 0.73721 0.0
C3260 C 0.74586 0.68066 0.7273 0.0
C3261 C 0.74839 0.71045 0.75561 0.0
C3262 C 0.75729 0.70556 0.75643 0.0
C3263 C 0.7561 0.69577 0.74727 0.0
C3264 C 0.76784 0.71037 0.7668 0.0
C3265 C 0.74897 0.72067 0.76547 0.0
C3266 C 0.77809 0.72362 0.7671 0.0
C3267 C 0.78811 0.72804 0.77683 0.0
C3268 C 0.78812 0.71924 0.78632 0.0
C3269 C 0.77778 0.70597 0.78601 0.0
C3270 C 0.76779 0.70156 0.77627 0.0
H3271 H 0.73969 0.72111 0.7654 0.0
H3272 H 0.75086 0.71852 0.77578 0.0
H3273 H 0.7572 0.7306 0.7628 0.0
H3274 H 0.77839 0.73053 0.75977 0.0
H3275 H 0.79585 0.73835 0.77695 0.0
H3276 H 0.69457 0.63538 0.65341 0.0
H3277 H 0.70584 0.63001 0.63593 0.0
H3278 H 0.70439 0.65878 0.61024 0.0
H3279 H 0.69385 0.66473 0.628 0.0
H3280 H 0.70037 0.62038 0.61197 0.0
H3281 H 0.74265 0.67143 0.6088 0.0
H3282 H 0.73035 0.66669 0.62157 0.0
H3283 H 0.72739 0.67093 0.60514 0.0
C3284 C 0.69662 0.64051 0.644 0.0
C3285 C 0.69349 0.65058 0.64211 0.0
C3286 C 0.70307 0.63745 0.63402 0.0
C3287 C 0.70633 0.64425 0.62187 0.0
C3288 C 0.70248 0.65376 0.61969 0.0
H3289 H 0.72937 0.61679 0.55086 0.0
H3290 H 0.71732 0.62084 0.56848 0.0
C3291 C 0.69633 0.65706 0.62979 0.0
C3292 C 0.71382 0.64145 0.61157 0.0
H3293 H 0.7407 0.65632 0.5914 0.0
C3294 C 0.70925 0.62823 0.60754 0.0
C3295 C 0.7256 0.65165 0.60599 0.0
C3296 C 0.73186 0.66594 0.61071 0.0
C3297 C 0.71598 0.62495 0.59798 0.0
C3298 C 0.72729 0.63522 0.59181 0.0
C3299 C 0.73195 0.64842 0.59597 0.0
C3300 C 0.73455 0.63259 0.58109 0.0
C3301 C 0.71105 0.61046 0.59494 0.0
C3302 C 0.74834 0.6383 0.58195 0.0
C3303 C 0.75532 0.63642 0.57163 0.0
C3304 C 0.74861 0.62855 0.56029 0.0
C3305 C 0.7348 0.6228 0.5595 0.0
C3306 C 0.72788 0.62497 0.56966 0.0
H3307 H 0.70558 0.60418 0.60353 0.0
H3308 H 0.70412 0.60722 0.58626 0.0
H3309 H 0.7193 0.60866 0.59252 0.0
H3310 H 0.75376 0.6443 0.5906 0.0
H3311 H 0.76596 0.64117 0.57259 0.0
H3312 H 0.32826 0.03693 0.63221 0.0
H3313 H 0.33529 0.05291 0.61416 0.0
H3314 H 0.37459 0.074 0.63125 0.0
H3315 H 0.36773 0.058 0.64928 0.0
H3316 H 0.34533 0.08023 0.61728 0.0
H3317 H 0.38127 0.06961 0.59176 0.0
H3318 H 0.36932 0.05834 0.60345 0.0
H3319 H 0.38408 0.07279 0.60945 0.0
C3320 C 0.33845 0.04488 0.63208 0.0
C3321 C 0.34744 0.04617 0.6422 0.0
C3322 C 0.34243 0.054 0.62175 0.0
C3323 C 0.35549 0.06454 0.62129 0.0
C3324 C 0.36453 0.06579 0.63128 0.0
H3325 H 0.39727 0.13298 0.57082 0.0
H3326 H 0.39061 0.11622 0.58818 0.0
C3327 C 0.36056 0.05667 0.64162 0.0
C3328 C 0.35943 0.07461 0.61077 0.0
H3329 H 0.38065 0.08876 0.58489 0.0
C3330 C 0.353 0.08205 0.61014 0.0
C3331 C 0.36948 0.07698 0.60154 0.0
C3332 C 0.37637 0.06894 0.60146 0.0
C3333 C 0.35649 0.09198 0.60063 0.0
C3334 C 0.36652 0.09435 0.59138 0.0
C3335 C 0.37297 0.08691 0.59201 0.0
C3336 C 0.37046 0.10449 0.58094 0.0
C3337 C 0.34961 0.10004 0.60076 0.0
C3338 C 0.36137 0.10334 0.57105 0.0
C3339 C 0.36513 0.11291 0.56119 0.0
C3340 C 0.37804 0.12383 0.56107 0.0
C3341 C 0.38719 0.12481 0.57084 0.0
C3342 C 0.38342 0.11523 0.5807 0.0
H3343 H 0.34467 0.09932 0.61044 0.0
H3344 H 0.3567 0.11066 0.59887 0.0
H3345 H 0.34194 0.09628 0.59273 0.0
H3346 H 0.3514 0.09495 0.57088 0.0
H3347 H 0.35797 0.11174 0.55359 0.0
H3348 H 0.96608 0.28808 0.63241 0.0
H3349 H 0.9496 0.28064 0.61436 0.0
H3350 H 0.93109 0.3004 0.63376 0.0
H3351 H 0.9476 0.30804 0.65178 0.0
H3352 H 0.92225 0.26474 0.61682 0.0
H3353 H 0.93545 0.31351 0.59529 0.0
H3354 H 0.94634 0.31132 0.60651 0.0
H3355 H 0.93262 0.31247 0.61299 0.0
C3356 C 0.95858 0.29095 0.6328 0.0
C3357 C 0.95818 0.29869 0.64354 0.0
C3358 C 0.94916 0.28668 0.62247 0.0
C3359 C 0.93924 0.29011 0.62264 0.0
C3360 C 0.93883 0.29786 0.63331 0.0
H3361 H 0.87109 0.27004 0.57175 0.0
H3362 H 0.88792 0.27838 0.58963 0.0
C3363 C 0.94824 0.30216 0.64364 0.0
C3364 C 0.92898 0.28508 0.61196 0.0
H3365 H 0.91563 0.29487 0.58724 0.0
C3366 C 0.92084 0.27131 0.6103 0.0
C3367 C 0.92713 0.29371 0.60353 0.0
C3368 C 0.93591 0.30857 0.60455 0.0
C3369 C 0.91077 0.26591 0.60053 0.0
C3370 C 0.90895 0.27453 0.59208 0.0
C3371 C 0.91705 0.2883 0.59376 0.0
C3372 C 0.89877 0.26942 0.58133 0.0
C3373 C 0.902 0.25105 0.59951 0.0
C3374 C 0.89944 0.26181 0.57067 0.0
C3375 C 0.88985 0.25703 0.5605 0.0
C3376 C 0.87938 0.25972 0.56084 0.0
C3377 C 0.8789 0.2676 0.57139 0.0
C3378 C 0.88852 0.2724 0.58155 0.0
H3379 H 0.9025 0.2461 0.60874 0.0
H3380 H 0.89156 0.2483 0.59762 0.0
H3381 H 0.90525 0.24716 0.59103 0.0
H3382 H 0.90745 0.25968 0.57016 0.0
H3383 H 0.89063 0.25125 0.55233 0.0
H3384 H 0.36242 0.32243 0.6413 0.0
H3385 H 0.36944 0.31399 0.62238 0.0
H3386 H 0.33322 0.27642 0.62442 0.0
H3387 H 0.32586 0.28507 0.64286 0.0
H3388 H 0.37493 0.29528 0.62108 0.0
H3389 H 0.33368 0.28191 0.58546 0.0
H3390 H 0.33575 0.29141 0.60058 0.0
H3391 H 0.32781 0.27357 0.60098 0.0
C3392 C 0.35589 0.31243 0.63758 0.0
C3393 C 0.34356 0.30443 0.64349 0.0
C3394 C 0.35991 0.3076 0.62678 0.0
C3395 C 0.35178 0.29462 0.62178 0.0
C3396 C 0.3395 0.28659 0.62776 0.0
H3397 H 0.38368 0.25286 0.57612 0.0
H3398 H 0.37506 0.26125 0.59352 0.0
C3399 C 0.33534 0.29152 0.63838 0.0
C3400 C 0.35649 0.28931 0.61081 0.0
H3401 H 0.34771 0.27289 0.58062 0.0
C3402 C 0.36901 0.29049 0.61218 0.0
C3403 C 0.34889 0.28322 0.59908 0.0
C3404 C 0.33586 0.28258 0.59636 0.0
C3405 C 0.37407 0.28566 0.60226 0.0
C3406 C 0.36616 0.27891 0.59088 0.0
C3407 C 0.35371 0.27787 0.58943 0.0
C3408 C 0.37073 0.27316 0.58021 0.0
C3409 C 0.38801 0.28822 0.60396 0.0
C3410 C 0.37053 0.27646 0.56679 0.0
C3411 C 0.37503 0.2713 0.55672 0.0
C3412 C 0.37997 0.26282 0.55985 0.0
C3413 C 0.37998 0.25936 0.57329 0.0
C3414 C 0.3752 0.2643 0.58331 0.0
H3415 H 0.394 0.29699 0.6106 0.0
H3416 H 0.38774 0.27951 0.60867 0.0
H3417 H 0.39305 0.28992 0.5942 0.0
H3418 H 0.36706 0.2832 0.5641 0.0
H3419 H 0.37489 0.27412 0.54647 0.0
H3420 H 0.72078 0.05114 0.63321 0.0
H3421 H 0.72915 0.06822 0.61621 0.0
H3422 H 0.69253 0.06885 0.61699 0.0
H3423 H 0.68443 0.05231 0.6346 0.0
H3424 H 0.72219 0.06901 0.59218 0.0
H3425 H 0.71746 0.10732 0.62097 0.0
H3426 H 0.71505 0.0923 0.62849 0.0
H3427 H 0.70184 0.09237 0.61916 0.0
C3428 C 0.71453 0.05496 0.62978 0.0
C3429 C 0.702 0.05048 0.6353 0.0
C3430 C 0.71933 0.06473 0.62006 0.0
C3431 C 0.71162 0.07009 0.61549 0.0
C3432 C 0.69888 0.06526 0.62067 0.0
H3433 H 0.72654 0.11229 0.54078 0.0
H3434 H 0.71932 0.09569 0.55821 0.0
C3435 C 0.6942 0.05571 0.63064 0.0
C3436 C 0.71685 0.0805 0.60514 0.0
H3437 H 0.72134 0.111 0.59758 0.0
C3438 C 0.7221 0.07824 0.59343 0.0
C3439 C 0.71701 0.09269 0.60683 0.0
C3440 C 0.71267 0.09638 0.6196 0.0
C3441 C 0.72732 0.08769 0.58332 0.0
C3442 C 0.72673 0.09953 0.58464 0.0
C3443 C 0.72166 0.10188 0.59644 0.0
C3444 C 0.73125 0.10959 0.57396 0.0
C3445 C 0.7337 0.08498 0.57151 0.0
C3446 C 0.73996 0.12305 0.57703 0.0
C3447 C 0.74374 0.13263 0.56715 0.0
C3448 C 0.73904 0.12892 0.5539 0.0
C3449 C 0.73041 0.11543 0.55085 0.0
C3450 C 0.7264 0.10591 0.56079 0.0
H3451 H 0.73749 0.07824 0.57422 0.0
H3452 H 0.72623 0.08001 0.5634 0.0
H3453 H 0.74202 0.09428 0.56762 0.0
H3454 H 0.74378 0.12618 0.58712 0.0
H3455 H 0.75029 0.14292 0.56996 0.0
H3456 H 0.93939 0.63432 0.65205 0.0
H3457 H 0.92451 0.62653 0.63252 0.0
H3458 H 0.94726 0.66483 0.61457 0.0
H3459 H 0.96219 0.67271 0.63394 0.0
H3460 H 0.90934 0.63787 0.62218 0.0
H3461 H 0.94483 0.63822 0.5852 0.0
H3462 H 0.94746 0.63846 0.60304 0.0
H3463 H 0.95076 0.65338 0.59473 0.0
C3464 C 0.94128 0.64107 0.64391 0.0
C3465 C 0.95202 0.65413 0.64455 0.0
C3466 C 0.93275 0.6366 0.63279 0.0
C3467 C 0.93489 0.64506 0.62206 0.0
C3468 C 0.94557 0.65809 0.62266 0.0
H3469 H 0.89789 0.6411 0.54594 0.0
H3470 H 0.91155 0.64763 0.56633 0.0
C3471 C 0.95406 0.66258 0.63378 0.0
C3472 C 0.92578 0.64044 0.61036 0.0
H3473 H 0.92459 0.63535 0.57656 0.0
C3474 C 0.91261 0.63721 0.61221 0.0
C3475 C 0.93013 0.63963 0.59739 0.0
C3476 C 0.94403 0.64249 0.59493 0.0
C3477 C 0.90375 0.63356 0.60133 0.0
C3478 C 0.90814 0.63288 0.58833 0.0
C3479 C 0.92127 0.63594 0.58653 0.0
C3480 C 0.89935 0.62914 0.57639 0.0
C3481 C 0.88989 0.63084 0.60381 0.0
C3482 C 0.88796 0.61658 0.57529 0.0
C3483 C 0.8801 0.61288 0.56369 0.0
C3484 C 0.88352 0.62165 0.55296 0.0
C3485 C 0.89492 0.63422 0.55411 0.0
C3486 C 0.90274 0.63793 0.56572 0.0
H3487 H 0.88914 0.63509 0.61357 0.0
H3488 H 0.88654 0.63499 0.59575 0.0
H3489 H 0.88308 0.61996 0.60396 0.0
H3490 H 0.88532 0.60952 0.58326 0.0
H3491 H 0.8715 0.60305 0.56296 0.0
H3492 H 0.9561 0.66703 0.72013 0.0
H3493 H 0.94815 0.67602 0.73763 0.0
H3494 H 0.96692 0.71401 0.71852 0.0
H3495 H 0.97518 0.70517 0.70103 0.0
H3496 H 0.97081 0.71607 0.74591 0.0
H3497 H 0.91777 0.68331 0.7335 0.0
H3498 H 0.92625 0.67429 0.73652 0.0
H3499 H 0.93074 0.68514 0.72246 0.0
C3500 C 0.95857 0.67731 0.71962 0.0
C3501 C 0.9662 0.68535 0.7091 0.0
C3502 C 0.95393 0.6824 0.7296 0.0
C3503 C 0.95667 0.69558 0.7292 0.0
C3504 C 0.96458 0.70377 0.71894 0.0
H3505 H 0.93459 0.74098 0.78346 0.0
H3506 H 0.94259 0.73384 0.76416 0.0
C3507 C 0.9693 0.6987 0.70896 0.0
C3508 C 0.95138 0.70081 0.73962 0.0
H3509 H 0.92275 0.69513 0.7544 0.0
C3510 C 0.9603 0.7116 0.74769 0.0
C3511 C 0.93765 0.69498 0.74186 0.0
C3512 C 0.92754 0.68388 0.73304 0.0
C3513 C 0.95588 0.7164 0.75827 0.0
C3514 C 0.94219 0.71032 0.76072 0.0
C3515 C 0.93325 0.69972 0.7525 0.0
C3516 C 0.93697 0.71454 0.77207 0.0
C3517 C 0.96589 0.72764 0.76702 0.0
C3518 C 0.9309 0.70592 0.78272 0.0
C3519 C 0.92632 0.70996 0.7937 0.0
C3520 C 0.9276 0.72263 0.79415 0.0
C3521 C 0.93344 0.73114 0.78333 0.0
C3522 C 0.93807 0.72712 0.77237 0.0
H3523 H 0.9761 0.72959 0.76533 0.0
H3524 H 0.96562 0.73682 0.76476 0.0
H3525 H 0.96351 0.72545 0.77775 0.0
H3526 H 0.92993 0.69616 0.78264 0.0
H3527 H 0.92195 0.70324 0.80193 0.0
H3528 H 0.33791 0.2911 0.70994 0.0
H3529 H 0.33033 0.27472 0.72762 0.0
H3530 H 0.2944 0.27648 0.73071 0.0
H3531 H 0.30163 0.29232 0.71249 0.0
H3532 H 0.32497 0.27498 0.75248 0.0
H3533 H 0.27894 0.23759 0.72694 0.0
H3534 H 0.29128 0.25211 0.7186 0.0
H3535 H 0.2793 0.25308 0.72915 0.0
C3536 C 0.32838 0.28798 0.71438 0.0
C3537 C 0.3203 0.29289 0.70975 0.0
C3538 C 0.32405 0.27861 0.7245 0.0
C3539 C 0.31164 0.27408 0.73031 0.0
C3540 C 0.3038 0.27942 0.72607 0.0
H3541 H 0.28954 0.23305 0.80612 0.0
H3542 H 0.2979 0.24948 0.78848 0.0
C3543 C 0.30799 0.28857 0.71574 0.0
C3544 C 0.30702 0.2639 0.74088 0.0
H3545 H 0.28105 0.23415 0.75005 0.0
C3546 C 0.3154 0.266 0.75189 0.0
C3547 C 0.29464 0.25203 0.74002 0.0
C3548 C 0.2856 0.24849 0.72797 0.0
C3549 C 0.31171 0.2567 0.76211 0.0
C3550 C 0.29903 0.2452 0.76163 0.0
C3551 C 0.29072 0.24302 0.75054 0.0
C3552 C 0.29414 0.23526 0.77244 0.0
C3553 C 0.32163 0.25917 0.77309 0.0
C3554 C 0.28875 0.2217 0.76932 0.0
C3555 C 0.28355 0.21224 0.77935 0.0
C3556 C 0.28383 0.21616 0.79279 0.0
C3557 C 0.28932 0.22975 0.79589 0.0
C3558 C 0.29423 0.23916 0.78582 0.0
H3559 H 0.33192 0.26557 0.76963 0.0
H3560 H 0.32004 0.26442 0.7816 0.0
H3561 H 0.32065 0.24975 0.77672 0.0
H3562 H 0.28848 0.21841 0.75907 0.0
H3563 H 0.27928 0.20188 0.7765 0.0
H3564 H 0.72661 0.0253 0.69215 0.0
H3565 H 0.74177 0.03254 0.71144 0.0
H3566 H 0.72143 0.05127 0.72905 0.0
H3567 H 0.70623 0.04409 0.70989 0.0
H3568 H 0.75844 0.05967 0.72099 0.0
H3569 H 0.72267 0.02749 0.75902 0.0
H3570 H 0.71969 0.02421 0.74125 0.0
H3571 H 0.71734 0.03682 0.74919 0.0
C3572 C 0.7253 0.03088 0.70016 0.0
C3573 C 0.71518 0.03408 0.69948 0.0
C3574 C 0.73399 0.03503 0.71115 0.0
C3575 C 0.73261 0.04231 0.72171 0.0
C3576 C 0.72252 0.04549 0.72109 0.0
H3577 H 0.7719 0.07783 0.79681 0.0
H3578 H 0.75771 0.07004 0.7768 0.0
C3579 C 0.71389 0.04142 0.71009 0.0
C3580 C 0.74194 0.04693 0.73324 0.0
H3581 H 0.74354 0.04447 0.76709 0.0
C3582 C 0.75524 0.0563 0.73107 0.0
C3583 C 0.73768 0.04251 0.74634 0.0
C3584 C 0.72359 0.03212 0.74914 0.0
C3585 C 0.76435 0.06167 0.74176 0.0
C3586 C 0.76007 0.05733 0.7549 0.0
C3587 C 0.74679 0.04782 0.75701 0.0
C3588 C 0.76912 0.06262 0.76666 0.0
C3589 C 0.77837 0.07223 0.73893 0.0
C3590 C 0.78024 0.06103 0.76761 0.0
C3591 C 0.78842 0.06558 0.77898 0.0
C3592 C 0.78558 0.07173 0.78965 0.0
C3593 C 0.77442 0.07328 0.78868 0.0
C3594 C 0.76629 0.06878 0.77729 0.0
H3595 H 0.77915 0.0769 0.7291 0.0
H3596 H 0.78224 0.08011 0.74685 0.0
H3597 H 0.78474 0.06767 0.7387 0.0
H3598 H 0.78245 0.05601 0.75968 0.0
H3599 H 0.79684 0.06407 0.77957 0.0
H3600 H 0.05284 0.3523 0.02997 0.0
H3601 H 0.06331 0.34267 0.04345 0.0
H3602 H 0.03257 0.30338 0.03184 0.0
H3603 H 0.02189 0.31291 0.01835 0.0
H3604 H 0.0469 0.32291 0.06501 0.0
H3605 H 0.06995 0.30464 0.02799 0.0
H3606 H 0.06724 0.31831 0.0245 0.0
H3607 H 0.05353 0.30169 0.02457 0.0
C3608 C 0.04842 0.34161 0.03004 0.0
C3609 C 0.03648 0.33337 0.02312 0.0
C3610 C 0.05443 0.33614 0.03777 0.0
C3611 C 0.04872 0.32234 0.03859 0.0
C3612 C 0.03717 0.31406 0.03121 0.0
H3613 H 0.07195 0.2675 0.08407 0.0
H3614 H 0.0602 0.2784 0.06646 0.0
C3615 C 0.03108 0.31953 0.02353 0.0
C3616 C 0.05412 0.3167 0.04824 0.0
H3617 H 0.07129 0.30017 0.05072 0.0
C3618 C 0.0523 0.31798 0.06192 0.0
C3619 C 0.06093 0.31012 0.04411 0.0
C3620 C 0.06314 0.3086 0.0295 0.0
C3621 C 0.05703 0.31276 0.07164 0.0
C3622 C 0.06422 0.30651 0.06755 0.0
C3623 C 0.0659 0.30508 0.05384 0.0
C3624 C 0.06986 0.30117 0.07723 0.0
C3625 C 0.05375 0.31355 0.08609 0.0
C3626 C 0.07941 0.31128 0.09144 0.0
C3627 C 0.08653 0.30506 0.10332 0.0
C3628 C 0.08567 0.2892 0.09813 0.0
C3629 C 0.07305 0.27716 0.08609 0.0
C3630 C 0.06635 0.28429 0.0748 0.0
H3631 H 0.04437 0.31376 0.08693 0.0
H3632 H 0.05278 0.30504 0.09186 0.0
H3633 H 0.06168 0.3229 0.0907 0.0
H3634 H 0.08114 0.32127 0.09273 0.0
H3635 H 0.09315 0.3114 0.11119 0.0
H3636 H 0.64239 0.68869 0.04541 0.0
H3637 H 0.653 0.70927 0.0587 0.0
H3638 H 0.69096 0.71827 0.04338 0.0
H3639 H 0.68044 0.69761 0.03002 0.0
H3640 H 0.67408 0.71509 0.07847 0.0
H3641 H 0.68896 0.75328 0.03924 0.0
H3642 H 0.67593 0.73631 0.03655 0.0
H3643 H 0.69288 0.74031 0.03642 0.0
C3644 C 0.65298 0.69511 0.0447 0.0
C3645 C 0.66058 0.6915 0.03666 0.0
C3646 C 0.65901 0.70686 0.05232 0.0
C3647 C 0.67272 0.7153 0.05195 0.0
C3648 C 0.68033 0.71194 0.04367 0.0
H3649 H 0.73091 0.79677 0.09225 0.0
H3650 H 0.7187 0.77259 0.07622 0.0
C3651 C 0.67431 0.70013 0.03608 0.0
C3652 C 0.6791 0.72711 0.06094 0.0
H3653 H 0.69588 0.76096 0.06142 0.0
C3654 C 0.67879 0.72514 0.07477 0.0
C3655 C 0.68539 0.74015 0.05604 0.0
C3656 C 0.68579 0.74274 0.04126 0.0
C3657 C 0.68473 0.73588 0.08387 0.0
C3658 C 0.69073 0.74896 0.07899 0.0
C3659 C 0.69117 0.75093 0.06514 0.0
C3660 C 0.69681 0.76074 0.08797 0.0
C3661 C 0.68492 0.73301 0.09852 0.0
C3662 C 0.68779 0.76162 0.10225 0.0
C3663 C 0.69488 0.776 0.1132 0.0
C3664 C 0.71035 0.79037 0.10695 0.0
C3665 C 0.72142 0.78849 0.09489 0.0
C3666 C 0.71346 0.77369 0.08458 0.0
H3667 H 0.68466 0.72342 0.09989 0.0
H3668 H 0.69383 0.74093 0.10376 0.0
H3669 H 0.67599 0.73217 0.10331 0.0
H3670 H 0.67793 0.7536 0.10413 0.0
H3671 H 0.68916 0.77711 0.12107 0.0
H3672 H 0.29871 0.98153 0.02143 0.0
H3673 H 0.27799 0.97004 0.0337 0.0
H3674 H 0.28 0.93402 0.03227 0.0
H3675 H 0.30084 0.94548 0.02026 0.0
H3676 H 0.25373 0.94776 0.02832 0.0
H3677 H 0.27798 0.93975 0.07223 0.0
H3678 H 0.28723 0.95068 0.05888 0.0
H3679 H 0.28019 0.93304 0.05682 0.0
C3680 C 0.29467 0.97112 0.02359 0.0
C3681 C 0.30149 0.96445 0.01999 0.0
C3682 C 0.28284 0.96458 0.03062 0.0
C3683 C 0.27763 0.95127 0.03418 0.0
C3684 C 0.28403 0.94439 0.02994 0.0
H3685 H 0.2092 0.8965 0.07997 0.0
H3686 H 0.22901 0.90694 0.06611 0.0
C3687 C 0.29589 0.95094 0.02298 0.0
C3688 C 0.26572 0.94472 0.04265 0.0
H3689 H 0.25464 0.92955 0.07265 0.0
C3690 C 0.25393 0.94381 0.03802 0.0
C3691 C 0.26602 0.93961 0.05535 0.0
C3692 C 0.27855 0.94091 0.0612 0.0
C3693 C 0.24238 0.93774 0.04565 0.0
C3694 C 0.24269 0.93261 0.0583 0.0
C3695 C 0.25445 0.93347 0.06292 0.0
C3696 C 0.23094 0.92642 0.06697 0.0
C3697 C 0.22988 0.9367 0.04005 0.0
C3698 C 0.22565 0.93399 0.07223 0.0
C3699 C 0.21444 0.9281 0.08023 0.0
C3700 C 0.2084 0.91456 0.08326 0.0
C3701 C 0.2138 0.90702 0.07804 0.0
C3702 C 0.22505 0.91294 0.07008 0.0
H3703 H 0.23047 0.9383 0.02909 0.0
H3704 H 0.22121 0.92683 0.0421 0.0
H3705 H 0.22822 0.94437 0.04493 0.0
H3706 H 0.23015 0.94445 0.07008 0.0
H3707 H 0.21037 0.93409 0.08393 0.0
H3708 H 0.31498 0.01371 0.98427 0.0
H3709 H 0.30741 0.02713 0.97261 0.0
H3710 H 0.33927 0.06261 0.9909 0.0
H3711 H 0.34729 0.0493 0.0019 0.0
H3712 H 0.29887 0.04323 0.97873 0.0
H3713 H 0.3463 0.07231 0.95279 0.0
H3714 H 0.34277 0.05807 0.96261 0.0
H3715 H 0.34865 0.07409 0.97058 0.0
C3716 C 0.32028 0.02437 0.98589 0.0
C3717 C 0.33181 0.0305 0.99385 0.0
C3718 C 0.31597 0.03204 0.9792 0.0
C3719 C 0.32301 0.04595 0.98051 0.0
C3720 C 0.33397 0.05196 0.98928 0.0
H3721 H 0.29433 0.09862 0.95647 0.0
H3722 H 0.29887 0.08291 0.96798 0.0
C3723 C 0.33847 0.04434 0.99569 0.0
C3724 C 0.31913 0.05416 0.97249 0.0
H3725 H 0.33141 0.0807 0.9518 0.0
C3726 C 0.30596 0.05136 0.97275 0.0
C3727 C 0.32827 0.06456 0.96436 0.0
C3728 C 0.34223 0.06733 0.96244 0.0
C3729 C 0.30178 0.05885 0.96543 0.0
C3730 C 0.31114 0.06983 0.95805 0.0
C3731 C 0.32423 0.07242 0.95756 0.0
C3732 C 0.30773 0.07888 0.95088 0.0
C3733 C 0.2873 0.05469 0.96546 0.0
C3734 C 0.31158 0.08226 0.93754 0.0
C3735 C 0.30942 0.09161 0.9311 0.0
C3736 C 0.30307 0.09759 0.93776 0.0
C3737 C 0.29905 0.09403 0.95103 0.0
C3738 C 0.30151 0.08493 0.95757 0.0
H3739 H 0.28107 0.04389 0.96727 0.0
H3740 H 0.28545 0.06005 0.97366 0.0
H3741 H 0.28412 0.05694 0.95584 0.0
H3742 H 0.31649 0.07782 0.93216 0.0
H3743 H 0.31286 0.09423 0.92096 0.0
H3744 H 0.95444 0.30199 0.98236 0.0
H3745 H 0.94401 0.28172 0.96859 0.0
H3746 H 0.97537 0.274 0.97891 0.0
H3747 H 0.98601 0.2944 0.99269 0.0
H3748 H 0.9601 0.27817 0.94634 0.0
H3749 H 0.93824 0.23765 0.98342 0.0
H3750 H 0.94087 0.25406 0.9871 0.0
H3751 H 0.95467 0.25136 0.98651 0.0
C3752 C 0.95903 0.29588 0.98192 0.0
C3753 C 0.9711 0.29985 0.98859 0.0
C3754 C 0.95304 0.28431 0.97403 0.0
C3755 C 0.95891 0.27639 0.97279 0.0
C3756 C 0.97065 0.27996 0.97986 0.0
H3757 H 0.93468 0.19715 0.92684 0.0
H3758 H 0.9469 0.22029 0.94437 0.0
C3759 C 0.97671 0.29161 0.98771 0.0
C3760 C 0.95338 0.26512 0.96311 0.0
H3761 H 0.93628 0.23132 0.96063 0.0
C3762 C 0.95484 0.26791 0.94943 0.0
C3763 C 0.94674 0.25181 0.96724 0.0
C3764 C 0.94493 0.24842 0.98186 0.0
C3765 C 0.94988 0.2577 0.93969 0.0
C3766 C 0.94286 0.24435 0.94379 0.0
C3767 C 0.94155 0.24156 0.9575 0.0
C3768 C 0.93697 0.23311 0.93411 0.0
C3769 C 0.95277 0.26145 0.9252 0.0
C3770 C 0.92706 0.23328 0.92024 0.0
C3771 C 0.91963 0.2196 0.90841 0.0
C3772 C 0.92061 0.20473 0.91336 0.0
C3773 C 0.93354 0.20566 0.92497 0.0
C3774 C 0.94053 0.2198 0.93623 0.0
H3775 H 0.96211 0.27105 0.9242 0.0
H3776 H 0.95361 0.25379 0.91924 0.0
H3777 H 0.94471 0.26273 0.92091 0.0
H3778 H 0.9253 0.24149 0.91914 0.0
H3779 H 0.9128 0.21909 0.90077 0.0
H3780 H 0.69453 0.68088 0.99179 0.0
H3781 H 0.7151 0.6893 0.97925 0.0
H3782 H 0.7151 0.65275 0.98609 0.0
H3783 H 0.69421 0.64406 0.9979 0.0
H3784 H 0.73921 0.69459 0.98385 0.0
H3785 H 0.71718 0.65357 0.94653 0.0
H3786 H 0.70738 0.656 0.9589 0.0
H3787 H 0.71599 0.64723 0.963 0.0
C3788 C 0.699 0.67471 0.99068 0.0
C3789 C 0.69272 0.66177 0.99564 0.0
C3790 C 0.71073 0.6795 0.9835 0.0
C3791 C 0.71644 0.67149 0.98133 0.0
C3792 C 0.71062 0.65892 0.98714 0.0
H3793 H 0.79615 0.69671 0.95649 0.0
H3794 H 0.77631 0.69243 0.96854 0.0
C3795 C 0.69876 0.65401 0.99401 0.0
C3796 C 0.72831 0.67611 0.97284 0.0
H3797 H 0.74079 0.66638 0.94706 0.0
C3798 C 0.73952 0.68849 0.97571 0.0
C3799 C 0.72863 0.66836 0.96194 0.0
C3800 C 0.71659 0.65564 0.95731 0.0
C3801 C 0.75116 0.69309 0.96831 0.0
C3802 C 0.7518 0.68484 0.95811 0.0
C3803 C 0.74044 0.67267 0.95498 0.0
C3804 C 0.76414 0.68836 0.95075 0.0
C3805 C 0.76252 0.70683 0.97139 0.0
C3806 C 0.7639 0.6871 0.93672 0.0
C3807 C 0.77512 0.68905 0.92985 0.0
C3808 C 0.78694 0.69261 0.93684 0.0
C3809 C 0.78724 0.69415 0.95084 0.0
C3810 C 0.77593 0.69186 0.95772 0.0
H3811 H 0.75893 0.71339 0.97545 0.0
H3812 H 0.76901 0.70622 0.97913 0.0
H3813 H 0.76846 0.71148 0.96237 0.0
H3814 H 0.75493 0.68432 0.93108 0.0
H3815 H 0.77442 0.68759 0.91909 0.0
H3816 H 0.95029 0.6524 0.99158 0.0
H3817 H 0.93976 0.66298 0.97972 0.0
H3818 H 0.97352 0.70145 0.98847 0.0
H3819 H 0.98422 0.69095 1.00024 0.0
H3820 H 0.93319 0.6826 0.98714 0.0
H3821 H 0.97093 0.69953 0.94727 0.0
H3822 H 0.96911 0.68744 0.95943 0.0
H3823 H 0.97739 0.70476 0.96396 0.0
C3824 C 0.95542 0.66312 0.99114 0.0
C3825 C 0.96816 0.67082 0.99673 0.0
C3826 C 0.94938 0.66915 0.98436 0.0
C3827 C 0.95597 0.68297 0.98302 0.0
C3828 C 0.96838 0.69074 0.9892 0.0
H3829 H 0.92254 0.72852 0.94822 0.0
H3830 H 0.93206 0.7192 0.9636 0.0
C3831 C 0.97444 0.68473 0.99597 0.0
C3832 C 0.95014 0.68912 0.97454 0.0
H3833 H 0.95483 0.70605 0.94558 0.0
C3834 C 0.93792 0.68778 0.97808 0.0
C3835 C 0.95627 0.69569 0.96262 0.0
C3836 C 0.96909 0.69687 0.95798 0.0
C3837 C 0.93168 0.69289 0.97002 0.0
C3838 C 0.93792 0.69963 0.95822 0.0
C3839 C 0.95012 0.70095 0.95468 0.0
C3840 C 0.9318 0.70505 0.94913 0.0
C3841 C 0.91832 0.69074 0.97401 0.0
C3842 C 0.92876 0.70038 0.93584 0.0
C3843 C 0.92339 0.70571 0.92705 0.0
C3844 C 0.9209 0.7158 0.93141 0.0
C3845 C 0.9241 0.72057 0.94469 0.0
C3846 C 0.92949 0.71523 0.95348 0.0
H3847 H 0.91356 0.68281 0.98153 0.0
H3848 H 0.91951 0.70006 0.97848 0.0
H3849 H 0.91164 0.68805 0.96516 0.0
H3850 H 0.9306 0.69262 0.93226 0.0
H3851 H 0.92126 0.70202 0.91681 0.0
H3852 H 0.35816 0.31287 0.97413 0.0
H3853 H 0.3461 0.29051 0.96432 0.0
H3854 H 0.30949 0.28628 0.97874 0.0
H3855 H 0.32149 0.30864 0.98871 0.0
H3856 H 0.31278 0.26438 0.98386 0.0
H3857 H 0.32228 0.27887 0.93066 0.0
H3858 H 0.33692 0.28571 0.94097 0.0
H3859 H 0.32474 0.29055 0.944 0.0
C3860 C 0.34754 0.3072 0.97521 0.0
C3861 C 0.34077 0.31256 0.98217 0.0
C3862 C 0.34066 0.29446 0.96952 0.0
C3863 C 0.32689 0.28684 0.97061 0.0
C3864 C 0.32011 0.29205 0.97771 0.0
H3865 H 0.27562 0.2122 0.9278 0.0
H3866 H 0.28627 0.23513 0.93648 0.0
C3867 C 0.32698 0.30482 0.9834 0.0
C3868 C 0.31963 0.27327 0.96466 0.0
H3869 H 0.31334 0.25589 0.93514 0.0
C3870 C 0.31283 0.26252 0.9732 0.0
C3871 C 0.31957 0.2709 0.95073 0.0
C3872 C 0.32616 0.28211 0.94102 0.0
C3873 C 0.30629 0.24941 0.96822 0.0
C3874 C 0.30672 0.24702 0.95437 0.0
C3875 C 0.31317 0.25777 0.94577 0.0
C3876 C 0.30065 0.23338 0.94867 0.0
C3877 C 0.29893 0.23823 0.97781 0.0
C3878 C 0.3054 0.22493 0.95245 0.0
C3879 C 0.29941 0.21192 0.94746 0.0
C3880 C 0.28865 0.20714 0.93847 0.0
C3881 C 0.28403 0.21569 0.93454 0.0
C3882 C 0.29006 0.22874 0.93953 0.0
H3883 H 0.29674 0.24178 0.98731 0.0
H3884 H 0.2895 0.23039 0.97327 0.0
H3885 H 0.30508 0.23371 0.98025 0.0
H3886 H 0.31368 0.22839 0.95937 0.0
H3887 H 0.30307 0.2055 0.95077 0.0
H3888 H 0.70322 0.01645 0.99989 0.0
H3889 H 0.72426 0.02611 0.98818 0.0
H3890 H 0.72249 0.06178 0.98176 0.0
H3891 H 0.70157 0.05229 0.99361 0.0
H3892 H 0.72737 0.03321 0.962 0.0
H3893 H 0.76063 0.07663 0.99398 0.0
H3894 H 0.74507 0.06335 0.99982 0.0
H3895 H 0.74549 0.0762 0.98969 0.0
C3896 C 0.70743 0.02645 0.99621 0.0
C3897 C 0.70071 0.0336 0.99767 0.0
C3898 C 0.71945 0.03195 0.98951 0.0
C3899 C 0.72501 0.04471 0.98421 0.0
C3900 C 0.71853 0.05203 0.98601 0.0
H3901 H 0.77556 0.07612 0.91616 0.0
H3902 H 0.75753 0.06702 0.93224 0.0
C3903 C 0.70652 0.04655 0.99273 0.0
C3904 C 0.7369 0.04987 0.97574 0.0
H3905 H 0.76787 0.07632 0.97164 0.0
C3906 C 0.73627 0.04257 0.96419 0.0
C3907 C 0.74855 0.06202 0.97867 0.0
C3908 C 0.75006 0.06995 0.99128 0.0
C3909 C 0.74683 0.04729 0.95525 0.0
C3910 C 0.75821 0.05974 0.95783 0.0
C3911 C 0.75904 0.06685 0.96961 0.0
C3912 C 0.76925 0.06563 0.94828 0.0
C3913 C 0.7457 0.03888 0.94314 0.0
C3914 C 0.78188 0.06816 0.95209 0.0
C3915 C 0.79222 0.07344 0.94295 0.0
C3916 C 0.79013 0.07646 0.9299 0.0
C3917 C 0.77748 0.07401 0.92618 0.0
C3918 C 0.76716 0.06873 0.93531 0.0
H3919 H 0.73812 0.0283 0.94449 0.0
H3920 H 0.74273 0.04252 0.93432 0.0
H3921 H 0.7553 0.0395 0.94095 0.0
H3922 H 0.78368 0.06584 0.96206 0.0
H3923 H 0.80183 0.07508 0.94603 0.0
H3924 H 0.65299 0.95139 0.02199 0.0
H3925 H 0.66256 0.93962 0.0334 0.0
H3926 H 0.69771 0.97692 0.04261 0.0
H3927 H 0.68845 0.98868 0.0307 0.0
H3928 H 0.7041 0.95879 0.03641 0.0
H3929 H 0.66362 0.9377 0.0732 0.0
H3930 H 0.65785 0.93281 0.0563 0.0
H3931 H 0.66538 0.95001 0.06137 0.0
C3932 C 0.66282 0.95706 0.02632 0.0
C3933 C 0.66992 0.97096 0.02556 0.0
C3934 C 0.66824 0.95033 0.03294 0.0
C3935 C 0.6807 0.95741 0.03922 0.0
C3936 C 0.68804 0.97125 0.03794 0.0
H3937 H 0.70873 0.9305 0.10516 0.0
H3938 H 0.69957 0.94054 0.09037 0.0
C3939 C 0.68273 0.97796 0.03112 0.0
C3940 C 0.68599 0.95051 0.04744 0.0
H3941 H 0.67912 0.93027 0.07422 0.0
C3942 C 0.69864 0.95255 0.04468 0.0
C3943 C 0.67897 0.94256 0.0584 0.0
C3944 C 0.66577 0.94074 0.0626 0.0
C3945 C 0.70448 0.94691 0.05257 0.0
C3946 C 0.69727 0.9386 0.06324 0.0
C3947 C 0.6846 0.93652 0.06596 0.0
C3948 C 0.70286 0.93243 0.0721 0.0
C3949 C 0.71849 0.95033 0.04965 0.0
C3950 C 0.70758 0.92434 0.06681 0.0
C3951 C 0.71308 0.91883 0.07524 0.0
C3952 C 0.71374 0.92108 0.08916 0.0
C3953 C 0.70856 0.92877 0.09447 0.0
C3954 C 0.70326 0.93445 0.08602 0.0
H3955 H 0.72381 0.95967 0.04398 0.0
H3956 H 0.72412 0.95145 0.05901 0.0
H3957 H 0.71833 0.94227 0.04345 0.0
H3958 H 0.70699 0.92226 0.05617 0.0
H3959 H 0.71682 0.9128 0.07088 0.0
H3960 H 0.05025 0.70592 0.02609 0.0
H3961 H 0.06062 0.7278 0.03707 0.0
H3962 H 0.02245 0.7248 0.04088 0.0
H3963 H 0.0121 0.70317 0.02943 0.0
H3964 H 0.04077 0.74944 0.03469 0.0
H3965 H 0.05921 0.73231 0.07677 0.0
H3966 H 0.06533 0.73068 0.06085 0.0
H3967 H 0.04793 0.72107 0.06419 0.0
C3968 C 0.04409 0.70999 0.02916 0.0
C3969 C 0.03035 0.70278 0.02703 0.0
C3970 C 0.05002 0.72245 0.03552 0.0
C3971 C 0.04227 0.72778 0.04013 0.0
C3972 C 0.02862 0.72085 0.03749 0.0
H3973 H 0.06344 0.78556 0.10419 0.0
H3974 H 0.05414 0.76581 0.08966 0.0
C3975 C 0.02271 0.70848 0.03095 0.0
C3976 C 0.04826 0.74035 0.04811 0.0
H3977 H 0.06609 0.75519 0.07659 0.0
C3978 C 0.04631 0.75071 0.04386 0.0
C3979 C 0.0553 0.74191 0.06019 0.0
C3980 C 0.05697 0.73086 0.06586 0.0
C3981 C 0.05118 0.76257 0.05136 0.0
C3982 C 0.05855 0.76427 0.06323 0.0
C3983 C 0.06053 0.75393 0.06744 0.0
C3984 C 0.06386 0.77644 0.07178 0.0
C3985 C 0.04799 0.77295 0.0467 0.0
C3986 C 0.07248 0.78899 0.06661 0.0
C3987 C 0.07759 0.80034 0.07485 0.0
C3988 C 0.07434 0.79931 0.08848 0.0
C3989 C 0.06592 0.78669 0.09368 0.0
C3990 C 0.06068 0.7754 0.08541 0.0
H3991 H 0.03925 0.76863 0.03985 0.0
H3992 H 0.04601 0.77784 0.05529 0.0
H3993 H 0.05652 0.78065 0.04115 0.0
H3994 H 0.07541 0.79001 0.05623 0.0
H3995 H 0.08422 0.8099 0.07061 0.0
H3996 H 0.31365 0.36079 0.02961 0.0
H3997 H 0.29223 0.35032 0.04056 0.0
H3998 H 0.28384 0.31213 0.02495 0.0
H3999 H 0.30533 0.32253 0.01387 0.0
H4000 H 0.26259 0.31784 0.02234 0.0
H4001 H 0.28316 0.32666 0.07402 0.0
H4002 H 0.29012 0.34117 0.06386 0.0
H4003 H 0.29271 0.32761 0.05948 0.0
C4004 C 0.30725 0.35017 0.02844 0.0
C4005 C 0.31122 0.34248 0.02091 0.0
C4006 C 0.29505 0.3442 0.03478 0.0
C4007 C 0.28658 0.33044 0.03375 0.0
C4008 C 0.29031 0.32276 0.02594 0.0
H4009 H 0.21623 0.28602 0.08254 0.0
H4010 H 0.23747 0.29379 0.07139 0.0
C4011 C 0.30257 0.32872 0.01962 0.0
C4012 C 0.27379 0.32416 0.04078 0.0
H4013 H 0.26029 0.31971 0.07183 0.0
C4014 C 0.26206 0.31814 0.03316 0.0
C4015 C 0.27316 0.32442 0.0549 0.0
C4016 C 0.28545 0.3302 0.06358 0.0
C4017 C 0.2497 0.3128 0.03929 0.0
C4018 C 0.24909 0.31364 0.05338 0.0
C4019 C 0.2608 0.31921 0.06102 0.0
C4020 C 0.23642 0.3091 0.06033 0.0
C4021 C 0.23737 0.30632 0.03065 0.0
C4022 C 0.22895 0.3153 0.05798 0.0
C4023 C 0.21692 0.31097 0.06439 0.0
C4024 C 0.21219 0.30045 0.0734 0.0
C4025 C 0.21975 0.2943 0.07583 0.0
C4026 C 0.23182 0.29868 0.06943 0.0
H4027 H 0.23928 0.30338 0.02064 0.0
H4028 H 0.22941 0.29739 0.0355 0.0
H4029 H 0.23379 0.31343 0.02916 0.0
H4030 H 0.23242 0.32349 0.05114 0.0
H4031 H 0.21123 0.31576 0.0622 0.0
H4032 H 0.68493 0.65245 0.3612 0.0
H4033 H 0.69691 0.64254 0.37162 0.0
H4034 H 0.73236 0.68088 0.37318 0.0
H4035 H 0.72035 0.6909 0.36329 0.0
H4036 H 0.71768 0.64051 0.3644 0.0
H4037 H 0.73056 0.67046 0.41131 0.0
H4038 H 0.71901 0.6703 0.39918 0.0
H4039 H 0.73653 0.68066 0.39687 0.0
C4040 C 0.69529 0.65875 0.36375 0.0
C4041 C 0.70166 0.67248 0.36156 0.0
C4042 C 0.70212 0.65309 0.36972 0.0
C4043 C 0.71546 0.66102 0.37353 0.0
C4044 C 0.72197 0.67462 0.37078 0.0
H4045 H 0.78159 0.64922 0.41166 0.0
H4046 H 0.76638 0.659 0.39786 0.0
C4047 C 0.71511 0.68032 0.36501 0.0
C4048 C 0.72261 0.65507 0.38021 0.0
H4049 H 0.74169 0.65821 0.40758 0.0
C4050 C 0.72281 0.6443 0.37391 0.0
C4051 C 0.72931 0.66 0.39265 0.0
C4052 C 0.72874 0.6709 0.40046 0.0
C4053 C 0.72977 0.63855 0.37952 0.0
C4054 C 0.73663 0.64367 0.39179 0.0
C4055 C 0.73645 0.65439 0.39812 0.0
C4056 C 0.74412 0.63812 0.39822 0.0
C4057 C 0.73001 0.62731 0.37207 0.0
C4058 C 0.73572 0.62078 0.40244 0.0
C4059 C 0.74446 0.61367 0.41053 0.0
C4060 C 0.76142 0.62597 0.41648 0.0
C4061 C 0.77132 0.64267 0.40902 0.0
C4062 C 0.76164 0.6488 0.401 0.0
H4063 H 0.72771 0.62721 0.36126 0.0
H4064 H 0.73978 0.62795 0.37308 0.0
H4065 H 0.72243 0.61775 0.37626 0.0
H4066 H 0.72528 0.61463 0.4003 0.0
H4067 H 0.73925 0.60366 0.41423 0.0
H4068 H 0.34544 0.0287 0.36715 0.0
H4069 H 0.3563 0.05033 0.37887 0.0
H4070 H 0.31862 0.04292 0.39357 0.0
H4071 H 0.30771 0.0214 0.38195 0.0
H4072 H 0.35015 0.07242 0.37702 0.0
H4073 H 0.34297 0.0506 0.42752 0.0
H4074 H 0.34214 0.0415 0.41241 0.0
H4075 H 0.32852 0.04377 0.41689 0.0
C4076 C 0.33947 0.03171 0.37281 0.0
C4077 C 0.32572 0.02329 0.37367 0.0
C4078 C 0.34568 0.04406 0.37948 0.0
C4079 C 0.33826 0.0481 0.3872 0.0
C4080 C 0.32453 0.03988 0.3878 0.0
H4081 H 0.35524 0.11478 0.44979 0.0
H4082 H 0.34395 0.09084 0.43333 0.0
C4083 C 0.31831 0.0276 0.3811 0.0
C4084 C 0.34482 0.06082 0.39485 0.0
H4085 H 0.35114 0.07368 0.42665 0.0
C4086 C 0.35048 0.07275 0.38787 0.0
C4087 C 0.34509 0.06115 0.40899 0.0
C4088 C 0.33945 0.0486 0.41695 0.0
C4089 C 0.35615 0.08507 0.3947 0.0
C4090 C 0.35645 0.0854 0.40887 0.0
C4091 C 0.35085 0.07344 0.4158 0.0
C4092 C 0.36251 0.09792 0.41681 0.0
C4093 C 0.3612 0.09747 0.3866 0.0
C4094 C 0.37917 0.1108 0.41321 0.0
C4095 C 0.3872 0.12579 0.42328 0.0
C4096 C 0.37621 0.12786 0.43531 0.0
C4097 C 0.36081 0.11359 0.4418 0.0
C4098 C 0.35364 0.09902 0.43111 0.0
H4099 H 0.3563 0.0953 0.3766 0.0
H4100 H 0.35955 0.10501 0.39178 0.0
H4101 H 0.37194 0.10174 0.38497 0.0
H4102 H 0.38452 0.10944 0.40514 0.0
H4103 H 0.39672 0.13398 0.42058 0.0
H4104 H 0.97384 0.28139 0.34923 0.0
H4105 H 0.95196 0.2689 0.35908 0.0
H4106 H 0.95594 0.30531 0.37538 0.0
H4107 H 0.97745 0.31789 0.36469 0.0
H4108 H 0.94578 0.26531 0.38333 0.0
H4109 H 0.91936 0.28937 0.3622 0.0
H4110 H 0.93521 0.29271 0.35611 0.0
H4111 H 0.93413 0.30116 0.3709 0.0
C4112 C 0.96989 0.28673 0.35467 0.0
C4113 C 0.97725 0.30059 0.35612 0.0
C4114 C 0.95741 0.27959 0.36036 0.0
C4115 C 0.95214 0.28612 0.36789 0.0
C4116 C 0.95951 0.30002 0.36928 0.0
H4117 H 0.89083 0.24033 0.42609 0.0
H4118 H 0.91163 0.25539 0.41543 0.0
C4119 C 0.97186 0.30722 0.36324 0.0
C4120 C 0.93941 0.27822 0.375 0.0
H4121 H 0.90936 0.27544 0.38091 0.0
C4122 C 0.93778 0.26748 0.38267 0.0
C4123 C 0.92887 0.28091 0.37412 0.0
C4124 C 0.92942 0.29157 0.36527 0.0
C4125 C 0.92597 0.25933 0.38936 0.0
C4126 C 0.91567 0.2624 0.389 0.0
C4127 C 0.91729 0.27316 0.38137 0.0
C4128 C 0.90291 0.25421 0.39593 0.0
C4129 C 0.92458 0.24725 0.39628 0.0
C4130 C 0.89092 0.24917 0.38881 0.0
C4131 C 0.87893 0.24096 0.39504 0.0
C4132 C 0.87861 0.23738 0.40847 0.0
C4133 C 0.89061 0.24274 0.4157 0.0
C4134 C 0.90259 0.25125 0.40956 0.0
H4135 H 0.93133 0.24405 0.39202 0.0
H4136 H 0.92721 0.24968 0.40703 0.0
H4137 H 0.91432 0.23878 0.39546 0.0
H4138 H 0.89084 0.25136 0.37833 0.0
H4139 H 0.86985 0.2371 0.38924 0.0
H4140 H 0.99731 0.3536 0.31452 0.0
H4141 H 0.99311 0.36884 0.30143 0.0
H4142 H 0.03038 0.40167 0.31509 0.0
H4143 H 0.03487 0.38646 0.32762 0.0
H4144 H 0.99069 0.39001 0.30639 0.0
H4145 H 0.03495 0.40535 0.27554 0.0
H4146 H 0.02909 0.39173 0.28692 0.0
H4147 H 0.03934 0.40856 0.29294 0.0
C4148 C 0.00453 0.36409 0.3148 0.0
C4149 C 0.01649 0.36884 0.32192 0.0
C4150 C 0.00214 0.37278 0.3073 0.0
C4151 C 0.01162 0.38635 0.30693 0.0
C4152 C 0.02315 0.39118 0.3148 0.0
H4153 H 0.0027 0.45204 0.28201 0.0
H4154 H 0.00199 0.43334 0.29358 0.0
C4155 C 0.02565 0.3825 0.32206 0.0
C4156 C 0.0097 0.39546 0.29814 0.0
H4157 H 0.02528 0.41927 0.27475 0.0
C4158 C 0.99818 0.39632 0.29936 0.0
C4159 C 0.01928 0.40342 0.28866 0.0
C4160 C 0.03127 0.40211 0.28582 0.0
C4161 C 0.99626 0.40532 0.29179 0.0
C4162 C 0.00634 0.41403 0.28311 0.0
C4163 C 0.0176 0.41277 0.28152 0.0
C4164 C 0.00573 0.42481 0.27588 0.0
C4165 C 0.98337 0.40526 0.29309 0.0
C4166 C 0.00846 0.42654 0.26214 0.0
C4167 C 0.00927 0.43747 0.2556 0.0
C4168 C 0.00709 0.44676 0.26262 0.0
C4169 C 0.00416 0.44489 0.27631 0.0
C4170 C 0.00362 0.43412 0.28289 0.0
H4171 H 0.97525 0.39532 0.29592 0.0
H4172 H 0.98436 0.41239 0.30113 0.0
H4173 H 0.98053 0.40814 0.28363 0.0
H4174 H 0.01025 0.41958 0.25651 0.0
H4175 H 0.0118 0.43871 0.24511 0.0
H4176 H 0.62081 0.64307 0.3196 0.0
H4177 H 0.60891 0.62137 0.30839 0.0
H4178 H 0.64205 0.61543 0.31517 0.0
H4179 H 0.65409 0.63721 0.32647 0.0
H4180 H 0.63166 0.61101 0.28774 0.0
H4181 H 0.59267 0.58393 0.32521 0.0
H4182 H 0.59498 0.59984 0.32067 0.0
H4183 H 0.60798 0.5989 0.32934 0.0
C4184 C 0.62554 0.63711 0.31885 0.0
C4185 C 0.63839 0.64185 0.32395 0.0
C4186 C 0.6187 0.62469 0.31248 0.0
C4187 C 0.62456 0.61677 0.31107 0.0
C4188 C 0.63734 0.62139 0.31624 0.0
H4189 H 0.59918 0.54225 0.26721 0.0
H4190 H 0.61205 0.56326 0.2796 0.0
C4191 C 0.64418 0.6338 0.32271 0.0
C4192 C 0.61753 0.60395 0.30364 0.0
H4193 H 0.58981 0.57339 0.30399 0.0
C4194 C 0.62257 0.60272 0.29132 0.0
C4195 C 0.60564 0.59324 0.30832 0.0
C4196 C 0.60001 0.59394 0.32166 0.0
C4197 C 0.61582 0.59115 0.28335 0.0
C4198 C 0.60387 0.58043 0.288 0.0
C4199 C 0.59894 0.58163 0.30041 0.0
C4200 C 0.59626 0.5679 0.28014 0.0
C4201 C 0.62131 0.59071 0.26983 0.0
C4202 C 0.58302 0.56335 0.2766 0.0
C4203 C 0.57563 0.55131 0.26963 0.0
C4204 C 0.58139 0.54363 0.26594 0.0
C4205 C 0.59462 0.54815 0.2696 0.0
C4206 C 0.60198 0.56016 0.27664 0.0
H4207 H 0.62829 0.60082 0.26624 0.0
H4208 H 0.62678 0.58522 0.27061 0.0
H4209 H 0.61328 0.58554 0.26226 0.0
H4210 H 0.57837 0.5691 0.27933 0.0
H4211 H 0.56537 0.54792 0.26728 0.0
H4212 H 0.35028 0.96593 0.33012 0.0
H4213 H 0.37099 0.97236 0.31867 0.0
H4214 H 0.38164 0.01351 0.32205 0.0
H4215 H 0.36089 0.00717 0.33366 0.0
H4216 H 0.38278 0.00246 0.29472 0.0
H4217 H 0.40985 0.99319 0.33518 0.0
H4218 H 0.39297 0.98043 0.33224 0.0
H4219 H 0.3965 0.99642 0.33851 0.0
C4220 C 0.35707 0.97637 0.32856 0.0
C4221 C 0.35396 0.98606 0.33281 0.0
C4222 C 0.36891 0.98002 0.32205 0.0
C4223 C 0.37783 0.99339 0.3196 0.0
C4224 C 0.37486 0.00313 0.32392 0.0
H4225 H 0.45645 0.02439 0.28644 0.0
H4226 H 0.43735 0.02162 0.29913 0.0
C4227 C 0.36305 0.9995 0.33058 0.0
C4228 C 0.38997 0.99704 0.31201 0.0
H4229 H 0.41907 0.99687 0.31348 0.0
C4230 C 0.39079 0.00137 0.29883 0.0
C4231 C 0.40035 0.9956 0.31745 0.0
C4232 C 0.4 0.99124 0.33166 0.0
C4233 C 0.40162 0.00395 0.29081 0.0
C4234 C 0.41181 0.00213 0.29614 0.0
C4235 C 0.41117 0.99817 0.30943 0.0
C4236 C 0.42319 0.00414 0.28801 0.0
C4237 C 0.4021 0.00853 0.27668 0.0
C4238 C 0.4215 0.99514 0.27765 0.0
C4239 C 0.43238 0.99665 0.27044 0.0
C4240 C 0.44511 0.00732 0.27337 0.0
C4241 C 0.44672 0.01628 0.28379 0.0
C4242 C 0.43586 0.01469 0.29106 0.0
H4243 H 0.39474 0.01175 0.27488 0.0
H4244 H 0.41211 0.01688 0.27446 0.0
H4245 H 0.39998 0.00025 0.26959 0.0
H4246 H 0.4118 0.9868 0.27534 0.0
H4247 H 0.43087 0.98938 0.26273 0.0
H4248 H 0.61735 0.96256 0.31807 0.0
H4249 H 0.60351 0.96838 0.30478 0.0
H4250 H 0.63171 0.00994 0.31075 0.0
H4251 H 0.6458 0.00419 0.32407 0.0
H4252 H 0.59212 0.98449 0.31124 0.0
H4253 H 0.62801 0.00476 0.26953 0.0
H4254 H 0.62934 0.99474 0.28239 0.0
H4255 H 0.63383 0.01163 0.28604 0.0
C4256 C 0.62061 0.97296 0.31666 0.0
C4257 C 0.63273 0.98292 0.32204 0.0
C4258 C 0.61266 0.97626 0.30907 0.0
C4259 C 0.61667 0.98957 0.30664 0.0
C4260 C 0.62854 0.9996 0.31236 0.0
H4261 H 0.57652 0.01328 0.23826 0.0
H4262 H 0.59434 0.01586 0.2599 0.0
C4263 C 0.63653 0.99629 0.32002 0.0
C4264 C 0.60847 0.99267 0.29769 0.0
H4265 H 0.60715 0.0025 0.26598 0.0
C4266 C 0.59545 0.98859 0.3014 0.0
C4267 C 0.6129 0.99817 0.28493 0.0
C4268 C 0.62675 0.00253 0.28037 0.0
C4269 C 0.58655 0.98932 0.29248 0.0
C4270 C 0.59072 0.99399 0.27942 0.0
C4271 C 0.60396 0.99886 0.27598 0.0
C4272 C 0.58131 0.99264 0.26881 0.0
C4273 C 0.57277 0.98507 0.29717 0.0
C4274 C 0.56714 0.97641 0.26556 0.0
C4275 C 0.5559 0.97372 0.25197 0.0
C4276 C 0.55851 0.98909 0.2438 0.0
C4277 C 0.57472 0.00485 0.24419 0.0
C4278 C 0.58537 0.00651 0.25807 0.0
H4279 H 0.57262 0.98648 0.30817 0.0
H4280 H 0.56868 0.99074 0.2922 0.0
H4281 H 0.56623 0.97436 0.29486 0.0
H4282 H 0.56553 0.96813 0.27163 0.0
H4283 H 0.54686 0.96433 0.2506 0.0
H4284 H 0.99341 0.64559 0.32419 0.0
H4285 H 0.98433 0.62407 0.31251 0.0
H4286 H 0.02379 0.63217 0.30394 0.0
H4287 H 0.03293 0.65355 0.31565 0.0
H4288 H 0.98811 0.62007 0.28568 0.0
H4289 H 0.00635 0.59461 0.31871 0.0
H4290 H 0.0059 0.6093 0.32397 0.0
H4291 H 0.0191 0.61069 0.31367 0.0
C4292 C 1.00015 0.64271 0.31996 0.0
C4293 C 0.01389 0.65127 0.32087 0.0
C4294 C 0.99495 0.63043 0.31329 0.0
C4295 C 0.0034 0.62645 0.30753 0.0
C4296 C 0.0171 0.63491 0.30856 0.0
H4297 H 0.9912 0.5725 0.24227 0.0
H4298 H 0.9976 0.59152 0.25746 0.0
C4299 C 0.0223 0.64718 0.31519 0.0
C4300 C 0.99795 0.61387 0.29968 0.0
H4301 H 0.99873 0.58498 0.29687 0.0
C4302 C 0.99031 0.61233 0.28821 0.0
C4303 C 0.00074 0.60374 0.30305 0.0
C4304 C 0.00836 0.60458 0.31559 0.0
C4305 C 0.98578 0.60113 0.27975 0.0
C4306 C 0.98912 0.59131 0.28278 0.0
C4307 C 0.99633 0.59261 0.29451 0.0
C4308 C 0.98541 0.57977 0.27373 0.0
C4309 C 0.97751 0.59989 0.2676 0.0
C4310 C 0.97667 0.56687 0.27798 0.0
C4311 C 0.97302 0.556 0.26934 0.0
C4312 C 0.97822 0.55784 0.25638 0.0
C4313 C 0.98711 0.57079 0.25223 0.0
C4314 C 0.9907 0.58164 0.26085 0.0
H4315 H 0.97314 0.60644 0.26847 0.0
H4316 H 0.98381 0.6028 0.25861 0.0
H4317 H 0.96941 0.58949 0.26607 0.0
H4318 H 0.97252 0.56525 0.2879 0.0
H4319 H 0.96607 0.54615 0.27275 0.0
H4320 H 0.36157 0.35068 0.32522 0.0
H4321 H 0.38333 0.36276 0.31478 0.0
H4322 H 0.37886 0.39721 0.31129 0.0
H4323 H 0.35715 0.38527 0.3216 0.0
H4324 H 0.38836 0.37548 0.28808 0.0
H4325 H 0.41581 0.41056 0.33002 0.0
H4326 H 0.40068 0.39506 0.33241 0.0
H4327 H 0.40014 0.40905 0.32578 0.0
C4328 C 0.36528 0.36087 0.32234 0.0
C4329 C 0.35765 0.36703 0.32425 0.0
C4330 C 0.37768 0.36772 0.31635 0.0
C4331 C 0.3827 0.38088 0.31238 0.0
C4332 C 0.37519 0.3871 0.31443 0.0
H4333 H 0.45061 0.4436 0.27521 0.0
H4334 H 0.42969 0.42894 0.28605 0.0
C4335 C 0.36278 0.38024 0.32029 0.0
C4336 C 0.3956 0.38808 0.30565 0.0
H4337 H 0.42633 0.41526 0.30895 0.0
C4338 C 0.39675 0.38409 0.29266 0.0
C4339 C 0.40644 0.39931 0.31169 0.0
C4340 C 0.40581 0.40373 0.32579 0.0
C4341 C 0.40833 0.39139 0.28529 0.0
C4342 C 0.41911 0.4028 0.29123 0.0
C4343 C 0.41804 0.40655 0.30438 0.0
C4344 C 0.43144 0.41134 0.28388 0.0
C4345 C 0.40873 0.38715 0.27104 0.0
C4346 C 0.43935 0.40631 0.279 0.0
C4347 C 0.45127 0.41466 0.27266 0.0
C4348 C 0.45551 0.42821 0.2712 0.0
C4349 C 0.44753 0.43319 0.27606 0.0
C4350 C 0.43561 0.42483 0.28231 0.0
H4351 H 0.39867 0.38032 0.26695 0.0
H4352 H 0.41366 0.39587 0.26446 0.0
H4353 H 0.41442 0.38185 0.27072 0.0
H4354 H 0.43648 0.396 0.28037 0.0
H4355 H 0.45732 0.41062 0.26916 0.0
H4356 H 0.31254 0.28634 0.35949 0.0
H4357 H 0.32378 0.2761 0.37067 0.0
H4358 H 0.35944 0.3142 0.37367 0.0
H4359 H 0.34841 0.32439 0.36193 0.0
H4360 H 0.36525 0.29549 0.36798 0.0
H4361 H 0.33028 0.27876 0.41011 0.0
H4362 H 0.32211 0.27198 0.39436 0.0
H4363 H 0.33026 0.28963 0.39746 0.0
C4364 C 0.32281 0.29251 0.36244 0.0
C4365 C 0.32957 0.30619 0.35995 0.0
C4366 C 0.32919 0.28667 0.36893 0.0
C4367 C 0.34234 0.29445 0.37338 0.0
C4368 C 0.34926 0.30802 0.37043 0.0
H4369 H 0.37713 0.271 0.43645 0.0
H4370 H 0.36726 0.28106 0.42272 0.0
C4371 C 0.34295 0.31383 0.36372 0.0
C4372 C 0.34879 0.28851 0.38135 0.0
H4373 H 0.3453 0.27062 0.40934 0.0
C4374 C 0.36092 0.2901 0.37706 0.0
C4375 C 0.34327 0.28168 0.39335 0.0
C4376 C 0.33084 0.28053 0.39917 0.0
C4377 C 0.36761 0.28495 0.38434 0.0
C4378 C 0.36179 0.27761 0.39601 0.0
C4379 C 0.34971 0.27611 0.40033 0.0
C4380 C 0.36819 0.27173 0.40416 0.0
C4381 C 0.38103 0.28779 0.37965 0.0
C4382 C 0.37189 0.26301 0.39837 0.0
C4383 C 0.37786 0.25751 0.40617 0.0
C4384 C 0.38003 0.26044 0.41996 0.0
C4385 C 0.3759 0.26881 0.4258 0.0
C4386 C 0.37016 0.27449 0.41797 0.0
H4387 H 0.38574 0.29673 0.37332 0.0
H4388 H 0.38774 0.28933 0.38822 0.0
H4389 H 0.3799 0.27926 0.3735 0.0
H4390 H 0.37005 0.26034 0.38785 0.0
H4391 H 0.38069 0.25089 0.40143 0.0
H4392 H 0.67882 0.02471 0.35594 0.0
H4393 H 0.68827 0.04726 0.36535 0.0
H4394 H 0.72275 0.04589 0.37851 0.0
H4395 H 0.7135 0.0235 0.36909 0.0
H4396 H 0.69504 0.0547 0.39216 0.0
H4397 H 0.73867 0.08166 0.35991 0.0
H4398 H 0.72502 0.06546 0.35544 0.0
H4399 H 0.73755 0.06707 0.36707 0.0
C4400 C 0.68849 0.02929 0.36068 0.0
C4401 C 0.69542 0.02232 0.36174 0.0
C4402 C 0.69386 0.04215 0.36607 0.0
C4403 C 0.70629 0.04831 0.37246 0.0
C4404 C 0.71328 0.04144 0.37337 0.0
H4405 H 0.74014 0.10877 0.43371 0.0
H4406 H 0.72951 0.08836 0.42006 0.0
C4407 C 0.70792 0.02859 0.36804 0.0
C4408 C 0.71164 0.06156 0.37899 0.0
H4409 H 0.73878 0.09258 0.38046 0.0
C4410 C 0.70453 0.06304 0.3895 0.0
C4411 C 0.72395 0.07246 0.37541 0.0
C4412 C 0.73169 0.07166 0.36375 0.0
C4413 C 0.70966 0.07497 0.3969 0.0
C4414 C 0.7223 0.08562 0.3938 0.0
C4415 C 0.72916 0.08434 0.38292 0.0
C4416 C 0.72874 0.09801 0.402 0.0
C4417 C 0.70153 0.07606 0.40802 0.0
C4418 C 0.73209 0.11023 0.39629 0.0
C4419 C 0.73824 0.12192 0.40406 0.0
C4420 C 0.74131 0.1216 0.41762 0.0
C4421 C 0.73798 0.10933 0.42327 0.0
C4422 C 0.73182 0.09766 0.41552 0.0
H4423 H 0.69088 0.06864 0.40672 0.0
H4424 H 0.70492 0.0742 0.41771 0.0
H4425 H 0.70269 0.08613 0.40852 0.0
H4426 H 0.72983 0.1107 0.38586 0.0
H4427 H 0.74057 0.13121 0.39948 0.0
H4428 H 0.97935 0.69843 0.36242 0.0
H4429 H 0.95732 0.68813 0.37207 0.0
H4430 H 0.95326 0.64947 0.36634 0.0
H4431 H 0.97538 0.6597 0.35655 0.0
H4432 H 0.93216 0.66663 0.35931 0.0
H4433 H 0.94616 0.65325 0.40758 0.0
H4434 H 0.95823 0.66607 0.39711 0.0
H4435 H 0.95128 0.64897 0.39221 0.0
C4436 C 0.97378 0.68772 0.36315 0.0
C4437 C 0.97913 0.67988 0.35874 0.0
C4438 C 0.96119 0.68187 0.36866 0.0
C4439 C 0.95375 0.66808 0.37002 0.0
C4440 C 0.95893 0.66015 0.36548 0.0
H4441 H 0.87735 0.62382 0.41014 0.0
H4442 H 0.8983 0.62965 0.39918 0.0
C4443 C 0.97153 0.66601 0.35984 0.0
C4444 C 0.94057 0.66213 0.37623 0.0
H4445 H 0.92427 0.64879 0.40523 0.0
C4446 C 0.93038 0.66263 0.3693 0.0
C4447 C 0.9383 0.65684 0.38922 0.0
C4448 C 0.94904 0.65625 0.39707 0.0
C4449 C 0.91799 0.65816 0.37512 0.0
C4450 C 0.91587 0.65342 0.38836 0.0
C4451 C 0.92594 0.65251 0.39512 0.0
C4452 C 0.90349 0.64997 0.39553 0.0
C4453 C 0.90727 0.65855 0.367 0.0
C4454 C 0.89966 0.65954 0.39743 0.0
C4455 C 0.88775 0.65624 0.40363 0.0
C4456 C 0.87951 0.64334 0.40827 0.0
C4457 C 0.88355 0.63385 0.40674 0.0
C4458 C 0.89548 0.63716 0.40047 0.0
H4459 H 0.90899 0.6584 0.35609 0.0
H4460 H 0.89739 0.65003 0.36928 0.0
H4461 H 0.90721 0.66786 0.36942 0.0
H4462 H 0.90584 0.66957 0.39399 0.0
H4463 H 0.88488 0.66374 0.40462 0.0
H4464 H 0.3612 0.99897 0.69078 0.0
H4465 H 0.37695 0.99416 0.70221 0.0
H4466 H 0.40104 0.03553 0.71316 0.0
H4467 H 0.38544 0.04041 0.7019 0.0
H4468 H 0.4048 0.00534 0.69776 0.0
H4469 H 0.39438 0.0162 0.74908 0.0
H4470 H 0.38342 0.01327 0.73503 0.0
H4471 H 0.3981 0.02915 0.73739 0.0
C4472 C 0.36987 0.00703 0.6956 0.0
C4473 C 0.37203 0.02006 0.6955 0.0
C4474 C 0.37883 0.00427 0.70213 0.0
C4475 C 0.39001 0.01446 0.70872 0.0
C4476 C 0.39233 0.02748 0.70836 0.0
H4477 H 0.45829 0.02422 0.75233 0.0
H4478 H 0.44094 0.02677 0.74123 0.0
C4479 C 0.38342 0.03026 0.70185 0.0
C4480 C 0.39943 0.01161 0.71586 0.0
H4481 H 0.41341 0.01393 0.74657 0.0
C4482 C 0.40661 0.00708 0.70845 0.0
C4483 C 0.40175 0.01394 0.7298 0.0
C4484 C 0.39393 0.01829 0.73834 0.0
C4485 C 0.41639 0.0052 0.71456 0.0
C4486 C 0.41885 0.00771 0.72847 0.0
C4487 C 0.41152 0.01206 0.7359 0.0
C4488 C 0.42911 0.00605 0.73546 0.0
C4489 C 0.42429 0.00096 0.706 0.0
C4490 C 0.42808 0.99353 0.73606 0.0
C4491 C 0.43792 0.99205 0.74242 0.0
C4492 C 0.4489 0.00304 0.74846 0.0
C4493 C 0.44984 0.01556 0.74795 0.0
C4494 C 0.43998 0.01702 0.74159 0.0
H4495 H 0.42337 0.00249 0.6952 0.0
H4496 H 0.43491 0.00651 0.70893 0.0
H4497 H 0.42062 0.99024 0.70743 0.0
H4498 H 0.41968 0.9849 0.73156 0.0
H4499 H 0.43702 0.98232 0.74252 0.0
H4500 H 0.96682 0.34187 0.70438 0.0
H4501 H 0.9718 0.36254 0.71581 0.0
H4502 H 0.0126 0.38002 0.7044 0.0
H4503 H 0.00768 0.35929 0.69278 0.0
H4504 H 0.99024 0.37533 0.73708 0.0
H4505 H 0.00181 0.40732 0.69258 0.0
H4506 H 0.99312 0.38943 0.69128 0.0
H4507 H 0.01067 0.39844 0.6941 0.0
C4508 C 0.97685 0.35012 0.7042 0.0
C4509 C 0.98686 0.34895 0.69763 0.0
C4510 C 0.97968 0.36192 0.71077 0.0
C4511 C 0.99253 0.37282 0.71086 0.0
C4512 C 0.00257 0.37176 0.70428 0.0
H4513 H 0.02293 0.452 0.74584 0.0
H4514 H 0.02086 0.43204 0.73497 0.0
C4515 C 0.99975 0.35991 0.69769 0.0
C4516 C 0.99534 0.38514 0.71814 0.0
H4517 H 0.00408 0.41754 0.71373 0.0
C4518 C 0.99331 0.38458 0.732 0.0
C4519 C 0.99936 0.39717 0.71146 0.0
C4520 C 0.00129 0.39819 0.69652 0.0
C4521 C 0.99516 0.39574 0.73938 0.0
C4522 C 0.9989 0.40769 0.73266 0.0
C4523 C 0.00118 0.40833 0.71884 0.0
C4524 C 1.00023 0.41958 0.73973 0.0
C4525 C 0.99319 0.39466 0.75432 0.0
C4526 C 0.98928 0.4192 0.7459 0.0
C4527 C 0.99044 0.43057 0.75215 0.0
C4528 C 0.00261 0.44251 0.75237 0.0
C4529 C 0.01351 0.44287 0.74605 0.0
C4530 C 0.01234 0.43151 0.7398 0.0
H4531 H 0.99393 0.38621 0.75835 0.0
H4532 H 0.00057 0.40392 0.75958 0.0
H4533 H 0.98319 0.39301 0.7566 0.0
H4534 H 0.97976 0.41018 0.74565 0.0
H4535 H 0.9818 0.4301 0.75665 0.0
H4536 H 0.64093 0.61456 0.69652 0.0
H4537 H 0.61972 0.60324 0.70783 0.0
H4538 H 0.6147 0.63715 0.70204 0.0
H4539 H 0.6358 0.64843 0.6904 0.0
H4540 H 0.61329 0.61106 0.73079 0.0
H4541 H 0.57899 0.60713 0.69012 0.0
H4542 H 0.59585 0.61139 0.68702 0.0
H4543 H 0.59218 0.62375 0.69328 0.0
C4544 C 0.63523 0.61955 0.69747 0.0
C4545 C 0.64004 0.63239 0.69252 0.0
C4546 C 0.62312 0.61306 0.70397 0.0
C4547 C 0.61554 0.61927 0.70567 0.0
C4548 C 0.62022 0.63203 0.70059 0.0
H4549 H 0.5439 0.59818 0.74992 0.0
H4550 H 0.56471 0.60983 0.73772 0.0
C4551 C 0.63232 0.63849 0.69398 0.0
C4552 C 0.60316 0.61266 0.71347 0.0
H4553 H 0.57005 0.60163 0.71195 0.0
C4554 C 0.60382 0.60894 0.72664 0.0
C4555 C 0.59082 0.60994 0.70806 0.0
C4556 C 0.58935 0.61314 0.69381 0.0
C4557 C 0.59252 0.60267 0.73457 0.0
C4558 C 0.58021 0.59997 0.72917 0.0
C4559 C 0.57953 0.60376 0.71606 0.0
C4560 C 0.56788 0.59304 0.73692 0.0
C4561 C 0.59383 0.59915 0.74875 0.0
C4562 C 0.56277 0.57973 0.74041 0.0
C4563 C 0.5509 0.57307 0.74736 0.0
C4564 C 0.54402 0.57966 0.75108 0.0
C4565 C 0.54915 0.59297 0.74747 0.0
C4566 C 0.56097 0.5996 0.74045 0.0
H4567 H 0.60427 0.60443 0.75232 0.0
H4568 H 0.58787 0.60157 0.75565 0.0
H4569 H 0.59008 0.58833 0.74922 0.0
H4570 H 0.56783 0.57443 0.73753 0.0
H4571 H 0.54701 0.56271 0.74966 0.0
H4572 H 0.6519 0.67889 0.64894 0.0
H4573 H 0.64394 0.69181 0.63685 0.0
H4574 H 0.67929 0.72798 0.64865 0.0
H4575 H 0.68757 0.71508 0.65998 0.0
H4576 H 0.63772 0.70976 0.6426 0.0
H4577 H 0.68085 0.73288 0.60952 0.0
H4578 H 0.67808 0.71968 0.6206 0.0
H4579 H 0.68609 0.73664 0.62666 0.0
C4580 C 0.65791 0.68961 0.64898 0.0
C4581 C 0.67042 0.696 0.65522 0.0
C4582 C 0.65338 0.69698 0.64206 0.0
C4583 C 0.6612 0.71087 0.64145 0.0
C4584 C 0.6733 0.71727 0.64847 0.0
H4585 H 0.63548 0.76637 0.62105 0.0
H4586 H 0.63953 0.7499 0.63156 0.0
C4587 C 0.67798 0.7099 0.65507 0.0
C4588 C 0.65684 0.7187 0.63341 0.0
H4589 H 0.66767 0.74337 0.61057 0.0
C4590 C 0.64421 0.717 0.63548 0.0
C4591 C 0.66511 0.72789 0.62379 0.0
C4592 C 0.67821 0.72926 0.6199 0.0
C4593 C 0.63984 0.72459 0.62859 0.0
C4594 C 0.64857 0.73457 0.61982 0.0
C4595 C 0.66101 0.7359 0.61742 0.0
C4596 C 0.64526 0.74399 0.61328 0.0
C4597 C 0.62585 0.72162 0.63067 0.0
C4598 C 0.64753 0.74657 0.59955 0.0
C4599 C 0.64574 0.75639 0.59363 0.0
C4600 C 0.64135 0.76368 0.60126 0.0
C4601 C 0.63877 0.76084 0.6149 0.0
C4602 C 0.64091 0.75129 0.62089 0.0
H4603 H 0.61929 0.71106 0.63324 0.0
H4604 H 0.62567 0.72777 0.63916 0.0
H4605 H 0.62176 0.72379 0.62162 0.0
H4606 H 0.65096 0.74115 0.59344 0.0
H4607 H 0.64797 0.75833 0.58313 0.0
H4608 H 0.28546 0.97838 0.65192 0.0
H4609 H 0.27376 0.95617 0.64184 0.0
H4610 H 0.30806 0.95199 0.64797 0.0
H4611 H 0.31979 0.97418 0.65841 0.0
H4612 H 0.28024 0.94744 0.61937 0.0
H4613 H 0.27893 0.9175 0.66274 0.0
H4614 H 0.28324 0.93467 0.66447 0.0
H4615 H 0.29518 0.93043 0.65848 0.0
C4616 C 0.29049 0.9727 0.65126 0.0
C4617 C 0.30355 0.97803 0.656 0.0
C4618 C 0.28379 0.96001 0.64547 0.0
C4619 C 0.28997 0.95235 0.64427 0.0
C4620 C 0.30299 0.9576 0.64905 0.0
H4621 H 0.2624 0.87466 0.60622 0.0
H4622 H 0.27609 0.89679 0.61641 0.0
C4623 C 0.3097 0.97031 0.65495 0.0
C4624 C 0.28288 0.93915 0.63747 0.0
H4625 H 0.27108 0.90606 0.64197 0.0
C4626 C 0.27824 0.93839 0.62432 0.0
C4627 C 0.2803 0.92735 0.64393 0.0
C4628 C 0.28456 0.92746 0.65822 0.0
C4629 C 0.27105 0.92618 0.61748 0.0
C4630 C 0.26836 0.91441 0.62398 0.0
C4631 C 0.27319 0.91514 0.63702 0.0
C4632 C 0.26019 0.9012 0.61754 0.0
C4633 C 0.26644 0.92595 0.6033 0.0
C4634 C 0.24672 0.89635 0.61494 0.0
C4635 C 0.2389 0.88375 0.60917 0.0
C4636 C 0.24446 0.87582 0.60572 0.0
C4637 C 0.25794 0.88068 0.60848 0.0
C4638 C 0.26573 0.89326 0.61435 0.0
H4639 H 0.27176 0.93591 0.59874 0.0
H4640 H 0.26784 0.91884 0.59697 0.0
H4641 H 0.25574 0.92267 0.6033 0.0
H4642 H 0.24221 0.90224 0.61759 0.0
H4643 H 0.22848 0.88013 0.60752 0.0
H4644 H 0.02965 0.34196 0.66048 0.0
H4645 H 0.05154 0.35331 0.65023 0.0
H4646 H 0.04829 0.31552 0.64072 0.0
H4647 H 0.02648 0.3041 0.65088 0.0
H4648 H 0.07349 0.33599 0.65301 0.0
H4649 H 0.05745 0.35306 0.60865 0.0
H4650 H 0.05309 0.3565 0.62487 0.0
H4651 H 0.04589 0.33966 0.61892 0.0
C4652 C 0.03364 0.33607 0.65628 0.0
C4653 C 0.02631 0.32213 0.65644 0.0
C4654 C 0.0461 0.34257 0.65037 0.0
C4655 C 0.05143 0.33522 0.6446 0.0
C4656 C 0.0443 0.32134 0.64508 0.0
H4657 H 0.1229 0.34971 0.60465 0.0
H4658 H 0.1017 0.34024 0.61605 0.0
C4659 C 0.03184 0.31485 0.65088 0.0
C4660 C 0.06439 0.34192 0.63793 0.0
H4661 H 0.0799 0.35913 0.61002 0.0
C4662 C 0.07493 0.34109 0.64364 0.0
C4663 C 0.06621 0.34859 0.62573 0.0
C4664 C 0.05507 0.34949 0.61907 0.0
C4665 C 0.08731 0.34681 0.63748 0.0
C4666 C 0.08905 0.35319 0.62508 0.0
C4667 C 0.07854 0.35418 0.61948 0.0
C4668 C 0.10166 0.3588 0.6177 0.0
C4669 C 0.09844 0.34613 0.64443 0.0
C4670 C 0.10844 0.37227 0.61438 0.0
C4671 C 0.12043 0.37764 0.60761 0.0
C4672 C 0.12579 0.36961 0.6039 0.0
C4673 C 0.11892 0.3561 0.60716 0.0
C4674 C 0.10689 0.35072 0.61384 0.0
H4675 H 0.09673 0.34463 0.65535 0.0
H4676 H 0.09912 0.3376 0.64027 0.0
H4677 H 0.10805 0.35531 0.64291 0.0
H4678 H 0.10458 0.37868 0.61723 0.0
H4679 H 0.12562 0.38812 0.60544 0.0
H4680 H 0.28439 0.31528 0.66099 0.0
H4681 H 0.27486 0.32716 0.64978 0.0
H4682 H 0.31382 0.36109 0.64545 0.0
H4683 H 0.32335 0.34945 0.65719 0.0
H4684 H 0.29666 0.36889 0.65141 0.0
H4685 H 0.27575 0.33153 0.61016 0.0
H4686 H 0.26956 0.32445 0.62617 0.0
H4687 H 0.28686 0.33139 0.62263 0.0
C4688 C 0.29091 0.32532 0.65774 0.0
C4689 C 0.30463 0.3314 0.65985 0.0
C4690 C 0.28546 0.33206 0.65124 0.0
C4691 C 0.29365 0.34487 0.64641 0.0
C4692 C 0.30731 0.35116 0.64899 0.0
H4693 H 0.27094 0.3797 0.583 0.0
H4694 H 0.28053 0.36945 0.59686 0.0
C4695 C 0.31275 0.34451 0.6557 0.0
C4696 C 0.28805 0.35161 0.63842 0.0
H4697 H 0.26929 0.3479 0.61067 0.0
C4698 C 0.29071 0.36433 0.64247 0.0
C4699 C 0.28049 0.34576 0.6266 0.0
C4700 C 0.27811 0.3326 0.62105 0.0
C4701 C 0.28593 0.3713 0.63512 0.0
C4702 C 0.27791 0.36521 0.62363 0.0
C4703 C 0.27532 0.35253 0.61955 0.0
C4704 C 0.2724 0.3719 0.61541 0.0
C4705 C 0.28989 0.38527 0.63955 0.0
C4706 C 0.26453 0.3766 0.62116 0.0
C4707 C 0.25928 0.38275 0.61328 0.0
C4708 C 0.26162 0.38411 0.59945 0.0
C4709 C 0.2692 0.37906 0.59366 0.0
C4710 C 0.27461 0.37311 0.60157 0.0
H4711 H 0.29906 0.38981 0.64577 0.0
H4712 H 0.29148 0.3917 0.63084 0.0
H4713 H 0.28191 0.38506 0.64572 0.0
H4714 H 0.2623 0.37539 0.63172 0.0
H4715 H 0.2533 0.38634 0.61799 0.0
H4716 H 0.69458 0.98277 0.63912 0.0
H4717 H 0.68259 0.9604 0.62939 0.0
H4718 H 0.64593 0.95603 0.64383 0.0
H4719 H 0.65788 0.97848 0.65371 0.0
H4720 H 0.64946 0.93417 0.64899 0.0
H4721 H 0.65866 0.94852 0.59578 0.0
H4722 H 0.67337 0.95565 0.60599 0.0
H4723 H 0.66098 0.96018 0.60909 0.0
C4724 C 0.68396 0.97709 0.64023 0.0
C4725 C 0.67718 0.98243 0.64716 0.0
C4726 C 0.67712 0.96433 0.63457 0.0
C4727 C 0.66335 0.95665 0.63569 0.0
C4728 C 0.65655 0.96185 0.64277 0.0
H4729 H 0.61471 0.88091 0.59292 0.0
H4730 H 0.62385 0.90371 0.60164 0.0
C4731 C 0.66339 0.97466 0.64841 0.0
C4732 C 0.65619 0.94306 0.62978 0.0
H4733 H 0.65056 0.92564 0.60036 0.0
C4734 C 0.64959 0.9323 0.63835 0.0
C4735 C 0.65623 0.94066 0.61587 0.0
C4736 C 0.66258 0.95186 0.60611 0.0
C4737 C 0.64347 0.91917 0.63343 0.0
C4738 C 0.6441 0.91677 0.61961 0.0
C4739 C 0.65023 0.92753 0.61097 0.0
C4740 C 0.63878 0.90316 0.61404 0.0
C4741 C 0.6364 0.90796 0.64306 0.0
C4742 C 0.64431 0.89542 0.61796 0.0
C4743 C 0.6392 0.8825 0.61292 0.0
C4744 C 0.62855 0.8771 0.60376 0.0
C4745 C 0.62308 0.88491 0.59977 0.0
C4746 C 0.62824 0.89788 0.60478 0.0
H4747 H 0.63389 0.91136 0.65247 0.0
H4748 H 0.62719 0.89981 0.63847 0.0
H4749 H 0.64292 0.9039 0.64568 0.0
H4750 H 0.65255 0.89937 0.62497 0.0
H4751 H 0.64348 0.87665 0.61631 0.0
H4752 H 0.01946 0.71458 0.65364 0.0
H4753 H 0.04091 0.72378 0.64289 0.0
H4754 H 0.04408 0.69006 0.65509 0.0
H4755 H 0.02247 0.68065 0.6658 0.0
H4756 H 0.06617 0.73046 0.65296 0.0
H4757 H 0.04788 0.69034 0.61404 0.0
H4758 H 0.03688 0.69296 0.62462 0.0
H4759 H 0.04544 0.68495 0.63107 0.0
C4760 C 0.02474 0.70914 0.65414 0.0
C4761 C 0.0192 0.69682 0.66049 0.0
C4762 C 0.03702 0.71444 0.648 0.0
C4763 C 0.04399 0.70751 0.64803 0.0
C4764 C 0.03875 0.69545 0.65477 0.0
H4765 H 0.12468 0.73987 0.6185 0.0
H4766 H 0.1051 0.7304 0.63271 0.0
C4767 C 0.02644 0.69013 0.66095 0.0
C4768 C 0.0565 0.7128 0.64056 0.0
H4769 H 0.07037 0.70677 0.61329 0.0
C4770 C 0.06714 0.72525 0.64434 0.0
C4771 C 0.05765 0.70604 0.62922 0.0
C4772 C 0.04634 0.69288 0.62438 0.0
C4773 C 0.0789 0.73118 0.63703 0.0
C4774 C 0.08006 0.72439 0.62574 0.0
C4775 C 0.06945 0.7119 0.62201 0.0
C4776 C 0.09198 0.73029 0.6173 0.0
C4777 C 0.08983 0.74482 0.64118 0.0
C4778 C 0.09103 0.73316 0.60389 0.0
C4779 C 0.10216 0.73856 0.59579 0.0
C4780 C 0.11448 0.7412 0.60094 0.0
C4781 C 0.11537 0.73816 0.61434 0.0
C4782 C 0.10422 0.73278 0.62246 0.0
H4783 H 0.08636 0.7498 0.64833 0.0
H4784 H 0.09788 0.74395 0.64613 0.0
H4785 H 0.09402 0.75119 0.63232 0.0
H4786 H 0.08165 0.73122 0.59971 0.0
H4787 H 0.10115 0.74061 0.58545 0.0
H4788 H 0.9629 0.62037 0.70655 0.0
H4789 H 0.97048 0.60685 0.71781 0.0
H4790 H 0.01008 0.6327 0.70419 0.0
H4791 H 0.00257 0.64637 0.69281 0.0
H4792 H 0.00036 0.60455 0.7006 0.0
H4793 H 0.99374 0.61788 0.75237 0.0
H4794 H 0.97956 0.61261 0.74162 0.0
H4795 H 0.99464 0.62763 0.73808 0.0
C4796 C 0.97323 0.62321 0.70591 0.0
C4797 C 0.98215 0.63448 0.69881 0.0
C4798 C 0.97755 0.61551 0.71243 0.0
C4799 C 0.99086 0.61891 0.71201 0.0
C4800 C 0.99977 0.62999 0.70471 0.0
H4801 H 0.02349 0.57989 0.76112 0.0
H4802 H 0.02012 0.59675 0.75018 0.0
C4803 C 0.99547 0.63777 0.69822 0.0
C4804 C 0.9953 0.61066 0.71901 0.0
H4805 H 0.99669 0.59908 0.74982 0.0
C4806 C 0.9997 0.60345 0.71137 0.0
C4807 C 0.99458 0.60939 0.73308 0.0
C4808 C 0.99049 0.61738 0.74181 0.0
C4809 C 0.00287 0.59454 0.7174 0.0
C4810 C 0.00146 0.59274 0.73138 0.0
C4811 C 0.99762 0.60039 0.73908 0.0
C4812 C 0.00345 0.58261 0.73812 0.0
C4813 C 0.00759 0.58704 0.70875 0.0
C4814 C 0.99506 0.56911 0.7351 0.0
C4815 C 0.99687 0.55949 0.7414 0.0
C4816 C 0.00703 0.56319 0.75096 0.0
C4817 C 0.01542 0.57674 0.75399 0.0
C4818 C 0.01355 0.58637 0.74771 0.0
H4819 H 0.01139 0.59197 0.69903 0.0
H4820 H 0.0155 0.5861 0.71392 0.0
H4821 H 0.99922 0.57691 0.70664 0.0
H4822 H 0.98709 0.56601 0.72784 0.0
H4823 H 0.99039 0.54914 0.73873 0.0
H4824 H 0.38387 0.3571 0.69723 0.0
H4825 H 0.39714 0.37856 0.70852 0.0
H4826 H 0.36427 0.38559 0.70671 0.0
H4827 H 0.3508 0.36399 0.6954 0.0
H4828 H 0.40357 0.4048 0.7003 0.0
H4829 H 0.3746 0.38889 0.74727 0.0
H4830 H 0.37355 0.37712 0.73466 0.0
H4831 H 0.36566 0.38674 0.73187 0.0
C4832 C 0.37945 0.36321 0.69914 0.0
C4833 C 0.36624 0.35879 0.6955 0.0
C4834 C 0.38707 0.3755 0.70556 0.0
C4835 C 0.38164 0.38358 0.70855 0.0
C4836 C 0.36858 0.37941 0.70461 0.0
H4837 H 0.43158 0.45452 0.74055 0.0
H4838 H 0.41991 0.44762 0.72672 0.0
C4839 C 0.36093 0.3671 0.69811 0.0
C4840 C 0.38967 0.39611 0.71624 0.0
H4841 H 0.39373 0.40986 0.74754 0.0
C4842 C 0.40132 0.40606 0.71055 0.0
C4843 C 0.38674 0.3976 0.72965 0.0
C4844 C 0.37451 0.38703 0.73633 0.0
C4845 C 0.41039 0.41725 0.71807 0.0
C4846 C 0.40757 0.41859 0.73156 0.0
C4847 C 0.39574 0.40886 0.73713 0.0
C4848 C 0.41746 0.42893 0.74057 0.0
C4849 C 0.42325 0.42706 0.71172 0.0
C4850 C 0.42335 0.42334 0.75451 0.0
C4851 C 0.43626 0.4351 0.76567 0.0
C4852 C 0.44102 0.45282 0.76361 0.0
C4853 C 0.43829 0.45943 0.74768 0.0
C4854 C 0.42476 0.44649 0.73652 0.0
H4855 H 0.4254 0.42271 0.70278 0.0
H4856 H 0.42258 0.43577 0.70843 0.0
H4857 H 0.43165 0.43056 0.7189 0.0
H4858 H 0.4192 0.41283 0.75608 0.0
H4859 H 0.43912 0.43178 0.77447 0.0
H4860 H 0.65279 0.03589 0.69277 0.0
H4861 H 0.6326 0.02756 0.70571 0.0
H4862 H 0.62253 0.98735 0.69592 0.0
H4863 H 0.64288 0.99561 0.68303 0.0
H4864 H 0.60581 0.011 0.69893 0.0
H4865 H 0.6231 0.98858 0.73711 0.0
H4866 H 0.634 1.00008 0.72492 0.0
H4867 H 0.62282 0.9831 0.72016 0.0
C4868 C 0.64624 0.02527 0.69325 0.0
C4869 C 0.6495 0.0164 0.68696 0.0
C4870 C 0.63469 0.02053 0.70065 0.0
C4871 C 0.62619 0.00685 0.70195 0.0
C4872 C 0.6291 0.99795 0.69523 0.0
H4873 H 0.54876 0.97142 0.73978 0.0
H4874 H 0.56664 0.97798 0.72367 0.0
C4875 C 0.64068 0.00269 0.68781 0.0
C4876 C 0.61458 0.00203 0.71078 0.0
H4877 H 0.60183 0.98578 0.73992 0.0
C4878 C 0.60488 0.00542 0.70785 0.0
C4879 C 0.61352 0.99492 0.72251 0.0
C4880 C 0.62395 0.99153 0.72648 0.0
C4881 C 0.59414 0.00189 0.71637 0.0
C4882 C 0.59302 0.99467 0.72803 0.0
C4883 C 0.60269 0.99125 0.73093 0.0
C4884 C 0.58212 0.99092 0.7376 0.0
C4885 C 0.58429 0.00626 0.71305 0.0
C4886 C 0.58494 0.99585 0.75082 0.0
C4887 C 0.57477 0.99212 0.76002 0.0
C4888 C 0.56157 0.98339 0.75617 0.0
C4889 C 0.5588 0.97836 0.74295 0.0
C4890 C 0.56899 0.98211 0.73374 0.0
H4891 H 0.58812 0.01417 0.70546 0.0
H4892 H 0.57513 0.99765 0.70895 0.0
H4893 H 0.58166 0.00997 0.72216 0.0
H4894 H 0.59503 0.00257 0.75403 0.0
H4895 H 0.57721 0.99596 0.7702 0.0
loop_
_geom_bond_atom_site_label_1
_geom_bond_atom_site_label_2
_geom_bond_distance
_geom_bond_site_symmetry_2
_ccdc_geom_bond_type
O0 Cd1 2.223 . S
O0 C8 1.315 . S
Cd1 O0 2.223 . S
Cd1 O4 2.297 . S
Cd1 O5 2.439 . S
Cd1 O11 2.240 1_554 S
Cd2 O3 2.240 . S
Cd2 O10 2.223 1_554 S
Cd2 O12 2.297 1_554 S
Cd2 O13 2.439 1_554 S
O3 Cd2 2.240 . S
O3 C8 1.279 1_655 S
O4 Cd1 2.297 . S
O4 C6 1.247 . S
O5 Cd1 2.439 . S
O5 C6 1.208 . S
C6 O4 1.247 . S
C6 O5 1.208 . S
C7 O12 1.247 . S
C7 O13 1.208 . S
C8 O0 1.315 . S
C8 O3 1.279 1_455 S
C9 O10 1.315 1_455 S
C9 O11 1.279 . S
O10 Cd2 2.223 1_556 S
O10 C9 1.315 1_655 S
O11 Cd1 2.240 1_556 S
O11 C9 1.279 . S
O12 Cd2 2.297 1_556 S
O12 C7 1.247 . S
O13 Cd2 2.439 1_556 S
O13 C7 1.208 . S
O14 Cd15 2.223 . S
O14 C22 1.315 . S
Cd15 O14 2.223 . S
Cd15 O18 2.297 . S
Cd15 O19 2.439 . S
Cd15 O25 2.284 . S
Cd16 O17 2.240 . S
Cd16 O24 2.193 1_554 S
Cd16 O26 2.297 1_554 S
Cd16 O27 2.439 . S
O17 Cd16 2.240 . S
O17 C22 1.279 . S
O18 Cd15 2.297 . S
O18 C20 1.247 . S
O19 Cd15 2.439 . S
O19 C20 1.208 . S
C20 O18 1.247 . S
C20 O19 1.208 . S
C21 O26 1.247 . S
C21 O27 1.208 1_556 S
C22 O14 1.315 . S
C22 O17 1.279 . S
C23 O24 1.328 . S
C23 O25 1.266 1_556 S
O24 Cd16 2.193 1_556 S
O24 C23 1.328 . S
O25 Cd15 2.284 . S
O25 C23 1.266 1_554 S
O26 Cd16 2.297 1_556 S
O26 C21 1.247 . S
O27 Cd16 2.439 . S
O27 C21 1.208 1_554 S
O28 Cd29 2.223 1_556 S
O28 C36 1.315 . S
Cd29 O28 2.223 1_554 S
Cd29 O32 2.297 1_554 S
Cd29 O33 2.439 1_554 S
Cd29 O39 2.240 . S
Cd30 O31 2.240 1_554 S
Cd30 O38 2.223 . S
Cd30 O40 2.297 . S
Cd30 O41 2.439 . S
O31 Cd30 2.240 1_556 S
O31 C36 1.279 1_565 S
O32 Cd29 2.297 1_556 S
O32 C34 1.247 . S
O33 Cd29 2.439 1_556 S
O33 C34 1.208 . S
C34 O32 1.247 . S
C34 O33 1.208 . S
C35 O40 1.247 . S
C35 O41 1.208 . S
C36 O28 1.315 . S
C36 O31 1.279 1_545 S
C37 O38 1.315 1_545 S
C37 O39 1.279 . S
O38 Cd30 2.223 . S
O38 C37 1.315 1_565 S
O39 Cd29 2.240 . S
O39 C37 1.279 . S
O40 Cd30 2.297 . S
O40 C35 1.247 . S
O41 Cd30 2.439 . S
O41 C35 1.208 . S
O42 Cd43 2.223 1_556 S
O42 C50 1.342 . S
Cd43 O42 2.223 1_554 S
Cd43 O46 2.297 1_554 S
Cd43 O47 2.439 1_554 S
Cd43 O53 2.240 . S
Cd44 O45 2.240 1_554 S
Cd44 O52 2.223 . S
Cd44 O54 2.297 . S
Cd44 O55 2.439 . S
O45 Cd44 2.240 1_556 S
O45 C50 1.280 1_455 S
O46 Cd43 2.297 1_556 S
O46 C48 1.247 . S
O47 Cd43 2.439 1_556 S
O47 C48 1.208 . S
C48 O46 1.247 . S
C48 O47 1.208 . S
C49 O54 1.247 . S
C49 O55 1.208 . S
C50 O42 1.342 . S
C50 O45 1.280 1_655 S
C51 O52 1.372 . S
C51 O53 1.227 1_455 S
O52 Cd44 2.223 . S
O52 C51 1.372 . S
O53 Cd43 2.240 . S
O53 C51 1.227 1_655 S
O54 Cd44 2.297 . S
O54 C49 1.247 . S
O55 Cd44 2.439 . S
O55 C49 1.208 . S
O56 Cd57 2.223 . S
O56 C64 1.315 . S
Cd57 O56 2.223 . S
Cd57 O60 2.297 . S
Cd57 O61 2.439 . S
Cd57 O67 2.240 1_556 S
Cd58 O59 2.240 1_554 S
Cd58 O66 2.223 . S
Cd58 O68 2.297 . S
Cd58 O69 2.439 . S
O59 Cd58 2.240 1_556 S
O59 C64 1.279 . S
O60 Cd57 2.297 . S
O60 C62 1.247 . S
O61 Cd57 2.439 . S
O61 C62 1.208 . S
C62 O60 1.247 . S
C62 O61 1.208 . S
C63 O68 1.247 . S
C63 O69 1.208 . S
C64 O56 1.315 . S
C64 O59 1.279 . S
C65 O66 1.315 . S
C65 O67 1.279 . S
O66 Cd58 2.223 . S
O66 C65 1.315 . S
O67 Cd57 2.240 1_554 S
O67 C65 1.279 . S
O68 Cd58 2.297 . S
O68 C63 1.247 . S
O69 Cd58 2.439 . S
O69 C63 1.208 . S
O70 Cd71 2.223 . S
O70 C78 1.308 . S
Cd71 O70 2.223 . S
Cd71 O74 2.297 . S
Cd71 O75 2.439 . S
Cd71 O81 2.240 1_554 S
Cd72 O73 2.240 . S
Cd72 O80 2.223 1_554 S
Cd72 O82 2.297 1_554 S
Cd72 O83 2.418 1_554 S
O73 Cd72 2.240 . S
O73 C78 1.279 1_545 S
O74 Cd71 2.297 . S
O74 C76 1.247 . S
O75 Cd71 2.439 . S
O75 C76 1.208 . S
C76 O74 1.247 . S
C76 O75 1.208 . S
C77 O82 1.247 . S
C77 O83 1.245 . S
C78 O70 1.308 . S
C78 O73 1.279 1_565 S
C79 O80 1.354 . S
C79 O81 1.243 1_545 S
O80 Cd72 2.223 1_556 S
O80 C79 1.354 . S
O81 Cd71 2.240 1_556 S
O81 C79 1.243 1_565 S
O82 Cd72 2.297 1_556 S
O82 C77 1.247 . S
O83 Cd72 2.418 1_556 S
O83 C77 1.245 . S
O84 Cd85 2.223 . S
O84 C92 1.315 . S
Cd85 O84 2.223 . S
Cd85 O88 2.297 . S
Cd85 O89 2.439 . S
Cd85 O95 2.240 . S
Cd86 O87 2.240 . S
Cd86 O94 2.223 . S
Cd86 O96 2.297 . S
Cd86 O97 2.439 . S
O87 Cd86 2.240 . S
O87 C92 1.279 . S
O88 Cd85 2.297 . S
O88 C90 1.247 . S
O89 Cd85 2.439 . S
O89 C90 1.208 . S
C90 O88 1.247 . S
C90 O89 1.208 . S
C91 O96 1.247 . S
C91 O97 1.208 . S
C92 O84 1.315 . S
C92 O87 1.279 . S
C93 O94 1.315 . S
C93 O95 1.279 . S
O94 Cd86 2.223 . S
O94 C93 1.315 . S
O95 Cd85 2.240 . S
O95 C93 1.279 . S
O96 Cd86 2.297 . S
O96 C91 1.247 . S
O97 Cd86 2.439 . S
O97 C91 1.208 . S
O98 Cd99 2.223 . S
O98 C106 1.315 . S
Cd99 O98 2.223 . S
Cd99 O102 2.297 1_565 S
Cd99 O103 2.439 1_565 S
Cd99 O109 2.240 . S
Cd100 O101 2.240 . S
Cd100 O108 2.223 . S
Cd100 O110 2.297 . S
Cd100 O111 2.439 . S
O101 Cd100 2.240 . S
O101 C106 1.279 . S
O102 Cd99 2.297 1_545 S
O102 C104 1.247 . S
O103 Cd99 2.439 1_545 S
O103 C104 1.208 . S
C104 O102 1.247 . S
C104 O103 1.208 . S
C105 O110 1.247 . S
C105 O111 1.208 . S
C106 O98 1.315 . S
C106 O101 1.279 . S
C107 O108 1.315 . S
C107 O109 1.279 . S
O108 Cd100 2.223 . S
O108 C107 1.315 . S
O109 Cd99 2.240 . S
O109 C107 1.279 . S
O110 Cd100 2.297 . S
O110 C105 1.247 . S
O111 Cd100 2.439 . S
O111 C105 1.208 . S
O112 Cd113 2.223 . S
O112 C120 1.315 . S
Cd113 O112 2.223 . S
Cd113 O116 2.297 . S
Cd113 O117 2.439 . S
Cd113 O123 2.240 . S
Cd114 O115 2.240 . S
Cd114 O122 2.223 . S
Cd114 O124 2.297 1_455 S
Cd114 O125 2.439 1_455 S
O115 Cd114 2.240 . S
O115 C120 1.279 . S
O116 Cd113 2.297 . S
O116 C118 1.247 . S
O117 Cd113 2.439 . S
O117 C118 1.208 . S
C118 O116 1.247 . S
C118 O117 1.208 . S
C119 O124 1.247 . S
C119 O125 1.208 . S
C120 O112 1.315 . S
C120 O115 1.279 . S
C121 O122 1.315 . S
C121 O123 1.279 . S
O122 Cd114 2.223 . S
O122 C121 1.315 . S
O123 Cd113 2.240 . S
O123 C121 1.279 . S
O124 Cd114 2.297 1_655 S
O124 C119 1.247 . S
O125 Cd114 2.439 1_655 S
O125 C119 1.208 . S
O126 Cd127 2.223 . S
O126 C134 1.315 . S
Cd127 O126 2.223 . S
Cd127 O130 2.297 . S
Cd127 O131 2.439 . S
Cd127 O137 2.240 . S
Cd128 O129 2.240 . S
Cd128 O136 2.223 . S
Cd128 O138 2.297 1_565 S
Cd128 O139 2.439 1_565 S
O129 Cd128 2.240 . S
O129 C134 1.279 . S
O130 Cd127 2.297 . S
O130 C132 1.247 . S
O131 Cd127 2.439 . S
O131 C132 1.208 . S
C132 O130 1.247 . S
C132 O131 1.208 . S
C133 O138 1.247 . S
C133 O139 1.208 . S
C134 O126 1.315 . S
C134 O129 1.279 . S
C135 O136 1.315 . S
C135 O137 1.279 . S
O136 Cd128 2.223 . S
O136 C135 1.315 . S
O137 Cd127 2.240 . S
O137 C135 1.279 . S
O138 Cd128 2.297 1_545 S
O138 C133 1.247 . S
O139 Cd128 2.439 1_545 S
O139 C133 1.208 . S
O140 Cd141 2.223 . S
O140 C148 1.315 . S
Cd141 O140 2.223 . S
Cd141 O144 2.297 . S
Cd141 O145 2.439 . S
Cd141 O151 2.240 . S
Cd142 O143 2.240 . S
Cd142 O150 2.223 . S
Cd142 O152 2.297 1_455 S
Cd142 O153 2.439 1_455 S
O143 Cd142 2.240 . S
O143 C148 1.279 . S
O144 Cd141 2.297 . S
O144 C146 1.247 . S
O145 Cd141 2.439 . S
O145 C146 1.208 . S
C146 O144 1.247 . S
C146 O145 1.208 . S
C147 O152 1.247 . S
C147 O153 1.208 . S
C148 O140 1.315 . S
C148 O143 1.279 . S
C149 O150 1.315 . S
C149 O151 1.279 . S
O150 Cd142 2.223 . S
O150 C149 1.315 . S
O151 Cd141 2.240 . S
O151 C149 1.279 . S
O152 Cd142 2.297 1_655 S
O152 C147 1.247 . S
O153 Cd142 2.439 1_655 S
O153 C147 1.208 . S
O154 Cd155 2.223 . S
O154 C162 1.315 . S
Cd155 O154 2.223 . S
Cd155 O158 2.297 . S
Cd155 O159 2.439 . S
Cd155 O165 2.240 . S
Cd156 O157 2.240 . S
Cd156 O164 2.223 . S
Cd156 O166 2.297 . S
Cd156 O167 2.439 . S
O157 Cd156 2.240 . S
O157 C162 1.279 . S
O158 Cd155 2.297 . S
O158 C160 1.247 . S
O159 Cd155 2.439 . S
O159 C160 1.208 . S
C160 O158 1.247 . S
C160 O159 1.208 . S
C161 O166 1.247 . S
C161 O167 1.208 . S
C162 O154 1.315 . S
C162 O157 1.279 . S
C163 O164 1.315 . S
C163 O165 1.279 . S
O164 Cd156 2.223 . S
O164 C163 1.315 . S
O165 Cd155 2.240 . S
O165 C163 1.279 . S
O166 Cd156 2.297 . S
O166 C161 1.247 . S
O167 Cd156 2.439 . S
O167 C161 1.208 . S
O168 Cd169 2.223 . S
O168 C176 1.315 . S
Cd169 O168 2.223 . S
Cd169 O172 2.297 . S
Cd169 O173 2.439 . S
Cd169 O179 2.240 . S
Cd170 O171 2.240 . S
Cd170 O178 2.223 . S
Cd170 O180 2.297 1_545 S
Cd170 O181 2.439 1_545 S
O171 Cd170 2.240 . S
O171 C176 1.279 . S
O172 Cd169 2.297 . S
O172 C174 1.247 . S
O173 Cd169 2.439 . S
O173 C174 1.208 . S
C174 O172 1.247 . S
C174 O173 1.208 . S
C175 O180 1.247 . S
C175 O181 1.208 . S
C176 O168 1.315 . S
C176 O171 1.279 . S
C177 O178 1.315 . S
C177 O179 1.279 . S
O178 Cd170 2.223 . S
O178 C177 1.315 . S
O179 Cd169 2.240 . S
O179 C177 1.279 . S
O180 Cd170 2.297 1_565 S
O180 C175 1.247 . S
O181 Cd170 2.439 1_565 S
O181 C175 1.208 . S
O182 Cd183 2.223 . S
O182 C190 1.315 . S
Cd183 O182 2.223 . S
Cd183 O186 2.297 . S
Cd183 O187 2.439 . S
Cd183 O193 2.240 . S
Cd184 O185 2.240 . S
Cd184 O192 2.223 . S
Cd184 O194 2.297 1_655 S
Cd184 O195 2.439 1_655 S
O185 Cd184 2.240 . S
O185 C190 1.279 . S
O186 Cd183 2.297 . S
O186 C188 1.247 . S
O187 Cd183 2.439 . S
O187 C188 1.208 . S
C188 O186 1.247 . S
C188 O187 1.208 . S
C189 O194 1.247 . S
C189 O195 1.208 . S
C190 O182 1.315 . S
C190 O185 1.279 . S
C191 O192 1.315 . S
C191 O193 1.279 . S
O192 Cd184 2.223 . S
O192 C191 1.315 . S
O193 Cd183 2.240 . S
O193 C191 1.279 . S
O194 Cd184 2.297 1_455 S
O194 C189 1.247 . S
O195 Cd184 2.439 1_455 S
O195 C189 1.208 . S
O196 Cd197 2.223 . S
O196 C204 1.315 . S
Cd197 O196 2.223 . S
Cd197 O200 2.297 . S
Cd197 O201 2.439 . S
Cd197 O207 2.240 . S
Cd198 O199 2.240 . S
Cd198 O206 2.223 . S
Cd198 O208 2.297 . S
Cd198 O209 2.439 . S
O199 Cd198 2.240 . S
O199 C204 1.279 . S
O200 Cd197 2.297 . S
O200 C202 1.247 . S
O201 Cd197 2.439 . S
O201 C202 1.208 . S
C202 O200 1.247 . S
C202 O201 1.208 . S
C203 O208 1.247 . S
C203 O209 1.208 . S
C204 O196 1.315 . S
C204 O199 1.279 . S
C205 O206 1.315 . S
C205 O207 1.279 . S
O206 Cd198 2.223 . S
O206 C205 1.315 . S
O207 Cd197 2.240 . S
O207 C205 1.279 . S
O208 Cd198 2.297 . S
O208 C203 1.247 . S
O209 Cd198 2.439 . S
O209 C203 1.208 . S
O210 Cd211 2.223 . S
O210 C218 1.315 . S
Cd211 O210 2.223 . S
Cd211 O214 2.297 . S
Cd211 O215 2.439 . S
Cd211 O221 2.240 . S
Cd212 O213 2.240 . S
Cd212 O220 2.223 . S
Cd212 O222 2.297 . S
Cd212 O223 2.439 . S
O213 Cd212 2.240 . S
O213 C218 1.279 . S
O214 Cd211 2.297 . S
O214 C216 1.247 . S
O215 Cd211 2.439 . S
O215 C216 1.208 . S
C216 O214 1.247 . S
C216 O215 1.208 . S
C217 O222 1.247 . S
C217 O223 1.208 . S
C218 O210 1.315 . S
C218 O213 1.279 . S
C219 O220 1.315 . S
C219 O221 1.279 . S
O220 Cd212 2.223 . S
O220 C219 1.315 . S
O221 Cd211 2.240 . S
O221 C219 1.279 . S
O222 Cd212 2.297 . S
O222 C217 1.247 . S
O223 Cd212 2.439 . S
O223 C217 1.208 . S
O224 Cd225 2.223 . S
O224 C232 1.315 . S
Cd225 O224 2.223 . S
Cd225 O228 2.297 1_545 S
Cd225 O229 2.439 1_545 S
Cd225 O235 2.240 . S
Cd226 O227 2.240 . S
Cd226 O234 2.223 . S
Cd226 O236 2.297 . S
Cd226 O237 2.439 . S
O227 Cd226 2.240 . S
O227 C232 1.279 . S
O228 Cd225 2.297 1_565 S
O228 C230 1.247 . S
O229 Cd225 2.439 1_565 S
O229 C230 1.208 . S
C230 O228 1.247 . S
C230 O229 1.208 . S
C231 O236 1.247 . S
C231 O237 1.208 . S
C232 O224 1.315 . S
C232 O227 1.279 . S
C233 O234 1.315 . S
C233 O235 1.279 . S
O234 Cd226 2.223 . S
O234 C233 1.315 . S
O235 Cd225 2.240 . S
O235 C233 1.279 . S
O236 Cd226 2.297 . S
O236 C231 1.247 . S
O237 Cd226 2.439 . S
O237 C231 1.208 . S
O238 Cd239 2.223 . S
O238 C246 1.315 . S
Cd239 O238 2.223 . S
Cd239 O242 2.297 . S
Cd239 O243 2.439 . S
Cd239 O249 2.240 . S
Cd240 O241 2.240 . S
Cd240 O248 2.223 . S
Cd240 O250 2.297 1_655 S
Cd240 O251 2.439 1_655 S
O241 Cd240 2.240 . S
O241 C246 1.279 . S
O242 Cd239 2.297 . S
O242 C244 1.247 . S
O243 Cd239 2.439 . S
O243 C244 1.208 . S
C244 O242 1.247 . S
C244 O243 1.208 . S
C245 O250 1.247 . S
C245 O251 1.208 . S
C246 O238 1.315 . S
C246 O241 1.279 . S
C247 O248 1.315 . S
C247 O249 1.279 . S
O248 Cd240 2.223 . S
O248 C247 1.315 . S
O249 Cd239 2.240 . S
O249 C247 1.279 . S
O250 Cd240 2.297 1_455 S
O250 C245 1.247 . S
O251 Cd240 2.439 1_455 S
O251 C245 1.208 . S
C252 C253 1.560 . S
C252 H313 0.959 . S
C252 H314 0.959 . S
C252 H315 0.960 . S
C253 C252 1.560 . S
C253 O308 1.426 . S
C253 H312 0.980 . S
C254 C255 1.407 . S
C254 C259 1.418 . S
C254 O308 1.334 . S
C255 C254 1.407 . S
C255 C256 1.360 . S
C255 H316 0.929 . S
C256 C255 1.360 . S
C256 C257 1.401 . S
C256 C260 1.527 . S
C257 C256 1.401 . S
C257 C258 1.405 . S
C257 C290 1.587 . S
C258 C257 1.405 . S
C258 C259 1.332 . S
C258 C261 1.496 . S
C259 C254 1.418 . S
C259 C258 1.332 . S
C259 H317 0.929 . S
C260 C256 1.527 . S
C260 H318 0.959 . S
C260 H319 0.961 . S
C260 H320 0.961 . S
C261 C258 1.496 . S
C261 H321 0.960 . S
C261 H322 0.960 . S
C261 H323 0.961 . S
C262 C263 1.517 . S
C262 H325 0.961 . S
C262 H326 0.960 . S
C262 H327 0.959 . S
C263 C262 1.517 . S
C263 O311 1.468 . S
C263 H324 0.980 . S
C264 C265 1.349 . S
C264 C269 1.367 . S
C264 O311 1.408 . S
C265 C264 1.349 . S
C265 C266 1.407 . S
C265 H328 0.930 . S
C266 C265 1.407 . S
C266 C267 1.449 . S
C266 C270 1.535 . S
C267 C266 1.449 . S
C267 C268 1.384 . S
C267 C292 1.553 . S
C268 C267 1.384 . S
C268 C269 1.364 . S
C268 C271 1.450 . S
C269 C264 1.367 . S
C269 C268 1.364 . S
C269 H329 0.931 . S
C270 C266 1.535 . S
C270 H330 0.959 . S
C270 H331 0.961 . S
C270 H332 0.959 . S
C271 C268 1.450 . S
C271 H333 0.960 . S
C271 H334 0.960 . S
C271 H335 0.960 . S
C272 C273 1.309 . S
C272 C277 1.304 . S
C272 O310 1.435 . S
C273 C272 1.309 . S
C273 C274 1.476 . S
C273 H337 0.930 . S
C274 C273 1.476 . S
C274 C275 1.400 . S
C274 C278 1.567 . S
C275 C274 1.400 . S
C275 C276 1.373 . S
C275 C297 1.432 . S
C276 C275 1.373 . S
C276 C277 1.339 . S
C276 C279 1.530 . S
C277 C272 1.304 . S
C277 C276 1.339 . S
C277 H338 0.930 . S
C278 C274 1.567 . S
C278 H339 0.961 . S
C278 H340 0.960 . S
C278 H341 0.958 . S
C279 C276 1.530 . S
C279 H342 0.961 . S
C279 H343 0.960 . S
C279 H344 0.960 . S
C280 C281 1.530 . S
C280 H346 0.961 . S
C280 H347 0.961 . S
C280 H348 0.959 . S
C281 C280 1.530 . S
C281 O309 1.412 . S
C281 H345 0.980 . S
C282 C283 1.288 . S
C282 C287 1.377 . S
C282 O309 1.393 . S
C283 C282 1.288 . S
C283 C284 1.369 . S
C283 H349 0.932 . S
C284 C283 1.369 . S
C284 C285 1.398 . S
C284 C288 1.527 . S
C285 C284 1.398 . S
C285 C286 1.380 . S
C285 C299 1.497 . S
C286 C285 1.380 . S
C286 C287 1.383 . S
C286 C289 1.603 . S
C287 C282 1.377 . S
C287 C286 1.383 . S
C287 H350 0.929 . S
C288 C284 1.527 . S
C288 H351 0.961 . S
C288 H352 0.959 . S
C288 H353 0.959 . S
C289 C286 1.603 . S
C289 H354 0.960 . S
C289 H355 0.962 . S
C289 H356 0.961 . S
C290 C257 1.587 . S
C290 C291 1.360 . S
C290 C303 1.412 . S
C291 C290 1.360 . S
C291 C292 1.365 . S
C291 H357 0.929 . S
C292 C267 1.553 . S
C292 C291 1.365 . S
C292 C293 1.404 . S
C293 C292 1.404 . S
C293 C294 1.395 . S
C293 C304 1.451 . S
C294 C293 1.395 . S
C294 C295 1.322 . S
C294 H358 0.930 . S
C295 C294 1.322 . S
C295 C296 1.459 . S
C295 H359 0.929 . S
C296 C295 1.459 . S
C296 C297 1.445 . S
C296 C305 1.395 . S
C297 C275 1.432 . S
C297 C296 1.445 . S
C297 C298 1.370 . S
C298 C297 1.370 . S
C298 C299 1.438 . S
C298 H360 0.930 . S
C299 C285 1.497 . S
C299 C298 1.438 . S
C299 C300 1.360 . S
C300 C299 1.360 . S
C300 C301 1.401 . S
C300 C305 1.446 . S
C301 C300 1.401 . S
C301 C302 1.347 . S
C301 H361 0.929 . S
C302 C301 1.347 . S
C302 C303 1.455 . S
C302 H362 0.930 . S
C303 C290 1.412 . S
C303 C302 1.455 . S
C303 C304 1.331 . S
C304 C293 1.451 . S
C304 C303 1.331 . S
C304 C305 1.497 . S
C305 C296 1.395 . S
C305 C300 1.446 . S
C305 C304 1.497 . S
C306 C307 1.582 . S
C306 H363 0.962 . S
C306 H364 0.959 . S
C306 H365 0.958 . S
C307 C306 1.582 . S
C307 O310 1.458 . S
C307 H336 0.980 . S
O308 C253 1.426 . S
O308 C254 1.334 . S
O309 C281 1.412 . S
O309 C282 1.393 . S
O310 C272 1.435 . S
O310 C307 1.458 . S
O311 C263 1.468 . S
O311 C264 1.408 . S
H312 C253 0.980 . S
H313 C252 0.959 . S
H314 C252 0.959 . S
H315 C252 0.960 . S
H316 C255 0.929 . S
H317 C259 0.929 . S
H318 C260 0.959 . S
H319 C260 0.961 . S
H320 C260 0.961 . S
H321 C261 0.960 . S
H322 C261 0.960 . S
H323 C261 0.961 . S
H324 C263 0.980 . S
H325 C262 0.961 . S
H326 C262 0.960 . S
H327 C262 0.959 . S
H328 C265 0.930 . S
H329 C269 0.931 . S
H330 C270 0.959 . S
H331 C270 0.961 . S
H332 C270 0.959 . S
H333 C271 0.960 . S
H334 C271 0.960 . S
H335 C271 0.960 . S
H336 C307 0.980 . S
H337 C273 0.930 . S
H338 C277 0.930 . S
H339 C278 0.961 . S
H340 C278 0.960 . S
H341 C278 0.958 . S
H342 C279 0.961 . S
H343 C279 0.960 . S
H344 C279 0.960 . S
H345 C281 0.980 . S
H346 C280 0.961 . S
H347 C280 0.961 . S
H348 C280 0.959 . S
H349 C283 0.932 . S
H350 C287 0.929 . S
H351 C288 0.961 . S
H352 C288 0.959 . S
H353 C288 0.959 . S
H354 C289 0.960 . S
H355 C289 0.962 . S
H356 C289 0.961 . S
H357 C291 0.929 . S
H358 C294 0.930 . S
H359 C295 0.929 . S
H360 C298 0.930 . S
H361 C301 0.929 . S
H362 C302 0.930 . S
H363 C306 0.962 . S
H364 C306 0.959 . S
H365 C306 0.958 . S
C366 C367 1.560 . S
C366 H427 0.959 . S
C366 H428 0.959 . S
C366 H429 0.960 . S
C367 C366 1.560 . S
C367 O422 1.426 . S
C367 H426 0.980 . S
C368 C369 1.407 . S
C368 C373 1.418 . S
C368 O422 1.334 . S
C369 C368 1.407 . S
C369 C370 1.360 . S
C369 H430 0.929 . S
C370 C369 1.360 . S
C370 C371 1.401 . S
C370 C374 1.527 . S
C371 C370 1.401 . S
C371 C372 1.405 . S
C371 C404 1.587 . S
C372 C371 1.405 . S
C372 C373 1.332 . S
C372 C375 1.496 . S
C373 C368 1.418 . S
C373 C372 1.332 . S
C373 H431 0.929 . S
C374 C370 1.527 . S
C374 H432 0.959 . S
C374 H433 0.961 . S
C374 H434 0.961 . S
C375 C372 1.496 . S
C375 H435 0.960 . S
C375 H436 0.960 . S
C375 H437 0.961 . S
C376 C377 1.517 . S
C376 H439 0.961 . S
C376 H440 0.960 . S
C376 H441 0.959 . S
C377 C376 1.517 . S
C377 O425 1.468 . S
C377 H438 0.980 . S
C378 C379 1.349 . S
C378 C383 1.367 . S
C378 O425 1.408 . S
C379 C378 1.349 . S
C379 C380 1.407 . S
C379 H442 0.930 . S
C380 C379 1.407 . S
C380 C381 1.449 . S
C380 C384 1.535 . S
C381 C380 1.449 . S
C381 C382 1.384 . S
C381 C406 1.553 . S
C382 C381 1.384 . S
C382 C383 1.364 . S
C382 C385 1.450 . S
C383 C378 1.367 . S
C383 C382 1.364 . S
C383 H443 0.931 . S
C384 C380 1.535 . S
C384 H444 0.959 . S
C384 H445 0.961 . S
C384 H446 0.959 . S
C385 C382 1.450 . S
C385 H447 0.960 . S
C385 H448 0.960 . S
C385 H449 0.960 . S
C386 C387 1.309 . S
C386 C391 1.304 . S
C386 O424 1.435 . S
C387 C386 1.309 . S
C387 C388 1.476 . S
C387 H451 0.930 . S
C388 C387 1.476 . S
C388 C389 1.400 . S
C388 C392 1.567 . S
C389 C388 1.400 . S
C389 C390 1.373 . S
C389 C411 1.432 . S
C390 C389 1.373 . S
C390 C391 1.339 . S
C390 C393 1.530 . S
C391 C386 1.304 . S
C391 C390 1.339 . S
C391 H452 0.930 . S
C392 C388 1.567 . S
C392 H453 0.961 . S
C392 H454 0.960 . S
C392 H455 0.958 . S
C393 C390 1.530 . S
C393 H456 0.961 . S
C393 H457 0.960 . S
C393 H458 0.960 . S
C394 C395 1.530 . S
C394 H460 0.961 . S
C394 H461 0.961 . S
C394 H462 0.959 . S
C395 C394 1.530 . S
C395 O423 1.412 . S
C395 H459 0.980 . S
C396 C397 1.288 . S
C396 C401 1.377 . S
C396 O423 1.393 . S
C397 C396 1.288 . S
C397 C398 1.369 . S
C397 H463 0.932 . S
C398 C397 1.369 . S
C398 C399 1.398 . S
C398 C402 1.527 . S
C399 C398 1.398 . S
C399 C400 1.380 . S
C399 C413 1.497 . S
C400 C399 1.380 . S
C400 C401 1.383 . S
C400 C403 1.603 . S
C401 C396 1.377 . S
C401 C400 1.383 . S
C401 H464 0.929 . S
C402 C398 1.527 . S
C402 H465 0.961 . S
C402 H466 0.959 . S
C402 H467 0.959 . S
C403 C400 1.603 . S
C403 H468 0.960 . S
C403 H469 0.962 . S
C403 H470 0.961 . S
C404 C371 1.587 . S
C404 C405 1.360 . S
C404 C417 1.412 . S
C405 C404 1.360 . S
C405 C406 1.365 . S
C405 H471 0.929 . S
C406 C381 1.553 . S
C406 C405 1.365 . S
C406 C407 1.404 . S
C407 C406 1.404 . S
C407 C408 1.395 . S
C407 C418 1.451 . S
C408 C407 1.395 . S
C408 C409 1.322 . S
C408 H472 0.930 . S
C409 C408 1.322 . S
C409 C410 1.459 . S
C409 H473 0.929 . S
C410 C409 1.459 . S
C410 C411 1.445 . S
C410 C419 1.395 . S
C411 C389 1.432 . S
C411 C410 1.445 . S
C411 C412 1.370 . S
C412 C411 1.370 . S
C412 C413 1.438 . S
C412 H474 0.930 . S
C413 C399 1.497 . S
C413 C412 1.438 . S
C413 C414 1.360 . S
C414 C413 1.360 . S
C414 C415 1.401 . S
C414 C419 1.446 . S
C415 C414 1.401 . S
C415 C416 1.347 . S
C415 H475 0.929 . S
C416 C415 1.347 . S
C416 C417 1.455 . S
C416 H476 0.930 . S
C417 C404 1.412 . S
C417 C416 1.455 . S
C417 C418 1.331 . S
C418 C407 1.451 . S
C418 C417 1.331 . S
C418 C419 1.497 . S
C419 C410 1.395 . S
C419 C414 1.446 . S
C419 C418 1.497 . S
C420 C421 1.582 . S
C420 H477 0.962 . S
C420 H478 0.959 . S
C420 H479 0.958 . S
C421 C420 1.582 . S
C421 O424 1.458 . S
C421 H450 0.980 . S
O422 C367 1.426 . S
O422 C368 1.334 . S
O423 C395 1.412 . S
O423 C396 1.393 . S
O424 C386 1.435 . S
O424 C421 1.458 . S
O425 C377 1.468 . S
O425 C378 1.408 . S
H426 C367 0.980 . S
H427 C366 0.959 . S
H428 C366 0.959 . S
H429 C366 0.960 . S
H430 C369 0.929 . S
H431 C373 0.929 . S
H432 C374 0.959 . S
H433 C374 0.961 . S
H434 C374 0.961 . S
H435 C375 0.960 . S
H436 C375 0.960 . S
H437 C375 0.961 . S
H438 C377 0.980 . S
H439 C376 0.961 . S
H440 C376 0.960 . S
H441 C376 0.959 . S
H442 C379 0.930 . S
H443 C383 0.931 . S
H444 C384 0.959 . S
H445 C384 0.961 . S
H446 C384 0.959 . S
H447 C385 0.960 . S
H448 C385 0.960 . S
H449 C385 0.960 . S
H450 C421 0.980 . S
H451 C387 0.930 . S
H452 C391 0.930 . S
H453 C392 0.961 . S
H454 C392 0.960 . S
H455 C392 0.958 . S
H456 C393 0.961 . S
H457 C393 0.960 . S
H458 C393 0.960 . S
H459 C395 0.980 . S
H460 C394 0.961 . S
H461 C394 0.961 . S
H462 C394 0.959 . S
H463 C397 0.932 . S
H464 C401 0.929 . S
H465 C402 0.961 . S
H466 C402 0.959 . S
H467 C402 0.959 . S
H468 C403 0.960 . S
H469 C403 0.962 . S
H470 C403 0.961 . S
H471 C405 0.929 . S
H472 C408 0.930 . S
H473 C409 0.929 . S
H474 C412 0.930 . S
H475 C415 0.929 . S
H476 C416 0.930 . S
H477 C420 0.962 . S
H478 C420 0.959 . S
H479 C420 0.958 . S
C480 C481 1.560 . S
C480 H541 0.959 . S
C480 H542 0.959 . S
C480 H543 0.960 . S
C481 C480 1.560 . S
C481 O536 1.426 . S
C481 H540 0.980 . S
C482 C483 1.407 . S
C482 C487 1.418 . S
C482 O536 1.334 . S
C483 C482 1.407 . S
C483 C484 1.360 . S
C483 H544 0.929 . S
C484 C483 1.360 . S
C484 C485 1.401 . S
C484 C488 1.527 . S
C485 C484 1.401 . S
C485 C486 1.405 . S
C485 C518 1.587 . S
C486 C485 1.405 . S
C486 C487 1.332 . S
C486 C489 1.496 . S
C487 C482 1.418 . S
C487 C486 1.332 . S
C487 H545 0.929 . S
C488 C484 1.527 . S
C488 H546 0.959 . S
C488 H547 0.961 . S
C488 H548 0.961 . S
C489 C486 1.496 . S
C489 H549 0.960 . S
C489 H550 0.960 . S
C489 H551 0.961 . S
C490 C491 1.517 . S
C490 H553 0.961 . S
C490 H554 0.960 . S
C490 H555 0.959 . S
C491 C490 1.517 . S
C491 O539 1.468 . S
C491 H552 0.980 . S
C492 C493 1.349 . S
C492 C497 1.367 . S
C492 O539 1.408 . S
C493 C492 1.349 . S
C493 C494 1.407 . S
C493 H556 0.930 . S
C494 C493 1.407 . S
C494 C495 1.449 . S
C494 C498 1.535 . S
C495 C494 1.449 . S
C495 C496 1.384 . S
C495 C520 1.553 . S
C496 C495 1.384 . S
C496 C497 1.364 . S
C496 C499 1.450 . S
C497 C492 1.367 . S
C497 C496 1.364 . S
C497 H557 0.931 . S
C498 C494 1.535 . S
C498 H558 0.959 . S
C498 H559 0.961 . S
C498 H560 0.959 . S
C499 C496 1.450 . S
C499 H561 0.960 . S
C499 H562 0.960 . S
C499 H563 0.960 . S
C500 C501 1.309 . S
C500 C505 1.304 . S
C500 O538 1.435 . S
C501 C500 1.309 . S
C501 C502 1.476 . S
C501 H565 0.930 . S
C502 C501 1.476 . S
C502 C503 1.400 . S
C502 C506 1.567 . S
C503 C502 1.400 . S
C503 C504 1.373 . S
C503 C525 1.432 . S
C504 C503 1.373 . S
C504 C505 1.339 . S
C504 C507 1.530 . S
C505 C500 1.304 . S
C505 C504 1.339 . S
C505 H566 0.930 . S
C506 C502 1.567 . S
C506 H567 0.961 . S
C506 H568 0.960 . S
C506 H569 0.958 . S
C507 C504 1.530 . S
C507 H570 0.961 . S
C507 H571 0.960 . S
C507 H572 0.960 . S
C508 C509 1.530 . S
C508 H574 0.961 . S
C508 H575 0.961 . S
C508 H576 0.959 . S
C509 C508 1.530 . S
C509 O537 1.412 . S
C509 H573 0.980 . S
C510 C511 1.288 . S
C510 C515 1.377 . S
C510 O537 1.393 . S
C511 C510 1.288 . S
C511 C512 1.369 . S
C511 H577 0.932 . S
C512 C511 1.369 . S
C512 C513 1.398 . S
C512 C516 1.527 . S
C513 C512 1.398 . S
C513 C514 1.380 . S
C513 C527 1.497 . S
C514 C513 1.380 . S
C514 C515 1.383 . S
C514 C517 1.603 . S
C515 C510 1.377 . S
C515 C514 1.383 . S
C515 H578 0.929 . S
C516 C512 1.527 . S
C516 H579 0.961 . S
C516 H580 0.959 . S
C516 H581 0.959 . S
C517 C514 1.603 . S
C517 H582 0.960 . S
C517 H583 0.962 . S
C517 H584 0.961 . S
C518 C485 1.587 . S
C518 C519 1.360 . S
C518 C531 1.412 . S
C519 C518 1.360 . S
C519 C520 1.365 . S
C519 H585 0.929 . S
C520 C495 1.553 . S
C520 C519 1.365 . S
C520 C521 1.404 . S
C521 C520 1.404 . S
C521 C522 1.395 . S
C521 C532 1.451 . S
C522 C521 1.395 . S
C522 C523 1.322 . S
C522 H586 0.930 . S
C523 C522 1.322 . S
C523 C524 1.459 . S
C523 H587 0.929 . S
C524 C523 1.459 . S
C524 C525 1.445 . S
C524 C533 1.395 . S
C525 C503 1.432 . S
C525 C524 1.445 . S
C525 C526 1.370 . S
C526 C525 1.370 . S
C526 C527 1.438 . S
C526 H588 0.930 . S
C527 C513 1.497 . S
C527 C526 1.438 . S
C527 C528 1.360 . S
C528 C527 1.360 . S
C528 C529 1.401 . S
C528 C533 1.446 . S
C529 C528 1.401 . S
C529 C530 1.347 . S
C529 H589 0.929 . S
C530 C529 1.347 . S
C530 C531 1.455 . S
C530 H590 0.930 . S
C531 C518 1.412 . S
C531 C530 1.455 . S
C531 C532 1.331 . S
C532 C521 1.451 . S
C532 C531 1.331 . S
C532 C533 1.497 . S
C533 C524 1.395 . S
C533 C528 1.446 . S
C533 C532 1.497 . S
C534 C535 1.582 . S
C534 H591 0.962 . S
C534 H592 0.959 . S
C534 H593 0.958 . S
C535 C534 1.582 . S
C535 O538 1.458 . S
C535 H564 0.980 . S
O536 C481 1.426 . S
O536 C482 1.334 . S
O537 C509 1.412 . S
O537 C510 1.393 . S
O538 C500 1.435 . S
O538 C535 1.458 . S
O539 C491 1.468 . S
O539 C492 1.408 . S
H540 C481 0.980 . S
H541 C480 0.959 . S
H542 C480 0.959 . S
H543 C480 0.960 . S
H544 C483 0.929 . S
H545 C487 0.929 . S
H546 C488 0.959 . S
H547 C488 0.961 . S
H548 C488 0.961 . S
H549 C489 0.960 . S
H550 C489 0.960 . S
H551 C489 0.961 . S
H552 C491 0.980 . S
H553 C490 0.961 . S
H554 C490 0.960 . S
H555 C490 0.959 . S
H556 C493 0.930 . S
H557 C497 0.931 . S
H558 C498 0.959 . S
H559 C498 0.961 . S
H560 C498 0.959 . S
H561 C499 0.960 . S
H562 C499 0.960 . S
H563 C499 0.960 . S
H564 C535 0.980 . S
H565 C501 0.930 . S
H566 C505 0.930 . S
H567 C506 0.961 . S
H568 C506 0.960 . S
H569 C506 0.958 . S
H570 C507 0.961 . S
H571 C507 0.960 . S
H572 C507 0.960 . S
H573 C509 0.980 . S
H574 C508 0.961 . S
H575 C508 0.961 . S
H576 C508 0.959 . S
H577 C511 0.932 . S
H578 C515 0.929 . S
H579 C516 0.961 . S
H580 C516 0.959 . S
H581 C516 0.959 . S
H582 C517 0.960 . S
H583 C517 0.962 . S
H584 C517 0.961 . S
H585 C519 0.929 . S
H586 C522 0.930 . S
H587 C523 0.929 . S
H588 C526 0.930 . S
H589 C529 0.929 . S
H590 C530 0.930 . S
H591 C534 0.962 . S
H592 C534 0.959 . S
H593 C534 0.958 . S
C594 C595 1.560 . S
C594 H655 0.959 . S
C594 H656 0.959 . S
C594 H657 0.960 . S
C595 C594 1.560 . S
C595 O650 1.426 . S
C595 H654 0.980 . S
C596 C597 1.407 . S
C596 C601 1.418 . S
C596 O650 1.334 . S
C597 C596 1.407 . S
C597 C598 1.360 . S
C597 H658 0.929 . S
C598 C597 1.360 . S
C598 C599 1.401 . S
C598 C602 1.527 . S
C599 C598 1.401 . S
C599 C600 1.405 . S
C599 C632 1.587 . S
C600 C599 1.405 . S
C600 C601 1.332 . S
C600 C603 1.496 . S
C601 C596 1.418 . S
C601 C600 1.332 . S
C601 H659 0.929 . S
C602 C598 1.527 . S
C602 H660 0.959 . S
C602 H661 0.961 . S
C602 H662 0.961 . S
C603 C600 1.496 . S
C603 H663 0.960 . S
C603 H664 0.960 . S
C603 H665 0.961 . S
C604 C605 1.517 . S
C604 H667 0.961 . S
C604 H668 0.960 . S
C604 H669 0.959 . S
C605 C604 1.517 . S
C605 O653 1.468 . S
C605 H666 0.980 . S
C606 C607 1.349 . S
C606 C611 1.367 . S
C606 O653 1.408 . S
C607 C606 1.349 . S
C607 C608 1.407 . S
C607 H670 0.930 . S
C608 C607 1.407 . S
C608 C609 1.449 . S
C608 C612 1.535 . S
C609 C608 1.449 . S
C609 C610 1.384 . S
C609 C634 1.553 . S
C610 C609 1.384 . S
C610 C611 1.364 . S
C610 C613 1.450 . S
C611 C606 1.367 . S
C611 C610 1.364 . S
C611 H671 0.931 . S
C612 C608 1.535 . S
C612 H672 0.959 . S
C612 H673 0.961 . S
C612 H674 0.959 . S
C613 C610 1.450 . S
C613 H675 0.960 . S
C613 H676 0.960 . S
C613 H677 0.960 . S
C614 C615 1.309 . S
C614 C619 1.304 . S
C614 O652 1.435 . S
C615 C614 1.309 . S
C615 C616 1.476 . S
C615 H679 0.930 . S
C616 C615 1.476 . S
C616 C617 1.400 . S
C616 C620 1.567 . S
C617 C616 1.400 . S
C617 C618 1.373 . S
C617 C639 1.432 . S
C618 C617 1.373 . S
C618 C619 1.339 . S
C618 C621 1.530 . S
C619 C614 1.304 . S
C619 C618 1.339 . S
C619 H680 0.930 . S
C620 C616 1.567 . S
C620 H681 0.961 . S
C620 H682 0.960 . S
C620 H683 0.958 . S
C621 C618 1.530 . S
C621 H684 0.961 . S
C621 H685 0.960 . S
C621 H686 0.960 . S
C622 C623 1.530 . S
C622 H688 0.961 . S
C622 H689 0.961 . S
C622 H690 0.959 . S
C623 C622 1.530 . S
C623 O651 1.412 . S
C623 H687 0.980 . S
C624 C625 1.288 . S
C624 C629 1.377 . S
C624 O651 1.393 . S
C625 C624 1.288 . S
C625 C626 1.369 . S
C625 H691 0.932 . S
C626 C625 1.369 . S
C626 C627 1.398 . S
C626 C630 1.527 . S
C627 C626 1.398 . S
C627 C628 1.380 . S
C627 C641 1.497 . S
C628 C627 1.380 . S
C628 C629 1.383 . S
C628 C631 1.603 . S
C629 C624 1.377 . S
C629 C628 1.383 . S
C629 H692 0.929 . S
C630 C626 1.527 . S
C630 H693 0.961 . S
C630 H694 0.959 . S
C630 H695 0.959 . S
C631 C628 1.603 . S
C631 H696 0.960 . S
C631 H697 0.962 . S
C631 H698 0.961 . S
C632 C599 1.587 . S
C632 C633 1.360 . S
C632 C645 1.412 . S
C633 C632 1.360 . S
C633 C634 1.365 . S
C633 H699 0.929 . S
C634 C609 1.553 . S
C634 C633 1.365 . S
C634 C635 1.404 . S
C635 C634 1.404 . S
C635 C636 1.395 . S
C635 C646 1.451 . S
C636 C635 1.395 . S
C636 C637 1.322 . S
C636 H700 0.930 . S
C637 C636 1.322 . S
C637 C638 1.459 . S
C637 H701 0.929 . S
C638 C637 1.459 . S
C638 C639 1.445 . S
C638 C647 1.395 . S
C639 C617 1.432 . S
C639 C638 1.445 . S
C639 C640 1.370 . S
C640 C639 1.370 . S
C640 C641 1.438 . S
C640 H702 0.930 . S
C641 C627 1.497 . S
C641 C640 1.438 . S
C641 C642 1.360 . S
C642 C641 1.360 . S
C642 C643 1.401 . S
C642 C647 1.446 . S
C643 C642 1.401 . S
C643 C644 1.347 . S
C643 H703 0.929 . S
C644 C643 1.347 . S
C644 C645 1.455 . S
C644 H704 0.930 . S
C645 C632 1.412 . S
C645 C644 1.455 . S
C645 C646 1.331 . S
C646 C635 1.451 . S
C646 C645 1.331 . S
C646 C647 1.497 . S
C647 C638 1.395 . S
C647 C642 1.446 . S
C647 C646 1.497 . S
C648 C649 1.582 . S
C648 H705 0.962 . S
C648 H706 0.959 . S
C648 H707 0.958 . S
C649 C648 1.582 . S
C649 O652 1.458 . S
C649 H678 0.980 . S
O650 C595 1.426 . S
O650 C596 1.334 . S
O651 C623 1.412 . S
O651 C624 1.393 . S
O652 C614 1.435 . S
O652 C649 1.458 . S
O653 C605 1.468 . S
O653 C606 1.408 . S
H654 C595 0.980 . S
H655 C594 0.959 . S
H656 C594 0.959 . S
H657 C594 0.960 . S
H658 C597 0.929 . S
H659 C601 0.929 . S
H660 C602 0.959 . S
H661 C602 0.961 . S
H662 C602 0.961 . S
H663 C603 0.960 . S
H664 C603 0.960 . S
H665 C603 0.961 . S
H666 C605 0.980 . S
H667 C604 0.961 . S
H668 C604 0.960 . S
H669 C604 0.959 . S
H670 C607 0.930 . S
H671 C611 0.931 . S
H672 C612 0.959 . S
H673 C612 0.961 . S
H674 C612 0.959 . S
H675 C613 0.960 . S
H676 C613 0.960 . S
H677 C613 0.960 . S
H678 C649 0.980 . S
H679 C615 0.930 . S
H680 C619 0.930 . S
H681 C620 0.961 . S
H682 C620 0.960 . S
H683 C620 0.958 . S
H684 C621 0.961 . S
H685 C621 0.960 . S
H686 C621 0.960 . S
H687 C623 0.980 . S
H688 C622 0.961 . S
H689 C622 0.961 . S
H690 C622 0.959 . S
H691 C625 0.932 . S
H692 C629 0.929 . S
H693 C630 0.961 . S
H694 C630 0.959 . S
H695 C630 0.959 . S
H696 C631 0.960 . S
H697 C631 0.962 . S
H698 C631 0.961 . S
H699 C633 0.929 . S
H700 C636 0.930 . S
H701 C637 0.929 . S
H702 C640 0.930 . S
H703 C643 0.929 . S
H704 C644 0.930 . S
H705 C648 0.962 . S
H706 C648 0.959 . S
H707 C648 0.958 . S
C708 C709 1.560 . S
C708 H769 0.959 . S
C708 H770 0.959 . S
C708 H771 0.960 . S
C709 C708 1.560 . S
C709 O764 1.426 . S
C709 H768 0.980 . S
C710 C711 1.407 . S
C710 C715 1.418 . S
C710 O764 1.334 . S
C711 C710 1.407 . S
C711 C712 1.360 . S
C711 H772 0.929 . S
C712 C711 1.360 . S
C712 C713 1.401 . S
C712 C716 1.527 . S
C713 C712 1.401 . S
C713 C714 1.405 . S
C713 C746 1.587 . S
C714 C713 1.405 . S
C714 C715 1.332 . S
C714 C717 1.496 . S
C715 C710 1.418 . S
C715 C714 1.332 . S
C715 H773 0.929 . S
C716 C712 1.527 . S
C716 H774 0.959 . S
C716 H775 0.961 . S
C716 H776 0.961 . S
C717 C714 1.496 . S
C717 H777 0.960 . S
C717 H778 0.960 . S
C717 H779 0.961 . S
C718 C719 1.517 . S
C718 H781 0.961 . S
C718 H782 0.960 . S
C718 H783 0.959 . S
C719 C718 1.517 . S
C719 O767 1.468 . S
C719 H780 0.980 . S
C720 C721 1.349 . S
C720 C725 1.367 . S
C720 O767 1.408 . S
C721 C720 1.349 . S
C721 C722 1.407 . S
C721 H784 0.930 . S
C722 C721 1.407 . S
C722 C723 1.449 . S
C722 C726 1.535 . S
C723 C722 1.449 . S
C723 C724 1.384 . S
C723 C748 1.553 . S
C724 C723 1.384 . S
C724 C725 1.364 . S
C724 C727 1.450 . S
C725 C720 1.367 . S
C725 C724 1.364 . S
C725 H785 0.931 . S
C726 C722 1.535 . S
C726 H786 0.959 . S
C726 H787 0.961 . S
C726 H788 0.959 . S
C727 C724 1.450 . S
C727 H789 0.960 . S
C727 H790 0.960 . S
C727 H791 0.960 . S
C728 C729 1.309 . S
C728 C733 1.304 . S
C728 O766 1.435 . S
C729 C728 1.309 . S
C729 C730 1.476 . S
C729 H793 0.930 . S
C730 C729 1.476 . S
C730 C731 1.400 . S
C730 C734 1.567 . S
C731 C730 1.400 . S
C731 C732 1.373 . S
C731 C753 1.432 . S
C732 C731 1.373 . S
C732 C733 1.339 . S
C732 C735 1.530 . S
C733 C728 1.304 . S
C733 C732 1.339 . S
C733 H794 0.930 . S
C734 C730 1.567 . S
C734 H795 0.961 . S
C734 H796 0.960 . S
C734 H797 0.958 . S
C735 C732 1.530 . S
C735 H798 0.961 . S
C735 H799 0.960 . S
C735 H800 0.960 . S
C736 C737 1.530 . S
C736 H802 0.961 . S
C736 H803 0.961 . S
C736 H804 0.959 . S
C737 C736 1.530 . S
C737 O765 1.412 . S
C737 H801 0.980 . S
C738 C739 1.288 . S
C738 C743 1.377 . S
C738 O765 1.393 . S
C739 C738 1.288 . S
C739 C740 1.369 . S
C739 H805 0.932 . S
C740 C739 1.369 . S
C740 C741 1.398 . S
C740 C744 1.527 . S
C741 C740 1.398 . S
C741 C742 1.380 . S
C741 C755 1.497 . S
C742 C741 1.380 . S
C742 C743 1.383 . S
C742 C745 1.603 . S
C743 C738 1.377 . S
C743 C742 1.383 . S
C743 H806 0.929 . S
C744 C740 1.527 . S
C744 H807 0.961 . S
C744 H808 0.959 . S
C744 H809 0.959 . S
C745 C742 1.603 . S
C745 H810 0.960 . S
C745 H811 0.962 . S
C745 H812 0.961 . S
C746 C713 1.587 . S
C746 C747 1.360 . S
C746 C759 1.412 . S
C747 C746 1.360 . S
C747 C748 1.365 . S
C747 H813 0.929 . S
C748 C723 1.553 . S
C748 C747 1.365 . S
C748 C749 1.404 . S
C749 C748 1.404 . S
C749 C750 1.395 . S
C749 C760 1.451 . S
C750 C749 1.395 . S
C750 C751 1.322 . S
C750 H814 0.930 . S
C751 C750 1.322 . S
C751 C752 1.459 . S
C751 H815 0.929 . S
C752 C751 1.459 . S
C752 C753 1.445 . S
C752 C761 1.395 . S
C753 C731 1.432 . S
C753 C752 1.445 . S
C753 C754 1.370 . S
C754 C753 1.370 . S
C754 C755 1.438 . S
C754 H816 0.930 . S
C755 C741 1.497 . S
C755 C754 1.438 . S
C755 C756 1.360 . S
C756 C755 1.360 . S
C756 C757 1.401 . S
C756 C761 1.446 . S
C757 C756 1.401 . S
C757 C758 1.347 . S
C757 H817 0.929 . S
C758 C757 1.347 . S
C758 C759 1.455 . S
C758 H818 0.930 . S
C759 C746 1.412 . S
C759 C758 1.455 . S
C759 C760 1.331 . S
C760 C749 1.451 . S
C760 C759 1.331 . S
C760 C761 1.497 . S
C761 C752 1.395 . S
C761 C756 1.446 . S
C761 C760 1.497 . S
C762 C763 1.582 . S
C762 H819 0.962 . S
C762 H820 0.959 . S
C762 H821 0.958 . S
C763 C762 1.582 . S
C763 O766 1.458 . S
C763 H792 0.980 . S
O764 C709 1.426 . S
O764 C710 1.334 . S
O765 C737 1.412 . S
O765 C738 1.393 . S
O766 C728 1.435 . S
O766 C763 1.458 . S
O767 C719 1.468 . S
O767 C720 1.408 . S
H768 C709 0.980 . S
H769 C708 0.959 . S
H770 C708 0.959 . S
H771 C708 0.960 . S
H772 C711 0.929 . S
H773 C715 0.929 . S
H774 C716 0.959 . S
H775 C716 0.961 . S
H776 C716 0.961 . S
H777 C717 0.960 . S
H778 C717 0.960 . S
H779 C717 0.961 . S
H780 C719 0.980 . S
H781 C718 0.961 . S
H782 C718 0.960 . S
H783 C718 0.959 . S
H784 C721 0.930 . S
H785 C725 0.931 . S
H786 C726 0.959 . S
H787 C726 0.961 . S
H788 C726 0.959 . S
H789 C727 0.960 . S
H790 C727 0.960 . S
H791 C727 0.960 . S
H792 C763 0.980 . S
H793 C729 0.930 . S
H794 C733 0.930 . S
H795 C734 0.961 . S
H796 C734 0.960 . S
H797 C734 0.958 . S
H798 C735 0.961 . S
H799 C735 0.960 . S
H800 C735 0.960 . S
H801 C737 0.980 . S
H802 C736 0.961 . S
H803 C736 0.961 . S
H804 C736 0.959 . S
H805 C739 0.932 . S
H806 C743 0.929 . S
H807 C744 0.961 . S
H808 C744 0.959 . S
H809 C744 0.959 . S
H810 C745 0.960 . S
H811 C745 0.962 . S
H812 C745 0.961 . S
H813 C747 0.929 . S
H814 C750 0.930 . S
H815 C751 0.929 . S
H816 C754 0.930 . S
H817 C757 0.929 . S
H818 C758 0.930 . S
H819 C762 0.962 . S
H820 C762 0.959 . S
H821 C762 0.958 . S
C822 C823 1.560 . S
C822 H883 0.959 . S
C822 H884 0.959 . S
C822 H885 0.960 . S
C823 C822 1.560 . S
C823 O878 1.426 . S
C823 H882 0.980 . S
C824 C825 1.407 . S
C824 C829 1.418 . S
C824 O878 1.334 . S
C825 C824 1.407 . S
C825 C826 1.360 . S
C825 H886 0.929 . S
C826 C825 1.360 . S
C826 C827 1.401 . S
C826 C830 1.527 . S
C827 C826 1.401 . S
C827 C828 1.405 . S
C827 C860 1.587 . S
C828 C827 1.405 . S
C828 C829 1.332 . S
C828 C831 1.496 . S
C829 C824 1.418 . S
C829 C828 1.332 . S
C829 H887 0.929 . S
C830 C826 1.527 . S
C830 H888 0.959 . S
C830 H889 0.961 . S
C830 H890 0.961 . S
C831 C828 1.496 . S
C831 H891 0.960 . S
C831 H892 0.960 . S
C831 H893 0.961 . S
C832 C833 1.517 . S
C832 H895 0.961 . S
C832 H896 0.960 . S
C832 H897 0.959 . S
C833 C832 1.517 . S
C833 O881 1.468 . S
C833 H894 0.980 . S
C834 C835 1.349 . S
C834 C839 1.367 . S
C834 O881 1.408 . S
C835 C834 1.349 . S
C835 C836 1.407 . S
C835 H898 0.930 . S
C836 C835 1.407 . S
C836 C837 1.449 . S
C836 C840 1.535 . S
C837 C836 1.449 . S
C837 C838 1.384 . S
C837 C862 1.553 . S
C838 C837 1.384 . S
C838 C839 1.364 . S
C838 C841 1.450 . S
C839 C834 1.367 . S
C839 C838 1.364 . S
C839 H899 0.931 . S
C840 C836 1.535 . S
C840 H900 0.959 . S
C840 H901 0.961 . S
C840 H902 0.959 . S
C841 C838 1.450 . S
C841 H903 0.960 . S
C841 H904 0.960 . S
C841 H905 0.960 . S
C842 C843 1.309 . S
C842 C847 1.304 . S
C842 O880 1.435 . S
C843 C842 1.309 . S
C843 C844 1.476 . S
C843 H907 0.930 . S
C844 C843 1.476 . S
C844 C845 1.400 . S
C844 C848 1.567 . S
C845 C844 1.400 . S
C845 C846 1.373 . S
C845 C867 1.432 . S
C846 C845 1.373 . S
C846 C847 1.339 . S
C846 C849 1.530 . S
C847 C842 1.304 . S
C847 C846 1.339 . S
C847 H908 0.930 . S
C848 C844 1.567 . S
C848 H909 0.961 . S
C848 H910 0.960 . S
C848 H911 0.958 . S
C849 C846 1.530 . S
C849 H912 0.961 . S
C849 H913 0.960 . S
C849 H914 0.960 . S
C850 C851 1.530 . S
C850 H916 0.961 . S
C850 H917 0.961 . S
C850 H918 0.959 . S
C851 C850 1.530 . S
C851 O879 1.412 . S
C851 H915 0.980 . S
C852 C853 1.288 . S
C852 C857 1.377 . S
C852 O879 1.393 . S
C853 C852 1.288 . S
C853 C854 1.369 . S
C853 H919 0.932 . S
C854 C853 1.369 . S
C854 C855 1.398 . S
C854 C858 1.527 . S
C855 C854 1.398 . S
C855 C856 1.380 . S
C855 C869 1.497 . S
C856 C855 1.380 . S
C856 C857 1.383 . S
C856 C859 1.603 . S
C857 C852 1.377 . S
C857 C856 1.383 . S
C857 H920 0.929 . S
C858 C854 1.527 . S
C858 H921 0.961 . S
C858 H922 0.959 . S
C858 H923 0.959 . S
C859 C856 1.603 . S
C859 H924 0.960 . S
C859 H925 0.962 . S
C859 H926 0.961 . S
C860 C827 1.587 . S
C860 C861 1.360 . S
C860 C873 1.412 . S
C861 C860 1.360 . S
C861 C862 1.365 . S
C861 H927 0.929 . S
C862 C837 1.553 . S
C862 C861 1.365 . S
C862 C863 1.404 . S
C863 C862 1.404 . S
C863 C864 1.395 . S
C863 C874 1.451 . S
C864 C863 1.395 . S
C864 C865 1.322 . S
C864 H928 0.930 . S
C865 C864 1.322 . S
C865 C866 1.459 . S
C865 H929 0.929 . S
C866 C865 1.459 . S
C866 C867 1.445 . S
C866 C875 1.395 . S
C867 C845 1.432 . S
C867 C866 1.445 . S
C867 C868 1.370 . S
C868 C867 1.370 . S
C868 C869 1.438 . S
C868 H930 0.930 . S
C869 C855 1.497 . S
C869 C868 1.438 . S
C869 C870 1.360 . S
C870 C869 1.360 . S
C870 C871 1.401 . S
C870 C875 1.446 . S
C871 C870 1.401 . S
C871 C872 1.347 . S
C871 H931 0.929 . S
C872 C871 1.347 . S
C872 C873 1.455 . S
C872 H932 0.930 . S
C873 C860 1.412 . S
C873 C872 1.455 . S
C873 C874 1.331 . S
C874 C863 1.451 . S
C874 C873 1.331 . S
C874 C875 1.497 . S
C875 C866 1.395 . S
C875 C870 1.446 . S
C875 C874 1.497 . S
C876 C877 1.582 . S
C876 H933 0.962 . S
C876 H934 0.959 . S
C876 H935 0.958 . S
C877 C876 1.582 . S
C877 O880 1.458 . S
C877 H906 0.980 . S
O878 C823 1.426 . S
O878 C824 1.334 . S
O879 C851 1.412 . S
O879 C852 1.393 . S
O880 C842 1.435 . S
O880 C877 1.458 . S
O881 C833 1.468 . S
O881 C834 1.408 . S
H882 C823 0.980 . S
H883 C822 0.959 . S
H884 C822 0.959 . S
H885 C822 0.960 . S
H886 C825 0.929 . S
H887 C829 0.929 . S
H888 C830 0.959 . S
H889 C830 0.961 . S
H890 C830 0.961 . S
H891 C831 0.960 . S
H892 C831 0.960 . S
H893 C831 0.961 . S
H894 C833 0.980 . S
H895 C832 0.961 . S
H896 C832 0.960 . S
H897 C832 0.959 . S
H898 C835 0.930 . S
H899 C839 0.931 . S
H900 C840 0.959 . S
H901 C840 0.961 . S
H902 C840 0.959 . S
H903 C841 0.960 . S
H904 C841 0.960 . S
H905 C841 0.960 . S
H906 C877 0.980 . S
H907 C843 0.930 . S
H908 C847 0.930 . S
H909 C848 0.961 . S
H910 C848 0.960 . S
H911 C848 0.958 . S
H912 C849 0.961 . S
H913 C849 0.960 . S
H914 C849 0.960 . S
H915 C851 0.980 . S
H916 C850 0.961 . S
H917 C850 0.961 . S
H918 C850 0.959 . S
H919 C853 0.932 . S
H920 C857 0.929 . S
H921 C858 0.961 . S
H922 C858 0.959 . S
H923 C858 0.959 . S
H924 C859 0.960 . S
H925 C859 0.962 . S
H926 C859 0.961 . S
H927 C861 0.929 . S
H928 C864 0.930 . S
H929 C865 0.929 . S
H930 C868 0.930 . S
H931 C871 0.929 . S
H932 C872 0.930 . S
H933 C876 0.962 . S
H934 C876 0.959 . S
H935 C876 0.958 . S
C936 C937 1.560 . S
C936 H997 0.959 . S
C936 H998 0.959 . S
C936 H999 0.960 . S
C937 C936 1.560 . S
C937 O992 1.426 . S
C937 H996 0.980 . S
C938 C939 1.407 . S
C938 C943 1.418 . S
C938 O992 1.334 . S
C939 C938 1.407 . S
C939 C940 1.360 . S
C939 H1000 0.929 . S
C940 C939 1.360 . S
C940 C941 1.401 . S
C940 C944 1.527 . S
C941 C940 1.401 . S
C941 C942 1.405 . S
C941 C974 1.587 . S
C942 C941 1.405 . S
C942 C943 1.332 . S
C942 C945 1.496 . S
C943 C938 1.418 . S
C943 C942 1.332 . S
C943 H1001 0.929 . S
C944 C940 1.527 . S
C944 H1002 0.959 . S
C944 H1003 0.961 . S
C944 H1004 0.961 . S
C945 C942 1.496 . S
C945 H1005 0.960 . S
C945 H1006 0.960 . S
C945 H1007 0.961 . S
C946 C947 1.517 . S
C946 H1009 0.961 . S
C946 H1010 0.960 . S
C946 H1011 0.959 . S
C947 C946 1.517 . S
C947 O995 1.468 . S
C947 H1008 0.980 . S
C948 C949 1.349 . S
C948 C953 1.367 . S
C948 O995 1.408 . S
C949 C948 1.349 . S
C949 C950 1.407 . S
C949 H1012 0.930 . S
C950 C949 1.407 . S
C950 C951 1.449 . S
C950 C954 1.535 . S
C951 C950 1.449 . S
C951 C952 1.384 . S
C951 C976 1.553 . S
C952 C951 1.384 . S
C952 C953 1.364 . S
C952 C955 1.450 . S
C953 C948 1.367 . S
C953 C952 1.364 . S
C953 H1013 0.931 . S
C954 C950 1.535 . S
C954 H1014 0.959 . S
C954 H1015 0.961 . S
C954 H1016 0.959 . S
C955 C952 1.450 . S
C955 H1017 0.960 . S
C955 H1018 0.960 . S
C955 H1019 0.960 . S
C956 C957 1.309 . S
C956 C961 1.304 . S
C956 O994 1.435 . S
C957 C956 1.309 . S
C957 C958 1.476 . S
C957 H1021 0.930 . S
C958 C957 1.476 . S
C958 C959 1.400 . S
C958 C962 1.567 . S
C959 C958 1.400 . S
C959 C960 1.373 . S
C959 C981 1.432 . S
C960 C959 1.373 . S
C960 C961 1.339 . S
C960 C963 1.530 . S
C961 C956 1.304 . S
C961 C960 1.339 . S
C961 H1022 0.930 . S
C962 C958 1.567 . S
C962 H1023 0.961 . S
C962 H1024 0.960 . S
C962 H1025 0.958 . S
C963 C960 1.530 . S
C963 H1026 0.961 . S
C963 H1027 0.960 . S
C963 H1028 0.960 . S
C964 C965 1.530 . S
C964 H1030 0.961 . S
C964 H1031 0.961 . S
C964 H1032 0.959 . S
C965 C964 1.530 . S
C965 O993 1.412 . S
C965 H1029 0.980 . S
C966 C967 1.288 . S
C966 C971 1.377 . S
C966 O993 1.393 . S
C967 C966 1.288 . S
C967 C968 1.369 . S
C967 H1033 0.932 . S
C968 C967 1.369 . S
C968 C969 1.398 . S
C968 C972 1.527 . S
C969 C968 1.398 . S
C969 C970 1.380 . S
C969 C983 1.497 . S
C970 C969 1.380 . S
C970 C971 1.383 . S
C970 C973 1.603 . S
C971 C966 1.377 . S
C971 C970 1.383 . S
C971 H1034 0.929 . S
C972 C968 1.527 . S
C972 H1035 0.961 . S
C972 H1036 0.959 . S
C972 H1037 0.959 . S
C973 C970 1.603 . S
C973 H1038 0.960 . S
C973 H1039 0.962 . S
C973 H1040 0.961 . S
C974 C941 1.587 . S
C974 C975 1.360 . S
C974 C987 1.412 . S
C975 C974 1.360 . S
C975 C976 1.365 . S
C975 H1041 0.929 . S
C976 C951 1.553 . S
C976 C975 1.365 . S
C976 C977 1.404 . S
C977 C976 1.404 . S
C977 C978 1.395 . S
C977 C988 1.451 . S
C978 C977 1.395 . S
C978 C979 1.322 . S
C978 H1042 0.930 . S
C979 C978 1.322 . S
C979 C980 1.459 . S
C979 H1043 0.929 . S
C980 C979 1.459 . S
C980 C981 1.445 . S
C980 C989 1.395 . S
C981 C959 1.432 . S
C981 C980 1.445 . S
C981 C982 1.370 . S
C982 C981 1.370 . S
C982 C983 1.438 . S
C982 H1044 0.930 . S
C983 C969 1.497 . S
C983 C982 1.438 . S
C983 C984 1.360 . S
C984 C983 1.360 . S
C984 C985 1.401 . S
C984 C989 1.446 . S
C985 C984 1.401 . S
C985 C986 1.347 . S
C985 H1045 0.929 . S
C986 C985 1.347 . S
C986 C987 1.455 . S
C986 H1046 0.930 . S
C987 C974 1.412 . S
C987 C986 1.455 . S
C987 C988 1.331 . S
C988 C977 1.451 . S
C988 C987 1.331 . S
C988 C989 1.497 . S
C989 C980 1.395 . S
C989 C984 1.446 . S
C989 C988 1.497 . S
C990 C991 1.582 . S
C990 H1047 0.962 . S
C990 H1048 0.959 . S
C990 H1049 0.958 . S
C991 C990 1.582 . S
C991 O994 1.458 . S
C991 H1020 0.980 . S
O992 C937 1.426 . S
O992 C938 1.334 . S
O993 C965 1.412 . S
O993 C966 1.393 . S
O994 C956 1.435 . S
O994 C991 1.458 . S
O995 C947 1.468 . S
O995 C948 1.408 . S
H996 C937 0.980 . S
H997 C936 0.959 . S
H998 C936 0.959 . S
H999 C936 0.960 . S
H1000 C939 0.929 . S
H1001 C943 0.929 . S
H1002 C944 0.959 . S
H1003 C944 0.961 . S
H1004 C944 0.961 . S
H1005 C945 0.960 . S
H1006 C945 0.960 . S
H1007 C945 0.961 . S
H1008 C947 0.980 . S
H1009 C946 0.961 . S
H1010 C946 0.960 . S
H1011 C946 0.959 . S
H1012 C949 0.930 . S
H1013 C953 0.931 . S
H1014 C954 0.959 . S
H1015 C954 0.961 . S
H1016 C954 0.959 . S
H1017 C955 0.960 . S
H1018 C955 0.960 . S
H1019 C955 0.960 . S
H1020 C991 0.980 . S
H1021 C957 0.930 . S
H1022 C961 0.930 . S
H1023 C962 0.961 . S
H1024 C962 0.960 . S
H1025 C962 0.958 . S
H1026 C963 0.961 . S
H1027 C963 0.960 . S
H1028 C963 0.960 . S
H1029 C965 0.980 . S
H1030 C964 0.961 . S
H1031 C964 0.961 . S
H1032 C964 0.959 . S
H1033 C967 0.932 . S
H1034 C971 0.929 . S
H1035 C972 0.961 . S
H1036 C972 0.959 . S
H1037 C972 0.959 . S
H1038 C973 0.960 . S
H1039 C973 0.962 . S
H1040 C973 0.961 . S
H1041 C975 0.929 . S
H1042 C978 0.930 . S
H1043 C979 0.929 . S
H1044 C982 0.930 . S
H1045 C985 0.929 . S
H1046 C986 0.930 . S
H1047 C990 0.962 . S
H1048 C990 0.959 . S
H1049 C990 0.958 . S
C1050 C1051 1.560 . S
C1050 H1111 0.959 . S
C1050 H1112 0.959 . S
C1050 H1113 0.960 . S
C1051 C1050 1.560 . S
C1051 O1106 1.426 . S
C1051 H1110 0.980 . S
C1052 C1053 1.407 . S
C1052 C1057 1.418 . S
C1052 O1106 1.334 . S
C1053 C1052 1.407 . S
C1053 C1054 1.360 . S
C1053 H1114 0.929 . S
C1054 C1053 1.360 . S
C1054 C1055 1.401 . S
C1054 C1058 1.527 . S
C1055 C1054 1.401 . S
C1055 C1056 1.405 . S
C1055 C1088 1.587 . S
C1056 C1055 1.405 . S
C1056 C1057 1.332 . S
C1056 C1059 1.496 . S
C1057 C1052 1.418 . S
C1057 C1056 1.332 . S
C1057 H1115 0.929 . S
C1058 C1054 1.527 . S
C1058 H1116 0.959 . S
C1058 H1117 0.961 . S
C1058 H1118 0.961 . S
C1059 C1056 1.496 . S
C1059 H1119 0.960 . S
C1059 H1120 0.960 . S
C1059 H1121 0.961 . S
C1060 C1061 1.517 . S
C1060 H1123 0.961 . S
C1060 H1124 0.960 . S
C1060 H1125 0.959 . S
C1061 C1060 1.517 . S
C1061 O1109 1.468 . S
C1061 H1122 0.980 . S
C1062 C1063 1.349 . S
C1062 C1067 1.367 . S
C1062 O1109 1.408 . S
C1063 C1062 1.349 . S
C1063 C1064 1.407 . S
C1063 H1126 0.930 . S
C1064 C1063 1.407 . S
C1064 C1065 1.449 . S
C1064 C1068 1.535 . S
C1065 C1064 1.449 . S
C1065 C1066 1.384 . S
C1065 C1090 1.553 . S
C1066 C1065 1.384 . S
C1066 C1067 1.364 . S
C1066 C1069 1.450 . S
C1067 C1062 1.367 . S
C1067 C1066 1.364 . S
C1067 H1127 0.931 . S
C1068 C1064 1.535 . S
C1068 H1128 0.959 . S
C1068 H1129 0.961 . S
C1068 H1130 0.959 . S
C1069 C1066 1.450 . S
C1069 H1131 0.960 . S
C1069 H1132 0.960 . S
C1069 H1133 0.960 . S
C1070 C1071 1.309 . S
C1070 C1075 1.304 . S
C1070 O1108 1.435 . S
C1071 C1070 1.309 . S
C1071 C1072 1.476 . S
C1071 H1135 0.930 . S
C1072 C1071 1.476 . S
C1072 C1073 1.400 . S
C1072 C1076 1.567 . S
C1073 C1072 1.400 . S
C1073 C1074 1.373 . S
C1073 C1095 1.432 . S
C1074 C1073 1.373 . S
C1074 C1075 1.339 . S
C1074 C1077 1.530 . S
C1075 C1070 1.304 . S
C1075 C1074 1.339 . S
C1075 H1136 0.930 . S
C1076 C1072 1.567 . S
C1076 H1137 0.961 . S
C1076 H1138 0.960 . S
C1076 H1139 0.958 . S
C1077 C1074 1.530 . S
C1077 H1140 0.961 . S
C1077 H1141 0.960 . S
C1077 H1142 0.960 . S
C1078 C1079 1.530 . S
C1078 H1144 0.961 . S
C1078 H1145 0.961 . S
C1078 H1146 0.959 . S
C1079 C1078 1.530 . S
C1079 O1107 1.412 . S
C1079 H1143 0.980 . S
C1080 C1081 1.288 . S
C1080 C1085 1.377 . S
C1080 O1107 1.393 . S
C1081 C1080 1.288 . S
C1081 C1082 1.369 . S
C1081 H1147 0.932 . S
C1082 C1081 1.369 . S
C1082 C1083 1.398 . S
C1082 C1086 1.527 . S
C1083 C1082 1.398 . S
C1083 C1084 1.380 . S
C1083 C1097 1.497 . S
C1084 C1083 1.380 . S
C1084 C1085 1.383 . S
C1084 C1087 1.603 . S
C1085 C1080 1.377 . S
C1085 C1084 1.383 . S
C1085 H1148 0.929 . S
C1086 C1082 1.527 . S
C1086 H1149 0.961 . S
C1086 H1150 0.959 . S
C1086 H1151 0.959 . S
C1087 C1084 1.603 . S
C1087 H1152 0.960 . S
C1087 H1153 0.962 . S
C1087 H1154 0.961 . S
C1088 C1055 1.587 . S
C1088 C1089 1.360 . S
C1088 C1101 1.412 . S
C1089 C1088 1.360 . S
C1089 C1090 1.365 . S
C1089 H1155 0.929 . S
C1090 C1065 1.553 . S
C1090 C1089 1.365 . S
C1090 C1091 1.404 . S
C1091 C1090 1.404 . S
C1091 C1092 1.395 . S
C1091 C1102 1.451 . S
C1092 C1091 1.395 . S
C1092 C1093 1.322 . S
C1092 H1156 0.930 . S
C1093 C1092 1.322 . S
C1093 C1094 1.459 . S
C1093 H1157 0.929 . S
C1094 C1093 1.459 . S
C1094 C1095 1.445 . S
C1094 C1103 1.395 . S
C1095 C1073 1.432 . S
C1095 C1094 1.445 . S
C1095 C1096 1.370 . S
C1096 C1095 1.370 . S
C1096 C1097 1.438 . S
C1096 H1158 0.930 . S
C1097 C1083 1.497 . S
C1097 C1096 1.438 . S
C1097 C1098 1.360 . S
C1098 C1097 1.360 . S
C1098 C1099 1.401 . S
C1098 C1103 1.446 . S
C1099 C1098 1.401 . S
C1099 C1100 1.347 . S
C1099 H1159 0.929 . S
C1100 C1099 1.347 . S
C1100 C1101 1.455 . S
C1100 H1160 0.930 . S
C1101 C1088 1.412 . S
C1101 C1100 1.455 . S
C1101 C1102 1.331 . S
C1102 C1091 1.451 . S
C1102 C1101 1.331 . S
C1102 C1103 1.497 . S
C1103 C1094 1.395 . S
C1103 C1098 1.446 . S
C1103 C1102 1.497 . S
C1104 C1105 1.582 . S
C1104 H1161 0.962 . S
C1104 H1162 0.959 . S
C1104 H1163 0.958 . S
C1105 C1104 1.582 . S
C1105 O1108 1.458 . S
C1105 H1134 0.980 . S
O1106 C1051 1.426 . S
O1106 C1052 1.334 . S
O1107 C1079 1.412 . S
O1107 C1080 1.393 . S
O1108 C1070 1.435 . S
O1108 C1105 1.458 . S
O1109 C1061 1.468 . S
O1109 C1062 1.408 . S
H1110 C1051 0.980 . S
H1111 C1050 0.959 . S
H1112 C1050 0.959 . S
H1113 C1050 0.960 . S
H1114 C1053 0.929 . S
H1115 C1057 0.929 . S
H1116 C1058 0.959 . S
H1117 C1058 0.961 . S
H1118 C1058 0.961 . S
H1119 C1059 0.960 . S
H1120 C1059 0.960 . S
H1121 C1059 0.961 . S
H1122 C1061 0.980 . S
H1123 C1060 0.961 . S
H1124 C1060 0.960 . S
H1125 C1060 0.959 . S
H1126 C1063 0.930 . S
H1127 C1067 0.931 . S
H1128 C1068 0.959 . S
H1129 C1068 0.961 . S
H1130 C1068 0.959 . S
H1131 C1069 0.960 . S
H1132 C1069 0.960 . S
H1133 C1069 0.960 . S
H1134 C1105 0.980 . S
H1135 C1071 0.930 . S
H1136 C1075 0.930 . S
H1137 C1076 0.961 . S
H1138 C1076 0.960 . S
H1139 C1076 0.958 . S
H1140 C1077 0.961 . S
H1141 C1077 0.960 . S
H1142 C1077 0.960 . S
H1143 C1079 0.980 . S
H1144 C1078 0.961 . S
H1145 C1078 0.961 . S
H1146 C1078 0.959 . S
H1147 C1081 0.932 . S
H1148 C1085 0.929 . S
H1149 C1086 0.961 . S
H1150 C1086 0.959 . S
H1151 C1086 0.959 . S
H1152 C1087 0.960 . S
H1153 C1087 0.962 . S
H1154 C1087 0.961 . S
H1155 C1089 0.929 . S
H1156 C1092 0.930 . S
H1157 C1093 0.929 . S
H1158 C1096 0.930 . S
H1159 C1099 0.929 . S
H1160 C1100 0.930 . S
H1161 C1104 0.962 . S
H1162 C1104 0.959 . S
H1163 C1104 0.958 . S
C1164 C1165 1.560 . S
C1164 H1225 0.959 . S
C1164 H1226 0.959 . S
C1164 H1227 0.960 . S
C1165 C1164 1.560 . S
C1165 O1220 1.426 . S
C1165 H1224 0.980 . S
C1166 C1167 1.407 . S
C1166 C1171 1.418 . S
C1166 O1220 1.334 . S
C1167 C1166 1.407 . S
C1167 C1168 1.360 . S
C1167 H1228 0.929 . S
C1168 C1167 1.360 . S
C1168 C1169 1.401 . S
C1168 C1172 1.527 . S
C1169 C1168 1.401 . S
C1169 C1170 1.405 . S
C1169 C1202 1.587 . S
C1170 C1169 1.405 . S
C1170 C1171 1.332 . S
C1170 C1173 1.496 . S
C1171 C1166 1.418 . S
C1171 C1170 1.332 . S
C1171 H1229 0.929 . S
C1172 C1168 1.527 . S
C1172 H1230 0.959 . S
C1172 H1231 0.961 . S
C1172 H1232 0.961 . S
C1173 C1170 1.496 . S
C1173 H1233 0.960 . S
C1173 H1234 0.960 . S
C1173 H1235 0.961 . S
C1174 C1175 1.517 . S
C1174 H1237 0.961 . S
C1174 H1238 0.960 . S
C1174 H1239 0.959 . S
C1175 C1174 1.517 . S
C1175 O1223 1.468 . S
C1175 H1236 0.980 . S
C1176 C1177 1.349 . S
C1176 C1181 1.367 . S
C1176 O1223 1.408 . S
C1177 C1176 1.349 . S
C1177 C1178 1.407 . S
C1177 H1240 0.930 . S
C1178 C1177 1.407 . S
C1178 C1179 1.449 . S
C1178 C1182 1.535 . S
C1179 C1178 1.449 . S
C1179 C1180 1.384 . S
C1179 C1204 1.553 . S
C1180 C1179 1.384 . S
C1180 C1181 1.364 . S
C1180 C1183 1.450 . S
C1181 C1176 1.367 . S
C1181 C1180 1.364 . S
C1181 H1241 0.931 . S
C1182 C1178 1.535 . S
C1182 H1242 0.959 . S
C1182 H1243 0.961 . S
C1182 H1244 0.959 . S
C1183 C1180 1.450 . S
C1183 H1245 0.960 . S
C1183 H1246 0.960 . S
C1183 H1247 0.960 . S
C1184 C1185 1.309 . S
C1184 C1189 1.304 . S
C1184 O1222 1.435 . S
C1185 C1184 1.309 . S
C1185 C1186 1.476 . S
C1185 H1249 0.930 . S
C1186 C1185 1.476 . S
C1186 C1187 1.400 . S
C1186 C1190 1.567 . S
C1187 C1186 1.400 . S
C1187 C1188 1.373 . S
C1187 C1209 1.432 . S
C1188 C1187 1.373 . S
C1188 C1189 1.339 . S
C1188 C1191 1.530 . S
C1189 C1184 1.304 . S
C1189 C1188 1.339 . S
C1189 H1250 0.930 . S
C1190 C1186 1.567 . S
C1190 H1251 0.961 . S
C1190 H1252 0.960 . S
C1190 H1253 0.958 . S
C1191 C1188 1.530 . S
C1191 H1254 0.961 . S
C1191 H1255 0.960 . S
C1191 H1256 0.960 . S
C1192 C1193 1.530 . S
C1192 H1258 0.961 . S
C1192 H1259 0.961 . S
C1192 H1260 0.959 . S
C1193 C1192 1.530 . S
C1193 O1221 1.412 . S
C1193 H1257 0.980 . S
C1194 C1195 1.288 . S
C1194 C1199 1.377 . S
C1194 O1221 1.393 . S
C1195 C1194 1.288 . S
C1195 C1196 1.369 . S
C1195 H1261 0.932 . S
C1196 C1195 1.369 . S
C1196 C1197 1.398 . S
C1196 C1200 1.527 . S
C1197 C1196 1.398 . S
C1197 C1198 1.380 . S
C1197 C1211 1.497 . S
C1198 C1197 1.380 . S
C1198 C1199 1.383 . S
C1198 C1201 1.603 . S
C1199 C1194 1.377 . S
C1199 C1198 1.383 . S
C1199 H1262 0.929 . S
C1200 C1196 1.527 . S
C1200 H1263 0.961 . S
C1200 H1264 0.959 . S
C1200 H1265 0.959 . S
C1201 C1198 1.603 . S
C1201 H1266 0.960 . S
C1201 H1267 0.962 . S
C1201 H1268 0.961 . S
C1202 C1169 1.587 . S
C1202 C1203 1.360 . S
C1202 C1215 1.412 . S
C1203 C1202 1.360 . S
C1203 C1204 1.365 . S
C1203 H1269 0.929 . S
C1204 C1179 1.553 . S
C1204 C1203 1.365 . S
C1204 C1205 1.404 . S
C1205 C1204 1.404 . S
C1205 C1206 1.395 . S
C1205 C1216 1.451 . S
C1206 C1205 1.395 . S
C1206 C1207 1.322 . S
C1206 H1270 0.930 . S
C1207 C1206 1.322 . S
C1207 C1208 1.459 . S
C1207 H1271 0.929 . S
C1208 C1207 1.459 . S
C1208 C1209 1.445 . S
C1208 C1217 1.395 . S
C1209 C1187 1.432 . S
C1209 C1208 1.445 . S
C1209 C1210 1.370 . S
C1210 C1209 1.370 . S
C1210 C1211 1.438 . S
C1210 H1272 0.930 . S
C1211 C1197 1.497 . S
C1211 C1210 1.438 . S
C1211 C1212 1.360 . S
C1212 C1211 1.360 . S
C1212 C1213 1.401 . S
C1212 C1217 1.446 . S
C1213 C1212 1.401 . S
C1213 C1214 1.347 . S
C1213 H1273 0.929 . S
C1214 C1213 1.347 . S
C1214 C1215 1.455 . S
C1214 H1274 0.930 . S
C1215 C1202 1.412 . S
C1215 C1214 1.455 . S
C1215 C1216 1.331 . S
C1216 C1205 1.451 . S
C1216 C1215 1.331 . S
C1216 C1217 1.497 . S
C1217 C1208 1.395 . S
C1217 C1212 1.446 . S
C1217 C1216 1.497 . S
C1218 C1219 1.582 . S
C1218 H1275 0.962 . S
C1218 H1276 0.959 . S
C1218 H1277 0.958 . S
C1219 C1218 1.582 . S
C1219 O1222 1.458 . S
C1219 H1248 0.980 . S
O1220 C1165 1.426 . S
O1220 C1166 1.334 . S
O1221 C1193 1.412 . S
O1221 C1194 1.393 . S
O1222 C1184 1.435 . S
O1222 C1219 1.458 . S
O1223 C1175 1.468 . S
O1223 C1176 1.408 . S
H1224 C1165 0.980 . S
H1225 C1164 0.959 . S
H1226 C1164 0.959 . S
H1227 C1164 0.960 . S
H1228 C1167 0.929 . S
H1229 C1171 0.929 . S
H1230 C1172 0.959 . S
H1231 C1172 0.961 . S
H1232 C1172 0.961 . S
H1233 C1173 0.960 . S
H1234 C1173 0.960 . S
H1235 C1173 0.961 . S
H1236 C1175 0.980 . S
H1237 C1174 0.961 . S
H1238 C1174 0.960 . S
H1239 C1174 0.959 . S
H1240 C1177 0.930 . S
H1241 C1181 0.931 . S
H1242 C1182 0.959 . S
H1243 C1182 0.961 . S
H1244 C1182 0.959 . S
H1245 C1183 0.960 . S
H1246 C1183 0.960 . S
H1247 C1183 0.960 . S
H1248 C1219 0.980 . S
H1249 C1185 0.930 . S
H1250 C1189 0.930 . S
H1251 C1190 0.961 . S
H1252 C1190 0.960 . S
H1253 C1190 0.958 . S
H1254 C1191 0.961 . S
H1255 C1191 0.960 . S
H1256 C1191 0.960 . S
H1257 C1193 0.980 . S
H1258 C1192 0.961 . S
H1259 C1192 0.961 . S
H1260 C1192 0.959 . S
H1261 C1195 0.932 . S
H1262 C1199 0.929 . S
H1263 C1200 0.961 . S
H1264 C1200 0.959 . S
H1265 C1200 0.959 . S
H1266 C1201 0.960 . S
H1267 C1201 0.962 . S
H1268 C1201 0.961 . S
H1269 C1203 0.929 . S
H1270 C1206 0.930 . S
H1271 C1207 0.929 . S
H1272 C1210 0.930 . S
H1273 C1213 0.929 . S
H1274 C1214 0.930 . S
H1275 C1218 0.962 . S
H1276 C1218 0.959 . S
H1277 C1218 0.958 . S
C1278 C1279 1.560 . S
C1278 H1339 0.959 . S
C1278 H1340 0.959 . S
C1278 H1341 0.960 . S
C1279 C1278 1.560 . S
C1279 O1334 1.426 . S
C1279 H1338 0.980 . S
C1280 C1281 1.407 1_455 S
C1280 C1285 1.418 . S
C1280 O1334 1.334 . S
C1281 C1280 1.407 1_655 S
C1281 C1282 1.360 . S
C1281 H1342 0.929 . S
C1282 C1281 1.360 . S
C1282 C1283 1.387 1_655 S
C1282 C1286 1.527 . S
C1283 C1282 1.387 1_455 S
C1283 C1284 1.470 . S
C1283 C1316 1.539 1_455 S
C1284 C1283 1.470 . S
C1284 C1285 1.332 . S
C1284 C1287 1.496 . S
C1285 C1280 1.418 . S
C1285 C1284 1.332 . S
C1285 H1343 0.929 . S
C1286 C1282 1.527 . S
C1286 H1344 0.959 . S
C1286 H1345 0.961 . S
C1286 H1346 0.961 . S
C1287 C1284 1.496 . S
C1287 H1347 0.960 . S
C1287 H1348 0.960 . S
C1287 H1349 0.961 . S
C1288 C1289 1.517 . S
C1288 H1351 0.961 . S
C1288 H1352 0.960 . S
C1288 H1353 0.959 . S
C1289 C1288 1.517 . S
C1289 O1337 1.468 . S
C1289 H1350 0.923 1_655 S
C1290 C1291 1.349 . S
C1290 C1295 1.367 . S
C1290 O1337 1.408 . S
C1291 C1290 1.349 . S
C1291 C1292 1.399 1_655 S
C1291 H1354 0.930 1_655 S
C1292 C1291 1.399 1_455 S
C1292 C1293 1.442 1_455 S
C1292 C1296 1.549 . S
C1293 C1292 1.442 1_655 S
C1293 C1294 1.384 . S
C1293 C1318 1.553 . S
C1294 C1293 1.384 . S
C1294 C1295 1.364 . S
C1294 C1297 1.450 . S
C1295 C1290 1.367 . S
C1295 C1294 1.364 . S
C1295 H1355 0.931 . S
C1296 C1292 1.549 . S
C1296 H1356 0.959 . S
C1296 H1357 0.961 . S
C1296 H1358 0.959 . S
C1297 C1294 1.450 . S
C1297 H1359 0.960 . S
C1297 H1360 0.960 . S
C1297 H1361 0.960 . S
C1298 C1299 1.309 . S
C1298 C1303 1.304 . S
C1298 O1336 1.435 . S
C1299 C1298 1.309 . S
C1299 C1300 1.434 1_655 S
C1299 H1363 0.930 1_655 S
C1300 C1299 1.434 1_455 S
C1300 C1301 1.373 1_455 S
C1300 C1304 1.637 . S
C1301 C1300 1.373 1_655 S
C1301 C1302 1.373 . S
C1301 C1323 1.432 . S
C1302 C1301 1.373 . S
C1302 C1303 1.339 . S
C1302 C1305 1.530 . S
C1303 C1298 1.304 . S
C1303 C1302 1.339 . S
C1303 H1364 0.930 . S
C1304 C1300 1.637 . S
C1304 H1365 0.961 . S
C1304 H1366 0.960 . S
C1304 H1367 0.958 . S
C1305 C1302 1.530 . S
C1305 H1368 0.961 . S
C1305 H1369 0.960 . S
C1305 H1370 0.960 . S
C1306 C1307 1.568 . S
C1306 H1372 0.961 . S
C1306 H1373 0.961 . S
C1306 H1374 0.959 . S
C1307 C1306 1.568 . S
C1307 O1335 1.421 . S
C1307 H1371 0.970 1_455 S
C1308 C1309 1.288 . S
C1308 C1313 1.377 1_455 S
C1308 O1335 1.393 . S
C1309 C1308 1.288 . S
C1309 C1310 1.369 . S
C1309 H1375 0.932 . S
C1310 C1309 1.369 . S
C1310 C1311 1.324 1_455 S
C1310 C1314 1.527 . S
C1311 C1310 1.324 1_655 S
C1311 C1312 1.405 . S
C1311 C1325 1.546 . S
C1312 C1311 1.405 . S
C1312 C1313 1.383 . S
C1312 C1315 1.603 . S
C1313 C1308 1.377 1_655 S
C1313 C1312 1.383 . S
C1313 H1376 0.929 . S
C1314 C1310 1.527 . S
C1314 H1377 0.961 . S
C1314 H1378 0.959 . S
C1314 H1379 0.959 . S
C1315 C1312 1.603 . S
C1315 H1380 0.960 . S
C1315 H1381 0.962 . S
C1315 H1382 0.961 . S
C1316 C1283 1.539 1_655 S
C1316 C1317 1.360 . S
C1316 C1329 1.412 . S
C1317 C1316 1.360 . S
C1317 C1318 1.365 . S
C1317 H1383 0.929 . S
C1318 C1293 1.553 . S
C1318 C1317 1.365 . S
C1318 C1319 1.404 . S
C1319 C1318 1.404 . S
C1319 C1320 1.395 . S
C1319 C1330 1.451 . S
C1320 C1319 1.395 . S
C1320 C1321 1.322 . S
C1320 H1384 0.930 . S
C1321 C1320 1.322 . S
C1321 C1322 1.459 . S
C1321 H1385 0.929 . S
C1322 C1321 1.459 . S
C1322 C1323 1.445 . S
C1322 C1331 1.395 . S
C1323 C1301 1.432 . S
C1323 C1322 1.445 . S
C1323 C1324 1.370 . S
C1324 C1323 1.370 . S
C1324 C1325 1.438 . S
C1324 H1386 0.930 . S
C1325 C1311 1.546 . S
C1325 C1324 1.438 . S
C1325 C1326 1.360 . S
C1326 C1325 1.360 . S
C1326 C1327 1.401 . S
C1326 C1331 1.446 . S
C1327 C1326 1.401 . S
C1327 C1328 1.347 . S
C1327 H1387 0.929 . S
C1328 C1327 1.347 . S
C1328 C1329 1.455 . S
C1328 H1388 0.930 . S
C1329 C1316 1.412 . S
C1329 C1328 1.455 . S
C1329 C1330 1.331 . S
C1330 C1319 1.451 . S
C1330 C1329 1.331 . S
C1330 C1331 1.497 . S
C1331 C1322 1.395 . S
C1331 C1326 1.446 . S
C1331 C1330 1.497 . S
C1332 C1333 1.582 . S
C1332 H1389 0.962 . S
C1332 H1390 0.959 . S
C1332 H1391 0.958 . S
C1333 C1332 1.582 . S
C1333 O1336 1.458 . S
C1333 H1362 0.980 . S
O1334 C1279 1.426 . S
O1334 C1280 1.334 . S
O1335 C1307 1.421 . S
O1335 C1308 1.393 . S
O1336 C1298 1.435 . S
O1336 C1333 1.458 . S
O1337 C1289 1.468 . S
O1337 C1290 1.408 . S
H1338 C1279 0.980 . S
H1339 C1278 0.959 . S
H1340 C1278 0.959 . S
H1341 C1278 0.960 . S
H1342 C1281 0.929 . S
H1343 C1285 0.929 . S
H1344 C1286 0.959 . S
H1345 C1286 0.961 . S
H1346 C1286 0.961 . S
H1347 C1287 0.960 . S
H1348 C1287 0.960 . S
H1349 C1287 0.961 . S
H1350 C1289 0.923 1_455 S
H1351 C1288 0.961 . S
H1352 C1288 0.960 . S
H1353 C1288 0.959 . S
H1354 C1291 0.930 1_455 S
H1355 C1295 0.931 . S
H1356 C1296 0.959 . S
H1357 C1296 0.961 . S
H1358 C1296 0.959 . S
H1359 C1297 0.960 . S
H1360 C1297 0.960 . S
H1361 C1297 0.960 . S
H1362 C1333 0.980 . S
H1363 C1299 0.930 1_455 S
H1364 C1303 0.930 . S
H1365 C1304 0.961 . S
H1366 C1304 0.960 . S
H1367 C1304 0.958 . S
H1368 C1305 0.961 . S
H1369 C1305 0.960 . S
H1370 C1305 0.960 . S
H1371 C1307 0.970 1_655 S
H1372 C1306 0.961 . S
H1373 C1306 0.961 . S
H1374 C1306 0.959 . S
H1375 C1309 0.932 . S
H1376 C1313 0.929 . S
H1377 C1314 0.961 . S
H1378 C1314 0.959 . S
H1379 C1314 0.959 . S
H1380 C1315 0.960 . S
H1381 C1315 0.962 . S
H1382 C1315 0.961 . S
H1383 C1317 0.929 . S
H1384 C1320 0.930 . S
H1385 C1321 0.929 . S
H1386 C1324 0.930 . S
H1387 C1327 0.929 . S
H1388 C1328 0.930 . S
H1389 C1332 0.962 . S
H1390 C1332 0.959 . S
H1391 C1332 0.958 . S
C1392 C1393 1.560 . S
C1392 H1453 0.959 . S
C1392 H1454 0.959 . S
C1392 H1455 0.960 . S
C1393 C1392 1.560 . S
C1393 O1448 1.426 . S
C1393 H1452 0.980 . S
C1394 C1395 1.407 . S
C1394 C1399 1.418 . S
C1394 O1448 1.334 . S
C1395 C1394 1.407 . S
C1395 C1396 1.360 . S
C1395 H1456 0.929 . S
C1396 C1395 1.360 . S
C1396 C1397 1.401 . S
C1396 C1400 1.527 . S
C1397 C1396 1.401 . S
C1397 C1398 1.405 . S
C1397 C1430 1.587 . S
C1398 C1397 1.405 . S
C1398 C1399 1.332 . S
C1398 C1401 1.496 . S
C1399 C1394 1.418 . S
C1399 C1398 1.332 . S
C1399 H1457 0.929 . S
C1400 C1396 1.527 . S
C1400 H1458 0.959 . S
C1400 H1459 0.961 . S
C1400 H1460 0.961 . S
C1401 C1398 1.496 . S
C1401 H1461 0.960 . S
C1401 H1462 0.960 . S
C1401 H1463 0.961 . S
C1402 C1403 1.517 . S
C1402 H1465 0.961 . S
C1402 H1466 0.960 . S
C1402 H1467 0.959 . S
C1403 C1402 1.517 . S
C1403 O1451 1.468 . S
C1403 H1464 0.980 . S
C1404 C1405 1.349 . S
C1404 C1409 1.367 . S
C1404 O1451 1.408 . S
C1405 C1404 1.349 . S
C1405 C1406 1.407 . S
C1405 H1468 0.930 . S
C1406 C1405 1.407 . S
C1406 C1407 1.449 . S
C1406 C1410 1.535 . S
C1407 C1406 1.449 . S
C1407 C1408 1.384 . S
C1407 C1432 1.553 . S
C1408 C1407 1.384 . S
C1408 C1409 1.364 . S
C1408 C1411 1.450 . S
C1409 C1404 1.367 . S
C1409 C1408 1.364 . S
C1409 H1469 0.931 . S
C1410 C1406 1.535 . S
C1410 H1470 0.959 . S
C1410 H1471 0.961 . S
C1410 H1472 0.959 . S
C1411 C1408 1.450 . S
C1411 H1473 0.960 . S
C1411 H1474 0.960 . S
C1411 H1475 0.960 . S
C1412 C1413 1.309 . S
C1412 C1417 1.304 . S
C1412 O1450 1.435 . S
C1413 C1412 1.309 . S
C1413 C1414 1.476 . S
C1413 H1477 0.930 . S
C1414 C1413 1.476 . S
C1414 C1415 1.400 . S
C1414 C1418 1.567 . S
C1415 C1414 1.400 . S
C1415 C1416 1.373 . S
C1415 C1437 1.432 . S
C1416 C1415 1.373 . S
C1416 C1417 1.339 . S
C1416 C1419 1.530 . S
C1417 C1412 1.304 . S
C1417 C1416 1.339 . S
C1417 H1478 0.930 . S
C1418 C1414 1.567 . S
C1418 H1479 0.961 . S
C1418 H1480 0.960 . S
C1418 H1481 0.958 . S
C1419 C1416 1.530 . S
C1419 H1482 0.961 . S
C1419 H1483 0.960 . S
C1419 H1484 0.960 . S
C1420 C1421 1.530 . S
C1420 H1486 0.961 . S
C1420 H1487 0.961 . S
C1420 H1488 0.959 . S
C1421 C1420 1.530 . S
C1421 O1449 1.412 . S
C1421 H1485 0.980 . S
C1422 C1423 1.288 . S
C1422 C1427 1.377 . S
C1422 O1449 1.393 . S
C1423 C1422 1.288 . S
C1423 C1424 1.369 . S
C1423 H1489 0.932 . S
C1424 C1423 1.369 . S
C1424 C1425 1.398 . S
C1424 C1428 1.527 . S
C1425 C1424 1.398 . S
C1425 C1426 1.380 . S
C1425 C1439 1.497 . S
C1426 C1425 1.380 . S
C1426 C1427 1.383 . S
C1426 C1429 1.603 . S
C1427 C1422 1.377 . S
C1427 C1426 1.383 . S
C1427 H1490 0.929 . S
C1428 C1424 1.527 . S
C1428 H1491 0.961 . S
C1428 H1492 0.959 . S
C1428 H1493 0.959 . S
C1429 C1426 1.603 . S
C1429 H1494 0.960 . S
C1429 H1495 0.962 . S
C1429 H1496 0.961 . S
C1430 C1397 1.587 . S
C1430 C1431 1.360 . S
C1430 C1443 1.412 . S
C1431 C1430 1.360 . S
C1431 C1432 1.365 . S
C1431 H1497 0.929 . S
C1432 C1407 1.553 . S
C1432 C1431 1.365 . S
C1432 C1433 1.404 . S
C1433 C1432 1.404 . S
C1433 C1434 1.395 . S
C1433 C1444 1.451 . S
C1434 C1433 1.395 . S
C1434 C1435 1.322 . S
C1434 H1498 0.930 . S
C1435 C1434 1.322 . S
C1435 C1436 1.459 . S
C1435 H1499 0.929 . S
C1436 C1435 1.459 . S
C1436 C1437 1.445 . S
C1436 C1445 1.395 . S
C1437 C1415 1.432 . S
C1437 C1436 1.445 . S
C1437 C1438 1.370 . S
C1438 C1437 1.370 . S
C1438 C1439 1.438 . S
C1438 H1500 0.930 . S
C1439 C1425 1.497 . S
C1439 C1438 1.438 . S
C1439 C1440 1.360 . S
C1440 C1439 1.360 . S
C1440 C1441 1.401 . S
C1440 C1445 1.446 . S
C1441 C1440 1.401 . S
C1441 C1442 1.347 . S
C1441 H1501 0.929 . S
C1442 C1441 1.347 . S
C1442 C1443 1.455 . S
C1442 H1502 0.930 . S
C1443 C1430 1.412 . S
C1443 C1442 1.455 . S
C1443 C1444 1.331 . S
C1444 C1433 1.451 . S
C1444 C1443 1.331 . S
C1444 C1445 1.497 . S
C1445 C1436 1.395 . S
C1445 C1440 1.446 . S
C1445 C1444 1.497 . S
C1446 C1447 1.582 . S
C1446 H1503 0.962 . S
C1446 H1504 0.959 . S
C1446 H1505 0.958 . S
C1447 C1446 1.582 . S
C1447 O1450 1.458 . S
C1447 H1476 0.980 . S
O1448 C1393 1.426 . S
O1448 C1394 1.334 . S
O1449 C1421 1.412 . S
O1449 C1422 1.393 . S
O1450 C1412 1.435 . S
O1450 C1447 1.458 . S
O1451 C1403 1.468 . S
O1451 C1404 1.408 . S
H1452 C1393 0.980 . S
H1453 C1392 0.959 . S
H1454 C1392 0.959 . S
H1455 C1392 0.960 . S
H1456 C1395 0.929 . S
H1457 C1399 0.929 . S
H1458 C1400 0.959 . S
H1459 C1400 0.961 . S
H1460 C1400 0.961 . S
H1461 C1401 0.960 . S
H1462 C1401 0.960 . S
H1463 C1401 0.961 . S
H1464 C1403 0.980 . S
H1465 C1402 0.961 . S
H1466 C1402 0.960 . S
H1467 C1402 0.959 . S
H1468 C1405 0.930 . S
H1469 C1409 0.931 . S
H1470 C1410 0.959 . S
H1471 C1410 0.961 . S
H1472 C1410 0.959 . S
H1473 C1411 0.960 . S
H1474 C1411 0.960 . S
H1475 C1411 0.960 . S
H1476 C1447 0.980 . S
H1477 C1413 0.930 . S
H1478 C1417 0.930 . S
H1479 C1418 0.961 . S
H1480 C1418 0.960 . S
H1481 C1418 0.958 . S
H1482 C1419 0.961 . S
H1483 C1419 0.960 . S
H1484 C1419 0.960 . S
H1485 C1421 0.980 . S
H1486 C1420 0.961 . S
H1487 C1420 0.961 . S
H1488 C1420 0.959 . S
H1489 C1423 0.932 . S
H1490 C1427 0.929 . S
H1491 C1428 0.961 . S
H1492 C1428 0.959 . S
H1493 C1428 0.959 . S
H1494 C1429 0.960 . S
H1495 C1429 0.962 . S
H1496 C1429 0.961 . S
H1497 C1431 0.929 . S
H1498 C1434 0.930 . S
H1499 C1435 0.929 . S
H1500 C1438 0.930 . S
H1501 C1441 0.929 . S
H1502 C1442 0.930 . S
H1503 C1446 0.962 . S
H1504 C1446 0.959 . S
H1505 C1446 0.958 . S
C1506 C1507 1.560 . S
C1506 H1567 0.959 . S
C1506 H1568 0.959 . S
C1506 H1569 0.960 . S
C1507 C1506 1.560 . S
C1507 O1562 1.426 . S
C1507 H1566 0.980 . S
C1508 C1509 1.407 1_565 S
C1508 C1513 1.418 . S
C1508 O1562 1.334 . S
C1509 C1508 1.407 1_545 S
C1509 C1510 1.360 . S
C1509 H1570 0.929 . S
C1510 C1509 1.360 . S
C1510 C1511 1.350 1_545 S
C1510 C1514 1.527 . S
C1511 C1510 1.350 1_565 S
C1511 C1512 1.453 . S
C1511 C1544 1.594 1_565 S
C1512 C1511 1.453 . S
C1512 C1513 1.332 . S
C1512 C1515 1.496 . S
C1513 C1508 1.418 . S
C1513 C1512 1.332 . S
C1513 H1571 0.929 . S
C1514 C1510 1.527 . S
C1514 H1572 0.959 . S
C1514 H1573 0.961 . S
C1514 H1574 0.961 . S
C1515 C1512 1.496 . S
C1515 H1575 0.960 . S
C1515 H1576 0.960 . S
C1515 H1577 0.961 . S
C1516 C1517 1.517 . S
C1516 H1579 0.987 . S
C1516 H1580 0.960 . S
C1516 H1581 0.959 . S
C1517 C1516 1.517 . S
C1517 O1565 1.468 . S
C1517 H1578 0.980 1_545 S
C1518 C1519 1.349 . S
C1518 C1523 1.367 . S
C1518 O1565 1.408 . S
C1519 C1518 1.349 . S
C1519 C1520 1.426 1_545 S
C1519 H1582 0.930 1_545 S
C1520 C1519 1.426 1_565 S
C1520 C1521 1.398 1_565 S
C1520 C1524 1.569 . S
C1521 C1520 1.398 1_545 S
C1521 C1522 1.384 . S
C1521 C1546 1.553 . S
C1522 C1521 1.384 . S
C1522 C1523 1.364 . S
C1522 C1525 1.450 . S
C1523 C1518 1.367 . S
C1523 C1522 1.364 . S
C1523 H1583 0.931 . S
C1524 C1520 1.569 . S
C1524 H1584 0.959 . S
C1524 H1585 0.961 . S
C1524 H1586 0.959 . S
C1525 C1522 1.450 . S
C1525 H1587 0.960 . S
C1525 H1588 0.960 . S
C1525 H1589 0.960 . S
C1526 C1527 1.309 . S
C1526 C1531 1.304 . S
C1526 O1564 1.435 . S
C1527 C1526 1.309 . S
C1527 C1528 1.506 1_545 S
C1527 H1591 0.930 1_545 S
C1528 C1527 1.506 1_565 S
C1528 C1529 1.308 1_565 S
C1528 C1532 1.632 . S
C1529 C1528 1.308 1_545 S
C1529 C1530 1.373 . S
C1529 C1551 1.432 . S
C1530 C1529 1.373 . S
C1530 C1531 1.339 . S
C1530 C1533 1.530 . S
C1531 C1526 1.304 . S
C1531 C1530 1.339 . S
C1531 H1592 0.930 . S
C1532 C1528 1.632 . S
C1532 H1593 0.961 . S
C1532 H1594 0.960 . S
C1532 H1595 0.958 . S
C1533 C1530 1.530 . S
C1533 H1596 0.961 . S
C1533 H1597 0.960 . S
C1533 H1598 0.960 . S
C1534 C1535 1.529 1_565 S
C1534 H1600 0.961 . S
C1534 H1601 0.961 . S
C1534 H1602 0.959 . S
C1535 C1534 1.529 1_545 S
C1535 O1563 1.401 1_545 S
C1535 H1599 0.986 . S
C1536 C1537 1.288 . S
C1536 C1541 1.377 1_565 S
C1536 O1563 1.393 . S
C1537 C1536 1.288 . S
C1537 C1538 1.369 . S
C1537 H1603 0.932 . S
C1538 C1537 1.369 . S
C1538 C1539 1.398 1_565 S
C1538 C1542 1.527 . S
C1539 C1538 1.398 1_545 S
C1539 C1540 1.380 . S
C1539 C1553 1.497 . S
C1540 C1539 1.380 . S
C1540 C1541 1.383 . S
C1540 C1543 1.603 . S
C1541 C1536 1.377 1_545 S
C1541 C1540 1.383 . S
C1541 H1604 0.929 . S
C1542 C1538 1.527 . S
C1542 H1605 0.961 . S
C1542 H1606 0.959 . S
C1542 H1607 0.959 . S
C1543 C1540 1.603 . S
C1543 H1608 0.960 . S
C1543 H1609 0.962 . S
C1543 H1610 0.961 . S
C1544 C1511 1.594 1_545 S
C1544 C1545 1.360 . S
C1544 C1557 1.412 . S
C1545 C1544 1.360 . S
C1545 C1546 1.365 . S
C1545 H1611 0.929 . S
C1546 C1521 1.553 . S
C1546 C1545 1.365 . S
C1546 C1547 1.404 . S
C1547 C1546 1.404 . S
C1547 C1548 1.395 . S
C1547 C1558 1.451 . S
C1548 C1547 1.395 . S
C1548 C1549 1.322 . S
C1548 H1612 0.930 . S
C1549 C1548 1.322 . S
C1549 C1550 1.459 . S
C1549 H1613 0.929 . S
C1550 C1549 1.459 . S
C1550 C1551 1.445 . S
C1550 C1559 1.395 . S
C1551 C1529 1.432 . S
C1551 C1550 1.445 . S
C1551 C1552 1.370 . S
C1552 C1551 1.370 . S
C1552 C1553 1.438 . S
C1552 H1614 0.930 . S
C1553 C1539 1.497 . S
C1553 C1552 1.438 . S
C1553 C1554 1.360 . S
C1554 C1553 1.360 . S
C1554 C1555 1.401 . S
C1554 C1559 1.446 . S
C1555 C1554 1.401 . S
C1555 C1556 1.347 . S
C1555 H1615 0.929 . S
C1556 C1555 1.347 . S
C1556 C1557 1.455 . S
C1556 H1616 0.930 . S
C1557 C1544 1.412 . S
C1557 C1556 1.455 . S
C1557 C1558 1.331 . S
C1558 C1547 1.451 . S
C1558 C1557 1.331 . S
C1558 C1559 1.497 . S
C1559 C1550 1.395 . S
C1559 C1554 1.446 . S
C1559 C1558 1.497 . S
C1560 C1561 1.582 . S
C1560 H1617 0.962 . S
C1560 H1618 0.959 . S
C1560 H1619 0.958 . S
C1561 C1560 1.582 . S
C1561 O1564 1.458 . S
C1561 H1590 0.980 . S
O1562 C1507 1.426 . S
O1562 C1508 1.334 . S
O1563 C1535 1.401 1_565 S
O1563 C1536 1.393 . S
O1564 C1526 1.435 . S
O1564 C1561 1.458 . S
O1565 C1517 1.468 . S
O1565 C1518 1.408 . S
H1566 C1507 0.980 . S
H1567 C1506 0.959 . S
H1568 C1506 0.959 . S
H1569 C1506 0.960 . S
H1570 C1509 0.929 . S
H1571 C1513 0.929 . S
H1572 C1514 0.959 . S
H1573 C1514 0.961 . S
H1574 C1514 0.961 . S
H1575 C1515 0.960 . S
H1576 C1515 0.960 . S
H1577 C1515 0.961 . S
H1578 C1517 0.980 1_565 S
H1579 C1516 0.987 . S
H1580 C1516 0.960 . S
H1581 C1516 0.959 . S
H1582 C1519 0.930 1_565 S
H1583 C1523 0.931 . S
H1584 C1524 0.959 . S
H1585 C1524 0.961 . S
H1586 C1524 0.959 . S
H1587 C1525 0.960 . S
H1588 C1525 0.960 . S
H1589 C1525 0.960 . S
H1590 C1561 0.980 . S
H1591 C1527 0.930 1_565 S
H1592 C1531 0.930 . S
H1593 C1532 0.961 . S
H1594 C1532 0.960 . S
H1595 C1532 0.958 . S
H1596 C1533 0.961 . S
H1597 C1533 0.960 . S
H1598 C1533 0.960 . S
H1599 C1535 0.986 . S
H1600 C1534 0.961 . S
H1601 C1534 0.961 . S
H1602 C1534 0.959 . S
H1603 C1537 0.932 . S
H1604 C1541 0.929 . S
H1605 C1542 0.961 . S
H1606 C1542 0.959 . S
H1607 C1542 0.959 . S
H1608 C1543 0.960 . S
H1609 C1543 0.962 . S
H1610 C1543 0.961 . S
H1611 C1545 0.929 . S
H1612 C1548 0.930 . S
H1613 C1549 0.929 . S
H1614 C1552 0.930 . S
H1615 C1555 0.929 . S
H1616 C1556 0.930 . S
H1617 C1560 0.962 . S
H1618 C1560 0.959 . S
H1619 C1560 0.958 . S
C1620 C1621 1.560 . S
C1620 H1681 0.959 . S
C1620 H1682 0.959 . S
C1620 H1683 0.960 . S
C1621 C1620 1.560 . S
C1621 O1676 1.426 . S
C1621 H1680 0.980 1_565 S
C1622 C1623 1.407 1_565 S
C1622 C1627 1.418 . S
C1622 O1676 1.334 . S
C1623 C1622 1.407 1_545 S
C1623 C1624 1.360 . S
C1623 H1684 0.929 . S
C1624 C1623 1.360 . S
C1624 C1625 1.401 . S
C1624 C1628 1.527 . S
C1625 C1624 1.401 . S
C1625 C1626 1.405 1_545 S
C1625 C1658 1.587 . S
C1626 C1625 1.405 1_565 S
C1626 C1627 1.332 . S
C1626 C1629 1.496 . S
C1627 C1622 1.418 . S
C1627 C1626 1.332 . S
C1627 H1685 0.929 . S
C1628 C1624 1.527 . S
C1628 H1686 0.959 . S
C1628 H1687 0.961 . S
C1628 H1688 0.961 . S
C1629 C1626 1.496 . S
C1629 H1689 0.960 . S
C1629 H1690 0.960 . S
C1629 H1691 0.961 . S
C1630 C1631 1.517 . S
C1630 H1693 0.961 . S
C1630 H1694 0.960 . S
C1630 H1695 0.959 . S
C1631 C1630 1.517 . S
C1631 O1679 1.468 . S
C1631 H1692 0.980 . S
C1632 C1633 1.349 . S
C1632 C1637 1.367 . S
C1632 O1679 1.408 . S
C1633 C1632 1.349 . S
C1633 C1634 1.407 . S
C1633 H1696 0.901 1_545 S
C1634 C1633 1.407 . S
C1634 C1635 1.449 . S
C1634 C1638 1.535 1_545 S
C1635 C1634 1.449 . S
C1635 C1636 1.384 . S
C1635 C1660 1.553 . S
C1636 C1635 1.384 . S
C1636 C1637 1.364 . S
C1636 C1639 1.450 . S
C1637 C1632 1.367 . S
C1637 C1636 1.364 . S
C1637 H1697 0.931 . S
C1638 C1634 1.535 1_565 S
C1638 H1698 0.959 . S
C1638 H1699 0.961 . S
C1638 H1700 0.959 . S
C1639 C1636 1.450 . S
C1639 H1701 0.960 . S
C1639 H1702 0.960 . S
C1639 H1703 0.960 . S
C1640 C1641 1.309 1_545 S
C1640 C1645 1.304 . S
C1640 O1678 1.435 . S
C1641 C1640 1.309 1_565 S
C1641 C1642 1.476 . S
C1641 H1705 0.930 . S
C1642 C1641 1.476 . S
C1642 C1643 1.400 1_565 S
C1642 C1646 1.567 . S
C1643 C1642 1.400 1_545 S
C1643 C1644 1.373 . S
C1643 C1665 1.432 . S
C1644 C1643 1.373 . S
C1644 C1645 1.339 . S
C1644 C1647 1.530 . S
C1645 C1640 1.304 . S
C1645 C1644 1.339 . S
C1645 H1706 0.930 . S
C1646 C1642 1.567 . S
C1646 H1707 0.961 . S
C1646 H1708 0.960 . S
C1646 H1709 0.958 . S
C1647 C1644 1.530 . S
C1647 H1710 0.961 . S
C1647 H1711 0.960 . S
C1647 H1712 0.960 . S
C1648 C1649 1.530 . S
C1648 H1714 0.961 . S
C1648 H1715 0.961 . S
C1648 H1716 0.959 . S
C1649 C1648 1.530 . S
C1649 O1677 1.412 . S
C1649 H1713 0.975 1_565 S
C1650 C1651 1.288 . S
C1650 C1655 1.377 1_565 S
C1650 O1677 1.393 . S
C1651 C1650 1.288 . S
C1651 C1652 1.369 . S
C1651 H1717 0.932 . S
C1652 C1651 1.369 . S
C1652 C1653 1.398 . S
C1652 C1656 1.527 . S
C1653 C1652 1.398 . S
C1653 C1654 1.380 1_565 S
C1653 C1667 1.497 1_565 S
C1654 C1653 1.380 1_545 S
C1654 C1655 1.383 . S
C1654 C1657 1.603 . S
C1655 C1650 1.377 1_545 S
C1655 C1654 1.383 . S
C1655 H1718 0.929 . S
C1656 C1652 1.527 . S
C1656 H1719 0.961 . S
C1656 H1720 0.959 . S
C1656 H1721 0.959 . S
C1657 C1654 1.603 . S
C1657 H1722 0.960 . S
C1657 H1723 0.962 . S
C1657 H1724 0.961 . S
C1658 C1625 1.587 . S
C1658 C1659 1.360 . S
C1658 C1671 1.412 . S
C1659 C1658 1.360 . S
C1659 C1660 1.365 . S
C1659 H1725 0.929 . S
C1660 C1635 1.553 . S
C1660 C1659 1.365 . S
C1660 C1661 1.404 . S
C1661 C1660 1.404 . S
C1661 C1662 1.395 . S
C1661 C1672 1.451 . S
C1662 C1661 1.395 . S
C1662 C1663 1.322 . S
C1662 H1726 0.930 . S
C1663 C1662 1.322 . S
C1663 C1664 1.459 . S
C1663 H1727 0.929 . S
C1664 C1663 1.459 . S
C1664 C1665 1.445 . S
C1664 C1673 1.395 . S
C1665 C1643 1.432 . S
C1665 C1664 1.445 . S
C1665 C1666 1.370 . S
C1666 C1665 1.370 . S
C1666 C1667 1.438 . S
C1666 H1728 0.930 . S
C1667 C1653 1.497 1_545 S
C1667 C1666 1.438 . S
C1667 C1668 1.360 . S
C1668 C1667 1.360 . S
C1668 C1669 1.401 . S
C1668 C1673 1.446 . S
C1669 C1668 1.401 . S
C1669 C1670 1.347 . S
C1669 H1729 0.976 . S
C1670 C1669 1.347 . S
C1670 C1671 1.455 . S
C1670 H1730 0.930 . S
C1671 C1658 1.412 . S
C1671 C1670 1.455 . S
C1671 C1672 1.331 . S
C1672 C1661 1.451 . S
C1672 C1671 1.331 . S
C1672 C1673 1.497 . S
C1673 C1664 1.395 . S
C1673 C1668 1.446 . S
C1673 C1672 1.497 . S
C1674 C1675 1.582 . S
C1674 H1731 0.962 . S
C1674 H1732 0.959 . S
C1674 H1733 0.958 . S
C1675 C1674 1.582 . S
C1675 O1678 1.458 . S
C1675 H1704 0.980 1_545 S
O1676 C1621 1.426 . S
O1676 C1622 1.334 . S
O1677 C1649 1.412 . S
O1677 C1650 1.393 . S
O1678 C1640 1.435 . S
O1678 C1675 1.458 . S
O1679 C1631 1.468 . S
O1679 C1632 1.408 . S
H1680 C1621 0.980 1_545 S
H1681 C1620 0.959 . S
H1682 C1620 0.959 . S
H1683 C1620 0.960 . S
H1684 C1623 0.929 . S
H1685 C1627 0.929 . S
H1686 C1628 0.959 . S
H1687 C1628 0.961 . S
H1688 C1628 0.961 . S
H1689 C1629 0.960 . S
H1690 C1629 0.960 . S
H1691 C1629 0.961 . S
H1692 C1631 0.980 . S
H1693 C1630 0.961 . S
H1694 C1630 0.960 . S
H1695 C1630 0.959 . S
H1696 C1633 0.901 1_565 S
H1697 C1637 0.931 . S
H1698 C1638 0.959 . S
H1699 C1638 0.961 . S
H1700 C1638 0.959 . S
H1701 C1639 0.960 . S
H1702 C1639 0.960 . S
H1703 C1639 0.960 . S
H1704 C1675 0.980 1_565 S
H1705 C1641 0.930 . S
H1706 C1645 0.930 . S
H1707 C1646 0.961 . S
H1708 C1646 0.960 . S
H1709 C1646 0.958 . S
H1710 C1647 0.961 . S
H1711 C1647 0.960 . S
H1712 C1647 0.960 . S
H1713 C1649 0.975 1_545 S
H1714 C1648 0.961 . S
H1715 C1648 0.961 . S
H1716 C1648 0.959 . S
H1717 C1651 0.932 . S
H1718 C1655 0.929 . S
H1719 C1656 0.961 . S
H1720 C1656 0.959 . S
H1721 C1656 0.959 . S
H1722 C1657 0.960 . S
H1723 C1657 0.962 . S
H1724 C1657 0.961 . S
H1725 C1659 0.929 . S
H1726 C1662 0.930 . S
H1727 C1663 0.929 . S
H1728 C1666 0.930 . S
H1729 C1669 0.976 . S
H1730 C1670 0.930 . S
H1731 C1674 0.962 . S
H1732 C1674 0.959 . S
H1733 C1674 0.958 . S
C1734 C1735 1.560 . S
C1734 H1795 0.959 . S
C1734 H1796 0.959 . S
C1734 H1797 0.960 . S
C1735 C1734 1.560 . S
C1735 O1790 1.426 . S
C1735 H1794 0.980 1_455 S
C1736 C1737 1.407 1_455 S
C1736 C1741 1.418 . S
C1736 O1790 1.334 . S
C1737 C1736 1.407 1_655 S
C1737 C1738 1.360 . S
C1737 H1798 0.929 . S
C1738 C1737 1.360 . S
C1738 C1739 1.401 . S
C1738 C1742 1.527 . S
C1739 C1738 1.401 . S
C1739 C1740 1.405 1_655 S
C1739 C1772 1.587 . S
C1740 C1739 1.405 1_455 S
C1740 C1741 1.332 . S
C1740 C1743 1.496 . S
C1741 C1736 1.418 . S
C1741 C1740 1.332 . S
C1741 H1799 0.929 . S
C1742 C1738 1.527 . S
C1742 H1800 0.959 . S
C1742 H1801 0.961 . S
C1742 H1802 0.961 . S
C1743 C1740 1.496 . S
C1743 H1803 0.960 . S
C1743 H1804 0.960 . S
C1743 H1805 0.961 . S
C1744 C1745 1.517 . S
C1744 H1807 0.961 . S
C1744 H1808 0.960 . S
C1744 H1809 0.959 . S
C1745 C1744 1.517 . S
C1745 O1793 1.468 . S
C1745 H1806 0.980 . S
C1746 C1747 1.349 . S
C1746 C1751 1.367 . S
C1746 O1793 1.408 . S
C1747 C1746 1.349 . S
C1747 C1748 1.407 . S
C1747 H1810 0.848 1_655 S
C1748 C1747 1.407 . S
C1748 C1749 1.449 . S
C1748 C1752 1.535 1_655 S
C1749 C1748 1.449 . S
C1749 C1750 1.384 . S
C1749 C1774 1.553 . S
C1750 C1749 1.384 . S
C1750 C1751 1.364 . S
C1750 C1753 1.450 . S
C1751 C1746 1.367 . S
C1751 C1750 1.364 . S
C1751 H1811 0.931 . S
C1752 C1748 1.535 1_455 S
C1752 H1812 0.959 . S
C1752 H1813 0.961 . S
C1752 H1814 0.959 . S
C1753 C1750 1.450 . S
C1753 H1815 0.960 . S
C1753 H1816 0.960 . S
C1753 H1817 0.960 . S
C1754 C1755 1.309 1_655 S
C1754 C1759 1.304 . S
C1754 O1792 1.435 . S
C1755 C1754 1.309 1_455 S
C1755 C1756 1.476 . S
C1755 H1819 0.930 . S
C1756 C1755 1.476 . S
C1756 C1757 1.400 1_455 S
C1756 C1760 1.567 . S
C1757 C1756 1.400 1_655 S
C1757 C1758 1.373 . S
C1757 C1779 1.432 . S
C1758 C1757 1.373 . S
C1758 C1759 1.339 . S
C1758 C1761 1.530 . S
C1759 C1754 1.304 . S
C1759 C1758 1.339 . S
C1759 H1820 0.930 . S
C1760 C1756 1.567 . S
C1760 H1821 0.961 . S
C1760 H1822 0.960 . S
C1760 H1823 0.958 . S
C1761 C1758 1.530 . S
C1761 H1824 0.961 . S
C1761 H1825 0.960 . S
C1761 H1826 0.960 . S
C1762 C1763 1.530 . S
C1762 H1828 0.961 . S
C1762 H1829 0.961 . S
C1762 H1830 0.959 . S
C1763 C1762 1.530 . S
C1763 O1791 1.412 . S
C1763 H1827 0.954 1_455 S
C1764 C1765 1.288 . S
C1764 C1769 1.377 1_455 S
C1764 O1791 1.393 . S
C1765 C1764 1.288 . S
C1765 C1766 1.369 . S
C1765 H1831 0.932 . S
C1766 C1765 1.369 . S
C1766 C1767 1.398 . S
C1766 C1770 1.527 . S
C1767 C1766 1.398 . S
C1767 C1768 1.380 1_455 S
C1767 C1781 1.497 1_455 S
C1768 C1767 1.380 1_655 S
C1768 C1769 1.383 . S
C1768 C1771 1.603 . S
C1769 C1764 1.377 1_655 S
C1769 C1768 1.383 . S
C1769 H1832 0.929 . S
C1770 C1766 1.527 . S
C1770 H1833 0.961 . S
C1770 H1834 0.959 . S
C1770 H1835 0.959 . S
C1771 C1768 1.603 . S
C1771 H1836 0.960 . S
C1771 H1837 0.962 . S
C1771 H1838 0.961 . S
C1772 C1739 1.587 . S
C1772 C1773 1.360 . S
C1772 C1785 1.412 . S
C1773 C1772 1.360 . S
C1773 C1774 1.365 . S
C1773 H1839 0.929 . S
C1774 C1749 1.553 . S
C1774 C1773 1.365 . S
C1774 C1775 1.404 . S
C1775 C1774 1.404 . S
C1775 C1776 1.395 . S
C1775 C1786 1.451 . S
C1776 C1775 1.395 . S
C1776 C1777 1.322 . S
C1776 H1840 0.930 . S
C1777 C1776 1.322 . S
C1777 C1778 1.459 . S
C1777 H1841 0.929 . S
C1778 C1777 1.459 . S
C1778 C1779 1.445 . S
C1778 C1787 1.395 . S
C1779 C1757 1.432 . S
C1779 C1778 1.445 . S
C1779 C1780 1.370 . S
C1780 C1779 1.370 . S
C1780 C1781 1.438 . S
C1780 H1842 0.930 . S
C1781 C1767 1.497 1_655 S
C1781 C1780 1.438 . S
C1781 C1782 1.360 . S
C1782 C1781 1.360 . S
C1782 C1783 1.401 . S
C1782 C1787 1.446 . S
C1783 C1782 1.401 . S
C1783 C1784 1.347 . S
C1783 H1843 0.909 . S
C1784 C1783 1.347 . S
C1784 C1785 1.455 . S
C1784 H1844 0.930 . S
C1785 C1772 1.412 . S
C1785 C1784 1.455 . S
C1785 C1786 1.331 . S
C1786 C1775 1.451 . S
C1786 C1785 1.331 . S
C1786 C1787 1.497 . S
C1787 C1778 1.395 . S
C1787 C1782 1.446 . S
C1787 C1786 1.497 . S
C1788 C1789 1.584 . S
C1788 H1845 0.962 . S
C1788 H1846 0.959 . S
C1788 H1847 0.958 . S
C1789 C1788 1.584 . S
C1789 O1792 1.504 . S
C1789 H1818 0.963 1_655 S
O1790 C1735 1.426 . S
O1790 C1736 1.334 . S
O1791 C1763 1.412 . S
O1791 C1764 1.393 . S
O1792 C1754 1.435 . S
O1792 C1789 1.504 . S
O1793 C1745 1.468 . S
O1793 C1746 1.408 . S
H1794 C1735 0.980 1_655 S
H1795 C1734 0.959 . S
H1796 C1734 0.959 . S
H1797 C1734 0.960 . S
H1798 C1737 0.929 . S
H1799 C1741 0.929 . S
H1800 C1742 0.959 . S
H1801 C1742 0.961 . S
H1802 C1742 0.961 . S
H1803 C1743 0.960 . S
H1804 C1743 0.960 . S
H1805 C1743 0.961 . S
H1806 C1745 0.980 . S
H1807 C1744 0.961 . S
H1808 C1744 0.960 . S
H1809 C1744 0.959 . S
H1810 C1747 0.848 1_455 S
H1811 C1751 0.931 . S
H1812 C1752 0.959 . S
H1813 C1752 0.961 . S
H1814 C1752 0.959 . S
H1815 C1753 0.960 . S
H1816 C1753 0.960 . S
H1817 C1753 0.960 . S
H1818 C1789 0.963 1_455 S
H1819 C1755 0.930 . S
H1820 C1759 0.930 . S
H1821 C1760 0.961 . S
H1822 C1760 0.960 . S
H1823 C1760 0.958 . S
H1824 C1761 0.961 . S
H1825 C1761 0.960 . S
H1826 C1761 0.960 . S
H1827 C1763 0.954 1_655 S
H1828 C1762 0.961 . S
H1829 C1762 0.961 . S
H1830 C1762 0.959 . S
H1831 C1765 0.932 . S
H1832 C1769 0.929 . S
H1833 C1770 0.961 . S
H1834 C1770 0.959 . S
H1835 C1770 0.959 . S
H1836 C1771 0.960 . S
H1837 C1771 0.962 . S
H1838 C1771 0.961 . S
H1839 C1773 0.929 . S
H1840 C1776 0.930 . S
H1841 C1777 0.929 . S
H1842 C1780 0.930 . S
H1843 C1783 0.909 . S
H1844 C1784 0.930 . S
H1845 C1788 0.962 . S
H1846 C1788 0.959 . S
H1847 C1788 0.958 . S
C1848 C1849 1.560 . S
C1848 H1909 0.959 . S
C1848 H1910 0.959 . S
C1848 H1911 0.960 . S
C1849 C1848 1.560 . S
C1849 O1904 1.426 . S
C1849 H1908 0.980 . S
C1850 C1851 1.407 . S
C1850 C1855 1.418 . S
C1850 O1904 1.334 . S
C1851 C1850 1.407 . S
C1851 C1852 1.360 . S
C1851 H1912 0.929 . S
C1852 C1851 1.360 . S
C1852 C1853 1.401 . S
C1852 C1856 1.527 . S
C1853 C1852 1.401 . S
C1853 C1854 1.405 . S
C1853 C1886 1.587 . S
C1854 C1853 1.405 . S
C1854 C1855 1.332 . S
C1854 C1857 1.496 . S
C1855 C1850 1.418 . S
C1855 C1854 1.332 . S
C1855 H1913 0.929 . S
C1856 C1852 1.527 . S
C1856 H1914 0.959 . S
C1856 H1915 0.961 . S
C1856 H1916 0.961 . S
C1857 C1854 1.496 . S
C1857 H1917 0.960 . S
C1857 H1918 0.960 . S
C1857 H1919 0.961 . S
C1858 C1859 1.517 . S
C1858 H1921 0.961 . S
C1858 H1922 0.960 . S
C1858 H1923 0.959 . S
C1859 C1858 1.517 . S
C1859 O1907 1.468 . S
C1859 H1920 0.980 . S
C1860 C1861 1.349 . S
C1860 C1865 1.367 . S
C1860 O1907 1.408 . S
C1861 C1860 1.349 . S
C1861 C1862 1.407 . S
C1861 H1924 0.930 . S
C1862 C1861 1.407 . S
C1862 C1863 1.449 . S
C1862 C1866 1.535 . S
C1863 C1862 1.449 . S
C1863 C1864 1.384 . S
C1863 C1888 1.553 . S
C1864 C1863 1.384 . S
C1864 C1865 1.364 . S
C1864 C1867 1.450 . S
C1865 C1860 1.367 . S
C1865 C1864 1.364 . S
C1865 H1925 0.931 . S
C1866 C1862 1.535 . S
C1866 H1926 0.959 . S
C1866 H1927 0.961 . S
C1866 H1928 0.959 . S
C1867 C1864 1.450 . S
C1867 H1929 0.960 . S
C1867 H1930 0.960 . S
C1867 H1931 0.960 . S
C1868 C1869 1.309 . S
C1868 C1873 1.304 . S
C1868 O1906 1.435 . S
C1869 C1868 1.309 . S
C1869 C1870 1.476 . S
C1869 H1933 0.930 . S
C1870 C1869 1.476 . S
C1870 C1871 1.400 . S
C1870 C1874 1.567 . S
C1871 C1870 1.400 . S
C1871 C1872 1.373 . S
C1871 C1893 1.432 . S
C1872 C1871 1.373 . S
C1872 C1873 1.339 . S
C1872 C1875 1.530 . S
C1873 C1868 1.304 . S
C1873 C1872 1.339 . S
C1873 H1934 0.930 . S
C1874 C1870 1.567 . S
C1874 H1935 0.961 . S
C1874 H1936 0.960 . S
C1874 H1937 0.958 . S
C1875 C1872 1.530 . S
C1875 H1938 0.961 . S
C1875 H1939 0.960 . S
C1875 H1940 0.960 . S
C1876 C1877 1.530 . S
C1876 H1942 0.961 . S
C1876 H1943 0.961 . S
C1876 H1944 0.959 . S
C1877 C1876 1.530 . S
C1877 O1905 1.412 . S
C1877 H1941 0.980 . S
C1878 C1879 1.288 . S
C1878 C1883 1.377 . S
C1878 O1905 1.393 . S
C1879 C1878 1.288 . S
C1879 C1880 1.369 . S
C1879 H1945 0.932 . S
C1880 C1879 1.369 . S
C1880 C1881 1.398 . S
C1880 C1884 1.527 . S
C1881 C1880 1.398 . S
C1881 C1882 1.380 . S
C1881 C1895 1.497 . S
C1882 C1881 1.380 . S
C1882 C1883 1.383 . S
C1882 C1885 1.603 . S
C1883 C1878 1.377 . S
C1883 C1882 1.383 . S
C1883 H1946 0.929 . S
C1884 C1880 1.527 . S
C1884 H1947 0.961 . S
C1884 H1948 0.959 . S
C1884 H1949 0.959 . S
C1885 C1882 1.603 . S
C1885 H1950 0.960 . S
C1885 H1951 0.962 . S
C1885 H1952 0.961 . S
C1886 C1853 1.587 . S
C1886 C1887 1.360 . S
C1886 C1899 1.412 . S
C1887 C1886 1.360 . S
C1887 C1888 1.365 . S
C1887 H1953 0.929 . S
C1888 C1863 1.553 . S
C1888 C1887 1.365 . S
C1888 C1889 1.404 . S
C1889 C1888 1.404 . S
C1889 C1890 1.395 . S
C1889 C1900 1.451 . S
C1890 C1889 1.395 . S
C1890 C1891 1.322 . S
C1890 H1954 0.930 . S
C1891 C1890 1.322 . S
C1891 C1892 1.459 . S
C1891 H1955 0.929 . S
C1892 C1891 1.459 . S
C1892 C1893 1.445 . S
C1892 C1901 1.395 . S
C1893 C1871 1.432 . S
C1893 C1892 1.445 . S
C1893 C1894 1.370 . S
C1894 C1893 1.370 . S
C1894 C1895 1.438 . S
C1894 H1956 0.930 . S
C1895 C1881 1.497 . S
C1895 C1894 1.438 . S
C1895 C1896 1.360 . S
C1896 C1895 1.360 . S
C1896 C1897 1.401 . S
C1896 C1901 1.446 . S
C1897 C1896 1.401 . S
C1897 C1898 1.347 . S
C1897 H1957 0.929 . S
C1898 C1897 1.347 . S
C1898 C1899 1.455 . S
C1898 H1958 0.930 . S
C1899 C1886 1.412 . S
C1899 C1898 1.455 . S
C1899 C1900 1.331 . S
C1900 C1889 1.451 . S
C1900 C1899 1.331 . S
C1900 C1901 1.497 . S
C1901 C1892 1.395 . S
C1901 C1896 1.446 . S
C1901 C1900 1.497 . S
C1902 C1903 1.582 . S
C1902 H1959 0.962 . S
C1902 H1960 0.959 . S
C1902 H1961 0.958 . S
C1903 C1902 1.582 . S
C1903 O1906 1.458 . S
C1903 H1932 0.980 . S
O1904 C1849 1.426 . S
O1904 C1850 1.334 . S
O1905 C1877 1.412 . S
O1905 C1878 1.393 . S
O1906 C1868 1.435 . S
O1906 C1903 1.458 . S
O1907 C1859 1.468 . S
O1907 C1860 1.408 . S
H1908 C1849 0.980 . S
H1909 C1848 0.959 . S
H1910 C1848 0.959 . S
H1911 C1848 0.960 . S
H1912 C1851 0.929 . S
H1913 C1855 0.929 . S
H1914 C1856 0.959 . S
H1915 C1856 0.961 . S
H1916 C1856 0.961 . S
H1917 C1857 0.960 . S
H1918 C1857 0.960 . S
H1919 C1857 0.961 . S
H1920 C1859 0.980 . S
H1921 C1858 0.961 . S
H1922 C1858 0.960 . S
H1923 C1858 0.959 . S
H1924 C1861 0.930 . S
H1925 C1865 0.931 . S
H1926 C1866 0.959 . S
H1927 C1866 0.961 . S
H1928 C1866 0.959 . S
H1929 C1867 0.960 . S
H1930 C1867 0.960 . S
H1931 C1867 0.960 . S
H1932 C1903 0.980 . S
H1933 C1869 0.930 . S
H1934 C1873 0.930 . S
H1935 C1874 0.961 . S
H1936 C1874 0.960 . S
H1937 C1874 0.958 . S
H1938 C1875 0.961 . S
H1939 C1875 0.960 . S
H1940 C1875 0.960 . S
H1941 C1877 0.980 . S
H1942 C1876 0.961 . S
H1943 C1876 0.961 . S
H1944 C1876 0.959 . S
H1945 C1879 0.932 . S
H1946 C1883 0.929 . S
H1947 C1884 0.961 . S
H1948 C1884 0.959 . S
H1949 C1884 0.959 . S
H1950 C1885 0.960 . S
H1951 C1885 0.962 . S
H1952 C1885 0.961 . S
H1953 C1887 0.929 . S
H1954 C1890 0.930 . S
H1955 C1891 0.929 . S
H1956 C1894 0.930 . S
H1957 C1897 0.929 . S
H1958 C1898 0.930 . S
H1959 C1902 0.962 . S
H1960 C1902 0.959 . S
H1961 C1902 0.958 . S
C1962 C1963 1.560 . S
C1962 H2023 0.959 . S
C1962 H2024 0.959 . S
C1962 H2025 0.960 . S
C1963 C1962 1.560 . S
C1963 O2018 1.426 . S
C1963 H2022 0.980 . S
C1964 C1965 1.407 . S
C1964 C1969 1.418 . S
C1964 O2018 1.334 . S
C1965 C1964 1.407 . S
C1965 C1966 1.360 . S
C1965 H2026 0.929 . S
C1966 C1965 1.360 . S
C1966 C1967 1.401 . S
C1966 C1970 1.527 . S
C1967 C1966 1.401 . S
C1967 C1968 1.405 . S
C1967 C2000 1.587 . S
C1968 C1967 1.405 . S
C1968 C1969 1.332 . S
C1968 C1971 1.496 . S
C1969 C1964 1.418 . S
C1969 C1968 1.332 . S
C1969 H2027 0.929 . S
C1970 C1966 1.527 . S
C1970 H2028 0.959 . S
C1970 H2029 0.961 . S
C1970 H2030 0.961 . S
C1971 C1968 1.496 . S
C1971 H2031 0.960 . S
C1971 H2032 0.960 . S
C1971 H2033 0.961 . S
C1972 C1973 1.517 . S
C1972 H2035 0.961 . S
C1972 H2036 0.960 . S
C1972 H2037 0.959 . S
C1973 C1972 1.517 . S
C1973 O2021 1.468 . S
C1973 H2034 0.980 . S
C1974 C1975 1.349 . S
C1974 C1979 1.367 . S
C1974 O2021 1.408 . S
C1975 C1974 1.349 . S
C1975 C1976 1.407 . S
C1975 H2038 0.930 . S
C1976 C1975 1.407 . S
C1976 C1977 1.449 . S
C1976 C1980 1.535 . S
C1977 C1976 1.449 . S
C1977 C1978 1.384 . S
C1977 C2002 1.553 . S
C1978 C1977 1.384 . S
C1978 C1979 1.364 . S
C1978 C1981 1.450 . S
C1979 C1974 1.367 . S
C1979 C1978 1.364 . S
C1979 H2039 0.931 . S
C1980 C1976 1.535 . S
C1980 H2040 0.959 . S
C1980 H2041 0.961 . S
C1980 H2042 0.959 . S
C1981 C1978 1.450 . S
C1981 H2043 0.960 . S
C1981 H2044 0.960 . S
C1981 H2045 0.960 . S
C1982 C1983 1.309 . S
C1982 C1987 1.304 . S
C1982 O2020 1.435 . S
C1983 C1982 1.309 . S
C1983 C1984 1.476 . S
C1983 H2047 0.930 . S
C1984 C1983 1.476 . S
C1984 C1985 1.400 . S
C1984 C1988 1.567 . S
C1985 C1984 1.400 . S
C1985 C1986 1.373 . S
C1985 C2007 1.432 . S
C1986 C1985 1.373 . S
C1986 C1987 1.339 . S
C1986 C1989 1.530 . S
C1987 C1982 1.304 . S
C1987 C1986 1.339 . S
C1987 H2048 0.930 . S
C1988 C1984 1.567 . S
C1988 H2049 0.961 . S
C1988 H2050 0.960 . S
C1988 H2051 0.958 . S
C1989 C1986 1.530 . S
C1989 H2052 0.961 . S
C1989 H2053 0.960 . S
C1989 H2054 0.960 . S
C1990 C1991 1.530 . S
C1990 H2056 0.961 . S
C1990 H2057 0.961 . S
C1990 H2058 0.959 . S
C1991 C1990 1.530 . S
C1991 O2019 1.412 . S
C1991 H2055 0.980 . S
C1992 C1993 1.288 . S
C1992 C1997 1.377 . S
C1992 O2019 1.393 . S
C1993 C1992 1.288 . S
C1993 C1994 1.369 . S
C1993 H2059 0.932 . S
C1994 C1993 1.369 . S
C1994 C1995 1.398 . S
C1994 C1998 1.527 . S
C1995 C1994 1.398 . S
C1995 C1996 1.380 . S
C1995 C2009 1.497 . S
C1996 C1995 1.380 . S
C1996 C1997 1.383 . S
C1996 C1999 1.603 . S
C1997 C1992 1.377 . S
C1997 C1996 1.383 . S
C1997 H2060 0.929 . S
C1998 C1994 1.527 . S
C1998 H2061 0.961 . S
C1998 H2062 0.959 . S
C1998 H2063 0.959 . S
C1999 C1996 1.603 . S
C1999 H2064 0.960 . S
C1999 H2065 0.962 . S
C1999 H2066 0.961 . S
C2000 C1967 1.587 . S
C2000 C2001 1.360 . S
C2000 C2013 1.412 . S
C2001 C2000 1.360 . S
C2001 C2002 1.365 . S
C2001 H2067 0.929 . S
C2002 C1977 1.553 . S
C2002 C2001 1.365 . S
C2002 C2003 1.404 . S
C2003 C2002 1.404 . S
C2003 C2004 1.395 . S
C2003 C2014 1.451 . S
C2004 C2003 1.395 . S
C2004 C2005 1.322 . S
C2004 H2068 0.930 . S
C2005 C2004 1.322 . S
C2005 C2006 1.459 . S
C2005 H2069 0.929 . S
C2006 C2005 1.459 . S
C2006 C2007 1.445 . S
C2006 C2015 1.395 . S
C2007 C1985 1.432 . S
C2007 C2006 1.445 . S
C2007 C2008 1.370 . S
C2008 C2007 1.370 . S
C2008 C2009 1.438 . S
C2008 H2070 0.930 . S
C2009 C1995 1.497 . S
C2009 C2008 1.438 . S
C2009 C2010 1.360 . S
C2010 C2009 1.360 . S
C2010 C2011 1.401 . S
C2010 C2015 1.446 . S
C2011 C2010 1.401 . S
C2011 C2012 1.347 . S
C2011 H2071 0.929 . S
C2012 C2011 1.347 . S
C2012 C2013 1.455 . S
C2012 H2072 0.930 . S
C2013 C2000 1.412 . S
C2013 C2012 1.455 . S
C2013 C2014 1.331 . S
C2014 C2003 1.451 . S
C2014 C2013 1.331 . S
C2014 C2015 1.497 . S
C2015 C2006 1.395 . S
C2015 C2010 1.446 . S
C2015 C2014 1.497 . S
C2016 C2017 1.582 . S
C2016 H2073 0.962 . S
C2016 H2074 0.959 . S
C2016 H2075 0.958 . S
C2017 C2016 1.582 . S
C2017 O2020 1.458 . S
C2017 H2046 0.980 . S
O2018 C1963 1.426 . S
O2018 C1964 1.334 . S
O2019 C1991 1.412 . S
O2019 C1992 1.393 . S
O2020 C1982 1.435 . S
O2020 C2017 1.458 . S
O2021 C1973 1.468 . S
O2021 C1974 1.408 . S
H2022 C1963 0.980 . S
H2023 C1962 0.959 . S
H2024 C1962 0.959 . S
H2025 C1962 0.960 . S
H2026 C1965 0.929 . S
H2027 C1969 0.929 . S
H2028 C1970 0.959 . S
H2029 C1970 0.961 . S
H2030 C1970 0.961 . S
H2031 C1971 0.960 . S
H2032 C1971 0.960 . S
H2033 C1971 0.961 . S
H2034 C1973 0.980 . S
H2035 C1972 0.961 . S
H2036 C1972 0.960 . S
H2037 C1972 0.959 . S
H2038 C1975 0.930 . S
H2039 C1979 0.931 . S
H2040 C1980 0.959 . S
H2041 C1980 0.961 . S
H2042 C1980 0.959 . S
H2043 C1981 0.960 . S
H2044 C1981 0.960 . S
H2045 C1981 0.960 . S
H2046 C2017 0.980 . S
H2047 C1983 0.930 . S
H2048 C1987 0.930 . S
H2049 C1988 0.961 . S
H2050 C1988 0.960 . S
H2051 C1988 0.958 . S
H2052 C1989 0.961 . S
H2053 C1989 0.960 . S
H2054 C1989 0.960 . S
H2055 C1991 0.980 . S
H2056 C1990 0.961 . S
H2057 C1990 0.961 . S
H2058 C1990 0.959 . S
H2059 C1993 0.932 . S
H2060 C1997 0.929 . S
H2061 C1998 0.961 . S
H2062 C1998 0.959 . S
H2063 C1998 0.959 . S
H2064 C1999 0.960 . S
H2065 C1999 0.962 . S
H2066 C1999 0.961 . S
H2067 C2001 0.929 . S
H2068 C2004 0.930 . S
H2069 C2005 0.929 . S
H2070 C2008 0.930 . S
H2071 C2011 0.929 . S
H2072 C2012 0.930 . S
H2073 C2016 0.962 . S
H2074 C2016 0.959 . S
H2075 C2016 0.958 . S
C2076 C2077 1.560 . S
C2076 H2137 0.959 . S
C2076 H2138 0.959 . S
C2076 H2139 0.960 . S
C2077 C2076 1.560 . S
C2077 O2132 1.426 . S
C2077 H2136 0.980 . S
C2078 C2079 1.407 . S
C2078 C2083 1.418 . S
C2078 O2132 1.334 . S
C2079 C2078 1.407 . S
C2079 C2080 1.360 . S
C2079 H2140 0.929 . S
C2080 C2079 1.360 . S
C2080 C2081 1.401 . S
C2080 C2084 1.527 . S
C2081 C2080 1.401 . S
C2081 C2082 1.405 . S
C2081 C2114 1.587 . S
C2082 C2081 1.405 . S
C2082 C2083 1.332 . S
C2082 C2085 1.496 . S
C2083 C2078 1.418 . S
C2083 C2082 1.332 . S
C2083 H2141 0.929 . S
C2084 C2080 1.527 . S
C2084 H2142 0.959 . S
C2084 H2143 0.961 . S
C2084 H2144 0.961 . S
C2085 C2082 1.496 . S
C2085 H2145 0.960 . S
C2085 H2146 0.960 . S
C2085 H2147 0.961 . S
C2086 C2087 1.517 . S
C2086 H2149 0.961 . S
C2086 H2150 0.960 . S
C2086 H2151 0.959 . S
C2087 C2086 1.517 . S
C2087 O2135 1.468 . S
C2087 H2148 0.980 . S
C2088 C2089 1.349 . S
C2088 C2093 1.367 . S
C2088 O2135 1.408 . S
C2089 C2088 1.349 . S
C2089 C2090 1.407 . S
C2089 H2152 0.930 . S
C2090 C2089 1.407 . S
C2090 C2091 1.449 . S
C2090 C2094 1.535 . S
C2091 C2090 1.449 . S
C2091 C2092 1.384 . S
C2091 C2116 1.553 . S
C2092 C2091 1.384 . S
C2092 C2093 1.364 . S
C2092 C2095 1.450 . S
C2093 C2088 1.367 . S
C2093 C2092 1.364 . S
C2093 H2153 0.931 . S
C2094 C2090 1.535 . S
C2094 H2154 0.959 . S
C2094 H2155 0.961 . S
C2094 H2156 0.959 . S
C2095 C2092 1.450 . S
C2095 H2157 0.960 . S
C2095 H2158 0.960 . S
C2095 H2159 0.960 . S
C2096 C2097 1.309 . S
C2096 C2101 1.304 . S
C2096 O2134 1.435 . S
C2097 C2096 1.309 . S
C2097 C2098 1.476 . S
C2097 H2161 0.930 . S
C2098 C2097 1.476 . S
C2098 C2099 1.400 . S
C2098 C2102 1.567 . S
C2099 C2098 1.400 . S
C2099 C2100 1.373 . S
C2099 C2121 1.432 . S
C2100 C2099 1.373 . S
C2100 C2101 1.339 . S
C2100 C2103 1.530 . S
C2101 C2096 1.304 . S
C2101 C2100 1.339 . S
C2101 H2162 0.930 . S
C2102 C2098 1.567 . S
C2102 H2163 0.961 . S
C2102 H2164 0.960 . S
C2102 H2165 0.958 . S
C2103 C2100 1.530 . S
C2103 H2166 0.961 . S
C2103 H2167 0.960 . S
C2103 H2168 0.960 . S
C2104 C2105 1.530 . S
C2104 H2170 0.961 . S
C2104 H2171 0.961 . S
C2104 H2172 0.959 . S
C2105 C2104 1.530 . S
C2105 O2133 1.412 . S
C2105 H2169 0.980 . S
C2106 C2107 1.288 . S
C2106 C2111 1.377 . S
C2106 O2133 1.393 . S
C2107 C2106 1.288 . S
C2107 C2108 1.369 . S
C2107 H2173 0.932 . S
C2108 C2107 1.369 . S
C2108 C2109 1.398 . S
C2108 C2112 1.527 . S
C2109 C2108 1.398 . S
C2109 C2110 1.380 . S
C2109 C2123 1.497 . S
C2110 C2109 1.380 . S
C2110 C2111 1.383 . S
C2110 C2113 1.603 . S
C2111 C2106 1.377 . S
C2111 C2110 1.383 . S
C2111 H2174 0.929 . S
C2112 C2108 1.527 . S
C2112 H2175 0.961 . S
C2112 H2176 0.959 . S
C2112 H2177 0.959 . S
C2113 C2110 1.603 . S
C2113 H2178 0.960 . S
C2113 H2179 0.962 . S
C2113 H2180 0.961 . S
C2114 C2081 1.587 . S
C2114 C2115 1.360 . S
C2114 C2127 1.412 . S
C2115 C2114 1.360 . S
C2115 C2116 1.365 . S
C2115 H2181 0.929 . S
C2116 C2091 1.553 . S
C2116 C2115 1.365 . S
C2116 C2117 1.404 . S
C2117 C2116 1.404 . S
C2117 C2118 1.395 . S
C2117 C2128 1.451 . S
C2118 C2117 1.395 . S
C2118 C2119 1.322 . S
C2118 H2182 0.930 . S
C2119 C2118 1.322 . S
C2119 C2120 1.459 . S
C2119 H2183 0.929 . S
C2120 C2119 1.459 . S
C2120 C2121 1.445 . S
C2120 C2129 1.395 . S
C2121 C2099 1.432 . S
C2121 C2120 1.445 . S
C2121 C2122 1.370 . S
C2122 C2121 1.370 . S
C2122 C2123 1.438 . S
C2122 H2184 0.930 . S
C2123 C2109 1.497 . S
C2123 C2122 1.438 . S
C2123 C2124 1.360 . S
C2124 C2123 1.360 . S
C2124 C2125 1.401 . S
C2124 C2129 1.446 . S
C2125 C2124 1.401 . S
C2125 C2126 1.347 . S
C2125 H2185 0.929 . S
C2126 C2125 1.347 . S
C2126 C2127 1.455 . S
C2126 H2186 0.930 . S
C2127 C2114 1.412 . S
C2127 C2126 1.455 . S
C2127 C2128 1.331 . S
C2128 C2117 1.451 . S
C2128 C2127 1.331 . S
C2128 C2129 1.497 . S
C2129 C2120 1.395 . S
C2129 C2124 1.446 . S
C2129 C2128 1.497 . S
C2130 C2131 1.582 . S
C2130 H2187 0.962 . S
C2130 H2188 0.959 . S
C2130 H2189 0.958 . S
C2131 C2130 1.582 . S
C2131 O2134 1.458 . S
C2131 H2160 0.980 . S
O2132 C2077 1.426 . S
O2132 C2078 1.334 . S
O2133 C2105 1.412 . S
O2133 C2106 1.393 . S
O2134 C2096 1.435 . S
O2134 C2131 1.458 . S
O2135 C2087 1.468 . S
O2135 C2088 1.408 . S
H2136 C2077 0.980 . S
H2137 C2076 0.959 . S
H2138 C2076 0.959 . S
H2139 C2076 0.960 . S
H2140 C2079 0.929 . S
H2141 C2083 0.929 . S
H2142 C2084 0.959 . S
H2143 C2084 0.961 . S
H2144 C2084 0.961 . S
H2145 C2085 0.960 . S
H2146 C2085 0.960 . S
H2147 C2085 0.961 . S
H2148 C2087 0.980 . S
H2149 C2086 0.961 . S
H2150 C2086 0.960 . S
H2151 C2086 0.959 . S
H2152 C2089 0.930 . S
H2153 C2093 0.931 . S
H2154 C2094 0.959 . S
H2155 C2094 0.961 . S
H2156 C2094 0.959 . S
H2157 C2095 0.960 . S
H2158 C2095 0.960 . S
H2159 C2095 0.960 . S
H2160 C2131 0.980 . S
H2161 C2097 0.930 . S
H2162 C2101 0.930 . S
H2163 C2102 0.961 . S
H2164 C2102 0.960 . S
H2165 C2102 0.958 . S
H2166 C2103 0.961 . S
H2167 C2103 0.960 . S
H2168 C2103 0.960 . S
H2169 C2105 0.980 . S
H2170 C2104 0.961 . S
H2171 C2104 0.961 . S
H2172 C2104 0.959 . S
H2173 C2107 0.932 . S
H2174 C2111 0.929 . S
H2175 C2112 0.961 . S
H2176 C2112 0.959 . S
H2177 C2112 0.959 . S
H2178 C2113 0.960 . S
H2179 C2113 0.962 . S
H2180 C2113 0.961 . S
H2181 C2115 0.929 . S
H2182 C2118 0.930 . S
H2183 C2119 0.929 . S
H2184 C2122 0.930 . S
H2185 C2125 0.929 . S
H2186 C2126 0.930 . S
H2187 C2130 0.962 . S
H2188 C2130 0.959 . S
H2189 C2130 0.958 . S
C2190 C2191 1.560 . S
C2190 H2251 0.959 . S
C2190 H2252 0.959 . S
C2190 H2253 0.960 . S
C2191 C2190 1.560 . S
C2191 O2246 1.426 . S
C2191 H2250 0.980 . S
C2192 C2193 1.407 . S
C2192 C2197 1.418 . S
C2192 O2246 1.334 . S
C2193 C2192 1.407 . S
C2193 C2194 1.360 . S
C2193 H2254 0.929 . S
C2194 C2193 1.360 . S
C2194 C2195 1.401 . S
C2194 C2198 1.527 . S
C2195 C2194 1.401 . S
C2195 C2196 1.405 . S
C2195 C2228 1.587 . S
C2196 C2195 1.405 . S
C2196 C2197 1.332 . S
C2196 C2199 1.496 . S
C2197 C2192 1.418 . S
C2197 C2196 1.332 . S
C2197 H2255 0.929 . S
C2198 C2194 1.527 . S
C2198 H2256 0.959 . S
C2198 H2257 0.961 . S
C2198 H2258 0.961 . S
C2199 C2196 1.496 . S
C2199 H2259 0.960 . S
C2199 H2260 0.960 . S
C2199 H2261 0.961 . S
C2200 C2201 1.517 . S
C2200 H2263 0.961 . S
C2200 H2264 0.960 . S
C2200 H2265 0.959 . S
C2201 C2200 1.517 . S
C2201 O2249 1.468 . S
C2201 H2262 0.980 . S
C2202 C2203 1.349 . S
C2202 C2207 1.367 . S
C2202 O2249 1.408 . S
C2203 C2202 1.349 . S
C2203 C2204 1.407 . S
C2203 H2266 0.930 . S
C2204 C2203 1.407 . S
C2204 C2205 1.449 . S
C2204 C2208 1.535 . S
C2205 C2204 1.449 . S
C2205 C2206 1.384 . S
C2205 C2230 1.553 . S
C2206 C2205 1.384 . S
C2206 C2207 1.364 . S
C2206 C2209 1.450 . S
C2207 C2202 1.367 . S
C2207 C2206 1.364 . S
C2207 H2267 0.931 . S
C2208 C2204 1.535 . S
C2208 H2268 0.959 . S
C2208 H2269 0.961 . S
C2208 H2270 0.959 . S
C2209 C2206 1.450 . S
C2209 H2271 0.960 . S
C2209 H2272 0.960 . S
C2209 H2273 0.960 . S
C2210 C2211 1.309 . S
C2210 C2215 1.304 . S
C2210 O2248 1.435 . S
C2211 C2210 1.309 . S
C2211 C2212 1.476 . S
C2211 H2275 0.930 . S
C2212 C2211 1.476 . S
C2212 C2213 1.400 . S
C2212 C2216 1.567 . S
C2213 C2212 1.400 . S
C2213 C2214 1.373 . S
C2213 C2235 1.432 . S
C2214 C2213 1.373 . S
C2214 C2215 1.339 . S
C2214 C2217 1.530 . S
C2215 C2210 1.304 . S
C2215 C2214 1.339 . S
C2215 H2276 0.930 . S
C2216 C2212 1.567 . S
C2216 H2277 0.961 . S
C2216 H2278 0.960 . S
C2216 H2279 0.958 . S
C2217 C2214 1.530 . S
C2217 H2280 0.961 . S
C2217 H2281 0.960 . S
C2217 H2282 0.960 . S
C2218 C2219 1.530 . S
C2218 H2284 0.961 . S
C2218 H2285 0.961 . S
C2218 H2286 0.959 . S
C2219 C2218 1.530 . S
C2219 O2247 1.412 . S
C2219 H2283 0.980 . S
C2220 C2221 1.288 . S
C2220 C2225 1.377 . S
C2220 O2247 1.393 . S
C2221 C2220 1.288 . S
C2221 C2222 1.369 . S
C2221 H2287 0.932 . S
C2222 C2221 1.369 . S
C2222 C2223 1.398 . S
C2222 C2226 1.527 . S
C2223 C2222 1.398 . S
C2223 C2224 1.380 . S
C2223 C2237 1.497 . S
C2224 C2223 1.380 . S
C2224 C2225 1.383 . S
C2224 C2227 1.603 . S
C2225 C2220 1.377 . S
C2225 C2224 1.383 . S
C2225 H2288 0.929 . S
C2226 C2222 1.527 . S
C2226 H2289 0.961 . S
C2226 H2290 0.959 . S
C2226 H2291 0.959 . S
C2227 C2224 1.603 . S
C2227 H2292 0.960 . S
C2227 H2293 0.962 . S
C2227 H2294 0.961 . S
C2228 C2195 1.587 . S
C2228 C2229 1.360 . S
C2228 C2241 1.412 . S
C2229 C2228 1.360 . S
C2229 C2230 1.365 . S
C2229 H2295 0.929 . S
C2230 C2205 1.553 . S
C2230 C2229 1.365 . S
C2230 C2231 1.404 . S
C2231 C2230 1.404 . S
C2231 C2232 1.395 . S
C2231 C2242 1.451 . S
C2232 C2231 1.395 . S
C2232 C2233 1.322 . S
C2232 H2296 0.930 . S
C2233 C2232 1.322 . S
C2233 C2234 1.459 . S
C2233 H2297 0.929 . S
C2234 C2233 1.459 . S
C2234 C2235 1.445 . S
C2234 C2243 1.395 . S
C2235 C2213 1.432 . S
C2235 C2234 1.445 . S
C2235 C2236 1.370 . S
C2236 C2235 1.370 . S
C2236 C2237 1.438 . S
C2236 H2298 0.930 . S
C2237 C2223 1.497 . S
C2237 C2236 1.438 . S
C2237 C2238 1.360 . S
C2238 C2237 1.360 . S
C2238 C2239 1.401 . S
C2238 C2243 1.446 . S
C2239 C2238 1.401 . S
C2239 C2240 1.347 . S
C2239 H2299 0.929 . S
C2240 C2239 1.347 . S
C2240 C2241 1.455 . S
C2240 H2300 0.930 . S
C2241 C2228 1.412 . S
C2241 C2240 1.455 . S
C2241 C2242 1.331 . S
C2242 C2231 1.451 . S
C2242 C2241 1.331 . S
C2242 C2243 1.497 . S
C2243 C2234 1.395 . S
C2243 C2238 1.446 . S
C2243 C2242 1.497 . S
C2244 C2245 1.582 . S
C2244 H2301 0.962 . S
C2244 H2302 0.959 . S
C2244 H2303 0.958 . S
C2245 C2244 1.582 . S
C2245 O2248 1.458 . S
C2245 H2274 0.980 . S
O2246 C2191 1.426 . S
O2246 C2192 1.334 . S
O2247 C2219 1.412 . S
O2247 C2220 1.393 . S
O2248 C2210 1.435 . S
O2248 C2245 1.458 . S
O2249 C2201 1.468 . S
O2249 C2202 1.408 . S
H2250 C2191 0.980 . S
H2251 C2190 0.959 . S
H2252 C2190 0.959 . S
H2253 C2190 0.960 . S
H2254 C2193 0.929 . S
H2255 C2197 0.929 . S
H2256 C2198 0.959 . S
H2257 C2198 0.961 . S
H2258 C2198 0.961 . S
H2259 C2199 0.960 . S
H2260 C2199 0.960 . S
H2261 C2199 0.961 . S
H2262 C2201 0.980 . S
H2263 C2200 0.961 . S
H2264 C2200 0.960 . S
H2265 C2200 0.959 . S
H2266 C2203 0.930 . S
H2267 C2207 0.931 . S
H2268 C2208 0.959 . S
H2269 C2208 0.961 . S
H2270 C2208 0.959 . S
H2271 C2209 0.960 . S
H2272 C2209 0.960 . S
H2273 C2209 0.960 . S
H2274 C2245 0.980 . S
H2275 C2211 0.930 . S
H2276 C2215 0.930 . S
H2277 C2216 0.961 . S
H2278 C2216 0.960 . S
H2279 C2216 0.958 . S
H2280 C2217 0.961 . S
H2281 C2217 0.960 . S
H2282 C2217 0.960 . S
H2283 C2219 0.980 . S
H2284 C2218 0.961 . S
H2285 C2218 0.961 . S
H2286 C2218 0.959 . S
H2287 C2221 0.932 . S
H2288 C2225 0.929 . S
H2289 C2226 0.961 . S
H2290 C2226 0.959 . S
H2291 C2226 0.959 . S
H2292 C2227 0.960 . S
H2293 C2227 0.962 . S
H2294 C2227 0.961 . S
H2295 C2229 0.929 . S
H2296 C2232 0.930 . S
H2297 C2233 0.929 . S
H2298 C2236 0.930 . S
H2299 C2239 0.929 . S
H2300 C2240 0.930 . S
H2301 C2244 0.962 . S
H2302 C2244 0.959 . S
H2303 C2244 0.958 . S
H2304 C2312 0.929 . S
H2305 C2314 0.930 . S
H2306 C2316 0.930 . S
H2307 C2319 0.929 . S
H2308 C2322 0.930 . S
H2309 C2324 0.960 . S
H2310 C2324 0.960 . S
H2311 C2324 0.960 . S
C2312 H2304 0.929 . S
C2312 C2313 1.379 1_455 S
C2312 C2314 1.384 . S
C2313 C2312 1.379 1_655 S
C2313 C2319 1.387 . S
C2314 H2305 0.930 . S
C2314 C2312 1.384 . S
C2314 C2315 1.372 1_455 S
C2315 C2314 1.372 1_655 S
C2315 C2316 1.400 . S
C2315 C2320 1.490 . S
C2316 H2306 0.930 . S
C2316 C2315 1.400 . S
C2316 C2319 1.386 . S
H2317 C2333 0.930 . S
H2318 C2334 0.931 . S
C2319 H2307 0.929 . S
C2319 C2313 1.387 . S
C2319 C2316 1.386 . S
C2320 C2315 1.490 . S
C2320 C2322 1.395 1_655 S
C2320 C2323 1.403 . S
H2321 C2327 0.930 . S
C2322 H2308 0.930 . S
C2322 C2320 1.395 1_455 S
C2322 C2325 1.403 . S
C2323 C2320 1.403 . S
C2323 C2324 1.524 . S
C2323 C2327 1.400 . S
C2324 H2309 0.960 . S
C2324 H2310 0.960 . S
C2324 H2311 0.960 . S
C2324 C2323 1.524 . S
C2325 C2322 1.403 . S
C2325 C2326 1.367 1_455 S
C2325 C2329 1.495 . S
C2326 C2325 1.367 1_655 S
C2326 C2327 1.400 . S
C2326 C2328 1.456 . S
C2327 H2321 0.930 . S
C2327 C2323 1.400 . S
C2327 C2326 1.400 . S
C2328 C2326 1.456 . S
C2328 C2330 1.370 1_655 S
C2328 C2334 1.433 . S
C2329 C2325 1.495 . S
C2329 H2335 0.959 . S
C2329 H2336 0.961 . S
C2329 H2337 0.960 . S
C2330 C2328 1.370 1_455 S
C2330 C2331 1.328 1_455 S
C2330 H2338 0.965 . S
C2331 C2330 1.328 1_655 S
C2331 C2332 1.444 . S
C2331 H2339 0.921 . S
C2332 C2331 1.444 . S
C2332 C2333 1.377 . S
C2333 H2317 0.930 . S
C2333 C2332 1.377 . S
C2333 C2334 1.379 . S
C2334 H2318 0.931 . S
C2334 C2328 1.433 . S
C2334 C2333 1.379 . S
H2335 C2329 0.959 . S
H2336 C2329 0.961 . S
H2337 C2329 0.960 . S
H2338 C2330 0.965 . S
H2339 C2331 0.921 . S
H2340 C2348 0.929 . S
H2341 C2350 0.930 . S
H2342 C2352 0.930 . S
H2343 C2355 0.929 . S
H2344 C2358 0.930 . S
H2345 C2360 0.960 . S
H2346 C2360 0.960 . S
H2347 C2360 0.960 . S
C2348 H2340 0.929 . S
C2348 C2349 1.377 . S
C2348 C2350 1.384 . S
C2349 C2348 1.377 . S
C2349 C2355 1.390 . S
C2350 H2341 0.930 . S
C2350 C2348 1.384 . S
C2350 C2351 1.372 . S
C2351 C2350 1.372 . S
C2351 C2352 1.400 . S
C2351 C2356 1.490 . S
C2352 H2342 0.930 . S
C2352 C2351 1.400 . S
C2352 C2355 1.386 . S
H2353 C2369 0.930 . S
H2354 C2370 0.931 . S
C2355 H2343 0.929 . S
C2355 C2349 1.390 . S
C2355 C2352 1.386 . S
C2356 C2351 1.490 . S
C2356 C2358 1.395 . S
C2356 C2359 1.403 . S
H2357 C2363 0.930 . S
C2358 H2344 0.930 . S
C2358 C2356 1.395 . S
C2358 C2361 1.403 . S
C2359 C2356 1.403 . S
C2359 C2360 1.524 . S
C2359 C2363 1.400 . S
C2360 H2345 0.960 . S
C2360 H2346 0.960 . S
C2360 H2347 0.960 . S
C2360 C2359 1.524 . S
C2361 C2358 1.403 . S
C2361 C2362 1.392 . S
C2361 C2365 1.495 . S
C2362 C2361 1.392 . S
C2362 C2363 1.385 . S
C2362 C2364 1.478 . S
C2363 H2357 0.930 . S
C2363 C2359 1.400 . S
C2363 C2362 1.385 . S
C2364 C2362 1.478 . S
C2364 C2366 1.381 . S
C2364 C2370 1.383 . S
C2365 C2361 1.495 . S
C2365 H2371 0.959 . S
C2365 H2372 0.961 . S
C2365 H2373 0.960 . S
C2366 C2364 1.381 . S
C2366 C2367 1.394 . S
C2366 H2374 0.930 . S
C2367 C2366 1.394 . S
C2367 C2368 1.383 . S
C2367 H2375 0.929 . S
C2368 C2367 1.383 . S
C2368 C2369 1.377 . S
C2369 H2353 0.930 . S
C2369 C2368 1.377 . S
C2369 C2370 1.379 . S
C2370 H2354 0.931 . S
C2370 C2364 1.383 . S
C2370 C2369 1.379 . S
H2371 C2365 0.959 . S
H2372 C2365 0.961 . S
H2373 C2365 0.960 . S
H2374 C2366 0.930 . S
H2375 C2367 0.929 . S
H2376 C2384 0.929 . S
H2377 C2386 0.930 . S
H2378 C2388 0.865 1_565 S
H2379 C2391 0.907 1_565 S
H2380 C2394 0.930 . S
H2381 C2396 0.960 . S
H2382 C2396 0.960 . S
H2383 C2396 0.960 . S
C2384 H2376 0.929 . S
C2384 C2385 1.377 . S
C2384 C2386 1.384 . S
C2385 C2384 1.377 . S
C2385 C2391 1.438 . S
C2386 H2377 0.930 . S
C2386 C2384 1.384 . S
C2386 C2387 1.372 . S
C2387 C2386 1.372 . S
C2387 C2388 1.435 . S
C2387 C2392 1.490 . S
C2388 H2378 0.865 1_545 S
C2388 C2387 1.435 . S
C2388 C2391 1.396 . S
H2389 C2405 0.930 . S
H2390 C2406 0.931 . S
C2391 H2379 0.907 1_545 S
C2391 C2385 1.438 . S
C2391 C2388 1.396 . S
C2392 C2387 1.490 . S
C2392 C2394 1.395 1_545 S
C2392 C2395 1.403 . S
H2393 C2399 0.930 . S
C2394 H2380 0.930 . S
C2394 C2392 1.395 1_565 S
C2394 C2397 1.403 . S
C2395 C2392 1.403 . S
C2395 C2396 1.524 . S
C2395 C2399 1.400 . S
C2396 H2381 0.960 . S
C2396 H2382 0.960 . S
C2396 H2383 0.960 . S
C2396 C2395 1.524 . S
C2397 C2394 1.403 . S
C2397 C2398 1.392 1_565 S
C2397 C2401 1.495 . S
C2398 C2397 1.392 1_545 S
C2398 C2399 1.385 . S
C2398 C2400 1.478 . S
C2399 H2393 0.930 . S
C2399 C2395 1.400 . S
C2399 C2398 1.385 . S
C2400 C2398 1.478 . S
C2400 C2402 1.381 . S
C2400 C2406 1.383 1_545 S
C2401 C2397 1.495 . S
C2401 H2407 0.959 . S
C2401 H2408 0.961 . S
C2401 H2409 0.960 . S
C2402 C2400 1.381 . S
C2402 C2403 1.394 . S
C2402 H2410 0.930 . S
C2403 C2402 1.394 . S
C2403 C2404 1.383 . S
C2403 H2411 0.929 . S
C2404 C2403 1.383 . S
C2404 C2405 1.377 1_545 S
C2405 H2389 0.930 . S
C2405 C2404 1.377 1_565 S
C2405 C2406 1.379 . S
C2406 H2390 0.931 . S
C2406 C2400 1.383 1_565 S
C2406 C2405 1.379 . S
H2407 C2401 0.959 . S
H2408 C2401 0.961 . S
H2409 C2401 0.960 . S
H2410 C2402 0.930 . S
H2411 C2403 0.929 . S
H2412 C2420 0.929 . S
H2413 C2422 0.930 . S
H2414 C2424 0.930 . S
H2415 C2427 0.929 . S
H2416 C2430 0.930 . S
H2417 C2432 0.960 . S
H2418 C2432 0.960 . S
H2419 C2432 0.960 . S
C2420 H2412 0.929 . S
C2420 C2421 1.377 1_545 S
C2420 C2422 1.384 . S
C2421 C2420 1.377 1_565 S
C2421 C2427 1.390 . S
C2422 H2413 0.930 . S
C2422 C2420 1.384 . S
C2422 C2423 1.372 1_545 S
C2423 C2422 1.372 1_565 S
C2423 C2424 1.400 . S
C2423 C2428 1.490 . S
C2424 H2414 0.930 . S
C2424 C2423 1.400 . S
C2424 C2427 1.386 . S
H2425 C2441 0.930 . S
H2426 C2442 0.931 . S
C2427 H2415 0.929 . S
C2427 C2421 1.390 . S
C2427 C2424 1.386 . S
C2428 C2423 1.490 . S
C2428 C2430 1.395 1_565 S
C2428 C2431 1.403 . S
H2429 C2435 0.930 . S
C2430 H2416 0.930 . S
C2430 C2428 1.395 1_545 S
C2430 C2433 1.403 . S
C2431 C2428 1.403 . S
C2431 C2432 1.524 . S
C2431 C2435 1.400 . S
C2432 H2417 0.960 . S
C2432 H2418 0.960 . S
C2432 H2419 0.960 . S
C2432 C2431 1.524 . S
C2433 C2430 1.403 . S
C2433 C2434 1.344 1_545 S
C2433 C2437 1.495 . S
C2434 C2433 1.344 1_565 S
C2434 C2435 1.416 . S
C2434 C2436 1.460 . S
C2435 H2429 0.930 . S
C2435 C2431 1.400 . S
C2435 C2434 1.416 . S
C2436 C2434 1.460 . S
C2436 C2438 1.350 1_565 S
C2436 C2442 1.463 . S
C2437 C2433 1.495 . S
C2437 H2443 0.959 . S
C2437 H2444 0.961 . S
C2437 H2445 0.960 . S
C2438 C2436 1.350 1_545 S
C2438 C2439 1.394 . S
C2438 H2446 0.930 . S
C2439 C2438 1.394 . S
C2439 C2440 1.383 1_545 S
C2439 H2447 0.929 . S
C2440 C2439 1.383 1_565 S
C2440 C2441 1.377 . S
C2441 H2425 0.930 . S
C2441 C2440 1.377 . S
C2441 C2442 1.379 . S
C2442 H2426 0.931 . S
C2442 C2436 1.463 . S
C2442 C2441 1.379 . S
H2443 C2437 0.959 . S
H2444 C2437 0.961 . S
H2445 C2437 0.960 . S
H2446 C2438 0.930 . S
H2447 C2439 0.929 . S
H2448 C2456 0.929 . S
H2449 C2458 0.930 . S
H2450 C2460 0.929 . S
H2451 C2463 0.929 . S
H2452 C2466 0.930 . S
H2453 C2468 0.960 . S
H2454 C2468 0.960 . S
H2455 C2468 0.960 . S
C2456 H2448 0.929 . S
C2456 C2457 1.377 . S
C2456 C2458 1.384 . S
C2457 C2456 1.377 . S
C2457 C2463 1.389 1_455 S
C2458 H2449 0.930 . S
C2458 C2456 1.384 . S
C2458 C2459 1.372 . S
C2459 C2458 1.372 . S
C2459 C2460 1.399 1_455 S
C2459 C2464 1.490 . S
C2460 H2450 0.929 . S
C2460 C2459 1.399 1_655 S
C2460 C2463 1.388 . S
H2461 C2477 0.914 1_655 S
H2462 C2478 0.919 . S
C2463 H2451 0.929 . S
C2463 C2457 1.389 1_655 S
C2463 C2460 1.388 . S
C2464 C2459 1.490 . S
C2464 C2466 1.395 . S
C2464 C2467 1.403 1_455 S
H2465 C2471 0.930 . S
C2466 H2452 0.930 . S
C2466 C2464 1.395 . S
C2466 C2469 1.403 . S
C2467 C2464 1.403 1_655 S
C2467 C2468 1.524 . S
C2467 C2471 1.400 . S
C2468 H2453 0.960 . S
C2468 H2454 0.960 . S
C2468 H2455 0.960 . S
C2468 C2467 1.524 . S
C2469 C2466 1.403 . S
C2469 C2470 1.392 . S
C2469 C2473 1.495 . S
C2470 C2469 1.392 . S
C2470 C2471 1.385 1_455 S
C2470 C2472 1.478 . S
C2471 H2465 0.930 . S
C2471 C2467 1.400 . S
C2471 C2470 1.385 1_655 S
C2472 C2470 1.478 . S
C2472 C2474 1.381 . S
C2472 C2478 1.383 . S
C2473 C2469 1.495 . S
C2473 H2479 0.959 . S
C2473 H2480 0.961 . S
C2473 H2481 0.960 . S
C2474 C2472 1.381 . S
C2474 C2475 1.394 . S
C2474 H2482 0.930 . S
C2475 C2474 1.394 . S
C2475 C2476 1.383 . S
C2475 H2483 0.929 . S
C2476 C2475 1.383 . S
C2476 C2477 1.377 . S
C2477 H2461 0.914 1_455 S
C2477 C2476 1.377 . S
C2477 C2478 1.379 . S
C2478 H2462 0.919 . S
C2478 C2472 1.383 . S
C2478 C2477 1.379 . S
H2479 C2473 0.959 . S
H2480 C2473 0.961 . S
H2481 C2473 0.960 . S
H2482 C2474 0.930 . S
H2483 C2475 0.929 . S
H2484 C2492 0.929 . S
H2485 C2494 0.930 . S
H2486 C2496 0.930 . S
H2487 C2499 0.940 . S
H2488 C2502 0.930 . S
H2489 C2504 0.960 . S
H2490 C2504 0.960 . S
H2491 C2504 0.960 . S
C2492 H2484 0.929 . S
C2492 C2493 1.377 . S
C2492 C2494 1.384 . S
C2493 C2492 1.377 . S
C2493 C2499 1.390 . S
C2494 H2485 0.930 . S
C2494 C2492 1.384 . S
C2494 C2495 1.372 . S
C2495 C2494 1.372 . S
C2495 C2496 1.400 . S
C2495 C2500 1.490 . S
C2496 H2486 0.930 . S
C2496 C2495 1.400 . S
C2496 C2499 1.386 . S
H2497 C2513 0.930 . S
H2498 C2514 0.931 . S
C2499 H2487 0.940 . S
C2499 C2493 1.390 . S
C2499 C2496 1.386 . S
C2500 C2495 1.490 . S
C2500 C2502 1.395 . S
C2500 C2503 1.403 . S
H2501 C2507 0.930 . S
C2502 H2488 0.930 . S
C2502 C2500 1.395 . S
C2502 C2505 1.403 . S
C2503 C2500 1.403 . S
C2503 C2504 1.524 . S
C2503 C2507 1.400 . S
C2504 H2489 0.960 . S
C2504 H2490 0.960 . S
C2504 H2491 0.960 . S
C2504 C2503 1.524 . S
C2505 C2502 1.403 . S
C2505 C2506 1.392 . S
C2505 C2509 1.495 . S
C2506 C2505 1.392 . S
C2506 C2507 1.385 . S
C2506 C2508 1.478 . S
C2507 H2501 0.930 . S
C2507 C2503 1.400 . S
C2507 C2506 1.385 . S
C2508 C2506 1.478 . S
C2508 C2510 1.381 . S
C2508 C2514 1.383 . S
C2509 C2505 1.495 . S
C2509 H2515 0.959 . S
C2509 H2516 0.961 . S
C2509 H2517 0.960 . S
C2510 C2508 1.381 . S
C2510 C2511 1.394 . S
C2510 H2518 0.930 . S
C2511 C2510 1.394 . S
C2511 C2512 1.383 . S
C2511 H2519 0.929 . S
C2512 C2511 1.383 . S
C2512 C2513 1.377 . S
C2513 H2497 0.930 . S
C2513 C2512 1.377 . S
C2513 C2514 1.379 . S
C2514 H2498 0.931 . S
C2514 C2508 1.383 . S
C2514 C2513 1.379 . S
H2515 C2509 0.959 . S
H2516 C2509 0.961 . S
H2517 C2509 0.960 . S
H2518 C2510 0.930 . S
H2519 C2511 0.929 . S
H2520 C2528 0.929 . S
H2521 C2530 0.930 . S
H2522 C2532 0.930 . S
H2523 C2535 0.929 . S
H2524 C2538 0.930 . S
H2525 C2540 0.960 . S
H2526 C2540 0.960 1_455 S
H2527 C2540 0.960 . S
C2528 H2520 0.929 . S
C2528 C2529 1.377 . S
C2528 C2530 1.384 . S
C2529 C2528 1.377 . S
C2529 C2535 1.390 1_455 S
C2530 H2521 0.930 . S
C2530 C2528 1.384 . S
C2530 C2531 1.372 . S
C2531 C2530 1.372 . S
C2531 C2532 1.400 1_455 S
C2531 C2536 1.490 . S
C2532 H2522 0.930 . S
C2532 C2531 1.400 1_655 S
C2532 C2535 1.386 . S
H2533 C2549 0.930 . S
H2534 C2550 0.931 . S
C2535 H2523 0.929 . S
C2535 C2529 1.390 1_655 S
C2535 C2532 1.386 . S
C2536 C2531 1.490 . S
C2536 C2538 1.395 . S
C2536 C2539 1.403 1_455 S
H2537 C2543 0.930 . S
C2538 H2524 0.930 . S
C2538 C2536 1.395 . S
C2538 C2541 1.403 . S
C2539 C2536 1.403 1_655 S
C2539 C2540 1.524 . S
C2539 C2543 1.400 . S
C2540 H2525 0.960 . S
C2540 H2526 0.960 1_655 S
C2540 H2527 0.960 . S
C2540 C2539 1.524 . S
C2541 C2538 1.403 . S
C2541 C2542 1.392 . S
C2541 C2545 1.495 . S
C2542 C2541 1.392 . S
C2542 C2543 1.385 1_455 S
C2542 C2544 1.478 . S
C2543 H2537 0.930 . S
C2543 C2539 1.400 . S
C2543 C2542 1.385 1_655 S
C2544 C2542 1.478 . S
C2544 C2546 1.381 . S
C2544 C2550 1.383 1_455 S
C2545 C2541 1.495 . S
C2545 H2551 0.959 . S
C2545 H2552 0.961 . S
C2545 H2553 0.960 . S
C2546 C2544 1.381 . S
C2546 C2547 1.394 . S
C2546 H2554 0.930 . S
C2547 C2546 1.394 . S
C2547 C2548 1.413 . S
C2547 H2555 0.929 . S
C2548 C2547 1.413 . S
C2548 C2549 1.332 1_455 S
C2549 H2533 0.930 . S
C2549 C2548 1.332 1_655 S
C2549 C2550 1.379 . S
C2550 H2534 0.931 . S
C2550 C2544 1.383 1_655 S
C2550 C2549 1.379 . S
H2551 C2545 0.959 . S
H2552 C2545 0.961 . S
H2553 C2545 0.960 . S
H2554 C2546 0.930 . S
H2555 C2547 0.929 . S
H2556 C2564 0.929 . S
H2557 C2566 0.930 . S
H2558 C2568 0.930 . S
H2559 C2571 0.929 . S
H2560 C2574 0.930 . S
H2561 C2576 0.960 . S
H2562 C2576 0.960 . S
H2563 C2576 0.960 . S
C2564 H2556 0.929 . S
C2564 C2565 1.377 . S
C2564 C2566 1.384 . S
C2565 C2564 1.377 . S
C2565 C2571 1.390 . S
C2566 H2557 0.930 . S
C2566 C2564 1.384 . S
C2566 C2567 1.372 . S
C2567 C2566 1.372 . S
C2567 C2568 1.400 . S
C2567 C2572 1.490 . S
C2568 H2558 0.930 . S
C2568 C2567 1.400 . S
C2568 C2571 1.386 . S
H2569 C2585 0.930 . S
H2570 C2586 0.931 . S
C2571 H2559 0.929 . S
C2571 C2565 1.390 . S
C2571 C2568 1.386 . S
C2572 C2567 1.490 . S
C2572 C2574 1.395 . S
C2572 C2575 1.403 . S
H2573 C2579 0.930 . S
C2574 H2560 0.930 . S
C2574 C2572 1.395 . S
C2574 C2577 1.403 . S
C2575 C2572 1.403 . S
C2575 C2576 1.524 . S
C2575 C2579 1.400 . S
C2576 H2561 0.960 . S
C2576 H2562 0.960 . S
C2576 H2563 0.960 . S
C2576 C2575 1.524 . S
C2577 C2574 1.403 . S
C2577 C2578 1.392 . S
C2577 C2581 1.495 . S
C2578 C2577 1.392 . S
C2578 C2579 1.385 . S
C2578 C2580 1.478 . S
C2579 H2573 0.930 . S
C2579 C2575 1.400 . S
C2579 C2578 1.385 . S
C2580 C2578 1.478 . S
C2580 C2582 1.381 . S
C2580 C2586 1.383 . S
C2581 C2577 1.495 . S
C2581 H2587 0.959 . S
C2581 H2588 0.961 . S
C2581 H2589 0.960 . S
C2582 C2580 1.381 . S
C2582 C2583 1.394 . S
C2582 H2590 0.930 . S
C2583 C2582 1.394 . S
C2583 C2584 1.383 . S
C2583 H2591 0.929 . S
C2584 C2583 1.383 . S
C2584 C2585 1.377 . S
C2585 H2569 0.930 . S
C2585 C2584 1.377 . S
C2585 C2586 1.379 . S
C2586 H2570 0.931 . S
C2586 C2580 1.383 . S
C2586 C2585 1.379 . S
H2587 C2581 0.959 . S
H2588 C2581 0.961 . S
H2589 C2581 0.960 . S
H2590 C2582 0.930 . S
H2591 C2583 0.929 . S
H2592 C2600 0.929 . S
H2593 C2602 0.930 . S
H2594 C2604 0.930 . S
H2595 C2607 0.929 . S
H2596 C2610 0.930 . S
H2597 C2612 0.960 . S
H2598 C2612 0.960 . S
H2599 C2612 0.960 . S
C2600 H2592 0.929 . S
C2600 C2601 1.377 1_545 S
C2600 C2602 1.384 . S
C2601 C2600 1.377 1_565 S
C2601 C2607 1.390 . S
C2602 H2593 0.930 . S
C2602 C2600 1.384 . S
C2602 C2603 1.372 1_545 S
C2603 C2602 1.372 1_565 S
C2603 C2604 1.400 . S
C2603 C2608 1.530 . S
C2604 H2594 0.930 . S
C2604 C2603 1.400 . S
C2604 C2607 1.386 . S
H2605 C2621 0.930 . S
H2606 C2622 0.931 . S
C2607 H2595 0.929 . S
C2607 C2601 1.390 . S
C2607 C2604 1.386 . S
C2608 C2603 1.530 . S
C2608 C2610 1.320 1_565 S
C2608 C2611 1.441 . S
H2609 C2615 0.930 . S
C2610 H2596 0.930 . S
C2610 C2608 1.320 1_545 S
C2610 C2613 1.403 . S
C2611 C2608 1.441 . S
C2611 C2612 1.524 . S
C2611 C2615 1.400 . S
C2612 H2597 0.960 . S
C2612 H2598 0.960 . S
C2612 H2599 0.960 . S
C2612 C2611 1.524 . S
C2613 C2610 1.403 . S
C2613 C2614 1.392 . S
C2613 C2617 1.495 . S
C2614 C2613 1.392 . S
C2614 C2615 1.385 1_545 S
C2614 C2616 1.478 . S
C2615 H2609 0.930 . S
C2615 C2611 1.400 . S
C2615 C2614 1.385 1_565 S
C2616 C2614 1.478 . S
C2616 C2618 1.381 . S
C2616 C2622 1.383 1_545 S
C2617 C2613 1.495 . S
C2617 H2623 0.959 . S
C2617 H2624 0.961 . S
C2617 H2625 0.960 . S
C2618 C2616 1.381 . S
C2618 C2619 1.394 . S
C2618 H2626 0.930 . S
C2619 C2618 1.394 . S
C2619 C2620 1.421 . S
C2619 H2627 0.929 . S
C2620 C2619 1.421 . S
C2620 C2621 1.315 1_545 S
C2621 H2605 0.930 . S
C2621 C2620 1.315 1_565 S
C2621 C2622 1.379 . S
C2622 H2606 0.931 . S
C2622 C2616 1.383 1_565 S
C2622 C2621 1.379 . S
H2623 C2617 0.959 . S
H2624 C2617 0.961 . S
H2625 C2617 0.960 . S
H2626 C2618 0.930 . S
H2627 C2619 0.929 . S
H2628 C2636 0.929 . S
H2629 C2638 0.930 . S
H2630 C2640 0.930 . S
H2631 C2643 0.929 . S
H2632 C2646 0.930 . S
H2633 C2648 0.960 . S
H2634 C2648 0.960 . S
H2635 C2648 0.960 . S
C2636 H2628 0.929 . S
C2636 C2637 1.377 1_565 S
C2636 C2638 1.384 . S
C2637 C2636 1.377 1_545 S
C2637 C2643 1.390 . S
C2638 H2629 0.930 . S
C2638 C2636 1.384 . S
C2638 C2639 1.372 1_565 S
C2639 C2638 1.372 1_545 S
C2639 C2640 1.400 . S
C2639 C2644 1.490 . S
C2640 H2630 0.930 . S
C2640 C2639 1.400 . S
C2640 C2643 1.386 . S
H2641 C2657 0.930 . S
H2642 C2658 0.931 . S
C2643 H2631 0.929 . S
C2643 C2637 1.390 . S
C2643 C2640 1.386 . S
C2644 C2639 1.490 . S
C2644 C2646 1.395 1_545 S
C2644 C2647 1.403 . S
H2645 C2651 0.930 . S
C2646 H2632 0.930 . S
C2646 C2644 1.395 1_565 S
C2646 C2649 1.403 . S
C2647 C2644 1.403 . S
C2647 C2648 1.524 . S
C2647 C2651 1.400 . S
C2648 H2633 0.960 . S
C2648 H2634 0.960 . S
C2648 H2635 0.960 . S
C2648 C2647 1.524 . S
C2649 C2646 1.403 . S
C2649 C2650 1.423 . S
C2649 C2653 1.495 . S
C2650 C2649 1.423 . S
C2650 C2651 1.366 1_565 S
C2650 C2652 1.482 . S
C2651 H2645 0.930 . S
C2651 C2647 1.400 . S
C2651 C2650 1.366 1_545 S
C2652 C2650 1.482 . S
C2652 C2654 1.405 . S
C2652 C2658 1.341 1_565 S
C2653 C2649 1.495 . S
C2653 H2659 0.959 . S
C2653 H2660 0.961 . S
C2653 H2661 0.960 . S
C2654 C2652 1.405 . S
C2654 C2655 1.394 . S
C2654 H2662 0.930 . S
C2655 C2654 1.394 . S
C2655 C2656 1.385 . S
C2655 H2663 0.929 . S
C2656 C2655 1.385 . S
C2656 C2657 1.376 1_565 S
C2657 H2641 0.930 . S
C2657 C2656 1.376 1_545 S
C2657 C2658 1.379 . S
C2658 H2642 0.931 . S
C2658 C2652 1.341 1_545 S
C2658 C2657 1.379 . S
H2659 C2653 0.959 . S
H2660 C2653 0.961 . S
H2661 C2653 0.960 . S
H2662 C2654 0.930 . S
H2663 C2655 0.929 . S
H2664 C2672 0.929 . S
H2665 C2674 0.930 . S
H2666 C2676 0.930 . S
H2667 C2679 0.929 . S
H2668 C2682 0.930 . S
H2669 C2684 0.960 . S
H2670 C2684 0.960 . S
H2671 C2684 0.960 . S
C2672 H2664 0.929 . S
C2672 C2673 1.377 1_455 S
C2672 C2674 1.384 . S
C2673 C2672 1.377 1_655 S
C2673 C2679 1.390 . S
C2674 H2665 0.930 . S
C2674 C2672 1.384 . S
C2674 C2675 1.372 1_455 S
C2675 C2674 1.372 1_655 S
C2675 C2676 1.400 . S
C2675 C2680 1.490 . S
C2676 H2666 0.930 . S
C2676 C2675 1.400 . S
C2676 C2679 1.386 . S
H2677 C2693 0.930 . S
H2678 C2694 0.931 . S
C2679 H2667 0.929 . S
C2679 C2673 1.390 . S
C2679 C2676 1.386 . S
C2680 C2675 1.490 . S
C2680 C2682 1.395 . S
C2680 C2683 1.403 1_655 S
H2681 C2687 0.930 . S
C2682 H2668 0.930 . S
C2682 C2680 1.395 . S
C2682 C2685 1.403 . S
C2683 C2680 1.403 1_455 S
C2683 C2684 1.524 . S
C2683 C2687 1.400 . S
C2684 H2669 0.960 . S
C2684 H2670 0.960 . S
C2684 H2671 0.960 . S
C2684 C2683 1.524 . S
C2685 C2682 1.403 . S
C2685 C2686 1.392 . S
C2685 C2689 1.495 . S
C2686 C2685 1.392 . S
C2686 C2687 1.385 1_655 S
C2686 C2688 1.478 . S
C2687 H2681 0.930 . S
C2687 C2683 1.400 . S
C2687 C2686 1.385 1_455 S
C2688 C2686 1.478 . S
C2688 C2690 1.381 1_655 S
C2688 C2694 1.383 . S
C2689 C2685 1.495 . S
C2689 H2695 0.959 . S
C2689 H2696 0.961 . S
C2689 H2697 0.960 . S
C2690 C2688 1.381 1_455 S
C2690 C2691 1.394 . S
C2690 H2698 0.930 . S
C2691 C2690 1.394 . S
C2691 C2692 1.381 1_455 S
C2691 H2699 0.929 . S
C2692 C2691 1.381 1_655 S
C2692 C2693 1.430 . S
C2693 H2677 0.930 . S
C2693 C2692 1.430 . S
C2693 C2694 1.379 . S
C2694 H2678 0.931 . S
C2694 C2688 1.383 . S
C2694 C2693 1.379 . S
H2695 C2689 0.959 . S
H2696 C2689 0.961 . S
H2697 C2689 0.960 . S
H2698 C2690 0.930 . S
H2699 C2691 0.929 . S
H2700 C2708 0.929 . S
H2701 C2710 0.930 . S
H2702 C2712 0.930 . S
H2703 C2715 0.929 . S
H2704 C2718 0.930 . S
H2705 C2720 0.960 . S
H2706 C2720 0.960 . S
H2707 C2720 0.960 . S
C2708 H2700 0.929 . S
C2708 C2709 1.377 . S
C2708 C2710 1.384 . S
C2709 C2708 1.377 . S
C2709 C2715 1.390 . S
C2710 H2701 0.930 . S
C2710 C2708 1.384 . S
C2710 C2711 1.372 . S
C2711 C2710 1.372 . S
C2711 C2712 1.400 . S
C2711 C2716 1.490 . S
C2712 H2702 0.930 . S
C2712 C2711 1.400 . S
C2712 C2715 1.386 . S
H2713 C2729 0.930 . S
H2714 C2730 0.931 . S
C2715 H2703 0.929 . S
C2715 C2709 1.390 . S
C2715 C2712 1.386 . S
C2716 C2711 1.490 . S
C2716 C2718 1.395 . S
C2716 C2719 1.403 . S
H2717 C2723 0.930 . S
C2718 H2704 0.930 . S
C2718 C2716 1.395 . S
C2718 C2721 1.403 . S
C2719 C2716 1.403 . S
C2719 C2720 1.524 . S
C2719 C2723 1.400 . S
C2720 H2705 0.960 . S
C2720 H2706 0.960 . S
C2720 H2707 0.960 . S
C2720 C2719 1.524 . S
C2721 C2718 1.403 . S
C2721 C2722 1.392 . S
C2721 C2725 1.495 . S
C2722 C2721 1.392 . S
C2722 C2723 1.385 . S
C2722 C2724 1.478 . S
C2723 H2717 0.930 . S
C2723 C2719 1.400 . S
C2723 C2722 1.385 . S
C2724 C2722 1.478 . S
C2724 C2726 1.381 . S
C2724 C2730 1.383 . S
C2725 C2721 1.495 . S
C2725 H2731 0.959 . S
C2725 H2732 0.961 . S
C2725 H2733 0.960 . S
C2726 C2724 1.381 . S
C2726 C2727 1.394 . S
C2726 H2734 0.930 . S
C2727 C2726 1.394 . S
C2727 C2728 1.383 . S
C2727 H2735 0.929 . S
C2728 C2727 1.383 . S
C2728 C2729 1.377 . S
C2729 H2713 0.930 . S
C2729 C2728 1.377 . S
C2729 C2730 1.379 . S
C2730 H2714 0.931 . S
C2730 C2724 1.383 . S
C2730 C2729 1.379 . S
H2731 C2725 0.959 . S
H2732 C2725 0.961 . S
H2733 C2725 0.960 . S
H2734 C2726 0.930 . S
H2735 C2727 0.929 . S
H2736 C2744 0.929 . S
H2737 C2746 0.930 . S
H2738 C2748 0.930 . S
H2739 C2751 0.929 . S
H2740 C2754 0.930 . S
H2741 C2756 0.960 . S
H2742 C2756 0.960 . S
H2743 C2756 0.960 . S
C2744 H2736 0.929 . S
C2744 C2745 1.377 . S
C2744 C2746 1.384 . S
C2745 C2744 1.377 . S
C2745 C2751 1.390 . S
C2746 H2737 0.930 . S
C2746 C2744 1.384 . S
C2746 C2747 1.372 . S
C2747 C2746 1.372 . S
C2747 C2748 1.400 . S
C2747 C2752 1.490 . S
C2748 H2738 0.930 . S
C2748 C2747 1.400 . S
C2748 C2751 1.386 . S
H2749 C2765 0.930 . S
H2750 C2766 0.931 . S
C2751 H2739 0.929 . S
C2751 C2745 1.390 . S
C2751 C2748 1.386 . S
C2752 C2747 1.490 . S
C2752 C2754 1.395 . S
C2752 C2755 1.403 . S
H2753 C2759 0.930 . S
C2754 H2740 0.930 . S
C2754 C2752 1.395 . S
C2754 C2757 1.403 . S
C2755 C2752 1.403 . S
C2755 C2756 1.524 . S
C2755 C2759 1.400 . S
C2756 H2741 0.960 . S
C2756 H2742 0.960 . S
C2756 H2743 0.960 . S
C2756 C2755 1.524 . S
C2757 C2754 1.403 . S
C2757 C2758 1.392 . S
C2757 C2761 1.495 . S
C2758 C2757 1.392 . S
C2758 C2759 1.385 . S
C2758 C2760 1.478 . S
C2759 H2753 0.930 . S
C2759 C2755 1.400 . S
C2759 C2758 1.385 . S
C2760 C2758 1.478 . S
C2760 C2762 1.381 . S
C2760 C2766 1.383 . S
C2761 C2757 1.495 . S
C2761 H2767 0.959 . S
C2761 H2768 0.961 . S
C2761 H2769 0.960 . S
C2762 C2760 1.381 . S
C2762 C2763 1.394 . S
C2762 H2770 0.930 . S
C2763 C2762 1.394 . S
C2763 C2764 1.383 . S
C2763 H2771 0.929 . S
C2764 C2763 1.383 . S
C2764 C2765 1.377 . S
C2765 H2749 0.930 . S
C2765 C2764 1.377 . S
C2765 C2766 1.379 . S
C2766 H2750 0.931 . S
C2766 C2760 1.383 . S
C2766 C2765 1.379 . S
H2767 C2761 0.959 . S
H2768 C2761 0.961 . S
H2769 C2761 0.960 . S
H2770 C2762 0.930 . S
H2771 C2763 0.929 . S
H2772 C2780 0.929 . S
H2773 C2782 0.930 . S
H2774 C2784 0.930 . S
H2775 C2787 0.929 . S
H2776 C2790 0.930 . S
H2777 C2792 0.960 . S
H2778 C2792 0.960 . S
H2779 C2792 0.960 . S
C2780 H2772 0.929 . S
C2780 C2781 1.377 . S
C2780 C2782 1.384 . S
C2781 C2780 1.377 . S
C2781 C2787 1.390 . S
C2782 H2773 0.930 . S
C2782 C2780 1.384 . S
C2782 C2783 1.372 . S
C2783 C2782 1.372 . S
C2783 C2784 1.400 . S
C2783 C2788 1.490 . S
C2784 H2774 0.930 . S
C2784 C2783 1.400 . S
C2784 C2787 1.386 . S
H2785 C2801 0.930 . S
H2786 C2802 0.931 . S
C2787 H2775 0.929 . S
C2787 C2781 1.390 . S
C2787 C2784 1.386 . S
C2788 C2783 1.490 . S
C2788 C2790 1.395 . S
C2788 C2791 1.403 . S
H2789 C2795 0.930 . S
C2790 H2776 0.930 . S
C2790 C2788 1.395 . S
C2790 C2793 1.403 . S
C2791 C2788 1.403 . S
C2791 C2792 1.524 . S
C2791 C2795 1.400 . S
C2792 H2777 0.960 . S
C2792 H2778 0.960 . S
C2792 H2779 0.960 . S
C2792 C2791 1.524 . S
C2793 C2790 1.403 . S
C2793 C2794 1.392 . S
C2793 C2797 1.495 . S
C2794 C2793 1.392 . S
C2794 C2795 1.385 . S
C2794 C2796 1.478 . S
C2795 H2789 0.930 . S
C2795 C2791 1.400 . S
C2795 C2794 1.385 . S
C2796 C2794 1.478 . S
C2796 C2798 1.381 . S
C2796 C2802 1.383 . S
C2797 C2793 1.495 . S
C2797 H2803 0.959 . S
C2797 H2804 0.961 . S
C2797 H2805 0.960 . S
C2798 C2796 1.381 . S
C2798 C2799 1.394 . S
C2798 H2806 0.930 . S
C2799 C2798 1.394 . S
C2799 C2800 1.383 . S
C2799 H2807 0.929 . S
C2800 C2799 1.383 . S
C2800 C2801 1.377 . S
C2801 H2785 0.930 . S
C2801 C2800 1.377 . S
C2801 C2802 1.379 . S
C2802 H2786 0.931 . S
C2802 C2796 1.383 . S
C2802 C2801 1.379 . S
H2803 C2797 0.959 . S
H2804 C2797 0.961 . S
H2805 C2797 0.960 . S
H2806 C2798 0.930 . S
H2807 C2799 0.929 . S
H2808 C2816 0.929 . S
H2809 C2818 0.930 . S
H2810 C2820 0.930 . S
H2811 C2823 0.929 . S
H2812 C2826 0.930 . S
H2813 C2828 0.960 . S
H2814 C2828 0.960 . S
H2815 C2828 0.960 . S
C2816 H2808 0.929 . S
C2816 C2817 1.377 . S
C2816 C2818 1.384 . S
C2817 C2816 1.377 . S
C2817 C2823 1.390 . S
C2818 H2809 0.930 . S
C2818 C2816 1.384 . S
C2818 C2819 1.372 . S
C2819 C2818 1.372 . S
C2819 C2820 1.400 . S
C2819 C2824 1.490 . S
C2820 H2810 0.930 . S
C2820 C2819 1.400 . S
C2820 C2823 1.386 . S
H2821 C2837 0.930 . S
H2822 C2838 0.931 . S
C2823 H2811 0.929 . S
C2823 C2817 1.390 . S
C2823 C2820 1.386 . S
C2824 C2819 1.490 . S
C2824 C2826 1.395 . S
C2824 C2827 1.403 . S
H2825 C2831 0.930 . S
C2826 H2812 0.930 . S
C2826 C2824 1.395 . S
C2826 C2829 1.403 . S
C2827 C2824 1.403 . S
C2827 C2828 1.524 . S
C2827 C2831 1.400 . S
C2828 H2813 0.960 . S
C2828 H2814 0.960 . S
C2828 H2815 0.960 . S
C2828 C2827 1.524 . S
C2829 C2826 1.403 . S
C2829 C2830 1.392 . S
C2829 C2833 1.495 . S
C2830 C2829 1.392 . S
C2830 C2831 1.385 . S
C2830 C2832 1.478 . S
C2831 H2825 0.930 . S
C2831 C2827 1.400 . S
C2831 C2830 1.385 . S
C2832 C2830 1.478 . S
C2832 C2834 1.381 . S
C2832 C2838 1.383 . S
C2833 C2829 1.495 . S
C2833 H2839 0.959 . S
C2833 H2840 0.961 . S
C2833 H2841 0.960 . S
C2834 C2832 1.381 . S
C2834 C2835 1.394 . S
C2834 H2842 0.930 . S
C2835 C2834 1.394 . S
C2835 C2836 1.383 . S
C2835 H2843 0.929 . S
C2836 C2835 1.383 . S
C2836 C2837 1.377 . S
C2837 H2821 0.930 . S
C2837 C2836 1.377 . S
C2837 C2838 1.379 . S
C2838 H2822 0.931 . S
C2838 C2832 1.383 . S
C2838 C2837 1.379 . S
H2839 C2833 0.959 . S
H2840 C2833 0.961 . S
H2841 C2833 0.960 . S
H2842 C2834 0.930 . S
H2843 C2835 0.929 . S
H2844 C2852 0.929 . S
H2845 C2854 0.930 . S
H2846 C2856 0.930 . S
H2847 C2859 0.929 . S
H2848 C2862 0.930 . S
H2849 C2864 0.960 . S
H2850 C2864 0.960 . S
H2851 C2864 0.960 . S
C2852 H2844 0.929 . S
C2852 C2853 1.377 . S
C2852 C2854 1.384 . S
C2853 C2852 1.377 . S
C2853 C2859 1.390 . S
C2854 H2845 0.930 . S
C2854 C2852 1.384 . S
C2854 C2855 1.372 . S
C2855 C2854 1.372 . S
C2855 C2856 1.400 . S
C2855 C2860 1.490 . S
C2856 H2846 0.930 . S
C2856 C2855 1.400 . S
C2856 C2859 1.386 . S
H2857 C2873 0.930 . S
H2858 C2874 0.931 . S
C2859 H2847 0.929 . S
C2859 C2853 1.390 . S
C2859 C2856 1.386 . S
C2860 C2855 1.490 . S
C2860 C2862 1.395 . S
C2860 C2863 1.403 . S
H2861 C2867 0.930 . S
C2862 H2848 0.930 . S
C2862 C2860 1.395 . S
C2862 C2865 1.403 . S
C2863 C2860 1.403 . S
C2863 C2864 1.524 . S
C2863 C2867 1.400 . S
C2864 H2849 0.960 . S
C2864 H2850 0.960 . S
C2864 H2851 0.960 . S
C2864 C2863 1.524 . S
C2865 C2862 1.403 . S
C2865 C2866 1.392 . S
C2865 C2869 1.495 . S
C2866 C2865 1.392 . S
C2866 C2867 1.385 . S
C2866 C2868 1.478 . S
C2867 H2861 0.930 . S
C2867 C2863 1.400 . S
C2867 C2866 1.385 . S
C2868 C2866 1.478 . S
C2868 C2870 1.381 . S
C2868 C2874 1.383 . S
C2869 C2865 1.495 . S
C2869 H2875 0.959 . S
C2869 H2876 0.961 . S
C2869 H2877 0.960 . S
C2870 C2868 1.381 . S
C2870 C2871 1.394 . S
C2870 H2878 0.930 . S
C2871 C2870 1.394 . S
C2871 C2872 1.383 . S
C2871 H2879 0.929 . S
C2872 C2871 1.383 . S
C2872 C2873 1.377 . S
C2873 H2857 0.930 . S
C2873 C2872 1.377 . S
C2873 C2874 1.379 . S
C2874 H2858 0.931 . S
C2874 C2868 1.383 . S
C2874 C2873 1.379 . S
H2875 C2869 0.959 . S
H2876 C2869 0.961 . S
H2877 C2869 0.960 . S
H2878 C2870 0.930 . S
H2879 C2871 0.929 . S
H2880 C2888 0.929 . S
H2881 C2890 0.930 . S
H2882 C2892 0.930 . S
H2883 C2895 0.929 . S
H2884 C2898 0.930 . S
H2885 C2900 0.960 . S
H2886 C2900 0.960 . S
H2887 C2900 0.960 . S
C2888 H2880 0.929 . S
C2888 C2889 1.377 . S
C2888 C2890 1.384 . S
C2889 C2888 1.377 . S
C2889 C2895 1.390 . S
C2890 H2881 0.930 . S
C2890 C2888 1.384 . S
C2890 C2891 1.372 . S
C2891 C2890 1.372 . S
C2891 C2892 1.400 . S
C2891 C2896 1.490 . S
C2892 H2882 0.930 . S
C2892 C2891 1.400 . S
C2892 C2895 1.386 . S
H2893 C2909 0.930 . S
H2894 C2910 0.931 . S
C2895 H2883 0.929 . S
C2895 C2889 1.390 . S
C2895 C2892 1.386 . S
C2896 C2891 1.490 . S
C2896 C2898 1.395 . S
C2896 C2899 1.403 . S
H2897 C2903 0.930 . S
C2898 H2884 0.930 . S
C2898 C2896 1.395 . S
C2898 C2901 1.403 . S
C2899 C2896 1.403 . S
C2899 C2900 1.524 . S
C2899 C2903 1.400 . S
C2900 H2885 0.960 . S
C2900 H2886 0.960 . S
C2900 H2887 0.960 . S
C2900 C2899 1.524 . S
C2901 C2898 1.403 . S
C2901 C2902 1.392 . S
C2901 C2905 1.495 . S
C2902 C2901 1.392 . S
C2902 C2903 1.385 . S
C2902 C2904 1.478 . S
C2903 H2897 0.930 . S
C2903 C2899 1.400 . S
C2903 C2902 1.385 . S
C2904 C2902 1.478 . S
C2904 C2906 1.381 . S
C2904 C2910 1.383 . S
C2905 C2901 1.495 . S
C2905 H2911 0.959 . S
C2905 H2912 0.961 . S
C2905 H2913 0.960 . S
C2906 C2904 1.381 . S
C2906 C2907 1.394 . S
C2906 H2914 0.930 . S
C2907 C2906 1.394 . S
C2907 C2908 1.383 . S
C2907 H2915 0.929 . S
C2908 C2907 1.383 . S
C2908 C2909 1.377 . S
C2909 H2893 0.930 . S
C2909 C2908 1.377 . S
C2909 C2910 1.379 . S
C2910 H2894 0.931 . S
C2910 C2904 1.383 . S
C2910 C2909 1.379 . S
H2911 C2905 0.959 . S
H2912 C2905 0.961 . S
H2913 C2905 0.960 . S
H2914 C2906 0.930 . S
H2915 C2907 0.929 . S
H2916 C2924 0.929 . S
H2917 C2926 0.930 . S
H2918 C2928 0.930 . S
H2919 C2931 0.929 . S
H2920 C2934 0.930 . S
H2921 C2936 0.960 . S
H2922 C2936 0.960 . S
H2923 C2936 0.960 . S
C2924 H2916 0.929 . S
C2924 C2925 1.377 . S
C2924 C2926 1.384 . S
C2925 C2924 1.377 . S
C2925 C2931 1.390 . S
C2926 H2917 0.930 . S
C2926 C2924 1.384 . S
C2926 C2927 1.372 . S
C2927 C2926 1.372 . S
C2927 C2928 1.400 . S
C2927 C2932 1.490 . S
C2928 H2918 0.930 . S
C2928 C2927 1.400 . S
C2928 C2931 1.386 . S
H2929 C2945 0.930 . S
H2930 C2946 0.931 . S
C2931 H2919 0.929 . S
C2931 C2925 1.390 . S
C2931 C2928 1.386 . S
C2932 C2927 1.490 . S
C2932 C2934 1.395 . S
C2932 C2935 1.403 . S
H2933 C2939 0.930 . S
C2934 H2920 0.930 . S
C2934 C2932 1.395 . S
C2934 C2937 1.403 . S
C2935 C2932 1.403 . S
C2935 C2936 1.524 . S
C2935 C2939 1.400 . S
C2936 H2921 0.960 . S
C2936 H2922 0.960 . S
C2936 H2923 0.960 . S
C2936 C2935 1.524 . S
C2937 C2934 1.403 . S
C2937 C2938 1.392 . S
C2937 C2941 1.495 . S
C2938 C2937 1.392 . S
C2938 C2939 1.385 . S
C2938 C2940 1.478 . S
C2939 H2933 0.930 . S
C2939 C2935 1.400 . S
C2939 C2938 1.385 . S
C2940 C2938 1.478 . S
C2940 C2942 1.381 . S
C2940 C2946 1.383 . S
C2941 C2937 1.495 . S
C2941 H2947 0.959 . S
C2941 H2948 0.961 . S
C2941 H2949 0.960 . S
C2942 C2940 1.381 . S
C2942 C2943 1.394 . S
C2942 H2950 0.930 . S
C2943 C2942 1.394 . S
C2943 C2944 1.383 . S
C2943 H2951 0.929 . S
C2944 C2943 1.383 . S
C2944 C2945 1.377 . S
C2945 H2929 0.930 . S
C2945 C2944 1.377 . S
C2945 C2946 1.379 . S
C2946 H2930 0.931 . S
C2946 C2940 1.383 . S
C2946 C2945 1.379 . S
H2947 C2941 0.959 . S
H2948 C2941 0.961 . S
H2949 C2941 0.960 . S
H2950 C2942 0.930 . S
H2951 C2943 0.929 . S
H2952 C2960 0.929 . S
H2953 C2962 0.930 . S
H2954 C2964 0.930 . S
H2955 C2967 0.929 . S
H2956 C2970 0.930 . S
H2957 C2972 0.960 . S
H2958 C2972 0.960 . S
H2959 C2972 0.960 . S
C2960 H2952 0.929 . S
C2960 C2961 1.377 . S
C2960 C2962 1.384 . S
C2961 C2960 1.377 . S
C2961 C2967 1.390 . S
C2962 H2953 0.930 . S
C2962 C2960 1.384 . S
C2962 C2963 1.372 . S
C2963 C2962 1.372 . S
C2963 C2964 1.400 . S
C2963 C2968 1.490 . S
C2964 H2954 0.930 . S
C2964 C2963 1.400 . S
C2964 C2967 1.386 . S
H2965 C2981 0.930 . S
H2966 C2982 0.931 . S
C2967 H2955 0.929 . S
C2967 C2961 1.390 . S
C2967 C2964 1.386 . S
C2968 C2963 1.490 . S
C2968 C2970 1.395 . S
C2968 C2971 1.403 . S
H2969 C2975 0.930 . S
C2970 H2956 0.930 . S
C2970 C2968 1.395 . S
C2970 C2973 1.403 . S
C2971 C2968 1.403 . S
C2971 C2972 1.524 . S
C2971 C2975 1.400 . S
C2972 H2957 0.960 . S
C2972 H2958 0.960 . S
C2972 H2959 0.960 . S
C2972 C2971 1.524 . S
C2973 C2970 1.403 . S
C2973 C2974 1.392 . S
C2973 C2977 1.495 . S
C2974 C2973 1.392 . S
C2974 C2975 1.385 . S
C2974 C2976 1.478 . S
C2975 H2969 0.930 . S
C2975 C2971 1.400 . S
C2975 C2974 1.385 . S
C2976 C2974 1.478 . S
C2976 C2978 1.381 . S
C2976 C2982 1.383 . S
C2977 C2973 1.495 . S
C2977 H2983 0.959 . S
C2977 H2984 0.961 . S
C2977 H2985 0.960 . S
C2978 C2976 1.381 . S
C2978 C2979 1.394 . S
C2978 H2986 0.930 . S
C2979 C2978 1.394 . S
C2979 C2980 1.383 . S
C2979 H2987 0.929 . S
C2980 C2979 1.383 . S
C2980 C2981 1.377 . S
C2981 H2965 0.930 . S
C2981 C2980 1.377 . S
C2981 C2982 1.379 . S
C2982 H2966 0.931 . S
C2982 C2976 1.383 . S
C2982 C2981 1.379 . S
H2983 C2977 0.959 . S
H2984 C2977 0.961 . S
H2985 C2977 0.960 . S
H2986 C2978 0.930 . S
H2987 C2979 0.929 . S
H2988 C2996 0.929 . S
H2989 C2998 0.930 . S
H2990 C3000 0.930 . S
H2991 C3003 0.929 . S
H2992 C3006 0.930 . S
H2993 C3008 0.960 . S
H2994 C3008 0.960 . S
H2995 C3008 0.960 . S
C2996 H2988 0.929 . S
C2996 C2997 1.377 . S
C2996 C2998 1.384 . S
C2997 C2996 1.377 . S
C2997 C3003 1.390 . S
C2998 H2989 0.930 . S
C2998 C2996 1.384 . S
C2998 C2999 1.372 . S
C2999 C2998 1.372 . S
C2999 C3000 1.400 . S
C2999 C3004 1.490 . S
C3000 H2990 0.930 . S
C3000 C2999 1.400 . S
C3000 C3003 1.386 . S
H3001 C3017 0.930 . S
H3002 C3018 0.931 . S
C3003 H2991 0.929 . S
C3003 C2997 1.390 . S
C3003 C3000 1.386 . S
C3004 C2999 1.490 . S
C3004 C3006 1.395 . S
C3004 C3007 1.403 . S
H3005 C3011 0.930 . S
C3006 H2992 0.930 . S
C3006 C3004 1.395 . S
C3006 C3009 1.403 . S
C3007 C3004 1.403 . S
C3007 C3008 1.524 . S
C3007 C3011 1.400 . S
C3008 H2993 0.960 . S
C3008 H2994 0.960 . S
C3008 H2995 0.960 . S
C3008 C3007 1.524 . S
C3009 C3006 1.403 . S
C3009 C3010 1.392 . S
C3009 C3013 1.495 . S
C3010 C3009 1.392 . S
C3010 C3011 1.385 . S
C3010 C3012 1.478 . S
C3011 H3005 0.930 . S
C3011 C3007 1.400 . S
C3011 C3010 1.385 . S
C3012 C3010 1.478 . S
C3012 C3014 1.381 . S
C3012 C3018 1.383 . S
C3013 C3009 1.495 . S
C3013 H3019 0.959 . S
C3013 H3020 0.961 . S
C3013 H3021 0.960 . S
C3014 C3012 1.381 . S
C3014 C3015 1.394 . S
C3014 H3022 0.930 . S
C3015 C3014 1.394 . S
C3015 C3016 1.383 . S
C3015 H3023 0.929 . S
C3016 C3015 1.383 . S
C3016 C3017 1.377 . S
C3017 H3001 0.930 . S
C3017 C3016 1.377 . S
C3017 C3018 1.379 . S
C3018 H3002 0.931 . S
C3018 C3012 1.383 . S
C3018 C3017 1.379 . S
H3019 C3013 0.959 . S
H3020 C3013 0.961 . S
H3021 C3013 0.960 . S
H3022 C3014 0.930 . S
H3023 C3015 0.929 . S
H3024 C3032 0.929 . S
H3025 C3034 0.930 . S
H3026 C3036 0.930 . S
H3027 C3039 0.929 . S
H3028 C3042 0.930 . S
H3029 C3044 0.960 . S
H3030 C3044 0.960 . S
H3031 C3044 0.960 . S
C3032 H3024 0.929 . S
C3032 C3033 1.377 . S
C3032 C3034 1.384 . S
C3033 C3032 1.377 . S
C3033 C3039 1.390 . S
C3034 H3025 0.930 . S
C3034 C3032 1.384 . S
C3034 C3035 1.372 . S
C3035 C3034 1.372 . S
C3035 C3036 1.400 . S
C3035 C3040 1.490 . S
C3036 H3026 0.930 . S
C3036 C3035 1.400 . S
C3036 C3039 1.386 . S
H3037 C3053 0.930 . S
H3038 C3054 0.931 . S
C3039 H3027 0.929 . S
C3039 C3033 1.390 . S
C3039 C3036 1.386 . S
C3040 C3035 1.490 . S
C3040 C3042 1.395 . S
C3040 C3043 1.403 . S
H3041 C3047 0.930 . S
C3042 H3028 0.930 . S
C3042 C3040 1.395 . S
C3042 C3045 1.403 . S
C3043 C3040 1.403 . S
C3043 C3044 1.524 . S
C3043 C3047 1.400 . S
C3044 H3029 0.960 . S
C3044 H3030 0.960 . S
C3044 H3031 0.960 . S
C3044 C3043 1.524 . S
C3045 C3042 1.403 . S
C3045 C3046 1.392 . S
C3045 C3049 1.495 . S
C3046 C3045 1.392 . S
C3046 C3047 1.385 . S
C3046 C3048 1.478 . S
C3047 H3041 0.930 . S
C3047 C3043 1.400 . S
C3047 C3046 1.385 . S
C3048 C3046 1.478 . S
C3048 C3050 1.381 . S
C3048 C3054 1.383 . S
C3049 C3045 1.495 . S
C3049 H3055 0.959 . S
C3049 H3056 0.961 . S
C3049 H3057 0.960 . S
C3050 C3048 1.381 . S
C3050 C3051 1.394 . S
C3050 H3058 0.930 . S
C3051 C3050 1.394 . S
C3051 C3052 1.383 . S
C3051 H3059 0.929 . S
C3052 C3051 1.383 . S
C3052 C3053 1.377 . S
C3053 H3037 0.930 . S
C3053 C3052 1.377 . S
C3053 C3054 1.379 . S
C3054 H3038 0.931 . S
C3054 C3048 1.383 . S
C3054 C3053 1.379 . S
H3055 C3049 0.959 . S
H3056 C3049 0.961 . S
H3057 C3049 0.960 . S
H3058 C3050 0.930 . S
H3059 C3051 0.929 . S
H3060 C3068 0.929 . S
H3061 C3070 0.930 . S
H3062 C3072 0.930 . S
H3063 C3075 0.929 . S
H3064 C3078 0.930 . S
H3065 C3080 0.960 . S
H3066 C3080 0.960 . S
H3067 C3080 0.960 . S
C3068 H3060 0.929 . S
C3068 C3069 1.377 . S
C3068 C3070 1.384 . S
C3069 C3068 1.377 . S
C3069 C3075 1.390 . S
C3070 H3061 0.930 . S
C3070 C3068 1.384 . S
C3070 C3071 1.372 . S
C3071 C3070 1.372 . S
C3071 C3072 1.400 . S
C3071 C3076 1.490 . S
C3072 H3062 0.930 . S
C3072 C3071 1.400 . S
C3072 C3075 1.386 . S
H3073 C3089 0.930 . S
H3074 C3090 0.931 . S
C3075 H3063 0.929 . S
C3075 C3069 1.390 . S
C3075 C3072 1.386 . S
C3076 C3071 1.490 . S
C3076 C3078 1.395 . S
C3076 C3079 1.403 . S
H3077 C3083 0.930 . S
C3078 H3064 0.930 . S
C3078 C3076 1.395 . S
C3078 C3081 1.403 . S
C3079 C3076 1.403 . S
C3079 C3080 1.524 . S
C3079 C3083 1.400 . S
C3080 H3065 0.960 . S
C3080 H3066 0.960 . S
C3080 H3067 0.960 . S
C3080 C3079 1.524 . S
C3081 C3078 1.403 . S
C3081 C3082 1.392 . S
C3081 C3085 1.495 . S
C3082 C3081 1.392 . S
C3082 C3083 1.385 . S
C3082 C3084 1.478 . S
C3083 H3077 0.930 . S
C3083 C3079 1.400 . S
C3083 C3082 1.385 . S
C3084 C3082 1.478 . S
C3084 C3086 1.381 . S
C3084 C3090 1.383 . S
C3085 C3081 1.495 . S
C3085 H3091 0.959 . S
C3085 H3092 0.961 . S
C3085 H3093 0.960 . S
C3086 C3084 1.381 . S
C3086 C3087 1.394 . S
C3086 H3094 0.930 . S
C3087 C3086 1.394 . S
C3087 C3088 1.383 . S
C3087 H3095 0.929 . S
C3088 C3087 1.383 . S
C3088 C3089 1.377 . S
C3089 H3073 0.930 . S
C3089 C3088 1.377 . S
C3089 C3090 1.379 . S
C3090 H3074 0.931 . S
C3090 C3084 1.383 . S
C3090 C3089 1.379 . S
H3091 C3085 0.959 . S
H3092 C3085 0.961 . S
H3093 C3085 0.960 . S
H3094 C3086 0.930 . S
H3095 C3087 0.929 . S
H3096 C3104 0.929 . S
H3097 C3106 0.930 . S
H3098 C3108 0.930 . S
H3099 C3111 0.929 . S
H3100 C3114 0.930 . S
H3101 C3116 0.960 . S
H3102 C3116 0.960 . S
H3103 C3116 0.960 . S
C3104 H3096 0.929 . S
C3104 C3105 1.377 . S
C3104 C3106 1.384 . S
C3105 C3104 1.377 . S
C3105 C3111 1.390 . S
C3106 H3097 0.930 . S
C3106 C3104 1.384 . S
C3106 C3107 1.372 . S
C3107 C3106 1.372 . S
C3107 C3108 1.400 . S
C3107 C3112 1.490 . S
C3108 H3098 0.930 . S
C3108 C3107 1.400 . S
C3108 C3111 1.386 . S
H3109 C3125 0.930 . S
H3110 C3126 0.931 . S
C3111 H3099 0.929 . S
C3111 C3105 1.390 . S
C3111 C3108 1.386 . S
C3112 C3107 1.490 . S
C3112 C3114 1.395 . S
C3112 C3115 1.403 . S
H3113 C3119 0.930 . S
C3114 H3100 0.930 . S
C3114 C3112 1.395 . S
C3114 C3117 1.403 . S
C3115 C3112 1.403 . S
C3115 C3116 1.524 . S
C3115 C3119 1.400 . S
C3116 H3101 0.960 . S
C3116 H3102 0.960 . S
C3116 H3103 0.960 . S
C3116 C3115 1.524 . S
C3117 C3114 1.403 . S
C3117 C3118 1.392 . S
C3117 C3121 1.495 . S
C3118 C3117 1.392 . S
C3118 C3119 1.385 . S
C3118 C3120 1.478 . S
C3119 H3113 0.930 . S
C3119 C3115 1.400 . S
C3119 C3118 1.385 . S
C3120 C3118 1.478 . S
C3120 C3122 1.381 . S
C3120 C3126 1.383 . S
C3121 C3117 1.495 . S
C3121 H3127 0.959 . S
C3121 H3128 0.961 . S
C3121 H3129 0.960 . S
C3122 C3120 1.381 . S
C3122 C3123 1.394 . S
C3122 H3130 0.930 . S
C3123 C3122 1.394 . S
C3123 C3124 1.383 . S
C3123 H3131 0.929 . S
C3124 C3123 1.383 . S
C3124 C3125 1.377 . S
C3125 H3109 0.930 . S
C3125 C3124 1.377 . S
C3125 C3126 1.379 . S
C3126 H3110 0.931 . S
C3126 C3120 1.383 . S
C3126 C3125 1.379 . S
H3127 C3121 0.959 . S
H3128 C3121 0.961 . S
H3129 C3121 0.960 . S
H3130 C3122 0.930 . S
H3131 C3123 0.929 . S
H3132 C3140 0.929 . S
H3133 C3142 0.930 . S
H3134 C3144 0.930 . S
H3135 C3147 0.929 . S
H3136 C3150 0.930 . S
H3137 C3152 0.960 . S
H3138 C3152 0.960 . S
H3139 C3152 0.960 . S
C3140 H3132 0.929 . S
C3140 C3141 1.377 . S
C3140 C3142 1.384 . S
C3141 C3140 1.377 . S
C3141 C3147 1.390 . S
C3142 H3133 0.930 . S
C3142 C3140 1.384 . S
C3142 C3143 1.372 . S
C3143 C3142 1.372 . S
C3143 C3144 1.400 . S
C3143 C3148 1.490 . S
C3144 H3134 0.930 . S
C3144 C3143 1.400 . S
C3144 C3147 1.386 . S
H3145 C3161 0.930 . S
H3146 C3162 0.931 . S
C3147 H3135 0.929 . S
C3147 C3141 1.390 . S
C3147 C3144 1.386 . S
C3148 C3143 1.490 . S
C3148 C3150 1.395 . S
C3148 C3151 1.403 . S
H3149 C3155 0.930 . S
C3150 H3136 0.930 . S
C3150 C3148 1.395 . S
C3150 C3153 1.403 . S
C3151 C3148 1.403 . S
C3151 C3152 1.524 . S
C3151 C3155 1.400 . S
C3152 H3137 0.960 . S
C3152 H3138 0.960 . S
C3152 H3139 0.960 . S
C3152 C3151 1.524 . S
C3153 C3150 1.403 . S
C3153 C3154 1.392 . S
C3153 C3157 1.495 . S
C3154 C3153 1.392 . S
C3154 C3155 1.385 . S
C3154 C3156 1.478 . S
C3155 H3149 0.930 . S
C3155 C3151 1.400 . S
C3155 C3154 1.385 . S
C3156 C3154 1.478 . S
C3156 C3158 1.381 . S
C3156 C3162 1.383 . S
C3157 C3153 1.495 . S
C3157 H3163 0.959 . S
C3157 H3164 0.961 . S
C3157 H3165 0.960 . S
C3158 C3156 1.381 . S
C3158 C3159 1.394 . S
C3158 H3166 0.930 . S
C3159 C3158 1.394 . S
C3159 C3160 1.383 . S
C3159 H3167 0.929 . S
C3160 C3159 1.383 . S
C3160 C3161 1.377 . S
C3161 H3145 0.930 . S
C3161 C3160 1.377 . S
C3161 C3162 1.379 . S
C3162 H3146 0.931 . S
C3162 C3156 1.383 . S
C3162 C3161 1.379 . S
H3163 C3157 0.959 . S
H3164 C3157 0.961 . S
H3165 C3157 0.960 . S
H3166 C3158 0.930 . S
H3167 C3159 0.929 . S
H3168 C3176 0.929 . S
H3169 C3178 0.930 . S
H3170 C3180 0.930 . S
H3171 C3183 0.929 . S
H3172 C3186 0.930 . S
H3173 C3188 0.960 . S
H3174 C3188 0.960 . S
H3175 C3188 0.960 . S
C3176 H3168 0.929 . S
C3176 C3177 1.377 . S
C3176 C3178 1.384 . S
C3177 C3176 1.377 . S
C3177 C3183 1.390 . S
C3178 H3169 0.930 . S
C3178 C3176 1.384 . S
C3178 C3179 1.372 . S
C3179 C3178 1.372 . S
C3179 C3180 1.400 . S
C3179 C3184 1.490 . S
C3180 H3170 0.930 . S
C3180 C3179 1.400 . S
C3180 C3183 1.386 . S
H3181 C3197 0.930 . S
H3182 C3198 0.931 . S
C3183 H3171 0.929 . S
C3183 C3177 1.390 . S
C3183 C3180 1.386 . S
C3184 C3179 1.490 . S
C3184 C3186 1.395 . S
C3184 C3187 1.403 . S
H3185 C3191 0.930 . S
C3186 H3172 0.930 . S
C3186 C3184 1.395 . S
C3186 C3189 1.403 . S
C3187 C3184 1.403 . S
C3187 C3188 1.524 . S
C3187 C3191 1.400 . S
C3188 H3173 0.960 . S
C3188 H3174 0.960 . S
C3188 H3175 0.960 . S
C3188 C3187 1.524 . S
C3189 C3186 1.403 . S
C3189 C3190 1.392 . S
C3189 C3193 1.495 . S
C3190 C3189 1.392 . S
C3190 C3191 1.385 . S
C3190 C3192 1.478 . S
C3191 H3185 0.930 . S
C3191 C3187 1.400 . S
C3191 C3190 1.385 . S
C3192 C3190 1.478 . S
C3192 C3194 1.381 . S
C3192 C3198 1.383 . S
C3193 C3189 1.495 . S
C3193 H3199 0.959 . S
C3193 H3200 0.961 . S
C3193 H3201 0.960 . S
C3194 C3192 1.381 . S
C3194 C3195 1.394 . S
C3194 H3202 0.930 . S
C3195 C3194 1.394 . S
C3195 C3196 1.383 . S
C3195 H3203 0.929 . S
C3196 C3195 1.383 . S
C3196 C3197 1.377 . S
C3197 H3181 0.930 . S
C3197 C3196 1.377 . S
C3197 C3198 1.379 . S
C3198 H3182 0.931 . S
C3198 C3192 1.383 . S
C3198 C3197 1.379 . S
H3199 C3193 0.959 . S
H3200 C3193 0.961 . S
H3201 C3193 0.960 . S
H3202 C3194 0.930 . S
H3203 C3195 0.929 . S
H3204 C3212 0.929 . S
H3205 C3214 0.930 . S
H3206 C3216 0.930 . S
H3207 C3219 0.929 . S
H3208 C3222 0.930 . S
H3209 C3224 0.960 . S
H3210 C3224 0.960 . S
H3211 C3224 0.960 . S
C3212 H3204 0.929 . S
C3212 C3213 1.377 . S
C3212 C3214 1.384 . S
C3213 C3212 1.377 . S
C3213 C3219 1.390 . S
C3214 H3205 0.930 . S
C3214 C3212 1.384 . S
C3214 C3215 1.372 . S
C3215 C3214 1.372 . S
C3215 C3216 1.400 . S
C3215 C3220 1.490 . S
C3216 H3206 0.930 . S
C3216 C3215 1.400 . S
C3216 C3219 1.386 . S
H3217 C3233 0.930 . S
H3218 C3234 0.931 . S
C3219 H3207 0.929 . S
C3219 C3213 1.390 . S
C3219 C3216 1.386 . S
C3220 C3215 1.490 . S
C3220 C3222 1.395 . S
C3220 C3223 1.403 . S
H3221 C3227 0.930 . S
C3222 H3208 0.930 . S
C3222 C3220 1.395 . S
C3222 C3225 1.403 . S
C3223 C3220 1.403 . S
C3223 C3224 1.524 . S
C3223 C3227 1.400 . S
C3224 H3209 0.960 . S
C3224 H3210 0.960 . S
C3224 H3211 0.960 . S
C3224 C3223 1.524 . S
C3225 C3222 1.403 . S
C3225 C3226 1.392 . S
C3225 C3229 1.495 . S
C3226 C3225 1.392 . S
C3226 C3227 1.385 . S
C3226 C3228 1.478 . S
C3227 H3221 0.930 . S
C3227 C3223 1.400 . S
C3227 C3226 1.385 . S
C3228 C3226 1.478 . S
C3228 C3230 1.381 . S
C3228 C3234 1.383 . S
C3229 C3225 1.495 . S
C3229 H3235 0.959 . S
C3229 H3236 0.961 . S
C3229 H3237 0.960 . S
C3230 C3228 1.381 . S
C3230 C3231 1.394 . S
C3230 H3238 0.930 . S
C3231 C3230 1.394 . S
C3231 C3232 1.383 . S
C3231 H3239 0.929 . S
C3232 C3231 1.383 . S
C3232 C3233 1.377 . S
C3233 H3217 0.930 . S
C3233 C3232 1.377 . S
C3233 C3234 1.379 . S
C3234 H3218 0.931 . S
C3234 C3228 1.383 . S
C3234 C3233 1.379 . S
H3235 C3229 0.959 . S
H3236 C3229 0.961 . S
H3237 C3229 0.960 . S
H3238 C3230 0.930 . S
H3239 C3231 0.929 . S
H3240 C3248 0.929 . S
H3241 C3250 0.930 . S
H3242 C3252 0.930 . S
H3243 C3255 0.929 . S
H3244 C3258 0.930 . S
H3245 C3260 0.960 . S
H3246 C3260 0.960 . S
H3247 C3260 0.960 . S
C3248 H3240 0.929 . S
C3248 C3249 1.377 . S
C3248 C3250 1.384 . S
C3249 C3248 1.377 . S
C3249 C3255 1.390 . S
C3250 H3241 0.930 . S
C3250 C3248 1.384 . S
C3250 C3251 1.372 . S
C3251 C3250 1.372 . S
C3251 C3252 1.400 . S
C3251 C3256 1.490 . S
C3252 H3242 0.930 . S
C3252 C3251 1.400 . S
C3252 C3255 1.386 . S
H3253 C3269 0.930 . S
H3254 C3270 0.931 . S
C3255 H3243 0.929 . S
C3255 C3249 1.390 . S
C3255 C3252 1.386 . S
C3256 C3251 1.490 . S
C3256 C3258 1.395 . S
C3256 C3259 1.403 . S
H3257 C3263 0.930 . S
C3258 H3244 0.930 . S
C3258 C3256 1.395 . S
C3258 C3261 1.403 . S
C3259 C3256 1.403 . S
C3259 C3260 1.524 . S
C3259 C3263 1.400 . S
C3260 H3245 0.960 . S
C3260 H3246 0.960 . S
C3260 H3247 0.960 . S
C3260 C3259 1.524 . S
C3261 C3258 1.403 . S
C3261 C3262 1.392 . S
C3261 C3265 1.495 . S
C3262 C3261 1.392 . S
C3262 C3263 1.385 . S
C3262 C3264 1.478 . S
C3263 H3257 0.930 . S
C3263 C3259 1.400 . S
C3263 C3262 1.385 . S
C3264 C3262 1.478 . S
C3264 C3266 1.381 . S
C3264 C3270 1.383 . S
C3265 C3261 1.495 . S
C3265 H3271 0.959 . S
C3265 H3272 0.961 . S
C3265 H3273 0.960 . S
C3266 C3264 1.381 . S
C3266 C3267 1.394 . S
C3266 H3274 0.930 . S
C3267 C3266 1.394 . S
C3267 C3268 1.383 . S
C3267 H3275 0.929 . S
C3268 C3267 1.383 . S
C3268 C3269 1.377 . S
C3269 H3253 0.930 . S
C3269 C3268 1.377 . S
C3269 C3270 1.379 . S
C3270 H3254 0.931 . S
C3270 C3264 1.383 . S
C3270 C3269 1.379 . S
H3271 C3265 0.959 . S
H3272 C3265 0.961 . S
H3273 C3265 0.960 . S
H3274 C3266 0.930 . S
H3275 C3267 0.929 . S
H3276 C3284 0.929 . S
H3277 C3286 0.930 . S
H3278 C3288 0.930 . S
H3279 C3291 0.929 . S
H3280 C3294 0.930 . S
H3281 C3296 0.960 . S
H3282 C3296 0.960 . S
H3283 C3296 0.960 . S
C3284 H3276 0.929 . S
C3284 C3285 1.377 . S
C3284 C3286 1.384 . S
C3285 C3284 1.377 . S
C3285 C3291 1.390 . S
C3286 H3277 0.930 . S
C3286 C3284 1.384 . S
C3286 C3287 1.372 . S
C3287 C3286 1.372 . S
C3287 C3288 1.400 . S
C3287 C3292 1.490 . S
C3288 H3278 0.930 . S
C3288 C3287 1.400 . S
C3288 C3291 1.386 . S
H3289 C3305 0.930 . S
H3290 C3306 0.931 . S
C3291 H3279 0.929 . S
C3291 C3285 1.390 . S
C3291 C3288 1.386 . S
C3292 C3287 1.490 . S
C3292 C3294 1.395 . S
C3292 C3295 1.403 . S
H3293 C3299 0.930 . S
C3294 H3280 0.930 . S
C3294 C3292 1.395 . S
C3294 C3297 1.403 . S
C3295 C3292 1.403 . S
C3295 C3296 1.524 . S
C3295 C3299 1.400 . S
C3296 H3281 0.960 . S
C3296 H3282 0.960 . S
C3296 H3283 0.960 . S
C3296 C3295 1.524 . S
C3297 C3294 1.403 . S
C3297 C3298 1.392 . S
C3297 C3301 1.495 . S
C3298 C3297 1.392 . S
C3298 C3299 1.385 . S
C3298 C3300 1.478 . S
C3299 H3293 0.930 . S
C3299 C3295 1.400 . S
C3299 C3298 1.385 . S
C3300 C3298 1.478 . S
C3300 C3302 1.381 . S
C3300 C3306 1.383 . S
C3301 C3297 1.495 . S
C3301 H3307 0.959 . S
C3301 H3308 0.961 . S
C3301 H3309 0.960 . S
C3302 C3300 1.381 . S
C3302 C3303 1.394 . S
C3302 H3310 0.930 . S
C3303 C3302 1.394 . S
C3303 C3304 1.383 . S
C3303 H3311 0.929 . S
C3304 C3303 1.383 . S
C3304 C3305 1.377 . S
C3305 H3289 0.930 . S
C3305 C3304 1.377 . S
C3305 C3306 1.379 . S
C3306 H3290 0.931 . S
C3306 C3300 1.383 . S
C3306 C3305 1.379 . S
H3307 C3301 0.959 . S
H3308 C3301 0.961 . S
H3309 C3301 0.960 . S
H3310 C3302 0.930 . S
H3311 C3303 0.929 . S
H3312 C3320 0.929 . S
H3313 C3322 0.930 . S
H3314 C3324 0.930 . S
H3315 C3327 0.929 . S
H3316 C3330 0.930 . S
H3317 C3332 0.960 . S
H3318 C3332 0.960 . S
H3319 C3332 0.960 . S
C3320 H3312 0.929 . S
C3320 C3321 1.377 . S
C3320 C3322 1.384 . S
C3321 C3320 1.377 . S
C3321 C3327 1.390 . S
C3322 H3313 0.930 . S
C3322 C3320 1.384 . S
C3322 C3323 1.372 . S
C3323 C3322 1.372 . S
C3323 C3324 1.400 . S
C3323 C3328 1.490 . S
C3324 H3314 0.930 . S
C3324 C3323 1.400 . S
C3324 C3327 1.386 . S
H3325 C3341 0.930 . S
H3326 C3342 0.931 . S
C3327 H3315 0.929 . S
C3327 C3321 1.390 . S
C3327 C3324 1.386 . S
C3328 C3323 1.490 . S
C3328 C3330 1.395 . S
C3328 C3331 1.403 . S
H3329 C3335 0.930 . S
C3330 H3316 0.930 . S
C3330 C3328 1.395 . S
C3330 C3333 1.403 . S
C3331 C3328 1.403 . S
C3331 C3332 1.524 . S
C3331 C3335 1.400 . S
C3332 H3317 0.960 . S
C3332 H3318 0.960 . S
C3332 H3319 0.960 . S
C3332 C3331 1.524 . S
C3333 C3330 1.403 . S
C3333 C3334 1.392 . S
C3333 C3337 1.495 . S
C3334 C3333 1.392 . S
C3334 C3335 1.385 . S
C3334 C3336 1.478 . S
C3335 H3329 0.930 . S
C3335 C3331 1.400 . S
C3335 C3334 1.385 . S
C3336 C3334 1.478 . S
C3336 C3338 1.381 . S
C3336 C3342 1.383 . S
C3337 C3333 1.495 . S
C3337 H3343 0.959 . S
C3337 H3344 0.961 . S
C3337 H3345 0.960 . S
C3338 C3336 1.381 . S
C3338 C3339 1.394 . S
C3338 H3346 0.930 . S
C3339 C3338 1.394 . S
C3339 C3340 1.383 . S
C3339 H3347 0.929 . S
C3340 C3339 1.383 . S
C3340 C3341 1.377 . S
C3341 H3325 0.930 . S
C3341 C3340 1.377 . S
C3341 C3342 1.379 . S
C3342 H3326 0.931 . S
C3342 C3336 1.383 . S
C3342 C3341 1.379 . S
H3343 C3337 0.959 . S
H3344 C3337 0.961 . S
H3345 C3337 0.960 . S
H3346 C3338 0.930 . S
H3347 C3339 0.929 . S
H3348 C3356 0.929 . S
H3349 C3358 0.930 . S
H3350 C3360 0.930 . S
H3351 C3363 0.929 . S
H3352 C3366 0.930 . S
H3353 C3368 0.960 . S
H3354 C3368 0.960 . S
H3355 C3368 0.960 . S
C3356 H3348 0.929 . S
C3356 C3357 1.377 . S
C3356 C3358 1.384 . S
C3357 C3356 1.377 . S
C3357 C3363 1.390 . S
C3358 H3349 0.930 . S
C3358 C3356 1.384 . S
C3358 C3359 1.372 . S
C3359 C3358 1.372 . S
C3359 C3360 1.400 . S
C3359 C3364 1.490 . S
C3360 H3350 0.930 . S
C3360 C3359 1.400 . S
C3360 C3363 1.386 . S
H3361 C3377 0.930 . S
H3362 C3378 0.931 . S
C3363 H3351 0.929 . S
C3363 C3357 1.390 . S
C3363 C3360 1.386 . S
C3364 C3359 1.490 . S
C3364 C3366 1.395 . S
C3364 C3367 1.403 . S
H3365 C3371 0.930 . S
C3366 H3352 0.930 . S
C3366 C3364 1.395 . S
C3366 C3369 1.403 . S
C3367 C3364 1.403 . S
C3367 C3368 1.524 . S
C3367 C3371 1.400 . S
C3368 H3353 0.960 . S
C3368 H3354 0.960 . S
C3368 H3355 0.960 . S
C3368 C3367 1.524 . S
C3369 C3366 1.403 . S
C3369 C3370 1.392 . S
C3369 C3373 1.495 . S
C3370 C3369 1.392 . S
C3370 C3371 1.385 . S
C3370 C3372 1.478 . S
C3371 H3365 0.930 . S
C3371 C3367 1.400 . S
C3371 C3370 1.385 . S
C3372 C3370 1.478 . S
C3372 C3374 1.381 . S
C3372 C3378 1.383 . S
C3373 C3369 1.495 . S
C3373 H3379 0.959 . S
C3373 H3380 0.961 . S
C3373 H3381 0.960 . S
C3374 C3372 1.381 . S
C3374 C3375 1.394 . S
C3374 H3382 0.930 . S
C3375 C3374 1.394 . S
C3375 C3376 1.383 . S
C3375 H3383 0.929 . S
C3376 C3375 1.383 . S
C3376 C3377 1.377 . S
C3377 H3361 0.930 . S
C3377 C3376 1.377 . S
C3377 C3378 1.379 . S
C3378 H3362 0.931 . S
C3378 C3372 1.383 . S
C3378 C3377 1.379 . S
H3379 C3373 0.959 . S
H3380 C3373 0.961 . S
H3381 C3373 0.960 . S
H3382 C3374 0.930 . S
H3383 C3375 0.929 . S
H3384 C3392 0.929 . S
H3385 C3394 0.930 . S
H3386 C3396 0.930 . S
H3387 C3399 0.929 . S
H3388 C3402 0.930 . S
H3389 C3404 0.960 . S
H3390 C3404 0.960 . S
H3391 C3404 0.960 . S
C3392 H3384 0.929 . S
C3392 C3393 1.377 . S
C3392 C3394 1.384 . S
C3393 C3392 1.377 . S
C3393 C3399 1.390 . S
C3394 H3385 0.930 . S
C3394 C3392 1.384 . S
C3394 C3395 1.372 . S
C3395 C3394 1.372 . S
C3395 C3396 1.400 . S
C3395 C3400 1.490 . S
C3396 H3386 0.930 . S
C3396 C3395 1.400 . S
C3396 C3399 1.386 . S
H3397 C3413 0.930 . S
H3398 C3414 0.931 . S
C3399 H3387 0.929 . S
C3399 C3393 1.390 . S
C3399 C3396 1.386 . S
C3400 C3395 1.490 . S
C3400 C3402 1.395 . S
C3400 C3403 1.403 . S
H3401 C3407 0.930 . S
C3402 H3388 0.930 . S
C3402 C3400 1.395 . S
C3402 C3405 1.403 . S
C3403 C3400 1.403 . S
C3403 C3404 1.524 . S
C3403 C3407 1.400 . S
C3404 H3389 0.960 . S
C3404 H3390 0.960 . S
C3404 H3391 0.960 . S
C3404 C3403 1.524 . S
C3405 C3402 1.403 . S
C3405 C3406 1.392 . S
C3405 C3409 1.495 . S
C3406 C3405 1.392 . S
C3406 C3407 1.385 . S
C3406 C3408 1.478 . S
C3407 H3401 0.930 . S
C3407 C3403 1.400 . S
C3407 C3406 1.385 . S
C3408 C3406 1.478 . S
C3408 C3410 1.381 . S
C3408 C3414 1.383 . S
C3409 C3405 1.495 . S
C3409 H3415 0.959 . S
C3409 H3416 0.961 . S
C3409 H3417 0.960 . S
C3410 C3408 1.381 . S
C3410 C3411 1.394 . S
C3410 H3418 0.930 . S
C3411 C3410 1.394 . S
C3411 C3412 1.383 . S
C3411 H3419 0.929 . S
C3412 C3411 1.383 . S
C3412 C3413 1.377 . S
C3413 H3397 0.930 . S
C3413 C3412 1.377 . S
C3413 C3414 1.379 . S
C3414 H3398 0.931 . S
C3414 C3408 1.383 . S
C3414 C3413 1.379 . S
H3415 C3409 0.959 . S
H3416 C3409 0.961 . S
H3417 C3409 0.960 . S
H3418 C3410 0.930 . S
H3419 C3411 0.929 . S
H3420 C3428 0.929 . S
H3421 C3430 0.930 . S
H3422 C3432 0.930 . S
H3423 C3435 0.929 . S
H3424 C3438 0.930 . S
H3425 C3440 0.960 . S
H3426 C3440 0.960 . S
H3427 C3440 0.960 . S
C3428 H3420 0.929 . S
C3428 C3429 1.377 . S
C3428 C3430 1.384 . S
C3429 C3428 1.377 . S
C3429 C3435 1.390 . S
C3430 H3421 0.930 . S
C3430 C3428 1.384 . S
C3430 C3431 1.372 . S
C3431 C3430 1.372 . S
C3431 C3432 1.400 . S
C3431 C3436 1.490 . S
C3432 H3422 0.930 . S
C3432 C3431 1.400 . S
C3432 C3435 1.386 . S
H3433 C3449 0.930 . S
H3434 C3450 0.931 . S
C3435 H3423 0.929 . S
C3435 C3429 1.390 . S
C3435 C3432 1.386 . S
C3436 C3431 1.490 . S
C3436 C3438 1.395 . S
C3436 C3439 1.403 . S
H3437 C3443 0.930 . S
C3438 H3424 0.930 . S
C3438 C3436 1.395 . S
C3438 C3441 1.403 . S
C3439 C3436 1.403 . S
C3439 C3440 1.524 . S
C3439 C3443 1.400 . S
C3440 H3425 0.960 . S
C3440 H3426 0.960 . S
C3440 H3427 0.960 . S
C3440 C3439 1.524 . S
C3441 C3438 1.403 . S
C3441 C3442 1.392 . S
C3441 C3445 1.495 . S
C3442 C3441 1.392 . S
C3442 C3443 1.385 . S
C3442 C3444 1.478 . S
C3443 H3437 0.930 . S
C3443 C3439 1.400 . S
C3443 C3442 1.385 . S
C3444 C3442 1.478 . S
C3444 C3446 1.381 . S
C3444 C3450 1.383 . S
C3445 C3441 1.495 . S
C3445 H3451 0.959 . S
C3445 H3452 0.961 . S
C3445 H3453 0.960 . S
C3446 C3444 1.381 . S
C3446 C3447 1.394 . S
C3446 H3454 0.930 . S
C3447 C3446 1.394 . S
C3447 C3448 1.383 . S
C3447 H3455 0.929 . S
C3448 C3447 1.383 . S
C3448 C3449 1.377 . S
C3449 H3433 0.930 . S
C3449 C3448 1.377 . S
C3449 C3450 1.379 . S
C3450 H3434 0.931 . S
C3450 C3444 1.383 . S
C3450 C3449 1.379 . S
H3451 C3445 0.959 . S
H3452 C3445 0.961 . S
H3453 C3445 0.960 . S
H3454 C3446 0.930 . S
H3455 C3447 0.929 . S
H3456 C3464 0.929 . S
H3457 C3466 0.930 . S
H3458 C3468 0.930 . S
H3459 C3471 0.929 . S
H3460 C3474 0.930 . S
H3461 C3476 0.960 . S
H3462 C3476 0.960 . S
H3463 C3476 0.960 . S
C3464 H3456 0.929 . S
C3464 C3465 1.377 . S
C3464 C3466 1.384 . S
C3465 C3464 1.377 . S
C3465 C3471 1.390 . S
C3466 H3457 0.930 . S
C3466 C3464 1.384 . S
C3466 C3467 1.372 . S
C3467 C3466 1.372 . S
C3467 C3468 1.400 . S
C3467 C3472 1.490 . S
C3468 H3458 0.930 . S
C3468 C3467 1.400 . S
C3468 C3471 1.386 . S
H3469 C3485 0.930 . S
H3470 C3486 0.931 . S
C3471 H3459 0.929 . S
C3471 C3465 1.390 . S
C3471 C3468 1.386 . S
C3472 C3467 1.490 . S
C3472 C3474 1.395 . S
C3472 C3475 1.403 . S
H3473 C3479 0.930 . S
C3474 H3460 0.930 . S
C3474 C3472 1.395 . S
C3474 C3477 1.403 . S
C3475 C3472 1.403 . S
C3475 C3476 1.524 . S
C3475 C3479 1.400 . S
C3476 H3461 0.960 . S
C3476 H3462 0.960 . S
C3476 H3463 0.960 . S
C3476 C3475 1.524 . S
C3477 C3474 1.403 . S
C3477 C3478 1.392 . S
C3477 C3481 1.495 . S
C3478 C3477 1.392 . S
C3478 C3479 1.385 . S
C3478 C3480 1.478 . S
C3479 H3473 0.930 . S
C3479 C3475 1.400 . S
C3479 C3478 1.385 . S
C3480 C3478 1.478 . S
C3480 C3482 1.381 . S
C3480 C3486 1.383 . S
C3481 C3477 1.495 . S
C3481 H3487 0.959 . S
C3481 H3488 0.961 . S
C3481 H3489 0.960 . S
C3482 C3480 1.381 . S
C3482 C3483 1.394 . S
C3482 H3490 0.930 . S
C3483 C3482 1.394 . S
C3483 C3484 1.383 . S
C3483 H3491 0.929 . S
C3484 C3483 1.383 . S
C3484 C3485 1.377 . S
C3485 H3469 0.930 . S
C3485 C3484 1.377 . S
C3485 C3486 1.379 . S
C3486 H3470 0.931 . S
C3486 C3480 1.383 . S
C3486 C3485 1.379 . S
H3487 C3481 0.959 . S
H3488 C3481 0.961 . S
H3489 C3481 0.960 . S
H3490 C3482 0.930 . S
H3491 C3483 0.929 . S
H3492 C3500 0.929 . S
H3493 C3502 0.930 . S
H3494 C3504 0.930 . S
H3495 C3507 0.929 . S
H3496 C3510 0.930 . S
H3497 C3512 0.960 . S
H3498 C3512 0.960 . S
H3499 C3512 0.960 . S
C3500 H3492 0.929 . S
C3500 C3501 1.377 . S
C3500 C3502 1.384 . S
C3501 C3500 1.377 . S
C3501 C3507 1.390 . S
C3502 H3493 0.930 . S
C3502 C3500 1.384 . S
C3502 C3503 1.372 . S
C3503 C3502 1.372 . S
C3503 C3504 1.400 . S
C3503 C3508 1.490 . S
C3504 H3494 0.930 . S
C3504 C3503 1.400 . S
C3504 C3507 1.386 . S
H3505 C3521 0.930 . S
H3506 C3522 0.931 . S
C3507 H3495 0.929 . S
C3507 C3501 1.390 . S
C3507 C3504 1.386 . S
C3508 C3503 1.490 . S
C3508 C3510 1.395 . S
C3508 C3511 1.403 . S
H3509 C3515 0.930 . S
C3510 H3496 0.930 . S
C3510 C3508 1.395 . S
C3510 C3513 1.403 . S
C3511 C3508 1.403 . S
C3511 C3512 1.524 . S
C3511 C3515 1.400 . S
C3512 H3497 0.960 . S
C3512 H3498 0.960 . S
C3512 H3499 0.960 . S
C3512 C3511 1.524 . S
C3513 C3510 1.403 . S
C3513 C3514 1.392 . S
C3513 C3517 1.495 . S
C3514 C3513 1.392 . S
C3514 C3515 1.385 . S
C3514 C3516 1.478 . S
C3515 H3509 0.930 . S
C3515 C3511 1.400 . S
C3515 C3514 1.385 . S
C3516 C3514 1.478 . S
C3516 C3518 1.381 . S
C3516 C3522 1.383 . S
C3517 C3513 1.495 . S
C3517 H3523 0.959 . S
C3517 H3524 0.961 . S
C3517 H3525 0.960 . S
C3518 C3516 1.381 . S
C3518 C3519 1.394 . S
C3518 H3526 0.930 . S
C3519 C3518 1.394 . S
C3519 C3520 1.383 . S
C3519 H3527 0.929 . S
C3520 C3519 1.383 . S
C3520 C3521 1.377 . S
C3521 H3505 0.930 . S
C3521 C3520 1.377 . S
C3521 C3522 1.379 . S
C3522 H3506 0.931 . S
C3522 C3516 1.383 . S
C3522 C3521 1.379 . S
H3523 C3517 0.959 . S
H3524 C3517 0.961 . S
H3525 C3517 0.960 . S
H3526 C3518 0.930 . S
H3527 C3519 0.929 . S
H3528 C3536 0.929 . S
H3529 C3538 0.930 . S
H3530 C3540 0.930 . S
H3531 C3543 0.929 . S
H3532 C3546 0.930 . S
H3533 C3548 0.960 . S
H3534 C3548 0.960 . S
H3535 C3548 0.960 . S
C3536 H3528 0.929 . S
C3536 C3537 1.377 . S
C3536 C3538 1.384 . S
C3537 C3536 1.377 . S
C3537 C3543 1.390 . S
C3538 H3529 0.930 . S
C3538 C3536 1.384 . S
C3538 C3539 1.372 . S
C3539 C3538 1.372 . S
C3539 C3540 1.400 . S
C3539 C3544 1.490 . S
C3540 H3530 0.930 . S
C3540 C3539 1.400 . S
C3540 C3543 1.386 . S
H3541 C3557 0.930 . S
H3542 C3558 0.931 . S
C3543 H3531 0.929 . S
C3543 C3537 1.390 . S
C3543 C3540 1.386 . S
C3544 C3539 1.490 . S
C3544 C3546 1.395 . S
C3544 C3547 1.403 . S
H3545 C3551 0.930 . S
C3546 H3532 0.930 . S
C3546 C3544 1.395 . S
C3546 C3549 1.403 . S
C3547 C3544 1.403 . S
C3547 C3548 1.524 . S
C3547 C3551 1.400 . S
C3548 H3533 0.960 . S
C3548 H3534 0.960 . S
C3548 H3535 0.960 . S
C3548 C3547 1.524 . S
C3549 C3546 1.403 . S
C3549 C3550 1.392 . S
C3549 C3553 1.495 . S
C3550 C3549 1.392 . S
C3550 C3551 1.385 . S
C3550 C3552 1.478 . S
C3551 H3545 0.930 . S
C3551 C3547 1.400 . S
C3551 C3550 1.385 . S
C3552 C3550 1.478 . S
C3552 C3554 1.381 . S
C3552 C3558 1.383 . S
C3553 C3549 1.495 . S
C3553 H3559 0.959 . S
C3553 H3560 0.961 . S
C3553 H3561 0.960 . S
C3554 C3552 1.381 . S
C3554 C3555 1.394 . S
C3554 H3562 0.930 . S
C3555 C3554 1.394 . S
C3555 C3556 1.383 . S
C3555 H3563 0.929 . S
C3556 C3555 1.383 . S
C3556 C3557 1.377 . S
C3557 H3541 0.930 . S
C3557 C3556 1.377 . S
C3557 C3558 1.379 . S
C3558 H3542 0.931 . S
C3558 C3552 1.383 . S
C3558 C3557 1.379 . S
H3559 C3553 0.959 . S
H3560 C3553 0.961 . S
H3561 C3553 0.960 . S
H3562 C3554 0.930 . S
H3563 C3555 0.929 . S
H3564 C3572 0.929 . S
H3565 C3574 0.930 . S
H3566 C3576 0.930 . S
H3567 C3579 0.929 . S
H3568 C3582 0.930 . S
H3569 C3584 0.960 . S
H3570 C3584 0.960 . S
H3571 C3584 0.960 . S
C3572 H3564 0.929 . S
C3572 C3573 1.377 . S
C3572 C3574 1.384 . S
C3573 C3572 1.377 . S
C3573 C3579 1.390 . S
C3574 H3565 0.930 . S
C3574 C3572 1.384 . S
C3574 C3575 1.372 . S
C3575 C3574 1.372 . S
C3575 C3576 1.400 . S
C3575 C3580 1.490 . S
C3576 H3566 0.930 . S
C3576 C3575 1.400 . S
C3576 C3579 1.386 . S
H3577 C3593 0.930 . S
H3578 C3594 0.931 . S
C3579 H3567 0.929 . S
C3579 C3573 1.390 . S
C3579 C3576 1.386 . S
C3580 C3575 1.490 . S
C3580 C3582 1.395 . S
C3580 C3583 1.403 . S
H3581 C3587 0.930 . S
C3582 H3568 0.930 . S
C3582 C3580 1.395 . S
C3582 C3585 1.403 . S
C3583 C3580 1.403 . S
C3583 C3584 1.524 . S
C3583 C3587 1.400 . S
C3584 H3569 0.960 . S
C3584 H3570 0.960 . S
C3584 H3571 0.960 . S
C3584 C3583 1.524 . S
C3585 C3582 1.403 . S
C3585 C3586 1.392 . S
C3585 C3589 1.495 . S
C3586 C3585 1.392 . S
C3586 C3587 1.385 . S
C3586 C3588 1.478 . S
C3587 H3581 0.930 . S
C3587 C3583 1.400 . S
C3587 C3586 1.385 . S
C3588 C3586 1.478 . S
C3588 C3590 1.381 . S
C3588 C3594 1.383 . S
C3589 C3585 1.495 . S
C3589 H3595 0.959 . S
C3589 H3596 0.961 . S
C3589 H3597 0.960 . S
C3590 C3588 1.381 . S
C3590 C3591 1.394 . S
C3590 H3598 0.930 . S
C3591 C3590 1.394 . S
C3591 C3592 1.383 . S
C3591 H3599 0.929 . S
C3592 C3591 1.383 . S
C3592 C3593 1.377 . S
C3593 H3577 0.930 . S
C3593 C3592 1.377 . S
C3593 C3594 1.379 . S
C3594 H3578 0.931 . S
C3594 C3588 1.383 . S
C3594 C3593 1.379 . S
H3595 C3589 0.959 . S
H3596 C3589 0.961 . S
H3597 C3589 0.960 . S
H3598 C3590 0.930 . S
H3599 C3591 0.929 . S
H3600 C3608 0.929 . S
H3601 C3610 0.930 . S
H3602 C3612 0.930 . S
H3603 C3615 0.929 . S
H3604 C3618 0.930 . S
H3605 C3620 0.960 . S
H3606 C3620 0.960 . S
H3607 C3620 0.960 . S
C3608 H3600 0.929 . S
C3608 C3609 1.377 . S
C3608 C3610 1.384 . S
C3609 C3608 1.377 . S
C3609 C3615 1.390 . S
C3610 H3601 0.930 . S
C3610 C3608 1.384 . S
C3610 C3611 1.372 . S
C3611 C3610 1.372 . S
C3611 C3612 1.400 . S
C3611 C3616 1.490 . S
C3612 H3602 0.930 . S
C3612 C3611 1.400 . S
C3612 C3615 1.386 . S
H3613 C3629 0.930 . S
H3614 C3630 0.931 . S
C3615 H3603 0.929 . S
C3615 C3609 1.390 . S
C3615 C3612 1.386 . S
C3616 C3611 1.490 . S
C3616 C3618 1.395 . S
C3616 C3619 1.403 . S
H3617 C3623 0.930 . S
C3618 H3604 0.930 . S
C3618 C3616 1.395 . S
C3618 C3621 1.403 . S
C3619 C3616 1.403 . S
C3619 C3620 1.524 . S
C3619 C3623 1.400 . S
C3620 H3605 0.960 . S
C3620 H3606 0.960 . S
C3620 H3607 0.960 . S
C3620 C3619 1.524 . S
C3621 C3618 1.403 . S
C3621 C3622 1.392 . S
C3621 C3625 1.495 . S
C3622 C3621 1.392 . S
C3622 C3623 1.385 . S
C3622 C3624 1.478 . S
C3623 H3617 0.930 . S
C3623 C3619 1.400 . S
C3623 C3622 1.385 . S
C3624 C3622 1.478 . S
C3624 C3626 1.381 . S
C3624 C3630 1.383 . S
C3625 C3621 1.495 . S
C3625 H3631 0.959 . S
C3625 H3632 0.961 . S
C3625 H3633 0.960 . S
C3626 C3624 1.381 . S
C3626 C3627 1.394 . S
C3626 H3634 0.930 . S
C3627 C3626 1.394 . S
C3627 C3628 1.383 . S
C3627 H3635 0.929 . S
C3628 C3627 1.383 . S
C3628 C3629 1.377 . S
C3629 H3613 0.930 . S
C3629 C3628 1.377 . S
C3629 C3630 1.379 . S
C3630 H3614 0.931 . S
C3630 C3624 1.383 . S
C3630 C3629 1.379 . S
H3631 C3625 0.959 . S
H3632 C3625 0.961 . S
H3633 C3625 0.960 . S
H3634 C3626 0.930 . S
H3635 C3627 0.929 . S
H3636 C3644 0.929 . S
H3637 C3646 0.930 . S
H3638 C3648 0.930 . S
H3639 C3651 0.929 . S
H3640 C3654 0.930 . S
H3641 C3656 0.960 . S
H3642 C3656 0.960 . S
H3643 C3656 0.960 . S
C3644 H3636 0.929 . S
C3644 C3645 1.377 . S
C3644 C3646 1.384 . S
C3645 C3644 1.377 . S
C3645 C3651 1.390 . S
C3646 H3637 0.930 . S
C3646 C3644 1.384 . S
C3646 C3647 1.372 . S
C3647 C3646 1.372 . S
C3647 C3648 1.400 . S
C3647 C3652 1.490 . S
C3648 H3638 0.930 . S
C3648 C3647 1.400 . S
C3648 C3651 1.386 . S
H3649 C3665 0.930 . S
H3650 C3666 0.931 . S
C3651 H3639 0.929 . S
C3651 C3645 1.390 . S
C3651 C3648 1.386 . S
C3652 C3647 1.490 . S
C3652 C3654 1.395 . S
C3652 C3655 1.403 . S
H3653 C3659 0.930 . S
C3654 H3640 0.930 . S
C3654 C3652 1.395 . S
C3654 C3657 1.403 . S
C3655 C3652 1.403 . S
C3655 C3656 1.524 . S
C3655 C3659 1.400 . S
C3656 H3641 0.960 . S
C3656 H3642 0.960 . S
C3656 H3643 0.960 . S
C3656 C3655 1.524 . S
C3657 C3654 1.403 . S
C3657 C3658 1.392 . S
C3657 C3661 1.495 . S
C3658 C3657 1.392 . S
C3658 C3659 1.385 . S
C3658 C3660 1.478 . S
C3659 H3653 0.930 . S
C3659 C3655 1.400 . S
C3659 C3658 1.385 . S
C3660 C3658 1.478 . S
C3660 C3662 1.381 . S
C3660 C3666 1.383 . S
C3661 C3657 1.495 . S
C3661 H3667 0.959 . S
C3661 H3668 0.961 . S
C3661 H3669 0.960 . S
C3662 C3660 1.381 . S
C3662 C3663 1.394 . S
C3662 H3670 0.930 . S
C3663 C3662 1.394 . S
C3663 C3664 1.383 . S
C3663 H3671 0.929 . S
C3664 C3663 1.383 . S
C3664 C3665 1.377 . S
C3665 H3649 0.930 . S
C3665 C3664 1.377 . S
C3665 C3666 1.379 . S
C3666 H3650 0.931 . S
C3666 C3660 1.383 . S
C3666 C3665 1.379 . S
H3667 C3661 0.959 . S
H3668 C3661 0.961 . S
H3669 C3661 0.960 . S
H3670 C3662 0.930 . S
H3671 C3663 0.929 . S
H3672 C3680 0.929 . S
H3673 C3682 0.930 . S
H3674 C3684 0.930 . S
H3675 C3687 0.929 . S
H3676 C3690 0.930 . S
H3677 C3692 0.960 . S
H3678 C3692 0.960 . S
H3679 C3692 0.960 . S
C3680 H3672 0.929 . S
C3680 C3681 1.377 . S
C3680 C3682 1.384 . S
C3681 C3680 1.377 . S
C3681 C3687 1.390 . S
C3682 H3673 0.930 . S
C3682 C3680 1.384 . S
C3682 C3683 1.372 . S
C3683 C3682 1.372 . S
C3683 C3684 1.400 . S
C3683 C3688 1.490 . S
C3684 H3674 0.930 . S
C3684 C3683 1.400 . S
C3684 C3687 1.386 . S
H3685 C3701 0.930 . S
H3686 C3702 0.931 . S
C3687 H3675 0.929 . S
C3687 C3681 1.390 . S
C3687 C3684 1.386 . S
C3688 C3683 1.490 . S
C3688 C3690 1.395 . S
C3688 C3691 1.403 . S
H3689 C3695 0.930 . S
C3690 H3676 0.930 . S
C3690 C3688 1.395 . S
C3690 C3693 1.403 . S
C3691 C3688 1.403 . S
C3691 C3692 1.524 . S
C3691 C3695 1.400 . S
C3692 H3677 0.960 . S
C3692 H3678 0.960 . S
C3692 H3679 0.960 . S
C3692 C3691 1.524 . S
C3693 C3690 1.403 . S
C3693 C3694 1.392 . S
C3693 C3697 1.495 . S
C3694 C3693 1.392 . S
C3694 C3695 1.385 . S
C3694 C3696 1.478 . S
C3695 H3689 0.930 . S
C3695 C3691 1.400 . S
C3695 C3694 1.385 . S
C3696 C3694 1.478 . S
C3696 C3698 1.381 . S
C3696 C3702 1.383 . S
C3697 C3693 1.495 . S
C3697 H3703 0.959 . S
C3697 H3704 0.961 . S
C3697 H3705 0.960 . S
C3698 C3696 1.381 . S
C3698 C3699 1.394 . S
C3698 H3706 0.930 . S
C3699 C3698 1.394 . S
C3699 C3700 1.383 . S
C3699 H3707 0.929 . S
C3700 C3699 1.383 . S
C3700 C3701 1.377 . S
C3701 H3685 0.930 . S
C3701 C3700 1.377 . S
C3701 C3702 1.379 . S
C3702 H3686 0.931 . S
C3702 C3696 1.383 . S
C3702 C3701 1.379 . S
H3703 C3697 0.959 . S
H3704 C3697 0.961 . S
H3705 C3697 0.960 . S
H3706 C3698 0.930 . S
H3707 C3699 0.929 . S
H3708 C3716 0.929 . S
H3709 C3718 0.930 . S
H3710 C3720 0.930 . S
H3711 C3723 0.929 . S
H3712 C3726 0.930 . S
H3713 C3728 0.960 . S
H3714 C3728 0.960 . S
H3715 C3728 0.960 . S
C3716 H3708 0.929 . S
C3716 C3717 1.377 . S
C3716 C3718 1.384 . S
C3717 C3716 1.377 . S
C3717 C3723 1.390 . S
C3718 H3709 0.930 . S
C3718 C3716 1.384 . S
C3718 C3719 1.372 . S
C3719 C3718 1.372 . S
C3719 C3720 1.400 . S
C3719 C3724 1.490 . S
C3720 H3710 0.930 . S
C3720 C3719 1.400 . S
C3720 C3723 1.386 . S
H3721 C3737 0.930 . S
H3722 C3738 0.931 . S
C3723 H3711 0.929 . S
C3723 C3717 1.390 . S
C3723 C3720 1.386 . S
C3724 C3719 1.490 . S
C3724 C3726 1.395 . S
C3724 C3727 1.403 . S
H3725 C3731 0.930 . S
C3726 H3712 0.930 . S
C3726 C3724 1.395 . S
C3726 C3729 1.403 . S
C3727 C3724 1.403 . S
C3727 C3728 1.524 . S
C3727 C3731 1.400 . S
C3728 H3713 0.960 . S
C3728 H3714 0.960 . S
C3728 H3715 0.960 . S
C3728 C3727 1.524 . S
C3729 C3726 1.403 . S
C3729 C3730 1.392 . S
C3729 C3733 1.495 . S
C3730 C3729 1.392 . S
C3730 C3731 1.385 . S
C3730 C3732 1.478 . S
C3731 H3725 0.930 . S
C3731 C3727 1.400 . S
C3731 C3730 1.385 . S
C3732 C3730 1.478 . S
C3732 C3734 1.381 . S
C3732 C3738 1.383 . S
C3733 C3729 1.495 . S
C3733 H3739 0.959 . S
C3733 H3740 0.961 . S
C3733 H3741 0.960 . S
C3734 C3732 1.381 . S
C3734 C3735 1.394 . S
C3734 H3742 0.930 . S
C3735 C3734 1.394 . S
C3735 C3736 1.383 . S
C3735 H3743 0.929 . S
C3736 C3735 1.383 . S
C3736 C3737 1.377 . S
C3737 H3721 0.930 . S
C3737 C3736 1.377 . S
C3737 C3738 1.379 . S
C3738 H3722 0.931 . S
C3738 C3732 1.383 . S
C3738 C3737 1.379 . S
H3739 C3733 0.959 . S
H3740 C3733 0.961 . S
H3741 C3733 0.960 . S
H3742 C3734 0.930 . S
H3743 C3735 0.929 . S
H3744 C3752 0.929 . S
H3745 C3754 0.930 . S
H3746 C3756 0.930 . S
H3747 C3759 0.929 . S
H3748 C3762 0.930 . S
H3749 C3764 0.960 . S
H3750 C3764 0.960 . S
H3751 C3764 0.960 . S
C3752 H3744 0.929 . S
C3752 C3753 1.377 . S
C3752 C3754 1.384 . S
C3753 C3752 1.377 . S
C3753 C3759 1.390 . S
C3754 H3745 0.930 . S
C3754 C3752 1.384 . S
C3754 C3755 1.372 . S
C3755 C3754 1.372 . S
C3755 C3756 1.400 . S
C3755 C3760 1.490 . S
C3756 H3746 0.930 . S
C3756 C3755 1.400 . S
C3756 C3759 1.386 . S
H3757 C3773 0.930 . S
H3758 C3774 0.931 . S
C3759 H3747 0.929 . S
C3759 C3753 1.390 . S
C3759 C3756 1.386 . S
C3760 C3755 1.490 . S
C3760 C3762 1.395 . S
C3760 C3763 1.403 . S
H3761 C3767 0.930 . S
C3762 H3748 0.930 . S
C3762 C3760 1.395 . S
C3762 C3765 1.403 . S
C3763 C3760 1.403 . S
C3763 C3764 1.524 . S
C3763 C3767 1.400 . S
C3764 H3749 0.960 . S
C3764 H3750 0.960 . S
C3764 H3751 0.960 . S
C3764 C3763 1.524 . S
C3765 C3762 1.403 . S
C3765 C3766 1.392 . S
C3765 C3769 1.495 . S
C3766 C3765 1.392 . S
C3766 C3767 1.385 . S
C3766 C3768 1.478 . S
C3767 H3761 0.930 . S
C3767 C3763 1.400 . S
C3767 C3766 1.385 . S
C3768 C3766 1.478 . S
C3768 C3770 1.381 . S
C3768 C3774 1.383 . S
C3769 C3765 1.495 . S
C3769 H3775 0.959 . S
C3769 H3776 0.961 . S
C3769 H3777 0.960 . S
C3770 C3768 1.381 . S
C3770 C3771 1.394 . S
C3770 H3778 0.930 . S
C3771 C3770 1.394 . S
C3771 C3772 1.383 . S
C3771 H3779 0.929 . S
C3772 C3771 1.383 . S
C3772 C3773 1.377 . S
C3773 H3757 0.930 . S
C3773 C3772 1.377 . S
C3773 C3774 1.379 . S
C3774 H3758 0.931 . S
C3774 C3768 1.383 . S
C3774 C3773 1.379 . S
H3775 C3769 0.959 . S
H3776 C3769 0.961 . S
H3777 C3769 0.960 . S
H3778 C3770 0.930 . S
H3779 C3771 0.929 . S
H3780 C3788 0.929 . S
H3781 C3790 0.930 . S
H3782 C3792 0.930 . S
H3783 C3795 0.929 . S
H3784 C3798 0.930 . S
H3785 C3800 0.960 . S
H3786 C3800 0.960 . S
H3787 C3800 0.960 . S
C3788 H3780 0.929 . S
C3788 C3789 1.377 . S
C3788 C3790 1.384 . S
C3789 C3788 1.377 . S
C3789 C3795 1.390 . S
C3790 H3781 0.930 . S
C3790 C3788 1.384 . S
C3790 C3791 1.372 . S
C3791 C3790 1.372 . S
C3791 C3792 1.400 . S
C3791 C3796 1.490 . S
C3792 H3782 0.930 . S
C3792 C3791 1.400 . S
C3792 C3795 1.386 . S
H3793 C3809 0.930 . S
H3794 C3810 0.931 . S
C3795 H3783 0.929 . S
C3795 C3789 1.390 . S
C3795 C3792 1.386 . S
C3796 C3791 1.490 . S
C3796 C3798 1.395 . S
C3796 C3799 1.403 . S
H3797 C3803 0.930 . S
C3798 H3784 0.930 . S
C3798 C3796 1.395 . S
C3798 C3801 1.403 . S
C3799 C3796 1.403 . S
C3799 C3800 1.524 . S
C3799 C3803 1.400 . S
C3800 H3785 0.960 . S
C3800 H3786 0.960 . S
C3800 H3787 0.960 . S
C3800 C3799 1.524 . S
C3801 C3798 1.403 . S
C3801 C3802 1.392 . S
C3801 C3805 1.495 . S
C3802 C3801 1.392 . S
C3802 C3803 1.385 . S
C3802 C3804 1.478 . S
C3803 H3797 0.930 . S
C3803 C3799 1.400 . S
C3803 C3802 1.385 . S
C3804 C3802 1.478 . S
C3804 C3806 1.381 . S
C3804 C3810 1.383 . S
C3805 C3801 1.495 . S
C3805 H3811 0.959 . S
C3805 H3812 0.961 . S
C3805 H3813 0.960 . S
C3806 C3804 1.381 . S
C3806 C3807 1.394 . S
C3806 H3814 0.930 . S
C3807 C3806 1.394 . S
C3807 C3808 1.383 . S
C3807 H3815 0.929 . S
C3808 C3807 1.383 . S
C3808 C3809 1.377 . S
C3809 H3793 0.930 . S
C3809 C3808 1.377 . S
C3809 C3810 1.379 . S
C3810 H3794 0.931 . S
C3810 C3804 1.383 . S
C3810 C3809 1.379 . S
H3811 C3805 0.959 . S
H3812 C3805 0.961 . S
H3813 C3805 0.960 . S
H3814 C3806 0.930 . S
H3815 C3807 0.929 . S
H3816 C3824 0.929 . S
H3817 C3826 0.930 . S
H3818 C3828 0.930 . S
H3819 C3831 0.929 . S
H3820 C3834 0.930 . S
H3821 C3836 0.960 . S
H3822 C3836 0.960 . S
H3823 C3836 0.960 . S
C3824 H3816 0.929 . S
C3824 C3825 1.377 . S
C3824 C3826 1.384 . S
C3825 C3824 1.377 . S
C3825 C3831 1.390 . S
C3826 H3817 0.930 . S
C3826 C3824 1.384 . S
C3826 C3827 1.372 . S
C3827 C3826 1.372 . S
C3827 C3828 1.400 . S
C3827 C3832 1.490 . S
C3828 H3818 0.930 . S
C3828 C3827 1.400 . S
C3828 C3831 1.386 . S
H3829 C3845 0.930 . S
H3830 C3846 0.931 . S
C3831 H3819 0.929 . S
C3831 C3825 1.390 . S
C3831 C3828 1.386 . S
C3832 C3827 1.490 . S
C3832 C3834 1.395 . S
C3832 C3835 1.403 . S
H3833 C3839 0.930 . S
C3834 H3820 0.930 . S
C3834 C3832 1.395 . S
C3834 C3837 1.403 . S
C3835 C3832 1.403 . S
C3835 C3836 1.524 . S
C3835 C3839 1.400 . S
C3836 H3821 0.960 . S
C3836 H3822 0.960 . S
C3836 H3823 0.960 . S
C3836 C3835 1.524 . S
C3837 C3834 1.403 . S
C3837 C3838 1.392 . S
C3837 C3841 1.495 . S
C3838 C3837 1.392 . S
C3838 C3839 1.385 . S
C3838 C3840 1.478 . S
C3839 H3833 0.930 . S
C3839 C3835 1.400 . S
C3839 C3838 1.385 . S
C3840 C3838 1.478 . S
C3840 C3842 1.381 . S
C3840 C3846 1.383 . S
C3841 C3837 1.495 . S
C3841 H3847 0.959 . S
C3841 H3848 0.961 . S
C3841 H3849 0.960 . S
C3842 C3840 1.381 . S
C3842 C3843 1.394 . S
C3842 H3850 0.930 . S
C3843 C3842 1.394 . S
C3843 C3844 1.383 . S
C3843 H3851 0.929 . S
C3844 C3843 1.383 . S
C3844 C3845 1.377 . S
C3845 H3829 0.930 . S
C3845 C3844 1.377 . S
C3845 C3846 1.379 . S
C3846 H3830 0.931 . S
C3846 C3840 1.383 . S
C3846 C3845 1.379 . S
H3847 C3841 0.959 . S
H3848 C3841 0.961 . S
H3849 C3841 0.960 . S
H3850 C3842 0.930 . S
H3851 C3843 0.929 . S
H3852 C3860 0.929 . S
H3853 C3862 0.930 . S
H3854 C3864 0.930 . S
H3855 C3867 0.929 . S
H3856 C3870 0.930 . S
H3857 C3872 0.960 . S
H3858 C3872 0.960 . S
H3859 C3872 0.960 . S
C3860 H3852 0.929 . S
C3860 C3861 1.377 . S
C3860 C3862 1.384 . S
C3861 C3860 1.377 . S
C3861 C3867 1.390 . S
C3862 H3853 0.930 . S
C3862 C3860 1.384 . S
C3862 C3863 1.372 . S
C3863 C3862 1.372 . S
C3863 C3864 1.400 . S
C3863 C3868 1.490 . S
C3864 H3854 0.930 . S
C3864 C3863 1.400 . S
C3864 C3867 1.386 . S
H3865 C3881 0.930 . S
H3866 C3882 0.931 . S
C3867 H3855 0.929 . S
C3867 C3861 1.390 . S
C3867 C3864 1.386 . S
C3868 C3863 1.490 . S
C3868 C3870 1.395 . S
C3868 C3871 1.403 . S
H3869 C3875 0.930 . S
C3870 H3856 0.930 . S
C3870 C3868 1.395 . S
C3870 C3873 1.403 . S
C3871 C3868 1.403 . S
C3871 C3872 1.524 . S
C3871 C3875 1.400 . S
C3872 H3857 0.960 . S
C3872 H3858 0.960 . S
C3872 H3859 0.960 . S
C3872 C3871 1.524 . S
C3873 C3870 1.403 . S
C3873 C3874 1.392 . S
C3873 C3877 1.495 . S
C3874 C3873 1.392 . S
C3874 C3875 1.385 . S
C3874 C3876 1.478 . S
C3875 H3869 0.930 . S
C3875 C3871 1.400 . S
C3875 C3874 1.385 . S
C3876 C3874 1.478 . S
C3876 C3878 1.381 . S
C3876 C3882 1.383 . S
C3877 C3873 1.495 . S
C3877 H3883 0.959 . S
C3877 H3884 0.961 . S
C3877 H3885 0.960 . S
C3878 C3876 1.381 . S
C3878 C3879 1.394 . S
C3878 H3886 0.930 . S
C3879 C3878 1.394 . S
C3879 C3880 1.383 . S
C3879 H3887 0.929 . S
C3880 C3879 1.383 . S
C3880 C3881 1.377 . S
C3881 H3865 0.930 . S
C3881 C3880 1.377 . S
C3881 C3882 1.379 . S
C3882 H3866 0.931 . S
C3882 C3876 1.383 . S
C3882 C3881 1.379 . S
H3883 C3877 0.959 . S
H3884 C3877 0.961 . S
H3885 C3877 0.960 . S
H3886 C3878 0.930 . S
H3887 C3879 0.929 . S
H3888 C3896 0.929 . S
H3889 C3898 0.930 . S
H3890 C3900 0.930 . S
H3891 C3903 0.929 . S
H3892 C3906 0.930 . S
H3893 C3908 0.960 . S
H3894 C3908 0.960 . S
H3895 C3908 0.960 . S
C3896 H3888 0.929 . S
C3896 C3897 1.377 . S
C3896 C3898 1.384 . S
C3897 C3896 1.377 . S
C3897 C3903 1.390 . S
C3898 H3889 0.930 . S
C3898 C3896 1.384 . S
C3898 C3899 1.372 . S
C3899 C3898 1.372 . S
C3899 C3900 1.400 . S
C3899 C3904 1.490 . S
C3900 H3890 0.930 . S
C3900 C3899 1.400 . S
C3900 C3903 1.386 . S
H3901 C3917 0.930 . S
H3902 C3918 0.931 . S
C3903 H3891 0.929 . S
C3903 C3897 1.390 . S
C3903 C3900 1.386 . S
C3904 C3899 1.490 . S
C3904 C3906 1.395 . S
C3904 C3907 1.403 . S
H3905 C3911 0.930 . S
C3906 H3892 0.930 . S
C3906 C3904 1.395 . S
C3906 C3909 1.403 . S
C3907 C3904 1.403 . S
C3907 C3908 1.524 . S
C3907 C3911 1.400 . S
C3908 H3893 0.960 . S
C3908 H3894 0.960 . S
C3908 H3895 0.960 . S
C3908 C3907 1.524 . S
C3909 C3906 1.403 . S
C3909 C3910 1.392 . S
C3909 C3913 1.495 . S
C3910 C3909 1.392 . S
C3910 C3911 1.385 . S
C3910 C3912 1.478 . S
C3911 H3905 0.930 . S
C3911 C3907 1.400 . S
C3911 C3910 1.385 . S
C3912 C3910 1.478 . S
C3912 C3914 1.381 . S
C3912 C3918 1.383 . S
C3913 C3909 1.495 . S
C3913 H3919 0.959 . S
C3913 H3920 0.961 . S
C3913 H3921 0.960 . S
C3914 C3912 1.381 . S
C3914 C3915 1.394 . S
C3914 H3922 0.930 . S
C3915 C3914 1.394 . S
C3915 C3916 1.383 . S
C3915 H3923 0.929 . S
C3916 C3915 1.383 . S
C3916 C3917 1.377 . S
C3917 H3901 0.930 . S
C3917 C3916 1.377 . S
C3917 C3918 1.379 . S
C3918 H3902 0.931 . S
C3918 C3912 1.383 . S
C3918 C3917 1.379 . S
H3919 C3913 0.959 . S
H3920 C3913 0.961 . S
H3921 C3913 0.960 . S
H3922 C3914 0.930 . S
H3923 C3915 0.929 . S
H3924 C3932 0.929 . S
H3925 C3934 0.930 . S
H3926 C3936 0.930 . S
H3927 C3939 0.929 . S
H3928 C3942 0.930 . S
H3929 C3944 0.960 . S
H3930 C3944 0.960 . S
H3931 C3944 0.960 . S
C3932 H3924 0.929 . S
C3932 C3933 1.377 . S
C3932 C3934 1.384 . S
C3933 C3932 1.377 . S
C3933 C3939 1.390 . S
C3934 H3925 0.930 . S
C3934 C3932 1.384 . S
C3934 C3935 1.372 . S
C3935 C3934 1.372 . S
C3935 C3936 1.400 . S
C3935 C3940 1.490 . S
C3936 H3926 0.930 . S
C3936 C3935 1.400 . S
C3936 C3939 1.386 . S
H3937 C3953 0.930 . S
H3938 C3954 0.931 . S
C3939 H3927 0.929 . S
C3939 C3933 1.390 . S
C3939 C3936 1.386 . S
C3940 C3935 1.490 . S
C3940 C3942 1.395 . S
C3940 C3943 1.403 . S
H3941 C3947 0.930 . S
C3942 H3928 0.930 . S
C3942 C3940 1.395 . S
C3942 C3945 1.403 . S
C3943 C3940 1.403 . S
C3943 C3944 1.524 . S
C3943 C3947 1.400 . S
C3944 H3929 0.960 . S
C3944 H3930 0.960 . S
C3944 H3931 0.960 . S
C3944 C3943 1.524 . S
C3945 C3942 1.403 . S
C3945 C3946 1.392 . S
C3945 C3949 1.495 . S
C3946 C3945 1.392 . S
C3946 C3947 1.385 . S
C3946 C3948 1.478 . S
C3947 H3941 0.930 . S
C3947 C3943 1.400 . S
C3947 C3946 1.385 . S
C3948 C3946 1.478 . S
C3948 C3950 1.381 . S
C3948 C3954 1.383 . S
C3949 C3945 1.495 . S
C3949 H3955 0.959 . S
C3949 H3956 0.961 . S
C3949 H3957 0.960 . S
C3950 C3948 1.381 . S
C3950 C3951 1.394 . S
C3950 H3958 0.930 . S
C3951 C3950 1.394 . S
C3951 C3952 1.383 . S
C3951 H3959 0.929 . S
C3952 C3951 1.383 . S
C3952 C3953 1.377 . S
C3953 H3937 0.930 . S
C3953 C3952 1.377 . S
C3953 C3954 1.379 . S
C3954 H3938 0.931 . S
C3954 C3948 1.383 . S
C3954 C3953 1.379 . S
H3955 C3949 0.959 . S
H3956 C3949 0.961 . S
H3957 C3949 0.960 . S
H3958 C3950 0.930 . S
H3959 C3951 0.929 . S
H3960 C3968 0.929 . S
H3961 C3970 0.930 . S
H3962 C3972 0.930 . S
H3963 C3975 0.929 . S
H3964 C3978 0.930 . S
H3965 C3980 0.960 . S
H3966 C3980 0.960 . S
H3967 C3980 0.960 . S
C3968 H3960 0.929 . S
C3968 C3969 1.377 . S
C3968 C3970 1.384 . S
C3969 C3968 1.377 . S
C3969 C3975 1.390 . S
C3970 H3961 0.930 . S
C3970 C3968 1.384 . S
C3970 C3971 1.372 . S
C3971 C3970 1.372 . S
C3971 C3972 1.400 . S
C3971 C3976 1.490 . S
C3972 H3962 0.930 . S
C3972 C3971 1.400 . S
C3972 C3975 1.386 . S
H3973 C3989 0.930 . S
H3974 C3990 0.931 . S
C3975 H3963 0.929 . S
C3975 C3969 1.390 . S
C3975 C3972 1.386 . S
C3976 C3971 1.490 . S
C3976 C3978 1.395 . S
C3976 C3979 1.403 . S
H3977 C3983 0.930 . S
C3978 H3964 0.930 . S
C3978 C3976 1.395 . S
C3978 C3981 1.403 . S
C3979 C3976 1.403 . S
C3979 C3980 1.524 . S
C3979 C3983 1.400 . S
C3980 H3965 0.960 . S
C3980 H3966 0.960 . S
C3980 H3967 0.960 . S
C3980 C3979 1.524 . S
C3981 C3978 1.403 . S
C3981 C3982 1.392 . S
C3981 C3985 1.495 . S
C3982 C3981 1.392 . S
C3982 C3983 1.385 . S
C3982 C3984 1.478 . S
C3983 H3977 0.930 . S
C3983 C3979 1.400 . S
C3983 C3982 1.385 . S
C3984 C3982 1.478 . S
C3984 C3986 1.381 . S
C3984 C3990 1.383 . S
C3985 C3981 1.495 . S
C3985 H3991 0.959 . S
C3985 H3992 0.961 . S
C3985 H3993 0.960 . S
C3986 C3984 1.381 . S
C3986 C3987 1.394 . S
C3986 H3994 0.930 . S
C3987 C3986 1.394 . S
C3987 C3988 1.383 . S
C3987 H3995 0.929 . S
C3988 C3987 1.383 . S
C3988 C3989 1.377 . S
C3989 H3973 0.930 . S
C3989 C3988 1.377 . S
C3989 C3990 1.379 . S
C3990 H3974 0.931 . S
C3990 C3984 1.383 . S
C3990 C3989 1.379 . S
H3991 C3985 0.959 . S
H3992 C3985 0.961 . S
H3993 C3985 0.960 . S
H3994 C3986 0.930 . S
H3995 C3987 0.929 . S
H3996 C4004 0.929 . S
H3997 C4006 0.930 . S
H3998 C4008 0.930 . S
H3999 C4011 0.929 . S
H4000 C4014 0.930 . S
H4001 C4016 0.960 . S
H4002 C4016 0.960 . S
H4003 C4016 0.960 . S
C4004 H3996 0.929 . S
C4004 C4005 1.377 . S
C4004 C4006 1.384 . S
C4005 C4004 1.377 . S
C4005 C4011 1.390 . S
C4006 H3997 0.930 . S
C4006 C4004 1.384 . S
C4006 C4007 1.372 . S
C4007 C4006 1.372 . S
C4007 C4008 1.400 . S
C4007 C4012 1.490 . S
C4008 H3998 0.930 . S
C4008 C4007 1.400 . S
C4008 C4011 1.386 . S
H4009 C4025 0.930 . S
H4010 C4026 0.931 . S
C4011 H3999 0.929 . S
C4011 C4005 1.390 . S
C4011 C4008 1.386 . S
C4012 C4007 1.490 . S
C4012 C4014 1.395 . S
C4012 C4015 1.403 . S
H4013 C4019 0.930 . S
C4014 H4000 0.930 . S
C4014 C4012 1.395 . S
C4014 C4017 1.403 . S
C4015 C4012 1.403 . S
C4015 C4016 1.524 . S
C4015 C4019 1.400 . S
C4016 H4001 0.960 . S
C4016 H4002 0.960 . S
C4016 H4003 0.960 . S
C4016 C4015 1.524 . S
C4017 C4014 1.403 . S
C4017 C4018 1.392 . S
C4017 C4021 1.495 . S
C4018 C4017 1.392 . S
C4018 C4019 1.385 . S
C4018 C4020 1.478 . S
C4019 H4013 0.930 . S
C4019 C4015 1.400 . S
C4019 C4018 1.385 . S
C4020 C4018 1.478 . S
C4020 C4022 1.381 . S
C4020 C4026 1.383 . S
C4021 C4017 1.495 . S
C4021 H4027 0.959 . S
C4021 H4028 0.961 . S
C4021 H4029 0.960 . S
C4022 C4020 1.381 . S
C4022 C4023 1.394 . S
C4022 H4030 0.930 . S
C4023 C4022 1.394 . S
C4023 C4024 1.383 . S
C4023 H4031 0.929 . S
C4024 C4023 1.383 . S
C4024 C4025 1.377 . S
C4025 H4009 0.930 . S
C4025 C4024 1.377 . S
C4025 C4026 1.379 . S
C4026 H4010 0.931 . S
C4026 C4020 1.383 . S
C4026 C4025 1.379 . S
H4027 C4021 0.959 . S
H4028 C4021 0.961 . S
H4029 C4021 0.960 . S
H4030 C4022 0.930 . S
H4031 C4023 0.929 . S
H4032 C4040 0.929 . S
H4033 C4042 0.930 . S
H4034 C4044 0.930 . S
H4035 C4047 0.929 . S
H4036 C4050 0.930 . S
H4037 C4052 0.960 . S
H4038 C4052 0.960 . S
H4039 C4052 0.960 . S
C4040 H4032 0.929 . S
C4040 C4041 1.377 . S
C4040 C4042 1.384 . S
C4041 C4040 1.377 . S
C4041 C4047 1.390 . S
C4042 H4033 0.930 . S
C4042 C4040 1.384 . S
C4042 C4043 1.372 . S
C4043 C4042 1.372 . S
C4043 C4044 1.400 . S
C4043 C4048 1.490 . S
C4044 H4034 0.930 . S
C4044 C4043 1.400 . S
C4044 C4047 1.386 . S
H4045 C4061 0.930 . S
H4046 C4062 0.931 . S
C4047 H4035 0.929 . S
C4047 C4041 1.390 . S
C4047 C4044 1.386 . S
C4048 C4043 1.490 . S
C4048 C4050 1.395 . S
C4048 C4051 1.403 . S
H4049 C4055 0.930 . S
C4050 H4036 0.930 . S
C4050 C4048 1.395 . S
C4050 C4053 1.403 . S
C4051 C4048 1.403 . S
C4051 C4052 1.524 . S
C4051 C4055 1.400 . S
C4052 H4037 0.960 . S
C4052 H4038 0.960 . S
C4052 H4039 0.960 . S
C4052 C4051 1.524 . S
C4053 C4050 1.403 . S
C4053 C4054 1.392 . S
C4053 C4057 1.495 . S
C4054 C4053 1.392 . S
C4054 C4055 1.385 . S
C4054 C4056 1.478 . S
C4055 H4049 0.930 . S
C4055 C4051 1.400 . S
C4055 C4054 1.385 . S
C4056 C4054 1.478 . S
C4056 C4058 1.381 . S
C4056 C4062 1.383 . S
C4057 C4053 1.495 . S
C4057 H4063 0.959 . S
C4057 H4064 0.961 . S
C4057 H4065 0.960 . S
C4058 C4056 1.381 . S
C4058 C4059 1.394 . S
C4058 H4066 0.930 . S
C4059 C4058 1.394 . S
C4059 C4060 1.383 . S
C4059 H4067 0.929 . S
C4060 C4059 1.383 . S
C4060 C4061 1.377 . S
C4061 H4045 0.930 . S
C4061 C4060 1.377 . S
C4061 C4062 1.379 . S
C4062 H4046 0.931 . S
C4062 C4056 1.383 . S
C4062 C4061 1.379 . S
H4063 C4057 0.959 . S
H4064 C4057 0.961 . S
H4065 C4057 0.960 . S
H4066 C4058 0.930 . S
H4067 C4059 0.929 . S
H4068 C4076 0.929 . S
H4069 C4078 0.930 . S
H4070 C4080 0.930 . S
H4071 C4083 0.929 . S
H4072 C4086 0.930 . S
H4073 C4088 0.960 . S
H4074 C4088 0.960 . S
H4075 C4088 0.960 . S
C4076 H4068 0.929 . S
C4076 C4077 1.377 . S
C4076 C4078 1.384 . S
C4077 C4076 1.377 . S
C4077 C4083 1.390 . S
C4078 H4069 0.930 . S
C4078 C4076 1.384 . S
C4078 C4079 1.372 . S
C4079 C4078 1.372 . S
C4079 C4080 1.400 . S
C4079 C4084 1.490 . S
C4080 H4070 0.930 . S
C4080 C4079 1.400 . S
C4080 C4083 1.386 . S
H4081 C4097 0.930 . S
H4082 C4098 0.931 . S
C4083 H4071 0.929 . S
C4083 C4077 1.390 . S
C4083 C4080 1.386 . S
C4084 C4079 1.490 . S
C4084 C4086 1.395 . S
C4084 C4087 1.403 . S
H4085 C4091 0.930 . S
C4086 H4072 0.930 . S
C4086 C4084 1.395 . S
C4086 C4089 1.403 . S
C4087 C4084 1.403 . S
C4087 C4088 1.524 . S
C4087 C4091 1.400 . S
C4088 H4073 0.960 . S
C4088 H4074 0.960 . S
C4088 H4075 0.960 . S
C4088 C4087 1.524 . S
C4089 C4086 1.403 . S
C4089 C4090 1.392 . S
C4089 C4093 1.495 . S
C4090 C4089 1.392 . S
C4090 C4091 1.385 . S
C4090 C4092 1.478 . S
C4091 H4085 0.930 . S
C4091 C4087 1.400 . S
C4091 C4090 1.385 . S
C4092 C4090 1.478 . S
C4092 C4094 1.381 . S
C4092 C4098 1.383 . S
C4093 C4089 1.495 . S
C4093 H4099 0.959 . S
C4093 H4100 0.961 . S
C4093 H4101 0.960 . S
C4094 C4092 1.381 . S
C4094 C4095 1.394 . S
C4094 H4102 0.930 . S
C4095 C4094 1.394 . S
C4095 C4096 1.383 . S
C4095 H4103 0.929 . S
C4096 C4095 1.383 . S
C4096 C4097 1.377 . S
C4097 H4081 0.930 . S
C4097 C4096 1.377 . S
C4097 C4098 1.379 . S
C4098 H4082 0.931 . S
C4098 C4092 1.383 . S
C4098 C4097 1.379 . S
H4099 C4093 0.959 . S
H4100 C4093 0.961 . S
H4101 C4093 0.960 . S
H4102 C4094 0.930 . S
H4103 C4095 0.929 . S
H4104 C4112 0.929 . S
H4105 C4114 0.930 . S
H4106 C4116 0.930 . S
H4107 C4119 0.929 . S
H4108 C4122 0.930 . S
H4109 C4124 0.960 . S
H4110 C4124 0.960 . S
H4111 C4124 0.960 . S
C4112 H4104 0.929 . S
C4112 C4113 1.377 . S
C4112 C4114 1.384 . S
C4113 C4112 1.377 . S
C4113 C4119 1.390 . S
C4114 H4105 0.930 . S
C4114 C4112 1.384 . S
C4114 C4115 1.372 . S
C4115 C4114 1.372 . S
C4115 C4116 1.400 . S
C4115 C4120 1.490 . S
C4116 H4106 0.930 . S
C4116 C4115 1.400 . S
C4116 C4119 1.386 . S
H4117 C4133 0.930 . S
H4118 C4134 0.931 . S
C4119 H4107 0.929 . S
C4119 C4113 1.390 . S
C4119 C4116 1.386 . S
C4120 C4115 1.490 . S
C4120 C4122 1.395 . S
C4120 C4123 1.403 . S
H4121 C4127 0.930 . S
C4122 H4108 0.930 . S
C4122 C4120 1.395 . S
C4122 C4125 1.403 . S
C4123 C4120 1.403 . S
C4123 C4124 1.524 . S
C4123 C4127 1.400 . S
C4124 H4109 0.960 . S
C4124 H4110 0.960 . S
C4124 H4111 0.960 . S
C4124 C4123 1.524 . S
C4125 C4122 1.403 . S
C4125 C4126 1.392 . S
C4125 C4129 1.495 . S
C4126 C4125 1.392 . S
C4126 C4127 1.385 . S
C4126 C4128 1.478 . S
C4127 H4121 0.930 . S
C4127 C4123 1.400 . S
C4127 C4126 1.385 . S
C4128 C4126 1.478 . S
C4128 C4130 1.381 . S
C4128 C4134 1.383 . S
C4129 C4125 1.495 . S
C4129 H4135 0.959 . S
C4129 H4136 0.961 . S
C4129 H4137 0.960 . S
C4130 C4128 1.381 . S
C4130 C4131 1.394 . S
C4130 H4138 0.930 . S
C4131 C4130 1.394 . S
C4131 C4132 1.383 . S
C4131 H4139 0.929 . S
C4132 C4131 1.383 . S
C4132 C4133 1.377 . S
C4133 H4117 0.930 . S
C4133 C4132 1.377 . S
C4133 C4134 1.379 . S
C4134 H4118 0.931 . S
C4134 C4128 1.383 . S
C4134 C4133 1.379 . S
H4135 C4129 0.959 . S
H4136 C4129 0.961 . S
H4137 C4129 0.960 . S
H4138 C4130 0.930 . S
H4139 C4131 0.929 . S
H4140 C4148 0.929 . S
H4141 C4150 0.930 . S
H4142 C4152 0.930 . S
H4143 C4155 0.929 . S
H4144 C4158 0.930 . S
H4145 C4160 0.960 . S
H4146 C4160 0.960 . S
H4147 C4160 0.960 . S
C4148 H4140 0.929 . S
C4148 C4149 1.377 . S
C4148 C4150 1.384 . S
C4149 C4148 1.377 . S
C4149 C4155 1.390 . S
C4150 H4141 0.930 . S
C4150 C4148 1.384 . S
C4150 C4151 1.372 . S
C4151 C4150 1.372 . S
C4151 C4152 1.400 . S
C4151 C4156 1.490 . S
C4152 H4142 0.930 . S
C4152 C4151 1.400 . S
C4152 C4155 1.386 . S
H4153 C4169 0.930 . S
H4154 C4170 0.931 . S
C4155 H4143 0.929 . S
C4155 C4149 1.390 . S
C4155 C4152 1.386 . S
C4156 C4151 1.490 . S
C4156 C4158 1.395 1_455 S
C4156 C4159 1.403 . S
H4157 C4163 0.930 . S
C4158 H4144 0.930 . S
C4158 C4156 1.395 1_655 S
C4158 C4161 1.403 . S
C4159 C4156 1.403 . S
C4159 C4160 1.524 . S
C4159 C4163 1.400 . S
C4160 H4145 0.960 . S
C4160 H4146 0.960 . S
C4160 H4147 0.960 . S
C4160 C4159 1.524 . S
C4161 C4158 1.403 . S
C4161 C4162 1.392 1_655 S
C4161 C4165 1.495 . S
C4162 C4161 1.392 1_455 S
C4162 C4163 1.385 . S
C4162 C4164 1.478 . S
C4163 H4157 0.930 . S
C4163 C4159 1.400 . S
C4163 C4162 1.385 . S
C4164 C4162 1.478 . S
C4164 C4166 1.381 . S
C4164 C4170 1.383 . S
C4165 C4161 1.495 . S
C4165 H4171 0.959 . S
C4165 H4172 0.961 . S
C4165 H4173 0.960 . S
C4166 C4164 1.381 . S
C4166 C4167 1.394 . S
C4166 H4174 0.930 . S
C4167 C4166 1.394 . S
C4167 C4168 1.383 . S
C4167 H4175 0.929 . S
C4168 C4167 1.383 . S
C4168 C4169 1.377 . S
C4169 H4153 0.930 . S
C4169 C4168 1.377 . S
C4169 C4170 1.379 . S
C4170 H4154 0.931 . S
C4170 C4164 1.383 . S
C4170 C4169 1.379 . S
H4171 C4165 0.959 . S
H4172 C4165 0.961 . S
H4173 C4165 0.960 . S
H4174 C4166 0.930 . S
H4175 C4167 0.929 . S
H4176 C4184 0.929 . S
H4177 C4186 0.930 . S
H4178 C4188 0.930 . S
H4179 C4191 0.929 . S
H4180 C4194 0.930 . S
H4181 C4196 0.960 . S
H4182 C4196 0.960 . S
H4183 C4196 0.960 . S
C4184 H4176 0.929 . S
C4184 C4185 1.377 . S
C4184 C4186 1.384 . S
C4185 C4184 1.377 . S
C4185 C4191 1.390 . S
C4186 H4177 0.930 . S
C4186 C4184 1.384 . S
C4186 C4187 1.372 . S
C4187 C4186 1.372 . S
C4187 C4188 1.400 . S
C4187 C4192 1.490 . S
C4188 H4178 0.930 . S
C4188 C4187 1.400 . S
C4188 C4191 1.386 . S
H4189 C4205 0.930 . S
H4190 C4206 0.931 . S
C4191 H4179 0.929 . S
C4191 C4185 1.390 . S
C4191 C4188 1.386 . S
C4192 C4187 1.490 . S
C4192 C4194 1.395 . S
C4192 C4195 1.403 . S
H4193 C4199 0.930 . S
C4194 H4180 0.930 . S
C4194 C4192 1.395 . S
C4194 C4197 1.403 . S
C4195 C4192 1.403 . S
C4195 C4196 1.524 . S
C4195 C4199 1.400 . S
C4196 H4181 0.960 . S
C4196 H4182 0.960 . S
C4196 H4183 0.960 . S
C4196 C4195 1.524 . S
C4197 C4194 1.403 . S
C4197 C4198 1.392 . S
C4197 C4201 1.495 . S
C4198 C4197 1.392 . S
C4198 C4199 1.385 . S
C4198 C4200 1.478 . S
C4199 H4193 0.930 . S
C4199 C4195 1.400 . S
C4199 C4198 1.385 . S
C4200 C4198 1.478 . S
C4200 C4202 1.381 . S
C4200 C4206 1.383 . S
C4201 C4197 1.495 . S
C4201 H4207 0.959 . S
C4201 H4208 0.961 . S
C4201 H4209 0.960 . S
C4202 C4200 1.381 . S
C4202 C4203 1.394 . S
C4202 H4210 0.930 . S
C4203 C4202 1.394 . S
C4203 C4204 1.383 . S
C4203 H4211 0.929 . S
C4204 C4203 1.383 . S
C4204 C4205 1.377 . S
C4205 H4189 0.930 . S
C4205 C4204 1.377 . S
C4205 C4206 1.379 . S
C4206 H4190 0.931 . S
C4206 C4200 1.383 . S
C4206 C4205 1.379 . S
H4207 C4201 0.959 . S
H4208 C4201 0.961 . S
H4209 C4201 0.960 . S
H4210 C4202 0.930 . S
H4211 C4203 0.929 . S
H4212 C4220 0.929 . S
H4213 C4222 0.930 . S
H4214 C4224 0.930 . S
H4215 C4227 0.929 . S
H4216 C4230 0.989 . S
H4217 C4232 0.960 . S
H4218 C4232 0.960 . S
H4219 C4232 0.960 . S
C4220 H4212 0.929 . S
C4220 C4221 1.377 . S
C4220 C4222 1.384 . S
C4221 C4220 1.377 . S
C4221 C4227 1.390 . S
C4222 H4213 0.930 . S
C4222 C4220 1.384 . S
C4222 C4223 1.372 . S
C4223 C4222 1.372 . S
C4223 C4224 1.400 . S
C4223 C4228 1.490 . S
C4224 H4214 0.930 . S
C4224 C4223 1.400 . S
C4224 C4227 1.386 . S
H4225 C4241 0.926 . S
H4226 C4242 0.948 . S
C4227 H4215 0.929 . S
C4227 C4221 1.390 . S
C4227 C4224 1.386 . S
C4228 C4223 1.490 . S
C4228 C4230 1.357 1_565 S
C4228 C4231 1.403 . S
H4229 C4235 0.930 . S
C4230 H4216 0.989 . S
C4230 C4228 1.357 1_545 S
C4230 C4233 1.387 . S
C4231 C4228 1.403 . S
C4231 C4232 1.524 . S
C4231 C4235 1.400 . S
C4232 H4217 0.960 . S
C4232 H4218 0.960 . S
C4232 H4219 0.960 . S
C4232 C4231 1.524 . S
C4233 C4230 1.387 . S
C4233 C4234 1.392 1_545 S
C4233 C4237 1.495 . S
C4234 C4233 1.392 1_565 S
C4234 C4235 1.385 . S
C4234 C4236 1.478 . S
C4235 H4229 0.930 . S
C4235 C4231 1.400 . S
C4235 C4234 1.385 . S
C4236 C4234 1.478 . S
C4236 C4238 1.381 . S
C4236 C4242 1.390 1_565 S
C4237 C4233 1.495 . S
C4237 H4243 0.959 . S
C4237 H4244 0.961 . S
C4237 H4245 0.960 . S
C4238 C4236 1.381 . S
C4238 C4239 1.394 . S
C4238 H4246 0.930 . S
C4239 C4238 1.394 . S
C4239 C4240 1.383 . S
C4239 H4247 0.929 . S
C4240 C4239 1.383 . S
C4240 C4241 1.367 1_565 S
C4241 H4225 0.926 . S
C4241 C4240 1.367 1_545 S
C4241 C4242 1.371 . S
C4242 H4226 0.948 . S
C4242 C4236 1.390 1_545 S
C4242 C4241 1.371 . S
H4243 C4237 0.959 . S
H4244 C4237 0.961 . S
H4245 C4237 0.960 . S
H4246 C4238 0.930 . S
H4247 C4239 0.929 . S
H4248 C4256 0.929 . S
H4249 C4258 0.930 . S
H4250 C4260 0.930 . S
H4251 C4263 0.929 . S
H4252 C4266 0.930 . S
H4253 C4268 0.960 . S
H4254 C4268 0.960 1_565 S
H4255 C4268 0.960 . S
C4256 H4248 0.929 . S
C4256 C4257 1.377 . S
C4256 C4258 1.384 . S
C4257 C4256 1.377 . S
C4257 C4263 1.390 1_565 S
C4258 H4249 0.930 . S
C4258 C4256 1.384 . S
C4258 C4259 1.372 . S
C4259 C4258 1.372 . S
C4259 C4260 1.400 1_565 S
C4259 C4264 1.490 . S
C4260 H4250 0.930 . S
C4260 C4259 1.400 1_545 S
C4260 C4263 1.386 . S
H4261 C4277 0.930 . S
H4262 C4278 0.931 . S
C4263 H4251 0.929 . S
C4263 C4257 1.390 1_545 S
C4263 C4260 1.386 . S
C4264 C4259 1.490 . S
C4264 C4266 1.395 . S
C4264 C4267 1.425 . S
H4265 C4271 0.925 1_545 S
C4266 H4252 0.930 . S
C4266 C4264 1.395 . S
C4266 C4269 1.403 . S
C4267 C4264 1.425 . S
C4267 C4268 1.543 1_565 S
C4267 C4271 1.373 . S
C4268 H4253 0.960 . S
C4268 H4254 0.960 1_545 S
C4268 H4255 0.960 . S
C4268 C4267 1.543 1_545 S
C4269 C4266 1.403 . S
C4269 C4270 1.392 . S
C4269 C4273 1.495 . S
C4270 C4269 1.392 . S
C4270 C4271 1.381 . S
C4270 C4272 1.478 . S
C4271 H4265 0.925 1_565 S
C4271 C4267 1.373 . S
C4271 C4270 1.381 . S
C4272 C4270 1.478 . S
C4272 C4274 1.381 . S
C4272 C4278 1.383 1_565 S
C4273 C4269 1.495 . S
C4273 H4279 0.959 . S
C4273 H4280 0.961 . S
C4273 H4281 0.960 . S
C4274 C4272 1.381 . S
C4274 C4275 1.394 . S
C4274 H4282 0.930 . S
C4275 C4274 1.394 . S
C4275 C4276 1.469 . S
C4275 H4283 0.929 . S
C4276 C4275 1.469 . S
C4276 C4277 1.335 1_565 S
C4277 H4261 0.930 . S
C4277 C4276 1.335 1_545 S
C4277 C4278 1.379 . S
C4278 H4262 0.931 . S
C4278 C4272 1.383 1_545 S
C4278 C4277 1.379 . S
H4279 C4273 0.959 . S
H4280 C4273 0.961 . S
H4281 C4273 0.960 . S
H4282 C4274 0.930 . S
H4283 C4275 0.929 . S
H4284 C4292 0.929 . S
H4285 C4294 0.936 1_655 S
H4286 C4296 0.930 . S
H4287 C4299 0.929 . S
H4288 C4302 0.930 . S
H4289 C4304 0.960 . S
H4290 C4304 0.960 . S
H4291 C4304 0.960 . S
C4292 H4284 0.929 . S
C4292 C4293 1.377 . S
C4292 C4294 1.384 . S
C4293 C4292 1.377 . S
C4293 C4299 1.390 . S
C4294 H4285 0.936 1_455 S
C4294 C4292 1.384 . S
C4294 C4295 1.372 . S
C4295 C4294 1.372 . S
C4295 C4296 1.400 . S
C4295 C4300 1.490 . S
C4296 H4286 0.930 . S
C4296 C4295 1.400 . S
C4296 C4299 1.386 . S
H4297 C4313 0.930 . S
H4298 C4314 0.931 . S
C4299 H4287 0.929 . S
C4299 C4293 1.390 . S
C4299 C4296 1.386 . S
C4300 C4295 1.490 . S
C4300 C4302 1.395 1_455 S
C4300 C4303 1.403 . S
H4301 C4307 0.930 . S
C4302 H4288 0.930 . S
C4302 C4300 1.395 1_655 S
C4302 C4305 1.403 . S
C4303 C4300 1.403 . S
C4303 C4304 1.524 . S
C4303 C4307 1.400 . S
C4304 H4289 0.960 . S
C4304 H4290 0.960 . S
C4304 H4291 0.960 . S
C4304 C4303 1.524 . S
C4305 C4302 1.403 . S
C4305 C4306 1.362 1_655 S
C4305 C4309 1.495 . S
C4306 C4305 1.362 1_455 S
C4306 C4307 1.406 . S
C4306 C4308 1.516 1_455 S
C4307 H4301 0.930 . S
C4307 C4303 1.400 . S
C4307 C4306 1.406 . S
C4308 C4306 1.516 1_655 S
C4308 C4310 1.361 . S
C4308 C4314 1.378 1_655 S
C4309 C4305 1.495 . S
C4309 H4315 0.959 . S
C4309 H4316 0.961 . S
C4309 H4317 0.960 . S
C4310 C4308 1.361 . S
C4310 C4311 1.394 . S
C4310 H4318 0.930 . S
C4311 C4310 1.394 . S
C4311 C4312 1.396 . S
C4311 H4319 0.929 . S
C4312 C4311 1.396 . S
C4312 C4313 1.410 1_655 S
C4313 H4297 0.930 . S
C4313 C4312 1.410 1_455 S
C4313 C4314 1.379 . S
C4314 H4298 0.931 . S
C4314 C4308 1.378 1_455 S
C4314 C4313 1.379 . S
H4315 C4309 0.959 . S
H4316 C4309 0.961 . S
H4317 C4309 0.960 . S
H4318 C4310 0.930 . S
H4319 C4311 0.929 . S
H4320 C4328 0.929 . S
H4321 C4330 0.930 . S
H4322 C4332 0.930 . S
H4323 C4335 0.929 . S
H4324 C4338 0.930 . S
H4325 C4340 0.960 . S
H4326 C4340 0.960 . S
H4327 C4340 0.960 . S
C4328 H4320 0.929 . S
C4328 C4329 1.377 . S
C4328 C4330 1.384 . S
C4329 C4328 1.377 . S
C4329 C4335 1.390 . S
C4330 H4321 0.930 . S
C4330 C4328 1.384 . S
C4330 C4331 1.372 . S
C4331 C4330 1.372 . S
C4331 C4332 1.400 . S
C4331 C4336 1.490 . S
C4332 H4322 0.930 . S
C4332 C4331 1.400 . S
C4332 C4335 1.386 . S
H4333 C4349 0.930 . S
H4334 C4350 0.931 . S
C4335 H4323 0.929 . S
C4335 C4329 1.390 . S
C4335 C4332 1.386 . S
C4336 C4331 1.490 . S
C4336 C4338 1.395 . S
C4336 C4339 1.403 . S
H4337 C4343 0.930 . S
C4338 H4324 0.930 . S
C4338 C4336 1.395 . S
C4338 C4341 1.403 . S
C4339 C4336 1.403 . S
C4339 C4340 1.524 . S
C4339 C4343 1.400 . S
C4340 H4325 0.960 . S
C4340 H4326 0.960 . S
C4340 H4327 0.960 . S
C4340 C4339 1.524 . S
C4341 C4338 1.403 . S
C4341 C4342 1.392 . S
C4341 C4345 1.495 . S
C4342 C4341 1.392 . S
C4342 C4343 1.385 . S
C4342 C4344 1.478 . S
C4343 H4337 0.930 . S
C4343 C4339 1.400 . S
C4343 C4342 1.385 . S
C4344 C4342 1.478 . S
C4344 C4346 1.381 . S
C4344 C4350 1.383 . S
C4345 C4341 1.495 . S
C4345 H4351 0.959 . S
C4345 H4352 0.961 . S
C4345 H4353 0.960 . S
C4346 C4344 1.381 . S
C4346 C4347 1.394 . S
C4346 H4354 0.930 . S
C4347 C4346 1.394 . S
C4347 C4348 1.383 . S
C4347 H4355 0.929 . S
C4348 C4347 1.383 . S
C4348 C4349 1.377 . S
C4349 H4333 0.930 . S
C4349 C4348 1.377 . S
C4349 C4350 1.379 . S
C4350 H4334 0.931 . S
C4350 C4344 1.383 . S
C4350 C4349 1.379 . S
H4351 C4345 0.959 . S
H4352 C4345 0.961 . S
H4353 C4345 0.960 . S
H4354 C4346 0.930 . S
H4355 C4347 0.929 . S
H4356 C4364 0.929 . S
H4357 C4366 0.930 . S
H4358 C4368 0.930 . S
H4359 C4371 0.929 . S
H4360 C4374 0.930 . S
H4361 C4376 0.960 . S
H4362 C4376 0.960 . S
H4363 C4376 0.960 . S
C4364 H4356 0.929 . S
C4364 C4365 1.377 . S
C4364 C4366 1.384 . S
C4365 C4364 1.377 . S
C4365 C4371 1.390 . S
C4366 H4357 0.930 . S
C4366 C4364 1.384 . S
C4366 C4367 1.372 . S
C4367 C4366 1.372 . S
C4367 C4368 1.400 . S
C4367 C4372 1.490 . S
C4368 H4358 0.930 . S
C4368 C4367 1.400 . S
C4368 C4371 1.386 . S
H4369 C4385 0.930 . S
H4370 C4386 0.931 . S
C4371 H4359 0.929 . S
C4371 C4365 1.390 . S
C4371 C4368 1.386 . S
C4372 C4367 1.490 . S
C4372 C4374 1.395 . S
C4372 C4375 1.403 . S
H4373 C4379 0.930 . S
C4374 H4360 0.930 . S
C4374 C4372 1.395 . S
C4374 C4377 1.403 . S
C4375 C4372 1.403 . S
C4375 C4376 1.524 . S
C4375 C4379 1.400 . S
C4376 H4361 0.960 . S
C4376 H4362 0.960 . S
C4376 H4363 0.960 . S
C4376 C4375 1.524 . S
C4377 C4374 1.403 . S
C4377 C4378 1.392 . S
C4377 C4381 1.495 . S
C4378 C4377 1.392 . S
C4378 C4379 1.385 . S
C4378 C4380 1.478 . S
C4379 H4373 0.930 . S
C4379 C4375 1.400 . S
C4379 C4378 1.385 . S
C4380 C4378 1.478 . S
C4380 C4382 1.381 . S
C4380 C4386 1.383 . S
C4381 C4377 1.495 . S
C4381 H4387 0.959 . S
C4381 H4388 0.961 . S
C4381 H4389 0.960 . S
C4382 C4380 1.381 . S
C4382 C4383 1.394 . S
C4382 H4390 0.930 . S
C4383 C4382 1.394 . S
C4383 C4384 1.383 . S
C4383 H4391 0.929 . S
C4384 C4383 1.383 . S
C4384 C4385 1.377 . S
C4385 H4369 0.930 . S
C4385 C4384 1.377 . S
C4385 C4386 1.379 . S
C4386 H4370 0.931 . S
C4386 C4380 1.383 . S
C4386 C4385 1.379 . S
H4387 C4381 0.959 . S
H4388 C4381 0.961 . S
H4389 C4381 0.960 . S
H4390 C4382 0.930 . S
H4391 C4383 0.929 . S
H4392 C4400 0.929 . S
H4393 C4402 0.930 . S
H4394 C4404 0.930 . S
H4395 C4407 0.929 . S
H4396 C4410 0.930 . S
H4397 C4412 0.960 . S
H4398 C4412 0.960 . S
H4399 C4412 0.960 . S
C4400 H4392 0.929 . S
C4400 C4401 1.377 . S
C4400 C4402 1.384 . S
C4401 C4400 1.377 . S
C4401 C4407 1.390 . S
C4402 H4393 0.930 . S
C4402 C4400 1.384 . S
C4402 C4403 1.372 . S
C4403 C4402 1.372 . S
C4403 C4404 1.400 . S
C4403 C4408 1.490 . S
C4404 H4394 0.930 . S
C4404 C4403 1.400 . S
C4404 C4407 1.386 . S
H4405 C4421 0.930 . S
H4406 C4422 0.931 . S
C4407 H4395 0.929 . S
C4407 C4401 1.390 . S
C4407 C4404 1.386 . S
C4408 C4403 1.490 . S
C4408 C4410 1.395 . S
C4408 C4411 1.403 . S
H4409 C4415 0.930 . S
C4410 H4396 0.930 . S
C4410 C4408 1.395 . S
C4410 C4413 1.403 . S
C4411 C4408 1.403 . S
C4411 C4412 1.524 . S
C4411 C4415 1.400 . S
C4412 H4397 0.960 . S
C4412 H4398 0.960 . S
C4412 H4399 0.960 . S
C4412 C4411 1.524 . S
C4413 C4410 1.403 . S
C4413 C4414 1.392 . S
C4413 C4417 1.495 . S
C4414 C4413 1.392 . S
C4414 C4415 1.385 . S
C4414 C4416 1.478 . S
C4415 H4409 0.930 . S
C4415 C4411 1.400 . S
C4415 C4414 1.385 . S
C4416 C4414 1.478 . S
C4416 C4418 1.381 . S
C4416 C4422 1.383 . S
C4417 C4413 1.495 . S
C4417 H4423 0.959 . S
C4417 H4424 0.961 . S
C4417 H4425 0.960 . S
C4418 C4416 1.381 . S
C4418 C4419 1.394 . S
C4418 H4426 0.930 . S
C4419 C4418 1.394 . S
C4419 C4420 1.383 . S
C4419 H4427 0.929 . S
C4420 C4419 1.383 . S
C4420 C4421 1.377 . S
C4421 H4405 0.930 . S
C4421 C4420 1.377 . S
C4421 C4422 1.379 . S
C4422 H4406 0.931 . S
C4422 C4416 1.383 . S
C4422 C4421 1.379 . S
H4423 C4417 0.959 . S
H4424 C4417 0.961 . S
H4425 C4417 0.960 . S
H4426 C4418 0.930 . S
H4427 C4419 0.929 . S
H4428 C4436 0.929 . S
H4429 C4438 0.930 . S
H4430 C4440 0.930 . S
H4431 C4443 0.929 . S
H4432 C4446 0.930 . S
H4433 C4448 0.960 . S
H4434 C4448 0.960 . S
H4435 C4448 0.960 . S
C4436 H4428 0.929 . S
C4436 C4437 1.377 . S
C4436 C4438 1.384 . S
C4437 C4436 1.377 . S
C4437 C4443 1.390 . S
C4438 H4429 0.930 . S
C4438 C4436 1.384 . S
C4438 C4439 1.372 . S
C4439 C4438 1.372 . S
C4439 C4440 1.400 . S
C4439 C4444 1.490 . S
C4440 H4430 0.930 . S
C4440 C4439 1.400 . S
C4440 C4443 1.386 . S
H4441 C4457 0.930 . S
H4442 C4458 0.931 . S
C4443 H4431 0.929 . S
C4443 C4437 1.390 . S
C4443 C4440 1.386 . S
C4444 C4439 1.490 . S
C4444 C4446 1.395 . S
C4444 C4447 1.403 . S
H4445 C4451 0.930 . S
C4446 H4432 0.930 . S
C4446 C4444 1.395 . S
C4446 C4449 1.403 . S
C4447 C4444 1.403 . S
C4447 C4448 1.524 . S
C4447 C4451 1.400 . S
C4448 H4433 0.960 . S
C4448 H4434 0.960 . S
C4448 H4435 0.960 . S
C4448 C4447 1.524 . S
C4449 C4446 1.403 . S
C4449 C4450 1.392 . S
C4449 C4453 1.495 . S
C4450 C4449 1.392 . S
C4450 C4451 1.385 . S
C4450 C4452 1.478 . S
C4451 H4445 0.930 . S
C4451 C4447 1.400 . S
C4451 C4450 1.385 . S
C4452 C4450 1.478 . S
C4452 C4454 1.381 . S
C4452 C4458 1.383 . S
C4453 C4449 1.495 . S
C4453 H4459 0.959 . S
C4453 H4460 0.961 . S
C4453 H4461 0.960 . S
C4454 C4452 1.381 . S
C4454 C4455 1.394 . S
C4454 H4462 0.930 . S
C4455 C4454 1.394 . S
C4455 C4456 1.383 . S
C4455 H4463 0.929 . S
C4456 C4455 1.383 . S
C4456 C4457 1.377 . S
C4457 H4441 0.930 . S
C4457 C4456 1.377 . S
C4457 C4458 1.379 . S
C4458 H4442 0.931 . S
C4458 C4452 1.383 . S
C4458 C4457 1.379 . S
H4459 C4453 0.959 . S
H4460 C4453 0.961 . S
H4461 C4453 0.960 . S
H4462 C4454 0.930 . S
H4463 C4455 0.929 . S
H4464 C4472 0.986 . S
H4465 C4474 0.930 . S
H4466 C4476 0.930 . S
H4467 C4479 0.929 . S
H4468 C4482 0.930 . S
H4469 C4484 0.966 . S
H4470 C4484 0.974 . S
H4471 C4484 0.935 1_545 S
C4472 H4464 0.986 . S
C4472 C4473 1.282 1_565 S
C4472 C4474 1.431 . S
C4473 C4472 1.282 1_545 S
C4473 C4479 1.390 . S
C4474 H4465 0.930 . S
C4474 C4472 1.431 . S
C4474 C4475 1.372 1_565 S
C4475 C4474 1.372 1_545 S
C4475 C4476 1.400 . S
C4475 C4480 1.490 . S
C4476 H4466 0.930 . S
C4476 C4475 1.400 . S
C4476 C4479 1.386 . S
H4477 C4493 0.930 . S
H4478 C4494 0.931 . S
C4479 H4467 0.929 . S
C4479 C4473 1.390 . S
C4479 C4476 1.386 . S
C4480 C4475 1.490 . S
C4480 C4482 1.395 . S
C4480 C4483 1.403 . S
H4481 C4487 0.930 . S
C4482 H4468 0.930 . S
C4482 C4480 1.395 . S
C4482 C4485 1.403 . S
C4483 C4480 1.403 . S
C4483 C4484 1.529 1_545 S
C4483 C4487 1.400 . S
C4484 H4469 0.966 . S
C4484 H4470 0.974 . S
C4484 H4471 0.935 1_565 S
C4484 C4483 1.529 1_565 S
C4485 C4482 1.403 . S
C4485 C4486 1.392 . S
C4485 C4489 1.495 . S
C4486 C4485 1.392 . S
C4486 C4487 1.385 . S
C4486 C4488 1.478 . S
C4487 H4481 0.930 . S
C4487 C4483 1.400 . S
C4487 C4486 1.385 . S
C4488 C4486 1.478 . S
C4488 C4490 1.381 1_545 S
C4488 C4494 1.383 . S
C4489 C4485 1.495 . S
C4489 H4495 0.959 . S
C4489 H4496 0.961 . S
C4489 H4497 0.960 . S
C4490 C4488 1.381 1_565 S
C4490 C4491 1.394 . S
C4490 H4498 0.930 . S
C4491 C4490 1.394 . S
C4491 C4492 1.383 1_565 S
C4491 H4499 0.929 . S
C4492 C4491 1.383 1_545 S
C4492 C4493 1.377 . S
C4493 H4477 0.930 . S
C4493 C4492 1.377 . S
C4493 C4494 1.379 . S
C4494 H4478 0.931 . S
C4494 C4488 1.383 . S
C4494 C4493 1.379 . S
H4495 C4489 0.959 . S
H4496 C4489 0.961 . S
H4497 C4489 0.960 . S
H4498 C4490 0.930 . S
H4499 C4491 0.929 . S
H4500 C4508 0.929 . S
H4501 C4510 0.930 . S
H4502 C4512 0.942 . S
H4503 C4515 0.983 . S
H4504 C4518 0.917 1_455 S
H4505 C4520 0.960 . S
H4506 C4520 0.960 . S
H4507 C4520 0.960 . S
C4508 H4500 0.929 . S
C4508 C4509 1.377 . S
C4508 C4510 1.384 . S
C4509 C4508 1.377 . S
C4509 C4515 1.384 1_655 S
C4510 H4501 0.930 . S
C4510 C4508 1.384 . S
C4510 C4511 1.372 . S
C4511 C4510 1.372 . S
C4511 C4512 1.357 1_655 S
C4511 C4516 1.490 . S
C4512 H4502 0.942 . S
C4512 C4511 1.357 1_455 S
C4512 C4515 1.383 . S
H4513 C4529 0.930 . S
H4514 C4530 0.931 . S
C4515 H4503 0.983 . S
C4515 C4509 1.384 1_455 S
C4515 C4512 1.383 . S
C4516 C4511 1.490 . S
C4516 C4518 1.395 . S
C4516 C4519 1.403 . S
H4517 C4523 0.930 . S
C4518 H4504 0.917 1_655 S
C4518 C4516 1.395 . S
C4518 C4521 1.403 . S
C4519 C4516 1.403 . S
C4519 C4520 1.524 . S
C4519 C4523 1.400 . S
C4520 H4505 0.960 . S
C4520 H4506 0.960 . S
C4520 H4507 0.960 . S
C4520 C4519 1.524 . S
C4521 C4518 1.403 . S
C4521 C4522 1.392 . S
C4521 C4525 1.495 1_655 S
C4522 C4521 1.392 . S
C4522 C4523 1.385 . S
C4522 C4524 1.478 . S
C4523 H4517 0.930 . S
C4523 C4519 1.400 . S
C4523 C4522 1.385 . S
C4524 C4522 1.478 . S
C4524 C4526 1.381 . S
C4524 C4530 1.383 1_655 S
C4525 C4521 1.495 1_455 S
C4525 H4531 0.959 . S
C4525 H4532 0.961 . S
C4525 H4533 0.960 1_455 S
C4526 C4524 1.381 . S
C4526 C4527 1.394 . S
C4526 H4534 0.930 . S
C4527 C4526 1.394 . S
C4527 C4528 1.383 . S
C4527 H4535 0.929 . S
C4528 C4527 1.383 . S
C4528 C4529 1.377 1_655 S
C4529 H4513 0.930 . S
C4529 C4528 1.377 1_455 S
C4529 C4530 1.379 . S
C4530 H4514 0.931 . S
C4530 C4524 1.383 1_455 S
C4530 C4529 1.379 . S
H4531 C4525 0.959 . S
H4532 C4525 0.961 . S
H4533 C4525 0.960 1_655 S
H4534 C4526 0.930 . S
H4535 C4527 0.929 . S
H4536 C4544 0.929 . S
H4537 C4546 0.930 . S
H4538 C4548 0.930 . S
H4539 C4551 0.929 . S
H4540 C4554 0.930 . S
H4541 C4556 0.960 . S
H4542 C4556 0.960 . S
H4543 C4556 0.960 . S
C4544 H4536 0.929 . S
C4544 C4545 1.377 . S
C4544 C4546 1.384 . S
C4545 C4544 1.377 . S
C4545 C4551 1.390 . S
C4546 H4537 0.930 . S
C4546 C4544 1.384 . S
C4546 C4547 1.372 . S
C4547 C4546 1.372 . S
C4547 C4548 1.400 . S
C4547 C4552 1.490 . S
C4548 H4538 0.930 . S
C4548 C4547 1.400 . S
C4548 C4551 1.386 . S
H4549 C4565 0.930 . S
H4550 C4566 0.931 . S
C4551 H4539 0.929 . S
C4551 C4545 1.390 . S
C4551 C4548 1.386 . S
C4552 C4547 1.490 . S
C4552 C4554 1.395 . S
C4552 C4555 1.403 . S
H4553 C4559 0.930 . S
C4554 H4540 0.930 . S
C4554 C4552 1.395 . S
C4554 C4557 1.403 . S
C4555 C4552 1.403 . S
C4555 C4556 1.524 . S
C4555 C4559 1.400 . S
C4556 H4541 0.960 . S
C4556 H4542 0.960 . S
C4556 H4543 0.960 . S
C4556 C4555 1.524 . S
C4557 C4554 1.403 . S
C4557 C4558 1.392 . S
C4557 C4561 1.495 . S
C4558 C4557 1.392 . S
C4558 C4559 1.385 . S
C4558 C4560 1.478 . S
C4559 H4553 0.930 . S
C4559 C4555 1.400 . S
C4559 C4558 1.385 . S
C4560 C4558 1.478 . S
C4560 C4562 1.381 . S
C4560 C4566 1.383 . S
C4561 C4557 1.495 . S
C4561 H4567 0.959 . S
C4561 H4568 0.961 . S
C4561 H4569 0.960 . S
C4562 C4560 1.381 . S
C4562 C4563 1.394 . S
C4562 H4570 0.930 . S
C4563 C4562 1.394 . S
C4563 C4564 1.383 . S
C4563 H4571 0.929 . S
C4564 C4563 1.383 . S
C4564 C4565 1.377 . S
C4565 H4549 0.930 . S
C4565 C4564 1.377 . S
C4565 C4566 1.379 . S
C4566 H4550 0.931 . S
C4566 C4560 1.383 . S
C4566 C4565 1.379 . S
H4567 C4561 0.959 . S
H4568 C4561 0.961 . S
H4569 C4561 0.960 . S
H4570 C4562 0.930 . S
H4571 C4563 0.929 . S
H4572 C4580 0.929 . S
H4573 C4582 0.930 . S
H4574 C4584 0.930 . S
H4575 C4587 0.929 . S
H4576 C4590 0.930 . S
H4577 C4592 0.960 . S
H4578 C4592 0.960 . S
H4579 C4592 0.960 . S
C4580 H4572 0.929 . S
C4580 C4581 1.377 . S
C4580 C4582 1.384 . S
C4581 C4580 1.377 . S
C4581 C4587 1.390 . S
C4582 H4573 0.930 . S
C4582 C4580 1.384 . S
C4582 C4583 1.372 . S
C4583 C4582 1.372 . S
C4583 C4584 1.400 . S
C4583 C4588 1.490 . S
C4584 H4574 0.930 . S
C4584 C4583 1.400 . S
C4584 C4587 1.386 . S
H4585 C4601 0.930 . S
H4586 C4602 0.931 . S
C4587 H4575 0.929 . S
C4587 C4581 1.390 . S
C4587 C4584 1.386 . S
C4588 C4583 1.490 . S
C4588 C4590 1.395 . S
C4588 C4591 1.403 . S
H4589 C4595 0.930 . S
C4590 H4576 0.930 . S
C4590 C4588 1.395 . S
C4590 C4593 1.403 . S
C4591 C4588 1.403 . S
C4591 C4592 1.524 . S
C4591 C4595 1.400 . S
C4592 H4577 0.960 . S
C4592 H4578 0.960 . S
C4592 H4579 0.960 . S
C4592 C4591 1.524 . S
C4593 C4590 1.403 . S
C4593 C4594 1.392 . S
C4593 C4597 1.495 . S
C4594 C4593 1.392 . S
C4594 C4595 1.385 . S
C4594 C4596 1.478 . S
C4595 H4589 0.930 . S
C4595 C4591 1.400 . S
C4595 C4594 1.385 . S
C4596 C4594 1.478 . S
C4596 C4598 1.381 . S
C4596 C4602 1.383 . S
C4597 C4593 1.495 . S
C4597 H4603 0.959 . S
C4597 H4604 0.961 . S
C4597 H4605 0.960 . S
C4598 C4596 1.381 . S
C4598 C4599 1.394 . S
C4598 H4606 0.930 . S
C4599 C4598 1.394 . S
C4599 C4600 1.383 . S
C4599 H4607 0.929 . S
C4600 C4599 1.383 . S
C4600 C4601 1.377 . S
C4601 H4585 0.930 . S
C4601 C4600 1.377 . S
C4601 C4602 1.379 . S
C4602 H4586 0.931 . S
C4602 C4596 1.383 . S
C4602 C4601 1.379 . S
H4603 C4597 0.959 . S
H4604 C4597 0.961 . S
H4605 C4597 0.960 . S
H4606 C4598 0.930 . S
H4607 C4599 0.929 . S
H4608 C4616 0.929 . S
H4609 C4618 0.930 . S
H4610 C4620 0.930 . S
H4611 C4623 0.929 . S
H4612 C4626 0.930 . S
H4613 C4628 0.960 . S
H4614 C4628 0.960 . S
H4615 C4628 0.960 . S
C4616 H4608 0.929 . S
C4616 C4617 1.377 . S
C4616 C4618 1.384 . S
C4617 C4616 1.377 . S
C4617 C4623 1.390 . S
C4618 H4609 0.930 . S
C4618 C4616 1.384 . S
C4618 C4619 1.372 . S
C4619 C4618 1.372 . S
C4619 C4620 1.400 . S
C4619 C4624 1.490 . S
C4620 H4610 0.930 . S
C4620 C4619 1.400 . S
C4620 C4623 1.386 . S
H4621 C4637 0.930 . S
H4622 C4638 0.931 . S
C4623 H4611 0.929 . S
C4623 C4617 1.390 . S
C4623 C4620 1.386 . S
C4624 C4619 1.490 . S
C4624 C4626 1.395 . S
C4624 C4627 1.403 . S
H4625 C4631 0.930 . S
C4626 H4612 0.930 . S
C4626 C4624 1.395 . S
C4626 C4629 1.403 . S
C4627 C4624 1.403 . S
C4627 C4628 1.524 . S
C4627 C4631 1.400 . S
C4628 H4613 0.960 . S
C4628 H4614 0.960 . S
C4628 H4615 0.960 . S
C4628 C4627 1.524 . S
C4629 C4626 1.403 . S
C4629 C4630 1.392 . S
C4629 C4633 1.495 . S
C4630 C4629 1.392 . S
C4630 C4631 1.385 . S
C4630 C4632 1.478 . S
C4631 H4625 0.930 . S
C4631 C4627 1.400 . S
C4631 C4630 1.385 . S
C4632 C4630 1.478 . S
C4632 C4634 1.381 . S
C4632 C4638 1.383 . S
C4633 C4629 1.495 . S
C4633 H4639 0.959 . S
C4633 H4640 0.961 . S
C4633 H4641 0.960 . S
C4634 C4632 1.381 . S
C4634 C4635 1.394 . S
C4634 H4642 0.930 . S
C4635 C4634 1.394 . S
C4635 C4636 1.383 . S
C4635 H4643 0.929 . S
C4636 C4635 1.383 . S
C4636 C4637 1.377 . S
C4637 H4621 0.930 . S
C4637 C4636 1.377 . S
C4637 C4638 1.379 . S
C4638 H4622 0.931 . S
C4638 C4632 1.383 . S
C4638 C4637 1.379 . S
H4639 C4633 0.959 . S
H4640 C4633 0.961 . S
H4641 C4633 0.960 . S
H4642 C4634 0.930 . S
H4643 C4635 0.929 . S
H4644 C4652 0.929 . S
H4645 C4654 0.930 . S
H4646 C4656 0.930 . S
H4647 C4659 0.929 . S
H4648 C4662 0.930 . S
H4649 C4664 0.960 . S
H4650 C4664 0.960 . S
H4651 C4664 0.960 . S
C4652 H4644 0.929 . S
C4652 C4653 1.377 . S
C4652 C4654 1.384 . S
C4653 C4652 1.377 . S
C4653 C4659 1.390 . S
C4654 H4645 0.930 . S
C4654 C4652 1.384 . S
C4654 C4655 1.372 . S
C4655 C4654 1.372 . S
C4655 C4656 1.400 . S
C4655 C4660 1.490 . S
C4656 H4646 0.930 . S
C4656 C4655 1.400 . S
C4656 C4659 1.386 . S
H4657 C4673 0.930 . S
H4658 C4674 0.931 . S
C4659 H4647 0.929 . S
C4659 C4653 1.390 . S
C4659 C4656 1.386 . S
C4660 C4655 1.490 . S
C4660 C4662 1.395 . S
C4660 C4663 1.403 . S
H4661 C4667 0.930 . S
C4662 H4648 0.930 . S
C4662 C4660 1.395 . S
C4662 C4665 1.403 . S
C4663 C4660 1.403 . S
C4663 C4664 1.524 . S
C4663 C4667 1.400 . S
C4664 H4649 0.960 . S
C4664 H4650 0.960 . S
C4664 H4651 0.960 . S
C4664 C4663 1.524 . S
C4665 C4662 1.403 . S
C4665 C4666 1.392 . S
C4665 C4669 1.495 . S
C4666 C4665 1.392 . S
C4666 C4667 1.385 . S
C4666 C4668 1.478 . S
C4667 H4661 0.930 . S
C4667 C4663 1.400 . S
C4667 C4666 1.385 . S
C4668 C4666 1.478 . S
C4668 C4670 1.381 . S
C4668 C4674 1.383 . S
C4669 C4665 1.495 . S
C4669 H4675 0.959 . S
C4669 H4676 0.961 . S
C4669 H4677 0.960 . S
C4670 C4668 1.381 . S
C4670 C4671 1.394 . S
C4670 H4678 0.930 . S
C4671 C4670 1.394 . S
C4671 C4672 1.383 . S
C4671 H4679 0.929 . S
C4672 C4671 1.383 . S
C4672 C4673 1.377 . S
C4673 H4657 0.930 . S
C4673 C4672 1.377 . S
C4673 C4674 1.379 . S
C4674 H4658 0.931 . S
C4674 C4668 1.383 . S
C4674 C4673 1.379 . S
H4675 C4669 0.959 . S
H4676 C4669 0.961 . S
H4677 C4669 0.960 . S
H4678 C4670 0.930 . S
H4679 C4671 0.929 . S
H4680 C4688 0.929 . S
H4681 C4690 0.930 . S
H4682 C4692 0.930 . S
H4683 C4695 0.929 . S
H4684 C4698 0.930 . S
H4685 C4700 0.960 . S
H4686 C4700 0.960 . S
H4687 C4700 0.960 . S
C4688 H4680 0.929 . S
C4688 C4689 1.377 . S
C4688 C4690 1.384 . S
C4689 C4688 1.377 . S
C4689 C4695 1.390 . S
C4690 H4681 0.930 . S
C4690 C4688 1.384 . S
C4690 C4691 1.372 . S
C4691 C4690 1.372 . S
C4691 C4692 1.400 . S
C4691 C4696 1.490 . S
C4692 H4682 0.930 . S
C4692 C4691 1.400 . S
C4692 C4695 1.386 . S
H4693 C4709 0.930 . S
H4694 C4710 0.931 . S
C4695 H4683 0.929 . S
C4695 C4689 1.390 . S
C4695 C4692 1.386 . S
C4696 C4691 1.490 . S
C4696 C4698 1.395 . S
C4696 C4699 1.403 . S
H4697 C4703 0.930 . S
C4698 H4684 0.930 . S
C4698 C4696 1.395 . S
C4698 C4701 1.403 . S
C4699 C4696 1.403 . S
C4699 C4700 1.524 . S
C4699 C4703 1.400 . S
C4700 H4685 0.960 . S
C4700 H4686 0.960 . S
C4700 H4687 0.960 . S
C4700 C4699 1.524 . S
C4701 C4698 1.403 . S
C4701 C4702 1.392 . S
C4701 C4705 1.495 . S
C4702 C4701 1.392 . S
C4702 C4703 1.385 . S
C4702 C4704 1.478 . S
C4703 H4697 0.930 . S
C4703 C4699 1.400 . S
C4703 C4702 1.385 . S
C4704 C4702 1.478 . S
C4704 C4706 1.381 . S
C4704 C4710 1.383 . S
C4705 C4701 1.495 . S
C4705 H4711 0.959 . S
C4705 H4712 0.961 . S
C4705 H4713 0.960 . S
C4706 C4704 1.381 . S
C4706 C4707 1.394 . S
C4706 H4714 0.930 . S
C4707 C4706 1.394 . S
C4707 C4708 1.383 . S
C4707 H4715 0.929 . S
C4708 C4707 1.383 . S
C4708 C4709 1.377 . S
C4709 H4693 0.930 . S
C4709 C4708 1.377 . S
C4709 C4710 1.379 . S
C4710 H4694 0.931 . S
C4710 C4704 1.383 . S
C4710 C4709 1.379 . S
H4711 C4705 0.959 . S
H4712 C4705 0.961 . S
H4713 C4705 0.960 . S
H4714 C4706 0.930 . S
H4715 C4707 0.929 . S
H4716 C4724 0.929 . S
H4717 C4726 0.930 . S
H4718 C4728 0.930 . S
H4719 C4731 0.929 . S
H4720 C4734 0.930 . S
H4721 C4736 0.960 . S
H4722 C4736 0.960 . S
H4723 C4736 0.960 . S
C4724 H4716 0.929 . S
C4724 C4725 1.377 . S
C4724 C4726 1.384 . S
C4725 C4724 1.377 . S
C4725 C4731 1.390 . S
C4726 H4717 0.930 . S
C4726 C4724 1.384 . S
C4726 C4727 1.372 . S
C4727 C4726 1.372 . S
C4727 C4728 1.400 . S
C4727 C4732 1.490 . S
C4728 H4718 0.930 . S
C4728 C4727 1.400 . S
C4728 C4731 1.386 . S
H4729 C4745 0.930 . S
H4730 C4746 0.931 . S
C4731 H4719 0.929 . S
C4731 C4725 1.390 . S
C4731 C4728 1.386 . S
C4732 C4727 1.490 . S
C4732 C4734 1.395 . S
C4732 C4735 1.403 . S
H4733 C4739 0.930 . S
C4734 H4720 0.930 . S
C4734 C4732 1.395 . S
C4734 C4737 1.403 . S
C4735 C4732 1.403 . S
C4735 C4736 1.524 . S
C4735 C4739 1.400 . S
C4736 H4721 0.960 . S
C4736 H4722 0.960 . S
C4736 H4723 0.960 . S
C4736 C4735 1.524 . S
C4737 C4734 1.403 . S
C4737 C4738 1.392 . S
C4737 C4741 1.495 . S
C4738 C4737 1.392 . S
C4738 C4739 1.385 . S
C4738 C4740 1.478 . S
C4739 H4733 0.930 . S
C4739 C4735 1.400 . S
C4739 C4738 1.385 . S
C4740 C4738 1.478 . S
C4740 C4742 1.381 . S
C4740 C4746 1.383 . S
C4741 C4737 1.495 . S
C4741 H4747 0.959 . S
C4741 H4748 0.961 . S
C4741 H4749 0.960 . S
C4742 C4740 1.381 . S
C4742 C4743 1.394 . S
C4742 H4750 0.930 . S
C4743 C4742 1.394 . S
C4743 C4744 1.383 . S
C4743 H4751 0.929 . S
C4744 C4743 1.383 . S
C4744 C4745 1.377 . S
C4745 H4729 0.930 . S
C4745 C4744 1.377 . S
C4745 C4746 1.379 . S
C4746 H4730 0.931 . S
C4746 C4740 1.383 . S
C4746 C4745 1.379 . S
H4747 C4741 0.959 . S
H4748 C4741 0.961 . S
H4749 C4741 0.960 . S
H4750 C4742 0.930 . S
H4751 C4743 0.929 . S
H4752 C4760 0.929 . S
H4753 C4762 0.930 . S
H4754 C4764 0.930 . S
H4755 C4767 0.929 . S
H4756 C4770 0.930 . S
H4757 C4772 0.960 . S
H4758 C4772 0.960 . S
H4759 C4772 0.960 . S
C4760 H4752 0.929 . S
C4760 C4761 1.377 . S
C4760 C4762 1.384 . S
C4761 C4760 1.377 . S
C4761 C4767 1.390 . S
C4762 H4753 0.930 . S
C4762 C4760 1.384 . S
C4762 C4763 1.372 . S
C4763 C4762 1.372 . S
C4763 C4764 1.400 . S
C4763 C4768 1.490 . S
C4764 H4754 0.930 . S
C4764 C4763 1.400 . S
C4764 C4767 1.386 . S
H4765 C4781 0.930 . S
H4766 C4782 0.931 . S
C4767 H4755 0.929 . S
C4767 C4761 1.390 . S
C4767 C4764 1.386 . S
C4768 C4763 1.490 . S
C4768 C4770 1.395 . S
C4768 C4771 1.403 . S
H4769 C4775 0.930 . S
C4770 H4756 0.930 . S
C4770 C4768 1.395 . S
C4770 C4773 1.403 . S
C4771 C4768 1.403 . S
C4771 C4772 1.524 . S
C4771 C4775 1.400 . S
C4772 H4757 0.960 . S
C4772 H4758 0.960 . S
C4772 H4759 0.960 . S
C4772 C4771 1.524 . S
C4773 C4770 1.403 . S
C4773 C4774 1.392 . S
C4773 C4777 1.495 . S
C4774 C4773 1.392 . S
C4774 C4775 1.385 . S
C4774 C4776 1.478 . S
C4775 H4769 0.930 . S
C4775 C4771 1.400 . S
C4775 C4774 1.385 . S
C4776 C4774 1.478 . S
C4776 C4778 1.381 . S
C4776 C4782 1.383 . S
C4777 C4773 1.495 . S
C4777 H4783 0.959 . S
C4777 H4784 0.961 . S
C4777 H4785 0.960 . S
C4778 C4776 1.381 . S
C4778 C4779 1.394 . S
C4778 H4786 0.930 . S
C4779 C4778 1.394 . S
C4779 C4780 1.383 . S
C4779 H4787 0.929 . S
C4780 C4779 1.383 . S
C4780 C4781 1.377 . S
C4781 H4765 0.930 . S
C4781 C4780 1.377 . S
C4781 C4782 1.379 . S
C4782 H4766 0.931 . S
C4782 C4776 1.383 . S
C4782 C4781 1.379 . S
H4783 C4777 0.959 . S
H4784 C4777 0.961 . S
H4785 C4777 0.960 . S
H4786 C4778 0.930 . S
H4787 C4779 0.929 . S
H4788 C4796 0.929 . S
H4789 C4798 0.930 . S
H4790 C4800 0.930 1_455 S
H4791 C4803 0.934 1_455 S
H4792 C4806 0.930 . S
H4793 C4808 0.960 . S
H4794 C4808 0.960 . S
H4795 C4808 0.960 . S
C4796 H4788 0.929 . S
C4796 C4797 1.377 . S
C4796 C4798 1.384 . S
C4797 C4796 1.377 . S
C4797 C4803 1.390 . S
C4798 H4789 0.930 . S
C4798 C4796 1.384 . S
C4798 C4799 1.372 . S
C4799 C4798 1.372 . S
C4799 C4800 1.400 . S
C4799 C4804 1.490 . S
C4800 H4790 0.930 1_655 S
C4800 C4799 1.400 . S
C4800 C4803 1.386 . S
H4801 C4817 0.930 . S
H4802 C4818 0.931 . S
C4803 H4791 0.934 1_655 S
C4803 C4797 1.390 . S
C4803 C4800 1.386 . S
C4804 C4799 1.490 . S
C4804 C4806 1.395 1_655 S
C4804 C4807 1.403 . S
H4805 C4811 0.930 . S
C4806 H4792 0.930 . S
C4806 C4804 1.395 1_455 S
C4806 C4809 1.403 . S
C4807 C4804 1.403 . S
C4807 C4808 1.524 . S
C4807 C4811 1.400 . S
C4808 H4793 0.960 . S
C4808 H4794 0.960 . S
C4808 H4795 0.960 . S
C4808 C4807 1.524 . S
C4809 C4806 1.403 . S
C4809 C4810 1.392 1_455 S
C4809 C4813 1.495 . S
C4810 C4809 1.392 1_655 S
C4810 C4811 1.385 . S
C4810 C4812 1.478 . S
C4811 H4805 0.930 . S
C4811 C4807 1.400 . S
C4811 C4810 1.385 . S
C4812 C4810 1.478 . S
C4812 C4814 1.381 . S
C4812 C4818 1.383 1_655 S
C4813 C4809 1.495 . S
C4813 H4819 0.959 . S
C4813 H4820 0.961 . S
C4813 H4821 0.960 . S
C4814 C4812 1.381 . S
C4814 C4815 1.394 . S
C4814 H4822 0.930 . S
C4815 C4814 1.394 . S
C4815 C4816 1.413 . S
C4815 H4823 0.929 . S
C4816 C4815 1.413 . S
C4816 C4817 1.383 1_655 S
C4817 H4801 0.930 . S
C4817 C4816 1.383 1_455 S
C4817 C4818 1.379 . S
C4818 H4802 0.931 . S
C4818 C4812 1.383 1_455 S
C4818 C4817 1.379 . S
H4819 C4813 0.959 . S
H4820 C4813 0.961 . S
H4821 C4813 0.960 . S
H4822 C4814 0.930 . S
H4823 C4815 0.929 . S
H4824 C4832 0.929 . S
H4825 C4834 0.930 . S
H4826 C4836 0.930 . S
H4827 C4839 0.929 . S
H4828 C4842 0.930 . S
H4829 C4844 0.960 . S
H4830 C4844 0.960 . S
H4831 C4844 0.960 . S
C4832 H4824 0.929 . S
C4832 C4833 1.377 . S
C4832 C4834 1.384 . S
C4833 C4832 1.377 . S
C4833 C4839 1.390 . S
C4834 H4825 0.930 . S
C4834 C4832 1.384 . S
C4834 C4835 1.372 . S
C4835 C4834 1.372 . S
C4835 C4836 1.400 . S
C4835 C4840 1.490 . S
C4836 H4826 0.930 . S
C4836 C4835 1.400 . S
C4836 C4839 1.386 . S
H4837 C4853 0.930 . S
H4838 C4854 0.931 . S
C4839 H4827 0.929 . S
C4839 C4833 1.390 . S
C4839 C4836 1.386 . S
C4840 C4835 1.490 . S
C4840 C4842 1.395 . S
C4840 C4843 1.403 . S
H4841 C4847 0.930 . S
C4842 H4828 0.930 . S
C4842 C4840 1.395 . S
C4842 C4845 1.403 . S
C4843 C4840 1.403 . S
C4843 C4844 1.524 . S
C4843 C4847 1.400 . S
C4844 H4829 0.960 . S
C4844 H4830 0.960 . S
C4844 H4831 0.960 . S
C4844 C4843 1.524 . S
C4845 C4842 1.403 . S
C4845 C4846 1.392 . S
C4845 C4849 1.495 . S
C4846 C4845 1.392 . S
C4846 C4847 1.385 . S
C4846 C4848 1.478 . S
C4847 H4841 0.930 . S
C4847 C4843 1.400 . S
C4847 C4846 1.385 . S
C4848 C4846 1.478 . S
C4848 C4850 1.381 . S
C4848 C4854 1.383 . S
C4849 C4845 1.495 . S
C4849 H4855 0.959 . S
C4849 H4856 0.961 . S
C4849 H4857 0.960 . S
C4850 C4848 1.381 . S
C4850 C4851 1.394 . S
C4850 H4858 0.930 . S
C4851 C4850 1.394 . S
C4851 C4852 1.383 . S
C4851 H4859 0.929 . S
C4852 C4851 1.383 . S
C4852 C4853 1.377 . S
C4853 H4837 0.930 . S
C4853 C4852 1.377 . S
C4853 C4854 1.379 . S
C4854 H4838 0.931 . S
C4854 C4848 1.383 . S
C4854 C4853 1.379 . S
H4855 C4849 0.959 . S
H4856 C4849 0.961 . S
H4857 C4849 0.960 . S
H4858 C4850 0.930 . S
H4859 C4851 0.929 . S
H4860 C4868 0.929 . S
H4861 C4870 0.930 . S
H4862 C4872 0.921 . S
H4863 C4875 0.929 . S
H4864 C4878 0.930 . S
H4865 C4880 0.960 . S
H4866 C4880 0.960 . S
H4867 C4880 0.960 . S
C4868 H4860 0.929 . S
C4868 C4869 1.377 . S
C4868 C4870 1.384 . S
C4869 C4868 1.377 . S
C4869 C4875 1.390 . S
C4870 H4861 0.930 . S
C4870 C4868 1.384 . S
C4870 C4871 1.372 . S
C4871 C4870 1.372 . S
C4871 C4872 1.400 . S
C4871 C4876 1.490 . S
C4872 H4862 0.921 . S
C4872 C4871 1.400 . S
C4872 C4875 1.386 . S
H4873 C4889 0.928 1_565 S
H4874 C4890 0.937 . S
C4875 H4863 0.929 . S
C4875 C4869 1.390 . S
C4875 C4872 1.386 . S
C4876 C4871 1.490 . S
C4876 C4878 1.395 . S
C4876 C4879 1.403 1_545 S
H4877 C4883 0.930 . S
C4878 H4864 0.930 . S
C4878 C4876 1.395 . S
C4878 C4881 1.403 . S
C4879 C4876 1.403 1_565 S
C4879 C4880 1.524 . S
C4879 C4883 1.400 . S
C4880 H4865 0.960 . S
C4880 H4866 0.960 . S
C4880 H4867 0.960 . S
C4880 C4879 1.524 . S
C4881 C4878 1.403 . S
C4881 C4882 1.392 . S
C4881 C4885 1.495 . S
C4882 C4881 1.392 . S
C4882 C4883 1.385 1_545 S
C4882 C4884 1.478 . S
C4883 H4877 0.930 . S
C4883 C4879 1.400 . S
C4883 C4882 1.385 1_565 S
C4884 C4882 1.478 . S
C4884 C4886 1.381 . S
C4884 C4890 1.383 . S
C4885 C4881 1.495 . S
C4885 H4891 0.959 . S
C4885 H4892 0.961 . S
C4885 H4893 0.960 . S
C4886 C4884 1.381 . S
C4886 C4887 1.394 . S
C4886 H4894 0.930 . S
C4887 C4886 1.394 . S
C4887 C4888 1.383 . S
C4887 H4895 0.929 . S
C4888 C4887 1.383 . S
C4888 C4889 1.377 . S
C4889 H4873 0.928 1_545 S
C4889 C4888 1.377 . S
C4889 C4890 1.381 . S
C4890 H4874 0.937 . S
C4890 C4884 1.383 . S
C4890 C4889 1.381 . S
H4891 C4885 0.959 . S
H4892 C4885 0.961 . S
H4893 C4885 0.960 . S
H4894 C4886 0.930 . S
H4895 C4887 0.929 . S
C2313 C8 1.319 1_655 S
C2332 C1307 1.008 1_655 S
C2349 C22 1.664 . S
C2368 C1447 1.150 . S
C2404 C1535 1.083 . S
C2385 C37 1.382 . S
C2421 C36 1.443 1_565 S
C2440 C1675 1.020 1_565 S
C2457 C9 1.381 . S
C2476 C1789 1.062 1_455 S
C2493 C23 1.680 . S
C2512 C1877 1.218 . S
C2529 C50 1.265 1_455 S
C2548 C1763 1.117 . S
C2584 C1903 1.310 . S
C2565 C64 1.588 . S
C2620 C1649 1.169 1_545 S
C2601 C79 1.390 1_565 S
C2637 C78 1.417 1_545 S
C2656 C1561 1.050 1_565 S
C2692 C1333 1.023 . S
C2673 C51 1.397 1_655 S
C2709 C65 1.598 . S
C2728 C1421 1.410 . S
C2745 C92 1.721 . S
C2764 C1991 1.238 . S
C2781 C106 1.763 . S
C2800 C2131 1.129 . S
C2836 C2219 1.291 . S
C2817 C121 1.698 . S
C2853 C120 1.705 . S
C2872 C307 1.070 . S
C2889 C93 1.720 . S
C2908 C421 1.114 . S
C2925 C107 1.723 . S
C2944 C509 1.355 . S
C2961 C134 1.471 . S
C2980 C395 1.334 . S
C2997 C148 1.639 . S
C3016 C535 1.364 . S
C3052 C281 1.377 . S
C3033 C163 1.616 . S
C3088 C2245 1.537 . S
C3069 C162 1.797 . S
C3124 C2017 1.304 . S
C3105 C135 1.630 . S
C3160 C2105 1.546 . S
C3141 C149 1.698 . S
C3177 C176 1.554 . S
C3196 C623 1.219 . S
C3213 C190 1.717 . S
C3232 C763 1.190 . S
C3249 C205 1.702 . S
C3268 C851 1.262 . S
C3285 C204 1.866 . S
C3304 C991 1.314 . S
C3340 C1105 1.146 . S
C3321 C177 1.715 . S
C3376 C1193 1.380 . S
C3357 C191 1.774 . S
C3412 C1079 1.412 . S
C3393 C218 1.642 . S
C3448 C1219 1.424 . S
C3429 C232 1.683 . S
C3465 C247 1.609 . S
C3484 C965 1.449 . S
C3520 C877 1.290 . S
C3501 C246 1.617 . S
C3537 C219 1.643 . S
C3556 C649 1.383 . S
C3592 C737 1.480 . S
C3573 C233 1.643 . S
C3628 C263 1.056 . S
C3609 C6 1.754 . S
C3645 C20 1.523 . S
C3664 C377 0.902 . S
C3700 C481 1.172 . S
C3681 C35 1.634 . S
C3736 C595 1.199 . S
C3717 C34 1.538 . S
C3772 C719 0.966 . S
C3753 C7 1.692 . S
C3808 C823 1.148 . S
C3789 C21 1.535 . S
C3825 C48 1.839 . S
C3844 C833 1.317 . S
C3861 C62 1.596 . S
C3880 C605 1.067 . S
C3897 C77 1.711 . S
C3916 C709 1.417 . S
C3933 C76 1.624 . S
C3952 C367 1.341 . S
C3988 C491 1.205 . S
C3969 C49 1.764 . S
C4005 C63 1.607 . S
C4024 C253 1.303 . S
C4060 C947 0.989 . S
C4041 C90 1.681 . S
C4077 C104 1.702 . S
C4096 C1061 0.951 . S
C4113 C119 1.655 . S
C4132 C1165 1.214 . S
C4168 C1279 1.104 . S
C4149 C118 1.262 . S
C4185 C91 1.619 . S
C4204 C1403 1.008 . S
C4221 C105 1.379 . S
C4240 C1507 1.187 . S
C4257 C132 1.498 . S
C4276 C1517 0.823 1_565 S
C4293 C146 1.404 . S
C4312 C1289 0.865 . S
C4348 C1393 1.396 . S
C4329 C161 1.648 . S
C4365 C160 1.551 . S
C4384 C1051 1.279 . S
C4401 C133 1.772 . S
C4420 C1175 1.263 . S
C4456 C937 1.469 . S
C4437 C147 1.766 . S
C4492 C1631 0.883 . S
C4473 C174 1.499 . S
C4509 C188 1.385 . S
C4528 C1745 0.989 . S
C4545 C203 1.567 . S
C4564 C1849 1.225 . S
C4600 C1963 1.164 . S
C4581 C202 1.470 . S
C4636 C2087 1.093 . S
C4617 C175 1.707 . S
C4653 C189 1.699 . S
C4672 C2191 1.225 . S
C4689 C216 1.758 . S
C4708 C2201 1.192 . S
C4725 C230 1.762 . S
C4744 C1973 1.211 . S
C4780 C2077 1.499 . S
C4761 C245 1.724 . S
C4816 C1735 0.920 1_655 S
C4797 C244 1.261 . S
C4852 C1859 1.195 . S
C4833 C217 1.698 . S
C4869 C231 1.404 . S
C4888 C1621 1.172 1_545 S
