# Generated by pormake.
# Topology bpr, (3,3)-cn, num edge types: 1
# Building blocks:
#     Node 0, Type 0, BuildingBlock: WUSLED_clean_sbu_0, # of connection points: 3
#     Node 1, Type 0, BuildingBlock: WUSLED_clean_sbu_0, # of connection points: 3
#     Node 2, Type 0, BuildingBlock: WUSLED_clean_sbu_0, # of connection points: 3
#     Node 3, Type 0, BuildingBlock: WUSLED_clean_sbu_0, # of connection points: 3
#     Node 4, Type 0, BuildingBlock: WUSLED_clean_sbu_0, # of connection points: 3
#     Node 5, Type 0, BuildingBlock: WUSLED_clean_sbu_0, # of connection points: 3
#     Node 6, Type 0, BuildingBlock: WUSLED_clean_sbu_0, # of connection points: 3
#     Node 7, Type 0, BuildingBlock: WUSLED_clean_sbu_0, # of connection points: 3
#     Node 8, Type 0, BuildingBlock: WUSLED_clean_sbu_0, # of connection points: 3
#     Node 9, Type 0, BuildingBlock: WUSLED_clean_sbu_0, # of connection points: 3
#     Node 10, Type 0, BuildingBlock: WUSLED_clean_sbu_0, # of connection points: 3
#     Node 11, Type 0, BuildingBlock: WUSLED_clean_sbu_0, # of connection points: 3
#     Node 12, Type 0, BuildingBlock: WUSLED_clean_sbu_0, # of connection points: 3
#     Node 13, Type 0, BuildingBlock: WUSLED_clean_sbu_0, # of connection points: 3
#     Node 14, Type 0, BuildingBlock: WUSLED_clean_sbu_0, # of connection points: 3
#     Node 15, Type 0, BuildingBlock: WUSLED_clean_sbu_0, # of connection points: 3
#     Node 16, Type 0, BuildingBlock: WUSLED_clean_sbu_0, # of connection points: 3
#     Node 17, Type 0, BuildingBlock: WUSLED_clean_sbu_0, # of connection points: 3
#     Node 18, Type 0, BuildingBlock: WUSLED_clean_sbu_0, # of connection points: 3
#     Node 19, Type 0, BuildingBlock: WUSLED_clean_sbu_0, # of connection points: 3
#     Node 20, Type 0, BuildingBlock: WUSLED_clean_sbu_0, # of connection points: 3
#     Node 21, Type 0, BuildingBlock: WUSLED_clean_sbu_0, # of connection points: 3
#     Node 22, Type 0, BuildingBlock: WUSLED_clean_sbu_0, # of connection points: 3
#     Node 23, Type 0, BuildingBlock: WUSLED_clean_sbu_0, # of connection points: 3
#     Node 24, Type 0, BuildingBlock: WUSLED_clean_sbu_0, # of connection points: 3
#     Node 25, Type 0, BuildingBlock: WUSLED_clean_sbu_0, # of connection points: 3
#     Node 26, Type 0, BuildingBlock: WUSLED_clean_sbu_0, # of connection points: 3
#     Node 27, Type 0, BuildingBlock: WUSLED_clean_sbu_0, # of connection points: 3
#     Node 28, Type 0, BuildingBlock: WUSLED_clean_sbu_0, # of connection points: 3
#     Node 29, Type 0, BuildingBlock: WUSLED_clean_sbu_0, # of connection points: 3
#     Node 30, Type 0, BuildingBlock: WUSLED_clean_sbu_0, # of connection points: 3
#     Node 31, Type 0, BuildingBlock: WUSLED_clean_sbu_0, # of connection points: 3
#     Node 32, Type 0, BuildingBlock: WUSLED_clean_sbu_0, # of connection points: 3
#     Node 33, Type 0, BuildingBlock: WUSLED_clean_sbu_0, # of connection points: 3
#     Node 34, Type 0, BuildingBlock: WUSLED_clean_sbu_0, # of connection points: 3
#     Node 35, Type 0, BuildingBlock: WUSLED_clean_sbu_0, # of connection points: 3
#     Node 36, Type 0, BuildingBlock: WUSLED_clean_sbu_0, # of connection points: 3
#     Node 37, Type 0, BuildingBlock: WUSLED_clean_sbu_0, # of connection points: 3
#     Node 38, Type 0, BuildingBlock: WUSLED_clean_sbu_0, # of connection points: 3
#     Node 39, Type 0, BuildingBlock: WUSLED_clean_sbu_0, # of connection points: 3
#     Node 40, Type 0, BuildingBlock: WUSLED_clean_sbu_0, # of connection points: 3
#     Node 41, Type 0, BuildingBlock: WUSLED_clean_sbu_0, # of connection points: 3
#     Node 42, Type 0, BuildingBlock: WUSLED_clean_sbu_0, # of connection points: 3
#     Node 43, Type 0, BuildingBlock: WUSLED_clean_sbu_0, # of connection points: 3
#     Node 44, Type 0, BuildingBlock: WUSLED_clean_sbu_0, # of connection points: 3
#     Node 45, Type 0, BuildingBlock: WUSLED_clean_sbu_0, # of connection points: 3
#     Node 46, Type 0, BuildingBlock: WUSLED_clean_sbu_0, # of connection points: 3
#     Node 47, Type 0, BuildingBlock: WUSLED_clean_sbu_0, # of connection points: 3
#     Node 48, Type 1, BuildingBlock: QEWDON_clean_linker_0, # of connection points: 3
#     Node 49, Type 1, BuildingBlock: QEWDON_clean_linker_0, # of connection points: 3
#     Node 50, Type 1, BuildingBlock: QEWDON_clean_linker_0, # of connection points: 3
#     Node 51, Type 1, BuildingBlock: QEWDON_clean_linker_0, # of connection points: 3
#     Node 52, Type 1, BuildingBlock: QEWDON_clean_linker_0, # of connection points: 3
#     Node 53, Type 1, BuildingBlock: QEWDON_clean_linker_0, # of connection points: 3
#     Node 54, Type 1, BuildingBlock: QEWDON_clean_linker_0, # of connection points: 3
#     Node 55, Type 1, BuildingBlock: QEWDON_clean_linker_0, # of connection points: 3
#     Node 56, Type 1, BuildingBlock: QEWDON_clean_linker_0, # of connection points: 3
#     Node 57, Type 1, BuildingBlock: QEWDON_clean_linker_0, # of connection points: 3
#     Node 58, Type 1, BuildingBlock: QEWDON_clean_linker_0, # of connection points: 3
#     Node 59, Type 1, BuildingBlock: QEWDON_clean_linker_0, # of connection points: 3
#     Node 60, Type 1, BuildingBlock: QEWDON_clean_linker_0, # of connection points: 3
#     Node 61, Type 1, BuildingBlock: QEWDON_clean_linker_0, # of connection points: 3
#     Node 62, Type 1, BuildingBlock: QEWDON_clean_linker_0, # of connection points: 3
#     Node 63, Type 1, BuildingBlock: QEWDON_clean_linker_0, # of connection points: 3
#     Node 64, Type 1, BuildingBlock: QEWDON_clean_linker_0, # of connection points: 3
#     Node 65, Type 1, BuildingBlock: QEWDON_clean_linker_0, # of connection points: 3
#     Node 66, Type 1, BuildingBlock: QEWDON_clean_linker_0, # of connection points: 3
#     Node 67, Type 1, BuildingBlock: QEWDON_clean_linker_0, # of connection points: 3
#     Node 68, Type 1, BuildingBlock: QEWDON_clean_linker_0, # of connection points: 3
#     Node 69, Type 1, BuildingBlock: QEWDON_clean_linker_0, # of connection points: 3
#     Node 70, Type 1, BuildingBlock: QEWDON_clean_linker_0, # of connection points: 3
#     Node 71, Type 1, BuildingBlock: QEWDON_clean_linker_0, # of connection points: 3
#     Node 72, Type 1, BuildingBlock: QEWDON_clean_linker_0, # of connection points: 3
#     Node 73, Type 1, BuildingBlock: QEWDON_clean_linker_0, # of connection points: 3
#     Node 74, Type 1, BuildingBlock: QEWDON_clean_linker_0, # of connection points: 3
#     Node 75, Type 1, BuildingBlock: QEWDON_clean_linker_0, # of connection points: 3
#     Node 76, Type 1, BuildingBlock: QEWDON_clean_linker_0, # of connection points: 3
#     Node 77, Type 1, BuildingBlock: QEWDON_clean_linker_0, # of connection points: 3
#     Node 78, Type 1, BuildingBlock: QEWDON_clean_linker_0, # of connection points: 3
#     Node 79, Type 1, BuildingBlock: QEWDON_clean_linker_0, # of connection points: 3
#     Node 80, Type 1, BuildingBlock: QEWDON_clean_linker_0, # of connection points: 3
#     Node 81, Type 1, BuildingBlock: QEWDON_clean_linker_0, # of connection points: 3
#     Node 82, Type 1, BuildingBlock: QEWDON_clean_linker_0, # of connection points: 3
#     Node 83, Type 1, BuildingBlock: QEWDON_clean_linker_0, # of connection points: 3
#     Node 84, Type 1, BuildingBlock: QEWDON_clean_linker_0, # of connection points: 3
#     Node 85, Type 1, BuildingBlock: QEWDON_clean_linker_0, # of connection points: 3
#     Node 86, Type 1, BuildingBlock: QEWDON_clean_linker_0, # of connection points: 3
#     Node 87, Type 1, BuildingBlock: QEWDON_clean_linker_0, # of connection points: 3
#     Node 88, Type 1, BuildingBlock: QEWDON_clean_linker_0, # of connection points: 3
#     Node 89, Type 1, BuildingBlock: QEWDON_clean_linker_0, # of connection points: 3
#     Node 90, Type 1, BuildingBlock: QEWDON_clean_linker_0, # of connection points: 3
#     Node 91, Type 1, BuildingBlock: QEWDON_clean_linker_0, # of connection points: 3
#     Node 92, Type 1, BuildingBlock: QEWDON_clean_linker_0, # of connection points: 3
#     Node 93, Type 1, BuildingBlock: QEWDON_clean_linker_0, # of connection points: 3
#     Node 94, Type 1, BuildingBlock: QEWDON_clean_linker_0, # of connection points: 3
#     Node 95, Type 1, BuildingBlock: QEWDON_clean_linker_0, # of connection points: 3
#     Edge 96, Type (0, 1), BuildingBlock: OJICUG_clean_linker_0, # of connection points: 2
#     Edge 97, Type (0, 1), BuildingBlock: OJICUG_clean_linker_0, # of connection points: 2
#     Edge 98, Type (0, 1), BuildingBlock: OJICUG_clean_linker_0, # of connection points: 2
#     Edge 99, Type (0, 1), BuildingBlock: OJICUG_clean_linker_0, # of connection points: 2
#     Edge 100, Type (0, 1), BuildingBlock: OJICUG_clean_linker_0, # of connection points: 2
#     Edge 101, Type (0, 1), BuildingBlock: OJICUG_clean_linker_0, # of connection points: 2
#     Edge 102, Type (0, 1), BuildingBlock: OJICUG_clean_linker_0, # of connection points: 2
#     Edge 103, Type (0, 1), BuildingBlock: OJICUG_clean_linker_0, # of connection points: 2
#     Edge 104, Type (0, 1), BuildingBlock: OJICUG_clean_linker_0, # of connection points: 2
#     Edge 105, Type (0, 1), BuildingBlock: OJICUG_clean_linker_0, # of connection points: 2
#     Edge 106, Type (0, 1), BuildingBlock: OJICUG_clean_linker_0, # of connection points: 2
#     Edge 107, Type (0, 1), BuildingBlock: OJICUG_clean_linker_0, # of connection points: 2
#     Edge 108, Type (0, 1), BuildingBlock: OJICUG_clean_linker_0, # of connection points: 2
#     Edge 109, Type (0, 1), BuildingBlock: OJICUG_clean_linker_0, # of connection points: 2
#     Edge 110, Type (0, 1), BuildingBlock: OJICUG_clean_linker_0, # of connection points: 2
#     Edge 111, Type (0, 1), BuildingBlock: OJICUG_clean_linker_0, # of connection points: 2
#     Edge 112, Type (0, 1), BuildingBlock: OJICUG_clean_linker_0, # of connection points: 2
#     Edge 113, Type (0, 1), BuildingBlock: OJICUG_clean_linker_0, # of connection points: 2
#     Edge 114, Type (0, 1), BuildingBlock: OJICUG_clean_linker_0, # of connection points: 2
#     Edge 115, Type (0, 1), BuildingBlock: OJICUG_clean_linker_0, # of connection points: 2
#     Edge 116, Type (0, 1), BuildingBlock: OJICUG_clean_linker_0, # of connection points: 2
#     Edge 117, Type (0, 1), BuildingBlock: OJICUG_clean_linker_0, # of connection points: 2
#     Edge 118, Type (0, 1), BuildingBlock: OJICUG_clean_linker_0, # of connection points: 2
#     Edge 119, Type (0, 1), BuildingBlock: OJICUG_clean_linker_0, # of connection points: 2
#     Edge 120, Type (0, 1), BuildingBlock: OJICUG_clean_linker_0, # of connection points: 2
#     Edge 121, Type (0, 1), BuildingBlock: OJICUG_clean_linker_0, # of connection points: 2
#     Edge 122, Type (0, 1), BuildingBlock: OJICUG_clean_linker_0, # of connection points: 2
#     Edge 123, Type (0, 1), BuildingBlock: OJICUG_clean_linker_0, # of connection points: 2
#     Edge 124, Type (0, 1), BuildingBlock: OJICUG_clean_linker_0, # of connection points: 2
#     Edge 125, Type (0, 1), BuildingBlock: OJICUG_clean_linker_0, # of connection points: 2
#     Edge 126, Type (0, 1), BuildingBlock: OJICUG_clean_linker_0, # of connection points: 2
#     Edge 127, Type (0, 1), BuildingBlock: OJICUG_clean_linker_0, # of connection points: 2
#     Edge 128, Type (0, 1), BuildingBlock: OJICUG_clean_linker_0, # of connection points: 2
#     Edge 129, Type (0, 1), BuildingBlock: OJICUG_clean_linker_0, # of connection points: 2
#     Edge 130, Type (0, 1), BuildingBlock: OJICUG_clean_linker_0, # of connection points: 2
#     Edge 131, Type (0, 1), BuildingBlock: OJICUG_clean_linker_0, # of connection points: 2
#     Edge 132, Type (0, 1), BuildingBlock: OJICUG_clean_linker_0, # of connection points: 2
#     Edge 133, Type (0, 1), BuildingBlock: OJICUG_clean_linker_0, # of connection points: 2
#     Edge 134, Type (0, 1), BuildingBlock: OJICUG_clean_linker_0, # of connection points: 2
#     Edge 135, Type (0, 1), BuildingBlock: OJICUG_clean_linker_0, # of connection points: 2
#     Edge 136, Type (0, 1), BuildingBlock: OJICUG_clean_linker_0, # of connection points: 2
#     Edge 137, Type (0, 1), BuildingBlock: OJICUG_clean_linker_0, # of connection points: 2
#     Edge 138, Type (0, 1), BuildingBlock: OJICUG_clean_linker_0, # of connection points: 2
#     Edge 139, Type (0, 1), BuildingBlock: OJICUG_clean_linker_0, # of connection points: 2
#     Edge 140, Type (0, 1), BuildingBlock: OJICUG_clean_linker_0, # of connection points: 2
#     Edge 141, Type (0, 1), BuildingBlock: OJICUG_clean_linker_0, # of connection points: 2
#     Edge 142, Type (0, 1), BuildingBlock: OJICUG_clean_linker_0, # of connection points: 2
#     Edge 143, Type (0, 1), BuildingBlock: OJICUG_clean_linker_0, # of connection points: 2
#     Edge 144, Type (0, 1), BuildingBlock: OJICUG_clean_linker_0, # of connection points: 2
#     Edge 145, Type (0, 1), BuildingBlock: OJICUG_clean_linker_0, # of connection points: 2
#     Edge 146, Type (0, 1), BuildingBlock: OJICUG_clean_linker_0, # of connection points: 2
#     Edge 147, Type (0, 1), BuildingBlock: OJICUG_clean_linker_0, # of connection points: 2
#     Edge 148, Type (0, 1), BuildingBlock: OJICUG_clean_linker_0, # of connection points: 2
#     Edge 149, Type (0, 1), BuildingBlock: OJICUG_clean_linker_0, # of connection points: 2
#     Edge 150, Type (0, 1), BuildingBlock: OJICUG_clean_linker_0, # of connection points: 2
#     Edge 151, Type (0, 1), BuildingBlock: OJICUG_clean_linker_0, # of connection points: 2
#     Edge 152, Type (0, 1), BuildingBlock: OJICUG_clean_linker_0, # of connection points: 2
#     Edge 153, Type (0, 1), BuildingBlock: OJICUG_clean_linker_0, # of connection points: 2
#     Edge 154, Type (0, 1), BuildingBlock: OJICUG_clean_linker_0, # of connection points: 2
#     Edge 155, Type (0, 1), BuildingBlock: OJICUG_clean_linker_0, # of connection points: 2
#     Edge 156, Type (0, 1), BuildingBlock: OJICUG_clean_linker_0, # of connection points: 2
#     Edge 157, Type (0, 1), BuildingBlock: OJICUG_clean_linker_0, # of connection points: 2
#     Edge 158, Type (0, 1), BuildingBlock: OJICUG_clean_linker_0, # of connection points: 2
#     Edge 159, Type (0, 1), BuildingBlock: OJICUG_clean_linker_0, # of connection points: 2
#     Edge 160, Type (0, 1), BuildingBlock: OJICUG_clean_linker_0, # of connection points: 2
#     Edge 161, Type (0, 1), BuildingBlock: OJICUG_clean_linker_0, # of connection points: 2
#     Edge 162, Type (0, 1), BuildingBlock: OJICUG_clean_linker_0, # of connection points: 2
#     Edge 163, Type (0, 1), BuildingBlock: OJICUG_clean_linker_0, # of connection points: 2
#     Edge 164, Type (0, 1), BuildingBlock: OJICUG_clean_linker_0, # of connection points: 2
#     Edge 165, Type (0, 1), BuildingBlock: OJICUG_clean_linker_0, # of connection points: 2
#     Edge 166, Type (0, 1), BuildingBlock: OJICUG_clean_linker_0, # of connection points: 2
#     Edge 167, Type (0, 1), BuildingBlock: OJICUG_clean_linker_0, # of connection points: 2
#     Edge 168, Type (0, 1), BuildingBlock: OJICUG_clean_linker_0, # of connection points: 2
#     Edge 169, Type (0, 1), BuildingBlock: OJICUG_clean_linker_0, # of connection points: 2
#     Edge 170, Type (0, 1), BuildingBlock: OJICUG_clean_linker_0, # of connection points: 2
#     Edge 171, Type (0, 1), BuildingBlock: OJICUG_clean_linker_0, # of connection points: 2
#     Edge 172, Type (0, 1), BuildingBlock: OJICUG_clean_linker_0, # of connection points: 2
#     Edge 173, Type (0, 1), BuildingBlock: OJICUG_clean_linker_0, # of connection points: 2
#     Edge 174, Type (0, 1), BuildingBlock: OJICUG_clean_linker_0, # of connection points: 2
#     Edge 175, Type (0, 1), BuildingBlock: OJICUG_clean_linker_0, # of connection points: 2
#     Edge 176, Type (0, 1), BuildingBlock: OJICUG_clean_linker_0, # of connection points: 2
#     Edge 177, Type (0, 1), BuildingBlock: OJICUG_clean_linker_0, # of connection points: 2
#     Edge 178, Type (0, 1), BuildingBlock: OJICUG_clean_linker_0, # of connection points: 2
#     Edge 179, Type (0, 1), BuildingBlock: OJICUG_clean_linker_0, # of connection points: 2
#     Edge 180, Type (0, 1), BuildingBlock: OJICUG_clean_linker_0, # of connection points: 2
#     Edge 181, Type (0, 1), BuildingBlock: OJICUG_clean_linker_0, # of connection points: 2
#     Edge 182, Type (0, 1), BuildingBlock: OJICUG_clean_linker_0, # of connection points: 2
#     Edge 183, Type (0, 1), BuildingBlock: OJICUG_clean_linker_0, # of connection points: 2
#     Edge 184, Type (0, 1), BuildingBlock: OJICUG_clean_linker_0, # of connection points: 2
#     Edge 185, Type (0, 1), BuildingBlock: OJICUG_clean_linker_0, # of connection points: 2
#     Edge 186, Type (0, 1), BuildingBlock: OJICUG_clean_linker_0, # of connection points: 2
#     Edge 187, Type (0, 1), BuildingBlock: OJICUG_clean_linker_0, # of connection points: 2
#     Edge 188, Type (0, 1), BuildingBlock: OJICUG_clean_linker_0, # of connection points: 2
#     Edge 189, Type (0, 1), BuildingBlock: OJICUG_clean_linker_0, # of connection points: 2
#     Edge 190, Type (0, 1), BuildingBlock: OJICUG_clean_linker_0, # of connection points: 2
#     Edge 191, Type (0, 1), BuildingBlock: OJICUG_clean_linker_0, # of connection points: 2
#     Edge 192, Type (0, 1), BuildingBlock: OJICUG_clean_linker_0, # of connection points: 2
#     Edge 193, Type (0, 1), BuildingBlock: OJICUG_clean_linker_0, # of connection points: 2
#     Edge 194, Type (0, 1), BuildingBlock: OJICUG_clean_linker_0, # of connection points: 2
#     Edge 195, Type (0, 1), BuildingBlock: OJICUG_clean_linker_0, # of connection points: 2
#     Edge 196, Type (0, 1), BuildingBlock: OJICUG_clean_linker_0, # of connection points: 2
#     Edge 197, Type (0, 1), BuildingBlock: OJICUG_clean_linker_0, # of connection points: 2
#     Edge 198, Type (0, 1), BuildingBlock: OJICUG_clean_linker_0, # of connection points: 2
#     Edge 199, Type (0, 1), BuildingBlock: OJICUG_clean_linker_0, # of connection points: 2
#     Edge 200, Type (0, 1), BuildingBlock: OJICUG_clean_linker_0, # of connection points: 2
#     Edge 201, Type (0, 1), BuildingBlock: OJICUG_clean_linker_0, # of connection points: 2
#     Edge 202, Type (0, 1), BuildingBlock: OJICUG_clean_linker_0, # of connection points: 2
#     Edge 203, Type (0, 1), BuildingBlock: OJICUG_clean_linker_0, # of connection points: 2
#     Edge 204, Type (0, 1), BuildingBlock: OJICUG_clean_linker_0, # of connection points: 2
#     Edge 205, Type (0, 1), BuildingBlock: OJICUG_clean_linker_0, # of connection points: 2
#     Edge 206, Type (0, 1), BuildingBlock: OJICUG_clean_linker_0, # of connection points: 2
#     Edge 207, Type (0, 1), BuildingBlock: OJICUG_clean_linker_0, # of connection points: 2
#     Edge 208, Type (0, 1), BuildingBlock: OJICUG_clean_linker_0, # of connection points: 2
#     Edge 209, Type (0, 1), BuildingBlock: OJICUG_clean_linker_0, # of connection points: 2
#     Edge 210, Type (0, 1), BuildingBlock: OJICUG_clean_linker_0, # of connection points: 2
#     Edge 211, Type (0, 1), BuildingBlock: OJICUG_clean_linker_0, # of connection points: 2
#     Edge 212, Type (0, 1), BuildingBlock: OJICUG_clean_linker_0, # of connection points: 2
#     Edge 213, Type (0, 1), BuildingBlock: OJICUG_clean_linker_0, # of connection points: 2
#     Edge 214, Type (0, 1), BuildingBlock: OJICUG_clean_linker_0, # of connection points: 2
#     Edge 215, Type (0, 1), BuildingBlock: OJICUG_clean_linker_0, # of connection points: 2
#     Edge 216, Type (0, 1), BuildingBlock: OJICUG_clean_linker_0, # of connection points: 2
#     Edge 217, Type (0, 1), BuildingBlock: OJICUG_clean_linker_0, # of connection points: 2
#     Edge 218, Type (0, 1), BuildingBlock: OJICUG_clean_linker_0, # of connection points: 2
#     Edge 219, Type (0, 1), BuildingBlock: OJICUG_clean_linker_0, # of connection points: 2
#     Edge 220, Type (0, 1), BuildingBlock: OJICUG_clean_linker_0, # of connection points: 2
#     Edge 221, Type (0, 1), BuildingBlock: OJICUG_clean_linker_0, # of connection points: 2
#     Edge 222, Type (0, 1), BuildingBlock: OJICUG_clean_linker_0, # of connection points: 2
#     Edge 223, Type (0, 1), BuildingBlock: OJICUG_clean_linker_0, # of connection points: 2
#     Edge 224, Type (0, 1), BuildingBlock: OJICUG_clean_linker_0, # of connection points: 2
#     Edge 225, Type (0, 1), BuildingBlock: OJICUG_clean_linker_0, # of connection points: 2
#     Edge 226, Type (0, 1), BuildingBlock: OJICUG_clean_linker_0, # of connection points: 2
#     Edge 227, Type (0, 1), BuildingBlock: OJICUG_clean_linker_0, # of connection points: 2
#     Edge 228, Type (0, 1), BuildingBlock: OJICUG_clean_linker_0, # of connection points: 2
#     Edge 229, Type (0, 1), BuildingBlock: OJICUG_clean_linker_0, # of connection points: 2
#     Edge 230, Type (0, 1), BuildingBlock: OJICUG_clean_linker_0, # of connection points: 2
#     Edge 231, Type (0, 1), BuildingBlock: OJICUG_clean_linker_0, # of connection points: 2
#     Edge 232, Type (0, 1), BuildingBlock: OJICUG_clean_linker_0, # of connection points: 2
#     Edge 233, Type (0, 1), BuildingBlock: OJICUG_clean_linker_0, # of connection points: 2
#     Edge 234, Type (0, 1), BuildingBlock: OJICUG_clean_linker_0, # of connection points: 2
#     Edge 235, Type (0, 1), BuildingBlock: OJICUG_clean_linker_0, # of connection points: 2
#     Edge 236, Type (0, 1), BuildingBlock: OJICUG_clean_linker_0, # of connection points: 2
#     Edge 237, Type (0, 1), BuildingBlock: OJICUG_clean_linker_0, # of connection points: 2
#     Edge 238, Type (0, 1), BuildingBlock: OJICUG_clean_linker_0, # of connection points: 2
#     Edge 239, Type (0, 1), BuildingBlock: OJICUG_clean_linker_0, # of connection points: 2
# Relax obj value: 0.037
# Max RMSD: 0.184
# Mean RMSD: 0.071
data_MOF--net-bpr--node1-WUSLED_clean_sbu_0--node2-QEWDON_clean_linker_0--edge1-OJICUG_clean_linker_0
_symmetry_space_group_name_H-M    P1
_symmetry_Int_Tables_number       1
_symmetry_cell_setting            triclinic
loop_
_symmetry_equiv_pos_as_xyz
'x, y, z'
_cell_length_a     83.146515
_cell_length_b     83.995631
_cell_length_c     88.327719
_cell_angle_alpha  86.586149
_cell_angle_beta   95.033437
_cell_angle_gamma 113.06213
loop_
_atom_site_label
_atom_site_type_symbol
_atom_site_fract_x
_atom_site_fract_y
_atom_site_fract_z
_atom_type_partial_charge
C0 C 0.99359 0.41998 0.26577 0.0
C1 C 0.99534 0.418 0.28163 0.0
C2 C 0.97835 0.43554 0.28461 0.0
C3 C 0.98783 0.42573 0.29096 0.0
C4 C 0.97654 0.43732 0.26868 0.0
C5 C 0.9841 0.42962 0.25937 0.0
U6 U 0.01742 0.39045 0.25765 0.0
O7 O 0.0147 0.376 0.23673 0.0
O8 O 0.03977 0.39714 0.24352 0.0
C9 C 0.03083 0.38555 0.23333 0.0
C10 C 1.00206 0.41268 0.25572 0.0
C11 C 0.04034 0.37841 0.22407 0.0
C12 C 0.04258 0.36849 0.19923 0.0
C13 C 0.03295 0.37253 0.20952 0.0
C14 C 0.06718 0.37567 0.21799 0.0
C15 C 0.05993 0.37022 0.20321 0.0
C16 C 0.05753 0.3798 0.22827 0.0
C17 C 0.02432 0.36326 0.2945 0.0
C18 C 0.04708 0.35402 0.30593 0.0
C19 C 0.02031 0.34682 0.31852 0.0
C20 C 1.01397 0.35499 0.3066 0.0
C21 C 0.03718 0.34671 0.3186 0.0
C22 C 0.04074 0.36229 0.29401 0.0
C23 C 0.01873 0.37497 0.28423 0.0
O24 O 0.019 0.41711 0.25862 0.0
O25 O 0.99374 0.39622 0.25269 0.0
O26 O 1.00598 0.36829 0.27368 0.0
O27 O 0.03085 0.3898 0.28008 0.0
H28 H 1.00268 0.41065 0.28679 0.0
H29 H 0.9897 0.42423 0.30317 0.0
H30 H 0.96913 0.44451 0.26336 0.0
H31 H 0.9826 0.43127 0.24714 0.0
H32 H 0.03641 0.36404 0.18811 0.0
H33 H 0.01982 0.3716 0.20589 0.0
H34 H 0.08053 0.37726 0.22146 0.0
H35 H 0.06369 0.38456 0.23932 0.0
H36 H 0.06019 0.35432 0.30565 0.0
H37 H 1.01224 0.34117 0.32796 0.0
H38 H 1.0013 0.35567 0.30727 0.0
H39 H 0.04902 0.36867 0.28485 0.0
C40 C 0.96054 0.83131 0.55063 0.0
C41 C 0.96588 0.83335 0.56617 0.0
C42 C 0.95705 0.802 0.56995 0.0
C43 C 0.96425 0.81888 0.5757 0.0
C44 C 0.95232 0.80019 0.55423 0.0
C45 C 0.95405 0.81466 0.54472 0.0
U46 U 0.96057 0.87691 0.54499 0.0
O47 O 0.97236 0.89779 0.52806 0.0
O48 O 0.9438 0.88636 0.52952 0.0
C49 C 0.95709 0.89776 0.52265 0.0
C50 C 0.96038 0.84608 0.54068 0.0
C51 C 0.95441 0.90038 0.50609 0.0
C52 C 0.95182 0.89207 0.47972 0.0
C53 C 0.95485 0.88891 0.49534 0.0
C54 C 0.94792 0.91806 0.48561 0.0
C55 C 0.94835 0.90676 0.47465 0.0
C56 C 0.95096 0.91492 0.50107 0.0
C57 C 0.9617 0.9014 0.58104 0.0
C58 C 0.94894 0.9227 0.58344 0.0
C59 C 0.96498 0.91536 0.60507 0.0
C60 C 0.96844 0.90398 0.59621 0.0
C61 C 0.95478 0.92441 0.59889 0.0
C62 C 0.95241 0.91127 0.57453 0.0
C63 C 0.96265 0.88691 0.57299 0.0
O64 O 0.94608 0.84921 0.5406 0.0
O65 O 0.97476 0.86027 0.54122 0.0
O66 O 0.97651 0.89023 0.56532 0.0
O67 O 0.94798 0.87689 0.56579 0.0
H68 H 0.97091 0.84608 0.57101 0.0
H69 H 0.96831 0.82093 0.58766 0.0
H70 H 0.94648 0.7875 0.54933 0.0
H71 H 0.94976 0.81276 0.53278 0.0
H72 H 0.95232 0.88311 0.47163 0.0
H73 H 0.95746 0.87756 0.499 0.0
H74 H 0.94485 0.92923 0.48231 0.0
H75 H 0.95044 0.92386 0.50918 0.0
H76 H 0.94094 0.92948 0.5785 0.0
H77 H 0.9695 0.91643 0.617 0.0
H78 H 0.9756 0.89649 0.60145 0.0
H79 H 0.94711 0.90948 0.56282 0.0
C80 C 0.48419 0.62613 0.76724 0.0
C81 C 0.48099 0.64136 0.76504 0.0
C82 C 0.46668 0.63222 0.73985 0.0
C83 C 0.47242 0.6444 0.75148 0.0
C84 C 0.46959 0.61682 0.74221 0.0
C85 C 0.47834 0.61387 0.75574 0.0
U86 U 0.49739 0.63093 0.81011 0.0
O87 O 0.50042 0.61208 0.82731 0.0
O88 O 0.52301 0.63606 0.82265 0.0
C89 C 0.51725 0.62116 0.83021 0.0
C90 C 0.49379 0.62297 0.78127 0.0
C91 C 0.52903 0.61165 0.83234 0.0
C92 C 0.53404 0.58492 0.83251 0.0
C93 C 0.52372 0.59441 0.82796 0.0
C94 C 0.5555 0.60998 0.84517 0.0
C95 C 0.54985 0.59246 0.84151 0.0
C96 C 0.5452 0.61942 0.84067 0.0
C97 C 0.4784 0.65544 0.83393 0.0
C98 C 0.48402 0.65819 0.86137 0.0
C99 C 0.46303 0.66842 0.84806 0.0
C100 C 0.46643 0.66336 0.83428 0.0
C101 C 0.47156 0.66567 0.86186 0.0
C102 C 0.48738 0.65308 0.84754 0.0
C103 C 0.48056 0.64894 0.81941 0.0
O104 O 0.50667 0.6366 0.78706 0.0
O105 O 0.4841 0.6127 0.79167 0.0
O106 O 0.47358 0.63203 0.81821 0.0
O107 O 0.49618 0.65609 0.81411 0.0
H108 H 0.48521 0.65096 0.77377 0.0
H109 H 0.47014 0.65626 0.75016 0.0
H110 H 0.46542 0.60722 0.73348 0.0
H111 H 0.48065 0.60202 0.75719 0.0
H112 H 0.52937 0.5715 0.82937 0.0
H113 H 0.51132 0.58806 0.82153 0.0
H114 H 0.56743 0.61616 0.85228 0.0
H115 H 0.5495 0.63262 0.84433 0.0
H116 H 0.49099 0.65602 0.87171 0.0
H117 H 0.45312 0.6738 0.84792 0.0
H118 H 0.45932 0.66522 0.82391 0.0
H119 H 0.49669 0.64699 0.8475 0.0
C120 C 0.55218 0.18335 0.07457 0.0
C121 C 0.56082 0.18568 0.08917 0.0
C122 C 0.55704 0.21287 0.0914 0.0
C123 C 0.56331 0.20027 0.09742 0.0
C124 C 0.54731 0.20981 0.0772 0.0
C125 C 0.545 0.19526 0.06886 0.0
U126 U 0.5526 0.13864 0.06935 0.0
O127 O 0.54262 0.12001 0.05083 0.0
O128 O 0.57087 0.13171 0.05726 0.0
C129 C 0.55836 0.12108 0.04824 0.0
C130 C 0.5523 0.16972 0.06471 0.0
C131 C 0.56227 0.12101 0.03232 0.0
C132 C 0.56517 0.13273 1.00638 0.0
C133 C 0.56172 0.13375 0.02151 0.0
C134 C 0.57004 0.10648 0.01292 0.0
C135 C 0.56914 0.11892 1.00187 0.0
C136 C 0.56663 0.10753 0.02794 0.0
C137 C 0.55188 0.10923 0.10377 0.0
C138 C 0.5676 0.09007 0.10513 0.0
C139 C 0.55157 0.09126 0.12638 0.0
C140 C 0.54611 0.10329 0.11827 0.0
C141 C 0.56296 0.08517 0.12009 0.0
C142 C 0.56193 0.1019 0.09694 0.0
C143 C 0.54966 0.12468 0.09685 0.0
O144 O 0.56668 0.16664 0.06629 0.0
O145 O 0.53796 0.15552 0.0635 0.0
O146 O 0.53609 0.12199 0.08703 0.0
O147 O 0.56416 0.13676 0.09228 0.0
H148 H 0.56642 0.17663 0.09391 0.0
H149 H 0.57103 0.20209 0.10818 0.0
H150 H 0.54189 0.21891 0.07229 0.0
H151 H 0.53816 0.19367 0.05768 0.0
H152 H 0.56421 0.14244 0.99812 0.0
H153 H 0.55842 0.1443 0.02471 0.0
H154 H 0.57327 0.09582 0.00992 0.0
H155 H 0.56725 0.09764 0.03616 0.0
H156 H 0.57651 0.08562 0.10017 0.0
H157 H 0.54806 0.08778 0.138 0.0
H158 H 0.53835 0.10879 0.12371 0.0
H159 H 0.56643 0.10627 0.0857 0.0
C160 C 0.01933 0.6359 0.2237 0.0
C161 C 0.01927 0.63238 0.20834 0.0
C162 C 0.98801 0.6268 0.20449 0.0
C163 C 1.00377 0.62791 0.19881 0.0
C164 C 0.9884 0.63101 0.21975 0.0
C165 C 1.00386 0.63549 0.22922 0.0
U166 U 0.06826 0.64437 0.23372 0.0
O167 O 0.08669 0.66072 0.25147 0.0
O168 O 0.08 0.63271 0.25211 0.0
C169 C 0.08874 0.64749 0.25882 0.0
C170 C 0.03491 0.63904 0.23443 0.0
C171 C 0.08901 0.64704 0.27556 0.0
C172 C 0.07454 0.63998 0.29931 0.0
C173 C 0.07368 0.64167 0.28336 0.0
C174 C 0.10605 0.64924 0.29974 0.0
C175 C 0.09076 0.6435 0.30773 0.0
C176 C 0.10516 0.65104 0.2839 0.0
C177 C 0.09865 0.64785 0.20193 0.0
C178 C 0.13058 0.65968 0.20369 0.0
C179 C 0.1144 0.64327 0.18179 0.0
C180 C 0.09865 0.64077 0.18797 0.0
C181 C 0.13061 0.65295 0.18944 0.0
C182 C 0.11474 0.65711 0.2099 0.0
C183 C 0.08169 0.64576 0.20756 0.0
O184 O 0.04083 0.62659 0.23586 0.0
O185 O 0.0475 0.65456 0.23391 0.0
O186 O 0.08102 0.65935 0.21373 0.0
O187 O 0.07348 0.6312 0.21502 0.0
H188 H 0.03107 0.63263 0.20384 0.0
H189 H 1.00398 0.62463 0.18719 0.0
H190 H 0.97666 0.63058 0.22449 0.0
H191 H 1.00361 0.63823 0.24101 0.0
H192 H 0.06249 0.63576 0.305 0.0
H193 H 0.06105 0.63851 0.27711 0.0
H194 H 0.11874 0.65176 0.30563 0.0
H195 H 0.11715 0.65508 0.27809 0.0
H196 H 0.1428 0.66711 0.20995 0.0
H197 H 0.11383 0.63818 0.17069 0.0
H198 H 0.08639 0.6336 0.18163 0.0
H199 H 0.11506 0.6626 0.22077 0.0
C200 C 0.68765 0.76422 0.4925 0.0
C201 C 0.68751 0.76783 0.47679 0.0
C202 C 0.69971 0.7463 0.47305 0.0
C203 C 0.69346 0.75896 0.46717 0.0
C204 C 0.7 0.74293 0.48886 0.0
C205 C 0.69401 0.7518 0.49847 0.0
U206 U 0.66508 0.79487 0.49917 0.0
O207 O 0.64518 0.79178 0.51534 0.0
O208 O 0.67086 0.81413 0.51699 0.0
C209 C 0.65544 0.80587 0.52248 0.0
C210 C 0.6808 0.77299 0.50269 0.0
C211 C 0.64993 0.81206 0.5357 0.0
C212 C 0.63081 0.8067 0.55647 0.0
C213 C 0.6357 0.80095 0.54373 0.0
C214 C 0.6541 0.83486 0.55323 0.0
C215 C 0.64 0.82373 0.56144 0.0
C216 C 0.65904 0.82908 0.54057 0.0
C217 C 0.65143 0.81741 0.46363 0.0
C218 C 0.6488 0.84529 0.46066 0.0
C219 C 0.63656 0.82434 0.4408 0.0
C220 C 0.64222 0.81277 0.44944 0.0
C221 C 0.6401 0.84093 0.44613 0.0
C222 C 0.65436 0.83364 0.46934 0.0
C223 C 0.65897 0.80567 0.47156 0.0
O224 O 0.68921 0.78985 0.50341 0.0
O225 O 0.66369 0.76813 0.50167 0.0
O226 O 0.64796 0.79159 0.47803 0.0
O227 O 0.6738 0.813 0.47978 0.0
H228 H 0.68257 0.77734 0.47196 0.0
H229 H 0.69272 0.76173 0.45506 0.0
H230 H 0.70488 0.73345 0.49385 0.0
H231 H 0.69423 0.74886 0.51058 0.0
H232 H 0.62004 0.7977 0.5626 0.0
H233 H 0.6285 0.78771 0.5403 0.0
H234 H 0.6613 0.84815 0.55651 0.0
H235 H 0.66999 0.83798 0.53455 0.0
H236 H 0.65199 0.85799 0.46511 0.0
H237 H 0.62966 0.82038 0.42982 0.0
H238 H 0.63981 0.8003 0.44483 0.0
H239 H 0.66143 0.83753 0.48028 0.0
C240 C 0.49755 0.42737 0.71262 0.0
C241 C 0.4963 0.42022 0.69838 0.0
C242 C 0.52819 0.42971 0.69922 0.0
C243 C 0.51148 0.42141 0.69173 0.0
C244 C 0.52928 0.43692 0.71345 0.0
C245 C 0.51414 0.43577 0.72005 0.0
U246 U 0.44817 0.41773 0.71285 0.0
O247 O 0.42963 0.4034 0.72994 0.0
O248 O 0.43516 0.43088 0.72525 0.0
C249 C 0.42719 0.41712 0.7338 0.0
C250 C 0.48181 0.42595 0.72012 0.0
C251 C 0.42821 0.41968 0.75034 0.0
C252 C 0.44455 0.42559 0.77506 0.0
C253 C 0.44421 0.42503 0.75916 0.0
C254 C 0.41297 0.41605 0.77344 0.0
C255 C 0.42887 0.42067 0.78249 0.0
C256 C 0.41267 0.41556 0.75759 0.0
C257 C 0.41948 0.40338 0.67462 0.0
C258 C 0.38914 0.38379 0.66885 0.0
C259 C 0.40541 0.40325 0.64921 0.0
C260 C 0.42005 0.4098 0.65956 0.0
C261 C 0.3898 0.39002 0.65366 0.0
C262 C 0.40382 0.39042 0.67925 0.0
C263 C 0.43586 0.40934 0.68465 0.0
O264 O 0.47511 0.43745 0.71582 0.0
O265 O 0.46984 0.41023 0.72172 0.0
O266 O 0.43768 0.39827 0.69513 0.0
O267 O 0.44178 0.42531 0.6894 0.0
H268 H 0.4836 0.41368 0.69244 0.0
H269 H 0.51012 0.41567 0.68079 0.0
H270 H 0.54189 0.44373 0.71941 0.0
H271 H 0.51539 0.44145 0.73101 0.0
H272 H 0.45708 0.42949 0.78155 0.0
H273 H 0.45638 0.42833 0.7538 0.0
H274 H 0.40061 0.41195 0.77863 0.0
H275 H 0.40017 0.41137 0.751 0.0
H276 H 0.37725 0.37381 0.67273 0.0
H277 H 0.40648 0.40827 0.6376 0.0
H278 H 0.43202 0.41966 0.65567 0.0
H279 H 0.403 0.38521 0.6908 0.0
C280 C 0.86788 0.1924 0.0232 0.0
C281 C 0.87887 0.18347 0.02199 0.0
C282 C 0.88312 0.18151 0.04964 0.0
C283 C 0.88646 0.17814 0.03505 0.0
C284 C 0.87206 0.19046 0.05075 0.0
C285 C 0.86454 0.19586 0.03766 0.0
U286 U 0.85481 0.18819 0.98114 0.0
O287 O 0.85832 0.20746 0.96239 0.0
O288 O 0.83181 0.18906 0.96718 0.0
C289 C 0.84144 0.20204 0.95857 0.0
C290 C 0.85979 0.19795 0.00943 0.0
C291 C 0.8346 0.21529 0.95317 0.0
C292 C 0.81937 0.23435 0.95617 0.0
C293 C 0.82573 0.2219 0.96226 0.0
C294 C 0.8305 0.23341 0.93195 0.0
C295 C 0.82166 0.24021 0.94089 0.0
C296 C 0.83686 0.22114 0.93802 0.0
C297 C 0.86585 0.15583 0.96023 0.0
C298 C 0.86499 0.15604 0.93266 0.0
C299 C 0.87126 0.13372 0.94757 0.0
C300 C 0.86969 0.14098 0.96092 0.0
C301 C 0.86902 0.14121 0.93327 0.0
C302 C 0.8634 0.16327 0.94602 0.0
C303 C 0.86512 0.16382 0.97437 0.0
O304 O 0.87061 0.20613 0.99892 0.0
O305 O 0.84495 0.18628 1.00385 0.0
O306 O 0.84937 0.16054 0.97866 0.0
O307 O 0.87567 0.18017 0.97553 0.0
H308 H 0.88159 0.18061 0.01092 0.0
H309 H 0.89502 0.17145 0.03369 0.0
H310 H 0.86887 0.193 0.06174 0.0
H311 H 0.856 0.20262 0.03885 0.0
H312 H 0.81262 0.23935 0.96336 0.0
H313 H 0.82378 0.21749 0.97399 0.0
H314 H 0.83289 0.23788 0.92028 0.0
H315 H 0.84367 0.21621 0.93081 0.0
H316 H 0.86325 0.16217 0.92185 0.0
H317 H 0.87398 0.12209 0.94844 0.0
H318 H 0.87155 0.13504 0.9718 0.0
H319 H 0.86045 0.17478 0.94529 0.0
C320 C 0.21431 0.99288 0.41964 0.0
C321 C 0.21961 0.01054 0.41575 0.0
C322 C 0.18907 0.00753 0.41203 0.0
C323 C 0.20716 0.01779 0.41199 0.0
C324 C 0.18386 0.98994 0.4165 0.0
C325 C 0.19637 0.9827 0.42026 0.0
U326 U 0.26162 0.99702 0.42116 0.0
O327 O 0.27646 0.98408 0.43533 0.0
O328 O 0.27353 0.98173 0.41048 0.0
C329 C 0.28002 0.97756 0.4235 0.0
C330 C 0.22732 0.98482 0.42189 0.0
C331 C 0.27996 0.95995 0.42512 0.0
C332 C 0.26637 0.92879 0.42167 0.0
C333 C 0.26513 0.94504 0.42122 0.0
C334 C 0.29716 0.94229 0.4299 0.0
C335 C 0.28251 0.92731 0.42578 0.0
C336 C 0.29586 0.95838 0.42961 0.0
C337 C 0.29701 0.0423 0.4148 0.0
C338 C 0.32757 0.04769 0.41183 0.0
C339 C 0.31795 0.07152 0.4101 0.0
C340 C 0.30093 0.06005 0.41277 0.0
C341 C 0.33145 0.06549 0.40943 0.0
C342 C 0.31043 0.03615 0.41442 0.0
C343 C 0.27874 0.03047 0.41674 0.0
O344 O 0.23533 0.98491 0.40969 0.0
O345 O 0.23808 0.98918 0.43416 0.0
O346 O 0.27536 0.02316 0.4303 0.0
O347 O 0.27122 0.01969 0.40565 0.0
H348 H 0.2334 0.01863 0.41514 0.0
H349 H 0.21175 0.03129 0.40839 0.0
H350 H 0.17011 0.98168 0.41687 0.0
H351 H 0.192 0.96903 0.42326 0.0
H352 H 0.25484 0.91745 0.41852 0.0
H353 H 0.25274 0.94601 0.41764 0.0
H354 H 0.30966 0.94156 0.43347 0.0
H355 H 0.30746 0.96972 0.43264 0.0
H356 H 0.33771 0.04268 0.41146 0.0
H357 H 0.32059 0.0852 0.40871 0.0
H358 H 0.29077 0.06504 0.41313 0.0
H359 H 0.30761 0.02245 0.41598 0.0
C360 C 0.18292 0.95881 0.67763 0.0
C361 C 0.16561 0.95262 0.68191 0.0
C362 C 0.16023 0.92382 0.6731 0.0
C363 C 0.1544 0.93529 0.67972 0.0
C364 C 0.17754 0.93015 0.66872 0.0
C365 C 0.18877 0.94744 0.67101 0.0
U366 U 0.19292 0.00736 0.68079 0.0
O367 O 0.21301 0.02681 0.69544 0.0
O368 O 0.2135 0.02982 0.67064 0.0
C369 C 0.22149 0.03575 0.68385 0.0
C370 C 0.19506 0.977 0.67982 0.0
C371 C 0.24065 0.04087 0.68499 0.0
C372 C 0.26648 0.0342 0.68383 0.0
C373 C 0.24825 0.02871 0.68421 0.0
C374 C 0.26966 0.06397 0.68554 0.0
C375 C 0.27739 0.05195 0.68424 0.0
C376 C 0.25149 0.05847 0.68588 0.0
C377 C 0.1546 0.02279 0.67619 0.0
C378 C 0.15785 0.05293 0.67547 0.0
C379 C 0.12922 0.03023 0.67036 0.0
C380 C 0.13656 0.01781 0.67265 0.0
C381 C 0.13977 0.04797 0.67158 0.0
C382 C 0.16522 0.04044 0.67769 0.0
C383 C 0.162 0.00938 0.67745 0.0
O384 O 0.1964 0.98742 0.66788 0.0
O385 O 0.19434 0.98402 0.69254 0.0
O386 O 0.16948 0.00731 0.69076 0.0
O387 O 0.17089 0.00898 0.66601 0.0
H388 H 0.16074 0.96119 0.68692 0.0
H389 H 0.14109 0.9309 0.68306 0.0
H390 H 0.1825 0.92165 0.66374 0.0
H391 H 0.20208 0.95195 0.66763 0.0
H392 H 0.272 0.02459 0.68298 0.0
H393 H 0.24007 0.01504 0.68352 0.0
H394 H 0.27756 0.07773 0.68562 0.0
H395 H 0.24585 0.06806 0.68641 0.0
H396 H 0.16636 0.06647 0.67643 0.0
H397 H 0.11523 0.02594 0.66765 0.0
H398 H 0.12814 1.00425 0.67147 0.0
H399 H 0.17921 0.04455 0.68034 0.0
C400 C 0.25778 0.06252 0.86186 0.0
C401 C 0.24113 0.058 0.86729 0.0
C402 C 0.24697 0.08848 0.87063 0.0
C403 C 0.23576 0.07086 0.8716 0.0
C404 C 0.2633 0.09292 0.86451 0.0
C405 C 0.26864 0.08006 0.86018 0.0
U406 U 0.25126 0.01511 0.86151 0.0
O407 O 0.26106 1.00071 0.84715 0.0
O408 O 0.26784 1.00181 0.8718 0.0
C409 C 0.26962 0.99622 0.85873 0.0
C410 C 0.2645 0.0491 0.85927 0.0
C411 C 0.28701 0.99623 0.85643 0.0
C412 C 0.31516 0.00743 0.84509 0.0
C413 C 0.29935 0.00893 0.84766 0.0
C414 C 0.3065 0.98083 0.86026 0.0
C415 C 0.31885 0.99321 0.85123 0.0
C416 C 0.29086 0.98236 0.86282 0.0
C417 C 0.20635 0.98161 0.87234 0.0
C418 C 0.19668 0.95028 0.87165 0.0
C419 C 0.18071 0.96293 0.88523 0.0
C420 C 0.1924 0.97947 0.88113 0.0
C421 C 0.18269 0.94812 0.88058 0.0
C422 C 0.2085 0.96691 0.86763 0.0
C423 C 0.21862 0.99931 0.86868 0.0
O424 O 0.26665 0.04036 0.87157 0.0
O425 O 0.25715 0.03918 0.84756 0.0
O426 O 0.2231 1.00265 0.85456 0.0
O427 O 0.23186 1.00599 0.87875 0.0
H428 H 0.23256 0.04451 0.86873 0.0
H429 H 0.22318 0.06693 0.8764 0.0
H430 H 0.27217 0.10635 0.86342 0.0
H431 H 0.28152 0.08382 0.85599 0.0
H432 H 0.32437 0.01727 0.83813 0.0
H433 H 0.29666 0.01978 0.84263 0.0
H434 H 0.30853 0.96947 0.86487 0.0
H435 H 0.28146 0.97234 0.86952 0.0
H436 H 0.19856 0.93912 0.86789 0.0
H437 H 0.16988 0.96175 0.8918 0.0
H438 H 0.19052 0.99065 0.88484 0.0
H439 H 0.21928 0.96831 0.86091 0.0
C440 C 0.28293 1.00272 0.17699 0.0
C441 C 0.27595 0.98538 0.17261 0.0
C442 C 0.24733 0.98153 0.18084 0.0
C443 C 0.25832 0.97489 0.17451 0.0
C444 C 0.25465 0.99872 0.18577 0.0
C445 C 0.27224 0.00919 0.18384 0.0
U446 U 0.32943 0.01053 0.16721 0.0
O447 O 0.34618 0.02881 0.15076 0.0
O448 O 0.35506 0.03034 0.17501 0.0
C449 C 0.35833 0.03713 0.16126 0.0
C450 C 0.30099 0.01443 0.17382 0.0
C451 C 0.36617 0.05622 0.15968 0.0
C452 C 0.3652 0.08377 0.15026 0.0
C453 C 0.35658 0.06597 0.15359 0.0
C454 C 0.39284 0.08226 0.1596 0.0
C455 C 0.38353 0.09198 0.15282 0.0
C456 C 0.38426 0.06462 0.16297 0.0
C457 C 0.33989 0.96996 0.16297 0.0
C458 C 0.36852 0.96929 0.16019 0.0
C459 C 0.34253 0.94274 0.1591 0.0
C460 C 0.3322 0.95204 0.16114 0.0
C461 C 0.36084 0.95117 0.15887 0.0
C462 C 0.35811 0.97863 0.16227 0.0
C463 C 0.32853 0.97898 0.16607 0.0
O464 O 0.3134 0.01448 0.18414 0.0
O465 O 0.30523 0.01435 0.15984 0.0
O466 O 0.32372 0.98697 0.15442 0.0
O467 O 0.33268 0.98785 0.1786 0.0
H468 H 0.28401 0.9801 0.16735 0.0
H469 H 0.25316 0.96178 0.17048 0.0
H470 H 0.2467 1.00419 0.19096 0.0
H471 H 0.27741 0.02249 0.18741 0.0
H472 H 0.35766 0.09091 0.14512 0.0
H473 H 0.34258 0.05975 0.15096 0.0
H474 H 0.40689 0.08825 0.16206 0.0
H475 H 0.39192 0.05738 0.16769 0.0
H476 H 0.38259 0.97614 0.16016 0.0
H477 H 0.33616 0.92885 0.1579 0.0
H478 H 0.31817 0.94513 0.16157 0.0
H479 H 0.36428 0.99251 0.16363 0.0
C480 C 0.46524 0.32529 0.05577 0.0
C481 C 0.46035 0.32496 0.07064 0.0
C482 C 0.46296 0.29713 0.07619 0.0
C483 C 0.45917 0.31105 0.0807 0.0
C484 C 0.46858 0.29793 0.06145 0.0
C485 C 0.46965 0.31183 0.05136 0.0
U486 U 0.46568 0.37049 0.04637 0.0
O487 O 0.47612 0.38921 0.02751 0.0
O488 O 0.44793 0.37878 0.031 0.0
C489 C 0.46062 0.38916 0.02288 0.0
C490 C 0.46461 0.33893 0.04455 0.0
C491 C 0.45644 0.39068 1.00641 0.0
C492 C 0.45465 0.38271 0.98003 0.0
C493 C 0.45865 0.38021 0.9956 0.0
C494 C 0.44622 0.40597 0.98611 0.0
C495 C 0.44853 0.39577 0.9751 0.0
C496 C 0.45015 0.40346 1.00151 0.0
C497 C 0.47005 0.39948 0.07994 0.0
C498 C 0.45792 0.42158 0.08036 0.0
C499 C 0.47484 0.41641 0.10245 0.0
C500 C 0.47762 0.4038 0.0947 0.0
C501 C 0.4645 0.42498 0.09553 0.0
C502 C 0.46067 0.40886 0.07259 0.0
C503 C 0.47024 0.38385 0.07333 0.0
O504 O 0.45057 0.34253 0.0444 0.0
O505 O 0.47912 0.35285 0.04357 0.0
O506 O 0.48332 0.38594 0.06502 0.0
O507 O 0.45504 0.37312 0.06749 0.0
H508 H 0.4569 0.33521 0.07434 0.0
H509 H 0.45456 0.31092 0.09181 0.0
H510 H 0.4719 0.28768 0.05759 0.0
H511 H 0.47355 0.31185 0.03997 0.0
H512 H 0.45658 0.37462 0.97186 0.0
H513 H 0.46348 0.37024 0.99917 0.0
H514 H 0.44114 0.41584 0.98287 0.0
H515 H 0.44828 0.41162 0.00967 0.0
H516 H 0.44982 0.42797 0.07488 0.0
H517 H 0.48 0.41884 0.11416 0.0
H518 H 0.48491 0.39674 0.10056 0.0
H519 H 0.45474 0.40573 0.06117 0.0
C520 C 1.00383 0.93622 0.21612 0.0
C521 C 1.00316 0.92789 0.20262 0.0
C522 C 0.03502 0.93694 0.20489 0.0
C523 C 0.01861 0.92827 0.19705 0.0
C524 C 0.03555 0.9454 0.21834 0.0
C525 C 0.02014 0.94504 0.22386 0.0
U526 U 0.95487 0.92895 0.21339 0.0
O527 O 0.93467 0.91479 0.22923 0.0
O528 O 0.94174 0.94259 0.22499 0.0
C529 C 0.93276 0.92879 0.23308 0.0
C530 C 0.98776 0.93547 0.22263 0.0
C531 C 0.93318 0.93097 0.24963 0.0
C532 C 0.94873 0.93617 0.2747 0.0
C533 C 0.9489 0.93593 0.25883 0.0
C534 C 0.9172 0.9271 0.27232 0.0
C535 C 0.93281 0.93134 0.28172 0.0
C536 C 0.9174 0.92692 0.25648 0.0
C537 C 0.92925 0.91646 0.17367 0.0
C538 C 0.89778 0.90637 0.16746 0.0
C539 C 0.91719 0.90909 0.14771 0.0
C540 C 0.93158 0.91496 0.15837 0.0
C541 C 0.90004 0.90462 0.15207 0.0
C542 C 0.91225 0.91221 0.17817 0.0
C543 C 0.94477 0.92165 0.18462 0.0
O544 O 0.98208 0.94761 0.21793 0.0
O545 O 0.9751 0.92005 0.22356 0.0
O546 O 0.94507 0.91005 0.19516 0.0
O547 O 0.95065 0.93744 0.18976 0.0
H548 H 0.9907 0.921 0.19645 0.0
H549 H 0.01769 0.92159 0.18669 0.0
H550 H 0.04794 0.95253 0.22449 0.0
H551 H 0.02095 0.95162 0.23426 0.0
H552 H 0.96105 0.93976 0.28149 0.0
H553 H 0.96124 0.93916 0.25378 0.0
H554 H 0.90467 0.9231 0.27721 0.0
H555 H 0.90511 0.92302 0.24959 0.0
H556 H 0.88485 0.90334 0.17125 0.0
H557 H 0.91954 0.9077 0.13609 0.0
H558 H 0.94459 0.91807 0.15468 0.0
H559 H 0.91017 0.91326 0.18994 0.0
C560 C 0.06235 0.69562 0.57839 0.0
C561 C 0.06873 0.69512 0.5936 0.0
C562 C 0.06707 0.7229 0.59809 0.0
C563 C 0.07111 0.7086 0.60331 0.0
C564 C 0.05971 0.72279 0.58308 0.0
C565 C 0.05743 0.70934 0.57335 0.0
U566 U 0.06073 0.65098 0.56871 0.0
O567 O 0.05026 0.63505 0.54841 0.0
O568 O 0.07841 0.64446 0.55538 0.0
C569 C 0.06571 0.63547 0.54559 0.0
C570 C 0.06239 0.68298 0.56738 0.0
C571 C 0.06989 0.6362 0.52958 0.0
C572 C 0.06696 0.64399 0.50277 0.0
C573 C 0.06405 0.64527 0.51801 0.0
C574 C 0.08188 0.62491 0.51058 0.0
C575 C 0.07564 0.63351 0.49884 0.0
C576 C 0.07903 0.62625 0.52573 0.0
C577 C 0.05633 0.61655 0.59981 0.0
C578 C 0.06863 0.59468 0.59893 0.0
C579 C 0.05015 0.59347 0.61906 0.0
C580 C 0.04791 0.60823 0.61282 0.0
C581 C 0.06097 0.58684 0.61245 0.0
C582 C 0.06623 0.60934 0.59261 0.0
C583 C 0.05598 0.63344 0.59466 0.0
O584 O 0.07623 0.67896 0.5688 0.0
O585 O 0.04766 0.66948 0.56476 0.0
O586 O 0.04293 0.63306 0.58495 0.0
O587 O 0.07117 0.64518 0.59106 0.0
H588 H 0.07258 0.68466 0.59781 0.0
H589 H 0.07697 0.70818 0.61469 0.0
H590 H 0.05608 0.73333 0.57869 0.0
H591 H 0.05238 0.70997 0.56169 0.0
H592 H 0.06182 0.65067 0.49402 0.0
H593 H 0.05689 0.65297 0.52071 0.0
H594 H 0.08878 0.61692 0.50806 0.0
H595 H 0.08361 0.61909 0.53447 0.0
H596 H 0.07691 0.58979 0.59352 0.0
H597 H 0.04422 0.58786 0.62957 0.0
H598 H 0.04019 0.61356 0.61852 0.0
H599 H 0.0727 0.61548 0.58244 0.0
C600 C 0.99548 0.62495 0.78736 0.0
C601 C 0.98793 0.63735 0.78576 0.0
C602 C 0.97909 0.63138 0.81193 0.0
C603 C 0.9798 0.64052 0.79791 0.0
C604 C 0.98639 0.61874 0.81328 0.0
C605 C 0.99448 0.6156 0.80117 0.0
U606 U 1.00932 0.63171 0.74625 0.0
O607 O 0.0342 0.63482 0.73685 0.0
O608 O 1.00988 0.61294 0.7301 0.0
C609 C 0.02684 0.62085 0.72872 0.0
C610 C 1.00452 0.62159 0.77491 0.0
C611 C 0.0371 0.61011 0.72699 0.0
C612 C 0.04127 0.58281 0.72939 0.0
C613 C 0.03245 0.5932 0.73316 0.0
C614 C 0.05969 0.60622 0.71361 0.0
C615 C 0.05486 0.5891 0.71935 0.0
C616 C 0.05097 0.61653 0.71739 0.0
C617 C 0.99387 0.66251 0.72008 0.0
C618 C 0.99962 0.66965 0.69345 0.0
C619 C 0.97889 0.67823 0.70481 0.0
C620 C 0.98219 0.67088 0.71872 0.0
C621 C 0.9873 0.6775 0.69185 0.0
C622 C 1.00281 0.66215 0.70743 0.0
C623 C 0.99567 0.65359 0.73463 0.0
O624 O 0.99433 0.6129 0.76346 0.0
O625 O 0.01844 0.63468 0.77052 0.0
O626 O 1.01145 0.6585 0.74148 0.0
O627 O 0.98701 0.63673 0.73503 0.0
H628 H 0.98851 0.64471 0.77518 0.0
H629 H 0.97452 0.65047 0.79645 0.0
H630 H 0.9859 0.61123 0.82376 0.0
H631 H 1.00009 0.60589 0.80265 0.0
H632 H 0.03724 0.56977 0.73416 0.0
H633 H 0.02175 0.58787 0.74054 0.0
H634 H 0.06974 0.6115 0.70559 0.0
H635 H 0.05464 0.62942 0.71229 0.0
H636 H 1.00655 0.66898 0.68385 0.0
H637 H 0.96904 0.68373 0.70413 0.0
H638 H 0.97514 0.67126 0.72836 0.0
H639 H 1.01194 0.65575 0.70828 0.0
C640 C 0.05245 0.19049 0.46265 0.0
C641 C 0.05953 0.19242 0.44844 0.0
C642 C 0.05754 0.22066 0.44416 0.0
C643 C 0.0621 0.20738 0.43931 0.0
C644 C 0.04998 0.21833 0.45822 0.0
C645 C 0.04749 0.20345 0.46733 0.0
U646 U 0.05089 0.1445 0.47107 0.0
O647 O 0.06531 0.13493 0.48882 0.0
O648 O 0.03658 0.12438 0.48779 0.0
C649 C 0.05108 0.12442 0.4951 0.0
C650 C 0.05116 0.17571 0.47316 0.0
C651 C 0.05194 0.1242 0.51185 0.0
C652 C 0.06054 0.13916 0.53577 0.0
C653 C 0.05757 0.13953 0.51992 0.0
C654 C 0.0516 0.10804 0.53572 0.0
C655 C 0.05796 0.12344 0.54387 0.0
C656 C 0.04863 0.10844 0.51988 0.0
C657 C 0.05431 0.11791 0.43891 0.0
C658 C 0.06732 0.09643 0.44218 0.0
C659 C 0.05391 0.10075 0.41763 0.0
C660 C 0.04947 0.11337 0.42368 0.0
C661 C 0.06328 0.09257 0.42675 0.0
C662 C 0.06273 0.10895 0.44828 0.0
C663 C 0.05227 0.13318 0.44438 0.0
O664 O 0.03662 0.16176 0.47176 0.0
O665 O 0.0653 0.17221 0.47517 0.0
O666 O 0.06606 0.14378 0.45226 0.0
O667 O 0.03741 0.13049 0.45026 0.0
H668 H 0.06341 0.18254 0.44457 0.0
H669 H 0.06782 0.20864 0.42852 0.0
H670 H 0.04658 0.22833 0.46251 0.0
H671 H 0.0421 0.20228 0.47827 0.0
H672 H 0.06565 0.15132 0.54159 0.0
H673 H 0.06028 0.15184 0.51392 0.0
H674 H 0.04924 0.0957 0.54156 0.0
H675 H 0.04428 0.09646 0.51383 0.0
H676 H 0.07464 0.09029 0.44933 0.0
H677 H 0.05083 0.09801 0.40565 0.0
H678 H 0.043 0.12015 0.41629 0.0
H679 H 0.06651 0.11223 0.4601 0.0
C680 C 0.51184 0.42625 0.23897 0.0
C681 C 0.51401 0.42605 0.22342 0.0
C682 C 0.49508 0.44195 0.21718 0.0
C683 C 0.50577 0.43382 0.21267 0.0
C684 C 0.49279 0.44196 0.23281 0.0
C685 C 0.50112 0.4342 0.24359 0.0
U686 U 0.53382 0.39471 0.24704 0.0
O687 O 0.55793 0.39636 0.26054 0.0
O688 O 0.53274 0.37567 0.26568 0.0
C689 C 0.54972 0.38275 0.26917 0.0
C690 C 0.52055 0.41792 0.25024 0.0
C691 C 0.55587 0.38327 0.28539 0.0
C692 C 0.56393 0.39678 0.31009 0.0
C693 C 0.55659 0.39625 0.29506 0.0
C694 C 0.56966 0.37134 0.30587 0.0
C695 C 0.5708 0.38443 0.31566 0.0
C696 C 0.56224 0.37075 0.29101 0.0
C697 C 0.53611 0.37114 0.21121 0.0
C698 C 0.55804 0.36133 0.20353 0.0
C699 C 0.52942 0.35191 0.18997 0.0
C700 C 0.52429 0.36127 0.19974 0.0
C701 C 0.54654 0.35227 0.19142 0.0
C702 C 0.55288 0.3707 0.21334 0.0
C703 C 0.53115 0.38304 0.21959 0.0
O704 O 0.51187 0.40126 0.25278 0.0
O705 O 0.53727 0.42192 0.24861 0.0
O706 O 0.54396 0.39721 0.22451 0.0
O707 O 0.51906 0.37597 0.22933 0.0
H708 H 0.52205 0.41981 0.21955 0.0
H709 H 0.50758 0.43318 0.20076 0.0
H710 H 0.48473 0.44814 0.23673 0.0
H711 H 0.4992 0.43443 0.25554 0.0
H712 H 0.56434 0.40695 0.31727 0.0
H713 H 0.55175 0.40606 0.29092 0.0
H714 H 0.57509 0.36181 0.30944 0.0
H715 H 0.56193 0.3607 0.2837 0.0
H716 H 0.57137 0.36202 0.20491 0.0
H717 H 0.52017 0.34487 0.18091 0.0
H718 H 0.51127 0.36137 0.19794 0.0
H719 H 0.56224 0.37817 0.22214 0.0
C720 C 0.4537 0.82717 0.97309 0.0
C721 C 0.43799 0.81524 0.96625 0.0
C722 C 0.45289 0.79709 0.95921 0.0
C723 C 0.4376 0.80045 0.95943 0.0
C724 C 0.4688 0.80959 0.96525 0.0
C725 C 0.46917 0.82434 0.97219 0.0
U726 U 0.45255 0.8722 0.97751 0.0
O727 O 0.43593 0.87973 0.99124 0.0
O728 O 0.46453 0.89158 0.99531 0.0
C729 C 0.44928 0.89014 0.9997 0.0
C730 C 0.45366 0.84144 0.98236 0.0
C731 C 0.44707 0.88907 0.01626 0.0
C732 C 0.4537 0.88131 0.04243 0.0
C733 C 0.45635 0.88211 0.02685 0.0
C734 C 0.43263 0.89455 0.03706 0.0
C735 C 0.44163 0.88736 0.04777 0.0
C736 C 0.43536 0.89543 0.02156 0.0
C737 C 0.45023 0.89823 0.93996 0.0
C738 C 0.43233 0.91447 0.93125 0.0
C739 C 0.45597 0.91557 0.91649 0.0
C740 C 0.46016 0.90466 0.92728 0.0
C741 C 0.44162 0.92007 0.91811 0.0
C742 C 0.43669 0.90375 0.94217 0.0
C743 C 0.45247 0.88391 0.94925 0.0
O744 O 0.46781 0.85586 0.98282 0.0
O745 O 0.43909 0.84418 0.98141 0.0
O746 O 0.43845 0.87297 0.95554 0.0
O747 O 0.46693 0.88752 0.95813 0.0
H748 H 0.42577 0.81689 0.96671 0.0
H749 H 0.42503 0.79116 0.95513 0.0
H750 H 0.48095 0.80773 0.96507 0.0
H751 H 0.4815 0.83323 0.97733 0.0
H752 H 0.46111 0.87591 0.05026 0.0
H753 H 0.46555 0.8772 0.0231 0.0
H754 H 0.42302 0.89908 0.04054 0.0
H755 H 0.4281 0.90092 0.01362 0.0
H756 H 0.42129 0.91785 0.93279 0.0
H757 H 0.46323 0.91956 0.90639 0.0
H758 H 0.47056 0.90048 0.92528 0.0
H759 H 0.42888 0.89906 0.9519 0.0
C760 C 0.98829 0.37475 0.80235 0.0
C761 C 0.98914 0.37827 0.81783 0.0
C762 C 0.01938 0.38024 0.82107 0.0
C763 C 1.00459 0.38107 0.8271 0.0
C764 C 0.01824 0.37643 0.8056 0.0
C765 C 1.0029 0.37372 0.79639 0.0
U766 U 0.93887 0.36421 0.79392 0.0
O767 O 0.92559 0.37677 0.77776 0.0
O768 O 0.92128 0.3496 0.77487 0.0
C769 C 0.91867 0.36324 0.76904 0.0
C770 C 0.97263 0.37255 0.79203 0.0
C771 C 0.92079 0.36678 0.75256 0.0
C772 C 0.93739 0.38356 0.73157 0.0
C773 C 0.93634 0.37912 0.74712 0.0
C774 C 0.90771 0.36278 0.72657 0.0
C775 C 0.92297 0.37567 0.72112 0.0
C776 C 0.90664 0.35843 0.74212 0.0
C777 C 0.91107 0.35243 0.82988 0.0
C778 C 0.88016 0.34596 0.83257 0.0
C779 C 0.89914 0.34468 0.85462 0.0
C780 C 0.91325 0.34945 0.84553 0.0
C781 C 0.88233 0.34262 0.8483 0.0
C782 C 0.89446 0.3508 0.82339 0.0
C783 C 0.92665 0.35734 0.82107 0.0
O784 O 0.9609 0.35666 0.79069 0.0
O785 O 0.96563 0.38402 0.79295 0.0
O786 O 0.9326 0.37297 0.81481 0.0
O787 O 0.92762 0.34549 0.81253 0.0
H788 H 0.97796 0.37904 0.82269 0.0
H789 H 1.00496 0.38387 0.83897 0.0
H790 H 0.02941 0.376 0.80046 0.0
H791 H 1.00255 0.37108 0.78447 0.0
H792 H 0.94941 0.39337 0.72775 0.0
H793 H 0.94751 0.38564 0.75494 0.0
H794 H 0.89629 0.35655 0.71891 0.0
H795 H 0.89452 0.34888 0.74605 0.0
H796 H 0.86739 0.34446 0.82734 0.0
H797 H 0.90144 0.34261 0.8667 0.0
H798 H 0.92599 0.3508 0.85078 0.0
H799 H 0.89255 0.35313 0.8113 0.0
C800 C 0.33548 0.2283 0.53538 0.0
C801 C 0.32677 0.22385 0.54893 0.0
C802 C 0.32752 0.2532 0.55025 0.0
C803 C 0.32271 0.23614 0.55622 0.0
C804 C 0.33614 0.25747 0.53665 0.0
C805 C 0.34003 0.24519 0.52932 0.0
U806 U 0.34758 0.18853 0.53593 0.0
O807 O 0.34245 0.16816 0.51919 0.0
O808 O 0.3695 0.18531 0.5261 0.0
C809 C 0.35923 0.17231 0.5177 0.0
C810 C 0.34062 0.21594 0.52766 0.0
C811 C 0.36496 0.17083 0.50258 0.0
C812 C 0.37978 0.18327 0.47941 0.0
C813 C 0.3724 0.18512 0.49265 0.0
C814 C 0.37212 0.1529 0.48582 0.0
C815 C 0.38012 0.1672 0.47607 0.0
C816 C 0.36461 0.1547 0.49884 0.0
C817 C 0.34715 0.16519 0.57535 0.0
C818 C 0.35634 0.14126 0.58177 0.0
C819 C 0.35001 0.1561 0.60171 0.0
C820 C 0.34579 0.16683 0.59082 0.0
C821 C 0.35556 0.14337 0.59735 0.0
C822 C 0.3523 0.15223 0.57081 0.0
C823 C 0.34411 0.17792 0.56454 0.0
O824 O 0.3565 0.21667 0.53156 0.0
O825 O 0.32895 0.19997 0.52636 0.0
O826 O 0.33145 0.17197 0.55379 0.0
O827 O 0.35826 0.19027 0.55969 0.0
H828 H 0.32322 0.21093 0.55391 0.0
H829 H 0.31606 0.23238 0.56666 0.0
H830 H 0.33973 0.27032 0.53152 0.0
H831 H 0.34671 0.24894 0.5189 0.0
H832 H 0.38578 0.19452 0.47211 0.0
H833 H 0.37293 0.19774 0.49533 0.0
H834 H 0.37183 0.14028 0.48346 0.0
H835 H 0.359 0.14349 0.50631 0.0
H836 H 0.3605 0.13147 0.57812 0.0
H837 H 0.34895 0.15776 0.6136 0.0
H838 H 0.34176 0.17669 0.59453 0.0
H839 H 0.35345 0.1508 0.55889 0.0
C840 C 0.52477 0.66405 0.32538 0.0
C841 C 0.52316 0.6538 0.33882 0.0
C842 C 0.49493 0.65512 0.3424 0.0
C843 C 0.50834 0.64931 0.3472 0.0
C844 C 0.49706 0.66609 0.32938 0.0
C845 C 0.51176 0.67043 0.32096 0.0
U846 U 0.57319 0.67714 0.31733 0.0
O847 O 0.58539 0.66407 0.30419 0.0
O848 O 0.58754 0.69031 0.29728 0.0
C849 C 0.59102 0.67691 0.2942 0.0
C850 C 0.53894 0.66699 0.31513 0.0
C851 C 0.58848 0.67186 0.27821 0.0
C852 C 0.5706 0.65399 0.25756 0.0
C853 C 0.57212 0.66064 0.27202 0.0
C854 C 0.60158 0.67036 0.25502 0.0
C855 C 0.58541 0.65839 0.24906 0.0
C856 C 0.60309 0.67698 0.26949 0.0
C857 C 0.6093 0.69035 0.34886 0.0
C858 C 0.63592 0.68492 0.34846 0.0
C859 C 0.63369 0.70358 0.36737 0.0
C860 C 0.61682 0.70114 0.36124 0.0
C861 C 0.64317 0.6951 0.36128 0.0
C862 C 0.61918 0.6827 0.3422 0.0
C863 C 0.59084 0.68616 0.34362 0.0
O864 O 0.54959 0.68316 0.31263 0.0
O865 O 0.54703 0.65626 0.3169 0.0
O866 O 0.58207 0.66998 0.33981 0.0
O867 O 0.58773 0.69734 0.33398 0.0
H868 H 0.53305 0.64878 0.34261 0.0
H869 H 0.50718 0.64097 0.35722 0.0
H870 H 0.48691 0.67061 0.3252 0.0
H871 H 0.51264 0.67829 0.31064 0.0
H872 H 0.55786 0.6451 0.25317 0.0
H873 H 0.56068 0.65658 0.27855 0.0
H874 H 0.61323 0.674 0.24881 0.0
H875 H 0.61585 0.68561 0.27413 0.0
H876 H 0.64303 0.67835 0.34353 0.0
H877 H 0.63895 0.71139 0.37734 0.0
H878 H 0.60942 0.70718 0.36649 0.0
H879 H 0.61369 0.67448 0.3325 0.0
C880 C 0.13739 0.81016 0.03252 0.0
C881 C 0.13156 0.82382 0.03171 0.0
C882 C 0.1291 0.82337 1.0039 0.0
C883 C 0.12739 0.83031 0.01753 0.0
C884 C 0.13492 0.80966 1.00487 0.0
C885 C 0.13898 0.80314 0.019 0.0
U886 U 0.1437 0.80951 0.07627 0.0
O887 O 0.13867 0.78757 0.09269 0.0
O888 O 0.16538 0.80709 0.09114 0.0
C889 C 0.15527 0.79246 0.09753 0.0
C890 C 0.1422 0.8032 0.04722 0.0
C891 C 0.16236 0.77881 0.09988 0.0
C892 C 0.16867 0.75499 0.09116 0.0
C893 C 0.16202 0.768 0.08821 0.0
C894 C 0.17619 0.76367 0.11734 0.0
C895 C 0.17587 0.7527 0.10579 0.0
C896 C 0.1695 0.77652 0.11441 0.0
C897 C 0.13347 0.84321 0.0976 0.0
C898 C 0.1364 0.84706 0.12498 0.0
C899 C 0.13065 0.86812 0.10786 0.0
C900 C 0.13047 0.85849 0.09545 0.0
C901 C 0.13372 0.86266 0.12283 0.0
C902 C 0.13632 0.83744 0.11246 0.0
C903 C 0.13427 0.8342 0.08404 0.0
O904 O 0.15642 0.81362 0.05473 0.0
O905 O 0.12934 0.79492 0.05602 0.0
O906 O 0.12332 0.81797 0.08274 0.0
O907 O 0.15007 0.837 0.08017 0.0
H908 H 0.13029 0.82946 0.04202 0.0
H909 H 0.12299 0.84089 0.01722 0.0
H910 H 0.13604 0.80371 0.99468 0.0
H911 H 0.14339 0.79256 0.01936 0.0
H912 H 0.16825 0.7468 0.082 0.0
H913 H 0.15658 0.76957 0.07689 0.0
H914 H 0.18126 0.76207 0.1288 0.0
H915 H 0.16978 0.78464 0.12361 0.0
H916 H 0.13865 0.84232 0.1363 0.0
H917 H 0.12896 0.8802 0.10559 0.0
H918 H 0.12835 0.86321 0.08407 0.0
H919 H 0.13869 0.82565 0.11434 0.0
C920 C 0.8064 0.01863 0.63031 0.0
C921 C 0.80615 1.0056 0.64119 0.0
C922 C 0.83507 0.00794 0.63477 0.0
C923 C 0.82031 1.00036 0.64341 0.0
C924 C 0.83477 0.0203 0.62332 0.0
C925 C 0.82068 0.02562 0.62119 0.0
U926 U 0.7581 0.01278 0.62896 0.0
O927 O 0.74515 0.02649 0.6406 0.0
O928 O 0.7432 0.02627 0.61567 0.0
C929 C 0.73889 0.03151 0.62787 0.0
C930 C 0.79249 0.02575 0.62892 0.0
C931 C 0.73859 0.04904 0.62737 0.0
C932 C 0.75272 0.08053 0.62677 0.0
C933 C 0.7538 0.06422 0.62672 0.0
C934 C 0.72129 0.06664 0.62812 0.0
C935 C 0.73644 0.08196 0.62757 0.0
C936 C 0.72238 0.05043 0.628 0.0
C937 C 0.72429 0.96563 0.63242 0.0
C938 C 0.69253 0.95598 0.62957 0.0
C939 C 0.70582 0.93597 0.63902 0.0
C940 C 0.72243 0.94902 0.63776 0.0
C941 C 0.69064 0.93924 0.63494 0.0
C942 C 0.70925 0.96911 0.62839 0.0
C943 C 0.7421 0.97892 0.63124 0.0
O944 O 0.78212 0.0224 0.61636 0.0
O945 O 0.78405 0.02441 0.64115 0.0
O946 O 0.74865 0.98883 0.64303 0.0
O947 O 0.74545 0.98747 0.61816 0.0
H948 H 0.79525 0.99982 0.64832 0.0
H949 H 0.81999 0.99092 0.6524 0.0
H950 H 0.84563 0.02619 0.61616 0.0
H951 H 0.82114 0.03555 0.61262 0.0
H952 H 0.7647 0.09202 0.62646 0.0
H953 H 0.76646 0.06346 0.62629 0.0
H954 H 0.70853 0.06716 0.6285 0.0
H955 H 0.71046 0.03888 0.62849 0.0
H956 H 0.6811 0.95891 0.62633 0.0
H957 H 0.70489 0.92316 0.64283 0.0
H958 H 0.73389 0.94607 0.64086 0.0
H959 H 0.71044 0.98191 0.62428 0.0
C960 C 0.7641 1.00226 0.41814 0.0
C961 C 0.76011 0.9868 0.4106 0.0
C962 C 0.72891 0.97846 0.41365 0.0
C963 C 0.74272 0.97508 0.40831 0.0
C964 C 0.73303 0.994 0.42124 0.0
C965 C 0.75045 1.00577 0.42345 0.0
U966 U 0.81332 0.0132 0.42061 0.0
O967 O 0.83465 0.03479 0.41044 0.0
O968 O 0.83483 0.03126 0.43531 0.0
C969 C 0.84242 0.04095 0.42366 0.0
C970 C 0.78237 0.01485 0.42035 0.0
C971 C 0.84916 0.05993 0.42512 0.0
C972 C 0.85126 0.08835 0.41526 0.0
C973 C 0.84231 0.07029 0.41582 0.0
C974 C 0.87325 0.08592 0.43406 0.0
C975 C 0.86722 0.09628 0.42393 0.0
C976 C 0.86433 0.06795 0.43461 0.0
C977 C 0.82948 0.9771 0.41526 0.0
C978 C 0.85982 0.98259 0.41128 0.0
C979 C 0.8382 0.95316 0.41194 0.0
C980 C 0.82529 0.9593 0.41448 0.0
C981 C 0.85558 0.96472 0.41008 0.0
C982 C 0.84687 0.98872 0.41383 0.0
C983 C 0.8154 0.98329 0.41676 0.0
O984 O 0.79113 0.0127 0.4329 0.0
O985 O 0.79155 0.01822 0.40833 0.0
O986 O 0.81316 0.99331 0.40548 0.0
O987 O 0.81469 0.98886 0.43018 0.0
H988 H 0.77045 0.98382 0.4064 0.0
H989 H 0.74011 0.96342 0.4022 0.0
H990 H 0.72282 0.99696 0.42571 0.0
H991 H 0.75327 0.01762 0.42934 0.0
H992 H 0.84628 0.09595 0.40733 0.0
H993 H 0.83057 0.06442 0.40842 0.0
H994 H 0.88534 0.09165 0.44108 0.0
H995 H 0.86984 0.06023 0.44189 0.0
H996 H 0.87304 0.99187 0.40986 0.0
H997 H 0.83453 0.93932 0.41142 0.0
H998 H 0.81196 0.95013 0.41563 0.0
H999 H 0.85034 1.00254 0.41439 0.0
C1000 C 0.75571 0.95084 0.10871 0.0
C1001 C 0.77084 0.95673 0.1005 0.0
C1002 C 0.77275 0.9284 0.10358 0.0
C1003 C 0.77918 0.9456 0.09786 0.0
C1004 C 0.75743 0.92248 0.11153 0.0
C1005 C 0.74899 0.93355 0.11402 0.0
U1006 U 0.76116 0.99582 0.11918 0.0
O1007 O 0.74549 0.01172 0.11364 0.0
O1008 O 0.75111 1.00532 0.13747 0.0
C1009 C 0.74363 0.01346 0.12801 0.0
C1010 C 0.74764 0.96281 0.1128 0.0
C1011 C 0.727 0.01405 0.13225 0.0
C1012 C 0.69535 1.00189 0.13432 0.0
C1013 C 0.7105 1.0007 0.12934 0.0
C1014 C 0.71306 0.02978 0.14491 0.0
C1015 C 0.69643 0.0164 0.14236 0.0
C1016 C 0.72804 0.02861 0.1399 0.0
C1017 C 0.80979 0.02836 0.12044 0.0
C1018 C 0.8212 0.0591 0.12555 0.0
C1019 C 0.84118 0.04508 0.12249 0.0
C1020 C 0.82697 0.02936 0.12021 0.0
C1021 C 0.83851 0.06021 0.12502 0.0
C1022 C 0.80693 0.04327 0.12327 0.0
C1023 C 0.79528 0.01154 0.11771 0.0
O1024 O 0.75175 0.96841 0.12676 0.0
O1025 O 0.748 0.97512 0.10272 0.0
O1026 O 0.78398 0.01087 0.10614 0.0
O1027 O 0.78788 1.00293 0.12982 0.0
H1028 H 0.77645 0.97007 0.09642 0.0
H1029 H 0.79103 0.95064 0.09183 0.0
H1030 H 0.75203 0.90927 0.11596 0.0
H1031 H 0.7374 0.9287 0.12041 0.0
H1032 H 0.68283 0.99138 0.13193 0.0
H1033 H 0.70936 0.98935 0.1234 0.0
H1034 H 0.7147 0.04099 0.15128 0.0
H1035 H 0.74063 0.03906 0.1423 0.0
H1036 H 0.81867 0.07053 0.1273 0.0
H1037 H 0.8543 0.0454 0.1222 0.0
H1038 H 0.82942 0.01794 0.11815 0.0
H1039 H 0.79371 0.0427 0.12354 0.0
C1040 C 0.67708 0.95574 0.88092 0.0
C1041 C 0.66113 0.95282 0.88705 0.0
C1042 C 0.65285 0.92156 0.8863 0.0
C1043 C 0.64913 0.93589 0.88975 0.0
C1044 C 0.66891 0.92464 0.88016 0.0
C1045 C 0.68088 0.94156 0.87752 0.0
U1046 U 0.69064 1.00502 0.87764 0.0
O1047 O 0.71542 0.02589 0.88511 0.0
O1048 O 0.70678 0.02358 0.86085 0.0
C1049 C 0.71937 0.03148 0.87116 0.0
C1050 C 0.68987 0.9734 0.87794 0.0
C1051 C 0.73732 0.03455 0.86751 0.0
C1052 C 0.76258 0.02653 0.8694 0.0
C1053 C 0.7449 0.02248 0.87163 0.0
C1054 C 0.76497 0.05434 0.85822 0.0
C1055 C 0.7729 0.04265 0.8629 0.0
C1056 C 0.74738 0.05033 0.86054 0.0
C1057 C 0.65727 0.02465 0.88546 0.0
C1058 C 0.66334 0.05431 0.89209 0.0
C1059 C 0.63361 0.03485 0.88499 0.0
C1060 C 0.63948 0.02172 0.88287 0.0
C1061 C 0.6454 0.05127 0.88982 0.0
C1062 C 0.66923 0.04111 0.88993 0.0
C1063 C 0.66275 0.01011 0.884 0.0
O1064 O 0.68629 0.9813 0.8656 0.0
O1065 O 0.69545 0.98347 0.88973 0.0
O1066 O 0.6745 0.00877 0.8944 0.0
O1067 O 0.6655 0.00713 0.87021 0.0
H1068 H 0.65797 0.96363 0.88976 0.0
H1069 H 0.63702 0.93404 0.89464 0.0
H1070 H 0.67212 0.91399 0.87713 0.0
H1071 H 0.6931 0.94357 0.87272 0.0
H1072 H 0.76827 0.01722 0.87303 0.0
H1073 H 0.73729 0.01015 0.87696 0.0
H1074 H 0.77258 0.06698 0.85343 0.0
H1075 H 0.74177 0.05982 0.85732 0.0
H1076 H 0.6728 0.06676 0.89583 0.0
H1077 H 0.61978 0.03213 0.88276 0.0
H1078 H 0.63006 0.00915 0.87933 0.0
H1079 H 0.68305 0.04368 0.89195 0.0
C1080 C 0.56872 0.68969 0.9815 0.0
C1081 C 0.57492 0.69134 0.96694 0.0
C1082 C 0.57019 0.71816 0.962 0.0
C1083 C 0.57572 0.70549 0.9573 0.0
C1084 C 0.56353 0.7161 0.97643 0.0
C1085 C 0.56283 0.70204 0.98605 0.0
U1086 U 0.56946 0.64477 0.99126 0.0
O1087 O 0.58546 0.63689 0.00886 0.0
O1088 O 0.55675 0.62556 0.00909 0.0
C1089 C 0.57177 0.62632 0.0158 0.0
C1090 C 0.56909 0.6758 0.99241 0.0
C1091 C 0.57343 0.62638 0.03248 0.0
C1092 C 0.57683 0.64017 0.05666 0.0
C1093 C 0.57441 0.64055 0.04072 0.0
C1094 C 0.57709 0.61147 0.05606 0.0
C1095 C 0.57824 0.62561 0.0645 0.0
C1096 C 0.57469 0.61186 0.04026 0.0
C1097 C 0.56926 0.61475 0.96076 0.0
C1098 C 0.58214 0.59313 0.96391 0.0
C1099 C 0.56138 0.59195 0.94254 0.0
C1100 C 0.55957 0.60655 0.94766 0.0
C1101 C 0.57301 0.58533 0.95039 0.0
C1102 C 0.58018 0.60765 0.96911 0.0
C1103 C 0.56837 0.63103 0.96516 0.0
O1104 O 0.55479 0.66155 0.9924 0.0
O1105 O 0.58356 0.67285 0.99346 0.0
O1106 O 0.58283 0.64221 0.97177 0.0
O1107 O 0.55417 0.62945 0.97166 0.0
H1108 H 0.57946 0.68188 0.96317 0.0
H1109 H 0.58081 0.70662 0.94624 0.0
H1110 H 0.55946 0.72572 0.98057 0.0
H1111 H 0.55807 0.70105 0.99725 0.0
H1112 H 0.57756 0.65122 0.06284 0.0
H1113 H 0.57347 0.65188 0.03485 0.0
H1114 H 0.57848 0.6002 0.06165 0.0
H1115 H 0.57409 0.60086 0.03406 0.0
H1116 H 0.59113 0.58828 0.97021 0.0
H1117 H 0.55435 0.58643 0.93196 0.0
H1118 H 0.55102 0.61176 0.9411 0.0
H1119 H 0.5876 0.61362 0.97942 0.0
C1120 C 0.0185 0.14526 0.80511 0.0
C1121 C 0.01697 0.1343 0.81808 0.0
C1122 C 0.98976 0.13678 0.82341 0.0
C1123 C 1.00272 0.13006 0.82708 0.0
C1124 C 0.99191 0.14856 0.81097 0.0
C1125 C 1.00608 0.15268 0.80191 0.0
U1126 U 0.06634 0.15838 0.79632 0.0
O1127 O 0.07858 0.14544 0.78309 0.0
O1128 O 0.08096 0.17188 0.7765 0.0
C1129 C 0.08452 0.15854 0.77338 0.0
C1130 C 0.03212 0.14812 0.79428 0.0
C1131 C 0.08314 0.15417 0.75728 0.0
C1132 C 0.06808 0.13613 0.73574 0.0
C1133 C 0.06794 0.14166 0.7504 0.0
C1134 C 0.09833 0.15608 0.73455 0.0
C1135 C 0.0834 0.14308 0.72776 0.0
C1136 C 0.09818 0.16152 0.74915 0.0
C1137 C 0.1012 0.17222 0.8296 0.0
C1138 C 0.12951 0.16983 0.83051 0.0
C1139 C 0.12156 0.1816 0.85173 0.0
C1140 C 0.10561 0.17967 0.84392 0.0
C1141 C 0.13337 0.17622 0.84528 0.0
C1142 C 0.11343 0.16779 0.82269 0.0
C1143 C 0.08316 0.16742 0.82296 0.0
O1144 O 0.04266 0.16427 0.79159 0.0
O1145 O 0.04024 0.13741 0.79571 0.0
O1146 O 0.07535 0.15129 0.81877 0.0
O1147 O 0.08026 0.17854 0.81313 0.0
H1148 H 0.02646 0.12853 0.82101 0.0
H1149 H 1.00157 0.12111 0.83667 0.0
H1150 H 0.98212 0.15385 0.80769 0.0
H1151 H 1.00696 0.1612 0.79203 0.0
H1152 H 0.05632 0.12623 0.73074 0.0
H1153 H 0.05618 0.13582 0.75651 0.0
H1154 H 0.11041 0.16153 0.72885 0.0
H1155 H 0.1101 0.17106 0.75433 0.0
H1156 H 0.13845 0.16557 0.82539 0.0
H1157 H 0.12439 0.18665 0.8631 0.0
H1158 H 0.09636 0.18321 0.84938 0.0
H1159 H 0.11022 0.16203 0.81161 0.0
C1160 C 0.96084 0.34251 0.45959 0.0
C1161 C 0.95229 0.33894 0.44497 0.0
C1162 C 0.95811 0.31262 0.4444 0.0
C1163 C 0.95088 0.3241 0.43748 0.0
C1164 C 0.96729 0.31672 0.45876 0.0
C1165 C 0.9686 0.33145 0.46625 0.0
U1166 U 0.96122 0.38815 0.46373 0.0
O1167 O 0.94484 0.39633 0.4771 0.0
O1168 O 0.97333 0.40698 0.48196 0.0
C1169 C 0.95815 0.40612 0.48597 0.0
C1170 C 0.96069 0.35676 0.46861 0.0
C1171 C 0.95554 0.40421 0.50242 0.0
C1172 C 0.94704 0.38636 0.52537 0.0
C1173 C 0.95073 0.38806 0.51003 0.0
C1174 C 0.95327 0.41701 0.52579 0.0
C1175 C 0.94807 0.40078 0.53344 0.0
C1176 C 0.95696 0.41868 0.51045 0.0
C1177 C 0.96258 0.41628 0.42702 0.0
C1178 C 0.94698 0.43499 0.41929 0.0
C1179 C 0.96919 0.43397 0.4038 0.0
C1180 C 0.97243 0.42219 0.41423 0.0
C1181 C 0.95602 0.43996 0.406 0.0
C1182 C 0.95034 0.42332 0.42982 0.0
C1183 C 0.96341 0.40106 0.4358 0.0
O1184 O 0.97521 0.37077 0.46961 0.0
O1185 O 0.94649 0.36016 0.46665 0.0
O1186 O 0.94869 0.39046 0.44131 0.0
O1187 O 0.97727 0.40349 0.44521 0.0
H1188 H 0.94627 0.34734 0.43952 0.0
H1189 H 0.94385 0.32144 0.42639 0.0
H1190 H 0.97278 0.3081 0.4646 0.0
H1191 H 0.97519 0.33388 0.47752 0.0
H1192 H 0.94284 0.3736 0.53076 0.0
H1193 H 0.94948 0.37671 0.50402 0.0
H1194 H 0.95444 0.42842 0.53163 0.0
H1195 H 0.96067 0.43128 0.50478 0.0
H1196 H 0.93668 0.43937 0.42109 0.0
H1197 H 0.97614 0.4375 0.39351 0.0
H1198 H 0.98187 0.41689 0.41182 0.0
H1199 H 0.94262 0.41901 0.43963 0.0
C1200 C 0.47193 0.88941 0.77932 0.0
C1201 C 0.46578 0.88198 0.79341 0.0
C1202 C 0.45714 0.90593 0.79752 0.0
C1203 C 0.45837 0.89014 0.80241 0.0
C1204 C 0.46331 0.91325 0.78338 0.0
C1205 C 0.4706 0.90504 0.77437 0.0
U1206 U 0.4974 0.86087 0.77304 0.0
O1207 O 0.49539 0.84513 0.75303 0.0
O1208 O 0.51956 0.868 0.75876 0.0
C1209 C 0.5111 0.85554 0.7492 0.0
C1210 C 0.48039 0.88161 0.76979 0.0
C1211 C 0.52123 0.85001 0.73924 0.0
C1212 C 0.52422 0.84232 0.71377 0.0
C1213 C 0.51408 0.8449 0.72447 0.0
C1214 C 0.54878 0.84939 0.73259 0.0
C1215 C 0.54179 0.84476 0.71761 0.0
C1216 C 0.53863 0.85207 0.74328 0.0
C1217 C 0.50862 0.83788 0.81063 0.0
C1218 C 0.53404 0.83232 0.8211 0.0
C1219 C 0.50832 0.82359 0.83547 0.0
C1220 C 0.49986 0.82976 0.82359 0.0
C1221 C 0.52576 0.82541 0.83463 0.0
C1222 C 0.52556 0.83856 0.80922 0.0
C1223 C 0.50094 0.84801 0.80042 0.0
O1224 O 0.49747 0.8871 0.77217 0.0
O1225 O 0.47275 0.86479 0.76798 0.0
O1226 O 0.48805 0.83978 0.79043 0.0
O1227 O 0.51178 0.86311 0.79535 0.0
H1228 H 0.46685 0.86999 0.79749 0.0
H1229 H 0.45389 0.88425 0.81332 0.0
H1230 H 0.46235 0.92525 0.77919 0.0
H1231 H 0.47532 0.91099 0.76354 0.0
H1232 H 0.51829 0.83847 0.70246 0.0
H1233 H 0.50075 0.84345 0.72103 0.0
H1234 H 0.56228 0.85147 0.73593 0.0
H1235 H 0.54454 0.85623 0.75453 0.0
H1236 H 0.54751 0.83403 0.82009 0.0
H1237 H 0.50147 0.81813 0.84561 0.0
H1238 H 0.48679 0.82915 0.82494 0.0
H1239 H 0.53262 0.84483 0.79935 0.0
C1240 C 0.99228 0.14019 0.25267 0.0
C1241 C 0.97801 0.14506 0.25312 0.0
C1242 C 0.97553 0.14749 0.22534 0.0
C1243 C 0.96967 0.14857 0.23962 0.0
C1244 C 0.98982 0.14251 0.22501 0.0
C1245 C 0.99808 0.13888 0.23853 0.0
U1246 U 1.00342 0.14348 0.29573 0.0
O1247 O 1.00423 0.12357 0.31274 0.0
O1248 O 0.0281 0.14668 0.30919 0.0
C1249 C 0.02117 0.13147 0.3161 0.0
C1250 C 1.00113 0.13633 0.26681 0.0
C1251 C 0.03166 0.12062 0.31743 0.0
C1252 C 0.03496 0.09352 0.31383 0.0
C1253 C 0.02581 0.1044 0.31064 0.0
C1254 C 0.05639 0.11527 0.32996 0.0
C1255 C 0.05021 0.09872 0.32374 0.0
C1256 C 0.04719 0.12604 0.32688 0.0
C1257 C 0.98406 0.16919 0.31823 0.0
C1258 C 0.98703 0.17159 0.34574 0.0
C1259 C 0.96818 0.18314 0.33057 0.0
C1260 C 0.97267 0.17791 0.31737 0.0
C1261 C 0.97503 0.17979 0.345 0.0
C1262 C 0.99144 0.16628 0.33248 0.0
C1263 C 0.98722 0.16253 0.30418 0.0
O1264 O 1.01397 0.14961 0.27308 0.0
O1265 O 0.99075 0.12601 0.27678 0.0
O1266 O 0.97962 0.14569 0.30268 0.0
O1267 O 1.00337 0.16908 0.29997 0.0
H1268 H 0.97329 0.14613 0.26391 0.0
H1269 H 0.95856 0.15208 0.24042 0.0
H1270 H 0.99493 0.14178 0.21433 0.0
H1271 H 1.00909 0.13516 0.23795 0.0
H1272 H 0.02992 0.08088 0.30882 0.0
H1273 H 1.01389 0.0999 0.30325 0.0
H1274 H 0.06789 0.11958 0.33786 0.0
H1275 H 0.05188 0.13841 0.33235 0.0
H1276 H 0.99282 0.169 0.35658 0.0
H1277 H 0.95871 0.18911 0.32945 0.0
H1278 H 0.96681 0.18025 0.30646 0.0
H1279 H 1.00031 0.15959 0.33338 0.0
C1280 C 0.52549 0.14306 0.73547 0.0
C1281 C 0.52603 0.14591 0.71966 0.0
C1282 C 0.49398 0.13463 0.71666 0.0
C1283 C 0.51042 0.14177 0.71035 0.0
C1284 C 0.49365 0.13234 0.73258 0.0
C1285 C 0.50922 0.1365 0.74184 0.0
U1286 U 0.57492 0.15313 0.74241 0.0
O1287 O 0.59388 0.16798 0.76054 0.0
O1288 O 0.58847 0.14044 0.75821 0.0
C1289 C 0.59694 0.15446 0.76605 0.0
C1290 C 0.54154 0.14589 0.74545 0.0
C1291 C 0.59796 0.15194 0.7827 0.0
C1292 C 0.58711 0.15052 0.80767 0.0
C1293 C 0.58567 0.15339 0.79187 0.0
C1294 C 0.61312 0.1448 0.80518 0.0
C1295 C 0.60084 0.14609 0.81453 0.0
C1296 C 0.6117 0.14774 0.7895 0.0
C1297 C 0.60409 0.1617 0.70895 0.0
C1298 C 0.62939 0.15452 0.70604 0.0
C1299 C 0.62526 0.17762 0.69062 0.0
C1300 C 0.60994 0.17475 0.6977 0.0
C1301 C 0.63501 0.16738 0.69454 0.0
C1302 C 0.61413 0.15179 0.71329 0.0
C1303 C 0.58711 0.15817 0.71535 0.0
O1304 O 0.5481 0.13403 0.74499 0.0
O1305 O 0.55359 0.16173 0.74566 0.0
O1306 O 0.58621 0.17067 0.72306 0.0
O1307 O 0.5793 0.14273 0.72163 0.0
H1308 H 0.53847 0.15099 0.71451 0.0
H1309 H 0.51124 0.14389 0.69818 0.0
H1310 H 0.48133 0.12662 0.73789 0.0
H1311 H 0.50851 0.13413 0.75401 0.0
H1312 H 0.57749 0.15178 0.81449 0.0
H1313 H 0.57495 0.15664 0.78682 0.0
H1314 H 0.62363 0.14106 0.8099 0.0
H1315 H 0.62129 0.1465 0.7826 0.0
H1316 H 0.63673 0.14654 0.70935 0.0
H1317 H 0.62915 0.18749 0.68167 0.0
H1318 H 0.60243 0.18251 0.69412 0.0
H1319 H 0.61002 0.14172 0.72205 0.0
C1320 C 0.18284 0.25742 0.97556 0.0
C1321 C 0.17764 0.25773 0.96003 0.0
C1322 C 0.19286 0.23916 0.95478 0.0
C1323 C 0.1826 0.24867 0.94973 0.0
C1324 C 0.19837 0.23932 0.97033 0.0
C1325 C 0.19338 0.24834 0.98058 0.0
U1326 U 0.16277 0.28875 0.98811 0.0
O1327 O 0.14439 0.28346 1.00615 0.0
O1328 O 0.17055 0.30453 1.00857 0.0
C1329 C 0.15565 0.29573 0.01475 0.0
C1330 C 0.17689 0.26577 0.98687 0.0
C1331 C 0.14891 0.30466 0.02494 0.0
C1332 C 0.13605 0.30347 0.04892 0.0
C1333 C 0.14049 0.29528 0.03762 0.0
C1334 C 0.14787 0.33069 0.03484 0.0
C1335 C 0.13999 0.32136 0.04789 0.0
C1336 C 0.15236 0.32242 0.02348 0.0
C1337 C 0.14986 0.3158 0.9545 0.0
C1338 C 0.13279 0.33377 0.95263 0.0
C1339 C 0.14864 0.33248 0.93131 0.0
C1340 C 0.15469 0.32106 0.93965 0.0
C1341 C 0.13758 0.33898 0.93763 0.0
C1342 C 0.13884 0.32219 0.961 0.0
C1343 C 0.15637 0.30333 0.9624 0.0
O1344 O 0.18615 0.28231 0.98894 0.0
O1345 O 0.15992 0.26173 0.98653 0.0
O1346 O 0.14486 0.28914 0.96831 0.0
O1347 O 0.17132 0.30965 0.97066 0.0
H1348 H 0.16947 0.26467 0.95592 0.0
H1349 H 0.17794 0.24871 0.9379 0.0
H1350 H 0.20649 0.23242 0.97462 0.0
H1351 H 0.19758 0.24799 0.99252 0.0
H1352 H 0.12972 0.29575 0.05859 0.0
H1353 H 0.13784 0.28159 0.03906 0.0
H1354 H 0.15122 0.3445 0.03367 0.0
H1355 H 0.15898 0.32999 0.01386 0.0
H1356 H 0.12432 0.33858 0.95784 0.0
H1357 H 0.15299 0.33651 0.91999 0.0
H1358 H 0.16323 0.3163 0.93445 0.0
H1359 H 0.13494 0.31823 0.97246 0.0
C1360 C 0.3563 0.68596 0.54413 0.0
C1361 C 0.36064 0.67147 0.54351 0.0
C1362 C 0.36851 0.67247 0.57086 0.0
C1363 C 0.3666 0.66476 0.55671 0.0
C1364 C 0.36424 0.68711 0.57135 0.0
C1365 C 0.35818 0.69375 0.55813 0.0
U1366 U 0.34931 0.68668 0.50132 0.0
O1367 O 0.32773 0.68822 0.48559 0.0
O1368 O 0.35449 0.70789 0.48425 0.0
C1369 C 0.3381 0.70235 0.47868 0.0
C1370 C 0.35016 0.69312 0.53018 0.0
C1371 C 0.33113 0.71561 0.47366 0.0
C1372 C 0.32758 0.74259 0.47692 0.0
C1373 C 0.33225 0.72901 0.48298 0.0
C1374 C 0.3203 0.72923 0.45236 0.0
C1375 C 0.32197 0.74313 0.46138 0.0
C1376 C 0.32475 0.71565 0.45846 0.0
C1377 C 0.36364 0.65654 0.48027 0.0
C1378 C 0.36184 0.65586 0.45268 0.0
C1379 C 0.37337 0.6372 0.46785 0.0
C1380 C 0.37076 0.64389 0.48111 0.0
C1381 C 0.36889 0.64305 0.45346 0.0
C1382 C 0.35923 0.66254 0.46598 0.0
C1383 C 0.36119 0.6635 0.49436 0.0
O1384 O 0.36252 0.70243 0.52124 0.0
O1385 O 0.33619 0.6822 0.52269 0.0
O1386 O 0.34486 0.65958 0.4974 0.0
O1387 O 0.37129 0.6798 0.49668 0.0
H1388 H 0.35933 0.66528 0.53279 0.0
H1389 H 0.36942 0.65333 0.55583 0.0
H1390 H 0.36574 0.69359 0.58193 0.0
H1391 H 0.35501 0.70502 0.55884 0.0
H1392 H 0.32872 0.75282 0.48435 0.0
H1393 H 0.33715 0.72921 0.49477 0.0
H1394 H 0.31637 0.72914 0.44035 0.0
H1395 H 0.3239 0.70547 0.45105 0.0
H1396 H 0.358 0.66046 0.4418 0.0
H1397 H 0.37898 0.6275 0.46887 0.0
H1398 H 0.37433 0.63919 0.49206 0.0
H1399 H 0.3537 0.67233 0.46514 0.0
C1400 C 0.72005 0.48988 0.93037 0.0
C1401 C 0.72359 0.50636 0.9236 0.0
C1402 C 0.69329 0.50298 0.92558 0.0
C1403 C 0.71036 0.51282 0.92119 0.0
C1404 C 0.69024 0.48703 0.93341 0.0
C1405 C 0.70345 0.48051 0.93568 0.0
U1406 U 0.76668 0.49417 0.92665 0.0
O1407 O 0.78264 0.48022 0.93722 0.0
O1408 O 0.77696 0.48025 0.91243 0.0
C1409 C 0.7848 0.47504 0.92405 0.0
C1410 C 0.73297 0.48179 0.93053 0.0
C1411 C 0.78468 0.45753 0.92336 0.0
C1412 C 0.77038 0.42609 0.92403 0.0
C1413 C 0.76964 0.44241 0.92524 0.0
C1414 C 0.80102 0.44001 0.91893 0.0
C1415 C 0.78611 0.42473 0.92078 0.0
C1416 C 0.80029 0.45617 0.92021 0.0
C1417 C 0.80119 0.53932 0.91966 0.0
C1418 C 0.83154 0.54447 0.91604 0.0
C1419 C 0.82073 0.5672 0.91002 0.0
C1420 C 0.80425 0.55628 0.91455 0.0
C1421 C 0.83451 0.56138 0.91057 0.0
C1422 C 0.81492 0.53344 0.92044 0.0
C1423 C 0.78337 0.52776 0.92326 0.0
O1424 O 0.7394 0.48235 0.91734 0.0
O1425 O 0.74499 0.48555 0.94196 0.0
O1426 O 0.78184 0.51964 0.93659 0.0
O1427 O 0.77405 0.51776 0.91216 0.0
H1428 H 0.73637 0.51387 0.91949 0.0
H1429 H 0.71329 0.52506 0.91505 0.0
H1430 H 0.67742 0.47923 0.93728 0.0
H1431 H 0.70048 0.46784 0.94105 0.0
H1432 H 0.75867 0.41456 0.92556 0.0
H1433 H 0.75743 0.44323 0.9276 0.0
H1434 H 0.81345 0.43951 0.91682 0.0
H1435 H 0.81204 0.4677 0.91875 0.0
H1436 H 0.84196 0.53971 0.91667 0.0
H1437 H 0.82276 0.58031 0.90622 0.0
H1438 H 0.79382 0.56102 0.9139 0.0
H1439 H 0.81273 0.52031 0.92429 0.0
C1440 C 0.67706 0.46207 0.12581 0.0
C1441 C 0.65961 0.45682 0.12947 0.0
C1442 C 0.65375 0.42695 0.12325 0.0
C1443 C 0.64807 0.43943 0.12822 0.0
C1444 C 0.67116 0.43247 0.11923 0.0
C1445 C 0.68267 0.44982 0.12052 0.0
U1446 U 0.69003 0.5105 0.13373 0.0
O1447 O 0.71194 0.52737 0.14859 0.0
O1448 O 0.71084 0.53339 0.12408 0.0
C1449 C 0.71989 0.5374 0.13726 0.0
C1450 C 0.68984 0.47999 0.12807 0.0
C1451 C 0.73901 0.54227 0.13733 0.0
C1452 C 0.76549 0.53665 0.14365 0.0
C1453 C 0.74712 0.53088 0.1425 0.0
C1454 C 0.7677 0.56499 0.1341 0.0
C1455 C 0.77601 0.55391 0.13975 0.0
C1456 C 0.74945 0.55924 0.13294 0.0
C1457 C 0.6549 0.5285 0.13931 0.0
C1458 C 0.66119 0.55885 0.14345 0.0
C1459 C 0.63134 0.53771 0.14346 0.0
C1460 C 0.6371 0.52463 0.14075 0.0
C1461 C 0.64327 0.55504 0.14483 0.0
C1462 C 0.66695 0.5457 0.14073 0.0
C1463 C 0.66047 0.5144 0.13623 0.0
O1464 O 0.68958 0.49145 0.11736 0.0
O1465 O 0.69157 0.48584 0.14185 0.0
O1466 O 0.66888 0.50948 0.14763 0.0
O1467 O 0.66745 0.51561 0.1232 0.0
H1468 H 0.65502 0.46607 0.13359 0.0
H1469 H 0.63486 0.43571 0.13161 0.0
H1470 H 0.67596 0.42335 0.11515 0.0
H1471 H 0.69609 0.45364 0.1176 0.0
H1472 H 0.77145 0.52776 0.148 0.0
H1473 H 0.7393 0.51768 0.14592 0.0
H1474 H 0.77532 0.57822 0.1306 0.0
H1475 H 0.74348 0.56822 0.12886 0.0
H1476 H 0.67078 0.57198 0.14453 0.0
H1477 H 0.61743 0.53427 0.14413 0.0
H1478 H 0.62758 0.51145 0.13963 0.0
H1479 H 0.68077 0.54895 0.13968 0.0
C1480 C 0.77415 0.58536 0.3645 0.0
C1481 C 0.75683 0.57931 0.36878 0.0
C1482 C 0.7609 0.60849 0.37565 0.0
C1483 C 0.75025 0.59076 0.37425 0.0
C1484 C 0.77802 0.61455 0.37076 0.0
C1485 C 0.78456 0.6031 0.36526 0.0
U1486 U 0.77053 0.53919 0.36032 0.0
O1487 O 0.78092 0.52722 0.34409 0.0
O1488 O 0.78845 0.52648 0.36855 0.0
C1489 C 0.78988 0.52204 0.35488 0.0
C1490 C 0.7819 0.57316 0.36047 0.0
C1491 C 0.80694 0.52183 0.3516 0.0
C1492 C 0.83575 0.53422 0.34138 0.0
C1493 C 0.82015 0.53577 0.34469 0.0
C1494 C 0.82505 0.505 0.352 0.0
C1495 C 0.83837 0.51874 0.34498 0.0
C1496 C 0.80961 0.50655 0.35526 0.0
C1497 C 0.72663 0.50292 0.37037 0.0
C1498 C 0.71812 0.47196 0.3675 0.0
C1499 C 0.70101 0.48228 0.38214 0.0
C1500 C 0.71233 0.49934 0.37916 0.0
C1501 C 0.70372 0.46835 0.37636 0.0
C1502 C 0.72954 0.48913 0.36459 0.0
C1503 C 0.73831 0.52113 0.36773 0.0
O1504 O 0.78488 0.56374 0.37192 0.0
O1505 O 0.77486 0.56414 0.34819 0.0
O1506 O 0.74238 0.52598 0.35366 0.0
O1507 O 0.75168 0.52739 0.37775 0.0
H1508 H 0.74859 0.56563 0.36836 0.0
H1509 H 0.7371 0.58556 0.37804 0.0
H1510 H 0.78652 0.62812 0.37147 0.0
H1511 H 0.79795 0.60805 0.362 0.0
H1512 H 0.84571 0.54508 0.33595 0.0
H1513 H 0.81835 0.54769 0.34174 0.0
H1514 H 0.82625 0.49273 0.35457 0.0
H1515 H 0.79953 0.49557 0.36045 0.0
H1516 H 0.7206 0.46154 0.3629 0.0
H1517 H 0.68987 0.48003 0.38869 0.0
H1518 H 0.70985 0.50981 0.3837 0.0
H1519 H 0.7406 0.49163 0.35785 0.0
C1520 C 0.77506 0.50195 0.66514 0.0
C1521 C 0.76826 0.48446 0.66123 0.0
C1522 C 0.73971 0.48047 0.66975 0.0
C1523 C 0.75076 0.47382 0.66351 0.0
C1524 C 0.74687 0.49784 0.67421 0.0
C1525 C 0.76433 0.50845 0.6719 0.0
U1526 U 0.82155 0.51059 0.65447 0.0
O1527 O 0.83757 0.529 0.63769 0.0
O1528 O 0.84702 0.53095 0.66182 0.0
C1529 C 0.84981 0.53766 0.64799 0.0
C1530 C 0.79292 0.5138 0.66156 0.0
C1531 C 0.85723 0.55676 0.64628 0.0
C1532 C 0.85634 0.58379 0.63526 0.0
C1533 C 0.84783 0.56603 0.63874 0.0
C1534 C 0.88343 0.58329 0.64733 0.0
C1535 C 0.87439 0.59247 0.63911 0.0
C1536 C 0.87495 0.56568 0.65087 0.0
C1537 C 0.83373 0.4712 0.65016 0.0
C1538 C 0.86294 0.47217 0.64706 0.0
C1539 C 0.8379 0.44482 0.64593 0.0
C1540 C 0.82687 0.45329 0.64821 0.0
C1541 C 0.85611 0.45408 0.64556 0.0
C1542 C 0.85182 0.48068 0.64939 0.0
C1543 C 0.82172 0.47943 0.65345 0.0
O1544 O 0.80566 0.51425 0.67167 0.0
O1545 O 0.79682 0.51355 0.64749 0.0
O1546 O 0.81628 0.487 0.64185 0.0
O1547 O 0.82574 0.48839 0.66591 0.0
H1548 H 0.77636 0.47916 0.65605 0.0
H1549 H 0.74572 0.46058 0.65983 0.0
H1550 H 0.7389 0.50334 0.67932 0.0
H1551 H 0.76936 0.52188 0.67509 0.0
H1552 H 0.84902 0.59054 0.62899 0.0
H1553 H 0.83412 0.55944 0.63509 0.0
H1554 H 0.89725 0.58968 0.65076 0.0
H1555 H 0.88247 0.55885 0.6567 0.0
H1556 H 0.8769 0.47965 0.64694 0.0
H1557 H 0.83218 0.43092 0.6446 0.0
H1558 H 0.81294 0.44577 0.64868 0.0
H1559 H 0.85736 0.49455 0.65086 0.0
C1560 C 0.50915 0.13452 0.30205 0.0
C1561 C 0.50014 0.14556 0.29889 0.0
C1562 C 0.48953 0.14026 0.32453 0.0
C1563 C 0.49049 0.14843 0.31 0.0
C1564 C 0.49858 0.12918 0.32755 0.0
C1565 C 0.50825 0.12637 0.31648 0.0
U1566 U 0.52487 0.13993 0.26164 0.0
O1567 O 0.55049 0.14374 0.25318 0.0
O1568 O 0.52695 0.12089 0.24661 0.0
C1569 C 0.54383 0.12954 0.24529 0.0
C1570 C 0.51933 0.13114 0.29049 0.0
C1571 C 0.55494 0.11977 0.24301 0.0
C1572 C 0.56036 0.09313 0.24397 0.0
C1573 C 0.55115 0.10276 0.24862 0.0
C1574 C 0.5775 0.1175 0.22838 0.0
C1575 C 0.57343 0.10024 0.23348 0.0
C1576 C 0.56844 0.12709 0.23311 0.0
C1577 C 0.50798 0.16797 0.23322 0.0
C1578 C 0.51159 0.17165 0.20601 0.0
C1579 C 0.49331 0.18349 0.21728 0.0
C1580 C 0.49727 0.17739 0.23159 0.0
C1581 C 0.50008 0.18042 0.20417 0.0
C1582 C 0.51543 0.16539 0.22041 0.0
C1583 C 0.51001 0.16005 0.24823 0.0
O1584 O 0.51003 0.12149 0.27915 0.0
O1585 O 0.53299 0.14448 0.28601 0.0
O1586 O 0.52568 0.16603 0.25534 0.0
O1587 O 0.50215 0.14312 0.24929 0.0
H1588 H 0.50055 0.15194 0.28782 0.0
H1589 H 0.48365 0.15697 0.30716 0.0
H1590 H 0.49851 0.1229 0.33863 0.0
H1591 H 0.51512 0.11784 0.31922 0.0
H1592 H 0.55695 0.07999 0.24835 0.0
H1593 H 0.54075 0.09674 0.25622 0.0
H1594 H 0.58711 0.12345 0.22009 0.0
H1595 H 0.57145 0.14007 0.22839 0.0
H1596 H 0.51732 0.16923 0.19631 0.0
H1597 H 0.48414 0.18981 0.21649 0.0
H1598 H 0.49137 0.17948 0.24135 0.0
H1599 H 0.5238 0.15816 0.22147 0.0
C1600 C 0.99064 0.91034 0.74826 0.0
C1601 C 0.9931 0.90946 0.73286 0.0
C1602 C 0.9751 0.92604 0.7254 0.0
C1603 C 0.98546 0.91721 0.72158 0.0
C1604 C 0.97251 0.92673 0.74087 0.0
C1605 C 0.98024 0.91898 0.75219 0.0
U1606 U 1.01282 0.87931 0.75761 0.0
O1607 O 0.03652 0.88119 0.7719 0.0
O1608 O 1.01126 0.86013 0.77624 0.0
C1609 C 0.02812 0.86735 0.7802 0.0
C1610 C 0.99885 0.9021 0.76006 0.0
C1611 C 0.03376 0.86745 0.79652 0.0
C1612 C 0.04052 0.87999 0.82161 0.0
C1613 C 0.0336 0.8798 0.80646 0.0
C1614 C 0.04749 0.85539 0.81695 0.0
C1615 C 0.04778 0.86789 0.82701 0.0
C1616 C 0.04054 0.85517 0.80196 0.0
C1617 C 0.01825 0.85667 0.72281 0.0
C1618 C 0.041 0.84602 0.71958 0.0
C1619 C 0.01641 0.83978 0.70084 0.0
C1620 C 1.00933 0.84865 0.70936 0.0
C1621 C 0.03262 0.83883 0.70558 0.0
C1622 C 0.03387 0.85483 0.72813 0.0
C1623 C 1.0119 0.86811 0.73027 0.0
O1624 O 0.99024 0.88538 0.76235 0.0
O1625 O 0.01575 0.90637 0.75921 0.0
O1626 O 0.02406 0.88252 0.73552 0.0
O1627 O 0.99936 0.86062 0.73953 0.0
H1628 H 1.00094 0.90271 0.72954 0.0
H1629 H 0.9875 0.91607 0.70982 0.0
H1630 H 0.96473 0.93349 0.74426 0.0
H1631 H 0.97813 0.91976 0.764 0.0
H1632 H 0.04034 0.88972 0.82902 0.0
H1633 H 0.02843 0.88941 0.80247 0.0
H1634 H 0.05326 0.8461 0.82044 0.0
H1635 H 0.04092 0.84561 0.79443 0.0
H1636 H 0.0536 0.84575 0.72353 0.0
H1637 H 1.00949 0.8342 0.69024 0.0
H1638 H 0.99721 0.84984 0.70512 0.0
H1639 H 0.04094 0.86087 0.73853 0.0
C1640 C 0.48522 0.86777 0.32094 0.0
C1641 C 0.49174 0.88191 0.3307 0.0
C1642 C 0.518 0.87605 0.33791 0.0
C1643 C 0.50792 0.88599 0.33907 0.0
C1644 C 0.51089 0.86129 0.32886 0.0
C1645 C 0.49479 0.85728 0.32042 0.0
U1646 U 0.43587 0.85737 0.31092 0.0
O1647 O 0.42348 0.86959 0.29356 0.0
O1648 O 0.41833 0.842 0.29217 0.0
C1649 C 0.41611 0.85551 0.28557 0.0
C1650 C 0.46959 0.86475 0.31016 0.0
C1651 C 0.41759 0.85779 0.2689 0.0
C1652 C 0.4328 0.87324 0.24674 0.0
C1653 C 0.43272 0.86977 0.26251 0.0
C1654 C 0.40298 0.85221 0.24352 0.0
C1655 C 0.41772 0.86486 0.23709 0.0
C1656 C 0.40292 0.84876 0.25921 0.0
C1657 C 0.40727 0.84982 0.34598 0.0
C1658 C 0.37572 0.83765 0.34849 0.0
C1659 C 0.39558 0.85235 0.36959 0.0
C1660 C 0.40982 0.85553 0.36091 0.0
C1661 C 0.37832 0.84337 0.36356 0.0
C1662 C 0.39011 0.84089 0.33974 0.0
C1663 C 0.42303 0.853 0.33776 0.0
O1664 O 0.45768 0.84885 0.30953 0.0
O1665 O 0.4628 0.87654 0.30938 0.0
O1666 O 0.43006 0.86819 0.33089 0.0
O1667 O 0.42342 0.84022 0.33009 0.0
H1668 H 0.4847 0.89027 0.33143 0.0
H1669 H 0.51294 0.89751 0.3458 0.0
H1670 H 0.51804 0.85309 0.32788 0.0
H1671 H 0.49011 0.84629 0.31305 0.0
H1672 H 0.44435 0.8831 0.24222 0.0
H1673 H 0.44425 0.87688 0.26975 0.0
H1674 H 0.39125 0.84527 0.23643 0.0
H1675 H 0.39114 0.83941 0.26386 0.0
H1676 H 0.36261 0.83073 0.34347 0.0
H1677 H 0.39819 0.85657 0.38122 0.0
H1678 H 0.42295 0.86228 0.366 0.0
H1679 H 0.38784 0.83633 0.32823 0.0
C1680 C 0.83921 0.74592 0.02727 0.0
C1681 C 0.83547 0.74295 0.04266 0.0
C1682 C 0.83406 0.77144 0.04348 0.0
C1683 C 0.83274 0.75559 0.05069 0.0
C1684 C 0.83742 0.77406 0.02802 0.0
C1685 C 0.8399 0.76145 0.02003 0.0
U1686 U 0.8525 0.70697 0.0208 0.0
O1687 O 0.84562 0.69041 1.00077 0.0
O1688 O 0.8731 0.70876 1.0057 0.0
C1689 C 0.86173 0.69739 0.99644 0.0
C1690 C 0.84359 0.73392 0.01844 0.0
C1691 C 0.86726 0.68995 0.98411 0.0
C1692 C 0.87848 0.6936 0.95901 0.0
C1693 C 0.8724 0.69983 0.9707 0.0
C1694 C 0.87424 0.66731 0.97392 0.0
C1695 C 0.87966 0.67731 0.96048 0.0
C1696 C 0.86809 0.67358 0.98562 0.0
C1697 C 0.85794 0.6791 0.05712 0.0
C1698 C 0.8701 0.65697 0.06124 0.0
C1699 C 0.8595 0.66633 0.08232 0.0
C1700 C 0.8548 0.67769 0.07255 0.0
C1701 C 0.8674 0.65597 0.07687 0.0
C1702 C 0.86552 0.66859 0.05142 0.0
C1703 C 0.85377 0.69232 0.04779 0.0
O1704 O 0.85984 0.73511 0.02045 0.0
O1705 O 0.83214 0.71789 0.01714 0.0
O1706 O 0.83979 0.68706 0.03823 0.0
O1707 O 0.867 0.7055 0.04253 0.0
H1708 H 0.83496 0.73105 0.04849 0.0
H1709 H 0.83009 0.75321 0.06258 0.0
H1710 H 0.8382 0.78598 0.02209 0.0
H1711 H 0.84271 0.764 1.00818 0.0
H1712 H 0.88266 0.70175 0.94897 0.0
H1713 H 0.87188 0.71254 0.96933 0.0
H1714 H 0.87467 0.65459 0.97539 0.0
H1715 H 0.86417 0.66574 0.99588 0.0
H1716 H 0.87604 0.64904 0.05671 0.0
H1717 H 0.85681 0.66555 0.09419 0.0
H1718 H 0.84886 0.68561 0.07715 0.0
H1719 H 0.86804 0.6695 0.0395 0.0
C1720 C 0.64615 0.31734 0.52114 0.0
C1721 C 0.63374 0.32497 0.51957 0.0
C1722 C 0.64021 0.33315 0.49304 0.0
C1723 C 0.63076 0.33272 0.50566 0.0
C1724 C 0.65293 0.32586 0.49484 0.0
C1725 C 0.65582 0.31804 0.5087 0.0
U1726 U 0.64705 0.31169 0.56462 0.0
O1727 O 0.63907 0.28817 0.57945 0.0
O1728 O 0.66638 0.30693 0.58098 0.0
C1729 C 0.6549 0.29219 0.58606 0.0
C1730 C 0.64912 0.30847 0.53549 0.0
C1731 C 0.66098 0.27797 0.58982 0.0
C1732 C 0.67278 0.25696 0.58346 0.0
C1733 C 0.66647 0.26997 0.57894 0.0
C1734 C 0.66802 0.25987 0.60962 0.0
C1735 C 0.67388 0.25197 0.59893 0.0
C1736 C 0.66167 0.27266 0.60511 0.0
C1737 C 0.63482 0.34352 0.58671 0.0
C1738 C 0.64535 0.3555 0.61181 0.0
C1739 C 0.62012 0.35898 0.59863 0.0
C1740 C 0.6214 0.34971 0.58646 0.0
C1741 C 0.63239 0.36248 0.61131 0.0
C1742 C 0.64652 0.34608 0.59967 0.0
C1743 C 0.63727 0.33598 0.5728 0.0
O1744 O 0.66261 0.31764 0.54452 0.0
O1745 O 0.63517 0.29936 0.54285 0.0
O1746 O 0.62611 0.32022 0.56961 0.0
O1747 O 0.65349 0.3387 0.57026 0.0
H1748 H 0.62621 0.32476 0.52904 0.0
H1749 H 0.62098 0.33833 0.50477 0.0
H1750 H 0.66027 0.32566 0.48537 0.0
H1751 H 0.66548 0.31228 0.50964 0.0
H1752 H 0.67716 0.2511 0.57495 0.0
H1753 H 0.66603 0.27388 0.56705 0.0
H1754 H 0.66828 0.25611 0.62155 0.0
H1755 H 0.6574 0.27857 0.61368 0.0
H1756 H 0.65515 0.35797 0.62125 0.0
H1757 H 0.6097 0.36373 0.59791 0.0
H1758 H 0.61219 0.34783 0.5766 0.0
H1759 H 0.65697 0.34137 0.60018 0.0
C1760 C 0.32152 0.52954 0.12083 0.0
C1761 C 0.31845 0.51183 0.12218 0.0
C1762 C 0.35002 0.51867 0.12527 0.0
C1763 C 0.33255 0.50645 0.12439 0.0
C1764 C 0.3529 0.53637 0.12362 0.0
C1765 C 0.33885 0.5417 0.12142 0.0
U1766 U 0.27249 0.52144 0.11707 0.0
O1767 O 0.25765 0.5328 0.12921 0.0
O1768 O 0.25817 0.53588 0.10438 0.0
C1769 C 0.25229 0.5391 0.11671 0.0
C1770 C 0.30698 0.53569 0.11956 0.0
C1771 C 0.25097 0.55608 0.11759 0.0
C1772 C 0.26342 0.58756 0.11835 0.0
C1773 C 0.26554 0.57186 0.11725 0.0
C1774 C 0.23222 0.57185 0.12007 0.0
C1775 C 0.24671 0.58776 0.11987 0.0
C1776 C 0.23435 0.55625 0.11893 0.0
C1777 C 0.23839 0.47465 0.11483 0.0
C1778 C 0.20978 0.46069 0.12524 0.0
C1779 C 0.21616 0.44909 0.10311 0.0
C1780 C 0.23297 0.46219 0.10355 0.0
C1781 C 0.20448 0.44807 0.11408 0.0
C1782 C 0.22653 0.47395 0.12555 0.0
C1783 C 0.25664 0.48764 0.11563 0.0
O1784 O 0.29772 0.53352 0.10643 0.0
O1785 O 0.29726 0.53188 0.13125 0.0
O1786 O 0.26243 0.49583 0.12846 0.0
O1787 O 0.26151 0.4978 0.10355 0.0
H1788 H 0.30515 0.5022 0.12174 0.0
H1789 H 0.32975 0.49273 0.12547 0.0
H1790 H 0.36605 0.54624 0.12451 0.0
H1791 H 0.34154 0.55541 0.12049 0.0
H1792 H 0.27491 0.59954 0.11828 0.0
H1793 H 0.27849 0.57203 0.11624 0.0
H1794 H 0.21915 0.57143 0.12096 0.0
H1795 H 0.22291 0.54422 0.11912 0.0
H1796 H 0.20099 0.46025 0.13375 0.0
H1797 H 0.21248 0.43941 0.09448 0.0
H1798 H 0.24187 0.46239 0.09522 0.0
H1799 H 0.23028 0.48345 0.13434 0.0
C1800 C 0.32822 0.5498 0.93411 0.0
C1801 C 0.34482 0.55213 0.92966 0.0
C1802 C 0.3554 0.58303 0.93391 0.0
C1803 C 0.35825 0.56861 0.92946 0.0
C1804 C 0.33908 0.58054 0.93916 0.0
C1805 C 0.32552 0.56403 0.93915 0.0
U1806 U 0.31281 0.50213 0.92721 0.0
O1807 O 0.29062 0.47908 0.93495 0.0
O1808 O 0.29301 0.48573 0.91058 0.0
C1809 C 0.28355 0.47533 0.92103 0.0
C1810 C 0.31352 0.53287 0.93231 0.0
C1811 C 0.26444 0.47024 0.91854 0.0
C1812 C 0.2388 0.47663 0.91026 0.0
C1813 C 0.25683 0.48232 0.91449 0.0
C1814 C 0.23592 0.44689 0.91442 0.0
C1815 C 0.2283 0.45882 0.90982 0.0
C1816 C 0.25378 0.45256 0.91877 0.0
C1817 C 0.35019 0.48642 0.92316 0.0
C1818 C 0.34677 0.45721 0.91751 0.0
C1819 C 0.37518 0.48085 0.91647 0.0
C1820 C 0.36803 0.49231 0.92069 0.0
C1821 C 0.36463 0.46322 0.91467 0.0
C1822 C 0.33956 0.46878 0.92163 0.0
C1823 C 0.34308 0.49921 0.92658 0.0
O1824 O 0.31122 0.52658 0.91866 0.0
O1825 O 0.31254 0.52124 0.94323 0.0
O1826 O 0.33452 0.49637 0.93894 0.0
O1827 O 0.33556 0.50467 0.91489 0.0
H1828 H 0.34721 0.54128 0.92584 0.0
H1829 H 0.37077 0.57016 0.92553 0.0
H1830 H 0.33658 0.59147 0.94262 0.0
H1831 H 0.31281 0.56248 0.94263 0.0
H1832 H 0.23321 0.48606 0.90678 0.0
H1833 H 0.26488 0.49605 0.91418 0.0
H1834 H 0.22808 0.43311 0.9144 0.0
H1835 H 0.2594 0.44304 0.92185 0.0
H1836 H 0.33834 0.44368 0.91624 0.0
H1837 H 0.38903 0.4858 0.91469 0.0
H1838 H 0.37644 0.50587 0.92188 0.0
H1839 H 0.32572 0.46402 0.92344 0.0
C1840 C 0.24368 0.43172 0.61496 0.0
C1841 C 0.25883 0.4375 0.60679 0.0
C1842 C 0.26018 0.40887 0.60942 0.0
C1843 C 0.26691 0.42618 0.60396 0.0
C1844 C 0.24491 0.40311 0.61744 0.0
C1845 C 0.23674 0.41437 0.62012 0.0
U1846 U 0.24814 0.47659 0.62572 0.0
O1847 O 0.23257 0.49236 0.61906 0.0
O1848 O 0.23626 0.48545 0.64313 0.0
C1849 C 0.22951 0.49379 0.63318 0.0
C1850 C 0.23545 0.4437 0.61879 0.0
C1851 C 0.21261 0.49467 0.63626 0.0
C1852 C 0.18068 0.48338 0.63589 0.0
C1853 C 0.19616 0.4817 0.63233 0.0
C1854 C 0.19797 0.51095 0.6472 0.0
C1855 C 0.18134 0.49803 0.64349 0.0
C1856 C 0.21328 0.50929 0.6436 0.0
C1857 C 0.29657 0.50982 0.62901 0.0
C1858 C 0.30728 0.53963 0.63702 0.0
C1859 C 0.32768 0.52787 0.6296 0.0
C1860 C 0.3138 0.51201 0.62682 0.0
C1861 C 0.32462 0.54194 0.63464 0.0
C1862 C 0.29335 0.52369 0.63421 0.0
C1863 C 0.28242 0.49285 0.6259 0.0
O1864 O 0.23876 0.449 0.63286 0.0
O1865 O 0.2363 0.45621 0.60878 0.0
O1866 O 0.27177 0.49203 0.61378 0.0
O1867 O 0.27429 0.48412 0.63768 0.0
H1868 H 0.26461 0.45085 0.6028 0.0
H1869 H 0.27874 0.43113 0.5979 0.0
H1870 H 0.23929 0.38985 0.6217 0.0
H1871 H 0.22511 0.40958 0.62645 0.0
H1872 H 0.16821 0.47318 0.63266 0.0
H1873 H 0.19527 0.47031 0.6266 0.0
H1874 H 0.1993 0.52223 0.65332 0.0
H1875 H 0.22582 0.51948 0.64676 0.0
H1876 H 0.30444 0.55026 0.64072 0.0
H1877 H 0.34084 0.5291 0.62782 0.0
H1878 H 0.31655 0.5014 0.62291 0.0
H1879 H 0.2801 0.52221 0.63598 0.0
C1880 C 0.24096 0.52351 0.37 0.0
C1881 C 0.24672 0.54153 0.37102 0.0
C1882 C 0.27701 0.54469 0.36956 0.0
C1883 C 0.2646 0.55205 0.37075 0.0
C1884 C 0.27106 0.52667 0.36811 0.0
C1885 C 0.2532 0.51619 0.36831 0.0
U1886 U 0.19333 0.51572 0.37643 0.0
O1887 O 0.16867 0.49604 0.3669 0.0
O1888 O 0.17527 0.49646 0.39153 0.0
C1889 C 0.1644 0.48829 0.3802 0.0
C1890 C 0.22248 0.51208 0.37164 0.0
C1891 C 0.15842 0.46925 0.38092 0.0
C1892 C 0.16085 0.44235 0.37497 0.0
C1893 C 0.16712 0.46051 0.37406 0.0
C1894 C 0.13738 0.44161 0.38977 0.0
C1895 C 0.14589 0.43268 0.38287 0.0
C1896 C 0.14357 0.45965 0.38878 0.0
C1897 C 0.18177 0.55548 0.38161 0.0
C1898 C 0.15267 0.55587 0.38214 0.0
C1899 C 0.17836 0.58135 0.38902 0.0
C1900 C 0.18908 0.57259 0.38647 0.0
C1901 C 0.16001 0.57322 0.38673 0.0
C1902 C 0.16346 0.54708 0.37959 0.0
C1903 C 0.19365 0.54697 0.37856 0.0
O1904 O 0.21697 0.51153 0.38523 0.0
O1905 O 0.21115 0.51299 0.36062 0.0
O1906 O 0.19053 0.53891 0.36564 0.0
O1907 O 0.19786 0.53839 0.39009 0.0
H1908 H 0.23745 0.54741 0.37241 0.0
H1909 H 0.26876 0.56586 0.37204 0.0
H1910 H 0.28026 0.52063 0.36701 0.0
H1911 H 0.24899 0.50231 0.36748 0.0
H1912 H 0.16774 0.43589 0.36958 0.0
H1913 H 0.17869 0.4677 0.368 0.0
H1914 H 0.12565 0.43461 0.39568 0.0
H1915 H 0.13665 0.46614 0.39412 0.0
H1916 H 0.13862 0.54923 0.3801 0.0
H1917 H 0.1845 0.59457 0.39277 0.0
H1918 H 0.20317 0.57928 0.38817 0.0
H1919 H 0.15753 0.53383 0.37588 0.0
H1920 H 0.13336 0.38336 0.13435 0.0
C1921 C 0.13216 0.37628 0.12418 0.0
C1922 C 0.14287 0.3845 0.11213 0.0
C1923 C 0.12054 0.35874 0.12341 0.0
H1924 H 0.1504 0.38074 0.0902 0.0
C1925 C 0.14164 0.37499 0.09919 0.0
C1926 C 0.13026 0.35761 0.09817 0.0
C1927 C 0.11961 0.34964 0.11015 0.0
C1928 C 0.11068 0.3493 0.13685 0.0
H1929 H 0.11079 0.33619 0.10917 0.0
C1930 C 0.10372 0.35725 0.14684 0.0
C1931 C 0.09493 0.34792 0.15962 0.0
C1932 C 0.10862 0.33198 0.13998 0.0
H1933 H 0.11422 0.32554 0.13305 0.0
C1934 C 0.09961 0.3227 0.15228 0.0
H1935 H 0.10522 0.37057 0.14478 0.0
C1936 C 0.09279 0.33052 0.16197 0.0
H1937 H 0.08574 0.32285 0.17137 0.0
H1938 H 0.09802 0.30935 0.15438 0.0
H1939 H 0.90117 0.93101 0.3764 0.0
C1940 C 0.90815 0.92876 0.38671 0.0
C1941 C 0.90648 0.93532 0.40057 0.0
C1942 C 0.91811 0.91858 0.38625 0.0
H1943 H 0.91386 0.9366 0.42468 0.0
C1944 C 0.91543 0.93206 0.41388 0.0
C1945 C 0.92538 0.92193 0.41368 0.0
C1946 C 0.9266 0.91516 0.39987 0.0
C1947 C 0.91819 0.90989 0.37202 0.0
H1948 H 0.93411 0.90713 0.39975 0.0
C1949 C 0.92201 0.91895 0.35786 0.0
C1950 C 0.92273 0.91021 0.34487 0.0
C1951 C 0.91443 0.89203 0.37277 0.0
H1952 H 0.91111 0.88468 0.38336 0.0
C1953 C 0.9147 0.88336 0.35992 0.0
H1954 H 0.92499 0.93273 0.35707 0.0
C1955 C 0.91892 0.89235 0.34612 0.0
H1956 H 0.9191 0.88527 0.33631 0.0
H1957 H 0.91171 0.86959 0.36066 0.0
H1958 H 0.38866 0.61198 0.66212 0.0
C1959 C 0.38871 0.61945 0.65168 0.0
C1960 C 0.37824 0.61119 0.63874 0.0
C1961 C 0.39861 0.63748 0.6513 0.0
H1962 H 0.36923 0.61493 0.61563 0.0
C1963 C 0.37781 0.62105 0.62541 0.0
C1964 C 0.38726 0.63893 0.6249 0.0
C1965 C 0.3978 0.64705 0.63772 0.0
C1966 C 0.40824 0.64681 0.66535 0.0
H1967 H 0.40503 0.66095 0.63718 0.0
C1968 C 0.41855 0.64046 0.67571 0.0
C1969 C 0.42786 0.65014 0.68858 0.0
C1970 C 0.40699 0.66253 0.66841 0.0
H1971 H 0.39886 0.66755 0.66104 0.0
C1972 C 0.41595 0.67191 0.6811 0.0
H1973 H 0.4197 0.6284 0.67357 0.0
C1974 C 0.42629 0.66584 0.69107 0.0
H1975 H 0.43288 0.67339 0.70095 0.0
H1976 H 0.41479 0.68396 0.68328 0.0
H1977 H 0.6037 0.09541 0.91484 0.0
C1978 C 0.60471 0.10332 0.90453 0.0
C1979 C 0.61561 0.10287 0.89329 0.0
C1980 C 0.59416 0.11301 0.90204 0.0
H1981 H 0.62379 0.11186 0.8707 0.0
C1982 C 0.61621 0.11276 0.87975 0.0
C1983 C 0.60576 0.12247 0.87709 0.0
C1984 C 0.59498 0.12268 0.88835 0.0
C1985 C 0.58025 0.111 0.91239 0.0
H1986 H 0.58668 0.12993 0.88622 0.0
C1987 C 0.5837 0.11301 0.92828 0.0
C1988 C 0.5699 0.11068 0.93756 0.0
C1989 C 0.56297 0.10666 0.90607 0.0
H1990 H 0.55988 0.1048 0.89396 0.0
C1991 C 0.54942 0.10438 0.91525 0.0
H1992 H 0.59691 0.11633 0.93336 0.0
C1993 C 0.55282 0.10633 0.93088 0.0
H1994 H 0.54207 0.10451 0.93781 0.0
H1995 H 0.53619 0.10101 0.91023 0.0
H1996 H 0.10529 0.6043 0.41089 0.0
C1997 C 0.10388 0.61049 0.40002 0.0
C1998 C 0.11434 0.61061 0.38819 0.0
C1999 C 0.09114 0.61778 0.39759 0.0
H2000 H 0.11957 0.618 0.36469 0.0
C2001 C 0.11205 0.61831 0.37403 0.0
C2002 C 0.09934 0.62538 0.37137 0.0
C2003 C 0.08902 0.62517 0.38315 0.0
C2004 C 0.07871 0.61627 0.40934 0.0
H2005 H 0.07912 0.63058 0.38097 0.0
C2006 C 0.08433 0.62067 0.42471 0.0
C2007 C 0.07197 0.61955 0.4352 0.0
C2008 C 0.0607 0.61052 0.40489 0.0
H2009 H 0.05591 0.60679 0.3933 0.0
C2010 C 0.04859 0.60939 0.41526 0.0
H2011 H 0.09812 0.62512 0.42842 0.0
C2012 C 0.05417 0.61389 0.43029 0.0
H2013 H 0.04452 0.61293 0.43818 0.0
H2014 H 0.0348 0.60499 0.41163 0.0
H2015 H 0.61889 0.87056 0.65173 0.0
C2016 C 0.61917 0.86515 0.64098 0.0
C2017 C 0.63046 0.8757 0.63015 0.0
C2018 C 0.60897 0.8475 0.6382 0.0
H2019 H 0.64103 0.87634 0.60863 0.0
C2020 C 0.63179 0.86843 0.61668 0.0
C2021 C 0.62232 0.85087 0.61385 0.0
C2022 C 0.61039 0.84068 0.62431 0.0
C2023 C 0.5983 0.83569 0.65028 0.0
H2024 H 0.60285 0.82719 0.62189 0.0
C2025 C 0.58971 0.84134 0.6607 0.0
C2026 C 0.58038 0.82997 0.6723 0.0
C2027 C 0.59722 0.81849 0.65175 0.0
H2028 H 0.60409 0.81372 0.64451 0.0
C2029 C 0.5876 0.80717 0.66284 0.0
H2030 H 0.59043 0.85452 0.65994 0.0
C2031 C 0.57923 0.8128 0.673 0.0
H2032 H 0.57183 0.80365 0.68149 0.0
H2033 H 0.58679 0.79397 0.66369 0.0
H2034 H 0.39755 0.41811 0.87801 0.0
C2035 C 0.4047 0.41571 0.88815 0.0
C2036 C 0.40262 0.42133 0.9023 0.0
C2037 C 0.4151 0.40601 0.88728 0.0
H2038 H 0.41028 0.42242 0.92629 0.0
C2039 C 0.41168 0.41791 0.91541 0.0
C2040 C 0.42239 0.40863 0.91477 0.0
C2041 C 0.42389 0.40253 0.90071 0.0
C2042 C 0.4155 0.39792 0.8728 0.0
H2043 H 0.43196 0.39512 0.90023 0.0
C2044 C 0.41913 0.40739 0.8588 0.0
C2045 C 0.42028 0.39919 0.84561 0.0
C2046 C 0.41235 0.38019 0.87318 0.0
H2047 H 0.40921 0.37253 0.88363 0.0
C2048 C 0.41306 0.37205 0.86014 0.0
H2049 H 0.42163 0.42107 0.8583 0.0
C2050 C 0.41708 0.38145 0.84651 0.0
H2051 H 0.41759 0.37477 0.83655 0.0
H2052 H 0.41054 0.35838 0.86061 0.0
H2053 H 0.90522 0.13227 0.14647 0.0
C2054 C 0.90541 0.13814 0.13521 0.0
C2055 C 0.89362 0.12841 0.12356 0.0
C2056 C 0.91712 0.15536 0.13227 0.0
H2057 H 0.88306 0.12882 0.10055 0.0
C2058 C 0.89293 0.1361 0.10914 0.0
C2059 C 0.90404 0.1532 0.10592 0.0
C2060 C 0.91648 0.16249 0.11735 0.0
C2061 C 0.92938 0.16632 0.14469 0.0
H2062 H 0.9256 0.17537 0.11445 0.0
C2063 C 0.93581 0.15913 0.15766 0.0
C2064 C 0.94708 0.16993 0.16918 0.0
C2065 C 0.93451 0.18447 0.14371 0.0
H2066 H 0.92937 0.19069 0.1346 0.0
C2067 C 0.94622 0.1951 0.15463 0.0
H2068 H 0.93197 0.14527 0.15894 0.0
C2069 C 0.95255 0.18797 0.16716 0.0
H2070 H 0.96168 0.19668 0.1754 0.0
H2071 H 0.95024 0.20901 0.15347 0.0
H2072 H 0.10985 0.05443 0.39555 0.0
C2073 C 0.10179 0.05461 0.38527 0.0
C2074 C 0.08665 0.05799 0.38627 0.0
C2075 C 0.10721 0.05287 0.37096 0.0
H2076 H 0.06578 0.06318 0.37387 0.0
C2077 C 0.07677 0.05944 0.37302 0.0
C2078 C 0.08238 0.05886 0.35869 0.0
C2079 C 0.09733 0.05515 0.35767 0.0
C2080 C 0.12428 0.05101 0.36982 0.0
H2081 H 0.10152 0.05468 0.3465 0.0
C2082 C 0.13046 0.04116 0.38067 0.0
C2083 C 0.14702 0.04045 0.3796 0.0
C2084 C 0.13501 0.05991 0.35803 0.0
H2085 H 0.13117 0.06805 0.34979 0.0
C2086 C 0.1512 0.05893 0.3569 0.0
H2087 H 0.12255 0.03418 0.38988 0.0
C2088 C 0.1572 0.04933 0.36761 0.0
H2089 H 0.16992 0.0489 0.36658 0.0
H2090 H 0.15927 0.06586 0.34777 0.0
H2091 H 0.07572 0.80536 0.66235 0.0
C2092 C 0.08536 0.81855 0.66235 0.0
C2093 C 0.08174 0.83145 0.669 0.0
C2094 C 0.10168 0.82264 0.65622 0.0
H2095 H 0.09138 0.85813 0.67491 0.0
C2096 C 0.09439 0.84836 0.66967 0.0
C2097 C 0.1109 0.85273 0.66416 0.0
C2098 C 0.11431 0.83988 0.65708 0.0
C2099 C 0.10624 0.80874 0.65021 0.0
H2100 H 0.12701 0.84321 0.65267 0.0
C2101 C 0.09402 0.7952 0.64122 0.0
C2102 C 0.09883 0.78217 0.63605 0.0
C2103 C 0.1231 0.80882 0.65386 0.0
H2104 H 0.13267 0.81867 0.66099 0.0
C2105 C 0.12781 0.79601 0.64867 0.0
H2106 H 0.08097 0.79483 0.63819 0.0
C2107 C 0.11579 0.78278 0.63985 0.0
H2108 H 0.11974 0.77296 0.63594 0.0
H2109 H 0.14083 0.79628 0.65158 0.0
H2110 H 0.39874 0.95019 0.86277 0.0
C2111 C 0.40692 0.94795 0.85495 0.0
C2112 C 0.4211 0.94361 0.86074 0.0
C2113 C 0.40285 0.94846 0.83909 0.0
H2114 H 0.44106 0.93497 0.8551 0.0
C2115 C 0.4309 0.93942 0.85068 0.0
C2116 C 0.42682 0.93951 0.83504 0.0
C2117 C 0.41332 0.94462 0.82927 0.0
C2118 C 0.38671 0.95094 0.83255 0.0
H2119 H 0.41048 0.94473 0.81707 0.0
C2120 C 0.3807 0.96282 0.8384 0.0
C2121 C 0.36572 0.9651 0.83137 0.0
C2122 C 0.37706 0.94101 0.82004 0.0
H2123 H 0.38066 0.93121 0.81562 0.0
C2124 C 0.36242 0.9433 0.81312 0.0
H2125 H 0.38773 0.97043 0.84813 0.0
C2126 C 0.35684 0.95527 0.81865 0.0
H2127 H 0.34512 0.95639 0.81321 0.0
H2128 H 0.35522 0.93558 0.80351 0.0
H2129 H 0.46252 0.21092 0.14553 0.0
C2130 C 0.45308 0.19775 0.14416 0.0
C2131 C 0.45669 0.18392 0.15137 0.0
C2132 C 0.43684 0.19463 0.13591 0.0
H2133 H 0.44624 0.15633 0.15591 0.0
C2134 C 0.44402 0.167 0.14988 0.0
C2135 C 0.42784 0.16359 0.14181 0.0
C2136 C 0.42426 0.17744 0.13489 0.0
C2137 C 0.43199 0.2093 0.12993 0.0
H2138 H 0.41161 0.17483 0.12882 0.0
C2139 C 0.44311 0.22326 0.12105 0.0
C2140 C 0.43781 0.23681 0.11571 0.0
C2141 C 0.41577 0.20929 0.13337 0.0
H2142 H 0.40707 0.19896 0.14029 0.0
C2143 C 0.41065 0.22269 0.12815 0.0
H2144 H 0.45561 0.22349 0.11819 0.0
C2145 C 0.42156 0.23634 0.11941 0.0
H2146 H 0.41724 0.24656 0.11538 0.0
H2147 H 0.39814 0.22249 0.1309 0.0
H2148 H 0.12214 0.91618 0.16782 0.0
C2149 C 0.13597 0.92257 0.17111 0.0
C2150 C 0.14784 0.91532 0.16743 0.0
C2151 C 0.14203 0.93876 0.178 0.0
H2152 H 0.17527 0.91969 0.16757 0.0
C2153 C 0.16589 0.9244 0.17126 0.0
C2154 C 0.17218 0.94037 0.17848 0.0
C2155 C 0.16005 0.94715 0.18216 0.0
C2156 C 0.1304 0.9485 0.17835 0.0
H2157 H 0.16474 0.95951 0.18764 0.0
C2158 C 0.1132 0.9409 0.18333 0.0
C2159 C 0.10252 0.95059 0.18262 0.0
C2160 C 0.13659 0.96578 0.17281 0.0
H2161 H 0.14953 0.97192 0.16862 0.0
C2162 C 0.1261 0.97529 0.17222 0.0
H2163 H 0.10815 0.92763 0.18762 0.0
C2164 C 0.10919 0.96777 0.17703 0.0
H2165 H 0.10131 0.97548 0.17651 0.0
H2166 H 0.13107 0.98855 0.16791 0.0
H2167 H 0.32388 0.84883 0.41084 0.0
C2168 C 0.32147 0.83613 0.41594 0.0
C2169 C 0.32744 0.82481 0.40911 0.0
C2170 C 0.31325 0.83144 0.42978 0.0
H2171 H 0.33012 0.80012 0.41169 0.0
C2172 C 0.3248 0.8086 0.41624 0.0
C2173 C 0.3167 0.80379 0.42997 0.0
C2174 C 0.31064 0.815 0.43645 0.0
C2175 C 0.30887 0.844 0.43827 0.0
H2176 H 0.30431 0.81099 0.44703 0.0
C2177 C 0.30221 0.85585 0.4309 0.0
C2178 C 0.29753 0.86684 0.43955 0.0
C2179 C 0.31147 0.84408 0.45427 0.0
H2180 H 0.3173 0.83587 0.46038 0.0
C2181 C 0.30683 0.85487 0.46274 0.0
H2182 H 0.30033 0.85631 0.41861 0.0
C2183 C 0.29978 0.86604 0.45548 0.0
H2184 H 0.29653 0.8745 0.46233 0.0
H2185 H 0.30885 0.85467 0.47501 0.0
H2186 H 0.39381 0.10854 0.65088 0.0
C2187 C 0.38146 0.10167 0.65598 0.0
C2188 C 0.36587 0.10205 0.64862 0.0
C2189 C 0.38089 0.0914 0.6693 0.0
H2190 H 0.33782 0.09296 0.6494 0.0
C2191 C 0.34985 0.09259 0.65495 0.0
C2192 C 0.34914 0.08286 0.66846 0.0
C2193 C 0.36464 0.08225 0.67562 0.0
C2194 C 0.39651 0.08785 0.67523 0.0
H2195 H 0.36399 0.0742 0.6858 0.0
C2196 C 0.4127 0.10109 0.67994 0.0
C2197 C 0.42724 0.09689 0.68505 0.0
C2198 C 0.39508 0.0706 0.67576 0.0
H2199 H 0.38287 0.06024 0.67212 0.0
C2200 C 0.40938 0.06649 0.68071 0.0
H2201 H 0.41397 0.11444 0.67967 0.0
C2202 C 0.42531 0.07948 0.68529 0.0
H2203 H 0.43613 0.07586 0.68932 0.0
H2204 H 0.40809 0.05314 0.68103 0.0
H2205 H 0.19489 0.15691 0.88469 0.0
C2206 C 0.19793 0.1678 0.89196 0.0
C2207 C 0.19013 0.17974 0.88816 0.0
C2208 C 0.20866 0.16933 0.90551 0.0
H2209 H 0.18573 0.20157 0.89537 0.0
C2210 C 0.19277 0.19316 0.89798 0.0
C2211 C 0.20291 0.19472 0.91176 0.0
C2212 C 0.21122 0.18308 0.91523 0.0
C2213 C 0.21592 0.15585 0.9102 0.0
H2214 H 0.21942 0.18463 0.9257 0.0
C2215 C 0.22095 0.1471 0.89943 0.0
C2216 C 0.22783 0.13456 0.90427 0.0
C2217 C 0.21749 0.15135 0.92574 0.0
H2218 H 0.21314 0.15709 0.93435 0.0
C2219 C 0.22438 0.13904 0.93047 0.0
H2220 H 0.21992 0.15021 0.88741 0.0
C2221 C 0.22962 0.13079 0.91986 0.0
H2222 H 0.23482 0.12117 0.92381 0.0
H2223 H 0.22554 0.1358 0.94245 0.0
H2224 H 0.83035 0.3475 0.89529 0.0
C2225 C 0.82483 0.33408 0.89915 0.0
C2226 C 0.82851 0.32147 0.89188 0.0
C2227 C 0.81566 0.32971 0.91249 0.0
H2228 H 0.82508 0.29459 0.89249 0.0
C2229 C 0.82214 0.30432 0.89782 0.0
C2230 C 0.81366 0.29996 0.91142 0.0
C2231 C 0.80992 0.31259 0.91832 0.0
C2232 C 0.81516 0.34325 0.92232 0.0
H2233 H 0.80348 0.30937 0.92889 0.0
C2234 C 0.80684 0.35466 0.91748 0.0
C2235 C 0.80541 0.36615 0.92789 0.0
C2236 C 0.82261 0.34404 0.93733 0.0
H2237 H 0.82927 0.3356 0.94126 0.0
C2238 C 0.82149 0.35555 0.94746 0.0
H2239 H 0.80107 0.35422 0.90594 0.0
C2240 C 0.81288 0.36643 0.94284 0.0
H2241 H 0.81231 0.37535 0.95096 0.0
H2242 H 0.82729 0.35599 0.95897 0.0
H2243 H 0.89966 0.61169 0.12905 0.0
C2244 C 0.88624 0.60442 0.13183 0.0
C2245 C 0.87246 0.60722 0.12319 0.0
C2246 C 0.88251 0.59144 0.14344 0.0
H2247 H 0.84454 0.60004 0.12021 0.0
C2248 C 0.85513 0.59766 0.1267 0.0
C2249 C 0.85118 0.58506 0.13839 0.0
C2250 C 0.86485 0.58177 0.1466 0.0
C2251 C 0.8966 0.58645 0.15118 0.0
H2252 H 0.86176 0.57175 0.15547 0.0
C2253 C 0.91163 0.59838 0.15918 0.0
C2254 C 0.92402 0.59259 0.16707 0.0
C2255 C 0.89458 0.56906 0.15078 0.0
H2256 H 0.88333 0.55971 0.14462 0.0
C2257 C 0.907 0.5635 0.15823 0.0
H2258 H 0.91331 0.61179 0.15975 0.0
C2259 C 0.92152 0.57511 0.16639 0.0
H2260 H 0.93085 0.57041 0.1723 0.0
H2261 H 0.90526 0.55007 0.15781 0.0
H2262 H 0.70538 0.67365 0.39584 0.0
C2263 C 0.7076 0.68274 0.40475 0.0
C2264 C 0.70031 0.69538 0.40273 0.0
C2265 C 0.71688 0.68119 0.41854 0.0
H2266 H 0.69643 0.71589 0.41349 0.0
C2267 C 0.70277 0.70675 0.41454 0.0
C2268 C 0.71188 0.7055 0.42833 0.0
C2269 C 0.71901 0.69281 0.43025 0.0
C2270 C 0.72295 0.66656 0.42129 0.0
H2271 H 0.72603 0.69193 0.44098 0.0
C2272 C 0.72948 0.66027 0.40965 0.0
C2273 C 0.73516 0.64653 0.41277 0.0
C2274 C 0.72183 0.65845 0.43582 0.0
H2275 H 0.71634 0.66236 0.44489 0.0
C2276 C 0.72745 0.64492 0.43885 0.0
H2277 H 0.73051 0.66621 0.39836 0.0
C2278 C 0.73416 0.63906 0.42747 0.0
H2279 H 0.73843 0.6285 0.4301 0.0
H2280 H 0.72653 0.63888 0.45009 0.0
H2281 H 0.91726 0.47571 0.35159 0.0
C2282 C 0.9259 0.47409 0.34388 0.0
C2283 C 0.93907 0.46834 0.34972 0.0
C2284 C 0.9232 0.47651 0.32803 0.0
H2285 H 0.9589 0.45958 0.34436 0.0
C2286 C 0.94934 0.46475 0.33977 0.0
C2287 C 0.94656 0.46645 0.32402 0.0
C2288 C 0.93412 0.47314 0.31827 0.0
C2289 C 0.90779 0.48035 0.32137 0.0
H2290 H 0.93227 0.47472 0.30608 0.0
C2291 C 0.90123 0.49105 0.32854 0.0
C2292 C 0.88666 0.49428 0.32173 0.0
C2293 C 0.89907 0.4726 0.30764 0.0
H2294 H 0.90292 0.46362 0.30211 0.0
C2295 C 0.88488 0.47587 0.30091 0.0
H2296 H 0.90746 0.49697 0.33922 0.0
C2297 C 0.87877 0.48664 0.30781 0.0
H2298 H 0.86737 0.4885 0.30246 0.0
H2299 H 0.87837 0.46975 0.29039 0.0
H2300 H 0.60699 0.53848 0.91318 0.0
C2301 C 0.60138 0.5436 0.90356 0.0
C2302 C 0.58887 0.55039 0.90614 0.0
C2303 C 0.60615 0.54315 0.88862 0.0
H2304 H 0.57131 0.56179 0.89577 0.0
C2305 C 0.58082 0.55636 0.8938 0.0
C2306 C 0.58567 0.55667 0.87906 0.0
C2307 C 0.59869 0.55062 0.87655 0.0
C2308 C 0.618 0.5342 0.88534 0.0
H2309 H 0.60272 0.5516 0.8651 0.0
C2310 C 0.6304 0.53181 0.89645 0.0
C2311 C 0.64031 0.52225 0.89309 0.0
C2312 C 0.61623 0.52704 0.87091 0.0
H2313 H 0.6065 0.52766 0.86219 0.0
C2314 C 0.62659 0.51834 0.86746 0.0
H2315 H 0.6322 0.53697 0.90769 0.0
C2316 C 0.63847 0.51591 0.87844 0.0
H2317 H 0.64612 0.50877 0.87554 0.0
H2318 H 0.62508 0.51308 0.85629 0.0
H2319 H 0.91241 0.61932 0.88493 0.0
C2320 C 0.90986 0.62761 0.89247 0.0
C2321 C 0.89584 0.62018 0.90191 0.0
C2322 C 0.92075 0.64547 0.8933 0.0
H2323 H 0.88201 0.62449 0.91969 0.0
C2324 C 0.89272 0.63034 0.91232 0.0
C2325 C 0.90286 0.64796 0.91318 0.0
C2326 C 0.91648 0.65562 0.90341 0.0
C2327 C 0.93712 0.65334 0.88463 0.0
H2328 H 0.9238 0.66944 0.90401 0.0
C2329 C 0.93941 0.6462 0.87111 0.0
C2330 C 0.95554 0.6534 0.86408 0.0
C2331 C 0.95131 0.6679 0.89054 0.0
H2332 H 0.95085 0.67347 0.90113 0.0
C2333 C 0.96681 0.67536 0.88324 0.0
H2334 H 0.92902 0.63496 0.86619 0.0
C2335 C 0.96895 0.66819 0.87018 0.0
H2336 H 0.98133 0.67406 0.86495 0.0
H2337 H 0.97744 0.68657 0.88797 0.0
H2338 H 0.11035 0.10191 0.63723 0.0
C2339 C 0.10536 0.10537 0.64692 0.0
C2340 C 0.10703 0.09792 0.66141 0.0
C2341 C 0.09855 0.11833 0.64514 0.0
H2342 H 0.1027 0.09775 0.68519 0.0
C2343 C 0.10127 0.10325 0.67399 0.0
C2344 C 0.09435 0.11613 0.67235 0.0
C2345 C 0.093 0.12352 0.65786 0.0
C2346 C 0.10005 0.12881 0.63085 0.0
H2347 H 0.08809 0.13377 0.6565 0.0
C2348 C 0.08915 0.12239 0.61756 0.0
C2349 C 0.08993 0.13358 0.60479 0.0
C2350 C 0.11202 0.14613 0.63102 0.0
H2351 H 0.12048 0.15128 0.64111 0.0
C2352 C 0.11305 0.15702 0.61831 0.0
H2353 H 0.07976 0.10909 0.61736 0.0
C2354 C 0.10202 0.15085 0.60533 0.0
H2355 H 0.10299 0.15961 0.59561 0.0
H2356 H 0.12232 0.17035 0.61857 0.0
H2357 H 0.65176 0.39098 0.40319 0.0
C2358 C 0.64147 0.39059 0.39463 0.0
C2359 C 0.645 0.40346 0.38295 0.0
C2360 C 0.62499 0.37667 0.39462 0.0
H2361 H 0.63484 0.41219 0.36237 0.0
C2362 C 0.63185 0.40248 0.37148 0.0
C2363 C 0.61515 0.3891 0.37144 0.0
C2364 C 0.61181 0.37643 0.38323 0.0
C2365 C 0.62176 0.36131 0.40525 0.0
H2366 H 0.59895 0.36609 0.38345 0.0
C2367 C 0.62707 0.36272 0.42101 0.0
C2368 C 0.62281 0.34764 0.43054 0.0
C2369 C 0.61299 0.34467 0.39927 0.0
H2370 H 0.60922 0.34302 0.38723 0.0
C2371 C 0.60903 0.3299 0.40862 0.0
H2372 H 0.63394 0.37535 0.42589 0.0
C2373 C 0.61375 0.33135 0.42412 0.0
H2374 H 0.6105 0.31963 0.43113 0.0
H2375 H 0.60224 0.31724 0.40381 0.0
H2376 H 0.4002 0.9054 0.13458 0.0
C2377 C 0.40488 0.90203 0.14566 0.0
C2378 C 0.40241 0.90939 0.15874 0.0
C2379 C 0.41136 0.88875 0.14703 0.0
H2380 H 0.40542 0.90964 0.18319 0.0
C2381 C 0.40741 0.90405 0.17311 0.0
C2382 C 0.4135 0.89063 0.1748 0.0
C2383 C 0.41579 0.88326 0.1617 0.0
C2384 C 0.40932 0.87772 0.13381 0.0
H2385 H 0.41971 0.87233 0.16291 0.0
C2386 C 0.41823 0.88404 0.12036 0.0
C2387 C 0.41574 0.87271 0.10825 0.0
C2388 C 0.39763 0.86034 0.13476 0.0
H2389 H 0.39044 0.85526 0.14481 0.0
C2390 C 0.39478 0.84937 0.12275 0.0
H2391 H 0.42729 0.89742 0.11951 0.0
C2392 C 0.40371 0.85544 0.10965 0.0
H2393 H 0.40101 0.84656 0.10047 0.0
H2394 H 0.38556 0.83606 0.12358 0.0
H2395 H 0.89858 0.41244 0.61948 0.0
C2396 C 0.90411 0.4096 0.63038 0.0
C2397 C 0.90143 0.4164 0.6437 0.0
C2398 C 0.91224 0.39763 0.63133 0.0
H2399 H 0.90551 0.4169 0.66812 0.0
C2400 C 0.90786 0.41191 0.65785 0.0
C2401 C 0.91597 0.40002 0.65906 0.0
C2402 C 0.91811 0.39294 0.64573 0.0
C2403 C 0.9116 0.3874 0.61795 0.0
H2404 H 0.92381 0.38329 0.64658 0.0
C2405 C 0.92045 0.39493 0.60472 0.0
C2406 C 0.92025 0.38427 0.59279 0.0
C2407 C 0.90211 0.36941 0.6188 0.0
H2408 H 0.89508 0.36337 0.62874 0.0
C2409 C 0.90151 0.35901 0.60691 0.0
H2410 H 0.92789 0.40877 0.60395 0.0
C2411 C 0.91057 0.36633 0.59406 0.0
H2412 H 0.90994 0.3579 0.58501 0.0
H2413 H 0.89409 0.34518 0.60769 0.0
H2414 H 0.41417 0.12209 0.39299 0.0
C2415 C 0.41204 0.12981 0.40137 0.0
C2416 C 0.39644 0.12288 0.40897 0.0
C2417 C 0.42493 0.14635 0.40505 0.0
H2418 H 0.38174 0.12667 0.4263 0.0
C2419 C 0.39365 0.13225 0.42029 0.0
C2420 C 0.40596 0.14856 0.42416 0.0
C2421 C 0.42138 0.15575 0.41638 0.0
C2422 C 0.44238 0.1535 0.39786 0.0
H2423 H 0.43054 0.1686 0.41936 0.0
C2424 C 0.44473 0.1488 0.38318 0.0
C2425 C 0.46136 0.15617 0.37692 0.0
C2426 C 0.45724 0.16515 0.4061 0.0
H2427 H 0.45664 0.16849 0.4176 0.0
C2428 C 0.47344 0.17253 0.39986 0.0
H2429 H 0.43378 0.13978 0.37649 0.0
C2430 C 0.47547 0.16821 0.38541 0.0
H2431 H 0.48834 0.17396 0.38101 0.0
H2432 H 0.48459 0.18151 0.40638 0.0
H2433 H 0.60489 0.60348 0.16942 0.0
C2434 C 0.60322 0.60854 0.15808 0.0
C2435 C 0.61155 0.60533 0.146 0.0
C2436 C 0.59166 0.61716 0.15529 0.0
H2437 H 0.61368 0.60792 0.12165 0.0
C2438 C 0.60832 0.61116 0.13122 0.0
C2439 C 0.59692 0.61977 0.12837 0.0
C2440 C 0.58886 0.62297 0.14041 0.0
C2441 C 0.57972 0.61706 0.16689 0.0
H2442 H 0.5794 0.62889 0.13801 0.0
C2443 C 0.58583 0.62512 0.18104 0.0
C2444 C 0.57371 0.62479 0.19147 0.0
C2445 C 0.56157 0.60876 0.16339 0.0
H2446 H 0.55657 0.60241 0.15265 0.0
C2447 C 0.54968 0.60849 0.17363 0.0
H2448 H 0.59978 0.63157 0.18387 0.0
C2449 C 0.55566 0.61644 0.18754 0.0
H2450 H 0.54609 0.6162 0.19522 0.0
H2451 H 0.53575 0.60212 0.17075 0.0
H2452 H 0.13029 0.87412 0.91255 0.0
C2453 C 0.11962 0.87365 0.90438 0.0
C2454 C 0.123 0.88569 0.89206 0.0
C2455 C 0.10276 0.86051 0.90561 0.0
H2456 H 0.11219 0.89384 0.87151 0.0
C2457 C 0.1094 0.88473 0.8811 0.0
C2458 C 0.09242 0.87215 0.88219 0.0
C2459 C 0.08918 0.86024 0.89458 0.0
C2460 C 0.09937 0.84626 0.91755 0.0
H2461 H 0.07601 0.85068 0.89558 0.0
C2462 C 0.10772 0.84898 0.93247 0.0
C2463 C 0.10386 0.83508 0.94329 0.0
C2464 C 0.08767 0.82936 0.91376 0.0
H2465 H 0.08155 0.82647 0.90238 0.0
C2466 C 0.08387 0.81577 0.92447 0.0
H2467 H 0.1169 0.86174 0.93575 0.0
C2468 C 0.09181 0.8186 0.93913 0.0
H2469 H 0.08876 0.80779 0.94722 0.0
H2470 H 0.07481 0.80292 0.92133 0.0
H2471 H 0.92308 0.97051 0.63892 0.0
C2472 C 0.92816 0.96567 0.64908 0.0
C2473 C 0.93683 0.95445 0.64773 0.0
C2474 C 0.92649 0.97092 0.66357 0.0
H2475 H 0.95083 0.94017 0.65963 0.0
C2476 C 0.94405 0.94871 0.66079 0.0
C2477 C 0.94261 0.95371 0.67528 0.0
C2478 C 0.93346 0.96447 0.67661 0.0
C2479 C 0.91914 0.98436 0.66525 0.0
H2480 H 0.93228 0.96829 0.68783 0.0
C2481 C 0.90397 0.98457 0.65659 0.0
C2482 C 0.89782 0.99782 0.65853 0.0
C2483 C 0.92786 0.99756 0.67571 0.0
H2484 H 0.93971 0.99813 0.68226 0.0
C2485 C 0.92168 0.01039 0.67777 0.0
H2486 H 0.89708 0.9746 0.64842 0.0
C2487 C 0.90683 0.01054 0.66931 0.0
H2488 H 0.90229 0.02065 0.67128 0.0
H2489 H 0.9285 0.02036 0.68594 0.0
H2490 H 0.95064 0.21197 0.40252 0.0
C2491 C 0.93968 0.19976 0.40406 0.0
C2492 C 0.93774 0.18552 0.39529 0.0
C2493 C 0.92827 0.19774 0.41567 0.0
H2494 H 0.92251 0.15849 0.39127 0.0
C2495 C 0.92408 0.16949 0.39796 0.0
C2496 C 0.91274 0.16716 0.40944 0.0
C2497 C 0.91448 0.18143 0.41785 0.0
C2498 C 0.93202 0.21145 0.4271 0.0
H2499 H 0.90572 0.17953 0.42679 0.0
C2500 C 0.93734 0.22931 0.42311 0.0
C2501 C 0.94068 0.24153 0.43457 0.0
C2502 C 0.93045 0.20634 0.44259 0.0
H2503 H 0.92697 0.19293 0.4462 0.0
C2504 C 0.93358 0.2184 0.45376 0.0
H2505 H 0.93877 0.23363 0.41132 0.0
C2506 C 0.93863 0.23583 0.4498 0.0
H2507 H 0.94104 0.245 0.4587 0.0
H2508 H 0.9322 0.2142 0.46557 0.0
H2509 H 0.60845 0.04386 0.16007 0.0
C2510 C 0.60642 0.04941 0.17014 0.0
C2511 C 0.59687 0.06004 0.16861 0.0
C2512 C 0.613 0.04573 0.18463 0.0
H2513 H 0.58611 0.07501 0.18019 0.0
C2514 C 0.59362 0.0669 0.18149 0.0
C2515 C 0.59979 0.06345 0.19599 0.0
C2516 C 0.60965 0.05302 0.19757 0.0
C2517 C 0.62236 0.03353 0.18633 0.0
H2518 H 0.61463 0.05061 0.20885 0.0
C2519 C 0.63357 0.03273 0.17534 0.0
C2520 C 0.64176 0.02065 0.17711 0.0
C2521 C 0.61957 0.02203 0.199 0.0
H2522 H 0.61077 0.0218 0.20742 0.0
C2523 C 0.62776 0.01036 0.20089 0.0
H2524 H 0.63589 0.0414 0.16548 0.0
C2525 C 0.63877 0.0097 0.19016 0.0
H2526 H 0.64516 1.00068 0.19227 0.0
H2527 H 0.62555 1.00172 0.21078 0.0
H2528 H 0.56515 0.80504 0.89931 0.0
C2529 C 0.57579 0.81745 0.89766 0.0
C2530 C 0.57495 0.82783 0.88476 0.0
C2531 C 0.58997 0.82357 0.90874 0.0
H2532 H 0.58722 0.85226 0.87304 0.0
C2533 C 0.58816 0.84431 0.88295 0.0
C2534 C 0.60229 0.85076 0.89383 0.0
C2535 C 0.60332 0.84013 0.90647 0.0
C2536 C 0.59025 0.81371 0.92338 0.0
H2537 H 0.61426 0.84505 0.91487 0.0
C2538 C 0.58484 0.79546 0.9241 0.0
C2539 C 0.58539 0.78681 0.93824 0.0
C2540 C 0.59589 0.82286 0.93701 0.0
H2541 H 0.59962 0.83674 0.93704 0.0
C2542 C 0.59656 0.81428 0.95088 0.0
H2543 H 0.58036 0.78806 0.91383 0.0
C2544 C 0.59137 0.7964 0.9515 0.0
H2545 H 0.59191 0.78996 0.96243 0.0
H2546 H 0.601 0.82153 0.96122 0.0
H2547 H 0.8926 0.11656 0.87168 0.0
C2548 C 0.88033 0.1054 0.87056 0.0
C2549 C 0.86763 0.10266 0.88103 0.0
C2550 C 0.87657 0.09451 0.85803 0.0
H2551 H 0.84154 0.08692 0.88717 0.0
C2552 C 0.85144 0.08871 0.87928 0.0
C2553 C 0.8474 0.07773 0.867 0.0
C2554 C 0.86004 0.08054 0.85652 0.0
C2555 C 0.88888 0.09859 0.84563 0.0
H2556 H 0.85676 0.07197 0.84702 0.0
C2557 C 0.90734 0.10526 0.8486 0.0
C2558 C 0.91836 0.10886 0.83647 0.0
C2559 C 0.88194 0.09606 0.8304 0.0
H2560 H 0.86797 0.09162 0.82755 0.0
C2561 C 0.89287 0.09952 0.81852 0.0
H2562 H 0.9131 0.10744 0.86016 0.0
C2563 C 0.91094 0.10581 0.82152 0.0
H2564 H 0.91922 0.10851 0.81209 0.0
H2565 H 0.88731 0.09744 0.80691 0.0
H2566 H 0.69867 0.16236 0.65534 0.0
C2567 C 0.69646 0.17153 0.64712 0.0
C2568 C 0.68466 0.17914 0.64999 0.0
C2569 C 0.70653 0.17697 0.6343 0.0
H2570 H 0.6733 0.19737 0.6417 0.0
C2571 C 0.68242 0.19152 0.63959 0.0
C2572 C 0.6921 0.19698 0.62678 0.0
C2573 C 0.70413 0.18967 0.62411 0.0
C2574 C 0.7217 0.17198 0.63295 0.0
H2575 H 0.7122 0.19443 0.61453 0.0
C2576 C 0.71995 0.15455 0.63212 0.0
C2577 C 0.73488 0.15066 0.63056 0.0
C2578 C 0.73846 0.18526 0.63267 0.0
H2579 H 0.74021 0.19867 0.63351 0.0
C2580 C 0.75317 0.18148 0.6316 0.0
H2581 H 0.70706 0.14422 0.63221 0.0
C2582 C 0.75144 0.16441 0.63056 0.0
H2583 H 0.76323 0.16198 0.62988 0.0
H2584 H 0.76602 0.19186 0.63158 0.0
H2585 H 0.61386 0.8886 0.3935 0.0
C2586 C 0.62541 0.89983 0.39686 0.0
C2587 C 0.63628 0.89832 0.40952 0.0
C2588 C 0.62989 0.91553 0.38828 0.0
H2589 H 0.66043 0.91075 0.42288 0.0
C2590 C 0.65192 0.91228 0.41338 0.0
C2591 C 0.65719 0.92772 0.40467 0.0
C2592 C 0.64572 0.92953 0.39264 0.0
C2593 C 0.61919 0.91695 0.37398 0.0
H2594 H 0.6496 0.94169 0.38627 0.0
C2595 C 0.6008 0.90736 0.37197 0.0
C2596 C 0.59146 0.90845 0.35802 0.0
C2597 C 0.62772 0.92765 0.36177 0.0
H2598 H 0.64178 0.93464 0.36233 0.0
C2599 C 0.61838 0.92924 0.34831 0.0
H2600 H 0.5938 0.89888 0.38101 0.0
C2601 C 0.60045 0.91976 0.34643 0.0
H2602 H 0.59357 0.9211 0.33574 0.0
H2603 H 0.62517 0.93766 0.33915 0.0
H2604 H 0.84622 0.86392 0.09538 0.0
C2605 C 0.83687 0.86979 0.09643 0.0
C2606 C 0.83983 0.88144 0.1082 0.0
C2607 C 0.82222 0.8662 0.08584 0.0
H2608 H 0.83082 0.89893 0.11821 0.0
C2609 C 0.82821 0.88964 0.10936 0.0
C2610 C 0.81374 0.88658 0.09884 0.0
C2611 C 0.81071 0.8747 0.0873 0.0
C2612 C 0.81927 0.85444 0.07276 0.0
H2613 H 0.7992 0.87203 0.07953 0.0
C2614 C 0.82369 0.83965 0.07394 0.0
C2615 C 0.82042 0.8289 0.06132 0.0
C2616 C 0.81198 0.85823 0.05866 0.0
H2617 H 0.80906 0.86971 0.05697 0.0
C2618 C 0.8086 0.84749 0.04636 0.0
H2619 H 0.82951 0.83643 0.08451 0.0
C2620 C 0.81272 0.83292 0.04767 0.0
H2621 H 0.81022 0.82491 0.03786 0.0
H2622 H 0.80295 0.85061 0.03566 0.0
H2623 H 0.20152 0.65906 0.15334 0.0
C2624 C 0.19935 0.66903 0.14611 0.0
C2625 C 0.18616 0.67476 0.1492 0.0
C2626 C 0.21058 0.67715 0.13437 0.0
H2627 H 0.17348 0.69229 0.14228 0.0
C2628 C 0.18369 0.68793 0.14001 0.0
C2629 C 0.19446 0.69594 0.12822 0.0
C2630 C 0.208 0.69067 0.1255 0.0
C2631 C 0.22643 0.67339 0.13255 0.0
H2632 H 0.21669 0.69728 0.11665 0.0
C2633 C 0.2256 0.6565 0.13025 0.0
C2634 C 0.24105 0.65383 0.12792 0.0
C2635 C 0.24282 0.68732 0.13294 0.0
H2636 H 0.24389 0.70033 0.13486 0.0
C2637 C 0.25802 0.68468 0.13105 0.0
H2638 H 0.21302 0.64569 0.12979 0.0
C2639 C 0.25718 0.66817 0.12855 0.0
H2640 H 0.26932 0.66661 0.12727 0.0
H2641 H 0.27056 0.69554 0.13151 0.0
H2642 H 0.11036 0.3854 0.88512 0.0
C2643 C 0.12232 0.39647 0.88787 0.0
C2644 C 0.13283 0.39578 0.90114 0.0
C2645 C 0.12779 0.411 0.87775 0.0
H2646 H 0.15755 0.4088 0.91382 0.0
C2647 C 0.14884 0.4097 0.90421 0.0
C2648 C 0.15474 0.42393 0.89417 0.0
C2649 C 0.14408 0.42477 0.88121 0.0
C2650 C 0.11774 0.41111 0.86279 0.0
H2651 H 0.14891 0.43593 0.87357 0.0
C2652 C 0.09914 0.40353 0.86104 0.0
C2653 C 0.09032 0.40355 0.84661 0.0
C2654 C 0.12703 0.41854 0.84981 0.0
H2655 H 0.1412 0.42391 0.85041 0.0
C2656 C 0.11825 0.41883 0.8357 0.0
H2657 H 0.09159 0.39761 0.87073 0.0
C2658 C 0.10006 0.41138 0.83409 0.0
H2659 H 0.09352 0.41158 0.82295 0.0
H2660 H 0.12562 0.42465 0.8259 0.0
H2661 H 0.33375 0.34486 0.59993 0.0
C2662 C 0.32423 0.35049 0.601 0.0
C2663 C 0.32794 0.36352 0.61171 0.0
C2664 C 0.30881 0.34557 0.59114 0.0
H2665 H 0.31888 0.38149 0.62093 0.0
C2666 C 0.31599 0.3714 0.61278 0.0
C2667 C 0.30057 0.36674 0.6033 0.0
C2668 C 0.29697 0.35376 0.59267 0.0
C2669 C 0.30536 0.33287 0.57861 0.0
H2670 H 0.28477 0.35004 0.58569 0.0
C2671 C 0.31126 0.31899 0.57974 0.0
C2672 C 0.30719 0.30725 0.5677 0.0
C2673 C 0.29604 0.33489 0.56498 0.0
H2674 H 0.29205 0.34569 0.56309 0.0
C2675 C 0.29191 0.32323 0.5533 0.0
H2676 H 0.31869 0.31711 0.58989 0.0
C2677 C 0.2973 0.30947 0.55467 0.0
H2678 H 0.29412 0.30074 0.5453 0.0
H2679 H 0.28465 0.325 0.543 0.0
H2680 H 0.09374 0.53133 0.65056 0.0
C2681 C 0.09087 0.53671 0.66034 0.0
C2682 C 0.0816 0.54763 0.65808 0.0
C2683 C 0.09558 0.53211 0.67523 0.0
H2684 H 0.07036 0.56282 0.66881 0.0
C2685 C 0.07737 0.55427 0.67061 0.0
C2686 C 0.08217 0.55033 0.68542 0.0
C2687 C 0.09136 0.53933 0.68776 0.0
C2688 C 0.10352 0.51878 0.67785 0.0
H2689 H 0.09507 0.53635 0.69931 0.0
C2690 C 0.11596 0.51754 0.66835 0.0
C2691 C 0.12289 0.50451 0.67115 0.0
C2692 C 0.09808 0.50665 0.68995 0.0
H2693 H 0.08824 0.50673 0.69718 0.0
C2694 C 0.10495 0.49402 0.69284 0.0
H2695 H 0.12021 0.52664 0.65889 0.0
C2696 C 0.11726 0.49301 0.68366 0.0
H2697 H 0.12258 0.48326 0.6866 0.0
H2698 H 0.1007 0.48493 0.70231 0.0
H2699 H 0.43595 0.47729 0.13063 0.0
C2700 C 0.44205 0.47415 0.14109 0.0
C2701 C 0.45055 0.46262 0.14085 0.0
C2702 C 0.44178 0.48185 0.15481 0.0
H2703 H 0.46576 0.45031 0.15393 0.0
C2704 C 0.45905 0.45906 0.15423 0.0
C2705 C 0.45898 0.46647 0.16796 0.0
C2706 C 0.45003 0.47759 0.16829 0.0
C2707 C 0.43445 0.49553 0.15498 0.0
H2708 H 0.44995 0.48329 0.17895 0.0
C2709 C 0.41843 0.49414 0.14688 0.0
C2710 C 0.41241 0.50774 0.14706 0.0
C2711 C 0.44408 0.51062 0.16316 0.0
H2712 H 0.45652 0.51233 0.16923 0.0
C2713 C 0.43808 0.52392 0.16339 0.0
H2714 H 0.41075 0.48266 0.1405 0.0
C2715 C 0.42243 0.52254 0.15539 0.0
H2716 H 0.41805 0.53307 0.15576 0.0
H2717 H 0.44567 0.53543 0.16973 0.0
H2718 H 0.57598 0.30994 0.14558 0.0
C2719 C 0.58402 0.32242 0.14077 0.0
C2720 C 0.58177 0.33736 0.14471 0.0
C2721 C 0.59722 0.32376 0.1312 0.0
H2722 H 0.59116 0.36508 0.14239 0.0
C2723 C 0.59255 0.35356 0.13887 0.0
C2724 C 0.60603 0.35528 0.12964 0.0
C2725 C 0.60832 0.3403 0.12584 0.0
C2726 C 0.60085 0.30825 0.12826 0.0
H2727 H 0.61886 0.34154 0.11886 0.0
C2728 C 0.5876 0.29284 0.12253 0.0
C2729 C 0.5916 0.27833 0.1202 0.0
C2730 C 0.61793 0.30886 0.1315 0.0
H2731 H 0.62829 0.32044 0.13598 0.0
C2732 C 0.62181 0.2945 0.12929 0.0
H2733 H 0.5744 0.29219 0.11981 0.0
C2734 C 0.60875 0.27933 0.12373 0.0
H2735 H 0.61211 0.26838 0.12194 0.0
H2736 H 0.63501 0.29513 0.13188 0.0
H2737 H 0.95203 0.71165 0.63375 0.0
C2738 C 0.94299 0.69845 0.6317 0.0
C2739 C 0.94687 0.6846 0.63851 0.0
C2740 C 0.92697 0.69523 0.62301 0.0
H2741 H 0.93705 0.65694 0.64228 0.0
C2742 C 0.93466 0.66759 0.63639 0.0
C2743 C 0.91866 0.66404 0.62799 0.0
C2744 C 0.91492 0.67787 0.62122 0.0
C2745 C 0.92167 0.70977 0.61738 0.0
H2746 H 0.90247 0.67508 0.61476 0.0
C2747 C 0.9333 0.7252 0.61042 0.0
C2748 C 0.92759 0.73867 0.60561 0.0
C2749 C 0.90448 0.70819 0.61936 0.0
H2750 H 0.89533 0.69682 0.62493 0.0
C2751 C 0.89884 0.72131 0.61445 0.0
H2752 H 0.94659 0.72674 0.60879 0.0
C2753 C 0.91024 0.73638 0.60766 0.0
H2754 H 0.9054 0.74631 0.60386 0.0
H2755 H 0.88554 0.71981 0.616 0.0
H2756 H 0.61549 0.41464 0.65443 0.0
C2757 C 0.62902 0.42082 0.65881 0.0
C2758 C 0.64127 0.41391 0.65562 0.0
C2759 C 0.63448 0.43639 0.66663 0.0
H2760 H 0.66853 0.41784 0.65704 0.0
C2761 C 0.65904 0.42263 0.66039 0.0
C2762 C 0.66485 0.4384 0.66789 0.0
C2763 C 0.65236 0.44484 0.67138 0.0
C2764 C 0.62243 0.44555 0.66747 0.0
H2765 H 0.65667 0.45699 0.67717 0.0
C2766 C 0.60553 0.43741 0.67299 0.0
C2767 C 0.59446 0.44662 0.67304 0.0
C2768 C 0.62798 0.46286 0.66214 0.0
H2769 H 0.64073 0.46938 0.65766 0.0
C2770 C 0.61709 0.4719 0.66222 0.0
H2771 H 0.60105 0.4241 0.67718 0.0
C2772 C 0.60047 0.46387 0.66757 0.0
H2773 H 0.59233 0.47127 0.66764 0.0
H2774 H 0.62156 0.48521 0.65807 0.0
H2775 H 0.44943 0.69619 0.92207 0.0
C2776 C 0.43828 0.68401 0.92295 0.0
C2777 C 0.43694 0.66999 0.91415 0.0
C2778 C 0.42571 0.68186 0.9335 0.0
H2779 H 0.42237 0.64307 0.9096 0.0
C2780 C 0.42299 0.6539 0.91602 0.0
C2781 C 0.40994 0.65162 0.92595 0.0
C2782 C 0.41121 0.66587 0.93425 0.0
C2783 C 0.42827 0.69516 0.94507 0.0
H2784 H 0.40096 0.66444 0.94163 0.0
C2785 C 0.43506 0.71326 0.94177 0.0
C2786 C 0.43722 0.72502 0.9534 0.0
C2787 C 0.4239 0.68933 0.96006 0.0
H2788 H 0.41922 0.6757 0.96323 0.0
C2789 C 0.42565 0.70088 0.97131 0.0
H2790 H 0.43864 0.71814 0.9304 0.0
C2791 C 0.4322 0.71853 0.96803 0.0
H2792 H 0.43339 0.72724 0.97703 0.0
H2793 H 0.42201 0.69611 0.98268 0.0
H2794 H 0.0663 0.31443 0.38339 0.0
C2795 C 0.07781 0.32638 0.38302 0.0
C2796 C 0.07919 0.33821 0.37072 0.0
C2797 C 0.0908 0.33059 0.39525 0.0
H2798 H 0.09381 0.36354 0.36152 0.0
C2799 C 0.09344 0.35419 0.37064 0.0
C2800 C 0.10637 0.35879 0.38267 0.0
C2801 C 0.10521 0.34674 0.3947 0.0
C2802 C 0.08858 0.31938 0.40943 0.0
H2803 H 0.11536 0.35024 0.40391 0.0
C2804 C 0.0816 0.30101 0.40921 0.0
C2805 C 0.07976 0.29117 0.42301 0.0
C2806 C 0.09334 0.32741 0.42363 0.0
H2807 H 0.09817 0.34135 0.4244 0.0
C2808 C 0.09169 0.31768 0.43714 0.0
H2809 H 0.07772 0.29444 0.3985 0.0
C2810 C 0.08497 0.29972 0.43685 0.0
H2811 H 0.08372 0.29241 0.44753 0.0
H2812 H 0.0955 0.3241 0.44792 0.0
H2813 H 0.39492 0.62722 0.38965 0.0
C2814 C 0.38258 0.61661 0.38687 0.0
C2815 C 0.36953 0.61117 0.3974 0.0
C2816 C 0.37947 0.60865 0.37265 0.0
H2817 H 0.3429 0.59411 0.40133 0.0
C2818 C 0.35327 0.5979 0.39357 0.0
C2819 C 0.34982 0.59009 0.37949 0.0
C2820 C 0.36296 0.5952 0.36922 0.0
C2821 C 0.39273 0.61492 0.36089 0.0
H2822 H 0.36012 0.58868 0.35851 0.0
C2823 C 0.41107 0.62127 0.36472 0.0
C2824 C 0.42295 0.62692 0.35315 0.0
C2825 C 0.38684 0.61465 0.34539 0.0
H2826 H 0.37304 0.61057 0.34189 0.0
C2827 C 0.39861 0.61991 0.33406 0.0
H2828 H 0.41609 0.62175 0.37649 0.0
C2829 C 0.41651 0.62597 0.33788 0.0
H2830 H 0.42544 0.63015 0.32887 0.0
H2831 H 0.39381 0.61947 0.32223 0.0
C2832 C 0.1821 0.42311 0.12751 0.0
C2833 C 0.18723 0.4333 0.11422 0.0
H2834 H 0.16421 0.3996 0.13731 0.0
C2835 C 0.17641 0.42848 0.10077 0.0
H2836 H 0.19025 0.42652 0.13803 0.0
C2837 C 0.16127 0.41329 0.10041 0.0
C2838 C 0.15678 0.40232 0.11341 0.0
H2839 H 0.17991 0.43625 0.09042 0.0
H2840 H 0.15342 0.4098 0.08976 0.0
C2841 C 0.1671 0.40772 0.1271 0.0
C2842 C 0.86491 0.94432 0.39684 0.0
C2843 C 0.86911 0.95809 0.40678 0.0
H2844 H 0.87334 0.92643 0.38703 0.0
C2845 C 0.8862 0.96518 0.41375 0.0
H2846 H 0.85198 0.93872 0.39108 0.0
C2847 C 0.89855 0.95828 0.41124 0.0
C2848 C 0.89415 0.94413 0.40168 0.0
H2849 H 0.88989 0.97573 0.42151 0.0
H2850 H 0.91148 0.96383 0.41701 0.0
C2851 C 0.87726 0.93744 0.39432 0.0
C2852 C 0.35215 0.56543 0.62597 0.0
C2853 C 0.33939 0.55911 0.63669 0.0
H2854 H 0.37461 0.58671 0.61842 0.0
C2855 C 0.34065 0.56952 0.64902 0.0
H2856 H 0.35153 0.55787 0.61626 0.0
C2857 C 0.35401 0.58609 0.65028 0.0
C2858 C 0.36625 0.59262 0.63916 0.0
H2859 H 0.33116 0.56496 0.65757 0.0
H2860 H 0.35426 0.59409 0.65954 0.0
C2861 C 0.36537 0.58198 0.62717 0.0
C2862 C 0.64812 0.08234 0.88768 0.0
C2863 C 0.63883 0.06506 0.89233 0.0
H2864 H 0.64832 0.10793 0.88468 0.0
C2865 C 0.62274 0.06084 0.89881 0.0
H2866 H 0.66052 0.08609 0.88263 0.0
C2867 C 0.61566 0.07332 0.89986 0.0
C2868 C 0.62451 0.09041 0.89451 0.0
H2869 H 0.61538 0.04775 0.90281 0.0
H2870 H 0.60285 0.06933 0.90422 0.0
C2871 C 0.64104 0.09485 0.88877 0.0
C2872 C 0.15417 0.60047 0.38323 0.0
C2873 C 0.14876 0.58312 0.38843 0.0
H2874 H 0.1478 0.6228 0.37945 0.0
C2875 C 0.13242 0.57535 0.39483 0.0
H2876 H 0.16653 0.60688 0.37809 0.0
C2877 C 0.1216 0.58456 0.39557 0.0
C2878 C 0.12681 0.60169 0.38983 0.0
H2879 H 0.12791 0.56208 0.39911 0.0
H2880 H 0.10885 0.57803 0.40004 0.0
C2881 C 0.14337 0.60961 0.38394 0.0
C2882 C 0.6606 0.92218 0.62301 0.0
C2883 C 0.6731 0.92478 0.63539 0.0
H2884 H 0.6369 0.90458 0.61183 0.0
C2885 C 0.6695 0.91235 0.6474 0.0
H2886 H 0.66293 0.93146 0.61357 0.0
C2887 C 0.65456 0.89695 0.6464 0.0
C2888 C 0.64296 0.89367 0.63335 0.0
H2889 H 0.67872 0.91413 0.65723 0.0
H2890 H 0.65286 0.88707 0.65528 0.0
C2891 C 0.6457 0.90676 0.622 0.0
C2892 C 0.38407 0.4561 0.89835 0.0
C2893 C 0.37254 0.45128 0.91011 0.0
H2894 H 0.40242 0.4502 0.88645 0.0
C2895 C 0.36962 0.43557 0.91815 0.0
H2896 H 0.3864 0.46804 0.89184 0.0
C2897 C 0.37883 0.42544 0.91509 0.0
C2898 C 0.39097 0.43069 0.90381 0.0
H2899 H 0.36087 0.43153 0.92729 0.0
H2900 H 0.37685 0.41372 0.92187 0.0
C2901 C 0.39311 0.44585 0.89516 0.0
C2902 C 0.85461 0.08967 0.13646 0.0
C2903 C 0.8537 0.07719 0.12609 0.0
H2904 H 0.86839 0.11572 0.1441 0.0
C2905 C 0.86717 0.08126 0.11615 0.0
H2906 H 0.84455 0.08686 0.14437 0.0
C2907 C 0.88076 0.0976 0.11611 0.0
C2908 C 0.88129 0.11028 0.12603 0.0
H2909 H 0.86682 0.07209 0.10789 0.0
H2910 H 0.89052 0.1006 0.10786 0.0
C2911 C 0.86836 0.10607 0.13648 0.0
C2912 C 0.06074 0.06462 0.41622 0.0
C2913 C 0.07084 0.08199 0.41951 0.0
H2914 H 0.05831 0.04287 0.40322 0.0
C2915 C 0.08753 0.0901 0.41401 0.0
H2916 H 0.04778 0.05823 0.42032 0.0
C2917 C 0.09364 0.08132 0.4045 0.0
C2918 C 0.08306 0.06434 0.40029 0.0
H2919 H 0.09534 0.10361 0.41623 0.0
H2920 H 0.10591 0.08832 0.39934 0.0
C2921 C 0.06682 0.05583 0.40661 0.0
C2922 C 0.05251 0.82365 0.70086 0.0
C2923 C 0.0419 0.83255 0.69517 0.0
H2924 H 0.07332 0.81577 0.69661 0.0
C2925 C 0.04211 0.83755 0.67967 0.0
H2926 H 0.05251 0.81942 0.71269 0.0
C2927 C 0.05384 0.83526 0.67049 0.0
C2928 C 0.06548 0.82777 0.67657 0.0
H2929 H 0.0343 0.8446 0.6749 0.0
H2930 H 0.05487 0.84067 0.659 0.0
C2931 C 0.06422 0.82129 0.69162 0.0
C2932 C 0.44671 0.9436 0.898 0.0
C2933 C 0.43517 0.92865 0.90522 0.0
H2934 H 0.45093 0.96052 0.87825 0.0
C2935 C 0.41792 0.92055 0.89881 0.0
H2936 H 0.46004 0.95009 0.90273 0.0
C2937 C 0.4127 0.92655 0.88488 0.0
C2938 C 0.42462 0.94079 0.87717 0.0
H2939 H 0.40887 0.90882 0.90401 0.0
H2940 H 0.39983 0.91923 0.87956 0.0
C2941 C 0.44147 0.94963 0.8841 0.0
C2942 C 0.4876 0.19827 0.18646 0.0
C2943 C 0.49334 0.18451 0.18874 0.0
H2944 H 0.47145 0.20897 0.17281 0.0
C2945 C 0.49026 0.17321 0.17669 0.0
H2946 H 0.4903 0.2077 0.19517 0.0
C2947 C 0.48005 0.17442 0.16357 0.0
C2948 C 0.47225 0.18666 0.16229 0.0
H2949 H 0.49446 0.1625 0.17779 0.0
H2950 H 0.47703 0.16481 0.15497 0.0
C2951 C 0.47703 0.19924 0.17345 0.0
C2952 C 0.1477 0.87581 0.14814 0.0
C2953 C 0.13518 0.87392 0.13584 0.0
H2954 H 0.16099 0.88974 0.16807 0.0
C2955 C 0.12516 0.88415 0.13538 0.0
H2956 H 0.15568 0.86821 0.149 0.0
C2957 C 0.12862 0.89694 0.14606 0.0
C2958 C 0.14199 0.89969 0.15775 0.0
H2959 H 0.11501 0.88275 0.1264 0.0
H2960 H 0.1214 0.90526 0.14454 0.0
C2961 C 0.15094 0.88841 0.15901 0.0
C2962 C 0.36375 0.85171 0.38382 0.0
C2963 C 0.36341 0.83948 0.37342 0.0
H2964 H 0.35288 0.85675 0.40316 0.0
C2965 C 0.34962 0.82307 0.3736 0.0
H2966 H 0.37395 0.86461 0.38382 0.0
C2967 C 0.33727 0.81863 0.38459 0.0
C2968 C 0.33839 0.83048 0.39569 0.0
H2969 H 0.34889 0.81331 0.36578 0.0
H2970 H 0.32719 0.80567 0.38474 0.0
C2971 C 0.35147 0.84727 0.39482 0.0
C2972 C 0.35223 0.11438 0.60909 0.0
C2973 C 0.36044 0.1325 0.60925 0.0
H2974 H 0.34759 0.09046 0.62159 0.0
C2975 C 0.37216 0.14032 0.62167 0.0
H2976 H 0.34311 0.10804 0.59969 0.0
C2977 C 0.37494 0.13029 0.63405 0.0
C2978 C 0.36583 0.11227 0.63435 0.0
H2979 H 0.37873 0.15428 0.62201 0.0
H2980 H 0.38341 0.13668 0.64377 0.0
C2981 C 0.35478 0.10436 0.6216 0.0
C2982 C 0.16576 0.18645 0.85184 0.0
C2983 C 0.14854 0.17548 0.85481 0.0
H2984 H 0.19282 0.19642 0.86038 0.0
C2985 C 0.14555 0.16452 0.86778 0.0
H2986 H 0.16828 0.19503 0.84189 0.0
C2987 C 0.15945 0.16503 0.87804 0.0
C2988 C 0.17654 0.17664 0.87556 0.0
H2989 H 0.13234 0.15599 0.87025 0.0
H2990 H 0.15675 0.15705 0.88835 0.0
C2991 C 0.17971 0.18718 0.8623 0.0
C2992 C 0.86624 0.32346 0.8694 0.0
C2993 C 0.86737 0.33648 0.85831 0.0
H2994 H 0.85395 0.30918 0.88875 0.0
C2995 C 0.8549 0.34405 0.85771 0.0
H2996 H 0.87541 0.31713 0.8701 0.0
C2997 C 0.84203 0.33911 0.86837 0.0
C2998 C 0.84132 0.32641 0.87977 0.0
H2999 H 0.85544 0.35416 0.84932 0.0
H3000 H 0.83276 0.34531 0.86777 0.0
C3001 C 0.85362 0.31867 0.88001 0.0
C3002 C 0.86662 0.62634 0.0844 0.0
C3003 C 0.87218 0.64394 0.08765 0.0
H3004 H 0.86256 0.60081 0.0933 0.0
C3005 C 0.88057 0.6496 0.10205 0.0
H3006 H 0.86003 0.62157 0.07348 0.0
C3007 C 0.88223 0.63777 0.1133 0.0
C3008 C 0.87543 0.62004 0.1104 0.0
H3009 H 0.88512 0.66312 0.10483 0.0
H3010 H 0.88769 0.64231 0.12458 0.0
C3011 C 0.8681 0.61449 0.09572 0.0
C3012 C 0.66135 0.67981 0.37389 0.0
C3013 C 0.65967 0.69542 0.36933 0.0
H3014 H 0.67545 0.66748 0.38814 0.0
C3015 C 0.67296 0.71111 0.37391 0.0
H3016 H 0.65121 0.66752 0.37056 0.0
C3017 C 0.68713 0.71114 0.38368 0.0
C3018 C 0.68803 0.69546 0.3894 0.0
H3019 H 0.67206 0.72332 0.37037 0.0
H3020 H 0.69691 0.72345 0.38739 0.0
C3021 C 0.67534 0.67981 0.3839 0.0
C3022 C 0.95842 0.4662 0.38961 0.0
C3023 C 0.94964 0.44852 0.39318 0.0
H3024 H 0.96144 0.48669 0.37288 0.0
C3025 C 0.93573 0.43827 0.38335 0.0
H3026 H 0.96929 0.47425 0.39703 0.0
C3027 C 0.93119 0.44534 0.36975 0.0
C3028 C 0.94045 0.46278 0.36577 0.0
H3029 H 0.92904 0.42454 0.38578 0.0
H3030 H 0.92125 0.43688 0.36183 0.0
C3031 C 0.95385 0.4733 0.37594 0.0
C3032 C 0.56375 0.55814 0.93575 0.0
C3033 C 0.57715 0.57194 0.94325 0.0
H3034 H 0.55715 0.53965 0.91822 0.0
C3035 C 0.5947 0.57472 0.94141 0.0
H3036 H 0.55012 0.55547 0.93719 0.0
C3037 C 0.59872 0.56555 0.93061 0.0
C3038 C 0.58524 0.55353 0.92155 0.0
H3039 H 0.60532 0.58523 0.94707 0.0
H3040 H 0.61227 0.56937 0.92811 0.0
C3041 C 0.56777 0.54896 0.92502 0.0
C3042 C 0.86699 0.57637 0.91593 0.0
C3043 C 0.852 0.57344 0.90602 0.0
H3044 H 0.89333 0.59376 0.92206 0.0
C3045 C 0.85342 0.58382 0.89271 0.0
H3046 H 0.86626 0.5686 0.92628 0.0
C3047 C 0.86898 0.59798 0.89017 0.0
C3048 C 0.88332 0.60202 0.90094 0.0
H3049 H 0.8421 0.5817 0.8848 0.0
H3050 H 0.8692 0.60676 0.88062 0.0
C3051 C 0.88252 0.59065 0.91345 0.0
C3052 C 0.13646 0.07524 0.67827 0.0
C3053 C 0.13184 0.06113 0.66868 0.0
H3054 H 0.1323 0.09788 0.68348 0.0
C3055 C 0.11931 0.05947 0.65642 0.0
H3056 H 0.146 0.07688 0.68784 0.0
C3057 C 0.11145 0.07151 0.65391 0.0
C3058 C 0.11578 0.08539 0.6637 0.0
H3059 H 0.11561 0.04888 0.6487 0.0
H3060 H 0.10173 0.06977 0.64447 0.0
C3061 C 0.12847 0.08718 0.67585 0.0
C3062 C 0.68349 0.44499 0.39306 0.0
C3063 C 0.69087 0.45029 0.37893 0.0
H3064 H 0.66331 0.42579 0.4055 0.0
C3065 C 0.68464 0.43876 0.36687 0.0
H3066 H 0.68821 0.45344 0.40267 0.0
C3067 C 0.67049 0.42292 0.36856 0.0
C3068 C 0.66228 0.41821 0.38234 0.0
H3069 H 0.68997 0.44239 0.35585 0.0
H3070 H 0.6654 0.41469 0.35882 0.0
C3071 C 0.66936 0.42908 0.39476 0.0
C3072 C 0.36782 0.92558 0.16748 0.0
C3073 C 0.37173 0.94073 0.15838 0.0
H3074 H 0.37418 0.90387 0.17446 0.0
C3075 C 0.38586 0.94553 0.149 0.0
H3076 H 0.35721 0.92159 0.17498 0.0
C3077 C 0.39574 0.93525 0.14872 0.0
C3078 C 0.39182 0.92021 0.15802 0.0
H3079 H 0.38913 0.9571 0.1418 0.0
H3080 H 0.40658 0.9392 0.14149 0.0
C3081 C 0.37767 0.91548 0.16728 0.0
C3082 C 0.88183 0.45041 0.63505 0.0
C3083 C 0.86782 0.44458 0.6446 0.0
H3084 H 0.90338 0.44588 0.62699 0.0
C3085 C 0.86492 0.42938 0.65346 0.0
H3086 H 0.88434 0.46204 0.62802 0.0
C3087 C 0.87573 0.42029 0.65289 0.0
C3088 C 0.88976 0.42607 0.64343 0.0
H3089 H 0.85441 0.42461 0.66108 0.0
H3090 H 0.8731 0.40865 0.65993 0.0
C3091 C 0.89262 0.44113 0.63436 0.0
C3092 C 0.36396 0.07789 0.4162 0.0
C3093 C 0.34951 0.07804 0.40673 0.0
H3094 H 0.39073 0.09223 0.42405 0.0
C3095 C 0.35213 0.09149 0.39573 0.0
H3096 H 0.36235 0.06776 0.42482 0.0
C3097 C 0.36841 0.10529 0.39515 0.0
C3098 C 0.38237 0.10589 0.40553 0.0
H3099 H 0.3413 0.09183 0.38814 0.0
H3100 H 0.36965 0.1162 0.38747 0.0
C3101 C 0.38024 0.09179 0.41568 0.0
C3102 C 0.64387 0.58508 0.13919 0.0
C3103 C 0.6368 0.56901 0.14698 0.0
H3104 H 0.64181 0.60932 0.13313 0.0
C3105 C 0.62271 0.56602 0.15604 0.0
H3106 H 0.65465 0.5879 0.13206 0.0
C3107 C 0.61521 0.57829 0.15654 0.0
C3108 C 0.62161 0.5939 0.148 0.0
H3109 H 0.61712 0.55396 0.16246 0.0
H3110 H 0.60378 0.57509 0.16296 0.0
C3111 C 0.6364 0.59735 0.13972 0.0
C3112 C 0.16293 0.92691 0.89897 0.0
C3113 C 0.16957 0.93062 0.88447 0.0
H3114 H 0.14311 0.90951 0.91286 0.0
C3115 C 0.16235 0.91806 0.87328 0.0
H3116 H 0.16842 0.93622 0.90791 0.0
C3117 C 0.14795 0.90278 0.87616 0.0
C3118 C 0.14053 0.89968 0.89031 0.0
H3119 H 0.1671 0.92048 0.862 0.0
H3120 H 0.14204 0.89375 0.86706 0.0
C3121 C 0.14859 0.91156 0.90189 0.0
C3122 C 0.95656 0.9511 0.6117 0.0
C3123 C 0.94813 0.93326 0.60924 0.0
H3124 H 0.9592 0.97208 0.6259 0.0
C3125 C 0.93433 0.92318 0.61813 0.0
H3126 H 0.96737 0.95904 0.60506 0.0
C3127 C 0.92964 0.93057 0.62986 0.0
C3128 C 0.93863 0.94819 0.63292 0.0
H3129 H 0.92778 0.90938 0.61648 0.0
H3130 H 0.91968 0.92229 0.63716 0.0
C3131 C 0.95182 0.95854 0.62351 0.0
C3132 C 0.9653 0.17146 0.37153 0.0
C3133 C 0.96833 0.1833 0.35911 0.0
H3134 H 0.95383 0.16327 0.39282 0.0
C3135 C 0.96332 0.19747 0.35984 0.0
H3136 H 0.96877 0.16032 0.37147 0.0
C3137 C 0.9544 0.199 0.37211 0.0
C3138 C 0.95031 0.1864 0.38391 0.0
H3139 H 0.96578 0.20709 0.35067 0.0
H3140 H 0.94985 0.20946 0.37195 0.0
C3141 C 0.95653 0.17306 0.38376 0.0
C3142 C 0.58952 0.0879 0.13638 0.0
C3143 C 0.57291 0.07719 0.13022 0.0
H3144 H 0.61029 0.09056 0.15344 0.0
C3145 C 0.56538 0.05985 0.13526 0.0
H3146 H 0.59539 0.10139 0.13277 0.0
C3147 C 0.57407 0.05356 0.14693 0.0
C3148 C 0.59022 0.06466 0.15371 0.0
H3149 H 0.55249 0.05147 0.13069 0.0
H3150 H 0.56768 0.04046 0.15136 0.0
C3151 C 0.59807 0.08171 0.1481 0.0
C3152 C 0.53462 0.82845 0.86257 0.0
C3153 C 0.53602 0.82236 0.84842 0.0
H3154 H 0.54587 0.83463 0.88534 0.0
C3155 C 0.5487 0.81533 0.84731 0.0
H3156 H 0.52524 0.83422 0.86381 0.0
C3157 C 0.5605 0.81556 0.85974 0.0
C3158 C 0.55973 0.8227 0.87349 0.0
H3159 H 0.55002 0.81039 0.83664 0.0
H3160 H 0.57089 0.81116 0.85832 0.0
C3161 C 0.5464 0.82866 0.87494 0.0
C3162 C 0.88303 0.12627 0.91803 0.0
C3163 C 0.87021 0.13315 0.91908 0.0
H3164 H 0.89252 0.11142 0.90488 0.0
C3165 C 0.85789 0.13152 0.9067 0.0
H3166 H 0.89286 0.12753 0.92729 0.0
C3167 C 0.85784 0.12248 0.89394 0.0
C3168 C 0.87011 0.11491 0.89322 0.0
H3169 H 0.84776 0.13652 0.90714 0.0
H3170 H 0.84772 0.12078 0.88484 0.0
C3171 C 0.88302 0.11726 0.90516 0.0
C3172 C 0.66273 0.18642 0.68295 0.0
C3173 C 0.65037 0.1697 0.68588 0.0
H3174 H 0.68376 0.20236 0.66964 0.0
C3175 C 0.65156 0.15561 0.67888 0.0
H3176 H 0.66234 0.19748 0.68838 0.0
C3177 C 0.66382 0.15841 0.668 0.0
C3178 C 0.67506 0.17534 0.66406 0.0
H3179 H 0.6422 0.14257 0.68097 0.0
H3180 H 0.66362 0.14752 0.6619 0.0
C3181 C 0.675 0.18919 0.67224 0.0
C3182 C 0.63116 0.86647 0.44241 0.0
C3183 C 0.63598 0.85406 0.43618 0.0
H3184 H 0.62722 0.89022 0.43867 0.0
C3185 C 0.6382 0.85516 0.42045 0.0
H3186 H 0.62901 0.8659 0.45438 0.0
C3187 C 0.63665 0.86882 0.41142 0.0
C3188 C 0.63296 0.88172 0.41792 0.0
H3189 H 0.6422 0.84607 0.41523 0.0
H3190 H 0.63955 0.86996 0.39959 0.0
C3191 C 0.62985 0.88025 0.4334 0.0
C3192 C 0.86863 0.88514 0.14459 0.0
C3193 C 0.88468 0.89808 0.1406 0.0
H3194 H 0.8419 0.86962 0.13736 0.0
C3195 C 0.88594 0.90472 0.1255 0.0
H3196 H 0.86718 0.87948 0.15598 0.0
C3197 C 0.87156 0.89873 0.1148 0.0
C3198 C 0.85557 0.88606 0.11895 0.0
H3199 H 0.89791 0.91488 0.122 0.0
H3200 H 0.87276 0.90438 0.10339 0.0
C3201 C 0.85421 0.87929 0.1339 0.0
C3202 C 0.16001 0.6743 0.18209 0.0
C3203 C 0.1472 0.65733 0.18175 0.0
H3204 H 0.18268 0.69296 0.17217 0.0
C3205 C 0.14941 0.64531 0.17251 0.0
H3206 H 0.15879 0.68395 0.18898 0.0
C3207 C 0.16319 0.65053 0.16282 0.0
C3208 C 0.17496 0.66787 0.16219 0.0
H3209 H 0.13999 0.63204 0.1722 0.0
H3210 H 0.16386 0.64134 0.15505 0.0
C3211 C 0.17371 0.67949 0.17241 0.0
C3212 C 0.13323 0.36704 0.93559 0.0
C3213 C 0.13217 0.35195 0.92875 0.0
H3214 H 0.13381 0.39273 0.93214 0.0
C3215 C 0.12792 0.35033 0.91296 0.0
H3216 H 0.1365 0.36876 0.94768 0.0
C3217 C 0.12637 0.36408 0.90405 0.0
C3218 C 0.12906 0.37975 0.91074 0.0
H3219 H 0.12668 0.33873 0.90737 0.0
H3220 H 0.12445 0.36291 0.89181 0.0
C3221 C 0.13171 0.3808 0.92667 0.0
C3222 C 0.36969 0.3941 0.63215 0.0
C3223 C 0.37432 0.38292 0.64246 0.0
H3224 H 0.35158 0.39666 0.61432 0.0
C3225 C 0.36406 0.36501 0.64191 0.0
H3226 H 0.37717 0.40794 0.63228 0.0
C3227 C 0.34941 0.35852 0.63147 0.0
C3228 C 0.34459 0.36982 0.62151 0.0
H3229 H 0.36738 0.35602 0.64956 0.0
H3230 H 0.34154 0.34475 0.63151 0.0
C3231 C 0.355 0.38764 0.62188 0.0
C3232 C 0.08364 0.57576 0.62333 0.0
C3233 C 0.06587 0.57329 0.62076 0.0
H3234 H 0.10264 0.56899 0.63725 0.0
C3235 C 0.05324 0.5593 0.62816 0.0
H3236 H 0.0937 0.5865 0.61787 0.0
C3237 C 0.05839 0.54922 0.63912 0.0
C3238 C 0.07626 0.55296 0.64287 0.0
H3239 H 0.03945 0.55693 0.62625 0.0
H3240 H 0.04851 0.53954 0.64566 0.0
C3241 C 0.0888 0.56568 0.63435 0.0
C3242 C 0.44694 0.4264 0.11624 0.0
C3243 C 0.45849 0.43517 0.10506 0.0
H3244 H 0.43499 0.42845 0.13612 0.0
C3245 C 0.46535 0.45336 0.10428 0.0
H3246 H 0.44152 0.41238 0.11702 0.0
C3247 C 0.46155 0.46261 0.11525 0.0
C3248 C 0.4508 0.45371 0.12698 0.0
H3249 H 0.47438 0.46034 0.09578 0.0
H3250 H 0.46789 0.4766 0.11516 0.0
C3251 C 0.44311 0.43556 0.12707 0.0
C3252 C 0.54899 0.3483 0.16395 0.0
C3253 C 0.55302 0.3451 0.17935 0.0
H3254 H 0.55484 0.34803 0.14084 0.0
C3255 C 0.56461 0.33669 0.18294 0.0
H3256 H 0.54031 0.35494 0.16076 0.0
C3257 C 0.57279 0.33255 0.17142 0.0
C3258 C 0.56964 0.33693 0.15617 0.0
H3259 H 0.56787 0.33393 0.19467 0.0
H3260 H 0.58249 0.32708 0.17452 0.0
C3261 C 0.55728 0.34434 0.15251 0.0
C3262 C 0.9801 0.67344 0.66365 0.0
C3263 C 0.98155 0.68304 0.67659 0.0
H3264 H 0.96869 0.66712 0.64103 0.0
C3265 C 0.97508 0.69633 0.67518 0.0
H3266 H 0.98491 0.66316 0.6641 0.0
C3267 C 0.96532 0.69829 0.66196 0.0
C3268 C 0.96207 0.68718 0.64978 0.0
H3269 H 0.97653 0.70448 0.68466 0.0
H3270 H 0.95903 0.70742 0.66186 0.0
C3271 C 0.97066 0.67564 0.65037 0.0
C3272 C 0.62815 0.38883 0.61937 0.0
C3273 C 0.63253 0.37443 0.62331 0.0
H3274 H 0.6272 0.41235 0.62661 0.0
C3275 C 0.63815 0.37233 0.63855 0.0
H3276 H 0.62414 0.3912 0.60776 0.0
C3277 C 0.64023 0.38475 0.64929 0.0
C3278 C 0.63636 0.39932 0.64514 0.0
H3279 H 0.64132 0.36129 0.64214 0.0
H3280 H 0.64526 0.38319 0.66078 0.0
C3281 C 0.62992 0.40103 0.63018 0.0
C3282 C 0.46096 0.68302 0.87807 0.0
C3283 C 0.46614 0.66909 0.87666 0.0
H3284 H 0.44787 0.69441 0.89122 0.0
C3285 C 0.46431 0.65732 0.88905 0.0
H3286 H 0.46253 0.69257 0.86893 0.0
C3287 C 0.4562 0.65859 0.90187 0.0
C3288 C 0.44961 0.67158 0.90266 0.0
H3289 H 0.46805 0.64641 0.88847 0.0
H3290 H 0.45411 0.64874 0.91083 0.0
C3291 C 0.45278 0.68425 0.89093 0.0
C3292 C 0.05649 0.33222 0.33149 0.0
C3293 C 0.04522 0.34094 0.33253 0.0
H3294 H 0.07588 0.32402 0.34311 0.0
C3295 C 0.04312 0.34581 0.34699 0.0
H3296 H 0.05827 0.32812 0.32058 0.0
C3297 C 0.05296 0.34317 0.35984 0.0
C3298 C 0.06505 0.33554 0.35856 0.0
H3299 H 0.03481 0.35279 0.34824 0.0
H3300 H 0.05211 0.3483 0.37058 0.0
C3301 C 0.06637 0.32962 0.34439 0.0
C3302 C 0.37678 0.64547 0.42622 0.0
C3303 C 0.37085 0.63524 0.43938 0.0
H3304 H 0.38135 0.64588 0.4026 0.0
C3305 C 0.36615 0.61727 0.43889 0.0
H3306 H 0.3807 0.65938 0.42628 0.0
C3307 C 0.3667 0.60964 0.42544 0.0
C3308 C 0.37196 0.61975 0.41213 0.0
H3309 H 0.36136 0.60897 0.44874 0.0
H3310 H 0.36245 0.59569 0.42531 0.0
C3311 C 0.3774 0.6378 0.41273 0.0
C3312 C 0.13919 0.32511 0.07593 0.0
C3313 C 0.13656 0.33023 0.06072 0.0
H3314 H 0.13898 0.32959 0.09957 0.0
C3315 C 0.13097 0.34402 0.05801 0.0
H3316 H 0.14391 0.31487 0.07855 0.0
C3317 C 0.12841 0.35262 0.07015 0.0
C3318 C 0.13113 0.34747 0.08526 0.0
H3319 H 0.12857 0.34819 0.04651 0.0
H3320 H 0.12443 0.36339 0.06775 0.0
C3321 C 0.13639 0.33354 0.08802 0.0
C3322 C 0.91993 0.93244 0.30653 0.0
C3323 C 0.93222 0.92896 0.29866 0.0
H3324 H 0.90749 0.92956 0.32749 0.0
C3325 C 0.94292 0.92155 0.30694 0.0
H3326 H 0.91163 0.93838 0.30063 0.0
C3327 C 0.94061 0.91667 0.32226 0.0
C3328 C 0.92759 0.91909 0.32983 0.0
H3329 H 0.95241 0.91849 0.30137 0.0
H3330 H 0.94847 0.91017 0.32804 0.0
C3331 C 0.91767 0.9276 0.32198 0.0
C3332 C 0.36746 0.66496 0.599 0.0
C3333 C 0.37448 0.66501 0.58504 0.0
H3334 H 0.36629 0.65687 0.62255 0.0
C3335 C 0.38682 0.65735 0.58468 0.0
H3336 H 0.35772 0.67039 0.59976 0.0
C3337 C 0.39149 0.64937 0.59776 0.0
C3338 C 0.38419 0.64915 0.61153 0.0
H3339 H 0.39279 0.65737 0.57427 0.0
H3340 H 0.40058 0.64312 0.59707 0.0
C3341 C 0.37232 0.65719 0.61209 0.0
C3342 C 0.61848 0.14618 0.83931 0.0
C3343 C 0.60205 0.14198 0.83118 0.0
H3344 H 0.63255 0.14337 0.86017 0.0
C3345 C 0.58685 0.13269 0.83886 0.0
H3346 H 0.63048 0.15367 0.83393 0.0
C3347 C 0.58808 0.12708 0.854 0.0
C3348 C 0.60453 0.1305 0.8618 0.0
H3349 H 0.57398 0.12902 0.833 0.0
H3350 H 0.57615 0.11932 0.85937 0.0
C3351 C 0.61971 0.14038 0.85438 0.0
C3352 C 0.07404 0.61381 0.47783 0.0
C3353 C 0.07718 0.63056 0.48258 0.0
H3354 H 0.0703 0.59734 0.45904 0.0
C3355 C 0.08091 0.6441 0.47154 0.0
H3356 H 0.07084 0.60299 0.48591 0.0
C3357 C 0.08074 0.6408 0.45611 0.0
C3358 C 0.07687 0.62393 0.45142 0.0
H3359 H 0.08355 0.65716 0.47479 0.0
H3360 H 0.08273 0.65126 0.44776 0.0
C3361 C 0.07381 0.61054 0.46244 0.0
C3362 C 0.55153 0.84796 0.69082 0.0
C3363 C 0.55266 0.84225 0.70608 0.0
H3364 H 0.55955 0.8488 0.66818 0.0
C3365 C 0.56398 0.8337 0.71019 0.0
H3366 H 0.54314 0.85484 0.68729 0.0
C3367 C 0.57344 0.83042 0.69931 0.0
C3368 C 0.57187 0.83556 0.68397 0.0
H3369 H 0.56513 0.82903 0.72176 0.0
H3370 H 0.58179 0.82351 0.70288 0.0
C3371 C 0.56109 0.84471 0.67989 0.0
C3372 C 0.4349 0.38506 0.94893 0.0
C3373 C 0.44419 0.39887 0.95869 0.0
H3374 H 0.42077 0.37733 0.92722 0.0
C3375 C 0.44805 0.41589 0.95299 0.0
H3376 H 0.43164 0.3718 0.95293 0.0
C3377 C 0.44169 0.419 0.93843 0.0
C3378 C 0.43152 0.4052 0.92905 0.0
H3379 H 0.45557 0.42688 0.95999 0.0
H3380 H 0.44427 0.43223 0.93466 0.0
C3381 C 0.42866 0.38821 0.93422 0.0
C3382 C 0.96138 0.16587 0.21082 0.0
C3383 C 0.96724 0.15227 0.21098 0.0
H3384 H 0.94996 0.18153 0.19789 0.0
C3385 C 0.96547 0.14373 0.19726 0.0
H3386 H 0.96268 0.17298 0.22099 0.0
C3387 C 0.95844 0.14897 0.18373 0.0
C3388 C 0.95305 0.1629 0.18359 0.0
H3389 H 0.96957 0.13302 0.19695 0.0
H3390 H 0.95772 0.14246 0.17333 0.0
C3391 C 0.95428 0.17098 0.19742 0.0
C3392 C 0.04851 0.06964 0.33414 0.0
C3393 C 0.05871 0.08648 0.32899 0.0
H3394 H 0.04816 0.04733 0.34752 0.0
C3395 C 0.07708 0.09227 0.33093 0.0
H3396 H 0.03433 0.06481 0.3329 0.0
C3397 C 0.08499 0.0821 0.33907 0.0
C3398 C 0.07467 0.06605 0.34559 0.0
H3399 H 0.08531 0.1051 0.32695 0.0
H3400 H 0.09907 0.08752 0.34149 0.0
C3401 C 0.0564 0.05958 0.34247 0.0
C3402 C 0.07153 0.7366 0.62377 0.0
C3403 C 0.07201 0.73842 0.60782 0.0
H3404 H 0.07943 0.74921 0.64522 0.0
C3405 C 0.07894 0.75531 0.60136 0.0
H3406 H 0.06604 0.72391 0.6292 0.0
C3407 C 0.08625 0.76981 0.6106 0.0
C3408 C 0.08677 0.76779 0.62649 0.0
H3409 H 0.0798 0.75734 0.58919 0.0
H3410 H 0.09256 0.7825 0.60534 0.0
C3411 C 0.07894 0.75111 0.63298 0.0
C3412 C 0.4341 0.90511 0.81447 0.0
C3413 C 0.44938 0.91473 0.80706 0.0
H3414 H 0.41498 0.90565 0.82902 0.0
C3415 C 0.45711 0.93281 0.80876 0.0
H3416 H 0.4277 0.89122 0.81325 0.0
C3417 C 0.44975 0.94104 0.81774 0.0
C3418 C 0.43453 0.93131 0.82509 0.0
H3419 H 0.469 0.94056 0.80333 0.0
H3420 H 0.45599 0.95492 0.81905 0.0
C3421 C 0.42675 0.91333 0.82339 0.0
C3422 C 0.46235 0.28287 0.10236 0.0
C3423 C 0.45979 0.28141 0.08643 0.0
H3424 H 0.45764 0.26974 0.12416 0.0
C3425 C 0.4526 0.26464 0.08046 0.0
H3426 H 0.46816 0.29546 0.10745 0.0
C3427 C 0.44699 0.24989 0.09012 0.0
C3428 C 0.44845 0.25153 0.10595 0.0
H3429 H 0.4502 0.26287 0.06831 0.0
H3430 H 0.44036 0.23727 0.08518 0.0
C3431 C 0.45661 0.26812 0.11198 0.0
C3432 C 0.05422 0.94095 0.18328 0.0
C3433 C 0.0516 0.93781 0.19887 0.0
H3434 H 0.0724 0.9472 0.16592 0.0
C3435 C 0.06539 0.93661 0.20874 0.0
H3436 H 0.04399 0.94208 0.17535 0.0
C3437 C 0.08165 0.93936 0.20326 0.0
C3438 C 0.08448 0.94351 0.18784 0.0
H3439 H 0.06376 0.93398 0.22078 0.0
H3440 H 0.09229 0.93925 0.21122 0.0
C3441 C 0.07048 0.94386 0.17786 0.0
C3442 C 0.32957 0.77538 0.45925 0.0
C3443 C 0.31916 0.75859 0.45423 0.0
H3444 H 0.33675 0.80272 0.45551 0.0
C3445 C 0.30703 0.75689 0.44157 0.0
H3446 H 0.33927 0.77739 0.46872 0.0
C3447 C 0.30602 0.77152 0.43374 0.0
C3448 C 0.31676 0.78815 0.43863 0.0
H3449 H 0.29845 0.74425 0.43752 0.0
H3450 H 0.29694 0.76986 0.42382 0.0
C3451 C 0.32828 0.78995 0.4516 0.0
C3452 C 0.46174 0.12894 0.71127 0.0
C3453 C 0.47723 0.12804 0.70678 0.0
H3454 H 0.43369 0.12006 0.70768 0.0
C3455 C 0.47619 0.11912 0.6935 0.0
H3456 H 0.46205 0.13594 0.72127 0.0
C3457 C 0.46 0.11022 0.68569 0.0
C3458 C 0.4444 0.11001 0.69087 0.0
H3459 H 0.48772 0.11801 0.68968 0.0
H3460 H 0.45955 0.10261 0.67605 0.0
C3461 C 0.44549 0.12004 0.70338 0.0
C3462 C 0.201 0.23434 0.92903 0.0
C3463 C 0.19715 0.22849 0.94406 0.0
H3464 H 0.20631 0.22851 0.90715 0.0
C3465 C 0.19677 0.21201 0.94864 0.0
H3466 H 0.20172 0.24707 0.92516 0.0
C3467 C 0.19958 0.20145 0.93836 0.0
C3468 C 0.20276 0.20704 0.92319 0.0
H3469 H 0.1936 0.20691 0.96004 0.0
H3470 H 0.19838 0.18855 0.94213 0.0
C3471 C 0.20375 0.22375 0.91873 0.0
C3472 C 0.38782 0.1236 0.15113 0.0
C3473 C 0.39331 0.11035 0.14795 0.0
H3474 H 0.39449 0.15108 0.15151 0.0
C3475 C 0.40898 0.11485 0.14074 0.0
H3476 H 0.37581 0.12056 0.15668 0.0
C3477 C 0.41951 0.13215 0.13774 0.0
C3478 C 0.41465 0.14547 0.14181 0.0
H3479 H 0.41338 0.10496 0.13779 0.0
H3480 H 0.43191 0.1352 0.13283 0.0
C3481 C 0.39844 0.14105 0.1481 0.0
C3482 C 0.79798 0.40483 0.9098 0.0
C3483 C 0.78766 0.40766 0.92036 0.0
H3484 H 0.81148 0.38919 0.90373 0.0
C3485 C 0.78068 0.39489 0.93168 0.0
H3486 H 0.80328 0.41426 0.90075 0.0
C3487 C 0.78527 0.3805 0.93327 0.0
C3488 C 0.79689 0.37852 0.92357 0.0
H3489 H 0.77271 0.39661 0.93999 0.0
H3490 H 0.7806 0.37145 0.94271 0.0
C3491 C 0.80252 0.39038 0.91137 0.0
C3492 C 0.80488 0.551 0.13727 0.0
C3493 C 0.79556 0.56067 0.1416 0.0
H3494 H 0.83007 0.55117 0.13305 0.0
C3495 C 0.80513 0.5775 0.14689 0.0
H3496 H 0.79794 0.53804 0.13311 0.0
C3497 C 0.82338 0.58493 0.1468 0.0
C3498 C 0.83256 0.57567 0.14165 0.0
H3499 H 0.79846 0.58517 0.15066 0.0
H3500 H 0.83029 0.59824 0.15017 0.0
C3501 C 0.82325 0.55847 0.13728 0.0
C3502 C 0.76607 0.63194 0.39417 0.0
C3503 C 0.75475 0.62024 0.38342 0.0
H3504 H 0.76868 0.64954 0.41175 0.0
C3505 C 0.73731 0.61902 0.38114 0.0
H3506 H 0.77949 0.6331 0.39642 0.0
C3507 C 0.73119 0.62867 0.38987 0.0
C3508 C 0.74235 0.63962 0.40112 0.0
H3509 H 0.72826 0.61026 0.37288 0.0
H3510 H 0.71752 0.62686 0.38841 0.0
C3511 C 0.75991 0.6414 0.40297 0.0
C3512 C 0.22166 0.95314 0.18494 0.0
C3513 C 0.22812 0.97102 0.18138 0.0
H3514 H 0.19904 0.92952 0.1872 0.0
C3515 C 0.216 0.97876 0.17762 0.0
H3516 H 0.2306 0.94677 0.18806 0.0
C3517 C 0.19797 0.9689 0.1771 0.0
C3518 C 0.19145 0.95097 0.18037 0.0
H3519 H 0.22042 0.99239 0.17451 0.0
H3520 H 0.18915 0.9753 0.17354 0.0
C3521 C 0.20356 0.94325 0.18446 0.0
C3522 C 0.14742 0.89695 0.65733 0.0
C3523 C 0.14832 0.90533 0.67092 0.0
H3524 H 0.13484 0.87387 0.64441 0.0
C3525 C 0.13761 0.89593 0.68248 0.0
H3526 H 0.15548 0.90385 0.64818 0.0
C3527 C 0.12598 0.87879 0.68038 0.0
C3528 C 0.12453 0.87055 0.66659 0.0
H3529 H 0.13825 0.90182 0.69321 0.0
H3530 H 0.11803 0.87199 0.68962 0.0
C3531 C 0.13563 0.87975 0.65517 0.0
C3532 C 0.86046 0.52165 0.32606 0.0
C3533 C 0.85407 0.51606 0.34047 0.0
H3534 H 0.87624 0.51952 0.30898 0.0
C3535 C 0.86137 0.50596 0.34975 0.0
H3536 H 0.85525 0.52945 0.31858 0.0
C3537 C 0.87336 0.50015 0.34418 0.0
C3538 C 0.87835 0.50433 0.32921 0.0
H3539 H 0.85709 0.50175 0.36107 0.0
H3540 H 0.87765 0.49133 0.35119 0.0
C3541 C 0.87245 0.51587 0.32051 0.0
C3542 C 0.66225 0.49555 0.91496 0.0
C3543 C 0.67841 0.50821 0.92021 0.0
H3544 H 0.63748 0.49021 0.90259 0.0
C3545 C 0.68066 0.52577 0.91856 0.0
H3546 H 0.65997 0.48193 0.91578 0.0
C3547 C 0.6676 0.53051 0.91084 0.0
C3548 C 0.6521 0.51778 0.90463 0.0
H3549 H 0.69278 0.53588 0.92268 0.0
H3550 H 0.6701 0.5441 0.90887 0.0
C3551 C 0.64932 0.50028 0.9073 0.0
C3552 C 0.88268 0.67393 0.93266 0.0
C3553 C 0.8867 0.67091 0.94815 0.0
H3554 H 0.88492 0.66925 0.90939 0.0
C3555 C 0.89747 0.66161 0.95177 0.0
H3556 H 0.87426 0.68083 0.9294 0.0
C3557 C 0.90354 0.65505 0.94029 0.0
C3558 C 0.89918 0.65776 0.92491 0.0
H3559 H 0.90112 0.65926 0.9635 0.0
H3560 H 0.91127 0.64739 0.94344 0.0
C3561 C 0.88884 0.6674 0.92117 0.0
C3562 C 0.07784 0.11821 0.71073 0.0
C3563 C 0.08441 0.13617 0.71288 0.0
H3564 H 0.07583 0.09778 0.69625 0.0
C3565 C 0.09325 0.14742 0.70117 0.0
H3566 H 0.0711 0.10919 0.71958 0.0
C3567 C 0.09599 0.1409 0.68786 0.0
C3568 C 0.09003 0.12295 0.68595 0.0
H3569 H 0.09836 0.16132 0.70241 0.0
H3570 H 0.10335 0.14994 0.67929 0.0
C3571 C 0.0807 0.11167 0.69745 0.0
C3572 C 0.61851 0.33599 0.47237 0.0
C3573 C 0.63604 0.33996 0.47777 0.0
H3574 H 0.60067 0.33565 0.45321 0.0
C3575 C 0.64933 0.34913 0.46793 0.0
H3576 H 0.6079 0.32885 0.4795 0.0
C3577 C 0.64513 0.35317 0.45281 0.0
C3578 C 0.62756 0.34805 0.4472 0.0
H3579 H 0.66299 0.35263 0.47175 0.0
H3580 H 0.65557 0.35925 0.44525 0.0
C3581 C 0.61434 0.33991 0.45728 0.0
C3582 C 0.43076 0.87424 0.21143 0.0
C3583 C 0.41666 0.87036 0.22072 0.0
H3584 H 0.44078 0.88342 0.18947 0.0
C3585 C 0.40145 0.87244 0.21442 0.0
H3586 H 0.44262 0.87266 0.21588 0.0
C3587 C 0.40046 0.87858 0.19948 0.0
C3588 C 0.41463 0.88284 0.19029 0.0
H3589 H 0.39041 0.86983 0.22121 0.0
H3590 H 0.38859 0.88021 0.19514 0.0
C3591 C 0.42969 0.88028 0.1963 0.0
C3592 C 0.93328 0.4074 0.55476 0.0
C3593 C 0.94309 0.39865 0.54956 0.0
H3594 H 0.91851 0.4099 0.57267 0.0
C3595 C 0.94721 0.38698 0.55965 0.0
H3596 H 0.92978 0.41643 0.54732 0.0
C3597 C 0.94072 0.38327 0.57408 0.0
C3598 C 0.93001 0.39117 0.57891 0.0
H3599 H 0.9551 0.38034 0.55625 0.0
H3600 H 0.94354 0.37366 0.58131 0.0
C3601 C 0.92683 0.40372 0.56931 0.0
C3602 C 0.48074 0.16059 0.33874 0.0
C3603 C 0.47983 0.14375 0.33671 0.0
H3604 H 0.47534 0.1776 0.35284 0.0
C3605 C 0.47045 0.13054 0.34703 0.0
H3606 H 0.48788 0.17115 0.33117 0.0
C3607 C 0.46306 0.13426 0.35943 0.0
C3608 C 0.46497 0.15129 0.36192 0.0
H3609 H 0.4692 0.11736 0.34575 0.0
H3610 H 0.45678 0.12399 0.36758 0.0
C3611 C 0.47351 0.16431 0.35119 0.0
C3612 C 0.59388 0.63947 0.08905 0.0
C3613 C 0.58152 0.62508 0.08133 0.0
H3614 H 0.60855 0.64906 0.11021 0.0
C3615 C 0.5733 0.60957 0.08964 0.0
H3616 H 0.60051 0.65156 0.08297 0.0
C3617 C 0.57801 0.60816 0.10506 0.0
C3618 C 0.59091 0.62225 0.11254 0.0
H3619 H 0.56348 0.59834 0.08414 0.0
H3620 H 0.5719 0.5959 0.11109 0.0
C3621 C 0.59857 0.63805 0.10457 0.0
C3622 C 0.05658 0.85377 0.85062 0.0
C3623 C 0.05684 0.86888 0.84258 0.0
H3624 H 0.06756 0.84289 0.86925 0.0
C3625 C 0.06721 0.88499 0.84892 0.0
H3626 H 0.04844 0.8411 0.84635 0.0
C3627 C 0.07789 0.88599 0.8623 0.0
C3628 C 0.07865 0.87092 0.86967 0.0
H3629 H 0.06784 0.89693 0.84314 0.0
H3630 H 0.08607 0.89866 0.86657 0.0
C3631 C 0.06738 0.85478 0.86394 0.0
C3632 C 0.94991 0.93361 0.7138 0.0
C3633 C 0.96707 0.93432 0.71318 0.0
H3634 H 0.9287 0.93917 0.70234 0.0
C3635 C 0.97637 0.94254 0.70046 0.0
H3636 H 0.94228 0.92728 0.72335 0.0
C3637 C 0.96854 0.94919 0.68844 0.0
C3638 C 0.95122 0.94794 0.6888 0.0
H3639 H 0.98974 0.94377 0.69971 0.0
H3640 H 0.97605 0.95522 0.67874 0.0
C3641 C 0.9421 0.9404 0.70176 0.0
C3642 C 0.93797 0.28514 0.43151 0.0
C3643 C 0.95483 0.29563 0.4376 0.0
H3644 H 0.9203 0.25948 0.42534 0.0
C3645 C 0.96783 0.28871 0.43907 0.0
H3646 H 0.9276 0.28998 0.43027 0.0
C3647 C 0.96363 0.27129 0.43612 0.0
C3648 C 0.94639 0.26042 0.4315 0.0
H3649 H 0.98103 0.29647 0.44344 0.0
H3650 H 0.97352 0.26594 0.4387 0.0
C3651 C 0.93377 0.26767 0.42857 0.0
C3652 C 0.59904 0.09708 0.22209 0.0
C3653 C 0.58176 0.08949 0.22676 0.0
H3654 H 0.61844 0.09461 0.20889 0.0
C3655 C 0.57189 0.07198 0.22337 0.0
H3656 H 0.60726 0.11038 0.22468 0.0
C3657 C 0.57855 0.06286 0.21458 0.0
C3658 C 0.59528 0.07093 0.20905 0.0
H3659 H 0.55853 0.06562 0.22656 0.0
H3660 H 0.57014 0.04987 0.2112 0.0
C3661 C 0.60564 0.08797 0.21325 0.0
C3662 C 0.5598 0.74147 0.95202 0.0
C3663 C 0.57246 0.73416 0.95256 0.0
H3664 H 0.55393 0.76395 0.94662 0.0
C3665 C 0.58817 0.74334 0.94551 0.0
H3666 H 0.54745 0.73466 0.95711 0.0
C3667 C 0.59174 0.76005 0.9393 0.0
C3668 C 0.57959 0.76778 0.93989 0.0
H3669 H 0.59827 0.73819 0.94579 0.0
H3670 H 0.60449 0.76741 0.93509 0.0
C3671 C 0.56337 0.75813 0.94582 0.0
C3672 C 0.96415 0.11204 0.8336 0.0
C3673 C 0.97301 0.13 0.83114 0.0
H3674 H 0.93962 0.09121 0.8376 0.0
C3675 C 0.9645 0.14096 0.834 0.0
H3676 H 0.97022 0.10319 0.83141 0.0
C3677 C 0.94698 0.13403 0.83771 0.0
C3678 C 0.9377 0.11603 0.83866 0.0
H3679 H 0.97103 0.15485 0.83243 0.0
H3680 H 0.94027 0.14266 0.83854 0.0
C3681 C 0.94663 0.10513 0.83722 0.0
C3682 C 0.69231 0.24139 0.61759 0.0
C3683 C 0.68107 0.23867 0.60427 0.0
H3684 H 0.70483 0.23032 0.6349 0.0
C3685 C 0.67565 0.22267 0.59711 0.0
H3686 H 0.69697 0.25362 0.62328 0.0
C3687 C 0.68035 0.20931 0.60377 0.0
C3688 C 0.69068 0.21182 0.61758 0.0
H3689 H 0.66693 0.22013 0.58689 0.0
H3690 H 0.67508 0.19674 0.59863 0.0
C3691 C 0.69699 0.22813 0.62417 0.0
C3692 C 0.54175 0.89055 0.35863 0.0
C3693 C 0.53653 0.88211 0.34461 0.0
H3694 H 0.5633 0.90528 0.37412 0.0
C3695 C 0.54955 0.88075 0.33623 0.0
H3696 H 0.5321 0.89166 0.36551 0.0
C3697 C 0.56722 0.88835 0.34123 0.0
C3698 C 0.57252 0.8976 0.35475 0.0
H3699 H 0.54623 0.87463 0.32531 0.0
H3700 H 0.5769 0.88765 0.33412 0.0
C3701 C 0.55959 0.89818 0.36368 0.0
C3702 C 0.84491 0.80252 0.05061 0.0
C3703 C 0.83216 0.78556 0.05168 0.0
H3704 H 0.85131 0.82956 0.0534 0.0
C3705 C 0.81675 0.78284 0.05874 0.0
H3706 H 0.85693 0.805 0.04525 0.0
C3707 C 0.81353 0.79699 0.0634 0.0
C3708 C 0.82584 0.81402 0.06136 0.0
H3709 H 0.80664 0.76995 0.05961 0.0
H3710 H 0.80094 0.79473 0.06761 0.0
C3711 C 0.84179 0.81657 0.05542 0.0
C3712 C 0.62189 0.89932 0.88554 0.0
C3713 C 0.63992 0.90348 0.88875 0.0
H3714 H 0.59599 0.87965 0.88484 0.0
C3715 C 0.64547 0.89016 0.89398 0.0
H3716 H 0.6171 0.90915 0.88137 0.0
C3717 C 0.63333 0.8731 0.89575 0.0
C3718 C 0.61534 0.86893 0.89231 0.0
H3719 H 0.65923 0.89291 0.89676 0.0
H3720 H 0.63809 0.86314 0.89957 0.0
C3721 C 0.60978 0.8823 0.88733 0.0
C3722 C 0.23272 0.6057 0.13145 0.0
C3723 C 0.24434 0.6044 0.12132 0.0
H3724 H 0.2225 0.62218 0.1415 0.0
C3725 C 0.25373 0.61917 0.11261 0.0
H3726 H 0.22531 0.59464 0.13842 0.0
C3727 C 0.25199 0.63488 0.1143 0.0
C3728 C 0.24093 0.63641 0.12486 0.0
H3729 H 0.26245 0.61861 0.10443 0.0
H3730 H 0.25955 0.64596 0.10741 0.0
C3731 C 0.23103 0.6215 0.13319 0.0
C3732 C 0.19745 0.45716 0.91066 0.0
C3733 C 0.20958 0.45231 0.90407 0.0
H3734 H 0.17016 0.45181 0.91266 0.0
C3735 C 0.20351 0.43985 0.89272 0.0
H3736 H 0.20181 0.46669 0.91946 0.0
C3737 C 0.18562 0.43172 0.88864 0.0
C3738 C 0.1734 0.43573 0.89591 0.0
H3739 H 0.2126 0.43594 0.8874 0.0
H3740 H 0.18123 0.42151 0.88044 0.0
C3741 C 0.17942 0.44875 0.90675 0.0
C3742 C 0.27606 0.39639 0.5934 0.0
C3743 C 0.26949 0.39713 0.6074 0.0
H3744 H 0.29064 0.38585 0.58102 0.0
C3745 C 0.27237 0.3869 0.61972 0.0
H3746 H 0.27402 0.40402 0.58366 0.0
C3747 C 0.28202 0.37669 0.61824 0.0
C3748 C 0.28875 0.37613 0.60432 0.0
H3749 H 0.26766 0.38724 0.6307 0.0
H3750 H 0.28446 0.36939 0.62807 0.0
C3751 C 0.28544 0.38588 0.59184 0.0
C3752 C 0.80222 0.04571 0.87533 0.0
C3753 C 0.7922 0.0482 0.86244 0.0
H3754 H 0.8278 0.05301 0.88679 0.0
C3755 C 0.80095 0.05799 0.84997 0.0
H3756 H 0.79592 0.03832 0.88515 0.0
C3757 C 0.81925 0.0663 0.8509 0.0
C3758 C 0.82909 0.06509 0.86435 0.0
H3759 H 0.7936 0.05996 0.8398 0.0
H3760 H 0.82554 0.07475 0.84155 0.0
C3761 C 0.82048 0.05415 0.8763 0.0
C3762 C 0.87196 0.12784 0.41934 0.0
C3763 C 0.87867 0.11477 0.42109 0.0
H3764 H 0.87753 0.15484 0.41445 0.0
C3765 C 0.89656 0.11926 0.41934 0.0
H3766 H 0.85822 0.12477 0.42065 0.0
C3767 C 0.90744 0.13625 0.41573 0.0
C3768 C 0.90079 0.1493 0.41377 0.0
H3769 H 0.90214 0.10952 0.42037 0.0
H3770 H 0.92115 0.13918 0.41442 0.0
C3771 C 0.88298 0.14502 0.41586 0.0
C3772 C 0.16416 0.51592 0.64958 0.0
C3773 C 0.16509 0.49959 0.6484 0.0
H3774 H 0.15044 0.53039 0.65762 0.0
C3775 C 0.15081 0.48488 0.65303 0.0
H3776 H 0.17454 0.5276 0.64573 0.0
C3777 C 0.13669 0.4865 0.65945 0.0
C3778 C 0.13643 0.50289 0.66173 0.0
H3779 H 0.15082 0.47206 0.65238 0.0
H3780 H 0.12618 0.47478 0.66307 0.0
C3781 C 0.15011 0.51755 0.65621 0.0
C3782 C 0.38137 0.5227 0.12234 0.0
C3783 C 0.36525 0.51332 0.12871 0.0
H3784 H 0.40885 0.528 0.12301 0.0
C3785 C 0.36439 0.49989 0.1394 0.0
H3786 H 0.38253 0.53283 0.11381 0.0
C3787 C 0.37952 0.49689 0.14442 0.0
C3788 C 0.3958 0.50722 0.13885 0.0
H3789 H 0.3523 0.49242 0.14464 0.0
H3790 H 0.37872 0.48732 0.15343 0.0
C3791 C 0.39644 0.51978 0.12743 0.0
C3792 C 0.64834 0.84089 0.58527 0.0
C3793 C 0.63518 0.82989 0.57521 0.0
H3794 H 0.65459 0.85579 0.6053 0.0
C3795 C 0.61753 0.82513 0.57837 0.0
H3796 H 0.66206 0.84445 0.5835 0.0
C3797 C 0.61322 0.83163 0.59103 0.0
C3798 C 0.62645 0.84309 0.60073 0.0
H3799 H 0.60703 0.81673 0.57085 0.0
H3800 H 0.59955 0.82805 0.59299 0.0
C3801 C 0.64405 0.84738 0.59781 0.0
C3802 C 0.41641 0.42155 0.80759 0.0
C3803 C 0.4288 0.41852 0.79948 0.0
H3804 H 0.40418 0.41813 0.82873 0.0
C3805 C 0.44005 0.41161 0.80757 0.0
H3806 H 0.40773 0.42715 0.80186 0.0
C3807 C 0.43811 0.40667 0.82292 0.0
C3808 C 0.4249 0.40849 0.8307 0.0
H3809 H 0.44965 0.40891 0.80185 0.0
H3810 H 0.44635 0.40049 0.82854 0.0
C3811 C 0.4145 0.41661 0.82305 0.0
C3812 C 0.89167 0.15883 0.06406 0.0
C3813 C 0.89055 0.17515 0.06363 0.0
H3814 H 0.89732 0.13936 0.07753 0.0
C3815 C 0.89583 0.18494 0.07689 0.0
H3816 H 0.88768 0.15084 0.05414 0.0
C3817 C 0.90118 0.17823 0.09041 0.0
C3818 C 0.90139 0.16154 0.09102 0.0
H3819 H 0.89551 0.1977 0.07693 0.0
H3820 H 0.90433 0.1858 0.10056 0.0
C3821 C 0.89707 0.15216 0.07755 0.0
C3822 C 0.07868 0.62619 0.33155 0.0
C3823 C 0.09183 0.64027 0.32461 0.0
H3824 H 0.07073 0.61065 0.35188 0.0
C3825 C 0.10668 0.65042 0.33379 0.0
H3826 H 0.06717 0.61789 0.32493 0.0
C3827 C 0.10884 0.64597 0.34915 0.0
C3828 C 0.096 0.63155 0.35581 0.0
H3829 H 0.1169 0.66163 0.32906 0.0
H3830 H 0.12072 0.65357 0.35576 0.0
C3831 C 0.08071 0.62195 0.347 0.0
C3832 C 0.58064 0.13096 0.97625 0.0
C3833 C 0.57124 0.11675 0.98561 0.0
H3834 H 0.58805 0.14005 0.95358 0.0
C3835 C 0.56316 0.10031 0.97919 0.0
H3836 H 0.58714 0.14375 0.98087 0.0
C3837 C 0.56377 0.09824 0.96371 0.0
C3838 C 0.57262 0.11249 0.95427 0.0
H3839 H 0.55565 0.08911 0.98598 0.0
H3840 H 0.5567 0.08557 0.95895 0.0
C3841 C 0.58139 0.12882 0.96071 0.0
C3842 C 0.08112 0.35724 0.19691 0.0
C3843 C 0.07024 0.36609 0.19207 0.0
H3844 H 0.0977 0.34505 0.19059 0.0
C3845 C 0.06887 0.37038 0.17644 0.0
H3846 H 0.08248 0.35362 0.20878 0.0
C3847 C 0.07758 0.36532 0.1659 0.0
C3848 C 0.08778 0.35576 0.17073 0.0
H3849 H 0.06087 0.37747 0.1723 0.0
H3850 H 0.07573 0.36826 0.15393 0.0
C3851 C 0.08976 0.3522 0.18642 0.0
C3852 C 0.95012 0.92745 0.45237 0.0
C3853 C 0.94459 0.91028 0.45816 0.0
H3854 H 0.94837 0.94452 0.43382 0.0
C3855 C 0.93431 0.89681 0.44838 0.0
H3856 H 0.95844 0.93817 0.45934 0.0
C3857 C 0.92889 0.90051 0.43354 0.0
C3858 C 0.93349 0.91775 0.42825 0.0
H3859 H 0.92971 0.88345 0.4524 0.0
H3860 H 0.92031 0.88995 0.42651 0.0
C3861 C 0.94449 0.93113 0.43768 0.0
C3862 C 0.4644 0.65233 0.71834 0.0
C3863 C 0.4578 0.6358 0.72536 0.0
H3864 H 0.46053 0.66952 0.70092 0.0
C3865 C 0.44233 0.62318 0.71882 0.0
H3866 H 0.4765 0.66222 0.72281 0.0
C3867 C 0.43304 0.6274 0.70619 0.0
C3868 C 0.4391 0.64431 0.69984 0.0
H3869 H 0.43693 0.61029 0.72392 0.0
H3870 H 0.42065 0.61773 0.70197 0.0
C3871 C 0.45525 0.65648 0.70573 0.0
C3872 C 0.57787 0.58855 0.85034 0.0
C3873 C 0.55942 0.58178 0.84855 0.0
H3874 H 0.60077 0.58559 0.86121 0.0
C3875 C 0.55004 0.56542 0.85513 0.0
H3876 H 0.58551 0.60104 0.84532 0.0
C3877 C 0.55878 0.55666 0.86415 0.0
C3878 C 0.57711 0.56392 0.86667 0.0
H3879 H 0.53585 0.55988 0.85416 0.0
H3880 H 0.55115 0.5446 0.86986 0.0
C3881 C 0.58665 0.57965 0.85928 0.0
C3882 C 0.56631 0.24542 0.09067 0.0
C3883 C 0.56223 0.22975 0.0992 0.0
H3884 H 0.57847 0.27321 0.09079 0.0
C3885 C 0.56514 0.23064 0.11516 0.0
H3886 H 0.56448 0.24543 0.07839 0.0
C3887 C 0.57342 0.24664 0.12218 0.0
C3888 C 0.57858 0.26215 0.11349 0.0
H3889 H 0.56179 0.21896 0.12221 0.0
H3890 H 0.57665 0.24687 0.13434 0.0
C3891 C 0.57435 0.26143 0.09776 0.0
C3892 C 0.96258 0.4349 0.3078 0.0
C3893 C 0.97024 0.44368 0.29458 0.0
H3894 H 0.94904 0.43509 0.32721 0.0
C3895 C 0.96998 0.46018 0.29099 0.0
H3896 H 0.96211 0.42204 0.31076 0.0
C3897 C 0.96234 0.46769 0.30046 0.0
C3898 C 0.95492 0.45892 0.31378 0.0
H3899 H 0.97591 0.46741 0.28098 0.0
H3900 H 0.96244 0.48042 0.29749 0.0
C3901 C 0.95506 0.44241 0.31725 0.0
C3902 C 0.95337 0.77075 0.57573 0.0
C3903 C 0.95281 0.78632 0.58039 0.0
H3904 H 0.94615 0.74342 0.58022 0.0
C3905 C 0.94647 0.78629 0.59465 0.0
H3906 H 0.95848 0.77028 0.56498 0.0
C3907 C 0.9397 0.77101 0.60341 0.0
C3908 C 0.93901 0.75523 0.59821 0.0
H3909 H 0.94563 0.79784 0.59868 0.0
H3910 H 0.93402 0.77132 0.61391 0.0
C3911 C 0.94655 0.75537 0.58456 0.0
C3912 C 0.55881 0.42992 0.7008 0.0
C3913 C 0.54449 0.43156 0.69204 0.0
H3914 H 0.5858 0.43299 0.70154 0.0
C3915 C 0.54628 0.43605 0.6765 0.0
H3916 H 0.55783 0.42627 0.71275 0.0
C3917 C 0.56224 0.4398 0.67012 0.0
C3918 C 0.57677 0.439 0.67905 0.0
H3919 H 0.53563 0.43754 0.66941 0.0
H3920 H 0.56347 0.44408 0.65831 0.0
C3921 C 0.57476 0.43353 0.69435 0.0
C3922 C 0.80912 0.25351 0.9191 0.0
C3923 C 0.81603 0.25414 0.9343 0.0
H3924 H 0.8025 0.26731 0.90001 0.0
C3925 C 0.81945 0.26908 0.94249 0.0
H3926 H 0.80596 0.24204 0.91255 0.0
C3927 C 0.81743 0.28356 0.9353 0.0
C3928 C 0.81188 0.28342 0.91975 0.0
H3929 H 0.82485 0.27006 0.95417 0.0
H3930 H 0.82143 0.29527 0.94169 0.0
C3931 C 0.8071 0.26798 0.91191 0.0
C3932 C 0.95579 0.60812 0.20144 0.0
C3933 C 0.97098 0.61995 0.19499 0.0
H3934 H 0.92906 0.59048 0.19764 0.0
C3935 C 0.96983 0.62424 0.17935 0.0
H3936 H 0.95614 0.60425 0.21334 0.0
C3937 C 0.9541 0.61637 0.17035 0.0
C3938 C 0.93926 0.60399 0.17678 0.0
H3939 H 0.98119 0.63341 0.17401 0.0
H3940 H 0.9538 0.6193 0.15824 0.0
C3941 C 0.94021 0.6002 0.19245 0.0
C3942 C 0.71371 0.74414 0.44945 0.0
C3943 C 0.70517 0.73622 0.46262 0.0
H3944 H 0.72278 0.74063 0.42839 0.0
C3945 C 0.70098 0.71837 0.46524 0.0
H3946 H 0.71752 0.7579 0.44719 0.0
C3947 C 0.70439 0.70856 0.45459 0.0
C3948 C 0.71193 0.71635 0.44103 0.0
H3949 H 0.69424 0.71175 0.47514 0.0
H3950 H 0.70014 0.6947 0.45652 0.0
C3951 C 0.71693 0.7343 0.43875 0.0
C3952 C 0.90049 0.61523 0.62781 0.0
C3953 C 0.88425 0.61074 0.63404 0.0
H3954 H 0.92381 0.63557 0.62057 0.0
C3955 C 0.87822 0.62391 0.6361 0.0
H3956 H 0.90533 0.60537 0.62574 0.0
C3957 C 0.88886 0.64133 0.63302 0.0
C3958 C 0.90562 0.64582 0.62777 0.0
H3959 H 0.86574 0.62084 0.64085 0.0
H3960 H 0.88444 0.65133 0.63563 0.0
C3961 C 0.91102 0.63252 0.62471 0.0
C3962 C 0.29897 0.9088 0.42076 0.0
C3963 C 0.28428 0.91029 0.42639 0.0
H3964 H 0.31441 0.89351 0.42016 0.0
C3965 C 0.27241 0.89594 0.43404 0.0
H3966 H 0.30825 0.91957 0.41464 0.0
C3967 C 0.27596 0.88105 0.43718 0.0
C3968 C 0.29132 0.8801 0.43253 0.0
H3969 H 0.26101 0.89667 0.43854 0.0
H3970 H 0.26725 0.87066 0.44406 0.0
C3971 C 0.30241 0.89382 0.42373 0.0
C3972 C 0.30878 0.07243 0.69 0.0
C3973 C 0.29652 0.05815 0.68205 0.0
H3974 H 0.33528 0.09128 0.69205 0.0
C3975 C 0.30245 0.05088 0.67089 0.0
H3976 H 0.30471 0.07824 0.69876 0.0
C3977 C 0.31992 0.05834 0.66712 0.0
C3978 C 0.33186 0.07306 0.67457 0.0
H3979 H 0.29339 0.04003 0.66443 0.0
H3980 H 0.32393 0.05308 0.65791 0.0
C3981 C 0.32629 0.0798 0.68629 0.0
C3982 C 0.22519 0.10146 0.87577 0.0
C3983 C 0.2424 0.10195 0.87736 0.0
H3984 H 0.20717 0.11182 0.88279 0.0
C3985 C 0.25507 0.1147 0.88652 0.0
H3986 H 0.21513 0.09189 0.86874 0.0
C3987 C 0.25049 0.12599 0.89452 0.0
C3988 C 0.23319 0.12502 0.89342 0.0
H3989 H 0.26837 0.11536 0.88818 0.0
H3990 H 0.26034 0.13506 0.9021 0.0
C3991 C 0.22066 0.11296 0.88367 0.0
C3992 C 0.70822 0.47724 0.66691 0.0
C3993 C 0.72058 0.46977 0.67064 0.0
H3994 H 0.68124 0.47334 0.66301 0.0
C3995 C 0.7144 0.45196 0.67445 0.0
H3996 H 0.7124 0.49081 0.66362 0.0
C3997 C 0.69635 0.44184 0.67414 0.0
C3998 C 0.68403 0.44928 0.67001 0.0
H3999 H 0.72352 0.44579 0.67758 0.0
H4000 H 0.69205 0.42815 0.67696 0.0
C4001 C 0.69025 0.46717 0.6666 0.0
C4002 C 0.62377 0.40315 0.1189 0.0
C4003 C 0.64179 0.40821 0.12296 0.0
H4004 H 0.59841 0.38241 0.11751 0.0
C4005 C 0.64814 0.39524 0.12754 0.0
H4006 H 0.61843 0.41265 0.11499 0.0
C4007 C 0.63665 0.37783 0.12874 0.0
C4008 C 0.61854 0.37299 0.1255 0.0
H4009 H 0.66188 0.39859 0.13092 0.0
H4010 H 0.64183 0.36832 0.13305 0.0
C4011 C 0.6123 0.38578 0.1202 0.0
C4012 C 0.3427 0.98179 0.85765 0.0
C4013 C 0.33447 0.99008 0.84719 0.0
H4014 H 0.3593 0.96751 0.86088 0.0
C4015 C 0.33973 0.99317 0.83223 0.0
H4016 H 0.33938 0.97961 0.86938 0.0
C4017 C 0.35143 0.98653 0.82748 0.0
C4018 C 0.35807 0.97654 0.83752 0.0
H4019 H 0.33381 0.99953 0.82384 0.0
H4020 H 0.3543 0.98816 0.81562 0.0
C4021 C 0.35435 0.97505 0.85285 0.0
C4022 C 0.16116 1.00534 0.39668 0.0
C4023 C 0.1759 0.01495 0.40622 0.0
H4024 H 0.14013 1.00591 0.38091 0.0
C4025 C 0.17889 0.0323 0.40884 0.0
H4026 H 0.15846 0.99201 0.39425 0.0
C4027 C 0.16837 0.04019 0.40116 0.0
C4028 C 0.15446 0.03089 0.39084 0.0
H4029 H 0.18986 0.04003 0.41633 0.0
H4030 H 0.17173 0.05387 0.40259 0.0
C4031 C 0.15058 0.01325 0.38904 0.0
C4032 C 0.40014 0.15592 0.46465 0.0
C4033 C 0.38905 0.16508 0.46278 0.0
H4034 H 0.41457 0.14401 0.45384 0.0
C4035 C 0.38569 0.17096 0.44804 0.0
H4036 H 0.40314 0.15134 0.47584 0.0
C4037 C 0.39232 0.16674 0.43541 0.0
C4038 C 0.40273 0.15691 0.43732 0.0
H4039 H 0.37713 0.17795 0.4462 0.0
H4040 H 0.38857 0.17038 0.42409 0.0
C4041 C 0.40688 0.1519 0.45209 0.0
C4042 C 0.59255 0.65893 0.22167 0.0
C4043 C 0.58404 0.64971 0.23448 0.0
H4044 H 0.5961 0.6582 0.1979 0.0
C4045 C 0.57394 0.63189 0.23331 0.0
H4046 H 0.60047 0.67267 0.2222 0.0
C4047 C 0.57156 0.62369 0.21953 0.0
C4048 C 0.57923 0.63304 0.20652 0.0
H4049 H 0.56764 0.62427 0.24303 0.0
H4050 H 0.56324 0.61005 0.21893 0.0
C4051 C 0.59015 0.65066 0.20779 0.0
C4052 C 0.10878 0.83286 0.98616 0.0
C4053 C 0.12427 0.82976 0.98869 0.0
H4054 H 0.09026 0.83726 0.96964 0.0
C4055 C 0.13434 0.8314 0.97621 0.0
H4056 H 0.10062 0.8316 0.99543 0.0
C4057 C 0.1285 0.83489 0.9615 0.0
C4058 C 0.11247 0.83683 0.9589 0.0
H4059 H 0.14645 0.82933 0.97775 0.0
H4060 H 0.13595 0.83494 0.95201 0.0
C4061 C 0.10287 0.8362 0.97141 0.0
C4062 C 0.93014 0.39955 0.7011 0.0
C4063 C 0.92327 0.38174 0.70486 0.0
H4064 H 0.93338 0.41927 0.68369 0.0
C4065 C 0.91557 0.36995 0.69307 0.0
H4066 H 0.93602 0.40901 0.70986 0.0
C4067 C 0.91412 0.37587 0.67802 0.0
C4068 C 0.92017 0.3937 0.67444 0.0
H4069 H 0.9103 0.35614 0.69553 0.0
H4070 H 0.90747 0.36648 0.66932 0.0
C4071 C 0.92854 0.40545 0.6861 0.0
C4072 C 0.43268 0.89709 0.07129 0.0
C4073 C 0.43749 0.88512 0.06419 0.0
H4074 H 0.42218 0.90272 0.09078 0.0
C4075 C 0.4371 0.87026 0.07263 0.0
H4076 H 0.43318 0.9089 0.06535 0.0
C4077 C 0.43117 0.86696 0.08727 0.0
C4078 C 0.42519 0.87827 0.09396 0.0
H4079 H 0.44055 0.86064 0.06769 0.0
H4080 H 0.43061 0.85509 0.09317 0.0
C4081 C 0.42659 0.89369 0.08599 0.0
C4082 C 0.95669 0.63962 0.8239 0.0
C4083 C 0.97174 0.63558 0.8254 0.0
H4084 H 0.93939 0.64799 0.83505 0.0
C4085 C 0.9802 0.63607 0.83998 0.0
H4086 H 0.94973 0.63926 0.8129 0.0
C4087 C 0.97421 0.6409 0.85255 0.0
C4088 C 0.95951 0.64537 0.85102 0.0
H4089 H 0.99194 0.63335 0.84164 0.0
H4090 H 0.98146 0.64172 0.86348 0.0
C4091 C 0.95059 0.64439 0.83661 0.0
C4092 C 0.06069 0.13497 0.57005 0.0
C4093 C 0.06318 0.12345 0.56049 0.0
H4094 H 0.06701 0.14693 0.59173 0.0
C4095 C 0.0722 0.11314 0.56668 0.0
H4096 H 0.05346 0.1428 0.56583 0.0
C4097 C 0.07971 0.11532 0.58166 0.0
C4098 C 0.0784 0.12789 0.59069 0.0
H4099 H 0.07446 0.10418 0.55966 0.0
H4100 H 0.08757 0.10809 0.5858 0.0
C4101 C 0.06829 0.13722 0.58493 0.0
C4102 C 0.57987 0.37057 0.33933 0.0
C4103 C 0.58013 0.38561 0.33116 0.0
H4104 H 0.59075 0.35977 0.358 0.0
C4105 C 0.59056 0.40176 0.3374 0.0
H4106 H 0.57166 0.35784 0.33521 0.0
C4107 C 0.60112 0.40285 0.35088 0.0
C4108 C 0.60184 0.38785 0.35843 0.0
H4109 H 0.59123 0.41368 0.33155 0.0
H4110 H 0.60911 0.41557 0.35515 0.0
C4111 C 0.59066 0.37167 0.35266 0.0
C4112 C 0.46888 0.44848 0.2066 0.0
C4113 C 0.48628 0.4501 0.2055 0.0
H4114 H 0.44659 0.45257 0.1956 0.0
C4115 C 0.49502 0.45888 0.19267 0.0
H4116 H 0.46168 0.44172 0.21624 0.0
C4117 C 0.48634 0.46493 0.18089 0.0
C4118 C 0.46873 0.46256 0.18165 0.0
H4119 H 0.50853 0.46081 0.19157 0.0
H4120 H 0.49327 0.47109 0.17094 0.0
C4121 C 0.46021 0.45469 0.19479 0.0
C4122 C 0.46197 0.77174 0.96282 0.0
C4123 C 0.45174 0.77972 0.95461 0.0
H4124 H 0.46568 0.74821 0.9684 0.0
C4125 C 0.43896 0.77001 0.94346 0.0
H4126 H 0.47183 0.77853 0.97158 0.0
C4127 C 0.43533 0.75237 0.94175 0.0
C4128 C 0.44451 0.74415 0.95107 0.0
H4129 H 0.43109 0.77577 0.93661 0.0
H4130 H 0.42448 0.74489 0.93403 0.0
C4131 C 0.45844 0.75424 0.96103 0.0
C4132 C 0.08084 0.58457 0.71031 0.0
C4133 C 0.06311 0.57768 0.71379 0.0
H4134 H 0.10092 0.58105 0.69884 0.0
C4135 C 0.05289 0.5603 0.71026 0.0
H4136 H 0.08926 0.59778 0.71306 0.0
C4137 C 0.05977 0.55064 0.70236 0.0
C4138 C 0.07706 0.55803 0.69795 0.0
H4139 H 0.03919 0.55451 0.71258 0.0
H4140 H 0.05118 0.5378 0.69872 0.0
C4141 C 0.08768 0.57491 0.7024 0.0
C4142 C 0.07795 0.24572 0.42887 0.0
C4143 C 0.06169 0.23741 0.43532 0.0
H4144 H 0.09634 0.26944 0.41952 0.0
C4145 C 0.05025 0.24616 0.43473 0.0
H4146 H 0.08716 0.23947 0.4292 0.0
C4147 C 0.05552 0.26326 0.4291 0.0
C4148 C 0.07226 0.27197 0.42378 0.0
H4149 H 0.03752 0.2401 0.43932 0.0
H4150 H 0.04696 0.27009 0.4299 0.0
C4151 C 0.08321 0.26287 0.42322 0.0
C4152 C 0.46896 0.65929 0.3514 0.0
C4153 C 0.47792 0.64841 0.34974 0.0
H4154 H 0.44428 0.66082 0.35439 0.0
C4155 C 0.4693 0.63056 0.35296 0.0
H4156 H 0.47528 0.67311 0.34924 0.0
C4157 C 0.45157 0.62358 0.35608 0.0
C4158 C 0.44223 0.63432 0.35621 0.0
H4159 H 0.47576 0.62179 0.35173 0.0
H4160 H 0.44477 0.60964 0.35699 0.0
C4161 C 0.45128 0.6523 0.35457 0.0
C4162 C 0.19763 0.74145 0.119 0.0
C4163 C 0.18236 0.73853 0.10938 0.0
H4164 H 0.21365 0.73017 0.13221 0.0
C4165 C 0.17255 0.72163 0.10436 0.0
H4166 H 0.2056 0.75432 0.12297 0.0
C4167 C 0.17722 0.70785 0.10966 0.0
C4168 C 0.19198 0.71072 0.11983 0.0
H4169 H 0.16066 0.71888 0.09706 0.0
H4170 H 0.16883 0.6948 0.1064 0.0
C4171 C 0.2024 0.72769 0.12416 0.0
C4172 C 0.04301 0.39831 0.84019 0.0
C4173 C 0.03629 0.38413 0.83045 0.0
H4174 H 0.06558 0.41549 0.85328 0.0
C4175 C 0.04673 0.37475 0.8285 0.0
H4176 H 0.0354 0.40589 0.8419 0.0
C4177 C 0.0639 0.38024 0.83504 0.0
C4178 C 0.07102 0.39511 0.84383 0.0
H4179 H 0.0419 0.36359 0.82132 0.0
H4180 H 0.07202 0.37347 0.83245 0.0
C4181 C 0.06026 0.40379 0.84678 0.0
C4182 C 0.30648 0.26254 0.56277 0.0
C4183 C 0.32327 0.26652 0.55775 0.0
H4184 H 0.28828 0.27243 0.57012 0.0
C4185 C 0.33554 0.28376 0.55875 0.0
H4186 H 0.29667 0.24946 0.56211 0.0
C4187 C 0.33082 0.29684 0.56364 0.0
C4188 C 0.31368 0.29304 0.5676 0.0
H4189 H 0.34865 0.28728 0.55516 0.0
H4190 H 0.3402 0.31013 0.56328 0.0
C4191 C 0.3017 0.27568 0.56747 0.0
C4192 C 0.13174 0.40419 0.39687 0.0
C4193 C 0.13852 0.41337 0.38347 0.0
H4194 H 0.11646 0.37979 0.40718 0.0
C4195 C 0.13674 0.40398 0.37033 0.0
H4196 H 0.13315 0.41098 0.40726 0.0
C4197 C 0.12729 0.38602 0.37032 0.0
C4198 C 0.11948 0.37702 0.38346 0.0
H4199 H 0.14179 0.41061 0.35982 0.0
H4200 H 0.12547 0.37927 0.35983 0.0
C4201 C 0.12236 0.38625 0.39688 0.0
C4202 C 0.74537 0.11311 0.61855 0.0
C4203 C 0.73519 0.09928 0.62781 0.0
H4204 H 0.75273 0.13972 0.61169 0.0
C4205 C 0.72384 0.1022 0.63728 0.0
H4206 H 0.75393 0.11132 0.61084 0.0
C4207 C 0.72316 0.11863 0.63782 0.0
C4208 C 0.73381 0.13258 0.6289 0.0
H4209 H 0.71584 0.09189 0.64464 0.0
H4210 H 0.71478 0.12054 0.64563 0.0
C4211 C 0.74462 0.12944 0.61902 0.0
C4212 C 0.70665 0.94782 0.4127 0.0
C4213 C 0.71041 0.96566 0.41152 0.0
H4214 H 0.68728 0.92211 0.41119 0.0
C4215 C 0.69637 0.97104 0.40822 0.0
H4216 H 0.717 0.94312 0.41543 0.0
C4217 C 0.67908 0.95886 0.40609 0.0
C4218 C 0.6754 0.94101 0.40725 0.0
H4219 H 0.69876 0.98467 0.40705 0.0
H4220 H 0.6686 0.96343 0.40362 0.0
C4221 C 0.68947 0.93571 0.41052 0.0
C4222 C 0.78909 0.91597 0.08812 0.0
C4223 C 0.78248 0.91698 0.10201 0.0
H4224 H 0.80384 0.9053 0.07615 0.0
C4225 C 0.78568 0.90734 0.11465 0.0
H4226 H 0.78681 0.92317 0.07815 0.0
C4227 C 0.79556 0.8973 0.11354 0.0
C4228 C 0.80226 0.89637 0.0997 0.0
H4229 H 0.78094 0.90794 0.12555 0.0
H4230 H 0.79806 0.89029 0.12355 0.0
C4231 C 0.79872 0.90564 0.08694 0.0
C4232 C 0.30769 0.55031 0.3803 0.0
C4233 C 0.29613 0.55564 0.37078 0.0
H4234 H 0.33386 0.55716 0.39052 0.0
C4235 C 0.30284 0.57185 0.36316 0.0
H4236 H 0.30292 0.53799 0.38646 0.0
C4237 C 0.3206 0.58266 0.36534 0.0
C4238 C 0.3319 0.57754 0.3753 0.0
H4239 H 0.2943 0.57628 0.35569 0.0
H4240 H 0.32536 0.59531 0.35972 0.0
C4241 C 0.32538 0.56124 0.38265 0.0
C4242 C 0.37612 0.60618 0.91786 0.0
C4243 C 0.36906 0.60068 0.93201 0.0
H4244 H 0.39365 0.6266 0.90458 0.0
C4245 C 0.37505 0.61213 0.94411 0.0
H4246 H 0.37152 0.59768 0.90827 0.0
C4247 C 0.38822 0.62863 0.94218 0.0
C4248 C 0.3954 0.63423 0.92797 0.0
H4249 H 0.36984 0.60815 0.95516 0.0
H4250 H 0.393 0.63682 0.95195 0.0
C4251 C 0.38893 0.62278 0.9158 0.0
C4252 C 0.6677 1.00228 0.15489 0.0
C4253 C 0.68073 0.01729 0.14905 0.0
H4254 H 0.645 0.99148 0.16767 0.0
C4255 C 0.67934 0.0333 0.15086 0.0
H4256 H 0.66814 0.98969 0.15382 0.0
C4257 C 0.66619 0.03439 0.15923 0.0
C4258 C 0.65393 0.01948 0.16596 0.0
H4259 H 0.68875 0.04515 0.14617 0.0
H4260 H 0.66621 0.04703 0.16104 0.0
C4261 C 0.65448 1.00336 0.16309 0.0
C4262 C 0.86795 0.01765 0.63792 0.0
C4263 C 0.85127 1.00421 0.63861 0.0
H4264 H 0.89557 0.02597 0.64322 0.0
C4265 C 0.85038 0.98776 0.64411 0.0
H4266 H 0.86935 0.03055 0.63396 0.0
C4267 C 0.86563 0.98518 0.64958 0.0
C4268 C 0.8821 0.99899 0.64973 0.0
H4269 H 0.83784 0.97698 0.64459 0.0
H4270 H 0.86443 0.97266 0.65447 0.0
C4271 C 0.88308 0.01507 0.64334 0.0
loop_
_geom_bond_atom_site_label_1
_geom_bond_atom_site_label_2
_geom_bond_distance
_geom_bond_site_symmetry_2
_ccdc_geom_bond_type
C0 C1 1.264 . S
C0 C5 1.479 . S
C0 C10 1.465 . S
C1 C0 1.264 . S
C1 C3 1.339 . S
C1 H28 0.931 . S
C2 C3 1.395 . S
C2 C4 1.320 . S
C3 C1 1.339 . S
C3 C2 1.395 . S
C3 H29 0.929 . S
C4 C2 1.320 . S
C4 C5 1.405 . S
C4 H30 0.930 . S
C5 C0 1.479 . S
C5 C4 1.405 . S
C5 H31 0.931 . S
U6 O7 2.454 . S
U6 O8 2.458 1_655 S
U6 C9 2.984 1_655 S
U6 C10 2.847 . S
U6 C23 2.906 . S
U6 O24 2.441 . S
U6 O25 2.420 . S
U6 O26 2.455 1_655 S
U6 O27 2.449 . S
O7 U6 2.454 . S
O7 C9 1.353 1_655 S
O8 U6 2.458 1_455 S
O8 C9 1.286 . S
C9 U6 2.984 1_455 S
C9 O7 1.353 1_455 S
C9 O8 1.286 . S
C9 C11 1.363 . S
C10 C0 1.465 . S
C10 U6 2.847 . S
C10 O24 1.249 . S
C10 O25 1.202 . S
C11 C9 1.363 . S
C11 C13 1.408 . S
C11 C16 1.342 . S
C12 C13 1.310 . S
C12 C15 1.461 . S
C12 H32 0.932 . S
C13 C11 1.408 . S
C13 C12 1.310 . S
C13 H33 0.930 . S
C14 C15 1.474 . S
C14 C16 1.285 . S
C14 H34 0.929 . S
C15 C12 1.461 . S
C15 C14 1.474 . S
C16 C11 1.342 . S
C16 C14 1.285 . S
C16 H35 0.930 . S
C17 C20 1.424 . S
C17 C22 1.245 . S
C17 C23 1.399 1_455 S
C18 C21 1.260 . S
C18 C22 1.477 . S
C18 H36 0.932 . S
C19 C20 1.384 . S
C19 C21 1.479 . S
C19 H37 0.929 . S
C20 C17 1.424 . S
C20 C19 1.384 . S
C20 H38 0.928 1_455 S
C21 C18 1.260 . S
C21 C19 1.479 . S
C22 C17 1.245 . S
C22 C18 1.477 . S
C22 H39 0.932 . S
C23 U6 2.906 . S
C23 C17 1.399 1_655 S
C23 O26 1.279 1_655 S
C23 O27 1.336 . S
O24 U6 2.441 . S
O24 C10 1.249 . S
O25 U6 2.420 . S
O25 C10 1.202 . S
O26 U6 2.455 1_455 S
O26 C23 1.279 1_455 S
O27 U6 2.449 . S
O27 C23 1.336 . S
H28 C1 0.931 . S
H29 C3 0.929 . S
H30 C4 0.930 . S
H31 C5 0.931 . S
H32 C12 0.932 . S
H33 C13 0.930 . S
H34 C14 0.929 . S
H35 C16 0.930 . S
H36 C18 0.932 . S
H37 C19 0.929 . S
H38 C20 0.928 1_655 S
H39 C22 0.932 . S
C40 C41 1.264 . S
C40 C45 1.479 . S
C40 C50 1.465 . S
C41 C40 1.264 . S
C41 C43 1.339 . S
C41 H68 0.931 . S
C42 C43 1.395 . S
C42 C44 1.320 . S
C43 C41 1.339 . S
C43 C42 1.395 . S
C43 H69 0.929 . S
C44 C42 1.320 . S
C44 C45 1.405 . S
C44 H70 0.930 . S
C45 C40 1.479 . S
C45 C44 1.405 . S
C45 H71 0.931 . S
U46 O47 2.454 . S
U46 O48 2.458 . S
U46 C49 2.984 . S
U46 C50 2.847 . S
U46 C63 2.882 . S
U46 O64 2.441 . S
U46 O65 2.420 . S
U46 O66 2.455 . S
U46 O67 2.449 . S
O47 U46 2.454 . S
O47 C49 1.353 . S
O48 U46 2.458 . S
O48 C49 1.286 . S
C49 U46 2.984 . S
C49 O47 1.353 . S
C49 O48 1.286 . S
C49 C51 1.363 . S
C50 C40 1.465 . S
C50 U46 2.847 . S
C50 O64 1.249 . S
C50 O65 1.202 . S
C51 C49 1.363 . S
C51 C53 1.408 . S
C51 C56 1.342 . S
C52 C53 1.310 . S
C52 C55 1.461 . S
C52 H72 0.932 . S
C53 C51 1.408 . S
C53 C52 1.310 . S
C53 H73 0.930 . S
C54 C55 1.474 . S
C54 C56 1.285 . S
C54 H74 0.929 . S
C55 C52 1.461 . S
C55 C54 1.474 . S
C56 C51 1.342 . S
C56 C54 1.285 . S
C56 H75 0.930 . S
C57 C60 1.424 . S
C57 C62 1.245 . S
C57 C63 1.428 . S
C58 C61 1.260 . S
C58 C62 1.477 . S
C58 H76 0.932 . S
C59 C60 1.384 . S
C59 C61 1.479 . S
C59 H77 0.929 . S
C60 C57 1.424 . S
C60 C59 1.384 . S
C60 H78 0.928 . S
C61 C58 1.260 . S
C61 C59 1.479 . S
C62 C57 1.245 . S
C62 C58 1.477 . S
C62 H79 0.932 . S
C63 U46 2.882 . S
C63 C57 1.428 . S
C63 O66 1.301 . S
C63 O67 1.282 . S
O64 U46 2.441 . S
O64 C50 1.249 . S
O65 U46 2.420 . S
O65 C50 1.202 . S
O66 U46 2.455 . S
O66 C63 1.301 . S
O67 U46 2.449 . S
O67 C63 1.282 . S
H68 C41 0.931 . S
H69 C43 0.929 . S
H70 C44 0.930 . S
H71 C45 0.931 . S
H72 C52 0.932 . S
H73 C53 0.930 . S
H74 C54 0.929 . S
H75 C56 0.930 . S
H76 C58 0.932 . S
H77 C59 0.929 . S
H78 C60 0.928 . S
H79 C62 0.932 . S
C80 C81 1.264 . S
C80 C85 1.479 . S
C80 C90 1.465 . S
C81 C80 1.264 . S
C81 C83 1.339 . S
C81 H108 0.931 . S
C82 C83 1.395 . S
C82 C84 1.320 . S
C83 C81 1.339 . S
C83 C82 1.395 . S
C83 H109 0.929 . S
C84 C82 1.320 . S
C84 C85 1.405 . S
C84 H110 0.930 . S
C85 C80 1.479 . S
C85 C84 1.405 . S
C85 H111 0.931 . S
U86 O87 2.454 . S
U86 O88 2.458 . S
U86 C89 2.984 . S
U86 C90 2.847 . S
U86 C103 2.882 . S
U86 O104 2.441 . S
U86 O105 2.420 . S
U86 O106 2.455 . S
U86 O107 2.449 . S
O87 U86 2.454 . S
O87 C89 1.353 . S
O88 U86 2.458 . S
O88 C89 1.286 . S
C89 U86 2.984 . S
C89 O87 1.353 . S
C89 O88 1.286 . S
C89 C91 1.363 . S
C90 C80 1.465 . S
C90 U86 2.847 . S
C90 O104 1.249 . S
C90 O105 1.202 . S
C91 C89 1.363 . S
C91 C93 1.408 . S
C91 C96 1.342 . S
C92 C93 1.310 . S
C92 C95 1.461 . S
C92 H112 0.932 . S
C93 C91 1.408 . S
C93 C92 1.310 . S
C93 H113 0.930 . S
C94 C95 1.474 . S
C94 C96 1.285 . S
C94 H114 0.929 . S
C95 C92 1.461 . S
C95 C94 1.474 . S
C96 C91 1.342 . S
C96 C94 1.285 . S
C96 H115 0.930 . S
C97 C100 1.424 . S
C97 C102 1.245 . S
C97 C103 1.428 . S
C98 C101 1.260 . S
C98 C102 1.477 . S
C98 H116 0.932 . S
C99 C100 1.384 . S
C99 C101 1.479 . S
C99 H117 0.929 . S
C100 C97 1.424 . S
C100 C99 1.384 . S
C100 H118 0.928 . S
C101 C98 1.260 . S
C101 C99 1.479 . S
C102 C97 1.245 . S
C102 C98 1.477 . S
C102 H119 0.932 . S
C103 U86 2.882 . S
C103 C97 1.428 . S
C103 O106 1.301 . S
C103 O107 1.282 . S
O104 U86 2.441 . S
O104 C90 1.249 . S
O105 U86 2.420 . S
O105 C90 1.202 . S
O106 U86 2.455 . S
O106 C103 1.301 . S
O107 U86 2.449 . S
O107 C103 1.282 . S
H108 C81 0.931 . S
H109 C83 0.929 . S
H110 C84 0.930 . S
H111 C85 0.931 . S
H112 C92 0.932 . S
H113 C93 0.930 . S
H114 C94 0.929 . S
H115 C96 0.930 . S
H116 C98 0.932 . S
H117 C99 0.929 . S
H118 C100 0.928 . S
H119 C102 0.932 . S
C120 C121 1.264 . S
C120 C125 1.479 . S
C120 C130 1.465 . S
C121 C120 1.264 . S
C121 C123 1.339 . S
C121 H148 0.931 . S
C122 C123 1.395 . S
C122 C124 1.320 . S
C123 C121 1.339 . S
C123 C122 1.395 . S
C123 H149 0.929 . S
C124 C122 1.320 . S
C124 C125 1.405 . S
C124 H150 0.930 . S
C125 C120 1.479 . S
C125 C124 1.405 . S
C125 H151 0.931 . S
U126 O127 2.454 . S
U126 O128 2.458 . S
U126 C129 2.984 . S
U126 C130 2.847 . S
U126 C143 2.882 . S
U126 O144 2.441 . S
U126 O145 2.420 . S
U126 O146 2.455 . S
U126 O147 2.449 . S
O127 U126 2.454 . S
O127 C129 1.353 . S
O128 U126 2.458 . S
O128 C129 1.286 . S
C129 U126 2.984 . S
C129 O127 1.353 . S
C129 O128 1.286 . S
C129 C131 1.363 . S
C130 C120 1.465 . S
C130 U126 2.847 . S
C130 O144 1.249 . S
C130 O145 1.202 . S
C131 C129 1.363 . S
C131 C133 1.408 . S
C131 C136 1.342 . S
C132 C133 1.310 1_556 S
C132 C135 1.461 . S
C132 H152 0.932 . S
C133 C131 1.408 . S
C133 C132 1.310 1_554 S
C133 H153 0.930 . S
C134 C135 1.474 1_554 S
C134 C136 1.285 . S
C134 H154 0.929 . S
C135 C132 1.461 . S
C135 C134 1.474 1_556 S
C136 C131 1.342 . S
C136 C134 1.285 . S
C136 H155 0.930 . S
C137 C140 1.424 . S
C137 C142 1.245 . S
C137 C143 1.428 . S
C138 C141 1.260 . S
C138 C142 1.477 . S
C138 H156 0.932 . S
C139 C140 1.384 . S
C139 C141 1.479 . S
C139 H157 0.929 . S
C140 C137 1.424 . S
C140 C139 1.384 . S
C140 H158 0.928 . S
C141 C138 1.260 . S
C141 C139 1.479 . S
C142 C137 1.245 . S
C142 C138 1.477 . S
C142 H159 0.932 . S
C143 U126 2.882 . S
C143 C137 1.428 . S
C143 O146 1.301 . S
C143 O147 1.282 . S
O144 U126 2.441 . S
O144 C130 1.249 . S
O145 U126 2.420 . S
O145 C130 1.202 . S
O146 U126 2.455 . S
O146 C143 1.301 . S
O147 U126 2.449 . S
O147 C143 1.282 . S
H148 C121 0.931 . S
H149 C123 0.929 . S
H150 C124 0.930 . S
H151 C125 0.931 . S
H152 C132 0.932 . S
H153 C133 0.930 . S
H154 C134 0.929 . S
H155 C136 0.930 . S
H156 C138 0.932 . S
H157 C139 0.929 . S
H158 C140 0.928 . S
H159 C142 0.932 . S
C160 C161 1.264 . S
C160 C165 1.479 1_455 S
C160 C170 1.465 . S
C161 C160 1.264 . S
C161 C163 1.339 1_455 S
C161 H188 0.931 . S
C162 C163 1.395 . S
C162 C164 1.320 . S
C163 C161 1.339 1_655 S
C163 C162 1.395 . S
C163 H189 0.929 . S
C164 C162 1.320 . S
C164 C165 1.405 . S
C164 H190 0.930 . S
C165 C160 1.479 1_655 S
C165 C164 1.405 . S
C165 H191 0.932 . S
U166 O167 2.454 . S
U166 O168 2.458 . S
U166 C169 2.984 . S
U166 C170 2.847 . S
U166 C183 2.882 . S
U166 O184 2.441 . S
U166 O185 2.420 . S
U166 O186 2.455 . S
U166 O187 2.449 . S
O167 U166 2.454 . S
O167 C169 1.353 . S
O168 U166 2.458 . S
O168 C169 1.286 . S
C169 U166 2.984 . S
C169 O167 1.353 . S
C169 O168 1.286 . S
C169 C171 1.363 . S
C170 C160 1.465 . S
C170 U166 2.847 . S
C170 O184 1.249 . S
C170 O185 1.202 . S
C171 C169 1.363 . S
C171 C173 1.408 . S
C171 C176 1.342 . S
C172 C173 1.310 . S
C172 C175 1.461 . S
C172 H192 0.932 . S
C173 C171 1.408 . S
C173 C172 1.310 . S
C173 H193 0.930 . S
C174 C175 1.474 . S
C174 C176 1.285 . S
C174 H194 0.929 . S
C175 C172 1.461 . S
C175 C174 1.474 . S
C176 C171 1.342 . S
C176 C174 1.285 . S
C176 H195 0.930 . S
C177 C180 1.424 . S
C177 C182 1.245 . S
C177 C183 1.428 . S
C178 C181 1.260 . S
C178 C182 1.477 . S
C178 H196 0.932 . S
C179 C180 1.384 . S
C179 C181 1.479 . S
C179 H197 0.929 . S
C180 C177 1.424 . S
C180 C179 1.384 . S
C180 H198 0.928 . S
C181 C178 1.260 . S
C181 C179 1.479 . S
C182 C177 1.245 . S
C182 C178 1.477 . S
C182 H199 0.932 . S
C183 U166 2.882 . S
C183 C177 1.428 . S
C183 O186 1.301 . S
C183 O187 1.282 . S
O184 U166 2.441 . S
O184 C170 1.249 . S
O185 U166 2.420 . S
O185 C170 1.202 . S
O186 U166 2.455 . S
O186 C183 1.301 . S
O187 U166 2.449 . S
O187 C183 1.282 . S
H188 C161 0.931 . S
H189 C163 0.929 . S
H190 C164 0.930 . S
H191 C165 0.932 . S
H192 C172 0.932 . S
H193 C173 0.930 . S
H194 C174 0.929 . S
H195 C176 0.930 . S
H196 C178 0.932 . S
H197 C179 0.929 . S
H198 C180 0.928 . S
H199 C182 0.932 . S
C200 C201 1.264 . S
C200 C205 1.479 . S
C200 C210 1.465 . S
C201 C200 1.264 . S
C201 C203 1.339 . S
C201 H228 0.931 . S
C202 C203 1.395 . S
C202 C204 1.320 . S
C203 C201 1.339 . S
C203 C202 1.395 . S
C203 H229 0.929 . S
C204 C202 1.320 . S
C204 C205 1.405 . S
C204 H230 0.930 . S
C205 C200 1.479 . S
C205 C204 1.405 . S
C205 H231 0.931 . S
U206 O207 2.454 . S
U206 O208 2.458 . S
U206 C209 2.984 . S
U206 C210 2.847 . S
U206 C223 2.882 . S
U206 O224 2.441 . S
U206 O225 2.420 . S
U206 O226 2.455 . S
U206 O227 2.449 . S
O207 U206 2.454 . S
O207 C209 1.353 . S
O208 U206 2.458 . S
O208 C209 1.286 . S
C209 U206 2.984 . S
C209 O207 1.353 . S
C209 O208 1.286 . S
C209 C211 1.363 . S
C210 C200 1.465 . S
C210 U206 2.847 . S
C210 O224 1.249 . S
C210 O225 1.202 . S
C211 C209 1.363 . S
C211 C213 1.408 . S
C211 C216 1.342 . S
C212 C213 1.310 . S
C212 C215 1.461 . S
C212 H232 0.932 . S
C213 C211 1.408 . S
C213 C212 1.310 . S
C213 H233 0.930 . S
C214 C215 1.474 . S
C214 C216 1.285 . S
C214 H234 0.929 . S
C215 C212 1.461 . S
C215 C214 1.474 . S
C216 C211 1.342 . S
C216 C214 1.285 . S
C216 H235 0.930 . S
C217 C220 1.424 . S
C217 C222 1.245 . S
C217 C223 1.428 . S
C218 C221 1.260 . S
C218 C222 1.477 . S
C218 H236 0.932 . S
C219 C220 1.384 . S
C219 C221 1.479 . S
C219 H237 0.929 . S
C220 C217 1.424 . S
C220 C219 1.384 . S
C220 H238 0.928 . S
C221 C218 1.260 . S
C221 C219 1.479 . S
C222 C217 1.245 . S
C222 C218 1.477 . S
C222 H239 0.932 . S
C223 U206 2.882 . S
C223 C217 1.428 . S
C223 O226 1.301 . S
C223 O227 1.282 . S
O224 U206 2.441 . S
O224 C210 1.249 . S
O225 U206 2.420 . S
O225 C210 1.202 . S
O226 U206 2.455 . S
O226 C223 1.301 . S
O227 U206 2.449 . S
O227 C223 1.282 . S
H228 C201 0.931 . S
H229 C203 0.929 . S
H230 C204 0.930 . S
H231 C205 0.931 . S
H232 C212 0.932 . S
H233 C213 0.930 . S
H234 C214 0.929 . S
H235 C216 0.930 . S
H236 C218 0.932 . S
H237 C219 0.929 . S
H238 C220 0.928 . S
H239 C222 0.932 . S
C240 C241 1.264 . S
C240 C245 1.479 . S
C240 C250 1.465 . S
C241 C240 1.264 . S
C241 C243 1.339 . S
C241 H268 0.931 . S
C242 C243 1.395 . S
C242 C244 1.320 . S
C243 C241 1.339 . S
C243 C242 1.395 . S
C243 H269 0.929 . S
C244 C242 1.320 . S
C244 C245 1.405 . S
C244 H270 0.930 . S
C245 C240 1.479 . S
C245 C244 1.405 . S
C245 H271 0.931 . S
U246 O247 2.454 . S
U246 O248 2.458 . S
U246 C249 2.984 . S
U246 C250 2.847 . S
U246 C263 2.882 . S
U246 O264 2.441 . S
U246 O265 2.420 . S
U246 O266 2.455 . S
U246 O267 2.449 . S
O247 U246 2.454 . S
O247 C249 1.353 . S
O248 U246 2.458 . S
O248 C249 1.286 . S
C249 U246 2.984 . S
C249 O247 1.353 . S
C249 O248 1.286 . S
C249 C251 1.363 . S
C250 C240 1.465 . S
C250 U246 2.847 . S
C250 O264 1.249 . S
C250 O265 1.202 . S
C251 C249 1.363 . S
C251 C253 1.408 . S
C251 C256 1.342 . S
C252 C253 1.310 . S
C252 C255 1.461 . S
C252 H272 0.932 . S
C253 C251 1.408 . S
C253 C252 1.310 . S
C253 H273 0.930 . S
C254 C255 1.474 . S
C254 C256 1.285 . S
C254 H274 0.929 . S
C255 C252 1.461 . S
C255 C254 1.474 . S
C256 C251 1.342 . S
C256 C254 1.285 . S
C256 H275 0.930 . S
C257 C260 1.424 . S
C257 C262 1.245 . S
C257 C263 1.428 . S
C258 C261 1.260 . S
C258 C262 1.477 . S
C258 H276 0.932 . S
C259 C260 1.384 . S
C259 C261 1.479 . S
C259 H277 0.929 . S
C260 C257 1.424 . S
C260 C259 1.384 . S
C260 H278 0.928 . S
C261 C258 1.260 . S
C261 C259 1.479 . S
C262 C257 1.245 . S
C262 C258 1.477 . S
C262 H279 0.932 . S
C263 U246 2.882 . S
C263 C257 1.428 . S
C263 O266 1.301 . S
C263 O267 1.282 . S
O264 U246 2.441 . S
O264 C250 1.249 . S
O265 U246 2.420 . S
O265 C250 1.202 . S
O266 U246 2.455 . S
O266 C263 1.301 . S
O267 U246 2.449 . S
O267 C263 1.282 . S
H268 C241 0.931 . S
H269 C243 0.929 . S
H270 C244 0.930 . S
H271 C245 0.931 . S
H272 C252 0.932 . S
H273 C253 0.930 . S
H274 C254 0.929 . S
H275 C256 0.930 . S
H276 C258 0.932 . S
H277 C259 0.929 . S
H278 C260 0.928 . S
H279 C262 0.932 . S
C280 C281 1.264 . S
C280 C285 1.479 . S
C280 C290 1.465 . S
C281 C280 1.264 . S
C281 C283 1.339 . S
C281 H308 0.931 . S
C282 C283 1.395 . S
C282 C284 1.320 . S
C283 C281 1.339 . S
C283 C282 1.395 . S
C283 H309 0.929 . S
C284 C282 1.320 . S
C284 C285 1.405 . S
C284 H310 0.930 . S
C285 C280 1.479 . S
C285 C284 1.405 . S
C285 H311 0.931 . S
U286 O287 2.454 . S
U286 O288 2.458 . S
U286 C289 2.984 . S
U286 C290 2.847 1_556 S
U286 C303 2.882 . S
U286 O304 2.441 . S
U286 O305 2.420 . S
U286 O306 2.455 . S
U286 O307 2.449 . S
O287 U286 2.454 . S
O287 C289 1.353 . S
O288 U286 2.458 . S
O288 C289 1.286 . S
C289 U286 2.984 . S
C289 O287 1.353 . S
C289 O288 1.286 . S
C289 C291 1.363 . S
C290 C280 1.465 . S
C290 U286 2.847 1_554 S
C290 O304 1.249 1_554 S
C290 O305 1.202 1_554 S
C291 C289 1.363 . S
C291 C293 1.408 . S
C291 C296 1.342 . S
C292 C293 1.310 . S
C292 C295 1.461 . S
C292 H312 0.932 . S
C293 C291 1.408 . S
C293 C292 1.310 . S
C293 H313 0.930 . S
C294 C295 1.474 . S
C294 C296 1.285 . S
C294 H314 0.929 . S
C295 C292 1.461 . S
C295 C294 1.474 . S
C296 C291 1.342 . S
C296 C294 1.285 . S
C296 H315 0.930 . S
C297 C300 1.424 . S
C297 C302 1.245 . S
C297 C303 1.428 . S
C298 C301 1.260 . S
C298 C302 1.477 . S
C298 H316 0.932 . S
C299 C300 1.384 . S
C299 C301 1.479 . S
C299 H317 0.929 . S
C300 C297 1.424 . S
C300 C299 1.384 . S
C300 H318 0.928 . S
C301 C298 1.260 . S
C301 C299 1.479 . S
C302 C297 1.245 . S
C302 C298 1.477 . S
C302 H319 0.932 . S
C303 U286 2.882 . S
C303 C297 1.428 . S
C303 O306 1.301 . S
C303 O307 1.282 . S
O304 U286 2.441 . S
O304 C290 1.249 1_556 S
O305 U286 2.420 . S
O305 C290 1.202 1_556 S
O306 U286 2.455 . S
O306 C303 1.301 . S
O307 U286 2.449 . S
O307 C303 1.282 . S
H308 C281 0.931 . S
H309 C283 0.929 . S
H310 C284 0.930 . S
H311 C285 0.931 . S
H312 C292 0.932 . S
H313 C293 0.930 . S
H314 C294 0.929 . S
H315 C296 0.930 . S
H316 C298 0.932 . S
H317 C299 0.929 . S
H318 C300 0.928 . S
H319 C302 0.932 . S
C320 C321 1.264 . S
C320 C325 1.479 1_545 S
C320 C330 1.496 . S
C321 C320 1.264 . S
C321 C323 1.339 . S
C321 H348 0.931 . S
C322 C323 1.395 . S
C322 C324 1.320 1_545 S
C323 C321 1.339 . S
C323 C322 1.395 . S
C323 H349 0.929 . S
C324 C322 1.320 1_565 S
C324 C325 1.405 . S
C324 H350 0.930 . S
C325 C320 1.479 1_565 S
C325 C324 1.405 . S
C325 H351 0.931 . S
U326 O327 2.454 . S
U326 O328 2.458 . S
U326 C329 2.984 . S
U326 C330 2.822 1_565 S
U326 C343 2.882 1_565 S
U326 O344 2.441 . S
U326 O345 2.420 1_565 S
U326 O346 2.455 1_565 S
U326 O347 2.449 1_565 S
O327 U326 2.454 . S
O327 C329 1.353 . S
O328 U326 2.458 . S
O328 C329 1.286 . S
C329 U326 2.984 . S
C329 O327 1.353 . S
C329 O328 1.286 . S
C329 C331 1.363 . S
C330 C320 1.496 . S
C330 U326 2.822 1_545 S
C330 O344 1.194 1_545 S
C330 O345 1.230 . S
C331 C329 1.363 . S
C331 C333 1.408 . S
C331 C336 1.342 . S
C332 C333 1.310 . S
C332 C335 1.461 . S
C332 H352 0.932 . S
C333 C331 1.408 . S
C333 C332 1.310 . S
C333 H353 0.930 . S
C334 C335 1.474 . S
C334 C336 1.285 . S
C334 H354 0.929 . S
C335 C332 1.461 . S
C335 C334 1.474 . S
C336 C331 1.342 . S
C336 C334 1.285 . S
C336 H355 0.930 . S
C337 C340 1.424 . S
C337 C342 1.245 . S
C337 C343 1.428 . S
C338 C341 1.260 . S
C338 C342 1.477 . S
C338 H356 0.932 . S
C339 C340 1.384 . S
C339 C341 1.479 . S
C339 H357 0.929 . S
C340 C337 1.424 . S
C340 C339 1.384 . S
C340 H358 0.928 . S
C341 C338 1.260 . S
C341 C339 1.479 . S
C342 C337 1.245 . S
C342 C338 1.477 . S
C342 H359 0.932 . S
C343 U326 2.882 1_545 S
C343 C337 1.428 . S
C343 O346 1.301 . S
C343 O347 1.282 . S
O344 U326 2.441 . S
O344 C330 1.194 1_565 S
O345 U326 2.420 1_545 S
O345 C330 1.230 . S
O346 U326 2.455 1_545 S
O346 C343 1.301 . S
O347 U326 2.449 1_545 S
O347 C343 1.282 . S
H348 C321 0.931 . S
H349 C323 0.929 . S
H350 C324 0.930 . S
H351 C325 0.931 . S
H352 C332 0.932 . S
H353 C333 0.930 . S
H354 C334 0.929 . S
H355 C336 0.930 . S
H356 C338 0.932 . S
H357 C339 0.929 . S
H358 C340 0.928 . S
H359 C342 0.932 . S
C360 C361 1.264 . S
C360 C365 1.479 . S
C360 C370 1.465 . S
C361 C360 1.264 . S
C361 C363 1.339 . S
C361 H388 0.931 . S
C362 C363 1.395 . S
C362 C364 1.320 . S
C363 C361 1.339 . S
C363 C362 1.395 . S
C363 H389 0.929 . S
C364 C362 1.320 . S
C364 C365 1.405 . S
C364 H390 0.930 . S
C365 C360 1.479 . S
C365 C364 1.405 . S
C365 H391 0.931 . S
U366 O367 2.454 . S
U366 O368 2.458 . S
U366 C369 2.984 . S
U366 C370 2.847 1_545 S
U366 C383 2.882 . S
U366 O384 2.441 1_545 S
U366 O385 2.420 1_545 S
U366 O386 2.455 . S
U366 O387 2.449 . S
O367 U366 2.454 . S
O367 C369 1.353 . S
O368 U366 2.458 . S
O368 C369 1.286 . S
C369 U366 2.984 . S
C369 O367 1.353 . S
C369 O368 1.286 . S
C369 C371 1.363 . S
C370 C360 1.465 . S
C370 U366 2.847 1_565 S
C370 O384 1.249 . S
C370 O385 1.202 . S
C371 C369 1.363 . S
C371 C373 1.408 . S
C371 C376 1.342 . S
C372 C373 1.310 . S
C372 C375 1.461 . S
C372 H392 0.932 . S
C373 C371 1.408 . S
C373 C372 1.310 . S
C373 H393 0.930 . S
C374 C375 1.474 . S
C374 C376 1.285 . S
C374 H394 0.929 . S
C375 C372 1.461 . S
C375 C374 1.474 . S
C376 C371 1.342 . S
C376 C374 1.285 . S
C376 H395 0.930 . S
C377 C380 1.424 . S
C377 C382 1.245 . S
C377 C383 1.428 . S
C378 C381 1.260 . S
C378 C382 1.477 . S
C378 H396 0.932 . S
C379 C380 1.384 . S
C379 C381 1.479 . S
C379 H397 0.929 . S
C380 C377 1.424 . S
C380 C379 1.384 . S
C380 H398 0.928 . S
C381 C378 1.260 . S
C381 C379 1.479 . S
C382 C377 1.245 . S
C382 C378 1.477 . S
C382 H399 0.932 . S
C383 U366 2.882 . S
C383 C377 1.428 . S
C383 O386 1.301 . S
C383 O387 1.282 . S
O384 U366 2.441 1_565 S
O384 C370 1.249 . S
O385 U366 2.420 1_565 S
O385 C370 1.202 . S
O386 U366 2.455 . S
O386 C383 1.301 . S
O387 U366 2.449 . S
O387 C383 1.282 . S
H388 C361 0.931 . S
H389 C363 0.929 . S
H390 C364 0.930 . S
H391 C365 0.931 . S
H392 C372 0.932 . S
H393 C373 0.930 . S
H394 C374 0.929 . S
H395 C376 0.930 . S
H396 C378 0.932 . S
H397 C379 0.929 . S
H398 C380 0.928 . S
H399 C382 0.932 . S
C400 C401 1.264 . S
C400 C405 1.479 . S
C400 C410 1.465 . S
C401 C400 1.264 . S
C401 C403 1.339 . S
C401 H428 0.931 . S
C402 C403 1.395 . S
C402 C404 1.320 . S
C403 C401 1.339 . S
C403 C402 1.395 . S
C403 H429 0.929 . S
C404 C402 1.320 . S
C404 C405 1.405 . S
C404 H430 0.930 . S
C405 C400 1.479 . S
C405 C404 1.405 . S
C405 H431 0.931 . S
U406 O407 2.454 . S
U406 O408 2.458 1_545 S
U406 C409 2.984 1_545 S
U406 C410 2.847 . S
U406 C423 2.882 1_545 S
U406 O424 2.441 . S
U406 O425 2.420 . S
U406 O426 2.455 1_545 S
U406 O427 2.449 1_545 S
O407 U406 2.454 . S
O407 C409 1.353 1_545 S
O408 U406 2.458 1_565 S
O408 C409 1.286 . S
C409 U406 2.984 1_565 S
C409 O407 1.353 1_565 S
C409 O408 1.286 . S
C409 C411 1.363 . S
C410 C400 1.465 . S
C410 U406 2.847 . S
C410 O424 1.249 . S
C410 O425 1.202 . S
C411 C409 1.363 . S
C411 C413 1.408 1_565 S
C411 C416 1.342 . S
C412 C413 1.310 . S
C412 C415 1.461 1_545 S
C412 H432 0.932 . S
C413 C411 1.408 1_545 S
C413 C412 1.310 . S
C413 H433 0.930 . S
C414 C415 1.474 . S
C414 C416 1.285 . S
C414 H434 0.929 . S
C415 C412 1.461 1_565 S
C415 C414 1.474 . S
C416 C411 1.342 . S
C416 C414 1.285 . S
C416 H435 0.930 . S
C417 C420 1.424 . S
C417 C422 1.245 . S
C417 C423 1.428 . S
C418 C421 1.260 . S
C418 C422 1.477 . S
C418 H436 0.932 . S
C419 C420 1.384 . S
C419 C421 1.479 . S
C419 H437 0.929 . S
C420 C417 1.424 . S
C420 C419 1.384 . S
C420 H438 0.928 . S
C421 C418 1.260 . S
C421 C419 1.479 . S
C422 C417 1.245 . S
C422 C418 1.477 . S
C422 H439 0.932 . S
C423 U406 2.882 1_565 S
C423 C417 1.428 . S
C423 O426 1.301 . S
C423 O427 1.282 . S
O424 U406 2.441 . S
O424 C410 1.249 . S
O425 U406 2.420 . S
O425 C410 1.202 . S
O426 U406 2.455 1_565 S
O426 C423 1.301 . S
O427 U406 2.449 1_565 S
O427 C423 1.282 . S
H428 C401 0.931 . S
H429 C403 0.929 . S
H430 C404 0.930 . S
H431 C405 0.931 . S
H432 C412 0.932 . S
H433 C413 0.930 . S
H434 C414 0.929 . S
H435 C416 0.930 . S
H436 C418 0.932 . S
H437 C419 0.929 . S
H438 C420 0.928 . S
H439 C422 0.932 . S
C440 C441 1.264 . S
C440 C445 1.479 . S
C440 C450 1.465 . S
C441 C440 1.264 . S
C441 C443 1.339 . S
C441 H468 0.931 . S
C442 C443 1.395 . S
C442 C444 1.320 . S
C443 C441 1.339 . S
C443 C442 1.395 . S
C443 H469 0.929 . S
C444 C442 1.320 . S
C444 C445 1.405 . S
C444 H470 0.930 . S
C445 C440 1.479 . S
C445 C444 1.405 . S
C445 H471 0.931 1_565 S
U446 O447 2.454 . S
U446 O448 2.458 . S
U446 C449 2.984 . S
U446 C450 2.847 1_545 S
U446 C463 2.882 1_545 S
U446 O464 2.441 . S
U446 O465 2.420 1_545 S
U446 O466 2.455 1_545 S
U446 O467 2.449 1_545 S
O447 U446 2.454 . S
O447 C449 1.353 . S
O448 U446 2.458 . S
O448 C449 1.286 . S
C449 U446 2.984 . S
C449 O447 1.353 . S
C449 O448 1.286 . S
C449 C451 1.363 . S
C450 C440 1.465 . S
C450 U446 2.847 1_565 S
C450 O464 1.249 1_565 S
C450 O465 1.202 . S
C451 C449 1.363 . S
C451 C453 1.408 . S
C451 C456 1.342 . S
C452 C453 1.310 . S
C452 C455 1.461 . S
C452 H472 0.932 . S
C453 C451 1.408 . S
C453 C452 1.310 . S
C453 H473 0.930 . S
C454 C455 1.474 . S
C454 C456 1.285 . S
C454 H474 0.929 . S
C455 C452 1.461 . S
C455 C454 1.474 . S
C456 C451 1.342 . S
C456 C454 1.285 . S
C456 H475 0.930 . S
C457 C460 1.424 . S
C457 C462 1.245 . S
C457 C463 1.428 . S
C458 C461 1.260 . S
C458 C462 1.477 . S
C458 H476 0.932 . S
C459 C460 1.384 . S
C459 C461 1.479 . S
C459 H477 0.929 . S
C460 C457 1.424 . S
C460 C459 1.384 . S
C460 H478 0.928 . S
C461 C458 1.260 . S
C461 C459 1.479 . S
C462 C457 1.245 . S
C462 C458 1.477 . S
C462 H479 0.932 . S
C463 U446 2.882 1_565 S
C463 C457 1.428 . S
C463 O466 1.301 . S
C463 O467 1.282 . S
O464 U446 2.441 . S
O464 C450 1.249 1_545 S
O465 U446 2.420 1_565 S
O465 C450 1.202 . S
O466 U446 2.455 1_565 S
O466 C463 1.301 . S
O467 U446 2.449 1_565 S
O467 C463 1.282 . S
H468 C441 0.931 . S
H469 C443 0.929 . S
H470 C444 0.930 . S
H471 C445 0.931 1_545 S
H472 C452 0.932 . S
H473 C453 0.930 . S
H474 C454 0.929 . S
H475 C456 0.930 . S
H476 C458 0.932 . S
H477 C459 0.929 . S
H478 C460 0.928 . S
H479 C462 0.932 . S
C480 C481 1.264 . S
C480 C485 1.479 . S
C480 C490 1.465 . S
C481 C480 1.264 . S
C481 C483 1.339 . S
C481 H508 0.931 . S
C482 C483 1.395 . S
C482 C484 1.320 . S
C483 C481 1.339 . S
C483 C482 1.395 . S
C483 H509 0.929 . S
C484 C482 1.320 . S
C484 C485 1.405 . S
C484 H510 0.930 . S
C485 C480 1.479 . S
C485 C484 1.405 . S
C485 H511 0.931 . S
U486 O487 2.454 . S
U486 O488 2.458 . S
U486 C489 2.984 . S
U486 C490 2.847 . S
U486 C503 2.882 . S
U486 O504 2.441 . S
U486 O505 2.420 . S
U486 O506 2.455 . S
U486 O507 2.449 . S
O487 U486 2.454 . S
O487 C489 1.353 . S
O488 U486 2.458 . S
O488 C489 1.286 . S
C489 U486 2.984 . S
C489 O487 1.353 . S
C489 O488 1.286 . S
C489 C491 1.363 1_554 S
C490 C480 1.465 . S
C490 U486 2.847 . S
C490 O504 1.249 . S
C490 O505 1.202 . S
C491 C489 1.363 1_556 S
C491 C493 1.408 . S
C491 C496 1.342 . S
C492 C493 1.310 . S
C492 C495 1.461 . S
C492 H512 0.932 . S
C493 C491 1.408 . S
C493 C492 1.310 . S
C493 H513 0.930 . S
C494 C495 1.474 . S
C494 C496 1.285 . S
C494 H514 0.929 . S
C495 C492 1.461 . S
C495 C494 1.474 . S
C496 C491 1.342 . S
C496 C494 1.285 . S
C496 H515 0.930 . S
C497 C500 1.424 . S
C497 C502 1.245 . S
C497 C503 1.428 . S
C498 C501 1.260 . S
C498 C502 1.477 . S
C498 H516 0.932 . S
C499 C500 1.384 . S
C499 C501 1.479 . S
C499 H517 0.929 . S
C500 C497 1.424 . S
C500 C499 1.384 . S
C500 H518 0.928 . S
C501 C498 1.260 . S
C501 C499 1.479 . S
C502 C497 1.245 . S
C502 C498 1.477 . S
C502 H519 0.932 . S
C503 U486 2.882 . S
C503 C497 1.428 . S
C503 O506 1.301 . S
C503 O507 1.282 . S
O504 U486 2.441 . S
O504 C490 1.249 . S
O505 U486 2.420 . S
O505 C490 1.202 . S
O506 U486 2.455 . S
O506 C503 1.301 . S
O507 U486 2.449 . S
O507 C503 1.282 . S
H508 C481 0.931 . S
H509 C483 0.929 . S
H510 C484 0.930 . S
H511 C485 0.931 . S
H512 C492 0.932 . S
H513 C493 0.930 . S
H514 C494 0.929 . S
H515 C496 0.930 . S
H516 C498 0.932 . S
H517 C499 0.929 . S
H518 C500 0.928 . S
H519 C502 0.932 . S
C520 C521 1.264 . S
C520 C525 1.479 1_655 S
C520 C530 1.465 . S
C521 C520 1.264 . S
C521 C523 1.339 1_655 S
C521 H548 0.931 . S
C522 C523 1.395 . S
C522 C524 1.320 . S
C523 C521 1.339 1_455 S
C523 C522 1.395 . S
C523 H549 0.929 . S
C524 C522 1.320 . S
C524 C525 1.405 . S
C524 H550 0.930 . S
C525 C520 1.479 1_455 S
C525 C524 1.405 . S
C525 H551 0.931 . S
U526 O527 2.454 . S
U526 O528 2.458 . S
U526 C529 2.984 . S
U526 C530 2.847 . S
U526 C543 2.882 . S
U526 O544 2.441 . S
U526 O545 2.420 . S
U526 O546 2.455 . S
U526 O547 2.449 . S
O527 U526 2.454 . S
O527 C529 1.353 . S
O528 U526 2.458 . S
O528 C529 1.286 . S
C529 U526 2.984 . S
C529 O527 1.353 . S
C529 O528 1.286 . S
C529 C531 1.363 . S
C530 C520 1.465 . S
C530 U526 2.847 . S
C530 O544 1.249 . S
C530 O545 1.202 . S
C531 C529 1.363 . S
C531 C533 1.408 . S
C531 C536 1.342 . S
C532 C533 1.310 . S
C532 C535 1.461 . S
C532 H552 0.932 . S
C533 C531 1.408 . S
C533 C532 1.310 . S
C533 H553 0.930 . S
C534 C535 1.474 . S
C534 C536 1.285 . S
C534 H554 0.929 . S
C535 C532 1.461 . S
C535 C534 1.474 . S
C536 C531 1.342 . S
C536 C534 1.285 . S
C536 H555 0.930 . S
C537 C540 1.424 . S
C537 C542 1.245 . S
C537 C543 1.428 . S
C538 C541 1.260 . S
C538 C542 1.477 . S
C538 H556 0.932 . S
C539 C540 1.384 . S
C539 C541 1.479 . S
C539 H557 0.929 . S
C540 C537 1.424 . S
C540 C539 1.384 . S
C540 H558 0.928 . S
C541 C538 1.260 . S
C541 C539 1.479 . S
C542 C537 1.245 . S
C542 C538 1.477 . S
C542 H559 0.932 . S
C543 U526 2.882 . S
C543 C537 1.428 . S
C543 O546 1.301 . S
C543 O547 1.282 . S
O544 U526 2.441 . S
O544 C530 1.249 . S
O545 U526 2.420 . S
O545 C530 1.202 . S
O546 U526 2.455 . S
O546 C543 1.301 . S
O547 U526 2.449 . S
O547 C543 1.282 . S
H548 C521 0.931 . S
H549 C523 0.929 . S
H550 C524 0.930 . S
H551 C525 0.931 . S
H552 C532 0.932 . S
H553 C533 0.930 . S
H554 C534 0.929 . S
H555 C536 0.930 . S
H556 C538 0.932 . S
H557 C539 0.929 . S
H558 C540 0.928 . S
H559 C542 0.932 . S
C560 C561 1.264 . S
C560 C565 1.479 . S
C560 C570 1.465 . S
C561 C560 1.264 . S
C561 C563 1.339 . S
C561 H588 0.931 . S
C562 C563 1.395 . S
C562 C564 1.320 . S
C563 C561 1.339 . S
C563 C562 1.395 . S
C563 H589 0.929 . S
C564 C562 1.320 . S
C564 C565 1.405 . S
C564 H590 0.930 . S
C565 C560 1.479 . S
C565 C564 1.405 . S
C565 H591 0.931 . S
U566 O567 2.454 . S
U566 O568 2.458 . S
U566 C569 2.984 . S
U566 C570 2.847 . S
U566 C583 2.882 . S
U566 O584 2.441 . S
U566 O585 2.420 . S
U566 O586 2.455 . S
U566 O587 2.449 . S
O567 U566 2.454 . S
O567 C569 1.353 . S
O568 U566 2.458 . S
O568 C569 1.286 . S
C569 U566 2.984 . S
C569 O567 1.353 . S
C569 O568 1.286 . S
C569 C571 1.363 . S
C570 C560 1.465 . S
C570 U566 2.847 . S
C570 O584 1.249 . S
C570 O585 1.202 . S
C571 C569 1.363 . S
C571 C573 1.408 . S
C571 C576 1.342 . S
C572 C573 1.310 . S
C572 C575 1.461 . S
C572 H592 0.932 . S
C573 C571 1.408 . S
C573 C572 1.310 . S
C573 H593 0.930 . S
C574 C575 1.474 . S
C574 C576 1.285 . S
C574 H594 0.929 . S
C575 C572 1.461 . S
C575 C574 1.474 . S
C576 C571 1.342 . S
C576 C574 1.285 . S
C576 H595 0.930 . S
C577 C580 1.424 . S
C577 C582 1.245 . S
C577 C583 1.428 . S
C578 C581 1.260 . S
C578 C582 1.477 . S
C578 H596 0.932 . S
C579 C580 1.384 . S
C579 C581 1.479 . S
C579 H597 0.929 . S
C580 C577 1.424 . S
C580 C579 1.384 . S
C580 H598 0.928 . S
C581 C578 1.260 . S
C581 C579 1.479 . S
C582 C577 1.245 . S
C582 C578 1.477 . S
C582 H599 0.932 . S
C583 U566 2.882 . S
C583 C577 1.428 . S
C583 O586 1.301 . S
C583 O587 1.282 . S
O584 U566 2.441 . S
O584 C570 1.249 . S
O585 U566 2.420 . S
O585 C570 1.202 . S
O586 U566 2.455 . S
O586 C583 1.301 . S
O587 U566 2.449 . S
O587 C583 1.282 . S
H588 C561 0.931 . S
H589 C563 0.929 . S
H590 C564 0.930 . S
H591 C565 0.931 . S
H592 C572 0.932 . S
H593 C573 0.930 . S
H594 C574 0.929 . S
H595 C576 0.930 . S
H596 C578 0.932 . S
H597 C579 0.929 . S
H598 C580 0.928 . S
H599 C582 0.932 . S
C600 C601 1.264 . S
C600 C605 1.479 . S
C600 C610 1.465 1_655 S
C601 C600 1.264 . S
C601 C603 1.339 . S
C601 H628 0.931 . S
C602 C603 1.395 . S
C602 C604 1.320 . S
C603 C601 1.339 . S
C603 C602 1.395 . S
C603 H629 0.929 . S
C604 C602 1.320 . S
C604 C605 1.405 . S
C604 H630 0.930 . S
C605 C600 1.479 . S
C605 C604 1.405 . S
C605 H631 0.931 1_655 S
U606 O607 2.454 . S
U606 O608 2.458 . S
U606 C609 2.984 . S
U606 C610 2.847 . S
U606 C623 2.870 1_455 S
U606 O624 2.441 . S
U606 O625 2.423 . S
U606 O626 2.455 . S
U606 O627 2.449 1_455 S
O607 U606 2.454 . S
O607 C609 1.353 . S
O608 U606 2.458 . S
O608 C609 1.286 . S
C609 U606 2.984 . S
C609 O607 1.353 . S
C609 O608 1.286 . S
C609 C611 1.363 . S
C610 C600 1.465 1_455 S
C610 U606 2.847 . S
C610 O624 1.249 . S
C610 O625 1.203 . S
C611 C609 1.363 . S
C611 C613 1.408 . S
C611 C616 1.342 . S
C612 C613 1.310 . S
C612 C615 1.461 . S
C612 H632 0.932 . S
C613 C611 1.408 . S
C613 C612 1.310 . S
C613 H633 0.930 . S
C614 C615 1.474 . S
C614 C616 1.285 . S
C614 H634 0.929 . S
C615 C612 1.461 . S
C615 C614 1.474 . S
C616 C611 1.342 . S
C616 C614 1.285 . S
C616 H635 0.930 . S
C617 C620 1.424 . S
C617 C622 1.245 . S
C617 C623 1.443 . S
C618 C621 1.260 . S
C618 C622 1.477 . S
C618 H636 0.932 . S
C619 C620 1.384 . S
C619 C621 1.479 . S
C619 H637 0.929 . S
C620 C617 1.424 . S
C620 C619 1.384 . S
C620 H638 0.928 . S
C621 C618 1.260 . S
C621 C619 1.479 . S
C622 C617 1.245 . S
C622 C618 1.477 . S
C622 H639 0.934 . S
C623 U606 2.870 1_655 S
C623 C617 1.443 . S
C623 O626 1.278 1_655 S
C623 O627 1.289 . S
O624 U606 2.441 . S
O624 C610 1.249 . S
O625 U606 2.423 . S
O625 C610 1.203 . S
O626 U606 2.455 . S
O626 C623 1.278 1_455 S
O627 U606 2.449 1_655 S
O627 C623 1.289 . S
H628 C601 0.931 . S
H629 C603 0.929 . S
H630 C604 0.930 . S
H631 C605 0.931 1_455 S
H632 C612 0.932 . S
H633 C613 0.930 . S
H634 C614 0.929 . S
H635 C616 0.930 . S
H636 C618 0.932 . S
H637 C619 0.929 . S
H638 C620 0.928 . S
H639 C622 0.934 . S
C640 C641 1.264 . S
C640 C645 1.479 . S
C640 C650 1.465 . S
C641 C640 1.264 . S
C641 C643 1.339 . S
C641 H668 0.931 . S
C642 C643 1.395 . S
C642 C644 1.320 . S
C643 C641 1.339 . S
C643 C642 1.395 . S
C643 H669 0.929 . S
C644 C642 1.320 . S
C644 C645 1.405 . S
C644 H670 0.930 . S
C645 C640 1.479 . S
C645 C644 1.405 . S
C645 H671 0.931 . S
U646 O647 2.454 . S
U646 O648 2.458 . S
U646 C649 2.984 . S
U646 C650 2.847 . S
U646 C663 2.882 . S
U646 O664 2.441 . S
U646 O665 2.420 . S
U646 O666 2.455 . S
U646 O667 2.449 . S
O647 U646 2.454 . S
O647 C649 1.353 . S
O648 U646 2.458 . S
O648 C649 1.286 . S
C649 U646 2.984 . S
C649 O647 1.353 . S
C649 O648 1.286 . S
C649 C651 1.363 . S
C650 C640 1.465 . S
C650 U646 2.847 . S
C650 O664 1.249 . S
C650 O665 1.202 . S
C651 C649 1.363 . S
C651 C653 1.408 . S
C651 C656 1.342 . S
C652 C653 1.310 . S
C652 C655 1.461 . S
C652 H672 0.932 . S
C653 C651 1.408 . S
C653 C652 1.310 . S
C653 H673 0.930 . S
C654 C655 1.474 . S
C654 C656 1.285 . S
C654 H674 0.929 . S
C655 C652 1.461 . S
C655 C654 1.474 . S
C656 C651 1.342 . S
C656 C654 1.285 . S
C656 H675 0.930 . S
C657 C660 1.424 . S
C657 C662 1.245 . S
C657 C663 1.428 . S
C658 C661 1.260 . S
C658 C662 1.477 . S
C658 H676 0.932 . S
C659 C660 1.384 . S
C659 C661 1.479 . S
C659 H677 0.929 . S
C660 C657 1.424 . S
C660 C659 1.384 . S
C660 H678 0.928 . S
C661 C658 1.260 . S
C661 C659 1.479 . S
C662 C657 1.245 . S
C662 C658 1.477 . S
C662 H679 0.932 . S
C663 U646 2.882 . S
C663 C657 1.428 . S
C663 O666 1.301 . S
C663 O667 1.282 . S
O664 U646 2.441 . S
O664 C650 1.249 . S
O665 U646 2.420 . S
O665 C650 1.202 . S
O666 U646 2.455 . S
O666 C663 1.301 . S
O667 U646 2.449 . S
O667 C663 1.282 . S
H668 C641 0.931 . S
H669 C643 0.929 . S
H670 C644 0.930 . S
H671 C645 0.931 . S
H672 C652 0.932 . S
H673 C653 0.930 . S
H674 C654 0.929 . S
H675 C656 0.930 . S
H676 C658 0.932 . S
H677 C659 0.929 . S
H678 C660 0.928 . S
H679 C662 0.932 . S
C680 C681 1.264 . S
C680 C685 1.479 . S
C680 C690 1.465 . S
C681 C680 1.264 . S
C681 C683 1.339 . S
C681 H708 0.931 . S
C682 C683 1.395 . S
C682 C684 1.320 . S
C683 C681 1.339 . S
C683 C682 1.395 . S
C683 H709 0.929 . S
C684 C682 1.320 . S
C684 C685 1.405 . S
C684 H710 0.930 . S
C685 C680 1.479 . S
C685 C684 1.405 . S
C685 H711 0.931 . S
U686 O687 2.454 . S
U686 O688 2.458 . S
U686 C689 2.984 . S
U686 C690 2.847 . S
U686 C703 2.882 . S
U686 O704 2.441 . S
U686 O705 2.420 . S
U686 O706 2.455 . S
U686 O707 2.449 . S
O687 U686 2.454 . S
O687 C689 1.353 . S
O688 U686 2.458 . S
O688 C689 1.286 . S
C689 U686 2.984 . S
C689 O687 1.353 . S
C689 O688 1.286 . S
C689 C691 1.363 . S
C690 C680 1.465 . S
C690 U686 2.847 . S
C690 O704 1.249 . S
C690 O705 1.202 . S
C691 C689 1.363 . S
C691 C693 1.408 . S
C691 C696 1.342 . S
C692 C693 1.310 . S
C692 C695 1.461 . S
C692 H712 0.932 . S
C693 C691 1.408 . S
C693 C692 1.310 . S
C693 H713 0.930 . S
C694 C695 1.474 . S
C694 C696 1.285 . S
C694 H714 0.929 . S
C695 C692 1.461 . S
C695 C694 1.474 . S
C696 C691 1.342 . S
C696 C694 1.285 . S
C696 H715 0.930 . S
C697 C700 1.424 . S
C697 C702 1.245 . S
C697 C703 1.428 . S
C698 C701 1.260 . S
C698 C702 1.477 . S
C698 H716 0.932 . S
C699 C700 1.384 . S
C699 C701 1.479 . S
C699 H717 0.929 . S
C700 C697 1.424 . S
C700 C699 1.384 . S
C700 H718 0.928 . S
C701 C698 1.260 . S
C701 C699 1.479 . S
C702 C697 1.245 . S
C702 C698 1.477 . S
C702 H719 0.932 . S
C703 U686 2.882 . S
C703 C697 1.428 . S
C703 O706 1.301 . S
C703 O707 1.282 . S
O704 U686 2.441 . S
O704 C690 1.249 . S
O705 U686 2.420 . S
O705 C690 1.202 . S
O706 U686 2.455 . S
O706 C703 1.301 . S
O707 U686 2.449 . S
O707 C703 1.282 . S
H708 C681 0.931 . S
H709 C683 0.929 . S
H710 C684 0.930 . S
H711 C685 0.931 . S
H712 C692 0.932 . S
H713 C693 0.930 . S
H714 C694 0.929 . S
H715 C696 0.930 . S
H716 C698 0.932 . S
H717 C699 0.929 . S
H718 C700 0.928 . S
H719 C702 0.932 . S
C720 C721 1.264 . S
C720 C725 1.479 . S
C720 C730 1.465 . S
C721 C720 1.264 . S
C721 C723 1.339 . S
C721 H748 0.931 . S
C722 C723 1.395 . S
C722 C724 1.320 . S
C723 C721 1.339 . S
C723 C722 1.395 . S
C723 H749 0.929 . S
C724 C722 1.320 . S
C724 C725 1.405 . S
C724 H750 0.930 . S
C725 C720 1.479 . S
C725 C724 1.405 . S
C725 H751 0.931 . S
U726 O727 2.454 . S
U726 O728 2.458 . S
U726 C729 2.984 . S
U726 C730 2.847 . S
U726 C743 2.882 . S
U726 O744 2.441 . S
U726 O745 2.420 . S
U726 O746 2.455 . S
U726 O747 2.449 . S
O727 U726 2.454 . S
O727 C729 1.353 . S
O728 U726 2.458 . S
O728 C729 1.286 . S
C729 U726 2.984 . S
C729 O727 1.353 . S
C729 O728 1.286 . S
C729 C731 1.363 1_556 S
C730 C720 1.465 . S
C730 U726 2.847 . S
C730 O744 1.249 . S
C730 O745 1.202 . S
C731 C729 1.363 1_554 S
C731 C733 1.408 . S
C731 C736 1.342 . S
C732 C733 1.310 . S
C732 C735 1.461 . S
C732 H752 0.932 . S
C733 C731 1.408 . S
C733 C732 1.310 . S
C733 H753 0.930 . S
C734 C735 1.474 . S
C734 C736 1.285 . S
C734 H754 0.929 . S
C735 C732 1.461 . S
C735 C734 1.474 . S
C736 C731 1.342 . S
C736 C734 1.285 . S
C736 H755 0.930 . S
C737 C740 1.424 . S
C737 C742 1.245 . S
C737 C743 1.428 . S
C738 C741 1.260 . S
C738 C742 1.477 . S
C738 H756 0.932 . S
C739 C740 1.384 . S
C739 C741 1.479 . S
C739 H757 0.929 . S
C740 C737 1.424 . S
C740 C739 1.384 . S
C740 H758 0.928 . S
C741 C738 1.260 . S
C741 C739 1.479 . S
C742 C737 1.245 . S
C742 C738 1.477 . S
C742 H759 0.932 . S
C743 U726 2.882 . S
C743 C737 1.428 . S
C743 O746 1.301 . S
C743 O747 1.282 . S
O744 U726 2.441 . S
O744 C730 1.249 . S
O745 U726 2.420 . S
O745 C730 1.202 . S
O746 U726 2.455 . S
O746 C743 1.301 . S
O747 U726 2.449 . S
O747 C743 1.282 . S
H748 C721 0.931 . S
H749 C723 0.929 . S
H750 C724 0.930 . S
H751 C725 0.931 . S
H752 C732 0.932 . S
H753 C733 0.930 . S
H754 C734 0.929 . S
H755 C736 0.930 . S
H756 C738 0.932 . S
H757 C739 0.929 . S
H758 C740 0.928 . S
H759 C742 0.932 . S
C760 C761 1.264 . S
C760 C765 1.479 . S
C760 C770 1.465 . S
C761 C760 1.264 . S
C761 C763 1.339 . S
C761 H788 0.931 . S
C762 C763 1.392 1_455 S
C762 C764 1.320 1_455 S
C763 C761 1.339 . S
C763 C762 1.392 1_655 S
C763 H789 0.929 . S
C764 C762 1.320 1_655 S
C764 C765 1.405 . S
C764 H790 0.930 1_655 S
C765 C760 1.479 . S
C765 C764 1.405 . S
C765 H791 0.931 . S
U766 O767 2.454 . S
U766 O768 2.458 . S
U766 C769 2.984 . S
U766 C770 2.847 . S
U766 C783 2.882 . S
U766 O784 2.441 . S
U766 O785 2.420 . S
U766 O786 2.455 . S
U766 O787 2.449 . S
O767 U766 2.454 . S
O767 C769 1.353 . S
O768 U766 2.458 . S
O768 C769 1.286 . S
C769 U766 2.984 . S
C769 O767 1.353 . S
C769 O768 1.286 . S
C769 C771 1.363 . S
C770 C760 1.465 . S
C770 U766 2.847 . S
C770 O784 1.249 . S
C770 O785 1.202 . S
C771 C769 1.363 . S
C771 C773 1.408 . S
C771 C776 1.342 . S
C772 C773 1.310 . S
C772 C775 1.461 . S
C772 H792 0.932 . S
C773 C771 1.408 . S
C773 C772 1.310 . S
C773 H793 0.930 . S
C774 C775 1.474 . S
C774 C776 1.285 . S
C774 H794 0.929 . S
C775 C772 1.461 . S
C775 C774 1.474 . S
C776 C771 1.342 . S
C776 C774 1.285 . S
C776 H795 0.930 . S
C777 C780 1.424 . S
C777 C782 1.245 . S
C777 C783 1.428 . S
C778 C781 1.260 . S
C778 C782 1.477 . S
C778 H796 0.932 . S
C779 C780 1.384 . S
C779 C781 1.479 . S
C779 H797 0.929 . S
C780 C777 1.424 . S
C780 C779 1.384 . S
C780 H798 0.928 . S
C781 C778 1.260 . S
C781 C779 1.479 . S
C782 C777 1.245 . S
C782 C778 1.477 . S
C782 H799 0.932 . S
C783 U766 2.882 . S
C783 C777 1.428 . S
C783 O786 1.301 . S
C783 O787 1.282 . S
O784 U766 2.441 . S
O784 C770 1.249 . S
O785 U766 2.420 . S
O785 C770 1.202 . S
O786 U766 2.455 . S
O786 C783 1.301 . S
O787 U766 2.449 . S
O787 C783 1.282 . S
H788 C761 0.931 . S
H789 C763 0.929 . S
H790 C764 0.930 1_455 S
H791 C765 0.931 . S
H792 C772 0.932 . S
H793 C773 0.930 . S
H794 C774 0.929 . S
H795 C776 0.930 . S
H796 C778 0.932 . S
H797 C779 0.929 . S
H798 C780 0.928 . S
H799 C782 0.932 . S
C800 C801 1.264 . S
C800 C805 1.479 . S
C800 C810 1.465 . S
C801 C800 1.264 . S
C801 C803 1.339 . S
C801 H828 0.931 . S
C802 C803 1.395 . S
C802 C804 1.320 . S
C803 C801 1.339 . S
C803 C802 1.395 . S
C803 H829 0.929 . S
C804 C802 1.320 . S
C804 C805 1.405 . S
C804 H830 0.930 . S
C805 C800 1.479 . S
C805 C804 1.405 . S
C805 H831 0.931 . S
U806 O807 2.454 . S
U806 O808 2.458 . S
U806 C809 2.984 . S
U806 C810 2.847 . S
U806 C823 2.882 . S
U806 O824 2.441 . S
U806 O825 2.420 . S
U806 O826 2.455 . S
U806 O827 2.449 . S
O807 U806 2.454 . S
O807 C809 1.353 . S
O808 U806 2.458 . S
O808 C809 1.286 . S
C809 U806 2.984 . S
C809 O807 1.353 . S
C809 O808 1.286 . S
C809 C811 1.363 . S
C810 C800 1.465 . S
C810 U806 2.847 . S
C810 O824 1.249 . S
C810 O825 1.202 . S
C811 C809 1.363 . S
C811 C813 1.408 . S
C811 C816 1.342 . S
C812 C813 1.310 . S
C812 C815 1.461 . S
C812 H832 0.932 . S
C813 C811 1.408 . S
C813 C812 1.310 . S
C813 H833 0.930 . S
C814 C815 1.474 . S
C814 C816 1.285 . S
C814 H834 0.929 . S
C815 C812 1.461 . S
C815 C814 1.474 . S
C816 C811 1.342 . S
C816 C814 1.285 . S
C816 H835 0.930 . S
C817 C820 1.424 . S
C817 C822 1.245 . S
C817 C823 1.428 . S
C818 C821 1.260 . S
C818 C822 1.477 . S
C818 H836 0.932 . S
C819 C820 1.384 . S
C819 C821 1.479 . S
C819 H837 0.929 . S
C820 C817 1.424 . S
C820 C819 1.384 . S
C820 H838 0.928 . S
C821 C818 1.260 . S
C821 C819 1.479 . S
C822 C817 1.245 . S
C822 C818 1.477 . S
C822 H839 0.932 . S
C823 U806 2.882 . S
C823 C817 1.428 . S
C823 O826 1.301 . S
C823 O827 1.282 . S
O824 U806 2.441 . S
O824 C810 1.249 . S
O825 U806 2.420 . S
O825 C810 1.202 . S
O826 U806 2.455 . S
O826 C823 1.301 . S
O827 U806 2.449 . S
O827 C823 1.282 . S
H828 C801 0.931 . S
H829 C803 0.929 . S
H830 C804 0.930 . S
H831 C805 0.931 . S
H832 C812 0.932 . S
H833 C813 0.930 . S
H834 C814 0.929 . S
H835 C816 0.930 . S
H836 C818 0.932 . S
H837 C819 0.929 . S
H838 C820 0.928 . S
H839 C822 0.932 . S
C840 C841 1.264 . S
C840 C845 1.479 . S
C840 C850 1.465 . S
C841 C840 1.264 . S
C841 C843 1.339 . S
C841 H868 0.931 . S
C842 C843 1.395 . S
C842 C844 1.320 . S
C843 C841 1.339 . S
C843 C842 1.395 . S
C843 H869 0.929 . S
C844 C842 1.320 . S
C844 C845 1.405 . S
C844 H870 0.930 . S
C845 C840 1.479 . S
C845 C844 1.405 . S
C845 H871 0.931 . S
U846 O847 2.454 . S
U846 O848 2.458 . S
U846 C849 2.984 . S
U846 C850 2.847 . S
U846 C863 2.882 . S
U846 O864 2.441 . S
U846 O865 2.420 . S
U846 O866 2.455 . S
U846 O867 2.449 . S
O847 U846 2.454 . S
O847 C849 1.353 . S
O848 U846 2.458 . S
O848 C849 1.286 . S
C849 U846 2.984 . S
C849 O847 1.353 . S
C849 O848 1.286 . S
C849 C851 1.363 . S
C850 C840 1.465 . S
C850 U846 2.847 . S
C850 O864 1.249 . S
C850 O865 1.202 . S
C851 C849 1.363 . S
C851 C853 1.408 . S
C851 C856 1.342 . S
C852 C853 1.310 . S
C852 C855 1.461 . S
C852 H872 0.932 . S
C853 C851 1.408 . S
C853 C852 1.310 . S
C853 H873 0.930 . S
C854 C855 1.474 . S
C854 C856 1.285 . S
C854 H874 0.929 . S
C855 C852 1.461 . S
C855 C854 1.474 . S
C856 C851 1.342 . S
C856 C854 1.285 . S
C856 H875 0.930 . S
C857 C860 1.424 . S
C857 C862 1.245 . S
C857 C863 1.428 . S
C858 C861 1.260 . S
C858 C862 1.477 . S
C858 H876 0.932 . S
C859 C860 1.384 . S
C859 C861 1.479 . S
C859 H877 0.929 . S
C860 C857 1.424 . S
C860 C859 1.384 . S
C860 H878 0.928 . S
C861 C858 1.260 . S
C861 C859 1.479 . S
C862 C857 1.245 . S
C862 C858 1.477 . S
C862 H879 0.932 . S
C863 U846 2.882 . S
C863 C857 1.428 . S
C863 O866 1.301 . S
C863 O867 1.282 . S
O864 U846 2.441 . S
O864 C850 1.249 . S
O865 U846 2.420 . S
O865 C850 1.202 . S
O866 U846 2.455 . S
O866 C863 1.301 . S
O867 U846 2.449 . S
O867 C863 1.282 . S
H868 C841 0.931 . S
H869 C843 0.929 . S
H870 C844 0.930 . S
H871 C845 0.931 . S
H872 C852 0.932 . S
H873 C853 0.930 . S
H874 C854 0.929 . S
H875 C856 0.930 . S
H876 C858 0.932 . S
H877 C859 0.929 . S
H878 C860 0.928 . S
H879 C862 0.932 . S
C880 C881 1.264 . S
C880 C885 1.479 . S
C880 C890 1.465 . S
C881 C880 1.264 . S
C881 C883 1.339 . S
C881 H908 0.931 . S
C882 C883 1.358 1_556 S
C882 C884 1.314 1_556 S
C883 C881 1.339 . S
C883 C882 1.358 1_554 S
C883 H909 0.929 . S
C884 C882 1.314 1_554 S
C884 C885 1.405 . S
C884 H910 0.930 1_554 S
C885 C880 1.479 . S
C885 C884 1.405 . S
C885 H911 0.931 . S
U886 O887 2.454 . S
U886 O888 2.458 . S
U886 C889 2.984 . S
U886 C890 2.847 . S
U886 C903 2.882 . S
U886 O904 2.441 . S
U886 O905 2.420 . S
U886 O906 2.455 . S
U886 O907 2.449 . S
O887 U886 2.454 . S
O887 C889 1.353 . S
O888 U886 2.458 . S
O888 C889 1.286 . S
C889 U886 2.984 . S
C889 O887 1.353 . S
C889 O888 1.286 . S
C889 C891 1.363 . S
C890 C880 1.465 . S
C890 U886 2.847 . S
C890 O904 1.249 . S
C890 O905 1.202 . S
C891 C889 1.363 . S
C891 C893 1.408 . S
C891 C896 1.342 . S
C892 C893 1.310 . S
C892 C895 1.461 . S
C892 H912 0.932 . S
C893 C891 1.408 . S
C893 C892 1.310 . S
C893 H913 0.930 . S
C894 C895 1.474 . S
C894 C896 1.285 . S
C894 H914 0.929 . S
C895 C892 1.461 . S
C895 C894 1.474 . S
C896 C891 1.342 . S
C896 C894 1.285 . S
C896 H915 0.930 . S
C897 C900 1.424 . S
C897 C902 1.245 . S
C897 C903 1.428 . S
C898 C901 1.260 . S
C898 C902 1.477 . S
C898 H916 0.932 . S
C899 C900 1.384 . S
C899 C901 1.479 . S
C899 H917 0.929 . S
C900 C897 1.424 . S
C900 C899 1.384 . S
C900 H918 0.928 . S
C901 C898 1.260 . S
C901 C899 1.479 . S
C902 C897 1.245 . S
C902 C898 1.477 . S
C902 H919 0.932 . S
C903 U886 2.882 . S
C903 C897 1.428 . S
C903 O906 1.301 . S
C903 O907 1.282 . S
O904 U886 2.441 . S
O904 C890 1.249 . S
O905 U886 2.420 . S
O905 C890 1.202 . S
O906 U886 2.455 . S
O906 C903 1.301 . S
O907 U886 2.449 . S
O907 C903 1.282 . S
H908 C881 0.931 . S
H909 C883 0.929 . S
H910 C884 0.930 1_556 S
H911 C885 0.931 . S
H912 C892 0.932 . S
H913 C893 0.930 . S
H914 C894 0.929 . S
H915 C896 0.930 . S
H916 C898 0.932 . S
H917 C899 0.929 . S
H918 C900 0.928 . S
H919 C902 0.932 . S
C920 C921 1.264 . S
C920 C925 1.479 1_565 S
C920 C930 1.465 1_565 S
C921 C920 1.264 . S
C921 C923 1.339 . S
C921 H948 0.931 . S
C922 C923 1.395 . S
C922 C924 1.320 1_565 S
C923 C921 1.339 . S
C923 C922 1.395 . S
C923 H949 0.929 . S
C924 C922 1.320 1_545 S
C924 C925 1.405 . S
C924 H950 0.930 . S
C925 C920 1.479 1_545 S
C925 C924 1.405 . S
C925 H951 0.931 . S
U926 O927 2.454 . S
U926 O928 2.458 . S
U926 C929 2.984 . S
U926 C930 2.847 . S
U926 C943 2.882 1_545 S
U926 O944 2.441 . S
U926 O945 2.420 1_545 S
U926 O946 2.455 1_545 S
U926 O947 2.449 1_545 S
O927 U926 2.454 . S
O927 C929 1.353 . S
O928 U926 2.458 . S
O928 C929 1.286 . S
C929 U926 2.984 . S
C929 O927 1.353 . S
C929 O928 1.286 . S
C929 C931 1.363 . S
C930 C920 1.465 1_545 S
C930 U926 2.847 . S
C930 O944 1.249 . S
C930 O945 1.202 1_545 S
C931 C929 1.363 . S
C931 C933 1.408 . S
C931 C936 1.342 . S
C932 C933 1.310 . S
C932 C935 1.461 . S
C932 H952 0.932 . S
C933 C931 1.408 . S
C933 C932 1.310 . S
C933 H953 0.930 . S
C934 C935 1.474 . S
C934 C936 1.285 . S
C934 H954 0.929 . S
C935 C932 1.461 . S
C935 C934 1.474 . S
C936 C931 1.342 . S
C936 C934 1.285 . S
C936 H955 0.930 . S
C937 C940 1.424 . S
C937 C942 1.245 . S
C937 C943 1.428 . S
C938 C941 1.260 . S
C938 C942 1.477 . S
C938 H956 0.932 . S
C939 C940 1.384 . S
C939 C941 1.479 . S
C939 H957 0.929 . S
C940 C937 1.424 . S
C940 C939 1.384 . S
C940 H958 0.928 . S
C941 C938 1.260 . S
C941 C939 1.479 . S
C942 C937 1.245 . S
C942 C938 1.477 . S
C942 H959 0.932 . S
C943 U926 2.882 1_565 S
C943 C937 1.428 . S
C943 O946 1.301 . S
C943 O947 1.282 . S
O944 U926 2.441 . S
O944 C930 1.249 . S
O945 U926 2.420 1_565 S
O945 C930 1.202 1_565 S
O946 U926 2.455 1_565 S
O946 C943 1.301 . S
O947 U926 2.449 1_565 S
O947 C943 1.282 . S
H948 C921 0.931 . S
H949 C923 0.929 . S
H950 C924 0.930 . S
H951 C925 0.931 . S
H952 C932 0.932 . S
H953 C933 0.930 . S
H954 C934 0.929 . S
H955 C936 0.930 . S
H956 C938 0.932 . S
H957 C939 0.929 . S
H958 C940 0.928 . S
H959 C942 0.932 . S
C960 C961 1.264 . S
C960 C965 1.479 . S
C960 C970 1.465 . S
C961 C960 1.264 . S
C961 C963 1.339 . S
C961 H988 0.931 . S
C962 C963 1.395 . S
C962 C964 1.320 . S
C963 C961 1.339 . S
C963 C962 1.395 . S
C963 H989 0.929 . S
C964 C962 1.320 . S
C964 C965 1.405 . S
C964 H990 0.930 . S
C965 C960 1.479 . S
C965 C964 1.405 . S
C965 H991 0.971 . S
U966 O967 2.454 . S
U966 O968 2.458 . S
U966 C969 2.984 . S
U966 C970 2.847 1_545 S
U966 C983 2.882 1_545 S
U966 O984 2.441 . S
U966 O985 2.420 1_545 S
U966 O986 2.455 1_545 S
U966 O987 2.449 1_545 S
O967 U966 2.454 . S
O967 C969 1.353 . S
O968 U966 2.458 . S
O968 C969 1.286 . S
C969 U966 2.984 . S
C969 O967 1.353 . S
C969 O968 1.286 . S
C969 C971 1.363 . S
C970 C960 1.465 . S
C970 U966 2.847 1_565 S
C970 O984 1.249 1_565 S
C970 O985 1.202 . S
C971 C969 1.363 . S
C971 C973 1.408 . S
C971 C976 1.342 . S
C972 C973 1.310 . S
C972 C975 1.461 . S
C972 H992 0.932 . S
C973 C971 1.408 . S
C973 C972 1.310 . S
C973 H993 0.930 . S
C974 C975 1.474 . S
C974 C976 1.285 . S
C974 H994 0.929 . S
C975 C972 1.461 . S
C975 C974 1.474 . S
C976 C971 1.342 . S
C976 C974 1.285 . S
C976 H995 0.930 . S
C977 C980 1.424 . S
C977 C982 1.245 . S
C977 C983 1.428 . S
C978 C981 1.260 . S
C978 C982 1.477 . S
C978 H996 0.932 . S
C979 C980 1.384 . S
C979 C981 1.479 . S
C979 H997 0.929 . S
C980 C977 1.424 . S
C980 C979 1.384 . S
C980 H998 0.928 . S
C981 C978 1.260 . S
C981 C979 1.479 . S
C982 C977 1.245 . S
C982 C978 1.477 . S
C982 H999 0.932 . S
C983 U966 2.882 1_565 S
C983 C977 1.428 . S
C983 O986 1.301 . S
C983 O987 1.282 . S
O984 U966 2.441 . S
O984 C970 1.249 1_545 S
O985 U966 2.420 1_565 S
O985 C970 1.202 . S
O986 U966 2.455 1_565 S
O986 C983 1.301 . S
O987 U966 2.449 1_565 S
O987 C983 1.282 . S
H988 C961 0.931 . S
H989 C963 0.929 . S
H990 C964 0.930 . S
H991 C965 0.971 . S
H992 C972 0.932 . S
H993 C973 0.930 . S
H994 C974 0.929 . S
H995 C976 0.930 . S
H996 C978 0.932 . S
H997 C979 0.929 . S
H998 C980 0.928 . S
H999 C982 0.932 . S
C1000 C1001 1.264 . S
C1000 C1005 1.479 . S
C1000 C1010 1.465 . S
C1001 C1000 1.264 . S
C1001 C1003 1.339 . S
C1001 H1028 0.931 . S
C1002 C1003 1.395 . S
C1002 C1004 1.320 . S
C1003 C1001 1.339 . S
C1003 C1002 1.395 . S
C1003 H1029 0.929 . S
C1004 C1002 1.320 . S
C1004 C1005 1.405 . S
C1004 H1030 0.930 . S
C1005 C1000 1.479 . S
C1005 C1004 1.405 . S
C1005 H1031 0.931 . S
U1006 O1007 2.454 . S
U1006 O1008 2.455 1_565 S
U1006 C1009 2.990 . S
U1006 C1010 2.851 . S
U1006 C1023 2.880 1_565 S
U1006 O1024 2.444 . S
U1006 O1025 2.423 . S
U1006 O1026 2.452 1_565 S
U1006 O1027 2.448 1_565 S
O1007 U1006 2.454 . S
O1007 C1009 1.370 . S
O1008 U1006 2.455 1_545 S
O1008 C1009 1.278 1_545 S
C1009 U1006 2.990 . S
C1009 O1007 1.370 . S
C1009 O1008 1.278 1_565 S
C1009 C1011 1.360 . S
C1010 C1000 1.465 . S
C1010 U1006 2.851 . S
C1010 O1024 1.249 . S
C1010 O1025 1.202 . S
C1011 C1009 1.360 . S
C1011 C1013 1.414 . S
C1011 C1016 1.332 1_565 S
C1012 C1013 1.310 . S
C1012 C1015 1.445 1_565 S
C1012 H1032 0.932 . S
C1013 C1011 1.414 . S
C1013 C1012 1.310 . S
C1013 H1033 0.930 . S
C1014 C1015 1.482 . S
C1014 C1016 1.285 . S
C1014 H1034 0.929 . S
C1015 C1012 1.445 1_545 S
C1015 C1014 1.482 . S
C1016 C1011 1.332 1_545 S
C1016 C1014 1.285 . S
C1016 H1035 0.930 . S
C1017 C1020 1.424 . S
C1017 C1022 1.245 . S
C1017 C1023 1.428 . S
C1018 C1021 1.260 . S
C1018 C1022 1.477 . S
C1018 H1036 0.932 . S
C1019 C1020 1.384 . S
C1019 C1021 1.479 . S
C1019 H1037 0.929 . S
C1020 C1017 1.424 . S
C1020 C1019 1.384 . S
C1020 H1038 0.928 . S
C1021 C1018 1.260 . S
C1021 C1019 1.479 . S
C1022 C1017 1.245 . S
C1022 C1018 1.477 . S
C1022 H1039 0.932 . S
C1023 U1006 2.880 1_545 S
C1023 C1017 1.428 . S
C1023 O1026 1.301 . S
C1023 O1027 1.282 . S
O1024 U1006 2.444 . S
O1024 C1010 1.249 . S
O1025 U1006 2.423 . S
O1025 C1010 1.202 . S
O1026 U1006 2.452 1_545 S
O1026 C1023 1.301 . S
O1027 U1006 2.448 1_545 S
O1027 C1023 1.282 . S
H1028 C1001 0.931 . S
H1029 C1003 0.929 . S
H1030 C1004 0.930 . S
H1031 C1005 0.931 . S
H1032 C1012 0.932 . S
H1033 C1013 0.930 . S
H1034 C1014 0.929 . S
H1035 C1016 0.930 . S
H1036 C1018 0.932 . S
H1037 C1019 0.929 . S
H1038 C1020 0.928 . S
H1039 C1022 0.932 . S
C1040 C1041 1.264 . S
C1040 C1045 1.479 . S
C1040 C1050 1.465 . S
C1041 C1040 1.264 . S
C1041 C1043 1.339 . S
C1041 H1068 0.931 . S
C1042 C1043 1.395 . S
C1042 C1044 1.320 . S
C1043 C1041 1.339 . S
C1043 C1042 1.395 . S
C1043 H1069 0.929 . S
C1044 C1042 1.320 . S
C1044 C1045 1.405 . S
C1044 H1070 0.930 . S
C1045 C1040 1.479 . S
C1045 C1044 1.405 . S
C1045 H1071 0.931 . S
U1046 O1047 2.479 . S
U1046 O1048 2.434 1_565 S
U1046 C1049 2.984 1_565 S
U1046 C1050 2.895 . S
U1046 C1063 2.833 1_565 S
U1046 O1064 2.497 . S
U1046 O1065 2.453 . S
U1046 O1066 2.399 1_565 S
U1046 O1067 2.417 1_565 S
O1047 U1046 2.479 . S
O1047 C1049 1.353 1_565 S
O1048 U1046 2.434 1_545 S
O1048 C1049 1.286 . S
C1049 U1046 2.984 1_545 S
C1049 O1047 1.353 1_545 S
C1049 O1048 1.286 . S
C1049 C1051 1.363 . S
C1050 C1040 1.465 . S
C1050 U1046 2.895 . S
C1050 O1064 1.249 . S
C1050 O1065 1.202 . S
C1051 C1049 1.363 . S
C1051 C1053 1.408 . S
C1051 C1056 1.342 . S
C1052 C1053 1.310 . S
C1052 C1055 1.461 . S
C1052 H1072 0.932 . S
C1053 C1051 1.408 . S
C1053 C1052 1.310 . S
C1053 H1073 0.867 1_545 S
C1054 C1055 1.474 . S
C1054 C1056 1.285 . S
C1054 H1074 0.929 . S
C1055 C1052 1.461 . S
C1055 C1054 1.474 . S
C1056 C1051 1.342 . S
C1056 C1054 1.285 . S
C1056 H1075 0.930 . S
C1057 C1060 1.424 . S
C1057 C1062 1.245 . S
C1057 C1063 1.428 . S
C1058 C1061 1.260 . S
C1058 C1062 1.477 . S
C1058 H1076 0.932 . S
C1059 C1060 1.384 . S
C1059 C1061 1.479 . S
C1059 H1077 0.929 . S
C1060 C1057 1.424 . S
C1060 C1059 1.384 . S
C1060 H1078 0.928 . S
C1061 C1058 1.260 . S
C1061 C1059 1.479 . S
C1062 C1057 1.245 . S
C1062 C1058 1.477 . S
C1062 H1079 0.932 . S
C1063 U1046 2.833 1_545 S
C1063 C1057 1.428 . S
C1063 O1066 1.301 . S
C1063 O1067 1.282 . S
O1064 U1046 2.497 . S
O1064 C1050 1.249 . S
O1065 U1046 2.453 . S
O1065 C1050 1.202 . S
O1066 U1046 2.399 1_545 S
O1066 C1063 1.301 . S
O1067 U1046 2.417 1_545 S
O1067 C1063 1.282 . S
H1068 C1041 0.931 . S
H1069 C1043 0.929 . S
H1070 C1044 0.930 . S
H1071 C1045 0.931 . S
H1072 C1052 0.932 . S
H1073 C1053 0.867 1_565 S
H1074 C1054 0.929 . S
H1075 C1056 0.930 . S
H1076 C1058 0.932 . S
H1077 C1059 0.929 . S
H1078 C1060 0.928 . S
H1079 C1062 0.932 . S
C1080 C1081 1.264 . S
C1080 C1085 1.479 . S
C1080 C1090 1.465 . S
C1081 C1080 1.264 . S
C1081 C1083 1.339 . S
C1081 H1108 0.931 . S
C1082 C1083 1.395 . S
C1082 C1084 1.320 . S
C1083 C1081 1.339 . S
C1083 C1082 1.395 . S
C1083 H1109 0.929 . S
C1084 C1082 1.320 . S
C1084 C1085 1.405 . S
C1084 H1110 0.930 . S
C1085 C1080 1.479 . S
C1085 C1084 1.405 . S
C1085 H1111 0.931 . S
U1086 O1087 2.454 1_556 S
U1086 O1088 2.458 1_556 S
U1086 C1089 2.984 1_556 S
U1086 C1090 2.847 . S
U1086 C1103 2.882 . S
U1086 O1104 2.441 . S
U1086 O1105 2.420 . S
U1086 O1106 2.455 . S
U1086 O1107 2.449 . S
O1087 U1086 2.454 1_554 S
O1087 C1089 1.353 . S
O1088 U1086 2.458 1_554 S
O1088 C1089 1.286 . S
C1089 U1086 2.984 1_554 S
C1089 O1087 1.353 . S
C1089 O1088 1.286 . S
C1089 C1091 1.363 . S
C1090 C1080 1.465 . S
C1090 U1086 2.847 . S
C1090 O1104 1.249 . S
C1090 O1105 1.202 . S
C1091 C1089 1.363 . S
C1091 C1093 1.408 . S
C1091 C1096 1.342 . S
C1092 C1093 1.310 . S
C1092 C1095 1.461 . S
C1092 H1112 0.932 . S
C1093 C1091 1.408 . S
C1093 C1092 1.310 . S
C1093 H1113 0.930 . S
C1094 C1095 1.474 . S
C1094 C1096 1.285 . S
C1094 H1114 0.929 . S
C1095 C1092 1.461 . S
C1095 C1094 1.474 . S
C1096 C1091 1.342 . S
C1096 C1094 1.285 . S
C1096 H1115 0.930 . S
C1097 C1100 1.424 . S
C1097 C1102 1.245 . S
C1097 C1103 1.428 . S
C1098 C1101 1.260 . S
C1098 C1102 1.477 . S
C1098 H1116 0.932 . S
C1099 C1100 1.384 . S
C1099 C1101 1.479 . S
C1099 H1117 0.929 . S
C1100 C1097 1.424 . S
C1100 C1099 1.384 . S
C1100 H1118 0.928 . S
C1101 C1098 1.260 . S
C1101 C1099 1.479 . S
C1102 C1097 1.245 . S
C1102 C1098 1.477 . S
C1102 H1119 0.932 . S
C1103 U1086 2.882 . S
C1103 C1097 1.428 . S
C1103 O1106 1.301 . S
C1103 O1107 1.282 . S
O1104 U1086 2.441 . S
O1104 C1090 1.249 . S
O1105 U1086 2.420 . S
O1105 C1090 1.202 . S
O1106 U1086 2.455 . S
O1106 C1103 1.301 . S
O1107 U1086 2.449 . S
O1107 C1103 1.282 . S
H1108 C1081 0.931 . S
H1109 C1083 0.929 . S
H1110 C1084 0.930 . S
H1111 C1085 0.931 . S
H1112 C1092 0.932 . S
H1113 C1093 0.930 . S
H1114 C1094 0.929 . S
H1115 C1096 0.930 . S
H1116 C1098 0.932 . S
H1117 C1099 0.929 . S
H1118 C1100 0.928 . S
H1119 C1102 0.932 . S
C1120 C1121 1.264 . S
C1120 C1125 1.479 1_455 S
C1120 C1130 1.465 . S
C1121 C1120 1.264 . S
C1121 C1123 1.274 1_455 S
C1121 H1148 0.931 . S
C1122 C1123 1.452 . S
C1122 C1124 1.320 . S
C1123 C1121 1.274 1_655 S
C1123 C1122 1.452 . S
C1123 H1149 0.940 . S
C1124 C1122 1.320 . S
C1124 C1125 1.405 . S
C1124 H1150 0.930 . S
C1125 C1120 1.479 1_655 S
C1125 C1124 1.405 . S
C1125 H1151 0.931 . S
U1126 O1127 2.454 . S
U1126 O1128 2.458 . S
U1126 C1129 2.984 . S
U1126 C1130 2.847 . S
U1126 C1143 2.882 . S
U1126 O1144 2.441 . S
U1126 O1145 2.420 . S
U1126 O1146 2.455 . S
U1126 O1147 2.449 . S
O1127 U1126 2.454 . S
O1127 C1129 1.353 . S
O1128 U1126 2.458 . S
O1128 C1129 1.286 . S
C1129 U1126 2.984 . S
C1129 O1127 1.353 . S
C1129 O1128 1.286 . S
C1129 C1131 1.363 . S
C1130 C1120 1.465 . S
C1130 U1126 2.847 . S
C1130 O1144 1.249 . S
C1130 O1145 1.202 . S
C1131 C1129 1.363 . S
C1131 C1133 1.408 . S
C1131 C1136 1.342 . S
C1132 C1133 1.310 . S
C1132 C1135 1.461 . S
C1132 H1152 0.932 . S
C1133 C1131 1.408 . S
C1133 C1132 1.310 . S
C1133 H1153 0.930 . S
C1134 C1135 1.474 . S
C1134 C1136 1.285 . S
C1134 H1154 0.929 . S
C1135 C1132 1.461 . S
C1135 C1134 1.474 . S
C1136 C1131 1.342 . S
C1136 C1134 1.285 . S
C1136 H1155 0.930 . S
C1137 C1140 1.424 . S
C1137 C1142 1.245 . S
C1137 C1143 1.428 . S
C1138 C1141 1.260 . S
C1138 C1142 1.477 . S
C1138 H1156 0.932 . S
C1139 C1140 1.384 . S
C1139 C1141 1.479 . S
C1139 H1157 0.929 . S
C1140 C1137 1.424 . S
C1140 C1139 1.384 . S
C1140 H1158 0.928 . S
C1141 C1138 1.260 . S
C1141 C1139 1.479 . S
C1142 C1137 1.245 . S
C1142 C1138 1.477 . S
C1142 H1159 0.932 . S
C1143 U1126 2.882 . S
C1143 C1137 1.428 . S
C1143 O1146 1.301 . S
C1143 O1147 1.282 . S
O1144 U1126 2.441 . S
O1144 C1130 1.249 . S
O1145 U1126 2.420 . S
O1145 C1130 1.202 . S
O1146 U1126 2.455 . S
O1146 C1143 1.301 . S
O1147 U1126 2.449 . S
O1147 C1143 1.282 . S
H1148 C1121 0.931 . S
H1149 C1123 0.940 . S
H1150 C1124 0.930 . S
H1151 C1125 0.931 . S
H1152 C1132 0.932 . S
H1153 C1133 0.930 . S
H1154 C1134 0.929 . S
H1155 C1136 0.930 . S
H1156 C1138 0.932 . S
H1157 C1139 0.929 . S
H1158 C1140 0.928 . S
H1159 C1142 0.932 . S
C1160 C1161 1.264 . S
C1160 C1165 1.479 . S
C1160 C1170 1.465 . S
C1161 C1160 1.264 . S
C1161 C1163 1.339 . S
C1161 H1188 0.931 . S
C1162 C1163 1.395 . S
C1162 C1164 1.320 . S
C1163 C1161 1.339 . S
C1163 C1162 1.395 . S
C1163 H1189 0.929 . S
C1164 C1162 1.320 . S
C1164 C1165 1.405 . S
C1164 H1190 0.930 . S
C1165 C1160 1.479 . S
C1165 C1164 1.405 . S
C1165 H1191 0.931 . S
U1166 O1167 2.454 . S
U1166 O1168 2.458 . S
U1166 C1169 2.984 . S
U1166 C1170 2.847 . S
U1166 C1183 2.882 . S
U1166 O1184 2.441 . S
U1166 O1185 2.420 . S
U1166 O1186 2.455 . S
U1166 O1187 2.449 . S
O1167 U1166 2.454 . S
O1167 C1169 1.353 . S
O1168 U1166 2.458 . S
O1168 C1169 1.286 . S
C1169 U1166 2.984 . S
C1169 O1167 1.353 . S
C1169 O1168 1.286 . S
C1169 C1171 1.363 . S
C1170 C1160 1.465 . S
C1170 U1166 2.847 . S
C1170 O1184 1.249 . S
C1170 O1185 1.202 . S
C1171 C1169 1.363 . S
C1171 C1173 1.408 . S
C1171 C1176 1.342 . S
C1172 C1173 1.310 . S
C1172 C1175 1.461 . S
C1172 H1192 0.932 . S
C1173 C1171 1.408 . S
C1173 C1172 1.310 . S
C1173 H1193 0.930 . S
C1174 C1175 1.474 . S
C1174 C1176 1.285 . S
C1174 H1194 0.929 . S
C1175 C1172 1.461 . S
C1175 C1174 1.474 . S
C1176 C1171 1.342 . S
C1176 C1174 1.285 . S
C1176 H1195 0.930 . S
C1177 C1180 1.424 . S
C1177 C1182 1.245 . S
C1177 C1183 1.428 . S
C1178 C1181 1.260 . S
C1178 C1182 1.477 . S
C1178 H1196 0.932 . S
C1179 C1180 1.384 . S
C1179 C1181 1.479 . S
C1179 H1197 0.929 . S
C1180 C1177 1.424 . S
C1180 C1179 1.384 . S
C1180 H1198 0.928 . S
C1181 C1178 1.260 . S
C1181 C1179 1.479 . S
C1182 C1177 1.245 . S
C1182 C1178 1.477 . S
C1182 H1199 0.932 . S
C1183 U1166 2.882 . S
C1183 C1177 1.428 . S
C1183 O1186 1.301 . S
C1183 O1187 1.282 . S
O1184 U1166 2.441 . S
O1184 C1170 1.249 . S
O1185 U1166 2.420 . S
O1185 C1170 1.202 . S
O1186 U1166 2.455 . S
O1186 C1183 1.301 . S
O1187 U1166 2.449 . S
O1187 C1183 1.282 . S
H1188 C1161 0.931 . S
H1189 C1163 0.929 . S
H1190 C1164 0.930 . S
H1191 C1165 0.931 . S
H1192 C1172 0.932 . S
H1193 C1173 0.930 . S
H1194 C1174 0.929 . S
H1195 C1176 0.930 . S
H1196 C1178 0.932 . S
H1197 C1179 0.929 . S
H1198 C1180 0.928 . S
H1199 C1182 0.932 . S
C1200 C1201 1.264 . S
C1200 C1205 1.479 . S
C1200 C1210 1.465 . S
C1201 C1200 1.264 . S
C1201 C1203 1.339 . S
C1201 H1228 0.931 . S
C1202 C1203 1.395 . S
C1202 C1204 1.320 . S
C1203 C1201 1.339 . S
C1203 C1202 1.395 . S
C1203 H1229 0.929 . S
C1204 C1202 1.320 . S
C1204 C1205 1.405 . S
C1204 H1230 0.930 . S
C1205 C1200 1.479 . S
C1205 C1204 1.405 . S
C1205 H1231 0.931 . S
U1206 O1207 2.454 . S
U1206 O1208 2.458 . S
U1206 C1209 2.984 . S
U1206 C1210 2.847 . S
U1206 C1223 2.882 . S
U1206 O1224 2.441 . S
U1206 O1225 2.420 . S
U1206 O1226 2.455 . S
U1206 O1227 2.449 . S
O1207 U1206 2.454 . S
O1207 C1209 1.353 . S
O1208 U1206 2.458 . S
O1208 C1209 1.286 . S
C1209 U1206 2.984 . S
C1209 O1207 1.353 . S
C1209 O1208 1.286 . S
C1209 C1211 1.363 . S
C1210 C1200 1.465 . S
C1210 U1206 2.847 . S
C1210 O1224 1.249 . S
C1210 O1225 1.202 . S
C1211 C1209 1.363 . S
C1211 C1213 1.408 . S
C1211 C1216 1.342 . S
C1212 C1213 1.310 . S
C1212 C1215 1.461 . S
C1212 H1232 0.932 . S
C1213 C1211 1.408 . S
C1213 C1212 1.310 . S
C1213 H1233 0.930 . S
C1214 C1215 1.474 . S
C1214 C1216 1.285 . S
C1214 H1234 0.929 . S
C1215 C1212 1.461 . S
C1215 C1214 1.474 . S
C1216 C1211 1.342 . S
C1216 C1214 1.285 . S
C1216 H1235 0.930 . S
C1217 C1220 1.424 . S
C1217 C1222 1.245 . S
C1217 C1223 1.428 . S
C1218 C1221 1.260 . S
C1218 C1222 1.477 . S
C1218 H1236 0.932 . S
C1219 C1220 1.384 . S
C1219 C1221 1.479 . S
C1219 H1237 0.929 . S
C1220 C1217 1.424 . S
C1220 C1219 1.384 . S
C1220 H1238 0.928 . S
C1221 C1218 1.260 . S
C1221 C1219 1.479 . S
C1222 C1217 1.245 . S
C1222 C1218 1.477 . S
C1222 H1239 0.932 . S
C1223 U1206 2.882 . S
C1223 C1217 1.428 . S
C1223 O1226 1.301 . S
C1223 O1227 1.282 . S
O1224 U1206 2.441 . S
O1224 C1210 1.249 . S
O1225 U1206 2.420 . S
O1225 C1210 1.202 . S
O1226 U1206 2.455 . S
O1226 C1223 1.301 . S
O1227 U1206 2.449 . S
O1227 C1223 1.282 . S
H1228 C1201 0.931 . S
H1229 C1203 0.929 . S
H1230 C1204 0.930 . S
H1231 C1205 0.931 . S
H1232 C1212 0.932 . S
H1233 C1213 0.930 . S
H1234 C1214 0.929 . S
H1235 C1216 0.930 . S
H1236 C1218 0.932 . S
H1237 C1219 0.929 . S
H1238 C1220 0.928 . S
H1239 C1222 0.932 . S
C1240 C1241 1.264 . S
C1240 C1245 1.479 . S
C1240 C1250 1.465 . S
C1241 C1240 1.264 . S
C1241 C1243 1.339 . S
C1241 H1268 0.931 . S
C1242 C1243 1.395 . S
C1242 C1244 1.320 . S
C1243 C1241 1.339 . S
C1243 C1242 1.395 . S
C1243 H1269 0.929 . S
C1244 C1242 1.320 . S
C1244 C1245 1.405 . S
C1244 H1270 0.930 . S
C1245 C1240 1.479 . S
C1245 C1244 1.405 . S
C1245 H1271 0.931 . S
U1246 O1247 2.454 1_655 S
U1246 O1248 2.458 1_655 S
U1246 C1249 2.984 1_655 S
U1246 C1250 2.847 . S
U1246 C1263 2.882 . S
U1246 O1264 2.441 . S
U1246 O1265 2.420 . S
U1246 O1266 2.455 . S
U1246 O1267 2.449 . S
O1247 U1246 2.454 1_455 S
O1247 C1249 1.353 . S
O1248 U1246 2.458 1_455 S
O1248 C1249 1.286 . S
C1249 U1246 2.984 1_455 S
C1249 O1247 1.353 . S
C1249 O1248 1.286 . S
C1249 C1251 1.363 . S
C1250 C1240 1.465 . S
C1250 U1246 2.847 . S
C1250 O1264 1.249 . S
C1250 O1265 1.202 . S
C1251 C1249 1.363 . S
C1251 C1253 1.408 . S
C1251 C1256 1.342 . S
C1252 C1253 1.310 . S
C1252 C1255 1.461 . S
C1252 H1272 0.932 . S
C1253 C1251 1.408 . S
C1253 C1252 1.310 . S
C1253 H1273 0.930 . S
C1254 C1255 1.474 . S
C1254 C1256 1.285 . S
C1254 H1274 0.929 . S
C1255 C1252 1.461 . S
C1255 C1254 1.474 . S
C1256 C1251 1.342 . S
C1256 C1254 1.285 . S
C1256 H1275 0.930 . S
C1257 C1260 1.424 . S
C1257 C1262 1.245 . S
C1257 C1263 1.428 . S
C1258 C1261 1.260 . S
C1258 C1262 1.477 . S
C1258 H1276 0.932 . S
C1259 C1260 1.384 . S
C1259 C1261 1.479 . S
C1259 H1277 0.929 . S
C1260 C1257 1.424 . S
C1260 C1259 1.384 . S
C1260 H1278 0.928 . S
C1261 C1258 1.260 . S
C1261 C1259 1.479 . S
C1262 C1257 1.245 . S
C1262 C1258 1.477 . S
C1262 H1279 0.932 . S
C1263 U1246 2.882 . S
C1263 C1257 1.428 . S
C1263 O1266 1.301 . S
C1263 O1267 1.282 . S
O1264 U1246 2.441 . S
O1264 C1250 1.249 . S
O1265 U1246 2.420 . S
O1265 C1250 1.202 . S
O1266 U1246 2.455 . S
O1266 C1263 1.301 . S
O1267 U1246 2.449 . S
O1267 C1263 1.282 . S
H1268 C1241 0.931 . S
H1269 C1243 0.929 . S
H1270 C1244 0.930 . S
H1271 C1245 0.931 . S
H1272 C1252 0.932 . S
H1273 C1253 0.930 . S
H1274 C1254 0.929 . S
H1275 C1256 0.930 . S
H1276 C1258 0.932 . S
H1277 C1259 0.929 . S
H1278 C1260 0.928 . S
H1279 C1262 0.932 . S
C1280 C1281 1.264 . S
C1280 C1285 1.479 . S
C1280 C1290 1.465 . S
C1281 C1280 1.264 . S
C1281 C1283 1.339 . S
C1281 H1308 0.931 . S
C1282 C1283 1.395 . S
C1282 C1284 1.320 . S
C1283 C1281 1.339 . S
C1283 C1282 1.395 . S
C1283 H1309 0.929 . S
C1284 C1282 1.320 . S
C1284 C1285 1.405 . S
C1284 H1310 0.930 . S
C1285 C1280 1.479 . S
C1285 C1284 1.405 . S
C1285 H1311 0.931 . S
U1286 O1287 2.454 . S
U1286 O1288 2.458 . S
U1286 C1289 2.984 . S
U1286 C1290 2.847 . S
U1286 C1303 2.882 . S
U1286 O1304 2.441 . S
U1286 O1305 2.420 . S
U1286 O1306 2.455 . S
U1286 O1307 2.449 . S
O1287 U1286 2.454 . S
O1287 C1289 1.353 . S
O1288 U1286 2.458 . S
O1288 C1289 1.286 . S
C1289 U1286 2.984 . S
C1289 O1287 1.353 . S
C1289 O1288 1.286 . S
C1289 C1291 1.363 . S
C1290 C1280 1.465 . S
C1290 U1286 2.847 . S
C1290 O1304 1.249 . S
C1290 O1305 1.202 . S
C1291 C1289 1.363 . S
C1291 C1293 1.408 . S
C1291 C1296 1.342 . S
C1292 C1293 1.310 . S
C1292 C1295 1.461 . S
C1292 H1312 0.932 . S
C1293 C1291 1.408 . S
C1293 C1292 1.310 . S
C1293 H1313 0.930 . S
C1294 C1295 1.474 . S
C1294 C1296 1.285 . S
C1294 H1314 0.929 . S
C1295 C1292 1.461 . S
C1295 C1294 1.474 . S
C1296 C1291 1.342 . S
C1296 C1294 1.285 . S
C1296 H1315 0.930 . S
C1297 C1300 1.424 . S
C1297 C1302 1.245 . S
C1297 C1303 1.428 . S
C1298 C1301 1.260 . S
C1298 C1302 1.477 . S
C1298 H1316 0.932 . S
C1299 C1300 1.384 . S
C1299 C1301 1.479 . S
C1299 H1317 0.929 . S
C1300 C1297 1.424 . S
C1300 C1299 1.384 . S
C1300 H1318 0.928 . S
C1301 C1298 1.260 . S
C1301 C1299 1.479 . S
C1302 C1297 1.245 . S
C1302 C1298 1.477 . S
C1302 H1319 0.932 . S
C1303 U1286 2.882 . S
C1303 C1297 1.428 . S
C1303 O1306 1.301 . S
C1303 O1307 1.282 . S
O1304 U1286 2.441 . S
O1304 C1290 1.249 . S
O1305 U1286 2.420 . S
O1305 C1290 1.202 . S
O1306 U1286 2.455 . S
O1306 C1303 1.301 . S
O1307 U1286 2.449 . S
O1307 C1303 1.282 . S
H1308 C1281 0.931 . S
H1309 C1283 0.929 . S
H1310 C1284 0.930 . S
H1311 C1285 0.931 . S
H1312 C1292 0.932 . S
H1313 C1293 0.930 . S
H1314 C1294 0.929 . S
H1315 C1296 0.930 . S
H1316 C1298 0.932 . S
H1317 C1299 0.929 . S
H1318 C1300 0.928 . S
H1319 C1302 0.932 . S
C1320 C1321 1.264 . S
C1320 C1325 1.479 . S
C1320 C1330 1.465 . S
C1321 C1320 1.264 . S
C1321 C1323 1.339 . S
C1321 H1348 0.931 . S
C1322 C1323 1.395 . S
C1322 C1324 1.320 . S
C1323 C1321 1.339 . S
C1323 C1322 1.395 . S
C1323 H1349 0.929 . S
C1324 C1322 1.320 . S
C1324 C1325 1.405 . S
C1324 H1350 0.930 . S
C1325 C1320 1.479 . S
C1325 C1324 1.405 . S
C1325 H1351 0.931 . S
U1326 O1327 2.395 1_556 S
U1326 O1328 2.458 . S
U1326 C1329 2.984 1_556 S
U1326 C1330 2.847 . S
U1326 C1343 2.882 . S
U1326 O1344 2.441 . S
U1326 O1345 2.420 . S
U1326 O1346 2.455 . S
U1326 O1347 2.449 . S
O1327 U1326 2.395 1_554 S
O1327 C1329 1.378 . S
O1328 U1326 2.458 . S
O1328 C1329 1.286 1_556 S
C1329 U1326 2.984 1_554 S
C1329 O1327 1.378 . S
C1329 O1328 1.286 1_554 S
C1329 C1331 1.363 . S
C1330 C1320 1.465 . S
C1330 U1326 2.847 . S
C1330 O1344 1.249 . S
C1330 O1345 1.202 . S
C1331 C1329 1.363 . S
C1331 C1333 1.408 . S
C1331 C1336 1.342 . S
C1332 C1333 1.310 . S
C1332 C1335 1.461 . S
C1332 H1352 0.932 . S
C1333 C1331 1.408 . S
C1333 C1332 1.310 . S
C1333 H1353 0.930 . S
C1334 C1335 1.474 . S
C1334 C1336 1.285 . S
C1334 H1354 0.929 . S
C1335 C1332 1.461 . S
C1335 C1334 1.474 . S
C1336 C1331 1.342 . S
C1336 C1334 1.285 . S
C1336 H1355 0.930 . S
C1337 C1340 1.424 . S
C1337 C1342 1.245 . S
C1337 C1343 1.428 . S
C1338 C1341 1.260 . S
C1338 C1342 1.477 . S
C1338 H1356 0.932 . S
C1339 C1340 1.384 . S
C1339 C1341 1.479 . S
C1339 H1357 0.929 . S
C1340 C1337 1.424 . S
C1340 C1339 1.384 . S
C1340 H1358 0.928 . S
C1341 C1338 1.260 . S
C1341 C1339 1.479 . S
C1342 C1337 1.245 . S
C1342 C1338 1.477 . S
C1342 H1359 0.932 . S
C1343 U1326 2.882 . S
C1343 C1337 1.428 . S
C1343 O1346 1.301 . S
C1343 O1347 1.282 . S
O1344 U1326 2.441 . S
O1344 C1330 1.249 . S
O1345 U1326 2.420 . S
O1345 C1330 1.202 . S
O1346 U1326 2.455 . S
O1346 C1343 1.301 . S
O1347 U1326 2.449 . S
O1347 C1343 1.282 . S
H1348 C1321 0.931 . S
H1349 C1323 0.929 . S
H1350 C1324 0.930 . S
H1351 C1325 0.931 . S
H1352 C1332 0.932 . S
H1353 C1333 0.930 . S
H1354 C1334 0.929 . S
H1355 C1336 0.930 . S
H1356 C1338 0.932 . S
H1357 C1339 0.929 . S
H1358 C1340 0.928 . S
H1359 C1342 0.932 . S
C1360 C1361 1.264 . S
C1360 C1365 1.479 . S
C1360 C1370 1.465 . S
C1361 C1360 1.264 . S
C1361 C1363 1.339 . S
C1361 H1388 0.931 . S
C1362 C1363 1.395 . S
C1362 C1364 1.320 . S
C1363 C1361 1.339 . S
C1363 C1362 1.395 . S
C1363 H1389 0.929 . S
C1364 C1362 1.320 . S
C1364 C1365 1.405 . S
C1364 H1390 0.930 . S
C1365 C1360 1.479 . S
C1365 C1364 1.405 . S
C1365 H1391 0.931 . S
U1366 O1367 2.454 . S
U1366 O1368 2.458 . S
U1366 C1369 2.984 . S
U1366 C1370 2.847 . S
U1366 C1383 2.882 . S
U1366 O1384 2.441 . S
U1366 O1385 2.420 . S
U1366 O1386 2.455 . S
U1366 O1387 2.449 . S
O1367 U1366 2.454 . S
O1367 C1369 1.353 . S
O1368 U1366 2.458 . S
O1368 C1369 1.286 . S
C1369 U1366 2.984 . S
C1369 O1367 1.353 . S
C1369 O1368 1.286 . S
C1369 C1371 1.363 . S
C1370 C1360 1.465 . S
C1370 U1366 2.847 . S
C1370 O1384 1.249 . S
C1370 O1385 1.202 . S
C1371 C1369 1.363 . S
C1371 C1373 1.408 . S
C1371 C1376 1.342 . S
C1372 C1373 1.310 . S
C1372 C1375 1.461 . S
C1372 H1392 0.932 . S
C1373 C1371 1.408 . S
C1373 C1372 1.310 . S
C1373 H1393 0.930 . S
C1374 C1375 1.474 . S
C1374 C1376 1.285 . S
C1374 H1394 0.929 . S
C1375 C1372 1.461 . S
C1375 C1374 1.474 . S
C1376 C1371 1.342 . S
C1376 C1374 1.285 . S
C1376 H1395 0.930 . S
C1377 C1380 1.424 . S
C1377 C1382 1.245 . S
C1377 C1383 1.428 . S
C1378 C1381 1.260 . S
C1378 C1382 1.477 . S
C1378 H1396 0.932 . S
C1379 C1380 1.384 . S
C1379 C1381 1.479 . S
C1379 H1397 0.929 . S
C1380 C1377 1.424 . S
C1380 C1379 1.384 . S
C1380 H1398 0.928 . S
C1381 C1378 1.260 . S
C1381 C1379 1.479 . S
C1382 C1377 1.245 . S
C1382 C1378 1.477 . S
C1382 H1399 0.932 . S
C1383 U1366 2.882 . S
C1383 C1377 1.428 . S
C1383 O1386 1.301 . S
C1383 O1387 1.282 . S
O1384 U1366 2.441 . S
O1384 C1370 1.249 . S
O1385 U1366 2.420 . S
O1385 C1370 1.202 . S
O1386 U1366 2.455 . S
O1386 C1383 1.301 . S
O1387 U1366 2.449 . S
O1387 C1383 1.282 . S
H1388 C1361 0.931 . S
H1389 C1363 0.929 . S
H1390 C1364 0.930 . S
H1391 C1365 0.931 . S
H1392 C1372 0.932 . S
H1393 C1373 0.930 . S
H1394 C1374 0.929 . S
H1395 C1376 0.930 . S
H1396 C1378 0.932 . S
H1397 C1379 0.929 . S
H1398 C1380 0.928 . S
H1399 C1382 0.932 . S
C1400 C1401 1.264 . S
C1400 C1405 1.479 . S
C1400 C1410 1.465 . S
C1401 C1400 1.264 . S
C1401 C1403 1.339 . S
C1401 H1428 0.931 . S
C1402 C1403 1.395 . S
C1402 C1404 1.320 . S
C1403 C1401 1.339 . S
C1403 C1402 1.395 . S
C1403 H1429 0.929 . S
C1404 C1402 1.320 . S
C1404 C1405 1.405 . S
C1404 H1430 0.930 . S
C1405 C1400 1.479 . S
C1405 C1404 1.405 . S
C1405 H1431 0.931 . S
U1406 O1407 2.454 . S
U1406 O1408 2.458 . S
U1406 C1409 2.984 . S
U1406 C1410 2.847 . S
U1406 C1423 2.882 . S
U1406 O1424 2.441 . S
U1406 O1425 2.420 . S
U1406 O1426 2.455 . S
U1406 O1427 2.449 . S
O1407 U1406 2.454 . S
O1407 C1409 1.353 . S
O1408 U1406 2.458 . S
O1408 C1409 1.286 . S
C1409 U1406 2.984 . S
C1409 O1407 1.353 . S
C1409 O1408 1.286 . S
C1409 C1411 1.363 . S
C1410 C1400 1.465 . S
C1410 U1406 2.847 . S
C1410 O1424 1.249 . S
C1410 O1425 1.202 . S
C1411 C1409 1.363 . S
C1411 C1413 1.408 . S
C1411 C1416 1.342 . S
C1412 C1413 1.310 . S
C1412 C1415 1.461 . S
C1412 H1432 0.932 . S
C1413 C1411 1.408 . S
C1413 C1412 1.310 . S
C1413 H1433 0.930 . S
C1414 C1415 1.474 . S
C1414 C1416 1.285 . S
C1414 H1434 0.929 . S
C1415 C1412 1.461 . S
C1415 C1414 1.474 . S
C1416 C1411 1.342 . S
C1416 C1414 1.285 . S
C1416 H1435 0.930 . S
C1417 C1420 1.424 . S
C1417 C1422 1.245 . S
C1417 C1423 1.428 . S
C1418 C1421 1.260 . S
C1418 C1422 1.477 . S
C1418 H1436 0.932 . S
C1419 C1420 1.384 . S
C1419 C1421 1.479 . S
C1419 H1437 0.929 . S
C1420 C1417 1.424 . S
C1420 C1419 1.384 . S
C1420 H1438 0.928 . S
C1421 C1418 1.260 . S
C1421 C1419 1.479 . S
C1422 C1417 1.245 . S
C1422 C1418 1.477 . S
C1422 H1439 0.932 . S
C1423 U1406 2.882 . S
C1423 C1417 1.428 . S
C1423 O1426 1.301 . S
C1423 O1427 1.282 . S
O1424 U1406 2.441 . S
O1424 C1410 1.249 . S
O1425 U1406 2.420 . S
O1425 C1410 1.202 . S
O1426 U1406 2.455 . S
O1426 C1423 1.301 . S
O1427 U1406 2.449 . S
O1427 C1423 1.282 . S
H1428 C1401 0.931 . S
H1429 C1403 0.929 . S
H1430 C1404 0.930 . S
H1431 C1405 0.931 . S
H1432 C1412 0.932 . S
H1433 C1413 0.930 . S
H1434 C1414 0.929 . S
H1435 C1416 0.930 . S
H1436 C1418 0.932 . S
H1437 C1419 0.929 . S
H1438 C1420 0.928 . S
H1439 C1422 0.932 . S
C1440 C1441 1.264 . S
C1440 C1445 1.479 . S
C1440 C1450 1.465 . S
C1441 C1440 1.264 . S
C1441 C1443 1.339 . S
C1441 H1468 0.931 . S
C1442 C1443 1.395 . S
C1442 C1444 1.320 . S
C1443 C1441 1.339 . S
C1443 C1442 1.395 . S
C1443 H1469 0.929 . S
C1444 C1442 1.320 . S
C1444 C1445 1.405 . S
C1444 H1470 0.930 . S
C1445 C1440 1.479 . S
C1445 C1444 1.405 . S
C1445 H1471 0.931 . S
U1446 O1447 2.454 . S
U1446 O1448 2.458 . S
U1446 C1449 2.984 . S
U1446 C1450 2.847 . S
U1446 C1463 2.882 . S
U1446 O1464 2.441 . S
U1446 O1465 2.420 . S
U1446 O1466 2.455 . S
U1446 O1467 2.449 . S
O1447 U1446 2.454 . S
O1447 C1449 1.353 . S
O1448 U1446 2.458 . S
O1448 C1449 1.286 . S
C1449 U1446 2.984 . S
C1449 O1447 1.353 . S
C1449 O1448 1.286 . S
C1449 C1451 1.363 . S
C1450 C1440 1.465 . S
C1450 U1446 2.847 . S
C1450 O1464 1.249 . S
C1450 O1465 1.202 . S
C1451 C1449 1.363 . S
C1451 C1453 1.408 . S
C1451 C1456 1.342 . S
C1452 C1453 1.310 . S
C1452 C1455 1.461 . S
C1452 H1472 0.932 . S
C1453 C1451 1.408 . S
C1453 C1452 1.310 . S
C1453 H1473 0.930 . S
C1454 C1455 1.474 . S
C1454 C1456 1.285 . S
C1454 H1474 0.929 . S
C1455 C1452 1.461 . S
C1455 C1454 1.474 . S
C1456 C1451 1.342 . S
C1456 C1454 1.285 . S
C1456 H1475 0.930 . S
C1457 C1460 1.424 . S
C1457 C1462 1.245 . S
C1457 C1463 1.428 . S
C1458 C1461 1.260 . S
C1458 C1462 1.477 . S
C1458 H1476 0.932 . S
C1459 C1460 1.384 . S
C1459 C1461 1.479 . S
C1459 H1477 0.929 . S
C1460 C1457 1.424 . S
C1460 C1459 1.384 . S
C1460 H1478 0.928 . S
C1461 C1458 1.260 . S
C1461 C1459 1.479 . S
C1462 C1457 1.245 . S
C1462 C1458 1.477 . S
C1462 H1479 0.932 . S
C1463 U1446 2.882 . S
C1463 C1457 1.428 . S
C1463 O1466 1.301 . S
C1463 O1467 1.282 . S
O1464 U1446 2.441 . S
O1464 C1450 1.249 . S
O1465 U1446 2.420 . S
O1465 C1450 1.202 . S
O1466 U1446 2.455 . S
O1466 C1463 1.301 . S
O1467 U1446 2.449 . S
O1467 C1463 1.282 . S
H1468 C1441 0.931 . S
H1469 C1443 0.929 . S
H1470 C1444 0.930 . S
H1471 C1445 0.931 . S
H1472 C1452 0.932 . S
H1473 C1453 0.930 . S
H1474 C1454 0.929 . S
H1475 C1456 0.930 . S
H1476 C1458 0.932 . S
H1477 C1459 0.929 . S
H1478 C1460 0.928 . S
H1479 C1462 0.932 . S
C1480 C1481 1.264 . S
C1480 C1485 1.479 . S
C1480 C1490 1.465 . S
C1481 C1480 1.264 . S
C1481 C1483 1.339 . S
C1481 H1508 0.931 . S
C1482 C1483 1.395 . S
C1482 C1484 1.320 . S
C1483 C1481 1.339 . S
C1483 C1482 1.395 . S
C1483 H1509 0.929 . S
C1484 C1482 1.320 . S
C1484 C1485 1.405 . S
C1484 H1510 0.930 . S
C1485 C1480 1.479 . S
C1485 C1484 1.405 . S
C1485 H1511 0.931 . S
U1486 O1487 2.454 . S
U1486 O1488 2.458 . S
U1486 C1489 2.984 . S
U1486 C1490 2.847 . S
U1486 C1503 2.882 . S
U1486 O1504 2.441 . S
U1486 O1505 2.420 . S
U1486 O1506 2.455 . S
U1486 O1507 2.449 . S
O1487 U1486 2.454 . S
O1487 C1489 1.353 . S
O1488 U1486 2.458 . S
O1488 C1489 1.286 . S
C1489 U1486 2.984 . S
C1489 O1487 1.353 . S
C1489 O1488 1.286 . S
C1489 C1491 1.363 . S
C1490 C1480 1.465 . S
C1490 U1486 2.847 . S
C1490 O1504 1.249 . S
C1490 O1505 1.202 . S
C1491 C1489 1.363 . S
C1491 C1493 1.408 . S
C1491 C1496 1.342 . S
C1492 C1493 1.310 . S
C1492 C1495 1.461 . S
C1492 H1512 0.932 . S
C1493 C1491 1.408 . S
C1493 C1492 1.310 . S
C1493 H1513 0.930 . S
C1494 C1495 1.474 . S
C1494 C1496 1.285 . S
C1494 H1514 0.929 . S
C1495 C1492 1.461 . S
C1495 C1494 1.474 . S
C1496 C1491 1.342 . S
C1496 C1494 1.285 . S
C1496 H1515 0.930 . S
C1497 C1500 1.424 . S
C1497 C1502 1.245 . S
C1497 C1503 1.428 . S
C1498 C1501 1.260 . S
C1498 C1502 1.477 . S
C1498 H1516 0.932 . S
C1499 C1500 1.384 . S
C1499 C1501 1.479 . S
C1499 H1517 0.929 . S
C1500 C1497 1.424 . S
C1500 C1499 1.384 . S
C1500 H1518 0.928 . S
C1501 C1498 1.260 . S
C1501 C1499 1.479 . S
C1502 C1497 1.245 . S
C1502 C1498 1.477 . S
C1502 H1519 0.932 . S
C1503 U1486 2.882 . S
C1503 C1497 1.428 . S
C1503 O1506 1.301 . S
C1503 O1507 1.282 . S
O1504 U1486 2.441 . S
O1504 C1490 1.249 . S
O1505 U1486 2.420 . S
O1505 C1490 1.202 . S
O1506 U1486 2.455 . S
O1506 C1503 1.301 . S
O1507 U1486 2.449 . S
O1507 C1503 1.282 . S
H1508 C1481 0.931 . S
H1509 C1483 0.929 . S
H1510 C1484 0.930 . S
H1511 C1485 0.931 . S
H1512 C1492 0.932 . S
H1513 C1493 0.930 . S
H1514 C1494 0.929 . S
H1515 C1496 0.930 . S
H1516 C1498 0.932 . S
H1517 C1499 0.929 . S
H1518 C1500 0.928 . S
H1519 C1502 0.932 . S
C1520 C1521 1.264 . S
C1520 C1525 1.479 . S
C1520 C1530 1.465 . S
C1521 C1520 1.264 . S
C1521 C1523 1.339 . S
C1521 H1548 0.931 . S
C1522 C1523 1.395 . S
C1522 C1524 1.320 . S
C1523 C1521 1.339 . S
C1523 C1522 1.395 . S
C1523 H1549 0.929 . S
C1524 C1522 1.320 . S
C1524 C1525 1.405 . S
C1524 H1550 0.930 . S
C1525 C1520 1.479 . S
C1525 C1524 1.405 . S
C1525 H1551 0.931 . S
U1526 O1527 2.454 . S
U1526 O1528 2.458 . S
U1526 C1529 2.984 . S
U1526 C1530 2.847 . S
U1526 C1543 2.882 . S
U1526 O1544 2.441 . S
U1526 O1545 2.420 . S
U1526 O1546 2.455 . S
U1526 O1547 2.449 . S
O1527 U1526 2.454 . S
O1527 C1529 1.353 . S
O1528 U1526 2.458 . S
O1528 C1529 1.286 . S
C1529 U1526 2.984 . S
C1529 O1527 1.353 . S
C1529 O1528 1.286 . S
C1529 C1531 1.363 . S
C1530 C1520 1.465 . S
C1530 U1526 2.847 . S
C1530 O1544 1.249 . S
C1530 O1545 1.202 . S
C1531 C1529 1.363 . S
C1531 C1533 1.408 . S
C1531 C1536 1.342 . S
C1532 C1533 1.310 . S
C1532 C1535 1.461 . S
C1532 H1552 0.932 . S
C1533 C1531 1.408 . S
C1533 C1532 1.310 . S
C1533 H1553 0.930 . S
C1534 C1535 1.474 . S
C1534 C1536 1.285 . S
C1534 H1554 0.929 . S
C1535 C1532 1.461 . S
C1535 C1534 1.474 . S
C1536 C1531 1.342 . S
C1536 C1534 1.285 . S
C1536 H1555 0.930 . S
C1537 C1540 1.424 . S
C1537 C1542 1.245 . S
C1537 C1543 1.428 . S
C1538 C1541 1.260 . S
C1538 C1542 1.477 . S
C1538 H1556 0.932 . S
C1539 C1540 1.384 . S
C1539 C1541 1.479 . S
C1539 H1557 0.929 . S
C1540 C1537 1.424 . S
C1540 C1539 1.384 . S
C1540 H1558 0.928 . S
C1541 C1538 1.260 . S
C1541 C1539 1.479 . S
C1542 C1537 1.245 . S
C1542 C1538 1.477 . S
C1542 H1559 0.932 . S
C1543 U1526 2.882 . S
C1543 C1537 1.428 . S
C1543 O1546 1.301 . S
C1543 O1547 1.282 . S
O1544 U1526 2.441 . S
O1544 C1530 1.249 . S
O1545 U1526 2.420 . S
O1545 C1530 1.202 . S
O1546 U1526 2.455 . S
O1546 C1543 1.301 . S
O1547 U1526 2.449 . S
O1547 C1543 1.282 . S
H1548 C1521 0.931 . S
H1549 C1523 0.929 . S
H1550 C1524 0.930 . S
H1551 C1525 0.931 . S
H1552 C1532 0.932 . S
H1553 C1533 0.930 . S
H1554 C1534 0.929 . S
H1555 C1536 0.930 . S
H1556 C1538 0.932 . S
H1557 C1539 0.929 . S
H1558 C1540 0.928 . S
H1559 C1542 0.932 . S
C1560 C1561 1.264 . S
C1560 C1565 1.479 . S
C1560 C1570 1.465 . S
C1561 C1560 1.264 . S
C1561 C1563 1.339 . S
C1561 H1588 0.931 . S
C1562 C1563 1.395 . S
C1562 C1564 1.320 . S
C1563 C1561 1.339 . S
C1563 C1562 1.395 . S
C1563 H1589 0.929 . S
C1564 C1562 1.320 . S
C1564 C1565 1.405 . S
C1564 H1590 0.930 . S
C1565 C1560 1.479 . S
C1565 C1564 1.405 . S
C1565 H1591 0.931 . S
U1566 O1567 2.454 . S
U1566 O1568 2.458 . S
U1566 C1569 2.984 . S
U1566 C1570 2.847 . S
U1566 C1583 2.882 . S
U1566 O1584 2.441 . S
U1566 O1585 2.420 . S
U1566 O1586 2.455 . S
U1566 O1587 2.449 . S
O1567 U1566 2.454 . S
O1567 C1569 1.353 . S
O1568 U1566 2.458 . S
O1568 C1569 1.286 . S
C1569 U1566 2.984 . S
C1569 O1567 1.353 . S
C1569 O1568 1.286 . S
C1569 C1571 1.363 . S
C1570 C1560 1.465 . S
C1570 U1566 2.847 . S
C1570 O1584 1.249 . S
C1570 O1585 1.202 . S
C1571 C1569 1.363 . S
C1571 C1573 1.408 . S
C1571 C1576 1.342 . S
C1572 C1573 1.310 . S
C1572 C1575 1.461 . S
C1572 H1592 0.932 . S
C1573 C1571 1.408 . S
C1573 C1572 1.310 . S
C1573 H1593 0.930 . S
C1574 C1575 1.474 . S
C1574 C1576 1.285 . S
C1574 H1594 0.929 . S
C1575 C1572 1.461 . S
C1575 C1574 1.474 . S
C1576 C1571 1.342 . S
C1576 C1574 1.285 . S
C1576 H1595 0.930 . S
C1577 C1580 1.424 . S
C1577 C1582 1.245 . S
C1577 C1583 1.428 . S
C1578 C1581 1.260 . S
C1578 C1582 1.477 . S
C1578 H1596 0.932 . S
C1579 C1580 1.384 . S
C1579 C1581 1.479 . S
C1579 H1597 0.929 . S
C1580 C1577 1.424 . S
C1580 C1579 1.384 . S
C1580 H1598 0.928 . S
C1581 C1578 1.260 . S
C1581 C1579 1.479 . S
C1582 C1577 1.245 . S
C1582 C1578 1.477 . S
C1582 H1599 0.932 . S
C1583 U1566 2.882 . S
C1583 C1577 1.428 . S
C1583 O1586 1.301 . S
C1583 O1587 1.282 . S
O1584 U1566 2.441 . S
O1584 C1570 1.249 . S
O1585 U1566 2.420 . S
O1585 C1570 1.202 . S
O1586 U1566 2.455 . S
O1586 C1583 1.301 . S
O1587 U1566 2.449 . S
O1587 C1583 1.282 . S
H1588 C1561 0.931 . S
H1589 C1563 0.929 . S
H1590 C1564 0.930 . S
H1591 C1565 0.931 . S
H1592 C1572 0.932 . S
H1593 C1573 0.930 . S
H1594 C1574 0.929 . S
H1595 C1576 0.930 . S
H1596 C1578 0.932 . S
H1597 C1579 0.929 . S
H1598 C1580 0.928 . S
H1599 C1582 0.932 . S
C1600 C1601 1.264 . S
C1600 C1605 1.479 . S
C1600 C1610 1.465 . S
C1601 C1600 1.264 . S
C1601 C1603 1.339 . S
C1601 H1628 0.931 . S
C1602 C1603 1.395 . S
C1602 C1604 1.320 . S
C1603 C1601 1.339 . S
C1603 C1602 1.395 . S
C1603 H1629 0.929 . S
C1604 C1602 1.320 . S
C1604 C1605 1.405 . S
C1604 H1630 0.930 . S
C1605 C1600 1.479 . S
C1605 C1604 1.405 . S
C1605 H1631 0.931 . S
U1606 O1607 2.454 . S
U1606 O1608 2.458 . S
U1606 C1609 2.984 . S
U1606 C1610 2.847 1_455 S
U1606 C1623 2.882 . S
U1606 O1624 2.441 1_455 S
U1606 O1625 2.420 1_455 S
U1606 O1626 2.455 . S
U1606 O1627 2.449 . S
O1607 U1606 2.454 . S
O1607 C1609 1.353 . S
O1608 U1606 2.458 . S
O1608 C1609 1.286 . S
C1609 U1606 2.984 . S
C1609 O1607 1.353 . S
C1609 O1608 1.286 . S
C1609 C1611 1.363 . S
C1610 C1600 1.465 . S
C1610 U1606 2.847 1_655 S
C1610 O1624 1.249 . S
C1610 O1625 1.202 . S
C1611 C1609 1.363 . S
C1611 C1613 1.408 . S
C1611 C1616 1.342 . S
C1612 C1613 1.310 . S
C1612 C1615 1.461 . S
C1612 H1632 0.932 . S
C1613 C1611 1.408 . S
C1613 C1612 1.310 . S
C1613 H1633 0.930 . S
C1614 C1615 1.474 . S
C1614 C1616 1.285 . S
C1614 H1634 0.929 . S
C1615 C1612 1.461 . S
C1615 C1614 1.474 . S
C1616 C1611 1.342 . S
C1616 C1614 1.285 . S
C1616 H1635 0.930 . S
C1617 C1620 1.424 . S
C1617 C1622 1.245 . S
C1617 C1623 1.428 . S
C1618 C1621 1.260 . S
C1618 C1622 1.477 . S
C1618 H1636 0.932 . S
C1619 C1620 1.384 . S
C1619 C1621 1.479 . S
C1619 H1637 0.929 . S
C1620 C1617 1.424 . S
C1620 C1619 1.384 . S
C1620 H1638 0.928 . S
C1621 C1618 1.260 . S
C1621 C1619 1.479 . S
C1622 C1617 1.245 . S
C1622 C1618 1.477 . S
C1622 H1639 0.932 . S
C1623 U1606 2.882 . S
C1623 C1617 1.428 . S
C1623 O1626 1.301 . S
C1623 O1627 1.282 . S
O1624 U1606 2.441 1_655 S
O1624 C1610 1.249 . S
O1625 U1606 2.420 1_655 S
O1625 C1610 1.202 . S
O1626 U1606 2.455 . S
O1626 C1623 1.301 . S
O1627 U1606 2.449 . S
O1627 C1623 1.282 . S
H1628 C1601 0.931 . S
H1629 C1603 0.929 . S
H1630 C1604 0.930 . S
H1631 C1605 0.931 . S
H1632 C1612 0.932 . S
H1633 C1613 0.930 . S
H1634 C1614 0.929 . S
H1635 C1616 0.930 . S
H1636 C1618 0.932 . S
H1637 C1619 0.929 . S
H1638 C1620 0.928 . S
H1639 C1622 0.932 . S
C1640 C1641 1.264 . S
C1640 C1645 1.479 . S
C1640 C1650 1.465 . S
C1641 C1640 1.264 . S
C1641 C1643 1.339 . S
C1641 H1668 0.931 . S
C1642 C1643 1.395 . S
C1642 C1644 1.320 . S
C1643 C1641 1.339 . S
C1643 C1642 1.395 . S
C1643 H1669 0.929 . S
C1644 C1642 1.320 . S
C1644 C1645 1.405 . S
C1644 H1670 0.930 . S
C1645 C1640 1.479 . S
C1645 C1644 1.405 . S
C1645 H1671 0.931 . S
U1646 O1647 2.454 . S
U1646 O1648 2.458 . S
U1646 C1649 2.984 . S
U1646 C1650 2.847 . S
U1646 C1663 2.882 . S
U1646 O1664 2.441 . S
U1646 O1665 2.420 . S
U1646 O1666 2.455 . S
U1646 O1667 2.449 . S
O1647 U1646 2.454 . S
O1647 C1649 1.353 . S
O1648 U1646 2.458 . S
O1648 C1649 1.286 . S
C1649 U1646 2.984 . S
C1649 O1647 1.353 . S
C1649 O1648 1.286 . S
C1649 C1651 1.363 . S
C1650 C1640 1.465 . S
C1650 U1646 2.847 . S
C1650 O1664 1.249 . S
C1650 O1665 1.202 . S
C1651 C1649 1.363 . S
C1651 C1653 1.408 . S
C1651 C1656 1.342 . S
C1652 C1653 1.310 . S
C1652 C1655 1.461 . S
C1652 H1672 0.932 . S
C1653 C1651 1.408 . S
C1653 C1652 1.310 . S
C1653 H1673 0.930 . S
C1654 C1655 1.474 . S
C1654 C1656 1.285 . S
C1654 H1674 0.929 . S
C1655 C1652 1.461 . S
C1655 C1654 1.474 . S
C1656 C1651 1.342 . S
C1656 C1654 1.285 . S
C1656 H1675 0.930 . S
C1657 C1660 1.424 . S
C1657 C1662 1.245 . S
C1657 C1663 1.428 . S
C1658 C1661 1.260 . S
C1658 C1662 1.477 . S
C1658 H1676 0.932 . S
C1659 C1660 1.384 . S
C1659 C1661 1.479 . S
C1659 H1677 0.929 . S
C1660 C1657 1.424 . S
C1660 C1659 1.384 . S
C1660 H1678 0.928 . S
C1661 C1658 1.260 . S
C1661 C1659 1.479 . S
C1662 C1657 1.245 . S
C1662 C1658 1.477 . S
C1662 H1679 0.932 . S
C1663 U1646 2.882 . S
C1663 C1657 1.428 . S
C1663 O1666 1.301 . S
C1663 O1667 1.282 . S
O1664 U1646 2.441 . S
O1664 C1650 1.249 . S
O1665 U1646 2.420 . S
O1665 C1650 1.202 . S
O1666 U1646 2.455 . S
O1666 C1663 1.301 . S
O1667 U1646 2.449 . S
O1667 C1663 1.282 . S
H1668 C1641 0.931 . S
H1669 C1643 0.929 . S
H1670 C1644 0.930 . S
H1671 C1645 0.931 . S
H1672 C1652 0.932 . S
H1673 C1653 0.930 . S
H1674 C1654 0.929 . S
H1675 C1656 0.930 . S
H1676 C1658 0.932 . S
H1677 C1659 0.929 . S
H1678 C1660 0.928 . S
H1679 C1662 0.932 . S
C1680 C1681 1.264 . S
C1680 C1685 1.479 . S
C1680 C1690 1.465 . S
C1681 C1680 1.264 . S
C1681 C1683 1.339 . S
C1681 H1708 0.931 . S
C1682 C1683 1.395 . S
C1682 C1684 1.320 . S
C1683 C1681 1.339 . S
C1683 C1682 1.395 . S
C1683 H1709 0.929 . S
C1684 C1682 1.320 . S
C1684 C1685 1.405 . S
C1684 H1710 0.930 . S
C1685 C1680 1.479 . S
C1685 C1684 1.405 . S
C1685 H1711 0.931 1_554 S
U1686 O1687 2.454 1_554 S
U1686 O1688 2.458 1_554 S
U1686 C1689 2.984 1_554 S
U1686 C1690 2.847 . S
U1686 C1703 2.882 . S
U1686 O1704 2.449 . S
U1686 O1705 2.420 . S
U1686 O1706 2.455 . S
U1686 O1707 2.449 . S
O1687 U1686 2.454 1_556 S
O1687 C1689 1.353 . S
O1688 U1686 2.458 1_556 S
O1688 C1689 1.286 . S
C1689 U1686 2.984 1_556 S
C1689 O1687 1.353 . S
C1689 O1688 1.286 . S
C1689 C1691 1.363 . S
C1690 C1680 1.465 . S
C1690 U1686 2.847 . S
C1690 O1704 1.283 . S
C1690 O1705 1.202 . S
C1691 C1689 1.363 . S
C1691 C1693 1.408 . S
C1691 C1696 1.342 . S
C1692 C1693 1.310 . S
C1692 C1695 1.461 . S
C1692 H1712 0.932 . S
C1693 C1691 1.408 . S
C1693 C1692 1.310 . S
C1693 H1713 0.930 . S
C1694 C1695 1.474 . S
C1694 C1696 1.285 . S
C1694 H1714 0.929 . S
C1695 C1692 1.461 . S
C1695 C1694 1.474 . S
C1696 C1691 1.342 . S
C1696 C1694 1.285 . S
C1696 H1715 0.930 . S
C1697 C1700 1.424 . S
C1697 C1702 1.245 . S
C1697 C1703 1.428 . S
C1698 C1701 1.260 . S
C1698 C1702 1.477 . S
C1698 H1716 0.932 . S
C1699 C1700 1.384 . S
C1699 C1701 1.479 . S
C1699 H1717 0.929 . S
C1700 C1697 1.424 . S
C1700 C1699 1.384 . S
C1700 H1718 0.928 . S
C1701 C1698 1.260 . S
C1701 C1699 1.479 . S
C1702 C1697 1.245 . S
C1702 C1698 1.477 . S
C1702 H1719 0.932 . S
C1703 U1686 2.882 . S
C1703 C1697 1.428 . S
C1703 O1706 1.301 . S
C1703 O1707 1.282 . S
O1704 U1686 2.449 . S
O1704 C1690 1.283 . S
O1705 U1686 2.420 . S
O1705 C1690 1.202 . S
O1706 U1686 2.455 . S
O1706 C1703 1.301 . S
O1707 U1686 2.449 . S
O1707 C1703 1.282 . S
H1708 C1681 0.931 . S
H1709 C1683 0.929 . S
H1710 C1684 0.930 . S
H1711 C1685 0.931 1_556 S
H1712 C1692 0.932 . S
H1713 C1693 0.930 . S
H1714 C1694 0.929 . S
H1715 C1696 0.930 . S
H1716 C1698 0.932 . S
H1717 C1699 0.929 . S
H1718 C1700 0.928 . S
H1719 C1702 0.932 . S
C1720 C1721 1.264 . S
C1720 C1725 1.479 . S
C1720 C1730 1.465 . S
C1721 C1720 1.264 . S
C1721 C1723 1.339 . S
C1721 H1748 0.931 . S
C1722 C1723 1.395 . S
C1722 C1724 1.320 . S
C1723 C1721 1.339 . S
C1723 C1722 1.395 . S
C1723 H1749 0.929 . S
C1724 C1722 1.320 . S
C1724 C1725 1.405 . S
C1724 H1750 0.930 . S
C1725 C1720 1.479 . S
C1725 C1724 1.405 . S
C1725 H1751 0.931 . S
U1726 O1727 2.454 . S
U1726 O1728 2.458 . S
U1726 C1729 2.984 . S
U1726 C1730 2.847 . S
U1726 C1743 2.882 . S
U1726 O1744 2.441 . S
U1726 O1745 2.420 . S
U1726 O1746 2.455 . S
U1726 O1747 2.449 . S
O1727 U1726 2.454 . S
O1727 C1729 1.353 . S
O1728 U1726 2.458 . S
O1728 C1729 1.286 . S
C1729 U1726 2.984 . S
C1729 O1727 1.353 . S
C1729 O1728 1.286 . S
C1729 C1731 1.363 . S
C1730 C1720 1.465 . S
C1730 U1726 2.847 . S
C1730 O1744 1.249 . S
C1730 O1745 1.202 . S
C1731 C1729 1.363 . S
C1731 C1733 1.408 . S
C1731 C1736 1.342 . S
C1732 C1733 1.310 . S
C1732 C1735 1.461 . S
C1732 H1752 0.932 . S
C1733 C1731 1.408 . S
C1733 C1732 1.310 . S
C1733 H1753 0.930 . S
C1734 C1735 1.474 . S
C1734 C1736 1.285 . S
C1734 H1754 0.929 . S
C1735 C1732 1.461 . S
C1735 C1734 1.474 . S
C1736 C1731 1.342 . S
C1736 C1734 1.285 . S
C1736 H1755 0.930 . S
C1737 C1740 1.424 . S
C1737 C1742 1.245 . S
C1737 C1743 1.428 . S
C1738 C1741 1.260 . S
C1738 C1742 1.477 . S
C1738 H1756 0.932 . S
C1739 C1740 1.384 . S
C1739 C1741 1.479 . S
C1739 H1757 0.929 . S
C1740 C1737 1.424 . S
C1740 C1739 1.384 . S
C1740 H1758 0.928 . S
C1741 C1738 1.260 . S
C1741 C1739 1.479 . S
C1742 C1737 1.245 . S
C1742 C1738 1.477 . S
C1742 H1759 0.932 . S
C1743 U1726 2.882 . S
C1743 C1737 1.428 . S
C1743 O1746 1.301 . S
C1743 O1747 1.282 . S
O1744 U1726 2.441 . S
O1744 C1730 1.249 . S
O1745 U1726 2.420 . S
O1745 C1730 1.202 . S
O1746 U1726 2.455 . S
O1746 C1743 1.301 . S
O1747 U1726 2.449 . S
O1747 C1743 1.282 . S
H1748 C1721 0.931 . S
H1749 C1723 0.929 . S
H1750 C1724 0.930 . S
H1751 C1725 0.931 . S
H1752 C1732 0.932 . S
H1753 C1733 0.930 . S
H1754 C1734 0.929 . S
H1755 C1736 0.930 . S
H1756 C1738 0.932 . S
H1757 C1739 0.929 . S
H1758 C1740 0.928 . S
H1759 C1742 0.932 . S
C1760 C1761 1.264 . S
C1760 C1765 1.479 . S
C1760 C1770 1.465 . S
C1761 C1760 1.264 . S
C1761 C1763 1.339 . S
C1761 H1788 0.931 . S
C1762 C1763 1.395 . S
C1762 C1764 1.320 . S
C1763 C1761 1.339 . S
C1763 C1762 1.395 . S
C1763 H1789 0.929 . S
C1764 C1762 1.320 . S
C1764 C1765 1.405 . S
C1764 H1790 0.930 . S
C1765 C1760 1.479 . S
C1765 C1764 1.405 . S
C1765 H1791 0.931 . S
U1766 O1767 2.454 . S
U1766 O1768 2.458 . S
U1766 C1769 2.984 . S
U1766 C1770 2.847 . S
U1766 C1783 2.882 . S
U1766 O1784 2.441 . S
U1766 O1785 2.420 . S
U1766 O1786 2.455 . S
U1766 O1787 2.449 . S
O1767 U1766 2.454 . S
O1767 C1769 1.353 . S
O1768 U1766 2.458 . S
O1768 C1769 1.286 . S
C1769 U1766 2.984 . S
C1769 O1767 1.353 . S
C1769 O1768 1.286 . S
C1769 C1771 1.363 . S
C1770 C1760 1.465 . S
C1770 U1766 2.847 . S
C1770 O1784 1.249 . S
C1770 O1785 1.202 . S
C1771 C1769 1.363 . S
C1771 C1773 1.408 . S
C1771 C1776 1.342 . S
C1772 C1773 1.310 . S
C1772 C1775 1.461 . S
C1772 H1792 0.932 . S
C1773 C1771 1.408 . S
C1773 C1772 1.310 . S
C1773 H1793 0.930 . S
C1774 C1775 1.474 . S
C1774 C1776 1.285 . S
C1774 H1794 0.929 . S
C1775 C1772 1.461 . S
C1775 C1774 1.474 . S
C1776 C1771 1.342 . S
C1776 C1774 1.285 . S
C1776 H1795 0.930 . S
C1777 C1780 1.424 . S
C1777 C1782 1.245 . S
C1777 C1783 1.428 . S
C1778 C1781 1.260 . S
C1778 C1782 1.477 . S
C1778 H1796 0.932 . S
C1779 C1780 1.384 . S
C1779 C1781 1.479 . S
C1779 H1797 0.929 . S
C1780 C1777 1.424 . S
C1780 C1779 1.384 . S
C1780 H1798 0.928 . S
C1781 C1778 1.260 . S
C1781 C1779 1.479 . S
C1782 C1777 1.245 . S
C1782 C1778 1.477 . S
C1782 H1799 0.932 . S
C1783 U1766 2.882 . S
C1783 C1777 1.428 . S
C1783 O1786 1.301 . S
C1783 O1787 1.282 . S
O1784 U1766 2.441 . S
O1784 C1770 1.249 . S
O1785 U1766 2.420 . S
O1785 C1770 1.202 . S
O1786 U1766 2.455 . S
O1786 C1783 1.301 . S
O1787 U1766 2.449 . S
O1787 C1783 1.282 . S
H1788 C1761 0.931 . S
H1789 C1763 0.929 . S
H1790 C1764 0.930 . S
H1791 C1765 0.931 . S
H1792 C1772 0.932 . S
H1793 C1773 0.930 . S
H1794 C1774 0.929 . S
H1795 C1776 0.930 . S
H1796 C1778 0.932 . S
H1797 C1779 0.929 . S
H1798 C1780 0.928 . S
H1799 C1782 0.932 . S
C1800 C1801 1.264 . S
C1800 C1805 1.479 . S
C1800 C1810 1.465 . S
C1801 C1800 1.264 . S
C1801 C1803 1.339 . S
C1801 H1828 0.931 . S
C1802 C1803 1.395 . S
C1802 C1804 1.320 . S
C1803 C1801 1.339 . S
C1803 C1802 1.395 . S
C1803 H1829 0.929 . S
C1804 C1802 1.320 . S
C1804 C1805 1.405 . S
C1804 H1830 0.930 . S
C1805 C1800 1.479 . S
C1805 C1804 1.405 . S
C1805 H1831 0.931 . S
U1806 O1807 2.454 . S
U1806 O1808 2.458 . S
U1806 C1809 2.984 . S
U1806 C1810 2.847 . S
U1806 C1823 2.882 . S
U1806 O1824 2.441 . S
U1806 O1825 2.420 . S
U1806 O1826 2.455 . S
U1806 O1827 2.449 . S
O1807 U1806 2.454 . S
O1807 C1809 1.353 . S
O1808 U1806 2.458 . S
O1808 C1809 1.286 . S
C1809 U1806 2.984 . S
C1809 O1807 1.353 . S
C1809 O1808 1.286 . S
C1809 C1811 1.363 . S
C1810 C1800 1.465 . S
C1810 U1806 2.847 . S
C1810 O1824 1.249 . S
C1810 O1825 1.202 . S
C1811 C1809 1.363 . S
C1811 C1813 1.408 . S
C1811 C1816 1.342 . S
C1812 C1813 1.310 . S
C1812 C1815 1.461 . S
C1812 H1832 0.932 . S
C1813 C1811 1.408 . S
C1813 C1812 1.310 . S
C1813 H1833 0.930 . S
C1814 C1815 1.474 . S
C1814 C1816 1.285 . S
C1814 H1834 0.929 . S
C1815 C1812 1.461 . S
C1815 C1814 1.474 . S
C1816 C1811 1.342 . S
C1816 C1814 1.285 . S
C1816 H1835 0.930 . S
C1817 C1820 1.424 . S
C1817 C1822 1.245 . S
C1817 C1823 1.428 . S
C1818 C1821 1.260 . S
C1818 C1822 1.477 . S
C1818 H1836 0.932 . S
C1819 C1820 1.384 . S
C1819 C1821 1.479 . S
C1819 H1837 0.929 . S
C1820 C1817 1.424 . S
C1820 C1819 1.384 . S
C1820 H1838 0.928 . S
C1821 C1818 1.260 . S
C1821 C1819 1.479 . S
C1822 C1817 1.245 . S
C1822 C1818 1.477 . S
C1822 H1839 0.932 . S
C1823 U1806 2.882 . S
C1823 C1817 1.428 . S
C1823 O1826 1.301 . S
C1823 O1827 1.282 . S
O1824 U1806 2.441 . S
O1824 C1810 1.249 . S
O1825 U1806 2.420 . S
O1825 C1810 1.202 . S
O1826 U1806 2.455 . S
O1826 C1823 1.301 . S
O1827 U1806 2.449 . S
O1827 C1823 1.282 . S
H1828 C1801 0.931 . S
H1829 C1803 0.929 . S
H1830 C1804 0.930 . S
H1831 C1805 0.931 . S
H1832 C1812 0.932 . S
H1833 C1813 0.930 . S
H1834 C1814 0.929 . S
H1835 C1816 0.930 . S
H1836 C1818 0.932 . S
H1837 C1819 0.929 . S
H1838 C1820 0.928 . S
H1839 C1822 0.932 . S
C1840 C1841 1.264 . S
C1840 C1845 1.479 . S
C1840 C1850 1.465 . S
C1841 C1840 1.264 . S
C1841 C1843 1.339 . S
C1841 H1868 0.931 . S
C1842 C1843 1.395 . S
C1842 C1844 1.320 . S
C1843 C1841 1.339 . S
C1843 C1842 1.395 . S
C1843 H1869 0.929 . S
C1844 C1842 1.320 . S
C1844 C1845 1.405 . S
C1844 H1870 0.930 . S
C1845 C1840 1.479 . S
C1845 C1844 1.405 . S
C1845 H1871 0.931 . S
U1846 O1847 2.454 . S
U1846 O1848 2.458 . S
U1846 C1849 2.984 . S
U1846 C1850 2.847 . S
U1846 C1863 2.882 . S
U1846 O1864 2.441 . S
U1846 O1865 2.420 . S
U1846 O1866 2.455 . S
U1846 O1867 2.449 . S
O1847 U1846 2.454 . S
O1847 C1849 1.353 . S
O1848 U1846 2.458 . S
O1848 C1849 1.286 . S
C1849 U1846 2.984 . S
C1849 O1847 1.353 . S
C1849 O1848 1.286 . S
C1849 C1851 1.363 . S
C1850 C1840 1.465 . S
C1850 U1846 2.847 . S
C1850 O1864 1.249 . S
C1850 O1865 1.202 . S
C1851 C1849 1.363 . S
C1851 C1853 1.408 . S
C1851 C1856 1.342 . S
C1852 C1853 1.310 . S
C1852 C1855 1.461 . S
C1852 H1872 0.932 . S
C1853 C1851 1.408 . S
C1853 C1852 1.310 . S
C1853 H1873 0.930 . S
C1854 C1855 1.474 . S
C1854 C1856 1.285 . S
C1854 H1874 0.929 . S
C1855 C1852 1.461 . S
C1855 C1854 1.474 . S
C1856 C1851 1.342 . S
C1856 C1854 1.285 . S
C1856 H1875 0.930 . S
C1857 C1860 1.424 . S
C1857 C1862 1.245 . S
C1857 C1863 1.428 . S
C1858 C1861 1.260 . S
C1858 C1862 1.477 . S
C1858 H1876 0.932 . S
C1859 C1860 1.384 . S
C1859 C1861 1.479 . S
C1859 H1877 0.929 . S
C1860 C1857 1.424 . S
C1860 C1859 1.384 . S
C1860 H1878 0.928 . S
C1861 C1858 1.260 . S
C1861 C1859 1.479 . S
C1862 C1857 1.245 . S
C1862 C1858 1.477 . S
C1862 H1879 0.932 . S
C1863 U1846 2.882 . S
C1863 C1857 1.428 . S
C1863 O1866 1.301 . S
C1863 O1867 1.282 . S
O1864 U1846 2.441 . S
O1864 C1850 1.249 . S
O1865 U1846 2.420 . S
O1865 C1850 1.202 . S
O1866 U1846 2.455 . S
O1866 C1863 1.301 . S
O1867 U1846 2.449 . S
O1867 C1863 1.282 . S
H1868 C1841 0.931 . S
H1869 C1843 0.929 . S
H1870 C1844 0.930 . S
H1871 C1845 0.931 . S
H1872 C1852 0.932 . S
H1873 C1853 0.930 . S
H1874 C1854 0.929 . S
H1875 C1856 0.930 . S
H1876 C1858 0.932 . S
H1877 C1859 0.929 . S
H1878 C1860 0.928 . S
H1879 C1862 0.932 . S
C1880 C1881 1.264 . S
C1880 C1885 1.479 . S
C1880 C1890 1.465 . S
C1881 C1880 1.264 . S
C1881 C1883 1.339 . S
C1881 H1908 0.931 . S
C1882 C1883 1.395 . S
C1882 C1884 1.320 . S
C1883 C1881 1.339 . S
C1883 C1882 1.395 . S
C1883 H1909 0.929 . S
C1884 C1882 1.320 . S
C1884 C1885 1.405 . S
C1884 H1910 0.930 . S
C1885 C1880 1.479 . S
C1885 C1884 1.405 . S
C1885 H1911 0.931 . S
U1886 O1887 2.454 . S
U1886 O1888 2.458 . S
U1886 C1889 2.984 . S
U1886 C1890 2.847 . S
U1886 C1903 2.882 . S
U1886 O1904 2.441 . S
U1886 O1905 2.420 . S
U1886 O1906 2.455 . S
U1886 O1907 2.449 . S
O1887 U1886 2.454 . S
O1887 C1889 1.353 . S
O1888 U1886 2.458 . S
O1888 C1889 1.286 . S
C1889 U1886 2.984 . S
C1889 O1887 1.353 . S
C1889 O1888 1.286 . S
C1889 C1891 1.363 . S
C1890 C1880 1.465 . S
C1890 U1886 2.847 . S
C1890 O1904 1.249 . S
C1890 O1905 1.202 . S
C1891 C1889 1.363 . S
C1891 C1893 1.408 . S
C1891 C1896 1.342 . S
C1892 C1893 1.310 . S
C1892 C1895 1.461 . S
C1892 H1912 0.932 . S
C1893 C1891 1.408 . S
C1893 C1892 1.310 . S
C1893 H1913 0.930 . S
C1894 C1895 1.474 . S
C1894 C1896 1.285 . S
C1894 H1914 0.929 . S
C1895 C1892 1.461 . S
C1895 C1894 1.474 . S
C1896 C1891 1.342 . S
C1896 C1894 1.285 . S
C1896 H1915 0.930 . S
C1897 C1900 1.424 . S
C1897 C1902 1.245 . S
C1897 C1903 1.428 . S
C1898 C1901 1.260 . S
C1898 C1902 1.477 . S
C1898 H1916 0.932 . S
C1899 C1900 1.384 . S
C1899 C1901 1.479 . S
C1899 H1917 0.929 . S
C1900 C1897 1.424 . S
C1900 C1899 1.384 . S
C1900 H1918 0.928 . S
C1901 C1898 1.260 . S
C1901 C1899 1.479 . S
C1902 C1897 1.245 . S
C1902 C1898 1.477 . S
C1902 H1919 0.932 . S
C1903 U1886 2.882 . S
C1903 C1897 1.428 . S
C1903 O1906 1.301 . S
C1903 O1907 1.282 . S
O1904 U1886 2.441 . S
O1904 C1890 1.249 . S
O1905 U1886 2.420 . S
O1905 C1890 1.202 . S
O1906 U1886 2.455 . S
O1906 C1903 1.301 . S
O1907 U1886 2.449 . S
O1907 C1903 1.282 . S
H1908 C1881 0.931 . S
H1909 C1883 0.929 . S
H1910 C1884 0.930 . S
H1911 C1885 0.931 . S
H1912 C1892 0.932 . S
H1913 C1893 0.930 . S
H1914 C1894 0.929 . S
H1915 C1896 0.930 . S
H1916 C1898 0.932 . S
H1917 C1899 0.929 . S
H1918 C1900 0.928 . S
H1919 C1902 0.932 . S
H1920 C1921 0.949 . S
C1921 H1920 0.949 . S
C1921 C1922 1.395 . S
C1921 C1923 1.391 . S
C1922 C1921 1.395 . S
C1922 C1925 1.390 . S
C1923 C1921 1.391 . S
C1923 C1927 1.387 . S
C1923 C1928 1.491 . S
H1924 C1925 0.950 . S
C1925 C1922 1.390 . S
C1925 H1924 0.950 . S
C1925 C1926 1.378 . S
C1926 C1925 1.378 . S
C1926 C1927 1.409 . S
C1927 C1923 1.387 . S
C1927 C1926 1.409 . S
C1927 H1929 0.951 . S
C1928 C1923 1.491 . S
C1928 C1930 1.382 . S
C1928 C1932 1.404 . S
H1929 C1927 0.951 . S
C1930 C1928 1.382 . S
C1930 C1931 1.390 . S
C1930 H1935 0.949 . S
C1931 C1930 1.390 . S
C1931 C1936 1.399 . S
C1932 C1928 1.404 . S
C1932 H1933 0.950 . S
C1932 C1934 1.375 . S
H1933 C1932 0.950 . S
C1934 C1932 1.375 . S
C1934 C1936 1.382 . S
C1934 H1938 0.950 . S
H1935 C1930 0.949 . S
C1936 C1931 1.399 . S
C1936 C1934 1.382 . S
C1936 H1937 0.952 . S
H1937 C1936 0.952 . S
H1938 C1934 0.950 . S
H1939 C1940 0.949 . S
C1940 H1939 0.949 . S
C1940 C1941 1.395 . S
C1940 C1942 1.391 . S
C1941 C1940 1.395 . S
C1941 C1944 1.390 . S
C1942 C1940 1.391 . S
C1942 C1946 1.387 . S
C1942 C1947 1.491 . S
H1943 C1944 0.950 . S
C1944 C1941 1.390 . S
C1944 H1943 0.950 . S
C1944 C1945 1.378 . S
C1945 C1944 1.378 . S
C1945 C1946 1.409 . S
C1946 C1942 1.387 . S
C1946 C1945 1.409 . S
C1946 H1948 0.951 . S
C1947 C1942 1.491 . S
C1947 C1949 1.382 . S
C1947 C1951 1.404 . S
H1948 C1946 0.951 . S
C1949 C1947 1.382 . S
C1949 C1950 1.390 . S
C1949 H1954 0.949 . S
C1950 C1949 1.390 . S
C1950 C1955 1.399 . S
C1951 C1947 1.404 . S
C1951 H1952 0.950 . S
C1951 C1953 1.375 . S
H1952 C1951 0.950 . S
C1953 C1951 1.375 . S
C1953 C1955 1.382 . S
C1953 H1957 0.950 . S
H1954 C1949 0.949 . S
C1955 C1950 1.399 . S
C1955 C1953 1.382 . S
C1955 H1956 0.952 . S
H1956 C1955 0.952 . S
H1957 C1953 0.950 . S
H1958 C1959 0.949 . S
C1959 H1958 0.949 . S
C1959 C1960 1.395 . S
C1959 C1961 1.391 . S
C1960 C1959 1.395 . S
C1960 C1963 1.390 . S
C1961 C1959 1.391 . S
C1961 C1965 1.387 . S
C1961 C1966 1.491 . S
H1962 C1963 0.950 . S
C1963 C1960 1.390 . S
C1963 H1962 0.950 . S
C1963 C1964 1.378 . S
C1964 C1963 1.378 . S
C1964 C1965 1.409 . S
C1965 C1961 1.387 . S
C1965 C1964 1.409 . S
C1965 H1967 0.951 . S
C1966 C1961 1.491 . S
C1966 C1968 1.382 . S
C1966 C1970 1.404 . S
H1967 C1965 0.951 . S
C1968 C1966 1.382 . S
C1968 C1969 1.390 . S
C1968 H1973 0.949 . S
C1969 C1968 1.390 . S
C1969 C1974 1.399 . S
C1970 C1966 1.404 . S
C1970 H1971 0.950 . S
C1970 C1972 1.375 . S
H1971 C1970 0.950 . S
C1972 C1970 1.375 . S
C1972 C1974 1.382 . S
C1972 H1976 0.950 . S
H1973 C1968 0.949 . S
C1974 C1969 1.399 . S
C1974 C1972 1.382 . S
C1974 H1975 0.952 . S
H1975 C1974 0.952 . S
H1976 C1972 0.950 . S
H1977 C1978 0.949 . S
C1978 H1977 0.949 . S
C1978 C1979 1.395 . S
C1978 C1980 1.391 . S
C1979 C1978 1.395 . S
C1979 C1982 1.390 . S
C1980 C1978 1.391 . S
C1980 C1984 1.387 . S
C1980 C1985 1.491 . S
H1981 C1982 0.950 . S
C1982 C1979 1.390 . S
C1982 H1981 0.950 . S
C1982 C1983 1.378 . S
C1983 C1982 1.378 . S
C1983 C1984 1.409 . S
C1984 C1980 1.387 . S
C1984 C1983 1.409 . S
C1984 H1986 0.951 . S
C1985 C1980 1.491 . S
C1985 C1987 1.382 . S
C1985 C1989 1.404 . S
H1986 C1984 0.951 . S
C1987 C1985 1.382 . S
C1987 C1988 1.390 . S
C1987 H1992 0.949 . S
C1988 C1987 1.390 . S
C1988 C1993 1.399 . S
C1989 C1985 1.404 . S
C1989 H1990 0.950 . S
C1989 C1991 1.375 . S
H1990 C1989 0.950 . S
C1991 C1989 1.375 . S
C1991 C1993 1.382 . S
C1991 H1995 0.950 . S
H1992 C1987 0.949 . S
C1993 C1988 1.399 . S
C1993 C1991 1.382 . S
C1993 H1994 0.952 . S
H1994 C1993 0.952 . S
H1995 C1991 0.950 . S
H1996 C1997 0.949 . S
C1997 H1996 0.949 . S
C1997 C1998 1.395 . S
C1997 C1999 1.391 . S
C1998 C1997 1.395 . S
C1998 C2001 1.390 . S
C1999 C1997 1.391 . S
C1999 C2003 1.387 . S
C1999 C2004 1.491 . S
H2000 C2001 0.950 . S
C2001 C1998 1.390 . S
C2001 H2000 0.950 . S
C2001 C2002 1.378 . S
C2002 C2001 1.378 . S
C2002 C2003 1.409 . S
C2003 C1999 1.387 . S
C2003 C2002 1.409 . S
C2003 H2005 0.951 . S
C2004 C1999 1.491 . S
C2004 C2006 1.382 . S
C2004 C2008 1.404 . S
H2005 C2003 0.951 . S
C2006 C2004 1.382 . S
C2006 C2007 1.390 . S
C2006 H2011 0.949 . S
C2007 C2006 1.390 . S
C2007 C2012 1.399 . S
C2008 C2004 1.404 . S
C2008 H2009 0.950 . S
C2008 C2010 1.375 . S
H2009 C2008 0.950 . S
C2010 C2008 1.375 . S
C2010 C2012 1.382 . S
C2010 H2014 0.950 . S
H2011 C2006 0.949 . S
C2012 C2007 1.399 . S
C2012 C2010 1.382 . S
C2012 H2013 0.952 . S
H2013 C2012 0.952 . S
H2014 C2010 0.950 . S
H2015 C2016 0.949 . S
C2016 H2015 0.949 . S
C2016 C2017 1.395 . S
C2016 C2018 1.391 . S
C2017 C2016 1.395 . S
C2017 C2020 1.390 . S
C2018 C2016 1.391 . S
C2018 C2022 1.387 . S
C2018 C2023 1.491 . S
H2019 C2020 0.950 . S
C2020 C2017 1.390 . S
C2020 H2019 0.950 . S
C2020 C2021 1.378 . S
C2021 C2020 1.378 . S
C2021 C2022 1.409 . S
C2022 C2018 1.387 . S
C2022 C2021 1.409 . S
C2022 H2024 0.951 . S
C2023 C2018 1.491 . S
C2023 C2025 1.382 . S
C2023 C2027 1.404 . S
H2024 C2022 0.951 . S
C2025 C2023 1.382 . S
C2025 C2026 1.390 . S
C2025 H2030 0.949 . S
C2026 C2025 1.390 . S
C2026 C2031 1.399 . S
C2027 C2023 1.404 . S
C2027 H2028 0.950 . S
C2027 C2029 1.375 . S
H2028 C2027 0.950 . S
C2029 C2027 1.375 . S
C2029 C2031 1.382 . S
C2029 H2033 0.950 . S
H2030 C2025 0.949 . S
C2031 C2026 1.399 . S
C2031 C2029 1.382 . S
C2031 H2032 0.952 . S
H2032 C2031 0.952 . S
H2033 C2029 0.950 . S
H2034 C2035 0.949 . S
C2035 H2034 0.949 . S
C2035 C2036 1.395 . S
C2035 C2037 1.391 . S
C2036 C2035 1.395 . S
C2036 C2039 1.390 . S
C2037 C2035 1.391 . S
C2037 C2041 1.387 . S
C2037 C2042 1.491 . S
H2038 C2039 0.950 . S
C2039 C2036 1.390 . S
C2039 H2038 0.950 . S
C2039 C2040 1.378 . S
C2040 C2039 1.378 . S
C2040 C2041 1.409 . S
C2041 C2037 1.387 . S
C2041 C2040 1.409 . S
C2041 H2043 0.951 . S
C2042 C2037 1.491 . S
C2042 C2044 1.382 . S
C2042 C2046 1.404 . S
H2043 C2041 0.951 . S
C2044 C2042 1.382 . S
C2044 C2045 1.390 . S
C2044 H2049 0.949 . S
C2045 C2044 1.390 . S
C2045 C2050 1.399 . S
C2046 C2042 1.404 . S
C2046 H2047 0.950 . S
C2046 C2048 1.375 . S
H2047 C2046 0.950 . S
C2048 C2046 1.375 . S
C2048 C2050 1.382 . S
C2048 H2052 0.950 . S
H2049 C2044 0.949 . S
C2050 C2045 1.399 . S
C2050 C2048 1.382 . S
C2050 H2051 0.952 . S
H2051 C2050 0.952 . S
H2052 C2048 0.950 . S
H2053 C2054 0.949 . S
C2054 H2053 0.949 . S
C2054 C2055 1.395 . S
C2054 C2056 1.391 . S
C2055 C2054 1.395 . S
C2055 C2058 1.390 . S
C2056 C2054 1.391 . S
C2056 C2060 1.387 . S
C2056 C2061 1.491 . S
H2057 C2058 0.950 . S
C2058 C2055 1.390 . S
C2058 H2057 0.950 . S
C2058 C2059 1.378 . S
C2059 C2058 1.378 . S
C2059 C2060 1.409 . S
C2060 C2056 1.387 . S
C2060 C2059 1.409 . S
C2060 H2062 0.951 . S
C2061 C2056 1.491 . S
C2061 C2063 1.382 . S
C2061 C2065 1.404 . S
H2062 C2060 0.951 . S
C2063 C2061 1.382 . S
C2063 C2064 1.390 . S
C2063 H2068 0.949 . S
C2064 C2063 1.390 . S
C2064 C2069 1.399 . S
C2065 C2061 1.404 . S
C2065 H2066 0.950 . S
C2065 C2067 1.375 . S
H2066 C2065 0.950 . S
C2067 C2065 1.375 . S
C2067 C2069 1.382 . S
C2067 H2071 0.950 . S
H2068 C2063 0.949 . S
C2069 C2064 1.399 . S
C2069 C2067 1.382 . S
C2069 H2070 0.952 . S
H2070 C2069 0.952 . S
H2071 C2067 0.950 . S
H2072 C2073 0.949 . S
C2073 H2072 0.949 . S
C2073 C2074 1.395 . S
C2073 C2075 1.391 . S
C2074 C2073 1.395 . S
C2074 C2077 1.390 . S
C2075 C2073 1.391 . S
C2075 C2079 1.387 . S
C2075 C2080 1.491 . S
H2076 C2077 0.950 . S
C2077 C2074 1.390 . S
C2077 H2076 0.950 . S
C2077 C2078 1.378 . S
C2078 C2077 1.378 . S
C2078 C2079 1.409 . S
C2079 C2075 1.387 . S
C2079 C2078 1.409 . S
C2079 H2081 0.951 . S
C2080 C2075 1.491 . S
C2080 C2082 1.382 . S
C2080 C2084 1.404 . S
H2081 C2079 0.951 . S
C2082 C2080 1.382 . S
C2082 C2083 1.390 . S
C2082 H2087 0.949 . S
C2083 C2082 1.390 . S
C2083 C2088 1.399 . S
C2084 C2080 1.404 . S
C2084 H2085 0.950 . S
C2084 C2086 1.375 . S
H2085 C2084 0.950 . S
C2086 C2084 1.375 . S
C2086 C2088 1.382 . S
C2086 H2090 0.950 . S
H2087 C2082 0.949 . S
C2088 C2083 1.399 . S
C2088 C2086 1.382 . S
C2088 H2089 0.952 . S
H2089 C2088 0.952 . S
H2090 C2086 0.950 . S
H2091 C2092 0.949 . S
C2092 H2091 0.949 . S
C2092 C2093 1.395 . S
C2092 C2094 1.391 . S
C2093 C2092 1.395 . S
C2093 C2096 1.390 . S
C2094 C2092 1.391 . S
C2094 C2098 1.387 . S
C2094 C2099 1.491 . S
H2095 C2096 0.950 . S
C2096 C2093 1.390 . S
C2096 H2095 0.950 . S
C2096 C2097 1.378 . S
C2097 C2096 1.378 . S
C2097 C2098 1.409 . S
C2098 C2094 1.387 . S
C2098 C2097 1.409 . S
C2098 H2100 0.951 . S
C2099 C2094 1.491 . S
C2099 C2101 1.382 . S
C2099 C2103 1.404 . S
H2100 C2098 0.951 . S
C2101 C2099 1.382 . S
C2101 C2102 1.390 . S
C2101 H2106 0.949 . S
C2102 C2101 1.390 . S
C2102 C2107 1.399 . S
C2103 C2099 1.404 . S
C2103 H2104 0.950 . S
C2103 C2105 1.375 . S
H2104 C2103 0.950 . S
C2105 C2103 1.375 . S
C2105 C2107 1.382 . S
C2105 H2109 0.950 . S
H2106 C2101 0.949 . S
C2107 C2102 1.399 . S
C2107 C2105 1.382 . S
C2107 H2108 0.952 . S
H2108 C2107 0.952 . S
H2109 C2105 0.950 . S
H2110 C2111 0.949 . S
C2111 H2110 0.949 . S
C2111 C2112 1.395 . S
C2111 C2113 1.391 . S
C2112 C2111 1.395 . S
C2112 C2115 1.390 . S
C2113 C2111 1.391 . S
C2113 C2117 1.387 . S
C2113 C2118 1.491 . S
H2114 C2115 0.950 . S
C2115 C2112 1.390 . S
C2115 H2114 0.950 . S
C2115 C2116 1.378 . S
C2116 C2115 1.378 . S
C2116 C2117 1.409 . S
C2117 C2113 1.387 . S
C2117 C2116 1.409 . S
C2117 H2119 0.951 . S
C2118 C2113 1.491 . S
C2118 C2120 1.382 . S
C2118 C2122 1.404 . S
H2119 C2117 0.951 . S
C2120 C2118 1.382 . S
C2120 C2121 1.390 . S
C2120 H2125 0.949 . S
C2121 C2120 1.390 . S
C2121 C2126 1.399 . S
C2122 C2118 1.404 . S
C2122 H2123 0.950 . S
C2122 C2124 1.375 . S
H2123 C2122 0.950 . S
C2124 C2122 1.375 . S
C2124 C2126 1.382 . S
C2124 H2128 0.950 . S
H2125 C2120 0.949 . S
C2126 C2121 1.399 . S
C2126 C2124 1.382 . S
C2126 H2127 0.952 . S
H2127 C2126 0.952 . S
H2128 C2124 0.950 . S
H2129 C2130 0.949 . S
C2130 H2129 0.949 . S
C2130 C2131 1.395 . S
C2130 C2132 1.391 . S
C2131 C2130 1.395 . S
C2131 C2134 1.390 . S
C2132 C2130 1.391 . S
C2132 C2136 1.387 . S
C2132 C2137 1.491 . S
H2133 C2134 0.950 . S
C2134 C2131 1.390 . S
C2134 H2133 0.950 . S
C2134 C2135 1.378 . S
C2135 C2134 1.378 . S
C2135 C2136 1.409 . S
C2136 C2132 1.387 . S
C2136 C2135 1.409 . S
C2136 H2138 0.951 . S
C2137 C2132 1.491 . S
C2137 C2139 1.382 . S
C2137 C2141 1.404 . S
H2138 C2136 0.951 . S
C2139 C2137 1.382 . S
C2139 C2140 1.390 . S
C2139 H2144 0.949 . S
C2140 C2139 1.390 . S
C2140 C2145 1.399 . S
C2141 C2137 1.404 . S
C2141 H2142 0.950 . S
C2141 C2143 1.375 . S
H2142 C2141 0.950 . S
C2143 C2141 1.375 . S
C2143 C2145 1.382 . S
C2143 H2147 0.950 . S
H2144 C2139 0.949 . S
C2145 C2140 1.399 . S
C2145 C2143 1.382 . S
C2145 H2146 0.952 . S
H2146 C2145 0.952 . S
H2147 C2143 0.950 . S
H2148 C2149 0.949 . S
C2149 H2148 0.949 . S
C2149 C2150 1.395 . S
C2149 C2151 1.391 . S
C2150 C2149 1.395 . S
C2150 C2153 1.390 . S
C2151 C2149 1.391 . S
C2151 C2155 1.387 . S
C2151 C2156 1.491 . S
H2152 C2153 0.950 . S
C2153 C2150 1.390 . S
C2153 H2152 0.950 . S
C2153 C2154 1.378 . S
C2154 C2153 1.378 . S
C2154 C2155 1.409 . S
C2155 C2151 1.387 . S
C2155 C2154 1.409 . S
C2155 H2157 0.951 . S
C2156 C2151 1.491 . S
C2156 C2158 1.382 . S
C2156 C2160 1.404 . S
H2157 C2155 0.951 . S
C2158 C2156 1.382 . S
C2158 C2159 1.390 . S
C2158 H2163 0.949 . S
C2159 C2158 1.390 . S
C2159 C2164 1.399 . S
C2160 C2156 1.404 . S
C2160 H2161 0.950 . S
C2160 C2162 1.375 . S
H2161 C2160 0.950 . S
C2162 C2160 1.375 . S
C2162 C2164 1.382 . S
C2162 H2166 0.950 . S
H2163 C2158 0.949 . S
C2164 C2159 1.399 . S
C2164 C2162 1.382 . S
C2164 H2165 0.952 . S
H2165 C2164 0.952 . S
H2166 C2162 0.950 . S
H2167 C2168 0.949 . S
C2168 H2167 0.949 . S
C2168 C2169 1.395 . S
C2168 C2170 1.391 . S
C2169 C2168 1.395 . S
C2169 C2172 1.390 . S
C2170 C2168 1.391 . S
C2170 C2174 1.387 . S
C2170 C2175 1.491 . S
H2171 C2172 0.950 . S
C2172 C2169 1.390 . S
C2172 H2171 0.950 . S
C2172 C2173 1.378 . S
C2173 C2172 1.378 . S
C2173 C2174 1.409 . S
C2174 C2170 1.387 . S
C2174 C2173 1.409 . S
C2174 H2176 0.951 . S
C2175 C2170 1.491 . S
C2175 C2177 1.382 . S
C2175 C2179 1.404 . S
H2176 C2174 0.951 . S
C2177 C2175 1.382 . S
C2177 C2178 1.390 . S
C2177 H2182 0.949 . S
C2178 C2177 1.390 . S
C2178 C2183 1.399 . S
C2179 C2175 1.404 . S
C2179 H2180 0.950 . S
C2179 C2181 1.375 . S
H2180 C2179 0.950 . S
C2181 C2179 1.375 . S
C2181 C2183 1.382 . S
C2181 H2185 0.950 . S
H2182 C2177 0.949 . S
C2183 C2178 1.399 . S
C2183 C2181 1.382 . S
C2183 H2184 0.952 . S
H2184 C2183 0.952 . S
H2185 C2181 0.950 . S
H2186 C2187 0.949 . S
C2187 H2186 0.949 . S
C2187 C2188 1.395 . S
C2187 C2189 1.391 . S
C2188 C2187 1.395 . S
C2188 C2191 1.390 . S
C2189 C2187 1.391 . S
C2189 C2193 1.387 . S
C2189 C2194 1.491 . S
H2190 C2191 0.950 . S
C2191 C2188 1.390 . S
C2191 H2190 0.950 . S
C2191 C2192 1.378 . S
C2192 C2191 1.378 . S
C2192 C2193 1.409 . S
C2193 C2189 1.387 . S
C2193 C2192 1.409 . S
C2193 H2195 0.951 . S
C2194 C2189 1.491 . S
C2194 C2196 1.382 . S
C2194 C2198 1.404 . S
H2195 C2193 0.951 . S
C2196 C2194 1.382 . S
C2196 C2197 1.390 . S
C2196 H2201 0.949 . S
C2197 C2196 1.390 . S
C2197 C2202 1.399 . S
C2198 C2194 1.404 . S
C2198 H2199 0.950 . S
C2198 C2200 1.375 . S
H2199 C2198 0.950 . S
C2200 C2198 1.375 . S
C2200 C2202 1.382 . S
C2200 H2204 0.950 . S
H2201 C2196 0.949 . S
C2202 C2197 1.399 . S
C2202 C2200 1.382 . S
C2202 H2203 0.952 . S
H2203 C2202 0.952 . S
H2204 C2200 0.950 . S
H2205 C2206 0.949 . S
C2206 H2205 0.949 . S
C2206 C2207 1.395 . S
C2206 C2208 1.391 . S
C2207 C2206 1.395 . S
C2207 C2210 1.390 . S
C2208 C2206 1.391 . S
C2208 C2212 1.387 . S
C2208 C2213 1.491 . S
H2209 C2210 0.950 . S
C2210 C2207 1.390 . S
C2210 H2209 0.950 . S
C2210 C2211 1.378 . S
C2211 C2210 1.378 . S
C2211 C2212 1.409 . S
C2212 C2208 1.387 . S
C2212 C2211 1.409 . S
C2212 H2214 0.951 . S
C2213 C2208 1.491 . S
C2213 C2215 1.382 . S
C2213 C2217 1.404 . S
H2214 C2212 0.951 . S
C2215 C2213 1.382 . S
C2215 C2216 1.390 . S
C2215 H2220 0.949 . S
C2216 C2215 1.390 . S
C2216 C2221 1.399 . S
C2217 C2213 1.404 . S
C2217 H2218 0.950 . S
C2217 C2219 1.375 . S
H2218 C2217 0.950 . S
C2219 C2217 1.375 . S
C2219 C2221 1.382 . S
C2219 H2223 0.950 . S
H2220 C2215 0.949 . S
C2221 C2216 1.399 . S
C2221 C2219 1.382 . S
C2221 H2222 0.952 . S
H2222 C2221 0.952 . S
H2223 C2219 0.950 . S
H2224 C2225 0.949 . S
C2225 H2224 0.949 . S
C2225 C2226 1.395 . S
C2225 C2227 1.391 . S
C2226 C2225 1.395 . S
C2226 C2229 1.390 . S
C2227 C2225 1.391 . S
C2227 C2231 1.387 . S
C2227 C2232 1.491 . S
H2228 C2229 0.950 . S
C2229 C2226 1.390 . S
C2229 H2228 0.950 . S
C2229 C2230 1.378 . S
C2230 C2229 1.378 . S
C2230 C2231 1.409 . S
C2231 C2227 1.387 . S
C2231 C2230 1.409 . S
C2231 H2233 0.951 . S
C2232 C2227 1.491 . S
C2232 C2234 1.382 . S
C2232 C2236 1.404 . S
H2233 C2231 0.951 . S
C2234 C2232 1.382 . S
C2234 C2235 1.390 . S
C2234 H2239 0.949 . S
C2235 C2234 1.390 . S
C2235 C2240 1.399 . S
C2236 C2232 1.404 . S
C2236 H2237 0.950 . S
C2236 C2238 1.375 . S
H2237 C2236 0.950 . S
C2238 C2236 1.375 . S
C2238 C2240 1.382 . S
C2238 H2242 0.950 . S
H2239 C2234 0.949 . S
C2240 C2235 1.399 . S
C2240 C2238 1.382 . S
C2240 H2241 0.952 . S
H2241 C2240 0.952 . S
H2242 C2238 0.950 . S
H2243 C2244 0.949 . S
C2244 H2243 0.949 . S
C2244 C2245 1.395 . S
C2244 C2246 1.391 . S
C2245 C2244 1.395 . S
C2245 C2248 1.390 . S
C2246 C2244 1.391 . S
C2246 C2250 1.387 . S
C2246 C2251 1.491 . S
H2247 C2248 0.950 . S
C2248 C2245 1.390 . S
C2248 H2247 0.950 . S
C2248 C2249 1.378 . S
C2249 C2248 1.378 . S
C2249 C2250 1.409 . S
C2250 C2246 1.387 . S
C2250 C2249 1.409 . S
C2250 H2252 0.951 . S
C2251 C2246 1.491 . S
C2251 C2253 1.382 . S
C2251 C2255 1.404 . S
H2252 C2250 0.951 . S
C2253 C2251 1.382 . S
C2253 C2254 1.390 . S
C2253 H2258 0.949 . S
C2254 C2253 1.390 . S
C2254 C2259 1.399 . S
C2255 C2251 1.404 . S
C2255 H2256 0.950 . S
C2255 C2257 1.375 . S
H2256 C2255 0.950 . S
C2257 C2255 1.375 . S
C2257 C2259 1.382 . S
C2257 H2261 0.950 . S
H2258 C2253 0.949 . S
C2259 C2254 1.399 . S
C2259 C2257 1.382 . S
C2259 H2260 0.952 . S
H2260 C2259 0.952 . S
H2261 C2257 0.950 . S
H2262 C2263 0.949 . S
C2263 H2262 0.949 . S
C2263 C2264 1.395 . S
C2263 C2265 1.391 . S
C2264 C2263 1.395 . S
C2264 C2267 1.390 . S
C2265 C2263 1.391 . S
C2265 C2269 1.387 . S
C2265 C2270 1.491 . S
H2266 C2267 0.950 . S
C2267 C2264 1.390 . S
C2267 H2266 0.950 . S
C2267 C2268 1.378 . S
C2268 C2267 1.378 . S
C2268 C2269 1.409 . S
C2269 C2265 1.387 . S
C2269 C2268 1.409 . S
C2269 H2271 0.951 . S
C2270 C2265 1.491 . S
C2270 C2272 1.382 . S
C2270 C2274 1.404 . S
H2271 C2269 0.951 . S
C2272 C2270 1.382 . S
C2272 C2273 1.390 . S
C2272 H2277 0.949 . S
C2273 C2272 1.390 . S
C2273 C2278 1.399 . S
C2274 C2270 1.404 . S
C2274 H2275 0.950 . S
C2274 C2276 1.375 . S
H2275 C2274 0.950 . S
C2276 C2274 1.375 . S
C2276 C2278 1.382 . S
C2276 H2280 0.950 . S
H2277 C2272 0.949 . S
C2278 C2273 1.399 . S
C2278 C2276 1.382 . S
C2278 H2279 0.952 . S
H2279 C2278 0.952 . S
H2280 C2276 0.950 . S
H2281 C2282 0.949 . S
C2282 H2281 0.949 . S
C2282 C2283 1.395 . S
C2282 C2284 1.391 . S
C2283 C2282 1.395 . S
C2283 C2286 1.390 . S
C2284 C2282 1.391 . S
C2284 C2288 1.387 . S
C2284 C2289 1.491 . S
H2285 C2286 0.950 . S
C2286 C2283 1.390 . S
C2286 H2285 0.950 . S
C2286 C2287 1.378 . S
C2287 C2286 1.378 . S
C2287 C2288 1.409 . S
C2288 C2284 1.387 . S
C2288 C2287 1.409 . S
C2288 H2290 0.951 . S
C2289 C2284 1.491 . S
C2289 C2291 1.382 . S
C2289 C2293 1.404 . S
H2290 C2288 0.951 . S
C2291 C2289 1.382 . S
C2291 C2292 1.390 . S
C2291 H2296 0.949 . S
C2292 C2291 1.390 . S
C2292 C2297 1.399 . S
C2293 C2289 1.404 . S
C2293 H2294 0.950 . S
C2293 C2295 1.375 . S
H2294 C2293 0.950 . S
C2295 C2293 1.375 . S
C2295 C2297 1.382 . S
C2295 H2299 0.950 . S
H2296 C2291 0.949 . S
C2297 C2292 1.399 . S
C2297 C2295 1.382 . S
C2297 H2298 0.952 . S
H2298 C2297 0.952 . S
H2299 C2295 0.950 . S
H2300 C2301 0.949 . S
C2301 H2300 0.949 . S
C2301 C2302 1.395 . S
C2301 C2303 1.391 . S
C2302 C2301 1.395 . S
C2302 C2305 1.390 . S
C2303 C2301 1.391 . S
C2303 C2307 1.387 . S
C2303 C2308 1.491 . S
H2304 C2305 0.950 . S
C2305 C2302 1.390 . S
C2305 H2304 0.950 . S
C2305 C2306 1.378 . S
C2306 C2305 1.378 . S
C2306 C2307 1.409 . S
C2307 C2303 1.387 . S
C2307 C2306 1.409 . S
C2307 H2309 0.951 . S
C2308 C2303 1.491 . S
C2308 C2310 1.382 . S
C2308 C2312 1.404 . S
H2309 C2307 0.951 . S
C2310 C2308 1.382 . S
C2310 C2311 1.390 . S
C2310 H2315 0.949 . S
C2311 C2310 1.390 . S
C2311 C2316 1.399 . S
C2312 C2308 1.404 . S
C2312 H2313 0.950 . S
C2312 C2314 1.375 . S
H2313 C2312 0.950 . S
C2314 C2312 1.375 . S
C2314 C2316 1.382 . S
C2314 H2318 0.950 . S
H2315 C2310 0.949 . S
C2316 C2311 1.399 . S
C2316 C2314 1.382 . S
C2316 H2317 0.952 . S
H2317 C2316 0.952 . S
H2318 C2314 0.950 . S
H2319 C2320 0.949 . S
C2320 H2319 0.949 . S
C2320 C2321 1.395 . S
C2320 C2322 1.391 . S
C2321 C2320 1.395 . S
C2321 C2324 1.390 . S
C2322 C2320 1.391 . S
C2322 C2326 1.387 . S
C2322 C2327 1.491 . S
H2323 C2324 0.950 . S
C2324 C2321 1.390 . S
C2324 H2323 0.950 . S
C2324 C2325 1.378 . S
C2325 C2324 1.378 . S
C2325 C2326 1.409 . S
C2326 C2322 1.387 . S
C2326 C2325 1.409 . S
C2326 H2328 0.951 . S
C2327 C2322 1.491 . S
C2327 C2329 1.382 . S
C2327 C2331 1.404 . S
H2328 C2326 0.951 . S
C2329 C2327 1.382 . S
C2329 C2330 1.390 . S
C2329 H2334 0.949 . S
C2330 C2329 1.390 . S
C2330 C2335 1.399 . S
C2331 C2327 1.404 . S
C2331 H2332 0.950 . S
C2331 C2333 1.375 . S
H2332 C2331 0.950 . S
C2333 C2331 1.375 . S
C2333 C2335 1.382 . S
C2333 H2337 0.950 . S
H2334 C2329 0.949 . S
C2335 C2330 1.399 . S
C2335 C2333 1.382 . S
C2335 H2336 0.952 . S
H2336 C2335 0.952 . S
H2337 C2333 0.950 . S
H2338 C2339 0.949 . S
C2339 H2338 0.949 . S
C2339 C2340 1.395 . S
C2339 C2341 1.391 . S
C2340 C2339 1.395 . S
C2340 C2343 1.390 . S
C2341 C2339 1.391 . S
C2341 C2345 1.387 . S
C2341 C2346 1.491 . S
H2342 C2343 0.950 . S
C2343 C2340 1.390 . S
C2343 H2342 0.950 . S
C2343 C2344 1.378 . S
C2344 C2343 1.378 . S
C2344 C2345 1.409 . S
C2345 C2341 1.387 . S
C2345 C2344 1.409 . S
C2345 H2347 0.951 . S
C2346 C2341 1.491 . S
C2346 C2348 1.382 . S
C2346 C2350 1.404 . S
H2347 C2345 0.951 . S
C2348 C2346 1.382 . S
C2348 C2349 1.390 . S
C2348 H2353 0.949 . S
C2349 C2348 1.390 . S
C2349 C2354 1.399 . S
C2350 C2346 1.404 . S
C2350 H2351 0.950 . S
C2350 C2352 1.375 . S
H2351 C2350 0.950 . S
C2352 C2350 1.375 . S
C2352 C2354 1.382 . S
C2352 H2356 0.950 . S
H2353 C2348 0.949 . S
C2354 C2349 1.399 . S
C2354 C2352 1.382 . S
C2354 H2355 0.952 . S
H2355 C2354 0.952 . S
H2356 C2352 0.950 . S
H2357 C2358 0.949 . S
C2358 H2357 0.949 . S
C2358 C2359 1.395 . S
C2358 C2360 1.391 . S
C2359 C2358 1.395 . S
C2359 C2362 1.390 . S
C2360 C2358 1.391 . S
C2360 C2364 1.387 . S
C2360 C2365 1.491 . S
H2361 C2362 0.950 . S
C2362 C2359 1.390 . S
C2362 H2361 0.950 . S
C2362 C2363 1.378 . S
C2363 C2362 1.378 . S
C2363 C2364 1.409 . S
C2364 C2360 1.387 . S
C2364 C2363 1.409 . S
C2364 H2366 0.951 . S
C2365 C2360 1.491 . S
C2365 C2367 1.382 . S
C2365 C2369 1.404 . S
H2366 C2364 0.951 . S
C2367 C2365 1.382 . S
C2367 C2368 1.390 . S
C2367 H2372 0.949 . S
C2368 C2367 1.390 . S
C2368 C2373 1.399 . S
C2369 C2365 1.404 . S
C2369 H2370 0.950 . S
C2369 C2371 1.375 . S
H2370 C2369 0.950 . S
C2371 C2369 1.375 . S
C2371 C2373 1.382 . S
C2371 H2375 0.950 . S
H2372 C2367 0.949 . S
C2373 C2368 1.399 . S
C2373 C2371 1.382 . S
C2373 H2374 0.952 . S
H2374 C2373 0.952 . S
H2375 C2371 0.950 . S
H2376 C2377 0.949 . S
C2377 H2376 0.949 . S
C2377 C2378 1.395 . S
C2377 C2379 1.391 . S
C2378 C2377 1.395 . S
C2378 C2381 1.390 . S
C2379 C2377 1.391 . S
C2379 C2383 1.387 . S
C2379 C2384 1.491 . S
H2380 C2381 0.950 . S
C2381 C2378 1.390 . S
C2381 H2380 0.950 . S
C2381 C2382 1.378 . S
C2382 C2381 1.378 . S
C2382 C2383 1.409 . S
C2383 C2379 1.387 . S
C2383 C2382 1.409 . S
C2383 H2385 0.951 . S
C2384 C2379 1.491 . S
C2384 C2386 1.382 . S
C2384 C2388 1.404 . S
H2385 C2383 0.951 . S
C2386 C2384 1.382 . S
C2386 C2387 1.390 . S
C2386 H2391 0.949 . S
C2387 C2386 1.390 . S
C2387 C2392 1.399 . S
C2388 C2384 1.404 . S
C2388 H2389 0.950 . S
C2388 C2390 1.375 . S
H2389 C2388 0.950 . S
C2390 C2388 1.375 . S
C2390 C2392 1.382 . S
C2390 H2394 0.950 . S
H2391 C2386 0.949 . S
C2392 C2387 1.399 . S
C2392 C2390 1.382 . S
C2392 H2393 0.952 . S
H2393 C2392 0.952 . S
H2394 C2390 0.950 . S
H2395 C2396 0.949 . S
C2396 H2395 0.949 . S
C2396 C2397 1.395 . S
C2396 C2398 1.391 . S
C2397 C2396 1.395 . S
C2397 C2400 1.390 . S
C2398 C2396 1.391 . S
C2398 C2402 1.387 . S
C2398 C2403 1.491 . S
H2399 C2400 0.950 . S
C2400 C2397 1.390 . S
C2400 H2399 0.950 . S
C2400 C2401 1.378 . S
C2401 C2400 1.378 . S
C2401 C2402 1.409 . S
C2402 C2398 1.387 . S
C2402 C2401 1.409 . S
C2402 H2404 0.951 . S
C2403 C2398 1.491 . S
C2403 C2405 1.382 . S
C2403 C2407 1.404 . S
H2404 C2402 0.951 . S
C2405 C2403 1.382 . S
C2405 C2406 1.390 . S
C2405 H2410 0.949 . S
C2406 C2405 1.390 . S
C2406 C2411 1.399 . S
C2407 C2403 1.404 . S
C2407 H2408 0.950 . S
C2407 C2409 1.375 . S
H2408 C2407 0.950 . S
C2409 C2407 1.375 . S
C2409 C2411 1.382 . S
C2409 H2413 0.950 . S
H2410 C2405 0.949 . S
C2411 C2406 1.399 . S
C2411 C2409 1.382 . S
C2411 H2412 0.952 . S
H2412 C2411 0.952 . S
H2413 C2409 0.950 . S
H2414 C2415 0.949 . S
C2415 H2414 0.949 . S
C2415 C2416 1.395 . S
C2415 C2417 1.391 . S
C2416 C2415 1.395 . S
C2416 C2419 1.390 . S
C2417 C2415 1.391 . S
C2417 C2421 1.387 . S
C2417 C2422 1.491 . S
H2418 C2419 0.950 . S
C2419 C2416 1.390 . S
C2419 H2418 0.950 . S
C2419 C2420 1.378 . S
C2420 C2419 1.378 . S
C2420 C2421 1.409 . S
C2421 C2417 1.387 . S
C2421 C2420 1.409 . S
C2421 H2423 0.951 . S
C2422 C2417 1.491 . S
C2422 C2424 1.382 . S
C2422 C2426 1.404 . S
H2423 C2421 0.951 . S
C2424 C2422 1.382 . S
C2424 C2425 1.390 . S
C2424 H2429 0.949 . S
C2425 C2424 1.390 . S
C2425 C2430 1.399 . S
C2426 C2422 1.404 . S
C2426 H2427 0.950 . S
C2426 C2428 1.375 . S
H2427 C2426 0.950 . S
C2428 C2426 1.375 . S
C2428 C2430 1.382 . S
C2428 H2432 0.950 . S
H2429 C2424 0.949 . S
C2430 C2425 1.399 . S
C2430 C2428 1.382 . S
C2430 H2431 0.952 . S
H2431 C2430 0.952 . S
H2432 C2428 0.950 . S
H2433 C2434 0.949 . S
C2434 H2433 0.949 . S
C2434 C2435 1.395 . S
C2434 C2436 1.391 . S
C2435 C2434 1.395 . S
C2435 C2438 1.390 . S
C2436 C2434 1.391 . S
C2436 C2440 1.387 . S
C2436 C2441 1.491 . S
H2437 C2438 0.950 . S
C2438 C2435 1.390 . S
C2438 H2437 0.950 . S
C2438 C2439 1.378 . S
C2439 C2438 1.378 . S
C2439 C2440 1.409 . S
C2440 C2436 1.387 . S
C2440 C2439 1.409 . S
C2440 H2442 0.951 . S
C2441 C2436 1.491 . S
C2441 C2443 1.382 . S
C2441 C2445 1.404 . S
H2442 C2440 0.951 . S
C2443 C2441 1.382 . S
C2443 C2444 1.390 . S
C2443 H2448 0.949 . S
C2444 C2443 1.390 . S
C2444 C2449 1.399 . S
C2445 C2441 1.404 . S
C2445 H2446 0.950 . S
C2445 C2447 1.375 . S
H2446 C2445 0.950 . S
C2447 C2445 1.375 . S
C2447 C2449 1.382 . S
C2447 H2451 0.950 . S
H2448 C2443 0.949 . S
C2449 C2444 1.399 . S
C2449 C2447 1.382 . S
C2449 H2450 0.952 . S
H2450 C2449 0.952 . S
H2451 C2447 0.950 . S
H2452 C2453 0.949 . S
C2453 H2452 0.949 . S
C2453 C2454 1.395 . S
C2453 C2455 1.391 . S
C2454 C2453 1.395 . S
C2454 C2457 1.390 . S
C2455 C2453 1.391 . S
C2455 C2459 1.387 . S
C2455 C2460 1.491 . S
H2456 C2457 0.950 . S
C2457 C2454 1.390 . S
C2457 H2456 0.950 . S
C2457 C2458 1.378 . S
C2458 C2457 1.378 . S
C2458 C2459 1.409 . S
C2459 C2455 1.387 . S
C2459 C2458 1.409 . S
C2459 H2461 0.951 . S
C2460 C2455 1.491 . S
C2460 C2462 1.382 . S
C2460 C2464 1.404 . S
H2461 C2459 0.951 . S
C2462 C2460 1.382 . S
C2462 C2463 1.390 . S
C2462 H2467 0.949 . S
C2463 C2462 1.390 . S
C2463 C2468 1.399 . S
C2464 C2460 1.404 . S
C2464 H2465 0.950 . S
C2464 C2466 1.375 . S
H2465 C2464 0.950 . S
C2466 C2464 1.375 . S
C2466 C2468 1.382 . S
C2466 H2470 0.950 . S
H2467 C2462 0.949 . S
C2468 C2463 1.399 . S
C2468 C2466 1.382 . S
C2468 H2469 0.952 . S
H2469 C2468 0.952 . S
H2470 C2466 0.950 . S
H2471 C2472 0.949 . S
C2472 H2471 0.949 . S
C2472 C2473 1.395 . S
C2472 C2474 1.391 . S
C2473 C2472 1.395 . S
C2473 C2476 1.390 . S
C2474 C2472 1.391 . S
C2474 C2478 1.387 . S
C2474 C2479 1.491 . S
H2475 C2476 0.950 . S
C2476 C2473 1.390 . S
C2476 H2475 0.950 . S
C2476 C2477 1.378 . S
C2477 C2476 1.378 . S
C2477 C2478 1.409 . S
C2478 C2474 1.387 . S
C2478 C2477 1.409 . S
C2478 H2480 0.951 . S
C2479 C2474 1.491 . S
C2479 C2481 1.382 . S
C2479 C2483 1.404 1_565 S
H2480 C2478 0.951 . S
C2481 C2479 1.382 . S
C2481 C2482 1.381 1_565 S
C2481 H2486 0.949 . S
C2482 C2481 1.381 1_545 S
C2482 C2487 1.406 . S
C2483 C2479 1.404 1_545 S
C2483 H2484 0.950 . S
C2483 C2485 1.375 . S
H2484 C2483 0.950 . S
C2485 C2483 1.375 . S
C2485 C2487 1.382 . S
C2485 H2489 0.950 . S
H2486 C2481 0.949 . S
C2487 C2482 1.406 . S
C2487 C2485 1.382 . S
C2487 H2488 0.952 . S
H2488 C2487 0.952 . S
H2489 C2485 0.950 . S
H2490 C2491 0.949 . S
C2491 H2490 0.949 . S
C2491 C2492 1.395 . S
C2491 C2493 1.391 . S
C2492 C2491 1.395 . S
C2492 C2495 1.390 . S
C2493 C2491 1.391 . S
C2493 C2497 1.387 . S
C2493 C2498 1.491 . S
H2494 C2495 0.950 . S
C2495 C2492 1.390 . S
C2495 H2494 0.950 . S
C2495 C2496 1.378 . S
C2496 C2495 1.378 . S
C2496 C2497 1.409 . S
C2497 C2493 1.387 . S
C2497 C2496 1.409 . S
C2497 H2499 0.951 . S
C2498 C2493 1.491 . S
C2498 C2500 1.382 . S
C2498 C2502 1.404 . S
H2499 C2497 0.951 . S
C2500 C2498 1.382 . S
C2500 C2501 1.390 . S
C2500 H2505 0.949 . S
C2501 C2500 1.390 . S
C2501 C2506 1.399 . S
C2502 C2498 1.404 . S
C2502 H2503 0.950 . S
C2502 C2504 1.375 . S
H2503 C2502 0.950 . S
C2504 C2502 1.375 . S
C2504 C2506 1.382 . S
C2504 H2508 0.950 . S
H2505 C2500 0.949 . S
C2506 C2501 1.399 . S
C2506 C2504 1.382 . S
C2506 H2507 0.952 . S
H2507 C2506 0.952 . S
H2508 C2504 0.950 . S
H2509 C2510 0.949 . S
C2510 H2509 0.949 . S
C2510 C2511 1.395 . S
C2510 C2512 1.391 . S
C2511 C2510 1.395 . S
C2511 C2514 1.390 . S
C2512 C2510 1.391 . S
C2512 C2516 1.387 . S
C2512 C2517 1.491 . S
H2513 C2514 0.950 . S
C2514 C2511 1.390 . S
C2514 H2513 0.950 . S
C2514 C2515 1.378 . S
C2515 C2514 1.378 . S
C2515 C2516 1.409 . S
C2516 C2512 1.387 . S
C2516 C2515 1.409 . S
C2516 H2518 0.951 . S
C2517 C2512 1.491 . S
C2517 C2519 1.382 . S
C2517 C2521 1.404 1_545 S
H2518 C2516 0.951 . S
C2519 C2517 1.382 . S
C2519 C2520 1.397 . S
C2519 H2524 0.949 . S
C2520 C2519 1.397 . S
C2520 C2525 1.393 1_545 S
C2521 C2517 1.404 1_565 S
C2521 H2522 0.950 . S
C2521 C2523 1.375 . S
H2522 C2521 0.950 . S
C2523 C2521 1.375 . S
C2523 C2525 1.382 . S
C2523 H2527 0.950 . S
H2524 C2519 0.949 . S
C2525 C2520 1.393 1_565 S
C2525 C2523 1.382 . S
C2525 H2526 0.952 . S
H2526 C2525 0.952 . S
H2527 C2523 0.950 . S
H2528 C2529 0.949 . S
C2529 H2528 0.949 . S
C2529 C2530 1.395 . S
C2529 C2531 1.391 . S
C2530 C2529 1.395 . S
C2530 C2533 1.390 . S
C2531 C2529 1.391 . S
C2531 C2535 1.387 . S
C2531 C2536 1.491 . S
H2532 C2533 0.950 . S
C2533 C2530 1.390 . S
C2533 H2532 0.950 . S
C2533 C2534 1.378 . S
C2534 C2533 1.378 . S
C2534 C2535 1.409 . S
C2535 C2531 1.387 . S
C2535 C2534 1.409 . S
C2535 H2537 0.951 . S
C2536 C2531 1.491 . S
C2536 C2538 1.382 . S
C2536 C2540 1.404 . S
H2537 C2535 0.951 . S
C2538 C2536 1.382 . S
C2538 C2539 1.390 . S
C2538 H2543 0.949 . S
C2539 C2538 1.390 . S
C2539 C2544 1.399 . S
C2540 C2536 1.404 . S
C2540 H2541 0.950 . S
C2540 C2542 1.375 . S
H2541 C2540 0.950 . S
C2542 C2540 1.375 . S
C2542 C2544 1.382 . S
C2542 H2546 0.950 . S
H2543 C2538 0.949 . S
C2544 C2539 1.399 . S
C2544 C2542 1.382 . S
C2544 H2545 0.952 . S
H2545 C2544 0.952 . S
H2546 C2542 0.950 . S
H2547 C2548 0.949 . S
C2548 H2547 0.949 . S
C2548 C2549 1.395 . S
C2548 C2550 1.391 . S
C2549 C2548 1.395 . S
C2549 C2552 1.390 . S
C2550 C2548 1.391 . S
C2550 C2554 1.387 . S
C2550 C2555 1.491 . S
H2551 C2552 0.950 . S
C2552 C2549 1.390 . S
C2552 H2551 0.950 . S
C2552 C2553 1.378 . S
C2553 C2552 1.378 . S
C2553 C2554 1.409 . S
C2554 C2550 1.387 . S
C2554 C2553 1.409 . S
C2554 H2556 0.951 . S
C2555 C2550 1.491 . S
C2555 C2557 1.382 . S
C2555 C2559 1.404 . S
H2556 C2554 0.951 . S
C2557 C2555 1.382 . S
C2557 C2558 1.390 . S
C2557 H2562 0.949 . S
C2558 C2557 1.390 . S
C2558 C2563 1.399 . S
C2559 C2555 1.404 . S
C2559 H2560 0.950 . S
C2559 C2561 1.375 . S
H2560 C2559 0.950 . S
C2561 C2559 1.375 . S
C2561 C2563 1.382 . S
C2561 H2565 0.950 . S
H2562 C2557 0.949 . S
C2563 C2558 1.399 . S
C2563 C2561 1.382 . S
C2563 H2564 0.952 . S
H2564 C2563 0.952 . S
H2565 C2561 0.950 . S
H2566 C2567 0.949 . S
C2567 H2566 0.949 . S
C2567 C2568 1.395 . S
C2567 C2569 1.391 . S
C2568 C2567 1.395 . S
C2568 C2571 1.390 . S
C2569 C2567 1.391 . S
C2569 C2573 1.387 . S
C2569 C2574 1.491 . S
H2570 C2571 0.950 . S
C2571 C2568 1.390 . S
C2571 H2570 0.950 . S
C2571 C2572 1.378 . S
C2572 C2571 1.378 . S
C2572 C2573 1.409 . S
C2573 C2569 1.387 . S
C2573 C2572 1.409 . S
C2573 H2575 0.951 . S
C2574 C2569 1.491 . S
C2574 C2576 1.382 . S
C2574 C2578 1.404 . S
H2575 C2573 0.951 . S
C2576 C2574 1.382 . S
C2576 C2577 1.390 . S
C2576 H2581 0.949 . S
C2577 C2576 1.390 . S
C2577 C2582 1.399 . S
C2578 C2574 1.404 . S
C2578 H2579 0.950 . S
C2578 C2580 1.375 . S
H2579 C2578 0.950 . S
C2580 C2578 1.375 . S
C2580 C2582 1.382 . S
C2580 H2584 0.950 . S
H2581 C2576 0.949 . S
C2582 C2577 1.399 . S
C2582 C2580 1.382 . S
C2582 H2583 0.952 . S
H2583 C2582 0.952 . S
H2584 C2580 0.950 . S
H2585 C2586 0.949 . S
C2586 H2585 0.949 . S
C2586 C2587 1.395 . S
C2586 C2588 1.391 . S
C2587 C2586 1.395 . S
C2587 C2590 1.390 . S
C2588 C2586 1.391 . S
C2588 C2592 1.387 . S
C2588 C2593 1.491 . S
H2589 C2590 0.950 . S
C2590 C2587 1.390 . S
C2590 H2589 0.950 . S
C2590 C2591 1.378 . S
C2591 C2590 1.378 . S
C2591 C2592 1.409 . S
C2592 C2588 1.387 . S
C2592 C2591 1.409 . S
C2592 H2594 0.951 . S
C2593 C2588 1.491 . S
C2593 C2595 1.382 . S
C2593 C2597 1.404 . S
H2594 C2592 0.951 . S
C2595 C2593 1.382 . S
C2595 C2596 1.390 . S
C2595 H2600 0.949 . S
C2596 C2595 1.390 . S
C2596 C2601 1.399 . S
C2597 C2593 1.404 . S
C2597 H2598 0.950 . S
C2597 C2599 1.375 . S
H2598 C2597 0.950 . S
C2599 C2597 1.375 . S
C2599 C2601 1.382 . S
C2599 H2603 0.950 . S
H2600 C2595 0.949 . S
C2601 C2596 1.399 . S
C2601 C2599 1.382 . S
C2601 H2602 0.952 . S
H2602 C2601 0.952 . S
H2603 C2599 0.950 . S
H2604 C2605 0.949 . S
C2605 H2604 0.949 . S
C2605 C2606 1.395 . S
C2605 C2607 1.391 . S
C2606 C2605 1.395 . S
C2606 C2609 1.390 . S
C2607 C2605 1.391 . S
C2607 C2611 1.387 . S
C2607 C2612 1.491 . S
H2608 C2609 0.950 . S
C2609 C2606 1.390 . S
C2609 H2608 0.950 . S
C2609 C2610 1.378 . S
C2610 C2609 1.378 . S
C2610 C2611 1.409 . S
C2611 C2607 1.387 . S
C2611 C2610 1.409 . S
C2611 H2613 0.951 . S
C2612 C2607 1.491 . S
C2612 C2614 1.382 . S
C2612 C2616 1.404 . S
H2613 C2611 0.951 . S
C2614 C2612 1.382 . S
C2614 C2615 1.390 . S
C2614 H2619 0.949 . S
C2615 C2614 1.390 . S
C2615 C2620 1.399 . S
C2616 C2612 1.404 . S
C2616 H2617 0.950 . S
C2616 C2618 1.375 . S
H2617 C2616 0.950 . S
C2618 C2616 1.375 . S
C2618 C2620 1.382 . S
C2618 H2622 0.950 . S
H2619 C2614 0.949 . S
C2620 C2615 1.399 . S
C2620 C2618 1.382 . S
C2620 H2621 0.952 . S
H2621 C2620 0.952 . S
H2622 C2618 0.950 . S
H2623 C2624 0.949 . S
C2624 H2623 0.949 . S
C2624 C2625 1.395 . S
C2624 C2626 1.391 . S
C2625 C2624 1.395 . S
C2625 C2628 1.390 . S
C2626 C2624 1.391 . S
C2626 C2630 1.387 . S
C2626 C2631 1.491 . S
H2627 C2628 0.950 . S
C2628 C2625 1.390 . S
C2628 H2627 0.950 . S
C2628 C2629 1.378 . S
C2629 C2628 1.378 . S
C2629 C2630 1.409 . S
C2630 C2626 1.387 . S
C2630 C2629 1.409 . S
C2630 H2632 0.951 . S
C2631 C2626 1.491 . S
C2631 C2633 1.382 . S
C2631 C2635 1.404 . S
H2632 C2630 0.951 . S
C2633 C2631 1.382 . S
C2633 C2634 1.390 . S
C2633 H2638 0.949 . S
C2634 C2633 1.390 . S
C2634 C2639 1.399 . S
C2635 C2631 1.404 . S
C2635 H2636 0.950 . S
C2635 C2637 1.375 . S
H2636 C2635 0.950 . S
C2637 C2635 1.375 . S
C2637 C2639 1.382 . S
C2637 H2641 0.950 . S
H2638 C2633 0.949 . S
C2639 C2634 1.399 . S
C2639 C2637 1.382 . S
C2639 H2640 0.952 . S
H2640 C2639 0.952 . S
H2641 C2637 0.950 . S
H2642 C2643 0.949 . S
C2643 H2642 0.949 . S
C2643 C2644 1.395 . S
C2643 C2645 1.391 . S
C2644 C2643 1.395 . S
C2644 C2647 1.390 . S
C2645 C2643 1.391 . S
C2645 C2649 1.387 . S
C2645 C2650 1.491 . S
H2646 C2647 0.950 . S
C2647 C2644 1.390 . S
C2647 H2646 0.950 . S
C2647 C2648 1.378 . S
C2648 C2647 1.378 . S
C2648 C2649 1.409 . S
C2649 C2645 1.387 . S
C2649 C2648 1.409 . S
C2649 H2651 0.951 . S
C2650 C2645 1.491 . S
C2650 C2652 1.382 . S
C2650 C2654 1.404 . S
H2651 C2649 0.951 . S
C2652 C2650 1.382 . S
C2652 C2653 1.390 . S
C2652 H2657 0.949 . S
C2653 C2652 1.390 . S
C2653 C2658 1.399 . S
C2654 C2650 1.404 . S
C2654 H2655 0.950 . S
C2654 C2656 1.375 . S
H2655 C2654 0.950 . S
C2656 C2654 1.375 . S
C2656 C2658 1.382 . S
C2656 H2660 0.950 . S
H2657 C2652 0.949 . S
C2658 C2653 1.399 . S
C2658 C2656 1.382 . S
C2658 H2659 0.952 . S
H2659 C2658 0.952 . S
H2660 C2656 0.950 . S
H2661 C2662 0.949 . S
C2662 H2661 0.949 . S
C2662 C2663 1.395 . S
C2662 C2664 1.391 . S
C2663 C2662 1.395 . S
C2663 C2666 1.390 . S
C2664 C2662 1.391 . S
C2664 C2668 1.387 . S
C2664 C2669 1.491 . S
H2665 C2666 0.950 . S
C2666 C2663 1.390 . S
C2666 H2665 0.950 . S
C2666 C2667 1.378 . S
C2667 C2666 1.378 . S
C2667 C2668 1.409 . S
C2668 C2664 1.387 . S
C2668 C2667 1.409 . S
C2668 H2670 0.951 . S
C2669 C2664 1.491 . S
C2669 C2671 1.382 . S
C2669 C2673 1.404 . S
H2670 C2668 0.951 . S
C2671 C2669 1.382 . S
C2671 C2672 1.390 . S
C2671 H2676 0.949 . S
C2672 C2671 1.390 . S
C2672 C2677 1.399 . S
C2673 C2669 1.404 . S
C2673 H2674 0.950 . S
C2673 C2675 1.375 . S
H2674 C2673 0.950 . S
C2675 C2673 1.375 . S
C2675 C2677 1.382 . S
C2675 H2679 0.950 . S
H2676 C2671 0.949 . S
C2677 C2672 1.399 . S
C2677 C2675 1.382 . S
C2677 H2678 0.952 . S
H2678 C2677 0.952 . S
H2679 C2675 0.950 . S
H2680 C2681 0.949 . S
C2681 H2680 0.949 . S
C2681 C2682 1.395 . S
C2681 C2683 1.391 . S
C2682 C2681 1.395 . S
C2682 C2685 1.390 . S
C2683 C2681 1.391 . S
C2683 C2687 1.387 . S
C2683 C2688 1.491 . S
H2684 C2685 0.950 . S
C2685 C2682 1.390 . S
C2685 H2684 0.950 . S
C2685 C2686 1.378 . S
C2686 C2685 1.378 . S
C2686 C2687 1.409 . S
C2687 C2683 1.387 . S
C2687 C2686 1.409 . S
C2687 H2689 0.951 . S
C2688 C2683 1.491 . S
C2688 C2690 1.382 . S
C2688 C2692 1.404 . S
H2689 C2687 0.951 . S
C2690 C2688 1.382 . S
C2690 C2691 1.390 . S
C2690 H2695 0.949 . S
C2691 C2690 1.390 . S
C2691 C2696 1.399 . S
C2692 C2688 1.404 . S
C2692 H2693 0.950 . S
C2692 C2694 1.375 . S
H2693 C2692 0.950 . S
C2694 C2692 1.375 . S
C2694 C2696 1.382 . S
C2694 H2698 0.950 . S
H2695 C2690 0.949 . S
C2696 C2691 1.399 . S
C2696 C2694 1.382 . S
C2696 H2697 0.952 . S
H2697 C2696 0.952 . S
H2698 C2694 0.950 . S
H2699 C2700 0.949 . S
C2700 H2699 0.949 . S
C2700 C2701 1.395 . S
C2700 C2702 1.391 . S
C2701 C2700 1.395 . S
C2701 C2704 1.390 . S
C2702 C2700 1.391 . S
C2702 C2706 1.387 . S
C2702 C2707 1.491 . S
H2703 C2704 0.950 . S
C2704 C2701 1.390 . S
C2704 H2703 0.950 . S
C2704 C2705 1.378 . S
C2705 C2704 1.378 . S
C2705 C2706 1.409 . S
C2706 C2702 1.387 . S
C2706 C2705 1.409 . S
C2706 H2708 0.951 . S
C2707 C2702 1.491 . S
C2707 C2709 1.382 . S
C2707 C2711 1.404 . S
H2708 C2706 0.951 . S
C2709 C2707 1.382 . S
C2709 C2710 1.390 . S
C2709 H2714 0.949 . S
C2710 C2709 1.390 . S
C2710 C2715 1.399 . S
C2711 C2707 1.404 . S
C2711 H2712 0.950 . S
C2711 C2713 1.375 . S
H2712 C2711 0.950 . S
C2713 C2711 1.375 . S
C2713 C2715 1.382 . S
C2713 H2717 0.950 . S
H2714 C2709 0.949 . S
C2715 C2710 1.399 . S
C2715 C2713 1.382 . S
C2715 H2716 0.952 . S
H2716 C2715 0.952 . S
H2717 C2713 0.950 . S
H2718 C2719 0.949 . S
C2719 H2718 0.949 . S
C2719 C2720 1.395 . S
C2719 C2721 1.391 . S
C2720 C2719 1.395 . S
C2720 C2723 1.390 . S
C2721 C2719 1.391 . S
C2721 C2725 1.387 . S
C2721 C2726 1.491 . S
H2722 C2723 0.950 . S
C2723 C2720 1.390 . S
C2723 H2722 0.950 . S
C2723 C2724 1.378 . S
C2724 C2723 1.378 . S
C2724 C2725 1.409 . S
C2725 C2721 1.387 . S
C2725 C2724 1.409 . S
C2725 H2727 0.951 . S
C2726 C2721 1.491 . S
C2726 C2728 1.382 . S
C2726 C2730 1.404 . S
H2727 C2725 0.951 . S
C2728 C2726 1.382 . S
C2728 C2729 1.390 . S
C2728 H2733 0.949 . S
C2729 C2728 1.390 . S
C2729 C2734 1.399 . S
C2730 C2726 1.404 . S
C2730 H2731 0.950 . S
C2730 C2732 1.375 . S
H2731 C2730 0.950 . S
C2732 C2730 1.375 . S
C2732 C2734 1.382 . S
C2732 H2736 0.950 . S
H2733 C2728 0.949 . S
C2734 C2729 1.399 . S
C2734 C2732 1.382 . S
C2734 H2735 0.952 . S
H2735 C2734 0.952 . S
H2736 C2732 0.950 . S
H2737 C2738 0.949 . S
C2738 H2737 0.949 . S
C2738 C2739 1.395 . S
C2738 C2740 1.391 . S
C2739 C2738 1.395 . S
C2739 C2742 1.390 . S
C2740 C2738 1.391 . S
C2740 C2744 1.387 . S
C2740 C2745 1.491 . S
H2741 C2742 0.950 . S
C2742 C2739 1.390 . S
C2742 H2741 0.950 . S
C2742 C2743 1.378 . S
C2743 C2742 1.378 . S
C2743 C2744 1.409 . S
C2744 C2740 1.387 . S
C2744 C2743 1.409 . S
C2744 H2746 0.951 . S
C2745 C2740 1.491 . S
C2745 C2747 1.382 . S
C2745 C2749 1.404 . S
H2746 C2744 0.951 . S
C2747 C2745 1.382 . S
C2747 C2748 1.390 . S
C2747 H2752 0.949 . S
C2748 C2747 1.390 . S
C2748 C2753 1.399 . S
C2749 C2745 1.404 . S
C2749 H2750 0.950 . S
C2749 C2751 1.375 . S
H2750 C2749 0.950 . S
C2751 C2749 1.375 . S
C2751 C2753 1.382 . S
C2751 H2755 0.950 . S
H2752 C2747 0.949 . S
C2753 C2748 1.399 . S
C2753 C2751 1.382 . S
C2753 H2754 0.952 . S
H2754 C2753 0.952 . S
H2755 C2751 0.950 . S
H2756 C2757 0.949 . S
C2757 H2756 0.949 . S
C2757 C2758 1.395 . S
C2757 C2759 1.391 . S
C2758 C2757 1.395 . S
C2758 C2761 1.390 . S
C2759 C2757 1.391 . S
C2759 C2763 1.387 . S
C2759 C2764 1.491 . S
H2760 C2761 0.950 . S
C2761 C2758 1.390 . S
C2761 H2760 0.950 . S
C2761 C2762 1.378 . S
C2762 C2761 1.378 . S
C2762 C2763 1.409 . S
C2763 C2759 1.387 . S
C2763 C2762 1.409 . S
C2763 H2765 0.951 . S
C2764 C2759 1.491 . S
C2764 C2766 1.382 . S
C2764 C2768 1.404 . S
H2765 C2763 0.951 . S
C2766 C2764 1.382 . S
C2766 C2767 1.390 . S
C2766 H2771 0.949 . S
C2767 C2766 1.390 . S
C2767 C2772 1.399 . S
C2768 C2764 1.404 . S
C2768 H2769 0.950 . S
C2768 C2770 1.375 . S
H2769 C2768 0.950 . S
C2770 C2768 1.375 . S
C2770 C2772 1.382 . S
C2770 H2774 0.950 . S
H2771 C2766 0.949 . S
C2772 C2767 1.399 . S
C2772 C2770 1.382 . S
C2772 H2773 0.952 . S
H2773 C2772 0.952 . S
H2774 C2770 0.950 . S
H2775 C2776 0.949 . S
C2776 H2775 0.949 . S
C2776 C2777 1.395 . S
C2776 C2778 1.391 . S
C2777 C2776 1.395 . S
C2777 C2780 1.390 . S
C2778 C2776 1.391 . S
C2778 C2782 1.387 . S
C2778 C2783 1.491 . S
H2779 C2780 0.950 . S
C2780 C2777 1.390 . S
C2780 H2779 0.950 . S
C2780 C2781 1.378 . S
C2781 C2780 1.378 . S
C2781 C2782 1.409 . S
C2782 C2778 1.387 . S
C2782 C2781 1.409 . S
C2782 H2784 0.951 . S
C2783 C2778 1.491 . S
C2783 C2785 1.382 . S
C2783 C2787 1.404 . S
H2784 C2782 0.951 . S
C2785 C2783 1.382 . S
C2785 C2786 1.390 . S
C2785 H2790 0.949 . S
C2786 C2785 1.390 . S
C2786 C2791 1.399 . S
C2787 C2783 1.404 . S
C2787 H2788 0.950 . S
C2787 C2789 1.375 . S
H2788 C2787 0.950 . S
C2789 C2787 1.375 . S
C2789 C2791 1.382 . S
C2789 H2793 0.950 . S
H2790 C2785 0.949 . S
C2791 C2786 1.399 . S
C2791 C2789 1.382 . S
C2791 H2792 0.952 . S
H2792 C2791 0.952 . S
H2793 C2789 0.950 . S
H2794 C2795 0.949 . S
C2795 H2794 0.949 . S
C2795 C2796 1.395 . S
C2795 C2797 1.391 . S
C2796 C2795 1.395 . S
C2796 C2799 1.390 . S
C2797 C2795 1.391 . S
C2797 C2801 1.387 . S
C2797 C2802 1.491 . S
H2798 C2799 0.950 . S
C2799 C2796 1.390 . S
C2799 H2798 0.950 . S
C2799 C2800 1.378 . S
C2800 C2799 1.378 . S
C2800 C2801 1.409 . S
C2801 C2797 1.387 . S
C2801 C2800 1.409 . S
C2801 H2803 0.951 . S
C2802 C2797 1.491 . S
C2802 C2804 1.382 . S
C2802 C2806 1.404 . S
H2803 C2801 0.951 . S
C2804 C2802 1.382 . S
C2804 C2805 1.390 . S
C2804 H2809 0.949 . S
C2805 C2804 1.390 . S
C2805 C2810 1.399 . S
C2806 C2802 1.404 . S
C2806 H2807 0.950 . S
C2806 C2808 1.375 . S
H2807 C2806 0.950 . S
C2808 C2806 1.375 . S
C2808 C2810 1.382 . S
C2808 H2812 0.950 . S
H2809 C2804 0.949 . S
C2810 C2805 1.399 . S
C2810 C2808 1.382 . S
C2810 H2811 0.952 . S
H2811 C2810 0.952 . S
H2812 C2808 0.950 . S
H2813 C2814 0.949 . S
C2814 H2813 0.949 . S
C2814 C2815 1.395 . S
C2814 C2816 1.391 . S
C2815 C2814 1.395 . S
C2815 C2818 1.390 . S
C2816 C2814 1.391 . S
C2816 C2820 1.387 . S
C2816 C2821 1.491 . S
H2817 C2818 0.950 . S
C2818 C2815 1.390 . S
C2818 H2817 0.950 . S
C2818 C2819 1.378 . S
C2819 C2818 1.378 . S
C2819 C2820 1.409 . S
C2820 C2816 1.387 . S
C2820 C2819 1.409 . S
C2820 H2822 0.951 . S
C2821 C2816 1.491 . S
C2821 C2823 1.382 . S
C2821 C2825 1.404 . S
H2822 C2820 0.951 . S
C2823 C2821 1.382 . S
C2823 C2824 1.390 . S
C2823 H2828 0.949 . S
C2824 C2823 1.390 . S
C2824 C2829 1.399 . S
C2825 C2821 1.404 . S
C2825 H2826 0.950 . S
C2825 C2827 1.375 . S
H2826 C2825 0.950 . S
C2827 C2825 1.375 . S
C2827 C2829 1.382 . S
C2827 H2831 0.950 . S
H2828 C2823 0.949 . S
C2829 C2824 1.399 . S
C2829 C2827 1.382 . S
C2829 H2830 0.952 . S
H2830 C2829 0.952 . S
H2831 C2827 0.950 . S
C2832 C2833 1.387 . S
C2832 H2836 0.950 . S
C2832 C2841 1.390 . S
C2833 C2832 1.387 . S
C2833 C2835 1.387 . S
H2834 C2841 0.950 . S
C2835 C2833 1.387 . S
C2835 C2837 1.390 . S
C2835 H2839 0.950 . S
H2836 C2832 0.950 . S
C2837 C2835 1.390 . S
C2837 C2838 1.387 . S
C2837 H2840 0.950 . S
C2838 C2837 1.387 . S
C2838 C2841 1.387 . S
H2839 C2835 0.950 . S
H2840 C2837 0.950 . S
C2841 C2832 1.390 . S
C2841 H2834 0.950 . S
C2841 C2838 1.387 . S
C2842 C2843 1.387 . S
C2842 H2846 0.950 . S
C2842 C2851 1.390 . S
C2843 C2842 1.387 . S
C2843 C2845 1.387 . S
H2844 C2851 0.950 . S
C2845 C2843 1.387 . S
C2845 C2847 1.390 . S
C2845 H2849 0.950 . S
H2846 C2842 0.950 . S
C2847 C2845 1.390 . S
C2847 C2848 1.387 . S
C2847 H2850 0.950 . S
C2848 C2847 1.387 . S
C2848 C2851 1.387 . S
H2849 C2845 0.950 . S
H2850 C2847 0.950 . S
C2851 C2842 1.390 . S
C2851 H2844 0.950 . S
C2851 C2848 1.387 . S
C2852 C2853 1.387 . S
C2852 H2856 0.950 . S
C2852 C2861 1.390 . S
C2853 C2852 1.387 . S
C2853 C2855 1.387 . S
H2854 C2861 0.950 . S
C2855 C2853 1.387 . S
C2855 C2857 1.390 . S
C2855 H2859 0.950 . S
H2856 C2852 0.950 . S
C2857 C2855 1.390 . S
C2857 C2858 1.387 . S
C2857 H2860 0.950 . S
C2858 C2857 1.387 . S
C2858 C2861 1.387 . S
H2859 C2855 0.950 . S
H2860 C2857 0.950 . S
C2861 C2852 1.390 . S
C2861 H2854 0.950 . S
C2861 C2858 1.387 . S
C2862 C2863 1.387 . S
C2862 H2866 0.950 . S
C2862 C2871 1.390 . S
C2863 C2862 1.387 . S
C2863 C2865 1.387 . S
H2864 C2871 0.950 . S
C2865 C2863 1.387 . S
C2865 C2867 1.390 . S
C2865 H2869 0.950 . S
H2866 C2862 0.950 . S
C2867 C2865 1.390 . S
C2867 C2868 1.387 . S
C2867 H2870 0.950 . S
C2868 C2867 1.387 . S
C2868 C2871 1.387 . S
H2869 C2865 0.950 . S
H2870 C2867 0.950 . S
C2871 C2862 1.390 . S
C2871 H2864 0.950 . S
C2871 C2868 1.387 . S
C2872 C2873 1.387 . S
C2872 H2876 0.950 . S
C2872 C2881 1.390 . S
C2873 C2872 1.387 . S
C2873 C2875 1.387 . S
H2874 C2881 0.950 . S
C2875 C2873 1.387 . S
C2875 C2877 1.390 . S
C2875 H2879 0.950 . S
H2876 C2872 0.950 . S
C2877 C2875 1.390 . S
C2877 C2878 1.387 . S
C2877 H2880 0.950 . S
C2878 C2877 1.387 . S
C2878 C2881 1.387 . S
H2879 C2875 0.950 . S
H2880 C2877 0.950 . S
C2881 C2872 1.390 . S
C2881 H2874 0.950 . S
C2881 C2878 1.387 . S
C2882 C2883 1.387 . S
C2882 H2886 0.950 . S
C2882 C2891 1.390 . S
C2883 C2882 1.387 . S
C2883 C2885 1.387 . S
H2884 C2891 0.950 . S
C2885 C2883 1.387 . S
C2885 C2887 1.390 . S
C2885 H2889 0.950 . S
H2886 C2882 0.950 . S
C2887 C2885 1.390 . S
C2887 C2888 1.387 . S
C2887 H2890 0.950 . S
C2888 C2887 1.387 . S
C2888 C2891 1.387 . S
H2889 C2885 0.950 . S
H2890 C2887 0.950 . S
C2891 C2882 1.390 . S
C2891 H2884 0.950 . S
C2891 C2888 1.387 . S
C2892 C2893 1.387 . S
C2892 H2896 0.950 . S
C2892 C2901 1.390 . S
C2893 C2892 1.387 . S
C2893 C2895 1.387 . S
H2894 C2901 0.950 . S
C2895 C2893 1.387 . S
C2895 C2897 1.390 . S
C2895 H2899 0.950 . S
H2896 C2892 0.950 . S
C2897 C2895 1.390 . S
C2897 C2898 1.387 . S
C2897 H2900 0.950 . S
C2898 C2897 1.387 . S
C2898 C2901 1.387 . S
H2899 C2895 0.950 . S
H2900 C2897 0.950 . S
C2901 C2892 1.390 . S
C2901 H2894 0.950 . S
C2901 C2898 1.387 . S
C2902 C2903 1.387 . S
C2902 H2906 0.950 . S
C2902 C2911 1.390 . S
C2903 C2902 1.387 . S
C2903 C2905 1.387 . S
H2904 C2911 0.950 . S
C2905 C2903 1.387 . S
C2905 C2907 1.390 . S
C2905 H2909 0.950 . S
H2906 C2902 0.950 . S
C2907 C2905 1.390 . S
C2907 C2908 1.387 . S
C2907 H2910 0.950 . S
C2908 C2907 1.387 . S
C2908 C2911 1.387 . S
H2909 C2905 0.950 . S
H2910 C2907 0.950 . S
C2911 C2902 1.390 . S
C2911 H2904 0.950 . S
C2911 C2908 1.387 . S
C2912 C2913 1.387 . S
C2912 H2916 0.950 . S
C2912 C2921 1.390 . S
C2913 C2912 1.387 . S
C2913 C2915 1.387 . S
H2914 C2921 0.950 . S
C2915 C2913 1.387 . S
C2915 C2917 1.390 . S
C2915 H2919 0.950 . S
H2916 C2912 0.950 . S
C2917 C2915 1.390 . S
C2917 C2918 1.387 . S
C2917 H2920 0.950 . S
C2918 C2917 1.387 . S
C2918 C2921 1.387 . S
H2919 C2915 0.950 . S
H2920 C2917 0.950 . S
C2921 C2912 1.390 . S
C2921 H2914 0.950 . S
C2921 C2918 1.387 . S
C2922 C2923 1.387 . S
C2922 H2926 0.950 . S
C2922 C2931 1.390 . S
C2923 C2922 1.387 . S
C2923 C2925 1.387 . S
H2924 C2931 0.950 . S
C2925 C2923 1.387 . S
C2925 C2927 1.390 . S
C2925 H2929 0.950 . S
H2926 C2922 0.950 . S
C2927 C2925 1.390 . S
C2927 C2928 1.387 . S
C2927 H2930 0.950 . S
C2928 C2927 1.387 . S
C2928 C2931 1.387 . S
H2929 C2925 0.950 . S
H2930 C2927 0.950 . S
C2931 C2922 1.390 . S
C2931 H2924 0.950 . S
C2931 C2928 1.387 . S
C2932 C2933 1.387 . S
C2932 H2936 0.950 . S
C2932 C2941 1.390 . S
C2933 C2932 1.387 . S
C2933 C2935 1.387 . S
H2934 C2941 0.950 . S
C2935 C2933 1.387 . S
C2935 C2937 1.390 . S
C2935 H2939 0.950 . S
H2936 C2932 0.950 . S
C2937 C2935 1.390 . S
C2937 C2938 1.387 . S
C2937 H2940 0.950 . S
C2938 C2937 1.387 . S
C2938 C2941 1.387 . S
H2939 C2935 0.950 . S
H2940 C2937 0.950 . S
C2941 C2932 1.390 . S
C2941 H2934 0.950 . S
C2941 C2938 1.387 . S
C2942 C2943 1.387 . S
C2942 H2946 0.950 . S
C2942 C2951 1.390 . S
C2943 C2942 1.387 . S
C2943 C2945 1.387 . S
H2944 C2951 0.950 . S
C2945 C2943 1.387 . S
C2945 C2947 1.390 . S
C2945 H2949 0.950 . S
H2946 C2942 0.950 . S
C2947 C2945 1.390 . S
C2947 C2948 1.387 . S
C2947 H2950 0.950 . S
C2948 C2947 1.387 . S
C2948 C2951 1.387 . S
H2949 C2945 0.950 . S
H2950 C2947 0.950 . S
C2951 C2942 1.390 . S
C2951 H2944 0.950 . S
C2951 C2948 1.387 . S
C2952 C2953 1.387 . S
C2952 H2956 0.950 . S
C2952 C2961 1.390 . S
C2953 C2952 1.387 . S
C2953 C2955 1.387 . S
H2954 C2961 0.950 . S
C2955 C2953 1.387 . S
C2955 C2957 1.390 . S
C2955 H2959 0.950 . S
H2956 C2952 0.950 . S
C2957 C2955 1.390 . S
C2957 C2958 1.387 . S
C2957 H2960 0.950 . S
C2958 C2957 1.387 . S
C2958 C2961 1.387 . S
H2959 C2955 0.950 . S
H2960 C2957 0.950 . S
C2961 C2952 1.390 . S
C2961 H2954 0.950 . S
C2961 C2958 1.387 . S
C2962 C2963 1.387 . S
C2962 H2966 0.950 . S
C2962 C2971 1.390 . S
C2963 C2962 1.387 . S
C2963 C2965 1.387 . S
H2964 C2971 0.950 . S
C2965 C2963 1.387 . S
C2965 C2967 1.390 . S
C2965 H2969 0.950 . S
H2966 C2962 0.950 . S
C2967 C2965 1.390 . S
C2967 C2968 1.387 . S
C2967 H2970 0.950 . S
C2968 C2967 1.387 . S
C2968 C2971 1.387 . S
H2969 C2965 0.950 . S
H2970 C2967 0.950 . S
C2971 C2962 1.390 . S
C2971 H2964 0.950 . S
C2971 C2968 1.387 . S
C2972 C2973 1.387 . S
C2972 H2976 0.950 . S
C2972 C2981 1.390 . S
C2973 C2972 1.387 . S
C2973 C2975 1.387 . S
H2974 C2981 0.950 . S
C2975 C2973 1.387 . S
C2975 C2977 1.390 . S
C2975 H2979 0.950 . S
H2976 C2972 0.950 . S
C2977 C2975 1.390 . S
C2977 C2978 1.387 . S
C2977 H2980 0.950 . S
C2978 C2977 1.387 . S
C2978 C2981 1.387 . S
H2979 C2975 0.950 . S
H2980 C2977 0.950 . S
C2981 C2972 1.390 . S
C2981 H2974 0.950 . S
C2981 C2978 1.387 . S
C2982 C2983 1.387 . S
C2982 H2986 0.950 . S
C2982 C2991 1.390 . S
C2983 C2982 1.387 . S
C2983 C2985 1.387 . S
H2984 C2991 0.950 . S
C2985 C2983 1.387 . S
C2985 C2987 1.390 . S
C2985 H2989 0.950 . S
H2986 C2982 0.950 . S
C2987 C2985 1.390 . S
C2987 C2988 1.387 . S
C2987 H2990 0.950 . S
C2988 C2987 1.387 . S
C2988 C2991 1.387 . S
H2989 C2985 0.950 . S
H2990 C2987 0.950 . S
C2991 C2982 1.390 . S
C2991 H2984 0.950 . S
C2991 C2988 1.387 . S
C2992 C2993 1.387 . S
C2992 H2996 0.950 . S
C2992 C3001 1.390 . S
C2993 C2992 1.387 . S
C2993 C2995 1.387 . S
H2994 C3001 0.950 . S
C2995 C2993 1.387 . S
C2995 C2997 1.390 . S
C2995 H2999 0.950 . S
H2996 C2992 0.950 . S
C2997 C2995 1.390 . S
C2997 C2998 1.387 . S
C2997 H3000 0.950 . S
C2998 C2997 1.387 . S
C2998 C3001 1.387 . S
H2999 C2995 0.950 . S
H3000 C2997 0.950 . S
C3001 C2992 1.390 . S
C3001 H2994 0.950 . S
C3001 C2998 1.387 . S
C3002 C3003 1.387 . S
C3002 H3006 0.950 . S
C3002 C3011 1.390 . S
C3003 C3002 1.387 . S
C3003 C3005 1.387 . S
H3004 C3011 0.950 . S
C3005 C3003 1.387 . S
C3005 C3007 1.390 . S
C3005 H3009 0.950 . S
H3006 C3002 0.950 . S
C3007 C3005 1.390 . S
C3007 C3008 1.387 . S
C3007 H3010 0.950 . S
C3008 C3007 1.387 . S
C3008 C3011 1.387 . S
H3009 C3005 0.950 . S
H3010 C3007 0.950 . S
C3011 C3002 1.390 . S
C3011 H3004 0.950 . S
C3011 C3008 1.387 . S
C3012 C3013 1.387 . S
C3012 H3016 0.950 . S
C3012 C3021 1.390 . S
C3013 C3012 1.387 . S
C3013 C3015 1.387 . S
H3014 C3021 0.950 . S
C3015 C3013 1.387 . S
C3015 C3017 1.390 . S
C3015 H3019 0.950 . S
H3016 C3012 0.950 . S
C3017 C3015 1.390 . S
C3017 C3018 1.387 . S
C3017 H3020 0.950 . S
C3018 C3017 1.387 . S
C3018 C3021 1.387 . S
H3019 C3015 0.950 . S
H3020 C3017 0.950 . S
C3021 C3012 1.390 . S
C3021 H3014 0.950 . S
C3021 C3018 1.387 . S
C3022 C3023 1.387 . S
C3022 H3026 0.950 . S
C3022 C3031 1.390 . S
C3023 C3022 1.387 . S
C3023 C3025 1.387 . S
H3024 C3031 0.950 . S
C3025 C3023 1.387 . S
C3025 C3027 1.390 . S
C3025 H3029 0.950 . S
H3026 C3022 0.950 . S
C3027 C3025 1.390 . S
C3027 C3028 1.387 . S
C3027 H3030 0.950 . S
C3028 C3027 1.387 . S
C3028 C3031 1.387 . S
H3029 C3025 0.950 . S
H3030 C3027 0.950 . S
C3031 C3022 1.390 . S
C3031 H3024 0.950 . S
C3031 C3028 1.387 . S
C3032 C3033 1.387 . S
C3032 H3036 0.950 . S
C3032 C3041 1.390 . S
C3033 C3032 1.387 . S
C3033 C3035 1.387 . S
H3034 C3041 0.950 . S
C3035 C3033 1.387 . S
C3035 C3037 1.390 . S
C3035 H3039 0.950 . S
H3036 C3032 0.950 . S
C3037 C3035 1.390 . S
C3037 C3038 1.387 . S
C3037 H3040 0.950 . S
C3038 C3037 1.387 . S
C3038 C3041 1.387 . S
H3039 C3035 0.950 . S
H3040 C3037 0.950 . S
C3041 C3032 1.390 . S
C3041 H3034 0.950 . S
C3041 C3038 1.387 . S
C3042 C3043 1.387 . S
C3042 H3046 0.950 . S
C3042 C3051 1.390 . S
C3043 C3042 1.387 . S
C3043 C3045 1.387 . S
H3044 C3051 0.950 . S
C3045 C3043 1.387 . S
C3045 C3047 1.390 . S
C3045 H3049 0.950 . S
H3046 C3042 0.950 . S
C3047 C3045 1.390 . S
C3047 C3048 1.387 . S
C3047 H3050 0.950 . S
C3048 C3047 1.387 . S
C3048 C3051 1.387 . S
H3049 C3045 0.950 . S
H3050 C3047 0.950 . S
C3051 C3042 1.390 . S
C3051 H3044 0.950 . S
C3051 C3048 1.387 . S
C3052 C3053 1.387 . S
C3052 H3056 0.950 . S
C3052 C3061 1.390 . S
C3053 C3052 1.387 . S
C3053 C3055 1.387 . S
H3054 C3061 0.950 . S
C3055 C3053 1.387 . S
C3055 C3057 1.390 . S
C3055 H3059 0.950 . S
H3056 C3052 0.950 . S
C3057 C3055 1.390 . S
C3057 C3058 1.387 . S
C3057 H3060 0.950 . S
C3058 C3057 1.387 . S
C3058 C3061 1.387 . S
H3059 C3055 0.950 . S
H3060 C3057 0.950 . S
C3061 C3052 1.390 . S
C3061 H3054 0.950 . S
C3061 C3058 1.387 . S
C3062 C3063 1.387 . S
C3062 H3066 0.950 . S
C3062 C3071 1.390 . S
C3063 C3062 1.387 . S
C3063 C3065 1.387 . S
H3064 C3071 0.950 . S
C3065 C3063 1.387 . S
C3065 C3067 1.390 . S
C3065 H3069 0.950 . S
H3066 C3062 0.950 . S
C3067 C3065 1.390 . S
C3067 C3068 1.387 . S
C3067 H3070 0.950 . S
C3068 C3067 1.387 . S
C3068 C3071 1.387 . S
H3069 C3065 0.950 . S
H3070 C3067 0.950 . S
C3071 C3062 1.390 . S
C3071 H3064 0.950 . S
C3071 C3068 1.387 . S
C3072 C3073 1.387 . S
C3072 H3076 0.950 . S
C3072 C3081 1.390 . S
C3073 C3072 1.387 . S
C3073 C3075 1.387 . S
H3074 C3081 0.950 . S
C3075 C3073 1.387 . S
C3075 C3077 1.390 . S
C3075 H3079 0.950 . S
H3076 C3072 0.950 . S
C3077 C3075 1.390 . S
C3077 C3078 1.387 . S
C3077 H3080 0.950 . S
C3078 C3077 1.387 . S
C3078 C3081 1.387 . S
H3079 C3075 0.950 . S
H3080 C3077 0.950 . S
C3081 C3072 1.390 . S
C3081 H3074 0.950 . S
C3081 C3078 1.387 . S
C3082 C3083 1.387 . S
C3082 H3086 0.950 . S
C3082 C3091 1.390 . S
C3083 C3082 1.387 . S
C3083 C3085 1.387 . S
H3084 C3091 0.950 . S
C3085 C3083 1.387 . S
C3085 C3087 1.390 . S
C3085 H3089 0.950 . S
H3086 C3082 0.950 . S
C3087 C3085 1.390 . S
C3087 C3088 1.387 . S
C3087 H3090 0.950 . S
C3088 C3087 1.387 . S
C3088 C3091 1.387 . S
H3089 C3085 0.950 . S
H3090 C3087 0.950 . S
C3091 C3082 1.390 . S
C3091 H3084 0.950 . S
C3091 C3088 1.387 . S
C3092 C3093 1.387 . S
C3092 H3096 0.950 . S
C3092 C3101 1.390 . S
C3093 C3092 1.387 . S
C3093 C3095 1.387 . S
H3094 C3101 0.950 . S
C3095 C3093 1.387 . S
C3095 C3097 1.390 . S
C3095 H3099 0.950 . S
H3096 C3092 0.950 . S
C3097 C3095 1.390 . S
C3097 C3098 1.387 . S
C3097 H3100 0.950 . S
C3098 C3097 1.387 . S
C3098 C3101 1.387 . S
H3099 C3095 0.950 . S
H3100 C3097 0.950 . S
C3101 C3092 1.390 . S
C3101 H3094 0.950 . S
C3101 C3098 1.387 . S
C3102 C3103 1.387 . S
C3102 H3106 0.950 . S
C3102 C3111 1.390 . S
C3103 C3102 1.387 . S
C3103 C3105 1.387 . S
H3104 C3111 0.950 . S
C3105 C3103 1.387 . S
C3105 C3107 1.390 . S
C3105 H3109 0.950 . S
H3106 C3102 0.950 . S
C3107 C3105 1.390 . S
C3107 C3108 1.387 . S
C3107 H3110 0.950 . S
C3108 C3107 1.387 . S
C3108 C3111 1.387 . S
H3109 C3105 0.950 . S
H3110 C3107 0.950 . S
C3111 C3102 1.390 . S
C3111 H3104 0.950 . S
C3111 C3108 1.387 . S
C3112 C3113 1.387 . S
C3112 H3116 0.950 . S
C3112 C3121 1.390 . S
C3113 C3112 1.387 . S
C3113 C3115 1.387 . S
H3114 C3121 0.950 . S
C3115 C3113 1.387 . S
C3115 C3117 1.390 . S
C3115 H3119 0.950 . S
H3116 C3112 0.950 . S
C3117 C3115 1.390 . S
C3117 C3118 1.387 . S
C3117 H3120 0.950 . S
C3118 C3117 1.387 . S
C3118 C3121 1.387 . S
H3119 C3115 0.950 . S
H3120 C3117 0.950 . S
C3121 C3112 1.390 . S
C3121 H3114 0.950 . S
C3121 C3118 1.387 . S
C3122 C3123 1.387 . S
C3122 H3126 0.950 . S
C3122 C3131 1.390 . S
C3123 C3122 1.387 . S
C3123 C3125 1.387 . S
H3124 C3131 0.950 . S
C3125 C3123 1.387 . S
C3125 C3127 1.390 . S
C3125 H3129 0.950 . S
H3126 C3122 0.950 . S
C3127 C3125 1.390 . S
C3127 C3128 1.387 . S
C3127 H3130 0.950 . S
C3128 C3127 1.387 . S
C3128 C3131 1.387 . S
H3129 C3125 0.950 . S
H3130 C3127 0.950 . S
C3131 C3122 1.390 . S
C3131 H3124 0.950 . S
C3131 C3128 1.387 . S
C3132 C3133 1.387 . S
C3132 H3136 0.950 . S
C3132 C3141 1.390 . S
C3133 C3132 1.387 . S
C3133 C3135 1.387 . S
H3134 C3141 0.950 . S
C3135 C3133 1.387 . S
C3135 C3137 1.390 . S
C3135 H3139 0.950 . S
H3136 C3132 0.950 . S
C3137 C3135 1.390 . S
C3137 C3138 1.387 . S
C3137 H3140 0.950 . S
C3138 C3137 1.387 . S
C3138 C3141 1.387 . S
H3139 C3135 0.950 . S
H3140 C3137 0.950 . S
C3141 C3132 1.390 . S
C3141 H3134 0.950 . S
C3141 C3138 1.387 . S
C3142 C3143 1.387 . S
C3142 H3146 0.950 . S
C3142 C3151 1.390 . S
C3143 C3142 1.387 . S
C3143 C3145 1.387 . S
H3144 C3151 0.950 . S
C3145 C3143 1.387 . S
C3145 C3147 1.390 . S
C3145 H3149 0.950 . S
H3146 C3142 0.950 . S
C3147 C3145 1.390 . S
C3147 C3148 1.387 . S
C3147 H3150 0.950 . S
C3148 C3147 1.387 . S
C3148 C3151 1.387 . S
H3149 C3145 0.950 . S
H3150 C3147 0.950 . S
C3151 C3142 1.390 . S
C3151 H3144 0.950 . S
C3151 C3148 1.387 . S
C3152 C3153 1.387 . S
C3152 H3156 0.950 . S
C3152 C3161 1.390 . S
C3153 C3152 1.387 . S
C3153 C3155 1.387 . S
H3154 C3161 0.950 . S
C3155 C3153 1.387 . S
C3155 C3157 1.390 . S
C3155 H3159 0.950 . S
H3156 C3152 0.950 . S
C3157 C3155 1.390 . S
C3157 C3158 1.387 . S
C3157 H3160 0.950 . S
C3158 C3157 1.387 . S
C3158 C3161 1.387 . S
H3159 C3155 0.950 . S
H3160 C3157 0.950 . S
C3161 C3152 1.390 . S
C3161 H3154 0.950 . S
C3161 C3158 1.387 . S
C3162 C3163 1.387 . S
C3162 H3166 0.950 . S
C3162 C3171 1.390 . S
C3163 C3162 1.387 . S
C3163 C3165 1.387 . S
H3164 C3171 0.950 . S
C3165 C3163 1.387 . S
C3165 C3167 1.390 . S
C3165 H3169 0.950 . S
H3166 C3162 0.950 . S
C3167 C3165 1.390 . S
C3167 C3168 1.387 . S
C3167 H3170 0.950 . S
C3168 C3167 1.387 . S
C3168 C3171 1.387 . S
H3169 C3165 0.950 . S
H3170 C3167 0.950 . S
C3171 C3162 1.390 . S
C3171 H3164 0.950 . S
C3171 C3168 1.387 . S
C3172 C3173 1.387 . S
C3172 H3176 0.950 . S
C3172 C3181 1.390 . S
C3173 C3172 1.387 . S
C3173 C3175 1.387 . S
H3174 C3181 0.950 . S
C3175 C3173 1.387 . S
C3175 C3177 1.390 . S
C3175 H3179 0.950 . S
H3176 C3172 0.950 . S
C3177 C3175 1.390 . S
C3177 C3178 1.387 . S
C3177 H3180 0.950 . S
C3178 C3177 1.387 . S
C3178 C3181 1.387 . S
H3179 C3175 0.950 . S
H3180 C3177 0.950 . S
C3181 C3172 1.390 . S
C3181 H3174 0.950 . S
C3181 C3178 1.387 . S
C3182 C3183 1.387 . S
C3182 H3186 0.950 . S
C3182 C3191 1.390 . S
C3183 C3182 1.387 . S
C3183 C3185 1.387 . S
H3184 C3191 0.950 . S
C3185 C3183 1.387 . S
C3185 C3187 1.390 . S
C3185 H3189 0.950 . S
H3186 C3182 0.950 . S
C3187 C3185 1.390 . S
C3187 C3188 1.387 . S
C3187 H3190 0.950 . S
C3188 C3187 1.387 . S
C3188 C3191 1.387 . S
H3189 C3185 0.950 . S
H3190 C3187 0.950 . S
C3191 C3182 1.390 . S
C3191 H3184 0.950 . S
C3191 C3188 1.387 . S
C3192 C3193 1.387 . S
C3192 H3196 0.950 . S
C3192 C3201 1.390 . S
C3193 C3192 1.387 . S
C3193 C3195 1.387 . S
H3194 C3201 0.950 . S
C3195 C3193 1.387 . S
C3195 C3197 1.390 . S
C3195 H3199 0.950 . S
H3196 C3192 0.950 . S
C3197 C3195 1.390 . S
C3197 C3198 1.387 . S
C3197 H3200 0.950 . S
C3198 C3197 1.387 . S
C3198 C3201 1.387 . S
H3199 C3195 0.950 . S
H3200 C3197 0.950 . S
C3201 C3192 1.390 . S
C3201 H3194 0.950 . S
C3201 C3198 1.387 . S
C3202 C3203 1.387 . S
C3202 H3206 0.950 . S
C3202 C3211 1.390 . S
C3203 C3202 1.387 . S
C3203 C3205 1.387 . S
H3204 C3211 0.950 . S
C3205 C3203 1.387 . S
C3205 C3207 1.390 . S
C3205 H3209 0.950 . S
H3206 C3202 0.950 . S
C3207 C3205 1.390 . S
C3207 C3208 1.387 . S
C3207 H3210 0.950 . S
C3208 C3207 1.387 . S
C3208 C3211 1.387 . S
H3209 C3205 0.950 . S
H3210 C3207 0.950 . S
C3211 C3202 1.390 . S
C3211 H3204 0.950 . S
C3211 C3208 1.387 . S
C3212 C3213 1.387 . S
C3212 H3216 0.950 . S
C3212 C3221 1.390 . S
C3213 C3212 1.387 . S
C3213 C3215 1.387 . S
H3214 C3221 0.950 . S
C3215 C3213 1.387 . S
C3215 C3217 1.390 . S
C3215 H3219 0.950 . S
H3216 C3212 0.950 . S
C3217 C3215 1.390 . S
C3217 C3218 1.387 . S
C3217 H3220 0.950 . S
C3218 C3217 1.387 . S
C3218 C3221 1.387 . S
H3219 C3215 0.950 . S
H3220 C3217 0.950 . S
C3221 C3212 1.390 . S
C3221 H3214 0.950 . S
C3221 C3218 1.387 . S
C3222 C3223 1.387 . S
C3222 H3226 0.950 . S
C3222 C3231 1.390 . S
C3223 C3222 1.387 . S
C3223 C3225 1.387 . S
H3224 C3231 0.950 . S
C3225 C3223 1.387 . S
C3225 C3227 1.390 . S
C3225 H3229 0.950 . S
H3226 C3222 0.950 . S
C3227 C3225 1.390 . S
C3227 C3228 1.387 . S
C3227 H3230 0.950 . S
C3228 C3227 1.387 . S
C3228 C3231 1.387 . S
H3229 C3225 0.950 . S
H3230 C3227 0.950 . S
C3231 C3222 1.390 . S
C3231 H3224 0.950 . S
C3231 C3228 1.387 . S
C3232 C3233 1.387 . S
C3232 H3236 0.950 . S
C3232 C3241 1.390 . S
C3233 C3232 1.387 . S
C3233 C3235 1.387 . S
H3234 C3241 0.950 . S
C3235 C3233 1.387 . S
C3235 C3237 1.390 . S
C3235 H3239 0.950 . S
H3236 C3232 0.950 . S
C3237 C3235 1.390 . S
C3237 C3238 1.387 . S
C3237 H3240 0.950 . S
C3238 C3237 1.387 . S
C3238 C3241 1.387 . S
H3239 C3235 0.950 . S
H3240 C3237 0.950 . S
C3241 C3232 1.390 . S
C3241 H3234 0.950 . S
C3241 C3238 1.387 . S
C3242 C3243 1.387 . S
C3242 H3246 0.950 . S
C3242 C3251 1.390 . S
C3243 C3242 1.387 . S
C3243 C3245 1.387 . S
H3244 C3251 0.950 . S
C3245 C3243 1.387 . S
C3245 C3247 1.390 . S
C3245 H3249 0.950 . S
H3246 C3242 0.950 . S
C3247 C3245 1.390 . S
C3247 C3248 1.387 . S
C3247 H3250 0.950 . S
C3248 C3247 1.387 . S
C3248 C3251 1.387 . S
H3249 C3245 0.950 . S
H3250 C3247 0.950 . S
C3251 C3242 1.390 . S
C3251 H3244 0.950 . S
C3251 C3248 1.387 . S
C3252 C3253 1.387 . S
C3252 H3256 0.950 . S
C3252 C3261 1.390 . S
C3253 C3252 1.387 . S
C3253 C3255 1.387 . S
H3254 C3261 0.950 . S
C3255 C3253 1.387 . S
C3255 C3257 1.390 . S
C3255 H3259 0.950 . S
H3256 C3252 0.950 . S
C3257 C3255 1.390 . S
C3257 C3258 1.387 . S
C3257 H3260 0.950 . S
C3258 C3257 1.387 . S
C3258 C3261 1.387 . S
H3259 C3255 0.950 . S
H3260 C3257 0.950 . S
C3261 C3252 1.390 . S
C3261 H3254 0.950 . S
C3261 C3258 1.387 . S
C3262 C3263 1.387 . S
C3262 H3266 0.950 . S
C3262 C3271 1.390 . S
C3263 C3262 1.387 . S
C3263 C3265 1.387 . S
H3264 C3271 0.950 . S
C3265 C3263 1.387 . S
C3265 C3267 1.390 . S
C3265 H3269 0.950 . S
H3266 C3262 0.950 . S
C3267 C3265 1.390 . S
C3267 C3268 1.387 . S
C3267 H3270 0.950 . S
C3268 C3267 1.387 . S
C3268 C3271 1.387 . S
H3269 C3265 0.950 . S
H3270 C3267 0.950 . S
C3271 C3262 1.390 . S
C3271 H3264 0.950 . S
C3271 C3268 1.387 . S
C3272 C3273 1.387 . S
C3272 H3276 0.950 . S
C3272 C3281 1.390 . S
C3273 C3272 1.387 . S
C3273 C3275 1.387 . S
H3274 C3281 0.950 . S
C3275 C3273 1.387 . S
C3275 C3277 1.390 . S
C3275 H3279 0.950 . S
H3276 C3272 0.950 . S
C3277 C3275 1.390 . S
C3277 C3278 1.387 . S
C3277 H3280 0.950 . S
C3278 C3277 1.387 . S
C3278 C3281 1.387 . S
H3279 C3275 0.950 . S
H3280 C3277 0.950 . S
C3281 C3272 1.390 . S
C3281 H3274 0.950 . S
C3281 C3278 1.387 . S
C3282 C3283 1.387 . S
C3282 H3286 0.950 . S
C3282 C3291 1.390 . S
C3283 C3282 1.387 . S
C3283 C3285 1.387 . S
H3284 C3291 0.950 . S
C3285 C3283 1.387 . S
C3285 C3287 1.390 . S
C3285 H3289 0.950 . S
H3286 C3282 0.950 . S
C3287 C3285 1.390 . S
C3287 C3288 1.387 . S
C3287 H3290 0.950 . S
C3288 C3287 1.387 . S
C3288 C3291 1.387 . S
H3289 C3285 0.950 . S
H3290 C3287 0.950 . S
C3291 C3282 1.390 . S
C3291 H3284 0.950 . S
C3291 C3288 1.387 . S
C3292 C3293 1.387 . S
C3292 H3296 0.950 . S
C3292 C3301 1.390 . S
C3293 C3292 1.387 . S
C3293 C3295 1.387 . S
H3294 C3301 0.950 . S
C3295 C3293 1.387 . S
C3295 C3297 1.390 . S
C3295 H3299 0.950 . S
H3296 C3292 0.950 . S
C3297 C3295 1.390 . S
C3297 C3298 1.387 . S
C3297 H3300 0.950 . S
C3298 C3297 1.387 . S
C3298 C3301 1.387 . S
H3299 C3295 0.950 . S
H3300 C3297 0.950 . S
C3301 C3292 1.390 . S
C3301 H3294 0.950 . S
C3301 C3298 1.387 . S
C3302 C3303 1.387 . S
C3302 H3306 0.950 . S
C3302 C3311 1.390 . S
C3303 C3302 1.387 . S
C3303 C3305 1.387 . S
H3304 C3311 0.950 . S
C3305 C3303 1.387 . S
C3305 C3307 1.390 . S
C3305 H3309 0.950 . S
H3306 C3302 0.950 . S
C3307 C3305 1.390 . S
C3307 C3308 1.387 . S
C3307 H3310 0.950 . S
C3308 C3307 1.387 . S
C3308 C3311 1.387 . S
H3309 C3305 0.950 . S
H3310 C3307 0.950 . S
C3311 C3302 1.390 . S
C3311 H3304 0.950 . S
C3311 C3308 1.387 . S
C3312 C3313 1.387 . S
C3312 H3316 0.950 . S
C3312 C3321 1.390 . S
C3313 C3312 1.387 . S
C3313 C3315 1.387 . S
H3314 C3321 0.950 . S
C3315 C3313 1.387 . S
C3315 C3317 1.390 . S
C3315 H3319 0.950 . S
H3316 C3312 0.950 . S
C3317 C3315 1.390 . S
C3317 C3318 1.387 . S
C3317 H3320 0.950 . S
C3318 C3317 1.387 . S
C3318 C3321 1.387 . S
H3319 C3315 0.950 . S
H3320 C3317 0.950 . S
C3321 C3312 1.390 . S
C3321 H3314 0.950 . S
C3321 C3318 1.387 . S
C3322 C3323 1.387 . S
C3322 H3326 0.950 . S
C3322 C3331 1.390 . S
C3323 C3322 1.387 . S
C3323 C3325 1.387 . S
H3324 C3331 0.950 . S
C3325 C3323 1.387 . S
C3325 C3327 1.390 . S
C3325 H3329 0.950 . S
H3326 C3322 0.950 . S
C3327 C3325 1.390 . S
C3327 C3328 1.387 . S
C3327 H3330 0.950 . S
C3328 C3327 1.387 . S
C3328 C3331 1.387 . S
H3329 C3325 0.950 . S
H3330 C3327 0.950 . S
C3331 C3322 1.390 . S
C3331 H3324 0.950 . S
C3331 C3328 1.387 . S
C3332 C3333 1.387 . S
C3332 H3336 0.950 . S
C3332 C3341 1.390 . S
C3333 C3332 1.387 . S
C3333 C3335 1.387 . S
H3334 C3341 0.950 . S
C3335 C3333 1.387 . S
C3335 C3337 1.390 . S
C3335 H3339 0.950 . S
H3336 C3332 0.950 . S
C3337 C3335 1.390 . S
C3337 C3338 1.387 . S
C3337 H3340 0.950 . S
C3338 C3337 1.387 . S
C3338 C3341 1.387 . S
H3339 C3335 0.950 . S
H3340 C3337 0.950 . S
C3341 C3332 1.390 . S
C3341 H3334 0.950 . S
C3341 C3338 1.387 . S
C3342 C3343 1.387 . S
C3342 H3346 0.950 . S
C3342 C3351 1.390 . S
C3343 C3342 1.387 . S
C3343 C3345 1.387 . S
H3344 C3351 0.950 . S
C3345 C3343 1.387 . S
C3345 C3347 1.390 . S
C3345 H3349 0.950 . S
H3346 C3342 0.950 . S
C3347 C3345 1.390 . S
C3347 C3348 1.387 . S
C3347 H3350 0.950 . S
C3348 C3347 1.387 . S
C3348 C3351 1.387 . S
H3349 C3345 0.950 . S
H3350 C3347 0.950 . S
C3351 C3342 1.390 . S
C3351 H3344 0.950 . S
C3351 C3348 1.387 . S
C3352 C3353 1.387 . S
C3352 H3356 0.950 . S
C3352 C3361 1.390 . S
C3353 C3352 1.387 . S
C3353 C3355 1.387 . S
H3354 C3361 0.950 . S
C3355 C3353 1.387 . S
C3355 C3357 1.390 . S
C3355 H3359 0.950 . S
H3356 C3352 0.950 . S
C3357 C3355 1.390 . S
C3357 C3358 1.387 . S
C3357 H3360 0.950 . S
C3358 C3357 1.387 . S
C3358 C3361 1.387 . S
H3359 C3355 0.950 . S
H3360 C3357 0.950 . S
C3361 C3352 1.390 . S
C3361 H3354 0.950 . S
C3361 C3358 1.387 . S
C3362 C3363 1.387 . S
C3362 H3366 0.950 . S
C3362 C3371 1.390 . S
C3363 C3362 1.387 . S
C3363 C3365 1.387 . S
H3364 C3371 0.950 . S
C3365 C3363 1.387 . S
C3365 C3367 1.390 . S
C3365 H3369 0.950 . S
H3366 C3362 0.950 . S
C3367 C3365 1.390 . S
C3367 C3368 1.387 . S
C3367 H3370 0.950 . S
C3368 C3367 1.387 . S
C3368 C3371 1.387 . S
H3369 C3365 0.950 . S
H3370 C3367 0.950 . S
C3371 C3362 1.390 . S
C3371 H3364 0.950 . S
C3371 C3368 1.387 . S
C3372 C3373 1.387 . S
C3372 H3376 0.950 . S
C3372 C3381 1.390 . S
C3373 C3372 1.387 . S
C3373 C3375 1.387 . S
H3374 C3381 0.950 . S
C3375 C3373 1.387 . S
C3375 C3377 1.390 . S
C3375 H3379 0.950 . S
H3376 C3372 0.950 . S
C3377 C3375 1.390 . S
C3377 C3378 1.387 . S
C3377 H3380 0.950 . S
C3378 C3377 1.387 . S
C3378 C3381 1.387 . S
H3379 C3375 0.950 . S
H3380 C3377 0.950 . S
C3381 C3372 1.390 . S
C3381 H3374 0.950 . S
C3381 C3378 1.387 . S
C3382 C3383 1.387 . S
C3382 H3386 0.950 . S
C3382 C3391 1.390 . S
C3383 C3382 1.387 . S
C3383 C3385 1.387 . S
H3384 C3391 0.950 . S
C3385 C3383 1.387 . S
C3385 C3387 1.390 . S
C3385 H3389 0.950 . S
H3386 C3382 0.950 . S
C3387 C3385 1.390 . S
C3387 C3388 1.387 . S
C3387 H3390 0.950 . S
C3388 C3387 1.387 . S
C3388 C3391 1.387 . S
H3389 C3385 0.950 . S
H3390 C3387 0.950 . S
C3391 C3382 1.390 . S
C3391 H3384 0.950 . S
C3391 C3388 1.387 . S
C3392 C3393 1.387 . S
C3392 H3396 0.950 . S
C3392 C3401 1.390 . S
C3393 C3392 1.387 . S
C3393 C3395 1.387 . S
H3394 C3401 0.950 . S
C3395 C3393 1.387 . S
C3395 C3397 1.390 . S
C3395 H3399 0.950 . S
H3396 C3392 0.950 . S
C3397 C3395 1.390 . S
C3397 C3398 1.387 . S
C3397 H3400 0.950 . S
C3398 C3397 1.387 . S
C3398 C3401 1.387 . S
H3399 C3395 0.950 . S
H3400 C3397 0.950 . S
C3401 C3392 1.390 . S
C3401 H3394 0.950 . S
C3401 C3398 1.387 . S
C3402 C3403 1.387 . S
C3402 H3406 0.950 . S
C3402 C3411 1.390 . S
C3403 C3402 1.387 . S
C3403 C3405 1.387 . S
H3404 C3411 0.950 . S
C3405 C3403 1.387 . S
C3405 C3407 1.390 . S
C3405 H3409 0.950 . S
H3406 C3402 0.950 . S
C3407 C3405 1.390 . S
C3407 C3408 1.387 . S
C3407 H3410 0.950 . S
C3408 C3407 1.387 . S
C3408 C3411 1.387 . S
H3409 C3405 0.950 . S
H3410 C3407 0.950 . S
C3411 C3402 1.390 . S
C3411 H3404 0.950 . S
C3411 C3408 1.387 . S
C3412 C3413 1.387 . S
C3412 H3416 0.950 . S
C3412 C3421 1.390 . S
C3413 C3412 1.387 . S
C3413 C3415 1.387 . S
H3414 C3421 0.950 . S
C3415 C3413 1.387 . S
C3415 C3417 1.390 . S
C3415 H3419 0.950 . S
H3416 C3412 0.950 . S
C3417 C3415 1.390 . S
C3417 C3418 1.387 . S
C3417 H3420 0.950 . S
C3418 C3417 1.387 . S
C3418 C3421 1.387 . S
H3419 C3415 0.950 . S
H3420 C3417 0.950 . S
C3421 C3412 1.390 . S
C3421 H3414 0.950 . S
C3421 C3418 1.387 . S
C3422 C3423 1.387 . S
C3422 H3426 0.950 . S
C3422 C3431 1.390 . S
C3423 C3422 1.387 . S
C3423 C3425 1.387 . S
H3424 C3431 0.950 . S
C3425 C3423 1.387 . S
C3425 C3427 1.390 . S
C3425 H3429 0.950 . S
H3426 C3422 0.950 . S
C3427 C3425 1.390 . S
C3427 C3428 1.387 . S
C3427 H3430 0.950 . S
C3428 C3427 1.387 . S
C3428 C3431 1.387 . S
H3429 C3425 0.950 . S
H3430 C3427 0.950 . S
C3431 C3422 1.390 . S
C3431 H3424 0.950 . S
C3431 C3428 1.387 . S
C3432 C3433 1.387 . S
C3432 H3436 0.950 . S
C3432 C3441 1.390 . S
C3433 C3432 1.387 . S
C3433 C3435 1.387 . S
H3434 C3441 0.950 . S
C3435 C3433 1.387 . S
C3435 C3437 1.390 . S
C3435 H3439 0.950 . S
H3436 C3432 0.950 . S
C3437 C3435 1.390 . S
C3437 C3438 1.387 . S
C3437 H3440 0.950 . S
C3438 C3437 1.387 . S
C3438 C3441 1.387 . S
H3439 C3435 0.950 . S
H3440 C3437 0.950 . S
C3441 C3432 1.390 . S
C3441 H3434 0.950 . S
C3441 C3438 1.387 . S
C3442 C3443 1.387 . S
C3442 H3446 0.950 . S
C3442 C3451 1.390 . S
C3443 C3442 1.387 . S
C3443 C3445 1.387 . S
H3444 C3451 0.950 . S
C3445 C3443 1.387 . S
C3445 C3447 1.390 . S
C3445 H3449 0.950 . S
H3446 C3442 0.950 . S
C3447 C3445 1.390 . S
C3447 C3448 1.387 . S
C3447 H3450 0.950 . S
C3448 C3447 1.387 . S
C3448 C3451 1.387 . S
H3449 C3445 0.950 . S
H3450 C3447 0.950 . S
C3451 C3442 1.390 . S
C3451 H3444 0.950 . S
C3451 C3448 1.387 . S
C3452 C3453 1.387 . S
C3452 H3456 0.950 . S
C3452 C3461 1.390 . S
C3453 C3452 1.387 . S
C3453 C3455 1.387 . S
H3454 C3461 0.950 . S
C3455 C3453 1.387 . S
C3455 C3457 1.390 . S
C3455 H3459 0.950 . S
H3456 C3452 0.950 . S
C3457 C3455 1.390 . S
C3457 C3458 1.387 . S
C3457 H3460 0.950 . S
C3458 C3457 1.387 . S
C3458 C3461 1.387 . S
H3459 C3455 0.950 . S
H3460 C3457 0.950 . S
C3461 C3452 1.390 . S
C3461 H3454 0.950 . S
C3461 C3458 1.387 . S
C3462 C3463 1.387 . S
C3462 H3466 0.950 . S
C3462 C3471 1.390 . S
C3463 C3462 1.387 . S
C3463 C3465 1.387 . S
H3464 C3471 0.950 . S
C3465 C3463 1.387 . S
C3465 C3467 1.390 . S
C3465 H3469 0.950 . S
H3466 C3462 0.950 . S
C3467 C3465 1.390 . S
C3467 C3468 1.387 . S
C3467 H3470 0.950 . S
C3468 C3467 1.387 . S
C3468 C3471 1.387 . S
H3469 C3465 0.950 . S
H3470 C3467 0.950 . S
C3471 C3462 1.390 . S
C3471 H3464 0.950 . S
C3471 C3468 1.387 . S
C3472 C3473 1.387 . S
C3472 H3476 0.950 . S
C3472 C3481 1.390 . S
C3473 C3472 1.387 . S
C3473 C3475 1.387 . S
H3474 C3481 0.950 . S
C3475 C3473 1.387 . S
C3475 C3477 1.390 . S
C3475 H3479 0.950 . S
H3476 C3472 0.950 . S
C3477 C3475 1.390 . S
C3477 C3478 1.387 . S
C3477 H3480 0.950 . S
C3478 C3477 1.387 . S
C3478 C3481 1.387 . S
H3479 C3475 0.950 . S
H3480 C3477 0.950 . S
C3481 C3472 1.390 . S
C3481 H3474 0.950 . S
C3481 C3478 1.387 . S
C3482 C3483 1.387 . S
C3482 H3486 0.950 . S
C3482 C3491 1.390 . S
C3483 C3482 1.387 . S
C3483 C3485 1.387 . S
H3484 C3491 0.950 . S
C3485 C3483 1.387 . S
C3485 C3487 1.390 . S
C3485 H3489 0.950 . S
H3486 C3482 0.950 . S
C3487 C3485 1.390 . S
C3487 C3488 1.387 . S
C3487 H3490 0.950 . S
C3488 C3487 1.387 . S
C3488 C3491 1.387 . S
H3489 C3485 0.950 . S
H3490 C3487 0.950 . S
C3491 C3482 1.390 . S
C3491 H3484 0.950 . S
C3491 C3488 1.387 . S
C3492 C3493 1.387 . S
C3492 H3496 0.950 . S
C3492 C3501 1.390 . S
C3493 C3492 1.387 . S
C3493 C3495 1.387 . S
H3494 C3501 0.950 . S
C3495 C3493 1.387 . S
C3495 C3497 1.390 . S
C3495 H3499 0.950 . S
H3496 C3492 0.950 . S
C3497 C3495 1.390 . S
C3497 C3498 1.387 . S
C3497 H3500 0.950 . S
C3498 C3497 1.387 . S
C3498 C3501 1.387 . S
H3499 C3495 0.950 . S
H3500 C3497 0.950 . S
C3501 C3492 1.390 . S
C3501 H3494 0.950 . S
C3501 C3498 1.387 . S
C3502 C3503 1.387 . S
C3502 H3506 0.950 . S
C3502 C3511 1.390 . S
C3503 C3502 1.387 . S
C3503 C3505 1.387 . S
H3504 C3511 0.950 . S
C3505 C3503 1.387 . S
C3505 C3507 1.390 . S
C3505 H3509 0.950 . S
H3506 C3502 0.950 . S
C3507 C3505 1.390 . S
C3507 C3508 1.387 . S
C3507 H3510 0.950 . S
C3508 C3507 1.387 . S
C3508 C3511 1.387 . S
H3509 C3505 0.950 . S
H3510 C3507 0.950 . S
C3511 C3502 1.390 . S
C3511 H3504 0.950 . S
C3511 C3508 1.387 . S
C3512 C3513 1.387 . S
C3512 H3516 0.950 . S
C3512 C3521 1.390 . S
C3513 C3512 1.387 . S
C3513 C3515 1.387 . S
H3514 C3521 0.950 . S
C3515 C3513 1.387 . S
C3515 C3517 1.390 . S
C3515 H3519 0.950 . S
H3516 C3512 0.950 . S
C3517 C3515 1.390 . S
C3517 C3518 1.387 . S
C3517 H3520 0.950 . S
C3518 C3517 1.387 . S
C3518 C3521 1.387 . S
H3519 C3515 0.950 . S
H3520 C3517 0.950 . S
C3521 C3512 1.390 . S
C3521 H3514 0.950 . S
C3521 C3518 1.387 . S
C3522 C3523 1.387 . S
C3522 H3526 0.950 . S
C3522 C3531 1.390 . S
C3523 C3522 1.387 . S
C3523 C3525 1.387 . S
H3524 C3531 0.950 . S
C3525 C3523 1.387 . S
C3525 C3527 1.390 . S
C3525 H3529 0.950 . S
H3526 C3522 0.950 . S
C3527 C3525 1.390 . S
C3527 C3528 1.387 . S
C3527 H3530 0.950 . S
C3528 C3527 1.387 . S
C3528 C3531 1.387 . S
H3529 C3525 0.950 . S
H3530 C3527 0.950 . S
C3531 C3522 1.390 . S
C3531 H3524 0.950 . S
C3531 C3528 1.387 . S
C3532 C3533 1.387 . S
C3532 H3536 0.950 . S
C3532 C3541 1.390 . S
C3533 C3532 1.387 . S
C3533 C3535 1.387 . S
H3534 C3541 0.950 . S
C3535 C3533 1.387 . S
C3535 C3537 1.390 . S
C3535 H3539 0.950 . S
H3536 C3532 0.950 . S
C3537 C3535 1.390 . S
C3537 C3538 1.387 . S
C3537 H3540 0.950 . S
C3538 C3537 1.387 . S
C3538 C3541 1.387 . S
H3539 C3535 0.950 . S
H3540 C3537 0.950 . S
C3541 C3532 1.390 . S
C3541 H3534 0.950 . S
C3541 C3538 1.387 . S
C3542 C3543 1.387 . S
C3542 H3546 0.950 . S
C3542 C3551 1.390 . S
C3543 C3542 1.387 . S
C3543 C3545 1.387 . S
H3544 C3551 0.950 . S
C3545 C3543 1.387 . S
C3545 C3547 1.390 . S
C3545 H3549 0.950 . S
H3546 C3542 0.950 . S
C3547 C3545 1.390 . S
C3547 C3548 1.387 . S
C3547 H3550 0.950 . S
C3548 C3547 1.387 . S
C3548 C3551 1.387 . S
H3549 C3545 0.950 . S
H3550 C3547 0.950 . S
C3551 C3542 1.390 . S
C3551 H3544 0.950 . S
C3551 C3548 1.387 . S
C3552 C3553 1.387 . S
C3552 H3556 0.950 . S
C3552 C3561 1.390 . S
C3553 C3552 1.387 . S
C3553 C3555 1.387 . S
H3554 C3561 0.950 . S
C3555 C3553 1.387 . S
C3555 C3557 1.390 . S
C3555 H3559 0.950 . S
H3556 C3552 0.950 . S
C3557 C3555 1.390 . S
C3557 C3558 1.387 . S
C3557 H3560 0.950 . S
C3558 C3557 1.387 . S
C3558 C3561 1.387 . S
H3559 C3555 0.950 . S
H3560 C3557 0.950 . S
C3561 C3552 1.390 . S
C3561 H3554 0.950 . S
C3561 C3558 1.387 . S
C3562 C3563 1.387 . S
C3562 H3566 0.950 . S
C3562 C3571 1.390 . S
C3563 C3562 1.387 . S
C3563 C3565 1.387 . S
H3564 C3571 0.950 . S
C3565 C3563 1.387 . S
C3565 C3567 1.390 . S
C3565 H3569 0.950 . S
H3566 C3562 0.950 . S
C3567 C3565 1.390 . S
C3567 C3568 1.387 . S
C3567 H3570 0.950 . S
C3568 C3567 1.387 . S
C3568 C3571 1.387 . S
H3569 C3565 0.950 . S
H3570 C3567 0.950 . S
C3571 C3562 1.390 . S
C3571 H3564 0.950 . S
C3571 C3568 1.387 . S
C3572 C3573 1.387 . S
C3572 H3576 0.950 . S
C3572 C3581 1.390 . S
C3573 C3572 1.387 . S
C3573 C3575 1.387 . S
H3574 C3581 0.950 . S
C3575 C3573 1.387 . S
C3575 C3577 1.390 . S
C3575 H3579 0.950 . S
H3576 C3572 0.950 . S
C3577 C3575 1.390 . S
C3577 C3578 1.387 . S
C3577 H3580 0.950 . S
C3578 C3577 1.387 . S
C3578 C3581 1.387 . S
H3579 C3575 0.950 . S
H3580 C3577 0.950 . S
C3581 C3572 1.390 . S
C3581 H3574 0.950 . S
C3581 C3578 1.387 . S
C3582 C3583 1.387 . S
C3582 H3586 0.950 . S
C3582 C3591 1.390 . S
C3583 C3582 1.387 . S
C3583 C3585 1.387 . S
H3584 C3591 0.950 . S
C3585 C3583 1.387 . S
C3585 C3587 1.390 . S
C3585 H3589 0.950 . S
H3586 C3582 0.950 . S
C3587 C3585 1.390 . S
C3587 C3588 1.387 . S
C3587 H3590 0.950 . S
C3588 C3587 1.387 . S
C3588 C3591 1.387 . S
H3589 C3585 0.950 . S
H3590 C3587 0.950 . S
C3591 C3582 1.390 . S
C3591 H3584 0.950 . S
C3591 C3588 1.387 . S
C3592 C3593 1.387 . S
C3592 H3596 0.950 . S
C3592 C3601 1.390 . S
C3593 C3592 1.387 . S
C3593 C3595 1.387 . S
H3594 C3601 0.950 . S
C3595 C3593 1.387 . S
C3595 C3597 1.390 . S
C3595 H3599 0.950 . S
H3596 C3592 0.950 . S
C3597 C3595 1.390 . S
C3597 C3598 1.387 . S
C3597 H3600 0.950 . S
C3598 C3597 1.387 . S
C3598 C3601 1.387 . S
H3599 C3595 0.950 . S
H3600 C3597 0.950 . S
C3601 C3592 1.390 . S
C3601 H3594 0.950 . S
C3601 C3598 1.387 . S
C3602 C3603 1.387 . S
C3602 H3606 0.950 . S
C3602 C3611 1.390 . S
C3603 C3602 1.387 . S
C3603 C3605 1.387 . S
H3604 C3611 0.950 . S
C3605 C3603 1.387 . S
C3605 C3607 1.390 . S
C3605 H3609 0.950 . S
H3606 C3602 0.950 . S
C3607 C3605 1.390 . S
C3607 C3608 1.387 . S
C3607 H3610 0.950 . S
C3608 C3607 1.387 . S
C3608 C3611 1.387 . S
H3609 C3605 0.950 . S
H3610 C3607 0.950 . S
C3611 C3602 1.390 . S
C3611 H3604 0.950 . S
C3611 C3608 1.387 . S
C3612 C3613 1.387 . S
C3612 H3616 0.950 . S
C3612 C3621 1.390 . S
C3613 C3612 1.387 . S
C3613 C3615 1.387 . S
H3614 C3621 0.950 . S
C3615 C3613 1.387 . S
C3615 C3617 1.390 . S
C3615 H3619 0.950 . S
H3616 C3612 0.950 . S
C3617 C3615 1.390 . S
C3617 C3618 1.387 . S
C3617 H3620 0.950 . S
C3618 C3617 1.387 . S
C3618 C3621 1.387 . S
H3619 C3615 0.950 . S
H3620 C3617 0.950 . S
C3621 C3612 1.390 . S
C3621 H3614 0.950 . S
C3621 C3618 1.387 . S
C3622 C3623 1.387 . S
C3622 H3626 0.950 . S
C3622 C3631 1.390 . S
C3623 C3622 1.387 . S
C3623 C3625 1.387 . S
H3624 C3631 0.950 . S
C3625 C3623 1.387 . S
C3625 C3627 1.390 . S
C3625 H3629 0.950 . S
H3626 C3622 0.950 . S
C3627 C3625 1.390 . S
C3627 C3628 1.387 . S
C3627 H3630 0.950 . S
C3628 C3627 1.387 . S
C3628 C3631 1.387 . S
H3629 C3625 0.950 . S
H3630 C3627 0.950 . S
C3631 C3622 1.390 . S
C3631 H3624 0.950 . S
C3631 C3628 1.387 . S
C3632 C3633 1.387 . S
C3632 H3636 0.950 . S
C3632 C3641 1.390 . S
C3633 C3632 1.387 . S
C3633 C3635 1.387 . S
H3634 C3641 0.950 . S
C3635 C3633 1.387 . S
C3635 C3637 1.390 . S
C3635 H3639 0.950 . S
H3636 C3632 0.950 . S
C3637 C3635 1.390 . S
C3637 C3638 1.387 . S
C3637 H3640 0.950 . S
C3638 C3637 1.387 . S
C3638 C3641 1.387 . S
H3639 C3635 0.950 . S
H3640 C3637 0.950 . S
C3641 C3632 1.390 . S
C3641 H3634 0.950 . S
C3641 C3638 1.387 . S
C3642 C3643 1.387 . S
C3642 H3646 0.950 . S
C3642 C3651 1.390 . S
C3643 C3642 1.387 . S
C3643 C3645 1.387 . S
H3644 C3651 0.950 . S
C3645 C3643 1.387 . S
C3645 C3647 1.390 . S
C3645 H3649 0.950 . S
H3646 C3642 0.950 . S
C3647 C3645 1.390 . S
C3647 C3648 1.387 . S
C3647 H3650 0.950 . S
C3648 C3647 1.387 . S
C3648 C3651 1.387 . S
H3649 C3645 0.950 . S
H3650 C3647 0.950 . S
C3651 C3642 1.390 . S
C3651 H3644 0.950 . S
C3651 C3648 1.387 . S
C3652 C3653 1.387 . S
C3652 H3656 0.950 . S
C3652 C3661 1.390 . S
C3653 C3652 1.387 . S
C3653 C3655 1.387 . S
H3654 C3661 0.950 . S
C3655 C3653 1.387 . S
C3655 C3657 1.390 . S
C3655 H3659 0.950 . S
H3656 C3652 0.950 . S
C3657 C3655 1.390 . S
C3657 C3658 1.387 . S
C3657 H3660 0.950 . S
C3658 C3657 1.387 . S
C3658 C3661 1.387 . S
H3659 C3655 0.950 . S
H3660 C3657 0.950 . S
C3661 C3652 1.390 . S
C3661 H3654 0.950 . S
C3661 C3658 1.387 . S
C3662 C3663 1.387 . S
C3662 H3666 0.950 . S
C3662 C3671 1.390 . S
C3663 C3662 1.387 . S
C3663 C3665 1.387 . S
H3664 C3671 0.950 . S
C3665 C3663 1.387 . S
C3665 C3667 1.390 . S
C3665 H3669 0.950 . S
H3666 C3662 0.950 . S
C3667 C3665 1.390 . S
C3667 C3668 1.387 . S
C3667 H3670 0.950 . S
C3668 C3667 1.387 . S
C3668 C3671 1.387 . S
H3669 C3665 0.950 . S
H3670 C3667 0.950 . S
C3671 C3662 1.390 . S
C3671 H3664 0.950 . S
C3671 C3668 1.387 . S
C3672 C3673 1.387 . S
C3672 H3676 0.950 . S
C3672 C3681 1.390 . S
C3673 C3672 1.387 . S
C3673 C3675 1.387 . S
H3674 C3681 0.950 . S
C3675 C3673 1.387 . S
C3675 C3677 1.390 . S
C3675 H3679 0.950 . S
H3676 C3672 0.950 . S
C3677 C3675 1.390 . S
C3677 C3678 1.387 . S
C3677 H3680 0.950 . S
C3678 C3677 1.387 . S
C3678 C3681 1.387 . S
H3679 C3675 0.950 . S
H3680 C3677 0.950 . S
C3681 C3672 1.390 . S
C3681 H3674 0.950 . S
C3681 C3678 1.387 . S
C3682 C3683 1.387 . S
C3682 H3686 0.950 . S
C3682 C3691 1.390 . S
C3683 C3682 1.387 . S
C3683 C3685 1.387 . S
H3684 C3691 0.950 . S
C3685 C3683 1.387 . S
C3685 C3687 1.390 . S
C3685 H3689 0.950 . S
H3686 C3682 0.950 . S
C3687 C3685 1.390 . S
C3687 C3688 1.387 . S
C3687 H3690 0.950 . S
C3688 C3687 1.387 . S
C3688 C3691 1.387 . S
H3689 C3685 0.950 . S
H3690 C3687 0.950 . S
C3691 C3682 1.390 . S
C3691 H3684 0.950 . S
C3691 C3688 1.387 . S
C3692 C3693 1.387 . S
C3692 H3696 0.950 . S
C3692 C3701 1.390 . S
C3693 C3692 1.387 . S
C3693 C3695 1.387 . S
H3694 C3701 0.950 . S
C3695 C3693 1.387 . S
C3695 C3697 1.390 . S
C3695 H3699 0.950 . S
H3696 C3692 0.950 . S
C3697 C3695 1.390 . S
C3697 C3698 1.387 . S
C3697 H3700 0.950 . S
C3698 C3697 1.387 . S
C3698 C3701 1.387 . S
H3699 C3695 0.950 . S
H3700 C3697 0.950 . S
C3701 C3692 1.390 . S
C3701 H3694 0.950 . S
C3701 C3698 1.387 . S
C3702 C3703 1.387 . S
C3702 H3706 0.950 . S
C3702 C3711 1.390 . S
C3703 C3702 1.387 . S
C3703 C3705 1.387 . S
H3704 C3711 0.950 . S
C3705 C3703 1.387 . S
C3705 C3707 1.390 . S
C3705 H3709 0.950 . S
H3706 C3702 0.950 . S
C3707 C3705 1.390 . S
C3707 C3708 1.387 . S
C3707 H3710 0.950 . S
C3708 C3707 1.387 . S
C3708 C3711 1.387 . S
H3709 C3705 0.950 . S
H3710 C3707 0.950 . S
C3711 C3702 1.390 . S
C3711 H3704 0.950 . S
C3711 C3708 1.387 . S
C3712 C3713 1.387 . S
C3712 H3716 0.950 . S
C3712 C3721 1.390 . S
C3713 C3712 1.387 . S
C3713 C3715 1.387 . S
H3714 C3721 0.950 . S
C3715 C3713 1.387 . S
C3715 C3717 1.390 . S
C3715 H3719 0.950 . S
H3716 C3712 0.950 . S
C3717 C3715 1.390 . S
C3717 C3718 1.387 . S
C3717 H3720 0.950 . S
C3718 C3717 1.387 . S
C3718 C3721 1.387 . S
H3719 C3715 0.950 . S
H3720 C3717 0.950 . S
C3721 C3712 1.390 . S
C3721 H3714 0.950 . S
C3721 C3718 1.387 . S
C3722 C3723 1.387 . S
C3722 H3726 0.950 . S
C3722 C3731 1.390 . S
C3723 C3722 1.387 . S
C3723 C3725 1.387 . S
H3724 C3731 0.950 . S
C3725 C3723 1.387 . S
C3725 C3727 1.390 . S
C3725 H3729 0.950 . S
H3726 C3722 0.950 . S
C3727 C3725 1.390 . S
C3727 C3728 1.387 . S
C3727 H3730 0.950 . S
C3728 C3727 1.387 . S
C3728 C3731 1.387 . S
H3729 C3725 0.950 . S
H3730 C3727 0.950 . S
C3731 C3722 1.390 . S
C3731 H3724 0.950 . S
C3731 C3728 1.387 . S
C3732 C3733 1.387 . S
C3732 H3736 0.950 . S
C3732 C3741 1.390 . S
C3733 C3732 1.387 . S
C3733 C3735 1.387 . S
H3734 C3741 0.950 . S
C3735 C3733 1.387 . S
C3735 C3737 1.390 . S
C3735 H3739 0.950 . S
H3736 C3732 0.950 . S
C3737 C3735 1.390 . S
C3737 C3738 1.387 . S
C3737 H3740 0.950 . S
C3738 C3737 1.387 . S
C3738 C3741 1.387 . S
H3739 C3735 0.950 . S
H3740 C3737 0.950 . S
C3741 C3732 1.390 . S
C3741 H3734 0.950 . S
C3741 C3738 1.387 . S
C3742 C3743 1.387 . S
C3742 H3746 0.950 . S
C3742 C3751 1.390 . S
C3743 C3742 1.387 . S
C3743 C3745 1.387 . S
H3744 C3751 0.950 . S
C3745 C3743 1.387 . S
C3745 C3747 1.390 . S
C3745 H3749 0.950 . S
H3746 C3742 0.950 . S
C3747 C3745 1.390 . S
C3747 C3748 1.387 . S
C3747 H3750 0.950 . S
C3748 C3747 1.387 . S
C3748 C3751 1.387 . S
H3749 C3745 0.950 . S
H3750 C3747 0.950 . S
C3751 C3742 1.390 . S
C3751 H3744 0.950 . S
C3751 C3748 1.387 . S
C3752 C3753 1.387 . S
C3752 H3756 0.950 . S
C3752 C3761 1.390 . S
C3753 C3752 1.387 . S
C3753 C3755 1.387 . S
H3754 C3761 0.950 . S
C3755 C3753 1.387 . S
C3755 C3757 1.390 . S
C3755 H3759 0.950 . S
H3756 C3752 0.950 . S
C3757 C3755 1.390 . S
C3757 C3758 1.387 . S
C3757 H3760 0.950 . S
C3758 C3757 1.387 . S
C3758 C3761 1.387 . S
H3759 C3755 0.950 . S
H3760 C3757 0.950 . S
C3761 C3752 1.390 . S
C3761 H3754 0.950 . S
C3761 C3758 1.387 . S
C3762 C3763 1.387 . S
C3762 H3766 0.950 . S
C3762 C3771 1.390 . S
C3763 C3762 1.387 . S
C3763 C3765 1.387 . S
H3764 C3771 0.950 . S
C3765 C3763 1.387 . S
C3765 C3767 1.390 . S
C3765 H3769 0.950 . S
H3766 C3762 0.950 . S
C3767 C3765 1.390 . S
C3767 C3768 1.387 . S
C3767 H3770 0.950 . S
C3768 C3767 1.387 . S
C3768 C3771 1.387 . S
H3769 C3765 0.950 . S
H3770 C3767 0.950 . S
C3771 C3762 1.390 . S
C3771 H3764 0.950 . S
C3771 C3768 1.387 . S
C3772 C3773 1.387 . S
C3772 H3776 0.950 . S
C3772 C3781 1.390 . S
C3773 C3772 1.387 . S
C3773 C3775 1.387 . S
H3774 C3781 0.950 . S
C3775 C3773 1.387 . S
C3775 C3777 1.390 . S
C3775 H3779 0.950 . S
H3776 C3772 0.950 . S
C3777 C3775 1.390 . S
C3777 C3778 1.387 . S
C3777 H3780 0.950 . S
C3778 C3777 1.387 . S
C3778 C3781 1.387 . S
H3779 C3775 0.950 . S
H3780 C3777 0.950 . S
C3781 C3772 1.390 . S
C3781 H3774 0.950 . S
C3781 C3778 1.387 . S
C3782 C3783 1.387 . S
C3782 H3786 0.950 . S
C3782 C3791 1.390 . S
C3783 C3782 1.387 . S
C3783 C3785 1.387 . S
H3784 C3791 0.950 . S
C3785 C3783 1.387 . S
C3785 C3787 1.390 . S
C3785 H3789 0.950 . S
H3786 C3782 0.950 . S
C3787 C3785 1.390 . S
C3787 C3788 1.387 . S
C3787 H3790 0.950 . S
C3788 C3787 1.387 . S
C3788 C3791 1.387 . S
H3789 C3785 0.950 . S
H3790 C3787 0.950 . S
C3791 C3782 1.390 . S
C3791 H3784 0.950 . S
C3791 C3788 1.387 . S
C3792 C3793 1.387 . S
C3792 H3796 0.950 . S
C3792 C3801 1.390 . S
C3793 C3792 1.387 . S
C3793 C3795 1.387 . S
H3794 C3801 0.950 . S
C3795 C3793 1.387 . S
C3795 C3797 1.390 . S
C3795 H3799 0.950 . S
H3796 C3792 0.950 . S
C3797 C3795 1.390 . S
C3797 C3798 1.387 . S
C3797 H3800 0.950 . S
C3798 C3797 1.387 . S
C3798 C3801 1.387 . S
H3799 C3795 0.950 . S
H3800 C3797 0.950 . S
C3801 C3792 1.390 . S
C3801 H3794 0.950 . S
C3801 C3798 1.387 . S
C3802 C3803 1.387 . S
C3802 H3806 0.950 . S
C3802 C3811 1.390 . S
C3803 C3802 1.387 . S
C3803 C3805 1.387 . S
H3804 C3811 0.950 . S
C3805 C3803 1.387 . S
C3805 C3807 1.390 . S
C3805 H3809 0.950 . S
H3806 C3802 0.950 . S
C3807 C3805 1.390 . S
C3807 C3808 1.387 . S
C3807 H3810 0.950 . S
C3808 C3807 1.387 . S
C3808 C3811 1.387 . S
H3809 C3805 0.950 . S
H3810 C3807 0.950 . S
C3811 C3802 1.390 . S
C3811 H3804 0.950 . S
C3811 C3808 1.387 . S
C3812 C3813 1.387 . S
C3812 H3816 0.950 . S
C3812 C3821 1.390 . S
C3813 C3812 1.387 . S
C3813 C3815 1.387 . S
H3814 C3821 0.950 . S
C3815 C3813 1.387 . S
C3815 C3817 1.390 . S
C3815 H3819 0.950 . S
H3816 C3812 0.950 . S
C3817 C3815 1.390 . S
C3817 C3818 1.387 . S
C3817 H3820 0.950 . S
C3818 C3817 1.387 . S
C3818 C3821 1.387 . S
H3819 C3815 0.950 . S
H3820 C3817 0.950 . S
C3821 C3812 1.390 . S
C3821 H3814 0.950 . S
C3821 C3818 1.387 . S
C3822 C3823 1.387 . S
C3822 H3826 0.950 . S
C3822 C3831 1.390 . S
C3823 C3822 1.387 . S
C3823 C3825 1.387 . S
H3824 C3831 0.950 . S
C3825 C3823 1.387 . S
C3825 C3827 1.390 . S
C3825 H3829 0.950 . S
H3826 C3822 0.950 . S
C3827 C3825 1.390 . S
C3827 C3828 1.387 . S
C3827 H3830 0.950 . S
C3828 C3827 1.387 . S
C3828 C3831 1.387 . S
H3829 C3825 0.950 . S
H3830 C3827 0.950 . S
C3831 C3822 1.390 . S
C3831 H3824 0.950 . S
C3831 C3828 1.387 . S
C3832 C3833 1.387 . S
C3832 H3836 0.950 . S
C3832 C3841 1.390 . S
C3833 C3832 1.387 . S
C3833 C3835 1.387 . S
H3834 C3841 0.950 . S
C3835 C3833 1.387 . S
C3835 C3837 1.390 . S
C3835 H3839 0.950 . S
H3836 C3832 0.950 . S
C3837 C3835 1.390 . S
C3837 C3838 1.387 . S
C3837 H3840 0.950 . S
C3838 C3837 1.387 . S
C3838 C3841 1.387 . S
H3839 C3835 0.950 . S
H3840 C3837 0.950 . S
C3841 C3832 1.390 . S
C3841 H3834 0.950 . S
C3841 C3838 1.387 . S
C3842 C3843 1.387 . S
C3842 H3846 0.950 . S
C3842 C3851 1.390 . S
C3843 C3842 1.387 . S
C3843 C3845 1.387 . S
H3844 C3851 0.950 . S
C3845 C3843 1.387 . S
C3845 C3847 1.390 . S
C3845 H3849 0.950 . S
H3846 C3842 0.950 . S
C3847 C3845 1.390 . S
C3847 C3848 1.387 . S
C3847 H3850 0.950 . S
C3848 C3847 1.387 . S
C3848 C3851 1.387 . S
H3849 C3845 0.950 . S
H3850 C3847 0.950 . S
C3851 C3842 1.390 . S
C3851 H3844 0.950 . S
C3851 C3848 1.387 . S
C3852 C3853 1.387 . S
C3852 H3856 0.950 . S
C3852 C3861 1.390 . S
C3853 C3852 1.387 . S
C3853 C3855 1.387 . S
H3854 C3861 0.950 . S
C3855 C3853 1.387 . S
C3855 C3857 1.390 . S
C3855 H3859 0.950 . S
H3856 C3852 0.950 . S
C3857 C3855 1.390 . S
C3857 C3858 1.387 . S
C3857 H3860 0.950 . S
C3858 C3857 1.387 . S
C3858 C3861 1.387 . S
H3859 C3855 0.950 . S
H3860 C3857 0.950 . S
C3861 C3852 1.390 . S
C3861 H3854 0.950 . S
C3861 C3858 1.387 . S
C3862 C3863 1.387 . S
C3862 H3866 0.950 . S
C3862 C3871 1.390 . S
C3863 C3862 1.387 . S
C3863 C3865 1.387 . S
H3864 C3871 0.950 . S
C3865 C3863 1.387 . S
C3865 C3867 1.390 . S
C3865 H3869 0.950 . S
H3866 C3862 0.950 . S
C3867 C3865 1.390 . S
C3867 C3868 1.387 . S
C3867 H3870 0.950 . S
C3868 C3867 1.387 . S
C3868 C3871 1.387 . S
H3869 C3865 0.950 . S
H3870 C3867 0.950 . S
C3871 C3862 1.390 . S
C3871 H3864 0.950 . S
C3871 C3868 1.387 . S
C3872 C3873 1.387 . S
C3872 H3876 0.950 . S
C3872 C3881 1.390 . S
C3873 C3872 1.387 . S
C3873 C3875 1.387 . S
H3874 C3881 0.950 . S
C3875 C3873 1.387 . S
C3875 C3877 1.390 . S
C3875 H3879 0.950 . S
H3876 C3872 0.950 . S
C3877 C3875 1.390 . S
C3877 C3878 1.387 . S
C3877 H3880 0.950 . S
C3878 C3877 1.387 . S
C3878 C3881 1.387 . S
H3879 C3875 0.950 . S
H3880 C3877 0.950 . S
C3881 C3872 1.390 . S
C3881 H3874 0.950 . S
C3881 C3878 1.387 . S
C3882 C3883 1.387 . S
C3882 H3886 0.950 . S
C3882 C3891 1.390 . S
C3883 C3882 1.387 . S
C3883 C3885 1.387 . S
H3884 C3891 0.950 . S
C3885 C3883 1.387 . S
C3885 C3887 1.390 . S
C3885 H3889 0.950 . S
H3886 C3882 0.950 . S
C3887 C3885 1.390 . S
C3887 C3888 1.387 . S
C3887 H3890 0.950 . S
C3888 C3887 1.387 . S
C3888 C3891 1.387 . S
H3889 C3885 0.950 . S
H3890 C3887 0.950 . S
C3891 C3882 1.390 . S
C3891 H3884 0.950 . S
C3891 C3888 1.387 . S
C3892 C3893 1.387 . S
C3892 H3896 0.950 . S
C3892 C3901 1.390 . S
C3893 C3892 1.387 . S
C3893 C3895 1.387 . S
H3894 C3901 0.950 . S
C3895 C3893 1.387 . S
C3895 C3897 1.390 . S
C3895 H3899 0.950 . S
H3896 C3892 0.950 . S
C3897 C3895 1.390 . S
C3897 C3898 1.387 . S
C3897 H3900 0.950 . S
C3898 C3897 1.387 . S
C3898 C3901 1.387 . S
H3899 C3895 0.950 . S
H3900 C3897 0.950 . S
C3901 C3892 1.390 . S
C3901 H3894 0.950 . S
C3901 C3898 1.387 . S
C3902 C3903 1.387 . S
C3902 H3906 0.950 . S
C3902 C3911 1.390 . S
C3903 C3902 1.387 . S
C3903 C3905 1.387 . S
H3904 C3911 0.950 . S
C3905 C3903 1.387 . S
C3905 C3907 1.390 . S
C3905 H3909 0.950 . S
H3906 C3902 0.950 . S
C3907 C3905 1.390 . S
C3907 C3908 1.387 . S
C3907 H3910 0.950 . S
C3908 C3907 1.387 . S
C3908 C3911 1.387 . S
H3909 C3905 0.950 . S
H3910 C3907 0.950 . S
C3911 C3902 1.390 . S
C3911 H3904 0.950 . S
C3911 C3908 1.387 . S
C3912 C3913 1.387 . S
C3912 H3916 0.950 . S
C3912 C3921 1.390 . S
C3913 C3912 1.387 . S
C3913 C3915 1.387 . S
H3914 C3921 0.950 . S
C3915 C3913 1.387 . S
C3915 C3917 1.390 . S
C3915 H3919 0.950 . S
H3916 C3912 0.950 . S
C3917 C3915 1.390 . S
C3917 C3918 1.387 . S
C3917 H3920 0.950 . S
C3918 C3917 1.387 . S
C3918 C3921 1.387 . S
H3919 C3915 0.950 . S
H3920 C3917 0.950 . S
C3921 C3912 1.390 . S
C3921 H3914 0.950 . S
C3921 C3918 1.387 . S
C3922 C3923 1.387 . S
C3922 H3926 0.950 . S
C3922 C3931 1.390 . S
C3923 C3922 1.387 . S
C3923 C3925 1.387 . S
H3924 C3931 0.950 . S
C3925 C3923 1.387 . S
C3925 C3927 1.390 . S
C3925 H3929 0.950 . S
H3926 C3922 0.950 . S
C3927 C3925 1.390 . S
C3927 C3928 1.387 . S
C3927 H3930 0.950 . S
C3928 C3927 1.387 . S
C3928 C3931 1.387 . S
H3929 C3925 0.950 . S
H3930 C3927 0.950 . S
C3931 C3922 1.390 . S
C3931 H3924 0.950 . S
C3931 C3928 1.387 . S
C3932 C3933 1.387 . S
C3932 H3936 0.950 . S
C3932 C3941 1.390 . S
C3933 C3932 1.387 . S
C3933 C3935 1.387 . S
H3934 C3941 0.950 . S
C3935 C3933 1.387 . S
C3935 C3937 1.390 . S
C3935 H3939 0.950 . S
H3936 C3932 0.950 . S
C3937 C3935 1.390 . S
C3937 C3938 1.387 . S
C3937 H3940 0.950 . S
C3938 C3937 1.387 . S
C3938 C3941 1.387 . S
H3939 C3935 0.950 . S
H3940 C3937 0.950 . S
C3941 C3932 1.390 . S
C3941 H3934 0.950 . S
C3941 C3938 1.387 . S
C3942 C3943 1.387 . S
C3942 H3946 0.950 . S
C3942 C3951 1.390 . S
C3943 C3942 1.387 . S
C3943 C3945 1.387 . S
H3944 C3951 0.950 . S
C3945 C3943 1.387 . S
C3945 C3947 1.390 . S
C3945 H3949 0.950 . S
H3946 C3942 0.950 . S
C3947 C3945 1.390 . S
C3947 C3948 1.387 . S
C3947 H3950 0.950 . S
C3948 C3947 1.387 . S
C3948 C3951 1.387 . S
H3949 C3945 0.950 . S
H3950 C3947 0.950 . S
C3951 C3942 1.390 . S
C3951 H3944 0.950 . S
C3951 C3948 1.387 . S
C3952 C3953 1.387 . S
C3952 H3956 0.950 . S
C3952 C3961 1.390 . S
C3953 C3952 1.387 . S
C3953 C3955 1.387 . S
H3954 C3961 0.950 . S
C3955 C3953 1.387 . S
C3955 C3957 1.390 . S
C3955 H3959 0.950 . S
H3956 C3952 0.950 . S
C3957 C3955 1.390 . S
C3957 C3958 1.387 . S
C3957 H3960 0.950 . S
C3958 C3957 1.387 . S
C3958 C3961 1.387 . S
H3959 C3955 0.950 . S
H3960 C3957 0.950 . S
C3961 C3952 1.390 . S
C3961 H3954 0.950 . S
C3961 C3958 1.387 . S
C3962 C3963 1.387 . S
C3962 H3966 0.950 . S
C3962 C3971 1.390 . S
C3963 C3962 1.387 . S
C3963 C3965 1.387 . S
H3964 C3971 0.950 . S
C3965 C3963 1.387 . S
C3965 C3967 1.390 . S
C3965 H3969 0.950 . S
H3966 C3962 0.950 . S
C3967 C3965 1.390 . S
C3967 C3968 1.387 . S
C3967 H3970 0.950 . S
C3968 C3967 1.387 . S
C3968 C3971 1.387 . S
H3969 C3965 0.950 . S
H3970 C3967 0.950 . S
C3971 C3962 1.390 . S
C3971 H3964 0.950 . S
C3971 C3968 1.387 . S
C3972 C3973 1.387 . S
C3972 H3976 0.950 . S
C3972 C3981 1.390 . S
C3973 C3972 1.387 . S
C3973 C3975 1.387 . S
H3974 C3981 0.950 . S
C3975 C3973 1.387 . S
C3975 C3977 1.390 . S
C3975 H3979 0.950 . S
H3976 C3972 0.950 . S
C3977 C3975 1.390 . S
C3977 C3978 1.387 . S
C3977 H3980 0.950 . S
C3978 C3977 1.387 . S
C3978 C3981 1.387 . S
H3979 C3975 0.950 . S
H3980 C3977 0.950 . S
C3981 C3972 1.390 . S
C3981 H3974 0.950 . S
C3981 C3978 1.387 . S
C3982 C3983 1.387 . S
C3982 H3986 0.950 . S
C3982 C3991 1.390 . S
C3983 C3982 1.387 . S
C3983 C3985 1.387 . S
H3984 C3991 0.950 . S
C3985 C3983 1.387 . S
C3985 C3987 1.390 . S
C3985 H3989 0.950 . S
H3986 C3982 0.950 . S
C3987 C3985 1.390 . S
C3987 C3988 1.387 . S
C3987 H3990 0.950 . S
C3988 C3987 1.387 . S
C3988 C3991 1.387 . S
H3989 C3985 0.950 . S
H3990 C3987 0.950 . S
C3991 C3982 1.390 . S
C3991 H3984 0.950 . S
C3991 C3988 1.387 . S
C3992 C3993 1.387 . S
C3992 H3996 0.950 . S
C3992 C4001 1.390 . S
C3993 C3992 1.387 . S
C3993 C3995 1.387 . S
H3994 C4001 0.950 . S
C3995 C3993 1.387 . S
C3995 C3997 1.390 . S
C3995 H3999 0.950 . S
H3996 C3992 0.950 . S
C3997 C3995 1.390 . S
C3997 C3998 1.387 . S
C3997 H4000 0.950 . S
C3998 C3997 1.387 . S
C3998 C4001 1.387 . S
H3999 C3995 0.950 . S
H4000 C3997 0.950 . S
C4001 C3992 1.390 . S
C4001 H3994 0.950 . S
C4001 C3998 1.387 . S
C4002 C4003 1.387 . S
C4002 H4006 0.950 . S
C4002 C4011 1.390 . S
C4003 C4002 1.387 . S
C4003 C4005 1.387 . S
H4004 C4011 0.950 . S
C4005 C4003 1.387 . S
C4005 C4007 1.390 . S
C4005 H4009 0.950 . S
H4006 C4002 0.950 . S
C4007 C4005 1.390 . S
C4007 C4008 1.387 . S
C4007 H4010 0.950 . S
C4008 C4007 1.387 . S
C4008 C4011 1.387 . S
H4009 C4005 0.950 . S
H4010 C4007 0.950 . S
C4011 C4002 1.390 . S
C4011 H4004 0.950 . S
C4011 C4008 1.387 . S
C4012 C4013 1.387 . S
C4012 H4016 0.950 . S
C4012 C4021 1.390 . S
C4013 C4012 1.387 . S
C4013 C4015 1.387 . S
H4014 C4021 0.950 . S
C4015 C4013 1.387 . S
C4015 C4017 1.390 . S
C4015 H4019 0.950 . S
H4016 C4012 0.950 . S
C4017 C4015 1.390 . S
C4017 C4018 1.387 . S
C4017 H4020 0.950 . S
C4018 C4017 1.387 . S
C4018 C4021 1.387 . S
H4019 C4015 0.950 . S
H4020 C4017 0.950 . S
C4021 C4012 1.390 . S
C4021 H4014 0.950 . S
C4021 C4018 1.387 . S
C4022 C4023 1.387 1_565 S
C4022 H4026 0.950 . S
C4022 C4031 1.390 . S
C4023 C4022 1.387 1_545 S
C4023 C4025 1.387 . S
H4024 C4031 0.950 . S
C4025 C4023 1.387 . S
C4025 C4027 1.390 . S
C4025 H4029 0.950 . S
H4026 C4022 0.950 . S
C4027 C4025 1.390 . S
C4027 C4028 1.387 . S
C4027 H4030 0.950 . S
C4028 C4027 1.387 . S
C4028 C4031 1.387 1_545 S
H4029 C4025 0.950 . S
H4030 C4027 0.950 . S
C4031 C4022 1.390 . S
C4031 H4024 0.950 . S
C4031 C4028 1.387 1_565 S
C4032 C4033 1.387 . S
C4032 H4036 0.950 . S
C4032 C4041 1.390 . S
C4033 C4032 1.387 . S
C4033 C4035 1.387 . S
H4034 C4041 0.950 . S
C4035 C4033 1.387 . S
C4035 C4037 1.390 . S
C4035 H4039 0.950 . S
H4036 C4032 0.950 . S
C4037 C4035 1.390 . S
C4037 C4038 1.387 . S
C4037 H4040 0.950 . S
C4038 C4037 1.387 . S
C4038 C4041 1.387 . S
H4039 C4035 0.950 . S
H4040 C4037 0.950 . S
C4041 C4032 1.390 . S
C4041 H4034 0.950 . S
C4041 C4038 1.387 . S
C4042 C4043 1.387 . S
C4042 H4046 0.950 . S
C4042 C4051 1.390 . S
C4043 C4042 1.387 . S
C4043 C4045 1.387 . S
H4044 C4051 0.950 . S
C4045 C4043 1.387 . S
C4045 C4047 1.390 . S
C4045 H4049 0.950 . S
H4046 C4042 0.950 . S
C4047 C4045 1.390 . S
C4047 C4048 1.387 . S
C4047 H4050 0.950 . S
C4048 C4047 1.387 . S
C4048 C4051 1.387 . S
H4049 C4045 0.950 . S
H4050 C4047 0.950 . S
C4051 C4042 1.390 . S
C4051 H4044 0.950 . S
C4051 C4048 1.387 . S
C4052 C4053 1.387 . S
C4052 H4056 0.950 . S
C4052 C4061 1.390 . S
C4053 C4052 1.387 . S
C4053 C4055 1.387 . S
H4054 C4061 0.950 . S
C4055 C4053 1.387 . S
C4055 C4057 1.390 . S
C4055 H4059 0.950 . S
H4056 C4052 0.950 . S
C4057 C4055 1.390 . S
C4057 C4058 1.387 . S
C4057 H4060 0.950 . S
C4058 C4057 1.387 . S
C4058 C4061 1.387 . S
H4059 C4055 0.950 . S
H4060 C4057 0.950 . S
C4061 C4052 1.390 . S
C4061 H4054 0.950 . S
C4061 C4058 1.387 . S
C4062 C4063 1.387 . S
C4062 H4066 0.950 . S
C4062 C4071 1.390 . S
C4063 C4062 1.387 . S
C4063 C4065 1.387 . S
H4064 C4071 0.950 . S
C4065 C4063 1.387 . S
C4065 C4067 1.390 . S
C4065 H4069 0.950 . S
H4066 C4062 0.950 . S
C4067 C4065 1.390 . S
C4067 C4068 1.387 . S
C4067 H4070 0.950 . S
C4068 C4067 1.387 . S
C4068 C4071 1.387 . S
H4069 C4065 0.950 . S
H4070 C4067 0.950 . S
C4071 C4062 1.390 . S
C4071 H4064 0.950 . S
C4071 C4068 1.387 . S
C4072 C4073 1.387 . S
C4072 H4076 0.950 . S
C4072 C4081 1.390 . S
C4073 C4072 1.387 . S
C4073 C4075 1.387 . S
H4074 C4081 0.950 . S
C4075 C4073 1.387 . S
C4075 C4077 1.390 . S
C4075 H4079 0.950 . S
H4076 C4072 0.950 . S
C4077 C4075 1.390 . S
C4077 C4078 1.387 . S
C4077 H4080 0.950 . S
C4078 C4077 1.387 . S
C4078 C4081 1.387 . S
H4079 C4075 0.950 . S
H4080 C4077 0.950 . S
C4081 C4072 1.390 . S
C4081 H4074 0.950 . S
C4081 C4078 1.387 . S
C4082 C4083 1.387 . S
C4082 H4086 0.950 . S
C4082 C4091 1.390 . S
C4083 C4082 1.387 . S
C4083 C4085 1.387 . S
H4084 C4091 0.950 . S
C4085 C4083 1.387 . S
C4085 C4087 1.390 . S
C4085 H4089 0.950 . S
H4086 C4082 0.950 . S
C4087 C4085 1.390 . S
C4087 C4088 1.387 . S
C4087 H4090 0.950 . S
C4088 C4087 1.387 . S
C4088 C4091 1.387 . S
H4089 C4085 0.950 . S
H4090 C4087 0.950 . S
C4091 C4082 1.390 . S
C4091 H4084 0.950 . S
C4091 C4088 1.387 . S
C4092 C4093 1.387 . S
C4092 H4096 0.950 . S
C4092 C4101 1.390 . S
C4093 C4092 1.387 . S
C4093 C4095 1.387 . S
H4094 C4101 0.950 . S
C4095 C4093 1.387 . S
C4095 C4097 1.390 . S
C4095 H4099 0.950 . S
H4096 C4092 0.950 . S
C4097 C4095 1.390 . S
C4097 C4098 1.387 . S
C4097 H4100 0.950 . S
C4098 C4097 1.387 . S
C4098 C4101 1.387 . S
H4099 C4095 0.950 . S
H4100 C4097 0.950 . S
C4101 C4092 1.390 . S
C4101 H4094 0.950 . S
C4101 C4098 1.387 . S
C4102 C4103 1.387 . S
C4102 H4106 0.950 . S
C4102 C4111 1.390 . S
C4103 C4102 1.387 . S
C4103 C4105 1.387 . S
H4104 C4111 0.950 . S
C4105 C4103 1.387 . S
C4105 C4107 1.390 . S
C4105 H4109 0.950 . S
H4106 C4102 0.950 . S
C4107 C4105 1.390 . S
C4107 C4108 1.387 . S
C4107 H4110 0.950 . S
C4108 C4107 1.387 . S
C4108 C4111 1.387 . S
H4109 C4105 0.950 . S
H4110 C4107 0.950 . S
C4111 C4102 1.390 . S
C4111 H4104 0.950 . S
C4111 C4108 1.387 . S
C4112 C4113 1.387 . S
C4112 H4116 0.950 . S
C4112 C4121 1.390 . S
C4113 C4112 1.387 . S
C4113 C4115 1.387 . S
H4114 C4121 0.950 . S
C4115 C4113 1.387 . S
C4115 C4117 1.390 . S
C4115 H4119 0.950 . S
H4116 C4112 0.950 . S
C4117 C4115 1.390 . S
C4117 C4118 1.387 . S
C4117 H4120 0.950 . S
C4118 C4117 1.387 . S
C4118 C4121 1.387 . S
H4119 C4115 0.950 . S
H4120 C4117 0.950 . S
C4121 C4112 1.390 . S
C4121 H4114 0.950 . S
C4121 C4118 1.387 . S
C4122 C4123 1.387 . S
C4122 H4126 0.950 . S
C4122 C4131 1.390 . S
C4123 C4122 1.387 . S
C4123 C4125 1.387 . S
H4124 C4131 0.950 . S
C4125 C4123 1.387 . S
C4125 C4127 1.390 . S
C4125 H4129 0.950 . S
H4126 C4122 0.950 . S
C4127 C4125 1.390 . S
C4127 C4128 1.387 . S
C4127 H4130 0.950 . S
C4128 C4127 1.387 . S
C4128 C4131 1.387 . S
H4129 C4125 0.950 . S
H4130 C4127 0.950 . S
C4131 C4122 1.390 . S
C4131 H4124 0.950 . S
C4131 C4128 1.387 . S
C4132 C4133 1.387 . S
C4132 H4136 0.950 . S
C4132 C4141 1.390 . S
C4133 C4132 1.387 . S
C4133 C4135 1.387 . S
H4134 C4141 0.950 . S
C4135 C4133 1.387 . S
C4135 C4137 1.390 . S
C4135 H4139 0.950 . S
H4136 C4132 0.950 . S
C4137 C4135 1.390 . S
C4137 C4138 1.387 . S
C4137 H4140 0.950 . S
C4138 C4137 1.387 . S
C4138 C4141 1.387 . S
H4139 C4135 0.950 . S
H4140 C4137 0.950 . S
C4141 C4132 1.390 . S
C4141 H4134 0.950 . S
C4141 C4138 1.387 . S
C4142 C4143 1.387 . S
C4142 H4146 0.950 . S
C4142 C4151 1.390 . S
C4143 C4142 1.387 . S
C4143 C4145 1.387 . S
H4144 C4151 0.950 . S
C4145 C4143 1.387 . S
C4145 C4147 1.390 . S
C4145 H4149 0.950 . S
H4146 C4142 0.950 . S
C4147 C4145 1.390 . S
C4147 C4148 1.387 . S
C4147 H4150 0.950 . S
C4148 C4147 1.387 . S
C4148 C4151 1.387 . S
H4149 C4145 0.950 . S
H4150 C4147 0.950 . S
C4151 C4142 1.390 . S
C4151 H4144 0.950 . S
C4151 C4148 1.387 . S
C4152 C4153 1.387 . S
C4152 H4156 0.950 . S
C4152 C4161 1.390 . S
C4153 C4152 1.387 . S
C4153 C4155 1.387 . S
H4154 C4161 0.950 . S
C4155 C4153 1.387 . S
C4155 C4157 1.390 . S
C4155 H4159 0.950 . S
H4156 C4152 0.950 . S
C4157 C4155 1.390 . S
C4157 C4158 1.387 . S
C4157 H4160 0.950 . S
C4158 C4157 1.387 . S
C4158 C4161 1.387 . S
H4159 C4155 0.950 . S
H4160 C4157 0.950 . S
C4161 C4152 1.390 . S
C4161 H4154 0.950 . S
C4161 C4158 1.387 . S
C4162 C4163 1.387 . S
C4162 H4166 0.950 . S
C4162 C4171 1.390 . S
C4163 C4162 1.387 . S
C4163 C4165 1.387 . S
H4164 C4171 0.950 . S
C4165 C4163 1.387 . S
C4165 C4167 1.390 . S
C4165 H4169 0.950 . S
H4166 C4162 0.950 . S
C4167 C4165 1.390 . S
C4167 C4168 1.387 . S
C4167 H4170 0.950 . S
C4168 C4167 1.387 . S
C4168 C4171 1.387 . S
H4169 C4165 0.950 . S
H4170 C4167 0.950 . S
C4171 C4162 1.390 . S
C4171 H4164 0.950 . S
C4171 C4168 1.387 . S
C4172 C4173 1.387 . S
C4172 H4176 0.950 . S
C4172 C4181 1.390 . S
C4173 C4172 1.387 . S
C4173 C4175 1.387 . S
H4174 C4181 0.950 . S
C4175 C4173 1.387 . S
C4175 C4177 1.390 . S
C4175 H4179 0.950 . S
H4176 C4172 0.950 . S
C4177 C4175 1.390 . S
C4177 C4178 1.387 . S
C4177 H4180 0.950 . S
C4178 C4177 1.387 . S
C4178 C4181 1.387 . S
H4179 C4175 0.950 . S
H4180 C4177 0.950 . S
C4181 C4172 1.390 . S
C4181 H4174 0.950 . S
C4181 C4178 1.387 . S
C4182 C4183 1.387 . S
C4182 H4186 0.950 . S
C4182 C4191 1.390 . S
C4183 C4182 1.387 . S
C4183 C4185 1.387 . S
H4184 C4191 0.950 . S
C4185 C4183 1.387 . S
C4185 C4187 1.390 . S
C4185 H4189 0.950 . S
H4186 C4182 0.950 . S
C4187 C4185 1.390 . S
C4187 C4188 1.387 . S
C4187 H4190 0.950 . S
C4188 C4187 1.387 . S
C4188 C4191 1.387 . S
H4189 C4185 0.950 . S
H4190 C4187 0.950 . S
C4191 C4182 1.390 . S
C4191 H4184 0.950 . S
C4191 C4188 1.387 . S
C4192 C4193 1.387 . S
C4192 H4196 0.950 . S
C4192 C4201 1.390 . S
C4193 C4192 1.387 . S
C4193 C4195 1.387 . S
H4194 C4201 0.950 . S
C4195 C4193 1.387 . S
C4195 C4197 1.390 . S
C4195 H4199 0.950 . S
H4196 C4192 0.950 . S
C4197 C4195 1.390 . S
C4197 C4198 1.387 . S
C4197 H4200 0.950 . S
C4198 C4197 1.387 . S
C4198 C4201 1.387 . S
H4199 C4195 0.950 . S
H4200 C4197 0.950 . S
C4201 C4192 1.390 . S
C4201 H4194 0.950 . S
C4201 C4198 1.387 . S
C4202 C4203 1.387 . S
C4202 H4206 0.950 . S
C4202 C4211 1.390 . S
C4203 C4202 1.387 . S
C4203 C4205 1.387 . S
H4204 C4211 0.950 . S
C4205 C4203 1.387 . S
C4205 C4207 1.390 . S
C4205 H4209 0.950 . S
H4206 C4202 0.950 . S
C4207 C4205 1.390 . S
C4207 C4208 1.387 . S
C4207 H4210 0.950 . S
C4208 C4207 1.387 . S
C4208 C4211 1.387 . S
H4209 C4205 0.950 . S
H4210 C4207 0.950 . S
C4211 C4202 1.390 . S
C4211 H4204 0.950 . S
C4211 C4208 1.387 . S
C4212 C4213 1.387 . S
C4212 H4216 0.950 . S
C4212 C4221 1.390 . S
C4213 C4212 1.387 . S
C4213 C4215 1.387 . S
H4214 C4221 0.950 . S
C4215 C4213 1.387 . S
C4215 C4217 1.390 . S
C4215 H4219 0.950 . S
H4216 C4212 0.950 . S
C4217 C4215 1.390 . S
C4217 C4218 1.387 . S
C4217 H4220 0.950 . S
C4218 C4217 1.387 . S
C4218 C4221 1.387 . S
H4219 C4215 0.950 . S
H4220 C4217 0.950 . S
C4221 C4212 1.390 . S
C4221 H4214 0.950 . S
C4221 C4218 1.387 . S
C4222 C4223 1.387 . S
C4222 H4226 0.950 . S
C4222 C4231 1.390 . S
C4223 C4222 1.387 . S
C4223 C4225 1.387 . S
H4224 C4231 0.950 . S
C4225 C4223 1.387 . S
C4225 C4227 1.390 . S
C4225 H4229 0.950 . S
H4226 C4222 0.950 . S
C4227 C4225 1.390 . S
C4227 C4228 1.387 . S
C4227 H4230 0.950 . S
C4228 C4227 1.387 . S
C4228 C4231 1.387 . S
H4229 C4225 0.950 . S
H4230 C4227 0.950 . S
C4231 C4222 1.390 . S
C4231 H4224 0.950 . S
C4231 C4228 1.387 . S
C4232 C4233 1.387 . S
C4232 H4236 0.950 . S
C4232 C4241 1.390 . S
C4233 C4232 1.387 . S
C4233 C4235 1.387 . S
H4234 C4241 0.950 . S
C4235 C4233 1.387 . S
C4235 C4237 1.390 . S
C4235 H4239 0.950 . S
H4236 C4232 0.950 . S
C4237 C4235 1.390 . S
C4237 C4238 1.387 . S
C4237 H4240 0.950 . S
C4238 C4237 1.387 . S
C4238 C4241 1.387 . S
H4239 C4235 0.950 . S
H4240 C4237 0.950 . S
C4241 C4232 1.390 . S
C4241 H4234 0.950 . S
C4241 C4238 1.387 . S
C4242 C4243 1.387 . S
C4242 H4246 0.950 . S
C4242 C4251 1.390 . S
C4243 C4242 1.387 . S
C4243 C4245 1.387 . S
H4244 C4251 0.950 . S
C4245 C4243 1.387 . S
C4245 C4247 1.390 . S
C4245 H4249 0.950 . S
H4246 C4242 0.950 . S
C4247 C4245 1.390 . S
C4247 C4248 1.387 . S
C4247 H4250 0.950 . S
C4248 C4247 1.387 . S
C4248 C4251 1.387 . S
H4249 C4245 0.950 . S
H4250 C4247 0.950 . S
C4251 C4242 1.390 . S
C4251 H4244 0.950 . S
C4251 C4248 1.387 . S
C4252 C4253 1.361 1_565 S
C4252 H4256 0.950 . S
C4252 C4261 1.390 . S
C4253 C4252 1.361 1_545 S
C4253 C4255 1.427 . S
H4254 C4261 0.950 . S
C4255 C4253 1.427 . S
C4255 C4257 1.390 . S
C4255 H4259 0.950 . S
H4256 C4252 0.950 . S
C4257 C4255 1.390 . S
C4257 C4258 1.387 . S
C4257 H4260 0.950 . S
C4258 C4257 1.387 . S
C4258 C4261 1.387 1_545 S
H4259 C4255 0.950 . S
H4260 C4257 0.950 . S
C4261 C4252 1.390 . S
C4261 H4254 0.950 . S
C4261 C4258 1.387 1_565 S
C4262 C4263 1.387 1_545 S
C4262 H4266 0.950 . S
C4262 C4271 1.390 . S
C4263 C4262 1.387 1_565 S
C4263 C4265 1.387 . S
H4264 C4271 0.950 . S
C4265 C4263 1.387 . S
C4265 C4267 1.390 . S
C4265 H4269 0.950 . S
H4266 C4262 0.950 . S
C4267 C4265 1.390 . S
C4267 C4268 1.387 . S
C4267 H4270 0.950 . S
C4268 C4267 1.387 . S
C4268 C4271 1.387 1_565 S
H4269 C4265 0.950 . S
H4270 C4267 0.950 . S
C4271 C4262 1.390 . S
C4271 H4264 0.950 . S
C4271 C4268 1.387 1_545 S
C2833 C1781 1.722 . S
C2838 C1922 1.801 . S
C2843 C981 1.597 . S
C2848 C1941 1.647 . S
C2858 C1960 1.457 . S
C2853 C1861 1.497 . S
C2863 C1061 1.727 . S
C2868 C1979 1.735 . S
C2873 C1901 1.834 . S
C2878 C1998 1.744 . S
C2883 C941 1.623 . S
C2888 C2017 1.657 . S
C2893 C1821 1.805 . S
C2898 C2036 1.726 . S
C2903 C1021 1.408 . S
C2908 C2055 1.351 . S
C2913 C661 1.595 . S
C2918 C2074 1.641 . S
C2923 C1621 1.256 . S
C2928 C2093 1.337 . S
C2933 C741 1.798 . S
C2938 C2112 1.886 . S
C2943 C1581 1.729 . S
C2948 C2131 1.760 . S
C2953 C901 1.572 . S
C2958 C2150 1.567 . S
C2968 C2169 1.856 . S
C2963 C1661 1.818 . S
C2978 C2188 1.773 . S
C2973 C821 1.858 . S
C2983 C1141 1.607 . S
C2988 C2207 1.704 . S
C2998 C2226 1.770 . S
C2993 C781 1.749 . S
C3008 C2245 1.566 . S
C3003 C1701 1.669 . S
C3013 C861 1.774 . S
C3018 C2264 1.913 . S
C3023 C1181 1.830 . S
C3028 C2283 1.921 . S
C3038 C2302 1.451 . S
C3033 C1101 1.453 . S
C3043 C1421 1.723 . S
C3048 C2321 1.631 . S
C3058 C2340 1.892 . S
C3053 C381 1.951 . S
C3068 C2359 1.686 . S
C3063 C1501 1.759 . S
C3078 C2378 1.569 . S
C3073 C461 1.545 . S
C3088 C2397 1.611 . S
C3083 C1541 1.596 . S
C3093 C341 1.601 . S
C3098 C2416 1.483 . S
C3108 C2435 1.706 . S
C3103 C1461 1.713 . S
C3113 C421 1.660 . S
C3118 C2454 1.594 . S
C3128 C2473 1.791 . S
C3123 C61 1.815 . S
C3138 C2492 1.747 . S
C3133 C1261 1.618 . S
C3143 C141 1.841 . S
C3148 C2511 1.809 . S
C3158 C2530 1.762 . S
C3153 C1221 1.709 . S
C3168 C2549 1.387 . S
C3163 C301 1.455 . S
C3173 C1301 1.711 . S
C3178 C2568 1.640 . S
C3188 C2587 1.331 . S
C3183 C221 1.344 . S
C3198 C2606 1.962 . S
C3193 C541 1.888 . S
C3203 C181 1.650 . S
C3208 C2625 1.589 . S
C3218 C2644 1.267 . S
C3213 C1341 1.284 . S
C3223 C261 1.877 . S
C3228 C2663 1.949 . S
C3238 C2682 1.699 . S
C3233 C581 1.764 . S
C3243 C501 1.762 . S
C3248 C2701 1.725 . S
C3253 C701 1.278 . S
C3258 C2720 1.318 . S
C3268 C2739 1.527 . S
C3263 C621 1.519 . S
C3273 C1741 1.579 . S
C3278 C2758 1.575 . S
C3283 C101 1.566 . S
C3288 C2777 1.699 . S
C3298 C2796 1.419 . S
C3293 C21 1.393 . S
C3308 C2815 1.349 . S
C3303 C1381 1.423 . S
C3313 C1335 1.833 . S
C3318 C1926 1.869 . S
C3323 C535 1.859 . S
C3328 C1950 2.024 . S
C3333 C1362 1.845 . S
C3338 C1964 1.765 . S
C3348 C1983 1.664 . S
C3343 C1295 1.625 . S
C3353 C575 1.752 . S
C3358 C2007 1.528 . S
C3363 C1215 1.843 . S
C3368 C2026 1.869 . S
C3378 C2040 1.993 . S
C3373 C495 1.951 . S
C3383 C1242 1.498 . S
C3388 C2064 1.484 . S
C3393 C1255 1.676 . S
C3398 C2078 1.615 . S
C3408 C2102 1.863 . S
C3403 C562 1.822 . S
C3413 C1202 2.224 . S
C3418 C2116 2.165 . S
C3428 C2140 1.763 . S
C3423 C482 1.771 . S
C3433 C522 1.581 . S
C3438 C2159 1.478 . S
C3443 C1375 1.874 . S
C3448 C2173 1.921 . S
C3458 C2197 1.719 . S
C3453 C1282 1.715 . S
C3468 C2211 1.907 . S
C3463 C1322 1.914 . S
C3473 C455 1.819 . S
C3478 C2135 1.785 . S
C3483 C1415 1.615 . S
C3488 C2235 1.389 . S
C3493 C1455 1.588 . S
C3498 C2249 1.548 . S
C3508 C2273 2.167 . S
C3503 C1482 2.126 . S
C3518 C2154 1.656 . S
C3513 C442 1.563 . S
C3523 C362 1.912 . S
C3528 C2097 1.811 . S
C3533 C1495 1.867 . S
C3538 C2292 1.679 . S
C3548 C2311 1.816 . S
C3543 C1402 1.909 . S
C3558 C2325 1.783 . S
C3553 C1695 1.808 . S
C3563 C1135 1.956 . S
C3568 C2344 2.042 . S
C3578 C2368 1.478 . S
C3573 C1722 1.568 . S
C3588 C2382 1.866 . S
C3583 C1655 1.819 . S
C3593 C1175 1.817 . S
C3598 C2406 1.859 . S
C3603 C1562 1.941 . S
C3608 C2425 1.795 . S
C3613 C1095 1.526 . S
C3618 C2439 1.562 . S
C3628 C2458 1.809 . S
C3623 C1615 1.741 . S
C3638 C2477 2.018 . S
C3633 C1602 1.949 . S
C3643 C1162 1.587 . S
C3648 C2501 1.639 . S
C3658 C2515 2.137 . S
C3653 C1575 2.135 . S
C3663 C1082 1.516 . S
C3668 C2539 1.571 . S
C3678 C2558 1.784 . S
C3673 C1122 1.780 . S
C3683 C1735 1.711 . S
C3688 C2572 1.671 . S
C3698 C2596 1.700 . S
C3693 C1642 1.645 . S
C3703 C1682 1.787 . S
C3708 C2615 1.642 . S
C3713 C1042 1.785 . S
C3718 C2534 1.830 . S
C3723 C1775 1.809 . S
C3728 C2634 1.768 . S
C3733 C1815 1.908 . S
C3738 C2648 1.862 . S
C3748 C2667 1.655 . S
C3743 C1842 1.649 . S
C3753 C1055 1.739 . S
C3758 C2553 1.767 . S
C3763 C975 1.965 . S
C3768 C2496 2.069 . S
C3778 C2691 2.028 . S
C3773 C1855 1.998 . S
C3783 C1762 1.876 . S
C3788 C2710 2.086 . S
C3798 C2021 1.804 . S
C3793 C215 1.788 . S
C3808 C2045 2.014 . S
C3803 C255 1.856 . S
C3818 C2059 1.638 . S
C3813 C282 1.751 . S
C3828 C2002 1.496 . S
C3823 C175 1.497 . S
C3838 C1988 1.626 . S
C3833 C135 1.851 . S
C3843 C15 1.830 . S
C3848 C1931 1.881 . S
C3853 C55 2.001 . S
C3858 C1945 2.044 . S
C3863 C82 1.565 . S
C3868 C1969 1.563 . S
C3873 C95 1.794 . S
C3878 C2306 1.757 . S
C3883 C122 1.830 . S
C3888 C2729 1.897 . S
C3893 C2 2.167 . S
C3898 C2287 2.113 . S
C3903 C42 1.739 . S
C3908 C2748 1.741 . S
C3913 C242 1.579 . S
C3918 C2767 1.482 . S
C3928 C2230 1.821 . S
C3923 C295 1.798 . S
C3933 C162 1.589 . S
C3938 C2254 1.558 . S
C3943 C202 1.774 . S
C3948 C2268 1.792 . S
C3958 C2743 1.653 . S
C3953 C1535 1.709 . S
C3963 C335 1.589 . S
C3968 C2178 1.418 . S
C3973 C375 1.892 . S
C3978 C2192 1.959 . S
C3983 C402 2.042 . S
C3988 C2216 2.058 . S
C3998 C2762 1.661 . S
C3993 C1522 1.572 . S
C4008 C2724 1.616 . S
C4003 C1442 1.543 . S
C4018 C2121 1.568 . S
C4013 C415 1.785 . S
C4023 C322 1.954 . S
C4028 C2083 1.836 . S
C4033 C815 2.003 . S
C4038 C2420 1.929 . S
C4043 C855 1.840 . S
C4048 C2444 1.788 . S
C4053 C882 1.551 . S
C4058 C2463 1.431 . S
C4063 C775 1.772 . S
C4068 C2401 1.809 . S
C4078 C2387 1.834 . S
C4073 C735 1.781 . S
C4088 C2330 1.640 . S
C4083 C602 1.757 . S
C4098 C2349 1.546 . S
C4093 C655 1.549 . S
C4103 C695 1.731 . S
C4108 C2363 1.766 . S
C4118 C2705 1.840 . S
C4113 C682 1.794 . S
C4123 C722 1.514 . S
C4128 C2786 1.589 . S
C4133 C615 1.990 . S
C4138 C2686 1.943 . S
C4148 C2805 1.733 . S
C4143 C642 1.597 . S
C4153 C842 1.878 . S
C4158 C2824 1.895 . S
C4168 C2629 1.572 . S
C4163 C895 1.626 . S
C4173 C762 1.604 . S
C4178 C2653 1.665 . S
C4183 C802 1.827 . S
C4188 C2672 1.702 . S
C4193 C1895 1.744 . S
C4198 C2800 1.694 . S
C4208 C2577 1.646 . S
C4203 C935 1.696 . S
C4213 C962 1.766 . S
C4218 C2591 1.826 . S
C4223 C1002 1.757 . S
C4228 C2610 1.769 . S
C4233 C1882 1.771 . S
C4238 C2819 1.753 . S
C4243 C1802 1.947 . S
C4248 C2781 1.978 . S
C4258 C2520 2.190 . S
C4253 C1015 2.120 . S
C4268 C2482 1.956 1_565 S
C4263 C922 1.772 . S
