# Generated by pormake.
# Topology apo, (3,6)-cn, num edge types: 1
# Building blocks:
#     Node 0, Type 0, BuildingBlock: BETDIP_clean_linker_0, # of connection points: 3
#     Node 1, Type 0, BuildingBlock: BETDIP_clean_linker_0, # of connection points: 3
#     Node 2, Type 0, BuildingBlock: BETDIP_clean_linker_0, # of connection points: 3
#     Node 3, Type 0, BuildingBlock: BETDIP_clean_linker_0, # of connection points: 3
#     Node 4, Type 0, BuildingBlock: BETDIP_clean_linker_0, # of connection points: 3
#     Node 5, Type 0, BuildingBlock: BETDIP_clean_linker_0, # of connection points: 3
#     Node 6, Type 0, BuildingBlock: BETDIP_clean_linker_0, # of connection points: 3
#     Node 7, Type 0, BuildingBlock: BETDIP_clean_linker_0, # of connection points: 3
#     Node 8, Type 1, BuildingBlock: MIDCAF_clean_sbu_0, # of connection points: 6
#     Node 9, Type 1, BuildingBlock: MIDCAF_clean_sbu_0, # of connection points: 6
#     Node 10, Type 1, BuildingBlock: MIDCAF_clean_sbu_0, # of connection points: 6
#     Node 11, Type 1, BuildingBlock: MIDCAF_clean_sbu_0, # of connection points: 6
#     Edge 12, Type (0, 1), BuildingBlock: XUDNAN_clean_linker_2, # of connection points: 2
#     Edge 13, Type (0, 1), BuildingBlock: XUDNAN_clean_linker_2, # of connection points: 2
#     Edge 14, Type (0, 1), BuildingBlock: XUDNAN_clean_linker_2, # of connection points: 2
#     Edge 15, Type (0, 1), BuildingBlock: XUDNAN_clean_linker_2, # of connection points: 2
#     Edge 16, Type (0, 1), BuildingBlock: XUDNAN_clean_linker_2, # of connection points: 2
#     Edge 17, Type (0, 1), BuildingBlock: XUDNAN_clean_linker_2, # of connection points: 2
#     Edge 18, Type (0, 1), BuildingBlock: XUDNAN_clean_linker_2, # of connection points: 2
#     Edge 19, Type (0, 1), BuildingBlock: XUDNAN_clean_linker_2, # of connection points: 2
#     Edge 20, Type (0, 1), BuildingBlock: XUDNAN_clean_linker_2, # of connection points: 2
#     Edge 21, Type (0, 1), BuildingBlock: XUDNAN_clean_linker_2, # of connection points: 2
#     Edge 22, Type (0, 1), BuildingBlock: XUDNAN_clean_linker_2, # of connection points: 2
#     Edge 23, Type (0, 1), BuildingBlock: XUDNAN_clean_linker_2, # of connection points: 2
#     Edge 24, Type (0, 1), BuildingBlock: XUDNAN_clean_linker_2, # of connection points: 2
#     Edge 25, Type (0, 1), BuildingBlock: XUDNAN_clean_linker_2, # of connection points: 2
#     Edge 26, Type (0, 1), BuildingBlock: XUDNAN_clean_linker_2, # of connection points: 2
#     Edge 27, Type (0, 1), BuildingBlock: XUDNAN_clean_linker_2, # of connection points: 2
#     Edge 28, Type (0, 1), BuildingBlock: XUDNAN_clean_linker_2, # of connection points: 2
#     Edge 29, Type (0, 1), BuildingBlock: XUDNAN_clean_linker_2, # of connection points: 2
#     Edge 30, Type (0, 1), BuildingBlock: XUDNAN_clean_linker_2, # of connection points: 2
#     Edge 31, Type (0, 1), BuildingBlock: XUDNAN_clean_linker_2, # of connection points: 2
#     Edge 32, Type (0, 1), BuildingBlock: XUDNAN_clean_linker_2, # of connection points: 2
#     Edge 33, Type (0, 1), BuildingBlock: XUDNAN_clean_linker_2, # of connection points: 2
#     Edge 34, Type (0, 1), BuildingBlock: XUDNAN_clean_linker_2, # of connection points: 2
#     Edge 35, Type (0, 1), BuildingBlock: XUDNAN_clean_linker_2, # of connection points: 2
# Relax obj value: 0.012
# Max RMSD: 0.061
# Mean RMSD: 0.054
data_MOF--net-apo--node1-MIDCAF_clean_sbu_0--node2-BETDIP_clean_linker_0--edge1-XUDNAN_clean_linker_2
_symmetry_space_group_name_H-M    P1
_symmetry_Int_Tables_number       1
_symmetry_cell_setting            triclinic
loop_
_symmetry_equiv_pos_as_xyz
'x, y, z'
_cell_length_a     36.871579
_cell_length_b     41.300888
_cell_length_c     34.882611
_cell_angle_alpha  90.02562
_cell_angle_beta   89.912027
_cell_angle_gamma 90.242268
loop_
_atom_site_label
_atom_site_type_symbol
_atom_site_fract_x
_atom_site_fract_y
_atom_site_fract_z
_atom_type_partial_charge
H0 H 0.31607 0.27674 0.44166 0.0
H1 H 0.3393 0.32388 0.33428 0.0
H2 H 0.3995 0.34999 0.43483 0.0
H3 H 0.26869 0.31901 0.34122 0.0
C4 C 0.27251 0.29292 0.34159 0.0
C5 C 0.33213 0.29377 0.42511 0.0
C6 C 0.35824 0.31331 0.44338 0.0
C7 C 0.32489 0.29782 0.38587 0.0
C8 C 0.34479 0.32065 0.36455 0.0
C9 C 0.37219 0.33892 0.38204 0.0
C10 C 0.37884 0.33514 0.42127 0.0
N11 N 0.29717 0.27918 0.3682 0.0
H12 H 0.18499 0.22058 0.93579 0.0
H13 H 0.15397 0.18448 0.82522 0.0
H14 H 0.10984 0.14133 0.92736 0.0
H15 H 0.18008 0.22899 0.80268 0.0
C16 C 0.20162 0.23468 0.82277 0.0
C17 C 0.16895 0.20401 0.91862 0.0
C18 C 0.14606 0.18133 0.93651 0.0
C19 C 0.17211 0.20518 0.8786 0.0
C20 C 0.1518 0.18342 0.85601 0.0
C21 C 0.12922 0.15984 0.87312 0.0
C22 C 0.12672 0.15925 0.91347 0.0
N23 N 0.19774 0.22717 0.86241 0.0
H24 H 0.80645 0.21203 0.57879 0.0
H25 H 0.84826 0.17981 0.68656 0.0
H26 H 0.88587 0.13642 0.58171 0.0
H27 H 0.79044 0.1885 0.70559 0.0
C28 C 0.78338 0.21074 0.69084 0.0
C29 C 0.8244 0.19631 0.59475 0.0
C30 C 0.84737 0.17477 0.57527 0.0
C31 C 0.82334 0.1969 0.63489 0.0
C32 C 0.84714 0.17714 0.6558 0.0
C33 C 0.86955 0.15444 0.63729 0.0
C34 C 0.86916 0.15358 0.59685 0.0
N35 N 0.79761 0.21709 0.65358 0.0
H36 H 0.68093 0.26982 0.08087 0.0
H37 H 0.65456 0.31737 0.18716 0.0
H38 H 0.60126 0.34574 0.08312 0.0
H39 H 0.72361 0.30897 0.1877 0.0
C40 C 0.71981 0.28302 0.18421 0.0
C41 C 0.66517 0.28752 0.09658 0.0
C42 C 0.64097 0.30781 0.07701 0.0
C43 C 0.67073 0.29131 0.13615 0.0
C44 C 0.65076 0.31462 0.15653 0.0
C45 C 0.625 0.33366 0.13758 0.0
C46 C 0.62049 0.33037 0.09789 0.0
N47 N 0.69635 0.27134 0.155 0.0
H48 H 0.70699 0.69782 0.56942 0.0
H49 H 0.66803 0.66931 0.68083 0.0
H50 H 0.61149 0.63802 0.57974 0.0
H51 H 0.68917 0.73004 0.68705 0.0
C52 C 0.7159 0.72202 0.67807 0.0
C53 C 0.68711 0.68529 0.58694 0.0
C54 C 0.65868 0.66794 0.5695 0.0
C55 C 0.69012 0.68646 0.62705 0.0
C56 C 0.66505 0.66942 0.64993 0.0
C57 C 0.6367 0.65183 0.63291 0.0
C58 C 0.63343 0.65161 0.59284 0.0
N59 N 0.71951 0.7036 0.6439 0.0
H60 H 0.81437 0.78435 0.07835 0.0
H61 H 0.85044 0.83247 0.18103 0.0
H62 H 0.89831 0.85669 0.07225 0.0
H63 H 0.80103 0.74405 0.12359 0.0
C64 C 0.78964 0.7583 0.14682 0.0
C65 C 0.83235 0.80127 0.0926 0.0
C66 C 0.85661 0.81995 0.0706 0.0
C67 C 0.83017 0.80589 0.13263 0.0
C68 C 0.85243 0.82898 0.15029 0.0
C69 C 0.87759 0.84698 0.12888 0.0
C70 C 0.87942 0.84236 0.08909 0.0
N71 N 0.80473 0.78899 0.15585 0.0
H72 H 0.2093 0.79067 0.44342 0.0
H73 H 0.18476 0.84184 0.33935 0.0
H74 H 0.12151 0.85861 0.44115 0.0
H75 H 0.20447 0.79425 0.31214 0.0
C76 C 0.22785 0.78875 0.32985 0.0
C77 C 0.19281 0.8079 0.42788 0.0
C78 C 0.16471 0.82424 0.44678 0.0
C79 C 0.19896 0.81294 0.3886 0.0
C80 C 0.17829 0.83617 0.36885 0.0
C81 C 0.15053 0.85328 0.38762 0.0
C82 C 0.14337 0.84633 0.42637 0.0
N83 N 0.22676 0.79503 0.36998 0.0
H84 H 0.3138 0.71917 0.93662 0.0
H85 H 0.34895 0.68257 0.82763 0.0
H86 H 0.38882 0.63999 0.9316 0.0
H87 H 0.29292 0.69434 0.80992 0.0
C88 C 0.28602 0.71638 0.82519 0.0
C89 C 0.33012 0.70242 0.9201 0.0
C90 C 0.35275 0.68022 0.93892 0.0
C91 C 0.32713 0.70214 0.88 0.0
C92 C 0.34897 0.68094 0.85852 0.0
C93 C 0.37092 0.65777 0.8766 0.0
C94 C 0.37241 0.65771 0.91693 0.0
N95 N 0.30121 0.72262 0.86204 0.0
Zn96 Zn 0.02923 0.12095 0.3251 0.0
Zn97 Zn 0.96936 0.11201 0.19629 0.0
Zn98 Zn 0.00124 0.11496 0.25882 0.0
C99 C 0.03752 0.13514 0.17927 0.0
C100 C 0.97229 0.04952 0.22144 0.0
O101 O 0.96001 0.13526 0.29991 0.0
O102 O 0.98608 0.12918 0.35648 0.0
C103 C 0.06828 0.16187 0.2778 0.0
O104 O 0.03685 0.13951 0.21585 0.0
O105 O 0.01203 0.11998 0.1631 0.0
O106 O 0.95228 0.06659 0.20034 0.0
O107 O 0.99578 0.06303 0.24369 0.0
O108 O 0.0621 0.15771 0.31304 0.0
O109 O 0.0499 0.14614 0.25249 0.0
O110 O 0.01841 0.06563 0.27645 0.0
O111 O 0.04967 0.07691 0.32883 0.0
C112 C 0.0389 0.05652 0.30436 0.0
O113 O 0.94717 0.1388 0.26315 0.0
O114 O 0.93313 0.14687 0.20233 0.0
C115 C 0.95874 0.13667 0.33686 0.0
C116 C 0.92657 0.15143 0.23738 0.0
Zn117 Zn 0.53212 0.39364 0.69295 0.0
Zn118 Zn 0.47837 0.39291 0.83003 0.0
Zn119 Zn 0.50315 0.38763 0.76018 0.0
C120 C 0.47839 0.45453 0.80546 0.0
C121 C 0.42925 0.35413 0.78655 0.0
O122 O 0.55516 0.36026 0.76153 0.0
O123 O 0.57311 0.36437 0.70118 0.0
C124 C 0.53034 0.45504 0.71718 0.0
O125 O 0.49136 0.43888 0.77646 0.0
O126 O 0.4699 0.43976 0.83578 0.0
O127 O 0.43618 0.36407 0.82003 0.0
O128 O 0.45064 0.36138 0.75855 0.0
O129 O 0.544 0.43988 0.68943 0.0
O130 O 0.51336 0.43966 0.74403 0.0
O131 O 0.46473 0.3631 0.72053 0.0
O132 O 0.48928 0.37732 0.66501 0.0
C133 C 0.46416 0.36361 0.68359 0.0
O134 O 0.5419 0.36228 0.79977 0.0
O135 O 0.51978 0.3745 0.85706 0.0
C136 C 0.57795 0.35351 0.73456 0.0
C137 C 0.5437 0.36115 0.83673 0.0
Zn138 Zn 0.02777 0.894 0.8268 0.0
Zn139 Zn 0.97116 0.89189 0.68764 0.0
Zn140 Zn 0.00231 0.8873 0.75585 0.0
C141 C 0.98004 0.9542 0.7095 0.0
C142 C 0.92405 0.85606 0.73392 0.0
O143 O 0.05421 0.86108 0.7545 0.0
O144 O 0.0712 0.86734 0.81492 0.0
C145 C 0.02517 0.95541 0.80075 0.0
O146 O 0.9918 0.93833 0.73879 0.0
O147 O 0.9702 0.93936 0.67967 0.0
O148 O 0.92523 0.86937 0.70137 0.0
O149 O 0.95046 0.85972 0.75778 0.0
O150 O 0.03357 0.94141 0.83156 0.0
O151 O 0.01329 0.93882 0.77196 0.0
O152 O 0.96372 0.86238 0.79553 0.0
O153 O 0.98617 0.87365 0.85289 0.0
C154 C 0.96193 0.86078 0.83238 0.0
O155 O 0.04075 0.86311 0.71604 0.0
O156 O 0.0096 0.86655 0.66201 0.0
C157 C 0.07688 0.85582 0.78186 0.0
C158 C 0.03753 0.8574 0.67986 0.0
Zn159 Zn 0.52944 0.6005 0.18754 0.0
Zn160 Zn 0.47548 0.60548 0.31673 0.0
Zn161 Zn 0.50291 0.6072 0.25362 0.0
C162 C 0.54654 0.62261 0.32936 0.0
C163 C 0.46567 0.54499 0.29477 0.0
O164 O 0.46464 0.63176 0.21352 0.0
O165 O 0.48623 0.61376 0.15832 0.0
C166 C 0.577 0.64065 0.22692 0.0
O167 O 0.54379 0.62896 0.29329 0.0
O168 O 0.52123 0.60767 0.34623 0.0
O169 O 0.44883 0.5638 0.3169 0.0
O170 O 0.48963 0.55648 0.27138 0.0
O171 O 0.56976 0.63113 0.19342 0.0
O172 O 0.5559 0.63317 0.25507 0.0
O173 O 0.51089 0.5546 0.239 0.0
O174 O 0.54364 0.55489 0.18584 0.0
C175 C 0.52905 0.53947 0.21291 0.0
O176 O 0.45306 0.63784 0.25137 0.0
O177 O 0.44641 0.6452 0.31356 0.0
C178 C 0.46233 0.62904 0.17676 0.0
C179 C 0.43744 0.65227 0.27972 0.0
H180 H 0.12675 0.91076 0.41792 0.0
H181 H 0.12868 0.85572 0.31181 0.0
H182 H 0.09784 0.9008 0.27878 0.0
H183 H 0.03671 0.94532 0.40354 0.0
H184 H 0.04937 0.98318 0.4256 0.0
H185 H 0.07073 0.94614 0.4406 0.0
H186 H 0.13389 0.97117 0.42612 0.0
H187 H 0.11277 0.00818 0.41095 0.0
H188 H 0.14313 0.98718 0.37902 0.0
H189 H 0.07077 0.95453 0.25652 0.0
H190 H 0.04845 0.01069 0.24854 0.0
H191 H 0.05895 0.02674 0.37046 0.0
C192 C 0.12001 0.90763 0.38796 0.0
C193 C 0.13022 0.87947 0.36762 0.0
C194 C 0.12167 0.87714 0.32805 0.0
C195 C 0.10386 0.90253 0.30907 0.0
C196 C 0.09434 0.92992 0.33012 0.0
C197 C 0.10186 0.93238 0.36881 0.0
C198 C 0.08951 0.96443 0.38503 0.0
C199 C 0.05981 0.95946 0.41549 0.0
C200 C 0.12175 0.98388 0.40121 0.0
C201 C 0.07446 0.98 0.34928 0.0
C202 C 0.0774 0.95983 0.31781 0.0
C203 C 0.06739 0.9701 0.28122 0.0
C204 C 0.05413 0.00177 0.27688 0.0
C205 C 0.05048 0.02249 0.30885 0.0
C206 C 0.06077 0.01127 0.34546 0.0
H207 H 0.43429 0.62479 0.89469 0.0
H208 H 0.35108 0.6315 0.80671 0.0
H209 H 0.3794 0.58671 0.77211 0.0
H210 H 0.50978 0.59316 0.83427 0.0
H211 H 0.52375 0.56533 0.87114 0.0
H212 H 0.5035 0.60349 0.88407 0.0
H213 H 0.45467 0.57324 0.92413 0.0
H214 H 0.47485 0.53519 0.91147 0.0
H215 H 0.42757 0.54222 0.90155 0.0
H216 H 0.41092 0.5367 0.75098 0.0
H217 H 0.43807 0.48206 0.74984 0.0
H218 H 0.49514 0.50314 0.85536 0.0
C219 C 0.4219 0.61724 0.86806 0.0
C220 C 0.39039 0.63252 0.85361 0.0
C221 C 0.37581 0.62147 0.81822 0.0
C222 C 0.39167 0.59571 0.79821 0.0
C223 C 0.42186 0.5807 0.81401 0.0
C224 C 0.43659 0.59083 0.84838 0.0
C225 C 0.46504 0.56731 0.86251 0.0
C226 C 0.50275 0.58329 0.86302 0.0
C227 C 0.4549 0.55368 0.90224 0.0
C228 C 0.46268 0.5416 0.83166 0.0
C229 C 0.43866 0.55042 0.80314 0.0
C230 C 0.43025 0.52977 0.77277 0.0
C231 C 0.44588 0.4989 0.77221 0.0
C232 C 0.4691 0.48893 0.80208 0.0
C233 C 0.47805 0.51067 0.83179 0.0
H234 H 0.65565 0.60473 0.68347 0.0
H235 H 0.56258 0.65115 0.6321 0.0
H236 H 0.5222 0.60998 0.66123 0.0
H237 H 0.63062 0.5288 0.66208 0.0
H238 H 0.64713 0.50954 0.70498 0.0
H239 H 0.66727 0.54679 0.68899 0.0
H240 H 0.65363 0.57318 0.75486 0.0
H241 H 0.63347 0.53577 0.77116 0.0
H242 H 0.60792 0.57284 0.77329 0.0
H243 H 0.494 0.55862 0.68437 0.0
H244 H 0.48108 0.50086 0.69765 0.0
H245 H 0.59196 0.48728 0.73414 0.0
C246 C 0.6266 0.60699 0.67992 0.0
C247 C 0.61205 0.63131 0.65618 0.0
C248 C 0.57409 0.63283 0.65061 0.0
C249 C 0.55099 0.60966 0.6672 0.0
C250 C 0.56628 0.58515 0.68934 0.0
C251 C 0.60327 0.58378 0.69592 0.0
C252 C 0.61359 0.55244 0.71553 0.0
C253 C 0.64125 0.53328 0.69144 0.0
C254 C 0.628 0.55896 0.75613 0.0
C255 C 0.57707 0.53556 0.71688 0.0
C256 C 0.5499 0.55517 0.70264 0.0
C257 C 0.51474 0.54347 0.69683 0.0
C258 C 0.50749 0.51074 0.7047 0.0
C259 C 0.53517 0.4903 0.7184 0.0
C260 C 0.57008 0.50299 0.72522 0.0
H261 H 0.85779 0.89276 0.18157 0.0
H262 H 0.95021 0.85706 0.11743 0.0
H263 H 0.98801 0.90134 0.14358 0.0
H264 H 0.87296 0.97322 0.16463 0.0
H265 H 0.85877 0.98753 0.2111 0.0
H266 H 0.84084 0.95016 0.19263 0.0
H267 H 0.8629 0.9201 0.25346 0.0
H268 H 0.88102 0.95752 0.27213 0.0
H269 H 0.90995 0.9227 0.26715 0.0
H270 H 0.01258 0.95366 0.16781 0.0
H271 H 0.02181 0.01042 0.18808 0.0
H272 H 0.91487 0.01132 0.23912 0.0
C273 C 0.88628 0.89367 0.17404 0.0
C274 C 0.90116 0.87144 0.14765 0.0
C275 C 0.93827 0.87397 0.1375 0.0
C276 C 0.96 0.89884 0.15248 0.0
C277 C 0.94431 0.92081 0.17782 0.0
C278 C 0.90832 0.91838 0.18871 0.0
C279 C 0.89702 0.94701 0.21301 0.0
C280 C 0.86556 0.96557 0.1942 0.0
C281 C 0.88715 0.93617 0.25387 0.0
C282 C 0.93178 0.96663 0.21268 0.0
C283 C 0.95895 0.95082 0.19279 0.0
C284 C 0.99209 0.96574 0.18477 0.0
C285 C 0.99733 0.99781 0.19676 0.0
C286 C 0.96991 0.01429 0.21714 0.0
C287 C 0.93688 0.99846 0.22536 0.0
H288 H 0.93157 0.12053 0.61497 0.0
H289 H 0.85756 0.13209 0.71147 0.0
H290 H 0.89014 0.09005 0.74609 0.0
H291 H 0.92279 0.03829 0.61537 0.0
H292 H 0.96845 0.02985 0.59985 0.0
H293 H 0.94757 0.06752 0.58714 0.0
H294 H 0.00119 0.09879 0.61816 0.0
H295 H 0.0221 0.06098 0.63126 0.0
H296 H 0.01296 0.09103 0.66745 0.0
H297 H 0.92496 0.0419 0.76786 0.0
H298 H 0.95017 0.98658 0.76934 0.0
H299 H 0.99297 -0.00012 0.65469 0.0
C300 C 0.92185 0.11468 0.64336 0.0
C301 C 0.89172 0.13071 0.66003 0.0
C302 C 0.88116 0.12175 0.69784 0.0
C303 C 0.89952 0.09749 0.71802 0.0
C304 C 0.92805 0.08161 0.70002 0.0
C305 C 0.93871 0.08948 0.66321 0.0
C306 C 0.96488 0.06466 0.64727 0.0
C307 C 0.95001 0.04917 0.61025 0.0
C308 C 0.00252 0.07978 0.64065 0.0
C309 C 0.96566 0.04071 0.6801 0.0
C310 C 0.94572 0.05176 0.71102 0.0
C311 C 0.94092 0.03313 0.74399 0.0
C312 C 0.95542 0.00182 0.74465 0.0
C313 C 0.97348 0.98925 0.71214 0.0
C314 C 0.97954 0.00923 0.67998 0.0
H315 H 0.65024 0.38716 0.17441 0.0
H316 H 0.55153 0.33577 0.1453 0.0
H317 H 0.51505 0.38025 0.17315 0.0
H318 H 0.61633 0.42845 0.26384 0.0
H319 H 0.64055 0.46517 0.25221 0.0
H320 H 0.65856 0.42649 0.23784 0.0
H321 H 0.66121 0.44605 0.16726 0.0
H322 H 0.64329 0.48462 0.1814 0.0
H323 H 0.62058 0.46118 0.14494 0.0
H324 H 0.48958 0.4333 0.1964 0.0
H325 H 0.4778 0.49169 0.20767 0.0
H326 H 0.59316 0.50905 0.21842 0.0
C327 C 0.62097 0.3849 0.17527 0.0
C328 C 0.60351 0.35799 0.15859 0.0
C329 C 0.56519 0.35616 0.15857 0.0
C330 C 0.54436 0.38118 0.17445 0.0
C331 C 0.56234 0.4079 0.19 0.0
C332 C 0.59985 0.40992 0.19039 0.0
C333 C 0.61256 0.44298 0.2035 0.0
C334 C 0.63322 0.44062 0.24162 0.0
C335 C 0.63575 0.45968 0.17242 0.0
C336 C 0.57647 0.45969 0.20884 0.0
C337 C 0.54773 0.43887 0.20202 0.0
C338 C 0.51185 0.44965 0.20248 0.0
C339 C 0.50534 0.48271 0.20896 0.0
C340 C 0.53461 0.50436 0.2145 0.0
C341 C 0.5704 0.4926 0.21513 0.0
H342 H 0.34499 0.39379 0.35091 0.0
H343 H 0.44472 0.34058 0.36682 0.0
H344 H 0.47936 0.38546 0.33664 0.0
H345 H 0.37 0.43612 0.25983 0.0
H346 H 0.34822 0.47298 0.27496 0.0
H347 H 0.33091 0.43436 0.29089 0.0
H348 H 0.33672 0.45313 0.36156 0.0
H349 H 0.35408 0.49164 0.34591 0.0
H350 H 0.37997 0.4674 0.3789 0.0
H351 H 0.50347 0.43842 0.31093 0.0
H352 H 0.51542 0.49631 0.29694 0.0
H353 H 0.40011 0.51556 0.30118 0.0
C354 C 0.37398 0.3913 0.34681 0.0
C355 C 0.39232 0.36372 0.36024 0.0
C356 C 0.43037 0.3615 0.35602 0.0
C357 C 0.45013 0.38676 0.33884 0.0
C358 C 0.43134 0.41406 0.32644 0.0
C359 C 0.39408 0.4165 0.3304 0.0
C360 C 0.38088 0.44986 0.31948 0.0
C361 C 0.35603 0.44822 0.28418 0.0
C362 C 0.36181 0.46647 0.35349 0.0
C363 C 0.41657 0.46616 0.30997 0.0
C364 C 0.44531 0.44495 0.31318 0.0
C365 C 0.48112 0.45509 0.30778 0.0
C366 C 0.48767 0.4879 0.29968 0.0
C367 C 0.4586 0.51001 0.29742 0.0
C368 C 0.4227 0.49889 0.30221 0.0
H369 H 0.06566 0.12612 0.89019 0.0
H370 H 0.14893 0.13479 0.80213 0.0
H371 H 0.1205 0.09029 0.76675 0.0
H372 H 0.0743 0.04391 0.89611 0.0
H373 H 0.02727 0.03574 0.90672 0.0
H374 H 0.04684 0.07415 0.91939 0.0
H375 H 0.99692 0.10345 0.88034 0.0
H376 H 0.97736 0.0649 0.86735 0.0
H377 H 0.99034 0.0933 0.83055 0.0
H378 H 0.08775 0.0404 0.74412 0.0
H379 H 0.06155 0.98513 0.74281 0.0
H380 H 0.00794 0.0033 0.85117 0.0
C381 C 0.07823 0.11906 0.86348 0.0
C382 C 0.10978 0.13483 0.84934 0.0
C383 C 0.12423 0.12443 0.81359 0.0
C384 C 0.10828 0.09882 0.79309 0.0
C385 C 0.07818 0.08321 0.80878 0.0
C386 C 0.06369 0.09266 0.84352 0.0
C387 C 0.03591 0.06838 0.85788 0.0
C388 C 0.04676 0.05474 0.89733 0.0
C389 C 0.99788 0.08342 0.85909 0.0
C390 C 0.03844 0.04295 0.82675 0.0
C391 C 0.06162 0.05268 0.79771 0.0
C392 C 0.06936 0.03265 0.76655 0.0
C393 C 0.05432 0.00138 0.76595 0.0
C394 C 0.03289 0.99024 0.79692 0.0
C395 C 0.02408 0.01153 0.82708 0.0
H396 H 0.13843 0.12804 0.98314 0.0
H397 H 0.14269 0.23301 0.98655 0.0
H398 H 0.1274 0.23167 0.05551 0.0
H399 H 0.06007 0.1217 0.03438 0.0
H400 H 0.07183 0.08471 0.05871 0.0
H401 H 0.09163 0.0938 0.01292 0.0
H402 H 0.15589 0.08792 0.04225 0.0
H403 H 0.13611 0.07905 0.08839 0.0
H404 H 0.16827 0.11179 0.08353 0.0
H405 H 0.10261 0.21899 0.1222 0.0
H406 H 0.06584 0.19671 0.1759 0.0
H407 H 0.07361 0.10107 0.12595 0.0
C408 C 0.13664 0.15083 0.99834 0.0
C409 C 0.14175 0.18063 0.97913 0.0
C410 C 0.13952 0.20978 1.00055 0.0
C411 C 0.13077 0.20926 0.03983 0.0
C412 C 0.12447 0.17943 0.05744 0.0
C413 C 0.12732 0.15075 0.03719 0.0
C414 C 0.1142 0.12221 0.0606 0.0
C415 C 0.08256 0.10461 0.04047 0.0
C416 C 0.14549 0.09887 0.06921 0.0
C417 C 0.10182 0.1394 0.09656 0.0
C418 C 0.10899 0.17226 0.09495 0.0
C419 C 0.09742 0.19323 0.12398 0.0
C420 C 0.07674 0.18043 0.15446 0.0
C421 C 0.06728 0.14725 0.15492 0.0
C422 C 0.08104 0.12648 0.12637 0.0
H423 H 0.36159 0.36541 0.49063 0.0
H424 H 0.36624 0.26064 0.49127 0.0
H425 H 0.38199 0.26178 0.56043 0.0
H426 H 0.43738 0.37816 0.54279 0.0
H427 H 0.42107 0.41325 0.56817 0.0
H428 H 0.40269 0.4033 0.52206 0.0
H429 H 0.33793 0.40228 0.55129 0.0
H430 H 0.35634 0.41199 0.59777 0.0
H431 H 0.32833 0.37648 0.59176 0.0
H432 H 0.40769 0.27542 0.62651 0.0
H433 H 0.44322 0.29993 0.67965 0.0
H434 H 0.4217 0.3953 0.63425 0.0
C435 C 0.3652 0.34264 0.50553 0.0
C436 C 0.3629 0.31295 0.48568 0.0
C437 C 0.36764 0.28366 0.50609 0.0
C438 C 0.3765 0.28412 0.54536 0.0
C439 C 0.37984 0.31404 0.56382 0.0
C440 C 0.37399 0.34275 0.54442 0.0
C441 C 0.38348 0.37183 0.56874 0.0
C442 C 0.4129 0.39282 0.54929 0.0
C443 C 0.34949 0.39182 0.57793 0.0
C444 C 0.39767 0.35516 0.60417 0.0
C445 C 0.3945 0.32183 0.60149 0.0
C446 C 0.40944 0.30147 0.62929 0.0
C447 C 0.42937 0.31551 0.6595 0.0
C448 C 0.43438 0.34942 0.66115 0.0
C449 C 0.41723 0.36935 0.63401 0.0
H450 H 0.64689 0.35828 0.02753 0.0
H451 H 0.62604 0.25511 0.03166 0.0
H452 H 0.61142 0.25551 0.96228 0.0
H453 H 0.5759 0.37861 0.97243 0.0
H454 H 0.59841 0.40997 0.94531 0.0
H455 H 0.61437 0.39981 0.9923 0.0
H456 H 0.67845 0.389 0.96445 0.0
H457 H 0.66242 0.39889 0.91708 0.0
H458 H 0.68385 0.36045 0.92578 0.0
H459 H 0.58593 0.26974 0.89761 0.0
H460 H 0.55279 0.29618 0.84473 0.0
H461 H 0.59439 0.38928 0.88061 0.0
C462 C 0.64023 0.33564 0.01347 0.0
C463 C 0.63753 0.30666 0.0347 0.0
C464 C 0.62854 0.27748 0.01567 0.0
C465 C 0.62031 0.27753 0.9763 0.0
C466 C 0.62209 0.30682 0.95633 0.0
C467 C 0.63242 0.33527 0.97427 0.0
C468 C 0.62832 0.36412 0.94796 0.0
C469 C 0.60272 0.38958 0.96554 0.0
C470 C 0.66548 0.37899 0.93824 0.0
C471 C 0.61171 0.34791 0.91322 0.0
C472 C 0.60898 0.31472 0.91817 0.0
C473 C 0.58939 0.29542 0.89257 0.0
C474 C 0.571 0.31054 0.86223 0.0
C475 C 0.57286 0.34448 0.8574 0.0
C476 C 0.5944 0.36309 0.88249 0.0
H477 H 0.85419 0.12205 0.52774 0.0
H478 H 0.84679 0.22681 0.52592 0.0
H479 H 0.86047 0.22657 0.4566 0.0
H480 H 0.93123 0.1185 0.47617 0.0
H481 H 0.92065 0.08147 0.45111 0.0
H482 H 0.90043 0.08935 0.49692 0.0
H483 H 0.83651 0.08187 0.46711 0.0
H484 H 0.85676 0.07426 0.4209 0.0
H485 H 0.82359 0.10588 0.42624 0.0
H486 H 0.88636 0.21578 0.39065 0.0
H487 H 0.92645 0.19612 0.33848 0.0
H488 H 0.92063 0.09932 0.38524 0.0
C489 C 0.85474 0.14497 0.51272 0.0
C490 C 0.84948 0.17445 0.5325 0.0
C491 C 0.85015 0.20382 0.51146 0.0
C492 C 0.85793 0.20391 0.47196 0.0
C493 C 0.86474 0.17445 0.45376 0.0
C494 C 0.86309 0.14549 0.47361 0.0
C495 C 0.87721 0.1177 0.44968 0.0
C496 C 0.90928 0.10081 0.46965 0.0
C497 C 0.84668 0.0935 0.44043 0.0
C498 C 0.88919 0.13576 0.41409 0.0
C499 C 0.88061 0.1683 0.41622 0.0
C500 C 0.89241 0.19024 0.38828 0.0
C501 C 0.91496 0.17892 0.3586 0.0
C502 C 0.92583 0.14618 0.35774 0.0
C503 C 0.91165 0.12426 0.38486 0.0
H504 H 0.85312 0.8689 0.01898 0.0
H505 H 0.86568 0.76501 0.0272 0.0
H506 H 0.88046 0.76263 0.95788 0.0
H507 H 0.81906 0.87124 0.91557 0.0
H508 H 0.84437 0.90794 0.90684 0.0
H509 H 0.82563 0.90011 0.95374 0.0
H510 H 0.88943 0.90728 0.98389 0.0
H511 H 0.90811 0.91528 0.93741 0.0
H512 H 0.9265 0.8831 0.96627 0.0
H513 H 0.90724 0.77353 0.89223 0.0
H514 H 0.94438 0.79663 0.83951 0.0
H515 H 0.91335 0.89305 0.87419 0.0
C516 C 0.85777 0.84553 1.00579 0.0
C517 C 0.85823 0.81714 0.02821 0.0
C518 C 0.86478 0.78698 0.0103 0.0
C519 C 0.87314 0.78546 0.97095 0.0
C520 C 0.87409 0.81424 0.94987 0.0
C521 C 0.86602 0.84369 0.96675 0.0
C522 C 0.87387 0.87164 0.93997 0.0
C523 C 0.83862 0.88873 0.92834 0.0
C524 C 0.9011 0.89568 0.95795 0.0
C525 C 0.89016 0.85365 0.90638 0.0
C526 C 0.88913 0.82047 0.91192 0.0
C527 C 0.90709 0.79936 0.88699 0.0
C528 C 0.92792 0.81258 0.85692 0.0
C529 C 0.93068 0.84648 0.85242 0.0
C530 C 0.91037 0.86701 0.87638 0.0
H531 H 0.6447 0.61438 0.52614 0.0
H532 H 0.66281 0.71783 0.51737 0.0
H533 H 0.64714 0.71563 0.44834 0.0
H534 H 0.67497 0.59231 0.42649 0.0
H535 H 0.63981 0.56203 0.42263 0.0
H536 H 0.65981 0.57088 0.46862 0.0
H537 H 0.59602 0.58261 0.49669 0.0
H538 H 0.57596 0.57366 0.45105 0.0
H539 H 0.5676 0.61219 0.47365 0.0
H540 H 0.61862 0.70331 0.38339 0.0
H541 H 0.57904 0.68253 0.33145 0.0
H542 H 0.58049 0.58743 0.38322 0.0
C543 C 0.64617 0.63648 0.50949 0.0
C544 C 0.65493 0.66628 0.52708 0.0
C545 C 0.65657 0.69466 0.50435 0.0
C546 C 0.6477 0.69361 0.46512 0.0
C547 C 0.63783 0.6639 0.44896 0.0
C548 C 0.63744 0.6358 0.47053 0.0
C549 C 0.62187 0.60764 0.44818 0.0
C550 C 0.65085 0.58168 0.44105 0.0
C551 C 0.58839 0.59322 0.46859 0.0
C552 C 0.61167 0.62453 0.41132 0.0
C553 C 0.62179 0.65682 0.41173 0.0
C554 C 0.61157 0.67787 0.3823 0.0
C555 C 0.58943 0.66584 0.35259 0.0
C556 C 0.57763 0.63324 0.35287 0.0
C557 C 0.58996 0.61228 0.38191 0.0
H558 H 0.35387 0.62759 0.98647 0.0
H559 H 0.36136 0.73233 0.98727 0.0
H560 H 0.37821 0.73093 0.05592 0.0
H561 H 0.32412 0.61617 0.08913 0.0
H562 H 0.35204 0.58068 0.09376 0.0
H563 H 0.33192 0.59049 0.04816 0.0
H564 H 0.3955 0.58954 0.01623 0.0
H565 H 0.41563 0.57963 0.06148 0.0
H566 H 0.43113 0.61477 0.03543 0.0
H567 H 0.40544 0.71728 0.12083 0.0
H568 H 0.44232 0.69279 0.17271 0.0
H569 H 0.41867 0.5974 0.12785 0.0
C570 C 0.35823 0.65031 1.00129 0.0
C571 C 0.35637 0.68007 0.98147 0.0
C572 C 0.36216 0.70925 1.00196 0.0
C573 C 0.37178 0.70866 0.041 0.0
C574 C 0.37505 0.67872 0.05923 0.0
C575 C 0.36812 0.65008 0.03994 0.0
C576 C 0.37835 0.62094 0.06376 0.0
C577 C 0.34459 0.60089 0.07433 0.0
C578 C 0.40684 0.60003 0.043 0.0
C579 C 0.39407 0.63755 0.09865 0.0
C580 C 0.39105 0.67087 0.09622 0.0
C581 C 0.4071 0.69122 0.12347 0.0
C582 C 0.42783 0.67719 0.15295 0.0
C583 C 0.43252 0.64327 0.15449 0.0
C584 C 0.4145 0.62335 0.12776 0.0
H585 H 0.1024 0.8019 0.47857 0.0
H586 H 0.20941 0.83757 0.50734 0.0
H587 H 0.19171 0.84024 0.57594 0.0
H588 H 0.05524 0.85202 0.5347 0.0
H589 H 0.02042 0.82372 0.54902 0.0
H590 H 0.04411 0.81787 0.50464 0.0
H591 H 0.06285 0.76023 0.52614 0.0
H592 H 0.03898 0.76589 0.57079 0.0
H593 H 0.08623 0.75485 0.57102 0.0
H594 H 0.15767 0.84986 0.63855 0.0
H595 H 0.11163 0.86417 0.6876 0.0
H596 H 0.02833 0.8192 0.61802 0.0
C597 C 0.12246 0.80901 0.49964 0.0
C598 C 0.15729 0.81917 0.48805 0.0
C599 C 0.18277 0.82914 0.51599 0.0
C600 C 0.1729 0.83074 0.55493 0.0
C601 C 0.13771 0.82165 0.5654 0.0
C602 C 0.11314 0.81036 0.53847 0.0
C603 C 0.07593 0.80551 0.55578 0.0
C604 C 0.04728 0.82602 0.53481 0.0
C605 C 0.06539 0.76947 0.55595 0.0
C606 C 0.08265 0.81774 0.59602 0.0
C607 C 0.11852 0.82644 0.60149 0.0
C608 C 0.12979 0.84216 0.63499 0.0
C609 C 0.10355 0.85006 0.66285 0.0
C610 C 0.0666 0.84223 0.65687 0.0
C611 C 0.05653 0.82487 0.62368 0.0
H612 H 0.20023 0.30212 0.33439 0.0
H613 H 0.28692 0.23691 0.30295 0.0
H614 H 0.24275 0.20159 0.26917 0.0
H615 H 0.14101 0.24116 0.36057 0.0
H616 H 0.10047 0.26158 0.3451 0.0
H617 H 0.13965 0.28477 0.35877 0.0
H618 H 0.13877 0.31348 0.29263 0.0
H619 H 0.09979 0.2898 0.27858 0.0
H620 H 0.14016 0.28959 0.24938 0.0
H621 H 0.18855 0.17137 0.24343 0.0
H622 H 0.12922 0.14311 0.24045 0.0
H623 H 0.07798 0.22507 0.29524 0.0
C624 C 0.20985 0.28079 0.3195 0.0
C625 C 0.24676 0.27227 0.32052 0.0
C626 C 0.2586 0.24374 0.30209 0.0
C627 C 0.2338 0.22382 0.28254 0.0
C628 C 0.19729 0.23265 0.28229 0.0
C629 C 0.1853 0.26017 0.301 0.0
C630 C 0.14431 0.26138 0.30244 0.0
C631 C 0.13058 0.26224 0.34418 0.0
C632 C 0.12992 0.29028 0.27937 0.0
C633 C 0.13507 0.22966 0.28296 0.0
C634 C 0.1659 0.21409 0.27002 0.0
C635 C 0.16422 0.1835 0.25304 0.0
C636 C 0.13046 0.16772 0.25116 0.0
C637 C 0.09933 0.18227 0.2672 0.0
C638 C 0.10144 0.21395 0.28203 0.0
H639 H 0.26329 0.25012 0.86306 0.0
H640 H 0.21406 0.25755 0.75061 0.0
H641 H 0.26869 0.28648 0.72669 0.0
H642 H 0.30425 0.32765 0.86425 0.0
H643 H 0.34442 0.31436 0.88896 0.0
H644 H 0.30214 0.29329 0.89604 0.0
H645 H 0.33258 0.23943 0.87575 0.0
H646 H 0.37496 0.2604 0.86842 0.0
H647 H 0.35532 0.23694 0.83006 0.0
H648 H 0.32855 0.31734 0.71651 0.0
H649 H 0.38668 0.34745 0.72182 0.0
H650 H 0.39595 0.31719 0.84031 0.0
C651 C 0.26393 0.25772 0.83337 0.0
C652 C 0.23441 0.25175 0.80864 0.0
C653 C 0.23647 0.26201 0.76997 0.0
C654 C 0.26738 0.27835 0.75615 0.0
C655 C 0.29606 0.28396 0.78137 0.0
C656 C 0.29452 0.27383 0.81914 0.0
C657 C 0.32835 0.28333 0.84082 0.0
C658 C 0.31923 0.30601 0.87449 0.0
C659 C 0.34902 0.25323 0.85456 0.0
C660 C 0.34898 0.30092 0.80963 0.0
C661 C 0.33021 0.30095 0.77539 0.0
C662 C 0.34368 0.31701 0.74307 0.0
C663 C 0.37692 0.33375 0.74612 0.0
C664 C 0.39618 0.33419 0.78116 0.0
C665 C 0.382 0.3172 0.813 0.0
H666 H 0.75898 0.26984 0.66548 0.0
H667 H 0.74222 0.19708 0.75338 0.0
H668 H 0.69073 0.22861 0.77931 0.0
H669 H 0.73519 0.34035 0.72548 0.0
H670 H 0.71328 0.36076 0.68622 0.0
H671 H 0.75068 0.33387 0.67704 0.0
H672 H 0.71073 0.30078 0.62994 0.0
H673 H 0.67334 0.32756 0.6389 0.0
H674 H 0.66791 0.28462 0.64628 0.0
H675 H 0.63651 0.26513 0.79055 0.0
H676 H 0.58558 0.30395 0.78624 0.0
H677 H 0.64078 0.35408 0.69408 0.0
C678 C 0.7448 0.26075 0.69049 0.0
C679 C 0.75439 0.23102 0.70745 0.0
C680 C 0.73518 0.2199 0.74008 0.0
C681 C 0.706 0.23765 0.75502 0.0
C682 C 0.69681 0.2667 0.7373 0.0
C683 C 0.71589 0.2783 0.70595 0.0
C684 C 0.69957 0.30929 0.69092 0.0
C685 C 0.72628 0.33775 0.69519 0.0
C686 C 0.68715 0.3053 0.64905 0.0
C687 C 0.66766 0.31278 0.71787 0.0
C688 C 0.66654 0.28818 0.74467 0.0
C689 C 0.6377 0.28504 0.77043 0.0
C690 C 0.60911 0.3074 0.76829 0.0
C691 C 0.60978 0.33257 0.7409 0.0
C692 C 0.63977 0.3354 0.71586 0.0
H693 H 0.79125 0.29354 0.19816 0.0
H694 H 0.70575 0.2222 0.21118 0.0
H695 H 0.74962 0.18392 0.23982 0.0
H696 H 0.85426 0.23927 0.164 0.0
H697 H 0.89315 0.25818 0.18603 0.0
H698 H 0.85391 0.28197 0.17481 0.0
H699 H 0.85005 0.30053 0.24575 0.0
H700 H 0.88919 0.27637 0.25721 0.0
H701 H 0.84743 0.27061 0.28329 0.0
H702 H 0.80352 0.15193 0.26158 0.0
H703 H 0.86374 0.12563 0.26359 0.0
H704 H 0.91471 0.21584 0.23011 0.0
C705 C 0.78174 0.27014 0.20808 0.0
C706 C 0.74525 0.2608 0.20322 0.0
C707 C 0.73369 0.22971 0.21507 0.0
C708 C 0.75832 0.208 0.23165 0.0
C709 C 0.79442 0.21771 0.23564 0.0
C710 C 0.80621 0.2479 0.22359 0.0
C711 C 0.84717 0.25052 0.22507 0.0
C712 C 0.86303 0.25789 0.18511 0.0
C713 C 0.85916 0.27603 0.25459 0.0
C714 C 0.8567 0.21672 0.23834 0.0
C715 C 0.82587 0.19856 0.24578 0.0
C716 C 0.82783 0.16603 0.25636 0.0
C717 C 0.86206 0.15133 0.25767 0.0
C718 C 0.89351 0.16903 0.24764 0.0
C719 C 0.89094 0.20222 0.23886 0.0
H720 H 0.73014 0.78624 0.68525 0.0
H721 H 0.77425 0.69141 0.70889 0.0
H722 H 0.82901 0.7169 0.73744 0.0
H723 H 0.81199 0.81848 0.65199 0.0
H724 H 0.80426 0.85874 0.67013 0.0
H725 H 0.76637 0.83309 0.65842 0.0
H726 H 0.74116 0.84057 0.72731 0.0
H727 H 0.77938 0.86596 0.73932 0.0
H728 H 0.76929 0.83067 0.76783 0.0
H729 H 0.88019 0.75307 0.76054 0.0
H730 H 0.92795 0.79535 0.76413 0.0
H731 H 0.85269 0.86579 0.71879 0.0
C732 C 0.7511 0.771 0.69724 0.0
C733 C 0.74808 0.73704 0.69569 0.0
C734 C 0.77626 0.71756 0.71029 0.0
C735 C 0.80719 0.73183 0.72679 0.0
C736 C 0.8096 0.76556 0.72779 0.0
C737 C 0.78257 0.78487 0.71267 0.0
C738 C 0.79392 0.82012 0.71195 0.0
C739 C 0.79417 0.83336 0.67068 0.0
C740 C 0.76947 0.84053 0.73817 0.0
C741 C 0.83189 0.81761 0.72809 0.0
C742 C 0.84001 0.78614 0.73838 0.0
C743 C 0.87403 0.77781 0.75279 0.0
C744 C 0.9009 0.80197 0.75505 0.0
C745 C 0.89375 0.8337 0.74196 0.0
C746 C 0.85858 0.84174 0.72939 0.0
H747 H 0.76345 0.69711 0.1434 0.0
H748 H 0.74895 0.78833 0.20285 0.0
H749 H 0.69709 0.76502 0.23865 0.0
H750 H 0.67296 0.68018 0.12928 0.0
H751 H 0.67675 0.63709 0.13633 0.0
H752 H 0.71524 0.65991 0.1197 0.0
H753 H 0.75326 0.63823 0.17665 0.0
H754 H 0.7146 0.61552 0.19364 0.0
H755 H 0.73713 0.64385 0.225 0.0
H756 H 0.6415 0.73352 0.26136 0.0
H757 H 0.58765 0.69745 0.26667 0.0
H758 H 0.64115 0.62667 0.19495 0.0
C759 C 0.74976 0.71194 0.16451 0.0
C760 C 0.76019 0.74435 0.17049 0.0
C761 C 0.7415 0.76327 0.198 0.0
C762 C 0.71209 0.75021 0.21859 0.0
C763 C 0.70216 0.71811 0.21171 0.0
C764 C 0.7207 0.69921 0.18547 0.0
C765 C 0.70318 0.66634 0.1809 0.0
C766 C 0.69132 0.66058 0.13909 0.0
C767 C 0.72856 0.6394 0.1949 0.0
C768 C 0.67098 0.67012 0.20733 0.0
C769 C 0.67095 0.69989 0.22543 0.0
C770 C 0.64176 0.70979 0.24822 0.0
C771 C 0.61147 0.68908 0.25153 0.0
C772 C 0.61086 0.65908 0.23208 0.0
C773 C 0.6414 0.64926 0.21077 0.0
H774 H 0.29422 0.77575 0.36181 0.0
H775 H 0.23029 0.76125 0.25899 0.0
H776 H 0.27994 0.7286 0.23085 0.0
H777 H 0.38278 0.78155 0.31345 0.0
H778 H 0.40566 0.76058 0.35166 0.0
H779 H 0.36625 0.78474 0.36197 0.0
H780 H 0.3351 0.73515 0.39383 0.0
H781 H 0.3744 0.71096 0.38378 0.0
H782 H 0.33045 0.69803 0.36703 0.0
H783 H 0.33466 0.69252 0.21725 0.0
H784 H 0.38889 0.6573 0.21986 0.0
H785 H 0.4175 0.69897 0.32981 0.0
C786 C 0.29078 0.76599 0.33323 0.0
C787 C 0.25842 0.77081 0.31256 0.0
C788 C 0.25499 0.75774 0.27521 0.0
C789 C 0.28303 0.73927 0.259 0.0
C790 C 0.31453 0.73459 0.28034 0.0
C791 C 0.31859 0.74787 0.31653 0.0
C792 C 0.35426 0.73828 0.33435 0.0
C793 C 0.37868 0.76807 0.34072 0.0
C794 C 0.34817 0.71949 0.37195 0.0
C795 C 0.36919 0.71669 0.30314 0.0
C796 C 0.34618 0.71494 0.272 0.0
C797 C 0.3533 0.69435 0.24109 0.0
C798 C 0.38438 0.67469 0.24251 0.0
C799 C 0.40788 0.67596 0.27449 0.0
C800 C 0.40033 0.69774 0.30467 0.0
H801 H 0.25791 0.77317 0.85415 0.0
H802 H 0.24745 0.70459 0.7606 0.0
H803 H 0.1955 0.73555 0.73511 0.0
H804 H 0.16507 0.78369 0.87059 0.0
H805 H 0.16825 0.8263 0.88135 0.0
H806 H 0.20641 0.80034 0.89003 0.0
H807 H 0.24682 0.83714 0.84734 0.0
H808 H 0.20869 0.86323 0.8385 0.0
H809 H 0.23308 0.8457 0.79882 0.0
H810 H 0.14068 0.77106 0.72376 0.0
H811 H 0.08859 0.80858 0.72741 0.0
H812 H 0.13736 0.85515 0.82628 0.0
C813 C 0.24501 0.76491 0.82804 0.0
C814 C 0.25658 0.73651 0.80929 0.0
C815 C 0.23891 0.72639 0.7753 0.0
C816 C 0.20947 0.74382 0.76058 0.0
C817 C 0.19832 0.77153 0.78 0.0
C818 C 0.21574 0.78214 0.81284 0.0
C819 C 0.19744 0.81172 0.82936 0.0
C820 C 0.18346 0.8051 0.87024 0.0
C821 C 0.22304 0.8412 0.82843 0.0
C822 C 0.16651 0.81559 0.8013 0.0
C823 C 0.16749 0.79236 0.77285 0.0
C824 C 0.1401 0.78985 0.74538 0.0
C825 C 0.11077 0.81145 0.74739 0.0
C826 C 0.10932 0.83533 0.77644 0.0
C827 C 0.13789 0.83749 0.80332 0.0
loop_
_geom_bond_atom_site_label_1
_geom_bond_atom_site_label_2
_geom_bond_distance
_geom_bond_site_symmetry_2
_ccdc_geom_bond_type
H0 C5 0.930 . S
H1 C8 0.930 . S
H2 C10 0.930 . S
H3 C4 1.016 . S
C4 H3 1.016 . S
C4 N11 1.286 . S
C5 H0 0.930 . S
C5 C6 1.397 . S
C5 C7 1.361 . S
C6 C5 1.397 . S
C6 C10 1.390 . S
C7 C5 1.361 . S
C7 C8 1.393 . S
C7 N11 1.413 . S
C8 H1 0.930 . S
C8 C7 1.393 . S
C8 C9 1.399 . S
C9 C8 1.399 . S
C9 C10 1.381 . S
C10 H2 0.930 . S
C10 C6 1.390 . S
C10 C9 1.381 . S
N11 C4 1.286 . S
N11 C7 1.413 . S
H12 C17 0.930 . S
H13 C20 0.930 . S
H14 C22 0.930 . S
H15 C16 1.016 . S
C16 H15 1.016 . S
C16 N23 1.286 . S
C17 H12 0.930 . S
C17 C18 1.397 . S
C17 C19 1.361 . S
C18 C17 1.397 . S
C18 C22 1.390 . S
C19 C17 1.361 . S
C19 C20 1.393 . S
C19 N23 1.413 . S
C20 H13 0.930 . S
C20 C19 1.393 . S
C20 C21 1.399 . S
C21 C20 1.399 . S
C21 C22 1.381 . S
C22 H14 0.930 . S
C22 C18 1.390 . S
C22 C21 1.381 . S
N23 C16 1.286 . S
N23 C19 1.413 . S
H24 C29 0.930 . S
H25 C32 0.930 . S
H26 C34 0.930 . S
H27 C28 1.016 . S
C28 H27 1.016 . S
C28 N35 1.286 . S
C29 H24 0.930 . S
C29 C30 1.397 . S
C29 C31 1.361 . S
C30 C29 1.397 . S
C30 C34 1.390 . S
C31 C29 1.361 . S
C31 C32 1.393 . S
C31 N35 1.413 . S
C32 H25 0.930 . S
C32 C31 1.393 . S
C32 C33 1.399 . S
C33 C32 1.399 . S
C33 C34 1.381 . S
C34 H26 0.930 . S
C34 C30 1.390 . S
C34 C33 1.381 . S
N35 C28 1.286 . S
N35 C31 1.413 . S
H36 C41 0.930 . S
H37 C44 0.930 . S
H38 C46 0.930 . S
H39 C40 1.016 . S
C40 H39 1.016 . S
C40 N47 1.286 . S
C41 H36 0.930 . S
C41 C42 1.397 . S
C41 C43 1.361 . S
C42 C41 1.397 . S
C42 C46 1.390 . S
C43 C41 1.361 . S
C43 C44 1.393 . S
C43 N47 1.413 . S
C44 H37 0.930 . S
C44 C43 1.393 . S
C44 C45 1.399 . S
C45 C44 1.399 . S
C45 C46 1.381 . S
C46 H38 0.930 . S
C46 C42 1.390 . S
C46 C45 1.381 . S
N47 C40 1.286 . S
N47 C43 1.413 . S
H48 C53 0.930 . S
H49 C56 0.930 . S
H50 C58 0.930 . S
H51 C52 1.016 . S
C52 H51 1.016 . S
C52 N59 1.286 . S
C53 H48 0.930 . S
C53 C54 1.397 . S
C53 C55 1.361 . S
C54 C53 1.397 . S
C54 C58 1.390 . S
C55 C53 1.361 . S
C55 C56 1.393 . S
C55 N59 1.413 . S
C56 H49 0.930 . S
C56 C55 1.393 . S
C56 C57 1.399 . S
C57 C56 1.399 . S
C57 C58 1.381 . S
C58 H50 0.930 . S
C58 C54 1.390 . S
C58 C57 1.381 . S
N59 C52 1.286 . S
N59 C55 1.413 . S
H60 C65 0.930 . S
H61 C68 0.930 . S
H62 C70 0.930 . S
H63 C64 1.016 . S
C64 H63 1.016 . S
C64 N71 1.286 . S
C65 H60 0.930 . S
C65 C66 1.397 . S
C65 C67 1.361 . S
C66 C65 1.397 . S
C66 C70 1.390 . S
C67 C65 1.361 . S
C67 C68 1.393 . S
C67 N71 1.413 . S
C68 H61 0.930 . S
C68 C67 1.393 . S
C68 C69 1.399 . S
C69 C68 1.399 . S
C69 C70 1.381 . S
C70 H62 0.930 . S
C70 C66 1.390 . S
C70 C69 1.381 . S
N71 C64 1.286 . S
N71 C67 1.413 . S
H72 C77 0.930 . S
H73 C80 0.930 . S
H74 C82 0.930 . S
H75 C76 1.016 . S
C76 H75 1.016 . S
C76 N83 1.286 . S
C77 H72 0.930 . S
C77 C78 1.397 . S
C77 C79 1.361 . S
C78 C77 1.397 . S
C78 C82 1.390 . S
C79 C77 1.361 . S
C79 C80 1.393 . S
C79 N83 1.413 . S
C80 H73 0.930 . S
C80 C79 1.393 . S
C80 C81 1.399 . S
C81 C80 1.399 . S
C81 C82 1.381 . S
C82 H74 0.930 . S
C82 C78 1.390 . S
C82 C81 1.381 . S
N83 C76 1.286 . S
N83 C79 1.413 . S
H84 C89 0.930 . S
H85 C92 0.930 . S
H86 C94 0.930 . S
H87 C88 1.016 . S
C88 H87 1.016 . S
C88 N95 1.286 . S
C89 H84 0.930 . S
C89 C90 1.397 . S
C89 C91 1.361 . S
C90 C89 1.397 . S
C90 C94 1.390 . S
C91 C89 1.361 . S
C91 C92 1.393 . S
C91 N95 1.413 . S
C92 H85 0.930 . S
C92 C91 1.393 . S
C92 C93 1.399 . S
C93 C92 1.399 . S
C93 C94 1.381 . S
C94 H86 0.930 . S
C94 C90 1.390 . S
C94 C93 1.381 . S
N95 C88 1.286 . S
N95 C91 1.413 . S
Zn96 O102 1.920 1_455 S
Zn96 O108 1.898 . S
Zn96 O111 1.905 . S
Zn97 O105 1.905 1_655 S
Zn97 O106 1.898 . S
Zn97 O114 1.920 . S
Zn98 O101 2.080 1_455 S
Zn98 O104 2.114 . S
Zn98 O107 2.120 1_455 S
Zn98 O109 2.120 . S
Zn98 O110 2.114 . S
Zn98 O113 2.080 1_455 S
C99 O104 1.166 . S
C99 O105 1.182 . S
C100 O106 1.167 . S
C100 O107 1.299 . S
O101 Zn98 2.080 1_655 S
O101 C115 1.305 . S
O102 Zn96 1.920 1_655 S
O102 C115 1.234 . S
C103 O108 1.167 . S
C103 O109 1.299 . S
O104 Zn98 2.114 . S
O104 C99 1.166 . S
O105 Zn97 1.905 1_455 S
O105 C99 1.182 . S
O106 Zn97 1.898 . S
O106 C100 1.167 . S
O107 Zn98 2.120 1_655 S
O107 C100 1.299 . S
O108 Zn96 1.898 . S
O108 C103 1.167 . S
O109 Zn98 2.120 . S
O109 C103 1.299 . S
O110 Zn98 2.114 . S
O110 C112 1.166 . S
O111 Zn96 1.905 . S
O111 C112 1.182 . S
C112 O110 1.166 . S
C112 O111 1.182 . S
O113 Zn98 2.080 1_655 S
O113 C116 1.305 . S
O114 Zn97 1.920 . S
O114 C116 1.234 . S
C115 O101 1.305 . S
C115 O102 1.234 . S
C116 O113 1.305 . S
C116 O114 1.234 . S
Zn117 O123 1.920 . S
Zn117 O129 1.898 . S
Zn117 O132 1.905 . S
Zn118 O126 1.905 . S
Zn118 O127 1.898 . S
Zn118 O135 1.920 . S
Zn119 O122 2.080 . S
Zn119 O125 2.114 . S
Zn119 O128 2.120 . S
Zn119 O130 2.120 . S
Zn119 O131 2.114 . S
Zn119 O134 2.080 . S
C120 O125 1.166 . S
C120 O126 1.182 . S
C121 O127 1.167 . S
C121 O128 1.299 . S
O122 Zn119 2.080 . S
O122 C136 1.305 . S
O123 Zn117 1.920 . S
O123 C136 1.234 . S
C124 O129 1.167 . S
C124 O130 1.299 . S
O125 Zn119 2.114 . S
O125 C120 1.166 . S
O126 Zn118 1.905 . S
O126 C120 1.182 . S
O127 Zn118 1.898 . S
O127 C121 1.167 . S
O128 Zn119 2.120 . S
O128 C121 1.299 . S
O129 Zn117 1.898 . S
O129 C124 1.167 . S
O130 Zn119 2.120 . S
O130 C124 1.299 . S
O131 Zn119 2.114 . S
O131 C133 1.166 . S
O132 Zn117 1.905 . S
O132 C133 1.182 . S
C133 O131 1.166 . S
C133 O132 1.182 . S
O134 Zn119 2.080 . S
O134 C137 1.305 . S
O135 Zn118 1.920 . S
O135 C137 1.234 . S
C136 O122 1.305 . S
C136 O123 1.234 . S
C137 O134 1.305 . S
C137 O135 1.234 . S
Zn138 O144 1.920 . S
Zn138 O150 1.898 . S
Zn138 O153 1.905 1_455 S
Zn139 O147 1.905 . S
Zn139 O148 1.898 . S
Zn139 O156 1.920 1_655 S
Zn140 O143 2.080 . S
Zn140 O146 2.114 1_455 S
Zn140 O149 2.120 1_455 S
Zn140 O151 2.120 . S
Zn140 O152 2.114 1_455 S
Zn140 O155 2.080 . S
C141 O146 1.166 . S
C141 O147 1.182 . S
C142 O148 1.167 . S
C142 O149 1.299 . S
O143 Zn140 2.080 . S
O143 C157 1.305 . S
O144 Zn138 1.920 . S
O144 C157 1.234 . S
C145 O150 1.167 . S
C145 O151 1.299 . S
O146 Zn140 2.114 1_655 S
O146 C141 1.166 . S
O147 Zn139 1.905 . S
O147 C141 1.182 . S
O148 Zn139 1.898 . S
O148 C142 1.167 . S
O149 Zn140 2.120 1_655 S
O149 C142 1.299 . S
O150 Zn138 1.898 . S
O150 C145 1.167 . S
O151 Zn140 2.120 . S
O151 C145 1.299 . S
O152 Zn140 2.114 1_655 S
O152 C154 1.166 . S
O153 Zn138 1.905 1_655 S
O153 C154 1.182 . S
C154 O152 1.166 . S
C154 O153 1.182 . S
O155 Zn140 2.080 . S
O155 C158 1.305 . S
O156 Zn139 1.920 1_455 S
O156 C158 1.234 . S
C157 O143 1.305 . S
C157 O144 1.234 . S
C158 O155 1.305 . S
C158 O156 1.234 . S
Zn159 O165 1.920 . S
Zn159 O171 1.898 . S
Zn159 O174 1.905 . S
Zn160 O168 1.905 . S
Zn160 O169 1.898 . S
Zn160 O177 1.920 . S
Zn161 O164 2.080 . S
Zn161 O167 2.114 . S
Zn161 O170 2.120 . S
Zn161 O172 2.120 . S
Zn161 O173 2.114 . S
Zn161 O176 2.080 . S
C162 O167 1.166 . S
C162 O168 1.182 . S
C163 O169 1.167 . S
C163 O170 1.299 . S
O164 Zn161 2.080 . S
O164 C178 1.305 . S
O165 Zn159 1.920 . S
O165 C178 1.234 . S
C166 O171 1.167 . S
C166 O172 1.299 . S
O167 Zn161 2.114 . S
O167 C162 1.166 . S
O168 Zn160 1.905 . S
O168 C162 1.182 . S
O169 Zn160 1.898 . S
O169 C163 1.167 . S
O170 Zn161 2.120 . S
O170 C163 1.299 . S
O171 Zn159 1.898 . S
O171 C166 1.167 . S
O172 Zn161 2.120 . S
O172 C166 1.299 . S
O173 Zn161 2.114 . S
O173 C175 1.166 . S
O174 Zn159 1.905 . S
O174 C175 1.182 . S
C175 O173 1.166 . S
C175 O174 1.182 . S
O176 Zn161 2.080 . S
O176 C179 1.305 . S
O177 Zn160 1.920 . S
O177 C179 1.234 . S
C178 O164 1.305 . S
C178 O165 1.234 . S
C179 O176 1.305 . S
C179 O177 1.234 . S
H180 C192 0.930 . S
H181 C194 0.930 . S
H182 C195 0.930 . S
H183 C199 0.959 . S
H184 C199 0.959 . S
H185 C199 0.961 . S
H186 C200 0.960 . S
H187 C200 0.961 . S
H188 C200 0.959 . S
H189 C203 0.929 . S
H190 C204 0.931 . S
H191 C206 0.930 . S
C192 H180 0.930 . S
C192 C193 1.399 . S
C192 C197 1.399 . S
C193 C192 1.399 . S
C193 C194 1.376 . S
C194 H181 0.930 . S
C194 C193 1.376 . S
C194 C195 1.388 . S
C195 H182 0.930 . S
C195 C194 1.388 . S
C195 C196 1.390 . S
C196 C195 1.390 . S
C196 C197 1.394 . S
C196 C202 1.465 . S
C197 C192 1.399 . S
C197 C196 1.394 . S
C197 C198 1.516 . S
C198 C197 1.516 . S
C198 C199 1.502 . S
C198 C200 1.561 . S
C198 C201 1.526 . S
C199 H183 0.959 . S
C199 H184 0.959 . S
C199 H185 0.961 . S
C199 C198 1.502 . S
C200 H186 0.960 . S
C200 H187 0.961 . S
C200 H188 0.959 . S
C200 C198 1.561 . S
C201 C198 1.526 . S
C201 C202 1.396 . S
C201 C206 1.390 1_565 S
C202 C196 1.465 . S
C202 C201 1.396 . S
C202 C203 1.399 . S
C203 H189 0.929 . S
C203 C202 1.399 . S
C203 C204 1.385 1_565 S
C204 H190 0.931 . S
C204 C203 1.385 1_545 S
C204 C205 1.389 . S
C205 C204 1.389 . S
C205 C206 1.387 . S
C206 H191 0.930 . S
C206 C201 1.390 1_545 S
C206 C205 1.387 . S
H207 C219 0.930 . S
H208 C221 0.930 . S
H209 C222 0.930 . S
H210 C226 0.959 . S
H211 C226 0.959 . S
H212 C226 0.961 . S
H213 C227 0.960 . S
H214 C227 0.961 . S
H215 C227 0.959 . S
H216 C230 0.929 . S
H217 C231 0.931 . S
H218 C233 0.930 . S
C219 H207 0.930 . S
C219 C220 1.399 . S
C219 C224 1.399 . S
C220 C219 1.399 . S
C220 C221 1.376 . S
C221 H208 0.930 . S
C221 C220 1.376 . S
C221 C222 1.388 . S
C222 H209 0.930 . S
C222 C221 1.388 . S
C222 C223 1.390 . S
C223 C222 1.390 . S
C223 C224 1.394 . S
C223 C229 1.465 . S
C224 C219 1.399 . S
C224 C223 1.394 . S
C224 C225 1.516 . S
C225 C224 1.516 . S
C225 C226 1.502 . S
C225 C227 1.561 . S
C225 C228 1.526 . S
C226 H210 0.959 . S
C226 H211 0.959 . S
C226 H212 0.961 . S
C226 C225 1.502 . S
C227 H213 0.960 . S
C227 H214 0.961 . S
C227 H215 0.959 . S
C227 C225 1.561 . S
C228 C225 1.526 . S
C228 C229 1.396 . S
C228 C233 1.390 . S
C229 C223 1.465 . S
C229 C228 1.396 . S
C229 C230 1.399 . S
C230 H216 0.929 . S
C230 C229 1.399 . S
C230 C231 1.385 . S
C231 H217 0.931 . S
C231 C230 1.385 . S
C231 C232 1.389 . S
C232 C231 1.389 . S
C232 C233 1.387 . S
C233 H218 0.930 . S
C233 C228 1.390 . S
C233 C232 1.387 . S
H234 C246 0.930 . S
H235 C248 0.930 . S
H236 C249 0.930 . S
H237 C253 0.959 . S
H238 C253 0.959 . S
H239 C253 0.961 . S
H240 C254 0.960 . S
H241 C254 0.961 . S
H242 C254 0.959 . S
H243 C257 0.929 . S
H244 C258 0.931 . S
H245 C260 0.930 . S
C246 H234 0.930 . S
C246 C247 1.399 . S
C246 C251 1.399 . S
C247 C246 1.399 . S
C247 C248 1.376 . S
C248 H235 0.930 . S
C248 C247 1.376 . S
C248 C249 1.388 . S
C249 H236 0.930 . S
C249 C248 1.388 . S
C249 C250 1.390 . S
C250 C249 1.390 . S
C250 C251 1.394 . S
C250 C256 1.465 . S
C251 C246 1.399 . S
C251 C250 1.394 . S
C251 C252 1.516 . S
C252 C251 1.516 . S
C252 C253 1.502 . S
C252 C254 1.561 . S
C252 C255 1.526 . S
C253 H237 0.959 . S
C253 H238 0.959 . S
C253 H239 0.961 . S
C253 C252 1.502 . S
C254 H240 0.960 . S
C254 H241 0.961 . S
C254 H242 0.959 . S
C254 C252 1.561 . S
C255 C252 1.526 . S
C255 C256 1.396 . S
C255 C260 1.390 . S
C256 C250 1.465 . S
C256 C255 1.396 . S
C256 C257 1.399 . S
C257 H243 0.929 . S
C257 C256 1.399 . S
C257 C258 1.385 . S
C258 H244 0.931 . S
C258 C257 1.385 . S
C258 C259 1.389 . S
C259 C258 1.389 . S
C259 C260 1.387 . S
C260 H245 0.930 . S
C260 C255 1.390 . S
C260 C259 1.387 . S
H261 C273 0.930 . S
H262 C275 0.930 . S
H263 C276 0.930 . S
H264 C280 0.959 . S
H265 C280 0.959 . S
H266 C280 0.961 . S
H267 C281 0.960 . S
H268 C281 0.961 . S
H269 C281 0.959 . S
H270 C284 0.929 . S
H271 C285 0.931 . S
H272 C287 0.930 . S
C273 H261 0.930 . S
C273 C274 1.399 . S
C273 C278 1.399 . S
C274 C273 1.399 . S
C274 C275 1.376 . S
C275 H262 0.930 . S
C275 C274 1.376 . S
C275 C276 1.388 . S
C276 H263 0.930 . S
C276 C275 1.388 . S
C276 C277 1.390 . S
C277 C276 1.390 . S
C277 C278 1.394 . S
C277 C283 1.465 . S
C278 C273 1.399 . S
C278 C277 1.394 . S
C278 C279 1.516 . S
C279 C278 1.516 . S
C279 C280 1.502 . S
C279 C281 1.561 . S
C279 C282 1.526 . S
C280 H264 0.959 . S
C280 H265 0.959 . S
C280 H266 0.961 . S
C280 C279 1.502 . S
C281 H267 0.960 . S
C281 H268 0.961 . S
C281 H269 0.959 . S
C281 C279 1.561 . S
C282 C279 1.526 . S
C282 C283 1.396 . S
C282 C287 1.390 1_565 S
C283 C277 1.465 . S
C283 C282 1.396 . S
C283 C284 1.399 . S
C284 H270 0.929 . S
C284 C283 1.399 . S
C284 C285 1.385 1_565 S
C285 H271 0.931 . S
C285 C284 1.385 1_545 S
C285 C286 1.389 . S
C286 C285 1.389 . S
C286 C287 1.387 . S
C287 H272 0.930 . S
C287 C282 1.390 1_545 S
C287 C286 1.387 . S
H288 C300 0.930 . S
H289 C302 0.930 . S
H290 C303 0.930 . S
H291 C307 0.959 . S
H292 C307 0.959 . S
H293 C307 0.961 . S
H294 C308 0.960 . S
H295 C308 0.961 . S
H296 C308 0.959 . S
H297 C311 0.929 . S
H298 C312 0.931 . S
H299 C314 0.930 . S
C300 H288 0.930 . S
C300 C301 1.399 . S
C300 C305 1.399 . S
C301 C300 1.399 . S
C301 C302 1.376 . S
C302 H289 0.930 . S
C302 C301 1.376 . S
C302 C303 1.388 . S
C303 H290 0.930 . S
C303 C302 1.388 . S
C303 C304 1.390 . S
C304 C303 1.390 . S
C304 C305 1.394 . S
C304 C310 1.465 . S
C305 C300 1.399 . S
C305 C304 1.394 . S
C305 C306 1.516 . S
C306 C305 1.516 . S
C306 C307 1.502 . S
C306 C308 1.561 . S
C306 C309 1.526 . S
C307 H291 0.959 . S
C307 H292 0.959 . S
C307 H293 0.961 . S
C307 C306 1.502 . S
C308 H294 0.960 . S
C308 H295 0.961 . S
C308 H296 0.959 . S
C308 C306 1.561 . S
C309 C306 1.526 . S
C309 C310 1.396 . S
C309 C314 1.390 . S
C310 C304 1.465 . S
C310 C309 1.396 . S
C310 C311 1.399 1_545 S
C311 H297 0.929 . S
C311 C310 1.399 1_565 S
C311 C312 1.385 . S
C312 H298 0.931 . S
C312 C311 1.385 . S
C312 C313 1.389 . S
C313 C312 1.389 . S
C313 C314 1.387 1_565 S
C314 H299 0.930 . S
C314 C309 1.390 . S
C314 C313 1.387 1_545 S
H315 C327 0.930 . S
H316 C329 0.930 . S
H317 C330 0.930 . S
H318 C334 0.959 . S
H319 C334 0.959 . S
H320 C334 0.961 . S
H321 C335 0.960 . S
H322 C335 0.961 . S
H323 C335 0.959 . S
H324 C338 0.929 . S
H325 C339 0.931 . S
H326 C341 0.930 . S
C327 H315 0.930 . S
C327 C328 1.399 . S
C327 C332 1.399 . S
C328 C327 1.399 . S
C328 C329 1.376 . S
C329 H316 0.930 . S
C329 C328 1.376 . S
C329 C330 1.388 . S
C330 H317 0.930 . S
C330 C329 1.388 . S
C330 C331 1.390 . S
C331 C330 1.390 . S
C331 C332 1.394 . S
C331 C337 1.465 . S
C332 C327 1.399 . S
C332 C331 1.394 . S
C332 C333 1.516 . S
C333 C332 1.516 . S
C333 C334 1.502 . S
C333 C335 1.561 . S
C333 C336 1.526 . S
C334 H318 0.959 . S
C334 H319 0.959 . S
C334 H320 0.961 . S
C334 C333 1.502 . S
C335 H321 0.960 . S
C335 H322 0.961 . S
C335 H323 0.959 . S
C335 C333 1.561 . S
C336 C333 1.526 . S
C336 C337 1.396 . S
C336 C341 1.390 . S
C337 C331 1.465 . S
C337 C336 1.396 . S
C337 C338 1.399 . S
C338 H324 0.929 . S
C338 C337 1.399 . S
C338 C339 1.385 . S
C339 H325 0.931 . S
C339 C338 1.385 . S
C339 C340 1.389 . S
C340 C339 1.389 . S
C340 C341 1.387 . S
C341 H326 0.930 . S
C341 C336 1.390 . S
C341 C340 1.387 . S
H342 C354 0.930 . S
H343 C356 0.930 . S
H344 C357 0.930 . S
H345 C361 0.959 . S
H346 C361 0.959 . S
H347 C361 0.961 . S
H348 C362 0.960 . S
H349 C362 0.961 . S
H350 C362 0.959 . S
H351 C365 0.929 . S
H352 C366 0.931 . S
H353 C368 0.930 . S
C354 H342 0.930 . S
C354 C355 1.399 . S
C354 C359 1.399 . S
C355 C354 1.399 . S
C355 C356 1.376 . S
C356 H343 0.930 . S
C356 C355 1.376 . S
C356 C357 1.388 . S
C357 H344 0.930 . S
C357 C356 1.388 . S
C357 C358 1.390 . S
C358 C357 1.390 . S
C358 C359 1.394 . S
C358 C364 1.465 . S
C359 C354 1.399 . S
C359 C358 1.394 . S
C359 C360 1.516 . S
C360 C359 1.516 . S
C360 C361 1.502 . S
C360 C362 1.561 . S
C360 C363 1.526 . S
C361 H345 0.959 . S
C361 H346 0.959 . S
C361 H347 0.961 . S
C361 C360 1.502 . S
C362 H348 0.960 . S
C362 H349 0.961 . S
C362 H350 0.959 . S
C362 C360 1.561 . S
C363 C360 1.526 . S
C363 C364 1.396 . S
C363 C368 1.390 . S
C364 C358 1.465 . S
C364 C363 1.396 . S
C364 C365 1.399 . S
C365 H351 0.929 . S
C365 C364 1.399 . S
C365 C366 1.385 . S
C366 H352 0.931 . S
C366 C365 1.385 . S
C366 C367 1.389 . S
C367 C366 1.389 . S
C367 C368 1.387 . S
C368 H353 0.930 . S
C368 C363 1.390 . S
C368 C367 1.387 . S
H369 C381 0.930 . S
H370 C383 0.930 . S
H371 C384 0.930 . S
H372 C388 0.959 . S
H373 C388 0.959 . S
H374 C388 0.961 . S
H375 C389 0.960 . S
H376 C389 0.961 . S
H377 C389 0.959 . S
H378 C392 0.929 . S
H379 C393 0.931 . S
H380 C395 0.930 . S
C381 H369 0.930 . S
C381 C382 1.399 . S
C381 C386 1.399 . S
C382 C381 1.399 . S
C382 C383 1.376 . S
C383 H370 0.930 . S
C383 C382 1.376 . S
C383 C384 1.388 . S
C384 H371 0.930 . S
C384 C383 1.388 . S
C384 C385 1.390 . S
C385 C384 1.390 . S
C385 C386 1.394 . S
C385 C391 1.465 . S
C386 C381 1.399 . S
C386 C385 1.394 . S
C386 C387 1.516 . S
C387 C386 1.516 . S
C387 C388 1.502 . S
C387 C389 1.561 . S
C387 C390 1.526 . S
C388 H372 0.959 . S
C388 H373 0.959 . S
C388 H374 0.961 . S
C388 C387 1.502 . S
C389 H375 0.960 . S
C389 H376 0.961 . S
C389 H377 0.959 . S
C389 C387 1.561 . S
C390 C387 1.526 . S
C390 C391 1.396 . S
C390 C395 1.390 . S
C391 C385 1.465 . S
C391 C390 1.396 . S
C391 C392 1.399 1_545 S
C392 H378 0.929 . S
C392 C391 1.399 1_565 S
C392 C393 1.385 . S
C393 H379 0.931 . S
C393 C392 1.385 . S
C393 C394 1.389 . S
C394 C393 1.389 . S
C394 C395 1.387 1_565 S
C395 H380 0.930 . S
C395 C390 1.390 . S
C395 C394 1.387 1_545 S
H396 C408 0.930 . S
H397 C410 0.930 . S
H398 C411 0.930 . S
H399 C415 0.959 . S
H400 C415 0.959 . S
H401 C415 0.961 . S
H402 C416 0.960 . S
H403 C416 0.961 . S
H404 C416 0.959 . S
H405 C419 0.929 . S
H406 C420 0.931 . S
H407 C422 0.930 . S
C408 H396 0.930 . S
C408 C409 1.399 1_554 S
C408 C413 1.399 . S
C409 C408 1.399 1_556 S
C409 C410 1.376 . S
C410 H397 0.930 . S
C410 C409 1.376 . S
C410 C411 1.388 . S
C411 H398 0.930 . S
C411 C410 1.388 . S
C411 C412 1.390 1_556 S
C412 C411 1.390 1_554 S
C412 C413 1.394 . S
C412 C418 1.465 . S
C413 C408 1.399 . S
C413 C412 1.394 . S
C413 C414 1.516 . S
C414 C413 1.516 . S
C414 C415 1.502 . S
C414 C416 1.561 . S
C414 C417 1.526 . S
C415 H399 0.959 . S
C415 H400 0.959 . S
C415 H401 0.961 . S
C415 C414 1.502 . S
C416 H402 0.960 . S
C416 H403 0.961 . S
C416 H404 0.959 . S
C416 C414 1.561 . S
C417 C414 1.526 . S
C417 C418 1.396 . S
C417 C422 1.390 . S
C418 C412 1.465 . S
C418 C417 1.396 . S
C418 C419 1.399 . S
C419 H405 0.929 . S
C419 C418 1.399 . S
C419 C420 1.385 . S
C420 H406 0.931 . S
C420 C419 1.385 . S
C420 C421 1.389 . S
C421 C420 1.389 . S
C421 C422 1.387 . S
C422 H407 0.930 . S
C422 C417 1.390 . S
C422 C421 1.387 . S
H423 C435 0.930 . S
H424 C437 0.930 . S
H425 C438 0.930 . S
H426 C442 0.959 . S
H427 C442 0.959 . S
H428 C442 0.961 . S
H429 C443 0.960 . S
H430 C443 0.961 . S
H431 C443 0.959 . S
H432 C446 0.929 . S
H433 C447 0.931 . S
H434 C449 0.930 . S
C435 H423 0.930 . S
C435 C436 1.399 . S
C435 C440 1.399 . S
C436 C435 1.399 . S
C436 C437 1.376 . S
C437 H424 0.930 . S
C437 C436 1.376 . S
C437 C438 1.388 . S
C438 H425 0.930 . S
C438 C437 1.388 . S
C438 C439 1.390 . S
C439 C438 1.390 . S
C439 C440 1.394 . S
C439 C445 1.465 . S
C440 C435 1.399 . S
C440 C439 1.394 . S
C440 C441 1.516 . S
C441 C440 1.516 . S
C441 C442 1.502 . S
C441 C443 1.561 . S
C441 C444 1.526 . S
C442 H426 0.959 . S
C442 H427 0.959 . S
C442 H428 0.961 . S
C442 C441 1.502 . S
C443 H429 0.960 . S
C443 H430 0.961 . S
C443 H431 0.959 . S
C443 C441 1.561 . S
C444 C441 1.526 . S
C444 C445 1.396 . S
C444 C449 1.390 . S
C445 C439 1.465 . S
C445 C444 1.396 . S
C445 C446 1.399 . S
C446 H432 0.929 . S
C446 C445 1.399 . S
C446 C447 1.385 . S
C447 H433 0.931 . S
C447 C446 1.385 . S
C447 C448 1.389 . S
C448 C447 1.389 . S
C448 C449 1.387 . S
C449 H434 0.930 . S
C449 C444 1.390 . S
C449 C448 1.387 . S
H450 C462 0.930 . S
H451 C464 0.930 . S
H452 C465 0.930 . S
H453 C469 0.959 . S
H454 C469 0.959 . S
H455 C469 0.961 . S
H456 C470 0.960 . S
H457 C470 0.961 . S
H458 C470 0.959 . S
H459 C473 0.929 . S
H460 C474 0.931 . S
H461 C476 0.930 . S
C462 H450 0.930 . S
C462 C463 1.399 . S
C462 C467 1.399 1_554 S
C463 C462 1.399 . S
C463 C464 1.376 . S
C464 H451 0.930 . S
C464 C463 1.376 . S
C464 C465 1.388 1_554 S
C465 H452 0.930 . S
C465 C464 1.388 1_556 S
C465 C466 1.390 . S
C466 C465 1.390 . S
C466 C467 1.394 . S
C466 C472 1.465 . S
C467 C462 1.399 1_556 S
C467 C466 1.394 . S
C467 C468 1.516 . S
C468 C467 1.516 . S
C468 C469 1.502 . S
C468 C470 1.561 . S
C468 C471 1.526 . S
C469 H453 0.959 . S
C469 H454 0.959 . S
C469 H455 0.961 . S
C469 C468 1.502 . S
C470 H456 0.960 . S
C470 H457 0.961 . S
C470 H458 0.959 . S
C470 C468 1.561 . S
C471 C468 1.526 . S
C471 C472 1.396 . S
C471 C476 1.390 . S
C472 C466 1.465 . S
C472 C471 1.396 . S
C472 C473 1.399 . S
C473 H459 0.929 . S
C473 C472 1.399 . S
C473 C474 1.385 . S
C474 H460 0.931 . S
C474 C473 1.385 . S
C474 C475 1.389 . S
C475 C474 1.389 . S
C475 C476 1.387 . S
C476 H461 0.930 . S
C476 C471 1.390 . S
C476 C475 1.387 . S
H477 C489 0.930 . S
H478 C491 0.930 . S
H479 C492 0.930 . S
H480 C496 0.959 . S
H481 C496 0.959 . S
H482 C496 0.961 . S
H483 C497 0.960 . S
H484 C497 0.961 . S
H485 C497 0.959 . S
H486 C500 0.929 . S
H487 C501 0.931 . S
H488 C503 0.930 . S
C489 H477 0.930 . S
C489 C490 1.399 . S
C489 C494 1.399 . S
C490 C489 1.399 . S
C490 C491 1.376 . S
C491 H478 0.930 . S
C491 C490 1.376 . S
C491 C492 1.388 . S
C492 H479 0.930 . S
C492 C491 1.388 . S
C492 C493 1.390 . S
C493 C492 1.390 . S
C493 C494 1.394 . S
C493 C499 1.465 . S
C494 C489 1.399 . S
C494 C493 1.394 . S
C494 C495 1.516 . S
C495 C494 1.516 . S
C495 C496 1.502 . S
C495 C497 1.561 . S
C495 C498 1.526 . S
C496 H480 0.959 . S
C496 H481 0.959 . S
C496 H482 0.961 . S
C496 C495 1.502 . S
C497 H483 0.960 . S
C497 H484 0.961 . S
C497 H485 0.959 . S
C497 C495 1.561 . S
C498 C495 1.526 . S
C498 C499 1.396 . S
C498 C503 1.390 . S
C499 C493 1.465 . S
C499 C498 1.396 . S
C499 C500 1.399 . S
C500 H486 0.929 . S
C500 C499 1.399 . S
C500 C501 1.385 . S
C501 H487 0.931 . S
C501 C500 1.385 . S
C501 C502 1.389 . S
C502 C501 1.389 . S
C502 C503 1.387 . S
C503 H488 0.930 . S
C503 C498 1.390 . S
C503 C502 1.387 . S
H504 C516 0.930 . S
H505 C518 0.930 . S
H506 C519 0.930 . S
H507 C523 0.959 . S
H508 C523 0.959 . S
H509 C523 0.961 . S
H510 C524 0.960 . S
H511 C524 0.961 . S
H512 C524 0.959 . S
H513 C527 0.929 . S
H514 C528 0.931 . S
H515 C530 0.930 . S
C516 H504 0.930 . S
C516 C517 1.399 . S
C516 C521 1.399 1_554 S
C517 C516 1.399 . S
C517 C518 1.376 . S
C518 H505 0.930 . S
C518 C517 1.376 . S
C518 C519 1.388 1_554 S
C519 H506 0.930 . S
C519 C518 1.388 1_556 S
C519 C520 1.390 . S
C520 C519 1.390 . S
C520 C521 1.394 . S
C520 C526 1.465 . S
C521 C516 1.399 1_556 S
C521 C520 1.394 . S
C521 C522 1.516 . S
C522 C521 1.516 . S
C522 C523 1.502 . S
C522 C524 1.561 . S
C522 C525 1.526 . S
C523 H507 0.959 . S
C523 H508 0.959 . S
C523 H509 0.961 . S
C523 C522 1.502 . S
C524 H510 0.960 . S
C524 H511 0.961 . S
C524 H512 0.959 . S
C524 C522 1.561 . S
C525 C522 1.526 . S
C525 C526 1.396 . S
C525 C530 1.390 . S
C526 C520 1.465 . S
C526 C525 1.396 . S
C526 C527 1.399 . S
C527 H513 0.929 . S
C527 C526 1.399 . S
C527 C528 1.385 . S
C528 H514 0.931 . S
C528 C527 1.385 . S
C528 C529 1.389 . S
C529 C528 1.389 . S
C529 C530 1.387 . S
C530 H515 0.930 . S
C530 C525 1.390 . S
C530 C529 1.387 . S
H531 C543 0.930 . S
H532 C545 0.930 . S
H533 C546 0.930 . S
H534 C550 0.959 . S
H535 C550 0.959 . S
H536 C550 0.961 . S
H537 C551 0.960 . S
H538 C551 0.961 . S
H539 C551 0.959 . S
H540 C554 0.929 . S
H541 C555 0.931 . S
H542 C557 0.930 . S
C543 H531 0.930 . S
C543 C544 1.399 . S
C543 C548 1.399 . S
C544 C543 1.399 . S
C544 C545 1.376 . S
C545 H532 0.930 . S
C545 C544 1.376 . S
C545 C546 1.388 . S
C546 H533 0.930 . S
C546 C545 1.388 . S
C546 C547 1.390 . S
C547 C546 1.390 . S
C547 C548 1.394 . S
C547 C553 1.465 . S
C548 C543 1.399 . S
C548 C547 1.394 . S
C548 C549 1.516 . S
C549 C548 1.516 . S
C549 C550 1.502 . S
C549 C551 1.561 . S
C549 C552 1.526 . S
C550 H534 0.959 . S
C550 H535 0.959 . S
C550 H536 0.961 . S
C550 C549 1.502 . S
C551 H537 0.960 . S
C551 H538 0.961 . S
C551 H539 0.959 . S
C551 C549 1.561 . S
C552 C549 1.526 . S
C552 C553 1.396 . S
C552 C557 1.390 . S
C553 C547 1.465 . S
C553 C552 1.396 . S
C553 C554 1.399 . S
C554 H540 0.929 . S
C554 C553 1.399 . S
C554 C555 1.385 . S
C555 H541 0.931 . S
C555 C554 1.385 . S
C555 C556 1.389 . S
C556 C555 1.389 . S
C556 C557 1.387 . S
C557 H542 0.930 . S
C557 C552 1.390 . S
C557 C556 1.387 . S
H558 C570 0.930 . S
H559 C572 0.930 . S
H560 C573 0.930 . S
H561 C577 0.959 . S
H562 C577 0.959 . S
H563 C577 0.961 . S
H564 C578 0.960 . S
H565 C578 0.961 . S
H566 C578 0.959 . S
H567 C581 0.929 . S
H568 C582 0.931 . S
H569 C584 0.930 . S
C570 H558 0.930 . S
C570 C571 1.399 . S
C570 C575 1.399 1_556 S
C571 C570 1.399 . S
C571 C572 1.376 . S
C572 H559 0.930 . S
C572 C571 1.376 . S
C572 C573 1.388 1_556 S
C573 H560 0.930 . S
C573 C572 1.388 1_554 S
C573 C574 1.390 . S
C574 C573 1.390 . S
C574 C575 1.394 . S
C574 C580 1.465 . S
C575 C570 1.399 1_554 S
C575 C574 1.394 . S
C575 C576 1.516 . S
C576 C575 1.516 . S
C576 C577 1.502 . S
C576 C578 1.561 . S
C576 C579 1.526 . S
C577 H561 0.959 . S
C577 H562 0.959 . S
C577 H563 0.961 . S
C577 C576 1.502 . S
C578 H564 0.960 . S
C578 H565 0.961 . S
C578 H566 0.959 . S
C578 C576 1.561 . S
C579 C576 1.526 . S
C579 C580 1.396 . S
C579 C584 1.390 . S
C580 C574 1.465 . S
C580 C579 1.396 . S
C580 C581 1.399 . S
C581 H567 0.929 . S
C581 C580 1.399 . S
C581 C582 1.385 . S
C582 H568 0.931 . S
C582 C581 1.385 . S
C582 C583 1.389 . S
C583 C582 1.389 . S
C583 C584 1.387 . S
C584 H569 0.930 . S
C584 C579 1.390 . S
C584 C583 1.387 . S
H585 C597 0.930 . S
H586 C599 0.930 . S
H587 C600 0.930 . S
H588 C604 0.959 . S
H589 C604 0.959 . S
H590 C604 0.961 . S
H591 C605 0.960 . S
H592 C605 0.961 . S
H593 C605 0.959 . S
H594 C608 0.929 . S
H595 C609 0.931 . S
H596 C611 0.930 . S
C597 H585 0.930 . S
C597 C598 1.399 . S
C597 C602 1.399 . S
C598 C597 1.399 . S
C598 C599 1.376 . S
C599 H586 0.930 . S
C599 C598 1.376 . S
C599 C600 1.388 . S
C600 H587 0.930 . S
C600 C599 1.388 . S
C600 C601 1.390 . S
C601 C600 1.390 . S
C601 C602 1.394 . S
C601 C607 1.465 . S
C602 C597 1.399 . S
C602 C601 1.394 . S
C602 C603 1.516 . S
C603 C602 1.516 . S
C603 C604 1.502 . S
C603 C605 1.561 . S
C603 C606 1.526 . S
C604 H588 0.959 . S
C604 H589 0.959 . S
C604 H590 0.961 . S
C604 C603 1.502 . S
C605 H591 0.960 . S
C605 H592 0.961 . S
C605 H593 0.959 . S
C605 C603 1.561 . S
C606 C603 1.526 . S
C606 C607 1.396 . S
C606 C611 1.390 . S
C607 C601 1.465 . S
C607 C606 1.396 . S
C607 C608 1.399 . S
C608 H594 0.929 . S
C608 C607 1.399 . S
C608 C609 1.385 . S
C609 H595 0.931 . S
C609 C608 1.385 . S
C609 C610 1.389 . S
C610 C609 1.389 . S
C610 C611 1.387 . S
C611 H596 0.930 . S
C611 C606 1.390 . S
C611 C610 1.387 . S
H612 C624 0.930 . S
H613 C626 0.930 . S
H614 C627 0.930 . S
H615 C631 0.959 . S
H616 C631 0.959 . S
H617 C631 0.961 . S
H618 C632 0.960 . S
H619 C632 0.961 . S
H620 C632 0.959 . S
H621 C635 0.929 . S
H622 C636 0.931 . S
H623 C638 0.930 . S
C624 H612 0.930 . S
C624 C625 1.399 . S
C624 C629 1.399 . S
C625 C624 1.399 . S
C625 C626 1.376 . S
C626 H613 0.930 . S
C626 C625 1.376 . S
C626 C627 1.388 . S
C627 H614 0.930 . S
C627 C626 1.388 . S
C627 C628 1.390 . S
C628 C627 1.390 . S
C628 C629 1.394 . S
C628 C634 1.465 . S
C629 C624 1.399 . S
C629 C628 1.394 . S
C629 C630 1.516 . S
C630 C629 1.516 . S
C630 C631 1.502 . S
C630 C632 1.561 . S
C630 C633 1.526 . S
C631 H615 0.959 . S
C631 H616 0.959 . S
C631 H617 0.961 . S
C631 C630 1.502 . S
C632 H618 0.960 . S
C632 H619 0.961 . S
C632 H620 0.959 . S
C632 C630 1.561 . S
C633 C630 1.526 . S
C633 C634 1.396 . S
C633 C638 1.390 . S
C634 C628 1.465 . S
C634 C633 1.396 . S
C634 C635 1.399 . S
C635 H621 0.929 . S
C635 C634 1.399 . S
C635 C636 1.385 . S
C636 H622 0.931 . S
C636 C635 1.385 . S
C636 C637 1.389 . S
C637 C636 1.389 . S
C637 C638 1.387 . S
C638 H623 0.930 . S
C638 C633 1.390 . S
C638 C637 1.387 . S
H639 C651 0.930 . S
H640 C653 0.930 . S
H641 C654 0.930 . S
H642 C658 0.959 . S
H643 C658 0.959 . S
H644 C658 0.961 . S
H645 C659 0.960 . S
H646 C659 0.961 . S
H647 C659 0.959 . S
H648 C662 0.929 . S
H649 C663 0.931 . S
H650 C665 0.930 . S
C651 H639 0.930 . S
C651 C652 1.399 . S
C651 C656 1.399 . S
C652 C651 1.399 . S
C652 C653 1.376 . S
C653 H640 0.930 . S
C653 C652 1.376 . S
C653 C654 1.388 . S
C654 H641 0.930 . S
C654 C653 1.388 . S
C654 C655 1.390 . S
C655 C654 1.390 . S
C655 C656 1.394 . S
C655 C661 1.465 . S
C656 C651 1.399 . S
C656 C655 1.394 . S
C656 C657 1.516 . S
C657 C656 1.516 . S
C657 C658 1.502 . S
C657 C659 1.561 . S
C657 C660 1.526 . S
C658 H642 0.959 . S
C658 H643 0.959 . S
C658 H644 0.961 . S
C658 C657 1.502 . S
C659 H645 0.960 . S
C659 H646 0.961 . S
C659 H647 0.959 . S
C659 C657 1.561 . S
C660 C657 1.526 . S
C660 C661 1.396 . S
C660 C665 1.390 . S
C661 C655 1.465 . S
C661 C660 1.396 . S
C661 C662 1.399 . S
C662 H648 0.929 . S
C662 C661 1.399 . S
C662 C663 1.385 . S
C663 H649 0.931 . S
C663 C662 1.385 . S
C663 C664 1.389 . S
C664 C663 1.389 . S
C664 C665 1.387 . S
C665 H650 0.930 . S
C665 C660 1.390 . S
C665 C664 1.387 . S
H666 C678 0.930 . S
H667 C680 0.930 . S
H668 C681 0.930 . S
H669 C685 0.959 . S
H670 C685 0.959 . S
H671 C685 0.961 . S
H672 C686 0.960 . S
H673 C686 0.961 . S
H674 C686 0.959 . S
H675 C689 0.929 . S
H676 C690 0.931 . S
H677 C692 0.930 . S
C678 H666 0.930 . S
C678 C679 1.399 . S
C678 C683 1.399 . S
C679 C678 1.399 . S
C679 C680 1.376 . S
C680 H667 0.930 . S
C680 C679 1.376 . S
C680 C681 1.388 . S
C681 H668 0.930 . S
C681 C680 1.388 . S
C681 C682 1.390 . S
C682 C681 1.390 . S
C682 C683 1.394 . S
C682 C688 1.465 . S
C683 C678 1.399 . S
C683 C682 1.394 . S
C683 C684 1.516 . S
C684 C683 1.516 . S
C684 C685 1.502 . S
C684 C686 1.561 . S
C684 C687 1.526 . S
C685 H669 0.959 . S
C685 H670 0.959 . S
C685 H671 0.961 . S
C685 C684 1.502 . S
C686 H672 0.960 . S
C686 H673 0.961 . S
C686 H674 0.959 . S
C686 C684 1.561 . S
C687 C684 1.526 . S
C687 C688 1.396 . S
C687 C692 1.390 . S
C688 C682 1.465 . S
C688 C687 1.396 . S
C688 C689 1.399 . S
C689 H675 0.929 . S
C689 C688 1.399 . S
C689 C690 1.385 . S
C690 H676 0.931 . S
C690 C689 1.385 . S
C690 C691 1.389 . S
C691 C690 1.389 . S
C691 C692 1.387 . S
C692 H677 0.930 . S
C692 C687 1.390 . S
C692 C691 1.387 . S
H693 C705 0.930 . S
H694 C707 0.930 . S
H695 C708 0.930 . S
H696 C712 0.959 . S
H697 C712 0.959 . S
H698 C712 0.961 . S
H699 C713 0.960 . S
H700 C713 0.961 . S
H701 C713 0.959 . S
H702 C716 0.929 . S
H703 C717 0.931 . S
H704 C719 0.930 . S
C705 H693 0.930 . S
C705 C706 1.399 . S
C705 C710 1.399 . S
C706 C705 1.399 . S
C706 C707 1.376 . S
C707 H694 0.930 . S
C707 C706 1.376 . S
C707 C708 1.388 . S
C708 H695 0.930 . S
C708 C707 1.388 . S
C708 C709 1.390 . S
C709 C708 1.390 . S
C709 C710 1.394 . S
C709 C715 1.465 . S
C710 C705 1.399 . S
C710 C709 1.394 . S
C710 C711 1.516 . S
C711 C710 1.516 . S
C711 C712 1.502 . S
C711 C713 1.561 . S
C711 C714 1.526 . S
C712 H696 0.959 . S
C712 H697 0.959 . S
C712 H698 0.961 . S
C712 C711 1.502 . S
C713 H699 0.960 . S
C713 H700 0.961 . S
C713 H701 0.959 . S
C713 C711 1.561 . S
C714 C711 1.526 . S
C714 C715 1.396 . S
C714 C719 1.390 . S
C715 C709 1.465 . S
C715 C714 1.396 . S
C715 C716 1.399 . S
C716 H702 0.929 . S
C716 C715 1.399 . S
C716 C717 1.385 . S
C717 H703 0.931 . S
C717 C716 1.385 . S
C717 C718 1.389 . S
C718 C717 1.389 . S
C718 C719 1.387 . S
C719 H704 0.930 . S
C719 C714 1.390 . S
C719 C718 1.387 . S
H720 C732 0.930 . S
H721 C734 0.930 . S
H722 C735 0.930 . S
H723 C739 0.959 . S
H724 C739 0.959 . S
H725 C739 0.961 . S
H726 C740 0.960 . S
H727 C740 0.961 . S
H728 C740 0.959 . S
H729 C743 0.929 . S
H730 C744 0.931 . S
H731 C746 0.930 . S
C732 H720 0.930 . S
C732 C733 1.399 . S
C732 C737 1.399 . S
C733 C732 1.399 . S
C733 C734 1.376 . S
C734 H721 0.930 . S
C734 C733 1.376 . S
C734 C735 1.388 . S
C735 H722 0.930 . S
C735 C734 1.388 . S
C735 C736 1.390 . S
C736 C735 1.390 . S
C736 C737 1.394 . S
C736 C742 1.465 . S
C737 C732 1.399 . S
C737 C736 1.394 . S
C737 C738 1.516 . S
C738 C737 1.516 . S
C738 C739 1.502 . S
C738 C740 1.561 . S
C738 C741 1.526 . S
C739 H723 0.959 . S
C739 H724 0.959 . S
C739 H725 0.961 . S
C739 C738 1.502 . S
C740 H726 0.960 . S
C740 H727 0.961 . S
C740 H728 0.959 . S
C740 C738 1.561 . S
C741 C738 1.526 . S
C741 C742 1.396 . S
C741 C746 1.390 . S
C742 C736 1.465 . S
C742 C741 1.396 . S
C742 C743 1.399 . S
C743 H729 0.929 . S
C743 C742 1.399 . S
C743 C744 1.385 . S
C744 H730 0.931 . S
C744 C743 1.385 . S
C744 C745 1.389 . S
C745 C744 1.389 . S
C745 C746 1.387 . S
C746 H731 0.930 . S
C746 C741 1.390 . S
C746 C745 1.387 . S
H747 C759 0.930 . S
H748 C761 0.930 . S
H749 C762 0.930 . S
H750 C766 0.959 . S
H751 C766 0.959 . S
H752 C766 0.961 . S
H753 C767 0.960 . S
H754 C767 0.961 . S
H755 C767 0.959 . S
H756 C770 0.929 . S
H757 C771 0.931 . S
H758 C773 0.930 . S
C759 H747 0.930 . S
C759 C760 1.399 . S
C759 C764 1.399 . S
C760 C759 1.399 . S
C760 C761 1.376 . S
C761 H748 0.930 . S
C761 C760 1.376 . S
C761 C762 1.388 . S
C762 H749 0.930 . S
C762 C761 1.388 . S
C762 C763 1.390 . S
C763 C762 1.390 . S
C763 C764 1.394 . S
C763 C769 1.465 . S
C764 C759 1.399 . S
C764 C763 1.394 . S
C764 C765 1.516 . S
C765 C764 1.516 . S
C765 C766 1.502 . S
C765 C767 1.561 . S
C765 C768 1.526 . S
C766 H750 0.959 . S
C766 H751 0.959 . S
C766 H752 0.961 . S
C766 C765 1.502 . S
C767 H753 0.960 . S
C767 H754 0.961 . S
C767 H755 0.959 . S
C767 C765 1.561 . S
C768 C765 1.526 . S
C768 C769 1.396 . S
C768 C773 1.390 . S
C769 C763 1.465 . S
C769 C768 1.396 . S
C769 C770 1.399 . S
C770 H756 0.929 . S
C770 C769 1.399 . S
C770 C771 1.385 . S
C771 H757 0.931 . S
C771 C770 1.385 . S
C771 C772 1.389 . S
C772 C771 1.389 . S
C772 C773 1.387 . S
C773 H758 0.930 . S
C773 C768 1.390 . S
C773 C772 1.387 . S
H774 C786 0.930 . S
H775 C788 0.930 . S
H776 C789 0.930 . S
H777 C793 0.959 . S
H778 C793 0.959 . S
H779 C793 0.961 . S
H780 C794 0.960 . S
H781 C794 0.961 . S
H782 C794 0.959 . S
H783 C797 0.929 . S
H784 C798 0.931 . S
H785 C800 0.930 . S
C786 H774 0.930 . S
C786 C787 1.399 . S
C786 C791 1.399 . S
C787 C786 1.399 . S
C787 C788 1.376 . S
C788 H775 0.930 . S
C788 C787 1.376 . S
C788 C789 1.388 . S
C789 H776 0.930 . S
C789 C788 1.388 . S
C789 C790 1.390 . S
C790 C789 1.390 . S
C790 C791 1.394 . S
C790 C796 1.465 . S
C791 C786 1.399 . S
C791 C790 1.394 . S
C791 C792 1.516 . S
C792 C791 1.516 . S
C792 C793 1.502 . S
C792 C794 1.561 . S
C792 C795 1.526 . S
C793 H777 0.959 . S
C793 H778 0.959 . S
C793 H779 0.961 . S
C793 C792 1.502 . S
C794 H780 0.960 . S
C794 H781 0.961 . S
C794 H782 0.959 . S
C794 C792 1.561 . S
C795 C792 1.526 . S
C795 C796 1.396 . S
C795 C800 1.390 . S
C796 C790 1.465 . S
C796 C795 1.396 . S
C796 C797 1.399 . S
C797 H783 0.929 . S
C797 C796 1.399 . S
C797 C798 1.385 . S
C798 H784 0.931 . S
C798 C797 1.385 . S
C798 C799 1.389 . S
C799 C798 1.389 . S
C799 C800 1.387 . S
C800 H785 0.930 . S
C800 C795 1.390 . S
C800 C799 1.387 . S
H801 C813 0.930 . S
H802 C815 0.930 . S
H803 C816 0.930 . S
H804 C820 0.959 . S
H805 C820 0.959 . S
H806 C820 0.961 . S
H807 C821 0.960 . S
H808 C821 0.961 . S
H809 C821 0.959 . S
H810 C824 0.929 . S
H811 C825 0.931 . S
H812 C827 0.930 . S
C813 H801 0.930 . S
C813 C814 1.399 . S
C813 C818 1.399 . S
C814 C813 1.399 . S
C814 C815 1.376 . S
C815 H802 0.930 . S
C815 C814 1.376 . S
C815 C816 1.388 . S
C816 H803 0.930 . S
C816 C815 1.388 . S
C816 C817 1.390 . S
C817 C816 1.390 . S
C817 C818 1.394 . S
C817 C823 1.465 . S
C818 C813 1.399 . S
C818 C817 1.394 . S
C818 C819 1.516 . S
C819 C818 1.516 . S
C819 C820 1.502 . S
C819 C821 1.561 . S
C819 C822 1.526 . S
C820 H804 0.959 . S
C820 H805 0.959 . S
C820 H806 0.961 . S
C820 C819 1.502 . S
C821 H807 0.960 . S
C821 H808 0.961 . S
C821 H809 0.959 . S
C821 C819 1.561 . S
C822 C819 1.526 . S
C822 C823 1.396 . S
C822 C827 1.390 . S
C823 C817 1.465 . S
C823 C822 1.396 . S
C823 C824 1.399 . S
C824 H810 0.929 . S
C824 C823 1.399 . S
C824 C825 1.385 . S
C825 H811 0.931 . S
C825 C824 1.385 . S
C825 C826 1.389 . S
C826 C825 1.389 . S
C826 C827 1.387 . S
C827 H812 0.930 . S
C827 C822 1.390 . S
C827 C826 1.387 . S
C193 C81 1.432 . S
C205 C112 1.367 . S
C232 C120 1.341 . S
C220 C93 1.419 . S
C259 C124 1.328 . S
C247 C57 1.391 . S
C274 C69 1.382 . S
C286 C100 1.311 . S
C313 C141 1.293 . S
C301 C33 1.411 . S
C340 C175 1.392 . S
C328 C45 1.405 . S
C355 C9 1.385 . S
C367 C163 1.352 . S
C382 C21 1.394 . S
C394 C145 1.279 . S
C421 C99 1.285 . S
C409 C18 1.464 . S
C448 C133 1.368 . S
C436 C6 1.489 . S
C475 C137 1.345 . S
C463 C42 1.486 . S
C502 C115 1.340 . S
C490 C30 1.486 . S
C529 C154 1.322 . S
C517 C66 1.484 . S
C544 C54 1.486 . S
C556 C162 1.338 . S
C583 C178 1.347 . S
C571 C90 1.487 . S
C598 C78 1.480 . S
C610 C158 1.398 . S
C637 C103 1.373 . S
C625 C4 1.514 . S
C664 C121 1.420 . S
C652 C16 1.495 . S
C679 C28 1.491 . S
C691 C136 1.415 . S
C718 C116 1.314 . S
C706 C40 1.521 . S
C745 C142 1.296 . S
C733 C52 1.522 . S
C760 C64 1.511 . S
C772 C166 1.339 . S
C787 C76 1.507 . S
C799 C179 1.399 . S
C814 C88 1.517 . S
C826 C157 1.352 . S
