# Generated by pormake.
# Topology ctn, (3,4)-cn, num edge types: 1
# Building blocks:
#     Node 0, Type 0, BuildingBlock: PAMTOO_clean_linker_0, # of connection points: 3
#     Node 1, Type 0, BuildingBlock: PAMTOO_clean_linker_0, # of connection points: 3
#     Node 2, Type 0, BuildingBlock: PAMTOO_clean_linker_0, # of connection points: 3
#     Node 3, Type 0, BuildingBlock: PAMTOO_clean_linker_0, # of connection points: 3
#     Node 4, Type 0, BuildingBlock: PAMTOO_clean_linker_0, # of connection points: 3
#     Node 5, Type 0, BuildingBlock: PAMTOO_clean_linker_0, # of connection points: 3
#     Node 6, Type 0, BuildingBlock: PAMTOO_clean_linker_0, # of connection points: 3
#     Node 7, Type 0, BuildingBlock: PAMTOO_clean_linker_0, # of connection points: 3
#     Node 8, Type 0, BuildingBlock: PAMTOO_clean_linker_0, # of connection points: 3
#     Node 9, Type 0, BuildingBlock: PAMTOO_clean_linker_0, # of connection points: 3
#     Node 10, Type 0, BuildingBlock: PAMTOO_clean_linker_0, # of connection points: 3
#     Node 11, Type 0, BuildingBlock: PAMTOO_clean_linker_0, # of connection points: 3
#     Node 12, Type 0, BuildingBlock: PAMTOO_clean_linker_0, # of connection points: 3
#     Node 13, Type 0, BuildingBlock: PAMTOO_clean_linker_0, # of connection points: 3
#     Node 14, Type 0, BuildingBlock: PAMTOO_clean_linker_0, # of connection points: 3
#     Node 15, Type 0, BuildingBlock: PAMTOO_clean_linker_0, # of connection points: 3
#     Node 16, Type 1, BuildingBlock: KUFVIS_clean_sbu_0, # of connection points: 4
#     Node 17, Type 1, BuildingBlock: KUFVIS_clean_sbu_0, # of connection points: 4
#     Node 18, Type 1, BuildingBlock: KUFVIS_clean_sbu_0, # of connection points: 4
#     Node 19, Type 1, BuildingBlock: KUFVIS_clean_sbu_0, # of connection points: 4
#     Node 20, Type 1, BuildingBlock: KUFVIS_clean_sbu_0, # of connection points: 4
#     Node 21, Type 1, BuildingBlock: KUFVIS_clean_sbu_0, # of connection points: 4
#     Node 22, Type 1, BuildingBlock: KUFVIS_clean_sbu_0, # of connection points: 4
#     Node 23, Type 1, BuildingBlock: KUFVIS_clean_sbu_0, # of connection points: 4
#     Node 24, Type 1, BuildingBlock: KUFVIS_clean_sbu_0, # of connection points: 4
#     Node 25, Type 1, BuildingBlock: KUFVIS_clean_sbu_0, # of connection points: 4
#     Node 26, Type 1, BuildingBlock: KUFVIS_clean_sbu_0, # of connection points: 4
#     Node 27, Type 1, BuildingBlock: KUFVIS_clean_sbu_0, # of connection points: 4
#     Edge 28, Type (0, 1), BuildingBlock: XIVTED_clean_linker_0, # of connection points: 2
#     Edge 29, Type (0, 1), BuildingBlock: XIVTED_clean_linker_0, # of connection points: 2
#     Edge 30, Type (0, 1), BuildingBlock: XIVTED_clean_linker_0, # of connection points: 2
#     Edge 31, Type (0, 1), BuildingBlock: XIVTED_clean_linker_0, # of connection points: 2
#     Edge 32, Type (0, 1), BuildingBlock: XIVTED_clean_linker_0, # of connection points: 2
#     Edge 33, Type (0, 1), BuildingBlock: XIVTED_clean_linker_0, # of connection points: 2
#     Edge 34, Type (0, 1), BuildingBlock: XIVTED_clean_linker_0, # of connection points: 2
#     Edge 35, Type (0, 1), BuildingBlock: XIVTED_clean_linker_0, # of connection points: 2
#     Edge 36, Type (0, 1), BuildingBlock: XIVTED_clean_linker_0, # of connection points: 2
#     Edge 37, Type (0, 1), BuildingBlock: XIVTED_clean_linker_0, # of connection points: 2
#     Edge 38, Type (0, 1), BuildingBlock: XIVTED_clean_linker_0, # of connection points: 2
#     Edge 39, Type (0, 1), BuildingBlock: XIVTED_clean_linker_0, # of connection points: 2
#     Edge 40, Type (0, 1), BuildingBlock: XIVTED_clean_linker_0, # of connection points: 2
#     Edge 41, Type (0, 1), BuildingBlock: XIVTED_clean_linker_0, # of connection points: 2
#     Edge 42, Type (0, 1), BuildingBlock: XIVTED_clean_linker_0, # of connection points: 2
#     Edge 43, Type (0, 1), BuildingBlock: XIVTED_clean_linker_0, # of connection points: 2
#     Edge 44, Type (0, 1), BuildingBlock: XIVTED_clean_linker_0, # of connection points: 2
#     Edge 45, Type (0, 1), BuildingBlock: XIVTED_clean_linker_0, # of connection points: 2
#     Edge 46, Type (0, 1), BuildingBlock: XIVTED_clean_linker_0, # of connection points: 2
#     Edge 47, Type (0, 1), BuildingBlock: XIVTED_clean_linker_0, # of connection points: 2
#     Edge 48, Type (0, 1), BuildingBlock: XIVTED_clean_linker_0, # of connection points: 2
#     Edge 49, Type (0, 1), BuildingBlock: XIVTED_clean_linker_0, # of connection points: 2
#     Edge 50, Type (0, 1), BuildingBlock: XIVTED_clean_linker_0, # of connection points: 2
#     Edge 51, Type (0, 1), BuildingBlock: XIVTED_clean_linker_0, # of connection points: 2
#     Edge 52, Type (0, 1), BuildingBlock: XIVTED_clean_linker_0, # of connection points: 2
#     Edge 53, Type (0, 1), BuildingBlock: XIVTED_clean_linker_0, # of connection points: 2
#     Edge 54, Type (0, 1), BuildingBlock: XIVTED_clean_linker_0, # of connection points: 2
#     Edge 55, Type (0, 1), BuildingBlock: XIVTED_clean_linker_0, # of connection points: 2
#     Edge 56, Type (0, 1), BuildingBlock: XIVTED_clean_linker_0, # of connection points: 2
#     Edge 57, Type (0, 1), BuildingBlock: XIVTED_clean_linker_0, # of connection points: 2
#     Edge 58, Type (0, 1), BuildingBlock: XIVTED_clean_linker_0, # of connection points: 2
#     Edge 59, Type (0, 1), BuildingBlock: XIVTED_clean_linker_0, # of connection points: 2
#     Edge 60, Type (0, 1), BuildingBlock: XIVTED_clean_linker_0, # of connection points: 2
#     Edge 61, Type (0, 1), BuildingBlock: XIVTED_clean_linker_0, # of connection points: 2
#     Edge 62, Type (0, 1), BuildingBlock: XIVTED_clean_linker_0, # of connection points: 2
#     Edge 63, Type (0, 1), BuildingBlock: XIVTED_clean_linker_0, # of connection points: 2
#     Edge 64, Type (0, 1), BuildingBlock: XIVTED_clean_linker_0, # of connection points: 2
#     Edge 65, Type (0, 1), BuildingBlock: XIVTED_clean_linker_0, # of connection points: 2
#     Edge 66, Type (0, 1), BuildingBlock: XIVTED_clean_linker_0, # of connection points: 2
#     Edge 67, Type (0, 1), BuildingBlock: XIVTED_clean_linker_0, # of connection points: 2
#     Edge 68, Type (0, 1), BuildingBlock: XIVTED_clean_linker_0, # of connection points: 2
#     Edge 69, Type (0, 1), BuildingBlock: XIVTED_clean_linker_0, # of connection points: 2
#     Edge 70, Type (0, 1), BuildingBlock: XIVTED_clean_linker_0, # of connection points: 2
#     Edge 71, Type (0, 1), BuildingBlock: XIVTED_clean_linker_0, # of connection points: 2
#     Edge 72, Type (0, 1), BuildingBlock: XIVTED_clean_linker_0, # of connection points: 2
#     Edge 73, Type (0, 1), BuildingBlock: XIVTED_clean_linker_0, # of connection points: 2
#     Edge 74, Type (0, 1), BuildingBlock: XIVTED_clean_linker_0, # of connection points: 2
#     Edge 75, Type (0, 1), BuildingBlock: XIVTED_clean_linker_0, # of connection points: 2
# Relax obj value: 0.075
# Max RMSD: 0.178
# Mean RMSD: 0.121
data_MOF--net-ctn--node1-KUFVIS_clean_sbu_0--node2-PAMTOO_clean_linker_0--edge1-XIVTED_clean_linker_0
_symmetry_space_group_name_H-M    P1
_symmetry_Int_Tables_number       1
_symmetry_cell_setting            triclinic
loop_
_symmetry_equiv_pos_as_xyz
'x, y, z'
_cell_length_a     53.053568
_cell_length_b     53.374759
_cell_length_c     54.523307
_cell_angle_alpha  85.950435
_cell_angle_beta   92.375552
_cell_angle_gamma 98.902821
loop_
_atom_site_label
_atom_site_type_symbol
_atom_site_fract_x
_atom_site_fract_y
_atom_site_fract_z
_atom_type_partial_charge
H0 H 0.01193 0.08608 0.0649 0.0
H1 H 0.05576 0.02488 0.07924 0.0
H2 H 0.06965 0.07507 0.01497 0.0
H3 H 0.06497 0.02146 0.00634 0.0
C4 C 0.07419 0.01443 0.02365 0.0
O5 O 0.08121 0.03424 0.03871 0.0
H6 H 0.06004 0.99962 0.033 0.0
C7 C 0.02708 0.07611 0.05997 0.0
C8 C 0.0402 0.08375 0.03812 0.0
C9 C 0.03271 0.0552 0.07524 0.0
C10 C 0.05113 0.04115 0.06792 0.0
C11 C 0.06395 0.04817 0.04597 0.0
C12 C 0.05888 0.06961 0.03144 0.0
H13 H 0.35428 0.6643 0.24036 0.0
H14 H 0.30736 0.68364 0.17755 0.0
H15 H 0.37075 0.73733 0.20078 0.0
H16 H 0.32153 0.75526 0.19086 0.0
C17 C 0.31527 0.74517 0.17393 0.0
O18 O 0.33249 0.72925 0.1694 0.0
H19 H 0.29611 0.7338 0.17691 0.0
C20 C 0.3502 0.67742 0.22518 0.0
C21 C 0.36523 0.7015 0.2226 0.0
C22 C 0.32912 0.67065 0.20917 0.0
C23 C 0.32388 0.68801 0.18973 0.0
C24 C 0.33889 0.71195 0.18687 0.0
C25 C 0.35956 0.71859 0.20311 0.0
H26 H 0.98007 0.53024 0.09474 0.0
H27 H 0.95548 0.49066 0.02951 0.0
H28 H 0.01544 0.46702 0.07602 0.0
H29 H 0.02389 0.46941 0.02343 0.0
C30 C 1.00429 0.46177 0.01669 0.0
O31 O 0.98788 0.45844 0.03609 0.0
H32 H 0.99793 0.47563 1.00248 0.0
C33 C 0.98155 0.51541 0.08256 0.0
C34 C 0.99952 0.49882 0.08835 0.0
C35 C 0.96543 0.51294 0.06132 0.0
C36 C 0.96784 0.49353 0.04569 0.0
C37 C 0.98593 0.47721 0.05104 0.0
C38 C 1.00154 0.47979 0.0723 0.0
H39 H 0.69702 0.8582 0.24573 0.0
H40 H 0.67327 0.78339 0.22065 0.0
H41 H 0.73922 0.8304 0.1903 0.0
H42 H 0.69412 0.80351 0.1571 0.0
C43 C 0.69551 0.78434 0.16611 0.0
O44 O 0.7091 0.78683 0.18819 0.0
H45 H 0.67586 0.77443 0.16967 0.0
C46 C 0.6996 0.84345 0.23379 0.0
C47 C 0.72047 0.84708 0.21822 0.0
C48 C 0.6826 0.82058 0.23496 0.0
C49 C 0.68619 0.80124 0.21988 0.0
C50 C 0.70618 0.80515 0.20329 0.0
C51 C 0.72332 0.82799 0.20253 0.0
H52 H 0.09082 0.96484 0.53626 0.0
H53 H 0.02252 0.94421 0.49169 0.0
H54 H 0.07435 0.01148 0.47179 0.0
H55 H 0.02043 0.01696 0.46649 0.0
C56 C 0.01257 0.99796 0.4599 0.0
O57 O 0.03178 0.98322 0.46004 0.0
H58 H 0.99729 0.98869 0.47235 0.0
C59 C 0.07832 0.96861 0.52068 0.0
C60 C 0.08553 0.99001 0.50455 0.0
C61 C 0.05566 0.95165 0.51632 0.0
C62 C 0.03973 0.95712 0.49597 0.0
C63 C 0.04644 0.97881 0.48024 0.0
C64 C 0.06926 0.99505 0.48444 0.0
H65 H 0.1704 0.73808 0.8314 0.0
H66 H 0.20331 0.68565 0.79091 0.0
H67 H 0.24371 0.71697 0.8539 0.0
H68 H 0.27761 0.70981 0.81861 0.0
C69 C 0.2659 0.69534 0.8075 0.0
O70 O 0.24393 0.68544 0.81977 0.0
H71 H 0.26071 0.70466 0.78947 0.0
C72 C 0.18607 0.72782 0.82886 0.0
C73 C 0.20732 0.73008 0.84537 0.0
C74 C 0.18454 0.7122 0.80897 0.0
C75 C 0.20407 0.69772 0.80617 0.0
C76 C 0.2251 0.69933 0.82265 0.0
C77 C 0.22677 0.71548 0.84202 0.0
H78 H 0.94835 0.55824 0.52344 0.0
H79 H 0.96962 0.51343 0.46732 0.0
H80 H 0.02224 0.57698 0.49086 0.0
H81 H 0.01334 0.57121 0.43614 0.0
C82 C 0.01184 0.55014 0.43655 0.0
O83 O 0.01428 0.5404 0.46051 0.0
H84 H 0.99267 0.54266 0.42869 0.0
C85 C 0.96235 0.55429 0.51091 0.0
C86 C 0.98625 0.57 0.50952 0.0
C87 C 0.95601 0.53404 0.49557 0.0
C88 C 0.97417 0.52894 0.47935 0.0
C89 C 0.99792 0.54438 0.4777 0.0
C90 C 1.00402 0.56478 0.49282 0.0
H91 H 0.78984 0.83303 0.86069 0.0
H92 H 0.84703 0.7945 0.83195 0.0
H93 H 0.8174 0.85352 0.78788 0.0
H94 H 0.83126 0.81668 0.75697 0.0
C95 C 0.84196 0.80601 0.77103 0.0
O96 O 0.85001 0.82128 0.79011 0.0
H97 H 0.82872 0.78882 0.77773 0.0
C98 C 0.8023 0.83036 0.84616 0.0
C99 C 0.80128 0.84516 0.82388 0.0
C100 C 0.81849 0.81166 0.84946 0.0
C101 C 0.83466 0.80892 0.83031 0.0
C102 C 0.83442 0.8242 0.80836 0.0
C103 C 0.8177 0.84214 0.80512 0.0
H104 H 0.28468 0.32323 0.35995 0.0
H105 H 0.34822 0.29726 0.32775 0.0
H106 H 0.31577 0.35959 0.29242 0.0
H107 H 0.33551 0.33232 0.25448 0.0
C108 C 0.34314 0.31835 0.26775 0.0
O109 O 0.35008 0.32967 0.28953 0.0
H110 H 0.32761 0.30187 0.27059 0.0
C111 C 0.29852 0.32476 0.34563 0.0
C112 C 0.29803 0.34346 0.32618 0.0
C113 C 0.31677 0.30808 0.34663 0.0
C114 C 0.33409 0.30993 0.3275 0.0
C115 C 0.33364 0.32842 0.30805 0.0
C116 C 0.31598 0.3454 0.30764 0.0
H117 H 0.47561 0.02718 0.59369 0.0
H118 H 0.45573 0.99188 0.52526 0.0
H119 H 0.51441 0.96714 0.57274 0.0
H120 H 0.52388 0.97021 0.52049 0.0
C121 C 0.5044 0.96286 0.51327 0.0
O122 O 0.48756 0.95915 0.53231 0.0
H123 H 0.49841 0.97707 0.4992 0.0
C124 C 0.47865 0.0138 0.58048 0.0
C125 C 0.49726 0.99782 0.58584 0.0
C126 C 0.46338 0.01203 0.55867 0.0
C127 C 0.46693 0.99368 0.54228 0.0
C128 C 0.48514 0.97749 0.54758 0.0
C129 C 0.5002 0.97961 0.5692 0.0
H130 H 0.19513 0.3596 0.74345 0.0
H131 H 0.17212 0.2855 0.71645 0.0
H132 H 0.23808 0.3337 0.68747 0.0
H133 H 0.19465 0.30763 0.65299 0.0
C134 C 0.19556 0.28823 0.66168 0.0
O135 O 0.20838 0.29005 0.68422 0.0
H136 H 0.17573 0.27844 0.66445 0.0
C137 C 0.19792 0.34524 0.73114 0.0
C138 C 0.21891 0.34947 0.71571 0.0
C139 C 0.18107 0.32228 0.73171 0.0
C140 C 0.1849 0.30345 0.71611 0.0
C141 C 0.20505 0.30794 0.69967 0.0
C142 C 0.22205 0.33086 0.69956 0.0
H143 H 0.84756 0.16614 0.74664 0.0
H144 H 0.80302 0.19007 0.68384 0.0
H145 H 0.87192 0.23711 0.70561 0.0
H146 H 0.83456 0.26616 0.69303 0.0
C147 C 0.82108 0.25357 0.68143 0.0
O148 O 0.83256 0.23342 0.6753 0.0
H149 H 0.80375 0.24623 0.69217 0.0
C150 C 0.84495 0.1796 0.73127 0.0
C151 C 0.86241 0.20217 0.72825 0.0
C152 C 0.82351 0.1748 0.71523 0.0
C153 C 0.81988 0.19281 0.69583 0.0
C154 C 0.83733 0.21518 0.69254 0.0
C155 C 0.85875 0.21956 0.70834 0.0
H156 H 0.50638 0.58462 0.56106 0.0
H157 H 0.54941 0.5228 0.5754 0.0
H158 H 0.5631 0.5722 0.51062 0.0
H159 H 0.55766 0.51852 0.5023 0.0
C160 C 0.56669 0.51144 0.5197 0.0
O161 O 0.57428 0.53133 0.53453 0.0
H162 H 0.55222 0.49707 0.52917 0.0
C163 C 0.52127 0.57436 0.55603 0.0
C164 C 0.53415 0.58158 0.53397 0.0
C165 C 0.5268 0.55346 0.57141 0.0
C166 C 0.54486 0.53905 0.564 0.0
C167 C 0.55743 0.54566 0.54187 0.0
C168 C 0.5525 0.56708 0.52724 0.0
H169 H 0.59504 0.46343 0.03254 0.0
H170 H 0.52825 0.44461 0.98553 0.0
H171 H 0.58251 0.51081 0.96749 0.0
H172 H 0.52933 0.51851 0.96008 0.0
C173 C 0.52065 0.49935 0.95442 0.0
O174 O 0.53934 0.484 0.95448 0.0
H175 H 0.50576 0.49103 0.96768 0.0
C176 C 0.58336 0.46749 0.01642 0.0
C177 C 0.59166 0.48885 1.00065 0.0
C178 C 0.56065 0.45101 0.01116 0.0
C179 C 0.54563 0.45702 0.99031 0.0
C180 C 0.55343 0.47874 0.97486 0.0
C181 C 0.5765 0.49436 0.97986 0.0
H182 H 0.67404 0.24134 0.32961 0.0
H183 H 0.70122 0.1839 0.2906 0.0
H184 H 0.74323 0.21293 0.354 0.0
H185 H 0.77367 0.20782 0.31096 0.0
C186 C 0.76261 0.19014 0.30399 0.0
O187 O 0.74208 0.18195 0.31886 0.0
H188 H 0.75563 0.19441 0.28486 0.0
C189 C 0.68788 0.22871 0.3277 0.0
C190 C 0.70879 0.22909 0.34444 0.0
C191 C 0.68488 0.21249 0.30821 0.0
C192 C 0.70299 0.19629 0.30569 0.0
C193 C 0.72414 0.19679 0.32202 0.0
C194 C 0.72692 0.21299 0.34139 0.0
H195 H 0.45253 0.06006 0.02331 0.0
H196 H 0.47789 0.01789 0.96704 0.0
H197 H 0.52914 0.07895 0.99697 0.0
H198 H 0.54164 0.07551 0.94613 0.0
C199 C 0.52722 0.05847 0.94307 0.0
O200 O 0.52356 0.04404 0.96503 0.0
H201 H 0.5092 0.06538 0.93638 0.0
C202 C 0.46744 0.05655 0.01158 0.0
C203 C 0.49147 0.07203 0.01236 0.0
C204 C 0.46222 0.03702 0.99527 0.0
C205 C 0.4815 0.03275 0.97985 0.0
C206 C 0.50558 0.04767 0.98074 0.0
C207 C 0.51063 0.06708 0.99708 0.0
Mn208 Mn 0.25248 0.88506 1.00121 0.0
Mn209 Mn 0.25059 0.90877 0.94232 0.0
C210 C 0.23194 0.86037 0.97096 0.0
C211 C 0.27204 0.86415 0.03381 0.0
C212 C 0.21814 0.92361 0.98191 0.0
O213 O 0.28101 0.91542 1.00068 0.0
O214 O 0.27999 0.9279 0.9603 0.0
C215 C 0.29838 0.89388 0.92595 0.0
N216 N 0.27261 0.89295 0.9235 0.0
C217 C 0.27035 0.86588 0.88975 0.0
C218 C 0.29689 0.86668 0.89181 0.0
C219 C 0.31095 0.88071 0.91002 0.0
C220 C 0.25888 0.87944 0.9061 0.0
H221 H 0.30927 0.90451 0.94 0.0
C222 C 0.28986 0.92954 0.98213 0.0
O223 O 0.2561 0.87955 0.03748 0.0
O224 O 0.27716 0.86138 0.01117 0.0
N225 N 0.22329 0.89143 0.92293 0.0
C226 C 0.19775 0.89191 0.92389 0.0
C227 C 0.18095 0.87863 0.907 0.0
C228 C 0.19059 0.86508 0.88927 0.0
C229 C 0.21696 0.86502 0.88852 0.0
C230 C 0.23279 0.87882 0.90566 0.0
H231 H 0.19021 0.90228 0.93747 0.0
O232 O 0.22605 0.85514 0.99383 0.0
O233 O 0.24933 0.87992 0.96669 0.0
O234 O 0.22563 0.90865 0.99895 0.0
O235 O 0.22668 0.92572 0.96015 0.0
C236 C 0.22813 0.85153 0.87165 0.0
C237 C 0.25479 0.85188 0.87233 0.0
H238 H 0.30664 0.85647 0.87962 0.0
H239 H 0.33143 0.88132 0.91181 0.0
H240 H 0.16062 0.87875 0.90771 0.0
H241 H 0.17756 0.85467 0.87642 0.0
H242 H 0.21635 0.8406 0.85826 0.0
H243 H 0.26311 0.84118 0.85947 0.0
Mn244 Mn 0.1592 0.50105 0.27074 0.0
Mn245 Mn 0.1528 0.56306 0.26331 0.0
C246 C 0.18816 0.52958 0.24791 0.0
C247 C 0.17721 0.46857 0.29275 0.0
C248 C 0.11962 0.52173 0.23575 0.0
O249 O 0.13476 0.50487 0.298 0.0
O250 O 0.13517 0.54731 0.29319 0.0
C251 C 0.18334 0.58116 0.30709 0.0
N252 N 0.17871 0.58275 0.28231 0.0
C253 C 0.21345 0.61722 0.27665 0.0
C254 C 0.21832 0.61621 0.30215 0.0
C255 C 0.20327 0.59801 0.31741 0.0
C256 C 0.19331 0.59995 0.26742 0.0
H257 H 0.17202 0.56703 0.31885 0.0
C258 C 0.12868 0.52562 0.30469 0.0
O259 O 0.15717 0.46343 0.27838 0.0
O260 O 0.18557 0.49236 0.29536 0.0
N261 N 0.16949 0.58066 0.23518 0.0
C262 C 0.16342 0.57801 0.21087 0.0
C263 C 0.17726 0.59421 0.19308 0.0
C264 C 0.19707 0.61307 0.20045 0.0
C265 C 0.20286 0.61555 0.22557 0.0
C266 C 0.18832 0.59894 0.24247 0.0
H267 H 0.14816 0.56363 0.20508 0.0
O268 O 0.18568 0.50549 0.24469 0.0
O269 O 0.17358 0.53602 0.26408 0.0
O270 O 0.13057 0.50312 0.24437 0.0
O271 O 0.12592 0.54441 0.24243 0.0
C272 C 0.22279 0.63355 0.23448 0.0
C273 C 0.22814 0.63431 0.26 0.0
H274 H 0.23375 0.6291 0.31017 0.0
H275 H 0.20708 0.59693 0.33708 0.0
H276 H 0.1727 0.59216 0.17373 0.0
H277 H 0.20783 0.6254 0.18667 0.0
H278 H 0.23444 0.64656 0.22185 0.0
H279 H 0.24385 0.64789 0.2666 0.0
Mn280 Mn 0.78895 0.63873 0.02714 0.0
Mn281 Mn 0.73513 0.65108 0.99599 0.0
C282 C 0.75225 0.60875 0.02789 0.0
C283 C 0.82771 0.62258 0.02942 0.0
C284 C 0.75266 0.67305 0.04464 0.0
O285 O 0.80249 0.66911 0.00354 0.0
O286 O 0.76524 0.67429 0.98376 0.0
C287 C 0.7472 0.63482 0.94761 0.0
N288 N 0.73106 0.63319 0.96663 0.0
C289 C 0.69969 0.60362 0.94615 0.0
C290 C 0.71593 0.60505 0.92628 0.0
C291 C 0.73983 0.62064 0.92706 0.0
C292 C 0.70816 0.61805 0.96619 0.0
H293 H 0.76552 0.64688 0.94814 0.0
C294 C 0.78928 0.68052 0.98746 0.0
O295 O 0.82293 0.63895 0.04445 0.0
O296 O 0.81051 0.61654 0.01236 0.0
N297 N 0.70399 0.63036 0.00573 0.0
C298 C 0.69085 0.63074 0.02662 0.0
C299 C 0.6666 0.61605 0.02887 0.0
C300 C 0.65591 0.60151 0.00947 0.0
C301 C 0.66958 0.60182 0.98795 0.0
C302 C 0.69365 0.61685 0.98675 0.0
H303 H 0.69884 0.64216 0.04146 0.0
O304 O 0.76983 0.60797 0.04504 0.0
O305 O 0.75662 0.62687 0.0107 0.0
O306 O 0.77263 0.6624 0.04802 0.0
O307 O 0.73749 0.66991 0.02594 0.0
C308 C 0.6604 0.5876 0.96775 0.0
C309 C 0.67553 0.58834 0.94695 0.0
H310 H 0.71028 0.5942 0.91037 0.0
H311 H 0.75249 0.62179 0.91183 0.0
H312 H 0.65613 0.61599 0.0455 0.0
H313 H 0.63727 0.59008 0.01133 0.0
H314 H 0.64187 0.57577 0.96816 0.0
H315 H 0.66842 0.57703 0.93169 0.0
Mn316 Mn 0.88752 0.02462 0.25736 0.0
Mn317 Mn 0.89974 0.96431 0.25755 0.0
C318 C 0.85927 0.99382 0.2384 0.0
C319 C 0.86939 0.05618 0.27467 0.0
C320 C 0.92609 0.00743 0.22422 0.0
O321 O 0.91436 0.02326 0.28523 0.0
O322 O 0.91992 0.9823 0.28421 0.0
C323 C 0.87715 0.94491 0.30528 0.0
N324 N 0.87824 0.94326 0.28054 0.0
C325 C 0.8457 0.90641 0.28146 0.0
C326 C 0.84433 0.90764 0.30696 0.0
C327 C 0.86008 0.92701 0.3189 0.0
C328 C 0.86308 0.92478 0.26884 0.0
H329 H 0.88917 0.95979 0.31454 0.0
C330 C 0.92456 0.00401 0.29348 0.0
O331 O 0.888 0.06184 0.25954 0.0
O332 O 0.86207 0.03225 0.2805 0.0
N333 N 0.88104 0.94456 0.23289 0.0
C334 C 0.8839 0.94669 0.20807 0.0
C335 C 0.86923 0.92896 0.19335 0.0
C336 C 0.85194 0.90914 0.2043 0.0
C337 C 0.84948 0.90721 0.22989 0.0
C338 C 0.86472 0.92533 0.24364 0.0
H339 H 0.8972 0.96185 0.19955 0.0
O340 O 0.85932 0.01767 0.23184 0.0
O341 O 0.87581 0.98886 0.25551 0.0
O342 O 0.9146 0.02468 0.23162 0.0
O343 O 0.92217 0.98433 0.23288 0.0
C344 C 0.83222 0.88824 0.24226 0.0
C345 C 0.83024 0.88792 0.26801 0.0
H346 H 0.83114 0.89392 0.31753 0.0
H347 H 0.85905 0.92815 0.33857 0.0
H348 H 0.87122 0.9306 0.1736 0.0
H349 H 0.8405 0.89563 0.19286 0.0
H350 H 0.82007 0.87407 0.2321 0.0
H351 H 0.8166 0.8735 0.27725 0.0
Mn352 Mn 0.28585 0.13783 0.52607 0.0
Mn353 Mn 0.23407 0.15309 0.4936 0.0
C354 C 0.24742 0.11032 0.52742 0.0
C355 C 0.32302 0.11892 0.52808 0.0
C356 C 0.25406 0.17698 0.54106 0.0
O357 O 0.30096 0.16671 0.50162 0.0
O358 O 0.26545 0.17162 0.47851 0.0
C359 C 0.24125 0.13017 0.447 0.0
N360 N 0.2265 0.13222 0.46639 0.0
C361 C 0.19178 0.10311 0.4499 0.0
C362 C 0.20654 0.10081 0.42966 0.0
C363 C 0.23143 0.11431 0.42827 0.0
C364 C 0.20266 0.11909 0.46806 0.0
H365 H 0.26036 0.14056 0.44585 0.0
C366 C 0.28946 0.17659 0.48317 0.0
O367 O 0.31993 0.13616 0.54289 0.0
O368 O 0.305 0.11343 0.51166 0.0
N369 N 0.20219 0.13631 0.50605 0.0
C370 C 0.1909 0.13975 0.52731 0.0
C371 C 0.16615 0.12707 0.53186 0.0
C372 C 0.15313 0.11129 0.51438 0.0
C373 C 0.16499 0.10833 0.49249 0.0
C374 C 0.18969 0.12142 0.48898 0.0
H375 H 0.2007 0.15205 0.5407 0.0
O376 O 0.2648 0.10854 0.54464 0.0
O377 O 0.25317 0.12784 0.51 0.0
O378 O 0.27166 0.16342 0.54616 0.0
O379 O 0.23991 0.17522 0.52151 0.0
C380 C 0.1534 0.09268 0.47414 0.0
C381 C 0.16683 0.08997 0.45292 0.0
H382 H 0.19902 0.08861 0.41517 0.0
H383 H 0.24298 0.11254 0.41276 0.0
H384 H 0.1571 0.12949 0.54878 0.0
H385 H 0.13408 0.10146 0.518 0.0
H386 H 0.13431 0.08232 0.47634 0.0
H387 H 0.15788 0.07753 0.43915 0.0
Mn388 Mn 0.38635 0.52692 0.75666 0.0
Mn389 Mn 0.39751 0.46617 0.75741 0.0
C390 C 0.35718 0.49616 0.73868 0.0
C391 C 0.36954 0.55957 0.77354 0.0
C392 C 0.42356 0.50838 0.72294 0.0
O393 O 0.41388 0.52566 0.78395 0.0
O394 O 0.41859 0.48444 0.78337 0.0
C395 C 0.37592 0.44797 0.80585 0.0
N396 N 0.3764 0.44579 0.78114 0.0
C397 C 0.34368 0.4091 0.7833 0.0
C398 C 0.34294 0.41088 0.80879 0.0
C399 C 0.35909 0.43044 0.82009 0.0
C400 C 0.36083 0.42713 0.77005 0.0
H401 H 0.38827 0.46298 0.81462 0.0
C402 C 0.4239 0.50631 0.79224 0.0
O403 O 0.38774 0.5643 0.75791 0.0
O404 O 0.36187 0.53587 0.78019 0.0
N405 N 0.378 0.4461 0.73345 0.0
C406 C 0.38032 0.44764 0.70857 0.0
C407 C 0.36524 0.42963 0.69445 0.0
C408 C 0.3481 0.41012 0.70605 0.0
C409 C 0.34623 0.40876 0.7317 0.0
C410 C 0.36186 0.42714 0.74483 0.0
H411 H 0.39352 0.46253 0.69955 0.0
O412 O 0.3575 0.51998 0.73185 0.0
O413 O 0.37392 0.49113 0.75559 0.0
O414 O 0.41257 0.52595 0.73037 0.0
O415 O 0.41955 0.48543 0.73197 0.0
C416 C 0.32918 0.39013 0.7447 0.0
C417 C 0.3278 0.39038 0.77047 0.0
H418 H 0.32994 0.39743 0.81983 0.0
H419 H 0.35855 0.432 0.83974 0.0
H420 H 0.36679 0.43081 0.67466 0.0
H421 H 0.33634 0.3964 0.69507 0.0
H422 H 0.31673 0.37577 0.73502 0.0
H423 H 0.31432 0.37621 0.78021 0.0
Mn424 Mn 0.74724 0.38222 0.5037 0.0
Mn425 Mn 0.74591 0.40607 0.44477 0.0
C426 C 0.7294 0.35676 0.47293 0.0
C427 C 0.76654 0.36253 0.53728 0.0
C428 C 0.71109 0.41861 0.48342 0.0
O429 O 0.77428 0.41387 0.50395 0.0
O430 O 0.7738 0.42644 0.46354 0.0
C431 C 0.79553 0.39478 0.42912 0.0
N432 N 0.76965 0.39222 0.42621 0.0
C433 C 0.77007 0.36642 0.39181 0.0
C434 C 0.79674 0.36891 0.39435 0.0
C435 C 0.80951 0.38313 0.4131 0.0
C436 C 0.75718 0.37863 0.40819 0.0
H437 H 0.80543 0.40558 0.44358 0.0
C438 C 0.78299 0.42842 0.48559 0.0
O439 O 0.74936 0.37688 0.53997 0.0
O440 O 0.77313 0.36014 0.51497 0.0
N441 N 0.72004 0.38743 0.4248 0.0
C442 C 0.69419 0.38553 0.42582 0.0
C443 C 0.67855 0.3713 0.40875 0.0
C444 C 0.68963 0.35922 0.3908 0.0
C445 C 0.71628 0.36151 0.39006 0.0
C446 C 0.7309 0.37615 0.40739 0.0
H447 H 0.68556 0.3947 0.43962 0.0
O448 O 0.72273 0.35117 0.49554 0.0
O449 O 0.74586 0.3772 0.46911 0.0
O450 O 0.71884 0.40399 0.50057 0.0
O451 O 0.72029 0.42133 0.46194 0.0
C452 C 0.72888 0.3494 0.37313 0.0
C453 C 0.75575 0.35183 0.37402 0.0
H454 H 0.80757 0.35979 0.38216 0.0
H455 H 0.83007 0.38503 0.41526 0.0
H456 H 0.658 0.36955 0.4095 0.0
H457 H 0.6775 0.34803 0.37784 0.0
H458 H 0.71807 0.33784 0.35961 0.0
H459 H 0.7652 0.3421 0.36117 0.0
Mn460 Mn 0.65481 0.9982 0.77009 0.0
Mn461 Mn 0.64272 0.05865 0.76854 0.0
C462 C 0.68273 0.03112 0.75179 0.0
C463 C 0.67403 0.96464 0.7883 0.0
C464 C 0.61605 0.02002 0.73431 0.0
O465 O 0.62859 0.99612 0.79693 0.0
O466 O 0.62189 0.03704 0.79367 0.0
C467 C 0.66459 0.07117 0.81782 0.0
N468 N 0.6639 0.0763 0.793 0.0
C469 C 0.69677 0.11257 0.7961 0.0
C470 C 0.69771 0.10776 0.82171 0.0
C471 C 0.68159 0.08695 0.83261 0.0
C472 C 0.67939 0.09624 0.78232 0.0
H473 H 0.6523 0.05514 0.82628 0.0
C474 C 0.61762 0.01425 0.8033 0.0
O475 O 0.65496 0.96069 0.7726 0.0
O476 O 0.68087 0.98779 0.79443 0.0
N477 N 0.66176 0.08176 0.74517 0.0
C478 C 0.65919 0.08318 0.72015 0.0
C479 C 0.67432 0.1027 0.7064 0.0
C480 C 0.69176 0.12065 0.71849 0.0
C481 C 0.69381 0.11901 0.74425 0.0
C482 C 0.67809 0.09926 0.757 0.0
H483 H 0.64581 0.06943 0.71076 0.0
O484 O 0.68224 0.00806 0.74555 0.0
O485 O 0.66671 0.03428 0.76826 0.0
O486 O 0.62696 1.00143 0.74303 0.0
O487 O 0.62072 0.04217 0.74246 0.0
C488 C 0.71116 0.13592 0.75777 0.0
C489 C 0.71268 0.13266 0.78367 0.0
H490 H 0.71087 0.11982 0.83317 0.0
H491 H 0.68229 0.08304 0.85235 0.0
H492 H 0.67261 0.10384 0.68652 0.0
H493 H 0.70359 0.13551 0.70781 0.0
H494 H 0.72367 0.15127 0.74841 0.0
H495 H 0.72633 0.14558 0.79384 0.0
Mn496 Mn 0.0211 0.27287 0.8879 0.0
Mn497 Mn 0.95999 0.26167 0.9058 0.0
C498 C 0.98971 0.25018 0.86413 0.0
C499 C 0.05507 0.29515 0.86594 0.0
C500 C 1.00093 0.23279 0.92822 0.0
O501 O 0.02074 0.29974 0.91295 0.0
O502 O 0.97928 0.29069 0.92289 0.0
C503 C 0.94333 0.30928 0.88457 0.0
N504 N 0.94051 0.28342 0.88625 0.0
C505 C 0.90487 0.2806 0.85726 0.0
C506 C 0.90731 0.3072 0.85534 0.0
C507 C 0.92664 0.32159 0.86903 0.0
C508 C 0.92193 0.26938 0.87319 0.0
H509 H 0.95824 0.32044 0.89495 0.0
C510 C 1.00156 0.30391 0.92474 0.0
O511 O 0.05869 0.27999 0.88498 0.0
O512 O 0.03181 0.29919 0.86101 0.0
N513 N 0.93932 0.23435 0.89008 0.0
C514 C 0.94043 0.20897 0.89296 0.0
C515 C 0.92283 0.19196 0.87995 0.0
C516 C 0.90424 0.20119 0.86421 0.0
C517 C 0.90334 0.22736 0.86169 0.0
C518 C 0.92123 0.24339 0.87529 0.0
H519 H 0.95476 0.20177 0.90493 0.0
O520 O 0.01337 0.24718 0.86258 0.0
O521 O 0.9851 0.26598 0.87983 0.0
O522 O 0.01883 0.24455 0.91509 0.0
O523 O 0.97814 0.23781 0.9267 0.0
C524 C 0.88574 0.23822 0.84584 0.0
C525 C 0.88651 0.26482 0.84361 0.0
H526 H 0.89459 0.31677 0.84325 0.0
H527 H 0.92873 0.34213 0.86756 0.0
H528 H 0.92368 0.17179 0.88196 0.0
H529 H 0.89088 0.18804 0.85401 0.0
H530 H 0.87177 0.22631 0.835 0.0
H531 H 0.8731 0.27296 0.83111 0.0
Mn532 Mn 0.51851 0.77264 0.38653 0.0
Mn533 Mn 0.45664 0.76188 0.40203 0.0
C534 C 0.48811 0.75019 0.36165 0.0
C535 C 0.55339 0.79497 0.36599 0.0
C536 C 0.49653 0.73261 0.42611 0.0
O537 O 0.51726 0.79936 0.41145 0.0
O538 O 0.47532 0.79087 0.41963 0.0
C539 C 0.44101 0.80958 0.37982 0.0
N540 N 0.43804 0.78372 0.38159 0.0
C541 C 0.4037 0.78105 0.35115 0.0
C542 C 0.40631 0.80765 0.34913 0.0
C543 C 0.42505 0.82197 0.36352 0.0
C544 C 0.41999 0.76975 0.36788 0.0
H545 H 0.45549 0.82069 0.39072 0.0
C546 C 0.49763 0.80382 0.42233 0.0
O547 O 0.55623 0.77962 0.38509 0.0
O548 O 0.53033 0.79908 0.36014 0.0
N549 N 0.43652 0.73461 0.38576 0.0
C550 C 0.43741 0.7092 0.3889 0.0
C551 C 0.42032 0.69225 0.37534 0.0
C552 C 0.40247 0.70157 0.35876 0.0
C553 C 0.40179 0.72777 0.35597 0.0
C554 C 0.41911 0.74374 0.37018 0.0
H555 H 0.45119 0.70193 0.40151 0.0
O556 O 0.51184 0.74713 0.36102 0.0
O557 O 0.48282 0.76599 0.37706 0.0
O558 O 0.515 0.74416 0.41358 0.0
O559 O 0.47387 0.73792 0.42377 0.0
C560 C 0.38499 0.73872 0.33926 0.0
C561 C 0.38595 0.76533 0.33684 0.0
H562 H 0.39418 0.81729 0.33643 0.0
H563 H 0.42726 0.84252 0.36197 0.0
H564 H 0.42101 0.67205 0.37756 0.0
H565 H 0.38953 0.68846 0.34813 0.0
H566 H 0.37149 0.72686 0.32792 0.0
H567 H 0.37317 0.77354 0.32369 0.0
Mn568 Mn 0.01854 0.74921 0.64292 0.0
Mn569 Mn 0.98907 0.69127 0.66365 0.0
C570 C 0.01934 0.7142 0.62042 0.0
C571 C 0.01986 0.78876 0.62155 0.0
C572 C 0.03976 0.71599 0.68462 0.0
O573 O 0.99449 0.75781 0.66822 0.0
O574 O 0.97521 0.71832 0.67983 0.0
C575 C 0.93738 0.69497 0.64243 0.0
N576 N 0.95812 0.6827 0.64481 0.0
C577 C 0.93836 0.65054 0.61836 0.0
C578 C 0.91672 0.66274 0.61575 0.0
C579 C 0.91627 0.68508 0.6278 0.0
C580 C 0.95879 0.66124 0.63324 0.0
H581 H 0.93698 0.71218 0.6516 0.0
C582 C 0.97822 0.74255 0.68083 0.0
O583 O 0.03582 0.78479 0.63951 0.0
O584 O 1.0024 0.76982 0.6163 0.0
N585 N 1.00029 0.66328 0.64942 0.0
C586 C 0.02299 0.6544 0.65305 0.0
C587 C 0.0267 0.63235 0.64196 0.0
C588 C 0.00701 0.61955 0.62742 0.0
C589 C 0.98372 0.62888 0.62419 0.0
C590 C 0.98103 0.65081 0.63588 0.0
H591 H 0.03819 0.66414 0.66421 0.0
O592 O 0.0367 0.73408 0.61753 0.0
O593 O 1.00206 0.71536 0.63637 0.0
O594 O 0.04128 0.73597 0.67025 0.0
O595 O 0.02099 0.6979 0.68396 0.0
C596 C 0.96323 0.61755 0.60945 0.0
C597 C 0.9406 0.62842 0.60647 0.0
H598 H 0.90044 0.65524 0.6044 0.0
H599 H 0.89969 0.69467 0.62578 0.0
H600 H 0.04474 0.62528 0.64453 0.0
H601 H 0.01005 0.60271 0.61867 0.0
H602 H 0.96482 0.60068 0.60003 0.0
H603 H 0.92513 0.61974 0.59481 0.0
Mn604 Mn 0.5181 0.25317 0.14365 0.0
Mn605 Mn 0.48772 0.19599 0.16538 0.0
C606 C 0.5189 0.21747 0.12221 0.0
C607 C 0.51997 0.29217 0.12117 0.0
C608 C 0.53856 0.22051 0.18626 0.0
O609 O 0.49401 0.2628 0.16833 0.0
O610 O 0.47419 0.22378 0.18072 0.0
C611 C 0.43641 0.20012 0.14344 0.0
N612 N 0.45687 0.18749 0.14639 0.0
C613 C 0.43689 0.15498 0.12041 0.0
C614 C 0.41554 0.16756 0.11722 0.0
C615 C 0.41534 0.19025 0.12875 0.0
C616 C 0.4573 0.16568 0.13532 0.0
H617 H 0.43621 0.21761 0.15219 0.0
C618 C 0.47751 0.24807 0.18114 0.0
O619 O 0.53572 0.2886 0.13944 0.0
O620 O 0.50239 0.2732 0.11631 0.0
N621 N 0.49855 0.16731 0.15204 0.0
C622 C 0.52097 0.15801 0.15627 0.0
C623 C 0.52439 0.13553 0.14578 0.0
C624 C 0.5047 0.12275 0.13123 0.0
C625 C 0.48169 0.13251 0.12741 0.0
C626 C 0.47927 0.15485 0.13853 0.0
H627 H 0.53618 0.16774 0.16743 0.0
O628 O 0.5364 0.23717 0.11905 0.0
O629 O 0.50138 0.21922 0.13774 0.0
O630 O 0.54044 0.24028 0.17158 0.0
O631 O 0.51956 0.20263 0.18578 0.0
C632 C 0.46123 0.12121 0.11262 0.0
C633 C 0.43889 0.13248 0.10905 0.0
H634 H 0.39929 0.16008 0.10582 0.0
H635 H 0.39898 0.20014 0.12628 0.0
H636 H 0.54222 0.12813 0.14882 0.0
H637 H 0.50753 0.10559 0.12294 0.0
H638 H 0.46263 0.10404 0.10362 0.0
H639 H 0.42343 0.12379 0.09739 0.0
H640 H 0.23227 0.72688 0.89092 0.0
H641 H 0.18532 0.83849 0.95278 0.0
H642 H 0.1874 0.77507 0.84623 0.0
H643 H 0.26607 0.8365 0.95041 0.0
H644 H 0.17769 0.80539 0.92262 0.0
H645 H 0.23739 0.75798 0.92223 0.0
C646 C 0.22346 0.74382 0.88749 0.0
C647 C 0.20946 0.74812 0.86549 0.0
C648 C 0.197 0.81224 0.92891 0.0
C649 C 0.21423 0.78299 0.90212 0.0
C650 C 0.20132 0.83098 0.94595 0.0
C651 C 0.22635 0.8405 0.95338 0.0
C652 C 0.2178 0.80235 0.92037 0.0
C653 C 0.24654 0.82992 0.94457 0.0
C654 C 0.22622 0.76138 0.90557 0.0
C655 C 0.19789 0.77031 0.86288 0.0
N656 N 0.24185 0.81128 0.92857 0.0
N657 N 0.2004 0.7868 0.88103 0.0
H658 H 0.05972 0.57613 0.42862 0.0
H659 H 0.09508 0.48654 0.32703 0.0
H660 H 0.01009 0.50795 0.40982 0.0
H661 H 0.12866 0.56486 0.33373 0.0
H662 H 0.06873 0.48944 0.36265 0.0
H663 H 0.09075 0.56716 0.3997 0.0
C664 C 0.05552 0.55915 0.41848 0.0
C665 C 0.03216 0.54309 0.42104 0.0
C666 C 0.08209 0.50584 0.35635 0.0
C667 C 0.06745 0.53259 0.38799 0.0
C668 C 0.09715 0.50418 0.33612 0.0
C669 C 0.11393 0.52555 0.32721 0.0
C670 C 0.08427 0.52888 0.36789 0.0
C671 C 0.11583 0.54795 0.3397 0.0
C672 C 0.07314 0.55404 0.40196 0.0
C673 C 0.02776 0.52103 0.40792 0.0
N674 N 0.10122 0.549 0.35927 0.0
N675 N 0.04513 0.51653 0.39169 0.0
H676 H 0.77662 0.79318 0.87687 0.0
H677 H 0.83232 0.6872 0.95923 0.0
H678 H 0.8572 0.78917 0.87382 0.0
H679 H 0.77155 0.72493 0.98136 0.0
H680 H 0.84299 0.72182 0.92699 0.0
H681 H 0.77434 0.7648 0.91357 0.0
C682 C 0.79402 0.78677 0.88405 0.0
C683 C 0.81727 0.79416 0.8722 0.0
C684 C 0.82775 0.72271 0.93937 0.0
C685 C 0.81441 0.76046 0.9142 0.0
C686 C 0.82182 0.70313 0.9578 0.0
C687 C 0.80093 0.70325 0.97273 0.0
C688 C 0.81241 0.74204 0.93594 0.0
C689 C 0.78764 0.72406 0.97 0.0
C690 C 0.79262 0.77031 0.90503 0.0
C691 C 0.83879 0.78397 0.8821 0.0
N692 N 0.79332 0.74235 0.95175 0.0
N693 N 0.83682 0.76745 0.90245 0.0
H694 H 0.99909 0.04086 0.43479 0.0
H695 H 0.95305 0.96883 0.31336 0.0
H696 H 0.99935 0.96103 0.42727 0.0
H697 H 0.93376 0.04261 0.3255 0.0
H698 H 0.97586 0.9687 0.35283 0.0
H699 H 0.97989 0.04436 0.39309 0.0
C700 C 0.99528 0.02415 0.42425 0.0
C701 C 1.00126 1.00072 0.43422 0.0
C702 C 0.96675 0.98499 0.34688 0.0
C703 C 0.97932 0.00454 0.3868 0.0
C704 C 0.95374 0.98516 0.32421 0.0
C705 C 0.94115 0.00568 0.31608 0.0
C706 C 0.96735 0.00548 0.36174 0.0
C707 C 0.94308 0.02636 0.33102 0.0
C708 C 0.98431 0.02615 0.40055 0.0
C709 C 0.99549 0.97953 0.42007 0.0
N710 N 0.9558 0.02567 0.35324 0.0
N711 N 0.98499 0.98199 0.39707 0.0
H712 H 0.21906 0.24569 0.67273 0.0
H713 H 0.22912 0.21786 0.53197 0.0
H714 H 0.19954 0.29589 0.61187 0.0
H715 H 0.26667 0.17765 0.59064 0.0
H716 H 0.21762 0.24601 0.56147 0.0
H717 H 0.23614 0.2199 0.64367 0.0
C718 C 0.21879 0.25151 0.6533 0.0
C719 C 0.20841 0.27329 0.64471 0.0
C720 C 0.22853 0.23117 0.56794 0.0
C721 C 0.22718 0.24354 0.61137 0.0
C722 C 0.23507 0.215 0.55108 0.0
C723 C 0.24884 0.19525 0.55881 0.0
C724 C 0.23545 0.22749 0.59292 0.0
C725 C 0.25612 0.19266 0.58384 0.0
C726 C 0.22846 0.23677 0.63673 0.0
C727 C 0.2078 0.27953 0.61929 0.0
N728 N 0.24912 0.20844 0.60006 0.0
N729 N 0.21696 0.26472 0.60356 0.0
H730 H 0.51502 0.58584 0.60455 0.0
H731 H 0.44534 0.47568 0.69664 0.0
H732 H 0.5084 0.50601 0.59234 0.0
H733 H 0.44154 0.55545 0.7014 0.0
H734 H 0.47206 0.48639 0.66083 0.0
H735 H 0.49153 0.57492 0.6423 0.0
C736 C 0.50855 0.566 0.60974 0.0
C737 C 0.51352 0.54684 0.59505 0.0
C738 C 0.46544 0.50154 0.66978 0.0
C739 C 0.48684 0.53417 0.6386 0.0
C740 C 0.45023 0.49546 0.69031 0.0
C741 C 0.44103 0.51467 0.70208 0.0
C742 C 0.47165 0.52703 0.66098 0.0
C743 C 0.44803 0.53996 0.69291 0.0
C744 C 0.49524 0.55978 0.6314 0.0
C745 C 0.50518 0.52142 0.60312 0.0
N746 N 0.46287 0.54537 0.67292 0.0
N747 N 0.49218 0.51584 0.62429 0.0
H748 H 0.84446 0.26256 0.63634 0.0
H749 H 0.75339 0.36187 0.5851 0.0
H750 H 0.78213 0.28135 0.67623 0.0
H751 H 0.80256 0.33054 0.53823 0.0
H752 H 0.76753 0.33581 0.6199 0.0
H753 H 0.83266 0.29015 0.60118 0.0
C754 C 0.82808 0.27222 0.63755 0.0
C755 C 0.8137 0.26909 0.65891 0.0
C756 C 0.7753 0.33465 0.60204 0.0
C757 C 0.80071 0.30124 0.61922 0.0
C758 C 0.76732 0.34963 0.58215 0.0
C759 C 0.77673 0.34829 0.55869 0.0
C760 C 0.79293 0.31824 0.59855 0.0
C761 C 0.79478 0.33209 0.556 0.0
C762 C 0.82146 0.28804 0.61756 0.0
C763 C 0.79329 0.28277 0.65986 0.0
N764 N 0.80227 0.31762 0.57572 0.0
N765 N 0.78737 0.29819 0.64031 0.0
H766 H 0.51377 0.95982 0.61634 0.0
H767 H 0.59219 0.0559 0.70832 0.0
H768 H 0.51853 0.04143 0.60745 0.0
H769 H 0.59746 0.97575 0.71193 0.0
H770 H 0.56268 0.05013 0.67315 0.0
H771 H 0.54208 0.9646 0.65282 0.0
C772 C 0.5208 0.97875 0.62197 0.0
C773 C 0.51374 1.00027 0.60865 0.0
C774 C 0.57024 0.03377 0.68161 0.0
C775 C 0.54595 0.0058 0.6507 0.0
C776 C 0.58711 0.03701 0.70182 0.0
C777 C 0.59747 0.01627 0.71322 0.0
C778 C 0.56345 0.00958 0.6726 0.0
C779 C 0.59006 0.99231 0.70376 0.0
C780 C 0.53689 0.98144 0.64289 0.0
C781 C 0.52312 0.02426 0.61721 0.0
N782 N 0.57351 0.98963 0.684 0.0
N783 N 0.53872 0.02635 0.63761 0.0
H784 H 0.89359 0.17104 0.75248 0.0
H785 H 0.96248 0.28063 0.83613 0.0
H786 H 0.87741 0.24809 0.74766 0.0
H787 H 0.97729 0.20338 0.84547 0.0
H788 H 0.93253 0.26895 0.80221 0.0
H789 H 0.92537 0.18222 0.78541 0.0
C790 C 0.89677 0.1903 0.75827 0.0
C791 C 0.88291 0.20869 0.74715 0.0
C792 C 0.94218 0.25443 0.81165 0.0
C793 C 0.91923 0.22159 0.78467 0.0
C794 C 0.9591 0.26107 0.83111 0.0
C795 C 0.97148 0.24267 0.84403 0.0
C796 C 0.93784 0.22919 0.80484 0.0
C797 C 0.9675 0.21789 0.83622 0.0
C798 C 0.91494 0.19667 0.77701 0.0
C799 C 0.88795 0.23339 0.75529 0.0
N800 N 0.95075 0.21175 0.8172 0.0
N801 N 0.90562 0.23906 0.77354 0.0
H802 H 0.54557 0.94299 0.49786 0.0
H803 H 0.46005 0.81886 0.44806 0.0
H804 H 0.46351 0.92754 0.50039 0.0
H805 H 0.53997 0.8395 0.43214 0.0
H806 H 0.46241 0.8565 0.47101 0.0
H807 H 0.54513 0.90357 0.47703 0.0
C808 C 0.52749 0.93115 0.49423 0.0
C809 C 0.50457 0.93822 0.5013 0.0
C810 C 0.47949 0.85284 0.46258 0.0
C811 C 0.50388 0.89334 0.47733 0.0
C812 C 0.47822 0.8312 0.44946 0.0
C813 C 0.49985 0.82589 0.43793 0.0
C814 C 0.50256 0.86952 0.46439 0.0
C815 C 0.52279 0.84276 0.44064 0.0
C816 C 0.52725 0.90873 0.48229 0.0
C817 C 0.48163 0.92252 0.49568 0.0
N818 N 0.52352 0.86387 0.45353 0.0
N819 N 0.48189 0.90081 0.48416 0.0
H820 H 0.14466 0.35197 0.73818 0.0
H821 H 0.10216 0.28054 0.86653 0.0
H822 H 0.17193 0.28348 0.7671 0.0
H823 H 0.05415 0.32705 0.8242 0.0
H824 H 0.13231 0.28713 0.8332 0.0
H825 H 0.11459 0.34755 0.77181 0.0
C826 C 0.14405 0.33585 0.75149 0.0
C827 C 0.1606 0.31794 0.74986 0.0
C828 C 0.11527 0.29605 0.8313 0.0
C829 C 0.12692 0.31318 0.78859 0.0
C830 C 0.09817 0.29256 0.85043 0.0
C831 C 0.07552 0.30321 0.84813 0.0
C832 C 0.1099 0.31055 0.8098 0.0
C833 C 0.07136 0.31848 0.82675 0.0
C834 C 0.127 0.33339 0.77066 0.0
C835 C 0.15925 0.29749 0.76759 0.0
N836 N 0.08837 0.32166 0.80835 0.0
N837 N 0.14288 0.2958 0.78638 0.0
H838 H 0.53495 0.58854 0.48335 0.0
H839 H 0.47301 0.71448 0.46923 0.0
H840 H 0.51943 0.62595 0.54769 0.0
H841 H 0.53113 0.70095 0.42082 0.0
H842 H 0.48188 0.67757 0.49611 0.0
H843 H 0.52588 0.62557 0.45768 0.0
C844 C 0.52984 0.60448 0.49222 0.0
C845 C 0.52819 0.60394 0.51793 0.0
C846 C 0.49266 0.68285 0.4796 0.0
C847 C 0.51677 0.64603 0.4883 0.0
C848 C 0.48758 0.70376 0.46428 0.0
C849 C 0.50151 0.71085 0.44291 0.0
C850 C 0.5112 0.66862 0.47303 0.0
C851 C 0.52016 0.69631 0.43728 0.0
C852 C 0.52446 0.62553 0.47745 0.0
C853 C 0.52059 0.6251 0.52802 0.0
N854 N 0.52429 0.67574 0.45211 0.0
N855 N 0.51501 0.6452 0.51317 0.0
H856 H 0.87433 0.83336 0.73748 0.0
H857 H 0.94788 0.71708 0.71671 0.0
H858 H 0.8612 0.76117 0.77915 0.0
H859 H 0.96883 0.7919 0.68118 0.0
H860 H 0.91698 0.73353 0.74049 0.0
H861 H 0.9099 0.81935 0.71744 0.0
C862 C 0.87905 0.81458 0.7424 0.0
C863 C 0.86461 0.79817 0.75956 0.0
C864 C 0.92843 0.74644 0.72763 0.0
C865 C 0.90515 0.78204 0.73695 0.0
C866 C 0.94611 0.73704 0.71397 0.0
C867 C 0.96095 0.75308 0.69675 0.0
C868 C 0.92525 0.77208 0.72398 0.0
C869 C 0.95783 0.77882 0.69422 0.0
C870 C 0.89932 0.80661 0.73103 0.0
C871 C 0.87164 0.7742 0.76568 0.0
N872 N 0.94017 0.78747 0.70753 0.0
N873 N 0.89125 0.76677 0.75423 0.0
H874 H 0.08894 0.92161 0.53828 0.0
H875 H 0.98631 0.80709 0.58734 0.0
H876 H 0.00836 0.92625 0.53023 0.0
H877 H 0.06072 0.8263 0.62213 0.0
H878 H 0.99388 0.84737 0.56183 0.0
H879 H 0.07897 0.88295 0.56456 0.0
C880 C 0.06914 0.91479 0.54222 0.0
C881 C 0.04953 0.92768 0.5322 0.0
C882 C 0.00839 0.84271 0.57521 0.0
C883 C 0.03797 0.88255 0.56179 0.0
C884 C 1.00413 0.81979 0.58969 0.0
C885 C 0.02292 0.81335 0.60686 0.0
C886 C 0.03179 0.85888 0.57764 0.0
C887 C 0.04566 0.83047 0.60919 0.0
C888 C 0.06348 0.89251 0.55712 0.0
C889 C 0.02416 0.917 0.53733 0.0
N890 N 0.04954 0.85228 0.59459 0.0
N891 N 0.01909 0.89499 0.5517 0.0
H892 H 0.16566 0.75319 0.78726 0.0
H893 H 0.05075 0.67385 0.71292 0.0
H894 H 0.15486 0.67132 0.78873 0.0
H895 H 0.07696 0.75407 0.69846 0.0
H896 H 0.08611 0.6721 0.74323 0.0
H897 H 0.13029 0.75348 0.75731 0.0
C898 C 0.15571 0.73524 0.78135 0.0
C899 C 0.16312 0.71219 0.79058 0.0
C900 C 0.08407 0.69002 0.73333 0.0
C901 C 0.12258 0.71235 0.75609 0.0
C902 C 0.06386 0.69107 0.71611 0.0
C903 C 0.06084 0.71414 0.70307 0.0
C904 C 0.10113 0.71225 0.73773 0.0
C905 C 0.0785 0.73582 0.70793 0.0
C906 C 0.13561 0.73541 0.76412 0.0
C907 C 0.14981 0.6895 0.78196 0.0
N908 N 0.09774 0.73434 0.72489 0.0
N909 N 0.13005 0.69013 0.76527 0.0
H910 H 0.95426 0.60343 0.51941 0.0
H911 H 0.0549 0.68626 0.60669 0.0
H912 H 0.03131 0.58831 0.53362 0.0
H913 H 0.97734 0.69905 0.5923 0.0
H914 H 0.04809 0.65224 0.57781 0.0
H915 H 0.96337 0.63977 0.54466 0.0
C916 C 0.97309 0.60765 0.52796 0.0
C917 C 0.99196 0.59256 0.52454 0.0
C918 C 0.03259 0.66253 0.58092 0.0
C919 C 1.00275 0.63472 0.5532 0.0
C920 C 0.03648 0.68187 0.59735 0.0
C921 C 0.01629 0.69457 0.60247 0.0
C922 C 0.00848 0.65638 0.56926 0.0
C923 C 0.99304 0.68891 0.58947 0.0
C924 C 0.97836 0.6286 0.54222 0.0
C925 C 0.01621 0.59946 0.53562 0.0
N926 N 0.98967 0.67007 0.57364 0.0
N927 N 0.02089 0.61997 0.54955 0.0
H928 H 0.74065 0.86819 0.25992 0.0
H929 H 0.83806 0.97931 0.19365 0.0
H930 H 0.74517 0.8779 0.18088 0.0
H931 H 0.82878 0.96697 0.27189 0.0
H932 H 0.80217 0.94473 0.1873 0.0
H933 H 0.77165 0.90619 0.2636 0.0
C934 C 0.748 0.87852 0.24326 0.0
C935 C 0.74 0.87004 0.22004 0.0
C936 C 0.8079 0.94978 0.20581 0.0
C937 C 0.7761 0.91374 0.22412 0.0
C938 C 0.82827 0.96942 0.20939 0.0
C939 C 0.83671 0.97512 0.23332 0.0
C940 C 0.79592 0.93635 0.22639 0.0
C941 C 0.82325 0.96244 0.25318 0.0
C942 C 0.76583 0.90026 0.24537 0.0
C943 C 0.75084 0.88381 0.19914 0.0
N944 N 0.8037 0.94351 0.24929 0.0
N945 N 0.7684 0.90507 0.20166 0.0
H946 H 0.81369 0.19734 0.2958 0.0
H947 H 0.82519 0.04921 0.30006 0.0
H948 H 0.75021 0.1376 0.30914 0.0
H949 H 0.88167 0.108 0.26803 0.0
H950 H 0.80007 0.08173 0.30985 0.0
H951 H 0.84122 0.16514 0.29146 0.0
C952 C 0.80567 0.17742 0.2982 0.0
C953 C 0.7798 0.17015 0.30343 0.0
C954 C 0.81804 0.08752 0.30082 0.0
C955 C 0.81103 0.1332 0.29812 0.0
C956 C 0.83248 0.06898 0.29534 0.0
C957 C 0.85553 0.07589 0.28309 0.0
C958 C 0.82678 0.1132 0.29418 0.0
C959 C 0.86397 0.10181 0.27739 0.0
C960 C 0.82134 0.15908 0.29561 0.0
C961 C 0.77017 0.14408 0.30568 0.0
N962 N 0.84956 0.11952 0.28292 0.0
N963 N 0.78581 0.12656 0.30311 0.0
H964 H 0.434 0.0241 0.95372 0.0
H965 H 0.31802 0.94007 0.02484 0.0
H966 H 0.43143 0.01569 0.03291 0.0
H967 H 0.31689 0.95987 0.94662 0.0
H968 H 0.35953 0.96712 0.02859 0.0
H969 H 0.39136 0.9994 0.95106 0.0
C970 C 0.4245 0.0169 0.97057 0.0
C971 C 0.43634 0.02185 0.99357 0.0
C972 C 0.35006 0.96564 0.01066 0.0
C973 C 0.38731 0.99371 0.99069 0.0
C974 C 0.32633 0.95023 0.0085 0.0
C975 C 0.31387 0.94755 0.98536 0.0
C976 C 0.36151 0.97833 0.98954 0.0
C977 C 0.32567 0.96123 0.96486 0.0
C978 C 0.40006 0.00297 0.96905 0.0
C979 C 0.42293 0.01244 0.0148 0.0
N980 N 0.34883 0.97584 0.96742 0.0
N981 N 0.39916 0.99871 0.01286 0.0
H982 H 0.24595 0.33117 0.32732 0.0
H983 H 0.2225 0.47583 0.31854 0.0
H984 H 0.30631 0.39523 0.32188 0.0
H985 H 0.16677 0.41649 0.28987 0.0
H986 H 0.25074 0.44464 0.32967 0.0
H987 H 0.21436 0.36065 0.32258 0.0
C988 C 0.2525 0.35145 0.3254 0.0
C989 C 0.27871 0.36087 0.32491 0.0
C990 C 0.23223 0.43839 0.32117 0.0
C991 C 0.24292 0.39447 0.3198 0.0
C992 C 0.21598 0.45615 0.31492 0.0
C993 C 0.19225 0.44883 0.30303 0.0
C994 C 0.22472 0.41297 0.31577 0.0
C995 C 0.18492 0.42299 0.2989 0.0
C996 C 0.23453 0.36818 0.32258 0.0
C997 C 0.28627 0.38724 0.3222 0.0
N998 N 0.20117 0.40595 0.30516 0.0
N999 N 0.26848 0.40311 0.31985 0.0
H1000 H 0.11962 0.0085 0.46915 0.0
H1001 H 0.23738 0.08016 0.48956 0.0
H1002 H 0.10894 0.00809 0.54719 0.0
H1003 H 0.20975 0.09289 0.56005 0.0
H1004 H 0.20066 0.04756 0.48359 0.0
H1005 H 0.16059 0.03497 0.47409 0.0
C1006 C 0.12599 0.014 0.4874 0.0
C1007 C 0.11074 0.00614 0.50775 0.0
C1008 C 0.20206 0.05765 0.5002 0.0
C1009 C 0.15859 0.03599 0.51393 0.0
C1010 C 0.22324 0.07615 0.50366 0.0
C1011 C 0.22584 0.08978 0.52482 0.0
C1012 C 0.1831 0.05305 0.51796 0.0
C1013 C 0.20784 0.08318 0.54314 0.0
C1014 C 0.14978 0.02883 0.49036 0.0
C1015 C 0.12017 0.01357 0.53101 0.0
N1016 N 0.18692 0.06553 0.53911 0.0
N1017 N 0.1434 0.02824 0.53343 0.0
H1018 H 0.79727 0.14367 0.68157 0.0
H1019 H 0.71456 0.05695 0.78421 0.0
H1020 H 0.80492 0.15416 0.75947 0.0
H1021 H 0.70196 0.04761 0.70663 0.0
H1022 H 0.75055 0.09026 0.7752 0.0
H1023 H 0.76428 0.10687 0.68993 0.0
C1024 C 0.79206 0.13823 0.70042 0.0
C1025 C 0.80402 0.15196 0.71986 0.0
C1026 C 0.74001 0.08101 0.76006 0.0
C1027 C 0.76653 0.10979 0.72954 0.0
C1028 C 0.71941 0.06212 0.76522 0.0
C1029 C 0.70486 0.05043 0.74603 0.0
C1030 C 0.74615 0.08817 0.73549 0.0
C1031 C 0.71245 0.05683 0.72182 0.0
C1032 C 0.77334 0.11715 0.70517 0.0
C1033 C 0.79664 0.14391 0.74392 0.0
N1034 N 0.73243 0.07563 0.71715 0.0
N1035 N 0.77839 0.12343 0.74804 0.0
H1036 H 0.46517 0.06214 0.56934 0.0
H1037 H 0.32981 0.07704 0.50458 0.0
H1038 H 0.41605 1.00089 0.53566 0.0
H1039 H 0.36621 0.12809 0.55787 0.0
H1040 H 0.36447 0.05183 0.51115 0.0
H1041 H 0.43198 0.089 0.56127 0.0
C1042 C 0.44743 0.05421 0.56037 0.0
C1043 C 0.44355 0.029 0.55329 0.0
C1044 C 0.36494 0.06859 0.52136 0.0
C1045 C 0.40562 0.0601 0.54347 0.0
C1046 C 0.34521 0.0831 0.51753 0.0
C1047 C 0.34504 0.10472 0.53074 0.0
C1048 C 0.3849 0.0758 0.53836 0.0
C1049 C 0.36552 0.11154 0.54733 0.0
C1050 C 0.42854 0.06968 0.55565 0.0
C1051 C 0.42027 0.02021 0.54117 0.0
N1052 N 0.38464 0.09715 0.55066 0.0
N1053 N 0.40228 0.03571 0.53663 0.0
H1054 H 0.594 0.51665 0.47729 0.0
H1055 H 0.68691 0.41808 0.52693 0.0
H1056 H 0.59079 0.47871 0.54976 0.0
H1057 H 0.68793 0.4521 0.45262 0.0
H1058 H 0.65295 0.44158 0.5359 0.0
H1059 H 0.62977 0.49494 0.46832 0.0
C1060 C 0.6009 0.50373 0.49129 0.0
C1061 C 0.5893 0.4991 0.51416 0.0
C1062 C 0.66058 0.44395 0.51763 0.0
C1063 C 0.63019 0.47436 0.50417 0.0
C1064 C 0.68004 0.4305 0.51244 0.0
C1065 C 0.69039 0.43302 0.48891 0.0
C1066 C 0.65126 0.46017 0.49923 0.0
C1067 C 0.68059 0.4495 0.471 0.0
C1068 C 0.62127 0.49134 0.48619 0.0
C1069 C 0.59911 0.48251 0.53182 0.0
N1070 N 0.66157 0.46243 0.47653 0.0
N1071 N 0.61891 0.47065 0.52643 0.0
H1072 H 0.75273 0.25809 0.36059 0.0
H1073 H 0.68422 0.32912 0.45768 0.0
H1074 H 0.67207 0.2409 0.3739 0.0
H1075 H 0.76554 0.33875 0.449 0.0
H1076 H 0.67879 0.29675 0.42706 0.0
H1077 H 0.75742 0.2881 0.3928 0.0
C1078 C 0.73604 0.26041 0.37047 0.0
C1079 C 0.71199 0.24686 0.36455 0.0
C1080 C 0.69781 0.30595 0.43188 0.0
C1081 C 0.71716 0.28146 0.40141 0.0
C1082 C 0.70085 0.32436 0.44926 0.0
C1083 C 0.72525 0.33706 0.45505 0.0
C1084 C 0.71942 0.30005 0.42068 0.0
C1085 C 0.74634 0.32991 0.44429 0.0
C1086 C 0.7387 0.27767 0.3888 0.0
C1087 C 0.69094 0.25111 0.37767 0.0
N1088 N 0.74294 0.31203 0.42749 0.0
N1089 N 0.694 0.26805 0.39546 0.0
H1090 H 0.50441 0.04574 0.89858 0.0
H1091 H 0.62597 0.99417 0.84995 0.0
H1092 H 0.57156 0.0377 0.94389 0.0
H1093 H 0.57004 0.02646 0.80339 0.0
H1094 H 0.60064 0.99813 0.88596 0.0
H1095 H 0.52281 0.02687 0.86522 0.0
C1096 C 0.52288 0.03962 0.9016 0.0
C1097 C 0.53665 0.04348 0.92387 0.0
C1098 C 0.59364 0.00375 0.86777 0.0
C1099 C 0.55787 0.02198 0.8858 0.0
C1100 C 0.60791 1.00123 0.84727 0.0
C1101 C 0.59994 0.00997 0.8238 0.0
C1102 C 0.57123 0.01481 0.86457 0.0
C1103 C 0.57674 0.0195 0.82124 0.0
C1104 C 0.5334 0.02889 0.88257 0.0
C1105 C 0.56046 0.03511 0.92689 0.0
N1106 N 0.56328 0.02182 0.84138 0.0
N1107 N 0.57048 0.02496 0.90796 0.0
H1108 H 0.32312 0.2582 0.34501 0.0
H1109 H 0.30655 0.22638 0.48977 0.0
H1110 H 0.3128 0.31388 0.39588 0.0
H1111 H 0.30207 0.16957 0.43684 0.0
H1112 H 0.31808 0.25954 0.45684 0.0
H1113 H 0.3237 0.22643 0.37951 0.0
C1114 C 0.3212 0.26381 0.36346 0.0
C1115 C 0.3177 0.28871 0.36753 0.0
C1116 C 0.31517 0.23979 0.45252 0.0
C1117 C 0.31831 0.25237 0.40716 0.0
C1118 C 0.30897 0.22091 0.47135 0.0
C1119 C 0.30376 0.19534 0.46592 0.0
C1120 C 0.31597 0.23291 0.42816 0.0
C1121 C 0.30628 0.18913 0.44171 0.0
C1122 C 0.32146 0.24563 0.38316 0.0
C1123 C 0.31509 0.2948 0.39185 0.0
N1124 N 0.31202 0.2078 0.42366 0.0
N1125 N 0.31537 0.27675 0.41073 0.0
H1126 H 0.50575 0.46145 0.92309 0.0
H1127 H 0.43594 0.54597 0.82285 0.0
H1128 H 0.50613 0.54161 0.92909 0.0
H1129 H 0.45129 0.47033 0.81242 0.0
H1130 H 0.46106 0.54552 0.86172 0.0
H1131 H 0.4845 0.46466 0.88265 0.0
C1132 C 0.50158 0.4798 0.91571 0.0
C1133 C 0.50824 0.50141 0.92913 0.0
C1134 C 0.45904 0.52915 0.85074 0.0
C1135 C 0.48335 0.50522 0.88306 0.0
C1136 C 0.44477 0.52943 0.82852 0.0
C1137 C 0.44126 0.5081 0.81434 0.0
C1138 C 0.4697 0.50736 0.85884 0.0
C1139 C 0.45317 0.48717 0.82271 0.0
C1140 C 0.48942 0.48166 0.89264 0.0
C1141 C 0.50172 0.5246 0.91906 0.0
N1142 N 0.46662 0.48729 0.84439 0.0
N1143 N 0.4896 0.52592 0.8966 0.0
H1144 H 0.72144 0.74333 0.17719 0.0
H1145 H 0.72242 0.70982 0.03725 0.0
H1146 H 0.69586 0.78979 0.11609 0.0
H1147 H 0.76869 0.67599 0.09344 0.0
H1148 H 0.71089 0.73762 0.06693 0.0
H1149 H 0.73761 0.71703 0.14797 0.0
C1150 C 0.71964 0.74825 0.15765 0.0
C1151 C 0.70784 0.76915 0.149 0.0
C1152 C 0.72366 0.72423 0.07283 0.0
C1153 C 0.72551 0.73876 0.11561 0.0
C1154 C 0.73018 0.7082 0.05589 0.0
C1155 C 0.7465 0.6904 0.06285 0.0
C1156 C 0.73319 0.7224 0.09717 0.0
C1157 C 0.7561 0.68945 0.08726 0.0
C1158 C 0.72878 0.73321 0.14102 0.0
C1159 C 0.70526 0.77417 0.12352 0.0
N1160 N 0.74913 0.7051 0.10365 0.0
N1161 N 0.71393 0.75908 0.10777 0.0
H1162 H 0.01998 0.08702 0.10845 0.0
H1163 H 0.94922 0.97544 0.19833 0.0
H1164 H 0.01453 0.00744 0.09563 0.0
H1165 H 0.94392 0.05487 0.2033 0.0
H1166 H 0.97684 0.98684 0.16328 0.0
H1167 H 0.99568 0.07551 0.14565 0.0
C1168 C 0.01361 0.0671 0.1134 0.0
C1169 C 0.01912 0.04819 0.09868 0.0
C1170 C 0.9697 1.00176 0.17211 0.0
C1171 C 0.99151 0.03485 0.14159 0.0
C1172 C 0.95397 0.9953 0.19221 0.0
C1173 C 0.94408 0.01421 0.20382 0.0
C1174 C 0.97576 0.02734 0.16357 0.0
C1175 C 0.95094 0.03961 0.19492 0.0
C1176 C 0.99983 0.06055 0.13474 0.0
C1177 C 0.01089 0.02267 0.10643 0.0
N1178 N 0.96631 0.0454 0.17534 0.0
N1179 N 0.99742 0.01676 0.1273 0.0
H1180 H 0.3166 0.73852 0.12425 0.0
H1181 H 0.27 0.87039 0.08294 0.0
H1182 H 0.3072 0.79439 0.17516 0.0
H1183 H 0.29735 0.82342 0.03177 0.0
H1184 H 0.28357 0.84279 0.11699 0.0
H1185 H 0.30944 0.7691 0.08999 0.0
C1186 C 0.31346 0.75739 0.12817 0.0
C1187 C 0.3131 0.76421 0.15253 0.0
C1188 C 0.28683 0.83864 0.09832 0.0
C1189 C 0.30415 0.79897 0.11354 0.0
C1190 C 0.27906 0.85438 0.07888 0.0
C1191 C 0.28245 0.84911 0.0545 0.0
C1192 C 0.29776 0.81726 0.09336 0.0
C1193 C 0.29437 0.82816 0.0503 0.0
C1194 C 0.30932 0.7748 0.10864 0.0
C1195 C 0.30812 0.7886 0.15663 0.0
N1196 N 0.30137 0.81283 0.06954 0.0
N1197 N 0.30376 0.80507 0.13734 0.0
H1198 H 0.01476 0.46088 0.11978 0.0
H1199 H 0.09422 0.55716 0.21092 0.0
H1200 H 0.02245 0.5426 0.10892 0.0
H1201 H 0.0997 0.47705 0.21459 0.0
H1202 H 0.06421 0.55117 0.17614 0.0
H1203 H 0.04269 0.46564 0.15654 0.0
C1204 C 0.02237 0.47983 0.125 0.0
C1205 C 0.01619 0.50138 0.11107 0.0
C1206 C 0.07189 0.53485 0.18457 0.0
C1207 C 0.04789 0.50689 0.1535 0.0
C1208 C 0.08901 0.53821 0.20458 0.0
C1209 C 0.09971 0.51758 0.21579 0.0
C1210 C 0.06516 0.51066 0.17556 0.0
C1211 C 0.09206 0.49354 0.20657 0.0
C1212 C 0.03821 0.48251 0.14611 0.0
C1213 C 0.02629 0.52541 0.11915 0.0
N1214 N 0.07531 0.49075 0.18696 0.0
N1215 N 0.04159 0.52749 0.13977 0.0
H1216 H 0.37539 0.74721 0.24355 0.0
H1217 H 0.4771 0.70319 0.34349 0.0
H1218 H 0.40007 0.6737 0.24544 0.0
H1219 H 0.46127 0.77998 0.33217 0.0
H1220 H 0.44825 0.69126 0.30833 0.0
H1221 H 0.40613 0.75906 0.27677 0.0
C1222 C 0.38757 0.73369 0.25067 0.0
C1223 C 0.38521 0.70946 0.24157 0.0
C1224 C 0.45104 0.7107 0.31359 0.0
C1225 C 0.42023 0.72278 0.28 0.0
C1226 C 0.46738 0.71743 0.33362 0.0
C1227 C 0.4706 0.74229 0.34113 0.0
C1228 C 0.43834 0.72917 0.30085 0.0
C1229 C 0.45838 0.76036 0.32744 0.0
C1230 C 0.40501 0.74041 0.26979 0.0
C1231 C 0.40108 0.69251 0.25202 0.0
N1232 N 0.4426 0.7534 0.30807 0.0
N1233 N 0.41787 0.69946 0.27073 0.0
H1234 H 0.96382 0.42442 0.00723 0.0
H1235 H 0.04351 0.34081 0.93239 0.0
H1236 H 0.04503 0.44357 0.99839 0.0
H1237 H 0.96513 0.31762 0.95289 0.0
H1238 H 0.0451 0.37857 0.95606 0.0
H1239 H 0.96429 0.38533 0.98655 0.0
C1240 C 0.98181 0.42019 1.0012 0.0
C1241 C 1.00452 0.43691 0.00509 0.0
C1242 C 0.02764 0.36506 0.95544 0.0
C1243 C 0.00519 0.39246 0.98076 0.0
C1244 C 0.02673 0.34348 0.94197 0.0
C1245 C 1.00414 0.32594 0.94046 0.0
C1246 C 0.00577 0.3692 0.96736 0.0
C1247 C 0.983 0.33053 0.95329 0.0
C1248 C 0.9821 0.39791 0.98932 0.0
C1249 C 0.02719 0.43089 0.99619 0.0
N1250 N 0.98431 0.35167 0.966 0.0
N1251 N 0.02697 0.40916 0.98444 0.0
H1252 H 0.6468 0.85113 0.24075 0.0
H1253 H 0.60049 0.78027 0.36829 0.0
H1254 H 0.67276 0.78237 0.27081 0.0
H1255 H 0.55413 0.82731 0.32448 0.0
H1256 H 0.63184 0.78688 0.33601 0.0
H1257 H 0.61625 0.84743 0.2739 0.0
C1258 C 0.64584 0.83513 0.25424 0.0
C1259 C 0.66213 0.81692 0.25306 0.0
C1260 C 0.6149 0.79593 0.33358 0.0
C1261 C 0.62787 0.81295 0.29119 0.0
C1262 C 0.59712 0.79242 0.35211 0.0
C1263 C 0.57457 0.80317 0.34903 0.0
C1264 C 0.61029 0.81054 0.31192 0.0
C1265 C 0.57122 0.81863 0.32759 0.0
C1266 C 0.62852 0.83308 0.27312 0.0
C1267 C 0.6603 0.79662 0.27097 0.0
N1268 N 0.58886 0.82179 0.30977 0.0
N1269 N 0.64363 0.79529 0.28946 0.0
H1270 H 0.02498 0.12768 0.0523 0.0
H1271 H 0.03627 0.20208 0.92212 0.0
H1272 H 0.0415 0.09148 0.98756 0.0
H1273 H 0.97877 0.21422 0.97187 0.0
H1274 H 0.04542 0.16572 0.94897 0.0
H1275 H 0.01425 0.16362 0.02585 0.0
C1276 C 0.02621 0.12705 0.0326 0.0
C1277 C 0.03415 0.1062 0.02229 0.0
C1278 C 0.03083 0.17638 0.95399 0.0
C1279 C 0.02271 0.14792 0.99209 0.0
C1280 C 0.0257 0.19721 0.93882 0.0
C1281 C 0.00677 0.21122 0.94485 0.0
C1282 C 0.01737 0.16982 0.97566 0.0
C1283 C 0.99347 0.20387 0.96656 0.0
C1284 C 0.02019 0.14771 0.01757 0.0
C1285 C 0.03602 0.10714 0.99656 0.0
N1286 N 0.9992 0.18376 0.98137 0.0
N1287 N 0.03054 0.12771 0.9824 0.0
H1288 H 0.3787 0.34488 0.23657 0.0
H1289 H 0.44514 0.22367 0.21603 0.0
H1290 H 0.35916 0.27196 0.27579 0.0
H1291 H 0.47058 0.29818 0.1816 0.0
H1292 H 0.41487 0.24167 0.23926 0.0
H1293 H 0.4138 0.32899 0.2176 0.0
C1294 C 0.38194 0.32554 0.24121 0.0
C1295 C 0.3658 0.30948 0.25729 0.0
C1296 C 0.42716 0.25416 0.22676 0.0
C1297 C 0.4058 0.29119 0.23587 0.0
C1298 C 0.44449 0.24387 0.21341 0.0
C1299 C 0.46042 0.25937 0.19665 0.0
C1300 C 0.42547 0.28016 0.22329 0.0
C1301 C 0.45871 0.28546 0.19426 0.0
C1302 C 0.40193 0.31648 0.23043 0.0
C1303 C 0.37096 0.28475 0.26311 0.0
N1304 N 0.4414 0.29499 0.20727 0.0
N1305 N 0.39035 0.27627 0.25223 0.0
H1306 H 0.59249 0.41999 0.03379 0.0
H1307 H 0.48721 0.30954 0.08557 0.0
H1308 H 0.51253 0.4269 0.02415 0.0
H1309 H 0.56111 0.32941 0.12115 0.0
H1310 H 0.49577 0.34861 0.05839 0.0
H1311 H 0.58115 0.38227 0.061 0.0
C1312 C 0.57253 0.41383 0.03754 0.0
C1313 C 0.55351 0.42716 0.02695 0.0
C1314 C 0.50994 0.34437 0.07231 0.0
C1315 C 0.54038 0.38313 0.05765 0.0
C1316 C 0.50511 0.32214 0.08775 0.0
C1317 C 0.52349 0.31622 0.10562 0.0
C1318 C 0.53349 0.36032 0.07449 0.0
C1319 C 0.54636 0.33319 0.10769 0.0
C1320 C 0.56609 0.3921 0.053 0.0
C1321 C 0.52788 0.41731 0.03181 0.0
N1322 N 0.5508 0.35428 0.09217 0.0
N1323 N 0.52204 0.39583 0.04681 0.0
H1324 H 0.66849 0.25449 0.2855 0.0
H1325 H 0.5484 0.17836 0.21511 0.0
H1326 H 0.65245 0.17259 0.28953 0.0
H1327 H 0.57703 0.25787 0.19928 0.0
H1328 H 0.5841 0.17579 0.24478 0.0
H1329 H 0.63265 0.25604 0.25621 0.0
C1330 C 0.65731 0.23681 0.28028 0.0
C1331 C 0.66337 0.21338 0.29004 0.0
C1332 C 0.58251 0.19375 0.23475 0.0
C1333 C 0.62229 0.21497 0.25637 0.0
C1334 C 0.56209 0.19528 0.21789 0.0
C1335 C 0.55967 0.21837 0.20462 0.0
C1336 C 0.60044 0.21553 0.23854 0.0
C1337 C 0.57809 0.23962 0.20895 0.0
C1338 C 0.63694 0.23769 0.26344 0.0
C1339 C 0.64849 0.19105 0.28232 0.0
N1340 N 0.59758 0.23769 0.22555 0.0
N1341 N 0.62852 0.19238 0.26602 0.0
H1342 H 0.45854 0.10512 0.0207 0.0
H1343 H 0.55494 0.18915 0.11069 0.0
H1344 H 0.53475 0.08972 0.03953 0.0
H1345 H 0.47756 0.20113 0.09359 0.0
H1346 H 0.54925 0.15434 0.08275 0.0
H1347 H 0.46599 0.14128 0.04627 0.0
C1348 C 0.47681 0.10919 0.03036 0.0
C1349 C 0.49597 0.09413 0.02805 0.0
C1350 C 0.53351 0.16458 0.08509 0.0
C1351 C 0.50488 0.13615 0.05703 0.0
C1352 C 0.53678 0.18437 0.10099 0.0
C1353 C 0.51632 0.19712 0.10506 0.0
C1354 C 0.50978 0.15802 0.07287 0.0
C1355 C 0.49343 0.19096 0.09159 0.0
C1356 C 0.48114 0.13006 0.0448 0.0
C1357 C 0.51948 0.10087 0.04058 0.0
N1358 N 0.49069 0.1717 0.07625 0.0
N1359 N 0.52326 0.12134 0.05456 0.0
H1360 H 0.23847 0.36997 0.75797 0.0
H1361 H 0.33604 0.4824 0.69377 0.0
H1362 H 0.24379 0.38113 0.67906 0.0
H1363 H 0.32658 0.46871 0.77189 0.0
H1364 H 0.30018 0.44798 0.68685 0.0
H1365 H 0.26924 0.40804 0.76246 0.0
C1366 C 0.24593 0.38063 0.74151 0.0
C1367 C 0.23825 0.37251 0.71807 0.0
C1368 C 0.30586 0.45269 0.70547 0.0
C1369 C 0.27407 0.41628 0.72311 0.0
C1370 C 0.32621 0.47224 0.70937 0.0
C1371 C 0.33463 0.4775 0.73342 0.0
C1372 C 0.29383 0.43889 0.72583 0.0
C1373 C 0.32109 0.4645 0.75309 0.0
C1374 C 0.26363 0.40241 0.74409 0.0
C1375 C 0.24923 0.38673 0.69747 0.0
N1376 N 0.30154 0.44564 0.74888 0.0
N1377 N 0.26665 0.40799 0.70045 0.0
H1378 H 0.30076 0.69589 0.77212 0.0
H1379 H 0.33244 0.55602 0.80772 0.0
H1380 H 0.26824 0.64925 0.83419 0.0
H1381 H 0.37642 0.6097 0.75709 0.0
H1382 H 0.30803 0.58927 0.8173 0.0
H1383 H 0.32771 0.66381 0.76553 0.0
C1384 C 0.29914 0.67874 0.7842 0.0
C1385 C 0.28171 0.6749 0.80324 0.0
C1386 C 0.32317 0.59382 0.80426 0.0
C1387 C 0.31277 0.63823 0.79613 0.0
C1388 C 0.33714 0.57486 0.79881 0.0
C1389 C 0.35648 0.58006 0.78154 0.0
C1390 C 0.32837 0.6181 0.79215 0.0
C1391 C 0.3617 0.60481 0.77053 0.0
C1392 C 0.31462 0.66052 0.78055 0.0
C1393 C 0.2809 0.6527 0.81885 0.0
N1394 N 0.3476 0.62282 0.77586 0.0
N1395 N 0.29603 0.63509 0.81481 0.0
H1396 H 0.92582 0.52228 0.45517 0.0
H1397 H 0.8124 0.43709 0.52804 0.0
H1398 H 0.9264 0.51337 0.53444 0.0
H1399 H 0.80754 0.46217 0.45111 0.0
H1400 H 0.85392 0.4643 0.53153 0.0
H1401 H 0.88264 0.49883 0.45384 0.0
C1402 C 0.91688 0.5152 0.47232 0.0
C1403 C 0.92979 0.51956 0.49494 0.0
C1404 C 0.84357 0.46398 0.51399 0.0
C1405 C 0.88009 0.49285 0.49361 0.0
C1406 C 0.81983 0.4485 0.51197 0.0
C1407 C 0.80643 0.44711 0.48919 0.0
C1408 C 0.85404 0.47797 0.49304 0.0
C1409 C 0.81711 0.46238 0.46904 0.0
C1410 C 0.89211 0.50201 0.47157 0.0
C1411 C 0.91706 0.51041 0.51662 0.0
N1412 N 0.8403 0.47692 0.47141 0.0
N1413 N 0.89293 0.49731 0.51543 0.0
H1414 H 0.78993 0.88034 0.85442 0.0
H1415 H 0.67317 0.9183 0.76937 0.0
H1416 H 0.76844 0.84931 0.78432 0.0
H1417 H 0.71074 0.9656 0.82514 0.0
H1418 H 0.70334 0.88832 0.77899 0.0
H1419 H 0.75689 0.90781 0.84778 0.0
C1420 C 0.77825 0.87932 0.83764 0.0
C1421 C 0.78204 0.86266 0.81981 0.0
C1422 C 0.70483 0.90516 0.78925 0.0
C1423 C 0.74404 0.89373 0.81225 0.0
C1424 C 0.68748 0.92217 0.78392 0.0
C1425 C 0.68949 0.94453 0.79641 0.0
C1426 C 0.72416 0.91041 0.80738 0.0
C1427 C 0.70855 0.94864 0.81499 0.0
C1428 C 0.75944 0.895 0.83386 0.0
C1429 C 0.76639 0.86214 0.79838 0.0
N1430 N 0.72518 0.93178 0.81987 0.0
N1431 N 0.74802 0.87735 0.79525 0.0
H1432 H 0.6292 0.50562 0.96799 0.0
H1433 H 0.71855 0.58879 0.06319 0.0
H1434 H 0.61119 0.5076 0.04419 0.0
H1435 H 0.73911 0.58002 0.98905 0.0
H1436 H 0.68083 0.55631 0.05801 0.0
H1437 H 0.67069 0.53103 0.97617 0.0
C1438 C 0.63396 0.51155 0.98643 0.0
C1439 C 0.61669 0.50466 0.00541 0.0
C1440 C 0.69369 0.5613 0.04293 0.0
C1441 C 0.66422 0.53365 0.01499 0.0
C1442 C 0.71513 0.57979 0.04591 0.0
C1443 C 0.73105 0.5877 0.0261 0.0
C1444 C 0.68855 0.55054 0.0201 0.0
C1445 C 0.72651 0.57507 0.00435 0.0
C1446 C 0.65775 0.52585 0.99116 0.0
C1447 C 0.624 0.51247 0.02906 0.0
N1448 N 0.70545 0.55734 1.00177 0.0
N1449 N 0.64715 0.52673 0.03315 0.0
H1450 H 0.31349 0.64906 0.25401 0.0
H1451 H 0.2063 0.54289 0.20149 0.0
H1452 H 0.30321 0.63796 0.1763 0.0
H1453 H 0.22345 0.55335 0.27834 0.0
H1454 H 0.24398 0.57459 0.1911 0.0
H1455 H 0.28283 0.61126 0.26264 0.0
C1456 C 0.30516 0.63842 0.2387 0.0
C1457 C 0.31122 0.64669 0.21436 0.0
C1458 C 0.23962 0.5697 0.21022 0.0
C1459 C 0.27516 0.60339 0.22419 0.0
C1460 C 0.21819 0.55173 0.21609 0.0
C1461 C 0.21151 0.54644 0.24069 0.0
C1462 C 0.25438 0.5819 0.22923 0.0
C1463 C 0.22764 0.55769 0.25909 0.0
C1464 C 0.28742 0.61682 0.24367 0.0
C1465 C 0.29898 0.63242 0.19534 0.0
N1466 N 0.24815 0.57508 0.25299 0.0
N1467 N 0.28137 0.61154 0.20065 0.0
H1468 H 0.94848 0.53146 0.01593 0.0
H1469 H 0.85986 0.62127 0.06993 0.0
H1470 H 0.93774 0.53455 0.09374 0.0
H1471 H 0.84693 0.59345 0.99737 0.0
H1472 H 0.89433 0.59569 0.07727 0.0
H1473 H 0.91635 0.55945 0.00738 0.0
C1474 C 0.93939 0.53783 0.03127 0.0
C1475 C 0.94605 0.5304 0.05568 0.0
C1476 C 0.88404 0.59533 0.05969 0.0
C1477 C 0.90963 0.56322 0.04583 0.0
C1478 C 0.86449 0.61006 0.05541 0.0
C1479 C 0.85043 0.60947 0.03301 0.0
C1480 C 0.88988 0.58014 0.04133 0.0
C1481 C 0.85721 0.59443 0.01494 0.0
C1482 C 0.92115 0.554 0.0263 0.0
C1483 C 0.93382 0.53998 0.07464 0.0
N1484 N 0.87645 0.58038 0.01947 0.0
N1485 N 0.91635 0.5559 0.06932 0.0
H1486 H 0.10116 0.98496 0.05452 0.0
H1487 H 0.19409 0.95626 0.95095 0.0
H1488 H 0.09936 0.01765 0.98005 0.0
H1489 H 0.19653 0.92568 0.02637 0.0
H1490 H 0.16039 0.97994 0.96126 0.0
H1491 H 0.1373 0.96425 0.04472 0.0
C1492 C 0.10851 0.98779 0.03613 0.0
C1493 C 0.09721 1.00275 0.018 0.0
C1494 C 0.16839 0.96811 0.97555 0.0
C1495 C 0.13844 0.97919 0.00653 0.0
C1496 C 0.18767 0.95457 0.96968 0.0
C1497 C 0.19822 0.93883 0.98777 0.0
C1498 C 0.15954 0.9659 0.99967 0.0
C1499 C 0.18901 0.93745 0.01172 0.0
C1500 C 0.12909 0.97599 0.0305 0.0
C1501 C 0.10747 0.00606 0.99447 0.0
N1502 N 0.17022 0.95071 0.01692 0.0
N1503 N 0.12742 0.99425 0.98936 0.0
loop_
_geom_bond_atom_site_label_1
_geom_bond_atom_site_label_2
_geom_bond_distance
_geom_bond_site_symmetry_2
_ccdc_geom_bond_type
H0 C7 0.929 1_655 S
H1 C10 0.930 . S
H2 C12 0.929 1_556 S
H3 C4 0.969 . S
C4 H3 0.969 . S
C4 O5 1.550 1_565 S
C4 H6 0.973 . S
O5 C4 1.550 1_545 S
O5 C11 1.412 . S
H6 C4 0.973 . S
C7 H0 0.929 1_455 S
C7 C8 1.400 . S
C7 C9 1.364 . S
C8 C7 1.400 . S
C8 C12 1.377 . S
C9 C7 1.364 . S
C9 C10 1.374 . S
C10 H1 0.930 . S
C10 C9 1.374 . S
C10 C11 1.383 . S
C11 O5 1.412 . S
C11 C10 1.383 . S
C11 C12 1.394 . S
C12 H2 0.929 1_554 S
C12 C8 1.377 . S
C12 C11 1.394 . S
H13 C20 0.929 . S
H14 C23 0.930 . S
H15 C25 0.929 . S
H16 C17 0.969 . S
C17 H16 0.969 . S
C17 O18 1.550 . S
C17 H19 0.973 . S
O18 C17 1.550 . S
O18 C24 1.412 . S
H19 C17 0.973 . S
C20 H13 0.929 . S
C20 C21 1.400 . S
C20 C22 1.364 . S
C21 C20 1.400 . S
C21 C25 1.377 . S
C22 C20 1.364 . S
C22 C23 1.374 . S
C23 H14 0.930 . S
C23 C22 1.374 . S
C23 C24 1.383 . S
C24 O18 1.412 . S
C24 C23 1.383 . S
C24 C25 1.394 . S
C25 H15 0.929 . S
C25 C21 1.377 . S
C25 C24 1.394 . S
H26 C33 0.929 . S
H27 C36 0.930 . S
H28 C38 0.920 1_455 S
H29 C30 0.984 . S
C30 H29 0.984 . S
C30 O31 1.550 . S
C30 H32 0.973 . S
O31 C30 1.550 . S
O31 C37 1.412 . S
H32 C30 0.973 . S
C33 H26 0.929 . S
C33 C34 1.400 . S
C33 C35 1.364 . S
C34 C33 1.400 . S
C34 C38 1.380 . S
C35 C33 1.364 . S
C35 C36 1.374 . S
C36 H27 0.930 . S
C36 C35 1.374 . S
C36 C37 1.383 . S
C37 O31 1.412 . S
C37 C36 1.383 . S
C37 C38 1.400 . S
C38 H28 0.920 1_655 S
C38 C34 1.380 . S
C38 C37 1.400 . S
H39 C46 0.929 . S
H40 C49 0.930 . S
H41 C51 0.929 . S
H42 C43 0.969 . S
C43 H42 0.969 . S
C43 O44 1.550 . S
C43 H45 0.973 . S
O44 C43 1.550 . S
O44 C50 1.412 . S
H45 C43 0.973 . S
C46 H39 0.929 . S
C46 C47 1.400 . S
C46 C48 1.364 . S
C47 C46 1.400 . S
C47 C51 1.377 . S
C48 C46 1.364 . S
C48 C49 1.374 . S
C49 H40 0.930 . S
C49 C48 1.374 . S
C49 C50 1.383 . S
C50 O44 1.412 . S
C50 C49 1.383 . S
C50 C51 1.394 . S
C51 H41 0.929 . S
C51 C47 1.377 . S
C51 C50 1.394 . S
H52 C59 0.929 . S
H53 C62 0.930 . S
H54 C64 0.929 . S
H55 C56 0.969 1_655 S
C56 H55 0.969 1_455 S
C56 O57 1.550 . S
C56 H58 0.973 . S
O57 C56 1.550 . S
O57 C63 1.412 . S
H58 C56 0.973 . S
C59 H52 0.929 . S
C59 C60 1.400 . S
C59 C61 1.364 . S
C60 C59 1.400 . S
C60 C64 1.377 1_565 S
C61 C59 1.364 . S
C61 C62 1.374 . S
C62 H53 0.930 . S
C62 C61 1.374 . S
C62 C63 1.383 . S
C63 O57 1.412 . S
C63 C62 1.383 . S
C63 C64 1.394 1_565 S
C64 H54 0.929 . S
C64 C60 1.377 1_545 S
C64 C63 1.394 1_545 S
H65 C72 0.929 . S
H66 C75 0.930 . S
H67 C77 0.929 . S
H68 C69 0.969 . S
C69 H68 0.969 . S
C69 O70 1.550 . S
C69 H71 0.973 . S
O70 C69 1.550 . S
O70 C76 1.412 . S
H71 C69 0.973 . S
C72 H65 0.929 . S
C72 C73 1.400 . S
C72 C74 1.364 . S
C73 C72 1.400 . S
C73 C77 1.377 . S
C74 C72 1.364 . S
C74 C75 1.374 . S
C75 H66 0.930 . S
C75 C74 1.374 . S
C75 C76 1.383 . S
C76 O70 1.412 . S
C76 C75 1.383 . S
C76 C77 1.394 . S
C77 H67 0.929 . S
C77 C73 1.377 . S
C77 C76 1.394 . S
H78 C85 0.929 . S
H79 C88 0.930 . S
H80 C90 0.929 . S
H81 C82 0.969 . S
C82 H81 0.969 . S
C82 O83 1.550 . S
C82 H84 0.973 . S
O83 C82 1.550 . S
O83 C89 1.412 . S
H84 C82 0.973 . S
C85 H78 0.929 . S
C85 C86 1.400 . S
C85 C87 1.364 . S
C86 C85 1.400 . S
C86 C90 1.377 1_655 S
C87 C85 1.364 . S
C87 C88 1.374 . S
C88 H79 0.930 . S
C88 C87 1.374 . S
C88 C89 1.383 1_655 S
C89 O83 1.412 . S
C89 C88 1.383 1_455 S
C89 C90 1.394 . S
C90 H80 0.929 . S
C90 C86 1.377 1_455 S
C90 C89 1.394 . S
H91 C98 0.929 . S
H92 C101 0.930 . S
H93 C103 0.929 . S
H94 C95 0.969 . S
C95 H94 0.969 . S
C95 O96 1.550 . S
C95 H97 0.973 . S
O96 C95 1.550 . S
O96 C102 1.412 . S
H97 C95 0.973 . S
C98 H91 0.929 . S
C98 C99 1.400 . S
C98 C100 1.364 . S
C99 C98 1.400 . S
C99 C103 1.377 . S
C100 C98 1.364 . S
C100 C101 1.374 . S
C101 H92 0.930 . S
C101 C100 1.374 . S
C101 C102 1.383 . S
C102 O96 1.412 . S
C102 C101 1.383 . S
C102 C103 1.394 . S
C103 H93 0.929 . S
C103 C99 1.377 . S
C103 C102 1.394 . S
H104 C111 0.929 . S
H105 C114 0.930 . S
H106 C116 0.929 . S
H107 C108 0.969 . S
C108 H107 0.969 . S
C108 O109 1.550 . S
C108 H110 0.973 . S
O109 C108 1.550 . S
O109 C115 1.412 . S
H110 C108 0.973 . S
C111 H104 0.929 . S
C111 C112 1.400 . S
C111 C113 1.364 . S
C112 C111 1.400 . S
C112 C116 1.377 . S
C113 C111 1.364 . S
C113 C114 1.374 . S
C114 H105 0.930 . S
C114 C113 1.374 . S
C114 C115 1.383 . S
C115 O109 1.412 . S
C115 C114 1.383 . S
C115 C116 1.394 . S
C116 H106 0.929 . S
C116 C112 1.377 . S
C116 C115 1.394 . S
H117 C124 0.896 1_545 S
H118 C127 0.930 . S
H119 C129 0.929 . S
H120 C121 0.969 . S
C121 H120 0.969 . S
C121 O122 1.550 . S
C121 H123 0.973 . S
O122 C121 1.550 . S
O122 C128 1.412 . S
H123 C121 0.973 . S
C124 H117 0.896 1_565 S
C124 C125 1.400 . S
C124 C126 1.364 . S
C125 C124 1.400 . S
C125 C129 1.377 . S
C126 C124 1.364 . S
C126 C127 1.374 . S
C127 H118 0.930 . S
C127 C126 1.374 . S
C127 C128 1.383 . S
C128 O122 1.412 . S
C128 C127 1.383 . S
C128 C129 1.394 . S
C129 H119 0.929 . S
C129 C125 1.377 . S
C129 C128 1.394 . S
H130 C137 0.929 . S
H131 C140 0.930 . S
H132 C142 0.929 . S
H133 C134 0.969 . S
C134 H133 0.969 . S
C134 O135 1.550 . S
C134 H136 0.973 . S
O135 C134 1.550 . S
O135 C141 1.412 . S
H136 C134 0.973 . S
C137 H130 0.929 . S
C137 C138 1.400 . S
C137 C139 1.364 . S
C138 C137 1.400 . S
C138 C142 1.377 . S
C139 C137 1.364 . S
C139 C140 1.374 . S
C140 H131 0.930 . S
C140 C139 1.374 . S
C140 C141 1.383 . S
C141 O135 1.412 . S
C141 C140 1.383 . S
C141 C142 1.394 . S
C142 H132 0.929 . S
C142 C138 1.377 . S
C142 C141 1.394 . S
H143 C150 0.929 . S
H144 C153 0.930 . S
H145 C155 0.929 . S
H146 C147 0.969 . S
C147 H146 0.969 . S
C147 O148 1.550 . S
C147 H149 0.973 . S
O148 C147 1.550 . S
O148 C154 1.412 . S
H149 C147 0.973 . S
C150 H143 0.929 . S
C150 C151 1.400 . S
C150 C152 1.364 . S
C151 C150 1.400 . S
C151 C155 1.377 . S
C152 C150 1.364 . S
C152 C153 1.374 . S
C153 H144 0.930 . S
C153 C152 1.374 . S
C153 C154 1.383 . S
C154 O148 1.412 . S
C154 C153 1.383 . S
C154 C155 1.394 . S
C155 H145 0.929 . S
C155 C151 1.377 . S
C155 C154 1.394 . S
H156 C163 0.929 . S
H157 C166 0.930 . S
H158 C168 0.929 . S
H159 C160 0.969 . S
C160 H159 0.969 . S
C160 O161 1.550 . S
C160 H162 0.973 . S
O161 C160 1.550 . S
O161 C167 1.412 . S
H162 C160 0.973 . S
C163 H156 0.929 . S
C163 C164 1.400 . S
C163 C165 1.364 . S
C164 C163 1.400 . S
C164 C168 1.377 . S
C165 C163 1.364 . S
C165 C166 1.374 . S
C166 H157 0.930 . S
C166 C165 1.374 . S
C166 C167 1.383 . S
C167 O161 1.412 . S
C167 C166 1.383 . S
C167 C168 1.394 . S
C168 H158 0.929 . S
C168 C164 1.377 . S
C168 C167 1.394 . S
H169 C176 0.929 1_554 S
H170 C179 0.930 . S
H171 C181 0.929 . S
H172 C173 0.969 . S
C173 H172 0.969 . S
C173 O174 1.550 . S
C173 H175 0.973 . S
O174 C173 1.550 . S
O174 C180 1.412 . S
H175 C173 0.973 . S
C176 H169 0.929 1_556 S
C176 C177 1.400 . S
C176 C178 1.364 . S
C177 C176 1.400 . S
C177 C181 1.377 . S
C178 C176 1.364 . S
C178 C179 1.374 . S
C179 H170 0.930 . S
C179 C178 1.374 . S
C179 C180 1.383 . S
C180 O174 1.412 . S
C180 C179 1.383 . S
C180 C181 1.394 . S
C181 H171 0.929 . S
C181 C177 1.377 . S
C181 C180 1.394 . S
H182 C189 0.929 . S
H183 C192 0.930 . S
H184 C194 0.929 . S
H185 C186 0.969 . S
C186 H185 0.969 . S
C186 O187 1.550 . S
C186 H188 0.973 . S
O187 C186 1.550 . S
O187 C193 1.412 . S
H188 C186 0.973 . S
C189 H182 0.929 . S
C189 C190 1.400 . S
C189 C191 1.364 . S
C190 C189 1.400 . S
C190 C194 1.377 . S
C191 C189 1.364 . S
C191 C192 1.374 . S
C192 H183 0.930 . S
C192 C191 1.374 . S
C192 C193 1.383 . S
C193 O187 1.412 . S
C193 C192 1.383 . S
C193 C194 1.394 . S
C194 H184 0.929 . S
C194 C190 1.377 . S
C194 C193 1.394 . S
H195 C202 0.929 . S
H196 C205 0.930 . S
H197 C207 0.929 . S
H198 C199 0.969 . S
C199 H198 0.969 . S
C199 O200 1.550 . S
C199 H201 0.973 . S
O200 C199 1.550 . S
O200 C206 1.412 . S
H201 C199 0.973 . S
C202 H195 0.929 . S
C202 C203 1.400 . S
C202 C204 1.364 1_554 S
C203 C202 1.400 . S
C203 C207 1.377 1_554 S
C204 C202 1.364 1_556 S
C204 C205 1.374 . S
C205 H196 0.930 . S
C205 C204 1.374 . S
C205 C206 1.383 . S
C206 O200 1.412 . S
C206 C205 1.383 . S
C206 C207 1.394 . S
C207 H197 0.929 . S
C207 C203 1.377 1_556 S
C207 C206 1.394 . S
Mn208 O213 2.095 . S
Mn208 O223 2.162 . S
Mn208 O224 2.297 . S
Mn208 O232 2.385 1_554 S
Mn208 O233 2.209 1_554 S
Mn208 O234 2.094 . S
Mn209 O214 2.121 . S
Mn209 N216 2.257 . S
Mn209 N225 2.282 . S
Mn209 O233 2.215 . S
Mn209 O235 2.117 . S
C210 O232 1.234 . S
C210 O233 1.283 . S
C211 O223 1.281 . S
C211 O224 1.236 . S
C212 O234 1.240 1_556 S
C212 O235 1.264 . S
O213 Mn208 2.095 . S
O213 C222 1.250 1_554 S
O214 Mn209 2.121 . S
O214 C222 1.258 . S
C215 N216 1.326 . S
C215 C219 1.460 . S
C215 H221 0.929 . S
N216 Mn209 2.257 . S
N216 C215 1.326 . S
N216 C220 1.362 . S
C217 C218 1.258 . S
C217 C220 1.431 . S
C217 C237 1.449 . S
C218 C217 1.258 . S
C218 C219 1.477 . S
C218 H238 0.931 . S
C219 C215 1.460 . S
C219 C218 1.477 . S
C219 H239 0.930 . S
C220 N216 1.362 . S
C220 C217 1.431 . S
C220 C230 1.476 . S
H221 C215 0.929 . S
C222 O213 1.250 1_556 S
C222 O214 1.258 . S
O223 Mn208 2.162 . S
O223 C211 1.281 . S
O224 Mn208 2.297 . S
O224 C211 1.236 . S
N225 Mn209 2.282 . S
N225 C226 1.328 . S
N225 C230 1.318 . S
C226 N225 1.328 . S
C226 C227 1.457 . S
C226 H231 0.929 . S
C227 C226 1.457 . S
C227 C228 1.291 . S
C227 H240 0.931 . S
C228 C227 1.291 . S
C228 C229 1.373 . S
C228 H241 0.929 . S
C229 C228 1.373 . S
C229 C230 1.396 . S
C229 C236 1.403 . S
C230 C220 1.476 . S
C230 N225 1.318 . S
C230 C229 1.396 . S
H231 C226 0.929 . S
O232 Mn208 2.385 1_556 S
O232 C210 1.234 . S
O233 Mn208 2.209 1_556 S
O233 Mn209 2.215 . S
O233 C210 1.283 . S
O234 Mn208 2.094 . S
O234 C212 1.240 1_554 S
O235 Mn209 2.117 . S
O235 C212 1.264 . S
C236 C229 1.403 . S
C236 C237 1.399 . S
C236 H242 0.929 . S
C237 C217 1.449 . S
C237 C236 1.399 . S
C237 H243 0.930 . S
H238 C218 0.931 . S
H239 C219 0.930 . S
H240 C227 0.931 . S
H241 C228 0.929 . S
H242 C236 0.929 . S
H243 C237 0.930 . S
Mn244 O249 2.095 . S
Mn244 O259 2.162 . S
Mn244 O260 2.297 . S
Mn244 O268 2.385 . S
Mn244 O269 2.209 . S
Mn244 O270 2.094 . S
Mn245 O250 2.121 . S
Mn245 N252 2.257 . S
Mn245 N261 2.282 . S
Mn245 O269 2.215 . S
Mn245 O271 2.117 . S
C246 O268 1.234 . S
C246 O269 1.283 . S
C247 O259 1.281 . S
C247 O260 1.236 . S
C248 O270 1.240 . S
C248 O271 1.264 . S
O249 Mn244 2.095 . S
O249 C258 1.250 . S
O250 Mn245 2.121 . S
O250 C258 1.258 . S
C251 N252 1.326 . S
C251 C255 1.460 . S
C251 H257 0.929 . S
N252 Mn245 2.257 . S
N252 C251 1.326 . S
N252 C256 1.362 . S
C253 C254 1.258 . S
C253 C256 1.431 . S
C253 C273 1.449 . S
C254 C253 1.258 . S
C254 C255 1.477 . S
C254 H274 0.931 . S
C255 C251 1.460 . S
C255 C254 1.477 . S
C255 H275 0.930 . S
C256 N252 1.362 . S
C256 C253 1.431 . S
C256 C266 1.476 . S
H257 C251 0.929 . S
C258 O249 1.250 . S
C258 O250 1.258 . S
O259 Mn244 2.162 . S
O259 C247 1.281 . S
O260 Mn244 2.297 . S
O260 C247 1.236 . S
N261 Mn245 2.282 . S
N261 C262 1.328 . S
N261 C266 1.318 . S
C262 N261 1.328 . S
C262 C263 1.457 . S
C262 H267 0.929 . S
C263 C262 1.457 . S
C263 C264 1.291 . S
C263 H276 0.931 . S
C264 C263 1.291 . S
C264 C265 1.373 . S
C264 H277 0.929 . S
C265 C264 1.373 . S
C265 C266 1.396 . S
C265 C272 1.403 . S
C266 C256 1.476 . S
C266 N261 1.318 . S
C266 C265 1.396 . S
H267 C262 0.929 . S
O268 Mn244 2.385 . S
O268 C246 1.234 . S
O269 Mn244 2.209 . S
O269 Mn245 2.215 . S
O269 C246 1.283 . S
O270 Mn244 2.094 . S
O270 C248 1.240 . S
O271 Mn245 2.117 . S
O271 C248 1.264 . S
C272 C265 1.403 . S
C272 C273 1.399 . S
C272 H278 0.929 . S
C273 C253 1.449 . S
C273 C272 1.399 . S
C273 H279 0.930 . S
H274 C254 0.931 . S
H275 C255 0.930 . S
H276 C263 0.931 . S
H277 C264 0.929 . S
H278 C272 0.929 . S
H279 C273 0.930 . S
Mn280 O285 2.095 . S
Mn280 O295 2.162 . S
Mn280 O296 2.297 . S
Mn280 O304 2.385 . S
Mn280 O305 2.209 . S
Mn280 O306 2.094 . S
Mn281 O286 2.121 1_554 S
Mn281 N288 2.257 1_554 S
Mn281 N297 2.282 . S
Mn281 O305 2.215 . S
Mn281 O307 2.117 . S
C282 O304 1.234 . S
C282 O305 1.283 . S
C283 O295 1.281 . S
C283 O296 1.236 . S
C284 O306 1.240 . S
C284 O307 1.264 . S
O285 Mn280 2.095 . S
O285 C294 1.250 1_554 S
O286 Mn281 2.121 1_556 S
O286 C294 1.258 . S
C287 N288 1.326 . S
C287 C291 1.460 . S
C287 H293 0.929 . S
N288 Mn281 2.257 1_556 S
N288 C287 1.326 . S
N288 C292 1.362 . S
C289 C290 1.258 . S
C289 C292 1.431 . S
C289 C309 1.449 . S
C290 C289 1.258 . S
C290 C291 1.477 . S
C290 H310 0.931 . S
C291 C287 1.460 . S
C291 C290 1.477 . S
C291 H311 0.930 . S
C292 N288 1.362 . S
C292 C289 1.431 . S
C292 C302 1.476 1_556 S
H293 C287 0.929 . S
C294 O285 1.250 1_556 S
C294 O286 1.258 . S
O295 Mn280 2.162 . S
O295 C283 1.281 . S
O296 Mn280 2.297 . S
O296 C283 1.236 . S
N297 Mn281 2.282 . S
N297 C298 1.328 . S
N297 C302 1.318 . S
C298 N297 1.328 . S
C298 C299 1.457 . S
C298 H303 0.929 . S
C299 C298 1.457 . S
C299 C300 1.291 . S
C299 H312 0.931 . S
C300 C299 1.291 . S
C300 C301 1.373 . S
C300 H313 0.929 . S
C301 C300 1.373 . S
C301 C302 1.396 . S
C301 C308 1.403 1_554 S
C302 C292 1.476 1_554 S
C302 N297 1.318 . S
C302 C301 1.396 . S
H303 C298 0.929 . S
O304 Mn280 2.385 . S
O304 C282 1.234 . S
O305 Mn280 2.209 . S
O305 Mn281 2.215 . S
O305 C282 1.283 . S
O306 Mn280 2.094 . S
O306 C284 1.240 . S
O307 Mn281 2.117 . S
O307 C284 1.264 . S
C308 C301 1.403 1_556 S
C308 C309 1.399 . S
C308 H314 0.929 . S
C309 C289 1.449 . S
C309 C308 1.399 . S
C309 H315 0.930 . S
H310 C290 0.931 . S
H311 C291 0.930 . S
H312 C299 0.931 . S
H313 C300 0.929 . S
H314 C308 0.929 . S
H315 C309 0.930 . S
Mn316 O321 2.095 . S
Mn316 O331 2.162 . S
Mn316 O332 2.297 . S
Mn316 O340 2.385 . S
Mn316 O341 2.209 1_545 S
Mn316 O342 2.094 . S
Mn317 O322 2.121 . S
Mn317 N324 2.257 . S
Mn317 N333 2.282 . S
Mn317 O341 2.215 . S
Mn317 O343 2.117 1_565 S
C318 O340 1.234 1_565 S
C318 O341 1.283 . S
C319 O331 1.281 . S
C319 O332 1.236 . S
C320 O342 1.240 . S
C320 O343 1.264 . S
O321 Mn316 2.095 . S
O321 C330 1.250 . S
O322 Mn317 2.121 . S
O322 C330 1.258 1_565 S
C323 N324 1.326 . S
C323 C327 1.460 . S
C323 H329 0.929 . S
N324 Mn317 2.257 . S
N324 C323 1.326 . S
N324 C328 1.362 . S
C325 C326 1.258 . S
C325 C328 1.431 . S
C325 C345 1.449 . S
C326 C325 1.258 . S
C326 C327 1.477 . S
C326 H346 0.931 . S
C327 C323 1.460 . S
C327 C326 1.477 . S
C327 H347 0.930 . S
C328 N324 1.362 . S
C328 C325 1.431 . S
C328 C338 1.476 . S
H329 C323 0.929 . S
C330 O321 1.250 . S
C330 O322 1.258 1_545 S
O331 Mn316 2.162 . S
O331 C319 1.281 . S
O332 Mn316 2.297 . S
O332 C319 1.236 . S
N333 Mn317 2.282 . S
N333 C334 1.328 . S
N333 C338 1.318 . S
C334 N333 1.328 . S
C334 C335 1.457 . S
C334 H339 0.929 . S
C335 C334 1.457 . S
C335 C336 1.291 . S
C335 H348 0.931 . S
C336 C335 1.291 . S
C336 C337 1.373 . S
C336 H349 0.929 . S
C337 C336 1.373 . S
C337 C338 1.396 . S
C337 C344 1.403 . S
C338 C328 1.476 . S
C338 N333 1.318 . S
C338 C337 1.396 . S
H339 C334 0.929 . S
O340 Mn316 2.385 . S
O340 C318 1.234 1_545 S
O341 Mn316 2.209 1_565 S
O341 Mn317 2.215 . S
O341 C318 1.283 . S
O342 Mn316 2.094 . S
O342 C320 1.240 . S
O343 Mn317 2.117 1_545 S
O343 C320 1.264 . S
C344 C337 1.403 . S
C344 C345 1.399 . S
C344 H350 0.929 . S
C345 C325 1.449 . S
C345 C344 1.399 . S
C345 H351 0.930 . S
H346 C326 0.931 . S
H347 C327 0.930 . S
H348 C335 0.931 . S
H349 C336 0.929 . S
H350 C344 0.929 . S
H351 C345 0.930 . S
Mn352 O357 2.095 . S
Mn352 O367 2.162 . S
Mn352 O368 2.297 . S
Mn352 O376 2.385 . S
Mn352 O377 2.209 . S
Mn352 O378 2.094 . S
Mn353 O358 2.121 . S
Mn353 N360 2.257 . S
Mn353 N369 2.282 . S
Mn353 O377 2.215 . S
Mn353 O379 2.117 . S
C354 O376 1.234 . S
C354 O377 1.283 . S
C355 O367 1.281 . S
C355 O368 1.236 . S
C356 O378 1.240 . S
C356 O379 1.264 . S
O357 Mn352 2.095 . S
O357 C366 1.250 . S
O358 Mn353 2.121 . S
O358 C366 1.258 . S
C359 N360 1.326 . S
C359 C363 1.460 . S
C359 H365 0.929 . S
N360 Mn353 2.257 . S
N360 C359 1.326 . S
N360 C364 1.362 . S
C361 C362 1.258 . S
C361 C364 1.431 . S
C361 C381 1.449 . S
C362 C361 1.258 . S
C362 C363 1.477 . S
C362 H382 0.931 . S
C363 C359 1.460 . S
C363 C362 1.477 . S
C363 H383 0.930 . S
C364 N360 1.362 . S
C364 C361 1.431 . S
C364 C374 1.476 . S
H365 C359 0.929 . S
C366 O357 1.250 . S
C366 O358 1.258 . S
O367 Mn352 2.162 . S
O367 C355 1.281 . S
O368 Mn352 2.297 . S
O368 C355 1.236 . S
N369 Mn353 2.282 . S
N369 C370 1.328 . S
N369 C374 1.318 . S
C370 N369 1.328 . S
C370 C371 1.457 . S
C370 H375 0.929 . S
C371 C370 1.457 . S
C371 C372 1.291 . S
C371 H384 0.931 . S
C372 C371 1.291 . S
C372 C373 1.373 . S
C372 H385 0.929 . S
C373 C372 1.373 . S
C373 C374 1.396 . S
C373 C380 1.403 . S
C374 C364 1.476 . S
C374 N369 1.318 . S
C374 C373 1.396 . S
H375 C370 0.929 . S
O376 Mn352 2.385 . S
O376 C354 1.234 . S
O377 Mn352 2.209 . S
O377 Mn353 2.215 . S
O377 C354 1.283 . S
O378 Mn352 2.094 . S
O378 C356 1.240 . S
O379 Mn353 2.117 . S
O379 C356 1.264 . S
C380 C373 1.403 . S
C380 C381 1.399 . S
C380 H386 0.929 . S
C381 C361 1.449 . S
C381 C380 1.399 . S
C381 H387 0.930 . S
H382 C362 0.931 . S
H383 C363 0.930 . S
H384 C371 0.931 . S
H385 C372 0.929 . S
H386 C380 0.929 . S
H387 C381 0.930 . S
Mn388 O393 2.095 . S
Mn388 O403 2.162 . S
Mn388 O404 2.297 . S
Mn388 O412 2.385 . S
Mn388 O413 2.209 . S
Mn388 O414 2.094 . S
Mn389 O394 2.121 . S
Mn389 N396 2.257 . S
Mn389 N405 2.282 . S
Mn389 O413 2.215 . S
Mn389 O415 2.117 . S
C390 O412 1.234 . S
C390 O413 1.283 . S
C391 O403 1.281 . S
C391 O404 1.236 . S
C392 O414 1.240 . S
C392 O415 1.264 . S
O393 Mn388 2.095 . S
O393 C402 1.250 . S
O394 Mn389 2.121 . S
O394 C402 1.258 . S
C395 N396 1.326 . S
C395 C399 1.460 . S
C395 H401 0.929 . S
N396 Mn389 2.257 . S
N396 C395 1.326 . S
N396 C400 1.362 . S
C397 C398 1.258 . S
C397 C400 1.431 . S
C397 C417 1.449 . S
C398 C397 1.258 . S
C398 C399 1.477 . S
C398 H418 0.931 . S
C399 C395 1.460 . S
C399 C398 1.477 . S
C399 H419 0.930 . S
C400 N396 1.362 . S
C400 C397 1.431 . S
C400 C410 1.476 . S
H401 C395 0.929 . S
C402 O393 1.250 . S
C402 O394 1.258 . S
O403 Mn388 2.162 . S
O403 C391 1.281 . S
O404 Mn388 2.297 . S
O404 C391 1.236 . S
N405 Mn389 2.282 . S
N405 C406 1.328 . S
N405 C410 1.318 . S
C406 N405 1.328 . S
C406 C407 1.457 . S
C406 H411 0.929 . S
C407 C406 1.457 . S
C407 C408 1.291 . S
C407 H420 0.931 . S
C408 C407 1.291 . S
C408 C409 1.373 . S
C408 H421 0.929 . S
C409 C408 1.373 . S
C409 C410 1.396 . S
C409 C416 1.403 . S
C410 C400 1.476 . S
C410 N405 1.318 . S
C410 C409 1.396 . S
H411 C406 0.929 . S
O412 Mn388 2.385 . S
O412 C390 1.234 . S
O413 Mn388 2.209 . S
O413 Mn389 2.215 . S
O413 C390 1.283 . S
O414 Mn388 2.094 . S
O414 C392 1.240 . S
O415 Mn389 2.117 . S
O415 C392 1.264 . S
C416 C409 1.403 . S
C416 C417 1.399 . S
C416 H422 0.929 . S
C417 C397 1.449 . S
C417 C416 1.399 . S
C417 H423 0.930 . S
H418 C398 0.931 . S
H419 C399 0.930 . S
H420 C407 0.931 . S
H421 C408 0.929 . S
H422 C416 0.929 . S
H423 C417 0.930 . S
Mn424 O429 2.095 . S
Mn424 O439 2.162 . S
Mn424 O440 2.297 . S
Mn424 O448 2.385 . S
Mn424 O449 2.209 . S
Mn424 O450 2.094 . S
Mn425 O430 2.121 . S
Mn425 N432 2.257 . S
Mn425 N441 2.282 . S
Mn425 O449 2.215 . S
Mn425 O451 2.117 . S
C426 O448 1.234 . S
C426 O449 1.283 . S
C427 O439 1.281 . S
C427 O440 1.236 . S
C428 O450 1.240 . S
C428 O451 1.264 . S
O429 Mn424 2.095 . S
O429 C438 1.250 . S
O430 Mn425 2.121 . S
O430 C438 1.258 . S
C431 N432 1.326 . S
C431 C435 1.460 . S
C431 H437 0.929 . S
N432 Mn425 2.257 . S
N432 C431 1.326 . S
N432 C436 1.362 . S
C433 C434 1.258 . S
C433 C436 1.431 . S
C433 C453 1.449 . S
C434 C433 1.258 . S
C434 C435 1.477 . S
C434 H454 0.931 . S
C435 C431 1.460 . S
C435 C434 1.477 . S
C435 H455 0.930 . S
C436 N432 1.362 . S
C436 C433 1.431 . S
C436 C446 1.476 . S
H437 C431 0.929 . S
C438 O429 1.250 . S
C438 O430 1.258 . S
O439 Mn424 2.162 . S
O439 C427 1.281 . S
O440 Mn424 2.297 . S
O440 C427 1.236 . S
N441 Mn425 2.282 . S
N441 C442 1.328 . S
N441 C446 1.318 . S
C442 N441 1.328 . S
C442 C443 1.457 . S
C442 H447 0.929 . S
C443 C442 1.457 . S
C443 C444 1.291 . S
C443 H456 0.931 . S
C444 C443 1.291 . S
C444 C445 1.373 . S
C444 H457 0.929 . S
C445 C444 1.373 . S
C445 C446 1.396 . S
C445 C452 1.403 . S
C446 C436 1.476 . S
C446 N441 1.318 . S
C446 C445 1.396 . S
H447 C442 0.929 . S
O448 Mn424 2.385 . S
O448 C426 1.234 . S
O449 Mn424 2.209 . S
O449 Mn425 2.215 . S
O449 C426 1.283 . S
O450 Mn424 2.094 . S
O450 C428 1.240 . S
O451 Mn425 2.117 . S
O451 C428 1.264 . S
C452 C445 1.403 . S
C452 C453 1.399 . S
C452 H458 0.929 . S
C453 C433 1.449 . S
C453 C452 1.399 . S
C453 H459 0.930 . S
H454 C434 0.931 . S
H455 C435 0.930 . S
H456 C443 0.931 . S
H457 C444 0.929 . S
H458 C452 0.929 . S
H459 C453 0.930 . S
Mn460 O465 2.095 . S
Mn460 O475 2.162 . S
Mn460 O476 2.297 . S
Mn460 O484 2.385 1_565 S
Mn460 O485 2.209 1_565 S
Mn460 O486 2.094 . S
Mn461 O466 2.121 . S
Mn461 N468 2.257 . S
Mn461 N477 2.282 . S
Mn461 O485 2.215 . S
Mn461 O487 2.117 . S
C462 O484 1.234 . S
C462 O485 1.283 . S
C463 O475 1.281 . S
C463 O476 1.236 . S
C464 O486 1.240 . S
C464 O487 1.264 1_565 S
O465 Mn460 2.095 . S
O465 C474 1.250 1_565 S
O466 Mn461 2.121 . S
O466 C474 1.258 . S
C467 N468 1.326 . S
C467 C471 1.460 . S
C467 H473 0.929 . S
N468 Mn461 2.257 . S
N468 C467 1.326 . S
N468 C472 1.362 . S
C469 C470 1.258 . S
C469 C472 1.431 . S
C469 C489 1.449 . S
C470 C469 1.258 . S
C470 C471 1.477 . S
C470 H490 0.931 . S
C471 C467 1.460 . S
C471 C470 1.477 . S
C471 H491 0.930 . S
C472 N468 1.362 . S
C472 C469 1.431 . S
C472 C482 1.476 . S
H473 C467 0.929 . S
C474 O465 1.250 1_545 S
C474 O466 1.258 . S
O475 Mn460 2.162 . S
O475 C463 1.281 . S
O476 Mn460 2.297 . S
O476 C463 1.236 . S
N477 Mn461 2.282 . S
N477 C478 1.328 . S
N477 C482 1.318 . S
C478 N477 1.328 . S
C478 C479 1.457 . S
C478 H483 0.929 . S
C479 C478 1.457 . S
C479 C480 1.291 . S
C479 H492 0.931 . S
C480 C479 1.291 . S
C480 C481 1.373 . S
C480 H493 0.929 . S
C481 C480 1.373 . S
C481 C482 1.396 . S
C481 C488 1.403 . S
C482 C472 1.476 . S
C482 N477 1.318 . S
C482 C481 1.396 . S
H483 C478 0.929 . S
O484 Mn460 2.385 1_545 S
O484 C462 1.234 . S
O485 Mn460 2.209 1_545 S
O485 Mn461 2.215 . S
O485 C462 1.283 . S
O486 Mn460 2.094 . S
O486 C464 1.240 . S
O487 Mn461 2.117 . S
O487 C464 1.264 1_545 S
C488 C481 1.403 . S
C488 C489 1.399 . S
C488 H494 0.929 . S
C489 C469 1.449 . S
C489 C488 1.399 . S
C489 H495 0.930 . S
H490 C470 0.931 . S
H491 C471 0.930 . S
H492 C479 0.931 . S
H493 C480 0.929 . S
H494 C488 0.929 . S
H495 C489 0.930 . S
Mn496 O501 2.095 . S
Mn496 O511 2.162 . S
Mn496 O512 2.297 . S
Mn496 O520 2.385 1_455 S
Mn496 O521 2.209 1_455 S
Mn496 O522 2.094 . S
Mn497 O502 2.121 . S
Mn497 N504 2.257 . S
Mn497 N513 2.282 . S
Mn497 O521 2.215 . S
Mn497 O523 2.117 . S
C498 O520 1.234 . S
C498 O521 1.283 . S
C499 O511 1.281 . S
C499 O512 1.236 . S
C500 O522 1.240 1_655 S
C500 O523 1.264 . S
O501 Mn496 2.095 . S
O501 C510 1.250 1_455 S
O502 Mn497 2.121 . S
O502 C510 1.258 . S
C503 N504 1.326 . S
C503 C507 1.460 . S
C503 H509 0.929 . S
N504 Mn497 2.257 . S
N504 C503 1.326 . S
N504 C508 1.362 . S
C505 C506 1.258 . S
C505 C508 1.431 . S
C505 C525 1.449 . S
C506 C505 1.258 . S
C506 C507 1.477 . S
C506 H526 0.931 . S
C507 C503 1.460 . S
C507 C506 1.477 . S
C507 H527 0.930 . S
C508 N504 1.362 . S
C508 C505 1.431 . S
C508 C518 1.476 . S
H509 C503 0.929 . S
C510 O501 1.250 1_655 S
C510 O502 1.258 . S
O511 Mn496 2.162 . S
O511 C499 1.281 . S
O512 Mn496 2.297 . S
O512 C499 1.236 . S
N513 Mn497 2.282 . S
N513 C514 1.328 . S
N513 C518 1.318 . S
C514 N513 1.328 . S
C514 C515 1.457 . S
C514 H519 0.929 . S
C515 C514 1.457 . S
C515 C516 1.291 . S
C515 H528 0.931 . S
C516 C515 1.291 . S
C516 C517 1.373 . S
C516 H529 0.929 . S
C517 C516 1.373 . S
C517 C518 1.396 . S
C517 C524 1.403 . S
C518 C508 1.476 . S
C518 N513 1.318 . S
C518 C517 1.396 . S
H519 C514 0.929 . S
O520 Mn496 2.385 1_655 S
O520 C498 1.234 . S
O521 Mn496 2.209 1_655 S
O521 Mn497 2.215 . S
O521 C498 1.283 . S
O522 Mn496 2.094 . S
O522 C500 1.240 1_455 S
O523 Mn497 2.117 . S
O523 C500 1.264 . S
C524 C517 1.403 . S
C524 C525 1.399 . S
C524 H530 0.929 . S
C525 C505 1.449 . S
C525 C524 1.399 . S
C525 H531 0.930 . S
H526 C506 0.931 . S
H527 C507 0.930 . S
H528 C515 0.931 . S
H529 C516 0.929 . S
H530 C524 0.929 . S
H531 C525 0.930 . S
Mn532 O537 2.095 . S
Mn532 O547 2.162 . S
Mn532 O548 2.297 . S
Mn532 O556 2.385 . S
Mn532 O557 2.209 . S
Mn532 O558 2.094 . S
Mn533 O538 2.121 . S
Mn533 N540 2.257 . S
Mn533 N549 2.282 . S
Mn533 O557 2.215 . S
Mn533 O559 2.117 . S
C534 O556 1.234 . S
C534 O557 1.283 . S
C535 O547 1.281 . S
C535 O548 1.236 . S
C536 O558 1.240 . S
C536 O559 1.264 . S
O537 Mn532 2.095 . S
O537 C546 1.250 . S
O538 Mn533 2.121 . S
O538 C546 1.258 . S
C539 N540 1.326 . S
C539 C543 1.460 . S
C539 H545 0.929 . S
N540 Mn533 2.257 . S
N540 C539 1.326 . S
N540 C544 1.362 . S
C541 C542 1.258 . S
C541 C544 1.431 . S
C541 C561 1.449 . S
C542 C541 1.258 . S
C542 C543 1.477 . S
C542 H562 0.931 . S
C543 C539 1.460 . S
C543 C542 1.477 . S
C543 H563 0.930 . S
C544 N540 1.362 . S
C544 C541 1.431 . S
C544 C554 1.476 . S
H545 C539 0.929 . S
C546 O537 1.250 . S
C546 O538 1.258 . S
O547 Mn532 2.162 . S
O547 C535 1.281 . S
O548 Mn532 2.297 . S
O548 C535 1.236 . S
N549 Mn533 2.282 . S
N549 C550 1.328 . S
N549 C554 1.318 . S
C550 N549 1.328 . S
C550 C551 1.457 . S
C550 H555 0.929 . S
C551 C550 1.457 . S
C551 C552 1.291 . S
C551 H564 0.931 . S
C552 C551 1.291 . S
C552 C553 1.373 . S
C552 H565 0.929 . S
C553 C552 1.373 . S
C553 C554 1.396 . S
C553 C560 1.403 . S
C554 C544 1.476 . S
C554 N549 1.318 . S
C554 C553 1.396 . S
H555 C550 0.929 . S
O556 Mn532 2.385 . S
O556 C534 1.234 . S
O557 Mn532 2.209 . S
O557 Mn533 2.215 . S
O557 C534 1.283 . S
O558 Mn532 2.094 . S
O558 C536 1.240 . S
O559 Mn533 2.117 . S
O559 C536 1.264 . S
C560 C553 1.403 . S
C560 C561 1.399 . S
C560 H566 0.929 . S
C561 C541 1.449 . S
C561 C560 1.399 . S
C561 H567 0.930 . S
H562 C542 0.931 . S
H563 C543 0.930 . S
H564 C551 0.931 . S
H565 C552 0.929 . S
H566 C560 0.929 . S
H567 C561 0.930 . S
Mn568 O573 2.095 . S
Mn568 O583 2.162 . S
Mn568 O584 2.297 . S
Mn568 O592 2.385 . S
Mn568 O593 2.209 . S
Mn568 O594 2.094 . S
Mn569 O574 2.121 1_455 S
Mn569 N576 2.257 1_455 S
Mn569 N585 2.282 . S
Mn569 O593 2.215 . S
Mn569 O595 2.117 . S
C570 O592 1.234 . S
C570 O593 1.283 . S
C571 O583 1.281 . S
C571 O584 1.236 . S
C572 O594 1.240 . S
C572 O595 1.264 . S
O573 Mn568 2.095 . S
O573 C582 1.250 1_455 S
O574 Mn569 2.121 1_655 S
O574 C582 1.258 . S
C575 N576 1.326 . S
C575 C579 1.460 . S
C575 H581 0.929 . S
N576 Mn569 2.257 1_655 S
N576 C575 1.326 . S
N576 C580 1.362 . S
C577 C578 1.258 . S
C577 C580 1.431 . S
C577 C597 1.449 . S
C578 C577 1.258 . S
C578 C579 1.477 . S
C578 H598 0.931 . S
C579 C575 1.460 . S
C579 C578 1.477 . S
C579 H599 0.930 . S
C580 N576 1.362 . S
C580 C577 1.431 . S
C580 C590 1.476 . S
H581 C575 0.929 . S
C582 O573 1.250 1_655 S
C582 O574 1.258 . S
O583 Mn568 2.162 . S
O583 C571 1.281 . S
O584 Mn568 2.297 . S
O584 C571 1.236 . S
N585 Mn569 2.282 . S
N585 C586 1.328 . S
N585 C590 1.318 1_455 S
C586 N585 1.328 . S
C586 C587 1.457 . S
C586 H591 0.929 . S
C587 C586 1.457 . S
C587 C588 1.291 . S
C587 H600 0.931 . S
C588 C587 1.291 . S
C588 C589 1.373 . S
C588 H601 0.929 . S
C589 C588 1.373 . S
C589 C590 1.396 1_455 S
C589 C596 1.403 1_455 S
C590 C580 1.476 . S
C590 N585 1.318 1_655 S
C590 C589 1.396 1_655 S
H591 C586 0.929 . S
O592 Mn568 2.385 . S
O592 C570 1.234 . S
O593 Mn568 2.209 . S
O593 Mn569 2.215 . S
O593 C570 1.283 . S
O594 Mn568 2.094 . S
O594 C572 1.240 . S
O595 Mn569 2.117 . S
O595 C572 1.264 . S
C596 C589 1.403 1_655 S
C596 C597 1.399 . S
C596 H602 0.929 . S
C597 C577 1.449 . S
C597 C596 1.399 . S
C597 H603 0.930 . S
H598 C578 0.931 . S
H599 C579 0.930 . S
H600 C587 0.931 . S
H601 C588 0.929 . S
H602 C596 0.929 . S
H603 C597 0.930 . S
Mn604 O609 2.095 . S
Mn604 O619 2.162 . S
Mn604 O620 2.297 . S
Mn604 O628 2.385 . S
Mn604 O629 2.209 . S
Mn604 O630 2.094 . S
Mn605 O610 2.121 . S
Mn605 N612 2.257 . S
Mn605 N621 2.282 . S
Mn605 O629 2.215 . S
Mn605 O631 2.117 . S
C606 O628 1.234 . S
C606 O629 1.283 . S
C607 O619 1.281 . S
C607 O620 1.236 . S
C608 O630 1.240 . S
C608 O631 1.264 . S
O609 Mn604 2.095 . S
O609 C618 1.250 . S
O610 Mn605 2.121 . S
O610 C618 1.258 . S
C611 N612 1.326 . S
C611 C615 1.460 . S
C611 H617 0.929 . S
N612 Mn605 2.257 . S
N612 C611 1.326 . S
N612 C616 1.362 . S
C613 C614 1.258 . S
C613 C616 1.431 . S
C613 C633 1.449 . S
C614 C613 1.258 . S
C614 C615 1.477 . S
C614 H634 0.931 . S
C615 C611 1.460 . S
C615 C614 1.477 . S
C615 H635 0.930 . S
C616 N612 1.362 . S
C616 C613 1.431 . S
C616 C626 1.476 . S
H617 C611 0.929 . S
C618 O609 1.250 . S
C618 O610 1.258 . S
O619 Mn604 2.162 . S
O619 C607 1.281 . S
O620 Mn604 2.297 . S
O620 C607 1.236 . S
N621 Mn605 2.282 . S
N621 C622 1.328 . S
N621 C626 1.318 . S
C622 N621 1.328 . S
C622 C623 1.457 . S
C622 H627 0.929 . S
C623 C622 1.457 . S
C623 C624 1.291 . S
C623 H636 0.931 . S
C624 C623 1.291 . S
C624 C625 1.373 . S
C624 H637 0.929 . S
C625 C624 1.373 . S
C625 C626 1.396 . S
C625 C632 1.403 . S
C626 C616 1.476 . S
C626 N621 1.318 . S
C626 C625 1.396 . S
H627 C622 0.929 . S
O628 Mn604 2.385 . S
O628 C606 1.234 . S
O629 Mn604 2.209 . S
O629 Mn605 2.215 . S
O629 C606 1.283 . S
O630 Mn604 2.094 . S
O630 C608 1.240 . S
O631 Mn605 2.117 . S
O631 C608 1.264 . S
C632 C625 1.403 . S
C632 C633 1.399 . S
C632 H638 0.929 . S
C633 C613 1.449 . S
C633 C632 1.399 . S
C633 H639 0.930 . S
H634 C614 0.931 . S
H635 C615 0.930 . S
H636 C623 0.931 . S
H637 C624 0.929 . S
H638 C632 0.929 . S
H639 C633 0.930 . S
H640 C646 0.930 . S
H641 C650 0.930 . S
H642 C655 0.929 . S
H643 C653 0.929 . S
H644 C648 0.929 . S
H645 C654 0.929 . S
C646 H640 0.930 . S
C646 C647 1.367 . S
C646 C654 1.378 . S
C647 C646 1.367 . S
C647 C655 1.433 . S
C648 H644 0.929 . S
C648 C650 1.378 . S
C648 C652 1.350 . S
C649 C652 1.463 . S
C649 C654 1.350 . S
C649 N657 1.427 . S
C650 H641 0.930 . S
C650 C648 1.378 . S
C650 C651 1.367 . S
C651 C650 1.367 . S
C651 C653 1.433 . S
C652 C648 1.350 . S
C652 C649 1.463 . S
C652 N656 1.427 . S
C653 H643 0.929 . S
C653 C651 1.433 . S
C653 N656 1.384 . S
C654 H645 0.929 . S
C654 C646 1.378 . S
C654 C649 1.350 . S
C655 H642 0.929 . S
C655 C647 1.433 . S
C655 N657 1.384 . S
N656 C652 1.427 . S
N656 C653 1.384 . S
N657 C649 1.427 . S
N657 C655 1.384 . S
H658 C664 0.930 . S
H659 C668 0.930 . S
H660 C673 0.929 . S
H661 C671 0.929 . S
H662 C666 0.929 . S
H663 C672 0.929 . S
C664 H658 0.930 . S
C664 C665 1.367 . S
C664 C672 1.378 . S
C665 C664 1.367 . S
C665 C673 1.433 . S
C666 H662 0.929 . S
C666 C668 1.378 . S
C666 C670 1.350 . S
C667 C670 1.463 . S
C667 C672 1.350 . S
C667 N675 1.427 . S
C668 H659 0.930 . S
C668 C666 1.378 . S
C668 C669 1.367 . S
C669 C668 1.367 . S
C669 C671 1.433 . S
C670 C666 1.350 . S
C670 C667 1.463 . S
C670 N674 1.427 . S
C671 H661 0.929 . S
C671 C669 1.433 . S
C671 N674 1.384 . S
C672 H663 0.929 . S
C672 C664 1.378 . S
C672 C667 1.350 . S
C673 H660 0.929 . S
C673 C665 1.433 . S
C673 N675 1.384 . S
N674 C670 1.427 . S
N674 C671 1.384 . S
N675 C667 1.427 . S
N675 C673 1.384 . S
H676 C682 0.930 . S
H677 C686 0.930 . S
H678 C691 0.929 . S
H679 C689 0.929 . S
H680 C684 0.929 . S
H681 C690 0.929 . S
C682 H676 0.930 . S
C682 C683 1.367 . S
C682 C690 1.378 . S
C683 C682 1.367 . S
C683 C691 1.433 . S
C684 H680 0.929 . S
C684 C686 1.378 . S
C684 C688 1.350 . S
C685 C688 1.463 . S
C685 C690 1.350 . S
C685 N693 1.427 . S
C686 H677 0.930 . S
C686 C684 1.378 . S
C686 C687 1.367 . S
C687 C686 1.367 . S
C687 C689 1.433 . S
C688 C684 1.350 . S
C688 C685 1.463 . S
C688 N692 1.427 . S
C689 H679 0.929 . S
C689 C687 1.433 . S
C689 N692 1.384 . S
C690 H681 0.929 . S
C690 C682 1.378 . S
C690 C685 1.350 . S
C691 H678 0.929 . S
C691 C683 1.433 . S
C691 N693 1.384 . S
N692 C688 1.427 . S
N692 C689 1.384 . S
N693 C685 1.427 . S
N693 C691 1.384 . S
H694 C700 0.930 . S
H695 C704 0.930 . S
H696 C709 0.929 . S
H697 C707 0.929 . S
H698 C702 0.929 . S
H699 C708 0.929 . S
C700 H694 0.930 . S
C700 C701 1.367 1_545 S
C700 C708 1.378 . S
C701 C700 1.367 1_565 S
C701 C709 1.433 . S
C702 H698 0.929 . S
C702 C704 1.378 . S
C702 C706 1.350 1_565 S
C703 C706 1.463 . S
C703 C708 1.353 . S
C703 N711 1.423 1_545 S
C704 H695 0.930 . S
C704 C702 1.378 . S
C704 C705 1.367 1_565 S
C705 C704 1.367 1_545 S
C705 C707 1.433 . S
C706 C702 1.350 1_545 S
C706 C703 1.463 . S
C706 N710 1.427 . S
C707 H697 0.929 . S
C707 C705 1.433 . S
C707 N710 1.384 . S
C708 H699 0.929 . S
C708 C700 1.378 . S
C708 C703 1.353 . S
C709 H696 0.929 . S
C709 C701 1.433 . S
C709 N711 1.384 . S
N710 C706 1.427 . S
N710 C707 1.384 . S
N711 C703 1.423 1_565 S
N711 C709 1.384 . S
H712 C718 0.930 . S
H713 C722 0.930 . S
H714 C727 0.929 . S
H715 C725 0.929 . S
H716 C720 0.929 . S
H717 C726 0.929 . S
C718 H712 0.930 . S
C718 C719 1.367 . S
C718 C726 1.378 . S
C719 C718 1.367 . S
C719 C727 1.433 . S
C720 H716 0.929 . S
C720 C722 1.378 . S
C720 C724 1.350 . S
C721 C724 1.463 . S
C721 C726 1.350 . S
C721 N729 1.427 . S
C722 H713 0.930 . S
C722 C720 1.378 . S
C722 C723 1.367 . S
C723 C722 1.367 . S
C723 C725 1.433 . S
C724 C720 1.350 . S
C724 C721 1.463 . S
C724 N728 1.427 . S
C725 H715 0.929 . S
C725 C723 1.433 . S
C725 N728 1.384 . S
C726 H717 0.929 . S
C726 C718 1.378 . S
C726 C721 1.350 . S
C727 H714 0.929 . S
C727 C719 1.433 . S
C727 N729 1.384 . S
N728 C724 1.427 . S
N728 C725 1.384 . S
N729 C721 1.427 . S
N729 C727 1.384 . S
H730 C736 0.930 . S
H731 C740 0.930 . S
H732 C745 0.929 . S
H733 C743 0.929 . S
H734 C738 0.929 . S
H735 C744 0.929 . S
C736 H730 0.930 . S
C736 C737 1.367 . S
C736 C744 1.378 . S
C737 C736 1.367 . S
C737 C745 1.433 . S
C738 H734 0.929 . S
C738 C740 1.378 . S
C738 C742 1.350 . S
C739 C742 1.463 . S
C739 C744 1.350 . S
C739 N747 1.427 . S
C740 H731 0.930 . S
C740 C738 1.378 . S
C740 C741 1.367 . S
C741 C740 1.367 . S
C741 C743 1.433 . S
C742 C738 1.350 . S
C742 C739 1.463 . S
C742 N746 1.427 . S
C743 H733 0.929 . S
C743 C741 1.433 . S
C743 N746 1.384 . S
C744 H735 0.929 . S
C744 C736 1.378 . S
C744 C739 1.350 . S
C745 H732 0.929 . S
C745 C737 1.433 . S
C745 N747 1.384 . S
N746 C742 1.427 . S
N746 C743 1.384 . S
N747 C739 1.427 . S
N747 C745 1.384 . S
H748 C754 0.930 . S
H749 C758 0.930 . S
H750 C763 0.929 . S
H751 C761 0.929 . S
H752 C756 0.929 . S
H753 C762 0.929 . S
C754 H748 0.930 . S
C754 C755 1.367 . S
C754 C762 1.378 . S
C755 C754 1.367 . S
C755 C763 1.433 . S
C756 H752 0.929 . S
C756 C758 1.378 . S
C756 C760 1.350 . S
C757 C760 1.463 . S
C757 C762 1.350 . S
C757 N765 1.427 . S
C758 H749 0.930 . S
C758 C756 1.378 . S
C758 C759 1.367 . S
C759 C758 1.367 . S
C759 C761 1.433 . S
C760 C756 1.350 . S
C760 C757 1.463 . S
C760 N764 1.427 . S
C761 H751 0.929 . S
C761 C759 1.433 . S
C761 N764 1.384 . S
C762 H753 0.929 . S
C762 C754 1.378 . S
C762 C757 1.350 . S
C763 H750 0.929 . S
C763 C755 1.433 . S
C763 N765 1.384 . S
N764 C760 1.427 . S
N764 C761 1.384 . S
N765 C757 1.427 . S
N765 C763 1.384 . S
H766 C772 0.930 . S
H767 C776 0.930 . S
H768 C781 0.929 . S
H769 C779 0.929 . S
H770 C774 0.929 . S
H771 C780 0.929 . S
C772 H766 0.930 . S
C772 C773 1.367 . S
C772 C780 1.378 . S
C773 C772 1.367 . S
C773 C781 1.433 1_565 S
C774 H770 0.929 . S
C774 C776 1.378 . S
C774 C778 1.350 1_545 S
C775 C778 1.463 . S
C775 C780 1.350 . S
C775 N783 1.427 1_565 S
C776 H767 0.930 . S
C776 C774 1.378 . S
C776 C777 1.367 1_545 S
C777 C776 1.367 1_565 S
C777 C779 1.433 . S
C778 C774 1.350 1_565 S
C778 C775 1.463 . S
C778 N782 1.427 . S
C779 H769 0.929 . S
C779 C777 1.433 . S
C779 N782 1.384 . S
C780 H771 0.929 . S
C780 C772 1.378 . S
C780 C775 1.350 . S
C781 H768 0.929 . S
C781 C773 1.433 1_545 S
C781 N783 1.384 . S
N782 C778 1.427 . S
N782 C779 1.384 . S
N783 C775 1.427 1_545 S
N783 C781 1.384 . S
H784 C790 0.930 . S
H785 C794 0.930 . S
H786 C799 0.929 . S
H787 C797 0.929 . S
H788 C792 0.929 . S
H789 C798 0.929 . S
C790 H784 0.930 . S
C790 C791 1.367 . S
C790 C798 1.378 . S
C791 C790 1.367 . S
C791 C799 1.433 . S
C792 H788 0.929 . S
C792 C794 1.378 . S
C792 C796 1.350 . S
C793 C796 1.463 . S
C793 C798 1.350 . S
C793 N801 1.427 . S
C794 H785 0.930 . S
C794 C792 1.378 . S
C794 C795 1.367 . S
C795 C794 1.367 . S
C795 C797 1.433 . S
C796 C792 1.350 . S
C796 C793 1.463 . S
C796 N800 1.427 . S
C797 H787 0.929 . S
C797 C795 1.433 . S
C797 N800 1.384 . S
C798 H789 0.929 . S
C798 C790 1.378 . S
C798 C793 1.350 . S
C799 H786 0.929 . S
C799 C791 1.433 . S
C799 N801 1.384 . S
N800 C796 1.427 . S
N800 C797 1.384 . S
N801 C793 1.427 . S
N801 C799 1.384 . S
H802 C808 0.930 . S
H803 C812 0.930 . S
H804 C817 0.929 . S
H805 C815 0.929 . S
H806 C810 0.929 . S
H807 C816 0.929 . S
C808 H802 0.930 . S
C808 C809 1.367 . S
C808 C816 1.378 . S
C809 C808 1.367 . S
C809 C817 1.433 . S
C810 H806 0.929 . S
C810 C812 1.378 . S
C810 C814 1.350 . S
C811 C814 1.463 . S
C811 C816 1.350 . S
C811 N819 1.427 . S
C812 H803 0.930 . S
C812 C810 1.378 . S
C812 C813 1.367 . S
C813 C812 1.367 . S
C813 C815 1.433 . S
C814 C810 1.350 . S
C814 C811 1.463 . S
C814 N818 1.427 . S
C815 H805 0.929 . S
C815 C813 1.433 . S
C815 N818 1.384 . S
C816 H807 0.929 . S
C816 C808 1.378 . S
C816 C811 1.350 . S
C817 H804 0.929 . S
C817 C809 1.433 . S
C817 N819 1.384 . S
N818 C814 1.427 . S
N818 C815 1.384 . S
N819 C811 1.427 . S
N819 C817 1.384 . S
H820 C826 0.930 . S
H821 C830 0.930 . S
H822 C835 0.929 . S
H823 C833 0.929 . S
H824 C828 0.929 . S
H825 C834 0.929 . S
C826 H820 0.930 . S
C826 C827 1.367 . S
C826 C834 1.378 . S
C827 C826 1.367 . S
C827 C835 1.433 . S
C828 H824 0.929 . S
C828 C830 1.378 . S
C828 C832 1.350 . S
C829 C832 1.463 . S
C829 C834 1.350 . S
C829 N837 1.427 . S
C830 H821 0.930 . S
C830 C828 1.378 . S
C830 C831 1.367 . S
C831 C830 1.367 . S
C831 C833 1.433 . S
C832 C828 1.350 . S
C832 C829 1.463 . S
C832 N836 1.427 . S
C833 H823 0.929 . S
C833 C831 1.433 . S
C833 N836 1.384 . S
C834 H825 0.929 . S
C834 C826 1.378 . S
C834 C829 1.350 . S
C835 H822 0.929 . S
C835 C827 1.433 . S
C835 N837 1.384 . S
N836 C832 1.427 . S
N836 C833 1.384 . S
N837 C829 1.427 . S
N837 C835 1.384 . S
H838 C844 0.930 . S
H839 C848 0.930 . S
H840 C853 0.929 . S
H841 C851 0.929 . S
H842 C846 0.929 . S
H843 C852 0.929 . S
C844 H838 0.930 . S
C844 C845 1.367 . S
C844 C852 1.378 . S
C845 C844 1.367 . S
C845 C853 1.433 . S
C846 H842 0.929 . S
C846 C848 1.378 . S
C846 C850 1.350 . S
C847 C850 1.463 . S
C847 C852 1.350 . S
C847 N855 1.427 . S
C848 H839 0.930 . S
C848 C846 1.378 . S
C848 C849 1.367 . S
C849 C848 1.367 . S
C849 C851 1.433 . S
C850 C846 1.350 . S
C850 C847 1.463 . S
C850 N854 1.427 . S
C851 H841 0.929 . S
C851 C849 1.433 . S
C851 N854 1.384 . S
C852 H843 0.929 . S
C852 C844 1.378 . S
C852 C847 1.350 . S
C853 H840 0.929 . S
C853 C845 1.433 . S
C853 N855 1.384 . S
N854 C850 1.427 . S
N854 C851 1.384 . S
N855 C847 1.427 . S
N855 C853 1.384 . S
H856 C862 0.930 . S
H857 C866 0.930 . S
H858 C871 0.929 . S
H859 C869 0.929 . S
H860 C864 0.929 . S
H861 C870 0.929 . S
C862 H856 0.930 . S
C862 C863 1.367 . S
C862 C870 1.378 . S
C863 C862 1.367 . S
C863 C871 1.433 . S
C864 H860 0.929 . S
C864 C866 1.378 . S
C864 C868 1.350 . S
C865 C868 1.463 . S
C865 C870 1.350 . S
C865 N873 1.427 . S
C866 H857 0.930 . S
C866 C864 1.378 . S
C866 C867 1.367 . S
C867 C866 1.367 . S
C867 C869 1.433 . S
C868 C864 1.350 . S
C868 C865 1.463 . S
C868 N872 1.427 . S
C869 H859 0.929 . S
C869 C867 1.433 . S
C869 N872 1.384 . S
C870 H861 0.929 . S
C870 C862 1.378 . S
C870 C865 1.350 . S
C871 H858 0.929 . S
C871 C863 1.433 . S
C871 N873 1.384 . S
N872 C868 1.427 . S
N872 C869 1.384 . S
N873 C865 1.427 . S
N873 C871 1.384 . S
H874 C880 0.930 . S
H875 C884 0.930 1_655 S
H876 C889 0.929 . S
H877 C887 0.929 . S
H878 C882 0.929 1_655 S
H879 C888 0.929 . S
C880 H874 0.930 . S
C880 C881 1.367 . S
C880 C888 1.378 . S
C881 C880 1.367 . S
C881 C889 1.433 . S
C882 H878 0.929 1_455 S
C882 C884 1.378 . S
C882 C886 1.350 . S
C883 C886 1.463 . S
C883 C888 1.350 . S
C883 N891 1.427 . S
C884 H875 0.930 1_455 S
C884 C882 1.378 . S
C884 C885 1.367 . S
C885 C884 1.367 . S
C885 C887 1.433 . S
C886 C882 1.350 . S
C886 C883 1.463 . S
C886 N890 1.427 . S
C887 H877 0.929 . S
C887 C885 1.433 . S
C887 N890 1.384 . S
C888 H879 0.929 . S
C888 C880 1.378 . S
C888 C883 1.350 . S
C889 H876 0.929 . S
C889 C881 1.433 . S
C889 N891 1.384 . S
N890 C886 1.427 . S
N890 C887 1.384 . S
N891 C883 1.427 . S
N891 C889 1.384 . S
H892 C898 0.930 . S
H893 C902 0.930 . S
H894 C907 0.929 . S
H895 C905 0.929 . S
H896 C900 0.929 . S
H897 C906 0.929 . S
C898 H892 0.930 . S
C898 C899 1.367 . S
C898 C906 1.378 . S
C899 C898 1.367 . S
C899 C907 1.433 . S
C900 H896 0.929 . S
C900 C902 1.378 . S
C900 C904 1.350 . S
C901 C904 1.463 . S
C901 C906 1.350 . S
C901 N909 1.427 . S
C902 H893 0.930 . S
C902 C900 1.378 . S
C902 C903 1.367 . S
C903 C902 1.367 . S
C903 C905 1.433 . S
C904 C900 1.350 . S
C904 C901 1.463 . S
C904 N908 1.427 . S
C905 H895 0.929 . S
C905 C903 1.433 . S
C905 N908 1.384 . S
C906 H897 0.929 . S
C906 C898 1.378 . S
C906 C901 1.350 . S
C907 H894 0.929 . S
C907 C899 1.433 . S
C907 N909 1.384 . S
N908 C904 1.427 . S
N908 C905 1.384 . S
N909 C901 1.427 . S
N909 C907 1.384 . S
H910 C916 0.930 . S
H911 C920 0.930 . S
H912 C925 0.929 . S
H913 C923 0.929 . S
H914 C918 0.929 . S
H915 C924 0.929 . S
C916 H910 0.930 . S
C916 C917 1.367 . S
C916 C924 1.378 . S
C917 C916 1.367 . S
C917 C925 1.433 1_655 S
C918 H914 0.929 . S
C918 C920 1.378 . S
C918 C922 1.350 . S
C919 C922 1.462 1_655 S
C919 C924 1.352 . S
C919 N927 1.425 1_655 S
C920 H911 0.930 . S
C920 C918 1.378 . S
C920 C921 1.367 . S
C921 C920 1.367 . S
C921 C923 1.433 1_455 S
C922 C918 1.350 . S
C922 C919 1.462 1_455 S
C922 N926 1.427 1_455 S
C923 H913 0.929 . S
C923 C921 1.433 1_655 S
C923 N926 1.384 . S
C924 H915 0.929 . S
C924 C916 1.378 . S
C924 C919 1.352 . S
C925 H912 0.929 . S
C925 C917 1.433 1_455 S
C925 N927 1.384 . S
N926 C922 1.427 1_655 S
N926 C923 1.384 . S
N927 C919 1.425 1_455 S
N927 C925 1.384 . S
H928 C934 0.930 . S
H929 C938 0.930 . S
H930 C943 0.929 . S
H931 C941 0.929 . S
H932 C936 0.929 . S
H933 C942 0.929 . S
C934 H928 0.930 . S
C934 C935 1.367 . S
C934 C942 1.378 . S
C935 C934 1.367 . S
C935 C943 1.433 . S
C936 H932 0.929 . S
C936 C938 1.378 . S
C936 C940 1.350 . S
C937 C940 1.463 . S
C937 C942 1.350 . S
C937 N945 1.427 . S
C938 H929 0.930 . S
C938 C936 1.378 . S
C938 C939 1.367 . S
C939 C938 1.367 . S
C939 C941 1.433 . S
C940 C936 1.350 . S
C940 C937 1.463 . S
C940 N944 1.427 . S
C941 H931 0.929 . S
C941 C939 1.433 . S
C941 N944 1.384 . S
C942 H933 0.929 . S
C942 C934 1.378 . S
C942 C937 1.350 . S
C943 H930 0.929 . S
C943 C935 1.433 . S
C943 N945 1.384 . S
N944 C940 1.427 . S
N944 C941 1.384 . S
N945 C937 1.427 . S
N945 C943 1.384 . S
H946 C952 0.930 . S
H947 C956 0.930 . S
H948 C961 0.929 . S
H949 C959 0.929 . S
H950 C954 0.929 . S
H951 C960 0.929 . S
C952 H946 0.930 . S
C952 C953 1.367 . S
C952 C960 1.378 . S
C953 C952 1.367 . S
C953 C961 1.433 . S
C954 H950 0.929 . S
C954 C956 1.378 . S
C954 C958 1.350 . S
C955 C958 1.463 . S
C955 C960 1.350 . S
C955 N963 1.427 . S
C956 H947 0.930 . S
C956 C954 1.378 . S
C956 C957 1.367 . S
C957 C956 1.367 . S
C957 C959 1.433 . S
C958 C954 1.350 . S
C958 C955 1.463 . S
C958 N962 1.427 . S
C959 H949 0.929 . S
C959 C957 1.433 . S
C959 N962 1.384 . S
C960 H951 0.929 . S
C960 C952 1.378 . S
C960 C955 1.350 . S
C961 H948 0.929 . S
C961 C953 1.433 . S
C961 N963 1.384 . S
N962 C958 1.427 . S
N962 C959 1.384 . S
N963 C955 1.427 . S
N963 C961 1.384 . S
H964 C970 0.930 . S
H965 C974 0.930 . S
H966 C979 0.929 . S
H967 C977 0.929 . S
H968 C972 0.929 . S
H969 C978 0.932 . S
C970 H964 0.930 . S
C970 C971 1.367 . S
C970 C978 1.378 . S
C971 C970 1.367 . S
C971 C979 1.433 1_556 S
C972 H968 0.929 . S
C972 C974 1.378 . S
C972 C976 1.350 1_554 S
C973 C976 1.463 . S
C973 C978 1.350 1_565 S
C973 N981 1.427 1_556 S
C974 H965 0.930 . S
C974 C972 1.378 . S
C974 C975 1.367 1_554 S
C975 C974 1.367 1_556 S
C975 C977 1.433 . S
C976 C972 1.350 1_556 S
C976 C973 1.463 . S
C976 N980 1.427 . S
C977 H967 0.929 . S
C977 C975 1.433 . S
C977 N980 1.384 . S
C978 H969 0.932 . S
C978 C970 1.378 . S
C978 C973 1.350 1_545 S
C979 H966 0.929 . S
C979 C971 1.433 1_554 S
C979 N981 1.384 1_545 S
N980 C976 1.427 . S
N980 C977 1.384 . S
N981 C973 1.427 1_554 S
N981 C979 1.384 1_565 S
H982 C988 0.930 . S
H983 C992 0.930 . S
H984 C997 0.929 . S
H985 C995 0.929 . S
H986 C990 0.929 . S
H987 C996 0.929 . S
C988 H982 0.930 . S
C988 C989 1.367 . S
C988 C996 1.378 . S
C989 C988 1.367 . S
C989 C997 1.433 . S
C990 H986 0.929 . S
C990 C992 1.378 . S
C990 C994 1.350 . S
C991 C994 1.463 . S
C991 C996 1.350 . S
C991 N999 1.427 . S
C992 H983 0.930 . S
C992 C990 1.378 . S
C992 C993 1.367 . S
C993 C992 1.367 . S
C993 C995 1.433 . S
C994 C990 1.350 . S
C994 C991 1.463 . S
C994 N998 1.427 . S
C995 H985 0.929 . S
C995 C993 1.433 . S
C995 N998 1.384 . S
C996 H987 0.929 . S
C996 C988 1.378 . S
C996 C991 1.350 . S
C997 H984 0.929 . S
C997 C989 1.433 . S
C997 N999 1.384 . S
N998 C994 1.427 . S
N998 C995 1.384 . S
N999 C991 1.427 . S
N999 C997 1.384 . S
H1000 C1006 0.930 1_565 S
H1001 C1010 0.930 . S
H1002 C1015 0.929 . S
H1003 C1013 0.929 . S
H1004 C1008 0.929 . S
H1005 C1014 0.929 . S
C1006 H1000 0.930 1_545 S
C1006 C1007 1.367 . S
C1006 C1014 1.378 . S
C1007 C1006 1.367 . S
C1007 C1015 1.433 . S
C1008 H1004 0.929 . S
C1008 C1010 1.378 . S
C1008 C1012 1.350 . S
C1009 C1012 1.463 . S
C1009 C1014 1.350 . S
C1009 N1017 1.427 . S
C1010 H1001 0.930 . S
C1010 C1008 1.378 . S
C1010 C1011 1.367 . S
C1011 C1010 1.367 . S
C1011 C1013 1.433 . S
C1012 C1008 1.350 . S
C1012 C1009 1.463 . S
C1012 N1016 1.427 . S
C1013 H1003 0.929 . S
C1013 C1011 1.433 . S
C1013 N1016 1.384 . S
C1014 H1005 0.929 . S
C1014 C1006 1.378 . S
C1014 C1009 1.350 . S
C1015 H1002 0.929 . S
C1015 C1007 1.433 . S
C1015 N1017 1.384 . S
N1016 C1012 1.427 . S
N1016 C1013 1.384 . S
N1017 C1009 1.427 . S
N1017 C1015 1.384 . S
H1018 C1024 0.930 . S
H1019 C1028 0.930 . S
H1020 C1033 0.929 . S
H1021 C1031 0.929 . S
H1022 C1026 0.929 . S
H1023 C1032 0.929 . S
C1024 H1018 0.930 . S
C1024 C1025 1.367 . S
C1024 C1032 1.378 . S
C1025 C1024 1.367 . S
C1025 C1033 1.433 . S
C1026 H1022 0.929 . S
C1026 C1028 1.378 . S
C1026 C1030 1.350 . S
C1027 C1030 1.463 . S
C1027 C1032 1.350 . S
C1027 N1035 1.427 . S
C1028 H1019 0.930 . S
C1028 C1026 1.378 . S
C1028 C1029 1.367 . S
C1029 C1028 1.367 . S
C1029 C1031 1.433 . S
C1030 C1026 1.350 . S
C1030 C1027 1.463 . S
C1030 N1034 1.427 . S
C1031 H1021 0.929 . S
C1031 C1029 1.433 . S
C1031 N1034 1.384 . S
C1032 H1023 0.929 . S
C1032 C1024 1.378 . S
C1032 C1027 1.350 . S
C1033 H1020 0.929 . S
C1033 C1025 1.433 . S
C1033 N1035 1.384 . S
N1034 C1030 1.427 . S
N1034 C1031 1.384 . S
N1035 C1027 1.427 . S
N1035 C1033 1.384 . S
H1036 C1042 0.930 . S
H1037 C1046 0.930 . S
H1038 C1051 0.929 . S
H1039 C1049 0.929 . S
H1040 C1044 0.929 . S
H1041 C1050 0.929 . S
C1042 H1036 0.930 . S
C1042 C1043 1.367 . S
C1042 C1050 1.378 . S
C1043 C1042 1.367 . S
C1043 C1051 1.433 1_545 S
C1044 H1040 0.929 . S
C1044 C1046 1.378 . S
C1044 C1048 1.350 . S
C1045 C1048 1.463 . S
C1045 C1050 1.350 . S
C1045 N1053 1.427 . S
C1046 H1037 0.930 . S
C1046 C1044 1.378 . S
C1046 C1047 1.367 . S
C1047 C1046 1.367 . S
C1047 C1049 1.433 . S
C1048 C1044 1.350 . S
C1048 C1045 1.463 . S
C1048 N1052 1.427 . S
C1049 H1039 0.929 . S
C1049 C1047 1.433 . S
C1049 N1052 1.384 . S
C1050 H1041 0.929 . S
C1050 C1042 1.378 . S
C1050 C1045 1.350 . S
C1051 H1038 0.929 . S
C1051 C1043 1.433 1_565 S
C1051 N1053 1.384 1_565 S
N1052 C1048 1.427 . S
N1052 C1049 1.384 . S
N1053 C1045 1.427 . S
N1053 C1051 1.384 1_545 S
H1054 C1060 0.930 . S
H1055 C1064 0.930 . S
H1056 C1069 0.929 . S
H1057 C1067 0.929 . S
H1058 C1062 0.929 . S
H1059 C1068 0.929 . S
C1060 H1054 0.930 . S
C1060 C1061 1.367 . S
C1060 C1068 1.378 . S
C1061 C1060 1.367 . S
C1061 C1069 1.433 . S
C1062 H1058 0.929 . S
C1062 C1064 1.378 . S
C1062 C1066 1.350 . S
C1063 C1066 1.463 . S
C1063 C1068 1.350 . S
C1063 N1071 1.427 . S
C1064 H1055 0.930 . S
C1064 C1062 1.378 . S
C1064 C1065 1.367 . S
C1065 C1064 1.367 . S
C1065 C1067 1.433 . S
C1066 C1062 1.350 . S
C1066 C1063 1.463 . S
C1066 N1070 1.427 . S
C1067 H1057 0.929 . S
C1067 C1065 1.433 . S
C1067 N1070 1.384 . S
C1068 H1059 0.929 . S
C1068 C1060 1.378 . S
C1068 C1063 1.350 . S
C1069 H1056 0.929 . S
C1069 C1061 1.433 . S
C1069 N1071 1.384 . S
N1070 C1066 1.427 . S
N1070 C1067 1.384 . S
N1071 C1063 1.427 . S
N1071 C1069 1.384 . S
H1072 C1078 0.930 . S
H1073 C1082 0.930 . S
H1074 C1087 0.929 . S
H1075 C1085 0.929 . S
H1076 C1080 0.929 . S
H1077 C1086 0.929 . S
C1078 H1072 0.930 . S
C1078 C1079 1.367 . S
C1078 C1086 1.378 . S
C1079 C1078 1.367 . S
C1079 C1087 1.433 . S
C1080 H1076 0.929 . S
C1080 C1082 1.378 . S
C1080 C1084 1.350 . S
C1081 C1084 1.463 . S
C1081 C1086 1.350 . S
C1081 N1089 1.427 . S
C1082 H1073 0.930 . S
C1082 C1080 1.378 . S
C1082 C1083 1.367 . S
C1083 C1082 1.367 . S
C1083 C1085 1.433 . S
C1084 C1080 1.350 . S
C1084 C1081 1.463 . S
C1084 N1088 1.427 . S
C1085 H1075 0.929 . S
C1085 C1083 1.433 . S
C1085 N1088 1.384 . S
C1086 H1077 0.929 . S
C1086 C1078 1.378 . S
C1086 C1081 1.350 . S
C1087 H1074 0.929 . S
C1087 C1079 1.433 . S
C1087 N1089 1.384 . S
N1088 C1084 1.427 . S
N1088 C1085 1.384 . S
N1089 C1081 1.427 . S
N1089 C1087 1.384 . S
H1090 C1096 0.930 . S
H1091 C1100 0.930 . S
H1092 C1105 0.929 . S
H1093 C1103 0.929 . S
H1094 C1098 0.929 . S
H1095 C1104 0.929 . S
C1096 H1090 0.930 . S
C1096 C1097 1.367 . S
C1096 C1104 1.378 . S
C1097 C1096 1.367 . S
C1097 C1105 1.433 . S
C1098 H1094 0.929 . S
C1098 C1100 1.378 . S
C1098 C1102 1.350 . S
C1099 C1102 1.463 . S
C1099 C1104 1.350 . S
C1099 N1107 1.427 . S
C1100 H1091 0.930 . S
C1100 C1098 1.378 . S
C1100 C1101 1.367 . S
C1101 C1100 1.367 . S
C1101 C1103 1.433 . S
C1102 C1098 1.350 . S
C1102 C1099 1.463 . S
C1102 N1106 1.427 . S
C1103 H1093 0.929 . S
C1103 C1101 1.433 . S
C1103 N1106 1.384 . S
C1104 H1095 0.929 . S
C1104 C1096 1.378 . S
C1104 C1099 1.350 . S
C1105 H1092 0.929 . S
C1105 C1097 1.433 . S
C1105 N1107 1.384 . S
N1106 C1102 1.427 . S
N1106 C1103 1.384 . S
N1107 C1099 1.427 . S
N1107 C1105 1.384 . S
H1108 C1114 0.930 . S
H1109 C1118 0.930 . S
H1110 C1123 0.929 . S
H1111 C1121 0.929 . S
H1112 C1116 0.929 . S
H1113 C1122 0.929 . S
C1114 H1108 0.930 . S
C1114 C1115 1.367 . S
C1114 C1122 1.378 . S
C1115 C1114 1.367 . S
C1115 C1123 1.433 . S
C1116 H1112 0.929 . S
C1116 C1118 1.378 . S
C1116 C1120 1.350 . S
C1117 C1120 1.463 . S
C1117 C1122 1.350 . S
C1117 N1125 1.427 . S
C1118 H1109 0.930 . S
C1118 C1116 1.378 . S
C1118 C1119 1.367 . S
C1119 C1118 1.367 . S
C1119 C1121 1.433 . S
C1120 C1116 1.350 . S
C1120 C1117 1.463 . S
C1120 N1124 1.427 . S
C1121 H1111 0.929 . S
C1121 C1119 1.433 . S
C1121 N1124 1.384 . S
C1122 H1113 0.929 . S
C1122 C1114 1.378 . S
C1122 C1117 1.350 . S
C1123 H1110 0.929 . S
C1123 C1115 1.433 . S
C1123 N1125 1.384 . S
N1124 C1120 1.427 . S
N1124 C1121 1.384 . S
N1125 C1117 1.427 . S
N1125 C1123 1.384 . S
H1126 C1132 0.930 . S
H1127 C1136 0.930 . S
H1128 C1141 0.929 . S
H1129 C1139 0.929 . S
H1130 C1134 0.929 . S
H1131 C1140 0.929 . S
C1132 H1126 0.930 . S
C1132 C1133 1.367 . S
C1132 C1140 1.378 . S
C1133 C1132 1.367 . S
C1133 C1141 1.433 . S
C1134 H1130 0.929 . S
C1134 C1136 1.378 . S
C1134 C1138 1.350 . S
C1135 C1138 1.463 . S
C1135 C1140 1.350 . S
C1135 N1143 1.427 . S
C1136 H1127 0.930 . S
C1136 C1134 1.378 . S
C1136 C1137 1.367 . S
C1137 C1136 1.367 . S
C1137 C1139 1.433 . S
C1138 C1134 1.350 . S
C1138 C1135 1.463 . S
C1138 N1142 1.427 . S
C1139 H1129 0.929 . S
C1139 C1137 1.433 . S
C1139 N1142 1.384 . S
C1140 H1131 0.929 . S
C1140 C1132 1.378 . S
C1140 C1135 1.350 . S
C1141 H1128 0.929 . S
C1141 C1133 1.433 . S
C1141 N1143 1.384 . S
N1142 C1138 1.427 . S
N1142 C1139 1.384 . S
N1143 C1135 1.427 . S
N1143 C1141 1.384 . S
H1144 C1150 0.930 . S
H1145 C1154 0.930 . S
H1146 C1159 0.929 . S
H1147 C1157 0.929 . S
H1148 C1152 0.929 . S
H1149 C1158 0.929 . S
C1150 H1144 0.930 . S
C1150 C1151 1.367 . S
C1150 C1158 1.378 . S
C1151 C1150 1.367 . S
C1151 C1159 1.433 . S
C1152 H1148 0.929 . S
C1152 C1154 1.378 . S
C1152 C1156 1.350 . S
C1153 C1156 1.463 . S
C1153 C1158 1.350 . S
C1153 N1161 1.427 . S
C1154 H1145 0.930 . S
C1154 C1152 1.378 . S
C1154 C1155 1.367 . S
C1155 C1154 1.367 . S
C1155 C1157 1.433 . S
C1156 C1152 1.350 . S
C1156 C1153 1.463 . S
C1156 N1160 1.427 . S
C1157 H1147 0.929 . S
C1157 C1155 1.433 . S
C1157 N1160 1.384 . S
C1158 H1149 0.929 . S
C1158 C1150 1.378 . S
C1158 C1153 1.350 . S
C1159 H1146 0.929 . S
C1159 C1151 1.433 . S
C1159 N1161 1.384 . S
N1160 C1156 1.427 . S
N1160 C1157 1.384 . S
N1161 C1153 1.427 . S
N1161 C1159 1.384 . S
H1162 C1168 0.930 . S
H1163 C1172 0.928 1_565 S
H1164 C1177 0.934 1_455 S
H1165 C1175 0.929 . S
H1166 C1170 0.927 . S
H1167 C1176 0.929 . S
C1168 H1162 0.930 . S
C1168 C1169 1.367 . S
C1168 C1176 1.378 . S
C1169 C1168 1.367 . S
C1169 C1177 1.433 . S
C1170 H1166 0.927 . S
C1170 C1172 1.378 . S
C1170 C1174 1.350 . S
C1171 C1174 1.463 . S
C1171 C1176 1.350 . S
C1171 N1179 1.427 . S
C1172 H1163 0.928 1_545 S
C1172 C1170 1.378 . S
C1172 C1173 1.367 . S
C1173 C1172 1.367 . S
C1173 C1175 1.433 . S
C1174 C1170 1.350 . S
C1174 C1171 1.463 . S
C1174 N1178 1.427 . S
C1175 H1165 0.929 . S
C1175 C1173 1.433 . S
C1175 N1178 1.384 . S
C1176 H1167 0.929 . S
C1176 C1168 1.378 . S
C1176 C1171 1.350 . S
C1177 H1164 0.934 1_655 S
C1177 C1169 1.433 . S
C1177 N1179 1.384 . S
N1178 C1174 1.427 . S
N1178 C1175 1.384 . S
N1179 C1171 1.427 . S
N1179 C1177 1.384 . S
H1180 C1186 0.930 . S
H1181 C1190 0.930 . S
H1182 C1195 0.929 . S
H1183 C1193 0.929 . S
H1184 C1188 0.929 . S
H1185 C1194 0.929 . S
C1186 H1180 0.930 . S
C1186 C1187 1.367 . S
C1186 C1194 1.378 . S
C1187 C1186 1.367 . S
C1187 C1195 1.433 . S
C1188 H1184 0.929 . S
C1188 C1190 1.378 . S
C1188 C1192 1.350 . S
C1189 C1192 1.463 . S
C1189 C1194 1.350 . S
C1189 N1197 1.427 . S
C1190 H1181 0.930 . S
C1190 C1188 1.378 . S
C1190 C1191 1.367 . S
C1191 C1190 1.367 . S
C1191 C1193 1.433 . S
C1192 C1188 1.350 . S
C1192 C1189 1.463 . S
C1192 N1196 1.427 . S
C1193 H1183 0.929 . S
C1193 C1191 1.433 . S
C1193 N1196 1.384 . S
C1194 H1185 0.929 . S
C1194 C1186 1.378 . S
C1194 C1189 1.350 . S
C1195 H1182 0.929 . S
C1195 C1187 1.433 . S
C1195 N1197 1.384 . S
N1196 C1192 1.427 . S
N1196 C1193 1.384 . S
N1197 C1189 1.427 . S
N1197 C1195 1.384 . S
H1198 C1204 0.930 . S
H1199 C1208 0.930 . S
H1200 C1213 0.929 . S
H1201 C1211 0.929 . S
H1202 C1206 0.929 . S
H1203 C1212 0.929 . S
C1204 H1198 0.930 . S
C1204 C1205 1.367 . S
C1204 C1212 1.378 . S
C1205 C1204 1.367 . S
C1205 C1213 1.433 . S
C1206 H1202 0.929 . S
C1206 C1208 1.378 . S
C1206 C1210 1.350 . S
C1207 C1210 1.463 . S
C1207 C1212 1.350 . S
C1207 N1215 1.427 . S
C1208 H1199 0.930 . S
C1208 C1206 1.378 . S
C1208 C1209 1.367 . S
C1209 C1208 1.367 . S
C1209 C1211 1.433 . S
C1210 C1206 1.350 . S
C1210 C1207 1.463 . S
C1210 N1214 1.427 . S
C1211 H1201 0.929 . S
C1211 C1209 1.433 . S
C1211 N1214 1.384 . S
C1212 H1203 0.929 . S
C1212 C1204 1.378 . S
C1212 C1207 1.350 . S
C1213 H1200 0.929 . S
C1213 C1205 1.433 . S
C1213 N1215 1.384 . S
N1214 C1210 1.427 . S
N1214 C1211 1.384 . S
N1215 C1207 1.427 . S
N1215 C1213 1.384 . S
H1216 C1222 0.930 . S
H1217 C1226 0.930 . S
H1218 C1231 0.929 . S
H1219 C1229 0.929 . S
H1220 C1224 0.929 . S
H1221 C1230 0.929 . S
C1222 H1216 0.930 . S
C1222 C1223 1.367 . S
C1222 C1230 1.378 . S
C1223 C1222 1.367 . S
C1223 C1231 1.433 . S
C1224 H1220 0.929 . S
C1224 C1226 1.378 . S
C1224 C1228 1.350 . S
C1225 C1228 1.463 . S
C1225 C1230 1.350 . S
C1225 N1233 1.427 . S
C1226 H1217 0.930 . S
C1226 C1224 1.378 . S
C1226 C1227 1.367 . S
C1227 C1226 1.367 . S
C1227 C1229 1.433 . S
C1228 C1224 1.350 . S
C1228 C1225 1.463 . S
C1228 N1232 1.427 . S
C1229 H1219 0.929 . S
C1229 C1227 1.433 . S
C1229 N1232 1.384 . S
C1230 H1221 0.929 . S
C1230 C1222 1.378 . S
C1230 C1225 1.350 . S
C1231 H1218 0.929 . S
C1231 C1223 1.433 . S
C1231 N1233 1.384 . S
N1232 C1228 1.427 . S
N1232 C1229 1.384 . S
N1233 C1225 1.427 . S
N1233 C1231 1.384 . S
H1234 C1240 0.930 . S
H1235 C1244 0.930 . S
H1236 C1249 0.926 1_455 S
H1237 C1247 0.929 . S
H1238 C1242 0.929 . S
H1239 C1248 0.929 . S
C1240 H1234 0.930 . S
C1240 C1241 1.363 1_554 S
C1240 C1248 1.378 1_554 S
C1241 C1240 1.363 1_556 S
C1241 C1249 1.471 . S
C1242 H1238 0.929 . S
C1242 C1244 1.378 . S
C1242 C1246 1.350 1_455 S
C1243 C1246 1.463 . S
C1243 C1248 1.350 . S
C1243 N1251 1.427 1_655 S
C1244 H1235 0.930 . S
C1244 C1242 1.378 . S
C1244 C1245 1.367 1_455 S
C1245 C1244 1.367 1_655 S
C1245 C1247 1.433 . S
C1246 C1242 1.350 1_655 S
C1246 C1243 1.463 . S
C1246 N1250 1.427 . S
C1247 H1237 0.929 . S
C1247 C1245 1.433 . S
C1247 N1250 1.384 . S
C1248 H1239 0.929 . S
C1248 C1240 1.378 1_556 S
C1248 C1243 1.350 . S
C1249 H1236 0.926 1_655 S
C1249 C1241 1.471 . S
C1249 N1251 1.381 1_655 S
N1250 C1246 1.427 . S
N1250 C1247 1.384 . S
N1251 C1243 1.427 1_455 S
N1251 C1249 1.381 1_455 S
H1252 C1258 0.930 . S
H1253 C1262 0.930 . S
H1254 C1267 0.929 . S
H1255 C1265 0.929 . S
H1256 C1260 0.929 . S
H1257 C1266 0.929 . S
C1258 H1252 0.930 . S
C1258 C1259 1.367 . S
C1258 C1266 1.378 . S
C1259 C1258 1.367 . S
C1259 C1267 1.433 . S
C1260 H1256 0.929 . S
C1260 C1262 1.378 . S
C1260 C1264 1.350 . S
C1261 C1264 1.463 . S
C1261 C1266 1.350 . S
C1261 N1269 1.427 . S
C1262 H1253 0.930 . S
C1262 C1260 1.378 . S
C1262 C1263 1.367 . S
C1263 C1262 1.367 . S
C1263 C1265 1.433 . S
C1264 C1260 1.350 . S
C1264 C1261 1.463 . S
C1264 N1268 1.427 . S
C1265 H1255 0.929 . S
C1265 C1263 1.433 . S
C1265 N1268 1.384 . S
C1266 H1257 0.929 . S
C1266 C1258 1.378 . S
C1266 C1261 1.350 . S
C1267 H1254 0.929 . S
C1267 C1259 1.433 . S
C1267 N1269 1.384 . S
N1268 C1264 1.427 . S
N1268 C1265 1.384 . S
N1269 C1261 1.427 . S
N1269 C1267 1.384 . S
H1270 C1276 0.930 . S
H1271 C1280 0.930 . S
H1272 C1285 0.929 . S
H1273 C1283 0.929 . S
H1274 C1278 0.928 . S
H1275 C1284 0.929 1_554 S
C1276 H1270 0.930 . S
C1276 C1277 1.367 1_554 S
C1276 C1284 1.378 1_554 S
C1277 C1276 1.367 1_556 S
C1277 C1285 1.433 . S
C1278 H1274 0.928 . S
C1278 C1280 1.378 1_455 S
C1278 C1282 1.350 . S
C1279 C1282 1.463 . S
C1279 C1284 1.350 . S
C1279 N1287 1.427 . S
C1280 H1271 0.930 . S
C1280 C1278 1.378 1_655 S
C1280 C1281 1.368 1_655 S
C1281 C1280 1.368 1_455 S
C1281 C1283 1.436 . S
C1282 C1278 1.350 . S
C1282 C1279 1.463 . S
C1282 N1286 1.427 . S
C1283 H1273 0.929 . S
C1283 C1281 1.436 . S
C1283 N1286 1.384 . S
C1284 H1275 0.929 1_556 S
C1284 C1276 1.378 1_556 S
C1284 C1279 1.350 . S
C1285 H1272 0.929 . S
C1285 C1277 1.433 . S
C1285 N1287 1.384 . S
N1286 C1282 1.427 . S
N1286 C1283 1.384 . S
N1287 C1279 1.427 . S
N1287 C1285 1.384 . S
H1288 C1294 0.930 . S
H1289 C1298 0.930 . S
H1290 C1303 0.929 . S
H1291 C1301 0.929 . S
H1292 C1296 0.929 . S
H1293 C1302 0.929 . S
C1294 H1288 0.930 . S
C1294 C1295 1.367 . S
C1294 C1302 1.378 . S
C1295 C1294 1.367 . S
C1295 C1303 1.433 . S
C1296 H1292 0.929 . S
C1296 C1298 1.378 . S
C1296 C1300 1.350 . S
C1297 C1300 1.463 . S
C1297 C1302 1.350 . S
C1297 N1305 1.427 . S
C1298 H1289 0.930 . S
C1298 C1296 1.378 . S
C1298 C1299 1.367 . S
C1299 C1298 1.367 . S
C1299 C1301 1.433 . S
C1300 C1296 1.350 . S
C1300 C1297 1.463 . S
C1300 N1304 1.427 . S
C1301 H1291 0.929 . S
C1301 C1299 1.433 . S
C1301 N1304 1.384 . S
C1302 H1293 0.929 . S
C1302 C1294 1.378 . S
C1302 C1297 1.350 . S
C1303 H1290 0.929 . S
C1303 C1295 1.433 . S
C1303 N1305 1.384 . S
N1304 C1300 1.427 . S
N1304 C1301 1.384 . S
N1305 C1297 1.427 . S
N1305 C1303 1.384 . S
H1306 C1312 0.930 . S
H1307 C1316 0.930 . S
H1308 C1321 0.930 . S
H1309 C1319 0.929 . S
H1310 C1314 0.929 . S
H1311 C1320 0.929 . S
C1312 H1306 0.930 . S
C1312 C1313 1.367 . S
C1312 C1320 1.378 . S
C1313 C1312 1.367 . S
C1313 C1321 1.433 . S
C1314 H1310 0.929 . S
C1314 C1316 1.378 . S
C1314 C1318 1.350 . S
C1315 C1318 1.463 . S
C1315 C1320 1.350 . S
C1315 N1323 1.427 . S
C1316 H1307 0.930 . S
C1316 C1314 1.378 . S
C1316 C1317 1.367 . S
C1317 C1316 1.367 . S
C1317 C1319 1.433 . S
C1318 C1314 1.350 . S
C1318 C1315 1.463 . S
C1318 N1322 1.427 . S
C1319 H1309 0.929 . S
C1319 C1317 1.433 . S
C1319 N1322 1.384 . S
C1320 H1311 0.929 . S
C1320 C1312 1.378 . S
C1320 C1315 1.350 . S
C1321 H1308 0.930 . S
C1321 C1313 1.433 . S
C1321 N1323 1.384 . S
N1322 C1318 1.427 . S
N1322 C1319 1.384 . S
N1323 C1315 1.427 . S
N1323 C1321 1.384 . S
H1324 C1330 0.930 . S
H1325 C1334 0.930 . S
H1326 C1339 0.929 . S
H1327 C1337 0.929 . S
H1328 C1332 0.929 . S
H1329 C1338 0.929 . S
C1330 H1324 0.930 . S
C1330 C1331 1.367 . S
C1330 C1338 1.378 . S
C1331 C1330 1.367 . S
C1331 C1339 1.433 . S
C1332 H1328 0.929 . S
C1332 C1334 1.378 . S
C1332 C1336 1.350 . S
C1333 C1336 1.463 . S
C1333 C1338 1.350 . S
C1333 N1341 1.427 . S
C1334 H1325 0.930 . S
C1334 C1332 1.378 . S
C1334 C1335 1.367 . S
C1335 C1334 1.367 . S
C1335 C1337 1.433 . S
C1336 C1332 1.350 . S
C1336 C1333 1.463 . S
C1336 N1340 1.427 . S
C1337 H1327 0.929 . S
C1337 C1335 1.433 . S
C1337 N1340 1.384 . S
C1338 H1329 0.929 . S
C1338 C1330 1.378 . S
C1338 C1333 1.350 . S
C1339 H1326 0.929 . S
C1339 C1331 1.433 . S
C1339 N1341 1.384 . S
N1340 C1336 1.427 . S
N1340 C1337 1.384 . S
N1341 C1333 1.427 . S
N1341 C1339 1.384 . S
H1342 C1348 0.930 . S
H1343 C1352 0.930 . S
H1344 C1357 0.929 . S
H1345 C1355 0.929 . S
H1346 C1350 0.929 . S
H1347 C1356 0.929 . S
C1348 H1342 0.930 . S
C1348 C1349 1.367 . S
C1348 C1356 1.378 . S
C1349 C1348 1.367 . S
C1349 C1357 1.433 . S
C1350 H1346 0.929 . S
C1350 C1352 1.378 . S
C1350 C1354 1.350 . S
C1351 C1354 1.463 . S
C1351 C1356 1.350 . S
C1351 N1359 1.427 . S
C1352 H1343 0.930 . S
C1352 C1350 1.378 . S
C1352 C1353 1.367 . S
C1353 C1352 1.367 . S
C1353 C1355 1.433 . S
C1354 C1350 1.350 . S
C1354 C1351 1.463 . S
C1354 N1358 1.427 . S
C1355 H1345 0.929 . S
C1355 C1353 1.433 . S
C1355 N1358 1.384 . S
C1356 H1347 0.929 . S
C1356 C1348 1.378 . S
C1356 C1351 1.350 . S
C1357 H1344 0.929 . S
C1357 C1349 1.433 . S
C1357 N1359 1.384 . S
N1358 C1354 1.427 . S
N1358 C1355 1.384 . S
N1359 C1351 1.427 . S
N1359 C1357 1.384 . S
H1360 C1366 0.930 . S
H1361 C1370 0.930 . S
H1362 C1375 0.929 . S
H1363 C1373 0.929 . S
H1364 C1368 0.929 . S
H1365 C1374 0.929 . S
C1366 H1360 0.930 . S
C1366 C1367 1.367 . S
C1366 C1374 1.378 . S
C1367 C1366 1.367 . S
C1367 C1375 1.433 . S
C1368 H1364 0.929 . S
C1368 C1370 1.378 . S
C1368 C1372 1.350 . S
C1369 C1372 1.463 . S
C1369 C1374 1.350 . S
C1369 N1377 1.427 . S
C1370 H1361 0.930 . S
C1370 C1368 1.378 . S
C1370 C1371 1.367 . S
C1371 C1370 1.367 . S
C1371 C1373 1.433 . S
C1372 C1368 1.350 . S
C1372 C1369 1.463 . S
C1372 N1376 1.427 . S
C1373 H1363 0.929 . S
C1373 C1371 1.433 . S
C1373 N1376 1.384 . S
C1374 H1365 0.929 . S
C1374 C1366 1.378 . S
C1374 C1369 1.350 . S
C1375 H1362 0.929 . S
C1375 C1367 1.433 . S
C1375 N1377 1.384 . S
N1376 C1372 1.427 . S
N1376 C1373 1.384 . S
N1377 C1369 1.427 . S
N1377 C1375 1.384 . S
H1378 C1384 0.930 . S
H1379 C1388 0.930 . S
H1380 C1393 0.929 . S
H1381 C1391 0.929 . S
H1382 C1386 0.929 . S
H1383 C1392 0.929 . S
C1384 H1378 0.930 . S
C1384 C1385 1.367 . S
C1384 C1392 1.378 . S
C1385 C1384 1.367 . S
C1385 C1393 1.433 . S
C1386 H1382 0.929 . S
C1386 C1388 1.378 . S
C1386 C1390 1.350 . S
C1387 C1390 1.463 . S
C1387 C1392 1.350 . S
C1387 N1395 1.427 . S
C1388 H1379 0.930 . S
C1388 C1386 1.378 . S
C1388 C1389 1.367 . S
C1389 C1388 1.367 . S
C1389 C1391 1.433 . S
C1390 C1386 1.350 . S
C1390 C1387 1.463 . S
C1390 N1394 1.427 . S
C1391 H1381 0.929 . S
C1391 C1389 1.433 . S
C1391 N1394 1.384 . S
C1392 H1383 0.929 . S
C1392 C1384 1.378 . S
C1392 C1387 1.350 . S
C1393 H1380 0.929 . S
C1393 C1385 1.433 . S
C1393 N1395 1.384 . S
N1394 C1390 1.427 . S
N1394 C1391 1.384 . S
N1395 C1387 1.427 . S
N1395 C1393 1.384 . S
H1396 C1402 0.930 . S
H1397 C1406 0.930 . S
H1398 C1411 0.929 . S
H1399 C1409 0.929 . S
H1400 C1404 0.929 . S
H1401 C1410 0.929 . S
C1402 H1396 0.930 . S
C1402 C1403 1.367 . S
C1402 C1410 1.378 . S
C1403 C1402 1.367 . S
C1403 C1411 1.433 . S
C1404 H1400 0.929 . S
C1404 C1406 1.378 . S
C1404 C1408 1.350 . S
C1405 C1408 1.463 . S
C1405 C1410 1.350 . S
C1405 N1413 1.427 . S
C1406 H1397 0.930 . S
C1406 C1404 1.378 . S
C1406 C1407 1.367 . S
C1407 C1406 1.367 . S
C1407 C1409 1.433 . S
C1408 C1404 1.350 . S
C1408 C1405 1.463 . S
C1408 N1412 1.427 . S
C1409 H1399 0.929 . S
C1409 C1407 1.433 . S
C1409 N1412 1.384 . S
C1410 H1401 0.929 . S
C1410 C1402 1.378 . S
C1410 C1405 1.350 . S
C1411 H1398 0.929 . S
C1411 C1403 1.433 . S
C1411 N1413 1.384 . S
N1412 C1408 1.427 . S
N1412 C1409 1.384 . S
N1413 C1405 1.427 . S
N1413 C1411 1.384 . S
H1414 C1420 0.930 . S
H1415 C1424 0.930 . S
H1416 C1429 0.929 . S
H1417 C1427 0.929 . S
H1418 C1422 0.929 . S
H1419 C1428 0.929 . S
C1420 H1414 0.930 . S
C1420 C1421 1.367 . S
C1420 C1428 1.378 . S
C1421 C1420 1.367 . S
C1421 C1429 1.433 . S
C1422 H1418 0.929 . S
C1422 C1424 1.378 . S
C1422 C1426 1.350 . S
C1423 C1426 1.463 . S
C1423 C1428 1.350 . S
C1423 N1431 1.427 . S
C1424 H1415 0.930 . S
C1424 C1422 1.378 . S
C1424 C1425 1.367 . S
C1425 C1424 1.367 . S
C1425 C1427 1.433 . S
C1426 C1422 1.350 . S
C1426 C1423 1.463 . S
C1426 N1430 1.427 . S
C1427 H1417 0.929 . S
C1427 C1425 1.433 . S
C1427 N1430 1.384 . S
C1428 H1419 0.929 . S
C1428 C1420 1.378 . S
C1428 C1423 1.350 . S
C1429 H1416 0.929 . S
C1429 C1421 1.433 . S
C1429 N1431 1.384 . S
N1430 C1426 1.427 . S
N1430 C1427 1.384 . S
N1431 C1423 1.427 . S
N1431 C1429 1.384 . S
H1432 C1438 0.930 . S
H1433 C1442 0.930 . S
H1434 C1447 0.929 . S
H1435 C1445 0.929 . S
H1436 C1440 0.929 . S
H1437 C1446 0.929 . S
C1438 H1432 0.930 . S
C1438 C1439 1.367 . S
C1438 C1446 1.378 . S
C1439 C1438 1.367 . S
C1439 C1447 1.433 1_556 S
C1440 H1436 0.929 . S
C1440 C1442 1.378 . S
C1440 C1444 1.350 . S
C1441 C1444 1.463 1_556 S
C1441 C1446 1.350 . S
C1441 N1449 1.427 1_556 S
C1442 H1433 0.930 . S
C1442 C1440 1.378 . S
C1442 C1443 1.367 . S
C1443 C1442 1.367 . S
C1443 C1445 1.433 1_554 S
C1444 C1440 1.350 . S
C1444 C1441 1.463 1_554 S
C1444 N1448 1.427 1_554 S
C1445 H1435 0.929 . S
C1445 C1443 1.433 1_556 S
C1445 N1448 1.384 . S
C1446 H1437 0.929 . S
C1446 C1438 1.378 . S
C1446 C1441 1.350 . S
C1447 H1434 0.929 . S
C1447 C1439 1.433 1_554 S
C1447 N1449 1.384 . S
N1448 C1444 1.427 1_556 S
N1448 C1445 1.384 . S
N1449 C1441 1.427 1_554 S
N1449 C1447 1.384 . S
H1450 C1456 0.930 . S
H1451 C1460 0.930 . S
H1452 C1465 0.929 . S
H1453 C1463 0.929 . S
H1454 C1458 0.929 . S
H1455 C1464 0.929 . S
C1456 H1450 0.930 . S
C1456 C1457 1.367 . S
C1456 C1464 1.378 . S
C1457 C1456 1.367 . S
C1457 C1465 1.433 . S
C1458 H1454 0.929 . S
C1458 C1460 1.378 . S
C1458 C1462 1.350 . S
C1459 C1462 1.463 . S
C1459 C1464 1.350 . S
C1459 N1467 1.427 . S
C1460 H1451 0.930 . S
C1460 C1458 1.378 . S
C1460 C1461 1.367 . S
C1461 C1460 1.367 . S
C1461 C1463 1.433 . S
C1462 C1458 1.350 . S
C1462 C1459 1.463 . S
C1462 N1466 1.427 . S
C1463 H1453 0.929 . S
C1463 C1461 1.433 . S
C1463 N1466 1.384 . S
C1464 H1455 0.929 . S
C1464 C1456 1.378 . S
C1464 C1459 1.350 . S
C1465 H1452 0.929 . S
C1465 C1457 1.433 . S
C1465 N1467 1.384 . S
N1466 C1462 1.427 . S
N1466 C1463 1.384 . S
N1467 C1459 1.427 . S
N1467 C1465 1.384 . S
H1468 C1474 0.930 . S
H1469 C1478 0.930 . S
H1470 C1483 0.929 . S
H1471 C1481 0.929 . S
H1472 C1476 0.929 . S
H1473 C1482 0.929 . S
C1474 H1468 0.930 . S
C1474 C1475 1.367 . S
C1474 C1482 1.378 . S
C1475 C1474 1.367 . S
C1475 C1483 1.433 . S
C1476 H1472 0.929 . S
C1476 C1478 1.378 . S
C1476 C1480 1.350 . S
C1477 C1480 1.463 . S
C1477 C1482 1.350 . S
C1477 N1485 1.427 . S
C1478 H1469 0.930 . S
C1478 C1476 1.378 . S
C1478 C1479 1.367 . S
C1479 C1478 1.367 . S
C1479 C1481 1.433 . S
C1480 C1476 1.350 . S
C1480 C1477 1.463 . S
C1480 N1484 1.427 . S
C1481 H1471 0.929 . S
C1481 C1479 1.433 . S
C1481 N1484 1.384 . S
C1482 H1473 0.929 . S
C1482 C1474 1.378 . S
C1482 C1477 1.350 . S
C1483 H1470 0.929 . S
C1483 C1475 1.433 . S
C1483 N1485 1.384 . S
N1484 C1480 1.427 . S
N1484 C1481 1.384 . S
N1485 C1477 1.427 . S
N1485 C1483 1.384 . S
H1486 C1492 0.930 . S
H1487 C1496 0.930 . S
H1488 C1501 0.911 1_545 S
H1489 C1499 0.929 . S
H1490 C1494 0.929 . S
H1491 C1500 0.929 . S
C1492 H1486 0.930 . S
C1492 C1493 1.367 . S
C1492 C1500 1.378 . S
C1493 C1492 1.367 . S
C1493 C1501 1.441 . S
C1494 H1490 0.929 . S
C1494 C1496 1.378 . S
C1494 C1498 1.350 . S
C1495 C1498 1.463 . S
C1495 C1500 1.350 . S
C1495 N1503 1.427 . S
C1496 H1487 0.930 . S
C1496 C1494 1.378 . S
C1496 C1497 1.367 . S
C1497 C1496 1.367 . S
C1497 C1499 1.433 1_554 S
C1498 C1494 1.350 . S
C1498 C1495 1.463 . S
C1498 N1502 1.427 . S
C1499 H1489 0.929 . S
C1499 C1497 1.433 1_556 S
C1499 N1502 1.384 1_556 S
C1500 H1491 0.929 . S
C1500 C1492 1.378 . S
C1500 C1495 1.350 . S
C1501 H1488 0.911 1_565 S
C1501 C1493 1.441 . S
C1501 N1503 1.394 . S
N1502 C1498 1.427 . S
N1502 C1499 1.384 1_554 S
N1503 C1495 1.427 . S
N1503 C1501 1.394 . S
C651 C210 1.664 . S
C647 C73 1.671 . S
C669 C258 1.370 . S
C665 C82 1.368 . S
C683 C100 1.785 . S
C687 C294 1.696 . S
C705 C330 1.381 . S
C701 C56 1.412 1_655 S
C723 C356 1.347 . S
C719 C134 1.354 . S
C741 C392 1.719 . S
C737 C165 1.721 . S
C755 C147 1.177 . S
C759 C427 1.229 . S
C777 C464 1.892 . S
C773 C125 1.906 . S
C791 C151 1.322 . S
C795 C498 1.314 . S
C813 C546 1.471 . S
C809 C121 1.504 . S
C827 C139 1.693 . S
C831 C499 1.699 . S
C849 C536 1.457 . S
C845 C164 1.457 . S
C863 C95 1.330 . S
C867 C582 1.334 . S
C881 C61 1.553 . S
C885 C571 1.561 . S
C899 C74 1.364 . S
C903 C572 1.362 . S
C917 C86 1.846 . S
C921 C570 1.833 . S
C935 C47 1.309 . S
C939 C318 1.310 . S
C953 C186 1.177 . S
C957 C319 1.253 . S
C975 C222 1.632 . S
C971 C204 1.655 . S
C993 C247 1.861 . S
C989 C112 1.857 . S
C1007 C60 1.519 1_545 S
C1011 C354 1.520 . S
C1029 C462 1.374 . S
C1025 C152 1.368 . S
C1047 C355 1.919 . S
C1043 C126 1.915 1_545 S
C1065 C428 1.399 . S
C1061 C160 1.382 . S
C1083 C426 1.660 . S
C1079 C190 1.668 . S
C1097 C199 1.357 . S
C1101 C474 1.366 . S
C1115 C113 1.786 . S
C1119 C366 1.681 . S
C1137 C402 1.395 . S
C1133 C173 1.409 . S
C1151 C43 1.355 . S
C1155 C284 1.345 . S
C1173 C320 1.719 . S
C1169 C9 1.721 1_655 S
C1191 C211 1.230 . S
C1187 C17 1.177 . S
C1209 C248 1.893 . S
C1205 C34 1.906 1_455 S
C1223 C21 1.313 . S
C1227 C534 1.304 . S
C1241 C30 1.488 1_556 S
C1245 C510 1.486 . S
C1259 C48 1.696 . S
C1263 C535 1.699 . S
C1277 C8 1.455 1_556 S
C1281 C500 1.450 1_455 S
C1299 C618 1.333 . S
C1295 C108 1.330 . S
C1317 C607 1.562 . S
C1313 C178 1.552 1_554 S
C1335 C608 1.360 . S
C1331 C191 1.364 . S
C1349 C203 1.846 . S
C1353 C606 1.832 . S
C1367 C138 1.307 . S
C1371 C390 1.310 . S
C1389 C391 1.254 . S
C1385 C69 1.179 . S
C1407 C438 1.631 . S
C1403 C87 1.655 . S
C1425 C463 1.859 . S
C1421 C99 1.865 . S
C1439 C177 1.521 . S
C1443 C282 1.518 . S
C1461 C246 1.366 . S
C1457 C22 1.363 . S
C1475 C35 1.918 . S
C1479 C283 1.918 . S
C1497 C212 1.400 1_554 S
C1493 C4 1.379 . S
