# Generated by pormake.
# Topology ptr, (4,4)-cn, num edge types: 1
# Building blocks:
#     Node 0, Type 0, BuildingBlock: AZAVOO_clean_sbu_0, # of connection points: 4
#     Node 1, Type 0, BuildingBlock: AZAVOO_clean_sbu_0, # of connection points: 4
#     Node 2, Type 0, BuildingBlock: AZAVOO_clean_sbu_0, # of connection points: 4
#     Node 3, Type 0, BuildingBlock: AZAVOO_clean_sbu_0, # of connection points: 4
#     Node 4, Type 0, BuildingBlock: AZAVOO_clean_sbu_0, # of connection points: 4
#     Node 5, Type 0, BuildingBlock: AZAVOO_clean_sbu_0, # of connection points: 4
#     Node 6, Type 0, BuildingBlock: AZAVOO_clean_sbu_0, # of connection points: 4
#     Node 7, Type 0, BuildingBlock: AZAVOO_clean_sbu_0, # of connection points: 4
#     Node 8, Type 0, BuildingBlock: AZAVOO_clean_sbu_0, # of connection points: 4
#     Node 9, Type 0, BuildingBlock: AZAVOO_clean_sbu_0, # of connection points: 4
#     Node 10, Type 0, BuildingBlock: AZAVOO_clean_sbu_0, # of connection points: 4
#     Node 11, Type 0, BuildingBlock: AZAVOO_clean_sbu_0, # of connection points: 4
#     Node 12, Type 0, BuildingBlock: AZAVOO_clean_sbu_0, # of connection points: 4
#     Node 13, Type 0, BuildingBlock: AZAVOO_clean_sbu_0, # of connection points: 4
#     Node 14, Type 0, BuildingBlock: AZAVOO_clean_sbu_0, # of connection points: 4
#     Node 15, Type 0, BuildingBlock: AZAVOO_clean_sbu_0, # of connection points: 4
#     Node 16, Type 0, BuildingBlock: AZAVOO_clean_sbu_0, # of connection points: 4
#     Node 17, Type 0, BuildingBlock: AZAVOO_clean_sbu_0, # of connection points: 4
#     Node 18, Type 1, BuildingBlock: KUFVIS_clean_linker_0, # of connection points: 4
#     Node 19, Type 1, BuildingBlock: KUFVIS_clean_linker_0, # of connection points: 4
#     Node 20, Type 1, BuildingBlock: KUFVIS_clean_linker_0, # of connection points: 4
#     Node 21, Type 1, BuildingBlock: KUFVIS_clean_linker_0, # of connection points: 4
#     Node 22, Type 1, BuildingBlock: KUFVIS_clean_linker_0, # of connection points: 4
#     Node 23, Type 1, BuildingBlock: KUFVIS_clean_linker_0, # of connection points: 4
#     Node 24, Type 1, BuildingBlock: KUFVIS_clean_linker_0, # of connection points: 4
#     Node 25, Type 1, BuildingBlock: KUFVIS_clean_linker_0, # of connection points: 4
#     Node 26, Type 1, BuildingBlock: KUFVIS_clean_linker_0, # of connection points: 4
#     Node 27, Type 1, BuildingBlock: KUFVIS_clean_linker_0, # of connection points: 4
#     Node 28, Type 1, BuildingBlock: KUFVIS_clean_linker_0, # of connection points: 4
#     Node 29, Type 1, BuildingBlock: KUFVIS_clean_linker_0, # of connection points: 4
#     Node 30, Type 1, BuildingBlock: KUFVIS_clean_linker_0, # of connection points: 4
#     Node 31, Type 1, BuildingBlock: KUFVIS_clean_linker_0, # of connection points: 4
#     Node 32, Type 1, BuildingBlock: KUFVIS_clean_linker_0, # of connection points: 4
#     Node 33, Type 1, BuildingBlock: KUFVIS_clean_linker_0, # of connection points: 4
#     Node 34, Type 1, BuildingBlock: KUFVIS_clean_linker_0, # of connection points: 4
#     Node 35, Type 1, BuildingBlock: KUFVIS_clean_linker_0, # of connection points: 4
#     Edge 36, Type (0, 1), BuildingBlock: AJUNOK_clean_linker_0, # of connection points: 2
#     Edge 37, Type (0, 1), BuildingBlock: AJUNOK_clean_linker_0, # of connection points: 2
#     Edge 38, Type (0, 1), BuildingBlock: AJUNOK_clean_linker_0, # of connection points: 2
#     Edge 39, Type (0, 1), BuildingBlock: AJUNOK_clean_linker_0, # of connection points: 2
#     Edge 40, Type (0, 1), BuildingBlock: AJUNOK_clean_linker_0, # of connection points: 2
#     Edge 41, Type (0, 1), BuildingBlock: AJUNOK_clean_linker_0, # of connection points: 2
#     Edge 42, Type (0, 1), BuildingBlock: AJUNOK_clean_linker_0, # of connection points: 2
#     Edge 43, Type (0, 1), BuildingBlock: AJUNOK_clean_linker_0, # of connection points: 2
#     Edge 44, Type (0, 1), BuildingBlock: AJUNOK_clean_linker_0, # of connection points: 2
#     Edge 45, Type (0, 1), BuildingBlock: AJUNOK_clean_linker_0, # of connection points: 2
#     Edge 46, Type (0, 1), BuildingBlock: AJUNOK_clean_linker_0, # of connection points: 2
#     Edge 47, Type (0, 1), BuildingBlock: AJUNOK_clean_linker_0, # of connection points: 2
#     Edge 48, Type (0, 1), BuildingBlock: AJUNOK_clean_linker_0, # of connection points: 2
#     Edge 49, Type (0, 1), BuildingBlock: AJUNOK_clean_linker_0, # of connection points: 2
#     Edge 50, Type (0, 1), BuildingBlock: AJUNOK_clean_linker_0, # of connection points: 2
#     Edge 51, Type (0, 1), BuildingBlock: AJUNOK_clean_linker_0, # of connection points: 2
#     Edge 52, Type (0, 1), BuildingBlock: AJUNOK_clean_linker_0, # of connection points: 2
#     Edge 53, Type (0, 1), BuildingBlock: AJUNOK_clean_linker_0, # of connection points: 2
#     Edge 54, Type (0, 1), BuildingBlock: AJUNOK_clean_linker_0, # of connection points: 2
#     Edge 55, Type (0, 1), BuildingBlock: AJUNOK_clean_linker_0, # of connection points: 2
#     Edge 56, Type (0, 1), BuildingBlock: AJUNOK_clean_linker_0, # of connection points: 2
#     Edge 57, Type (0, 1), BuildingBlock: AJUNOK_clean_linker_0, # of connection points: 2
#     Edge 58, Type (0, 1), BuildingBlock: AJUNOK_clean_linker_0, # of connection points: 2
#     Edge 59, Type (0, 1), BuildingBlock: AJUNOK_clean_linker_0, # of connection points: 2
#     Edge 60, Type (0, 1), BuildingBlock: AJUNOK_clean_linker_0, # of connection points: 2
#     Edge 61, Type (0, 1), BuildingBlock: AJUNOK_clean_linker_0, # of connection points: 2
#     Edge 62, Type (0, 1), BuildingBlock: AJUNOK_clean_linker_0, # of connection points: 2
#     Edge 63, Type (0, 1), BuildingBlock: AJUNOK_clean_linker_0, # of connection points: 2
#     Edge 64, Type (0, 1), BuildingBlock: AJUNOK_clean_linker_0, # of connection points: 2
#     Edge 65, Type (0, 1), BuildingBlock: AJUNOK_clean_linker_0, # of connection points: 2
#     Edge 66, Type (0, 1), BuildingBlock: AJUNOK_clean_linker_0, # of connection points: 2
#     Edge 67, Type (0, 1), BuildingBlock: AJUNOK_clean_linker_0, # of connection points: 2
#     Edge 68, Type (0, 1), BuildingBlock: AJUNOK_clean_linker_0, # of connection points: 2
#     Edge 69, Type (0, 1), BuildingBlock: AJUNOK_clean_linker_0, # of connection points: 2
#     Edge 70, Type (0, 1), BuildingBlock: AJUNOK_clean_linker_0, # of connection points: 2
#     Edge 71, Type (0, 1), BuildingBlock: AJUNOK_clean_linker_0, # of connection points: 2
#     Edge 72, Type (0, 1), BuildingBlock: AJUNOK_clean_linker_0, # of connection points: 2
#     Edge 73, Type (0, 1), BuildingBlock: AJUNOK_clean_linker_0, # of connection points: 2
#     Edge 74, Type (0, 1), BuildingBlock: AJUNOK_clean_linker_0, # of connection points: 2
#     Edge 75, Type (0, 1), BuildingBlock: AJUNOK_clean_linker_0, # of connection points: 2
#     Edge 76, Type (0, 1), BuildingBlock: AJUNOK_clean_linker_0, # of connection points: 2
#     Edge 77, Type (0, 1), BuildingBlock: AJUNOK_clean_linker_0, # of connection points: 2
#     Edge 78, Type (0, 1), BuildingBlock: AJUNOK_clean_linker_0, # of connection points: 2
#     Edge 79, Type (0, 1), BuildingBlock: AJUNOK_clean_linker_0, # of connection points: 2
#     Edge 80, Type (0, 1), BuildingBlock: AJUNOK_clean_linker_0, # of connection points: 2
#     Edge 81, Type (0, 1), BuildingBlock: AJUNOK_clean_linker_0, # of connection points: 2
#     Edge 82, Type (0, 1), BuildingBlock: AJUNOK_clean_linker_0, # of connection points: 2
#     Edge 83, Type (0, 1), BuildingBlock: AJUNOK_clean_linker_0, # of connection points: 2
#     Edge 84, Type (0, 1), BuildingBlock: AJUNOK_clean_linker_0, # of connection points: 2
#     Edge 85, Type (0, 1), BuildingBlock: AJUNOK_clean_linker_0, # of connection points: 2
#     Edge 86, Type (0, 1), BuildingBlock: AJUNOK_clean_linker_0, # of connection points: 2
#     Edge 87, Type (0, 1), BuildingBlock: AJUNOK_clean_linker_0, # of connection points: 2
#     Edge 88, Type (0, 1), BuildingBlock: AJUNOK_clean_linker_0, # of connection points: 2
#     Edge 89, Type (0, 1), BuildingBlock: AJUNOK_clean_linker_0, # of connection points: 2
#     Edge 90, Type (0, 1), BuildingBlock: AJUNOK_clean_linker_0, # of connection points: 2
#     Edge 91, Type (0, 1), BuildingBlock: AJUNOK_clean_linker_0, # of connection points: 2
#     Edge 92, Type (0, 1), BuildingBlock: AJUNOK_clean_linker_0, # of connection points: 2
#     Edge 93, Type (0, 1), BuildingBlock: AJUNOK_clean_linker_0, # of connection points: 2
#     Edge 94, Type (0, 1), BuildingBlock: AJUNOK_clean_linker_0, # of connection points: 2
#     Edge 95, Type (0, 1), BuildingBlock: AJUNOK_clean_linker_0, # of connection points: 2
#     Edge 96, Type (0, 1), BuildingBlock: AJUNOK_clean_linker_0, # of connection points: 2
#     Edge 97, Type (0, 1), BuildingBlock: AJUNOK_clean_linker_0, # of connection points: 2
#     Edge 98, Type (0, 1), BuildingBlock: AJUNOK_clean_linker_0, # of connection points: 2
#     Edge 99, Type (0, 1), BuildingBlock: AJUNOK_clean_linker_0, # of connection points: 2
#     Edge 100, Type (0, 1), BuildingBlock: AJUNOK_clean_linker_0, # of connection points: 2
#     Edge 101, Type (0, 1), BuildingBlock: AJUNOK_clean_linker_0, # of connection points: 2
#     Edge 102, Type (0, 1), BuildingBlock: AJUNOK_clean_linker_0, # of connection points: 2
#     Edge 103, Type (0, 1), BuildingBlock: AJUNOK_clean_linker_0, # of connection points: 2
#     Edge 104, Type (0, 1), BuildingBlock: AJUNOK_clean_linker_0, # of connection points: 2
#     Edge 105, Type (0, 1), BuildingBlock: AJUNOK_clean_linker_0, # of connection points: 2
#     Edge 106, Type (0, 1), BuildingBlock: AJUNOK_clean_linker_0, # of connection points: 2
#     Edge 107, Type (0, 1), BuildingBlock: AJUNOK_clean_linker_0, # of connection points: 2
# Relax obj value: 0.077
# Max RMSD: 0.244
# Mean RMSD: 0.133
data_MOF--net-ptr--node1-AZAVOO_clean_sbu_0--node2-KUFVIS_clean_linker_0--edge1-AJUNOK_clean_linker_0
_symmetry_space_group_name_H-M    P1
_symmetry_Int_Tables_number       1
_symmetry_cell_setting            triclinic
loop_
_symmetry_equiv_pos_as_xyz
'x, y, z'
_cell_length_a     59.530169
_cell_length_b     58.359606
_cell_length_c     35.045085
_cell_angle_alpha  91.914397
_cell_angle_beta   91.61349
_cell_angle_gamma 120.05054
loop_
_atom_site_label
_atom_site_type_symbol
_atom_site_fract_x
_atom_site_fract_y
_atom_site_fract_z
_atom_type_partial_charge
Mg0 Mg 0.02642 0.3739 0.96543 0.0
O1 O 0.0206 0.39546 0.01781 0.0
O2 O 0.98936 0.40385 -0.00119 0.0
Mg3 Mg 0.97559 0.38905 0.93703 0.0
C4 C 1.00578 0.40509 0.02424 0.0
C5 C 0.07542 0.37234 -0.00283 0.0
O6 O 0.08668 0.39317 0.97646 0.0
O7 O 0.98785 0.33558 0.97531 0.0
O8 O 0.95854 0.34587 0.95386 0.0
O9 O 0.05609 0.41292 0.94385 0.0
O10 O 0.01392 0.3935 0.92991 0.0
C11 C 0.96422 0.32928 0.96755 0.0
C12 C 0.03676 0.41374 0.92759 0.0
O13 O 0.05084 0.3605 -0.00014 0.0
Mg14 Mg 0.65764 0.64497 0.03919 0.0
O15 O 0.6295 0.62277 0.98734 0.0
O16 O 0.59013 0.61481 0.00249 0.0
Mg17 Mg 0.59287 0.63063 0.06409 0.0
C18 C 0.60527 0.61305 0.97896 0.0
C19 C 0.71566 0.66933 0.01633 0.0
O20 O 0.72061 0.67955 0.0516 0.0
O21 O 0.65716 0.68322 0.02761 0.0
O22 O 0.61851 0.67398 0.04792 0.0
O23 O 0.64997 0.60655 0.06118 0.0
O24 O 0.62693 0.62579 0.07468 0.0
C25 C 0.64041 0.69018 0.0348 0.0
C26 C 0.63014 0.60556 0.07693 0.0
O27 O 0.69224 0.65585 0.00312 0.0
Mg28 Mg 0.36407 0.9928 0.96942 0.0
O29 O 0.39324 1.00576 0.02168 0.0
O30 O 0.43234 0.03583 0.002 0.0
Mg31 Mg 0.42815 0.04325 0.9396 0.0
C32 C 0.41766 0.02173 0.02773 0.0
C33 C 0.31069 0.9482 -0.00665 0.0
O34 O 0.31351 0.93761 0.96149 0.0
O35 O 0.36364 0.03158 0.97665 0.0
O36 O 0.40225 0.06072 0.95566 0.0
O37 O 0.3733 0.96144 0.95035 0.0
O38 O 0.39452 1.00305 0.934 0.0
C39 C 0.38034 0.05517 0.96871 0.0
C40 C 0.39232 0.97996 0.93306 0.0
O41 O 0.32864 0.97123 0.00532 0.0
Mg42 Mg 0.99584 0.64748 0.04358 0.0
O43 O 0.99979 0.62502 -0.00901 0.0
O44 O 0.03165 0.61678 0.00684 0.0
Mg45 Mg 0.04742 0.63264 0.06781 0.0
C46 C 0.01418 0.61513 0.98304 0.0
C47 C 0.94675 0.64912 0.00905 0.0
O48 O 0.93408 0.6264 0.02531 0.0
O49 O 0.03386 0.68524 0.03122 0.0
O50 O 0.0642 0.67576 0.05022 0.0
O51 O 0.96683 0.60897 0.06715 0.0
O52 O 0.00932 0.62829 0.07817 0.0
C53 C 0.05772 0.69195 0.03717 0.0
C54 C 0.98657 0.60822 0.08207 0.0
O55 O 0.9715 0.66123 0.00993 0.0
Mg56 Mg 0.36366 0.36768 0.96731 0.0
O57 O 0.39174 0.39004 0.01961 0.0
O58 O 0.43116 0.39964 0.00183 0.0
Mg59 Mg 0.42885 0.38502 0.93992 0.0
C60 C 0.41623 0.40034 0.02671 0.0
C61 C 0.30977 0.35675 0.99038 0.0
O62 O 0.31273 0.36989 0.95945 0.0
O63 O 0.36638 0.33066 0.97748 0.0
O64 O 0.4051 0.34132 0.95589 0.0
O65 O 0.36957 0.40587 0.94629 0.0
O66 O 0.3938 0.38819 0.93193 0.0
C67 C 0.38364 0.32458 0.96961 0.0
C68 C 0.38957 0.40772 0.92985 0.0
O69 O 0.32794 0.3529 0.00226 0.0
Mg70 Mg 0.65977 0.01603 0.03307 0.0
O71 O 0.63415 0.01043 0.97911 0.0
O72 O 0.59578 0.97424 0.98632 0.0
Mg73 Mg 0.59615 0.95674 0.04293 0.0
C74 C 0.61078 0.99397 0.96723 0.0
C75 C 0.71081 0.06948 0.01582 0.0
O76 O 0.70418 0.07911 0.04503 0.0
O77 O 0.66573 0.98171 0.01437 0.0
O78 O 0.62725 0.94688 0.02571 0.0
O79 O 0.64423 0.03973 0.06159 0.0
O80 O 0.62689 0.99644 0.06419 0.0
C81 C 0.65067 0.95671 0.0159 0.0
C82 C 0.62584 0.01742 0.07282 0.0
O83 O 0.69633 0.04531 0.00434 0.0
Mg84 Mg 0.69306 0.70085 0.29874 0.0
O85 O 0.688 0.72244 0.35132 0.0
O86 O 0.65625 0.73064 0.33455 0.0
Mg87 Mg 0.6418 0.71579 0.27288 0.0
C88 C 0.67338 0.7321 0.35885 0.0
C89 C 0.74198 0.69926 0.33019 0.0
O90 O 0.75321 0.72009 0.30949 0.0
O91 O 0.65483 0.66273 0.30935 0.0
O92 O 0.62491 0.67259 0.28952 0.0
O93 O 0.72269 0.73976 0.27764 0.0
O94 O 0.68041 0.72086 0.26429 0.0
C95 C 0.63107 0.65618 0.30261 0.0
C96 C 0.70339 0.7411 0.2624 0.0
O97 O 0.71739 0.68729 0.33269 0.0
Mg98 Mg 0.32398 0.98162 0.37034 0.0
O99 O 0.29461 0.95893 0.31996 0.0
O100 O 0.25571 0.95081 0.33792 0.0
Mg101 Mg 0.25988 0.96694 0.39958 0.0
C102 C 0.2702 0.94908 0.31317 0.0
C103 C 0.37941 0.99718 0.34727 0.0
O104 O 0.38343 1.00038 0.3846 0.0
O105 O 0.3228 0.01969 0.35909 0.0
O106 O 0.28456 0.00993 0.38172 0.0
O107 O 0.31725 0.94351 0.39211 0.0
O108 O 0.29437 0.96262 0.40753 0.0
C109 C 0.30589 0.02625 0.36728 0.0
C110 C 0.29777 0.94248 0.40902 0.0
O111 O 0.35743 0.99165 0.33237 0.0
Mg112 Mg 0.02564 0.32017 0.2966 0.0
O113 O 0.05463 0.33087 0.34811 0.0
O114 O 0.09313 0.36331 0.33139 0.0
Mg115 Mg 0.08926 0.37275 0.26985 0.0
C116 C 0.07877 0.34723 0.35569 0.0
C117 C 0.96926 0.28059 0.31899 0.0
O118 O 0.96446 0.28022 0.2821 0.0
O119 O 0.02396 0.35834 0.30755 0.0
O120 O 0.06253 0.38864 0.28774 0.0
O121 O 0.03538 0.29002 0.27501 0.0
O122 O 0.05613 0.33222 0.26071 0.0
C123 C 0.04052 0.38233 0.30101 0.0
C124 C 0.05446 0.30932 0.25895 0.0
O125 O 0.99199 0.2962 0.33351 0.0
Mg126 Mg 0.66335 0.97871 0.36626 0.0
O127 O 0.67049 0.95796 0.31325 0.0
O128 O 0.70443 0.95393 0.33246 0.0
Mg129 Mg 0.71845 0.97023 0.39374 0.0
C130 C 0.687 0.95037 0.30707 0.0
C131 C 0.6153 0.98528 0.34682 0.0
O132 O 0.60744 0.97138 0.37731 0.0
O133 O 0.69937 0.01864 0.35508 0.0
O134 O 0.73177 0.01286 0.37614 0.0
O135 O 0.63624 0.93926 0.38951 0.0
O136 O 0.67858 0.96141 0.40197 0.0
C137 C 0.72359 0.0275 0.36226 0.0
C138 C 0.65653 0.94033 0.40584 0.0
O139 O 0.63697 0.99041 0.33348 0.0
Mg140 Mg 0.03169 0.70125 0.29985 0.0
O141 O 0.05936 0.72488 0.35183 0.0
O142 O 0.09934 0.7353 0.33589 0.0
Mg143 Mg 0.09761 0.71971 0.27457 0.0
C144 C 0.08382 0.73601 0.35973 0.0
C145 C 0.97792 0.69116 0.3253 0.0
O146 O 0.98067 0.70518 0.29543 0.0
O147 O 0.03525 0.6648 0.3118 0.0
O148 O 0.07441 0.67611 0.29136 0.0
O149 O 0.03705 0.73882 0.27682 0.0
O150 O 0.06199 0.72168 0.26433 0.0
C151 C 0.05293 0.65913 0.30479 0.0
C152 C 0.0573 0.74084 0.26099 0.0
O153 O 0.99593 0.6865 0.33518 0.0
Mg154 Mg 0.325 0.35974 0.37493 0.0
O155 O 0.29806 0.35175 0.32159 0.0
O156 O 0.25827 0.32019 0.3354 0.0
Mg157 Mg 0.25933 0.30879 0.39678 0.0
C158 C 0.2739 0.33654 0.3124 0.0
C159 C 0.37874 0.40515 0.35144 0.0
O160 O 0.37575 0.41682 0.38199 0.0
O161 O 0.32441 0.32058 0.36366 0.0
O162 O 0.28491 0.29093 0.38108 0.0
O163 O 0.31669 0.39106 0.39684 0.0
O164 O 0.29342 0.34854 0.40844 0.0
C165 C 0.30714 0.29669 0.36921 0.0
C166 C 0.29644 0.372 0.41126 0.0
O167 O 0.36109 0.38167 0.34098 0.0
Mg168 Mg 0.35825 0.0386 0.63441 0.0
O169 O 0.35159 0.0599 0.68553 0.0
O170 O 0.31968 0.06778 0.66769 0.0
Mg171 Mg 0.30604 0.05167 0.60608 0.0
C172 C 0.33665 0.06925 0.69223 0.0
C173 C 0.4001 0.02325 0.65699 0.0
O174 O 0.40025 0.02102 0.61958 0.0
O175 O 0.32059 0.99975 0.6452 0.0
O176 O 0.29035 0.00875 0.62375 0.0
O177 O 0.38693 0.07758 0.61225 0.0
O178 O 0.34468 0.05679 0.59773 0.0
C179 C 0.29675 0.99271 0.63757 0.0
C180 C 0.36727 0.07748 0.59539 0.0
O181 O 0.38396 0.02873 0.67188 0.0
Mg182 Mg 0.98539 0.31666 0.69905 0.0
O183 O 0.9564 0.29707 0.64683 0.0
O184 O 0.9178 0.28999 0.66514 0.0
Mg185 Mg 0.92145 0.30318 0.72814 0.0
C186 C 0.93221 0.28877 0.63978 0.0
C187 C 0.03852 0.32494 0.67596 0.0
O188 O 0.0351 0.3126 0.70781 0.0
O189 O 0.98561 0.3556 0.69148 0.0
O190 O 0.94755 0.34676 0.71383 0.0
O191 O 0.97683 0.27703 0.71805 0.0
O192 O 0.95474 0.29677 0.7342 0.0
C193 C 0.96933 0.36286 0.70033 0.0
C194 C 0.95745 0.27621 0.73503 0.0
O195 O 0.02106 0.32978 0.66364 0.0
Mg196 Mg 0.69402 0.65366 0.63228 0.0
O197 O 0.72212 0.66364 0.68507 0.0
O198 O 0.76185 0.69394 0.66787 0.0
Mg199 Mg 0.75903 0.70406 0.60636 0.0
C200 C 0.74656 0.67878 0.69221 0.0
C201 C 0.63969 0.60976 0.65622 0.0
O202 O 0.6419 0.59762 0.62555 0.0
O203 O 0.69446 0.69271 0.6417 0.0
O204 O 0.73355 0.72209 0.62262 0.0
O205 O 0.70244 0.62211 0.61155 0.0
O206 O 0.72485 0.66425 0.5977 0.0
C207 C 0.71144 0.71644 0.63499 0.0
C208 C 0.72212 0.64093 0.5957 0.0
O209 O 0.65831 0.63263 0.66722 0.0
Mg210 Mg 0.32656 0.3119 0.70453 0.0
O211 O 0.33262 0.29054 0.65206 0.0
O212 O 0.3649 0.28358 0.67054 0.0
Mg213 Mg 0.37895 0.29897 0.73212 0.0
C214 C 0.34796 0.28156 0.64541 0.0
C215 C 0.27672 0.31226 0.67356 0.0
O216 O 0.26583 0.29146 0.69436 0.0
O217 O 0.36431 0.3508 0.69432 0.0
O218 O 0.39481 0.34211 0.71546 0.0
O219 O 0.29781 0.27278 0.72665 0.0
O220 O 0.34012 0.29321 0.74001 0.0
C221 C 0.38819 0.35809 0.702 0.0
C222 C 0.31754 0.27265 0.74283 0.0
O223 O 0.30128 0.32437 0.67048 0.0
Mg224 Mg 0.69802 0.02673 0.64114 0.0
O225 O 0.7245 0.05008 0.69454 0.0
O226 O 0.76335 0.05508 0.68306 0.0
Mg227 Mg 0.76261 0.0363 0.62495 0.0
C228 C 0.74845 0.05899 0.70437 0.0
C229 C 0.64554 0.02425 0.65894 0.0
O230 O 0.65165 0.03934 0.62961 0.0
O231 O 0.69539 0.988 0.65788 0.0
O232 O 0.7341 0.99428 0.64261 0.0
O233 O 0.71001 0.06494 0.61388 0.0
O234 O 0.73 0.0419 0.60771 0.0
C235 C 0.71126 0.97947 0.65402 0.0
C236 C 0.729 0.06284 0.60049 0.0
O237 O 0.66116 0.01699 0.67145 0.0
Mg238 Mg 0.99577 0.6979 0.70975 0.0
O239 O 0.96724 0.68746 0.65744 0.0
O240 O 0.92829 0.65678 0.67579 0.0
Mg241 Mg 0.93122 0.64856 0.73816 0.0
C242 C 0.94288 0.67161 0.65053 0.0
C243 C 0.04985 0.74046 0.68457 0.0
O244 O 0.04826 0.75281 0.7155 0.0
O245 O 0.99466 0.65842 0.70108 0.0
O246 O 0.95584 0.62975 0.7219 0.0
O247 O 0.98829 0.73028 0.7294 0.0
O248 O 0.96546 0.68846 0.74481 0.0
C249 C 0.97751 0.6349 0.70845 0.0
C250 C 0.96854 0.71194 0.74574 0.0
O251 O 0.03087 0.71778 0.67382 0.0
H252 H 0.26084 0.34172 0.13571 0.0
H253 H 0.19652 0.32998 0.06234 0.0
H254 H 0.19474 0.33869 0.18523 0.0
H255 H 0.15346 0.308 0.17303 0.0
H256 H 0.0947 0.31817 0.11744 0.0
H257 H 0.1678 0.34643 0.06547 0.0
C258 C 0.2418 0.33978 0.13224 0.0
C259 C 0.22886 0.34023 0.16454 0.0
C260 C 0.23041 0.33643 0.09547 0.0
C261 C 0.20543 0.33327 0.09086 0.0
C262 C 0.19176 0.33325 0.12317 0.0
C263 C 0.20417 0.3375 0.15987 0.0
C264 C 0.16434 0.3278 0.11946 0.0
C265 C 0.14735 0.315 0.14885 0.0
C266 C 0.12253 0.31191 0.14831 0.0
C267 C 0.11365 0.31975 0.11697 0.0
C268 C 0.12953 0.33179 0.08669 0.0
C269 C 0.15511 0.33613 0.08812 0.0
H270 H 0.67955 0.92462 0.1296 0.0
H271 H 0.68399 0.86459 0.0617 0.0
H272 H 0.68123 0.86121 0.18482 0.0
H273 H 0.70758 0.84527 0.17709 0.0
H274 H 0.69471 0.77363 0.1203 0.0
H275 H 0.66649 0.81962 0.06578 0.0
C276 C 0.68056 0.90656 0.12789 0.0
C277 C 0.68121 0.89464 0.16148 0.0
C278 C 0.68108 0.89549 0.09203 0.0
C279 C 0.68285 0.8724 0.08958 0.0
C280 C 0.68372 0.85999 0.12303 0.0
C281 C 0.68204 0.87099 0.15877 0.0
C282 C 0.68722 0.83623 0.1211 0.0
C283 C 0.6999 0.83166 0.15216 0.0
C284 C 0.7022 0.80897 0.15206 0.0
C285 C 0.69365 0.79166 0.11973 0.0
C286 C 0.6811 0.79547 0.0884 0.0
C287 C 0.67745 0.81755 0.08926 0.0
H288 H 0.25839 0.92087 0.13832 0.0
H289 H 0.19506 0.86389 0.06333 0.0
H290 H 0.19143 0.85904 0.18628 0.0
H291 H 0.15079 0.8448 0.17578 0.0
H292 H 0.09055 0.77585 0.11562 0.0
H293 H 0.16394 0.81968 0.06457 0.0
C294 C 0.23923 0.90343 0.13423 0.0
C295 C 0.22529 0.89178 0.16615 0.0
C296 C 0.22881 0.8931 0.09716 0.0
C297 C 0.20347 0.87094 0.09205 0.0
C298 C 0.18897 0.85864 0.12408 0.0
C299 C 0.20092 0.86878 0.16097 0.0
C300 C 0.16123 0.83614 0.11996 0.0
C301 C 0.14447 0.83179 0.15024 0.0
C302 C 0.11938 0.80987 0.14896 0.0
C303 C 0.10974 0.79339 0.1159 0.0
C304 C 0.12544 0.79696 0.08518 0.0
C305 C 0.15144 0.81805 0.08741 0.0
H306 H 0.35441 0.09613 0.86946 0.0
H307 H 0.34848 0.15371 0.94076 0.0
H308 H 0.34028 0.15288 0.81709 0.0
H309 H 0.31704 0.17054 0.82746 0.0
H310 H 0.32891 0.24091 0.88633 0.0
H311 H 0.36043 0.19668 0.93722 0.0
C312 C 0.35099 0.11271 0.87213 0.0
C313 C 0.3456 0.12237 0.83942 0.0
C314 C 0.35237 0.12418 0.90836 0.0
C315 C 0.3482 0.14577 0.9123 0.0
C316 C 0.34342 0.15657 0.87947 0.0
C317 C 0.34291 0.14486 0.84306 0.0
C318 C 0.3386 0.17955 0.88271 0.0
C319 C 0.32497 0.18387 0.85259 0.0
C320 C 0.32191 0.2061 0.85376 0.0
C321 C 0.33057 0.2232 0.88624 0.0
C322 C 0.34412 0.21973 0.91657 0.0
C323 C 0.34857 0.19818 0.9146 0.0
H324 H 0.76112 0.09794 0.87575 0.0
H325 H 0.82523 0.15952 0.94432 0.0
H326 H 0.82508 0.15823 0.82045 0.0
H327 H 0.86586 0.17493 0.82793 0.0
H328 H 0.92724 0.24587 0.88207 0.0
H329 H 0.8569 0.20219 0.94047 0.0
C330 C 0.77987 0.11606 0.87769 0.0
C331 C 0.79265 0.12623 0.84443 0.0
C332 C 0.79122 0.12838 0.91356 0.0
C333 C 0.81621 0.15113 0.91626 0.0
C334 C 0.82959 0.16201 0.88279 0.0
C335 C 0.81663 0.14986 0.84699 0.0
C336 C 0.85723 0.18489 0.88437 0.0
C337 C 0.87278 0.18869 0.85264 0.0
C338 C 0.89749 0.21098 0.85138 0.0
C339 C 0.90827 0.22823 0.88353 0.0
C340 C 0.8941 0.22489 0.91604 0.0
C341 C 0.86826 0.20359 0.91619 0.0
H342 H 0.76053 0.67318 0.86854 0.0
H343 H 0.82596 0.6884 0.94203 0.0
H344 H 0.83093 0.68788 0.819 0.0
H345 H 0.8715 0.71648 0.83273 0.0
H346 H 0.93004 0.7057 0.88782 0.0
H347 H 0.85651 0.67569 0.93843 0.0
C348 C 0.78048 0.67753 0.87198 0.0
C349 C 0.79471 0.68084 0.83964 0.0
C350 C 0.79145 0.67984 0.90874 0.0
C351 C 0.81748 0.68602 0.91341 0.0
C352 C 0.83232 0.68907 0.88118 0.0
C353 C 0.82036 0.68601 0.84435 0.0
C354 C 0.8601 0.69544 0.88533 0.0
C355 C 0.87739 0.70901 0.85654 0.0
C356 C 0.90224 0.71208 0.85694 0.0
C357 C 0.91107 0.70406 0.88817 0.0
C358 C 0.89509 0.69176 0.91822 0.0
C359 C 0.8693 0.68677 0.91633 0.0
H360 H 0.9294 0.67471 0.47322 0.0
H361 H 0.8647 0.66167 0.39945 0.0
H362 H 0.86256 0.6701 0.52226 0.0
H363 H 0.82158 0.63991 0.51152 0.0
H364 H 0.76142 0.64669 0.4539 0.0
H365 H 0.83459 0.67568 0.40184 0.0
C366 C 0.91009 0.67212 0.46955 0.0
C367 C 0.89663 0.67155 0.50174 0.0
C368 C 0.89886 0.66896 0.43269 0.0
C369 C 0.87355 0.66502 0.42802 0.0
C370 C 0.85957 0.66446 0.46031 0.0
C371 C 0.87199 0.66887 0.49694 0.0
C372 C 0.83188 0.65836 0.45673 0.0
C373 C 0.81514 0.64602 0.48668 0.0
C374 C 0.78993 0.64195 0.48563 0.0
C375 C 0.78061 0.64883 0.4537 0.0
C376 C 0.79636 0.6607 0.42321 0.0
C377 C 0.82214 0.66564 0.42483 0.0
H378 H 0.33156 0.25414 0.46952 0.0
H379 H 0.33776 0.19719 0.39666 0.0
H380 H 0.33969 0.19307 0.52001 0.0
H381 H 0.36623 0.17877 0.51074 0.0
H382 H 0.35836 0.11026 0.45125 0.0
H383 H 0.32606 0.1534 0.39862 0.0
C384 C 0.33358 0.2367 0.46634 0.0
C385 C 0.33668 0.22525 0.4988 0.0
C386 C 0.33335 0.22629 0.42971 0.0
C387 C 0.33702 0.20433 0.42523 0.0
C388 C 0.34031 0.19231 0.45779 0.0
C389 C 0.33897 0.20255 0.4944 0.0
C390 C 0.34601 0.16991 0.45444 0.0
C391 C 0.35932 0.16575 0.4852 0.0
C392 C 0.36339 0.14416 0.48412 0.0
C393 C 0.35602 0.12756 0.45121 0.0
C394 C 0.34286 0.13086 0.42013 0.0
C395 C 0.33748 0.15184 0.42189 0.0
H396 H 0.91938 0.2579 0.46335 0.0
H397 H 0.86162 0.18937 0.39747 0.0
H398 H 0.84799 0.20649 0.5133 0.0
H399 H 0.82395 0.16493 0.51536 0.0
H400 H 0.75847 0.10243 0.45348 0.0
H401 H 0.82 0.16122 0.39107 0.0
C402 C 0.90031 0.24019 0.46104 0.0
C403 C 0.88491 0.23313 0.49251 0.0
C404 C 0.8918 0.22461 0.42686 0.0
C405 C 0.86717 0.20158 0.42373 0.0
C406 C 0.85073 0.1941 0.45492 0.0
C407 C 0.85985 0.21085 0.48888 0.0
C408 C 0.82491 0.16851 0.45338 0.0
C409 C 0.81372 0.15701 0.48789 0.0
C410 C 0.78965 0.13383 0.48758 0.0
C411 C 0.77654 0.12123 0.45308 0.0
C412 C 0.78784 0.13037 0.41842 0.0
C413 C 0.81181 0.15432 0.41831 0.0
H414 H 0.01747 0.42692 0.201 0.0
H415 H 0.01343 0.48428 0.27616 0.0
H416 H 0.01456 0.49184 0.15354 0.0
H417 H 0.98701 0.5056 0.16418 0.0
H418 H 0.99916 0.57573 0.22453 0.0
H419 H 0.0298 0.53018 0.2743 0.0
C420 C 0.01646 0.4449 0.205 0.0
C421 C 0.01518 0.4579 0.17313 0.0
C422 C 0.01634 0.45456 0.24203 0.0
C423 C 0.01427 0.47745 0.24742 0.0
C424 C 0.0126 0.49085 0.21542 0.0
C425 C 0.01416 0.48126 0.17853 0.0
C426 C 1.00823 0.51404 0.21952 0.0
C427 C 0.9948 0.51877 0.18956 0.0
C428 C 0.99178 0.54102 0.19132 0.0
C429 C 1.00066 0.55792 0.22403 0.0
C430 C 0.01417 0.55413 0.25413 0.0
C431 C 0.01823 0.5323 0.2518 0.0
H432 H 0.42796 0.42909 0.20295 0.0
H433 H 0.49244 0.48581 0.27637 0.0
H434 H 0.49556 0.48895 0.15327 0.0
H435 H 0.53616 0.50241 0.16411 0.0
H436 H 0.59679 0.57227 0.22227 0.0
H437 H 0.52378 0.52948 0.27433 0.0
C438 C 0.44735 0.44625 0.20649 0.0
C439 C 0.46126 0.45712 0.1742 0.0
C440 C 0.45819 0.45696 0.24328 0.0
C441 C 0.48378 0.47861 0.24779 0.0
C442 C 0.4982 0.49016 0.2155 0.0
C443 C 0.48599 0.47975 0.17882 0.0
C444 C 0.52606 0.51227 0.2193 0.0
C445 C 0.54267 0.51593 0.18912 0.0
C446 C 0.56766 0.53797 0.18958 0.0
C447 C 0.57759 0.55479 0.22233 0.0
C448 C 0.56216 0.55154 0.25328 0.0
C449 C 0.53611 0.53069 0.25146 0.0
H450 H 0.42882 0.01263 0.20239 0.0
H451 H 0.48574 1.0068 0.27195 0.0
H452 H 0.50285 0.03638 0.15822 0.0
H453 H 0.52522 0.01733 0.15499 0.0
H454 H 0.58774 0.01863 0.21776 0.0
H455 H 0.52735 0.02037 0.27936 0.0
C456 C 0.44829 0.0157 0.20615 0.0
C457 C 0.46485 0.02444 0.17598 0.0
C458 C 0.45614 0.01025 0.241 0.0
C459 C 0.48073 0.01249 0.24541 0.0
C460 C 0.49789 0.02086 0.21509 0.0
C461 C 0.48991 0.02812 0.18125 0.0
C462 C 0.52318 0.02066 0.21709 0.0
C463 C 0.53465 0.01945 0.18272 0.0
C464 C 0.55804 0.01944 0.1834 0.0
C465 C 0.57007 0.01974 0.21802 0.0
C466 C 0.55882 0.0193 0.25254 0.0
C467 C 0.53552 0.02017 0.25229 0.0
H468 H 0.59542 0.00929 0.79576 0.0
H469 H 0.5296 0.99915 0.72794 0.0
H470 H 0.53092 1.00526 0.85174 0.0
H471 H 0.48954 0.97698 0.84297 0.0
H472 H 0.42841 0.98449 0.79004 0.0
H473 H 0.50042 0.01422 0.73457 0.0
C474 C 0.57648 0.00775 0.79409 0.0
C475 C 0.56429 0.00724 0.8276 0.0
C476 C 0.56428 1.00527 0.7583 0.0
C477 C 0.53917 1.00199 0.75585 0.0
C478 C 0.52624 1.00119 0.78955 0.0
C479 C 0.53959 1.00469 0.82526 0.0
C480 C 0.49869 0.99569 0.78822 0.0
C481 C 0.48268 0.98339 0.81897 0.0
C482 C 0.4576 0.97967 0.81975 0.0
C483 C 0.44769 0.98691 0.78894 0.0
C484 C 0.46299 0.9995 0.75843 0.0
C485 C 0.48844 1.00369 0.75774 0.0
H486 H 0.99934 0.59012 0.80667 0.0
H487 H 1.00825 0.53534 0.73312 0.0
H488 H 1.0086 0.52929 0.85615 0.0
H489 H 0.03665 0.51636 0.84573 0.0
H490 H 0.02757 0.44754 0.78507 0.0
H491 H 0.99459 0.49084 0.73518 0.0
C492 C 1.00172 0.57291 0.8033 0.0
C493 C 1.00412 0.56084 0.83555 0.0
C494 C 1.00255 0.56337 0.76657 0.0
C495 C 1.00685 0.5419 0.76175 0.0
C496 C 0.00988 0.52958 0.79407 0.0
C497 C 1.00771 0.53896 0.83082 0.0
C498 C 0.01574 0.50743 0.79011 0.0
C499 C 0.02952 0.50333 0.82017 0.0
C500 C 0.03354 0.48169 0.81841 0.0
C501 C 0.02544 0.46497 0.7855 0.0
C502 C 0.01158 0.46819 0.75531 0.0
C503 C 1.00651 0.48932 0.75772 0.0
H504 H 0.59073 0.58548 0.80235 0.0
H505 H 0.52543 0.52892 0.73032 0.0
H506 H 0.52442 0.52475 0.85357 0.0
H507 H 0.48362 0.51099 0.84448 0.0
H508 H 0.42155 0.44279 0.78534 0.0
H509 H 0.49438 0.48496 0.73238 0.0
C510 C 0.57144 0.56815 0.79932 0.0
C511 C 0.55849 0.5565 0.83197 0.0
C512 C 0.55984 0.55799 0.76277 0.0
C513 C 0.53447 0.53598 0.75874 0.0
C514 C 0.5207 0.52399 0.79138 0.0
C515 C 0.53355 0.53411 0.82785 0.0
C516 C 0.49283 0.50183 0.78811 0.0
C517 C 0.47664 0.49798 0.81893 0.0
C518 C 0.45131 0.47653 0.81815 0.0
C519 C 0.44093 0.46001 0.78518 0.0
C520 C 0.45611 0.46307 0.75397 0.0
C521 C 0.4823 0.4837 0.75564 0.0
H522 H 0.68784 0.75895 0.53476 0.0
H523 H 0.67927 0.81455 0.60618 0.0
H524 H 0.67915 0.81912 0.48255 0.0
H525 H 0.65816 0.83924 0.48861 0.0
H526 H 0.6612 0.90329 0.55459 0.0
H527 H 0.68747 0.85532 0.60733 0.0
C528 C 0.68554 0.77623 0.53744 0.0
C529 C 0.68304 0.78781 0.50474 0.0
C530 C 0.68505 0.78645 0.57375 0.0
C531 C 0.68065 0.80791 0.57766 0.0
C532 C 0.67777 0.82008 0.54483 0.0
C533 C 0.67976 0.80994 0.50849 0.0
C534 C 0.67266 0.84297 0.54803 0.0
C535 C 0.66284 0.85014 0.51591 0.0
C536 C 0.6591 0.87199 0.51824 0.0
C537 C 0.66338 0.88589 0.55325 0.0
C538 C 0.67309 0.87955 0.5855 0.0
C539 C 0.67833 0.85861 0.58269 0.0
H540 H 0.09759 0.76385 0.53615 0.0
H541 H 0.16265 0.82022 0.6087 0.0
H542 H 0.16429 0.82465 0.48556 0.0
H543 H 0.20527 0.83829 0.49607 0.0
H544 H 0.26526 0.90881 0.55387 0.0
H545 H 0.19276 0.86447 0.60679 0.0
C546 C 0.1169 0.78114 0.53931 0.0
C547 C 0.12999 0.79285 0.50677 0.0
C548 C 0.12841 0.7912 0.57595 0.0
C549 C 0.15372 0.8132 0.58021 0.0
C550 C 0.16757 0.8253 0.54777 0.0
C551 C 0.15496 0.81522 0.51115 0.0
C552 C 0.19523 0.84774 0.55148 0.0
C553 C 0.21176 0.85177 0.52114 0.0
C554 C 0.23653 0.87411 0.52152 0.0
C555 C 0.2463 0.89104 0.5542 0.0
C556 C 0.23094 0.88748 0.58536 0.0
C557 C 0.20511 0.8661 0.58373 0.0
H558 H 0.09053 0.3412 0.53143 0.0
H559 H 0.15371 0.35248 0.60736 0.0
H560 H 0.15776 0.34539 0.48475 0.0
H561 H 0.19861 0.3758 0.49746 0.0
H562 H 0.25675 0.36503 0.55371 0.0
H563 H 0.18363 0.33755 0.60529 0.0
C564 C 0.10965 0.34345 0.53584 0.0
C565 C 0.12359 0.34425 0.50414 0.0
C566 C 0.12006 0.3458 0.57308 0.0
C567 C 0.14529 0.34953 0.57859 0.0
C568 C 0.15977 0.35033 0.54677 0.0
C569 C 0.14799 0.3465 0.50975 0.0
C570 C 0.1873 0.35598 0.55107 0.0
C571 C 0.20448 0.36866 0.52172 0.0
C572 C 0.22919 0.37142 0.52233 0.0
C573 C 0.23788 0.36365 0.55394 0.0
C574 C 0.22194 0.35197 0.58431 0.0
C575 C 0.19639 0.34773 0.58265 0.0
C576 C 0.02815 0.42396 0.08899 0.0
C577 C 1.00804 0.41892 0.0619 0.0
C578 C 0.03076 0.43717 0.12447 0.0
C579 C 0.01346 0.44598 0.13426 0.0
H580 H 0.04202 0.41766 0.08285 0.0
H581 H 0.04642 0.44045 0.1445 0.0
S582 S 0.957 0.43724 0.07462 0.0
N583 N 0.97019 0.42368 0.04807 0.0
N584 N 0.97521 0.44823 0.11474 0.0
C585 C 0.99336 0.44122 0.10759 0.0
C586 C 0.99061 0.42774 0.0715 0.0
C587 C 0.62382 0.57396 0.12681 0.0
C588 C 0.61289 0.58284 0.09904 0.0
C589 C 0.60841 0.55665 0.15411 0.0
C590 C 0.58158 0.54742 0.15402 0.0
H591 H 0.64466 0.58207 0.12935 0.0
H592 H 0.61782 0.55211 0.17717 0.0
S593 S 0.54307 0.56036 0.08182 0.0
N594 N 0.57334 0.57774 0.06892 0.0
N595 N 0.54426 0.54536 0.12031 0.0
C596 C 0.57011 0.5539 0.12377 0.0
C597 C 0.58585 0.57172 0.09629 0.0
C598 C 0.44702 0.01362 0.06945 0.0
C599 C 0.42989 0.02342 0.06544 0.0
C600 C 0.45905 0.015 0.10508 0.0
C601 C 0.45472 0.02669 0.13778 0.0
H602 H 0.45068 1.00429 0.04503 0.0
H603 H 0.47113 1.00603 0.10721 0.0
S604 S 0.41414 0.05857 0.14033 0.0
N605 N 0.41052 0.04685 0.09564 0.0
N606 N 0.43405 0.05074 0.16247 0.0
C607 C 0.43853 0.03776 0.13344 0.0
C608 C 0.42588 0.0358 0.09729 0.0
C609 C 0.43686 0.99418 0.91258 0.0
C610 C 0.41033 0.97493 0.91125 0.0
C611 C 0.45322 0.99348 0.88521 0.0
C612 C 0.44341 0.97379 0.85527 0.0
H613 H 0.44468 0.01073 0.93353 0.0
H614 H 0.47302 0.00988 0.88532 0.0
S615 S 0.37625 0.91696 0.8422 0.0
N616 N 0.37571 0.93384 0.88064 0.0
N617 N 0.4064 0.93303 0.82832 0.0
C618 C 0.4175 0.95316 0.85566 0.0
C619 C 0.40094 0.95359 0.88396 0.0
C620 C 0.02217 0.44496 0.90767 0.0
C621 C 0.04057 0.43663 0.90622 0.0
C622 C 0.02214 0.46268 0.88173 0.0
C623 C 0.04027 0.47226 0.85312 0.0
H624 H 1.00693 0.43677 0.92777 0.0
H625 H 1.00641 0.46697 0.88186 0.0
S626 S 0.09449 0.45923 0.84048 0.0
N627 N 0.07926 0.44173 0.87702 0.0
N628 N 0.07869 0.4745 0.82739 0.0
C629 C 0.06006 0.46584 0.85345 0.0
C630 C 0.06036 0.44814 0.88029 0.0
C631 C 0.56771 0.5895 0.9308 0.0
C632 C 0.5939 0.59825 0.94147 0.0
C633 C 0.55623 0.57526 0.89598 0.0
C634 C 0.57042 0.56913 0.87032 0.0
H635 H 0.5559 0.59388 0.94928 0.0
H636 H 0.53625 0.56962 0.88864 0.0
S637 S 0.63891 0.58544 0.88524 0.0
N638 N 0.63332 0.59845 0.92382 0.0
N639 N 0.61153 0.57146 0.85862 0.0
C640 C 0.59639 0.57713 0.88083 0.0
C641 C 0.60818 0.59173 0.91627 0.0
C642 C 0.02828 0.59256 0.93535 0.0
C643 C 0.0104 0.60061 0.94553 0.0
C644 C 0.0255 0.57883 0.90041 0.0
C645 C 1.00476 0.57256 0.87411 0.0
H646 H 0.04488 0.59718 0.95427 0.0
H647 H 0.0402 0.57382 0.89345 0.0
S648 S 0.95133 0.58692 0.88756 0.0
N649 N 0.97029 0.59985 0.92682 0.0
N650 N 0.96507 0.57382 0.86125 0.0
C651 C 0.98631 0.57976 0.88414 0.0
C652 C 0.98913 0.59383 0.91975 0.0
C653 C 0.43314 0.4398 0.90765 0.0
C654 C 0.40642 0.43084 0.90807 0.0
C655 C 0.44858 0.45776 0.88109 0.0
C656 C 0.43765 0.46692 0.85373 0.0
H657 H 0.44192 0.43191 0.92665 0.0
H658 H 0.46862 0.46252 0.87969 0.0
S659 S 0.36953 0.45231 0.84635 0.0
N660 N 0.37037 0.43497 0.88213 0.0
N661 N 0.39939 0.46822 0.83136 0.0
C662 C 0.41151 0.45993 0.85605 0.0
C663 C 0.39586 0.44198 0.88351 0.0
C664 C 0.5733 0.98122 0.92061 0.0
C665 C 0.59972 0.99849 0.93161 0.0
C666 C 0.5618 0.98498 0.8879 0.0
C667 C 0.57622 1.00611 0.86464 0.0
H668 H 0.56123 0.96442 0.93724 0.0
H669 H 0.54164 0.9707 0.88011 0.0
S670 S 0.64552 0.05795 0.88112 0.0
N671 N 0.63971 0.03831 0.91687 0.0
N672 N 0.61788 0.04528 0.85528 0.0
C673 C 0.60246 0.02388 0.87543 0.0
C674 C 0.61426 0.02012 0.90889 0.0
C675 C 0.60184 0.03842 0.10104 0.0
C676 C 0.60473 0.01601 0.09574 0.0
C677 C 0.58452 0.03872 0.12714 0.0
C678 C 0.56951 0.01655 0.14831 0.0
H679 H 0.61389 0.05628 0.08637 0.0
H680 H 0.58414 0.0569 0.13262 0.0
S681 S 0.56805 0.95242 0.14349 0.0
N682 N 0.58986 0.97062 0.11308 0.0
N683 N 0.55686 0.97119 0.16075 0.0
C684 C 0.57081 0.9935 0.14143 0.0
C685 C 0.58859 0.99323 0.11547 0.0
C686 C 1.00185 0.57745 0.10182 0.0
C687 C 0.98334 0.58564 0.10382 0.0
C688 C 1.00238 0.55996 0.12778 0.0
C689 C 0.98467 0.55045 0.15693 0.0
H690 H 0.01675 0.58553 0.08122 0.0
H691 H 0.01814 0.55573 0.12712 0.0
S692 S 0.93051 0.56331 0.17148 0.0
N693 N 0.94508 0.58057 0.1344 0.0
N694 N 0.94663 0.54827 0.184 0.0
C695 C 0.96484 0.55681 0.15732 0.0
C696 C 0.96402 0.57426 0.13048 0.0
C697 C 0.41361 0.42129 0.08902 0.0
C698 C 0.42802 0.41465 0.06434 0.0
C699 C 0.4246 0.43549 0.12409 0.0
C700 C 0.45044 0.44367 0.13588 0.0
H701 H 0.39372 0.41566 0.08114 0.0
H702 H 0.41278 0.44015 0.14213 0.0
S703 S 0.49618 0.43023 0.08325 0.0
N704 N 0.46949 0.41682 0.05513 0.0
N705 N 0.48982 0.44321 0.12106 0.0
C706 C 0.46503 0.43707 0.11173 0.0
C707 C 0.45391 0.42263 0.07604 0.0
C708 C 0.6587 0.75446 0.4059 0.0
C709 C 0.6768 0.74661 0.39621 0.0
C710 C 0.66143 0.76862 0.4404 0.0
C711 C 0.68234 0.77551 0.46667 0.0
H712 H 0.64203 0.74944 0.3869 0.0
H713 H 0.64663 0.77355 0.44702 0.0
S714 S 0.73623 0.76172 0.45442 0.0
N715 N 0.71719 0.74809 0.41538 0.0
N716 N 0.72231 0.77491 0.48012 0.0
C717 C 0.70094 0.76842 0.45717 0.0
C718 C 0.69817 0.75391 0.42203 0.0
C719 C 0.29224 0.91095 0.45853 0.0
C720 C 0.28092 0.91962 0.43108 0.0
C721 C 0.27712 0.89339 0.48577 0.0
C722 C 0.25022 0.88373 0.4859 0.0
H723 H 0.31314 0.91939 0.46089 0.0
H724 H 0.28678 0.889 0.50865 0.0
S725 S 0.21082 0.896 0.4144 0.0
N726 N 0.241 0.91387 0.40136 0.0
N727 N 0.21245 0.88104 0.45267 0.0
C728 C 0.23839 0.89001 0.45591 0.0
C729 C 0.25383 0.90806 0.42849 0.0
C730 C 0.0762 0.32701 0.41864 0.0
C731 C 0.09081 0.34676 0.39322 0.0
C732 C 0.08712 0.32587 0.45397 0.0
C733 C 0.11307 0.34437 0.4653 0.0
H734 H 0.05614 0.31224 0.4113 0.0
H735 H 0.0751 0.31041 0.47266 0.0
S736 S 0.15968 0.40037 0.41016 0.0
N737 N 0.13283 0.38544 0.38238 0.0
N738 N 0.15301 0.38332 0.44896 0.0
C739 C 0.12798 0.36413 0.44026 0.0
C740 C 0.11692 0.36533 0.40426 0.0
C741 C 0.06364 0.28608 0.20669 0.0
C742 C 0.07296 0.30507 0.23746 0.0
C743 C 0.08052 0.28627 0.1795 0.0
C744 C 0.10719 0.30523 0.18274 0.0
H745 H 0.04295 0.27254 0.20179 0.0
H746 H 0.07239 0.273 0.1542 0.0
S747 S 0.14163 0.3552 0.2629 0.0
N748 N 0.11075 0.34016 0.2733 0.0
N749 N 0.14259 0.34072 0.22217 0.0
C750 C 0.11704 0.32226 0.21576 0.0
C751 C 0.09982 0.32221 0.24314 0.0
C752 C 0.72623 0.7734 0.21328 0.0
C753 C 0.70771 0.76422 0.24132 0.0
C754 C 0.72657 0.79083 0.18647 0.0
C755 C 0.70865 0.79986 0.18736 0.0
H756 H 0.73903 0.76535 0.21002 0.0
H757 H 0.73941 0.79551 0.16304 0.0
S758 S 0.66051 0.78637 0.26075 0.0
N759 N 0.67436 0.76901 0.27274 0.0
N760 N 0.67477 0.80164 0.2222 0.0
C761 C 0.69214 0.7932 0.21798 0.0
C762 C 0.69164 0.77527 0.24498 0.0
C763 C 0.27275 0.92798 0.25113 0.0
C764 C 0.25811 0.93414 0.27605 0.0
C765 C 0.26182 0.91363 0.21621 0.0
C766 C 0.23581 0.90482 0.20474 0.0
H767 H 0.29286 0.93423 0.25858 0.0
H768 H 0.27389 0.90949 0.19792 0.0
S769 S 0.18912 0.91609 0.25858 0.0
N770 N 0.21603 0.93028 0.28628 0.0
N771 N 0.19578 0.90368 0.22044 0.0
C772 C 0.22087 0.91066 0.2293 0.0
C773 C 0.23195 0.92525 0.26492 0.0
C774 C 0.66649 0.93082 0.24116 0.0
C775 C 0.68567 0.93603 0.27005 0.0
C776 C 0.66485 0.91707 0.20646 0.0
C777 C 0.68215 0.90776 0.19928 0.0
H778 H 0.65263 0.93743 0.24526 0.0
H779 H 0.64984 0.91366 0.18507 0.0
S780 S 0.7364 0.91658 0.26441 0.0
N781 N 0.7227 0.9308 0.28827 0.0
N782 N 0.71945 0.90529 0.22327 0.0
C783 C 0.70136 0.91275 0.22774 0.0
C784 C 0.70317 0.9268 0.26296 0.0
C785 C 0.10085 0.77329 0.23881 0.0
C786 C 0.07399 0.76375 0.2386 0.0
C787 C 0.11631 0.79126 0.21225 0.0
C788 C 0.10529 0.79989 0.1842 0.0
H789 H 0.10978 0.7659 0.25845 0.0
H790 H 0.13652 0.79654 0.2115 0.0
S791 S 0.03664 0.78343 0.1746 0.0
N792 N 0.03759 0.76661 0.21101 0.0
N793 N 0.06664 0.79986 0.16025 0.0
C794 C 0.07892 0.7922 0.18568 0.0
C795 C 0.06324 0.77424 0.21315 0.0
C796 C 0.23681 0.32047 0.2637 0.0
C797 C 0.26308 0.33848 0.27463 0.0
C798 C 0.22573 0.32182 0.2287 0.0
C799 C 0.24041 0.34122 0.20309 0.0
H800 H 0.22462 0.30492 0.28212 0.0
H801 H 0.20567 0.30707 0.22117 0.0
S802 S 0.30933 0.39435 0.21853 0.0
N803 N 0.30313 0.37722 0.25726 0.0
N804 N 0.28207 0.37977 0.1916 0.0
C805 C 0.26647 0.35975 0.21382 0.0
C806 C 0.27785 0.35838 0.24948 0.0
C807 C 0.28808 0.39586 0.46377 0.0
C808 C 0.27836 0.37705 0.43274 0.0
C809 C 0.27145 0.3961 0.4911 0.0
C810 C 0.24459 0.37775 0.48784 0.0
H811 H 0.30885 0.40888 0.46877 0.0
H812 H 0.27986 0.4092 0.5165 0.0
S813 S 0.20921 0.32861 0.40705 0.0
N814 N 0.24007 0.3429 0.39664 0.0
N815 N 0.2087 0.34311 0.44804 0.0
C816 C 0.23441 0.36096 0.45459 0.0
C817 C 0.25138 0.36059 0.42703 0.0
C818 C 0.67523 0.91379 0.43257 0.0
C819 C 0.65445 0.91876 0.42935 0.0
C820 C 0.67535 0.89634 0.45907 0.0
C821 C 0.65487 0.88356 0.48367 0.0
H822 H 0.69191 0.92409 0.41538 0.0
H823 H 0.69238 0.89424 0.46216 0.0
S824 S 0.59509 0.88819 0.48494 0.0
N825 N 0.61193 0.90782 0.45112 0.0
N826 N 0.61265 0.87567 0.50169 0.0
C827 C 0.6334 0.88723 0.4794 0.0
C828 C 0.63304 0.90463 0.45198 0.0
C829 C 0.12125 0.76001 0.40796 0.0
C830 C 0.09502 0.75099 0.39714 0.0
C831 C 0.13258 0.77431 0.44278 0.0
C832 C 0.11821 0.78026 0.46832 0.0
H833 H 0.13318 0.75572 0.38963 0.0
H834 H 0.15258 0.7801 0.45024 0.0
S835 S 0.04958 0.76341 0.45282 0.0
N836 N 0.0554 0.75047 0.41437 0.0
N837 N 0.0769 0.7776 0.47962 0.0
C838 C 0.0922 0.77205 0.45761 0.0
C839 C 0.08057 0.75738 0.42215 0.0
C840 C 0.35398 0.1101 0.73478 0.0
C841 C 0.33901 0.08237 0.72973 0.0
C842 C 0.35585 0.12303 0.77023 0.0
C843 C 0.34268 0.10859 0.80159 0.0
H844 H 0.36435 0.12181 0.71122 0.0
H845 H 0.36798 0.14441 0.77324 0.0
S846 S 0.29945 0.03553 0.80144 0.0
N847 N 0.31012 0.0409 0.7578 0.0
N848 N 0.31293 0.06499 0.82424 0.0
C849 C 0.32721 0.08078 0.79636 0.0
C850 C 0.32554 0.06771 0.76043 0.0
C851 C 0.9518 0.24473 0.78475 0.0
C852 C 0.9405 0.25363 0.75761 0.0
C853 C 0.93701 0.2282 0.81323 0.0
C854 C 0.91041 0.21974 0.81493 0.0
H855 H 0.97258 0.25236 0.78598 0.0
H856 H 0.94681 0.2237 0.83575 0.0
S857 S 0.87084 0.23312 0.74533 0.0
N858 N 0.90064 0.24947 0.73027 0.0
N859 N 0.87272 0.21841 0.78375 0.0
C860 C 0.89842 0.22619 0.78539 0.0
C861 C 0.91355 0.24326 0.75674 0.0
C862 C 0.75618 0.69209 0.76143 0.0
C863 C 0.75804 0.67819 0.72949 0.0
C864 C 0.76839 0.69305 0.79668 0.0
C865 C 0.78264 0.67985 0.80133 0.0
H866 H 0.7456 0.70266 0.75896 0.0
H867 H 0.76686 0.70447 0.82043 0.0
S868 S 0.79223 0.63987 0.7258 0.0
N869 N 0.77484 0.65092 0.70395 0.0
N870 N 0.79697 0.65166 0.77063 0.0
C871 C 0.78436 0.66565 0.76937 0.0
C872 C 0.77221 0.66504 0.73335 0.0
C873 C 0.76707 0.65501 0.57758 0.0
C874 C 0.74044 0.63606 0.57456 0.0
C875 C 0.78402 0.6547 0.55096 0.0
C876 C 0.77471 0.63568 0.52017 0.0
H877 H 0.77458 0.67107 0.59932 0.0
H878 H 0.80396 0.6709 0.5524 0.0
S879 S 0.70749 0.57957 0.50291 0.0
N880 N 0.70621 0.59579 0.54157 0.0
N881 N 0.73804 0.59564 0.49077 0.0
C882 C 0.74866 0.61522 0.51894 0.0
C883 C 0.73149 0.61529 0.54643 0.0
C884 C 0.3514 0.10733 0.57349 0.0
C885 C 0.37049 0.09988 0.57325 0.0
C886 C 0.35119 0.12472 0.54709 0.0
C887 C 0.36982 0.13486 0.51924 0.0
H888 H 0.33587 0.09876 0.59305 0.0
H889 H 0.33504 0.12838 0.54633 0.0
S890 S 0.42567 0.12408 0.50962 0.0
N891 N 0.41018 0.10634 0.54583 0.0
N892 N 0.40926 0.13846 0.49536 0.0
C893 C 0.39016 0.12926 0.52067 0.0
C894 C 0.39064 0.1119 0.54797 0.0
C895 C 0.93278 0.26665 0.57772 0.0
C896 C 0.92002 0.27579 0.60168 0.0
C897 C 0.92117 0.25294 0.54269 0.0
C898 C 0.89638 0.2479 0.5299 0.0
H899 H 0.95169 0.26959 0.58635 0.0
H900 H 0.9316 0.24584 0.52566 0.0
S901 S 0.8554 0.26913 0.5803 0.0
N902 N 0.88146 0.2797 0.60923 0.0
N903 N 0.85995 0.2542 0.54295 0.0
C904 C 0.88354 0.25727 0.55312 0.0
C905 C 0.89529 0.27118 0.58901 0.0
C906 C 0.3242 0.26025 0.58217 0.0
C907 C 0.34544 0.2672 0.60809 0.0
C908 C 0.3211 0.2461 0.54736 0.0
C909 C 0.33903 0.23822 0.53711 0.0
H910 H 0.30974 0.26567 0.58878 0.0
H911 H 0.30453 0.24131 0.52824 0.0
S912 S 0.39863 0.2523 0.59348 0.0
N913 N 0.38515 0.2655 0.62013 0.0
N914 N 0.37918 0.23912 0.55478 0.0
C915 C 0.36033 0.24502 0.56256 0.0
C916 C 0.36359 0.25947 0.59794 0.0
C917 C 0.74868 0.10737 0.57256 0.0
C918 C 0.74827 0.0832 0.57652 0.0
C919 C 0.76403 0.12524 0.5457 0.0
C920 C 0.77956 0.11952 0.52241 0.0
H921 H 0.73619 0.11198 0.58904 0.0
H922 H 0.7626 0.14279 0.54157 0.0
S923 S 0.78684 0.0602 0.52241 0.0
N924 N 0.7658 0.05532 0.55527 0.0
N925 N 0.79503 0.08937 0.50592 0.0
C926 C 0.78058 0.09639 0.52756 0.0
C927 C 0.76483 0.07807 0.55438 0.0
C928 C 0.94495 0.69058 0.5866 0.0
C929 C 0.93075 0.67112 0.61262 0.0
C930 C 0.93368 0.69095 0.55112 0.0
C931 C 0.90778 0.67195 0.54031 0.0
H932 H 0.9649 0.70578 0.5937 0.0
H933 H 0.94532 0.70627 0.532 0.0
S934 S 0.86246 0.61597 0.59664 0.0
N935 N 0.88937 0.63181 0.62418 0.0
N936 N 0.86853 0.63255 0.55745 0.0
C937 C 0.89338 0.65231 0.56578 0.0
C938 C 0.90479 0.65188 0.60188 0.0
C939 C 0.96083 0.73646 0.79793 0.0
C940 C 0.95084 0.71772 0.76683 0.0
C941 C 0.94436 0.73683 0.82545 0.0
C942 C 0.91746 0.71866 0.8223 0.0
H943 H 0.98164 0.74919 0.80291 0.0
H944 H 0.95294 0.74979 0.85096 0.0
S945 S 0.88153 0.66981 0.74138 0.0
N946 N 0.91234 0.68388 0.7308 0.0
N947 N 0.88128 0.68435 0.78248 0.0
C948 C 0.90705 0.70204 0.78891 0.0
C949 C 0.92383 0.70154 0.76118 0.0
C950 C 0.33338 0.24274 0.76435 0.0
C951 C 0.31437 0.25027 0.76494 0.0
C952 C 0.3337 0.22538 0.79071 0.0
C953 C 0.31528 0.2154 0.81886 0.0
H954 H 0.34879 0.25123 0.74456 0.0
H955 H 0.34978 0.22161 0.79117 0.0
S956 S 0.25983 0.22665 0.82971 0.0
N957 N 0.27502 0.24417 0.79316 0.0
N958 N 0.27622 0.21219 0.84363 0.0
C959 C 0.29506 0.22117 0.8179 0.0
C960 C 0.29444 0.23846 0.79061 0.0
C961 C 0.74496 0.08322 0.76266 0.0
C962 C 0.75997 0.07597 0.74026 0.0
C963 C 0.75575 0.10004 0.79576 0.0
C964 C 0.78201 0.11046 0.80759 0.0
H965 H 0.72471 0.07592 0.75461 0.0
H966 H 0.74344 0.10489 0.81229 0.0
S967 S 0.82961 0.09709 0.76052 0.0
N968 N 0.80262 0.08035 0.73334 0.0
N969 N 0.82254 0.11174 0.79539 0.0
C970 C 0.79723 0.10342 0.78567 0.0
C971 C 0.78631 0.08623 0.75214 0.0
C972 C 0.07967 0.33493 0.02166 0.0
C973 C 0.09108 0.36213 0.01581 0.0
C974 C 0.09343 0.32489 0.04121 0.0
C975 C 0.11898 0.34169 0.05651 0.0
H976 H 0.05975 0.32132 0.01168 0.0
H977 H 0.08344 0.30394 0.04639 0.0
S978 S 0.15825 0.41426 0.04691 0.0
N979 N 0.13015 0.4055 0.02429 0.0
N980 N 0.15562 0.38668 0.0626 0.0
C981 C 0.13112 0.36872 0.04914 0.0
C982 C 0.11722 0.37893 0.02855 0.0
C983 C 0.67449 0.73794 0.02967 0.0
C984 C 0.64833 0.71888 0.03467 0.0
C985 C 0.68452 0.76464 0.04156 0.0
C986 C 0.6688 0.77329 0.05885 0.0
H987 H 0.68797 0.73191 0.01998 0.0
H988 H 0.70533 0.77794 0.04139 0.0
S989 S 0.59778 0.7332 0.06866 0.0
N990 N 0.60577 0.71201 0.05018 0.0
N991 N 0.62501 0.76209 0.07328 0.0
C992 C 0.64202 0.7554 0.05879 0.0
C993 C 0.63168 0.72817 0.0466 0.0
C994 C 0.27973 0.94736 0.04063 0.0
C995 C 0.28718 0.93341 0.01545 0.0
C996 C 0.25912 0.93397 0.06453 0.0
C997 C 0.24541 0.90608 0.06476 0.0
H998 H 0.29029 0.96884 0.04258 0.0
H999 H 0.25471 0.94561 0.08444 0.0
S1000 S 0.2559 0.86018 0.00221 0.0
N1001 N 0.27786 0.89003 0.98994 0.0
N1002 N 0.23963 0.86493 0.03598 0.0
C1003 C 0.25165 0.89183 0.03822 0.0
C1004 C 0.27247 0.90548 0.0134 0.0
C1005 C 0.39189 0.10228 0.96163 0.0
C1006 C 0.37286 0.07598 0.96828 0.0
C1007 C 0.38491 0.12028 0.94804 0.0
C1008 C 0.35871 0.11263 0.94082 0.0
H1009 H 0.41233 0.10829 0.96336 0.0
H1010 H 0.40006 0.1391 0.93873 0.0
S1011 S 0.30149 0.04884 0.96267 0.0
N1012 N 0.32663 0.04526 0.97405 0.0
N1013 N 0.31379 0.0792 0.94789 0.0
C1014 C 0.33961 0.08792 0.95256 0.0
C1015 C 0.34663 0.06952 0.9665 0.0
C1016 C 0.94945 0.28089 0.97199 0.0
C1017 C 0.94308 0.30097 0.96841 0.0
C1018 C 0.93138 0.25436 0.96095 0.0
C1019 C 0.90633 0.24694 0.94581 0.0
H1020 H 0.96919 0.28591 0.97982 0.0
H1021 H 0.93806 0.24017 0.95984 0.0
S1022 S 0.87758 0.29025 0.94085 0.0
N1023 N 0.90788 0.31027 0.95702 0.0
N1024 N 0.87443 0.26056 0.93526 0.0
C1025 C 0.89855 0.26597 0.94747 0.0
C1026 C 0.91685 0.293 0.95888 0.0
C1027 C 0.73109 0.6512 0.96479 0.0
C1028 C 0.73673 0.67146 -0.00729 0.0
C1029 C 0.74979 0.6532 0.93987 0.0
C1030 C 0.77478 0.67574 0.94138 0.0
H1031 H 0.71186 0.63381 0.96164 0.0
H1032 H 0.74426 0.63749 0.91796 0.0
S1033 S 0.79999 0.73356 0.01081 0.0
N1034 N 0.76969 0.71396 0.02236 0.0
N1035 N 0.80475 0.7181 0.9743 0.0
C1036 C 0.7812 0.69557 0.97035 0.0
C1037 C 0.76215 0.69336 -0.00373 0.0
C1038 C 0.90666 0.64423 0.97519 0.0
C1039 C 0.93233 0.6607 0.99029 0.0
C1040 C 0.89354 0.65465 0.95443 0.0
C1041 C 0.90554 0.68192 0.94859 0.0
H1042 H 0.89708 0.62299 0.97781 0.0
H1043 H 0.87459 0.64109 0.94094 0.0
S1044 S 0.97067 0.734 0.98772 0.0
N1045 N 0.96798 0.70602 0.00163 0.0
N1046 N 0.94317 0.72552 0.96352 0.0
C1047 C 0.93037 0.69877 0.9661 0.0
C1048 C 0.94383 0.68819 0.98662 0.0
C1049 C 0.35094 0.27667 0.97663 0.0
C1050 C 0.37664 0.29618 0.96985 0.0
C1051 C 0.34121 0.25003 0.96483 0.0
C1052 C 0.35681 0.24192 0.94593 0.0
H1053 H 0.33743 0.28225 0.98765 0.0
H1054 H 0.32057 0.23632 0.96633 0.0
S1055 S 0.42716 0.28338 0.93153 0.0
N1056 N 0.41902 0.30414 0.95117 0.0
N1057 N 0.40033 0.2541 0.92835 0.0
C1058 C 0.38339 0.26029 0.94437 0.0
C1059 C 0.39341 0.28748 0.95642 0.0
C1060 C 0.74641 0.07435 0.9752 0.0
C1061 C 0.73474 0.08638 -0.00425 0.0
C1062 C 0.76686 0.08895 0.95165 0.0
C1063 C 0.77625 0.11608 0.94736 0.0
H1064 H 0.73906 0.05324 0.97615 0.0
H1065 H 0.77424 0.07855 0.93463 0.0
S1066 S 0.75433 0.15763 -0.00228 0.0
N1067 N 0.7358 0.12766 0.01311 0.0
N1068 N 0.77397 0.15496 0.9678 0.0
C1069 C 0.76611 0.12882 0.96973 0.0
C1070 C 0.74536 0.11397 -0.00585 0.0
C1071 C 0.68786 0.95037 0.03318 0.0
C1072 C 0.6622 0.93937 0.01777 0.0
C1073 C 0.6955 0.93485 0.05329 0.0
C1074 C 0.67795 0.90786 0.05776 0.0
H1075 H 0.701 0.9716 0.03433 0.0
H1076 H 0.71416 0.94462 0.06906 0.0
S1077 S 0.61185 0.86808 0.01205 0.0
N1078 N 0.62168 0.8987 5e-05 0.0
N1079 N 0.63627 0.86958 0.03782 0.0
C1080 C 0.65402 0.89581 0.03688 0.0
C1081 C 0.64611 0.91161 0.01666 0.0
C1082 C 0.10404 0.72862 0.04886 0.0
C1083 C 0.07842 0.72034 0.03511 0.0
C1084 C 0.12184 0.75539 0.05899 0.0
C1085 C 0.1147 0.77483 0.05561 0.0
H1086 H 0.10971 0.71416 0.05541 0.0
H1087 H 0.13999 0.76031 0.07402 0.0
S1088 S 0.05311 0.76503 0.01109 0.0
N1089 N 0.04916 0.73493 0.01072 0.0
N1090 N 0.08265 0.78507 0.03014 0.0
C1091 C 0.09079 0.76746 0.03643 0.0
C1092 C 0.07257 0.74022 0.02623 0.0
C1093 C 0.27304 0.36246 0.01173 0.0
C1094 C 0.28639 0.34823 0.01258 0.0
C1095 C 0.25307 0.35703 0.03657 0.0
C1096 C 0.2457 0.337 0.06262 0.0
H1097 H 0.27903 0.37891 -0.00661 0.0
H1098 H 0.24459 0.36968 0.03715 0.0
S1099 S 0.27096 0.29069 0.07076 0.0
N1100 N 0.28837 0.31096 0.03794 0.0
N1101 N 0.25053 0.30045 0.08398 0.0
C1102 C 0.2573 0.32113 0.06127 0.0
C1103 C 0.27778 0.32686 0.03646 0.0
C1104 C 0.74632 0.66243 0.3567 0.0
C1105 C 0.75769 0.68946 0.34967 0.0
C1106 C 0.76009 0.65285 0.37735 0.0
C1107 C 0.78559 0.66999 0.39252 0.0
H1108 H 0.72643 0.64861 0.34684 0.0
H1109 H 0.75016 0.63204 0.38336 0.0
S1110 S 0.82467 0.74228 0.38024 0.0
N1111 N 0.79661 0.733 0.35712 0.0
N1112 N 0.82211 0.71509 0.39737 0.0
C1113 C 0.79767 0.69683 0.38404 0.0
C1114 C 0.78377 0.70656 0.36239 0.0
C1115 C 0.33889 0.07438 0.36192 0.0
C1116 C 0.31292 0.05468 0.36655 0.0
C1117 C 0.34797 0.10098 0.37349 0.0
C1118 C 0.33147 0.10884 0.39023 0.0
H1119 H 0.35296 0.06898 0.35289 0.0
H1120 H 0.36868 0.11483 0.37372 0.0
S1121 S 0.26044 0.06673 0.39822 0.0
N1122 N 0.2696 0.04628 0.38051 0.0
N1123 N 0.28707 0.09611 0.40325 0.0
C1124 C 0.30483 0.09024 0.38955 0.0
C1125 C 0.29547 0.06315 0.37759 0.0
C1126 C 0.92259 0.25551 0.33559 0.0
C1127 C 0.94867 0.26264 0.34357 0.0
C1128 C 0.90339 0.24103 0.36132 0.0
C1129 C 0.90975 0.233 0.39534 0.0
H1130 H 0.91725 0.26238 0.31045 0.0
H1131 H 0.88391 0.23756 0.35576 0.0
S1132 S 0.97408 0.24235 0.42577 0.0
N1133 N 0.97906 0.25762 0.3854 0.0
N1134 N 0.94293 0.23003 0.43314 0.0
C1135 C 0.93526 0.23807 0.40188 0.0
C1136 C 0.95477 0.25305 0.37618 0.0
C1137 C 1.00664 0.39524 0.29155 0.0
C1138 C 0.03259 0.40276 0.30156 0.0
C1139 C 1.00031 0.4137 0.27762 0.0
C1140 C 0.01965 0.44026 0.27375 0.0
H1141 H 0.99163 0.37453 0.29022 0.0
H1142 H 0.98081 0.40651 0.26558 0.0
S1143 S 0.08896 0.4713 0.30577 0.0
N1144 N 0.07662 0.43966 0.31426 0.0
N1145 N 0.06455 0.47415 0.28792 0.0
C1146 C 0.04477 0.44872 0.28898 0.0
C1147 C 0.05131 0.42998 0.3029 0.0
C1148 C 0.58463 0.62004 0.29017 0.0
C1149 C 0.61013 0.62785 0.30401 0.0
C1150 C 0.56657 0.59342 0.27967 0.0
C1151 C 0.5733 0.57367 0.28282 0.0
H1152 H 0.57926 0.63477 0.28389 0.0
H1153 H 0.54852 0.58886 0.26464 0.0
S1154 S 0.63435 0.58217 0.32737 0.0
N1155 N 0.63881 0.61249 0.32812 0.0
N1156 N 0.6048 0.5626 0.30805 0.0
C1157 C 0.59708 0.58056 0.30199 0.0
C1158 C 0.61557 0.60765 0.31256 0.0
C1159 C 0.42595 0.01636 0.33123 0.0
C1160 C 0.3995 0.9979 0.32288 0.0
C1161 C 0.44491 0.01885 0.30604 0.0
C1162 C 0.43794 1.0026 0.27226 0.0
H1163 H 0.43185 0.02989 0.35624 0.0
H1164 H 0.46482 0.03463 0.31179 0.0
S1165 S 0.37206 0.94767 0.24164 0.0
N1166 N 0.36782 0.96083 0.28129 0.0
N1167 N 0.40348 0.96495 0.23475 0.0
C1168 C 0.41189 0.98251 0.26556 0.0
C1169 C 0.39262 0.98035 0.29063 0.0
C1170 C 0.61226 0.02087 0.31357 0.0
C1171 C 0.59967 0.99585 0.32916 0.0
C1172 C 0.59817 0.0303 0.29336 0.0
C1173 C 0.57098 0.01471 0.28687 0.0
H1174 H 0.63326 0.0329 0.3159 0.0
H1175 H 0.60885 0.04891 0.27967 0.0
S1176 S 0.52857 0.94909 0.3255 0.0
N1177 N 0.55822 0.957 0.34081 0.0
N1178 N 0.53184 0.97415 0.30089 0.0
C1179 C 0.55798 0.9906 0.30488 0.0
C1180 C 0.57232 0.98123 0.3263 0.0
C1181 C 0.02115 0.61115 0.31387 0.0
C1182 C 0.04648 0.63088 0.30572 0.0
C1183 C 0.01169 0.58439 0.30294 0.0
C1184 C 0.02717 0.57636 0.28345 0.0
H1185 H 1.00764 0.61657 0.32535 0.0
H1186 H 0.99119 0.57046 0.30543 0.0
S1187 S 0.09682 0.61862 0.26521 0.0
N1188 N 0.0886 0.63929 0.28495 0.0
N1189 N 0.07037 0.58907 0.26374 0.0
C1190 C 0.05352 0.59508 0.2805 0.0
C1191 C 0.06328 0.62238 0.29169 0.0
C1192 C 0.40849 0.40456 0.30332 0.0
C1193 C 0.40181 0.41927 0.32836 0.0
C1194 C 0.42829 0.41713 0.27795 0.0
C1195 C 0.44201 0.44489 0.27627 0.0
H1196 H 0.39788 0.38309 0.30252 0.0
H1197 H 0.43212 0.40493 0.25823 0.0
S1198 S 0.43349 0.49266 0.33765 0.0
N1199 N 0.41186 0.46329 0.35192 0.0
N1200 N 0.44875 0.48685 0.30335 0.0
C1201 C 0.43661 0.45995 0.30257 0.0
C1202 C 0.41653 0.44715 0.32878 0.0
C1203 C 0.34085 0.28327 0.37643 0.0
C1204 C 0.31458 0.27585 0.36936 0.0
C1205 C 0.34767 0.26522 0.3905 0.0
C1206 C 0.32852 0.23915 0.39743 0.0
H1207 H 0.35602 0.30378 0.37524 0.0
H1208 H 0.36767 0.27257 0.40029 0.0
S1209 S 0.258 0.20791 0.37358 0.0
N1210 N 0.27001 0.23907 0.36251 0.0
N1211 N 0.28307 0.20538 0.38919 0.0
C1212 C 0.30278 0.23049 0.3851 0.0
C1213 C 0.29573 0.24883 0.37101 0.0
C1214 C 0.73308 0.0746 0.3628 0.0
C1215 C 0.74228 0.05655 0.36096 0.0
C1216 C 0.74971 0.10133 0.37477 0.0
C1217 C 0.77607 0.11094 0.38523 0.0
H1218 H 0.71248 0.06758 0.35909 0.0
H1219 H 0.74116 0.11357 0.38086 0.0
S1220 S 0.81125 0.07397 0.3743 0.0
N1221 N 0.78071 0.05188 0.36183 0.0
N1222 N 0.81165 0.10197 0.38471 0.0
C1223 C 0.78622 0.09425 0.3774 0.0
C1224 C 0.76935 0.06701 0.36543 0.0
C1225 C 0.9411 0.6962 0.34852 0.0
C1226 C 0.95491 0.68239 0.3486 0.0
C1227 C 0.92129 0.69034 0.37387 0.0
C1228 C 0.91451 0.67033 0.39982 0.0
H1229 H 0.94653 0.71257 0.33019 0.0
H1230 H 0.91237 0.70259 0.37479 0.0
S1231 S 0.94124 0.62518 0.40657 0.0
N1232 N 0.958 0.6456 0.37349 0.0
N1233 N 0.92055 0.63439 0.42057 0.0
C1234 C 0.92668 0.655 0.39798 0.0
C1235 C 0.94697 0.66111 0.37256 0.0
C1236 C 0.42901 1.00395 0.66839 0.0
C1237 C 0.4189 0.01993 0.68147 0.0
C1238 C 0.44522 0.99891 0.69243 0.0
C1239 C 0.45214 0.01008 0.73001 0.0
H1240 H 0.42341 0.99428 0.64003 0.0
H1241 H 0.45116 0.9851 0.68232 0.0
S1242 S 0.43425 0.05647 0.77604 0.0
N1243 N 0.41933 0.04902 0.73321 0.0
N1244 N 0.4501 0.04 0.7778 0.0
C1245 C 0.44369 0.02756 0.74238 0.0
C1246 C 0.42695 0.03233 0.71831 0.0
C1247 C 1.0038 0.41045 0.69566 0.0
C1248 C 0.97764 0.39162 0.70107 0.0
C1249 C 0.01421 0.43713 0.70792 0.0
C1250 C 0.99886 0.44593 0.72601 0.0
H1251 H 0.017 0.40425 0.68528 0.0
H1252 H 0.03502 0.45026 0.70729 0.0
S1253 S 0.9279 0.40649 0.73704 0.0
N1254 N 0.93541 0.38515 0.71774 0.0
N1255 N 0.95534 0.43517 0.74158 0.0
C1256 C 0.97203 0.42829 0.72637 0.0
C1257 C 0.96132 0.40111 0.71379 0.0
C1258 C 0.60207 0.56865 0.67925 0.0
C1259 C 0.61632 0.59651 0.67883 0.0
C1260 C 0.58199 0.55588 0.7044 0.0
C1261 C 0.57538 0.57059 0.72952 0.0
H1262 H 0.60742 0.55669 0.66165 0.0
H1263 H 0.57278 0.53457 0.70596 0.0
S1264 S 0.6032 0.64348 0.73415 0.0
N1265 N 0.61998 0.63806 0.70196 0.0
N1266 N 0.58198 0.61403 0.74861 0.0
C1267 C 0.58793 0.59823 0.72691 0.0
C1268 C 0.60851 0.61122 0.70177 0.0
C1269 C 0.72314 0.76371 0.62907 0.0
C1270 C 0.70396 0.73728 0.63454 0.0
C1271 C 0.71644 0.78187 0.61519 0.0
C1272 C 0.69039 0.77424 0.60637 0.0
H1273 H 0.74356 0.76976 0.63194 0.0
H1274 H 0.73185 0.80089 0.60689 0.0
S1275 S 0.6326 0.70996 0.62479 0.0
N1276 N 0.6575 0.70633 0.63763 0.0
N1277 N 0.64525 0.74053 0.6107 0.0
C1278 C 0.67099 0.74928 0.61686 0.0
C1279 C 0.67771 0.73075 0.63122 0.0
C1280 C 0.28369 0.94483 0.64314 0.0
C1281 C 0.27634 0.9641 0.63831 0.0
C1282 C 0.2667 0.9181 0.63178 0.0
C1283 C 0.24179 0.90965 0.61503 0.0
H1284 H 0.30347 0.95069 0.65224 0.0
H1285 H 0.27422 0.9046 0.63175 0.0
S1286 S 0.21044 0.95041 0.60643 0.0
N1287 N 0.24013 0.97141 0.62407 0.0
N1288 N 0.20874 0.92134 0.6017 0.0
C1289 C 0.23288 0.92779 0.61545 0.0
C1290 C 0.25008 0.95503 0.62722 0.0
C1291 C 0.06994 0.35266 0.62828 0.0
C1292 C 0.062 0.33244 0.65413 0.0
C1293 C 0.09045 0.35849 0.60455 0.0
C1294 C 0.1036 0.34405 0.60522 0.0
H1295 H 0.05981 0.36367 0.62563 0.0
H1296 H 0.09523 0.37359 0.58408 0.0
S1297 S 0.09176 0.2905 0.6697 0.0
N1298 N 0.0703 0.2993 0.68115 0.0
N1299 N 0.10838 0.30982 0.6355 0.0
C1300 C 0.09691 0.32483 0.6324 0.0
C1301 C 0.07616 0.31907 0.65702 0.0
C1302 C 0.27182 0.34944 0.64983 0.0
C1303 C 0.26074 0.32223 0.6553 0.0
C1304 C 0.25784 0.35928 0.63039 0.0
C1305 C 0.23241 0.34226 0.61483 0.0
H1306 H 0.29167 0.36322 0.65994 0.0
H1307 H 0.26761 0.38025 0.62535 0.0
S1308 S 0.19394 0.26956 0.62362 0.0
N1309 N 0.22206 0.27859 0.64636 0.0
N1310 N 0.19619 0.29705 0.60824 0.0
C1311 C 0.22057 0.31521 0.62193 0.0
C1312 C 0.23468 0.30519 0.64242 0.0
C1313 C 0.71821 0.94091 0.64374 0.0
C1314 C 0.70131 0.95039 0.65332 0.0
C1315 C 0.70859 0.91541 0.62673 0.0
C1316 C 0.68181 0.89855 0.61916 0.0
H1317 H 0.73906 0.95417 0.64527 0.0
H1318 H 0.72227 0.91023 0.61521 0.0
S1319 S 0.62928 0.91016 0.65055 0.0
N1320 N 0.65634 0.93808 0.66312 0.0
N1321 N 0.63847 0.89025 0.63093 0.0
C1322 C 0.66474 0.90599 0.63464 0.0
C1323 C 0.67445 0.93194 0.65192 0.0
C1324 C 0.08743 0.78119 0.66084 0.0
C1325 C 0.07284 0.75335 0.66124 0.0
C1326 C 0.1071 0.79366 0.63503 0.0
C1327 C 0.11291 0.77866 0.60919 0.0
H1328 H 0.08268 0.79337 0.67904 0.0
H1329 H 0.11664 0.81501 0.63364 0.0
S1330 S 0.08394 0.70562 0.60403 0.0
N1331 N 0.06798 0.71143 0.63718 0.0
N1332 N 0.10526 0.73494 0.58929 0.0
C1333 C 0.10001 0.751 0.61166 0.0
C1334 C 0.07984 0.73831 0.63749 0.0
C1335 C 0.0107 0.62079 0.71434 0.0
C1336 C 0.9845 0.61379 0.70805 0.0
C1337 C 0.01727 0.60238 0.72767 0.0
C1338 C 0.99788 0.57641 0.73452 0.0
H1339 H 0.02607 0.64122 0.71318 0.0
H1340 H 0.03727 0.60938 0.73703 0.0
S1341 S 0.92729 0.54631 0.71239 0.0
N1342 N 0.93964 0.5776 0.70179 0.0
N1343 N 0.95221 0.54319 0.72694 0.0
C1344 C 0.97214 0.56819 0.72282 0.0
C1345 C 0.96536 0.58689 0.70959 0.0
C1346 C 0.43434 0.39499 0.7145 0.0
C1347 C 0.40859 0.38674 0.70144 0.0
C1348 C 0.452 0.4216 0.72582 0.0
C1349 C 0.44462 0.44094 0.72431 0.0
H1350 H 0.44029 0.38053 0.71942 0.0
H1351 H 0.47035 0.42638 0.74005 0.0
S1352 S 0.3824 0.43145 0.68285 0.0
N1353 N 0.37878 0.40146 0.68022 0.0
N1354 N 0.41202 0.45129 0.70174 0.0
C1355 C 0.42045 0.43373 0.70612 0.0
C1356 C 0.40238 0.40665 0.69471 0.0
C1357 C 0.61097 0.03371 0.68002 0.0
C1358 C 0.62116 0.01652 0.67822 0.0
C1359 C 0.59018 0.02853 0.70312 0.0
C1360 C 0.57874 1.0058 0.72446 0.0
H1361 H 0.62019 0.05212 0.66557 0.0
H1362 H 0.58439 0.04334 0.70657 0.0
S1363 S 0.59493 0.95219 0.72378 0.0
N1364 N 0.61589 0.97417 0.69562 0.0
N1365 N 0.57665 0.96433 0.73839 0.0
C1366 C 0.58714 0.98731 0.71995 0.0
C1367 C 0.60845 0.99273 0.69704 0.0
loop_
_geom_bond_atom_site_label_1
_geom_bond_atom_site_label_2
_geom_bond_distance
_geom_bond_site_symmetry_2
_ccdc_geom_bond_type
Mg0 O1 2.028 1_556 S
Mg0 O7 1.986 1_455 S
Mg0 O9 2.114 . S
Mg0 O10 2.251 1_455 S
Mg0 O13 2.010 1_556 S
O1 Mg0 2.028 1_554 S
O1 C4 1.250 1_455 S
O2 Mg3 2.028 1_554 S
O2 C4 1.248 . S
Mg3 O2 2.028 1_556 S
Mg3 O8 2.032 . S
Mg3 O10 2.079 . S
C4 O1 1.250 1_655 S
C4 O2 1.248 . S
C5 O6 1.264 1_554 S
C5 O13 1.249 . S
O6 C5 1.264 1_556 S
O7 Mg0 1.986 1_655 S
O7 C11 1.246 . S
O8 Mg3 2.032 . S
O8 C11 1.259 . S
O9 Mg0 2.114 . S
O9 C12 1.252 . S
O10 Mg0 2.251 1_655 S
O10 Mg3 2.079 . S
O10 C12 1.273 1_655 S
C11 O7 1.246 . S
C11 O8 1.259 . S
C12 O9 1.252 . S
C12 O10 1.273 1_455 S
O13 Mg0 2.010 1_554 S
O13 C5 1.249 . S
Mg14 O15 2.028 1_554 S
Mg14 O21 1.986 . S
Mg14 O23 2.114 . S
Mg14 O24 2.251 . S
Mg14 O27 2.010 . S
O15 Mg14 2.028 1_556 S
O15 C18 1.250 . S
O16 Mg17 2.028 1_556 S
O16 C18 1.248 . S
Mg17 O16 2.028 1_554 S
Mg17 O22 2.032 . S
Mg17 O24 2.079 . S
C18 O15 1.250 . S
C18 O16 1.248 . S
C19 O20 1.276 . S
C19 O27 1.257 . S
O20 C19 1.276 . S
O21 Mg14 1.986 . S
O21 C25 1.246 . S
O22 Mg17 2.032 . S
O22 C25 1.259 . S
O23 Mg14 2.114 . S
O23 C26 1.252 . S
O24 Mg14 2.251 . S
O24 Mg17 2.079 . S
O24 C26 1.273 . S
C25 O21 1.246 . S
C25 O22 1.259 . S
C26 O23 1.252 . S
C26 O24 1.273 . S
O27 Mg14 2.010 . S
O27 C19 1.257 . S
Mg28 O29 2.023 1_556 S
Mg28 O35 1.986 1_565 S
Mg28 O37 2.114 . S
Mg28 O38 2.251 1_565 S
Mg28 O41 2.010 1_556 S
O29 Mg28 2.023 1_554 S
O29 C32 1.245 1_565 S
O30 Mg31 2.028 1_554 S
O30 C32 1.248 . S
Mg31 O30 2.028 1_556 S
Mg31 O36 2.032 . S
Mg31 O38 2.079 . S
C32 O29 1.245 1_545 S
C32 O30 1.248 . S
C33 O34 1.264 1_554 S
C33 O41 1.249 . S
O34 C33 1.264 1_556 S
O35 Mg28 1.986 1_545 S
O35 C39 1.246 . S
O36 Mg31 2.032 . S
O36 C39 1.259 . S
O37 Mg28 2.114 . S
O37 C40 1.252 . S
O38 Mg28 2.251 1_545 S
O38 Mg31 2.079 . S
O38 C40 1.273 1_545 S
C39 O35 1.246 . S
C39 O36 1.259 . S
C40 O37 1.252 . S
C40 O38 1.273 1_565 S
O41 Mg28 2.010 1_554 S
O41 C33 1.249 . S
Mg42 O43 2.028 1_554 S
Mg42 O49 1.986 1_655 S
Mg42 O51 2.114 . S
Mg42 O52 2.251 1_655 S
Mg42 O55 2.010 . S
O43 Mg42 2.028 1_556 S
O43 C46 1.250 1_655 S
O44 Mg45 2.028 1_556 S
O44 C46 1.248 . S
Mg45 O44 2.028 1_554 S
Mg45 O50 2.032 . S
Mg45 O52 2.079 . S
C46 O43 1.250 1_455 S
C46 O44 1.248 . S
C47 O48 1.264 . S
C47 O55 1.249 . S
O48 C47 1.264 . S
O49 Mg42 1.986 1_455 S
O49 C53 1.246 . S
O50 Mg45 2.032 . S
O50 C53 1.259 . S
O51 Mg42 2.114 . S
O51 C54 1.252 . S
O52 Mg42 2.251 1_455 S
O52 Mg45 2.079 . S
O52 C54 1.273 1_455 S
C53 O49 1.246 . S
C53 O50 1.259 . S
C54 O51 1.252 . S
C54 O52 1.273 1_655 S
O55 Mg42 2.010 . S
O55 C47 1.249 . S
Mg56 O57 2.028 1_556 S
Mg56 O63 1.986 . S
Mg56 O65 2.114 . S
Mg56 O66 2.251 . S
Mg56 O69 2.010 1_556 S
O57 Mg56 2.028 1_554 S
O57 C60 1.250 . S
O58 Mg59 2.028 1_554 S
O58 C60 1.248 . S
Mg59 O58 2.028 1_556 S
Mg59 O64 2.032 . S
Mg59 O66 2.079 . S
C60 O57 1.250 . S
C60 O58 1.248 . S
C61 O62 1.280 . S
C61 O69 1.249 . S
O62 C61 1.280 . S
O63 Mg56 1.986 . S
O63 C67 1.246 . S
O64 Mg59 2.032 . S
O64 C67 1.259 . S
O65 Mg56 2.114 . S
O65 C68 1.252 . S
O66 Mg56 2.251 . S
O66 Mg59 2.079 . S
O66 C68 1.273 . S
C67 O63 1.246 . S
C67 O64 1.259 . S
C68 O65 1.252 . S
C68 O66 1.273 . S
O69 Mg56 2.010 1_554 S
O69 C61 1.249 . S
Mg70 O71 2.028 1_554 S
Mg70 O77 1.986 1_545 S
Mg70 O79 2.114 . S
Mg70 O80 2.251 1_545 S
Mg70 O83 2.010 . S
O71 Mg70 2.028 1_556 S
O71 C74 1.250 1_545 S
O72 Mg73 2.028 1_556 S
O72 C74 1.248 . S
Mg73 O72 2.028 1_554 S
Mg73 O78 2.032 . S
Mg73 O80 2.079 . S
C74 O71 1.250 1_565 S
C74 O72 1.248 . S
C75 O76 1.264 . S
C75 O83 1.249 . S
O76 C75 1.264 . S
O77 Mg70 1.986 1_565 S
O77 C81 1.246 . S
O78 Mg73 2.032 . S
O78 C81 1.259 . S
O79 Mg70 2.114 . S
O79 C82 1.252 . S
O80 Mg70 2.251 1_565 S
O80 Mg73 2.079 . S
O80 C82 1.273 1_565 S
C81 O77 1.246 . S
C81 O78 1.259 . S
C82 O79 1.252 . S
C82 O80 1.273 1_545 S
O83 Mg70 2.010 . S
O83 C75 1.249 . S
Mg84 O85 2.028 . S
Mg84 O91 1.986 . S
Mg84 O93 2.114 . S
Mg84 O94 2.251 . S
Mg84 O97 2.010 . S
O85 Mg84 2.028 . S
O85 C88 1.250 . S
O86 Mg87 2.028 . S
O86 C88 1.248 . S
Mg87 O86 2.028 . S
Mg87 O92 2.032 . S
Mg87 O94 2.079 . S
C88 O85 1.250 . S
C88 O86 1.248 . S
C89 O90 1.264 . S
C89 O97 1.249 . S
O90 C89 1.264 . S
O91 Mg84 1.986 . S
O91 C95 1.246 . S
O92 Mg87 2.032 . S
O92 C95 1.259 . S
O93 Mg84 2.114 . S
O93 C96 1.252 . S
O94 Mg84 2.251 . S
O94 Mg87 2.079 . S
O94 C96 1.273 . S
C95 O91 1.246 . S
C95 O92 1.259 . S
C96 O93 1.252 . S
C96 O94 1.273 . S
O97 Mg84 2.010 . S
O97 C89 1.249 . S
Mg98 O99 2.028 . S
Mg98 O105 1.986 1_565 S
Mg98 O107 2.114 . S
Mg98 O108 2.251 . S
Mg98 O111 2.010 . S
O99 Mg98 2.028 . S
O99 C102 1.250 . S
O100 Mg101 2.028 . S
O100 C102 1.248 . S
Mg101 O100 2.028 . S
Mg101 O106 2.032 1_565 S
Mg101 O108 2.079 . S
C102 O99 1.250 . S
C102 O100 1.248 . S
C103 O104 1.264 . S
C103 O111 1.249 . S
O104 C103 1.264 . S
O105 Mg98 1.986 1_545 S
O105 C109 1.246 . S
O106 Mg101 2.032 1_545 S
O106 C109 1.259 . S
O107 Mg98 2.114 . S
O107 C110 1.252 . S
O108 Mg98 2.251 . S
O108 Mg101 2.079 . S
O108 C110 1.273 . S
C109 O105 1.246 . S
C109 O106 1.259 . S
C110 O107 1.252 . S
C110 O108 1.273 . S
O111 Mg98 2.010 . S
O111 C103 1.249 . S
Mg112 O113 2.028 . S
Mg112 O119 1.986 . S
Mg112 O121 2.114 . S
Mg112 O122 2.251 . S
Mg112 O125 2.010 1_455 S
O113 Mg112 2.028 . S
O113 C116 1.250 . S
O114 Mg115 2.028 . S
O114 C116 1.248 . S
Mg115 O114 2.028 . S
Mg115 O120 2.032 . S
Mg115 O122 2.079 . S
C116 O113 1.250 . S
C116 O114 1.248 . S
C117 O118 1.264 . S
C117 O125 1.249 . S
O118 C117 1.264 . S
O119 Mg112 1.986 . S
O119 C123 1.246 . S
O120 Mg115 2.032 . S
O120 C123 1.259 . S
O121 Mg112 2.114 . S
O121 C124 1.252 . S
O122 Mg112 2.251 . S
O122 Mg115 2.079 . S
O122 C124 1.273 . S
C123 O119 1.246 . S
C123 O120 1.259 . S
C124 O121 1.252 . S
C124 O122 1.273 . S
O125 Mg112 2.010 1_655 S
O125 C117 1.249 . S
Mg126 O127 2.028 . S
Mg126 O133 1.986 1_565 S
Mg126 O135 2.114 . S
Mg126 O136 2.251 . S
Mg126 O139 2.010 . S
O127 Mg126 2.028 . S
O127 C130 1.250 . S
O128 Mg129 2.028 . S
O128 C130 1.248 . S
Mg129 O128 2.028 . S
Mg129 O134 2.032 1_565 S
Mg129 O136 2.079 . S
C130 O127 1.250 . S
C130 O128 1.248 . S
C131 O132 1.264 . S
C131 O139 1.249 . S
O132 C131 1.264 . S
O133 Mg126 1.986 1_545 S
O133 C137 1.246 . S
O134 Mg129 2.032 1_545 S
O134 C137 1.259 . S
O135 Mg126 2.114 . S
O135 C138 1.252 . S
O136 Mg126 2.251 . S
O136 Mg129 2.079 . S
O136 C138 1.273 . S
C137 O133 1.246 . S
C137 O134 1.259 . S
C138 O135 1.252 . S
C138 O136 1.273 . S
O139 Mg126 2.010 . S
O139 C131 1.249 . S
Mg140 O141 2.028 . S
Mg140 O147 1.986 . S
Mg140 O149 2.114 . S
Mg140 O150 2.251 . S
Mg140 O153 2.010 1_455 S
O141 Mg140 2.028 . S
O141 C144 1.250 . S
O142 Mg143 2.028 . S
O142 C144 1.248 . S
Mg143 O142 2.028 . S
Mg143 O148 2.032 . S
Mg143 O150 2.079 . S
C144 O141 1.250 . S
C144 O142 1.248 . S
C145 O146 1.264 . S
C145 O153 1.249 . S
O146 C145 1.264 . S
O147 Mg140 1.986 . S
O147 C151 1.246 . S
O148 Mg143 2.032 . S
O148 C151 1.259 . S
O149 Mg140 2.114 . S
O149 C152 1.252 . S
O150 Mg140 2.251 . S
O150 Mg143 2.079 . S
O150 C152 1.273 . S
C151 O147 1.246 . S
C151 O148 1.259 . S
C152 O149 1.252 . S
C152 O150 1.273 . S
O153 Mg140 2.010 1_655 S
O153 C145 1.249 . S
Mg154 O155 2.028 . S
Mg154 O161 1.986 . S
Mg154 O163 2.114 . S
Mg154 O164 2.251 . S
Mg154 O167 2.010 . S
O155 Mg154 2.028 . S
O155 C158 1.250 . S
O156 Mg157 2.028 . S
O156 C158 1.248 . S
Mg157 O156 2.028 . S
Mg157 O162 2.032 . S
Mg157 O164 2.079 . S
C158 O155 1.250 . S
C158 O156 1.248 . S
C159 O160 1.264 . S
C159 O167 1.249 . S
O160 C159 1.264 . S
O161 Mg154 1.986 . S
O161 C165 1.246 . S
O162 Mg157 2.032 . S
O162 C165 1.259 . S
O163 Mg154 2.114 . S
O163 C166 1.252 . S
O164 Mg154 2.251 . S
O164 Mg157 2.079 . S
O164 C166 1.273 . S
C165 O161 1.246 . S
C165 O162 1.259 . S
C166 O163 1.252 . S
C166 O164 1.273 . S
O167 Mg154 2.010 . S
O167 C159 1.249 . S
Mg168 O169 2.028 . S
Mg168 O175 1.986 1_545 S
Mg168 O177 2.114 . S
Mg168 O178 2.251 . S
Mg168 O181 2.010 . S
O169 Mg168 2.028 . S
O169 C172 1.250 . S
O170 Mg171 2.028 . S
O170 C172 1.248 . S
Mg171 O170 2.028 . S
Mg171 O176 2.032 1_545 S
Mg171 O178 2.079 . S
C172 O169 1.250 . S
C172 O170 1.248 . S
C173 O174 1.264 . S
C173 O181 1.249 . S
O174 C173 1.264 . S
O175 Mg168 1.986 1_565 S
O175 C179 1.246 . S
O176 Mg171 2.032 1_565 S
O176 C179 1.259 . S
O177 Mg168 2.114 . S
O177 C180 1.252 . S
O178 Mg168 2.251 . S
O178 Mg171 2.079 . S
O178 C180 1.273 . S
C179 O175 1.246 . S
C179 O176 1.259 . S
C180 O177 1.252 . S
C180 O178 1.273 . S
O181 Mg168 2.010 . S
O181 C173 1.249 . S
Mg182 O183 2.028 . S
Mg182 O189 1.986 . S
Mg182 O191 2.114 . S
Mg182 O192 2.251 . S
Mg182 O195 2.010 1_655 S
O183 Mg182 2.028 . S
O183 C186 1.250 . S
O184 Mg185 2.028 . S
O184 C186 1.248 . S
Mg185 O184 2.028 . S
Mg185 O190 2.032 . S
Mg185 O192 2.079 . S
C186 O183 1.250 . S
C186 O184 1.248 . S
C187 O188 1.264 . S
C187 O195 1.249 . S
O188 C187 1.264 . S
O189 Mg182 1.986 . S
O189 C193 1.246 . S
O190 Mg185 2.032 . S
O190 C193 1.259 . S
O191 Mg182 2.114 . S
O191 C194 1.252 . S
O192 Mg182 2.251 . S
O192 Mg185 2.079 . S
O192 C194 1.273 . S
C193 O189 1.246 . S
C193 O190 1.259 . S
C194 O191 1.252 . S
C194 O192 1.273 . S
O195 Mg182 2.010 1_455 S
O195 C187 1.249 . S
Mg196 O197 2.028 . S
Mg196 O203 1.986 . S
Mg196 O205 2.114 . S
Mg196 O206 2.251 . S
Mg196 O209 2.010 . S
O197 Mg196 2.028 . S
O197 C200 1.250 . S
O198 Mg199 2.028 . S
O198 C200 1.248 . S
Mg199 O198 2.028 . S
Mg199 O204 2.032 . S
Mg199 O206 2.079 . S
C200 O197 1.250 . S
C200 O198 1.248 . S
C201 O202 1.264 . S
C201 O209 1.249 . S
O202 C201 1.264 . S
O203 Mg196 1.986 . S
O203 C207 1.246 . S
O204 Mg199 2.032 . S
O204 C207 1.259 . S
O205 Mg196 2.114 . S
O205 C208 1.252 . S
O206 Mg196 2.251 . S
O206 Mg199 2.079 . S
O206 C208 1.273 . S
C207 O203 1.246 . S
C207 O204 1.259 . S
C208 O205 1.252 . S
C208 O206 1.273 . S
O209 Mg196 2.010 . S
O209 C201 1.249 . S
Mg210 O211 2.028 . S
Mg210 O217 1.986 . S
Mg210 O219 2.114 . S
Mg210 O220 2.251 . S
Mg210 O223 2.010 . S
O211 Mg210 2.028 . S
O211 C214 1.250 . S
O212 Mg213 2.028 . S
O212 C214 1.248 . S
Mg213 O212 2.028 . S
Mg213 O218 2.032 . S
Mg213 O220 2.079 . S
C214 O211 1.250 . S
C214 O212 1.248 . S
C215 O216 1.264 . S
C215 O223 1.249 . S
O216 C215 1.264 . S
O217 Mg210 1.986 . S
O217 C221 1.246 . S
O218 Mg213 2.032 . S
O218 C221 1.259 . S
O219 Mg210 2.114 . S
O219 C222 1.252 . S
O220 Mg210 2.251 . S
O220 Mg213 2.079 . S
O220 C222 1.273 . S
C221 O217 1.246 . S
C221 O218 1.259 . S
C222 O219 1.252 . S
C222 O220 1.273 . S
O223 Mg210 2.010 . S
O223 C215 1.249 . S
Mg224 O225 2.028 . S
Mg224 O231 1.986 1_545 S
Mg224 O233 2.114 . S
Mg224 O234 2.251 . S
Mg224 O237 2.010 . S
O225 Mg224 2.028 . S
O225 C228 1.250 . S
O226 Mg227 2.028 . S
O226 C228 1.248 . S
Mg227 O226 2.028 . S
Mg227 O232 2.032 1_545 S
Mg227 O234 2.079 . S
C228 O225 1.250 . S
C228 O226 1.248 . S
C229 O230 1.264 . S
C229 O237 1.249 . S
O230 C229 1.264 . S
O231 Mg224 1.986 1_565 S
O231 C235 1.246 . S
O232 Mg227 2.032 1_565 S
O232 C235 1.259 . S
O233 Mg224 2.114 . S
O233 C236 1.252 . S
O234 Mg224 2.251 . S
O234 Mg227 2.079 . S
O234 C236 1.273 . S
C235 O231 1.246 . S
C235 O232 1.259 . S
C236 O233 1.252 . S
C236 O234 1.273 . S
O237 Mg224 2.010 . S
O237 C229 1.249 . S
Mg238 O239 2.028 . S
Mg238 O245 1.986 . S
Mg238 O247 2.114 . S
Mg238 O248 2.251 . S
Mg238 O251 2.010 1_655 S
O239 Mg238 2.028 . S
O239 C242 1.250 . S
O240 Mg241 2.028 . S
O240 C242 1.248 . S
Mg241 O240 2.028 . S
Mg241 O246 2.032 . S
Mg241 O248 2.079 . S
C242 O239 1.250 . S
C242 O240 1.248 . S
C243 O244 1.264 . S
C243 O251 1.249 . S
O244 C243 1.264 . S
O245 Mg238 1.986 . S
O245 C249 1.246 . S
O246 Mg241 2.032 . S
O246 C249 1.259 . S
O247 Mg238 2.114 . S
O247 C250 1.252 . S
O248 Mg238 2.251 . S
O248 Mg241 2.079 . S
O248 C250 1.273 . S
C249 O245 1.246 . S
C249 O246 1.259 . S
C250 O247 1.252 . S
C250 O248 1.273 . S
O251 Mg238 2.010 1_455 S
O251 C243 1.249 . S
H252 C258 0.930 . S
H253 C261 0.931 . S
H254 C263 0.931 . S
H255 C265 0.930 . S
H256 C267 0.930 . S
H257 C269 0.931 . S
C258 H252 0.930 . S
C258 C259 1.380 . S
C258 C260 1.394 . S
C259 C258 1.380 . S
C259 C263 1.382 . S
C260 C258 1.394 . S
C260 C261 1.400 . S
C261 H253 0.931 . S
C261 C260 1.400 . S
C261 C262 1.375 . S
C262 C261 1.375 . S
C262 C263 1.415 . S
C262 C264 1.501 . S
C263 H254 0.931 . S
C263 C259 1.382 . S
C263 C262 1.415 . S
C264 C262 1.501 . S
C264 C265 1.384 . S
C264 C269 1.408 . S
C265 H255 0.930 . S
C265 C264 1.384 . S
C265 C266 1.389 . S
C266 C265 1.389 . S
C266 C267 1.405 . S
C267 H256 0.930 . S
C267 C266 1.405 . S
C267 C268 1.364 . S
C268 C267 1.364 . S
C268 C269 1.400 . S
C269 H257 0.931 . S
C269 C264 1.408 . S
C269 C268 1.400 . S
H270 C276 0.930 . S
H271 C279 0.931 . S
H272 C281 0.931 . S
H273 C283 0.930 . S
H274 C285 0.930 . S
H275 C287 0.931 . S
C276 H270 0.930 . S
C276 C277 1.380 . S
C276 C278 1.394 . S
C277 C276 1.380 . S
C277 C281 1.382 . S
C278 C276 1.394 . S
C278 C279 1.400 . S
C279 H271 0.931 . S
C279 C278 1.400 . S
C279 C280 1.375 . S
C280 C279 1.375 . S
C280 C281 1.415 . S
C280 C282 1.501 . S
C281 H272 0.931 . S
C281 C277 1.382 . S
C281 C280 1.415 . S
C282 C280 1.501 . S
C282 C283 1.384 . S
C282 C287 1.408 . S
C283 H273 0.930 . S
C283 C282 1.384 . S
C283 C284 1.389 . S
C284 C283 1.389 . S
C284 C285 1.405 . S
C285 H274 0.930 . S
C285 C284 1.405 . S
C285 C286 1.364 . S
C286 C285 1.364 . S
C286 C287 1.400 . S
C287 H275 0.931 . S
C287 C282 1.408 . S
C287 C286 1.400 . S
H288 C294 0.930 . S
H289 C297 0.931 . S
H290 C299 0.931 . S
H291 C301 0.930 . S
H292 C303 0.930 . S
H293 C305 0.931 . S
C294 H288 0.930 . S
C294 C295 1.380 . S
C294 C296 1.394 . S
C295 C294 1.380 . S
C295 C299 1.382 . S
C296 C294 1.394 . S
C296 C297 1.400 . S
C297 H289 0.931 . S
C297 C296 1.400 . S
C297 C298 1.375 . S
C298 C297 1.375 . S
C298 C299 1.415 . S
C298 C300 1.501 . S
C299 H290 0.931 . S
C299 C295 1.382 . S
C299 C298 1.415 . S
C300 C298 1.501 . S
C300 C301 1.384 . S
C300 C305 1.408 . S
C301 H291 0.930 . S
C301 C300 1.384 . S
C301 C302 1.389 . S
C302 C301 1.389 . S
C302 C303 1.405 . S
C303 H292 0.930 . S
C303 C302 1.405 . S
C303 C304 1.364 . S
C304 C303 1.364 . S
C304 C305 1.400 . S
C305 H293 0.931 . S
C305 C300 1.408 . S
C305 C304 1.400 . S
H306 C312 0.930 . S
H307 C315 0.931 . S
H308 C317 0.931 . S
H309 C319 0.930 . S
H310 C321 0.930 . S
H311 C323 0.931 . S
C312 H306 0.930 . S
C312 C313 1.380 . S
C312 C314 1.394 . S
C313 C312 1.380 . S
C313 C317 1.382 . S
C314 C312 1.394 . S
C314 C315 1.400 . S
C315 H307 0.931 . S
C315 C314 1.400 . S
C315 C316 1.375 . S
C316 C315 1.375 . S
C316 C317 1.415 . S
C316 C318 1.501 . S
C317 H308 0.931 . S
C317 C313 1.382 . S
C317 C316 1.415 . S
C318 C316 1.501 . S
C318 C319 1.384 . S
C318 C323 1.408 . S
C319 H309 0.930 . S
C319 C318 1.384 . S
C319 C320 1.389 . S
C320 C319 1.389 . S
C320 C321 1.405 . S
C321 H310 0.930 . S
C321 C320 1.405 . S
C321 C322 1.364 . S
C322 C321 1.364 . S
C322 C323 1.400 . S
C323 H311 0.931 . S
C323 C318 1.408 . S
C323 C322 1.400 . S
H324 C330 0.930 . S
H325 C333 0.931 . S
H326 C335 0.931 . S
H327 C337 0.930 . S
H328 C339 0.930 . S
H329 C341 0.931 . S
C330 H324 0.930 . S
C330 C331 1.380 . S
C330 C332 1.394 . S
C331 C330 1.380 . S
C331 C335 1.382 . S
C332 C330 1.394 . S
C332 C333 1.400 . S
C333 H325 0.931 . S
C333 C332 1.400 . S
C333 C334 1.375 . S
C334 C333 1.375 . S
C334 C335 1.415 . S
C334 C336 1.501 . S
C335 H326 0.931 . S
C335 C331 1.382 . S
C335 C334 1.415 . S
C336 C334 1.501 . S
C336 C337 1.384 . S
C336 C341 1.408 . S
C337 H327 0.930 . S
C337 C336 1.384 . S
C337 C338 1.389 . S
C338 C337 1.389 . S
C338 C339 1.405 . S
C339 H328 0.930 . S
C339 C338 1.405 . S
C339 C340 1.364 . S
C340 C339 1.364 . S
C340 C341 1.400 . S
C341 H329 0.931 . S
C341 C336 1.408 . S
C341 C340 1.400 . S
H342 C348 0.930 . S
H343 C351 0.931 . S
H344 C353 0.931 . S
H345 C355 0.930 . S
H346 C357 0.930 . S
H347 C359 0.931 . S
C348 H342 0.930 . S
C348 C349 1.380 . S
C348 C350 1.394 . S
C349 C348 1.380 . S
C349 C353 1.382 . S
C350 C348 1.394 . S
C350 C351 1.400 . S
C351 H343 0.931 . S
C351 C350 1.400 . S
C351 C352 1.375 . S
C352 C351 1.375 . S
C352 C353 1.415 . S
C352 C354 1.501 . S
C353 H344 0.931 . S
C353 C349 1.382 . S
C353 C352 1.415 . S
C354 C352 1.501 . S
C354 C355 1.384 . S
C354 C359 1.408 . S
C355 H345 0.930 . S
C355 C354 1.384 . S
C355 C356 1.389 . S
C356 C355 1.389 . S
C356 C357 1.405 . S
C357 H346 0.930 . S
C357 C356 1.405 . S
C357 C358 1.364 . S
C358 C357 1.364 . S
C358 C359 1.400 . S
C359 H347 0.931 . S
C359 C354 1.408 . S
C359 C358 1.400 . S
H360 C366 0.930 . S
H361 C369 0.931 . S
H362 C371 0.931 . S
H363 C373 0.930 . S
H364 C375 0.930 . S
H365 C377 0.931 . S
C366 H360 0.930 . S
C366 C367 1.380 . S
C366 C368 1.394 . S
C367 C366 1.380 . S
C367 C371 1.382 . S
C368 C366 1.394 . S
C368 C369 1.400 . S
C369 H361 0.931 . S
C369 C368 1.400 . S
C369 C370 1.375 . S
C370 C369 1.375 . S
C370 C371 1.415 . S
C370 C372 1.501 . S
C371 H362 0.931 . S
C371 C367 1.382 . S
C371 C370 1.415 . S
C372 C370 1.501 . S
C372 C373 1.384 . S
C372 C377 1.408 . S
C373 H363 0.930 . S
C373 C372 1.384 . S
C373 C374 1.389 . S
C374 C373 1.389 . S
C374 C375 1.405 . S
C375 H364 0.930 . S
C375 C374 1.405 . S
C375 C376 1.364 . S
C376 C375 1.364 . S
C376 C377 1.400 . S
C377 H365 0.931 . S
C377 C372 1.408 . S
C377 C376 1.400 . S
H378 C384 0.930 . S
H379 C387 0.931 . S
H380 C389 0.931 . S
H381 C391 0.930 . S
H382 C393 0.930 . S
H383 C395 0.931 . S
C384 H378 0.930 . S
C384 C385 1.380 . S
C384 C386 1.394 . S
C385 C384 1.380 . S
C385 C389 1.382 . S
C386 C384 1.394 . S
C386 C387 1.400 . S
C387 H379 0.931 . S
C387 C386 1.400 . S
C387 C388 1.375 . S
C388 C387 1.375 . S
C388 C389 1.415 . S
C388 C390 1.501 . S
C389 H380 0.931 . S
C389 C385 1.382 . S
C389 C388 1.415 . S
C390 C388 1.501 . S
C390 C391 1.384 . S
C390 C395 1.408 . S
C391 H381 0.930 . S
C391 C390 1.384 . S
C391 C392 1.389 . S
C392 C391 1.389 . S
C392 C393 1.405 . S
C393 H382 0.930 . S
C393 C392 1.405 . S
C393 C394 1.364 . S
C394 C393 1.364 . S
C394 C395 1.400 . S
C395 H383 0.931 . S
C395 C390 1.408 . S
C395 C394 1.400 . S
H396 C402 0.930 . S
H397 C405 0.931 . S
H398 C407 0.931 . S
H399 C409 0.930 . S
H400 C411 0.930 . S
H401 C413 0.931 . S
C402 H396 0.930 . S
C402 C403 1.380 . S
C402 C404 1.394 . S
C403 C402 1.380 . S
C403 C407 1.382 . S
C404 C402 1.394 . S
C404 C405 1.400 . S
C405 H397 0.931 . S
C405 C404 1.400 . S
C405 C406 1.375 . S
C406 C405 1.375 . S
C406 C407 1.415 . S
C406 C408 1.501 . S
C407 H398 0.931 . S
C407 C403 1.382 . S
C407 C406 1.415 . S
C408 C406 1.501 . S
C408 C409 1.384 . S
C408 C413 1.408 . S
C409 H399 0.930 . S
C409 C408 1.384 . S
C409 C410 1.389 . S
C410 C409 1.389 . S
C410 C411 1.405 . S
C411 H400 0.930 . S
C411 C410 1.405 . S
C411 C412 1.364 . S
C412 C411 1.364 . S
C412 C413 1.400 . S
C413 H401 0.931 . S
C413 C408 1.408 . S
C413 C412 1.400 . S
H414 C420 0.922 . S
H415 C423 0.931 . S
H416 C425 0.931 . S
H417 C427 0.930 . S
H418 C429 0.930 . S
H419 C431 0.940 . S
C420 H414 0.922 . S
C420 C421 1.386 . S
C420 C422 1.396 1_655 S
C421 C420 1.386 . S
C421 C425 1.382 . S
C422 C420 1.396 1_455 S
C422 C423 1.400 . S
C423 H415 0.931 . S
C423 C422 1.400 . S
C423 C424 1.375 . S
C424 C423 1.375 . S
C424 C425 1.415 1_455 S
C424 C426 1.501 . S
C425 H416 0.931 . S
C425 C421 1.382 . S
C425 C424 1.415 1_655 S
C426 C424 1.501 . S
C426 C427 1.384 . S
C426 C431 1.425 . S
C427 H417 0.930 . S
C427 C426 1.384 . S
C427 C428 1.389 . S
C428 C427 1.389 . S
C428 C429 1.405 . S
C429 H418 0.930 . S
C429 C428 1.405 . S
C429 C430 1.358 . S
C430 C429 1.358 . S
C430 C431 1.392 . S
C431 H419 0.940 . S
C431 C426 1.425 . S
C431 C430 1.392 . S
H432 C438 0.930 . S
H433 C441 0.931 . S
H434 C443 0.931 . S
H435 C445 0.930 . S
H436 C447 0.930 . S
H437 C449 0.931 . S
C438 H432 0.930 . S
C438 C439 1.380 . S
C438 C440 1.394 . S
C439 C438 1.380 . S
C439 C443 1.382 . S
C440 C438 1.394 . S
C440 C441 1.400 . S
C441 H433 0.931 . S
C441 C440 1.400 . S
C441 C442 1.375 . S
C442 C441 1.375 . S
C442 C443 1.415 . S
C442 C444 1.501 . S
C443 H434 0.931 . S
C443 C439 1.382 . S
C443 C442 1.415 . S
C444 C442 1.501 . S
C444 C445 1.384 . S
C444 C449 1.408 . S
C445 H435 0.930 . S
C445 C444 1.384 . S
C445 C446 1.389 . S
C446 C445 1.389 . S
C446 C447 1.405 . S
C447 H436 0.930 . S
C447 C446 1.405 . S
C447 C448 1.364 . S
C448 C447 1.364 . S
C448 C449 1.400 . S
C449 H437 0.931 . S
C449 C444 1.408 . S
C449 C448 1.400 . S
H450 C456 0.942 . S
H451 C459 0.931 . S
H452 C461 0.931 . S
H453 C463 0.930 . S
H454 C465 0.930 . S
H455 C467 0.936 . S
C456 H450 0.942 . S
C456 C457 1.378 . S
C456 C458 1.384 1_545 S
C457 C456 1.378 . S
C457 C461 1.382 . S
C458 C456 1.384 1_565 S
C458 C459 1.400 . S
C459 H451 0.931 . S
C459 C458 1.400 . S
C459 C460 1.375 . S
C460 C459 1.375 . S
C460 C461 1.415 1_565 S
C460 C462 1.501 . S
C461 H452 0.931 . S
C461 C457 1.382 . S
C461 C460 1.415 1_545 S
C462 C460 1.501 . S
C462 C463 1.384 . S
C462 C467 1.408 . S
C463 H453 0.930 . S
C463 C462 1.384 . S
C463 C464 1.389 . S
C464 C463 1.389 . S
C464 C465 1.405 . S
C465 H454 0.930 . S
C465 C464 1.405 . S
C465 C466 1.376 . S
C466 C465 1.376 . S
C466 C467 1.379 . S
C467 H455 0.936 . S
C467 C462 1.408 . S
C467 C466 1.379 . S
H468 C474 0.910 . S
H469 C477 0.931 . S
H470 C479 0.927 . S
H471 C481 0.930 . S
H472 C483 0.930 . S
H473 C485 0.931 . S
C474 H468 0.910 . S
C474 C475 1.386 . S
C474 C476 1.416 1_545 S
C475 C474 1.386 . S
C475 C479 1.405 1_545 S
C476 C474 1.416 1_565 S
C476 C477 1.384 . S
C477 H469 0.931 . S
C477 C476 1.384 . S
C477 C478 1.375 . S
C478 C477 1.375 . S
C478 C479 1.409 . S
C478 C480 1.501 . S
C479 H470 0.927 . S
C479 C475 1.405 1_565 S
C479 C478 1.409 . S
C480 C478 1.501 . S
C480 C481 1.384 . S
C480 C485 1.408 1_565 S
C481 H471 0.930 . S
C481 C480 1.384 . S
C481 C482 1.389 . S
C482 C481 1.389 . S
C482 C483 1.405 . S
C483 H472 0.930 . S
C483 C482 1.405 . S
C483 C484 1.364 1_565 S
C484 C483 1.364 1_545 S
C484 C485 1.400 . S
C485 H473 0.931 . S
C485 C480 1.408 1_545 S
C485 C484 1.400 . S
H486 C492 0.960 . S
H487 C495 0.931 . S
H488 C497 0.933 . S
H489 C499 0.930 . S
H490 C501 0.930 . S
H491 C503 0.931 . S
C492 H486 0.960 . S
C492 C493 1.371 . S
C492 C494 1.372 1_655 S
C493 C492 1.371 . S
C493 C497 1.357 1_655 S
C494 C492 1.372 1_455 S
C494 C495 1.414 . S
C495 H487 0.931 . S
C495 C494 1.414 . S
C495 C496 1.375 . S
C496 C495 1.375 . S
C496 C497 1.426 . S
C496 C498 1.501 . S
C497 H488 0.933 . S
C497 C493 1.357 1_455 S
C497 C496 1.426 . S
C498 C496 1.501 . S
C498 C499 1.384 . S
C498 C503 1.408 1_455 S
C499 H489 0.930 . S
C499 C498 1.384 . S
C499 C500 1.389 . S
C500 C499 1.389 . S
C500 C501 1.405 . S
C501 H490 0.930 . S
C501 C500 1.405 . S
C501 C502 1.364 1_455 S
C502 C501 1.364 1_655 S
C502 C503 1.400 . S
C503 H491 0.931 . S
C503 C498 1.408 1_655 S
C503 C502 1.400 . S
H504 C510 0.930 . S
H505 C513 0.931 . S
H506 C515 0.931 . S
H507 C517 0.930 . S
H508 C519 0.930 . S
H509 C521 0.931 . S
C510 H504 0.930 . S
C510 C511 1.380 . S
C510 C512 1.394 . S
C511 C510 1.380 . S
C511 C515 1.382 . S
C512 C510 1.394 . S
C512 C513 1.400 . S
C513 H505 0.931 . S
C513 C512 1.400 . S
C513 C514 1.375 . S
C514 C513 1.375 . S
C514 C515 1.415 . S
C514 C516 1.501 . S
C515 H506 0.931 . S
C515 C511 1.382 . S
C515 C514 1.415 . S
C516 C514 1.501 . S
C516 C517 1.384 . S
C516 C521 1.408 . S
C517 H507 0.930 . S
C517 C516 1.384 . S
C517 C518 1.389 . S
C518 C517 1.389 . S
C518 C519 1.405 . S
C519 H508 0.930 . S
C519 C518 1.405 . S
C519 C520 1.364 . S
C520 C519 1.364 . S
C520 C521 1.400 . S
C521 H509 0.931 . S
C521 C516 1.408 . S
C521 C520 1.400 . S
H522 C528 0.930 . S
H523 C531 0.931 . S
H524 C533 0.931 . S
H525 C535 0.930 . S
H526 C537 0.930 . S
H527 C539 0.931 . S
C528 H522 0.930 . S
C528 C529 1.380 . S
C528 C530 1.394 . S
C529 C528 1.380 . S
C529 C533 1.382 . S
C530 C528 1.394 . S
C530 C531 1.400 . S
C531 H523 0.931 . S
C531 C530 1.400 . S
C531 C532 1.375 . S
C532 C531 1.375 . S
C532 C533 1.415 . S
C532 C534 1.501 . S
C533 H524 0.931 . S
C533 C529 1.382 . S
C533 C532 1.415 . S
C534 C532 1.501 . S
C534 C535 1.384 . S
C534 C539 1.408 . S
C535 H525 0.930 . S
C535 C534 1.384 . S
C535 C536 1.389 . S
C536 C535 1.389 . S
C536 C537 1.405 . S
C537 H526 0.930 . S
C537 C536 1.405 . S
C537 C538 1.364 . S
C538 C537 1.364 . S
C538 C539 1.400 . S
C539 H527 0.931 . S
C539 C534 1.408 . S
C539 C538 1.400 . S
H540 C546 0.930 . S
H541 C549 0.931 . S
H542 C551 0.931 . S
H543 C553 0.930 . S
H544 C555 0.930 . S
H545 C557 0.931 . S
C546 H540 0.930 . S
C546 C547 1.380 . S
C546 C548 1.394 . S
C547 C546 1.380 . S
C547 C551 1.382 . S
C548 C546 1.394 . S
C548 C549 1.400 . S
C549 H541 0.931 . S
C549 C548 1.400 . S
C549 C550 1.375 . S
C550 C549 1.375 . S
C550 C551 1.415 . S
C550 C552 1.501 . S
C551 H542 0.931 . S
C551 C547 1.382 . S
C551 C550 1.415 . S
C552 C550 1.501 . S
C552 C553 1.384 . S
C552 C557 1.408 . S
C553 H543 0.930 . S
C553 C552 1.384 . S
C553 C554 1.389 . S
C554 C553 1.389 . S
C554 C555 1.405 . S
C555 H544 0.930 . S
C555 C554 1.405 . S
C555 C556 1.364 . S
C556 C555 1.364 . S
C556 C557 1.400 . S
C557 H545 0.931 . S
C557 C552 1.408 . S
C557 C556 1.400 . S
H558 C564 0.930 . S
H559 C567 0.931 . S
H560 C569 0.931 . S
H561 C571 0.930 . S
H562 C573 0.930 . S
H563 C575 0.931 . S
C564 H558 0.930 . S
C564 C565 1.380 . S
C564 C566 1.394 . S
C565 C564 1.380 . S
C565 C569 1.382 . S
C566 C564 1.394 . S
C566 C567 1.400 . S
C567 H559 0.931 . S
C567 C566 1.400 . S
C567 C568 1.375 . S
C568 C567 1.375 . S
C568 C569 1.415 . S
C568 C570 1.501 . S
C569 H560 0.931 . S
C569 C565 1.382 . S
C569 C568 1.415 . S
C570 C568 1.501 . S
C570 C571 1.384 . S
C570 C575 1.408 . S
C571 H561 0.930 . S
C571 C570 1.384 . S
C571 C572 1.389 . S
C572 C571 1.389 . S
C572 C573 1.405 . S
C573 H562 0.930 . S
C573 C572 1.405 . S
C573 C574 1.364 . S
C574 C573 1.364 . S
C574 C575 1.400 . S
C575 H563 0.931 . S
C575 C570 1.408 . S
C575 C574 1.400 . S
C576 C577 1.369 1_455 S
C576 C578 1.419 . S
C576 H580 0.930 . S
C577 C576 1.369 1_655 S
C577 C586 1.429 . S
C578 C576 1.419 . S
C578 C579 1.363 1_455 S
C578 H581 0.929 . S
C579 C578 1.363 1_655 S
C579 C585 1.428 . S
H580 C576 0.930 . S
H581 C578 0.929 . S
S582 N583 1.613 . S
S582 N584 1.610 . S
N583 S582 1.613 . S
N583 C586 1.350 . S
N584 S582 1.610 . S
N584 C585 1.351 . S
C585 C579 1.428 . S
C585 N584 1.351 . S
C585 C586 1.434 . S
C586 C577 1.429 . S
C586 N583 1.350 . S
C586 C585 1.434 . S
C587 C588 1.369 . S
C587 C589 1.419 . S
C587 H591 0.930 . S
C588 C587 1.369 . S
C588 C597 1.429 . S
C589 C587 1.419 . S
C589 C590 1.363 . S
C589 H592 0.929 . S
C590 C589 1.363 . S
C590 C596 1.428 . S
H591 C587 0.930 . S
H592 C589 0.929 . S
S593 N594 1.613 . S
S593 N595 1.610 . S
N594 S593 1.613 . S
N594 C597 1.350 . S
N595 S593 1.610 . S
N595 C596 1.351 . S
C596 C590 1.428 . S
C596 N595 1.351 . S
C596 C597 1.434 . S
C597 C588 1.429 . S
C597 N594 1.350 . S
C597 C596 1.434 . S
C598 C599 1.369 . S
C598 C600 1.419 . S
C598 H602 0.930 . S
C599 C598 1.369 . S
C599 C608 1.429 . S
C600 C598 1.419 . S
C600 C601 1.363 . S
C600 H603 0.929 . S
C601 C600 1.363 . S
C601 C607 1.428 . S
H602 C598 0.930 . S
H603 C600 0.929 . S
S604 N605 1.613 . S
S604 N606 1.610 . S
N605 S604 1.613 . S
N605 C608 1.350 . S
N606 S604 1.610 . S
N606 C607 1.351 . S
C607 C601 1.428 . S
C607 N606 1.351 . S
C607 C608 1.434 . S
C608 C599 1.429 . S
C608 N605 1.350 . S
C608 C607 1.434 . S
C609 C610 1.369 1_545 S
C609 C611 1.419 . S
C609 H613 0.930 . S
C610 C609 1.369 1_565 S
C610 C619 1.429 . S
C611 C609 1.419 . S
C611 C612 1.363 1_545 S
C611 H614 0.929 . S
C612 C611 1.363 1_565 S
C612 C618 1.428 . S
H613 C609 0.930 . S
H614 C611 0.929 . S
S615 N616 1.613 . S
S615 N617 1.610 . S
N616 S615 1.613 . S
N616 C619 1.350 . S
N617 S615 1.610 . S
N617 C618 1.351 . S
C618 C612 1.428 . S
C618 N617 1.351 . S
C618 C619 1.434 . S
C619 C610 1.429 . S
C619 N616 1.350 . S
C619 C618 1.434 . S
C620 C621 1.369 . S
C620 C622 1.432 . S
C620 H624 0.930 1_455 S
C621 C620 1.369 . S
C621 C630 1.429 . S
C622 C620 1.432 . S
C622 C623 1.372 . S
C622 H625 0.907 1_455 S
C623 C622 1.372 . S
C623 C629 1.428 . S
H624 C620 0.930 1_655 S
H625 C622 0.907 1_655 S
S626 N627 1.613 . S
S626 N628 1.610 . S
N627 S626 1.613 . S
N627 C630 1.350 . S
N628 S626 1.610 . S
N628 C629 1.351 . S
C629 C623 1.428 . S
C629 N628 1.351 . S
C629 C630 1.434 . S
C630 C621 1.429 . S
C630 N627 1.350 . S
C630 C629 1.434 . S
C631 C632 1.369 . S
C631 C633 1.419 . S
C631 H635 0.930 . S
C632 C631 1.369 . S
C632 C641 1.429 . S
C633 C631 1.419 . S
C633 C634 1.363 . S
C633 H636 0.929 . S
C634 C633 1.363 . S
C634 C640 1.428 . S
H635 C631 0.930 . S
H636 C633 0.929 . S
S637 N638 1.613 . S
S637 N639 1.610 . S
N638 S637 1.613 . S
N638 C641 1.350 . S
N639 S637 1.610 . S
N639 C640 1.351 . S
C640 C634 1.428 . S
C640 N639 1.351 . S
C640 C641 1.434 . S
C641 C632 1.429 . S
C641 N638 1.350 . S
C641 C640 1.434 . S
C642 C643 1.369 . S
C642 C644 1.419 . S
C642 H646 0.930 . S
C643 C642 1.369 . S
C643 C652 1.429 . S
C644 C642 1.419 . S
C644 C645 1.363 . S
C644 H647 0.929 . S
C645 C644 1.363 . S
C645 C651 1.427 1_455 S
H646 C642 0.930 . S
H647 C644 0.929 . S
S648 N649 1.613 1_655 S
S648 N650 1.610 . S
N649 S648 1.613 1_455 S
N649 C652 1.350 . S
N650 S648 1.610 . S
N650 C651 1.343 . S
C651 C645 1.427 1_655 S
C651 N650 1.343 . S
C651 C652 1.443 1_655 S
C652 C643 1.429 . S
C652 N649 1.350 . S
C652 C651 1.443 1_455 S
C653 C654 1.369 . S
C653 C655 1.419 . S
C653 H657 0.930 . S
C654 C653 1.369 . S
C654 C663 1.429 . S
C655 C653 1.419 . S
C655 C656 1.363 . S
C655 H658 0.929 . S
C656 C655 1.363 . S
C656 C662 1.428 . S
H657 C653 0.930 . S
H658 C655 0.929 . S
S659 N660 1.613 . S
S659 N661 1.610 . S
N660 S659 1.613 . S
N660 C663 1.350 . S
N661 S659 1.610 . S
N661 C662 1.351 . S
C662 C656 1.428 . S
C662 N661 1.351 . S
C662 C663 1.434 . S
C663 C654 1.429 . S
C663 N660 1.350 . S
C663 C662 1.434 . S
C664 C665 1.369 . S
C664 C666 1.419 . S
C664 H668 0.930 . S
C665 C664 1.369 . S
C665 C674 1.429 1_565 S
C666 C664 1.419 . S
C666 C667 1.407 . S
C666 H669 0.929 . S
C667 C666 1.407 . S
C667 C673 1.408 1_565 S
H668 C664 0.930 . S
H669 C666 0.929 . S
S670 N671 1.613 . S
S670 N672 1.610 . S
N671 S670 1.613 . S
N671 C674 1.350 . S
N672 S670 1.610 . S
N672 C673 1.351 . S
C673 C667 1.408 1_545 S
C673 N672 1.351 . S
C673 C674 1.434 . S
C674 C665 1.429 1_545 S
C674 N671 1.350 . S
C674 C673 1.434 . S
C675 C676 1.369 . S
C675 C677 1.419 . S
C675 H679 0.930 . S
C676 C675 1.369 . S
C676 C685 1.429 1_545 S
C677 C675 1.419 . S
C677 C678 1.363 . S
C677 H680 0.929 . S
C678 C677 1.363 . S
C678 C684 1.428 1_545 S
H679 C675 0.930 . S
H680 C677 0.929 . S
S681 N682 1.613 . S
S681 N683 1.610 . S
N682 S681 1.613 . S
N682 C685 1.350 . S
N683 S681 1.610 . S
N683 C684 1.351 . S
C684 C678 1.428 1_565 S
C684 N683 1.351 . S
C684 C685 1.434 . S
C685 C676 1.429 1_565 S
C685 N682 1.350 . S
C685 C684 1.434 . S
C686 C687 1.369 1_455 S
C686 C688 1.419 . S
C686 H690 0.930 . S
C687 C686 1.369 1_655 S
C687 C696 1.429 . S
C688 C686 1.419 . S
C688 C689 1.363 1_455 S
C688 H691 0.929 . S
C689 C688 1.363 1_655 S
C689 C695 1.428 . S
H690 C686 0.930 . S
H691 C688 0.929 . S
S692 N693 1.613 . S
S692 N694 1.610 . S
N693 S692 1.613 . S
N693 C696 1.350 . S
N694 S692 1.610 . S
N694 C695 1.351 . S
C695 C689 1.428 . S
C695 N694 1.351 . S
C695 C696 1.434 . S
C696 C687 1.429 . S
C696 N693 1.350 . S
C696 C695 1.434 . S
C697 C698 1.369 . S
C697 C699 1.419 . S
C697 H701 0.930 . S
C698 C697 1.369 . S
C698 C707 1.429 . S
C699 C697 1.419 . S
C699 C700 1.363 . S
C699 H702 0.929 . S
C700 C699 1.363 . S
C700 C706 1.428 . S
H701 C697 0.930 . S
H702 C699 0.929 . S
S703 N704 1.613 . S
S703 N705 1.610 . S
N704 S703 1.613 . S
N704 C707 1.350 . S
N705 S703 1.610 . S
N705 C706 1.351 . S
C706 C700 1.428 . S
C706 N705 1.351 . S
C706 C707 1.434 . S
C707 C698 1.429 . S
C707 N704 1.350 . S
C707 C706 1.434 . S
C708 C709 1.369 . S
C708 C710 1.419 . S
C708 H712 0.930 . S
C709 C708 1.369 . S
C709 C718 1.429 . S
C710 C708 1.419 . S
C710 C711 1.363 . S
C710 H713 0.929 . S
C711 C710 1.363 . S
C711 C717 1.428 . S
H712 C708 0.930 . S
H713 C710 0.929 . S
S714 N715 1.613 . S
S714 N716 1.610 . S
N715 S714 1.613 . S
N715 C718 1.350 . S
N716 S714 1.610 . S
N716 C717 1.351 . S
C717 C711 1.428 . S
C717 N716 1.351 . S
C717 C718 1.434 . S
C718 C709 1.429 . S
C718 N715 1.350 . S
C718 C717 1.434 . S
C719 C720 1.369 . S
C719 C721 1.419 . S
C719 H723 0.930 . S
C720 C719 1.369 . S
C720 C729 1.429 . S
C721 C719 1.419 . S
C721 C722 1.363 . S
C721 H724 0.929 . S
C722 C721 1.363 . S
C722 C728 1.428 . S
H723 C719 0.930 . S
H724 C721 0.929 . S
S725 N726 1.613 . S
S725 N727 1.610 . S
N726 S725 1.613 . S
N726 C729 1.350 . S
N727 S725 1.610 . S
N727 C728 1.351 . S
C728 C722 1.428 . S
C728 N727 1.351 . S
C728 C729 1.434 . S
C729 C720 1.429 . S
C729 N726 1.350 . S
C729 C728 1.434 . S
C730 C731 1.369 . S
C730 C732 1.419 . S
C730 H734 0.930 . S
C731 C730 1.369 . S
C731 C740 1.429 . S
C732 C730 1.419 . S
C732 C733 1.363 . S
C732 H735 0.929 . S
C733 C732 1.363 . S
C733 C739 1.428 . S
H734 C730 0.930 . S
H735 C732 0.929 . S
S736 N737 1.613 . S
S736 N738 1.610 . S
N737 S736 1.613 . S
N737 C740 1.350 . S
N738 S736 1.610 . S
N738 C739 1.351 . S
C739 C733 1.428 . S
C739 N738 1.351 . S
C739 C740 1.434 . S
C740 C731 1.429 . S
C740 N737 1.350 . S
C740 C739 1.434 . S
C741 C742 1.369 . S
C741 C743 1.419 . S
C741 H745 0.930 . S
C742 C741 1.369 . S
C742 C751 1.429 . S
C743 C741 1.419 . S
C743 C744 1.363 . S
C743 H746 0.929 . S
C744 C743 1.363 . S
C744 C750 1.428 . S
H745 C741 0.930 . S
H746 C743 0.929 . S
S747 N748 1.613 . S
S747 N749 1.610 . S
N748 S747 1.613 . S
N748 C751 1.350 . S
N749 S747 1.610 . S
N749 C750 1.351 . S
C750 C744 1.428 . S
C750 N749 1.351 . S
C750 C751 1.434 . S
C751 C742 1.429 . S
C751 N748 1.350 . S
C751 C750 1.434 . S
C752 C753 1.369 . S
C752 C754 1.419 . S
C752 H756 0.930 . S
C753 C752 1.369 . S
C753 C762 1.429 . S
C754 C752 1.419 . S
C754 C755 1.363 . S
C754 H757 0.929 . S
C755 C754 1.363 . S
C755 C761 1.428 . S
H756 C752 0.930 . S
H757 C754 0.929 . S
S758 N759 1.613 . S
S758 N760 1.610 . S
N759 S758 1.613 . S
N759 C762 1.350 . S
N760 S758 1.610 . S
N760 C761 1.351 . S
C761 C755 1.428 . S
C761 N760 1.351 . S
C761 C762 1.434 . S
C762 C753 1.429 . S
C762 N759 1.350 . S
C762 C761 1.434 . S
C763 C764 1.369 . S
C763 C765 1.419 . S
C763 H767 0.930 . S
C764 C763 1.369 . S
C764 C773 1.429 . S
C765 C763 1.419 . S
C765 C766 1.363 . S
C765 H768 0.929 . S
C766 C765 1.363 . S
C766 C772 1.428 . S
H767 C763 0.930 . S
H768 C765 0.929 . S
S769 N770 1.613 . S
S769 N771 1.610 . S
N770 S769 1.613 . S
N770 C773 1.350 . S
N771 S769 1.610 . S
N771 C772 1.351 . S
C772 C766 1.428 . S
C772 N771 1.351 . S
C772 C773 1.434 . S
C773 C764 1.429 . S
C773 N770 1.350 . S
C773 C772 1.434 . S
C774 C775 1.369 . S
C774 C776 1.419 . S
C774 H778 0.930 . S
C775 C774 1.369 . S
C775 C784 1.429 . S
C776 C774 1.419 . S
C776 C777 1.363 . S
C776 H779 0.929 . S
C777 C776 1.363 . S
C777 C783 1.428 . S
H778 C774 0.930 . S
H779 C776 0.929 . S
S780 N781 1.613 . S
S780 N782 1.610 . S
N781 S780 1.613 . S
N781 C784 1.350 . S
N782 S780 1.610 . S
N782 C783 1.351 . S
C783 C777 1.428 . S
C783 N782 1.351 . S
C783 C784 1.434 . S
C784 C775 1.429 . S
C784 N781 1.350 . S
C784 C783 1.434 . S
C785 C786 1.369 . S
C785 C787 1.419 . S
C785 H789 0.930 . S
C786 C785 1.369 . S
C786 C795 1.429 . S
C787 C785 1.419 . S
C787 C788 1.363 . S
C787 H790 0.929 . S
C788 C787 1.363 . S
C788 C794 1.428 . S
H789 C785 0.930 . S
H790 C787 0.929 . S
S791 N792 1.613 . S
S791 N793 1.610 . S
N792 S791 1.613 . S
N792 C795 1.350 . S
N793 S791 1.610 . S
N793 C794 1.351 . S
C794 C788 1.428 . S
C794 N793 1.351 . S
C794 C795 1.434 . S
C795 C786 1.429 . S
C795 N792 1.350 . S
C795 C794 1.434 . S
C796 C797 1.369 . S
C796 C798 1.419 . S
C796 H800 0.930 . S
C797 C796 1.369 . S
C797 C806 1.429 . S
C798 C796 1.419 . S
C798 C799 1.363 . S
C798 H801 0.929 . S
C799 C798 1.363 . S
C799 C805 1.428 . S
H800 C796 0.930 . S
H801 C798 0.929 . S
S802 N803 1.613 . S
S802 N804 1.610 . S
N803 S802 1.613 . S
N803 C806 1.350 . S
N804 S802 1.610 . S
N804 C805 1.351 . S
C805 C799 1.428 . S
C805 N804 1.351 . S
C805 C806 1.434 . S
C806 C797 1.429 . S
C806 N803 1.350 . S
C806 C805 1.434 . S
C807 C808 1.369 . S
C807 C809 1.419 . S
C807 H811 0.930 . S
C808 C807 1.369 . S
C808 C817 1.429 . S
C809 C807 1.419 . S
C809 C810 1.363 . S
C809 H812 0.929 . S
C810 C809 1.363 . S
C810 C816 1.428 . S
H811 C807 0.930 . S
H812 C809 0.929 . S
S813 N814 1.613 . S
S813 N815 1.610 . S
N814 S813 1.613 . S
N814 C817 1.350 . S
N815 S813 1.610 . S
N815 C816 1.351 . S
C816 C810 1.428 . S
C816 N815 1.351 . S
C816 C817 1.434 . S
C817 C808 1.429 . S
C817 N814 1.350 . S
C817 C816 1.434 . S
C818 C819 1.369 . S
C818 C820 1.419 . S
C818 H822 0.930 . S
C819 C818 1.369 . S
C819 C828 1.429 . S
C820 C818 1.419 . S
C820 C821 1.363 . S
C820 H823 0.929 . S
C821 C820 1.363 . S
C821 C827 1.428 . S
H822 C818 0.930 . S
H823 C820 0.929 . S
S824 N825 1.613 . S
S824 N826 1.610 . S
N825 S824 1.613 . S
N825 C828 1.350 . S
N826 S824 1.610 . S
N826 C827 1.351 . S
C827 C821 1.428 . S
C827 N826 1.351 . S
C827 C828 1.434 . S
C828 C819 1.429 . S
C828 N825 1.350 . S
C828 C827 1.434 . S
C829 C830 1.369 . S
C829 C831 1.419 . S
C829 H833 0.930 . S
C830 C829 1.369 . S
C830 C839 1.429 . S
C831 C829 1.419 . S
C831 C832 1.363 . S
C831 H834 0.929 . S
C832 C831 1.363 . S
C832 C838 1.428 . S
H833 C829 0.930 . S
H834 C831 0.929 . S
S835 N836 1.613 . S
S835 N837 1.610 . S
N836 S835 1.613 . S
N836 C839 1.350 . S
N837 S835 1.610 . S
N837 C838 1.351 . S
C838 C832 1.428 . S
C838 N837 1.351 . S
C838 C839 1.434 . S
C839 C830 1.429 . S
C839 N836 1.350 . S
C839 C838 1.434 . S
C840 C841 1.369 . S
C840 C842 1.419 . S
C840 H844 0.930 . S
C841 C840 1.369 . S
C841 C850 1.429 . S
C842 C840 1.419 . S
C842 C843 1.363 . S
C842 H845 0.929 . S
C843 C842 1.363 . S
C843 C849 1.428 . S
H844 C840 0.930 . S
H845 C842 0.929 . S
S846 N847 1.613 . S
S846 N848 1.610 . S
N847 S846 1.613 . S
N847 C850 1.350 . S
N848 S846 1.610 . S
N848 C849 1.351 . S
C849 C843 1.428 . S
C849 N848 1.351 . S
C849 C850 1.434 . S
C850 C841 1.429 . S
C850 N847 1.350 . S
C850 C849 1.434 . S
C851 C852 1.369 . S
C851 C853 1.419 . S
C851 H855 0.930 . S
C852 C851 1.369 . S
C852 C861 1.429 . S
C853 C851 1.419 . S
C853 C854 1.363 . S
C853 H856 0.929 . S
C854 C853 1.363 . S
C854 C860 1.428 . S
H855 C851 0.930 . S
H856 C853 0.929 . S
S857 N858 1.613 . S
S857 N859 1.610 . S
N858 S857 1.613 . S
N858 C861 1.350 . S
N859 S857 1.610 . S
N859 C860 1.351 . S
C860 C854 1.428 . S
C860 N859 1.351 . S
C860 C861 1.434 . S
C861 C852 1.429 . S
C861 N858 1.350 . S
C861 C860 1.434 . S
C862 C863 1.369 . S
C862 C864 1.419 . S
C862 H866 0.930 . S
C863 C862 1.369 . S
C863 C872 1.429 . S
C864 C862 1.419 . S
C864 C865 1.363 . S
C864 H867 0.929 . S
C865 C864 1.363 . S
C865 C871 1.428 . S
H866 C862 0.930 . S
H867 C864 0.929 . S
S868 N869 1.613 . S
S868 N870 1.610 . S
N869 S868 1.613 . S
N869 C872 1.350 . S
N870 S868 1.610 . S
N870 C871 1.351 . S
C871 C865 1.428 . S
C871 N870 1.351 . S
C871 C872 1.434 . S
C872 C863 1.429 . S
C872 N869 1.350 . S
C872 C871 1.434 . S
C873 C874 1.369 . S
C873 C875 1.419 . S
C873 H877 0.930 . S
C874 C873 1.369 . S
C874 C883 1.429 . S
C875 C873 1.419 . S
C875 C876 1.363 . S
C875 H878 0.929 . S
C876 C875 1.363 . S
C876 C882 1.428 . S
H877 C873 0.930 . S
H878 C875 0.929 . S
S879 N880 1.613 . S
S879 N881 1.610 . S
N880 S879 1.613 . S
N880 C883 1.350 . S
N881 S879 1.610 . S
N881 C882 1.351 . S
C882 C876 1.428 . S
C882 N881 1.351 . S
C882 C883 1.434 . S
C883 C874 1.429 . S
C883 N880 1.350 . S
C883 C882 1.434 . S
C884 C885 1.369 . S
C884 C886 1.419 . S
C884 H888 0.930 . S
C885 C884 1.369 . S
C885 C894 1.429 . S
C886 C884 1.419 . S
C886 C887 1.363 . S
C886 H889 0.929 . S
C887 C886 1.363 . S
C887 C893 1.428 . S
H888 C884 0.930 . S
H889 C886 0.929 . S
S890 N891 1.613 . S
S890 N892 1.610 . S
N891 S890 1.613 . S
N891 C894 1.350 . S
N892 S890 1.610 . S
N892 C893 1.351 . S
C893 C887 1.428 . S
C893 N892 1.351 . S
C893 C894 1.434 . S
C894 C885 1.429 . S
C894 N891 1.350 . S
C894 C893 1.434 . S
C895 C896 1.369 . S
C895 C897 1.419 . S
C895 H899 0.930 . S
C896 C895 1.369 . S
C896 C905 1.429 . S
C897 C895 1.419 . S
C897 C898 1.363 . S
C897 H900 0.929 . S
C898 C897 1.363 . S
C898 C904 1.428 . S
H899 C895 0.930 . S
H900 C897 0.929 . S
S901 N902 1.613 . S
S901 N903 1.610 . S
N902 S901 1.613 . S
N902 C905 1.350 . S
N903 S901 1.610 . S
N903 C904 1.351 . S
C904 C898 1.428 . S
C904 N903 1.351 . S
C904 C905 1.434 . S
C905 C896 1.429 . S
C905 N902 1.350 . S
C905 C904 1.434 . S
C906 C907 1.369 . S
C906 C908 1.419 . S
C906 H910 0.930 . S
C907 C906 1.369 . S
C907 C916 1.429 . S
C908 C906 1.419 . S
C908 C909 1.363 . S
C908 H911 0.929 . S
C909 C908 1.363 . S
C909 C915 1.428 . S
H910 C906 0.930 . S
H911 C908 0.929 . S
S912 N913 1.613 . S
S912 N914 1.610 . S
N913 S912 1.613 . S
N913 C916 1.350 . S
N914 S912 1.610 . S
N914 C915 1.351 . S
C915 C909 1.428 . S
C915 N914 1.351 . S
C915 C916 1.434 . S
C916 C907 1.429 . S
C916 N913 1.350 . S
C916 C915 1.434 . S
C917 C918 1.369 . S
C917 C919 1.419 . S
C917 H921 0.930 . S
C918 C917 1.369 . S
C918 C927 1.429 . S
C919 C917 1.419 . S
C919 C920 1.363 . S
C919 H922 0.929 . S
C920 C919 1.363 . S
C920 C926 1.428 . S
H921 C917 0.930 . S
H922 C919 0.929 . S
S923 N924 1.613 . S
S923 N925 1.610 . S
N924 S923 1.613 . S
N924 C927 1.350 . S
N925 S923 1.610 . S
N925 C926 1.351 . S
C926 C920 1.428 . S
C926 N925 1.351 . S
C926 C927 1.434 . S
C927 C918 1.429 . S
C927 N924 1.350 . S
C927 C926 1.434 . S
C928 C929 1.369 . S
C928 C930 1.419 . S
C928 H932 0.930 . S
C929 C928 1.369 . S
C929 C938 1.429 . S
C930 C928 1.419 . S
C930 C931 1.363 . S
C930 H933 0.929 . S
C931 C930 1.363 . S
C931 C937 1.428 . S
H932 C928 0.930 . S
H933 C930 0.929 . S
S934 N935 1.613 . S
S934 N936 1.610 . S
N935 S934 1.613 . S
N935 C938 1.350 . S
N936 S934 1.610 . S
N936 C937 1.351 . S
C937 C931 1.428 . S
C937 N936 1.351 . S
C937 C938 1.434 . S
C938 C929 1.429 . S
C938 N935 1.350 . S
C938 C937 1.434 . S
C939 C940 1.369 . S
C939 C941 1.419 . S
C939 H943 0.930 . S
C940 C939 1.369 . S
C940 C949 1.429 . S
C941 C939 1.419 . S
C941 C942 1.363 . S
C941 H944 0.929 . S
C942 C941 1.363 . S
C942 C948 1.428 . S
H943 C939 0.930 . S
H944 C941 0.929 . S
S945 N946 1.613 . S
S945 N947 1.610 . S
N946 S945 1.613 . S
N946 C949 1.350 . S
N947 S945 1.610 . S
N947 C948 1.351 . S
C948 C942 1.428 . S
C948 N947 1.351 . S
C948 C949 1.434 . S
C949 C940 1.429 . S
C949 N946 1.350 . S
C949 C948 1.434 . S
C950 C951 1.369 . S
C950 C952 1.419 . S
C950 H954 0.930 . S
C951 C950 1.369 . S
C951 C960 1.429 . S
C952 C950 1.419 . S
C952 C953 1.363 . S
C952 H955 0.929 . S
C953 C952 1.363 . S
C953 C959 1.428 . S
H954 C950 0.930 . S
H955 C952 0.929 . S
S956 N957 1.613 . S
S956 N958 1.610 . S
N957 S956 1.613 . S
N957 C960 1.350 . S
N958 S956 1.610 . S
N958 C959 1.351 . S
C959 C953 1.428 . S
C959 N958 1.351 . S
C959 C960 1.434 . S
C960 C951 1.429 . S
C960 N957 1.350 . S
C960 C959 1.434 . S
C961 C962 1.369 . S
C961 C963 1.419 . S
C961 H965 0.930 . S
C962 C961 1.369 . S
C962 C971 1.429 . S
C963 C961 1.419 . S
C963 C964 1.363 . S
C963 H966 0.929 . S
C964 C963 1.363 . S
C964 C970 1.428 . S
H965 C961 0.930 . S
H966 C963 0.929 . S
S967 N968 1.613 . S
S967 N969 1.610 . S
N968 S967 1.613 . S
N968 C971 1.350 . S
N969 S967 1.610 . S
N969 C970 1.351 . S
C970 C964 1.428 . S
C970 N969 1.351 . S
C970 C971 1.434 . S
C971 C962 1.429 . S
C971 N968 1.350 . S
C971 C970 1.434 . S
C972 C973 1.369 . S
C972 C974 1.419 . S
C972 H976 0.930 . S
C973 C972 1.369 . S
C973 C982 1.429 . S
C974 C972 1.419 . S
C974 C975 1.363 . S
C974 H977 0.929 . S
C975 C974 1.363 . S
C975 C981 1.428 . S
H976 C972 0.930 . S
H977 C974 0.929 . S
S978 N979 1.613 . S
S978 N980 1.610 . S
N979 S978 1.613 . S
N979 C982 1.350 . S
N980 S978 1.610 . S
N980 C981 1.351 . S
C981 C975 1.428 . S
C981 N980 1.351 . S
C981 C982 1.434 . S
C982 C973 1.429 . S
C982 N979 1.350 . S
C982 C981 1.434 . S
C983 C984 1.369 . S
C983 C985 1.419 . S
C983 H987 0.930 . S
C984 C983 1.369 . S
C984 C993 1.429 . S
C985 C983 1.419 . S
C985 C986 1.363 . S
C985 H988 0.929 . S
C986 C985 1.363 . S
C986 C992 1.428 . S
H987 C983 0.930 . S
H988 C985 0.929 . S
S989 N990 1.613 . S
S989 N991 1.610 1_556 S
N990 S989 1.613 . S
N990 C993 1.350 1_556 S
N991 S989 1.610 1_554 S
N991 C992 1.351 . S
C992 C986 1.428 . S
C992 N991 1.351 . S
C992 C993 1.434 . S
C993 C984 1.429 . S
C993 N990 1.350 1_554 S
C993 C992 1.434 . S
C994 C995 1.369 . S
C994 C996 1.419 . S
C994 H998 0.930 . S
C995 C994 1.369 . S
C995 C1004 1.429 . S
C996 C994 1.419 . S
C996 C997 1.363 . S
C996 H999 0.929 . S
C997 C996 1.363 . S
C997 C1003 1.428 . S
H998 C994 0.930 . S
H999 C996 0.929 . S
S1000 N1001 1.613 . S
S1000 N1002 1.610 . S
N1001 S1000 1.613 . S
N1001 C1004 1.350 . S
N1002 S1000 1.610 . S
N1002 C1003 1.351 . S
C1003 C997 1.428 . S
C1003 N1002 1.351 . S
C1003 C1004 1.434 . S
C1004 C995 1.429 . S
C1004 N1001 1.350 . S
C1004 C1003 1.434 . S
C1005 C1006 1.369 . S
C1005 C1007 1.419 . S
C1005 H1009 0.930 . S
C1006 C1005 1.369 . S
C1006 C1015 1.429 . S
C1007 C1005 1.419 . S
C1007 C1008 1.363 . S
C1007 H1010 0.929 . S
C1008 C1007 1.363 . S
C1008 C1014 1.428 . S
H1009 C1005 0.930 . S
H1010 C1007 0.929 . S
S1011 N1012 1.613 . S
S1011 N1013 1.610 . S
N1012 S1011 1.613 . S
N1012 C1015 1.350 . S
N1013 S1011 1.610 . S
N1013 C1014 1.351 . S
C1014 C1008 1.428 . S
C1014 N1013 1.351 . S
C1014 C1015 1.434 . S
C1015 C1006 1.429 . S
C1015 N1012 1.350 . S
C1015 C1014 1.434 . S
C1016 C1017 1.369 . S
C1016 C1018 1.419 . S
C1016 H1020 0.930 1_556 S
C1017 C1016 1.369 . S
C1017 C1026 1.429 . S
C1018 C1016 1.419 . S
C1018 C1019 1.363 . S
C1018 H1021 0.929 . S
C1019 C1018 1.363 . S
C1019 C1025 1.428 . S
H1020 C1016 0.930 1_554 S
H1021 C1018 0.929 . S
S1022 N1023 1.613 . S
S1022 N1024 1.610 . S
N1023 S1022 1.613 . S
N1023 C1026 1.350 . S
N1024 S1022 1.610 . S
N1024 C1025 1.351 . S
C1025 C1019 1.428 . S
C1025 N1024 1.351 . S
C1025 C1026 1.434 . S
C1026 C1017 1.429 . S
C1026 N1023 1.350 . S
C1026 C1025 1.434 . S
C1027 C1028 1.369 . S
C1027 C1029 1.419 . S
C1027 H1031 0.930 . S
C1028 C1027 1.369 . S
C1028 C1037 1.429 . S
C1029 C1027 1.419 . S
C1029 C1030 1.363 . S
C1029 H1032 0.929 . S
C1030 C1029 1.363 . S
C1030 C1036 1.428 . S
H1031 C1027 0.930 . S
H1032 C1029 0.929 . S
S1033 N1034 1.613 . S
S1033 N1035 1.610 . S
N1034 S1033 1.613 . S
N1034 C1037 1.350 1_554 S
N1035 S1033 1.610 . S
N1035 C1036 1.351 1_554 S
C1036 C1030 1.428 . S
C1036 N1035 1.351 1_556 S
C1036 C1037 1.434 . S
C1037 C1028 1.429 . S
C1037 N1034 1.350 1_556 S
C1037 C1036 1.434 . S
C1038 C1039 1.369 . S
C1038 C1040 1.419 . S
C1038 H1042 0.930 1_556 S
C1039 C1038 1.369 . S
C1039 C1048 1.429 . S
C1040 C1038 1.419 . S
C1040 C1041 1.363 . S
C1040 H1043 0.929 . S
C1041 C1040 1.363 . S
C1041 C1047 1.428 . S
H1042 C1038 0.930 1_554 S
H1043 C1040 0.929 . S
S1044 N1045 1.613 . S
S1044 N1046 1.610 . S
N1045 S1044 1.613 . S
N1045 C1048 1.350 . S
N1046 S1044 1.610 . S
N1046 C1047 1.351 . S
C1047 C1041 1.428 . S
C1047 N1046 1.351 . S
C1047 C1048 1.434 . S
C1048 C1039 1.429 . S
C1048 N1045 1.350 . S
C1048 C1047 1.434 . S
C1049 C1050 1.369 . S
C1049 C1051 1.419 . S
C1049 H1053 0.930 . S
C1050 C1049 1.369 . S
C1050 C1059 1.429 . S
C1051 C1049 1.419 . S
C1051 C1052 1.363 . S
C1051 H1054 0.929 . S
C1052 C1051 1.363 . S
C1052 C1058 1.428 . S
H1053 C1049 0.930 . S
H1054 C1051 0.929 . S
S1055 N1056 1.613 . S
S1055 N1057 1.610 . S
N1056 S1055 1.613 . S
N1056 C1059 1.350 . S
N1057 S1055 1.610 . S
N1057 C1058 1.351 . S
C1058 C1052 1.428 . S
C1058 N1057 1.351 . S
C1058 C1059 1.434 . S
C1059 C1050 1.429 . S
C1059 N1056 1.350 . S
C1059 C1058 1.434 . S
C1060 C1061 1.369 . S
C1060 C1062 1.419 . S
C1060 H1064 0.930 . S
C1061 C1060 1.369 . S
C1061 C1070 1.429 . S
C1062 C1060 1.419 . S
C1062 C1063 1.363 . S
C1062 H1065 0.929 . S
C1063 C1062 1.363 . S
C1063 C1069 1.428 . S
H1064 C1060 0.930 . S
H1065 C1062 0.929 . S
S1066 N1067 1.613 . S
S1066 N1068 1.610 . S
N1067 S1066 1.613 . S
N1067 C1070 1.350 . S
N1068 S1066 1.610 . S
N1068 C1069 1.351 . S
C1069 C1063 1.428 . S
C1069 N1068 1.351 . S
C1069 C1070 1.434 . S
C1070 C1061 1.429 . S
C1070 N1067 1.350 . S
C1070 C1069 1.434 . S
C1071 C1072 1.369 . S
C1071 C1073 1.419 . S
C1071 H1075 0.930 . S
C1072 C1071 1.369 . S
C1072 C1081 1.429 . S
C1073 C1071 1.419 . S
C1073 C1074 1.363 . S
C1073 H1076 0.929 . S
C1074 C1073 1.363 . S
C1074 C1080 1.428 . S
H1075 C1071 0.930 . S
H1076 C1073 0.929 . S
S1077 N1078 1.613 . S
S1077 N1079 1.610 . S
N1078 S1077 1.613 . S
N1078 C1081 1.350 . S
N1079 S1077 1.610 . S
N1079 C1080 1.351 . S
C1080 C1074 1.428 . S
C1080 N1079 1.351 . S
C1080 C1081 1.434 . S
C1081 C1072 1.429 . S
C1081 N1078 1.350 . S
C1081 C1080 1.434 . S
C1082 C1083 1.369 . S
C1082 C1084 1.419 . S
C1082 H1086 0.930 . S
C1083 C1082 1.369 . S
C1083 C1092 1.429 . S
C1084 C1082 1.419 . S
C1084 C1085 1.363 . S
C1084 H1087 0.929 . S
C1085 C1084 1.363 . S
C1085 C1091 1.428 . S
H1086 C1082 0.930 . S
H1087 C1084 0.929 . S
S1088 N1089 1.613 . S
S1088 N1090 1.610 1_556 S
N1089 S1088 1.613 . S
N1089 C1092 1.350 1_556 S
N1090 S1088 1.610 1_554 S
N1090 C1091 1.351 . S
C1091 C1085 1.428 . S
C1091 N1090 1.351 . S
C1091 C1092 1.434 . S
C1092 C1083 1.429 . S
C1092 N1089 1.350 1_554 S
C1092 C1091 1.434 . S
C1093 C1094 1.369 . S
C1093 C1095 1.419 . S
C1093 H1097 0.930 . S
C1094 C1093 1.369 . S
C1094 C1103 1.429 . S
C1095 C1093 1.419 . S
C1095 C1096 1.363 . S
C1095 H1098 0.929 . S
C1096 C1095 1.363 . S
C1096 C1102 1.428 . S
H1097 C1093 0.930 . S
H1098 C1095 0.929 . S
S1099 N1100 1.613 . S
S1099 N1101 1.610 . S
N1100 S1099 1.613 . S
N1100 C1103 1.350 . S
N1101 S1099 1.610 . S
N1101 C1102 1.351 . S
C1102 C1096 1.428 . S
C1102 N1101 1.351 . S
C1102 C1103 1.434 . S
C1103 C1094 1.429 . S
C1103 N1100 1.350 . S
C1103 C1102 1.434 . S
C1104 C1105 1.369 . S
C1104 C1106 1.419 . S
C1104 H1108 0.930 . S
C1105 C1104 1.369 . S
C1105 C1114 1.429 . S
C1106 C1104 1.419 . S
C1106 C1107 1.363 . S
C1106 H1109 0.929 . S
C1107 C1106 1.363 . S
C1107 C1113 1.428 . S
H1108 C1104 0.930 . S
H1109 C1106 0.929 . S
S1110 N1111 1.613 . S
S1110 N1112 1.610 . S
N1111 S1110 1.613 . S
N1111 C1114 1.350 . S
N1112 S1110 1.610 . S
N1112 C1113 1.351 . S
C1113 C1107 1.428 . S
C1113 N1112 1.351 . S
C1113 C1114 1.434 . S
C1114 C1105 1.429 . S
C1114 N1111 1.350 . S
C1114 C1113 1.434 . S
C1115 C1116 1.369 . S
C1115 C1117 1.419 . S
C1115 H1119 0.930 . S
C1116 C1115 1.369 . S
C1116 C1125 1.429 . S
C1117 C1115 1.419 . S
C1117 C1118 1.363 . S
C1117 H1120 0.929 . S
C1118 C1117 1.363 . S
C1118 C1124 1.428 . S
H1119 C1115 0.930 . S
H1120 C1117 0.929 . S
S1121 N1122 1.613 . S
S1121 N1123 1.610 . S
N1122 S1121 1.613 . S
N1122 C1125 1.350 . S
N1123 S1121 1.610 . S
N1123 C1124 1.351 . S
C1124 C1118 1.428 . S
C1124 N1123 1.351 . S
C1124 C1125 1.434 . S
C1125 C1116 1.429 . S
C1125 N1122 1.350 . S
C1125 C1124 1.434 . S
C1126 C1127 1.369 . S
C1126 C1128 1.419 . S
C1126 H1130 0.930 . S
C1127 C1126 1.369 . S
C1127 C1136 1.429 . S
C1128 C1126 1.419 . S
C1128 C1129 1.363 . S
C1128 H1131 0.929 . S
C1129 C1128 1.363 . S
C1129 C1135 1.428 . S
H1130 C1126 0.930 . S
H1131 C1128 0.929 . S
S1132 N1133 1.613 . S
S1132 N1134 1.610 . S
N1133 S1132 1.613 . S
N1133 C1136 1.350 . S
N1134 S1132 1.610 . S
N1134 C1135 1.351 . S
C1135 C1129 1.428 . S
C1135 N1134 1.351 . S
C1135 C1136 1.434 . S
C1136 C1127 1.429 . S
C1136 N1133 1.350 . S
C1136 C1135 1.434 . S
C1137 C1138 1.369 . S
C1137 C1139 1.419 1_455 S
C1137 H1141 0.930 1_455 S
C1138 C1137 1.369 . S
C1138 C1147 1.429 . S
C1139 C1137 1.419 1_655 S
C1139 C1140 1.363 1_655 S
C1139 H1142 0.929 . S
C1140 C1139 1.363 1_455 S
C1140 C1146 1.428 . S
H1141 C1137 0.930 1_655 S
H1142 C1139 0.929 . S
S1143 N1144 1.613 . S
S1143 N1145 1.610 . S
N1144 S1143 1.613 . S
N1144 C1147 1.350 . S
N1145 S1143 1.610 . S
N1145 C1146 1.351 . S
C1146 C1140 1.428 . S
C1146 N1145 1.351 . S
C1146 C1147 1.434 . S
C1147 C1138 1.429 . S
C1147 N1144 1.350 . S
C1147 C1146 1.434 . S
C1148 C1149 1.369 . S
C1148 C1150 1.419 . S
C1148 H1152 0.930 . S
C1149 C1148 1.369 . S
C1149 C1158 1.429 . S
C1150 C1148 1.419 . S
C1150 C1151 1.363 . S
C1150 H1153 0.929 . S
C1151 C1150 1.363 . S
C1151 C1157 1.428 . S
H1152 C1148 0.930 . S
H1153 C1150 0.929 . S
S1154 N1155 1.613 . S
S1154 N1156 1.610 . S
N1155 S1154 1.613 . S
N1155 C1158 1.350 . S
N1156 S1154 1.610 . S
N1156 C1157 1.351 . S
C1157 C1151 1.428 . S
C1157 N1156 1.351 . S
C1157 C1158 1.434 . S
C1158 C1149 1.429 . S
C1158 N1155 1.350 . S
C1158 C1157 1.434 . S
C1159 C1160 1.369 . S
C1159 C1161 1.419 . S
C1159 H1163 0.930 1_565 S
C1160 C1159 1.369 . S
C1160 C1169 1.429 . S
C1161 C1159 1.419 . S
C1161 C1162 1.363 . S
C1161 H1164 0.929 1_565 S
C1162 C1161 1.363 . S
C1162 C1168 1.428 . S
H1163 C1159 0.930 1_545 S
H1164 C1161 0.929 1_545 S
S1165 N1166 1.613 . S
S1165 N1167 1.610 . S
N1166 S1165 1.613 . S
N1166 C1169 1.350 . S
N1167 S1165 1.610 . S
N1167 C1168 1.351 . S
C1168 C1162 1.428 . S
C1168 N1167 1.351 . S
C1168 C1169 1.434 . S
C1169 C1160 1.429 . S
C1169 N1166 1.350 . S
C1169 C1168 1.434 . S
C1170 C1171 1.369 1_545 S
C1170 C1172 1.419 . S
C1170 H1174 0.930 . S
C1171 C1170 1.369 1_565 S
C1171 C1180 1.429 . S
C1172 C1170 1.419 . S
C1172 C1173 1.363 1_545 S
C1172 H1175 0.929 . S
C1173 C1172 1.363 1_565 S
C1173 C1179 1.428 . S
H1174 C1170 0.930 . S
H1175 C1172 0.929 . S
S1176 N1177 1.613 . S
S1176 N1178 1.610 . S
N1177 S1176 1.613 . S
N1177 C1180 1.350 . S
N1178 S1176 1.610 . S
N1178 C1179 1.351 . S
C1179 C1173 1.428 . S
C1179 N1178 1.351 . S
C1179 C1180 1.434 . S
C1180 C1171 1.429 . S
C1180 N1177 1.350 . S
C1180 C1179 1.434 . S
C1181 C1182 1.369 1_655 S
C1181 C1183 1.419 . S
C1181 H1185 0.930 . S
C1182 C1181 1.369 1_455 S
C1182 C1191 1.429 . S
C1183 C1181 1.419 . S
C1183 C1184 1.363 1_655 S
C1183 H1186 0.929 . S
C1184 C1183 1.363 1_455 S
C1184 C1190 1.428 . S
H1185 C1181 0.930 . S
H1186 C1183 0.929 . S
S1187 N1188 1.613 . S
S1187 N1189 1.610 . S
N1188 S1187 1.613 . S
N1188 C1191 1.350 . S
N1189 S1187 1.610 . S
N1189 C1190 1.351 . S
C1190 C1184 1.428 . S
C1190 N1189 1.351 . S
C1190 C1191 1.434 . S
C1191 C1182 1.429 . S
C1191 N1188 1.350 . S
C1191 C1190 1.434 . S
C1192 C1193 1.369 . S
C1192 C1194 1.419 . S
C1192 H1196 0.930 . S
C1193 C1192 1.369 . S
C1193 C1202 1.429 . S
C1194 C1192 1.419 . S
C1194 C1195 1.363 . S
C1194 H1197 0.929 . S
C1195 C1194 1.363 . S
C1195 C1201 1.428 . S
H1196 C1192 0.930 . S
H1197 C1194 0.929 . S
S1198 N1199 1.613 . S
S1198 N1200 1.610 . S
N1199 S1198 1.613 . S
N1199 C1202 1.350 . S
N1200 S1198 1.610 . S
N1200 C1201 1.351 . S
C1201 C1195 1.428 . S
C1201 N1200 1.351 . S
C1201 C1202 1.434 . S
C1202 C1193 1.429 . S
C1202 N1199 1.350 . S
C1202 C1201 1.434 . S
C1203 C1204 1.369 . S
C1203 C1205 1.419 . S
C1203 H1207 0.930 . S
C1204 C1203 1.369 . S
C1204 C1213 1.429 . S
C1205 C1203 1.419 . S
C1205 C1206 1.363 . S
C1205 H1208 0.929 . S
C1206 C1205 1.363 . S
C1206 C1212 1.428 . S
H1207 C1203 0.930 . S
H1208 C1205 0.929 . S
S1209 N1210 1.613 . S
S1209 N1211 1.610 . S
N1210 S1209 1.613 . S
N1210 C1213 1.350 . S
N1211 S1209 1.610 . S
N1211 C1212 1.351 . S
C1212 C1206 1.428 . S
C1212 N1211 1.351 . S
C1212 C1213 1.434 . S
C1213 C1204 1.429 . S
C1213 N1210 1.350 . S
C1213 C1212 1.434 . S
C1214 C1215 1.369 . S
C1214 C1216 1.419 . S
C1214 H1218 0.930 . S
C1215 C1214 1.369 . S
C1215 C1224 1.429 . S
C1216 C1214 1.419 . S
C1216 C1217 1.363 . S
C1216 H1219 0.929 . S
C1217 C1216 1.363 . S
C1217 C1223 1.428 . S
H1218 C1214 0.930 . S
H1219 C1216 0.929 . S
S1220 N1221 1.613 . S
S1220 N1222 1.610 . S
N1221 S1220 1.613 . S
N1221 C1224 1.350 . S
N1222 S1220 1.610 . S
N1222 C1223 1.351 . S
C1223 C1217 1.428 . S
C1223 N1222 1.351 . S
C1223 C1224 1.434 . S
C1224 C1215 1.429 . S
C1224 N1221 1.350 . S
C1224 C1223 1.434 . S
C1225 C1226 1.369 . S
C1225 C1227 1.419 . S
C1225 H1229 0.930 . S
C1226 C1225 1.369 . S
C1226 C1235 1.429 . S
C1227 C1225 1.419 . S
C1227 C1228 1.363 . S
C1227 H1230 0.929 . S
C1228 C1227 1.363 . S
C1228 C1234 1.428 . S
H1229 C1225 0.930 . S
H1230 C1227 0.929 . S
S1231 N1232 1.613 . S
S1231 N1233 1.610 . S
N1232 S1231 1.613 . S
N1232 C1235 1.350 . S
N1233 S1231 1.610 . S
N1233 C1234 1.351 . S
C1234 C1228 1.428 . S
C1234 N1233 1.351 . S
C1234 C1235 1.434 . S
C1235 C1226 1.429 . S
C1235 N1232 1.350 . S
C1235 C1234 1.434 . S
C1236 C1237 1.369 1_565 S
C1236 C1238 1.419 . S
C1236 H1240 0.930 . S
C1237 C1236 1.369 1_545 S
C1237 C1246 1.429 . S
C1238 C1236 1.419 . S
C1238 C1239 1.363 1_565 S
C1238 H1241 0.929 . S
C1239 C1238 1.363 1_545 S
C1239 C1245 1.428 . S
H1240 C1236 0.930 . S
H1241 C1238 0.929 . S
S1242 N1243 1.613 . S
S1242 N1244 1.610 . S
N1243 S1242 1.613 . S
N1243 C1246 1.350 . S
N1244 S1242 1.610 . S
N1244 C1245 1.351 . S
C1245 C1239 1.428 . S
C1245 N1244 1.351 . S
C1245 C1246 1.434 . S
C1246 C1237 1.429 . S
C1246 N1243 1.350 . S
C1246 C1245 1.434 . S
C1247 C1248 1.369 1_455 S
C1247 C1249 1.419 . S
C1247 H1251 0.930 . S
C1248 C1247 1.369 1_655 S
C1248 C1257 1.429 . S
C1249 C1247 1.419 . S
C1249 C1250 1.363 1_455 S
C1249 H1252 0.929 . S
C1250 C1249 1.363 1_655 S
C1250 C1256 1.428 . S
H1251 C1247 0.930 . S
H1252 C1249 0.929 . S
S1253 N1254 1.613 . S
S1253 N1255 1.610 . S
N1254 S1253 1.613 . S
N1254 C1257 1.350 . S
N1255 S1253 1.610 . S
N1255 C1256 1.351 . S
C1256 C1250 1.428 . S
C1256 N1255 1.351 . S
C1256 C1257 1.434 . S
C1257 C1248 1.429 . S
C1257 N1254 1.350 . S
C1257 C1256 1.434 . S
C1258 C1259 1.369 . S
C1258 C1260 1.419 . S
C1258 H1262 0.930 . S
C1259 C1258 1.369 . S
C1259 C1268 1.429 . S
C1260 C1258 1.419 . S
C1260 C1261 1.363 . S
C1260 H1263 0.929 . S
C1261 C1260 1.363 . S
C1261 C1267 1.428 . S
H1262 C1258 0.930 . S
H1263 C1260 0.929 . S
S1264 N1265 1.613 . S
S1264 N1266 1.610 . S
N1265 S1264 1.613 . S
N1265 C1268 1.350 . S
N1266 S1264 1.610 . S
N1266 C1267 1.351 . S
C1267 C1261 1.428 . S
C1267 N1266 1.351 . S
C1267 C1268 1.434 . S
C1268 C1259 1.429 . S
C1268 N1265 1.350 . S
C1268 C1267 1.434 . S
C1269 C1270 1.369 . S
C1269 C1271 1.419 . S
C1269 H1273 0.930 . S
C1270 C1269 1.369 . S
C1270 C1279 1.429 . S
C1271 C1269 1.419 . S
C1271 C1272 1.363 . S
C1271 H1274 0.929 . S
C1272 C1271 1.363 . S
C1272 C1278 1.428 . S
H1273 C1269 0.930 . S
H1274 C1271 0.929 . S
S1275 N1276 1.613 . S
S1275 N1277 1.610 . S
N1276 S1275 1.613 . S
N1276 C1279 1.350 . S
N1277 S1275 1.610 . S
N1277 C1278 1.351 . S
C1278 C1272 1.428 . S
C1278 N1277 1.351 . S
C1278 C1279 1.434 . S
C1279 C1270 1.429 . S
C1279 N1276 1.350 . S
C1279 C1278 1.434 . S
C1280 C1281 1.369 . S
C1280 C1282 1.419 . S
C1280 H1284 0.930 . S
C1281 C1280 1.369 . S
C1281 C1290 1.429 . S
C1282 C1280 1.419 . S
C1282 C1283 1.363 . S
C1282 H1285 0.929 . S
C1283 C1282 1.363 . S
C1283 C1289 1.428 . S
H1284 C1280 0.930 . S
H1285 C1282 0.929 . S
S1286 N1287 1.613 . S
S1286 N1288 1.610 . S
N1287 S1286 1.613 . S
N1287 C1290 1.350 . S
N1288 S1286 1.610 . S
N1288 C1289 1.351 . S
C1289 C1283 1.428 . S
C1289 N1288 1.351 . S
C1289 C1290 1.434 . S
C1290 C1281 1.429 . S
C1290 N1287 1.350 . S
C1290 C1289 1.434 . S
C1291 C1292 1.369 . S
C1291 C1293 1.419 . S
C1291 H1295 0.930 . S
C1292 C1291 1.369 . S
C1292 C1301 1.429 . S
C1293 C1291 1.419 . S
C1293 C1294 1.363 . S
C1293 H1296 0.929 . S
C1294 C1293 1.363 . S
C1294 C1300 1.428 . S
H1295 C1291 0.930 . S
H1296 C1293 0.929 . S
S1297 N1298 1.613 . S
S1297 N1299 1.610 . S
N1298 S1297 1.613 . S
N1298 C1301 1.350 . S
N1299 S1297 1.610 . S
N1299 C1300 1.351 . S
C1300 C1294 1.428 . S
C1300 N1299 1.351 . S
C1300 C1301 1.434 . S
C1301 C1292 1.429 . S
C1301 N1298 1.350 . S
C1301 C1300 1.434 . S
C1302 C1303 1.369 . S
C1302 C1304 1.419 . S
C1302 H1306 0.930 . S
C1303 C1302 1.369 . S
C1303 C1312 1.429 . S
C1304 C1302 1.419 . S
C1304 C1305 1.363 . S
C1304 H1307 0.929 . S
C1305 C1304 1.363 . S
C1305 C1311 1.428 . S
H1306 C1302 0.930 . S
H1307 C1304 0.929 . S
S1308 N1309 1.613 . S
S1308 N1310 1.610 . S
N1309 S1308 1.613 . S
N1309 C1312 1.350 . S
N1310 S1308 1.610 . S
N1310 C1311 1.351 . S
C1311 C1305 1.428 . S
C1311 N1310 1.351 . S
C1311 C1312 1.434 . S
C1312 C1303 1.429 . S
C1312 N1309 1.350 . S
C1312 C1311 1.434 . S
C1313 C1314 1.369 . S
C1313 C1315 1.419 . S
C1313 H1317 0.930 . S
C1314 C1313 1.369 . S
C1314 C1323 1.429 . S
C1315 C1313 1.419 . S
C1315 C1316 1.363 . S
C1315 H1318 0.929 . S
C1316 C1315 1.363 . S
C1316 C1322 1.428 . S
H1317 C1313 0.930 . S
H1318 C1315 0.929 . S
S1319 N1320 1.613 . S
S1319 N1321 1.610 . S
N1320 S1319 1.613 . S
N1320 C1323 1.350 . S
N1321 S1319 1.610 . S
N1321 C1322 1.351 . S
C1322 C1316 1.428 . S
C1322 N1321 1.351 . S
C1322 C1323 1.434 . S
C1323 C1314 1.429 . S
C1323 N1320 1.350 . S
C1323 C1322 1.434 . S
C1324 C1325 1.369 . S
C1324 C1326 1.419 . S
C1324 H1328 0.930 . S
C1325 C1324 1.369 . S
C1325 C1334 1.429 . S
C1326 C1324 1.419 . S
C1326 C1327 1.363 . S
C1326 H1329 0.929 . S
C1327 C1326 1.363 . S
C1327 C1333 1.428 . S
H1328 C1324 0.930 . S
H1329 C1326 0.929 . S
S1330 N1331 1.613 . S
S1330 N1332 1.610 . S
N1331 S1330 1.613 . S
N1331 C1334 1.350 . S
N1332 S1330 1.610 . S
N1332 C1333 1.351 . S
C1333 C1327 1.428 . S
C1333 N1332 1.351 . S
C1333 C1334 1.434 . S
C1334 C1325 1.429 . S
C1334 N1331 1.350 . S
C1334 C1333 1.434 . S
C1335 C1336 1.369 1_455 S
C1335 C1337 1.419 . S
C1335 H1339 0.930 . S
C1336 C1335 1.369 1_655 S
C1336 C1345 1.429 . S
C1337 C1335 1.419 . S
C1337 C1338 1.363 1_455 S
C1337 H1340 0.929 . S
C1338 C1337 1.363 1_655 S
C1338 C1344 1.428 . S
H1339 C1335 0.930 . S
H1340 C1337 0.929 . S
S1341 N1342 1.613 . S
S1341 N1343 1.610 . S
N1342 S1341 1.613 . S
N1342 C1345 1.350 . S
N1343 S1341 1.610 . S
N1343 C1344 1.351 . S
C1344 C1338 1.428 . S
C1344 N1343 1.351 . S
C1344 C1345 1.434 . S
C1345 C1336 1.429 . S
C1345 N1342 1.350 . S
C1345 C1344 1.434 . S
C1346 C1347 1.369 . S
C1346 C1348 1.419 . S
C1346 H1350 0.930 . S
C1347 C1346 1.369 . S
C1347 C1356 1.429 . S
C1348 C1346 1.419 . S
C1348 C1349 1.363 . S
C1348 H1351 0.929 . S
C1349 C1348 1.363 . S
C1349 C1355 1.428 . S
H1350 C1346 0.930 . S
H1351 C1348 0.929 . S
S1352 N1353 1.613 . S
S1352 N1354 1.610 . S
N1353 S1352 1.613 . S
N1353 C1356 1.350 . S
N1354 S1352 1.610 . S
N1354 C1355 1.351 . S
C1355 C1349 1.428 . S
C1355 N1354 1.351 . S
C1355 C1356 1.434 . S
C1356 C1347 1.429 . S
C1356 N1353 1.350 . S
C1356 C1355 1.434 . S
C1357 C1358 1.369 . S
C1357 C1359 1.419 . S
C1357 H1361 0.930 . S
C1358 C1357 1.369 . S
C1358 C1367 1.429 1_545 S
C1359 C1357 1.419 . S
C1359 C1360 1.363 . S
C1359 H1362 0.929 . S
C1360 C1359 1.363 . S
C1360 C1366 1.428 1_545 S
H1361 C1357 0.930 . S
H1362 C1359 0.929 . S
S1363 N1364 1.613 . S
S1363 N1365 1.610 . S
N1364 S1363 1.613 . S
N1364 C1367 1.350 . S
N1365 S1363 1.610 . S
N1365 C1366 1.351 . S
C1366 C1360 1.428 1_565 S
C1366 N1365 1.351 . S
C1366 C1367 1.434 . S
C1367 C1358 1.429 1_565 S
C1367 N1364 1.350 . S
C1367 C1366 1.434 . S
C577 C4 1.538 . S
C579 C421 1.572 . S
C588 C26 1.572 . S
C590 C446 1.547 . S
C601 C457 1.527 . S
C599 C32 1.507 . S
C610 C40 1.519 . S
C612 C482 1.502 . S
C621 C12 1.554 . S
C623 C500 1.536 . S
C632 C18 1.524 . S
C634 C511 1.543 . S
C643 C46 1.540 . S
C645 C493 1.571 1_455 S
C656 C518 1.528 . S
C654 C68 1.552 . S
C667 C475 1.515 1_565 S
C665 C74 1.509 . S
C676 C82 1.515 . S
C678 C464 1.513 1_545 S
C689 C428 1.545 1_655 S
C687 C54 1.558 . S
C698 C60 1.511 . S
C700 C439 1.535 . S
C709 C88 1.577 . S
C711 C529 1.595 . S
C720 C110 1.594 . S
C722 C554 1.559 . S
C733 C565 1.564 . S
C731 C116 1.544 . S
C742 C124 1.535 . S
C744 C266 1.513 . S
C753 C96 1.570 . S
C755 C284 1.546 . S
C764 C102 1.528 . S
C766 C295 1.555 . S
C775 C130 1.542 . S
C777 C277 1.570 . S
C786 C152 1.572 . S
C788 C302 1.553 . S
C799 C259 1.558 . S
C797 C158 1.519 . S
C810 C572 1.517 . S
C808 C166 1.529 . S
C821 C536 1.527 . S
C819 C138 1.549 . S
C832 C547 1.559 . S
C830 C144 1.524 . S
C841 C172 1.564 . S
C843 C313 1.584 . S
C852 C194 1.594 . S
C854 C338 1.565 . S
C863 C200 1.542 . S
C865 C349 1.566 . S
C874 C208 1.547 . S
C876 C374 1.526 . S
C887 C392 1.548 . S
C885 C180 1.568 . S
C898 C403 1.566 . S
C896 C186 1.535 . S
C909 C385 1.591 . S
C907 C214 1.563 . S
C920 C410 1.541 . S
C918 C236 1.566 . S
C929 C242 1.510 . S
C931 C367 1.549 . S
C942 C356 1.499 . S
C940 C250 1.510 . S
C951 C222 1.556 . S
C953 C320 1.540 . S
C964 C331 1.547 . S
C962 C228 1.523 . S
C975 C268 1.379 . S
C973 C5 1.215 . S
C984 C25 1.394 . S
C986 C286 1.327 . S
C997 C296 1.376 . S
C995 C33 1.237 . S
C1008 C314 1.325 . S
C1006 C39 1.369 . S
C1019 C340 1.341 . S
C1017 C11 1.401 . S
C1030 C350 1.338 . S
C1028 C19 1.156 1_556 S
C1039 C47 1.253 1_556 S
C1041 C358 1.394 . S
C1050 C67 1.446 . S
C1052 C322 1.326 . S
C1061 C75 1.273 1_556 S
C1063 C332 1.408 . S
C1072 C81 1.430 . S
C1074 C278 1.360 . S
C1085 C304 1.349 . S
C1083 C53 1.453 . S
C1094 C61 1.208 . S
C1096 C260 1.365 . S
C1107 C376 1.359 . S
C1105 C89 1.196 . S
C1116 C109 1.419 . S
C1118 C394 1.347 . S
C1127 C117 1.225 . S
C1129 C404 1.358 . S
C1140 C422 1.291 . S
C1138 C123 1.333 . S
C1149 C95 1.389 . S
C1151 C448 1.325 . S
C1160 C103 1.184 . S
C1162 C458 1.297 . S
C1171 C131 1.180 . S
C1173 C466 1.324 . S
C1182 C151 1.394 . S
C1184 C430 1.288 . S
C1195 C440 1.371 . S
C1193 C159 1.231 . S
C1204 C165 1.423 . S
C1206 C386 1.339 . S
C1215 C137 1.467 . S
C1217 C412 1.351 . S
C1228 C368 1.391 . S
C1226 C145 1.217 . S
C1239 C484 1.312 . S
C1237 C173 1.182 . S
C1248 C193 1.344 . S
C1250 C502 1.287 . S
C1259 C201 1.195 . S
C1261 C512 1.336 . S
C1272 C530 1.303 . S
C1270 C207 1.367 . S
C1283 C556 1.352 . S
C1281 C179 1.421 . S
C1292 C187 1.209 . S
C1294 C566 1.357 . S
C1303 C215 1.235 . S
C1305 C574 1.372 . S
C1314 C235 1.473 . S
C1316 C538 1.362 . S
C1327 C548 1.397 . S
C1325 C243 1.230 . S
C1338 C494 1.275 1_655 S
C1336 C249 1.345 . S
C1349 C520 1.331 . S
C1347 C221 1.439 . S
C1358 C229 1.178 . S
C1360 C476 1.329 1_545 S
