# Generated by pormake.
# Topology ftw, (4,12)-cn, num edge types: 1
# Building blocks:
#     Node 0, Type 0, BuildingBlock: MIFKUJ_clean_linker_1, # of connection points: 4
#     Node 1, Type 0, BuildingBlock: MIFKUJ_clean_linker_1, # of connection points: 4
#     Node 2, Type 0, BuildingBlock: MIFKUJ_clean_linker_1, # of connection points: 4
#     Node 3, Type 1, BuildingBlock: QEWDON_clean_sbu_0, # of connection points: 12
#     Edge 4, Type (0, 1), BuildingBlock: OJICUG_clean_linker_0, # of connection points: 2
#     Edge 5, Type (0, 1), BuildingBlock: OJICUG_clean_linker_0, # of connection points: 2
#     Edge 6, Type (0, 1), BuildingBlock: OJICUG_clean_linker_0, # of connection points: 2
#     Edge 7, Type (0, 1), BuildingBlock: OJICUG_clean_linker_0, # of connection points: 2
#     Edge 8, Type (0, 1), BuildingBlock: OJICUG_clean_linker_0, # of connection points: 2
#     Edge 9, Type (0, 1), BuildingBlock: OJICUG_clean_linker_0, # of connection points: 2
#     Edge 10, Type (0, 1), BuildingBlock: OJICUG_clean_linker_0, # of connection points: 2
#     Edge 11, Type (0, 1), BuildingBlock: OJICUG_clean_linker_0, # of connection points: 2
#     Edge 12, Type (0, 1), BuildingBlock: OJICUG_clean_linker_0, # of connection points: 2
#     Edge 13, Type (0, 1), BuildingBlock: OJICUG_clean_linker_0, # of connection points: 2
#     Edge 14, Type (0, 1), BuildingBlock: OJICUG_clean_linker_0, # of connection points: 2
#     Edge 15, Type (0, 1), BuildingBlock: OJICUG_clean_linker_0, # of connection points: 2
# Relax obj value: 0.072
# Max RMSD: 0.190
# Mean RMSD: 0.143
data_MOF--net-ftw--node1-QEWDON_clean_sbu_0--node2-MIFKUJ_clean_linker_1--edge1-OJICUG_clean_linker_0
_symmetry_space_group_name_H-M    P1
_symmetry_Int_Tables_number       1
_symmetry_cell_setting            triclinic
loop_
_symmetry_equiv_pos_as_xyz
'x, y, z'
_cell_length_a     22.375595
_cell_length_b     24.472636
_cell_length_c     22.629456
_cell_angle_alpha  90.431474
_cell_angle_beta   89.984978
_cell_angle_gamma 89.999425
loop_
_atom_site_label
_atom_site_type_symbol
_atom_site_fract_x
_atom_site_fract_y
_atom_site_fract_z
_atom_type_partial_charge
H0 H 0.07472 0.56644 0.62701 0.0
H1 H 0.07666 0.64111 0.69919 0.0
H2 H 0.89538 0.68353 0.65273 0.0
H3 H 0.89391 0.60847 0.57983 0.0
H4 H -0.00855 0.4807 0.6366 0.0
H5 H 0.05053 0.61929 0.50321 0.0
H6 H 0.05391 0.69873 0.43944 0.0
H7 H 0.89634 0.64095 0.3478 0.0
H8 H 0.89055 0.56369 0.41492 0.0
H9 H 0.87901 0.40225 0.4259 0.0
H10 H 0.87287 0.32452 0.3582 0.0
H11 H 0.04785 0.27102 0.41374 0.0
H12 H 0.05377 0.34974 0.48206 0.0
H13 H 0.96135 0.48377 0.41996 0.0
H14 H 0.89477 0.35174 0.56049 0.0
H15 H 0.88589 0.27718 0.63121 0.0
H16 H 0.05469 0.32418 0.70914 0.0
H17 H 0.0643 0.39726 0.63699 0.0
C18 C -0.0157 0.582 0.5979 0.0
C19 C 0.03576 0.59243 0.63155 0.0
C20 C 0.03685 0.63528 0.67265 0.0
C21 C -0.01387 0.66822 0.68175 0.0
C22 C 0.93502 0.65866 0.6469 0.0
C23 C 0.93427 0.61611 0.605 0.0
C24 C -0.01878 0.53192 0.56051 0.0
C25 C -0.01412 0.48125 0.58897 0.0
C26 C -0.02824 0.53318 0.49867 0.0
C27 C -0.02993 0.58517 0.46445 0.0
C28 C 0.01539 0.62451 0.47087 0.0
C29 C 0.01793 0.66965 0.43335 0.0
C30 C -0.02395 0.6761 0.38739 0.0
C31 C 0.92924 0.63789 0.38267 0.0
C32 C 0.92621 0.59316 0.42083 0.0
C33 C 0.96663 0.3818 0.45939 0.0
C34 C 0.9159 0.3736 0.42404 0.0
C35 C 0.91243 0.32896 0.3854 0.0
C36 C 0.95988 0.2914 0.38054 0.0
C37 C 0.01074 0.29935 0.4162 0.0
C38 C 0.01388 0.34397 0.45563 0.0
C39 C -0.02857 0.4324 0.49611 0.0
C40 C 0.96704 0.48322 0.46755 0.0
C41 C -0.0193 0.43142 0.55797 0.0
C42 C -0.01963 0.38016 0.59307 0.0
C43 C 0.93082 0.34494 0.59151 0.0
C44 C 0.92535 0.30277 0.63269 0.0
C45 C 0.96915 0.29504 0.67657 0.0
C46 C 0.02025 0.32854 0.67591 0.0
C47 C 0.02571 0.37059 0.63471 0.0
H48 H 0.36463 0.06749 0.44112 0.0
H49 H 0.28459 0.05988 0.36853 0.0
H50 H 0.34374 0.89691 0.32286 0.0
H51 H 0.42483 0.90516 0.39595 0.0
H52 H 0.36099 -0.01207 0.53262 0.0
H53 H 0.5285 0.07642 0.40861 0.0
H54 H 0.59919 0.07958 0.32534 0.0
H55 H 0.62488 0.90507 0.33939 0.0
H56 H 0.55446 0.9025 0.4216 0.0
H57 H 0.59639 0.91902 0.60418 0.0
H58 H 0.66792 0.92057 0.68372 0.0
H59 H 0.56962 0.05207 0.76822 0.0
H60 H 0.50174 0.05442 0.68381 0.0
H61 H 0.58193 -0.0118 0.52688 0.0
H62 H 0.44466 0.926 0.68594 0.0
H63 H 0.37717 0.9311 0.77103 0.0
H64 H 0.28284 0.06434 0.68749 0.0
H65 H 0.35359 0.06282 0.60739 0.0
C66 C 0.40084 -0.0129 0.42358 0.0
C67 C 0.36144 0.03069 0.41436 0.0
C68 C 0.3152 0.02591 0.37345 0.0
C69 C 0.30698 0.97722 0.34104 0.0
C70 C 0.34886 0.93478 0.34739 0.0
C71 C 0.39541 0.93962 0.3887 0.0
C72 C 0.43861 -0.01232 0.47719 0.0
C73 C 0.40951 -0.01148 0.53191 0.0
C74 C 0.50137 -0.01198 0.47568 0.0
C75 C 0.53553 -0.01099 0.42006 0.0
C76 C 0.5484 0.03881 0.39246 0.0
C77 C 0.58919 0.04064 0.34551 0.0
C78 C 0.61731 -0.00744 0.32546 0.0
C79 C 0.60312 0.94269 0.35282 0.0
C80 C 0.56284 0.94102 0.39978 0.0
C81 C 0.54295 0.9862 0.63783 0.0
C82 C 0.59012 0.94844 0.63967 0.0
C83 C 0.63086 0.94888 0.68614 0.0
C84 C 0.6247 0.98589 0.7337 0.0
C85 C 0.57663 0.02322 0.73243 0.0
C86 C 0.53673 0.02389 0.68459 0.0
C87 C 0.50455 -0.01186 0.58413 0.0
C88 C 0.53347 -0.0122 0.52882 0.0
C89 C 0.44114 -0.01007 0.58557 0.0
C90 C 0.40496 -0.00546 0.6405 0.0
C91 C 0.41062 0.95743 0.68721 0.0
C92 C 0.37107 0.95976 0.73536 0.0
C93 C 0.32422 -0.0016 0.73694 0.0
C94 C 0.31903 0.03511 0.68965 0.0
C95 C 0.35934 0.03385 0.64294 0.0
H96 H 0.59748 0.54357 0.93118 0.0
H97 H 0.68385 0.60504 0.93199 0.0
H98 H 0.62984 0.6668 0.10334 0.0
H99 H 0.54507 0.60412 0.10316 0.0
H100 H 0.57435 0.4618 1.00696 0.0
H101 H 0.47552 0.62987 0.95022 0.0
H102 H 0.43408 0.72242 0.95442 0.0
H103 H 0.3506 0.6848 0.12169 0.0
H104 H 0.39417 0.59404 0.11839 0.0
H105 H 0.34502 0.44461 0.12019 0.0
H106 H 0.25903 0.38372 0.12839 0.0
H107 H 0.30684 0.3077 0.96188 0.0
H108 H 0.39147 0.37025 0.9528 0.0
H109 H 0.36473 0.51962 0.04032 0.0
H110 H 0.46173 0.35708 0.10389 0.0
H111 H 0.50083 0.26398 0.10745 0.0
H112 H 0.59044 0.28978 0.94058 0.0
H113 H 0.54844 0.3812 0.93576 0.0
C114 C 0.56475 0.56967 1.01688 0.0
C115 C 0.60438 0.57044 0.96883 0.0
C116 C 0.65344 0.60564 0.96924 0.0
C117 C 0.66377 0.64029 1.01794 0.0
C118 C 0.62357 0.63983 0.06568 0.0
C119 C 0.57467 0.60462 0.06527 0.0
C120 C 0.51488 0.53022 1.01802 0.0
C121 C 0.52824 0.47437 1.0131 0.0
C122 C 0.45536 0.54678 0.02846 0.0
C123 C 0.43758 0.60495 0.03385 0.0
C124 C 0.44975 0.64227 0.98857 0.0
C125 C 0.42573 0.69504 0.99087 0.0
C126 C 0.38873 0.71112 0.03825 0.0
C127 C 0.37962 0.67446 0.08498 0.0
C128 C 0.40383 0.62207 0.08279 0.0
C129 C 0.37457 0.41182 0.03596 0.0
C130 C 0.33682 0.41488 0.0854 0.0
C131 C 0.28799 0.37991 0.09022 0.0
C132 C 0.27604 0.3413 0.04559 0.0
C133 C 0.31439 0.33777 0.99645 0.0
C134 C 0.36315 0.37294 0.99156 0.0
C135 C 0.42418 0.45115 0.02991 0.0
C136 C 0.41076 0.50696 0.03371 0.0
C137 C 0.48375 0.43445 1.01972 0.0
C138 C 0.50194 0.37613 1.01937 0.0
C139 C 0.48821 0.34201 0.06717 0.0
C140 C 0.51107 0.2889 0.06943 0.0
C141 C 0.54891 0.26922 0.02441 0.0
C142 C 0.56055 0.30289 0.97555 0.0
C143 C 0.53723 0.35565 0.97306 0.0
Zn144 Zn 0.05097 0.0796 0.98629 0.0
Zn145 Zn 0.04087 0.08506 0.13035 0.0
O146 O 0.03142 0.03522 0.05897 0.0
H147 H 0.02904 -0.0041 0.05734 0.0
C148 C 0.93196 0.14775 0.8739 0.0
O149 O -0.02465 0.11677 0.89379 0.0
Zn150 Zn 0.89914 0.88572 0.12207 0.0
Zn151 Zn 0.89375 0.90983 0.98058 0.0
O152 O 0.92247 0.94103 0.06003 0.0
H153 H 0.92946 0.97938 0.06729 0.0
Zn154 Zn 0.85161 0.09896 0.97064 0.0
O155 O 0.90075 0.09199 0.0462 0.0
Zn156 Zn 0.84215 0.07869 0.11302 0.0
H157 H 0.94059 0.10678 0.05007 0.0
Zn158 Zn 0.07607 0.87746 0.97368 0.0
O159 O 0.02804 0.88031 0.0508 0.0
H160 H 0.04562 0.87833 1.01188 0.0
Zn161 Zn 0.08827 0.89194 0.11623 0.0
C162 C 0.00072 0.80912 0.88775 0.0
O163 O 0.96424 0.80077 0.93221 0.0
O164 O 0.07857 0.15659 1.00803 0.0
O165 O 0.084 0.15323 0.10609 0.0
O166 O 0.85606 0.83433 0.9876 0.0
O167 O 0.85939 0.82087 0.08433 0.0
O168 O 0.76325 0.11247 0.99112 0.0
O169 O 0.75876 0.10162 0.08866 0.0
C170 C 0.10859 -0.00103 0.18548 0.0
O171 O 0.16478 0.86227 0.9903 0.0
O172 O 0.17101 0.86926 0.0882 0.0
O173 O 0.84602 0.95147 0.91578 0.0
C174 C 0.0937 0.17753 0.05742 0.0
O175 O 0.10803 0.05011 0.92062 0.0
C176 C 0.81666 0.96672 0.16927 0.0
O177 O 0.88101 0.14625 0.89891 0.0
C178 C 0.84484 0.80532 0.03253 0.0
O179 O 0.04629 0.83947 0.89535 0.0
C180 C 0.92113 0.12975 0.19634 0.0
O181 O 0.09267 0.04861 0.19076 0.0
O182 O 0.08674 0.97061 0.14338 0.0
C183 C 0.73404 0.11322 0.03946 0.0
O184 O 0.83405 0.91743 0.17272 0.0
O185 O 0.84597 -0.00052 0.13687 0.0
C186 C 0.0116 0.83542 0.20072 0.0
O187 O 0.86628 0.12367 0.18345 0.0
O188 O 0.95943 0.10673 0.16265 0.0
C189 C 0.1949 0.85957 0.03792 0.0
O190 O 0.06505 0.84576 0.18522 0.0
O191 O 0.96838 0.85471 0.17055 0.0
C192 C 0.7986 0.97921 0.92382 0.0
O193 O 0.78113 -0.00911 0.97784 0.0
C194 C 0.14481 0.01051 0.92208 0.0
O195 O 0.14632 0.97851 0.96835 0.0
C196 C 0.901 0.21564 0.33416 0.0
C197 C 0.955 0.24455 0.33812 0.0
H198 H 0.84893 0.15664 0.28747 0.0
C199 C 0.00148 0.2309 0.2985 0.0
H200 H 0.86477 0.22415 0.36464 0.0
C201 C -0.00756 0.19148 0.25358 0.0
C202 C 0.93678 0.1652 0.24779 0.0
H203 H 0.04368 0.2525 0.30045 0.0
H204 H 0.0278 0.18351 0.22198 0.0
C205 C 0.89205 0.17671 0.2898 0.0
C206 C 0.70946 0.03267 0.27787 0.0
C207 C 0.66318 -0.00646 0.27793 0.0
H208 H 0.79527 0.05524 0.24251 0.0
C209 C 0.66433 0.95137 0.2356 0.0
H210 H 0.70991 0.06555 0.31017 0.0
C211 C 0.71289 0.94548 0.19766 0.0
C212 C 0.76115 0.98205 0.20033 0.0
H213 H 0.62879 0.92134 0.23356 0.0
H214 H 0.71397 0.91066 0.16779 0.0
C215 C 0.75822 0.02699 0.23912 0.0
C216 C 0.93478 0.74516 0.3147 0.0
C217 C -0.01595 0.71972 0.34199 0.0
H218 H 0.90442 0.80165 0.24887 0.0
C219 C 0.04183 0.73437 0.32337 0.0
H220 H 0.88959 0.7355 0.32817 0.0
C221 C 0.05022 0.77267 0.27873 0.0
C222 C 0.00115 0.79728 0.25061 0.0
H223 H 0.081 0.71507 0.34198 0.0
H224 H 0.09556 0.78203 0.26543 0.0
C225 C 0.94323 0.78339 0.26943 0.0
C226 C 0.19747 -0.01064 0.32457 0.0
C227 C 0.253 0.97097 0.30326 0.0
H228 H 0.10746 0.01118 0.30362 0.0
C229 C 0.25677 0.95127 0.24479 0.0
H230 H 0.19271 0.00352 0.3698 0.0
C231 C 0.20718 0.95488 0.20692 0.0
C232 C 0.15332 0.97786 0.22731 0.0
H233 H 0.29897 0.93678 0.22721 0.0
H234 H 0.21265 0.94435 0.16072 0.0
C235 C 0.14839 -0.00693 0.28695 0.0
C236 C 0.93837 0.71256 0.77067 0.0
C237 C -0.01397 0.70974 0.73019 0.0
H238 H 0.90553 0.74604 0.85232 0.0
C239 C 0.03598 0.74356 0.73939 0.0
H240 H 0.89942 0.68677 0.765 0.0
C241 C 0.03943 0.77762 0.78916 0.0
C242 C -0.00673 0.77828 0.8314 0.0
H243 H 0.07312 0.74276 0.70867 0.0
H244 H 0.0794 0.80191 0.79557 0.0
C245 C 0.94206 0.74628 0.8209 0.0
C246 C 0.26282 0.95341 0.81752 0.0
C247 C 0.28008 0.00071 0.7866 0.0
H248 H 0.20675 0.91929 0.88509 0.0
C249 C 0.25299 0.05074 0.80217 0.0
H250 H 0.28191 0.91396 0.80669 0.0
C251 C 0.20844 0.05316 0.84507 0.0
C252 C 0.19094 0.00606 0.87546 0.0
H253 H 0.26619 0.0886 0.7815 0.0
H254 H 0.1885 0.09246 0.85529 0.0
C255 C 0.21921 0.95622 0.86207 0.0
C256 C 0.00734 0.22446 0.7484 0.0
C257 C 0.95961 0.25516 0.72534 0.0
H258 H 0.03624 0.16649 0.81303 0.0
C259 C 0.9028 0.24947 0.75122 0.0
H260 H 0.0516 0.22747 0.72934 0.0
C261 C 0.89398 0.21453 0.79905 0.0
C262 C 0.94172 0.18419 0.82245 0.0
H263 H 0.86518 0.27311 0.7355 0.0
H264 H 0.84964 0.21167 0.81798 0.0
C265 C -0.00152 0.18932 0.79629 0.0
C266 C 0.68318 0.03298 0.81586 0.0
C267 C 0.66871 0.98516 0.78361 0.0
H268 H 0.73564 0.06872 0.88582 0.0
C269 C 0.69788 0.93616 0.79873 0.0
H270 H 0.66266 0.07176 0.80542 0.0
C271 C 0.74127 0.93528 0.84288 0.0
C272 C 0.75537 0.98282 0.87483 0.0
H273 H 0.68694 0.89789 0.7771 0.0
H274 H 0.76267 0.8968 0.85327 0.0
C275 C 0.72548 0.03158 0.86164 0.0
C276 C 0.18888 0.29245 1.0007 0.0
C277 C 0.2241 0.30435 0.05049 0.0
H278 H 0.11859 0.24382 0.96417 0.0
C279 C 0.2107 0.27923 0.1045 0.0
H280 H 0.19738 0.31218 0.95884 0.0
C281 C 0.16501 0.24068 0.10786 0.0
C282 C 0.13226 0.22626 0.05713 0.0
H283 H 0.23729 0.28744 0.14355 0.0
H284 H 0.15773 0.22006 0.14945 0.0
C285 C 0.14337 0.25376 1.00396 0.0
C286 C 0.32389 0.77573 0.98205 0.0
C287 C 0.35206 0.76168 0.03533 0.0
H288 H 0.25277 0.81913 0.94083 0.0
C289 C 0.33636 0.79029 0.08724 0.0
H290 H 0.33469 0.75472 0.94115 0.0
C291 C 0.28823 0.82668 0.08732 0.0
C292 C 0.25543 0.83542 0.03531 0.0
H293 H 0.35847 0.78165 0.1287 0.0
H294 H 0.27416 0.84472 0.12892 0.0
C295 C 0.27632 0.81253 0.98199 0.0
C296 C 0.59851 0.18561 0.98192 0.0
C297 C 0.58293 0.2175 0.03155 0.0
H298 H 0.65854 0.12619 0.94568 0.0
C299 C 0.60821 0.20455 0.08663 0.0
H300 H 0.5785 0.1933 0.93921 0.0
C301 C 0.65321 0.16523 0.09057 0.0
C302 C 0.67431 0.13881 0.03936 0.0
H303 H 0.59739 0.2281 0.12589 0.0
H304 H 0.67531 0.15969 0.13269 0.0
C305 C 0.64406 0.14683 0.98571 0.0
C306 C 0.73094 0.70802 0.96903 0.0
C307 C 0.71586 0.67739 1.01908 0.0
H308 H 0.7846 0.77212 0.93369 0.0
C309 C 0.74896 0.68446 0.07131 0.0
H310 H 0.70602 0.70353 0.92825 0.0
C311 C 0.79381 0.72384 0.07459 0.0
C312 C 0.80643 0.75683 0.02564 0.0
H313 H 0.73915 0.66046 0.11015 0.0
H314 H 0.81689 0.72985 0.11622 0.0
C315 C 0.77598 0.7473 0.97221 0.0
loop_
_geom_bond_atom_site_label_1
_geom_bond_atom_site_label_2
_geom_bond_distance
_geom_bond_site_symmetry_2
_ccdc_geom_bond_type
H0 C19 0.949 . S
H1 C20 0.950 . S
H2 C22 0.950 . S
H3 C23 0.950 . S
H4 C25 0.950 . S
H5 C28 0.950 . S
H6 C29 0.950 . S
H7 C31 0.951 . S
H8 C32 0.949 . S
H9 C34 0.949 . S
H10 C35 0.950 . S
H11 C37 0.950 . S
H12 C38 0.950 . S
H13 C40 0.950 . S
H14 C43 0.950 . S
H15 C44 0.950 . S
H16 C46 0.951 . S
H17 C47 0.949 . S
C18 C19 1.376 . S
C18 C23 1.386 1_455 S
C18 C24 1.483 . S
C19 H0 0.949 . S
C19 C18 1.376 . S
C19 C20 1.397 . S
C20 H1 0.950 . S
C20 C19 1.397 . S
C20 C21 1.391 . S
C21 C20 1.391 . S
C21 C22 1.405 1_455 S
C22 H2 0.950 . S
C22 C21 1.405 1_655 S
C22 C23 1.367 . S
C23 H3 0.950 . S
C23 C18 1.386 1_655 S
C23 C22 1.367 . S
C24 C18 1.483 . S
C24 C25 1.382 . S
C24 C26 1.403 1_455 S
C25 H4 0.950 . S
C25 C24 1.382 . S
C25 C41 1.411 . S
C26 C24 1.403 1_655 S
C26 C27 1.489 . S
C26 C40 1.411 . S
C27 C26 1.489 . S
C27 C28 1.383 1_655 S
C27 C32 1.382 . S
C28 H5 0.950 . S
C28 C27 1.383 1_455 S
C28 C29 1.395 . S
C29 H6 0.950 . S
C29 C28 1.395 . S
C29 C30 1.288 1_455 S
C30 C29 1.288 1_655 S
C30 C31 1.392 . S
C31 H7 0.951 . S
C31 C30 1.392 . S
C31 C32 1.392 . S
C32 H8 0.949 . S
C32 C27 1.382 . S
C32 C31 1.392 . S
C33 C34 1.376 . S
C33 C38 1.386 1_655 S
C33 C39 1.483 . S
C34 H9 0.949 . S
C34 C33 1.376 . S
C34 C35 1.397 . S
C35 H10 0.950 . S
C35 C34 1.397 . S
C35 C36 1.391 . S
C36 C35 1.391 . S
C36 C37 1.405 1_655 S
C37 H11 0.950 . S
C37 C36 1.405 1_455 S
C37 C38 1.367 . S
C38 H12 0.950 . S
C38 C33 1.386 1_455 S
C38 C37 1.367 . S
C39 C33 1.483 . S
C39 C40 1.382 . S
C39 C41 1.403 1_655 S
C40 H13 0.950 . S
C40 C26 1.411 . S
C40 C39 1.382 . S
C41 C25 1.411 . S
C41 C39 1.403 1_455 S
C41 C42 1.489 . S
C42 C41 1.489 . S
C42 C43 1.383 1_455 S
C42 C47 1.382 . S
C43 H14 0.950 . S
C43 C42 1.383 1_655 S
C43 C44 1.395 . S
C44 H15 0.950 . S
C44 C43 1.395 . S
C44 C45 1.288 1_655 S
C45 C44 1.288 1_455 S
C45 C46 1.392 . S
C46 H16 0.951 . S
C46 C45 1.392 . S
C46 C47 1.392 . S
C47 H17 0.949 . S
C47 C42 1.382 . S
C47 C46 1.392 . S
H48 C67 0.949 . S
H49 C68 0.950 . S
H50 C70 0.950 . S
H51 C71 0.950 . S
H52 C73 0.950 . S
H53 C76 0.950 . S
H54 C77 0.950 . S
H55 C79 0.951 . S
H56 C80 0.949 . S
H57 C82 0.949 . S
H58 C83 0.950 . S
H59 C85 0.950 . S
H60 C86 0.950 . S
H61 C88 0.950 . S
H62 C91 0.950 . S
H63 C92 0.950 . S
H64 C94 0.951 . S
H65 C95 0.949 . S
C66 C67 1.376 . S
C66 C71 1.386 1_545 S
C66 C72 1.483 . S
C67 H48 0.949 . S
C67 C66 1.376 . S
C67 C68 1.397 . S
C68 H49 0.950 . S
C68 C67 1.397 . S
C68 C69 1.391 . S
C69 C68 1.391 . S
C69 C70 1.405 1_545 S
C70 H50 0.950 . S
C70 C69 1.405 1_565 S
C70 C71 1.367 . S
C71 H51 0.950 . S
C71 C66 1.386 1_565 S
C71 C70 1.367 . S
C72 C66 1.483 . S
C72 C73 1.382 . S
C72 C74 1.403 1_545 S
C73 H52 0.950 . S
C73 C72 1.382 . S
C73 C89 1.411 . S
C74 C72 1.403 1_565 S
C74 C75 1.489 . S
C74 C88 1.411 . S
C75 C74 1.489 . S
C75 C76 1.383 1_565 S
C75 C80 1.382 . S
C76 H53 0.950 . S
C76 C75 1.383 1_545 S
C76 C77 1.395 . S
C77 H54 0.950 . S
C77 C76 1.395 . S
C77 C78 1.288 1_545 S
C78 C77 1.288 1_565 S
C78 C79 1.392 . S
C79 H55 0.951 . S
C79 C78 1.392 . S
C79 C80 1.392 . S
C80 H56 0.949 . S
C80 C75 1.382 . S
C80 C79 1.392 . S
C81 C82 1.376 . S
C81 C86 1.386 1_565 S
C81 C87 1.483 . S
C82 H57 0.949 . S
C82 C81 1.376 . S
C82 C83 1.397 . S
C83 H58 0.950 . S
C83 C82 1.397 . S
C83 C84 1.391 . S
C84 C83 1.391 . S
C84 C85 1.405 1_565 S
C85 H59 0.950 . S
C85 C84 1.405 1_545 S
C85 C86 1.367 . S
C86 H60 0.950 . S
C86 C81 1.386 1_545 S
C86 C85 1.367 . S
C87 C81 1.483 . S
C87 C88 1.382 . S
C87 C89 1.403 1_565 S
C88 H61 0.950 . S
C88 C74 1.411 . S
C88 C87 1.382 . S
C89 C73 1.411 . S
C89 C87 1.403 1_545 S
C89 C90 1.489 . S
C90 C89 1.489 . S
C90 C91 1.383 1_545 S
C90 C95 1.382 . S
C91 H62 0.950 . S
C91 C90 1.383 1_565 S
C91 C92 1.395 . S
C92 H63 0.950 . S
C92 C91 1.395 . S
C92 C93 1.288 1_565 S
C93 C92 1.288 1_545 S
C93 C94 1.392 . S
C94 H64 0.951 . S
C94 C93 1.392 . S
C94 C95 1.392 . S
C95 H65 0.949 . S
C95 C90 1.382 . S
C95 C94 1.392 . S
H96 C115 0.949 . S
H97 C116 0.950 . S
H98 C118 0.950 . S
H99 C119 0.950 . S
H100 C121 0.950 . S
H101 C124 0.950 . S
H102 C125 0.950 . S
H103 C127 0.951 . S
H104 C128 0.949 . S
H105 C130 0.949 . S
H106 C131 0.950 . S
H107 C133 0.950 . S
H108 C134 0.950 . S
H109 C136 0.950 . S
H110 C139 0.950 . S
H111 C140 0.950 . S
H112 C142 0.951 . S
H113 C143 0.949 . S
C114 C115 1.376 1_554 S
C114 C119 1.386 . S
C114 C120 1.483 . S
C115 H96 0.949 . S
C115 C114 1.376 1_556 S
C115 C116 1.397 . S
C116 H97 0.950 . S
C116 C115 1.397 . S
C116 C117 1.391 1_556 S
C117 C116 1.391 1_554 S
C117 C118 1.405 . S
C118 H98 0.950 . S
C118 C117 1.405 . S
C118 C119 1.367 . S
C119 H99 0.950 . S
C119 C114 1.386 . S
C119 C118 1.367 . S
C120 C114 1.483 . S
C120 C121 1.382 . S
C120 C122 1.403 . S
C121 H100 0.950 . S
C121 C120 1.382 . S
C121 C137 1.411 . S
C122 C120 1.403 . S
C122 C123 1.489 . S
C122 C136 1.411 . S
C123 C122 1.489 . S
C123 C124 1.383 1_554 S
C123 C128 1.382 . S
C124 H101 0.950 . S
C124 C123 1.383 1_556 S
C124 C125 1.395 . S
C125 H102 0.950 . S
C125 C124 1.395 . S
C125 C126 1.288 1_556 S
C126 C125 1.288 1_554 S
C126 C127 1.392 . S
C127 H103 0.951 . S
C127 C126 1.392 . S
C127 C128 1.392 . S
C128 H104 0.949 . S
C128 C123 1.382 . S
C128 C127 1.392 . S
C129 C130 1.376 . S
C129 C134 1.386 1_554 S
C129 C135 1.483 . S
C130 H105 0.949 . S
C130 C129 1.376 . S
C130 C131 1.397 . S
C131 H106 0.950 . S
C131 C130 1.397 . S
C131 C132 1.391 . S
C132 C131 1.391 . S
C132 C133 1.405 1_554 S
C133 H107 0.950 . S
C133 C132 1.405 1_556 S
C133 C134 1.367 . S
C134 H108 0.950 . S
C134 C129 1.386 1_556 S
C134 C133 1.367 . S
C135 C129 1.483 . S
C135 C136 1.382 . S
C135 C137 1.403 . S
C136 H109 0.950 . S
C136 C122 1.411 . S
C136 C135 1.382 . S
C137 C121 1.411 . S
C137 C135 1.403 . S
C137 C138 1.489 . S
C138 C137 1.489 . S
C138 C139 1.383 . S
C138 C143 1.382 1_554 S
C139 H110 0.950 . S
C139 C138 1.383 . S
C139 C140 1.395 . S
C140 H111 0.950 . S
C140 C139 1.395 . S
C140 C141 1.288 . S
C141 C140 1.288 . S
C141 C142 1.392 1_554 S
C142 H112 0.951 . S
C142 C141 1.392 1_556 S
C142 C143 1.392 . S
C143 H113 0.949 . S
C143 C138 1.382 1_556 S
C143 C142 1.392 . S
Zn144 O146 1.933 1_556 S
Zn144 O164 1.985 . S
Zn144 O175 1.955 . S
Zn145 O146 1.911 . S
Zn145 O165 1.970 . S
Zn145 O181 1.945 . S
Zn145 O188 1.981 . S
O146 Zn144 1.933 1_554 S
O146 Zn145 1.911 . S
O146 H147 0.841 . S
H147 O146 0.841 . S
C148 O149 1.246 . S
C148 O177 1.276 1_455 S
O149 C148 1.246 . S
Zn150 O152 1.911 . S
Zn150 O167 1.970 . S
Zn150 O184 1.945 . S
Zn150 O191 1.981 . S
Zn151 O152 1.933 1_556 S
Zn151 O166 1.985 . S
Zn151 O173 1.955 . S
O152 Zn150 1.911 . S
O152 Zn151 1.933 1_554 S
O152 H153 0.841 . S
H153 O152 0.841 . S
Zn154 O155 1.933 1_556 S
Zn154 O168 1.985 . S
Zn154 O177 1.955 . S
O155 Zn154 1.933 1_554 S
O155 Zn156 1.911 . S
O155 H157 0.841 . S
Zn156 O155 1.911 . S
Zn156 O169 1.970 . S
Zn156 O185 1.981 . S
Zn156 O187 1.945 . S
H157 O155 0.841 . S
Zn158 O159 1.933 1_556 S
Zn158 O171 1.985 . S
Zn158 O179 1.955 . S
O159 Zn158 1.933 1_554 S
O159 H160 0.841 . S
O159 Zn161 1.911 . S
H160 O159 0.841 . S
Zn161 O159 1.911 . S
Zn161 O172 1.970 . S
Zn161 O182 1.981 . S
Zn161 O190 1.945 . S
C162 O163 1.246 . S
C162 O179 1.276 1_655 S
O163 C162 1.246 . S
O164 Zn144 1.985 . S
O164 C174 1.245 1_556 S
O165 Zn145 1.970 . S
O165 C174 1.263 . S
O166 Zn151 1.985 . S
O166 C178 1.245 1_556 S
O167 Zn150 1.970 . S
O167 C178 1.263 . S
O168 Zn154 1.985 . S
O168 C183 1.245 1_556 S
O169 Zn156 1.970 . S
O169 C183 1.263 . S
C170 O181 1.270 . S
C170 O182 1.241 1_545 S
O171 Zn158 1.985 . S
O171 C189 1.245 1_556 S
O172 Zn161 1.970 . S
O172 C189 1.263 . S
O173 Zn151 1.955 . S
O173 C192 1.276 1_565 S
C174 O164 1.245 1_554 S
C174 O165 1.263 . S
O175 Zn144 1.955 . S
O175 C194 1.276 1_545 S
C176 O184 1.258 1_545 S
C176 O185 1.247 . S
O177 C148 1.276 1_655 S
O177 Zn154 1.955 . S
C178 O166 1.245 1_554 S
C178 O167 1.263 . S
O179 Zn158 1.955 . S
O179 C162 1.276 1_455 S
C180 O187 1.262 1_455 S
C180 O188 1.245 . S
O181 Zn145 1.945 . S
O181 C170 1.270 . S
O182 Zn161 1.981 . S
O182 C170 1.241 1_565 S
C183 O168 1.245 1_554 S
C183 O169 1.263 . S
O184 Zn150 1.945 . S
O184 C176 1.258 1_565 S
O185 Zn156 1.981 . S
O185 C176 1.247 . S
C186 O190 1.263 . S
C186 O191 1.244 1_455 S
O187 Zn156 1.945 . S
O187 C180 1.262 1_655 S
O188 Zn145 1.981 . S
O188 C180 1.245 . S
C189 O171 1.245 1_554 S
C189 O172 1.263 . S
O190 Zn161 1.945 . S
O190 C186 1.263 . S
O191 Zn150 1.981 . S
O191 C186 1.244 1_655 S
C192 O173 1.276 1_545 S
C192 O193 1.246 . S
O193 C192 1.246 . S
C194 O175 1.276 1_565 S
C194 O195 1.246 . S
O195 C194 1.246 . S
C196 C197 1.387 1_655 S
C196 H200 0.950 . S
C196 C205 1.390 . S
C197 C196 1.387 1_455 S
C197 C199 1.387 . S
H198 C205 0.950 . S
C199 C197 1.387 . S
C199 C201 1.390 . S
C199 H203 0.950 . S
H200 C196 0.950 . S
C201 C199 1.390 . S
C201 C202 1.387 . S
C201 H204 0.950 . S
C202 C201 1.387 . S
C202 C205 1.387 1_455 S
H203 C199 0.950 . S
H204 C201 0.950 . S
C205 C196 1.390 . S
C205 H198 0.950 . S
C205 C202 1.387 1_655 S
C206 C207 1.387 . S
C206 H210 0.950 . S
C206 C215 1.390 . S
C207 C206 1.387 . S
C207 C209 1.387 1_545 S
H208 C215 0.950 . S
C209 C207 1.387 1_565 S
C209 C211 1.390 . S
C209 H213 0.950 . S
H210 C206 0.950 . S
C211 C209 1.390 . S
C211 C212 1.387 1_565 S
C211 H214 0.950 . S
C212 C211 1.387 1_545 S
C212 C215 1.387 . S
H213 C209 0.950 . S
H214 C211 0.950 . S
C215 C206 1.390 . S
C215 H208 0.950 . S
C215 C212 1.387 . S
C216 C217 1.387 . S
C216 H220 0.950 . S
C216 C225 1.390 . S
C217 C216 1.387 . S
C217 C219 1.387 1_655 S
H218 C225 0.950 . S
C219 C217 1.387 1_455 S
C219 C221 1.390 . S
C219 H223 0.950 . S
H220 C216 0.950 . S
C221 C219 1.390 . S
C221 C222 1.387 1_455 S
C221 H224 0.950 . S
C222 C221 1.387 1_655 S
C222 C225 1.387 . S
H223 C219 0.950 . S
H224 C221 0.950 . S
C225 C216 1.390 . S
C225 H218 0.950 . S
C225 C222 1.387 . S
C226 C227 1.387 1_545 S
C226 H230 0.950 . S
C226 C235 1.390 . S
C227 C226 1.387 1_565 S
C227 C229 1.387 . S
H228 C235 0.950 . S
C229 C227 1.387 . S
C229 C231 1.390 . S
C229 H233 0.950 . S
H230 C226 0.950 . S
C231 C229 1.390 . S
C231 C232 1.387 . S
C231 H234 0.950 . S
C232 C231 1.387 . S
C232 C235 1.387 1_565 S
H233 C229 0.950 . S
H234 C231 0.950 . S
C235 C226 1.390 . S
C235 H228 0.950 . S
C235 C232 1.387 1_545 S
C236 C237 1.387 . S
C236 H240 0.950 . S
C236 C245 1.390 . S
C237 C236 1.387 . S
C237 C239 1.387 1_655 S
H238 C245 0.950 . S
C239 C237 1.387 1_455 S
C239 C241 1.390 . S
C239 H243 0.950 . S
H240 C236 0.950 . S
C241 C239 1.390 . S
C241 C242 1.387 1_455 S
C241 H244 0.950 . S
C242 C241 1.387 1_655 S
C242 C245 1.387 . S
H243 C239 0.950 . S
H244 C241 0.950 . S
C245 C236 1.390 . S
C245 H238 0.950 . S
C245 C242 1.387 . S
C246 C247 1.387 . S
C246 H250 0.950 . S
C246 C255 1.390 . S
C247 C246 1.387 . S
C247 C249 1.387 1_565 S
H248 C255 0.950 . S
C249 C247 1.387 1_545 S
C249 C251 1.390 . S
C249 H253 0.950 . S
H250 C246 0.950 . S
C251 C249 1.390 . S
C251 C252 1.387 1_545 S
C251 H254 0.950 . S
C252 C251 1.387 1_565 S
C252 C255 1.387 . S
H253 C249 0.950 . S
H254 C251 0.950 . S
C255 C246 1.390 . S
C255 H248 0.950 . S
C255 C252 1.387 . S
C256 C257 1.387 . S
C256 H260 0.950 . S
C256 C265 1.390 . S
C257 C256 1.387 . S
C257 C259 1.387 1_455 S
H258 C265 0.950 . S
C259 C257 1.387 1_655 S
C259 C261 1.390 . S
C259 H263 0.950 . S
H260 C256 0.950 . S
C261 C259 1.390 . S
C261 C262 1.387 1_655 S
C261 H264 0.950 . S
C262 C261 1.387 1_455 S
C262 C265 1.387 . S
H263 C259 0.950 . S
H264 C261 0.950 . S
C265 C256 1.390 . S
C265 H258 0.950 . S
C265 C262 1.387 . S
C266 C267 1.387 . S
C266 H270 0.950 . S
C266 C275 1.390 . S
C267 C266 1.387 . S
C267 C269 1.387 1_545 S
H268 C275 0.950 . S
C269 C267 1.387 1_565 S
C269 C271 1.390 . S
C269 H273 0.950 . S
H270 C266 0.950 . S
C271 C269 1.390 . S
C271 C272 1.387 1_565 S
C271 H274 0.950 . S
C272 C271 1.387 1_545 S
C272 C275 1.387 . S
H273 C269 0.950 . S
H274 C271 0.950 . S
C275 C266 1.390 . S
C275 H268 0.950 . S
C275 C272 1.387 . S
C276 C277 1.387 1_556 S
C276 H280 0.950 . S
C276 C285 1.390 . S
C277 C276 1.387 1_554 S
C277 C279 1.387 . S
H278 C285 0.950 . S
C279 C277 1.387 . S
C279 C281 1.390 . S
C279 H283 0.950 . S
H280 C276 0.950 . S
C281 C279 1.390 . S
C281 C282 1.387 . S
C281 H284 0.950 . S
C282 C281 1.387 . S
C282 C285 1.387 1_554 S
H283 C279 0.950 . S
H284 C281 0.950 . S
C285 C276 1.390 . S
C285 H278 0.950 . S
C285 C282 1.387 1_556 S
C286 C287 1.387 1_556 S
C286 H290 0.950 . S
C286 C295 1.390 . S
C287 C286 1.387 1_554 S
C287 C289 1.387 . S
H288 C295 0.950 . S
C289 C287 1.387 . S
C289 C291 1.390 . S
C289 H293 0.950 . S
H290 C286 0.950 . S
C291 C289 1.390 . S
C291 C292 1.387 . S
C291 H294 0.950 . S
C292 C291 1.387 . S
C292 C295 1.387 1_554 S
H293 C289 0.950 . S
H294 C291 0.950 . S
C295 C286 1.390 . S
C295 H288 0.950 . S
C295 C292 1.387 1_556 S
C296 C297 1.387 1_556 S
C296 H300 0.950 . S
C296 C305 1.390 . S
C297 C296 1.387 1_554 S
C297 C299 1.387 . S
H298 C305 0.950 . S
C299 C297 1.387 . S
C299 C301 1.390 . S
C299 H303 0.950 . S
H300 C296 0.950 . S
C301 C299 1.390 . S
C301 C302 1.387 . S
C301 H304 0.950 . S
C302 C301 1.387 . S
C302 C305 1.387 1_554 S
H303 C299 0.950 . S
H304 C301 0.950 . S
C305 C296 1.390 . S
C305 H298 0.950 . S
C305 C302 1.387 1_556 S
C306 C307 1.387 1_556 S
C306 H310 0.950 . S
C306 C315 1.390 . S
C307 C306 1.387 1_554 S
C307 C309 1.387 . S
H308 C315 0.950 . S
C309 C307 1.387 . S
C309 C311 1.390 . S
C309 H313 0.950 . S
H310 C306 0.950 . S
C311 C309 1.390 . S
C311 C312 1.387 . S
C311 H314 0.950 . S
C312 C311 1.387 . S
C312 C315 1.387 1_554 S
H313 C309 0.950 . S
H314 C311 0.950 . S
C315 C306 1.390 . S
C315 H308 0.950 . S
C315 C312 1.387 1_556 S
C202 C180 1.920 . S
C197 C36 1.987 1_455 S
C212 C176 1.395 . S
C207 C78 1.488 1_545 S
C222 C186 1.920 1_655 S
C217 C30 1.957 . S
C232 C170 1.390 1_565 S
C227 C69 1.500 1_565 S
C237 C21 2.090 1_655 S
C242 C162 1.993 . S
C252 C194 1.472 . S
C247 C93 1.595 1_565 S
C257 C45 2.060 . S
C262 C148 1.992 . S
C267 C84 1.613 1_545 S
C272 C192 1.475 . S
C277 C132 1.127 . S
C282 C174 1.091 . S
C287 C126 1.095 . S
C292 C189 1.067 . S
C302 C183 1.068 . S
C297 C141 1.095 . S
C312 C178 1.092 . S
C307 C117 1.128 . S
