# Generated by pormake.
# Topology pyr, (3,6)-cn, num edge types: 1
# Building blocks:
#     Node 0, Type 0, BuildingBlock: MIDCAF_clean_linker_0, # of connection points: 3
#     Node 1, Type 0, BuildingBlock: MIDCAF_clean_linker_0, # of connection points: 3
#     Node 2, Type 0, BuildingBlock: MIDCAF_clean_linker_0, # of connection points: 3
#     Node 3, Type 0, BuildingBlock: MIDCAF_clean_linker_0, # of connection points: 3
#     Node 4, Type 0, BuildingBlock: MIDCAF_clean_linker_0, # of connection points: 3
#     Node 5, Type 0, BuildingBlock: MIDCAF_clean_linker_0, # of connection points: 3
#     Node 6, Type 0, BuildingBlock: MIDCAF_clean_linker_0, # of connection points: 3
#     Node 7, Type 0, BuildingBlock: MIDCAF_clean_linker_0, # of connection points: 3
#     Node 8, Type 1, BuildingBlock: BETDAH_clean_sbu_0, # of connection points: 6
#     Node 9, Type 1, BuildingBlock: BETDAH_clean_sbu_0, # of connection points: 6
#     Node 10, Type 1, BuildingBlock: BETDAH_clean_sbu_0, # of connection points: 6
#     Node 11, Type 1, BuildingBlock: BETDAH_clean_sbu_0, # of connection points: 6
#     Edge 12, Type (0, 1), BuildingBlock: EZIPEK_clean_linker_0, # of connection points: 2
#     Edge 13, Type (0, 1), BuildingBlock: EZIPEK_clean_linker_0, # of connection points: 2
#     Edge 14, Type (0, 1), BuildingBlock: EZIPEK_clean_linker_0, # of connection points: 2
#     Edge 15, Type (0, 1), BuildingBlock: EZIPEK_clean_linker_0, # of connection points: 2
#     Edge 16, Type (0, 1), BuildingBlock: EZIPEK_clean_linker_0, # of connection points: 2
#     Edge 17, Type (0, 1), BuildingBlock: EZIPEK_clean_linker_0, # of connection points: 2
#     Edge 18, Type (0, 1), BuildingBlock: EZIPEK_clean_linker_0, # of connection points: 2
#     Edge 19, Type (0, 1), BuildingBlock: EZIPEK_clean_linker_0, # of connection points: 2
#     Edge 20, Type (0, 1), BuildingBlock: EZIPEK_clean_linker_0, # of connection points: 2
#     Edge 21, Type (0, 1), BuildingBlock: EZIPEK_clean_linker_0, # of connection points: 2
#     Edge 22, Type (0, 1), BuildingBlock: EZIPEK_clean_linker_0, # of connection points: 2
#     Edge 23, Type (0, 1), BuildingBlock: EZIPEK_clean_linker_0, # of connection points: 2
#     Edge 24, Type (0, 1), BuildingBlock: EZIPEK_clean_linker_0, # of connection points: 2
#     Edge 25, Type (0, 1), BuildingBlock: EZIPEK_clean_linker_0, # of connection points: 2
#     Edge 26, Type (0, 1), BuildingBlock: EZIPEK_clean_linker_0, # of connection points: 2
#     Edge 27, Type (0, 1), BuildingBlock: EZIPEK_clean_linker_0, # of connection points: 2
#     Edge 28, Type (0, 1), BuildingBlock: EZIPEK_clean_linker_0, # of connection points: 2
#     Edge 29, Type (0, 1), BuildingBlock: EZIPEK_clean_linker_0, # of connection points: 2
#     Edge 30, Type (0, 1), BuildingBlock: EZIPEK_clean_linker_0, # of connection points: 2
#     Edge 31, Type (0, 1), BuildingBlock: EZIPEK_clean_linker_0, # of connection points: 2
#     Edge 32, Type (0, 1), BuildingBlock: EZIPEK_clean_linker_0, # of connection points: 2
#     Edge 33, Type (0, 1), BuildingBlock: EZIPEK_clean_linker_0, # of connection points: 2
#     Edge 34, Type (0, 1), BuildingBlock: EZIPEK_clean_linker_0, # of connection points: 2
#     Edge 35, Type (0, 1), BuildingBlock: EZIPEK_clean_linker_0, # of connection points: 2
# Relax obj value: 0.135
# Max RMSD: 0.135
# Mean RMSD: 0.065
data_MOF--net-pyr--node1-BETDAH_clean_sbu_0--node2-MIDCAF_clean_linker_0--edge1-EZIPEK_clean_linker_0
_symmetry_space_group_name_H-M    P1
_symmetry_Int_Tables_number       1
_symmetry_cell_setting            triclinic
loop_
_symmetry_equiv_pos_as_xyz
'x, y, z'
_cell_length_a     36.267248
_cell_length_b     37.722836
_cell_length_c     33.84859
_cell_angle_alpha  90.318963
_cell_angle_beta   88.377419
_cell_angle_gamma 102.57576
loop_
_atom_site_label
_atom_site_type_symbol
_atom_site_fract_x
_atom_site_fract_y
_atom_site_fract_z
_atom_type_partial_charge
C0 C 0.29043 0.32139 0.38724 0.0
C1 C 0.27635 0.2844 0.39526 0.0
C2 C 0.29552 0.25872 0.37971 0.0
C3 C 0.32527 0.26926 0.35228 0.0
H4 H 0.42383 0.24994 0.28351 0.0
H5 H 0.45336 0.2027 0.25533 0.0
H6 H 0.42044 0.22733 0.13903 0.0
H7 H 0.39121 0.275 0.16672 0.0
H8 H 0.32357 0.32466 0.16452 0.0
H9 H 0.27499 0.35137 0.13471 0.0
H10 H 0.28731 0.43194 0.22696 0.0
H11 H 0.33537 0.4052 0.2572 0.0
H12 H 0.32743 0.36012 0.35012 0.0
H13 H 0.27625 0.34159 0.39955 0.0
H14 H 0.28535 0.23009 0.38612 0.0
H15 H 0.33709 0.24832 0.338 0.0
N16 N 0.37515 0.29108 0.28405 0.0
N17 N 0.3724 0.31729 0.22165 0.0
N18 N 0.3436 0.3384 0.2772 0.0
C19 C 0.38481 0.29309 0.24488 0.0
C20 C 0.35229 0.3405 0.23796 0.0
C21 C 0.35461 0.31373 0.30043 0.0
C22 C 0.40499 0.26625 0.22738 0.0
C23 C 0.42297 0.24549 0.25189 0.0
C24 C 0.43983 0.21843 0.23592 0.0
C25 C 0.43863 0.21129 0.19525 0.0
C26 C 0.42139 0.23233 0.17058 0.0
C27 C 0.40486 0.25967 0.18644 0.0
C28 C 0.33303 0.36273 0.21332 0.0
C29 C 0.31709 0.34898 0.17749 0.0
C30 C 0.28922 0.36409 0.16053 0.0
C31 C 0.27754 0.39344 0.17884 0.0
C32 C 0.29607 0.40934 0.21242 0.0
C33 C 0.3235 0.39404 0.2296 0.0
C34 C 0.33561 0.30554 0.3395 0.0
C35 C 0.31967 0.33189 0.35908 0.0
C36 C 0.16556 0.92757 0.64891 0.0
C37 C 0.14602 0.92313 0.61347 0.0
C38 C 0.1421 0.89037 0.59249 0.0
C39 C 0.15867 0.86277 0.60634 0.0
H40 H 0.25346 0.81724 0.56332 0.0
H41 H 0.30487 0.80203 0.52244 0.0
H42 H 0.32624 0.73105 0.61437 0.0
H43 H 0.2751 0.74548 0.65497 0.0
H44 H 0.2821 0.78598 0.74131 0.0
H45 H 0.31418 0.80443 0.80318 0.0
H46 H 0.23886 0.87621 0.82802 0.0
H47 H 0.20628 0.85786 0.76684 0.0
H48 H 0.19655 0.90431 0.69042 0.0
H49 H 0.16895 0.95275 0.66537 0.0
H50 H 0.12698 0.88656 0.56511 0.0
H51 H 0.15623 0.83801 0.58932 0.0
N52 N 0.21463 0.82048 0.62908 0.0
N53 N 0.24472 0.79775 0.68065 0.0
N54 N 0.20591 0.83842 0.6945 0.0
C55 C 0.23763 0.79904 0.64151 0.0
C56 C 0.22881 0.81719 0.70742 0.0
C57 C 0.19838 0.83995 0.65559 0.0
C58 C 0.2608 0.78311 0.61276 0.0
C59 C 0.26831 0.79747 0.57427 0.0
C60 C 0.29771 0.789 0.55091 0.0
C61 C 0.31969 0.76617 0.56594 0.0
C62 C 0.30975 0.74913 0.60259 0.0
C63 C 0.28056 0.75746 0.62578 0.0
C64 C 0.24212 0.82107 0.74856 0.0
C65 C 0.27161 0.80493 0.76039 0.0
C66 C 0.29 0.81536 0.79574 0.0
C67 C 0.2792 0.8421 0.81956 0.0
C68 C 0.2477 0.85574 0.80971 0.0
C69 C 0.22919 0.84523 0.77461 0.0
C70 C 0.17832 0.86734 0.64186 0.0
C71 C 0.18112 0.89978 0.66324 0.0
C72 C 0.64206 0.24739 0.93148 0.0
C73 C 0.60262 0.23518 0.93473 0.0
C74 C 0.57957 0.25779 0.9209 0.0
C75 C 0.59567 0.29226 0.90509 0.0
H76 H 0.59074 0.36902 0.8073 0.0
H77 H 0.56598 0.40013 0.75394 0.0
H78 H 0.65431 0.49527 0.77088 0.0
H79 H 0.67937 0.46468 0.82407 0.0
H80 H 0.73378 0.46888 0.89766 0.0
H81 H 0.79017 0.50034 0.93208 0.0
H82 H 0.80286 0.39863 0.98103 0.0
H83 H 0.74636 0.36693 0.94733 0.0
H84 H 0.68857 0.29108 0.91578 0.0
H85 H 0.66046 0.23045 0.94166 0.0
H86 H 0.54909 0.24902 0.92305 0.0
H87 H 0.57722 0.30936 0.89547 0.0
N88 N 0.63684 0.36041 0.8631 0.0
N89 N 0.68501 0.41274 0.87077 0.0
N90 N 0.68454 0.36095 0.90884 0.0
C91 C 0.65319 0.39529 0.85234 0.0
C92 C 0.70084 0.39585 0.89911 0.0
C93 C 0.65255 0.34305 0.89128 0.0
C94 C 0.63718 0.41417 0.82028 0.0
C95 C 0.60495 0.39658 0.79983 0.0
C96 C 0.59072 0.41431 0.76922 0.0
C97 C 0.60833 0.45002 0.75832 0.0
C98 C 0.6403 0.46771 0.7787 0.0
C99 C 0.65455 0.45007 0.80924 0.0
C100 C 0.73538 0.41525 0.91956 0.0
C101 C 0.7485 0.45311 0.91571 0.0
C102 C 0.78069 0.47121 0.93546 0.0
C103 C 0.80073 0.45184 0.95912 0.0
C104 C 0.7878 0.41412 0.963 0.0
C105 C 0.75544 0.39606 0.94363 0.0
C106 C 0.63512 0.30514 0.90369 0.0
C107 C 0.65808 0.28211 0.91671 0.0
C108 C 0.74369 0.6733 0.47636 0.0
C109 C 0.72326 0.63935 0.4639 0.0
C110 C 0.73836 0.62145 0.4329 0.0
C111 C 0.77302 0.63768 0.41422 0.0
H112 H 0.84568 0.62766 0.32003 0.0
H113 H 0.87113 0.59759 0.26481 0.0
H114 H 0.96957 0.68513 0.25778 0.0
H115 H 0.94437 0.71578 0.31328 0.0
H116 H 0.93336 0.79661 0.36496 0.0
H117 H 0.96064 0.85718 0.39196 0.0
H118 H 0.9018 0.8266 0.5031 0.0
H119 H 0.87408 0.76688 0.47648 0.0
H120 H 0.79285 0.7158 0.46836 0.0
H121 H 0.73263 0.68756 0.50024 0.0
H122 H 0.72309 0.59515 0.4229 0.0
H123 H 0.78372 0.62336 0.39019 0.0
N124 N 0.84433 0.67506 0.37459 0.0
N125 N 0.89594 0.72528 0.37005 0.0
N126 N 0.84898 0.72291 0.41977 0.0
C127 C 0.87737 0.69219 0.35617 0.0
C128 C 0.88184 0.74074 0.40209 0.0
C129 C 0.82987 0.69026 0.40638 0.0
C130 C 0.89288 0.67436 0.32156 0.0
C131 C 0.87275 0.6408 0.3069 0.0
C132 C 0.88724 0.62342 0.27515 0.0
C133 C 0.9223 0.63897 0.25709 0.0
C134 C 0.94246 0.67256 0.27124 0.0
C135 C 0.92794 0.69006 0.30305 0.0
C136 C 0.90129 0.77675 0.41836 0.0
C137 C 0.92649 0.80271 0.39523 0.0
C138 C 0.94203 0.83739 0.4106 0.0
C139 C 0.93321 0.84659 0.44961 0.0
C140 C 0.90896 0.82033 0.47295 0.0
C141 C 0.89307 0.78608 0.45753 0.0
C142 C 0.79338 0.67205 0.42636 0.0
C143 C 0.77823 0.68942 0.45793 0.0
C144 C 0.58794 0.87276 0.88534 0.0
C145 C 0.58377 0.87736 0.92617 0.0
C146 C 0.59443 0.85279 0.95216 0.0
C147 C 0.61041 0.82462 0.93751 0.0
H148 H 0.69224 0.76466 0.96755 0.0
H149 H 0.74187 0.74302 1.00191 0.0
H150 H 0.74702 0.66637 0.90814 0.0
H151 H 0.69763 0.68762 0.87372 0.0
H152 H 0.71641 0.73466 0.7892 0.0
H153 H 0.76912 0.76179 0.745 0.0
H154 H 0.72372 0.85765 0.73438 0.0
H155 H 0.67096 0.83109 0.77873 0.0
H156 H 0.6075 0.84238 0.83893 0.0
H157 H 0.57957 0.89138 0.86492 0.0
H158 H 0.59115 0.85593 0.98381 0.0
H159 H 0.61931 0.80669 0.95836 0.0
N160 N 0.64957 0.7707 0.90561 0.0
N161 N 0.68145 0.74972 0.85225 0.0
N162 N 0.6477 0.79478 0.84202 0.0
C163 C 0.67143 0.74822 0.89118 0.0
C164 C 0.66999 0.77294 0.82741 0.0
C165 C 0.63683 0.79353 0.88085 0.0
C166 C 0.69138 0.72812 0.9177 0.0
C167 C 0.70278 0.74214 0.9551 0.0
C168 C 0.73122 0.72995 0.97468 0.0
C169 C 0.7482 0.70342 0.95723 0.0
C170 C 0.73421 0.68691 0.92194 0.0
C171 C 0.70601 0.69911 0.90235 0.0
C172 C 0.69036 0.78138 0.78889 0.0
C173 C 0.71661 0.76086 0.77616 0.0
C174 C 0.74673 0.7762 0.75071 0.0
C175 C 0.75052 0.81191 0.73737 0.0
C176 C 0.72119 0.83007 0.74474 0.0
C177 C 0.69105 0.81479 0.77024 0.0
C178 C 0.616 0.82062 0.89656 0.0
C179 C 0.60389 0.84466 0.87064 0.0
C180 C 0.82533 0.22809 0.28154 0.0
C181 C 0.80096 0.24694 0.26363 0.0
C182 C 0.79904 0.28167 0.27708 0.0
C183 C 0.81862 0.29596 0.31054 0.0
H184 H 0.79593 0.35675 0.39642 0.0
H185 H 0.75787 0.39385 0.42967 0.0
H186 H 0.80984 0.38092 0.54013 0.0
H187 H 0.84782 0.34221 0.50712 0.0
H188 H 0.84334 0.2428 0.50613 0.0
H189 H 0.85893 0.19233 0.54267 0.0
H190 H 0.94152 0.18115 0.45188 0.0
H191 H 0.92479 0.23053 0.41427 0.0
H192 H 0.86147 0.22596 0.32977 0.0
H193 H 0.82702 0.20119 0.27137 0.0
H194 H 0.78026 0.29648 0.2635 0.0
H195 H 0.81458 0.32182 0.3218 0.0
N196 N 0.83942 0.31321 0.39025 0.0
N197 N 0.85813 0.29576 0.4515 0.0
N198 N 0.86717 0.26299 0.39414 0.0
C199 C 0.84287 0.31879 0.42973 0.0
C200 C 0.8708 0.26812 0.43371 0.0
C201 C 0.85145 0.28549 0.37213 0.0
C202 C 0.82461 0.34597 0.4492 0.0
C203 C 0.79986 0.36194 0.42769 0.0
C204 C 0.77796 0.38321 0.44664 0.0
C205 C 0.78061 0.38946 0.48737 0.0
C206 C 0.80715 0.37585 0.5087 0.0
C207 C 0.82876 0.35384 0.48978 0.0
C208 C 0.88314 0.24062 0.4576 0.0
C209 C 0.86511 0.22982 0.49422 0.0
C210 C 0.87374 0.20091 0.51494 0.0
C211 C 0.90139 0.18321 0.49993 0.0
C212 C 0.9201 0.19456 0.46383 0.0
C213 C 0.91067 0.22276 0.44254 0.0
C214 C 0.84008 0.2755 0.33115 0.0
C215 C 0.84491 0.24231 0.31499 0.0
C216 C 0.23107 0.63385 0.21932 0.0
C217 C 0.22198 0.6438 0.18146 0.0
C218 C 0.24658 0.67237 0.16162 0.0
C219 C 0.27946 0.69112 0.17949 0.0
H220 H 0.34386 0.79347 0.18309 0.0
H221 H 0.3733 0.85121 0.15197 0.0
H222 H 0.47314 0.85628 0.21956 0.0
H223 H 0.44382 0.79811 0.25136 0.0
H224 H 0.44604 0.71524 0.30173 0.0
H225 H 0.47268 0.68613 0.35549 0.0
H226 H 0.36025 0.63562 0.39733 0.0
H227 H 0.33357 0.66321 0.34262 0.0
H228 H 0.27051 0.64419 0.26636 0.0
H229 H 0.21232 0.61192 0.23514 0.0
H230 H 0.24002 0.6805 0.13246 0.0
H231 H 0.29763 0.71319 0.16332 0.0
N232 N 0.34132 0.73501 0.22143 0.0
N233 N 0.38883 0.74017 0.26808 0.0
N234 N 0.33859 0.68863 0.26785 0.0
C235 C 0.37362 0.75443 0.23704 0.0
C236 C 0.37128 0.70731 0.28381 0.0
C237 C 0.32365 0.70218 0.23631 0.0
C238 C 0.39149 0.79072 0.21974 0.0
C239 C 0.37203 0.80675 0.19174 0.0
C240 C 0.38869 0.84 0.17396 0.0
C241 C 0.42528 0.85817 0.18356 0.0
C242 C 0.44471 0.8428 0.21195 0.0
C243 C 0.42793 0.80948 0.23002 0.0
C244 C 0.38766 0.69146 0.31773 0.0
C245 C 0.42699 0.69799 0.32244 0.0
C246 C 0.44227 0.68131 0.35315 0.0
C247 C 0.41856 0.65848 0.38057 0.0
C248 C 0.37921 0.65283 0.37653 0.0
C249 C 0.36399 0.66866 0.34519 0.0
C250 C 0.28878 0.68148 0.21753 0.0
C251 C 0.26433 0.65233 0.23709 0.0
C252 C 0.14402 0.27454 0.67532 0.0
C253 C 0.10951 0.25442 0.6905 0.0
C254 C 0.09194 0.26849 0.72276 0.0
C255 C 0.10844 0.30252 0.73903 0.0
H256 H 0.10936 0.37715 0.83969 0.0
H257 H 0.08241 0.40625 0.89518 0.0
H258 H 0.14743 0.51071 0.8574 0.0
H259 H 0.1752 0.48189 0.80261 0.0
H260 H 0.2543 0.48057 0.74923 0.0
H261 H 0.31369 0.51073 0.71536 0.0
H262 H 0.3063 0.41874 0.63777 0.0
H263 H 0.24751 0.38846 0.67092 0.0
H264 H 0.18702 0.32292 0.67845 0.0
H265 H 0.15808 0.26425 0.65051 0.0
H266 H 0.06523 0.25337 0.73494 0.0
H267 H 0.09403 0.31283 0.76353 0.0
N268 N 0.14503 0.3755 0.76992 0.0
N269 N 0.19412 0.42789 0.76416 0.0
N270 N 0.193 0.37882 0.72126 0.0
C271 C 0.16163 0.4096 0.78271 0.0
C272 C 0.21008 0.41259 0.73343 0.0
C273 C 0.16064 0.35995 0.73895 0.0
C274 C 0.14457 0.42705 0.81644 0.0
C275 C 0.11799 0.40632 0.84313 0.0
C276 C 0.10257 0.42293 0.875 0.0
C277 C 0.11277 0.46078 0.88062 0.0
C278 C 0.1391 0.48152 0.8539 0.0
C279 C 0.15499 0.46489 0.82248 0.0
C280 C 0.24587 0.43194 0.71301 0.0
C281 C 0.26521 0.46676 0.7249 0.0
C282 C 0.29915 0.4841 0.70557 0.0
C283 C 0.31432 0.46698 0.67398 0.0
C284 C 0.29506 0.43246 0.66198 0.0
C285 C 0.26133 0.41518 0.68115 0.0
C286 C 0.14289 0.32308 0.72338 0.0
C287 C 0.16049 0.30829 0.69147 0.0
Ho288 Ho 0.0275 0.07121 0.52699 0.0
Ho289 Ho 1.0039 1.03345 0.60743 0.0
C290 C 0.04706 0.11794 0.609 0.0
C291 C 0.03788 0.11564 0.46834 0.0
C292 C 0.06731 0.14846 0.45975 0.0
C293 C 0.07696 0.17636 0.48789 0.0
C294 C 0.10885 0.20436 0.48163 0.0
C295 C 0.1317 0.20441 0.44751 0.0
C296 C 0.12112 0.17752 0.4187 0.0
C297 C 0.08911 0.14983 0.42472 0.0
C298 C 0.0795 1.03839 0.55816 0.0
C299 C 0.98792 0.98734 0.525 0.0
C300 C 0.99144 0.98813 0.66546 0.0
C301 C 0.95769 0.96051 0.67726 0.0
C302 C 0.96004 0.92391 0.67979 0.0
C303 C 0.92757 0.89699 0.68763 0.0
C304 C 0.89252 0.9065 0.69336 0.0
C305 C 0.89011 0.94297 0.69108 0.0
C306 C 0.9224 0.9698 0.68286 0.0
C307 C 0.95201 0.06617 0.57649 0.0
O308 O 0.0458 0.11763 0.56989 0.0
O309 O 0.03646 0.08762 0.63008 0.0
O310 O 0.04999 0.08539 0.46815 0.0
O311 O 1.01405 0.11748 0.49777 0.0
O312 O 0.07425 1.04109 0.52064 0.0
O313 O 0.05822 0.05527 0.57699 0.0
O314 O 0.99414 0.98687 0.56333 0.0
O315 O 0.99295 1.01814 0.50492 0.0
O316 O 0.98911 1.02214 0.66907 0.0
O317 O 1.00764 0.98165 0.63205 0.0
O318 O 0.95251 0.05816 0.6135 0.0
O319 O 0.97416 1.05019 0.55808 0.0
H320 H 0.06072 0.17594 0.51525 0.0
H321 H 0.11646 0.2252 0.5039 0.0
H322 H 0.13831 0.17743 0.39199 0.0
H323 H 0.08225 0.1286 0.40272 0.0
H324 H 0.9869 0.91615 0.67515 0.0
H325 H 0.92975 0.86887 0.68958 0.0
H326 H 0.86317 0.9506 0.69561 0.0
H327 H 0.91957 0.9977 0.68049 0.0
Ho328 Ho 0.55382 0.05193 0.07716 0.0
Ho329 Ho 0.47699 1.04233 1.04232 0.0
C330 C 0.49395 0.09778 0.1127 0.0
C331 C 0.62181 0.07285 0.10211 0.0
C332 C 0.64736 0.10507 0.11764 0.0
C333 C 0.63348 0.1334 0.13553 0.0
C334 C 0.65807 0.16123 0.15509 0.0
C335 C 0.69654 0.16063 0.15721 0.0
C336 C 0.71062 0.1334 0.13747 0.0
C337 C 0.68613 0.10579 0.11773 0.0
C338 C 0.50505 0.99005 0.10164 0.0
C339 C 0.53478 0.9951 1.00655 0.0
C340 C 0.40987 1.01854 1.01597 0.0
C341 C 0.39094 0.98789 0.99169 0.0
C342 C 0.39817 0.95297 0.99585 0.0
C343 C 0.38145 0.92485 0.9707 0.0
C344 C 0.35721 0.93141 0.94137 0.0
C345 C 0.34946 0.96606 0.93774 0.0
C346 C 0.36621 0.99411 0.96275 0.0
C347 C 0.52737 0.10295 1.01697 0.0
O348 O 0.52992 0.09628 0.10746 0.0
O349 O 0.46675 0.07551 0.09436 0.0
O350 O 0.5927 0.05856 0.12487 0.0
O351 O 0.6135 0.07347 0.06483 0.0
O352 O 0.54135 0.99449 0.09851 0.0
O353 O 0.49697 1.02069 0.09617 0.0
O354 O 0.50002 1.00038 1.00811 0.0
O355 O 0.56191 1.01449 1.02784 0.0
O356 O 0.43568 1.04291 0.9976 0.0
O357 O 0.42006 1.01077 1.05106 0.0
O358 O 0.49158 0.10094 1.02345 0.0
O359 O 0.53447 0.0719 1.02203 0.0
H360 H 0.60356 0.1332 0.13574 0.0
H361 H 0.64684 0.18205 0.17038 0.0
H362 H 0.74021 0.13255 0.13905 0.0
H363 H 0.69719 0.08406 0.10407 0.0
H364 H 0.41701 0.94757 1.01815 0.0
H365 H 0.38784 0.89826 0.97364 0.0
H366 H 0.33094 0.9715 0.91505 0.0
H367 H 0.36034 1.02085 0.95909 0.0
Ho368 Ho 0.51786 0.52222 0.54065 0.0
Ho369 Ho 0.51553 0.58998 0.59694 0.0
C370 C 0.55079 0.52599 0.6314 0.0
C371 C 0.54581 0.47666 0.49948 0.0
C372 C 0.58235 0.46682 0.50366 0.0
C373 C 0.61021 0.48896 0.52632 0.0
C374 C 0.64499 0.47975 0.53123 0.0
C375 C 0.65263 0.44879 0.5126 0.0
C376 C 0.62475 0.42663 0.48997 0.0
C377 C 0.58967 0.43554 0.48564 0.0
C378 C 0.45219 0.51985 0.581 0.0
C379 C 0.48301 0.58707 0.50675 0.0
C380 C 0.48895 0.6363 0.63792 0.0
C381 C 0.47752 0.66854 0.62302 0.0
C382 C 0.44436 0.67723 0.63831 0.0
C383 C 0.42702 0.70063 0.61756 0.0
C384 C 0.44264 0.71552 0.58133 0.0
C385 C 0.4772 0.70896 0.56732 0.0
C386 C 0.49451 0.68538 0.58801 0.0
C387 C 0.57937 0.60151 0.54922 0.0
O388 O 0.54914 0.51144 0.59535 0.0
O389 O 0.53783 0.55548 0.64008 0.0
O390 O 0.52142 0.46664 0.5288 0.0
O391 O 0.54808 0.51029 0.48833 0.0
O392 O 0.45464 0.50438 0.54679 0.0
O393 O 0.48506 0.53255 0.59336 0.0
O394 O 0.48489 0.60165 0.54263 0.0
O395 O 0.49605 0.55766 0.49794 0.0
O396 O 0.52522 0.63664 0.63577 0.0
O397 O 0.4678 0.60582 0.62545 0.0
O398 O 0.57303 0.62443 0.57595 0.0
O399 O 0.55152 0.57525 0.55097 0.0
H400 H 0.60506 0.51352 0.53994 0.0
H401 H 0.66617 0.49704 0.54884 0.0
H402 H 0.63026 0.40249 0.4756 0.0
H403 H 0.56842 0.41819 0.46816 0.0
H404 H 0.43054 0.66402 0.66479 0.0
H405 H 0.40032 0.70568 0.62872 0.0
H406 H 0.4896 0.72052 0.53954 0.0
H407 H 0.51982 0.67852 0.57535 0.0
Ho408 Ho 1.01078 0.51121 0.08668 0.0
Ho409 Ho 1.01353 0.58484 1.04897 0.0
C410 C 0.08389 0.57849 0.10065 0.0
C411 C 0.03046 0.45158 0.10421 0.0
C412 C 0.06608 0.44329 0.11713 0.0
C413 C 0.07755 0.41274 0.10159 0.0
C414 C 0.11258 0.40581 0.11103 0.0
C415 C 0.13655 0.42933 0.1362 0.0
C416 C 0.12519 0.4599 0.15185 0.0
C417 C 0.09021 0.46695 0.14224 0.0
C418 C 0.97554 0.55545 0.12982 0.0
C419 C 0.93958 0.51808 1.03769 0.0
C420 C 0.99535 0.64482 1.02976 0.0
C421 C 0.95937 0.65403 1.01955 0.0
C422 C 0.95146 0.68703 1.03253 0.0
C423 C 0.91672 0.69548 1.02463 0.0
C424 C 0.88946 0.67095 1.00372 0.0
C425 C 0.8972 0.63783 0.99094 0.0
C426 C 0.93191 0.62938 0.99883 0.0
C427 C 0.04824 0.54022 1.00515 0.0
O428 O 0.06843 0.54339 0.10376 0.0
O429 O 0.06729 0.60118 0.08189 0.0
O430 O 1.01252 0.46895 0.12918 0.0
O431 O 0.0317 0.46419 0.06819 0.0
O432 O 0.96468 0.52019 0.12932 0.0
O433 O 1.00623 0.56477 0.11003 0.0
O434 O 0.95397 0.5535 1.03715 0.0
O435 O 0.9575 0.49475 1.05316 0.0
O436 O 1.00953 0.62466 1.00448 0.0
O437 O 0.99722 0.63462 0.06635 0.0
O438 O 0.05917 0.57546 1.0058 0.0
O439 O 0.01797 0.53139 1.02569 0.0
H440 H 0.05957 0.39447 0.08178 0.0
H441 H 0.12097 0.38204 0.09886 0.0
H442 H 0.14343 0.47829 0.17134 0.0
H443 H 0.08223 0.49099 0.15415 0.0
H444 H 0.97212 0.70619 1.0489 0.0
H445 H 0.91115 0.7212 1.03457 0.0
H446 H 0.87647 0.61868 0.97463 0.0
H447 H 0.93723 0.60363 0.98875 0.0
C448 C 0.23542 0.25222 0.45057 0.0
C449 C 0.23851 0.27143 0.41437 0.0
C450 C 0.16959 0.257 0.40998 0.0
C451 C 0.16733 0.23196 0.44133 0.0
N452 N 0.19819 0.20394 0.49098 0.0
N453 N 0.20835 0.28873 0.35666 0.0
C454 C 0.20017 0.22948 0.46207 0.0
C455 C 0.20552 0.27355 0.39354 0.0
N456 N 0.26629 0.25561 0.47365 0.0
N457 N 0.13727 0.26449 0.39565 0.0
H458 H 0.23395 0.30018 0.34241 0.0
H459 H 0.18527 0.28707 0.33856 0.0
H460 H 0.11051 0.25262 0.40734 0.0
H461 H 0.13728 0.28503 0.3752 0.0
H462 H 0.26511 0.24485 0.50204 0.0
H463 H 0.2924 0.27223 0.46574 0.0
H464 H 0.22193 0.19805 0.50382 0.0
H465 H 0.17295 0.18679 0.5004 0.0
C466 C 0.29015 0.85321 0.89178 0.0
C467 C 0.30323 0.85951 0.85205 0.0
C468 C 0.35785 0.90489 0.87392 0.0
C469 C 0.34136 0.90295 0.91247 0.0
N470 N 0.29163 0.87629 0.95894 0.0
N471 N 0.34779 0.89361 0.80427 0.0
C472 C 0.30767 0.87701 0.92184 0.0
C473 C 0.33696 0.88558 0.84281 0.0
N474 N 0.26111 0.82438 0.90057 0.0
N475 N 0.39353 0.92527 0.86716 0.0
H476 H 0.33339 0.8803 0.78035 0.0
H477 H 0.36943 0.91544 0.79582 0.0
H478 H 0.4095 0.93992 0.88942 0.0
H479 H 0.40862 0.92492 0.84057 0.0
H480 H 0.25236 0.81624 0.92929 0.0
H481 H 0.24788 0.80658 0.87898 0.0
H482 H 0.26488 0.86097 0.96647 0.0
H483 H 0.30429 0.8927 0.98188 0.0
C484 C 0.61331 0.4752 0.68876 0.0
C485 C 0.59333 0.4691 0.72565 0.0
C486 C 0.5438 0.49719 0.69956 0.0
C487 C 0.56578 0.50686 0.66412 0.0
N488 N 0.62513 0.51069 0.62854 0.0
N489 N 0.54279 0.47996 0.76859 0.0
C490 C 0.60152 0.49728 0.65964 0.0
C491 C 0.55949 0.48174 0.73173 0.0
N492 N 0.64303 0.45908 0.68105 0.0
N493 N 0.50717 0.50099 0.70202 0.0
H494 H 0.55323 0.46873 0.79284 0.0
H495 H 0.5206 0.49249 0.77589 0.0
H496 H 0.49402 0.51139 0.6792 0.0
H497 H 0.48857 0.49049 0.7252 0.0
H498 H 0.65601 0.45911 0.65319 0.0
H499 H 0.65253 0.44281 0.70158 0.0
H500 H 0.65306 0.50794 0.62594 0.0
H501 H 0.6181 0.52773 0.6073 0.0
C502 C 0.92245 0.61899 0.18548 0.0
C503 C 0.93783 0.61955 0.22371 0.0
C504 C 0.98124 0.58188 0.19882 0.0
C505 C 0.96325 0.57839 0.16176 0.0
N506 N 0.91382 0.59013 0.12104 0.0
N507 N 0.9788 0.59809 0.26829 0.0
C508 C 0.93307 0.59606 0.15543 0.0
C509 C 0.96659 0.60023 0.2307 0.0
N510 N 0.89838 0.6412 0.17761 0.0
N511 N 1.0126 0.56789 0.2035 0.0
H512 H 0.96914 0.61136 0.29226 0.0
H513 H 0.99635 0.58106 0.27642 0.0
H514 H 0.02328 0.55302 0.1816 0.0
H515 H 0.02978 0.57325 0.2279 0.0
H516 H 0.88928 0.64518 0.14941 0.0
H517 H 0.88995 0.65819 0.19885 0.0
H518 H 0.88904 0.5989 0.11609 0.0
H519 H 0.92107 0.57398 0.09834 0.0
C520 C 0.48791 0.1914 0.15254 0.0
C521 C 0.45569 0.182 0.17806 0.0
C522 C 0.45538 0.11746 0.16806 0.0
C523 C 0.48347 0.12691 0.13762 0.0
N524 N 0.52123 0.17359 0.09588 0.0
N525 N 0.4055 0.13578 0.20677 0.0
C526 C 0.49873 0.1641 0.12877 0.0
C527 C 0.43861 0.1449 0.18519 0.0
N528 N 0.50831 0.22642 0.15109 0.0
N529 N 0.44536 0.08241 0.18122 0.0
H530 H 0.39209 0.155 0.21953 0.0
H531 H 0.3897 0.10925 0.20922 0.0
H532 H 0.45806 0.06198 0.17016 0.0
H533 H 0.42753 0.07449 0.20575 0.0
H534 H 0.53419 0.23403 0.13586 0.0
H535 H 0.50129 0.24713 0.16833 0.0
H536 H 0.53006 0.20025 0.08587 0.0
H537 H 0.52743 0.15448 0.07611 0.0
C538 C 0.1033 0.96628 0.62257 0.0
C539 C 0.13027 0.95349 0.59869 0.0
C540 C 0.1306 1.00231 0.551 0.0
C541 C 0.10323 1.01472 0.57526 0.0
N542 N 0.08228 1.01966 0.64311 0.0
N543 N 0.17693 0.96461 0.54534 0.0
C544 C 0.09505 1.00017 0.61381 0.0
C545 C 0.14599 0.97289 0.56416 0.0
N546 N 0.08507 0.94591 0.65344 0.0
N547 N 0.14305 1.01954 0.5162 0.0
H548 H 0.18953 0.94387 0.55462 0.0
H549 H 0.19212 0.98 0.52245 0.0
H550 H 0.1391 1.0454 0.50962 0.0
H551 H 0.15774 1.00847 0.49419 0.0
H552 H 0.06302 0.95315 0.66975 0.0
H553 H 0.08936 0.92017 0.66012 0.0
H554 H 0.07906 1.01106 0.67248 0.0
H555 H 0.08037 1.0464 0.63929 0.0
C556 C 0.86906 0.48546 0.95681 0.0
C557 C 0.83568 0.47085 0.97941 0.0
C558 C 0.8703 0.4876 1.04068 0.0
C559 C 0.90308 0.5039 1.01796 0.0
N560 N 0.93106 0.52553 0.95448 0.0
N561 N 0.8023 0.46444 1.04244 0.0
C562 C 0.90157 0.50523 0.97607 0.0
C563 C 0.83569 0.47372 1.0213 0.0
N564 N 0.87042 0.47882 0.91709 0.0
N565 N 0.87225 0.48537 0.08083 0.0
H566 H 0.77643 0.45467 1.02922 0.0
H567 H 0.79964 0.46934 0.07257 0.0
H568 H 0.89624 0.49742 0.09625 0.0
H569 H 0.85087 0.47 0.09867 0.0
H570 H 0.89523 0.48502 0.89987 0.0
H571 H 0.8475 0.46405 0.90184 0.0
H572 H 0.92966 0.53086 0.92447 0.0
H573 H 0.95593 0.53965 0.96694 0.0
C574 C 0.68425 0.61028 0.52265 0.0
C575 C 0.68573 0.62342 0.48332 0.0
C576 C 0.61629 0.61256 0.48441 0.0
C577 C 0.61532 0.60467 0.52547 0.0
N578 N 0.64873 0.59838 0.58473 0.0
N579 N 0.65348 0.63992 0.42726 0.0
C580 C 0.64942 0.60398 0.54483 0.0
C581 C 0.65177 0.62484 0.4641 0.0
N582 N 0.71614 0.60323 0.53852 0.0
N583 N 0.58327 0.60888 0.46487 0.0
H584 H 0.67875 0.64895 0.41127 0.0
H585 H 0.63024 0.64592 0.41356 0.0
H586 H 0.55701 0.60163 0.47915 0.0
H587 H 0.58182 0.61024 0.43426 0.0
H588 H 0.71627 0.59011 0.56549 0.0
H589 H 0.74197 0.60741 0.52292 0.0
H590 H 0.67296 0.60184 0.60137 0.0
H591 H 0.62375 0.59222 0.60178 0.0
C592 C 0.20882 0.38933 0.18997 0.0
C593 C 0.24193 0.40351 0.1672 0.0
C594 C 0.2068 0.43703 0.12577 0.0
C595 C 0.17308 0.42105 0.1473 0.0
N596 N 0.14045 0.38004 0.19764 0.0
N597 N 0.27332 0.43822 0.11187 0.0
C598 C 0.17363 0.3966 0.17891 0.0
C599 C 0.24122 0.42667 0.13458 0.0
N600 N 0.21257 0.36951 0.22261 0.0
N601 N 0.20588 0.46254 0.09747 0.0
H602 H 0.29911 0.43202 0.11859 0.0
H603 H 0.2742 0.45217 0.08532 0.0
H604 H 0.18099 0.46989 0.08947 0.0
H605 H 0.22982 0.47804 0.08339 0.0
H606 H 0.19107 0.35941 0.24328 0.0
H607 H 0.19107 0.35941 0.24328 0.0
H608 H 0.13783 0.35881 0.21769 0.0
H609 H 0.11449 0.38615 0.19153 0.0
C610 C 0.56241 0.17096 0.93306 0.0
C611 C 0.58564 0.19952 0.95442 0.0
C612 C 0.57955 0.1593 1.01225 0.0
C613 C 0.55145 0.13326 0.99333 0.0
N614 N 0.51528 0.11424 0.93536 0.0
N615 N 0.61079 0.22259 1.01715 0.0
C616 C 0.54268 0.13908 0.95354 0.0
C617 C 0.59303 0.19404 0.99469 0.0
N618 N 0.5603 0.17372 0.89298 0.0
N619 N 0.59341 0.15098 1.04719 0.0
H620 H 0.6196 0.24895 1.00622 0.0
H621 H 0.61322 0.22094 1.04765 0.0
H622 H 0.58327 0.12622 0.06125 0.0
H623 H 0.61682 0.16732 0.06023 0.0
H624 H 0.5469 0.15249 0.87515 0.0
H625 H 0.57496 0.19621 0.877 0.0
H626 H 0.50411 0.11895 0.90837 0.0
H627 H 0.50244 0.08938 0.94821 0.0
C628 C 0.98715 0.89586 0.47449 0.0
C629 C 0.94815 0.88386 0.46628 0.0
C630 C 0.93508 0.93807 0.49987 0.0
C631 C 0.97434 0.9519 0.50439 0.0
N632 N 0.03848 0.94589 0.49225 0.0
N633 N 0.88628 0.89753 0.46397 0.0
C634 C 1.0006 0.93138 0.49043 0.0
C635 C 0.92252 0.90623 0.47682 0.0
N636 N 1.01104 0.87269 0.46897 0.0
N637 N 0.90961 0.95429 0.51923 0.0
H638 H 0.87622 0.87489 0.44637 0.0
H639 H 0.86744 0.91467 0.46741 0.0
H640 H 0.91781 0.97645 0.53798 0.0
H641 H 0.88062 0.9434 0.52021 0.0
H642 H 0.03875 0.87823 0.47848 0.0
H643 H 1.00229 0.84649 0.45779 0.0
H644 H 0.05909 0.9342 0.47874 0.0
H645 H 0.04928 0.97111 0.50496 0.0
C646 C 0.35764 0.72836 0.53028 0.0
C647 C 0.35583 0.76236 0.54693 0.0
C648 C 0.42143 0.7723 0.56661 0.0
C649 C 0.42037 0.7355 0.5575 0.0
N650 N 0.39486 0.68258 0.51902 0.0
N651 N 0.38848 0.822 0.56633 0.0
C652 C 0.39109 0.71512 0.53457 0.0
C653 C 0.38904 0.78643 0.55943 0.0
N654 N 0.32621 0.70802 0.51348 0.0
N655 N 0.45226 0.79244 0.58468 0.0
H656 H 0.36466 0.83238 0.56116 0.0
H657 H 0.41203 0.84166 0.57401 0.0
H658 H 0.47657 0.78248 0.58883 0.0
H659 H 0.45379 0.81843 0.59589 0.0
H660 H 0.32383 0.68148 0.50361 0.0
H661 H 0.30206 0.71836 0.50967 0.0
H662 H 0.37542 0.66674 0.50056 0.0
H663 H 0.41923 0.6726 0.5226 0.0
C664 C 0.81335 0.8494 0.75511 0.0
C665 C 0.78834 0.83322 0.72522 0.0
C666 C 0.83298 0.86322 0.67381 0.0
C667 C 0.85821 0.87867 0.70374 0.0
N668 N 0.87631 0.88161 0.77186 0.0
N669 N 0.7758 0.81951 0.65679 0.0
C670 C 0.84962 0.8701 0.74409 0.0
C671 C 0.79865 0.8385 0.68467 0.0
N672 N 0.80178 0.84626 0.79404 0.0
N673 N 0.84152 0.87299 0.63522 0.0
H674 H 0.75024 0.80169 0.66406 0.0
H675 H 0.78316 0.81935 0.62687 0.0
H676 H 0.86712 0.88983 0.62617 0.0
H677 H 0.8227 0.866 0.61238 0.0
H678 H 0.81666 0.86124 0.81668 0.0
H679 H 0.77587 0.83056 0.80384 0.0
H680 H 0.87349 0.87271 0.80107 0.0
H681 H 0.90283 0.89795 0.76515 0.0
C682 C 0.77783 0.23328 0.1946 0.0
C683 C 0.77265 0.22757 0.23591 0.0
C684 C 0.71732 0.17864 0.22556 0.0
C685 C 0.72128 0.18539 0.18429 0.0
N686 N 0.75068 0.22269 0.12965 0.0
N687 N 0.73283 0.20128 0.29135 0.0
C688 C 0.75018 0.21389 0.16881 0.0
C689 C 0.74088 0.20228 0.25157 0.0
N690 N 0.80968 0.25636 0.18009 0.0
N691 N 0.69237 0.14858 0.23984 0.0
H692 H 0.74951 0.21804 0.3116 0.0
H693 H 0.70775 0.18626 0.30389 0.0
H694 H 0.67455 0.13024 0.22193 0.0
H695 H 0.69158 0.14001 0.26911 0.0
H696 H 0.81721 0.25883 0.15017 0.0
H697 H 0.83001 0.27148 0.19834 0.0
H698 H 0.76877 0.24534 0.11717 0.0
H699 H 0.73076 0.20888 0.11012 0.0
C700 C 0.45851 0.66111 0.44144 0.0
C701 C 0.43488 0.64015 0.41316 0.0
C702 C 0.43862 0.58478 0.44965 0.0
C703 C 0.46625 0.60533 0.47461 0.0
N704 N 0.509 0.66284 0.48706 0.0
N705 N 0.40962 0.58082 0.38578 0.0
C706 C 0.478 0.64349 0.46856 0.0
C707 C 0.42697 0.6016 0.41596 0.0
N708 N 0.46141 0.69779 0.44351 0.0
N709 N 0.42211 0.5496 0.4589 0.0
H710 H 0.40193 0.5919 0.35992 0.0
H711 H 0.40656 0.55272 0.38466 0.0
H712 H 0.42836 0.53676 0.48425 0.0
H713 H 0.39924 0.53459 0.4438 0.0
H714 H 0.47529 0.71376 0.4661 0.0
H715 H 0.44656 0.71159 0.42526 0.0
H716 H 0.52083 0.68998 0.48056 0.0
H717 H 0.52539 0.65098 0.50555 0.0
C718 C 0.05639 0.47778 0.91612 0.0
C719 C 0.09576 0.47891 0.91419 0.0
C720 C 0.1039 0.51988 0.9718 0.0
C721 C 0.06395 0.51632 0.97596 0.0
N722 N 1.00196 0.48276 0.95649 0.0
N723 N 0.15549 0.49391 0.94645 0.0
C724 C 0.04011 0.49231 0.94975 0.0
C725 C 0.11907 0.4979 0.94389 0.0
N726 N 0.03453 0.46448 0.88484 0.0
N727 N 0.12777 0.54445 0.99428 0.0
H728 H 0.16732 0.47747 0.92722 0.0
H729 H 0.17266 0.50381 0.96999 0.0
H730 H 0.11854 0.55972 1.01665 0.0
H731 H 0.15689 0.5514 0.98901 0.0
H732 H 1.0066 0.46694 0.88254 0.0
H733 H 0.04528 0.45446 0.85925 0.0
H734 H 0.98436 0.46246 0.94058 0.0
H735 H 0.98799 0.49175 0.9803 0.0
C736 C 0.53163 0.90257 0.95764 0.0
C737 C 0.56905 0.9085 0.94199 0.0
C738 C 0.57836 0.97311 0.95815 0.0
C739 C 0.54393 0.96588 0.9807 0.0
N740 N 0.48868 0.92169 1.00462 0.0
N741 N 0.62972 0.94886 0.92984 0.0
C742 C 0.52037 0.9302 0.98071 0.0
C743 C 0.59286 0.94368 0.94269 0.0
N744 N 0.50679 0.87052 0.95033 0.0
N745 N 0.59648 1.00817 0.9502 0.0
H746 H 0.6414 0.92809 0.91792 0.0
H747 H 0.64943 0.97311 0.93389 0.0
H748 H 0.58551 1.03041 0.95911 0.0
H749 H 0.61987 1.01501 0.93097 0.0
H750 H 0.47796 0.86612 0.95715 0.0
H751 H 0.51434 0.84956 0.93392 0.0
H752 H 0.47311 0.89526 1.00879 0.0
H753 H 0.47996 0.93991 1.02394 0.0
C754 C 0.90275 0.11727 0.50481 0.0
C755 C 0.91066 0.15241 0.52176 0.0
C756 C 0.93646 0.12872 0.57972 0.0
C757 C 0.93447 0.09487 0.5597 0.0
N758 N 0.91495 0.05689 0.50288 0.0
N759 N 0.93826 0.19306 0.57337 0.0
C760 C 0.91743 0.08921 0.52212 0.0
C761 C 0.92783 0.15843 0.55896 0.0
N762 N 0.87967 0.11032 0.47312 0.0
N763 N 0.94751 0.13341 0.61805 0.0
H764 H 0.93417 0.21588 0.55837 0.0
H765 H 0.9539 0.19989 0.59867 0.0
H766 H 0.95984 0.11572 0.63372 0.0
H767 H 0.94304 0.15502 0.63544 0.0
H768 H 0.86942 0.0844 0.4619 0.0
H769 H 0.8676 0.13001 0.46028 0.0
H770 H 0.90847 0.05312 0.47316 0.0
H771 H 0.92054 1.03395 0.5162 0.0
C772 C 0.18393 0.59246 0.1417 0.0
C773 C 0.18597 0.6254 0.16286 0.0
C774 C 0.11949 0.62348 0.14888 0.0
C775 C 0.11889 0.59348 0.12303 0.0
N776 N 0.15152 0.54993 0.09351 0.0
N777 N 0.15694 0.6743 0.18405 0.0
C778 C 0.15126 0.57783 0.11939 0.0
C779 C 0.15411 0.6415 0.16563 0.0
N780 N 0.21314 0.57494 0.14328 0.0
N781 N 0.08649 0.63336 0.15964 0.0
H782 H 0.18104 0.6875 0.19865 0.0
H783 H 0.13632 0.68959 0.18255 0.0
H784 H 0.06012 0.61973 0.15005 0.0
H785 H 0.08459 0.65238 0.18159 0.0
H786 H 0.21169 0.54871 0.13274 0.0
H787 H 0.23806 0.58555 0.15792 0.0
H788 H 0.17566 0.54054 0.08572 0.0
H789 H 0.12816 0.5374 0.07758 0.0
C790 C 0.35205 0.51109 0.624 0.0
C791 C 0.35091 0.48427 0.6536 0.0
C792 C 0.41616 0.48086 0.63566 0.0
C793 C 0.41812 0.50907 0.60752 0.0
N794 N 0.39025 0.55491 0.57873 0.0
N795 N 0.38413 0.44947 0.6935 0.0
C796 C 0.38673 0.52542 0.60293 0.0
C797 C 0.38376 0.47106 0.66128 0.0
N798 N 0.31961 0.52173 0.61487 0.0
N799 N 0.44429 0.46192 0.63649 0.0
H800 H 0.36087 0.44169 0.71282 0.0
H801 H 0.40846 0.44215 0.70315 0.0
H802 H 0.4684 0.46786 0.61813 0.0
H803 H 0.44239 0.43845 0.65317 0.0
H804 H 0.31739 0.53792 0.59063 0.0
H805 H 0.29396 0.51238 0.63012 0.0
H806 H 0.37001 0.57061 0.57723 0.0
H807 H 0.41484 0.56544 0.56219 0.0
C808 C 0.7844 0.67111 1.00214 0.0
C809 C 0.78435 0.69698 0.97194 0.0
C810 C 0.85289 0.705 0.96198 0.0
C811 C 0.85332 0.68059 0.99359 0.0
N812 N 0.8212 0.64471 1.04807 0.0
N813 N 0.81874 0.74375 0.92819 0.0
C814 C 0.81951 0.66488 1.01499 0.0
C815 C 0.81872 0.71555 0.95345 0.0
N816 N 0.75085 0.65182 1.01765 0.0
N817 N 0.88481 0.71694 0.93905 0.0
H818 H 0.79423 0.75207 0.92072 0.0
H819 H 0.8433 0.76095 0.91724 0.0
H820 H 0.91055 0.71003 0.94442 0.0
H821 H 0.88517 0.73126 0.91279 0.0
H822 H 0.74864 0.62973 1.03653 0.0
H823 H 0.72475 0.65651 1.00962 0.0
H824 H 0.79823 0.63552 0.06729 0.0
H825 H 0.84642 0.63944 1.05809 0.0
C826 C 0.43392 0.92536 0.16927 0.0
C827 C 0.44413 0.89177 0.16136 0.0
C828 C 0.49106 0.92162 0.11157 0.0
C829 C 0.48015 0.95556 0.11835 0.0
N830 N 0.43186 0.98516 0.14556 0.0
N831 N 0.47538 0.85602 0.1182 0.0
C832 C 0.44871 0.95612 0.14463 0.0
C833 C 0.47068 0.8894 0.13058 0.0
N834 N 0.41075 0.92821 0.20115 0.0
N835 N 0.52113 0.91967 0.08698 0.0
H836 H 0.46135 0.83175 0.13147 0.0
H837 H 0.49049 0.85205 0.09253 0.0
H838 H 0.5335 0.93984 0.06698 0.0
H839 H 0.53434 0.89775 0.08677 0.0
H840 H 0.40587 0.9529 0.21145 0.0
H841 H 0.3991 0.90626 0.21951 0.0
H842 H 0.40691 0.98526 0.16151 0.0
H843 H 0.4394 1.00731 0.12679 0.0
C844 C 0.06424 0.21838 0.64211 0.0
C845 C 0.09177 0.21916 0.67125 0.0
C846 C 0.09225 0.15515 0.65729 0.0
C847 C 0.06305 0.15334 0.6296 0.0
N848 N 0.02613 0.18567 0.59045 0.0
N849 N 0.12744 0.18719 0.71153 0.0
C850 C 0.05033 0.18564 0.62065 0.0
C851 C 0.10435 0.18717 0.68029 0.0
N852 N 0.05021 0.24873 0.63611 0.0
N853 N 0.11118 0.12761 0.65876 0.0
H854 H 0.13731 0.21023 0.72862 0.0
H855 H 0.13409 0.16375 0.72269 0.0
H856 H 0.10625 0.10587 0.63916 0.0
H857 H 0.13503 0.12855 0.67548 0.0
H858 H 0.02662 0.24914 0.61947 0.0
H859 H 0.06064 0.27348 0.65001 0.0
H860 H 0.02147 0.20918 0.57748 0.0
H861 H 1.01204 0.16236 0.57633 0.0
C862 C 0.72172 0.3895 0.52828 0.0
C863 C 0.75376 0.40907 0.50664 0.0
C864 C 0.72233 0.45921 0.4964 0.0
C865 C 0.6897 0.43894 0.51651 0.0
N866 N 0.66284 0.39169 0.563 0.0
N867 N 0.78954 0.46633 0.48227 0.0
C868 C 0.69107 0.40642 0.53651 0.0
C869 C 0.75576 0.44547 0.49519 0.0
N870 N 0.71926 0.35403 0.53838 0.0
N871 N 0.72071 0.49006 0.47615 0.0
H872 H 0.81431 0.45647 0.48128 0.0
H873 H 0.79367 0.49403 0.47646 0.0
H874 H 0.69667 0.50095 0.47586 0.0
H875 H 0.74241 0.50356 0.45734 0.0
H876 H 0.6946 0.33725 0.54973 0.0
H877 H 0.74113 0.34055 0.53325 0.0
H878 H 0.66389 0.36972 0.58111 0.0
H879 H 0.64017 0.40386 0.56966 0.0
loop_
_geom_bond_atom_site_label_1
_geom_bond_atom_site_label_2
_geom_bond_distance
_geom_bond_site_symmetry_2
_ccdc_geom_bond_type
C0 C1 1.384 . S
C0 H13 0.947 . S
C0 C35 1.382 . S
C1 C0 1.384 . S
C1 C2 1.378 . S
C2 C1 1.378 . S
C2 C3 1.378 . S
C2 H14 0.952 . S
C3 C2 1.378 . S
C3 H15 0.950 . S
C3 C34 1.383 . S
H4 C23 0.947 . S
H5 C24 0.946 . S
H6 C26 0.953 . S
H7 C27 0.945 . S
H8 C29 0.952 . S
H9 C30 0.949 . S
H10 C32 0.950 . S
H11 C33 0.948 . S
H12 C35 0.951 . S
H13 C0 0.947 . S
H14 C2 0.952 . S
H15 C3 0.950 . S
N16 C19 1.382 . S
N16 C21 1.363 . S
N17 C19 1.371 . S
N17 C20 1.372 . S
N18 C20 1.361 . S
N18 C21 1.377 . S
C19 N16 1.382 . S
C19 N17 1.371 . S
C19 C22 1.480 . S
C20 N17 1.372 . S
C20 N18 1.361 . S
C20 C28 1.457 . S
C21 N16 1.363 . S
C21 N18 1.377 . S
C21 C34 1.479 . S
C22 C19 1.480 . S
C22 C23 1.383 . S
C22 C27 1.385 . S
C23 H4 0.947 . S
C23 C22 1.383 . S
C23 C24 1.388 . S
C24 H5 0.946 . S
C24 C23 1.388 . S
C24 C25 1.384 . S
C25 C24 1.384 . S
C25 C26 1.377 . S
C26 H6 0.953 . S
C26 C25 1.377 . S
C26 C27 1.369 . S
C27 H7 0.945 . S
C27 C22 1.385 . S
C27 C26 1.369 . S
C28 C20 1.457 . S
C28 C29 1.372 . S
C28 C33 1.364 . S
C29 H8 0.952 . S
C29 C28 1.372 . S
C29 C30 1.389 . S
C30 H9 0.949 . S
C30 C29 1.389 . S
C30 C31 1.387 . S
C31 C30 1.387 . S
C31 C32 1.372 . S
C32 H10 0.950 . S
C32 C31 1.372 . S
C32 C33 1.379 . S
C33 H11 0.948 . S
C33 C28 1.364 . S
C33 C32 1.379 . S
C34 C3 1.383 . S
C34 C21 1.479 . S
C34 C35 1.398 . S
C35 C0 1.382 . S
C35 H12 0.951 . S
C35 C34 1.398 . S
C36 C37 1.384 . S
C36 H49 0.947 . S
C36 C71 1.382 . S
C37 C36 1.384 . S
C37 C38 1.378 . S
C38 C37 1.378 . S
C38 C39 1.378 . S
C38 H50 0.952 . S
C39 C38 1.378 . S
C39 H51 0.950 . S
C39 C70 1.383 . S
H40 C59 0.947 . S
H41 C60 0.946 . S
H42 C62 0.953 . S
H43 C63 0.945 . S
H44 C65 0.952 . S
H45 C66 0.949 . S
H46 C68 0.950 . S
H47 C69 0.948 . S
H48 C71 0.951 . S
H49 C36 0.947 . S
H50 C38 0.952 . S
H51 C39 0.950 . S
N52 C55 1.382 . S
N52 C57 1.363 . S
N53 C55 1.371 . S
N53 C56 1.372 . S
N54 C56 1.361 . S
N54 C57 1.377 . S
C55 N52 1.382 . S
C55 N53 1.371 . S
C55 C58 1.480 . S
C56 N53 1.372 . S
C56 N54 1.361 . S
C56 C64 1.457 . S
C57 N52 1.363 . S
C57 N54 1.377 . S
C57 C70 1.479 . S
C58 C55 1.480 . S
C58 C59 1.383 . S
C58 C63 1.385 . S
C59 H40 0.947 . S
C59 C58 1.383 . S
C59 C60 1.388 . S
C60 H41 0.946 . S
C60 C59 1.388 . S
C60 C61 1.384 . S
C61 C60 1.384 . S
C61 C62 1.377 . S
C62 H42 0.953 . S
C62 C61 1.377 . S
C62 C63 1.369 . S
C63 H43 0.945 . S
C63 C58 1.385 . S
C63 C62 1.369 . S
C64 C56 1.457 . S
C64 C65 1.372 . S
C64 C69 1.364 . S
C65 H44 0.952 . S
C65 C64 1.372 . S
C65 C66 1.389 . S
C66 H45 0.949 . S
C66 C65 1.389 . S
C66 C67 1.387 . S
C67 C66 1.387 . S
C67 C68 1.372 . S
C68 H46 0.950 . S
C68 C67 1.372 . S
C68 C69 1.379 . S
C69 H47 0.948 . S
C69 C64 1.364 . S
C69 C68 1.379 . S
C70 C39 1.383 . S
C70 C57 1.479 . S
C70 C71 1.398 . S
C71 C36 1.382 . S
C71 H48 0.951 . S
C71 C70 1.398 . S
C72 C73 1.384 . S
C72 H85 0.947 . S
C72 C107 1.382 . S
C73 C72 1.384 . S
C73 C74 1.378 . S
C74 C73 1.378 . S
C74 C75 1.378 . S
C74 H86 0.952 . S
C75 C74 1.378 . S
C75 H87 0.950 . S
C75 C106 1.383 . S
H76 C95 0.947 . S
H77 C96 0.946 . S
H78 C98 0.953 . S
H79 C99 0.945 . S
H80 C101 0.952 . S
H81 C102 0.949 . S
H82 C104 0.950 . S
H83 C105 0.948 . S
H84 C107 0.951 . S
H85 C72 0.947 . S
H86 C74 0.952 . S
H87 C75 0.950 . S
N88 C91 1.382 . S
N88 C93 1.363 . S
N89 C91 1.371 . S
N89 C92 1.372 . S
N90 C92 1.361 . S
N90 C93 1.377 . S
C91 N88 1.382 . S
C91 N89 1.371 . S
C91 C94 1.480 . S
C92 N89 1.372 . S
C92 N90 1.361 . S
C92 C100 1.457 . S
C93 N88 1.363 . S
C93 N90 1.377 . S
C93 C106 1.479 . S
C94 C91 1.480 . S
C94 C95 1.383 . S
C94 C99 1.385 . S
C95 H76 0.947 . S
C95 C94 1.383 . S
C95 C96 1.388 . S
C96 H77 0.946 . S
C96 C95 1.388 . S
C96 C97 1.384 . S
C97 C96 1.384 . S
C97 C98 1.377 . S
C98 H78 0.953 . S
C98 C97 1.377 . S
C98 C99 1.369 . S
C99 H79 0.945 . S
C99 C94 1.385 . S
C99 C98 1.369 . S
C100 C92 1.457 . S
C100 C101 1.372 . S
C100 C105 1.364 . S
C101 H80 0.952 . S
C101 C100 1.372 . S
C101 C102 1.389 . S
C102 H81 0.949 . S
C102 C101 1.389 . S
C102 C103 1.387 . S
C103 C102 1.387 . S
C103 C104 1.372 . S
C104 H82 0.950 . S
C104 C103 1.372 . S
C104 C105 1.379 . S
C105 H83 0.948 . S
C105 C100 1.364 . S
C105 C104 1.379 . S
C106 C75 1.383 . S
C106 C93 1.479 . S
C106 C107 1.398 . S
C107 C72 1.382 . S
C107 H84 0.951 . S
C107 C106 1.398 . S
C108 C109 1.384 . S
C108 H121 0.947 . S
C108 C143 1.382 . S
C109 C108 1.384 . S
C109 C110 1.378 . S
C110 C109 1.378 . S
C110 C111 1.378 . S
C110 H122 0.952 . S
C111 C110 1.378 . S
C111 H123 0.950 . S
C111 C142 1.383 . S
H112 C131 0.947 . S
H113 C132 0.946 . S
H114 C134 0.953 . S
H115 C135 0.945 . S
H116 C137 0.952 . S
H117 C138 0.949 . S
H118 C140 0.950 . S
H119 C141 0.948 . S
H120 C143 0.951 . S
H121 C108 0.947 . S
H122 C110 0.952 . S
H123 C111 0.950 . S
N124 C127 1.382 . S
N124 C129 1.363 . S
N125 C127 1.371 . S
N125 C128 1.372 . S
N126 C128 1.361 . S
N126 C129 1.377 . S
C127 N124 1.382 . S
C127 N125 1.371 . S
C127 C130 1.480 . S
C128 N125 1.372 . S
C128 N126 1.361 . S
C128 C136 1.457 . S
C129 N124 1.363 . S
C129 N126 1.377 . S
C129 C142 1.479 . S
C130 C127 1.480 . S
C130 C131 1.383 . S
C130 C135 1.385 . S
C131 H112 0.947 . S
C131 C130 1.383 . S
C131 C132 1.388 . S
C132 H113 0.946 . S
C132 C131 1.388 . S
C132 C133 1.384 . S
C133 C132 1.384 . S
C133 C134 1.377 . S
C134 H114 0.953 . S
C134 C133 1.377 . S
C134 C135 1.369 . S
C135 H115 0.945 . S
C135 C130 1.385 . S
C135 C134 1.369 . S
C136 C128 1.457 . S
C136 C137 1.372 . S
C136 C141 1.364 . S
C137 H116 0.952 . S
C137 C136 1.372 . S
C137 C138 1.389 . S
C138 H117 0.949 . S
C138 C137 1.389 . S
C138 C139 1.387 . S
C139 C138 1.387 . S
C139 C140 1.372 . S
C140 H118 0.950 . S
C140 C139 1.372 . S
C140 C141 1.379 . S
C141 H119 0.948 . S
C141 C136 1.364 . S
C141 C140 1.379 . S
C142 C111 1.383 . S
C142 C129 1.479 . S
C142 C143 1.398 . S
C143 C108 1.382 . S
C143 H120 0.951 . S
C143 C142 1.398 . S
C144 C145 1.384 . S
C144 H157 0.947 . S
C144 C179 1.382 . S
C145 C144 1.384 . S
C145 C146 1.378 . S
C146 C145 1.378 . S
C146 C147 1.378 . S
C146 H158 0.952 . S
C147 C146 1.378 . S
C147 H159 0.950 . S
C147 C178 1.383 . S
H148 C167 0.947 . S
H149 C168 0.946 . S
H150 C170 0.953 . S
H151 C171 0.945 . S
H152 C173 0.952 . S
H153 C174 0.949 . S
H154 C176 0.950 . S
H155 C177 0.948 . S
H156 C179 0.951 . S
H157 C144 0.947 . S
H158 C146 0.952 . S
H159 C147 0.950 . S
N160 C163 1.382 . S
N160 C165 1.363 . S
N161 C163 1.371 . S
N161 C164 1.372 . S
N162 C164 1.361 . S
N162 C165 1.377 . S
C163 N160 1.382 . S
C163 N161 1.371 . S
C163 C166 1.480 . S
C164 N161 1.372 . S
C164 N162 1.361 . S
C164 C172 1.457 . S
C165 N160 1.363 . S
C165 N162 1.377 . S
C165 C178 1.479 . S
C166 C163 1.480 . S
C166 C167 1.383 . S
C166 C171 1.385 . S
C167 H148 0.947 . S
C167 C166 1.383 . S
C167 C168 1.388 . S
C168 H149 0.946 . S
C168 C167 1.388 . S
C168 C169 1.384 . S
C169 C168 1.384 . S
C169 C170 1.377 . S
C170 H150 0.953 . S
C170 C169 1.377 . S
C170 C171 1.369 . S
C171 H151 0.945 . S
C171 C166 1.385 . S
C171 C170 1.369 . S
C172 C164 1.457 . S
C172 C173 1.372 . S
C172 C177 1.364 . S
C173 H152 0.952 . S
C173 C172 1.372 . S
C173 C174 1.389 . S
C174 H153 0.949 . S
C174 C173 1.389 . S
C174 C175 1.387 . S
C175 C174 1.387 . S
C175 C176 1.372 . S
C176 H154 0.950 . S
C176 C175 1.372 . S
C176 C177 1.379 . S
C177 H155 0.948 . S
C177 C172 1.364 . S
C177 C176 1.379 . S
C178 C147 1.383 . S
C178 C165 1.479 . S
C178 C179 1.398 . S
C179 C144 1.382 . S
C179 H156 0.951 . S
C179 C178 1.398 . S
C180 C181 1.384 . S
C180 H193 0.947 . S
C180 C215 1.382 . S
C181 C180 1.384 . S
C181 C182 1.378 . S
C182 C181 1.378 . S
C182 C183 1.378 . S
C182 H194 0.952 . S
C183 C182 1.378 . S
C183 H195 0.950 . S
C183 C214 1.383 . S
H184 C203 0.947 . S
H185 C204 0.946 . S
H186 C206 0.953 . S
H187 C207 0.945 . S
H188 C209 0.952 . S
H189 C210 0.949 . S
H190 C212 0.950 . S
H191 C213 0.948 . S
H192 C215 0.951 . S
H193 C180 0.947 . S
H194 C182 0.952 . S
H195 C183 0.950 . S
N196 C199 1.382 . S
N196 C201 1.363 . S
N197 C199 1.371 . S
N197 C200 1.372 . S
N198 C200 1.361 . S
N198 C201 1.377 . S
C199 N196 1.382 . S
C199 N197 1.371 . S
C199 C202 1.480 . S
C200 N197 1.372 . S
C200 N198 1.361 . S
C200 C208 1.457 . S
C201 N196 1.363 . S
C201 N198 1.377 . S
C201 C214 1.479 . S
C202 C199 1.480 . S
C202 C203 1.383 . S
C202 C207 1.385 . S
C203 H184 0.947 . S
C203 C202 1.383 . S
C203 C204 1.388 . S
C204 H185 0.946 . S
C204 C203 1.388 . S
C204 C205 1.384 . S
C205 C204 1.384 . S
C205 C206 1.377 . S
C206 H186 0.953 . S
C206 C205 1.377 . S
C206 C207 1.369 . S
C207 H187 0.945 . S
C207 C202 1.385 . S
C207 C206 1.369 . S
C208 C200 1.457 . S
C208 C209 1.372 . S
C208 C213 1.364 . S
C209 H188 0.952 . S
C209 C208 1.372 . S
C209 C210 1.389 . S
C210 H189 0.949 . S
C210 C209 1.389 . S
C210 C211 1.387 . S
C211 C210 1.387 . S
C211 C212 1.372 . S
C212 H190 0.950 . S
C212 C211 1.372 . S
C212 C213 1.379 . S
C213 H191 0.948 . S
C213 C208 1.364 . S
C213 C212 1.379 . S
C214 C183 1.383 . S
C214 C201 1.479 . S
C214 C215 1.398 . S
C215 C180 1.382 . S
C215 H192 0.951 . S
C215 C214 1.398 . S
C216 C217 1.384 . S
C216 H229 0.947 . S
C216 C251 1.382 . S
C217 C216 1.384 . S
C217 C218 1.378 . S
C218 C217 1.378 . S
C218 C219 1.378 . S
C218 H230 0.952 . S
C219 C218 1.378 . S
C219 H231 0.950 . S
C219 C250 1.383 . S
H220 C239 0.947 . S
H221 C240 0.946 . S
H222 C242 0.953 . S
H223 C243 0.945 . S
H224 C245 0.952 . S
H225 C246 0.949 . S
H226 C248 0.950 . S
H227 C249 0.948 . S
H228 C251 0.951 . S
H229 C216 0.947 . S
H230 C218 0.952 . S
H231 C219 0.950 . S
N232 C235 1.382 . S
N232 C237 1.363 . S
N233 C235 1.371 . S
N233 C236 1.372 . S
N234 C236 1.361 . S
N234 C237 1.377 . S
C235 N232 1.382 . S
C235 N233 1.371 . S
C235 C238 1.480 . S
C236 N233 1.372 . S
C236 N234 1.361 . S
C236 C244 1.457 . S
C237 N232 1.363 . S
C237 N234 1.377 . S
C237 C250 1.479 . S
C238 C235 1.480 . S
C238 C239 1.383 . S
C238 C243 1.385 . S
C239 H220 0.947 . S
C239 C238 1.383 . S
C239 C240 1.388 . S
C240 H221 0.946 . S
C240 C239 1.388 . S
C240 C241 1.384 . S
C241 C240 1.384 . S
C241 C242 1.377 . S
C242 H222 0.953 . S
C242 C241 1.377 . S
C242 C243 1.369 . S
C243 H223 0.945 . S
C243 C238 1.385 . S
C243 C242 1.369 . S
C244 C236 1.457 . S
C244 C245 1.372 . S
C244 C249 1.364 . S
C245 H224 0.952 . S
C245 C244 1.372 . S
C245 C246 1.389 . S
C246 H225 0.949 . S
C246 C245 1.389 . S
C246 C247 1.387 . S
C247 C246 1.387 . S
C247 C248 1.372 . S
C248 H226 0.950 . S
C248 C247 1.372 . S
C248 C249 1.379 . S
C249 H227 0.948 . S
C249 C244 1.364 . S
C249 C248 1.379 . S
C250 C219 1.383 . S
C250 C237 1.479 . S
C250 C251 1.398 . S
C251 C216 1.382 . S
C251 H228 0.951 . S
C251 C250 1.398 . S
C252 C253 1.384 . S
C252 H265 0.947 . S
C252 C287 1.382 . S
C253 C252 1.384 . S
C253 C254 1.378 . S
C254 C253 1.378 . S
C254 C255 1.378 . S
C254 H266 0.952 . S
C255 C254 1.378 . S
C255 H267 0.950 . S
C255 C286 1.383 . S
H256 C275 0.947 . S
H257 C276 0.946 . S
H258 C278 0.953 . S
H259 C279 0.945 . S
H260 C281 0.952 . S
H261 C282 0.949 . S
H262 C284 0.950 . S
H263 C285 0.948 . S
H264 C287 0.951 . S
H265 C252 0.947 . S
H266 C254 0.952 . S
H267 C255 0.950 . S
N268 C271 1.382 . S
N268 C273 1.363 . S
N269 C271 1.371 . S
N269 C272 1.372 . S
N270 C272 1.361 . S
N270 C273 1.377 . S
C271 N268 1.382 . S
C271 N269 1.371 . S
C271 C274 1.480 . S
C272 N269 1.372 . S
C272 N270 1.361 . S
C272 C280 1.457 . S
C273 N268 1.363 . S
C273 N270 1.377 . S
C273 C286 1.479 . S
C274 C271 1.480 . S
C274 C275 1.383 . S
C274 C279 1.385 . S
C275 H256 0.947 . S
C275 C274 1.383 . S
C275 C276 1.388 . S
C276 H257 0.946 . S
C276 C275 1.388 . S
C276 C277 1.384 . S
C277 C276 1.384 . S
C277 C278 1.377 . S
C278 H258 0.953 . S
C278 C277 1.377 . S
C278 C279 1.369 . S
C279 H259 0.945 . S
C279 C274 1.385 . S
C279 C278 1.369 . S
C280 C272 1.457 . S
C280 C281 1.372 . S
C280 C285 1.364 . S
C281 H260 0.952 . S
C281 C280 1.372 . S
C281 C282 1.389 . S
C282 H261 0.949 . S
C282 C281 1.389 . S
C282 C283 1.387 . S
C283 C282 1.387 . S
C283 C284 1.372 . S
C284 H262 0.950 . S
C284 C283 1.372 . S
C284 C285 1.379 . S
C285 H263 0.948 . S
C285 C280 1.364 . S
C285 C284 1.379 . S
C286 C255 1.383 . S
C286 C273 1.479 . S
C286 C287 1.398 . S
C287 C252 1.382 . S
C287 H264 0.951 . S
C287 C286 1.398 . S
Ho288 C291 2.811 . S
Ho288 O308 2.322 . S
Ho288 O310 2.378 . S
Ho288 O311 2.524 . S
Ho288 O312 2.381 1_545 S
Ho288 O313 2.669 1_545 S
Ho288 O315 2.346 1_445 S
Ho288 O319 2.305 1_455 S
Ho289 C300 2.811 . S
Ho289 O309 2.346 1_665 S
Ho289 O313 2.305 1_655 S
Ho289 O314 2.322 . S
Ho289 O316 2.378 . S
Ho289 O317 2.524 . S
Ho289 O318 2.381 1_565 S
Ho289 O319 2.669 1_565 S
C290 O308 1.259 . S
C290 O309 1.268 . S
C291 Ho288 2.811 . S
C291 C292 1.488 . S
C291 O310 1.215 . S
C291 O311 1.289 . S
C292 C291 1.488 . S
C292 C293 1.348 . S
C292 C297 1.413 . S
C293 C292 1.348 . S
C293 C294 1.442 . S
C293 H320 0.930 . S
C294 C293 1.442 . S
C294 C295 1.381 . S
C294 H321 0.931 . S
C295 C294 1.381 . S
C295 C296 1.321 . S
C296 C295 1.321 . S
C296 C297 1.403 . S
C296 H322 0.934 . S
C297 C292 1.413 . S
C297 C296 1.403 . S
C297 H323 0.930 . S
C298 O312 1.275 . S
C298 O313 1.256 . S
C299 O314 1.259 . S
C299 O315 1.268 . S
C300 Ho289 2.811 . S
C300 C301 1.488 . S
C300 O316 1.215 . S
C300 O317 1.289 . S
C301 C300 1.488 . S
C301 C302 1.348 . S
C301 C306 1.413 . S
C302 C301 1.348 . S
C302 C303 1.442 . S
C302 H324 0.930 . S
C303 C302 1.442 . S
C303 C304 1.381 . S
C303 H325 0.931 . S
C304 C303 1.381 . S
C304 C305 1.321 . S
C305 C304 1.321 . S
C305 C306 1.403 . S
C305 H326 0.934 . S
C306 C301 1.413 . S
C306 C305 1.403 . S
C306 H327 0.930 . S
C307 O318 1.275 . S
C307 O319 1.256 . S
O308 Ho288 2.322 . S
O308 C290 1.259 . S
O309 Ho289 2.346 1_445 S
O309 C290 1.268 . S
O310 Ho288 2.378 . S
O310 C291 1.215 . S
O311 Ho288 2.524 . S
O311 C291 1.289 . S
O312 Ho288 2.381 1_565 S
O312 C298 1.275 . S
O313 Ho288 2.669 1_565 S
O313 Ho289 2.305 1_455 S
O313 C298 1.256 . S
O314 Ho289 2.322 . S
O314 C299 1.259 . S
O315 Ho288 2.346 1_665 S
O315 C299 1.268 . S
O316 Ho289 2.378 . S
O316 C300 1.215 . S
O317 Ho289 2.524 . S
O317 C300 1.289 . S
O318 Ho289 2.381 1_545 S
O318 C307 1.275 . S
O319 Ho288 2.305 1_655 S
O319 Ho289 2.669 1_545 S
O319 C307 1.256 . S
H320 C293 0.930 . S
H321 C294 0.931 . S
H322 C296 0.934 . S
H323 C297 0.930 . S
H324 C302 0.930 . S
H325 C303 0.931 . S
H326 C305 0.934 . S
H327 C306 0.930 . S
Ho328 C331 2.811 1_565 S
Ho328 O348 2.322 1_565 S
Ho328 O350 2.378 1_565 S
Ho328 O351 2.524 1_565 S
Ho328 O352 2.381 . S
Ho328 O353 2.669 . S
Ho328 O355 2.346 1_554 S
Ho328 O359 2.305 1_564 S
Ho329 C340 2.811 1_545 S
Ho329 O349 2.346 1_556 S
Ho329 O353 2.305 1_546 S
Ho329 O354 2.322 1_545 S
Ho329 O356 2.378 1_545 S
Ho329 O357 2.524 1_545 S
Ho329 O358 2.381 . S
Ho329 O359 2.669 . S
C330 O348 1.259 . S
C330 O349 1.268 . S
C331 Ho328 2.811 1_545 S
C331 C332 1.488 . S
C331 O350 1.215 . S
C331 O351 1.289 . S
C332 C331 1.488 . S
C332 C333 1.348 . S
C332 C337 1.413 . S
C333 C332 1.348 . S
C333 C334 1.442 . S
C333 H360 0.930 . S
C334 C333 1.442 . S
C334 C335 1.381 . S
C334 H361 0.931 . S
C335 C334 1.381 . S
C335 C336 1.321 . S
C336 C335 1.321 . S
C336 C337 1.403 . S
C336 H362 0.934 . S
C337 C332 1.413 . S
C337 C336 1.403 . S
C337 H363 0.930 . S
C338 O352 1.275 . S
C338 O353 1.256 . S
C339 O354 1.259 . S
C339 O355 1.268 . S
C340 Ho329 2.811 1_565 S
C340 C341 1.488 . S
C340 O356 1.215 . S
C340 O357 1.289 . S
C341 C340 1.488 . S
C341 C342 1.348 . S
C341 C346 1.413 . S
C342 C341 1.348 . S
C342 C343 1.442 . S
C342 H364 0.930 . S
C343 C342 1.442 . S
C343 C344 1.381 . S
C343 H365 0.931 . S
C344 C343 1.381 . S
C344 C345 1.321 . S
C345 C344 1.321 . S
C345 C346 1.403 . S
C345 H366 0.934 . S
C346 C341 1.413 . S
C346 C345 1.403 . S
C346 H367 0.930 . S
C347 O358 1.275 . S
C347 O359 1.256 . S
O348 Ho328 2.322 1_545 S
O348 C330 1.259 . S
O349 Ho329 2.346 1_554 S
O349 C330 1.268 . S
O350 Ho328 2.378 1_545 S
O350 C331 1.215 . S
O351 Ho328 2.524 1_545 S
O351 C331 1.289 . S
O352 Ho328 2.381 . S
O352 C338 1.275 . S
O353 Ho328 2.669 . S
O353 Ho329 2.305 1_564 S
O353 C338 1.256 . S
O354 Ho329 2.322 1_565 S
O354 C339 1.259 . S
O355 Ho328 2.346 1_556 S
O355 C339 1.268 . S
O356 Ho329 2.378 1_565 S
O356 C340 1.215 . S
O357 Ho329 2.524 1_565 S
O357 C340 1.289 . S
O358 Ho329 2.381 . S
O358 C347 1.275 . S
O359 Ho328 2.305 1_546 S
O359 Ho329 2.669 . S
O359 C347 1.256 . S
H360 C333 0.930 . S
H361 C334 0.931 . S
H362 C336 0.934 . S
H363 C337 0.930 . S
H364 C342 0.930 . S
H365 C343 0.931 . S
H366 C345 0.934 . S
H367 C346 0.930 . S
Ho368 C371 2.811 . S
Ho368 O388 2.322 . S
Ho368 O390 2.378 . S
Ho368 O391 2.524 . S
Ho368 O392 2.381 . S
Ho368 O393 2.669 . S
Ho368 O395 2.346 . S
Ho368 O399 2.305 . S
Ho369 C380 2.811 . S
Ho369 O389 2.346 . S
Ho369 O393 2.305 . S
Ho369 O394 2.322 . S
Ho369 O396 2.378 . S
Ho369 O397 2.524 . S
Ho369 O398 2.381 . S
Ho369 O399 2.669 . S
C370 O388 1.259 . S
C370 O389 1.268 . S
C371 Ho368 2.811 . S
C371 C372 1.488 . S
C371 O390 1.215 . S
C371 O391 1.289 . S
C372 C371 1.488 . S
C372 C373 1.348 . S
C372 C377 1.413 . S
C373 C372 1.348 . S
C373 C374 1.442 . S
C373 H400 0.930 . S
C374 C373 1.442 . S
C374 C375 1.381 . S
C374 H401 0.931 . S
C375 C374 1.381 . S
C375 C376 1.321 . S
C376 C375 1.321 . S
C376 C377 1.403 . S
C376 H402 0.934 . S
C377 C372 1.413 . S
C377 C376 1.403 . S
C377 H403 0.930 . S
C378 O392 1.275 . S
C378 O393 1.256 . S
C379 O394 1.259 . S
C379 O395 1.268 . S
C380 Ho369 2.811 . S
C380 C381 1.488 . S
C380 O396 1.215 . S
C380 O397 1.289 . S
C381 C380 1.488 . S
C381 C382 1.348 . S
C381 C386 1.413 . S
C382 C381 1.348 . S
C382 C383 1.442 . S
C382 H404 0.930 . S
C383 C382 1.442 . S
C383 C384 1.381 . S
C383 H405 0.931 . S
C384 C383 1.381 . S
C384 C385 1.321 . S
C385 C384 1.321 . S
C385 C386 1.403 . S
C385 H406 0.934 . S
C386 C381 1.413 . S
C386 C385 1.403 . S
C386 H407 0.930 . S
C387 O398 1.275 . S
C387 O399 1.256 . S
O388 Ho368 2.322 . S
O388 C370 1.259 . S
O389 Ho369 2.346 . S
O389 C370 1.268 . S
O390 Ho368 2.378 . S
O390 C371 1.215 . S
O391 Ho368 2.524 . S
O391 C371 1.289 . S
O392 Ho368 2.381 . S
O392 C378 1.275 . S
O393 Ho368 2.669 . S
O393 Ho369 2.305 . S
O393 C378 1.256 . S
O394 Ho369 2.322 . S
O394 C379 1.259 . S
O395 Ho368 2.346 . S
O395 C379 1.268 . S
O396 Ho369 2.378 . S
O396 C380 1.215 . S
O397 Ho369 2.524 . S
O397 C380 1.289 . S
O398 Ho369 2.381 . S
O398 C387 1.275 . S
O399 Ho368 2.305 . S
O399 Ho369 2.669 . S
O399 C387 1.256 . S
H400 C373 0.930 . S
H401 C374 0.931 . S
H402 C376 0.934 . S
H403 C377 0.930 . S
H404 C382 0.930 . S
H405 C383 0.931 . S
H406 C385 0.934 . S
H407 C386 0.930 . S
Ho408 C411 2.811 . S
Ho408 O428 2.322 . S
Ho408 O430 2.378 . S
Ho408 O431 2.524 . S
Ho408 O432 2.381 1_455 S
Ho408 O433 2.669 1_455 S
Ho408 O435 2.329 1_454 S
Ho408 O439 2.305 1_554 S
Ho409 C420 2.811 . S
Ho409 O429 2.346 1_656 S
Ho409 O433 2.305 1_556 S
Ho409 O434 2.322 . S
Ho409 O436 2.378 . S
Ho409 O437 2.524 . S
Ho409 O438 2.381 1_655 S
Ho409 O439 2.669 1_655 S
C410 O428 1.259 . S
C410 O429 1.268 . S
C411 Ho408 2.811 . S
C411 C412 1.488 . S
C411 O430 1.215 . S
C411 O431 1.289 . S
C412 C411 1.488 . S
C412 C413 1.348 . S
C412 C417 1.413 . S
C413 C412 1.348 . S
C413 C414 1.442 . S
C413 H440 0.930 . S
C414 C413 1.442 . S
C414 C415 1.381 . S
C414 H441 0.931 . S
C415 C414 1.381 . S
C415 C416 1.321 . S
C416 C415 1.321 . S
C416 C417 1.403 . S
C416 H442 0.934 . S
C417 C412 1.413 . S
C417 C416 1.403 . S
C417 H443 0.930 . S
C418 O432 1.275 . S
C418 O433 1.256 . S
C419 O434 1.259 . S
C419 O435 1.291 . S
C420 Ho409 2.811 . S
C420 C421 1.488 . S
C420 O436 1.215 . S
C420 O437 1.289 . S
C421 C420 1.488 . S
C421 C422 1.348 . S
C421 C426 1.413 . S
C422 C421 1.348 . S
C422 C423 1.442 . S
C422 H444 0.930 . S
C423 C422 1.442 . S
C423 C424 1.381 . S
C423 H445 0.931 . S
C424 C423 1.381 . S
C424 C425 1.321 . S
C425 C424 1.321 . S
C425 C426 1.403 . S
C425 H446 0.934 . S
C426 C421 1.413 . S
C426 C425 1.403 . S
C426 H447 0.930 . S
C427 O438 1.275 . S
C427 O439 1.256 . S
O428 Ho408 2.322 . S
O428 C410 1.259 . S
O429 Ho409 2.346 1_454 S
O429 C410 1.268 . S
O430 Ho408 2.378 . S
O430 C411 1.215 . S
O431 Ho408 2.524 . S
O431 C411 1.289 . S
O432 Ho408 2.381 1_655 S
O432 C418 1.275 . S
O433 Ho408 2.669 1_655 S
O433 Ho409 2.305 1_554 S
O433 C418 1.256 . S
O434 Ho409 2.322 . S
O434 C419 1.259 . S
O435 Ho408 2.329 1_656 S
O435 C419 1.291 . S
O436 Ho409 2.378 . S
O436 C420 1.215 . S
O437 Ho409 2.524 . S
O437 C420 1.289 . S
O438 Ho409 2.381 1_455 S
O438 C427 1.275 . S
O439 Ho408 2.305 1_556 S
O439 Ho409 2.669 1_455 S
O439 C427 1.256 . S
H440 C413 0.930 . S
H441 C414 0.931 . S
H442 C416 0.934 . S
H443 C417 0.930 . S
H444 C422 0.930 . S
H445 C423 0.931 . S
H446 C425 0.934 . S
H447 C426 0.930 . S
C448 C449 1.363 . S
C448 C454 1.379 . S
C448 N456 1.356 . S
C449 C448 1.363 . S
C449 C455 1.363 . S
C450 C451 1.363 . S
C450 C455 1.379 . S
C450 N457 1.356 . S
C451 C450 1.363 . S
C451 C454 1.363 . S
N452 C454 1.356 . S
N452 H464 0.984 . S
N452 H465 0.985 . S
N453 C455 1.356 . S
N453 H458 0.984 . S
N453 H459 0.985 . S
C454 C448 1.379 . S
C454 C451 1.363 . S
C454 N452 1.356 . S
C455 C449 1.363 . S
C455 C450 1.379 . S
C455 N453 1.356 . S
N456 C448 1.356 . S
N456 H462 0.984 . S
N456 H463 0.984 . S
N457 C450 1.356 . S
N457 H460 0.984 . S
N457 H461 0.985 . S
H458 N453 0.984 . S
H459 N453 0.985 . S
H460 N457 0.984 . S
H461 N457 0.985 . S
H462 N456 0.984 . S
H463 N456 0.984 . S
H464 N452 0.984 . S
H465 N452 0.985 . S
C466 C467 1.363 . S
C466 C472 1.379 . S
C466 N474 1.356 . S
C467 C466 1.363 . S
C467 C473 1.363 . S
C468 C469 1.363 . S
C468 C473 1.379 . S
C468 N475 1.356 . S
C469 C468 1.363 . S
C469 C472 1.363 . S
N470 C472 1.356 . S
N470 H482 0.984 . S
N470 H483 0.985 . S
N471 C473 1.356 . S
N471 H476 0.984 . S
N471 H477 0.985 . S
C472 C466 1.379 . S
C472 C469 1.363 . S
C472 N470 1.356 . S
C473 C467 1.363 . S
C473 C468 1.379 . S
C473 N471 1.356 . S
N474 C466 1.356 . S
N474 H480 0.984 . S
N474 H481 0.984 . S
N475 C468 1.356 . S
N475 H478 0.984 . S
N475 H479 0.985 . S
H476 N471 0.984 . S
H477 N471 0.985 . S
H478 N475 0.984 . S
H479 N475 0.985 . S
H480 N474 0.984 . S
H481 N474 0.984 . S
H482 N470 0.984 . S
H483 N470 0.985 . S
C484 C485 1.363 . S
C484 C490 1.379 . S
C484 N492 1.356 . S
C485 C484 1.363 . S
C485 C491 1.363 . S
C486 C487 1.363 . S
C486 C491 1.379 . S
C486 N493 1.356 . S
C487 C486 1.363 . S
C487 C490 1.363 . S
N488 C490 1.356 . S
N488 H500 0.984 . S
N488 H501 0.985 . S
N489 C491 1.356 . S
N489 H494 0.984 . S
N489 H495 0.985 . S
C490 C484 1.379 . S
C490 C487 1.363 . S
C490 N488 1.356 . S
C491 C485 1.363 . S
C491 C486 1.379 . S
C491 N489 1.356 . S
N492 C484 1.356 . S
N492 H498 0.984 . S
N492 H499 0.984 . S
N493 C486 1.356 . S
N493 H496 0.984 . S
N493 H497 0.985 . S
H494 N489 0.984 . S
H495 N489 0.985 . S
H496 N493 0.984 . S
H497 N493 0.985 . S
H498 N492 0.984 . S
H499 N492 0.984 . S
H500 N488 0.984 . S
H501 N488 0.985 . S
C502 C503 1.363 . S
C502 C508 1.379 . S
C502 N510 1.356 . S
C503 C502 1.363 . S
C503 C509 1.363 . S
C504 C505 1.363 . S
C504 C509 1.379 . S
C504 N511 1.356 . S
C505 C504 1.363 . S
C505 C508 1.363 . S
N506 C508 1.356 . S
N506 H518 0.984 . S
N506 H519 0.985 . S
N507 C509 1.356 . S
N507 H512 0.984 . S
N507 H513 0.985 . S
C508 C502 1.379 . S
C508 C505 1.363 . S
C508 N506 1.356 . S
C509 C503 1.363 . S
C509 C504 1.379 . S
C509 N507 1.356 . S
N510 C502 1.356 . S
N510 H516 0.984 . S
N510 H517 0.984 . S
N511 C504 1.356 . S
N511 H514 0.984 . S
N511 H515 0.985 . S
H512 N507 0.984 . S
H513 N507 0.985 . S
H514 N511 0.984 . S
H515 N511 0.985 . S
H516 N510 0.984 . S
H517 N510 0.984 . S
H518 N506 0.984 . S
H519 N506 0.985 . S
C520 C521 1.363 . S
C520 C526 1.379 . S
C520 N528 1.356 . S
C521 C520 1.363 . S
C521 C527 1.363 . S
C522 C523 1.363 . S
C522 C527 1.379 . S
C522 N529 1.356 . S
C523 C522 1.363 . S
C523 C526 1.363 . S
N524 C526 1.356 . S
N524 H536 0.984 . S
N524 H537 0.985 . S
N525 C527 1.356 . S
N525 H530 0.984 . S
N525 H531 0.985 . S
C526 C520 1.379 . S
C526 C523 1.363 . S
C526 N524 1.356 . S
C527 C521 1.363 . S
C527 C522 1.379 . S
C527 N525 1.356 . S
N528 C520 1.356 . S
N528 H534 0.984 . S
N528 H535 0.984 . S
N529 C522 1.356 . S
N529 H532 0.984 . S
N529 H533 0.985 . S
H530 N525 0.984 . S
H531 N525 0.985 . S
H532 N529 0.984 . S
H533 N529 0.985 . S
H534 N528 0.984 . S
H535 N528 0.984 . S
H536 N524 0.984 . S
H537 N524 0.985 . S
C538 C539 1.363 . S
C538 C544 1.379 . S
C538 N546 1.356 . S
C539 C538 1.363 . S
C539 C545 1.363 . S
C540 C541 1.363 . S
C540 C545 1.379 . S
C540 N547 1.356 . S
C541 C540 1.363 . S
C541 C544 1.363 . S
N542 C544 1.356 . S
N542 H554 0.984 . S
N542 H555 0.985 . S
N543 C545 1.356 . S
N543 H548 0.984 . S
N543 H549 0.985 . S
C544 C538 1.379 . S
C544 C541 1.363 . S
C544 N542 1.356 . S
C545 C539 1.363 . S
C545 C540 1.379 . S
C545 N543 1.356 . S
N546 C538 1.356 . S
N546 H552 0.984 . S
N546 H553 0.984 . S
N547 C540 1.356 . S
N547 H550 0.984 . S
N547 H551 0.985 . S
H548 N543 0.984 . S
H549 N543 0.985 . S
H550 N547 0.984 . S
H551 N547 0.985 . S
H552 N546 0.984 . S
H553 N546 0.984 . S
H554 N542 0.984 . S
H555 N542 0.985 . S
C556 C557 1.363 . S
C556 C562 1.379 . S
C556 N564 1.356 . S
C557 C556 1.363 . S
C557 C563 1.363 . S
C558 C559 1.363 . S
C558 C563 1.379 . S
C558 N565 1.356 1_556 S
C559 C558 1.363 . S
C559 C562 1.363 . S
N560 C562 1.356 . S
N560 H572 0.984 . S
N560 H573 0.985 . S
N561 C563 1.356 . S
N561 H566 0.984 . S
N561 H567 0.985 . S
C562 C556 1.379 . S
C562 C559 1.363 . S
C562 N560 1.356 . S
C563 C557 1.363 . S
C563 C558 1.379 . S
C563 N561 1.356 . S
N564 C556 1.356 . S
N564 H570 0.984 . S
N564 H571 0.984 . S
N565 C558 1.356 1_554 S
N565 H568 0.984 . S
N565 H569 0.985 . S
H566 N561 0.984 . S
H567 N561 0.985 . S
H568 N565 0.984 . S
H569 N565 0.985 . S
H570 N564 0.984 . S
H571 N564 0.984 . S
H572 N560 0.984 . S
H573 N560 0.985 . S
C574 C575 1.363 . S
C574 C580 1.379 . S
C574 N582 1.356 . S
C575 C574 1.363 . S
C575 C581 1.363 . S
C576 C577 1.363 . S
C576 C581 1.379 . S
C576 N583 1.356 . S
C577 C576 1.363 . S
C577 C580 1.363 . S
N578 C580 1.356 . S
N578 H590 0.984 . S
N578 H591 0.985 . S
N579 C581 1.356 . S
N579 H584 0.984 . S
N579 H585 0.985 . S
C580 C574 1.379 . S
C580 C577 1.363 . S
C580 N578 1.356 . S
C581 C575 1.363 . S
C581 C576 1.379 . S
C581 N579 1.356 . S
N582 C574 1.356 . S
N582 H588 0.984 . S
N582 H589 0.984 . S
N583 C576 1.356 . S
N583 H586 0.984 . S
N583 H587 0.985 . S
H584 N579 0.984 . S
H585 N579 0.985 . S
H586 N583 0.984 . S
H587 N583 0.985 . S
H588 N582 0.984 . S
H589 N582 0.984 . S
H590 N578 0.984 . S
H591 N578 0.985 . S
C592 C593 1.363 . S
C592 C598 1.379 . S
C592 N600 1.356 . S
C593 C592 1.363 . S
C593 C599 1.363 . S
C594 C595 1.363 . S
C594 C599 1.379 . S
C594 N601 1.356 . S
C595 C594 1.363 . S
C595 C598 1.363 . S
N596 C598 1.356 . S
N596 H608 0.984 . S
N596 H609 0.985 . S
N597 C599 1.356 . S
N597 H602 0.984 . S
N597 H603 0.985 . S
C598 C592 1.379 . S
C598 C595 1.363 . S
C598 N596 1.356 . S
C599 C593 1.363 . S
C599 C594 1.379 . S
C599 N597 1.356 . S
N600 C592 1.356 . S
N600 H606 0.984 . S
N600 H607 0.984 . S
N601 C594 1.356 . S
N601 H604 0.984 . S
N601 H605 0.985 . S
H602 N597 0.984 . S
H603 N597 0.985 . S
H604 N601 0.984 . S
H605 N601 0.985 . S
H606 N600 0.984 . S
H607 N600 0.984 . S
H608 N596 0.984 . S
H609 N596 0.985 . S
C610 C611 1.363 . S
C610 C616 1.379 . S
C610 N618 1.356 . S
C611 C610 1.363 . S
C611 C617 1.363 . S
C612 C613 1.363 . S
C612 C617 1.379 . S
C612 N619 1.356 . S
C613 C612 1.363 . S
C613 C616 1.363 . S
N614 C616 1.356 . S
N614 H626 0.984 . S
N614 H627 0.985 . S
N615 C617 1.356 . S
N615 H620 0.984 . S
N615 H621 0.985 . S
C616 C610 1.379 . S
C616 C613 1.363 . S
C616 N614 1.356 . S
C617 C611 1.363 . S
C617 C612 1.379 . S
C617 N615 1.356 . S
N618 C610 1.356 . S
N618 H624 0.984 . S
N618 H625 0.984 . S
N619 C612 1.356 . S
N619 H622 0.984 . S
N619 H623 0.985 1_556 S
H620 N615 0.984 . S
H621 N615 0.985 . S
H622 N619 0.984 . S
H623 N619 0.985 1_554 S
H624 N618 0.984 . S
H625 N618 0.984 . S
H626 N614 0.984 . S
H627 N614 0.985 . S
C628 C629 1.363 . S
C628 C634 1.379 . S
C628 N636 1.356 . S
C629 C628 1.363 . S
C629 C635 1.363 . S
C630 C631 1.363 . S
C630 C635 1.379 . S
C630 N637 1.356 . S
C631 C630 1.363 . S
C631 C634 1.363 . S
N632 C634 1.356 . S
N632 H644 0.984 1_655 S
N632 H645 0.985 . S
N633 C635 1.356 . S
N633 H638 0.984 . S
N633 H639 0.985 . S
C634 C628 1.379 . S
C634 C631 1.363 . S
C634 N632 1.356 . S
C635 C629 1.363 . S
C635 C630 1.379 . S
C635 N633 1.356 . S
N636 C628 1.356 . S
N636 H642 0.984 . S
N636 H643 0.984 . S
N637 C630 1.356 . S
N637 H640 0.984 . S
N637 H641 0.985 . S
H638 N633 0.984 . S
H639 N633 0.985 . S
H640 N637 0.984 . S
H641 N637 0.985 . S
H642 N636 0.984 . S
H643 N636 0.984 . S
H644 N632 0.984 1_455 S
H645 N632 0.985 . S
C646 C647 1.363 . S
C646 C652 1.379 . S
C646 N654 1.356 . S
C647 C646 1.363 . S
C647 C653 1.363 . S
C648 C649 1.363 . S
C648 C653 1.379 . S
C648 N655 1.356 . S
C649 C648 1.363 . S
C649 C652 1.363 . S
N650 C652 1.356 . S
N650 H662 0.984 . S
N650 H663 0.985 . S
N651 C653 1.356 . S
N651 H656 0.984 . S
N651 H657 0.985 . S
C652 C646 1.379 . S
C652 C649 1.363 . S
C652 N650 1.356 . S
C653 C647 1.363 . S
C653 C648 1.379 . S
C653 N651 1.356 . S
N654 C646 1.356 . S
N654 H660 0.984 . S
N654 H661 0.984 . S
N655 C648 1.356 . S
N655 H658 0.984 . S
N655 H659 0.985 . S
H656 N651 0.984 . S
H657 N651 0.985 . S
H658 N655 0.984 . S
H659 N655 0.985 . S
H660 N654 0.984 . S
H661 N654 0.984 . S
H662 N650 0.984 . S
H663 N650 0.985 . S
C664 C665 1.363 . S
C664 C670 1.379 . S
C664 N672 1.356 . S
C665 C664 1.363 . S
C665 C671 1.363 . S
C666 C667 1.363 . S
C666 C671 1.379 . S
C666 N673 1.356 . S
C667 C666 1.363 . S
C667 C670 1.363 . S
N668 C670 1.356 . S
N668 H680 0.984 . S
N668 H681 0.985 . S
N669 C671 1.356 . S
N669 H674 0.984 . S
N669 H675 0.985 . S
C670 C664 1.379 . S
C670 C667 1.363 . S
C670 N668 1.356 . S
C671 C665 1.363 . S
C671 C666 1.379 . S
C671 N669 1.356 . S
N672 C664 1.356 . S
N672 H678 0.984 . S
N672 H679 0.984 . S
N673 C666 1.356 . S
N673 H676 0.984 . S
N673 H677 0.985 . S
H674 N669 0.984 . S
H675 N669 0.985 . S
H676 N673 0.984 . S
H677 N673 0.985 . S
H678 N672 0.984 . S
H679 N672 0.984 . S
H680 N668 0.984 . S
H681 N668 0.985 . S
C682 C683 1.363 . S
C682 C688 1.379 . S
C682 N690 1.356 . S
C683 C682 1.363 . S
C683 C689 1.363 . S
C684 C685 1.363 . S
C684 C689 1.379 . S
C684 N691 1.356 . S
C685 C684 1.363 . S
C685 C688 1.363 . S
N686 C688 1.356 . S
N686 H698 0.984 . S
N686 H699 0.985 . S
N687 C689 1.356 . S
N687 H692 0.984 . S
N687 H693 0.985 . S
C688 C682 1.379 . S
C688 C685 1.363 . S
C688 N686 1.356 . S
C689 C683 1.363 . S
C689 C684 1.379 . S
C689 N687 1.356 . S
N690 C682 1.356 . S
N690 H696 0.984 . S
N690 H697 0.984 . S
N691 C684 1.356 . S
N691 H694 0.984 . S
N691 H695 0.985 . S
H692 N687 0.984 . S
H693 N687 0.985 . S
H694 N691 0.984 . S
H695 N691 0.985 . S
H696 N690 0.984 . S
H697 N690 0.984 . S
H698 N686 0.984 . S
H699 N686 0.985 . S
C700 C701 1.363 . S
C700 C706 1.379 . S
C700 N708 1.356 . S
C701 C700 1.363 . S
C701 C707 1.363 . S
C702 C703 1.363 . S
C702 C707 1.379 . S
C702 N709 1.356 . S
C703 C702 1.363 . S
C703 C706 1.363 . S
N704 C706 1.356 . S
N704 H716 0.984 . S
N704 H717 0.985 . S
N705 C707 1.356 . S
N705 H710 0.984 . S
N705 H711 0.985 . S
C706 C700 1.379 . S
C706 C703 1.363 . S
C706 N704 1.356 . S
C707 C701 1.363 . S
C707 C702 1.379 . S
C707 N705 1.356 . S
N708 C700 1.356 . S
N708 H714 0.984 . S
N708 H715 0.984 . S
N709 C702 1.356 . S
N709 H712 0.984 . S
N709 H713 0.985 . S
H710 N705 0.984 . S
H711 N705 0.985 . S
H712 N709 0.984 . S
H713 N709 0.985 . S
H714 N708 0.984 . S
H715 N708 0.984 . S
H716 N704 0.984 . S
H717 N704 0.985 . S
C718 C719 1.363 . S
C718 C724 1.379 . S
C718 N726 1.356 . S
C719 C718 1.363 . S
C719 C725 1.363 . S
C720 C721 1.363 . S
C720 C725 1.379 . S
C720 N727 1.356 . S
C721 C720 1.363 . S
C721 C724 1.363 . S
N722 C724 1.356 . S
N722 H734 0.984 1_455 S
N722 H735 0.985 . S
N723 C725 1.356 . S
N723 H728 0.984 . S
N723 H729 0.985 . S
C724 C718 1.379 . S
C724 C721 1.363 . S
C724 N722 1.356 . S
C725 C719 1.363 . S
C725 C720 1.379 . S
C725 N723 1.356 . S
N726 C718 1.356 . S
N726 H732 0.984 . S
N726 H733 0.984 . S
N727 C720 1.356 . S
N727 H730 0.984 . S
N727 H731 0.985 . S
H728 N723 0.984 . S
H729 N723 0.985 . S
H730 N727 0.984 . S
H731 N727 0.985 . S
H732 N726 0.984 . S
H733 N726 0.984 . S
H734 N722 0.984 1_655 S
H735 N722 0.985 . S
C736 C737 1.363 . S
C736 C742 1.379 . S
C736 N744 1.356 . S
C737 C736 1.363 . S
C737 C743 1.363 . S
C738 C739 1.363 . S
C738 C743 1.379 . S
C738 N745 1.356 . S
C739 C738 1.363 . S
C739 C742 1.363 . S
N740 C742 1.356 . S
N740 H752 0.984 . S
N740 H753 0.985 . S
N741 C743 1.356 . S
N741 H746 0.984 . S
N741 H747 0.985 . S
C742 C736 1.379 . S
C742 C739 1.363 . S
C742 N740 1.356 . S
C743 C737 1.363 . S
C743 C738 1.379 . S
C743 N741 1.356 . S
N744 C736 1.356 . S
N744 H750 0.984 . S
N744 H751 0.984 . S
N745 C738 1.356 . S
N745 H748 0.984 . S
N745 H749 0.985 . S
H746 N741 0.984 . S
H747 N741 0.985 . S
H748 N745 0.984 . S
H749 N745 0.985 . S
H750 N744 0.984 . S
H751 N744 0.984 . S
H752 N740 0.984 . S
H753 N740 0.985 . S
C754 C755 1.363 . S
C754 C760 1.379 . S
C754 N762 1.356 . S
C755 C754 1.363 . S
C755 C761 1.363 . S
C756 C757 1.363 . S
C756 C761 1.379 . S
C756 N763 1.356 . S
C757 C756 1.363 . S
C757 C760 1.363 . S
N758 C760 1.356 . S
N758 H770 0.984 . S
N758 H771 0.985 . S
N759 C761 1.356 . S
N759 H764 0.984 . S
N759 H765 0.985 . S
C760 C754 1.379 . S
C760 C757 1.363 . S
C760 N758 1.356 . S
C761 C755 1.363 . S
C761 C756 1.379 . S
C761 N759 1.356 . S
N762 C754 1.356 . S
N762 H768 0.984 . S
N762 H769 0.984 . S
N763 C756 1.356 . S
N763 H766 0.984 . S
N763 H767 0.985 . S
H764 N759 0.984 . S
H765 N759 0.985 . S
H766 N763 0.984 . S
H767 N763 0.985 . S
H768 N762 0.984 . S
H769 N762 0.984 . S
H770 N758 0.984 . S
H771 N758 0.985 . S
C772 C773 1.363 . S
C772 C778 1.379 . S
C772 N780 1.356 . S
C773 C772 1.363 . S
C773 C779 1.363 . S
C774 C775 1.363 . S
C774 C779 1.379 . S
C774 N781 1.356 . S
C775 C774 1.363 . S
C775 C778 1.363 . S
N776 C778 1.356 . S
N776 H788 0.984 . S
N776 H789 0.985 . S
N777 C779 1.356 . S
N777 H782 0.984 . S
N777 H783 0.985 . S
C778 C772 1.379 . S
C778 C775 1.363 . S
C778 N776 1.356 . S
C779 C773 1.363 . S
C779 C774 1.379 . S
C779 N777 1.356 . S
N780 C772 1.356 . S
N780 H786 0.984 . S
N780 H787 0.984 . S
N781 C774 1.356 . S
N781 H784 0.984 . S
N781 H785 0.985 . S
H782 N777 0.984 . S
H783 N777 0.985 . S
H784 N781 0.984 . S
H785 N781 0.985 . S
H786 N780 0.984 . S
H787 N780 0.984 . S
H788 N776 0.984 . S
H789 N776 0.985 . S
C790 C791 1.363 . S
C790 C796 1.379 . S
C790 N798 1.356 . S
C791 C790 1.363 . S
C791 C797 1.363 . S
C792 C793 1.363 . S
C792 C797 1.379 . S
C792 N799 1.356 . S
C793 C792 1.363 . S
C793 C796 1.363 . S
N794 C796 1.356 . S
N794 H806 0.984 . S
N794 H807 0.985 . S
N795 C797 1.356 . S
N795 H800 0.984 . S
N795 H801 0.985 . S
C796 C790 1.379 . S
C796 C793 1.363 . S
C796 N794 1.356 . S
C797 C791 1.363 . S
C797 C792 1.379 . S
C797 N795 1.356 . S
N798 C790 1.356 . S
N798 H804 0.984 . S
N798 H805 0.984 . S
N799 C792 1.356 . S
N799 H802 0.984 . S
N799 H803 0.985 . S
H800 N795 0.984 . S
H801 N795 0.985 . S
H802 N799 0.984 . S
H803 N799 0.985 . S
H804 N798 0.984 . S
H805 N798 0.984 . S
H806 N794 0.984 . S
H807 N794 0.985 . S
C808 C809 1.363 . S
C808 C814 1.379 . S
C808 N816 1.356 . S
C809 C808 1.363 . S
C809 C815 1.363 . S
C810 C811 1.363 . S
C810 C815 1.379 . S
C810 N817 1.356 . S
C811 C810 1.363 . S
C811 C814 1.363 . S
N812 C814 1.356 . S
N812 H824 0.984 . S
N812 H825 0.985 . S
N813 C815 1.356 . S
N813 H818 0.984 . S
N813 H819 0.985 . S
C814 C808 1.379 . S
C814 C811 1.363 . S
C814 N812 1.356 . S
C815 C809 1.363 . S
C815 C810 1.379 . S
C815 N813 1.356 . S
N816 C808 1.356 . S
N816 H822 0.984 . S
N816 H823 0.984 . S
N817 C810 1.356 . S
N817 H820 0.984 . S
N817 H821 0.985 . S
H818 N813 0.984 . S
H819 N813 0.985 . S
H820 N817 0.984 . S
H821 N817 0.985 . S
H822 N816 0.984 . S
H823 N816 0.984 . S
H824 N812 0.984 . S
H825 N812 0.985 . S
C826 C827 1.363 . S
C826 C832 1.379 . S
C826 N834 1.356 . S
C827 C826 1.363 . S
C827 C833 1.363 . S
C828 C829 1.363 . S
C828 C833 1.379 . S
C828 N835 1.356 . S
C829 C828 1.363 . S
C829 C832 1.363 . S
N830 C832 1.356 . S
N830 H842 0.984 . S
N830 H843 0.985 . S
N831 C833 1.356 . S
N831 H836 0.984 . S
N831 H837 0.985 . S
C832 C826 1.379 . S
C832 C829 1.363 . S
C832 N830 1.356 . S
C833 C827 1.363 . S
C833 C828 1.379 . S
C833 N831 1.356 . S
N834 C826 1.356 . S
N834 H840 0.984 . S
N834 H841 0.984 . S
N835 C828 1.356 . S
N835 H838 0.984 . S
N835 H839 0.985 . S
H836 N831 0.984 . S
H837 N831 0.985 . S
H838 N835 0.984 . S
H839 N835 0.985 . S
H840 N834 0.984 . S
H841 N834 0.984 . S
H842 N830 0.984 . S
H843 N830 0.985 . S
C844 C845 1.363 . S
C844 C850 1.379 . S
C844 N852 1.356 . S
C845 C844 1.363 . S
C845 C851 1.363 . S
C846 C847 1.363 . S
C846 C851 1.379 . S
C846 N853 1.356 . S
C847 C846 1.363 . S
C847 C850 1.363 . S
N848 C850 1.356 . S
N848 H860 0.984 . S
N848 H861 0.985 . S
N849 C851 1.356 . S
N849 H854 0.984 . S
N849 H855 0.985 . S
C850 C844 1.379 . S
C850 C847 1.363 . S
C850 N848 1.356 . S
C851 C845 1.363 . S
C851 C846 1.379 . S
C851 N849 1.356 . S
N852 C844 1.356 . S
N852 H858 0.984 . S
N852 H859 0.984 . S
N853 C846 1.356 . S
N853 H856 0.984 . S
N853 H857 0.985 . S
H854 N849 0.984 . S
H855 N849 0.985 . S
H856 N853 0.984 . S
H857 N853 0.985 . S
H858 N852 0.984 . S
H859 N852 0.984 . S
H860 N848 0.984 . S
H861 N848 0.985 . S
C862 C863 1.363 . S
C862 C868 1.379 . S
C862 N870 1.356 . S
C863 C862 1.363 . S
C863 C869 1.363 . S
C864 C865 1.363 . S
C864 C869 1.379 . S
C864 N871 1.356 . S
C865 C864 1.363 . S
C865 C868 1.363 . S
N866 C868 1.356 . S
N866 H878 0.984 . S
N866 H879 0.985 . S
N867 C869 1.356 . S
N867 H872 0.984 . S
N867 H873 0.985 . S
C868 C862 1.379 . S
C868 C865 1.363 . S
C868 N866 1.356 . S
C869 C863 1.363 . S
C869 C864 1.379 . S
C869 N867 1.356 . S
N870 C862 1.356 . S
N870 H876 0.984 . S
N870 H877 0.984 . S
N871 C864 1.356 . S
N871 H874 0.984 . S
N871 H875 0.985 . S
H872 N867 0.984 . S
H873 N867 0.985 . S
H874 N871 0.984 . S
H875 N871 0.985 . S
H876 N870 0.984 . S
H877 N870 0.984 . S
H878 N866 0.984 . S
H879 N866 0.985 . S
C449 C1 1.360 . S
C451 C295 1.413 . S
C467 C67 1.112 . S
C469 C344 1.106 . S
C487 C370 2.479 . S
C485 C97 2.519 . S
C503 C133 2.469 . S
C505 C418 2.413 . S
C523 C330 2.637 . S
C521 C25 2.481 . S
C541 C298 0.857 . S
C539 C37 0.877 . S
C559 C419 1.931 . S
C557 C103 1.991 . S
C577 C387 1.701 . S
C575 C109 1.717 . S
C593 C31 1.739 . S
C595 C415 1.836 . S
C613 C347 2.332 . S
C611 C73 2.419 . S
C629 C139 2.372 . S
C631 C299 2.365 . S
C647 C61 1.095 . S
C649 C384 1.139 . S
C667 C304 1.411 . S
C665 C175 1.282 . S
C683 C181 1.078 . S
C685 C335 1.092 . S
C701 C247 2.547 . S
C703 C379 2.501 . S
C719 C277 2.452 . S
C721 C427 2.400 . S
C737 C145 2.358 . S
C739 C339 2.626 . S
C757 C307 0.862 . S
C755 C211 0.875 . S
C775 C410 1.920 . S
C773 C217 1.960 . S
C793 C378 1.717 . S
C791 C283 1.727 . S
C809 C169 1.640 . S
C811 C424 1.829 . S
C829 C338 2.339 . S
C827 C241 2.425 . S
C847 C290 2.349 . S
C845 C253 2.363 . S
C863 C205 1.130 . S
C865 C375 1.148 . S
