# Generated by pormake.
# Topology pyr, (3,6)-cn, num edge types: 1
# Building blocks:
#     Node 0, Type 0, BuildingBlock: CUQRIR_clean_linker_1, # of connection points: 3
#     Node 1, Type 0, BuildingBlock: CUQRIR_clean_linker_1, # of connection points: 3
#     Node 2, Type 0, BuildingBlock: CUQRIR_clean_linker_1, # of connection points: 3
#     Node 3, Type 0, BuildingBlock: CUQRIR_clean_linker_1, # of connection points: 3
#     Node 4, Type 0, BuildingBlock: CUQRIR_clean_linker_1, # of connection points: 3
#     Node 5, Type 0, BuildingBlock: CUQRIR_clean_linker_1, # of connection points: 3
#     Node 6, Type 0, BuildingBlock: CUQRIR_clean_linker_1, # of connection points: 3
#     Node 7, Type 0, BuildingBlock: CUQRIR_clean_linker_1, # of connection points: 3
#     Node 8, Type 1, BuildingBlock: BETFEN_clean_sbu_0, # of connection points: 6
#     Node 9, Type 1, BuildingBlock: BETFEN_clean_sbu_0, # of connection points: 6
#     Node 10, Type 1, BuildingBlock: BETFEN_clean_sbu_0, # of connection points: 6
#     Node 11, Type 1, BuildingBlock: BETFEN_clean_sbu_0, # of connection points: 6
#     Edge 12, Type (0, 1), BuildingBlock: OJICUG_clean_linker_0, # of connection points: 2
#     Edge 13, Type (0, 1), BuildingBlock: OJICUG_clean_linker_0, # of connection points: 2
#     Edge 14, Type (0, 1), BuildingBlock: OJICUG_clean_linker_0, # of connection points: 2
#     Edge 15, Type (0, 1), BuildingBlock: OJICUG_clean_linker_0, # of connection points: 2
#     Edge 16, Type (0, 1), BuildingBlock: OJICUG_clean_linker_0, # of connection points: 2
#     Edge 17, Type (0, 1), BuildingBlock: OJICUG_clean_linker_0, # of connection points: 2
#     Edge 18, Type (0, 1), BuildingBlock: OJICUG_clean_linker_0, # of connection points: 2
#     Edge 19, Type (0, 1), BuildingBlock: OJICUG_clean_linker_0, # of connection points: 2
#     Edge 20, Type (0, 1), BuildingBlock: OJICUG_clean_linker_0, # of connection points: 2
#     Edge 21, Type (0, 1), BuildingBlock: OJICUG_clean_linker_0, # of connection points: 2
#     Edge 22, Type (0, 1), BuildingBlock: OJICUG_clean_linker_0, # of connection points: 2
#     Edge 23, Type (0, 1), BuildingBlock: OJICUG_clean_linker_0, # of connection points: 2
#     Edge 24, Type (0, 1), BuildingBlock: OJICUG_clean_linker_0, # of connection points: 2
#     Edge 25, Type (0, 1), BuildingBlock: OJICUG_clean_linker_0, # of connection points: 2
#     Edge 26, Type (0, 1), BuildingBlock: OJICUG_clean_linker_0, # of connection points: 2
#     Edge 27, Type (0, 1), BuildingBlock: OJICUG_clean_linker_0, # of connection points: 2
#     Edge 28, Type (0, 1), BuildingBlock: OJICUG_clean_linker_0, # of connection points: 2
#     Edge 29, Type (0, 1), BuildingBlock: OJICUG_clean_linker_0, # of connection points: 2
#     Edge 30, Type (0, 1), BuildingBlock: OJICUG_clean_linker_0, # of connection points: 2
#     Edge 31, Type (0, 1), BuildingBlock: OJICUG_clean_linker_0, # of connection points: 2
#     Edge 32, Type (0, 1), BuildingBlock: OJICUG_clean_linker_0, # of connection points: 2
#     Edge 33, Type (0, 1), BuildingBlock: OJICUG_clean_linker_0, # of connection points: 2
#     Edge 34, Type (0, 1), BuildingBlock: OJICUG_clean_linker_0, # of connection points: 2
#     Edge 35, Type (0, 1), BuildingBlock: OJICUG_clean_linker_0, # of connection points: 2
# Relax obj value: 0.298
# Max RMSD: 0.387
# Mean RMSD: 0.179
data_MOF--net-pyr--node1-BETFEN_clean_sbu_0--node2-CUQRIR_clean_linker_1--edge1-OJICUG_clean_linker_0
_symmetry_space_group_name_H-M    P1
_symmetry_Int_Tables_number       1
_symmetry_cell_setting            triclinic
loop_
_symmetry_equiv_pos_as_xyz
'x, y, z'
_cell_length_a     24.395138
_cell_length_b     27.89968
_cell_length_c     24.524837
_cell_angle_alpha  89.844059
_cell_angle_beta   104.43483
_cell_angle_gamma 119.39103
loop_
_atom_site_label
_atom_site_type_symbol
_atom_site_fract_x
_atom_site_fract_y
_atom_site_fract_z
_atom_type_partial_charge
C0 C 0.52162 0.49918 0.28755 0.0
N1 N 0.51464 0.44828 0.29133 0.0
N2 N 0.53855 0.51886 0.23995 0.0
C3 C 0.50602 0.52808 0.32804 0.0
C4 C 0.55279 0.48175 0.22098 0.0
N5 N 0.53621 0.43828 0.25058 0.0
C6 C 0.57166 0.48305 0.16687 0.0
H7 H 0.45759 0.52413 0.30835 0.0
H8 H 0.54344 0.573 0.33747 0.0
H9 H 0.5053 0.51023 0.3685 0.0
H10 H 0.61388 0.4761 0.17491 0.0
H11 H 0.58494 0.52346 0.15088 0.0
H12 H 0.53047 0.4488 0.13397 0.0
C13 C 0.30509 0.89806 0.66592 0.0
N14 N 0.29784 0.92577 0.70643 0.0
N15 N 0.31965 0.85984 0.68778 0.0
C16 C 0.2973 0.90749 0.60477 0.0
C17 C 0.3208 0.86496 0.74288 0.0
N18 N 0.30679 0.90457 0.75438 0.0
C19 C 0.34669 0.83827 0.78793 0.0
H20 H 0.25501 0.91392 0.58856 0.0
H21 H 0.28997 0.87177 0.57782 0.0
H22 H 0.3423 0.94534 0.60158 0.0
H23 H 0.35513 0.80694 0.76995 0.0
H24 H 0.31139 0.81789 0.81314 0.0
H25 H 0.39375 0.87079 0.81746 0.0
C26 C 0.56998 0.32065 0.85607 0.0
N27 N 0.60425 0.31347 0.90633 0.0
N28 N 0.60471 0.37315 0.84167 0.0
C29 C 0.50197 0.27763 0.82255 0.0
C30 C 0.66142 0.39651 0.88475 0.0
N31 N 0.66036 0.36155 0.92345 0.0
C32 C 0.7211 0.45234 0.88698 0.0
H33 H 0.50519 0.25241 0.78991 0.0
H34 H 0.47466 0.29764 0.80052 0.0
H35 H 0.47517 0.24952 0.85055 0.0
H36 H 0.72009 0.48452 0.9125 0.0
H37 H 0.72244 0.46377 0.84378 0.0
H38 H 0.76713 0.45249 0.90768 0.0
C39 C 0.85583 0.65218 0.34918 0.0
N40 N 0.9118 0.69211 0.33627 0.0
N41 N 0.85207 0.66581 0.40148 0.0
C42 C 0.80465 0.59931 0.31021 0.0
C43 C 0.90936 0.71434 0.42109 0.0
N44 N 0.94347 0.73346 0.38164 0.0
C45 C 0.93236 0.74498 0.48034 0.0
H46 H 0.78882 0.609 0.26726 0.0
H47 H 0.76117 0.57579 0.32607 0.0
H48 H 0.82621 0.573 0.3061 0.0
H49 H 0.91122 0.71597 0.51017 0.0
H50 H 0.91713 0.77653 0.47956 0.0
H51 H 0.98664 0.76669 0.4966 0.0
C52 C 0.63211 0.77481 0.8053 0.0
N53 N 0.65923 0.74263 0.80601 0.0
N54 N 0.64337 0.80722 0.76318 0.0
C55 C 0.6036 0.78067 0.85101 0.0
C56 C 0.67863 0.79315 0.73892 0.0
N57 N 0.68844 0.75411 0.76495 0.0
C58 C 0.70834 0.82062 0.69245 0.0
H59 H 0.55179 0.76914 0.83157 0.0
H60 H 0.63114 0.82454 0.87164 0.0
H61 H 0.60486 0.75358 0.88388 0.0
H62 H 0.7617 0.84991 0.71091 0.0
H63 H 0.68475 0.84341 0.67037 0.0
H64 H 0.70304 0.78897 0.66109 0.0
C65 C 0.83684 0.2533 0.49007 0.0
N66 N 0.85005 0.23093 0.44934 0.0
N67 N 0.80551 0.28073 0.46691 0.0
C68 C 0.85051 0.24555 0.5515 0.0
C69 C 0.80007 0.27385 0.4109 0.0
N70 N 0.82547 0.24254 0.39979 0.0
C71 C 0.75861 0.28874 0.36559 0.0
H72 H 0.80931 0.20571 0.55683 0.0
H73 H 0.85453 0.27975 0.57833 0.0
H74 H 0.89631 0.24378 0.56564 0.0
H75 H 0.75239 0.3219 0.38281 0.0
H76 H 0.70942 0.25131 0.34778 0.0
H77 H 0.78142 0.30311 0.3305 0.0
C78 C 0.40032 0.72769 0.3093 0.0
N79 N 0.4659 0.74638 0.32782 0.0
N80 N 0.37846 0.71588 0.25221 0.0
C81 C 0.35559 0.70892 0.34705 0.0
C82 C 0.43345 0.73279 0.23645 0.0
N83 N 0.48718 0.76327 0.2812 0.0
C84 C 0.43492 0.73242 0.17521 0.0
H85 H 0.32238 0.66318 0.33723 0.0
H86 H 0.32456 0.72826 0.33842 0.0
H87 H 0.38414 0.72047 0.39264 0.0
H88 H 0.41255 0.75615 0.15323 0.0
H89 H 0.40611 0.68924 0.15286 0.0
H90 H 0.48574 0.75044 0.17218 0.0
C91 C 0.13211 0.36815 0.78064 0.0
N92 N 0.16324 0.36553 0.74146 0.0
N93 N 0.15415 0.42172 0.8038 0.0
C94 C 0.07679 0.31789 0.79395 0.0
C95 C 0.20127 0.4515 0.77619 0.0
N96 N 0.20697 0.41827 0.7382 0.0
C97 C 0.24644 0.51326 0.79117 0.0
H98 H 0.04844 0.28475 0.75667 0.0
H99 H 1.04328 0.32867 0.8069 0.0
H100 H 0.09744 0.30152 0.8296 0.0
H101 H 0.25129 0.52742 0.83523 0.0
H102 H 0.2258 0.53445 0.76182 0.0
H103 H 0.29591 0.52557 0.78745 0.0
Pr104 Pr 1.02669 0.03809 0.56244 0.0
Pr105 Pr 0.10833 0.0834 0.5107 0.0
C106 C 0.94707 0.96661 0.61905 0.0
C107 C 0.93042 0.91162 0.63647 0.0
C108 C 0.97271 0.9053 0.68279 0.0
C109 C 0.95016 0.8559 0.7065 0.0
C110 C 0.88461 0.81277 0.68503 0.0
C111 C 0.84607 0.81645 0.6336 0.0
C112 C 0.86856 0.86565 0.60999 0.0
C113 C 0.08807 0.15417 0.60686 0.0
C114 C 0.16227 0.03859 0.61633 0.0
C115 C 0.18792 0.1353 0.4447 0.0
C116 C 0.23111 0.18176 0.41975 0.0
C117 C 0.2625 0.17135 0.38462 0.0
C118 C 0.30792 0.21477 0.36314 0.0
C119 C 0.32249 0.26942 0.37629 0.0
C120 C 0.2901 0.27971 0.41091 0.0
C121 C 0.24479 0.23607 0.43279 0.0
C122 C 0.04694 0.96543 0.47205 0.0
C123 C 0.98033 0.10215 0.47657 0.0
O124 O 0.92724 0.9683 0.56487 0.0
O125 O 1.00537 1.00831 0.64437 0.0
O126 O 0.11929 0.13077 0.59643 0.0
O127 O 1.02612 0.11792 0.5942 0.0
O128 O 0.18475 0.08204 0.58989 0.0
O129 O 0.09868 1.00736 0.60508 0.0
O130 O 0.20934 0.1325 0.49813 0.0
O131 O 0.1245 0.11428 0.42682 0.0
O132 O 1.01659 0.99146 0.47624 0.0
O133 O 0.10883 0.9996 0.49364 0.0
O134 O 0.95422 0.05498 0.49635 0.0
O135 O 1.04367 0.12669 0.48152 0.0
H136 H 1.02141 0.93971 0.7034 0.0
H137 H 0.98146 0.85393 0.7454 0.0
H138 H 0.79539 0.78424 0.61529 0.0
H139 H 0.8354 0.86907 0.57363 0.0
H140 H 0.25258 0.12955 0.37445 0.0
H141 H 0.33157 0.20558 0.33614 0.0
H142 H 0.30099 0.32162 0.4221 0.0
H143 H 0.22132 0.24473 0.46037 0.0
Pr144 Pr 0.50389 0.04243 0.11052 0.0
Pr145 Pr 0.59176 0.03276 0.079 0.0
C146 C 0.41409 0.04853 0.15026 0.0
C147 C 0.41341 0.09921 0.16619 0.0
C148 C 0.39241 0.1255 0.12381 0.0
C149 C 0.40863 0.18044 0.13599 0.0
C150 C 0.44583 0.20988 0.19075 0.0
C151 C 0.46156 0.18211 0.23428 0.0
C152 C 0.44514 0.12711 0.22219 0.0
C153 C 0.56424 0.13573 0.05145 0.0
C154 C 0.65043 0.11119 0.19223 0.0
C155 C 0.67434 0.02546 0.02955 0.0
C156 C 0.68103 0.02557 0.9721 0.0
C157 C 0.73133 1.01924 0.96281 0.0
C158 C 0.72877 1.0042 0.90786 0.0
C159 C 0.67518 0.99458 0.86141 0.0
C160 C 0.62923 1.00787 0.87044 0.0
C161 C 0.63219 1.02334 0.92569 0.0
C162 C 0.55779 0.9604 0.16459 0.0
C163 C 0.44744 0.97855 0.98478 0.0
O164 O 0.46152 0.0431 0.18259 0.0
O165 O 0.40499 0.0359 0.09633 0.0
O166 O 0.54697 0.08585 0.03576 0.0
O167 O 0.55657 0.13903 0.10145 0.0
O168 O 0.66268 0.11341 0.14326 0.0
O169 O 0.59065 0.07661 0.19407 0.0
O170 O 0.68689 0.0723 0.05492 0.0
O171 O 0.62221 0.98208 0.03659 0.0
O172 O 0.51652 0.96453 0.12367 0.0
O173 O 0.61646 0.99503 0.16224 0.0
O174 O 0.42717 0.98066 0.02881 0.0
O175 O 0.51024 0.99875 0.99195 0.0
H176 H 0.36726 0.10502 0.08032 0.0
H177 H 0.39543 0.20082 0.10178 0.0
H178 H 0.48863 0.20357 0.27726 0.0
H179 H 0.46115 0.10774 0.25595 0.0
H180 H 0.76957 1.02129 0.99833 0.0
H181 H 0.76504 0.99411 0.9031 0.0
H182 H 0.58802 1.00169 0.83558 0.0
H183 H 0.59366 0.02935 0.93238 0.0
Pr184 Pr 0.55771 0.58806 0.60475 0.0
Pr185 Pr 0.49586 0.49191 0.52668 0.0
C186 C 0.57891 0.68226 0.65743 0.0
C187 C 0.53692 0.707 0.65457 0.0
C188 C 0.49246 0.69055 0.68726 0.0
C189 C 0.45248 0.71363 0.68382 0.0
C190 C 0.45646 0.75397 0.64801 0.0
C191 C 0.50124 0.77071 0.61563 0.0
C192 C 0.54091 0.74735 0.61875 0.0
C193 C 0.57989 0.50613 0.6596 0.0
C194 C 0.40189 0.49528 0.60275 0.0
C195 C 0.47978 0.39761 0.47803 0.0
C196 C 0.52866 0.37947 0.48128 0.0
C197 C 0.58521 0.41118 0.46345 0.0
C198 C 0.63211 0.39494 0.46867 0.0
C199 C 0.62439 0.34673 0.4925 0.0
C200 C 0.56762 0.31502 0.51036 0.0
C201 C 0.52045 0.33116 0.50476 0.0
C202 C 0.47995 0.57849 0.47277 0.0
C203 C 0.65063 0.58299 0.52804 0.0
O204 O 0.59737 0.68071 0.61233 0.0
O205 O 0.56434 0.63759 0.68171 0.0
O206 O 0.52682 0.4982 0.6252 0.0
O207 O 0.6242 0.5588 0.66635 0.0
O208 O 0.40923 0.461 0.57192 0.0
O209 O 0.44636 0.54889 0.61013 0.0
O210 O 0.46538 0.40062 0.52506 0.0
O211 O 0.48523 0.43894 0.45013 0.0
O212 O 0.53104 0.58334 0.50747 0.0
O213 O 0.43366 0.526 0.4638 0.0
O214 O 0.64356 0.61766 0.55866 0.0
O215 O 0.60596 0.52969 0.52055 0.0
H216 H 0.48871 0.66009 0.7158 0.0
H217 H 0.41964 0.70091 0.71041 0.0
H218 H 0.50546 0.80177 0.58776 0.0
H219 H 0.57496 0.76109 0.59324 0.0
H220 H 0.59284 0.44825 0.44454 0.0
H221 H 0.67393 0.41985 0.45292 0.0
H222 H 0.55983 0.27793 0.52934 0.0
H223 H 0.4776 0.30599 0.51918 0.0
Pr224 Pr 0.99829 0.57326 1.02765 0.0
Pr225 Pr 0.04848 0.5195 0.11461 0.0
C226 C 0.92752 0.59476 0.93938 0.0
C227 C 0.87819 0.61112 0.93303 0.0
C228 C 0.87444 0.63695 0.97992 0.0
C229 C 0.82535 0.65047 0.97357 0.0
C230 C 0.77906 0.63756 0.92045 0.0
C231 C 0.782 0.60993 0.87422 0.0
C232 C 0.8312 0.59685 0.88054 0.0
C233 C 0.12895 0.63833 0.09122 0.0
C234 C 0.99054 0.59928 0.16125 0.0
C235 C 0.12765 0.49116 0.18462 0.0
C236 C 0.18988 0.49703 0.18117 0.0
C237 C 0.24244 0.51524 0.23051 0.0
C238 C 0.30445 0.52898 0.22663 0.0
C239 C 0.31545 0.52655 0.17339 0.0
C240 C 0.26242 0.50688 0.1241 0.0
C241 C 0.20009 0.49198 0.12802 0.0
C242 C 0.91285 0.46043 0.07216 0.0
C243 C 0.0658 0.50397 0.97918 0.0
O244 O 0.90897 0.54491 0.95295 0.0
O245 O 0.98792 0.63177 0.96742 0.0
O246 O 0.10007 0.5895 0.06746 0.0
O247 O 0.08909 0.65766 0.0836 0.0
O248 O 1.03255 0.58013 0.17589 0.0
O249 O 0.96277 0.59394 0.1054 0.0
O250 O 0.13017 0.53847 0.19413 0.0
O251 O 0.0743 0.45473 0.14582 0.0
O252 O 0.95295 0.48251 0.04364 0.0
O253 O 0.94215 0.46569 0.12564 0.0
O254 O 1.04198 0.53835 0.96727 0.0
O255 O 0.07029 0.48902 0.03155 0.0
H256 H 0.90969 0.64698 1.02119 0.0
H257 H 0.82422 0.6718 1.00974 0.0
H258 H 0.74797 0.60048 0.83238 0.0
H259 H 0.83282 0.57591 0.84433 0.0
H260 H 0.23572 0.5195 0.27191 0.0
H261 H 0.34361 0.54043 0.26528 0.0
H262 H 0.26923 0.50315 0.08265 0.0
H263 H 0.16042 0.47771 0.08931 0.0
C264 C 0.48034 0.36436 0.33947 0.0
C265 C 0.4679 0.40504 0.3157 0.0
H266 H 0.44363 0.28879 0.37598 0.0
C267 C 0.40592 0.39924 0.30981 0.0
H268 H 0.52719 0.36735 0.34402 0.0
C269 C 0.35914 0.35576 0.33018 0.0
C270 C 0.372 0.31548 0.35444 0.0
H271 H 0.39271 0.42745 0.2881 0.0
H272 H 0.31218 0.35277 0.32553 0.0
C273 C 0.43244 0.31941 0.3576 0.0
C274 C 0.39327 0.98049 0.82725 0.0
C275 C 0.32999 0.93389 0.8108 0.0
H276 H 0.4805 0.02953 0.89501 0.0
C277 C 0.30134 0.90661 0.85315 0.0
H278 H 0.41664 1.00137 0.79528 0.0
C279 C 0.33796 0.92248 0.91072 0.0
C280 C 0.40399 0.96506 0.92613 0.0
H281 H 0.25291 0.86988 0.8411 0.0
H282 H 0.31631 0.89904 0.9424 0.0
C283 C 0.43022 0.99546 0.88418 0.0
C284 C 0.604 0.45763 0.80663 0.0
C285 C 0.5886 0.40202 0.79493 0.0
H286 H 0.61588 0.53317 0.77443 0.0
C287 C 0.56609 0.37961 0.73676 0.0
H288 H 0.62003 0.47665 0.85027 0.0
C289 C 0.56163 0.41233 0.69271 0.0
C290 C 0.58136 0.46905 0.70524 0.0
H291 H 0.55407 0.33745 0.72525 0.0
H292 H 0.54484 0.39372 0.64877 0.0
C293 C 0.6018 0.49049 0.76303 0.0
C294 C 0.98844 0.66273 0.30844 0.0
C295 C 0.93938 0.67829 0.29315 0.0
H296 H 1.04253 0.62753 0.28318 0.0
C297 C 0.90841 0.66717 0.23326 0.0
H298 H 1.01292 0.66755 0.35312 0.0
C299 C 0.92538 0.64336 0.19223 0.0
C300 C 0.97395 0.62722 0.20728 0.0
H301 H 0.86913 0.67593 0.21767 0.0
H302 H 0.89868 0.63648 0.14783 0.0
C303 C 1.00512 0.63843 0.2673 0.0
C304 C 0.55996 0.36295 0.24553 0.0
C305 C 0.51746 0.38351 0.22777 0.0
H306 H 0.57005 0.29091 0.2479 0.0
C307 C 0.45275 0.34797 0.19465 0.0
H308 H 0.6098 0.39016 0.27162 0.0
C309 C 0.4296 0.29155 0.18164 0.0
C310 C 0.471 0.27005 0.20182 0.0
H311 H 0.41944 0.36364 0.18151 0.0
H312 H 0.37873 0.26445 0.15779 0.0
C313 C 0.53682 0.30639 0.23281 0.0
C314 C 0.21302 0.94904 0.70664 0.0
C315 C 0.27301 0.96351 0.69674 0.0
H316 H 0.13098 0.96165 0.68898 0.0
C317 C 0.30169 1.00935 0.6681 0.0
H318 H 0.18998 0.91377 0.72841 0.0
C319 C 0.26803 0.037 0.64527 0.0
C320 C 0.20499 1.01899 0.65059 0.0
H321 H 0.34837 1.02158 0.66051 0.0
H322 H 0.28945 0.06987 0.62037 0.0
C323 C 0.17916 0.97624 0.68357 0.0
C324 C 0.75883 0.35609 0.96395 0.0
C325 C 0.71531 0.37295 0.97081 0.0
H326 H 0.85738 0.37174 0.99159 0.0
C327 C 0.73382 0.41178 1.01774 0.0
H328 H 0.74544 0.32702 0.92722 0.0
C329 C 0.79716 0.43662 0.05518 0.0
C330 C 0.84264 0.42358 0.04493 0.0
H331 H 0.70089 0.42587 1.02264 0.0
H332 H 0.81228 0.46945 0.08876 0.0
C333 C 0.82254 0.38182 1.0004 0.0
C334 C 0.76933 0.58768 0.44269 0.0
C335 C 0.79791 0.64244 0.42893 0.0
H336 H 0.70286 0.52652 0.48439 0.0
C337 C 0.77744 0.6769 0.44909 0.0
H338 H 0.78392 0.55969 0.42956 0.0
C339 C 0.73226 0.6584 0.48215 0.0
C340 C 0.70365 0.60383 0.49614 0.0
H341 H 0.79722 0.71913 0.43962 0.0
H342 H 0.71884 0.687 0.49602 0.0
C343 C 0.72287 0.56873 0.475 0.0
C344 C 0.44253 0.49473 0.15959 0.0
C345 C 0.49752 0.53568 0.20198 0.0
H346 H 0.34061 0.45973 0.11768 0.0
C347 C 0.49711 0.58346 0.21907 0.0
H348 H 0.4406 0.45729 0.14493 0.0
C349 C 0.43829 0.58415 0.20399 0.0
C350 C 0.38034 0.53767 0.17072 0.0
H351 H 0.5392 0.61627 0.25046 0.0
H352 H 0.43673 0.61839 0.22257 0.0
C353 C 0.38432 0.49565 0.14425 0.0
C354 C 0.59048 0.27432 0.99753 0.0
C355 C 0.58643 0.26623 0.93946 0.0
H356 H 0.58709 0.24145 0.07704 0.0
C357 C 0.57399 0.21373 0.91807 0.0
H358 H 0.60042 0.31393 1.0161 0.0
C359 C 0.56695 0.17164 0.95369 0.0
C360 C 0.57195 0.18026 1.01215 0.0
H361 H 0.57179 0.2058 0.87418 0.0
H362 H 0.55824 0.13238 0.93545 0.0
C363 C 0.58318 0.23247 0.03285 0.0
C364 C 1.03986 0.83001 0.41668 0.0
C365 C 0.97457 0.7948 0.38252 0.0
H366 H 0.11223 0.90781 0.47056 0.0
C367 C 0.93447 0.81967 0.37417 0.0
H368 H 0.07238 0.81334 0.42724 0.0
C369 C 0.95655 0.87395 0.40174 0.0
C370 C 1.02077 0.90741 0.43857 0.0
H371 H 0.88313 0.79443 0.35075 0.0
H372 H 0.92228 0.88883 0.39557 0.0
C373 C 0.06227 0.88447 0.44336 0.0
C374 C 0.4119 0.86483 0.66012 0.0
C375 C 0.34787 0.8331 0.66461 0.0
H376 H 0.49692 0.86452 0.65167 0.0
C377 C 0.31679 0.77502 0.65658 0.0
H378 H 0.43674 0.90978 0.66721 0.0
C379 C 0.35099 0.74896 0.64812 0.0
C380 C 0.4168 0.78075 0.64751 0.0
H381 H 0.26755 0.75021 0.66052 0.0
H382 H 0.32685 0.70408 0.64432 0.0
C383 C 0.44616 0.83888 0.6515 0.0
C384 C 0.73725 0.71157 0.72078 0.0
C385 C 0.74296 0.74714 0.76475 0.0
H386 H 0.78341 0.70298 0.66091 0.0
C387 C 0.80557 0.78845 0.79681 0.0
H388 H 0.68995 0.67753 0.69734 0.0
C389 C 0.8595 0.80233 0.77701 0.0
C390 C 0.85004 0.77619 0.72374 0.0
H391 H 0.81108 0.81595 0.8314 0.0
H392 H 0.90474 0.84026 0.79767 0.0
C393 C 0.79121 0.72573 0.7005 0.0
C394 C 0.74178 0.1516 0.34749 0.0
C395 C 0.79519 0.2042 0.34826 0.0
H396 H 0.65314 0.08155 0.29725 0.0
C397 C 0.80586 0.22311 0.29675 0.0
H398 H 0.73234 0.13692 0.38694 0.0
C399 C 0.76021 0.19161 0.24508 0.0
C400 C 0.70329 0.14152 0.24494 0.0
H401 H 0.84647 0.264 0.29686 0.0
H402 H 0.76726 0.20804 0.20574 0.0
C403 C 0.69586 0.12071 0.29633 0.0
C404 C 0.5204 0.72185 0.4182 0.0
C405 C 0.47962 0.70658 0.3614 0.0
H406 H 0.55389 0.69523 0.49657 0.0
C407 C 0.44094 0.64833 0.34236 0.0
H408 H 0.54983 0.76535 0.43607 0.0
C409 C 0.44056 0.60792 0.37798 0.0
C410 C 0.48062 0.62291 0.43459 0.0
H411 H 0.40712 0.63387 0.30021 0.0
H412 H 0.40819 0.56436 0.36109 0.0
C413 C 0.52185 0.68106 0.45347 0.0
C414 C 0.11765 0.48585 0.84055 0.0
C415 C 0.1325 0.44223 0.84747 0.0
H416 H 0.08563 0.53788 0.87233 0.0
C417 C 0.1248 0.41968 0.89925 0.0
H418 H 0.12173 0.5053 0.8024 0.0
C419 C 0.10444 0.43936 0.94074 0.0
C420 C 0.08881 0.48258 0.93362 0.0
H421 H 0.13548 0.3867 0.90848 0.0
H422 H 0.10055 0.41993 0.97894 0.0
C423 C 0.09619 0.50483 0.8816 0.0
C424 C 0.70385 0.90909 0.77146 0.0
C425 C 0.64391 0.85902 0.76266 0.0
H426 H 0.75942 0.99516 0.8052 0.0
C427 C 0.58874 0.86094 0.76674 0.0
H428 H 0.74754 0.90933 0.76883 0.0
C429 C 0.59639 0.90995 0.79063 0.0
C430 C 0.65941 0.9575 0.80973 0.0
H431 H 0.54164 0.82315 0.75851 0.0
H432 H 0.55489 0.90784 0.80141 0.0
C433 C 0.71089 0.95847 0.79306 0.0
C434 C 0.85691 0.14816 0.47869 0.0
C435 C 0.88182 0.19798 0.45543 0.0
H436 H 0.86702 0.07822 0.50191 0.0
C437 C 0.93688 0.21433 0.43538 0.0
H438 H 0.81373 0.13397 0.49327 0.0
C439 C 0.96816 0.18278 0.44066 0.0
C440 C 0.94379 0.13307 0.46455 0.0
H441 H 0.95643 0.2523 0.41661 0.0
H442 H 1.01177 0.19759 0.42657 0.0
C443 C 0.88714 0.11593 0.48279 0.0
C444 C 0.28617 0.64891 0.17505 0.0
C445 C 0.31363 0.6955 0.21537 0.0
H446 H 0.20846 0.59664 0.10265 0.0
C447 C 0.28081 0.72532 0.21474 0.0
H448 H 0.31104 0.62585 0.17496 0.0
C449 C 0.22068 0.70818 0.17369 0.0
C450 C 0.19388 0.6616 0.1328 0.0
H451 H 0.30245 0.76232 0.24508 0.0
H452 H 0.19535 0.73094 0.174 0.0
C453 C 0.22764 0.63261 0.13375 0.0
C454 C 0.27096 0.48514 0.67571 0.0
C455 C 0.25376 0.43642 0.70241 0.0
H456 H 0.32992 0.54218 0.626 0.0
C457 C 0.28496 0.40671 0.6933 0.0
H458 H 0.24812 0.50933 0.67927 0.0
C459 C 0.32968 0.42422 0.65939 0.0
C460 C 0.34806 0.47366 0.63421 0.0
H461 H 0.27623 0.37016 0.71351 0.0
H462 H 0.35207 0.39979 0.65476 0.0
C463 C 0.31782 0.50387 0.64381 0.0
C464 C 0.64129 0.65575 0.84049 0.0
C465 C 0.67205 0.71361 0.85094 0.0
H466 H 0.64971 0.58445 0.86 0.0
C467 C 0.72779 0.74326 0.89741 0.0
H468 H 0.59783 0.63245 0.80493 0.0
C469 C 0.75944 0.7166 0.92643 0.0
C470 C 0.73413 0.65984 0.9098 0.0
H471 H 0.75158 0.78809 0.90587 0.0
H472 H 0.80739 0.74171 0.95658 0.0
C473 C 0.67146 0.62871 0.87107 0.0
C474 C 0.47991 0.84959 0.26148 0.0
C475 C 0.51734 0.82228 0.27039 0.0
H476 H 0.45954 0.90999 0.21962 0.0
C477 C 0.57156 0.84538 0.2477 0.0
H478 H 0.43703 0.83372 0.27675 0.0
C479 C 0.58502 0.89036 0.21526 0.0
C480 C 0.54374 0.91356 0.20192 0.0
H481 H 0.60093 0.82579 0.25146 0.0
H482 H 0.62637 0.90516 0.19794 0.0
C483 C 0.49179 0.89296 0.22705 0.0
C484 C 0.15265 0.27014 0.73405 0.0
C485 C 0.14905 0.31425 0.70772 0.0
H486 H 0.13887 0.18734 0.72447 0.0
C487 C 0.12943 0.30585 0.64747 0.0
H488 H 0.16725 0.27414 0.78001 0.0
C489 C 0.11285 0.25552 0.61536 0.0
C490 C 0.1166 0.21144 0.64164 0.0
H491 H 0.12515 0.33782 0.62496 0.0
H492 H 0.09558 0.25062 0.56942 0.0
C493 C 0.13698 0.22014 0.70189 0.0
C494 C 0.69967 0.25597 0.48278 0.0
C495 C 0.76572 0.29578 0.48925 0.0
H496 H 0.60326 0.24037 0.47757 0.0
C497 C 0.78649 0.35201 0.5028 0.0
H498 H 0.68221 0.21251 0.47054 0.0
C499 C 0.74144 0.36838 0.50678 0.0
C500 C 0.67414 0.32886 0.49652 0.0
H501 H 0.83682 0.38347 0.5066 0.0
H502 H 0.75909 0.41229 0.51588 0.0
C503 C 0.65442 0.27219 0.48637 0.0
loop_
_geom_bond_atom_site_label_1
_geom_bond_atom_site_label_2
_geom_bond_distance
_geom_bond_site_symmetry_2
_ccdc_geom_bond_type
C0 N1 1.317 . S
C0 N2 1.348 . S
C0 C3 1.485 . S
N1 C0 1.317 . S
N1 N5 1.370 . S
N2 C0 1.348 . S
N2 C4 1.346 . S
C3 C0 1.485 . S
C3 H7 0.960 . S
C3 H8 0.961 . S
C3 H9 0.960 . S
C4 N2 1.346 . S
C4 N5 1.307 . S
C4 C6 1.486 . S
N5 N1 1.370 . S
N5 C4 1.307 . S
C6 C4 1.486 . S
C6 H10 0.960 . S
C6 H11 0.960 . S
C6 H12 0.959 . S
H7 C3 0.960 . S
H8 C3 0.961 . S
H9 C3 0.960 . S
H10 C6 0.960 . S
H11 C6 0.960 . S
H12 C6 0.959 . S
C13 N14 1.317 . S
C13 N15 1.348 . S
C13 C16 1.485 . S
N14 C13 1.317 . S
N14 N18 1.370 . S
N15 C13 1.348 . S
N15 C17 1.346 . S
C16 C13 1.485 . S
C16 H20 0.960 . S
C16 H21 0.961 . S
C16 H22 0.960 . S
C17 N15 1.346 . S
C17 N18 1.307 . S
C17 C19 1.486 . S
N18 N14 1.370 . S
N18 C17 1.307 . S
C19 C17 1.486 . S
C19 H23 0.960 . S
C19 H24 0.960 . S
C19 H25 0.959 . S
H20 C16 0.960 . S
H21 C16 0.961 . S
H22 C16 0.960 . S
H23 C19 0.960 . S
H24 C19 0.960 . S
H25 C19 0.959 . S
C26 N27 1.317 . S
C26 N28 1.348 . S
C26 C29 1.485 . S
N27 C26 1.317 . S
N27 N31 1.370 . S
N28 C26 1.348 . S
N28 C30 1.346 . S
C29 C26 1.485 . S
C29 H33 0.960 . S
C29 H34 0.961 . S
C29 H35 0.960 . S
C30 N28 1.346 . S
C30 N31 1.307 . S
C30 C32 1.486 . S
N31 N27 1.370 . S
N31 C30 1.307 . S
C32 C30 1.486 . S
C32 H36 0.960 . S
C32 H37 0.960 . S
C32 H38 0.959 . S
H33 C29 0.960 . S
H34 C29 0.961 . S
H35 C29 0.960 . S
H36 C32 0.960 . S
H37 C32 0.960 . S
H38 C32 0.959 . S
C39 N40 1.317 . S
C39 N41 1.348 . S
C39 C42 1.485 . S
N40 C39 1.317 . S
N40 N44 1.370 . S
N41 C39 1.348 . S
N41 C43 1.346 . S
C42 C39 1.485 . S
C42 H46 0.960 . S
C42 H47 0.961 . S
C42 H48 0.960 . S
C43 N41 1.346 . S
C43 N44 1.307 . S
C43 C45 1.486 . S
N44 N40 1.370 . S
N44 C43 1.307 . S
C45 C43 1.486 . S
C45 H49 0.960 . S
C45 H50 0.960 . S
C45 H51 0.959 . S
H46 C42 0.960 . S
H47 C42 0.961 . S
H48 C42 0.960 . S
H49 C45 0.960 . S
H50 C45 0.960 . S
H51 C45 0.959 . S
C52 N53 1.317 . S
C52 N54 1.348 . S
C52 C55 1.485 . S
N53 C52 1.317 . S
N53 N57 1.370 . S
N54 C52 1.348 . S
N54 C56 1.346 . S
C55 C52 1.485 . S
C55 H59 0.960 . S
C55 H60 0.961 . S
C55 H61 0.960 . S
C56 N54 1.346 . S
C56 N57 1.307 . S
C56 C58 1.486 . S
N57 N53 1.370 . S
N57 C56 1.307 . S
C58 C56 1.486 . S
C58 H62 0.960 . S
C58 H63 0.960 . S
C58 H64 0.959 . S
H59 C55 0.960 . S
H60 C55 0.961 . S
H61 C55 0.960 . S
H62 C58 0.960 . S
H63 C58 0.960 . S
H64 C58 0.959 . S
C65 N66 1.317 . S
C65 N67 1.348 . S
C65 C68 1.485 . S
N66 C65 1.317 . S
N66 N70 1.370 . S
N67 C65 1.348 . S
N67 C69 1.346 . S
C68 C65 1.485 . S
C68 H72 0.960 . S
C68 H73 0.961 . S
C68 H74 0.960 . S
C69 N67 1.346 . S
C69 N70 1.307 . S
C69 C71 1.486 . S
N70 N66 1.370 . S
N70 C69 1.307 . S
C71 C69 1.486 . S
C71 H75 0.960 . S
C71 H76 0.960 . S
C71 H77 0.959 . S
H72 C68 0.960 . S
H73 C68 0.961 . S
H74 C68 0.960 . S
H75 C71 0.960 . S
H76 C71 0.960 . S
H77 C71 0.959 . S
C78 N79 1.317 . S
C78 N80 1.348 . S
C78 C81 1.485 . S
N79 C78 1.317 . S
N79 N83 1.370 . S
N80 C78 1.348 . S
N80 C82 1.346 . S
C81 C78 1.485 . S
C81 H85 0.960 . S
C81 H86 0.961 . S
C81 H87 0.960 . S
C82 N80 1.346 . S
C82 N83 1.307 . S
C82 C84 1.486 . S
N83 N79 1.370 . S
N83 C82 1.307 . S
C84 C82 1.486 . S
C84 H88 0.960 . S
C84 H89 0.960 . S
C84 H90 0.959 . S
H85 C81 0.960 . S
H86 C81 0.961 . S
H87 C81 0.960 . S
H88 C84 0.960 . S
H89 C84 0.960 . S
H90 C84 0.959 . S
C91 N92 1.317 . S
C91 N93 1.348 . S
C91 C94 1.485 . S
N92 C91 1.317 . S
N92 N96 1.370 . S
N93 C91 1.348 . S
N93 C95 1.346 . S
C94 C91 1.485 . S
C94 H98 0.960 . S
C94 H99 0.961 . S
C94 H100 0.960 . S
C95 N93 1.346 . S
C95 N96 1.307 . S
C95 C97 1.486 . S
N96 N92 1.370 . S
N96 C95 1.307 . S
C97 C95 1.486 . S
C97 H101 0.960 . S
C97 H102 0.960 . S
C97 H103 0.959 . S
H98 C94 0.960 . S
H99 C94 0.961 . S
H100 C94 0.960 . S
H101 C97 0.960 . S
H102 C97 0.960 . S
H103 C97 0.959 . S
Pr104 C106 2.880 . S
Pr104 O124 2.562 . S
Pr104 O125 2.490 . S
Pr104 O126 2.695 1_665 S
Pr104 O127 2.512 1_665 S
Pr104 O129 2.437 1_655 S
Pr104 O132 2.436 1_655 S
Pr104 O134 2.438 1_565 S
Pr105 C115 2.880 . S
Pr105 O126 2.436 . S
Pr105 O128 2.432 1_545 S
Pr105 O130 2.562 . S
Pr105 O131 2.490 . S
Pr105 O132 2.695 1_545 S
Pr105 O133 2.512 1_545 S
Pr105 O135 2.437 . S
C106 Pr104 2.880 . S
C106 C107 1.491 . S
C106 O124 1.254 . S
C106 O125 1.225 . S
C107 C106 1.491 . S
C107 C108 1.392 . S
C107 C112 1.356 . S
C108 C107 1.392 . S
C108 C109 1.368 . S
C108 H136 0.929 . S
C109 C108 1.368 . S
C109 C110 1.386 . S
C109 H137 0.929 . S
C110 C109 1.386 . S
C110 C111 1.373 . S
C111 C110 1.373 . S
C111 C112 1.409 . S
C111 H138 0.931 . S
C112 C107 1.356 . S
C112 C111 1.409 . S
C112 H139 0.930 . S
C113 O126 1.270 . S
C113 O127 1.248 . S
C114 O128 1.269 . S
C114 O129 1.278 . S
C115 Pr105 2.880 . S
C115 C116 1.491 . S
C115 O130 1.254 . S
C115 O131 1.225 . S
C116 C115 1.491 . S
C116 C117 1.392 . S
C116 C121 1.356 . S
C117 C116 1.392 . S
C117 C118 1.368 . S
C117 H140 0.929 . S
C118 C117 1.368 . S
C118 C119 1.386 . S
C118 H141 0.929 . S
C119 C118 1.386 . S
C119 C120 1.373 . S
C120 C119 1.373 . S
C120 C121 1.409 . S
C120 H142 0.931 . S
C121 C116 1.356 . S
C121 C120 1.409 . S
C121 H143 0.930 . S
C122 O132 1.270 . S
C122 O133 1.248 . S
C123 O134 1.267 1_455 S
C123 O135 1.278 . S
O124 Pr104 2.562 . S
O124 C106 1.254 . S
O125 Pr104 2.490 . S
O125 C106 1.225 . S
O126 Pr104 2.695 1_445 S
O126 Pr105 2.436 . S
O126 C113 1.270 . S
O127 Pr104 2.512 1_445 S
O127 C113 1.248 . S
O128 Pr105 2.432 1_565 S
O128 C114 1.269 . S
O129 Pr104 2.437 1_455 S
O129 C114 1.278 . S
O130 Pr105 2.562 . S
O130 C115 1.254 . S
O131 Pr105 2.490 . S
O131 C115 1.225 . S
O132 Pr104 2.436 1_455 S
O132 Pr105 2.695 1_565 S
O132 C122 1.270 . S
O133 Pr105 2.512 1_565 S
O133 C122 1.248 . S
O134 Pr104 2.438 1_545 S
O134 C123 1.267 1_655 S
O135 Pr105 2.437 . S
O135 C123 1.278 . S
H136 C108 0.929 . S
H137 C109 0.929 . S
H138 C111 0.931 . S
H139 C112 0.930 . S
H140 C117 0.929 . S
H141 C118 0.929 . S
H142 C120 0.931 . S
H143 C121 0.930 . S
Pr144 C146 2.880 . S
Pr144 O164 2.562 . S
Pr144 O165 2.490 . S
Pr144 O166 2.695 . S
Pr144 O167 2.512 . S
Pr144 O169 2.437 . S
Pr144 O172 2.436 1_545 S
Pr144 O174 2.438 1_544 S
Pr145 C155 2.881 1_554 S
Pr145 O166 2.434 1_565 S
Pr145 O168 2.437 1_565 S
Pr145 O170 2.563 1_554 S
Pr145 O171 2.491 . S
Pr145 O172 2.695 . S
Pr145 O173 2.513 . S
Pr145 O175 2.437 . S
C146 Pr144 2.880 . S
C146 C147 1.491 . S
C146 O164 1.254 . S
C146 O165 1.225 . S
C147 C146 1.491 . S
C147 C148 1.392 . S
C147 C152 1.356 . S
C148 C147 1.392 . S
C148 C149 1.368 . S
C148 H176 0.929 . S
C149 C148 1.368 . S
C149 C150 1.386 . S
C149 H177 0.929 . S
C150 C149 1.386 . S
C150 C151 1.373 . S
C151 C150 1.373 . S
C151 C152 1.409 . S
C151 H178 0.931 . S
C152 C147 1.356 . S
C152 C151 1.409 . S
C152 H179 0.930 . S
C153 O166 1.270 . S
C153 O167 1.248 . S
C154 O168 1.267 . S
C154 O169 1.278 . S
C155 Pr145 2.881 1_556 S
C155 C156 1.491 . S
C155 O170 1.254 . S
C155 O171 1.225 1_556 S
C156 C155 1.491 . S
C156 C157 1.392 . S
C156 C161 1.356 . S
C157 C156 1.392 . S
C157 C158 1.368 . S
C157 H180 0.911 1_556 S
C158 C157 1.368 . S
C158 C159 1.386 . S
C158 H181 0.929 . S
C159 C158 1.386 . S
C159 C160 1.373 . S
C160 C159 1.373 . S
C160 C161 1.409 . S
C160 H182 0.931 . S
C161 C156 1.356 . S
C161 C160 1.409 . S
C161 H183 0.930 . S
C162 O172 1.270 . S
C162 O173 1.248 . S
C163 O174 1.267 . S
C163 O175 1.278 1_556 S
O164 Pr144 2.562 . S
O164 C146 1.254 . S
O165 Pr144 2.490 . S
O165 C146 1.225 . S
O166 Pr144 2.695 . S
O166 Pr145 2.434 1_545 S
O166 C153 1.270 . S
O167 Pr144 2.512 . S
O167 C153 1.248 . S
O168 Pr145 2.437 1_545 S
O168 C154 1.267 . S
O169 Pr144 2.437 . S
O169 C154 1.278 . S
O170 Pr145 2.563 1_556 S
O170 C155 1.254 . S
O171 Pr145 2.491 . S
O171 C155 1.225 1_554 S
O172 Pr144 2.436 1_565 S
O172 Pr145 2.695 . S
O172 C162 1.270 . S
O173 Pr145 2.513 . S
O173 C162 1.248 . S
O174 Pr144 2.438 1_566 S
O174 C163 1.267 . S
O175 Pr145 2.437 . S
O175 C163 1.278 1_554 S
H176 C148 0.929 . S
H177 C149 0.929 . S
H178 C151 0.931 . S
H179 C152 0.930 . S
H180 C157 0.911 1_554 S
H181 C158 0.929 . S
H182 C160 0.931 . S
H183 C161 0.930 . S
Pr184 C186 2.880 . S
Pr184 O204 2.562 . S
Pr184 O205 2.490 . S
Pr184 O206 2.695 . S
Pr184 O207 2.512 . S
Pr184 O209 2.437 . S
Pr184 O212 2.436 . S
Pr184 O214 2.438 . S
Pr185 C195 2.880 . S
Pr185 O206 2.436 . S
Pr185 O208 2.438 . S
Pr185 O210 2.562 . S
Pr185 O211 2.490 . S
Pr185 O212 2.695 . S
Pr185 O213 2.512 . S
Pr185 O215 2.437 . S
C186 Pr184 2.880 . S
C186 C187 1.491 . S
C186 O204 1.254 . S
C186 O205 1.225 . S
C187 C186 1.491 . S
C187 C188 1.392 . S
C187 C192 1.356 . S
C188 C187 1.392 . S
C188 C189 1.368 . S
C188 H216 0.929 . S
C189 C188 1.368 . S
C189 C190 1.386 . S
C189 H217 0.929 . S
C190 C189 1.386 . S
C190 C191 1.373 . S
C191 C190 1.373 . S
C191 C192 1.409 . S
C191 H218 0.931 . S
C192 C187 1.356 . S
C192 C191 1.409 . S
C192 H219 0.930 . S
C193 O206 1.270 . S
C193 O207 1.248 . S
C194 O208 1.267 . S
C194 O209 1.278 . S
C195 Pr185 2.880 . S
C195 C196 1.491 . S
C195 O210 1.254 . S
C195 O211 1.225 . S
C196 C195 1.491 . S
C196 C197 1.392 . S
C196 C201 1.356 . S
C197 C196 1.392 . S
C197 C198 1.368 . S
C197 H220 0.929 . S
C198 C197 1.368 . S
C198 C199 1.386 . S
C198 H221 0.929 . S
C199 C198 1.386 . S
C199 C200 1.373 . S
C200 C199 1.373 . S
C200 C201 1.409 . S
C200 H222 0.931 . S
C201 C196 1.356 . S
C201 C200 1.409 . S
C201 H223 0.930 . S
C202 O212 1.270 . S
C202 O213 1.248 . S
C203 O214 1.267 . S
C203 O215 1.278 . S
O204 Pr184 2.562 . S
O204 C186 1.254 . S
O205 Pr184 2.490 . S
O205 C186 1.225 . S
O206 Pr184 2.695 . S
O206 Pr185 2.436 . S
O206 C193 1.270 . S
O207 Pr184 2.512 . S
O207 C193 1.248 . S
O208 Pr185 2.438 . S
O208 C194 1.267 . S
O209 Pr184 2.437 . S
O209 C194 1.278 . S
O210 Pr185 2.562 . S
O210 C195 1.254 . S
O211 Pr185 2.490 . S
O211 C195 1.225 . S
O212 Pr184 2.436 . S
O212 Pr185 2.695 . S
O212 C202 1.270 . S
O213 Pr185 2.512 . S
O213 C202 1.248 . S
O214 Pr184 2.438 . S
O214 C203 1.267 . S
O215 Pr185 2.437 . S
O215 C203 1.278 . S
H216 C188 0.929 . S
H217 C189 0.929 . S
H218 C191 0.931 . S
H219 C192 0.930 . S
H220 C197 0.929 . S
H221 C198 0.929 . S
H222 C200 0.931 . S
H223 C201 0.930 . S
Pr224 C226 2.880 1_455 S
Pr224 O244 2.562 1_455 S
Pr224 O245 2.490 . S
Pr224 O246 2.695 1_556 S
Pr224 O247 2.512 1_556 S
Pr224 O249 2.437 1_456 S
Pr224 O252 2.436 1_455 S
Pr224 O254 2.438 . S
Pr225 C235 2.880 . S
Pr225 O246 2.436 . S
Pr225 O248 2.438 1_455 S
Pr225 O250 2.562 . S
Pr225 O251 2.490 . S
Pr225 O252 2.695 1_454 S
Pr225 O253 2.512 1_454 S
Pr225 O255 2.437 1_554 S
C226 Pr224 2.880 1_655 S
C226 C227 1.491 . S
C226 O244 1.254 . S
C226 O245 1.225 1_655 S
C227 C226 1.491 . S
C227 C228 1.392 . S
C227 C232 1.356 . S
C228 C227 1.392 . S
C228 C229 1.368 . S
C228 H256 0.929 . S
C229 C228 1.368 . S
C229 C230 1.386 . S
C229 H257 0.929 . S
C230 C229 1.386 . S
C230 C231 1.373 . S
C231 C230 1.373 . S
C231 C232 1.409 . S
C231 H258 0.931 . S
C232 C227 1.356 . S
C232 C231 1.409 . S
C232 H259 0.930 . S
C233 O246 1.270 . S
C233 O247 1.248 . S
C234 O248 1.267 . S
C234 O249 1.278 . S
C235 Pr225 2.880 . S
C235 C236 1.491 . S
C235 O250 1.254 . S
C235 O251 1.225 . S
C236 C235 1.491 . S
C236 C237 1.392 . S
C236 C241 1.356 . S
C237 C236 1.392 . S
C237 C238 1.368 . S
C237 H260 0.929 . S
C238 C237 1.368 . S
C238 C239 1.386 . S
C238 H261 0.929 . S
C239 C238 1.386 . S
C239 C240 1.373 . S
C240 C239 1.373 . S
C240 C241 1.409 . S
C240 H262 0.931 . S
C241 C236 1.356 . S
C241 C240 1.409 . S
C241 H263 0.930 . S
C242 O252 1.270 . S
C242 O253 1.248 . S
C243 O254 1.267 . S
C243 O255 1.278 . S
O244 Pr224 2.562 1_655 S
O244 C226 1.254 . S
O245 Pr224 2.490 . S
O245 C226 1.225 1_455 S
O246 Pr224 2.695 1_554 S
O246 Pr225 2.436 . S
O246 C233 1.270 . S
O247 Pr224 2.512 1_554 S
O247 C233 1.248 . S
O248 Pr225 2.438 1_655 S
O248 C234 1.267 . S
O249 Pr224 2.437 1_654 S
O249 C234 1.278 . S
O250 Pr225 2.562 . S
O250 C235 1.254 . S
O251 Pr225 2.490 . S
O251 C235 1.225 . S
O252 Pr224 2.436 1_655 S
O252 Pr225 2.695 1_656 S
O252 C242 1.270 . S
O253 Pr225 2.512 1_656 S
O253 C242 1.248 . S
O254 Pr224 2.438 . S
O254 C243 1.267 . S
O255 Pr225 2.437 1_556 S
O255 C243 1.278 . S
H256 C228 0.929 . S
H257 C229 0.929 . S
H258 C231 0.931 . S
H259 C232 0.930 . S
H260 C237 0.929 . S
H261 C238 0.929 . S
H262 C240 0.931 . S
H263 C241 0.930 . S
C264 C265 1.387 . S
C264 H268 0.950 . S
C264 C273 1.390 . S
C265 C264 1.387 . S
C265 C267 1.387 . S
H266 C273 0.950 . S
C267 C265 1.387 . S
C267 C269 1.390 . S
C267 H271 0.950 . S
H268 C264 0.950 . S
C269 C267 1.390 . S
C269 C270 1.387 . S
C269 H272 0.950 . S
C270 C269 1.387 . S
C270 C273 1.387 . S
H271 C267 0.950 . S
H272 C269 0.950 . S
C273 C264 1.390 . S
C273 H266 0.950 . S
C273 C270 1.387 . S
C274 C275 1.387 . S
C274 H278 0.950 . S
C274 C283 1.390 . S
C275 C274 1.387 . S
C275 C277 1.387 . S
H276 C283 0.950 . S
C277 C275 1.387 . S
C277 C279 1.390 . S
C277 H281 0.950 . S
H278 C274 0.950 . S
C279 C277 1.390 . S
C279 C280 1.387 . S
C279 H282 0.950 . S
C280 C279 1.387 . S
C280 C283 1.387 . S
H281 C277 0.950 . S
H282 C279 0.950 . S
C283 C274 1.390 . S
C283 H276 0.950 . S
C283 C280 1.387 . S
C284 C285 1.387 . S
C284 H288 0.950 . S
C284 C293 1.390 . S
C285 C284 1.387 . S
C285 C287 1.387 . S
H286 C293 0.950 . S
C287 C285 1.387 . S
C287 C289 1.390 . S
C287 H291 0.950 . S
H288 C284 0.950 . S
C289 C287 1.390 . S
C289 C290 1.387 . S
C289 H292 0.950 . S
C290 C289 1.387 . S
C290 C293 1.387 . S
H291 C287 0.950 . S
H292 C289 0.950 . S
C293 C284 1.390 . S
C293 H286 0.950 . S
C293 C290 1.387 . S
C294 C295 1.387 . S
C294 H298 0.950 . S
C294 C303 1.390 . S
C295 C294 1.387 . S
C295 C297 1.387 . S
H296 C303 0.950 . S
C297 C295 1.387 . S
C297 C299 1.390 . S
C297 H301 0.950 . S
H298 C294 0.950 . S
C299 C297 1.390 . S
C299 C300 1.387 . S
C299 H302 0.950 . S
C300 C299 1.387 . S
C300 C303 1.387 . S
H301 C297 0.950 . S
H302 C299 0.950 . S
C303 C294 1.390 . S
C303 H296 0.950 . S
C303 C300 1.387 . S
C304 C305 1.387 . S
C304 H308 0.950 . S
C304 C313 1.390 . S
C305 C304 1.387 . S
C305 C307 1.387 . S
H306 C313 0.950 . S
C307 C305 1.387 . S
C307 C309 1.390 . S
C307 H311 0.950 . S
H308 C304 0.950 . S
C309 C307 1.390 . S
C309 C310 1.387 . S
C309 H312 0.950 . S
C310 C309 1.387 . S
C310 C313 1.387 . S
H311 C307 0.950 . S
H312 C309 0.950 . S
C313 C304 1.390 . S
C313 H306 0.950 . S
C313 C310 1.387 . S
C314 C315 1.387 . S
C314 H318 0.950 . S
C314 C323 1.390 . S
C315 C314 1.387 . S
C315 C317 1.387 . S
H316 C323 0.950 . S
C317 C315 1.387 . S
C317 C319 1.390 . S
C317 H321 0.950 . S
H318 C314 0.950 . S
C319 C317 1.390 . S
C319 C320 1.387 . S
C319 H322 0.950 . S
C320 C319 1.387 . S
C320 C323 1.387 . S
H321 C317 0.950 . S
H322 C319 0.950 . S
C323 C314 1.390 . S
C323 H316 0.950 . S
C323 C320 1.387 . S
C324 C325 1.387 . S
C324 H328 0.950 . S
C324 C333 1.390 . S
C325 C324 1.387 . S
C325 C327 1.387 . S
H326 C333 0.950 . S
C327 C325 1.387 . S
C327 C329 1.390 . S
C327 H331 0.950 . S
H328 C324 0.950 . S
C329 C327 1.390 . S
C329 C330 1.387 . S
C329 H332 0.950 . S
C330 C329 1.387 . S
C330 C333 1.387 . S
H331 C327 0.950 . S
H332 C329 0.950 . S
C333 C324 1.390 . S
C333 H326 0.950 . S
C333 C330 1.387 . S
C334 C335 1.387 . S
C334 H338 0.950 . S
C334 C343 1.390 . S
C335 C334 1.387 . S
C335 C337 1.387 . S
H336 C343 0.950 . S
C337 C335 1.387 . S
C337 C339 1.390 . S
C337 H341 0.950 . S
H338 C334 0.950 . S
C339 C337 1.390 . S
C339 C340 1.387 . S
C339 H342 0.950 . S
C340 C339 1.387 . S
C340 C343 1.387 . S
H341 C337 0.950 . S
H342 C339 0.950 . S
C343 C334 1.390 . S
C343 H336 0.950 . S
C343 C340 1.387 . S
C344 C345 1.387 . S
C344 H348 0.950 . S
C344 C353 1.390 . S
C345 C344 1.387 . S
C345 C347 1.387 . S
H346 C353 0.950 . S
C347 C345 1.387 . S
C347 C349 1.390 . S
C347 H351 0.950 . S
H348 C344 0.950 . S
C349 C347 1.390 . S
C349 C350 1.387 . S
C349 H352 0.950 . S
C350 C349 1.387 . S
C350 C353 1.387 . S
H351 C347 0.950 . S
H352 C349 0.950 . S
C353 C344 1.390 . S
C353 H346 0.950 . S
C353 C350 1.387 . S
C354 C355 1.387 . S
C354 H358 0.950 . S
C354 C363 1.390 . S
C355 C354 1.387 . S
C355 C357 1.387 . S
H356 C363 0.950 1_554 S
C357 C355 1.387 . S
C357 C359 1.390 . S
C357 H361 0.950 . S
H358 C354 0.950 . S
C359 C357 1.390 . S
C359 C360 1.387 . S
C359 H362 0.950 . S
C360 C359 1.387 . S
C360 C363 1.387 . S
H361 C357 0.950 . S
H362 C359 0.950 . S
C363 C354 1.390 . S
C363 H356 0.950 1_556 S
C363 C360 1.387 . S
C364 C365 1.387 . S
C364 H368 0.950 . S
C364 C373 1.390 . S
C365 C364 1.387 . S
C365 C367 1.387 . S
H366 C373 0.950 1_455 S
C367 C365 1.387 . S
C367 C369 1.390 . S
C367 H371 0.950 . S
H368 C364 0.950 . S
C369 C367 1.390 . S
C369 C370 1.387 . S
C369 H372 0.950 . S
C370 C369 1.387 . S
C370 C373 1.387 . S
H371 C367 0.950 . S
H372 C369 0.950 . S
C373 C364 1.390 . S
C373 H366 0.950 1_655 S
C373 C370 1.387 . S
C374 C375 1.387 . S
C374 H378 0.950 . S
C374 C383 1.390 . S
C375 C374 1.387 . S
C375 C377 1.387 . S
H376 C383 0.950 . S
C377 C375 1.387 . S
C377 C379 1.390 . S
C377 H381 0.950 . S
H378 C374 0.950 . S
C379 C377 1.390 . S
C379 C380 1.387 . S
C379 H382 0.950 . S
C380 C379 1.387 . S
C380 C383 1.387 . S
H381 C377 0.950 . S
H382 C379 0.950 . S
C383 C374 1.390 . S
C383 H376 0.950 . S
C383 C380 1.387 . S
C384 C385 1.387 . S
C384 H388 0.950 . S
C384 C393 1.390 . S
C385 C384 1.387 . S
C385 C387 1.387 . S
H386 C393 0.950 . S
C387 C385 1.387 . S
C387 C389 1.390 . S
C387 H391 0.950 . S
H388 C384 0.950 . S
C389 C387 1.390 . S
C389 C390 1.387 . S
C389 H392 0.950 . S
C390 C389 1.387 . S
C390 C393 1.387 . S
H391 C387 0.950 . S
H392 C389 0.950 . S
C393 C384 1.390 . S
C393 H386 0.950 . S
C393 C390 1.387 . S
C394 C395 1.387 . S
C394 H398 0.950 . S
C394 C403 1.390 . S
C395 C394 1.387 . S
C395 C397 1.387 . S
H396 C403 0.950 . S
C397 C395 1.387 . S
C397 C399 1.390 . S
C397 H401 0.950 . S
H398 C394 0.950 . S
C399 C397 1.390 . S
C399 C400 1.387 . S
C399 H402 0.950 . S
C400 C399 1.387 . S
C400 C403 1.387 . S
H401 C397 0.950 . S
H402 C399 0.950 . S
C403 C394 1.390 . S
C403 H396 0.950 . S
C403 C400 1.387 . S
C404 C405 1.387 . S
C404 H408 0.950 . S
C404 C413 1.390 . S
C405 C404 1.387 . S
C405 C407 1.387 . S
H406 C413 0.950 . S
C407 C405 1.387 . S
C407 C409 1.390 . S
C407 H411 0.950 . S
H408 C404 0.950 . S
C409 C407 1.390 . S
C409 C410 1.387 . S
C409 H412 0.950 . S
C410 C409 1.387 . S
C410 C413 1.387 . S
H411 C407 0.950 . S
H412 C409 0.950 . S
C413 C404 1.390 . S
C413 H406 0.950 . S
C413 C410 1.387 . S
C414 C415 1.387 . S
C414 H418 0.950 . S
C414 C423 1.390 . S
C415 C414 1.387 . S
C415 C417 1.387 . S
H416 C423 0.950 . S
C417 C415 1.387 . S
C417 C419 1.390 . S
C417 H421 0.950 . S
H418 C414 0.950 . S
C419 C417 1.390 . S
C419 C420 1.387 . S
C419 H422 0.950 . S
C420 C419 1.387 . S
C420 C423 1.387 . S
H421 C417 0.950 . S
H422 C419 0.950 . S
C423 C414 1.390 . S
C423 H416 0.950 . S
C423 C420 1.387 . S
C424 C425 1.387 . S
C424 H428 0.950 . S
C424 C433 1.390 . S
C425 C424 1.387 . S
C425 C427 1.387 . S
H426 C433 0.950 . S
C427 C425 1.387 . S
C427 C429 1.390 . S
C427 H431 0.950 . S
H428 C424 0.950 . S
C429 C427 1.390 . S
C429 C430 1.387 . S
C429 H432 0.950 . S
C430 C429 1.387 . S
C430 C433 1.387 . S
H431 C427 0.950 . S
H432 C429 0.950 . S
C433 C424 1.390 . S
C433 H426 0.950 . S
C433 C430 1.387 . S
C434 C435 1.387 . S
C434 H438 0.950 . S
C434 C443 1.390 . S
C435 C434 1.387 . S
C435 C437 1.387 . S
H436 C443 0.950 . S
C437 C435 1.387 . S
C437 C439 1.390 . S
C437 H441 0.950 . S
H438 C434 0.950 . S
C439 C437 1.390 . S
C439 C440 1.387 . S
C439 H442 0.950 . S
C440 C439 1.387 . S
C440 C443 1.387 . S
H441 C437 0.950 . S
H442 C439 0.950 . S
C443 C434 1.390 . S
C443 H436 0.950 . S
C443 C440 1.387 . S
C444 C445 1.387 . S
C444 H448 0.950 . S
C444 C453 1.390 . S
C445 C444 1.387 . S
C445 C447 1.387 . S
H446 C453 0.950 . S
C447 C445 1.387 . S
C447 C449 1.390 . S
C447 H451 0.950 . S
H448 C444 0.950 . S
C449 C447 1.390 . S
C449 C450 1.387 . S
C449 H452 0.950 . S
C450 C449 1.387 . S
C450 C453 1.387 . S
H451 C447 0.950 . S
H452 C449 0.950 . S
C453 C444 1.390 . S
C453 H446 0.950 . S
C453 C450 1.387 . S
C454 C455 1.387 . S
C454 H458 0.950 . S
C454 C463 1.390 . S
C455 C454 1.387 . S
C455 C457 1.387 . S
H456 C463 0.950 . S
C457 C455 1.387 . S
C457 C459 1.390 . S
C457 H461 0.950 . S
H458 C454 0.950 . S
C459 C457 1.390 . S
C459 C460 1.387 . S
C459 H462 0.950 . S
C460 C459 1.387 . S
C460 C463 1.387 . S
H461 C457 0.950 . S
H462 C459 0.950 . S
C463 C454 1.390 . S
C463 H456 0.950 . S
C463 C460 1.387 . S
C464 C465 1.387 . S
C464 H468 0.950 . S
C464 C473 1.390 . S
C465 C464 1.387 . S
C465 C467 1.387 . S
H466 C473 0.950 . S
C467 C465 1.387 . S
C467 C469 1.390 . S
C467 H471 0.950 . S
H468 C464 0.950 . S
C469 C467 1.390 . S
C469 C470 1.387 . S
C469 H472 0.950 . S
C470 C469 1.387 . S
C470 C473 1.387 . S
H471 C467 0.950 . S
H472 C469 0.950 . S
C473 C464 1.390 . S
C473 H466 0.950 . S
C473 C470 1.387 . S
C474 C475 1.387 . S
C474 H478 0.950 . S
C474 C483 1.390 . S
C475 C474 1.387 . S
C475 C477 1.387 . S
H476 C483 0.950 . S
C477 C475 1.387 . S
C477 C479 1.390 . S
C477 H481 0.950 . S
H478 C474 0.950 . S
C479 C477 1.390 . S
C479 C480 1.387 . S
C479 H482 0.950 . S
C480 C479 1.387 . S
C480 C483 1.387 . S
H481 C477 0.950 . S
H482 C479 0.950 . S
C483 C474 1.390 . S
C483 H476 0.950 . S
C483 C480 1.387 . S
C484 C485 1.387 . S
C484 H488 0.950 . S
C484 C493 1.390 . S
C485 C484 1.387 . S
C485 C487 1.387 . S
H486 C493 0.950 . S
C487 C485 1.387 . S
C487 C489 1.390 . S
C487 H491 0.950 . S
H488 C484 0.950 . S
C489 C487 1.390 . S
C489 C490 1.387 . S
C489 H492 0.950 . S
C490 C489 1.387 . S
C490 C493 1.387 . S
H491 C487 0.950 . S
H492 C489 0.950 . S
C493 C484 1.390 . S
C493 H486 0.950 . S
C493 C490 1.387 . S
C494 C495 1.387 . S
C494 H498 0.950 . S
C494 C503 1.390 . S
C495 C494 1.387 . S
C495 C497 1.387 . S
H496 C503 0.950 . S
C497 C495 1.387 . S
C497 C499 1.390 . S
C497 H501 0.950 . S
H498 C494 0.950 . S
C499 C497 1.390 . S
C499 C500 1.387 . S
C499 H502 0.950 . S
C500 C499 1.387 . S
C500 C503 1.387 . S
H501 C497 0.950 . S
H502 C499 0.950 . S
C503 C494 1.390 . S
C503 H496 0.950 . S
C503 C500 1.387 . S
C265 N1 0.993 . S
C270 C119 1.043 . S
C275 N18 1.386 . S
C280 C163 1.440 . S
C290 C193 2.053 . S
C285 N28 1.996 . S
C295 N40 2.845 . S
C300 C234 2.824 . S
C310 C150 1.308 . S
C305 N5 1.313 . S
C320 C114 2.146 . S
C315 N14 2.077 . S
C330 C242 1.308 . S
C325 N31 1.304 . S
C340 C203 2.119 . S
C335 N41 2.150 . S
C345 N2 1.379 . S
C350 C239 1.435 . S
C360 C153 2.256 1_556 S
C355 N27 2.318 . S
C365 N44 1.889 . S
C370 C122 1.955 1_655 S
C375 N15 1.879 . S
C380 C190 1.861 . S
C390 C110 1.515 . S
C385 N57 1.549 . S
C395 N70 1.260 . S
C400 C154 1.333 . S
C405 N79 2.208 . S
C410 C202 2.393 . S
C415 N93 2.713 . S
C420 C243 2.645 . S
C425 N54 0.886 . S
C430 C159 0.934 . S
C440 C123 2.631 1_655 S
C435 N66 2.654 . S
C450 C233 1.026 . S
C445 N80 0.995 . S
C460 C194 2.134 . S
C455 N96 2.255 . S
C465 N53 1.467 . S
C470 C230 1.594 . S
C480 C162 1.736 . S
C475 N83 1.641 . S
C490 C113 2.087 . S
C485 N92 2.208 . S
C495 N67 2.352 . S
C500 C199 2.300 . S
