# Generated by pormake.
# Topology pyr, (3,6)-cn, num edge types: 1
# Building blocks:
#     Node 0, Type 0, BuildingBlock: VETTIZ_charged_linker_0, # of connection points: 3
#     Node 1, Type 0, BuildingBlock: VETTIZ_charged_linker_0, # of connection points: 3
#     Node 2, Type 0, BuildingBlock: VETTIZ_charged_linker_0, # of connection points: 3
#     Node 3, Type 0, BuildingBlock: VETTIZ_charged_linker_0, # of connection points: 3
#     Node 4, Type 0, BuildingBlock: VETTIZ_charged_linker_0, # of connection points: 3
#     Node 5, Type 0, BuildingBlock: VETTIZ_charged_linker_0, # of connection points: 3
#     Node 6, Type 0, BuildingBlock: VETTIZ_charged_linker_0, # of connection points: 3
#     Node 7, Type 0, BuildingBlock: VETTIZ_charged_linker_0, # of connection points: 3
#     Node 8, Type 1, BuildingBlock: BETDAH_clean_sbu_0, # of connection points: 6
#     Node 9, Type 1, BuildingBlock: BETDAH_clean_sbu_0, # of connection points: 6
#     Node 10, Type 1, BuildingBlock: BETDAH_clean_sbu_0, # of connection points: 6
#     Node 11, Type 1, BuildingBlock: BETDAH_clean_sbu_0, # of connection points: 6
#     Edge 12, Type (0, 1), BuildingBlock: KIFKEQ_clean_linker_1, # of connection points: 2
#     Edge 13, Type (0, 1), BuildingBlock: KIFKEQ_clean_linker_1, # of connection points: 2
#     Edge 14, Type (0, 1), BuildingBlock: KIFKEQ_clean_linker_1, # of connection points: 2
#     Edge 15, Type (0, 1), BuildingBlock: KIFKEQ_clean_linker_1, # of connection points: 2
#     Edge 16, Type (0, 1), BuildingBlock: KIFKEQ_clean_linker_1, # of connection points: 2
#     Edge 17, Type (0, 1), BuildingBlock: KIFKEQ_clean_linker_1, # of connection points: 2
#     Edge 18, Type (0, 1), BuildingBlock: KIFKEQ_clean_linker_1, # of connection points: 2
#     Edge 19, Type (0, 1), BuildingBlock: KIFKEQ_clean_linker_1, # of connection points: 2
#     Edge 20, Type (0, 1), BuildingBlock: KIFKEQ_clean_linker_1, # of connection points: 2
#     Edge 21, Type (0, 1), BuildingBlock: KIFKEQ_clean_linker_1, # of connection points: 2
#     Edge 22, Type (0, 1), BuildingBlock: KIFKEQ_clean_linker_1, # of connection points: 2
#     Edge 23, Type (0, 1), BuildingBlock: KIFKEQ_clean_linker_1, # of connection points: 2
#     Edge 24, Type (0, 1), BuildingBlock: KIFKEQ_clean_linker_1, # of connection points: 2
#     Edge 25, Type (0, 1), BuildingBlock: KIFKEQ_clean_linker_1, # of connection points: 2
#     Edge 26, Type (0, 1), BuildingBlock: KIFKEQ_clean_linker_1, # of connection points: 2
#     Edge 27, Type (0, 1), BuildingBlock: KIFKEQ_clean_linker_1, # of connection points: 2
#     Edge 28, Type (0, 1), BuildingBlock: KIFKEQ_clean_linker_1, # of connection points: 2
#     Edge 29, Type (0, 1), BuildingBlock: KIFKEQ_clean_linker_1, # of connection points: 2
#     Edge 30, Type (0, 1), BuildingBlock: KIFKEQ_clean_linker_1, # of connection points: 2
#     Edge 31, Type (0, 1), BuildingBlock: KIFKEQ_clean_linker_1, # of connection points: 2
#     Edge 32, Type (0, 1), BuildingBlock: KIFKEQ_clean_linker_1, # of connection points: 2
#     Edge 33, Type (0, 1), BuildingBlock: KIFKEQ_clean_linker_1, # of connection points: 2
#     Edge 34, Type (0, 1), BuildingBlock: KIFKEQ_clean_linker_1, # of connection points: 2
#     Edge 35, Type (0, 1), BuildingBlock: KIFKEQ_clean_linker_1, # of connection points: 2
# Relax obj value: 0.095
# Max RMSD: 0.124
# Mean RMSD: 0.059
data_MOF--net-pyr--node1-BETDAH_clean_sbu_0--node2-VETTIZ_charged_linker_0--edge1-KIFKEQ_clean_linker_1
_symmetry_space_group_name_H-M    P1
_symmetry_Int_Tables_number       1
_symmetry_cell_setting            triclinic
loop_
_symmetry_equiv_pos_as_xyz
'x, y, z'
_cell_length_a     46.660776
_cell_length_b     48.723534
_cell_length_c     44.180421
_cell_angle_alpha  90.31262
_cell_angle_beta   88.657925
_cell_angle_gamma 100.87708
loop_
_atom_site_label
_atom_site_type_symbol
_atom_site_fract_x
_atom_site_fract_y
_atom_site_fract_z
_atom_type_partial_charge
C0 C 0.30971 0.27324 0.33825 0.0
C1 C 0.2849 0.28271 0.34983 0.0
C2 C 0.27572 0.30502 0.33501 0.0
C3 C 0.31032 0.3024 0.29391 0.0
C4 C 0.32151 0.28273 0.30992 0.0
C5 C 0.34315 0.27009 0.29125 0.0
H6 H 0.39286 0.24038 0.15306 0.0
C7 C 0.32242 0.30311 0.26267 0.0
C8 C 0.34176 0.28434 0.26091 0.0
H9 H 0.41509 0.21128 0.2402 0.0
H10 H 0.38865 0.24307 0.2654 0.0
H11 H 0.4025 0.30801 0.1741 0.0
H12 H 0.32635 0.24229 0.16899 0.0
H13 H 0.31838 0.27301 0.15326 0.0
H14 H 0.34637 0.25703 0.13584 0.0
H15 H 0.38798 0.29458 0.13856 0.0
H16 H 0.37385 0.32178 0.15851 0.0
C17 C 0.37357 0.27857 0.30555 0.0
C18 C 0.3317 0.23807 0.28952 0.0
C19 C 0.27768 0.35534 0.18341 0.0
C20 C 0.27947 0.35635 0.15166 0.0
C21 C 0.29932 0.3422 0.13643 0.0
C22 C 0.31667 0.32695 0.15269 0.0
C23 C 0.31383 0.32551 0.18447 0.0
C24 C 0.29478 0.33991 0.19919 0.0
C25 C 0.2931 0.33513 0.23271 0.0
C26 C 0.31477 0.31585 0.23602 0.0
C27 C 0.32682 0.31007 0.20776 0.0
C28 C 0.30368 0.36354 0.24858 0.0
C29 C 0.26133 0.32069 0.24147 0.0
C30 C 0.39225 0.24113 0.17757 0.0
C31 C 0.40552 0.22285 0.1947 0.0
C32 C 0.40443 0.22461 0.22653 0.0
C33 C 0.38912 0.24311 0.24113 0.0
C34 C 0.37423 0.25974 0.22382 0.0
C35 C 0.37677 0.25942 0.19261 0.0
C36 C 0.36003 0.27937 0.1782 0.0
C37 C 0.34655 0.29109 0.20594 0.0
C38 C 0.35455 0.27899 0.23252 0.0
C39 C 0.38205 0.30213 0.16121 0.0
C40 C 0.3366 0.26226 0.1578 0.0
H41 H 0.27959 0.3311 0.29647 0.0
H42 H 0.31798 0.25676 0.34953 0.0
H43 H 0.30772 0.2335 0.28608 0.0
H44 H 0.34107 0.22779 0.27048 0.0
H45 H 0.33599 0.22762 0.31078 0.0
H46 H 0.37548 0.29858 0.31827 0.0
H47 H 0.37777 0.26241 0.32163 0.0
H48 H 0.39144 0.28249 0.28828 0.0
H49 H 0.26212 0.36523 0.1959 0.0
H50 H 0.30123 0.34273 0.11195 0.0
H51 H 0.33115 0.31639 0.13987 0.0
H52 H 0.32296 0.37579 0.23629 0.0
H53 H 0.28628 0.37629 0.2492 0.0
H54 H 0.311 0.36122 0.27188 0.0
H55 H 0.24907 0.31106 0.22156 0.0
H56 H 0.26054 0.30305 0.25732 0.0
H57 H 0.24875 0.33581 0.25157 0.0
H58 H 0.25687 0.31306 0.34323 0.0
C59 C 0.28858 0.31514 0.30734 0.0
C60 C 0.19755 0.868 0.60374 0.0
C61 C 0.18455 0.88223 0.62657 0.0
C62 C 0.19824 0.88701 0.65471 0.0
C63 C 0.23981 0.86921 0.63488 0.0
C64 C 0.22512 0.86153 0.60849 0.0
C65 C 0.24289 0.84742 0.58651 0.0
H66 H 0.37315 0.81255 0.5499 0.0
C67 C 0.26958 0.86363 0.63113 0.0
C68 C 0.27153 0.85045 0.60307 0.0
H69 H 0.29104 0.78559 0.50569 0.0
H70 H 0.2676 0.81366 0.54056 0.0
H71 H 0.36483 0.87944 0.56583 0.0
H72 H 0.34892 0.80027 0.61227 0.0
H73 H 0.36131 0.82598 0.63933 0.0
H74 H 0.38501 0.82074 0.60782 0.0
H75 H 0.3935 0.86211 0.57735 0.0
H76 H 0.37808 0.88475 0.6028 0.0
C77 C 0.24662 0.86385 0.55636 0.0
C78 C 0.22768 0.81639 0.58327 0.0
C79 C 0.34523 0.90412 0.70743 0.0
C80 C 0.37521 0.90444 0.70964 0.0
C81 C 0.38951 0.89087 0.68733 0.0
C82 C 0.37403 0.87764 0.6627 0.0
C83 C 0.34395 0.87773 0.66072 0.0
C84 C 0.33011 0.89068 0.68305 0.0
C85 C 0.29809 0.88836 0.67797 0.0
C86 C 0.29483 0.87195 0.64862 0.0
C87 C 0.32171 0.86601 0.63847 0.0
C88 C 0.29218 0.91839 0.67412 0.0
C89 C 0.2809 0.87174 0.70467 0.0
C90 C 0.35037 0.81354 0.54702 0.0
C91 C 0.33398 0.79747 0.52472 0.0
C92 C 0.30406 0.79817 0.52252 0.0
C93 C 0.29051 0.81414 0.54295 0.0
C94 C 0.30697 0.829 0.56611 0.0
C95 C 0.33643 0.82863 0.56773 0.0
C96 C 0.34991 0.84312 0.59549 0.0
C97 C 0.32357 0.85178 0.61063 0.0
C98 C 0.29859 0.84391 0.5931 0.0
C99 C 0.37297 0.86865 0.58507 0.0
C100 C 0.36218 0.82164 0.61479 0.0
H101 H 0.23556 0.88586 0.68043 0.0
H102 H 0.18744 0.86358 0.58202 0.0
H103 H 0.21279 0.80929 0.60289 0.0
H104 H 0.24349 0.80203 0.58285 0.0
H105 H 0.21443 0.81304 0.56255 0.0
H106 H 0.25341 0.88663 0.56073 0.0
H107 H 0.22581 0.86058 0.54397 0.0
H108 H 0.26356 0.85792 0.54117 0.0
H109 H 0.33355 0.91376 0.72473 0.0
H110 H 0.41261 0.89073 0.68886 0.0
H111 H 0.38604 0.86778 0.64624 0.0
H112 H 0.30907 0.93085 0.65894 0.0
H113 H 0.29278 0.92934 0.69629 0.0
H114 H 0.27116 0.91915 0.66368 0.0
H115 H 0.2942 0.85841 0.71624 0.0
H116 H 0.26141 0.85688 0.69705 0.0
H117 H 0.27408 0.88598 0.72198 0.0
H118 H 0.18821 0.89694 0.67306 0.0
C119 C 0.22579 0.88062 0.65895 0.0
C120 C 0.63102 0.27885 0.91022 0.0
C121 C 0.60608 0.26147 0.89876 0.0
C122 C 0.59357 0.27016 0.87249 0.0
C123 C 0.63027 0.31307 0.87024 0.0
C124 C 0.64278 0.30415 0.89559 0.0
C125 C 0.66984 0.32421 0.90456 0.0
H126 H 0.76552 0.44597 0.88462 0.0
C127 C 0.64807 0.34059 0.86075 0.0
C128 C 0.67142 0.34691 0.88081 0.0
H129 H 0.76714 0.38072 0.95036 0.0
H130 H 0.72349 0.35386 0.93013 0.0
H131 H 0.69458 0.44312 0.8875 0.0
H132 H 0.74991 0.40395 0.82863 0.0
H133 H 0.72271 0.4134 0.8063 0.0
H134 H 0.74806 0.44025 0.82524 0.0
H135 H 0.72004 0.46232 0.8606 0.0
H136 H 0.68376 0.44602 0.84994 0.0
C137 C 0.66443 0.33516 0.93679 0.0
C138 C 0.69608 0.30888 0.90167 0.0
C139 C 0.61781 0.39557 0.77191 0.0
C140 C 0.63061 0.42114 0.75795 0.0
C141 C 0.65691 0.43614 0.7696 0.0
C142 C 0.67011 0.4262 0.79451 0.0
C143 C 0.65718 0.40072 0.80816 0.0
C144 C 0.63156 0.38567 0.7967 0.0
C145 C 0.62172 0.35841 0.81351 0.0
C146 C 0.64522 0.35991 0.83723 0.0
C147 C 0.66593 0.38492 0.83402 0.0
C148 C 0.59135 0.35863 0.82812 0.0
C149 C 0.62226 0.3341 0.79096 0.0
C150 C 0.75661 0.42583 0.89458 0.0
C151 C 0.76995 0.41593 0.91969 0.0
C152 C 0.75723 0.3895 0.93172 0.0
C153 C 0.73184 0.37364 0.91967 0.0
C154 C 0.71867 0.3839 0.89494 0.0
C155 C 0.73114 0.40949 0.88262 0.0
C156 C 0.71427 0.41654 0.85585 0.0
C157 C 0.68967 0.39105 0.85435 0.0
C158 C 0.69237 0.3721 0.87748 0.0
C159 C 0.7026 0.44351 0.86356 0.0
C160 C 0.73467 0.41891 0.82743 0.0
H161 H 0.59463 0.30137 0.83867 0.0
H162 H 0.64152 0.27266 0.93001 0.0
H163 H 0.6924 0.29229 0.88401 0.0
H164 H 0.71651 0.32285 0.89425 0.0
H165 H 0.69976 0.29874 0.92333 0.0
H166 H 0.64168 0.33884 0.93948 0.0
H167 H 0.66764 0.31982 0.95431 0.0
H168 H 0.67842 0.35549 0.94183 0.0
H169 H 0.59783 0.38329 0.76338 0.0
H170 H 0.66716 0.45594 0.75965 0.0
H171 H 0.68997 0.43883 0.8022 0.0
H172 H 0.59092 0.37913 0.83915 0.0
H173 H 0.57414 0.35515 0.81081 0.0
H174 H 0.5854 0.34282 0.84607 0.0
H175 H 0.64109 0.33922 0.77473 0.0
H176 H 0.62519 0.31467 0.80219 0.0
H177 H 0.60201 0.32979 0.77762 0.0
H178 H 0.57431 0.25725 0.86319 0.0
C179 C 0.60537 0.29585 0.85833 0.0
C180 C 0.91493 0.7908 0.38086 0.0
C181 C 0.9044 0.80393 0.40644 0.0
C182 C 0.87963 0.78924 0.4223 0.0
C183 C 0.87551 0.75041 0.38709 0.0
C184 C 0.9002 0.76404 0.37171 0.0
C185 C 0.90822 0.74656 0.34546 0.0
H186 H 0.87887 0.62517 0.26364 0.0
C187 C 0.86505 0.72316 0.37212 0.0
C188 C 0.88418 0.72048 0.34772 0.0
H189 H 0.94992 0.69528 0.2495 0.0
H190 H 0.93233 0.71952 0.29175 0.0
H191 H 0.88171 0.62451 0.33613 0.0
H192 H 0.82832 0.66368 0.27771 0.0
H193 H 0.80633 0.64621 0.30727 0.0
H194 H 0.8243 0.62639 0.28087 0.0
H195 H 0.85239 0.60451 0.31517 0.0
H196 H 0.84606 0.61932 0.35166 0.0
C197 C 0.9387 0.7398 0.35128 0.0
C198 C 0.90656 0.76286 0.31583 0.0
C199 C 0.77205 0.66158 0.41289 0.0
C200 C 0.75662 0.63467 0.40569 0.0
C201 C 0.76766 0.62019 0.38153 0.0
C202 C 0.7932 0.63222 0.36511 0.0
C203 C 0.80828 0.65908 0.37285 0.0
C204 C 0.79765 0.67307 0.39661 0.0
C205 C 0.81682 0.70085 0.40278 0.0
C206 C 0.8405 0.70165 0.37843 0.0
C207 C 0.83546 0.67724 0.36072 0.0
C208 C 0.82901 0.69996 0.43512 0.0
C209 C 0.79855 0.72388 0.39796 0.0
C210 C 0.89052 0.64586 0.26935 0.0
C211 C 0.91606 0.65807 0.25294 0.0
C212 C 0.93056 0.68498 0.26179 0.0
C213 C 0.92021 0.69918 0.28636 0.0
C214 C 0.89495 0.68655 0.30267 0.0
C215 C 0.88047 0.66034 0.29395 0.0
C216 C 0.85401 0.65004 0.31395 0.0
C217 C 0.85497 0.67425 0.33606 0.0
C218 C 0.87911 0.69574 0.32944 0.0
C219 C 0.85847 0.62306 0.33003 0.0
C220 C 0.82667 0.64614 0.29407 0.0
H221 H 0.84641 0.7534 0.4259 0.0
H222 H 0.93393 0.80116 0.36805 0.0
H223 H 0.88721 0.77317 0.31649 0.0
H224 H 0.90385 0.74926 0.29565 0.0
H225 H 0.9263 0.77939 0.31245 0.0
H226 H 0.94086 0.73497 0.37562 0.0
H227 H 0.95624 0.75782 0.34523 0.0
H228 H 0.94274 0.72114 0.33889 0.0
H229 H 0.76439 0.67381 0.4308 0.0
H230 H 0.75686 0.59929 0.37552 0.0
H231 H 0.80035 0.62004 0.34713 0.0
H232 H 0.82975 0.67821 0.44216 0.0
H233 H 0.8153 0.70868 0.45216 0.0
H234 H 0.85189 0.71116 0.43664 0.0
H235 H 0.78427 0.71889 0.37808 0.0
H236 H 0.81202 0.74457 0.39292 0.0
H237 H 0.78427 0.72578 0.41804 0.0
H238 H 0.87137 0.7979 0.4426 0.0
C239 C 0.86518 0.76295 0.41274 0.0
C240 C 0.73657 0.73458 0.9177 0.0
C241 C 0.75845 0.7209 0.90584 0.0
C242 C 0.76438 0.72201 0.87436 0.0
C243 C 0.72855 0.75128 0.86747 0.0
C244 C 0.72184 0.7495 0.8981 0.0
C245 C 0.69856 0.76596 0.90674 0.0
H246 H 0.61633 0.85975 0.86569 0.0
C247 C 0.71064 0.76946 0.85349 0.0
C248 C 0.69249 0.77774 0.8762 0.0
H249 H 0.62364 0.82618 0.95491 0.0
H250 H 0.65379 0.79494 0.93427 0.0
H251 H 0.60917 0.80119 0.82885 0.0
H252 H 0.682 0.86637 0.84905 0.0
H253 H 0.686 0.85736 0.81099 0.0
H254 H 0.65426 0.87072 0.82301 0.0
H255 H 0.61617 0.83371 0.80868 0.0
H256 H 0.63237 0.80442 0.79666 0.0
C257 C 0.67168 0.74546 0.91961 0.0
C258 C 0.71196 0.78922 0.9291 0.0
C259 C 0.73681 0.80688 0.74775 0.0
C260 C 0.72675 0.82734 0.73074 0.0
C261 C 0.69993 0.83484 0.73919 0.0
C262 C 0.68526 0.82468 0.76604 0.0
C263 C 0.69772 0.80711 0.78478 0.0
C264 C 0.72204 0.79713 0.77467 0.0
C265 C 0.7319 0.7782 0.79741 0.0
C266 C 0.71072 0.78016 0.82366 0.0
C267 C 0.69115 0.79754 0.81629 0.0
C268 C 0.72754 0.7483 0.78384 0.0
C269 C 0.76387 0.79074 0.80558 0.0
C270 C 0.62378 0.8452 0.88071 0.0
C271 C 0.61765 0.84551 0.91196 0.0
C272 C 0.62837 0.82659 0.93078 0.0
C273 C 0.64589 0.80852 0.91876 0.0
C274 C 0.65315 0.80962 0.88766 0.0
C275 C 0.64158 0.82736 0.86915 0.0
C276 C 0.65263 0.82695 0.83701 0.0
C277 C 0.67272 0.80596 0.83913 0.0
C278 C 0.67319 0.796 0.8689 0.0
C279 C 0.62634 0.81623 0.81652 0.0
C280 C 0.66948 0.8568 0.82927 0.0
H281 H 0.75539 0.73726 0.83161 0.0
H282 H 0.73119 0.7339 0.9417 0.0
H283 H 0.73498 0.79809 0.92245 0.0
H284 H 0.70078 0.80723 0.92945 0.0
H285 H 0.71192 0.78089 0.95246 0.0
H286 H 0.66836 0.72533 0.90698 0.0
H287 H 0.67452 0.74078 0.94382 0.0
H288 H 0.65112 0.75327 0.91727 0.0
H289 H 0.75725 0.80052 0.74186 0.0
H290 H 0.69127 0.84998 0.72602 0.0
H291 H 0.66579 0.8323 0.7721 0.0
H292 H 0.71078 0.74519 0.76601 0.0
H293 H 0.74811 0.744 0.77338 0.0
H294 H 0.71927 0.732 0.80094 0.0
H295 H 0.76673 0.81377 0.80865 0.0
H296 H 0.77069 0.78276 0.827 0.0
H297 H 0.77934 0.78666 0.78736 0.0
H298 H 0.78134 0.71212 0.86453 0.0
C299 C 0.74943 0.73687 0.85519 0.0
C300 C 0.83093 0.19081 0.48991 0.0
C301 C 0.84235 0.17291 0.46978 0.0
C302 C 0.82863 0.1658 0.44203 0.0
C303 C 0.7906 0.19113 0.45643 0.0
C304 C 0.8051 0.19974 0.48272 0.0
C305 C 0.78913 0.21794 0.50189 0.0
H306 H 0.66859 0.27465 0.5239 0.0
C307 C 0.76282 0.20127 0.4572 0.0
C308 C 0.7618 0.21717 0.48362 0.0
H309 H 0.74758 0.29027 0.57551 0.0
H310 H 0.76777 0.25724 0.54411 0.0
H311 H 0.66497 0.20574 0.51446 0.0
H312 H 0.69898 0.27975 0.46247 0.0
H313 H 0.68327 0.25401 0.43676 0.0
H314 H 0.66056 0.2659 0.46569 0.0
H315 H 0.642 0.22665 0.49725 0.0
H316 H 0.65485 0.19913 0.47663 0.0
C317 C 0.78203 0.20397 0.53325 0.0
C318 C 0.80812 0.24767 0.50309 0.0
C319 C 0.68952 0.16961 0.37566 0.0
C320 C 0.66122 0.17415 0.37047 0.0
C321 C 0.64838 0.19076 0.391 0.0
C322 C 0.66356 0.20246 0.41648 0.0
C323 C 0.69193 0.19766 0.42128 0.0
C324 C 0.70435 0.18145 0.40097 0.0
C325 C 0.7346 0.17853 0.4093 0.0
C326 C 0.73852 0.19587 0.43797 0.0
C327 C 0.7135 0.2069 0.44499 0.0
C328 C 0.73415 0.14714 0.41546 0.0
C329 C 0.75609 0.19149 0.38358 0.0
C330 C 0.68986 0.2703 0.52915 0.0
C331 C 0.70634 0.28465 0.55254 0.0
C332 C 0.73445 0.27928 0.55774 0.0
C333 C 0.74615 0.2603 0.53937 0.0
C334 C 0.7297 0.24693 0.51535 0.0
C335 C 0.70197 0.25194 0.51075 0.0
C336 C 0.68835 0.23767 0.48296 0.0
C337 C 0.71262 0.2235 0.47131 0.0
C338 C 0.73667 0.2287 0.4905 0.0
C339 C 0.66096 0.21624 0.49308 0.0
C340 C 0.68219 0.26031 0.46074 0.0
H341 H 0.79299 0.168 0.41417 0.0
H342 H 0.84136 0.19693 0.51119 0.0
H343 H 0.82243 0.25215 0.48252 0.0
H344 H 0.79488 0.26426 0.50345 0.0
H345 H 0.82245 0.25016 0.52303 0.0
H346 H 0.77358 0.18117 0.53063 0.0
H347 H 0.80186 0.20659 0.54721 0.0
H348 H 0.76496 0.21221 0.54611 0.0
H349 H 0.70029 0.1575 0.35994 0.0
H350 H 0.62657 0.19455 0.3874 0.0
H351 H 0.65268 0.21489 0.43135 0.0
H352 H 0.71345 0.1373 0.42726 0.0
H353 H 0.73582 0.13554 0.39397 0.0
H354 H 0.75153 0.14348 0.43056 0.0
H355 H 0.74787 0.20842 0.37165 0.0
H356 H 0.77759 0.20173 0.3921 0.0
H357 H 0.75928 0.17553 0.36641 0.0
H358 H 0.83692 0.15192 0.42626 0.0
C359 C 0.80286 0.17486 0.43524 0.0
C360 C 0.41176 0.67903 0.30127 0.0
C361 C 0.40061 0.65211 0.31319 0.0
C362 C 0.37495 0.63667 0.30053 0.0
C363 C 0.37274 0.67381 0.2646 0.0
C364 C 0.39757 0.68937 0.27707 0.0
C365 C 0.40651 0.71737 0.26148 0.0
H366 H 0.38482 0.80529 0.14775 0.0
C367 C 0.3634 0.69015 0.23953 0.0
C368 C 0.38319 0.71586 0.23755 0.0
H369 H 0.4515 0.82057 0.21513 0.0
H370 H 0.43199 0.77568 0.23846 0.0
H371 H 0.33409 0.78368 0.19301 0.0
H372 H 0.38623 0.73961 0.13629 0.0
H373 H 0.34959 0.72282 0.13309 0.0
H374 H 0.36019 0.75892 0.12215 0.0
H375 H 0.32637 0.77734 0.15376 0.0
H376 H 0.31073 0.75263 0.18278 0.0
C377 C 0.40468 0.74063 0.28501 0.0
C378 C 0.43727 0.71882 0.24708 0.0
C379 C 0.27402 0.64871 0.17722 0.0
C380 C 0.26014 0.65916 0.15281 0.0
C381 C 0.27179 0.68641 0.14229 0.0
C382 C 0.29671 0.70252 0.15499 0.0
C383 C 0.31045 0.69171 0.17892 0.0
C384 C 0.29895 0.66534 0.18993 0.0
C385 C 0.3162 0.65784 0.21619 0.0
C386 C 0.33988 0.68399 0.21893 0.0
C387 C 0.33644 0.70361 0.19681 0.0
C388 C 0.2957 0.65348 0.24454 0.0
C389 C 0.32913 0.63191 0.20698 0.0
C390 C 0.39538 0.79891 0.1674 0.0
C391 C 0.41996 0.81646 0.17935 0.0
C392 C 0.43253 0.80752 0.20544 0.0
C393 C 0.42123 0.78137 0.21888 0.0
C394 C 0.39678 0.76392 0.20639 0.0
C395 C 0.38412 0.77312 0.18129 0.0
C396 C 0.35755 0.75276 0.17167 0.0
C397 C 0.35658 0.72943 0.19456 0.0
C398 C 0.37973 0.73577 0.21487 0.0
C399 C 0.33072 0.76721 0.17521 0.0
C400 C 0.36338 0.74301 0.13903 0.0
H401 H 0.34181 0.63424 0.26808 0.0
H402 H 0.43141 0.69159 0.31016 0.0
H403 H 0.43884 0.69876 0.23559 0.0
H404 H 0.44262 0.73505 0.22948 0.0
H405 H 0.45428 0.72271 0.26458 0.0
H406 H 0.38537 0.73448 0.30045 0.0
H407 H 0.42444 0.74471 0.29912 0.0
H408 H 0.40173 0.76038 0.27453 0.0
H409 H 0.26594 0.62796 0.18609 0.0
H410 H 0.26142 0.69566 0.12432 0.0
H411 H 0.30427 0.72291 0.1456 0.0
H412 H 0.28003 0.6681 0.24443 0.0
H413 H 0.28277 0.63186 0.24537 0.0
H414 H 0.30749 0.65801 0.26592 0.0
H415 H 0.33679 0.63341 0.1829 0.0
H416 H 0.3485 0.62984 0.21998 0.0
H417 H 0.31252 0.61242 0.20951 0.0
H418 H 0.36522 0.61628 0.30942 0.0
C419 C 0.36112 0.64725 0.2765 0.0
C420 C 0.12056 0.28416 0.6953 0.0
C421 C 0.13085 0.27068 0.66993 0.0
C422 C 0.15686 0.28378 0.65512 0.0
C423 C 0.1615 0.32324 0.68955 0.0
C424 C 0.13612 0.31059 0.70453 0.0
C425 C 0.12811 0.32893 0.73002 0.0
H426 H 0.16032 0.45208 0.80859 0.0
C427 C 0.17224 0.35076 0.70382 0.0
C428 C 0.15276 0.3545 0.72761 0.0
H429 H 0.0865 0.38476 0.82353 0.0
H430 H 0.10385 0.35838 0.78281 0.0
H431 H 0.15648 0.45155 0.73677 0.0
H432 H 0.20901 0.41267 0.79621 0.0
H433 H 0.23137 0.42883 0.76621 0.0
H434 H 0.21382 0.44988 0.79159 0.0
H435 H 0.18726 0.47136 0.75573 0.0
H436 H 0.19133 0.45459 0.71977 0.0
C437 C 0.09812 0.33634 0.72326 0.0
C438 C 0.12872 0.31317 0.76019 0.0
C439 C 0.26556 0.41104 0.66165 0.0
C440 C 0.28081 0.43825 0.66796 0.0
C441 C 0.26968 0.45336 0.6915 0.0
C442 C 0.24425 0.44168 0.7082 0.0
C443 C 0.22929 0.41457 0.70133 0.0
C444 C 0.24 0.3999 0.6782 0.0
C445 C 0.22084 0.37189 0.67298 0.0
C446 C 0.19702 0.37189 0.69705 0.0
C447 C 0.20208 0.39682 0.71382 0.0
C448 C 0.20885 0.37168 0.64045 0.0
C449 C 0.23906 0.34905 0.67905 0.0
C450 C 0.1476 0.43179 0.80309 0.0
C451 C 0.12182 0.42078 0.81973 0.0
C452 C 0.10659 0.39387 0.8117 0.0
C453 C 0.11659 0.37856 0.78775 0.0
C454 C 0.14217 0.39009 0.77127 0.0
C455 C 0.15721 0.41632 0.77918 0.0
C456 C 0.1838 0.42564 0.75915 0.0
C457 C 0.18247 0.40075 0.738 0.0
C458 C 0.15797 0.37977 0.74505 0.0
C459 C 0.17983 0.45229 0.74201 0.0
C460 C 0.21106 0.4297 0.77917 0.0
H461 H 0.19176 0.31824 0.6523 0.0
H462 H 0.10057 0.27471 0.70713 0.0
H463 H 0.14803 0.30285 0.76063 0.0
H464 H 0.13069 0.32714 0.78006 0.0
H465 H 0.10885 0.29672 0.76319 0.0
H466 H 0.09674 0.34122 0.69882 0.0
H467 H 0.0801 0.31861 0.72891 0.0
H468 H 0.09419 0.35512 0.73549 0.0
H469 H 0.2733 0.39837 0.64422 0.0
H470 H 0.28031 0.47449 0.6968 0.0
H471 H 0.23706 0.45435 0.72571 0.0
H472 H 0.20759 0.39313 0.63278 0.0
H473 H 0.22303 0.36298 0.62387 0.0
H474 H 0.18621 0.35992 0.63888 0.0
H475 H 0.25364 0.35496 0.69855 0.0
H476 H 0.22553 0.32871 0.68543 0.0
H477 H 0.25303 0.34607 0.65906 0.0
H478 H 0.16553 0.2738 0.6359 0.0
C479 C 0.17217 0.3097 0.66477 0.0
Ho480 Ho 0.0397 0.0449 0.51193 0.0
Ho481 Ho 1.00732 1.02183 0.56987 0.0
C482 C 0.0505 0.08223 0.57354 0.0
C483 C 0.06352 0.07425 0.46652 0.0
C484 C 0.07916 0.10307 0.46148 0.0
C485 C 0.07483 0.11688 0.43475 0.0
C486 C 0.09311 0.14213 0.42706 0.0
C487 C 0.11626 0.15379 0.44585 0.0
C488 C 0.119 0.14099 0.4738 0.0
C489 C 0.10056 0.11588 0.48157 0.0
C490 C 0.06136 1.00478 0.54008 0.0
C491 C 0.99607 0.98608 0.50829 0.0
C492 C 0.98765 1.00033 0.62106 0.0
C493 C 0.96051 0.98125 0.63047 0.0
C494 C 0.95319 0.954 0.61871 0.0
C495 C 0.92647 0.93698 0.62651 0.0
C496 C 0.90643 0.94693 0.64599 0.0
C497 C 0.91395 0.97418 0.65777 0.0
C498 C 0.94075 0.99103 0.65026 0.0
C499 C 0.97586 0.04625 0.53125 0.0
O500 O 0.05659 0.08003 0.54428 0.0
O501 O 0.03292 0.06208 0.58854 0.0
O502 O 0.07708 0.0586 0.48286 0.0
O503 O 0.03547 0.07061 0.47286 0.0
O504 O 0.06047 1.0069 0.51093 0.0
O505 O 0.05197 1.02458 0.55281 0.0
O506 O 0.99767 0.98485 0.53817 0.0
O507 O 1.00671 1.00936 0.49314 0.0
O508 O 0.98437 1.02516 0.6123 0.0
O509 O 1.00621 0.98987 0.60381 0.0
O510 O 0.96512 1.02449 0.54746 0.0
O511 O 1.00217 0.0545 0.53756 0.0
H512 H 0.05824 0.10748 0.41911 0.0
H513 H 0.09001 0.15182 0.40568 0.0
H514 H 0.13662 0.14924 0.48876 0.0
H515 H 0.10419 0.10571 0.5025 0.0
H516 H 0.96792 0.94586 0.60327 0.0
H517 H 0.92161 0.91599 0.61739 0.0
H518 H 0.8989 0.98276 0.67241 0.0
H519 H 0.94581 1.01201 0.65947 0.0
Ho520 Ho 0.54145 0.04756 0.05158 0.0
Ho521 Ho 0.48257 1.0328 1.02997 0.0
C522 C 0.48956 0.07317 0.08491 0.0
C523 C 0.59069 0.07228 0.07297 0.0
C524 C 0.59876 0.08586 0.10225 0.0
C525 C 0.58788 0.10957 0.11184 0.0
C526 C 0.59343 0.12036 0.14091 0.0
C527 C 0.60981 0.10758 0.161 0.0
C528 C 0.62118 0.08424 0.15103 0.0
C529 C 0.61588 0.07365 0.12191 0.0
C530 C 0.51124 0.99899 0.07543 0.0
C531 C 0.53432 1.00635 0.99746 0.0
C532 C 0.43362 1.00846 1.00766 0.0
C533 C 0.42652 0.99499 0.97811 0.0
C534 C 0.43789 0.97142 0.96897 0.0
C535 C 0.43402 0.96113 0.93949 0.0
C536 C 0.41874 0.97421 0.91859 0.0
C537 C 0.40663 0.99724 0.92813 0.0
C538 C 0.41036 1.00741 0.95761 0.0
C539 C 0.51314 0.08121 1.00613 0.0
O540 O 0.51762 0.07695 0.07756 0.0
O541 O 0.47094 0.0526 0.07286 0.0
O542 O 0.5815 0.0453 0.07416 0.0
O543 O 0.57505 0.0846 0.05516 0.0
O544 O 0.53827 1.003 0.06646 0.0
O545 O 0.50136 1.02121 0.07218 0.0
O546 O 0.50624 1.00289 1.00464 0.0
O547 O 0.55294 1.02718 1.00906 0.0
O548 O 0.44297 1.03543 1.00667 0.0
O549 O 0.44865 0.99605 1.02603 0.0
O550 O 0.48625 0.07755 1.01547 0.0
O551 O 0.52274 0.05882 1.00926 0.0
H552 H 0.57463 0.11951 0.09716 0.0
H553 H 0.58477 0.13864 0.14767 0.0
H554 H 0.6335 0.07358 0.166 0.0
H555 H 0.62442 0.05531 0.11507 0.0
H556 H 0.45034 0.96126 0.98431 0.0
H557 H 0.44316 0.94305 0.93303 0.0
H558 H 0.39503 1.00804 0.91254 0.0
H559 H 0.40145 1.02564 0.9641 0.0
Ho560 Ho 0.51942 0.51395 0.51604 0.0
Ho561 Ho 0.5161 0.56197 0.55566 0.0
C562 C 0.54335 0.5148 0.58543 0.0
C563 C 0.53886 0.47363 0.4901 0.0
C564 C 0.56021 0.45771 0.50188 0.0
C565 C 0.58938 0.47081 0.5064 0.0
C566 C 0.60844 0.45681 0.52125 0.0
C567 C 0.5987 0.42955 0.53208 0.0
C568 C 0.56974 0.41627 0.52713 0.0
C569 C 0.55072 0.43018 0.51204 0.0
C570 C 0.46738 0.5105 0.54544 0.0
C571 C 0.49213 0.56122 0.48575 0.0
C572 C 0.49741 0.60261 0.58193 0.0
C573 C 0.48285 0.62398 0.56859 0.0
C574 C 0.45262 0.62198 0.57298 0.0
C575 C 0.43777 0.63957 0.55733 0.0
C576 C 0.4529 0.65978 0.53726 0.0
C577 C 0.48324 0.66236 0.53344 0.0
C578 C 0.49808 0.64455 0.54884 0.0
C579 C 0.56821 0.56517 0.52629 0.0
O580 O 0.54612 0.5067 0.55698 0.0
O581 O 0.52877 0.53489 0.59195 0.0
O582 O 0.51373 0.47 0.50471 0.0
O583 O 0.54886 0.49989 0.48355 0.0
O584 O 0.47024 0.50301 0.51743 0.0
O585 O 0.49222 0.51869 0.55653 0.0
O586 O 0.49211 0.57158 0.51359 0.0
O587 O 0.50403 0.53921 0.47976 0.0
O588 O 0.52492 0.60374 0.5745 0.0
O589 O 0.48234 0.57711 0.58137 0.0
O590 O 0.56536 0.5727 0.55427 0.0
O591 O 0.54334 0.55722 0.5152 0.0
H592 H 0.59741 0.49213 0.49916 0.0
H593 H 0.63066 0.46751 0.52478 0.0
H594 H 0.56185 0.39503 0.5347 0.0
H595 H 0.52837 0.41964 0.50898 0.0
H596 H 0.44033 0.60632 0.58801 0.0
H597 H 0.41444 0.63755 0.56115 0.0
H598 H 0.49538 0.67786 0.51816 0.0
H599 H 0.52135 0.64655 0.54472 0.0
Ho600 Ho 0.01925 0.50932 0.0499 0.0
Ho601 Ho 1.01202 0.56754 1.02167 0.0
C602 C 0.07165 0.56204 0.05645 0.0
C603 C 0.0282 0.45936 0.05916 0.0
C604 C 0.05471 0.44811 0.06493 0.0
C605 C 0.08206 0.46168 0.0535 0.0
C606 C 0.10724 0.45132 0.05972 0.0
C607 C 0.10561 0.42757 0.07801 0.0
C608 C 0.07824 0.4141 0.08954 0.0
C609 C 0.05296 0.42422 0.0829 0.0
C610 C 0.9991 0.54545 0.08815 0.0
C611 C 0.9601 0.51366 1.01272 0.0
C612 C 0.99859 0.6162 1.01522 0.0
C613 C 0.97139 0.62715 1.014 0.0
C614 C 0.9445 0.61046 1.02231 0.0
C615 C 0.91848 0.6201 1.01797 0.0
C616 C 0.91889 0.64643 1.00475 0.0
C617 C 0.94608 0.66324 0.99711 0.0
C618 C 0.97204 0.65369 1.00178 0.0
C619 C 0.04211 0.53828 0.98269 0.0
O620 O 0.06462 0.53439 0.05468 0.0
O621 O 0.05378 0.57867 0.04787 0.0
O622 O 0.02004 0.47498 0.08066 0.0
O623 O 0.02655 0.46978 1.03216 0.0
O624 O 1.0155 0.52806 0.09605 0.0
O625 O 0.99248 0.5415 0.06056 0.0
O626 O 0.96898 0.54101 1.00931 0.0
O627 O 0.97548 0.49771 1.02729 0.0
O628 O 1.00301 0.60005 0.99251 0.0
O629 O 1.00499 0.60659 0.04139 0.0
O630 O 0.03536 0.56222 0.97637 0.0
O631 O 0.03287 0.53279 1.00933 0.0
H632 H 0.08403 0.48051 0.04012 0.0
H633 H 0.12812 0.46234 0.05096 0.0
H634 H 0.07642 0.39573 0.10369 0.0
H635 H 0.0321 0.41359 0.09208 0.0
H636 H 0.94357 0.5897 1.03137 0.0
H637 H 0.89806 0.6067 1.02449 0.0
H638 H 0.94738 0.68335 0.98633 0.0
H639 H 0.99261 0.66668 0.99486 0.0
H640 H 0.27441 0.22596 0.356 0.0
H641 H 0.24932 0.30022 0.39416 0.0
H642 H 0.23459 0.1972 0.38336 0.0
H643 H 0.20795 0.27081 0.42047 0.0
H644 H 0.14695 0.19866 0.47722 0.0
H645 H 0.19066 0.2313 0.45935 0.0
H646 H 0.18218 0.19256 0.37107 0.0
H647 H 0.13971 0.15968 0.38885 0.0
C648 C 0.26104 0.23631 0.37088 0.0
C649 C 0.26508 0.26564 0.37245 0.0
C650 C 0.23778 0.21967 0.3862 0.0
C651 C 0.21769 0.23182 0.40323 0.0
C652 C 0.22299 0.26094 0.40717 0.0
C653 C 0.24655 0.27774 0.39193 0.0
C654 C 0.1544 0.19728 0.45396 0.0
C655 C 0.13984 0.17649 0.4345 0.0
C656 C 0.17929 0.21601 0.44376 0.0
C657 C 0.19009 0.21404 0.41405 0.0
C658 C 0.17471 0.19416 0.39431 0.0
C659 C 0.15 0.17559 0.4044 0.0
H660 H 0.37468 0.95672 0.73051 0.0
H661 H 0.40946 0.88258 0.74873 0.0
H662 H 0.38958 0.97523 0.78029 0.0
H663 H 0.42443 0.90115 0.79882 0.0
H664 H 0.45991 0.95608 0.88214 0.0
H665 H 0.45523 0.9413 0.82916 0.0
H666 H 0.36683 0.95606 0.83021 0.0
H667 H 0.37107 0.97002 0.88304 0.0
C668 C 0.38612 0.9447 0.74499 0.0
C669 C 0.39057 0.91809 0.73613 0.0
C670 C 0.39452 0.95521 0.77344 0.0
C671 C 0.40755 0.93931 0.79354 0.0
C672 C 0.41437 0.91378 0.78369 0.0
C673 C 0.40591 0.9032 0.75509 0.0
C674 C 0.43936 0.95583 0.87115 0.0
C675 C 0.41588 0.96437 0.88678 0.0
C676 C 0.4368 0.94755 0.84082 0.0
C677 C 0.41087 0.94799 0.82556 0.0
C678 C 0.38734 0.95619 0.84126 0.0
C679 C 0.38977 0.96418 0.87153 0.0
H680 H 0.6573 0.44339 0.70523 0.0
H681 H 0.57305 0.42509 0.75065 0.0
H682 H 0.63607 0.46494 0.66354 0.0
H683 H 0.55173 0.44676 0.70887 0.0
H684 H 0.53435 0.51882 0.64691 0.0
H685 H 0.55439 0.49471 0.68743 0.0
H686 H 0.60126 0.45378 0.62113 0.0
H687 H 0.58113 0.4778 0.58054 0.0
C688 C 0.63419 0.44388 0.70629 0.0
C689 C 0.61695 0.43254 0.73146 0.0
C690 C 0.62195 0.45611 0.68224 0.0
C691 C 0.59215 0.45779 0.68276 0.0
C692 C 0.57481 0.44613 0.70776 0.0
C693 C 0.58697 0.43346 0.73163 0.0
C694 C 0.54898 0.50475 0.64089 0.0
C695 C 0.55616 0.50047 0.6103 0.0
C696 C 0.56031 0.49071 0.6642 0.0
C697 C 0.57948 0.4722 0.6577 0.0
C698 C 0.58679 0.46803 0.6271 0.0
C699 C 0.57515 0.48179 0.60376 0.0
H700 H 0.97344 0.65687 0.23826 0.0
H701 H 0.88594 0.62433 0.20901 0.0
H702 H 0.99308 0.63213 0.19709 0.0
H703 H 0.90569 0.59871 0.16818 0.0
H704 H 0.95391 0.57445 0.08146 0.0
H705 H 0.93369 0.60276 0.1198 0.0
H706 H 0.99655 0.58519 0.18363 0.0
H707 H 0.01673 0.55765 0.14546 0.0
C708 C 0.95829 0.64458 0.22297 0.0
C709 C 0.92798 0.64277 0.22722 0.0
C710 C 0.96962 0.63005 0.19942 0.0
C711 C 0.95108 0.61315 0.17916 0.0
C712 C 0.92075 0.61162 0.18307 0.0
C713 C 0.90937 0.6261 0.2068 0.0
C714 C 0.96353 0.57698 0.10357 0.0
C715 C 0.98705 0.56389 0.11027 0.0
C716 C 0.95179 0.59298 0.12571 0.0
C717 C 0.96345 0.59647 0.15501 0.0
C718 C 0.98716 0.5835 0.16136 0.0
C719 C 0.99869 0.56748 0.13941 0.0
H720 H 0.39844 0.16801 0.21044 0.0
H721 H 0.44281 0.228 0.14526 0.0
H722 H 0.42008 0.13144 0.18621 0.0
H723 H 0.46423 0.19117 0.12067 0.0
H724 H 0.51957 0.12363 0.10433 0.0
H725 H 0.50012 0.15986 0.13193 0.0
H726 H 0.41521 0.10615 0.13672 0.0
H727 H 0.43457 0.06985 0.10919 0.0
C728 C 0.41301 0.17341 0.19105 0.0
C729 C 0.41906 0.2009 0.17982 0.0
C730 C 0.42518 0.15242 0.17704 0.0
C731 C 0.44385 0.15845 0.15159 0.0
C732 C 0.45013 0.18598 0.14045 0.0
C733 C 0.43769 0.20698 0.15432 0.0
C734 C 0.49684 0.11938 0.11159 0.0
C735 C 0.4786 0.09384 0.10452 0.0
C736 C 0.48567 0.14025 0.12716 0.0
C737 C 0.45612 0.13591 0.13628 0.0
C738 C 0.43812 0.11003 0.13012 0.0
C739 C 0.44921 0.08926 0.1143 0.0
H740 H 0.13624 0.86141 0.59291 0.0
H741 H 0.17653 0.93387 0.64399 0.0
H742 H 0.09966 0.88729 0.57536 0.0
H743 H 0.1403 0.95928 0.62683 0.0
H744 H 0.06744 0.99934 0.60081 0.0
H745 H 0.08987 0.96466 0.62638 0.0
H746 H 0.10351 0.92636 0.54005 0.0
H747 H 0.08026 0.96041 0.51478 0.0
C748 C 0.13704 0.88263 0.60076 0.0
C749 C 0.15936 0.89556 0.61978 0.0
C750 C 0.11611 0.89741 0.59076 0.0
C751 C 0.11716 0.92535 0.59964 0.0
C752 C 0.13849 0.93765 0.61998 0.0
C753 C 0.15934 0.92298 0.62987 0.0
C754 C 0.07478 0.98317 0.58746 0.0
C755 C 0.07252 0.98266 0.55586 0.0
C756 C 0.08765 0.96338 0.60204 0.0
C757 C 0.09864 0.9429 0.58521 0.0
C758 C 0.09497 0.94163 0.55372 0.0
C759 C 0.08199 0.96133 0.53919 0.0
H760 H 0.8168 0.45021 0.89122 0.0
H761 H 0.78485 0.41961 0.97971 0.0
H762 H 0.86188 0.47474 0.91378 0.0
H763 H 0.83013 0.44331 1.00181 0.0
H764 H 0.92861 0.46074 1.02282 0.0
H765 H 0.88261 0.43866 1.0004 0.0
H766 H 0.8809 0.51392 0.94999 0.0
H767 H 0.92687 0.53615 0.97249 0.0
C768 C 0.81914 0.44885 0.91546 0.0
C769 C 0.79704 0.43249 0.93343 0.0
C770 C 0.84511 0.46288 0.92839 0.0
C771 C 0.84983 0.46075 0.9596 0.0
C772 C 0.82754 0.44495 0.97763 0.0
C773 C 0.80151 0.43124 0.96482 0.0
C774 C 0.91845 0.47267 1.00704 0.0
C775 C 0.93159 0.50031 0.99959 0.0
C776 C 0.89196 0.46002 0.99425 0.0
C777 C 0.87799 0.47448 0.97334 0.0
C778 C 0.89114 0.50207 0.96579 0.0
C779 C 0.91746 0.51488 0.97889 0.0
H780 H 0.70763 0.59816 0.38608 0.0
H781 H 0.74332 0.64203 0.46605 0.0
H782 H 0.66361 0.57841 0.41482 0.0
H783 H 0.69847 0.62461 0.49381 0.0
H784 H 0.62374 0.57478 0.54706 0.0
H785 H 0.66927 0.58834 0.51818 0.0
H786 H 0.62049 0.58656 0.43586 0.0
H787 H 0.57525 0.57118 0.46483 0.0
C788 C 0.70625 0.60368 0.40975 0.0
C789 C 0.72939 0.622 0.42341 0.0
C790 C 0.68058 0.59265 0.42625 0.0
C791 C 0.67694 0.59985 0.45689 0.0
C792 C 0.7002 0.618 0.47053 0.0
C793 C 0.726 0.6286 0.45423 0.0
C794 C 0.62286 0.57706 0.52274 0.0
C795 C 0.59592 0.57204 0.50827 0.0
C796 C 0.64902 0.58515 0.50606 0.0
C797 C 0.649 0.5891 0.47443 0.0
C798 C 0.62183 0.58349 0.45998 0.0
C799 C 0.59571 0.57482 0.47664 0.0
H800 H 0.26329 0.40608 0.16545 0.0
H801 H 0.2486 0.33823 0.10086 0.0
H802 H 0.22237 0.42419 0.14528 0.0
H803 H 0.20808 0.35702 0.08008 0.0
H804 H 0.14971 0.4173 0.0402 0.0
H805 H 0.19486 0.40206 0.05435 0.0
H806 H 0.16735 0.40103 0.14837 0.0
H807 H 0.12232 0.41591 0.13428 0.0
C808 C 0.25161 0.39525 0.14665 0.0
C809 C 0.25889 0.37041 0.13513 0.0
C810 C 0.22822 0.40565 0.13512 0.0
C811 C 0.21184 0.39173 0.11149 0.0
C812 C 0.2204 0.36813 0.09833 0.0
C813 C 0.24369 0.35748 0.11014 0.0
C814 C 0.15341 0.41376 0.06385 0.0
C815 C 0.13257 0.4177 0.08618 0.0
C816 C 0.17911 0.40499 0.07189 0.0
C817 C 0.18462 0.40061 0.10243 0.0
C818 C 0.16376 0.40456 0.12468 0.0
C819 C 0.13791 0.41282 0.11662 0.0
H820 H 0.58932 0.20914 0.87388 0.0
H821 H 0.59383 0.25299 0.95923 0.0
H822 H 0.56875 0.16522 0.90007 0.0
H823 H 0.57293 0.20932 0.98525 0.0
H824 H 0.49962 0.13284 1.01049 0.0
H825 H 0.52296 0.17583 0.9848 0.0
H826 H 0.58447 0.13175 0.94102 0.0
H827 H 0.56136 0.08857 0.96749 0.0
C828 C 0.58581 0.20942 0.89819 0.0
C829 C 0.59319 0.23462 0.91443 0.0
C830 C 0.57427 0.18423 0.91322 0.0
C831 C 0.56922 0.18372 0.94478 0.0
C832 C 0.57644 0.20896 0.96094 0.0
C833 C 0.58852 0.23398 0.94603 0.0
C834 C 0.51824 0.1323 0.99552 0.0
C835 C 0.52862 0.10727 0.99103 0.0
C836 C 0.53167 0.157 0.98086 0.0
C837 C 0.55555 0.15728 0.96078 0.0
C838 C 0.56599 0.1322 0.9562 0.0
C839 C 0.55289 0.10753 0.97146 0.0
H840 H 0.87805 0.84473 0.43198 0.0
H841 H 0.96318 0.82873 0.40556 0.0
H842 H 0.90075 0.88834 0.45558 0.0
H843 H 0.98576 0.8736 0.42802 0.0
H844 H 1.00598 0.97221 0.44902 0.0
H845 H 0.98516 0.92898 0.42221 0.0
H846 H 0.93526 0.89864 0.50261 0.0
H847 H 0.95649 0.94132 0.52961 0.0
C848 C 0.90163 0.85034 0.43117 0.0
C849 C 0.91867 0.8325 0.41734 0.0
C850 C 0.91462 0.87558 0.4446 0.0
C851 C 0.94505 0.8843 0.44402 0.0
C852 C 0.9622 0.86742 0.42884 0.0
C853 C 0.9492 0.84174 0.41583 0.0
C854 C 0.99052 0.95633 0.46095 0.0
C855 C 0.98283 0.96033 0.49146 0.0
C856 C 0.97878 0.9315 0.44563 0.0
C857 C 0.95854 0.9104 0.46026 0.0
C858 C 0.95068 0.91454 0.49065 0.0
C859 C 0.9629 0.93901 0.50614 0.0
H860 H 0.38457 0.80589 0.49092 0.0
H861 H 0.31414 0.74164 0.52334 0.0
H862 H 0.41426 0.7706 0.48007 0.0
H863 H 0.34389 0.70657 0.51398 0.0
H864 H 0.40236 0.64657 0.50587 0.0
H865 H 0.37251 0.67891 0.48748 0.0
H866 H 0.43794 0.74854 0.51667 0.0
H867 H 0.46779 0.71631 0.53392 0.0
C868 C 0.37513 0.78407 0.49468 0.0
C869 C 0.34731 0.77642 0.50829 0.0
C870 C 0.39218 0.76388 0.48881 0.0
C871 C 0.38187 0.73584 0.49708 0.0
C872 C 0.35266 0.72789 0.50724 0.0
C873 C 0.33549 0.74802 0.51265 0.0
C874 C 0.41045 0.66885 0.50773 0.0
C875 C 0.4371 0.67902 0.52172 0.0
C876 C 0.39342 0.68736 0.49721 0.0
C877 C 0.40256 0.71638 0.50087 0.0
C878 C 0.43025 0.72642 0.51296 0.0
C879 C 0.44737 0.70794 0.52313 0.0
H880 H 0.76371 0.81008 0.68818 0.0
H881 H 0.7364 0.88385 0.72456 0.0
H882 H 0.80555 0.83974 0.66289 0.0
H883 H 0.77753 0.91312 0.69886 0.0
H884 H 0.87778 0.94334 0.70088 0.0
H885 H 0.83058 0.91525 0.71441 0.0
H886 H 0.82328 0.8807 0.62415 0.0
H887 H 0.87037 0.90978 0.60994 0.0
C888 C 0.76613 0.83257 0.69007 0.0
C889 C 0.74691 0.84455 0.7087 0.0
C890 C 0.78996 0.84951 0.67548 0.0
C891 C 0.79494 0.87862 0.67946 0.0
C892 C 0.77433 0.89067 0.6958 0.0
C893 C 0.75054 0.87384 0.71023 0.0
C894 C 0.866 0.93022 0.68364 0.0
C895 C 0.87785 0.92907 0.65423 0.0
C896 C 0.83895 0.91408 0.69144 0.0
C897 C 0.82318 0.89611 0.67018 0.0
C898 C 0.83506 0.89445 0.64091 0.0
C899 C 0.86207 0.91095 0.63291 0.0
H900 H 0.63103 0.20021 0.3307 0.0
H901 H 0.65788 0.12166 0.34778 0.0
H902 H 0.61471 0.18339 0.28043 0.0
H903 H 0.64218 0.10524 0.29752 0.0
H904 H 0.65918 0.11117 0.19399 0.0
H905 H 0.66618 0.12538 0.24655 0.0
H906 H 0.57898 0.14303 0.25181 0.0
H907 H 0.5713 0.12769 0.19929 0.0
C908 C 0.63276 0.17915 0.32403 0.0
C909 C 0.64619 0.1624 0.34286 0.0
C910 C 0.62352 0.16959 0.2953 0.0
C911 C 0.62776 0.14328 0.28508 0.0
C912 C 0.63922 0.12583 0.30476 0.0
C913 C 0.6482 0.13523 0.33344 0.0
C914 C 0.6413 0.1177 0.20635 0.0
C915 C 0.61458 0.11801 0.19245 0.0
C916 C 0.64536 0.12589 0.23642 0.0
C917 C 0.62297 0.13494 0.25318 0.0
C918 C 0.59653 0.13611 0.23925 0.0
C919 C 0.59228 0.12751 0.20917 0.0
H920 H 0.40654 0.59745 0.32049 0.0
H921 H 0.4284 0.67831 0.36332 0.0
H922 H 0.4277 0.57642 0.36202 0.0
H923 H 0.45106 0.65737 0.40447 0.0
H924 H 0.46312 0.60561 0.48919 0.0
H925 H 0.44195 0.62798 0.44813 0.0
H926 H 0.47159 0.57154 0.38401 0.0
H927 H 0.49188 0.54877 0.42505 0.0
C928 C 0.41586 0.61087 0.33876 0.0
C929 C 0.41537 0.63971 0.33836 0.0
C930 C 0.42849 0.59877 0.36258 0.0
C931 C 0.44135 0.61502 0.38692 0.0
C932 C 0.44115 0.64396 0.38645 0.0
C933 C 0.42843 0.65611 0.36254 0.0
C934 C 0.46505 0.59788 0.46633 0.0
C935 C 0.47912 0.57512 0.46064 0.0
C936 C 0.45305 0.61093 0.44262 0.0
C937 C 0.45478 0.60167 0.41243 0.0
C938 C 0.46915 0.57907 0.40684 0.0
C939 C 0.48102 0.566 0.43051 0.0
H940 H 0.12493 0.47779 0.82308 0.0
H941 H 0.09311 0.40209 0.87357 0.0
H942 H 0.10742 0.50501 0.86315 0.0
H943 H 0.07396 0.42935 0.91308 0.0
H944 H 0.06524 0.4907 0.99218 0.0
H945 H 0.08476 0.46193 0.95401 0.0
H946 H 0.06464 0.51625 0.8838 0.0
H947 H 0.046 0.54487 0.92186 0.0
C948 C 0.11428 0.46681 0.84274 0.0
C949 C 0.11064 0.4375 0.84475 0.0
C950 C 0.10373 0.48253 0.86572 0.0
C951 C 0.08886 0.46958 0.89156 0.0
C952 C 0.08542 0.44028 0.89378 0.0
C953 C 0.09611 0.42451 0.87078 0.0
C954 C 0.0648 0.49623 0.9686 0.0
C955 C 0.05385 0.51998 0.96018 0.0
C956 C 0.07601 0.47975 0.94657 0.0
C957 C 0.07658 0.48665 0.9155 0.0
C958 C 0.06533 0.51038 0.90733 0.0
C959 C 0.05436 0.5268 0.92927 0.0
H960 H 0.56969 0.86345 0.89045 0.0
H961 H 0.63216 0.87747 0.96217 0.0
H962 H 0.54906 0.90336 0.90817 0.0
H963 H 0.61107 0.91676 0.98033 0.0
H964 H 0.59112 1.0037 0.98361 0.0
H965 H 0.60976 0.9642 0.96223 0.0
H966 H 0.52154 0.91926 0.95128 0.0
H967 H 0.50279 0.95893 0.97233 0.0
C968 C 0.57881 0.87488 0.91017 0.0
C969 C 0.6026 0.86733 0.92488 0.0
C970 C 0.56691 0.89764 0.92039 0.0
C971 C 0.57868 0.91342 0.94541 0.0
C972 C 0.60186 0.90532 0.96065 0.0
C973 C 0.61365 0.88252 0.95053 0.0
C974 C 0.57564 0.98561 0.97621 0.0
C975 C 0.54544 0.98443 0.97992 0.0
C976 C 0.58635 0.96284 0.96424 0.0
C977 C 0.56713 0.93841 0.95559 0.0
C978 C 0.53691 0.93778 0.95775 0.0
C979 C 0.52618 0.96054 0.96983 0.0
H980 H 0.84686 0.14775 0.52358 0.0
H981 H 0.89035 0.16494 0.43644 0.0
H982 H 0.88083 0.11745 0.53622 0.0
H983 H 0.92433 0.13424 0.44911 0.0
H984 H 0.91672 1.03709 0.52905 0.0
H985 H 0.88658 0.07015 0.51353 0.0
H986 H 0.9641 0.1297 0.48809 0.0
H987 H 0.9944 0.09665 0.50388 0.0
C988 C 0.86411 0.14555 0.50742 0.0
C989 C 0.866 0.15864 0.47903 0.0
C990 C 0.88326 0.12793 0.51449 0.0
C991 C 0.90479 0.12323 0.4934 0.0
C992 C 0.9078 0.13751 0.46567 0.0
C993 C 0.88841 0.15497 0.45844 0.0
C994 C 0.9273 0.05709 0.5198 0.0
C995 C 0.95782 0.06446 0.51784 0.0
C996 C 0.91011 0.07604 0.51114 0.0
C997 C 0.92314 0.10256 0.50011 0.0
C998 C 0.95361 0.10938 0.4966 0.0
C999 C 0.97087 0.09049 0.50557 0.0
H1000 H 0.21479 0.62122 0.17924 0.0
H1001 H 0.24496 0.65845 0.09288 0.0
H1002 H 0.17041 0.59642 0.15552 0.0
H1003 H 0.20022 0.63466 0.06984 0.0
H1004 H 0.10061 0.61638 0.05167 0.0
H1005 H 0.14651 0.638 0.07467 0.0
H1006 H 0.15332 0.55901 0.11475 0.0
H1007 H 0.1075 0.53715 0.09139 0.0
C1008 C 0.21224 0.62402 0.15523 0.0
C1009 C 0.2336 0.64234 0.13826 0.0
C1010 C 0.18666 0.60983 0.14165 0.0
C1011 C 0.18157 0.61382 0.11084 0.0
C1012 C 0.20315 0.63153 0.09374 0.0
C1013 C 0.22883 0.64533 0.10713 0.0
C1014 C 0.11191 0.60352 0.06524 0.0
C1015 C 0.10029 0.57496 0.06953 0.0
C1016 C 0.13831 0.61593 0.07837 0.0
C1017 C 0.15363 0.60026 0.0966 0.0
C1018 C 0.142 0.57171 0.10101 0.0
C1019 C 0.11582 0.55916 0.08742 0.0
H1020 H 0.2942 0.42935 0.60792 0.0
H1021 H 0.32938 0.47579 0.68661 0.0
H1022 H 0.33867 0.44721 0.57959 0.0
H1023 H 0.37286 0.49585 0.65729 0.0
H1024 H 0.46096 0.50477 0.60693 0.0
H1025 H 0.41624 0.48826 0.63631 0.0
H1026 H 0.36659 0.48396 0.55435 0.0
H1027 H 0.4117 0.49874 0.52504 0.0
C1028 C 0.31132 0.44342 0.61933 0.0
C1029 C 0.30789 0.45071 0.64994 0.0
C1030 C 0.33686 0.45424 0.60271 0.0
C1031 C 0.35978 0.47324 0.61582 0.0
C1032 C 0.35614 0.48098 0.64628 0.0
C1033 C 0.33076 0.46976 0.66309 0.0
C1034 C 0.44042 0.50035 0.59528 0.0
C1035 C 0.43987 0.50284 0.56364 0.0
C1036 C 0.4146 0.49102 0.61217 0.0
C1037 C 0.38737 0.48443 0.59795 0.0
C1038 C 0.38695 0.48797 0.56628 0.0
C1039 C 0.41284 0.49675 0.54937 0.0
H1040 H 0.78012 0.73795 0.96151 0.0
H1041 H 0.77761 0.67189 0.89546 0.0
H1042 H 0.81456 0.71784 0.991 0.0
H1043 H 0.81329 0.65289 0.92369 0.0
H1044 H 0.86819 0.61427 0.98443 0.0
H1045 H 0.82504 0.62981 0.96673 0.0
H1046 H 0.86455 0.71528 0.98709 0.0
H1047 H 0.90675 0.69949 1.00693 0.0
C1048 C 0.78659 0.71893 0.95347 0.0
C1049 C 0.77634 0.70674 0.92589 0.0
C1050 C 0.80668 0.7076 0.97018 0.0
C1051 C 0.81711 0.68391 0.95962 0.0
C1052 C 0.80568 0.67098 0.93281 0.0
C1053 C 0.78546 0.68214 0.9163 0.0
C1054 C 0.8674 0.6363 0.986 0.0
C1055 C 0.89123 0.65562 0.9969 0.0
C1056 C 0.84274 0.64529 0.97537 0.0
C1057 C 0.84136 0.67389 0.97497 0.0
C1058 C 0.86461 0.69307 0.98717 0.0
C1059 C 0.88912 0.68404 0.99814 0.0
H1060 H 0.43573 0.8685 0.20527 0.0
H1061 H 0.4324 0.8261 0.1191 0.0
H1062 H 0.45578 0.91301 0.17995 0.0
H1063 H 0.45278 0.87034 0.09396 0.0
H1064 H 0.52544 0.94773 0.07044 0.0
H1065 H 0.50243 0.90424 0.09534 0.0
H1066 H 0.43984 0.9469 0.13937 0.0
H1067 H 0.46265 0.99062 0.11367 0.0
C1068 C 0.43937 0.86866 0.18097 0.0
C1069 C 0.43248 0.84369 0.16424 0.0
C1070 C 0.45062 0.89419 0.16644 0.0
C1071 C 0.45586 0.89527 0.13491 0.0
C1072 C 0.4491 0.87026 0.11826 0.0
C1073 C 0.43733 0.84491 0.13267 0.0
C1074 C 0.50666 0.94785 0.0853 0.0
C1075 C 0.49589 0.97265 0.09008 0.0
C1076 C 0.49342 0.92288 0.09951 0.0
C1077 C 0.46932 0.92205 0.11942 0.0
C1078 C 0.45849 0.94688 0.12431 0.0
C1079 C 0.47141 0.97185 0.10948 0.0
H1080 H 0.11107 0.22127 0.70057 0.0
H1081 H 0.11551 0.25813 0.61172 0.0
H1082 H 0.09186 0.17527 0.67869 0.0
H1083 H 0.0956 0.21281 0.58994 0.0
H1084 H 0.09204 0.12607 0.55283 0.0
H1085 H 0.1097 0.17059 0.57732 0.0
H1086 H 0.05315 0.14449 0.65484 0.0
H1087 H 0.03619 0.09937 0.63059 0.0
C1088 C 0.10736 0.21963 0.67647 0.0
C1089 C 0.11506 0.24334 0.65788 0.0
C1090 C 0.09637 0.19322 0.66382 0.0
C1091 C 0.09258 0.18993 0.63229 0.0
C1092 C 0.09899 0.21406 0.6141 0.0
C1093 C 0.11018 0.24023 0.62665 0.0
C1094 C 0.08345 0.12965 0.57518 0.0
C1095 C 0.06259 0.10893 0.58958 0.0
C1096 C 0.09341 0.15546 0.58922 0.0
C1097 C 0.08266 0.16164 0.61808 0.0
C1098 C 0.06221 0.14065 0.63278 0.0
C1099 C 0.05238 0.11468 0.61877 0.0
H1100 H 0.65191 0.28406 0.57655 0.0
H1101 H 0.73579 0.33781 0.56192 0.0
H1102 H 0.62931 0.32467 0.58318 0.0
H1103 H 0.71345 0.37871 0.56997 0.0
H1104 H 0.65403 0.42634 0.51393 0.0
H1105 H 0.68431 0.39531 0.53304 0.0
H1106 H 0.61988 0.36748 0.60376 0.0
H1107 H 0.58918 0.39845 0.58398 0.0
C1108 C 0.6657 0.30462 0.57608 0.0
C1109 C 0.69539 0.30784 0.56785 0.0
C1110 C 0.6528 0.32799 0.58011 0.0
C1111 C 0.66944 0.35503 0.57618 0.0
C1112 C 0.69991 0.35815 0.5723 0.0
C1113 C 0.71279 0.3347 0.56805 0.0
C1114 C 0.64668 0.41417 0.53405 0.0
C1115 C 0.61903 0.41434 0.5471 0.0
C1116 C 0.66417 0.39647 0.54523 0.0
C1117 C 0.65444 0.37863 0.56984 0.0
C1118 C 0.62778 0.38057 0.58445 0.0
C1119 C 0.61017 0.39818 0.57309 0.0
loop_
_geom_bond_atom_site_label_1
_geom_bond_atom_site_label_2
_geom_bond_distance
_geom_bond_site_symmetry_2
_ccdc_geom_bond_type
C0 C1 1.391 . S
C0 C4 1.391 . S
C0 H42 0.948 . S
C1 C0 1.391 . S
C1 C2 1.391 . S
C2 C1 1.391 . S
C2 H58 0.947 . S
C2 C59 1.392 . S
C3 C4 1.391 . S
C3 C7 1.397 . S
C3 C59 1.419 . S
C4 C0 1.391 . S
C4 C3 1.391 . S
C4 C5 1.399 . S
C5 C4 1.399 . S
C5 C8 1.396 . S
C5 C17 1.453 . S
C5 C18 1.684 . S
H6 C30 0.948 . S
C7 C3 1.397 . S
C7 C8 1.394 . S
C7 C26 1.723 . S
C8 C5 1.396 . S
C8 C7 1.394 . S
C8 C38 1.723 . S
H9 C32 0.947 . S
H10 C33 0.948 . S
H11 C39 0.982 . S
H12 C40 0.979 . S
H13 C40 0.980 . S
H14 C40 0.983 . S
H15 C39 0.979 . S
H16 C39 0.977 . S
C17 C5 1.453 . S
C17 H46 0.982 . S
C17 H47 0.979 . S
C17 H48 0.977 . S
C18 C5 1.684 . S
C18 H43 0.979 . S
C18 H44 0.980 . S
C18 H45 0.983 . S
C19 C20 1.391 . S
C19 C24 1.391 . S
C19 H49 0.948 . S
C20 C19 1.391 . S
C20 C21 1.391 . S
C21 C20 1.391 . S
C21 C22 1.392 . S
C21 H50 0.947 . S
C22 C21 1.392 . S
C22 C23 1.419 . S
C22 H51 0.948 . S
C23 C22 1.419 . S
C23 C24 1.391 . S
C23 C27 1.397 . S
C24 C19 1.391 . S
C24 C23 1.391 . S
C24 C25 1.399 . S
C25 C24 1.399 . S
C25 C26 1.396 . S
C25 C28 1.453 . S
C25 C29 1.684 . S
C26 C7 1.723 . S
C26 C25 1.396 . S
C26 C27 1.394 . S
C27 C23 1.397 . S
C27 C26 1.394 . S
C27 C37 1.723 . S
C28 C25 1.453 . S
C28 H52 0.982 . S
C28 H53 0.979 . S
C28 H54 0.977 . S
C29 C25 1.684 . S
C29 H55 0.979 . S
C29 H56 0.980 . S
C29 H57 0.983 . S
C30 H6 0.948 . S
C30 C31 1.391 . S
C30 C35 1.391 . S
C31 C30 1.391 . S
C31 C32 1.391 . S
C32 H9 0.947 . S
C32 C31 1.391 . S
C32 C33 1.392 . S
C33 H10 0.948 . S
C33 C32 1.392 . S
C33 C34 1.419 . S
C34 C33 1.419 . S
C34 C35 1.391 . S
C34 C38 1.397 . S
C35 C30 1.391 . S
C35 C34 1.391 . S
C35 C36 1.399 . S
C36 C35 1.399 . S
C36 C37 1.396 . S
C36 C39 1.453 . S
C36 C40 1.684 . S
C37 C27 1.723 . S
C37 C36 1.396 . S
C37 C38 1.394 . S
C38 C8 1.723 . S
C38 C34 1.397 . S
C38 C37 1.394 . S
C39 H11 0.982 . S
C39 H15 0.979 . S
C39 H16 0.977 . S
C39 C36 1.453 . S
C40 H12 0.979 . S
C40 H13 0.980 . S
C40 H14 0.983 . S
C40 C36 1.684 . S
H41 C59 0.948 . S
H42 C0 0.948 . S
H43 C18 0.979 . S
H44 C18 0.980 . S
H45 C18 0.983 . S
H46 C17 0.982 . S
H47 C17 0.979 . S
H48 C17 0.977 . S
H49 C19 0.948 . S
H50 C21 0.947 . S
H51 C22 0.948 . S
H52 C28 0.982 . S
H53 C28 0.979 . S
H54 C28 0.977 . S
H55 C29 0.979 . S
H56 C29 0.980 . S
H57 C29 0.983 . S
H58 C2 0.947 . S
C59 C2 1.392 . S
C59 C3 1.419 . S
C59 H41 0.948 . S
C60 C61 1.391 . S
C60 C64 1.391 . S
C60 H102 0.948 . S
C61 C60 1.391 . S
C61 C62 1.391 . S
C62 C61 1.391 . S
C62 H118 0.947 . S
C62 C119 1.392 . S
C63 C64 1.391 . S
C63 C67 1.397 . S
C63 C119 1.419 . S
C64 C60 1.391 . S
C64 C63 1.391 . S
C64 C65 1.399 . S
C65 C64 1.399 . S
C65 C68 1.396 . S
C65 C77 1.453 . S
C65 C78 1.684 . S
H66 C90 0.948 . S
C67 C63 1.397 . S
C67 C68 1.394 . S
C67 C86 1.723 . S
C68 C65 1.396 . S
C68 C67 1.394 . S
C68 C98 1.723 . S
H69 C92 0.947 . S
H70 C93 0.948 . S
H71 C99 0.982 . S
H72 C100 0.979 . S
H73 C100 0.980 . S
H74 C100 0.983 . S
H75 C99 0.979 . S
H76 C99 0.977 . S
C77 C65 1.453 . S
C77 H106 0.982 . S
C77 H107 0.979 . S
C77 H108 0.977 . S
C78 C65 1.684 . S
C78 H103 0.979 . S
C78 H104 0.980 . S
C78 H105 0.983 . S
C79 C80 1.391 . S
C79 C84 1.391 . S
C79 H109 0.948 . S
C80 C79 1.391 . S
C80 C81 1.391 . S
C81 C80 1.391 . S
C81 C82 1.392 . S
C81 H110 0.947 . S
C82 C81 1.392 . S
C82 C83 1.419 . S
C82 H111 0.948 . S
C83 C82 1.419 . S
C83 C84 1.391 . S
C83 C87 1.397 . S
C84 C79 1.391 . S
C84 C83 1.391 . S
C84 C85 1.399 . S
C85 C84 1.399 . S
C85 C86 1.396 . S
C85 C88 1.453 . S
C85 C89 1.684 . S
C86 C67 1.723 . S
C86 C85 1.396 . S
C86 C87 1.394 . S
C87 C83 1.397 . S
C87 C86 1.394 . S
C87 C97 1.723 . S
C88 C85 1.453 . S
C88 H112 0.982 . S
C88 H113 0.979 . S
C88 H114 0.977 . S
C89 C85 1.684 . S
C89 H115 0.979 . S
C89 H116 0.980 . S
C89 H117 0.983 . S
C90 H66 0.948 . S
C90 C91 1.391 . S
C90 C95 1.391 . S
C91 C90 1.391 . S
C91 C92 1.391 . S
C92 H69 0.947 . S
C92 C91 1.391 . S
C92 C93 1.392 . S
C93 H70 0.948 . S
C93 C92 1.392 . S
C93 C94 1.419 . S
C94 C93 1.419 . S
C94 C95 1.391 . S
C94 C98 1.397 . S
C95 C90 1.391 . S
C95 C94 1.391 . S
C95 C96 1.399 . S
C96 C95 1.399 . S
C96 C97 1.396 . S
C96 C99 1.453 . S
C96 C100 1.684 . S
C97 C87 1.723 . S
C97 C96 1.396 . S
C97 C98 1.394 . S
C98 C68 1.723 . S
C98 C94 1.397 . S
C98 C97 1.394 . S
C99 H71 0.982 . S
C99 H75 0.979 . S
C99 H76 0.977 . S
C99 C96 1.453 . S
C100 H72 0.979 . S
C100 H73 0.980 . S
C100 H74 0.983 . S
C100 C96 1.684 . S
H101 C119 0.948 . S
H102 C60 0.948 . S
H103 C78 0.979 . S
H104 C78 0.980 . S
H105 C78 0.983 . S
H106 C77 0.982 . S
H107 C77 0.979 . S
H108 C77 0.977 . S
H109 C79 0.948 . S
H110 C81 0.947 . S
H111 C82 0.948 . S
H112 C88 0.982 . S
H113 C88 0.979 . S
H114 C88 0.977 . S
H115 C89 0.979 . S
H116 C89 0.980 . S
H117 C89 0.983 . S
H118 C62 0.947 . S
C119 C62 1.392 . S
C119 C63 1.419 . S
C119 H101 0.948 . S
C120 C121 1.391 . S
C120 C124 1.391 . S
C120 H162 0.948 . S
C121 C120 1.391 . S
C121 C122 1.391 . S
C122 C121 1.391 . S
C122 H178 0.947 . S
C122 C179 1.392 . S
C123 C124 1.391 . S
C123 C127 1.397 . S
C123 C179 1.419 . S
C124 C120 1.391 . S
C124 C123 1.391 . S
C124 C125 1.399 . S
C125 C124 1.399 . S
C125 C128 1.396 . S
C125 C137 1.453 . S
C125 C138 1.684 . S
H126 C150 0.948 . S
C127 C123 1.397 . S
C127 C128 1.394 . S
C127 C146 1.723 . S
C128 C125 1.396 . S
C128 C127 1.394 . S
C128 C158 1.723 . S
H129 C152 0.947 . S
H130 C153 0.948 . S
H131 C159 0.982 . S
H132 C160 0.979 . S
H133 C160 0.980 . S
H134 C160 0.983 . S
H135 C159 0.979 . S
H136 C159 0.977 . S
C137 C125 1.453 . S
C137 H166 0.982 . S
C137 H167 0.979 . S
C137 H168 0.977 . S
C138 C125 1.684 . S
C138 H163 0.979 . S
C138 H164 0.980 . S
C138 H165 0.983 . S
C139 C140 1.391 . S
C139 C144 1.391 . S
C139 H169 0.948 . S
C140 C139 1.391 . S
C140 C141 1.391 . S
C141 C140 1.391 . S
C141 C142 1.392 . S
C141 H170 0.947 . S
C142 C141 1.392 . S
C142 C143 1.419 . S
C142 H171 0.948 . S
C143 C142 1.419 . S
C143 C144 1.391 . S
C143 C147 1.397 . S
C144 C139 1.391 . S
C144 C143 1.391 . S
C144 C145 1.399 . S
C145 C144 1.399 . S
C145 C146 1.396 . S
C145 C148 1.453 . S
C145 C149 1.684 . S
C146 C127 1.723 . S
C146 C145 1.396 . S
C146 C147 1.394 . S
C147 C143 1.397 . S
C147 C146 1.394 . S
C147 C157 1.723 . S
C148 C145 1.453 . S
C148 H172 0.982 . S
C148 H173 0.979 . S
C148 H174 0.977 . S
C149 C145 1.684 . S
C149 H175 0.979 . S
C149 H176 0.980 . S
C149 H177 0.983 . S
C150 H126 0.948 . S
C150 C151 1.391 . S
C150 C155 1.391 . S
C151 C150 1.391 . S
C151 C152 1.391 . S
C152 H129 0.947 . S
C152 C151 1.391 . S
C152 C153 1.392 . S
C153 H130 0.948 . S
C153 C152 1.392 . S
C153 C154 1.419 . S
C154 C153 1.419 . S
C154 C155 1.391 . S
C154 C158 1.397 . S
C155 C150 1.391 . S
C155 C154 1.391 . S
C155 C156 1.399 . S
C156 C155 1.399 . S
C156 C157 1.396 . S
C156 C159 1.453 . S
C156 C160 1.684 . S
C157 C147 1.723 . S
C157 C156 1.396 . S
C157 C158 1.394 . S
C158 C128 1.723 . S
C158 C154 1.397 . S
C158 C157 1.394 . S
C159 H131 0.982 . S
C159 H135 0.979 . S
C159 H136 0.977 . S
C159 C156 1.453 . S
C160 H132 0.979 . S
C160 H133 0.980 . S
C160 H134 0.983 . S
C160 C156 1.684 . S
H161 C179 0.948 . S
H162 C120 0.948 . S
H163 C138 0.979 . S
H164 C138 0.980 . S
H165 C138 0.983 . S
H166 C137 0.982 . S
H167 C137 0.979 . S
H168 C137 0.977 . S
H169 C139 0.948 . S
H170 C141 0.947 . S
H171 C142 0.948 . S
H172 C148 0.982 . S
H173 C148 0.979 . S
H174 C148 0.977 . S
H175 C149 0.979 . S
H176 C149 0.980 . S
H177 C149 0.983 . S
H178 C122 0.947 . S
C179 C122 1.392 . S
C179 C123 1.419 . S
C179 H161 0.948 . S
C180 C181 1.391 . S
C180 C184 1.391 . S
C180 H222 0.948 . S
C181 C180 1.391 . S
C181 C182 1.391 . S
C182 C181 1.391 . S
C182 H238 0.947 . S
C182 C239 1.392 . S
C183 C184 1.391 . S
C183 C187 1.397 . S
C183 C239 1.419 . S
C184 C180 1.391 . S
C184 C183 1.391 . S
C184 C185 1.399 . S
C185 C184 1.399 . S
C185 C188 1.396 . S
C185 C197 1.453 . S
C185 C198 1.684 . S
H186 C210 0.948 . S
C187 C183 1.397 . S
C187 C188 1.394 . S
C187 C206 1.723 . S
C188 C185 1.396 . S
C188 C187 1.394 . S
C188 C218 1.723 . S
H189 C212 0.947 . S
H190 C213 0.948 . S
H191 C219 0.982 . S
H192 C220 0.979 . S
H193 C220 0.980 . S
H194 C220 0.983 . S
H195 C219 0.979 . S
H196 C219 0.977 . S
C197 C185 1.453 . S
C197 H226 0.982 . S
C197 H227 0.979 . S
C197 H228 0.977 . S
C198 C185 1.684 . S
C198 H223 0.979 . S
C198 H224 0.980 . S
C198 H225 0.983 . S
C199 C200 1.391 . S
C199 C204 1.391 . S
C199 H229 0.948 . S
C200 C199 1.391 . S
C200 C201 1.391 . S
C201 C200 1.391 . S
C201 C202 1.392 . S
C201 H230 0.947 . S
C202 C201 1.392 . S
C202 C203 1.419 . S
C202 H231 0.948 . S
C203 C202 1.419 . S
C203 C204 1.391 . S
C203 C207 1.397 . S
C204 C199 1.391 . S
C204 C203 1.391 . S
C204 C205 1.399 . S
C205 C204 1.399 . S
C205 C206 1.396 . S
C205 C208 1.453 . S
C205 C209 1.684 . S
C206 C187 1.723 . S
C206 C205 1.396 . S
C206 C207 1.394 . S
C207 C203 1.397 . S
C207 C206 1.394 . S
C207 C217 1.723 . S
C208 C205 1.453 . S
C208 H232 0.982 . S
C208 H233 0.979 . S
C208 H234 0.977 . S
C209 C205 1.684 . S
C209 H235 0.979 . S
C209 H236 0.980 . S
C209 H237 0.983 . S
C210 H186 0.948 . S
C210 C211 1.391 . S
C210 C215 1.391 . S
C211 C210 1.391 . S
C211 C212 1.391 . S
C212 H189 0.947 . S
C212 C211 1.391 . S
C212 C213 1.392 . S
C213 H190 0.948 . S
C213 C212 1.392 . S
C213 C214 1.419 . S
C214 C213 1.419 . S
C214 C215 1.391 . S
C214 C218 1.397 . S
C215 C210 1.391 . S
C215 C214 1.391 . S
C215 C216 1.399 . S
C216 C215 1.399 . S
C216 C217 1.396 . S
C216 C219 1.453 . S
C216 C220 1.684 . S
C217 C207 1.723 . S
C217 C216 1.396 . S
C217 C218 1.394 . S
C218 C188 1.723 . S
C218 C214 1.397 . S
C218 C217 1.394 . S
C219 H191 0.982 . S
C219 H195 0.979 . S
C219 H196 0.977 . S
C219 C216 1.453 . S
C220 H192 0.979 . S
C220 H193 0.980 . S
C220 H194 0.983 . S
C220 C216 1.684 . S
H221 C239 0.948 . S
H222 C180 0.948 . S
H223 C198 0.979 . S
H224 C198 0.980 . S
H225 C198 0.983 . S
H226 C197 0.982 . S
H227 C197 0.979 . S
H228 C197 0.977 . S
H229 C199 0.948 . S
H230 C201 0.947 . S
H231 C202 0.948 . S
H232 C208 0.982 . S
H233 C208 0.979 . S
H234 C208 0.977 . S
H235 C209 0.979 . S
H236 C209 0.980 . S
H237 C209 0.983 . S
H238 C182 0.947 . S
C239 C182 1.392 . S
C239 C183 1.419 . S
C239 H221 0.948 . S
C240 C241 1.391 . S
C240 C244 1.391 . S
C240 H282 0.948 . S
C241 C240 1.391 . S
C241 C242 1.391 . S
C242 C241 1.391 . S
C242 H298 0.947 . S
C242 C299 1.392 . S
C243 C244 1.391 . S
C243 C247 1.397 . S
C243 C299 1.419 . S
C244 C240 1.391 . S
C244 C243 1.391 . S
C244 C245 1.399 . S
C245 C244 1.399 . S
C245 C248 1.396 . S
C245 C257 1.453 . S
C245 C258 1.684 . S
H246 C270 0.948 . S
C247 C243 1.397 . S
C247 C248 1.394 . S
C247 C266 1.723 . S
C248 C245 1.396 . S
C248 C247 1.394 . S
C248 C278 1.723 . S
H249 C272 0.947 . S
H250 C273 0.948 . S
H251 C279 0.982 . S
H252 C280 0.979 . S
H253 C280 0.980 . S
H254 C280 0.983 . S
H255 C279 0.979 . S
H256 C279 0.977 . S
C257 C245 1.453 . S
C257 H286 0.982 . S
C257 H287 0.979 . S
C257 H288 0.977 . S
C258 C245 1.684 . S
C258 H283 0.979 . S
C258 H284 0.980 . S
C258 H285 0.983 . S
C259 C260 1.391 . S
C259 C264 1.391 . S
C259 H289 0.948 . S
C260 C259 1.391 . S
C260 C261 1.391 . S
C261 C260 1.391 . S
C261 C262 1.392 . S
C261 H290 0.947 . S
C262 C261 1.392 . S
C262 C263 1.419 . S
C262 H291 0.948 . S
C263 C262 1.419 . S
C263 C264 1.391 . S
C263 C267 1.397 . S
C264 C259 1.391 . S
C264 C263 1.391 . S
C264 C265 1.399 . S
C265 C264 1.399 . S
C265 C266 1.396 . S
C265 C268 1.453 . S
C265 C269 1.684 . S
C266 C247 1.723 . S
C266 C265 1.396 . S
C266 C267 1.394 . S
C267 C263 1.397 . S
C267 C266 1.394 . S
C267 C277 1.723 . S
C268 C265 1.453 . S
C268 H292 0.982 . S
C268 H293 0.979 . S
C268 H294 0.977 . S
C269 C265 1.684 . S
C269 H295 0.979 . S
C269 H296 0.980 . S
C269 H297 0.983 . S
C270 H246 0.948 . S
C270 C271 1.391 . S
C270 C275 1.391 . S
C271 C270 1.391 . S
C271 C272 1.391 . S
C272 H249 0.947 . S
C272 C271 1.391 . S
C272 C273 1.392 . S
C273 H250 0.948 . S
C273 C272 1.392 . S
C273 C274 1.419 . S
C274 C273 1.419 . S
C274 C275 1.391 . S
C274 C278 1.397 . S
C275 C270 1.391 . S
C275 C274 1.391 . S
C275 C276 1.399 . S
C276 C275 1.399 . S
C276 C277 1.396 . S
C276 C279 1.453 . S
C276 C280 1.684 . S
C277 C267 1.723 . S
C277 C276 1.396 . S
C277 C278 1.394 . S
C278 C248 1.723 . S
C278 C274 1.397 . S
C278 C277 1.394 . S
C279 H251 0.982 . S
C279 H255 0.979 . S
C279 H256 0.977 . S
C279 C276 1.453 . S
C280 H252 0.979 . S
C280 H253 0.980 . S
C280 H254 0.983 . S
C280 C276 1.684 . S
H281 C299 0.948 . S
H282 C240 0.948 . S
H283 C258 0.979 . S
H284 C258 0.980 . S
H285 C258 0.983 . S
H286 C257 0.982 . S
H287 C257 0.979 . S
H288 C257 0.977 . S
H289 C259 0.948 . S
H290 C261 0.947 . S
H291 C262 0.948 . S
H292 C268 0.982 . S
H293 C268 0.979 . S
H294 C268 0.977 . S
H295 C269 0.979 . S
H296 C269 0.980 . S
H297 C269 0.983 . S
H298 C242 0.947 . S
C299 C242 1.392 . S
C299 C243 1.419 . S
C299 H281 0.948 . S
C300 C301 1.391 . S
C300 C304 1.391 . S
C300 H342 0.948 . S
C301 C300 1.391 . S
C301 C302 1.391 . S
C302 C301 1.391 . S
C302 H358 0.947 . S
C302 C359 1.392 . S
C303 C304 1.391 . S
C303 C307 1.397 . S
C303 C359 1.419 . S
C304 C300 1.391 . S
C304 C303 1.391 . S
C304 C305 1.399 . S
C305 C304 1.399 . S
C305 C308 1.396 . S
C305 C317 1.453 . S
C305 C318 1.684 . S
H306 C330 0.948 . S
C307 C303 1.397 . S
C307 C308 1.394 . S
C307 C326 1.723 . S
C308 C305 1.396 . S
C308 C307 1.394 . S
C308 C338 1.723 . S
H309 C332 0.947 . S
H310 C333 0.948 . S
H311 C339 0.982 . S
H312 C340 0.979 . S
H313 C340 0.980 . S
H314 C340 0.983 . S
H315 C339 0.979 . S
H316 C339 0.977 . S
C317 C305 1.453 . S
C317 H346 0.982 . S
C317 H347 0.979 . S
C317 H348 0.977 . S
C318 C305 1.684 . S
C318 H343 0.979 . S
C318 H344 0.980 . S
C318 H345 0.983 . S
C319 C320 1.391 . S
C319 C324 1.391 . S
C319 H349 0.948 . S
C320 C319 1.391 . S
C320 C321 1.391 . S
C321 C320 1.391 . S
C321 C322 1.392 . S
C321 H350 0.947 . S
C322 C321 1.392 . S
C322 C323 1.419 . S
C322 H351 0.948 . S
C323 C322 1.419 . S
C323 C324 1.391 . S
C323 C327 1.397 . S
C324 C319 1.391 . S
C324 C323 1.391 . S
C324 C325 1.399 . S
C325 C324 1.399 . S
C325 C326 1.396 . S
C325 C328 1.453 . S
C325 C329 1.684 . S
C326 C307 1.723 . S
C326 C325 1.396 . S
C326 C327 1.394 . S
C327 C323 1.397 . S
C327 C326 1.394 . S
C327 C337 1.723 . S
C328 C325 1.453 . S
C328 H352 0.982 . S
C328 H353 0.979 . S
C328 H354 0.977 . S
C329 C325 1.684 . S
C329 H355 0.979 . S
C329 H356 0.980 . S
C329 H357 0.983 . S
C330 H306 0.948 . S
C330 C331 1.391 . S
C330 C335 1.391 . S
C331 C330 1.391 . S
C331 C332 1.391 . S
C332 H309 0.947 . S
C332 C331 1.391 . S
C332 C333 1.392 . S
C333 H310 0.948 . S
C333 C332 1.392 . S
C333 C334 1.419 . S
C334 C333 1.419 . S
C334 C335 1.391 . S
C334 C338 1.397 . S
C335 C330 1.391 . S
C335 C334 1.391 . S
C335 C336 1.399 . S
C336 C335 1.399 . S
C336 C337 1.396 . S
C336 C339 1.453 . S
C336 C340 1.684 . S
C337 C327 1.723 . S
C337 C336 1.396 . S
C337 C338 1.394 . S
C338 C308 1.723 . S
C338 C334 1.397 . S
C338 C337 1.394 . S
C339 H311 0.982 . S
C339 H315 0.979 . S
C339 H316 0.977 . S
C339 C336 1.453 . S
C340 H312 0.979 . S
C340 H313 0.980 . S
C340 H314 0.983 . S
C340 C336 1.684 . S
H341 C359 0.948 . S
H342 C300 0.948 . S
H343 C318 0.979 . S
H344 C318 0.980 . S
H345 C318 0.983 . S
H346 C317 0.982 . S
H347 C317 0.979 . S
H348 C317 0.977 . S
H349 C319 0.948 . S
H350 C321 0.947 . S
H351 C322 0.948 . S
H352 C328 0.982 . S
H353 C328 0.979 . S
H354 C328 0.977 . S
H355 C329 0.979 . S
H356 C329 0.980 . S
H357 C329 0.983 . S
H358 C302 0.947 . S
C359 C302 1.392 . S
C359 C303 1.419 . S
C359 H341 0.948 . S
C360 C361 1.391 . S
C360 C364 1.391 . S
C360 H402 0.948 . S
C361 C360 1.391 . S
C361 C362 1.391 . S
C362 C361 1.391 . S
C362 H418 0.947 . S
C362 C419 1.392 . S
C363 C364 1.391 . S
C363 C367 1.397 . S
C363 C419 1.419 . S
C364 C360 1.391 . S
C364 C363 1.391 . S
C364 C365 1.399 . S
C365 C364 1.399 . S
C365 C368 1.396 . S
C365 C377 1.453 . S
C365 C378 1.684 . S
H366 C390 0.948 . S
C367 C363 1.397 . S
C367 C368 1.394 . S
C367 C386 1.723 . S
C368 C365 1.396 . S
C368 C367 1.394 . S
C368 C398 1.723 . S
H369 C392 0.947 . S
H370 C393 0.948 . S
H371 C399 0.982 . S
H372 C400 0.979 . S
H373 C400 0.980 . S
H374 C400 0.983 . S
H375 C399 0.979 . S
H376 C399 0.977 . S
C377 C365 1.453 . S
C377 H406 0.982 . S
C377 H407 0.979 . S
C377 H408 0.977 . S
C378 C365 1.684 . S
C378 H403 0.979 . S
C378 H404 0.980 . S
C378 H405 0.983 . S
C379 C380 1.391 . S
C379 C384 1.391 . S
C379 H409 0.948 . S
C380 C379 1.391 . S
C380 C381 1.391 . S
C381 C380 1.391 . S
C381 C382 1.392 . S
C381 H410 0.947 . S
C382 C381 1.392 . S
C382 C383 1.419 . S
C382 H411 0.948 . S
C383 C382 1.419 . S
C383 C384 1.391 . S
C383 C387 1.397 . S
C384 C379 1.391 . S
C384 C383 1.391 . S
C384 C385 1.399 . S
C385 C384 1.399 . S
C385 C386 1.396 . S
C385 C388 1.453 . S
C385 C389 1.684 . S
C386 C367 1.723 . S
C386 C385 1.396 . S
C386 C387 1.394 . S
C387 C383 1.397 . S
C387 C386 1.394 . S
C387 C397 1.723 . S
C388 C385 1.453 . S
C388 H412 0.982 . S
C388 H413 0.979 . S
C388 H414 0.977 . S
C389 C385 1.684 . S
C389 H415 0.979 . S
C389 H416 0.980 . S
C389 H417 0.983 . S
C390 H366 0.948 . S
C390 C391 1.391 . S
C390 C395 1.391 . S
C391 C390 1.391 . S
C391 C392 1.391 . S
C392 H369 0.947 . S
C392 C391 1.391 . S
C392 C393 1.392 . S
C393 H370 0.948 . S
C393 C392 1.392 . S
C393 C394 1.419 . S
C394 C393 1.419 . S
C394 C395 1.391 . S
C394 C398 1.397 . S
C395 C390 1.391 . S
C395 C394 1.391 . S
C395 C396 1.399 . S
C396 C395 1.399 . S
C396 C397 1.396 . S
C396 C399 1.453 . S
C396 C400 1.684 . S
C397 C387 1.723 . S
C397 C396 1.396 . S
C397 C398 1.394 . S
C398 C368 1.723 . S
C398 C394 1.397 . S
C398 C397 1.394 . S
C399 H371 0.982 . S
C399 H375 0.979 . S
C399 H376 0.977 . S
C399 C396 1.453 . S
C400 H372 0.979 . S
C400 H373 0.980 . S
C400 H374 0.983 . S
C400 C396 1.684 . S
H401 C419 0.948 . S
H402 C360 0.948 . S
H403 C378 0.979 . S
H404 C378 0.980 . S
H405 C378 0.983 . S
H406 C377 0.982 . S
H407 C377 0.979 . S
H408 C377 0.977 . S
H409 C379 0.948 . S
H410 C381 0.947 . S
H411 C382 0.948 . S
H412 C388 0.982 . S
H413 C388 0.979 . S
H414 C388 0.977 . S
H415 C389 0.979 . S
H416 C389 0.980 . S
H417 C389 0.983 . S
H418 C362 0.947 . S
C419 C362 1.392 . S
C419 C363 1.419 . S
C419 H401 0.948 . S
C420 C421 1.391 . S
C420 C424 1.391 . S
C420 H462 0.948 . S
C421 C420 1.391 . S
C421 C422 1.391 . S
C422 C421 1.391 . S
C422 H478 0.947 . S
C422 C479 1.392 . S
C423 C424 1.391 . S
C423 C427 1.397 . S
C423 C479 1.419 . S
C424 C420 1.391 . S
C424 C423 1.391 . S
C424 C425 1.399 . S
C425 C424 1.399 . S
C425 C428 1.396 . S
C425 C437 1.453 . S
C425 C438 1.684 . S
H426 C450 0.948 . S
C427 C423 1.397 . S
C427 C428 1.394 . S
C427 C446 1.723 . S
C428 C425 1.396 . S
C428 C427 1.394 . S
C428 C458 1.723 . S
H429 C452 0.947 . S
H430 C453 0.948 . S
H431 C459 0.982 . S
H432 C460 0.979 . S
H433 C460 0.980 . S
H434 C460 0.983 . S
H435 C459 0.979 . S
H436 C459 0.977 . S
C437 C425 1.453 . S
C437 H466 0.982 . S
C437 H467 0.979 . S
C437 H468 0.977 . S
C438 C425 1.684 . S
C438 H463 0.979 . S
C438 H464 0.980 . S
C438 H465 0.983 . S
C439 C440 1.391 . S
C439 C444 1.391 . S
C439 H469 0.948 . S
C440 C439 1.391 . S
C440 C441 1.391 . S
C441 C440 1.391 . S
C441 C442 1.392 . S
C441 H470 0.947 . S
C442 C441 1.392 . S
C442 C443 1.419 . S
C442 H471 0.948 . S
C443 C442 1.419 . S
C443 C444 1.391 . S
C443 C447 1.397 . S
C444 C439 1.391 . S
C444 C443 1.391 . S
C444 C445 1.399 . S
C445 C444 1.399 . S
C445 C446 1.396 . S
C445 C448 1.453 . S
C445 C449 1.684 . S
C446 C427 1.723 . S
C446 C445 1.396 . S
C446 C447 1.394 . S
C447 C443 1.397 . S
C447 C446 1.394 . S
C447 C457 1.723 . S
C448 C445 1.453 . S
C448 H472 0.982 . S
C448 H473 0.979 . S
C448 H474 0.977 . S
C449 C445 1.684 . S
C449 H475 0.979 . S
C449 H476 0.980 . S
C449 H477 0.983 . S
C450 H426 0.948 . S
C450 C451 1.391 . S
C450 C455 1.391 . S
C451 C450 1.391 . S
C451 C452 1.391 . S
C452 H429 0.947 . S
C452 C451 1.391 . S
C452 C453 1.392 . S
C453 H430 0.948 . S
C453 C452 1.392 . S
C453 C454 1.419 . S
C454 C453 1.419 . S
C454 C455 1.391 . S
C454 C458 1.397 . S
C455 C450 1.391 . S
C455 C454 1.391 . S
C455 C456 1.399 . S
C456 C455 1.399 . S
C456 C457 1.396 . S
C456 C459 1.453 . S
C456 C460 1.684 . S
C457 C447 1.723 . S
C457 C456 1.396 . S
C457 C458 1.394 . S
C458 C428 1.723 . S
C458 C454 1.397 . S
C458 C457 1.394 . S
C459 H431 0.982 . S
C459 H435 0.979 . S
C459 H436 0.977 . S
C459 C456 1.453 . S
C460 H432 0.979 . S
C460 H433 0.980 . S
C460 H434 0.983 . S
C460 C456 1.684 . S
H461 C479 0.948 . S
H462 C420 0.948 . S
H463 C438 0.979 . S
H464 C438 0.980 . S
H465 C438 0.983 . S
H466 C437 0.982 . S
H467 C437 0.979 . S
H468 C437 0.977 . S
H469 C439 0.948 . S
H470 C441 0.947 . S
H471 C442 0.948 . S
H472 C448 0.982 . S
H473 C448 0.979 . S
H474 C448 0.977 . S
H475 C449 0.979 . S
H476 C449 0.980 . S
H477 C449 0.983 . S
H478 C422 0.947 . S
C479 C422 1.392 . S
C479 C423 1.419 . S
C479 H461 0.948 . S
Ho480 C483 2.811 . S
Ho480 O500 2.322 . S
Ho480 O502 2.378 . S
Ho480 O503 2.524 . S
Ho480 O504 2.381 1_545 S
Ho480 O505 2.669 1_545 S
Ho480 O507 2.346 1_445 S
Ho480 O511 2.305 1_455 S
Ho481 C492 2.811 . S
Ho481 O501 2.346 1_665 S
Ho481 O505 2.305 1_655 S
Ho481 O506 2.322 . S
Ho481 O508 2.378 . S
Ho481 O509 2.524 . S
Ho481 O510 2.381 1_565 S
Ho481 O511 2.669 1_565 S
C482 O500 1.259 . S
C482 O501 1.268 . S
C483 Ho480 2.811 . S
C483 C484 1.488 . S
C483 O502 1.215 . S
C483 O503 1.289 . S
C484 C483 1.488 . S
C484 C485 1.348 . S
C484 C489 1.413 . S
C485 C484 1.348 . S
C485 C486 1.442 . S
C485 H512 0.930 . S
C486 C485 1.442 . S
C486 C487 1.381 . S
C486 H513 0.931 . S
C487 C486 1.381 . S
C487 C488 1.321 . S
C488 C487 1.321 . S
C488 C489 1.403 . S
C488 H514 0.934 . S
C489 C484 1.413 . S
C489 C488 1.403 . S
C489 H515 0.930 . S
C490 O504 1.275 . S
C490 O505 1.256 . S
C491 O506 1.259 . S
C491 O507 1.268 . S
C492 Ho481 2.811 . S
C492 C493 1.488 . S
C492 O508 1.215 . S
C492 O509 1.289 . S
C493 C492 1.488 . S
C493 C494 1.348 . S
C493 C498 1.413 . S
C494 C493 1.348 . S
C494 C495 1.442 . S
C494 H516 0.930 . S
C495 C494 1.442 . S
C495 C496 1.381 . S
C495 H517 0.931 . S
C496 C495 1.381 . S
C496 C497 1.321 . S
C497 C496 1.321 . S
C497 C498 1.403 . S
C497 H518 0.934 . S
C498 C493 1.413 . S
C498 C497 1.403 . S
C498 H519 0.930 . S
C499 O510 1.275 . S
C499 O511 1.256 . S
O500 Ho480 2.322 . S
O500 C482 1.259 . S
O501 Ho481 2.346 1_445 S
O501 C482 1.268 . S
O502 Ho480 2.378 . S
O502 C483 1.215 . S
O503 Ho480 2.524 . S
O503 C483 1.289 . S
O504 Ho480 2.381 1_565 S
O504 C490 1.275 . S
O505 Ho480 2.669 1_565 S
O505 Ho481 2.305 1_455 S
O505 C490 1.256 . S
O506 Ho481 2.322 . S
O506 C491 1.259 . S
O507 Ho480 2.346 1_665 S
O507 C491 1.268 . S
O508 Ho481 2.378 . S
O508 C492 1.215 . S
O509 Ho481 2.524 . S
O509 C492 1.289 . S
O510 Ho481 2.381 1_545 S
O510 C499 1.275 . S
O511 Ho480 2.305 1_655 S
O511 Ho481 2.669 1_545 S
O511 C499 1.256 . S
H512 C485 0.930 . S
H513 C486 0.931 . S
H514 C488 0.934 . S
H515 C489 0.930 . S
H516 C494 0.930 . S
H517 C495 0.931 . S
H518 C497 0.934 . S
H519 C498 0.930 . S
Ho520 C523 2.790 1_565 S
Ho520 O540 2.301 1_565 S
Ho520 O542 2.375 1_565 S
Ho520 O543 2.488 1_565 S
Ho520 O544 2.412 . S
Ho520 O545 2.685 . S
Ho520 O547 2.370 1_554 S
Ho520 O551 2.276 1_564 S
Ho521 C532 2.811 1_545 S
Ho521 O541 2.346 1_556 S
Ho521 O545 2.305 1_546 S
Ho521 O546 2.322 1_545 S
Ho521 O548 2.378 1_545 S
Ho521 O549 2.524 1_545 S
Ho521 O550 2.381 . S
Ho521 O551 2.669 . S
C522 O540 1.259 . S
C522 O541 1.268 . S
C523 Ho520 2.790 1_545 S
C523 C524 1.488 . S
C523 O542 1.215 . S
C523 O543 1.289 . S
C524 C523 1.488 . S
C524 C525 1.348 . S
C524 C529 1.413 . S
C525 C524 1.348 . S
C525 C526 1.442 . S
C525 H552 0.930 . S
C526 C525 1.442 . S
C526 C527 1.381 . S
C526 H553 0.931 . S
C527 C526 1.381 . S
C527 C528 1.321 . S
C528 C527 1.321 . S
C528 C529 1.403 . S
C528 H554 0.934 . S
C529 C524 1.413 . S
C529 C528 1.403 . S
C529 H555 0.930 . S
C530 O544 1.275 . S
C530 O545 1.256 . S
C531 O546 1.259 . S
C531 O547 1.268 . S
C532 Ho521 2.811 1_565 S
C532 C533 1.488 . S
C532 O548 1.215 . S
C532 O549 1.289 . S
C533 C532 1.488 . S
C533 C534 1.348 . S
C533 C538 1.413 . S
C534 C533 1.348 . S
C534 C535 1.442 . S
C534 H556 0.930 . S
C535 C534 1.442 . S
C535 C536 1.381 . S
C535 H557 0.931 . S
C536 C535 1.381 . S
C536 C537 1.321 . S
C537 C536 1.321 . S
C537 C538 1.403 . S
C537 H558 0.934 . S
C538 C533 1.413 . S
C538 C537 1.403 . S
C538 H559 0.930 . S
C539 O550 1.275 . S
C539 O551 1.256 . S
O540 Ho520 2.301 1_545 S
O540 C522 1.259 . S
O541 Ho521 2.346 1_554 S
O541 C522 1.268 . S
O542 Ho520 2.375 1_545 S
O542 C523 1.215 . S
O543 Ho520 2.488 1_545 S
O543 C523 1.289 . S
O544 Ho520 2.412 . S
O544 C530 1.275 . S
O545 Ho520 2.685 . S
O545 Ho521 2.305 1_564 S
O545 C530 1.256 . S
O546 Ho521 2.322 1_565 S
O546 C531 1.259 . S
O547 Ho520 2.370 1_556 S
O547 C531 1.268 . S
O548 Ho521 2.378 1_565 S
O548 C532 1.215 . S
O549 Ho521 2.524 1_565 S
O549 C532 1.289 . S
O550 Ho521 2.381 . S
O550 C539 1.275 . S
O551 Ho520 2.276 1_546 S
O551 Ho521 2.669 . S
O551 C539 1.256 . S
H552 C525 0.930 . S
H553 C526 0.931 . S
H554 C528 0.934 . S
H555 C529 0.930 . S
H556 C534 0.930 . S
H557 C535 0.931 . S
H558 C537 0.934 . S
H559 C538 0.930 . S
Ho560 C563 2.811 . S
Ho560 O580 2.322 . S
Ho560 O582 2.378 . S
Ho560 O583 2.524 . S
Ho560 O584 2.381 . S
Ho560 O585 2.669 . S
Ho560 O587 2.346 . S
Ho560 O591 2.305 . S
Ho561 C572 2.811 . S
Ho561 O581 2.346 . S
Ho561 O585 2.305 . S
Ho561 O586 2.322 . S
Ho561 O588 2.378 . S
Ho561 O589 2.524 . S
Ho561 O590 2.381 . S
Ho561 O591 2.669 . S
C562 O580 1.259 . S
C562 O581 1.268 . S
C563 Ho560 2.811 . S
C563 C564 1.488 . S
C563 O582 1.215 . S
C563 O583 1.289 . S
C564 C563 1.488 . S
C564 C565 1.348 . S
C564 C569 1.413 . S
C565 C564 1.348 . S
C565 C566 1.442 . S
C565 H592 0.930 . S
C566 C565 1.442 . S
C566 C567 1.381 . S
C566 H593 0.931 . S
C567 C566 1.381 . S
C567 C568 1.321 . S
C568 C567 1.321 . S
C568 C569 1.403 . S
C568 H594 0.934 . S
C569 C564 1.413 . S
C569 C568 1.403 . S
C569 H595 0.930 . S
C570 O584 1.275 . S
C570 O585 1.256 . S
C571 O586 1.259 . S
C571 O587 1.268 . S
C572 Ho561 2.811 . S
C572 C573 1.488 . S
C572 O588 1.215 . S
C572 O589 1.289 . S
C573 C572 1.488 . S
C573 C574 1.348 . S
C573 C578 1.413 . S
C574 C573 1.348 . S
C574 C575 1.442 . S
C574 H596 0.930 . S
C575 C574 1.442 . S
C575 C576 1.381 . S
C575 H597 0.931 . S
C576 C575 1.381 . S
C576 C577 1.321 . S
C577 C576 1.321 . S
C577 C578 1.403 . S
C577 H598 0.934 . S
C578 C573 1.413 . S
C578 C577 1.403 . S
C578 H599 0.930 . S
C579 O590 1.275 . S
C579 O591 1.256 . S
O580 Ho560 2.322 . S
O580 C562 1.259 . S
O581 Ho561 2.346 . S
O581 C562 1.268 . S
O582 Ho560 2.378 . S
O582 C563 1.215 . S
O583 Ho560 2.524 . S
O583 C563 1.289 . S
O584 Ho560 2.381 . S
O584 C570 1.275 . S
O585 Ho560 2.669 . S
O585 Ho561 2.305 . S
O585 C570 1.256 . S
O586 Ho561 2.322 . S
O586 C571 1.259 . S
O587 Ho560 2.346 . S
O587 C571 1.268 . S
O588 Ho561 2.378 . S
O588 C572 1.215 . S
O589 Ho561 2.524 . S
O589 C572 1.289 . S
O590 Ho561 2.381 . S
O590 C579 1.275 . S
O591 Ho560 2.305 . S
O591 Ho561 2.669 . S
O591 C579 1.256 . S
H592 C565 0.930 . S
H593 C566 0.931 . S
H594 C568 0.934 . S
H595 C569 0.930 . S
H596 C574 0.930 . S
H597 C575 0.931 . S
H598 C577 0.934 . S
H599 C578 0.930 . S
Ho600 C603 2.811 . S
Ho600 O620 2.322 . S
Ho600 O622 2.378 . S
Ho600 O623 2.524 . S
Ho600 O624 2.381 1_455 S
Ho600 O625 2.669 1_455 S
Ho600 O627 2.346 1_454 S
Ho600 O631 2.305 1_554 S
Ho601 C612 2.811 . S
Ho601 O621 2.346 1_656 S
Ho601 O625 2.305 1_556 S
Ho601 O626 2.322 . S
Ho601 O628 2.378 . S
Ho601 O629 2.524 . S
Ho601 O630 2.381 1_655 S
Ho601 O631 2.669 1_655 S
C602 O620 1.259 . S
C602 O621 1.268 . S
C603 Ho600 2.811 . S
C603 C604 1.488 . S
C603 O622 1.215 . S
C603 O623 1.289 . S
C604 C603 1.488 . S
C604 C605 1.348 . S
C604 C609 1.413 . S
C605 C604 1.348 . S
C605 C606 1.442 . S
C605 H632 0.930 . S
C606 C605 1.442 . S
C606 C607 1.381 . S
C606 H633 0.931 . S
C607 C606 1.381 . S
C607 C608 1.321 . S
C608 C607 1.321 . S
C608 C609 1.403 . S
C608 H634 0.934 . S
C609 C604 1.413 . S
C609 C608 1.403 . S
C609 H635 0.930 . S
C610 O624 1.275 . S
C610 O625 1.256 . S
C611 O626 1.259 . S
C611 O627 1.268 . S
C612 Ho601 2.811 . S
C612 C613 1.488 . S
C612 O628 1.215 . S
C612 O629 1.289 . S
C613 C612 1.488 . S
C613 C614 1.348 . S
C613 C618 1.413 . S
C614 C613 1.348 . S
C614 C615 1.442 . S
C614 H636 0.930 . S
C615 C614 1.442 . S
C615 C616 1.381 . S
C615 H637 0.931 . S
C616 C615 1.381 . S
C616 C617 1.321 . S
C617 C616 1.321 . S
C617 C618 1.403 . S
C617 H638 0.934 . S
C618 C613 1.413 . S
C618 C617 1.403 . S
C618 H639 0.930 . S
C619 O630 1.275 . S
C619 O631 1.256 . S
O620 Ho600 2.322 . S
O620 C602 1.259 . S
O621 Ho601 2.346 1_454 S
O621 C602 1.268 . S
O622 Ho600 2.378 . S
O622 C603 1.215 . S
O623 Ho600 2.524 . S
O623 C603 1.289 . S
O624 Ho600 2.381 1_655 S
O624 C610 1.275 . S
O625 Ho600 2.669 1_655 S
O625 Ho601 2.305 1_554 S
O625 C610 1.256 . S
O626 Ho601 2.322 . S
O626 C611 1.259 . S
O627 Ho600 2.346 1_656 S
O627 C611 1.268 . S
O628 Ho601 2.378 . S
O628 C612 1.215 . S
O629 Ho601 2.524 . S
O629 C612 1.289 . S
O630 Ho601 2.381 1_455 S
O630 C619 1.275 . S
O631 Ho600 2.305 1_556 S
O631 Ho601 2.669 1_455 S
O631 C619 1.256 . S
H632 C605 0.930 . S
H633 C606 0.931 . S
H634 C608 0.934 . S
H635 C609 0.930 . S
H636 C614 0.930 . S
H637 C615 0.931 . S
H638 C617 0.934 . S
H639 C618 0.930 . S
H640 C648 0.950 . S
H641 C653 0.950 . S
H642 C650 0.950 . S
H643 C652 0.950 . S
H644 C654 0.950 . S
H645 C656 0.950 . S
H646 C658 0.950 . S
H647 C659 0.950 . S
C648 H640 0.950 . S
C648 C649 1.386 . S
C648 C650 1.391 . S
C649 C648 1.386 . S
C649 C653 1.393 . S
C650 H642 0.950 . S
C650 C648 1.391 . S
C650 C651 1.400 . S
C651 C650 1.400 . S
C651 C652 1.398 . S
C651 C657 1.491 . S
C652 H643 0.950 . S
C652 C651 1.398 . S
C652 C653 1.391 . S
C653 H641 0.950 . S
C653 C649 1.393 . S
C653 C652 1.391 . S
C654 H644 0.950 . S
C654 C655 1.386 . S
C654 C656 1.391 . S
C655 C654 1.386 . S
C655 C659 1.393 . S
C656 H645 0.950 . S
C656 C654 1.391 . S
C656 C657 1.400 . S
C657 C651 1.491 . S
C657 C656 1.400 . S
C657 C658 1.398 . S
C658 H646 0.950 . S
C658 C657 1.398 . S
C658 C659 1.391 . S
C659 H647 0.950 . S
C659 C655 1.393 . S
C659 C658 1.391 . S
H660 C668 0.950 . S
H661 C673 0.950 . S
H662 C670 0.950 . S
H663 C672 0.950 . S
H664 C674 0.950 . S
H665 C676 0.950 . S
H666 C678 0.950 . S
H667 C679 0.950 . S
C668 H660 0.950 . S
C668 C669 1.386 . S
C668 C670 1.391 . S
C669 C668 1.386 . S
C669 C673 1.393 . S
C670 H662 0.950 . S
C670 C668 1.391 . S
C670 C671 1.400 . S
C671 C670 1.400 . S
C671 C672 1.398 . S
C671 C677 1.491 . S
C672 H663 0.950 . S
C672 C671 1.398 . S
C672 C673 1.391 . S
C673 H661 0.950 . S
C673 C669 1.393 . S
C673 C672 1.391 . S
C674 H664 0.950 . S
C674 C675 1.386 . S
C674 C676 1.391 . S
C675 C674 1.386 . S
C675 C679 1.393 . S
C676 H665 0.950 . S
C676 C674 1.391 . S
C676 C677 1.400 . S
C677 C671 1.491 . S
C677 C676 1.400 . S
C677 C678 1.398 . S
C678 H666 0.950 . S
C678 C677 1.398 . S
C678 C679 1.391 . S
C679 H667 0.950 . S
C679 C675 1.393 . S
C679 C678 1.391 . S
H680 C688 0.950 . S
H681 C693 0.950 . S
H682 C690 0.950 . S
H683 C692 0.950 . S
H684 C694 0.950 . S
H685 C696 0.950 . S
H686 C698 0.950 . S
H687 C699 0.950 . S
C688 H680 0.950 . S
C688 C689 1.386 . S
C688 C690 1.391 . S
C689 C688 1.386 . S
C689 C693 1.393 . S
C690 H682 0.950 . S
C690 C688 1.391 . S
C690 C691 1.400 . S
C691 C690 1.400 . S
C691 C692 1.398 . S
C691 C697 1.491 . S
C692 H683 0.950 . S
C692 C691 1.398 . S
C692 C693 1.391 . S
C693 H681 0.950 . S
C693 C689 1.393 . S
C693 C692 1.391 . S
C694 H684 0.950 . S
C694 C695 1.386 . S
C694 C696 1.391 . S
C695 C694 1.386 . S
C695 C699 1.393 . S
C696 H685 0.950 . S
C696 C694 1.391 . S
C696 C697 1.400 . S
C697 C691 1.491 . S
C697 C696 1.400 . S
C697 C698 1.398 . S
C698 H686 0.950 . S
C698 C697 1.398 . S
C698 C699 1.391 . S
C699 H687 0.950 . S
C699 C695 1.393 . S
C699 C698 1.391 . S
H700 C708 0.950 . S
H701 C713 0.950 . S
H702 C710 0.950 . S
H703 C712 0.950 . S
H704 C714 0.950 . S
H705 C716 0.950 . S
H706 C718 0.950 . S
H707 C719 0.950 . S
C708 H700 0.950 . S
C708 C709 1.386 . S
C708 C710 1.391 . S
C709 C708 1.386 . S
C709 C713 1.393 . S
C710 H702 0.950 . S
C710 C708 1.391 . S
C710 C711 1.400 . S
C711 C710 1.400 . S
C711 C712 1.398 . S
C711 C717 1.491 . S
C712 H703 0.950 . S
C712 C711 1.398 . S
C712 C713 1.391 . S
C713 H701 0.950 . S
C713 C709 1.393 . S
C713 C712 1.391 . S
C714 H704 0.950 . S
C714 C715 1.386 . S
C714 C716 1.391 . S
C715 C714 1.386 . S
C715 C719 1.393 . S
C716 H705 0.950 . S
C716 C714 1.391 . S
C716 C717 1.400 . S
C717 C711 1.491 . S
C717 C716 1.400 . S
C717 C718 1.398 . S
C718 H706 0.950 . S
C718 C717 1.398 . S
C718 C719 1.391 . S
C719 H707 0.950 . S
C719 C715 1.393 . S
C719 C718 1.391 . S
H720 C728 0.950 . S
H721 C733 0.950 . S
H722 C730 0.950 . S
H723 C732 0.950 . S
H724 C734 0.950 . S
H725 C736 0.950 . S
H726 C738 0.950 . S
H727 C739 0.950 . S
C728 H720 0.950 . S
C728 C729 1.386 . S
C728 C730 1.391 . S
C729 C728 1.386 . S
C729 C733 1.393 . S
C730 H722 0.950 . S
C730 C728 1.391 . S
C730 C731 1.400 . S
C731 C730 1.400 . S
C731 C732 1.398 . S
C731 C737 1.491 . S
C732 H723 0.950 . S
C732 C731 1.398 . S
C732 C733 1.391 . S
C733 H721 0.950 . S
C733 C729 1.393 . S
C733 C732 1.391 . S
C734 H724 0.950 . S
C734 C735 1.386 . S
C734 C736 1.391 . S
C735 C734 1.386 . S
C735 C739 1.393 . S
C736 H725 0.950 . S
C736 C734 1.391 . S
C736 C737 1.400 . S
C737 C731 1.491 . S
C737 C736 1.400 . S
C737 C738 1.398 . S
C738 H726 0.950 . S
C738 C737 1.398 . S
C738 C739 1.391 . S
C739 H727 0.950 . S
C739 C735 1.393 . S
C739 C738 1.391 . S
H740 C748 0.950 . S
H741 C753 0.950 . S
H742 C750 0.950 . S
H743 C752 0.950 . S
H744 C754 0.950 . S
H745 C756 0.950 . S
H746 C758 0.950 . S
H747 C759 0.950 . S
C748 H740 0.950 . S
C748 C749 1.386 . S
C748 C750 1.391 . S
C749 C748 1.386 . S
C749 C753 1.393 . S
C750 H742 0.950 . S
C750 C748 1.391 . S
C750 C751 1.400 . S
C751 C750 1.400 . S
C751 C752 1.398 . S
C751 C757 1.491 . S
C752 H743 0.950 . S
C752 C751 1.398 . S
C752 C753 1.391 . S
C753 H741 0.950 . S
C753 C749 1.393 . S
C753 C752 1.391 . S
C754 H744 0.950 . S
C754 C755 1.386 . S
C754 C756 1.391 . S
C755 C754 1.386 . S
C755 C759 1.393 . S
C756 H745 0.950 . S
C756 C754 1.391 . S
C756 C757 1.400 . S
C757 C751 1.491 . S
C757 C756 1.400 . S
C757 C758 1.398 . S
C758 H746 0.950 . S
C758 C757 1.398 . S
C758 C759 1.391 . S
C759 H747 0.950 . S
C759 C755 1.393 . S
C759 C758 1.391 . S
H760 C768 0.950 . S
H761 C773 0.950 . S
H762 C770 0.950 . S
H763 C772 0.950 . S
H764 C774 0.950 . S
H765 C776 0.950 . S
H766 C778 0.950 . S
H767 C779 0.950 . S
C768 H760 0.950 . S
C768 C769 1.386 . S
C768 C770 1.391 . S
C769 C768 1.386 . S
C769 C773 1.393 . S
C770 H762 0.950 . S
C770 C768 1.391 . S
C770 C771 1.400 . S
C771 C770 1.400 . S
C771 C772 1.398 . S
C771 C777 1.491 . S
C772 H763 0.950 . S
C772 C771 1.398 . S
C772 C773 1.391 . S
C773 H761 0.950 . S
C773 C769 1.393 . S
C773 C772 1.391 . S
C774 H764 0.950 . S
C774 C775 1.386 . S
C774 C776 1.391 . S
C775 C774 1.386 . S
C775 C779 1.393 . S
C776 H765 0.950 . S
C776 C774 1.391 . S
C776 C777 1.400 . S
C777 C771 1.491 . S
C777 C776 1.400 . S
C777 C778 1.398 . S
C778 H766 0.950 . S
C778 C777 1.398 . S
C778 C779 1.391 . S
C779 H767 0.950 . S
C779 C775 1.393 . S
C779 C778 1.391 . S
H780 C788 0.950 . S
H781 C793 0.950 . S
H782 C790 0.950 . S
H783 C792 0.950 . S
H784 C794 0.950 . S
H785 C796 0.950 . S
H786 C798 0.950 . S
H787 C799 0.950 . S
C788 H780 0.950 . S
C788 C789 1.386 . S
C788 C790 1.391 . S
C789 C788 1.386 . S
C789 C793 1.393 . S
C790 H782 0.950 . S
C790 C788 1.391 . S
C790 C791 1.400 . S
C791 C790 1.400 . S
C791 C792 1.398 . S
C791 C797 1.491 . S
C792 H783 0.950 . S
C792 C791 1.398 . S
C792 C793 1.391 . S
C793 H781 0.950 . S
C793 C789 1.393 . S
C793 C792 1.391 . S
C794 H784 0.950 . S
C794 C795 1.386 . S
C794 C796 1.391 . S
C795 C794 1.386 . S
C795 C799 1.393 . S
C796 H785 0.950 . S
C796 C794 1.391 . S
C796 C797 1.400 . S
C797 C791 1.491 . S
C797 C796 1.400 . S
C797 C798 1.398 . S
C798 H786 0.950 . S
C798 C797 1.398 . S
C798 C799 1.391 . S
C799 H787 0.950 . S
C799 C795 1.393 . S
C799 C798 1.391 . S
H800 C808 0.950 . S
H801 C813 0.950 . S
H802 C810 0.950 . S
H803 C812 0.950 . S
H804 C814 0.950 . S
H805 C816 0.950 . S
H806 C818 0.950 . S
H807 C819 0.950 . S
C808 H800 0.950 . S
C808 C809 1.386 . S
C808 C810 1.391 . S
C809 C808 1.386 . S
C809 C813 1.393 . S
C810 H802 0.950 . S
C810 C808 1.391 . S
C810 C811 1.400 . S
C811 C810 1.400 . S
C811 C812 1.398 . S
C811 C817 1.491 . S
C812 H803 0.950 . S
C812 C811 1.398 . S
C812 C813 1.391 . S
C813 H801 0.950 . S
C813 C809 1.393 . S
C813 C812 1.391 . S
C814 H804 0.950 . S
C814 C815 1.386 . S
C814 C816 1.391 . S
C815 C814 1.386 . S
C815 C819 1.393 . S
C816 H805 0.950 . S
C816 C814 1.391 . S
C816 C817 1.400 . S
C817 C811 1.491 . S
C817 C816 1.400 . S
C817 C818 1.398 . S
C818 H806 0.950 . S
C818 C817 1.398 . S
C818 C819 1.391 . S
C819 H807 0.950 . S
C819 C815 1.393 . S
C819 C818 1.391 . S
H820 C828 0.950 . S
H821 C833 0.950 . S
H822 C830 0.950 . S
H823 C832 0.950 . S
H824 C834 0.950 . S
H825 C836 0.950 . S
H826 C838 0.950 . S
H827 C839 0.950 . S
C828 H820 0.950 . S
C828 C829 1.386 . S
C828 C830 1.391 . S
C829 C828 1.386 . S
C829 C833 1.393 . S
C830 H822 0.950 . S
C830 C828 1.391 . S
C830 C831 1.400 . S
C831 C830 1.400 . S
C831 C832 1.398 . S
C831 C837 1.491 . S
C832 H823 0.950 . S
C832 C831 1.398 . S
C832 C833 1.391 . S
C833 H821 0.950 . S
C833 C829 1.393 . S
C833 C832 1.391 . S
C834 H824 0.950 . S
C834 C835 1.386 . S
C834 C836 1.391 . S
C835 C834 1.386 . S
C835 C839 1.393 . S
C836 H825 0.950 . S
C836 C834 1.391 . S
C836 C837 1.400 . S
C837 C831 1.491 . S
C837 C836 1.400 . S
C837 C838 1.398 . S
C838 H826 0.950 . S
C838 C837 1.398 . S
C838 C839 1.391 . S
C839 H827 0.950 . S
C839 C835 1.393 . S
C839 C838 1.391 . S
H840 C848 0.950 . S
H841 C853 0.950 . S
H842 C850 0.950 . S
H843 C852 0.950 . S
H844 C854 0.950 . S
H845 C856 0.950 . S
H846 C858 0.950 . S
H847 C859 0.950 . S
C848 H840 0.950 . S
C848 C849 1.386 . S
C848 C850 1.391 . S
C849 C848 1.386 . S
C849 C853 1.393 . S
C850 H842 0.950 . S
C850 C848 1.391 . S
C850 C851 1.400 . S
C851 C850 1.400 . S
C851 C852 1.398 . S
C851 C857 1.491 . S
C852 H843 0.950 . S
C852 C851 1.398 . S
C852 C853 1.391 . S
C853 H841 0.950 . S
C853 C849 1.393 . S
C853 C852 1.391 . S
C854 H844 0.950 . S
C854 C855 1.386 . S
C854 C856 1.391 . S
C855 C854 1.386 . S
C855 C859 1.393 . S
C856 H845 0.950 . S
C856 C854 1.391 . S
C856 C857 1.400 . S
C857 C851 1.491 . S
C857 C856 1.400 . S
C857 C858 1.398 . S
C858 H846 0.950 . S
C858 C857 1.398 . S
C858 C859 1.391 . S
C859 H847 0.950 . S
C859 C855 1.393 . S
C859 C858 1.391 . S
H860 C868 0.950 . S
H861 C873 0.950 . S
H862 C870 0.950 . S
H863 C872 0.950 . S
H864 C874 0.950 . S
H865 C876 0.950 . S
H866 C878 0.950 . S
H867 C879 0.950 . S
C868 H860 0.950 . S
C868 C869 1.386 . S
C868 C870 1.391 . S
C869 C868 1.386 . S
C869 C873 1.393 . S
C870 H862 0.950 . S
C870 C868 1.391 . S
C870 C871 1.400 . S
C871 C870 1.400 . S
C871 C872 1.398 . S
C871 C877 1.491 . S
C872 H863 0.950 . S
C872 C871 1.398 . S
C872 C873 1.391 . S
C873 H861 0.950 . S
C873 C869 1.393 . S
C873 C872 1.391 . S
C874 H864 0.950 . S
C874 C875 1.386 . S
C874 C876 1.391 . S
C875 C874 1.386 . S
C875 C879 1.393 . S
C876 H865 0.950 . S
C876 C874 1.391 . S
C876 C877 1.400 . S
C877 C871 1.491 . S
C877 C876 1.400 . S
C877 C878 1.398 . S
C878 H866 0.950 . S
C878 C877 1.398 . S
C878 C879 1.391 . S
C879 H867 0.950 . S
C879 C875 1.393 . S
C879 C878 1.391 . S
H880 C888 0.950 . S
H881 C893 0.950 . S
H882 C890 0.950 . S
H883 C892 0.950 . S
H884 C894 0.950 . S
H885 C896 0.950 . S
H886 C898 0.950 . S
H887 C899 0.950 . S
C888 H880 0.950 . S
C888 C889 1.386 . S
C888 C890 1.391 . S
C889 C888 1.386 . S
C889 C893 1.393 . S
C890 H882 0.950 . S
C890 C888 1.391 . S
C890 C891 1.400 . S
C891 C890 1.400 . S
C891 C892 1.398 . S
C891 C897 1.491 . S
C892 H883 0.950 . S
C892 C891 1.398 . S
C892 C893 1.391 . S
C893 H881 0.950 . S
C893 C889 1.393 . S
C893 C892 1.391 . S
C894 H884 0.950 . S
C894 C895 1.386 . S
C894 C896 1.391 . S
C895 C894 1.386 . S
C895 C899 1.393 . S
C896 H885 0.950 . S
C896 C894 1.391 . S
C896 C897 1.400 . S
C897 C891 1.491 . S
C897 C896 1.400 . S
C897 C898 1.398 . S
C898 H886 0.950 . S
C898 C897 1.398 . S
C898 C899 1.391 . S
C899 H887 0.950 . S
C899 C895 1.393 . S
C899 C898 1.391 . S
H900 C908 0.950 . S
H901 C913 0.950 . S
H902 C910 0.950 . S
H903 C912 0.950 . S
H904 C914 0.950 . S
H905 C916 0.950 . S
H906 C918 0.950 . S
H907 C919 0.950 . S
C908 H900 0.950 . S
C908 C909 1.386 . S
C908 C910 1.391 . S
C909 C908 1.386 . S
C909 C913 1.393 . S
C910 H902 0.950 . S
C910 C908 1.391 . S
C910 C911 1.400 . S
C911 C910 1.400 . S
C911 C912 1.398 . S
C911 C917 1.491 . S
C912 H903 0.950 . S
C912 C911 1.398 . S
C912 C913 1.391 . S
C913 H901 0.950 . S
C913 C909 1.393 . S
C913 C912 1.391 . S
C914 H904 0.950 . S
C914 C915 1.386 . S
C914 C916 1.391 . S
C915 C914 1.386 . S
C915 C919 1.393 . S
C916 H905 0.950 . S
C916 C914 1.391 . S
C916 C917 1.400 . S
C917 C911 1.491 . S
C917 C916 1.400 . S
C917 C918 1.398 . S
C918 H906 0.950 . S
C918 C917 1.398 . S
C918 C919 1.391 . S
C919 H907 0.950 . S
C919 C915 1.393 . S
C919 C918 1.391 . S
H920 C928 0.950 . S
H921 C933 0.950 . S
H922 C930 0.950 . S
H923 C932 0.950 . S
H924 C934 0.950 . S
H925 C936 0.950 . S
H926 C938 0.950 . S
H927 C939 0.950 . S
C928 H920 0.950 . S
C928 C929 1.386 . S
C928 C930 1.391 . S
C929 C928 1.386 . S
C929 C933 1.393 . S
C930 H922 0.950 . S
C930 C928 1.391 . S
C930 C931 1.400 . S
C931 C930 1.400 . S
C931 C932 1.398 . S
C931 C937 1.491 . S
C932 H923 0.950 . S
C932 C931 1.398 . S
C932 C933 1.391 . S
C933 H921 0.950 . S
C933 C929 1.393 . S
C933 C932 1.391 . S
C934 H924 0.950 . S
C934 C935 1.386 . S
C934 C936 1.391 . S
C935 C934 1.386 . S
C935 C939 1.393 . S
C936 H925 0.950 . S
C936 C934 1.391 . S
C936 C937 1.400 . S
C937 C931 1.491 . S
C937 C936 1.400 . S
C937 C938 1.398 . S
C938 H926 0.950 . S
C938 C937 1.398 . S
C938 C939 1.391 . S
C939 H927 0.950 . S
C939 C935 1.393 . S
C939 C938 1.391 . S
H940 C948 0.950 . S
H941 C953 0.950 . S
H942 C950 0.950 . S
H943 C952 0.950 . S
H944 C954 0.950 . S
H945 C956 0.950 . S
H946 C958 0.950 . S
H947 C959 0.950 . S
C948 H940 0.950 . S
C948 C949 1.386 . S
C948 C950 1.391 . S
C949 C948 1.386 . S
C949 C953 1.393 . S
C950 H942 0.950 . S
C950 C948 1.391 . S
C950 C951 1.400 . S
C951 C950 1.400 . S
C951 C952 1.398 . S
C951 C957 1.491 . S
C952 H943 0.950 . S
C952 C951 1.398 . S
C952 C953 1.391 . S
C953 H941 0.950 . S
C953 C949 1.393 . S
C953 C952 1.391 . S
C954 H944 0.950 . S
C954 C955 1.386 . S
C954 C956 1.391 . S
C955 C954 1.386 . S
C955 C959 1.393 . S
C956 H945 0.950 . S
C956 C954 1.391 . S
C956 C957 1.400 . S
C957 C951 1.491 . S
C957 C956 1.400 . S
C957 C958 1.398 . S
C958 H946 0.950 . S
C958 C957 1.398 . S
C958 C959 1.391 . S
C959 H947 0.950 . S
C959 C955 1.393 . S
C959 C958 1.391 . S
H960 C968 0.950 . S
H961 C973 0.950 . S
H962 C970 0.950 . S
H963 C972 0.950 . S
H964 C974 0.950 . S
H965 C976 0.950 . S
H966 C978 0.950 . S
H967 C979 0.950 . S
C968 H960 0.950 . S
C968 C969 1.386 . S
C968 C970 1.391 . S
C969 C968 1.386 . S
C969 C973 1.393 . S
C970 H962 0.950 . S
C970 C968 1.391 . S
C970 C971 1.400 . S
C971 C970 1.400 . S
C971 C972 1.398 . S
C971 C977 1.491 . S
C972 H963 0.950 . S
C972 C971 1.398 . S
C972 C973 1.391 . S
C973 H961 0.950 . S
C973 C969 1.393 . S
C973 C972 1.391 . S
C974 H964 0.950 . S
C974 C975 1.386 . S
C974 C976 1.391 . S
C975 C974 1.386 . S
C975 C979 1.393 . S
C976 H965 0.950 . S
C976 C974 1.391 . S
C976 C977 1.400 . S
C977 C971 1.491 . S
C977 C976 1.400 . S
C977 C978 1.398 . S
C978 H966 0.950 . S
C978 C977 1.398 . S
C978 C979 1.391 . S
C979 H967 0.950 . S
C979 C975 1.393 . S
C979 C978 1.391 . S
H980 C988 0.950 . S
H981 C993 0.950 . S
H982 C990 0.950 . S
H983 C992 0.950 . S
H984 C994 0.950 . S
H985 C996 0.950 . S
H986 C998 0.950 . S
H987 C999 0.950 . S
C988 H980 0.950 . S
C988 C989 1.386 . S
C988 C990 1.391 . S
C989 C988 1.386 . S
C989 C993 1.393 . S
C990 H982 0.950 . S
C990 C988 1.391 . S
C990 C991 1.400 . S
C991 C990 1.400 . S
C991 C992 1.398 . S
C991 C997 1.491 . S
C992 H983 0.950 . S
C992 C991 1.398 . S
C992 C993 1.391 . S
C993 H981 0.950 . S
C993 C989 1.393 . S
C993 C992 1.391 . S
C994 H984 0.950 . S
C994 C995 1.386 . S
C994 C996 1.391 . S
C995 C994 1.386 . S
C995 C999 1.393 . S
C996 H985 0.950 . S
C996 C994 1.391 . S
C996 C997 1.400 . S
C997 C991 1.491 . S
C997 C996 1.400 . S
C997 C998 1.398 . S
C998 H986 0.950 . S
C998 C997 1.398 . S
C998 C999 1.391 . S
C999 H987 0.950 . S
C999 C995 1.393 . S
C999 C998 1.391 . S
H1000 C1008 0.950 . S
H1001 C1013 0.950 . S
H1002 C1010 0.950 . S
H1003 C1012 0.950 . S
H1004 C1014 0.950 . S
H1005 C1016 0.950 . S
H1006 C1018 0.950 . S
H1007 C1019 0.950 . S
C1008 H1000 0.950 . S
C1008 C1009 1.386 . S
C1008 C1010 1.391 . S
C1009 C1008 1.386 . S
C1009 C1013 1.393 . S
C1010 H1002 0.950 . S
C1010 C1008 1.391 . S
C1010 C1011 1.400 . S
C1011 C1010 1.400 . S
C1011 C1012 1.398 . S
C1011 C1017 1.491 . S
C1012 H1003 0.950 . S
C1012 C1011 1.398 . S
C1012 C1013 1.391 . S
C1013 H1001 0.950 . S
C1013 C1009 1.393 . S
C1013 C1012 1.391 . S
C1014 H1004 0.950 . S
C1014 C1015 1.386 . S
C1014 C1016 1.391 . S
C1015 C1014 1.386 . S
C1015 C1019 1.393 . S
C1016 H1005 0.950 . S
C1016 C1014 1.391 . S
C1016 C1017 1.400 . S
C1017 C1011 1.491 . S
C1017 C1016 1.400 . S
C1017 C1018 1.398 . S
C1018 H1006 0.950 . S
C1018 C1017 1.398 . S
C1018 C1019 1.391 . S
C1019 H1007 0.950 . S
C1019 C1015 1.393 . S
C1019 C1018 1.391 . S
H1020 C1028 0.950 . S
H1021 C1033 0.950 . S
H1022 C1030 0.950 . S
H1023 C1032 0.950 . S
H1024 C1034 0.950 . S
H1025 C1036 0.950 . S
H1026 C1038 0.950 . S
H1027 C1039 0.950 . S
C1028 H1020 0.950 . S
C1028 C1029 1.386 . S
C1028 C1030 1.391 . S
C1029 C1028 1.386 . S
C1029 C1033 1.393 . S
C1030 H1022 0.950 . S
C1030 C1028 1.391 . S
C1030 C1031 1.400 . S
C1031 C1030 1.400 . S
C1031 C1032 1.398 . S
C1031 C1037 1.491 . S
C1032 H1023 0.950 . S
C1032 C1031 1.398 . S
C1032 C1033 1.391 . S
C1033 H1021 0.950 . S
C1033 C1029 1.393 . S
C1033 C1032 1.391 . S
C1034 H1024 0.950 . S
C1034 C1035 1.386 . S
C1034 C1036 1.391 . S
C1035 C1034 1.386 . S
C1035 C1039 1.393 . S
C1036 H1025 0.950 . S
C1036 C1034 1.391 . S
C1036 C1037 1.400 . S
C1037 C1031 1.491 . S
C1037 C1036 1.400 . S
C1037 C1038 1.398 . S
C1038 H1026 0.950 . S
C1038 C1037 1.398 . S
C1038 C1039 1.391 . S
C1039 H1027 0.950 . S
C1039 C1035 1.393 . S
C1039 C1038 1.391 . S
H1040 C1048 0.950 . S
H1041 C1053 0.950 . S
H1042 C1050 0.950 . S
H1043 C1052 0.950 . S
H1044 C1054 0.950 . S
H1045 C1056 0.950 . S
H1046 C1058 0.950 . S
H1047 C1059 0.950 . S
C1048 H1040 0.950 . S
C1048 C1049 1.386 . S
C1048 C1050 1.391 . S
C1049 C1048 1.386 . S
C1049 C1053 1.393 . S
C1050 H1042 0.950 . S
C1050 C1048 1.391 . S
C1050 C1051 1.400 . S
C1051 C1050 1.400 . S
C1051 C1052 1.398 . S
C1051 C1057 1.491 . S
C1052 H1043 0.950 . S
C1052 C1051 1.398 . S
C1052 C1053 1.391 . S
C1053 H1041 0.950 . S
C1053 C1049 1.393 . S
C1053 C1052 1.391 . S
C1054 H1044 0.950 . S
C1054 C1055 1.386 . S
C1054 C1056 1.391 . S
C1055 C1054 1.386 . S
C1055 C1059 1.393 . S
C1056 H1045 0.950 . S
C1056 C1054 1.391 . S
C1056 C1057 1.400 . S
C1057 C1051 1.491 . S
C1057 C1056 1.400 . S
C1057 C1058 1.398 . S
C1058 H1046 0.950 . S
C1058 C1057 1.398 . S
C1058 C1059 1.391 . S
C1059 H1047 0.950 . S
C1059 C1055 1.393 . S
C1059 C1058 1.391 . S
H1060 C1068 0.950 . S
H1061 C1073 0.950 . S
H1062 C1070 0.950 . S
H1063 C1072 0.950 . S
H1064 C1074 0.950 . S
H1065 C1076 0.950 . S
H1066 C1078 0.950 . S
H1067 C1079 0.950 . S
C1068 H1060 0.950 . S
C1068 C1069 1.386 . S
C1068 C1070 1.391 . S
C1069 C1068 1.386 . S
C1069 C1073 1.393 . S
C1070 H1062 0.950 . S
C1070 C1068 1.391 . S
C1070 C1071 1.400 . S
C1071 C1070 1.400 . S
C1071 C1072 1.398 . S
C1071 C1077 1.491 . S
C1072 H1063 0.950 . S
C1072 C1071 1.398 . S
C1072 C1073 1.391 . S
C1073 H1061 0.950 . S
C1073 C1069 1.393 . S
C1073 C1072 1.391 . S
C1074 H1064 0.950 . S
C1074 C1075 1.386 . S
C1074 C1076 1.391 . S
C1075 C1074 1.386 . S
C1075 C1079 1.393 . S
C1076 H1065 0.950 . S
C1076 C1074 1.391 . S
C1076 C1077 1.400 . S
C1077 C1071 1.491 . S
C1077 C1076 1.400 . S
C1077 C1078 1.398 . S
C1078 H1066 0.950 . S
C1078 C1077 1.398 . S
C1078 C1079 1.391 . S
C1079 H1067 0.950 . S
C1079 C1075 1.393 . S
C1079 C1078 1.391 . S
H1080 C1088 0.950 . S
H1081 C1093 0.950 . S
H1082 C1090 0.950 . S
H1083 C1092 0.950 . S
H1084 C1094 0.950 . S
H1085 C1096 0.950 . S
H1086 C1098 0.950 . S
H1087 C1099 0.950 . S
C1088 H1080 0.950 . S
C1088 C1089 1.386 . S
C1088 C1090 1.391 . S
C1089 C1088 1.386 . S
C1089 C1093 1.393 . S
C1090 H1082 0.950 . S
C1090 C1088 1.391 . S
C1090 C1091 1.400 . S
C1091 C1090 1.400 . S
C1091 C1092 1.398 . S
C1091 C1097 1.491 . S
C1092 H1083 0.950 . S
C1092 C1091 1.398 . S
C1092 C1093 1.391 . S
C1093 H1081 0.950 . S
C1093 C1089 1.393 . S
C1093 C1092 1.391 . S
C1094 H1084 0.950 . S
C1094 C1095 1.386 . S
C1094 C1096 1.391 . S
C1095 C1094 1.386 . S
C1095 C1099 1.393 . S
C1096 H1085 0.950 . S
C1096 C1094 1.391 . S
C1096 C1097 1.400 . S
C1097 C1091 1.491 . S
C1097 C1096 1.400 . S
C1097 C1098 1.398 . S
C1098 H1086 0.950 . S
C1098 C1097 1.398 . S
C1098 C1099 1.391 . S
C1099 H1087 0.950 . S
C1099 C1095 1.393 . S
C1099 C1098 1.391 . S
H1100 C1108 0.950 . S
H1101 C1113 0.950 . S
H1102 C1110 0.950 . S
H1103 C1112 0.950 . S
H1104 C1114 0.950 . S
H1105 C1116 0.950 . S
H1106 C1118 0.950 . S
H1107 C1119 0.950 . S
C1108 H1100 0.950 . S
C1108 C1109 1.386 . S
C1108 C1110 1.391 . S
C1109 C1108 1.386 . S
C1109 C1113 1.393 . S
C1110 H1102 0.950 . S
C1110 C1108 1.391 . S
C1110 C1111 1.400 . S
C1111 C1110 1.400 . S
C1111 C1112 1.398 . S
C1111 C1117 1.491 . S
C1112 H1103 0.950 . S
C1112 C1111 1.398 . S
C1112 C1113 1.391 . S
C1113 H1101 0.950 . S
C1113 C1109 1.393 . S
C1113 C1112 1.391 . S
C1114 H1104 0.950 . S
C1114 C1115 1.386 . S
C1114 C1116 1.391 . S
C1115 C1114 1.386 . S
C1115 C1119 1.393 . S
C1116 H1105 0.950 . S
C1116 C1114 1.391 . S
C1116 C1117 1.400 . S
C1117 C1111 1.491 . S
C1117 C1116 1.400 . S
C1117 C1118 1.398 . S
C1118 H1106 0.950 . S
C1118 C1117 1.398 . S
C1118 C1119 1.391 . S
C1119 H1107 0.950 . S
C1119 C1115 1.393 . S
C1119 C1118 1.391 . S
C649 C1 1.182 . S
C655 C487 1.292 . S
C669 C80 0.935 . S
C675 C536 0.970 . S
C695 C562 2.469 . S
C689 C140 2.464 . S
C709 C211 2.357 . S
C715 C610 2.339 . S
C735 C522 2.504 . S
C729 C31 2.243 . S
C755 C490 0.831 . S
C749 C61 0.824 . S
C775 C611 1.887 . S
C769 C151 1.915 . S
C795 C579 1.592 . S
C789 C200 1.599 . S
C809 C20 1.667 . S
C815 C607 1.754 . S
C835 C539 2.323 . S
C829 C121 2.392 . S
C849 C181 2.300 . S
C855 C491 2.334 . S
C869 C91 0.848 . S
C875 C576 0.858 . S
C895 C496 1.290 . S
C889 C260 1.225 . S
C909 C320 0.941 . S
C915 C527 0.972 . S
C929 C361 2.460 . S
C935 C571 2.473 . S
C949 C451 2.355 . S
C955 C619 2.341 . S
C969 C271 2.320 . S
C975 C531 2.505 . S
C995 C499 0.863 . S
C989 C301 0.847 . S
C1015 C602 1.903 . S
C1009 C380 1.897 . S
C1035 C570 1.597 . S
C1029 C440 1.604 . S
C1049 C241 1.585 . S
C1055 C616 1.754 . S
C1075 C530 2.339 . S
C1069 C391 2.382 . S
C1095 C482 2.335 . S
C1089 C421 2.305 . S
C1109 C331 0.857 . S
C1115 C567 0.853 . S
