# Generated by pormake.
# Topology zzz, (3,6)-cn, num edge types: 1
# Building blocks:
#     Node 0, Type 0, BuildingBlock: BETDAH_clean_linker_0, # of connection points: 3
#     Node 1, Type 0, BuildingBlock: BETDAH_clean_linker_0, # of connection points: 3
#     Node 2, Type 0, BuildingBlock: BETDAH_clean_linker_0, # of connection points: 3
#     Node 3, Type 0, BuildingBlock: BETDAH_clean_linker_0, # of connection points: 3
#     Node 4, Type 0, BuildingBlock: BETDAH_clean_linker_0, # of connection points: 3
#     Node 5, Type 0, BuildingBlock: BETDAH_clean_linker_0, # of connection points: 3
#     Node 6, Type 0, BuildingBlock: BETDAH_clean_linker_0, # of connection points: 3
#     Node 7, Type 0, BuildingBlock: BETDAH_clean_linker_0, # of connection points: 3
#     Node 8, Type 1, BuildingBlock: CUWYAW_clean_sbu_0, # of connection points: 6
#     Node 9, Type 1, BuildingBlock: CUWYAW_clean_sbu_0, # of connection points: 6
#     Node 10, Type 1, BuildingBlock: CUWYAW_clean_sbu_0, # of connection points: 6
#     Node 11, Type 1, BuildingBlock: CUWYAW_clean_sbu_0, # of connection points: 6
#     Edge 12, Type (0, 1), BuildingBlock: TEMPAE_clean_linker_10, # of connection points: 2
#     Edge 13, Type (0, 1), BuildingBlock: TEMPAE_clean_linker_10, # of connection points: 2
#     Edge 14, Type (0, 1), BuildingBlock: TEMPAE_clean_linker_10, # of connection points: 2
#     Edge 15, Type (0, 1), BuildingBlock: TEMPAE_clean_linker_10, # of connection points: 2
#     Edge 16, Type (0, 1), BuildingBlock: TEMPAE_clean_linker_10, # of connection points: 2
#     Edge 17, Type (0, 1), BuildingBlock: TEMPAE_clean_linker_10, # of connection points: 2
#     Edge 18, Type (0, 1), BuildingBlock: TEMPAE_clean_linker_10, # of connection points: 2
#     Edge 19, Type (0, 1), BuildingBlock: TEMPAE_clean_linker_10, # of connection points: 2
#     Edge 20, Type (0, 1), BuildingBlock: TEMPAE_clean_linker_10, # of connection points: 2
#     Edge 21, Type (0, 1), BuildingBlock: TEMPAE_clean_linker_10, # of connection points: 2
#     Edge 22, Type (0, 1), BuildingBlock: TEMPAE_clean_linker_10, # of connection points: 2
#     Edge 23, Type (0, 1), BuildingBlock: TEMPAE_clean_linker_10, # of connection points: 2
#     Edge 24, Type (0, 1), BuildingBlock: TEMPAE_clean_linker_10, # of connection points: 2
#     Edge 25, Type (0, 1), BuildingBlock: TEMPAE_clean_linker_10, # of connection points: 2
#     Edge 26, Type (0, 1), BuildingBlock: TEMPAE_clean_linker_10, # of connection points: 2
#     Edge 27, Type (0, 1), BuildingBlock: TEMPAE_clean_linker_10, # of connection points: 2
#     Edge 28, Type (0, 1), BuildingBlock: TEMPAE_clean_linker_10, # of connection points: 2
#     Edge 29, Type (0, 1), BuildingBlock: TEMPAE_clean_linker_10, # of connection points: 2
#     Edge 30, Type (0, 1), BuildingBlock: TEMPAE_clean_linker_10, # of connection points: 2
#     Edge 31, Type (0, 1), BuildingBlock: TEMPAE_clean_linker_10, # of connection points: 2
#     Edge 32, Type (0, 1), BuildingBlock: TEMPAE_clean_linker_10, # of connection points: 2
#     Edge 33, Type (0, 1), BuildingBlock: TEMPAE_clean_linker_10, # of connection points: 2
#     Edge 34, Type (0, 1), BuildingBlock: TEMPAE_clean_linker_10, # of connection points: 2
#     Edge 35, Type (0, 1), BuildingBlock: TEMPAE_clean_linker_10, # of connection points: 2
# Relax obj value: 0.261
# Max RMSD: 0.164
# Mean RMSD: 0.137
data_MOF--net-zzz--node1-CUWYAW_clean_sbu_0--node2-BETDAH_clean_linker_0--edge1-TEMPAE_clean_linker_10
_symmetry_space_group_name_H-M    P1
_symmetry_Int_Tables_number       1
_symmetry_cell_setting            triclinic
loop_
_symmetry_equiv_pos_as_xyz
'x, y, z'
_cell_length_a     52.308044
_cell_length_b     52.396291
_cell_length_c     14.367624
_cell_angle_alpha  89.83901
_cell_angle_beta   89.715567
_cell_angle_gamma 90.171677
loop_
_atom_site_label
_atom_site_type_symbol
_atom_site_fract_x
_atom_site_fract_y
_atom_site_fract_z
_atom_type_partial_charge
H0 H 0.8049 0.55753 0.38124 0.0
H1 H 0.73287 0.5377 0.2595 0.0
H2 H 0.76009 0.49715 0.50129 0.0
C3 C 0.78721 0.54678 0.38395 0.0
C4 C 0.78489 0.52731 0.45018 0.0
C5 C 0.76924 0.54982 0.31245 0.0
C6 C 0.74659 0.53544 0.31511 0.0
C7 C 0.74259 0.51701 0.38523 0.0
C8 C 0.76228 0.51241 0.45085 0.0
N9 N 0.71976 0.50192 0.38785 0.0
C10 C 0.69959 0.50383 0.32413 0.0
H11 H 0.06265 0.7931 0.36685 0.0
H12 H 0.04327 0.72361 0.22841 0.0
H13 H 0.99595 0.75127 0.45392 0.0
C14 C 0.05065 0.7763 0.36298 0.0
C15 C 0.02901 0.77464 0.42043 0.0
C16 C 0.05567 0.75833 0.29326 0.0
C17 C 0.03958 0.73711 0.28378 0.0
C18 C 0.01834 0.73394 0.34353 0.0
C19 C 1.01282 0.75312 0.41039 0.0
N20 N 1.00183 0.71226 0.33571 0.0
C21 C 1.00516 0.69223 0.27227 0.0
H22 H 0.72939 0.05486 0.39867 0.0
H23 H 0.79938 0.03673 0.25885 0.0
H24 H 0.77171 0.98875 0.48324 0.0
C25 C 0.74634 0.04315 0.39411 0.0
C26 C 0.74808 0.02147 0.45083 0.0
C27 C 0.76435 0.04849 0.32414 0.0
C28 C 0.7858 0.03277 0.31422 0.0
C29 C 0.7891 1.01157 0.37347 0.0
C30 C 0.7698 1.00564 0.44024 0.0
N31 N 0.81103 0.99548 0.36525 0.0
C32 C 0.83098 0.99887 0.30065 0.0
H33 H 0.46645 0.71821 0.41151 0.0
H34 H 0.48615 0.78603 0.26035 0.0
H35 H 0.53439 0.7596 0.48382 0.0
C36 C 0.47862 0.73482 0.40359 0.0
C37 C 0.50068 0.73665 0.45795 0.0
C38 C 0.47346 0.75219 0.33175 0.0
C39 C 0.4899 0.77301 0.31727 0.0
C40 C 0.51158 0.77631 0.3739 0.0
C41 C 0.51717 0.75771 0.44279 0.0
N42 N 0.52856 0.79745 0.36097 0.0
C43 C 0.52551 0.81694 0.29496 0.0
H44 H 0.229 0.55075 0.10695 0.0
H45 H 0.2996 0.53788 0.2494 0.0
H46 H 0.27098 0.48204 0.05464 0.0
C47 C 0.24593 0.53926 0.11717 0.0
C48 C 0.24727 0.51539 0.07426 0.0
C49 C 0.26424 0.54716 0.18186 0.0
C50 C 0.28588 0.53204 0.19734 0.0
C51 C 0.28914 0.50898 0.14828 0.0
C52 C 0.26946 0.50053 0.08768 0.0
N53 N 0.31111 0.49329 0.16227 0.0
C54 C 0.33088 0.49819 0.22552 0.0
H55 H 0.98715 0.20975 0.16113 0.0
H56 H 1.0013 0.28446 0.26874 0.0
H57 H 0.03136 0.26301 0.99854 0.0
C58 C 0.99528 0.22863 0.1513 0.0
C59 C 1.00898 0.23401 0.06983 0.0
C60 C 0.99264 0.24658 0.22247 0.0
C61 C 1.00344 0.27085 0.21269 0.0
C62 C 0.01747 0.27711 0.13165 0.0
C63 C 0.02043 0.25843 0.06062 0.0
N64 N 0.02891 0.30176 0.12057 0.0
C65 C 0.0275 0.32143 0.18647 0.0
H66 H 0.30184 0.05649 0.11992 0.0
H67 H 0.22785 0.03811 0.23138 0.0
H68 H 0.25422 1.0027 0.97742 0.0
C69 C 0.28354 0.047 0.11278 0.0
C70 C 0.28038 0.02985 0.0393 0.0
C71 C 0.26515 0.04943 0.18376 0.0
C72 C 0.24185 0.03637 0.17598 0.0
C73 C 0.23733 0.01996 0.10033 0.0
C74 C 0.25702 0.01626 0.03326 0.0
N75 N 0.21382 1.00612 0.09296 0.0
C76 C 0.19378 1.00712 0.15818 0.0
H77 H 0.56218 0.29629 0.15197 0.0
H78 H 0.54264 0.22526 0.28094 0.0
H79 H 0.50401 0.24915 0.02999 0.0
C80 C 0.55158 0.27853 0.14953 0.0
C81 C 0.53304 0.27513 0.08082 0.0
C82 C 0.55478 0.26094 0.22187 0.0
C83 C 0.5404 0.23841 0.2233 0.0
C84 C 0.52257 0.23351 0.15221 0.0
C85 C 0.51849 0.2523 0.08237 0.0
N86 N 0.50794 0.21044 0.1513 0.0
C87 C 0.51035 0.19062 0.21636 0.0
C88 C 0.98429 0.02895 0.4785 0.0
Eu89 Eu 0.99818 1.01341 0.64139 0.0
C90 C 0.96666 0.04926 0.45085 0.0
C91 C 0.94665 0.05668 0.51047 0.0
C92 C 0.93391 0.07972 0.49579 0.0
C93 C 0.9412 0.09581 0.42187 0.0
C94 C 0.95993 0.0872 0.35832 0.0
C95 C 0.97249 0.06412 0.37272 0.0
C96 C 0.966 1.00981 0.79395 0.0
C97 C 0.01626 0.0577 0.78805 0.0
C98 C 0.04364 0.98112 0.98926 0.0
Eu99 Eu 0.02931 0.99741 0.82783 0.0
C100 C 0.06058 0.95985 0.01232 0.0
C101 C 0.06825 0.95553 0.10409 0.0
C102 C 0.08132 0.93315 0.12678 0.0
C103 C 0.08651 0.91466 0.05808 0.0
C104 C 0.08046 0.92015 0.965 0.0
C105 C 0.06768 0.94261 0.94234 0.0
C106 C 0.06132 1.00106 0.6747 0.0
C107 C 1.01156 0.95328 0.68098 0.0
O108 O 1.00511 0.03712 0.51964 0.0
O109 O 0.97401 1.00898 0.51968 0.0
O110 O 0.95863 0.0156 0.71058 0.0
O111 O 0.98975 1.00606 0.78961 0.0
O112 O 1.00934 0.05212 0.70146 0.0
O113 O 0.0221 0.03981 0.85027 0.0
O114 O 0.02199 0.97429 0.95063 0.0
O115 O 0.05463 1.00053 0.94718 0.0
O116 O 0.06883 0.99517 0.75782 0.0
O117 O 0.03759 1.00467 0.67974 0.0
O118 O 0.01787 0.95879 0.76814 0.0
O119 O 1.00614 0.97118 0.61844 0.0
H120 H 0.94189 0.04547 0.57154 0.0
H121 H 0.91937 0.08555 0.54518 0.0
H122 H 0.96648 0.09916 0.30137 0.0
H123 H 0.98803 0.05881 0.32656 0.0
H124 H 0.06318 0.96885 0.15863 0.0
H125 H 0.0861 0.92965 0.19891 0.0
H126 H 0.08388 0.90633 0.91047 0.0
H127 H 0.06211 0.94586 0.87075 0.0
C128 C 0.48598 0.98055 0.51822 0.0
Eu129 Eu 0.50852 0.99092 0.67264 0.0
C130 C 0.46329 0.99386 0.4838 0.0
C131 C 0.44368 0.9803 0.44013 0.0
C132 C 0.42026 0.99213 0.42302 0.0
C133 C 0.41618 0.01768 0.44955 0.0
C134 C 0.43614 0.03136 0.49105 0.0
C135 C 0.45942 0.01952 0.50842 0.0
C136 C 0.52122 0.95938 0.81601 0.0
C137 C 0.46327 1.01126 0.81385 0.0
C138 C 0.54021 0.03019 0.01935 0.0
Eu139 Eu 0.52315 0.01864 0.85623 0.0
C140 C 0.56203 0.04636 0.04363 0.0
C141 C 0.56644 0.05351 0.13588 0.0
C142 C 0.58889 0.06658 0.15876 0.0
C143 C 0.6073 0.07232 0.08967 0.0
C144 C 0.60182 0.06658 0.99643 0.0
C145 C 0.57932 0.05382 0.97364 0.0
C146 C 0.51976 0.05376 0.71369 0.0
C147 C 0.56802 1.00272 0.7058 0.0
O148 O 0.50689 0.99434 0.52175 0.0
O149 O 0.48203 0.96721 0.59416 0.0
O150 O 0.52642 0.95482 0.72901 0.0
O151 O 0.50845 0.9798 0.82274 0.0
O152 O 0.47023 1.0059 0.72726 0.0
O153 O 0.48049 1.01421 0.88023 0.0
O154 O 0.54627 1.00896 0.97626 0.0
O155 O 0.52099 0.04214 0.98075 0.0
O156 O 0.52515 0.05965 0.79877 0.0
O157 O 0.51634 0.03007 0.71134 0.0
O158 O 0.56197 1.0074 0.79403 0.0
O159 O 0.55029 0.99842 0.64222 0.0
H160 H 0.44611 0.96034 0.42273 0.0
H161 H 0.40507 0.98102 0.39189 0.0
H162 H 0.43368 0.05111 0.51123 0.0
H163 H 0.47404 0.03019 0.5446 0.0
H164 H 0.55304 0.04823 0.19041 0.0
H165 H 0.59237 0.07118 0.23108 0.0
H166 H 0.61561 0.07044 0.94164 0.0
H167 H 0.57596 0.04874 0.90168 0.0
C168 C 0.54162 0.48498 0.50836 0.0
Eu169 Eu 0.53027 0.49892 0.67601 0.0
C170 C 0.55844 0.46519 0.47058 0.0
C171 C 0.58119 0.45845 0.51595 0.0
C172 C 0.59416 0.43618 0.49102 0.0
C173 C 0.58432 0.42012 0.42152 0.0
C174 C 0.56234 0.42797 0.37268 0.0
C175 C 0.54966 0.45034 0.39672 0.0
C176 C 0.56379 0.50204 0.82354 0.0
C177 C 0.51448 0.45392 0.82391 0.0
C178 C 0.48793 0.52914 0.03343 0.0
Eu179 Eu 0.50097 0.51382 0.86913 0.0
C180 C 0.47084 0.55007 0.05927 0.0
C181 C 0.46253 0.56703 0.99012 0.0
C182 C 0.44957 0.58925 0.01434 0.0
C183 C 0.44455 0.5948 0.10826 0.0
C184 C 0.45097 0.57658 0.17667 0.0
C185 C 0.46422 0.55441 0.15232 0.0
C186 C 0.46759 0.51106 0.72076 0.0
C187 C 0.51732 0.5587 0.72203 0.0
O188 O 0.52166 0.47618 0.55411 0.0
O189 O 0.55277 0.50434 0.5497 0.0
O190 O 0.57053 0.49662 0.73885 0.0
O191 O 0.54001 0.50562 0.82271 0.0
O192 O 0.5201 0.45993 0.73616 0.0
O193 O 0.5092 0.47142 0.88812 0.0
O194 O 0.50913 0.53646 0.99174 0.0
O195 O 0.47691 0.50969 0.99244 0.0
O196 O 0.46082 0.51646 0.80529 0.0
O197 O 0.49133 0.50736 0.72221 0.0
O198 O 0.51202 0.55277 0.81003 0.0
O199 O 0.52194 0.54117 0.65756 0.0
H200 H 0.58824 0.46964 0.57369 0.0
H201 H 0.61121 0.431 0.52903 0.0
H202 H 0.55372 0.41601 0.32006 0.0
H203 H 0.53201 0.45513 0.36162 0.0
H204 H 0.46731 0.56378 0.91765 0.0
H205 H 0.44519 0.60289 0.95996 0.0
H206 H 0.44697 0.58012 0.24952 0.0
H207 H 0.47021 0.54128 0.20633 0.0
C208 C 0.04418 0.53246 0.47799 0.0
Eu209 Eu 0.0274 0.51981 0.64127 0.0
C210 C 0.06471 0.55015 0.45128 0.0
C211 C 0.06742 0.55836 0.35905 0.0
C212 C 0.08862 0.57307 0.33282 0.0
C213 C 0.10753 0.57952 0.39838 0.0
C214 C 0.10364 0.57272 0.49212 0.0
C215 C 0.08236 0.55824 0.51832 0.0
C216 C 0.02055 0.55307 0.78725 0.0
C217 C 0.07149 0.5007 0.7917 0.0
C218 C 0.99224 0.48431 0.99847 0.0
Eu219 Eu 1.01089 0.49003 0.83319 0.0
C220 C 0.96733 0.49387 0.0309 0.0
C221 C 0.94567 0.49047 0.97474 0.0
C222 C 0.92342 0.50409 0.99223 0.0
C223 C 0.92221 0.52107 0.06698 0.0
C224 C 0.94314 0.52326 0.12737 0.0
C225 C 0.96574 0.5099 0.10878 0.0
C226 C 0.01834 0.45668 0.68826 0.0
C227 C 0.96716 0.5074 0.68168 0.0
O228 O 0.05173 0.51183 0.52208 0.0
O229 O 0.02403 0.54306 0.51615 0.0
O230 O 0.02821 0.55992 0.70486 0.0
O231 O 0.01714 0.52926 0.78464 0.0
O232 O 0.06589 0.51182 0.71074 0.0
O233 O 0.05398 0.49115 0.84963 0.0
O234 O 1.0091 0.50208 0.9783 0.0
O235 O 0.99137 0.46623 0.93558 0.0
O236 O 1.01297 0.4496 0.77307 0.0
O237 O 0.02008 0.48069 0.68813 0.0
O238 O 0.97277 0.50199 0.76976 0.0
O239 O 0.98513 0.51175 0.61775 0.0
H240 H 0.05368 0.55265 0.30683 0.0
H241 H 0.09084 0.57832 0.26028 0.0
H242 H 0.11785 0.57703 0.54437 0.0
H243 H 0.0803 0.55238 0.59035 0.0
H244 H 0.94617 0.478 0.91484 0.0
H245 H 0.90713 0.50151 0.94702 0.0
H246 H 0.94232 0.53597 0.18665 0.0
H247 H 0.98223 0.51285 0.1528 0.0
C248 C 0.16629 0.02924 0.27419 0.0
C249 C 0.17264 1.00709 0.22499 0.0
C250 C 0.14643 0.02915 0.34117 0.0
C251 C 0.13259 1.00631 0.35979 0.0
C252 C 0.13865 0.98405 0.30813 0.0
C253 C 0.15857 0.98472 0.24149 0.0
C254 C 0.14073 0.05334 0.39393 0.0
C255 C 0.12463 0.95925 0.32536 0.0
C256 C 0.10485 0.99769 0.60433 0.0
C257 C 0.0787 1.00262 0.59198 0.0
C258 C 0.12233 0.99877 0.5297 0.0
C259 C 0.11368 1.00505 0.43924 0.0
C260 C 0.08723 1.00999 0.42588 0.0
C261 C 0.07004 1.00867 0.50234 0.0
C262 C 0.15016 0.99312 0.54796 0.0
C263 C 0.07712 0.01677 0.33088 0.0
H264 H 0.1771 0.04659 0.26118 0.0
H265 H 0.1634 0.96759 0.20315 0.0
H266 H 0.12002 0.05773 0.39048 0.0
H267 H 0.1456 0.05072 0.46841 0.0
H268 H 0.15168 0.06994 0.36641 0.0
H269 H 0.10368 0.96227 0.32163 0.0
H270 H 0.13009 0.94427 0.27451 0.0
H271 H 0.12892 0.9522 0.39646 0.0
H272 H 0.1118 0.9929 0.67314 0.0
H273 H 0.04989 1.01234 0.49193 0.0
H274 H 0.16209 1.00987 0.52858 0.0
H275 H 0.15653 0.97689 0.50426 0.0
H276 H 0.15382 0.98833 0.62208 0.0
H277 H 0.08625 0.03469 0.30601 0.0
H278 H 0.05604 0.01935 0.3311 0.0
H279 H 0.08212 1.00162 0.28024 0.0
C280 C 0.53554 0.1607 0.31365 0.0
C281 C 0.51183 0.16954 0.28253 0.0
C282 C 0.53712 0.14054 0.37874 0.0
C283 C 0.51443 0.129 0.4138 0.0
C284 C 0.49044 0.13768 0.38078 0.0
C285 C 0.48945 0.15784 0.31563 0.0
C286 C 0.56309 0.13192 0.41133 0.0
C287 C 0.46577 0.12603 0.41582 0.0
C288 C 0.51809 0.06469 0.54215 0.0
C289 C 0.51794 0.07242 0.63554 0.0
C290 C 0.51697 0.08278 0.46905 0.0
C291 C 0.51567 0.10924 0.48983 0.0
C292 C 0.51551 0.11701 0.58425 0.0
C293 C 0.51675 0.09858 0.6555 0.0
C294 C 0.5174 0.07358 0.36965 0.0
C295 C 0.51403 0.14487 0.61025 0.0
H296 H 0.55286 0.1697 0.28763 0.0
H297 H 0.4711 0.16463 0.29114 0.0
H298 H 0.565 0.13552 0.48705 0.0
H299 H 0.56522 0.11107 0.40058 0.0
H300 H 0.5789 0.14193 0.37425 0.0
H301 H 0.44879 0.13385 0.37952 0.0
H302 H 0.46608 0.10502 0.40635 0.0
H303 H 0.46366 0.1297 0.49149 0.0
H304 H 0.51948 0.04456 0.52618 0.0
H305 H 0.5167 0.10473 0.72748 0.0
H306 H 0.53445 0.08139 0.33309 0.0
H307 H 0.50031 0.08065 0.33224 0.0
H308 H 0.51783 0.05242 0.36496 0.0
H309 H 0.53055 0.15537 0.57995 0.0
H310 H 0.51394 0.1478 0.6868 0.0
H311 H 0.49643 0.15344 0.581 0.0
C312 C 0.35911 0.47976 0.34588 0.0
C313 C 0.35211 0.50062 0.29059 0.0
C314 C 0.37949 0.48148 0.4095 0.0
C315 C 0.39331 0.5047 0.41843 0.0
C316 C 0.38657 0.52571 0.36089 0.0
C317 C 0.36603 0.52342 0.29779 0.0
C318 C 0.3859 0.45855 0.46867 0.0
C319 C 0.40062 0.55082 0.3676 0.0
C320 C 0.42374 0.51623 0.65582 0.0
C321 C 0.44955 0.51011 0.64044 0.0
C322 C 0.4056 0.51513 0.58397 0.0
C323 C 0.41317 0.50751 0.49346 0.0
C324 C 0.43934 0.50168 0.47678 0.0
C325 C 0.45722 0.50316 0.55033 0.0
C326 C 0.37814 0.52182 0.60557 0.0
C327 C 0.44835 0.49352 0.38156 0.0
H328 H 0.34847 0.46204 0.33985 0.0
H329 H 0.36073 0.53954 0.25457 0.0
H330 H 0.40652 0.45396 0.46196 0.0
H331 H 0.38212 0.46291 0.543 0.0
H332 H 0.37455 0.44143 0.44924 0.0
H333 H 0.39497 0.56437 0.3118 0.0
H334 H 0.39654 0.55972 0.43604 0.0
H335 H 0.42156 0.54775 0.36336 0.0
H336 H 0.41757 0.52182 0.72495 0.0
H337 H 0.4771 0.49866 0.53748 0.0
H338 H 0.36574 0.50489 0.59446 0.0
H339 H 0.37147 0.53704 0.55774 0.0
H340 H 0.37551 0.52844 0.67837 0.0
H341 H 0.43849 0.47561 0.36127 0.0
H342 H 0.46932 0.49031 0.37898 0.0
H343 H 0.44333 0.50823 0.32912 0.0
C344 C 0.04944 0.35247 0.28925 0.0
C345 C 0.02674 0.34238 0.25318 0.0
C346 C 0.04905 0.37252 0.35468 0.0
C347 C 0.02535 0.3828 0.38494 0.0
C348 C 1.00237 0.37285 0.347 0.0
C349 C 1.00335 0.35277 0.28174 0.0
C350 C 0.07401 0.38232 0.39307 0.0
C351 C 0.97667 0.38305 0.37695 0.0
C352 C 0.0214 0.41224 0.62749 0.0
C353 C 0.02153 0.43857 0.60898 0.0
C354 C 0.02289 0.39412 0.55563 0.0
C355 C 0.02448 0.40232 0.46174 0.0
C356 C 0.02492 0.42895 0.44234 0.0
C357 C 0.02344 0.44677 0.51616 0.0
C358 C 0.02243 0.36608 0.58043 0.0
C359 C 0.02656 0.43861 0.34351 0.0
H360 H 0.06756 0.34449 0.26689 0.0
H361 H 0.98577 0.34502 0.25359 0.0
H362 H 0.07523 0.40334 0.3845 0.0
H363 H 0.07498 0.37818 0.46875 0.0
H364 H 0.09083 0.3735 0.35843 0.0
H365 H 0.96071 0.37448 0.3369 0.0
H366 H 0.97353 0.37897 0.45196 0.0
H367 H 0.97615 0.40408 0.36798 0.0
H368 H 0.0199 0.40566 0.69892 0.0
H369 H 0.02331 0.46704 0.50111 0.0
H370 H 0.03974 0.35657 0.55239 0.0
H371 H 1.0056 0.35676 0.54821 0.0
H372 H 0.02159 0.3628 0.65681 0.0
H373 H 0.04367 0.43059 0.30842 0.0
H374 H 0.02758 0.45978 0.33988 0.0
H375 H 1.00959 0.4321 0.30402 0.0
C376 C 0.86716 0.02273 0.22766 0.0
C377 C 0.85222 1.00056 0.23452 0.0
C378 C 0.88759 0.02449 0.16313 0.0
C379 C 0.8932 1.00356 0.10381 0.0
C380 C 0.87838 0.98092 0.11251 0.0
C381 C 0.85811 0.97972 0.17757 0.0
C382 C 0.90275 0.04899 0.15683 0.0
C383 C 0.88353 0.95811 0.05137 0.0
C384 C 0.92278 0.01582 0.86426 0.0
C385 C 0.94843 1.0087 0.87625 0.0
C386 C 0.90499 1.01473 0.93788 0.0
C387 C 0.91274 1.00607 0.0268 0.0
C388 C 0.93875 0.99913 0.04005 0.0
C389 C 0.95631 1.00064 0.96475 0.0
C390 C 0.87769 0.02258 0.91985 0.0
C391 C 0.94792 0.98977 0.13341 0.0
H392 H 0.86272 0.03881 0.27218 0.0
H393 H 0.84667 0.96249 0.1833 0.0
H394 H 0.9235 0.04497 0.16231 0.0
H395 H 0.89956 0.05809 0.08806 0.0
H396 H 0.89734 0.06275 0.21216 0.0
H397 H 0.87164 0.94133 0.0712 0.0
H398 H 0.87948 0.96305 0.97778 0.0
H399 H 0.90399 0.95268 0.05536 0.0
H400 H 0.91645 0.02225 0.79642 0.0
H401 H 0.97606 0.99526 0.97491 0.0
H402 H 0.87189 0.03773 0.96938 0.0
H403 H 0.86471 1.00607 0.93131 0.0
H404 H 0.87489 0.02978 0.84783 0.0
H405 H 0.9439 1.00426 0.18765 0.0
H406 H 0.96873 0.98558 0.13322 0.0
H407 H 0.93736 0.97217 0.15334 0.0
C408 C 0.50243 0.84312 0.17781 0.0
C409 C 0.52459 0.83808 0.22885 0.0
C410 C 0.50162 0.86347 0.11322 0.0
C411 C 0.52349 0.87919 0.09946 0.0
C412 C 0.54583 0.87418 0.15201 0.0
C413 C 0.54609 0.8537 0.21589 0.0
C414 C 0.47743 0.86796 0.05883 0.0
C415 C 0.56958 0.89032 0.14007 0.0
C416 C 0.53102 0.91472 0.86792 0.0
C417 C 0.52278 0.93945 0.89021 0.0
C418 C 0.53126 0.89506 0.93501 0.0
C419 C 0.52338 0.90016 0.02764 0.0
C420 C 0.51549 0.92526 0.05107 0.0
C421 C 0.51514 0.94453 0.98208 0.0
C422 C 0.53967 0.86868 0.90629 0.0
C423 C 0.50725 0.93172 0.14897 0.0
H424 H 0.48575 0.83109 0.18803 0.0
H425 H 0.56323 0.84982 0.2556 0.0
H426 H 0.47064 0.88776 0.06983 0.0
H427 H 0.48136 0.86577 0.98331 0.0
H428 H 0.4619 0.85451 0.07906 0.0
H429 H 0.58506 0.88456 0.18836 0.0
H430 H 0.5768 0.88873 0.0676 0.0
H431 H 0.565 0.91071 0.15226 0.0
H432 H 0.53691 0.91054 0.79716 0.0
H433 H 0.50877 0.96357 1.0 0.0
H434 H 0.52401 0.85477 0.91927 0.0
H435 H 0.55624 0.86258 0.94875 0.0
H436 H 0.54516 0.86775 0.83158 0.0
H437 H 0.4904 0.91998 0.16901 0.0
H438 H 0.50223 0.9522 0.15669 0.0
H439 H 0.52278 0.9271 0.19849 0.0
C440 C 0.67188 0.52673 0.21134 0.0
C441 C 0.67812 0.50435 0.25951 0.0
C442 C 0.65162 0.52715 0.14669 0.0
C443 C 0.63728 0.5046 0.12937 0.0
C444 C 0.64322 0.48211 0.18009 0.0
C445 C 0.66355 0.48227 0.24438 0.0
C446 C 0.64598 0.55161 0.09515 0.0
C447 C 0.62862 0.45761 0.16444 0.0
C448 C 0.57386 0.50857 0.99489 0.0
C449 C 0.58181 0.50288 0.90389 0.0
C450 C 0.59157 0.50928 0.06918 0.0
C451 C 0.61783 0.50394 0.0523 0.0
C452 C 0.62574 0.49794 0.96051 0.0
C453 C 0.60777 0.49758 0.88799 0.0
C454 C 0.5822 0.51579 0.16567 0.0
C455 C 0.65333 0.49184 0.9386 0.0
H456 H 0.68304 0.54387 0.2234 0.0
H457 H 0.66829 0.46496 0.28202 0.0
H458 H 0.65029 0.54914 0.02004 0.0
H459 H 0.62538 0.55633 0.10134 0.0
H460 H 0.65739 0.56794 0.1216 0.0
H461 H 0.63431 0.44232 0.21382 0.0
H462 H 0.60778 0.46094 0.17198 0.0
H463 H 0.63204 0.4508 0.0924 0.0
H464 H 0.55386 0.51248 0.00805 0.0
H465 H 0.61416 0.49303 0.81811 0.0
H466 H 0.59285 0.53253 0.19261 0.0
H467 H 0.58591 0.49962 0.21372 0.0
H468 H 0.56143 0.52012 0.16716 0.0
H469 H 0.66569 0.50831 0.95672 0.0
H470 H 0.65638 0.4872 0.86396 0.0
H471 H 0.65969 0.47536 0.98121 0.0
C472 C 0.98962 0.66815 0.13525 0.0
C473 C 1.00721 0.67085 0.20775 0.0
C474 C 0.99118 0.64752 0.07253 0.0
C475 C 1.01089 0.62916 0.08212 0.0
C476 C 0.02831 0.63157 0.15702 0.0
C477 C 0.02631 0.65242 0.21875 0.0
C478 C 0.97175 0.64537 0.99568 0.0
C479 C 0.04904 0.61208 0.17196 0.0
C480 C 1.00401 0.56604 0.94714 0.0
C481 C 0.01897 0.57098 0.86779 0.0
C482 C 1.00147 0.58446 0.01858 0.0
C483 C 1.01415 0.60845 0.01047 0.0
C484 C 0.02954 0.6132 0.93085 0.0
C485 C 0.03167 0.59457 0.86103 0.0
C486 C 0.9847 0.57791 0.10093 0.0
C487 C 0.04339 0.63832 0.91822 0.0
H488 H 0.97462 0.68222 0.12744 0.0
H489 H 0.03972 0.65431 0.27566 0.0
H490 H 0.98152 0.64633 0.927 0.0
H491 H 0.96193 0.62659 1.00015 0.0
H492 H 0.95716 0.6607 0.99896 0.0
H493 H 0.0609 0.6165 0.2338 0.0
H494 H 0.04032 0.59289 0.18128 0.0
H495 H 0.06168 0.6112 0.10979 0.0
H496 H 0.99356 0.54823 0.95222 0.0
H497 H 0.04324 0.59866 0.79993 0.0
H498 H 0.96509 0.57356 0.07621 0.0
H499 H 0.98354 0.59324 0.15376 0.0
H500 H 0.9921 0.56042 0.13505 0.0
H501 H 0.02935 0.65414 0.91552 0.0
H502 H 0.05512 0.63885 0.85357 0.0
H503 H 0.05608 0.64191 0.97847 0.0
C504 C 0.99237 0.21918 0.36022 0.0
C505 C 0.97992 0.23798 0.30847 0.0
C506 C 0.97831 0.20024 0.40641 0.0
C507 C 0.95121 0.20096 0.40306 0.0
C508 C 0.93895 0.22304 0.36829 0.0
C509 C 0.95349 0.24114 0.31853 0.0
C510 C 0.99251 0.17763 0.44603 0.0
C511 C 0.91036 0.22621 0.37383 0.0
C512 C 0.93123 0.13541 0.33275 0.0
C513 C 0.93297 0.12293 0.41869 0.0
C514 C 0.93397 0.16192 0.32669 0.0
C515 C 0.93714 0.17632 0.40946 0.0
C516 C 0.93346 0.16428 0.4967 0.0
C517 C 0.93202 0.13754 0.50062 0.0
C518 C 0.93723 0.1737 0.23124 0.0
C519 C 0.9337 0.17907 0.58658 0.0
H520 H 1.01292 0.21713 0.35292 0.0
H521 H 0.94389 0.25604 0.27965 0.0
H522 H 0.98671 0.17437 0.51931 0.0
H523 H 0.98779 0.16014 0.40607 0.0
H524 H 1.01358 0.18037 0.44405 0.0
H525 H 0.90558 0.24638 0.3897 0.0
H526 H 0.90172 0.22168 0.30548 0.0
H527 H 0.90165 0.21369 0.42788 0.0
H528 H 0.93052 0.12422 0.26942 0.0
H529 H 0.93256 0.12826 0.56807 0.0
H530 H 0.95731 0.18007 0.2221 0.0
H531 H 0.92474 0.19057 0.22342 0.0
H532 H 0.93269 0.16007 0.1745 0.0
H533 H 0.95187 0.17552 0.6239 0.0
H534 H 0.91801 0.17223 0.63274 0.0
H535 H 0.93146 0.19991 0.57527 0.0
C536 C 0.29032 0.08086 0.27487 0.0
C537 C 0.27382 0.0597 0.27433 0.0
C538 C 0.31158 0.08107 0.33394 0.0
C539 C 0.31558 0.05995 0.39355 0.0
C540 C 0.29528 0.04259 0.41018 0.0
C541 C 0.27428 0.04275 0.35001 0.0
C542 C 0.33194 0.10109 0.31932 0.0
C543 C 0.2981 0.02056 0.47714 0.0
C544 C 0.37808 0.02582 0.35148 0.0
C545 C 0.39103 0.02986 0.4349 0.0
C546 C 0.35376 0.03593 0.33723 0.0
C547 C 0.3421 0.05085 0.40808 0.0
C548 C 0.3554 0.05572 0.49164 0.0
C549 C 0.37981 0.04517 0.50403 0.0
C550 C 0.34078 0.03063 0.24545 0.0
C551 C 0.34414 0.07221 0.56733 0.0
H552 H 0.28926 0.09473 0.21885 0.0
H553 H 0.26096 0.02687 0.35248 0.0
H554 H 0.34235 0.10498 0.38485 0.0
H555 H 0.34596 0.09416 0.26701 0.0
H556 H 0.32359 0.11917 0.29288 0.0
H557 H 0.27914 1.01305 0.49944 0.0
H558 H 0.30863 1.00491 0.44206 0.0
H559 H 0.30908 0.02623 0.53962 0.0
H560 H 0.38705 1.01469 0.29687 0.0
H561 H 0.38988 0.04845 0.56869 0.0
H562 H 0.33991 0.04855 0.20444 0.0
H563 H 0.32101 0.02357 0.25652 0.0
H564 H 0.35114 0.01621 0.20335 0.0
H565 H 0.34571 0.09254 0.54624 0.0
H566 H 0.35434 0.06981 0.63436 0.0
H567 H 0.32356 0.06797 0.57844 0.0
C568 C 0.59521 0.27445 0.29574 0.0
C569 C 0.56885 0.27007 0.30367 0.0
C570 C 0.60646 0.29548 0.34019 0.0
C571 C 0.59056 0.31289 0.38808 0.0
C572 C 0.56503 0.30582 0.40974 0.0
C573 C 0.55464 0.28394 0.36873 0.0
C574 C 0.63446 0.30098 0.32481 0.0
C575 C 0.5475 0.32328 0.46376 0.0
C576 C 0.60171 0.37882 0.48443 0.0
C577 C 0.5943 0.39382 0.40787 0.0
C578 C 0.60402 0.35222 0.47644 0.0
C579 C 0.59757 0.34038 0.39135 0.0
C580 C 0.59288 0.35573 0.3116 0.0
C581 C 0.59223 0.38227 0.32051 0.0
C582 C 0.6113 0.33701 0.56152 0.0
C583 C 0.58505 0.34439 0.21936 0.0
H584 H 0.60631 0.26345 0.24623 0.0
H585 H 0.53428 0.28026 0.37529 0.0
H586 H 0.63692 0.31328 0.26242 0.0
H587 H 0.64269 0.31118 0.38538 0.0
H588 H 0.6453 0.28307 0.31294 0.0
H589 H 0.52854 0.3144 0.47775 0.0
H590 H 0.55625 0.3284 0.53126 0.0
H591 H 0.54449 0.34122 0.42401 0.0
H592 H 0.60389 0.38742 0.55243 0.0
H593 H 0.58775 0.39385 0.26013 0.0
H594 H 0.62753 0.34642 0.59746 0.0
H595 H 0.61678 0.31711 0.54459 0.0
H596 H 0.59503 0.33665 0.61136 0.0
H597 H 0.59809 0.32884 0.19818 0.0
H598 H 0.58477 0.35883 0.16257 0.0
H599 H 0.5655 0.33632 0.22644 0.0
C600 C 0.24878 0.59107 0.21357 0.0
C601 C 0.25614 0.56713 0.24795 0.0
C602 C 0.22802 0.60408 0.25365 0.0
C603 C 0.21396 0.59208 0.326 0.0
C604 C 0.22461 0.57062 0.37189 0.0
C605 C 0.24605 0.55864 0.33296 0.0
C606 C 0.2187 0.62829 0.20852 0.0
C607 C 0.21076 0.55734 0.45087 0.0
C608 C 0.14779 0.60538 0.42294 0.0
C609 C 0.13307 0.58889 0.3675 0.0
C610 C 0.17407 0.60894 0.4052 0.0
C611 C 0.18573 0.59552 0.33109 0.0
C612 C 0.17028 0.58117 0.26934 0.0
C613 C 0.14428 0.57803 0.28844 0.0
C614 C 0.18946 0.62628 0.46726 0.0
C615 C 0.1815 0.56673 0.18824 0.0
H616 H 0.2569 0.59793 0.14853 0.0
H617 H 0.25199 0.54027 0.36017 0.0
H618 H 0.20548 0.62351 0.15098 0.0
H619 H 0.20827 0.64041 0.25914 0.0
H620 H 0.23494 0.63934 0.17851 0.0
H621 H 0.2234 0.54378 0.48822 0.0
H622 H 0.20316 0.57131 0.50161 0.0
H623 H 0.19431 0.54645 0.42256 0.0
H624 H 0.13902 0.61457 0.48251 0.0
H625 H 0.13326 0.56516 0.24529 0.0
H626 H 0.19721 0.64237 0.42531 0.0
H627 H 0.20606 0.61601 0.49692 0.0
H628 H 0.17782 0.63419 0.52522 0.0
H629 H 0.1666 0.55809 0.14342 0.0
H630 H 0.19388 0.5513 0.21527 0.0
H631 H 0.1933 0.57951 0.144 0.0
C632 C 0.09851 0.77449 0.24722 0.0
C633 C 0.07427 0.76578 0.22027 0.0
C634 C 0.11001 0.79515 0.20071 0.0
C635 C 0.09662 0.80713 0.12749 0.0
C636 C 0.07538 0.79452 0.08743 0.0
C637 C 0.06442 0.77367 0.13451 0.0
C638 C 0.13397 0.80678 0.24022 0.0
C639 C 0.06136 0.80583 0.00572 0.0
C640 C 0.08154 0.87686 0.16113 0.0
C641 C 0.09375 0.88826 0.08471 0.0
C642 C 0.08358 0.85071 0.17806 0.0
C643 C 0.09843 0.83534 0.11731 0.0
C644 C 0.11242 0.84696 0.04398 0.0
C645 C 0.10976 0.87333 0.02805 0.0
C646 C 0.06865 0.8395 0.25877 0.0
C647 C 0.12917 0.8317 0.97919 0.0
H648 H 0.10652 0.76786 0.31241 0.0
H649 H 0.04594 0.76654 0.11235 0.0
H650 H 0.14557 0.81609 0.18475 0.0
H651 H 0.1287 0.82154 0.29211 0.0
H652 H 0.14575 0.79214 0.27587 0.0
H653 H 0.04847 0.79164 0.97268 0.0
H654 H 0.04961 0.82215 0.02992 0.0
H655 H 0.07505 0.81309 0.95269 0.0
H656 H 0.06889 0.88807 0.20469 0.0
H657 H 0.11958 0.88207 0.96944 0.0
H658 H 0.08209 0.83103 0.30957 0.0
H659 H 0.0556 0.82427 0.23413 0.0
H660 H 0.05697 0.85395 0.29571 0.0
H661 H 0.14613 0.84307 0.95728 0.0
H662 H 0.11824 0.82702 0.91546 0.0
H663 H 0.13578 0.81362 0.01132 0.0
C664 C 0.74978 0.05683 0.16461 0.0
C665 C 0.7567 0.06686 0.25117 0.0
C666 C 0.7286 0.06669 0.11717 0.0
C667 C 0.71463 0.08694 0.15785 0.0
C668 C 0.72557 0.10082 0.23196 0.0
C669 C 0.74671 0.09054 0.27837 0.0
C670 C 0.71842 0.05229 0.03445 0.0
C671 C 0.71238 0.1238 0.2725 0.0
C672 C 0.64794 0.09711 0.05969 0.0
C673 C 0.63359 0.08022 0.11552 0.0
C674 C 0.67422 0.10085 0.07517 0.0
C675 C 0.68637 0.08703 0.14713 0.0
C676 C 0.67157 0.07106 0.20663 0.0
C677 C 0.64546 0.06801 0.19031 0.0
C678 C 0.68885 0.11861 0.01144 0.0
C679 C 0.68334 0.05627 0.28598 0.0
H680 H 0.75794 0.03887 0.14201 0.0
H681 H 0.75264 0.09877 0.34403 0.0
H682 H 0.70285 0.03928 0.05779 0.0
H683 H 0.71036 0.06563 0.98231 0.0
H684 H 0.73355 0.04065 1.00067 0.0
H685 H 0.72617 0.13631 0.30938 0.0
H686 H 0.70266 0.135 0.21743 0.0
H687 H 0.69769 0.11738 0.32353 0.0
H688 H 0.6388 0.10689 1.00224 0.0
H689 H 0.63467 0.05471 0.23317 0.0
H690 H 0.69438 0.10813 0.94746 0.0
H691 H 0.70646 0.12615 0.04431 0.0
H692 H 0.6767 0.13492 0.98986 0.0
H693 H 0.69988 0.04494 0.26121 0.0
H694 H 0.6696 0.0429 0.31947 0.0
H695 H 0.69013 0.06982 0.3396 0.0
C696 C 0.43061 0.73498 0.29288 0.0
C697 C 0.45434 0.74434 0.26183 0.0
C698 C 0.41939 0.71383 0.2493 0.0
C699 C 0.43236 0.70228 0.17395 0.0
C700 C 0.45264 0.71562 0.12961 0.0
C701 C 0.46347 0.73678 0.17439 0.0
C702 C 0.39642 0.70131 0.29394 0.0
C703 C 0.46604 0.70479 0.04545 0.0
C704 C 0.4501 0.6331 0.20752 0.0
C705 C 0.43705 0.62111 0.13491 0.0
C706 C 0.44768 0.65927 0.22304 0.0
C707 C 0.43148 0.67402 0.16506 0.0
C708 C 0.41676 0.66177 0.09584 0.0
C709 C 0.41988 0.63543 0.08103 0.0
C710 C 0.46345 0.67117 0.29948 0.0
C711 C 0.39871 0.67636 0.03401 0.0
H712 H 0.42305 0.74141 0.35919 0.0
H713 H 0.48146 0.74446 0.14876 0.0
H714 H 0.3845 0.69152 0.24118 0.0
H715 H 0.40294 0.68682 0.345 0.0
H716 H 0.38455 0.71551 0.33165 0.0
H717 H 0.47775 0.71951 0.00909 0.0
H718 H 0.4789 0.68912 0.06778 0.0
H719 H 0.45202 0.69675 0.9958 0.0
H720 H 0.46361 0.62234 0.24887 0.0
H721 H 0.40945 0.62621 0.02535 0.0
H722 H 0.45053 0.67849 0.3546 0.0
H723 H 0.47496 0.68735 0.27212 0.0
H724 H 0.47681 0.65738 0.3318 0.0
H725 H 0.39181 0.69418 0.06708 0.0
H726 H 0.38195 0.66437 0.01545 0.0
H727 H 0.40873 0.68147 0.96828 0.0
C728 C 0.78087 0.54561 0.14737 0.0
C729 C 0.77843 0.56173 0.22466 0.0
C730 C 0.80302 0.54663 0.09215 0.0
C731 C 0.82233 0.5645 0.11482 0.0
C732 C 0.81638 0.58497 0.17488 0.0
C733 C 0.79411 0.58348 0.22945 0.0
C734 C 0.80784 0.52556 0.02306 0.0
C735 C 0.83552 0.60583 0.19369 0.0
C736 C 0.88527 0.53221 0.16658 0.0
C737 C 0.89847 0.53543 0.08294 0.0
C738 C 0.8607 0.54213 0.17798 0.0
C739 C 0.84944 0.55655 0.10482 0.0
C740 C 0.86349 0.56119 0.02202 0.0
C741 C 0.88773 0.55014 0.01143 0.0
C742 C 0.84662 0.5363 0.26764 0.0
C743 C 0.85294 0.57683 0.94277 0.0
H744 H 0.76815 0.52935 0.14035 0.0
H745 H 0.79154 0.59677 0.28644 0.0
H746 H 0.81747 0.53316 0.95988 0.0
H747 H 0.82061 0.51109 0.05481 0.0
H748 H 0.7898 0.51595 1.00224 0.0
H749 H 0.82589 0.62342 0.21868 0.0
H750 H 0.84893 0.59939 0.24855 0.0
H751 H 0.84684 0.61035 0.13013 0.0
H752 H 0.89364 0.52067 0.22121 0.0
H753 H 0.89814 0.55262 0.94651 0.0
H754 H 0.82695 0.5295 0.25367 0.0
H755 H 0.84551 0.55392 0.31 0.0
H756 H 0.85625 0.52139 0.30957 0.0
H757 H 0.84625 0.56382 0.88708 0.0
H758 H 0.86823 0.58901 0.91196 0.0
H759 H 0.83682 0.58921 0.96447 0.0
C760 C 0.98918 0.19905 0.97518 0.0
C761 C 1.01122 0.21292 0.9996 0.0
C762 C 0.99071 0.17512 0.93119 0.0
C763 C 1.01492 0.16462 0.9091 0.0
C764 C 0.03719 0.17944 0.92675 0.0
C765 C 0.03511 0.20332 0.97213 0.0
C766 C 0.96637 0.16027 0.91467 0.0
C767 C 0.06337 0.16936 0.90281 0.0
C768 C 0.01909 0.0916 0.91241 0.0
C769 C 0.01691 0.08518 0.81781 0.0
C770 C 0.01888 0.11722 0.94237 0.0
C771 C 0.0168 0.13732 0.87641 0.0
C772 C 1.01507 0.13105 0.78059 0.0
C773 C 1.01496 0.10518 0.75261 0.0
C774 C 0.02025 0.12275 0.04534 0.0
C775 C 1.013 0.15168 0.70751 0.0
H776 H 0.97061 0.20629 0.99592 0.0
H777 H 0.05225 0.21367 0.99135 0.0
H778 H 0.96566 0.15328 0.84194 0.0
H779 H 0.96587 0.14329 0.96103 0.0
H780 H 0.94901 0.17186 0.92844 0.0
H781 H 0.07837 0.18433 0.90869 0.0
H782 H 0.06821 0.15347 0.95072 0.0
H783 H 0.06364 0.16163 0.83099 0.0
H784 H 0.02048 0.0765 0.96385 0.0
H785 H 1.01334 0.10065 0.67932 0.0
H786 H 1.00266 0.1328 0.06811 0.0
H787 H 0.03667 0.13555 0.05995 0.0
H788 H 0.02231 0.10512 0.08775 0.0
H789 H 0.99472 0.16209 0.71635 0.0
H790 H 1.01377 0.14388 0.63573 0.0
H791 H 0.02868 0.16578 0.7158 0.0
C792 C 0.31473 1.00067 0.97671 0.0
C793 C 0.3033 0.02488 0.97863 0.0
C794 C 0.33985 0.99727 0.94179 0.0
C795 C 0.35403 0.01856 0.90787 0.0
C796 C 0.3419 0.04271 0.90433 0.0
C797 C 0.31687 0.04555 0.93972 0.0
C798 C 0.35174 0.97112 0.94644 0.0
C799 C 0.35598 0.06605 0.86935 0.0
C800 C 0.42719 0.01838 0.92884 0.0
C801 C 0.43529 1.01333 0.8373 0.0
C802 C 0.401 0.01993 0.95247 0.0
C803 C 0.38206 0.01617 0.88331 0.0
C804 C 0.39007 1.01097 0.79076 0.0
C805 C 0.41643 1.0097 0.7689 0.0
C806 C 0.39361 0.02535 0.05217 0.0
C807 C 0.37075 1.00678 0.71461 0.0
H808 H 0.30469 0.98468 0.00815 0.0
H809 H 0.30836 0.06439 0.94175 0.0
H810 H 0.36126 0.96642 0.8795 0.0
H811 H 0.3666 0.97089 1.00124 0.0
H812 H 0.3374 0.95606 0.96279 0.0
H813 H 0.3429 0.08238 0.85734 0.0
H814 H 0.37043 0.07184 0.92154 0.0
H815 H 0.36632 0.06185 0.8036 0.0
H816 H 0.44136 0.02111 0.98267 0.0
H817 H 0.42224 1.00575 0.69787 0.0
H818 H 0.38371 1.00844 0.08198 0.0
H819 H 0.38011 0.04162 0.05561 0.0
H820 H 0.41043 0.02978 0.09624 0.0
H821 H 0.37991 1.00178 0.64718 0.0
H822 H 0.3592 0.02429 0.70483 0.0
H823 H 0.35735 0.99124 0.73466 0.0
C824 C 0.54885 0.31121 0.97979 0.0
C825 C 0.52809 0.29719 0.01629 0.0
C826 C 0.54564 0.33569 0.94109 0.0
C827 C 0.52089 0.3465 0.93605 0.0
C828 C 0.49957 0.33163 0.96563 0.0
C829 C 0.50342 0.30726 0.00585 0.0
C830 C 0.56904 0.35067 0.91162 0.0
C831 C 0.47279 0.34205 0.95972 0.0
C832 C 0.51694 0.41945 0.9467 0.0
C833 C 0.51497 0.42635 0.85241 0.0
C834 C 0.5186 0.39366 0.97457 0.0
C835 C 0.51775 0.37398 0.90696 0.0
C836 C 0.51523 0.38078 0.81179 0.0
C837 C 0.51412 0.40677 0.78569 0.0
C838 C 0.52192 0.38752 0.07658 0.0
C839 C 0.51403 0.36058 0.73723 0.0
H840 H 0.568 0.30358 0.98662 0.0
H841 H 0.48724 0.29681 0.03431 0.0
H842 H 0.56659 0.35849 0.84044 0.0
H843 H 0.57171 0.3671 0.95924 0.0
H844 H 0.58666 0.33889 0.91291 0.0
H845 H 0.45812 0.32716 0.974 0.0
H846 H 0.47039 0.35762 0.01119 0.0
H847 H 0.46932 0.35032 0.88973 0.0
H848 H 0.51785 0.43428 0.99903 0.0
H849 H 0.51252 0.41175 0.71268 0.0
H850 H 0.54018 0.37721 0.08716 0.0
H851 H 0.50629 0.37474 0.10078 0.0
H852 H 0.522 0.4049 0.12069 0.0
H853 H 0.53243 0.35014 0.73402 0.0
H854 H 0.51012 0.36878 0.66737 0.0
H855 H 0.4989 0.34641 0.75431 0.0
C856 C 0.2225 0.50052 0.93224 0.0
C857 C 0.22346 0.50583 0.0278 0.0
C858 C 0.19877 0.49678 0.88683 0.0
C859 C 0.17546 0.49903 0.93766 0.0
C860 C 0.17659 0.50313 0.03497 0.0
C861 C 0.20043 0.50601 0.07859 0.0
C862 C 0.19863 0.49133 0.78386 0.0
C863 C 0.15253 0.50586 0.09273 0.0
C864 C 0.11418 0.52157 0.81763 0.0
C865 C 0.09881 0.49961 0.82087 0.0
C866 C 0.13928 0.5215 0.8534 0.0
C867 C 0.14984 0.49861 0.88978 0.0
C868 C 0.13477 0.47604 0.88827 0.0
C869 C 0.1093 0.47696 0.85613 0.0
C870 C 0.15404 0.54628 0.85657 0.0
C871 C 0.14536 0.45095 0.92225 0.0
H872 H 0.24014 0.50037 0.89236 0.0
H873 H 0.20106 0.50965 0.15276 0.0
H874 H 0.18512 0.47556 0.76811 0.0
H875 H 0.19204 0.50847 0.7455 0.0
H876 H 0.21792 0.48614 0.75751 0.0
H877 H 0.14072 0.48834 0.08772 0.0
H878 H 0.15666 0.50944 0.16735 0.0
H879 H 0.14088 0.52189 0.06562 0.0
H880 H 0.10612 0.53917 0.79108 0.0
H881 H 0.09759 0.45986 0.85812 0.0
H882 H 0.17272 0.54416 0.82067 0.0
H883 H 0.15804 0.55135 0.93006 0.0
H884 H 0.14348 0.56228 0.82365 0.0
H885 H 0.16489 0.44789 0.89391 0.0
H886 H 0.13307 0.43457 0.90206 0.0
H887 H 0.14682 0.45118 0.99919 0.0
C888 C 0.9988 0.80834 0.48395 0.0
C889 C 0.02315 0.7971 0.48232 0.0
C890 C 0.99484 0.83267 0.5242 0.0
C891 C 1.01575 0.8464 0.56249 0.0
C892 C 0.04 0.83447 0.56572 0.0
C893 C 0.04324 0.80998 0.52738 0.0
C894 C 0.96851 0.84427 0.52123 0.0
C895 C 0.06303 0.84822 0.60427 0.0
C896 C 1.01525 0.91957 0.5569 0.0
C897 C 1.01144 0.92591 0.65085 0.0
C898 C 0.01634 0.89394 0.52738 0.0
C899 C 1.01294 0.87383 0.59277 0.0
C900 C 1.00838 0.88012 0.68744 0.0
C901 C 1.00806 0.90597 0.71548 0.0
C902 C 0.02234 0.88845 0.42657 0.0
C903 C 1.00408 0.85951 0.75946 0.0
H904 H 0.98312 0.79881 0.44918 0.0
H905 H 0.06207 0.8014 0.52829 0.0
H906 H 0.9633 0.85219 0.59032 0.0
H907 H 0.96837 0.8603 0.4706 0.0
H908 H 0.95372 0.83017 0.50036 0.0
H909 H 0.08021 0.83584 0.60676 0.0
H910 H 0.06748 0.86509 0.5601 0.0
H911 H 0.05899 0.85531 0.67546 0.0
H912 H 0.01821 0.93471 0.50639 0.0
H913 H 1.00496 0.91057 0.78816 0.0
H914 H 1.00888 0.87409 0.3981 0.0
H915 H 0.04187 0.88038 0.42154 0.0
H916 H 0.02155 0.90589 0.38253 0.0
H917 H 0.98893 0.84616 0.73593 0.0
H918 H 0.99847 0.86745 0.82819 0.0
H919 H 0.02181 0.84822 0.76836 0.0
C920 C 0.71391 0.99097 0.51102 0.0
C921 C 0.72546 1.01521 0.51238 0.0
C922 C 0.68934 0.98684 0.55034 0.0
C923 C 0.6757 1.00747 0.59094 0.0
C924 C 0.68795 0.03155 0.59726 0.0
C925 C 0.71263 0.03497 0.55949 0.0
C926 C 0.67737 0.9607 0.54373 0.0
C927 C 0.67435 0.05428 0.63849 0.0
C928 C 0.6024 1.00753 0.58344 0.0
C929 C 0.59559 1.0028 0.6766 0.0
C930 C 0.62821 1.00876 0.5548 0.0
C931 C 0.64805 1.0046 0.62019 0.0
C932 C 0.64128 0.99917 0.71402 0.0
C933 C 0.61525 0.99869 0.74127 0.0
C934 C 0.63419 0.01573 0.45504 0.0
C935 C 0.66156 0.99409 0.78598 0.0
H936 H 0.72338 0.97557 0.47448 0.0
H937 H 0.72141 0.05372 0.56233 0.0
H938 H 0.66912 0.95494 0.61197 0.0
H939 H 0.6615 0.96117 0.49281 0.0
H940 H 0.69137 0.94603 0.5212 0.0
H941 H 0.68702 0.07126 0.64388 0.0
H942 H 0.65776 0.05934 0.59428 0.0
H943 H 0.66681 0.04962 0.70877 0.0
H944 H 0.58748 1.01107 0.53294 0.0
H945 H 0.61029 0.9949 0.81335 0.0
H946 H 0.64874 1.00269 0.4253 0.0
H947 H 0.64222 0.03534 0.45291 0.0
H948 H 0.61693 1.01522 0.41029 0.0
H949 H 0.67478 0.97904 0.76099 0.0
H950 H 0.65325 0.98802 0.85385 0.0
H951 H 0.67311 1.01159 0.79717 0.0
C952 C 0.48693 0.70284 0.57281 0.0
C953 C 0.50672 0.71467 0.52169 0.0
C954 C 0.48998 0.67854 0.61326 0.0
C955 C 0.51369 0.66574 0.60518 0.0
C956 C 0.53444 0.67848 0.56063 0.0
C957 C 0.53068 0.70267 0.51894 0.0
C958 C 0.46716 0.66586 0.6589 0.0
C959 C 0.56022 0.66588 0.552 0.0
C960 C 0.5222 0.60581 0.75646 0.0
C961 C 0.51718 0.58613 0.69282 0.0
C962 C 0.52201 0.63171 0.72857 0.0
C963 C 0.51591 0.63826 0.63535 0.0
C964 C 0.51069 0.61839 0.57119 0.0
C965 C 0.51169 0.59272 0.6003 0.0
C966 C 0.5282 0.65209 0.79901 0.0
C967 C 0.50296 0.62423 0.47235 0.0
H968 H 0.46842 0.71203 0.57665 0.0
H969 H 0.54609 0.71142 0.47934 0.0
H970 H 0.46098 0.64936 0.6162 0.0
H971 H 0.47227 0.65839 0.72862 0.0
H972 H 0.45074 0.67909 0.66662 0.0
H973 H 0.57518 0.67938 0.52706 0.0
H974 H 0.56616 0.65783 0.62004 0.0
H975 H 0.55897 0.64981 0.50205 0.0
H976 H 0.52658 0.60096 0.82801 0.0
H977 H 0.50744 0.57775 0.55074 0.0
H978 H 0.51117 0.66419 0.81141 0.0
H979 H 0.5436 0.66472 0.7718 0.0
H980 H 0.53439 0.6439 0.86662 0.0
H981 H 0.48391 0.63346 0.47301 0.0
H982 H 0.50181 0.60679 0.42874 0.0
H983 H 0.51664 0.63776 0.43943 0.0
C984 C 0.82094 0.54106 0.55427 0.0
C985 C 0.80814 0.52134 0.50718 0.0
C986 C 0.84603 0.53795 0.58803 0.0
C987 C 0.85904 0.51455 0.57413 0.0
C988 C 0.84572 0.49411 0.53106 0.0
C989 C 0.82052 0.49773 0.49817 0.0
C990 C 0.8591 0.56018 0.63466 0.0
C991 C 0.85848 0.46865 0.51658 0.0
C992 C 0.93248 0.51643 0.56346 0.0
C993 C 0.93948 0.50878 0.65363 0.0
C994 C 0.90658 0.51824 0.53685 0.0
C995 C 0.88681 0.51194 0.60121 0.0
C996 C 0.89375 0.50386 0.69193 0.0
C997 C 0.91981 0.50255 0.7169 0.0
C998 C 0.90046 0.52669 0.43907 0.0
C999 C 0.87377 0.49707 0.76413 0.0
H1000 H 0.81167 0.55946 0.56083 0.0
H1001 H 0.81108 0.48253 0.46042 0.0
H1002 H 0.8663 0.55433 0.704 0.0
H1003 H 0.87585 0.56631 0.59237 0.0
H1004 H 0.84614 0.57675 0.64372 0.0
H1005 H 0.84508 0.45409 0.48874 0.0
H1006 H 0.87468 0.47087 0.46703 0.0
H1007 H 0.86644 0.46158 0.5833 0.0
H1008 H 0.94728 0.52123 0.51331 0.0
H1009 H 0.9247 0.49656 0.78647 0.0
H1010 H 0.88547 0.54164 0.43953 0.0
H1011 H 0.893 0.51013 0.39967 0.0
H1012 H 0.91753 0.53424 0.40165 0.0
H1013 H 0.86745 0.51475 0.79976 0.0
H1014 H 0.88154 0.48391 0.81765 0.0
H1015 H 0.85674 0.48798 0.73247 0.0
loop_
_geom_bond_atom_site_label_1
_geom_bond_atom_site_label_2
_geom_bond_distance
_geom_bond_site_symmetry_2
_ccdc_geom_bond_type
H0 C3 0.929 . S
H1 C6 0.929 . S
H2 C8 0.930 . S
C3 H0 0.929 . S
C3 C4 1.398 . S
C3 C5 1.396 . S
C4 C3 1.398 . S
C4 C8 1.407 . S
C5 C3 1.396 . S
C5 C6 1.394 . S
C6 H1 0.929 . S
C6 C5 1.394 . S
C6 C7 1.382 . S
C7 C6 1.382 . S
C7 C8 1.392 . S
C7 N9 1.420 . S
C8 H2 0.930 . S
C8 C4 1.407 . S
C8 C7 1.392 . S
N9 C7 1.420 . S
N9 C10 1.244 . S
C10 N9 1.244 . S
H11 C14 0.929 . S
H12 C17 0.929 . S
H13 C19 0.930 . S
C14 H11 0.929 . S
C14 C15 1.395 1_655 S
C14 C16 1.395 1_655 S
C15 C14 1.395 1_455 S
C15 C19 1.413 . S
C16 C14 1.395 1_455 S
C16 C17 1.397 . S
C17 H12 0.929 . S
C17 C16 1.397 . S
C17 C18 1.382 . S
C18 C17 1.382 . S
C18 C19 1.392 . S
C18 N20 1.420 . S
C19 H13 0.930 . S
C19 C15 1.413 . S
C19 C18 1.392 . S
N20 C18 1.420 . S
N20 C21 1.232 1_455 S
C21 N20 1.232 1_655 S
H22 C25 0.929 . S
H23 C28 0.929 . S
H24 C30 0.930 . S
C25 H22 0.929 . S
C25 C26 1.395 1_565 S
C25 C27 1.395 1_565 S
C26 C25 1.395 1_545 S
C26 C30 1.413 . S
C27 C25 1.395 1_545 S
C27 C28 1.397 . S
C28 H23 0.929 . S
C28 C27 1.397 . S
C28 C29 1.382 . S
C29 C28 1.382 . S
C29 C30 1.392 . S
C29 N31 1.420 . S
C30 H24 0.930 . S
C30 C26 1.413 . S
C30 C29 1.392 . S
N31 C29 1.420 . S
N31 C32 1.232 1_545 S
C32 N31 1.232 1_565 S
H33 C36 0.929 . S
H34 C39 0.929 . S
H35 C41 0.930 . S
C36 H33 0.929 . S
C36 C37 1.398 . S
C36 C38 1.396 . S
C37 C36 1.398 . S
C37 C41 1.407 . S
C38 C36 1.396 . S
C38 C39 1.394 . S
C39 H34 0.929 . S
C39 C38 1.394 . S
C39 C40 1.382 . S
C40 C39 1.382 . S
C40 C41 1.392 . S
C40 N42 1.420 . S
C41 H35 0.930 . S
C41 C37 1.407 . S
C41 C40 1.392 . S
N42 C40 1.420 . S
N42 C43 1.244 . S
C43 N42 1.244 . S
H44 C47 0.929 . S
H45 C50 0.929 . S
H46 C52 0.930 . S
C47 H44 0.929 . S
C47 C48 1.398 1_554 S
C47 C49 1.396 . S
C48 C47 1.398 1_556 S
C48 C52 1.407 . S
C49 C47 1.396 . S
C49 C50 1.394 . S
C50 H45 0.929 . S
C50 C49 1.394 . S
C50 C51 1.382 . S
C51 C50 1.382 . S
C51 C52 1.392 1_554 S
C51 N53 1.420 . S
C52 H46 0.930 . S
C52 C48 1.407 . S
C52 C51 1.392 1_556 S
N53 C51 1.420 . S
N53 C54 1.244 . S
C54 N53 1.244 . S
H55 C58 0.929 . S
H56 C61 0.929 . S
H57 C63 0.930 . S
C58 H55 0.929 . S
C58 C59 1.395 1_654 S
C58 C60 1.394 1_655 S
C59 C58 1.395 1_456 S
C59 C63 1.416 . S
C60 C58 1.394 1_455 S
C60 C61 1.398 . S
C61 H56 0.929 . S
C61 C60 1.398 . S
C61 C62 1.382 . S
C62 C61 1.382 . S
C62 C63 1.392 1_554 S
C62 N64 1.420 . S
C63 H57 0.930 . S
C63 C59 1.416 . S
C63 C62 1.392 1_556 S
N64 C62 1.420 . S
N64 C65 1.236 1_455 S
C65 N64 1.236 1_655 S
H66 C69 0.929 . S
H67 C72 0.929 . S
H68 C74 0.930 . S
C69 H66 0.929 . S
C69 C70 1.395 1_564 S
C69 C71 1.394 1_565 S
C70 C69 1.395 1_546 S
C70 C74 1.416 . S
C71 C69 1.394 1_545 S
C71 C72 1.398 . S
C72 H67 0.929 . S
C72 C71 1.398 . S
C72 C73 1.382 . S
C73 C72 1.382 . S
C73 C74 1.392 1_554 S
C73 N75 1.420 . S
C74 H68 0.930 . S
C74 C70 1.416 . S
C74 C73 1.392 1_556 S
N75 C73 1.420 . S
N75 C76 1.237 1_545 S
C76 N75 1.237 1_565 S
H77 C80 0.929 . S
H78 C83 0.929 . S
H79 C85 0.930 . S
C80 H77 0.929 . S
C80 C81 1.398 1_554 S
C80 C82 1.396 . S
C81 C80 1.398 1_556 S
C81 C85 1.407 . S
C82 C80 1.396 . S
C82 C83 1.394 . S
C83 H78 0.929 . S
C83 C82 1.394 . S
C83 C84 1.382 . S
C84 C83 1.382 . S
C84 C85 1.392 1_554 S
C84 N86 1.420 . S
C85 H79 0.930 . S
C85 C81 1.407 . S
C85 C84 1.392 1_556 S
N86 C84 1.420 . S
N86 C87 1.244 . S
C87 N86 1.244 . S
C88 Eu89 2.835 . S
C88 C90 1.500 . S
C88 O108 1.257 . S
C88 O109 1.260 . S
Eu89 C88 2.835 . S
Eu89 O108 2.473 . S
Eu89 O109 2.480 . S
Eu89 O110 2.430 . S
Eu89 O111 2.670 1_545 S
Eu89 O112 2.394 . S
Eu89 O117 2.355 1_655 S
Eu89 O119 2.374 1_545 S
C90 C88 1.500 . S
C90 C91 1.377 . S
C90 C95 1.377 . S
C91 C90 1.377 . S
C91 C92 1.395 . S
C91 H120 0.931 . S
C92 C91 1.395 . S
C92 C93 1.383 . S
C92 H121 0.931 . S
C93 C92 1.383 . S
C93 C94 1.394 . S
C94 C93 1.394 . S
C94 C95 1.378 . S
C94 H122 0.931 1_655 S
C95 C90 1.377 . S
C95 C94 1.378 . S
C95 H123 0.931 1_655 S
C96 O110 1.259 . S
C96 O111 1.270 1_545 S
C97 O112 1.251 1_455 S
C97 O113 1.251 . S
C98 Eu99 2.835 . S
C98 C100 1.500 . S
C98 O114 1.257 . S
C98 O115 1.260 . S
Eu99 C98 2.835 . S
Eu99 O111 2.355 1_455 S
Eu99 O113 2.374 1_565 S
Eu99 O114 2.473 . S
Eu99 O115 2.480 . S
Eu99 O116 2.430 . S
Eu99 O117 2.670 1_565 S
Eu99 O118 2.394 . S
C100 C98 1.500 . S
C100 C101 1.377 . S
C100 C105 1.377 1_556 S
C101 C100 1.377 . S
C101 C102 1.395 1_556 S
C101 H124 0.931 . S
C102 C101 1.395 1_554 S
C102 C103 1.383 . S
C102 H125 0.931 . S
C103 C102 1.383 . S
C103 C104 1.394 . S
C104 C103 1.394 . S
C104 C105 1.378 . S
C104 H126 0.931 1_455 S
C105 C100 1.377 1_554 S
C105 C104 1.378 . S
C105 H127 0.931 1_455 S
C106 O116 1.282 . S
C106 O117 1.253 1_565 S
C107 O118 1.251 1_655 S
C107 O119 1.251 . S
O108 C88 1.257 . S
O108 Eu89 2.473 . S
O109 C88 1.260 . S
O109 Eu89 2.480 . S
O110 Eu89 2.430 . S
O110 C96 1.259 . S
O111 Eu89 2.670 1_565 S
O111 C96 1.270 1_565 S
O111 Eu99 2.355 1_655 S
O112 Eu89 2.394 . S
O112 C97 1.251 1_655 S
O113 C97 1.251 . S
O113 Eu99 2.374 1_545 S
O114 C98 1.257 . S
O114 Eu99 2.473 . S
O115 C98 1.260 . S
O115 Eu99 2.480 . S
O116 Eu99 2.430 . S
O116 C106 1.282 . S
O117 Eu89 2.355 1_455 S
O117 Eu99 2.670 1_545 S
O117 C106 1.253 1_545 S
O118 Eu99 2.394 . S
O118 C107 1.251 1_455 S
O119 Eu89 2.374 1_565 S
O119 C107 1.251 . S
H120 C91 0.931 . S
H121 C92 0.931 . S
H122 C94 0.931 1_455 S
H123 C95 0.931 1_455 S
H124 C101 0.931 . S
H125 C102 0.931 . S
H126 C104 0.931 1_655 S
H127 C105 0.931 1_655 S
C128 Eu129 2.835 . S
C128 C130 1.500 . S
C128 O148 1.257 . S
C128 O149 1.260 . S
Eu129 C128 2.835 . S
Eu129 O148 2.473 . S
Eu129 O149 2.480 . S
Eu129 O150 2.430 . S
Eu129 O151 2.670 . S
Eu129 O152 2.394 . S
Eu129 O157 2.355 1_565 S
Eu129 O159 2.374 . S
C130 C128 1.500 . S
C130 C131 1.377 . S
C130 C135 1.377 . S
C131 C130 1.377 . S
C131 C132 1.395 . S
C131 H160 0.931 . S
C132 C131 1.395 . S
C132 C133 1.383 . S
C132 H161 0.931 . S
C133 C132 1.383 . S
C133 C134 1.394 . S
C134 C133 1.394 . S
C134 C135 1.378 . S
C134 H162 0.931 1_565 S
C135 C130 1.377 . S
C135 C134 1.378 . S
C135 H163 0.931 1_565 S
C136 O150 1.259 . S
C136 O151 1.270 . S
C137 O152 1.251 1_545 S
C137 O153 1.251 . S
C138 Eu139 2.835 . S
C138 C140 1.500 . S
C138 O154 1.257 . S
C138 O155 1.260 . S
Eu139 C138 2.835 . S
Eu139 O151 2.355 1_545 S
Eu139 O153 2.374 . S
Eu139 O154 2.473 . S
Eu139 O155 2.480 . S
Eu139 O156 2.430 . S
Eu139 O157 2.670 . S
Eu139 O158 2.394 . S
C140 C138 1.500 . S
C140 C141 1.377 . S
C140 C145 1.377 1_556 S
C141 C140 1.377 . S
C141 C142 1.395 1_556 S
C141 H164 0.931 . S
C142 C141 1.395 1_554 S
C142 C143 1.383 . S
C142 H165 0.931 . S
C143 C142 1.383 . S
C143 C144 1.394 . S
C144 C143 1.394 . S
C144 C145 1.378 . S
C144 H166 0.931 1_545 S
C145 C140 1.377 1_554 S
C145 C144 1.378 . S
C145 H167 0.931 1_545 S
C146 O156 1.259 . S
C146 O157 1.270 . S
C147 O158 1.251 1_565 S
C147 O159 1.251 . S
O148 C128 1.257 . S
O148 Eu129 2.473 . S
O149 C128 1.260 . S
O149 Eu129 2.480 . S
O150 Eu129 2.430 . S
O150 C136 1.259 . S
O151 Eu129 2.670 . S
O151 C136 1.270 . S
O151 Eu139 2.355 1_565 S
O152 Eu129 2.394 . S
O152 C137 1.251 1_565 S
O153 C137 1.251 . S
O153 Eu139 2.374 . S
O154 C138 1.257 . S
O154 Eu139 2.473 . S
O155 C138 1.260 . S
O155 Eu139 2.480 . S
O156 Eu139 2.430 . S
O156 C146 1.259 . S
O157 Eu129 2.355 1_545 S
O157 Eu139 2.670 . S
O157 C146 1.270 . S
O158 Eu139 2.394 . S
O158 C147 1.251 1_545 S
O159 Eu129 2.374 . S
O159 C147 1.251 . S
H160 C131 0.931 . S
H161 C132 0.931 . S
H162 C134 0.931 1_545 S
H163 C135 0.931 1_545 S
H164 C141 0.931 . S
H165 C142 0.931 . S
H166 C144 0.931 1_565 S
H167 C145 0.931 1_565 S
C168 Eu169 2.835 . S
C168 C170 1.500 . S
C168 O188 1.257 . S
C168 O189 1.260 . S
Eu169 C168 2.835 . S
Eu169 O188 2.473 . S
Eu169 O189 2.480 . S
Eu169 O190 2.430 . S
Eu169 O191 2.670 . S
Eu169 O192 2.394 . S
Eu169 O197 2.355 . S
Eu169 O199 2.374 . S
C170 C168 1.500 . S
C170 C171 1.377 . S
C170 C175 1.377 . S
C171 C170 1.377 . S
C171 C172 1.395 . S
C171 H200 0.931 . S
C172 C171 1.395 . S
C172 C173 1.383 . S
C172 H201 0.931 . S
C173 C172 1.383 . S
C173 C174 1.394 . S
C174 C173 1.394 . S
C174 C175 1.378 . S
C174 H202 0.931 . S
C175 C170 1.377 . S
C175 C174 1.378 . S
C175 H203 0.931 . S
C176 O190 1.259 . S
C176 O191 1.270 . S
C177 O192 1.251 . S
C177 O193 1.251 . S
C178 Eu179 2.835 . S
C178 C180 1.500 . S
C178 O194 1.257 . S
C178 O195 1.260 . S
Eu179 C178 2.835 . S
Eu179 O191 2.355 . S
Eu179 O193 2.374 . S
Eu179 O194 2.473 . S
Eu179 O195 2.480 . S
Eu179 O196 2.430 . S
Eu179 O197 2.670 . S
Eu179 O198 2.394 . S
C180 C178 1.500 . S
C180 C181 1.377 . S
C180 C185 1.377 1_556 S
C181 C180 1.377 . S
C181 C182 1.395 1_556 S
C181 H204 0.931 . S
C182 C181 1.395 1_554 S
C182 C183 1.383 . S
C182 H205 0.931 . S
C183 C182 1.383 . S
C183 C184 1.394 . S
C184 C183 1.394 . S
C184 C185 1.378 . S
C184 H206 0.931 . S
C185 C180 1.377 1_554 S
C185 C184 1.378 . S
C185 H207 0.931 . S
C186 O196 1.259 . S
C186 O197 1.270 . S
C187 O198 1.251 . S
C187 O199 1.251 . S
O188 C168 1.257 . S
O188 Eu169 2.473 . S
O189 C168 1.260 . S
O189 Eu169 2.480 . S
O190 Eu169 2.430 . S
O190 C176 1.259 . S
O191 Eu169 2.670 . S
O191 C176 1.270 . S
O191 Eu179 2.355 . S
O192 Eu169 2.394 . S
O192 C177 1.251 . S
O193 C177 1.251 . S
O193 Eu179 2.374 . S
O194 C178 1.257 . S
O194 Eu179 2.473 . S
O195 C178 1.260 . S
O195 Eu179 2.480 . S
O196 Eu179 2.430 . S
O196 C186 1.259 . S
O197 Eu169 2.355 . S
O197 Eu179 2.670 . S
O197 C186 1.270 . S
O198 Eu179 2.394 . S
O198 C187 1.251 . S
O199 Eu169 2.374 . S
O199 C187 1.251 . S
H200 C171 0.931 . S
H201 C172 0.931 . S
H202 C174 0.931 . S
H203 C175 0.931 . S
H204 C181 0.931 . S
H205 C182 0.931 . S
H206 C184 0.931 . S
H207 C185 0.931 . S
C208 Eu209 2.835 . S
C208 C210 1.500 . S
C208 O228 1.257 . S
C208 O229 1.260 . S
Eu209 C208 2.835 . S
Eu209 O228 2.473 . S
Eu209 O229 2.480 . S
Eu209 O230 2.430 . S
Eu209 O231 2.670 1_455 S
Eu209 O232 2.394 . S
Eu209 O237 2.355 . S
Eu209 O239 2.374 1_455 S
C210 C208 1.500 . S
C210 C211 1.377 . S
C210 C215 1.377 . S
C211 C210 1.377 . S
C211 C212 1.395 . S
C211 H240 0.931 . S
C212 C211 1.395 . S
C212 C213 1.383 . S
C212 H241 0.931 . S
C213 C212 1.383 . S
C213 C214 1.394 . S
C214 C213 1.394 . S
C214 C215 1.378 . S
C214 H242 0.931 . S
C215 C210 1.377 . S
C215 C214 1.378 . S
C215 H243 0.931 . S
C216 O230 1.269 . S
C216 O231 1.262 1_455 S
C217 O232 1.251 . S
C217 O233 1.251 . S
C218 Eu219 2.835 . S
C218 C220 1.500 . S
C218 O234 1.257 . S
C218 O235 1.260 . S
Eu219 C218 2.835 . S
Eu219 O231 2.355 . S
Eu219 O233 2.374 1_655 S
Eu219 O234 2.473 . S
Eu219 O235 2.480 . S
Eu219 O236 2.430 . S
Eu219 O237 2.670 1_655 S
Eu219 O238 2.394 . S
C220 C218 1.500 . S
C220 C221 1.377 . S
C220 C225 1.377 1_556 S
C221 C220 1.377 . S
C221 C222 1.395 1_556 S
C221 H244 0.931 . S
C222 C221 1.395 1_554 S
C222 C223 1.383 . S
C222 H245 0.931 . S
C223 C222 1.383 . S
C223 C224 1.394 . S
C224 C223 1.394 . S
C224 C225 1.378 . S
C224 H246 0.931 . S
C225 C220 1.377 1_554 S
C225 C224 1.378 . S
C225 H247 0.931 . S
C226 O236 1.264 . S
C226 O237 1.266 1_655 S
C227 O238 1.251 . S
C227 O239 1.251 . S
O228 C208 1.257 . S
O228 Eu209 2.473 . S
O229 C208 1.260 . S
O229 Eu209 2.480 . S
O230 Eu209 2.430 . S
O230 C216 1.269 . S
O231 Eu209 2.670 1_655 S
O231 C216 1.262 1_655 S
O231 Eu219 2.355 . S
O232 Eu209 2.394 . S
O232 C217 1.251 . S
O233 C217 1.251 . S
O233 Eu219 2.374 1_455 S
O234 C218 1.257 . S
O234 Eu219 2.473 . S
O235 C218 1.260 . S
O235 Eu219 2.480 . S
O236 Eu219 2.430 . S
O236 C226 1.264 . S
O237 Eu209 2.355 . S
O237 Eu219 2.670 1_455 S
O237 C226 1.266 1_455 S
O238 Eu219 2.394 . S
O238 C227 1.251 . S
O239 Eu209 2.374 1_655 S
O239 C227 1.251 . S
H240 C211 0.931 . S
H241 C212 0.931 . S
H242 C214 0.931 . S
H243 C215 0.931 . S
H244 C221 0.931 . S
H245 C222 0.931 . S
H246 C224 0.931 . S
H247 C225 0.931 . S
C248 C249 1.391 . S
C248 C250 1.394 . S
C248 H264 0.931 . S
C249 C248 1.391 . S
C249 C253 1.376 . S
C250 C248 1.394 . S
C250 C251 1.369 . S
C250 C254 1.531 . S
C251 C250 1.369 . S
C251 C252 1.410 . S
C251 C259 1.503 . S
C252 C251 1.410 . S
C252 C253 1.392 . S
C252 C255 1.511 . S
C253 C249 1.376 . S
C253 C252 1.392 . S
C253 H265 0.929 . S
C254 C250 1.531 . S
C254 H266 0.960 . S
C254 H267 0.962 1_545 S
C254 H268 0.960 . S
C255 C252 1.511 . S
C255 H269 0.961 . S
C255 H270 0.961 . S
C255 H271 0.961 . S
C256 C257 1.370 1_565 S
C256 C258 1.363 . S
C256 H272 0.931 . S
C257 C256 1.370 1_545 S
C257 C261 1.408 . S
C258 C256 1.363 . S
C258 C259 1.370 1_565 S
C258 C262 1.524 . S
C259 C251 1.503 . S
C259 C258 1.370 1_545 S
C259 C260 1.403 . S
C260 C259 1.403 . S
C260 C261 1.404 . S
C260 C263 1.539 . S
C261 C257 1.408 . S
C261 C260 1.404 . S
C261 H273 0.930 . S
C262 C258 1.524 . S
C262 H274 0.956 . S
C262 H275 0.961 . S
C262 H276 0.961 . S
C263 C260 1.539 . S
C263 H277 0.958 . S
C263 H278 0.961 . S
C263 H279 0.960 . S
H264 C248 0.931 . S
H265 C253 0.929 . S
H266 C254 0.960 . S
H267 C254 0.962 1_565 S
H268 C254 0.960 . S
H269 C255 0.961 . S
H270 C255 0.961 . S
H271 C255 0.961 . S
H272 C256 0.931 . S
H273 C261 0.930 . S
H274 C262 0.956 . S
H275 C262 0.961 . S
H276 C262 0.961 . S
H277 C263 0.958 . S
H278 C263 0.961 . S
H279 C263 0.960 . S
C280 C281 1.391 . S
C280 C282 1.394 . S
C280 H296 0.931 . S
C281 C280 1.391 . S
C281 C285 1.376 . S
C282 C280 1.394 . S
C282 C283 1.369 . S
C282 C286 1.531 . S
C283 C282 1.369 . S
C283 C284 1.410 . S
C283 C291 1.503 . S
C284 C283 1.410 . S
C284 C285 1.392 . S
C284 C287 1.511 . S
C285 C281 1.376 . S
C285 C284 1.392 . S
C285 H297 0.929 . S
C286 C282 1.531 . S
C286 H298 0.960 . S
C286 H299 0.962 . S
C286 H300 0.960 . S
C287 C284 1.511 . S
C287 H301 0.961 . S
C287 H302 0.961 . S
C287 H303 0.961 . S
C288 C289 1.370 . S
C288 C290 1.363 . S
C288 H304 0.931 . S
C289 C288 1.370 . S
C289 C293 1.408 . S
C290 C288 1.363 . S
C290 C291 1.370 . S
C290 C294 1.524 . S
C291 C283 1.503 . S
C291 C290 1.370 . S
C291 C292 1.403 . S
C292 C291 1.403 . S
C292 C293 1.404 . S
C292 C295 1.539 . S
C293 C289 1.408 . S
C293 C292 1.404 . S
C293 H305 0.930 . S
C294 C290 1.524 . S
C294 H306 0.956 . S
C294 H307 0.961 . S
C294 H308 0.961 . S
C295 C292 1.539 . S
C295 H309 0.958 . S
C295 H310 0.961 . S
C295 H311 0.960 . S
H296 C280 0.931 . S
H297 C285 0.929 . S
H298 C286 0.960 . S
H299 C286 0.962 . S
H300 C286 0.960 . S
H301 C287 0.961 . S
H302 C287 0.961 . S
H303 C287 0.961 . S
H304 C288 0.931 . S
H305 C293 0.930 . S
H306 C294 0.956 . S
H307 C294 0.961 . S
H308 C294 0.961 . S
H309 C295 0.958 . S
H310 C295 0.961 . S
H311 C295 0.960 . S
C312 C313 1.391 . S
C312 C314 1.394 . S
C312 H328 0.931 . S
C313 C312 1.391 . S
C313 C317 1.376 . S
C314 C312 1.394 . S
C314 C315 1.369 . S
C314 C318 1.531 . S
C315 C314 1.369 . S
C315 C316 1.410 . S
C315 C323 1.503 . S
C316 C315 1.410 . S
C316 C317 1.392 . S
C316 C319 1.511 . S
C317 C313 1.376 . S
C317 C316 1.392 . S
C317 H329 0.929 . S
C318 C314 1.531 . S
C318 H330 0.960 . S
C318 H331 0.962 . S
C318 H332 0.960 . S
C319 C316 1.511 . S
C319 H333 0.961 . S
C319 H334 0.961 . S
C319 H335 0.961 . S
C320 C321 1.370 . S
C320 C322 1.363 . S
C320 H336 0.931 . S
C321 C320 1.370 . S
C321 C325 1.408 . S
C322 C320 1.363 . S
C322 C323 1.370 . S
C322 C326 1.524 . S
C323 C315 1.503 . S
C323 C322 1.370 . S
C323 C324 1.403 . S
C324 C323 1.403 . S
C324 C325 1.404 . S
C324 C327 1.539 . S
C325 C321 1.408 . S
C325 C324 1.404 . S
C325 H337 0.930 . S
C326 C322 1.524 . S
C326 H338 0.956 . S
C326 H339 0.961 . S
C326 H340 0.961 . S
C327 C324 1.539 . S
C327 H341 0.958 . S
C327 H342 0.961 . S
C327 H343 0.960 . S
H328 C312 0.931 . S
H329 C317 0.929 . S
H330 C318 0.960 . S
H331 C318 0.962 . S
H332 C318 0.960 . S
H333 C319 0.961 . S
H334 C319 0.961 . S
H335 C319 0.961 . S
H336 C320 0.931 . S
H337 C325 0.930 . S
H338 C326 0.956 . S
H339 C326 0.961 . S
H340 C326 0.961 . S
H341 C327 0.958 . S
H342 C327 0.961 . S
H343 C327 0.960 . S
C344 C345 1.391 . S
C344 C346 1.394 . S
C344 H360 0.931 . S
C345 C344 1.391 . S
C345 C349 1.376 1_455 S
C346 C344 1.394 . S
C346 C347 1.369 . S
C346 C350 1.531 . S
C347 C346 1.369 . S
C347 C348 1.410 1_455 S
C347 C355 1.503 . S
C348 C347 1.410 1_655 S
C348 C349 1.392 . S
C348 C351 1.511 . S
C349 C345 1.376 1_655 S
C349 C348 1.392 . S
C349 H361 0.929 . S
C350 C346 1.531 . S
C350 H362 0.960 . S
C350 H363 0.962 . S
C350 H364 0.960 . S
C351 C348 1.511 . S
C351 H365 0.961 . S
C351 H366 0.961 . S
C351 H367 0.961 . S
C352 C353 1.370 1_655 S
C352 C354 1.363 . S
C352 H368 0.931 . S
C353 C352 1.370 1_455 S
C353 C357 1.408 . S
C354 C352 1.363 . S
C354 C355 1.370 1_655 S
C354 C358 1.524 . S
C355 C347 1.503 . S
C355 C354 1.370 1_455 S
C355 C356 1.403 . S
C356 C355 1.403 . S
C356 C357 1.404 . S
C356 C359 1.539 . S
C357 C353 1.408 . S
C357 C356 1.404 . S
C357 H369 0.930 . S
C358 C354 1.524 . S
C358 H370 0.956 . S
C358 H371 0.961 . S
C358 H372 0.961 . S
C359 C356 1.539 . S
C359 H373 0.958 . S
C359 H374 0.961 . S
C359 H375 0.960 . S
H360 C344 0.931 . S
H361 C349 0.929 . S
H362 C350 0.960 . S
H363 C350 0.962 . S
H364 C350 0.960 . S
H365 C351 0.961 . S
H366 C351 0.961 . S
H367 C351 0.961 . S
H368 C352 0.931 . S
H369 C357 0.930 . S
H370 C358 0.956 . S
H371 C358 0.961 . S
H372 C358 0.961 . S
H373 C359 0.958 . S
H374 C359 0.961 . S
H375 C359 0.960 . S
C376 C377 1.391 1_545 S
C376 C378 1.393 1_545 S
C376 H392 0.931 . S
C377 C376 1.391 1_565 S
C377 C381 1.376 . S
C378 C376 1.393 1_565 S
C378 C379 1.371 . S
C378 C382 1.529 1_565 S
C379 C378 1.371 . S
C379 C380 1.410 . S
C379 C387 1.503 . S
C380 C379 1.410 . S
C380 C381 1.392 . S
C380 C383 1.511 . S
C381 C377 1.376 . S
C381 C380 1.392 . S
C381 H393 0.929 . S
C382 C378 1.529 1_545 S
C382 H394 0.960 1_545 S
C382 H395 0.962 . S
C382 H396 0.960 1_545 S
C383 C380 1.511 . S
C383 H397 0.961 . S
C383 H398 0.961 . S
C383 H399 0.961 . S
C384 C385 1.370 1_545 S
C384 C386 1.363 1_556 S
C384 H400 0.931 . S
C385 C384 1.370 1_565 S
C385 C389 1.408 . S
C386 C384 1.363 1_554 S
C386 C387 1.370 1_545 S
C386 C390 1.524 . S
C387 C379 1.503 . S
C387 C386 1.370 1_565 S
C387 C388 1.403 . S
C388 C387 1.403 . S
C388 C389 1.404 1_554 S
C388 C391 1.539 . S
C389 C385 1.408 . S
C389 C388 1.404 1_556 S
C389 H401 0.930 . S
C390 C386 1.524 . S
C390 H402 0.956 . S
C390 H403 0.961 . S
C390 H404 0.961 . S
C391 C388 1.539 . S
C391 H405 0.958 . S
C391 H406 0.961 . S
C391 H407 0.960 . S
H392 C376 0.931 . S
H393 C381 0.929 . S
H394 C382 0.960 1_565 S
H395 C382 0.962 . S
H396 C382 0.960 1_565 S
H397 C383 0.961 . S
H398 C383 0.961 . S
H399 C383 0.961 . S
H400 C384 0.931 . S
H401 C389 0.930 . S
H402 C390 0.956 . S
H403 C390 0.961 . S
H404 C390 0.961 . S
H405 C391 0.958 . S
H406 C391 0.961 . S
H407 C391 0.960 . S
C408 C409 1.391 . S
C408 C410 1.394 . S
C408 H424 0.931 . S
C409 C408 1.391 . S
C409 C413 1.376 . S
C410 C408 1.394 . S
C410 C411 1.369 . S
C410 C414 1.531 . S
C411 C410 1.369 . S
C411 C412 1.410 . S
C411 C419 1.503 . S
C412 C411 1.410 . S
C412 C413 1.392 . S
C412 C415 1.511 . S
C413 C409 1.376 . S
C413 C412 1.392 . S
C413 H425 0.929 . S
C414 C410 1.531 . S
C414 H426 0.960 . S
C414 H427 0.962 . S
C414 H428 0.960 . S
C415 C412 1.511 . S
C415 H429 0.961 . S
C415 H430 0.961 . S
C415 H431 0.961 . S
C416 C417 1.370 . S
C416 C418 1.363 1_556 S
C416 H432 0.931 . S
C417 C416 1.370 . S
C417 C421 1.408 1_556 S
C418 C416 1.363 1_554 S
C418 C419 1.370 . S
C418 C422 1.524 1_554 S
C419 C411 1.503 . S
C419 C418 1.370 . S
C419 C420 1.403 . S
C420 C419 1.403 . S
C420 C421 1.404 . S
C420 C423 1.539 . S
C421 C417 1.408 1_554 S
C421 C420 1.404 . S
C421 H433 0.930 . S
C422 C418 1.524 1_556 S
C422 H434 0.956 1_556 S
C422 H435 0.961 1_556 S
C422 H436 0.961 . S
C423 C420 1.539 . S
C423 H437 0.958 . S
C423 H438 0.961 . S
C423 H439 0.960 . S
H424 C408 0.931 . S
H425 C413 0.929 . S
H426 C414 0.960 . S
H427 C414 0.962 . S
H428 C414 0.960 . S
H429 C415 0.961 . S
H430 C415 0.961 . S
H431 C415 0.961 . S
H432 C416 0.931 . S
H433 C421 0.930 . S
H434 C422 0.956 1_554 S
H435 C422 0.961 1_554 S
H436 C422 0.961 . S
H437 C423 0.958 . S
H438 C423 0.961 . S
H439 C423 0.960 . S
C440 C441 1.391 . S
C440 C442 1.394 . S
C440 H456 0.931 . S
C441 C440 1.391 . S
C441 C445 1.376 . S
C442 C440 1.394 . S
C442 C443 1.369 . S
C442 C446 1.531 . S
C443 C442 1.369 . S
C443 C444 1.410 . S
C443 C451 1.503 . S
C444 C443 1.410 . S
C444 C445 1.392 . S
C444 C447 1.511 . S
C445 C441 1.376 . S
C445 C444 1.392 . S
C445 H457 0.929 . S
C446 C442 1.531 . S
C446 H458 0.960 . S
C446 H459 0.962 . S
C446 H460 0.960 . S
C447 C444 1.511 . S
C447 H461 0.961 . S
C447 H462 0.961 . S
C447 H463 0.961 . S
C448 C449 1.370 . S
C448 C450 1.363 1_556 S
C448 H464 0.931 . S
C449 C448 1.370 . S
C449 C453 1.408 . S
C450 C448 1.363 1_554 S
C450 C451 1.370 . S
C450 C454 1.524 . S
C451 C443 1.503 . S
C451 C450 1.370 . S
C451 C452 1.403 . S
C452 C451 1.403 . S
C452 C453 1.404 1_554 S
C452 C455 1.539 . S
C453 C449 1.408 . S
C453 C452 1.404 1_556 S
C453 H465 0.930 . S
C454 C450 1.524 . S
C454 H466 0.956 . S
C454 H467 0.961 . S
C454 H468 0.961 . S
C455 C452 1.539 . S
C455 H469 0.958 . S
C455 H470 0.961 1_554 S
C455 H471 0.960 . S
H456 C440 0.931 . S
H457 C445 0.929 . S
H458 C446 0.960 . S
H459 C446 0.962 . S
H460 C446 0.960 . S
H461 C447 0.961 . S
H462 C447 0.961 . S
H463 C447 0.961 . S
H464 C448 0.931 . S
H465 C453 0.930 . S
H466 C454 0.956 . S
H467 C454 0.961 . S
H468 C454 0.961 . S
H469 C455 0.958 . S
H470 C455 0.961 1_556 S
H471 C455 0.960 . S
C472 C473 1.391 1_655 S
C472 C474 1.394 . S
C472 H488 0.931 . S
C473 C472 1.391 1_455 S
C473 C477 1.376 . S
C474 C472 1.394 . S
C474 C475 1.369 1_655 S
C474 C478 1.531 . S
C475 C474 1.369 1_455 S
C475 C476 1.410 . S
C475 C483 1.503 . S
C476 C475 1.410 . S
C476 C477 1.392 . S
C476 C479 1.511 . S
C477 C473 1.376 . S
C477 C476 1.392 . S
C477 H489 0.929 . S
C478 C474 1.531 . S
C478 H490 0.960 . S
C478 H491 0.962 . S
C478 H492 0.960 . S
C479 C476 1.511 . S
C479 H493 0.961 . S
C479 H494 0.961 . S
C479 H495 0.961 . S
C480 C481 1.373 1_554 S
C480 C482 1.363 . S
C480 H496 0.931 . S
C481 C480 1.373 1_556 S
C481 C485 1.405 1_655 S
C482 C480 1.363 . S
C482 C483 1.370 1_655 S
C482 C486 1.524 . S
C483 C475 1.503 . S
C483 C482 1.370 1_455 S
C483 C484 1.403 1_554 S
C484 C483 1.403 1_556 S
C484 C485 1.404 . S
C484 C487 1.539 . S
C485 C481 1.405 1_455 S
C485 C484 1.404 . S
C485 H497 0.930 . S
C486 C482 1.524 . S
C486 H498 0.956 . S
C486 H499 0.961 . S
C486 H500 0.961 . S
C487 C484 1.539 . S
C487 H501 0.958 . S
C487 H502 0.961 . S
C487 H503 0.960 1_556 S
H488 C472 0.931 . S
H489 C477 0.929 . S
H490 C478 0.960 . S
H491 C478 0.962 . S
H492 C478 0.960 . S
H493 C479 0.961 . S
H494 C479 0.961 . S
H495 C479 0.961 . S
H496 C480 0.931 . S
H497 C485 0.930 . S
H498 C486 0.956 . S
H499 C486 0.961 . S
H500 C486 0.961 . S
H501 C487 0.958 . S
H502 C487 0.961 . S
H503 C487 0.960 1_554 S
C504 C505 1.391 . S
C504 C506 1.394 . S
C504 H520 0.931 . S
C505 C504 1.391 . S
C505 C509 1.376 1_455 S
C506 C504 1.394 . S
C506 C507 1.369 1_455 S
C506 C510 1.531 . S
C507 C506 1.369 1_655 S
C507 C508 1.410 . S
C507 C515 1.503 . S
C508 C507 1.410 . S
C508 C509 1.392 . S
C508 C511 1.511 . S
C509 C505 1.376 1_655 S
C509 C508 1.392 . S
C509 H521 0.929 . S
C510 C506 1.531 . S
C510 H522 0.960 . S
C510 H523 0.962 . S
C510 H524 0.960 . S
C511 C508 1.511 . S
C511 H525 0.961 . S
C511 H526 0.961 . S
C511 H527 0.961 . S
C512 C513 1.370 . S
C512 C514 1.363 . S
C512 H528 0.931 . S
C513 C512 1.370 . S
C513 C517 1.408 . S
C514 C512 1.363 . S
C514 C515 1.370 . S
C514 C518 1.524 . S
C515 C507 1.503 . S
C515 C514 1.370 . S
C515 C516 1.403 . S
C516 C515 1.403 . S
C516 C517 1.404 . S
C516 C519 1.539 . S
C517 C513 1.408 . S
C517 C516 1.404 . S
C517 H529 0.930 . S
C518 C514 1.524 . S
C518 H530 0.956 1_655 S
C518 H531 0.961 . S
C518 H532 0.961 . S
C519 C516 1.539 . S
C519 H533 0.958 . S
C519 H534 0.961 . S
C519 H535 0.960 . S
H520 C504 0.931 . S
H521 C509 0.929 . S
H522 C510 0.960 . S
H523 C510 0.962 . S
H524 C510 0.960 . S
H525 C511 0.961 . S
H526 C511 0.961 . S
H527 C511 0.961 . S
H528 C512 0.931 . S
H529 C517 0.930 . S
H530 C518 0.956 1_455 S
H531 C518 0.961 . S
H532 C518 0.961 . S
H533 C519 0.958 . S
H534 C519 0.961 . S
H535 C519 0.960 . S
C536 C537 1.391 . S
C536 C538 1.394 . S
C536 H552 0.931 . S
C537 C536 1.391 . S
C537 C541 1.376 1_545 S
C538 C536 1.394 . S
C538 C539 1.369 1_545 S
C538 C542 1.531 . S
C539 C538 1.369 1_565 S
C539 C540 1.410 . S
C539 C547 1.503 . S
C540 C539 1.410 . S
C540 C541 1.392 . S
C540 C543 1.511 . S
C541 C537 1.376 1_565 S
C541 C540 1.392 . S
C541 H553 0.929 . S
C542 C538 1.531 . S
C542 H554 0.960 . S
C542 H555 0.962 1_545 S
C542 H556 0.960 . S
C543 C540 1.511 . S
C543 H557 0.961 . S
C543 H558 0.961 . S
C543 H559 0.961 . S
C544 C545 1.370 . S
C544 C546 1.363 . S
C544 H560 0.931 . S
C545 C544 1.370 . S
C545 C549 1.408 . S
C546 C544 1.363 . S
C546 C547 1.370 . S
C546 C550 1.524 . S
C547 C539 1.503 . S
C547 C546 1.370 . S
C547 C548 1.403 1_565 S
C548 C547 1.403 1_545 S
C548 C549 1.404 1_545 S
C548 C551 1.539 . S
C549 C545 1.408 . S
C549 C548 1.404 1_565 S
C549 H561 0.930 1_565 S
C550 C546 1.524 . S
C550 H562 0.956 . S
C550 H563 0.961 . S
C550 H564 0.961 . S
C551 C548 1.539 . S
C551 H565 0.958 . S
C551 H566 0.961 . S
C551 H567 0.960 . S
H552 C536 0.931 . S
H553 C541 0.929 . S
H554 C542 0.960 . S
H555 C542 0.962 1_565 S
H556 C542 0.960 . S
H557 C543 0.961 . S
H558 C543 0.961 . S
H559 C543 0.961 . S
H560 C544 0.931 . S
H561 C549 0.930 1_545 S
H562 C550 0.956 . S
H563 C550 0.961 . S
H564 C550 0.961 . S
H565 C551 0.958 . S
H566 C551 0.961 . S
H567 C551 0.960 . S
C568 C569 1.391 . S
C568 C570 1.394 . S
C568 H584 0.931 . S
C569 C568 1.391 . S
C569 C573 1.376 . S
C570 C568 1.394 . S
C570 C571 1.369 . S
C570 C574 1.531 . S
C571 C570 1.369 . S
C571 C572 1.410 . S
C571 C579 1.503 . S
C572 C571 1.410 . S
C572 C573 1.392 . S
C572 C575 1.511 . S
C573 C569 1.376 . S
C573 C572 1.392 . S
C573 H585 0.929 . S
C574 C570 1.531 . S
C574 H586 0.960 . S
C574 H587 0.962 . S
C574 H588 0.960 . S
C575 C572 1.511 . S
C575 H589 0.961 . S
C575 H590 0.961 . S
C575 H591 0.961 . S
C576 C577 1.370 . S
C576 C578 1.363 . S
C576 H592 0.931 . S
C577 C576 1.370 . S
C577 C581 1.408 . S
C578 C576 1.363 . S
C578 C579 1.370 . S
C578 C582 1.524 . S
C579 C571 1.503 . S
C579 C578 1.370 . S
C579 C580 1.403 . S
C580 C579 1.403 . S
C580 C581 1.404 . S
C580 C583 1.539 . S
C581 C577 1.408 . S
C581 C580 1.404 . S
C581 H593 0.930 . S
C582 C578 1.524 . S
C582 H594 0.956 . S
C582 H595 0.961 . S
C582 H596 0.961 . S
C583 C580 1.539 . S
C583 H597 0.958 . S
C583 H598 0.961 . S
C583 H599 0.960 . S
H584 C568 0.931 . S
H585 C573 0.929 . S
H586 C574 0.960 . S
H587 C574 0.962 . S
H588 C574 0.960 . S
H589 C575 0.961 . S
H590 C575 0.961 . S
H591 C575 0.961 . S
H592 C576 0.931 . S
H593 C581 0.930 . S
H594 C582 0.956 . S
H595 C582 0.961 . S
H596 C582 0.961 . S
H597 C583 0.958 . S
H598 C583 0.961 . S
H599 C583 0.960 . S
C600 C601 1.391 . S
C600 C602 1.394 . S
C600 H616 0.931 . S
C601 C600 1.391 . S
C601 C605 1.376 . S
C602 C600 1.394 . S
C602 C603 1.369 . S
C602 C606 1.531 . S
C603 C602 1.369 . S
C603 C604 1.410 . S
C603 C611 1.503 . S
C604 C603 1.410 . S
C604 C605 1.392 . S
C604 C607 1.511 . S
C605 C601 1.376 . S
C605 C604 1.392 . S
C605 H617 0.929 . S
C606 C602 1.531 . S
C606 H618 0.960 . S
C606 H619 0.962 . S
C606 H620 0.960 . S
C607 C604 1.511 . S
C607 H621 0.961 . S
C607 H622 0.961 . S
C607 H623 0.961 . S
C608 C609 1.370 . S
C608 C610 1.363 . S
C608 H624 0.931 . S
C609 C608 1.370 . S
C609 C613 1.408 . S
C610 C608 1.363 . S
C610 C611 1.370 . S
C610 C614 1.524 . S
C611 C603 1.503 . S
C611 C610 1.370 . S
C611 C612 1.403 . S
C612 C611 1.403 . S
C612 C613 1.404 . S
C612 C615 1.539 . S
C613 C609 1.408 . S
C613 C612 1.404 . S
C613 H625 0.930 . S
C614 C610 1.524 . S
C614 H626 0.956 . S
C614 H627 0.961 . S
C614 H628 0.961 . S
C615 C612 1.539 . S
C615 H629 0.958 . S
C615 H630 0.961 . S
C615 H631 0.960 . S
H616 C600 0.931 . S
H617 C605 0.929 . S
H618 C606 0.960 . S
H619 C606 0.962 . S
H620 C606 0.960 . S
H621 C607 0.961 . S
H622 C607 0.961 . S
H623 C607 0.961 . S
H624 C608 0.931 . S
H625 C613 0.930 . S
H626 C614 0.956 . S
H627 C614 0.961 . S
H628 C614 0.961 . S
H629 C615 0.958 . S
H630 C615 0.961 . S
H631 C615 0.960 . S
C632 C633 1.391 1_455 S
C632 C634 1.394 . S
C632 H648 0.931 . S
C633 C632 1.391 1_655 S
C633 C637 1.376 . S
C634 C632 1.394 . S
C634 C635 1.369 . S
C634 C638 1.531 . S
C635 C634 1.369 . S
C635 C636 1.410 1_455 S
C635 C643 1.503 . S
C636 C635 1.410 1_655 S
C636 C637 1.392 . S
C636 C639 1.511 . S
C637 C633 1.376 . S
C637 C636 1.392 . S
C637 H649 0.929 . S
C638 C634 1.531 . S
C638 H650 0.960 . S
C638 H651 0.962 . S
C638 H652 0.960 . S
C639 C636 1.511 . S
C639 H653 0.961 . S
C639 H654 0.961 . S
C639 H655 0.961 . S
C640 C641 1.370 . S
C640 C642 1.363 . S
C640 H656 0.931 . S
C641 C640 1.370 . S
C641 C645 1.408 . S
C642 C640 1.363 . S
C642 C643 1.370 . S
C642 C646 1.524 . S
C643 C635 1.503 . S
C643 C642 1.370 . S
C643 C644 1.403 . S
C644 C643 1.403 . S
C644 C645 1.404 . S
C644 C647 1.539 1_455 S
C645 C641 1.408 . S
C645 C644 1.404 . S
C645 H657 0.930 1_554 S
C646 C642 1.524 . S
C646 H658 0.956 . S
C646 H659 0.961 . S
C646 H660 0.961 . S
C647 C644 1.539 1_655 S
C647 H661 0.958 . S
C647 H662 0.961 . S
C647 H663 0.960 . S
H648 C632 0.931 . S
H649 C637 0.929 . S
H650 C638 0.960 . S
H651 C638 0.962 . S
H652 C638 0.960 . S
H653 C639 0.961 . S
H654 C639 0.961 . S
H655 C639 0.961 . S
H656 C640 0.931 . S
H657 C645 0.930 1_556 S
H658 C646 0.956 . S
H659 C646 0.961 . S
H660 C646 0.961 . S
H661 C647 0.958 . S
H662 C647 0.961 . S
H663 C647 0.960 . S
C664 C665 1.390 1_565 S
C664 C666 1.394 . S
C664 H680 0.931 . S
C665 C664 1.390 1_545 S
C665 C669 1.378 . S
C666 C664 1.394 . S
C666 C667 1.369 1_565 S
C666 C670 1.531 . S
C667 C666 1.369 1_545 S
C667 C668 1.410 . S
C667 C675 1.503 . S
C668 C667 1.410 . S
C668 C669 1.392 . S
C668 C671 1.511 . S
C669 C665 1.378 . S
C669 C668 1.392 . S
C669 H681 0.929 . S
C670 C666 1.531 . S
C670 H682 0.960 . S
C670 H683 0.962 . S
C670 H684 0.960 . S
C671 C668 1.511 . S
C671 H685 0.961 . S
C671 H686 0.961 . S
C671 H687 0.961 . S
C672 C673 1.370 . S
C672 C674 1.363 . S
C672 H688 0.931 . S
C673 C672 1.370 . S
C673 C677 1.408 . S
C674 C672 1.363 . S
C674 C675 1.370 . S
C674 C678 1.524 1_545 S
C675 C667 1.503 . S
C675 C674 1.370 . S
C675 C676 1.403 . S
C676 C675 1.403 . S
C676 C677 1.404 . S
C676 C679 1.539 . S
C677 C673 1.408 . S
C677 C676 1.404 . S
C677 H689 0.930 . S
C678 C674 1.524 1_565 S
C678 H690 0.956 . S
C678 H691 0.961 . S
C678 H692 0.961 . S
C679 C676 1.539 . S
C679 H693 0.958 . S
C679 H694 0.961 . S
C679 H695 0.960 . S
H680 C664 0.931 . S
H681 C669 0.929 . S
H682 C670 0.960 . S
H683 C670 0.962 . S
H684 C670 0.960 . S
H685 C671 0.961 . S
H686 C671 0.961 . S
H687 C671 0.961 . S
H688 C672 0.931 . S
H689 C677 0.930 . S
H690 C678 0.956 . S
H691 C678 0.961 . S
H692 C678 0.961 . S
H693 C679 0.958 . S
H694 C679 0.961 . S
H695 C679 0.960 . S
C696 C697 1.391 . S
C696 C698 1.394 . S
C696 H712 0.931 . S
C697 C696 1.391 . S
C697 C701 1.376 . S
C698 C696 1.394 . S
C698 C699 1.369 . S
C698 C702 1.531 . S
C699 C698 1.369 . S
C699 C700 1.410 . S
C699 C707 1.503 . S
C700 C699 1.410 . S
C700 C701 1.392 . S
C700 C703 1.511 . S
C701 C697 1.376 . S
C701 C700 1.392 . S
C701 H713 0.929 . S
C702 C698 1.531 . S
C702 H714 0.960 . S
C702 H715 0.962 . S
C702 H716 0.960 . S
C703 C700 1.511 . S
C703 H717 0.961 . S
C703 H718 0.961 . S
C703 H719 0.961 . S
C704 C705 1.370 . S
C704 C706 1.363 . S
C704 H720 0.931 . S
C705 C704 1.370 . S
C705 C709 1.408 . S
C706 C704 1.363 . S
C706 C707 1.370 . S
C706 C710 1.524 . S
C707 C699 1.503 . S
C707 C706 1.370 . S
C707 C708 1.403 . S
C708 C707 1.403 . S
C708 C709 1.404 . S
C708 C711 1.539 . S
C709 C705 1.408 . S
C709 C708 1.404 . S
C709 H721 0.930 . S
C710 C706 1.524 . S
C710 H722 0.956 . S
C710 H723 0.961 . S
C710 H724 0.961 . S
C711 C708 1.539 . S
C711 H725 0.958 . S
C711 H726 0.961 . S
C711 H727 0.960 . S
H712 C696 0.931 . S
H713 C701 0.929 . S
H714 C702 0.960 . S
H715 C702 0.962 . S
H716 C702 0.960 . S
H717 C703 0.961 . S
H718 C703 0.961 . S
H719 C703 0.961 . S
H720 C704 0.931 . S
H721 C709 0.930 . S
H722 C710 0.956 . S
H723 C710 0.961 . S
H724 C710 0.961 . S
H725 C711 0.958 . S
H726 C711 0.961 . S
H727 C711 0.960 . S
C728 C729 1.391 . S
C728 C730 1.394 . S
C728 H744 0.931 . S
C729 C728 1.391 . S
C729 C733 1.376 . S
C730 C728 1.394 . S
C730 C731 1.369 . S
C730 C734 1.531 . S
C731 C730 1.369 . S
C731 C732 1.410 . S
C731 C739 1.503 . S
C732 C731 1.410 . S
C732 C733 1.392 . S
C732 C735 1.511 . S
C733 C729 1.376 . S
C733 C732 1.392 . S
C733 H745 0.929 . S
C734 C730 1.531 . S
C734 H746 0.960 . S
C734 H747 0.962 . S
C734 H748 0.960 . S
C735 C732 1.511 . S
C735 H749 0.961 . S
C735 H750 0.961 . S
C735 H751 0.961 . S
C736 C737 1.370 . S
C736 C738 1.363 . S
C736 H752 0.931 . S
C737 C736 1.370 . S
C737 C741 1.408 . S
C738 C736 1.363 . S
C738 C739 1.370 . S
C738 C742 1.524 . S
C739 C731 1.503 . S
C739 C738 1.370 . S
C739 C740 1.403 . S
C740 C739 1.403 . S
C740 C741 1.404 . S
C740 C743 1.539 . S
C741 C737 1.408 . S
C741 C740 1.404 . S
C741 H753 0.930 . S
C742 C738 1.524 . S
C742 H754 0.956 . S
C742 H755 0.961 . S
C742 H756 0.961 . S
C743 C740 1.539 . S
C743 H757 0.958 . S
C743 H758 0.961 . S
C743 H759 0.960 . S
H744 C728 0.931 . S
H745 C733 0.929 . S
H746 C734 0.960 . S
H747 C734 0.962 . S
H748 C734 0.960 . S
H749 C735 0.961 . S
H750 C735 0.961 . S
H751 C735 0.961 . S
H752 C736 0.931 . S
H753 C741 0.930 . S
H754 C742 0.956 . S
H755 C742 0.961 . S
H756 C742 0.961 . S
H757 C743 0.958 . S
H758 C743 0.961 . S
H759 C743 0.960 . S
C760 C761 1.391 1_655 S
C760 C762 1.394 . S
C760 H776 0.931 . S
C761 C760 1.391 1_455 S
C761 C765 1.376 . S
C762 C760 1.394 . S
C762 C763 1.369 1_655 S
C762 C766 1.531 . S
C763 C762 1.369 1_455 S
C763 C764 1.410 . S
C763 C771 1.503 . S
C764 C763 1.410 . S
C764 C765 1.392 . S
C764 C767 1.511 . S
C765 C761 1.376 . S
C765 C764 1.392 . S
C765 H777 0.929 . S
C766 C762 1.531 . S
C766 H778 0.960 . S
C766 H779 0.962 . S
C766 H780 0.960 . S
C767 C764 1.511 . S
C767 H781 0.961 . S
C767 H782 0.961 . S
C767 H783 0.961 . S
C768 C769 1.370 . S
C768 C770 1.363 . S
C768 H784 0.931 . S
C769 C768 1.370 . S
C769 C773 1.408 . S
C770 C768 1.363 . S
C770 C771 1.370 . S
C770 C774 1.524 1_556 S
C771 C763 1.503 . S
C771 C770 1.370 . S
C771 C772 1.403 . S
C772 C771 1.403 . S
C772 C773 1.404 . S
C772 C775 1.539 . S
C773 C769 1.408 . S
C773 C772 1.404 . S
C773 H785 0.930 . S
C774 C770 1.524 1_554 S
C774 H786 0.956 1_455 S
C774 H787 0.961 . S
C774 H788 0.961 . S
C775 C772 1.539 . S
C775 H789 0.958 1_455 S
C775 H790 0.961 . S
C775 H791 0.960 . S
H776 C760 0.931 . S
H777 C765 0.929 . S
H778 C766 0.960 . S
H779 C766 0.962 . S
H780 C766 0.960 . S
H781 C767 0.961 . S
H782 C767 0.961 . S
H783 C767 0.961 . S
H784 C768 0.931 . S
H785 C773 0.930 . S
H786 C774 0.956 1_655 S
H787 C774 0.961 . S
H788 C774 0.961 . S
H789 C775 0.958 1_655 S
H790 C775 0.961 . S
H791 C775 0.960 . S
C792 C793 1.391 1_565 S
C792 C794 1.394 . S
C792 H808 0.931 . S
C793 C792 1.391 1_545 S
C793 C797 1.376 . S
C794 C792 1.394 . S
C794 C795 1.369 1_565 S
C794 C798 1.531 . S
C795 C794 1.369 1_545 S
C795 C796 1.410 . S
C795 C803 1.503 . S
C796 C795 1.410 . S
C796 C797 1.392 . S
C796 C799 1.511 . S
C797 C793 1.376 . S
C797 C796 1.392 . S
C797 H809 0.929 . S
C798 C794 1.531 . S
C798 H810 0.960 . S
C798 H811 0.962 . S
C798 H812 0.960 . S
C799 C796 1.511 . S
C799 H813 0.961 . S
C799 H814 0.961 . S
C799 H815 0.961 . S
C800 C801 1.370 1_565 S
C800 C802 1.363 . S
C800 H816 0.931 . S
C801 C800 1.370 1_545 S
C801 C805 1.408 . S
C802 C800 1.363 . S
C802 C803 1.370 1_565 S
C802 C806 1.520 1_556 S
C803 C795 1.503 . S
C803 C802 1.370 1_545 S
C803 C804 1.403 . S
C804 C803 1.403 . S
C804 C805 1.404 . S
C804 C807 1.539 . S
C805 C801 1.408 . S
C805 C804 1.404 . S
C805 H817 0.930 . S
C806 C802 1.520 1_554 S
C806 H818 0.955 1_554 S
C806 H819 0.962 . S
C806 H820 0.964 . S
C807 C804 1.539 . S
C807 H821 0.958 . S
C807 H822 0.961 . S
C807 H823 0.960 . S
H808 C792 0.931 . S
H809 C797 0.929 . S
H810 C798 0.960 . S
H811 C798 0.962 . S
H812 C798 0.960 . S
H813 C799 0.961 . S
H814 C799 0.961 . S
H815 C799 0.961 . S
H816 C800 0.931 . S
H817 C805 0.930 . S
H818 C806 0.955 1_556 S
H819 C806 0.962 . S
H820 C806 0.964 . S
H821 C807 0.958 . S
H822 C807 0.961 . S
H823 C807 0.960 . S
C824 C825 1.391 . S
C824 C826 1.394 . S
C824 H840 0.931 . S
C825 C824 1.391 . S
C825 C829 1.376 . S
C826 C824 1.394 . S
C826 C827 1.369 . S
C826 C830 1.531 . S
C827 C826 1.369 . S
C827 C828 1.410 . S
C827 C835 1.503 . S
C828 C827 1.410 . S
C828 C829 1.392 . S
C828 C831 1.511 . S
C829 C825 1.376 . S
C829 C828 1.392 . S
C829 H841 0.929 . S
C830 C826 1.531 . S
C830 H842 0.960 . S
C830 H843 0.962 . S
C830 H844 0.960 . S
C831 C828 1.511 . S
C831 H845 0.961 . S
C831 H846 0.961 . S
C831 H847 0.961 . S
C832 C833 1.370 . S
C832 C834 1.363 . S
C832 H848 0.931 . S
C833 C832 1.370 . S
C833 C837 1.408 . S
C834 C832 1.363 . S
C834 C835 1.370 . S
C834 C838 1.524 1_556 S
C835 C827 1.503 . S
C835 C834 1.370 . S
C835 C836 1.403 . S
C836 C835 1.403 . S
C836 C837 1.404 . S
C836 C839 1.539 . S
C837 C833 1.408 . S
C837 C836 1.404 . S
C837 H849 0.930 . S
C838 C834 1.524 1_554 S
C838 H850 0.956 1_554 S
C838 H851 0.961 . S
C838 H852 0.961 . S
C839 C836 1.539 . S
C839 H853 0.958 . S
C839 H854 0.961 . S
C839 H855 0.960 . S
H840 C824 0.931 . S
H841 C829 0.929 . S
H842 C830 0.960 . S
H843 C830 0.962 . S
H844 C830 0.960 . S
H845 C831 0.961 . S
H846 C831 0.961 . S
H847 C831 0.961 . S
H848 C832 0.931 . S
H849 C837 0.930 . S
H850 C838 0.956 1_556 S
H851 C838 0.961 . S
H852 C838 0.961 . S
H853 C839 0.958 . S
H854 C839 0.961 . S
H855 C839 0.960 . S
C856 C857 1.391 . S
C856 C858 1.394 . S
C856 H872 0.931 . S
C857 C856 1.391 . S
C857 C861 1.376 . S
C858 C856 1.394 . S
C858 C859 1.369 . S
C858 C862 1.531 . S
C859 C858 1.369 . S
C859 C860 1.410 . S
C859 C867 1.503 . S
C860 C859 1.410 . S
C860 C861 1.392 . S
C860 C863 1.511 1_556 S
C861 C857 1.376 . S
C861 C860 1.392 . S
C861 H873 0.929 1_556 S
C862 C858 1.531 . S
C862 H874 0.960 . S
C862 H875 0.962 . S
C862 H876 0.960 . S
C863 C860 1.511 1_554 S
C863 H877 0.961 . S
C863 H878 0.961 . S
C863 H879 0.961 . S
C864 C865 1.370 . S
C864 C866 1.363 . S
C864 H880 0.931 . S
C865 C864 1.370 . S
C865 C869 1.408 . S
C866 C864 1.363 . S
C866 C867 1.370 . S
C866 C870 1.524 . S
C867 C859 1.503 . S
C867 C866 1.370 . S
C867 C868 1.403 . S
C868 C867 1.403 . S
C868 C869 1.404 . S
C868 C871 1.539 . S
C869 C865 1.408 . S
C869 C868 1.404 . S
C869 H881 0.930 . S
C870 C866 1.524 . S
C870 H882 0.956 . S
C870 H883 0.961 . S
C870 H884 0.961 . S
C871 C868 1.539 . S
C871 H885 0.958 . S
C871 H886 0.961 . S
C871 H887 0.960 . S
H872 C856 0.931 . S
H873 C861 0.929 1_554 S
H874 C862 0.960 . S
H875 C862 0.962 . S
H876 C862 0.960 . S
H877 C863 0.961 . S
H878 C863 0.961 . S
H879 C863 0.961 . S
H880 C864 0.931 . S
H881 C869 0.930 . S
H882 C870 0.956 . S
H883 C870 0.961 . S
H884 C870 0.961 . S
H885 C871 0.958 . S
H886 C871 0.961 . S
H887 C871 0.960 . S
C888 C889 1.391 . S
C888 C890 1.394 . S
C888 H904 0.931 . S
C889 C888 1.391 . S
C889 C893 1.376 1_655 S
C890 C888 1.394 . S
C890 C891 1.369 . S
C890 C894 1.531 . S
C891 C890 1.369 . S
C891 C892 1.410 1_655 S
C891 C899 1.503 . S
C892 C891 1.410 1_455 S
C892 C893 1.392 . S
C892 C895 1.511 . S
C893 C889 1.376 1_455 S
C893 C892 1.392 . S
C893 H905 0.929 . S
C894 C890 1.531 . S
C894 H906 0.960 . S
C894 H907 0.962 . S
C894 H908 0.960 . S
C895 C892 1.511 . S
C895 H909 0.961 . S
C895 H910 0.961 . S
C895 H911 0.961 . S
C896 C897 1.370 . S
C896 C898 1.363 . S
C896 H912 0.931 1_655 S
C897 C896 1.370 . S
C897 C901 1.408 . S
C898 C896 1.363 . S
C898 C899 1.371 . S
C898 C902 1.523 1_655 S
C899 C891 1.503 . S
C899 C898 1.371 . S
C899 C900 1.403 . S
C900 C899 1.403 . S
C900 C901 1.404 . S
C900 C903 1.539 . S
C901 C897 1.408 . S
C901 C900 1.404 . S
C901 H913 0.930 . S
C902 C898 1.523 1_455 S
C902 H914 0.956 1_455 S
C902 H915 0.961 . S
C902 H916 0.961 . S
C903 C900 1.539 . S
C903 H917 0.958 . S
C903 H918 0.961 . S
C903 H919 0.960 . S
H904 C888 0.931 . S
H905 C893 0.929 . S
H906 C894 0.960 . S
H907 C894 0.962 . S
H908 C894 0.960 . S
H909 C895 0.961 . S
H910 C895 0.961 . S
H911 C895 0.961 . S
H912 C896 0.931 1_455 S
H913 C901 0.930 . S
H914 C902 0.956 1_655 S
H915 C902 0.961 . S
H916 C902 0.961 . S
H917 C903 0.958 . S
H918 C903 0.961 . S
H919 C903 0.960 . S
C920 C921 1.391 . S
C920 C922 1.394 . S
C920 H936 0.931 . S
C921 C920 1.391 . S
C921 C925 1.376 1_565 S
C922 C920 1.394 . S
C922 C923 1.369 . S
C922 C926 1.531 . S
C923 C922 1.369 . S
C923 C924 1.410 1_565 S
C923 C931 1.503 . S
C924 C923 1.410 1_545 S
C924 C925 1.392 . S
C924 C927 1.511 . S
C925 C921 1.376 1_545 S
C925 C924 1.392 . S
C925 H937 0.929 . S
C926 C922 1.531 . S
C926 H938 0.960 . S
C926 H939 0.962 . S
C926 H940 0.960 . S
C927 C924 1.511 . S
C927 H941 0.961 . S
C927 H942 0.961 . S
C927 H943 0.961 . S
C928 C929 1.370 . S
C928 C930 1.363 . S
C928 H944 0.938 . S
C929 C928 1.370 . S
C929 C933 1.408 . S
C930 C928 1.363 . S
C930 C931 1.370 . S
C930 C934 1.524 1_565 S
C931 C923 1.503 . S
C931 C930 1.370 . S
C931 C932 1.403 . S
C932 C931 1.403 . S
C932 C933 1.404 . S
C932 C935 1.539 . S
C933 C929 1.408 . S
C933 C932 1.404 . S
C933 H945 0.930 . S
C934 C930 1.524 1_545 S
C934 H946 0.956 1_545 S
C934 H947 0.961 . S
C934 H948 0.961 . S
C935 C932 1.539 . S
C935 H949 0.958 . S
C935 H950 0.961 . S
C935 H951 0.960 . S
H936 C920 0.931 . S
H937 C925 0.929 . S
H938 C926 0.960 . S
H939 C926 0.962 . S
H940 C926 0.960 . S
H941 C927 0.961 . S
H942 C927 0.961 . S
H943 C927 0.961 . S
H944 C928 0.938 . S
H945 C933 0.930 . S
H946 C934 0.956 1_565 S
H947 C934 0.961 . S
H948 C934 0.961 . S
H949 C935 0.958 . S
H950 C935 0.961 . S
H951 C935 0.960 . S
C952 C953 1.391 . S
C952 C954 1.394 . S
C952 H968 0.931 . S
C953 C952 1.391 . S
C953 C957 1.376 . S
C954 C952 1.394 . S
C954 C955 1.369 . S
C954 C958 1.531 . S
C955 C954 1.369 . S
C955 C956 1.410 . S
C955 C963 1.503 . S
C956 C955 1.410 . S
C956 C957 1.392 . S
C956 C959 1.511 . S
C957 C953 1.376 . S
C957 C956 1.392 . S
C957 H969 0.929 . S
C958 C954 1.531 . S
C958 H970 0.960 . S
C958 H971 0.962 . S
C958 H972 0.960 . S
C959 C956 1.511 . S
C959 H973 0.961 . S
C959 H974 0.961 . S
C959 H975 0.961 . S
C960 C961 1.370 . S
C960 C962 1.363 . S
C960 H976 0.931 . S
C961 C960 1.370 . S
C961 C965 1.408 . S
C962 C960 1.363 . S
C962 C963 1.370 . S
C962 C966 1.524 . S
C963 C955 1.503 . S
C963 C962 1.370 . S
C963 C964 1.403 . S
C964 C963 1.403 . S
C964 C965 1.404 . S
C964 C967 1.539 . S
C965 C961 1.408 . S
C965 C964 1.404 . S
C965 H977 0.930 . S
C966 C962 1.524 . S
C966 H978 0.956 . S
C966 H979 0.961 . S
C966 H980 0.961 . S
C967 C964 1.539 . S
C967 H981 0.958 . S
C967 H982 0.961 . S
C967 H983 0.960 . S
H968 C952 0.931 . S
H969 C957 0.929 . S
H970 C958 0.960 . S
H971 C958 0.962 . S
H972 C958 0.960 . S
H973 C959 0.961 . S
H974 C959 0.961 . S
H975 C959 0.961 . S
H976 C960 0.931 . S
H977 C965 0.930 . S
H978 C966 0.956 . S
H979 C966 0.961 . S
H980 C966 0.961 . S
H981 C967 0.958 . S
H982 C967 0.961 . S
H983 C967 0.960 . S
C984 C985 1.391 . S
C984 C986 1.394 . S
C984 H1000 0.931 . S
C985 C984 1.391 . S
C985 C989 1.376 . S
C986 C984 1.394 . S
C986 C987 1.369 . S
C986 C990 1.531 . S
C987 C986 1.369 . S
C987 C988 1.410 . S
C987 C995 1.503 . S
C988 C987 1.410 . S
C988 C989 1.392 . S
C988 C991 1.511 . S
C989 C985 1.376 . S
C989 C988 1.392 . S
C989 H1001 0.929 . S
C990 C986 1.531 . S
C990 H1002 0.960 . S
C990 H1003 0.962 . S
C990 H1004 0.960 . S
C991 C988 1.511 . S
C991 H1005 0.961 . S
C991 H1006 0.961 . S
C991 H1007 0.961 . S
C992 C993 1.370 . S
C992 C994 1.363 . S
C992 H1008 0.931 . S
C993 C992 1.370 . S
C993 C997 1.408 . S
C994 C992 1.363 . S
C994 C995 1.370 . S
C994 C998 1.524 . S
C995 C987 1.503 . S
C995 C994 1.370 . S
C995 C996 1.403 . S
C996 C995 1.403 . S
C996 C997 1.404 . S
C996 C999 1.539 . S
C997 C993 1.408 . S
C997 C996 1.404 . S
C997 H1009 0.930 . S
C998 C994 1.524 . S
C998 H1010 0.956 . S
C998 H1011 0.961 . S
C998 H1012 0.961 . S
C999 C996 1.539 . S
C999 H1013 0.958 . S
C999 H1014 0.961 . S
C999 H1015 0.960 . S
H1000 C984 0.931 . S
H1001 C989 0.929 . S
H1002 C990 0.960 . S
H1003 C990 0.962 . S
H1004 C990 0.960 . S
H1005 C991 0.961 . S
H1006 C991 0.961 . S
H1007 C991 0.961 . S
H1008 C992 0.931 . S
H1009 C997 0.930 . S
H1010 C998 0.956 . S
H1011 C998 0.961 . S
H1012 C998 0.961 . S
H1013 C999 0.958 . S
H1014 C999 0.961 . S
H1015 C999 0.960 . S
C249 C76 1.836 1_545 S
C257 C106 1.979 1_545 S
C289 C146 1.996 . S
C281 C87 1.832 . S
C321 C186 2.005 . S
C313 C54 1.875 . S
C353 C226 1.991 1_455 S
C345 C65 1.876 1_455 S
C385 C96 1.985 1_565 S
C377 C32 1.849 . S
C409 C43 1.878 . S
C417 C136 2.000 . S
C441 C10 1.836 . S
C449 C176 2.000 . S
C473 C21 1.821 1_455 S
C481 C216 1.987 1_655 S
C513 C93 0.472 . S
C505 C60 0.554 . S
C545 C133 0.447 . S
C537 C71 0.561 . S
C577 C173 0.475 . S
C569 C82 0.445 . S
C601 C49 0.506 . S
C609 C213 0.440 . S
C633 C16 0.576 1_655 S
C641 C103 0.441 . S
C673 C143 0.504 . S
C665 C27 0.418 . S
C705 C183 0.509 . S
C697 C38 0.469 . S
C729 C5 0.564 . S
C737 C223 0.446 . S
C761 C59 2.081 . S
C769 C97 2.275 . S
C793 C70 2.047 . S
C801 C137 2.253 . S
C833 C177 2.238 . S
C825 C81 2.033 . S
C865 C217 2.270 . S
C857 C48 2.007 . S
C889 C15 2.080 1_655 S
C897 C107 2.288 . S
C929 C147 2.251 . S
C921 C26 2.053 1_565 S
C961 C187 2.240 . S
C953 C37 1.991 . S
C985 C4 2.061 . S
C993 C227 2.265 . S
