# Generated by pormake.
# Topology eea, (3,6)-cn, num edge types: 1
# Building blocks:
#     Node 0, Type 0, BuildingBlock: QEWDON_clean_linker_0, # of connection points: 3
#     Node 1, Type 0, BuildingBlock: QEWDON_clean_linker_0, # of connection points: 3
#     Node 2, Type 0, BuildingBlock: QEWDON_clean_linker_0, # of connection points: 3
#     Node 3, Type 0, BuildingBlock: QEWDON_clean_linker_0, # of connection points: 3
#     Node 4, Type 0, BuildingBlock: QEWDON_clean_linker_0, # of connection points: 3
#     Node 5, Type 0, BuildingBlock: QEWDON_clean_linker_0, # of connection points: 3
#     Node 6, Type 0, BuildingBlock: QEWDON_clean_linker_0, # of connection points: 3
#     Node 7, Type 0, BuildingBlock: QEWDON_clean_linker_0, # of connection points: 3
#     Node 8, Type 0, BuildingBlock: QEWDON_clean_linker_0, # of connection points: 3
#     Node 9, Type 0, BuildingBlock: QEWDON_clean_linker_0, # of connection points: 3
#     Node 10, Type 0, BuildingBlock: QEWDON_clean_linker_0, # of connection points: 3
#     Node 11, Type 0, BuildingBlock: QEWDON_clean_linker_0, # of connection points: 3
#     Node 12, Type 0, BuildingBlock: QEWDON_clean_linker_0, # of connection points: 3
#     Node 13, Type 0, BuildingBlock: QEWDON_clean_linker_0, # of connection points: 3
#     Node 14, Type 0, BuildingBlock: QEWDON_clean_linker_0, # of connection points: 3
#     Node 15, Type 0, BuildingBlock: QEWDON_clean_linker_0, # of connection points: 3
#     Node 16, Type 0, BuildingBlock: QEWDON_clean_linker_0, # of connection points: 3
#     Node 17, Type 0, BuildingBlock: QEWDON_clean_linker_0, # of connection points: 3
#     Node 18, Type 1, BuildingBlock: HISSIN_clean_sbu_0, # of connection points: 6
#     Node 19, Type 1, BuildingBlock: HISSIN_clean_sbu_0, # of connection points: 6
#     Node 20, Type 1, BuildingBlock: HISSIN_clean_sbu_0, # of connection points: 6
#     Node 21, Type 1, BuildingBlock: HISSIN_clean_sbu_0, # of connection points: 6
#     Node 22, Type 1, BuildingBlock: HISSIN_clean_sbu_0, # of connection points: 6
#     Node 23, Type 1, BuildingBlock: HISSIN_clean_sbu_0, # of connection points: 6
#     Node 24, Type 1, BuildingBlock: HISSIN_clean_sbu_0, # of connection points: 6
#     Node 25, Type 1, BuildingBlock: HISSIN_clean_sbu_0, # of connection points: 6
#     Node 26, Type 1, BuildingBlock: HISSIN_clean_sbu_0, # of connection points: 6
#     Edge 27, Type (0, 1), None
#     Edge 28, Type (0, 1), None
#     Edge 29, Type (0, 1), None
#     Edge 30, Type (0, 1), None
#     Edge 31, Type (0, 1), None
#     Edge 32, Type (0, 1), None
#     Edge 33, Type (0, 1), None
#     Edge 34, Type (0, 1), None
#     Edge 35, Type (0, 1), None
#     Edge 36, Type (0, 1), None
#     Edge 37, Type (0, 1), None
#     Edge 38, Type (0, 1), None
#     Edge 39, Type (0, 1), None
#     Edge 40, Type (0, 1), None
#     Edge 41, Type (0, 1), None
#     Edge 42, Type (0, 1), None
#     Edge 43, Type (0, 1), None
#     Edge 44, Type (0, 1), None
#     Edge 45, Type (0, 1), None
#     Edge 46, Type (0, 1), None
#     Edge 47, Type (0, 1), None
#     Edge 48, Type (0, 1), None
#     Edge 49, Type (0, 1), None
#     Edge 50, Type (0, 1), None
#     Edge 51, Type (0, 1), None
#     Edge 52, Type (0, 1), None
#     Edge 53, Type (0, 1), None
#     Edge 54, Type (0, 1), None
#     Edge 55, Type (0, 1), None
#     Edge 56, Type (0, 1), None
#     Edge 57, Type (0, 1), None
#     Edge 58, Type (0, 1), None
#     Edge 59, Type (0, 1), None
#     Edge 60, Type (0, 1), None
#     Edge 61, Type (0, 1), None
#     Edge 62, Type (0, 1), None
#     Edge 63, Type (0, 1), None
#     Edge 64, Type (0, 1), None
#     Edge 65, Type (0, 1), None
#     Edge 66, Type (0, 1), None
#     Edge 67, Type (0, 1), None
#     Edge 68, Type (0, 1), None
#     Edge 69, Type (0, 1), None
#     Edge 70, Type (0, 1), None
#     Edge 71, Type (0, 1), None
#     Edge 72, Type (0, 1), None
#     Edge 73, Type (0, 1), None
#     Edge 74, Type (0, 1), None
#     Edge 75, Type (0, 1), None
#     Edge 76, Type (0, 1), None
#     Edge 77, Type (0, 1), None
#     Edge 78, Type (0, 1), None
#     Edge 79, Type (0, 1), None
#     Edge 80, Type (0, 1), None
# Relax obj value: 0.095
# Max RMSD: 0.308
# Mean RMSD: 0.221
data_MOF--net-eea--node1-HISSIN_clean_sbu_0--node2-QEWDON_clean_linker_0--edge1-none
_symmetry_space_group_name_H-M    P1
_symmetry_Int_Tables_number       1
_symmetry_cell_setting            triclinic
loop_
_symmetry_equiv_pos_as_xyz
'x, y, z'
_cell_length_a     26.703691
_cell_length_b     27.06073
_cell_length_c     37.245689
_cell_angle_alpha  92.22337
_cell_angle_beta   91.788493
_cell_angle_gamma 119.93902
loop_
_atom_site_label
_atom_site_type_symbol
_atom_site_fract_x
_atom_site_fract_y
_atom_site_fract_z
_atom_type_partial_charge
H0 H 0.2634 0.16843 0.4584 0.0
C1 C 0.26537 0.13503 0.44259 0.0
C2 C 0.30081 0.11374 0.45514 0.0
C3 C 0.23018 0.11115 0.41068 0.0
H4 H 0.32551 0.04994 0.44622 0.0
C5 C 0.30058 0.06824 0.43552 0.0
C6 C 0.26519 0.04342 0.40387 0.0
C7 C 0.23195 0.06664 0.39099 0.0
C8 C 0.18614 0.12699 0.39993 0.0
H9 H 0.20461 0.04779 0.36653 0.0
C10 C 0.19891 0.18444 0.4008 0.0
C11 C 0.15593 0.19721 0.38972 0.0
C12 C 0.13 0.08329 0.38829 0.0
H13 H 0.11834 0.0388 0.38779 0.0
C14 C 0.08803 0.0962 0.37695 0.0
H15 H 0.24206 0.2188 0.40912 0.0
C16 C 0.10081 0.15271 0.37771 0.0
H17 H 0.06783 0.16171 0.3681 0.0
H18 H 0.04557 0.06221 0.36721 0.0
H19 H 0.86262 0.09877 0.45528 0.0
C20 C 0.89414 0.13222 0.43966 0.0
C21 C 0.91793 0.18953 0.45199 0.0
C22 C 0.91441 0.11726 0.40932 0.0
H23 H 0.98041 0.27649 0.44269 0.0
C24 C 0.96075 0.23239 0.43235 0.0
C25 C 0.98163 0.21813 0.40141 0.0
C26 C 0.95722 0.16022 0.38986 0.0
C27 C 0.90056 0.05744 0.40358 0.0
H28 H 0.97388 0.14802 0.36712 0.0
C29 C 0.84302 0.01231 0.398 0.0
C30 C 0.83083 0.95545 0.39825 0.0
C31 C 0.94537 0.04516 0.40865 0.0
H32 H 0.98955 0.07934 0.41426 0.0
C33 C 0.93331 0.98883 0.4084 0.0
H34 H 0.80805 0.02141 0.39434 0.0
C35 C 0.87629 0.9441 0.40373 0.0
H36 H 0.86774 0.9006 0.40385 0.0
H37 H 0.9683 0.98007 0.41229 0.0
H38 H 0.93218 0.75558 0.46508 0.0
C39 C 0.8981 0.75431 0.44776 0.0
C40 C 0.84016 0.72274 0.45709 0.0
C41 C 0.91291 0.78932 0.41846 0.0
H42 H 0.75256 0.70144 0.44341 0.0
C43 C 0.79706 0.72521 0.43594 0.0
C44 C 0.81111 0.76035 0.40668 0.0
C45 C 0.86918 0.79146 0.39777 0.0
C46 C 0.97359 0.83507 0.4159 0.0
H47 H 0.88128 0.82099 0.37654 0.0
C48 C 0.01584 0.82548 0.40039 0.0
C49 C 0.07361 0.87073 0.40055 0.0
C50 C 0.98938 0.88958 0.43097 0.0
H51 H 0.95758 0.89727 0.44345 0.0
C52 C 0.04624 0.9342 0.43081 0.0
H53 H 1.0043 0.78323 0.3894 0.0
C54 C 0.08814 0.92481 0.41594 0.0
H55 H 0.13239 0.95989 0.41683 0.0
H56 H 0.05806 0.976 0.44272 0.0
H57 H 0.1776 0.25463 0.60621 0.0
C58 C 0.1453 0.2559 0.62256 0.0
C59 C 0.12037 0.28873 0.6126 0.0
C60 C 0.12538 0.22065 0.65146 0.0
H61 H 0.05579 0.31133 0.62453 0.0
C62 C 0.0764 0.28758 0.63304 0.0
C63 C 0.05565 0.2523 0.66233 0.0
C64 C 0.0814 0.21974 0.67168 0.0
C65 C 0.13946 0.17457 0.65377 0.0
H66 H 0.06459 0.19045 0.69296 0.0
C67 C 0.19444 0.18516 0.66652 0.0
C68 C 0.20841 0.14145 0.66316 0.0
C69 C 0.09886 0.1203 0.63836 0.0
H70 H 0.05705 0.11204 0.62755 0.0
C71 C 0.11257 0.07704 0.63532 0.0
H72 H 0.22648 0.22731 0.67774 0.0
C73 C 0.16717 0.08763 0.64729 0.0
H74 H 0.17718 0.05355 0.64429 0.0
H75 H 0.08112 0.03546 0.62309 0.0
H76 H 0.7671 0.91554 0.61337 0.0
C77 C 0.76628 0.88192 0.62874 0.0
C78 C 0.73337 0.82496 0.61522 0.0
C79 C 0.80261 0.89645 0.6599 0.0
H80 H 0.71064 0.73818 0.62309 0.0
C81 C 0.73471 0.7819 0.63437 0.0
C82 C 0.77092 0.79562 0.66598 0.0
C83 C 0.80409 0.85314 0.6788 0.0
C84 C 0.84807 0.95672 0.66731 0.0
H85 H 0.8341 0.86491 0.70206 0.0
C86 C 0.83471 1.00085 0.67077 0.0
C87 C 0.87937 0.05819 0.67222 0.0
C88 C 0.90606 0.97056 0.66615 0.0
H89 H 0.91683 0.93724 0.66212 0.0
C90 C 0.95024 0.0273 0.66818 0.0
H91 H 0.79001 0.99064 0.67148 0.0
C92 C 0.937 0.07095 0.67061 0.0
H93 H 0.97184 0.11475 0.6717 0.0
H94 H 0.99473 0.0373 0.6674 0.0
H95 H 0.09687 0.84226 0.60507 0.0
C96 C 0.13344 0.87616 0.62098 0.0
C97 C 0.19008 0.89813 0.60908 0.0
C98 C 0.12417 0.89982 0.65279 0.0
H99 H 0.27947 0.9639 0.61846 0.0
C100 C 0.23661 0.94474 0.62873 0.0
C101 C 0.22785 0.96912 0.66006 0.0
C102 C 0.17218 0.94448 0.67273 0.0
C103 C 0.06512 0.88437 0.66394 0.0
H104 H 0.16542 0.96259 0.69731 0.0
C105 C 0.01993 0.82718 0.66568 0.0
C106 C 0.96715 0.81588 0.68013 0.0
C107 C 0.05541 0.92896 0.67551 0.0
H108 H 0.08849 0.97322 0.67406 0.0
C109 C 1.00384 0.9175 0.69019 0.0
H110 H 0.0264 0.79213 0.65718 0.0
C111 C 0.95996 0.86139 0.69252 0.0
H112 H 0.92036 0.85352 0.70438 0.0
H113 H 0.99827 0.95239 0.70025 0.0
H114 H 0.93007 0.50176 0.79173 0.0
C115 C 0.93203 0.46836 0.77592 0.0
C116 C 0.96747 0.44707 0.78847 0.0
C117 C 0.89685 0.44448 0.74401 0.0
H118 H 0.99217 0.38327 0.77956 0.0
C119 C 0.96725 0.40157 0.76886 0.0
C120 C 0.93185 0.37675 0.73721 0.0
C121 C 0.89862 0.39997 0.72432 0.0
C122 C 0.85281 0.46033 0.73326 0.0
H123 H 0.87128 0.38112 0.69986 0.0
C124 C 0.86558 0.51777 0.73414 0.0
C125 C 0.82259 0.53054 0.72306 0.0
C126 C 0.79667 0.41662 0.72162 0.0
H127 H 0.78501 0.37214 0.72112 0.0
C128 C 0.7547 0.42953 0.71028 0.0
H129 H 0.90872 0.55214 0.74246 0.0
C130 C 0.76748 0.48605 0.71104 0.0
H131 H 0.7345 0.49505 0.70143 0.0
H132 H 0.71224 0.39554 0.70054 0.0
H133 H 0.52929 0.4321 0.78861 0.0
C134 C 0.5608 0.46555 0.77299 0.0
C135 C 0.58459 0.52286 0.78532 0.0
C136 C 0.58108 0.45059 0.74266 0.0
H137 H 0.64707 0.60982 0.77602 0.0
C138 C 0.62741 0.56572 0.76568 0.0
C139 C 0.6483 0.55146 0.73475 0.0
C140 C 0.62389 0.49356 0.72319 0.0
C141 C 0.56722 0.39077 0.73691 0.0
H142 H 0.64054 0.48136 0.70046 0.0
C143 C 0.50969 0.34565 0.73133 0.0
C144 C 0.4975 0.28878 0.73158 0.0
C145 C 0.61204 0.37849 0.74198 0.0
H146 H 0.65622 0.41267 0.74759 0.0
C147 C 0.59998 0.32217 0.74174 0.0
H148 H 0.47472 0.35475 0.72767 0.0
C149 C 0.54295 0.27744 0.73707 0.0
H150 H 0.53441 0.23393 0.73718 0.0
H151 H 0.63497 0.3134 0.74562 0.0
H152 H 0.59884 0.08891 0.79841 0.0
C153 C 0.56477 0.08764 0.7811 0.0
C154 C 0.50683 0.05607 0.79042 0.0
C155 C 0.57958 0.12266 0.7518 0.0
H156 H 0.41923 0.03477 0.77674 0.0
C157 C 0.46373 0.05854 0.76927 0.0
C158 C 0.47777 0.09368 0.74002 0.0
C159 C 0.53585 0.1248 0.7311 0.0
C160 C 0.64025 0.1684 0.74923 0.0
H161 H 0.54794 0.15433 0.70987 0.0
C162 C 0.68251 0.15881 0.73372 0.0
C163 C 0.74027 0.20406 0.73388 0.0
C164 C 0.65605 0.22291 0.7643 0.0
H165 H 0.62424 0.23061 0.77678 0.0
C166 C 0.7129 0.26753 0.76414 0.0
H167 H 0.67097 0.11656 0.72273 0.0
C168 C 0.75481 0.25815 0.74927 0.0
H169 H 0.79905 0.29322 0.75016 0.0
H170 H 0.72472 0.30934 0.77605 0.0
H171 H 0.84427 0.58796 0.93954 0.0
C172 C 0.81196 0.58923 0.95589 0.0
C173 C 0.78704 0.62206 0.94593 0.0
C174 C 0.79205 0.55398 0.98479 0.0
H175 H 0.72245 0.64466 0.95786 0.0
C176 C 0.74307 0.62091 0.96638 0.0
C177 C 0.72232 0.58563 0.99567 0.0
C178 C 0.74806 0.55307 1.00501 0.0
C179 C 0.80613 0.5079 0.9871 0.0
H180 H 0.73126 0.52378 1.02629 0.0
C181 C 0.8611 0.51849 0.99985 0.0
C182 C 0.87507 0.47477 0.99649 0.0
C183 C 0.76552 0.45363 0.9717 0.0
H184 H 0.72371 0.44537 0.96088 0.0
C185 C 0.77923 0.41037 0.96866 0.0
H186 H 0.89314 0.56064 1.01108 0.0
C187 C 0.83384 0.42096 0.98063 0.0
H188 H 0.84384 0.38688 0.97763 0.0
H189 H 0.74778 0.36879 0.95643 0.0
H190 H 0.43377 0.24887 0.9467 0.0
C191 C 0.43294 0.21525 0.96207 0.0
C192 C 0.40003 0.15829 0.94855 0.0
C193 C 0.46927 0.22978 0.99324 0.0
H194 H 0.3773 0.07151 0.95642 0.0
C195 C 0.40138 0.11523 0.9677 0.0
C196 C 0.43759 0.12895 0.99932 0.0
C197 C 0.47076 0.18648 1.01214 0.0
C198 C 0.51474 0.29005 1.00065 0.0
H199 H 0.50076 0.19824 0.03539 0.0
C200 C 0.50137 0.33418 1.0041 0.0
C201 C 0.54603 0.39152 1.00556 0.0
C202 C 0.57272 0.30389 0.99949 0.0
H203 H 0.58349 0.27057 0.99545 0.0
C204 C 0.61691 0.36064 1.00152 0.0
H205 H 0.45667 0.32397 1.00481 0.0
C206 C 0.60366 0.40428 1.00394 0.0
H207 H 0.6385 0.44808 1.00504 0.0
H208 H 0.66139 0.37063 1.00074 0.0
H209 H 0.76353 0.17559 0.93841 0.0
C210 C 0.8001 0.20949 0.95431 0.0
C211 C 0.85674 0.23146 0.94242 0.0
C212 C 0.79083 0.23315 0.98612 0.0
H213 H 0.94614 0.29723 0.9518 0.0
C214 C 0.90328 0.27807 0.96207 0.0
C215 C 0.89451 0.30245 0.9934 0.0
C216 C 0.83884 0.2778 1.00606 0.0
C217 C 0.73178 0.21769 0.99727 0.0
H218 H 0.83208 0.29592 1.03064 0.0
C219 C 0.68659 0.16051 0.99901 0.0
C220 C 0.63381 0.1492 1.01346 0.0
C221 C 0.72207 0.26229 1.00885 0.0
H222 H 0.75516 0.30655 1.0074 0.0
C223 C 0.6705 0.25083 1.02352 0.0
H224 H 0.69306 0.12546 0.99051 0.0
C225 C 0.62663 0.19472 1.02585 0.0
H226 H 0.58702 0.18685 0.03771 0.0
H227 H 0.66494 0.28571 0.03358 0.0
H228 H 0.59673 0.83509 0.12507 0.0
C229 C 0.5987 0.80169 0.10925 0.0
C230 C 0.63414 0.78041 0.1218 0.0
C231 C 0.56351 0.77782 0.07734 0.0
H232 H 0.65884 0.7166 0.11289 0.0
C233 C 0.63391 0.7349 0.10219 0.0
C234 C 0.59852 0.71009 0.07054 0.0
C235 C 0.56529 0.7333 0.05765 0.0
C236 C 0.51947 0.79366 0.06659 0.0
H237 H 0.53794 0.71445 0.03319 0.0
C238 C 0.53224 0.8511 0.06747 0.0
C239 C 0.48926 0.86387 0.05639 0.0
C240 C 0.46333 0.74995 0.05495 0.0
H241 H 0.45167 0.70547 0.05446 0.0
C242 C 0.42136 0.76286 0.04361 0.0
H243 H 0.57539 0.88547 0.07579 0.0
C244 C 0.43414 0.81938 0.04438 0.0
H245 H 0.40116 0.82837 0.03477 0.0
H246 H 0.3789 0.72887 0.03387 0.0
H247 H 0.19595 0.76543 0.12195 0.0
C248 C 0.22746 0.79888 0.10632 0.0
C249 C 0.25125 0.85619 0.11866 0.0
C250 C 0.24774 0.78392 0.07599 0.0
H251 H 0.31374 0.94315 0.10935 0.0
C252 C 0.29408 0.89905 0.09902 0.0
C253 C 0.31496 0.88479 0.06808 0.0
C254 C 0.29055 0.82689 0.05652 0.0
C255 C 0.23388 0.7241 0.07024 0.0
H256 H 0.30721 0.81469 0.03379 0.0
C257 C 0.17635 0.67898 0.06466 0.0
C258 C 0.16416 0.62211 0.06491 0.0
C259 C 0.2787 0.71182 0.07532 0.0
H260 H 0.32288 0.746 0.08092 0.0
C261 C 0.26664 0.6555 0.07507 0.0
H262 H 0.14138 0.68807 0.06101 0.0
C263 C 0.20962 0.61077 0.0704 0.0
H264 H 0.20107 0.56726 0.07051 0.0
H265 H 0.30163 0.64673 0.07895 0.0
H266 H 0.26551 0.42224 0.13175 0.0
C267 C 0.23143 0.42098 0.11443 0.0
C268 C 0.17349 0.3894 0.12376 0.0
C269 C 0.24624 0.45599 0.08513 0.0
H270 H 0.0859 0.3681 0.11008 0.0
C271 C 0.13039 0.39187 0.1026 0.0
C272 C 0.14444 0.42701 0.07335 0.0
C273 C 0.20252 0.45813 0.06444 0.0
C274 C 0.30692 0.50174 0.08256 0.0
H275 H 0.21461 0.48766 0.04321 0.0
C276 C 0.34917 0.49215 0.06706 0.0
C277 C 0.40694 0.5374 0.06721 0.0
C278 C 0.32271 0.55624 0.09764 0.0
H279 H 0.29091 0.56394 0.11012 0.0
C280 C 0.37957 0.60087 0.09747 0.0
H281 H 0.33763 0.4499 0.05606 0.0
C282 C 0.42147 0.59148 0.08261 0.0
H283 H 0.46572 0.62655 0.08349 0.0
H284 H 0.39139 0.64267 0.10939 0.0
H285 H 0.51094 0.9213 0.27288 0.0
C286 C 0.47863 0.92256 0.28922 0.0
C287 C 0.4537 0.95539 0.27927 0.0
C288 C 0.45872 0.88731 0.31812 0.0
H289 H 0.38912 0.97799 0.2912 0.0
C290 C 0.40974 0.95425 0.29971 0.0
C291 C 0.38899 0.91896 0.329 0.0
C292 C 0.41473 0.88641 0.33834 0.0
C293 C 0.4728 0.84124 0.32044 0.0
H294 H 0.39793 0.85711 0.35963 0.0
C295 C 0.52777 0.85183 0.33319 0.0
C296 C 0.54174 0.80811 0.32983 0.0
C297 C 0.43219 0.78696 0.30503 0.0
H298 H 0.39038 0.7787 0.29421 0.0
C299 C 0.4459 0.74371 0.30199 0.0
H300 H 0.55981 0.89398 0.34441 0.0
C301 C 0.50051 0.7543 0.31396 0.0
H302 H 0.51051 0.72022 0.31096 0.0
H303 H 0.41445 0.70213 0.28976 0.0
H304 H 0.10044 0.58221 0.28004 0.0
C305 C 0.09961 0.54858 0.29541 0.0
C306 C 0.0667 0.49162 0.28188 0.0
C307 C 0.13594 0.56312 0.32657 0.0
H308 H 0.04397 0.40484 0.28976 0.0
C309 C 0.06805 0.44856 0.30103 0.0
C310 C 0.10426 0.46228 0.33265 0.0
C311 C 0.13742 0.51981 0.34547 0.0
C312 C 0.18141 0.62338 0.33398 0.0
H313 H 0.16743 0.53157 0.36872 0.0
C314 C 0.16804 0.66751 0.33744 0.0
C315 C 0.2127 0.72486 0.33889 0.0
C316 C 0.23939 0.63722 0.33282 0.0
H317 H 0.25016 0.60391 0.32879 0.0
C318 C 0.28358 0.69397 0.33485 0.0
H319 H 0.12334 0.6573 0.33815 0.0
C320 C 0.27033 0.73761 0.33727 0.0
H321 H 0.30517 0.78141 0.33837 0.0
H322 H 0.32806 0.70397 0.33407 0.0
H323 H 0.4302 0.50892 0.27174 0.0
C324 C 0.46677 0.54283 0.28765 0.0
C325 C 0.52341 0.56479 0.27575 0.0
C326 C 0.4575 0.56649 0.31946 0.0
H327 H 0.6128 0.63057 0.28513 0.0
C328 C 0.56995 0.61141 0.2954 0.0
C329 C 0.56118 0.63578 0.32673 0.0
C330 C 0.50551 0.61114 0.3394 0.0
C331 C 0.39845 0.55103 0.3306 0.0
H332 H 0.49875 0.62926 0.36397 0.0
C333 C 0.35326 0.49385 0.33235 0.0
C334 C 0.30048 0.48254 0.3468 0.0
C335 C 0.38874 0.59563 0.34218 0.0
H336 H 0.42182 0.63989 0.34073 0.0
C337 C 0.33717 0.58416 0.35685 0.0
H338 H 0.35973 0.45879 0.32384 0.0
C339 C 0.2933 0.52806 0.35919 0.0
H340 H 0.25369 0.52019 0.37104 0.0
H341 H 0.33161 0.61905 0.36692 0.0
Eu342 Eu 0.4654 0.97909 0.99273 0.0
Eu343 Eu 0.49307 0.03345 0.07702 0.0
C344 C 0.44737 0.08455 1.01503 0.0
C345 C 0.46431 0.97081 0.89008 0.0
C346 C 0.44202 0.00615 0.88057 0.0
C347 C 0.51433 0.99084 0.83414 0.0
C348 C 0.45545 0.0332 0.84812 0.0
C349 C 0.50042 0.96332 0.86649 0.0
C350 C 0.49182 0.02593 0.82451 0.0
C351 C 0.45242 0.94338 0.92491 0.0
O352 O 0.39649 0.97954 0.0694 0.0
O353 O 0.39038 0.91604 1.02452 0.0
C354 C 0.36815 0.92924 0.05203 0.0
O355 O 0.51475 0.94399 1.02199 0.0
O356 O 0.4721 0.06683 0.12529 0.0
O357 O 0.5485 0.05841 0.12629 0.0
O358 O 0.48017 0.94403 0.07689 0.0
C359 C 0.50132 0.92283 0.05352 0.0
O360 O 0.54298 0.06812 0.99317 0.0
O361 O 0.57842 0.07308 0.05051 0.0
O362 O 0.48221 0.09695 0.04409 0.0
O363 O 0.49775 0.95552 0.94574 0.0
O364 O 0.41082 0.94238 0.94302 0.0
O365 O 0.42603 0.03533 0.99648 0.0
C366 C 0.49745 0.03937 0.17937 0.0
C367 C 0.48496 0.98262 0.18099 0.0
C368 C 0.47973 0.04119 0.24307 0.0
C369 C 0.47092 0.95574 0.21342 0.0
C370 C 0.49434 0.06834 0.21056 0.0
C371 C 0.46859 0.9848 0.24494 0.0
C372 C 0.51382 0.06827 0.1453 0.0
C373 C 0.58582 0.09107 1.01785 0.0
H374 H 0.41473 0.01352 0.89834 0.0
H375 H 0.54237 0.98439 0.81653 0.0
H376 H 0.43826 0.06083 0.84186 0.0
H377 H 0.51837 0.9365 0.87327 0.0
H378 H 0.48627 0.95909 0.15717 0.0
H379 H 0.47804 0.06453 0.26686 0.0
H380 H 0.46127 0.91184 0.21374 0.0
H381 H 0.50349 0.11204 0.20981 0.0
Eu382 Eu 0.04827 0.48086 0.9936 0.0
Eu383 Eu 0.99367 0.45759 0.07374 0.0
C384 C 0.94116 0.35783 1.01008 0.0
C385 C 0.05677 0.49304 0.89297 0.0
C386 C 1.00017 0.4837 0.88873 0.0
C387 C 0.05681 0.47738 0.82838 0.0
C388 C 0.97204 0.47115 0.85456 0.0
C389 C 0.0851 0.49034 0.86258 0.0
C390 C 0.99981 0.46718 0.82406 0.0
C391 C 0.08582 0.50455 0.92903 0.0
O392 O 0.05014 0.41767 0.07131 0.0
O393 O 0.11273 0.47101 1.0291 0.0
C394 C 0.09985 0.43741 0.05612 0.0
O395 O 0.08137 0.56509 1.0252 0.0
O396 O 0.95691 0.40403 0.11904 0.0
O397 O 0.97027 0.48997 0.12091 0.0
O398 O 0.08444 0.53277 0.07991 0.0
C399 C 0.1051 0.57386 0.05773 0.0
O400 O 0.95772 0.46549 0.98617 0.0
O401 O 0.9503 0.49757 0.04232 0.0
O402 O 0.92989 0.38143 0.03792 0.0
O403 O 0.07906 0.53955 0.95066 0.0
O404 O 0.08029 0.46024 0.94513 0.0
O405 O 0.98963 0.38537 0.99356 0.0
C406 C 0.98507 0.45608 0.17531 0.0
C407 C 0.04317 0.49873 0.18194 0.0
C408 C 0.98027 0.43483 0.23842 0.0
C409 C 0.06928 0.51005 0.21659 0.0
C410 C 0.95387 0.42387 0.20367 0.0
C411 C 0.038 0.4786 0.24526 0.0
C412 C 0.95719 0.44497 0.1389 0.0
C413 C 0.9323 0.48364 1.00829 0.0
H414 H 0.97737 0.48525 0.91191 0.0
H415 H 0.0792 0.47458 0.80531 0.0
H416 H 0.92779 0.46247 0.85216 0.0
H417 H 0.12877 0.49747 0.86535 0.0
H418 H 0.06836 0.52347 0.16033 0.0
H419 H 0.95541 0.4098 0.26002 0.0
H420 H 0.11426 0.54316 0.22093 0.0
H421 H 0.9091 0.39045 0.19894 0.0
Eu422 Eu 0.575 0.53356 0.0733 0.0
Eu423 Eu 0.54061 0.55492 0.991 0.0
C424 C 0.58971 0.65529 0.05413 0.0
C425 C 0.56934 0.52114 0.17435 0.0
C426 C 0.52077 0.52836 0.17594 0.0
C427 C 0.58274 0.53506 0.23951 0.0
C428 C 0.50365 0.53939 0.2091 0.0
C429 C 0.5996 0.52374 0.20641 0.0
C430 C 0.53513 0.54389 0.24121 0.0
C431 C 0.58899 0.51151 0.13949 0.0
O432 O 0.63789 0.59574 0.99605 0.0
O433 O 0.6486 0.54333 0.03967 0.0
C434 C 0.66832 0.57611 1.01225 0.0
O435 O 0.52079 0.44868 0.04233 0.0
O436 O 0.55691 0.60822 0.94521 0.0
O437 O 0.48571 0.52086 0.94145 0.0
O438 O 0.55488 0.47949 0.98798 0.0
C439 C 0.53446 0.43894 1.01053 0.0
O440 O 0.49938 0.5472 0.07797 0.0
O441 O 0.45733 0.51768 1.02081 0.0
O442 O 0.55378 0.63116 1.02559 0.0
O443 O 0.54842 0.47494 0.11641 0.0
O444 O 0.62713 0.55683 0.1243 0.0
O445 O 0.61196 0.62869 0.07158 0.0
C446 C 0.53615 0.55676 0.88887 0.0
C447 C 0.55433 0.51652 0.88437 0.0
C448 C 0.55323 0.57812 0.82592 0.0
C449 C 0.57062 0.50632 0.85085 0.0
C450 C 0.53633 0.58797 0.85954 0.0
C451 C 0.56959 0.53645 0.82112 0.0
C452 C 0.51739 0.56639 0.92406 0.0
C453 C 0.45469 0.52952 0.0551 0.0
H454 H 0.4967 0.52653 0.15149 0.0
H455 H 0.60779 0.53821 0.26381 0.0
H456 H 0.46742 0.54687 0.20947 0.0
H457 H 0.63694 0.51801 0.20582 0.0
H458 H 0.55552 0.49262 0.90674 0.0
H459 H 0.55224 0.60204 0.80353 0.0
H460 H 0.58416 0.47476 0.84817 0.0
H461 H 0.52296 0.61961 0.86257 0.0
Eu462 Eu 0.13207 0.31243 0.32606 0.0
Eu463 Eu 0.15975 0.36679 0.41035 0.0
C464 C 0.11404 0.41788 0.34836 0.0
C465 C 0.13098 0.30414 0.22341 0.0
C466 C 0.10869 0.33949 0.2139 0.0
C467 C 0.181 0.32418 0.16747 0.0
C468 C 0.12212 0.36653 0.18146 0.0
C469 C 0.16709 0.29665 0.19982 0.0
C470 C 0.15848 0.35926 0.15784 0.0
C471 C 0.11909 0.27671 0.25825 0.0
O472 O 0.06316 0.31288 0.40273 0.0
O473 O 0.05705 0.24937 0.35786 0.0
C474 C 0.03482 0.26258 0.38537 0.0
O475 O 0.18142 0.27732 0.35532 0.0
O476 O 0.13877 0.40016 0.45862 0.0
O477 O 0.21517 0.39175 0.45962 0.0
O478 O 0.14684 0.27737 0.41023 0.0
C479 C 0.16799 0.25617 0.38685 0.0
O480 O 0.20965 0.40146 0.3265 0.0
O481 O 0.24509 0.40642 0.38384 0.0
O482 O 0.14888 0.43029 0.37742 0.0
O483 O 0.16442 0.28885 0.27907 0.0
O484 O 0.07749 0.27571 0.27635 0.0
O485 O 0.09271 0.36866 0.32981 0.0
C486 C 0.16412 0.3727 0.5127 0.0
C487 C 0.15163 0.31596 0.51432 0.0
C488 C 0.1464 0.37453 0.57641 0.0
C489 C 0.13759 0.28908 0.54676 0.0
C490 C 0.16101 0.40167 0.5439 0.0
C491 C 0.13526 0.31813 0.57828 0.0
C492 C 0.18049 0.4016 0.47863 0.0
C493 C 0.25249 0.42441 0.35118 0.0
H494 H 0.0814 0.34686 0.23167 0.0
H495 H 0.20904 0.31772 0.14987 0.0
H496 H 0.10492 0.39416 0.17519 0.0
H497 H 0.18504 0.26983 0.20661 0.0
H498 H 0.15294 0.29243 0.49051 0.0
H499 H 0.14471 0.39787 0.60019 0.0
H500 H 0.12794 0.24517 0.54707 0.0
H501 H 0.17015 0.44537 0.54315 0.0
Eu502 Eu 0.71494 0.81419 0.32693 0.0
Eu503 Eu 0.66035 0.79093 0.40707 0.0
C504 C 0.60783 0.69117 0.34341 0.0
C505 C 0.72344 0.82637 0.22631 0.0
C506 C 0.66684 0.81703 0.22207 0.0
C507 C 0.72348 0.81071 0.16171 0.0
C508 C 0.6387 0.80449 0.18789 0.0
C509 C 0.75177 0.82368 0.19591 0.0
C510 C 0.66648 0.80052 0.15739 0.0
C511 C 0.75249 0.83788 0.26237 0.0
O512 O 0.71681 0.75101 0.40464 0.0
O513 O 0.7794 0.80434 0.36244 0.0
C514 C 0.76652 0.77075 0.38945 0.0
O515 O 0.74804 0.89843 0.35854 0.0
O516 O 0.62358 0.73737 0.45238 0.0
O517 O 0.63694 0.82331 0.45424 0.0
O518 O 0.75111 0.86611 0.41324 0.0
C519 C 0.77177 0.9072 0.39107 0.0
O520 O 0.62439 0.79883 0.31951 0.0
O521 O 0.61697 0.83091 0.37565 0.0
O522 O 0.59656 0.71477 0.37126 0.0
O523 O 0.74573 0.87289 0.28399 0.0
O524 O 0.74696 0.79357 0.27846 0.0
O525 O 0.6563 0.71871 0.3269 0.0
C526 C 0.65174 0.78941 0.50864 0.0
C527 C 0.70984 0.83206 0.51527 0.0
C528 C 0.64694 0.76816 0.57175 0.0
C529 C 0.73595 0.84338 0.54993 0.0
C530 C 0.62054 0.75721 0.537 0.0
C531 C 0.70467 0.81193 0.57859 0.0
C532 C 0.62386 0.77831 0.47223 0.0
C533 C 0.59897 0.81698 0.34162 0.0
H534 H 0.64404 0.81858 0.24525 0.0
H535 H 0.74587 0.80791 0.13864 0.0
H536 H 0.59446 0.7958 0.18549 0.0
H537 H 0.79543 0.83081 0.19868 0.0
H538 H 0.73503 0.8568 0.49367 0.0
H539 H 0.62208 0.74313 0.59335 0.0
H540 H 0.78093 0.87649 0.55426 0.0
H541 H 0.57577 0.72378 0.53227 0.0
Eu542 Eu 0.24167 0.86689 0.40663 0.0
Eu543 Eu 0.20727 0.88826 0.32434 0.0
C544 C 0.25638 0.98862 0.38747 0.0
C545 C 0.23601 0.85448 0.50769 0.0
C546 C 0.18743 0.86169 0.50928 0.0
C547 C 0.24941 0.86839 0.57284 0.0
C548 C 0.17032 0.87273 0.54244 0.0
C549 C 0.26627 0.85708 0.53975 0.0
C550 C 0.20179 0.87722 0.57455 0.0
C551 C 0.25565 0.84485 0.47282 0.0
O552 O 0.30456 0.92908 0.32938 0.0
O553 O 0.31526 0.87666 0.373 0.0
C554 C 0.33498 0.90945 0.34558 0.0
O555 O 0.18746 0.78201 0.37566 0.0
O556 O 0.22358 0.94155 0.27854 0.0
O557 O 0.15237 0.8542 0.27479 0.0
O558 O 0.22155 0.81283 0.32131 0.0
C559 C 0.20113 0.77227 0.34387 0.0
O560 O 0.16604 0.88053 0.41131 0.0
O561 O 0.124 0.85102 0.35414 0.0
O562 O 0.22045 0.9645 0.35892 0.0
O563 O 0.21509 0.80828 0.44974 0.0
O564 O 0.2938 0.89016 0.45763 0.0
O565 O 0.27863 0.96202 0.40491 0.0
C566 C 0.20281 0.8901 0.2222 0.0
C567 C 0.22099 0.84986 0.2177 0.0
C568 C 0.21989 0.91145 0.15925 0.0
C569 C 0.23728 0.83965 0.18418 0.0
C570 C 0.20299 0.9213 0.19287 0.0
C571 C 0.23625 0.86978 0.15445 0.0
C572 C 0.18405 0.89973 0.25739 0.0
C573 C 0.12136 0.86286 0.38843 0.0
H574 H 0.16337 0.85987 0.48483 0.0
H575 H 0.27446 0.87154 0.59715 0.0
H576 H 0.13408 0.8802 0.5428 0.0
H577 H 0.3036 0.85134 0.53915 0.0
H578 H 0.22219 0.82595 0.24007 0.0
H579 H 0.21891 0.93537 0.13686 0.0
H580 H 0.25082 0.80809 0.1815 0.0
H581 H 0.18963 0.95294 0.19591 0.0
Eu582 Eu 0.79874 0.64576 0.6594 0.0
Eu583 Eu 0.82641 0.70012 0.74368 0.0
C584 C 0.78071 0.75122 0.68169 0.0
C585 C 0.79765 0.63748 0.55675 0.0
C586 C 0.77535 0.67282 0.54724 0.0
C587 C 0.84767 0.65751 0.5008 0.0
C588 C 0.78879 0.69986 0.51479 0.0
C589 C 0.83376 0.62998 0.53315 0.0
C590 C 0.82515 0.6926 0.49118 0.0
C591 C 0.78576 0.61005 0.59158 0.0
O592 O 0.72983 0.64621 0.73607 0.0
O593 O 0.72372 0.58271 0.69119 0.0
C594 C 0.70149 0.59591 0.7187 0.0
O595 O 0.84809 0.61066 0.68866 0.0
O596 O 0.80543 0.7335 0.79196 0.0
O597 O 0.88184 0.72508 0.79296 0.0
O598 O 0.81351 0.6107 0.74356 0.0
C599 C 0.83466 0.5895 0.72018 0.0
O600 O 0.87631 0.73479 0.65983 0.0
O601 O 0.91176 0.73975 0.71717 0.0
O602 O 0.81554 0.76362 0.71075 0.0
O603 O 0.83108 0.62219 0.61241 0.0
O604 O 0.74416 0.60905 0.60969 0.0
O605 O 0.75937 0.702 0.66315 0.0
C606 C 0.83078 0.70604 0.84603 0.0
C607 C 0.81829 0.64929 0.84766 0.0
C608 C 0.81307 0.70786 0.90974 0.0
C609 C 0.80426 0.62241 0.88009 0.0
C610 C 0.82767 0.735 0.87723 0.0
C611 C 0.80193 0.65146 0.91161 0.0
C612 C 0.84715 0.73494 0.81197 0.0
C613 C 0.91916 0.75774 0.68452 0.0
H614 H 0.74806 0.68019 0.565 0.0
H615 H 0.8757 0.65106 0.4832 0.0
H616 H 0.77159 0.7275 0.50853 0.0
H617 H 0.85171 0.60317 0.53994 0.0
H618 H 0.8196 0.62576 0.82384 0.0
H619 H 0.81138 0.7312 0.93352 0.0
H620 H 0.7946 0.5785 0.88041 0.0
H621 H 0.83682 0.77871 0.87648 0.0
Eu622 Eu 0.38161 0.14753 0.66026 0.0
Eu623 Eu 0.32701 0.12426 0.7404 0.0
C624 C 0.27449 0.0245 0.67674 0.0
C625 C 0.39011 0.15971 0.55964 0.0
C626 C 0.33351 0.15037 0.5554 0.0
C627 C 0.39015 0.14404 0.49504 0.0
C628 C 0.30537 0.13782 0.52122 0.0
C629 C 0.41843 0.15701 0.52924 0.0
C630 C 0.33315 0.13385 0.49072 0.0
C631 C 0.41916 0.17122 0.5957 0.0
O632 O 0.38348 0.08434 0.73797 0.0
O633 O 0.44606 0.13768 0.69577 0.0
C634 C 0.43319 0.10408 0.72278 0.0
O635 O 0.41471 0.23177 0.69187 0.0
O636 O 0.29025 0.0707 0.78571 0.0
O637 O 0.30361 0.15664 0.78757 0.0
O638 O 0.41777 0.19944 0.74657 0.0
C639 C 0.43844 0.24053 0.7244 0.0
O640 O 0.29105 0.13217 0.65284 0.0
O641 O 0.28363 0.16424 0.70899 0.0
O642 O 0.26322 0.0481 0.70459 0.0
O643 O 0.4124 0.20622 0.61732 0.0
O644 O 0.41362 0.12691 0.6118 0.0
O645 O 0.32297 0.05204 0.66023 0.0
C646 C 0.3184 0.12275 0.84198 0.0
C647 C 0.37651 0.1654 0.84861 0.0
C648 C 0.3136 0.10149 0.90509 0.0
C649 C 0.40261 0.17671 0.88326 0.0
C650 C 0.28721 0.09054 0.87033 0.0
C651 C 0.37133 0.14527 0.91192 0.0
C652 C 0.29053 0.11164 0.80556 0.0
C653 C 0.26563 0.15031 0.67495 0.0
H654 H 0.3107 0.15192 0.57858 0.0
H655 H 0.41254 0.14124 0.47197 0.0
H656 H 0.26113 0.12914 0.51883 0.0
H657 H 0.4621 0.16414 0.53201 0.0
H658 H 0.40169 0.19014 0.827 0.0
H659 H 0.28875 0.07646 0.92669 0.0
H660 H 0.44759 0.20982 0.8876 0.0
H661 H 0.24243 0.05712 0.8656 0.0
Eu662 Eu 0.90833 0.20022 0.73997 0.0
Eu663 Eu 0.87394 0.22159 0.65767 0.0
C664 C 0.92305 0.32196 0.7208 0.0
C665 C 0.90267 0.18781 0.84102 0.0
C666 C 0.8541 0.19503 0.84261 0.0
C667 C 0.91607 0.20172 0.90617 0.0
C668 C 0.83698 0.20606 0.87577 0.0
C669 C 0.93294 0.19041 0.87308 0.0
C670 C 0.86846 0.21055 0.90788 0.0
C671 C 0.92232 0.17818 0.80615 0.0
O672 O 0.97122 0.26241 0.66272 0.0
O673 O 0.98193 0.21 0.70634 0.0
C674 C 1.00165 0.24278 0.67891 0.0
O675 O 0.85413 0.11535 0.70899 0.0
O676 O 0.89024 0.27489 0.61187 0.0
O677 O 0.81904 0.18753 0.60812 0.0
O678 O 0.88821 0.14616 0.65464 0.0
C679 C 0.86779 0.10561 0.6772 0.0
O680 O 0.83271 0.21387 0.74464 0.0
O681 O 0.79066 0.18435 0.68748 0.0
O682 O 0.88712 0.29783 0.69225 0.0
O683 O 0.88175 0.14161 0.78307 0.0
O684 O 0.96046 0.22349 0.79096 0.0
O685 O 0.94529 0.29535 0.73824 0.0
C686 C 0.86948 0.22343 0.55553 0.0
C687 C 0.88766 0.18319 0.55104 0.0
C688 C 0.88656 0.24479 0.49259 0.0
C689 C 0.90395 0.17299 0.51752 0.0
C690 C 0.86966 0.25464 0.52621 0.0
C691 C 0.90292 0.20311 0.48778 0.0
C692 C 0.85072 0.23306 0.59072 0.0
C693 C 0.78802 0.19619 0.72176 0.0
H694 H 0.83003 0.1932 0.81816 0.0
H695 H 0.94112 0.20487 0.93048 0.0
H696 H 0.80075 0.21353 0.87614 0.0
H697 H 0.97027 0.18467 0.87249 0.0
H698 H 0.88886 0.15929 0.5734 0.0
H699 H 0.88557 0.26871 0.47019 0.0
H700 H 0.91749 0.14143 0.51484 0.0
H701 H 0.85629 0.28628 0.52924 0.0
loop_
_geom_bond_atom_site_label_1
_geom_bond_atom_site_label_2
_geom_bond_distance
_geom_bond_site_symmetry_2
_ccdc_geom_bond_type
H0 C1 0.949 . S
C1 H0 0.949 . S
C1 C2 1.395 . S
C1 C3 1.391 . S
C2 C1 1.395 . S
C2 C5 1.390 . S
C3 C1 1.391 . S
C3 C7 1.387 . S
C3 C8 1.491 . S
H4 C5 0.950 . S
C5 C2 1.390 . S
C5 H4 0.950 . S
C5 C6 1.378 . S
C6 C5 1.378 . S
C6 C7 1.409 . S
C7 C3 1.387 . S
C7 C6 1.409 . S
C7 H9 0.951 . S
C8 C3 1.491 . S
C8 C10 1.382 . S
C8 C12 1.404 . S
H9 C7 0.951 . S
C10 C8 1.382 . S
C10 C11 1.390 . S
C10 H15 0.949 . S
C11 C10 1.390 . S
C11 C16 1.399 . S
C12 C8 1.404 . S
C12 H13 0.950 . S
C12 C14 1.375 . S
H13 C12 0.950 . S
C14 C12 1.375 . S
C14 C16 1.382 . S
C14 H18 0.950 . S
H15 C10 0.949 . S
C16 C11 1.399 . S
C16 C14 1.382 . S
C16 H17 0.952 . S
H17 C16 0.952 . S
H18 C14 0.950 . S
H19 C20 0.949 . S
C20 H19 0.949 . S
C20 C21 1.395 . S
C20 C22 1.391 . S
C21 C20 1.395 . S
C21 C24 1.390 . S
C22 C20 1.391 . S
C22 C26 1.387 . S
C22 C27 1.491 . S
H23 C24 0.950 . S
C24 C21 1.390 . S
C24 H23 0.950 . S
C24 C25 1.378 . S
C25 C24 1.378 . S
C25 C26 1.409 . S
C26 C22 1.387 . S
C26 C25 1.409 . S
C26 H28 0.951 . S
C27 C22 1.491 . S
C27 C29 1.382 . S
C27 C31 1.404 . S
H28 C26 0.951 . S
C29 C27 1.382 . S
C29 C30 1.390 1_545 S
C29 H34 0.949 . S
C30 C29 1.390 1_565 S
C30 C35 1.399 . S
C31 C27 1.404 . S
C31 H32 0.950 . S
C31 C33 1.375 1_545 S
H32 C31 0.950 . S
C33 C31 1.375 1_565 S
C33 C35 1.382 . S
C33 H37 0.950 . S
H34 C29 0.949 . S
C35 C30 1.399 . S
C35 C33 1.382 . S
C35 H36 0.952 . S
H36 C35 0.952 . S
H37 C33 0.950 . S
H38 C39 0.949 . S
C39 H38 0.949 . S
C39 C40 1.395 . S
C39 C41 1.391 . S
C40 C39 1.395 . S
C40 C43 1.390 . S
C41 C39 1.391 . S
C41 C45 1.387 . S
C41 C46 1.491 . S
H42 C43 0.950 . S
C43 C40 1.390 . S
C43 H42 0.950 . S
C43 C44 1.378 . S
C44 C43 1.378 . S
C44 C45 1.409 . S
C45 C41 1.387 . S
C45 C44 1.409 . S
C45 H47 0.951 . S
C46 C41 1.491 . S
C46 C48 1.382 1_655 S
C46 C50 1.404 . S
H47 C45 0.951 . S
C48 C46 1.382 1_455 S
C48 C49 1.390 . S
C48 H53 0.949 . S
C49 C48 1.390 . S
C49 C54 1.399 . S
C50 C46 1.404 . S
C50 H51 0.950 . S
C50 C52 1.375 1_655 S
H51 C50 0.950 . S
C52 C50 1.375 1_455 S
C52 C54 1.382 . S
C52 H56 0.950 . S
H53 C48 0.949 . S
C54 C49 1.399 . S
C54 C52 1.382 . S
C54 H55 0.952 . S
H55 C54 0.952 . S
H56 C52 0.950 . S
H57 C58 0.949 . S
C58 H57 0.949 . S
C58 C59 1.395 . S
C58 C60 1.391 . S
C59 C58 1.395 . S
C59 C62 1.390 . S
C60 C58 1.391 . S
C60 C64 1.387 . S
C60 C65 1.491 . S
H61 C62 0.950 . S
C62 C59 1.390 . S
C62 H61 0.950 . S
C62 C63 1.378 . S
C63 C62 1.378 . S
C63 C64 1.409 . S
C64 C60 1.387 . S
C64 C63 1.409 . S
C64 H66 0.951 . S
C65 C60 1.491 . S
C65 C67 1.382 . S
C65 C69 1.404 . S
H66 C64 0.951 . S
C67 C65 1.382 . S
C67 C68 1.390 . S
C67 H72 0.949 . S
C68 C67 1.390 . S
C68 C73 1.399 . S
C69 C65 1.404 . S
C69 H70 0.950 . S
C69 C71 1.375 . S
H70 C69 0.950 . S
C71 C69 1.375 . S
C71 C73 1.382 . S
C71 H75 0.950 . S
H72 C67 0.949 . S
C73 C68 1.399 . S
C73 C71 1.382 . S
C73 H74 0.952 . S
H74 C73 0.952 . S
H75 C71 0.950 . S
H76 C77 0.949 . S
C77 H76 0.949 . S
C77 C78 1.395 . S
C77 C79 1.391 . S
C78 C77 1.395 . S
C78 C81 1.390 . S
C79 C77 1.391 . S
C79 C83 1.387 . S
C79 C84 1.491 . S
H80 C81 0.950 . S
C81 C78 1.390 . S
C81 H80 0.950 . S
C81 C82 1.378 . S
C82 C81 1.378 . S
C82 C83 1.409 . S
C83 C79 1.387 . S
C83 C82 1.409 . S
C83 H85 0.951 . S
C84 C79 1.491 . S
C84 C86 1.382 . S
C84 C88 1.404 . S
H85 C83 0.951 . S
C86 C84 1.382 . S
C86 C87 1.390 1_565 S
C86 H91 0.949 . S
C87 C86 1.390 1_545 S
C87 C92 1.399 . S
C88 C84 1.404 . S
C88 H89 0.950 . S
C88 C90 1.375 1_565 S
H89 C88 0.950 . S
C90 C88 1.375 1_545 S
C90 C92 1.382 . S
C90 H94 0.950 . S
H91 C86 0.949 . S
C92 C87 1.399 . S
C92 C90 1.382 . S
C92 H93 0.952 . S
H93 C92 0.952 . S
H94 C90 0.950 . S
H95 C96 0.949 . S
C96 H95 0.949 . S
C96 C97 1.395 . S
C96 C98 1.391 . S
C97 C96 1.395 . S
C97 C100 1.390 . S
C98 C96 1.391 . S
C98 C102 1.387 . S
C98 C103 1.491 . S
H99 C100 0.950 . S
C100 C97 1.390 . S
C100 H99 0.950 . S
C100 C101 1.378 . S
C101 C100 1.378 . S
C101 C102 1.409 . S
C102 C98 1.387 . S
C102 C101 1.409 . S
C102 H104 0.951 . S
C103 C98 1.491 . S
C103 C105 1.382 . S
C103 C107 1.404 . S
H104 C102 0.951 . S
C105 C103 1.382 . S
C105 C106 1.390 1_455 S
C105 H110 0.949 . S
C106 C105 1.390 1_655 S
C106 C111 1.399 . S
C107 C103 1.404 . S
C107 H108 0.950 . S
C107 C109 1.375 1_455 S
H108 C107 0.950 . S
C109 C107 1.375 1_655 S
C109 C111 1.382 . S
C109 H113 0.950 . S
H110 C105 0.949 . S
C111 C106 1.399 . S
C111 C109 1.382 . S
C111 H112 0.952 . S
H112 C111 0.952 . S
H113 C109 0.950 . S
H114 C115 0.949 . S
C115 H114 0.949 . S
C115 C116 1.395 . S
C115 C117 1.391 . S
C116 C115 1.395 . S
C116 C119 1.390 . S
C117 C115 1.391 . S
C117 C121 1.387 . S
C117 C122 1.491 . S
H118 C119 0.950 . S
C119 C116 1.390 . S
C119 H118 0.950 . S
C119 C120 1.378 . S
C120 C119 1.378 . S
C120 C121 1.409 . S
C121 C117 1.387 . S
C121 C120 1.409 . S
C121 H123 0.951 . S
C122 C117 1.491 . S
C122 C124 1.382 . S
C122 C126 1.404 . S
H123 C121 0.951 . S
C124 C122 1.382 . S
C124 C125 1.390 . S
C124 H129 0.949 . S
C125 C124 1.390 . S
C125 C130 1.399 . S
C126 C122 1.404 . S
C126 H127 0.950 . S
C126 C128 1.375 . S
H127 C126 0.950 . S
C128 C126 1.375 . S
C128 C130 1.382 . S
C128 H132 0.950 . S
H129 C124 0.949 . S
C130 C125 1.399 . S
C130 C128 1.382 . S
C130 H131 0.952 . S
H131 C130 0.952 . S
H132 C128 0.950 . S
H133 C134 0.949 . S
C134 H133 0.949 . S
C134 C135 1.395 . S
C134 C136 1.391 . S
C135 C134 1.395 . S
C135 C138 1.390 . S
C136 C134 1.391 . S
C136 C140 1.387 . S
C136 C141 1.491 . S
H137 C138 0.950 . S
C138 C135 1.390 . S
C138 H137 0.950 . S
C138 C139 1.378 . S
C139 C138 1.378 . S
C139 C140 1.409 . S
C140 C136 1.387 . S
C140 C139 1.409 . S
C140 H142 0.951 . S
C141 C136 1.491 . S
C141 C143 1.382 . S
C141 C145 1.404 . S
H142 C140 0.951 . S
C143 C141 1.382 . S
C143 C144 1.390 . S
C143 H148 0.949 . S
C144 C143 1.390 . S
C144 C149 1.399 . S
C145 C141 1.404 . S
C145 H146 0.950 . S
C145 C147 1.375 . S
H146 C145 0.950 . S
C147 C145 1.375 . S
C147 C149 1.382 . S
C147 H151 0.950 . S
H148 C143 0.949 . S
C149 C144 1.399 . S
C149 C147 1.382 . S
C149 H150 0.952 . S
H150 C149 0.952 . S
H151 C147 0.950 . S
H152 C153 0.949 . S
C153 H152 0.949 . S
C153 C154 1.395 . S
C153 C155 1.391 . S
C154 C153 1.395 . S
C154 C157 1.390 . S
C155 C153 1.391 . S
C155 C159 1.387 . S
C155 C160 1.491 . S
H156 C157 0.950 . S
C157 C154 1.390 . S
C157 H156 0.950 . S
C157 C158 1.378 . S
C158 C157 1.378 . S
C158 C159 1.409 . S
C159 C155 1.387 . S
C159 C158 1.409 . S
C159 H161 0.951 . S
C160 C155 1.491 . S
C160 C162 1.382 . S
C160 C164 1.404 . S
H161 C159 0.951 . S
C162 C160 1.382 . S
C162 C163 1.390 . S
C162 H167 0.949 . S
C163 C162 1.390 . S
C163 C168 1.399 . S
C164 C160 1.404 . S
C164 H165 0.950 . S
C164 C166 1.375 . S
H165 C164 0.950 . S
C166 C164 1.375 . S
C166 C168 1.382 . S
C166 H170 0.950 . S
H167 C162 0.949 . S
C168 C163 1.399 . S
C168 C166 1.382 . S
C168 H169 0.952 . S
H169 C168 0.952 . S
H170 C166 0.950 . S
H171 C172 0.949 . S
C172 H171 0.949 . S
C172 C173 1.395 . S
C172 C174 1.391 . S
C173 C172 1.395 . S
C173 C176 1.390 . S
C174 C172 1.391 . S
C174 C178 1.387 . S
C174 C179 1.491 . S
H175 C176 0.950 . S
C176 C173 1.390 . S
C176 H175 0.950 . S
C176 C177 1.378 . S
C177 C176 1.378 . S
C177 C178 1.409 . S
C178 C174 1.387 . S
C178 C177 1.409 . S
C178 H180 0.951 . S
C179 C174 1.491 . S
C179 C181 1.382 . S
C179 C183 1.404 . S
H180 C178 0.951 . S
C181 C179 1.382 . S
C181 C182 1.390 . S
C181 H186 0.949 . S
C182 C181 1.390 . S
C182 C187 1.398 1_556 S
C183 C179 1.404 . S
C183 H184 0.950 . S
C183 C185 1.375 1_556 S
H184 C183 0.950 . S
C185 C183 1.375 1_554 S
C185 C187 1.383 . S
C185 H189 0.950 . S
H186 C181 0.949 . S
C187 C182 1.398 1_554 S
C187 C185 1.383 . S
C187 H188 0.952 . S
H188 C187 0.952 . S
H189 C185 0.950 . S
H190 C191 0.949 . S
C191 H190 0.949 . S
C191 C192 1.395 . S
C191 C193 1.391 . S
C192 C191 1.395 . S
C192 C195 1.390 . S
C193 C191 1.391 . S
C193 C197 1.387 1_556 S
C193 C198 1.491 1_556 S
H194 C195 0.950 . S
C195 C192 1.390 . S
C195 H194 0.950 . S
C195 C196 1.378 . S
C196 C195 1.378 . S
C196 C197 1.409 1_556 S
C197 C193 1.387 1_554 S
C197 C196 1.409 1_554 S
C197 H199 0.951 . S
C198 C193 1.491 1_554 S
C198 C200 1.382 . S
C198 C202 1.404 . S
H199 C197 0.951 . S
C200 C198 1.382 . S
C200 C201 1.390 . S
C200 H205 0.949 1_554 S
C201 C200 1.390 . S
C201 C206 1.399 . S
C202 C198 1.404 . S
C202 H203 0.950 . S
C202 C204 1.375 . S
H203 C202 0.950 . S
C204 C202 1.375 . S
C204 C206 1.382 . S
C204 H208 0.950 . S
H205 C200 0.949 1_556 S
C206 C201 1.399 . S
C206 C204 1.382 . S
C206 H207 0.952 . S
H207 C206 0.952 . S
H208 C204 0.950 . S
H209 C210 0.949 . S
C210 H209 0.949 . S
C210 C211 1.395 . S
C210 C212 1.391 . S
C211 C210 1.395 . S
C211 C214 1.390 . S
C212 C210 1.391 . S
C212 C216 1.387 . S
C212 C217 1.491 . S
H213 C214 0.950 . S
C214 C211 1.390 . S
C214 H213 0.950 . S
C214 C215 1.378 . S
C215 C214 1.378 . S
C215 C216 1.409 . S
C216 C212 1.387 . S
C216 C215 1.409 . S
C216 H218 0.951 1_556 S
C217 C212 1.491 . S
C217 C219 1.382 . S
C217 C221 1.404 1_556 S
H218 C216 0.951 1_554 S
C219 C217 1.382 . S
C219 C220 1.390 . S
C219 H224 0.949 . S
C220 C219 1.390 . S
C220 C225 1.399 1_556 S
C221 C217 1.404 1_554 S
C221 H222 0.950 . S
C221 C223 1.375 . S
H222 C221 0.950 . S
C223 C221 1.375 . S
C223 C225 1.382 . S
C223 H227 0.950 . S
H224 C219 0.949 . S
C225 C220 1.399 1_554 S
C225 C223 1.382 . S
C225 H226 0.952 . S
H226 C225 0.952 . S
H227 C223 0.950 . S
H228 C229 0.949 . S
C229 H228 0.949 . S
C229 C230 1.395 . S
C229 C231 1.391 . S
C230 C229 1.395 . S
C230 C233 1.390 . S
C231 C229 1.391 . S
C231 C235 1.387 . S
C231 C236 1.491 . S
H232 C233 0.950 . S
C233 C230 1.390 . S
C233 H232 0.950 . S
C233 C234 1.378 . S
C234 C233 1.378 . S
C234 C235 1.409 . S
C235 C231 1.387 . S
C235 C234 1.409 . S
C235 H237 0.951 1_554 S
C236 C231 1.491 . S
C236 C238 1.382 . S
C236 C240 1.404 1_554 S
H237 C235 0.951 1_556 S
C238 C236 1.382 . S
C238 C239 1.390 1_554 S
C238 H243 0.949 . S
C239 C238 1.390 1_556 S
C239 C244 1.399 . S
C240 C236 1.404 1_556 S
C240 H241 0.950 . S
C240 C242 1.375 . S
H241 C240 0.950 . S
C242 C240 1.375 . S
C242 C244 1.382 . S
C242 H246 0.950 . S
H243 C238 0.949 . S
C244 C239 1.399 . S
C244 C242 1.382 . S
C244 H245 0.952 . S
H245 C244 0.952 . S
H246 C242 0.950 . S
H247 C248 0.949 . S
C248 H247 0.949 . S
C248 C249 1.395 . S
C248 C250 1.391 . S
C249 C248 1.395 . S
C249 C252 1.390 . S
C250 C248 1.391 . S
C250 C254 1.387 . S
C250 C255 1.491 . S
H251 C252 0.950 . S
C252 C249 1.390 . S
C252 H251 0.950 . S
C252 C253 1.378 . S
C253 C252 1.378 . S
C253 C254 1.409 . S
C254 C250 1.387 . S
C254 C253 1.409 . S
C254 H256 0.951 1_554 S
C255 C250 1.491 . S
C255 C257 1.382 . S
C255 C259 1.404 1_554 S
H256 C254 0.951 1_556 S
C257 C255 1.382 . S
C257 C258 1.390 1_554 S
C257 H262 0.949 . S
C258 C257 1.390 1_556 S
C258 C263 1.399 . S
C259 C255 1.404 1_556 S
C259 H260 0.950 . S
C259 C261 1.375 . S
H260 C259 0.950 . S
C261 C259 1.375 . S
C261 C263 1.382 . S
C261 H265 0.950 . S
H262 C257 0.949 . S
C263 C258 1.399 . S
C263 C261 1.382 . S
C263 H264 0.952 . S
H264 C263 0.952 . S
H265 C261 0.950 . S
H266 C267 0.949 . S
C267 H266 0.949 . S
C267 C268 1.395 . S
C267 C269 1.391 . S
C268 C267 1.395 . S
C268 C271 1.390 . S
C269 C267 1.391 . S
C269 C273 1.387 . S
C269 C274 1.491 . S
H270 C271 0.950 . S
C271 C268 1.390 . S
C271 H270 0.950 . S
C271 C272 1.378 . S
C272 C271 1.378 . S
C272 C273 1.409 . S
C273 C269 1.387 . S
C273 C272 1.409 . S
C273 H275 0.951 . S
C274 C269 1.491 . S
C274 C276 1.382 . S
C274 C278 1.404 . S
H275 C273 0.951 . S
C276 C274 1.382 . S
C276 C277 1.390 . S
C276 H281 0.949 . S
C277 C276 1.390 . S
C277 C282 1.399 . S
C278 C274 1.404 . S
C278 H279 0.950 . S
C278 C280 1.375 . S
H279 C278 0.950 . S
C280 C278 1.375 . S
C280 C282 1.382 . S
C280 H284 0.950 1_554 S
H281 C276 0.949 . S
C282 C277 1.399 . S
C282 C280 1.382 . S
C282 H283 0.952 . S
H283 C282 0.952 . S
H284 C280 0.950 1_556 S
H285 C286 0.949 . S
C286 H285 0.949 . S
C286 C287 1.395 . S
C286 C288 1.391 . S
C287 C286 1.395 . S
C287 C290 1.390 . S
C288 C286 1.391 . S
C288 C292 1.387 . S
C288 C293 1.491 . S
H289 C290 0.950 . S
C290 C287 1.390 . S
C290 H289 0.950 . S
C290 C291 1.378 . S
C291 C290 1.378 . S
C291 C292 1.409 . S
C292 C288 1.387 . S
C292 C291 1.409 . S
C292 H294 0.951 . S
C293 C288 1.491 . S
C293 C295 1.382 . S
C293 C297 1.404 . S
H294 C292 0.951 . S
C295 C293 1.382 . S
C295 C296 1.390 . S
C295 H300 0.949 . S
C296 C295 1.390 . S
C296 C301 1.399 . S
C297 C293 1.404 . S
C297 H298 0.950 . S
C297 C299 1.375 . S
H298 C297 0.950 . S
C299 C297 1.375 . S
C299 C301 1.382 . S
C299 H303 0.950 . S
H300 C295 0.949 . S
C301 C296 1.399 . S
C301 C299 1.382 . S
C301 H302 0.952 . S
H302 C301 0.952 . S
H303 C299 0.950 . S
H304 C305 0.949 . S
C305 H304 0.949 . S
C305 C306 1.395 . S
C305 C307 1.391 . S
C306 C305 1.395 . S
C306 C309 1.390 . S
C307 C305 1.391 . S
C307 C311 1.387 . S
C307 C312 1.491 . S
H308 C309 0.950 . S
C309 C306 1.390 . S
C309 H308 0.950 . S
C309 C310 1.378 . S
C310 C309 1.378 . S
C310 C311 1.409 . S
C311 C307 1.387 . S
C311 C310 1.409 . S
C311 H313 0.951 . S
C312 C307 1.491 . S
C312 C314 1.382 . S
C312 C316 1.404 . S
H313 C311 0.951 . S
C314 C312 1.382 . S
C314 C315 1.390 . S
C314 H319 0.949 . S
C315 C314 1.390 . S
C315 C320 1.399 . S
C316 C312 1.404 . S
C316 H317 0.950 . S
C316 C318 1.375 . S
H317 C316 0.950 . S
C318 C316 1.375 . S
C318 C320 1.382 . S
C318 H322 0.950 . S
H319 C314 0.949 . S
C320 C315 1.399 . S
C320 C318 1.382 . S
C320 H321 0.952 . S
H321 C320 0.952 . S
H322 C318 0.950 . S
H323 C324 0.949 . S
C324 H323 0.949 . S
C324 C325 1.395 . S
C324 C326 1.391 . S
C325 C324 1.395 . S
C325 C328 1.390 . S
C326 C324 1.391 . S
C326 C330 1.387 . S
C326 C331 1.491 . S
H327 C328 0.950 . S
C328 C325 1.390 . S
C328 H327 0.950 . S
C328 C329 1.378 . S
C329 C328 1.378 . S
C329 C330 1.409 . S
C330 C326 1.387 . S
C330 C329 1.409 . S
C330 H332 0.951 . S
C331 C326 1.491 . S
C331 C333 1.382 . S
C331 C335 1.404 . S
H332 C330 0.951 . S
C333 C331 1.382 . S
C333 C334 1.390 . S
C333 H338 0.949 . S
C334 C333 1.390 . S
C334 C339 1.399 . S
C335 C331 1.404 . S
C335 H336 0.950 . S
C335 C337 1.375 . S
H336 C335 0.950 . S
C337 C335 1.375 . S
C337 C339 1.382 . S
C337 H341 0.950 . S
H338 C333 0.949 . S
C339 C334 1.399 . S
C339 C337 1.382 . S
C339 H340 0.952 . S
H340 C339 0.952 . S
H341 C337 0.950 . S
Eu342 C351 2.828 1_565 S
Eu342 O353 2.392 . S
Eu342 O355 2.418 . S
Eu342 O360 2.373 1_565 S
Eu342 O363 2.488 . S
Eu342 O364 2.471 1_565 S
Eu342 O365 2.349 1_565 S
Eu343 O352 2.373 1_545 S
Eu343 O356 2.488 . S
Eu343 O357 2.471 1_545 S
Eu343 O358 2.349 1_545 S
Eu343 O361 2.392 . S
Eu343 O362 2.418 . S
Eu343 C372 2.828 . S
C344 O362 1.244 . S
C344 O365 1.265 1_554 S
C345 C346 1.379 . S
C345 C349 1.373 . S
C345 C351 1.505 . S
C346 C345 1.379 . S
C346 C348 1.369 . S
C346 H374 0.930 . S
C347 C349 1.383 . S
C347 C350 1.382 . S
C347 H375 0.930 1_545 S
C348 C346 1.369 . S
C348 C350 1.392 . S
C348 H376 0.930 . S
C349 C345 1.373 . S
C349 C347 1.383 . S
C349 H377 0.931 1_545 S
C350 C347 1.382 . S
C350 C348 1.392 . S
C351 Eu342 2.828 1_545 S
C351 C345 1.505 . S
C351 O363 1.249 1_545 S
C351 O364 1.244 . S
O352 Eu343 2.373 1_565 S
O352 C354 1.258 . S
O353 Eu342 2.392 . S
O353 C354 1.242 1_556 S
C354 O352 1.258 . S
C354 O353 1.242 1_554 S
O355 Eu342 2.418 . S
O355 C359 1.244 . S
O356 Eu343 2.488 . S
O356 C372 1.249 . S
O357 Eu343 2.471 1_565 S
O357 C372 1.244 1_565 S
O358 Eu343 2.349 1_565 S
O358 C359 1.265 1_554 S
C359 O355 1.244 . S
C359 O358 1.265 1_556 S
O360 Eu342 2.373 1_545 S
O360 C373 1.258 . S
O361 Eu343 2.392 . S
O361 C373 1.242 1_554 S
O362 Eu343 2.418 . S
O362 C344 1.244 . S
O363 Eu342 2.488 . S
O363 C351 1.249 1_565 S
O364 Eu342 2.471 1_545 S
O364 C351 1.244 . S
O365 Eu342 2.349 1_545 S
O365 C344 1.265 1_556 S
C366 C367 1.379 . S
C366 C370 1.373 1_565 S
C366 C372 1.505 1_565 S
C367 C366 1.379 . S
C367 C369 1.369 . S
C367 H378 0.930 . S
C368 C370 1.383 1_565 S
C368 C371 1.382 . S
C368 H379 0.930 1_565 S
C369 C367 1.369 . S
C369 C371 1.392 . S
C369 H380 0.930 . S
C370 C366 1.373 1_545 S
C370 C368 1.383 1_545 S
C370 H381 0.931 . S
C371 C368 1.382 . S
C371 C369 1.392 . S
C372 Eu343 2.828 . S
C372 O356 1.249 . S
C372 O357 1.244 1_545 S
C372 C366 1.505 1_545 S
C373 O360 1.258 . S
C373 O361 1.242 1_556 S
H374 C346 0.930 . S
H375 C347 0.930 1_565 S
H376 C348 0.930 . S
H377 C349 0.931 1_565 S
H378 C367 0.930 . S
H379 C368 0.930 1_545 S
H380 C369 0.930 . S
H381 C370 0.931 . S
Eu382 C391 2.828 1_455 S
Eu382 O393 2.412 . S
Eu382 O395 2.418 . S
Eu382 O400 2.373 1_455 S
Eu382 O403 2.488 . S
Eu382 O404 2.471 1_455 S
Eu382 O405 2.349 1_455 S
Eu383 O392 2.373 1_655 S
Eu383 O396 2.488 . S
Eu383 O397 2.471 1_655 S
Eu383 O398 2.349 1_655 S
Eu383 O401 2.392 . S
Eu383 O402 2.418 . S
Eu383 C412 2.828 1_655 S
C384 O402 1.244 1_556 S
C384 O405 1.265 . S
C385 C386 1.379 . S
C385 C389 1.378 . S
C385 C391 1.505 . S
C386 C385 1.379 . S
C386 C388 1.369 . S
C386 H414 0.930 . S
C387 C389 1.390 . S
C387 C390 1.382 . S
C387 H415 0.930 . S
C388 C386 1.369 . S
C388 C390 1.392 . S
C388 H416 0.930 . S
C389 C385 1.378 . S
C389 C387 1.390 . S
C389 H417 0.918 1_655 S
C390 C387 1.382 . S
C390 C388 1.392 . S
C391 Eu382 2.828 1_655 S
C391 C385 1.505 . S
C391 O403 1.249 1_655 S
C391 O404 1.244 . S
O392 Eu383 2.373 1_455 S
O392 C394 1.258 . S
O393 Eu382 2.412 . S
O393 C394 1.215 1_556 S
C394 O392 1.258 . S
C394 O393 1.215 1_554 S
O395 Eu382 2.418 . S
O395 C399 1.244 1_556 S
O396 Eu383 2.488 . S
O396 C412 1.249 1_655 S
O397 Eu383 2.471 1_455 S
O397 C412 1.244 . S
O398 Eu383 2.349 1_455 S
O398 C399 1.265 . S
C399 O395 1.244 1_554 S
C399 O398 1.265 . S
O400 Eu382 2.373 1_655 S
O400 C413 1.258 . S
O401 Eu383 2.392 . S
O401 C413 1.242 1_554 S
O402 Eu383 2.418 . S
O402 C384 1.244 1_554 S
O403 Eu382 2.488 . S
O403 C391 1.249 1_455 S
O404 Eu382 2.471 1_655 S
O404 C391 1.244 . S
O405 Eu382 2.349 1_655 S
O405 C384 1.265 . S
C406 C407 1.379 . S
C406 C410 1.373 . S
C406 C412 1.505 . S
C407 C406 1.379 . S
C407 C409 1.369 . S
C407 H418 0.930 . S
C408 C410 1.383 . S
C408 C411 1.382 . S
C408 H419 0.930 . S
C409 C407 1.369 . S
C409 C411 1.392 . S
C409 H420 0.930 . S
C410 C406 1.373 . S
C410 C408 1.383 . S
C410 H421 0.931 1_455 S
C411 C408 1.382 . S
C411 C409 1.392 . S
C412 Eu383 2.828 1_455 S
C412 O396 1.249 1_455 S
C412 O397 1.244 . S
C412 C406 1.505 . S
C413 O400 1.258 . S
C413 O401 1.242 1_556 S
H414 C386 0.930 . S
H415 C387 0.930 . S
H416 C388 0.930 . S
H417 C389 0.918 1_455 S
H418 C407 0.930 . S
H419 C408 0.930 . S
H420 C409 0.930 . S
H421 C410 0.931 1_655 S
Eu422 C431 2.828 . S
Eu422 O433 2.392 . S
Eu422 O435 2.418 . S
Eu422 O440 2.373 . S
Eu422 O443 2.488 . S
Eu422 O444 2.471 . S
Eu422 O445 2.349 . S
Eu423 O432 2.373 . S
Eu423 O436 2.488 . S
Eu423 O437 2.471 . S
Eu423 O438 2.349 . S
Eu423 O441 2.392 1_556 S
Eu423 O442 2.418 . S
Eu423 C452 2.828 . S
C424 O442 1.244 1_554 S
C424 O445 1.265 . S
C425 C426 1.379 . S
C425 C429 1.373 . S
C425 C431 1.505 . S
C426 C425 1.379 . S
C426 C428 1.369 . S
C426 H454 0.930 . S
C427 C429 1.383 . S
C427 C430 1.382 . S
C427 H455 0.930 . S
C428 C426 1.369 . S
C428 C430 1.392 . S
C428 H456 0.930 . S
C429 C425 1.373 . S
C429 C427 1.383 . S
C429 H457 0.931 . S
C430 C427 1.382 . S
C430 C428 1.392 . S
C431 Eu422 2.828 . S
C431 C425 1.505 . S
C431 O443 1.249 . S
C431 O444 1.244 . S
O432 Eu423 2.373 . S
O432 C434 1.258 . S
O433 Eu422 2.392 . S
O433 C434 1.242 1_554 S
C434 O432 1.258 . S
C434 O433 1.242 1_556 S
O435 Eu422 2.418 . S
O435 C439 1.244 . S
O436 Eu423 2.488 . S
O436 C452 1.249 . S
O437 Eu423 2.471 . S
O437 C452 1.244 . S
O438 Eu423 2.349 . S
O438 C439 1.265 1_556 S
C439 O435 1.244 . S
C439 O438 1.265 1_554 S
O440 Eu422 2.373 . S
O440 C453 1.258 . S
O441 Eu423 2.392 1_554 S
O441 C453 1.242 . S
O442 Eu423 2.418 . S
O442 C424 1.244 1_556 S
O443 Eu422 2.488 . S
O443 C431 1.249 . S
O444 Eu422 2.471 . S
O444 C431 1.244 . S
O445 Eu422 2.349 . S
O445 C424 1.265 . S
C446 C447 1.379 . S
C446 C450 1.373 . S
C446 C452 1.505 . S
C447 C446 1.379 . S
C447 C449 1.369 . S
C447 H458 0.930 . S
C448 C450 1.383 . S
C448 C451 1.382 . S
C448 H459 0.930 . S
C449 C447 1.369 . S
C449 C451 1.392 . S
C449 H460 0.930 . S
C450 C446 1.373 . S
C450 C448 1.383 . S
C450 H461 0.931 . S
C451 C448 1.382 . S
C451 C449 1.392 . S
C452 Eu423 2.828 . S
C452 O436 1.249 . S
C452 O437 1.244 . S
C452 C446 1.505 . S
C453 O440 1.258 . S
C453 O441 1.242 . S
H454 C426 0.930 . S
H455 C427 0.930 . S
H456 C428 0.930 . S
H457 C429 0.931 . S
H458 C447 0.930 . S
H459 C448 0.930 . S
H460 C449 0.930 . S
H461 C450 0.931 . S
Eu462 C471 2.828 . S
Eu462 O473 2.392 . S
Eu462 O475 2.418 . S
Eu462 O480 2.373 . S
Eu462 O483 2.488 . S
Eu462 O484 2.471 . S
Eu462 O485 2.349 . S
Eu463 O472 2.373 . S
Eu463 O476 2.488 . S
Eu463 O477 2.471 . S
Eu463 O478 2.349 . S
Eu463 O481 2.392 . S
Eu463 O482 2.418 . S
Eu463 C492 2.828 . S
C464 O482 1.244 . S
C464 O485 1.265 . S
C465 C466 1.379 . S
C465 C469 1.373 . S
C465 C471 1.505 . S
C466 C465 1.379 . S
C466 C468 1.369 . S
C466 H494 0.930 . S
C467 C469 1.383 . S
C467 C470 1.382 . S
C467 H495 0.930 . S
C468 C466 1.369 . S
C468 C470 1.392 . S
C468 H496 0.930 . S
C469 C465 1.373 . S
C469 C467 1.383 . S
C469 H497 0.931 . S
C470 C467 1.382 . S
C470 C468 1.392 . S
C471 Eu462 2.828 . S
C471 C465 1.505 . S
C471 O483 1.249 . S
C471 O484 1.244 . S
O472 Eu463 2.373 . S
O472 C474 1.258 . S
O473 Eu462 2.392 . S
O473 C474 1.242 . S
C474 O472 1.258 . S
C474 O473 1.242 . S
O475 Eu462 2.418 . S
O475 C479 1.244 . S
O476 Eu463 2.488 . S
O476 C492 1.249 . S
O477 Eu463 2.471 . S
O477 C492 1.244 . S
O478 Eu463 2.349 . S
O478 C479 1.265 . S
C479 O475 1.244 . S
C479 O478 1.265 . S
O480 Eu462 2.373 . S
O480 C493 1.258 . S
O481 Eu463 2.392 . S
O481 C493 1.242 . S
O482 Eu463 2.418 . S
O482 C464 1.244 . S
O483 Eu462 2.488 . S
O483 C471 1.249 . S
O484 Eu462 2.471 . S
O484 C471 1.244 . S
O485 Eu462 2.349 . S
O485 C464 1.265 . S
C486 C487 1.379 . S
C486 C490 1.373 . S
C486 C492 1.505 . S
C487 C486 1.379 . S
C487 C489 1.369 . S
C487 H498 0.930 . S
C488 C490 1.383 . S
C488 C491 1.382 . S
C488 H499 0.930 . S
C489 C487 1.369 . S
C489 C491 1.392 . S
C489 H500 0.930 . S
C490 C486 1.373 . S
C490 C488 1.383 . S
C490 H501 0.931 . S
C491 C488 1.382 . S
C491 C489 1.392 . S
C492 Eu463 2.828 . S
C492 O476 1.249 . S
C492 O477 1.244 . S
C492 C486 1.505 . S
C493 O480 1.258 . S
C493 O481 1.242 . S
H494 C466 0.930 . S
H495 C467 0.930 . S
H496 C468 0.930 . S
H497 C469 0.931 . S
H498 C487 0.930 . S
H499 C488 0.930 . S
H500 C489 0.930 . S
H501 C490 0.931 . S
Eu502 C511 2.828 . S
Eu502 O513 2.392 . S
Eu502 O515 2.418 . S
Eu502 O520 2.373 . S
Eu502 O523 2.488 . S
Eu502 O524 2.471 . S
Eu502 O525 2.349 . S
Eu503 O512 2.373 . S
Eu503 O516 2.488 . S
Eu503 O517 2.471 . S
Eu503 O518 2.349 . S
Eu503 O521 2.392 . S
Eu503 O522 2.418 . S
Eu503 C532 2.828 . S
C504 O522 1.244 . S
C504 O525 1.265 . S
C505 C506 1.379 . S
C505 C509 1.373 . S
C505 C511 1.505 . S
C506 C505 1.379 . S
C506 C508 1.369 . S
C506 H534 0.930 . S
C507 C509 1.383 . S
C507 C510 1.382 . S
C507 H535 0.930 . S
C508 C506 1.369 . S
C508 C510 1.392 . S
C508 H536 0.930 . S
C509 C505 1.373 . S
C509 C507 1.383 . S
C509 H537 0.931 . S
C510 C507 1.382 . S
C510 C508 1.392 . S
C511 Eu502 2.828 . S
C511 C505 1.505 . S
C511 O523 1.249 . S
C511 O524 1.244 . S
O512 Eu503 2.373 . S
O512 C514 1.258 . S
O513 Eu502 2.392 . S
O513 C514 1.242 . S
C514 O512 1.258 . S
C514 O513 1.242 . S
O515 Eu502 2.418 . S
O515 C519 1.244 . S
O516 Eu503 2.488 . S
O516 C532 1.249 . S
O517 Eu503 2.471 . S
O517 C532 1.244 . S
O518 Eu503 2.349 . S
O518 C519 1.265 . S
C519 O515 1.244 . S
C519 O518 1.265 . S
O520 Eu502 2.373 . S
O520 C533 1.258 . S
O521 Eu503 2.392 . S
O521 C533 1.242 . S
O522 Eu503 2.418 . S
O522 C504 1.244 . S
O523 Eu502 2.488 . S
O523 C511 1.249 . S
O524 Eu502 2.471 . S
O524 C511 1.244 . S
O525 Eu502 2.349 . S
O525 C504 1.265 . S
C526 C527 1.379 . S
C526 C530 1.373 . S
C526 C532 1.505 . S
C527 C526 1.379 . S
C527 C529 1.369 . S
C527 H538 0.930 . S
C528 C530 1.383 . S
C528 C531 1.382 . S
C528 H539 0.930 . S
C529 C527 1.369 . S
C529 C531 1.392 . S
C529 H540 0.930 . S
C530 C526 1.373 . S
C530 C528 1.383 . S
C530 H541 0.931 . S
C531 C528 1.382 . S
C531 C529 1.392 . S
C532 Eu503 2.828 . S
C532 O516 1.249 . S
C532 O517 1.244 . S
C532 C526 1.505 . S
C533 O520 1.258 . S
C533 O521 1.242 . S
H534 C506 0.930 . S
H535 C507 0.930 . S
H536 C508 0.930 . S
H537 C509 0.931 . S
H538 C527 0.930 . S
H539 C528 0.930 . S
H540 C529 0.930 . S
H541 C530 0.931 . S
Eu542 C551 2.828 . S
Eu542 O553 2.392 . S
Eu542 O555 2.418 . S
Eu542 O560 2.373 . S
Eu542 O563 2.488 . S
Eu542 O564 2.471 . S
Eu542 O565 2.349 . S
Eu543 O552 2.373 . S
Eu543 O556 2.488 . S
Eu543 O557 2.471 . S
Eu543 O558 2.349 . S
Eu543 O561 2.392 . S
Eu543 O562 2.418 1_565 S
Eu543 C572 2.828 . S
C544 O562 1.244 . S
C544 O565 1.265 1_545 S
C545 C546 1.379 . S
C545 C549 1.373 . S
C545 C551 1.505 . S
C546 C545 1.379 . S
C546 C548 1.369 . S
C546 H574 0.930 . S
C547 C549 1.383 . S
C547 C550 1.382 . S
C547 H575 0.930 . S
C548 C546 1.369 . S
C548 C550 1.392 . S
C548 H576 0.930 . S
C549 C545 1.373 . S
C549 C547 1.383 . S
C549 H577 0.931 . S
C550 C547 1.382 . S
C550 C548 1.392 . S
C551 Eu542 2.828 . S
C551 C545 1.505 . S
C551 O563 1.249 . S
C551 O564 1.244 . S
O552 Eu543 2.373 . S
O552 C554 1.258 . S
O553 Eu542 2.392 . S
O553 C554 1.242 . S
C554 O552 1.258 . S
C554 O553 1.242 . S
O555 Eu542 2.418 . S
O555 C559 1.244 . S
O556 Eu543 2.488 . S
O556 C572 1.249 . S
O557 Eu543 2.471 . S
O557 C572 1.244 . S
O558 Eu543 2.349 . S
O558 C559 1.265 . S
C559 O555 1.244 . S
C559 O558 1.265 . S
O560 Eu542 2.373 . S
O560 C573 1.258 . S
O561 Eu543 2.392 . S
O561 C573 1.242 . S
O562 Eu543 2.418 1_545 S
O562 C544 1.244 . S
O563 Eu542 2.488 . S
O563 C551 1.249 . S
O564 Eu542 2.471 . S
O564 C551 1.244 . S
O565 Eu542 2.349 . S
O565 C544 1.265 1_565 S
C566 C567 1.379 . S
C566 C570 1.373 . S
C566 C572 1.505 . S
C567 C566 1.379 . S
C567 C569 1.369 . S
C567 H578 0.930 . S
C568 C570 1.383 . S
C568 C571 1.382 . S
C568 H579 0.930 . S
C569 C567 1.369 . S
C569 C571 1.392 . S
C569 H580 0.930 . S
C570 C566 1.373 . S
C570 C568 1.383 . S
C570 H581 0.931 . S
C571 C568 1.382 . S
C571 C569 1.392 . S
C572 Eu543 2.828 . S
C572 O556 1.249 . S
C572 O557 1.244 . S
C572 C566 1.505 . S
C573 O560 1.258 . S
C573 O561 1.242 . S
H574 C546 0.930 . S
H575 C547 0.930 . S
H576 C548 0.930 . S
H577 C549 0.931 . S
H578 C567 0.930 . S
H579 C568 0.930 . S
H580 C569 0.930 . S
H581 C570 0.931 . S
Eu582 C591 2.828 . S
Eu582 O593 2.392 . S
Eu582 O595 2.418 . S
Eu582 O600 2.373 . S
Eu582 O603 2.488 . S
Eu582 O604 2.471 . S
Eu582 O605 2.349 . S
Eu583 O592 2.373 . S
Eu583 O596 2.488 . S
Eu583 O597 2.471 . S
Eu583 O598 2.349 . S
Eu583 O601 2.392 . S
Eu583 O602 2.418 . S
Eu583 C612 2.828 . S
C584 O602 1.244 . S
C584 O605 1.265 . S
C585 C586 1.379 . S
C585 C589 1.373 . S
C585 C591 1.505 . S
C586 C585 1.379 . S
C586 C588 1.369 . S
C586 H614 0.930 . S
C587 C589 1.383 . S
C587 C590 1.382 . S
C587 H615 0.930 . S
C588 C586 1.369 . S
C588 C590 1.392 . S
C588 H616 0.930 . S
C589 C585 1.373 . S
C589 C587 1.383 . S
C589 H617 0.931 . S
C590 C587 1.382 . S
C590 C588 1.392 . S
C591 Eu582 2.828 . S
C591 C585 1.505 . S
C591 O603 1.249 . S
C591 O604 1.244 . S
O592 Eu583 2.373 . S
O592 C594 1.258 . S
O593 Eu582 2.392 . S
O593 C594 1.242 . S
C594 O592 1.258 . S
C594 O593 1.242 . S
O595 Eu582 2.418 . S
O595 C599 1.244 . S
O596 Eu583 2.488 . S
O596 C612 1.249 . S
O597 Eu583 2.471 . S
O597 C612 1.244 . S
O598 Eu583 2.349 . S
O598 C599 1.265 . S
C599 O595 1.244 . S
C599 O598 1.265 . S
O600 Eu582 2.373 . S
O600 C613 1.258 . S
O601 Eu583 2.392 . S
O601 C613 1.242 . S
O602 Eu583 2.418 . S
O602 C584 1.244 . S
O603 Eu582 2.488 . S
O603 C591 1.249 . S
O604 Eu582 2.471 . S
O604 C591 1.244 . S
O605 Eu582 2.349 . S
O605 C584 1.265 . S
C606 C607 1.379 . S
C606 C610 1.373 . S
C606 C612 1.505 . S
C607 C606 1.379 . S
C607 C609 1.369 . S
C607 H618 0.930 . S
C608 C610 1.383 . S
C608 C611 1.382 . S
C608 H619 0.930 . S
C609 C607 1.369 . S
C609 C611 1.392 . S
C609 H620 0.930 . S
C610 C606 1.373 . S
C610 C608 1.383 . S
C610 H621 0.931 . S
C611 C608 1.382 . S
C611 C609 1.392 . S
C612 Eu583 2.828 . S
C612 O596 1.249 . S
C612 O597 1.244 . S
C612 C606 1.505 . S
C613 O600 1.258 . S
C613 O601 1.242 . S
H614 C586 0.930 . S
H615 C587 0.930 . S
H616 C588 0.930 . S
H617 C589 0.931 . S
H618 C607 0.930 . S
H619 C608 0.930 . S
H620 C609 0.930 . S
H621 C610 0.931 . S
Eu622 C631 2.828 . S
Eu622 O633 2.392 . S
Eu622 O635 2.418 . S
Eu622 O640 2.373 . S
Eu622 O643 2.488 . S
Eu622 O644 2.471 . S
Eu622 O645 2.349 . S
Eu623 O632 2.373 . S
Eu623 O636 2.488 . S
Eu623 O637 2.471 . S
Eu623 O638 2.349 . S
Eu623 O641 2.392 . S
Eu623 O642 2.418 . S
Eu623 C652 2.828 . S
C624 O642 1.245 . S
C624 O645 1.274 . S
C625 C626 1.379 . S
C625 C629 1.373 . S
C625 C631 1.505 . S
C626 C625 1.379 . S
C626 C628 1.369 . S
C626 H654 0.930 . S
C627 C629 1.383 . S
C627 C630 1.382 . S
C627 H655 0.930 . S
C628 C626 1.369 . S
C628 C630 1.392 . S
C628 H656 0.930 . S
C629 C625 1.373 . S
C629 C627 1.383 . S
C629 H657 0.931 . S
C630 C627 1.382 . S
C630 C628 1.392 . S
C631 Eu622 2.828 . S
C631 C625 1.505 . S
C631 O643 1.249 . S
C631 O644 1.244 . S
O632 Eu623 2.373 . S
O632 C634 1.258 . S
O633 Eu622 2.392 . S
O633 C634 1.242 . S
C634 O632 1.258 . S
C634 O633 1.242 . S
O635 Eu622 2.418 . S
O635 C639 1.244 . S
O636 Eu623 2.488 . S
O636 C652 1.249 . S
O637 Eu623 2.471 . S
O637 C652 1.244 . S
O638 Eu623 2.349 . S
O638 C639 1.265 . S
C639 O635 1.244 . S
C639 O638 1.265 . S
O640 Eu622 2.373 . S
O640 C653 1.258 . S
O641 Eu623 2.392 . S
O641 C653 1.242 . S
O642 Eu623 2.418 . S
O642 C624 1.245 . S
O643 Eu622 2.488 . S
O643 C631 1.249 . S
O644 Eu622 2.471 . S
O644 C631 1.244 . S
O645 Eu622 2.349 . S
O645 C624 1.274 . S
C646 C647 1.379 . S
C646 C650 1.373 . S
C646 C652 1.505 . S
C647 C646 1.379 . S
C647 C649 1.369 . S
C647 H658 0.930 . S
C648 C650 1.383 . S
C648 C651 1.382 . S
C648 H659 0.930 . S
C649 C647 1.369 . S
C649 C651 1.392 . S
C649 H660 0.930 . S
C650 C646 1.373 . S
C650 C648 1.383 . S
C650 H661 0.931 . S
C651 C648 1.382 . S
C651 C649 1.392 . S
C652 Eu623 2.828 . S
C652 O636 1.249 . S
C652 O637 1.244 . S
C652 C646 1.505 . S
C653 O640 1.258 . S
C653 O641 1.242 . S
H654 C626 0.930 . S
H655 C627 0.930 . S
H656 C628 0.930 . S
H657 C629 0.931 . S
H658 C647 0.930 . S
H659 C648 0.930 . S
H660 C649 0.930 . S
H661 C650 0.931 . S
Eu662 C671 2.828 . S
Eu662 O673 2.392 . S
Eu662 O675 2.418 . S
Eu662 O680 2.373 . S
Eu662 O683 2.488 . S
Eu662 O684 2.471 . S
Eu662 O685 2.349 . S
Eu663 O672 2.373 . S
Eu663 O676 2.488 . S
Eu663 O677 2.471 . S
Eu663 O678 2.349 . S
Eu663 O681 2.392 . S
Eu663 O682 2.418 . S
Eu663 C692 2.828 . S
C664 O682 1.244 . S
C664 O685 1.265 . S
C665 C666 1.379 . S
C665 C669 1.373 . S
C665 C671 1.505 . S
C666 C665 1.379 . S
C666 C668 1.369 . S
C666 H694 0.930 . S
C667 C669 1.383 . S
C667 C670 1.382 . S
C667 H695 0.930 . S
C668 C666 1.369 . S
C668 C670 1.392 . S
C668 H696 0.930 . S
C669 C665 1.373 . S
C669 C667 1.383 . S
C669 H697 0.931 . S
C670 C667 1.382 . S
C670 C668 1.392 . S
C671 Eu662 2.828 . S
C671 C665 1.505 . S
C671 O683 1.249 . S
C671 O684 1.244 . S
O672 Eu663 2.373 . S
O672 C674 1.259 . S
O673 Eu662 2.392 . S
O673 C674 1.242 . S
C674 O672 1.259 . S
C674 O673 1.242 . S
O675 Eu662 2.418 . S
O675 C679 1.244 . S
O676 Eu663 2.488 . S
O676 C692 1.249 . S
O677 Eu663 2.471 . S
O677 C692 1.244 . S
O678 Eu663 2.349 . S
O678 C679 1.265 . S
C679 O675 1.244 . S
C679 O678 1.265 . S
O680 Eu662 2.373 . S
O680 C693 1.258 . S
O681 Eu663 2.392 . S
O681 C693 1.242 . S
O682 Eu663 2.418 . S
O682 C664 1.244 . S
O683 Eu662 2.488 . S
O683 C671 1.249 . S
O684 Eu662 2.471 . S
O684 C671 1.244 . S
O685 Eu662 2.349 . S
O685 C664 1.265 . S
C686 C687 1.379 . S
C686 C690 1.373 . S
C686 C692 1.505 . S
C687 C686 1.379 . S
C687 C689 1.369 . S
C687 H698 0.930 . S
C688 C690 1.383 . S
C688 C691 1.382 . S
C688 H699 0.930 . S
C689 C687 1.369 . S
C689 C691 1.392 . S
C689 H700 0.930 . S
C690 C686 1.373 . S
C690 C688 1.383 . S
C690 H701 0.931 . S
C691 C688 1.382 . S
C691 C689 1.392 . S
C692 Eu663 2.828 . S
C692 O676 1.249 . S
C692 O677 1.244 . S
C692 C686 1.505 . S
C693 O680 1.258 . S
C693 O681 1.242 . S
H694 C666 0.930 . S
H695 C667 0.930 . S
H696 C668 0.930 . S
H697 C669 0.931 . S
H698 C687 0.930 . S
H699 C688 0.930 . S
H700 C689 0.930 . S
H701 C690 0.931 . S
C253 C354 1.885 . S
C272 C394 2.042 . S
C234 C424 1.656 . S
C215 C384 1.552 . S
C434 C177 1.854 . S
C196 C344 1.516 1_556 S
C373 C220 1.683 . S
C413 C182 1.691 . S
C201 C439 1.819 . S
C258 C399 1.521 1_556 S
C277 C453 1.272 . S
C359 C239 1.517 . S
C474 C25 1.886 1_455 S
C44 C514 2.042 . S
C6 C544 1.656 . S
C329 C504 1.551 . S
C291 C554 1.854 . S
C310 C464 1.516 . S
C334 C493 1.683 . S
C296 C533 1.691 . S
C559 C315 1.819 . S
C30 C519 1.522 . S
C573 C49 1.272 . S
C11 C479 1.517 . S
C594 C139 1.886 . S
C158 C634 2.041 . S
C664 C120 1.656 . S
C624 C101 1.547 1_545 S
C674 C63 1.852 1_655 S
C82 C584 1.516 . S
C106 C613 1.682 . S
C68 C653 1.691 . S
C679 C87 1.819 . S
C144 C639 1.522 . S
C163 C693 1.272 . S
C125 C599 1.517 . S
C287 C371 2.218 . S
C411 C306 2.611 . S
C325 C430 1.834 . S
C116 C390 2.071 . S
C135 C451 2.090 . S
C350 C154 1.370 . S
C59 C491 2.219 . S
C78 C531 2.611 . S
C97 C550 1.833 . S
C230 C510 2.071 . S
C571 C249 2.091 . S
C268 C470 1.370 . S
C173 C611 2.219 . S
C192 C651 2.611 . S
C670 C211 1.834 . S
C2 C630 2.071 . S
C21 C691 2.091 . S
C40 C590 1.370 . S
