# Generated by pormake.
# Topology pth, (4,4)-cn, num edge types: 1
# Building blocks:
#     Node 0, Type 0, BuildingBlock: AZAVOO_clean_sbu_0, # of connection points: 4
#     Node 1, Type 0, BuildingBlock: AZAVOO_clean_sbu_0, # of connection points: 4
#     Node 2, Type 0, BuildingBlock: AZAVOO_clean_sbu_0, # of connection points: 4
#     Node 3, Type 1, BuildingBlock: AZAVOO_clean_linker_0, # of connection points: 4
#     Node 4, Type 1, BuildingBlock: AZAVOO_clean_linker_0, # of connection points: 4
#     Node 5, Type 1, BuildingBlock: AZAVOO_clean_linker_0, # of connection points: 4
#     Edge 6, Type (0, 1), BuildingBlock: EZIPEK_clean_linker_0, # of connection points: 2
#     Edge 7, Type (0, 1), BuildingBlock: EZIPEK_clean_linker_0, # of connection points: 2
#     Edge 8, Type (0, 1), BuildingBlock: EZIPEK_clean_linker_0, # of connection points: 2
#     Edge 9, Type (0, 1), BuildingBlock: EZIPEK_clean_linker_0, # of connection points: 2
#     Edge 10, Type (0, 1), BuildingBlock: EZIPEK_clean_linker_0, # of connection points: 2
#     Edge 11, Type (0, 1), BuildingBlock: EZIPEK_clean_linker_0, # of connection points: 2
#     Edge 12, Type (0, 1), BuildingBlock: EZIPEK_clean_linker_0, # of connection points: 2
#     Edge 13, Type (0, 1), BuildingBlock: EZIPEK_clean_linker_0, # of connection points: 2
#     Edge 14, Type (0, 1), BuildingBlock: EZIPEK_clean_linker_0, # of connection points: 2
#     Edge 15, Type (0, 1), BuildingBlock: EZIPEK_clean_linker_0, # of connection points: 2
#     Edge 16, Type (0, 1), BuildingBlock: EZIPEK_clean_linker_0, # of connection points: 2
#     Edge 17, Type (0, 1), BuildingBlock: EZIPEK_clean_linker_0, # of connection points: 2
# Relax obj value: 0.188
# Max RMSD: 0.232
# Mean RMSD: 0.224
data_MOF--net-pth--node1-AZAVOO_clean_sbu_0--node2-AZAVOO_clean_linker_0--edge1-EZIPEK_clean_linker_0
_symmetry_space_group_name_H-M    P1
_symmetry_Int_Tables_number       1
_symmetry_cell_setting            triclinic
loop_
_symmetry_equiv_pos_as_xyz
'x, y, z'
_cell_length_a     20.143729
_cell_length_b     20.941349
_cell_length_c     54.617613
_cell_angle_alpha  92.541634
_cell_angle_beta   91.862914
_cell_angle_gamma 122.22231
loop_
_atom_site_label
_atom_site_type_symbol
_atom_site_fract_x
_atom_site_fract_y
_atom_site_fract_z
_atom_type_partial_charge
Mg0 Mg 0.22417 0.09408 0.08336 0.0
O1 O 0.12847 0.05916 0.05242 0.0
O2 O 0.14189 0.16389 0.03835 0.0
Mg3 Mg 0.25008 0.26517 0.05928 0.0
C4 C 0.10732 0.092 0.03778 0.0
C5 C 0.19837 0.95459 0.10696 0.0
O6 O 0.27535 -0.00371 0.10692 0.0
O7 O 0.1648 0.13072 0.11012 0.0
O8 O 0.18821 0.23853 0.09558 0.0
O9 O 0.30301 0.09367 0.05572 0.0
O10 O 0.29635 0.19299 0.06717 0.0
C11 C 0.16082 0.18947 0.11163 0.0
C12 C 0.32375 0.16296 0.05298 0.0
O13 O 0.15747 0.97713 0.097 0.0
Mg14 Mg 0.90024 0.9337 0.41363 0.0
O15 O 0.02216 0.01197 0.43365 0.0
O16 O 0.0246 0.11191 0.45126 0.0
Mg17 Mg 0.90255 0.09358 0.44537 0.0
C18 C 0.05749 0.0753 0.44649 0.0
C19 C 0.91713 0.79944 0.39626 0.0
O20 O 0.87107 0.77022 0.41439 0.0
O21 O 0.92855 0.01778 0.38367 0.0
O22 O 0.92017 0.10766 0.40452 0.0
O23 O 0.85607 0.87206 0.44805 0.0
O24 O 0.85231 0.97184 0.4388 0.0
C25 C 0.92987 0.07969 0.38473 0.0
C26 C 0.84049 0.92284 0.4542 0.0
O27 O 0.9425 0.86754 0.39157 0.0
Mg28 Mg 0.07356 0.10695 0.74409 0.0
O29 O 0.14393 0.21667 0.76839 0.0
O30 O 0.0598 0.23917 0.78645 0.0
Mg31 Mg 0.93465 0.13527 0.77688 0.0
C32 C 0.12978 0.25794 0.78227 0.0
C33 C 0.20903 0.09877 0.7201 0.0
O34 O 0.17299 0.03215 0.7292 0.0
O35 O 0.0331 0.16107 0.7167 0.0
O36 O 0.93752 0.16156 0.73646 0.0
O37 O 0.07214 0.03829 0.775 0.0
O38 O 0.98089 0.06377 0.76702 0.0
C39 C 0.97521 0.17015 0.71725 0.0
C40 C 0.00662 0.03157 0.78035 0.0
O41 O 0.18365 0.14223 0.72366 0.0
H42 H 0.07242 0.43938 0.08265 0.0
H43 H 0.08228 0.94871 0.27936 0.0
H44 H 0.90848 0.31524 0.20137 0.0
H45 H 0.94316 0.242 0.17469 0.0
H46 H 0.15118 0.31743 0.22202 0.0
H47 H 0.12086 0.39779 0.24714 0.0
H48 H 0.92875 0.42115 0.17556 0.0
H49 H 0.96624 0.41679 0.13363 0.0
H50 H 0.21076 0.53825 0.16032 0.0
H51 H 0.17211 0.54012 0.20226 0.0
H52 H 0.92728 0.54803 0.18857 0.0
H53 H 0.96093 0.64187 0.15789 0.0
H54 H 0.198 0.77559 0.19077 0.0
H55 H 0.1648 0.68131 0.22109 0.0
H56 H 0.89195 0.58342 0.23993 0.0
H57 H 0.89375 0.70091 0.24602 0.0
H58 H 0.13236 0.8142 0.27799 0.0
H59 H 0.13049 0.69704 0.27105 0.0
H60 H 0.85996 0.45933 0.28638 0.0
H61 H 0.83864 0.52136 0.3218 0.0
H62 H 0.08939 0.666 0.3374 0.0
H63 H 0.1104 0.60195 0.30264 0.0
H64 H 0.88057 0.29479 0.25704 0.0
H65 H 0.86399 0.19888 0.28477 0.0
H66 H 0.07036 0.36888 0.32902 0.0
H67 H 0.08941 0.46412 0.30058 0.0
O68 O 0.05881 0.44137 0.09938 0.0
O69 O 0.18356 0.50287 0.1141 0.0
O70 O 0.95764 0.84093 0.25984 0.0
O71 O 0.07992 0.9015 0.27675 0.0
C72 C 0.01087 0.43105 0.23418 0.0
C73 C 0.02546 0.48564 0.21723 0.0
C74 C 0.02526 0.5505 0.22463 0.0
C75 C 0.01209 0.56268 0.24898 0.0
C76 C 0.00013 0.51003 0.26643 0.0
C77 C -0.00106 0.44342 0.25902 0.0
C78 C 0.01388 0.36433 0.22552 0.0
C79 C 0.96065 0.31468 0.20633 0.0
C80 C 0.98024 0.27259 0.19117 0.0
C81 C 0.05125 0.27647 0.19588 0.0
C82 C 0.09699 0.31511 0.21778 0.0
C83 C 0.07948 0.36054 0.23222 0.0
C84 C 0.04759 0.47907 0.19197 0.0
C85 C 0.99023 0.44551 0.17234 0.0
C86 C 0.01188 0.44362 0.1484 0.0
C87 C 0.09149 0.47663 0.14365 0.0
C88 C 0.14889 0.51174 0.16336 0.0
C89 C 0.12702 0.51258 0.18733 0.0
C90 C 0.04374 0.6084 0.20695 0.0
C91 C 0.98634 0.59767 0.18911 0.0
C92 C 0.00541 0.65072 0.1717 0.0
C93 C 0.08181 0.71497 0.17222 0.0
C94 C 0.13885 0.72604 0.19023 0.0
C95 C 0.11995 0.67279 0.20748 0.0
C96 C 0.0103 0.63127 0.25568 0.0
C97 C 0.94409 0.63345 0.24857 0.0
C98 C 0.94557 0.70077 0.25186 0.0
C99 C 0.0132 0.76696 0.26256 0.0
C100 C 0.07923 0.76425 0.26982 0.0
C101 C 0.07799 0.69714 0.26619 0.0
C102 C 0.98672 0.52606 0.29194 0.0
C103 C 0.91009 0.50151 0.29822 0.0
C104 C 0.89801 0.53734 0.31828 0.0
C105 C 0.96253 0.59911 0.33195 0.0
C106 C 0.03889 0.61865 0.32707 0.0
C107 C 0.05083 0.58182 0.30733 0.0
C108 C 0.9858 0.38683 0.27688 0.0
C109 C 0.92243 0.31144 0.27266 0.0
C110 C 0.91309 0.25675 0.28838 0.0
C111 C 0.96597 0.27687 0.30891 0.0
C112 C 0.02901 0.3523 0.31326 0.0
C113 C 0.0392 0.40675 0.29726 0.0
C114 C 0.11438 0.47461 0.1182 0.0
C115 C 0.01495 0.83851 0.26624 0.0
H116 H 0.59184 -0.00657 0.41178 0.0
H117 H 0.22581 0.2926 0.58764 0.0
H118 H 0.60921 0.01086 0.57235 0.0
H119 H 0.66497 0.94117 0.55466 0.0
H120 H 0.81222 0.1293 0.51187 0.0
H121 H 0.76006 0.2009 0.53067 0.0
H122 H 0.51989 0.00686 0.51407 0.0
H123 H 0.53304 0.97847 0.47116 0.0
H124 H 0.68091 0.21807 0.46186 0.0
H125 H 0.66525 0.24561 0.50459 0.0
H126 H 0.3951 0.03456 0.52365 0.0
H127 H 0.2914 0.02621 0.49624 0.0
H128 H 0.43009 0.26811 0.49159 0.0
H129 H 0.53365 0.2766 0.51955 0.0
H130 H 0.35925 0.06333 0.57186 0.0
H131 H 0.24929 0.08024 0.57748 0.0
H132 H 0.41062 0.32307 0.58081 0.0
H133 H 0.5199 0.30513 0.57505 0.0
H134 H 0.4564 0.04493 0.6095 0.0
H135 H 0.38611 0.03882 0.64592 0.0
H136 H 0.52936 0.2819 0.658 0.0
H137 H 0.59965 0.28805 0.62113 0.0
H138 H 0.59604 0.0649 0.61938 0.0
H139 H 0.69408 0.07923 0.65079 0.0
H140 H 0.87232 0.28246 0.61987 0.0
H141 H 0.77387 0.26916 0.58877 0.0
O142 O 0.58573 0.00601 0.42847 0.0
O143 O 0.6579 0.12981 0.4242 0.0
O144 O 0.18784 0.1591 0.5837 0.0
O145 O 0.26818 0.2843 0.58539 0.0
C146 C 0.63016 0.14216 0.55773 0.0
C147 C 0.58381 0.14531 0.53831 0.0
C148 C 0.52609 0.16138 0.54353 0.0
C149 C 0.51285 0.17239 0.56809 0.0
C150 C 0.55895 0.16951 0.58755 0.0
C151 C 0.62021 0.15794 0.58232 0.0
C152 C 0.67938 0.11044 0.55239 0.0
C153 C 0.65615 0.03855 0.56005 0.0
C154 C 0.68766 -0.00134 0.54993 0.0
C155 C 0.74118 0.02963 0.53161 0.0
C156 C 0.77026 0.10435 0.52582 0.0
C157 C 0.74028 0.14497 0.53642 0.0
C158 C 0.59243 0.12817 0.51241 0.0
C159 C 0.55513 0.05302 0.50271 0.0
C160 C 0.56296 0.03703 0.47824 0.0
C161 C 0.60901 0.09594 0.46319 0.0
C162 C 0.64547 0.17133 0.47299 0.0
C163 C 0.63675 0.18724 0.49736 0.0
C164 C 0.47147 0.15616 0.52355 0.0
C165 C 0.40398 0.08551 0.51623 0.0
C166 C 0.34508 0.08077 0.50065 0.0
C167 C 0.35339 0.14654 0.49202 0.0
C168 C 0.42321 0.21685 0.49802 0.0
C169 C 0.4819 0.22169 0.51392 0.0
C170 C 0.44735 0.18305 0.57325 0.0
C171 C 0.37064 0.12008 0.574 0.0
C172 C 0.30799 0.12991 0.57707 0.0
C173 C 0.32116 0.20307 0.57956 0.0
C174 C 0.39841 0.26602 0.57894 0.0
C175 C 0.46098 0.25602 0.57581 0.0
C176 C 0.53369 0.16684 0.61286 0.0
C177 C 0.47489 0.0967 0.62054 0.0
C178 C 0.43468 0.09321 0.64123 0.0
C179 C 0.45268 0.15984 0.65457 0.0
C180 C 0.5154 0.22991 0.64801 0.0
C181 C 0.55545 0.23342 0.62709 0.0
C182 C 0.67741 0.16684 0.6021 0.0
C183 C 0.65566 0.11344 0.6197 0.0
C184 C 0.71162 0.12127 0.63744 0.0
C185 C 0.79005 0.18229 0.6377 0.0
C186 C 0.81192 0.2355 0.62005 0.0
C187 C 0.75589 0.22785 0.6024 0.0
C188 C 0.61909 0.07861 0.43744 0.0
C189 C 0.25488 0.21383 0.58301 0.0
H190 H 0.74196 0.69113 0.07815 0.0
H191 H 0.24496 0.12615 0.8745 0.0
H192 H 0.67038 0.79139 0.94705 0.0
H193 H 0.77336 0.90218 0.97268 0.0
H194 H 0.9433 0.84823 0.95151 0.0
H195 H 0.84042 0.73818 0.92548 0.0
H196 H 0.5887 0.65121 0.98092 0.0
H197 H 0.63542 0.67036 0.02417 0.0
H198 H 0.82763 0.6479 0.00317 0.0
H199 H 0.7797 0.62815 0.96002 0.0
H200 H 0.4569 0.49998 0.95876 0.0
H201 H 0.40183 0.39687 0.98653 0.0
H202 H 0.59185 0.36317 0.97421 0.0
H203 H 0.64644 0.46586 0.94606 0.0
H204 H 0.40013 0.49002 0.91055 0.0
H205 H 0.28444 0.3618 0.90207 0.0
H206 H 0.43586 0.28129 0.88369 0.0
H207 H 0.5511 0.40913 0.89326 0.0
H208 H 0.50424 0.65269 0.87525 0.0
H209 H 0.39436 0.59042 0.8437 0.0
H210 H 0.45669 0.4278 0.82473 0.0
H211 H 0.57006 0.49369 0.85471 0.0
H212 H 0.68036 0.80684 0.89529 0.0
H213 H 0.76917 0.90072 0.86741 0.0
H214 H 0.81768 0.73865 0.83575 0.0
H215 H 0.72996 0.64538 0.86365 0.0
O216 O 0.72449 0.6834 0.06095 0.0
O217 O 0.82215 0.67127 0.04921 0.0
O218 O 0.21483 0.22076 0.88905 0.0
O219 O 0.28977 0.17711 0.87825 0.0
C220 C 0.68313 0.68081 0.92478 0.0
C221 C 0.65019 0.62343 0.94138 0.0
C222 C 0.58727 0.55059 0.93336 0.0
C223 C 0.55379 0.53535 0.9092 0.0
C224 C 0.58618 0.59244 0.89232 0.0
C225 C 0.65326 0.6647 0.8999 0.0
C226 C 0.74823 0.75728 0.93428 0.0
C227 C 0.73047 0.80525 0.94717 0.0
C228 C 0.78887 0.86791 0.9619 0.0
C229 C 0.86545 0.88255 0.96418 0.0
C230 C 0.88441 0.83755 0.94999 0.0
C231 C 0.82608 0.7753 0.93504 0.0
C232 C 0.6813 0.63901 0.96742 0.0
C233 C 0.64111 0.65086 0.98574 0.0
C234 C 0.66777 0.6615 0.0104 0.0
C235 C 0.73518 0.66049 0.01714 0.0
C236 C 0.77549 0.64893 -0.00137 0.0
C237 C 0.74858 0.63808 0.97397 0.0
C238 C 0.5553 0.48981 0.9505 0.0
C239 C 0.48634 0.47008 0.96198 0.0
C240 C 0.45505 0.41153 0.97767 0.0
C241 C 0.49281 0.37269 0.98212 0.0
C242 C 0.56205 0.39259 0.97075 0.0
C243 C 0.59313 0.45097 0.95491 0.0
C244 C 0.48368 0.45892 0.90205 0.0
C245 C 0.40802 0.44467 0.90448 0.0
C246 C 0.34216 0.37143 0.89966 0.0
C247 C 0.35083 0.3115 0.89184 0.0
C248 C 0.42698 0.32621 0.88944 0.0
C249 C 0.49286 0.39918 0.89476 0.0
C250 C 0.54405 0.57654 0.86774 0.0
C251 C 0.49699 0.60633 0.86334 0.0
C252 C 0.43376 0.57029 0.84554 0.0
C253 C 0.41551 0.5026 0.8327 0.0
C254 C 0.46863 0.47887 0.83489 0.0
C255 C 0.53352 0.51666 0.85192 0.0
C256 C 0.69861 0.7192 0.88148 0.0
C257 C 0.7099 0.79154 0.88228 0.0
C258 C 0.7607 0.84505 0.86654 0.0
C259 C 0.80059 0.82667 0.84984 0.0
C260 C 0.78791 0.75391 0.8487 0.0
C261 C 0.73733 0.70062 0.86439 0.0
C262 C 0.76343 0.67194 0.04336 0.0
C263 C 0.2809 0.23388 0.88633 0.0
C264 C 0.06022 0.15528 0.14342 0.0
C265 C 0.13426 0.20761 0.13446 0.0
C266 C 0.15378 0.3044 0.16564 0.0
C267 C 0.08279 0.25079 0.17602 0.0
N268 N 0.97785 0.12053 0.17802 0.0
N269 N 0.26199 0.3227 0.14263 0.0
C270 C 0.03888 0.17458 0.16591 0.0
C271 C 0.18429 0.27928 0.1473 0.0
N272 N 0.00885 0.08889 0.13001 0.0
N273 N 0.19034 0.38006 0.17212 0.0
H274 H 0.2882 0.30492 0.13022 0.0
H275 H 0.30223 0.37223 0.15323 0.0
H276 H 0.16931 0.40261 0.18472 0.0
H277 H 0.2372 0.42122 0.16294 0.0
H278 H 0.95106 0.05228 0.13446 0.0
H279 H 0.02159 0.07354 0.11322 0.0
H280 H 0.94829 0.06293 0.17272 0.0
H281 H 0.962 0.1327 0.19477 0.0
C282 C 0.72808 0.90682 0.47637 0.0
C283 C 0.8063 0.92442 0.47751 0.0
C284 C 0.83195 0.98854 0.5184 0.0
C285 C 0.75784 0.98122 0.51564 0.0
N286 N 0.63094 0.92709 0.49376 0.0
N287 N 0.92287 0.95728 0.50184 0.0
C288 C 0.70368 0.93669 0.4954 0.0
C289 C 0.85512 0.95711 0.49938 0.0
N290 N 0.67784 0.86132 0.45691 0.0
N291 N 0.88133 0.02899 0.53857 0.0
H292 H 0.94055 0.93483 0.48795 0.0
H293 H 0.95843 0.97428 0.51805 0.0
H294 H 0.86416 0.04963 0.55317 0.0
H295 H 0.93959 0.04409 0.54061 0.0
H296 H 0.61838 0.84194 0.45506 0.0
H297 H 0.69496 0.83786 0.44315 0.0
H298 H 0.59087 0.90121 0.47863 0.0
H299 H 0.61017 0.94655 0.50755 0.0
C300 C 0.98077 -0.00644 0.82392 0.0
C301 C 0.95606 0.97951 0.79859 0.0
C302 C 0.82663 0.87254 0.80765 0.0
C303 C 0.85341 0.88212 0.83263 0.0
N304 N 0.95841 0.9452 0.86445 0.0
N305 N 0.86196 0.89626 0.76567 0.0
C306 C 0.93125 0.94097 0.84079 0.0
C307 C 0.88068 0.91649 0.79027 0.0
N308 N 0.05018 0.05824 0.83192 0.0
N309 N 0.74895 0.8225 0.80061 0.0
H310 H 0.9006 0.92533 0.75222 0.0
H311 H 0.8113 0.84621 0.75867 0.0
H312 H 0.70741 0.78907 0.81283 0.0
H313 H 0.72428 0.81915 0.78317 0.0
H314 H 0.0677 0.07601 0.85038 0.0
H315 H 0.08797 0.09732 0.81999 0.0
H316 H 0.01693 0.98157 0.87085 0.0
H317 H 0.92341 0.90846 0.87737 0.0
C318 C 0.1312 0.89677 0.14484 0.0
C319 C 0.16108 0.88975 0.12236 0.0
C320 C 0.13472 0.76548 0.13191 0.0
C321 C 0.1029 0.77176 0.15402 0.0
N322 N 0.05659 0.83481 0.17966 0.0
N323 N 0.17923 0.81395 0.09217 0.0
C324 C 0.09637 0.83469 0.15983 0.0
C325 C 0.15925 0.82294 0.11519 0.0
N326 N 0.14005 0.96417 0.15252 0.0
N327 N 0.14345 0.70568 0.12732 0.0
H328 H 0.19766 0.85528 0.07955 0.0
H329 H 0.17179 0.76365 0.08483 0.0
H330 H 0.12332 0.66106 0.13872 0.0
H331 H 0.17442 0.70205 0.11301 0.0
H332 H 0.12786 0.97559 0.16997 0.0
H333 H 0.16551 0.01141 0.14219 0.0
H334 H 0.04223 0.87507 0.18334 0.0
H335 H 0.03211 0.79106 0.19145 0.0
C336 C 0.1967 0.10979 0.44255 0.0
C337 C 0.13799 0.10477 0.45756 0.0
C338 C 0.23117 0.14883 0.49372 0.0
C339 C 0.28441 0.14158 0.47937 0.0
N340 N 0.31832 0.11238 0.44041 0.0
N341 N 0.09678 0.11139 0.49838 0.0
C342 C 0.26752 0.12163 0.4538 0.0
C343 C 0.1548 0.12322 0.48336 0.0
N344 N 0.18582 0.10585 0.41756 0.0
N345 N 0.25342 0.17984 0.51738 0.0
H346 H 0.03948 0.09226 0.4921 0.0
H347 H 0.10345 0.11421 0.51746 0.0
H348 H 0.30797 0.19707 0.52595 0.0
H349 H 0.22079 0.19504 0.52773 0.0
H350 H 0.22928 0.11596 0.40568 0.0
H351 H 0.1359 0.09997 0.40877 0.0
H352 H 0.30506 0.08915 0.42233 0.0
H353 H 0.37232 0.12402 0.4479 0.0
C354 C 0.2583 0.38252 0.78104 0.0
C355 C 0.19779 0.32794 0.79495 0.0
C356 C 0.27123 0.40384 0.83288 0.0
C357 C 0.33722 0.45087 0.8193 0.0
N358 N 0.395 0.48509 0.78038 0.0
N359 N 0.15259 0.28073 0.83458 0.0
C360 C 0.33099 0.44044 0.7933 0.0
C361 C 0.20521 0.33747 0.82099 0.0
N362 N 0.24534 0.38007 0.7562 0.0
N363 N 0.27125 0.42199 0.8572 0.0
H364 H 0.10465 0.22969 0.82689 0.0
H365 H 0.16074 0.28115 0.85353 0.0
H366 H 0.31877 0.46855 0.86704 0.0
H367 H 0.22107 0.3947 0.86708 0.0
H368 H 0.28417 0.422 0.74526 0.0
H369 H 0.1921 0.33958 0.74679 0.0
H370 H 0.39753 0.4746 0.76173 0.0
H371 H 0.44734 0.5309 0.78868 0.0
C372 C 0.9138 0.12805 0.67399 0.0
C373 C 0.94372 0.18303 0.69434 0.0
C374 C 0.87813 0.24234 0.67647 0.0
C375 C 0.8496 0.18825 0.65601 0.0
N376 N 0.85842 0.09422 0.6319 0.0
N377 N 0.97195 0.30322 0.71178 0.0
C378 C 0.87373 0.13606 0.65365 0.0
C379 C 0.93161 0.24382 0.69449 0.0
N380 N 0.91804 0.06512 0.67473 0.0
N381 N 0.85127 0.28977 0.67931 0.0
H382 H 0.0125 0.30617 0.72491 0.0
H383 H 0.97121 0.35254 0.71159 0.0
H384 H 0.81235 0.29062 0.66646 0.0
H385 H 0.86301 0.32439 0.69522 0.0
H386 H 0.8887 0.01924 0.66171 0.0
H387 H 0.94505 0.05513 0.68933 0.0
H388 H 0.8816 0.0609 0.62826 0.0
H389 H 0.82898 0.09865 0.61663 0.0
C390 C 0.9702 0.98268 0.02631 0.0
C391 C 0.0419 0.0443 0.0189 0.0
C392 C 0.9901 0.00787 0.97577 0.0
C393 C 0.92403 0.94044 0.98308 0.0
N394 N 0.85569 0.85809 0.01517 0.0
N395 N 0.12416 0.11094 0.98597 0.0
C396 C 0.91504 0.92642 0.00834 0.0
C397 C 0.0528 0.05628 -0.00654 0.0
N398 N 0.95366 0.97918 0.05047 0.0
N399 N 0.99235 0.02621 0.95197 0.0
H400 H 0.17225 0.14779 -0.002 0.0
H401 H 0.13798 0.11579 0.96766 0.0
H402 H 0.9475 -0.00823 0.93854 0.0
H403 H 0.03485 0.07846 0.94606 0.0
H404 H 0.8991 0.93959 0.05662 0.0
H405 H 0.99155 0.02079 0.06406 0.0
H406 H 0.8517 0.84165 0.03306 0.0
H407 H 0.81409 0.81509 0.00264 0.0
C408 C 0.96643 0.71232 0.38955 0.0
C409 C 0.93134 0.75012 0.37979 0.0
C410 C 0.92371 0.69424 0.33863 0.0
C411 C 0.95096 0.65018 0.3487 0.0
N412 N 0.98768 0.60889 0.38425 0.0
N413 N 0.86086 0.76392 0.34591 0.0
C414 C 0.96948 0.65692 0.37435 0.0
C415 C 0.90577 0.73763 0.35456 0.0
N416 N -0.00068 0.73129 0.41309 0.0
N417 N 0.91743 0.69683 0.31377 0.0
H418 H 0.84433 0.79434 0.35697 0.0
H419 H 0.83326 0.74905 0.3283 0.0
H420 H 0.93084 0.66672 0.3014 0.0
H421 H 0.90622 0.73434 0.30552 0.0
H422 H 0.03283 0.71151 0.42046 0.0
H423 H -0.00081 0.7723 0.42461 0.0
H424 H -0.00623 0.60562 0.40308 0.0
H425 H 0.99009 0.56757 0.37365 0.0
C426 C 0.26911 0.13797 0.67968 0.0
C427 C 0.27514 0.12067 0.70416 0.0
C428 C 0.40327 0.13709 0.69705 0.0
C429 C 0.39739 0.1556 0.67274 0.0
N430 N 0.3264 0.18048 0.64171 0.0
N431 N 0.35409 0.11836 0.73784 0.0
C432 C 0.33198 0.15924 0.66451 0.0
C433 C 0.344 0.12419 0.71334 0.0
N434 N 0.20208 0.13203 0.67029 0.0
N435 N 0.46438 0.1298 0.70428 0.0
H436 H 0.31263 0.11025 0.75033 0.0
H437 H 0.40605 0.12787 0.74622 0.0
H438 H 0.51049 0.14242 0.69318 0.0
H439 H 0.46747 0.10755 0.72064 0.0
H440 H 0.19611 0.14458 0.65237 0.0
H441 H 0.15141 0.11169 0.67984 0.0
H442 H 0.36981 0.19789 0.62918 0.0
H443 H 0.36981 0.19789 0.62918 0.0
C444 C 0.35498 0.18628 0.00879 0.0
C445 C 0.37712 0.20796 0.03419 0.0
C446 C 0.48453 0.33357 0.02492 0.0
C447 C 0.46059 0.31317 -0.00036 0.0
N448 N 0.387 0.21756 0.96666 0.0
N449 N 0.47527 0.29139 0.06597 0.0
C450 C 0.40058 0.23824 0.99129 0.0
C451 C 0.44605 0.27832 0.04208 0.0
N452 N 0.2882 0.11822 0.0015 0.0
N453 N 0.54171 0.40656 0.03256 0.0
H454 H 0.44908 0.251 0.07886 0.0
H455 H 0.52921 0.33871 0.07245 0.0
H456 H 0.57344 0.44804 0.02042 0.0
H457 H 0.55482 0.4273 0.0509 0.0
H458 H 0.26463 0.10197 0.98344 0.0
H459 H 0.25292 0.07889 0.01372 0.0
H460 H 0.34907 0.16227 0.95927 0.0
H461 H 0.41863 0.25513 0.95347 0.0
C462 C 0.87326 0.13077 0.35638 0.0
C463 C 0.93446 0.11831 0.36214 0.0
C464 C 0.00864 0.19721 0.32915 0.0
C465 C 0.95353 0.21954 0.32643 0.0
N466 N 0.83904 0.21598 0.34039 0.0
N467 N 0.06405 0.1442 0.3554 0.0
C468 C 0.88696 0.18818 0.34071 0.0
C469 C 0.00296 0.15205 0.34872 0.0
N470 N 0.80144 0.08681 0.36571 0.0
N471 N 0.06536 0.21794 0.31276 0.0
H472 H 0.06163 0.11099 0.36943 0.0
H473 H 0.11897 0.17466 0.34817 0.0
H474 H 0.0706 0.25027 0.29809 0.0
H475 H 0.10241 0.19741 0.31236 0.0
H476 H 0.75238 0.08859 0.36033 0.0
H477 H 0.78875 0.04279 0.3768 0.0
H478 H 0.79479 0.20069 0.35248 0.0
H479 H 0.84806 0.25976 0.32976 0.0
loop_
_geom_bond_atom_site_label_1
_geom_bond_atom_site_label_2
_geom_bond_distance
_geom_bond_site_symmetry_2
_ccdc_geom_bond_type
Mg0 O1 2.028 . S
Mg0 O7 1.986 . S
Mg0 O9 2.114 . S
Mg0 O10 2.251 . S
Mg0 O13 2.010 . S
O1 Mg0 2.028 . S
O1 C4 1.241 1_455 S
O2 Mg3 2.028 . S
O2 C4 1.253 1_455 S
Mg3 O2 2.028 . S
Mg3 O8 2.032 . S
Mg3 O10 2.079 . S
C4 O1 1.241 1_655 S
C4 O2 1.253 1_655 S
C5 O6 1.264 1_565 S
C5 O13 1.249 1_565 S
O6 C5 1.264 1_545 S
O7 Mg0 1.986 . S
O7 C11 1.246 . S
O8 Mg3 2.032 . S
O8 C11 1.259 . S
O9 Mg0 2.114 . S
O9 C12 1.252 . S
O10 Mg0 2.251 . S
O10 Mg3 2.079 . S
O10 C12 1.273 . S
C11 O7 1.246 . S
C11 O8 1.259 . S
C12 O9 1.252 . S
C12 O10 1.273 . S
O13 Mg0 2.010 . S
O13 C5 1.249 1_545 S
Mg14 O15 2.028 1_665 S
Mg14 O21 1.986 1_665 S
Mg14 O23 2.114 . S
Mg14 O24 2.251 1_565 S
Mg14 O27 2.010 . S
O15 Mg14 2.028 1_445 S
O15 C18 1.250 . S
O16 Mg17 2.028 . S
O16 C18 1.248 . S
Mg17 O16 2.028 . S
Mg17 O22 2.032 . S
Mg17 O24 2.079 1_455 S
C18 O15 1.250 . S
C18 O16 1.248 . S
C19 O20 1.264 . S
C19 O27 1.249 . S
O20 C19 1.264 . S
O21 Mg14 1.986 1_445 S
O21 C25 1.246 . S
O22 Mg17 2.032 . S
O22 C25 1.259 . S
O23 Mg14 2.114 . S
O23 C26 1.252 . S
O24 Mg14 2.251 1_545 S
O24 Mg17 2.079 1_655 S
O24 C26 1.273 1_545 S
C25 O21 1.246 . S
C25 O22 1.259 . S
C26 O23 1.252 . S
C26 O24 1.273 1_565 S
O27 Mg14 2.010 . S
O27 C19 1.249 . S
Mg28 O29 2.028 . S
Mg28 O35 1.986 . S
Mg28 O37 2.114 . S
Mg28 O38 2.251 . S
Mg28 O41 2.010 . S
O29 Mg28 2.028 . S
O29 C32 1.250 . S
O30 Mg31 2.028 . S
O30 C32 1.248 . S
Mg31 O30 2.028 . S
Mg31 O36 2.032 . S
Mg31 O38 2.079 . S
C32 O29 1.250 . S
C32 O30 1.248 . S
C33 O34 1.264 1_545 S
C33 O41 1.249 . S
O34 C33 1.264 1_565 S
O35 Mg28 1.986 . S
O35 C39 1.246 . S
O36 Mg31 2.032 . S
O36 C39 1.259 . S
O37 Mg28 2.114 . S
O37 C40 1.252 . S
O38 Mg28 2.251 . S
O38 Mg31 2.079 . S
O38 C40 1.273 . S
C39 O35 1.246 . S
C39 O36 1.259 . S
C40 O37 1.252 . S
C40 O38 1.273 . S
O41 Mg28 2.010 . S
O41 C33 1.249 . S
H42 O68 0.856 . S
H43 O71 0.854 1_545 S
H44 C79 0.930 . S
H45 C80 0.930 . S
H46 C82 0.930 . S
H47 C83 0.930 . S
H48 C85 0.931 1_655 S
H49 C86 0.930 . S
H50 C88 0.930 . S
H51 C89 0.929 . S
H52 C91 0.930 1_655 S
H53 C92 0.929 . S
H54 C94 0.930 . S
H55 C95 0.929 . S
H56 C97 0.927 1_655 S
H57 C98 0.930 1_655 S
H58 C100 0.930 . S
H59 C101 0.932 . S
H60 C103 0.930 . S
H61 C104 0.929 . S
H62 C106 0.931 . S
H63 C107 0.930 . S
H64 C109 0.929 . S
H65 C110 0.931 . S
H66 C112 0.930 . S
H67 C113 0.929 . S
O68 H42 0.856 . S
O68 C114 1.300 . S
O69 C114 1.209 . S
O70 C115 1.199 . S
O71 H43 0.854 1_565 S
O71 C115 1.297 . S
C72 C73 1.404 . S
C72 C77 1.397 . S
C72 C78 1.492 . S
C73 C72 1.404 . S
C73 C74 1.396 . S
C73 C84 1.492 . S
C74 C73 1.396 . S
C74 C75 1.397 . S
C74 C90 1.509 . S
C75 C74 1.397 . S
C75 C76 1.412 . S
C75 C96 1.485 . S
C76 C75 1.412 . S
C76 C77 1.388 . S
C76 C102 1.490 . S
C77 C72 1.397 . S
C77 C76 1.388 . S
C77 C108 1.519 . S
C78 C72 1.492 . S
C78 C79 1.363 1_455 S
C78 C83 1.390 . S
C79 H44 0.930 . S
C79 C78 1.363 1_655 S
C79 C80 1.372 . S
C80 H45 0.930 . S
C80 C79 1.372 . S
C80 C81 1.383 1_655 S
C81 C80 1.383 1_455 S
C81 C82 1.395 . S
C82 H46 0.930 . S
C82 C81 1.395 . S
C82 C83 1.362 . S
C83 H47 0.930 . S
C83 C78 1.390 . S
C83 C82 1.362 . S
C84 C73 1.492 . S
C84 C85 1.377 . S
C84 C89 1.397 . S
C85 H48 0.931 1_455 S
C85 C84 1.377 . S
C85 C86 1.376 . S
C86 H49 0.930 . S
C86 C85 1.376 . S
C86 C87 1.376 . S
C87 C86 1.376 . S
C87 C88 1.378 . S
C87 C114 1.486 . S
C88 H50 0.930 . S
C88 C87 1.378 . S
C88 C89 1.376 . S
C89 H51 0.929 . S
C89 C84 1.397 . S
C89 C88 1.376 . S
C90 C74 1.509 . S
C90 C91 1.391 . S
C90 C95 1.386 . S
C91 H52 0.930 1_455 S
C91 C90 1.391 . S
C91 C92 1.375 . S
C92 H53 0.929 . S
C92 C91 1.375 . S
C92 C93 1.375 . S
C93 C92 1.375 . S
C93 C94 1.361 . S
C94 H54 0.930 . S
C94 C93 1.361 . S
C94 C95 1.399 . S
C95 H55 0.929 . S
C95 C90 1.386 . S
C95 C94 1.399 . S
C96 C75 1.485 . S
C96 C97 1.402 . S
C96 C101 1.360 . S
C97 H56 0.927 1_455 S
C97 C96 1.402 . S
C97 C98 1.367 . S
C98 H57 0.930 1_455 S
C98 C97 1.367 . S
C98 C99 1.397 . S
C99 C98 1.397 . S
C99 C100 1.390 . S
C99 C115 1.476 . S
C100 H58 0.930 . S
C100 C99 1.390 . S
C100 C101 1.366 . S
C101 H59 0.932 . S
C101 C96 1.360 . S
C101 C100 1.366 . S
C102 C76 1.490 . S
C102 C103 1.380 1_455 S
C102 C107 1.386 . S
C103 H60 0.930 . S
C103 C102 1.380 1_655 S
C103 C104 1.381 . S
C104 H61 0.929 . S
C104 C103 1.381 . S
C104 C105 1.371 1_655 S
C105 C104 1.371 1_455 S
C105 C106 1.380 . S
C106 H62 0.931 . S
C106 C105 1.380 . S
C106 C107 1.387 . S
C107 H63 0.930 . S
C107 C102 1.386 . S
C107 C106 1.387 . S
C108 C77 1.519 . S
C108 C109 1.377 1_455 S
C108 C113 1.361 . S
C109 H64 0.929 . S
C109 C108 1.377 1_655 S
C109 C110 1.386 . S
C110 H65 0.931 . S
C110 C109 1.386 . S
C110 C111 1.363 1_655 S
C111 C110 1.363 1_455 S
C111 C112 1.385 . S
C112 H66 0.930 . S
C112 C111 1.385 . S
C112 C113 1.396 . S
C113 H67 0.929 . S
C113 C108 1.361 . S
C113 C112 1.396 . S
C114 O68 1.300 . S
C114 O69 1.209 . S
C114 C87 1.486 . S
C115 O70 1.199 . S
C115 O71 1.297 . S
C115 C99 1.476 . S
H116 O142 0.856 . S
H117 O145 0.854 . S
H118 C153 0.930 1_565 S
H119 C154 0.930 1_565 S
H120 C156 0.930 . S
H121 C157 0.930 . S
H122 C159 0.931 . S
H123 C160 0.934 . S
H124 C162 0.930 . S
H125 C163 0.929 . S
H126 C165 0.930 . S
H127 C166 0.931 . S
H128 C168 0.930 . S
H129 C169 0.929 . S
H130 C171 0.931 . S
H131 C172 0.930 . S
H132 C174 0.930 . S
H133 C175 0.932 . S
H134 C177 0.930 . S
H135 C178 0.929 . S
H136 C180 0.931 . S
H137 C181 0.930 . S
H138 C183 0.929 . S
H139 C184 0.931 . S
H140 C186 0.930 . S
H141 C187 0.929 . S
O142 H116 0.856 . S
O142 C188 1.300 . S
O143 C188 1.209 . S
O144 C189 1.199 . S
O145 H117 0.854 . S
O145 C189 1.297 . S
C146 C147 1.404 . S
C146 C151 1.397 . S
C146 C152 1.492 . S
C147 C146 1.404 . S
C147 C148 1.396 . S
C147 C158 1.492 . S
C148 C147 1.396 . S
C148 C149 1.397 . S
C148 C164 1.509 . S
C149 C148 1.397 . S
C149 C150 1.412 . S
C149 C170 1.485 . S
C150 C149 1.412 . S
C150 C151 1.388 . S
C150 C176 1.490 . S
C151 C146 1.397 . S
C151 C150 1.388 . S
C151 C182 1.519 . S
C152 C146 1.492 . S
C152 C153 1.363 . S
C152 C157 1.390 . S
C153 H118 0.930 1_545 S
C153 C152 1.363 . S
C153 C154 1.372 . S
C154 H119 0.930 1_545 S
C154 C153 1.372 . S
C154 C155 1.383 . S
C155 C154 1.383 . S
C155 C156 1.395 . S
C156 H120 0.930 . S
C156 C155 1.395 . S
C156 C157 1.362 . S
C157 H121 0.930 . S
C157 C152 1.390 . S
C157 C156 1.362 . S
C158 C147 1.492 . S
C158 C159 1.377 . S
C158 C163 1.397 . S
C159 H122 0.931 . S
C159 C158 1.377 . S
C159 C160 1.376 . S
C160 H123 0.934 . S
C160 C159 1.376 . S
C160 C161 1.376 . S
C161 C160 1.376 . S
C161 C162 1.378 . S
C161 C188 1.486 . S
C162 H124 0.930 . S
C162 C161 1.378 . S
C162 C163 1.376 . S
C163 H125 0.929 . S
C163 C158 1.397 . S
C163 C162 1.376 . S
C164 C148 1.509 . S
C164 C165 1.391 . S
C164 C169 1.386 . S
C165 H126 0.930 . S
C165 C164 1.391 . S
C165 C166 1.375 . S
C166 H127 0.931 . S
C166 C165 1.375 . S
C166 C167 1.375 . S
C167 C166 1.375 . S
C167 C168 1.361 . S
C168 H128 0.930 . S
C168 C167 1.361 . S
C168 C169 1.399 . S
C169 H129 0.929 . S
C169 C164 1.386 . S
C169 C168 1.399 . S
C170 C149 1.485 . S
C170 C171 1.394 . S
C170 C175 1.360 . S
C171 H130 0.931 . S
C171 C170 1.394 . S
C171 C172 1.372 . S
C172 H131 0.930 . S
C172 C171 1.372 . S
C172 C173 1.397 . S
C173 C172 1.397 . S
C173 C174 1.390 . S
C173 C189 1.476 . S
C174 H132 0.930 . S
C174 C173 1.390 . S
C174 C175 1.366 . S
C175 H133 0.932 . S
C175 C170 1.360 . S
C175 C174 1.366 . S
C176 C150 1.490 . S
C176 C177 1.380 . S
C176 C181 1.386 . S
C177 H134 0.930 . S
C177 C176 1.380 . S
C177 C178 1.381 . S
C178 H135 0.929 . S
C178 C177 1.381 . S
C178 C179 1.371 . S
C179 C178 1.371 . S
C179 C180 1.380 . S
C180 H136 0.931 . S
C180 C179 1.380 . S
C180 C181 1.387 . S
C181 H137 0.930 . S
C181 C176 1.386 . S
C181 C180 1.387 . S
C182 C151 1.519 . S
C182 C183 1.377 . S
C182 C187 1.361 . S
C183 H138 0.929 . S
C183 C182 1.377 . S
C183 C184 1.386 . S
C184 H139 0.931 . S
C184 C183 1.386 . S
C184 C185 1.363 . S
C185 C184 1.363 . S
C185 C186 1.385 . S
C186 H140 0.930 . S
C186 C185 1.385 . S
C186 C187 1.396 . S
C187 H141 0.929 . S
C187 C182 1.361 . S
C187 C186 1.396 . S
C188 O142 1.300 . S
C188 O143 1.209 . S
C188 C161 1.486 . S
C189 O144 1.199 . S
C189 O145 1.297 . S
C189 C173 1.476 . S
H190 O216 0.856 . S
H191 O219 0.854 . S
H192 C227 0.930 . S
H193 C228 0.930 . S
H194 C230 0.930 . S
H195 C231 0.930 . S
H196 C233 0.919 1_556 S
H197 C234 0.930 . S
H198 C236 0.930 . S
H199 C237 0.929 . S
H200 C239 0.930 . S
H201 C240 0.938 . S
H202 C242 0.930 . S
H203 C243 0.929 . S
H204 C245 0.931 . S
H205 C246 0.930 . S
H206 C248 0.930 . S
H207 C249 0.932 . S
H208 C251 0.930 . S
H209 C252 0.929 . S
H210 C254 0.931 . S
H211 C255 0.930 . S
H212 C257 0.929 . S
H213 C258 0.931 . S
H214 C260 0.930 . S
H215 C261 0.929 . S
O216 H190 0.856 . S
O216 C262 1.300 . S
O217 C262 1.209 . S
O218 C263 1.199 . S
O219 H191 0.854 . S
O219 C263 1.297 . S
C220 C221 1.404 . S
C220 C225 1.397 . S
C220 C226 1.492 . S
C221 C220 1.404 . S
C221 C222 1.396 . S
C221 C232 1.492 . S
C222 C221 1.396 . S
C222 C223 1.397 . S
C222 C238 1.509 . S
C223 C222 1.397 . S
C223 C224 1.412 . S
C223 C244 1.485 . S
C224 C223 1.412 . S
C224 C225 1.388 . S
C224 C250 1.490 . S
C225 C220 1.397 . S
C225 C224 1.388 . S
C225 C256 1.519 . S
C226 C220 1.492 . S
C226 C227 1.363 . S
C226 C231 1.390 . S
C227 H192 0.930 . S
C227 C226 1.363 . S
C227 C228 1.372 . S
C228 H193 0.930 . S
C228 C227 1.372 . S
C228 C229 1.383 . S
C229 C228 1.383 . S
C229 C230 1.395 . S
C230 H194 0.930 . S
C230 C229 1.395 . S
C230 C231 1.362 . S
C231 H195 0.930 . S
C231 C226 1.390 . S
C231 C230 1.362 . S
C232 C221 1.492 . S
C232 C233 1.377 1_556 S
C232 C237 1.397 . S
C233 H196 0.919 1_554 S
C233 C232 1.377 1_554 S
C233 C234 1.376 . S
C234 H197 0.930 . S
C234 C233 1.376 . S
C234 C235 1.376 . S
C235 C234 1.376 . S
C235 C236 1.378 . S
C235 C262 1.486 . S
C236 H198 0.930 . S
C236 C235 1.378 . S
C236 C237 1.376 1_554 S
C237 H199 0.929 . S
C237 C232 1.397 . S
C237 C236 1.376 1_556 S
C238 C222 1.509 . S
C238 C239 1.391 . S
C238 C243 1.386 . S
C239 H200 0.930 . S
C239 C238 1.391 . S
C239 C240 1.375 . S
C240 H201 0.938 . S
C240 C239 1.375 . S
C240 C241 1.375 1_556 S
C241 C240 1.375 1_554 S
C241 C242 1.361 . S
C242 H202 0.930 . S
C242 C241 1.361 . S
C242 C243 1.399 1_554 S
C243 H203 0.929 . S
C243 C238 1.386 . S
C243 C242 1.399 1_556 S
C244 C223 1.485 . S
C244 C245 1.394 . S
C244 C249 1.360 . S
C245 H204 0.931 . S
C245 C244 1.394 . S
C245 C246 1.372 . S
C246 H205 0.930 . S
C246 C245 1.372 . S
C246 C247 1.397 . S
C247 C246 1.397 . S
C247 C248 1.390 . S
C247 C263 1.476 . S
C248 H206 0.930 . S
C248 C247 1.390 . S
C248 C249 1.366 . S
C249 H207 0.932 . S
C249 C244 1.360 . S
C249 C248 1.366 . S
C250 C224 1.490 . S
C250 C251 1.380 . S
C250 C255 1.386 . S
C251 H208 0.930 . S
C251 C250 1.380 . S
C251 C252 1.381 . S
C252 H209 0.929 . S
C252 C251 1.381 . S
C252 C253 1.371 . S
C253 C252 1.371 . S
C253 C254 1.380 . S
C254 H210 0.931 . S
C254 C253 1.380 . S
C254 C255 1.387 . S
C255 H211 0.930 . S
C255 C250 1.386 . S
C255 C254 1.387 . S
C256 C225 1.519 . S
C256 C257 1.377 . S
C256 C261 1.361 . S
C257 H212 0.929 . S
C257 C256 1.377 . S
C257 C258 1.386 . S
C258 H213 0.931 . S
C258 C257 1.386 . S
C258 C259 1.363 . S
C259 C258 1.363 . S
C259 C260 1.385 . S
C260 H214 0.930 . S
C260 C259 1.385 . S
C260 C261 1.396 . S
C261 H215 0.929 . S
C261 C256 1.361 . S
C261 C260 1.396 . S
C262 O216 1.300 . S
C262 O217 1.209 . S
C262 C235 1.486 . S
C263 O218 1.199 . S
C263 O219 1.297 . S
C263 C247 1.476 . S
C264 C265 1.363 1_655 S
C264 C270 1.379 . S
C264 N272 1.356 . S
C265 C264 1.363 1_455 S
C265 C271 1.363 . S
C266 C267 1.363 . S
C266 C271 1.379 . S
C266 N273 1.356 . S
C267 C266 1.363 . S
C267 C270 1.363 1_455 S
N268 C270 1.356 . S
N268 H280 0.984 . S
N268 H281 0.985 . S
N269 C271 1.356 . S
N269 H274 0.984 . S
N269 H275 0.985 . S
C270 C264 1.379 . S
C270 C267 1.363 1_655 S
C270 N268 1.356 . S
C271 C265 1.363 . S
C271 C266 1.379 . S
C271 N269 1.356 . S
N272 C264 1.356 . S
N272 H278 0.984 . S
N272 H279 0.984 . S
N273 C266 1.356 . S
N273 H276 0.984 . S
N273 H277 0.985 . S
H274 N269 0.984 . S
H275 N269 0.985 . S
H276 N273 0.984 . S
H277 N273 0.985 . S
H278 N272 0.984 . S
H279 N272 0.984 . S
H280 N268 0.984 . S
H281 N268 0.985 . S
C282 C283 1.363 . S
C282 C288 1.379 . S
C282 N290 1.356 . S
C283 C282 1.363 . S
C283 C289 1.363 1_545 S
C284 C285 1.363 1_565 S
C284 C289 1.379 . S
C284 N291 1.356 . S
C285 C284 1.363 1_545 S
C285 C288 1.363 . S
N286 C288 1.356 . S
N286 H298 0.984 . S
N286 H299 0.985 . S
N287 C289 1.356 . S
N287 H292 0.984 . S
N287 H293 0.985 . S
C288 C282 1.379 . S
C288 C285 1.363 . S
C288 N286 1.356 . S
C289 C283 1.363 1_565 S
C289 C284 1.379 . S
C289 N287 1.356 . S
N290 C282 1.356 . S
N290 H296 0.984 . S
N290 H297 0.984 . S
N291 C284 1.356 . S
N291 H294 0.984 . S
N291 H295 0.985 . S
H292 N287 0.984 . S
H293 N287 0.985 . S
H294 N291 0.984 . S
H295 N291 0.985 . S
H296 N290 0.984 . S
H297 N290 0.984 . S
H298 N286 0.984 . S
H299 N286 0.985 . S
C300 C301 1.363 . S
C300 C306 1.379 . S
C300 N308 1.356 1_665 S
C301 C300 1.363 . S
C301 C307 1.363 . S
C302 C303 1.363 . S
C302 C307 1.379 . S
C302 N309 1.356 . S
C303 C302 1.363 . S
C303 C306 1.363 . S
N304 C306 1.356 . S
N304 H316 0.984 . S
N304 H317 0.985 . S
N305 C307 1.356 . S
N305 H310 0.984 . S
N305 H311 0.985 . S
C306 C300 1.379 . S
C306 C303 1.363 . S
C306 N304 1.356 . S
C307 C301 1.363 . S
C307 C302 1.379 . S
C307 N305 1.356 . S
N308 C300 1.356 1_445 S
N308 H314 0.984 . S
N308 H315 0.984 . S
N309 C302 1.356 . S
N309 H312 0.984 . S
N309 H313 0.985 . S
H310 N305 0.984 . S
H311 N305 0.985 . S
H312 N309 0.984 . S
H313 N309 0.985 . S
H314 N308 0.984 . S
H315 N308 0.984 . S
H316 N304 0.984 . S
H317 N304 0.985 . S
C318 C319 1.363 . S
C318 C324 1.379 . S
C318 N326 1.356 1_565 S
C319 C318 1.363 . S
C319 C325 1.363 . S
C320 C321 1.363 . S
C320 C325 1.379 . S
C320 N327 1.356 . S
C321 C320 1.363 . S
C321 C324 1.363 . S
N322 C324 1.356 . S
N322 H334 0.984 . S
N322 H335 0.985 . S
N323 C325 1.356 . S
N323 H328 0.984 . S
N323 H329 0.985 1_455 S
C324 C318 1.379 . S
C324 C321 1.363 . S
C324 N322 1.356 . S
C325 C319 1.363 . S
C325 C320 1.379 . S
C325 N323 1.356 . S
N326 C318 1.356 1_545 S
N326 H332 0.984 . S
N326 H333 0.984 . S
N327 C320 1.356 . S
N327 H330 0.984 . S
N327 H331 0.985 1_455 S
H328 N323 0.984 . S
H329 N323 0.985 1_655 S
H330 N327 0.984 . S
H331 N327 0.985 1_655 S
H332 N326 0.984 . S
H333 N326 0.984 . S
H334 N322 0.984 . S
H335 N322 0.985 . S
C336 C337 1.363 . S
C336 C342 1.379 . S
C336 N344 1.356 . S
C337 C336 1.363 . S
C337 C343 1.363 . S
C338 C339 1.363 . S
C338 C343 1.379 . S
C338 N345 1.356 . S
C339 C338 1.363 . S
C339 C342 1.363 . S
N340 C342 1.356 . S
N340 H352 0.984 . S
N340 H353 0.985 . S
N341 C343 1.356 . S
N341 H346 0.984 1_545 S
N341 H347 0.985 1_545 S
C342 C336 1.379 . S
C342 C339 1.363 . S
C342 N340 1.356 . S
C343 C337 1.363 . S
C343 C338 1.379 . S
C343 N341 1.356 . S
N344 C336 1.356 . S
N344 H350 0.984 . S
N344 H351 0.984 . S
N345 C338 1.356 . S
N345 H348 0.984 . S
N345 H349 0.985 . S
H346 N341 0.984 1_565 S
H347 N341 0.985 1_565 S
H348 N345 0.984 . S
H349 N345 0.985 . S
H350 N344 0.984 . S
H351 N344 0.984 . S
H352 N340 0.984 . S
H353 N340 0.985 . S
C354 C355 1.363 . S
C354 C360 1.379 . S
C354 N362 1.356 . S
C355 C354 1.363 . S
C355 C361 1.363 . S
C356 C357 1.363 . S
C356 C361 1.379 . S
C356 N363 1.356 . S
C357 C356 1.363 . S
C357 C360 1.363 . S
N358 C360 1.356 . S
N358 H370 0.984 . S
N358 H371 0.985 . S
N359 C361 1.356 . S
N359 H364 0.984 . S
N359 H365 0.985 . S
C360 C354 1.379 . S
C360 C357 1.363 . S
C360 N358 1.356 . S
C361 C355 1.363 . S
C361 C356 1.379 . S
C361 N359 1.356 . S
N362 C354 1.356 . S
N362 H368 0.984 . S
N362 H369 0.984 . S
N363 C356 1.356 . S
N363 H366 0.984 . S
N363 H367 0.985 . S
H364 N359 0.984 . S
H365 N359 0.985 . S
H366 N363 0.984 . S
H367 N363 0.985 . S
H368 N362 0.984 . S
H369 N362 0.984 . S
H370 N358 0.984 . S
H371 N358 0.985 . S
C372 C373 1.363 . S
C372 C378 1.379 . S
C372 N380 1.356 . S
C373 C372 1.363 . S
C373 C379 1.363 . S
C374 C375 1.363 . S
C374 C379 1.379 . S
C374 N381 1.356 . S
C375 C374 1.363 . S
C375 C378 1.363 . S
N376 C378 1.356 . S
N376 H388 0.984 . S
N376 H389 0.985 . S
N377 C379 1.356 . S
N377 H382 0.984 1_655 S
N377 H383 0.985 . S
C378 C372 1.379 . S
C378 C375 1.363 . S
C378 N376 1.356 . S
C379 C373 1.363 . S
C379 C374 1.379 . S
C379 N377 1.356 . S
N380 C372 1.356 . S
N380 H386 0.984 . S
N380 H387 0.979 1_655 S
N381 C374 1.356 . S
N381 H384 0.984 . S
N381 H385 0.985 . S
H382 N377 0.984 1_455 S
H383 N377 0.985 . S
H384 N381 0.984 . S
H385 N381 0.985 . S
H386 N380 0.984 . S
H387 N380 0.979 1_455 S
H388 N376 0.984 . S
H389 N376 0.985 . S
C390 C391 1.363 . S
C390 C396 1.379 . S
C390 N398 1.356 . S
C391 C390 1.363 . S
C391 C397 1.363 1_565 S
C392 C393 1.363 . S
C392 C397 1.379 1_566 S
C392 N399 1.356 1_565 S
C393 C392 1.363 . S
C393 C396 1.363 1_556 S
N394 C396 1.356 1_556 S
N394 H406 0.984 . S
N394 H407 0.985 . S
N395 C397 1.356 . S
N395 H400 0.984 . S
N395 H401 0.985 . S
C396 C390 1.379 . S
C396 C393 1.363 1_554 S
C396 N394 1.356 1_554 S
C397 C391 1.363 1_545 S
C397 C392 1.379 1_544 S
C397 N395 1.356 . S
N398 C390 1.356 . S
N398 H404 0.984 . S
N398 H405 0.984 . S
N399 C392 1.356 1_545 S
N399 H402 0.984 1_545 S
N399 H403 0.985 . S
H400 N395 0.984 . S
H401 N395 0.985 . S
H402 N399 0.984 1_565 S
H403 N399 0.985 . S
H404 N398 0.984 . S
H405 N398 0.984 . S
H406 N394 0.984 . S
H407 N394 0.985 . S
C408 C409 1.363 1_455 S
C408 C414 1.379 . S
C408 N416 1.356 . S
C409 C408 1.363 1_655 S
C409 C415 1.363 . S
C410 C411 1.363 . S
C410 C415 1.379 . S
C410 N417 1.356 . S
C411 C410 1.363 . S
C411 C414 1.363 1_655 S
N412 C414 1.356 . S
N412 H424 0.984 . S
N412 H425 0.985 . S
N413 C415 1.356 . S
N413 H418 0.984 . S
N413 H419 0.985 . S
C414 C408 1.379 . S
C414 C411 1.363 1_455 S
C414 N412 1.356 . S
C415 C409 1.363 . S
C415 C410 1.379 . S
C415 N413 1.356 . S
N416 C408 1.356 . S
N416 H422 0.984 . S
N416 H423 0.984 . S
N417 C410 1.356 . S
N417 H420 0.984 . S
N417 H421 0.985 . S
H418 N413 0.984 . S
H419 N413 0.985 . S
H420 N417 0.984 . S
H421 N417 0.985 . S
H422 N416 0.984 . S
H423 N416 0.984 . S
H424 N412 0.984 . S
H425 N412 0.985 . S
C426 C427 1.363 . S
C426 C432 1.379 . S
C426 N434 1.356 . S
C427 C426 1.363 . S
C427 C433 1.363 . S
C428 C429 1.363 . S
C428 C433 1.379 . S
C428 N435 1.356 . S
C429 C428 1.363 . S
C429 C432 1.363 . S
N430 C432 1.356 . S
N430 H442 0.984 . S
N430 H443 0.985 . S
N431 C433 1.356 . S
N431 H436 0.984 . S
N431 H437 0.985 1_545 S
C432 C426 1.379 . S
C432 C429 1.363 . S
C432 N430 1.356 . S
C433 C427 1.363 . S
C433 C428 1.379 . S
C433 N431 1.356 . S
N434 C426 1.356 . S
N434 H440 0.984 . S
N434 H441 0.984 . S
N435 C428 1.356 . S
N435 H438 0.984 . S
N435 H439 0.978 1_545 S
H436 N431 0.984 . S
H437 N431 0.985 1_565 S
H438 N435 0.984 . S
H439 N435 0.978 1_565 S
H440 N434 0.984 . S
H441 N434 0.984 . S
H442 N430 0.984 . S
H443 N430 0.985 . S
C444 C445 1.363 . S
C444 C450 1.379 . S
C444 N452 1.356 . S
C445 C444 1.363 . S
C445 C451 1.363 . S
C446 C447 1.363 . S
C446 C451 1.379 . S
C446 N453 1.356 . S
C447 C446 1.363 . S
C447 C450 1.363 . S
N448 C450 1.356 . S
N448 H460 0.984 . S
N448 H461 0.985 1_554 S
N449 C451 1.356 . S
N449 H454 0.984 . S
N449 H455 0.985 . S
C450 C444 1.379 . S
C450 C447 1.363 . S
C450 N448 1.356 . S
C451 C445 1.363 . S
C451 C446 1.379 . S
C451 N449 1.356 . S
N452 C444 1.356 . S
N452 H458 0.984 . S
N452 H459 0.984 . S
N453 C446 1.356 . S
N453 H456 0.984 . S
N453 H457 0.985 . S
H454 N449 0.984 . S
H455 N449 0.985 . S
H456 N453 0.984 . S
H457 N453 0.985 . S
H458 N452 0.984 . S
H459 N452 0.984 . S
H460 N448 0.984 . S
H461 N448 0.985 1_556 S
C462 C463 1.363 . S
C462 C468 1.379 . S
C462 N470 1.356 . S
C463 C462 1.363 . S
C463 C469 1.363 . S
C464 C465 1.363 . S
C464 C469 1.379 . S
C464 N471 1.356 . S
C465 C464 1.363 . S
C465 C468 1.363 . S
N466 C468 1.356 . S
N466 H478 0.984 1_455 S
N466 H479 0.985 . S
N467 C469 1.356 . S
N467 H472 0.984 . S
N467 H473 0.985 . S
C468 C462 1.379 . S
C468 C465 1.363 . S
C468 N466 1.356 . S
C469 C463 1.363 . S
C469 C464 1.379 . S
C469 N467 1.356 . S
N470 C462 1.356 . S
N470 H476 0.984 1_455 S
N470 H477 0.984 . S
N471 C464 1.356 . S
N471 H474 0.984 . S
N471 H475 0.985 . S
H472 N467 0.984 . S
H473 N467 0.985 . S
H474 N471 0.984 . S
H475 N471 0.985 . S
H476 N470 0.984 1_655 S
H477 N470 0.984 . S
H478 N466 0.984 1_655 S
H479 N466 0.985 . S
C267 C81 1.412 . S
C265 C11 1.569 . S
C283 C26 1.587 1_545 S
C285 C155 1.512 . S
C301 C40 1.974 1_665 S
C303 C259 1.986 . S
C319 C5 0.803 . S
C321 C93 0.850 . S
C339 C167 1.029 . S
C337 C18 1.025 . S
C355 C32 1.697 . S
C357 C253 1.500 . S
C375 C185 1.918 . S
C373 C39 1.919 1_655 S
C391 C4 1.483 1_565 S
C393 C229 1.434 . S
C411 C105 1.494 1_655 S
C409 C19 1.536 . S
C429 C179 1.383 . S
C427 C33 1.410 . S
C447 C241 0.894 . S
C445 C12 0.892 . S
C463 C25 2.028 . S
C465 C111 2.045 . S
