# Generated by pormake.
# Topology ptr, (4,4)-cn, num edge types: 1
# Building blocks:
#     Node 0, Type 0, BuildingBlock: TATPOV_clean_sbu_0, # of connection points: 4
#     Node 1, Type 0, BuildingBlock: TATPOV_clean_sbu_0, # of connection points: 4
#     Node 2, Type 0, BuildingBlock: TATPOV_clean_sbu_0, # of connection points: 4
#     Node 3, Type 0, BuildingBlock: TATPOV_clean_sbu_0, # of connection points: 4
#     Node 4, Type 0, BuildingBlock: TATPOV_clean_sbu_0, # of connection points: 4
#     Node 5, Type 0, BuildingBlock: TATPOV_clean_sbu_0, # of connection points: 4
#     Node 6, Type 0, BuildingBlock: TATPOV_clean_sbu_0, # of connection points: 4
#     Node 7, Type 0, BuildingBlock: TATPOV_clean_sbu_0, # of connection points: 4
#     Node 8, Type 0, BuildingBlock: TATPOV_clean_sbu_0, # of connection points: 4
#     Node 9, Type 0, BuildingBlock: TATPOV_clean_sbu_0, # of connection points: 4
#     Node 10, Type 0, BuildingBlock: TATPOV_clean_sbu_0, # of connection points: 4
#     Node 11, Type 0, BuildingBlock: TATPOV_clean_sbu_0, # of connection points: 4
#     Node 12, Type 0, BuildingBlock: TATPOV_clean_sbu_0, # of connection points: 4
#     Node 13, Type 0, BuildingBlock: TATPOV_clean_sbu_0, # of connection points: 4
#     Node 14, Type 0, BuildingBlock: TATPOV_clean_sbu_0, # of connection points: 4
#     Node 15, Type 0, BuildingBlock: TATPOV_clean_sbu_0, # of connection points: 4
#     Node 16, Type 0, BuildingBlock: TATPOV_clean_sbu_0, # of connection points: 4
#     Node 17, Type 0, BuildingBlock: TATPOV_clean_sbu_0, # of connection points: 4
#     Node 18, Type 1, BuildingBlock: AZAVOO_clean_linker_0, # of connection points: 4
#     Node 19, Type 1, BuildingBlock: AZAVOO_clean_linker_0, # of connection points: 4
#     Node 20, Type 1, BuildingBlock: AZAVOO_clean_linker_0, # of connection points: 4
#     Node 21, Type 1, BuildingBlock: AZAVOO_clean_linker_0, # of connection points: 4
#     Node 22, Type 1, BuildingBlock: AZAVOO_clean_linker_0, # of connection points: 4
#     Node 23, Type 1, BuildingBlock: AZAVOO_clean_linker_0, # of connection points: 4
#     Node 24, Type 1, BuildingBlock: AZAVOO_clean_linker_0, # of connection points: 4
#     Node 25, Type 1, BuildingBlock: AZAVOO_clean_linker_0, # of connection points: 4
#     Node 26, Type 1, BuildingBlock: AZAVOO_clean_linker_0, # of connection points: 4
#     Node 27, Type 1, BuildingBlock: AZAVOO_clean_linker_0, # of connection points: 4
#     Node 28, Type 1, BuildingBlock: AZAVOO_clean_linker_0, # of connection points: 4
#     Node 29, Type 1, BuildingBlock: AZAVOO_clean_linker_0, # of connection points: 4
#     Node 30, Type 1, BuildingBlock: AZAVOO_clean_linker_0, # of connection points: 4
#     Node 31, Type 1, BuildingBlock: AZAVOO_clean_linker_0, # of connection points: 4
#     Node 32, Type 1, BuildingBlock: AZAVOO_clean_linker_0, # of connection points: 4
#     Node 33, Type 1, BuildingBlock: AZAVOO_clean_linker_0, # of connection points: 4
#     Node 34, Type 1, BuildingBlock: AZAVOO_clean_linker_0, # of connection points: 4
#     Node 35, Type 1, BuildingBlock: AZAVOO_clean_linker_0, # of connection points: 4
#     Edge 36, Type (0, 1), BuildingBlock: KIFKEQ_clean_linker_1, # of connection points: 2
#     Edge 37, Type (0, 1), BuildingBlock: KIFKEQ_clean_linker_1, # of connection points: 2
#     Edge 38, Type (0, 1), BuildingBlock: KIFKEQ_clean_linker_1, # of connection points: 2
#     Edge 39, Type (0, 1), BuildingBlock: KIFKEQ_clean_linker_1, # of connection points: 2
#     Edge 40, Type (0, 1), BuildingBlock: KIFKEQ_clean_linker_1, # of connection points: 2
#     Edge 41, Type (0, 1), BuildingBlock: KIFKEQ_clean_linker_1, # of connection points: 2
#     Edge 42, Type (0, 1), BuildingBlock: KIFKEQ_clean_linker_1, # of connection points: 2
#     Edge 43, Type (0, 1), BuildingBlock: KIFKEQ_clean_linker_1, # of connection points: 2
#     Edge 44, Type (0, 1), BuildingBlock: KIFKEQ_clean_linker_1, # of connection points: 2
#     Edge 45, Type (0, 1), BuildingBlock: KIFKEQ_clean_linker_1, # of connection points: 2
#     Edge 46, Type (0, 1), BuildingBlock: KIFKEQ_clean_linker_1, # of connection points: 2
#     Edge 47, Type (0, 1), BuildingBlock: KIFKEQ_clean_linker_1, # of connection points: 2
#     Edge 48, Type (0, 1), BuildingBlock: KIFKEQ_clean_linker_1, # of connection points: 2
#     Edge 49, Type (0, 1), BuildingBlock: KIFKEQ_clean_linker_1, # of connection points: 2
#     Edge 50, Type (0, 1), BuildingBlock: KIFKEQ_clean_linker_1, # of connection points: 2
#     Edge 51, Type (0, 1), BuildingBlock: KIFKEQ_clean_linker_1, # of connection points: 2
#     Edge 52, Type (0, 1), BuildingBlock: KIFKEQ_clean_linker_1, # of connection points: 2
#     Edge 53, Type (0, 1), BuildingBlock: KIFKEQ_clean_linker_1, # of connection points: 2
#     Edge 54, Type (0, 1), BuildingBlock: KIFKEQ_clean_linker_1, # of connection points: 2
#     Edge 55, Type (0, 1), BuildingBlock: KIFKEQ_clean_linker_1, # of connection points: 2
#     Edge 56, Type (0, 1), BuildingBlock: KIFKEQ_clean_linker_1, # of connection points: 2
#     Edge 57, Type (0, 1), BuildingBlock: KIFKEQ_clean_linker_1, # of connection points: 2
#     Edge 58, Type (0, 1), BuildingBlock: KIFKEQ_clean_linker_1, # of connection points: 2
#     Edge 59, Type (0, 1), BuildingBlock: KIFKEQ_clean_linker_1, # of connection points: 2
#     Edge 60, Type (0, 1), BuildingBlock: KIFKEQ_clean_linker_1, # of connection points: 2
#     Edge 61, Type (0, 1), BuildingBlock: KIFKEQ_clean_linker_1, # of connection points: 2
#     Edge 62, Type (0, 1), BuildingBlock: KIFKEQ_clean_linker_1, # of connection points: 2
#     Edge 63, Type (0, 1), BuildingBlock: KIFKEQ_clean_linker_1, # of connection points: 2
#     Edge 64, Type (0, 1), BuildingBlock: KIFKEQ_clean_linker_1, # of connection points: 2
#     Edge 65, Type (0, 1), BuildingBlock: KIFKEQ_clean_linker_1, # of connection points: 2
#     Edge 66, Type (0, 1), BuildingBlock: KIFKEQ_clean_linker_1, # of connection points: 2
#     Edge 67, Type (0, 1), BuildingBlock: KIFKEQ_clean_linker_1, # of connection points: 2
#     Edge 68, Type (0, 1), BuildingBlock: KIFKEQ_clean_linker_1, # of connection points: 2
#     Edge 69, Type (0, 1), BuildingBlock: KIFKEQ_clean_linker_1, # of connection points: 2
#     Edge 70, Type (0, 1), BuildingBlock: KIFKEQ_clean_linker_1, # of connection points: 2
#     Edge 71, Type (0, 1), BuildingBlock: KIFKEQ_clean_linker_1, # of connection points: 2
#     Edge 72, Type (0, 1), BuildingBlock: KIFKEQ_clean_linker_1, # of connection points: 2
#     Edge 73, Type (0, 1), BuildingBlock: KIFKEQ_clean_linker_1, # of connection points: 2
#     Edge 74, Type (0, 1), BuildingBlock: KIFKEQ_clean_linker_1, # of connection points: 2
#     Edge 75, Type (0, 1), BuildingBlock: KIFKEQ_clean_linker_1, # of connection points: 2
#     Edge 76, Type (0, 1), BuildingBlock: KIFKEQ_clean_linker_1, # of connection points: 2
#     Edge 77, Type (0, 1), BuildingBlock: KIFKEQ_clean_linker_1, # of connection points: 2
#     Edge 78, Type (0, 1), BuildingBlock: KIFKEQ_clean_linker_1, # of connection points: 2
#     Edge 79, Type (0, 1), BuildingBlock: KIFKEQ_clean_linker_1, # of connection points: 2
#     Edge 80, Type (0, 1), BuildingBlock: KIFKEQ_clean_linker_1, # of connection points: 2
#     Edge 81, Type (0, 1), BuildingBlock: KIFKEQ_clean_linker_1, # of connection points: 2
#     Edge 82, Type (0, 1), BuildingBlock: KIFKEQ_clean_linker_1, # of connection points: 2
#     Edge 83, Type (0, 1), BuildingBlock: KIFKEQ_clean_linker_1, # of connection points: 2
#     Edge 84, Type (0, 1), BuildingBlock: KIFKEQ_clean_linker_1, # of connection points: 2
#     Edge 85, Type (0, 1), BuildingBlock: KIFKEQ_clean_linker_1, # of connection points: 2
#     Edge 86, Type (0, 1), BuildingBlock: KIFKEQ_clean_linker_1, # of connection points: 2
#     Edge 87, Type (0, 1), BuildingBlock: KIFKEQ_clean_linker_1, # of connection points: 2
#     Edge 88, Type (0, 1), BuildingBlock: KIFKEQ_clean_linker_1, # of connection points: 2
#     Edge 89, Type (0, 1), BuildingBlock: KIFKEQ_clean_linker_1, # of connection points: 2
#     Edge 90, Type (0, 1), BuildingBlock: KIFKEQ_clean_linker_1, # of connection points: 2
#     Edge 91, Type (0, 1), BuildingBlock: KIFKEQ_clean_linker_1, # of connection points: 2
#     Edge 92, Type (0, 1), BuildingBlock: KIFKEQ_clean_linker_1, # of connection points: 2
#     Edge 93, Type (0, 1), BuildingBlock: KIFKEQ_clean_linker_1, # of connection points: 2
#     Edge 94, Type (0, 1), BuildingBlock: KIFKEQ_clean_linker_1, # of connection points: 2
#     Edge 95, Type (0, 1), BuildingBlock: KIFKEQ_clean_linker_1, # of connection points: 2
#     Edge 96, Type (0, 1), BuildingBlock: KIFKEQ_clean_linker_1, # of connection points: 2
#     Edge 97, Type (0, 1), BuildingBlock: KIFKEQ_clean_linker_1, # of connection points: 2
#     Edge 98, Type (0, 1), BuildingBlock: KIFKEQ_clean_linker_1, # of connection points: 2
#     Edge 99, Type (0, 1), BuildingBlock: KIFKEQ_clean_linker_1, # of connection points: 2
#     Edge 100, Type (0, 1), BuildingBlock: KIFKEQ_clean_linker_1, # of connection points: 2
#     Edge 101, Type (0, 1), BuildingBlock: KIFKEQ_clean_linker_1, # of connection points: 2
#     Edge 102, Type (0, 1), BuildingBlock: KIFKEQ_clean_linker_1, # of connection points: 2
#     Edge 103, Type (0, 1), BuildingBlock: KIFKEQ_clean_linker_1, # of connection points: 2
#     Edge 104, Type (0, 1), BuildingBlock: KIFKEQ_clean_linker_1, # of connection points: 2
#     Edge 105, Type (0, 1), BuildingBlock: KIFKEQ_clean_linker_1, # of connection points: 2
#     Edge 106, Type (0, 1), BuildingBlock: KIFKEQ_clean_linker_1, # of connection points: 2
#     Edge 107, Type (0, 1), BuildingBlock: KIFKEQ_clean_linker_1, # of connection points: 2
# Relax obj value: 0.094
# Max RMSD: 0.270
# Mean RMSD: 0.172
data_MOF--net-ptr--node1-TATPOV_clean_sbu_0--node2-AZAVOO_clean_linker_0--edge1-KIFKEQ_clean_linker_1
_symmetry_space_group_name_H-M    P1
_symmetry_Int_Tables_number       1
_symmetry_cell_setting            triclinic
loop_
_symmetry_equiv_pos_as_xyz
'x, y, z'
_cell_length_a     82.623843
_cell_length_b     82.80805
_cell_length_c     69.051375
_cell_angle_alpha  92.405556
_cell_angle_beta   93.183276
_cell_angle_gamma 121.56821
loop_
_atom_site_label
_atom_site_type_symbol
_atom_site_fract_x
_atom_site_fract_y
_atom_site_fract_z
_atom_type_partial_charge
Zn0 Zn 0.95725 0.37355 0.01623 0.0
Zn1 Zn 0.9888 0.37188 0.0224 0.0
O2 O 0.96753 0.34459 0.01305 0.0
O3 O 0.94153 0.34543 0.00751 0.0
O4 O 0.01045 0.36803 0.02968 0.0
O5 O 0.95941 0.38298 0.04416 0.0
O6 O 0.98638 0.38369 0.04819 0.0
C7 C 0.94982 0.33619 0.00751 0.0
C8 C 0.98819 0.39701 0.9922 0.0
O9 O 0.99688 0.38974 0.00029 0.0
O10 O 0.97187 0.39276 0.99691 0.0
C11 C 0.02576 0.3803 0.03977 0.0
O12 O 0.02861 0.39716 0.0447 0.0
C13 C 0.97419 0.38696 0.05484 0.0
Zn14 Zn 0.62711 0.5803 0.04799 0.0
Zn15 Zn 0.62891 0.61217 0.06016 0.0
O16 O 0.65683 0.6206 0.05682 0.0
O17 O 0.65571 0.59387 0.04973 0.0
O18 O 0.63172 0.63647 0.07127 0.0
O19 O 0.61282 0.56695 0.0705 0.0
O20 O 0.61565 0.59377 0.08133 0.0
C21 C 0.66528 0.61179 0.05309 0.0
C22 C 0.60814 0.59217 0.02065 0.0
O23 O 0.61266 0.60538 0.03392 0.0
O24 O 0.61295 0.58012 0.02315 0.0
C25 C 0.63968 0.65149 0.06232 0.0
O26 O 0.64542 0.65088 0.04508 0.0
C27 C 0.60996 0.57637 0.08327 0.0
Zn28 Zn 0.38701 0.96502 0.02726 0.0
Zn29 Zn 0.39096 0.99926 0.02554 0.0
O30 O 0.36351 0.98157 0.03242 0.0
O31 O 0.35968 0.95331 0.03367 0.0
O32 O 0.39091 0.02316 0.02145 0.0
O33 O 0.3932 0.96494 0.99942 0.0
O34 O 0.39779 0.99358 0.99881 0.0
C35 C 0.35309 0.96404 0.03524 0.0
C36 C 0.41612 0.99481 0.05583 0.0
O37 O 0.41098 0.00547 0.04842 0.0
O38 O 0.40835 0.9776 0.04913 0.0
C39 C 0.38385 0.02964 0.03308 0.0
O40 O 0.3782 0.02173 0.04946 0.0
C41 C 0.39782 0.97957 0.99044 0.0
Zn42 Zn 0.05457 0.63843 0.05331 0.0
Zn43 Zn 0.01949 0.63329 0.04862 0.0
O44 O 0.03817 0.66187 0.05639 0.0
O45 O 0.06685 0.66645 0.06105 0.0
O46 O 0.99498 0.63245 0.04103 0.0
O47 O 0.05256 0.62852 0.02547 0.0
O48 O 0.02296 0.6218 0.02329 0.0
C49 C 0.05597 0.67293 0.06114 0.0
C50 C 0.02689 0.61271 0.07959 0.0
O51 O 0.01526 0.61669 0.07154 0.0
O52 O 0.04351 0.61979 0.07402 0.0
C53 C 0.99169 0.64472 0.04831 0.0
O54 O 0.00318 0.65664 0.06294 0.0
C55 C 0.03644 0.62118 0.01589 0.0
Zn56 Zn 0.38057 0.42382 0.01296 0.0
Zn57 Zn 0.37616 0.3907 0.00154 0.0
O58 O 0.34956 0.38339 0.00954 0.0
O59 O 0.35374 0.41069 0.02074 0.0
O60 O 0.37138 0.36541 0.99068 0.0
O61 O 0.38641 0.43331 0.98646 0.0
O62 O 0.38663 0.40744 0.97838 0.0
C63 C 0.3431 0.39282 0.01743 0.0
C64 C 0.40511 0.41493 0.03562 0.0
O65 O 0.39582 0.39906 0.02534 0.0
O66 O 0.40192 0.42803 0.03247 0.0
C67 C 0.36922 0.35245 0.00145 0.0
O68 O 0.37078 0.35576 0.02044 0.0
C69 C 0.38932 0.42349 0.97426 0.0
Zn70 Zn 0.62186 0.04059 0.04152 0.0
Zn71 Zn 0.61419 0.00443 0.04257 0.0
O72 O 0.64168 0.02038 0.03571 0.0
O73 O 0.64911 0.05003 0.03554 0.0
O74 O 0.61216 0.97928 0.04454 0.0
O75 O 0.61535 0.04006 0.06945 0.0
O76 O 0.60855 0.01058 0.06962 0.0
C77 C 0.65372 0.03772 0.03344 0.0
C78 C 0.59142 0.01231 0.01265 0.0
O79 O 0.59484 0.0005 0.0202 0.0
O80 O 0.60073 0.02967 0.01921 0.0
C81 C 0.60186 0.96672 0.05571 0.0
O82 O 0.5902 0.96912 0.06589 0.0
C83 C 0.60974 0.02512 0.07823 0.0
Zn84 Zn 0.62807 0.70988 0.34388 0.0
Zn85 Zn 0.65868 0.70757 0.35446 0.0
O86 O 0.63832 0.68061 0.34311 0.0
O87 O 0.61359 0.68232 0.33295 0.0
O88 O 0.67973 0.70368 0.36424 0.0
O89 O 0.62649 0.71714 0.37166 0.0
O90 O 0.65301 0.71771 0.37929 0.0
C91 C 0.62147 0.67277 0.33483 0.0
C92 C 0.6622 0.73483 0.32463 0.0
O93 O 0.66953 0.7267 0.33363 0.0
O94 O 0.64538 0.7306 0.32715 0.0
C95 C 0.69343 0.71515 0.37665 0.0
O96 O 0.69491 0.73116 0.38275 0.0
C97 C 0.63989 0.72041 0.38414 0.0
Zn98 Zn 0.2833 0.90489 0.38513 0.0
Zn99 Zn 0.29154 0.93931 0.39792 0.0
O100 O 0.3168 0.94465 0.38793 0.0
O101 O 0.30946 0.91644 0.37562 0.0
O102 O 0.29805 0.96513 0.40897 0.0
O103 O 0.27851 0.89576 0.41184 0.0
O104 O 0.28247 0.9233 0.42171 0.0
C105 C 0.32143 0.93411 0.37892 0.0
C106 C 0.25977 0.91634 0.36529 0.0
O107 O 0.27068 0.932 0.37556 0.0
O108 O 0.26163 0.90225 0.36737 0.0
C109 C 0.30531 0.97945 0.39895 0.0
O110 O 0.30839 0.97729 0.38083 0.0
C111 C 0.27832 0.9066 0.42517 0.0
Zn112 Zn 0.07089 0.30609 0.36627 0.0
Zn113 Zn 0.07126 0.33857 0.3634 0.0
O114 O 0.04358 0.31955 0.36842 0.0
O115 O 0.04368 0.29355 0.3737 0.0
O116 O 0.0709 0.36233 0.35943 0.0
O117 O 0.07621 0.30579 0.33801 0.0
O118 O 0.07907 0.33368 0.33703 0.0
C119 C 0.03501 0.30242 0.37292 0.0
C120 C 0.09768 0.33638 0.39476 0.0
O121 O 0.09037 0.34527 0.38742 0.0
O122 O 0.09258 0.31989 0.38757 0.0
C123 C 0.06295 0.36829 0.37043 0.0
O124 O 0.05556 0.35935 0.38589 0.0
C125 C 0.07983 0.32006 0.3288 0.0
Zn126 Zn 0.70958 0.96187 0.39828 0.0
Zn127 Zn 0.67686 0.95857 0.38424 0.0
O128 O 0.69463 0.98706 0.39315 0.0
O129 O 0.72214 0.9903 0.40248 0.0
O130 O 0.65413 0.958 0.37102 0.0
O131 O 0.71103 0.94924 0.37323 0.0
O132 O 0.68508 0.94818 0.36175 0.0
C133 C 0.71207 0.99755 0.39978 0.0
C134 C 0.67705 0.93866 0.4202 0.0
O135 O 0.66738 0.94127 0.40703 0.0
O136 O 0.69489 0.94621 0.41977 0.0
C137 C 0.647 0.96703 0.37823 0.0
O138 O 0.65352 0.97582 0.39575 0.0
C139 C 0.69839 0.945 0.35939 0.0
Zn140 Zn 0.03064 0.75379 0.35192 0.0
Zn141 Zn 0.03658 0.72559 0.3419 0.0
O142 O 0.00788 0.7123 0.34559 0.0
O143 O 0.00226 0.73523 0.35085 0.0
O144 O 0.03845 0.70353 0.33172 0.0
O145 O 0.04251 0.76708 0.32804 0.0
O146 O 0.04709 0.74381 0.32024 0.0
C147 C 0.99627 0.71767 0.34862 0.0
C148 C 0.05547 0.749 0.38021 0.0
O149 O 0.05349 0.7362 0.36768 0.0
O150 O 0.04705 0.75791 0.37703 0.0
C151 C 0.0379 0.69115 0.34239 0.0
O152 O 0.03705 0.69314 0.36122 0.0
C153 C 0.04861 0.75949 0.31663 0.0
Zn154 Zn 0.27253 0.36397 0.37131 0.0
Zn155 Zn 0.27111 0.33066 0.37394 0.0
O156 O 0.29815 0.34954 0.36739 0.0
O157 O 0.29962 0.37647 0.36348 0.0
O158 O 0.27287 0.30752 0.37655 0.0
O159 O 0.26828 0.36424 0.39979 0.0
O160 O 0.26435 0.33585 0.40086 0.0
C161 C 0.30745 0.36679 0.36334 0.0
C162 C 0.24382 0.33275 0.3442 0.0
O163 O 0.25097 0.3236 0.35115 0.0
O164 O 0.24987 0.34965 0.35085 0.0
C165 C 0.26318 0.29422 0.38727 0.0
O166 O 0.24998 0.2945 0.39678 0.0
C167 C 0.26448 0.34999 0.4091 0.0
Zn168 Zn 0.29025 0.03464 0.67618 0.0
Zn169 Zn 0.32436 0.03934 0.68749 0.0
O170 O 0.30714 0.01076 0.67909 0.0
O171 O 0.27915 0.00653 0.66987 0.0
O172 O 0.34801 0.0409 0.69932 0.0
O173 O 0.28889 0.04531 0.70264 0.0
O174 O 0.31707 0.04964 0.7108 0.0
C175 C 0.28981 -0.0001 0.67228 0.0
C176 C 0.32143 0.05929 0.65288 0.0
O177 O 0.33191 0.05605 0.66431 0.0
O178 O 0.30393 0.05212 0.65532 0.0
C179 C 0.35572 0.0328 0.69136 0.0
O180 O 0.34921 0.02436 0.67371 0.0
C181 C 0.30307 0.05113 0.71505 0.0
Zn182 Zn 0.96864 0.24724 0.71559 0.0
Zn183 Zn 0.96785 0.27882 0.72395 0.0
O184 O 0.99606 0.28848 0.72081 0.0
O185 O 0.99722 0.26278 0.7152 0.0
O186 O 0.96945 0.30328 0.73203 0.0
O187 O 0.95698 0.2368 0.74044 0.0
O188 O 0.95601 0.26252 0.74688 0.0
C189 C 0.0056 0.28071 0.71753 0.0
C190 C 0.9463 0.25406 0.68655 0.0
O191 O 0.95097 0.26863 0.69798 0.0
O192 O 0.95197 0.24299 0.69089 0.0
C193 C 0.95539 0.30433 0.73687 0.0
O194 O 0.93841 0.28874 0.736 0.0
C195 C 0.95273 0.24638 0.75146 0.0
Zn196 Zn 0.73047 0.63681 0.6996 0.0
Zn197 Zn 0.73388 0.67099 0.69727 0.0
O198 O 0.70604 0.65305 0.70226 0.0
O199 O 0.70249 0.62495 0.70427 0.0
O200 O 0.73404 0.69496 0.69288 0.0
O201 O 0.73826 0.63743 0.67232 0.0
O202 O 0.74148 0.66546 0.67094 0.0
C203 C 0.69556 0.63546 0.70477 0.0
C204 C 0.7579 0.6664 0.72913 0.0
O205 O 0.75266 0.67685 0.72138 0.0
O206 O 0.75092 0.64937 0.72225 0.0
C207 C 0.72652 0.70132 0.70402 0.0
O208 O 0.72016 0.69321 0.72015 0.0
C209 C 0.74242 0.65181 0.66307 0.0
Zn210 Zn 0.38558 0.29706 0.72602 0.0
Zn211 Zn 0.35217 0.29427 0.71528 0.0
O212 O 0.37077 0.32227 0.72531 0.0
O213 O 0.39803 0.32496 0.73451 0.0
O214 O 0.32901 0.29469 0.70474 0.0
O215 O 0.38678 0.2879 0.69896 0.0
O216 O 0.35897 0.28458 0.69093 0.0
C217 C 0.38802 0.33235 0.73257 0.0
C218 C 0.35344 0.27063 0.74712 0.0
O219 O 0.34374 0.27577 0.73703 0.0
O220 O 0.37092 0.27754 0.74479 0.0
C221 C 0.32505 0.30637 0.71224 0.0
O222 O 0.33501 0.31692 0.72823 0.0
C223 C 0.37284 0.28291 0.68648 0.0
Zn224 Zn 0.71711 0.09354 0.68029 0.0
Zn225 Zn 0.7112 0.05937 0.66919 0.0
O226 O 0.68512 0.05345 0.67754 0.0
O227 O 0.69005 0.08146 0.68714 0.0
O228 O 0.70537 0.03353 0.65889 0.0
O229 O 0.72397 0.10249 0.65366 0.0
O230 O 0.72142 0.07521 0.64555 0.0
C231 C 0.67903 0.06358 0.68454 0.0
C232 C 0.74075 0.08342 0.70304 0.0
O233 O 0.73156 0.06783 0.69229 0.0
O234 O 0.73745 0.09654 0.70046 0.0
C235 C 0.70458 0.02121 0.66982 0.0
O236 O 0.70808 0.0254 0.68874 0.0
C237 C 0.72544 0.09169 0.64134 0.0
Zn238 Zn 0.93628 0.69816 0.70685 0.0
Zn239 Zn 0.93384 0.66459 0.70992 0.0
O240 O 0.96125 0.68251 0.70318 0.0
O241 O 0.96304 0.70952 0.69865 0.0
O242 O 0.9332 0.64026 0.7137 0.0
O243 O 0.93244 0.69954 0.73528 0.0
O244 O 0.92775 0.67089 0.73673 0.0
C245 C 0.97066 0.69964 0.69871 0.0
C246 C 0.9069 0.66737 0.68014 0.0
O247 O 0.91366 0.65791 0.68718 0.0
O248 O 0.9135 0.68443 0.68665 0.0
C249 C 0.94213 0.63499 0.70334 0.0
O250 O 0.95113 0.64507 0.68904 0.0
C251 C 0.92837 0.68535 0.74481 0.0
H252 H 0.16988 0.36641 0.01731 0.0
H253 H 0.24272 0.28062 0.16295 0.0
H254 H 0.15637 0.36004 0.12575 0.0
H255 H 0.13513 0.36967 0.11192 0.0
H256 H 0.0912 0.3105 0.09781 0.0
H257 H 0.11242 0.3011 0.11247 0.0
H258 H 0.18475 0.35929 0.09937 0.0
H259 H 0.18298 0.36777 0.06611 0.0
H260 H 0.13569 0.31044 0.04981 0.0
H261 H 0.13774 0.30215 0.08311 0.0
H262 H 0.21173 0.35308 0.12391 0.0
H263 H 0.23834 0.36122 0.10456 0.0
H264 H 0.20392 0.30769 0.06957 0.0
H265 H 0.17698 0.2999 0.08895 0.0
H266 H 0.21072 0.33979 0.16244 0.0
H267 H 0.23507 0.33297 0.17334 0.0
H268 H 0.2025 0.27776 0.14106 0.0
H269 H 0.17818 0.28473 0.13042 0.0
H270 H 0.18352 0.34471 0.18084 0.0
H271 H 0.19107 0.34266 0.21483 0.0
H272 H 0.16061 0.28129 0.20495 0.0
H273 H 0.15413 0.28378 0.17046 0.0
H274 H 0.15198 0.35111 0.16264 0.0
H275 H 0.1358 0.35236 0.19072 0.0
H276 H 0.10714 0.29121 0.19113 0.0
H277 H 0.12265 0.29012 0.16249 0.0
O278 O 0.17036 0.36275 0.03036 0.0
O279 O 0.14604 0.33312 0.02275 0.0
O280 O 0.2495 0.31221 0.17525 0.0
O281 O 0.23331 0.28369 0.15887 0.0
C282 C 0.14956 0.32442 0.12672 0.0
C283 C 0.16245 0.32502 0.11371 0.0
C284 C 0.17677 0.32152 0.12011 0.0
C285 C 0.17778 0.3167 0.13929 0.0
C286 C 0.16508 0.3163 0.15237 0.0
C287 C 0.15091 0.32012 0.1461 0.0
C288 C 0.13582 0.3299 0.12026 0.0
C289 C 0.14201 0.34919 0.12 0.0
C290 C 0.12992 0.35464 0.11185 0.0
C291 C 0.11147 0.34088 0.10355 0.0
C292 C 0.1052 0.32149 0.10426 0.0
C293 C 0.11728 0.31606 0.1126 0.0
C294 C 0.16143 0.3301 0.09354 0.0
C295 C 0.17409 0.34858 0.08855 0.0
C296 C 0.17301 0.35339 0.06957 0.0
C297 C 0.1592 0.33978 0.05529 0.0
C298 C 0.14651 0.32126 0.06043 0.0
C299 C 0.14763 0.31648 0.07942 0.0
C300 C 0.19254 0.32588 0.10789 0.0
C301 C 0.20996 0.3431 0.11209 0.0
C302 C 0.22518 0.34763 0.10109 0.0
C303 C 0.22338 0.33497 0.08567 0.0
C304 C 0.20575 0.31776 0.0813 0.0
C305 C 0.19041 0.31325 0.09237 0.0
C306 C 0.19262 0.31266 0.14583 0.0
C307 C 0.20882 0.32619 0.15787 0.0
C308 C 0.22273 0.32228 0.16401 0.0
C309 C 0.2207 0.30478 0.15812 0.0
C310 C 0.20449 0.29134 0.14591 0.0
C311 C 0.19058 0.29527 0.13981 0.0
C312 C 0.1683 0.31442 0.17327 0.0
C313 C 0.1784 0.33083 0.18609 0.0
C314 C 0.18253 0.32956 0.2056 0.0
C315 C 0.17635 0.31176 0.21284 0.0
C316 C 0.16584 0.29525 0.19992 0.0
C317 C 0.16199 0.29659 0.18024 0.0
C318 C 0.13834 0.32051 0.1604 0.0
C319 C 0.14165 0.33794 0.16836 0.0
C320 C 0.13263 0.33864 0.18463 0.0
C321 C 0.12031 0.32191 0.19339 0.0
C322 C 0.11631 0.30436 0.18469 0.0
C323 C 0.12519 0.30368 0.16832 0.0
C324 C 0.15808 0.34494 0.03514 0.0
C325 C 0.23541 0.30053 0.16463 0.0
H326 H 0.61909 0.79639 0.03304 0.0
H327 H 0.69313 0.96116 0.18583 0.0
H328 H 0.63948 0.7966 0.13552 0.0
H329 H 0.63482 0.76652 0.12242 0.0
H330 H 0.69575 0.79061 0.12998 0.0
H331 H 0.7003 0.82106 0.14234 0.0
H332 H 0.63135 0.82275 0.1155 0.0
H333 H 0.6207 0.81018 0.08147 0.0
H334 H 0.67807 0.82538 0.07156 0.0
H335 H 0.68857 0.8381 0.10558 0.0
H336 H 0.63522 0.85525 0.14443 0.0
H337 H 0.6223 0.87081 0.12544 0.0
H338 H 0.6687 0.89024 0.08866 0.0
H339 H 0.68191 0.8751 0.10832 0.0
H340 H 0.6531 0.86717 0.18576 0.0
H341 H 0.65507 0.8964 0.19791 0.0
H342 H 0.70025 0.92851 0.16107 0.0
H343 H 0.69831 0.89921 0.14925 0.0
H344 H 0.66228 0.83859 0.20451 0.0
H345 H 0.66929 0.85386 0.23759 0.0
H346 H 0.71947 0.9033 0.21991 0.0
H347 H 0.71264 0.88774 0.18695 0.0
H348 H 0.65529 0.80213 0.17778 0.0
H349 H 0.66154 0.7861 0.20334 0.0
H350 H 0.71994 0.83318 0.21271 0.0
H351 H 0.71379 0.84893 0.18645 0.0
O352 O 0.62362 0.8015 0.04643 0.0
O353 O 0.65333 0.80952 0.04212 0.0
O354 O 0.66882 0.93224 0.19998 0.0
O355 O 0.692 0.94939 0.18122 0.0
C356 C 0.6728 0.8296 0.14652 0.0
C357 C 0.66726 0.83906 0.13362 0.0
C358 C 0.66778 0.85565 0.14042 0.0
C359 C 0.67485 0.86343 0.15978 0.0
C360 C 0.6808 0.85428 0.17262 0.0
C361 C 0.67956 0.83719 0.16608 0.0
C362 C 0.67023 0.81107 0.13971 0.0
C363 C 0.65183 0.79539 0.13429 0.0
C364 C 0.64919 0.77814 0.127 0.0
C365 C 0.66491 0.7761 0.12515 0.0
C366 C 0.68335 0.79176 0.13096 0.0
C367 C 0.68599 0.80911 0.13817 0.0
C368 C 0.66075 0.83146 0.11295 0.0
C369 C 0.64161 0.82348 0.10591 0.0
C370 C 0.63556 0.81624 0.08649 0.0
C371 C 0.64854 0.8168 0.07378 0.0
C372 C 0.66771 0.82475 0.08094 0.0
C373 C 0.67375 0.83201 0.10036 0.0
C374 C 0.65956 0.86417 0.12782 0.0
C375 C 0.64256 0.86283 0.13223 0.0
C376 C 0.6351 0.87158 0.12123 0.0
C377 C 0.64444 0.88176 0.10549 0.0
C378 C 0.66128 0.88269 0.10082 0.0
C379 C 0.66878 0.87397 0.11193 0.0
C380 C 0.67564 0.88111 0.16673 0.0
C381 C 0.66345 0.88055 0.18038 0.0
C382 C 0.66458 0.89725 0.18727 0.0
C383 C 0.67786 0.91481 0.18049 0.0
C384 C 0.6899 0.91525 0.16662 0.0
C385 C 0.68879 0.89854 0.1598 0.0
C386 C 0.68693 0.86207 0.19331 0.0
C387 C 0.67511 0.85246 0.20793 0.0
C388 C 0.6791 0.86122 0.22678 0.0
C389 C 0.69482 0.87982 0.23122 0.0
C390 C 0.70716 0.88903 0.2168 0.0
C391 C 0.70333 0.88015 0.19804 0.0
C392 C 0.68409 0.82667 0.18013 0.0
C393 C 0.6696 0.80875 0.18488 0.0
C394 C 0.67318 0.79961 0.19951 0.0
C395 C 0.69124 0.8084 0.20993 0.0
C396 C 0.7059 0.82613 0.20487 0.0
C397 C 0.7024 0.83511 0.18993 0.0
C398 C 0.64206 0.80908 0.05316 0.0
C399 C 0.67922 0.93261 0.18786 0.0
H400 H 0.13909 0.85122 0.02459 0.0
H401 H 0.29111 0.97794 0.18678 0.0
H402 H 0.12201 0.8494 0.12464 0.0
H403 H 0.09877 0.81652 0.11147 0.0
H404 H 0.13273 0.79785 0.14143 0.0
H405 H 0.15549 0.83032 0.15435 0.0
H406 H 0.1583 0.88809 0.10367 0.0
H407 H 0.14946 0.87693 0.06913 0.0
H408 H 0.15825 0.83079 0.0794 0.0
H409 H 0.16731 0.84225 0.11382 0.0
H410 H 0.20286 0.92479 0.12344 0.0
H411 H 0.23022 0.9387 0.10363 0.0
H412 H 0.22945 0.88606 0.10205 0.0
H413 H 0.203 0.87276 0.12236 0.0
H414 H 0.19614 0.93048 0.17142 0.0
H415 H 0.22635 0.95991 0.18215 0.0
H416 H 0.25676 0.93173 0.16964 0.0
H417 H 0.22645 0.90237 0.15917 0.0
H418 H 0.16488 0.89965 0.19997 0.0
H419 H 0.17465 0.90563 0.23516 0.0
H420 H 0.21627 0.89013 0.22587 0.0
H421 H 0.20614 0.88376 0.19115 0.0
H422 H 0.12789 0.8655 0.17572 0.0
H423 H 0.10727 0.84624 0.20037 0.0
H424 H 0.14554 0.82674 0.21413 0.0
H425 H 0.16625 0.84632 0.18982 0.0
O426 O 0.14273 0.85544 0.03829 0.0
O427 O 0.14735 0.83191 0.04436 0.0
O428 O 0.26265 0.9803 0.18892 0.0
O429 O 0.27896 0.96649 0.18265 0.0
C430 C 0.15606 0.86206 0.14634 0.0
C431 C 0.16834 0.87271 0.13225 0.0
C432 C 0.18596 0.88962 0.13812 0.0
C433 C 0.1907 0.89659 0.15796 0.0
C434 C 0.17825 0.88614 0.17202 0.0
C435 C 0.16094 0.86889 0.16618 0.0
C436 C 0.14025 0.84219 0.14073 0.0
C437 C 0.12407 0.83806 0.12869 0.0
C438 C 0.11094 0.81934 0.12108 0.0
C439 C 0.11382 0.80452 0.12547 0.0
C440 C 0.12975 0.80876 0.13809 0.0
C441 C 0.1428 0.82735 0.14557 0.0
C442 C 0.16319 0.86585 0.11128 0.0
C443 C 0.15831 0.87558 0.09841 0.0
C444 C 0.15325 0.86917 0.0787 0.0
C445 C 0.15305 0.85291 0.07152 0.0
C446 C 0.15816 0.8433 0.08446 0.0
C447 C 0.16326 0.84977 0.10415 0.0
C448 C 0.20088 0.89773 0.12425 0.0
C449 C 0.20854 0.91628 0.1186 0.0
C450 C 0.22409 0.92415 0.10726 0.0
C451 C 0.23213 0.91354 0.10147 0.0
C452 C 0.22385 0.89474 0.10657 0.0
C453 C 0.20853 0.887 0.11795 0.0
C454 C 0.20914 0.91439 0.1643 0.0
C455 C 0.20935 0.93072 0.17098 0.0
C456 C 0.22662 0.9475 0.1771 0.0
C457 C 0.24399 0.94819 0.17668 0.0
C458 C 0.24367 0.93172 0.17008 0.0
C459 C 0.22639 0.91495 0.16402 0.0
C460 C 0.18489 0.89138 0.19304 0.0
C461 C 0.17619 0.89771 0.20561 0.0
C462 C 0.18182 0.90117 0.22563 0.0
C463 C 0.1961 0.89818 0.23328 0.0
C464 C 0.20501 0.89226 0.22048 0.0
C465 C 0.1994 0.88882 0.20061 0.0
C466 C 0.1485 0.85725 0.18103 0.0
C467 C 0.1318 0.85709 0.18411 0.0
C468 C 0.12012 0.84617 0.19816 0.0
C469 C 0.12483 0.83499 0.20903 0.0
C470 C 0.14153 0.83511 0.2058 0.0
C471 C 0.15336 0.8463 0.19202 0.0
C472 C 0.14756 0.84607 0.05059 0.0
C473 C 0.26238 0.96599 0.18313 0.0
H474 H 0.3202 0.18519 0.04653 0.0
H475 H 0.3296 0.04663 0.90653 0.0
H476 H 0.29748 0.1752 0.94246 0.0
H477 H 0.30378 0.20679 0.95273 0.0
H478 H 0.35943 0.23234 0.93101 0.0
H479 H 0.35271 0.20075 0.92035 0.0
H480 H 0.29789 0.14323 0.96978 0.0
H481 H 0.30198 0.15661 0.00325 0.0
H482 H 0.35893 0.20209 0.99404 0.0
H483 H 0.35473 0.18842 0.96069 0.0
H484 H 0.298 0.10491 0.95233 0.0
H485 H 0.30694 0.08718 0.97342 0.0
H486 H 0.36454 0.13583 0.98238 0.0
H487 H 0.35566 0.15326 0.96095 0.0
H488 H 0.28799 0.09735 0.9059 0.0
H489 H 0.28583 0.06692 0.89974 0.0
H490 H 0.34591 0.09405 0.91831 0.0
H491 H 0.34793 0.12443 0.9241 0.0
H492 H 0.28718 0.12663 0.87659 0.0
H493 H 0.28347 0.1113 0.84405 0.0
H494 H 0.34079 0.12262 0.8532 0.0
H495 H 0.34434 0.13786 0.88554 0.0
H496 H 0.29282 0.16775 0.89593 0.0
H497 H 0.29227 0.18408 0.86712 0.0
H498 H 0.3453 0.19016 0.85272 0.0
H499 H 0.34598 0.17436 0.88156 0.0
O500 O 0.31892 0.18009 0.03328 0.0
O501 O 0.34808 0.20321 0.02777 0.0
O502 O 0.29933 0.04531 0.89893 0.0
O503 O 0.33008 0.0585 0.9087 0.0
C504 C 0.32187 0.16663 0.92668 0.0
C505 C 0.32323 0.15684 0.94243 0.0
C506 C 0.32222 0.13941 0.93881 0.0
C507 C 0.31924 0.13145 0.91946 0.0
C508 C 0.31783 0.14116 0.90374 0.0
C509 C 0.31932 0.15886 0.90732 0.0
C510 C 0.32462 0.18572 0.93063 0.0
C511 C 0.31087 0.18767 0.93963 0.0
C512 C 0.3146 0.20573 0.94565 0.0
C513 C 0.3322 0.22215 0.94287 0.0
C514 C 0.34564 0.22008 0.93319 0.0
C515 C 0.34185 0.20203 0.92709 0.0
C516 C 0.32595 0.16494 0.96279 0.0
C517 C 0.31125 0.15605 0.97506 0.0
C518 C 0.31362 0.16375 0.99415 0.0
C519 C 0.33076 0.18046 0.00131 0.0
C520 C 0.34553 0.18924 0.98897 0.0
C521 C 0.34315 0.1815 0.9699 0.0
C522 C 0.32621 0.13033 0.955 0.0
C523 C 0.31242 0.11187 0.95923 0.0
C524 C 0.31756 0.10177 0.97118 0.0
C525 C 0.33647 0.1101 0.97938 0.0
C526 C 0.34984 0.12911 0.97637 0.0
C527 C 0.34477 0.1391 0.96418 0.0
C528 C 0.31808 0.11305 0.91555 0.0
C529 C 0.30067 0.09669 0.90856 0.0
C530 C 0.29947 0.07933 0.90509 0.0
C531 C 0.31569 0.07804 0.90859 0.0
C532 C 0.33314 0.09453 0.9155 0.0
C533 C 0.33434 0.11189 0.91887 0.0
C534 C 0.31594 0.13316 0.88348 0.0
C535 C 0.29896 0.12593 0.87144 0.0
C536 C 0.29689 0.11722 0.85289 0.0
C537 C 0.31177 0.11555 0.84617 0.0
C538 C 0.32894 0.12334 0.8581 0.0
C539 C 0.33102 0.13211 0.87654 0.0
C540 C 0.31933 0.16968 0.89069 0.0
C541 C 0.30438 0.17279 0.88662 0.0
C542 C 0.30406 0.18206 0.87021 0.0
C543 C 0.31858 0.18807 0.85757 0.0
C544 C 0.33373 0.18531 0.862 0.0
C545 C 0.33417 0.17635 0.87847 0.0
C546 C 0.33318 0.18865 0.02156 0.0
C547 C 0.31446 0.05961 0.90508 0.0
H548 H 0.81258 0.15736 0.0328 0.0
H549 H 0.74441 0.00394 0.86941 0.0
H550 H 0.82971 0.16944 0.92945 0.0
H551 H 0.85006 0.20207 0.94389 0.0
H552 H 0.89896 0.19602 0.94452 0.0
H553 H 0.87826 0.16304 0.93019 0.0
H554 H 0.80041 0.13634 0.94899 0.0
H555 H 0.80059 0.14518 0.98329 0.0
H556 H 0.85318 0.14658 0.99609 0.0
H557 H 0.85267 0.13749 0.96177 0.0
H558 H 0.77475 0.10009 0.91751 0.0
H559 H 0.74944 0.08222 0.93857 0.0
H560 H 0.78934 0.07855 0.97838 0.0
H561 H 0.8146 0.0957 0.95662 0.0
H562 H 0.78166 0.09777 0.87737 0.0
H563 H 0.75722 0.06609 0.86277 0.0
H564 H 0.78345 0.04163 0.89665 0.0
H565 H 0.80796 0.07343 0.91096 0.0
H566 H 0.81665 0.13861 0.86531 0.0
H567 H 0.81 0.13095 0.8302 0.0
H568 H 0.8194 0.08466 0.83539 0.0
H569 H 0.82722 0.09313 0.87074 0.0
H570 H 0.84301 0.17214 0.89022 0.0
H571 H 0.86512 0.19432 0.86855 0.0
H572 H 0.88846 0.15863 0.86062 0.0
H573 H 0.86689 0.13704 0.88304 0.0
O574 O 0.81279 0.15388 0.01929 0.0
O575 O 0.83992 0.15461 0.02507 0.0
O576 O 0.74104 0.02994 0.85778 0.0
O577 O 0.75392 0.01664 0.87494 0.0
C578 C 0.83967 0.14397 0.92055 0.0
C579 C 0.82621 0.13053 0.93214 0.0
C580 C 0.81216 0.11214 0.92379 0.0
C581 C 0.81169 0.10717 0.90383 0.0
C582 C 0.82511 0.12069 0.89216 0.0
C583 C 0.83934 0.139 0.90066 0.0
C584 C 0.85253 0.16392 0.92883 0.0
C585 C 0.84482 0.17517 0.9327 0.0
C586 C 0.85649 0.19383 0.94081 0.0
C587 C 0.87612 0.20163 0.94525 0.0
C588 C 0.88386 0.19032 0.94135 0.0
C589 C 0.87213 0.17159 0.9331 0.0
C590 C 0.82644 0.13612 0.95295 0.0
C591 C 0.81189 0.13847 0.95925 0.0
C592 C 0.81207 0.14357 0.97884 0.0
C593 C 0.82688 0.14655 0.99245 0.0
C594 C 0.84154 0.14436 0.986 0.0
C595 C 0.84131 0.13919 0.96642 0.0
C596 C 0.7965 0.09907 0.93541 0.0
C597 C 0.77792 0.09486 0.93039 0.0
C598 C 0.76351 0.08475 0.94247 0.0
C599 C 0.76751 0.07906 0.96003 0.0
C600 C 0.78598 0.08283 0.96489 0.0
C601 C 0.80033 0.09256 0.9525 0.0
C602 C 0.79669 0.08791 0.89508 0.0
C603 C 0.78217 0.08556 0.88152 0.0
C604 C 0.76819 0.06744 0.87325 0.0
C605 C 0.76841 0.05132 0.87851 0.0
C606 C 0.78289 0.05373 0.89225 0.0
C607 C 0.79689 0.07187 0.90046 0.0
C608 C 0.82266 0.1166 0.87063 0.0
C609 C 0.81792 0.12721 0.85888 0.0
C610 C 0.81405 0.12278 0.83884 0.0
C611 C 0.81433 0.10731 0.83016 0.0
C612 C 0.8192 0.0967 0.84181 0.0
C613 C 0.82362 0.1015 0.86191 0.0
C614 C 0.85351 0.1531 0.88842 0.0
C615 C 0.85322 0.16938 0.88417 0.0
C616 C 0.86569 0.18189 0.87157 0.0
C617 C 0.87857 0.17826 0.86281 0.0
C618 C 0.87897 0.16205 0.86734 0.0
C619 C 0.86658 0.14962 0.88005 0.0
C620 C 0.82699 0.15193 0.01326 0.0
C621 C 0.7536 0.03203 0.86975 0.0
H622 H 0.88047 0.69507 0.06927 0.0
H623 H 0.73253 0.67205 0.91317 0.0
H624 H 0.89567 0.71065 0.96977 0.0
H625 H 0.91861 0.70383 0.98496 0.0
H626 H 0.88932 0.64873 0.9524 0.0
H627 H 0.86588 0.65532 0.93817 0.0
H628 H 0.86212 0.71158 0.99241 0.0
H629 H 0.87082 0.70989 0.02639 0.0
H630 H 0.8596 0.65338 0.01205 0.0
H631 H 0.85067 0.65515 0.97819 0.0
H632 H 0.8218 0.70736 0.97249 0.0
H633 H 0.79557 0.69763 0.99336 0.0
H634 H 0.78943 0.6426 0.99555 0.0
H635 H 0.81467 0.652 0.97399 0.0
H636 H 0.82745 0.71654 0.92615 0.0
H637 H 0.7988 0.71726 0.91699 0.0
H638 H 0.76372 0.65798 0.9278 0.0
H639 H 0.79248 0.65741 0.9367 0.0
H640 H 0.85767 0.71604 0.89861 0.0
H641 H 0.84728 0.71528 0.86442 0.0
H642 H 0.79997 0.65769 0.8673 0.0
H643 H 0.81102 0.65834 0.90095 0.0
H644 H 0.89059 0.71634 0.91714 0.0
H645 H 0.90673 0.71675 0.88817 0.0
H646 H 0.86579 0.65675 0.87474 0.0
H647 H 0.84959 0.65653 0.9035 0.0
O648 O 0.87687 0.69538 0.05577 0.0
O649 O 0.871 0.66641 0.04761 0.0
O650 O 0.76277 0.70259 0.91124 0.0
O651 O 0.74409 0.67216 0.91669 0.0
C652 C 0.86265 0.68563 0.94755 0.0
C653 C 0.85094 0.68487 0.96215 0.0
C654 C 0.83415 0.68491 0.95711 0.0
C655 C 0.82951 0.68666 0.93761 0.0
C656 C 0.84119 0.68748 0.92302 0.0
C657 C 0.85762 0.68674 0.92798 0.0
C658 C 0.8791 0.68351 0.95283 0.0
C659 C 0.8945 0.69731 0.96558 0.0
C660 C 0.90762 0.69336 0.97424 0.0
C661 C 0.9057 0.67559 0.97013 0.0
C662 C 0.89101 0.66238 0.95625 0.0
C663 C 0.87779 0.66626 0.94777 0.0
C664 C 0.85595 0.68358 0.98281 0.0
C665 C 0.86152 0.69884 0.99666 0.0
C666 C 0.8665 0.69785 0.01605 0.0
C667 C 0.86598 0.68153 0.02193 0.0
C668 C 0.86023 0.66618 0.008 0.0
C669 C 0.85519 0.66718 0.98864 0.0
C670 C 0.8201 0.68037 0.97169 0.0
C671 C 0.81483 0.69328 0.97764 0.0
C672 C 0.79996 0.68774 0.98965 0.0
C673 C 0.79027 0.66926 0.99591 0.0
C674 C 0.79632 0.65679 0.99066 0.0
C675 C 0.81092 0.66222 0.97853 0.0
C676 C 0.81202 0.68698 0.93223 0.0
C677 C 0.81356 0.70374 0.92653 0.0
C678 C 0.79718 0.70411 0.92131 0.0
C679 C 0.77896 0.68768 0.92171 0.0
C680 C 0.77751 0.67089 0.92738 0.0
C681 C 0.79391 0.67053 0.93253 0.0
C682 C 0.83511 0.68723 0.90225 0.0
C683 C 0.84518 0.70323 0.89173 0.0
C684 C 0.8391 0.70282 0.87227 0.0
C685 C 0.8228 0.68641 0.86303 0.0
C686 C 0.81278 0.67046 0.87375 0.0
C687 C 0.81895 0.67084 0.89308 0.0
C688 C 0.86902 0.6864 0.91237 0.0
C689 C 0.88538 0.70324 0.90813 0.0
C690 C 0.89448 0.70347 0.89159 0.0
C691 C 0.88746 0.68678 0.87927 0.0
C692 C 0.87159 0.66974 0.88411 0.0
C693 C 0.86234 0.6696 0.90047 0.0
C694 C 0.87141 0.68058 0.04251 0.0
C695 C 0.76151 0.68801 0.91622 0.0
H696 H 0.82566 0.69296 0.3518 0.0
H697 H 0.89182 0.59289 0.492 0.0
H698 H 0.81676 0.68766 0.47006 0.0
H699 H 0.79603 0.69861 0.45786 0.0
H700 H 0.75803 0.64329 0.42725 0.0
H701 H 0.77847 0.63234 0.44015 0.0
H702 H 0.84169 0.68687 0.43388 0.0
H703 H 0.83872 0.69513 0.40078 0.0
H704 H 0.79839 0.6357 0.38287 0.0
H705 H 0.80151 0.62769 0.41606 0.0
H706 H 0.87432 0.67524 0.45343 0.0
H707 H 0.89772 0.6788 0.43111 0.0
H708 H 0.85461 0.62744 0.39724 0.0
H709 H 0.83128 0.62334 0.4204 0.0
H710 H 0.87721 0.66466 0.48666 0.0
H711 H 0.8985 0.65328 0.49503 0.0
H712 H 0.85284 0.59569 0.47665 0.0
H713 H 0.83169 0.60729 0.46842 0.0
H714 H 0.85984 0.67253 0.50966 0.0
H715 H 0.86779 0.67199 0.54402 0.0
H716 H 0.81688 0.61624 0.54436 0.0
H717 H 0.80935 0.61671 0.50946 0.0
H718 H 0.82973 0.67949 0.50959 0.0
H719 H 0.81429 0.68078 0.53817 0.0
H720 H 0.76239 0.629 0.51512 0.0
H721 H 0.7785 0.62731 0.4871 0.0
O722 O 0.82661 0.68939 0.36479 0.0
O723 O 0.80591 0.65867 0.35634 0.0
O724 O 0.90669 0.62764 0.49814 0.0
O725 O 0.88371 0.59778 0.48884 0.0
C726 C 0.81272 0.65331 0.46156 0.0
C727 C 0.82368 0.65185 0.44735 0.0
C728 C 0.83743 0.64722 0.4526 0.0
C729 C 0.83986 0.64351 0.47195 0.0
C730 C 0.82948 0.64568 0.4863 0.0
C731 C 0.8159 0.65061 0.48114 0.0
C732 C 0.79908 0.65921 0.456 0.0
C733 C 0.80375 0.67783 0.46103 0.0
C734 C 0.792 0.68411 0.45385 0.0
C735 C 0.77542 0.67189 0.44143 0.0
C736 C 0.77054 0.65303 0.43694 0.0
C737 C 0.78224 0.64676 0.44421 0.0
C738 C 0.82185 0.65671 0.42727 0.0
C739 C 0.83224 0.67569 0.42275 0.0
C740 C 0.83051 0.68035 0.40385 0.0
C741 C 0.81832 0.66608 0.38917 0.0
C742 C 0.80791 0.64704 0.39382 0.0
C743 C 0.80967 0.64242 0.41273 0.0
C744 C 0.85118 0.64894 0.43866 0.0
C745 C 0.86997 0.66456 0.44141 0.0
C746 C 0.88327 0.6666 0.42866 0.0
C747 C 0.87791 0.65329 0.41263 0.0
C748 C 0.859 0.6378 0.40959 0.0
C749 C 0.84573 0.63551 0.4227 0.0
C750 C 0.8529 0.63677 0.47705 0.0
C751 C 0.87182 0.64959 0.48454 0.0
C752 C 0.88396 0.64306 0.48926 0.0
C753 C 0.87736 0.62356 0.48653 0.0
C754 C 0.85838 0.61078 0.47896 0.0
C755 C 0.84626 0.61736 0.47425 0.0
C756 C 0.83418 0.64457 0.50705 0.0
C757 C 0.85055 0.66007 0.51707 0.0
C758 C 0.85491 0.65983 0.53677 0.0
C759 C 0.84286 0.64413 0.54698 0.0
C760 C 0.82649 0.62847 0.53686 0.0
C761 C 0.82215 0.62872 0.517 0.0
C762 C 0.80533 0.65315 0.49646 0.0
C763 C 0.81496 0.66853 0.51066 0.0
C764 C 0.80602 0.66932 0.52693 0.0
C765 C 0.78709 0.65487 0.52914 0.0
C766 C 0.7771 0.64013 0.51415 0.0
C767 C 0.78618 0.63923 0.498 0.0
C768 C 0.81652 0.67107 0.3691 0.0
C769 C 0.89019 0.61653 0.49154 0.0
H770 H 0.29089 0.12845 0.35944 0.0
H771 H 0.36023 0.29266 0.51082 0.0
H772 H 0.30723 0.1279 0.46257 0.0
H773 H 0.30274 0.09747 0.45093 0.0
H774 H 0.36349 0.12135 0.46092 0.0
H775 H 0.36789 0.15206 0.47201 0.0
H776 H 0.30009 0.15393 0.4418 0.0
H777 H 0.29067 0.14165 0.4076 0.0
H778 H 0.34871 0.15767 0.39999 0.0
H779 H 0.35797 0.17009 0.43419 0.0
H780 H 0.30234 0.18459 0.47078 0.0
H781 H 0.2889 0.19985 0.45208 0.0
H782 H 0.33691 0.22298 0.41719 0.0
H783 H 0.35053 0.20791 0.43649 0.0
H784 H 0.32002 0.19873 0.51185 0.0
H785 H 0.32162 0.22799 0.52307 0.0
H786 H 0.36833 0.25993 0.48783 0.0
H787 H 0.36674 0.23058 0.47694 0.0
H788 H 0.32807 0.17031 0.53173 0.0
H789 H 0.33447 0.18568 0.56456 0.0
H790 H 0.38581 0.23452 0.54758 0.0
H791 H 0.37986 0.21847 0.51518 0.0
H792 H 0.31908 0.13396 0.50492 0.0
H793 H 0.32195 0.11557 0.52999 0.0
H794 H 0.38175 0.15859 0.54224 0.0
H795 H 0.37879 0.17694 0.51665 0.0
O796 O 0.29494 0.13345 0.37291 0.0
O797 O 0.32496 0.14189 0.36979 0.0
O798 O 0.33529 0.26382 0.52456 0.0
O799 O 0.35928 0.28087 0.50662 0.0
C800 C 0.34039 0.16081 0.47447 0.0
C801 C 0.33552 0.17047 0.46117 0.0
C802 C 0.33591 0.18705 0.46772 0.0
C803 C 0.3426 0.19483 0.48713 0.0
C804 C 0.34789 0.18546 0.50039 0.0
C805 C 0.34627 0.16812 0.49421 0.0
C806 C 0.3379 0.14224 0.46795 0.0
C807 C 0.31958 0.12659 0.46214 0.0
C808 C 0.31703 0.10916 0.45569 0.0
C809 C 0.33276 0.10695 0.45503 0.0
C810 C 0.35112 0.12264 0.46105 0.0
C811 C 0.35365 0.14014 0.46749 0.0
C812 C 0.32975 0.16305 0.44041 0.0
C813 C 0.31077 0.15491 0.43268 0.0
C814 C 0.30542 0.14784 0.41316 0.0
C815 C 0.31894 0.14871 0.40104 0.0
C816 C 0.33794 0.1568 0.4089 0.0
C817 C 0.34327 0.1639 0.42842 0.0
C818 C 0.32742 0.19523 0.45502 0.0
C819 C 0.30988 0.19284 0.459 0.0
C820 C 0.30216 0.20144 0.44818 0.0
C821 C 0.31181 0.2126 0.4331 0.0
C822 C 0.32922 0.21461 0.42883 0.0
C823 C 0.33697 0.20595 0.43972 0.0
C824 C 0.34337 0.21258 0.49372 0.0
C825 C 0.33065 0.21208 0.50667 0.0
C826 C 0.33156 0.2288 0.513 0.0
C827 C 0.34514 0.24632 0.50638 0.0
C828 C 0.35773 0.2467 0.49325 0.0
C829 C 0.35684 0.22997 0.48697 0.0
C830 C 0.35352 0.19325 0.52108 0.0
C831 C 0.34103 0.18405 0.53532 0.0
C832 C 0.34456 0.19302 0.55398 0.0
C833 C 0.36049 0.21151 0.55867 0.0
C834 C 0.3735 0.22024 0.54461 0.0
C835 C 0.3701 0.21113 0.52604 0.0
C836 C 0.34876 0.15667 0.50876 0.0
C837 C 0.33291 0.13924 0.51268 0.0
C838 C 0.3346 0.12875 0.52702 0.0
C839 C 0.35214 0.13554 0.53796 0.0
C840 C 0.36807 0.15301 0.53402 0.0
C841 C 0.36641 0.16346 0.51943 0.0
C842 C 0.31321 0.14117 0.38031 0.0
C843 C 0.34621 0.26414 0.5131 0.0
H844 H 0.80152 0.18961 0.34907 0.0
H845 H 0.97116 0.28899 0.50199 0.0
H846 H 0.79346 0.18003 0.44995 0.0
H847 H 0.76659 0.1476 0.43923 0.0
H848 H 0.79907 0.1246 0.4631 0.0
H849 H 0.82564 0.15657 0.47308 0.0
H850 H 0.83147 0.22079 0.4295 0.0
H851 H 0.81888 0.21259 0.39526 0.0
H852 H 0.81896 0.16045 0.39639 0.0
H853 H 0.8318 0.16894 0.43051 0.0
H854 H 0.87981 0.25362 0.45055 0.0
H855 H 0.9072 0.26786 0.43141 0.0
H856 H 0.89387 0.21155 0.41147 0.0
H857 H 0.86861 0.19786 0.4329 0.0
H858 H 0.87803 0.2569 0.49567 0.0
H859 H 0.91101 0.2824 0.50551 0.0
H860 H 0.9307 0.24633 0.48426 0.0
H861 H 0.89766 0.22089 0.4747 0.0
H862 H 0.8481 0.23185 0.52154 0.0
H863 H 0.86319 0.24121 0.55508 0.0
H864 H 0.89131 0.2104 0.54426 0.0
H865 H 0.87674 0.20178 0.51082 0.0
H866 H 0.80443 0.19494 0.50104 0.0
H867 H 0.78435 0.1756 0.52571 0.0
H868 H 0.81864 0.15036 0.53237 0.0
H869 H 0.83914 0.17057 0.50857 0.0
O870 O 0.80657 0.19261 0.3626 0.0
O871 O 0.80683 0.16596 0.36396 0.0
O872 O 0.94712 0.29706 0.50915 0.0
O873 O 0.95799 0.27913 0.49831 0.0
C874 C 0.82845 0.18982 0.46803 0.0
C875 C 0.83987 0.20055 0.45341 0.0
C876 C 0.85867 0.21613 0.45862 0.0
C877 C 0.86545 0.22165 0.47855 0.0
C878 C 0.85356 0.2116 0.49312 0.0
C879 C 0.83515 0.19565 0.48788 0.0
C880 C 0.81134 0.17061 0.46266 0.0
C881 C 0.79457 0.16791 0.45303 0.0
C882 C 0.77933 0.14947 0.44689 0.0
C883 C 0.78065 0.13361 0.45065 0.0
C884 C 0.79742 0.13649 0.46045 0.0
C885 C 0.81262 0.15476 0.46623 0.0
C886 C 0.83232 0.19537 0.43258 0.0
C887 C 0.82876 0.2076 0.42232 0.0
C888 C 0.82155 0.20287 0.40277 0.0
C889 C 0.81783 0.18582 0.3931 0.0
C890 C 0.82158 0.17365 0.40341 0.0
C891 C 0.82882 0.17842 0.42294 0.0
C892 C 0.87225 0.22467 0.4434 0.0
C893 C 0.88284 0.2444 0.44199 0.0
C894 C 0.89844 0.25251 0.43078 0.0
C895 C 0.90328 0.24097 0.42011 0.0
C896 C 0.8913 0.22108 0.42006 0.0
C897 C 0.87636 0.2131 0.43195 0.0
C898 C 0.8855 0.23713 0.48436 0.0
C899 C 0.8895 0.25455 0.49318 0.0
C900 C 0.90834 0.26908 0.49876 0.0
C901 C 0.9235 0.26642 0.49562 0.0
C902 C 0.91938 0.24887 0.48685 0.0
C903 C 0.90054 0.23434 0.48134 0.0
C904 C 0.86146 0.21626 0.5138 0.0
C905 C 0.85748 0.22712 0.52654 0.0
C906 C 0.86606 0.23238 0.54568 0.0
C907 C 0.87867 0.22676 0.55232 0.0
C908 C 0.88208 0.21539 0.53954 0.0
C909 C 0.87365 0.21029 0.52047 0.0
C910 C 0.82326 0.18422 0.50316 0.0
C911 C 0.80763 0.18533 0.50801 0.0
C912 C 0.79606 0.17409 0.52197 0.0
C913 C 0.79977 0.1613 0.53108 0.0
C914 C 0.8155 0.16026 0.52602 0.0
C915 C 0.82721 0.17173 0.51233 0.0
C916 C 0.81009 0.1808 0.37236 0.0
C917 C 0.94354 0.28183 0.50146 0.0
H918 H 0.01194 0.53228 0.38383 0.0
H919 H 0.02866 0.40009 0.23939 0.0
H920 H 0.98758 0.52094 0.27908 0.0
H921 H 0.99103 0.5511 0.29026 0.0
H922 H 0.04766 0.58147 0.27067 0.0
H923 H 0.04371 0.55123 0.25897 0.0
H924 H 0.99118 0.49116 0.30674 0.0
H925 H 0.99471 0.504 0.34034 0.0
H926 H 0.05073 0.55137 0.33136 0.0
H927 H 0.04709 0.53825 0.29788 0.0
H928 H 0.99264 0.45422 0.28832 0.0
H929 H 0.00167 0.43698 0.30981 0.0
H930 H 0.05848 0.4869 0.32057 0.0
H931 H 0.04958 0.50357 0.29815 0.0
H932 H 0.98297 0.4468 0.24263 0.0
H933 H 0.98236 0.41729 0.23535 0.0
H934 H 0.04283 0.44667 0.25294 0.0
H935 H 0.04328 0.47612 0.2599 0.0
H936 H 0.97919 0.47539 0.21548 0.0
H937 H 0.97338 0.45851 0.18341 0.0
H938 H 0.03133 0.47114 0.18826 0.0
H939 H 0.03699 0.48798 0.22027 0.0
H940 H 0.98397 0.51537 0.23362 0.0
H941 H 0.98196 0.53115 0.20499 0.0
H942 H 0.03601 0.54037 0.18971 0.0
H943 H 0.03801 0.5249 0.2183 0.0
O944 O 0.01089 0.5274 0.37053 0.0
O945 O 0.03958 0.55149 0.36515 0.0
O946 O 0.99746 0.39716 0.23307 0.0
O947 O 0.0285 0.41156 0.24211 0.0
C948 C 0.01428 0.51568 0.26388 0.0
C949 C 0.01641 0.5061 0.27941 0.0
C950 C 0.01629 0.48917 0.27549 0.0
C951 C 0.01346 0.48149 0.25606 0.0
C952 C 0.01126 0.49099 0.24055 0.0
C953 C 0.01192 0.50825 0.24442 0.0
C954 C 0.01538 0.53394 0.26821 0.0
C955 C 0.00056 0.53416 0.2769 0.0
C956 C 0.00267 0.5514 0.28346 0.0
C957 C 0.01972 0.56876 0.2816 0.0
C958 C 0.03426 0.56844 0.27218 0.0
C959 C 0.03206 0.55118 0.26549 0.0
C960 C 0.01882 0.51384 0.29987 0.0
C961 C 0.00422 0.50428 0.3121 0.0
C962 C 0.00626 0.51166 0.33126 0.0
C963 C 0.02298 0.52875 0.33852 0.0
C964 C 0.03765 0.53821 0.32622 0.0
C965 C 0.0356 0.53078 0.30708 0.0
C966 C 0.02049 0.48008 0.29152 0.0
C967 C 0.00694 0.46149 0.29557 0.0
C968 C 0.01213 0.45171 0.30798 0.0
C969 C 0.03091 0.46045 0.31677 0.0
C970 C 0.04403 0.47957 0.31372 0.0
C971 C 0.0389 0.48924 0.30112 0.0
C972 C 0.01315 0.46356 0.25184 0.0
C973 C 0.99607 0.44682 0.24485 0.0
C974 C 0.99576 0.42999 0.24074 0.0
C975 C 0.01256 0.42962 0.24358 0.0
C976 C 0.02964 0.44645 0.2506 0.0
C977 C 0.02994 0.46328 0.25464 0.0
C978 C 0.00845 0.48277 0.22022 0.0
C979 C 0.9907 0.47475 0.20945 0.0
C980 C 0.98742 0.46514 0.19116 0.0
C981 C 0.00186 0.46334 0.18342 0.0
C982 C 0.01984 0.472 0.19399 0.0
C983 C 0.02313 0.4817 0.2122 0.0
C984 C 0.01108 0.51887 0.22795 0.0
C985 C 0.99545 0.521 0.22418 0.0
C986 C 0.99431 0.52998 0.20785 0.0
C987 C 0.0087 0.53675 0.19499 0.0
C988 C 0.02452 0.53497 0.19914 0.0
C989 C 0.02573 0.52621 0.2155 0.0
C990 C 0.02506 0.53662 0.35885 0.0
C991 C 0.0123 0.41177 0.23925 0.0
H992 H 0.51582 0.51945 0.37171 0.0
H993 H 0.39267 0.34299 0.21468 0.0
H994 H 0.50569 0.51125 0.24761 0.0
H995 H 0.52936 0.5441 0.25902 0.0
H996 H 0.56271 0.52546 0.29026 0.0
H997 H 0.53861 0.49236 0.27884 0.0
H998 H 0.49248 0.49908 0.28841 0.0
H999 H 0.50123 0.51185 0.32249 0.0
H1000 H 0.51297 0.46814 0.33548 0.0
H1001 H 0.50441 0.45564 0.30128 0.0
H1002 H 0.45636 0.46497 0.28261 0.0
H1003 H 0.43135 0.44988 0.30452 0.0
H1004 H 0.43815 0.40154 0.30384 0.0
H1005 H 0.46354 0.41699 0.28183 0.0
H1006 H 0.43433 0.43448 0.24658 0.0
H1007 H 0.4053 0.40351 0.23745 0.0
H1008 H 0.43968 0.37981 0.22438 0.0
H1009 H 0.4686 0.41083 0.23378 0.0
H1010 H 0.45241 0.45138 0.21246 0.0
H1011 H 0.44229 0.44322 0.1778 0.0
H1012 H 0.48922 0.43521 0.16986 0.0
H1013 H 0.49899 0.4429 0.20499 0.0
H1014 H 0.4907 0.48852 0.20884 0.0
H1015 H 0.51062 0.50739 0.1839 0.0
H1016 H 0.55662 0.50183 0.20846 0.0
H1017 H 0.53616 0.48207 0.23266 0.0
O1018 O 0.51244 0.51417 0.35829 0.0
O1019 O 0.51812 0.49132 0.36424 0.0
O1020 O 0.38689 0.36823 0.22545 0.0
O1021 O 0.40392 0.35538 0.21843 0.0
C1022 C 0.50467 0.47949 0.25714 0.0
C1023 C 0.49295 0.4689 0.2716 0.0
C1024 C 0.476 0.45118 0.2663 0.0
C1025 C 0.47123 0.4436 0.24665 0.0
C1026 C 0.483 0.45414 0.23217 0.0
C1027 C 0.49975 0.47209 0.23745 0.0
C1028 C 0.52049 0.49945 0.26231 0.0
C1029 C 0.51832 0.51429 0.25656 0.0
C1030 C 0.5319 0.53308 0.26309 0.0
C1031 C 0.54797 0.53744 0.27555 0.0
C1032 C 0.5504 0.52255 0.28083 0.0
C1033 C 0.53676 0.50368 0.27424 0.0
C1034 C 0.49804 0.47658 0.29234 0.0
C1035 C 0.4971 0.49238 0.29861 0.0
C1036 C 0.50203 0.4996 0.3181 0.0
C1037 C 0.50786 0.49105 0.33171 0.0
C1038 C 0.50859 0.47509 0.32538 0.0
C1039 C 0.5037 0.46791 0.30587 0.0
C1040 C 0.46187 0.44215 0.28078 0.0
C1041 C 0.45276 0.45131 0.28752 0.0
C1042 C 0.43849 0.44268 0.30007 0.0
C1043 C 0.43288 0.42459 0.30602 0.0
C1044 C 0.44218 0.41548 0.29944 0.0
C1045 C 0.45666 0.42426 0.28696 0.0
C1046 C 0.45356 0.42483 0.24105 0.0
C1047 C 0.43555 0.42255 0.24189 0.0
C1048 C 0.419 0.40486 0.23659 0.0
C1049 C 0.42017 0.38916 0.23023 0.0
C1050 C 0.43826 0.39158 0.22926 0.0
C1051 C 0.4548 0.40927 0.23461 0.0
C1052 C 0.47636 0.44763 0.21128 0.0
C1053 C 0.46031 0.44751 0.20334 0.0
C1054 C 0.45469 0.44306 0.18349 0.0
C1055 C 0.4651 0.43879 0.17106 0.0
C1056 C 0.48088 0.43836 0.1791 0.0
C1057 C 0.48651 0.4428 0.19909 0.0
C1058 C 0.51187 0.48364 0.22233 0.0
C1059 C 0.50499 0.49116 0.20863 0.0
C1060 C 0.51651 0.50219 0.19458 0.0
C1061 C 0.53525 0.50615 0.19415 0.0
C1062 C 0.54217 0.4988 0.20814 0.0
C1063 C 0.53055 0.48761 0.22205 0.0
C1064 C 0.51312 0.49879 0.3524 0.0
C1065 C 0.40262 0.37034 0.22458 0.0
H1066 H 0.52372 0.99149 0.387 0.0
H1067 H 0.39854 0.999 0.20746 0.0
H1068 H 0.55529 0.02867 0.27855 0.0
H1069 H 0.57881 0.0227 0.29427 0.0
H1070 H 0.53561 0.96281 0.29241 0.0
H1071 H 0.51263 0.96887 0.27604 0.0
H1072 H 0.52828 0.02316 0.31192 0.0
H1073 H 0.53088 0.0152 0.34523 0.0
H1074 H 0.48307 0.95794 0.32994 0.0
H1075 H 0.4808 0.96604 0.29663 0.0
H1076 H 0.48632 0.02239 0.30589 0.0
H1077 H 0.4591 0.01366 0.32501 0.0
H1078 H 0.42617 0.96007 0.28982 0.0
H1079 H 0.4531 0.96924 0.27057 0.0
H1080 H 0.47838 0.0334 0.26643 0.0
H1081 H 0.45123 0.03555 0.25423 0.0
H1082 H 0.4306 0.98462 0.21598 0.0
H1083 H 0.45768 0.98253 0.22848 0.0
H1084 H 0.50256 0.04141 0.22999 0.0
H1085 H 0.49477 0.04568 0.19651 0.0
H1086 H 0.48684 0.99146 0.17732 0.0
H1087 H 0.49425 0.98717 0.21072 0.0
H1088 H 0.54271 0.04159 0.23693 0.0
H1089 H 0.56315 0.04611 0.2108 0.0
H1090 H 0.5429 0.98612 0.20711 0.0
H1091 H 0.52269 0.98181 0.23347 0.0
O1092 O 0.52243 0.99434 0.37375 0.0
O1093 O 0.49771 0.96512 0.36519 0.0
O1094 O 0.42045 0.02446 0.23271 0.0
O1095 O 0.40935 0.99844 0.21263 0.0
C1096 C 0.51726 0.00293 0.26929 0.0
C1097 C 0.50306 0.0001 0.28167 0.0
C1098 C 0.48763 0.00173 0.27474 0.0
C1099 C 0.48661 0.00672 0.25562 0.0
C1100 C 0.50102 0.01006 0.24336 0.0
C1101 C 0.51641 0.0082 0.25022 0.0
C1102 C 0.53227 0.99921 0.27621 0.0
C1103 C 0.5511 0.01423 0.28116 0.0
C1104 C 0.56443 0.0108 0.29035 0.0
C1105 C 0.55909 0.99228 0.29481 0.0
C1106 C 0.54036 0.9772 0.28904 0.0
C1107 C 0.52714 0.98064 0.27976 0.0
C1108 C 0.50428 0.99522 0.30194 0.0
C1109 C 0.51838 0.00892 0.31583 0.0
C1110 C 0.51982 0.00433 0.33483 0.0
C1111 C 0.50715 0.98594 0.34026 0.0
C1112 C 0.49302 0.97224 0.32626 0.0
C1113 C 0.49163 0.97685 0.30725 0.0
C1114 C 0.47157 0.99648 0.28681 0.0
C1115 C 0.47317 0.0088 0.30238 0.0
C1116 C 0.45766 0.00374 0.31331 0.0
C1117 C 0.44036 0.98623 0.30885 0.0
C1118 C 0.43907 0.97385 0.2934 0.0
C1119 C 0.45447 0.97897 0.28245 0.0
C1120 C 0.47002 0.00787 0.24827 0.0
C1121 C 0.46793 0.0227 0.25547 0.0
C1122 C 0.45244 0.0239 0.24845 0.0
C1123 C 0.43876 0.01027 0.23409 0.0
C1124 C 0.44088 0.99537 0.227 0.0
C1125 C 0.45635 0.99416 0.23408 0.0
C1126 C 0.49902 0.014 0.2228 0.0
C1127 C 0.4994 0.03061 0.21848 0.0
C1128 C 0.4949 0.03299 0.1994 0.0
C1129 C 0.49019 0.01891 0.18429 0.0
C1130 C 0.49067 0.0027 0.18857 0.0
C1131 C 0.49493 0.00022 0.20765 0.0
C1132 C 0.53122 0.01138 0.23705 0.0
C1133 C 0.54305 0.02952 0.23077 0.0
C1134 C 0.55457 0.03203 0.21574 0.0
C1135 C 0.55445 0.01642 0.2067 0.0
C1136 C 0.54343 0.99845 0.21385 0.0
C1137 C 0.53189 0.99596 0.22892 0.0
C1138 C 0.50875 0.9811 0.36046 0.0
C1139 C 0.42234 0.01155 0.22649 0.0
H1140 H 0.49865 0.03353 0.68489 0.0
H1141 H 0.59582 0.97519 0.83545 0.0
H1142 H 0.49287 0.03296 0.79007 0.0
H1143 H 0.46996 0.03919 0.77355 0.0
H1144 H 0.42595 0.97988 0.77367 0.0
H1145 H 0.44916 0.97366 0.78998 0.0
H1146 H 0.52091 0.03321 0.76671 0.0
H1147 H 0.51609 0.03885 0.73297 0.0
H1148 H 0.46905 0.98051 0.72236 0.0
H1149 H 0.4742 0.97502 0.75609 0.0
H1150 H 0.54947 0.03198 0.78916 0.0
H1151 H 0.57381 0.03965 0.76646 0.0
H1152 H 0.54102 0.98198 0.74005 0.0
H1153 H 0.51633 0.97449 0.76262 0.0
H1154 H 0.54956 0.0214 0.83414 0.0
H1155 H 0.57719 0.01978 0.84568 0.0
H1156 H 0.55301 0.96546 0.81244 0.0
H1157 H 0.52538 0.96718 0.80119 0.0
H1158 H 0.51484 0.01898 0.85406 0.0
H1159 H 0.52333 0.01691 0.88789 0.0
H1160 H 0.51229 0.96059 0.87297 0.0
H1161 H 0.50373 0.9628 0.83901 0.0
H1162 H 0.4841 0.02198 0.83344 0.0
H1163 H 0.46498 0.01871 0.86061 0.0
H1164 H 0.44484 0.9588 0.8589 0.0
H1165 H 0.46414 0.96228 0.83197 0.0
O1166 O 0.50042 0.03094 0.69813 0.0
O1167 O 0.47631 0.00085 0.69345 0.0
O1168 O 0.59686 0.00413 0.84799 0.0
O1169 O 0.58508 0.9762 0.8311 0.0
C1170 C 0.48757 0.99885 0.79756 0.0
C1171 C 0.50067 0.00033 0.78433 0.0
C1172 C 0.51626 0.99875 0.79068 0.0
C1173 C 0.51861 0.99528 0.81013 0.0
C1174 C 0.50525 0.99327 0.82327 0.0
C1175 C 0.48959 0.99487 0.81691 0.0
C1176 C 0.47268 0.00285 0.79111 0.0
C1177 C 0.4782 0.02137 0.78683 0.0
C1178 C 0.46517 0.02488 0.7773 0.0
C1179 C 0.44628 0.00997 0.77213 0.0
C1180 C 0.44044 0.99162 0.77753 0.0
C1181 C 0.45361 0.98806 0.78688 0.0
C1182 C 0.49804 0.00366 0.76374 0.0
C1183 C 0.50973 0.02162 0.757 0.0
C1184 C 0.50686 0.02482 0.73776 0.0
C1185 C 0.4922 0.01012 0.72495 0.0
C1186 C 0.4805 0.99213 0.73182 0.0
C1187 C 0.48341 0.98895 0.75106 0.0
C1188 C 0.5312 0.00273 0.77745 0.0
C1189 C 0.54756 0.02101 0.77849 0.0
C1190 C 0.56134 0.02537 0.7655 0.0
C1191 C 0.55914 0.01141 0.75148 0.0
C1192 C 0.54296 0.99294 0.75075 0.0
C1193 C 0.52894 0.98867 0.76356 0.0
C1194 C 0.53548 0.99439 0.81689 0.0
C1195 C 0.55026 0.00915 0.82942 0.0
C1196 C 0.56602 0.0082 0.83596 0.0
C1197 C 0.5673 0.99247 0.83 0.0
C1198 C 0.55248 0.97776 0.81733 0.0
C1199 C 0.5367 0.97872 0.81084 0.0
C1200 C 0.50862 0.99103 0.84409 0.0
C1201 C 0.51388 0.00604 0.85817 0.0
C1202 C 0.51869 0.00481 0.87751 0.0
C1203 C 0.51847 0.98857 0.88313 0.0
C1204 C 0.51275 0.97334 0.86906 0.0
C1205 C 0.5078 0.97455 0.8497 0.0
C1206 C 0.47552 0.99237 0.83078 0.0
C1207 C 0.47517 0.00808 0.83864 0.0
C1208 C 0.46427 0.00618 0.85416 0.0
C1209 C 0.45359 0.98854 0.86206 0.0
C1210 C 0.45318 0.97264 0.85337 0.0
C1211 C 0.46405 0.97455 0.83789 0.0
C1212 C 0.48911 0.01361 0.70456 0.0
C1213 C 0.58399 0.99136 0.83694 0.0
H1214 H 0.93123 0.44584 0.69775 0.0
H1215 H 0.02146 0.62363 0.83716 0.0
H1216 H 0.95394 0.45244 0.80181 0.0
H1217 H 0.94809 0.42125 0.79079 0.0
H1218 H 0.00894 0.44492 0.79333 0.0
H1219 H 0.01458 0.47599 0.80485 0.0
H1220 H 0.94754 0.47961 0.77793 0.0
H1221 H 0.93535 0.46443 0.74486 0.0
H1222 H 0.99099 0.4745 0.73475 0.0
H1223 H 0.00303 0.48982 0.7678 0.0
H1224 H 0.95518 0.51645 0.80142 0.0
H1225 H 0.94623 0.53381 0.78012 0.0
H1226 H 0.99329 0.54638 0.74609 0.0
H1227 H 0.00252 0.52945 0.76805 0.0
H1228 H 0.97157 0.52953 0.84193 0.0
H1229 H 0.97655 0.5608 0.85104 0.0
H1230 H 0.02546 0.5869 0.81742 0.0
H1231 H 0.02045 0.55555 0.80866 0.0
H1232 H 0.97546 0.50201 0.86391 0.0
H1233 H 0.98289 0.51983 0.89576 0.0
H1234 H 0.03966 0.55981 0.88056 0.0
H1235 H 0.03201 0.54209 0.84856 0.0
H1236 H 0.9697 0.46073 0.84293 0.0
H1237 H 0.97575 0.44515 0.86923 0.0
H1238 H 0.03514 0.49019 0.87554 0.0
H1239 H 0.02914 0.5054 0.84865 0.0
O1240 O 0.93637 0.45198 0.71074 0.0
O1241 O 0.96523 0.45745 0.70631 0.0
O1242 O 0.99397 0.59698 0.85096 0.0
O1243 O 0.01916 0.61109 0.83379 0.0
C1244 C 0.98801 0.48557 0.80943 0.0
C1245 C 0.98348 0.49489 0.79535 0.0
C1246 C 0.98572 0.51266 0.8005 0.0
C1247 C 0.99294 0.52138 0.81955 0.0
C1248 C 0.99742 0.5121 0.83365 0.0
C1249 C 0.99498 0.49417 0.82865 0.0
C1250 C 0.98467 0.46645 0.80406 0.0
C1251 C 0.96598 0.45082 0.8001 0.0
C1252 C 0.96269 0.43305 0.79368 0.0
C1253 C 0.97804 0.43058 0.79099 0.0
C1254 C 0.99678 0.44625 0.79542 0.0
C1255 C 6e-05 0.46402 0.80194 0.0
C1256 C 0.97617 0.48587 0.7752 0.0
C1257 C 0.95709 0.47862 0.7685 0.0
C1258 C 0.95015 0.46991 0.74963 0.0
C1259 C 0.9622 0.46825 0.73715 0.0
C1260 C 0.98134 0.47555 0.74397 0.0
C1261 C 0.98825 0.48429 0.76283 0.0
C1262 C 0.97956 0.52182 0.78634 0.0
C1263 C 0.96348 0.52288 0.78929 0.0
C1264 C 0.9583 0.53266 0.77698 0.0
C1265 C 0.96903 0.5415 0.76136 0.0
C1266 C 0.98485 0.53993 0.75811 0.0
C1267 C 0.99008 0.53017 0.77053 0.0
C1268 C 0.99574 0.54032 0.82477 0.0
C1269 C 0.98341 0.54203 0.83665 0.0
C1270 C 0.98625 0.5599 0.84178 0.0
C1271 C 0.00144 0.57636 0.83499 0.0
C1272 C 0.01366 0.57453 0.82293 0.0
C1273 C 0.01082 0.55665 0.81787 0.0
C1274 C 0.00322 0.52076 0.85401 0.0
C1275 C 0.98963 0.51436 0.86765 0.0
C1276 C 0.99383 0.52461 0.88571 0.0
C1277 C 0.01179 0.54123 0.89048 0.0
C1278 C 0.02575 0.54699 0.87722 0.0
C1279 C 0.02143 0.5369 0.85903 0.0
C1280 C 0.99898 0.48417 0.84379 0.0
C1281 C 0.9841 0.46701 0.84965 0.0
C1282 C 0.98758 0.45814 0.86467 0.0
C1283 C 0.00593 0.46646 0.87434 0.0
C1284 C 0.02087 0.48352 0.86832 0.0
C1285 C 0.01745 0.49221 0.85303 0.0
C1286 C 0.95477 0.45892 0.71714 0.0
C1287 C 0.00456 0.59539 0.84043 0.0
H1288 H 0.47157 0.50893 0.68333 0.0
H1289 H 0.63007 0.64393 0.83632 0.0
H1290 H 0.4598 0.51235 0.7847 0.0
H1291 H 0.43553 0.47893 0.77428 0.0
H1292 H 0.47088 0.4615 0.80352 0.0
H1293 H 0.49478 0.49453 0.81359 0.0
H1294 H 0.4938 0.54939 0.76087 0.0
H1295 H 0.48344 0.53655 0.72686 0.0
H1296 H 0.49445 0.49204 0.73832 0.0
H1297 H 0.505 0.50518 0.77219 0.0
H1298 H 0.53716 0.58805 0.77945 0.0
H1299 H 0.56308 0.60331 0.75803 0.0
H1300 H 0.56663 0.55303 0.75497 0.0
H1301 H 0.54113 0.53813 0.77636 0.0
H1302 H 0.53484 0.59522 0.82678 0.0
H1303 H 0.56521 0.62511 0.83557 0.0
H1304 H 0.59549 0.59714 0.82156 0.0
H1305 H 0.56503 0.56732 0.81305 0.0
H1306 H 0.50741 0.56782 0.85651 0.0
H1307 H 0.52222 0.57981 0.89007 0.0
H1308 H 0.56046 0.55999 0.88045 0.0
H1309 H 0.54583 0.54837 0.84725 0.0
H1310 H 0.46762 0.52976 0.8343 0.0
H1311 H 0.4472 0.50998 0.85876 0.0
H1312 H 0.48687 0.49228 0.87287 0.0
H1313 H 0.50743 0.5124 0.84872 0.0
O1314 O 0.4758 0.51382 0.69681 0.0
O1315 O 0.4816 0.49118 0.70348 0.0
O1316 O 0.60162 0.64598 0.84013 0.0
O1317 O 0.61786 0.6323 0.83298 0.0
C1318 C 0.49481 0.52582 0.80463 0.0
C1319 C 0.50605 0.53597 0.78966 0.0
C1320 C 0.52348 0.5534 0.79435 0.0
C1321 C 0.52925 0.56108 0.81394 0.0
C1322 C 0.51789 0.55104 0.82887 0.0
C1323 C 0.50062 0.5335 0.8242 0.0
C1324 C 0.47889 0.50581 0.80017 0.0
C1325 C 0.46203 0.50121 0.78912 0.0
C1326 C 0.44829 0.48218 0.78312 0.0
C1327 C 0.45122 0.46756 0.78823 0.0
C1328 C 0.46793 0.47233 0.79973 0.0
C1329 C 0.48163 0.49123 0.80554 0.0
C1330 C 0.49992 0.52809 0.76903 0.0
C1331 C 0.49396 0.53688 0.75598 0.0
C1332 C 0.48804 0.5295 0.73658 0.0
C1333 C 0.48803 0.51321 0.72989 0.0
C1334 C 0.49419 0.50455 0.74301 0.0
C1335 C 0.50015 0.51197 0.76238 0.0
C1336 C 0.53715 0.56192 0.77932 0.0
C1337 C 0.54335 0.58026 0.77383 0.0
C1338 C 0.55817 0.58896 0.7617 0.0
C1339 C 0.56684 0.57933 0.75477 0.0
C1340 C 0.56003 0.56069 0.75974 0.0
C1341 C 0.54542 0.55213 0.77196 0.0
C1342 C 0.54776 0.57919 0.81909 0.0
C1343 C 0.54806 0.5956 0.82561 0.0
C1344 C 0.56542 0.61264 0.83061 0.0
C1345 C 0.58279 0.61353 0.8292 0.0
C1346 C 0.58239 0.59698 0.82275 0.0
C1347 C 0.56503 0.57994 0.81781 0.0
C1348 C 0.52572 0.55743 0.84947 0.0
C1349 C 0.51895 0.56607 0.86178 0.0
C1350 C 0.52739 0.57287 0.88087 0.0
C1351 C 0.54273 0.57114 0.88778 0.0
C1352 C 0.54903 0.562 0.87544 0.0
C1353 C 0.54061 0.55522 0.85652 0.0
C1354 C 0.489 0.52254 0.83985 0.0
C1355 C 0.47198 0.52178 0.84285 0.0
C1356 C 0.46037 0.5105 0.85675 0.0
C1357 C 0.46546 0.49957 0.86756 0.0
C1358 C 0.48258 0.50046 0.86459 0.0
C1359 C 0.49436 0.51201 0.85095 0.0
C1360 C 0.48164 0.50536 0.70929 0.0
C1361 C 0.60127 0.63161 0.83445 0.0
H1362 H 0.66444 0.85534 0.7168 0.0
H1363 H 0.67578 0.72053 0.57365 0.0
H1364 H 0.63774 0.84393 0.61422 0.0
H1365 H 0.64272 0.87498 0.62455 0.0
H1366 H 0.69663 0.9026 0.59906 0.0
H1367 H 0.69122 0.87151 0.5884 0.0
H1368 H 0.64076 0.81308 0.64014 0.0
H1369 H 0.64559 0.82644 0.67375 0.0
H1370 H 0.70104 0.87346 0.66262 0.0
H1371 H 0.69611 0.85982 0.62912 0.0
H1372 H 0.64109 0.77571 0.62113 0.0
H1373 H 0.65065 0.75835 0.64204 0.0
H1374 H 0.70787 0.80766 0.65075 0.0
H1375 H 0.69835 0.82475 0.62947 0.0
H1376 H 0.63073 0.76792 0.57515 0.0
H1377 H 0.62987 0.73819 0.56855 0.0
H1378 H 0.69042 0.76749 0.58566 0.0
H1379 H 0.69114 0.79716 0.59191 0.0
H1380 H 0.62719 0.79598 0.54676 0.0
H1381 H 0.62329 0.78111 0.51396 0.0
H1382 H 0.68157 0.79473 0.5213 0.0
H1383 H 0.68548 0.81014 0.55356 0.0
H1384 H 0.63086 0.83642 0.56943 0.0
H1385 H 0.62704 0.85284 0.54234 0.0
H1386 H 0.67805 0.86001 0.5202 0.0
H1387 H 0.6823 0.84442 0.54765 0.0
O1388 O 0.66288 0.85025 0.70348 0.0
O1389 O 0.69125 0.87415 0.69699 0.0
O1390 O 0.64471 0.71778 0.56698 0.0
O1391 O 0.67575 0.73211 0.57599 0.0
C1392 C 0.66223 0.83683 0.59628 0.0
C1393 C 0.66484 0.82747 0.61174 0.0
C1394 C 0.66453 0.81044 0.60777 0.0
C1395 C 0.66134 0.80261 0.58834 0.0
C1396 C 0.65875 0.81194 0.57288 0.0
C1397 C 0.65913 0.82906 0.5768 0.0
C1398 C 0.66411 0.8555 0.60057 0.0
C1399 C 0.65046 0.85672 0.61063 0.0
C1400 C 0.65344 0.87447 0.61666 0.0
C1401 C 0.67017 0.89133 0.61279 0.0
C1402 C 0.68348 0.88996 0.60209 0.0
C1403 C 0.68045 0.87221 0.59601 0.0
C1404 C 0.66803 0.83554 0.63219 0.0
C1405 C 0.65396 0.82623 0.64503 0.0
C1406 C 0.65674 0.83391 0.6642 0.0
C1407 C 0.67368 0.85105 0.67087 0.0
C1408 C 0.68781 0.86027 0.65795 0.0
C1409 C 0.68502 0.85254 0.6388 0.0
C1410 C 0.66905 0.80145 0.62367 0.0
C1411 C 0.65557 0.78289 0.6279 0.0
C1412 C 0.66106 0.77299 0.63975 0.0
C1413 C 0.68004 0.78163 0.64785 0.0
C1414 C 0.69313 0.80071 0.64479 0.0
C1415 C 0.6877 0.8105 0.6327 0.0
C1416 C 0.66097 0.78465 0.58408 0.0
C1417 C 0.6438 0.76789 0.57738 0.0
C1418 C 0.64334 0.75093 0.57366 0.0
C1419 C 0.66008 0.75045 0.57664 0.0
C1420 C 0.67727 0.76734 0.58326 0.0
C1421 C 0.67773 0.7843 0.58688 0.0
C1422 C 0.65659 0.80405 0.55253 0.0
C1423 C 0.63915 0.79593 0.54111 0.0
C1424 C 0.63691 0.78731 0.52249 0.0
C1425 C 0.6521 0.78664 0.51502 0.0
C1426 C 0.66965 0.79518 0.52644 0.0
C1427 C 0.67189 0.80387 0.54495 0.0
C1428 C 0.65679 0.83908 0.56047 0.0
C1429 C 0.64128 0.84166 0.5588 0.0
C1430 C 0.63906 0.85095 0.54334 0.0
C1431 C 0.65212 0.85745 0.52911 0.0
C1432 C 0.66761 0.85484 0.53081 0.0
C1433 C 0.67005 0.84595 0.54647 0.0
C1434 C 0.67654 0.85923 0.69121 0.0
C1435 C 0.65963 0.73244 0.57288 0.0
H1436 H 0.17227 0.81623 0.72188 0.0
H1437 H 0.04284 0.69421 0.54622 0.0
H1438 H 0.17324 0.83833 0.62112 0.0
H1439 H 0.20017 0.86864 0.6356 0.0
H1440 H 0.23926 0.85423 0.61352 0.0
H1441 H 0.212 0.823 0.59994 0.0
H1442 H 0.14575 0.81096 0.64026 0.0
H1443 H 0.15323 0.81497 0.67552 0.0
H1444 H 0.19198 0.79532 0.66843 0.0
H1445 H 0.18415 0.79109 0.63315 0.0
H1446 H 0.11461 0.79149 0.61005 0.0
H1447 H 0.08842 0.77632 0.63085 0.0
H1448 H 0.10649 0.73795 0.64701 0.0
H1449 H 0.13309 0.75354 0.62623 0.0
H1450 H 0.1115 0.78569 0.56458 0.0
H1451 H 0.07949 0.76144 0.55023 0.0
H1452 H 0.08827 0.71749 0.57 0.0
H1453 H 0.12033 0.74188 0.58407 0.0
H1454 H 0.15181 0.81702 0.548 0.0
H1455 H 0.14088 0.81183 0.51369 0.0
H1456 H 0.12785 0.7539 0.51338 0.0
H1457 H 0.14113 0.76016 0.54716 0.0
H1458 H 0.18365 0.84399 0.57434 0.0
H1459 H 0.2058 0.863 0.55081 0.0
H1460 H 0.21187 0.8157 0.5339 0.0
H1461 H 0.1895 0.79676 0.55721 0.0
O1462 O 0.16944 0.81444 0.70789 0.0
O1463 O 0.18925 0.80432 0.70344 0.0
O1464 O 0.05168 0.72723 0.54183 0.0
O1465 O 0.05545 0.7041 0.55175 0.0
C1466 C 0.17371 0.8102 0.6007 0.0
C1467 C 0.15973 0.79793 0.61268 0.0
C1468 C 0.14158 0.78342 0.60426 0.0
C1469 C 0.13775 0.78027 0.58383 0.0
C1470 C 0.1521 0.7917 0.57171 0.0
C1471 C 0.17011 0.80675 0.58019 0.0
C1472 C 0.1906 0.82827 0.60972 0.0
C1473 C 0.18757 0.84138 0.61984 0.0
C1474 C 0.20292 0.85869 0.62804 0.0
C1475 C 0.22164 0.86352 0.62582 0.0
C1476 C 0.22485 0.8506 0.61555 0.0
C1477 C 0.20937 0.8329 0.60775 0.0
C1478 C 0.16417 0.80043 0.63416 0.0
C1479 C 0.15565 0.80727 0.64635 0.0
C1480 C 0.16005 0.80968 0.6665 0.0
C1481 C 0.17315 0.8054 0.67481 0.0
C1482 C 0.18178 0.79869 0.66251 0.0
C1483 C 0.17734 0.79627 0.64237 0.0
C1484 C 0.12569 0.7736 0.61671 0.0
C1485 C 0.11293 0.77983 0.6181 0.0
C1486 C 0.09811 0.77126 0.63005 0.0
C1487 C 0.09561 0.75611 0.64062 0.0
C1488 C 0.10821 0.74963 0.63899 0.0
C1489 C 0.12332 0.75847 0.62721 0.0
C1490 C 0.11826 0.76552 0.57524 0.0
C1491 C 0.1065 0.77081 0.56571 0.0
C1492 C 0.08822 0.75694 0.55757 0.0
C1493 C 0.08133 0.73751 0.55894 0.0
C1494 C 0.09313 0.7323 0.56866 0.0
C1495 C 0.11143 0.74619 0.57674 0.0
C1496 C 0.14741 0.78903 0.55018 0.0
C1497 C 0.14732 0.80345 0.54033 0.0
C1498 C 0.14057 0.80025 0.52072 0.0
C1499 C 0.13293 0.78224 0.51062 0.0
C1500 C 0.13372 0.76802 0.52039 0.0
C1501 C 0.14115 0.77149 0.53986 0.0
C1502 C 0.18496 0.81899 0.56744 0.0
C1503 C 0.19003 0.83788 0.56576 0.0
C1504 C 0.20271 0.84872 0.55234 0.0
C1505 C 0.21048 0.84081 0.54037 0.0
C1506 C 0.20588 0.8221 0.54266 0.0
C1507 C 0.1932 0.81129 0.55603 0.0
C1508 C 0.17782 0.80799 0.69622 0.0
C1509 C 0.06193 0.72271 0.55031 0.0
H1510 H 0.2201 0.35908 0.7326 0.0
H1511 H 0.07269 0.347 0.5821 0.0
H1512 H 0.23191 0.37545 0.63305 0.0
H1513 H 0.25486 0.36848 0.6482 0.0
H1514 H 0.22433 0.31271 0.61722 0.0
H1515 H 0.20116 0.3196 0.60246 0.0
H1516 H 0.20062 0.37713 0.65714 0.0
H1517 H 0.21005 0.37487 0.69066 0.0
H1518 H 0.19509 0.3172 0.67535 0.0
H1519 H 0.18542 0.31954 0.64198 0.0
H1520 H 0.1633 0.37751 0.63761 0.0
H1521 H 0.13979 0.37191 0.66091 0.0
H1522 H 0.12677 0.31432 0.66379 0.0
H1523 H 0.14984 0.31987 0.64039 0.0
H1524 H 0.16692 0.38485 0.59127 0.0
H1525 H 0.13957 0.38807 0.5832 0.0
H1526 H 0.10143 0.32972 0.59553 0.0
H1527 H 0.12888 0.32662 0.60332 0.0
H1528 H 0.19677 0.38219 0.564 0.0
H1529 H 0.18663 0.38392 0.53041 0.0
H1530 H 0.13492 0.32922 0.53231 0.0
H1531 H 0.14543 0.32722 0.5655 0.0
H1532 H 0.22749 0.37996 0.58194 0.0
H1533 H 0.24303 0.37962 0.55273 0.0
H1534 H 0.19873 0.32086 0.53779 0.0
H1535 H 0.18309 0.32143 0.56678 0.0
O1536 O 0.21609 0.35958 0.71931 0.0
O1537 O 0.20839 0.33006 0.71063 0.0
O1538 O 0.10397 0.37599 0.57887 0.0
O1539 O 0.08375 0.34611 0.58517 0.0
C1540 C 0.19848 0.35036 0.61171 0.0
C1541 C 0.18735 0.35026 0.62663 0.0
C1542 C 0.17124 0.35163 0.6221 0.0
C1543 C 0.16656 0.35368 0.60273 0.0
C1544 C 0.17757 0.35364 0.58777 0.0
C1545 C 0.19338 0.35173 0.59227 0.0
C1546 C 0.21484 0.34803 0.61668 0.0
C1547 C 0.23047 0.36193 0.62913 0.0
C1548 C 0.24345 0.35788 0.63788 0.0
C1549 C 0.2412 0.33997 0.63405 0.0
C1550 C 0.22643 0.32664 0.62036 0.0
C1551 C 0.21327 0.3306 0.61182 0.0
C1552 C 0.19246 0.34855 0.64711 0.0
C1553 C 0.19929 0.36399 0.6611 0.0
C1554 C 0.20471 0.36268 0.68021 0.0
C1555 C 0.2034 0.34588 0.68567 0.0
C1556 C 0.19634 0.33036 0.67163 0.0
C1557 C 0.19085 0.33167 0.65255 0.0
C1558 C 0.15829 0.3491 0.63735 0.0
C1559 C 0.15545 0.36376 0.64343 0.0
C1560 C 0.14206 0.36055 0.6567 0.0
C1561 C 0.13157 0.34272 0.66426 0.0
C1562 C 0.13489 0.3283 0.65851 0.0
C1563 C 0.14803 0.33143 0.64511 0.0
C1564 C 0.14988 0.35555 0.59797 0.0
C1565 C 0.15264 0.37279 0.59219 0.0
C1566 C 0.137 0.37459 0.58761 0.0
C1567 C 0.1183 0.35915 0.58876 0.0
C1568 C 0.11562 0.34189 0.59453 0.0
C1569 C 0.13127 0.34009 0.59905 0.0
C1570 C 0.17183 0.35458 0.56722 0.0
C1571 C 0.18339 0.37047 0.55705 0.0
C1572 C 0.17758 0.37148 0.53794 0.0
C1573 C 0.15993 0.35678 0.52889 0.0
C1574 C 0.14847 0.34086 0.53906 0.0
C1575 C 0.15445 0.33969 0.55798 0.0
C1576 C 0.20421 0.35073 0.57639 0.0
C1577 C 0.22137 0.36695 0.57253 0.0
C1578 C 0.23013 0.36675 0.55586 0.0
C1579 C 0.22201 0.35022 0.54307 0.0
C1580 C 0.20533 0.33372 0.54753 0.0
C1581 C 0.1964 0.33402 0.564 0.0
C1582 C 0.20941 0.34462 0.70593 0.0
C1583 C 0.10164 0.361 0.58395 0.0
H1584 H 0.00649 0.40224 0.08002 0.0
H1585 H 0.95006 0.39359 0.07427 0.0
H1586 H 0.01326 0.42052 0.11121 0.0
H1587 H 0.95666 0.41143 0.10559 0.0
H1588 H 0.98281 0.46324 0.14969 0.0
H1589 H 0.97599 0.44401 0.11915 0.0
H1590 H 0.00504 0.41808 0.14452 0.0
H1591 H 0.012 0.43748 0.17498 0.0
C1592 C 0.99544 0.40401 0.08552 0.0
C1593 C 0.97778 0.39654 0.07459 0.0
C1594 C 0.9993 0.41445 0.10343 0.0
C1595 C 0.98556 0.41759 0.11082 0.0
C1596 C 0.96771 0.40962 0.10014 0.0
C1597 C 0.96387 0.39926 0.08223 0.0
C1598 C 0.98766 0.45337 0.14874 0.0
C1599 C 0.99797 0.4519 0.16471 0.0
C1600 C 0.98371 0.4423 0.13128 0.0
C1601 C 0.98991 0.42944 0.1294 0.0
C1602 C 0.00028 0.42803 0.14538 0.0
C1603 C 0.00428 0.43915 0.16282 0.0
H1604 H 0.60492 0.59257 0.11609 0.0
H1605 H 0.59172 0.53863 0.08867 0.0
H1606 H 0.58802 0.5765 0.1439 0.0
H1607 H 0.57443 0.52261 0.11595 0.0
H1608 H 0.56007 0.50059 0.1746 0.0
H1609 H 0.57937 0.51872 0.14919 0.0
H1610 H 0.55637 0.55501 0.1529 0.0
H1611 H 0.53793 0.53758 0.17923 0.0
C1612 C 0.59836 0.5773 0.11596 0.0
C1613 C 0.59973 0.5669 0.1002 0.0
C1614 C 0.5886 0.56807 0.13184 0.0
C1615 C 0.57994 0.54826 0.13222 0.0
C1616 C 0.58126 0.53792 0.11637 0.0
C1617 C 0.59109 0.54712 0.10063 0.0
C1618 C 0.55938 0.51265 0.17028 0.0
C1619 C 0.54738 0.51757 0.17895 0.0
C1620 C 0.57026 0.5229 0.15549 0.0
C1621 C 0.5693 0.53822 0.14885 0.0
C1622 C 0.55758 0.54339 0.15775 0.0
C1623 C 0.54678 0.53321 0.17266 0.0
H1624 H 0.43121 0.02815 0.07921 0.0
H1625 H 0.43329 0.97724 0.07134 0.0
H1626 H 0.45244 0.03775 0.10923 0.0
H1627 H 0.454 0.98657 0.1012 0.0
H1628 H 0.50002 0.01126 0.14944 0.0
H1629 H 0.48528 0.00896 0.117 0.0
H1630 H 0.44962 0.02667 0.14193 0.0
H1631 H 0.46454 0.02917 0.17431 0.0
C1632 C 0.43635 0.01913 0.08374 0.0
C1633 C 0.43045 0.00187 0.07293 0.0
C1634 C 0.44842 0.02457 0.10098 0.0
C1635 C 0.45492 0.01292 0.10764 0.0
C1636 C 0.44953 0.99604 0.0964 0.0
C1637 C 0.43748 0.9906 0.07931 0.0
C1638 C 0.48919 0.01487 0.14793 0.0
C1639 C 0.48332 0.02022 0.16443 0.0
C1640 C 0.48073 0.01354 0.12937 0.0
C1641 C 0.46609 0.0174 0.12687 0.0
C1642 C 0.46097 0.02377 0.14328 0.0
C1643 C 0.46951 0.02519 0.16186 0.0
H1644 H 0.39611 0.95106 0.96736 0.0
H1645 H 0.41344 0.01024 0.96843 0.0
H1646 H 0.40804 0.95294 0.93563 0.0
H1647 H 0.42585 0.01223 0.93674 0.0
H1648 H 0.43247 0.00406 0.87182 0.0
H1649 H 0.41751 0.00164 0.90208 0.0
H1650 H 0.43898 0.96744 0.92349 0.0
H1651 H 0.45371 0.96976 0.89343 0.0
C1652 C 0.40245 0.96449 0.96082 0.0
C1653 C 0.40396 0.98055 0.97053 0.0
C1654 C 0.40939 0.96558 0.94264 0.0
C1655 C 0.41812 0.98279 0.93373 0.0
C1656 C 0.41909 0.99872 0.94314 0.0
C1657 C 0.41206 0.9976 0.96134 0.0
C1658 C 0.43396 0.99604 0.88303 0.0
C1659 C 0.44409 0.98692 0.88014 0.0
C1660 C 0.42543 0.99468 0.90036 0.0
C1661 C 0.42691 0.98422 0.91515 0.0
C1662 C 0.43715 0.97523 0.91224 0.0
C1663 C 0.44561 0.97656 0.89498 0.0
H1664 H 0.00989 0.39597 0.96416 0.0
H1665 H 0.98459 0.42689 0.98504 0.0
H1666 H 0.01891 0.41452 0.93551 0.0
H1667 H 0.99391 0.44557 0.95688 0.0
H1668 H 0.02308 0.48425 0.91014 0.0
H1669 H 0.02376 0.46941 0.93986 0.0
H1670 H 0.99606 0.41464 0.90707 0.0
H1671 H 0.99524 0.42945 0.87738 0.0
C1672 C 0.00671 0.40704 0.96286 0.0
C1673 C 0.99647 0.40997 0.97669 0.0
C1674 C 0.01178 0.41755 0.94649 0.0
C1675 C 0.00711 0.43146 0.94404 0.0
C1676 C 0.99786 0.43508 0.95849 0.0
C1677 C 0.99243 0.42432 0.97454 0.0
C1678 C 0.01757 0.46912 0.90923 0.0
C1679 C 0.00899 0.45795 0.89153 0.0
C1680 C 0.0179 0.46065 0.9262 0.0
C1681 C 0.00995 0.44091 0.92572 0.0
C1682 C 0.00245 0.42991 0.9078 0.0
C1683 C 0.00184 0.43834 0.89088 0.0
H1684 H 0.60651 0.57345 0.98678 0.0
H1685 H 0.58716 0.60848 0.01178 0.0
H1686 H 0.59073 0.57168 0.95534 0.0
H1687 H 0.57091 0.60634 0.9799 0.0
H1688 H 0.5263 0.56832 0.92203 0.0
H1689 H 0.54223 0.57628 0.95516 0.0
H1690 H 0.59653 0.59832 0.93154 0.0
H1691 H 0.58086 0.59087 0.89864 0.0
C1692 C 0.5988 0.58071 0.9856 0.0
C1693 C 0.59809 0.59112 0.00179 0.0
C1694 C 0.58986 0.57977 0.96754 0.0
C1695 C 0.57976 0.58898 0.96523 0.0
C1696 C 0.57867 0.59915 0.98139 0.0
C1697 C 0.58798 0.6004 0.99954 0.0
C1698 C 0.54168 0.57534 0.92395 0.0
C1699 C 0.5523 0.5786 0.90775 0.0
C1700 C 0.55076 0.57988 0.94287 0.0
C1701 C 0.57052 0.58766 0.94578 0.0
C1702 C 0.58123 0.5921 0.92962 0.0
C1703 C 0.57224 0.58772 0.91082 0.0
H1704 H 0.06282 0.62372 0.99195 0.0
H1705 H 0.00212 0.59489 0.99649 0.0
H1706 H 0.05705 0.60522 0.96121 0.0
H1707 H 0.99631 0.57569 0.96633 0.0
H1708 H 0.9903 0.55476 0.9033 0.0
H1709 H 0.99657 0.57529 0.93264 0.0
H1710 H 0.04771 0.57471 0.94826 0.0
H1711 H 0.04175 0.55492 0.91831 0.0
C1712 C 0.04823 0.61339 0.98638 0.0
C1713 C 0.03293 0.61079 0.99664 0.0
C1714 C 0.04491 0.60264 0.96882 0.0
C1715 C 0.0262 0.58879 0.96124 0.0
C1716 C 0.0109 0.5864 0.97145 0.0
C1717 C 0.01422 0.59737 0.98884 0.0
C1718 C 0.00283 0.559 0.9131 0.0
C1719 C 0.01549 0.5532 0.90867 0.0
C1720 C 0.00642 0.57072 0.92997 0.0
C1721 C 0.02264 0.57668 0.94298 0.0
C1722 C 0.03527 0.57075 0.93847 0.0
C1723 C 0.03182 0.55928 0.92141 0.0
H1724 H 0.38452 0.44866 0.95459 0.0
H1725 H 0.41268 0.4171 0.95311 0.0
H1726 H 0.401 0.46541 0.9271 0.0
H1727 H 0.43015 0.43464 0.92632 0.0
H1728 H 0.45158 0.46184 0.87023 0.0
H1729 H 0.43077 0.44144 0.89382 0.0
H1730 H 0.43127 0.48966 0.92131 0.0
H1731 H 0.45118 0.50958 0.89708 0.0
C1732 C 0.39422 0.44527 0.94829 0.0
C1733 C 0.3974 0.43166 0.95602 0.0
C1734 C 0.40385 0.45502 0.93265 0.0
C1735 C 0.41727 0.45174 0.92464 0.0
C1736 C 0.41983 0.43749 0.93191 0.0
C1737 C 0.40986 0.42744 0.94733 0.0
C1738 C 0.44712 0.46796 0.88133 0.0
C1739 C 0.45291 0.48723 0.88189 0.0
C1740 C 0.43527 0.45632 0.89491 0.0
C1741 C 0.42922 0.4638 0.90955 0.0
C1742 C 0.43517 0.48319 0.91003 0.0
C1743 C 0.44672 0.4947 0.89625 0.0
H1744 H 0.57273 0.97794 0.99081 0.0
H1745 H 0.5785 0.03297 0.99532 0.0
H1746 H 0.55199 0.96928 0.96065 0.0
H1747 H 0.55811 0.02444 0.96522 0.0
H1748 H 0.51097 0.00048 0.9172 0.0
H1749 H 0.52572 0.00367 0.94989 0.0
H1750 H 0.55674 0.97931 0.92731 0.0
H1751 H 0.54202 0.97614 0.89467 0.0
C1752 C 0.56942 0.98811 0.9855 0.0
C1753 C 0.57738 0.0062 0.99543 0.0
C1754 C 0.55763 0.98318 0.96817 0.0
C1755 C 0.55344 0.99619 0.9605 0.0
C1756 C 0.56084 0.01399 0.97083 0.0
C1757 C 0.57267 0.01894 0.98805 0.0
C1758 C 0.52084 0.99569 0.91926 0.0
C1759 C 0.52545 0.98822 0.90332 0.0
C1760 C 0.52928 0.99751 0.93797 0.0
C1761 C 0.54253 0.9919 0.94118 0.0
C1762 C 0.54643 0.98357 0.92539 0.0
C1763 C 0.53799 0.98176 0.90666 0.0
H1764 H 0.59345 0.99451 0.10022 0.0
H1765 H 0.61277 0.05422 0.10155 0.0
H1766 H 0.58159 0.993 0.13209 0.0
H1767 H 0.60134 0.05279 0.13352 0.0
H1768 H 0.55561 0.03651 0.17603 0.0
H1769 H 0.57055 0.03908 0.14606 0.0
H1770 H 0.59062 0.00349 0.16669 0.0
H1771 H 0.57551 0.00087 0.19686 0.0
C1772 C 0.59537 0.00736 0.10739 0.0
C1773 C 0.60389 0.02444 0.09823 0.0
C1774 C 0.58867 0.00651 0.12572 0.0
C1775 C 0.59038 0.02274 0.13529 0.0
C1776 C 0.59948 0.03994 0.12639 0.0
C1777 C 0.60611 0.04078 0.10808 0.0
C1778 C 0.5635 0.02951 0.17436 0.0
C1779 C 0.5645 0.01861 0.18891 0.0
C1780 C 0.57206 0.03096 0.15714 0.0
C1781 C 0.58188 0.02157 0.154 0.0
C1782 C 0.583 0.01075 0.16859 0.0
C1783 C 0.57439 0.00927 0.18586 0.0
H1784 H 0.99521 0.59874 0.1004 0.0
H1785 H 0.04667 0.59787 0.09524 0.0
H1786 H 0.98773 0.57845 0.1276 0.0
H1787 H 0.03936 0.57809 0.12215 0.0
H1788 H 0.01497 0.52923 0.15841 0.0
H1789 H 0.01641 0.54575 0.1296 0.0
H1790 H 0.00089 0.58058 0.16215 0.0
H1791 H 0.99926 0.56377 0.19109 0.0
C1792 C 0.00484 0.59417 0.10496 0.0
C1793 C 0.02153 0.59994 0.09562 0.0
C1794 C 0.00061 0.58265 0.12058 0.0
C1795 C 0.01288 0.57654 0.12693 0.0
C1796 C 0.02942 0.58223 0.11743 0.0
C1797 C 0.03368 0.59374 0.10204 0.0
C1798 C 0.01177 0.54035 0.15939 0.0
C1799 C 0.00735 0.54546 0.17708 0.0
C1800 C 0.01257 0.5498 0.1429 0.0
C1801 C 0.00907 0.56469 0.14368 0.0
C1802 C 0.00359 0.56912 0.16107 0.0
C1803 C 0.00271 0.55955 0.17764 0.0
H1804 H 0.40444 0.38814 0.05811 0.0
H1805 H 0.43563 0.44843 0.05141 0.0
H1806 H 0.42218 0.39412 0.08984 0.0
H1807 H 0.45386 0.45438 0.08258 0.0
H1808 H 0.45575 0.45948 0.14881 0.0
H1809 H 0.44444 0.45336 0.11462 0.0
H1810 H 0.4518 0.40538 0.11032 0.0
H1811 H 0.46254 0.4112 0.14514 0.0
C1812 C 0.4155 0.4026 0.06315 0.0
C1813 C 0.41844 0.41786 0.05249 0.0
C1814 C 0.4257 0.40604 0.08131 0.0
C1815 C 0.43915 0.42478 0.08896 0.0
C1816 C 0.44321 0.43982 0.0774 0.0
C1817 C 0.43285 0.43642 0.05947 0.0
C1818 C 0.45494 0.44759 0.14061 0.0
C1819 C 0.45979 0.43567 0.14974 0.0
C1820 C 0.44871 0.44423 0.12088 0.0
C1821 C 0.44728 0.42891 0.10962 0.0
C1822 C 0.45262 0.41723 0.1186 0.0
C1823 C 0.4589 0.42063 0.13848 0.0
H1824 H 0.66929 0.73466 0.41284 0.0
H1825 H 0.61271 0.72456 0.40039 0.0
H1826 H 0.67174 0.75014 0.44467 0.0
H1827 H 0.61526 0.74013 0.43216 0.0
H1828 H 0.62105 0.75302 0.4989 0.0
H1829 H 0.61758 0.73604 0.46769 0.0
H1830 H 0.6742 0.78041 0.45639 0.0
H1831 H 0.67758 0.79759 0.48736 0.0
C1832 C 0.65732 0.7356 0.41693 0.0
C1833 C 0.64084 0.72844 0.40403 0.0
C1834 C 0.65879 0.74459 0.4351 0.0
C1835 C 0.64374 0.74646 0.44083 0.0
C1836 C 0.62704 0.73879 0.42819 0.0
C1837 C 0.62563 0.72995 0.40996 0.0
C1838 C 0.63265 0.7593 0.48965 0.0
C1839 C 0.64961 0.77666 0.49567 0.0
C1840 C 0.63069 0.74952 0.47181 0.0
C1841 C 0.64568 0.75683 0.45969 0.0
C1842 C 0.66255 0.77426 0.4656 0.0
C1843 C 0.66446 0.78409 0.48335 0.0
H1844 H 0.26794 0.9218 0.45455 0.0
H1845 H 0.27414 0.87438 0.43878 0.0
H1846 H 0.25324 0.90683 0.48376 0.0
H1847 H 0.25991 0.85973 0.46801 0.0
H1848 H 0.20873 0.82725 0.50322 0.0
H1849 H 0.22743 0.84449 0.47713 0.0
H1850 H 0.25758 0.89606 0.51556 0.0
H1851 H 0.23876 0.87865 0.54193 0.0
C1852 C 0.2665 0.90838 0.45749 0.0
C1853 C 0.27194 0.89914 0.4442 0.0
C1854 C 0.25814 0.89984 0.47425 0.0
C1855 C 0.25514 0.88195 0.47802 0.0
C1856 C 0.26161 0.8733 0.46528 0.0
C1857 C 0.26985 0.88176 0.44856 0.0
C1858 C 0.21956 0.84219 0.50626 0.0
C1859 C 0.22238 0.85152 0.52472 0.0
C1860 C 0.23029 0.85209 0.49127 0.0
C1861 C 0.24413 0.87162 0.49432 0.0
C1862 C 0.24694 0.88105 0.51275 0.0
C1863 C 0.23618 0.87108 0.52782 0.0
H1864 H 0.12319 0.3271 0.40809 0.0
H1865 H 0.1013 0.36297 0.42249 0.0
H1866 H 0.14078 0.33584 0.44015 0.0
H1867 H 0.11885 0.37159 0.45476 0.0
H1868 H 0.12556 0.35154 0.51642 0.0
H1869 H 0.11345 0.35073 0.48306 0.0
H1870 H 0.16715 0.36354 0.46284 0.0
H1871 H 0.17932 0.36445 0.49635 0.0
C1872 C 0.12241 0.33713 0.41798 0.0
C1873 C 0.11075 0.34424 0.41282 0.0
C1874 C 0.13257 0.3422 0.43631 0.0
C1875 C 0.13108 0.35429 0.44998 0.0
C1876 C 0.12014 0.36213 0.44452 0.0
C1877 C 0.1102 0.35729 0.42603 0.0
C1878 C 0.13482 0.35436 0.50485 0.0
C1879 C 0.15331 0.35792 0.50889 0.0
C1880 C 0.12797 0.35408 0.4858 0.0
C1881 C 0.13937 0.35709 0.47036 0.0
C1882 C 0.15806 0.36114 0.47447 0.0
C1883 C 0.16503 0.36172 0.4936 0.0
H1884 H 0.07627 0.29111 0.30477 0.0
H1885 H 0.09459 0.35059 0.30671 0.0
H1886 H 0.08483 0.29227 0.27141 0.0
H1887 H 0.1032 0.35169 0.27326 0.0
H1888 H 0.13899 0.34861 0.22435 0.0
H1889 H 0.1281 0.34872 0.25638 0.0
H1890 H 0.07452 0.29698 0.238 0.0
H1891 H 0.08512 0.29708 0.20567 0.0
C1892 C 0.08209 0.30442 0.29808 0.0
C1893 C 0.08481 0.32077 0.30843 0.0
C1894 C 0.08685 0.30504 0.27891 0.0
C1895 C 0.09463 0.32206 0.26973 0.0
C1896 C 0.09732 0.33841 0.28003 0.0
C1897 C 0.09234 0.33774 0.29914 0.0
C1898 C 0.12469 0.3375 0.22691 0.0
C1899 C 0.11295 0.32282 0.21236 0.0
C1900 C 0.1185 0.33754 0.24532 0.0
C1901 C 0.10051 0.32281 0.2497 0.0
C1902 C 0.08856 0.30838 0.23509 0.0
C1903 C 0.09467 0.30843 0.21659 0.0
H1904 H 0.66022 0.7655 0.31675 0.0
H1905 H 0.68731 0.73502 0.30021 0.0
H1906 H 0.67322 0.78558 0.29002 0.0
H1907 H 0.70009 0.75502 0.27298 0.0
H1908 H 0.68201 0.77176 0.21244 0.0
H1909 H 0.6807 0.75623 0.2422 0.0
H1910 H 0.70461 0.80999 0.2762 0.0
H1911 H 0.70599 0.82553 0.24643 0.0
C1912 C 0.66926 0.76335 0.30757 0.0
C1913 C 0.67269 0.74868 0.31044 0.0
C1914 C 0.6768 0.77492 0.29235 0.0
C1915 C 0.68764 0.77183 0.27945 0.0
C1916 C 0.69177 0.75766 0.28276 0.0
C1917 C 0.68454 0.74631 0.29833 0.0
C1918 C 0.68743 0.7803 0.22625 0.0
C1919 C 0.69398 0.79979 0.2272 0.0
C1920 C 0.68682 0.77147 0.24323 0.0
C1921 C 0.69248 0.78192 0.26147 0.0
C1922 C 0.70013 0.80163 0.2623 0.0
C1923 C 0.701 0.81052 0.24529 0.0
H1924 H 0.26239 0.94443 0.34368 0.0
H1925 H 0.22643 0.88456 0.35114 0.0
H1926 H 0.24353 0.94004 0.31319 0.0
H1927 H 0.20705 0.88028 0.32127 0.0
H1928 H 0.20276 0.9272 0.25981 0.0
H1929 H 0.21429 0.93198 0.29431 0.0
H1930 H 0.21379 0.87951 0.28858 0.0
H1931 H 0.20162 0.87446 0.25475 0.0
C1932 C 0.25007 0.93047 0.33912 0.0
C1933 C 0.24606 0.91476 0.34954 0.0
C1934 C 0.23921 0.92794 0.32167 0.0
C1935 C 0.22402 0.90971 0.31452 0.0
C1936 C 0.219 0.8944 0.32601 0.0
C1937 C 0.23002 0.89686 0.3432 0.0
C1938 C 0.20479 0.91656 0.26612 0.0
C1939 C 0.20151 0.90057 0.25454 0.0
C1940 C 0.21154 0.91936 0.28581 0.0
C1941 C 0.215 0.90615 0.29427 0.0
C1942 C 0.21103 0.88986 0.28274 0.0
C1943 C 0.20431 0.88709 0.2632 0.0
H1944 H 0.67853 0.94071 0.32461 0.0
H1945 H 0.71936 0.92901 0.35166 0.0
H1946 H 0.67898 0.92551 0.29375 0.0
H1947 H 0.71967 0.91371 0.32075 0.0
H1948 H 0.69389 0.86746 0.26752 0.0
H1949 H 0.6957 0.88383 0.29871 0.0
H1950 H 0.7028 0.93163 0.26888 0.0
H1951 H 0.70094 0.91529 0.23777 0.0
C1952 C 0.68761 0.93492 0.32398 0.0
C1953 C 0.69891 0.93607 0.34059 0.0
C1954 C 0.68794 0.92632 0.30628 0.0
C1955 C 0.69938 0.91846 0.30488 0.0
C1956 C 0.71064 0.91955 0.32147 0.0
C1957 C 0.71052 0.92839 0.33912 0.0
C1958 C 0.69597 0.88152 0.2677 0.0
C1959 C 0.69735 0.89015 0.25028 0.0
C1960 C 0.6971 0.89091 0.28551 0.0
C1961 C 0.69933 0.90896 0.28617 0.0
C1962 C 0.70094 0.91767 0.26876 0.0
C1963 C 0.70006 0.9084 0.25101 0.0
H1964 H 0.0733 0.75455 0.29626 0.0
H1965 H 0.04579 0.78674 0.29862 0.0
H1966 H 0.09107 0.77247 0.26989 0.0
H1967 H 0.06274 0.804 0.27153 0.0
H1968 H 0.11201 0.84652 0.23883 0.0
H1969 H 0.0929 0.8277 0.26416 0.0
H1970 H 0.09002 0.77803 0.23719 0.0
H1971 H 0.10998 0.79726 0.21251 0.0
C1972 C 0.07081 0.76525 0.2909 0.0
C1973 C 0.05823 0.76931 0.29958 0.0
C1974 C 0.08093 0.77548 0.27567 0.0
C1975 C 0.07846 0.78981 0.26852 0.0
C1976 C 0.06539 0.79342 0.27689 0.0
C1977 C 0.05553 0.78342 0.29234 0.0
C1978 C 0.10718 0.83155 0.23835 0.0
C1979 C 0.11247 0.82332 0.22382 0.0
C1980 C 0.09612 0.82069 0.25278 0.0
C1981 C 0.08983 0.80126 0.25281 0.0
C1982 C 0.09488 0.793 0.23794 0.0
C1983 C 0.10622 0.80396 0.22371 0.0
H1984 H 0.2433 0.31181 0.31256 0.0
H1985 H 0.21276 0.33563 0.3373 0.0
H1986 H 0.22381 0.30365 0.28185 0.0
H1987 H 0.19199 0.32604 0.30723 0.0
H1988 H 0.1797 0.33449 0.2448 0.0
H1989 H 0.19324 0.33636 0.27725 0.0
H1990 H 0.19656 0.28712 0.26135 0.0
H1991 H 0.18497 0.28665 0.22814 0.0
C1992 C 0.23193 0.31469 0.31157 0.0
C1993 C 0.22963 0.32452 0.32713 0.0
C1994 C 0.22061 0.30992 0.29396 0.0
C1995 C 0.20638 0.31443 0.29172 0.0
C1996 C 0.20319 0.32292 0.308 0.0
C1997 C 0.21493 0.32824 0.32536 0.0
C1998 C 0.18351 0.32417 0.2481 0.0
C1999 C 0.18165 0.31074 0.23357 0.0
C2000 C 0.19095 0.32497 0.26699 0.0
C2001 C 0.19627 0.31199 0.27216 0.0
C2002 C 0.19316 0.29771 0.25794 0.0
C2003 C 0.18614 0.29721 0.23886 0.0
H2004 H 0.24368 0.31922 0.42985 0.0
H2005 H 0.27532 0.38062 0.43448 0.0
H2006 H 0.23436 0.31935 0.46275 0.0
H2007 H 0.26702 0.38089 0.46762 0.0
H2008 H 0.22998 0.37544 0.51592 0.0
H2009 H 0.24101 0.37514 0.48408 0.0
H2010 H 0.24349 0.32562 0.49634 0.0
H2011 H 0.23148 0.32553 0.52795 0.0
C2012 C 0.24888 0.33274 0.43804 0.0
C2013 C 0.26002 0.3499 0.42954 0.0
C2014 C 0.24366 0.33285 0.45696 0.0
C2015 C 0.24976 0.35015 0.46788 0.0
C2016 C 0.26157 0.36728 0.45954 0.0
C2017 C 0.26646 0.36715 0.44055 0.0
C2018 C 0.23309 0.36463 0.51184 0.0
C2019 C 0.23002 0.35058 0.52436 0.0
C2020 C 0.2395 0.36447 0.49361 0.0
C2021 C 0.2433 0.35041 0.48757 0.0
C2022 C 0.24046 0.33649 0.50032 0.0
C2023 C 0.23372 0.33649 0.51847 0.0
H2024 H 0.64469 0.90318 0.41845 0.0
H2025 H 0.68968 0.94768 0.45821 0.0
H2026 H 0.63383 0.88188 0.44498 0.0
H2027 H 0.67862 0.9268 0.48464 0.0
H2028 H 0.64798 0.88803 0.53115 0.0
H2029 H 0.64918 0.90727 0.50459 0.0
H2030 H 0.65303 0.86873 0.46381 0.0
H2031 H 0.65211 0.84967 0.49038 0.0
C2032 C 0.65183 0.90854 0.43297 0.0
C2033 C 0.668 0.92698 0.43638 0.0
C2034 C 0.64572 0.89639 0.44806 0.0
C2035 C 0.65539 0.90274 0.46682 0.0
C2036 C 0.67078 0.9216 0.47039 0.0
C2037 C 0.67715 0.93351 0.45527 0.0
C2038 C 0.64867 0.88348 0.51644 0.0
C2039 C 0.65012 0.86749 0.51278 0.0
C2040 C 0.64938 0.89448 0.50129 0.0
C2041 C 0.65116 0.88944 0.48218 0.0
C2042 C 0.65144 0.8728 0.47836 0.0
C2043 C 0.65109 0.86201 0.49356 0.0
H2044 H 0.08728 0.74695 0.38751 0.0
H2045 H 0.04975 0.7605 0.41505 0.0
H2046 H 0.10718 0.75569 0.41827 0.0
H2047 H 0.06853 0.76784 0.44595 0.0
H2048 H 0.11302 0.79743 0.49488 0.0
H2049 H 0.09625 0.79027 0.4631 0.0
H2050 H 0.11092 0.74828 0.44952 0.0
H2051 H 0.12977 0.75713 0.48069 0.0
C2052 C 0.08318 0.75157 0.40023 0.0
C2053 C 0.06713 0.75328 0.39888 0.0
C2054 C 0.0945 0.75648 0.41793 0.0
C2055 C 0.08971 0.76276 0.43474 0.0
C2056 C 0.0732 0.76377 0.43332 0.0
C2057 C 0.06225 0.75937 0.4156 0.0
C2058 C 0.11328 0.78708 0.48502 0.0
C2059 C 0.12298 0.77798 0.49061 0.0
C2060 C 0.10314 0.78258 0.46678 0.0
C2061 C 0.10177 0.76836 0.45366 0.0
C2062 C 0.11166 0.75939 0.45907 0.0
C2063 C 0.12226 0.76427 0.4772 0.0
H2064 H 0.27562 0.05617 0.72949 0.0
H2065 H 0.33186 0.06625 0.74439 0.0
H2066 H 0.27685 0.07106 0.76126 0.0
H2067 H 0.33324 0.08146 0.77585 0.0
H2068 H 0.322 0.08982 0.83781 0.0
H2069 H 0.31912 0.0737 0.80634 0.0
H2070 H 0.29323 0.10207 0.77967 0.0
H2071 H 0.29598 0.1181 0.81132 0.0
C2072 C 0.28825 0.06158 0.73951 0.0
C2073 C 0.30362 0.05997 0.73439 0.0
C2074 C 0.289 0.07022 0.75767 0.0
C2075 C 0.30513 0.07743 0.77112 0.0
C2076 C 0.32047 0.0758 0.76597 0.0
C2077 C 0.31972 0.06715 0.74786 0.0
C2078 C 0.31579 0.0927 0.82521 0.0
C2079 C 0.30937 0.10536 0.82701 0.0
C2080 C 0.31415 0.08347 0.80716 0.0
C2081 C 0.30608 0.0867 0.79044 0.0
C2082 C 0.29933 0.0991 0.79229 0.0
C2083 C 0.30092 0.10831 0.81041 0.0
H2084 H 0.94953 0.21584 0.76845 0.0
H2085 H 0.93511 0.25887 0.77498 0.0
H2086 H 0.93293 0.20147 0.79681 0.0
H2087 H 0.91848 0.2444 0.80356 0.0
H2088 H 0.86929 0.19493 0.83443 0.0
H2089 H 0.88874 0.21352 0.80918 0.0
H2090 H 0.93506 0.20816 0.83271 0.0
H2091 H 0.91577 0.18984 0.85824 0.0
C2092 C 0.94293 0.22232 0.77602 0.0
C2093 C 0.94356 0.23845 0.7694 0.0
C2094 C 0.93353 0.21415 0.79237 0.0
C2095 C 0.92443 0.22182 0.80241 0.0
C2096 C 0.92528 0.23812 0.796 0.0
C2097 C 0.93486 0.24644 0.77971 0.0
C2098 C 0.88376 0.19805 0.83451 0.0
C2099 C 0.89093 0.19079 0.84832 0.0
C2100 C 0.89489 0.20869 0.82001 0.0
C2101 C 0.91338 0.21221 0.81892 0.0
C2102 C 0.92076 0.20544 0.83304 0.0
C2103 C 0.90968 0.1949 0.84761 0.0
H2104 H 0.78294 0.65593 0.73993 0.0
H2105 H 0.76279 0.69223 0.75859 0.0
H2106 H 0.80161 0.66339 0.77107 0.0
H2107 H 0.78072 0.699 0.79034 0.0
H2108 H 0.82235 0.71471 0.84385 0.0
H2109 H 0.81 0.7128 0.81033 0.0
H2110 H 0.79461 0.65422 0.80244 0.0
H2111 H 0.80801 0.65654 0.83523 0.0
C2112 C 0.78261 0.66562 0.75072 0.0
C2113 C 0.77128 0.67336 0.74692 0.0
C2114 C 0.79318 0.66978 0.76866 0.0
C2115 C 0.79236 0.68144 0.7835 0.0
C2116 C 0.78181 0.69003 0.7793 0.0
C2117 C 0.77148 0.68613 0.76112 0.0
C2118 C 0.81667 0.70155 0.83481 0.0
C2119 C 0.81609 0.68573 0.84234 0.0
C2120 C 0.80936 0.70038 0.81564 0.0
C2121 C 0.80125 0.68336 0.80356 0.0
C2122 C 0.801 0.66769 0.81108 0.0
C2123 C 0.80842 0.66891 0.8301 0.0
H2124 H 0.74508 0.676 0.63574 0.0
H2125 H 0.75311 0.62931 0.64518 0.0
H2126 H 0.75407 0.67651 0.60258 0.0
H2127 H 0.76282 0.6303 0.6125 0.0
H2128 H 0.76332 0.62378 0.54826 0.0
H2129 H 0.75112 0.62312 0.57953 0.0
H2130 H 0.78035 0.68448 0.58426 0.0
H2131 H 0.7914 0.68506 0.55222 0.0
C2132 C 0.7489 0.66595 0.63079 0.0
C2133 C 0.74831 0.65257 0.64308 0.0
C2134 C 0.75414 0.66628 0.6118 0.0
C2135 C 0.75909 0.65338 0.60474 0.0
C2136 C 0.75867 0.64017 0.61719 0.0
C2137 C 0.75324 0.63969 0.63604 0.0
C2138 C 0.76677 0.63713 0.55567 0.0
C2139 C 0.77843 0.65448 0.54763 0.0
C2140 C 0.76003 0.63677 0.57385 0.0
C2141 C 0.76496 0.65376 0.58465 0.0
C2142 C 0.77614 0.67109 0.57637 0.0
C2143 C 0.78272 0.67144 0.55806 0.0
H2144 H 0.35884 0.08559 0.64696 0.0
H2145 H 0.30101 0.05838 0.62041 0.0
H2146 H 0.37035 0.10436 0.61859 0.0
H2147 H 0.31242 0.0767 0.59244 0.0
H2148 H 0.33722 0.09734 0.53725 0.0
H2149 H 0.33306 0.07875 0.56508 0.0
H2150 H 0.36506 0.13046 0.60302 0.0
H2151 H 0.3691 0.14918 0.57512 0.0
C2152 C 0.34865 0.08354 0.63508 0.0
C2153 C 0.32902 0.07058 0.63596 0.0
C2154 C 0.35522 0.09427 0.61892 0.0
C2155 C 0.34227 0.0918 0.60327 0.0
C2156 C 0.32275 0.07869 0.60415 0.0
C2157 C 0.31621 0.0683 0.62029 0.0
C2158 C 0.34363 0.10477 0.55148 0.0
C2159 C 0.35316 0.12469 0.55407 0.0
C2160 C 0.3413 0.09413 0.56737 0.0
C2161 C 0.34851 0.10319 0.5862 0.0
C2162 C 0.35943 0.12315 0.58863 0.0
C2163 C 0.36173 0.13384 0.57267 0.0
H2164 H 0.94018 0.22858 0.65657 0.0
H2165 H 0.92725 0.2712 0.67347 0.0
H2166 H 0.9236 0.22343 0.62462 0.0
H2167 H 0.91035 0.26577 0.64117 0.0
H2168 H 0.86429 0.22958 0.5865 0.0
H2169 H 0.88021 0.23738 0.61955 0.0
H2170 H 0.93101 0.24507 0.59639 0.0
H2171 H 0.91552 0.23793 0.5635 0.0
C2172 C 0.93369 0.23678 0.65354 0.0
C2173 C 0.93513 0.25038 0.66758 0.0
C2174 C 0.92427 0.23387 0.63518 0.0
C2175 C 0.91586 0.24432 0.63041 0.0
C2176 C 0.91673 0.25753 0.64454 0.0
C2177 C 0.92643 0.26066 0.66295 0.0
C2178 C 0.87896 0.23327 0.58844 0.0
C2179 C 0.88851 0.23281 0.57235 0.0
C2180 C 0.88804 0.2377 0.60735 0.0
C2181 C 0.90673 0.24157 0.61048 0.0
C2182 C 0.91647 0.24179 0.59438 0.0
C2183 C 0.90753 0.23759 0.57556 0.0
H2184 H 0.34872 0.27579 0.65406 0.0
H2185 H 0.39528 0.2697 0.6753 0.0
H2186 H 0.34652 0.25947 0.62292 0.0
H2187 H 0.39256 0.2527 0.64457 0.0
H2188 H 0.39368 0.23641 0.58138 0.0
H2189 H 0.39741 0.25518 0.61124 0.0
H2190 H 0.33619 0.22867 0.60921 0.0
H2191 H 0.33259 0.21101 0.5787 0.0
C2192 C 0.35847 0.27096 0.65208 0.0
C2193 C 0.37215 0.27402 0.66716 0.0
C2194 C 0.35712 0.26146 0.63428 0.0
C2195 C 0.36926 0.25459 0.63122 0.0
C2196 C 0.38315 0.25799 0.64624 0.0
C2197 C 0.38465 0.26768 0.66394 0.0
C2198 C 0.38103 0.23473 0.58719 0.0
C2199 C 0.36283 0.22212 0.5776 0.0
C2200 C 0.38315 0.24535 0.60447 0.0
C2201 C 0.36711 0.2435 0.61269 0.0
C2202 C 0.34891 0.23074 0.60319 0.0
C2203 C 0.34681 0.22029 0.58583 0.0
H2204 H 0.72481 0.11973 0.62273 0.0
H2205 H 0.74415 0.08041 0.61824 0.0
H2206 H 0.74125 0.13462 0.59428 0.0
H2207 H 0.76091 0.09562 0.58994 0.0
H2208 H 0.8104 0.15032 0.56398 0.0
H2209 H 0.79025 0.13076 0.58826 0.0
H2210 H 0.7411 0.12596 0.55689 0.0
H2211 H 0.76098 0.14471 0.53188 0.0
C2212 C 0.73237 0.11413 0.61551 0.0
C2213 C 0.73327 0.09897 0.62274 0.0
C2214 C 0.7417 0.12259 0.59921 0.0
C2215 C 0.7524 0.1163 0.59005 0.0
C2216 C 0.75282 0.10076 0.59686 0.0
C2217 C 0.74315 0.09202 0.61295 0.0
C2218 C 0.79525 0.14478 0.56191 0.0
C2219 C 0.78739 0.14917 0.54587 0.0
C2220 C 0.78373 0.13361 0.5759 0.0
C2221 C 0.76416 0.12684 0.57437 0.0
C2222 C 0.7562 0.13111 0.5584 0.0
C2223 C 0.76765 0.142 0.54419 0.0
H2224 H 0.90092 0.64028 0.6518 0.0
H2225 H 0.88054 0.67649 0.67014 0.0
H2226 H 0.88155 0.63182 0.62081 0.0
H2227 H 0.86042 0.66733 0.63968 0.0
H2228 H 0.85558 0.67368 0.57451 0.0
H2229 H 0.86741 0.67604 0.60801 0.0
H2230 H 0.85178 0.6173 0.60139 0.0
H2231 H 0.84084 0.61533 0.56722 0.0
C2232 C 0.89184 0.64597 0.64942 0.0
C2233 C 0.89247 0.65929 0.6632 0.0
C2234 C 0.88066 0.64106 0.63168 0.0
C2235 C 0.86967 0.64918 0.62753 0.0
C2236 C 0.86914 0.66126 0.64209 0.0
C2237 C 0.88057 0.66642 0.65962 0.0
C2238 C 0.85466 0.66125 0.58018 0.0
C2239 C 0.84759 0.64443 0.56811 0.0
C2240 C 0.86118 0.66249 0.59955 0.0
C2241 C 0.86061 0.64685 0.60751 0.0
C2242 C 0.85268 0.6297 0.59568 0.0
C2243 C 0.84622 0.6285 0.57617 0.0
H2244 H 0.93889 0.71643 0.76945 0.0
H2245 H 0.90852 0.65509 0.76646 0.0
H2246 H 0.93118 0.71728 0.80278 0.0
H2247 H 0.8999 0.6558 0.79956 0.0
H2248 H 0.89856 0.66321 0.86471 0.0
H2249 H 0.9103 0.66324 0.83299 0.0
H2250 H 0.9051 0.71103 0.81972 0.0
H2251 H 0.89423 0.71138 0.85165 0.0
C2252 C 0.93045 0.7031 0.77591 0.0
C2253 C 0.9242 0.68568 0.76531 0.0
C2254 C 0.92592 0.70356 0.79501 0.0
C2255 C 0.91471 0.6866 0.80388 0.0
C2256 C 0.90876 0.66917 0.79334 0.0
C2257 C 0.91359 0.66873 0.77431 0.0
C2258 C 0.90015 0.6738 0.855 0.0
C2259 C 0.89565 0.68738 0.86062 0.0
C2260 C 0.90674 0.67376 0.83679 0.0
C2261 C 0.90866 0.68713 0.8237 0.0
C2262 C 0.90424 0.70078 0.8295 0.0
C2263 C 0.89794 0.70097 0.84779 0.0
H2264 H 0.3674 0.25048 0.76282 0.0
H2265 H 0.32 0.25878 0.76434 0.0
H2266 H 0.35499 0.22859 0.78787 0.0
H2267 H 0.30734 0.23641 0.78978 0.0
H2268 H 0.31303 0.2177 0.85381 0.0
H2269 H 0.31778 0.23579 0.8252 0.0
H2270 H 0.32782 0.19673 0.79249 0.0
H2271 H 0.32335 0.17895 0.82101 0.0
C2272 C 0.35421 0.24753 0.76842 0.0
C2273 C 0.34473 0.25645 0.76161 0.0
C2274 C 0.34699 0.2348 0.7827 0.0
C2275 C 0.33009 0.23064 0.7907 0.0
C2276 C 0.32041 0.23939 0.78386 0.0
C2277 C 0.32759 0.25209 0.76928 0.0
C2278 C 0.31584 0.21281 0.84035 0.0
C2279 C 0.31822 0.19719 0.83968 0.0
C2280 C 0.31849 0.2231 0.82398 0.0
C2281 C 0.32349 0.21785 0.80672 0.0
C2282 C 0.32438 0.20135 0.80571 0.0
C2283 C 0.32185 0.19119 0.82202 0.0
H2284 H 0.74886 0.05737 0.71657 0.0
H2285 H 0.76427 0.11583 0.72632 0.0
H2286 H 0.7702 0.06186 0.74512 0.0
H2287 H 0.78497 0.12011 0.75477 0.0
H2288 H 0.82843 0.12932 0.8 0.0
H2289 H 0.81378 0.12242 0.76663 0.0
H2290 H 0.77047 0.06614 0.78025 0.0
H2291 H 0.78567 0.07293 0.81343 0.0
C2292 C 0.75691 0.0712 0.72466 0.0
C2293 C 0.75476 0.0862 0.71922 0.0
C2294 C 0.76906 0.07374 0.74105 0.0
C2295 C 0.77936 0.09136 0.75224 0.0
C2296 C 0.77759 0.10645 0.74635 0.0
C2297 C 0.76551 0.10392 0.73007 0.0
C2298 C 0.81608 0.11531 0.79563 0.0
C2299 C 0.80805 0.1017 0.80922 0.0
C2300 C 0.8076 0.11138 0.7766 0.0
C2301 C 0.79069 0.09387 0.77087 0.0
C2302 C 0.78352 0.07973 0.78411 0.0
C2303 C 0.79219 0.0836 0.80312 0.0
H2304 H 0.06099 0.40334 0.05953 0.0
H2305 H 0.02075 0.34491 0.03797 0.0
H2306 H 0.08192 0.39383 0.0745 0.0
H2307 H 0.04167 0.33549 0.05295 0.0
H2308 H 0.0727 0.32436 0.1037 0.0
H2309 H 0.05251 0.33393 0.08724 0.0
H2310 H 0.10194 0.3805 0.06492 0.0
H2311 H 0.12211 0.37071 0.08089 0.0
C2312 C 0.05668 0.38851 0.05785 0.0
C2313 C 0.03918 0.37489 0.04759 0.0
C2314 C 0.06869 0.38309 0.06638 0.0
C2315 C 0.06336 0.3639 0.065 0.0
C2316 C 0.04603 0.35034 0.05446 0.0
C2317 C 0.03412 0.35578 0.04577 0.0
C2318 C 0.07927 0.33651 0.09511 0.0
C2319 C 0.09908 0.34677 0.09371 0.0
C2320 C 0.06769 0.34201 0.08571 0.0
C2321 C 0.07566 0.35798 0.07481 0.0
C2322 C 0.09543 0.36828 0.07343 0.0
C2323 C 0.10699 0.36269 0.08267 0.0
H2324 H 0.65315 0.68534 0.04611 0.0
H2325 H 0.63458 0.6588 0.09972 0.0
H2326 H 0.65954 0.71533 0.06164 0.0
H2327 H 0.64156 0.6889 0.11543 0.0
H2328 H 0.63655 0.73998 0.13136 0.0
H2329 H 0.63033 0.71009 0.11597 0.0
H2330 H 0.68089 0.74069 0.08538 0.0
H2331 H 0.68649 0.7707 0.09994 0.0
C2332 C 0.65051 0.68592 0.06123 0.0
C2333 C 0.64329 0.66966 0.07164 0.0
C2334 C 0.65432 0.70317 0.0702 0.0
C2335 C 0.65112 0.70459 0.08983 0.0
C2336 C 0.64392 0.68829 0.10022 0.0
C2337 C 0.63999 0.67102 0.09122 0.0
C2338 C 0.64626 0.74036 0.12122 0.0
C2339 C 0.66195 0.75779 0.1168 0.0
C2340 C 0.64283 0.72317 0.11257 0.0
C2341 C 0.65508 0.72293 0.09937 0.0
C2342 C 0.67099 0.74034 0.09524 0.0
C2343 C 0.67437 0.75755 0.10382 0.0
H2344 H 0.33532 0.9835 0.04304 0.0
H2345 H 0.32735 0.92755 0.04274 0.0
H2346 H 0.30535 0.97172 0.05793 0.0
H2347 H 0.29745 0.91586 0.05736 0.0
H2348 H 0.26288 0.91015 0.10844 0.0
H2349 H 0.29085 0.92223 0.09044 0.0
H2350 H 0.26956 0.94883 0.05304 0.0
H2351 H 0.24114 0.93644 0.07108 0.0
C2352 C 0.32706 0.96864 0.04586 0.0
C2353 C 0.33386 0.95652 0.04192 0.0
C2354 C 0.30987 0.9619 0.05433 0.0
C2355 C 0.29922 0.94295 0.05906 0.0
C2356 C 0.30556 0.93064 0.05422 0.0
C2357 C 0.32266 0.93733 0.04575 0.0
C2358 C 0.264 0.9184 0.09626 0.0
C2359 C 0.24962 0.92206 0.09098 0.0
C2360 C 0.28005 0.92532 0.08594 0.0
C2361 C 0.28223 0.93619 0.07012 0.0
C2362 C 0.26821 0.94046 0.06517 0.0
C2363 C 0.25201 0.93342 0.07551 0.0
H2364 H 0.37005 0.04779 0.0544 0.0
H2365 H 0.38682 0.04315 0.99723 0.0
H2366 H 0.35874 0.06794 0.0425 0.0
H2367 H 0.37543 0.0631 0.98546 0.0
H2368 H 0.3292 0.07536 0.96629 0.0
H2369 H 0.34182 0.05719 0.98038 0.0
H2370 H 0.37122 0.10057 0.02808 0.0
H2371 H 0.35851 0.11885 0.01393 0.0
C2372 C 0.37154 0.05124 0.0394 0.0
C2373 C 0.37923 0.04376 0.02674 0.0
C2374 C 0.36509 0.06279 0.03262 0.0
C2375 C 0.366 0.06685 0.01302 0.0
C2376 C 0.3743 0.05994 0.00058 0.0
C2377 C 0.38095 0.04862 0.00738 0.0
C2378 C 0.33809 0.08087 0.97995 0.0
C2379 C 0.34279 0.09845 0.98909 0.0
C2380 C 0.3455 0.07059 0.98788 0.0
C2381 C 0.35762 0.07757 0.00522 0.0
C2382 C 0.36188 0.09487 0.01471 0.0
C2383 C 0.35467 0.10533 0.00661 0.0
H2384 H 0.96369 0.31278 0.00233 0.0
H2385 H 0.91187 0.31372 0.9954 0.0
H2386 H 0.94662 0.28024 0.98727 0.0
H2387 H 0.89479 0.28114 0.98076 0.0
H2388 H 0.87597 0.23283 0.9345 0.0
H2389 H 0.89406 0.26498 0.95031 0.0
H2390 H 0.92171 0.24747 0.99193 0.0
H2391 H 0.90361 0.21519 0.97593 0.0
C2392 C 0.94862 0.30599 0.99781 0.0
C2393 C 0.93918 0.31591 0.99995 0.0
C2394 C 0.93883 0.28732 0.98924 0.0
C2395 C 0.9194 0.27818 0.98263 0.0
C2396 C 0.90986 0.28791 0.98532 0.0
C2397 C 0.91962 0.30656 0.99386 0.0
C2398 C 0.88589 0.23584 0.94704 0.0
C2399 C 0.88826 0.22147 0.95408 0.0
C2400 C 0.89621 0.25424 0.95615 0.0
C2401 C 0.90913 0.25873 0.97255 0.0
C2402 C 0.91194 0.24449 0.97926 0.0
C2403 C 0.90161 0.22603 0.9701 0.0
H2404 H 0.68855 0.64969 0.0479 0.0
H2405 H 0.68848 0.5977 0.05183 0.0
H2406 H 0.72052 0.66515 0.03665 0.0
H2407 H 0.72037 0.6132 0.04095 0.0
H2408 H 0.75722 0.63485 0.99005 0.0
H2409 H 0.72911 0.62263 0.00773 0.0
H2410 H 0.75552 0.67577 0.04346 0.0
H2411 H 0.78416 0.68809 0.02577 0.0
C2412 C 0.69554 0.64173 0.04688 0.0
C2413 C 0.68586 0.62237 0.05038 0.0
C2414 C 0.71385 0.6506 0.04047 0.0
C2415 C 0.72273 0.64024 0.03755 0.0
C2416 C 0.71367 0.62139 0.04265 0.0
C2417 C 0.69542 0.61253 0.04894 0.0
C2418 C 0.75726 0.64387 0.00189 0.0
C2419 C 0.77309 0.66233 0.00672 0.0
C2420 C 0.74111 0.63686 0.01203 0.0
C2421 C 0.74026 0.64812 0.02722 0.0
C2422 C 0.75585 0.66677 0.03185 0.0
C2423 C 0.77218 0.67381 0.0217 0.0
H2424 H 0.98636 0.67427 0.05514 0.0
H2425 H 0.96455 0.62217 0.01855 0.0
H2426 H 0.96524 0.68125 0.03625 0.0
H2427 H 0.94341 0.62923 0.99966 0.0
H2428 H 0.89544 0.64111 0.98363 0.0
H2429 H 0.91523 0.63283 0.00298 0.0
H2430 H 0.96351 0.69006 0.00211 0.0
H2431 H 0.9439 0.6983 0.98228 0.0
C2432 C 0.9769 0.66417 0.04323 0.0
C2433 C 0.97719 0.64767 0.03833 0.0
C2434 C 0.96493 0.66828 0.0323 0.0
C2435 C 0.95283 0.65589 0.01635 0.0
C2436 C 0.95255 0.63902 0.01191 0.0
C2437 C 0.96467 0.63499 0.02272 0.0
C2438 C 0.91036 0.65187 0.98721 0.0
C2439 C 0.91807 0.67038 0.98127 0.0
C2440 C 0.92166 0.64712 0.99841 0.0
C2441 C 0.94088 0.66081 0.00415 0.0
C2442 C 0.94865 0.67928 0.99816 0.0
C2443 C 0.9374 0.68399 0.98679 0.0
H2444 H 0.36759 0.3231 0.01984 0.0
H2445 H 0.35928 0.33906 0.96308 0.0
H2446 H 0.3587 0.29187 0.00541 0.0
H2447 H 0.34974 0.30762 0.94873 0.0
H2448 H 0.352 0.2562 0.9265 0.0
H2449 H 0.36151 0.28768 0.94067 0.0
H2450 H 0.33187 0.26281 0.9912 0.0
H2451 H 0.32338 0.23153 0.97758 0.0
C2452 C 0.36379 0.31991 0.00429 0.0
C2453 C 0.36417 0.33359 0.99262 0.0
C2454 C 0.35854 0.30194 0.99602 0.0
C2455 C 0.35339 0.29713 0.97589 0.0
C2456 C 0.35386 0.31087 0.96423 0.0
C2457 C 0.35925 0.3289 0.97248 0.0
C2458 C 0.34764 0.25746 0.94071 0.0
C2459 C 0.33694 0.24128 0.95088 0.0
C2460 C 0.35291 0.27552 0.94875 0.0
C2461 C 0.34751 0.27786 0.96713 0.0
C2462 C 0.33655 0.26163 0.97716 0.0
C2463 C 0.33139 0.2436 0.96918 0.0
H2464 H 0.66536 0.01402 0.02087 0.0
H2465 H 0.68446 0.07355 0.03059 0.0
H2466 H 0.69457 0.02263 0.00587 0.0
H2467 H 0.71374 0.08207 0.01564 0.0
H2468 H 0.77006 0.09117 0.99794 0.0
H2469 H 0.74394 0.08028 0.01905 0.0
H2470 H 0.70542 0.03741 0.97374 0.0
H2471 H 0.73144 0.04838 0.95269 0.0
C2472 C 0.67591 0.02895 0.02011 0.0
C2473 C 0.67249 0.04311 0.02674 0.0
C2474 C 0.6926 0.03384 0.01147 0.0
C2475 C 0.70633 0.05298 0.00952 0.0
C2476 C 0.70343 0.0672 0.01709 0.0
C2477 C 0.68662 0.06231 0.02554 0.0
C2478 C 0.75609 0.07914 0.99274 0.0
C2479 C 0.75267 0.07057 0.97376 0.0
C2480 C 0.74117 0.07302 0.00472 0.0
C2481 C 0.72269 0.05806 0.99799 0.0
C2482 C 0.71956 0.04887 0.97936 0.0
C2483 C 0.73438 0.05517 0.9673 0.0
H2484 H 0.62672 0.95939 0.03879 0.0
H2485 H 0.58507 0.93917 0.08113 0.0
H2486 H 0.63572 0.93689 0.04804 0.0
H2487 H 0.59426 0.91678 0.09049 0.0
H2488 H 0.60722 0.86991 0.09431 0.0
H2489 H 0.59514 0.88833 0.0796 0.0
H2490 H 0.65293 0.93546 0.07765 0.0
H2491 H 0.665 0.91724 0.09255 0.0
C2492 C 0.6193 0.94998 0.0499 0.0
C2493 C 0.6053 0.95122 0.05937 0.0
C2494 C 0.62455 0.93716 0.05526 0.0
C2495 C 0.61586 0.92522 0.07013 0.0
C2496 C 0.60114 0.92572 0.07888 0.0
C2497 C 0.59592 0.93861 0.07357 0.0
C2498 C 0.61735 0.8842 0.09072 0.0
C2499 C 0.63709 0.89214 0.09472 0.0
C2500 C 0.61042 0.89472 0.08227 0.0
C2501 C 0.62307 0.91335 0.07751 0.0
C2502 C 0.64281 0.92103 0.08088 0.0
C2503 C 0.64973 0.91057 0.08941 0.0
H2504 H 0.03911 0.69386 0.05739 0.0
H2505 H 0.09003 0.69698 0.08204 0.0
H2506 H 0.05085 0.72589 0.07253 0.0
H2507 H 0.1014 0.72861 0.09731 0.0
H2508 H 0.10125 0.77089 0.14181 0.0
H2509 H 0.08624 0.73924 0.12493 0.0
H2510 H 0.08269 0.7618 0.07077 0.0
H2511 H 0.09847 0.79378 0.08745 0.0
C2512 C 0.05283 0.70141 0.06589 0.0
C2513 C 0.06363 0.69288 0.06856 0.0
C2514 C 0.0595 0.71968 0.07451 0.0
C2515 C 0.07687 0.7295 0.08622 0.0
C2516 C 0.08784 0.72118 0.08851 0.0
C2517 C 0.08138 0.70313 0.07964 0.0
C2518 C 0.09722 0.76914 0.12632 0.0
C2519 C 0.10137 0.78493 0.11593 0.0
C2520 C 0.08858 0.75103 0.11671 0.0
C2521 C 0.0836 0.74823 0.09657 0.0
C2522 C 0.08643 0.76367 0.08634 0.0
C2523 C 0.09535 0.78192 0.09593 0.0
H2524 H 0.31469 0.35497 0.01098 0.0
H2525 H 0.32804 0.40829 0.04028 0.0
H2526 H 0.28439 0.33857 0.02606 0.0
H2527 H 0.2982 0.39186 0.05538 0.0
H2528 H 0.26071 0.35191 0.09959 0.0
H2529 H 0.28846 0.36453 0.081 0.0
H2530 H 0.25172 0.34172 0.0275 0.0
H2531 H 0.22365 0.32958 0.04608 0.0
C2532 C 0.3111 0.36321 0.02041 0.0
C2533 C 0.32385 0.38293 0.02451 0.0
C2534 C 0.2938 0.35382 0.02897 0.0
C2535 C 0.28919 0.36399 0.04198 0.0
C2536 C 0.30158 0.38373 0.04552 0.0
C2537 C 0.31863 0.39311 0.0368 0.0
C2538 C 0.25846 0.34958 0.08387 0.0
C2539 C 0.23996 0.34009 0.07431 0.0
C2540 C 0.27435 0.3567 0.07327 0.0
C2541 C 0.27214 0.35424 0.05288 0.0
C2542 C 0.25371 0.34375 0.04324 0.0
C2543 C 0.2377 0.33678 0.05389 0.0
H2544 H 0.72464 0.73631 0.40299 0.0
H2545 H 0.69159 0.68142 0.37025 0.0
H2546 H 0.74469 0.72627 0.41897 0.0
H2547 H 0.71168 0.67151 0.38612 0.0
H2548 H 0.73644 0.65311 0.43535 0.0
H2549 H 0.71728 0.66405 0.41932 0.0
H2550 H 0.76849 0.71755 0.41153 0.0
H2551 H 0.78773 0.70654 0.42727 0.0
C2552 C 0.72174 0.72218 0.39909 0.0
C2553 C 0.70647 0.70966 0.38538 0.0
C2554 C 0.73326 0.71645 0.40821 0.0
C2555 C 0.72967 0.69805 0.40391 0.0
C2556 C 0.71462 0.68567 0.38996 0.0
C2557 C 0.7032 0.69142 0.38076 0.0
C2558 C 0.74365 0.66716 0.43011 0.0
C2559 C 0.76364 0.67891 0.43258 0.0
C2560 C 0.73266 0.67343 0.42093 0.0
C2561 C 0.74139 0.69163 0.41408 0.0
C2562 C 0.76134 0.70353 0.41683 0.0
C2563 C 0.77235 0.69722 0.42592 0.0
H2564 H 0.31915 0.01253 0.38111 0.0
H2565 H 0.30269 0.9891 0.43649 0.0
H2566 H 0.32658 0.04338 0.39528 0.0
H2567 H 0.31057 0.02005 0.45076 0.0
H2568 H 0.30453 0.07139 0.46277 0.0
H2569 H 0.2985 0.04088 0.44936 0.0
H2570 H 0.34887 0.06986 0.41823 0.0
H2571 H 0.35443 0.10046 0.431 0.0
C2572 C 0.31723 0.01398 0.39634 0.0
C2573 C 0.31023 0.99832 0.40763 0.0
C2574 C 0.32162 0.03172 0.4045 0.0
C2575 C 0.31916 0.03421 0.42416 0.0
C2576 C 0.31237 0.01857 0.4355 0.0
C2577 C 0.30793 0.00084 0.42733 0.0
C2578 C 0.31427 0.07126 0.45297 0.0
C2579 C 0.32989 0.08837 0.44785 0.0
C2580 C 0.31094 0.05375 0.44546 0.0
C2581 C 0.32318 0.0529 0.43268 0.0
C2582 C 0.33902 0.07001 0.42784 0.0
C2583 C 0.34235 0.08755 0.43535 0.0
H2584 H 0.0186 0.27556 0.39847 0.0
H2585 H 0.00703 0.30867 0.35984 0.0
H2586 H 0.98675 0.26118 0.40886 0.0
H2587 H 0.97437 0.29316 0.36904 0.0
H2588 H 0.9232 0.27574 0.40427 0.0
H2589 H 0.95468 0.29063 0.39266 0.0
H2590 H 0.95546 0.23952 0.40073 0.0
H2591 H 0.9255 0.22574 0.41462 0.0
C2592 C 0.00903 0.27945 0.3919 0.0
C2593 C 0.01523 0.29314 0.3783 0.0
C2594 C 0.99062 0.27107 0.39772 0.0
C2595 C 0.97767 0.27572 0.38965 0.0
C2596 C 0.98391 0.28935 0.37583 0.0
C2597 C 0.00258 0.29815 0.37041 0.0
C2598 C 0.93018 0.26776 0.4039 0.0
C2599 C 0.92156 0.24946 0.41063 0.0
C2600 C 0.94821 0.27622 0.39686 0.0
C2601 C 0.95792 0.26645 0.39591 0.0
C2602 C 0.94885 0.24783 0.40172 0.0
C2603 C 0.93119 0.23964 0.40929 0.0
H2604 H 0.07304 0.38692 0.33737 0.0
H2605 H 0.04683 0.38487 0.3904 0.0
H2606 H 0.06636 0.41049 0.32645 0.0
H2607 H 0.04063 0.40902 0.37968 0.0
H2608 H 0.01101 0.43267 0.34143 0.0
H2609 H 0.02008 0.41184 0.35583 0.0
H2610 H 0.0745 0.44249 0.3317 0.0
H2611 H 0.06501 0.46246 0.31634 0.0
C2612 C 0.06611 0.39172 0.34686 0.0
C2613 C 0.06041 0.38394 0.36474 0.0
C2614 C 0.06237 0.40536 0.34063 0.0
C2615 C 0.05294 0.4117 0.35217 0.0
C2616 C 0.04767 0.40428 0.3703 0.0
C2617 C 0.05135 0.39053 0.37651 0.0
C2618 C 0.0249 0.43494 0.33917 0.0
C2619 C 0.0372 0.4492 0.3276 0.0
C2620 C 0.03021 0.42314 0.34765 0.0
C2621 C 0.04799 0.42538 0.34482 0.0
C2622 C 0.06058 0.44014 0.33392 0.0
C2623 C 0.05522 0.45182 0.32534 0.0
H2624 H 0.58862 0.6537 0.3106 0.0
H2625 H 0.63158 0.6465 0.3404 0.0
H2626 H 0.57259 0.62109 0.29607 0.0
H2627 H 0.6154 0.61375 0.32579 0.0
H2628 H 0.56468 0.54984 0.3129 0.0
H2629 H 0.58365 0.58264 0.32732 0.0
H2630 H 0.57992 0.60278 0.27158 0.0
H2631 H 0.56134 0.57009 0.25702 0.0
C2632 C 0.59462 0.64515 0.31411 0.0
C2633 C 0.61139 0.65271 0.32665 0.0
C2634 C 0.58551 0.62652 0.30566 0.0
C2635 C 0.59285 0.61496 0.30969 0.0
C2636 C 0.60943 0.62236 0.32248 0.0
C2637 C 0.61868 0.6411 0.33079 0.0
C2638 C 0.56828 0.56127 0.30361 0.0
C2639 C 0.56135 0.55733 0.28383 0.0
C2640 C 0.57908 0.58004 0.3119 0.0
C2641 C 0.58303 0.59521 0.30061 0.0
C2642 C 0.57676 0.59132 0.2807 0.0
C2643 C 0.56612 0.57261 0.27238 0.0
H2644 H 0.35216 0.97088 0.38503 0.0
H2645 H 0.33307 0.9164 0.35434 0.0
H2646 H 0.3819 0.98497 0.36905 0.0
H2647 H 0.36248 0.93053 0.33844 0.0
H2648 H 0.40287 0.96788 0.29484 0.0
H2649 H 0.37512 0.95607 0.31329 0.0
H2650 H 0.41184 0.98082 0.36668 0.0
H2651 H 0.43986 0.99218 0.34829 0.0
C2652 C 0.35435 0.96189 0.37505 0.0
C2653 C 0.34019 0.94254 0.37088 0.0
C2654 C 0.37136 0.96995 0.36597 0.0
C2655 C 0.37431 0.95884 0.35239 0.0
C2656 C 0.36041 0.93944 0.34867 0.0
C2657 C 0.34361 0.93135 0.35788 0.0
C2658 C 0.40511 0.97071 0.31052 0.0
C2659 C 0.42362 0.98069 0.3201 0.0
C2660 C 0.3892 0.96402 0.32105 0.0
C2661 C 0.39139 0.96737 0.34139 0.0
C2662 C 0.40983 0.9781 0.35099 0.0
C2663 C 0.42583 0.98463 0.34044 0.0
H2664 H 0.6266 0.98264 0.38972 0.0
H2665 H 0.63614 0.95704 0.33932 0.0
H2666 H 0.60531 0.98838 0.36942 0.0
H2667 H 0.61548 0.9634 0.3189 0.0
H2668 H 0.56352 0.96172 0.29046 0.0
H2669 H 0.58358 0.95468 0.31097 0.0
H2670 H 0.60604 0.00818 0.3452 0.0
H2671 H 0.58507 0.01463 0.32546 0.0
C2672 C 0.62415 0.97823 0.3743 0.0
C2673 C 0.63307 0.96937 0.36616 0.0
C2674 C 0.61207 0.98168 0.36261 0.0
C2675 C 0.60875 0.97651 0.34244 0.0
C2676 C 0.61746 0.96737 0.33438 0.0
C2677 C 0.62939 0.96377 0.34611 0.0
C2678 C 0.57261 0.97192 0.30246 0.0
C2679 C 0.57258 0.98872 0.3063 0.0
C2680 C 0.58431 0.96798 0.31411 0.0
C2681 C 0.59643 0.98081 0.32985 0.0
C2682 C 0.59668 0.99779 0.33344 0.0
C2683 C 0.58486 0.00167 0.32188 0.0
H2684 H 0.0325 0.67948 0.30371 0.0
H2685 H 0.04046 0.66384 0.36077 0.0
H2686 H 0.02832 0.65018 0.28903 0.0
H2687 H 0.03701 0.63481 0.34603 0.0
H2688 H 0.00838 0.57517 0.3161 0.0
H2689 H 0.01322 0.60485 0.3304 0.0
H2690 H 0.04396 0.63376 0.28183 0.0
H2691 H 0.03802 0.60377 0.26688 0.0
C2692 C 0.03362 0.6699 0.31312 0.0
C2693 C 0.03674 0.67396 0.33343 0.0
C2694 C 0.03132 0.6531 0.30468 0.0
C2695 C 0.03225 0.64002 0.31632 0.0
C2696 C 0.03582 0.64434 0.33662 0.0
C2697 C 0.03795 0.66107 0.34508 0.0
C2698 C 0.01589 0.58777 0.30827 0.0
C2699 C 0.02268 0.58699 0.29024 0.0
C2700 C 0.01896 0.60491 0.31666 0.0
C2701 C 0.02908 0.62179 0.30736 0.0
C2702 C 0.03592 0.62103 0.28934 0.0
C2703 C 0.03271 0.60384 0.28086 0.0
H2704 H 0.32758 0.3493 0.35925 0.0
H2705 H 0.33192 0.40333 0.35472 0.0
H2706 H 0.35937 0.36271 0.34826 0.0
H2707 H 0.36356 0.4166 0.34352 0.0
H2708 H 0.42564 0.43985 0.33774 0.0
H2709 H 0.39634 0.42557 0.35411 0.0
H2710 H 0.37367 0.37346 0.31734 0.0
H2711 H 0.40295 0.38776 0.30095 0.0
C2712 C 0.33534 0.36406 0.35603 0.0
C2713 C 0.32717 0.37523 0.35777 0.0
C2714 C 0.35352 0.3717 0.34966 0.0
C2715 C 0.36395 0.39068 0.34501 0.0
C2716 C 0.35598 0.40198 0.34723 0.0
C2717 C 0.33778 0.39434 0.35352 0.0
C2718 C 0.41445 0.42528 0.33329 0.0
C2719 C 0.41649 0.41497 0.31794 0.0
C2720 C 0.39769 0.41713 0.34264 0.0
C2721 C 0.38263 0.39849 0.33685 0.0
C2722 C 0.38509 0.38782 0.32223 0.0
C2723 C 0.40187 0.39598 0.31286 0.0
H2724 H 0.29118 0.29118 0.37149 0.0
H2725 H 0.24723 0.26505 0.41102 0.0
H2726 H 0.30211 0.26991 0.37975 0.0
H2727 H 0.25836 0.24394 0.41943 0.0
H2728 H 0.27463 0.19948 0.42042 0.0
H2729 H 0.26168 0.21759 0.40684 0.0
H2730 H 0.31864 0.26712 0.40893 0.0
H2731 H 0.33157 0.24912 0.42264 0.0
C2732 C 0.28372 0.28078 0.38181 0.0
C2733 C 0.26841 0.27992 0.39071 0.0
C2734 C 0.29007 0.26867 0.3866 0.0
C2735 C 0.28121 0.25536 0.40035 0.0
C2736 C 0.2654 0.25394 0.40866 0.0
C2737 C 0.25907 0.26611 0.4039 0.0
C2738 C 0.28439 0.21423 0.41792 0.0
C2739 C 0.30413 0.22289 0.42273 0.0
C2740 C 0.27697 0.22458 0.41014 0.0
C2741 C 0.28912 0.2438 0.40691 0.0
C2742 C 0.30891 0.25226 0.41102 0.0
C2743 C 0.31634 0.24193 0.41885 0.0
H2744 H 0.69683 0.01961 0.39259 0.0
H2745 H 0.74596 0.02159 0.42083 0.0
H2746 H 0.71006 0.05287 0.40483 0.0
H2747 H 0.75879 0.05436 0.43308 0.0
H2748 H 0.76534 0.10239 0.47116 0.0
H2749 H 0.74624 0.06924 0.45799 0.0
H2750 H 0.74245 0.08709 0.40097 0.0
H2751 H 0.7619 0.1205 0.41414 0.0
C2752 C 0.71043 0.02712 0.40129 0.0
C2753 C 0.72032 0.01794 0.40578 0.0
C2754 C 0.71796 0.0461 0.40826 0.0
C2755 C 0.73526 0.05599 0.4201 0.0
C2756 C 0.74525 0.04692 0.42423 0.0
C2757 C 0.73795 0.02818 0.41708 0.0
C2758 C 0.76011 0.09924 0.45589 0.0
C2759 C 0.76534 0.11397 0.44359 0.0
C2760 C 0.74922 0.08031 0.44838 0.0
C2761 C 0.74322 0.07571 0.42844 0.0
C2762 C 0.74695 0.09033 0.4164 0.0
C2763 C 0.758 0.10939 0.42394 0.0
H2764 H 0.9662 0.72276 0.34683 0.0
H2765 H 0.98116 0.68101 0.35801 0.0
H2766 H 0.93488 0.70203 0.35814 0.0
H2767 H 0.94975 0.66029 0.36949 0.0
H2768 H 0.87678 0.6585 0.37402 0.0
H2769 H 0.90339 0.66989 0.35343 0.0
H2770 H 0.9379 0.66664 0.40059 0.0
H2771 H 0.91146 0.65551 0.42106 0.0
C2772 C 0.96263 0.70897 0.35129 0.0
C2773 C 0.97622 0.70362 0.35176 0.0
C2774 C 0.94464 0.69703 0.35763 0.0
C2775 C 0.93995 0.67961 0.3648 0.0
C2776 C 0.95307 0.6737 0.36412 0.0
C2777 C 0.971 0.68554 0.35749 0.0
C2778 C 0.8899 0.65973 0.37969 0.0
C2779 C 0.89222 0.65624 0.39905 0.0
C2780 C 0.90511 0.66631 0.368 0.0
C2781 C 0.9227 0.66918 0.37544 0.0
C2782 C 0.92446 0.66436 0.39438 0.0
C2783 C 0.9094 0.6581 0.40613 0.0
H2784 H 0.37822 0.02019 0.6783 0.0
H2785 H 0.36576 0.04074 0.73051 0.0
H2786 H 0.40032 0.01478 0.69781 0.0
H2787 H 0.38771 0.03519 0.74991 0.0
H2788 H 0.40976 0.99954 0.77832 0.0
H2789 H 0.38834 0.00574 0.7585 0.0
H2790 H 0.43185 0.03431 0.7191 0.0
H2791 H 0.4532 0.02812 0.73888 0.0
C2792 C 0.38029 0.02368 0.69389 0.0
C2793 C 0.37023 0.0309 0.70284 0.0
C2794 C 0.39295 0.0206 0.70504 0.0
C2795 C 0.3956 0.02444 0.72537 0.0
C2796 C 0.38576 0.0319 0.73429 0.0
C2797 C 0.37331 0.03521 0.72314 0.0
C2798 C 0.41467 0.0071 0.7654 0.0
C2799 C 0.43314 0.01346 0.76018 0.0
C2800 C 0.4025 0.01075 0.75415 0.0
C2801 C 0.40848 0.02055 0.73731 0.0
C2802 C 0.42685 0.02666 0.73195 0.0
C2803 C 0.4391 0.02325 0.74334 0.0
H2804 H 0.92848 0.31239 0.74643 0.0
H2805 H 0.98927 0.3382 0.74431 0.0
H2806 H 0.93379 0.34278 0.75969 0.0
H2807 H 0.9945 0.36851 0.75741 0.0
H2808 H 0.99711 0.41298 0.80182 0.0
H2809 H 0.99149 0.38252 0.78852 0.0
H2810 H 0.94516 0.37523 0.74929 0.0
H2811 H 0.95095 0.4058 0.7623 0.0
C2812 C 0.94295 0.32454 0.74871 0.0
C2813 C 0.95844 0.32285 0.74431 0.0
C2814 C 0.94598 0.34196 0.75623 0.0
C2815 C 0.96457 0.35801 0.75966 0.0
C2816 C 0.98003 0.35633 0.75517 0.0
C2817 C 0.977 0.33898 0.74753 0.0
C2818 C 0.98584 0.40498 0.79024 0.0
C2819 C 0.97448 0.41187 0.78316 0.0
C2820 C 0.9826 0.38751 0.78264 0.0
C2821 C 0.96788 0.37648 0.76786 0.0
C2822 C 0.95644 0.38328 0.76086 0.0
C2823 C 0.95975 0.40079 0.76837 0.0
H2824 H 0.66887 0.59853 0.71016 0.0
H2825 H 0.67688 0.65443 0.70919 0.0
H2826 H 0.63666 0.58591 0.7195 0.0
H2827 H 0.6445 0.64168 0.71827 0.0
H2828 H 0.57475 0.56498 0.72275 0.0
H2829 H 0.60496 0.57907 0.70801 0.0
H2830 H 0.62798 0.62946 0.74761 0.0
H2831 H 0.59781 0.61539 0.76232 0.0
C2832 C 0.6637 0.60809 0.71172 0.0
C2833 C 0.67551 0.62751 0.70904 0.0
C2834 C 0.64517 0.60082 0.71694 0.0
C2835 C 0.63802 0.61281 0.71963 0.0
C2836 C 0.64966 0.63214 0.7165 0.0
C2837 C 0.66819 0.6394 0.71122 0.0
C2838 C 0.58622 0.57915 0.72816 0.0
C2839 C 0.58396 0.58902 0.74379 0.0
C2840 C 0.60351 0.58719 0.71975 0.0
C2841 C 0.61892 0.60528 0.72679 0.0
C2842 C 0.61633 0.61557 0.74173 0.0
C2843 C 0.59902 0.60752 0.75014 0.0
H2844 H 0.71229 0.71956 0.72448 0.0
H2845 H 0.73063 0.71499 0.66817 0.0
H2846 H 0.70151 0.73989 0.71186 0.0
H2847 H 0.71973 0.73511 0.65567 0.0
H2848 H 0.6735 0.74714 0.63492 0.0
H2849 H 0.68612 0.72917 0.64955 0.0
H2850 H 0.71458 0.77264 0.6973 0.0
H2851 H 0.70191 0.79074 0.68257 0.0
C2852 C 0.71425 0.72307 0.70951 0.0
C2853 C 0.72222 0.71555 0.6973 0.0
C2854 C 0.7081 0.73473 0.70233 0.0
C2855 C 0.70959 0.73886 0.68275 0.0
C2856 C 0.71818 0.73192 0.67076 0.0
C2857 C 0.72453 0.7205 0.67798 0.0
C2858 C 0.68223 0.75273 0.64868 0.0
C2859 C 0.68664 0.77027 0.65769 0.0
C2860 C 0.68962 0.74256 0.65693 0.0
C2861 C 0.70143 0.74959 0.67447 0.0
C2862 C 0.70549 0.7669 0.68378 0.0
C2863 C 0.6983 0.77725 0.67535 0.0
H2864 H 0.30266 0.9772 0.68478 0.0
H2865 H 0.26039 0.97731 0.64511 0.0
H2866 H 0.29008 0.94379 0.6736 0.0
H2867 H 0.24835 0.94436 0.63369 0.0
H2868 H 0.2441 0.89234 0.60429 0.0
H2869 H 0.26392 0.92616 0.61577 0.0
H2870 H 0.25352 0.91178 0.67501 0.0
H2871 H 0.23331 0.878 0.66344 0.0
C2872 C 0.29079 0.97013 0.67365 0.0
C2873 C 0.28239 0.97978 0.66592 0.0
C2874 C 0.28367 0.95111 0.66726 0.0
C2875 C 0.26845 0.94171 0.65267 0.0
C2876 C 0.26027 0.95144 0.64479 0.0
C2877 C 0.26704 0.97021 0.65147 0.0
C2878 C 0.24665 0.89642 0.61979 0.0
C2879 C 0.23738 0.88274 0.63305 0.0
C2880 C 0.25784 0.91569 0.62632 0.0
C2881 C 0.26013 0.92145 0.64623 0.0
C2882 C 0.25207 0.90762 0.65962 0.0
C2883 C 0.24057 0.88838 0.65304 0.0
H2884 H 0.02724 0.31929 0.71508 0.0
H2885 H 0.03049 0.26883 0.71367 0.0
H2886 H 0.06011 0.33782 0.70645 0.0
H2887 H 0.063 0.28718 0.70481 0.0
H2888 H 0.12428 0.32437 0.69758 0.0
H2889 H 0.09569 0.31226 0.71495 0.0
H2890 H 0.07514 0.3388 0.67647 0.0
H2891 H 0.1038 0.35104 0.65927 0.0
C2892 C 0.03503 0.31221 0.71322 0.0
C2893 C 0.02618 0.29254 0.71488 0.0
C2894 C 0.05382 0.32281 0.70818 0.0
C2895 C 0.06414 0.31397 0.70486 0.0
C2896 C 0.05557 0.29451 0.7075 0.0
C2897 C 0.03683 0.28393 0.71243 0.0
C2898 C 0.11377 0.32786 0.69307 0.0
C2899 C 0.11613 0.33844 0.67694 0.0
C2900 C 0.09741 0.32091 0.70298 0.0
C2901 C 0.08303 0.32433 0.69692 0.0
C2902 C 0.08602 0.33604 0.68163 0.0
C2903 C 0.10243 0.34304 0.67175 0.0
H2904 H 0.29968 0.28546 0.68066 0.0
H2905 H 0.31936 0.33552 0.71983 0.0
H2906 H 0.27866 0.29279 0.66209 0.0
H2907 H 0.29906 0.34329 0.70092 0.0
H2908 H 0.24876 0.34424 0.67335 0.0
H2909 H 0.26749 0.33479 0.69272 0.0
H2910 H 0.27949 0.31437 0.64006 0.0
H2911 H 0.26008 0.32327 0.62078 0.0
C2912 C 0.29949 0.298 0.68533 0.0
C2913 C 0.31118 0.30987 0.70175 0.0
C2914 C 0.28756 0.30232 0.67458 0.0
C2915 C 0.28718 0.31871 0.67988 0.0
C2916 C 0.29869 0.33039 0.69652 0.0
C2917 C 0.31043 0.32596 0.70736 0.0
C2918 C 0.25554 0.33786 0.66594 0.0
C2919 C 0.25316 0.33466 0.64556 0.0
C2920 C 0.26631 0.33244 0.67703 0.0
C2921 C 0.27515 0.32388 0.66801 0.0
C2922 C 0.27268 0.32064 0.64757 0.0
C2923 C 0.26169 0.32586 0.63648 0.0
H2924 H 0.70567 0.99312 0.68817 0.0
H2925 H 0.69159 0.00623 0.63216 0.0
H2926 H 0.69708 0.96186 0.67413 0.0
H2927 H 0.68238 0.97475 0.61825 0.0
H2928 H 0.6868 0.9248 0.59515 0.0
H2929 H 0.69531 0.95609 0.60895 0.0
H2930 H 0.67035 0.93179 0.66171 0.0
H2931 H 0.66287 0.90075 0.64837 0.0
C2932 C 0.70064 0.98929 0.67288 0.0
C2933 C 0.69936 0.00219 0.66129 0.0
C2934 C 0.69557 0.9713 0.66484 0.0
C2935 C 0.68897 0.96571 0.64504 0.0
C2936 C 0.68767 0.97864 0.63347 0.0
C2937 C 0.69286 0.99668 0.64148 0.0
C2938 C 0.68326 0.92616 0.60976 0.0
C2939 C 0.67419 0.91022 0.62064 0.0
C2940 C 0.68793 0.94408 0.6176 0.0
C2941 C 0.68357 0.94653 0.63649 0.0
C2942 C 0.67419 0.93053 0.64723 0.0
C2943 C 0.66962 0.91263 0.63944 0.0
H2944 H 0.99197 0.68304 0.69786 0.0
H2945 H 0.99371 0.7348 0.68625 0.0
H2946 H 0.02382 0.69635 0.6869 0.0
H2947 H 0.0251 0.7478 0.67486 0.0
H2948 H 0.08662 0.77362 0.66832 0.0
H2949 H 0.05772 0.75968 0.68527 0.0
H2950 H 0.03903 0.70442 0.65681 0.0
H2951 H 0.06834 0.71842 0.64033 0.0
C2952 C 0.99915 0.69726 0.69303 0.0
C2953 C 0.99028 0.70786 0.69291 0.0
C2954 C 0.01736 0.70485 0.68667 0.0
C2955 C 0.02705 0.72316 0.68006 0.0
C2956 C 0.01824 0.7338 0.68021 0.0
C2957 C 0.00012 0.72627 0.68661 0.0
C2958 C 0.07643 0.75844 0.66596 0.0
C2959 C 0.07954 0.74709 0.65292 0.0
C2960 C 0.05984 0.75047 0.67556 0.0
C2961 C 0.04589 0.73099 0.67214 0.0
C2962 C 0.04953 0.71944 0.65988 0.0
C2963 C 0.06627 0.72743 0.65041 0.0
H2964 H 0.96541 0.62408 0.68879 0.0
H2965 H 0.92345 0.60972 0.73021 0.0
H2966 H 0.97095 0.59966 0.70003 0.0
H2967 H 0.92911 0.58545 0.74148 0.0
H2968 H 0.9336 0.53374 0.74794 0.0
H2969 H 0.9258 0.5546 0.73139 0.0
H2970 H 0.98583 0.59645 0.73085 0.0
H2971 H 0.99366 0.5758 0.74766 0.0
C2972 C 0.9572 0.61558 0.70012 0.0
C2973 C 0.94407 0.61892 0.70869 0.0
C2974 C 0.96046 0.60167 0.70662 0.0
C2975 C 0.95053 0.5907 0.72168 0.0
C2976 C 0.93686 0.59354 0.72971 0.0
C2977 C 0.9337 0.60753 0.72333 0.0
C2978 C 0.94514 0.54738 0.74426 0.0
C2979 C 0.96426 0.55315 0.74928 0.0
C2980 C 0.94066 0.55929 0.73475 0.0
C2981 C 0.95519 0.5772 0.72992 0.0
C2982 C 0.97431 0.58264 0.73418 0.0
C2983 C 0.9788 0.57078 0.74379 0.0
H2984 H 0.42094 0.35527 0.75573 0.0
H2985 H 0.37312 0.3547 0.72612 0.0
H2986 H 0.43339 0.38762 0.76941 0.0
H2987 H 0.38582 0.38735 0.73982 0.0
H2988 H 0.43372 0.45402 0.75128 0.0
H2989 H 0.4164 0.42092 0.73748 0.0
H2990 H 0.4219 0.40282 0.79389 0.0
H2991 H 0.43878 0.43573 0.80779 0.0
C2992 C 0.41314 0.36208 0.75203 0.0
C2993 C 0.39603 0.35239 0.73985 0.0
C2994 C 0.4202 0.38055 0.76 0.0
C2995 C 0.41044 0.38986 0.75582 0.0
C2996 C 0.39358 0.38044 0.74327 0.0
C2997 C 0.38634 0.36178 0.73548 0.0
C2998 C 0.43073 0.44292 0.76084 0.0
C2999 C 0.43784 0.44749 0.78057 0.0
C3000 C 0.4209 0.42401 0.75292 0.0
C3001 C 0.41815 0.40942 0.76458 0.0
C3002 C 0.42418 0.41387 0.78452 0.0
C3003 C 0.43383 0.43269 0.79246 0.0
H3004 H 0.65094 0.02559 0.68182 0.0
H3005 H 0.66301 0.08129 0.70192 0.0
H3006 H 0.61971 0.01112 0.69466 0.0
H3007 H 0.63243 0.06696 0.71521 0.0
H3008 H 0.57233 0.03997 0.72753 0.0
H3009 H 0.59917 0.05087 0.70775 0.0
H3010 H 0.60657 0.00553 0.72564 0.0
H3011 H 0.57909 0.99422 0.74476 0.0
C3012 C 0.6469 0.03475 0.68885 0.0
C3013 C 0.6595 0.0546 0.69086 0.0
C3014 C 0.62907 0.02645 0.69632 0.0
C3015 C 0.6235 0.03785 0.70596 0.0
C3016 C 0.63599 0.05771 0.70754 0.0
C3017 C 0.65368 0.06596 0.70003 0.0
C3018 C 0.57957 0.03222 0.72696 0.0
C3019 C 0.57386 0.01641 0.73776 0.0
C3020 C 0.595 0.03849 0.71574 0.0
C3021 C 0.60529 0.0293 0.71536 0.0
C3022 C 0.59892 0.01287 0.72545 0.0
C3023 C 0.58325 0.00642 0.73647 0.0
loop_
_geom_bond_atom_site_label_1
_geom_bond_atom_site_label_2
_geom_bond_distance
_geom_bond_site_symmetry_2
_ccdc_geom_bond_type
Zn0 O3 2.031 . S
Zn0 O5 2.049 . S
Zn0 O10 2.067 . S
Zn1 O2 1.962 1_455 S
Zn1 O4 1.986 . S
Zn1 O6 1.996 1_455 S
Zn1 O9 1.943 . S
O2 Zn1 1.962 1_655 S
O2 C7 1.254 . S
O3 Zn0 2.031 . S
O3 C7 1.269 . S
O4 Zn1 1.986 . S
O4 C11 1.262 . S
O5 Zn0 2.049 . S
O5 C13 1.260 . S
O6 Zn1 1.996 1_655 S
O6 C13 1.257 . S
C7 O2 1.254 . S
C7 O3 1.269 . S
C8 O9 1.249 . S
C8 O10 1.270 1_455 S
O9 Zn1 1.943 . S
O9 C8 1.249 . S
O10 Zn0 2.067 . S
O10 C8 1.270 1_655 S
C11 O4 1.262 . S
C11 O12 1.232 . S
O12 C11 1.232 . S
C13 O5 1.260 . S
C13 O6 1.257 . S
Zn14 O17 2.031 . S
Zn14 O19 2.049 . S
Zn14 O24 2.067 . S
Zn15 O16 1.962 . S
Zn15 O18 1.986 . S
Zn15 O20 1.996 . S
Zn15 O23 1.943 . S
O16 Zn15 1.962 . S
O16 C21 1.254 . S
O17 Zn14 2.031 . S
O17 C21 1.269 . S
O18 Zn15 1.986 . S
O18 C25 1.262 . S
O19 Zn14 2.049 . S
O19 C27 1.260 . S
O20 Zn15 1.996 . S
O20 C27 1.257 . S
C21 O16 1.254 . S
C21 O17 1.269 . S
C22 O23 1.249 . S
C22 O24 1.270 . S
O23 Zn15 1.943 . S
O23 C22 1.249 . S
O24 Zn14 2.067 . S
O24 C22 1.270 . S
C25 O18 1.262 . S
C25 O26 1.232 . S
O26 C25 1.232 . S
C27 O19 1.260 . S
C27 O20 1.257 . S
Zn28 O31 2.031 . S
Zn28 O33 2.049 . S
Zn28 O38 2.067 . S
Zn29 O30 1.962 1_545 S
Zn29 O32 1.986 . S
Zn29 O34 1.996 1_545 S
Zn29 O37 1.943 . S
O30 Zn29 1.962 1_565 S
O30 C35 1.254 . S
O31 Zn28 2.031 . S
O31 C35 1.269 . S
O32 Zn29 1.986 . S
O32 C39 1.262 . S
O33 Zn28 2.049 . S
O33 C41 1.260 1_554 S
O34 Zn29 1.996 1_565 S
O34 C41 1.257 1_554 S
C35 O30 1.254 . S
C35 O31 1.269 . S
C36 O37 1.249 . S
C36 O38 1.270 1_545 S
O37 Zn29 1.943 . S
O37 C36 1.249 . S
O38 Zn28 2.067 . S
O38 C36 1.270 1_565 S
C39 O32 1.262 . S
C39 O40 1.232 . S
O40 C39 1.232 . S
C41 O33 1.260 1_556 S
C41 O34 1.257 1_556 S
Zn42 O45 2.031 . S
Zn42 O47 2.049 . S
Zn42 O52 2.067 . S
Zn43 O44 1.962 1_655 S
Zn43 O46 1.986 . S
Zn43 O48 1.996 1_655 S
Zn43 O51 1.943 . S
O44 Zn43 1.962 1_455 S
O44 C49 1.254 . S
O45 Zn42 2.031 . S
O45 C49 1.269 . S
O46 Zn43 1.986 . S
O46 C53 1.262 . S
O47 Zn42 2.049 . S
O47 C55 1.260 . S
O48 Zn43 1.996 1_455 S
O48 C55 1.257 . S
C49 O44 1.254 . S
C49 O45 1.269 . S
C50 O51 1.249 . S
C50 O52 1.270 1_655 S
O51 Zn43 1.943 . S
O51 C50 1.249 . S
O52 Zn42 2.067 . S
O52 C50 1.270 1_455 S
C53 O46 1.262 . S
C53 O54 1.232 . S
O54 C53 1.232 . S
C55 O47 1.260 . S
C55 O48 1.257 . S
Zn56 O59 2.031 . S
Zn56 O61 2.049 1_554 S
Zn56 O66 2.067 . S
Zn57 O58 1.962 . S
Zn57 O60 1.986 1_554 S
Zn57 O62 1.996 1_554 S
Zn57 O65 1.943 . S
O58 Zn57 1.962 . S
O58 C63 1.254 . S
O59 Zn56 2.031 . S
O59 C63 1.269 . S
O60 Zn57 1.986 1_556 S
O60 C67 1.262 . S
O61 Zn56 2.049 1_556 S
O61 C69 1.260 . S
O62 Zn57 1.996 1_556 S
O62 C69 1.257 . S
C63 O58 1.254 . S
C63 O59 1.269 . S
C64 O65 1.249 . S
C64 O66 1.270 . S
O65 Zn57 1.943 . S
O65 C64 1.249 . S
O66 Zn56 2.067 . S
O66 C64 1.270 . S
C67 O60 1.262 . S
C67 O68 1.232 1_556 S
O68 C67 1.232 1_554 S
C69 O61 1.260 . S
C69 O62 1.257 . S
Zn70 O73 2.031 . S
Zn70 O75 2.049 . S
Zn70 O80 2.067 . S
Zn71 O72 1.962 1_565 S
Zn71 O74 1.986 . S
Zn71 O76 1.996 1_565 S
Zn71 O79 1.943 . S
O72 Zn71 1.962 1_545 S
O72 C77 1.254 . S
O73 Zn70 2.031 . S
O73 C77 1.269 . S
O74 Zn71 1.986 . S
O74 C81 1.262 . S
O75 Zn70 2.049 . S
O75 C83 1.260 . S
O76 Zn71 1.996 1_545 S
O76 C83 1.257 . S
C77 O72 1.254 . S
C77 O73 1.269 . S
C78 O79 1.249 . S
C78 O80 1.270 1_565 S
O79 Zn71 1.943 . S
O79 C78 1.249 . S
O80 Zn70 2.067 . S
O80 C78 1.270 1_545 S
C81 O74 1.262 . S
C81 O82 1.232 . S
O82 C81 1.232 . S
C83 O75 1.260 . S
C83 O76 1.257 . S
Zn84 O87 2.031 . S
Zn84 O89 2.049 . S
Zn84 O94 2.067 . S
Zn85 O86 1.962 . S
Zn85 O88 1.986 . S
Zn85 O90 1.996 . S
Zn85 O93 1.943 . S
O86 Zn85 1.962 . S
O86 C91 1.254 . S
O87 Zn84 2.031 . S
O87 C91 1.269 . S
O88 Zn85 1.986 . S
O88 C95 1.262 . S
O89 Zn84 2.049 . S
O89 C97 1.260 . S
O90 Zn85 1.996 . S
O90 C97 1.257 . S
C91 O86 1.254 . S
C91 O87 1.269 . S
C92 O93 1.249 . S
C92 O94 1.270 . S
O93 Zn85 1.943 . S
O93 C92 1.249 . S
O94 Zn84 2.067 . S
O94 C92 1.270 . S
C95 O88 1.262 . S
C95 O96 1.232 . S
O96 C95 1.232 . S
C97 O89 1.260 . S
C97 O90 1.257 . S
Zn98 O101 2.031 . S
Zn98 O103 2.049 . S
Zn98 O108 2.067 . S
Zn99 O100 1.962 . S
Zn99 O102 1.986 . S
Zn99 O104 1.996 . S
Zn99 O107 1.943 . S
O100 Zn99 1.962 . S
O100 C105 1.254 . S
O101 Zn98 2.031 . S
O101 C105 1.269 . S
O102 Zn99 1.986 . S
O102 C109 1.226 1_565 S
O103 Zn98 2.049 . S
O103 C111 1.260 . S
O104 Zn99 1.996 . S
O104 C111 1.257 . S
C105 O100 1.254 . S
C105 O101 1.269 . S
C106 O107 1.249 . S
C106 O108 1.270 . S
O107 Zn99 1.943 . S
O107 C106 1.249 . S
O108 Zn98 2.067 . S
O108 C106 1.270 . S
C109 O102 1.226 1_545 S
C109 O110 1.230 . S
O110 C109 1.230 . S
C111 O103 1.260 . S
C111 O104 1.257 . S
Zn112 O115 2.031 . S
Zn112 O117 2.049 . S
Zn112 O122 2.067 . S
Zn113 O114 1.962 . S
Zn113 O116 1.986 . S
Zn113 O118 1.996 . S
Zn113 O121 1.943 . S
O114 Zn113 1.962 . S
O114 C119 1.254 . S
O115 Zn112 2.031 . S
O115 C119 1.269 . S
O116 Zn113 1.986 . S
O116 C123 1.262 . S
O117 Zn112 2.049 . S
O117 C125 1.260 . S
O118 Zn113 1.996 . S
O118 C125 1.257 . S
C119 O114 1.254 . S
C119 O115 1.269 . S
C120 O121 1.249 . S
C120 O122 1.270 . S
O121 Zn113 1.943 . S
O121 C120 1.249 . S
O122 Zn112 2.067 . S
O122 C120 1.270 . S
C123 O116 1.262 . S
C123 O124 1.232 . S
O124 C123 1.232 . S
C125 O117 1.260 . S
C125 O118 1.257 . S
Zn126 O129 2.031 . S
Zn126 O131 2.049 . S
Zn126 O136 2.067 . S
Zn127 O128 1.962 . S
Zn127 O130 1.986 . S
Zn127 O132 1.996 . S
Zn127 O135 1.943 . S
O128 Zn127 1.962 . S
O128 C133 1.254 . S
O129 Zn126 2.031 . S
O129 C133 1.269 . S
O130 Zn127 1.986 . S
O130 C137 1.262 . S
O131 Zn126 2.049 . S
O131 C139 1.260 . S
O132 Zn127 1.996 . S
O132 C139 1.257 . S
C133 O128 1.254 . S
C133 O129 1.269 . S
C134 O135 1.249 . S
C134 O136 1.270 . S
O135 Zn127 1.943 . S
O135 C134 1.249 . S
O136 Zn126 2.067 . S
O136 C134 1.270 . S
C137 O130 1.262 . S
C137 O138 1.232 . S
O138 C137 1.232 . S
C139 O131 1.260 . S
C139 O132 1.257 . S
Zn140 O143 2.031 . S
Zn140 O145 2.049 . S
Zn140 O150 2.067 . S
Zn141 O142 1.962 . S
Zn141 O144 1.986 . S
Zn141 O146 1.996 . S
Zn141 O149 1.943 . S
O142 Zn141 1.962 . S
O142 C147 1.254 . S
O143 Zn140 2.031 . S
O143 C147 1.269 . S
O144 Zn141 1.986 . S
O144 C151 1.262 . S
O145 Zn140 2.049 . S
O145 C153 1.260 . S
O146 Zn141 1.996 . S
O146 C153 1.257 . S
C147 O142 1.254 . S
C147 O143 1.269 . S
C148 O149 1.249 . S
C148 O150 1.270 . S
O149 Zn141 1.943 . S
O149 C148 1.249 . S
O150 Zn140 2.067 . S
O150 C148 1.270 . S
C151 O144 1.262 . S
C151 O152 1.232 . S
O152 C151 1.232 . S
C153 O145 1.260 . S
C153 O146 1.257 . S
Zn154 O157 2.031 . S
Zn154 O159 2.049 . S
Zn154 O164 2.067 . S
Zn155 O156 1.962 . S
Zn155 O158 1.986 . S
Zn155 O160 1.996 . S
Zn155 O163 1.943 . S
O156 Zn155 1.962 . S
O156 C161 1.254 . S
O157 Zn154 2.031 . S
O157 C161 1.269 . S
O158 Zn155 1.986 . S
O158 C165 1.262 . S
O159 Zn154 2.049 . S
O159 C167 1.260 . S
O160 Zn155 1.996 . S
O160 C167 1.257 . S
C161 O156 1.254 . S
C161 O157 1.269 . S
C162 O163 1.249 . S
C162 O164 1.270 . S
O163 Zn155 1.943 . S
O163 C162 1.249 . S
O164 Zn154 2.067 . S
O164 C162 1.270 . S
C165 O158 1.262 . S
C165 O166 1.232 . S
O166 C165 1.232 . S
C167 O159 1.260 . S
C167 O160 1.257 . S
Zn168 O171 2.031 . S
Zn168 O173 2.049 . S
Zn168 O178 2.067 . S
Zn169 O170 1.962 . S
Zn169 O172 1.986 . S
Zn169 O174 1.996 . S
Zn169 O177 1.943 . S
O170 Zn169 1.962 . S
O170 C175 1.254 . S
O171 Zn168 2.031 . S
O171 C175 1.269 . S
O172 Zn169 1.986 . S
O172 C179 1.262 . S
O173 Zn168 2.049 . S
O173 C181 1.260 . S
O174 Zn169 1.996 . S
O174 C181 1.257 . S
C175 O170 1.254 . S
C175 O171 1.269 . S
C176 O177 1.249 . S
C176 O178 1.270 . S
O177 Zn169 1.943 . S
O177 C176 1.249 . S
O178 Zn168 2.067 . S
O178 C176 1.270 . S
C179 O172 1.262 . S
C179 O180 1.232 . S
O180 C179 1.232 . S
C181 O173 1.260 . S
C181 O174 1.257 . S
Zn182 O185 2.031 . S
Zn182 O187 2.049 . S
Zn182 O192 2.067 . S
Zn183 O184 1.962 . S
Zn183 O186 1.986 . S
Zn183 O188 1.996 . S
Zn183 O191 1.943 . S
O184 Zn183 1.962 . S
O184 C189 1.254 . S
O185 Zn182 2.031 . S
O185 C189 1.269 . S
O186 Zn183 1.986 . S
O186 C193 1.262 . S
O187 Zn182 2.049 . S
O187 C195 1.260 . S
O188 Zn183 1.996 . S
O188 C195 1.257 . S
C189 O184 1.254 . S
C189 O185 1.269 . S
C190 O191 1.249 . S
C190 O192 1.270 . S
O191 Zn183 1.943 . S
O191 C190 1.249 . S
O192 Zn182 2.067 . S
O192 C190 1.270 . S
C193 O186 1.262 . S
C193 O194 1.232 . S
O194 C193 1.232 . S
C195 O187 1.260 . S
C195 O188 1.257 . S
Zn196 O199 2.031 . S
Zn196 O201 2.049 . S
Zn196 O206 2.067 . S
Zn197 O198 1.962 . S
Zn197 O200 1.986 . S
Zn197 O202 1.996 . S
Zn197 O205 1.943 . S
O198 Zn197 1.962 . S
O198 C203 1.254 . S
O199 Zn196 2.031 . S
O199 C203 1.269 . S
O200 Zn197 1.986 . S
O200 C207 1.262 . S
O201 Zn196 2.049 . S
O201 C209 1.260 . S
O202 Zn197 1.996 . S
O202 C209 1.257 . S
C203 O198 1.254 . S
C203 O199 1.269 . S
C204 O205 1.249 . S
C204 O206 1.270 . S
O205 Zn197 1.943 . S
O205 C204 1.249 . S
O206 Zn196 2.067 . S
O206 C204 1.270 . S
C207 O200 1.262 . S
C207 O208 1.232 . S
O208 C207 1.232 . S
C209 O201 1.260 . S
C209 O202 1.257 . S
Zn210 O213 2.031 . S
Zn210 O215 2.049 . S
Zn210 O220 2.067 . S
Zn211 O212 1.962 . S
Zn211 O214 1.986 . S
Zn211 O216 1.996 . S
Zn211 O219 1.943 . S
O212 Zn211 1.962 . S
O212 C217 1.254 . S
O213 Zn210 2.031 . S
O213 C217 1.269 . S
O214 Zn211 1.986 . S
O214 C221 1.262 . S
O215 Zn210 2.049 . S
O215 C223 1.260 . S
O216 Zn211 1.996 . S
O216 C223 1.257 . S
C217 O212 1.254 . S
C217 O213 1.269 . S
C218 O219 1.249 . S
C218 O220 1.270 . S
O219 Zn211 1.943 . S
O219 C218 1.249 . S
O220 Zn210 2.067 . S
O220 C218 1.270 . S
C221 O214 1.262 . S
C221 O222 1.232 . S
O222 C221 1.232 . S
C223 O215 1.260 . S
C223 O216 1.257 . S
Zn224 O227 2.031 . S
Zn224 O229 2.049 . S
Zn224 O234 2.067 . S
Zn225 O226 1.962 . S
Zn225 O228 1.986 . S
Zn225 O230 1.996 . S
Zn225 O233 1.943 . S
O226 Zn225 1.962 . S
O226 C231 1.254 . S
O227 Zn224 2.031 . S
O227 C231 1.269 . S
O228 Zn225 1.986 . S
O228 C235 1.262 . S
O229 Zn224 2.049 . S
O229 C237 1.260 . S
O230 Zn225 1.996 . S
O230 C237 1.257 . S
C231 O226 1.254 . S
C231 O227 1.269 . S
C232 O233 1.249 . S
C232 O234 1.270 . S
O233 Zn225 1.943 . S
O233 C232 1.249 . S
O234 Zn224 2.067 . S
O234 C232 1.270 . S
C235 O228 1.262 . S
C235 O236 1.230 . S
O236 C235 1.230 . S
C237 O229 1.260 . S
C237 O230 1.257 . S
Zn238 O241 2.031 . S
Zn238 O243 2.049 . S
Zn238 O248 2.067 . S
Zn239 O240 1.962 . S
Zn239 O242 1.986 . S
Zn239 O244 1.996 . S
Zn239 O247 1.943 . S
O240 Zn239 1.962 . S
O240 C245 1.254 . S
O241 Zn238 2.031 . S
O241 C245 1.269 . S
O242 Zn239 1.986 . S
O242 C249 1.262 . S
O243 Zn238 2.049 . S
O243 C251 1.260 . S
O244 Zn239 1.996 . S
O244 C251 1.257 . S
C245 O240 1.254 . S
C245 O241 1.269 . S
C246 O247 1.249 . S
C246 O248 1.270 . S
O247 Zn239 1.943 . S
O247 C246 1.249 . S
O248 Zn238 2.067 . S
O248 C246 1.270 . S
C249 O242 1.262 . S
C249 O250 1.232 . S
O250 C249 1.232 . S
C251 O243 1.260 . S
C251 O244 1.257 . S
H252 O278 0.856 . S
H253 O281 0.854 . S
H254 C289 0.930 . S
H255 C290 0.930 . S
H256 C292 0.930 . S
H257 C293 0.930 . S
H258 C295 0.931 . S
H259 C296 0.930 . S
H260 C298 0.930 . S
H261 C299 0.929 . S
H262 C301 0.930 . S
H263 C302 0.931 . S
H264 C304 0.930 . S
H265 C305 0.929 . S
H266 C307 0.931 . S
H267 C308 0.930 . S
H268 C310 0.930 . S
H269 C311 0.932 . S
H270 C313 0.930 . S
H271 C314 0.929 . S
H272 C316 0.931 . S
H273 C317 0.930 . S
H274 C319 0.929 . S
H275 C320 0.931 . S
H276 C322 0.930 . S
H277 C323 0.929 . S
O278 H252 0.856 . S
O278 C324 1.300 . S
O279 C324 1.209 . S
O280 C325 1.199 . S
O281 H253 0.854 . S
O281 C325 1.297 . S
C282 C283 1.404 . S
C282 C287 1.397 . S
C282 C288 1.492 . S
C283 C282 1.404 . S
C283 C284 1.396 . S
C283 C294 1.492 . S
C284 C283 1.396 . S
C284 C285 1.397 . S
C284 C300 1.509 . S
C285 C284 1.397 . S
C285 C286 1.412 . S
C285 C306 1.485 . S
C286 C285 1.412 . S
C286 C287 1.388 . S
C286 C312 1.490 . S
C287 C282 1.397 . S
C287 C286 1.388 . S
C287 C318 1.519 . S
C288 C282 1.492 . S
C288 C289 1.363 . S
C288 C293 1.390 . S
C289 H254 0.930 . S
C289 C288 1.363 . S
C289 C290 1.372 . S
C290 H255 0.930 . S
C290 C289 1.372 . S
C290 C291 1.383 . S
C291 C290 1.383 . S
C291 C292 1.395 . S
C292 H256 0.930 . S
C292 C291 1.395 . S
C292 C293 1.362 . S
C293 H257 0.930 . S
C293 C288 1.390 . S
C293 C292 1.362 . S
C294 C283 1.492 . S
C294 C295 1.377 . S
C294 C299 1.397 . S
C295 H258 0.931 . S
C295 C294 1.377 . S
C295 C296 1.376 . S
C296 H259 0.930 . S
C296 C295 1.376 . S
C296 C297 1.376 . S
C297 C296 1.376 . S
C297 C298 1.378 . S
C297 C324 1.486 . S
C298 H260 0.930 . S
C298 C297 1.378 . S
C298 C299 1.376 . S
C299 H261 0.929 . S
C299 C294 1.397 . S
C299 C298 1.376 . S
C300 C284 1.509 . S
C300 C301 1.391 . S
C300 C305 1.386 . S
C301 H262 0.930 . S
C301 C300 1.391 . S
C301 C302 1.375 . S
C302 H263 0.931 . S
C302 C301 1.375 . S
C302 C303 1.375 . S
C303 C302 1.375 . S
C303 C304 1.361 . S
C304 H264 0.930 . S
C304 C303 1.361 . S
C304 C305 1.399 . S
C305 H265 0.929 . S
C305 C300 1.386 . S
C305 C304 1.399 . S
C306 C285 1.485 . S
C306 C307 1.394 . S
C306 C311 1.360 . S
C307 H266 0.931 . S
C307 C306 1.394 . S
C307 C308 1.372 . S
C308 H267 0.930 . S
C308 C307 1.372 . S
C308 C309 1.397 . S
C309 C308 1.397 . S
C309 C310 1.390 . S
C309 C325 1.476 . S
C310 H268 0.930 . S
C310 C309 1.390 . S
C310 C311 1.366 . S
C311 H269 0.932 . S
C311 C306 1.360 . S
C311 C310 1.366 . S
C312 C286 1.490 . S
C312 C313 1.380 . S
C312 C317 1.386 . S
C313 H270 0.930 . S
C313 C312 1.380 . S
C313 C314 1.381 . S
C314 H271 0.929 . S
C314 C313 1.381 . S
C314 C315 1.371 . S
C315 C314 1.371 . S
C315 C316 1.380 . S
C316 H272 0.931 . S
C316 C315 1.380 . S
C316 C317 1.387 . S
C317 H273 0.930 . S
C317 C312 1.386 . S
C317 C316 1.387 . S
C318 C287 1.519 . S
C318 C319 1.377 . S
C318 C323 1.361 . S
C319 H274 0.929 . S
C319 C318 1.377 . S
C319 C320 1.386 . S
C320 H275 0.931 . S
C320 C319 1.386 . S
C320 C321 1.363 . S
C321 C320 1.363 . S
C321 C322 1.385 . S
C322 H276 0.930 . S
C322 C321 1.385 . S
C322 C323 1.396 . S
C323 H277 0.929 . S
C323 C318 1.361 . S
C323 C322 1.396 . S
C324 O278 1.300 . S
C324 O279 1.209 . S
C324 C297 1.486 . S
C325 O280 1.199 . S
C325 O281 1.297 . S
C325 C309 1.476 . S
H326 O352 0.856 . S
H327 O355 0.854 . S
H328 C363 0.930 . S
H329 C364 0.930 . S
H330 C366 0.930 . S
H331 C367 0.930 . S
H332 C369 0.931 . S
H333 C370 0.930 . S
H334 C372 0.930 . S
H335 C373 0.929 . S
H336 C375 0.930 . S
H337 C376 0.931 . S
H338 C378 0.930 . S
H339 C379 0.929 . S
H340 C381 0.931 . S
H341 C382 0.930 . S
H342 C384 0.930 . S
H343 C385 0.932 . S
H344 C387 0.930 . S
H345 C388 0.929 . S
H346 C390 0.931 . S
H347 C391 0.930 . S
H348 C393 0.929 . S
H349 C394 0.931 . S
H350 C396 0.930 . S
H351 C397 0.929 . S
O352 H326 0.856 . S
O352 C398 1.300 . S
O353 C398 1.209 . S
O354 C399 1.199 . S
O355 H327 0.854 . S
O355 C399 1.297 . S
C356 C357 1.404 . S
C356 C361 1.397 . S
C356 C362 1.492 . S
C357 C356 1.404 . S
C357 C358 1.396 . S
C357 C368 1.492 . S
C358 C357 1.396 . S
C358 C359 1.397 . S
C358 C374 1.509 . S
C359 C358 1.397 . S
C359 C360 1.412 . S
C359 C380 1.485 . S
C360 C359 1.412 . S
C360 C361 1.388 . S
C360 C386 1.490 . S
C361 C356 1.397 . S
C361 C360 1.388 . S
C361 C392 1.519 . S
C362 C356 1.492 . S
C362 C363 1.363 . S
C362 C367 1.390 . S
C363 H328 0.930 . S
C363 C362 1.363 . S
C363 C364 1.372 . S
C364 H329 0.930 . S
C364 C363 1.372 . S
C364 C365 1.383 . S
C365 C364 1.383 . S
C365 C366 1.395 . S
C366 H330 0.930 . S
C366 C365 1.395 . S
C366 C367 1.362 . S
C367 H331 0.930 . S
C367 C362 1.390 . S
C367 C366 1.362 . S
C368 C357 1.492 . S
C368 C369 1.377 . S
C368 C373 1.397 . S
C369 H332 0.931 . S
C369 C368 1.377 . S
C369 C370 1.376 . S
C370 H333 0.930 . S
C370 C369 1.376 . S
C370 C371 1.376 . S
C371 C370 1.376 . S
C371 C372 1.378 . S
C371 C398 1.486 . S
C372 H334 0.930 . S
C372 C371 1.378 . S
C372 C373 1.376 . S
C373 H335 0.929 . S
C373 C368 1.397 . S
C373 C372 1.376 . S
C374 C358 1.509 . S
C374 C375 1.391 . S
C374 C379 1.386 . S
C375 H336 0.930 . S
C375 C374 1.391 . S
C375 C376 1.375 . S
C376 H337 0.931 . S
C376 C375 1.375 . S
C376 C377 1.375 . S
C377 C376 1.375 . S
C377 C378 1.361 . S
C378 H338 0.930 . S
C378 C377 1.361 . S
C378 C379 1.399 . S
C379 H339 0.929 . S
C379 C374 1.386 . S
C379 C378 1.399 . S
C380 C359 1.485 . S
C380 C381 1.394 . S
C380 C385 1.360 . S
C381 H340 0.931 . S
C381 C380 1.394 . S
C381 C382 1.372 . S
C382 H341 0.930 . S
C382 C381 1.372 . S
C382 C383 1.397 . S
C383 C382 1.397 . S
C383 C384 1.390 . S
C383 C399 1.476 . S
C384 H342 0.930 . S
C384 C383 1.390 . S
C384 C385 1.366 . S
C385 H343 0.932 . S
C385 C380 1.360 . S
C385 C384 1.366 . S
C386 C360 1.490 . S
C386 C387 1.380 . S
C386 C391 1.386 . S
C387 H344 0.930 . S
C387 C386 1.380 . S
C387 C388 1.381 . S
C388 H345 0.929 . S
C388 C387 1.381 . S
C388 C389 1.371 . S
C389 C388 1.371 . S
C389 C390 1.380 . S
C390 H346 0.931 . S
C390 C389 1.380 . S
C390 C391 1.387 . S
C391 H347 0.930 . S
C391 C386 1.386 . S
C391 C390 1.387 . S
C392 C361 1.519 . S
C392 C393 1.377 . S
C392 C397 1.361 . S
C393 H348 0.929 . S
C393 C392 1.377 . S
C393 C394 1.386 . S
C394 H349 0.931 . S
C394 C393 1.386 . S
C394 C395 1.363 . S
C395 C394 1.363 . S
C395 C396 1.385 . S
C396 H350 0.930 . S
C396 C395 1.385 . S
C396 C397 1.396 . S
C397 H351 0.929 . S
C397 C392 1.361 . S
C397 C396 1.396 . S
C398 O352 1.300 . S
C398 O353 1.209 . S
C398 C371 1.486 . S
C399 O354 1.199 . S
C399 O355 1.297 . S
C399 C383 1.476 . S
H400 O426 0.856 . S
H401 O429 0.854 . S
H402 C437 0.930 . S
H403 C438 0.930 . S
H404 C440 0.930 . S
H405 C441 0.930 . S
H406 C443 0.931 . S
H407 C444 0.930 . S
H408 C446 0.930 . S
H409 C447 0.929 . S
H410 C449 0.930 . S
H411 C450 0.931 . S
H412 C452 0.930 . S
H413 C453 0.929 . S
H414 C455 0.931 . S
H415 C456 0.930 . S
H416 C458 0.930 . S
H417 C459 0.932 . S
H418 C461 0.930 . S
H419 C462 0.929 . S
H420 C464 0.931 . S
H421 C465 0.930 . S
H422 C467 0.929 . S
H423 C468 0.931 . S
H424 C470 0.930 . S
H425 C471 0.929 . S
O426 H400 0.856 . S
O426 C472 1.300 . S
O427 C472 1.209 . S
O428 C473 1.199 . S
O429 H401 0.854 . S
O429 C473 1.297 . S
C430 C431 1.404 . S
C430 C435 1.397 . S
C430 C436 1.492 . S
C431 C430 1.404 . S
C431 C432 1.396 . S
C431 C442 1.492 . S
C432 C431 1.396 . S
C432 C433 1.397 . S
C432 C448 1.509 . S
C433 C432 1.397 . S
C433 C434 1.412 . S
C433 C454 1.485 . S
C434 C433 1.412 . S
C434 C435 1.388 . S
C434 C460 1.490 . S
C435 C430 1.397 . S
C435 C434 1.388 . S
C435 C466 1.519 . S
C436 C430 1.492 . S
C436 C437 1.363 . S
C436 C441 1.390 . S
C437 H402 0.930 . S
C437 C436 1.363 . S
C437 C438 1.372 . S
C438 H403 0.930 . S
C438 C437 1.372 . S
C438 C439 1.383 . S
C439 C438 1.383 . S
C439 C440 1.395 . S
C440 H404 0.930 . S
C440 C439 1.395 . S
C440 C441 1.362 . S
C441 H405 0.930 . S
C441 C436 1.390 . S
C441 C440 1.362 . S
C442 C431 1.492 . S
C442 C443 1.377 . S
C442 C447 1.397 . S
C443 H406 0.931 . S
C443 C442 1.377 . S
C443 C444 1.376 . S
C444 H407 0.930 . S
C444 C443 1.376 . S
C444 C445 1.376 . S
C445 C444 1.376 . S
C445 C446 1.378 . S
C445 C472 1.486 . S
C446 H408 0.930 . S
C446 C445 1.378 . S
C446 C447 1.376 . S
C447 H409 0.929 . S
C447 C442 1.397 . S
C447 C446 1.376 . S
C448 C432 1.509 . S
C448 C449 1.391 . S
C448 C453 1.386 . S
C449 H410 0.930 . S
C449 C448 1.391 . S
C449 C450 1.375 . S
C450 H411 0.931 . S
C450 C449 1.375 . S
C450 C451 1.375 . S
C451 C450 1.375 . S
C451 C452 1.361 . S
C452 H412 0.930 . S
C452 C451 1.361 . S
C452 C453 1.399 . S
C453 H413 0.929 . S
C453 C448 1.386 . S
C453 C452 1.399 . S
C454 C433 1.485 . S
C454 C455 1.394 . S
C454 C459 1.360 . S
C455 H414 0.931 . S
C455 C454 1.394 . S
C455 C456 1.372 . S
C456 H415 0.930 . S
C456 C455 1.372 . S
C456 C457 1.397 . S
C457 C456 1.397 . S
C457 C458 1.390 . S
C457 C473 1.476 . S
C458 H416 0.930 . S
C458 C457 1.390 . S
C458 C459 1.366 . S
C459 H417 0.932 . S
C459 C454 1.360 . S
C459 C458 1.366 . S
C460 C434 1.490 . S
C460 C461 1.380 . S
C460 C465 1.386 . S
C461 H418 0.930 . S
C461 C460 1.380 . S
C461 C462 1.381 . S
C462 H419 0.929 . S
C462 C461 1.381 . S
C462 C463 1.371 . S
C463 C462 1.371 . S
C463 C464 1.380 . S
C464 H420 0.931 . S
C464 C463 1.380 . S
C464 C465 1.387 . S
C465 H421 0.930 . S
C465 C460 1.386 . S
C465 C464 1.387 . S
C466 C435 1.519 . S
C466 C467 1.377 . S
C466 C471 1.361 . S
C467 H422 0.929 . S
C467 C466 1.377 . S
C467 C468 1.386 . S
C468 H423 0.931 . S
C468 C467 1.386 . S
C468 C469 1.363 . S
C469 C468 1.363 . S
C469 C470 1.385 . S
C470 H424 0.930 . S
C470 C469 1.385 . S
C470 C471 1.396 . S
C471 H425 0.929 . S
C471 C466 1.361 . S
C471 C470 1.396 . S
C472 O426 1.300 . S
C472 O427 1.209 . S
C472 C445 1.486 . S
C473 O428 1.199 . S
C473 O429 1.297 . S
C473 C457 1.476 . S
H474 O500 0.856 . S
H475 O503 0.854 . S
H476 C511 0.930 . S
H477 C512 0.930 . S
H478 C514 0.930 . S
H479 C515 0.930 . S
H480 C517 0.931 . S
H481 C518 0.930 . S
H482 C520 0.930 . S
H483 C521 0.929 . S
H484 C523 0.930 . S
H485 C524 0.931 . S
H486 C526 0.930 . S
H487 C527 0.929 . S
H488 C529 0.931 . S
H489 C530 0.930 . S
H490 C532 0.930 . S
H491 C533 0.932 . S
H492 C535 0.930 . S
H493 C536 0.929 . S
H494 C538 0.931 . S
H495 C539 0.930 . S
H496 C541 0.929 . S
H497 C542 0.931 . S
H498 C544 0.930 . S
H499 C545 0.929 . S
O500 H474 0.856 . S
O500 C546 1.300 1_554 S
O501 C546 1.209 1_554 S
O502 C547 1.199 . S
O503 H475 0.854 . S
O503 C547 1.297 . S
C504 C505 1.404 . S
C504 C509 1.397 . S
C504 C510 1.492 . S
C505 C504 1.404 . S
C505 C506 1.396 . S
C505 C516 1.492 . S
C506 C505 1.396 . S
C506 C507 1.397 . S
C506 C522 1.509 . S
C507 C506 1.397 . S
C507 C508 1.412 . S
C507 C528 1.485 . S
C508 C507 1.412 . S
C508 C509 1.388 . S
C508 C534 1.490 . S
C509 C504 1.397 . S
C509 C508 1.388 . S
C509 C540 1.519 . S
C510 C504 1.492 . S
C510 C511 1.363 . S
C510 C515 1.390 . S
C511 H476 0.930 . S
C511 C510 1.363 . S
C511 C512 1.372 . S
C512 H477 0.930 . S
C512 C511 1.372 . S
C512 C513 1.383 . S
C513 C512 1.383 . S
C513 C514 1.395 . S
C514 H478 0.930 . S
C514 C513 1.395 . S
C514 C515 1.362 . S
C515 H479 0.930 . S
C515 C510 1.390 . S
C515 C514 1.362 . S
C516 C505 1.492 . S
C516 C517 1.377 . S
C516 C521 1.397 . S
C517 H480 0.931 . S
C517 C516 1.377 . S
C517 C518 1.376 . S
C518 H481 0.930 . S
C518 C517 1.376 . S
C518 C519 1.376 . S
C519 C518 1.376 . S
C519 C520 1.378 . S
C519 C546 1.486 . S
C520 H482 0.930 . S
C520 C519 1.378 . S
C520 C521 1.376 . S
C521 H483 0.929 . S
C521 C516 1.397 . S
C521 C520 1.376 . S
C522 C506 1.509 . S
C522 C523 1.391 . S
C522 C527 1.386 . S
C523 H484 0.930 . S
C523 C522 1.391 . S
C523 C524 1.375 . S
C524 H485 0.931 . S
C524 C523 1.375 . S
C524 C525 1.375 . S
C525 C524 1.375 . S
C525 C526 1.361 . S
C526 H486 0.930 . S
C526 C525 1.361 . S
C526 C527 1.399 . S
C527 H487 0.929 . S
C527 C522 1.386 . S
C527 C526 1.399 . S
C528 C507 1.485 . S
C528 C529 1.394 . S
C528 C533 1.360 . S
C529 H488 0.931 . S
C529 C528 1.394 . S
C529 C530 1.372 . S
C530 H489 0.930 . S
C530 C529 1.372 . S
C530 C531 1.397 . S
C531 C530 1.397 . S
C531 C532 1.390 . S
C531 C547 1.476 . S
C532 H490 0.930 . S
C532 C531 1.390 . S
C532 C533 1.366 . S
C533 H491 0.932 . S
C533 C528 1.360 . S
C533 C532 1.366 . S
C534 C508 1.490 . S
C534 C535 1.380 . S
C534 C539 1.386 . S
C535 H492 0.930 . S
C535 C534 1.380 . S
C535 C536 1.381 . S
C536 H493 0.929 . S
C536 C535 1.381 . S
C536 C537 1.371 . S
C537 C536 1.371 . S
C537 C538 1.380 . S
C538 H494 0.931 . S
C538 C537 1.380 . S
C538 C539 1.387 . S
C539 H495 0.930 . S
C539 C534 1.386 . S
C539 C538 1.387 . S
C540 C509 1.519 . S
C540 C541 1.377 . S
C540 C545 1.361 . S
C541 H496 0.929 . S
C541 C540 1.377 . S
C541 C542 1.386 . S
C542 H497 0.931 . S
C542 C541 1.386 . S
C542 C543 1.363 . S
C543 C542 1.363 . S
C543 C544 1.385 . S
C544 H498 0.930 . S
C544 C543 1.385 . S
C544 C545 1.396 . S
C545 H499 0.929 . S
C545 C540 1.361 . S
C545 C544 1.396 . S
C546 O500 1.300 1_556 S
C546 O501 1.209 1_556 S
C546 C519 1.486 . S
C547 O502 1.199 . S
C547 O503 1.297 . S
C547 C531 1.476 . S
H548 O574 0.856 . S
H549 O577 0.854 . S
H550 C585 0.930 . S
H551 C586 0.930 . S
H552 C588 0.930 . S
H553 C589 0.930 . S
H554 C591 0.931 . S
H555 C592 0.930 . S
H556 C594 0.930 . S
H557 C595 0.929 . S
H558 C597 0.930 . S
H559 C598 0.931 . S
H560 C600 0.930 . S
H561 C601 0.929 . S
H562 C603 0.931 . S
H563 C604 0.930 . S
H564 C606 0.930 . S
H565 C607 0.932 . S
H566 C609 0.930 . S
H567 C610 0.929 . S
H568 C612 0.931 . S
H569 C613 0.930 . S
H570 C615 0.929 . S
H571 C616 0.931 . S
H572 C618 0.930 . S
H573 C619 0.929 . S
O574 H548 0.856 . S
O574 C620 1.300 . S
O575 C620 1.209 . S
O576 C621 1.199 . S
O577 H549 0.854 . S
O577 C621 1.297 . S
C578 C579 1.404 . S
C578 C583 1.397 . S
C578 C584 1.492 . S
C579 C578 1.404 . S
C579 C580 1.396 . S
C579 C590 1.492 . S
C580 C579 1.396 . S
C580 C581 1.397 . S
C580 C596 1.509 . S
C581 C580 1.397 . S
C581 C582 1.412 . S
C581 C602 1.485 . S
C582 C581 1.412 . S
C582 C583 1.388 . S
C582 C608 1.490 . S
C583 C578 1.397 . S
C583 C582 1.388 . S
C583 C614 1.519 . S
C584 C578 1.492 . S
C584 C585 1.363 . S
C584 C589 1.390 . S
C585 H550 0.930 . S
C585 C584 1.363 . S
C585 C586 1.372 . S
C586 H551 0.930 . S
C586 C585 1.372 . S
C586 C587 1.383 . S
C587 C586 1.383 . S
C587 C588 1.395 . S
C588 H552 0.930 . S
C588 C587 1.395 . S
C588 C589 1.362 . S
C589 H553 0.930 . S
C589 C584 1.390 . S
C589 C588 1.362 . S
C590 C579 1.492 . S
C590 C591 1.377 . S
C590 C595 1.397 . S
C591 H554 0.931 . S
C591 C590 1.377 . S
C591 C592 1.376 . S
C592 H555 0.930 . S
C592 C591 1.376 . S
C592 C593 1.376 . S
C593 C592 1.376 . S
C593 C594 1.378 . S
C593 C620 1.486 1_556 S
C594 H556 0.930 . S
C594 C593 1.378 . S
C594 C595 1.376 . S
C595 H557 0.929 . S
C595 C590 1.397 . S
C595 C594 1.376 . S
C596 C580 1.509 . S
C596 C597 1.391 . S
C596 C601 1.386 . S
C597 H558 0.930 . S
C597 C596 1.391 . S
C597 C598 1.375 . S
C598 H559 0.931 . S
C598 C597 1.375 . S
C598 C599 1.375 . S
C599 C598 1.375 . S
C599 C600 1.361 . S
C600 H560 0.930 . S
C600 C599 1.361 . S
C600 C601 1.399 . S
C601 H561 0.929 . S
C601 C596 1.386 . S
C601 C600 1.399 . S
C602 C581 1.485 . S
C602 C603 1.394 . S
C602 C607 1.360 . S
C603 H562 0.931 . S
C603 C602 1.394 . S
C603 C604 1.372 . S
C604 H563 0.930 . S
C604 C603 1.372 . S
C604 C605 1.397 . S
C605 C604 1.397 . S
C605 C606 1.390 . S
C605 C621 1.476 . S
C606 H564 0.930 . S
C606 C605 1.390 . S
C606 C607 1.366 . S
C607 H565 0.932 . S
C607 C602 1.360 . S
C607 C606 1.366 . S
C608 C582 1.490 . S
C608 C609 1.380 . S
C608 C613 1.386 . S
C609 H566 0.930 . S
C609 C608 1.380 . S
C609 C610 1.381 . S
C610 H567 0.929 . S
C610 C609 1.381 . S
C610 C611 1.371 . S
C611 C610 1.371 . S
C611 C612 1.380 . S
C612 H568 0.931 . S
C612 C611 1.380 . S
C612 C613 1.387 . S
C613 H569 0.930 . S
C613 C608 1.386 . S
C613 C612 1.387 . S
C614 C583 1.519 . S
C614 C615 1.377 . S
C614 C619 1.361 . S
C615 H570 0.929 . S
C615 C614 1.377 . S
C615 C616 1.386 . S
C616 H571 0.931 . S
C616 C615 1.386 . S
C616 C617 1.363 . S
C617 C616 1.363 . S
C617 C618 1.385 . S
C618 H572 0.930 . S
C618 C617 1.385 . S
C618 C619 1.396 . S
C619 H573 0.929 . S
C619 C614 1.361 . S
C619 C618 1.396 . S
C620 O574 1.300 . S
C620 O575 1.209 . S
C620 C593 1.486 1_554 S
C621 O576 1.199 . S
C621 O577 1.297 . S
C621 C605 1.476 . S
H622 O648 0.856 . S
H623 O651 0.854 . S
H624 C659 0.930 . S
H625 C660 0.930 . S
H626 C662 0.930 . S
H627 C663 0.930 . S
H628 C665 0.931 . S
H629 C666 0.930 1_554 S
H630 C668 0.930 . S
H631 C669 0.929 . S
H632 C671 0.930 . S
H633 C672 0.931 . S
H634 C674 0.930 . S
H635 C675 0.929 . S
H636 C677 0.931 . S
H637 C678 0.930 . S
H638 C680 0.930 . S
H639 C681 0.932 . S
H640 C683 0.930 . S
H641 C684 0.929 . S
H642 C686 0.931 . S
H643 C687 0.930 . S
H644 C689 0.929 . S
H645 C690 0.931 . S
H646 C692 0.930 . S
H647 C693 0.929 . S
O648 H622 0.856 . S
O648 C694 1.300 . S
O649 C694 1.209 . S
O650 C695 1.199 . S
O651 H623 0.854 . S
O651 C695 1.297 . S
C652 C653 1.404 . S
C652 C657 1.397 . S
C652 C658 1.492 . S
C653 C652 1.404 . S
C653 C654 1.396 . S
C653 C664 1.492 . S
C654 C653 1.396 . S
C654 C655 1.397 . S
C654 C670 1.509 . S
C655 C654 1.397 . S
C655 C656 1.412 . S
C655 C676 1.485 . S
C656 C655 1.412 . S
C656 C657 1.388 . S
C656 C682 1.490 . S
C657 C652 1.397 . S
C657 C656 1.388 . S
C657 C688 1.519 . S
C658 C652 1.492 . S
C658 C659 1.363 . S
C658 C663 1.390 . S
C659 H624 0.930 . S
C659 C658 1.363 . S
C659 C660 1.372 . S
C660 H625 0.930 . S
C660 C659 1.372 . S
C660 C661 1.383 . S
C661 C660 1.383 . S
C661 C662 1.395 . S
C662 H626 0.930 . S
C662 C661 1.395 . S
C662 C663 1.362 . S
C663 H627 0.930 . S
C663 C658 1.390 . S
C663 C662 1.362 . S
C664 C653 1.492 . S
C664 C665 1.377 . S
C664 C669 1.397 . S
C665 H628 0.931 . S
C665 C664 1.377 . S
C665 C666 1.376 . S
C666 H629 0.930 1_556 S
C666 C665 1.376 . S
C666 C667 1.376 . S
C667 C666 1.376 . S
C667 C668 1.378 . S
C667 C694 1.486 1_556 S
C668 H630 0.930 . S
C668 C667 1.378 . S
C668 C669 1.376 . S
C669 H631 0.929 . S
C669 C664 1.397 . S
C669 C668 1.376 . S
C670 C654 1.509 . S
C670 C671 1.391 . S
C670 C675 1.386 . S
C671 H632 0.930 . S
C671 C670 1.391 . S
C671 C672 1.375 . S
C672 H633 0.931 . S
C672 C671 1.375 . S
C672 C673 1.375 . S
C673 C672 1.375 . S
C673 C674 1.361 . S
C674 H634 0.930 . S
C674 C673 1.361 . S
C674 C675 1.399 . S
C675 H635 0.929 . S
C675 C670 1.386 . S
C675 C674 1.399 . S
C676 C655 1.485 . S
C676 C677 1.394 . S
C676 C681 1.360 . S
C677 H636 0.931 . S
C677 C676 1.394 . S
C677 C678 1.372 . S
C678 H637 0.930 . S
C678 C677 1.372 . S
C678 C679 1.397 . S
C679 C678 1.397 . S
C679 C680 1.390 . S
C679 C695 1.476 . S
C680 H638 0.930 . S
C680 C679 1.390 . S
C680 C681 1.366 . S
C681 H639 0.932 . S
C681 C676 1.360 . S
C681 C680 1.366 . S
C682 C656 1.490 . S
C682 C683 1.380 . S
C682 C687 1.386 . S
C683 H640 0.930 . S
C683 C682 1.380 . S
C683 C684 1.381 . S
C684 H641 0.929 . S
C684 C683 1.381 . S
C684 C685 1.371 . S
C685 C684 1.371 . S
C685 C686 1.380 . S
C686 H642 0.931 . S
C686 C685 1.380 . S
C686 C687 1.387 . S
C687 H643 0.930 . S
C687 C682 1.386 . S
C687 C686 1.387 . S
C688 C657 1.519 . S
C688 C689 1.377 . S
C688 C693 1.361 . S
C689 H644 0.929 . S
C689 C688 1.377 . S
C689 C690 1.386 . S
C690 H645 0.931 . S
C690 C689 1.386 . S
C690 C691 1.363 . S
C691 C690 1.363 . S
C691 C692 1.385 . S
C692 H646 0.930 . S
C692 C691 1.385 . S
C692 C693 1.396 . S
C693 H647 0.929 . S
C693 C688 1.361 . S
C693 C692 1.396 . S
C694 O648 1.300 . S
C694 O649 1.209 . S
C694 C667 1.486 1_554 S
C695 O650 1.199 . S
C695 O651 1.297 . S
C695 C679 1.476 . S
H696 O722 0.856 . S
H697 O725 0.854 . S
H698 C733 0.930 . S
H699 C734 0.930 . S
H700 C736 0.930 . S
H701 C737 0.930 . S
H702 C739 0.931 . S
H703 C740 0.930 . S
H704 C742 0.930 . S
H705 C743 0.929 . S
H706 C745 0.930 . S
H707 C746 0.931 . S
H708 C748 0.930 . S
H709 C749 0.929 . S
H710 C751 0.931 . S
H711 C752 0.930 . S
H712 C754 0.930 . S
H713 C755 0.932 . S
H714 C757 0.930 . S
H715 C758 0.929 . S
H716 C760 0.931 . S
H717 C761 0.930 . S
H718 C763 0.929 . S
H719 C764 0.931 . S
H720 C766 0.930 . S
H721 C767 0.929 . S
O722 H696 0.856 . S
O722 C768 1.300 . S
O723 C768 1.209 . S
O724 C769 1.199 . S
O725 H697 0.854 . S
O725 C769 1.297 . S
C726 C727 1.404 . S
C726 C731 1.397 . S
C726 C732 1.492 . S
C727 C726 1.404 . S
C727 C728 1.396 . S
C727 C738 1.492 . S
C728 C727 1.396 . S
C728 C729 1.397 . S
C728 C744 1.509 . S
C729 C728 1.397 . S
C729 C730 1.412 . S
C729 C750 1.485 . S
C730 C729 1.412 . S
C730 C731 1.388 . S
C730 C756 1.490 . S
C731 C726 1.397 . S
C731 C730 1.388 . S
C731 C762 1.519 . S
C732 C726 1.492 . S
C732 C733 1.363 . S
C732 C737 1.390 . S
C733 H698 0.930 . S
C733 C732 1.363 . S
C733 C734 1.372 . S
C734 H699 0.930 . S
C734 C733 1.372 . S
C734 C735 1.383 . S
C735 C734 1.383 . S
C735 C736 1.395 . S
C736 H700 0.930 . S
C736 C735 1.395 . S
C736 C737 1.362 . S
C737 H701 0.930 . S
C737 C732 1.390 . S
C737 C736 1.362 . S
C738 C727 1.492 . S
C738 C739 1.377 . S
C738 C743 1.397 . S
C739 H702 0.931 . S
C739 C738 1.377 . S
C739 C740 1.376 . S
C740 H703 0.930 . S
C740 C739 1.376 . S
C740 C741 1.376 . S
C741 C740 1.376 . S
C741 C742 1.378 . S
C741 C768 1.486 . S
C742 H704 0.930 . S
C742 C741 1.378 . S
C742 C743 1.376 . S
C743 H705 0.929 . S
C743 C738 1.397 . S
C743 C742 1.376 . S
C744 C728 1.509 . S
C744 C745 1.391 . S
C744 C749 1.386 . S
C745 H706 0.930 . S
C745 C744 1.391 . S
C745 C746 1.375 . S
C746 H707 0.931 . S
C746 C745 1.375 . S
C746 C747 1.375 . S
C747 C746 1.375 . S
C747 C748 1.361 . S
C748 H708 0.930 . S
C748 C747 1.361 . S
C748 C749 1.399 . S
C749 H709 0.929 . S
C749 C744 1.386 . S
C749 C748 1.399 . S
C750 C729 1.485 . S
C750 C751 1.394 . S
C750 C755 1.360 . S
C751 H710 0.931 . S
C751 C750 1.394 . S
C751 C752 1.372 . S
C752 H711 0.930 . S
C752 C751 1.372 . S
C752 C753 1.397 . S
C753 C752 1.397 . S
C753 C754 1.390 . S
C753 C769 1.476 . S
C754 H712 0.930 . S
C754 C753 1.390 . S
C754 C755 1.366 . S
C755 H713 0.932 . S
C755 C750 1.360 . S
C755 C754 1.366 . S
C756 C730 1.490 . S
C756 C757 1.380 . S
C756 C761 1.386 . S
C757 H714 0.930 . S
C757 C756 1.380 . S
C757 C758 1.381 . S
C758 H715 0.929 . S
C758 C757 1.381 . S
C758 C759 1.371 . S
C759 C758 1.371 . S
C759 C760 1.380 . S
C760 H716 0.931 . S
C760 C759 1.380 . S
C760 C761 1.387 . S
C761 H717 0.930 . S
C761 C756 1.386 . S
C761 C760 1.387 . S
C762 C731 1.519 . S
C762 C763 1.377 . S
C762 C767 1.361 . S
C763 H718 0.929 . S
C763 C762 1.377 . S
C763 C764 1.386 . S
C764 H719 0.931 . S
C764 C763 1.386 . S
C764 C765 1.363 . S
C765 C764 1.363 . S
C765 C766 1.385 . S
C766 H720 0.930 . S
C766 C765 1.385 . S
C766 C767 1.396 . S
C767 H721 0.929 . S
C767 C762 1.361 . S
C767 C766 1.396 . S
C768 O722 1.300 . S
C768 O723 1.209 . S
C768 C741 1.486 . S
C769 O724 1.199 . S
C769 O725 1.297 . S
C769 C753 1.476 . S
H770 O796 0.856 . S
H771 O799 0.854 . S
H772 C807 0.930 . S
H773 C808 0.930 . S
H774 C810 0.930 . S
H775 C811 0.930 . S
H776 C813 0.931 . S
H777 C814 0.930 . S
H778 C816 0.930 . S
H779 C817 0.929 . S
H780 C819 0.930 . S
H781 C820 0.931 . S
H782 C822 0.930 . S
H783 C823 0.929 . S
H784 C825 0.931 . S
H785 C826 0.930 . S
H786 C828 0.930 . S
H787 C829 0.932 . S
H788 C831 0.930 . S
H789 C832 0.929 . S
H790 C834 0.931 . S
H791 C835 0.930 . S
H792 C837 0.929 . S
H793 C838 0.931 . S
H794 C840 0.930 . S
H795 C841 0.929 . S
O796 H770 0.856 . S
O796 C842 1.300 . S
O797 C842 1.209 . S
O798 C843 1.199 . S
O799 H771 0.854 . S
O799 C843 1.297 . S
C800 C801 1.404 . S
C800 C805 1.397 . S
C800 C806 1.492 . S
C801 C800 1.404 . S
C801 C802 1.396 . S
C801 C812 1.492 . S
C802 C801 1.396 . S
C802 C803 1.397 . S
C802 C818 1.509 . S
C803 C802 1.397 . S
C803 C804 1.412 . S
C803 C824 1.485 . S
C804 C803 1.412 . S
C804 C805 1.388 . S
C804 C830 1.490 . S
C805 C800 1.397 . S
C805 C804 1.388 . S
C805 C836 1.519 . S
C806 C800 1.492 . S
C806 C807 1.363 . S
C806 C811 1.390 . S
C807 H772 0.930 . S
C807 C806 1.363 . S
C807 C808 1.372 . S
C808 H773 0.930 . S
C808 C807 1.372 . S
C808 C809 1.383 . S
C809 C808 1.383 . S
C809 C810 1.395 . S
C810 H774 0.930 . S
C810 C809 1.395 . S
C810 C811 1.362 . S
C811 H775 0.930 . S
C811 C806 1.390 . S
C811 C810 1.362 . S
C812 C801 1.492 . S
C812 C813 1.377 . S
C812 C817 1.397 . S
C813 H776 0.931 . S
C813 C812 1.377 . S
C813 C814 1.376 . S
C814 H777 0.930 . S
C814 C813 1.376 . S
C814 C815 1.376 . S
C815 C814 1.376 . S
C815 C816 1.378 . S
C815 C842 1.486 . S
C816 H778 0.930 . S
C816 C815 1.378 . S
C816 C817 1.376 . S
C817 H779 0.929 . S
C817 C812 1.397 . S
C817 C816 1.376 . S
C818 C802 1.509 . S
C818 C819 1.391 . S
C818 C823 1.386 . S
C819 H780 0.930 . S
C819 C818 1.391 . S
C819 C820 1.375 . S
C820 H781 0.931 . S
C820 C819 1.375 . S
C820 C821 1.375 . S
C821 C820 1.375 . S
C821 C822 1.361 . S
C822 H782 0.930 . S
C822 C821 1.361 . S
C822 C823 1.399 . S
C823 H783 0.929 . S
C823 C818 1.386 . S
C823 C822 1.399 . S
C824 C803 1.485 . S
C824 C825 1.394 . S
C824 C829 1.360 . S
C825 H784 0.931 . S
C825 C824 1.394 . S
C825 C826 1.372 . S
C826 H785 0.930 . S
C826 C825 1.372 . S
C826 C827 1.397 . S
C827 C826 1.397 . S
C827 C828 1.390 . S
C827 C843 1.476 . S
C828 H786 0.930 . S
C828 C827 1.390 . S
C828 C829 1.366 . S
C829 H787 0.932 . S
C829 C824 1.360 . S
C829 C828 1.366 . S
C830 C804 1.490 . S
C830 C831 1.380 . S
C830 C835 1.386 . S
C831 H788 0.930 . S
C831 C830 1.380 . S
C831 C832 1.381 . S
C832 H789 0.929 . S
C832 C831 1.381 . S
C832 C833 1.371 . S
C833 C832 1.371 . S
C833 C834 1.380 . S
C834 H790 0.931 . S
C834 C833 1.380 . S
C834 C835 1.387 . S
C835 H791 0.930 . S
C835 C830 1.386 . S
C835 C834 1.387 . S
C836 C805 1.519 . S
C836 C837 1.377 . S
C836 C841 1.361 . S
C837 H792 0.929 . S
C837 C836 1.377 . S
C837 C838 1.386 . S
C838 H793 0.931 . S
C838 C837 1.386 . S
C838 C839 1.363 . S
C839 C838 1.363 . S
C839 C840 1.385 . S
C840 H794 0.930 . S
C840 C839 1.385 . S
C840 C841 1.396 . S
C841 H795 0.929 . S
C841 C836 1.361 . S
C841 C840 1.396 . S
C842 O796 1.300 . S
C842 O797 1.209 . S
C842 C815 1.486 . S
C843 O798 1.199 . S
C843 O799 1.297 . S
C843 C827 1.476 . S
H844 O870 0.856 . S
H845 O873 0.854 . S
H846 C881 0.930 . S
H847 C882 0.930 . S
H848 C884 0.930 . S
H849 C885 0.930 . S
H850 C887 0.931 . S
H851 C888 0.930 . S
H852 C890 0.930 . S
H853 C891 0.929 . S
H854 C893 0.930 . S
H855 C894 0.931 . S
H856 C896 0.930 . S
H857 C897 0.929 . S
H858 C899 0.931 . S
H859 C900 0.930 . S
H860 C902 0.930 . S
H861 C903 0.932 . S
H862 C905 0.930 . S
H863 C906 0.929 . S
H864 C908 0.931 . S
H865 C909 0.930 . S
H866 C911 0.929 . S
H867 C912 0.931 . S
H868 C914 0.930 . S
H869 C915 0.929 . S
O870 H844 0.856 . S
O870 C916 1.300 . S
O871 C916 1.209 . S
O872 C917 1.199 . S
O873 H845 0.854 . S
O873 C917 1.297 . S
C874 C875 1.404 . S
C874 C879 1.397 . S
C874 C880 1.492 . S
C875 C874 1.404 . S
C875 C876 1.396 . S
C875 C886 1.492 . S
C876 C875 1.396 . S
C876 C877 1.397 . S
C876 C892 1.509 . S
C877 C876 1.397 . S
C877 C878 1.412 . S
C877 C898 1.485 . S
C878 C877 1.412 . S
C878 C879 1.388 . S
C878 C904 1.490 . S
C879 C874 1.397 . S
C879 C878 1.388 . S
C879 C910 1.519 . S
C880 C874 1.492 . S
C880 C881 1.363 . S
C880 C885 1.390 . S
C881 H846 0.930 . S
C881 C880 1.363 . S
C881 C882 1.372 . S
C882 H847 0.930 . S
C882 C881 1.372 . S
C882 C883 1.383 . S
C883 C882 1.383 . S
C883 C884 1.395 . S
C884 H848 0.930 . S
C884 C883 1.395 . S
C884 C885 1.362 . S
C885 H849 0.930 . S
C885 C880 1.390 . S
C885 C884 1.362 . S
C886 C875 1.492 . S
C886 C887 1.377 . S
C886 C891 1.397 . S
C887 H850 0.931 . S
C887 C886 1.377 . S
C887 C888 1.376 . S
C888 H851 0.930 . S
C888 C887 1.376 . S
C888 C889 1.376 . S
C889 C888 1.376 . S
C889 C890 1.378 . S
C889 C916 1.486 . S
C890 H852 0.930 . S
C890 C889 1.378 . S
C890 C891 1.376 . S
C891 H853 0.929 . S
C891 C886 1.397 . S
C891 C890 1.376 . S
C892 C876 1.509 . S
C892 C893 1.391 . S
C892 C897 1.386 . S
C893 H854 0.930 . S
C893 C892 1.391 . S
C893 C894 1.375 . S
C894 H855 0.931 . S
C894 C893 1.375 . S
C894 C895 1.375 . S
C895 C894 1.375 . S
C895 C896 1.361 . S
C896 H856 0.930 . S
C896 C895 1.361 . S
C896 C897 1.399 . S
C897 H857 0.929 . S
C897 C892 1.386 . S
C897 C896 1.399 . S
C898 C877 1.485 . S
C898 C899 1.394 . S
C898 C903 1.360 . S
C899 H858 0.931 . S
C899 C898 1.394 . S
C899 C900 1.372 . S
C900 H859 0.930 . S
C900 C899 1.372 . S
C900 C901 1.397 . S
C901 C900 1.397 . S
C901 C902 1.390 . S
C901 C917 1.476 . S
C902 H860 0.930 . S
C902 C901 1.390 . S
C902 C903 1.366 . S
C903 H861 0.932 . S
C903 C898 1.360 . S
C903 C902 1.366 . S
C904 C878 1.490 . S
C904 C905 1.380 . S
C904 C909 1.386 . S
C905 H862 0.930 . S
C905 C904 1.380 . S
C905 C906 1.381 . S
C906 H863 0.929 . S
C906 C905 1.381 . S
C906 C907 1.371 . S
C907 C906 1.371 . S
C907 C908 1.380 . S
C908 H864 0.931 . S
C908 C907 1.380 . S
C908 C909 1.387 . S
C909 H865 0.930 . S
C909 C904 1.386 . S
C909 C908 1.387 . S
C910 C879 1.519 . S
C910 C911 1.377 . S
C910 C915 1.361 . S
C911 H866 0.929 . S
C911 C910 1.377 . S
C911 C912 1.386 . S
C912 H867 0.931 . S
C912 C911 1.386 . S
C912 C913 1.363 . S
C913 C912 1.363 . S
C913 C914 1.385 . S
C914 H868 0.930 . S
C914 C913 1.385 . S
C914 C915 1.396 . S
C915 H869 0.929 . S
C915 C910 1.361 . S
C915 C914 1.396 . S
C916 O870 1.300 . S
C916 O871 1.209 . S
C916 C889 1.486 . S
C917 O872 1.199 . S
C917 O873 1.297 . S
C917 C901 1.476 . S
H918 O944 0.856 . S
H919 O947 0.854 . S
H920 C955 0.930 . S
H921 C956 0.930 . S
H922 C958 0.930 . S
H923 C959 0.930 . S
H924 C961 0.931 . S
H925 C962 0.930 1_655 S
H926 C964 0.930 . S
H927 C965 0.929 . S
H928 C967 0.930 . S
H929 C968 0.931 1_655 S
H930 C970 0.930 . S
H931 C971 0.929 . S
H932 C973 0.931 . S
H933 C974 0.930 . S
H934 C976 0.930 . S
H935 C977 0.932 . S
H936 C979 0.930 . S
H937 C980 0.929 . S
H938 C982 0.931 . S
H939 C983 0.930 . S
H940 C985 0.929 . S
H941 C986 0.931 . S
H942 C988 0.930 . S
H943 C989 0.929 . S
O944 H918 0.856 . S
O944 C990 1.300 . S
O945 C990 1.209 . S
O946 C991 1.199 1_655 S
O947 H919 0.854 . S
O947 C991 1.297 . S
C948 C949 1.404 . S
C948 C953 1.393 . S
C948 C954 1.492 . S
C949 C948 1.404 . S
C949 C950 1.396 . S
C949 C960 1.492 . S
C950 C949 1.396 . S
C950 C951 1.397 . S
C950 C966 1.509 . S
C951 C950 1.397 . S
C951 C952 1.428 . S
C951 C972 1.485 . S
C952 C951 1.428 . S
C952 C953 1.401 . S
C952 C978 1.491 1_455 S
C953 C948 1.393 . S
C953 C952 1.401 . S
C953 C984 1.484 1_455 S
C954 C948 1.492 . S
C954 C955 1.363 1_455 S
C954 C959 1.390 . S
C955 H920 0.930 . S
C955 C954 1.363 1_655 S
C955 C956 1.372 . S
C956 H921 0.930 . S
C956 C955 1.372 . S
C956 C957 1.383 . S
C957 C956 1.383 . S
C957 C958 1.395 1_655 S
C958 H922 0.930 . S
C958 C957 1.395 1_455 S
C958 C959 1.362 . S
C959 H923 0.930 . S
C959 C954 1.390 . S
C959 C958 1.362 . S
C960 C949 1.492 . S
C960 C961 1.377 1_455 S
C960 C965 1.397 . S
C961 H924 0.931 . S
C961 C960 1.377 1_655 S
C961 C962 1.376 1_655 S
C962 H925 0.930 1_455 S
C962 C961 1.376 1_455 S
C962 C963 1.376 . S
C963 C962 1.376 . S
C963 C964 1.378 . S
C963 C990 1.486 . S
C964 H926 0.930 . S
C964 C963 1.378 . S
C964 C965 1.376 . S
C965 H927 0.929 . S
C965 C960 1.397 . S
C965 C964 1.376 . S
C966 C950 1.509 . S
C966 C967 1.391 1_455 S
C966 C971 1.386 . S
C967 H928 0.930 . S
C967 C966 1.391 1_655 S
C967 C968 1.375 1_655 S
C968 H929 0.931 1_455 S
C968 C967 1.375 1_455 S
C968 C969 1.375 . S
C969 C968 1.375 . S
C969 C970 1.361 . S
C970 H930 0.930 . S
C970 C969 1.361 . S
C970 C971 1.399 . S
C971 H931 0.929 . S
C971 C966 1.386 . S
C971 C970 1.399 . S
C972 C951 1.485 . S
C972 C973 1.394 1_455 S
C972 C977 1.360 . S
C973 H932 0.931 . S
C973 C972 1.394 1_655 S
C973 C974 1.372 . S
C974 H933 0.930 . S
C974 C973 1.372 . S
C974 C975 1.397 1_655 S
C975 C974 1.397 1_455 S
C975 C976 1.390 . S
C975 C991 1.476 . S
C976 H934 0.930 . S
C976 C975 1.390 . S
C976 C977 1.366 . S
C977 H935 0.932 . S
C977 C972 1.360 . S
C977 C976 1.366 . S
C978 C952 1.491 1_655 S
C978 C979 1.380 . S
C978 C983 1.386 1_655 S
C979 H936 0.930 . S
C979 C978 1.380 . S
C979 C980 1.381 . S
C980 H937 0.929 . S
C980 C979 1.381 . S
C980 C981 1.371 . S
C981 C980 1.371 . S
C981 C982 1.380 1_655 S
C982 H938 0.931 . S
C982 C981 1.380 1_455 S
C982 C983 1.387 . S
C983 H939 0.930 . S
C983 C978 1.386 1_455 S
C983 C982 1.387 . S
C984 C953 1.484 1_655 S
C984 C985 1.418 . S
C984 C989 1.335 1_655 S
C985 H940 0.929 . S
C985 C984 1.418 . S
C985 C986 1.386 . S
C986 H941 0.931 . S
C986 C985 1.386 . S
C986 C987 1.398 . S
C987 C986 1.398 . S
C987 C988 1.332 1_655 S
C988 H942 0.930 . S
C988 C987 1.332 1_455 S
C988 C989 1.396 . S
C989 H943 0.929 . S
C989 C984 1.335 1_455 S
C989 C988 1.396 . S
C990 O944 1.300 . S
C990 O945 1.209 . S
C990 C963 1.486 . S
C991 O946 1.199 1_455 S
C991 O947 1.297 . S
C991 C975 1.476 . S
H992 O1018 0.856 . S
H993 O1021 0.854 . S
H994 C1029 0.930 . S
H995 C1030 0.930 . S
H996 C1032 0.930 . S
H997 C1033 0.930 . S
H998 C1035 0.931 . S
H999 C1036 0.930 . S
H1000 C1038 0.930 . S
H1001 C1039 0.929 . S
H1002 C1041 0.930 . S
H1003 C1042 0.931 . S
H1004 C1044 0.930 . S
H1005 C1045 0.929 . S
H1006 C1047 0.931 . S
H1007 C1048 0.930 . S
H1008 C1050 0.930 . S
H1009 C1051 0.932 . S
H1010 C1053 0.930 . S
H1011 C1054 0.929 . S
H1012 C1056 0.931 . S
H1013 C1057 0.930 . S
H1014 C1059 0.929 . S
H1015 C1060 0.931 . S
H1016 C1062 0.930 . S
H1017 C1063 0.929 . S
O1018 H992 0.856 . S
O1018 C1064 1.300 . S
O1019 C1064 1.209 . S
O1020 C1065 1.199 . S
O1021 H993 0.854 . S
O1021 C1065 1.297 . S
C1022 C1023 1.404 . S
C1022 C1027 1.397 . S
C1022 C1028 1.492 . S
C1023 C1022 1.404 . S
C1023 C1024 1.396 . S
C1023 C1034 1.492 . S
C1024 C1023 1.396 . S
C1024 C1025 1.397 . S
C1024 C1040 1.509 . S
C1025 C1024 1.397 . S
C1025 C1026 1.412 . S
C1025 C1046 1.485 . S
C1026 C1025 1.412 . S
C1026 C1027 1.388 . S
C1026 C1052 1.490 . S
C1027 C1022 1.397 . S
C1027 C1026 1.388 . S
C1027 C1058 1.519 . S
C1028 C1022 1.492 . S
C1028 C1029 1.363 . S
C1028 C1033 1.390 . S
C1029 H994 0.930 . S
C1029 C1028 1.363 . S
C1029 C1030 1.372 . S
C1030 H995 0.930 . S
C1030 C1029 1.372 . S
C1030 C1031 1.383 . S
C1031 C1030 1.383 . S
C1031 C1032 1.395 . S
C1032 H996 0.930 . S
C1032 C1031 1.395 . S
C1032 C1033 1.362 . S
C1033 H997 0.930 . S
C1033 C1028 1.390 . S
C1033 C1032 1.362 . S
C1034 C1023 1.492 . S
C1034 C1035 1.377 . S
C1034 C1039 1.397 . S
C1035 H998 0.931 . S
C1035 C1034 1.377 . S
C1035 C1036 1.376 . S
C1036 H999 0.930 . S
C1036 C1035 1.376 . S
C1036 C1037 1.376 . S
C1037 C1036 1.376 . S
C1037 C1038 1.378 . S
C1037 C1064 1.486 . S
C1038 H1000 0.930 . S
C1038 C1037 1.378 . S
C1038 C1039 1.376 . S
C1039 H1001 0.929 . S
C1039 C1034 1.397 . S
C1039 C1038 1.376 . S
C1040 C1024 1.509 . S
C1040 C1041 1.391 . S
C1040 C1045 1.386 . S
C1041 H1002 0.930 . S
C1041 C1040 1.391 . S
C1041 C1042 1.375 . S
C1042 H1003 0.931 . S
C1042 C1041 1.375 . S
C1042 C1043 1.375 . S
C1043 C1042 1.375 . S
C1043 C1044 1.361 . S
C1044 H1004 0.930 . S
C1044 C1043 1.361 . S
C1044 C1045 1.399 . S
C1045 H1005 0.929 . S
C1045 C1040 1.386 . S
C1045 C1044 1.399 . S
C1046 C1025 1.485 . S
C1046 C1047 1.394 . S
C1046 C1051 1.360 . S
C1047 H1006 0.931 . S
C1047 C1046 1.394 . S
C1047 C1048 1.372 . S
C1048 H1007 0.930 . S
C1048 C1047 1.372 . S
C1048 C1049 1.397 . S
C1049 C1048 1.397 . S
C1049 C1050 1.390 . S
C1049 C1065 1.476 . S
C1050 H1008 0.930 . S
C1050 C1049 1.390 . S
C1050 C1051 1.366 . S
C1051 H1009 0.932 . S
C1051 C1046 1.360 . S
C1051 C1050 1.366 . S
C1052 C1026 1.490 . S
C1052 C1053 1.380 . S
C1052 C1057 1.386 . S
C1053 H1010 0.930 . S
C1053 C1052 1.380 . S
C1053 C1054 1.381 . S
C1054 H1011 0.929 . S
C1054 C1053 1.381 . S
C1054 C1055 1.371 . S
C1055 C1054 1.371 . S
C1055 C1056 1.380 . S
C1056 H1012 0.931 . S
C1056 C1055 1.380 . S
C1056 C1057 1.387 . S
C1057 H1013 0.930 . S
C1057 C1052 1.386 . S
C1057 C1056 1.387 . S
C1058 C1027 1.519 . S
C1058 C1059 1.377 . S
C1058 C1063 1.361 . S
C1059 H1014 0.929 . S
C1059 C1058 1.377 . S
C1059 C1060 1.386 . S
C1060 H1015 0.931 . S
C1060 C1059 1.386 . S
C1060 C1061 1.363 . S
C1061 C1060 1.363 . S
C1061 C1062 1.385 . S
C1062 H1016 0.930 . S
C1062 C1061 1.385 . S
C1062 C1063 1.396 . S
C1063 H1017 0.929 . S
C1063 C1058 1.361 . S
C1063 C1062 1.396 . S
C1064 O1018 1.300 . S
C1064 O1019 1.209 . S
C1064 C1037 1.486 . S
C1065 O1020 1.199 . S
C1065 O1021 1.297 . S
C1065 C1049 1.476 . S
H1066 O1092 0.856 . S
H1067 O1095 0.854 . S
H1068 C1103 0.930 . S
H1069 C1104 0.930 . S
H1070 C1106 0.930 . S
H1071 C1107 0.930 . S
H1072 C1109 0.931 . S
H1073 C1110 0.940 . S
H1074 C1112 0.930 . S
H1075 C1113 0.929 . S
H1076 C1115 0.930 . S
H1077 C1116 0.931 . S
H1078 C1118 0.930 . S
H1079 C1119 0.929 . S
H1080 C1121 0.931 . S
H1081 C1122 0.930 . S
H1082 C1124 0.930 . S
H1083 C1125 0.932 . S
H1084 C1127 0.930 . S
H1085 C1128 0.929 . S
H1086 C1130 0.931 . S
H1087 C1131 0.930 . S
H1088 C1133 0.929 . S
H1089 C1134 0.931 . S
H1090 C1136 0.930 . S
H1091 C1137 0.929 . S
O1092 H1066 0.856 . S
O1092 C1138 1.300 . S
O1093 C1138 1.209 . S
O1094 C1139 1.199 1_545 S
O1095 H1067 0.854 . S
O1095 C1139 1.297 . S
C1096 C1097 1.404 . S
C1096 C1101 1.413 . S
C1096 C1102 1.492 . S
C1097 C1096 1.404 . S
C1097 C1098 1.396 . S
C1097 C1108 1.492 . S
C1098 C1097 1.396 . S
C1098 C1099 1.397 . S
C1098 C1114 1.509 . S
C1099 C1098 1.397 . S
C1099 C1100 1.412 1_565 S
C1099 C1120 1.485 . S
C1100 C1099 1.412 1_545 S
C1100 C1101 1.363 1_545 S
C1100 C1126 1.491 . S
C1101 C1096 1.413 . S
C1101 C1100 1.363 1_565 S
C1101 C1132 1.535 . S
C1102 C1096 1.492 . S
C1102 C1103 1.363 1_565 S
C1102 C1107 1.390 . S
C1103 H1068 0.930 . S
C1103 C1102 1.363 1_545 S
C1103 C1104 1.372 . S
C1104 H1069 0.930 . S
C1104 C1103 1.372 . S
C1104 C1105 1.451 . S
C1105 C1104 1.451 . S
C1105 C1106 1.362 1_545 S
C1106 H1070 0.930 . S
C1106 C1105 1.362 1_565 S
C1106 C1107 1.362 . S
C1107 H1071 0.930 . S
C1107 C1102 1.390 . S
C1107 C1106 1.362 . S
C1108 C1097 1.492 . S
C1108 C1109 1.377 1_565 S
C1108 C1113 1.397 . S
C1109 H1072 0.931 . S
C1109 C1108 1.377 1_545 S
C1109 C1110 1.381 . S
C1110 H1073 0.940 . S
C1110 C1109 1.381 . S
C1110 C1111 1.361 1_545 S
C1111 C1110 1.361 1_565 S
C1111 C1112 1.378 . S
C1111 C1138 1.486 . S
C1112 H1074 0.930 . S
C1112 C1111 1.378 . S
C1112 C1113 1.376 . S
C1113 H1075 0.929 . S
C1113 C1108 1.397 . S
C1113 C1112 1.376 . S
C1114 C1098 1.509 . S
C1114 C1115 1.391 1_565 S
C1114 C1119 1.386 . S
C1115 H1076 0.930 . S
C1115 C1114 1.391 1_545 S
C1115 C1116 1.375 . S
C1116 H1077 0.931 . S
C1116 C1115 1.375 . S
C1116 C1117 1.375 1_545 S
C1117 C1116 1.375 1_565 S
C1117 C1118 1.361 . S
C1118 H1078 0.930 . S
C1118 C1117 1.361 . S
C1118 C1119 1.399 . S
C1119 H1079 0.929 . S
C1119 C1114 1.386 . S
C1119 C1118 1.399 . S
C1120 C1099 1.485 . S
C1120 C1121 1.394 1_565 S
C1120 C1125 1.360 . S
C1121 H1080 0.931 . S
C1121 C1120 1.394 1_545 S
C1121 C1122 1.372 . S
C1122 H1081 0.930 . S
C1122 C1121 1.372 . S
C1122 C1123 1.397 1_545 S
C1123 C1122 1.397 1_565 S
C1123 C1124 1.390 . S
C1123 C1139 1.476 . S
C1124 H1082 0.930 . S
C1124 C1123 1.390 . S
C1124 C1125 1.366 . S
C1125 H1083 0.932 . S
C1125 C1120 1.360 . S
C1125 C1124 1.366 . S
C1126 C1100 1.491 . S
C1126 C1127 1.380 . S
C1126 C1131 1.386 1_545 S
C1127 H1084 0.930 . S
C1127 C1126 1.380 . S
C1127 C1128 1.381 . S
C1128 H1085 0.929 . S
C1128 C1127 1.381 . S
C1128 C1129 1.371 . S
C1129 C1128 1.371 . S
C1129 C1130 1.380 1_545 S
C1130 H1086 0.931 . S
C1130 C1129 1.380 1_565 S
C1130 C1131 1.387 . S
C1131 H1087 0.930 . S
C1131 C1126 1.386 1_565 S
C1131 C1130 1.387 . S
C1132 C1101 1.535 . S
C1132 C1133 1.378 1_565 S
C1132 C1137 1.359 . S
C1133 H1088 0.929 . S
C1133 C1132 1.378 1_545 S
C1133 C1134 1.386 . S
C1134 H1089 0.931 . S
C1134 C1133 1.386 . S
C1134 C1135 1.363 1_545 S
C1135 C1134 1.363 1_565 S
C1135 C1136 1.385 . S
C1136 H1090 0.930 . S
C1136 C1135 1.385 . S
C1136 C1137 1.396 . S
C1137 H1091 0.929 . S
C1137 C1132 1.359 . S
C1137 C1136 1.396 . S
C1138 O1092 1.300 . S
C1138 O1093 1.209 . S
C1138 C1111 1.486 . S
C1139 O1094 1.199 1_565 S
C1139 O1095 1.297 . S
C1139 C1123 1.476 . S
H1140 O1166 0.856 . S
H1141 O1169 0.854 . S
H1142 C1177 0.930 . S
H1143 C1178 0.930 . S
H1144 C1180 0.930 . S
H1145 C1181 0.930 . S
H1146 C1183 0.931 . S
H1147 C1184 0.930 . S
H1148 C1186 0.930 . S
H1149 C1187 0.929 . S
H1150 C1189 0.930 . S
H1151 C1190 0.931 . S
H1152 C1192 0.930 . S
H1153 C1193 0.929 . S
H1154 C1195 0.931 . S
H1155 C1196 0.930 . S
H1156 C1198 0.930 . S
H1157 C1199 0.932 . S
H1158 C1201 0.930 . S
H1159 C1202 0.929 . S
H1160 C1204 0.931 . S
H1161 C1205 0.930 . S
H1162 C1207 0.929 . S
H1163 C1208 0.931 . S
H1164 C1210 0.930 . S
H1165 C1211 0.929 . S
O1166 H1140 0.856 . S
O1166 C1212 1.300 . S
O1167 C1212 1.209 1_565 S
O1168 C1213 1.199 1_545 S
O1169 H1141 0.854 . S
O1169 C1213 1.297 . S
C1170 C1171 1.404 . S
C1170 C1175 1.396 1_545 S
C1170 C1176 1.492 . S
C1171 C1170 1.404 . S
C1171 C1172 1.413 . S
C1171 C1182 1.492 . S
C1172 C1171 1.413 . S
C1172 C1173 1.376 1_545 S
C1172 C1188 1.499 . S
C1173 C1172 1.376 1_565 S
C1173 C1174 1.412 . S
C1173 C1194 1.525 . S
C1174 C1173 1.412 . S
C1174 C1175 1.354 . S
C1174 C1200 1.505 . S
C1175 C1170 1.396 1_565 S
C1175 C1174 1.354 . S
C1175 C1206 1.518 . S
C1176 C1170 1.492 . S
C1176 C1177 1.363 . S
C1176 C1181 1.390 1_545 S
C1177 H1142 0.930 . S
C1177 C1176 1.363 . S
C1177 C1178 1.372 . S
C1178 H1143 0.930 . S
C1178 C1177 1.372 . S
C1178 C1179 1.383 . S
C1179 C1178 1.383 . S
C1179 C1180 1.395 1_545 S
C1180 H1144 0.930 . S
C1180 C1179 1.395 1_565 S
C1180 C1181 1.362 . S
C1181 H1145 0.930 . S
C1181 C1176 1.390 1_565 S
C1181 C1180 1.362 . S
C1182 C1171 1.492 . S
C1182 C1183 1.377 . S
C1182 C1187 1.397 1_545 S
C1183 H1146 0.931 . S
C1183 C1182 1.377 . S
C1183 C1184 1.376 . S
C1184 H1147 0.930 . S
C1184 C1183 1.376 . S
C1184 C1185 1.376 . S
C1185 C1184 1.376 . S
C1185 C1186 1.378 1_545 S
C1185 C1212 1.486 . S
C1186 H1148 0.930 . S
C1186 C1185 1.378 1_565 S
C1186 C1187 1.376 . S
C1187 H1149 0.929 . S
C1187 C1182 1.397 1_565 S
C1187 C1186 1.376 . S
C1188 C1172 1.499 . S
C1188 C1189 1.391 . S
C1188 C1193 1.387 1_545 S
C1189 H1150 0.930 . S
C1189 C1188 1.391 . S
C1189 C1190 1.375 . S
C1190 H1151 0.931 . S
C1190 C1189 1.375 . S
C1190 C1191 1.342 1_545 S
C1191 C1190 1.342 1_565 S
C1191 C1192 1.380 . S
C1192 H1152 0.930 . S
C1192 C1191 1.380 . S
C1192 C1193 1.399 . S
C1193 H1153 0.929 . S
C1193 C1188 1.387 1_565 S
C1193 C1192 1.399 . S
C1194 C1173 1.525 . S
C1194 C1195 1.394 1_565 S
C1194 C1199 1.360 . S
C1195 H1154 0.931 . S
C1195 C1194 1.394 1_545 S
C1195 C1196 1.372 . S
C1196 H1155 0.930 . S
C1196 C1195 1.372 . S
C1196 C1197 1.397 1_545 S
C1197 C1196 1.397 1_565 S
C1197 C1198 1.390 . S
C1197 C1213 1.476 . S
C1198 H1156 0.930 . S
C1198 C1197 1.390 . S
C1198 C1199 1.366 . S
C1199 H1157 0.932 . S
C1199 C1194 1.360 . S
C1199 C1198 1.366 . S
C1200 C1174 1.505 . S
C1200 C1201 1.380 1_565 S
C1200 C1205 1.386 . S
C1201 H1158 0.930 . S
C1201 C1200 1.380 1_545 S
C1201 C1202 1.381 . S
C1202 H1159 0.929 . S
C1202 C1201 1.381 . S
C1202 C1203 1.357 1_545 S
C1203 C1202 1.357 1_565 S
C1203 C1204 1.391 . S
C1204 H1160 0.931 . S
C1204 C1203 1.391 . S
C1204 C1205 1.387 . S
C1205 H1161 0.930 . S
C1205 C1200 1.386 . S
C1205 C1204 1.387 . S
C1206 C1175 1.518 . S
C1206 C1207 1.377 1_565 S
C1206 C1211 1.361 . S
C1207 H1162 0.929 . S
C1207 C1206 1.377 1_545 S
C1207 C1208 1.386 . S
C1208 H1163 0.931 . S
C1208 C1207 1.386 . S
C1208 C1209 1.363 1_545 S
C1209 C1208 1.363 1_565 S
C1209 C1210 1.385 . S
C1210 H1164 0.930 . S
C1210 C1209 1.385 . S
C1210 C1211 1.396 . S
C1211 H1165 0.929 . S
C1211 C1206 1.361 . S
C1211 C1210 1.396 . S
C1212 O1166 1.300 . S
C1212 O1167 1.209 1_545 S
C1212 C1185 1.486 . S
C1213 O1168 1.199 1_565 S
C1213 O1169 1.297 . S
C1213 C1197 1.476 . S
H1214 O1240 0.856 . S
H1215 O1243 0.854 . S
H1216 C1251 0.930 . S
H1217 C1252 0.930 . S
H1218 C1254 0.930 . S
H1219 C1255 0.930 . S
H1220 C1257 0.931 . S
H1221 C1258 0.930 . S
H1222 C1260 0.930 . S
H1223 C1261 0.929 . S
H1224 C1263 0.930 . S
H1225 C1264 0.931 . S
H1226 C1266 0.930 . S
H1227 C1267 0.929 . S
H1228 C1269 0.931 . S
H1229 C1270 0.930 . S
H1230 C1272 0.930 . S
H1231 C1273 0.932 . S
H1232 C1275 0.930 . S
H1233 C1276 0.929 . S
H1234 C1278 0.931 . S
H1235 C1279 0.930 . S
H1236 C1281 0.929 . S
H1237 C1282 0.931 . S
H1238 C1284 0.930 . S
H1239 C1285 0.929 . S
O1240 H1214 0.856 . S
O1240 C1286 1.300 . S
O1241 C1286 1.209 1_455 S
O1242 C1287 1.199 1_655 S
O1243 H1215 0.854 . S
O1243 C1287 1.297 . S
C1244 C1245 1.404 . S
C1244 C1249 1.398 . S
C1244 C1250 1.492 . S
C1245 C1244 1.404 . S
C1245 C1246 1.396 . S
C1245 C1256 1.492 . S
C1246 C1245 1.396 . S
C1246 C1247 1.395 . S
C1246 C1262 1.509 . S
C1247 C1246 1.395 . S
C1247 C1248 1.392 1_655 S
C1247 C1268 1.524 1_655 S
C1248 C1247 1.392 1_455 S
C1248 C1249 1.402 1_455 S
C1248 C1274 1.486 . S
C1249 C1244 1.398 . S
C1249 C1248 1.402 1_655 S
C1249 C1280 1.522 1_655 S
C1250 C1244 1.492 . S
C1250 C1251 1.363 . S
C1250 C1255 1.390 1_655 S
C1251 H1216 0.930 . S
C1251 C1250 1.363 . S
C1251 C1252 1.372 . S
C1252 H1217 0.930 . S
C1252 C1251 1.372 . S
C1252 C1253 1.383 . S
C1253 C1252 1.383 . S
C1253 C1254 1.395 1_655 S
C1254 H1218 0.930 . S
C1254 C1253 1.395 1_455 S
C1254 C1255 1.362 . S
C1255 H1219 0.930 . S
C1255 C1250 1.390 1_455 S
C1255 C1254 1.362 . S
C1256 C1245 1.492 . S
C1256 C1257 1.377 . S
C1256 C1261 1.397 1_655 S
C1257 H1220 0.931 . S
C1257 C1256 1.377 . S
C1257 C1258 1.376 . S
C1258 H1221 0.930 . S
C1258 C1257 1.376 . S
C1258 C1259 1.376 . S
C1259 C1258 1.376 . S
C1259 C1260 1.378 1_655 S
C1259 C1286 1.486 . S
C1260 H1222 0.930 . S
C1260 C1259 1.378 1_455 S
C1260 C1261 1.376 . S
C1261 H1223 0.929 . S
C1261 C1256 1.397 1_455 S
C1261 C1260 1.376 . S
C1262 C1246 1.509 . S
C1262 C1263 1.391 . S
C1262 C1267 1.386 1_655 S
C1263 H1224 0.930 . S
C1263 C1262 1.391 . S
C1263 C1264 1.375 . S
C1264 H1225 0.931 . S
C1264 C1263 1.375 . S
C1264 C1265 1.375 . S
C1265 C1264 1.375 . S
C1265 C1266 1.361 1_655 S
C1266 H1226 0.930 . S
C1266 C1265 1.361 1_455 S
C1266 C1267 1.399 . S
C1267 H1227 0.929 . S
C1267 C1262 1.386 1_455 S
C1267 C1266 1.399 . S
C1268 C1247 1.524 1_455 S
C1268 C1269 1.347 1_455 S
C1268 C1273 1.380 . S
C1269 H1228 0.931 . S
C1269 C1268 1.347 1_655 S
C1269 C1270 1.372 . S
C1270 H1229 0.930 . S
C1270 C1269 1.372 . S
C1270 C1271 1.397 1_655 S
C1271 C1270 1.397 1_455 S
C1271 C1272 1.390 . S
C1271 C1287 1.476 . S
C1272 H1230 0.930 . S
C1272 C1271 1.390 . S
C1272 C1273 1.366 . S
C1273 H1231 0.932 . S
C1273 C1268 1.380 . S
C1273 C1272 1.366 . S
C1274 C1248 1.486 . S
C1274 C1275 1.380 1_455 S
C1274 C1279 1.386 . S
C1275 H1232 0.930 . S
C1275 C1274 1.380 1_655 S
C1275 C1276 1.381 . S
C1276 H1233 0.929 . S
C1276 C1275 1.381 . S
C1276 C1277 1.371 1_655 S
C1277 C1276 1.371 1_455 S
C1277 C1278 1.380 . S
C1278 H1234 0.931 . S
C1278 C1277 1.380 . S
C1278 C1279 1.387 . S
C1279 H1235 0.930 . S
C1279 C1274 1.386 . S
C1279 C1278 1.387 . S
C1280 C1249 1.522 1_455 S
C1280 C1281 1.377 1_455 S
C1280 C1285 1.361 . S
C1281 H1236 0.929 . S
C1281 C1280 1.377 1_655 S
C1281 C1282 1.386 . S
C1282 H1237 0.931 . S
C1282 C1281 1.386 . S
C1282 C1283 1.363 1_655 S
C1283 C1282 1.363 1_455 S
C1283 C1284 1.385 . S
C1284 H1238 0.930 . S
C1284 C1283 1.385 . S
C1284 C1285 1.396 . S
C1285 H1239 0.929 . S
C1285 C1280 1.361 . S
C1285 C1284 1.396 . S
C1286 O1240 1.300 . S
C1286 O1241 1.209 1_655 S
C1286 C1259 1.486 . S
C1287 O1242 1.199 1_455 S
C1287 O1243 1.297 . S
C1287 C1271 1.476 . S
H1288 O1314 0.856 . S
H1289 O1317 0.854 . S
H1290 C1325 0.930 . S
H1291 C1326 0.930 . S
H1292 C1328 0.930 . S
H1293 C1329 0.930 . S
H1294 C1331 0.931 . S
H1295 C1332 0.930 . S
H1296 C1334 0.930 . S
H1297 C1335 0.929 . S
H1298 C1337 0.930 . S
H1299 C1338 0.931 . S
H1300 C1340 0.930 . S
H1301 C1341 0.929 . S
H1302 C1343 0.931 . S
H1303 C1344 0.930 . S
H1304 C1346 0.930 . S
H1305 C1347 0.932 . S
H1306 C1349 0.930 . S
H1307 C1350 0.929 . S
H1308 C1352 0.931 . S
H1309 C1353 0.930 . S
H1310 C1355 0.929 . S
H1311 C1356 0.931 . S
H1312 C1358 0.930 . S
H1313 C1359 0.929 . S
O1314 H1288 0.856 . S
O1314 C1360 1.300 . S
O1315 C1360 1.209 . S
O1316 C1361 1.199 . S
O1317 H1289 0.854 . S
O1317 C1361 1.297 . S
C1318 C1319 1.404 . S
C1318 C1323 1.397 . S
C1318 C1324 1.492 . S
C1319 C1318 1.404 . S
C1319 C1320 1.396 . S
C1319 C1330 1.492 . S
C1320 C1319 1.396 . S
C1320 C1321 1.397 . S
C1320 C1336 1.509 . S
C1321 C1320 1.397 . S
C1321 C1322 1.412 . S
C1321 C1342 1.485 . S
C1322 C1321 1.412 . S
C1322 C1323 1.388 . S
C1322 C1348 1.490 . S
C1323 C1318 1.397 . S
C1323 C1322 1.388 . S
C1323 C1354 1.519 . S
C1324 C1318 1.492 . S
C1324 C1325 1.363 . S
C1324 C1329 1.390 . S
C1325 H1290 0.930 . S
C1325 C1324 1.363 . S
C1325 C1326 1.372 . S
C1326 H1291 0.930 . S
C1326 C1325 1.372 . S
C1326 C1327 1.383 . S
C1327 C1326 1.383 . S
C1327 C1328 1.395 . S
C1328 H1292 0.930 . S
C1328 C1327 1.395 . S
C1328 C1329 1.362 . S
C1329 H1293 0.930 . S
C1329 C1324 1.390 . S
C1329 C1328 1.362 . S
C1330 C1319 1.492 . S
C1330 C1331 1.377 . S
C1330 C1335 1.397 . S
C1331 H1294 0.931 . S
C1331 C1330 1.377 . S
C1331 C1332 1.376 . S
C1332 H1295 0.930 . S
C1332 C1331 1.376 . S
C1332 C1333 1.376 . S
C1333 C1332 1.376 . S
C1333 C1334 1.378 . S
C1333 C1360 1.486 . S
C1334 H1296 0.930 . S
C1334 C1333 1.378 . S
C1334 C1335 1.376 . S
C1335 H1297 0.929 . S
C1335 C1330 1.397 . S
C1335 C1334 1.376 . S
C1336 C1320 1.509 . S
C1336 C1337 1.391 . S
C1336 C1341 1.386 . S
C1337 H1298 0.930 . S
C1337 C1336 1.391 . S
C1337 C1338 1.375 . S
C1338 H1299 0.931 . S
C1338 C1337 1.375 . S
C1338 C1339 1.375 . S
C1339 C1338 1.375 . S
C1339 C1340 1.361 . S
C1340 H1300 0.930 . S
C1340 C1339 1.361 . S
C1340 C1341 1.399 . S
C1341 H1301 0.929 . S
C1341 C1336 1.386 . S
C1341 C1340 1.399 . S
C1342 C1321 1.485 . S
C1342 C1343 1.394 . S
C1342 C1347 1.360 . S
C1343 H1302 0.931 . S
C1343 C1342 1.394 . S
C1343 C1344 1.372 . S
C1344 H1303 0.930 . S
C1344 C1343 1.372 . S
C1344 C1345 1.397 . S
C1345 C1344 1.397 . S
C1345 C1346 1.390 . S
C1345 C1361 1.476 . S
C1346 H1304 0.930 . S
C1346 C1345 1.390 . S
C1346 C1347 1.366 . S
C1347 H1305 0.932 . S
C1347 C1342 1.360 . S
C1347 C1346 1.366 . S
C1348 C1322 1.490 . S
C1348 C1349 1.380 . S
C1348 C1353 1.386 . S
C1349 H1306 0.930 . S
C1349 C1348 1.380 . S
C1349 C1350 1.381 . S
C1350 H1307 0.929 . S
C1350 C1349 1.381 . S
C1350 C1351 1.371 . S
C1351 C1350 1.371 . S
C1351 C1352 1.380 . S
C1352 H1308 0.931 . S
C1352 C1351 1.380 . S
C1352 C1353 1.387 . S
C1353 H1309 0.930 . S
C1353 C1348 1.386 . S
C1353 C1352 1.387 . S
C1354 C1323 1.519 . S
C1354 C1355 1.377 . S
C1354 C1359 1.361 . S
C1355 H1310 0.929 . S
C1355 C1354 1.377 . S
C1355 C1356 1.386 . S
C1356 H1311 0.931 . S
C1356 C1355 1.386 . S
C1356 C1357 1.363 . S
C1357 C1356 1.363 . S
C1357 C1358 1.385 . S
C1358 H1312 0.930 . S
C1358 C1357 1.385 . S
C1358 C1359 1.396 . S
C1359 H1313 0.929 . S
C1359 C1354 1.361 . S
C1359 C1358 1.396 . S
C1360 O1314 1.300 . S
C1360 O1315 1.209 . S
C1360 C1333 1.486 . S
C1361 O1316 1.199 . S
C1361 O1317 1.297 . S
C1361 C1345 1.476 . S
H1362 O1388 0.856 . S
H1363 O1391 0.854 . S
H1364 C1399 0.930 . S
H1365 C1400 0.930 . S
H1366 C1402 0.930 . S
H1367 C1403 0.930 . S
H1368 C1405 0.931 . S
H1369 C1406 0.930 . S
H1370 C1408 0.930 . S
H1371 C1409 0.929 . S
H1372 C1411 0.930 . S
H1373 C1412 0.931 . S
H1374 C1414 0.930 . S
H1375 C1415 0.929 . S
H1376 C1417 0.931 . S
H1377 C1418 0.930 . S
H1378 C1420 0.930 . S
H1379 C1421 0.932 . S
H1380 C1423 0.930 . S
H1381 C1424 0.929 . S
H1382 C1426 0.931 . S
H1383 C1427 0.930 . S
H1384 C1429 0.929 . S
H1385 C1430 0.931 . S
H1386 C1432 0.930 . S
H1387 C1433 0.929 . S
O1388 H1362 0.856 . S
O1388 C1434 1.300 . S
O1389 C1434 1.209 . S
O1390 C1435 1.199 . S
O1391 H1363 0.854 . S
O1391 C1435 1.297 . S
C1392 C1393 1.404 . S
C1392 C1397 1.397 . S
C1392 C1398 1.492 . S
C1393 C1392 1.404 . S
C1393 C1394 1.396 . S
C1393 C1404 1.492 . S
C1394 C1393 1.396 . S
C1394 C1395 1.397 . S
C1394 C1410 1.509 . S
C1395 C1394 1.397 . S
C1395 C1396 1.412 . S
C1395 C1416 1.485 . S
C1396 C1395 1.412 . S
C1396 C1397 1.388 . S
C1396 C1422 1.490 . S
C1397 C1392 1.397 . S
C1397 C1396 1.388 . S
C1397 C1428 1.519 . S
C1398 C1392 1.492 . S
C1398 C1399 1.363 . S
C1398 C1403 1.390 . S
C1399 H1364 0.930 . S
C1399 C1398 1.363 . S
C1399 C1400 1.372 . S
C1400 H1365 0.930 . S
C1400 C1399 1.372 . S
C1400 C1401 1.383 . S
C1401 C1400 1.383 . S
C1401 C1402 1.395 . S
C1402 H1366 0.930 . S
C1402 C1401 1.395 . S
C1402 C1403 1.362 . S
C1403 H1367 0.930 . S
C1403 C1398 1.390 . S
C1403 C1402 1.362 . S
C1404 C1393 1.492 . S
C1404 C1405 1.377 . S
C1404 C1409 1.397 . S
C1405 H1368 0.931 . S
C1405 C1404 1.377 . S
C1405 C1406 1.376 . S
C1406 H1369 0.930 . S
C1406 C1405 1.376 . S
C1406 C1407 1.376 . S
C1407 C1406 1.376 . S
C1407 C1408 1.378 . S
C1407 C1434 1.486 . S
C1408 H1370 0.930 . S
C1408 C1407 1.378 . S
C1408 C1409 1.376 . S
C1409 H1371 0.929 . S
C1409 C1404 1.397 . S
C1409 C1408 1.376 . S
C1410 C1394 1.509 . S
C1410 C1411 1.391 . S
C1410 C1415 1.386 . S
C1411 H1372 0.930 . S
C1411 C1410 1.391 . S
C1411 C1412 1.375 . S
C1412 H1373 0.931 . S
C1412 C1411 1.375 . S
C1412 C1413 1.375 . S
C1413 C1412 1.375 . S
C1413 C1414 1.361 . S
C1414 H1374 0.930 . S
C1414 C1413 1.361 . S
C1414 C1415 1.399 . S
C1415 H1375 0.929 . S
C1415 C1410 1.386 . S
C1415 C1414 1.399 . S
C1416 C1395 1.485 . S
C1416 C1417 1.394 . S
C1416 C1421 1.360 . S
C1417 H1376 0.931 . S
C1417 C1416 1.394 . S
C1417 C1418 1.372 . S
C1418 H1377 0.930 . S
C1418 C1417 1.372 . S
C1418 C1419 1.397 . S
C1419 C1418 1.397 . S
C1419 C1420 1.390 . S
C1419 C1435 1.476 . S
C1420 H1378 0.930 . S
C1420 C1419 1.390 . S
C1420 C1421 1.366 . S
C1421 H1379 0.932 . S
C1421 C1416 1.360 . S
C1421 C1420 1.366 . S
C1422 C1396 1.490 . S
C1422 C1423 1.380 . S
C1422 C1427 1.386 . S
C1423 H1380 0.930 . S
C1423 C1422 1.380 . S
C1423 C1424 1.381 . S
C1424 H1381 0.929 . S
C1424 C1423 1.381 . S
C1424 C1425 1.371 . S
C1425 C1424 1.371 . S
C1425 C1426 1.380 . S
C1426 H1382 0.931 . S
C1426 C1425 1.380 . S
C1426 C1427 1.387 . S
C1427 H1383 0.930 . S
C1427 C1422 1.386 . S
C1427 C1426 1.387 . S
C1428 C1397 1.519 . S
C1428 C1429 1.377 . S
C1428 C1433 1.361 . S
C1429 H1384 0.929 . S
C1429 C1428 1.377 . S
C1429 C1430 1.386 . S
C1430 H1385 0.931 . S
C1430 C1429 1.386 . S
C1430 C1431 1.363 . S
C1431 C1430 1.363 . S
C1431 C1432 1.385 . S
C1432 H1386 0.930 . S
C1432 C1431 1.385 . S
C1432 C1433 1.396 . S
C1433 H1387 0.929 . S
C1433 C1428 1.361 . S
C1433 C1432 1.396 . S
C1434 O1388 1.300 . S
C1434 O1389 1.209 . S
C1434 C1407 1.486 . S
C1435 O1390 1.199 . S
C1435 O1391 1.297 . S
C1435 C1419 1.476 . S
H1436 O1462 0.856 . S
H1437 O1465 0.854 . S
H1438 C1473 0.930 . S
H1439 C1474 0.930 . S
H1440 C1476 0.930 . S
H1441 C1477 0.930 . S
H1442 C1479 0.931 . S
H1443 C1480 0.930 . S
H1444 C1482 0.930 . S
H1445 C1483 0.929 . S
H1446 C1485 0.930 . S
H1447 C1486 0.931 . S
H1448 C1488 0.930 . S
H1449 C1489 0.929 . S
H1450 C1491 0.931 . S
H1451 C1492 0.930 . S
H1452 C1494 0.930 . S
H1453 C1495 0.932 . S
H1454 C1497 0.930 . S
H1455 C1498 0.929 . S
H1456 C1500 0.931 . S
H1457 C1501 0.930 . S
H1458 C1503 0.929 . S
H1459 C1504 0.931 . S
H1460 C1506 0.930 . S
H1461 C1507 0.929 . S
O1462 H1436 0.856 . S
O1462 C1508 1.300 . S
O1463 C1508 1.209 . S
O1464 C1509 1.199 . S
O1465 H1437 0.854 . S
O1465 C1509 1.297 . S
C1466 C1467 1.404 . S
C1466 C1471 1.397 . S
C1466 C1472 1.492 . S
C1467 C1466 1.404 . S
C1467 C1468 1.396 . S
C1467 C1478 1.492 . S
C1468 C1467 1.396 . S
C1468 C1469 1.397 . S
C1468 C1484 1.509 . S
C1469 C1468 1.397 . S
C1469 C1470 1.412 . S
C1469 C1490 1.485 . S
C1470 C1469 1.412 . S
C1470 C1471 1.388 . S
C1470 C1496 1.490 . S
C1471 C1466 1.397 . S
C1471 C1470 1.388 . S
C1471 C1502 1.519 . S
C1472 C1466 1.492 . S
C1472 C1473 1.363 . S
C1472 C1477 1.390 . S
C1473 H1438 0.930 . S
C1473 C1472 1.363 . S
C1473 C1474 1.372 . S
C1474 H1439 0.930 . S
C1474 C1473 1.372 . S
C1474 C1475 1.383 . S
C1475 C1474 1.383 . S
C1475 C1476 1.395 . S
C1476 H1440 0.930 . S
C1476 C1475 1.395 . S
C1476 C1477 1.362 . S
C1477 H1441 0.930 . S
C1477 C1472 1.390 . S
C1477 C1476 1.362 . S
C1478 C1467 1.492 . S
C1478 C1479 1.377 . S
C1478 C1483 1.397 . S
C1479 H1442 0.931 . S
C1479 C1478 1.377 . S
C1479 C1480 1.376 . S
C1480 H1443 0.930 . S
C1480 C1479 1.376 . S
C1480 C1481 1.376 . S
C1481 C1480 1.376 . S
C1481 C1482 1.378 . S
C1481 C1508 1.486 . S
C1482 H1444 0.930 . S
C1482 C1481 1.378 . S
C1482 C1483 1.376 . S
C1483 H1445 0.929 . S
C1483 C1478 1.397 . S
C1483 C1482 1.376 . S
C1484 C1468 1.509 . S
C1484 C1485 1.391 . S
C1484 C1489 1.386 . S
C1485 H1446 0.930 . S
C1485 C1484 1.391 . S
C1485 C1486 1.375 . S
C1486 H1447 0.931 . S
C1486 C1485 1.375 . S
C1486 C1487 1.375 . S
C1487 C1486 1.375 . S
C1487 C1488 1.361 . S
C1488 H1448 0.930 . S
C1488 C1487 1.361 . S
C1488 C1489 1.399 . S
C1489 H1449 0.929 . S
C1489 C1484 1.386 . S
C1489 C1488 1.399 . S
C1490 C1469 1.485 . S
C1490 C1491 1.394 . S
C1490 C1495 1.360 . S
C1491 H1450 0.931 . S
C1491 C1490 1.394 . S
C1491 C1492 1.372 . S
C1492 H1451 0.930 . S
C1492 C1491 1.372 . S
C1492 C1493 1.397 . S
C1493 C1492 1.397 . S
C1493 C1494 1.390 . S
C1493 C1509 1.476 . S
C1494 H1452 0.930 . S
C1494 C1493 1.390 . S
C1494 C1495 1.366 . S
C1495 H1453 0.932 . S
C1495 C1490 1.360 . S
C1495 C1494 1.366 . S
C1496 C1470 1.490 . S
C1496 C1497 1.380 . S
C1496 C1501 1.386 . S
C1497 H1454 0.930 . S
C1497 C1496 1.380 . S
C1497 C1498 1.381 . S
C1498 H1455 0.929 . S
C1498 C1497 1.381 . S
C1498 C1499 1.371 . S
C1499 C1498 1.371 . S
C1499 C1500 1.380 . S
C1500 H1456 0.931 . S
C1500 C1499 1.380 . S
C1500 C1501 1.387 . S
C1501 H1457 0.930 . S
C1501 C1496 1.386 . S
C1501 C1500 1.387 . S
C1502 C1471 1.519 . S
C1502 C1503 1.377 . S
C1502 C1507 1.361 . S
C1503 H1458 0.929 . S
C1503 C1502 1.377 . S
C1503 C1504 1.386 . S
C1504 H1459 0.931 . S
C1504 C1503 1.386 . S
C1504 C1505 1.363 . S
C1505 C1504 1.363 . S
C1505 C1506 1.385 . S
C1506 H1460 0.930 . S
C1506 C1505 1.385 . S
C1506 C1507 1.396 . S
C1507 H1461 0.929 . S
C1507 C1502 1.361 . S
C1507 C1506 1.396 . S
C1508 O1462 1.300 . S
C1508 O1463 1.209 . S
C1508 C1481 1.486 . S
C1509 O1464 1.199 . S
C1509 O1465 1.297 . S
C1509 C1493 1.476 . S
H1510 O1536 0.856 . S
H1511 O1539 0.854 . S
H1512 C1547 0.930 . S
H1513 C1548 0.930 . S
H1514 C1550 0.930 . S
H1515 C1551 0.930 . S
H1516 C1553 0.931 . S
H1517 C1554 0.930 . S
H1518 C1556 0.930 . S
H1519 C1557 0.929 . S
H1520 C1559 0.930 . S
H1521 C1560 0.931 . S
H1522 C1562 0.930 . S
H1523 C1563 0.929 . S
H1524 C1565 0.931 . S
H1525 C1566 0.930 . S
H1526 C1568 0.930 . S
H1527 C1569 0.932 . S
H1528 C1571 0.930 . S
H1529 C1572 0.929 . S
H1530 C1574 0.931 . S
H1531 C1575 0.930 . S
H1532 C1577 0.929 . S
H1533 C1578 0.931 . S
H1534 C1580 0.930 . S
H1535 C1581 0.929 . S
O1536 H1510 0.856 . S
O1536 C1582 1.300 . S
O1537 C1582 1.209 . S
O1538 C1583 1.199 . S
O1539 H1511 0.854 . S
O1539 C1583 1.297 . S
C1540 C1541 1.404 . S
C1540 C1545 1.397 . S
C1540 C1546 1.492 . S
C1541 C1540 1.404 . S
C1541 C1542 1.396 . S
C1541 C1552 1.492 . S
C1542 C1541 1.396 . S
C1542 C1543 1.397 . S
C1542 C1558 1.509 . S
C1543 C1542 1.397 . S
C1543 C1544 1.412 . S
C1543 C1564 1.485 . S
C1544 C1543 1.412 . S
C1544 C1545 1.388 . S
C1544 C1570 1.490 . S
C1545 C1540 1.397 . S
C1545 C1544 1.388 . S
C1545 C1576 1.519 . S
C1546 C1540 1.492 . S
C1546 C1547 1.363 . S
C1546 C1551 1.390 . S
C1547 H1512 0.930 . S
C1547 C1546 1.363 . S
C1547 C1548 1.372 . S
C1548 H1513 0.930 . S
C1548 C1547 1.372 . S
C1548 C1549 1.383 . S
C1549 C1548 1.383 . S
C1549 C1550 1.395 . S
C1550 H1514 0.930 . S
C1550 C1549 1.395 . S
C1550 C1551 1.362 . S
C1551 H1515 0.930 . S
C1551 C1546 1.390 . S
C1551 C1550 1.362 . S
C1552 C1541 1.492 . S
C1552 C1553 1.377 . S
C1552 C1557 1.397 . S
C1553 H1516 0.931 . S
C1553 C1552 1.377 . S
C1553 C1554 1.376 . S
C1554 H1517 0.930 . S
C1554 C1553 1.376 . S
C1554 C1555 1.376 . S
C1555 C1554 1.376 . S
C1555 C1556 1.378 . S
C1555 C1582 1.486 . S
C1556 H1518 0.930 . S
C1556 C1555 1.378 . S
C1556 C1557 1.376 . S
C1557 H1519 0.929 . S
C1557 C1552 1.397 . S
C1557 C1556 1.376 . S
C1558 C1542 1.509 . S
C1558 C1559 1.391 . S
C1558 C1563 1.386 . S
C1559 H1520 0.930 . S
C1559 C1558 1.391 . S
C1559 C1560 1.375 . S
C1560 H1521 0.931 . S
C1560 C1559 1.375 . S
C1560 C1561 1.375 . S
C1561 C1560 1.375 . S
C1561 C1562 1.361 . S
C1562 H1522 0.930 . S
C1562 C1561 1.361 . S
C1562 C1563 1.399 . S
C1563 H1523 0.929 . S
C1563 C1558 1.386 . S
C1563 C1562 1.399 . S
C1564 C1543 1.485 . S
C1564 C1565 1.394 . S
C1564 C1569 1.360 . S
C1565 H1524 0.931 . S
C1565 C1564 1.394 . S
C1565 C1566 1.372 . S
C1566 H1525 0.930 . S
C1566 C1565 1.372 . S
C1566 C1567 1.397 . S
C1567 C1566 1.397 . S
C1567 C1568 1.390 . S
C1567 C1583 1.476 . S
C1568 H1526 0.930 . S
C1568 C1567 1.390 . S
C1568 C1569 1.366 . S
C1569 H1527 0.932 . S
C1569 C1564 1.360 . S
C1569 C1568 1.366 . S
C1570 C1544 1.490 . S
C1570 C1571 1.380 . S
C1570 C1575 1.386 . S
C1571 H1528 0.930 . S
C1571 C1570 1.380 . S
C1571 C1572 1.381 . S
C1572 H1529 0.929 . S
C1572 C1571 1.381 . S
C1572 C1573 1.371 . S
C1573 C1572 1.371 . S
C1573 C1574 1.380 . S
C1574 H1530 0.931 . S
C1574 C1573 1.380 . S
C1574 C1575 1.387 . S
C1575 H1531 0.930 . S
C1575 C1570 1.386 . S
C1575 C1574 1.387 . S
C1576 C1545 1.519 . S
C1576 C1577 1.377 . S
C1576 C1581 1.361 . S
C1577 H1532 0.929 . S
C1577 C1576 1.377 . S
C1577 C1578 1.386 . S
C1578 H1533 0.931 . S
C1578 C1577 1.386 . S
C1578 C1579 1.363 . S
C1579 C1578 1.363 . S
C1579 C1580 1.385 . S
C1580 H1534 0.930 . S
C1580 C1579 1.385 . S
C1580 C1581 1.396 . S
C1581 H1535 0.929 . S
C1581 C1576 1.361 . S
C1581 C1580 1.396 . S
C1582 O1536 1.300 . S
C1582 O1537 1.209 . S
C1582 C1555 1.486 . S
C1583 O1538 1.199 . S
C1583 O1539 1.297 . S
C1583 C1567 1.476 . S
H1584 C1592 0.945 . S
H1585 C1597 0.950 . S
H1586 C1594 0.950 1_455 S
H1587 C1596 0.950 . S
H1588 C1598 0.950 . S
H1589 C1600 0.950 . S
H1590 C1602 0.950 . S
H1591 C1603 0.950 . S
C1592 H1584 0.945 . S
C1592 C1593 1.387 1_455 S
C1592 C1594 1.395 1_455 S
C1593 C1592 1.387 1_655 S
C1593 C1597 1.393 . S
C1594 H1586 0.950 1_655 S
C1594 C1592 1.395 1_655 S
C1594 C1595 1.400 . S
C1595 C1594 1.400 . S
C1595 C1596 1.398 . S
C1595 C1601 1.491 . S
C1596 H1587 0.950 . S
C1596 C1595 1.398 . S
C1596 C1597 1.391 . S
C1597 H1585 0.950 . S
C1597 C1593 1.393 . S
C1597 C1596 1.391 . S
C1598 H1588 0.950 . S
C1598 C1599 1.386 . S
C1598 C1600 1.391 . S
C1599 C1598 1.386 . S
C1599 C1603 1.393 . S
C1600 H1589 0.950 . S
C1600 C1598 1.391 . S
C1600 C1601 1.400 . S
C1601 C1595 1.491 . S
C1601 C1600 1.400 . S
C1601 C1602 1.398 . S
C1602 H1590 0.950 . S
C1602 C1601 1.398 . S
C1602 C1603 1.391 . S
C1603 H1591 0.950 . S
C1603 C1599 1.393 . S
C1603 C1602 1.391 . S
H1604 C1612 0.950 . S
H1605 C1617 0.950 . S
H1606 C1614 0.950 . S
H1607 C1616 0.950 . S
H1608 C1618 0.950 . S
H1609 C1620 0.950 . S
H1610 C1622 0.950 . S
H1611 C1623 0.950 . S
C1612 H1604 0.950 . S
C1612 C1613 1.386 . S
C1612 C1614 1.391 . S
C1613 C1612 1.386 . S
C1613 C1617 1.393 . S
C1614 H1606 0.950 . S
C1614 C1612 1.391 . S
C1614 C1615 1.400 . S
C1615 C1614 1.400 . S
C1615 C1616 1.398 . S
C1615 C1621 1.491 . S
C1616 H1607 0.950 . S
C1616 C1615 1.398 . S
C1616 C1617 1.391 . S
C1617 H1605 0.950 . S
C1617 C1613 1.393 . S
C1617 C1616 1.391 . S
C1618 H1608 0.950 . S
C1618 C1619 1.386 . S
C1618 C1620 1.391 . S
C1619 C1618 1.386 . S
C1619 C1623 1.393 . S
C1620 H1609 0.950 . S
C1620 C1618 1.391 . S
C1620 C1621 1.400 . S
C1621 C1615 1.491 . S
C1621 C1620 1.400 . S
C1621 C1622 1.398 . S
C1622 H1610 0.950 . S
C1622 C1621 1.398 . S
C1622 C1623 1.391 . S
C1623 H1611 0.950 . S
C1623 C1619 1.393 . S
C1623 C1622 1.391 . S
H1624 C1632 0.950 . S
H1625 C1637 0.933 1_565 S
H1626 C1634 0.950 . S
H1627 C1636 0.917 1_565 S
H1628 C1638 0.950 1_565 S
H1629 C1640 0.950 1_565 S
H1630 C1642 0.950 . S
H1631 C1643 0.950 . S
C1632 H1624 0.950 . S
C1632 C1633 1.386 . S
C1632 C1634 1.391 . S
C1633 C1632 1.386 . S
C1633 C1637 1.420 . S
C1634 H1626 0.950 . S
C1634 C1632 1.391 . S
C1634 C1635 1.400 . S
C1635 C1634 1.400 . S
C1635 C1636 1.418 . S
C1635 C1641 1.491 . S
C1636 H1627 0.917 1_545 S
C1636 C1635 1.418 . S
C1636 C1637 1.393 . S
C1637 H1625 0.933 1_545 S
C1637 C1633 1.420 . S
C1637 C1636 1.393 . S
C1638 H1628 0.950 1_545 S
C1638 C1639 1.386 . S
C1638 C1640 1.391 . S
C1639 C1638 1.386 . S
C1639 C1643 1.393 . S
C1640 H1629 0.950 1_545 S
C1640 C1638 1.391 . S
C1640 C1641 1.400 . S
C1641 C1635 1.491 . S
C1641 C1640 1.400 . S
C1641 C1642 1.398 . S
C1642 H1630 0.950 . S
C1642 C1641 1.398 . S
C1642 C1643 1.391 . S
C1643 H1631 0.950 . S
C1643 C1639 1.393 . S
C1643 C1642 1.391 . S
H1644 C1652 0.950 . S
H1645 C1657 0.950 . S
H1646 C1654 0.950 . S
H1647 C1656 0.950 . S
H1648 C1658 0.950 . S
H1649 C1660 0.950 . S
H1650 C1662 0.950 . S
H1651 C1663 0.950 . S
C1652 H1644 0.950 . S
C1652 C1653 1.386 . S
C1652 C1654 1.391 . S
C1653 C1652 1.386 . S
C1653 C1657 1.393 1_565 S
C1654 H1646 0.950 . S
C1654 C1652 1.391 . S
C1654 C1655 1.400 . S
C1655 C1654 1.400 . S
C1655 C1656 1.398 1_565 S
C1655 C1661 1.491 . S
C1656 H1647 0.950 . S
C1656 C1655 1.398 1_545 S
C1656 C1657 1.391 . S
C1657 H1645 0.950 . S
C1657 C1653 1.393 1_545 S
C1657 C1656 1.391 . S
C1658 H1648 0.950 . S
C1658 C1659 1.386 1_545 S
C1658 C1660 1.391 . S
C1659 C1658 1.386 1_565 S
C1659 C1663 1.393 . S
C1660 H1649 0.950 . S
C1660 C1658 1.391 . S
C1660 C1661 1.400 1_545 S
C1661 C1655 1.491 . S
C1661 C1660 1.400 1_565 S
C1661 C1662 1.398 . S
C1662 H1650 0.950 . S
C1662 C1661 1.398 . S
C1662 C1663 1.391 . S
C1663 H1651 0.950 . S
C1663 C1659 1.393 . S
C1663 C1662 1.391 . S
H1664 C1672 0.950 . S
H1665 C1677 0.950 1_554 S
H1666 C1674 0.950 . S
H1667 C1676 0.950 . S
H1668 C1678 0.950 . S
H1669 C1680 0.950 . S
H1670 C1682 0.950 . S
H1671 C1683 0.950 . S
C1672 H1664 0.950 . S
C1672 C1673 1.386 . S
C1672 C1674 1.391 . S
C1673 C1672 1.386 . S
C1673 C1677 1.393 . S
C1674 H1666 0.950 . S
C1674 C1672 1.391 . S
C1674 C1675 1.400 . S
C1675 C1674 1.400 . S
C1675 C1676 1.398 . S
C1675 C1681 1.491 . S
C1676 H1667 0.950 . S
C1676 C1675 1.398 . S
C1676 C1677 1.391 . S
C1677 H1665 0.950 1_556 S
C1677 C1673 1.393 . S
C1677 C1676 1.391 . S
C1678 H1668 0.950 . S
C1678 C1679 1.386 . S
C1678 C1680 1.391 . S
C1679 C1678 1.386 . S
C1679 C1683 1.393 . S
C1680 H1669 0.950 . S
C1680 C1678 1.391 . S
C1680 C1681 1.400 . S
C1681 C1675 1.491 . S
C1681 C1680 1.400 . S
C1681 C1682 1.398 . S
C1682 H1670 0.950 . S
C1682 C1681 1.398 . S
C1682 C1683 1.391 . S
C1683 H1671 0.950 . S
C1683 C1679 1.393 . S
C1683 C1682 1.391 . S
H1684 C1692 0.950 . S
H1685 C1697 0.950 . S
H1686 C1694 0.950 . S
H1687 C1696 0.951 . S
H1688 C1698 0.950 . S
H1689 C1700 0.950 . S
H1690 C1702 0.950 . S
H1691 C1703 0.950 . S
C1692 H1684 0.950 . S
C1692 C1693 1.386 . S
C1692 C1694 1.391 1_554 S
C1693 C1692 1.386 . S
C1693 C1697 1.393 . S
C1694 H1686 0.950 . S
C1694 C1692 1.391 1_556 S
C1694 C1695 1.400 . S
C1695 C1694 1.400 . S
C1695 C1696 1.355 1_556 S
C1695 C1701 1.491 . S
C1696 H1687 0.951 . S
C1696 C1695 1.355 1_554 S
C1696 C1697 1.433 . S
C1697 H1685 0.950 . S
C1697 C1693 1.393 . S
C1697 C1696 1.433 . S
C1698 H1688 0.950 . S
C1698 C1699 1.386 . S
C1698 C1700 1.391 . S
C1699 C1698 1.386 . S
C1699 C1703 1.393 . S
C1700 H1689 0.950 . S
C1700 C1698 1.391 . S
C1700 C1701 1.400 . S
C1701 C1695 1.491 . S
C1701 C1700 1.400 . S
C1701 C1702 1.398 . S
C1702 H1690 0.950 . S
C1702 C1701 1.398 . S
C1702 C1703 1.391 . S
C1703 H1691 0.950 . S
C1703 C1699 1.393 . S
C1703 C1702 1.391 . S
H1704 C1712 0.950 . S
H1705 C1717 0.950 . S
H1706 C1714 0.950 . S
H1707 C1716 0.950 . S
H1708 C1718 0.950 . S
H1709 C1720 0.950 . S
H1710 C1722 0.950 . S
H1711 C1723 0.950 . S
C1712 H1704 0.950 . S
C1712 C1713 1.386 . S
C1712 C1714 1.391 1_554 S
C1713 C1712 1.386 . S
C1713 C1717 1.393 1_454 S
C1714 H1706 0.950 . S
C1714 C1712 1.391 1_556 S
C1714 C1715 1.400 . S
C1715 C1714 1.400 . S
C1715 C1716 1.398 1_455 S
C1715 C1721 1.491 . S
C1716 H1707 0.950 . S
C1716 C1715 1.398 1_655 S
C1716 C1717 1.391 . S
C1717 H1705 0.950 . S
C1717 C1713 1.393 1_656 S
C1717 C1716 1.391 . S
C1718 H1708 0.950 . S
C1718 C1719 1.386 1_655 S
C1718 C1720 1.391 . S
C1719 C1718 1.386 1_455 S
C1719 C1723 1.393 . S
C1720 H1709 0.950 . S
C1720 C1718 1.391 . S
C1720 C1721 1.400 1_655 S
C1721 C1715 1.491 . S
C1721 C1720 1.400 1_455 S
C1721 C1722 1.398 . S
C1722 H1710 0.950 . S
C1722 C1721 1.398 . S
C1722 C1723 1.391 . S
C1723 H1711 0.950 . S
C1723 C1719 1.393 . S
C1723 C1722 1.391 . S
H1724 C1732 0.950 . S
H1725 C1737 0.950 . S
H1726 C1734 0.950 . S
H1727 C1736 0.950 . S
H1728 C1738 0.950 . S
H1729 C1740 0.950 . S
H1730 C1742 0.950 . S
H1731 C1743 0.950 . S
C1732 H1724 0.950 . S
C1732 C1733 1.386 . S
C1732 C1734 1.391 . S
C1733 C1732 1.386 . S
C1733 C1737 1.393 . S
C1734 H1726 0.950 . S
C1734 C1732 1.391 . S
C1734 C1735 1.400 . S
C1735 C1734 1.400 . S
C1735 C1736 1.398 . S
C1735 C1741 1.491 . S
C1736 H1727 0.950 . S
C1736 C1735 1.398 . S
C1736 C1737 1.391 . S
C1737 H1725 0.950 . S
C1737 C1733 1.393 . S
C1737 C1736 1.391 . S
C1738 H1728 0.950 . S
C1738 C1739 1.386 . S
C1738 C1740 1.391 . S
C1739 C1738 1.386 . S
C1739 C1743 1.393 . S
C1740 H1729 0.950 . S
C1740 C1738 1.391 . S
C1740 C1741 1.400 . S
C1741 C1735 1.491 . S
C1741 C1740 1.400 . S
C1741 C1742 1.398 . S
C1742 H1730 0.950 . S
C1742 C1741 1.398 . S
C1742 C1743 1.391 . S
C1743 H1731 0.950 . S
C1743 C1739 1.393 . S
C1743 C1742 1.391 . S
H1744 C1752 0.950 1_554 S
H1745 C1757 0.954 . S
H1746 C1754 0.950 . S
H1747 C1756 0.950 . S
H1748 C1758 0.950 . S
H1749 C1760 0.950 . S
H1750 C1762 0.950 . S
H1751 C1763 0.950 . S
C1752 H1744 0.950 1_556 S
C1752 C1753 1.386 1_546 S
C1752 C1754 1.391 . S
C1753 C1752 1.386 1_564 S
C1753 C1757 1.393 1_554 S
C1754 H1746 0.950 . S
C1754 C1752 1.391 . S
C1754 C1755 1.400 1_545 S
C1755 C1754 1.400 1_565 S
C1755 C1756 1.398 . S
C1755 C1761 1.491 . S
C1756 H1747 0.950 . S
C1756 C1755 1.398 . S
C1756 C1757 1.391 . S
C1757 H1745 0.954 . S
C1757 C1753 1.393 1_556 S
C1757 C1756 1.391 . S
C1758 H1748 0.950 . S
C1758 C1759 1.387 . S
C1758 C1760 1.391 . S
C1759 C1758 1.387 . S
C1759 C1763 1.392 1_565 S
C1760 H1749 0.950 . S
C1760 C1758 1.391 . S
C1760 C1761 1.400 . S
C1761 C1755 1.491 . S
C1761 C1760 1.400 . S
C1761 C1762 1.398 1_565 S
C1762 H1750 0.950 . S
C1762 C1761 1.398 1_545 S
C1762 C1763 1.391 . S
C1763 H1751 0.950 . S
C1763 C1759 1.392 1_545 S
C1763 C1762 1.391 . S
H1764 C1772 0.950 . S
H1765 C1777 0.950 . S
H1766 C1774 0.950 . S
H1767 C1776 0.950 . S
H1768 C1778 0.950 . S
H1769 C1780 0.950 . S
H1770 C1782 0.950 . S
H1771 C1783 0.950 . S
C1772 H1764 0.950 . S
C1772 C1773 1.386 1_565 S
C1772 C1774 1.391 . S
C1773 C1772 1.386 1_545 S
C1773 C1777 1.393 . S
C1774 H1766 0.950 . S
C1774 C1772 1.391 . S
C1774 C1775 1.400 1_565 S
C1775 C1774 1.400 1_545 S
C1775 C1776 1.398 . S
C1775 C1781 1.491 . S
C1776 H1767 0.950 . S
C1776 C1775 1.398 . S
C1776 C1777 1.391 . S
C1777 H1765 0.950 . S
C1777 C1773 1.393 . S
C1777 C1776 1.391 . S
C1778 H1768 0.950 . S
C1778 C1779 1.381 1_545 S
C1778 C1780 1.391 . S
C1779 C1778 1.381 1_565 S
C1779 C1783 1.399 . S
C1780 H1769 0.950 . S
C1780 C1778 1.391 . S
C1780 C1781 1.400 . S
C1781 C1775 1.491 . S
C1781 C1780 1.400 . S
C1781 C1782 1.398 1_545 S
C1782 H1770 0.950 . S
C1782 C1781 1.398 1_565 S
C1782 C1783 1.391 . S
C1783 H1771 0.950 . S
C1783 C1779 1.399 . S
C1783 C1782 1.391 . S
H1784 C1792 0.950 . S
H1785 C1797 0.950 . S
H1786 C1794 0.950 . S
H1787 C1796 0.950 . S
H1788 C1798 0.950 . S
H1789 C1800 0.950 . S
H1790 C1802 0.950 . S
H1791 C1803 0.950 . S
C1792 H1784 0.950 . S
C1792 C1793 1.386 . S
C1792 C1794 1.391 . S
C1793 C1792 1.386 . S
C1793 C1797 1.393 1_655 S
C1794 H1786 0.950 . S
C1794 C1792 1.391 . S
C1794 C1795 1.400 . S
C1795 C1794 1.400 . S
C1795 C1796 1.398 1_655 S
C1795 C1801 1.491 . S
C1796 H1787 0.950 . S
C1796 C1795 1.398 1_455 S
C1796 C1797 1.391 . S
C1797 H1785 0.950 . S
C1797 C1793 1.393 1_455 S
C1797 C1796 1.391 . S
C1798 H1788 0.950 . S
C1798 C1799 1.351 1_455 S
C1798 C1800 1.391 . S
C1799 C1798 1.351 1_655 S
C1799 C1803 1.451 . S
C1800 H1789 0.950 . S
C1800 C1798 1.391 . S
C1800 C1801 1.400 1_455 S
C1801 C1795 1.491 . S
C1801 C1800 1.400 1_655 S
C1801 C1802 1.398 . S
C1802 H1790 0.950 . S
C1802 C1801 1.398 . S
C1802 C1803 1.391 . S
C1803 H1791 0.950 . S
C1803 C1799 1.451 . S
C1803 C1802 1.391 . S
H1804 C1812 0.950 . S
H1805 C1817 0.950 . S
H1806 C1814 0.950 . S
H1807 C1816 0.950 . S
H1808 C1818 0.950 . S
H1809 C1820 0.950 . S
H1810 C1822 0.950 . S
H1811 C1823 0.950 . S
C1812 H1804 0.950 . S
C1812 C1813 1.386 . S
C1812 C1814 1.391 . S
C1813 C1812 1.386 . S
C1813 C1817 1.393 . S
C1814 H1806 0.950 . S
C1814 C1812 1.391 . S
C1814 C1815 1.400 . S
C1815 C1814 1.400 . S
C1815 C1816 1.398 . S
C1815 C1821 1.491 . S
C1816 H1807 0.950 . S
C1816 C1815 1.398 . S
C1816 C1817 1.391 . S
C1817 H1805 0.950 . S
C1817 C1813 1.393 . S
C1817 C1816 1.391 . S
C1818 H1808 0.950 . S
C1818 C1819 1.386 . S
C1818 C1820 1.391 . S
C1819 C1818 1.386 . S
C1819 C1823 1.393 . S
C1820 H1809 0.950 . S
C1820 C1818 1.391 . S
C1820 C1821 1.400 . S
C1821 C1815 1.491 . S
C1821 C1820 1.400 . S
C1821 C1822 1.398 . S
C1822 H1810 0.950 . S
C1822 C1821 1.398 . S
C1822 C1823 1.391 . S
C1823 H1811 0.950 . S
C1823 C1819 1.393 . S
C1823 C1822 1.391 . S
H1824 C1832 0.950 . S
H1825 C1837 0.950 . S
H1826 C1834 0.950 . S
H1827 C1836 0.950 . S
H1828 C1838 0.950 . S
H1829 C1840 0.950 . S
H1830 C1842 0.950 . S
H1831 C1843 0.950 . S
C1832 H1824 0.950 . S
C1832 C1833 1.386 . S
C1832 C1834 1.391 . S
C1833 C1832 1.386 . S
C1833 C1837 1.393 . S
C1834 H1826 0.950 . S
C1834 C1832 1.391 . S
C1834 C1835 1.400 . S
C1835 C1834 1.400 . S
C1835 C1836 1.398 . S
C1835 C1841 1.491 . S
C1836 H1827 0.950 . S
C1836 C1835 1.398 . S
C1836 C1837 1.391 . S
C1837 H1825 0.950 . S
C1837 C1833 1.393 . S
C1837 C1836 1.391 . S
C1838 H1828 0.950 . S
C1838 C1839 1.386 . S
C1838 C1840 1.391 . S
C1839 C1838 1.386 . S
C1839 C1843 1.393 . S
C1840 H1829 0.950 . S
C1840 C1838 1.391 . S
C1840 C1841 1.400 . S
C1841 C1835 1.491 . S
C1841 C1840 1.400 . S
C1841 C1842 1.398 . S
C1842 H1830 0.950 . S
C1842 C1841 1.398 . S
C1842 C1843 1.391 . S
C1843 H1831 0.950 . S
C1843 C1839 1.393 . S
C1843 C1842 1.391 . S
H1844 C1852 0.950 . S
H1845 C1857 0.950 . S
H1846 C1854 0.950 . S
H1847 C1856 0.950 . S
H1848 C1858 0.950 . S
H1849 C1860 0.950 . S
H1850 C1862 0.950 . S
H1851 C1863 0.950 . S
C1852 H1844 0.950 . S
C1852 C1853 1.386 . S
C1852 C1854 1.391 . S
C1853 C1852 1.386 . S
C1853 C1857 1.393 . S
C1854 H1846 0.950 . S
C1854 C1852 1.391 . S
C1854 C1855 1.400 . S
C1855 C1854 1.400 . S
C1855 C1856 1.398 . S
C1855 C1861 1.491 . S
C1856 H1847 0.950 . S
C1856 C1855 1.398 . S
C1856 C1857 1.391 . S
C1857 H1845 0.950 . S
C1857 C1853 1.393 . S
C1857 C1856 1.391 . S
C1858 H1848 0.950 . S
C1858 C1859 1.386 . S
C1858 C1860 1.391 . S
C1859 C1858 1.386 . S
C1859 C1863 1.393 . S
C1860 H1849 0.950 . S
C1860 C1858 1.391 . S
C1860 C1861 1.400 . S
C1861 C1855 1.491 . S
C1861 C1860 1.400 . S
C1861 C1862 1.398 . S
C1862 H1850 0.950 . S
C1862 C1861 1.398 . S
C1862 C1863 1.391 . S
C1863 H1851 0.950 . S
C1863 C1859 1.393 . S
C1863 C1862 1.391 . S
H1864 C1872 0.950 . S
H1865 C1877 0.950 . S
H1866 C1874 0.950 . S
H1867 C1876 0.950 . S
H1868 C1878 0.950 . S
H1869 C1880 0.950 . S
H1870 C1882 0.950 . S
H1871 C1883 0.950 . S
C1872 H1864 0.950 . S
C1872 C1873 1.386 . S
C1872 C1874 1.391 . S
C1873 C1872 1.386 . S
C1873 C1877 1.393 . S
C1874 H1866 0.950 . S
C1874 C1872 1.391 . S
C1874 C1875 1.400 . S
C1875 C1874 1.400 . S
C1875 C1876 1.398 . S
C1875 C1881 1.491 . S
C1876 H1867 0.950 . S
C1876 C1875 1.398 . S
C1876 C1877 1.391 . S
C1877 H1865 0.950 . S
C1877 C1873 1.393 . S
C1877 C1876 1.391 . S
C1878 H1868 0.950 . S
C1878 C1879 1.386 . S
C1878 C1880 1.391 . S
C1879 C1878 1.386 . S
C1879 C1883 1.393 . S
C1880 H1869 0.950 . S
C1880 C1878 1.391 . S
C1880 C1881 1.400 . S
C1881 C1875 1.491 . S
C1881 C1880 1.400 . S
C1881 C1882 1.398 . S
C1882 H1870 0.950 . S
C1882 C1881 1.398 . S
C1882 C1883 1.391 . S
C1883 H1871 0.950 . S
C1883 C1879 1.393 . S
C1883 C1882 1.391 . S
H1884 C1892 0.950 . S
H1885 C1897 0.950 . S
H1886 C1894 0.950 . S
H1887 C1896 0.950 . S
H1888 C1898 0.950 . S
H1889 C1900 0.950 . S
H1890 C1902 0.950 . S
H1891 C1903 0.950 . S
C1892 H1884 0.950 . S
C1892 C1893 1.386 . S
C1892 C1894 1.391 . S
C1893 C1892 1.386 . S
C1893 C1897 1.393 . S
C1894 H1886 0.950 . S
C1894 C1892 1.391 . S
C1894 C1895 1.400 . S
C1895 C1894 1.400 . S
C1895 C1896 1.398 . S
C1895 C1901 1.491 . S
C1896 H1887 0.950 . S
C1896 C1895 1.398 . S
C1896 C1897 1.391 . S
C1897 H1885 0.950 . S
C1897 C1893 1.393 . S
C1897 C1896 1.391 . S
C1898 H1888 0.950 . S
C1898 C1899 1.386 . S
C1898 C1900 1.391 . S
C1899 C1898 1.386 . S
C1899 C1903 1.393 . S
C1900 H1889 0.950 . S
C1900 C1898 1.391 . S
C1900 C1901 1.400 . S
C1901 C1895 1.491 . S
C1901 C1900 1.400 . S
C1901 C1902 1.398 . S
C1902 H1890 0.950 . S
C1902 C1901 1.398 . S
C1902 C1903 1.391 . S
C1903 H1891 0.950 . S
C1903 C1899 1.393 . S
C1903 C1902 1.391 . S
H1904 C1912 0.950 . S
H1905 C1917 0.950 . S
H1906 C1914 0.950 . S
H1907 C1916 0.950 . S
H1908 C1918 0.950 . S
H1909 C1920 0.950 . S
H1910 C1922 0.950 . S
H1911 C1923 0.950 . S
C1912 H1904 0.950 . S
C1912 C1913 1.386 . S
C1912 C1914 1.391 . S
C1913 C1912 1.386 . S
C1913 C1917 1.393 . S
C1914 H1906 0.950 . S
C1914 C1912 1.391 . S
C1914 C1915 1.400 . S
C1915 C1914 1.400 . S
C1915 C1916 1.398 . S
C1915 C1921 1.491 . S
C1916 H1907 0.950 . S
C1916 C1915 1.398 . S
C1916 C1917 1.391 . S
C1917 H1905 0.950 . S
C1917 C1913 1.393 . S
C1917 C1916 1.391 . S
C1918 H1908 0.950 . S
C1918 C1919 1.386 . S
C1918 C1920 1.391 . S
C1919 C1918 1.386 . S
C1919 C1923 1.393 . S
C1920 H1909 0.950 . S
C1920 C1918 1.391 . S
C1920 C1921 1.400 . S
C1921 C1915 1.491 . S
C1921 C1920 1.400 . S
C1921 C1922 1.398 . S
C1922 H1910 0.950 . S
C1922 C1921 1.398 . S
C1922 C1923 1.391 . S
C1923 H1911 0.950 . S
C1923 C1919 1.393 . S
C1923 C1922 1.391 . S
H1924 C1932 0.950 . S
H1925 C1937 0.950 . S
H1926 C1934 0.950 . S
H1927 C1936 0.950 . S
H1928 C1938 0.950 . S
H1929 C1940 0.950 . S
H1930 C1942 0.950 . S
H1931 C1943 0.950 . S
C1932 H1924 0.950 . S
C1932 C1933 1.386 . S
C1932 C1934 1.391 . S
C1933 C1932 1.386 . S
C1933 C1937 1.393 . S
C1934 H1926 0.950 . S
C1934 C1932 1.391 . S
C1934 C1935 1.400 . S
C1935 C1934 1.400 . S
C1935 C1936 1.398 . S
C1935 C1941 1.491 . S
C1936 H1927 0.950 . S
C1936 C1935 1.398 . S
C1936 C1937 1.391 . S
C1937 H1925 0.950 . S
C1937 C1933 1.393 . S
C1937 C1936 1.391 . S
C1938 H1928 0.950 . S
C1938 C1939 1.386 . S
C1938 C1940 1.391 . S
C1939 C1938 1.386 . S
C1939 C1943 1.393 . S
C1940 H1929 0.950 . S
C1940 C1938 1.391 . S
C1940 C1941 1.400 . S
C1941 C1935 1.491 . S
C1941 C1940 1.400 . S
C1941 C1942 1.398 . S
C1942 H1930 0.950 . S
C1942 C1941 1.398 . S
C1942 C1943 1.391 . S
C1943 H1931 0.950 . S
C1943 C1939 1.393 . S
C1943 C1942 1.391 . S
H1944 C1952 0.950 . S
H1945 C1957 0.950 . S
H1946 C1954 0.950 . S
H1947 C1956 0.950 . S
H1948 C1958 0.950 . S
H1949 C1960 0.950 . S
H1950 C1962 0.950 . S
H1951 C1963 0.950 . S
C1952 H1944 0.950 . S
C1952 C1953 1.386 . S
C1952 C1954 1.391 . S
C1953 C1952 1.386 . S
C1953 C1957 1.393 . S
C1954 H1946 0.950 . S
C1954 C1952 1.391 . S
C1954 C1955 1.400 . S
C1955 C1954 1.400 . S
C1955 C1956 1.398 . S
C1955 C1961 1.491 . S
C1956 H1947 0.950 . S
C1956 C1955 1.398 . S
C1956 C1957 1.391 . S
C1957 H1945 0.950 . S
C1957 C1953 1.393 . S
C1957 C1956 1.391 . S
C1958 H1948 0.950 . S
C1958 C1959 1.386 . S
C1958 C1960 1.391 . S
C1959 C1958 1.386 . S
C1959 C1963 1.393 . S
C1960 H1949 0.950 . S
C1960 C1958 1.391 . S
C1960 C1961 1.400 . S
C1961 C1955 1.491 . S
C1961 C1960 1.400 . S
C1961 C1962 1.398 . S
C1962 H1950 0.950 . S
C1962 C1961 1.398 . S
C1962 C1963 1.391 . S
C1963 H1951 0.950 . S
C1963 C1959 1.393 . S
C1963 C1962 1.391 . S
H1964 C1972 0.950 . S
H1965 C1977 0.950 . S
H1966 C1974 0.950 . S
H1967 C1976 0.950 . S
H1968 C1978 0.950 . S
H1969 C1980 0.950 . S
H1970 C1982 0.950 . S
H1971 C1983 0.950 . S
C1972 H1964 0.950 . S
C1972 C1973 1.386 . S
C1972 C1974 1.391 . S
C1973 C1972 1.386 . S
C1973 C1977 1.393 . S
C1974 H1966 0.950 . S
C1974 C1972 1.391 . S
C1974 C1975 1.400 . S
C1975 C1974 1.400 . S
C1975 C1976 1.398 . S
C1975 C1981 1.491 . S
C1976 H1967 0.950 . S
C1976 C1975 1.398 . S
C1976 C1977 1.391 . S
C1977 H1965 0.950 . S
C1977 C1973 1.393 . S
C1977 C1976 1.391 . S
C1978 H1968 0.950 . S
C1978 C1979 1.386 . S
C1978 C1980 1.391 . S
C1979 C1978 1.386 . S
C1979 C1983 1.393 . S
C1980 H1969 0.950 . S
C1980 C1978 1.391 . S
C1980 C1981 1.400 . S
C1981 C1975 1.491 . S
C1981 C1980 1.400 . S
C1981 C1982 1.398 . S
C1982 H1970 0.950 . S
C1982 C1981 1.398 . S
C1982 C1983 1.391 . S
C1983 H1971 0.950 . S
C1983 C1979 1.393 . S
C1983 C1982 1.391 . S
H1984 C1992 0.950 . S
H1985 C1997 0.950 . S
H1986 C1994 0.950 . S
H1987 C1996 0.950 . S
H1988 C1998 0.950 . S
H1989 C2000 0.950 . S
H1990 C2002 0.950 . S
H1991 C2003 0.950 . S
C1992 H1984 0.950 . S
C1992 C1993 1.386 . S
C1992 C1994 1.391 . S
C1993 C1992 1.386 . S
C1993 C1997 1.393 . S
C1994 H1986 0.950 . S
C1994 C1992 1.391 . S
C1994 C1995 1.400 . S
C1995 C1994 1.400 . S
C1995 C1996 1.398 . S
C1995 C2001 1.491 . S
C1996 H1987 0.950 . S
C1996 C1995 1.398 . S
C1996 C1997 1.391 . S
C1997 H1985 0.950 . S
C1997 C1993 1.393 . S
C1997 C1996 1.391 . S
C1998 H1988 0.950 . S
C1998 C1999 1.386 . S
C1998 C2000 1.391 . S
C1999 C1998 1.386 . S
C1999 C2003 1.393 . S
C2000 H1989 0.950 . S
C2000 C1998 1.391 . S
C2000 C2001 1.400 . S
C2001 C1995 1.491 . S
C2001 C2000 1.400 . S
C2001 C2002 1.398 . S
C2002 H1990 0.950 . S
C2002 C2001 1.398 . S
C2002 C2003 1.391 . S
C2003 H1991 0.950 . S
C2003 C1999 1.393 . S
C2003 C2002 1.391 . S
H2004 C2012 0.950 . S
H2005 C2017 0.950 . S
H2006 C2014 0.950 . S
H2007 C2016 0.950 . S
H2008 C2018 0.950 . S
H2009 C2020 0.950 . S
H2010 C2022 0.950 . S
H2011 C2023 0.950 . S
C2012 H2004 0.950 . S
C2012 C2013 1.386 . S
C2012 C2014 1.391 . S
C2013 C2012 1.386 . S
C2013 C2017 1.393 . S
C2014 H2006 0.950 . S
C2014 C2012 1.391 . S
C2014 C2015 1.400 . S
C2015 C2014 1.400 . S
C2015 C2016 1.398 . S
C2015 C2021 1.491 . S
C2016 H2007 0.950 . S
C2016 C2015 1.398 . S
C2016 C2017 1.391 . S
C2017 H2005 0.950 . S
C2017 C2013 1.393 . S
C2017 C2016 1.391 . S
C2018 H2008 0.950 . S
C2018 C2019 1.386 . S
C2018 C2020 1.391 . S
C2019 C2018 1.386 . S
C2019 C2023 1.393 . S
C2020 H2009 0.950 . S
C2020 C2018 1.391 . S
C2020 C2021 1.400 . S
C2021 C2015 1.491 . S
C2021 C2020 1.400 . S
C2021 C2022 1.398 . S
C2022 H2010 0.950 . S
C2022 C2021 1.398 . S
C2022 C2023 1.391 . S
C2023 H2011 0.950 . S
C2023 C2019 1.393 . S
C2023 C2022 1.391 . S
H2024 C2032 0.950 . S
H2025 C2037 0.950 . S
H2026 C2034 0.950 . S
H2027 C2036 0.950 . S
H2028 C2038 0.950 . S
H2029 C2040 0.950 . S
H2030 C2042 0.950 . S
H2031 C2043 0.950 . S
C2032 H2024 0.950 . S
C2032 C2033 1.386 . S
C2032 C2034 1.391 . S
C2033 C2032 1.386 . S
C2033 C2037 1.393 . S
C2034 H2026 0.950 . S
C2034 C2032 1.391 . S
C2034 C2035 1.400 . S
C2035 C2034 1.400 . S
C2035 C2036 1.398 . S
C2035 C2041 1.491 . S
C2036 H2027 0.950 . S
C2036 C2035 1.398 . S
C2036 C2037 1.391 . S
C2037 H2025 0.950 . S
C2037 C2033 1.393 . S
C2037 C2036 1.391 . S
C2038 H2028 0.950 . S
C2038 C2039 1.386 . S
C2038 C2040 1.391 . S
C2039 C2038 1.386 . S
C2039 C2043 1.393 . S
C2040 H2029 0.950 . S
C2040 C2038 1.391 . S
C2040 C2041 1.400 . S
C2041 C2035 1.491 . S
C2041 C2040 1.400 . S
C2041 C2042 1.398 . S
C2042 H2030 0.950 . S
C2042 C2041 1.398 . S
C2042 C2043 1.391 . S
C2043 H2031 0.950 . S
C2043 C2039 1.393 . S
C2043 C2042 1.391 . S
H2044 C2052 0.950 . S
H2045 C2057 0.950 . S
H2046 C2054 0.950 . S
H2047 C2056 0.950 . S
H2048 C2058 0.950 . S
H2049 C2060 0.950 . S
H2050 C2062 0.950 . S
H2051 C2063 0.950 . S
C2052 H2044 0.950 . S
C2052 C2053 1.386 . S
C2052 C2054 1.391 . S
C2053 C2052 1.386 . S
C2053 C2057 1.393 . S
C2054 H2046 0.950 . S
C2054 C2052 1.391 . S
C2054 C2055 1.400 . S
C2055 C2054 1.400 . S
C2055 C2056 1.398 . S
C2055 C2061 1.491 . S
C2056 H2047 0.950 . S
C2056 C2055 1.398 . S
C2056 C2057 1.391 . S
C2057 H2045 0.950 . S
C2057 C2053 1.393 . S
C2057 C2056 1.391 . S
C2058 H2048 0.950 . S
C2058 C2059 1.386 . S
C2058 C2060 1.391 . S
C2059 C2058 1.386 . S
C2059 C2063 1.393 . S
C2060 H2049 0.950 . S
C2060 C2058 1.391 . S
C2060 C2061 1.400 . S
C2061 C2055 1.491 . S
C2061 C2060 1.400 . S
C2061 C2062 1.398 . S
C2062 H2050 0.950 . S
C2062 C2061 1.398 . S
C2062 C2063 1.391 . S
C2063 H2051 0.950 . S
C2063 C2059 1.393 . S
C2063 C2062 1.391 . S
H2064 C2072 0.950 . S
H2065 C2077 0.950 . S
H2066 C2074 0.950 . S
H2067 C2076 0.950 . S
H2068 C2078 0.950 . S
H2069 C2080 0.950 . S
H2070 C2082 0.950 . S
H2071 C2083 0.950 . S
C2072 H2064 0.950 . S
C2072 C2073 1.386 . S
C2072 C2074 1.391 . S
C2073 C2072 1.386 . S
C2073 C2077 1.393 . S
C2074 H2066 0.950 . S
C2074 C2072 1.391 . S
C2074 C2075 1.400 . S
C2075 C2074 1.400 . S
C2075 C2076 1.398 . S
C2075 C2081 1.491 . S
C2076 H2067 0.950 . S
C2076 C2075 1.398 . S
C2076 C2077 1.391 . S
C2077 H2065 0.950 . S
C2077 C2073 1.393 . S
C2077 C2076 1.391 . S
C2078 H2068 0.950 . S
C2078 C2079 1.386 . S
C2078 C2080 1.391 . S
C2079 C2078 1.386 . S
C2079 C2083 1.393 . S
C2080 H2069 0.950 . S
C2080 C2078 1.391 . S
C2080 C2081 1.400 . S
C2081 C2075 1.491 . S
C2081 C2080 1.400 . S
C2081 C2082 1.398 . S
C2082 H2070 0.950 . S
C2082 C2081 1.398 . S
C2082 C2083 1.391 . S
C2083 H2071 0.950 . S
C2083 C2079 1.393 . S
C2083 C2082 1.391 . S
H2084 C2092 0.950 . S
H2085 C2097 0.950 . S
H2086 C2094 0.950 . S
H2087 C2096 0.950 . S
H2088 C2098 0.950 . S
H2089 C2100 0.950 . S
H2090 C2102 0.950 . S
H2091 C2103 0.950 . S
C2092 H2084 0.950 . S
C2092 C2093 1.386 . S
C2092 C2094 1.391 . S
C2093 C2092 1.386 . S
C2093 C2097 1.393 . S
C2094 H2086 0.950 . S
C2094 C2092 1.391 . S
C2094 C2095 1.400 . S
C2095 C2094 1.400 . S
C2095 C2096 1.398 . S
C2095 C2101 1.491 . S
C2096 H2087 0.950 . S
C2096 C2095 1.398 . S
C2096 C2097 1.391 . S
C2097 H2085 0.950 . S
C2097 C2093 1.393 . S
C2097 C2096 1.391 . S
C2098 H2088 0.950 . S
C2098 C2099 1.386 . S
C2098 C2100 1.391 . S
C2099 C2098 1.386 . S
C2099 C2103 1.393 . S
C2100 H2089 0.950 . S
C2100 C2098 1.391 . S
C2100 C2101 1.400 . S
C2101 C2095 1.491 . S
C2101 C2100 1.400 . S
C2101 C2102 1.398 . S
C2102 H2090 0.950 . S
C2102 C2101 1.398 . S
C2102 C2103 1.391 . S
C2103 H2091 0.950 . S
C2103 C2099 1.393 . S
C2103 C2102 1.391 . S
H2104 C2112 0.950 . S
H2105 C2117 0.950 . S
H2106 C2114 0.950 . S
H2107 C2116 0.950 . S
H2108 C2118 0.950 . S
H2109 C2120 0.950 . S
H2110 C2122 0.950 . S
H2111 C2123 0.950 . S
C2112 H2104 0.950 . S
C2112 C2113 1.386 . S
C2112 C2114 1.391 . S
C2113 C2112 1.386 . S
C2113 C2117 1.393 . S
C2114 H2106 0.950 . S
C2114 C2112 1.391 . S
C2114 C2115 1.400 . S
C2115 C2114 1.400 . S
C2115 C2116 1.398 . S
C2115 C2121 1.491 . S
C2116 H2107 0.950 . S
C2116 C2115 1.398 . S
C2116 C2117 1.391 . S
C2117 H2105 0.950 . S
C2117 C2113 1.393 . S
C2117 C2116 1.391 . S
C2118 H2108 0.950 . S
C2118 C2119 1.386 . S
C2118 C2120 1.391 . S
C2119 C2118 1.386 . S
C2119 C2123 1.393 . S
C2120 H2109 0.950 . S
C2120 C2118 1.391 . S
C2120 C2121 1.400 . S
C2121 C2115 1.491 . S
C2121 C2120 1.400 . S
C2121 C2122 1.398 . S
C2122 H2110 0.950 . S
C2122 C2121 1.398 . S
C2122 C2123 1.391 . S
C2123 H2111 0.950 . S
C2123 C2119 1.393 . S
C2123 C2122 1.391 . S
H2124 C2132 0.950 . S
H2125 C2137 0.950 . S
H2126 C2134 0.950 . S
H2127 C2136 0.950 . S
H2128 C2138 0.950 . S
H2129 C2140 0.950 . S
H2130 C2142 0.950 . S
H2131 C2143 0.950 . S
C2132 H2124 0.950 . S
C2132 C2133 1.386 . S
C2132 C2134 1.391 . S
C2133 C2132 1.386 . S
C2133 C2137 1.393 . S
C2134 H2126 0.950 . S
C2134 C2132 1.391 . S
C2134 C2135 1.400 . S
C2135 C2134 1.400 . S
C2135 C2136 1.398 . S
C2135 C2141 1.491 . S
C2136 H2127 0.950 . S
C2136 C2135 1.398 . S
C2136 C2137 1.391 . S
C2137 H2125 0.950 . S
C2137 C2133 1.393 . S
C2137 C2136 1.391 . S
C2138 H2128 0.950 . S
C2138 C2139 1.386 . S
C2138 C2140 1.391 . S
C2139 C2138 1.386 . S
C2139 C2143 1.393 . S
C2140 H2129 0.950 . S
C2140 C2138 1.391 . S
C2140 C2141 1.400 . S
C2141 C2135 1.491 . S
C2141 C2140 1.400 . S
C2141 C2142 1.398 . S
C2142 H2130 0.950 . S
C2142 C2141 1.398 . S
C2142 C2143 1.391 . S
C2143 H2131 0.950 . S
C2143 C2139 1.393 . S
C2143 C2142 1.391 . S
H2144 C2152 0.950 . S
H2145 C2157 0.950 . S
H2146 C2154 0.950 . S
H2147 C2156 0.950 . S
H2148 C2158 0.950 . S
H2149 C2160 0.950 . S
H2150 C2162 0.950 . S
H2151 C2163 0.950 . S
C2152 H2144 0.950 . S
C2152 C2153 1.386 . S
C2152 C2154 1.391 . S
C2153 C2152 1.386 . S
C2153 C2157 1.393 . S
C2154 H2146 0.950 . S
C2154 C2152 1.391 . S
C2154 C2155 1.400 . S
C2155 C2154 1.400 . S
C2155 C2156 1.398 . S
C2155 C2161 1.491 . S
C2156 H2147 0.950 . S
C2156 C2155 1.398 . S
C2156 C2157 1.391 . S
C2157 H2145 0.950 . S
C2157 C2153 1.393 . S
C2157 C2156 1.391 . S
C2158 H2148 0.950 . S
C2158 C2159 1.386 . S
C2158 C2160 1.391 . S
C2159 C2158 1.386 . S
C2159 C2163 1.393 . S
C2160 H2149 0.950 . S
C2160 C2158 1.391 . S
C2160 C2161 1.400 . S
C2161 C2155 1.491 . S
C2161 C2160 1.400 . S
C2161 C2162 1.398 . S
C2162 H2150 0.950 . S
C2162 C2161 1.398 . S
C2162 C2163 1.391 . S
C2163 H2151 0.950 . S
C2163 C2159 1.393 . S
C2163 C2162 1.391 . S
H2164 C2172 0.950 . S
H2165 C2177 0.950 . S
H2166 C2174 0.950 . S
H2167 C2176 0.950 . S
H2168 C2178 0.950 . S
H2169 C2180 0.950 . S
H2170 C2182 0.950 . S
H2171 C2183 0.950 . S
C2172 H2164 0.950 . S
C2172 C2173 1.386 . S
C2172 C2174 1.391 . S
C2173 C2172 1.386 . S
C2173 C2177 1.393 . S
C2174 H2166 0.950 . S
C2174 C2172 1.391 . S
C2174 C2175 1.400 . S
C2175 C2174 1.400 . S
C2175 C2176 1.398 . S
C2175 C2181 1.491 . S
C2176 H2167 0.950 . S
C2176 C2175 1.398 . S
C2176 C2177 1.391 . S
C2177 H2165 0.950 . S
C2177 C2173 1.393 . S
C2177 C2176 1.391 . S
C2178 H2168 0.950 . S
C2178 C2179 1.386 . S
C2178 C2180 1.391 . S
C2179 C2178 1.386 . S
C2179 C2183 1.393 . S
C2180 H2169 0.950 . S
C2180 C2178 1.391 . S
C2180 C2181 1.400 . S
C2181 C2175 1.491 . S
C2181 C2180 1.400 . S
C2181 C2182 1.398 . S
C2182 H2170 0.950 . S
C2182 C2181 1.398 . S
C2182 C2183 1.391 . S
C2183 H2171 0.950 . S
C2183 C2179 1.393 . S
C2183 C2182 1.391 . S
H2184 C2192 0.950 . S
H2185 C2197 0.950 . S
H2186 C2194 0.950 . S
H2187 C2196 0.950 . S
H2188 C2198 0.950 . S
H2189 C2200 0.950 . S
H2190 C2202 0.950 . S
H2191 C2203 0.950 . S
C2192 H2184 0.950 . S
C2192 C2193 1.386 . S
C2192 C2194 1.391 . S
C2193 C2192 1.386 . S
C2193 C2197 1.393 . S
C2194 H2186 0.950 . S
C2194 C2192 1.391 . S
C2194 C2195 1.400 . S
C2195 C2194 1.400 . S
C2195 C2196 1.398 . S
C2195 C2201 1.491 . S
C2196 H2187 0.950 . S
C2196 C2195 1.398 . S
C2196 C2197 1.391 . S
C2197 H2185 0.950 . S
C2197 C2193 1.393 . S
C2197 C2196 1.391 . S
C2198 H2188 0.950 . S
C2198 C2199 1.386 . S
C2198 C2200 1.391 . S
C2199 C2198 1.386 . S
C2199 C2203 1.393 . S
C2200 H2189 0.950 . S
C2200 C2198 1.391 . S
C2200 C2201 1.400 . S
C2201 C2195 1.491 . S
C2201 C2200 1.400 . S
C2201 C2202 1.398 . S
C2202 H2190 0.950 . S
C2202 C2201 1.398 . S
C2202 C2203 1.391 . S
C2203 H2191 0.950 . S
C2203 C2199 1.393 . S
C2203 C2202 1.391 . S
H2204 C2212 0.950 . S
H2205 C2217 0.950 . S
H2206 C2214 0.950 . S
H2207 C2216 0.950 . S
H2208 C2218 0.950 . S
H2209 C2220 0.950 . S
H2210 C2222 0.950 . S
H2211 C2223 0.950 . S
C2212 H2204 0.950 . S
C2212 C2213 1.386 . S
C2212 C2214 1.391 . S
C2213 C2212 1.386 . S
C2213 C2217 1.393 . S
C2214 H2206 0.950 . S
C2214 C2212 1.391 . S
C2214 C2215 1.400 . S
C2215 C2214 1.400 . S
C2215 C2216 1.398 . S
C2215 C2221 1.491 . S
C2216 H2207 0.950 . S
C2216 C2215 1.398 . S
C2216 C2217 1.391 . S
C2217 H2205 0.950 . S
C2217 C2213 1.393 . S
C2217 C2216 1.391 . S
C2218 H2208 0.950 . S
C2218 C2219 1.386 . S
C2218 C2220 1.391 . S
C2219 C2218 1.386 . S
C2219 C2223 1.393 . S
C2220 H2209 0.950 . S
C2220 C2218 1.391 . S
C2220 C2221 1.400 . S
C2221 C2215 1.491 . S
C2221 C2220 1.400 . S
C2221 C2222 1.398 . S
C2222 H2210 0.950 . S
C2222 C2221 1.398 . S
C2222 C2223 1.391 . S
C2223 H2211 0.950 . S
C2223 C2219 1.393 . S
C2223 C2222 1.391 . S
H2224 C2232 0.950 . S
H2225 C2237 0.950 . S
H2226 C2234 0.950 . S
H2227 C2236 0.950 . S
H2228 C2238 0.950 . S
H2229 C2240 0.950 . S
H2230 C2242 0.950 . S
H2231 C2243 0.950 . S
C2232 H2224 0.950 . S
C2232 C2233 1.386 . S
C2232 C2234 1.391 . S
C2233 C2232 1.386 . S
C2233 C2237 1.393 . S
C2234 H2226 0.950 . S
C2234 C2232 1.391 . S
C2234 C2235 1.400 . S
C2235 C2234 1.400 . S
C2235 C2236 1.398 . S
C2235 C2241 1.491 . S
C2236 H2227 0.950 . S
C2236 C2235 1.398 . S
C2236 C2237 1.391 . S
C2237 H2225 0.950 . S
C2237 C2233 1.393 . S
C2237 C2236 1.391 . S
C2238 H2228 0.950 . S
C2238 C2239 1.386 . S
C2238 C2240 1.391 . S
C2239 C2238 1.386 . S
C2239 C2243 1.393 . S
C2240 H2229 0.950 . S
C2240 C2238 1.391 . S
C2240 C2241 1.400 . S
C2241 C2235 1.491 . S
C2241 C2240 1.400 . S
C2241 C2242 1.398 . S
C2242 H2230 0.950 . S
C2242 C2241 1.398 . S
C2242 C2243 1.391 . S
C2243 H2231 0.950 . S
C2243 C2239 1.393 . S
C2243 C2242 1.391 . S
H2244 C2252 0.950 . S
H2245 C2257 0.950 . S
H2246 C2254 0.950 . S
H2247 C2256 0.950 . S
H2248 C2258 0.950 . S
H2249 C2260 0.950 . S
H2250 C2262 0.950 . S
H2251 C2263 0.950 . S
C2252 H2244 0.950 . S
C2252 C2253 1.386 . S
C2252 C2254 1.391 . S
C2253 C2252 1.386 . S
C2253 C2257 1.393 . S
C2254 H2246 0.950 . S
C2254 C2252 1.391 . S
C2254 C2255 1.400 . S
C2255 C2254 1.400 . S
C2255 C2256 1.398 . S
C2255 C2261 1.491 . S
C2256 H2247 0.950 . S
C2256 C2255 1.398 . S
C2256 C2257 1.391 . S
C2257 H2245 0.950 . S
C2257 C2253 1.393 . S
C2257 C2256 1.391 . S
C2258 H2248 0.950 . S
C2258 C2259 1.386 . S
C2258 C2260 1.391 . S
C2259 C2258 1.386 . S
C2259 C2263 1.393 . S
C2260 H2249 0.950 . S
C2260 C2258 1.391 . S
C2260 C2261 1.400 . S
C2261 C2255 1.491 . S
C2261 C2260 1.400 . S
C2261 C2262 1.398 . S
C2262 H2250 0.950 . S
C2262 C2261 1.398 . S
C2262 C2263 1.391 . S
C2263 H2251 0.950 . S
C2263 C2259 1.393 . S
C2263 C2262 1.391 . S
H2264 C2272 0.950 . S
H2265 C2277 0.950 . S
H2266 C2274 0.950 . S
H2267 C2276 0.950 . S
H2268 C2278 0.950 . S
H2269 C2280 0.950 . S
H2270 C2282 0.950 . S
H2271 C2283 0.950 . S
C2272 H2264 0.950 . S
C2272 C2273 1.386 . S
C2272 C2274 1.391 . S
C2273 C2272 1.386 . S
C2273 C2277 1.393 . S
C2274 H2266 0.950 . S
C2274 C2272 1.391 . S
C2274 C2275 1.400 . S
C2275 C2274 1.400 . S
C2275 C2276 1.398 . S
C2275 C2281 1.491 . S
C2276 H2267 0.950 . S
C2276 C2275 1.398 . S
C2276 C2277 1.391 . S
C2277 H2265 0.950 . S
C2277 C2273 1.393 . S
C2277 C2276 1.391 . S
C2278 H2268 0.950 . S
C2278 C2279 1.386 . S
C2278 C2280 1.391 . S
C2279 C2278 1.386 . S
C2279 C2283 1.393 . S
C2280 H2269 0.950 . S
C2280 C2278 1.391 . S
C2280 C2281 1.400 . S
C2281 C2275 1.491 . S
C2281 C2280 1.400 . S
C2281 C2282 1.398 . S
C2282 H2270 0.950 . S
C2282 C2281 1.398 . S
C2282 C2283 1.391 . S
C2283 H2271 0.950 . S
C2283 C2279 1.393 . S
C2283 C2282 1.391 . S
H2284 C2292 0.950 . S
H2285 C2297 0.950 . S
H2286 C2294 0.950 . S
H2287 C2296 0.950 . S
H2288 C2298 0.950 . S
H2289 C2300 0.950 . S
H2290 C2302 0.950 . S
H2291 C2303 0.950 . S
C2292 H2284 0.950 . S
C2292 C2293 1.386 . S
C2292 C2294 1.391 . S
C2293 C2292 1.386 . S
C2293 C2297 1.393 . S
C2294 H2286 0.950 . S
C2294 C2292 1.391 . S
C2294 C2295 1.400 . S
C2295 C2294 1.400 . S
C2295 C2296 1.398 . S
C2295 C2301 1.491 . S
C2296 H2287 0.950 . S
C2296 C2295 1.398 . S
C2296 C2297 1.391 . S
C2297 H2285 0.950 . S
C2297 C2293 1.393 . S
C2297 C2296 1.391 . S
C2298 H2288 0.950 . S
C2298 C2299 1.386 . S
C2298 C2300 1.391 . S
C2299 C2298 1.386 . S
C2299 C2303 1.393 . S
C2300 H2289 0.950 . S
C2300 C2298 1.391 . S
C2300 C2301 1.400 . S
C2301 C2295 1.491 . S
C2301 C2300 1.400 . S
C2301 C2302 1.398 . S
C2302 H2290 0.950 . S
C2302 C2301 1.398 . S
C2302 C2303 1.391 . S
C2303 H2291 0.950 . S
C2303 C2299 1.393 . S
C2303 C2302 1.391 . S
H2304 C2312 0.950 . S
H2305 C2317 0.950 . S
H2306 C2314 0.950 . S
H2307 C2316 0.950 . S
H2308 C2318 0.950 . S
H2309 C2320 0.950 . S
H2310 C2322 0.950 . S
H2311 C2323 0.950 . S
C2312 H2304 0.950 . S
C2312 C2313 1.386 . S
C2312 C2314 1.391 . S
C2313 C2312 1.386 . S
C2313 C2317 1.393 . S
C2314 H2306 0.950 . S
C2314 C2312 1.391 . S
C2314 C2315 1.400 . S
C2315 C2314 1.400 . S
C2315 C2316 1.398 . S
C2315 C2321 1.491 . S
C2316 H2307 0.950 . S
C2316 C2315 1.398 . S
C2316 C2317 1.391 . S
C2317 H2305 0.950 . S
C2317 C2313 1.393 . S
C2317 C2316 1.391 . S
C2318 H2308 0.950 . S
C2318 C2319 1.386 . S
C2318 C2320 1.391 . S
C2319 C2318 1.386 . S
C2319 C2323 1.393 . S
C2320 H2309 0.950 . S
C2320 C2318 1.391 . S
C2320 C2321 1.400 . S
C2321 C2315 1.491 . S
C2321 C2320 1.400 . S
C2321 C2322 1.398 . S
C2322 H2310 0.950 . S
C2322 C2321 1.398 . S
C2322 C2323 1.391 . S
C2323 H2311 0.950 . S
C2323 C2319 1.393 . S
C2323 C2322 1.391 . S
H2324 C2332 0.950 . S
H2325 C2337 0.950 . S
H2326 C2334 0.950 . S
H2327 C2336 0.950 . S
H2328 C2338 0.950 . S
H2329 C2340 0.950 . S
H2330 C2342 0.950 . S
H2331 C2343 0.950 . S
C2332 H2324 0.950 . S
C2332 C2333 1.386 . S
C2332 C2334 1.391 . S
C2333 C2332 1.386 . S
C2333 C2337 1.393 . S
C2334 H2326 0.950 . S
C2334 C2332 1.391 . S
C2334 C2335 1.400 . S
C2335 C2334 1.400 . S
C2335 C2336 1.398 . S
C2335 C2341 1.491 . S
C2336 H2327 0.950 . S
C2336 C2335 1.398 . S
C2336 C2337 1.391 . S
C2337 H2325 0.950 . S
C2337 C2333 1.393 . S
C2337 C2336 1.391 . S
C2338 H2328 0.950 . S
C2338 C2339 1.386 . S
C2338 C2340 1.391 . S
C2339 C2338 1.386 . S
C2339 C2343 1.393 . S
C2340 H2329 0.950 . S
C2340 C2338 1.391 . S
C2340 C2341 1.400 . S
C2341 C2335 1.491 . S
C2341 C2340 1.400 . S
C2341 C2342 1.398 . S
C2342 H2330 0.950 . S
C2342 C2341 1.398 . S
C2342 C2343 1.391 . S
C2343 H2331 0.950 . S
C2343 C2339 1.393 . S
C2343 C2342 1.391 . S
H2344 C2352 0.950 . S
H2345 C2357 0.950 . S
H2346 C2354 0.950 . S
H2347 C2356 0.950 . S
H2348 C2358 0.950 . S
H2349 C2360 0.950 . S
H2350 C2362 0.950 . S
H2351 C2363 0.950 . S
C2352 H2344 0.950 . S
C2352 C2353 1.386 . S
C2352 C2354 1.391 . S
C2353 C2352 1.386 . S
C2353 C2357 1.393 . S
C2354 H2346 0.950 . S
C2354 C2352 1.391 . S
C2354 C2355 1.400 . S
C2355 C2354 1.400 . S
C2355 C2356 1.398 . S
C2355 C2361 1.491 . S
C2356 H2347 0.950 . S
C2356 C2355 1.398 . S
C2356 C2357 1.391 . S
C2357 H2345 0.950 . S
C2357 C2353 1.393 . S
C2357 C2356 1.391 . S
C2358 H2348 0.950 . S
C2358 C2359 1.386 . S
C2358 C2360 1.391 . S
C2359 C2358 1.386 . S
C2359 C2363 1.393 . S
C2360 H2349 0.950 . S
C2360 C2358 1.391 . S
C2360 C2361 1.400 . S
C2361 C2355 1.491 . S
C2361 C2360 1.400 . S
C2361 C2362 1.398 . S
C2362 H2350 0.950 . S
C2362 C2361 1.398 . S
C2362 C2363 1.391 . S
C2363 H2351 0.950 . S
C2363 C2359 1.393 . S
C2363 C2362 1.391 . S
H2364 C2372 0.950 . S
H2365 C2377 0.950 . S
H2366 C2374 0.950 . S
H2367 C2376 0.950 . S
H2368 C2378 0.950 . S
H2369 C2380 0.950 . S
H2370 C2382 0.950 1_554 S
H2371 C2383 0.950 . S
C2372 H2364 0.950 . S
C2372 C2373 1.386 . S
C2372 C2374 1.391 . S
C2373 C2372 1.386 . S
C2373 C2377 1.393 1_554 S
C2374 H2366 0.950 . S
C2374 C2372 1.391 . S
C2374 C2375 1.400 1_554 S
C2375 C2374 1.400 1_556 S
C2375 C2376 1.398 . S
C2375 C2381 1.491 . S
C2376 H2367 0.950 . S
C2376 C2375 1.398 . S
C2376 C2377 1.391 . S
C2377 H2365 0.950 . S
C2377 C2373 1.393 1_556 S
C2377 C2376 1.391 . S
C2378 H2368 0.950 . S
C2378 C2379 1.386 . S
C2378 C2380 1.391 . S
C2379 C2378 1.386 . S
C2379 C2383 1.393 . S
C2380 H2369 0.950 . S
C2380 C2378 1.391 . S
C2380 C2381 1.400 . S
C2381 C2375 1.491 . S
C2381 C2380 1.400 . S
C2381 C2382 1.398 . S
C2382 H2370 0.950 1_556 S
C2382 C2381 1.398 . S
C2382 C2383 1.391 . S
C2383 H2371 0.950 . S
C2383 C2379 1.393 . S
C2383 C2382 1.391 . S
H2384 C2392 0.934 1_554 S
H2385 C2397 0.950 . S
H2386 C2394 0.950 . S
H2387 C2396 0.950 . S
H2388 C2398 0.950 . S
H2389 C2400 0.950 . S
H2390 C2402 0.950 . S
H2391 C2403 0.950 . S
C2392 H2384 0.934 1_556 S
C2392 C2393 1.386 . S
C2392 C2394 1.391 . S
C2393 C2392 1.386 . S
C2393 C2397 1.393 . S
C2394 H2386 0.950 . S
C2394 C2392 1.391 . S
C2394 C2395 1.400 . S
C2395 C2394 1.400 . S
C2395 C2396 1.398 . S
C2395 C2401 1.491 . S
C2396 H2387 0.950 . S
C2396 C2395 1.398 . S
C2396 C2397 1.391 . S
C2397 H2385 0.950 . S
C2397 C2393 1.393 . S
C2397 C2396 1.391 . S
C2398 H2388 0.950 . S
C2398 C2399 1.386 . S
C2398 C2400 1.391 . S
C2399 C2398 1.386 . S
C2399 C2403 1.393 . S
C2400 H2389 0.950 . S
C2400 C2398 1.391 . S
C2400 C2401 1.400 . S
C2401 C2395 1.491 . S
C2401 C2400 1.400 . S
C2401 C2402 1.398 . S
C2402 H2390 0.950 . S
C2402 C2401 1.398 . S
C2402 C2403 1.391 . S
C2403 H2391 0.950 . S
C2403 C2399 1.393 . S
C2403 C2402 1.391 . S
H2404 C2412 0.950 . S
H2405 C2417 0.950 . S
H2406 C2414 0.950 . S
H2407 C2416 0.950 1_556 S
H2408 C2418 0.950 . S
H2409 C2420 0.950 . S
H2410 C2422 0.950 . S
H2411 C2423 0.950 . S
C2412 H2404 0.950 . S
C2412 C2413 1.386 . S
C2412 C2414 1.391 . S
C2413 C2412 1.386 . S
C2413 C2417 1.393 . S
C2414 H2406 0.950 . S
C2414 C2412 1.391 . S
C2414 C2415 1.400 . S
C2415 C2414 1.400 . S
C2415 C2416 1.398 . S
C2415 C2421 1.491 . S
C2416 H2407 0.950 1_554 S
C2416 C2415 1.398 . S
C2416 C2417 1.391 . S
C2417 H2405 0.950 . S
C2417 C2413 1.393 . S
C2417 C2416 1.391 . S
C2418 H2408 0.950 . S
C2418 C2419 1.386 . S
C2418 C2420 1.391 . S
C2419 C2418 1.386 . S
C2419 C2423 1.393 1_556 S
C2420 H2409 0.950 . S
C2420 C2418 1.391 . S
C2420 C2421 1.400 1_556 S
C2421 C2415 1.491 . S
C2421 C2420 1.400 1_554 S
C2421 C2422 1.398 . S
C2422 H2410 0.950 . S
C2422 C2421 1.398 . S
C2422 C2423 1.391 . S
C2423 H2411 0.950 . S
C2423 C2419 1.393 1_554 S
C2423 C2422 1.391 . S
H2424 C2432 0.950 . S
H2425 C2437 0.951 . S
H2426 C2434 0.950 . S
H2427 C2436 0.950 . S
H2428 C2438 0.950 . S
H2429 C2440 0.950 . S
H2430 C2442 0.950 . S
H2431 C2443 0.950 . S
C2432 H2424 0.950 . S
C2432 C2433 1.386 . S
C2432 C2434 1.391 . S
C2433 C2432 1.386 . S
C2433 C2437 1.416 . S
C2434 H2426 0.950 . S
C2434 C2432 1.391 . S
C2434 C2435 1.400 1_554 S
C2435 C2434 1.400 1_556 S
C2435 C2436 1.398 . S
C2435 C2441 1.491 . S
C2436 H2427 0.950 . S
C2436 C2435 1.398 . S
C2436 C2437 1.366 1_556 S
C2437 H2425 0.951 . S
C2437 C2433 1.416 . S
C2437 C2436 1.366 1_554 S
C2438 H2428 0.950 . S
C2438 C2439 1.386 . S
C2438 C2440 1.391 . S
C2439 C2438 1.386 . S
C2439 C2443 1.393 . S
C2440 H2429 0.950 . S
C2440 C2438 1.391 . S
C2440 C2441 1.400 . S
C2441 C2435 1.491 . S
C2441 C2440 1.400 . S
C2441 C2442 1.398 . S
C2442 H2430 0.950 . S
C2442 C2441 1.398 . S
C2442 C2443 1.391 . S
C2443 H2431 0.950 . S
C2443 C2439 1.393 . S
C2443 C2442 1.391 . S
H2444 C2452 0.950 . S
H2445 C2457 0.950 . S
H2446 C2454 0.950 . S
H2447 C2456 0.950 . S
H2448 C2458 0.950 . S
H2449 C2460 0.950 . S
H2450 C2462 0.950 . S
H2451 C2463 0.950 . S
C2452 H2444 0.950 . S
C2452 C2453 1.386 . S
C2452 C2454 1.391 . S
C2453 C2452 1.386 . S
C2453 C2457 1.393 . S
C2454 H2446 0.950 . S
C2454 C2452 1.391 . S
C2454 C2455 1.400 . S
C2455 C2454 1.400 . S
C2455 C2456 1.398 . S
C2455 C2461 1.491 . S
C2456 H2447 0.950 . S
C2456 C2455 1.398 . S
C2456 C2457 1.391 . S
C2457 H2445 0.950 . S
C2457 C2453 1.393 . S
C2457 C2456 1.391 . S
C2458 H2448 0.950 . S
C2458 C2459 1.386 . S
C2458 C2460 1.391 . S
C2459 C2458 1.386 . S
C2459 C2463 1.393 . S
C2460 H2449 0.950 . S
C2460 C2458 1.391 . S
C2460 C2461 1.400 . S
C2461 C2455 1.491 . S
C2461 C2460 1.400 . S
C2461 C2462 1.398 . S
C2462 H2450 0.950 . S
C2462 C2461 1.398 . S
C2462 C2463 1.391 . S
C2463 H2451 0.950 . S
C2463 C2459 1.393 . S
C2463 C2462 1.391 . S
H2464 C2472 0.950 . S
H2465 C2477 0.950 . S
H2466 C2474 0.950 . S
H2467 C2476 0.995 . S
H2468 C2478 0.950 . S
H2469 C2480 0.950 . S
H2470 C2482 0.905 1_554 S
H2471 C2483 0.950 . S
C2472 H2464 0.950 . S
C2472 C2473 1.386 . S
C2472 C2474 1.391 . S
C2473 C2472 1.386 . S
C2473 C2477 1.393 . S
C2474 H2466 0.950 . S
C2474 C2472 1.391 . S
C2474 C2475 1.400 . S
C2475 C2474 1.400 . S
C2475 C2476 1.387 1_554 S
C2475 C2481 1.491 1_554 S
C2476 H2467 0.995 . S
C2476 C2475 1.387 1_556 S
C2476 C2477 1.360 1_556 S
C2477 H2465 0.950 . S
C2477 C2473 1.393 . S
C2477 C2476 1.360 1_554 S
C2478 H2468 0.950 . S
C2478 C2479 1.386 . S
C2478 C2480 1.391 . S
C2479 C2478 1.386 . S
C2479 C2483 1.393 . S
C2480 H2469 0.950 . S
C2480 C2478 1.391 . S
C2480 C2481 1.400 . S
C2481 C2475 1.491 1_556 S
C2481 C2480 1.400 . S
C2481 C2482 1.412 . S
C2482 H2470 0.905 1_556 S
C2482 C2481 1.412 . S
C2482 C2483 1.423 . S
C2483 H2471 0.950 . S
C2483 C2479 1.393 . S
C2483 C2482 1.423 . S
H2484 C2492 0.950 . S
H2485 C2497 0.950 . S
H2486 C2494 0.950 . S
H2487 C2496 0.950 . S
H2488 C2498 0.950 . S
H2489 C2500 0.950 . S
H2490 C2502 0.950 . S
H2491 C2503 0.950 . S
C2492 H2484 0.950 . S
C2492 C2493 1.386 . S
C2492 C2494 1.391 . S
C2493 C2492 1.386 . S
C2493 C2497 1.393 . S
C2494 H2486 0.950 . S
C2494 C2492 1.391 . S
C2494 C2495 1.400 . S
C2495 C2494 1.400 . S
C2495 C2496 1.398 . S
C2495 C2501 1.491 . S
C2496 H2487 0.950 . S
C2496 C2495 1.398 . S
C2496 C2497 1.391 . S
C2497 H2485 0.950 . S
C2497 C2493 1.393 . S
C2497 C2496 1.391 . S
C2498 H2488 0.950 . S
C2498 C2499 1.386 . S
C2498 C2500 1.391 . S
C2499 C2498 1.386 . S
C2499 C2503 1.393 . S
C2500 H2489 0.950 . S
C2500 C2498 1.391 . S
C2500 C2501 1.400 . S
C2501 C2495 1.491 . S
C2501 C2500 1.400 . S
C2501 C2502 1.398 . S
C2502 H2490 0.950 . S
C2502 C2501 1.398 . S
C2502 C2503 1.391 . S
C2503 H2491 0.950 . S
C2503 C2499 1.393 . S
C2503 C2502 1.391 . S
H2504 C2512 0.950 . S
H2505 C2517 0.950 . S
H2506 C2514 0.950 . S
H2507 C2516 0.950 . S
H2508 C2518 0.950 . S
H2509 C2520 0.950 . S
H2510 C2522 0.950 . S
H2511 C2523 0.950 . S
C2512 H2504 0.950 . S
C2512 C2513 1.386 . S
C2512 C2514 1.391 . S
C2513 C2512 1.386 . S
C2513 C2517 1.393 . S
C2514 H2506 0.950 . S
C2514 C2512 1.391 . S
C2514 C2515 1.400 . S
C2515 C2514 1.400 . S
C2515 C2516 1.398 . S
C2515 C2521 1.491 . S
C2516 H2507 0.950 . S
C2516 C2515 1.398 . S
C2516 C2517 1.391 . S
C2517 H2505 0.950 . S
C2517 C2513 1.393 . S
C2517 C2516 1.391 . S
C2518 H2508 0.950 . S
C2518 C2519 1.386 . S
C2518 C2520 1.391 . S
C2519 C2518 1.386 . S
C2519 C2523 1.393 . S
C2520 H2509 0.950 . S
C2520 C2518 1.391 . S
C2520 C2521 1.400 . S
C2521 C2515 1.491 . S
C2521 C2520 1.400 . S
C2521 C2522 1.398 . S
C2522 H2510 0.950 . S
C2522 C2521 1.398 . S
C2522 C2523 1.391 . S
C2523 H2511 0.950 . S
C2523 C2519 1.393 . S
C2523 C2522 1.391 . S
H2524 C2532 0.950 . S
H2525 C2537 0.950 . S
H2526 C2534 0.950 . S
H2527 C2536 0.950 . S
H2528 C2538 0.950 . S
H2529 C2540 0.950 . S
H2530 C2542 0.950 . S
H2531 C2543 0.950 . S
C2532 H2524 0.950 . S
C2532 C2533 1.386 . S
C2532 C2534 1.391 . S
C2533 C2532 1.386 . S
C2533 C2537 1.393 . S
C2534 H2526 0.950 . S
C2534 C2532 1.391 . S
C2534 C2535 1.400 . S
C2535 C2534 1.400 . S
C2535 C2536 1.398 . S
C2535 C2541 1.491 . S
C2536 H2527 0.950 . S
C2536 C2535 1.398 . S
C2536 C2537 1.391 . S
C2537 H2525 0.950 . S
C2537 C2533 1.393 . S
C2537 C2536 1.391 . S
C2538 H2528 0.950 . S
C2538 C2539 1.386 . S
C2538 C2540 1.391 . S
C2539 C2538 1.386 . S
C2539 C2543 1.393 . S
C2540 H2529 0.950 . S
C2540 C2538 1.391 . S
C2540 C2541 1.400 . S
C2541 C2535 1.491 . S
C2541 C2540 1.400 . S
C2541 C2542 1.398 . S
C2542 H2530 0.950 . S
C2542 C2541 1.398 . S
C2542 C2543 1.391 . S
C2543 H2531 0.950 . S
C2543 C2539 1.393 . S
C2543 C2542 1.391 . S
H2544 C2552 0.950 . S
H2545 C2557 0.950 . S
H2546 C2554 0.950 . S
H2547 C2556 0.950 . S
H2548 C2558 0.950 . S
H2549 C2560 0.950 . S
H2550 C2562 0.950 . S
H2551 C2563 0.950 . S
C2552 H2544 0.950 . S
C2552 C2553 1.386 . S
C2552 C2554 1.391 . S
C2553 C2552 1.386 . S
C2553 C2557 1.393 . S
C2554 H2546 0.950 . S
C2554 C2552 1.391 . S
C2554 C2555 1.400 . S
C2555 C2554 1.400 . S
C2555 C2556 1.398 . S
C2555 C2561 1.491 . S
C2556 H2547 0.950 . S
C2556 C2555 1.398 . S
C2556 C2557 1.391 . S
C2557 H2545 0.950 . S
C2557 C2553 1.393 . S
C2557 C2556 1.391 . S
C2558 H2548 0.950 . S
C2558 C2559 1.386 . S
C2558 C2560 1.391 . S
C2559 C2558 1.386 . S
C2559 C2563 1.393 . S
C2560 H2549 0.950 . S
C2560 C2558 1.391 . S
C2560 C2561 1.400 . S
C2561 C2555 1.491 . S
C2561 C2560 1.400 . S
C2561 C2562 1.398 . S
C2562 H2550 0.950 . S
C2562 C2561 1.398 . S
C2562 C2563 1.391 . S
C2563 H2551 0.950 . S
C2563 C2559 1.393 . S
C2563 C2562 1.391 . S
H2564 C2572 0.950 . S
H2565 C2577 0.950 . S
H2566 C2574 0.950 . S
H2567 C2576 0.950 . S
H2568 C2578 0.950 . S
H2569 C2580 0.950 . S
H2570 C2582 0.950 . S
H2571 C2583 0.950 . S
C2572 H2564 0.950 . S
C2572 C2573 1.386 . S
C2572 C2574 1.391 . S
C2573 C2572 1.386 . S
C2573 C2577 1.393 . S
C2574 H2566 0.950 . S
C2574 C2572 1.391 . S
C2574 C2575 1.400 . S
C2575 C2574 1.400 . S
C2575 C2576 1.398 . S
C2575 C2581 1.491 . S
C2576 H2567 0.950 . S
C2576 C2575 1.398 . S
C2576 C2577 1.391 . S
C2577 H2565 0.950 . S
C2577 C2573 1.393 . S
C2577 C2576 1.391 . S
C2578 H2568 0.950 . S
C2578 C2579 1.386 . S
C2578 C2580 1.391 . S
C2579 C2578 1.386 . S
C2579 C2583 1.393 . S
C2580 H2569 0.950 . S
C2580 C2578 1.391 . S
C2580 C2581 1.400 . S
C2581 C2575 1.491 . S
C2581 C2580 1.400 . S
C2581 C2582 1.398 . S
C2582 H2570 0.950 . S
C2582 C2581 1.398 . S
C2582 C2583 1.391 . S
C2583 H2571 0.950 . S
C2583 C2579 1.393 . S
C2583 C2582 1.391 . S
H2584 C2592 0.990 . S
H2585 C2597 0.950 . S
H2586 C2594 0.950 . S
H2587 C2596 0.950 . S
H2588 C2598 0.950 . S
H2589 C2600 0.950 . S
H2590 C2602 0.950 . S
H2591 C2603 0.950 . S
C2592 H2584 0.990 . S
C2592 C2593 1.378 . S
C2592 C2594 1.361 1_455 S
C2593 C2592 1.378 . S
C2593 C2597 1.393 1_455 S
C2594 H2586 0.950 . S
C2594 C2592 1.361 1_655 S
C2594 C2595 1.400 . S
C2595 C2594 1.400 . S
C2595 C2596 1.398 . S
C2595 C2601 1.491 . S
C2596 H2587 0.950 . S
C2596 C2595 1.398 . S
C2596 C2597 1.391 . S
C2597 H2585 0.950 . S
C2597 C2593 1.393 1_655 S
C2597 C2596 1.391 . S
C2598 H2588 0.950 . S
C2598 C2599 1.386 . S
C2598 C2600 1.391 . S
C2599 C2598 1.386 . S
C2599 C2603 1.393 . S
C2600 H2589 0.950 . S
C2600 C2598 1.391 . S
C2600 C2601 1.400 . S
C2601 C2595 1.491 . S
C2601 C2600 1.400 . S
C2601 C2602 1.398 . S
C2602 H2590 0.950 . S
C2602 C2601 1.398 . S
C2602 C2603 1.391 . S
C2603 H2591 0.950 . S
C2603 C2599 1.393 . S
C2603 C2602 1.391 . S
H2604 C2612 0.950 . S
H2605 C2617 0.950 . S
H2606 C2614 0.950 . S
H2607 C2616 0.950 . S
H2608 C2618 0.950 . S
H2609 C2620 0.950 . S
H2610 C2622 0.950 . S
H2611 C2623 0.950 . S
C2612 H2604 0.950 . S
C2612 C2613 1.386 . S
C2612 C2614 1.391 . S
C2613 C2612 1.386 . S
C2613 C2617 1.393 . S
C2614 H2606 0.950 . S
C2614 C2612 1.391 . S
C2614 C2615 1.400 . S
C2615 C2614 1.400 . S
C2615 C2616 1.398 . S
C2615 C2621 1.491 . S
C2616 H2607 0.950 . S
C2616 C2615 1.398 . S
C2616 C2617 1.391 . S
C2617 H2605 0.950 . S
C2617 C2613 1.393 . S
C2617 C2616 1.391 . S
C2618 H2608 0.950 . S
C2618 C2619 1.386 . S
C2618 C2620 1.391 . S
C2619 C2618 1.386 . S
C2619 C2623 1.393 . S
C2620 H2609 0.950 . S
C2620 C2618 1.391 . S
C2620 C2621 1.400 . S
C2621 C2615 1.491 . S
C2621 C2620 1.400 . S
C2621 C2622 1.398 . S
C2622 H2610 0.950 . S
C2622 C2621 1.398 . S
C2622 C2623 1.391 . S
C2623 H2611 0.950 . S
C2623 C2619 1.393 . S
C2623 C2622 1.391 . S
H2624 C2632 0.950 . S
H2625 C2637 0.950 . S
H2626 C2634 0.950 . S
H2627 C2636 0.950 . S
H2628 C2638 0.950 . S
H2629 C2640 0.950 . S
H2630 C2642 0.950 . S
H2631 C2643 0.950 . S
C2632 H2624 0.950 . S
C2632 C2633 1.386 . S
C2632 C2634 1.391 . S
C2633 C2632 1.386 . S
C2633 C2637 1.393 . S
C2634 H2626 0.950 . S
C2634 C2632 1.391 . S
C2634 C2635 1.400 . S
C2635 C2634 1.400 . S
C2635 C2636 1.398 . S
C2635 C2641 1.491 . S
C2636 H2627 0.950 . S
C2636 C2635 1.398 . S
C2636 C2637 1.391 . S
C2637 H2625 0.950 . S
C2637 C2633 1.393 . S
C2637 C2636 1.391 . S
C2638 H2628 0.950 . S
C2638 C2639 1.386 . S
C2638 C2640 1.391 . S
C2639 C2638 1.386 . S
C2639 C2643 1.393 . S
C2640 H2629 0.950 . S
C2640 C2638 1.391 . S
C2640 C2641 1.400 . S
C2641 C2635 1.491 . S
C2641 C2640 1.400 . S
C2641 C2642 1.398 . S
C2642 H2630 0.950 . S
C2642 C2641 1.398 . S
C2642 C2643 1.391 . S
C2643 H2631 0.950 . S
C2643 C2639 1.393 . S
C2643 C2642 1.391 . S
H2644 C2652 0.950 . S
H2645 C2657 0.950 . S
H2646 C2654 0.956 . S
H2647 C2656 0.950 . S
H2648 C2658 0.950 . S
H2649 C2660 0.950 . S
H2650 C2662 0.950 1_545 S
H2651 C2663 0.950 1_545 S
C2652 H2644 0.950 . S
C2652 C2653 1.386 . S
C2652 C2654 1.391 . S
C2653 C2652 1.386 . S
C2653 C2657 1.393 . S
C2654 H2646 0.956 . S
C2654 C2652 1.391 . S
C2654 C2655 1.400 . S
C2655 C2654 1.400 . S
C2655 C2656 1.398 . S
C2655 C2661 1.491 . S
C2656 H2647 0.950 . S
C2656 C2655 1.398 . S
C2656 C2657 1.391 . S
C2657 H2645 0.950 . S
C2657 C2653 1.393 . S
C2657 C2656 1.391 . S
C2658 H2648 0.950 . S
C2658 C2659 1.386 . S
C2658 C2660 1.391 . S
C2659 C2658 1.386 . S
C2659 C2663 1.393 . S
C2660 H2649 0.950 . S
C2660 C2658 1.391 . S
C2660 C2661 1.400 . S
C2661 C2655 1.491 . S
C2661 C2660 1.400 . S
C2661 C2662 1.398 . S
C2662 H2650 0.950 1_565 S
C2662 C2661 1.398 . S
C2662 C2663 1.391 . S
C2663 H2651 0.950 1_565 S
C2663 C2659 1.393 . S
C2663 C2662 1.391 . S
H2664 C2672 0.950 . S
H2665 C2677 0.950 . S
H2666 C2674 0.950 . S
H2667 C2676 0.950 . S
H2668 C2678 0.950 . S
H2669 C2680 0.950 . S
H2670 C2682 0.950 . S
H2671 C2683 0.953 . S
C2672 H2664 0.950 . S
C2672 C2673 1.386 . S
C2672 C2674 1.391 . S
C2673 C2672 1.386 . S
C2673 C2677 1.393 . S
C2674 H2666 0.950 . S
C2674 C2672 1.391 . S
C2674 C2675 1.400 . S
C2675 C2674 1.400 . S
C2675 C2676 1.398 . S
C2675 C2681 1.491 . S
C2676 H2667 0.950 . S
C2676 C2675 1.398 . S
C2676 C2677 1.391 . S
C2677 H2665 0.950 . S
C2677 C2673 1.393 . S
C2677 C2676 1.391 . S
C2678 H2668 0.950 . S
C2678 C2679 1.386 . S
C2678 C2680 1.391 . S
C2679 C2678 1.386 . S
C2679 C2683 1.393 . S
C2680 H2669 0.950 . S
C2680 C2678 1.391 . S
C2680 C2681 1.400 . S
C2681 C2675 1.491 . S
C2681 C2680 1.400 . S
C2681 C2682 1.398 . S
C2682 H2670 0.950 . S
C2682 C2681 1.398 . S
C2682 C2683 1.391 . S
C2683 H2671 0.953 . S
C2683 C2679 1.393 . S
C2683 C2682 1.391 . S
H2684 C2692 0.950 . S
H2685 C2697 0.950 . S
H2686 C2694 0.950 . S
H2687 C2696 0.950 . S
H2688 C2698 0.950 . S
H2689 C2700 0.950 . S
H2690 C2702 0.969 . S
H2691 C2703 0.950 . S
C2692 H2684 0.950 . S
C2692 C2693 1.386 . S
C2692 C2694 1.391 . S
C2693 C2692 1.386 . S
C2693 C2697 1.393 . S
C2694 H2686 0.950 . S
C2694 C2692 1.391 . S
C2694 C2695 1.400 . S
C2695 C2694 1.400 . S
C2695 C2696 1.398 . S
C2695 C2701 1.491 . S
C2696 H2687 0.950 . S
C2696 C2695 1.398 . S
C2696 C2697 1.391 . S
C2697 H2685 0.950 . S
C2697 C2693 1.393 . S
C2697 C2696 1.391 . S
C2698 H2688 0.950 . S
C2698 C2699 1.386 1_455 S
C2698 C2700 1.391 . S
C2699 C2698 1.386 1_655 S
C2699 C2703 1.393 . S
C2700 H2689 0.950 . S
C2700 C2698 1.391 . S
C2700 C2701 1.400 . S
C2701 C2695 1.491 . S
C2701 C2700 1.400 . S
C2701 C2702 1.398 . S
C2702 H2690 0.969 . S
C2702 C2701 1.398 . S
C2702 C2703 1.391 1_455 S
C2703 H2691 0.950 . S
C2703 C2699 1.393 . S
C2703 C2702 1.391 1_655 S
H2704 C2712 0.950 . S
H2705 C2717 0.950 . S
H2706 C2714 0.950 . S
H2707 C2716 0.950 . S
H2708 C2718 0.950 . S
H2709 C2720 0.950 . S
H2710 C2722 0.950 . S
H2711 C2723 0.950 . S
C2712 H2704 0.950 . S
C2712 C2713 1.386 . S
C2712 C2714 1.391 . S
C2713 C2712 1.386 . S
C2713 C2717 1.393 . S
C2714 H2706 0.950 . S
C2714 C2712 1.391 . S
C2714 C2715 1.400 . S
C2715 C2714 1.400 . S
C2715 C2716 1.398 . S
C2715 C2721 1.491 . S
C2716 H2707 0.950 . S
C2716 C2715 1.398 . S
C2716 C2717 1.391 . S
C2717 H2705 0.950 . S
C2717 C2713 1.393 . S
C2717 C2716 1.391 . S
C2718 H2708 0.950 . S
C2718 C2719 1.386 . S
C2718 C2720 1.391 . S
C2719 C2718 1.386 . S
C2719 C2723 1.393 . S
C2720 H2709 0.950 . S
C2720 C2718 1.391 . S
C2720 C2721 1.400 . S
C2721 C2715 1.491 . S
C2721 C2720 1.400 . S
C2721 C2722 1.398 . S
C2722 H2710 0.950 . S
C2722 C2721 1.398 . S
C2722 C2723 1.391 . S
C2723 H2711 0.950 . S
C2723 C2719 1.393 . S
C2723 C2722 1.391 . S
H2724 C2732 0.950 . S
H2725 C2737 0.950 . S
H2726 C2734 0.950 . S
H2727 C2736 0.950 . S
H2728 C2738 0.950 . S
H2729 C2740 0.950 . S
H2730 C2742 0.950 . S
H2731 C2743 0.950 . S
C2732 H2724 0.950 . S
C2732 C2733 1.386 . S
C2732 C2734 1.391 . S
C2733 C2732 1.386 . S
C2733 C2737 1.393 . S
C2734 H2726 0.950 . S
C2734 C2732 1.391 . S
C2734 C2735 1.400 . S
C2735 C2734 1.400 . S
C2735 C2736 1.398 . S
C2735 C2741 1.491 . S
C2736 H2727 0.950 . S
C2736 C2735 1.398 . S
C2736 C2737 1.391 . S
C2737 H2725 0.950 . S
C2737 C2733 1.393 . S
C2737 C2736 1.391 . S
C2738 H2728 0.950 . S
C2738 C2739 1.386 . S
C2738 C2740 1.391 . S
C2739 C2738 1.386 . S
C2739 C2743 1.393 . S
C2740 H2729 0.950 . S
C2740 C2738 1.391 . S
C2740 C2741 1.400 . S
C2741 C2735 1.491 . S
C2741 C2740 1.400 . S
C2741 C2742 1.398 . S
C2742 H2730 0.950 . S
C2742 C2741 1.398 . S
C2742 C2743 1.391 . S
C2743 H2731 0.950 . S
C2743 C2739 1.393 . S
C2743 C2742 1.391 . S
H2744 C2752 0.950 . S
H2745 C2757 0.950 . S
H2746 C2754 0.950 . S
H2747 C2756 0.950 . S
H2748 C2758 0.950 . S
H2749 C2760 0.950 . S
H2750 C2762 0.950 . S
H2751 C2763 0.950 . S
C2752 H2744 0.950 . S
C2752 C2753 1.386 . S
C2752 C2754 1.391 . S
C2753 C2752 1.386 . S
C2753 C2757 1.393 . S
C2754 H2746 0.950 . S
C2754 C2752 1.391 . S
C2754 C2755 1.400 . S
C2755 C2754 1.400 . S
C2755 C2756 1.398 . S
C2755 C2761 1.491 . S
C2756 H2747 0.950 . S
C2756 C2755 1.398 . S
C2756 C2757 1.391 . S
C2757 H2745 0.950 . S
C2757 C2753 1.393 . S
C2757 C2756 1.391 . S
C2758 H2748 0.950 . S
C2758 C2759 1.386 . S
C2758 C2760 1.391 . S
C2759 C2758 1.386 . S
C2759 C2763 1.393 . S
C2760 H2749 0.950 . S
C2760 C2758 1.391 . S
C2760 C2761 1.400 . S
C2761 C2755 1.491 . S
C2761 C2760 1.400 . S
C2761 C2762 1.398 . S
C2762 H2750 0.950 . S
C2762 C2761 1.398 . S
C2762 C2763 1.391 . S
C2763 H2751 0.950 . S
C2763 C2759 1.393 . S
C2763 C2762 1.391 . S
H2764 C2772 1.011 . S
H2765 C2777 0.950 . S
H2766 C2774 0.950 . S
H2767 C2776 0.950 . S
H2768 C2778 0.950 . S
H2769 C2780 0.950 . S
H2770 C2782 0.950 . S
H2771 C2783 0.950 . S
C2772 H2764 1.011 . S
C2772 C2773 1.386 . S
C2772 C2774 1.391 . S
C2773 C2772 1.386 . S
C2773 C2777 1.393 . S
C2774 H2766 0.950 . S
C2774 C2772 1.391 . S
C2774 C2775 1.400 . S
C2775 C2774 1.400 . S
C2775 C2776 1.398 . S
C2775 C2781 1.491 . S
C2776 H2767 0.950 . S
C2776 C2775 1.398 . S
C2776 C2777 1.391 . S
C2777 H2765 0.950 . S
C2777 C2773 1.393 . S
C2777 C2776 1.391 . S
C2778 H2768 0.950 . S
C2778 C2779 1.386 . S
C2778 C2780 1.391 . S
C2779 C2778 1.386 . S
C2779 C2783 1.393 . S
C2780 H2769 0.950 . S
C2780 C2778 1.391 . S
C2780 C2781 1.400 . S
C2781 C2775 1.491 . S
C2781 C2780 1.400 . S
C2781 C2782 1.398 . S
C2782 H2770 0.950 . S
C2782 C2781 1.398 . S
C2782 C2783 1.391 . S
C2783 H2771 0.950 . S
C2783 C2779 1.393 . S
C2783 C2782 1.391 . S
H2784 C2792 0.950 . S
H2785 C2797 0.950 . S
H2786 C2794 0.950 . S
H2787 C2796 0.950 . S
H2788 C2798 0.946 . S
H2789 C2800 0.950 . S
H2790 C2802 0.950 . S
H2791 C2803 0.950 . S
C2792 H2784 0.950 . S
C2792 C2793 1.386 . S
C2792 C2794 1.391 . S
C2793 C2792 1.386 . S
C2793 C2797 1.393 . S
C2794 H2786 0.950 . S
C2794 C2792 1.391 . S
C2794 C2795 1.400 . S
C2795 C2794 1.400 . S
C2795 C2796 1.398 . S
C2795 C2801 1.491 . S
C2796 H2787 0.950 . S
C2796 C2795 1.398 . S
C2796 C2797 1.391 . S
C2797 H2785 0.950 . S
C2797 C2793 1.393 . S
C2797 C2796 1.391 . S
C2798 H2788 0.946 . S
C2798 C2799 1.386 . S
C2798 C2800 1.391 . S
C2799 C2798 1.386 . S
C2799 C2803 1.393 . S
C2800 H2789 0.950 . S
C2800 C2798 1.391 . S
C2800 C2801 1.400 . S
C2801 C2795 1.491 . S
C2801 C2800 1.400 . S
C2801 C2802 1.398 . S
C2802 H2790 0.950 . S
C2802 C2801 1.398 . S
C2802 C2803 1.391 . S
C2803 H2791 0.950 . S
C2803 C2799 1.393 . S
C2803 C2802 1.391 . S
H2804 C2812 0.950 . S
H2805 C2817 0.950 . S
H2806 C2814 0.950 . S
H2807 C2816 0.950 . S
H2808 C2818 0.950 1_455 S
H2809 C2820 0.950 . S
H2810 C2822 0.950 . S
H2811 C2823 0.950 . S
C2812 H2804 0.950 . S
C2812 C2813 1.386 . S
C2812 C2814 1.391 . S
C2813 C2812 1.386 . S
C2813 C2817 1.393 . S
C2814 H2806 0.950 . S
C2814 C2812 1.391 . S
C2814 C2815 1.400 . S
C2815 C2814 1.400 . S
C2815 C2816 1.398 . S
C2815 C2821 1.491 . S
C2816 H2807 0.950 . S
C2816 C2815 1.398 . S
C2816 C2817 1.391 . S
C2817 H2805 0.950 . S
C2817 C2813 1.393 . S
C2817 C2816 1.391 . S
C2818 H2808 0.950 1_655 S
C2818 C2819 1.386 . S
C2818 C2820 1.391 . S
C2819 C2818 1.386 . S
C2819 C2823 1.393 . S
C2820 H2809 0.950 . S
C2820 C2818 1.391 . S
C2820 C2821 1.400 . S
C2821 C2815 1.491 . S
C2821 C2820 1.400 . S
C2821 C2822 1.398 . S
C2822 H2810 0.950 . S
C2822 C2821 1.398 . S
C2822 C2823 1.391 . S
C2823 H2811 0.950 . S
C2823 C2819 1.393 . S
C2823 C2822 1.391 . S
H2824 C2832 0.950 . S
H2825 C2837 0.950 . S
H2826 C2834 0.950 . S
H2827 C2836 0.950 . S
H2828 C2838 0.950 . S
H2829 C2840 0.950 . S
H2830 C2842 0.950 . S
H2831 C2843 0.950 . S
C2832 H2824 0.950 . S
C2832 C2833 1.386 . S
C2832 C2834 1.391 . S
C2833 C2832 1.386 . S
C2833 C2837 1.393 . S
C2834 H2826 0.950 . S
C2834 C2832 1.391 . S
C2834 C2835 1.400 . S
C2835 C2834 1.400 . S
C2835 C2836 1.398 . S
C2835 C2841 1.491 . S
C2836 H2827 0.950 . S
C2836 C2835 1.398 . S
C2836 C2837 1.391 . S
C2837 H2825 0.950 . S
C2837 C2833 1.393 . S
C2837 C2836 1.391 . S
C2838 H2828 0.950 . S
C2838 C2839 1.386 . S
C2838 C2840 1.391 . S
C2839 C2838 1.386 . S
C2839 C2843 1.393 . S
C2840 H2829 0.950 . S
C2840 C2838 1.391 . S
C2840 C2841 1.400 . S
C2841 C2835 1.491 . S
C2841 C2840 1.400 . S
C2841 C2842 1.398 . S
C2842 H2830 0.950 . S
C2842 C2841 1.398 . S
C2842 C2843 1.391 . S
C2843 H2831 0.950 . S
C2843 C2839 1.393 . S
C2843 C2842 1.391 . S
H2844 C2852 0.950 . S
H2845 C2857 0.950 . S
H2846 C2854 0.950 . S
H2847 C2856 0.950 . S
H2848 C2858 0.950 . S
H2849 C2860 0.950 . S
H2850 C2862 0.950 . S
H2851 C2863 0.950 . S
C2852 H2844 0.950 . S
C2852 C2853 1.386 . S
C2852 C2854 1.391 . S
C2853 C2852 1.386 . S
C2853 C2857 1.393 . S
C2854 H2846 0.950 . S
C2854 C2852 1.391 . S
C2854 C2855 1.400 . S
C2855 C2854 1.400 . S
C2855 C2856 1.398 . S
C2855 C2861 1.491 . S
C2856 H2847 0.950 . S
C2856 C2855 1.398 . S
C2856 C2857 1.391 . S
C2857 H2845 0.950 . S
C2857 C2853 1.393 . S
C2857 C2856 1.391 . S
C2858 H2848 0.950 . S
C2858 C2859 1.386 . S
C2858 C2860 1.391 . S
C2859 C2858 1.386 . S
C2859 C2863 1.393 . S
C2860 H2849 0.950 . S
C2860 C2858 1.391 . S
C2860 C2861 1.400 . S
C2861 C2855 1.491 . S
C2861 C2860 1.400 . S
C2861 C2862 1.398 . S
C2862 H2850 0.950 . S
C2862 C2861 1.398 . S
C2862 C2863 1.391 . S
C2863 H2851 0.950 . S
C2863 C2859 1.393 . S
C2863 C2862 1.391 . S
H2864 C2872 0.950 . S
H2865 C2877 0.950 . S
H2866 C2874 0.950 . S
H2867 C2876 0.950 . S
H2868 C2878 0.950 . S
H2869 C2880 0.950 . S
H2870 C2882 0.950 . S
H2871 C2883 0.950 . S
C2872 H2864 0.950 . S
C2872 C2873 1.386 . S
C2872 C2874 1.391 . S
C2873 C2872 1.386 . S
C2873 C2877 1.393 . S
C2874 H2866 0.950 . S
C2874 C2872 1.391 . S
C2874 C2875 1.400 . S
C2875 C2874 1.400 . S
C2875 C2876 1.398 . S
C2875 C2881 1.491 . S
C2876 H2867 0.950 . S
C2876 C2875 1.398 . S
C2876 C2877 1.391 . S
C2877 H2865 0.950 . S
C2877 C2873 1.393 . S
C2877 C2876 1.391 . S
C2878 H2868 0.950 . S
C2878 C2879 1.386 . S
C2878 C2880 1.391 . S
C2879 C2878 1.386 . S
C2879 C2883 1.393 . S
C2880 H2869 0.950 . S
C2880 C2878 1.391 . S
C2880 C2881 1.400 . S
C2881 C2875 1.491 . S
C2881 C2880 1.400 . S
C2881 C2882 1.398 . S
C2882 H2870 0.950 . S
C2882 C2881 1.398 . S
C2882 C2883 1.391 . S
C2883 H2871 0.950 . S
C2883 C2879 1.393 . S
C2883 C2882 1.391 . S
H2884 C2892 0.950 . S
H2885 C2897 0.950 . S
H2886 C2894 0.950 . S
H2887 C2896 0.950 . S
H2888 C2898 0.950 . S
H2889 C2900 0.950 . S
H2890 C2902 0.950 . S
H2891 C2903 0.950 . S
C2892 H2884 0.950 . S
C2892 C2893 1.386 . S
C2892 C2894 1.391 . S
C2893 C2892 1.386 . S
C2893 C2897 1.393 . S
C2894 H2886 0.950 . S
C2894 C2892 1.391 . S
C2894 C2895 1.400 . S
C2895 C2894 1.400 . S
C2895 C2896 1.398 . S
C2895 C2901 1.491 . S
C2896 H2887 0.950 . S
C2896 C2895 1.398 . S
C2896 C2897 1.391 . S
C2897 H2885 0.950 . S
C2897 C2893 1.393 . S
C2897 C2896 1.391 . S
C2898 H2888 0.950 . S
C2898 C2899 1.386 . S
C2898 C2900 1.391 . S
C2899 C2898 1.386 . S
C2899 C2903 1.393 . S
C2900 H2889 0.950 . S
C2900 C2898 1.391 . S
C2900 C2901 1.400 . S
C2901 C2895 1.491 . S
C2901 C2900 1.400 . S
C2901 C2902 1.398 . S
C2902 H2890 0.950 . S
C2902 C2901 1.398 . S
C2902 C2903 1.391 . S
C2903 H2891 0.950 . S
C2903 C2899 1.393 . S
C2903 C2902 1.391 . S
H2904 C2912 0.950 . S
H2905 C2917 0.950 . S
H2906 C2914 0.950 . S
H2907 C2916 0.950 . S
H2908 C2918 0.950 . S
H2909 C2920 0.950 . S
H2910 C2922 0.950 . S
H2911 C2923 0.950 . S
C2912 H2904 0.950 . S
C2912 C2913 1.386 . S
C2912 C2914 1.391 . S
C2913 C2912 1.386 . S
C2913 C2917 1.393 . S
C2914 H2906 0.950 . S
C2914 C2912 1.391 . S
C2914 C2915 1.400 . S
C2915 C2914 1.400 . S
C2915 C2916 1.398 . S
C2915 C2921 1.491 . S
C2916 H2907 0.950 . S
C2916 C2915 1.398 . S
C2916 C2917 1.391 . S
C2917 H2905 0.950 . S
C2917 C2913 1.393 . S
C2917 C2916 1.391 . S
C2918 H2908 0.950 . S
C2918 C2919 1.386 . S
C2918 C2920 1.391 . S
C2919 C2918 1.386 . S
C2919 C2923 1.393 . S
C2920 H2909 0.950 . S
C2920 C2918 1.391 . S
C2920 C2921 1.400 . S
C2921 C2915 1.491 . S
C2921 C2920 1.400 . S
C2921 C2922 1.398 . S
C2922 H2910 0.950 . S
C2922 C2921 1.398 . S
C2922 C2923 1.391 . S
C2923 H2911 0.950 . S
C2923 C2919 1.393 . S
C2923 C2922 1.391 . S
H2924 C2932 0.950 . S
H2925 C2937 0.950 . S
H2926 C2934 0.950 . S
H2927 C2936 0.950 . S
H2928 C2938 0.950 . S
H2929 C2940 0.950 . S
H2930 C2942 0.950 . S
H2931 C2943 0.950 . S
C2932 H2924 0.950 . S
C2932 C2933 1.386 . S
C2932 C2934 1.391 . S
C2933 C2932 1.386 . S
C2933 C2937 1.393 . S
C2934 H2926 0.950 . S
C2934 C2932 1.391 . S
C2934 C2935 1.400 . S
C2935 C2934 1.400 . S
C2935 C2936 1.398 . S
C2935 C2941 1.491 . S
C2936 H2927 0.950 . S
C2936 C2935 1.398 . S
C2936 C2937 1.391 . S
C2937 H2925 0.950 . S
C2937 C2933 1.393 . S
C2937 C2936 1.391 . S
C2938 H2928 0.950 . S
C2938 C2939 1.386 . S
C2938 C2940 1.391 . S
C2939 C2938 1.386 . S
C2939 C2943 1.393 . S
C2940 H2929 0.950 . S
C2940 C2938 1.391 . S
C2940 C2941 1.400 . S
C2941 C2935 1.491 . S
C2941 C2940 1.400 . S
C2941 C2942 1.398 . S
C2942 H2930 0.950 . S
C2942 C2941 1.398 . S
C2942 C2943 1.391 . S
C2943 H2931 0.950 . S
C2943 C2939 1.393 . S
C2943 C2942 1.391 . S
H2944 C2952 0.950 . S
H2945 C2957 0.950 . S
H2946 C2954 0.950 . S
H2947 C2956 0.950 . S
H2948 C2958 0.950 . S
H2949 C2960 0.950 . S
H2950 C2962 0.950 . S
H2951 C2963 0.950 . S
C2952 H2944 0.950 . S
C2952 C2953 1.386 . S
C2952 C2954 1.391 . S
C2953 C2952 1.386 . S
C2953 C2957 1.393 . S
C2954 H2946 0.950 . S
C2954 C2952 1.391 . S
C2954 C2955 1.400 . S
C2955 C2954 1.400 . S
C2955 C2956 1.398 . S
C2955 C2961 1.491 . S
C2956 H2947 0.950 . S
C2956 C2955 1.398 . S
C2956 C2957 1.391 . S
C2957 H2945 0.950 . S
C2957 C2953 1.393 . S
C2957 C2956 1.391 . S
C2958 H2948 0.950 . S
C2958 C2959 1.386 . S
C2958 C2960 1.391 . S
C2959 C2958 1.386 . S
C2959 C2963 1.393 . S
C2960 H2949 0.950 . S
C2960 C2958 1.391 . S
C2960 C2961 1.400 . S
C2961 C2955 1.491 . S
C2961 C2960 1.400 . S
C2961 C2962 1.398 . S
C2962 H2950 0.950 . S
C2962 C2961 1.398 . S
C2962 C2963 1.391 . S
C2963 H2951 0.950 . S
C2963 C2959 1.393 . S
C2963 C2962 1.391 . S
H2964 C2972 0.950 . S
H2965 C2977 0.950 . S
H2966 C2974 0.950 . S
H2967 C2976 0.950 . S
H2968 C2978 0.950 . S
H2969 C2980 0.950 . S
H2970 C2982 0.937 1_455 S
H2971 C2983 0.950 . S
C2972 H2964 0.950 . S
C2972 C2973 1.386 . S
C2972 C2974 1.391 . S
C2973 C2972 1.386 . S
C2973 C2977 1.393 . S
C2974 H2966 0.950 . S
C2974 C2972 1.391 . S
C2974 C2975 1.400 . S
C2975 C2974 1.400 . S
C2975 C2976 1.398 . S
C2975 C2981 1.491 . S
C2976 H2967 0.950 . S
C2976 C2975 1.398 . S
C2976 C2977 1.391 . S
C2977 H2965 0.950 . S
C2977 C2973 1.393 . S
C2977 C2976 1.391 . S
C2978 H2968 0.950 . S
C2978 C2979 1.386 . S
C2978 C2980 1.391 . S
C2979 C2978 1.386 . S
C2979 C2983 1.393 1_655 S
C2980 H2969 0.950 . S
C2980 C2978 1.391 . S
C2980 C2981 1.400 . S
C2981 C2975 1.491 . S
C2981 C2980 1.400 . S
C2981 C2982 1.461 . S
C2982 H2970 0.937 1_655 S
C2982 C2981 1.461 . S
C2982 C2983 1.344 1_655 S
C2983 H2971 0.950 . S
C2983 C2979 1.393 1_455 S
C2983 C2982 1.344 1_455 S
H2984 C2992 0.950 . S
H2985 C2997 0.950 . S
H2986 C2994 0.950 . S
H2987 C2996 0.950 . S
H2988 C2998 0.950 . S
H2989 C3000 0.950 . S
H2990 C3002 0.950 . S
H2991 C3003 0.950 . S
C2992 H2984 0.950 . S
C2992 C2993 1.386 . S
C2992 C2994 1.391 . S
C2993 C2992 1.386 . S
C2993 C2997 1.393 . S
C2994 H2986 0.950 . S
C2994 C2992 1.391 . S
C2994 C2995 1.400 . S
C2995 C2994 1.400 . S
C2995 C2996 1.398 . S
C2995 C3001 1.491 . S
C2996 H2987 0.950 . S
C2996 C2995 1.398 . S
C2996 C2997 1.391 . S
C2997 H2985 0.950 . S
C2997 C2993 1.393 . S
C2997 C2996 1.391 . S
C2998 H2988 0.950 . S
C2998 C2999 1.386 . S
C2998 C3000 1.391 . S
C2999 C2998 1.386 . S
C2999 C3003 1.393 . S
C3000 H2989 0.950 . S
C3000 C2998 1.391 . S
C3000 C3001 1.400 . S
C3001 C2995 1.491 . S
C3001 C3000 1.400 . S
C3001 C3002 1.398 . S
C3002 H2990 0.950 . S
C3002 C3001 1.398 . S
C3002 C3003 1.391 . S
C3003 H2991 0.950 . S
C3003 C2999 1.393 . S
C3003 C3002 1.391 . S
H3004 C3012 0.950 . S
H3005 C3017 0.950 . S
H3006 C3014 0.950 1_565 S
H3007 C3016 0.950 . S
H3008 C3018 0.950 . S
H3009 C3020 0.950 . S
H3010 C3022 0.950 . S
H3011 C3023 0.950 . S
C3012 H3004 0.950 . S
C3012 C3013 1.386 . S
C3012 C3014 1.391 . S
C3013 C3012 1.386 . S
C3013 C3017 1.393 . S
C3014 H3006 0.950 1_545 S
C3014 C3012 1.391 . S
C3014 C3015 1.400 . S
C3015 C3014 1.400 . S
C3015 C3016 1.398 . S
C3015 C3021 1.491 . S
C3016 H3007 0.950 . S
C3016 C3015 1.398 . S
C3016 C3017 1.391 . S
C3017 H3005 0.950 . S
C3017 C3013 1.393 . S
C3017 C3016 1.391 . S
C3018 H3008 0.950 . S
C3018 C3019 1.386 . S
C3018 C3020 1.391 . S
C3019 C3018 1.386 . S
C3019 C3023 1.393 1_545 S
C3020 H3009 0.950 . S
C3020 C3018 1.391 . S
C3020 C3021 1.400 . S
C3021 C3015 1.491 . S
C3021 C3020 1.400 . S
C3021 C3022 1.398 1_545 S
C3022 H3010 0.950 . S
C3022 C3021 1.398 1_565 S
C3022 C3023 1.391 . S
C3023 H3011 0.950 . S
C3023 C3019 1.393 1_565 S
C3023 C3022 1.391 . S
C1593 C13 1.156 . S
C1599 C981 1.166 . S
C1613 C27 1.366 . S
C1619 C1061 1.414 . S
C1639 C1129 1.280 . S
C1633 C36 1.238 . S
C1653 C41 1.670 . S
C1659 C1209 1.688 . S
C1673 C8 1.481 1_556 S
C1679 C1283 1.577 . S
C1693 C22 1.469 . S
C1699 C1351 1.455 . S
C1713 C55 1.104 . S
C1719 C1277 1.095 . S
C1739 C1357 1.329 . S
C1733 C69 1.264 . S
C1759 C1203 1.286 . S
C1753 C78 1.228 . S
C1773 C83 1.662 . S
C1779 C1135 1.666 . S
C1799 C987 1.561 . S
C1793 C50 1.459 . S
C1813 C64 1.330 . S
C1819 C1055 1.359 . S
C1833 C97 1.342 . S
C1839 C1425 1.352 . S
C1853 C111 1.394 . S
C1859 C1505 1.451 . S
C1879 C1573 1.425 . S
C1873 C120 1.481 . S
C1893 C125 1.810 . S
C1899 C321 1.813 . S
C1913 C92 1.780 . S
C1919 C395 1.756 . S
C1933 C106 1.516 . S
C1939 C463 1.481 . S
C1953 C139 1.109 . S
C1959 C389 1.148 . S
C1973 C153 1.332 . S
C1979 C469 1.365 . S
C1999 C315 1.359 . S
C1993 C162 1.337 . S
C2019 C1579 1.804 . S
C2013 C167 1.769 . S
C2039 C1431 1.630 . S
C2033 C134 1.576 . S
C2059 C1499 1.400 . S
C2053 C148 1.371 . S
C2073 C181 1.272 . S
C2079 C537 1.276 . S
C2093 C195 1.430 . S
C2099 C617 1.451 . S
C2113 C204 1.517 . S
C2119 C685 1.462 . S
C2133 C209 1.880 . S
C2139 C765 1.900 . S
C2159 C839 1.741 . S
C2153 C176 1.773 . S
C2179 C907 1.522 . S
C2173 C190 1.555 . S
C2199 C833 1.237 . S
C2193 C223 1.185 . S
C2219 C913 1.357 . S
C2213 C237 1.283 . S
C2233 C246 1.282 . S
C2239 C759 1.295 . S
C2259 C691 1.721 . S
C2253 C251 1.674 . S
C2273 C218 1.607 . S
C2279 C543 1.663 . S
C2299 C611 1.392 . S
C2293 C232 1.372 . S
C2319 C291 1.907 . S
C2313 C11 1.900 . S
C2333 C25 1.305 . S
C2339 C365 1.308 . S
C2359 C451 1.424 . S
C2353 C35 1.439 . S
C2379 C525 1.214 . S
C2373 C39 1.210 . S
C2399 C587 1.622 . S
C2393 C7 1.639 1_556 S
C2419 C673 1.497 . S
C2413 C21 1.510 . S
C2433 C53 2.063 . S
C2439 C661 2.026 . S
C2453 C67 1.496 . S
C2459 C513 1.453 . S
C2473 C77 1.654 . S
C2479 C599 1.607 . S
C2493 C81 1.478 . S
C2499 C377 1.465 . S
C2519 C439 1.728 . S
C2513 C49 1.825 . S
C2533 C63 1.744 . S
C2539 C303 1.678 . S
C2559 C735 1.836 . S
C2553 C95 1.843 . S
C2573 C109 1.453 . S
C2579 C809 1.418 . S
C2593 C119 1.494 . S
C2599 C895 1.480 . S
C2619 C969 0.971 . S
C2613 C123 0.965 . S
C2633 C91 1.535 . S
C2639 C1031 1.515 . S
C2653 C105 1.307 . S
C2659 C1117 1.305 . S
C2673 C137 1.764 . S
C2679 C1105 1.686 1_565 S
C2693 C151 1.201 . S
C2699 C957 1.188 . S
C2719 C1043 1.523 . S
C2713 C161 1.566 . S
C2733 C165 1.459 . S
C2739 C821 1.433 . S
C2753 C133 1.842 1_545 S
C2759 C883 1.746 . S
C2779 C747 1.766 . S
C2773 C147 1.827 1_655 S
C2799 C1179 1.707 . S
C2793 C179 1.728 . S
C2813 C193 1.079 . S
C2819 C1253 1.067 . S
C2833 C203 1.362 . S
C2839 C1339 1.352 . S
C2859 C1413 1.189 . S
C2853 C207 1.198 . S
C2879 C1475 1.650 . S
C2873 C175 1.663 1_565 S
C2893 C189 1.589 1_455 S
C2899 C1561 1.567 . S
C2913 C221 2.022 . S
C2919 C1549 1.975 . S
C2933 C235 1.602 1_565 S
C2939 C1401 1.550 . S
C2959 C1487 1.656 . S
C2953 C245 1.708 1_455 S
C2979 C1265 1.072 . S
C2973 C249 1.069 . S
C2999 C1327 1.656 . S
C2993 C217 1.722 . S
C3013 C231 1.431 . S
C3019 C1191 1.433 1_545 S
