# Generated by pormake.
# Topology ssb, (4,4)-cn, num edge types: 1
# Building blocks:
#     Node 0, Type 0, BuildingBlock: NAHDIM_clean_linker_0, # of connection points: 4
#     Node 1, Type 0, BuildingBlock: NAHDIM_clean_linker_0, # of connection points: 4
#     Node 2, Type 0, BuildingBlock: NAHDIM_clean_linker_0, # of connection points: 4
#     Node 3, Type 0, BuildingBlock: NAHDIM_clean_linker_0, # of connection points: 4
#     Node 4, Type 0, BuildingBlock: NAHDIM_clean_linker_0, # of connection points: 4
#     Node 5, Type 0, BuildingBlock: NAHDIM_clean_linker_0, # of connection points: 4
#     Node 6, Type 0, BuildingBlock: NAHDIM_clean_linker_0, # of connection points: 4
#     Node 7, Type 0, BuildingBlock: NAHDIM_clean_linker_0, # of connection points: 4
#     Node 8, Type 1, BuildingBlock: NAWXER_clean_sbu_0, # of connection points: 4
#     Node 9, Type 1, BuildingBlock: NAWXER_clean_sbu_0, # of connection points: 4
#     Node 10, Type 1, BuildingBlock: NAWXER_clean_sbu_0, # of connection points: 4
#     Node 11, Type 1, BuildingBlock: NAWXER_clean_sbu_0, # of connection points: 4
#     Node 12, Type 1, BuildingBlock: NAWXER_clean_sbu_0, # of connection points: 4
#     Node 13, Type 1, BuildingBlock: NAWXER_clean_sbu_0, # of connection points: 4
#     Node 14, Type 1, BuildingBlock: NAWXER_clean_sbu_0, # of connection points: 4
#     Node 15, Type 1, BuildingBlock: NAWXER_clean_sbu_0, # of connection points: 4
#     Edge 16, Type (0, 1), BuildingBlock: ZUJKAS_clean_linker_0, # of connection points: 2
#     Edge 17, Type (0, 1), BuildingBlock: ZUJKAS_clean_linker_0, # of connection points: 2
#     Edge 18, Type (0, 1), BuildingBlock: ZUJKAS_clean_linker_0, # of connection points: 2
#     Edge 19, Type (0, 1), BuildingBlock: ZUJKAS_clean_linker_0, # of connection points: 2
#     Edge 20, Type (0, 1), BuildingBlock: ZUJKAS_clean_linker_0, # of connection points: 2
#     Edge 21, Type (0, 1), BuildingBlock: ZUJKAS_clean_linker_0, # of connection points: 2
#     Edge 22, Type (0, 1), BuildingBlock: ZUJKAS_clean_linker_0, # of connection points: 2
#     Edge 23, Type (0, 1), BuildingBlock: ZUJKAS_clean_linker_0, # of connection points: 2
#     Edge 24, Type (0, 1), BuildingBlock: ZUJKAS_clean_linker_0, # of connection points: 2
#     Edge 25, Type (0, 1), BuildingBlock: ZUJKAS_clean_linker_0, # of connection points: 2
#     Edge 26, Type (0, 1), BuildingBlock: ZUJKAS_clean_linker_0, # of connection points: 2
#     Edge 27, Type (0, 1), BuildingBlock: ZUJKAS_clean_linker_0, # of connection points: 2
#     Edge 28, Type (0, 1), BuildingBlock: ZUJKAS_clean_linker_0, # of connection points: 2
#     Edge 29, Type (0, 1), BuildingBlock: ZUJKAS_clean_linker_0, # of connection points: 2
#     Edge 30, Type (0, 1), BuildingBlock: ZUJKAS_clean_linker_0, # of connection points: 2
#     Edge 31, Type (0, 1), BuildingBlock: ZUJKAS_clean_linker_0, # of connection points: 2
#     Edge 32, Type (0, 1), BuildingBlock: ZUJKAS_clean_linker_0, # of connection points: 2
#     Edge 33, Type (0, 1), BuildingBlock: ZUJKAS_clean_linker_0, # of connection points: 2
#     Edge 34, Type (0, 1), BuildingBlock: ZUJKAS_clean_linker_0, # of connection points: 2
#     Edge 35, Type (0, 1), BuildingBlock: ZUJKAS_clean_linker_0, # of connection points: 2
#     Edge 36, Type (0, 1), BuildingBlock: ZUJKAS_clean_linker_0, # of connection points: 2
#     Edge 37, Type (0, 1), BuildingBlock: ZUJKAS_clean_linker_0, # of connection points: 2
#     Edge 38, Type (0, 1), BuildingBlock: ZUJKAS_clean_linker_0, # of connection points: 2
#     Edge 39, Type (0, 1), BuildingBlock: ZUJKAS_clean_linker_0, # of connection points: 2
#     Edge 40, Type (0, 1), BuildingBlock: ZUJKAS_clean_linker_0, # of connection points: 2
#     Edge 41, Type (0, 1), BuildingBlock: ZUJKAS_clean_linker_0, # of connection points: 2
#     Edge 42, Type (0, 1), BuildingBlock: ZUJKAS_clean_linker_0, # of connection points: 2
#     Edge 43, Type (0, 1), BuildingBlock: ZUJKAS_clean_linker_0, # of connection points: 2
#     Edge 44, Type (0, 1), BuildingBlock: ZUJKAS_clean_linker_0, # of connection points: 2
#     Edge 45, Type (0, 1), BuildingBlock: ZUJKAS_clean_linker_0, # of connection points: 2
#     Edge 46, Type (0, 1), BuildingBlock: ZUJKAS_clean_linker_0, # of connection points: 2
#     Edge 47, Type (0, 1), BuildingBlock: ZUJKAS_clean_linker_0, # of connection points: 2
# Relax obj value: 0.005
# Max RMSD: 0.044
# Mean RMSD: 0.033
data_MOF--net-ssb--node1-NAWXER_clean_sbu_0--node2-NAHDIM_clean_linker_0--edge1-ZUJKAS_clean_linker_0
_symmetry_space_group_name_H-M    P1
_symmetry_Int_Tables_number       1
_symmetry_cell_setting            triclinic
loop_
_symmetry_equiv_pos_as_xyz
'x, y, z'
_cell_length_a     75.744554
_cell_length_b     75.746418
_cell_length_c     65.035761
_cell_angle_alpha  90.044059
_cell_angle_beta   89.969253
_cell_angle_gamma 90.002582
loop_
_atom_site_label
_atom_site_type_symbol
_atom_site_fract_x
_atom_site_fract_y
_atom_site_fract_z
_atom_type_partial_charge
C0 C 0.27221 0.155 0.3335 0.0
C1 C 0.29225 0.15804 0.33357 0.0
C2 C 0.29571 0.18969 0.32593 0.0
C3 C 0.30119 0.20595 0.33388 0.0
C4 C 0.30142 0.22119 0.32161 0.0
C5 C 0.29582 0.22013 0.30091 0.0
C6 C 0.28998 0.20381 0.29282 0.0
C7 C 0.29009 0.18875 0.30534 0.0
C8 C 0.30777 0.23839 0.33066 0.0
C9 C 0.28377 0.20226 0.27084 0.0
C10 C 0.40207 0.23453 0.22721 0.0
C11 C 0.387 0.23788 0.21206 0.0
C12 C 0.36203 0.25318 0.22742 0.0
C13 C 0.34796 0.24273 0.22047 0.0
C14 C 0.33181 0.24253 0.23105 0.0
C15 C 0.32977 0.25299 0.24895 0.0
C16 C 0.34373 0.26405 0.2555 0.0
C17 C 0.35965 0.26416 0.24445 0.0
C18 C 0.31703 0.23096 0.2233 0.0
C19 C 0.34194 0.27546 0.27441 0.0
C20 C 0.25484 0.33359 0.19815 0.0
C21 C 0.25073 0.31564 0.19526 0.0
C22 C 0.25038 0.30393 0.21193 0.0
C23 C 0.25449 0.31018 0.23186 0.0
C24 C 0.25835 0.32825 0.23492 0.0
C25 C 0.25838 0.33974 0.21799 0.0
C26 C 0.24581 0.28478 0.20818 0.0
C27 C 0.26274 0.33533 0.25599 0.0
C28 C 0.1692 0.25472 0.34497 0.0
C29 C 0.17436 0.2742 0.34347 0.0
C30 C 0.19144 0.2798 0.31236 0.0
C31 C 0.19227 0.27242 0.29272 0.0
C32 C 0.2079 0.27309 0.28115 0.0
C33 C 0.22286 0.28181 0.28932 0.0
C34 C 0.22191 0.28979 0.30898 0.0
C35 C 0.20618 0.28866 0.32034 0.0
C36 C 0.2084 0.26449 0.26022 0.0
C37 C 0.23743 0.29968 0.31785 0.0
C38 C 0.29672 0.23585 0.28736 0.0
C39 C 0.31197 0.23814 0.27558 0.0
C40 C 0.3133 0.25179 0.26124 0.0
C41 C 0.29903 0.26357 0.25849 0.0
C42 C 0.29974 0.27714 0.2438 0.0
C43 C 0.28546 0.28841 0.24088 0.0
C44 C 0.26996 0.28658 0.25262 0.0
C45 C 0.25519 0.29761 0.24931 0.0
C46 C 0.24023 0.29591 0.26172 0.0
C47 C 0.23934 0.283 0.27703 0.0
C48 C 0.25368 0.2713 0.27998 0.0
C49 C 0.2529 0.25758 0.29451 0.0
C50 C 0.26698 0.24595 0.297 0.0
C51 C 0.28244 0.24772 0.2852 0.0
C52 C 0.28358 0.26157 0.27061 0.0
C53 C 0.26911 0.27323 0.26784 0.0
C54 C 0.27186 0.33381 0.15366 0.0
C55 C 0.25452 0.34181 0.16151 0.0
O56 O 0.29604 0.17542 0.33864 0.0
O57 O 0.17603 0.2787 0.3229 0.0
O58 O 0.2557 0.34536 0.18239 0.0
O59 O 0.37798 0.253 0.21795 0.0
H60 H 0.29763 0.15496 0.31805 0.0
H61 H 0.26569 0.16343 0.32183 0.0
H62 H 0.26642 0.15822 0.34876 0.0
H63 H 0.26923 0.141 0.32975 0.0
H64 H 0.30546 0.20661 0.34977 0.0
H65 H 0.28576 0.17636 0.29882 0.0
H66 H 0.31931 0.24328 0.32179 0.0
H67 H 0.31163 0.23705 0.34707 0.0
H68 H 0.2972 0.24849 0.32944 0.0
H69 H 0.27852 0.18891 0.26725 0.0
H70 H 0.29493 0.20508 0.26029 0.0
H71 H 0.27329 0.21216 0.26775 0.0
H72 H 0.37823 0.22609 0.21264 0.0
H73 H 0.40947 0.22243 0.22281 0.0
H74 H 0.39662 0.2326 0.24291 0.0
H75 H 0.41132 0.24592 0.22754 0.0
H76 H 0.34957 0.23478 0.20675 0.0
H77 H 0.37053 0.2724 0.24945 0.0
H78 H 0.30461 0.23869 0.22213 0.0
H79 H 0.31471 0.2201 0.23442 0.0
H80 H 0.32004 0.22509 0.20804 0.0
H81 H 0.35411 0.28317 0.27762 0.0
H82 H 0.33893 0.26706 0.28796 0.0
H83 H 0.33075 0.28477 0.27243 0.0
H84 H 0.24351 0.33243 0.1586 0.0
H85 H 0.24788 0.31055 0.18009 0.0
H86 H 0.26145 0.35359 0.22012 0.0
H87 H 0.25769 0.27649 0.21079 0.0
H88 H 0.24103 0.28241 0.19227 0.0
H89 H 0.23549 0.28038 0.21917 0.0
H90 H 0.26603 0.34962 0.2557 0.0
H91 H 0.27411 0.32794 0.26248 0.0
H92 H 0.25133 0.33329 0.26644 0.0
H93 H 0.1871 0.27589 0.35176 0.0
H94 H 0.16807 0.25062 0.36132 0.0
H95 H 0.17947 0.24643 0.33752 0.0
H96 H 0.15638 0.25232 0.33713 0.0
H97 H 0.18069 0.26586 0.28661 0.0
H98 H 0.2053 0.29503 0.33521 0.0
H99 H 0.22003 0.25563 0.25901 0.0
H100 H 0.20978 0.27482 0.24823 0.0
H101 H 0.19627 0.25673 0.25698 0.0
H102 H 0.23422 0.30607 0.33277 0.0
H103 H 0.24192 0.30997 0.30687 0.0
H104 H 0.2486 0.29042 0.32025 0.0
H105 H 0.32286 0.22893 0.27731 0.0
H106 H 0.31129 0.27912 0.23426 0.0
H107 H 0.28673 0.29858 0.22928 0.0
H108 H 0.22898 0.30448 0.25911 0.0
H109 H 0.24132 0.25557 0.30399 0.0
H110 H 0.2656 0.23556 0.30831 0.0
H111 H 0.271 0.33119 0.13688 0.0
H112 H 0.27462 0.3211 0.16151 0.0
H113 H 0.28307 0.34293 0.15662 0.0
C114 C 0.68879 0.16662 0.1623 0.0
C115 C 0.67937 0.18434 0.165 0.0
C116 C 0.70075 0.20628 0.17492 0.0
C117 C 0.69266 0.21677 0.18991 0.0
C118 C 0.70267 0.22451 0.20568 0.0
C119 C 0.72109 0.22136 0.20658 0.0
C120 C 0.72931 0.21106 0.19108 0.0
C121 C 0.71901 0.20393 0.17517 0.0
C122 C 0.69348 0.2356 0.22172 0.0
C123 C 0.74881 0.20697 0.19174 0.0
C124 C 0.74571 0.1475 0.3479 0.0
C125 C 0.75095 0.15992 0.33129 0.0
C126 C 0.73888 0.18386 0.3105 0.0
C127 C 0.75241 0.18326 0.29568 0.0
C128 C 0.7526 0.19508 0.27912 0.0
C129 C 0.73918 0.20799 0.27748 0.0
C130 C 0.72552 0.20864 0.2923 0.0
C131 C 0.72552 0.19648 0.30859 0.0
C132 C 0.76722 0.19377 0.26338 0.0
C133 C 0.71105 0.22226 0.29097 0.0
C134 C 0.82014 0.28456 0.31297 0.0
C135 C 0.82479 0.27144 0.29875 0.0
C136 C 0.81522 0.26933 0.28046 0.0
C137 C 0.80064 0.28051 0.27644 0.0
C138 C 0.79654 0.29435 0.29027 0.0
C139 C 0.80652 0.29632 0.30832 0.0
C140 C 0.82037 0.25483 0.2657 0.0
C141 C 0.78123 0.30662 0.28633 0.0
C142 C 0.78607 0.31389 0.11464 0.0
C143 C 0.78915 0.32438 0.13442 0.0
C144 C 0.7956 0.30758 0.16572 0.0
C145 C 0.80346 0.29165 0.17134 0.0
C146 C 0.79912 0.28332 0.18991 0.0
C147 C 0.78674 0.29132 0.2033 0.0
C148 C 0.7792 0.3078 0.19807 0.0
C149 C 0.78378 0.31584 0.17935 0.0
C150 C 0.80765 0.26589 0.19516 0.0
C151 C 0.76629 0.31684 0.21226 0.0
C152 C 0.73134 0.22716 0.22485 0.0
C153 C 0.72983 0.21692 0.24265 0.0
C154 C 0.73964 0.2208 0.26024 0.0
C155 C 0.75107 0.23553 0.26037 0.0
C156 C 0.76075 0.24006 0.27803 0.0
C157 C 0.77282 0.25387 0.27766 0.0
C158 C 0.77582 0.26356 0.25955 0.0
C159 C 0.78893 0.27683 0.25865 0.0
C160 C 0.79177 0.28603 0.24033 0.0
C161 C 0.78179 0.28236 0.22275 0.0
C162 C 0.7684 0.26933 0.22344 0.0
C163 C 0.75789 0.26549 0.20616 0.0
C164 C 0.74536 0.25203 0.20673 0.0
C165 C 0.74312 0.24167 0.22447 0.0
C166 C 0.75312 0.24575 0.24228 0.0
C167 C 0.76565 0.25969 0.24182 0.0
C168 C 0.81615 0.27203 0.36059 0.0
C169 C 0.83124 0.27233 0.34493 0.0
O170 O 0.69098 0.19795 0.16045 0.0
O171 O 0.80006 0.31471 0.14729 0.0
O172 O 0.8286 0.28613 0.33125 0.0
O173 O 0.73826 0.17251 0.32669 0.0
H174 H 0.67494 0.18533 0.18132 0.0
H175 H 0.70026 0.16587 0.17289 0.0
H176 H 0.69362 0.16509 0.14626 0.0
H177 H 0.67969 0.15555 0.16597 0.0
H178 H 0.67849 0.21868 0.18936 0.0
H179 H 0.72506 0.19582 0.16337 0.0
H180 H 0.69281 0.22812 0.23637 0.0
H181 H 0.67983 0.23915 0.21705 0.0
H182 H 0.70105 0.2479 0.22467 0.0
H183 H 0.75276 0.1973 0.17974 0.0
H184 H 0.75248 0.2016 0.20704 0.0
H185 H 0.75648 0.21928 0.18935 0.0
H186 H 0.76445 0.16567 0.33288 0.0
H187 H 0.74423 0.12302 0.33285 0.0
H188 H 0.73409 0.15365 0.35604 0.0
H189 H 0.75531 0.15018 0.36073 0.0
H190 H 0.76284 0.17357 0.29686 0.0
H191 H 0.71512 0.19684 0.32004 0.0
H192 H 0.7616 0.19338 0.24762 0.0
H193 H 0.77556 0.18186 0.26565 0.0
H194 H 0.7758 0.20562 0.26444 0.0
H195 H 0.70187 0.2216 0.30427 0.0
H196 H 0.70338 0.22022 0.27662 0.0
H197 H 0.7169 0.23569 0.29025 0.0
H198 H 0.83115 0.25941 0.33675 0.0
H199 H 0.83585 0.26282 0.30199 0.0
H200 H 0.80328 0.30661 0.31927 0.0
H201 H 0.81011 0.24436 0.26587 0.0
H202 H 0.83325 0.24875 0.26976 0.0
H203 H 0.82115 0.26008 0.24979 0.0
H204 H 0.77984 0.31681 0.29852 0.0
H205 H 0.76879 0.29889 0.28547 0.0
H206 H 0.78303 0.31331 0.2713 0.0
H207 H 0.77593 0.32646 0.14146 0.0
H208 H 0.77737 0.32139 0.10402 0.0
H209 H 0.77954 0.30115 0.11833 0.0
H210 H 0.79879 0.31105 0.10676 0.0
H211 H 0.81281 0.28557 0.16089 0.0
H212 H 0.77829 0.32862 0.17557 0.0
H213 H 0.79735 0.25555 0.19672 0.0
H214 H 0.81455 0.26694 0.21017 0.0
H215 H 0.81731 0.2616 0.1833 0.0
H216 H 0.76144 0.32956 0.2059 0.0
H217 H 0.77268 0.31939 0.22734 0.0
H218 H 0.75481 0.30805 0.21508 0.0
H219 H 0.7213 0.2054 0.2426 0.0
H220 H 0.75921 0.23287 0.2923 0.0
H221 H 0.77998 0.25664 0.2917 0.0
H222 H 0.8022 0.29584 0.23959 0.0
H223 H 0.75933 0.27279 0.19195 0.0
H224 H 0.7377 0.24959 0.19297 0.0
H225 H 0.81803 0.26104 0.37168 0.0
H226 H 0.80339 0.26999 0.35253 0.0
H227 H 0.81551 0.28471 0.36916 0.0
C228 C 0.6775 0.85345 0.3203 0.0
C229 C 0.68547 0.84657 0.34041 0.0
C230 C 0.70687 0.82571 0.32654 0.0
C231 C 0.69821 0.80962 0.33006 0.0
C232 C 0.70214 0.79469 0.31812 0.0
C233 C 0.71483 0.79597 0.30221 0.0
C234 C 0.72407 0.81201 0.29919 0.0
C235 C 0.72017 0.82661 0.31171 0.0
C236 C 0.6924 0.77766 0.32217 0.0
C237 C 0.73753 0.81398 0.28222 0.0
C238 C 0.62596 0.78642 0.21619 0.0
C239 C 0.63865 0.78261 0.19838 0.0
C240 C 0.66238 0.76621 0.2143 0.0
C241 C 0.67701 0.77716 0.2109 0.0
C242 C 0.69148 0.77687 0.22434 0.0
C243 C 0.69121 0.76541 0.2415 0.0
C244 C 0.67676 0.75384 0.24447 0.0
C245 C 0.66259 0.75423 0.23059 0.0
C246 C 0.7069 0.78903 0.22044 0.0
C247 C 0.67606 0.74147 0.26263 0.0
C248 C 0.76862 0.68358 0.20685 0.0
C249 C 0.7749 0.70095 0.20455 0.0
C250 C 0.77443 0.71289 0.22103 0.0
C251 C 0.76737 0.70745 0.24014 0.0
C252 C 0.76175 0.68979 0.24278 0.0
C253 C 0.76259 0.67804 0.2261 0.0
C254 C 0.78097 0.73152 0.21785 0.0
C255 C 0.75433 0.68351 0.26302 0.0
C256 C 0.82371 0.75583 0.38365 0.0
C257 C 0.82504 0.73869 0.37126 0.0
C258 C 0.81469 0.73977 0.33536 0.0
C259 C 0.81534 0.75059 0.318 0.0
C260 C 0.80303 0.74875 0.30204 0.0
C261 C 0.78967 0.73578 0.30362 0.0
C262 C 0.78941 0.72422 0.32069 0.0
C263 C 0.80208 0.72616 0.33627 0.0
C264 C 0.8041 0.7609 0.2837 0.0
C265 C 0.77561 0.70994 0.32256 0.0
C266 C 0.71701 0.7812 0.2874 0.0
C267 C 0.70423 0.77947 0.27206 0.0
C268 C 0.70549 0.76636 0.25705 0.0
C269 C 0.72005 0.75473 0.257 0.0
C270 C 0.72195 0.7417 0.24177 0.0
C271 C 0.73643 0.73042 0.24174 0.0
C272 C 0.7496 0.73177 0.25691 0.0
C273 C 0.76457 0.7206 0.25674 0.0
C274 C 0.77735 0.72219 0.27212 0.0
C275 C 0.77561 0.73471 0.2878 0.0
C276 C 0.76079 0.74609 0.28817 0.0
C277 C 0.75861 0.75885 0.30372 0.0
C278 C 0.74423 0.77031 0.3036 0.0
C279 C 0.73144 0.76937 0.288 0.0
C280 C 0.73308 0.75624 0.27255 0.0
C281 C 0.74782 0.74467 0.27257 0.0
C282 C 0.75268 0.68572 0.16281 0.0
C283 C 0.7691 0.67566 0.17015 0.0
O284 O 0.70256 0.84062 0.33699 0.0
O285 O 0.82663 0.74278 0.35055 0.0
O286 O 0.76782 0.67189 0.19097 0.0
O287 O 0.64783 0.76714 0.20224 0.0
H288 H 0.67709 0.83561 0.3462 0.0
H289 H 0.67671 0.84261 0.30882 0.0
H290 H 0.68577 0.86423 0.31383 0.0
H291 H 0.66392 0.85851 0.32297 0.0
H292 H 0.68841 0.80865 0.34211 0.0
H293 H 0.72692 0.83906 0.30933 0.0
H294 H 0.68273 0.77533 0.30963 0.0
H295 H 0.68515 0.77796 0.33702 0.0
H296 H 0.70175 0.76637 0.32228 0.0
H297 H 0.74279 0.82764 0.28117 0.0
H298 H 0.73152 0.81038 0.26721 0.0
H299 H 0.74872 0.80483 0.28495 0.0
H300 H 0.64793 0.79395 0.19714 0.0
H301 H 0.61841 0.79873 0.2132 0.0
H302 H 0.63353 0.78821 0.23067 0.0
H303 H 0.61656 0.7753 0.21829 0.0
H304 H 0.67709 0.78596 0.19778 0.0
H305 H 0.65128 0.74568 0.23287 0.0
H306 H 0.71945 0.78146 0.22089 0.0
H307 H 0.70751 0.79916 0.23277 0.0
H308 H 0.70588 0.79585 0.20537 0.0
H309 H 0.66375 0.73352 0.26293 0.0
H310 H 0.67698 0.74916 0.27714 0.0
H311 H 0.68754 0.73236 0.26215 0.0
H312 H 0.78107 0.6838 0.16729 0.0
H313 H 0.77996 0.70544 0.18992 0.0
H314 H 0.75797 0.66458 0.22783 0.0
H315 H 0.76959 0.74074 0.21803 0.0
H316 H 0.78806 0.73309 0.203 0.0
H317 H 0.78996 0.73539 0.23056 0.0
H318 H 0.75051 0.66936 0.2626 0.0
H319 H 0.74254 0.6915 0.26713 0.0
H320 H 0.76427 0.68545 0.27536 0.0
H321 H 0.81276 0.73124 0.37458 0.0
H322 H 0.82286 0.75288 0.40035 0.0
H323 H 0.81162 0.76314 0.37907 0.0
H324 H 0.83532 0.76446 0.38081 0.0
H325 H 0.82539 0.76076 0.31718 0.0
H326 H 0.80206 0.71691 0.34891 0.0
H327 H 0.79263 0.77003 0.28383 0.0
H328 H 0.80347 0.75313 0.26923 0.0
H329 H 0.8164 0.76888 0.28368 0.0
H330 H 0.77663 0.70259 0.33729 0.0
H331 H 0.77707 0.70044 0.30967 0.0
H332 H 0.76221 0.71581 0.32145 0.0
H333 H 0.69314 0.78854 0.27175 0.0
H334 H 0.71229 0.74013 0.22964 0.0
H335 H 0.73716 0.72065 0.22962 0.0
H336 H 0.78885 0.71364 0.27181 0.0
H337 H 0.76805 0.76021 0.3161 0.0
H338 H 0.74328 0.77994 0.31585 0.0
H339 H 0.74053 0.67797 0.16601 0.0
H340 H 0.75354 0.68831 0.14603 0.0
H341 H 0.75159 0.69863 0.17077 0.0
C342 C 0.3261 0.85226 0.15943 0.0
C343 C 0.33599 0.83483 0.16251 0.0
C344 C 0.31504 0.81287 0.17327 0.0
C345 C 0.32241 0.79959 0.18542 0.0
C346 C 0.31269 0.79197 0.20152 0.0
C347 C 0.29533 0.79802 0.20558 0.0
C348 C 0.28775 0.81121 0.19292 0.0
C349 C 0.29767 0.81831 0.17667 0.0
C350 C 0.32112 0.77781 0.21452 0.0
C351 C 0.26943 0.81824 0.19697 0.0
C352 C 0.33682 0.8415 0.33342 0.0
C353 C 0.31731 0.84578 0.33001 0.0
C354 C 0.30049 0.82181 0.31515 0.0
C355 C 0.28914 0.8305 0.30152 0.0
C356 C 0.28239 0.82174 0.2842 0.0
C357 C 0.28739 0.80402 0.28035 0.0
C358 C 0.29863 0.79516 0.29435 0.0
C359 C 0.30475 0.80411 0.31185 0.0
C360 C 0.27015 0.83151 0.26988 0.0
C361 C 0.30455 0.7764 0.29057 0.0
C362 C 0.19923 0.73316 0.31519 0.0
C363 C 0.19335 0.74723 0.30296 0.0
C364 C 0.20151 0.75096 0.28408 0.0
C365 C 0.2158 0.74038 0.27737 0.0
C366 C 0.22112 0.72564 0.28919 0.0
C367 C 0.2126 0.72212 0.30791 0.0
C368 C 0.19515 0.76643 0.2715 0.0
C369 C 0.23614 0.71395 0.28234 0.0
C370 C 0.21858 0.71495 0.11201 0.0
C371 C 0.21874 0.70401 0.13176 0.0
C372 C 0.21326 0.71856 0.16473 0.0
C373 C 0.20512 0.73381 0.17217 0.0
C374 C 0.21045 0.74151 0.19079 0.0
C375 C 0.22406 0.7335 0.20239 0.0
C376 C 0.23186 0.71762 0.19537 0.0
C377 C 0.22635 0.71027 0.1766 0.0
C378 C 0.2017 0.75832 0.19795 0.0
C379 C 0.24605 0.7085 0.20767 0.0
C380 C 0.28579 0.79183 0.22419 0.0
C381 C 0.29042 0.79951 0.24296 0.0
C382 C 0.28162 0.79513 0.26112 0.0
C383 C 0.26768 0.78272 0.26065 0.0
C384 C 0.25826 0.77831 0.27855 0.0
C385 C 0.24467 0.76598 0.27797 0.0
C386 C 0.23979 0.75776 0.25942 0.0
C387 C 0.22585 0.74535 0.25866 0.0
C388 C 0.2212 0.73755 0.23996 0.0
C389 C 0.23015 0.74181 0.22181 0.0
C390 C 0.24423 0.75409 0.22226 0.0
C391 C 0.2536 0.7586 0.20432 0.0
C392 C 0.26732 0.77083 0.20492 0.0
C393 C 0.27212 0.77911 0.22345 0.0
C394 C 0.26298 0.77462 0.24176 0.0
C395 C 0.24902 0.76212 0.24115 0.0
C396 C 0.20204 0.74142 0.3659 0.0
C397 C 0.18826 0.7424 0.34876 0.0
O398 O 0.32482 0.82075 0.15848 0.0
O399 O 0.20801 0.71212 0.14623 0.0
O400 O 0.19217 0.7298 0.33395 0.0
O401 O 0.30758 0.83033 0.33149 0.0
H402 H 0.34056 0.83425 0.17881 0.0
H403 H 0.31503 0.85326 0.17056 0.0
H404 H 0.32068 0.85309 0.14358 0.0
H405 H 0.33509 0.86363 0.16209 0.0
H406 H 0.33586 0.79543 0.18246 0.0
H407 H 0.29211 0.8285 0.16696 0.0
H408 H 0.32412 0.78325 0.22999 0.0
H409 H 0.33359 0.77282 0.20764 0.0
H410 H 0.31187 0.76657 0.2166 0.0
H411 H 0.26592 0.82927 0.18649 0.0
H412 H 0.26841 0.82295 0.2131 0.0
H413 H 0.25962 0.8075 0.19494 0.0
H414 H 0.31608 0.85159 0.31432 0.0
H415 H 0.34497 0.85364 0.33199 0.0
H416 H 0.34136 0.83187 0.32167 0.0
H417 H 0.33888 0.83568 0.34892 0.0
H418 H 0.28559 0.84413 0.30448 0.0
H419 H 0.31345 0.79754 0.32264 0.0
H420 H 0.27712 0.83429 0.25522 0.0
H421 H 0.26559 0.84424 0.27652 0.0
H422 H 0.25844 0.82325 0.26623 0.0
H423 H 0.31472 0.77206 0.30179 0.0
H424 H 0.31003 0.77509 0.2748 0.0
H425 H 0.29306 0.76738 0.29176 0.0
H426 H 0.18897 0.75597 0.34226 0.0
H427 H 0.18241 0.7553 0.30813 0.0
H428 H 0.21676 0.71107 0.31731 0.0
H429 H 0.20565 0.77665 0.27086 0.0
H430 H 0.18301 0.77249 0.27799 0.0
H431 H 0.19244 0.76215 0.25547 0.0
H432 H 0.23855 0.70288 0.29318 0.0
H433 H 0.24841 0.72191 0.28102 0.0
H434 H 0.23323 0.70843 0.2669 0.0
H435 H 0.23272 0.70366 0.13702 0.0
H436 H 0.22709 0.70869 0.10013 0.0
H437 H 0.22378 0.72839 0.1152 0.0
H438 H 0.20494 0.71622 0.10588 0.0
H439 H 0.19483 0.73992 0.16305 0.0
H440 H 0.23215 0.69801 0.17134 0.0
H441 H 0.21178 0.76883 0.19987 0.0
H442 H 0.19544 0.75613 0.21318 0.0
H443 H 0.19146 0.76302 0.18702 0.0
H444 H 0.25048 0.69598 0.2004 0.0
H445 H 0.24108 0.70557 0.22337 0.0
H446 H 0.25761 0.7174 0.20933 0.0
H447 H 0.30097 0.80921 0.24341 0.0
H448 H 0.26132 0.78432 0.29323 0.0
H449 H 0.23799 0.76305 0.29228 0.0
H450 H 0.2104 0.72815 0.23949 0.0
H451 H 0.25042 0.75272 0.1896 0.0
H452 H 0.27411 0.77377 0.19067 0.0
H453 H 0.19916 0.75142 0.37797 0.0
H454 H 0.21535 0.74417 0.35949 0.0
H455 H 0.20218 0.72809 0.37302 0.0
C456 C 0.17252 0.67201 0.67529 0.0
C457 C 0.16836 0.6911 0.66927 0.0
C458 C 0.19515 0.70772 0.67502 0.0
C459 C 0.18953 0.72096 0.68858 0.0
C460 C 0.20118 0.72814 0.70311 0.0
C461 C 0.21876 0.72188 0.70405 0.0
C462 C 0.22475 0.70935 0.68946 0.0
C463 C 0.21285 0.70257 0.6749 0.0
C464 C 0.19449 0.74179 0.71811 0.0
C465 C 0.24341 0.70241 0.68998 0.0
C466 C 0.24331 0.64334 0.84174 0.0
C467 C 0.24593 0.65343 0.82239 0.0
C468 C 0.23579 0.68005 0.80497 0.0
C469 C 0.24912 0.67963 0.7899 0.0
C470 C 0.24987 0.69246 0.77443 0.0
C471 C 0.23712 0.70609 0.77402 0.0
C472 C 0.22374 0.70667 0.78918 0.0
C473 C 0.22326 0.6936 0.8045 0.0
C474 C 0.26429 0.69136 0.75841 0.0
C475 C 0.21001 0.72108 0.78915 0.0
C476 C 0.31226 0.78616 0.81573 0.0
C477 C 0.31907 0.77296 0.80285 0.0
C478 C 0.31167 0.76989 0.78339 0.0
C479 C 0.2971 0.78017 0.77687 0.0
C480 C 0.29093 0.79417 0.78938 0.0
C481 C 0.29877 0.79711 0.80861 0.0
C482 C 0.319 0.75528 0.77012 0.0
C483 C 0.27559 0.80553 0.78277 0.0
C484 C 0.29431 0.80761 0.6111 0.0
C485 C 0.29461 0.81767 0.6315 0.0
C486 C 0.29956 0.80238 0.66415 0.0
C487 C 0.3072 0.78688 0.67155 0.0
C488 C 0.30181 0.7795 0.69029 0.0
C489 C 0.2886 0.78805 0.70203 0.0
C490 C 0.28133 0.80417 0.69508 0.0
C491 C 0.28693 0.81123 0.67619 0.0
C492 C 0.31007 0.76243 0.69741 0.0
C493 C 0.26755 0.8138 0.70752 0.0
C494 C 0.22992 0.72646 0.72201 0.0
C495 C 0.22789 0.7161 0.73962 0.0
C496 C 0.23773 0.7194 0.75733 0.0
C497 C 0.24943 0.7339 0.75792 0.0
C498 C 0.25867 0.73824 0.77594 0.0
C499 C 0.27069 0.7521 0.77616 0.0
C500 C 0.27435 0.76177 0.75819 0.0
C501 C 0.28728 0.77524 0.75798 0.0
C502 C 0.29123 0.78398 0.73962 0.0
C503 C 0.28231 0.77985 0.72141 0.0
C504 C 0.26867 0.76708 0.72155 0.0
C505 C 0.25884 0.76319 0.70375 0.0
C506 C 0.24578 0.75021 0.70396 0.0
C507 C 0.24248 0.74028 0.7218 0.0
C508 C 0.25217 0.74408 0.73992 0.0
C509 C 0.26497 0.75775 0.73992 0.0
C510 C 0.30695 0.77603 0.86579 0.0
C511 C 0.32129 0.77522 0.84926 0.0
O512 O 0.18361 0.69936 0.66241 0.0
O513 O 0.30483 0.8084 0.64547 0.0
O514 O 0.31842 0.7886 0.8351 0.0
O515 O 0.23462 0.66768 0.82007 0.0
H516 H 0.16317 0.69781 0.68326 0.0
H517 H 0.18217 0.67186 0.68815 0.0
H518 H 0.17831 0.66466 0.66211 0.0
H519 H 0.16034 0.66516 0.68047 0.0
H520 H 0.17595 0.72541 0.68807 0.0
H521 H 0.21708 0.69251 0.66411 0.0
H522 H 0.19357 0.73583 0.73367 0.0
H523 H 0.18126 0.7469 0.71376 0.0
H524 H 0.20388 0.75302 0.71903 0.0
H525 H 0.2463 0.69351 0.67682 0.0
H526 H 0.24556 0.69501 0.7045 0.0
H527 H 0.25291 0.71356 0.68974 0.0
H528 H 0.24691 0.64515 0.80823 0.0
H529 H 0.2388 0.62986 0.83667 0.0
H530 H 0.23001 0.64736 0.84798 0.0
H531 H 0.26695 0.64743 0.85789 0.0
H532 H 0.25898 0.66931 0.79004 0.0
H533 H 0.21305 0.69388 0.81617 0.0
H534 H 0.27289 0.70319 0.75952 0.0
H535 H 0.25841 0.69124 0.74278 0.0
H536 H 0.27263 0.6794 0.76024 0.0
H537 H 0.20096 0.72017 0.80256 0.0
H538 H 0.20209 0.72026 0.77482 0.0
H539 H 0.21657 0.73419 0.78932 0.0
H540 H 0.32028 0.762 0.84184 0.0
H541 H 0.33005 0.76498 0.80807 0.0
H542 H 0.29389 0.80751 0.81857 0.0
H543 H 0.30932 0.74429 0.76936 0.0
H544 H 0.33166 0.75003 0.77618 0.0
H545 H 0.32113 0.76012 0.75419 0.0
H546 H 0.27258 0.8161 0.79409 0.0
H547 H 0.26366 0.79718 0.78076 0.0
H548 H 0.27855 0.81172 0.76768 0.0
H549 H 0.28063 0.81847 0.63673 0.0
H550 H 0.28622 0.81483 0.5996 0.0
H551 H 0.28838 0.79435 0.61345 0.0
H552 H 0.30789 0.80587 0.60496 0.0
H553 H 0.31715 0.78034 0.6623 0.0
H554 H 0.28153 0.82368 0.67099 0.0
H555 H 0.29973 0.75212 0.69887 0.0
H556 H 0.31607 0.7643 0.71283 0.0
H557 H 0.32041 0.75761 0.68666 0.0
H558 H 0.26335 0.82634 0.70015 0.0
H559 H 0.27283 0.81677 0.72307 0.0
H560 H 0.25579 0.80522 0.70954 0.0
H561 H 0.21884 0.70499 0.73936 0.0
H562 H 0.25664 0.73101 0.7901 0.0
H563 H 0.27733 0.75487 0.79054 0.0
H564 H 0.30161 0.79385 0.73942 0.0
H565 H 0.26108 0.77019 0.68948 0.0
H566 H 0.23857 0.74778 0.68987 0.0
H567 H 0.30894 0.76537 0.8773 0.0
H568 H 0.29377 0.77419 0.85861 0.0
H569 H 0.30713 0.78901 0.87377 0.0
C570 C 0.19005 0.3585 0.81626 0.0
C571 C 0.19805 0.35144 0.83627 0.0
C572 C 0.21874 0.32996 0.82287 0.0
C573 C 0.21147 0.31394 0.82949 0.0
C574 C 0.21391 0.29843 0.81803 0.0
C575 C 0.22369 0.29906 0.79949 0.0
C576 C 0.23187 0.31504 0.79342 0.0
C577 C 0.22948 0.33028 0.80541 0.0
C578 C 0.20538 0.28153 0.82526 0.0
C579 C 0.24234 0.3162 0.77373 0.0
C580 C 0.12047 0.2899 0.7272 0.0
C581 C 0.13417 0.28597 0.71052 0.0
C582 C 0.15829 0.2688 0.72455 0.0
C583 C 0.17311 0.27809 0.71752 0.0
C584 C 0.18913 0.27737 0.7283 0.0
C585 C 0.19025 0.2672 0.74651 0.0
C586 C 0.17546 0.25733 0.7532 0.0
C587 C 0.1597 0.25805 0.74189 0.0
C588 C 0.20477 0.28773 0.72048 0.0
C589 C 0.17615 0.24644 0.7726 0.0
C590 C 0.25284 0.1702 0.71676 0.0
C591 C 0.25991 0.18582 0.70863 0.0
C592 C 0.26273 0.20059 0.72126 0.0
C593 C 0.25822 0.19968 0.74236 0.0
C594 C 0.2517 0.18371 0.7507 0.0
C595 C 0.2493 0.16907 0.73778 0.0
C596 C 0.27034 0.21721 0.71205 0.0
C597 C 0.24695 0.18222 0.77317 0.0
C598 C 0.34956 0.26048 0.84456 0.0
C599 C 0.3434 0.24126 0.84534 0.0
C600 C 0.32543 0.23451 0.81525 0.0
C601 C 0.32487 0.24033 0.79491 0.0
C602 C 0.3091 0.23988 0.78364 0.0
C603 C 0.29365 0.23297 0.79287 0.0
C604 C 0.29427 0.22657 0.8133 0.0
C605 C 0.31018 0.22745 0.82432 0.0
C606 C 0.30895 0.24671 0.76185 0.0
C607 C 0.27818 0.21859 0.82335 0.0
C608 C 0.22327 0.28374 0.78524 0.0
C609 C 0.20841 0.28208 0.77269 0.0
C610 C 0.2065 0.26786 0.75922 0.0
C611 C 0.21976 0.25479 0.75815 0.0
C612 C 0.21816 0.24021 0.74491 0.0
C613 C 0.23117 0.22728 0.74418 0.0
C614 C 0.24645 0.2286 0.75637 0.0
C615 C 0.25981 0.21557 0.7556 0.0
C616 C 0.2749 0.21738 0.76773 0.0
C617 C 0.27706 0.23186 0.78084 0.0
C618 C 0.26374 0.24492 0.78206 0.0
C619 C 0.26535 0.25955 0.79528 0.0
C620 C 0.25206 0.27223 0.7965 0.0
C621 C 0.23682 0.27092 0.78427 0.0
C622 C 0.235 0.25635 0.7707 0.0
C623 C 0.24841 0.24329 0.76971 0.0
C624 C 0.22089 0.1526 0.69051 0.0
C625 C 0.24044 0.15622 0.68634 0.0
O626 O 0.21506 0.34536 0.83266 0.0
O627 O 0.34103 0.23521 0.82541 0.0
O628 O 0.24963 0.1559 0.70477 0.0
O629 O 0.14249 0.27011 0.71492 0.0
H630 H 0.18958 0.34045 0.8419 0.0
H631 H 0.1892 0.34775 0.80468 0.0
H632 H 0.19833 0.36931 0.80989 0.0
H633 H 0.17649 0.36358 0.81904 0.0
H634 H 0.20368 0.3136 0.84345 0.0
H635 H 0.23521 0.34273 0.8006 0.0
H636 H 0.19405 0.27833 0.81511 0.0
H637 H 0.20049 0.28257 0.84132 0.0
H638 H 0.21492 0.27043 0.82426 0.0
H639 H 0.24823 0.32949 0.77142 0.0
H640 H 0.23363 0.31316 0.76045 0.0
H641 H 0.25309 0.30625 0.77383 0.0
H642 H 0.14383 0.29706 0.71058 0.0
H643 H 0.11367 0.30259 0.72396 0.0
H644 H 0.1271 0.291 0.74238 0.0
H645 H 0.1105 0.27916 0.72804 0.0
H646 H 0.17211 0.28593 0.70364 0.0
H647 H 0.14818 0.25077 0.74699 0.0
H648 H 0.21661 0.2791 0.71968 0.0
H649 H 0.20776 0.29863 0.73136 0.0
H650 H 0.20232 0.29348 0.70503 0.0
H651 H 0.16333 0.23996 0.77605 0.0
H652 H 0.17987 0.25495 0.78582 0.0
H653 H 0.18644 0.23608 0.77109 0.0
H654 H 0.24144 0.16943 0.67895 0.0
H655 H 0.2634 0.18643 0.6925 0.0
H656 H 0.24416 0.1568 0.74391 0.0
H657 H 0.26024 0.22783 0.7124 0.0
H658 H 0.27468 0.21527 0.69589 0.0
H659 H 0.28178 0.22178 0.72131 0.0
H660 H 0.24142 0.16906 0.77709 0.0
H661 H 0.23712 0.19252 0.77727 0.0
H662 H 0.25888 0.18454 0.7827 0.0
H663 H 0.33079 0.24088 0.85412 0.0
H664 H 0.35122 0.26586 0.86034 0.0
H665 H 0.33958 0.26865 0.83645 0.0
H666 H 0.36232 0.26155 0.83619 0.0
H667 H 0.33682 0.2455 0.78799 0.0
H668 H 0.31079 0.22224 0.8398 0.0
H669 H 0.29825 0.2566 0.75997 0.0
H670 H 0.30619 0.23566 0.7511 0.0
H671 H 0.32171 0.25288 0.75746 0.0
H672 H 0.28101 0.21355 0.83904 0.0
H673 H 0.2731 0.20756 0.81379 0.0
H674 H 0.26757 0.22866 0.8244 0.0
H675 H 0.19808 0.29199 0.7735 0.0
H676 H 0.20676 0.23858 0.73505 0.0
H677 H 0.22912 0.21627 0.73383 0.0
H678 H 0.28513 0.20737 0.76696 0.0
H679 H 0.27685 0.2613 0.80494 0.0
H680 H 0.2539 0.28314 0.80705 0.0
H681 H 0.21327 0.15285 0.67591 0.0
H682 H 0.21547 0.16294 0.70086 0.0
H683 H 0.21914 0.13953 0.69798 0.0
C684 C 0.81055 0.31941 0.62576 0.0
C685 C 0.82537 0.32242 0.64144 0.0
C686 C 0.81653 0.30403 0.67106 0.0
C687 C 0.82074 0.28886 0.68223 0.0
C688 C 0.8108 0.28377 0.69944 0.0
C689 C 0.79607 0.29403 0.70544 0.0
C690 C 0.79166 0.3094 0.69422 0.0
C691 C 0.802 0.31433 0.67722 0.0
C692 C 0.81607 0.26746 0.71125 0.0
C693 C 0.776 0.32061 0.70019 0.0
C694 C 0.79728 0.31332 0.86297 0.0
C695 C 0.80085 0.32975 0.8498 0.0
C696 C 0.7875 0.32229 0.81625 0.0
C697 C 0.77367 0.32646 0.80295 0.0
C698 C 0.77139 0.31746 0.78432 0.0
C699 C 0.78313 0.30363 0.77905 0.0
C700 C 0.79744 0.29956 0.79219 0.0
C701 C 0.79959 0.30904 0.8106 0.0
C702 C 0.75624 0.32252 0.77045 0.0
C703 C 0.8102 0.28494 0.78696 0.0
C704 C 0.69721 0.23098 0.81278 0.0
C705 C 0.6924 0.24546 0.80059 0.0
C706 C 0.701 0.24877 0.78188 0.0
C707 C 0.7147 0.23737 0.77532 0.0
C708 C 0.71894 0.22226 0.7871 0.0
C709 C 0.70995 0.21915 0.80564 0.0
C710 C 0.69574 0.26469 0.76935 0.0
C711 C 0.73336 0.20975 0.78045 0.0
C712 C 0.71757 0.21506 0.60839 0.0
C713 C 0.71863 0.20433 0.62825 0.0
C714 C 0.71304 0.21771 0.66187 0.0
C715 C 0.7047 0.23249 0.67025 0.0
C716 C 0.70996 0.23942 0.68928 0.0
C717 C 0.72371 0.23109 0.70035 0.0
C718 C 0.73166 0.21562 0.69241 0.0
C719 C 0.72624 0.20906 0.67321 0.0
C720 C 0.70104 0.25582 0.69741 0.0
C721 C 0.746 0.20615 0.70413 0.0
C722 C 0.78551 0.28887 0.72372 0.0
C723 C 0.78922 0.29724 0.74239 0.0
C724 C 0.77985 0.29302 0.76024 0.0
C725 C 0.76676 0.27973 0.75969 0.0
C726 C 0.75766 0.27463 0.77757 0.0
C727 C 0.74432 0.26205 0.77676 0.0
C728 C 0.73943 0.25419 0.75801 0.0
C729 C 0.72536 0.24194 0.75692 0.0
C730 C 0.72082 0.23438 0.73804 0.0
C731 C 0.72992 0.2388 0.72005 0.0
C732 C 0.74406 0.25102 0.72083 0.0
C733 C 0.75347 0.25583 0.70303 0.0
C734 C 0.76715 0.26809 0.70394 0.0
C735 C 0.77186 0.27613 0.72265 0.0
C736 C 0.76254 0.27148 0.74076 0.0
C737 C 0.74874 0.2588 0.73988 0.0
C738 C 0.70271 0.23887 0.86225 0.0
C739 C 0.68773 0.24075 0.84664 0.0
O740 O 0.82677 0.30804 0.65452 0.0
O741 O 0.70792 0.21215 0.64294 0.0
O742 O 0.6897 0.22807 0.83141 0.0
O743 O 0.78837 0.33124 0.83435 0.0
H744 H 0.82253 0.33455 0.65052 0.0
H745 H 0.79763 0.31796 0.6336 0.0
H746 H 0.81304 0.30724 0.61665 0.0
H747 H 0.80963 0.33084 0.61511 0.0
H748 H 0.83198 0.28101 0.67742 0.0
H749 H 0.79854 0.32617 0.66888 0.0
H750 H 0.81786 0.27076 0.72776 0.0
H751 H 0.82847 0.2615 0.70532 0.0
H752 H 0.80538 0.25747 0.71023 0.0
H753 H 0.77344 0.33135 0.68895 0.0
H754 H 0.77839 0.32663 0.71551 0.0
H755 H 0.764 0.31227 0.70145 0.0
H756 H 0.81427 0.32877 0.84292 0.0
H757 H 0.80703 0.31251 0.87569 0.0
H758 H 0.79846 0.30113 0.85362 0.0
H759 H 0.78377 0.31376 0.86961 0.0
H760 H 0.7645 0.3368 0.80734 0.0
H761 H 0.81055 0.3058 0.82056 0.0
H762 H 0.76091 0.324 0.75435 0.0
H763 H 0.74985 0.33504 0.77535 0.0
H764 H 0.74615 0.3119 0.77064 0.0
H765 H 0.82026 0.28292 0.79915 0.0
H766 H 0.81707 0.28808 0.77233 0.0
H767 H 0.80288 0.2724 0.78462 0.0
H768 H 0.68865 0.25429 0.84009 0.0
H769 H 0.68195 0.25419 0.80571 0.0
H770 H 0.7133 0.20782 0.81502 0.0
H771 H 0.70663 0.2745 0.76956 0.0
H772 H 0.6836 0.27111 0.77537 0.0
H773 H 0.6935 0.26082 0.75309 0.0
H774 H 0.73503 0.19856 0.79131 0.0
H775 H 0.74606 0.21701 0.77929 0.0
H776 H 0.73029 0.2044 0.76496 0.0
H777 H 0.73273 0.20464 0.6331 0.0
H778 H 0.72609 0.20907 0.59634 0.0
H779 H 0.72223 0.22875 0.61127 0.0
H780 H 0.70376 0.21566 0.60265 0.0
H781 H 0.69432 0.23887 0.66152 0.0
H782 H 0.73223 0.19715 0.66718 0.0
H783 H 0.71104 0.26629 0.70018 0.0
H784 H 0.69463 0.25285 0.71237 0.0
H785 H 0.69089 0.261 0.68667 0.0
H786 H 0.75023 0.19378 0.69638 0.0
H787 H 0.74128 0.20292 0.71985 0.0
H788 H 0.75764 0.21496 0.70575 0.0
H789 H 0.79932 0.30738 0.74298 0.0
H790 H 0.76073 0.28032 0.79241 0.0
H791 H 0.73777 0.25872 0.79104 0.0
H792 H 0.70986 0.22518 0.73728 0.0
H793 H 0.75034 0.25019 0.68817 0.0
H794 H 0.77388 0.27132 0.68974 0.0
H795 H 0.70136 0.24892 0.87461 0.0
H796 H 0.71561 0.24091 0.85448 0.0
H797 H 0.70263 0.22549 0.86927 0.0
C798 C 0.82264 0.64903 0.80044 0.0
C799 C 0.81889 0.65867 0.82068 0.0
C800 C 0.79941 0.68258 0.81124 0.0
C801 C 0.8083 0.69762 0.81827 0.0
C802 C 0.80629 0.71388 0.80822 0.0
C803 C 0.79528 0.71499 0.79068 0.0
C804 C 0.78562 0.69997 0.7842 0.0
C805 C 0.78762 0.68397 0.79483 0.0
C806 C 0.81643 0.72971 0.8159 0.0
C807 C 0.77389 0.70061 0.76548 0.0
C808 C 0.90229 0.73414 0.72004 0.0
C809 C 0.88672 0.73611 0.70526 0.0
C810 C 0.86098 0.75089 0.71941 0.0
C811 C 0.84729 0.74031 0.71175 0.0
C812 C 0.83087 0.73971 0.72173 0.0
C813 C 0.82822 0.7498 0.73981 0.0
C814 C 0.8419 0.76088 0.74718 0.0
C815 C 0.85802 0.76152 0.73659 0.0
C816 C 0.81645 0.7281 0.71317 0.0
C817 C 0.83971 0.77163 0.76658 0.0
C818 C 0.76345 0.84529 0.71337 0.0
C819 C 0.75557 0.82974 0.7061 0.0
C820 C 0.7533 0.81516 0.71914 0.0
C821 C 0.7592 0.81616 0.73976 0.0
C822 C 0.76654 0.83209 0.74728 0.0
C823 C 0.76834 0.84656 0.734 0.0
C824 C 0.74483 0.7986 0.71082 0.0
C825 C 0.77281 0.83371 0.76923 0.0
C826 C 0.69918 0.7815 0.87582 0.0
C827 C 0.69073 0.79516 0.86146 0.0
C828 C 0.70322 0.78777 0.82751 0.0
C829 C 0.6995 0.78043 0.80827 0.0
C830 C 0.71256 0.77915 0.793 0.0
C831 C 0.72978 0.78539 0.79715 0.0
C832 C 0.73369 0.79279 0.8166 0.0
C833 C 0.72041 0.79389 0.83158 0.0
C834 C 0.70797 0.77118 0.77243 0.0
C835 C 0.75194 0.79964 0.82151 0.0
C836 C 0.79564 0.7311 0.77771 0.0
C837 C 0.81007 0.73316 0.76454 0.0
C838 C 0.81165 0.74789 0.75181 0.0
C839 C 0.79818 0.76078 0.75164 0.0
C840 C 0.799 0.7754 0.73839 0.0
C841 C 0.78596 0.78832 0.73877 0.0
C842 C 0.77158 0.78709 0.7524 0.0
C843 C 0.75844 0.80034 0.75318 0.0
C844 C 0.7447 0.79906 0.76743 0.0
C845 C 0.74363 0.7848 0.78101 0.0
C846 C 0.7563 0.7711 0.78002 0.0
C847 C 0.75537 0.75633 0.79308 0.0
C848 C 0.76816 0.74311 0.79227 0.0
C849 C 0.78241 0.74426 0.77848 0.0
C850 C 0.78362 0.75907 0.76521 0.0
C851 C 0.77042 0.77236 0.76578 0.0
C852 C 0.79423 0.86143 0.68452 0.0
C853 C 0.77436 0.85864 0.68185 0.0
O854 O 0.80236 0.66654 0.81977 0.0
O855 O 0.68989 0.78861 0.84155 0.0
O856 O 0.76621 0.85937 0.70093 0.0
O857 O 0.87718 0.75106 0.71056 0.0
H858 H 0.82931 0.66887 0.82285 0.0
H859 H 0.82262 0.65859 0.7875 0.0
H860 H 0.8124 0.63884 0.79744 0.0
H861 H 0.83581 0.64258 0.80098 0.0
H862 H 0.817 0.69657 0.83143 0.0
H863 H 0.78067 0.67225 0.78973 0.0
H864 H 0.82748 0.73255 0.80519 0.0
H865 H 0.82199 0.7275 0.83149 0.0
H866 H 0.80777 0.74154 0.81631 0.0
H867 H 0.76745 0.68771 0.76231 0.0
H868 H 0.78177 0.7045 0.75181 0.0
H869 H 0.76348 0.71075 0.76766 0.0
H870 H 0.87847 0.724 0.7069 0.0
H871 H 0.9101 0.72216 0.71617 0.0
H872 H 0.89734 0.73276 0.73604 0.0
H873 H 0.91104 0.7459 0.71928 0.0
H874 H 0.84947 0.73253 0.69799 0.0
H875 H 0.86867 0.7698 0.74217 0.0
H876 H 0.81437 0.71669 0.72359 0.0
H877 H 0.81973 0.723 0.69761 0.0
H878 H 0.80383 0.73554 0.71234 0.0
H879 H 0.85219 0.77819 0.7713 0.0
H880 H 0.83511 0.76307 0.77936 0.0
H881 H 0.82954 0.78195 0.76411 0.0
H882 H 0.77236 0.84549 0.67458 0.0
H883 H 0.75107 0.82904 0.69033 0.0
H884 H 0.7741 0.85879 0.7395 0.0
H885 H 0.75485 0.78794 0.7099 0.0
H886 H 0.73912 0.80061 0.69527 0.0
H887 H 0.73423 0.79405 0.72137 0.0
H888 H 0.77932 0.84659 0.77227 0.0
H889 H 0.78224 0.82293 0.77283 0.0
H890 H 0.76138 0.83234 0.7798 0.0
H891 H 0.69869 0.80751 0.8617 0.0
H892 H 0.69969 0.78669 0.89179 0.0
H893 H 0.71287 0.77849 0.8709 0.0
H894 H 0.69149 0.76901 0.8757 0.0
H895 H 0.68624 0.77571 0.80523 0.0
H896 H 0.72365 0.79958 0.84634 0.0
H897 H 0.71715 0.76015 0.76891 0.0
H898 H 0.70963 0.78127 0.7602 0.0
H899 H 0.6942 0.76615 0.77193 0.0
H900 H 0.75275 0.80548 0.83716 0.0
H901 H 0.75581 0.80984 0.81012 0.0
H902 H 0.76165 0.78871 0.8204 0.0
H903 H 0.82042 0.72324 0.76446 0.0
H904 H 0.80978 0.77705 0.72762 0.0
H905 H 0.7874 0.79935 0.72834 0.0
H906 H 0.73494 0.80952 0.7683 0.0
H907 H 0.74473 0.75483 0.80407 0.0
H908 H 0.76683 0.73206 0.8027 0.0
H909 H 0.80102 0.86084 0.66938 0.0
H910 H 0.79977 0.85088 0.69447 0.0
H911 H 0.79694 0.87443 0.6918 0.0
C912 C 0.98401 0.32206 0.52202 0.0
C913 C 0.03219 0.31732 0.47228 0.0
O914 O 0.99227 0.3347 0.51348 0.0
Zn915 Zn 0.00829 0.32022 0.49735 0.0
O916 O 0.98845 0.30609 0.51799 0.0
Zn917 Zn 0.00716 0.29219 0.49935 0.0
O918 O 0.02106 0.2797 0.51939 0.0
O919 O 0.02488 0.30857 0.52056 0.0
O920 O 0.02661 0.30234 0.47875 0.0
O921 O 0.02515 0.33142 0.47899 0.0
O922 O 0.99031 0.30755 0.47637 0.0
O923 O 0.99202 0.27878 0.48136 0.0
C924 C 0.0285 0.29309 0.52737 0.0
C925 C 0.98532 0.29182 0.47186 0.0
C926 C 0.69691 0.03771 0.53529 0.0
C927 C 0.69493 0.9895 0.48549 0.0
O928 O 0.71228 0.03296 0.52913 0.0
Zn929 Zn 0.72347 0.01398 0.50836 0.0
O930 O 0.68332 0.02991 0.52831 0.0
Zn931 Zn 0.69565 0.01355 0.5105 0.0
O932 O 0.7094 0.99663 0.532 0.0
O933 O 0.73788 0.99974 0.52586 0.0
O934 O 0.68198 0.99682 0.49454 0.0
O935 O 0.71068 0.99474 0.48937 0.0
O936 O 0.73534 0.02848 0.48864 0.0
O937 O 0.70634 0.03086 0.48712 0.0
C938 C 0.72549 0.99261 0.53606 0.0
C939 C 0.7217 0.03524 0.48049 0.0
C940 C 0.98438 0.7237 0.51844 0.0
C941 C 0.02859 0.72025 0.46427 0.0
O942 O 0.99149 0.73627 0.50852 0.0
Zn943 Zn 0.00616 0.722 0.49097 0.0
O944 O 0.98856 0.7077 0.51411 0.0
Zn945 Zn 0.00575 0.6941 0.49294 0.0
O946 O 0.02151 0.68169 0.51124 0.0
O947 O 0.02457 0.71066 0.51235 0.0
O948 O 0.02392 0.7049 0.47064 0.0
O949 O 0.02136 0.7339 0.47188 0.0
O950 O 0.98744 0.70922 0.47132 0.0
O951 O 0.98928 0.68049 0.47662 0.0
C952 C 0.02912 0.69526 0.5186 0.0
C953 C 0.98225 0.69347 0.46737 0.0
C954 C 0.29037 0.02386 0.53833 0.0
C955 C 0.29709 0.98045 0.48356 0.0
O956 O 0.30665 0.02082 0.53405 0.0
Zn957 Zn 0.32147 0.00458 0.51288 0.0
O958 O 0.27833 0.0158 0.52848 0.0
Zn959 Zn 0.29351 0.00219 0.51094 0.0
O960 O 0.30605 0.98459 0.53204 0.0
O961 O 0.3348 0.98928 0.53111 0.0
O962 O 0.28285 0.98619 0.49144 0.0
O963 O 0.31196 0.98627 0.49015 0.0
O964 O 0.33383 0.02186 0.49614 0.0
O965 O 0.30493 0.02205 0.4918 0.0
C966 C 0.32165 0.98087 0.53833 0.0
C967 C 0.32022 0.02829 0.48748 0.0
C968 C 0.48102 0.82003 0.02097 0.0
C969 C 0.52726 0.81568 0.96884 0.0
O970 O 0.48932 0.83265 0.01243 0.0
Zn971 Zn 0.50412 0.81826 0.99484 0.0
O972 O 0.48468 0.80406 0.01597 0.0
Zn973 Zn 0.50228 0.79028 0.99564 0.0
O974 O 0.51653 0.77672 0.01449 0.0
O975 O 0.52099 0.80544 0.01674 0.0
O976 O 0.52135 0.80059 0.97452 0.0
O977 O 0.52097 0.82966 0.9768 0.0
O978 O 0.48514 0.80681 0.97404 0.0
O979 O 0.48621 0.77788 0.9779 0.0
C980 C 0.52448 0.7897 0.02273 0.0
C981 C 0.4796 0.79135 0.96917 0.0
C982 C 0.19762 0.53998 0.0352 0.0
C983 C 0.19936 0.49493 0.98148 0.0
O984 O 0.21338 0.53553 0.03019 0.0
Zn985 Zn 0.22609 0.51783 0.00916 0.0
O986 O 0.1846 0.53264 0.02633 0.0
Zn987 Zn 0.19823 0.51737 0.00842 0.0
O988 O 0.21036 0.49891 0.02946 0.0
O989 O 0.23917 0.50254 0.02689 0.0
O990 O 0.18581 0.50176 0.98982 0.0
O991 O 0.21478 0.49983 0.98727 0.0
O992 O 0.23938 0.5335 0.99214 0.0
O993 O 0.21061 0.53607 0.98777 0.0
C994 C 0.22609 0.49464 0.03488 0.0
C995 C 0.2264 0.54084 0.98322 0.0
C996 C 0.53321 0.2256 0.97374 0.0
C997 C 0.4888 0.22891 0.02782 0.0
O998 O 0.52675 0.23929 0.98216 0.0
Zn999 Zn 0.51082 0.2274 0.00055 0.0
O1000 O 0.52767 0.21029 0.9792 0.0
Zn1001 Zn 0.5088 0.19946 0.00062 0.0
O1002 O 0.49198 0.18766 0.98282 0.0
O1003 O 0.4915 0.21667 0.98008 0.0
O1004 O 0.49206 0.21295 0.02236 0.0
O1005 O 0.49687 0.24153 0.01903 0.0
O1006 O 0.52855 0.21404 0.02101 0.0
O1007 O 0.52371 0.1854 0.01841 0.0
C1008 C 0.48557 0.2015 0.9747 0.0
C1009 C 0.53218 0.19817 0.02641 0.0
C1010 C 0.79141 0.52786 0.03454 0.0
C1011 C 0.79688 0.4817 0.98266 0.0
O1012 O 0.80754 0.52439 0.03004 0.0
Zn1013 Zn 0.82184 0.50708 0.00973 0.0
O1014 O 0.77907 0.51957 0.02546 0.0
Zn1015 Zn 0.79384 0.50492 0.00842 0.0
O1016 O 0.80655 0.48822 0.03046 0.0
O1017 O 0.83534 0.4925 0.02854 0.0
O1018 O 0.78279 0.48803 0.99031 0.0
O1019 O 0.81187 0.48772 0.98855 0.0
O1020 O 0.83408 0.52343 0.99183 0.0
O1021 O 0.8052 0.52348 0.98741 0.0
C1022 C 0.82222 0.48462 0.03659 0.0
C1023 C 0.82053 0.52934 0.98256 0.0
H1024 H 0.14541 0.29122 0.32628 0.0
H1025 H 0.12166 0.30671 0.3442 0.0
H1026 H 0.14718 0.29631 0.40225 0.0
H1027 H 0.17139 0.28165 0.3843 0.0
H1028 H 0.09942 0.29282 0.36873 0.0
H1029 H 0.13211 0.34565 0.41261 0.0
H1030 H 0.14322 0.33393 0.39218 0.0
H1031 H 0.14283 0.32509 0.41794 0.0
C1032 C 0.14626 0.29276 0.3428 0.0
C1033 C 0.1605 0.28554 0.35388 0.0
C1034 C 0.13262 0.30156 0.35305 0.0
C1035 C 0.13276 0.30307 0.37458 0.0
C1036 C 0.14703 0.29597 0.38561 0.0
H1037 H 0.05144 0.28947 0.45854 0.0
H1038 H 0.07471 0.28933 0.43288 0.0
C1039 C 0.1608 0.28743 0.37536 0.0
C1040 C 0.11701 0.30982 0.38574 0.0
H1041 H 0.10468 0.33417 0.4276 0.0
C1042 C 0.10055 0.30221 0.38127 0.0
C1043 C 0.11824 0.32237 0.40186 0.0
C1044 C 0.13504 0.33236 0.40623 0.0
C1045 C 0.08569 0.3057 0.39344 0.0
C1046 C 0.08744 0.31667 0.41092 0.0
C1047 C 0.10346 0.32545 0.41444 0.0
C1048 C 0.07347 0.31739 0.42684 0.0
C1049 C 0.06837 0.2971 0.38784 0.0
C1050 C 0.06547 0.33338 0.43259 0.0
C1051 C 0.0521 0.33355 0.44754 0.0
C1052 C 0.04667 0.31773 0.45697 0.0
C1053 C 0.05509 0.30188 0.45145 0.0
C1054 C 0.06838 0.30174 0.43667 0.0
H1055 H 0.06755 0.29456 0.37103 0.0
H1056 H 0.06731 0.2842 0.39582 0.0
H1057 H 0.05697 0.30543 0.39247 0.0
H1058 H 0.06938 0.34563 0.42532 0.0
H1059 H 0.04592 0.34598 0.45153 0.0
H1060 H 0.71549 0.1448 0.31401 0.0
H1061 H 0.70789 0.12424 0.35056 0.0
H1062 H 0.77234 0.11432 0.36325 0.0
H1063 H 0.7817 0.13482 0.32739 0.0
H1064 H 0.71783 0.09062 0.36254 0.0
H1065 H 0.75445 0.13034 0.41992 0.0
H1066 H 0.74882 0.13864 0.3948 0.0
H1067 H 0.76766 0.12442 0.39811 0.0
C1068 C 0.72596 0.13866 0.32276 0.0
C1069 C 0.74961 0.14469 0.31909 0.0
C1070 C 0.72142 0.12662 0.34604 0.0
C1071 C 0.73925 0.11832 0.36174 0.0
C1072 C 0.7621 0.12046 0.35416 0.0
H1073 H 0.75193 0.04539 0.46081 0.0
H1074 H 0.75477 0.06605 0.43218 0.0
C1075 C 0.76804 0.13226 0.3312 0.0
C1076 C 0.73501 0.10761 0.37995 0.0
H1077 H 0.74574 0.10148 0.43037 0.0
C1078 C 0.72373 0.09309 0.37746 0.0
C1079 C 0.74274 0.11093 0.39933 0.0
C1080 C 0.75396 0.12703 0.40328 0.0
C1081 C 0.72066 0.08122 0.39364 0.0
C1082 C 0.72881 0.08424 0.4129 0.0
C1083 C 0.73965 0.09911 0.41553 0.0
C1084 C 0.72684 0.07182 0.43032 0.0
C1085 C 0.70935 0.06516 0.38972 0.0
C1086 C 0.7102 0.06838 0.43893 0.0
C1087 C 0.70851 0.05649 0.45524 0.0
C1088 C 0.72347 0.04797 0.46337 0.0
C1089 C 0.74014 0.05169 0.45491 0.0
C1090 C 0.7418 0.06351 0.43855 0.0
H1091 H 0.70764 0.06258 0.37302 0.0
H1092 H 0.71518 0.05325 0.39697 0.0
H1093 H 0.69608 0.06731 0.3965 0.0
H1094 H 0.69854 0.07494 0.43309 0.0
H1095 H 0.69549 0.05403 0.46151 0.0
H1096 H 0.8257 0.70704 0.392 0.0
H1097 H 0.85152 0.69092 0.40482 0.0
H1098 H 0.88578 0.73066 0.37901 0.0
H1099 H 0.86009 0.74646 0.36562 0.0
H1100 H 0.89876 0.69698 0.37344 0.0
H1101 H 0.87855 0.70779 0.45487 0.0
H1102 H 0.863 0.69614 0.43905 0.0
H1103 H 0.86788 0.71891 0.43376 0.0
C1104 C 0.83876 0.71221 0.38892 0.0
C1105 C 0.84091 0.72807 0.37799 0.0
C1106 C 0.85348 0.70305 0.39632 0.0
C1107 C 0.87054 0.70976 0.39318 0.0
C1108 C 0.87272 0.72526 0.38165 0.0
H1109 H 0.97264 0.71496 0.43604 0.0
H1110 H 0.94558 0.71364 0.41579 0.0
C1111 C 0.85806 0.73432 0.3741 0.0
C1112 C 0.88619 0.70138 0.40274 0.0
H1113 H 0.90605 0.69465 0.44918 0.0
C1114 C 0.90025 0.6962 0.39 0.0
C1115 C 0.88808 0.70028 0.42436 0.0
C1116 C 0.87367 0.70618 0.43887 0.0
C1117 C 0.91647 0.69082 0.39833 0.0
C1118 C 0.91864 0.69069 0.41989 0.0
C1119 C 0.90425 0.69471 0.43263 0.0
C1120 C 0.93626 0.68934 0.42951 0.0
C1121 C 0.93137 0.68593 0.38404 0.0
C1122 C 0.94008 0.67598 0.44377 0.0
C1123 C 0.95569 0.67663 0.45529 0.0
C1124 C 0.9674 0.6909 0.45302 0.0
C1125 C 0.96382 0.70385 0.43815 0.0
C1126 C 0.94843 0.70303 0.42646 0.0
H1127 H 0.92633 0.68156 0.36881 0.0
H1128 H 0.93988 0.69767 0.38157 0.0
H1129 H 0.93963 0.67527 0.39071 0.0
H1130 H 0.93072 0.66542 0.44648 0.0
H1131 H 0.95809 0.66654 0.46675 0.0
H1132 H 0.31772 0.88166 0.3265 0.0
H1133 H 0.31118 0.90379 0.35287 0.0
H1134 H 0.29689 0.8624 0.39526 0.0
H1135 H 0.304 0.84019 0.36914 0.0
H1136 H 0.28165 0.91223 0.37501 0.0
H1137 H 0.33503 0.8884 0.42652 0.0
H1138 H 0.33277 0.88086 0.40035 0.0
H1139 H 0.31886 0.87195 0.42022 0.0
C1140 C 0.31295 0.87732 0.34137 0.0
C1141 C 0.31115 0.85923 0.34567 0.0
C1142 C 0.30923 0.88995 0.35641 0.0
C1143 C 0.30375 0.88474 0.37611 0.0
C1144 C 0.30139 0.8667 0.38027 0.0
H1145 H 0.26888 0.96089 0.46994 0.0
H1146 H 0.26916 0.93744 0.44395 0.0
C1147 C 0.30527 0.85404 0.36528 0.0
C1148 C 0.30133 0.89821 0.39243 0.0
H1149 H 0.31719 0.91154 0.43904 0.0
C1150 C 0.28935 0.91207 0.38907 0.0
C1151 C 0.31159 0.89808 0.41061 0.0
C1152 C 0.32541 0.88414 0.41462 0.0
C1153 C 0.28746 0.92589 0.40333 0.0
C1154 C 0.29757 0.92562 0.42161 0.0
C1155 C 0.30937 0.91165 0.42506 0.0
C1156 C 0.29697 0.94017 0.43689 0.0
C1157 C 0.27516 0.94096 0.39833 0.0
C1158 C 0.31253 0.94929 0.44178 0.0
C1159 C 0.31246 0.96248 0.45674 0.0
C1160 C 0.29679 0.96689 0.46715 0.0
C1161 C 0.28114 0.95789 0.46209 0.0
C1162 C 0.28125 0.94455 0.44717 0.0
H1163 H 0.27177 0.94132 0.38171 0.0
H1164 H 0.26272 0.93933 0.40714 0.0
H1165 H 0.28112 0.95382 0.40268 0.0
H1166 H 0.3248 0.94612 0.43404 0.0
H1167 H 0.32474 0.96917 0.4602 0.0
H1168 H 0.1714 0.68152 0.62857 0.0
H1169 H 0.14819 0.68083 0.6023 0.0
H1170 H 0.11069 0.7008 0.64652 0.0
H1171 H 0.1337 0.70107 0.6729 0.0
H1172 H 0.09762 0.67296 0.62458 0.0
H1173 H 0.12707 0.72271 0.57213 0.0
H1174 H 0.14137 0.70447 0.57788 0.0
H1175 H 0.13489 0.71939 0.59803 0.0
C1176 C 0.15823 0.68589 0.63258 0.0
C1177 C 0.15439 0.69156 0.65269 0.0
C1178 C 0.14501 0.68555 0.61758 0.0
C1179 C 0.12779 0.69102 0.62238 0.0
C1180 C 0.12392 0.6966 0.64247 0.0
H1181 H 0.04432 0.72169 0.54077 0.0
H1182 H 0.06805 0.71941 0.56589 0.0
C1183 C 0.13708 0.69684 0.65749 0.0
C1184 C 0.11365 0.69068 0.60665 0.0
H1185 H 0.10158 0.70781 0.56022 0.0
C1186 C 0.09847 0.68056 0.61048 0.0
C1187 C 0.11475 0.70075 0.58838 0.0
C1188 C 0.13031 0.71258 0.58388 0.0
C1189 C 0.08429 0.68029 0.59659 0.0
C1190 C 0.08552 0.69013 0.57817 0.0
C1191 C 0.10075 0.70016 0.57428 0.0
C1192 C 0.07078 0.69107 0.56322 0.0
C1193 C 0.06793 0.66995 0.60208 0.0
C1194 C 0.06441 0.67586 0.55333 0.0
C1195 C 0.05067 0.67709 0.53901 0.0
C1196 C 0.04326 0.69359 0.53416 0.0
C1197 C 0.04974 0.70877 0.54408 0.0
C1198 C 0.06334 0.70751 0.55845 0.0
H1199 H 0.0674 0.6668 0.61875 0.0
H1200 H 0.05581 0.67736 0.59788 0.0
H1201 H 0.06792 0.65731 0.59345 0.0
H1202 H 0.07021 0.66308 0.55649 0.0
H1203 H 0.04606 0.66518 0.53152 0.0
H1204 H 0.25377 0.12315 0.69532 0.0
H1205 H 0.26414 0.10056 0.67122 0.0
H1206 H 0.25218 0.13505 0.62035 0.0
H1207 H 0.24236 0.15788 0.64442 0.0
H1208 H 0.24605 0.08368 0.64189 0.0
H1209 H 0.30166 0.11975 0.60601 0.0
H1210 H 0.29101 0.1273 0.62923 0.0
H1211 H 0.2813 0.13177 0.60451 0.0
C1212 C 0.25374 0.12605 0.67902 0.0
C1213 C 0.24776 0.14248 0.67175 0.0
C1214 C 0.25955 0.1131 0.66527 0.0
C1215 C 0.25931 0.11626 0.644 0.0
C1216 C 0.25302 0.13253 0.6367 0.0
H1217 H 0.25785 0.03763 0.54727 0.0
H1218 H 0.25061 0.05962 0.57349 0.0
C1219 C 0.24734 0.14552 0.65044 0.0
C1220 C 0.26476 0.10223 0.6294 0.0
H1221 H 0.29181 0.09375 0.58859 0.0
C1222 C 0.25616 0.08583 0.63033 0.0
C1223 C 0.27813 0.10495 0.61454 0.0
C1224 C 0.28869 0.12183 0.61362 0.0
C1225 C 0.26026 0.07222 0.61649 0.0
C1226 C 0.27298 0.07526 0.60094 0.0
C1227 C 0.28189 0.09151 0.60034 0.0
C1228 C 0.27729 0.06179 0.58516 0.0
C1229 C 0.2511 0.05464 0.61885 0.0
C1230 C 0.29477 0.05607 0.58261 0.0
C1231 C 0.29899 0.0437 0.56745 0.0
C1232 C 0.28579 0.03679 0.55454 0.0
C1233 C 0.26829 0.04256 0.5571 0.0
C1234 C 0.26411 0.05505 0.57216 0.0
H1235 H 0.24606 0.05275 0.63474 0.0
H1236 H 0.23965 0.05409 0.60824 0.0
H1237 H 0.26011 0.04354 0.61507 0.0
H1238 H 0.30516 0.06115 0.59241 0.0
H1239 H 0.31261 0.03954 0.56588 0.0
H1240 H 0.8468 0.29705 0.62436 0.0
H1241 H 0.87411 0.30116 0.60485 0.0
H1242 H 0.86973 0.35756 0.61239 0.0
H1243 H 0.84245 0.35349 0.63224 0.0
H1244 H 0.87776 0.32036 0.56826 0.0
H1245 H 0.92103 0.34726 0.62997 0.0
H1246 H 0.90057 0.33596 0.63548 0.0
H1247 H 0.90025 0.35827 0.62619 0.0
C1248 C 0.85181 0.3103 0.62215 0.0
C1249 C 0.84271 0.32493 0.63022 0.0
C1250 C 0.86735 0.31264 0.61094 0.0
C1251 C 0.87408 0.32964 0.60746 0.0
C1252 C 0.86497 0.34431 0.6153 0.0
H1253 H 0.96843 0.35378 0.53228 0.0
H1254 H 0.94157 0.3581 0.553 0.0
C1255 C 0.84939 0.34198 0.62656 0.0
C1256 C 0.89022 0.33185 0.59484 0.0
H1257 H 0.93362 0.34411 0.59698 0.0
C1258 C 0.88992 0.3257 0.57449 0.0
C1259 C 0.90604 0.33894 0.60298 0.0
C1260 C 0.90715 0.3454 0.62489 0.0
C1261 C 0.90514 0.32597 0.56224 0.0
C1262 C 0.9211 0.3324 0.57061 0.0
C1263 C 0.9213 0.33924 0.59066 0.0
C1264 C 0.93795 0.33033 0.55941 0.0
C1265 C 0.90417 0.31899 0.54053 0.0
C1266 C 0.94492 0.31337 0.55667 0.0
C1267 C 0.96014 0.31086 0.545 0.0
C1268 C 0.96875 0.32529 0.53579 0.0
C1269 C 0.96208 0.3424 0.53913 0.0
C1270 C 0.94677 0.3449 0.55094 0.0
H1271 H 0.89036 0.31844 0.53483 0.0
H1272 H 0.91211 0.32731 0.52994 0.0
H1273 H 0.90967 0.30541 0.54012 0.0
H1274 H 0.93837 0.30199 0.5633 0.0
H1275 H 0.96493 0.29751 0.54291 0.0
H1276 H 0.76236 0.89204 0.69184 0.0
H1277 H 0.75164 0.91501 0.66854 0.0
H1278 H 0.76057 0.88049 0.61677 0.0
H1279 H 0.77069 0.85726 0.64009 0.0
H1280 H 0.76894 0.93157 0.6387 0.0
H1281 H 0.71128 0.89739 0.60485 0.0
H1282 H 0.7225 0.88926 0.62741 0.0
H1283 H 0.73119 0.88479 0.60215 0.0
C1284 C 0.76164 0.88922 0.67553 0.0
C1285 C 0.76685 0.87266 0.66781 0.0
C1286 C 0.75562 0.90238 0.66223 0.0
C1287 C 0.75491 0.89933 0.64095 0.0
C1288 C 0.76044 0.88294 0.63318 0.0
H1289 H 0.75735 0.97736 0.54457 0.0
H1290 H 0.76388 0.95527 0.57081 0.0
C1291 C 0.7663 0.86972 0.64648 0.0
C1292 C 0.74938 0.91363 0.62678 0.0
H1293 H 0.72155 0.92309 0.58702 0.0
C1294 C 0.75846 0.92977 0.62753 0.0
C1295 C 0.73552 0.91139 0.61243 0.0
C1296 C 0.72443 0.89484 0.61178 0.0
C1297 C 0.75442 0.94355 0.61393 0.0
C1298 C 0.74126 0.94093 0.59879 0.0
C1299 C 0.7318 0.92499 0.59845 0.0
C1300 C 0.73728 0.95444 0.58298 0.0
C1301 C 0.76419 0.96082 0.61605 0.0
C1302 C 0.72004 0.96091 0.58068 0.0
C1303 C 0.7162 0.97337 0.56548 0.0
C1304 C 0.72956 0.97957 0.55231 0.0
C1305 C 0.7468 0.973 0.5546 0.0
C1306 C 0.75058 0.96044 0.56968 0.0
H1307 H 0.76949 0.96259 0.63185 0.0
H1308 H 0.77553 0.96094 0.60526 0.0
H1309 H 0.75551 0.97221 0.61239 0.0
H1310 H 0.70955 0.95637 0.5907 0.0
H1311 H 0.70277 0.97815 0.56409 0.0
H1312 H 0.89983 0.76531 0.68504 0.0
H1313 H 0.91305 0.76657 0.65065 0.0
H1314 H 0.9031 0.7109 0.6427 0.0
H1315 H 0.88955 0.70969 0.6768 0.0
H1316 H 0.94214 0.74869 0.63841 0.0
H1317 H 0.88604 0.73036 0.58828 0.0
H1318 H 0.8831 0.73709 0.61471 0.0
H1319 H 0.88941 0.71477 0.60865 0.0
C1320 C 0.90007 0.75346 0.67571 0.0
C1321 C 0.89331 0.73747 0.68337 0.0
C1322 C 0.90767 0.75418 0.65613 0.0
C1323 C 0.90872 0.73891 0.64393 0.0
C1324 C 0.90194 0.72296 0.65156 0.0
H1325 H 0.96566 0.69973 0.54091 0.0
H1326 H 0.94638 0.70543 0.57027 0.0
C1327 C 0.89429 0.72225 0.67107 0.0
C1328 C 0.91833 0.73923 0.62408 0.0
H1329 H 0.91504 0.72743 0.57353 0.0
C1330 C 0.93614 0.74434 0.62414 0.0
C1331 C 0.91046 0.73353 0.60549 0.0
C1332 C 0.89115 0.7288 0.60419 0.0
C1333 C 0.94653 0.74313 0.60634 0.0
C1334 C 0.93883 0.73683 0.58795 0.0
C1335 C 0.92089 0.73222 0.5877 0.0
C1336 C 0.94952 0.73379 0.56925 0.0
C1337 C 0.96587 0.74783 0.60754 0.0
C1338 C 0.95738 0.74791 0.55872 0.0
C1339 C 0.96845 0.74471 0.54189 0.0
C1340 C 0.97181 0.72733 0.53535 0.0
C1341 C 0.96345 0.71327 0.54561 0.0
C1342 C 0.95238 0.71649 0.56235 0.0
H1343 H 0.97041 0.74953 0.62367 0.0
H1344 H 0.97404 0.73747 0.60009 0.0
H1345 H 0.96818 0.76041 0.59923 0.0
H1346 H 0.95514 0.76138 0.56369 0.0
H1347 H 0.97461 0.75583 0.53427 0.0
H1348 H 0.32923 0.82746 0.62525 0.0
H1349 H 0.3406 0.85675 0.61607 0.0
H1350 H 0.28792 0.87808 0.62031 0.0
H1351 H 0.27658 0.84895 0.62962 0.0
H1352 H 0.3305 0.87485 0.58156 0.0
H1353 H 0.31679 0.91538 0.65038 0.0
H1354 H 0.31718 0.89154 0.65109 0.0
H1355 H 0.29775 0.90306 0.64247 0.0
C1356 C 0.32019 0.83852 0.62469 0.0
C1357 C 0.30205 0.836 0.62836 0.0
C1358 C 0.32668 0.8552 0.61943 0.0
C1359 C 0.31517 0.86966 0.61788 0.0
C1360 C 0.29712 0.86723 0.62198 0.0
H1361 H 0.296 0.96466 0.56053 0.0
H1362 H 0.2987 0.93864 0.58217 0.0
C1363 C 0.29063 0.85057 0.62717 0.0
C1364 C 0.32145 0.8868 0.6097 0.0
H1365 H 0.31897 0.9312 0.61806 0.0
C1366 C 0.32843 0.88718 0.58971 0.0
C1367 C 0.31883 0.90283 0.62042 0.0
C1368 C 0.3124 0.90319 0.64237 0.0
C1369 C 0.33148 0.90322 0.57951 0.0
C1370 C 0.32767 0.91926 0.58975 0.0
C1371 C 0.32183 0.91888 0.61023 0.0
C1372 C 0.32698 0.93622 0.57847 0.0
C1373 C 0.33749 0.90286 0.55738 0.0
C1374 C 0.3421 0.94379 0.56961 0.0
C1375 C 0.34061 0.95877 0.55707 0.0
C1376 C 0.32395 0.96631 0.55325 0.0
C1377 C 0.30901 0.9591 0.56296 0.0
C1378 C 0.31053 0.94426 0.57545 0.0
H1379 H 0.33768 0.88927 0.55094 0.0
H1380 H 0.32871 0.91116 0.54773 0.0
H1381 H 0.35104 0.90836 0.55631 0.0
H1382 H 0.35496 0.93789 0.57199 0.0
H1383 H 0.35236 0.96408 0.54988 0.0
H1384 H 0.13218 0.31197 0.68144 0.0
H1385 H 0.11565 0.31179 0.64908 0.0
H1386 H 0.09905 0.25828 0.66076 0.0
H1387 H 0.11559 0.25836 0.69321 0.0
H1388 H 0.11113 0.2665 0.61817 0.0
H1389 H 0.06029 0.31244 0.64895 0.0
H1390 H 0.08282 0.31945 0.65197 0.0
H1391 H 0.07511 0.30022 0.66538 0.0
C1392 C 0.12522 0.30008 0.67695 0.0
C1393 C 0.12536 0.2851 0.68968 0.0
C1394 C 0.11573 0.30003 0.65855 0.0
C1395 C 0.10608 0.28506 0.65266 0.0
C1396 C 0.10648 0.26993 0.66506 0.0
H1397 H 0.03664 0.26294 0.54871 0.0
H1398 H 0.05612 0.26022 0.57857 0.0
C1399 C 0.11594 0.26998 0.68353 0.0
C1400 C 0.09497 0.28552 0.63399 0.0
H1401 H 0.05857 0.3054 0.61361 0.0
C1402 C 0.09959 0.27493 0.61713 0.0
C1403 C 0.07995 0.29653 0.6328 0.0
C1404 C 0.07409 0.30773 0.65077 0.0
C1405 C 0.08977 0.27541 0.5988 0.0
C1406 C 0.07478 0.28651 0.59758 0.0
C1407 C 0.0701 0.29695 0.61457 0.0
C1408 C 0.06378 0.28776 0.57879 0.0
C1409 C 0.09581 0.26443 0.58076 0.0
C1410 C 0.06142 0.30417 0.5692 0.0
C1411 C 0.05018 0.3058 0.55232 0.0
C1412 C 0.04101 0.29104 0.54469 0.0
C1413 C 0.04357 0.27454 0.55415 0.0
C1414 C 0.05479 0.27294 0.57113 0.0
H1415 H 0.10984 0.26036 0.58234 0.0
H1416 H 0.08764 0.2523 0.57985 0.0
H1417 H 0.09426 0.27179 0.56611 0.0
H1418 H 0.06819 0.31578 0.57492 0.0
H1419 H 0.04855 0.3187 0.54539 0.0
H1420 H 0.73952 0.17519 0.62292 0.0
H1421 H 0.7306 0.14547 0.61234 0.0
H1422 H 0.67596 0.16145 0.61346 0.0
H1423 H 0.68484 0.19131 0.62383 0.0
H1424 H 0.70695 0.12004 0.6302 0.0
H1425 H 0.68424 0.14448 0.55388 0.0
H1426 H 0.69766 0.15773 0.57082 0.0
H1427 H 0.6746 0.15474 0.57615 0.0
C1428 C 0.72559 0.17227 0.62123 0.0
C1429 C 0.71287 0.1855 0.62432 0.0
C1430 C 0.72052 0.15532 0.6152 0.0
C1431 C 0.70264 0.15134 0.61193 0.0
C1432 C 0.68983 0.16433 0.61568 0.0
H1433 H 0.66705 0.05615 0.54611 0.0
H1434 H 0.66543 0.08268 0.56777 0.0
C1435 C 0.69491 0.18131 0.62173 0.0
C1436 C 0.69771 0.13389 0.60339 0.0
H1437 H 0.68349 0.11391 0.55934 0.0
C1438 C 0.7016 0.11868 0.61481 0.0
C1439 C 0.69064 0.13218 0.58335 0.0
C1440 C 0.68662 0.1481 0.5702 0.0
C1441 C 0.69915 0.10176 0.60645 0.0
C1442 C 0.69296 0.10008 0.58603 0.0
C1443 C 0.68822 0.11526 0.575 0.0
C1444 C 0.69332 0.08299 0.57495 0.0
C1445 C 0.70353 0.08585 0.61941 0.0
C1446 C 0.7095 0.07441 0.57185 0.0
C1447 C 0.71049 0.05941 0.55947 0.0
C1448 C 0.6953 0.05267 0.54983 0.0
C1449 C 0.67897 0.06099 0.55338 0.0
C1450 C 0.67802 0.07612 0.56573 0.0
H1451 H 0.70229 0.08886 0.63608 0.0
H1452 H 0.69479 0.07452 0.61565 0.0
H1453 H 0.71739 0.08186 0.61643 0.0
H1454 H 0.72154 0.07969 0.57842 0.0
H1455 H 0.72327 0.05334 0.55708 0.0
H1456 H 0.85441 0.24643 0.35642 0.0
H1457 H 0.88156 0.24938 0.37662 0.0
H1458 H 0.87433 0.30584 0.3787 0.0
H1459 H 0.84697 0.30291 0.35893 0.0
H1460 H 0.9126 0.26788 0.36931 0.0
H1461 H 0.87866 0.29281 0.43916 0.0
H1462 H 0.86686 0.28312 0.41786 0.0
H1463 H 0.87426 0.30565 0.41656 0.0
C1464 C 0.85874 0.25948 0.36103 0.0
C1465 C 0.84873 0.27446 0.35586 0.0
C1466 C 0.8742 0.26114 0.37257 0.0
C1467 C 0.87984 0.2778 0.37935 0.0
C1468 C 0.87006 0.29283 0.3739 0.0
H1469 H 0.9667 0.31719 0.45152 0.0
H1470 H 0.94192 0.3131 0.42802 0.0
C1471 C 0.85455 0.29117 0.36244 0.0
C1472 C 0.89578 0.2794 0.39241 0.0
H1473 H 0.90999 0.29384 0.43931 0.0
C1474 C 0.91204 0.27347 0.38465 0.0
C1475 C 0.89496 0.28659 0.41248 0.0
C1476 C 0.87773 0.29225 0.42212 0.0
C1477 C 0.9276 0.27494 0.39627 0.0
C1478 C 0.92679 0.28241 0.41616 0.0
C1479 C 0.91053 0.2882 0.42398 0.0
C1480 C 0.94266 0.28458 0.42914 0.0
C1481 C 0.94486 0.26888 0.3871 0.0
C1482 C 0.95131 0.26985 0.43746 0.0
C1483 C 0.96548 0.27212 0.45102 0.0
C1484 C 0.97119 0.28917 0.45644 0.0
C1485 C 0.96268 0.30386 0.44768 0.0
C1486 C 0.9485 0.30158 0.43425 0.0
H1487 H 0.94376 0.26636 0.37032 0.0
H1488 H 0.95534 0.27888 0.38976 0.0
H1489 H 0.94904 0.25645 0.3947 0.0
H1490 H 0.94682 0.25662 0.43388 0.0
H1491 H 0.97173 0.26054 0.45752 0.0
H1492 H 0.65986 0.85424 0.36871 0.0
H1493 H 0.6592 0.87839 0.39389 0.0
H1494 H 0.71001 0.89628 0.37251 0.0
H1495 H 0.71067 0.87235 0.34711 0.0
H1496 H 0.70304 0.88981 0.41971 0.0
H1497 H 0.65624 0.93424 0.37855 0.0
H1498 H 0.65151 0.91093 0.37973 0.0
H1499 H 0.66996 0.91857 0.36497 0.0
C1500 C 0.67093 0.86326 0.36951 0.0
C1501 C 0.68552 0.86114 0.35634 0.0
C1502 C 0.67048 0.87707 0.38377 0.0
C1503 C 0.68457 0.88902 0.38499 0.0
C1504 C 0.69907 0.88709 0.37178 0.0
H1505 H 0.7197 0.97401 0.46112 0.0
H1506 H 0.7159 0.94939 0.43747 0.0
C1507 C 0.69947 0.87338 0.35739 0.0
C1508 C 0.6844 0.90334 0.4004 0.0
H1509 H 0.66734 0.94416 0.41036 0.0
C1510 C 0.6952 0.90167 0.41776 0.0
C1511 C 0.67398 0.91863 0.39781 0.0
C1512 C 0.66226 0.92088 0.37926 0.0
C1513 C 0.69603 0.91509 0.4326 0.0
C1514 C 0.68613 0.93074 0.42966 0.0
C1515 C 0.67495 0.93218 0.41253 0.0
C1516 C 0.68802 0.94609 0.44361 0.0
C1517 C 0.70744 0.91232 0.45133 0.0
C1518 C 0.67343 0.95287 0.45436 0.0
C1519 C 0.67552 0.96715 0.46785 0.0
C1520 C 0.69223 0.97487 0.47072 0.0
C1521 C 0.70668 0.96827 0.45949 0.0
C1522 C 0.70456 0.95411 0.44602 0.0
H1523 H 0.7096 0.89806 0.45443 0.0
H1524 H 0.72055 0.91847 0.44868 0.0
H1525 H 0.70146 0.91847 0.46518 0.0
H1526 H 0.66051 0.94694 0.45255 0.0
H1527 H 0.66412 0.97197 0.4762 0.0
H1528 H 0.1632 0.76699 0.35892 0.0
H1529 H 0.13471 0.76222 0.37591 0.0
H1530 H 0.14397 0.70604 0.37565 0.0
H1531 H 0.1726 0.71076 0.35898 0.0
H1532 H 0.10485 0.74204 0.36441 0.0
H1533 H 0.13555 0.71748 0.4365 0.0
H1534 H 0.14806 0.72857 0.41674 0.0
H1535 H 0.14206 0.70576 0.41371 0.0
C1536 C 0.15904 0.75362 0.36228 0.0
C1537 C 0.17001 0.73924 0.35745 0.0
C1538 C 0.1428 0.75092 0.37198 0.0
C1539 C 0.13734 0.7338 0.37722 0.0
C1540 C 0.14806 0.71937 0.37198 0.0
H1541 H 0.04836 0.69385 0.44724 0.0
H1542 H 0.07376 0.69685 0.42432 0.0
C1543 C 0.16432 0.72206 0.36232 0.0
C1544 C 0.12071 0.73114 0.38876 0.0
H1545 H 0.10443 0.71627 0.43452 0.0
C1546 C 0.10472 0.73641 0.37973 0.0
C1547 C 0.12064 0.72384 0.40878 0.0
C1548 C 0.13749 0.71872 0.41963 0.0
C1549 C 0.0886 0.73439 0.39015 0.0
C1550 C 0.08856 0.72712 0.41016 0.0
C1551 C 0.10453 0.72176 0.41912 0.0
C1552 C 0.0722 0.72531 0.42241 0.0
C1553 C 0.07173 0.73982 0.3796 0.0
C1554 C 0.06287 0.74034 0.42883 0.0
C1555 C 0.04836 0.73869 0.44199 0.0
C1556 C 0.04298 0.72197 0.449 0.0
C1557 C 0.05213 0.70692 0.44212 0.0
C1558 C 0.06665 0.70859 0.42903 0.0
H1559 H 0.07349 0.74102 0.3627 0.0
H1560 H 0.06101 0.73018 0.38273 0.0
H1561 H 0.06748 0.75286 0.38562 0.0
H1562 H 0.06714 0.75339 0.42418 0.0
H1563 H 0.04164 0.75055 0.44703 0.0
H1564 H 0.31167 0.12807 0.32605 0.0
H1565 H 0.32264 0.10648 0.35099 0.0
H1566 H 0.30227 0.13833 0.40062 0.0
H1567 H 0.29172 0.16021 0.37578 0.0
H1568 H 0.33513 0.12288 0.40965 0.0
H1569 H 0.28713 0.07392 0.37892 0.0
H1570 H 0.30256 0.08247 0.36049 0.0
H1571 H 0.28647 0.09692 0.37188 0.0
C1572 C 0.30984 0.13062 0.34231 0.0
C1573 C 0.30084 0.14581 0.349 0.0
C1574 C 0.31602 0.11825 0.35651 0.0
C1575 C 0.31303 0.12069 0.37762 0.0
C1576 C 0.30473 0.13621 0.3844 0.0
H1577 H 0.29366 0.04912 0.47373 0.0
H1578 H 0.29477 0.07151 0.44701 0.0
C1579 C 0.29867 0.14865 0.37022 0.0
C1580 C 0.31711 0.10652 0.39255 0.0
H1581 H 0.30469 0.06497 0.40668 0.0
C1582 C 0.32864 0.11014 0.40894 0.0
C1583 C 0.30849 0.08996 0.39161 0.0
C1584 C 0.29536 0.08556 0.3749 0.0
C1585 C 0.33139 0.09778 0.42475 0.0
C1586 C 0.32252 0.08138 0.42394 0.0
C1587 C 0.31151 0.07756 0.40718 0.0
C1588 C 0.32276 0.0687 0.44126 0.0
C1589 C 0.34309 0.10265 0.44264 0.0
C1590 C 0.33825 0.05983 0.44715 0.0
C1591 C 0.33768 0.04698 0.46266 0.0
C1592 C 0.32158 0.04272 0.47225 0.0
C1593 C 0.30625 0.05194 0.46654 0.0
C1594 C 0.30685 0.06478 0.45127 0.0
H1595 H 0.34668 0.11687 0.44254 0.0
H1596 H 0.33644 0.09955 0.45743 0.0
H1597 H 0.35543 0.09479 0.44188 0.0
H1598 H 0.35062 0.0625 0.43941 0.0
H1599 H 0.34969 0.04003 0.46669 0.0
H1600 H 0.68017 0.82367 0.88442 0.0
H1601 H 0.6511 0.82926 0.8997 0.0
H1602 H 0.63104 0.78175 0.87159 0.0
H1603 H 0.6601 0.77601 0.8564 0.0
H1604 H 0.61578 0.83205 0.881 0.0
H1605 H 0.62343 0.77545 0.93464 0.0
H1606 H 0.64182 0.78489 0.92082 0.0
H1607 H 0.62669 0.77037 0.90791 0.0
C1608 C 0.66947 0.81458 0.88123 0.0
C1609 C 0.67233 0.79952 0.86902 0.0
C1610 C 0.6529 0.81779 0.88995 0.0
C1611 C 0.63901 0.80587 0.88684 0.0
C1612 C 0.64167 0.79105 0.87426 0.0
H1613 H 0.53678 0.7903 0.94151 0.0
H1614 H 0.56303 0.78954 0.9198 0.0
C1615 C 0.65822 0.78783 0.86552 0.0
C1616 C 0.62203 0.80836 0.89773 0.0
H1617 H 0.59595 0.79004 0.93474 0.0
C1618 C 0.61139 0.82291 0.89277 0.0
C1619 C 0.61647 0.79645 0.91313 0.0
C1620 C 0.62773 0.78098 0.91963 0.0
C1621 C 0.59501 0.8256 0.90249 0.0
C1622 C 0.5894 0.81359 0.91782 0.0
C1623 C 0.60021 0.79918 0.92288 0.0
C1624 C 0.57234 0.81542 0.92884 0.0
C1625 C 0.58372 0.841 0.89591 0.0
C1626 C 0.56861 0.83041 0.94083 0.0
C1627 C 0.55343 0.83096 0.95314 0.0
C1628 C 0.54196 0.81639 0.9539 0.0
C1629 C 0.54544 0.80168 0.94137 0.0
C1630 C 0.56044 0.80123 0.92893 0.0
H1631 H 0.58752 0.84589 0.88043 0.0
H1632 H 0.56953 0.83734 0.89568 0.0
H1633 H 0.58548 0.852 0.907 0.0
H1634 H 0.57779 0.84136 0.94137 0.0
H1635 H 0.55115 0.84241 0.96276 0.0
H1636 H 0.24987 0.68306 0.85549 0.0
H1637 H 0.24097 0.65996 0.88936 0.0
H1638 H 0.26833 0.60816 0.85347 0.0
H1639 H 0.27763 0.62976 0.81851 0.0
H1640 H 0.2352 0.60162 0.86998 0.0
H1641 H 0.26981 0.63599 0.93341 0.0
H1642 H 0.25362 0.64966 0.92119 0.0
H1643 H 0.27258 0.64223 0.90687 0.0
C1644 C 0.25403 0.66939 0.85557 0.0
C1645 C 0.26194 0.65804 0.83184 0.0
C1646 C 0.24795 0.65474 0.8762 0.0
C1647 C 0.25291 0.63143 0.87468 0.0
C1648 C 0.26508 0.62207 0.85344 0.0
H1649 H 0.25805 0.55396 0.97003 0.0
H1650 H 0.26311 0.57663 0.94398 0.0
C1651 C 0.27172 0.63555 0.83208 0.0
C1652 C 0.24757 0.61945 0.89136 0.0
H1653 H 0.25118 0.61206 0.94294 0.0
C1654 C 0.2386 0.60393 0.88596 0.0
C1655 C 0.25222 0.62246 0.91211 0.0
C1656 C 0.26274 0.6384 0.91871 0.0
C1657 C 0.23419 0.59123 0.90078 0.0
C1658 C 0.23874 0.59428 0.92156 0.0
C1659 C 0.24758 0.60987 0.92699 0.0
C1660 C 0.2354 0.58093 0.93769 0.0
C1661 C 0.22524 0.57441 0.89399 0.0
C1662 C 0.21812 0.576 0.94291 0.0
C1663 C 0.21517 0.563 0.95776 0.0
C1664 C 0.22946 0.55477 0.96769 0.0
C1665 C 0.24675 0.55997 0.96263 0.0
C1666 C 0.24967 0.57296 0.94779 0.0
H1667 H 0.22596 0.57254 0.87707 0.0
H1668 H 0.2313 0.56277 0.90159 0.0
H1669 H 0.21111 0.57489 0.89845 0.0
H1670 H 0.20693 0.58221 0.93549 0.0
H1671 H 0.20169 0.55938 0.96139 0.0
H1672 H 0.37027 0.22029 0.8293 0.0
H1673 H 0.39352 0.20493 0.84814 0.0
H1674 H 0.37151 0.2235 0.90542 0.0
H1675 H 0.34767 0.23801 0.88671 0.0
H1676 H 0.41789 0.21915 0.86915 0.0
H1677 H 0.38311 0.1747 0.92233 0.0
H1678 H 0.37201 0.18506 0.90095 0.0
H1679 H 0.37433 0.19651 0.92516 0.0
C1680 C 0.37003 0.22062 0.84594 0.0
C1681 C 0.35689 0.23009 0.85658 0.0
C1682 C 0.3834 0.21188 0.8567 0.0
C1683 C 0.38412 0.21268 0.87827 0.0
C1684 C 0.37094 0.22205 0.88888 0.0
H1685 H 0.46929 0.22897 0.95573 0.0
H1686 H 0.44574 0.22799 0.93046 0.0
C1687 C 0.3574 0.23051 0.87816 0.0
C1688 C 0.39976 0.20586 0.88954 0.0
H1689 H 0.41193 0.18555 0.93422 0.0
C1690 C 0.41657 0.21141 0.88309 0.0
C1691 C 0.39826 0.19539 0.9075 0.0
C1692 C 0.38094 0.18742 0.9142 0.0
C1693 C 0.43162 0.20808 0.89498 0.0
C1694 C 0.42976 0.19944 0.91412 0.0
C1695 C 0.41327 0.19253 0.91974 0.0
C1696 C 0.44424 0.19947 0.92943 0.0
C1697 C 0.44931 0.21436 0.8872 0.0
C1698 C 0.45086 0.18373 0.9378 0.0
C1699 C 0.46438 0.18423 0.95253 0.0
C1700 C 0.47132 0.2005 0.95917 0.0
C1701 C 0.46441 0.21619 0.95088 0.0
C1702 C 0.45099 0.21566 0.93629 0.0
H1703 H 0.44962 0.21463 0.87012 0.0
H1704 H 0.45168 0.22802 0.89273 0.0
H1705 H 0.4602 0.2058 0.89277 0.0
H1706 H 0.44567 0.1711 0.93286 0.0
H1707 H 0.46936 0.17192 0.95869 0.0
H1708 H 0.82819 0.35049 0.86377 0.0
H1709 H 0.82651 0.37683 0.88569 0.0
H1710 H 0.76981 0.372 0.88784 0.0
H1711 H 0.77141 0.34565 0.86608 0.0
H1712 H 0.80744 0.40891 0.87797 0.0
H1713 H 0.7846 0.37492 0.94887 0.0
H1714 H 0.79436 0.36322 0.92749 0.0
H1715 H 0.77179 0.37042 0.92621 0.0
C1716 C 0.81539 0.35508 0.86891 0.0
C1717 C 0.79992 0.34612 0.86311 0.0
C1718 C 0.81444 0.37009 0.8814 0.0
C1719 C 0.79805 0.37622 0.88851 0.0
C1720 C 0.7826 0.36732 0.88274 0.0
H1721 H 0.76787 0.46353 0.96876 0.0
H1722 H 0.76746 0.43861 0.94468 0.0
C1723 C 0.78352 0.35236 0.87024 0.0
C1724 C 0.79708 0.39209 0.90175 0.0
H1725 H 0.78524 0.40614 0.94969 0.0
C1726 C 0.80262 0.40833 0.89366 0.0
C1727 C 0.7907 0.39125 0.92216 0.0
C1728 C 0.78514 0.37401 0.93182 0.0
C1729 C 0.80184 0.42384 0.90544 0.0
C1730 C 0.79562 0.42298 0.92593 0.0
C1731 C 0.78992 0.40676 0.93394 0.0
C1732 C 0.7957 0.43858 0.93965 0.0
C1733 C 0.80747 0.44106 0.89579 0.0
C1734 C 0.81171 0.44672 0.94484 0.0
C1735 C 0.812 0.46089 0.95854 0.0
C1736 C 0.79626 0.46717 0.96745 0.0
C1737 C 0.7802 0.45906 0.96212 0.0
C1738 C 0.77994 0.44482 0.9484 0.0
H1739 H 0.80711 0.44038 0.87873 0.0
H1740 H 0.79889 0.4521 0.90095 0.0
H1741 H 0.82123 0.44407 0.90048 0.0
H1742 H 0.82405 0.44188 0.93858 0.0
H1743 H 0.82461 0.46677 0.96234 0.0
H1744 H 0.64538 0.17536 0.17448 0.0
H1745 H 0.61949 0.17502 0.15193 0.0
H1746 H 0.65141 0.19441 0.10184 0.0
H1747 H 0.67742 0.19427 0.12417 0.0
H1748 H 0.60341 0.20167 0.1321 0.0
H1749 H 0.6273 0.15261 0.07544 0.0
H1750 H 0.63817 0.15627 0.09977 0.0
H1751 H 0.64226 0.17079 0.07838 0.0
C1752 C 0.64682 0.17962 0.15867 0.0
C1753 C 0.66332 0.18517 0.15119 0.0
C1754 C 0.63206 0.17936 0.1458 0.0
C1755 C 0.63355 0.18446 0.12513 0.0
C1756 C 0.65001 0.19007 0.11762 0.0
H1757 H 0.55362 0.22274 0.04402 0.0
H1758 H 0.57721 0.21804 0.06879 0.0
C1759 C 0.66481 0.19022 0.13045 0.0
C1760 C 0.61777 0.1845 0.11164 0.0
H1761 H 0.60211 0.16974 0.06548 0.0
C1762 C 0.60307 0.19455 0.11763 0.0
C1763 C 0.61716 0.17492 0.09295 0.0
C1764 C 0.632 0.16289 0.08635 0.0
C1765 C 0.58807 0.19585 0.10507 0.0
C1766 C 0.58794 0.18719 0.08579 0.0
C1767 C 0.60232 0.17655 0.08016 0.0
C1768 C 0.57343 0.18978 0.07081 0.0
C1769 C 0.57252 0.2065 0.1126 0.0
C1770 C 0.56377 0.17536 0.06321 0.0
C1771 C 0.55028 0.17797 0.04879 0.0
C1772 C 0.54632 0.19506 0.0417 0.0
C1773 C 0.55618 0.20941 0.04925 0.0
C1774 C 0.56963 0.20678 0.06355 0.0
H1775 H 0.57234 0.20739 0.12966 0.0
H1776 H 0.57349 0.22013 0.10646 0.0
H1777 H 0.55984 0.20069 0.10735 0.0
H1778 H 0.56661 0.1621 0.06851 0.0
H1779 H 0.54298 0.16664 0.04323 0.0
H1780 H 0.75214 0.6438 0.17631 0.0
H1781 H 0.75387 0.61708 0.15503 0.0
H1782 H 0.79086 0.64308 0.11474 0.0
H1783 H 0.78917 0.66978 0.13588 0.0
H1784 H 0.76181 0.62599 0.09469 0.0
H1785 H 0.79628 0.58217 0.15041 0.0
H1786 H 0.77685 0.59335 0.15959 0.0
H1787 H 0.79613 0.60591 0.153 0.0
C1788 C 0.76086 0.64367 0.16311 0.0
C1789 C 0.77089 0.6587 0.15803 0.0
C1790 C 0.76182 0.62845 0.15098 0.0
C1791 C 0.77268 0.62807 0.13351 0.0
C1792 C 0.78251 0.64309 0.12827 0.0
H1793 H 0.8149 0.54725 0.05688 0.0
H1794 H 0.80857 0.57069 0.08153 0.0
C1795 C 0.78161 0.65828 0.1404 0.0
C1796 C 0.7735 0.61224 0.12022 0.0
H1797 H 0.78845 0.56976 0.11843 0.0
C1798 C 0.76751 0.61363 0.09988 0.0
C1799 C 0.78102 0.59622 0.1271 0.0
C1800 C 0.78808 0.59423 0.14866 0.0
C1801 C 0.76912 0.5995 0.08606 0.0
C1802 C 0.77675 0.58351 0.09288 0.0
C1803 C 0.78249 0.58201 0.11333 0.0
C1804 C 0.7802 0.5687 0.07858 0.0
C1805 C 0.76326 0.60199 0.06407 0.0
C1806 C 0.7663 0.55965 0.06896 0.0
C1807 C 0.76986 0.54622 0.05476 0.0
C1808 C 0.7874 0.54162 0.05003 0.0
C1809 C 0.80125 0.55049 0.06007 0.0
C1810 C 0.79767 0.56387 0.07423 0.0
H1811 H 0.76075 0.61609 0.06039 0.0
H1812 H 0.77337 0.59682 0.05326 0.0
H1813 H 0.75085 0.59453 0.06147 0.0
H1814 H 0.75272 0.56304 0.07236 0.0
H1815 H 0.75891 0.53957 0.04738 0.0
H1816 H 0.37005 0.84408 0.17155 0.0
H1817 H 0.39574 0.8445 0.14864 0.0
H1818 H 0.36345 0.82484 0.09902 0.0
H1819 H 0.33766 0.82488 0.12171 0.0
H1820 H 0.41177 0.81785 0.12855 0.0
H1821 H 0.38714 0.86674 0.07228 0.0
H1822 H 0.37656 0.86311 0.09679 0.0
H1823 H 0.37219 0.84858 0.07547 0.0
C1824 C 0.36849 0.83979 0.15577 0.0
C1825 C 0.35194 0.83413 0.14851 0.0
C1826 C 0.38313 0.84009 0.14269 0.0
C1827 C 0.38147 0.83494 0.12205 0.0
C1828 C 0.36497 0.82923 0.11477 0.0
H1829 H 0.45979 0.79579 0.0395 0.0
H1830 H 0.43675 0.8009 0.0649 0.0
C1831 C 0.3503 0.82902 0.12781 0.0
C1832 C 0.39712 0.83493 0.10831 0.0
H1833 H 0.41206 0.84939 0.06171 0.0
C1834 C 0.4119 0.82489 0.11403 0.0
C1835 C 0.39746 0.84443 0.08958 0.0
C1836 C 0.38256 0.85648 0.08326 0.0
C1837 C 0.42668 0.82348 0.10113 0.0
C1838 C 0.4265 0.83199 0.08177 0.0
C1839 C 0.41208 0.84267 0.07644 0.0
C1840 C 0.44069 0.82916 0.0664 0.0
C1841 C 0.44233 0.81283 0.10836 0.0
C1842 C 0.45024 0.84345 0.05827 0.0
C1843 C 0.4634 0.8406 0.04348 0.0
C1844 C 0.46714 0.8234 0.03654 0.0
C1845 C 0.45739 0.80919 0.0446 0.0
C1846 C 0.44426 0.81206 0.05926 0.0
H1847 H 0.44285 0.81215 0.12542 0.0
H1848 H 0.44115 0.79913 0.10246 0.0
H1849 H 0.45493 0.8185 0.10266 0.0
H1850 H 0.44757 0.85678 0.06345 0.0
H1851 H 0.47063 0.85182 0.03754 0.0
H1852 H 0.26782 0.37522 0.16837 0.0
H1853 H 0.26245 0.40207 0.14828 0.0
H1854 H 0.22799 0.37293 0.10785 0.0
H1855 H 0.23331 0.34606 0.12784 0.0
H1856 H 0.25417 0.39354 0.08778 0.0
H1857 H 0.21665 0.43226 0.14584 0.0
H1858 H 0.23725 0.42315 0.15457 0.0
H1859 H 0.21949 0.40863 0.14763 0.0
C1860 C 0.25886 0.37464 0.1554 0.0
C1861 C 0.25061 0.35866 0.14995 0.0
C1862 C 0.25581 0.38995 0.14398 0.0
C1863 C 0.24459 0.3895 0.12683 0.0
C1864 C 0.23654 0.37355 0.12118 0.0
H1865 H 0.20106 0.47459 0.05422 0.0
H1866 H 0.20589 0.4494 0.07704 0.0
C1867 C 0.23953 0.35826 0.13262 0.0
C1868 C 0.24184 0.40547 0.11419 0.0
H1869 H 0.22468 0.44713 0.11517 0.0
C1870 C 0.24772 0.40526 0.09373 0.0
C1871 C 0.23329 0.42064 0.12202 0.0
C1872 C 0.22615 0.42124 0.14366 0.0
C1873 C 0.2454 0.41993 0.08089 0.0
C1874 C 0.23718 0.43525 0.08884 0.0
C1875 C 0.23112 0.4354 0.10923 0.0
C1876 C 0.23438 0.45108 0.07598 0.0
C1877 C 0.25146 0.41882 0.05881 0.0
C1878 C 0.24882 0.46055 0.06822 0.0
C1879 C 0.24614 0.47494 0.05516 0.0
C1880 C 0.22893 0.48013 0.04972 0.0
C1881 C 0.21448 0.47091 0.05804 0.0
C1882 C 0.2172 0.45653 0.0711 0.0
H1883 H 0.25381 0.40496 0.05392 0.0
H1884 H 0.24158 0.42484 0.04834 0.0
H1885 H 0.26403 0.42619 0.05709 0.0
H1886 H 0.26218 0.4567 0.0721 0.0
H1887 H 0.25755 0.48182 0.04913 0.0
H1888 H 0.40263 0.26707 0.19445 0.0
H1889 H 0.41689 0.26919 0.16068 0.0
H1890 H 0.40318 0.21496 0.1482 0.0
H1891 H 0.38865 0.2129 0.1817 0.0
H1892 H 0.44502 0.2497 0.14823 0.0
H1893 H 0.38928 0.23867 0.09475 0.0
H1894 H 0.38604 0.2442 0.1215 0.0
H1895 H 0.39081 0.22181 0.11402 0.0
C1896 C 0.4023 0.25576 0.18426 0.0
C1897 C 0.39423 0.23992 0.19051 0.0
C1898 C 0.41049 0.25696 0.16504 0.0
C1899 C 0.41079 0.24234 0.15175 0.0
C1900 C 0.40265 0.22656 0.15792 0.0
H1901 H 0.46791 0.20504 0.0477 0.0
H1902 H 0.44826 0.21033 0.07684 0.0
C1903 C 0.39444 0.22537 0.1771 0.0
C1904 C 0.42101 0.24299 0.13232 0.0
H1905 H 0.41841 0.23443 0.08084 0.0
C1906 C 0.43915 0.24666 0.13344 0.0
C1907 C 0.41332 0.239 0.11304 0.0
C1908 C 0.39376 0.23587 0.11069 0.0
C1909 C 0.44997 0.24566 0.11596 0.0
C1910 C 0.44238 0.24108 0.09683 0.0
C1911 C 0.42416 0.23791 0.09556 0.0
C1912 C 0.45338 0.23839 0.07829 0.0
C1913 C 0.46956 0.24874 0.11823 0.0
C1914 C 0.46251 0.25251 0.06923 0.0
C1915 C 0.47379 0.24954 0.05254 0.0
C1916 C 0.47611 0.23239 0.04466 0.0
C1917 C 0.46652 0.21839 0.05345 0.0
C1918 C 0.45523 0.22138 0.07006 0.0
H1919 H 0.47372 0.24914 0.1346 0.0
H1920 H 0.47713 0.23822 0.11024 0.0
H1921 H 0.47309 0.26155 0.11105 0.0
H1922 H 0.46107 0.26577 0.07525 0.0
H1923 H 0.48091 0.26062 0.04606 0.0
H1924 H 0.77311 0.35671 0.13218 0.0
H1925 H 0.78576 0.3847 0.12051 0.0
H1926 H 0.83655 0.3597 0.11329 0.0
H1927 H 0.82386 0.33155 0.1247 0.0
H1928 H 0.815 0.40534 0.13498 0.0
H1929 H 0.82525 0.3793 0.05568 0.0
H1930 H 0.81167 0.36801 0.0743 0.0
H1931 H 0.83528 0.36714 0.07633 0.0
C1932 C 0.78702 0.35725 0.12839 0.0
C1933 C 0.79753 0.34201 0.12948 0.0
C1934 C 0.79424 0.37323 0.12175 0.0
C1935 C 0.81204 0.37421 0.11589 0.0
C1936 C 0.82273 0.35916 0.11755 0.0
H1937 H 0.85167 0.46443 0.04396 0.0
H1938 H 0.85353 0.43836 0.06638 0.0
C1939 C 0.81551 0.34315 0.12418 0.0
C1940 C 0.81892 0.39079 0.10688 0.0
H1941 H 0.83094 0.4093 0.06113 0.0
C1942 C 0.81876 0.40618 0.11891 0.0
C1943 C 0.82395 0.39181 0.08595 0.0
C1944 C 0.82398 0.37575 0.07219 0.0
C1945 C 0.82274 0.42271 0.11032 0.0
C1946 C 0.82671 0.42385 0.08912 0.0
C1947 C 0.82794 0.40835 0.0774 0.0
C1948 C 0.82692 0.44097 0.07813 0.0
C1949 C 0.82217 0.43886 0.12387 0.0
C1950 C 0.81144 0.45109 0.07749 0.0
C1951 C 0.8103 0.46576 0.06465 0.0
C1952 C 0.82463 0.47065 0.05217 0.0
C1953 C 0.84046 0.46101 0.0535 0.0
C1954 C 0.84153 0.44614 0.06626 0.0
H1955 H 0.825 0.43544 0.14015 0.0
H1956 H 0.8318 0.44898 0.11868 0.0
H1957 H 0.80874 0.4447 0.12325 0.0
H1958 H 0.79988 0.44714 0.08617 0.0
H1959 H 0.79794 0.47294 0.06401 0.0
H1960 H 0.62043 0.75386 0.18314 0.0
H1961 H 0.60191 0.75251 0.15223 0.0
H1962 H 0.6145 0.8068 0.13878 0.0
H1963 H 0.63303 0.80823 0.16957 0.0
H1964 H 0.57721 0.79758 0.14022 0.0
H1965 H 0.61655 0.75296 0.08982 0.0
H1966 H 0.61295 0.74599 0.11595 0.0
H1967 H 0.62629 0.76506 0.11092 0.0
C1968 C 0.61953 0.76537 0.17333 0.0
C1969 C 0.62846 0.78105 0.17849 0.0
C1970 C 0.60898 0.76458 0.15572 0.0
C1971 C 0.60709 0.77948 0.14312 0.0
C1972 C 0.61598 0.79512 0.14822 0.0
H1973 H 0.54583 0.81437 0.04031 0.0
H1974 H 0.56578 0.81062 0.06936 0.0
C1975 C 0.62657 0.7959 0.16574 0.0
C1976 C 0.59486 0.77927 0.12543 0.0
H1977 H 0.58897 0.76259 0.07713 0.0
C1978 C 0.57975 0.78991 0.12643 0.0
C1979 C 0.59817 0.76909 0.10762 0.0
C1980 C 0.61441 0.75768 0.10581 0.0
C1981 C 0.56787 0.79079 0.10996 0.0
C1982 C 0.57144 0.78106 0.09185 0.0
C1983 C 0.58634 0.77006 0.09103 0.0
C1984 C 0.56019 0.78282 0.07337 0.0
C1985 C 0.55154 0.80207 0.11215 0.0
C1986 C 0.55098 0.76825 0.06548 0.0
C1987 C 0.53959 0.77031 0.0487 0.0
C1988 C 0.53732 0.78698 0.03956 0.0
C1989 C 0.54708 0.80138 0.04712 0.0
C1990 C 0.55846 0.79929 0.06378 0.0
H1991 H 0.54819 0.80443 0.12856 0.0
H1992 H 0.55395 0.81509 0.10485 0.0
H1993 H 0.54003 0.79585 0.10447 0.0
H1994 H 0.55227 0.75539 0.07262 0.0
H1995 H 0.53231 0.75894 0.04318 0.0
H1996 H 0.23847 0.67392 0.12767 0.0
H1997 H 0.22869 0.64463 0.11653 0.0
H1998 H 0.17487 0.6631 0.11426 0.0
H1999 H 0.18464 0.69254 0.12526 0.0
H2000 H 0.20266 0.62032 0.13296 0.0
H2001 H 0.18562 0.64581 0.05508 0.0
H2002 H 0.1989 0.65832 0.07292 0.0
H2003 H 0.1755 0.65658 0.07673 0.0
C2004 C 0.22453 0.67165 0.12512 0.0
C2005 C 0.2123 0.68546 0.12743 0.0
C2006 C 0.21895 0.65494 0.11878 0.0
C2007 C 0.20109 0.65177 0.11441 0.0
C2008 C 0.18874 0.66534 0.11737 0.0
H2009 H 0.16733 0.55869 0.04349 0.0
H2010 H 0.1645 0.58469 0.06584 0.0
C2011 C 0.19431 0.68208 0.12376 0.0
C2012 C 0.1958 0.63458 0.10548 0.0
H2013 H 0.18374 0.61529 0.06017 0.0
C2014 C 0.19827 0.6192 0.11714 0.0
C2015 C 0.18994 0.6332 0.08489 0.0
C2016 C 0.1874 0.6493 0.07154 0.0
C2017 C 0.1957 0.60241 0.10849 0.0
C2018 C 0.19087 0.60101 0.08754 0.0
C2019 C 0.18743 0.6164 0.07623 0.0
C2020 C 0.19161 0.584 0.07631 0.0
C2021 C 0.19854 0.58633 0.12172 0.0
C2022 C 0.20773 0.57497 0.07489 0.0
C2023 C 0.2094 0.56026 0.06214 0.0
C2024 C 0.19499 0.55428 0.05042 0.0
C2025 C 0.17865 0.56294 0.05238 0.0
C2026 C 0.17701 0.57778 0.06511 0.0
H2027 H 0.19597 0.58931 0.13819 0.0
H2028 H 0.18988 0.57525 0.11689 0.0
H2029 H 0.21248 0.582 0.12034 0.0
H2030 H 0.21927 0.57975 0.08299 0.0
H2031 H 0.22217 0.5539 0.06102 0.0
H2032 H 0.34446 0.74906 0.86 0.0
H2033 H 0.37248 0.75188 0.87856 0.0
H2034 H 0.36644 0.8085 0.8794 0.0
H2035 H 0.33826 0.80573 0.86125 0.0
H2036 H 0.40368 0.77 0.8691 0.0
H2037 H 0.37239 0.79613 0.94009 0.0
H2038 H 0.3598 0.78618 0.91958 0.0
H2039 H 0.36736 0.8086 0.91737 0.0
C2040 C 0.34924 0.76211 0.86397 0.0
C2041 C 0.33932 0.77719 0.85897 0.0
C2042 C 0.3652 0.7637 0.87456 0.0
C2043 C 0.37141 0.78037 0.88055 0.0
C2044 C 0.36174 0.79549 0.87519 0.0
H2045 H 0.46099 0.81763 0.95039 0.0
H2046 H 0.43556 0.81461 0.92759 0.0
C2047 C 0.34574 0.79391 0.86466 0.0
C2048 C 0.38779 0.78191 0.89282 0.0
H2049 H 0.40366 0.79627 0.93901 0.0
C2050 C 0.4037 0.77569 0.88441 0.0
C2051 C 0.38772 0.78925 0.91284 0.0
C2052 C 0.37089 0.79527 0.92312 0.0
C2053 C 0.41963 0.77695 0.89536 0.0
C2054 C 0.41954 0.78445 0.91525 0.0
C2055 C 0.40365 0.79061 0.92368 0.0
C2056 C 0.43577 0.78606 0.92773 0.0
C2057 C 0.43648 0.77056 0.88548 0.0
C2058 C 0.44432 0.77097 0.93527 0.0
C2059 C 0.45885 0.77263 0.9484 0.0
C2060 C 0.46502 0.78942 0.9542 0.0
C2061 C 0.4566 0.80449 0.94623 0.0
C2062 C 0.44206 0.80281 0.93321 0.0
H2063 H 0.43492 0.76852 0.86865 0.0
H2064 H 0.44736 0.78011 0.88814 0.0
H2065 H 0.44036 0.75779 0.89249 0.0
H2066 H 0.43947 0.75792 0.93144 0.0
H2067 H 0.46501 0.76077 0.9543 0.0
H2068 H 0.22316 0.37731 0.8431 0.0
H2069 H 0.22207 0.40155 0.86803 0.0
H2070 H 0.17116 0.38345 0.889 0.0
H2071 H 0.17246 0.35889 0.86458 0.0
H2072 H 0.19842 0.42826 0.87091 0.0
H2073 H 0.19708 0.38891 0.94283 0.0
H2074 H 0.20257 0.37936 0.91823 0.0
H2075 H 0.17988 0.38317 0.92509 0.0
C2076 C 0.21193 0.37828 0.85337 0.0
C2077 C 0.19814 0.36587 0.85238 0.0
C2078 C 0.21126 0.3922 0.86748 0.0
C2079 C 0.19671 0.39409 0.8807 0.0
C2080 C 0.18276 0.38195 0.87943 0.0
H2081 H 0.16991 0.4758 0.97093 0.0
H2082 H 0.16803 0.45176 0.94565 0.0
C2083 C 0.18349 0.36796 0.86544 0.0
C2084 C 0.19584 0.40916 0.89526 0.0
H2085 H 0.19192 0.4197 0.94617 0.0
C2086 C 0.19704 0.42638 0.88736 0.0
C2087 C 0.19397 0.40669 0.91674 0.0
C2088 C 0.19347 0.38854 0.92628 0.0
C2089 C 0.19642 0.44117 0.90036 0.0
C2090 C 0.19461 0.43867 0.92177 0.0
C2091 C 0.19316 0.42152 0.92969 0.0
C2092 C 0.19538 0.45365 0.93633 0.0
C2093 C 0.19767 0.4594 0.89115 0.0
C2094 C 0.21138 0.46255 0.93942 0.0
C2095 C 0.21253 0.47611 0.95388 0.0
C2096 C 0.19767 0.4811 0.96551 0.0
C2097 C 0.18156 0.47232 0.96216 0.0
C2098 C 0.18047 0.45859 0.94778 0.0
H2099 H 0.19533 0.45925 0.87428 0.0
H2100 H 0.188 0.46844 0.89849 0.0
H2101 H 0.21108 0.46479 0.89396 0.0
H2102 H 0.22307 0.45878 0.93087 0.0
H2103 H 0.22514 0.4826 0.95604 0.0
H2104 H 0.6652 0.26676 0.85965 0.0
H2105 H 0.63782 0.26362 0.87939 0.0
H2106 H 0.64337 0.20697 0.87769 0.0
H2107 H 0.67093 0.21005 0.85826 0.0
H2108 H 0.60614 0.24582 0.87045 0.0
H2109 H 0.63947 0.21786 0.93917 0.0
H2110 H 0.65147 0.22832 0.91853 0.0
H2111 H 0.64364 0.20604 0.91572 0.0
C2112 C 0.66046 0.25364 0.86332 0.0
C2113 C 0.67007 0.23864 0.85722 0.0
C2114 C 0.64485 0.25187 0.87459 0.0
C2115 C 0.63869 0.23508 0.88018 0.0
C2116 C 0.64804 0.22006 0.87378 0.0
H2117 H 0.55116 0.19881 0.95492 0.0
H2118 H 0.57589 0.2012 0.93095 0.0
C2119 C 0.66368 0.22181 0.86254 0.0
C2120 C 0.62268 0.23337 0.89312 0.0
H2121 H 0.60825 0.2186 0.93977 0.0
C2122 C 0.60658 0.2399 0.88562 0.0
C2123 C 0.62334 0.22568 0.91293 0.0
C2124 C 0.64042 0.21921 0.9222 0.0
C2125 C 0.59103 0.23872 0.89732 0.0
C2126 C 0.59171 0.23101 0.91709 0.0
C2127 C 0.60779 0.22444 0.92455 0.0
C2128 C 0.57595 0.22974 0.93048 0.0
C2129 C 0.57396 0.24546 0.88835 0.0
C2130 C 0.5678 0.24504 0.93813 0.0
C2131 C 0.55368 0.24374 0.9519 0.0
C2132 C 0.5475 0.22711 0.95829 0.0
C2133 C 0.55556 0.21183 0.95032 0.0
C2134 C 0.5697 0.21315 0.93662 0.0
H2135 H 0.57484 0.24715 0.87141 0.0
H2136 H 0.5629 0.23631 0.89187 0.0
H2137 H 0.5708 0.25848 0.89525 0.0
H2138 H 0.57264 0.25797 0.93383 0.0
H2139 H 0.5478 0.25576 0.95778 0.0
H2140 H 0.84711 0.65147 0.84554 0.0
H2141 H 0.84943 0.62925 0.87278 0.0
H2142 H 0.79515 0.61438 0.86261 0.0
H2143 H 0.79292 0.63625 0.83503 0.0
H2144 H 0.83094 0.62562 0.90889 0.0
H2145 H 0.82048 0.56732 0.85882 0.0
H2146 H 0.825 0.58902 0.84864 0.0
H2147 H 0.80305 0.58327 0.85685 0.0
C2148 C 0.83565 0.64353 0.84925 0.0
C2149 C 0.81975 0.64579 0.83843 0.0
C2150 C 0.837 0.63083 0.86475 0.0
C2151 C 0.82254 0.62002 0.86954 0.0
C2152 C 0.80658 0.62237 0.85891 0.0
H2153 H 0.7942 0.54239 0.95849 0.0
H2154 H 0.79639 0.56445 0.93136 0.0
C2155 C 0.80524 0.635 0.84333 0.0
C2156 C 0.82408 0.60641 0.8858 0.0
H2157 H 0.81872 0.56237 0.89504 0.0
C2158 C 0.82846 0.61176 0.90584 0.0
C2159 C 0.82098 0.58832 0.88173 0.0
C2160 C 0.8173 0.58159 0.8603 0.0
C2161 C 0.82911 0.59957 0.9221 0.0
C2162 C 0.82543 0.58161 0.91811 0.0
C2163 C 0.82148 0.57619 0.89801 0.0
C2164 C 0.8245 0.56837 0.93478 0.0
C2165 C 0.83309 0.60606 0.94353 0.0
C2166 C 0.83967 0.56319 0.94562 0.0
C2167 C 0.83849 0.55047 0.9612 0.0
C2168 C 0.82212 0.54279 0.96615 0.0
C2169 C 0.80702 0.54805 0.95516 0.0
C2170 C 0.80822 0.56064 0.9396 0.0
H2171 H 0.83291 0.6207 0.94455 0.0
H2172 H 0.82338 0.60064 0.95466 0.0
H2173 H 0.84639 0.60138 0.94819 0.0
H2174 H 0.8524 0.56887 0.94192 0.0
H2175 H 0.85037 0.54668 0.96934 0.0
loop_
_geom_bond_atom_site_label_1
_geom_bond_atom_site_label_2
_geom_bond_distance
_geom_bond_site_symmetry_2
_ccdc_geom_bond_type
C0 C1 1.560 . S
C0 H61 0.959 . S
C0 H62 0.959 . S
C0 H63 0.960 . S
C1 C0 1.560 . S
C1 O56 1.426 . S
C1 H60 0.980 . S
C2 C3 1.407 . S
C2 C7 1.418 . S
C2 O56 1.334 . S
C3 C2 1.407 . S
C3 C4 1.360 . S
C3 H64 0.929 . S
C4 C3 1.360 . S
C4 C5 1.401 . S
C4 C8 1.527 . S
C5 C4 1.401 . S
C5 C6 1.405 . S
C5 C38 1.587 . S
C6 C5 1.405 . S
C6 C7 1.332 . S
C6 C9 1.496 . S
C7 C2 1.418 . S
C7 C6 1.332 . S
C7 H65 0.929 . S
C8 C4 1.527 . S
C8 H66 0.959 . S
C8 H67 0.961 . S
C8 H68 0.961 . S
C9 C6 1.496 . S
C9 H69 0.960 . S
C9 H70 0.960 . S
C9 H71 0.961 . S
C10 C11 1.517 . S
C10 H73 0.961 . S
C10 H74 0.960 . S
C10 H75 0.959 . S
C11 C10 1.517 . S
C11 O59 1.468 . S
C11 H72 0.980 . S
C12 C13 1.349 . S
C12 C17 1.367 . S
C12 O59 1.408 . S
C13 C12 1.349 . S
C13 C14 1.407 . S
C13 H76 0.930 . S
C14 C13 1.407 . S
C14 C15 1.449 . S
C14 C18 1.535 . S
C15 C14 1.449 . S
C15 C16 1.384 . S
C15 C40 1.553 . S
C16 C15 1.384 . S
C16 C17 1.364 . S
C16 C19 1.450 . S
C17 C12 1.367 . S
C17 C16 1.364 . S
C17 H77 0.931 . S
C18 C14 1.535 . S
C18 H78 0.959 . S
C18 H79 0.961 . S
C18 H80 0.959 . S
C19 C16 1.450 . S
C19 H81 0.960 . S
C19 H82 0.960 . S
C19 H83 0.960 . S
C20 C21 1.309 . S
C20 C25 1.304 . S
C20 O58 1.435 . S
C21 C20 1.309 . S
C21 C22 1.476 . S
C21 H85 0.930 . S
C22 C21 1.476 . S
C22 C23 1.400 . S
C22 C26 1.567 . S
C23 C22 1.400 . S
C23 C24 1.373 . S
C23 C45 1.432 . S
C24 C23 1.373 . S
C24 C25 1.339 . S
C24 C27 1.530 . S
C25 C20 1.304 . S
C25 C24 1.339 . S
C25 H86 0.930 . S
C26 C22 1.567 . S
C26 H87 0.961 . S
C26 H88 0.960 . S
C26 H89 0.958 . S
C27 C24 1.530 . S
C27 H90 0.961 . S
C27 H91 0.960 . S
C27 H92 0.960 . S
C28 C29 1.530 . S
C28 H94 0.961 . S
C28 H95 0.961 . S
C28 H96 0.959 . S
C29 C28 1.530 . S
C29 O57 1.412 . S
C29 H93 0.980 . S
C30 C31 1.288 . S
C30 C35 1.377 . S
C30 O57 1.393 . S
C31 C30 1.288 . S
C31 C32 1.369 . S
C31 H97 0.932 . S
C32 C31 1.369 . S
C32 C33 1.398 . S
C32 C36 1.527 . S
C33 C32 1.398 . S
C33 C34 1.380 . S
C33 C47 1.497 . S
C34 C33 1.380 . S
C34 C35 1.383 . S
C34 C37 1.603 . S
C35 C30 1.377 . S
C35 C34 1.383 . S
C35 H98 0.929 . S
C36 C32 1.527 . S
C36 H99 0.961 . S
C36 H100 0.959 . S
C36 H101 0.959 . S
C37 C34 1.603 . S
C37 H102 0.960 . S
C37 H103 0.962 . S
C37 H104 0.961 . S
C38 C5 1.587 . S
C38 C39 1.360 . S
C38 C51 1.412 . S
C39 C38 1.360 . S
C39 C40 1.365 . S
C39 H105 0.929 . S
C40 C15 1.553 . S
C40 C39 1.365 . S
C40 C41 1.404 . S
C41 C40 1.404 . S
C41 C42 1.395 . S
C41 C52 1.451 . S
C42 C41 1.395 . S
C42 C43 1.322 . S
C42 H106 0.930 . S
C43 C42 1.322 . S
C43 C44 1.459 . S
C43 H107 0.929 . S
C44 C43 1.459 . S
C44 C45 1.445 . S
C44 C53 1.395 . S
C45 C23 1.432 . S
C45 C44 1.445 . S
C45 C46 1.370 . S
C46 C45 1.370 . S
C46 C47 1.438 . S
C46 H108 0.930 . S
C47 C33 1.497 . S
C47 C46 1.438 . S
C47 C48 1.360 . S
C48 C47 1.360 . S
C48 C49 1.401 . S
C48 C53 1.446 . S
C49 C48 1.401 . S
C49 C50 1.347 . S
C49 H109 0.929 . S
C50 C49 1.347 . S
C50 C51 1.455 . S
C50 H110 0.930 . S
C51 C38 1.412 . S
C51 C50 1.455 . S
C51 C52 1.331 . S
C52 C41 1.451 . S
C52 C51 1.331 . S
C52 C53 1.497 . S
C53 C44 1.395 . S
C53 C48 1.446 . S
C53 C52 1.497 . S
C54 C55 1.582 . S
C54 H111 0.962 . S
C54 H112 0.959 . S
C54 H113 0.958 . S
C55 C54 1.582 . S
C55 O58 1.458 . S
C55 H84 0.980 . S
O56 C1 1.426 . S
O56 C2 1.334 . S
O57 C29 1.412 . S
O57 C30 1.393 . S
O58 C20 1.435 . S
O58 C55 1.458 . S
O59 C11 1.468 . S
O59 C12 1.408 . S
H60 C1 0.980 . S
H61 C0 0.959 . S
H62 C0 0.959 . S
H63 C0 0.960 . S
H64 C3 0.929 . S
H65 C7 0.929 . S
H66 C8 0.959 . S
H67 C8 0.961 . S
H68 C8 0.961 . S
H69 C9 0.960 . S
H70 C9 0.960 . S
H71 C9 0.961 . S
H72 C11 0.980 . S
H73 C10 0.961 . S
H74 C10 0.960 . S
H75 C10 0.959 . S
H76 C13 0.930 . S
H77 C17 0.931 . S
H78 C18 0.959 . S
H79 C18 0.961 . S
H80 C18 0.959 . S
H81 C19 0.960 . S
H82 C19 0.960 . S
H83 C19 0.960 . S
H84 C55 0.980 . S
H85 C21 0.930 . S
H86 C25 0.930 . S
H87 C26 0.961 . S
H88 C26 0.960 . S
H89 C26 0.958 . S
H90 C27 0.961 . S
H91 C27 0.960 . S
H92 C27 0.960 . S
H93 C29 0.980 . S
H94 C28 0.961 . S
H95 C28 0.961 . S
H96 C28 0.959 . S
H97 C31 0.932 . S
H98 C35 0.929 . S
H99 C36 0.961 . S
H100 C36 0.959 . S
H101 C36 0.959 . S
H102 C37 0.960 . S
H103 C37 0.962 . S
H104 C37 0.961 . S
H105 C39 0.929 . S
H106 C42 0.930 . S
H107 C43 0.929 . S
H108 C46 0.930 . S
H109 C49 0.929 . S
H110 C50 0.930 . S
H111 C54 0.962 . S
H112 C54 0.959 . S
H113 C54 0.958 . S
C114 C115 1.560 . S
C114 H175 0.959 . S
C114 H176 0.959 . S
C114 H177 0.960 . S
C115 C114 1.560 . S
C115 O170 1.426 . S
C115 H174 0.980 . S
C116 C117 1.407 . S
C116 C121 1.418 . S
C116 O170 1.334 . S
C117 C116 1.407 . S
C117 C118 1.360 . S
C117 H178 0.929 . S
C118 C117 1.360 . S
C118 C119 1.401 . S
C118 C122 1.527 . S
C119 C118 1.401 . S
C119 C120 1.405 . S
C119 C152 1.587 . S
C120 C119 1.405 . S
C120 C121 1.332 . S
C120 C123 1.496 . S
C121 C116 1.418 . S
C121 C120 1.332 . S
C121 H179 0.929 . S
C122 C118 1.527 . S
C122 H180 0.959 . S
C122 H181 0.961 . S
C122 H182 0.961 . S
C123 C120 1.496 . S
C123 H183 0.960 . S
C123 H184 0.960 . S
C123 H185 0.961 . S
C124 C125 1.517 . S
C124 H187 0.961 . S
C124 H188 0.960 . S
C124 H189 0.959 . S
C125 C124 1.517 . S
C125 O173 1.468 . S
C125 H186 0.980 . S
C126 C127 1.349 . S
C126 C131 1.367 . S
C126 O173 1.408 . S
C127 C126 1.349 . S
C127 C128 1.407 . S
C127 H190 0.930 . S
C128 C127 1.407 . S
C128 C129 1.449 . S
C128 C132 1.535 . S
C129 C128 1.449 . S
C129 C130 1.384 . S
C129 C154 1.553 . S
C130 C129 1.384 . S
C130 C131 1.364 . S
C130 C133 1.450 . S
C131 C126 1.367 . S
C131 C130 1.364 . S
C131 H191 0.931 . S
C132 C128 1.535 . S
C132 H192 0.959 . S
C132 H193 0.961 . S
C132 H194 0.959 . S
C133 C130 1.450 . S
C133 H195 0.960 . S
C133 H196 0.960 . S
C133 H197 0.960 . S
C134 C135 1.309 . S
C134 C139 1.304 . S
C134 O172 1.435 . S
C135 C134 1.309 . S
C135 C136 1.476 . S
C135 H199 0.930 . S
C136 C135 1.476 . S
C136 C137 1.400 . S
C136 C140 1.567 . S
C137 C136 1.400 . S
C137 C138 1.373 . S
C137 C159 1.432 . S
C138 C137 1.373 . S
C138 C139 1.339 . S
C138 C141 1.530 . S
C139 C134 1.304 . S
C139 C138 1.339 . S
C139 H200 0.930 . S
C140 C136 1.567 . S
C140 H201 0.961 . S
C140 H202 0.960 . S
C140 H203 0.958 . S
C141 C138 1.530 . S
C141 H204 0.961 . S
C141 H205 0.960 . S
C141 H206 0.960 . S
C142 C143 1.530 . S
C142 H208 0.961 . S
C142 H209 0.961 . S
C142 H210 0.959 . S
C143 C142 1.530 . S
C143 O171 1.412 . S
C143 H207 0.980 . S
C144 C145 1.288 . S
C144 C149 1.377 . S
C144 O171 1.393 . S
C145 C144 1.288 . S
C145 C146 1.369 . S
C145 H211 0.932 . S
C146 C145 1.369 . S
C146 C147 1.398 . S
C146 C150 1.527 . S
C147 C146 1.398 . S
C147 C148 1.380 . S
C147 C161 1.497 . S
C148 C147 1.380 . S
C148 C149 1.383 . S
C148 C151 1.603 . S
C149 C144 1.377 . S
C149 C148 1.383 . S
C149 H212 0.929 . S
C150 C146 1.527 . S
C150 H213 0.961 . S
C150 H214 0.959 . S
C150 H215 0.959 . S
C151 C148 1.603 . S
C151 H216 0.960 . S
C151 H217 0.962 . S
C151 H218 0.961 . S
C152 C119 1.587 . S
C152 C153 1.360 . S
C152 C165 1.412 . S
C153 C152 1.360 . S
C153 C154 1.365 . S
C153 H219 0.929 . S
C154 C129 1.553 . S
C154 C153 1.365 . S
C154 C155 1.404 . S
C155 C154 1.404 . S
C155 C156 1.395 . S
C155 C166 1.451 . S
C156 C155 1.395 . S
C156 C157 1.322 . S
C156 H220 0.930 . S
C157 C156 1.322 . S
C157 C158 1.459 . S
C157 H221 0.929 . S
C158 C157 1.459 . S
C158 C159 1.445 . S
C158 C167 1.395 . S
C159 C137 1.432 . S
C159 C158 1.445 . S
C159 C160 1.370 . S
C160 C159 1.370 . S
C160 C161 1.438 . S
C160 H222 0.930 . S
C161 C147 1.497 . S
C161 C160 1.438 . S
C161 C162 1.360 . S
C162 C161 1.360 . S
C162 C163 1.401 . S
C162 C167 1.446 . S
C163 C162 1.401 . S
C163 C164 1.347 . S
C163 H223 0.929 . S
C164 C163 1.347 . S
C164 C165 1.455 . S
C164 H224 0.930 . S
C165 C152 1.412 . S
C165 C164 1.455 . S
C165 C166 1.331 . S
C166 C155 1.451 . S
C166 C165 1.331 . S
C166 C167 1.497 . S
C167 C158 1.395 . S
C167 C162 1.446 . S
C167 C166 1.497 . S
C168 C169 1.582 . S
C168 H225 0.962 . S
C168 H226 0.959 . S
C168 H227 0.958 . S
C169 C168 1.582 . S
C169 O172 1.458 . S
C169 H198 0.980 . S
O170 C115 1.426 . S
O170 C116 1.334 . S
O171 C143 1.412 . S
O171 C144 1.393 . S
O172 C134 1.435 . S
O172 C169 1.458 . S
O173 C125 1.468 . S
O173 C126 1.408 . S
H174 C115 0.980 . S
H175 C114 0.959 . S
H176 C114 0.959 . S
H177 C114 0.960 . S
H178 C117 0.929 . S
H179 C121 0.929 . S
H180 C122 0.959 . S
H181 C122 0.961 . S
H182 C122 0.961 . S
H183 C123 0.960 . S
H184 C123 0.960 . S
H185 C123 0.961 . S
H186 C125 0.980 . S
H187 C124 0.961 . S
H188 C124 0.960 . S
H189 C124 0.959 . S
H190 C127 0.930 . S
H191 C131 0.931 . S
H192 C132 0.959 . S
H193 C132 0.961 . S
H194 C132 0.959 . S
H195 C133 0.960 . S
H196 C133 0.960 . S
H197 C133 0.960 . S
H198 C169 0.980 . S
H199 C135 0.930 . S
H200 C139 0.930 . S
H201 C140 0.961 . S
H202 C140 0.960 . S
H203 C140 0.958 . S
H204 C141 0.961 . S
H205 C141 0.960 . S
H206 C141 0.960 . S
H207 C143 0.980 . S
H208 C142 0.961 . S
H209 C142 0.961 . S
H210 C142 0.959 . S
H211 C145 0.932 . S
H212 C149 0.929 . S
H213 C150 0.961 . S
H214 C150 0.959 . S
H215 C150 0.959 . S
H216 C151 0.960 . S
H217 C151 0.962 . S
H218 C151 0.961 . S
H219 C153 0.929 . S
H220 C156 0.930 . S
H221 C157 0.929 . S
H222 C160 0.930 . S
H223 C163 0.929 . S
H224 C164 0.930 . S
H225 C168 0.962 . S
H226 C168 0.959 . S
H227 C168 0.958 . S
C228 C229 1.560 . S
C228 H289 0.959 . S
C228 H290 0.959 . S
C228 H291 0.960 . S
C229 C228 1.560 . S
C229 O284 1.426 . S
C229 H288 0.980 . S
C230 C231 1.407 . S
C230 C235 1.418 . S
C230 O284 1.334 . S
C231 C230 1.407 . S
C231 C232 1.360 . S
C231 H292 0.929 . S
C232 C231 1.360 . S
C232 C233 1.401 . S
C232 C236 1.527 . S
C233 C232 1.401 . S
C233 C234 1.405 . S
C233 C266 1.587 . S
C234 C233 1.405 . S
C234 C235 1.332 . S
C234 C237 1.496 . S
C235 C230 1.418 . S
C235 C234 1.332 . S
C235 H293 0.929 . S
C236 C232 1.527 . S
C236 H294 0.959 . S
C236 H295 0.961 . S
C236 H296 0.961 . S
C237 C234 1.496 . S
C237 H297 0.960 . S
C237 H298 0.960 . S
C237 H299 0.961 . S
C238 C239 1.517 . S
C238 H301 0.961 . S
C238 H302 0.960 . S
C238 H303 0.959 . S
C239 C238 1.517 . S
C239 O287 1.468 . S
C239 H300 0.980 . S
C240 C241 1.349 . S
C240 C245 1.367 . S
C240 O287 1.408 . S
C241 C240 1.349 . S
C241 C242 1.407 . S
C241 H304 0.930 . S
C242 C241 1.407 . S
C242 C243 1.449 . S
C242 C246 1.535 . S
C243 C242 1.449 . S
C243 C244 1.384 . S
C243 C268 1.553 . S
C244 C243 1.384 . S
C244 C245 1.364 . S
C244 C247 1.450 . S
C245 C240 1.367 . S
C245 C244 1.364 . S
C245 H305 0.931 . S
C246 C242 1.535 . S
C246 H306 0.959 . S
C246 H307 0.961 . S
C246 H308 0.959 . S
C247 C244 1.450 . S
C247 H309 0.960 . S
C247 H310 0.960 . S
C247 H311 0.960 . S
C248 C249 1.309 . S
C248 C253 1.304 . S
C248 O286 1.435 . S
C249 C248 1.309 . S
C249 C250 1.476 . S
C249 H313 0.930 . S
C250 C249 1.476 . S
C250 C251 1.400 . S
C250 C254 1.567 . S
C251 C250 1.400 . S
C251 C252 1.373 . S
C251 C273 1.432 . S
C252 C251 1.373 . S
C252 C253 1.339 . S
C252 C255 1.530 . S
C253 C248 1.304 . S
C253 C252 1.339 . S
C253 H314 0.930 . S
C254 C250 1.567 . S
C254 H315 0.961 . S
C254 H316 0.960 . S
C254 H317 0.958 . S
C255 C252 1.530 . S
C255 H318 0.961 . S
C255 H319 0.960 . S
C255 H320 0.960 . S
C256 C257 1.530 . S
C256 H322 0.961 . S
C256 H323 0.961 . S
C256 H324 0.959 . S
C257 C256 1.530 . S
C257 O285 1.412 . S
C257 H321 0.980 . S
C258 C259 1.288 . S
C258 C263 1.377 . S
C258 O285 1.393 . S
C259 C258 1.288 . S
C259 C260 1.369 . S
C259 H325 0.932 . S
C260 C259 1.369 . S
C260 C261 1.398 . S
C260 C264 1.527 . S
C261 C260 1.398 . S
C261 C262 1.380 . S
C261 C275 1.497 . S
C262 C261 1.380 . S
C262 C263 1.383 . S
C262 C265 1.603 . S
C263 C258 1.377 . S
C263 C262 1.383 . S
C263 H326 0.929 . S
C264 C260 1.527 . S
C264 H327 0.961 . S
C264 H328 0.959 . S
C264 H329 0.959 . S
C265 C262 1.603 . S
C265 H330 0.960 . S
C265 H331 0.962 . S
C265 H332 0.961 . S
C266 C233 1.587 . S
C266 C267 1.360 . S
C266 C279 1.412 . S
C267 C266 1.360 . S
C267 C268 1.365 . S
C267 H333 0.929 . S
C268 C243 1.553 . S
C268 C267 1.365 . S
C268 C269 1.404 . S
C269 C268 1.404 . S
C269 C270 1.395 . S
C269 C280 1.451 . S
C270 C269 1.395 . S
C270 C271 1.322 . S
C270 H334 0.930 . S
C271 C270 1.322 . S
C271 C272 1.459 . S
C271 H335 0.929 . S
C272 C271 1.459 . S
C272 C273 1.445 . S
C272 C281 1.395 . S
C273 C251 1.432 . S
C273 C272 1.445 . S
C273 C274 1.370 . S
C274 C273 1.370 . S
C274 C275 1.438 . S
C274 H336 0.930 . S
C275 C261 1.497 . S
C275 C274 1.438 . S
C275 C276 1.360 . S
C276 C275 1.360 . S
C276 C277 1.401 . S
C276 C281 1.446 . S
C277 C276 1.401 . S
C277 C278 1.347 . S
C277 H337 0.929 . S
C278 C277 1.347 . S
C278 C279 1.455 . S
C278 H338 0.930 . S
C279 C266 1.412 . S
C279 C278 1.455 . S
C279 C280 1.331 . S
C280 C269 1.451 . S
C280 C279 1.331 . S
C280 C281 1.497 . S
C281 C272 1.395 . S
C281 C276 1.446 . S
C281 C280 1.497 . S
C282 C283 1.582 . S
C282 H339 0.962 . S
C282 H340 0.959 . S
C282 H341 0.958 . S
C283 C282 1.582 . S
C283 O286 1.458 . S
C283 H312 0.980 . S
O284 C229 1.426 . S
O284 C230 1.334 . S
O285 C257 1.412 . S
O285 C258 1.393 . S
O286 C248 1.435 . S
O286 C283 1.458 . S
O287 C239 1.468 . S
O287 C240 1.408 . S
H288 C229 0.980 . S
H289 C228 0.959 . S
H290 C228 0.959 . S
H291 C228 0.960 . S
H292 C231 0.929 . S
H293 C235 0.929 . S
H294 C236 0.959 . S
H295 C236 0.961 . S
H296 C236 0.961 . S
H297 C237 0.960 . S
H298 C237 0.960 . S
H299 C237 0.961 . S
H300 C239 0.980 . S
H301 C238 0.961 . S
H302 C238 0.960 . S
H303 C238 0.959 . S
H304 C241 0.930 . S
H305 C245 0.931 . S
H306 C246 0.959 . S
H307 C246 0.961 . S
H308 C246 0.959 . S
H309 C247 0.960 . S
H310 C247 0.960 . S
H311 C247 0.960 . S
H312 C283 0.980 . S
H313 C249 0.930 . S
H314 C253 0.930 . S
H315 C254 0.961 . S
H316 C254 0.960 . S
H317 C254 0.958 . S
H318 C255 0.961 . S
H319 C255 0.960 . S
H320 C255 0.960 . S
H321 C257 0.980 . S
H322 C256 0.961 . S
H323 C256 0.961 . S
H324 C256 0.959 . S
H325 C259 0.932 . S
H326 C263 0.929 . S
H327 C264 0.961 . S
H328 C264 0.959 . S
H329 C264 0.959 . S
H330 C265 0.960 . S
H331 C265 0.962 . S
H332 C265 0.961 . S
H333 C267 0.929 . S
H334 C270 0.930 . S
H335 C271 0.929 . S
H336 C274 0.930 . S
H337 C277 0.929 . S
H338 C278 0.930 . S
H339 C282 0.962 . S
H340 C282 0.959 . S
H341 C282 0.958 . S
C342 C343 1.560 . S
C342 H403 0.959 . S
C342 H404 0.959 . S
C342 H405 0.960 . S
C343 C342 1.560 . S
C343 O398 1.426 . S
C343 H402 0.980 . S
C344 C345 1.407 . S
C344 C349 1.418 . S
C344 O398 1.334 . S
C345 C344 1.407 . S
C345 C346 1.360 . S
C345 H406 0.929 . S
C346 C345 1.360 . S
C346 C347 1.401 . S
C346 C350 1.527 . S
C347 C346 1.401 . S
C347 C348 1.405 . S
C347 C380 1.587 . S
C348 C347 1.405 . S
C348 C349 1.332 . S
C348 C351 1.496 . S
C349 C344 1.418 . S
C349 C348 1.332 . S
C349 H407 0.929 . S
C350 C346 1.527 . S
C350 H408 0.959 . S
C350 H409 0.961 . S
C350 H410 0.961 . S
C351 C348 1.496 . S
C351 H411 0.960 . S
C351 H412 0.960 . S
C351 H413 0.961 . S
C352 C353 1.517 . S
C352 H415 0.961 . S
C352 H416 0.960 . S
C352 H417 0.959 . S
C353 C352 1.517 . S
C353 O401 1.468 . S
C353 H414 0.980 . S
C354 C355 1.349 . S
C354 C359 1.367 . S
C354 O401 1.408 . S
C355 C354 1.349 . S
C355 C356 1.407 . S
C355 H418 0.930 . S
C356 C355 1.407 . S
C356 C357 1.449 . S
C356 C360 1.535 . S
C357 C356 1.449 . S
C357 C358 1.384 . S
C357 C382 1.553 . S
C358 C357 1.384 . S
C358 C359 1.364 . S
C358 C361 1.450 . S
C359 C354 1.367 . S
C359 C358 1.364 . S
C359 H419 0.931 . S
C360 C356 1.535 . S
C360 H420 0.959 . S
C360 H421 0.961 . S
C360 H422 0.959 . S
C361 C358 1.450 . S
C361 H423 0.960 . S
C361 H424 0.960 . S
C361 H425 0.960 . S
C362 C363 1.309 . S
C362 C367 1.304 . S
C362 O400 1.435 . S
C363 C362 1.309 . S
C363 C364 1.476 . S
C363 H427 0.930 . S
C364 C363 1.476 . S
C364 C365 1.400 . S
C364 C368 1.567 . S
C365 C364 1.400 . S
C365 C366 1.373 . S
C365 C387 1.432 . S
C366 C365 1.373 . S
C366 C367 1.339 . S
C366 C369 1.530 . S
C367 C362 1.304 . S
C367 C366 1.339 . S
C367 H428 0.930 . S
C368 C364 1.567 . S
C368 H429 0.961 . S
C368 H430 0.960 . S
C368 H431 0.958 . S
C369 C366 1.530 . S
C369 H432 0.961 . S
C369 H433 0.960 . S
C369 H434 0.960 . S
C370 C371 1.530 . S
C370 H436 0.961 . S
C370 H437 0.961 . S
C370 H438 0.959 . S
C371 C370 1.530 . S
C371 O399 1.412 . S
C371 H435 0.980 . S
C372 C373 1.288 . S
C372 C377 1.377 . S
C372 O399 1.393 . S
C373 C372 1.288 . S
C373 C374 1.369 . S
C373 H439 0.932 . S
C374 C373 1.369 . S
C374 C375 1.398 . S
C374 C378 1.527 . S
C375 C374 1.398 . S
C375 C376 1.380 . S
C375 C389 1.497 . S
C376 C375 1.380 . S
C376 C377 1.383 . S
C376 C379 1.603 . S
C377 C372 1.377 . S
C377 C376 1.383 . S
C377 H440 0.929 . S
C378 C374 1.527 . S
C378 H441 0.961 . S
C378 H442 0.959 . S
C378 H443 0.959 . S
C379 C376 1.603 . S
C379 H444 0.960 . S
C379 H445 0.962 . S
C379 H446 0.961 . S
C380 C347 1.587 . S
C380 C381 1.360 . S
C380 C393 1.412 . S
C381 C380 1.360 . S
C381 C382 1.365 . S
C381 H447 0.929 . S
C382 C357 1.553 . S
C382 C381 1.365 . S
C382 C383 1.404 . S
C383 C382 1.404 . S
C383 C384 1.395 . S
C383 C394 1.451 . S
C384 C383 1.395 . S
C384 C385 1.322 . S
C384 H448 0.930 . S
C385 C384 1.322 . S
C385 C386 1.459 . S
C385 H449 0.929 . S
C386 C385 1.459 . S
C386 C387 1.445 . S
C386 C395 1.395 . S
C387 C365 1.432 . S
C387 C386 1.445 . S
C387 C388 1.370 . S
C388 C387 1.370 . S
C388 C389 1.438 . S
C388 H450 0.930 . S
C389 C375 1.497 . S
C389 C388 1.438 . S
C389 C390 1.360 . S
C390 C389 1.360 . S
C390 C391 1.401 . S
C390 C395 1.446 . S
C391 C390 1.401 . S
C391 C392 1.347 . S
C391 H451 0.929 . S
C392 C391 1.347 . S
C392 C393 1.455 . S
C392 H452 0.930 . S
C393 C380 1.412 . S
C393 C392 1.455 . S
C393 C394 1.331 . S
C394 C383 1.451 . S
C394 C393 1.331 . S
C394 C395 1.497 . S
C395 C386 1.395 . S
C395 C390 1.446 . S
C395 C394 1.497 . S
C396 C397 1.582 . S
C396 H453 0.962 . S
C396 H454 0.959 . S
C396 H455 0.958 . S
C397 C396 1.582 . S
C397 O400 1.458 . S
C397 H426 0.980 . S
O398 C343 1.426 . S
O398 C344 1.334 . S
O399 C371 1.412 . S
O399 C372 1.393 . S
O400 C362 1.435 . S
O400 C397 1.458 . S
O401 C353 1.468 . S
O401 C354 1.408 . S
H402 C343 0.980 . S
H403 C342 0.959 . S
H404 C342 0.959 . S
H405 C342 0.960 . S
H406 C345 0.929 . S
H407 C349 0.929 . S
H408 C350 0.959 . S
H409 C350 0.961 . S
H410 C350 0.961 . S
H411 C351 0.960 . S
H412 C351 0.960 . S
H413 C351 0.961 . S
H414 C353 0.980 . S
H415 C352 0.961 . S
H416 C352 0.960 . S
H417 C352 0.959 . S
H418 C355 0.930 . S
H419 C359 0.931 . S
H420 C360 0.959 . S
H421 C360 0.961 . S
H422 C360 0.959 . S
H423 C361 0.960 . S
H424 C361 0.960 . S
H425 C361 0.960 . S
H426 C397 0.980 . S
H427 C363 0.930 . S
H428 C367 0.930 . S
H429 C368 0.961 . S
H430 C368 0.960 . S
H431 C368 0.958 . S
H432 C369 0.961 . S
H433 C369 0.960 . S
H434 C369 0.960 . S
H435 C371 0.980 . S
H436 C370 0.961 . S
H437 C370 0.961 . S
H438 C370 0.959 . S
H439 C373 0.932 . S
H440 C377 0.929 . S
H441 C378 0.961 . S
H442 C378 0.959 . S
H443 C378 0.959 . S
H444 C379 0.960 . S
H445 C379 0.962 . S
H446 C379 0.961 . S
H447 C381 0.929 . S
H448 C384 0.930 . S
H449 C385 0.929 . S
H450 C388 0.930 . S
H451 C391 0.929 . S
H452 C392 0.930 . S
H453 C396 0.962 . S
H454 C396 0.959 . S
H455 C396 0.958 . S
C456 C457 1.560 . S
C456 H517 0.959 . S
C456 H518 0.959 . S
C456 H519 0.960 . S
C457 C456 1.560 . S
C457 O512 1.426 . S
C457 H516 0.980 . S
C458 C459 1.407 . S
C458 C463 1.418 . S
C458 O512 1.334 . S
C459 C458 1.407 . S
C459 C460 1.360 . S
C459 H520 0.929 . S
C460 C459 1.360 . S
C460 C461 1.401 . S
C460 C464 1.527 . S
C461 C460 1.401 . S
C461 C462 1.405 . S
C461 C494 1.587 . S
C462 C461 1.405 . S
C462 C463 1.332 . S
C462 C465 1.496 . S
C463 C458 1.418 . S
C463 C462 1.332 . S
C463 H521 0.929 . S
C464 C460 1.527 . S
C464 H522 0.959 . S
C464 H523 0.961 . S
C464 H524 0.961 . S
C465 C462 1.496 . S
C465 H525 0.960 . S
C465 H526 0.960 . S
C465 H527 0.961 . S
C466 C467 1.517 . S
C466 H529 0.961 . S
C466 H530 0.960 . S
C466 H531 0.959 . S
C467 C466 1.517 . S
C467 O515 1.468 . S
C467 H528 0.980 . S
C468 C469 1.349 . S
C468 C473 1.367 . S
C468 O515 1.408 . S
C469 C468 1.349 . S
C469 C470 1.407 . S
C469 H532 0.930 . S
C470 C469 1.407 . S
C470 C471 1.449 . S
C470 C474 1.535 . S
C471 C470 1.449 . S
C471 C472 1.384 . S
C471 C496 1.553 . S
C472 C471 1.384 . S
C472 C473 1.364 . S
C472 C475 1.450 . S
C473 C468 1.367 . S
C473 C472 1.364 . S
C473 H533 0.931 . S
C474 C470 1.535 . S
C474 H534 0.959 . S
C474 H535 0.961 . S
C474 H536 0.959 . S
C475 C472 1.450 . S
C475 H537 0.960 . S
C475 H538 0.960 . S
C475 H539 0.960 . S
C476 C477 1.309 . S
C476 C481 1.304 . S
C476 O514 1.435 . S
C477 C476 1.309 . S
C477 C478 1.476 . S
C477 H541 0.930 . S
C478 C477 1.476 . S
C478 C479 1.400 . S
C478 C482 1.567 . S
C479 C478 1.400 . S
C479 C480 1.373 . S
C479 C501 1.432 . S
C480 C479 1.373 . S
C480 C481 1.339 . S
C480 C483 1.530 . S
C481 C476 1.304 . S
C481 C480 1.339 . S
C481 H542 0.930 . S
C482 C478 1.567 . S
C482 H543 0.961 . S
C482 H544 0.960 . S
C482 H545 0.958 . S
C483 C480 1.530 . S
C483 H546 0.961 . S
C483 H547 0.960 . S
C483 H548 0.960 . S
C484 C485 1.530 . S
C484 H550 0.961 . S
C484 H551 0.961 . S
C484 H552 0.959 . S
C485 C484 1.530 . S
C485 O513 1.412 . S
C485 H549 0.980 . S
C486 C487 1.288 . S
C486 C491 1.377 . S
C486 O513 1.393 . S
C487 C486 1.288 . S
C487 C488 1.369 . S
C487 H553 0.932 . S
C488 C487 1.369 . S
C488 C489 1.398 . S
C488 C492 1.527 . S
C489 C488 1.398 . S
C489 C490 1.380 . S
C489 C503 1.497 . S
C490 C489 1.380 . S
C490 C491 1.383 . S
C490 C493 1.603 . S
C491 C486 1.377 . S
C491 C490 1.383 . S
C491 H554 0.929 . S
C492 C488 1.527 . S
C492 H555 0.961 . S
C492 H556 0.959 . S
C492 H557 0.959 . S
C493 C490 1.603 . S
C493 H558 0.960 . S
C493 H559 0.962 . S
C493 H560 0.961 . S
C494 C461 1.587 . S
C494 C495 1.360 . S
C494 C507 1.412 . S
C495 C494 1.360 . S
C495 C496 1.365 . S
C495 H561 0.929 . S
C496 C471 1.553 . S
C496 C495 1.365 . S
C496 C497 1.404 . S
C497 C496 1.404 . S
C497 C498 1.395 . S
C497 C508 1.451 . S
C498 C497 1.395 . S
C498 C499 1.322 . S
C498 H562 0.930 . S
C499 C498 1.322 . S
C499 C500 1.459 . S
C499 H563 0.929 . S
C500 C499 1.459 . S
C500 C501 1.445 . S
C500 C509 1.395 . S
C501 C479 1.432 . S
C501 C500 1.445 . S
C501 C502 1.370 . S
C502 C501 1.370 . S
C502 C503 1.438 . S
C502 H564 0.930 . S
C503 C489 1.497 . S
C503 C502 1.438 . S
C503 C504 1.360 . S
C504 C503 1.360 . S
C504 C505 1.401 . S
C504 C509 1.446 . S
C505 C504 1.401 . S
C505 C506 1.347 . S
C505 H565 0.929 . S
C506 C505 1.347 . S
C506 C507 1.455 . S
C506 H566 0.930 . S
C507 C494 1.412 . S
C507 C506 1.455 . S
C507 C508 1.331 . S
C508 C497 1.451 . S
C508 C507 1.331 . S
C508 C509 1.497 . S
C509 C500 1.395 . S
C509 C504 1.446 . S
C509 C508 1.497 . S
C510 C511 1.582 . S
C510 H567 0.962 . S
C510 H568 0.959 . S
C510 H569 0.958 . S
C511 C510 1.582 . S
C511 O514 1.458 . S
C511 H540 0.980 . S
O512 C457 1.426 . S
O512 C458 1.334 . S
O513 C485 1.412 . S
O513 C486 1.393 . S
O514 C476 1.435 . S
O514 C511 1.458 . S
O515 C467 1.468 . S
O515 C468 1.408 . S
H516 C457 0.980 . S
H517 C456 0.959 . S
H518 C456 0.959 . S
H519 C456 0.960 . S
H520 C459 0.929 . S
H521 C463 0.929 . S
H522 C464 0.959 . S
H523 C464 0.961 . S
H524 C464 0.961 . S
H525 C465 0.960 . S
H526 C465 0.960 . S
H527 C465 0.961 . S
H528 C467 0.980 . S
H529 C466 0.961 . S
H530 C466 0.960 . S
H531 C466 0.959 . S
H532 C469 0.930 . S
H533 C473 0.931 . S
H534 C474 0.959 . S
H535 C474 0.961 . S
H536 C474 0.959 . S
H537 C475 0.960 . S
H538 C475 0.960 . S
H539 C475 0.960 . S
H540 C511 0.980 . S
H541 C477 0.930 . S
H542 C481 0.930 . S
H543 C482 0.961 . S
H544 C482 0.960 . S
H545 C482 0.958 . S
H546 C483 0.961 . S
H547 C483 0.960 . S
H548 C483 0.960 . S
H549 C485 0.980 . S
H550 C484 0.961 . S
H551 C484 0.961 . S
H552 C484 0.959 . S
H553 C487 0.932 . S
H554 C491 0.929 . S
H555 C492 0.961 . S
H556 C492 0.959 . S
H557 C492 0.959 . S
H558 C493 0.960 . S
H559 C493 0.962 . S
H560 C493 0.961 . S
H561 C495 0.929 . S
H562 C498 0.930 . S
H563 C499 0.929 . S
H564 C502 0.930 . S
H565 C505 0.929 . S
H566 C506 0.930 . S
H567 C510 0.962 . S
H568 C510 0.959 . S
H569 C510 0.958 . S
C570 C571 1.560 . S
C570 H631 0.959 . S
C570 H632 0.959 . S
C570 H633 0.960 . S
C571 C570 1.560 . S
C571 O626 1.426 . S
C571 H630 0.980 . S
C572 C573 1.407 . S
C572 C577 1.418 . S
C572 O626 1.334 . S
C573 C572 1.407 . S
C573 C574 1.360 . S
C573 H634 0.929 . S
C574 C573 1.360 . S
C574 C575 1.401 . S
C574 C578 1.527 . S
C575 C574 1.401 . S
C575 C576 1.405 . S
C575 C608 1.587 . S
C576 C575 1.405 . S
C576 C577 1.332 . S
C576 C579 1.496 . S
C577 C572 1.418 . S
C577 C576 1.332 . S
C577 H635 0.929 . S
C578 C574 1.527 . S
C578 H636 0.959 . S
C578 H637 0.961 . S
C578 H638 0.961 . S
C579 C576 1.496 . S
C579 H639 0.960 . S
C579 H640 0.960 . S
C579 H641 0.961 . S
C580 C581 1.517 . S
C580 H643 0.961 . S
C580 H644 0.960 . S
C580 H645 0.959 . S
C581 C580 1.517 . S
C581 O629 1.468 . S
C581 H642 0.980 . S
C582 C583 1.349 . S
C582 C587 1.367 . S
C582 O629 1.408 . S
C583 C582 1.349 . S
C583 C584 1.407 . S
C583 H646 0.930 . S
C584 C583 1.407 . S
C584 C585 1.449 . S
C584 C588 1.535 . S
C585 C584 1.449 . S
C585 C586 1.384 . S
C585 C610 1.553 . S
C586 C585 1.384 . S
C586 C587 1.364 . S
C586 C589 1.450 . S
C587 C582 1.367 . S
C587 C586 1.364 . S
C587 H647 0.931 . S
C588 C584 1.535 . S
C588 H648 0.959 . S
C588 H649 0.961 . S
C588 H650 0.959 . S
C589 C586 1.450 . S
C589 H651 0.960 . S
C589 H652 0.960 . S
C589 H653 0.960 . S
C590 C591 1.309 . S
C590 C595 1.304 . S
C590 O628 1.435 . S
C591 C590 1.309 . S
C591 C592 1.476 . S
C591 H655 0.930 . S
C592 C591 1.476 . S
C592 C593 1.400 . S
C592 C596 1.567 . S
C593 C592 1.400 . S
C593 C594 1.373 . S
C593 C615 1.432 . S
C594 C593 1.373 . S
C594 C595 1.339 . S
C594 C597 1.530 . S
C595 C590 1.304 . S
C595 C594 1.339 . S
C595 H656 0.930 . S
C596 C592 1.567 . S
C596 H657 0.961 . S
C596 H658 0.960 . S
C596 H659 0.958 . S
C597 C594 1.530 . S
C597 H660 0.961 . S
C597 H661 0.960 . S
C597 H662 0.960 . S
C598 C599 1.530 . S
C598 H664 0.961 . S
C598 H665 0.961 . S
C598 H666 0.959 . S
C599 C598 1.530 . S
C599 O627 1.412 . S
C599 H663 0.980 . S
C600 C601 1.288 . S
C600 C605 1.377 . S
C600 O627 1.393 . S
C601 C600 1.288 . S
C601 C602 1.369 . S
C601 H667 0.932 . S
C602 C601 1.369 . S
C602 C603 1.398 . S
C602 C606 1.527 . S
C603 C602 1.398 . S
C603 C604 1.380 . S
C603 C617 1.497 . S
C604 C603 1.380 . S
C604 C605 1.383 . S
C604 C607 1.603 . S
C605 C600 1.377 . S
C605 C604 1.383 . S
C605 H668 0.929 . S
C606 C602 1.527 . S
C606 H669 0.961 . S
C606 H670 0.959 . S
C606 H671 0.959 . S
C607 C604 1.603 . S
C607 H672 0.960 . S
C607 H673 0.962 . S
C607 H674 0.961 . S
C608 C575 1.587 . S
C608 C609 1.360 . S
C608 C621 1.412 . S
C609 C608 1.360 . S
C609 C610 1.365 . S
C609 H675 0.929 . S
C610 C585 1.553 . S
C610 C609 1.365 . S
C610 C611 1.404 . S
C611 C610 1.404 . S
C611 C612 1.395 . S
C611 C622 1.451 . S
C612 C611 1.395 . S
C612 C613 1.322 . S
C612 H676 0.930 . S
C613 C612 1.322 . S
C613 C614 1.459 . S
C613 H677 0.929 . S
C614 C613 1.459 . S
C614 C615 1.445 . S
C614 C623 1.395 . S
C615 C593 1.432 . S
C615 C614 1.445 . S
C615 C616 1.370 . S
C616 C615 1.370 . S
C616 C617 1.438 . S
C616 H678 0.930 . S
C617 C603 1.497 . S
C617 C616 1.438 . S
C617 C618 1.360 . S
C618 C617 1.360 . S
C618 C619 1.401 . S
C618 C623 1.446 . S
C619 C618 1.401 . S
C619 C620 1.347 . S
C619 H679 0.929 . S
C620 C619 1.347 . S
C620 C621 1.455 . S
C620 H680 0.930 . S
C621 C608 1.412 . S
C621 C620 1.455 . S
C621 C622 1.331 . S
C622 C611 1.451 . S
C622 C621 1.331 . S
C622 C623 1.497 . S
C623 C614 1.395 . S
C623 C618 1.446 . S
C623 C622 1.497 . S
C624 C625 1.582 . S
C624 H681 0.962 . S
C624 H682 0.959 . S
C624 H683 0.958 . S
C625 C624 1.582 . S
C625 O628 1.458 . S
C625 H654 0.980 . S
O626 C571 1.426 . S
O626 C572 1.334 . S
O627 C599 1.412 . S
O627 C600 1.393 . S
O628 C590 1.435 . S
O628 C625 1.458 . S
O629 C581 1.468 . S
O629 C582 1.408 . S
H630 C571 0.980 . S
H631 C570 0.959 . S
H632 C570 0.959 . S
H633 C570 0.960 . S
H634 C573 0.929 . S
H635 C577 0.929 . S
H636 C578 0.959 . S
H637 C578 0.961 . S
H638 C578 0.961 . S
H639 C579 0.960 . S
H640 C579 0.960 . S
H641 C579 0.961 . S
H642 C581 0.980 . S
H643 C580 0.961 . S
H644 C580 0.960 . S
H645 C580 0.959 . S
H646 C583 0.930 . S
H647 C587 0.931 . S
H648 C588 0.959 . S
H649 C588 0.961 . S
H650 C588 0.959 . S
H651 C589 0.960 . S
H652 C589 0.960 . S
H653 C589 0.960 . S
H654 C625 0.980 . S
H655 C591 0.930 . S
H656 C595 0.930 . S
H657 C596 0.961 . S
H658 C596 0.960 . S
H659 C596 0.958 . S
H660 C597 0.961 . S
H661 C597 0.960 . S
H662 C597 0.960 . S
H663 C599 0.980 . S
H664 C598 0.961 . S
H665 C598 0.961 . S
H666 C598 0.959 . S
H667 C601 0.932 . S
H668 C605 0.929 . S
H669 C606 0.961 . S
H670 C606 0.959 . S
H671 C606 0.959 . S
H672 C607 0.960 . S
H673 C607 0.962 . S
H674 C607 0.961 . S
H675 C609 0.929 . S
H676 C612 0.930 . S
H677 C613 0.929 . S
H678 C616 0.930 . S
H679 C619 0.929 . S
H680 C620 0.930 . S
H681 C624 0.962 . S
H682 C624 0.959 . S
H683 C624 0.958 . S
C684 C685 1.560 . S
C684 H745 0.959 . S
C684 H746 0.959 . S
C684 H747 0.960 . S
C685 C684 1.560 . S
C685 O740 1.426 . S
C685 H744 0.980 . S
C686 C687 1.407 . S
C686 C691 1.418 . S
C686 O740 1.334 . S
C687 C686 1.407 . S
C687 C688 1.360 . S
C687 H748 0.929 . S
C688 C687 1.360 . S
C688 C689 1.401 . S
C688 C692 1.527 . S
C689 C688 1.401 . S
C689 C690 1.405 . S
C689 C722 1.587 . S
C690 C689 1.405 . S
C690 C691 1.332 . S
C690 C693 1.496 . S
C691 C686 1.418 . S
C691 C690 1.332 . S
C691 H749 0.929 . S
C692 C688 1.527 . S
C692 H750 0.959 . S
C692 H751 0.961 . S
C692 H752 0.961 . S
C693 C690 1.496 . S
C693 H753 0.960 . S
C693 H754 0.960 . S
C693 H755 0.961 . S
C694 C695 1.517 . S
C694 H757 0.961 . S
C694 H758 0.960 . S
C694 H759 0.959 . S
C695 C694 1.517 . S
C695 O743 1.468 . S
C695 H756 0.980 . S
C696 C697 1.349 . S
C696 C701 1.367 . S
C696 O743 1.408 . S
C697 C696 1.349 . S
C697 C698 1.407 . S
C697 H760 0.930 . S
C698 C697 1.407 . S
C698 C699 1.449 . S
C698 C702 1.535 . S
C699 C698 1.449 . S
C699 C700 1.384 . S
C699 C724 1.553 . S
C700 C699 1.384 . S
C700 C701 1.364 . S
C700 C703 1.450 . S
C701 C696 1.367 . S
C701 C700 1.364 . S
C701 H761 0.931 . S
C702 C698 1.535 . S
C702 H762 0.959 . S
C702 H763 0.961 . S
C702 H764 0.959 . S
C703 C700 1.450 . S
C703 H765 0.960 . S
C703 H766 0.960 . S
C703 H767 0.960 . S
C704 C705 1.309 . S
C704 C709 1.304 . S
C704 O742 1.435 . S
C705 C704 1.309 . S
C705 C706 1.476 . S
C705 H769 0.930 . S
C706 C705 1.476 . S
C706 C707 1.400 . S
C706 C710 1.567 . S
C707 C706 1.400 . S
C707 C708 1.373 . S
C707 C729 1.432 . S
C708 C707 1.373 . S
C708 C709 1.339 . S
C708 C711 1.530 . S
C709 C704 1.304 . S
C709 C708 1.339 . S
C709 H770 0.930 . S
C710 C706 1.567 . S
C710 H771 0.961 . S
C710 H772 0.960 . S
C710 H773 0.958 . S
C711 C708 1.530 . S
C711 H774 0.961 . S
C711 H775 0.960 . S
C711 H776 0.960 . S
C712 C713 1.530 . S
C712 H778 0.961 . S
C712 H779 0.961 . S
C712 H780 0.959 . S
C713 C712 1.530 . S
C713 O741 1.412 . S
C713 H777 0.980 . S
C714 C715 1.288 . S
C714 C719 1.377 . S
C714 O741 1.393 . S
C715 C714 1.288 . S
C715 C716 1.369 . S
C715 H781 0.932 . S
C716 C715 1.369 . S
C716 C717 1.398 . S
C716 C720 1.527 . S
C717 C716 1.398 . S
C717 C718 1.380 . S
C717 C731 1.497 . S
C718 C717 1.380 . S
C718 C719 1.383 . S
C718 C721 1.603 . S
C719 C714 1.377 . S
C719 C718 1.383 . S
C719 H782 0.929 . S
C720 C716 1.527 . S
C720 H783 0.961 . S
C720 H784 0.959 . S
C720 H785 0.959 . S
C721 C718 1.603 . S
C721 H786 0.960 . S
C721 H787 0.962 . S
C721 H788 0.961 . S
C722 C689 1.587 . S
C722 C723 1.360 . S
C722 C735 1.412 . S
C723 C722 1.360 . S
C723 C724 1.365 . S
C723 H789 0.929 . S
C724 C699 1.553 . S
C724 C723 1.365 . S
C724 C725 1.404 . S
C725 C724 1.404 . S
C725 C726 1.395 . S
C725 C736 1.451 . S
C726 C725 1.395 . S
C726 C727 1.322 . S
C726 H790 0.930 . S
C727 C726 1.322 . S
C727 C728 1.459 . S
C727 H791 0.929 . S
C728 C727 1.459 . S
C728 C729 1.445 . S
C728 C737 1.395 . S
C729 C707 1.432 . S
C729 C728 1.445 . S
C729 C730 1.370 . S
C730 C729 1.370 . S
C730 C731 1.438 . S
C730 H792 0.930 . S
C731 C717 1.497 . S
C731 C730 1.438 . S
C731 C732 1.360 . S
C732 C731 1.360 . S
C732 C733 1.401 . S
C732 C737 1.446 . S
C733 C732 1.401 . S
C733 C734 1.347 . S
C733 H793 0.929 . S
C734 C733 1.347 . S
C734 C735 1.455 . S
C734 H794 0.930 . S
C735 C722 1.412 . S
C735 C734 1.455 . S
C735 C736 1.331 . S
C736 C725 1.451 . S
C736 C735 1.331 . S
C736 C737 1.497 . S
C737 C728 1.395 . S
C737 C732 1.446 . S
C737 C736 1.497 . S
C738 C739 1.582 . S
C738 H795 0.962 . S
C738 H796 0.959 . S
C738 H797 0.958 . S
C739 C738 1.582 . S
C739 O742 1.458 . S
C739 H768 0.980 . S
O740 C685 1.426 . S
O740 C686 1.334 . S
O741 C713 1.412 . S
O741 C714 1.393 . S
O742 C704 1.435 . S
O742 C739 1.458 . S
O743 C695 1.468 . S
O743 C696 1.408 . S
H744 C685 0.980 . S
H745 C684 0.959 . S
H746 C684 0.959 . S
H747 C684 0.960 . S
H748 C687 0.929 . S
H749 C691 0.929 . S
H750 C692 0.959 . S
H751 C692 0.961 . S
H752 C692 0.961 . S
H753 C693 0.960 . S
H754 C693 0.960 . S
H755 C693 0.961 . S
H756 C695 0.980 . S
H757 C694 0.961 . S
H758 C694 0.960 . S
H759 C694 0.959 . S
H760 C697 0.930 . S
H761 C701 0.931 . S
H762 C702 0.959 . S
H763 C702 0.961 . S
H764 C702 0.959 . S
H765 C703 0.960 . S
H766 C703 0.960 . S
H767 C703 0.960 . S
H768 C739 0.980 . S
H769 C705 0.930 . S
H770 C709 0.930 . S
H771 C710 0.961 . S
H772 C710 0.960 . S
H773 C710 0.958 . S
H774 C711 0.961 . S
H775 C711 0.960 . S
H776 C711 0.960 . S
H777 C713 0.980 . S
H778 C712 0.961 . S
H779 C712 0.961 . S
H780 C712 0.959 . S
H781 C715 0.932 . S
H782 C719 0.929 . S
H783 C720 0.961 . S
H784 C720 0.959 . S
H785 C720 0.959 . S
H786 C721 0.960 . S
H787 C721 0.962 . S
H788 C721 0.961 . S
H789 C723 0.929 . S
H790 C726 0.930 . S
H791 C727 0.929 . S
H792 C730 0.930 . S
H793 C733 0.929 . S
H794 C734 0.930 . S
H795 C738 0.962 . S
H796 C738 0.959 . S
H797 C738 0.958 . S
C798 C799 1.560 . S
C798 H859 0.959 . S
C798 H860 0.959 . S
C798 H861 0.960 . S
C799 C798 1.560 . S
C799 O854 1.426 . S
C799 H858 0.980 . S
C800 C801 1.407 . S
C800 C805 1.418 . S
C800 O854 1.334 . S
C801 C800 1.407 . S
C801 C802 1.360 . S
C801 H862 0.929 . S
C802 C801 1.360 . S
C802 C803 1.401 . S
C802 C806 1.527 . S
C803 C802 1.401 . S
C803 C804 1.405 . S
C803 C836 1.587 . S
C804 C803 1.405 . S
C804 C805 1.332 . S
C804 C807 1.496 . S
C805 C800 1.418 . S
C805 C804 1.332 . S
C805 H863 0.929 . S
C806 C802 1.527 . S
C806 H864 0.959 . S
C806 H865 0.961 . S
C806 H866 0.961 . S
C807 C804 1.496 . S
C807 H867 0.960 . S
C807 H868 0.960 . S
C807 H869 0.961 . S
C808 C809 1.517 . S
C808 H871 0.961 . S
C808 H872 0.960 . S
C808 H873 0.959 . S
C809 C808 1.517 . S
C809 O857 1.468 . S
C809 H870 0.980 . S
C810 C811 1.349 . S
C810 C815 1.367 . S
C810 O857 1.408 . S
C811 C810 1.349 . S
C811 C812 1.407 . S
C811 H874 0.930 . S
C812 C811 1.407 . S
C812 C813 1.449 . S
C812 C816 1.535 . S
C813 C812 1.449 . S
C813 C814 1.384 . S
C813 C838 1.553 . S
C814 C813 1.384 . S
C814 C815 1.364 . S
C814 C817 1.450 . S
C815 C810 1.367 . S
C815 C814 1.364 . S
C815 H875 0.931 . S
C816 C812 1.535 . S
C816 H876 0.959 . S
C816 H877 0.961 . S
C816 H878 0.959 . S
C817 C814 1.450 . S
C817 H879 0.960 . S
C817 H880 0.960 . S
C817 H881 0.960 . S
C818 C819 1.309 . S
C818 C823 1.304 . S
C818 O856 1.435 . S
C819 C818 1.309 . S
C819 C820 1.476 . S
C819 H883 0.930 . S
C820 C819 1.476 . S
C820 C821 1.400 . S
C820 C824 1.567 . S
C821 C820 1.400 . S
C821 C822 1.373 . S
C821 C843 1.432 . S
C822 C821 1.373 . S
C822 C823 1.339 . S
C822 C825 1.530 . S
C823 C818 1.304 . S
C823 C822 1.339 . S
C823 H884 0.930 . S
C824 C820 1.567 . S
C824 H885 0.961 . S
C824 H886 0.960 . S
C824 H887 0.958 . S
C825 C822 1.530 . S
C825 H888 0.961 . S
C825 H889 0.960 . S
C825 H890 0.960 . S
C826 C827 1.530 . S
C826 H892 0.961 . S
C826 H893 0.961 . S
C826 H894 0.959 . S
C827 C826 1.530 . S
C827 O855 1.412 . S
C827 H891 0.980 . S
C828 C829 1.288 . S
C828 C833 1.377 . S
C828 O855 1.393 . S
C829 C828 1.288 . S
C829 C830 1.369 . S
C829 H895 0.932 . S
C830 C829 1.369 . S
C830 C831 1.398 . S
C830 C834 1.527 . S
C831 C830 1.398 . S
C831 C832 1.380 . S
C831 C845 1.497 . S
C832 C831 1.380 . S
C832 C833 1.383 . S
C832 C835 1.603 . S
C833 C828 1.377 . S
C833 C832 1.383 . S
C833 H896 0.929 . S
C834 C830 1.527 . S
C834 H897 0.961 . S
C834 H898 0.959 . S
C834 H899 0.959 . S
C835 C832 1.603 . S
C835 H900 0.960 . S
C835 H901 0.962 . S
C835 H902 0.961 . S
C836 C803 1.587 . S
C836 C837 1.360 . S
C836 C849 1.412 . S
C837 C836 1.360 . S
C837 C838 1.365 . S
C837 H903 0.929 . S
C838 C813 1.553 . S
C838 C837 1.365 . S
C838 C839 1.404 . S
C839 C838 1.404 . S
C839 C840 1.395 . S
C839 C850 1.451 . S
C840 C839 1.395 . S
C840 C841 1.322 . S
C840 H904 0.930 . S
C841 C840 1.322 . S
C841 C842 1.459 . S
C841 H905 0.929 . S
C842 C841 1.459 . S
C842 C843 1.445 . S
C842 C851 1.395 . S
C843 C821 1.432 . S
C843 C842 1.445 . S
C843 C844 1.370 . S
C844 C843 1.370 . S
C844 C845 1.438 . S
C844 H906 0.930 . S
C845 C831 1.497 . S
C845 C844 1.438 . S
C845 C846 1.360 . S
C846 C845 1.360 . S
C846 C847 1.401 . S
C846 C851 1.446 . S
C847 C846 1.401 . S
C847 C848 1.347 . S
C847 H907 0.929 . S
C848 C847 1.347 . S
C848 C849 1.455 . S
C848 H908 0.930 . S
C849 C836 1.412 . S
C849 C848 1.455 . S
C849 C850 1.331 . S
C850 C839 1.451 . S
C850 C849 1.331 . S
C850 C851 1.497 . S
C851 C842 1.395 . S
C851 C846 1.446 . S
C851 C850 1.497 . S
C852 C853 1.582 . S
C852 H909 0.962 . S
C852 H910 0.959 . S
C852 H911 0.958 . S
C853 C852 1.582 . S
C853 O856 1.458 . S
C853 H882 0.980 . S
O854 C799 1.426 . S
O854 C800 1.334 . S
O855 C827 1.412 . S
O855 C828 1.393 . S
O856 C818 1.435 . S
O856 C853 1.458 . S
O857 C809 1.468 . S
O857 C810 1.408 . S
H858 C799 0.980 . S
H859 C798 0.959 . S
H860 C798 0.959 . S
H861 C798 0.960 . S
H862 C801 0.929 . S
H863 C805 0.929 . S
H864 C806 0.959 . S
H865 C806 0.961 . S
H866 C806 0.961 . S
H867 C807 0.960 . S
H868 C807 0.960 . S
H869 C807 0.961 . S
H870 C809 0.980 . S
H871 C808 0.961 . S
H872 C808 0.960 . S
H873 C808 0.959 . S
H874 C811 0.930 . S
H875 C815 0.931 . S
H876 C816 0.959 . S
H877 C816 0.961 . S
H878 C816 0.959 . S
H879 C817 0.960 . S
H880 C817 0.960 . S
H881 C817 0.960 . S
H882 C853 0.980 . S
H883 C819 0.930 . S
H884 C823 0.930 . S
H885 C824 0.961 . S
H886 C824 0.960 . S
H887 C824 0.958 . S
H888 C825 0.961 . S
H889 C825 0.960 . S
H890 C825 0.960 . S
H891 C827 0.980 . S
H892 C826 0.961 . S
H893 C826 0.961 . S
H894 C826 0.959 . S
H895 C829 0.932 . S
H896 C833 0.929 . S
H897 C834 0.961 . S
H898 C834 0.959 . S
H899 C834 0.959 . S
H900 C835 0.960 . S
H901 C835 0.962 . S
H902 C835 0.961 . S
H903 C837 0.929 . S
H904 C840 0.930 . S
H905 C841 0.929 . S
H906 C844 0.930 . S
H907 C847 0.929 . S
H908 C848 0.930 . S
H909 C852 0.962 . S
H910 C852 0.959 . S
H911 C852 0.958 . S
C912 O914 1.247 . S
C912 O916 1.258 . S
C913 O920 1.247 . S
C913 O921 1.258 . S
O914 C912 1.247 . S
O914 Zn915 2.028 1_655 S
Zn915 O914 2.028 1_455 S
Zn915 O919 2.035 . S
Zn915 O921 2.035 . S
Zn915 O922 2.028 1_455 S
O916 C912 1.258 . S
O916 Zn917 2.035 1_655 S
Zn917 O916 2.035 1_455 S
Zn917 O918 2.028 . S
Zn917 O920 2.028 . S
Zn917 O923 2.035 1_455 S
O918 Zn917 2.028 . S
O918 C924 1.247 . S
O919 Zn915 2.035 . S
O919 C924 1.258 . S
O920 C913 1.247 . S
O920 Zn917 2.028 . S
O921 C913 1.258 . S
O921 Zn915 2.035 . S
O922 Zn915 2.028 1_655 S
O922 C925 1.247 . S
O923 Zn917 2.035 1_655 S
O923 C925 1.258 . S
C924 O918 1.247 . S
C924 O919 1.258 . S
C925 O922 1.247 . S
C925 O923 1.258 . S
C926 O928 1.247 . S
C926 O930 1.258 . S
C927 O934 1.247 . S
C927 O935 1.258 . S
O928 C926 1.247 . S
O928 Zn929 2.028 . S
Zn929 O928 2.028 . S
Zn929 O933 2.035 1_545 S
Zn929 O935 2.035 1_545 S
Zn929 O936 2.028 . S
O930 C926 1.258 . S
O930 Zn931 2.035 . S
Zn931 O930 2.035 . S
Zn931 O932 2.028 1_545 S
Zn931 O934 2.028 1_545 S
Zn931 O937 2.035 . S
O932 Zn931 2.028 1_565 S
O932 C938 1.247 . S
O933 Zn929 2.035 1_565 S
O933 C938 1.258 . S
O934 C927 1.247 . S
O934 Zn931 2.028 1_565 S
O935 C927 1.258 . S
O935 Zn929 2.035 1_565 S
O936 Zn929 2.028 . S
O936 C939 1.247 . S
O937 Zn931 2.035 . S
O937 C939 1.258 . S
C938 O932 1.247 . S
C938 O933 1.258 . S
C939 O936 1.247 . S
C939 O937 1.258 . S
C940 O942 1.247 . S
C940 O944 1.258 . S
C941 O948 1.247 . S
C941 O949 1.258 . S
O942 C940 1.247 . S
O942 Zn943 2.028 1_655 S
Zn943 O942 2.028 1_455 S
Zn943 O947 2.035 . S
Zn943 O949 2.035 . S
Zn943 O950 2.028 1_455 S
O944 C940 1.258 . S
O944 Zn945 2.035 1_655 S
Zn945 O944 2.035 1_455 S
Zn945 O946 2.028 . S
Zn945 O948 2.028 . S
Zn945 O951 2.035 1_455 S
O946 Zn945 2.028 . S
O946 C952 1.247 . S
O947 Zn943 2.035 . S
O947 C952 1.258 . S
O948 C941 1.247 . S
O948 Zn945 2.028 . S
O949 C941 1.258 . S
O949 Zn943 2.035 . S
O950 Zn943 2.028 1_655 S
O950 C953 1.247 . S
O951 Zn945 2.035 1_655 S
O951 C953 1.258 . S
C952 O946 1.247 . S
C952 O947 1.258 . S
C953 O950 1.247 . S
C953 O951 1.258 . S
C954 O956 1.247 . S
C954 O958 1.258 . S
C955 O962 1.247 . S
C955 O963 1.258 . S
O956 C954 1.247 . S
O956 Zn957 2.028 . S
Zn957 O956 2.028 . S
Zn957 O961 2.035 1_545 S
Zn957 O963 2.035 1_545 S
Zn957 O964 2.028 . S
O958 C954 1.258 . S
O958 Zn959 2.035 . S
Zn959 O958 2.035 . S
Zn959 O960 2.028 1_545 S
Zn959 O962 2.028 1_545 S
Zn959 O965 2.035 . S
O960 Zn959 2.028 1_565 S
O960 C966 1.247 . S
O961 Zn957 2.035 1_565 S
O961 C966 1.258 . S
O962 C955 1.247 . S
O962 Zn959 2.028 1_565 S
O963 C955 1.258 . S
O963 Zn957 2.035 1_565 S
O964 Zn957 2.028 . S
O964 C967 1.247 . S
O965 Zn959 2.035 . S
O965 C967 1.258 . S
C966 O960 1.247 . S
C966 O961 1.258 . S
C967 O964 1.247 . S
C967 O965 1.258 . S
C968 O970 1.247 . S
C968 O972 1.258 . S
C969 O976 1.247 . S
C969 O977 1.258 . S
O970 C968 1.247 . S
O970 Zn971 2.040 . S
Zn971 O970 2.040 . S
Zn971 O975 2.048 . S
Zn971 O977 2.023 1_554 S
Zn971 O978 2.015 1_554 S
O972 C968 1.258 . S
O972 Zn973 2.051 . S
Zn973 O972 2.051 . S
Zn973 O974 2.045 . S
Zn973 O976 2.012 1_554 S
Zn973 O979 2.018 1_554 S
O974 Zn973 2.045 . S
O974 C980 1.247 . S
O975 Zn971 2.048 . S
O975 C980 1.258 . S
O976 C969 1.247 . S
O976 Zn973 2.012 1_556 S
O977 C969 1.258 . S
O977 Zn971 2.023 1_556 S
O978 Zn971 2.015 1_556 S
O978 C981 1.247 . S
O979 Zn973 2.018 1_556 S
O979 C981 1.258 . S
C980 O974 1.247 . S
C980 O975 1.258 . S
C981 O978 1.247 . S
C981 O979 1.258 . S
C982 O984 1.247 . S
C982 O986 1.258 . S
C983 O990 1.247 . S
C983 O991 1.258 . S
O984 C982 1.247 . S
O984 Zn985 2.028 . S
Zn985 O984 2.028 . S
Zn985 O989 2.035 . S
Zn985 O991 2.035 1_554 S
Zn985 O992 2.028 1_554 S
O986 C982 1.258 . S
O986 Zn987 2.035 . S
Zn987 O986 2.035 . S
Zn987 O988 2.028 . S
Zn987 O990 2.028 1_554 S
Zn987 O993 2.035 1_554 S
O988 Zn987 2.028 . S
O988 C994 1.247 . S
O989 Zn985 2.035 . S
O989 C994 1.258 . S
O990 C983 1.247 . S
O990 Zn987 2.028 1_556 S
O991 C983 1.258 . S
O991 Zn985 2.035 1_556 S
O992 Zn985 2.028 1_556 S
O992 C995 1.247 . S
O993 Zn987 2.035 1_556 S
O993 C995 1.258 . S
C994 O988 1.247 . S
C994 O989 1.258 . S
C995 O992 1.247 . S
C995 O993 1.258 . S
C996 O998 1.247 . S
C996 O1000 1.258 . S
C997 O1004 1.247 . S
C997 O1005 1.258 . S
O998 C996 1.247 . S
O998 Zn999 2.012 1_556 S
Zn999 O998 2.012 1_554 S
Zn999 O1003 2.020 1_554 S
Zn999 O1005 2.051 . S
Zn999 O1006 2.043 . S
O1000 C996 1.258 . S
O1000 Zn1001 2.023 1_556 S
Zn1001 O1000 2.023 1_554 S
Zn1001 O1002 2.017 1_554 S
Zn1001 O1004 2.040 . S
Zn1001 O1007 2.046 . S
O1002 Zn1001 2.017 1_556 S
O1002 C1008 1.247 . S
O1003 Zn999 2.020 1_556 S
O1003 C1008 1.258 . S
O1004 C997 1.247 . S
O1004 Zn1001 2.040 . S
O1005 C997 1.258 . S
O1005 Zn999 2.051 . S
O1006 Zn999 2.043 . S
O1006 C1009 1.247 . S
O1007 Zn1001 2.046 . S
O1007 C1009 1.258 . S
C1008 O1002 1.247 . S
C1008 O1003 1.258 . S
C1009 O1006 1.247 . S
C1009 O1007 1.258 . S
C1010 O1012 1.247 . S
C1010 O1014 1.258 . S
C1011 O1018 1.247 . S
C1011 O1019 1.258 . S
O1012 C1010 1.247 . S
O1012 Zn1013 2.028 . S
Zn1013 O1012 2.028 . S
Zn1013 O1017 2.035 . S
Zn1013 O1019 2.035 1_554 S
Zn1013 O1020 2.028 1_554 S
O1014 C1010 1.258 . S
O1014 Zn1015 2.035 . S
Zn1015 O1014 2.035 . S
Zn1015 O1016 2.028 . S
Zn1015 O1018 2.028 1_554 S
Zn1015 O1021 2.035 1_554 S
O1016 Zn1015 2.028 . S
O1016 C1022 1.247 . S
O1017 Zn1013 2.035 . S
O1017 C1022 1.258 . S
O1018 C1011 1.247 . S
O1018 Zn1015 2.028 1_556 S
O1019 C1011 1.258 . S
O1019 Zn1013 2.035 1_556 S
O1020 Zn1013 2.028 1_556 S
O1020 C1023 1.247 . S
O1021 Zn1015 2.035 1_556 S
O1021 C1023 1.258 . S
C1022 O1016 1.247 . S
C1022 O1017 1.258 . S
C1023 O1020 1.247 . S
C1023 O1021 1.258 . S
H1024 C1032 0.929 . S
H1025 C1034 0.930 . S
H1026 C1036 0.930 . S
H1027 C1039 0.929 . S
H1028 C1042 0.930 . S
H1029 C1044 0.960 . S
H1030 C1044 0.960 . S
H1031 C1044 0.960 . S
C1032 H1024 0.929 . S
C1032 C1033 1.377 . S
C1032 C1034 1.384 . S
C1033 C1032 1.377 . S
C1033 C1039 1.390 . S
C1034 H1025 0.930 . S
C1034 C1032 1.384 . S
C1034 C1035 1.372 . S
C1035 C1034 1.372 . S
C1035 C1036 1.400 . S
C1035 C1040 1.490 . S
C1036 H1026 0.930 . S
C1036 C1035 1.400 . S
C1036 C1039 1.386 . S
H1037 C1053 0.930 . S
H1038 C1054 0.931 . S
C1039 H1027 0.929 . S
C1039 C1033 1.390 . S
C1039 C1036 1.386 . S
C1040 C1035 1.490 . S
C1040 C1042 1.395 . S
C1040 C1043 1.403 . S
H1041 C1047 0.930 . S
C1042 H1028 0.930 . S
C1042 C1040 1.395 . S
C1042 C1045 1.403 . S
C1043 C1040 1.403 . S
C1043 C1044 1.524 . S
C1043 C1047 1.400 . S
C1044 H1029 0.960 . S
C1044 H1030 0.960 . S
C1044 H1031 0.960 . S
C1044 C1043 1.524 . S
C1045 C1042 1.403 . S
C1045 C1046 1.392 . S
C1045 C1049 1.495 . S
C1046 C1045 1.392 . S
C1046 C1047 1.385 . S
C1046 C1048 1.478 . S
C1047 H1041 0.930 . S
C1047 C1043 1.400 . S
C1047 C1046 1.385 . S
C1048 C1046 1.478 . S
C1048 C1050 1.381 . S
C1048 C1054 1.383 . S
C1049 C1045 1.495 . S
C1049 H1055 0.959 . S
C1049 H1056 0.961 . S
C1049 H1057 0.960 . S
C1050 C1048 1.381 . S
C1050 C1051 1.394 . S
C1050 H1058 0.930 . S
C1051 C1050 1.394 . S
C1051 C1052 1.383 . S
C1051 H1059 0.929 . S
C1052 C1051 1.383 . S
C1052 C1053 1.377 . S
C1053 H1037 0.930 . S
C1053 C1052 1.377 . S
C1053 C1054 1.379 . S
C1054 H1038 0.931 . S
C1054 C1048 1.383 . S
C1054 C1053 1.379 . S
H1055 C1049 0.959 . S
H1056 C1049 0.961 . S
H1057 C1049 0.960 . S
H1058 C1050 0.930 . S
H1059 C1051 0.929 . S
H1060 C1068 0.929 . S
H1061 C1070 0.930 . S
H1062 C1072 0.930 . S
H1063 C1075 0.929 . S
H1064 C1078 0.930 . S
H1065 C1080 0.960 . S
H1066 C1080 0.960 . S
H1067 C1080 0.960 . S
C1068 H1060 0.929 . S
C1068 C1069 1.377 . S
C1068 C1070 1.384 . S
C1069 C1068 1.377 . S
C1069 C1075 1.390 . S
C1070 H1061 0.930 . S
C1070 C1068 1.384 . S
C1070 C1071 1.372 . S
C1071 C1070 1.372 . S
C1071 C1072 1.400 . S
C1071 C1076 1.490 . S
C1072 H1062 0.930 . S
C1072 C1071 1.400 . S
C1072 C1075 1.386 . S
H1073 C1089 0.930 . S
H1074 C1090 0.931 . S
C1075 H1063 0.929 . S
C1075 C1069 1.390 . S
C1075 C1072 1.386 . S
C1076 C1071 1.490 . S
C1076 C1078 1.395 . S
C1076 C1079 1.403 . S
H1077 C1083 0.930 . S
C1078 H1064 0.930 . S
C1078 C1076 1.395 . S
C1078 C1081 1.403 . S
C1079 C1076 1.403 . S
C1079 C1080 1.524 . S
C1079 C1083 1.400 . S
C1080 H1065 0.960 . S
C1080 H1066 0.960 . S
C1080 H1067 0.960 . S
C1080 C1079 1.524 . S
C1081 C1078 1.403 . S
C1081 C1082 1.392 . S
C1081 C1085 1.495 . S
C1082 C1081 1.392 . S
C1082 C1083 1.385 . S
C1082 C1084 1.478 . S
C1083 H1077 0.930 . S
C1083 C1079 1.400 . S
C1083 C1082 1.385 . S
C1084 C1082 1.478 . S
C1084 C1086 1.381 . S
C1084 C1090 1.383 . S
C1085 C1081 1.495 . S
C1085 H1091 0.959 . S
C1085 H1092 0.961 . S
C1085 H1093 0.960 . S
C1086 C1084 1.381 . S
C1086 C1087 1.394 . S
C1086 H1094 0.930 . S
C1087 C1086 1.394 . S
C1087 C1088 1.383 . S
C1087 H1095 0.929 . S
C1088 C1087 1.383 . S
C1088 C1089 1.377 . S
C1089 H1073 0.930 . S
C1089 C1088 1.377 . S
C1089 C1090 1.379 . S
C1090 H1074 0.931 . S
C1090 C1084 1.383 . S
C1090 C1089 1.379 . S
H1091 C1085 0.959 . S
H1092 C1085 0.961 . S
H1093 C1085 0.960 . S
H1094 C1086 0.930 . S
H1095 C1087 0.929 . S
H1096 C1104 0.929 . S
H1097 C1106 0.930 . S
H1098 C1108 0.930 . S
H1099 C1111 0.929 . S
H1100 C1114 0.930 . S
H1101 C1116 0.960 . S
H1102 C1116 0.960 . S
H1103 C1116 0.960 . S
C1104 H1096 0.929 . S
C1104 C1105 1.377 . S
C1104 C1106 1.384 . S
C1105 C1104 1.377 . S
C1105 C1111 1.390 . S
C1106 H1097 0.930 . S
C1106 C1104 1.384 . S
C1106 C1107 1.372 . S
C1107 C1106 1.372 . S
C1107 C1108 1.400 . S
C1107 C1112 1.490 . S
C1108 H1098 0.930 . S
C1108 C1107 1.400 . S
C1108 C1111 1.386 . S
H1109 C1125 0.930 . S
H1110 C1126 0.931 . S
C1111 H1099 0.929 . S
C1111 C1105 1.390 . S
C1111 C1108 1.386 . S
C1112 C1107 1.490 . S
C1112 C1114 1.395 . S
C1112 C1115 1.403 . S
H1113 C1119 0.930 . S
C1114 H1100 0.930 . S
C1114 C1112 1.395 . S
C1114 C1117 1.403 . S
C1115 C1112 1.403 . S
C1115 C1116 1.524 . S
C1115 C1119 1.400 . S
C1116 H1101 0.960 . S
C1116 H1102 0.960 . S
C1116 H1103 0.960 . S
C1116 C1115 1.524 . S
C1117 C1114 1.403 . S
C1117 C1118 1.392 . S
C1117 C1121 1.495 . S
C1118 C1117 1.392 . S
C1118 C1119 1.385 . S
C1118 C1120 1.478 . S
C1119 H1113 0.930 . S
C1119 C1115 1.400 . S
C1119 C1118 1.385 . S
C1120 C1118 1.478 . S
C1120 C1122 1.381 . S
C1120 C1126 1.383 . S
C1121 C1117 1.495 . S
C1121 H1127 0.959 . S
C1121 H1128 0.961 . S
C1121 H1129 0.960 . S
C1122 C1120 1.381 . S
C1122 C1123 1.394 . S
C1122 H1130 0.930 . S
C1123 C1122 1.394 . S
C1123 C1124 1.383 . S
C1123 H1131 0.929 . S
C1124 C1123 1.383 . S
C1124 C1125 1.377 . S
C1125 H1109 0.930 . S
C1125 C1124 1.377 . S
C1125 C1126 1.379 . S
C1126 H1110 0.931 . S
C1126 C1120 1.383 . S
C1126 C1125 1.379 . S
H1127 C1121 0.959 . S
H1128 C1121 0.961 . S
H1129 C1121 0.960 . S
H1130 C1122 0.930 . S
H1131 C1123 0.929 . S
H1132 C1140 0.929 . S
H1133 C1142 0.930 . S
H1134 C1144 0.930 . S
H1135 C1147 0.929 . S
H1136 C1150 0.930 . S
H1137 C1152 0.960 . S
H1138 C1152 0.960 . S
H1139 C1152 0.960 . S
C1140 H1132 0.929 . S
C1140 C1141 1.377 . S
C1140 C1142 1.384 . S
C1141 C1140 1.377 . S
C1141 C1147 1.390 . S
C1142 H1133 0.930 . S
C1142 C1140 1.384 . S
C1142 C1143 1.372 . S
C1143 C1142 1.372 . S
C1143 C1144 1.400 . S
C1143 C1148 1.490 . S
C1144 H1134 0.930 . S
C1144 C1143 1.400 . S
C1144 C1147 1.386 . S
H1145 C1161 0.930 . S
H1146 C1162 0.931 . S
C1147 H1135 0.929 . S
C1147 C1141 1.390 . S
C1147 C1144 1.386 . S
C1148 C1143 1.490 . S
C1148 C1150 1.395 . S
C1148 C1151 1.403 . S
H1149 C1155 0.930 . S
C1150 H1136 0.930 . S
C1150 C1148 1.395 . S
C1150 C1153 1.403 . S
C1151 C1148 1.403 . S
C1151 C1152 1.524 . S
C1151 C1155 1.400 . S
C1152 H1137 0.960 . S
C1152 H1138 0.960 . S
C1152 H1139 0.960 . S
C1152 C1151 1.524 . S
C1153 C1150 1.403 . S
C1153 C1154 1.392 . S
C1153 C1157 1.495 . S
C1154 C1153 1.392 . S
C1154 C1155 1.385 . S
C1154 C1156 1.478 . S
C1155 H1149 0.930 . S
C1155 C1151 1.400 . S
C1155 C1154 1.385 . S
C1156 C1154 1.478 . S
C1156 C1158 1.381 . S
C1156 C1162 1.383 . S
C1157 C1153 1.495 . S
C1157 H1163 0.959 . S
C1157 H1164 0.961 . S
C1157 H1165 0.960 . S
C1158 C1156 1.381 . S
C1158 C1159 1.394 . S
C1158 H1166 0.930 . S
C1159 C1158 1.394 . S
C1159 C1160 1.383 . S
C1159 H1167 0.929 . S
C1160 C1159 1.383 . S
C1160 C1161 1.377 . S
C1161 H1145 0.930 . S
C1161 C1160 1.377 . S
C1161 C1162 1.379 . S
C1162 H1146 0.931 . S
C1162 C1156 1.383 . S
C1162 C1161 1.379 . S
H1163 C1157 0.959 . S
H1164 C1157 0.961 . S
H1165 C1157 0.960 . S
H1166 C1158 0.930 . S
H1167 C1159 0.929 . S
H1168 C1176 0.929 . S
H1169 C1178 0.930 . S
H1170 C1180 0.930 . S
H1171 C1183 0.929 . S
H1172 C1186 0.930 . S
H1173 C1188 0.960 . S
H1174 C1188 0.960 . S
H1175 C1188 0.960 . S
C1176 H1168 0.929 . S
C1176 C1177 1.377 . S
C1176 C1178 1.384 . S
C1177 C1176 1.377 . S
C1177 C1183 1.390 . S
C1178 H1169 0.930 . S
C1178 C1176 1.384 . S
C1178 C1179 1.372 . S
C1179 C1178 1.372 . S
C1179 C1180 1.400 . S
C1179 C1184 1.490 . S
C1180 H1170 0.930 . S
C1180 C1179 1.400 . S
C1180 C1183 1.386 . S
H1181 C1197 0.930 . S
H1182 C1198 0.931 . S
C1183 H1171 0.929 . S
C1183 C1177 1.390 . S
C1183 C1180 1.386 . S
C1184 C1179 1.490 . S
C1184 C1186 1.395 . S
C1184 C1187 1.403 . S
H1185 C1191 0.930 . S
C1186 H1172 0.930 . S
C1186 C1184 1.395 . S
C1186 C1189 1.403 . S
C1187 C1184 1.403 . S
C1187 C1188 1.524 . S
C1187 C1191 1.400 . S
C1188 H1173 0.960 . S
C1188 H1174 0.960 . S
C1188 H1175 0.960 . S
C1188 C1187 1.524 . S
C1189 C1186 1.403 . S
C1189 C1190 1.392 . S
C1189 C1193 1.495 . S
C1190 C1189 1.392 . S
C1190 C1191 1.385 . S
C1190 C1192 1.478 . S
C1191 H1185 0.930 . S
C1191 C1187 1.400 . S
C1191 C1190 1.385 . S
C1192 C1190 1.478 . S
C1192 C1194 1.381 . S
C1192 C1198 1.383 . S
C1193 C1189 1.495 . S
C1193 H1199 0.959 . S
C1193 H1200 0.961 . S
C1193 H1201 0.960 . S
C1194 C1192 1.381 . S
C1194 C1195 1.394 . S
C1194 H1202 0.930 . S
C1195 C1194 1.394 . S
C1195 C1196 1.383 . S
C1195 H1203 0.929 . S
C1196 C1195 1.383 . S
C1196 C1197 1.377 . S
C1197 H1181 0.930 . S
C1197 C1196 1.377 . S
C1197 C1198 1.379 . S
C1198 H1182 0.931 . S
C1198 C1192 1.383 . S
C1198 C1197 1.379 . S
H1199 C1193 0.959 . S
H1200 C1193 0.961 . S
H1201 C1193 0.960 . S
H1202 C1194 0.930 . S
H1203 C1195 0.929 . S
H1204 C1212 0.929 . S
H1205 C1214 0.930 . S
H1206 C1216 0.930 . S
H1207 C1219 0.929 . S
H1208 C1222 0.930 . S
H1209 C1224 0.960 . S
H1210 C1224 0.960 . S
H1211 C1224 0.960 . S
C1212 H1204 0.929 . S
C1212 C1213 1.377 . S
C1212 C1214 1.384 . S
C1213 C1212 1.377 . S
C1213 C1219 1.390 . S
C1214 H1205 0.930 . S
C1214 C1212 1.384 . S
C1214 C1215 1.372 . S
C1215 C1214 1.372 . S
C1215 C1216 1.400 . S
C1215 C1220 1.490 . S
C1216 H1206 0.930 . S
C1216 C1215 1.400 . S
C1216 C1219 1.386 . S
H1217 C1233 0.930 . S
H1218 C1234 0.931 . S
C1219 H1207 0.929 . S
C1219 C1213 1.390 . S
C1219 C1216 1.386 . S
C1220 C1215 1.490 . S
C1220 C1222 1.395 . S
C1220 C1223 1.403 . S
H1221 C1227 0.930 . S
C1222 H1208 0.930 . S
C1222 C1220 1.395 . S
C1222 C1225 1.403 . S
C1223 C1220 1.403 . S
C1223 C1224 1.524 . S
C1223 C1227 1.400 . S
C1224 H1209 0.960 . S
C1224 H1210 0.960 . S
C1224 H1211 0.960 . S
C1224 C1223 1.524 . S
C1225 C1222 1.403 . S
C1225 C1226 1.392 . S
C1225 C1229 1.495 . S
C1226 C1225 1.392 . S
C1226 C1227 1.385 . S
C1226 C1228 1.478 . S
C1227 H1221 0.930 . S
C1227 C1223 1.400 . S
C1227 C1226 1.385 . S
C1228 C1226 1.478 . S
C1228 C1230 1.381 . S
C1228 C1234 1.383 . S
C1229 C1225 1.495 . S
C1229 H1235 0.959 . S
C1229 H1236 0.961 . S
C1229 H1237 0.960 . S
C1230 C1228 1.381 . S
C1230 C1231 1.394 . S
C1230 H1238 0.930 . S
C1231 C1230 1.394 . S
C1231 C1232 1.383 . S
C1231 H1239 0.929 . S
C1232 C1231 1.383 . S
C1232 C1233 1.377 . S
C1233 H1217 0.930 . S
C1233 C1232 1.377 . S
C1233 C1234 1.379 . S
C1234 H1218 0.931 . S
C1234 C1228 1.383 . S
C1234 C1233 1.379 . S
H1235 C1229 0.959 . S
H1236 C1229 0.961 . S
H1237 C1229 0.960 . S
H1238 C1230 0.930 . S
H1239 C1231 0.929 . S
H1240 C1248 0.929 . S
H1241 C1250 0.930 . S
H1242 C1252 0.930 . S
H1243 C1255 0.929 . S
H1244 C1258 0.930 . S
H1245 C1260 0.960 . S
H1246 C1260 0.960 . S
H1247 C1260 0.960 . S
C1248 H1240 0.929 . S
C1248 C1249 1.377 . S
C1248 C1250 1.384 . S
C1249 C1248 1.377 . S
C1249 C1255 1.390 . S
C1250 H1241 0.930 . S
C1250 C1248 1.384 . S
C1250 C1251 1.372 . S
C1251 C1250 1.372 . S
C1251 C1252 1.400 . S
C1251 C1256 1.490 . S
C1252 H1242 0.930 . S
C1252 C1251 1.400 . S
C1252 C1255 1.386 . S
H1253 C1269 0.930 . S
H1254 C1270 0.931 . S
C1255 H1243 0.929 . S
C1255 C1249 1.390 . S
C1255 C1252 1.386 . S
C1256 C1251 1.490 . S
C1256 C1258 1.395 . S
C1256 C1259 1.403 . S
H1257 C1263 0.930 . S
C1258 H1244 0.930 . S
C1258 C1256 1.395 . S
C1258 C1261 1.403 . S
C1259 C1256 1.403 . S
C1259 C1260 1.524 . S
C1259 C1263 1.400 . S
C1260 H1245 0.960 . S
C1260 H1246 0.960 . S
C1260 H1247 0.960 . S
C1260 C1259 1.524 . S
C1261 C1258 1.403 . S
C1261 C1262 1.392 . S
C1261 C1265 1.495 . S
C1262 C1261 1.392 . S
C1262 C1263 1.385 . S
C1262 C1264 1.478 . S
C1263 H1257 0.930 . S
C1263 C1259 1.400 . S
C1263 C1262 1.385 . S
C1264 C1262 1.478 . S
C1264 C1266 1.381 . S
C1264 C1270 1.383 . S
C1265 C1261 1.495 . S
C1265 H1271 0.959 . S
C1265 H1272 0.961 . S
C1265 H1273 0.960 . S
C1266 C1264 1.381 . S
C1266 C1267 1.394 . S
C1266 H1274 0.930 . S
C1267 C1266 1.394 . S
C1267 C1268 1.383 . S
C1267 H1275 0.929 . S
C1268 C1267 1.383 . S
C1268 C1269 1.377 . S
C1269 H1253 0.930 . S
C1269 C1268 1.377 . S
C1269 C1270 1.379 . S
C1270 H1254 0.931 . S
C1270 C1264 1.383 . S
C1270 C1269 1.379 . S
H1271 C1265 0.959 . S
H1272 C1265 0.961 . S
H1273 C1265 0.960 . S
H1274 C1266 0.930 . S
H1275 C1267 0.929 . S
H1276 C1284 0.929 . S
H1277 C1286 0.930 . S
H1278 C1288 0.930 . S
H1279 C1291 0.929 . S
H1280 C1294 0.930 . S
H1281 C1296 0.960 . S
H1282 C1296 0.960 . S
H1283 C1296 0.960 . S
C1284 H1276 0.929 . S
C1284 C1285 1.377 . S
C1284 C1286 1.384 . S
C1285 C1284 1.377 . S
C1285 C1291 1.390 . S
C1286 H1277 0.930 . S
C1286 C1284 1.384 . S
C1286 C1287 1.372 . S
C1287 C1286 1.372 . S
C1287 C1288 1.400 . S
C1287 C1292 1.490 . S
C1288 H1278 0.930 . S
C1288 C1287 1.400 . S
C1288 C1291 1.386 . S
H1289 C1305 0.930 . S
H1290 C1306 0.931 . S
C1291 H1279 0.929 . S
C1291 C1285 1.390 . S
C1291 C1288 1.386 . S
C1292 C1287 1.490 . S
C1292 C1294 1.395 . S
C1292 C1295 1.403 . S
H1293 C1299 0.930 . S
C1294 H1280 0.930 . S
C1294 C1292 1.395 . S
C1294 C1297 1.403 . S
C1295 C1292 1.403 . S
C1295 C1296 1.524 . S
C1295 C1299 1.400 . S
C1296 H1281 0.960 . S
C1296 H1282 0.960 . S
C1296 H1283 0.960 . S
C1296 C1295 1.524 . S
C1297 C1294 1.403 . S
C1297 C1298 1.392 . S
C1297 C1301 1.495 . S
C1298 C1297 1.392 . S
C1298 C1299 1.385 . S
C1298 C1300 1.478 . S
C1299 H1293 0.930 . S
C1299 C1295 1.400 . S
C1299 C1298 1.385 . S
C1300 C1298 1.478 . S
C1300 C1302 1.381 . S
C1300 C1306 1.383 . S
C1301 C1297 1.495 . S
C1301 H1307 0.959 . S
C1301 H1308 0.961 . S
C1301 H1309 0.960 . S
C1302 C1300 1.381 . S
C1302 C1303 1.394 . S
C1302 H1310 0.930 . S
C1303 C1302 1.394 . S
C1303 C1304 1.383 . S
C1303 H1311 0.929 . S
C1304 C1303 1.383 . S
C1304 C1305 1.377 . S
C1305 H1289 0.930 . S
C1305 C1304 1.377 . S
C1305 C1306 1.379 . S
C1306 H1290 0.931 . S
C1306 C1300 1.383 . S
C1306 C1305 1.379 . S
H1307 C1301 0.959 . S
H1308 C1301 0.961 . S
H1309 C1301 0.960 . S
H1310 C1302 0.930 . S
H1311 C1303 0.929 . S
H1312 C1320 0.929 . S
H1313 C1322 0.930 . S
H1314 C1324 0.930 . S
H1315 C1327 0.929 . S
H1316 C1330 0.930 . S
H1317 C1332 0.960 . S
H1318 C1332 0.960 . S
H1319 C1332 0.960 . S
C1320 H1312 0.929 . S
C1320 C1321 1.377 . S
C1320 C1322 1.384 . S
C1321 C1320 1.377 . S
C1321 C1327 1.390 . S
C1322 H1313 0.930 . S
C1322 C1320 1.384 . S
C1322 C1323 1.372 . S
C1323 C1322 1.372 . S
C1323 C1324 1.400 . S
C1323 C1328 1.490 . S
C1324 H1314 0.930 . S
C1324 C1323 1.400 . S
C1324 C1327 1.386 . S
H1325 C1341 0.930 . S
H1326 C1342 0.931 . S
C1327 H1315 0.929 . S
C1327 C1321 1.390 . S
C1327 C1324 1.386 . S
C1328 C1323 1.490 . S
C1328 C1330 1.395 . S
C1328 C1331 1.403 . S
H1329 C1335 0.930 . S
C1330 H1316 0.930 . S
C1330 C1328 1.395 . S
C1330 C1333 1.403 . S
C1331 C1328 1.403 . S
C1331 C1332 1.524 . S
C1331 C1335 1.400 . S
C1332 H1317 0.960 . S
C1332 H1318 0.960 . S
C1332 H1319 0.960 . S
C1332 C1331 1.524 . S
C1333 C1330 1.403 . S
C1333 C1334 1.392 . S
C1333 C1337 1.495 . S
C1334 C1333 1.392 . S
C1334 C1335 1.385 . S
C1334 C1336 1.478 . S
C1335 H1329 0.930 . S
C1335 C1331 1.400 . S
C1335 C1334 1.385 . S
C1336 C1334 1.478 . S
C1336 C1338 1.381 . S
C1336 C1342 1.383 . S
C1337 C1333 1.495 . S
C1337 H1343 0.959 . S
C1337 H1344 0.961 . S
C1337 H1345 0.960 . S
C1338 C1336 1.381 . S
C1338 C1339 1.394 . S
C1338 H1346 0.930 . S
C1339 C1338 1.394 . S
C1339 C1340 1.383 . S
C1339 H1347 0.929 . S
C1340 C1339 1.383 . S
C1340 C1341 1.377 . S
C1341 H1325 0.930 . S
C1341 C1340 1.377 . S
C1341 C1342 1.379 . S
C1342 H1326 0.931 . S
C1342 C1336 1.383 . S
C1342 C1341 1.379 . S
H1343 C1337 0.959 . S
H1344 C1337 0.961 . S
H1345 C1337 0.960 . S
H1346 C1338 0.930 . S
H1347 C1339 0.929 . S
H1348 C1356 0.929 . S
H1349 C1358 0.930 . S
H1350 C1360 0.930 . S
H1351 C1363 0.929 . S
H1352 C1366 0.930 . S
H1353 C1368 0.960 . S
H1354 C1368 0.960 . S
H1355 C1368 0.960 . S
C1356 H1348 0.929 . S
C1356 C1357 1.377 . S
C1356 C1358 1.384 . S
C1357 C1356 1.377 . S
C1357 C1363 1.390 . S
C1358 H1349 0.930 . S
C1358 C1356 1.384 . S
C1358 C1359 1.372 . S
C1359 C1358 1.372 . S
C1359 C1360 1.400 . S
C1359 C1364 1.490 . S
C1360 H1350 0.930 . S
C1360 C1359 1.400 . S
C1360 C1363 1.386 . S
H1361 C1377 0.930 . S
H1362 C1378 0.931 . S
C1363 H1351 0.929 . S
C1363 C1357 1.390 . S
C1363 C1360 1.386 . S
C1364 C1359 1.490 . S
C1364 C1366 1.395 . S
C1364 C1367 1.403 . S
H1365 C1371 0.930 . S
C1366 H1352 0.930 . S
C1366 C1364 1.395 . S
C1366 C1369 1.403 . S
C1367 C1364 1.403 . S
C1367 C1368 1.524 . S
C1367 C1371 1.400 . S
C1368 H1353 0.960 . S
C1368 H1354 0.960 . S
C1368 H1355 0.960 . S
C1368 C1367 1.524 . S
C1369 C1366 1.403 . S
C1369 C1370 1.392 . S
C1369 C1373 1.495 . S
C1370 C1369 1.392 . S
C1370 C1371 1.385 . S
C1370 C1372 1.478 . S
C1371 H1365 0.930 . S
C1371 C1367 1.400 . S
C1371 C1370 1.385 . S
C1372 C1370 1.478 . S
C1372 C1374 1.381 . S
C1372 C1378 1.383 . S
C1373 C1369 1.495 . S
C1373 H1379 0.959 . S
C1373 H1380 0.961 . S
C1373 H1381 0.960 . S
C1374 C1372 1.381 . S
C1374 C1375 1.394 . S
C1374 H1382 0.930 . S
C1375 C1374 1.394 . S
C1375 C1376 1.383 . S
C1375 H1383 0.929 . S
C1376 C1375 1.383 . S
C1376 C1377 1.377 . S
C1377 H1361 0.930 . S
C1377 C1376 1.377 . S
C1377 C1378 1.379 . S
C1378 H1362 0.931 . S
C1378 C1372 1.383 . S
C1378 C1377 1.379 . S
H1379 C1373 0.959 . S
H1380 C1373 0.961 . S
H1381 C1373 0.960 . S
H1382 C1374 0.930 . S
H1383 C1375 0.929 . S
H1384 C1392 0.929 . S
H1385 C1394 0.930 . S
H1386 C1396 0.930 . S
H1387 C1399 0.929 . S
H1388 C1402 0.930 . S
H1389 C1404 0.960 . S
H1390 C1404 0.960 . S
H1391 C1404 0.960 . S
C1392 H1384 0.929 . S
C1392 C1393 1.377 . S
C1392 C1394 1.384 . S
C1393 C1392 1.377 . S
C1393 C1399 1.390 . S
C1394 H1385 0.930 . S
C1394 C1392 1.384 . S
C1394 C1395 1.372 . S
C1395 C1394 1.372 . S
C1395 C1396 1.400 . S
C1395 C1400 1.490 . S
C1396 H1386 0.930 . S
C1396 C1395 1.400 . S
C1396 C1399 1.386 . S
H1397 C1413 0.930 . S
H1398 C1414 0.931 . S
C1399 H1387 0.929 . S
C1399 C1393 1.390 . S
C1399 C1396 1.386 . S
C1400 C1395 1.490 . S
C1400 C1402 1.395 . S
C1400 C1403 1.403 . S
H1401 C1407 0.930 . S
C1402 H1388 0.930 . S
C1402 C1400 1.395 . S
C1402 C1405 1.403 . S
C1403 C1400 1.403 . S
C1403 C1404 1.524 . S
C1403 C1407 1.400 . S
C1404 H1389 0.960 . S
C1404 H1390 0.960 . S
C1404 H1391 0.960 . S
C1404 C1403 1.524 . S
C1405 C1402 1.403 . S
C1405 C1406 1.392 . S
C1405 C1409 1.495 . S
C1406 C1405 1.392 . S
C1406 C1407 1.385 . S
C1406 C1408 1.478 . S
C1407 H1401 0.930 . S
C1407 C1403 1.400 . S
C1407 C1406 1.385 . S
C1408 C1406 1.478 . S
C1408 C1410 1.381 . S
C1408 C1414 1.383 . S
C1409 C1405 1.495 . S
C1409 H1415 0.959 . S
C1409 H1416 0.961 . S
C1409 H1417 0.960 . S
C1410 C1408 1.381 . S
C1410 C1411 1.394 . S
C1410 H1418 0.930 . S
C1411 C1410 1.394 . S
C1411 C1412 1.383 . S
C1411 H1419 0.929 . S
C1412 C1411 1.383 . S
C1412 C1413 1.377 . S
C1413 H1397 0.930 . S
C1413 C1412 1.377 . S
C1413 C1414 1.379 . S
C1414 H1398 0.931 . S
C1414 C1408 1.383 . S
C1414 C1413 1.379 . S
H1415 C1409 0.959 . S
H1416 C1409 0.961 . S
H1417 C1409 0.960 . S
H1418 C1410 0.930 . S
H1419 C1411 0.929 . S
H1420 C1428 0.929 . S
H1421 C1430 0.930 . S
H1422 C1432 0.930 . S
H1423 C1435 0.929 . S
H1424 C1438 0.930 . S
H1425 C1440 0.960 . S
H1426 C1440 0.960 . S
H1427 C1440 0.960 . S
C1428 H1420 0.929 . S
C1428 C1429 1.377 . S
C1428 C1430 1.384 . S
C1429 C1428 1.377 . S
C1429 C1435 1.390 . S
C1430 H1421 0.930 . S
C1430 C1428 1.384 . S
C1430 C1431 1.372 . S
C1431 C1430 1.372 . S
C1431 C1432 1.400 . S
C1431 C1436 1.490 . S
C1432 H1422 0.930 . S
C1432 C1431 1.400 . S
C1432 C1435 1.386 . S
H1433 C1449 0.930 . S
H1434 C1450 0.931 . S
C1435 H1423 0.929 . S
C1435 C1429 1.390 . S
C1435 C1432 1.386 . S
C1436 C1431 1.490 . S
C1436 C1438 1.395 . S
C1436 C1439 1.403 . S
H1437 C1443 0.930 . S
C1438 H1424 0.930 . S
C1438 C1436 1.395 . S
C1438 C1441 1.403 . S
C1439 C1436 1.403 . S
C1439 C1440 1.524 . S
C1439 C1443 1.400 . S
C1440 H1425 0.960 . S
C1440 H1426 0.960 . S
C1440 H1427 0.960 . S
C1440 C1439 1.524 . S
C1441 C1438 1.403 . S
C1441 C1442 1.392 . S
C1441 C1445 1.495 . S
C1442 C1441 1.392 . S
C1442 C1443 1.385 . S
C1442 C1444 1.478 . S
C1443 H1437 0.930 . S
C1443 C1439 1.400 . S
C1443 C1442 1.385 . S
C1444 C1442 1.478 . S
C1444 C1446 1.381 . S
C1444 C1450 1.383 . S
C1445 C1441 1.495 . S
C1445 H1451 0.959 . S
C1445 H1452 0.961 . S
C1445 H1453 0.960 . S
C1446 C1444 1.381 . S
C1446 C1447 1.394 . S
C1446 H1454 0.930 . S
C1447 C1446 1.394 . S
C1447 C1448 1.383 . S
C1447 H1455 0.929 . S
C1448 C1447 1.383 . S
C1448 C1449 1.377 . S
C1449 H1433 0.930 . S
C1449 C1448 1.377 . S
C1449 C1450 1.379 . S
C1450 H1434 0.931 . S
C1450 C1444 1.383 . S
C1450 C1449 1.379 . S
H1451 C1445 0.959 . S
H1452 C1445 0.961 . S
H1453 C1445 0.960 . S
H1454 C1446 0.930 . S
H1455 C1447 0.929 . S
H1456 C1464 0.929 . S
H1457 C1466 0.930 . S
H1458 C1468 0.930 . S
H1459 C1471 0.929 . S
H1460 C1474 0.930 . S
H1461 C1476 0.960 . S
H1462 C1476 0.960 . S
H1463 C1476 0.960 . S
C1464 H1456 0.929 . S
C1464 C1465 1.377 . S
C1464 C1466 1.384 . S
C1465 C1464 1.377 . S
C1465 C1471 1.390 . S
C1466 H1457 0.930 . S
C1466 C1464 1.384 . S
C1466 C1467 1.372 . S
C1467 C1466 1.372 . S
C1467 C1468 1.400 . S
C1467 C1472 1.490 . S
C1468 H1458 0.930 . S
C1468 C1467 1.400 . S
C1468 C1471 1.386 . S
H1469 C1485 0.930 . S
H1470 C1486 0.931 . S
C1471 H1459 0.929 . S
C1471 C1465 1.390 . S
C1471 C1468 1.386 . S
C1472 C1467 1.490 . S
C1472 C1474 1.395 . S
C1472 C1475 1.403 . S
H1473 C1479 0.930 . S
C1474 H1460 0.930 . S
C1474 C1472 1.395 . S
C1474 C1477 1.403 . S
C1475 C1472 1.403 . S
C1475 C1476 1.524 . S
C1475 C1479 1.400 . S
C1476 H1461 0.960 . S
C1476 H1462 0.960 . S
C1476 H1463 0.960 . S
C1476 C1475 1.524 . S
C1477 C1474 1.403 . S
C1477 C1478 1.392 . S
C1477 C1481 1.495 . S
C1478 C1477 1.392 . S
C1478 C1479 1.385 . S
C1478 C1480 1.478 . S
C1479 H1473 0.930 . S
C1479 C1475 1.400 . S
C1479 C1478 1.385 . S
C1480 C1478 1.478 . S
C1480 C1482 1.381 . S
C1480 C1486 1.383 . S
C1481 C1477 1.495 . S
C1481 H1487 0.959 . S
C1481 H1488 0.961 . S
C1481 H1489 0.960 . S
C1482 C1480 1.381 . S
C1482 C1483 1.394 . S
C1482 H1490 0.930 . S
C1483 C1482 1.394 . S
C1483 C1484 1.383 . S
C1483 H1491 0.929 . S
C1484 C1483 1.383 . S
C1484 C1485 1.377 . S
C1485 H1469 0.930 . S
C1485 C1484 1.377 . S
C1485 C1486 1.379 . S
C1486 H1470 0.931 . S
C1486 C1480 1.383 . S
C1486 C1485 1.379 . S
H1487 C1481 0.959 . S
H1488 C1481 0.961 . S
H1489 C1481 0.960 . S
H1490 C1482 0.930 . S
H1491 C1483 0.929 . S
H1492 C1500 0.929 . S
H1493 C1502 0.930 . S
H1494 C1504 0.930 . S
H1495 C1507 0.929 . S
H1496 C1510 0.930 . S
H1497 C1512 0.960 . S
H1498 C1512 0.960 . S
H1499 C1512 0.960 . S
C1500 H1492 0.929 . S
C1500 C1501 1.377 . S
C1500 C1502 1.384 . S
C1501 C1500 1.377 . S
C1501 C1507 1.390 . S
C1502 H1493 0.930 . S
C1502 C1500 1.384 . S
C1502 C1503 1.372 . S
C1503 C1502 1.372 . S
C1503 C1504 1.400 . S
C1503 C1508 1.490 . S
C1504 H1494 0.930 . S
C1504 C1503 1.400 . S
C1504 C1507 1.386 . S
H1505 C1521 0.930 . S
H1506 C1522 0.931 . S
C1507 H1495 0.929 . S
C1507 C1501 1.390 . S
C1507 C1504 1.386 . S
C1508 C1503 1.490 . S
C1508 C1510 1.395 . S
C1508 C1511 1.403 . S
H1509 C1515 0.930 . S
C1510 H1496 0.930 . S
C1510 C1508 1.395 . S
C1510 C1513 1.403 . S
C1511 C1508 1.403 . S
C1511 C1512 1.524 . S
C1511 C1515 1.400 . S
C1512 H1497 0.960 . S
C1512 H1498 0.960 . S
C1512 H1499 0.960 . S
C1512 C1511 1.524 . S
C1513 C1510 1.403 . S
C1513 C1514 1.392 . S
C1513 C1517 1.495 . S
C1514 C1513 1.392 . S
C1514 C1515 1.385 . S
C1514 C1516 1.478 . S
C1515 H1509 0.930 . S
C1515 C1511 1.400 . S
C1515 C1514 1.385 . S
C1516 C1514 1.478 . S
C1516 C1518 1.381 . S
C1516 C1522 1.383 . S
C1517 C1513 1.495 . S
C1517 H1523 0.959 . S
C1517 H1524 0.961 . S
C1517 H1525 0.960 . S
C1518 C1516 1.381 . S
C1518 C1519 1.394 . S
C1518 H1526 0.930 . S
C1519 C1518 1.394 . S
C1519 C1520 1.383 . S
C1519 H1527 0.929 . S
C1520 C1519 1.383 . S
C1520 C1521 1.377 . S
C1521 H1505 0.930 . S
C1521 C1520 1.377 . S
C1521 C1522 1.379 . S
C1522 H1506 0.931 . S
C1522 C1516 1.383 . S
C1522 C1521 1.379 . S
H1523 C1517 0.959 . S
H1524 C1517 0.961 . S
H1525 C1517 0.960 . S
H1526 C1518 0.930 . S
H1527 C1519 0.929 . S
H1528 C1536 0.929 . S
H1529 C1538 0.930 . S
H1530 C1540 0.930 . S
H1531 C1543 0.929 . S
H1532 C1546 0.930 . S
H1533 C1548 0.960 . S
H1534 C1548 0.960 . S
H1535 C1548 0.960 . S
C1536 H1528 0.929 . S
C1536 C1537 1.377 . S
C1536 C1538 1.384 . S
C1537 C1536 1.377 . S
C1537 C1543 1.390 . S
C1538 H1529 0.930 . S
C1538 C1536 1.384 . S
C1538 C1539 1.372 . S
C1539 C1538 1.372 . S
C1539 C1540 1.400 . S
C1539 C1544 1.490 . S
C1540 H1530 0.930 . S
C1540 C1539 1.400 . S
C1540 C1543 1.386 . S
H1541 C1557 0.930 . S
H1542 C1558 0.931 . S
C1543 H1531 0.929 . S
C1543 C1537 1.390 . S
C1543 C1540 1.386 . S
C1544 C1539 1.490 . S
C1544 C1546 1.395 . S
C1544 C1547 1.403 . S
H1545 C1551 0.930 . S
C1546 H1532 0.930 . S
C1546 C1544 1.395 . S
C1546 C1549 1.403 . S
C1547 C1544 1.403 . S
C1547 C1548 1.524 . S
C1547 C1551 1.400 . S
C1548 H1533 0.960 . S
C1548 H1534 0.960 . S
C1548 H1535 0.960 . S
C1548 C1547 1.524 . S
C1549 C1546 1.403 . S
C1549 C1550 1.392 . S
C1549 C1553 1.495 . S
C1550 C1549 1.392 . S
C1550 C1551 1.385 . S
C1550 C1552 1.478 . S
C1551 H1545 0.930 . S
C1551 C1547 1.400 . S
C1551 C1550 1.385 . S
C1552 C1550 1.478 . S
C1552 C1554 1.381 . S
C1552 C1558 1.383 . S
C1553 C1549 1.495 . S
C1553 H1559 0.959 . S
C1553 H1560 0.961 . S
C1553 H1561 0.960 . S
C1554 C1552 1.381 . S
C1554 C1555 1.394 . S
C1554 H1562 0.930 . S
C1555 C1554 1.394 . S
C1555 C1556 1.383 . S
C1555 H1563 0.929 . S
C1556 C1555 1.383 . S
C1556 C1557 1.377 . S
C1557 H1541 0.930 . S
C1557 C1556 1.377 . S
C1557 C1558 1.379 . S
C1558 H1542 0.931 . S
C1558 C1552 1.383 . S
C1558 C1557 1.379 . S
H1559 C1553 0.959 . S
H1560 C1553 0.961 . S
H1561 C1553 0.960 . S
H1562 C1554 0.930 . S
H1563 C1555 0.929 . S
H1564 C1572 0.929 . S
H1565 C1574 0.930 . S
H1566 C1576 0.930 . S
H1567 C1579 0.929 . S
H1568 C1582 0.930 . S
H1569 C1584 0.960 . S
H1570 C1584 0.960 . S
H1571 C1584 0.960 . S
C1572 H1564 0.929 . S
C1572 C1573 1.377 . S
C1572 C1574 1.384 . S
C1573 C1572 1.377 . S
C1573 C1579 1.390 . S
C1574 H1565 0.930 . S
C1574 C1572 1.384 . S
C1574 C1575 1.372 . S
C1575 C1574 1.372 . S
C1575 C1576 1.400 . S
C1575 C1580 1.490 . S
C1576 H1566 0.930 . S
C1576 C1575 1.400 . S
C1576 C1579 1.386 . S
H1577 C1593 0.930 . S
H1578 C1594 0.931 . S
C1579 H1567 0.929 . S
C1579 C1573 1.390 . S
C1579 C1576 1.386 . S
C1580 C1575 1.490 . S
C1580 C1582 1.395 . S
C1580 C1583 1.403 . S
H1581 C1587 0.930 . S
C1582 H1568 0.930 . S
C1582 C1580 1.395 . S
C1582 C1585 1.403 . S
C1583 C1580 1.403 . S
C1583 C1584 1.524 . S
C1583 C1587 1.400 . S
C1584 H1569 0.960 . S
C1584 H1570 0.960 . S
C1584 H1571 0.960 . S
C1584 C1583 1.524 . S
C1585 C1582 1.403 . S
C1585 C1586 1.392 . S
C1585 C1589 1.495 . S
C1586 C1585 1.392 . S
C1586 C1587 1.385 . S
C1586 C1588 1.478 . S
C1587 H1581 0.930 . S
C1587 C1583 1.400 . S
C1587 C1586 1.385 . S
C1588 C1586 1.478 . S
C1588 C1590 1.381 . S
C1588 C1594 1.383 . S
C1589 C1585 1.495 . S
C1589 H1595 0.959 . S
C1589 H1596 0.961 . S
C1589 H1597 0.960 . S
C1590 C1588 1.381 . S
C1590 C1591 1.394 . S
C1590 H1598 0.930 . S
C1591 C1590 1.394 . S
C1591 C1592 1.383 . S
C1591 H1599 0.929 . S
C1592 C1591 1.383 . S
C1592 C1593 1.377 . S
C1593 H1577 0.930 . S
C1593 C1592 1.377 . S
C1593 C1594 1.379 . S
C1594 H1578 0.931 . S
C1594 C1588 1.383 . S
C1594 C1593 1.379 . S
H1595 C1589 0.959 . S
H1596 C1589 0.961 . S
H1597 C1589 0.960 . S
H1598 C1590 0.930 . S
H1599 C1591 0.929 . S
H1600 C1608 0.929 . S
H1601 C1610 0.930 . S
H1602 C1612 0.930 . S
H1603 C1615 0.929 . S
H1604 C1618 0.930 . S
H1605 C1620 0.960 . S
H1606 C1620 0.960 . S
H1607 C1620 0.960 . S
C1608 H1600 0.929 . S
C1608 C1609 1.377 . S
C1608 C1610 1.384 . S
C1609 C1608 1.377 . S
C1609 C1615 1.390 . S
C1610 H1601 0.930 . S
C1610 C1608 1.384 . S
C1610 C1611 1.372 . S
C1611 C1610 1.372 . S
C1611 C1612 1.400 . S
C1611 C1616 1.490 . S
C1612 H1602 0.930 . S
C1612 C1611 1.400 . S
C1612 C1615 1.386 . S
H1613 C1629 0.930 . S
H1614 C1630 0.931 . S
C1615 H1603 0.929 . S
C1615 C1609 1.390 . S
C1615 C1612 1.386 . S
C1616 C1611 1.490 . S
C1616 C1618 1.395 . S
C1616 C1619 1.403 . S
H1617 C1623 0.930 . S
C1618 H1604 0.930 . S
C1618 C1616 1.395 . S
C1618 C1621 1.403 . S
C1619 C1616 1.403 . S
C1619 C1620 1.524 . S
C1619 C1623 1.400 . S
C1620 H1605 0.960 . S
C1620 H1606 0.960 . S
C1620 H1607 0.960 . S
C1620 C1619 1.524 . S
C1621 C1618 1.403 . S
C1621 C1622 1.392 . S
C1621 C1625 1.495 . S
C1622 C1621 1.392 . S
C1622 C1623 1.385 . S
C1622 C1624 1.478 . S
C1623 H1617 0.930 . S
C1623 C1619 1.400 . S
C1623 C1622 1.385 . S
C1624 C1622 1.478 . S
C1624 C1626 1.381 . S
C1624 C1630 1.383 . S
C1625 C1621 1.495 . S
C1625 H1631 0.959 . S
C1625 H1632 0.961 . S
C1625 H1633 0.960 . S
C1626 C1624 1.381 . S
C1626 C1627 1.394 . S
C1626 H1634 0.930 . S
C1627 C1626 1.394 . S
C1627 C1628 1.383 . S
C1627 H1635 0.929 . S
C1628 C1627 1.383 . S
C1628 C1629 1.377 . S
C1629 H1613 0.930 . S
C1629 C1628 1.377 . S
C1629 C1630 1.379 . S
C1630 H1614 0.931 . S
C1630 C1624 1.383 . S
C1630 C1629 1.379 . S
H1631 C1625 0.959 . S
H1632 C1625 0.961 . S
H1633 C1625 0.960 . S
H1634 C1626 0.930 . S
H1635 C1627 0.929 . S
H1636 C1644 0.929 . S
H1637 C1646 0.930 . S
H1638 C1648 0.930 . S
H1639 C1651 0.929 . S
H1640 C1654 0.930 . S
H1641 C1656 0.960 . S
H1642 C1656 0.960 . S
H1643 C1656 0.960 . S
C1644 H1636 0.929 . S
C1644 C1645 1.377 . S
C1644 C1646 1.384 . S
C1645 C1644 1.377 . S
C1645 C1651 1.390 . S
C1646 H1637 0.930 . S
C1646 C1644 1.384 . S
C1646 C1647 1.372 . S
C1647 C1646 1.372 . S
C1647 C1648 1.400 . S
C1647 C1652 1.490 . S
C1648 H1638 0.930 . S
C1648 C1647 1.400 . S
C1648 C1651 1.386 . S
H1649 C1665 0.930 . S
H1650 C1666 0.931 . S
C1651 H1639 0.929 . S
C1651 C1645 1.390 . S
C1651 C1648 1.386 . S
C1652 C1647 1.490 . S
C1652 C1654 1.395 . S
C1652 C1655 1.403 . S
H1653 C1659 0.930 . S
C1654 H1640 0.930 . S
C1654 C1652 1.395 . S
C1654 C1657 1.403 . S
C1655 C1652 1.403 . S
C1655 C1656 1.524 . S
C1655 C1659 1.400 . S
C1656 H1641 0.960 . S
C1656 H1642 0.960 . S
C1656 H1643 0.960 . S
C1656 C1655 1.524 . S
C1657 C1654 1.403 . S
C1657 C1658 1.392 . S
C1657 C1661 1.495 . S
C1658 C1657 1.392 . S
C1658 C1659 1.385 . S
C1658 C1660 1.478 . S
C1659 H1653 0.930 . S
C1659 C1655 1.400 . S
C1659 C1658 1.385 . S
C1660 C1658 1.478 . S
C1660 C1662 1.381 . S
C1660 C1666 1.383 . S
C1661 C1657 1.495 . S
C1661 H1667 0.959 . S
C1661 H1668 0.961 . S
C1661 H1669 0.960 . S
C1662 C1660 1.381 . S
C1662 C1663 1.394 . S
C1662 H1670 0.930 . S
C1663 C1662 1.394 . S
C1663 C1664 1.383 . S
C1663 H1671 0.929 . S
C1664 C1663 1.383 . S
C1664 C1665 1.377 . S
C1665 H1649 0.930 . S
C1665 C1664 1.377 . S
C1665 C1666 1.379 . S
C1666 H1650 0.931 . S
C1666 C1660 1.383 . S
C1666 C1665 1.379 . S
H1667 C1661 0.959 . S
H1668 C1661 0.961 . S
H1669 C1661 0.960 . S
H1670 C1662 0.930 . S
H1671 C1663 0.929 . S
H1672 C1680 0.929 . S
H1673 C1682 0.930 . S
H1674 C1684 0.930 . S
H1675 C1687 0.929 . S
H1676 C1690 0.930 . S
H1677 C1692 0.960 . S
H1678 C1692 0.960 . S
H1679 C1692 0.960 . S
C1680 H1672 0.929 . S
C1680 C1681 1.377 . S
C1680 C1682 1.384 . S
C1681 C1680 1.377 . S
C1681 C1687 1.390 . S
C1682 H1673 0.930 . S
C1682 C1680 1.384 . S
C1682 C1683 1.372 . S
C1683 C1682 1.372 . S
C1683 C1684 1.400 . S
C1683 C1688 1.490 . S
C1684 H1674 0.930 . S
C1684 C1683 1.400 . S
C1684 C1687 1.386 . S
H1685 C1701 0.930 . S
H1686 C1702 0.931 . S
C1687 H1675 0.929 . S
C1687 C1681 1.390 . S
C1687 C1684 1.386 . S
C1688 C1683 1.490 . S
C1688 C1690 1.395 . S
C1688 C1691 1.403 . S
H1689 C1695 0.930 . S
C1690 H1676 0.930 . S
C1690 C1688 1.395 . S
C1690 C1693 1.403 . S
C1691 C1688 1.403 . S
C1691 C1692 1.524 . S
C1691 C1695 1.400 . S
C1692 H1677 0.960 . S
C1692 H1678 0.960 . S
C1692 H1679 0.960 . S
C1692 C1691 1.524 . S
C1693 C1690 1.403 . S
C1693 C1694 1.392 . S
C1693 C1697 1.495 . S
C1694 C1693 1.392 . S
C1694 C1695 1.385 . S
C1694 C1696 1.478 . S
C1695 H1689 0.930 . S
C1695 C1691 1.400 . S
C1695 C1694 1.385 . S
C1696 C1694 1.478 . S
C1696 C1698 1.381 . S
C1696 C1702 1.383 . S
C1697 C1693 1.495 . S
C1697 H1703 0.959 . S
C1697 H1704 0.961 . S
C1697 H1705 0.960 . S
C1698 C1696 1.381 . S
C1698 C1699 1.394 . S
C1698 H1706 0.930 . S
C1699 C1698 1.394 . S
C1699 C1700 1.383 . S
C1699 H1707 0.929 . S
C1700 C1699 1.383 . S
C1700 C1701 1.377 . S
C1701 H1685 0.930 . S
C1701 C1700 1.377 . S
C1701 C1702 1.379 . S
C1702 H1686 0.931 . S
C1702 C1696 1.383 . S
C1702 C1701 1.379 . S
H1703 C1697 0.959 . S
H1704 C1697 0.961 . S
H1705 C1697 0.960 . S
H1706 C1698 0.930 . S
H1707 C1699 0.929 . S
H1708 C1716 0.929 . S
H1709 C1718 0.930 . S
H1710 C1720 0.930 . S
H1711 C1723 0.929 . S
H1712 C1726 0.930 . S
H1713 C1728 0.960 . S
H1714 C1728 0.960 . S
H1715 C1728 0.960 . S
C1716 H1708 0.929 . S
C1716 C1717 1.377 . S
C1716 C1718 1.384 . S
C1717 C1716 1.377 . S
C1717 C1723 1.390 . S
C1718 H1709 0.930 . S
C1718 C1716 1.384 . S
C1718 C1719 1.372 . S
C1719 C1718 1.372 . S
C1719 C1720 1.400 . S
C1719 C1724 1.490 . S
C1720 H1710 0.930 . S
C1720 C1719 1.400 . S
C1720 C1723 1.386 . S
H1721 C1737 0.930 . S
H1722 C1738 0.931 . S
C1723 H1711 0.929 . S
C1723 C1717 1.390 . S
C1723 C1720 1.386 . S
C1724 C1719 1.490 . S
C1724 C1726 1.395 . S
C1724 C1727 1.403 . S
H1725 C1731 0.930 . S
C1726 H1712 0.930 . S
C1726 C1724 1.395 . S
C1726 C1729 1.403 . S
C1727 C1724 1.403 . S
C1727 C1728 1.524 . S
C1727 C1731 1.400 . S
C1728 H1713 0.960 . S
C1728 H1714 0.960 . S
C1728 H1715 0.960 . S
C1728 C1727 1.524 . S
C1729 C1726 1.403 . S
C1729 C1730 1.392 . S
C1729 C1733 1.495 . S
C1730 C1729 1.392 . S
C1730 C1731 1.385 . S
C1730 C1732 1.478 . S
C1731 H1725 0.930 . S
C1731 C1727 1.400 . S
C1731 C1730 1.385 . S
C1732 C1730 1.478 . S
C1732 C1734 1.381 . S
C1732 C1738 1.383 . S
C1733 C1729 1.495 . S
C1733 H1739 0.959 . S
C1733 H1740 0.961 . S
C1733 H1741 0.960 . S
C1734 C1732 1.381 . S
C1734 C1735 1.394 . S
C1734 H1742 0.930 . S
C1735 C1734 1.394 . S
C1735 C1736 1.383 . S
C1735 H1743 0.929 . S
C1736 C1735 1.383 . S
C1736 C1737 1.377 . S
C1737 H1721 0.930 . S
C1737 C1736 1.377 . S
C1737 C1738 1.379 . S
C1738 H1722 0.931 . S
C1738 C1732 1.383 . S
C1738 C1737 1.379 . S
H1739 C1733 0.959 . S
H1740 C1733 0.961 . S
H1741 C1733 0.960 . S
H1742 C1734 0.930 . S
H1743 C1735 0.929 . S
H1744 C1752 0.929 . S
H1745 C1754 0.930 . S
H1746 C1756 0.930 . S
H1747 C1759 0.929 . S
H1748 C1762 0.930 . S
H1749 C1764 0.960 . S
H1750 C1764 0.960 . S
H1751 C1764 0.960 . S
C1752 H1744 0.929 . S
C1752 C1753 1.377 . S
C1752 C1754 1.384 . S
C1753 C1752 1.377 . S
C1753 C1759 1.390 . S
C1754 H1745 0.930 . S
C1754 C1752 1.384 . S
C1754 C1755 1.372 . S
C1755 C1754 1.372 . S
C1755 C1756 1.400 . S
C1755 C1760 1.490 . S
C1756 H1746 0.930 . S
C1756 C1755 1.400 . S
C1756 C1759 1.386 . S
H1757 C1773 0.930 . S
H1758 C1774 0.931 . S
C1759 H1747 0.929 . S
C1759 C1753 1.390 . S
C1759 C1756 1.386 . S
C1760 C1755 1.490 . S
C1760 C1762 1.395 . S
C1760 C1763 1.403 . S
H1761 C1767 0.930 . S
C1762 H1748 0.930 . S
C1762 C1760 1.395 . S
C1762 C1765 1.403 . S
C1763 C1760 1.403 . S
C1763 C1764 1.524 . S
C1763 C1767 1.400 . S
C1764 H1749 0.960 . S
C1764 H1750 0.960 . S
C1764 H1751 0.960 . S
C1764 C1763 1.524 . S
C1765 C1762 1.403 . S
C1765 C1766 1.392 . S
C1765 C1769 1.495 . S
C1766 C1765 1.392 . S
C1766 C1767 1.385 . S
C1766 C1768 1.478 . S
C1767 H1761 0.930 . S
C1767 C1763 1.400 . S
C1767 C1766 1.385 . S
C1768 C1766 1.478 . S
C1768 C1770 1.381 . S
C1768 C1774 1.383 . S
C1769 C1765 1.495 . S
C1769 H1775 0.959 . S
C1769 H1776 0.961 . S
C1769 H1777 0.960 . S
C1770 C1768 1.381 . S
C1770 C1771 1.394 . S
C1770 H1778 0.930 . S
C1771 C1770 1.394 . S
C1771 C1772 1.383 . S
C1771 H1779 0.929 . S
C1772 C1771 1.383 . S
C1772 C1773 1.377 . S
C1773 H1757 0.930 . S
C1773 C1772 1.377 . S
C1773 C1774 1.379 . S
C1774 H1758 0.931 . S
C1774 C1768 1.383 . S
C1774 C1773 1.379 . S
H1775 C1769 0.959 . S
H1776 C1769 0.961 . S
H1777 C1769 0.960 . S
H1778 C1770 0.930 . S
H1779 C1771 0.929 . S
H1780 C1788 0.929 . S
H1781 C1790 0.930 . S
H1782 C1792 0.930 . S
H1783 C1795 0.929 . S
H1784 C1798 0.930 . S
H1785 C1800 0.960 . S
H1786 C1800 0.960 . S
H1787 C1800 0.960 . S
C1788 H1780 0.929 . S
C1788 C1789 1.377 . S
C1788 C1790 1.384 . S
C1789 C1788 1.377 . S
C1789 C1795 1.390 . S
C1790 H1781 0.930 . S
C1790 C1788 1.384 . S
C1790 C1791 1.372 . S
C1791 C1790 1.372 . S
C1791 C1792 1.400 . S
C1791 C1796 1.490 . S
C1792 H1782 0.930 . S
C1792 C1791 1.400 . S
C1792 C1795 1.386 . S
H1793 C1809 0.930 . S
H1794 C1810 0.931 . S
C1795 H1783 0.929 . S
C1795 C1789 1.390 . S
C1795 C1792 1.386 . S
C1796 C1791 1.490 . S
C1796 C1798 1.395 . S
C1796 C1799 1.403 . S
H1797 C1803 0.930 . S
C1798 H1784 0.930 . S
C1798 C1796 1.395 . S
C1798 C1801 1.403 . S
C1799 C1796 1.403 . S
C1799 C1800 1.524 . S
C1799 C1803 1.400 . S
C1800 H1785 0.960 . S
C1800 H1786 0.960 . S
C1800 H1787 0.960 . S
C1800 C1799 1.524 . S
C1801 C1798 1.403 . S
C1801 C1802 1.392 . S
C1801 C1805 1.495 . S
C1802 C1801 1.392 . S
C1802 C1803 1.385 . S
C1802 C1804 1.478 . S
C1803 H1797 0.930 . S
C1803 C1799 1.400 . S
C1803 C1802 1.385 . S
C1804 C1802 1.478 . S
C1804 C1806 1.381 . S
C1804 C1810 1.383 . S
C1805 C1801 1.495 . S
C1805 H1811 0.959 . S
C1805 H1812 0.961 . S
C1805 H1813 0.960 . S
C1806 C1804 1.381 . S
C1806 C1807 1.394 . S
C1806 H1814 0.930 . S
C1807 C1806 1.394 . S
C1807 C1808 1.383 . S
C1807 H1815 0.929 . S
C1808 C1807 1.383 . S
C1808 C1809 1.377 . S
C1809 H1793 0.930 . S
C1809 C1808 1.377 . S
C1809 C1810 1.379 . S
C1810 H1794 0.931 . S
C1810 C1804 1.383 . S
C1810 C1809 1.379 . S
H1811 C1805 0.959 . S
H1812 C1805 0.961 . S
H1813 C1805 0.960 . S
H1814 C1806 0.930 . S
H1815 C1807 0.929 . S
H1816 C1824 0.929 . S
H1817 C1826 0.930 . S
H1818 C1828 0.930 . S
H1819 C1831 0.929 . S
H1820 C1834 0.930 . S
H1821 C1836 0.960 . S
H1822 C1836 0.960 . S
H1823 C1836 0.960 . S
C1824 H1816 0.929 . S
C1824 C1825 1.377 . S
C1824 C1826 1.384 . S
C1825 C1824 1.377 . S
C1825 C1831 1.390 . S
C1826 H1817 0.930 . S
C1826 C1824 1.384 . S
C1826 C1827 1.372 . S
C1827 C1826 1.372 . S
C1827 C1828 1.400 . S
C1827 C1832 1.490 . S
C1828 H1818 0.930 . S
C1828 C1827 1.400 . S
C1828 C1831 1.386 . S
H1829 C1845 0.930 . S
H1830 C1846 0.931 . S
C1831 H1819 0.929 . S
C1831 C1825 1.390 . S
C1831 C1828 1.386 . S
C1832 C1827 1.490 . S
C1832 C1834 1.395 . S
C1832 C1835 1.403 . S
H1833 C1839 0.930 . S
C1834 H1820 0.930 . S
C1834 C1832 1.395 . S
C1834 C1837 1.403 . S
C1835 C1832 1.403 . S
C1835 C1836 1.524 . S
C1835 C1839 1.400 . S
C1836 H1821 0.960 . S
C1836 H1822 0.960 . S
C1836 H1823 0.960 . S
C1836 C1835 1.524 . S
C1837 C1834 1.403 . S
C1837 C1838 1.392 . S
C1837 C1841 1.495 . S
C1838 C1837 1.392 . S
C1838 C1839 1.385 . S
C1838 C1840 1.478 . S
C1839 H1833 0.930 . S
C1839 C1835 1.400 . S
C1839 C1838 1.385 . S
C1840 C1838 1.478 . S
C1840 C1842 1.381 . S
C1840 C1846 1.383 . S
C1841 C1837 1.495 . S
C1841 H1847 0.959 . S
C1841 H1848 0.961 . S
C1841 H1849 0.960 . S
C1842 C1840 1.381 . S
C1842 C1843 1.394 . S
C1842 H1850 0.930 . S
C1843 C1842 1.394 . S
C1843 C1844 1.383 . S
C1843 H1851 0.929 . S
C1844 C1843 1.383 . S
C1844 C1845 1.377 . S
C1845 H1829 0.930 . S
C1845 C1844 1.377 . S
C1845 C1846 1.379 . S
C1846 H1830 0.931 . S
C1846 C1840 1.383 . S
C1846 C1845 1.379 . S
H1847 C1841 0.959 . S
H1848 C1841 0.961 . S
H1849 C1841 0.960 . S
H1850 C1842 0.930 . S
H1851 C1843 0.929 . S
H1852 C1860 0.929 . S
H1853 C1862 0.930 . S
H1854 C1864 0.930 . S
H1855 C1867 0.929 . S
H1856 C1870 0.930 . S
H1857 C1872 0.960 . S
H1858 C1872 0.960 . S
H1859 C1872 0.960 . S
C1860 H1852 0.929 . S
C1860 C1861 1.377 . S
C1860 C1862 1.384 . S
C1861 C1860 1.377 . S
C1861 C1867 1.390 . S
C1862 H1853 0.930 . S
C1862 C1860 1.384 . S
C1862 C1863 1.372 . S
C1863 C1862 1.372 . S
C1863 C1864 1.400 . S
C1863 C1868 1.490 . S
C1864 H1854 0.930 . S
C1864 C1863 1.400 . S
C1864 C1867 1.386 . S
H1865 C1881 0.930 . S
H1866 C1882 0.931 . S
C1867 H1855 0.929 . S
C1867 C1861 1.390 . S
C1867 C1864 1.386 . S
C1868 C1863 1.490 . S
C1868 C1870 1.395 . S
C1868 C1871 1.403 . S
H1869 C1875 0.930 . S
C1870 H1856 0.930 . S
C1870 C1868 1.395 . S
C1870 C1873 1.403 . S
C1871 C1868 1.403 . S
C1871 C1872 1.524 . S
C1871 C1875 1.400 . S
C1872 H1857 0.960 . S
C1872 H1858 0.960 . S
C1872 H1859 0.960 . S
C1872 C1871 1.524 . S
C1873 C1870 1.403 . S
C1873 C1874 1.392 . S
C1873 C1877 1.495 . S
C1874 C1873 1.392 . S
C1874 C1875 1.385 . S
C1874 C1876 1.478 . S
C1875 H1869 0.930 . S
C1875 C1871 1.400 . S
C1875 C1874 1.385 . S
C1876 C1874 1.478 . S
C1876 C1878 1.381 . S
C1876 C1882 1.383 . S
C1877 C1873 1.495 . S
C1877 H1883 0.959 . S
C1877 H1884 0.961 . S
C1877 H1885 0.960 . S
C1878 C1876 1.381 . S
C1878 C1879 1.394 . S
C1878 H1886 0.930 . S
C1879 C1878 1.394 . S
C1879 C1880 1.383 . S
C1879 H1887 0.929 . S
C1880 C1879 1.383 . S
C1880 C1881 1.377 . S
C1881 H1865 0.930 . S
C1881 C1880 1.377 . S
C1881 C1882 1.379 . S
C1882 H1866 0.931 . S
C1882 C1876 1.383 . S
C1882 C1881 1.379 . S
H1883 C1877 0.959 . S
H1884 C1877 0.961 . S
H1885 C1877 0.960 . S
H1886 C1878 0.930 . S
H1887 C1879 0.929 . S
H1888 C1896 0.929 . S
H1889 C1898 0.930 . S
H1890 C1900 0.930 . S
H1891 C1903 0.929 . S
H1892 C1906 0.930 . S
H1893 C1908 0.960 . S
H1894 C1908 0.960 . S
H1895 C1908 0.960 . S
C1896 H1888 0.929 . S
C1896 C1897 1.377 . S
C1896 C1898 1.384 . S
C1897 C1896 1.377 . S
C1897 C1903 1.390 . S
C1898 H1889 0.930 . S
C1898 C1896 1.384 . S
C1898 C1899 1.372 . S
C1899 C1898 1.372 . S
C1899 C1900 1.400 . S
C1899 C1904 1.490 . S
C1900 H1890 0.930 . S
C1900 C1899 1.400 . S
C1900 C1903 1.386 . S
H1901 C1917 0.930 . S
H1902 C1918 0.931 . S
C1903 H1891 0.929 . S
C1903 C1897 1.390 . S
C1903 C1900 1.386 . S
C1904 C1899 1.490 . S
C1904 C1906 1.395 . S
C1904 C1907 1.403 . S
H1905 C1911 0.930 . S
C1906 H1892 0.930 . S
C1906 C1904 1.395 . S
C1906 C1909 1.403 . S
C1907 C1904 1.403 . S
C1907 C1908 1.524 . S
C1907 C1911 1.400 . S
C1908 H1893 0.960 . S
C1908 H1894 0.960 . S
C1908 H1895 0.960 . S
C1908 C1907 1.524 . S
C1909 C1906 1.403 . S
C1909 C1910 1.392 . S
C1909 C1913 1.495 . S
C1910 C1909 1.392 . S
C1910 C1911 1.385 . S
C1910 C1912 1.478 . S
C1911 H1905 0.930 . S
C1911 C1907 1.400 . S
C1911 C1910 1.385 . S
C1912 C1910 1.478 . S
C1912 C1914 1.381 . S
C1912 C1918 1.383 . S
C1913 C1909 1.495 . S
C1913 H1919 0.959 . S
C1913 H1920 0.961 . S
C1913 H1921 0.960 . S
C1914 C1912 1.381 . S
C1914 C1915 1.394 . S
C1914 H1922 0.930 . S
C1915 C1914 1.394 . S
C1915 C1916 1.383 . S
C1915 H1923 0.929 . S
C1916 C1915 1.383 . S
C1916 C1917 1.377 . S
C1917 H1901 0.930 . S
C1917 C1916 1.377 . S
C1917 C1918 1.379 . S
C1918 H1902 0.931 . S
C1918 C1912 1.383 . S
C1918 C1917 1.379 . S
H1919 C1913 0.959 . S
H1920 C1913 0.961 . S
H1921 C1913 0.960 . S
H1922 C1914 0.930 . S
H1923 C1915 0.929 . S
H1924 C1932 0.929 . S
H1925 C1934 0.930 . S
H1926 C1936 0.930 . S
H1927 C1939 0.929 . S
H1928 C1942 0.930 . S
H1929 C1944 0.960 . S
H1930 C1944 0.960 . S
H1931 C1944 0.960 . S
C1932 H1924 0.929 . S
C1932 C1933 1.377 . S
C1932 C1934 1.384 . S
C1933 C1932 1.377 . S
C1933 C1939 1.390 . S
C1934 H1925 0.930 . S
C1934 C1932 1.384 . S
C1934 C1935 1.372 . S
C1935 C1934 1.372 . S
C1935 C1936 1.400 . S
C1935 C1940 1.490 . S
C1936 H1926 0.930 . S
C1936 C1935 1.400 . S
C1936 C1939 1.386 . S
H1937 C1953 0.930 . S
H1938 C1954 0.931 . S
C1939 H1927 0.929 . S
C1939 C1933 1.390 . S
C1939 C1936 1.386 . S
C1940 C1935 1.490 . S
C1940 C1942 1.395 . S
C1940 C1943 1.403 . S
H1941 C1947 0.930 . S
C1942 H1928 0.930 . S
C1942 C1940 1.395 . S
C1942 C1945 1.403 . S
C1943 C1940 1.403 . S
C1943 C1944 1.524 . S
C1943 C1947 1.400 . S
C1944 H1929 0.960 . S
C1944 H1930 0.960 . S
C1944 H1931 0.960 . S
C1944 C1943 1.524 . S
C1945 C1942 1.403 . S
C1945 C1946 1.392 . S
C1945 C1949 1.495 . S
C1946 C1945 1.392 . S
C1946 C1947 1.385 . S
C1946 C1948 1.478 . S
C1947 H1941 0.930 . S
C1947 C1943 1.400 . S
C1947 C1946 1.385 . S
C1948 C1946 1.478 . S
C1948 C1950 1.381 . S
C1948 C1954 1.383 . S
C1949 C1945 1.495 . S
C1949 H1955 0.959 . S
C1949 H1956 0.961 . S
C1949 H1957 0.960 . S
C1950 C1948 1.381 . S
C1950 C1951 1.394 . S
C1950 H1958 0.930 . S
C1951 C1950 1.394 . S
C1951 C1952 1.383 . S
C1951 H1959 0.929 . S
C1952 C1951 1.383 . S
C1952 C1953 1.377 . S
C1953 H1937 0.930 . S
C1953 C1952 1.377 . S
C1953 C1954 1.379 . S
C1954 H1938 0.931 . S
C1954 C1948 1.383 . S
C1954 C1953 1.379 . S
H1955 C1949 0.959 . S
H1956 C1949 0.961 . S
H1957 C1949 0.960 . S
H1958 C1950 0.930 . S
H1959 C1951 0.929 . S
H1960 C1968 0.929 . S
H1961 C1970 0.930 . S
H1962 C1972 0.930 . S
H1963 C1975 0.929 . S
H1964 C1978 0.930 . S
H1965 C1980 0.960 . S
H1966 C1980 0.960 . S
H1967 C1980 0.960 . S
C1968 H1960 0.929 . S
C1968 C1969 1.377 . S
C1968 C1970 1.384 . S
C1969 C1968 1.377 . S
C1969 C1975 1.390 . S
C1970 H1961 0.930 . S
C1970 C1968 1.384 . S
C1970 C1971 1.372 . S
C1971 C1970 1.372 . S
C1971 C1972 1.400 . S
C1971 C1976 1.490 . S
C1972 H1962 0.930 . S
C1972 C1971 1.400 . S
C1972 C1975 1.386 . S
H1973 C1989 0.930 . S
H1974 C1990 0.931 . S
C1975 H1963 0.929 . S
C1975 C1969 1.390 . S
C1975 C1972 1.386 . S
C1976 C1971 1.490 . S
C1976 C1978 1.395 . S
C1976 C1979 1.403 . S
H1977 C1983 0.930 . S
C1978 H1964 0.930 . S
C1978 C1976 1.395 . S
C1978 C1981 1.403 . S
C1979 C1976 1.403 . S
C1979 C1980 1.524 . S
C1979 C1983 1.400 . S
C1980 H1965 0.960 . S
C1980 H1966 0.960 . S
C1980 H1967 0.960 . S
C1980 C1979 1.524 . S
C1981 C1978 1.403 . S
C1981 C1982 1.392 . S
C1981 C1985 1.495 . S
C1982 C1981 1.392 . S
C1982 C1983 1.385 . S
C1982 C1984 1.478 . S
C1983 H1977 0.930 . S
C1983 C1979 1.400 . S
C1983 C1982 1.385 . S
C1984 C1982 1.478 . S
C1984 C1986 1.381 . S
C1984 C1990 1.383 . S
C1985 C1981 1.495 . S
C1985 H1991 0.959 . S
C1985 H1992 0.961 . S
C1985 H1993 0.960 . S
C1986 C1984 1.381 . S
C1986 C1987 1.394 . S
C1986 H1994 0.930 . S
C1987 C1986 1.394 . S
C1987 C1988 1.383 . S
C1987 H1995 0.929 . S
C1988 C1987 1.383 . S
C1988 C1989 1.377 . S
C1989 H1973 0.930 . S
C1989 C1988 1.377 . S
C1989 C1990 1.379 . S
C1990 H1974 0.931 . S
C1990 C1984 1.383 . S
C1990 C1989 1.379 . S
H1991 C1985 0.959 . S
H1992 C1985 0.961 . S
H1993 C1985 0.960 . S
H1994 C1986 0.930 . S
H1995 C1987 0.929 . S
H1996 C2004 0.929 . S
H1997 C2006 0.930 . S
H1998 C2008 0.930 . S
H1999 C2011 0.929 . S
H2000 C2014 0.930 . S
H2001 C2016 0.960 . S
H2002 C2016 0.960 . S
H2003 C2016 0.960 . S
C2004 H1996 0.929 . S
C2004 C2005 1.377 . S
C2004 C2006 1.384 . S
C2005 C2004 1.377 . S
C2005 C2011 1.390 . S
C2006 H1997 0.930 . S
C2006 C2004 1.384 . S
C2006 C2007 1.372 . S
C2007 C2006 1.372 . S
C2007 C2008 1.400 . S
C2007 C2012 1.490 . S
C2008 H1998 0.930 . S
C2008 C2007 1.400 . S
C2008 C2011 1.386 . S
H2009 C2025 0.930 . S
H2010 C2026 0.931 . S
C2011 H1999 0.929 . S
C2011 C2005 1.390 . S
C2011 C2008 1.386 . S
C2012 C2007 1.490 . S
C2012 C2014 1.395 . S
C2012 C2015 1.403 . S
H2013 C2019 0.930 . S
C2014 H2000 0.930 . S
C2014 C2012 1.395 . S
C2014 C2017 1.403 . S
C2015 C2012 1.403 . S
C2015 C2016 1.524 . S
C2015 C2019 1.400 . S
C2016 H2001 0.960 . S
C2016 H2002 0.960 . S
C2016 H2003 0.960 . S
C2016 C2015 1.524 . S
C2017 C2014 1.403 . S
C2017 C2018 1.392 . S
C2017 C2021 1.495 . S
C2018 C2017 1.392 . S
C2018 C2019 1.385 . S
C2018 C2020 1.478 . S
C2019 H2013 0.930 . S
C2019 C2015 1.400 . S
C2019 C2018 1.385 . S
C2020 C2018 1.478 . S
C2020 C2022 1.381 . S
C2020 C2026 1.383 . S
C2021 C2017 1.495 . S
C2021 H2027 0.959 . S
C2021 H2028 0.961 . S
C2021 H2029 0.960 . S
C2022 C2020 1.381 . S
C2022 C2023 1.394 . S
C2022 H2030 0.930 . S
C2023 C2022 1.394 . S
C2023 C2024 1.383 . S
C2023 H2031 0.929 . S
C2024 C2023 1.383 . S
C2024 C2025 1.377 . S
C2025 H2009 0.930 . S
C2025 C2024 1.377 . S
C2025 C2026 1.379 . S
C2026 H2010 0.931 . S
C2026 C2020 1.383 . S
C2026 C2025 1.379 . S
H2027 C2021 0.959 . S
H2028 C2021 0.961 . S
H2029 C2021 0.960 . S
H2030 C2022 0.930 . S
H2031 C2023 0.929 . S
H2032 C2040 0.929 . S
H2033 C2042 0.930 . S
H2034 C2044 0.930 . S
H2035 C2047 0.929 . S
H2036 C2050 0.930 . S
H2037 C2052 0.960 . S
H2038 C2052 0.960 . S
H2039 C2052 0.960 . S
C2040 H2032 0.929 . S
C2040 C2041 1.377 . S
C2040 C2042 1.384 . S
C2041 C2040 1.377 . S
C2041 C2047 1.390 . S
C2042 H2033 0.930 . S
C2042 C2040 1.384 . S
C2042 C2043 1.372 . S
C2043 C2042 1.372 . S
C2043 C2044 1.400 . S
C2043 C2048 1.490 . S
C2044 H2034 0.930 . S
C2044 C2043 1.400 . S
C2044 C2047 1.386 . S
H2045 C2061 0.930 . S
H2046 C2062 0.931 . S
C2047 H2035 0.929 . S
C2047 C2041 1.390 . S
C2047 C2044 1.386 . S
C2048 C2043 1.490 . S
C2048 C2050 1.395 . S
C2048 C2051 1.403 . S
H2049 C2055 0.930 . S
C2050 H2036 0.930 . S
C2050 C2048 1.395 . S
C2050 C2053 1.403 . S
C2051 C2048 1.403 . S
C2051 C2052 1.524 . S
C2051 C2055 1.400 . S
C2052 H2037 0.960 . S
C2052 H2038 0.960 . S
C2052 H2039 0.960 . S
C2052 C2051 1.524 . S
C2053 C2050 1.403 . S
C2053 C2054 1.392 . S
C2053 C2057 1.495 . S
C2054 C2053 1.392 . S
C2054 C2055 1.385 . S
C2054 C2056 1.478 . S
C2055 H2049 0.930 . S
C2055 C2051 1.400 . S
C2055 C2054 1.385 . S
C2056 C2054 1.478 . S
C2056 C2058 1.381 . S
C2056 C2062 1.383 . S
C2057 C2053 1.495 . S
C2057 H2063 0.959 . S
C2057 H2064 0.961 . S
C2057 H2065 0.960 . S
C2058 C2056 1.381 . S
C2058 C2059 1.394 . S
C2058 H2066 0.930 . S
C2059 C2058 1.394 . S
C2059 C2060 1.383 . S
C2059 H2067 0.929 . S
C2060 C2059 1.383 . S
C2060 C2061 1.377 . S
C2061 H2045 0.930 . S
C2061 C2060 1.377 . S
C2061 C2062 1.379 . S
C2062 H2046 0.931 . S
C2062 C2056 1.383 . S
C2062 C2061 1.379 . S
H2063 C2057 0.959 . S
H2064 C2057 0.961 . S
H2065 C2057 0.960 . S
H2066 C2058 0.930 . S
H2067 C2059 0.929 . S
H2068 C2076 0.929 . S
H2069 C2078 0.930 . S
H2070 C2080 0.930 . S
H2071 C2083 0.929 . S
H2072 C2086 0.930 . S
H2073 C2088 0.960 . S
H2074 C2088 0.960 . S
H2075 C2088 0.960 . S
C2076 H2068 0.929 . S
C2076 C2077 1.377 . S
C2076 C2078 1.384 . S
C2077 C2076 1.377 . S
C2077 C2083 1.390 . S
C2078 H2069 0.930 . S
C2078 C2076 1.384 . S
C2078 C2079 1.372 . S
C2079 C2078 1.372 . S
C2079 C2080 1.400 . S
C2079 C2084 1.490 . S
C2080 H2070 0.930 . S
C2080 C2079 1.400 . S
C2080 C2083 1.386 . S
H2081 C2097 0.930 . S
H2082 C2098 0.931 . S
C2083 H2071 0.929 . S
C2083 C2077 1.390 . S
C2083 C2080 1.386 . S
C2084 C2079 1.490 . S
C2084 C2086 1.395 . S
C2084 C2087 1.403 . S
H2085 C2091 0.930 . S
C2086 H2072 0.930 . S
C2086 C2084 1.395 . S
C2086 C2089 1.403 . S
C2087 C2084 1.403 . S
C2087 C2088 1.524 . S
C2087 C2091 1.400 . S
C2088 H2073 0.960 . S
C2088 H2074 0.960 . S
C2088 H2075 0.960 . S
C2088 C2087 1.524 . S
C2089 C2086 1.403 . S
C2089 C2090 1.392 . S
C2089 C2093 1.495 . S
C2090 C2089 1.392 . S
C2090 C2091 1.385 . S
C2090 C2092 1.478 . S
C2091 H2085 0.930 . S
C2091 C2087 1.400 . S
C2091 C2090 1.385 . S
C2092 C2090 1.478 . S
C2092 C2094 1.381 . S
C2092 C2098 1.383 . S
C2093 C2089 1.495 . S
C2093 H2099 0.959 . S
C2093 H2100 0.961 . S
C2093 H2101 0.960 . S
C2094 C2092 1.381 . S
C2094 C2095 1.394 . S
C2094 H2102 0.930 . S
C2095 C2094 1.394 . S
C2095 C2096 1.383 . S
C2095 H2103 0.929 . S
C2096 C2095 1.383 . S
C2096 C2097 1.377 . S
C2097 H2081 0.930 . S
C2097 C2096 1.377 . S
C2097 C2098 1.379 . S
C2098 H2082 0.931 . S
C2098 C2092 1.383 . S
C2098 C2097 1.379 . S
H2099 C2093 0.959 . S
H2100 C2093 0.961 . S
H2101 C2093 0.960 . S
H2102 C2094 0.930 . S
H2103 C2095 0.929 . S
H2104 C2112 0.929 . S
H2105 C2114 0.930 . S
H2106 C2116 0.930 . S
H2107 C2119 0.929 . S
H2108 C2122 0.930 . S
H2109 C2124 0.960 . S
H2110 C2124 0.960 . S
H2111 C2124 0.960 . S
C2112 H2104 0.929 . S
C2112 C2113 1.377 . S
C2112 C2114 1.384 . S
C2113 C2112 1.377 . S
C2113 C2119 1.390 . S
C2114 H2105 0.930 . S
C2114 C2112 1.384 . S
C2114 C2115 1.372 . S
C2115 C2114 1.372 . S
C2115 C2116 1.400 . S
C2115 C2120 1.490 . S
C2116 H2106 0.930 . S
C2116 C2115 1.400 . S
C2116 C2119 1.386 . S
H2117 C2133 0.930 . S
H2118 C2134 0.931 . S
C2119 H2107 0.929 . S
C2119 C2113 1.390 . S
C2119 C2116 1.386 . S
C2120 C2115 1.490 . S
C2120 C2122 1.395 . S
C2120 C2123 1.403 . S
H2121 C2127 0.930 . S
C2122 H2108 0.930 . S
C2122 C2120 1.395 . S
C2122 C2125 1.403 . S
C2123 C2120 1.403 . S
C2123 C2124 1.524 . S
C2123 C2127 1.400 . S
C2124 H2109 0.960 . S
C2124 H2110 0.960 . S
C2124 H2111 0.960 . S
C2124 C2123 1.524 . S
C2125 C2122 1.403 . S
C2125 C2126 1.392 . S
C2125 C2129 1.495 . S
C2126 C2125 1.392 . S
C2126 C2127 1.385 . S
C2126 C2128 1.478 . S
C2127 H2121 0.930 . S
C2127 C2123 1.400 . S
C2127 C2126 1.385 . S
C2128 C2126 1.478 . S
C2128 C2130 1.381 . S
C2128 C2134 1.383 . S
C2129 C2125 1.495 . S
C2129 H2135 0.959 . S
C2129 H2136 0.961 . S
C2129 H2137 0.960 . S
C2130 C2128 1.381 . S
C2130 C2131 1.394 . S
C2130 H2138 0.930 . S
C2131 C2130 1.394 . S
C2131 C2132 1.383 . S
C2131 H2139 0.929 . S
C2132 C2131 1.383 . S
C2132 C2133 1.377 . S
C2133 H2117 0.930 . S
C2133 C2132 1.377 . S
C2133 C2134 1.379 . S
C2134 H2118 0.931 . S
C2134 C2128 1.383 . S
C2134 C2133 1.379 . S
H2135 C2129 0.959 . S
H2136 C2129 0.961 . S
H2137 C2129 0.960 . S
H2138 C2130 0.930 . S
H2139 C2131 0.929 . S
H2140 C2148 0.929 . S
H2141 C2150 0.930 . S
H2142 C2152 0.930 . S
H2143 C2155 0.929 . S
H2144 C2158 0.930 . S
H2145 C2160 0.960 . S
H2146 C2160 0.960 . S
H2147 C2160 0.960 . S
C2148 H2140 0.929 . S
C2148 C2149 1.377 . S
C2148 C2150 1.384 . S
C2149 C2148 1.377 . S
C2149 C2155 1.390 . S
C2150 H2141 0.930 . S
C2150 C2148 1.384 . S
C2150 C2151 1.372 . S
C2151 C2150 1.372 . S
C2151 C2152 1.400 . S
C2151 C2156 1.490 . S
C2152 H2142 0.930 . S
C2152 C2151 1.400 . S
C2152 C2155 1.386 . S
H2153 C2169 0.930 . S
H2154 C2170 0.931 . S
C2155 H2143 0.929 . S
C2155 C2149 1.390 . S
C2155 C2152 1.386 . S
C2156 C2151 1.490 . S
C2156 C2158 1.395 . S
C2156 C2159 1.403 . S
H2157 C2163 0.930 . S
C2158 H2144 0.930 . S
C2158 C2156 1.395 . S
C2158 C2161 1.403 . S
C2159 C2156 1.403 . S
C2159 C2160 1.524 . S
C2159 C2163 1.400 . S
C2160 H2145 0.960 . S
C2160 H2146 0.960 . S
C2160 H2147 0.960 . S
C2160 C2159 1.524 . S
C2161 C2158 1.403 . S
C2161 C2162 1.392 . S
C2161 C2165 1.495 . S
C2162 C2161 1.392 . S
C2162 C2163 1.385 . S
C2162 C2164 1.478 . S
C2163 H2157 0.930 . S
C2163 C2159 1.400 . S
C2163 C2162 1.385 . S
C2164 C2162 1.478 . S
C2164 C2166 1.381 . S
C2164 C2170 1.383 . S
C2165 C2161 1.495 . S
C2165 H2171 0.959 . S
C2165 H2172 0.961 . S
C2165 H2173 0.960 . S
C2166 C2164 1.381 . S
C2166 C2167 1.394 . S
C2166 H2174 0.930 . S
C2167 C2166 1.394 . S
C2167 C2168 1.383 . S
C2167 H2175 0.929 . S
C2168 C2167 1.383 . S
C2168 C2169 1.377 . S
C2169 H2153 0.930 . S
C2169 C2168 1.377 . S
C2169 C2170 1.379 . S
C2170 H2154 0.931 . S
C2170 C2164 1.383 . S
C2170 C2169 1.379 . S
H2171 C2165 0.959 . S
H2172 C2165 0.961 . S
H2173 C2165 0.960 . S
H2174 C2166 0.930 . S
H2175 C2167 0.929 . S
C1052 C913 1.504 . S
C1033 C29 1.233 . S
C1088 C939 1.689 . S
C1069 C125 0.991 . S
C1124 C953 1.515 . S
C1105 C257 1.229 . S
C1160 C955 1.679 . S
C1141 C353 0.986 . S
C1177 C457 1.159 . S
C1196 C952 1.477 . S
C1232 C954 1.665 . S
C1213 C625 1.314 . S
C1268 C912 1.474 . S
C1249 C685 1.170 . S
C1304 C938 1.665 . S
C1285 C853 1.314 . S
C1340 C940 1.696 . S
C1321 C809 1.113 . S
C1376 C966 1.509 . S
C1357 C485 1.251 . S
C1412 C924 1.703 . S
C1393 C581 1.100 . S
C1448 C926 1.492 . S
C1429 C713 1.231 . S
C1484 C925 1.684 . S
C1465 C169 1.241 . S
C1520 C927 1.462 . S
C1501 C229 1.141 . S
C1556 C941 1.691 . S
C1537 C397 1.247 . S
C1592 C967 1.474 . S
C1573 C1 1.134 . S
C1628 C969 1.520 . S
C1609 C827 1.219 . S
C1645 C467 1.003 . S
C1664 C995 1.700 . S
C1681 C599 1.230 . S
C1700 C1008 1.514 . S
C1717 C695 0.986 . S
C1736 C1011 1.681 . S
C1753 C115 1.149 . S
C1772 C1009 1.466 . S
C1789 C283 1.297 . S
C1808 C1010 1.672 . S
C1825 C343 1.149 . S
C1844 C968 1.466 . S
C1880 C994 1.664 . S
C1861 C55 1.309 . S
C1916 C997 1.708 . S
C1897 C11 1.106 . S
C1933 C143 1.245 . S
C1952 C1022 1.505 . S
C1969 C239 1.101 . S
C1988 C980 1.712 . S
C2005 C371 1.235 . S
C2024 C982 1.496 . S
C2060 C981 1.683 . S
C2041 C511 1.240 . S
C2096 C983 1.461 . S
C2077 C571 1.150 . S
C2113 C739 1.243 . S
C2132 C996 1.684 . S
C2168 C1023 1.474 . S
C2149 C799 1.129 . S
