# Generated by pormake.
# Topology anh, (6,3)-cn, num edge types: 1
# Building blocks:
#     Node 0, Type 0, BuildingBlock: BETDEL_clean_sbu_0, # of connection points: 6
#     Node 1, Type 0, BuildingBlock: BETDEL_clean_sbu_0, # of connection points: 6
#     Node 2, Type 0, BuildingBlock: BETDEL_clean_sbu_0, # of connection points: 6
#     Node 3, Type 1, BuildingBlock: ESEHIV_clean_linker_0, # of connection points: 3
#     Node 4, Type 1, BuildingBlock: ESEHIV_clean_linker_0, # of connection points: 3
#     Node 5, Type 1, BuildingBlock: ESEHIV_clean_linker_0, # of connection points: 3
#     Node 6, Type 1, BuildingBlock: ESEHIV_clean_linker_0, # of connection points: 3
#     Node 7, Type 1, BuildingBlock: ESEHIV_clean_linker_0, # of connection points: 3
#     Node 8, Type 1, BuildingBlock: ESEHIV_clean_linker_0, # of connection points: 3
#     Edge 9, Type (0, 1), BuildingBlock: CIFDUS_clean_linker_0, # of connection points: 2
#     Edge 10, Type (0, 1), BuildingBlock: CIFDUS_clean_linker_0, # of connection points: 2
#     Edge 11, Type (0, 1), BuildingBlock: CIFDUS_clean_linker_0, # of connection points: 2
#     Edge 12, Type (0, 1), BuildingBlock: CIFDUS_clean_linker_0, # of connection points: 2
#     Edge 13, Type (0, 1), BuildingBlock: CIFDUS_clean_linker_0, # of connection points: 2
#     Edge 14, Type (0, 1), BuildingBlock: CIFDUS_clean_linker_0, # of connection points: 2
#     Edge 15, Type (0, 1), BuildingBlock: CIFDUS_clean_linker_0, # of connection points: 2
#     Edge 16, Type (0, 1), BuildingBlock: CIFDUS_clean_linker_0, # of connection points: 2
#     Edge 17, Type (0, 1), BuildingBlock: CIFDUS_clean_linker_0, # of connection points: 2
#     Edge 18, Type (0, 1), BuildingBlock: CIFDUS_clean_linker_0, # of connection points: 2
#     Edge 19, Type (0, 1), BuildingBlock: CIFDUS_clean_linker_0, # of connection points: 2
#     Edge 20, Type (0, 1), BuildingBlock: CIFDUS_clean_linker_0, # of connection points: 2
#     Edge 21, Type (0, 1), BuildingBlock: CIFDUS_clean_linker_0, # of connection points: 2
#     Edge 22, Type (0, 1), BuildingBlock: CIFDUS_clean_linker_0, # of connection points: 2
#     Edge 23, Type (0, 1), BuildingBlock: CIFDUS_clean_linker_0, # of connection points: 2
#     Edge 24, Type (0, 1), BuildingBlock: CIFDUS_clean_linker_0, # of connection points: 2
#     Edge 25, Type (0, 1), BuildingBlock: CIFDUS_clean_linker_0, # of connection points: 2
#     Edge 26, Type (0, 1), BuildingBlock: CIFDUS_clean_linker_0, # of connection points: 2
# Relax obj value: 0.155
# Max RMSD: 0.168
# Mean RMSD: 0.138
data_MOF--net-anh--node1-BETDEL_clean_sbu_0--node2-ESEHIV_clean_linker_0--edge1-CIFDUS_clean_linker_0
_symmetry_space_group_name_H-M    P1
_symmetry_Int_Tables_number       1
_symmetry_cell_setting            triclinic
loop_
_symmetry_equiv_pos_as_xyz
'x, y, z'
_cell_length_a     24.168315
_cell_length_b     24.05259
_cell_length_c     43.83886
_cell_angle_alpha  89.649407
_cell_angle_beta   89.543859
_cell_angle_gamma 120.04712
loop_
_atom_site_label
_atom_site_type_symbol
_atom_site_fract_x
_atom_site_fract_y
_atom_site_fract_z
_atom_type_partial_charge
Dy0 Dy 0.0867 0.49872 0.15585 0.0
C1 C 0.92126 0.58302 0.17885 0.0
C2 C 0.1749 0.46549 0.1436 0.0
Dy3 Dy 1.01201 0.55416 0.16131 0.0
O4 O 0.16792 0.48647 0.16951 0.0
O5 O 0.13357 0.46238 0.124 0.0
O6 O 0.05032 0.44508 0.19965 0.0
O7 O 0.06688 0.53986 0.19595 0.0
C8 C 0.04643 0.49084 0.21301 0.0
C9 C 0.04627 0.5544 0.10199 0.0
O10 O 0.10306 0.63872 0.17745 0.0
O11 O 0.16408 0.60526 0.15272 0.0
O12 O 0.96949 0.61751 0.16073 0.0
O13 O 0.92553 0.53454 0.18864 0.0
O14 O 0.0418 0.60043 0.11473 0.0
O15 O 0.02812 0.50864 0.12096 0.0
O16 O 0.99414 0.40448 0.15251 0.0
O17 O 0.93225 0.44955 0.16343 0.0
C18 C 0.15973 0.65123 0.16717 0.0
C19 C 0.93734 0.39798 0.15852 0.0
Dy20 Dy 0.46362 1.01443 0.4941 0.0
C21 C 0.71993 0.18027 0.5043 0.0
C22 C 0.33988 0.92231 0.49363 0.0
Dy23 Dy 0.60115 0.09347 0.4866 0.0
O24 O 0.37709 0.9346 0.51668 0.0
O25 O 0.37 0.96187 0.47119 0.0
O26 O 0.47031 0.06185 0.53836 0.0
O27 O 0.54178 0.04084 0.52517 0.0
C28 C 0.52418 0.06586 0.54536 0.0
C29 C 0.55837 0.06917 0.42937 0.0
O30 O 0.59879 0.99908 0.49414 0.0
O31 O 0.48919 0.93506 0.49131 0.0
O32 O 0.70684 0.13283 0.48605 0.0
O33 O 0.66794 0.17897 0.51299 0.0
O34 O 0.61801 0.10494 0.43629 0.0
O35 O 0.52345 0.04899 0.45318 0.0
O36 O 0.46459 0.10817 0.4873 0.0
O37 O 0.57358 0.17097 0.49206 0.0
C38 C 0.54684 0.94111 0.49346 0.0
C39 C 0.51629 0.16559 0.49037 0.0
Dy40 Dy 0.60912 0.63506 0.82329 0.0
C41 C 0.52774 0.38816 0.83746 0.0
C42 C 0.64012 0.7586 0.82587 0.0
Dy43 Dy 0.55061 0.50713 0.82227 0.0
O44 O 0.61304 0.71712 0.84754 0.0
O45 O 0.65092 0.73277 0.80223 0.0
O46 O 0.6583 0.63765 0.86583 0.0
O47 O 0.56088 0.56724 0.86069 0.0
C48 C 0.60857 0.58933 0.87803 0.0
C49 C 0.55721 0.55188 0.76498 0.0
O50 O 0.46167 0.50689 0.8365 0.0
O51 O 0.50337 0.60918 0.8186 0.0
O52 O 0.50576 0.40223 0.81347 0.0
O53 O 0.55914 0.439 0.85355 0.0
O54 O 0.50783 0.50174 0.77664 0.0
O55 O 0.60205 0.57585 0.78415 0.0
O56 O 0.7042 0.63653 0.81978 0.0
O57 O 0.65257 0.52785 0.82635 0.0
C58 C 0.4532 0.55533 0.82919 0.0
C59 C 0.70664 0.58313 0.82407 0.0
H60 H 0.45952 0.95041 0.24832 0.0
H61 H 0.63723 0.12733 0.24106 0.0
H62 H 0.54743 0.02331 0.15954 0.0
C63 C 0.4976 0.98613 0.23402 0.0
C64 C 0.49561 0.9785 0.20195 0.0
C65 C 0.54717 0.04024 0.24813 0.0
C66 C 0.59843 0.08588 0.23018 0.0
C67 C 0.59995 0.08054 0.19839 0.0
C68 C 0.54775 0.02682 0.18415 0.0
H69 H 0.53558 0.64245 0.57912 0.0
H70 H 0.54088 0.46678 0.57833 0.0
H71 H 0.53599 0.55566 0.49317 0.0
C72 C 0.53795 0.60525 0.5663 0.0
C73 C 0.53634 0.6065 0.53422 0.0
C74 C 0.53977 0.55539 0.58218 0.0
C75 C 0.54026 0.50554 0.56586 0.0
C76 C 0.53951 0.50467 0.53373 0.0
C77 C 0.53758 0.55584 0.51785 0.0
H78 H 1.00025 0.57947 0.91732 0.0
H79 H 0.16364 0.55508 0.91195 0.0
H80 H 0.08341 0.57975 0.8293 0.0
C81 C 0.03374 0.5733 0.90333 0.0
C82 C 0.03141 0.57665 0.871 0.0
C83 C 0.08086 0.56553 0.91838 0.0
C84 C 0.12754 0.56159 0.90064 0.0
C85 C 0.13049 0.56837 0.86869 0.0
C86 C 0.08201 0.57584 0.85391 0.0
H87 H 0.9142 0.46331 0.39758 0.0
H88 H 0.09603 0.63246 0.38197 0.0
H89 H 0.0424 0.54811 0.47217 0.0
C90 C 0.95888 0.5017 0.40628 0.0
C91 C 0.97245 0.50399 0.43736 0.0
C92 C 1.00433 0.54764 0.38631 0.0
C93 C 0.06208 0.5962 0.39767 0.0
C94 C 0.07685 0.59681 0.42861 0.0
C95 C 0.03173 0.54979 0.44832 0.0
H96 H 0.5513 0.16371 0.73939 0.0
H97 H 0.5712 1.00043 0.71664 0.0
H98 H 0.5799 0.05746 0.80984 0.0
C99 C 0.55701 0.12336 0.74591 0.0
C100 C 0.56131 0.11157 0.77686 0.0
C101 C 0.56087 0.08377 0.7237 0.0
C102 C 0.56992 0.03314 0.73312 0.0
C103 C 0.57869 0.02487 0.76391 0.0
C104 C 0.57262 0.06306 0.78587 0.0
H105 H 0.4848 0.55141 0.06268 0.0
H106 H 0.61183 0.47791 0.05287 0.0
H107 H 0.56191 0.5134 0.1424 0.0
C108 C 0.5159 0.53613 0.07285 0.0
C109 C 0.51422 0.52621 0.10438 0.0
C110 C 0.54997 0.51721 0.05431 0.0
C111 C 0.58827 0.49592 0.06757 0.0
C112 C 0.60049 0.50325 0.09898 0.0
C113 C 0.55972 0.51455 0.11781 0.0
H114 H 0.28271 0.51226 0.17549 0.0
H115 H 0.18904 0.40729 0.09433 0.0
H116 H 0.28692 0.40973 0.07802 0.0
H117 H 0.39819 0.44801 0.08496 0.0
H118 H 0.49966 0.57028 0.16041 0.0
H119 H 0.39751 0.55183 0.18236 0.0
C120 C 0.28365 0.4888 0.15458 0.0
C121 C 0.22951 0.45896 0.13608 0.0
C122 C 0.34061 0.49333 0.14473 0.0
C123 C 0.23059 0.42978 0.10881 0.0
C124 C 0.28621 0.43134 0.09954 0.0
C125 C 0.39822 0.47142 0.10608 0.0
C126 C 0.45574 0.51234 0.12062 0.0
C127 C 0.34139 0.46415 0.11702 0.0
C128 C 0.45544 0.53963 0.1487 0.0
C129 C 0.39748 0.52934 0.16101 0.0
H130 H 0.73841 0.29837 0.51104 0.0
H131 H 0.83702 0.19317 0.49494 0.0
H132 H 0.93174 0.2918 0.47708 0.0
H133 H 0.97605 0.4008 0.45624 0.0
H134 H 0.86929 0.49944 0.46434 0.0
H135 H 0.78675 0.41009 0.49489 0.0
C136 C 0.7815 0.29755 0.50466 0.0
C137 C 0.78148 0.23925 0.50407 0.0
C138 C 0.83297 0.35268 0.4921 0.0
C139 C 0.83679 0.23808 0.49551 0.0
C140 C 0.8903 0.29406 0.48498 0.0
C141 C 0.935 0.40258 0.46525 0.0
C142 C 0.92704 0.45477 0.45811 0.0
C143 C 0.88732 0.35047 0.48154 0.0
C144 C 0.87478 0.45838 0.46958 0.0
C145 C 0.82818 0.40777 0.48701 0.0
H146 H 0.70152 0.8544 0.78599 0.0
H147 H 0.56848 0.78931 0.862 0.0
H148 H 0.53624 0.86756 0.84905 0.0
H149 H 0.53652 0.94385 0.8121 0.0
H150 H 0.67125 1.01045 0.73662 0.0
H151 H 0.71109 0.94003 0.75283 0.0
C152 C 0.66697 0.85899 0.80014 0.0
C153 C 0.63685 0.81673 0.82443 0.0
C154 C 0.64757 0.90238 0.79212 0.0
C155 C 0.59235 0.82226 0.84309 0.0
C156 C 0.5732 0.86609 0.83549 0.0
C157 C 0.57505 0.94328 0.79946 0.0
C158 C 0.60034 0.98078 0.77303 0.0
C159 C 0.5988 0.90447 0.80933 0.0
C160 C 0.64999 0.98006 0.75659 0.0
C161 C 0.67342 0.94083 0.76606 0.0
H162 H 0.88481 0.59143 0.12401 0.0
H163 H 0.81741 0.54522 0.21708 0.0
H164 H 0.70724 0.50814 0.20021 0.0
H165 H 0.63225 0.48777 0.15803 0.0
H166 H 0.70931 0.53682 0.06552 0.0
H167 H 0.81264 0.56675 0.08336 0.0
C168 C 0.84641 0.57503 0.14086 0.0
C169 C 0.85877 0.57375 0.17177 0.0
C170 C 0.78452 0.55068 0.13095 0.0
C171 C 0.80843 0.54882 0.19318 0.0
C172 C 0.74579 0.52663 0.18348 0.0
C173 C 0.67137 0.50553 0.14168 0.0
C174 C 0.6611 0.50979 0.11032 0.0
C175 C 0.73335 0.52706 0.15221 0.0
C176 C 0.71311 0.53059 0.08968 0.0
C177 C 0.77368 0.54977 0.09986 0.0
H178 H 0.32717 0.85458 0.44482 0.0
H179 H 0.24202 0.84599 0.53272 0.0
H180 H 0.15531 0.73619 0.52228 0.0
H181 H 0.09835 0.65238 0.48453 0.0
H182 H 0.19355 0.65703 0.39964 0.0
H183 H 0.28342 0.76087 0.41275 0.0
C184 C 0.28903 0.82884 0.46149 0.0
C185 C 0.28742 0.85842 0.48849 0.0
C186 C 0.24209 0.76621 0.45589 0.0
C187 C 0.24122 0.82411 0.51108 0.0
C188 C 0.19258 0.76165 0.50525 0.0
C189 C 0.13942 0.67457 0.46924 0.0
C190 C 0.13766 0.64872 0.44033 0.0
C191 C 0.19163 0.73328 0.47721 0.0
C192 C 0.19212 0.67791 0.42124 0.0
C193 C 0.24369 0.73694 0.42875 0.0
H194 H 0.46848 0.26286 0.85345 0.0
H195 H 0.64113 0.41875 0.81414 0.0
H196 H 0.67515 0.34475 0.79694 0.0
H197 H 0.64408 0.23519 0.78384 0.0
H198 H 0.46987 0.07749 0.82051 0.0
H199 H 0.44888 0.15218 0.84939 0.0
C200 C 0.51426 0.28006 0.84201 0.0
C201 C 0.55213 0.34485 0.83459 0.0
C202 C 0.53291 0.23708 0.83172 0.0
C203 C 0.61162 0.36832 0.81992 0.0
C204 C 0.63097 0.32623 0.80999 0.0
C205 C 0.60254 0.21763 0.79885 0.0
C206 C 0.55725 0.15255 0.79969 0.0
C207 C 0.59029 0.26042 0.81436 0.0
C208 C 0.50423 0.12846 0.81945 0.0
C209 C 0.49222 0.17087 0.8357 0.0
H210 H 0.45314 0.8133 0.50345 0.0
H211 H 0.65672 0.9342 0.49022 0.0
H212 H 0.67122 0.84168 0.49788 0.0
H213 H 0.62764 0.72669 0.51259 0.0
H214 H 0.42476 0.60611 0.5264 0.0
H215 H 0.4088 0.69673 0.51439 0.0
C216 C 0.50073 0.81955 0.50197 0.0
C217 C 0.55377 0.88189 0.49643 0.0
C218 C 0.50906 0.76542 0.50661 0.0
C219 C 0.6148 0.88779 0.4947 0.0
C220 C 0.62326 0.83446 0.49907 0.0
C221 C 0.57976 0.71978 0.51202 0.0
C222 C 0.52725 0.65854 0.51963 0.0
C223 C 0.57098 0.77303 0.50552 0.0
C224 C 0.46586 0.6517 0.51979 0.0
C225 C 0.4568 0.704 0.51325 0.0
H226 H 0.82816 0.62558 0.79604 0.0
H227 H 0.71819 0.53949 0.87829 0.0
H228 H 0.80523 0.52866 0.89917 0.0
H229 H 0.90922 0.53736 0.89396 0.0
H230 H 0.02568 0.62679 0.81358 0.0
H231 H 0.93893 0.63833 0.79182 0.0
C232 C 0.82369 0.60523 0.81865 0.0
C233 C 0.76597 0.58399 0.83563 0.0
C234 C 0.87478 0.59788 0.83074 0.0
C235 C 0.76145 0.55667 0.86468 0.0
C236 C 0.8114 0.55005 0.87666 0.0
C237 C 0.91771 0.56137 0.87205 0.0
C238 C 0.97667 0.58234 0.85625 0.0
C239 C 0.86808 0.56982 0.8599 0.0
C240 C 0.9822 0.60971 0.8269 0.0
C241 C 0.93222 0.61702 0.81436 0.0
H242 H 0.28264 0.71577 0.14004 0.0
H243 H 0.16895 0.73147 0.21234 0.0
H244 H 0.25921 0.83312 0.22755 0.0
H245 H 0.36982 0.91814 0.22142 0.0
H246 H 0.48881 0.90616 0.15095 0.0
H247 H 0.39706 0.80576 0.13318 0.0
C248 C 0.27763 0.74149 0.15908 0.0
C249 C 0.21794 0.71489 0.17488 0.0
C250 C 0.33077 0.80171 0.1679 0.0
C251 C 0.21318 0.74994 0.1994 0.0
C252 C 0.26519 0.80856 0.20826 0.0
C253 C 0.37682 0.89354 0.20246 0.0
C254 C 0.43796 0.92018 0.1883 0.0
C255 C 0.32421 0.83491 0.19284 0.0
C256 C 0.44329 0.88777 0.16269 0.0
C257 C 0.39057 0.82958 0.15263 0.0
H258 H 0.60989 0.29511 0.48922 0.0
H259 H 0.40693 0.17018 0.50264 0.0
H260 H 0.39504 0.26269 0.51476 0.0
H261 H 0.44292 0.37964 0.52522 0.0
H262 H 0.64462 0.50525 0.50998 0.0
H263 H 0.65603 0.41334 0.49488 0.0
C264 C 0.56282 0.28795 0.49444 0.0
C265 C 0.50942 0.22454 0.49493 0.0
C266 C 0.55596 0.34223 0.50114 0.0
C267 C 0.4491 0.2175 0.50183 0.0
C268 C 0.44219 0.27079 0.50892 0.0
C269 C 0.48906 0.38715 0.51775 0.0
C270 C 0.54268 0.45018 0.51818 0.0
C271 C 0.49527 0.33347 0.50903 0.0
C272 C 0.60228 0.4581 0.5092 0.0
C273 C 0.6089 0.40513 0.50085 0.0
H274 H 0.40744 0.64058 0.81644 0.0
H275 H 0.34795 0.45199 0.85374 0.0
H276 H 0.2433 0.43698 0.86598 0.0
H277 H 0.16907 0.47877 0.87013 0.0
H278 H 0.22321 0.66488 0.83231 0.0
H279 H 0.32708 0.67855 0.81611 0.0
C280 C 0.37153 0.59601 0.82705 0.0
C281 C 0.38737 0.54793 0.83432 0.0
C282 C 0.30943 0.58687 0.83404 0.0
C283 C 0.33888 0.49049 0.8479 0.0
C284 C 0.27823 0.48156 0.855 0.0
C285 C 0.20296 0.52185 0.85772 0.0
C286 C 0.18734 0.5705 0.85239 0.0
C287 C 0.26304 0.52957 0.84867 0.0
C288 C 0.23275 0.62603 0.83641 0.0
C289 C 0.29282 0.63418 0.82745 0.0
H290 H 0.80893 0.35812 0.15065 0.0
H291 H 0.93494 0.28779 0.17629 0.0
H292 H 0.84288 0.18219 0.18805 0.0
H293 H 0.72556 0.111 0.19507 0.0
H294 H 0.59893 0.17825 0.1668 0.0
H295 H 0.69101 0.2822 0.15169 0.0
C296 C 0.81631 0.31949 0.15845 0.0
C297 C 0.87957 0.33175 0.1626 0.0
C298 C 0.7625 0.25761 0.16461 0.0
C299 C 0.88746 0.28042 0.17264 0.0
C300 C 0.83452 0.21969 0.1795 0.0
C301 C 0.71807 0.14763 0.1846 0.0
C302 C 0.6548 0.13578 0.18148 0.0
C303 C 0.77169 0.20772 0.17596 0.0
C304 C 0.64654 0.18493 0.16871 0.0
C305 C 0.69949 0.24493 0.16046 0.0
H306 H 0.14394 0.59994 0.06043 0.0
H307 H 0.93879 0.4904 0.06808 0.0
H308 H 0.93042 0.48277 0.01229 0.0
H309 H 0.98181 0.51012 0.96093 0.0
H310 H 0.18775 0.62121 0.95402 0.0
H311 H 0.19525 0.62371 0.00931 0.0
C312 C 0.09751 0.57399 0.04981 0.0
C313 C 0.04205 0.5457 0.06832 0.0
C314 C 0.09315 0.5698 0.01764 0.0
C315 C 0.98215 0.51225 0.0543 0.0
C316 C 0.9774 0.5081 0.02237 0.0
C317 C 0.02838 0.53524 0.97145 0.0
C318 C 0.08407 0.56533 0.95279 0.0
C319 C 0.0326 0.53728 0.0037 0.0
C320 C 0.14385 0.59663 0.9673 0.0
C321 C 0.14833 0.59863 -0.00085 0.0
H322 H 0.56723 0.14512 0.38204 0.0
H323 H 0.5082 0.94919 0.40573 0.0
H324 H 0.49777 0.92122 0.35143 0.0
H325 H 0.51448 0.9556 0.29683 0.0
H326 H 0.57038 0.15189 0.27426 0.0
H327 H 0.57212 0.17635 0.32818 0.0
C328 C 0.55042 0.09596 0.37524 0.0
C329 C 0.53766 0.04908 0.39771 0.0
C330 C 0.54477 0.08052 0.34407 0.0
C331 C 0.51688 0.98571 0.38876 0.0
C332 C 0.51165 0.96996 0.35771 0.0
C333 C 0.52637 1.0035 0.30373 0.0
C334 C 0.54384 0.05223 0.28139 0.0
C335 C 0.52682 0.01736 0.33508 0.0
C336 C 0.55874 0.11394 0.29086 0.0
C337 C 0.55928 0.12794 0.32175 0.0
H338 H 0.46472 0.50802 0.72229 0.0
H339 H 0.66902 0.62201 0.73208 0.0
H340 H 0.68238 0.63363 0.67642 0.0
H341 H 0.63537 0.60824 0.62436 0.0
H342 H 0.43092 0.49513 0.61556 0.0
H343 H 0.41802 0.48653 0.67115 0.0
C344 C 0.51219 0.5357 0.71226 0.0
C345 C 0.56577 0.5638 0.73138 0.0
C346 C 0.51941 0.54213 0.68027 0.0
C347 C 0.62691 0.59995 0.71796 0.0
C348 C 0.63458 0.60639 0.68608 0.0
C349 C 0.58817 0.5818 0.63478 0.0
C350 C 0.53403 0.55178 0.61603 0.0
C351 C 0.58118 0.57718 0.66694 0.0
C352 C 0.47309 0.51805 0.62963 0.0
C353 C 0.46577 0.51325 0.66138 0.0
H354 H 0.48978 0.11769 0.59024 0.0
H355 H 0.61235 0.03992 0.56964 0.0
H356 H 0.63995 0.04523 0.62352 0.0
H357 H 0.62277 0.06474 0.6763 0.0
H358 H 0.48883 0.12931 0.69705 0.0
H359 H 0.47497 0.13989 0.64292 0.0
C360 C 0.52317 0.10272 0.59756 0.0
C361 C 0.54868 0.07804 0.57639 0.0
C362 C 0.53718 0.10414 0.62844 0.0
C363 C 0.59229 0.05919 0.58579 0.0
C364 C 0.60779 0.06194 0.6165 0.0
C365 C 0.58968 0.08016 0.66914 0.0
C366 C 0.55603 0.09501 0.69088 0.0
C367 C 0.57918 0.08283 0.63806 0.0
C368 C 0.51575 0.11784 0.68097 0.0
C369 C 0.50721 0.12332 0.64998 0.0
H370 H 0.50326 0.52592 0.91408 0.0
H371 H 0.70934 0.61978 0.91363 0.0
H372 H 0.70879 0.60415 0.96854 0.0
H373 H 0.6507 0.56922 0.01654 0.0
H374 H 0.44499 0.47773 0.01852 0.0
H375 H 0.44419 0.48849 0.96291 0.0
C376 C 0.54774 0.54202 0.92609 0.0
C377 C 0.60616 0.5736 0.91023 0.0
C378 C 0.54717 0.53427 0.95772 0.0
C379 C 0.66384 0.59519 0.92569 0.0
C380 C 0.66364 0.58655 0.95698 0.0
C381 C 0.60567 0.55071 0.00468 0.0
C382 C 0.54806 0.52215 0.02113 0.0
C383 C 0.60571 0.55694 0.97317 0.0
C384 C 0.48992 0.49996 0.00595 0.0
C385 C 0.48945 0.50579 0.97432 0.0
H386 H 0.03048 0.57871 0.24425 0.0
H387 H 0.0293 0.39953 0.25445 0.0
H388 H 1.00819 0.39782 0.30903 0.0
H389 H 0.99632 0.45025 0.3542 0.0
H390 H 1.00237 0.63157 0.34504 0.0
H391 H 1.01356 0.62894 0.28947 0.0
C392 C 0.02519 0.53923 0.25848 0.0
C393 C 0.0316 0.4895 0.24558 0.0
C394 C 1.01305 0.53855 0.28983 0.0
C395 C 0.0245 0.43835 0.26402 0.0
C396 C 1.01234 0.43724 0.29517 0.0
C397 C 0.99819 0.48808 0.33981 0.0
C398 C 0.99734 0.54034 0.35318 0.0
C399 C 1.00694 0.48724 0.30831 0.0
C400 C 1.00191 0.59045 0.3348 0.0
C401 C 1.00894 0.58921 0.30323 0.0
loop_
_geom_bond_atom_site_label_1
_geom_bond_atom_site_label_2
_geom_bond_distance
_geom_bond_site_symmetry_2
_ccdc_geom_bond_type
Dy0 O4 2.398 . S
Dy0 O5 2.491 . S
Dy0 O6 2.403 . S
Dy0 O7 2.664 . S
Dy0 O11 2.326 . S
Dy0 O15 2.310 . S
Dy0 O16 2.351 1_455 S
C1 O12 1.185 . S
C1 O13 1.355 . S
C2 O4 1.185 . S
C2 O5 1.355 . S
Dy3 O7 2.310 1_655 S
Dy3 O10 2.351 1_655 S
Dy3 O12 2.398 . S
Dy3 O13 2.491 . S
Dy3 O14 2.403 . S
Dy3 O15 2.664 1_655 S
Dy3 O17 2.326 . S
O4 Dy0 2.398 . S
O4 C2 1.185 . S
O5 Dy0 2.491 . S
O5 C2 1.355 . S
O6 Dy0 2.403 . S
O6 C8 1.254 . S
O7 Dy0 2.664 . S
O7 Dy3 2.310 1_455 S
O7 C8 1.268 . S
C8 O6 1.254 . S
C8 O7 1.268 . S
C9 O14 1.254 1_455 S
C9 O15 1.268 . S
O10 Dy3 2.351 1_455 S
O10 C18 1.249 . S
O11 Dy0 2.326 . S
O11 C18 1.267 . S
O12 C1 1.185 . S
O12 Dy3 2.398 . S
O13 C1 1.355 . S
O13 Dy3 2.491 . S
O14 Dy3 2.403 . S
O14 C9 1.254 1_655 S
O15 Dy0 2.310 . S
O15 Dy3 2.664 1_455 S
O15 C9 1.268 . S
O16 Dy0 2.351 1_655 S
O16 C19 1.249 . S
O17 Dy3 2.326 . S
O17 C19 1.267 . S
C18 O10 1.249 . S
C18 O11 1.267 . S
C19 O16 1.249 . S
C19 O17 1.267 . S
Dy20 O24 2.398 . S
Dy20 O25 2.491 . S
Dy20 O26 2.403 . S
Dy20 O27 2.664 1_565 S
Dy20 O31 2.326 . S
Dy20 O35 2.310 1_565 S
Dy20 O36 2.351 1_565 S
C21 O32 1.185 . S
C21 O33 1.355 . S
C22 O24 1.185 . S
C22 O25 1.355 . S
Dy23 O27 2.310 . S
Dy23 O30 2.351 1_545 S
Dy23 O32 2.398 . S
Dy23 O33 2.491 . S
Dy23 O34 2.403 . S
Dy23 O35 2.664 . S
Dy23 O37 2.326 . S
O24 Dy20 2.398 . S
O24 C22 1.185 . S
O25 Dy20 2.491 . S
O25 C22 1.355 . S
O26 Dy20 2.403 . S
O26 C28 1.254 1_565 S
O27 Dy20 2.664 1_545 S
O27 Dy23 2.310 . S
O27 C28 1.268 . S
C28 O26 1.254 1_545 S
C28 O27 1.268 . S
C29 O34 1.254 . S
C29 O35 1.268 . S
O30 Dy23 2.351 1_565 S
O30 C38 1.249 . S
O31 Dy20 2.326 . S
O31 C38 1.267 . S
O32 C21 1.185 . S
O32 Dy23 2.398 . S
O33 C21 1.355 . S
O33 Dy23 2.491 . S
O34 Dy23 2.403 . S
O34 C29 1.254 . S
O35 Dy20 2.310 1_545 S
O35 Dy23 2.664 . S
O35 C29 1.268 . S
O36 Dy20 2.351 1_545 S
O36 C39 1.249 . S
O37 Dy23 2.326 . S
O37 C39 1.267 . S
C38 O30 1.249 . S
C38 O31 1.267 . S
C39 O36 1.249 . S
C39 O37 1.267 . S
Dy40 O44 2.398 . S
Dy40 O45 2.491 . S
Dy40 O46 2.403 . S
Dy40 O47 2.664 . S
Dy40 O51 2.326 . S
Dy40 O55 2.310 . S
Dy40 O56 2.351 . S
C41 O52 1.185 . S
C41 O53 1.355 . S
C42 O44 1.185 . S
C42 O45 1.355 . S
Dy43 O47 2.310 . S
Dy43 O50 2.351 . S
Dy43 O52 2.398 . S
Dy43 O53 2.491 . S
Dy43 O54 2.403 . S
Dy43 O55 2.664 . S
Dy43 O57 2.326 . S
O44 Dy40 2.398 . S
O44 C42 1.185 . S
O45 Dy40 2.491 . S
O45 C42 1.355 . S
O46 Dy40 2.403 . S
O46 C48 1.254 . S
O47 Dy40 2.664 . S
O47 Dy43 2.310 . S
O47 C48 1.268 . S
C48 O46 1.254 . S
C48 O47 1.268 . S
C49 O54 1.254 . S
C49 O55 1.268 . S
O50 Dy43 2.351 . S
O50 C58 1.249 . S
O51 Dy40 2.326 . S
O51 C58 1.267 . S
O52 C41 1.185 . S
O52 Dy43 2.398 . S
O53 C41 1.355 . S
O53 Dy43 2.491 . S
O54 Dy43 2.403 . S
O54 C49 1.254 . S
O55 Dy40 2.310 . S
O55 Dy43 2.664 . S
O55 C49 1.268 . S
O56 Dy40 2.351 . S
O56 C59 1.249 . S
O57 Dy43 2.326 . S
O57 C59 1.267 . S
C58 O50 1.249 . S
C58 O51 1.267 . S
C59 O56 1.249 . S
C59 O57 1.267 . S
H60 C63 0.931 . S
H61 C66 0.928 . S
H62 C68 0.930 . S
C63 H60 0.931 . S
C63 C64 1.413 . S
C63 C65 1.360 1_565 S
C64 C63 1.413 . S
C64 C68 1.429 1_565 S
C65 C63 1.360 1_545 S
C65 C66 1.372 . S
C66 H61 0.928 . S
C66 C65 1.372 . S
C66 C67 1.404 . S
C67 C66 1.404 . S
C67 C68 1.391 . S
C68 H62 0.930 . S
C68 C64 1.429 1_545 S
C68 C67 1.391 . S
H69 C72 0.931 . S
H70 C75 0.928 . S
H71 C77 0.930 . S
C72 H69 0.931 . S
C72 C73 1.413 . S
C72 C74 1.360 . S
C73 C72 1.413 . S
C73 C77 1.429 . S
C74 C72 1.360 . S
C74 C75 1.372 . S
C75 H70 0.928 . S
C75 C74 1.372 . S
C75 C76 1.404 . S
C76 C75 1.404 . S
C76 C77 1.391 . S
C77 H71 0.930 . S
C77 C73 1.429 . S
C77 C76 1.391 . S
H78 C81 0.931 1_655 S
H79 C84 0.928 . S
H80 C86 0.930 . S
C81 H78 0.931 1_455 S
C81 C82 1.413 . S
C81 C83 1.360 . S
C82 C81 1.413 . S
C82 C86 1.429 . S
C83 C81 1.360 . S
C83 C84 1.372 . S
C84 H79 0.928 . S
C84 C83 1.372 . S
C84 C85 1.404 . S
C85 C84 1.404 . S
C85 C86 1.391 . S
C86 H80 0.930 . S
C86 C82 1.429 . S
C86 C85 1.391 . S
H87 C90 0.931 . S
H88 C93 0.928 . S
H89 C95 0.930 . S
C90 H87 0.931 . S
C90 C91 1.413 . S
C90 C92 1.360 1_655 S
C91 C90 1.413 . S
C91 C95 1.429 1_655 S
C92 C90 1.360 1_455 S
C92 C93 1.372 . S
C93 H88 0.928 . S
C93 C92 1.372 . S
C93 C94 1.404 . S
C94 C93 1.404 . S
C94 C95 1.391 . S
C95 H89 0.930 . S
C95 C91 1.429 1_455 S
C95 C94 1.391 . S
H96 C99 0.931 . S
H97 C102 0.928 1_565 S
H98 C104 0.930 . S
C99 H96 0.931 . S
C99 C100 1.413 . S
C99 C101 1.360 . S
C100 C99 1.413 . S
C100 C104 1.429 . S
C101 C99 1.360 . S
C101 C102 1.372 . S
C102 H97 0.928 1_545 S
C102 C101 1.372 . S
C102 C103 1.404 . S
C103 C102 1.404 . S
C103 C104 1.391 . S
C104 H98 0.930 . S
C104 C100 1.429 . S
C104 C103 1.391 . S
H105 C108 0.931 . S
H106 C111 0.928 . S
H107 C113 0.930 . S
C108 H105 0.931 . S
C108 C109 1.413 . S
C108 C110 1.360 . S
C109 C108 1.413 . S
C109 C113 1.429 . S
C110 C108 1.360 . S
C110 C111 1.372 . S
C111 H106 0.928 . S
C111 C110 1.372 . S
C111 C112 1.404 . S
C112 C111 1.404 . S
C112 C113 1.391 . S
C113 H107 0.930 . S
C113 C109 1.429 . S
C113 C112 1.391 . S
H114 C120 0.930 . S
H115 C123 0.930 . S
H116 C124 0.930 . S
H117 C125 0.930 . S
H118 C128 0.930 . S
H119 C129 0.930 . S
C120 H114 0.930 . S
C120 C121 1.355 . S
C120 C122 1.415 . S
C121 C120 1.355 . S
C121 C123 1.419 . S
C122 C120 1.415 . S
C122 C127 1.425 . S
C122 C129 1.409 . S
C123 H115 0.930 . S
C123 C121 1.419 . S
C123 C124 1.362 . S
C124 H116 0.930 . S
C124 C123 1.362 . S
C124 C127 1.409 . S
C125 H117 0.930 . S
C125 C126 1.355 . S
C125 C127 1.415 . S
C126 C125 1.355 . S
C126 C128 1.419 . S
C127 C122 1.425 . S
C127 C124 1.409 . S
C127 C125 1.415 . S
C128 H118 0.930 . S
C128 C126 1.419 . S
C128 C129 1.362 . S
C129 H119 0.930 . S
C129 C122 1.409 . S
C129 C128 1.362 . S
H130 C136 0.930 . S
H131 C139 0.930 . S
H132 C140 0.930 . S
H133 C141 0.930 . S
H134 C144 0.930 . S
H135 C145 0.930 . S
C136 H130 0.930 . S
C136 C137 1.355 . S
C136 C138 1.415 . S
C137 C136 1.355 . S
C137 C139 1.419 . S
C138 C136 1.415 . S
C138 C143 1.425 . S
C138 C145 1.409 . S
C139 H131 0.930 . S
C139 C137 1.419 . S
C139 C140 1.362 . S
C140 H132 0.930 . S
C140 C139 1.362 . S
C140 C143 1.409 . S
C141 H133 0.930 . S
C141 C142 1.355 . S
C141 C143 1.415 . S
C142 C141 1.355 . S
C142 C144 1.419 . S
C143 C138 1.425 . S
C143 C140 1.409 . S
C143 C141 1.415 . S
C144 H134 0.930 . S
C144 C142 1.419 . S
C144 C145 1.362 . S
C145 H135 0.930 . S
C145 C138 1.409 . S
C145 C144 1.362 . S
H146 C152 0.930 . S
H147 C155 0.930 . S
H148 C156 0.930 . S
H149 C157 0.930 . S
H150 C160 0.940 . S
H151 C161 0.930 . S
C152 H146 0.930 . S
C152 C153 1.355 . S
C152 C154 1.415 . S
C153 C152 1.355 . S
C153 C155 1.419 . S
C154 C152 1.415 . S
C154 C159 1.425 . S
C154 C161 1.409 . S
C155 H147 0.930 . S
C155 C153 1.419 . S
C155 C156 1.362 . S
C156 H148 0.930 . S
C156 C155 1.362 . S
C156 C159 1.409 . S
C157 H149 0.930 . S
C157 C158 1.355 . S
C157 C159 1.415 . S
C158 C157 1.355 . S
C158 C160 1.419 . S
C159 C154 1.425 . S
C159 C156 1.409 . S
C159 C157 1.415 . S
C160 H150 0.940 . S
C160 C158 1.419 . S
C160 C161 1.362 . S
C161 H151 0.930 . S
C161 C154 1.409 . S
C161 C160 1.362 . S
H162 C168 0.930 . S
H163 C171 0.930 . S
H164 C172 0.930 . S
H165 C173 0.930 . S
H166 C176 0.930 . S
H167 C177 0.930 . S
C168 H162 0.930 . S
C168 C169 1.355 . S
C168 C170 1.415 . S
C169 C168 1.355 . S
C169 C171 1.419 . S
C170 C168 1.415 . S
C170 C175 1.425 . S
C170 C177 1.409 . S
C171 H163 0.930 . S
C171 C169 1.419 . S
C171 C172 1.362 . S
C172 H164 0.930 . S
C172 C171 1.362 . S
C172 C175 1.409 . S
C173 H165 0.930 . S
C173 C174 1.355 . S
C173 C175 1.415 . S
C174 C173 1.355 . S
C174 C176 1.419 . S
C175 C170 1.425 . S
C175 C172 1.409 . S
C175 C173 1.415 . S
C176 H166 0.930 . S
C176 C174 1.419 . S
C176 C177 1.362 . S
C177 H167 0.930 . S
C177 C170 1.409 . S
C177 C176 1.362 . S
H178 C184 0.930 . S
H179 C187 0.930 . S
H180 C188 0.930 . S
H181 C189 0.930 . S
H182 C192 0.930 . S
H183 C193 0.930 . S
C184 H178 0.930 . S
C184 C185 1.355 . S
C184 C186 1.415 . S
C185 C184 1.355 . S
C185 C187 1.419 . S
C186 C184 1.415 . S
C186 C191 1.425 . S
C186 C193 1.409 . S
C187 H179 0.930 . S
C187 C185 1.419 . S
C187 C188 1.362 . S
C188 H180 0.930 . S
C188 C187 1.362 . S
C188 C191 1.409 . S
C189 H181 0.930 . S
C189 C190 1.355 . S
C189 C191 1.415 . S
C190 C189 1.355 . S
C190 C192 1.419 . S
C191 C186 1.425 . S
C191 C188 1.409 . S
C191 C189 1.415 . S
C192 H182 0.930 . S
C192 C190 1.419 . S
C192 C193 1.362 . S
C193 H183 0.930 . S
C193 C186 1.409 . S
C193 C192 1.362 . S
H194 C200 0.930 . S
H195 C203 0.930 . S
H196 C204 0.930 . S
H197 C205 0.930 . S
H198 C208 0.930 . S
H199 C209 0.930 . S
C200 H194 0.930 . S
C200 C201 1.355 . S
C200 C202 1.415 . S
C201 C200 1.355 . S
C201 C203 1.419 . S
C202 C200 1.415 . S
C202 C207 1.425 . S
C202 C209 1.409 . S
C203 H195 0.930 . S
C203 C201 1.419 . S
C203 C204 1.362 . S
C204 H196 0.930 . S
C204 C203 1.362 . S
C204 C207 1.409 . S
C205 H197 0.930 . S
C205 C206 1.355 . S
C205 C207 1.415 . S
C206 C205 1.355 . S
C206 C208 1.419 . S
C207 C202 1.425 . S
C207 C204 1.409 . S
C207 C205 1.415 . S
C208 H198 0.930 . S
C208 C206 1.419 . S
C208 C209 1.362 . S
C209 H199 0.930 . S
C209 C202 1.409 . S
C209 C208 1.362 . S
H210 C216 0.930 . S
H211 C219 0.930 . S
H212 C220 0.930 . S
H213 C221 0.930 . S
H214 C224 0.930 . S
H215 C225 0.930 . S
C216 H210 0.930 . S
C216 C217 1.355 . S
C216 C218 1.415 . S
C217 C216 1.355 . S
C217 C219 1.419 . S
C218 C216 1.415 . S
C218 C223 1.425 . S
C218 C225 1.409 . S
C219 H211 0.930 . S
C219 C217 1.419 . S
C219 C220 1.362 . S
C220 H212 0.930 . S
C220 C219 1.362 . S
C220 C223 1.409 . S
C221 H213 0.930 . S
C221 C222 1.355 . S
C221 C223 1.415 . S
C222 C221 1.355 . S
C222 C224 1.419 . S
C223 C218 1.425 . S
C223 C220 1.409 . S
C223 C221 1.415 . S
C224 H214 0.930 . S
C224 C222 1.419 . S
C224 C225 1.362 . S
C225 H215 0.930 . S
C225 C218 1.409 . S
C225 C224 1.362 . S
H226 C232 0.930 . S
H227 C235 0.930 . S
H228 C236 0.930 . S
H229 C237 0.930 . S
H230 C240 0.930 . S
H231 C241 0.930 . S
C232 H226 0.930 . S
C232 C233 1.355 . S
C232 C234 1.415 . S
C233 C232 1.355 . S
C233 C235 1.419 . S
C234 C232 1.415 . S
C234 C239 1.425 . S
C234 C241 1.409 . S
C235 H227 0.930 . S
C235 C233 1.419 . S
C235 C236 1.362 . S
C236 H228 0.930 . S
C236 C235 1.362 . S
C236 C239 1.409 . S
C237 H229 0.930 . S
C237 C238 1.355 . S
C237 C239 1.415 . S
C238 C237 1.355 . S
C238 C240 1.419 . S
C239 C234 1.425 . S
C239 C236 1.409 . S
C239 C237 1.415 . S
C240 H230 0.930 . S
C240 C238 1.419 . S
C240 C241 1.362 . S
C241 H231 0.930 . S
C241 C234 1.409 . S
C241 C240 1.362 . S
H242 C248 0.930 . S
H243 C251 0.930 . S
H244 C252 0.930 . S
H245 C253 0.930 . S
H246 C256 0.930 . S
H247 C257 0.930 . S
C248 H242 0.930 . S
C248 C249 1.355 . S
C248 C250 1.415 . S
C249 C248 1.355 . S
C249 C251 1.419 . S
C250 C248 1.415 . S
C250 C255 1.425 . S
C250 C257 1.409 . S
C251 H243 0.930 . S
C251 C249 1.419 . S
C251 C252 1.362 . S
C252 H244 0.930 . S
C252 C251 1.362 . S
C252 C255 1.409 . S
C253 H245 0.930 . S
C253 C254 1.355 . S
C253 C255 1.415 . S
C254 C253 1.355 . S
C254 C256 1.419 . S
C255 C250 1.425 . S
C255 C252 1.409 . S
C255 C253 1.415 . S
C256 H246 0.930 . S
C256 C254 1.419 . S
C256 C257 1.362 . S
C257 H247 0.930 . S
C257 C250 1.409 . S
C257 C256 1.362 . S
H258 C264 0.930 . S
H259 C267 0.930 . S
H260 C268 0.930 . S
H261 C269 0.930 . S
H262 C272 0.930 . S
H263 C273 0.930 . S
C264 H258 0.930 . S
C264 C265 1.355 . S
C264 C266 1.415 . S
C265 C264 1.355 . S
C265 C267 1.419 . S
C266 C264 1.415 . S
C266 C271 1.425 . S
C266 C273 1.409 . S
C267 H259 0.930 . S
C267 C265 1.419 . S
C267 C268 1.362 . S
C268 H260 0.930 . S
C268 C267 1.362 . S
C268 C271 1.409 . S
C269 H261 0.930 . S
C269 C270 1.355 . S
C269 C271 1.415 . S
C270 C269 1.355 . S
C270 C272 1.419 . S
C271 C266 1.425 . S
C271 C268 1.409 . S
C271 C269 1.415 . S
C272 H262 0.930 . S
C272 C270 1.419 . S
C272 C273 1.362 . S
C273 H263 0.930 . S
C273 C266 1.409 . S
C273 C272 1.362 . S
H274 C280 0.930 . S
H275 C283 0.930 . S
H276 C284 0.930 . S
H277 C285 0.930 . S
H278 C288 0.930 . S
H279 C289 0.930 . S
C280 H274 0.930 . S
C280 C281 1.355 . S
C280 C282 1.415 . S
C281 C280 1.355 . S
C281 C283 1.419 . S
C282 C280 1.415 . S
C282 C287 1.425 . S
C282 C289 1.409 . S
C283 H275 0.930 . S
C283 C281 1.419 . S
C283 C284 1.362 . S
C284 H276 0.930 . S
C284 C283 1.362 . S
C284 C287 1.409 . S
C285 H277 0.930 . S
C285 C286 1.355 . S
C285 C287 1.415 . S
C286 C285 1.355 . S
C286 C288 1.419 . S
C287 C282 1.425 . S
C287 C284 1.409 . S
C287 C285 1.415 . S
C288 H278 0.930 . S
C288 C286 1.419 . S
C288 C289 1.362 . S
C289 H279 0.930 . S
C289 C282 1.409 . S
C289 C288 1.362 . S
H290 C296 0.930 . S
H291 C299 0.930 . S
H292 C300 0.930 . S
H293 C301 0.930 . S
H294 C304 0.930 . S
H295 C305 0.930 . S
C296 H290 0.930 . S
C296 C297 1.355 . S
C296 C298 1.415 . S
C297 C296 1.355 . S
C297 C299 1.419 . S
C298 C296 1.415 . S
C298 C303 1.425 . S
C298 C305 1.409 . S
C299 H291 0.930 . S
C299 C297 1.419 . S
C299 C300 1.362 . S
C300 H292 0.930 . S
C300 C299 1.362 . S
C300 C303 1.409 . S
C301 H293 0.930 . S
C301 C302 1.355 . S
C301 C303 1.415 . S
C302 C301 1.355 . S
C302 C304 1.419 . S
C303 C298 1.425 . S
C303 C300 1.409 . S
C303 C301 1.415 . S
C304 H294 0.930 . S
C304 C302 1.419 . S
C304 C305 1.362 . S
C305 H295 0.930 . S
C305 C298 1.409 . S
C305 C304 1.362 . S
H306 C312 0.930 . S
H307 C315 0.930 . S
H308 C316 0.930 . S
H309 C317 0.930 1_655 S
H310 C320 0.930 . S
H311 C321 0.930 . S
C312 H306 0.930 . S
C312 C313 1.355 . S
C312 C314 1.415 . S
C313 C312 1.355 . S
C313 C315 1.419 1_455 S
C314 C312 1.415 . S
C314 C319 1.425 . S
C314 C321 1.409 . S
C315 H307 0.930 . S
C315 C313 1.419 1_655 S
C315 C316 1.362 . S
C316 H308 0.930 . S
C316 C315 1.362 . S
C316 C319 1.409 1_655 S
C317 H309 0.930 1_455 S
C317 C318 1.355 . S
C317 C319 1.415 1_556 S
C318 C317 1.355 . S
C318 C320 1.419 . S
C319 C314 1.425 . S
C319 C316 1.409 1_455 S
C319 C317 1.415 1_554 S
C320 H310 0.930 . S
C320 C318 1.419 . S
C320 C321 1.362 1_556 S
C321 H311 0.930 . S
C321 C314 1.409 . S
C321 C320 1.362 1_554 S
H322 C328 0.930 . S
H323 C331 0.930 . S
H324 C332 0.930 . S
H325 C333 0.930 . S
H326 C336 0.930 . S
H327 C337 0.930 . S
C328 H322 0.930 . S
C328 C329 1.355 . S
C328 C330 1.415 . S
C329 C328 1.355 . S
C329 C331 1.419 1_545 S
C330 C328 1.415 . S
C330 C335 1.425 1_545 S
C330 C337 1.409 . S
C331 H323 0.930 . S
C331 C329 1.419 1_565 S
C331 C332 1.362 . S
C332 H324 0.930 . S
C332 C331 1.362 . S
C332 C335 1.409 . S
C333 H325 0.930 . S
C333 C334 1.355 1_565 S
C333 C335 1.415 . S
C334 C333 1.355 1_545 S
C334 C336 1.419 . S
C335 C330 1.425 1_565 S
C335 C332 1.409 . S
C335 C333 1.415 . S
C336 H326 0.930 . S
C336 C334 1.419 . S
C336 C337 1.362 . S
C337 H327 0.930 . S
C337 C330 1.409 . S
C337 C336 1.362 . S
H338 C344 0.930 . S
H339 C347 0.930 . S
H340 C348 0.930 . S
H341 C349 0.930 . S
H342 C352 0.930 . S
H343 C353 0.930 . S
C344 H338 0.930 . S
C344 C345 1.355 . S
C344 C346 1.415 . S
C345 C344 1.355 . S
C345 C347 1.419 . S
C346 C344 1.415 . S
C346 C351 1.425 . S
C346 C353 1.409 . S
C347 H339 0.930 . S
C347 C345 1.419 . S
C347 C348 1.362 . S
C348 H340 0.930 . S
C348 C347 1.362 . S
C348 C351 1.409 . S
C349 H341 0.930 . S
C349 C350 1.355 . S
C349 C351 1.415 . S
C350 C349 1.355 . S
C350 C352 1.419 . S
C351 C346 1.425 . S
C351 C348 1.409 . S
C351 C349 1.415 . S
C352 H342 0.930 . S
C352 C350 1.419 . S
C352 C353 1.362 . S
C353 H343 0.930 . S
C353 C346 1.409 . S
C353 C352 1.362 . S
H354 C360 0.930 . S
H355 C363 0.930 1_565 S
H356 C364 0.930 . S
H357 C365 0.930 1_565 S
H358 C368 0.930 . S
H359 C369 0.930 . S
C360 H354 0.930 . S
C360 C361 1.355 . S
C360 C362 1.415 . S
C361 C360 1.355 . S
C361 C363 1.419 . S
C362 C360 1.415 . S
C362 C367 1.425 . S
C362 C369 1.409 . S
C363 H355 0.930 1_545 S
C363 C361 1.419 . S
C363 C364 1.362 1_545 S
C364 H356 0.930 . S
C364 C363 1.362 1_565 S
C364 C367 1.409 1_565 S
C365 H357 0.930 1_545 S
C365 C366 1.355 . S
C365 C367 1.415 . S
C366 C365 1.355 . S
C366 C368 1.419 . S
C367 C362 1.425 . S
C367 C364 1.409 1_545 S
C367 C365 1.415 . S
C368 H358 0.930 . S
C368 C366 1.419 . S
C368 C369 1.362 . S
C369 H359 0.930 . S
C369 C362 1.409 . S
C369 C368 1.362 . S
H370 C376 0.930 . S
H371 C379 0.930 . S
H372 C380 0.930 . S
H373 C381 0.930 . S
H374 C384 0.930 . S
H375 C385 0.930 . S
C376 H370 0.930 . S
C376 C377 1.355 . S
C376 C378 1.415 . S
C377 C376 1.355 . S
C377 C379 1.419 . S
C378 C376 1.415 . S
C378 C383 1.425 . S
C378 C385 1.409 . S
C379 H371 0.930 . S
C379 C377 1.419 . S
C379 C380 1.362 . S
C380 H372 0.930 . S
C380 C379 1.362 . S
C380 C383 1.409 . S
C381 H373 0.930 . S
C381 C382 1.355 . S
C381 C383 1.415 1_554 S
C382 C381 1.355 . S
C382 C384 1.419 . S
C383 C378 1.425 . S
C383 C380 1.409 . S
C383 C381 1.415 1_556 S
C384 H374 0.930 . S
C384 C382 1.419 . S
C384 C385 1.362 1_554 S
C385 H375 0.930 . S
C385 C378 1.409 . S
C385 C384 1.362 1_556 S
H386 C392 0.930 . S
H387 C395 0.930 . S
H388 C396 0.930 . S
H389 C397 0.930 . S
H390 C400 0.930 . S
H391 C401 0.930 . S
C392 H386 0.930 . S
C392 C393 1.355 . S
C392 C394 1.415 . S
C393 C392 1.355 . S
C393 C395 1.419 . S
C394 C392 1.415 . S
C394 C399 1.425 . S
C394 C401 1.409 . S
C395 H387 0.930 . S
C395 C393 1.419 . S
C395 C396 1.362 . S
C396 H388 0.930 . S
C396 C395 1.362 . S
C396 C399 1.409 . S
C397 H389 0.930 . S
C397 C398 1.355 . S
C397 C399 1.415 . S
C398 C397 1.355 . S
C398 C400 1.419 . S
C399 C394 1.425 . S
C399 C396 1.409 . S
C399 C397 1.415 . S
C400 H390 0.930 . S
C400 C398 1.419 . S
C400 C401 1.362 . S
C401 H391 0.930 . S
C401 C394 1.409 . S
C401 C400 1.362 . S
C121 C2 1.034 . S
C126 C109 1.077 . S
C137 C21 0.964 . S
C142 C91 1.046 . S
C153 C42 1.066 . S
C158 C103 1.025 1_565 S
C169 C1 1.029 . S
C174 C112 0.998 . S
C190 C94 1.019 . S
C185 C22 1.040 . S
C206 C100 1.033 . S
C201 C41 1.029 . S
C217 C38 1.809 . S
C222 C73 1.829 . S
C233 C59 1.886 . S
C238 C82 1.876 1_655 S
C249 C18 1.792 . S
C254 C64 1.844 . S
C270 C76 1.848 . S
C265 C39 1.869 . S
C286 C85 1.821 . S
C281 C58 1.784 . S
C297 C19 1.870 . S
C302 C67 1.852 . S
C318 C83 1.571 . S
C313 C9 1.476 . S
C329 C29 1.516 . S
C334 C65 1.571 . S
C345 C49 1.516 . S
C350 C74 1.576 . S
C366 C101 1.379 . S
C361 C28 1.370 . S
C382 C110 1.385 . S
C377 C48 1.333 . S
C393 C8 1.325 . S
C398 C92 1.386 . S
