# Generated by pormake.
# Topology anh, (6,3)-cn, num edge types: 1
# Building blocks:
#     Node 0, Type 0, BuildingBlock: GEDQOX_clean_sbu_0, # of connection points: 6
#     Node 1, Type 0, BuildingBlock: GEDQOX_clean_sbu_0, # of connection points: 6
#     Node 2, Type 0, BuildingBlock: GEDQOX_clean_sbu_0, # of connection points: 6
#     Node 3, Type 1, BuildingBlock: BELTOD_clean_linker_0, # of connection points: 3
#     Node 4, Type 1, BuildingBlock: BELTOD_clean_linker_0, # of connection points: 3
#     Node 5, Type 1, BuildingBlock: BELTOD_clean_linker_0, # of connection points: 3
#     Node 6, Type 1, BuildingBlock: BELTOD_clean_linker_0, # of connection points: 3
#     Node 7, Type 1, BuildingBlock: BELTOD_clean_linker_0, # of connection points: 3
#     Node 8, Type 1, BuildingBlock: BELTOD_clean_linker_0, # of connection points: 3
#     Edge 9, Type (0, 1), BuildingBlock: OJICUG_clean_linker_0, # of connection points: 2
#     Edge 10, Type (0, 1), BuildingBlock: OJICUG_clean_linker_0, # of connection points: 2
#     Edge 11, Type (0, 1), BuildingBlock: OJICUG_clean_linker_0, # of connection points: 2
#     Edge 12, Type (0, 1), BuildingBlock: OJICUG_clean_linker_0, # of connection points: 2
#     Edge 13, Type (0, 1), BuildingBlock: OJICUG_clean_linker_0, # of connection points: 2
#     Edge 14, Type (0, 1), BuildingBlock: OJICUG_clean_linker_0, # of connection points: 2
#     Edge 15, Type (0, 1), BuildingBlock: OJICUG_clean_linker_0, # of connection points: 2
#     Edge 16, Type (0, 1), BuildingBlock: OJICUG_clean_linker_0, # of connection points: 2
#     Edge 17, Type (0, 1), BuildingBlock: OJICUG_clean_linker_0, # of connection points: 2
#     Edge 18, Type (0, 1), BuildingBlock: OJICUG_clean_linker_0, # of connection points: 2
#     Edge 19, Type (0, 1), BuildingBlock: OJICUG_clean_linker_0, # of connection points: 2
#     Edge 20, Type (0, 1), BuildingBlock: OJICUG_clean_linker_0, # of connection points: 2
#     Edge 21, Type (0, 1), BuildingBlock: OJICUG_clean_linker_0, # of connection points: 2
#     Edge 22, Type (0, 1), BuildingBlock: OJICUG_clean_linker_0, # of connection points: 2
#     Edge 23, Type (0, 1), BuildingBlock: OJICUG_clean_linker_0, # of connection points: 2
#     Edge 24, Type (0, 1), BuildingBlock: OJICUG_clean_linker_0, # of connection points: 2
#     Edge 25, Type (0, 1), BuildingBlock: OJICUG_clean_linker_0, # of connection points: 2
#     Edge 26, Type (0, 1), BuildingBlock: OJICUG_clean_linker_0, # of connection points: 2
# Relax obj value: 0.214
# Max RMSD: 0.229
# Mean RMSD: 0.161
data_MOF--net-anh--node1-GEDQOX_clean_sbu_0--node2-BELTOD_clean_linker_0--edge1-OJICUG_clean_linker_0
_symmetry_space_group_name_H-M    P1
_symmetry_Int_Tables_number       1
_symmetry_cell_setting            triclinic
loop_
_symmetry_equiv_pos_as_xyz
'x, y, z'
_cell_length_a     27.80163
_cell_length_b     26.009036
_cell_length_c     46.63544
_cell_angle_alpha  92.97621
_cell_angle_beta   90.779687
_cell_angle_gamma 103.38279
loop_
_atom_site_label
_atom_site_type_symbol
_atom_site_fract_x
_atom_site_fract_y
_atom_site_fract_z
_atom_type_partial_charge
Nd0 Nd 0.0874 0.54866 0.15068 0.0
Nd1 Nd 0.06118 0.42565 0.15137 0.0
C2 C 0.1233 0.64424 0.13382 0.0
C3 C 0.1679 0.68403 0.14388 0.0
C4 C 0.19937 0.71244 0.12399 0.0
C5 C 0.24411 0.74665 0.13324 0.0
C6 C 0.25819 0.75262 0.16252 0.0
C7 C 0.22656 0.7241 0.18238 0.0
C8 C 0.18193 0.69006 0.17316 0.0
C9 C 0.08951 0.52261 0.2072 0.0
C10 C 0.18153 0.48199 0.14844 0.0
C11 C 1.0189 0.3274 0.16179 0.0
C12 C 0.96659 0.30024 0.16545 0.0
C13 C 0.94425 0.30253 0.19219 0.0
C14 C 0.89458 0.2777 0.19534 0.0
C15 C 0.86614 0.24997 0.17183 0.0
C16 C 0.88821 0.24869 0.14496 0.0
C17 C 0.93792 0.27329 0.14183 0.0
C18 C 0.07175 0.46859 0.09941 0.0
C19 C 0.96571 0.49035 0.14752 0.0
O20 O 0.13197 0.60182 0.12042 0.0
O21 O 0.08708 0.63369 0.152 0.0
O22 O 0.09816 0.5707 0.19915 0.0
O23 O 0.08007 0.49074 0.18548 0.0
O24 O 0.16591 0.52625 0.14446 0.0
O25 O 0.14833 0.43799 0.15446 0.0
O26 O 1.03961 0.36269 0.18207 0.0
O27 O 1.03081 0.3425 0.13597 0.0
O28 O 0.08971 0.42797 0.10466 0.0
O29 O 1.05015 0.4829 0.12059 0.0
O30 O 0.98047 0.44551 0.15191 0.0
O31 O 1.00015 0.53521 0.14469 0.0
H32 H 0.18978 0.70735 0.10126 0.0
H33 H 0.26821 0.7675 0.11743 0.0
H34 H 0.23631 0.72814 0.20509 0.0
H35 H 0.15882 0.66785 0.18892 0.0
H36 H 0.9652 0.32307 0.21082 0.0
H37 H 0.87902 0.27861 0.21647 0.0
H38 H 0.86719 0.228 0.12639 0.0
H39 H 0.95393 0.27103 0.12089 0.0
Nd40 Nd 0.49423 0.00742 0.52284 0.0
Nd41 Nd 0.59987 0.03406 0.51851 0.0
C42 C 0.40185 0.96285 0.53417 0.0
C43 C 0.36945 0.9114 0.52509 0.0
C44 C 0.33982 0.88162 0.54524 0.0
C45 C 0.30973 0.83202 0.53701 0.0
C46 C 0.30888 0.8115 0.50846 0.0
C47 C 0.33976 0.84093 0.48854 0.0
C48 C 0.36987 0.89035 0.49679 0.0
C49 C 0.52451 0.01987 0.46701 0.0
C50 C 0.55415 0.91058 0.51794 0.0
C51 C 0.69265 0.07982 0.50932 0.0
C52 C 0.71912 0.13498 0.50625 0.0
C53 C 0.70343 0.16616 0.48598 0.0
C54 C 0.73157 0.21685 0.48176 0.0
C55 C 0.77565 0.23711 0.49779 0.0
C56 C 0.78882 0.20764 0.51978 0.0
C57 C 0.76079 0.15685 0.5239 0.0
C58 C 0.56938 0.01691 0.57365 0.0
C59 C 0.54101 0.12988 0.52369 0.0
O60 O 0.43914 0.96081 0.55105 0.0
O61 O 0.41396 0.99681 0.51428 0.0
O62 O 0.48846 0.0379 0.47761 0.0
O63 O 0.54235 0.99506 0.48532 0.0
O64 O 0.51482 0.92622 0.52716 0.0
O65 O 0.59275 0.94514 0.50907 0.0
O66 O 0.66125 0.05744 0.48866 0.0
O67 O 0.6762 0.06872 0.53485 0.0
O68 O 0.60433 0.99851 0.56191 0.0
O69 O 0.55177 0.04436 0.55653 0.0
O70 O 0.57717 0.11317 0.51096 0.0
O71 O 0.50579 0.09572 0.53582 0.0
H72 H 0.33989 0.89682 0.56732 0.0
H73 H 0.28638 0.81031 0.55285 0.0
H74 H 0.34088 0.82564 0.46657 0.0
H75 H 0.39355 0.91197 0.48103 0.0
H76 H 0.67048 0.1508 0.47266 0.0
H77 H 0.72034 0.23911 0.46491 0.0
H78 H 0.82273 0.22213 0.53237 0.0
H79 H 0.77277 0.13383 0.54012 0.0
Nd80 Nd 0.51844 0.49014 0.82997 0.0
Nd81 Nd 0.62479 0.53226 0.83799 0.0
C82 C 0.43246 0.46018 0.80281 0.0
C83 C 0.38626 0.47693 0.80416 0.0
C84 C 0.36834 0.49491 0.77921 0.0
C85 C 0.33422 0.5264 0.7813 0.0
C86 C 0.31773 0.5391 0.80831 0.0
C87 C 0.3321 0.51711 0.83289 0.0
C88 C 0.36646 0.4862 0.83088 0.0
C89 C 0.53443 0.50302 0.88941 0.0
C90 C 0.56196 0.61937 0.84024 0.0
C91 C 0.71945 0.54565 0.84625 0.0
C92 C 0.74851 0.50721 0.83779 0.0
C93 C 0.76843 0.48174 0.85901 0.0
C94 C 0.80039 0.44966 0.85159 0.0
C95 C 0.81467 0.44458 0.82282 0.0
C96 C 0.78669 0.46112 0.80126 0.0
C97 C 0.75457 0.49334 0.80869 0.0
C98 C 0.5909 0.53069 0.78243 0.0
C99 C 0.58219 0.40186 0.83089 0.0
O100 O 0.46915 0.49652 0.79391 0.0
O101 O 0.44451 0.43587 0.82479 0.0
O102 O 0.49154 0.48456 0.87687 0.0
O103 O 0.56722 0.51363 0.87079 0.0
O104 O 0.52756 0.58117 0.82712 0.0
O105 O 0.60133 0.60839 0.85228 0.0
O106 O 0.68846 0.53208 0.86688 0.0
O107 O 0.70106 0.56714 0.8253 0.0
O108 O 0.61926 0.57181 0.79562 0.0
O109 O 0.57994 0.49283 0.79894 0.0
O110 O 0.62044 0.44136 0.83812 0.0
O111 O 0.53899 0.41084 0.82459 0.0
H112 H 0.38392 0.48842 0.75852 0.0
H113 H 0.32327 0.54353 0.76229 0.0
H114 H 0.31925 0.52688 0.85387 0.0
H115 H 0.38019 0.47321 0.85045 0.0
H116 H 0.76173 0.4892 0.88151 0.0
H117 H 0.81881 0.43551 0.86907 0.0
H118 H 0.79441 0.45517 0.77879 0.0
H119 H 0.73686 0.50961 0.79165 0.0
P120 P 0.58876 0.97078 0.24992 0.0
H121 H 0.56564 0.89018 0.20323 0.0
H122 H 0.48724 0.84178 0.18058 0.0
H123 H 0.41074 0.94486 0.22723 0.0
H124 H 0.48949 0.9928 0.25064 0.0
H125 H 0.69477 0.00602 0.2502 0.0
H126 H 0.75118 0.07656 0.22688 0.0
H127 H 0.62737 0.13008 0.19277 0.0
H128 H 0.57 0.05777 0.21594 0.0
H129 H 0.5624 0.903 0.29698 0.0
H130 H 0.58546 0.06969 0.2837 0.0
O131 O 0.61992 0.92308 0.25022 0.0
H132 H 0.55044 0.91999 0.34797 0.0
H133 H 0.57302 0.08708 0.33518 0.0
C134 C 0.53298 0.94409 0.22912 0.0
C135 C 0.53218 0.90288 0.2084 0.0
C136 C 0.48756 0.87533 0.19542 0.0
C137 C 0.4434 0.88955 0.20249 0.0
C138 C 0.44463 0.93342 0.22159 0.0
C139 C 0.48937 0.9606 0.23493 0.0
C140 C 0.62835 0.02607 0.23423 0.0
C141 C 0.6795 0.03267 0.23768 0.0
C142 C 0.71169 0.07291 0.22441 0.0
C143 C 0.69329 0.10788 0.20787 0.0
C144 C 0.64204 0.10305 0.20534 0.0
C145 C 0.60951 0.06196 0.21847 0.0
C146 C 0.57585 0.98515 0.28676 0.0
C147 C 0.5649 0.94334 0.3051 0.0
C148 C 0.5583 0.95313 0.33426 0.0
C149 C 0.56177 0.00495 0.34565 0.0
C150 C 0.57051 0.04679 0.32698 0.0
C151 C 0.57768 0.03692 0.29764 0.0
P152 P 0.5952 0.53297 0.5607 0.0
H153 H 0.63262 0.47147 0.51549 0.0
H154 H 0.61612 0.37694 0.5047 0.0
H155 H 0.48344 0.3561 0.55451 0.0
H156 H 0.50262 0.45117 0.56672 0.0
H157 H 0.64924 0.6407 0.57159 0.0
H158 H 0.63674 0.72652 0.55913 0.0
H159 H 0.50514 0.64949 0.50985 0.0
H160 H 0.51753 0.56204 0.52287 0.0
H161 H 0.61555 0.46163 0.60252 0.0
H162 H 0.54432 0.59227 0.6019 0.0
O163 O 0.65641 0.54035 0.55958 0.0
H164 H 0.60553 0.45788 0.65434 0.0
H165 H 0.53401 0.5887 0.65387 0.0
C166 C 0.5694 0.46882 0.54232 0.0
C167 C 0.59919 0.44685 0.52351 0.0
C168 C 0.58951 0.392 0.51732 0.0
C169 C 0.54898 0.35735 0.52932 0.0
C170 C 0.51616 0.38048 0.54566 0.0
C171 C 0.52642 0.43543 0.5522 0.0
C172 C 0.58471 0.59461 0.54796 0.0
C173 C 0.61788 0.64178 0.55779 0.0
C174 C 0.6107 0.69104 0.55074 0.0
C175 C 0.57015 0.69482 0.53347 0.0
C176 C 0.53703 0.64765 0.52301 0.0
C177 C 0.544 0.59775 0.53045 0.0
C178 C 0.58126 0.52754 0.59834 0.0
C179 C 0.59713 0.48909 0.61351 0.0
C180 C 0.59106 0.48676 0.64317 0.0
C181 C 0.56913 0.52311 0.6584 0.0
C182 C 0.55161 0.56051 0.6429 0.0
C183 C 0.55745 0.56256 0.61311 0.0
P184 P 0.08435 0.67674 0.91742 0.0
H185 H 0.1235 0.73822 0.86966 0.0
H186 H 0.18401 0.72176 0.8346 0.0
H187 H 0.23077 0.61684 0.89187 0.0
H188 H 0.16956 0.63044 0.92574 0.0
H189 H 0.99828 0.67482 0.87972 0.0
H190 H 0.94855 0.60521 0.84726 0.0
H191 H 1.0409 0.49948 0.86914 0.0
H192 H 0.08972 0.56877 0.90198 0.0
H193 H 0.15637 0.69157 0.966 0.0
H194 H 1.0084 0.6005 0.94464 0.0
O195 O 0.06361 0.73204 0.91953 0.0
H196 H 0.15813 0.63971 0.00856 0.0
H197 H 1.0101 0.54969 0.98676 0.0
C198 C 0.14301 0.68717 0.90086 0.0
C199 C 0.14878 0.71415 0.87539 0.0
C200 C 0.1828 0.70449 0.8553 0.0
C201 C 0.21169 0.6687 0.86105 0.0
C202 C 0.20924 0.64557 0.88756 0.0
C203 C 0.17467 0.65422 0.90723 0.0
C204 C 1.0475 0.62686 0.89314 0.0
C205 C 1.00799 0.63687 0.87734 0.0
C206 C 0.98013 0.59726 0.85856 0.0
C207 C 0.99172 0.54731 0.85528 0.0
C208 C 1.03157 0.53769 0.87107 0.0
C209 C 0.05935 0.57727 0.88979 0.0
C210 C 0.08305 0.6483 0.95163 0.0
C211 C 0.12438 0.66066 0.97048 0.0
C212 C 0.12564 0.63086 0.99445 0.0
C213 C 0.08478 0.59009 0.00013 0.0
C214 C 1.04232 0.58041 0.98231 0.0
C215 C 1.04133 0.60961 0.95837 0.0
P216 P 0.09877 0.45275 0.42418 0.0
H217 H 0.18084 0.47978 0.46617 0.0
H218 H 0.22702 0.56396 0.48822 0.0
H219 H 0.12565 0.64353 0.44784 0.0
H220 H 0.082 0.5595 0.4242 0.0
H221 H 1.04734 0.34407 0.43008 0.0
H222 H 0.96675 0.3032 0.44864 0.0
H223 H 0.94098 0.45758 0.47077 0.0
H224 H 1.02197 0.49884 0.452 0.0
H225 H 0.1687 0.50504 0.38382 0.0
H226 H 1.01449 0.42411 0.38203 0.0
O227 O 0.13523 0.41028 0.42633 0.0
H228 H 0.16324 0.51875 0.3326 0.0
H229 H 1.00894 0.43767 0.3304 0.0
C230 C 0.1286 0.51372 0.44323 0.0
C231 C 0.16859 0.51538 0.4621 0.0
C232 C 0.19465 0.56358 0.47498 0.0
C233 C 0.1805 0.6108 0.46956 0.0
C234 C 0.13844 0.60823 0.45189 0.0
C235 C 0.1131 0.56016 0.43857 0.0
C236 C 1.04087 0.42438 0.43989 0.0
C237 C 1.02474 0.36927 0.43915 0.0
C238 C 0.97875 0.34599 0.44964 0.0
C239 C 0.94807 0.37753 0.4609 0.0
C240 C 0.96441 0.43277 0.46225 0.0
C241 C 1.01056 0.45617 0.45149 0.0
C242 C 0.09201 0.46416 0.38678 0.0
C243 C 0.13357 0.49054 0.37241 0.0
C244 C 0.13042 0.49827 0.34317 0.0
C245 C 0.08568 0.47926 0.32759 0.0
C246 C 1.04395 0.4523 0.34191 0.0
C247 C 1.04706 0.44491 0.37141 0.0
P248 P 0.61407 0.01727 0.79341 0.0
H249 H 0.66985 0.10004 0.83409 0.0
H250 H 0.66212 0.18989 0.84442 0.0
H251 H 0.51398 0.14859 0.80707 0.0
H252 H 0.5237 0.05909 0.79512 0.0
H253 H 0.6523 0.92715 0.77623 0.0
H254 H 0.63538 0.83506 0.78868 0.0
H255 H 0.52682 0.86402 0.84879 0.0
H256 H 0.54354 0.95764 0.83568 0.0
H257 H 0.62519 0.1036 0.75538 0.0
H258 H 0.55817 0.93615 0.75019 0.0
O259 O 0.6757 0.03313 0.79221 0.0
H260 H 0.60692 0.10788 0.70444 0.0
H261 H 0.54192 0.93971 0.69881 0.0
C262 C 0.59767 0.07247 0.81344 0.0
C263 C 0.63505 0.10967 0.82881 0.0
C264 C 0.63052 0.16175 0.83472 0.0
C265 C 0.58796 0.17805 0.82587 0.0
C266 C 0.54826 0.13879 0.81331 0.0
C267 C 0.55318 0.08677 0.80706 0.0
C268 C 0.59945 0.94969 0.80506 0.0
C269 C 0.62485 0.91409 0.79219 0.0
C270 C 0.61502 0.86117 0.79923 0.0
C271 C 0.57972 0.84201 0.81968 0.0
C272 C 0.55446 0.87771 0.83304 0.0
C273 C 0.56388 0.93113 0.82556 0.0
C274 C 0.59349 0.01956 0.75667 0.0
C275 C 0.60616 0.06776 0.74334 0.0
C276 C 0.59601 0.07009 0.71411 0.0
C277 C 0.5736 0.02401 0.69739 0.0
C278 C 0.55895 0.97603 0.71106 0.0
C279 C 0.56873 0.97386 0.74049 0.0
P280 P 0.56943 0.46579 0.11193 0.0
H281 H 0.62926 0.42697 0.15766 0.0
H282 H 0.71743 0.43212 0.16592 0.0
H283 H 0.7523 0.5453 0.10066 0.0
H284 H 0.66417 0.54033 0.09294 0.0
H285 H 0.47432 0.38991 0.12541 0.0
H286 H 0.39005 0.394 0.13317 0.0
H287 H 0.43266 0.56438 0.13483 0.0
H288 H 0.5188 0.55965 0.12637 0.0
H289 H 0.59846 0.40989 0.06121 0.0
H290 H 0.54411 0.55059 0.07763 0.0
O291 O 0.56068 0.40007 0.11188 0.0
H292 H 0.59444 0.42087 0.0097 0.0
H293 H 0.53934 0.56149 0.02584 0.0
C294 C 0.6373 0.48424 0.12504 0.0
C295 C 0.65552 0.45447 0.14561 0.0
C296 C 0.70732 0.45672 0.14997 0.0
C297 C 0.74507 0.48888 0.13401 0.0
C298 C 0.72671 0.51999 0.11406 0.0
C299 C 0.67486 0.51751 0.10965 0.0
C300 C 0.50632 0.47432 0.12544 0.0
C301 C 0.46698 0.4289 0.12792 0.0
C302 C 0.41677 0.43133 0.13248 0.0
C303 C 0.40102 0.47959 0.13492 0.0
C304 C 0.4406 0.5256 0.13298 0.0
C305 C 0.49139 0.52305 0.12833 0.0
C306 C 0.56997 0.47826 0.07363 0.0
C307 C 0.58528 0.44308 0.05383 0.0
C308 C 0.58288 0.44938 0.02417 0.0
C309 C 0.5656 0.49152 0.01326 0.0
C310 C 0.55268 0.52841 0.03324 0.0
C311 C 0.55494 0.5219 0.06304 0.0
C312 C 0.25646 0.43628 0.14953 0.0
C313 C 0.23778 0.48182 0.14546 0.0
H314 H 0.31802 0.39925 0.15048 0.0
C315 C 0.27423 0.52703 0.13812 0.0
H316 H 0.2312 0.40015 0.15522 0.0
C317 C 0.32561 0.52662 0.13496 0.0
C318 C 0.3446 0.48091 0.13893 0.0
H319 H 0.26303 0.56343 0.13456 0.0
H320 H 0.35033 0.56277 0.12896 0.0
C321 C 0.30774 0.43585 0.14649 0.0
C322 C 0.82421 0.28327 0.45874 0.0
C323 C 0.81257 0.28273 0.48794 0.0
H324 H 0.87677 0.31451 0.42743 0.0
C325 C 0.84205 0.32015 0.50763 0.0
H326 H 0.80272 0.25443 0.44313 0.0
C327 C 0.88472 0.35472 0.49849 0.0
C328 C 0.89828 0.35158 0.46971 0.0
H329 H 0.83364 0.32057 0.53024 0.0
H330 H 0.90879 0.38107 0.51415 0.0
C331 C 0.86678 0.31729 0.44974 0.0
C332 C 0.5536 0.69177 0.80855 0.0
C333 C 0.56136 0.67581 0.83625 0.0
H334 H 0.55394 0.75642 0.78168 0.0
C335 C 0.57245 0.71482 0.85899 0.0
H336 H 0.54597 0.66289 0.79049 0.0
C337 C 0.57569 0.76859 0.85404 0.0
C338 C 0.56965 0.78464 0.82609 0.0
H339 H 0.57901 0.70377 0.88052 0.0
H340 H 0.58498 0.79785 0.87185 0.0
C341 C 0.55834 0.74541 0.80349 0.0
C342 C 0.89224 0.5317 0.1322 0.0
C343 C 0.90927 0.48991 0.14435 0.0
H344 H 0.83144 0.56501 0.11944 0.0
C345 C 0.87095 0.44766 0.153 0.0
H346 H 0.91911 0.56523 0.12486 0.0
C347 C 0.81932 0.44751 0.14998 0.0
C348 C 0.80198 0.4893 0.13772 0.0
H349 H 0.88081 0.41419 0.16241 0.0
H350 H 0.79289 0.41347 0.15706 0.0
C351 C 0.84066 0.53129 0.12885 0.0
C352 C 0.24979 0.75464 0.4725 0.0
C353 C 0.27503 0.7603 0.49917 0.0
H354 H 0.20121 0.70329 0.44209 0.0
C355 C 0.26764 0.7169 0.51667 0.0
H356 H 0.25404 0.78756 0.4587 0.0
C357 C 0.23605 0.66866 0.50747 0.0
C358 C 0.2115 0.66276 0.48049 0.0
H359 H 0.28686 0.71993 0.53727 0.0
H360 H 0.23101 0.63603 0.52149 0.0
C361 C 0.21869 0.70645 0.4632 0.0
C362 C 0.55874 0.31 0.80816 0.0
C363 C 0.58659 0.34583 0.82914 0.0
H364 H 0.53851 0.23082 0.78994 0.0
C365 C 0.61493 0.32646 0.84928 0.0
H366 H 0.53666 0.32374 0.79221 0.0
C367 C 0.6145 0.27217 0.84878 0.0
C368 C 0.58665 0.23592 0.82766 0.0
H369 H 0.63612 0.35295 0.866 0.0
H370 H 0.63558 0.25873 0.8653 0.0
C371 C 0.55925 0.25621 0.80718 0.0
C372 C 0.56337 0.82162 0.49724 0.0
C373 C 0.5566 0.85468 0.52096 0.0
H374 H 0.57107 0.74402 0.48237 0.0
C375 C 0.55193 0.83395 0.54824 0.0
H376 H 0.56683 0.83665 0.47595 0.0
C377 C 0.55528 0.78179 0.55197 0.0
C378 C 0.56196 0.74843 0.52839 0.0
H379 H 0.54693 0.85867 0.56688 0.0
H380 H 0.5531 0.76751 0.57344 0.0
C381 C 0.56536 0.76864 0.50087 0.0
C382 C 0.89371 0.42427 0.8388 0.0
C383 C 0.86728 0.44406 0.8177 0.0
H384 H 0.95382 0.44522 0.8695 0.0
C385 C 0.89405 0.48423 0.80103 0.0
H386 H 0.87553 0.3908 0.85067 0.0
C387 C 0.93915 0.51516 0.81153 0.0
C388 C 0.95864 0.50425 0.83776 0.0
H389 H 0.87678 0.49879 0.78321 0.0
H390 H 0.95545 0.55114 0.80111 0.0
C391 C 0.9386 0.45564 0.8497 0.0
C392 C 0.32115 0.8391 0.16239 0.0
C393 C 0.30597 0.78791 0.17243 0.0
H394 H 0.37678 0.9121 0.16453 0.0
C395 C 0.33646 0.77075 0.19232 0.0
H396 H 0.2982 0.85338 0.14719 0.0
C397 C 0.38121 0.80404 0.20195 0.0
C398 C 0.39596 0.85523 0.19213 0.0
H399 H 0.32595 0.73137 0.20022 0.0
H400 H 0.40426 0.78999 0.21723 0.0
C401 C 0.36571 0.87272 0.17238 0.0
C402 C 0.51894 0.21071 0.54699 0.0
C403 C 0.54049 0.18716 0.52431 0.0
H404 H 0.50613 0.28183 0.56708 0.0
C405 C 0.56256 0.2192 0.50248 0.0
H406 H 0.50196 0.18725 0.56428 0.0
C407 C 0.56338 0.27348 0.50339 0.0
C408 C 0.54346 0.29797 0.52666 0.0
H409 H 0.57901 0.20219 0.48449 0.0
H410 H 0.57993 0.29605 0.48574 0.0
C411 C 0.52096 0.26529 0.54837 0.0
C412 C 0.31573 0.62947 0.82468 0.0
C413 C 0.29063 0.58024 0.81215 0.0
H414 H 0.30886 0.69805 0.85023 0.0
C415 C 0.23905 0.56675 0.81004 0.0
H416 H 0.35575 0.63962 0.82673 0.0
C417 C 0.21246 0.6003 0.82309 0.0
C418 C 0.23765 0.64695 0.83833 0.0
H419 H 0.21958 0.52828 0.80089 0.0
H420 H 0.17259 0.58712 0.82399 0.0
C421 C 0.28918 0.66278 0.83793 0.0
C422 C 0.78343 0.23569 0.19527 0.0
C423 C 0.81562 0.21768 0.17621 0.0
H424 H 0.71783 0.2144 0.21999 0.0
C425 C 0.80169 0.16573 0.16392 0.0
H426 H 0.79285 0.27578 0.20474 0.0
C427 C 0.7588 0.13121 0.17239 0.0
C428 C 0.72896 0.14802 0.19316 0.0
H429 H 0.82573 0.15035 0.14941 0.0
H430 H 0.75073 0.09025 0.16424 0.0
C431 C 0.74029 0.20098 0.20372 0.0
C432 C 0.11361 0.4963 0.05354 0.0
C433 C 0.07601 0.49727 0.07315 0.0
H434 H 0.14672 0.5269 0.01461 0.0
C435 C 1.04268 0.5294 0.06881 0.0
H436 H 0.13989 0.47208 0.05678 0.0
C437 C 1.04658 0.56017 0.04529 0.0
C438 C 0.08402 0.55966 0.02569 0.0
H439 H 1.01331 0.53081 0.08366 0.0
H440 H 1.0202 0.58442 0.04234 0.0
C441 C 0.11784 0.52788 0.02985 0.0
C442 C 0.5721 0.99308 0.42599 0.0
C443 C 0.5373 0.02046 0.4363 0.0
H444 H 0.60746 0.96736 0.3892 0.0
C445 C 0.51376 0.04686 0.41686 0.0
H446 H 0.59131 0.97294 0.44049 0.0
C447 C 0.52328 0.04397 0.38744 0.0
C448 C 0.55617 0.01422 0.37699 0.0
H449 H 0.48712 0.06873 0.42427 0.0
H450 H 0.50341 0.06312 0.37277 0.0
C451 C 0.58129 0.98984 0.39664 0.0
C452 C 0.58734 0.57477 0.73642 0.0
C453 C 0.57923 0.52784 0.75116 0.0
H454 H 0.5903 0.61012 0.69587 0.0
C455 C 0.56331 0.47917 0.73541 0.0
H456 H 0.59925 0.61295 0.74799 0.0
C457 C 0.55826 0.47751 0.70534 0.0
C458 C 0.56841 0.52451 0.69046 0.0
H459 H 0.55656 0.44238 0.7462 0.0
H460 H 0.54728 0.43936 0.69367 0.0
C461 C 0.58181 0.57317 0.70651 0.0
C462 C 0.60788 0.0538 0.62061 0.0
C463 C 0.56691 0.02315 0.605 0.0
H464 H 0.64211 0.07796 0.66187 0.0
C465 C 0.52665 0.99446 0.61968 0.0
H466 H 0.63953 0.07571 0.60957 0.0
C467 C 0.52805 0.9954 0.64979 0.0
C468 C 0.56961 0.02542 0.66557 0.0
H469 H 0.495 0.96998 0.60788 0.0
H470 H 0.49691 0.97224 0.66069 0.0
C471 C 0.60916 0.05516 0.65055 0.0
C472 C 0.56452 0.54691 0.93828 0.0
C473 C 0.54439 0.50095 0.92085 0.0
H474 H 0.58633 0.58044 0.98102 0.0
C475 C 0.53245 0.45224 0.93384 0.0
H476 H 0.57403 0.58506 0.92888 0.0
C477 C 0.54025 0.44934 0.96349 0.0
C478 C 0.55928 0.49528 0.98129 0.0
H479 H 0.51714 0.41612 0.92096 0.0
H480 H 0.53016 0.41096 0.97259 0.0
C481 C 0.57128 0.54422 0.96819 0.0
C482 C 0.0679 0.45808 0.24638 0.0
C483 C 0.08703 0.50965 0.23773 0.0
H484 H 1.05159 0.40794 0.28201 0.0
C485 C 0.10316 0.55085 0.25883 0.0
H486 H 1.05468 0.42574 0.23059 0.0
C487 C 0.10145 0.54081 0.28788 0.0
C488 C 0.08323 0.48934 0.29667 0.0
H489 H 0.11766 0.59112 0.25289 0.0
H490 H 0.1147 0.57342 0.30358 0.0
C491 C 0.06571 0.44804 0.27572 0.0
loop_
_geom_bond_atom_site_label_1
_geom_bond_atom_site_label_2
_geom_bond_distance
_geom_bond_site_symmetry_2
_ccdc_geom_bond_type
Nd0 C2 2.836 . S
Nd0 O20 2.500 . S
Nd0 O21 2.492 . S
Nd0 O22 2.487 . S
Nd0 O23 2.682 . S
Nd0 O24 2.410 . S
Nd0 O29 2.414 . S
Nd0 O31 2.424 1_455 S
Nd1 C11 2.836 . S
Nd1 O23 2.414 1_655 S
Nd1 O25 2.424 1_655 S
Nd1 O26 2.500 . S
Nd1 O27 2.492 . S
Nd1 O28 2.487 . S
Nd1 O29 2.682 1_655 S
Nd1 O30 2.410 . S
C2 Nd0 2.836 . S
C2 C3 1.498 . S
C2 O20 1.258 . S
C2 O21 1.239 . S
C3 C2 1.498 . S
C3 C4 1.366 . S
C3 C8 1.407 . S
C4 C3 1.366 . S
C4 C5 1.392 . S
C4 H32 0.930 . S
C5 C4 1.392 . S
C5 C6 1.398 . S
C5 H33 0.929 . S
C6 C5 1.398 . S
C6 C7 1.352 . S
C7 C6 1.352 . S
C7 C8 1.384 . S
C7 H34 0.930 . S
C8 C3 1.407 . S
C8 C7 1.384 . S
C8 H35 0.929 . S
C9 O22 1.241 . S
C9 O23 1.273 . S
C10 O24 1.251 . S
C10 O25 1.268 . S
C11 Nd1 2.836 . S
C11 C12 1.498 . S
C11 O26 1.258 . S
C11 O27 1.239 . S
C12 C11 1.498 . S
C12 C13 1.366 . S
C12 C17 1.407 . S
C13 C12 1.366 . S
C13 C14 1.392 . S
C13 H36 0.930 . S
C14 C13 1.392 . S
C14 C15 1.398 . S
C14 H37 0.929 . S
C15 C14 1.398 . S
C15 C16 1.352 . S
C16 C15 1.352 . S
C16 C17 1.384 . S
C16 H38 0.930 . S
C17 C12 1.407 . S
C17 C16 1.384 . S
C17 H39 0.929 . S
C18 O28 1.241 1_455 S
C18 O29 1.273 . S
C19 O30 1.251 . S
C19 O31 1.268 . S
O20 Nd0 2.500 . S
O20 C2 1.258 . S
O21 Nd0 2.492 . S
O21 C2 1.239 . S
O22 Nd0 2.487 . S
O22 C9 1.241 . S
O23 Nd0 2.682 . S
O23 Nd1 2.414 1_455 S
O23 C9 1.273 . S
O24 Nd0 2.410 . S
O24 C10 1.251 . S
O25 Nd1 2.424 1_455 S
O25 C10 1.268 . S
O26 Nd1 2.500 . S
O26 C11 1.258 . S
O27 Nd1 2.492 . S
O27 C11 1.239 . S
O28 Nd1 2.487 . S
O28 C18 1.241 1_655 S
O29 Nd0 2.414 . S
O29 Nd1 2.682 1_455 S
O29 C18 1.273 . S
O30 Nd1 2.410 . S
O30 C19 1.251 . S
O31 Nd0 2.424 1_655 S
O31 C19 1.268 . S
H32 C4 0.930 . S
H33 C5 0.929 . S
H34 C7 0.930 . S
H35 C8 0.929 . S
H36 C13 0.930 . S
H37 C14 0.929 . S
H38 C16 0.930 . S
H39 C17 0.929 . S
Nd40 C42 2.836 1_545 S
Nd40 O60 2.499 1_545 S
Nd40 O61 2.491 1_545 S
Nd40 O62 2.487 1_545 S
Nd40 O63 2.682 . S
Nd40 O64 2.409 1_545 S
Nd40 O69 2.414 . S
Nd40 O71 2.425 . S
Nd41 C51 2.836 . S
Nd41 O63 2.414 . S
Nd41 O65 2.424 1_545 S
Nd41 O66 2.500 . S
Nd41 O67 2.492 . S
Nd41 O68 2.487 . S
Nd41 O69 2.682 . S
Nd41 O70 2.410 . S
C42 Nd40 2.836 1_565 S
C42 C43 1.498 . S
C42 O60 1.258 . S
C42 O61 1.239 . S
C43 C42 1.498 . S
C43 C44 1.366 . S
C43 C48 1.407 . S
C44 C43 1.366 . S
C44 C45 1.392 . S
C44 H72 0.930 . S
C45 C44 1.392 . S
C45 C46 1.398 . S
C45 H73 0.929 . S
C46 C45 1.398 . S
C46 C47 1.352 . S
C47 C46 1.352 . S
C47 C48 1.384 . S
C47 H74 0.930 . S
C48 C43 1.407 . S
C48 C47 1.384 . S
C48 H75 0.929 . S
C49 O62 1.241 1_545 S
C49 O63 1.273 . S
C50 O64 1.251 . S
C50 O65 1.268 . S
C51 Nd41 2.836 . S
C51 C52 1.498 . S
C51 O66 1.258 . S
C51 O67 1.239 . S
C52 C51 1.498 . S
C52 C53 1.366 . S
C52 C57 1.407 . S
C53 C52 1.366 . S
C53 C54 1.392 . S
C53 H76 0.930 . S
C54 C53 1.392 . S
C54 C55 1.398 . S
C54 H77 0.929 . S
C55 C54 1.398 . S
C55 C56 1.352 . S
C56 C55 1.352 . S
C56 C57 1.384 . S
C56 H78 0.930 . S
C57 C52 1.407 . S
C57 C56 1.384 . S
C57 H79 0.929 . S
C58 O68 1.241 . S
C58 O69 1.273 . S
C59 O70 1.251 . S
C59 O71 1.268 . S
O60 Nd40 2.499 1_565 S
O60 C42 1.258 . S
O61 Nd40 2.491 1_565 S
O61 C42 1.239 . S
O62 Nd40 2.487 1_565 S
O62 C49 1.241 1_565 S
O63 Nd40 2.682 . S
O63 Nd41 2.414 . S
O63 C49 1.273 . S
O64 Nd40 2.409 1_565 S
O64 C50 1.251 . S
O65 Nd41 2.424 1_565 S
O65 C50 1.268 . S
O66 Nd41 2.500 . S
O66 C51 1.258 . S
O67 Nd41 2.492 . S
O67 C51 1.239 . S
O68 Nd41 2.487 . S
O68 C58 1.241 . S
O69 Nd40 2.414 . S
O69 Nd41 2.682 . S
O69 C58 1.273 . S
O70 Nd41 2.410 . S
O70 C59 1.251 . S
O71 Nd40 2.425 . S
O71 C59 1.268 . S
H72 C44 0.930 . S
H73 C45 0.929 . S
H74 C47 0.930 . S
H75 C48 0.929 . S
H76 C53 0.930 . S
H77 C54 0.929 . S
H78 C56 0.930 . S
H79 C57 0.929 . S
Nd80 C82 2.836 . S
Nd80 O100 2.500 . S
Nd80 O101 2.492 . S
Nd80 O102 2.487 . S
Nd80 O103 2.682 . S
Nd80 O104 2.410 . S
Nd80 O109 2.414 . S
Nd80 O111 2.424 . S
Nd81 C91 2.836 . S
Nd81 O103 2.414 . S
Nd81 O105 2.424 . S
Nd81 O106 2.500 . S
Nd81 O107 2.492 . S
Nd81 O108 2.487 . S
Nd81 O109 2.682 . S
Nd81 O110 2.410 . S
C82 Nd80 2.836 . S
C82 C83 1.498 . S
C82 O100 1.258 . S
C82 O101 1.239 . S
C83 C82 1.498 . S
C83 C84 1.366 . S
C83 C88 1.407 . S
C84 C83 1.366 . S
C84 C85 1.392 . S
C84 H112 0.930 . S
C85 C84 1.392 . S
C85 C86 1.398 . S
C85 H113 0.929 . S
C86 C85 1.398 . S
C86 C87 1.352 . S
C87 C86 1.352 . S
C87 C88 1.384 . S
C87 H114 0.930 . S
C88 C83 1.407 . S
C88 C87 1.384 . S
C88 H115 0.929 . S
C89 O102 1.241 . S
C89 O103 1.273 . S
C90 O104 1.251 . S
C90 O105 1.268 . S
C91 Nd81 2.836 . S
C91 C92 1.498 . S
C91 O106 1.258 . S
C91 O107 1.239 . S
C92 C91 1.498 . S
C92 C93 1.366 . S
C92 C97 1.407 . S
C93 C92 1.366 . S
C93 C94 1.392 . S
C93 H116 0.930 . S
C94 C93 1.392 . S
C94 C95 1.398 . S
C94 H117 0.929 . S
C95 C94 1.398 . S
C95 C96 1.352 . S
C96 C95 1.352 . S
C96 C97 1.384 . S
C96 H118 0.930 . S
C97 C92 1.407 . S
C97 C96 1.384 . S
C97 H119 0.929 . S
C98 O108 1.241 . S
C98 O109 1.273 . S
C99 O110 1.251 . S
C99 O111 1.268 . S
O100 Nd80 2.500 . S
O100 C82 1.258 . S
O101 Nd80 2.492 . S
O101 C82 1.239 . S
O102 Nd80 2.487 . S
O102 C89 1.241 . S
O103 Nd80 2.682 . S
O103 Nd81 2.414 . S
O103 C89 1.273 . S
O104 Nd80 2.410 . S
O104 C90 1.251 . S
O105 Nd81 2.424 . S
O105 C90 1.268 . S
O106 Nd81 2.500 . S
O106 C91 1.258 . S
O107 Nd81 2.492 . S
O107 C91 1.239 . S
O108 Nd81 2.487 . S
O108 C98 1.241 . S
O109 Nd80 2.414 . S
O109 Nd81 2.682 . S
O109 C98 1.273 . S
O110 Nd81 2.410 . S
O110 C99 1.251 . S
O111 Nd80 2.424 . S
O111 C99 1.268 . S
H112 C84 0.930 . S
H113 C85 0.929 . S
H114 C87 0.930 . S
H115 C88 0.929 . S
H116 C93 0.930 . S
H117 C94 0.929 . S
H118 C96 0.930 . S
H119 C97 0.929 . S
P120 O131 1.490 . S
P120 C134 1.812 . S
P120 C140 1.803 1_565 S
P120 C146 1.819 1_565 S
H121 C135 0.941 . S
H122 C136 0.939 . S
H123 C138 0.940 . S
H124 C139 0.931 1_545 S
H125 C141 0.939 . S
H126 C142 0.942 . S
H127 C144 0.940 . S
H128 C145 0.939 . S
H129 C147 0.941 . S
H130 C151 0.939 . S
O131 P120 1.490 . S
H132 C148 0.939 . S
H133 C150 0.940 . S
C134 P120 1.812 . S
C134 C135 1.389 . S
C134 C139 1.391 . S
C135 H121 0.941 . S
C135 C134 1.389 . S
C135 C136 1.397 . S
C136 H122 0.939 . S
C136 C135 1.397 . S
C136 C137 1.378 . S
C137 C136 1.378 . S
C137 C138 1.378 . S
C138 H123 0.940 . S
C138 C137 1.378 . S
C138 C139 1.396 . S
C139 H124 0.931 1_565 S
C139 C134 1.391 . S
C139 C138 1.396 . S
C140 P120 1.803 1_545 S
C140 C141 1.378 . S
C140 C145 1.400 . S
C141 H125 0.939 . S
C141 C140 1.378 . S
C141 C142 1.361 . S
C142 H126 0.942 . S
C142 C141 1.361 . S
C142 C143 1.369 . S
C143 C142 1.369 . S
C143 C144 1.404 . S
C144 H127 0.940 . S
C144 C143 1.404 . S
C144 C145 1.389 . S
C145 H128 0.939 . S
C145 C140 1.400 . S
C145 C144 1.389 . S
C146 P120 1.819 1_545 S
C146 C147 1.391 1_545 S
C146 C151 1.391 . S
C147 H129 0.941 . S
C147 C146 1.391 1_565 S
C147 C148 1.396 . S
C148 H132 0.939 . S
C148 C147 1.396 . S
C148 C149 1.397 1_565 S
C149 C148 1.397 1_545 S
C149 C150 1.385 . S
C150 H133 0.940 . S
C150 C149 1.385 . S
C150 C151 1.388 . S
C151 H130 0.939 . S
C151 C146 1.391 . S
C151 C150 1.388 . S
P152 O163 1.490 . S
P152 C166 1.812 . S
P152 C172 1.803 . S
P152 C178 1.819 . S
H153 C167 0.941 . S
H154 C168 0.939 . S
H155 C170 0.940 . S
H156 C171 0.940 . S
H157 C173 0.939 . S
H158 C174 0.942 . S
H159 C176 0.940 . S
H160 C177 0.939 . S
H161 C179 0.941 . S
H162 C183 0.939 . S
O163 P152 1.490 . S
H164 C180 0.939 . S
H165 C182 0.940 . S
C166 P152 1.812 . S
C166 C167 1.389 . S
C166 C171 1.391 . S
C167 H153 0.941 . S
C167 C166 1.389 . S
C167 C168 1.397 . S
C168 H154 0.939 . S
C168 C167 1.397 . S
C168 C169 1.378 . S
C169 C168 1.378 . S
C169 C170 1.378 . S
C170 H155 0.940 . S
C170 C169 1.378 . S
C170 C171 1.396 . S
C171 H156 0.940 . S
C171 C166 1.391 . S
C171 C170 1.396 . S
C172 P152 1.803 . S
C172 C173 1.378 . S
C172 C177 1.400 . S
C173 H157 0.939 . S
C173 C172 1.378 . S
C173 C174 1.361 . S
C174 H158 0.942 . S
C174 C173 1.361 . S
C174 C175 1.369 . S
C175 C174 1.369 . S
C175 C176 1.404 . S
C176 H159 0.940 . S
C176 C175 1.404 . S
C176 C177 1.389 . S
C177 H160 0.939 . S
C177 C172 1.400 . S
C177 C176 1.389 . S
C178 P152 1.819 . S
C178 C179 1.391 . S
C178 C183 1.391 . S
C179 H161 0.941 . S
C179 C178 1.391 . S
C179 C180 1.396 . S
C180 H164 0.939 . S
C180 C179 1.396 . S
C180 C181 1.397 . S
C181 C180 1.397 . S
C181 C182 1.385 . S
C182 H165 0.940 . S
C182 C181 1.385 . S
C182 C183 1.388 . S
C183 H162 0.939 . S
C183 C178 1.391 . S
C183 C182 1.388 . S
P184 O195 1.490 . S
P184 C198 1.812 . S
P184 C204 1.803 1_455 S
P184 C210 1.819 . S
H185 C199 0.941 . S
H186 C200 0.939 . S
H187 C202 0.940 . S
H188 C203 0.940 . S
H189 C205 0.939 . S
H190 C206 0.942 . S
H191 C208 0.940 . S
H192 C209 0.950 . S
H193 C211 0.941 . S
H194 C215 0.931 1_655 S
O195 P184 1.490 . S
H196 C212 0.917 1_554 S
H197 C214 0.940 . S
C198 P184 1.812 . S
C198 C199 1.389 . S
C198 C203 1.391 . S
C199 H185 0.941 . S
C199 C198 1.389 . S
C199 C200 1.397 . S
C200 H186 0.939 . S
C200 C199 1.397 . S
C200 C201 1.378 . S
C201 C200 1.378 . S
C201 C202 1.378 . S
C202 H187 0.940 . S
C202 C201 1.378 . S
C202 C203 1.396 . S
C203 H188 0.940 . S
C203 C198 1.391 . S
C203 C202 1.396 . S
C204 P184 1.803 1_655 S
C204 C205 1.378 . S
C204 C209 1.400 . S
C205 H189 0.939 . S
C205 C204 1.378 . S
C205 C206 1.361 . S
C206 H190 0.942 . S
C206 C205 1.361 . S
C206 C207 1.369 . S
C207 C206 1.369 . S
C207 C208 1.404 . S
C208 H191 0.940 . S
C208 C207 1.404 . S
C208 C209 1.389 . S
C209 H192 0.950 . S
C209 C204 1.400 . S
C209 C208 1.389 . S
C210 P184 1.819 . S
C210 C211 1.391 . S
C210 C215 1.399 . S
C211 H193 0.941 . S
C211 C210 1.391 . S
C211 C212 1.429 . S
C212 H196 0.917 1_556 S
C212 C211 1.429 . S
C212 C213 1.388 1_556 S
C213 C212 1.388 1_554 S
C213 C214 1.385 1_454 S
C214 H197 0.940 . S
C214 C213 1.385 1_656 S
C214 C215 1.389 1_655 S
C215 H194 0.931 1_455 S
C215 C210 1.399 . S
C215 C214 1.389 1_455 S
P216 O227 1.490 . S
P216 C230 1.812 . S
P216 C236 1.803 1_455 S
P216 C242 1.819 . S
H217 C231 0.941 . S
H218 C232 0.939 . S
H219 C234 0.940 . S
H220 C235 0.940 . S
H221 C237 0.939 . S
H222 C238 0.942 . S
H223 C240 0.940 . S
H224 C241 0.939 . S
H225 C243 0.941 . S
H226 C247 0.939 . S
O227 P216 1.490 . S
H228 C244 0.939 . S
H229 C246 0.940 . S
C230 P216 1.812 . S
C230 C231 1.389 . S
C230 C235 1.391 . S
C231 H217 0.941 . S
C231 C230 1.389 . S
C231 C232 1.397 . S
C232 H218 0.939 . S
C232 C231 1.397 . S
C232 C233 1.378 . S
C233 C232 1.378 . S
C233 C234 1.378 . S
C234 H219 0.940 . S
C234 C233 1.378 . S
C234 C235 1.396 . S
C235 H220 0.940 . S
C235 C230 1.391 . S
C235 C234 1.396 . S
C236 P216 1.803 1_655 S
C236 C237 1.378 . S
C236 C241 1.400 . S
C237 H221 0.939 . S
C237 C236 1.378 . S
C237 C238 1.361 . S
C238 H222 0.942 . S
C238 C237 1.361 . S
C238 C239 1.369 . S
C239 C238 1.369 . S
C239 C240 1.404 . S
C240 H223 0.940 . S
C240 C239 1.404 . S
C240 C241 1.389 . S
C241 H224 0.939 . S
C241 C236 1.400 . S
C241 C240 1.389 . S
C242 P216 1.819 . S
C242 C243 1.391 . S
C242 C247 1.391 1_455 S
C243 H225 0.941 . S
C243 C242 1.391 . S
C243 C244 1.396 . S
C244 H228 0.939 . S
C244 C243 1.396 . S
C244 C245 1.397 . S
C245 C244 1.397 . S
C245 C246 1.385 1_455 S
C246 H229 0.940 . S
C246 C245 1.385 1_655 S
C246 C247 1.388 . S
C247 H226 0.939 . S
C247 C242 1.391 1_655 S
C247 C246 1.388 . S
P248 O259 1.490 . S
P248 C262 1.812 . S
P248 C268 1.803 1_545 S
P248 C274 1.819 . S
H249 C263 0.941 . S
H250 C264 0.939 . S
H251 C266 0.940 . S
H252 C267 0.940 . S
H253 C269 0.939 . S
H254 C270 0.942 . S
H255 C272 0.940 . S
H256 C273 0.939 . S
H257 C275 0.941 . S
H258 C279 0.939 . S
O259 P248 1.490 . S
H260 C276 0.939 . S
H261 C278 0.940 . S
C262 P248 1.812 . S
C262 C263 1.389 . S
C262 C267 1.391 . S
C263 H249 0.941 . S
C263 C262 1.389 . S
C263 C264 1.397 . S
C264 H250 0.939 . S
C264 C263 1.397 . S
C264 C265 1.378 . S
C265 C264 1.378 . S
C265 C266 1.378 . S
C266 H251 0.940 . S
C266 C265 1.378 . S
C266 C267 1.396 . S
C267 H252 0.940 . S
C267 C262 1.391 . S
C267 C266 1.396 . S
C268 P248 1.803 1_565 S
C268 C269 1.378 . S
C268 C273 1.400 . S
C269 H253 0.939 . S
C269 C268 1.378 . S
C269 C270 1.361 . S
C270 H254 0.942 . S
C270 C269 1.361 . S
C270 C271 1.369 . S
C271 C270 1.369 . S
C271 C272 1.404 . S
C272 H255 0.940 . S
C272 C271 1.404 . S
C272 C273 1.389 . S
C273 H256 0.939 . S
C273 C268 1.400 . S
C273 C272 1.389 . S
C274 P248 1.819 . S
C274 C275 1.391 . S
C274 C279 1.391 1_545 S
C275 H257 0.941 . S
C275 C274 1.391 . S
C275 C276 1.396 . S
C276 H260 0.939 . S
C276 C275 1.396 . S
C276 C277 1.397 . S
C277 C276 1.397 . S
C277 C278 1.385 1_545 S
C278 H261 0.940 . S
C278 C277 1.385 1_565 S
C278 C279 1.388 . S
C279 H258 0.939 . S
C279 C274 1.391 1_565 S
C279 C278 1.388 . S
P280 O291 1.490 . S
P280 C294 1.812 . S
P280 C300 1.803 . S
P280 C306 1.819 . S
H281 C295 0.941 . S
H282 C296 0.939 . S
H283 C298 0.940 . S
H284 C299 0.940 . S
H285 C301 0.939 . S
H286 C302 0.942 . S
H287 C304 0.940 . S
H288 C305 0.939 . S
H289 C307 0.941 . S
H290 C311 0.939 . S
O291 P280 1.490 . S
H292 C308 0.939 . S
H293 C310 0.940 . S
C294 P280 1.812 . S
C294 C295 1.389 . S
C294 C299 1.391 . S
C295 H281 0.941 . S
C295 C294 1.389 . S
C295 C296 1.397 . S
C296 H282 0.939 . S
C296 C295 1.397 . S
C296 C297 1.378 . S
C297 C296 1.378 . S
C297 C298 1.378 . S
C298 H283 0.940 . S
C298 C297 1.378 . S
C298 C299 1.396 . S
C299 H284 0.940 . S
C299 C294 1.391 . S
C299 C298 1.396 . S
C300 P280 1.803 . S
C300 C301 1.378 . S
C300 C305 1.400 . S
C301 H285 0.939 . S
C301 C300 1.378 . S
C301 C302 1.361 . S
C302 H286 0.942 . S
C302 C301 1.361 . S
C302 C303 1.369 . S
C303 C302 1.369 . S
C303 C304 1.404 . S
C304 H287 0.940 . S
C304 C303 1.404 . S
C304 C305 1.389 . S
C305 H288 0.939 . S
C305 C300 1.400 . S
C305 C304 1.389 . S
C306 P280 1.819 . S
C306 C307 1.391 . S
C306 C311 1.391 . S
C307 H289 0.941 . S
C307 C306 1.391 . S
C307 C308 1.396 . S
C308 H292 0.939 . S
C308 C307 1.396 . S
C308 C309 1.397 . S
C309 C308 1.397 . S
C309 C310 1.385 . S
C310 H293 0.940 . S
C310 C309 1.385 . S
C310 C311 1.388 . S
C311 H290 0.939 . S
C311 C306 1.391 . S
C311 C310 1.388 . S
C312 C313 1.387 . S
C312 H316 0.950 . S
C312 C321 1.390 . S
C313 C312 1.387 . S
C313 C315 1.387 . S
H314 C321 0.950 . S
C315 C313 1.387 . S
C315 C317 1.390 . S
C315 H319 0.950 . S
H316 C312 0.950 . S
C317 C315 1.390 . S
C317 C318 1.387 . S
C317 H320 0.950 . S
C318 C317 1.387 . S
C318 C321 1.387 . S
H319 C315 0.950 . S
H320 C317 0.950 . S
C321 C312 1.390 . S
C321 H314 0.950 . S
C321 C318 1.387 . S
C322 C323 1.387 . S
C322 H326 0.950 . S
C322 C331 1.390 . S
C323 C322 1.387 . S
C323 C325 1.387 . S
H324 C331 0.950 . S
C325 C323 1.387 . S
C325 C327 1.390 . S
C325 H329 0.950 . S
H326 C322 0.950 . S
C327 C325 1.390 . S
C327 C328 1.387 . S
C327 H330 0.950 . S
C328 C327 1.387 . S
C328 C331 1.387 . S
H329 C325 0.950 . S
H330 C327 0.950 . S
C331 C322 1.390 . S
C331 H324 0.950 . S
C331 C328 1.387 . S
C332 C333 1.387 . S
C332 H336 0.950 . S
C332 C341 1.390 . S
C333 C332 1.387 . S
C333 C335 1.387 . S
H334 C341 0.950 . S
C335 C333 1.387 . S
C335 C337 1.390 . S
C335 H339 0.950 . S
H336 C332 0.950 . S
C337 C335 1.390 . S
C337 C338 1.387 . S
C337 H340 0.950 . S
C338 C337 1.387 . S
C338 C341 1.387 . S
H339 C335 0.950 . S
H340 C337 0.950 . S
C341 C332 1.390 . S
C341 H334 0.950 . S
C341 C338 1.387 . S
C342 C343 1.387 . S
C342 H346 0.950 . S
C342 C351 1.390 . S
C343 C342 1.387 . S
C343 C345 1.387 . S
H344 C351 0.950 . S
C345 C343 1.387 . S
C345 C347 1.390 . S
C345 H349 0.950 . S
H346 C342 0.950 . S
C347 C345 1.390 . S
C347 C348 1.387 . S
C347 H350 0.950 . S
C348 C347 1.387 . S
C348 C351 1.387 . S
H349 C345 0.950 . S
H350 C347 0.950 . S
C351 C342 1.390 . S
C351 H344 0.950 . S
C351 C348 1.387 . S
C352 C353 1.387 . S
C352 H356 0.950 . S
C352 C361 1.390 . S
C353 C352 1.387 . S
C353 C355 1.387 . S
H354 C361 0.950 . S
C355 C353 1.387 . S
C355 C357 1.390 . S
C355 H359 0.950 . S
H356 C352 0.950 . S
C357 C355 1.390 . S
C357 C358 1.387 . S
C357 H360 0.950 . S
C358 C357 1.387 . S
C358 C361 1.387 . S
H359 C355 0.950 . S
H360 C357 0.950 . S
C361 C352 1.390 . S
C361 H354 0.950 . S
C361 C358 1.387 . S
C362 C363 1.387 . S
C362 H366 0.950 . S
C362 C371 1.390 . S
C363 C362 1.387 . S
C363 C365 1.387 . S
H364 C371 0.950 . S
C365 C363 1.387 . S
C365 C367 1.390 . S
C365 H369 0.950 . S
H366 C362 0.950 . S
C367 C365 1.390 . S
C367 C368 1.387 . S
C367 H370 0.950 . S
C368 C367 1.387 . S
C368 C371 1.387 . S
H369 C365 0.950 . S
H370 C367 0.950 . S
C371 C362 1.390 . S
C371 H364 0.950 . S
C371 C368 1.387 . S
C372 C373 1.387 . S
C372 H376 0.950 . S
C372 C381 1.390 . S
C373 C372 1.387 . S
C373 C375 1.387 . S
H374 C381 0.950 . S
C375 C373 1.387 . S
C375 C377 1.390 . S
C375 H379 0.950 . S
H376 C372 0.950 . S
C377 C375 1.390 . S
C377 C378 1.387 . S
C377 H380 0.950 . S
C378 C377 1.387 . S
C378 C381 1.387 . S
H379 C375 0.950 . S
H380 C377 0.950 . S
C381 C372 1.390 . S
C381 H374 0.950 . S
C381 C378 1.387 . S
C382 C383 1.387 . S
C382 H386 0.950 . S
C382 C391 1.390 . S
C383 C382 1.387 . S
C383 C385 1.387 . S
H384 C391 0.950 . S
C385 C383 1.387 . S
C385 C387 1.390 . S
C385 H389 0.950 . S
H386 C382 0.950 . S
C387 C385 1.390 . S
C387 C388 1.387 . S
C387 H390 0.950 . S
C388 C387 1.387 . S
C388 C391 1.387 . S
H389 C385 0.950 . S
H390 C387 0.950 . S
C391 C382 1.390 . S
C391 H384 0.950 . S
C391 C388 1.387 . S
C392 C393 1.387 . S
C392 H396 0.950 . S
C392 C401 1.390 . S
C393 C392 1.387 . S
C393 C395 1.387 . S
H394 C401 0.950 . S
C395 C393 1.387 . S
C395 C397 1.390 . S
C395 H399 0.950 . S
H396 C392 0.950 . S
C397 C395 1.390 . S
C397 C398 1.387 . S
C397 H400 0.950 . S
C398 C397 1.387 . S
C398 C401 1.387 . S
H399 C395 0.950 . S
H400 C397 0.950 . S
C401 C392 1.390 . S
C401 H394 0.950 . S
C401 C398 1.387 . S
C402 C403 1.387 . S
C402 H406 0.950 . S
C402 C411 1.390 . S
C403 C402 1.387 . S
C403 C405 1.387 . S
H404 C411 0.950 . S
C405 C403 1.387 . S
C405 C407 1.390 . S
C405 H409 0.950 . S
H406 C402 0.950 . S
C407 C405 1.390 . S
C407 C408 1.387 . S
C407 H410 0.950 . S
C408 C407 1.387 . S
C408 C411 1.387 . S
H409 C405 0.950 . S
H410 C407 0.950 . S
C411 C402 1.390 . S
C411 H404 0.950 . S
C411 C408 1.387 . S
C412 C413 1.387 . S
C412 H416 0.950 . S
C412 C421 1.390 . S
C413 C412 1.387 . S
C413 C415 1.387 . S
H414 C421 0.950 . S
C415 C413 1.387 . S
C415 C417 1.390 . S
C415 H419 0.950 . S
H416 C412 0.950 . S
C417 C415 1.390 . S
C417 C418 1.387 . S
C417 H420 0.950 . S
C418 C417 1.387 . S
C418 C421 1.387 . S
H419 C415 0.950 . S
H420 C417 0.950 . S
C421 C412 1.390 . S
C421 H414 0.950 . S
C421 C418 1.387 . S
C422 C423 1.387 . S
C422 H426 0.950 . S
C422 C431 1.390 . S
C423 C422 1.387 . S
C423 C425 1.387 . S
H424 C431 0.950 . S
C425 C423 1.387 . S
C425 C427 1.390 . S
C425 H429 0.950 . S
H426 C422 0.950 . S
C427 C425 1.390 . S
C427 C428 1.387 . S
C427 H430 0.950 . S
C428 C427 1.387 . S
C428 C431 1.387 . S
H429 C425 0.950 . S
H430 C427 0.950 . S
C431 C422 1.390 . S
C431 H424 0.950 . S
C431 C428 1.387 . S
C432 C433 1.387 . S
C432 H436 0.950 . S
C432 C441 1.390 . S
C433 C432 1.387 . S
C433 C435 1.387 1_455 S
H434 C441 0.950 . S
C435 C433 1.387 1_655 S
C435 C437 1.390 . S
C435 H439 0.950 . S
H436 C432 0.950 . S
C437 C435 1.390 . S
C437 C438 1.387 1_655 S
C437 H440 0.950 . S
C438 C437 1.387 1_455 S
C438 C441 1.387 . S
H439 C435 0.950 . S
H440 C437 0.950 . S
C441 C432 1.390 . S
C441 H434 0.950 . S
C441 C438 1.387 . S
C442 C443 1.387 . S
C442 H446 0.950 . S
C442 C451 1.390 . S
C443 C442 1.387 . S
C443 C445 1.387 . S
H444 C451 0.950 . S
C445 C443 1.387 . S
C445 C447 1.390 . S
C445 H449 0.950 . S
H446 C442 0.950 . S
C447 C445 1.390 . S
C447 C448 1.387 . S
C447 H450 0.950 . S
C448 C447 1.387 . S
C448 C451 1.387 . S
H449 C445 0.950 . S
H450 C447 0.950 . S
C451 C442 1.390 . S
C451 H444 0.950 . S
C451 C448 1.387 . S
C452 C453 1.387 . S
C452 H456 0.950 . S
C452 C461 1.390 . S
C453 C452 1.387 . S
C453 C455 1.387 . S
H454 C461 0.950 . S
C455 C453 1.387 . S
C455 C457 1.390 . S
C455 H459 0.950 . S
H456 C452 0.950 . S
C457 C455 1.390 . S
C457 C458 1.387 . S
C457 H460 0.950 . S
C458 C457 1.387 . S
C458 C461 1.387 . S
H459 C455 0.950 . S
H460 C457 0.950 . S
C461 C452 1.390 . S
C461 H454 0.950 . S
C461 C458 1.387 . S
C462 C463 1.387 . S
C462 H466 0.950 . S
C462 C471 1.390 . S
C463 C462 1.387 . S
C463 C465 1.387 1_545 S
H464 C471 0.950 . S
C465 C463 1.387 1_565 S
C465 C467 1.390 . S
C465 H469 0.950 . S
H466 C462 0.950 . S
C467 C465 1.390 . S
C467 C468 1.387 1_565 S
C467 H470 0.950 . S
C468 C467 1.387 1_545 S
C468 C471 1.387 . S
H469 C465 0.950 . S
H470 C467 0.950 . S
C471 C462 1.390 . S
C471 H464 0.950 . S
C471 C468 1.387 . S
C472 C473 1.387 . S
C472 H476 0.950 . S
C472 C481 1.390 . S
C473 C472 1.387 . S
C473 C475 1.387 . S
H474 C481 0.950 . S
C475 C473 1.387 . S
C475 C477 1.390 . S
C475 H479 0.950 . S
H476 C472 0.950 . S
C477 C475 1.390 . S
C477 C478 1.387 . S
C477 H480 0.950 . S
C478 C477 1.387 . S
C478 C481 1.387 . S
H479 C475 0.950 . S
H480 C477 0.950 . S
C481 C472 1.390 . S
C481 H474 0.950 . S
C481 C478 1.387 . S
C482 C483 1.387 1_655 S
C482 H486 0.950 . S
C482 C491 1.390 . S
C483 C482 1.387 1_455 S
C483 C485 1.387 . S
H484 C491 0.950 . S
C485 C483 1.387 . S
C485 C487 1.390 . S
C485 H489 0.950 . S
H486 C482 0.950 . S
C487 C485 1.390 . S
C487 C488 1.387 . S
C487 H490 0.950 . S
C488 C487 1.387 . S
C488 C491 1.387 1_455 S
H489 C485 0.950 . S
H490 C487 0.950 . S
C491 C482 1.390 . S
C491 H484 0.950 . S
C491 C488 1.387 1_655 S
C313 C10 3.121 . S
C318 C303 3.042 . S
C323 C55 1.323 . S
C328 C239 1.369 . S
C333 C90 1.964 . S
C338 C271 1.935 . S
C343 C19 3.071 . S
C348 C297 3.039 . S
C358 C233 1.383 . S
C353 C46 1.352 . S
C368 C265 2.011 . S
C363 C99 2.091 . S
C373 C50 1.965 . S
C378 C175 1.898 . S
C383 C95 0.940 . S
C388 C207 1.090 . S
C393 C6 1.353 . S
C398 C137 1.364 . S
C408 C169 1.970 . S
C403 C59 2.059 . S
C418 C201 0.737 . S
C413 C86 0.739 . S
C423 C15 1.449 . S
C428 C143 1.435 . S
C438 C213 1.090 . S
C433 C18 1.083 . S
C443 C49 1.449 . S
C448 C149 1.441 . S
C453 C98 1.322 . S
C458 C181 1.320 . S
C468 C277 1.343 . S
C463 C58 1.326 . S
C478 C309 1.764 1_556 S
C473 C89 1.730 . S
C483 C9 1.448 . S
C488 C245 1.476 . S
