# Generated by pormake.
# Topology dag, (6,3)-cn, num edge types: 1
# Building blocks:
#     Node 0, Type 0, BuildingBlock: MIDCAF_clean_sbu_0, # of connection points: 6
#     Node 1, Type 0, BuildingBlock: MIDCAF_clean_sbu_0, # of connection points: 6
#     Node 2, Type 0, BuildingBlock: MIDCAF_clean_sbu_0, # of connection points: 6
#     Node 3, Type 0, BuildingBlock: MIDCAF_clean_sbu_0, # of connection points: 6
#     Node 4, Type 1, BuildingBlock: VETTIZ_charged_linker_0, # of connection points: 3
#     Node 5, Type 1, BuildingBlock: VETTIZ_charged_linker_0, # of connection points: 3
#     Node 6, Type 1, BuildingBlock: VETTIZ_charged_linker_0, # of connection points: 3
#     Node 7, Type 1, BuildingBlock: VETTIZ_charged_linker_0, # of connection points: 3
#     Node 8, Type 1, BuildingBlock: VETTIZ_charged_linker_0, # of connection points: 3
#     Node 9, Type 1, BuildingBlock: VETTIZ_charged_linker_0, # of connection points: 3
#     Node 10, Type 1, BuildingBlock: VETTIZ_charged_linker_0, # of connection points: 3
#     Node 11, Type 1, BuildingBlock: VETTIZ_charged_linker_0, # of connection points: 3
#     Edge 12, Type (0, 1), BuildingBlock: EYOCIG_clean_linker_4, # of connection points: 2
#     Edge 13, Type (0, 1), BuildingBlock: EYOCIG_clean_linker_4, # of connection points: 2
#     Edge 14, Type (0, 1), BuildingBlock: EYOCIG_clean_linker_4, # of connection points: 2
#     Edge 15, Type (0, 1), BuildingBlock: EYOCIG_clean_linker_4, # of connection points: 2
#     Edge 16, Type (0, 1), BuildingBlock: EYOCIG_clean_linker_4, # of connection points: 2
#     Edge 17, Type (0, 1), BuildingBlock: EYOCIG_clean_linker_4, # of connection points: 2
#     Edge 18, Type (0, 1), BuildingBlock: EYOCIG_clean_linker_4, # of connection points: 2
#     Edge 19, Type (0, 1), BuildingBlock: EYOCIG_clean_linker_4, # of connection points: 2
#     Edge 20, Type (0, 1), BuildingBlock: EYOCIG_clean_linker_4, # of connection points: 2
#     Edge 21, Type (0, 1), BuildingBlock: EYOCIG_clean_linker_4, # of connection points: 2
#     Edge 22, Type (0, 1), BuildingBlock: EYOCIG_clean_linker_4, # of connection points: 2
#     Edge 23, Type (0, 1), BuildingBlock: EYOCIG_clean_linker_4, # of connection points: 2
#     Edge 24, Type (0, 1), BuildingBlock: EYOCIG_clean_linker_4, # of connection points: 2
#     Edge 25, Type (0, 1), BuildingBlock: EYOCIG_clean_linker_4, # of connection points: 2
#     Edge 26, Type (0, 1), BuildingBlock: EYOCIG_clean_linker_4, # of connection points: 2
#     Edge 27, Type (0, 1), BuildingBlock: EYOCIG_clean_linker_4, # of connection points: 2
#     Edge 28, Type (0, 1), BuildingBlock: EYOCIG_clean_linker_4, # of connection points: 2
#     Edge 29, Type (0, 1), BuildingBlock: EYOCIG_clean_linker_4, # of connection points: 2
#     Edge 30, Type (0, 1), BuildingBlock: EYOCIG_clean_linker_4, # of connection points: 2
#     Edge 31, Type (0, 1), BuildingBlock: EYOCIG_clean_linker_4, # of connection points: 2
#     Edge 32, Type (0, 1), BuildingBlock: EYOCIG_clean_linker_4, # of connection points: 2
#     Edge 33, Type (0, 1), BuildingBlock: EYOCIG_clean_linker_4, # of connection points: 2
#     Edge 34, Type (0, 1), BuildingBlock: EYOCIG_clean_linker_4, # of connection points: 2
#     Edge 35, Type (0, 1), BuildingBlock: EYOCIG_clean_linker_4, # of connection points: 2
# Relax obj value: 0.316
# Max RMSD: 0.190
# Mean RMSD: 0.180
data_MOF--net-dag--node1-MIDCAF_clean_sbu_0--node2-VETTIZ_charged_linker_0--edge1-EYOCIG_clean_linker_4
_symmetry_space_group_name_H-M    P1
_symmetry_Int_Tables_number       1
_symmetry_cell_setting            triclinic
loop_
_symmetry_equiv_pos_as_xyz
'x, y, z'
_cell_length_a     41.243734
_cell_length_b     41.311303
_cell_length_c     31.057052
_cell_angle_alpha  89.909236
_cell_angle_beta   90.059261
_cell_angle_gamma 90.002164
loop_
_atom_site_label
_atom_site_type_symbol
_atom_site_fract_x
_atom_site_fract_y
_atom_site_fract_z
_atom_type_partial_charge
Zn0 Zn 0.14598 0.83963 0.09098 0.0
Zn1 Zn 0.12575 0.85087 0.94435 0.0
Zn2 Zn 0.14242 0.84025 0.01254 0.0
C3 C 0.14553 0.90722 0.96155 0.0
C4 C 0.10302 0.79129 0.96276 0.0
O5 O 0.16455 0.79219 0.02228 0.0
O6 O 0.16546 0.7956 0.09341 0.0
C7 C 0.19065 0.88565 0.06078 0.0
O8 O 0.1615 0.88696 0.98497 0.0
O9 O 0.11906 0.89858 0.94461 0.0
O10 O 0.09092 0.81713 0.94782 0.0
O11 O 0.12992 0.79253 0.98388 0.0
O12 O 0.17798 0.87592 0.09548 0.0
O13 O 0.17982 0.87593 0.02432 0.0
O14 O 0.09294 0.84462 0.03075 0.0
O15 O 0.0982 0.84363 0.1013 0.0
C16 C 0.08045 0.84433 0.06817 0.0
O17 O 0.16685 0.80239 0.9773 0.0
O18 O 0.1699 0.83514 0.92139 0.0
C19 C 0.17169 0.78018 0.05936 0.0
C20 C 0.18062 0.81092 0.94188 0.0
Zn21 Zn 0.63091 0.62541 0.44479 0.0
Zn22 Zn 0.64242 0.64387 0.5916 0.0
Zn23 Zn 0.64122 0.64137 0.51318 0.0
C24 C 0.63869 0.57864 0.56753 0.0
C25 C 0.59504 0.68782 0.56334 0.0
O26 O 0.67864 0.66679 0.47772 0.0
O27 O 0.64601 0.66965 0.42162 0.0
C28 C 0.69101 0.60362 0.46318 0.0
O29 O 0.63761 0.59157 0.53036 0.0
O30 O 0.63961 0.59596 0.60096 0.0
O31 O 0.60534 0.67486 0.5976 0.0
O32 O 0.60488 0.67791 0.5265 0.0
O33 O 0.6653 0.59122 0.44821 0.0
O34 O 0.68936 0.63031 0.48452 0.0
O35 O 0.5943 0.66024 0.48619 0.0
O36 O 0.58325 0.61804 0.44535 0.0
C37 C 0.57424 0.64422 0.46258 0.0
O38 O 0.68921 0.66383 0.52244 0.0
O39 O 0.68617 0.66422 0.59363 0.0
C40 C 0.67011 0.68052 0.44222 0.0
C41 C 0.70136 0.67085 0.55947 0.0
Zn42 Zn 0.85638 0.12881 0.94326 0.0
Zn43 Zn 0.83862 0.13825 0.09091 0.0
Zn44 Zn 0.84112 0.13871 0.01241 0.0
C45 C 0.904 0.13524 0.06682 0.0
C46 C 0.79424 0.09191 0.06151 0.0
O47 O 0.81602 0.17704 0.97834 0.0
O48 O 0.81206 0.14523 0.9217 0.0
C49 C 0.88006 0.18779 0.96163 0.0
O50 O 0.89109 0.13509 0.0296 0.0
O51 O 0.88658 0.13515 0.10022 0.0
O52 O 0.80735 0.1014 0.09603 0.0
O53 O 0.80429 0.10229 0.02492 0.0
O54 O 0.89162 0.16204 0.94587 0.0
O55 O 0.85362 0.18652 0.98367 0.0
O56 O 0.82202 0.09196 0.98494 0.0
O57 O 0.86304 0.0812 0.9418 0.0
C58 C 0.83731 0.07212 0.96023 0.0
O59 O 0.81817 0.18616 0.02382 0.0
O60 O 0.81835 0.18193 0.09488 0.0
C61 C 0.80179 0.16922 0.94293 0.0
C62 C 0.81132 0.19762 0.06124 0.0
Zn63 Zn 0.34142 0.33829 0.5907 0.0
Zn64 Zn 0.35108 0.35745 0.44348 0.0
Zn65 Zn 0.34157 0.34108 0.51222 0.0
C66 C 0.40798 0.33817 0.45998 0.0
C67 C 0.29167 0.38002 0.46313 0.0
O68 O 0.29384 0.3183 0.52285 0.0
O69 O 0.29789 0.31759 0.59393 0.0
C70 C 0.38857 0.29456 0.56138 0.0
O71 O 0.38818 0.32227 0.48414 0.0
O72 O 0.39882 0.36433 0.44273 0.0
O73 O 0.31727 0.39211 0.44745 0.0
O74 O 0.29331 0.35327 0.48447 0.0
O75 O 0.37876 0.30753 0.5958 0.0
O76 O 0.37816 0.30443 0.52471 0.0
O77 O 0.34535 0.39073 0.52948 0.0
O78 O 0.34397 0.38616 0.6001 0.0
C79 C 0.34451 0.40356 0.56665 0.0
O80 O 0.30332 0.31626 0.47767 0.0
O81 O 0.33504 0.31343 0.42075 0.0
C82 C 0.28227 0.31101 0.5601 0.0
C83 C 0.31115 0.30269 0.44188 0.0
C84 C 0.24217 0.02563 0.16859 0.0
C85 C 0.2294 0.00478 0.13726 0.0
C86 C 0.19729 0.00852 0.12314 0.0
C87 C 0.19121 0.05512 0.16875 0.0
C88 C 0.22237 0.05069 0.18417 0.0
C89 C 0.23098 0.0755 0.21782 0.0
H90 H 0.19357 0.21558 0.31912 0.0
C91 C 0.17771 0.08436 0.18853 0.0
C92 C 0.20058 0.09648 0.21756 0.0
H93 H 0.27653 0.15375 0.33994 0.0
H94 H 0.25561 0.11519 0.28827 0.0
H95 H 0.19146 0.20785 0.21605 0.0
H96 H 0.13944 0.15639 0.31564 0.0
H97 H 0.11221 0.16754 0.27446 0.0
H98 H 0.13279 0.19857 0.30454 0.0
H99 H 0.15981 0.22669 0.24677 0.0
H100 H 0.15097 0.20296 0.19949 0.0
C101 C 0.26116 0.09433 0.20202 0.0
C102 C 0.23576 0.05783 0.26149 0.0
C103 C 0.06961 0.12482 0.13511 0.0
C104 C 0.05163 0.15276 0.14272 0.0
C105 C 0.06351 0.1765 0.17109 0.0
C106 C 0.09337 0.17193 0.19225 0.0
C107 C 0.11113 0.14335 0.18468 0.0
C108 C 0.09913 0.12066 0.15614 0.0
C109 C 0.12122 0.09234 0.15031 0.0
C110 C 0.14867 0.10147 0.18021 0.0
C111 C 0.1426 0.13102 0.20083 0.0
C112 C 0.13184 0.09142 0.10226 0.0
C113 C 0.10319 0.06163 0.16637 0.0
C114 C 0.20691 0.19352 0.31257 0.0
C115 C 0.23649 0.18724 0.33303 0.0
C116 C 0.25357 0.15864 0.3242 0.0
C117 C 0.24148 0.13649 0.29419 0.0
C118 C 0.2122 0.14335 0.27288 0.0
C119 C 0.19512 0.17119 0.28267 0.0
C120 C 0.16415 0.17404 0.25736 0.0
C121 C 0.16529 0.14311 0.23119 0.0
C122 C 0.19381 0.12559 0.23996 0.0
C123 C 0.16637 0.20455 0.22849 0.0
C124 C 0.13547 0.17436 0.28943 0.0
H125 H 0.15392 0.03511 0.12635 0.0
H126 H 0.26663 0.02245 0.18062 0.0
H127 H 0.22232 0.03448 0.26251 0.0
H128 H 0.22601 0.07184 0.28893 0.0
H129 H 0.26174 0.05235 0.26749 0.0
H130 H 0.25839 0.10114 0.16754 0.0
H131 H 0.28338 0.07929 0.20508 0.0
H132 H 0.26513 0.11722 0.21944 0.0
H133 H 0.0608 0.10634 0.11326 0.0
H134 H 0.04959 0.19825 0.17721 0.0
H135 H 0.10141 0.19065 0.21369 0.0
H136 H 0.12986 0.11563 0.08672 0.0
H137 H 0.11657 0.07445 0.08335 0.0
H138 H 0.15762 0.08479 0.09814 0.0
H139 H 0.08776 0.06726 0.19478 0.0
H140 H 0.1198 0.04242 0.1777 0.0
H141 H 0.08713 0.05164 0.14093 0.0
H142 H 0.18699 -0.00794 0.09961 0.0
C143 C 0.1781 0.03351 0.13873 0.0
C144 C 0.3218 0.5726 0.6564 0.0
C145 C 0.34057 0.55549 0.62634 0.0
C146 C 0.36956 0.56868 0.61083 0.0
C147 C 0.36169 0.61578 0.6554 0.0
C148 C 0.33298 0.60287 0.67065 0.0
C149 C 0.31749 0.62444 0.70397 0.0
H150 H 0.32253 0.76341 0.81999 0.0
C151 C 0.36709 0.64702 0.67671 0.0
C152 C 0.34165 0.65232 0.70554 0.0
H153 H 0.25169 0.6866 0.82622 0.0
H154 H 0.28078 0.6566 0.77173 0.0
H155 H 0.38843 0.71494 0.81038 0.0
H156 H 0.32703 0.76586 0.72031 0.0
H157 H 0.36663 0.76666 0.69964 0.0
H158 H 0.35807 0.78638 0.75022 0.0
H159 H 0.38495 0.75828 0.80836 0.0
H160 H 0.4124 0.73707 0.77348 0.0
C161 C 0.31576 0.60567 0.74722 0.0
C162 C 0.28415 0.63556 0.68642 0.0
C163 C 0.46423 0.71271 0.63255 0.0
C164 C 0.47507 0.74379 0.64241 0.0
C165 C 0.45808 0.7628 0.67235 0.0
C166 C 0.43004 0.75041 0.69238 0.0
C167 C 0.4193 0.71895 0.68187 0.0
C168 C 0.43641 0.70093 0.65217 0.0
C169 C 0.42135 0.66878 0.64297 0.0
C170 C 0.39186 0.67034 0.67161 0.0
C171 C 0.391 0.69931 0.69506 0.0
C172 C 0.44535 0.64212 0.65808 0.0
C173 C 0.41234 0.66764 0.59433 0.0
C174 C 0.31377 0.73989 0.80984 0.0
C175 C 0.28528 0.72684 0.82708 0.0
C176 C 0.2739 0.69662 0.81316 0.0
C177 C 0.2907 0.67941 0.78155 0.0
C178 C 0.31905 0.69276 0.76391 0.0
C179 C 0.33031 0.72243 0.77823 0.0
C180 C 0.36047 0.73306 0.75502 0.0
C181 C 0.36568 0.70462 0.72504 0.0
C182 C 0.34128 0.68115 0.73036 0.0
C183 C 0.38816 0.73623 0.78838 0.0
C184 C 0.35296 0.76474 0.73013 0.0
H185 H 0.40286 0.60715 0.61251 0.0
H186 H 0.29958 0.56241 0.66916 0.0
H187 H 0.28605 0.64236 0.65183 0.0
H188 H 0.27472 0.65728 0.70281 0.0
H189 H 0.26592 0.61587 0.68912 0.0
H190 H 0.33509 0.58695 0.74939 0.0
H191 H 0.29208 0.59318 0.75096 0.0
H192 H 0.31996 0.62142 0.77545 0.0
H193 H 0.47712 0.69772 0.60956 0.0
H194 H 0.46657 0.78684 0.68044 0.0
H195 H 0.41783 0.76566 0.71513 0.0
H196 H 0.45836 0.64968 0.68783 0.0
H197 H 0.4639 0.6371 0.63306 0.0
H198 H 0.4332 0.61922 0.66695 0.0
H199 H 0.40911 0.69233 0.58061 0.0
H200 H 0.38884 0.65556 0.58826 0.0
H201 H 0.4315 0.65541 0.57524 0.0
H202 H 0.38431 0.55542 0.58797 0.0
C203 C 0.38028 0.59869 0.62523 0.0
C204 C 0.74201 0.8126 0.30912 0.0
C205 C 0.75516 0.78419 0.32638 0.0
C206 C 0.78552 0.773 0.31252 0.0
C207 C 0.78933 0.8183 0.26342 0.0
C208 C 0.7595 0.82931 0.27761 0.0
C209 C 0.74871 0.8594 0.25438 0.0
H210 H 0.78346 0.97614 0.10863 0.0
C211 C 0.80093 0.84069 0.22997 0.0
C212 C 0.77724 0.86488 0.22452 0.0
H213 H 0.69404 0.96481 0.17906 0.0
H214 H 0.71569 0.91649 0.21432 0.0
H215 H 0.83145 0.95815 0.18732 0.0
H216 H 0.78966 0.90822 0.08023 0.0
H217 H 0.82684 0.88864 0.08804 0.0
H218 H 0.82626 0.93123 0.07485 0.0
H219 H 0.84432 0.96363 0.13262 0.0
H220 H 0.8623 0.93324 0.16697 0.0
C221 C 0.74526 0.88695 0.28773 0.0
C222 C 0.71709 0.85175 0.22935 0.0
C223 C 0.91048 0.82284 0.15738 0.0
C224 C 0.9276 0.84185 0.12751 0.0
C225 C 0.91405 0.87055 0.11165 0.0
C226 C 0.8837 0.88079 0.12558 0.0
C227 C 0.86663 0.86198 0.15562 0.0
C228 C 0.87987 0.83351 0.17114 0.0
C229 C 0.8582 0.81768 0.20416 0.0
C230 C 0.82994 0.84143 0.2054 0.0
C231 C 0.83513 0.86693 0.17658 0.0
C232 C 0.87669 0.81613 0.24763 0.0
C233 C 0.84764 0.7843 0.18645 0.0
C234 C 0.7685 0.96318 0.13164 0.0
C235 C 0.7372 0.97366 0.14118 0.0
C236 C 0.71826 0.95659 0.1712 0.0
C237 C 0.73091 0.92878 0.19153 0.0
C238 C 0.76255 0.91835 0.18124 0.0
C239 C 0.78053 0.93558 0.15154 0.0
C240 C 0.81291 0.92088 0.14259 0.0
C241 C 0.81155 0.89143 0.17131 0.0
C242 C 0.78246 0.89027 0.1946 0.0
C243 C 0.83931 0.94514 0.15775 0.0
C244 C 0.81431 0.91189 0.09399 0.0
H245 H 0.82569 0.7802 0.27124 0.0
H246 H 0.71838 0.82121 0.31919 0.0
H247 H 0.71612 0.82585 0.21962 0.0
H248 H 0.7152 0.86538 0.19881 0.0
H249 H 0.69533 0.85674 0.24932 0.0
H250 H 0.76655 0.88736 0.30975 0.0
H251 H 0.72317 0.88352 0.30768 0.0
H252 H 0.74422 0.91117 0.27281 0.0
H253 H 0.92091 0.80081 0.17035 0.0
H254 H 0.92729 0.88546 0.08889 0.0
H255 H 0.87498 0.90317 0.11261 0.0
H256 H 0.89473 0.83605 0.25032 0.0
H257 H 0.89002 0.7929 0.25113 0.0
H258 H 0.8606 0.81943 0.27572 0.0
H259 H 0.8413 0.78612 0.1517 0.0
H260 H 0.82573 0.77467 0.20232 0.0
H261 H 0.8675 0.76629 0.18969 0.0
H262 H 0.79563 0.75084 0.32558 0.0
C263 C 0.80277 0.78997 0.281 0.0
C264 C 0.66917 0.24117 0.81039 0.0
C265 C 0.69762 0.25421 0.82782 0.0
C266 C 0.70903 0.28443 0.81381 0.0
C267 C 0.66395 0.28834 0.76427 0.0
C268 C 0.65268 0.25865 0.77859 0.0
C269 C 0.62255 0.24805 0.75521 0.0
H270 H 0.50591 0.28416 0.60933 0.0
C271 C 0.64172 0.30004 0.73063 0.0
C272 C 0.61731 0.27657 0.7252 0.0
H273 H 0.51628 0.19457 0.67958 0.0
H274 H 0.56498 0.21552 0.71478 0.0
H275 H 0.52446 0.33165 0.68788 0.0
H276 H 0.5739 0.28952 0.58077 0.0
H277 H 0.59409 0.32631 0.58856 0.0
H278 H 0.55142 0.32641 0.57543 0.0
H279 H 0.51915 0.34467 0.63319 0.0
H280 H 0.54977 0.3622 0.66755 0.0
C281 C 0.59482 0.24473 0.78841 0.0
C282 C 0.63012 0.21646 0.73033 0.0
C283 C 0.66089 0.40908 0.65718 0.0
C284 C 0.64204 0.42631 0.62718 0.0
C285 C 0.61309 0.4131 0.61156 0.0
C286 C 0.60247 0.38298 0.6258 0.0
C287 C 0.62113 0.36578 0.65591 0.0
C288 C 0.64982 0.37869 0.67126 0.0
C289 C 0.66539 0.35696 0.7045 0.0
C290 C 0.64129 0.329 0.70592 0.0
C291 C 0.61583 0.33441 0.67707 0.0
C292 C 0.6671 0.37552 0.74783 0.0
C293 C 0.69873 0.34601 0.68694 0.0
C294 C 0.51873 0.26901 0.63231 0.0
C295 C 0.50786 0.23787 0.64182 0.0
C296 C 0.52479 0.21868 0.67176 0.0
C297 C 0.55281 0.23093 0.69206 0.0
C298 C 0.56361 0.26244 0.68183 0.0
C299 C 0.54652 0.28064 0.65216 0.0
C300 C 0.5616 0.31281 0.64316 0.0
C301 C 0.59108 0.31109 0.67185 0.0
C302 C 0.59196 0.28201 0.69519 0.0
C303 C 0.5376 0.33941 0.65832 0.0
C304 C 0.57061 0.31415 0.59454 0.0
H305 H 0.70224 0.32446 0.77217 0.0
H306 H 0.66039 0.21765 0.82058 0.0
H307 H 0.65597 0.21561 0.7202 0.0
H308 H 0.61619 0.21442 0.70005 0.0
H309 H 0.62541 0.19478 0.75058 0.0
H310 H 0.59438 0.26601 0.8103 0.0
H311 H 0.59811 0.22269 0.8085 0.0
H312 H 0.57062 0.24372 0.77334 0.0
H313 H 0.68309 0.41926 0.67001 0.0
H314 H 0.59828 0.42643 0.58874 0.0
H315 H 0.57991 0.37454 0.61299 0.0
H316 H 0.64767 0.39411 0.75011 0.0
H317 H 0.69072 0.38813 0.75159 0.0
H318 H 0.66307 0.35961 0.77599 0.0
H319 H 0.69682 0.33936 0.65233 0.0
H320 H 0.70823 0.32424 0.70327 0.0
H321 H 0.71691 0.36573 0.68974 0.0
H322 H 0.7312 0.29446 0.82698 0.0
C323 C 0.69229 0.30165 0.78201 0.0
C324 C 0.73629 0.46378 0.34742 0.0
C325 C 0.72255 0.48431 0.37849 0.0
C326 C 0.6917 0.4773 0.39516 0.0
C327 C 0.68855 0.42919 0.35111 0.0
C328 C 0.71871 0.43632 0.33407 0.0
C329 C 0.7287 0.41188 0.30055 0.0
H330 H 0.69578 0.27527 0.18731 0.0
C331 C 0.67679 0.39888 0.33136 0.0
C332 C 0.70001 0.3886 0.3015 0.0
H333 H 0.77714 0.34023 0.17355 0.0
H334 H 0.75669 0.37352 0.23139 0.0
H335 H 0.69545 0.27675 0.29462 0.0
H336 H 0.64017 0.33102 0.20061 0.0
H337 H 0.61416 0.31592 0.24097 0.0
H338 H 0.63579 0.28801 0.20717 0.0
H339 H 0.66493 0.25798 0.26177 0.0
H340 H 0.65464 0.27869 0.31098 0.0
C341 C 0.7603 0.39534 0.3161 0.0
C342 C 0.73176 0.42956 0.25662 0.0
C343 C 0.56975 0.35233 0.38207 0.0
C344 C 0.5529 0.32374 0.37313 0.0
C345 C 0.56599 0.30154 0.34348 0.0
C346 C 0.59571 0.30803 0.32274 0.0
C347 C 0.61234 0.33707 0.33179 0.0
C348 C 0.59926 0.35841 0.36136 0.0
C349 C 0.62034 0.38746 0.36857 0.0
C350 C 0.64845 0.38019 0.33874 0.0
C351 C 0.64358 0.35097 0.3165 0.0
C352 C 0.63071 0.38783 0.41668 0.0
C353 C 0.60123 0.41781 0.35359 0.0
C354 C 0.70892 0.29682 0.19684 0.0
C355 C 0.73781 0.30561 0.17587 0.0
C356 C 0.75465 0.3334 0.18916 0.0
C357 C 0.74275 0.35261 0.22275 0.0
C358 C 0.71365 0.34392 0.2433 0.0
C359 C 0.69723 0.31636 0.23047 0.0
C360 C 0.66661 0.31117 0.25621 0.0
C361 C 0.66684 0.34074 0.2854 0.0
C362 C 0.69475 0.35959 0.27789 0.0
C363 C 0.67027 0.27939 0.28218 0.0
C364 C 0.63749 0.31132 0.22482 0.0
H365 H 0.65122 0.4461 0.3957 0.0
H366 H 0.75981 0.46909 0.33362 0.0
H367 H 0.71606 0.45144 0.25526 0.0
H368 H 0.72348 0.41451 0.22931 0.0
H369 H 0.75708 0.43753 0.25063 0.0
H370 H 0.75882 0.3896 0.35106 0.0
H371 H 0.78156 0.41143 0.31117 0.0
H372 H 0.76498 0.372 0.30003 0.0
H373 H 0.56015 0.36971 0.40486 0.0
H374 H 0.55317 0.27932 0.33621 0.0
H375 H 0.60459 0.29031 0.30044 0.0
H376 H 0.63097 0.363 0.43064 0.0
H377 H 0.61383 0.40263 0.43635 0.0
H378 H 0.65573 0.39673 0.42147 0.0
H379 H 0.58666 0.41239 0.32428 0.0
H380 H 0.61711 0.43813 0.3441 0.0
H381 H 0.58423 0.42618 0.37895 0.0
H382 H 0.68066 0.49318 0.41874 0.0
C383 C 0.67464 0.44994 0.3817 0.0
C384 C 0.15858 0.24014 0.69939 0.0
C385 C 0.18628 0.22831 0.67861 0.0
C386 C 0.20092 0.19963 0.69345 0.0
C387 C 0.15945 0.19412 0.74843 0.0
C388 C 0.14558 0.22272 0.73412 0.0
C389 C 0.1158 0.23161 0.7594 0.0
H390 H 0.00254 0.18895 0.90694 0.0
C391 C 0.13911 0.18122 0.78385 0.0
C392 C 0.11334 0.20311 0.79015 0.0
H393 H 0.0068 0.27795 0.83435 0.0
H394 H 0.05746 0.26065 0.80128 0.0
H395 H 0.02593 0.14175 0.82947 0.0
H396 H 0.07273 0.1886 0.93567 0.0
H397 H 0.09473 0.15276 0.92836 0.0
H398 H 0.05223 0.15066 0.94212 0.0
H399 H 0.02057 0.12997 0.88466 0.0
H400 H 0.05265 0.1133 0.85211 0.0
C401 C 0.08674 0.23319 0.72788 0.0
C402 C 0.12261 0.26369 0.78353 0.0
C403 C 0.16634 0.07311 0.85701 0.0
C404 C 0.14968 0.05491 0.8884 0.0
C405 C 0.12045 0.0667 0.90528 0.0
C406 C 0.10765 0.09619 0.89131 0.0
C407 C 0.12422 0.11432 0.85999 0.0
C408 C 0.15307 0.10286 0.8432 0.0
C409 C 0.16631 0.12536 0.80898 0.0
C410 C 0.14089 0.15224 0.80882 0.0
C411 C 0.11651 0.14548 0.83896 0.0
C412 C 0.16731 0.10678 0.76572 0.0
C413 C 0.19972 0.13793 0.8242 0.0
C414 C 0.01447 0.20469 0.8839 0.0
C415 C 0.001 0.23468 0.87299 0.0
C416 C 0.01702 0.2547 0.84312 0.0
C417 C 0.04628 0.24453 0.82398 0.0
C418 C 0.05938 0.21404 0.83488 0.0
C419 C 0.04354 0.19498 0.86482 0.0
C420 C 0.06115 0.16398 0.87407 0.0
C421 C 0.0904 0.16739 0.84493 0.0
C422 C 0.08903 0.19636 0.82131 0.0
C423 C 0.03904 0.13558 0.85974 0.0
C424 C 0.07062 0.16365 0.92251 0.0
H425 H 0.19985 0.16074 0.73828 0.0
H426 H 0.14725 0.26244 0.68879 0.0
H427 H 0.14841 0.26511 0.79387 0.0
H428 H 0.1085 0.26592 0.81359 0.0
H429 H 0.11761 0.28497 0.76264 0.0
H430 H 0.08771 0.21278 0.70458 0.0
H431 H 0.08702 0.25612 0.70915 0.0
H432 H 0.06307 0.23093 0.74404 0.0
H433 H 0.18872 0.06422 0.84316 0.0
H434 H 0.10724 0.05281 0.92916 0.0
H435 H 0.0851 0.10352 0.9053 0.0
H436 H 0.14718 0.08892 0.76364 0.0
H437 H 0.19046 0.0933 0.76208 0.0
H438 H 0.16386 0.12271 0.73752 0.0
H439 H 0.19876 0.14489 0.85877 0.0
H440 H 0.2076 0.15987 0.8068 0.0
H441 H 0.21863 0.11898 0.8206 0.0
H442 H 0.22264 0.19051 0.67804 0.0
C443 C 0.18768 0.18246 0.72834 0.0
C444 C 0.2414 0.65668 0.19918 0.0
C445 C 0.25344 0.68417 0.17814 0.0
C446 C 0.28218 0.69874 0.19293 0.0
C447 C 0.2874 0.65752 0.24834 0.0
C448 C 0.25871 0.64376 0.23411 0.0
C449 C 0.24958 0.6142 0.25967 0.0
H450 H 0.29119 0.50136 0.40829 0.0
C451 C 0.30017 0.63726 0.28395 0.0
C452 C 0.27807 0.61169 0.29046 0.0
H453 H 0.20206 0.50637 0.33576 0.0
H454 H 0.21997 0.55658 0.30213 0.0
H455 H 0.33875 0.52408 0.33034 0.0
H456 H 0.29241 0.57144 0.43637 0.0
H457 H 0.3285 0.59306 0.42876 0.0
H458 H 0.33024 0.55065 0.44284 0.0
H459 H 0.3505 0.51867 0.38555 0.0
H460 H 0.36753 0.55049 0.35283 0.0
C461 C 0.24787 0.58507 0.22845 0.0
C462 C 0.21747 0.62129 0.2837 0.0
C463 C 0.40844 0.66408 0.35711 0.0
C464 C 0.42654 0.64744 0.38864 0.0
C465 C 0.41468 0.61826 0.40554 0.0
C466 C 0.38515 0.60551 0.39152 0.0
C467 C 0.36707 0.62212 0.36014 0.0
C468 C 0.37866 0.65088 0.34325 0.0
C469 C 0.35622 0.66416 0.30892 0.0
C470 C 0.32919 0.6389 0.30889 0.0
C471 C 0.33582 0.61456 0.33918 0.0
C472 C 0.3749 0.665 0.26568 0.0
C473 C 0.34378 0.69759 0.3239 0.0
C474 C 0.27556 0.51336 0.38515 0.0
C475 C 0.24534 0.50025 0.37442 0.0
C476 C 0.22547 0.51634 0.34441 0.0
C477 C 0.23599 0.54533 0.32494 0.0
C478 C 0.26668 0.5581 0.33568 0.0
C479 C 0.28562 0.54221 0.36575 0.0
C480 C 0.31686 0.55951 0.37478 0.0
C481 C 0.31369 0.58866 0.34539 0.0
C482 C 0.28466 0.58747 0.32182 0.0
C483 C 0.34507 0.53713 0.36054 0.0
C484 C 0.31736 0.56908 0.42314 0.0
H485 H 0.32102 0.6977 0.23792 0.0
H486 H 0.21903 0.64542 0.18864 0.0
H487 H 0.21599 0.64719 0.29332 0.0
H488 H 0.21529 0.60764 0.31418 0.0
H489 H 0.19613 0.61597 0.26303 0.0
H490 H 0.26837 0.58581 0.20521 0.0
H491 H 0.22495 0.58543 0.20965 0.0
H492 H 0.24993 0.56149 0.24486 0.0
H493 H 0.4174 0.68643 0.34323 0.0
H494 H 0.42851 0.60504 0.42952 0.0
H495 H 0.37773 0.58301 0.40556 0.0
H496 H 0.39268 0.6448 0.26374 0.0
H497 H 0.38854 0.68802 0.26193 0.0
H498 H 0.35896 0.66161 0.23747 0.0
H499 H 0.33676 0.69673 0.35847 0.0
H500 H 0.32187 0.70554 0.30641 0.0
H501 H 0.36286 0.71637 0.32022 0.0
H502 H 0.29144 0.72032 0.17732 0.0
C503 C 0.29924 0.68559 0.22802 0.0
C504 C 0.81721 0.90616 0.85677 0.0
C505 C 0.8338 0.92433 0.88822 0.0
C506 C 0.86304 0.91258 0.90521 0.0
C507 C 0.85945 0.86508 0.85988 0.0
C508 C 0.83058 0.8765 0.843 0.0
C509 C 0.81742 0.85408 0.80868 0.0
H510 H 0.83717 0.71781 0.68782 0.0
C511 C 0.86729 0.83401 0.83881 0.0
C512 C 0.84294 0.8273 0.80855 0.0
H513 H 0.76151 0.78952 0.6772 0.0
H514 H 0.78405 0.81896 0.73781 0.0
H515 H 0.89645 0.76745 0.70429 0.0
H516 H 0.83569 0.71438 0.79269 0.0
H517 H 0.87543 0.7138 0.81312 0.0
H518 H 0.8669 0.69489 0.76196 0.0
H519 H 0.89732 0.7241 0.70873 0.0
H520 H 0.9211 0.74925 0.74383 0.0
C521 C 0.81635 0.87282 0.76545 0.0
C522 C 0.78407 0.84131 0.82378 0.0
C523 C 0.96936 0.77469 0.88399 0.0
C524 C 0.98279 0.74471 0.87306 0.0
C525 C 0.96682 0.72485 0.84302 0.0
C526 C 0.93762 0.73513 0.82375 0.0
C527 C 0.92453 0.76558 0.83471 0.0
C528 C 0.94033 0.78452 0.86479 0.0
C529 C 0.92269 0.81548 0.87406 0.0
C530 C 0.89345 0.81215 0.84481 0.0
C531 C 0.89489 0.78329 0.82109 0.0
C532 C 0.94477 0.84395 0.85984 0.0
C533 C 0.91323 0.81566 0.92247 0.0
C534 C 0.82573 0.74 0.69853 0.0
C535 C 0.79804 0.75189 0.67767 0.0
C536 C 0.78324 0.78039 0.69267 0.0
C537 C 0.79634 0.79736 0.72777 0.0
C538 C 0.82459 0.78569 0.7479 0.0
C539 C 0.83859 0.75723 0.73348 0.0
C540 C 0.86834 0.74828 0.75888 0.0
C541 C 0.87065 0.77661 0.78979 0.0
C542 C 0.84483 0.79846 0.78347 0.0
C543 C 0.89747 0.74695 0.72753 0.0
C544 C 0.86156 0.71605 0.78281 0.0
H545 H 0.89852 0.87585 0.90535 0.0
H546 H 0.79481 0.91502 0.84283 0.0
H547 H 0.78505 0.83425 0.85834 0.0
H548 H 0.77629 0.8194 0.80633 0.0
H549 H 0.76508 0.8602 0.82016 0.0
H550 H 0.83628 0.89092 0.76358 0.0
H551 H 0.79307 0.88605 0.76164 0.0
H552 H 0.82009 0.85703 0.73724 0.0
H553 H 0.98128 0.79031 0.90716 0.0
H554 H 0.97702 0.70162 0.83423 0.0
H555 H 0.92647 0.71913 0.80093 0.0
H556 H 0.95775 0.83796 0.82947 0.0
H557 H 0.96335 0.84937 0.88472 0.0
H558 H 0.93115 0.8663 0.85245 0.0
H559 H 0.91119 0.79067 0.93562 0.0
H560 H 0.88908 0.82647 0.92824 0.0
H561 H 0.93157 0.82867 0.94212 0.0
H562 H 0.87621 0.92644 0.92915 0.0
C563 C 0.87595 0.88316 0.89128 0.0
C564 C 0.23607 0.92828 0.07492 0.0
C565 C 0.21616 0.90896 0.06322 0.0
C566 C 0.24941 0.9544 0.09768 0.0
C567 C 0.24724 0.97826 0.11949 0.0
C568 C 0.55297 0.73384 0.57826 0.0
C569 C 0.57192 0.71349 0.56677 0.0
C570 C 0.52822 0.75049 0.60006 0.0
C571 C 0.50453 0.75399 0.62206 0.0
C572 C 0.74738 0.05062 0.07575 0.0
C573 C 0.76808 0.06927 0.06437 0.0
C574 C 0.73034 0.02624 0.09784 0.0
C575 C 0.72672 0.00279 0.12028 0.0
C576 C 0.43053 0.24838 0.57624 0.0
C577 C 0.4116 0.26875 0.56454 0.0
C578 C 0.45504 0.23157 0.59851 0.0
C579 C 0.47854 0.22782 0.62092 0.0
C580 C 0.73708 0.56726 0.43522 0.0
C581 C 0.72095 0.58802 0.45213 0.0
C582 C 0.74334 0.53858 0.41187 0.0
C583 C 0.73838 0.51341 0.39327 0.0
C584 C 0.91708 0.23434 0.93508 0.0
C585 C 0.8965 0.21744 0.95121 0.0
C586 C 0.94514 0.24374 0.912 0.0
C587 C 0.97026 0.24341 0.89199 0.0
C588 C 0.24473 0.41667 0.43707 0.0
C589 C 0.26174 0.39611 0.45303 0.0
C590 C 0.23551 0.44474 0.41392 0.0
C591 C 0.23619 0.46975 0.39371 0.0
C592 C 0.06648 0.74462 0.93565 0.0
C593 C 0.08694 0.76158 0.95189 0.0
C594 C 0.0385 0.73529 0.91239 0.0
C595 C 0.01344 0.73579 0.89222 0.0
C596 C 0.8194 0.01326 0.93754 0.0
C597 C 0.82489 0.04032 0.95052 0.0
C598 C 0.81834 0.98197 0.91879 0.0
C599 C 0.82262 0.95572 0.90254 0.0
C600 C 0.46615 0.31974 0.43443 0.0
C601 C 0.43944 0.32557 0.44855 0.0
C602 C 0.49657 0.31697 0.41336 0.0
C603 C 0.52195 0.31823 0.39387 0.0
C604 C 0.16366 0.96591 0.9381 0.0
C605 C 0.1581 0.93888 0.95123 0.0
C606 C 0.16489 -0.00281 0.91919 0.0
C607 C 0.16075 0.02347 0.90282 0.0
C608 C 0.51538 0.66182 0.43895 0.0
C609 C 0.54245 0.65649 0.45222 0.0
C610 C 0.48415 0.66282 0.41981 0.0
C611 C 0.45792 0.65856 0.40328 0.0
C612 C 0.33536 0.46538 0.58109 0.0
C613 C 0.33968 0.43759 0.57129 0.0
C614 C 0.33124 0.49682 0.59733 0.0
C615 C 0.33236 0.52341 0.61284 0.0
C616 C 0.0184 0.83665 0.08345 0.0
C617 C 0.04631 0.84028 0.07348 0.0
C618 C 0.98676 0.83299 0.09945 0.0
C619 C 0.95996 0.83409 0.11446 0.0
C620 C 0.64732 0.51668 0.58206 0.0
C621 C 0.64321 0.54452 0.57218 0.0
C622 C 0.65127 0.48515 0.59833 0.0
C623 C 0.65016 0.45849 0.61376 0.0
C624 C 0.96536 0.14604 0.0834 0.0
C625 C 0.938 0.14092 0.07184 0.0
C626 C -0.00459 0.15273 0.10295 0.0
C627 C 0.02047 0.15537 0.12247 0.0
C628 C 0.20448 0.72929 0.08206 0.0
C629 C 0.18964 0.75067 0.0643 0.0
C630 C 0.22178 0.71037 0.11237 0.0
C631 C 0.23583 0.69806 0.14237 0.0
C632 C 0.75244 0.70354 0.58176 0.0
C633 C 0.73089 0.68883 0.56423 0.0
C634 C 0.77165 0.72056 0.61193 0.0
C635 C 0.78414 0.73438 0.64192 0.0
C636 C 0.77891 0.24894 0.08419 0.0
C637 C 0.79338 0.22708 0.067 0.0
C638 C 0.76296 0.27009 0.1131 0.0
C639 C 0.75103 0.28588 0.14174 0.0
C640 C 0.23176 0.27762 0.5832 0.0
C641 C 0.25299 0.29267 0.56545 0.0
C642 C 0.2128 0.26019 0.61331 0.0
C643 C 0.20033 0.24605 0.64309 0.0
C644 C 0.70488 0.72614 0.40605 0.0
C645 C 0.68966 0.70527 0.4237 0.0
C646 C 0.72223 0.74847 0.38109 0.0
C647 C 0.73673 0.76523 0.35611 0.0
C648 C 0.75585 0.20445 0.90804 0.0
C649 C 0.77689 0.18917 0.92537 0.0
C650 C 0.73329 0.22158 0.88307 0.0
C651 C 0.71645 0.23583 0.85786 0.0
C652 C 0.27713 0.25566 0.40776 0.0
C653 C 0.29191 0.27718 0.42466 0.0
C654 C 0.26182 0.23104 0.38434 0.0
C655 C 0.2503 0.21103 0.36095 0.0
C656 C 0.22674 0.77658 0.90631 0.0
C657 C 0.20563 0.79159 0.92369 0.0
C658 C 0.24942 0.75956 0.88163 0.0
C659 C 0.26636 0.74527 0.85674 0.0
loop_
_geom_bond_atom_site_label_1
_geom_bond_atom_site_label_2
_geom_bond_distance
_geom_bond_site_symmetry_2
_ccdc_geom_bond_type
Zn0 O6 1.920 . S
Zn0 O12 1.898 . S
Zn0 O15 1.905 . S
Zn1 O9 1.905 . S
Zn1 O10 1.898 . S
Zn1 O18 1.920 . S
Zn2 O5 2.080 . S
Zn2 O8 2.114 1_554 S
Zn2 O11 2.120 1_554 S
Zn2 O13 2.120 . S
Zn2 O14 2.114 . S
Zn2 O17 2.080 1_554 S
C3 O8 1.166 . S
C3 O9 1.182 . S
C4 O10 1.167 . S
C4 O11 1.299 . S
O5 Zn2 2.080 . S
O5 C19 1.305 . S
O6 Zn0 1.920 . S
O6 C19 1.234 . S
C7 O12 1.167 . S
C7 O13 1.299 . S
O8 Zn2 2.114 1_556 S
O8 C3 1.166 . S
O9 Zn1 1.905 . S
O9 C3 1.182 . S
O10 Zn1 1.898 . S
O10 C4 1.167 . S
O11 Zn2 2.120 1_556 S
O11 C4 1.299 . S
O12 Zn0 1.898 . S
O12 C7 1.167 . S
O13 Zn2 2.120 . S
O13 C7 1.299 . S
O14 Zn2 2.114 . S
O14 C16 1.166 . S
O15 Zn0 1.905 . S
O15 C16 1.182 . S
C16 O14 1.166 . S
C16 O15 1.182 . S
O17 Zn2 2.080 1_556 S
O17 C20 1.305 . S
O18 Zn1 1.920 . S
O18 C20 1.234 . S
C19 O5 1.305 . S
C19 O6 1.234 . S
C20 O17 1.305 . S
C20 O18 1.234 . S
Zn21 O27 1.920 . S
Zn21 O33 1.898 . S
Zn21 O36 1.905 . S
Zn22 O30 1.905 . S
Zn22 O31 1.898 . S
Zn22 O39 1.920 . S
Zn23 O26 2.080 . S
Zn23 O29 2.114 . S
Zn23 O32 2.120 . S
Zn23 O34 2.120 . S
Zn23 O35 2.114 . S
Zn23 O38 2.080 . S
C24 O29 1.166 . S
C24 O30 1.182 . S
C25 O31 1.167 . S
C25 O32 1.299 . S
O26 Zn23 2.080 . S
O26 C40 1.305 . S
O27 Zn21 1.920 . S
O27 C40 1.234 . S
C28 O33 1.167 . S
C28 O34 1.299 . S
O29 Zn23 2.114 . S
O29 C24 1.166 . S
O30 Zn22 1.905 . S
O30 C24 1.182 . S
O31 Zn22 1.898 . S
O31 C25 1.167 . S
O32 Zn23 2.120 . S
O32 C25 1.299 . S
O33 Zn21 1.898 . S
O33 C28 1.167 . S
O34 Zn23 2.120 . S
O34 C28 1.299 . S
O35 Zn23 2.114 . S
O35 C37 1.166 . S
O36 Zn21 1.905 . S
O36 C37 1.182 . S
C37 O35 1.166 . S
C37 O36 1.182 . S
O38 Zn23 2.080 . S
O38 C41 1.305 . S
O39 Zn22 1.920 . S
O39 C41 1.234 . S
C40 O26 1.305 . S
C40 O27 1.234 . S
C41 O38 1.305 . S
C41 O39 1.234 . S
Zn42 O48 1.920 . S
Zn42 O54 1.898 . S
Zn42 O57 1.905 . S
Zn43 O51 1.905 . S
Zn43 O52 1.898 . S
Zn43 O60 1.920 . S
Zn44 O47 2.080 1_554 S
Zn44 O50 2.114 . S
Zn44 O53 2.120 . S
Zn44 O55 2.120 1_554 S
Zn44 O56 2.114 1_554 S
Zn44 O59 2.080 . S
C45 O50 1.166 . S
C45 O51 1.182 . S
C46 O52 1.167 . S
C46 O53 1.299 . S
O47 Zn44 2.080 1_556 S
O47 C61 1.305 . S
O48 Zn42 1.920 . S
O48 C61 1.234 . S
C49 O54 1.167 . S
C49 O55 1.299 . S
O50 Zn44 2.114 . S
O50 C45 1.166 . S
O51 Zn43 1.905 . S
O51 C45 1.182 . S
O52 Zn43 1.898 . S
O52 C46 1.167 . S
O53 Zn44 2.120 . S
O53 C46 1.299 . S
O54 Zn42 1.898 . S
O54 C49 1.167 . S
O55 Zn44 2.120 1_556 S
O55 C49 1.299 . S
O56 Zn44 2.114 1_556 S
O56 C58 1.166 . S
O57 Zn42 1.905 . S
O57 C58 1.182 . S
C58 O56 1.166 . S
C58 O57 1.182 . S
O59 Zn44 2.080 . S
O59 C62 1.305 . S
O60 Zn43 1.920 . S
O60 C62 1.234 . S
C61 O47 1.305 . S
C61 O48 1.234 . S
C62 O59 1.305 . S
C62 O60 1.234 . S
Zn63 O69 1.920 . S
Zn63 O75 1.898 . S
Zn63 O78 1.905 . S
Zn64 O72 1.905 . S
Zn64 O73 1.898 . S
Zn64 O81 1.920 . S
Zn65 O68 2.080 . S
Zn65 O71 2.114 . S
Zn65 O74 2.120 . S
Zn65 O76 2.120 . S
Zn65 O77 2.114 . S
Zn65 O80 2.080 . S
C66 O71 1.166 . S
C66 O72 1.182 . S
C67 O73 1.167 . S
C67 O74 1.299 . S
O68 Zn65 2.080 . S
O68 C82 1.305 . S
O69 Zn63 1.920 . S
O69 C82 1.234 . S
C70 O75 1.167 . S
C70 O76 1.299 . S
O71 Zn65 2.114 . S
O71 C66 1.166 . S
O72 Zn64 1.905 . S
O72 C66 1.182 . S
O73 Zn64 1.898 . S
O73 C67 1.167 . S
O74 Zn65 2.120 . S
O74 C67 1.299 . S
O75 Zn63 1.898 . S
O75 C70 1.167 . S
O76 Zn65 2.120 . S
O76 C70 1.299 . S
O77 Zn65 2.114 . S
O77 C79 1.166 . S
O78 Zn63 1.905 . S
O78 C79 1.182 . S
C79 O77 1.166 . S
C79 O78 1.182 . S
O80 Zn65 2.080 . S
O80 C83 1.305 . S
O81 Zn64 1.920 . S
O81 C83 1.234 . S
C82 O68 1.305 . S
C82 O69 1.234 . S
C83 O80 1.305 . S
C83 O81 1.234 . S
C84 C85 1.393 . S
C84 C88 1.391 . S
C84 H126 0.948 . S
C85 C84 1.393 . S
C85 C86 1.392 . S
C86 C85 1.392 . S
C86 H142 0.947 1_545 S
C86 C143 1.392 . S
C87 C88 1.391 . S
C87 C91 1.397 . S
C87 C143 1.419 . S
C88 C84 1.391 . S
C88 C87 1.391 . S
C88 C89 1.399 . S
C89 C88 1.399 . S
C89 C92 1.396 . S
C89 C101 1.453 . S
C89 C102 1.684 . S
H90 C114 0.948 . S
C91 C87 1.397 . S
C91 C92 1.394 . S
C91 C110 1.723 . S
C92 C89 1.396 . S
C92 C91 1.394 . S
C92 C122 1.723 . S
H93 C116 0.947 . S
H94 C117 0.948 . S
H95 C123 0.982 . S
H96 C124 0.979 . S
H97 C124 0.980 . S
H98 C124 0.983 . S
H99 C123 0.979 . S
H100 C123 0.977 . S
C101 C89 1.453 . S
C101 H130 0.982 . S
C101 H131 0.979 . S
C101 H132 0.977 . S
C102 C89 1.684 . S
C102 H127 0.979 . S
C102 H128 0.980 . S
C102 H129 0.983 . S
C103 C104 1.391 . S
C103 C108 1.391 . S
C103 H133 0.948 . S
C104 C103 1.391 . S
C104 C105 1.391 . S
C105 C104 1.391 . S
C105 C106 1.392 . S
C105 H134 0.947 . S
C106 C105 1.392 . S
C106 C107 1.419 . S
C106 H135 0.948 . S
C107 C106 1.419 . S
C107 C108 1.391 . S
C107 C111 1.397 . S
C108 C103 1.391 . S
C108 C107 1.391 . S
C108 C109 1.399 . S
C109 C108 1.399 . S
C109 C110 1.396 . S
C109 C112 1.453 . S
C109 C113 1.684 . S
C110 C91 1.723 . S
C110 C109 1.396 . S
C110 C111 1.394 . S
C111 C107 1.397 . S
C111 C110 1.394 . S
C111 C121 1.723 . S
C112 C109 1.453 . S
C112 H136 0.982 . S
C112 H137 0.979 . S
C112 H138 0.977 . S
C113 C109 1.684 . S
C113 H139 0.979 . S
C113 H140 0.980 . S
C113 H141 0.983 . S
C114 H90 0.948 . S
C114 C115 1.391 . S
C114 C119 1.391 . S
C115 C114 1.391 . S
C115 C116 1.391 . S
C116 H93 0.947 . S
C116 C115 1.391 . S
C116 C117 1.392 . S
C117 H94 0.948 . S
C117 C116 1.392 . S
C117 C118 1.419 . S
C118 C117 1.419 . S
C118 C119 1.391 . S
C118 C122 1.397 . S
C119 C114 1.391 . S
C119 C118 1.391 . S
C119 C120 1.399 . S
C120 C119 1.399 . S
C120 C121 1.396 . S
C120 C123 1.453 . S
C120 C124 1.684 . S
C121 C111 1.723 . S
C121 C120 1.396 . S
C121 C122 1.394 . S
C122 C92 1.723 . S
C122 C118 1.397 . S
C122 C121 1.394 . S
C123 H95 0.982 . S
C123 H99 0.979 . S
C123 H100 0.977 . S
C123 C120 1.453 . S
C124 H96 0.979 . S
C124 H97 0.980 . S
C124 H98 0.983 . S
C124 C120 1.684 . S
H125 C143 0.948 . S
H126 C84 0.948 . S
H127 C102 0.979 . S
H128 C102 0.980 . S
H129 C102 0.983 . S
H130 C101 0.982 . S
H131 C101 0.979 . S
H132 C101 0.977 . S
H133 C103 0.948 . S
H134 C105 0.947 . S
H135 C106 0.948 . S
H136 C112 0.982 . S
H137 C112 0.979 . S
H138 C112 0.977 . S
H139 C113 0.979 . S
H140 C113 0.980 . S
H141 C113 0.983 . S
H142 C86 0.947 1_565 S
C143 C86 1.392 . S
C143 C87 1.419 . S
C143 H125 0.948 . S
C144 C145 1.391 . S
C144 C148 1.391 . S
C144 H186 0.948 . S
C145 C144 1.391 . S
C145 C146 1.391 . S
C146 C145 1.391 . S
C146 H202 0.947 . S
C146 C203 1.392 . S
C147 C148 1.391 . S
C147 C151 1.397 . S
C147 C203 1.419 . S
C148 C144 1.391 . S
C148 C147 1.391 . S
C148 C149 1.399 . S
C149 C148 1.399 . S
C149 C152 1.396 . S
C149 C161 1.453 . S
C149 C162 1.684 . S
H150 C174 0.948 . S
C151 C147 1.397 . S
C151 C152 1.394 . S
C151 C170 1.723 . S
C152 C149 1.396 . S
C152 C151 1.394 . S
C152 C182 1.723 . S
H153 C176 0.947 . S
H154 C177 0.948 . S
H155 C183 0.982 . S
H156 C184 0.979 . S
H157 C184 0.980 . S
H158 C184 0.983 . S
H159 C183 0.979 . S
H160 C183 0.977 . S
C161 C149 1.453 . S
C161 H190 0.982 . S
C161 H191 0.979 . S
C161 H192 0.977 . S
C162 C149 1.684 . S
C162 H187 0.979 . S
C162 H188 0.980 . S
C162 H189 0.983 . S
C163 C164 1.391 . S
C163 C168 1.391 . S
C163 H193 0.948 . S
C164 C163 1.391 . S
C164 C165 1.391 . S
C165 C164 1.391 . S
C165 C166 1.392 . S
C165 H194 0.947 . S
C166 C165 1.392 . S
C166 C167 1.419 . S
C166 H195 0.948 . S
C167 C166 1.419 . S
C167 C168 1.391 . S
C167 C171 1.397 . S
C168 C163 1.391 . S
C168 C167 1.391 . S
C168 C169 1.399 . S
C169 C168 1.399 . S
C169 C170 1.396 . S
C169 C172 1.453 . S
C169 C173 1.684 . S
C170 C151 1.723 . S
C170 C169 1.396 . S
C170 C171 1.394 . S
C171 C167 1.397 . S
C171 C170 1.394 . S
C171 C181 1.723 . S
C172 C169 1.453 . S
C172 H196 0.982 . S
C172 H197 0.979 . S
C172 H198 0.977 . S
C173 C169 1.684 . S
C173 H199 0.979 . S
C173 H200 0.980 . S
C173 H201 0.983 . S
C174 H150 0.948 . S
C174 C175 1.391 . S
C174 C179 1.391 . S
C175 C174 1.391 . S
C175 C176 1.391 . S
C176 H153 0.947 . S
C176 C175 1.391 . S
C176 C177 1.392 . S
C177 H154 0.948 . S
C177 C176 1.392 . S
C177 C178 1.419 . S
C178 C177 1.419 . S
C178 C179 1.391 . S
C178 C182 1.397 . S
C179 C174 1.391 . S
C179 C178 1.391 . S
C179 C180 1.399 . S
C180 C179 1.399 . S
C180 C181 1.396 . S
C180 C183 1.453 . S
C180 C184 1.684 . S
C181 C171 1.723 . S
C181 C180 1.396 . S
C181 C182 1.394 . S
C182 C152 1.723 . S
C182 C178 1.397 . S
C182 C181 1.394 . S
C183 H155 0.982 . S
C183 H159 0.979 . S
C183 H160 0.977 . S
C183 C180 1.453 . S
C184 H156 0.979 . S
C184 H157 0.980 . S
C184 H158 0.983 . S
C184 C180 1.684 . S
H185 C203 0.948 . S
H186 C144 0.948 . S
H187 C162 0.979 . S
H188 C162 0.980 . S
H189 C162 0.983 . S
H190 C161 0.982 . S
H191 C161 0.979 . S
H192 C161 0.977 . S
H193 C163 0.948 . S
H194 C165 0.947 . S
H195 C166 0.948 . S
H196 C172 0.982 . S
H197 C172 0.979 . S
H198 C172 0.977 . S
H199 C173 0.979 . S
H200 C173 0.980 . S
H201 C173 0.983 . S
H202 C146 0.947 . S
C203 C146 1.392 . S
C203 C147 1.419 . S
C203 H185 0.948 . S
C204 C205 1.391 . S
C204 C208 1.391 . S
C204 H246 0.948 . S
C205 C204 1.391 . S
C205 C206 1.391 . S
C206 C205 1.391 . S
C206 H262 0.947 . S
C206 C263 1.392 . S
C207 C208 1.391 . S
C207 C211 1.397 . S
C207 C263 1.419 . S
C208 C204 1.391 . S
C208 C207 1.391 . S
C208 C209 1.399 . S
C209 C208 1.399 . S
C209 C212 1.396 . S
C209 C221 1.453 . S
C209 C222 1.684 . S
H210 C234 0.948 . S
C211 C207 1.397 . S
C211 C212 1.394 . S
C211 C230 1.723 . S
C212 C209 1.396 . S
C212 C211 1.394 . S
C212 C242 1.723 . S
H213 C236 0.947 . S
H214 C237 0.948 . S
H215 C243 0.982 . S
H216 C244 0.979 . S
H217 C244 0.980 . S
H218 C244 0.983 . S
H219 C243 0.979 . S
H220 C243 0.977 . S
C221 C209 1.453 . S
C221 H250 0.982 . S
C221 H251 0.979 . S
C221 H252 0.977 . S
C222 C209 1.684 . S
C222 H247 0.979 . S
C222 H248 0.980 . S
C222 H249 0.983 . S
C223 C224 1.391 . S
C223 C228 1.391 . S
C223 H253 0.948 . S
C224 C223 1.391 . S
C224 C225 1.391 . S
C225 C224 1.391 . S
C225 C226 1.392 . S
C225 H254 0.947 . S
C226 C225 1.392 . S
C226 C227 1.419 . S
C226 H255 0.948 . S
C227 C226 1.419 . S
C227 C228 1.391 . S
C227 C231 1.397 . S
C228 C223 1.391 . S
C228 C227 1.391 . S
C228 C229 1.399 . S
C229 C228 1.399 . S
C229 C230 1.396 . S
C229 C232 1.453 . S
C229 C233 1.684 . S
C230 C211 1.723 . S
C230 C229 1.396 . S
C230 C231 1.394 . S
C231 C227 1.397 . S
C231 C230 1.394 . S
C231 C241 1.723 . S
C232 C229 1.453 . S
C232 H256 0.982 . S
C232 H257 0.979 . S
C232 H258 0.977 . S
C233 C229 1.684 . S
C233 H259 0.979 . S
C233 H260 0.980 . S
C233 H261 0.983 . S
C234 H210 0.948 . S
C234 C235 1.391 . S
C234 C239 1.391 . S
C235 C234 1.391 . S
C235 C236 1.391 . S
C236 H213 0.947 . S
C236 C235 1.391 . S
C236 C237 1.392 . S
C237 H214 0.948 . S
C237 C236 1.392 . S
C237 C238 1.419 . S
C238 C237 1.419 . S
C238 C239 1.391 . S
C238 C242 1.397 . S
C239 C234 1.391 . S
C239 C238 1.391 . S
C239 C240 1.399 . S
C240 C239 1.399 . S
C240 C241 1.396 . S
C240 C243 1.453 . S
C240 C244 1.684 . S
C241 C231 1.723 . S
C241 C240 1.396 . S
C241 C242 1.394 . S
C242 C212 1.723 . S
C242 C238 1.397 . S
C242 C241 1.394 . S
C243 H215 0.982 . S
C243 H219 0.979 . S
C243 H220 0.977 . S
C243 C240 1.453 . S
C244 H216 0.979 . S
C244 H217 0.980 . S
C244 H218 0.983 . S
C244 C240 1.684 . S
H245 C263 0.948 . S
H246 C204 0.948 . S
H247 C222 0.979 . S
H248 C222 0.980 . S
H249 C222 0.983 . S
H250 C221 0.982 . S
H251 C221 0.979 . S
H252 C221 0.977 . S
H253 C223 0.948 . S
H254 C225 0.947 . S
H255 C226 0.948 . S
H256 C232 0.982 . S
H257 C232 0.979 . S
H258 C232 0.977 . S
H259 C233 0.979 . S
H260 C233 0.980 . S
H261 C233 0.983 . S
H262 C206 0.947 . S
C263 C206 1.392 . S
C263 C207 1.419 . S
C263 H245 0.948 . S
C264 C265 1.391 . S
C264 C268 1.391 . S
C264 H306 0.948 . S
C265 C264 1.391 . S
C265 C266 1.391 . S
C266 C265 1.391 . S
C266 H322 0.947 . S
C266 C323 1.392 . S
C267 C268 1.391 . S
C267 C271 1.397 . S
C267 C323 1.419 . S
C268 C264 1.391 . S
C268 C267 1.391 . S
C268 C269 1.399 . S
C269 C268 1.399 . S
C269 C272 1.396 . S
C269 C281 1.453 . S
C269 C282 1.684 . S
H270 C294 0.948 . S
C271 C267 1.397 . S
C271 C272 1.394 . S
C271 C290 1.723 . S
C272 C269 1.396 . S
C272 C271 1.394 . S
C272 C302 1.723 . S
H273 C296 0.947 . S
H274 C297 0.948 . S
H275 C303 0.982 . S
H276 C304 0.979 . S
H277 C304 0.980 . S
H278 C304 0.983 . S
H279 C303 0.979 . S
H280 C303 0.977 . S
C281 C269 1.453 . S
C281 H310 0.982 . S
C281 H311 0.979 . S
C281 H312 0.977 . S
C282 C269 1.684 . S
C282 H307 0.979 . S
C282 H308 0.980 . S
C282 H309 0.983 . S
C283 C284 1.391 . S
C283 C288 1.391 . S
C283 H313 0.948 . S
C284 C283 1.391 . S
C284 C285 1.391 . S
C285 C284 1.391 . S
C285 C286 1.392 . S
C285 H314 0.947 . S
C286 C285 1.392 . S
C286 C287 1.419 . S
C286 H315 0.948 . S
C287 C286 1.419 . S
C287 C288 1.391 . S
C287 C291 1.397 . S
C288 C283 1.391 . S
C288 C287 1.391 . S
C288 C289 1.399 . S
C289 C288 1.399 . S
C289 C290 1.396 . S
C289 C292 1.453 . S
C289 C293 1.684 . S
C290 C271 1.723 . S
C290 C289 1.396 . S
C290 C291 1.394 . S
C291 C287 1.397 . S
C291 C290 1.394 . S
C291 C301 1.723 . S
C292 C289 1.453 . S
C292 H316 0.982 . S
C292 H317 0.979 . S
C292 H318 0.977 . S
C293 C289 1.684 . S
C293 H319 0.979 . S
C293 H320 0.980 . S
C293 H321 0.983 . S
C294 H270 0.948 . S
C294 C295 1.391 . S
C294 C299 1.391 . S
C295 C294 1.391 . S
C295 C296 1.391 . S
C296 H273 0.947 . S
C296 C295 1.391 . S
C296 C297 1.392 . S
C297 H274 0.948 . S
C297 C296 1.392 . S
C297 C298 1.419 . S
C298 C297 1.419 . S
C298 C299 1.391 . S
C298 C302 1.397 . S
C299 C294 1.391 . S
C299 C298 1.391 . S
C299 C300 1.399 . S
C300 C299 1.399 . S
C300 C301 1.396 . S
C300 C303 1.453 . S
C300 C304 1.684 . S
C301 C291 1.723 . S
C301 C300 1.396 . S
C301 C302 1.394 . S
C302 C272 1.723 . S
C302 C298 1.397 . S
C302 C301 1.394 . S
C303 H275 0.982 . S
C303 H279 0.979 . S
C303 H280 0.977 . S
C303 C300 1.453 . S
C304 H276 0.979 . S
C304 H277 0.980 . S
C304 H278 0.983 . S
C304 C300 1.684 . S
H305 C323 0.948 . S
H306 C264 0.948 . S
H307 C282 0.979 . S
H308 C282 0.980 . S
H309 C282 0.983 . S
H310 C281 0.982 . S
H311 C281 0.979 . S
H312 C281 0.977 . S
H313 C283 0.948 . S
H314 C285 0.947 . S
H315 C286 0.948 . S
H316 C292 0.982 . S
H317 C292 0.979 . S
H318 C292 0.977 . S
H319 C293 0.979 . S
H320 C293 0.980 . S
H321 C293 0.983 . S
H322 C266 0.947 . S
C323 C266 1.392 . S
C323 C267 1.419 . S
C323 H305 0.948 . S
C324 C325 1.391 . S
C324 C328 1.391 . S
C324 H366 0.948 . S
C325 C324 1.391 . S
C325 C326 1.391 . S
C326 C325 1.391 . S
C326 H382 0.947 . S
C326 C383 1.392 . S
C327 C328 1.391 . S
C327 C331 1.397 . S
C327 C383 1.419 . S
C328 C324 1.391 . S
C328 C327 1.391 . S
C328 C329 1.399 . S
C329 C328 1.399 . S
C329 C332 1.396 . S
C329 C341 1.453 . S
C329 C342 1.684 . S
H330 C354 0.948 . S
C331 C327 1.397 . S
C331 C332 1.394 . S
C331 C350 1.723 . S
C332 C329 1.396 . S
C332 C331 1.394 . S
C332 C362 1.723 . S
H333 C356 0.947 . S
H334 C357 0.948 . S
H335 C363 0.982 . S
H336 C364 0.979 . S
H337 C364 0.980 . S
H338 C364 0.983 . S
H339 C363 0.979 . S
H340 C363 0.977 . S
C341 C329 1.453 . S
C341 H370 0.982 . S
C341 H371 0.979 . S
C341 H372 0.977 . S
C342 C329 1.684 . S
C342 H367 0.979 . S
C342 H368 0.980 . S
C342 H369 0.983 . S
C343 C344 1.391 . S
C343 C348 1.391 . S
C343 H373 0.948 . S
C344 C343 1.391 . S
C344 C345 1.391 . S
C345 C344 1.391 . S
C345 C346 1.392 . S
C345 H374 0.947 . S
C346 C345 1.392 . S
C346 C347 1.419 . S
C346 H375 0.948 . S
C347 C346 1.419 . S
C347 C348 1.391 . S
C347 C351 1.397 . S
C348 C343 1.391 . S
C348 C347 1.391 . S
C348 C349 1.399 . S
C349 C348 1.399 . S
C349 C350 1.396 . S
C349 C352 1.453 . S
C349 C353 1.684 . S
C350 C331 1.723 . S
C350 C349 1.396 . S
C350 C351 1.394 . S
C351 C347 1.397 . S
C351 C350 1.394 . S
C351 C361 1.723 . S
C352 C349 1.453 . S
C352 H376 0.982 . S
C352 H377 0.979 . S
C352 H378 0.977 . S
C353 C349 1.684 . S
C353 H379 0.979 . S
C353 H380 0.980 . S
C353 H381 0.983 . S
C354 H330 0.948 . S
C354 C355 1.391 . S
C354 C359 1.391 . S
C355 C354 1.391 . S
C355 C356 1.391 . S
C356 H333 0.947 . S
C356 C355 1.391 . S
C356 C357 1.392 . S
C357 H334 0.948 . S
C357 C356 1.392 . S
C357 C358 1.419 . S
C358 C357 1.419 . S
C358 C359 1.391 . S
C358 C362 1.397 . S
C359 C354 1.391 . S
C359 C358 1.391 . S
C359 C360 1.399 . S
C360 C359 1.399 . S
C360 C361 1.396 . S
C360 C363 1.453 . S
C360 C364 1.684 . S
C361 C351 1.723 . S
C361 C360 1.396 . S
C361 C362 1.394 . S
C362 C332 1.723 . S
C362 C358 1.397 . S
C362 C361 1.394 . S
C363 H335 0.982 . S
C363 H339 0.979 . S
C363 H340 0.977 . S
C363 C360 1.453 . S
C364 H336 0.979 . S
C364 H337 0.980 . S
C364 H338 0.983 . S
C364 C360 1.684 . S
H365 C383 0.948 . S
H366 C324 0.948 . S
H367 C342 0.979 . S
H368 C342 0.980 . S
H369 C342 0.983 . S
H370 C341 0.982 . S
H371 C341 0.979 . S
H372 C341 0.977 . S
H373 C343 0.948 . S
H374 C345 0.947 . S
H375 C346 0.948 . S
H376 C352 0.982 . S
H377 C352 0.979 . S
H378 C352 0.977 . S
H379 C353 0.979 . S
H380 C353 0.980 . S
H381 C353 0.983 . S
H382 C326 0.947 . S
C383 C326 1.392 . S
C383 C327 1.419 . S
C383 H365 0.948 . S
C384 C385 1.391 . S
C384 C388 1.391 . S
C384 H426 0.948 . S
C385 C384 1.391 . S
C385 C386 1.391 . S
C386 C385 1.391 . S
C386 H442 0.947 . S
C386 C443 1.392 . S
C387 C388 1.391 . S
C387 C391 1.397 . S
C387 C443 1.419 . S
C388 C384 1.391 . S
C388 C387 1.391 . S
C388 C389 1.399 . S
C389 C388 1.399 . S
C389 C392 1.396 . S
C389 C401 1.453 . S
C389 C402 1.684 . S
H390 C414 0.948 . S
C391 C387 1.397 . S
C391 C392 1.394 . S
C391 C410 1.723 . S
C392 C389 1.396 . S
C392 C391 1.394 . S
C392 C422 1.723 . S
H393 C416 0.947 . S
H394 C417 0.948 . S
H395 C423 0.982 . S
H396 C424 0.979 . S
H397 C424 0.980 . S
H398 C424 0.983 . S
H399 C423 0.979 . S
H400 C423 0.977 . S
C401 C389 1.453 . S
C401 H430 0.982 . S
C401 H431 0.979 . S
C401 H432 0.977 . S
C402 C389 1.684 . S
C402 H427 0.979 . S
C402 H428 0.980 . S
C402 H429 0.983 . S
C403 C404 1.391 . S
C403 C408 1.391 . S
C403 H433 0.948 . S
C404 C403 1.391 . S
C404 C405 1.391 . S
C405 C404 1.391 . S
C405 C406 1.392 . S
C405 H434 0.947 . S
C406 C405 1.392 . S
C406 C407 1.419 . S
C406 H435 0.948 . S
C407 C406 1.419 . S
C407 C408 1.391 . S
C407 C411 1.397 . S
C408 C403 1.391 . S
C408 C407 1.391 . S
C408 C409 1.399 . S
C409 C408 1.399 . S
C409 C410 1.396 . S
C409 C412 1.453 . S
C409 C413 1.684 . S
C410 C391 1.723 . S
C410 C409 1.396 . S
C410 C411 1.394 . S
C411 C407 1.397 . S
C411 C410 1.394 . S
C411 C421 1.723 . S
C412 C409 1.453 . S
C412 H436 0.982 . S
C412 H437 0.979 . S
C412 H438 0.977 . S
C413 C409 1.684 . S
C413 H439 0.979 . S
C413 H440 0.980 . S
C413 H441 0.983 . S
C414 H390 0.948 . S
C414 C415 1.391 . S
C414 C419 1.391 . S
C415 C414 1.391 . S
C415 C416 1.391 . S
C416 H393 0.947 . S
C416 C415 1.391 . S
C416 C417 1.392 . S
C417 H394 0.948 . S
C417 C416 1.392 . S
C417 C418 1.419 . S
C418 C417 1.419 . S
C418 C419 1.391 . S
C418 C422 1.397 . S
C419 C414 1.391 . S
C419 C418 1.391 . S
C419 C420 1.399 . S
C420 C419 1.399 . S
C420 C421 1.396 . S
C420 C423 1.453 . S
C420 C424 1.684 . S
C421 C411 1.723 . S
C421 C420 1.396 . S
C421 C422 1.394 . S
C422 C392 1.723 . S
C422 C418 1.397 . S
C422 C421 1.394 . S
C423 H395 0.982 . S
C423 H399 0.979 . S
C423 H400 0.977 . S
C423 C420 1.453 . S
C424 H396 0.979 . S
C424 H397 0.980 . S
C424 H398 0.983 . S
C424 C420 1.684 . S
H425 C443 0.948 . S
H426 C384 0.948 . S
H427 C402 0.979 . S
H428 C402 0.980 . S
H429 C402 0.983 . S
H430 C401 0.982 . S
H431 C401 0.979 . S
H432 C401 0.977 . S
H433 C403 0.948 . S
H434 C405 0.947 . S
H435 C406 0.948 . S
H436 C412 0.982 . S
H437 C412 0.979 . S
H438 C412 0.977 . S
H439 C413 0.979 . S
H440 C413 0.980 . S
H441 C413 0.983 . S
H442 C386 0.947 . S
C443 C386 1.392 . S
C443 C387 1.419 . S
C443 H425 0.948 . S
C444 C445 1.391 . S
C444 C448 1.391 . S
C444 H486 0.948 . S
C445 C444 1.391 . S
C445 C446 1.391 . S
C446 C445 1.391 . S
C446 H502 0.947 . S
C446 C503 1.392 . S
C447 C448 1.391 . S
C447 C451 1.397 . S
C447 C503 1.419 . S
C448 C444 1.391 . S
C448 C447 1.391 . S
C448 C449 1.399 . S
C449 C448 1.399 . S
C449 C452 1.396 . S
C449 C461 1.453 . S
C449 C462 1.684 . S
H450 C474 0.948 . S
C451 C447 1.397 . S
C451 C452 1.394 . S
C451 C470 1.723 . S
C452 C449 1.396 . S
C452 C451 1.394 . S
C452 C482 1.723 . S
H453 C476 0.947 . S
H454 C477 0.948 . S
H455 C483 0.982 . S
H456 C484 0.979 . S
H457 C484 0.980 . S
H458 C484 0.983 . S
H459 C483 0.979 . S
H460 C483 0.977 . S
C461 C449 1.453 . S
C461 H490 0.982 . S
C461 H491 0.979 . S
C461 H492 0.977 . S
C462 C449 1.684 . S
C462 H487 0.979 . S
C462 H488 0.980 . S
C462 H489 0.983 . S
C463 C464 1.391 . S
C463 C468 1.391 . S
C463 H493 0.948 . S
C464 C463 1.391 . S
C464 C465 1.391 . S
C465 C464 1.391 . S
C465 C466 1.392 . S
C465 H494 0.947 . S
C466 C465 1.392 . S
C466 C467 1.419 . S
C466 H495 0.948 . S
C467 C466 1.419 . S
C467 C468 1.391 . S
C467 C471 1.397 . S
C468 C463 1.391 . S
C468 C467 1.391 . S
C468 C469 1.399 . S
C469 C468 1.399 . S
C469 C470 1.396 . S
C469 C472 1.453 . S
C469 C473 1.684 . S
C470 C451 1.723 . S
C470 C469 1.396 . S
C470 C471 1.394 . S
C471 C467 1.397 . S
C471 C470 1.394 . S
C471 C481 1.723 . S
C472 C469 1.453 . S
C472 H496 0.982 . S
C472 H497 0.979 . S
C472 H498 0.977 . S
C473 C469 1.684 . S
C473 H499 0.979 . S
C473 H500 0.980 . S
C473 H501 0.983 . S
C474 H450 0.948 . S
C474 C475 1.391 . S
C474 C479 1.391 . S
C475 C474 1.391 . S
C475 C476 1.391 . S
C476 H453 0.947 . S
C476 C475 1.391 . S
C476 C477 1.392 . S
C477 H454 0.948 . S
C477 C476 1.392 . S
C477 C478 1.419 . S
C478 C477 1.419 . S
C478 C479 1.391 . S
C478 C482 1.397 . S
C479 C474 1.391 . S
C479 C478 1.391 . S
C479 C480 1.399 . S
C480 C479 1.399 . S
C480 C481 1.396 . S
C480 C483 1.453 . S
C480 C484 1.684 . S
C481 C471 1.723 . S
C481 C480 1.396 . S
C481 C482 1.394 . S
C482 C452 1.723 . S
C482 C478 1.397 . S
C482 C481 1.394 . S
C483 H455 0.982 . S
C483 H459 0.979 . S
C483 H460 0.977 . S
C483 C480 1.453 . S
C484 H456 0.979 . S
C484 H457 0.980 . S
C484 H458 0.983 . S
C484 C480 1.684 . S
H485 C503 0.948 . S
H486 C444 0.948 . S
H487 C462 0.979 . S
H488 C462 0.980 . S
H489 C462 0.983 . S
H490 C461 0.982 . S
H491 C461 0.979 . S
H492 C461 0.977 . S
H493 C463 0.948 . S
H494 C465 0.947 . S
H495 C466 0.948 . S
H496 C472 0.982 . S
H497 C472 0.979 . S
H498 C472 0.977 . S
H499 C473 0.979 . S
H500 C473 0.980 . S
H501 C473 0.983 . S
H502 C446 0.947 . S
C503 C446 1.392 . S
C503 C447 1.419 . S
C503 H485 0.948 . S
C504 C505 1.391 . S
C504 C508 1.391 . S
C504 H546 0.948 . S
C505 C504 1.391 . S
C505 C506 1.391 . S
C506 C505 1.391 . S
C506 H562 0.947 . S
C506 C563 1.392 . S
C507 C508 1.391 . S
C507 C511 1.397 . S
C507 C563 1.419 . S
C508 C504 1.391 . S
C508 C507 1.391 . S
C508 C509 1.399 . S
C509 C508 1.399 . S
C509 C512 1.396 . S
C509 C521 1.453 . S
C509 C522 1.684 . S
H510 C534 0.948 . S
C511 C507 1.397 . S
C511 C512 1.394 . S
C511 C530 1.723 . S
C512 C509 1.396 . S
C512 C511 1.394 . S
C512 C542 1.723 . S
H513 C536 0.947 . S
H514 C537 0.948 . S
H515 C543 0.982 . S
H516 C544 0.979 . S
H517 C544 0.980 . S
H518 C544 0.983 . S
H519 C543 0.979 . S
H520 C543 0.977 . S
C521 C509 1.453 . S
C521 H550 0.982 . S
C521 H551 0.979 . S
C521 H552 0.977 . S
C522 C509 1.684 . S
C522 H547 0.979 . S
C522 H548 0.980 . S
C522 H549 0.983 . S
C523 C524 1.391 . S
C523 C528 1.391 . S
C523 H553 0.948 . S
C524 C523 1.391 . S
C524 C525 1.391 . S
C525 C524 1.391 . S
C525 C526 1.392 . S
C525 H554 0.947 . S
C526 C525 1.392 . S
C526 C527 1.419 . S
C526 H555 0.948 . S
C527 C526 1.419 . S
C527 C528 1.391 . S
C527 C531 1.397 . S
C528 C523 1.391 . S
C528 C527 1.391 . S
C528 C529 1.399 . S
C529 C528 1.399 . S
C529 C530 1.396 . S
C529 C532 1.453 . S
C529 C533 1.684 . S
C530 C511 1.723 . S
C530 C529 1.396 . S
C530 C531 1.394 . S
C531 C527 1.397 . S
C531 C530 1.394 . S
C531 C541 1.723 . S
C532 C529 1.453 . S
C532 H556 0.982 . S
C532 H557 0.979 . S
C532 H558 0.977 . S
C533 C529 1.684 . S
C533 H559 0.979 . S
C533 H560 0.980 . S
C533 H561 0.983 . S
C534 H510 0.948 . S
C534 C535 1.391 . S
C534 C539 1.391 . S
C535 C534 1.391 . S
C535 C536 1.391 . S
C536 H513 0.947 . S
C536 C535 1.391 . S
C536 C537 1.392 . S
C537 H514 0.948 . S
C537 C536 1.392 . S
C537 C538 1.419 . S
C538 C537 1.419 . S
C538 C539 1.391 . S
C538 C542 1.397 . S
C539 C534 1.391 . S
C539 C538 1.391 . S
C539 C540 1.399 . S
C540 C539 1.399 . S
C540 C541 1.396 . S
C540 C543 1.453 . S
C540 C544 1.684 . S
C541 C531 1.723 . S
C541 C540 1.396 . S
C541 C542 1.394 . S
C542 C512 1.723 . S
C542 C538 1.397 . S
C542 C541 1.394 . S
C543 H515 0.982 . S
C543 H519 0.979 . S
C543 H520 0.977 . S
C543 C540 1.453 . S
C544 H516 0.979 . S
C544 H517 0.980 . S
C544 H518 0.983 . S
C544 C540 1.684 . S
H545 C563 0.948 . S
H546 C504 0.948 . S
H547 C522 0.979 . S
H548 C522 0.980 . S
H549 C522 0.983 . S
H550 C521 0.982 . S
H551 C521 0.979 . S
H552 C521 0.977 . S
H553 C523 0.948 . S
H554 C525 0.947 . S
H555 C526 0.948 . S
H556 C532 0.982 . S
H557 C532 0.979 . S
H558 C532 0.977 . S
H559 C533 0.979 . S
H560 C533 0.980 . S
H561 C533 0.983 . S
H562 C506 0.947 . S
C563 C506 1.392 . S
C563 C507 1.419 . S
C563 H545 0.948 . S
C564 C565 1.170 . S
C564 C566 1.380 . S
C565 C564 1.170 . S
C566 C564 1.380 . S
C566 C567 1.170 . S
C567 C566 1.170 . S
C568 C569 1.170 . S
C568 C570 1.380 . S
C569 C568 1.170 . S
C570 C568 1.380 . S
C570 C571 1.170 . S
C571 C570 1.170 . S
C572 C573 1.170 . S
C572 C574 1.380 . S
C573 C572 1.170 . S
C574 C572 1.380 . S
C574 C575 1.170 . S
C575 C574 1.170 . S
C576 C577 1.170 . S
C576 C578 1.380 . S
C577 C576 1.170 . S
C578 C576 1.380 . S
C578 C579 1.170 . S
C579 C578 1.170 . S
C580 C581 1.170 . S
C580 C582 1.380 . S
C581 C580 1.170 . S
C582 C580 1.380 . S
C582 C583 1.170 . S
C583 C582 1.170 . S
C584 C585 1.170 . S
C584 C586 1.380 . S
C585 C584 1.170 . S
C586 C584 1.380 . S
C586 C587 1.170 . S
C587 C586 1.170 . S
C588 C589 1.170 . S
C588 C590 1.380 . S
C589 C588 1.170 . S
C590 C588 1.380 . S
C590 C591 1.170 . S
C591 C590 1.170 . S
C592 C593 1.170 . S
C592 C594 1.380 . S
C593 C592 1.170 . S
C594 C592 1.380 . S
C594 C595 1.170 . S
C595 C594 1.170 . S
C596 C597 1.170 . S
C596 C598 1.380 . S
C597 C596 1.170 . S
C598 C596 1.380 . S
C598 C599 1.170 1_545 S
C599 C598 1.170 1_565 S
C600 C601 1.170 . S
C600 C602 1.380 . S
C601 C600 1.170 . S
C602 C600 1.380 . S
C602 C603 1.170 . S
C603 C602 1.170 . S
C604 C605 1.170 . S
C604 C606 1.380 . S
C605 C604 1.170 . S
C606 C604 1.380 . S
C606 C607 1.170 1_565 S
C607 C606 1.170 1_545 S
C608 C609 1.170 . S
C608 C610 1.380 . S
C609 C608 1.170 . S
C610 C608 1.380 . S
C610 C611 1.170 . S
C611 C610 1.170 . S
C612 C613 1.170 . S
C612 C614 1.380 . S
C613 C612 1.170 . S
C614 C612 1.380 . S
C614 C615 1.170 . S
C615 C614 1.170 . S
C616 C617 1.170 . S
C616 C618 1.380 . S
C617 C616 1.170 . S
C618 C616 1.380 . S
C618 C619 1.170 1_455 S
C619 C618 1.170 1_655 S
C620 C621 1.170 . S
C620 C622 1.380 . S
C621 C620 1.170 . S
C622 C620 1.380 . S
C622 C623 1.170 . S
C623 C622 1.170 . S
C624 C625 1.170 . S
C624 C626 1.380 . S
C625 C624 1.170 . S
C626 C624 1.380 . S
C626 C627 1.170 1_655 S
C627 C626 1.170 1_455 S
C628 C629 1.170 . S
C628 C630 1.380 . S
C629 C628 1.170 . S
C630 C628 1.380 . S
C630 C631 1.170 . S
C631 C630 1.170 . S
C632 C633 1.170 . S
C632 C634 1.380 . S
C633 C632 1.170 . S
C634 C632 1.380 . S
C634 C635 1.170 . S
C635 C634 1.170 . S
C636 C637 1.170 . S
C636 C638 1.380 . S
C637 C636 1.170 . S
C638 C636 1.380 . S
C638 C639 1.170 . S
C639 C638 1.170 . S
C640 C641 1.170 . S
C640 C642 1.380 . S
C641 C640 1.170 . S
C642 C640 1.380 . S
C642 C643 1.170 . S
C643 C642 1.170 . S
C644 C645 1.170 . S
C644 C646 1.380 . S
C645 C644 1.170 . S
C646 C644 1.380 . S
C646 C647 1.170 . S
C647 C646 1.170 . S
C648 C649 1.170 . S
C648 C650 1.380 . S
C649 C648 1.170 . S
C650 C648 1.380 . S
C650 C651 1.170 . S
C651 C650 1.170 . S
C652 C653 1.170 . S
C652 C654 1.380 . S
C653 C652 1.170 . S
C654 C652 1.380 . S
C654 C655 1.170 . S
C655 C654 1.170 . S
C656 C657 1.170 . S
C656 C658 1.380 . S
C657 C656 1.170 . S
C658 C656 1.380 . S
C658 C659 1.170 . S
C659 C658 1.170 . S
C565 C7 1.023 . S
C567 C85 0.909 1_565 S
C569 C25 0.980 . S
C571 C164 1.020 . S
C573 C46 1.041 . S
C575 C235 1.050 1_545 S
C579 C295 1.019 . S
C577 C70 1.002 . S
C583 C325 0.957 . S
C581 C28 1.041 . S
C585 C49 1.001 . S
C587 C415 1.020 1_655 S
C589 C67 1.041 . S
C591 C475 1.051 . S
C593 C4 0.968 . S
C595 C524 1.059 1_455 S
C597 C58 1.724 . S
C599 C505 1.654 . S
C603 C344 1.775 . S
C601 C66 1.703 . S
C607 C404 1.655 . S
C605 C3 1.727 . S
C609 C37 1.717 . S
C611 C464 1.669 . S
C615 C145 1.651 . S
C613 C79 1.728 . S
C617 C16 1.691 . S
C619 C224 1.688 . S
C623 C284 1.693 . S
C621 C24 1.688 . S
C627 C104 1.796 . S
C625 C45 1.694 . S
C631 C445 1.172 . S
C629 C19 1.053 . S
C635 C535 1.198 . S
C633 C41 1.098 . S
C637 C62 1.084 . S
C639 C355 1.191 . S
C643 C385 1.165 . S
C641 C82 1.022 . S
C647 C205 1.166 . S
C645 C40 1.030 . S
C649 C61 1.024 . S
C651 C265 1.167 . S
C655 C115 1.193 . S
C653 C83 1.050 . S
C659 C175 1.190 . S
C657 C20 1.091 . S
