# Generated by pormake.
# Topology ctn, (3,4)-cn, num edge types: 1
# Building blocks:
#     Node 0, Type 0, BuildingBlock: CUQRIR_clean_linker_1, # of connection points: 3
#     Node 1, Type 0, BuildingBlock: CUQRIR_clean_linker_1, # of connection points: 3
#     Node 2, Type 0, BuildingBlock: CUQRIR_clean_linker_1, # of connection points: 3
#     Node 3, Type 0, BuildingBlock: CUQRIR_clean_linker_1, # of connection points: 3
#     Node 4, Type 0, BuildingBlock: CUQRIR_clean_linker_1, # of connection points: 3
#     Node 5, Type 0, BuildingBlock: CUQRIR_clean_linker_1, # of connection points: 3
#     Node 6, Type 0, BuildingBlock: CUQRIR_clean_linker_1, # of connection points: 3
#     Node 7, Type 0, BuildingBlock: CUQRIR_clean_linker_1, # of connection points: 3
#     Node 8, Type 0, BuildingBlock: CUQRIR_clean_linker_1, # of connection points: 3
#     Node 9, Type 0, BuildingBlock: CUQRIR_clean_linker_1, # of connection points: 3
#     Node 10, Type 0, BuildingBlock: CUQRIR_clean_linker_1, # of connection points: 3
#     Node 11, Type 0, BuildingBlock: CUQRIR_clean_linker_1, # of connection points: 3
#     Node 12, Type 0, BuildingBlock: CUQRIR_clean_linker_1, # of connection points: 3
#     Node 13, Type 0, BuildingBlock: CUQRIR_clean_linker_1, # of connection points: 3
#     Node 14, Type 0, BuildingBlock: CUQRIR_clean_linker_1, # of connection points: 3
#     Node 15, Type 0, BuildingBlock: CUQRIR_clean_linker_1, # of connection points: 3
#     Node 16, Type 1, BuildingBlock: TATPOV_clean_sbu_0, # of connection points: 4
#     Node 17, Type 1, BuildingBlock: TATPOV_clean_sbu_0, # of connection points: 4
#     Node 18, Type 1, BuildingBlock: TATPOV_clean_sbu_0, # of connection points: 4
#     Node 19, Type 1, BuildingBlock: TATPOV_clean_sbu_0, # of connection points: 4
#     Node 20, Type 1, BuildingBlock: TATPOV_clean_sbu_0, # of connection points: 4
#     Node 21, Type 1, BuildingBlock: TATPOV_clean_sbu_0, # of connection points: 4
#     Node 22, Type 1, BuildingBlock: TATPOV_clean_sbu_0, # of connection points: 4
#     Node 23, Type 1, BuildingBlock: TATPOV_clean_sbu_0, # of connection points: 4
#     Node 24, Type 1, BuildingBlock: TATPOV_clean_sbu_0, # of connection points: 4
#     Node 25, Type 1, BuildingBlock: TATPOV_clean_sbu_0, # of connection points: 4
#     Node 26, Type 1, BuildingBlock: TATPOV_clean_sbu_0, # of connection points: 4
#     Node 27, Type 1, BuildingBlock: TATPOV_clean_sbu_0, # of connection points: 4
#     Edge 28, Type (0, 1), BuildingBlock: CIFDUS_clean_linker_0, # of connection points: 2
#     Edge 29, Type (0, 1), BuildingBlock: CIFDUS_clean_linker_0, # of connection points: 2
#     Edge 30, Type (0, 1), BuildingBlock: CIFDUS_clean_linker_0, # of connection points: 2
#     Edge 31, Type (0, 1), BuildingBlock: CIFDUS_clean_linker_0, # of connection points: 2
#     Edge 32, Type (0, 1), BuildingBlock: CIFDUS_clean_linker_0, # of connection points: 2
#     Edge 33, Type (0, 1), BuildingBlock: CIFDUS_clean_linker_0, # of connection points: 2
#     Edge 34, Type (0, 1), BuildingBlock: CIFDUS_clean_linker_0, # of connection points: 2
#     Edge 35, Type (0, 1), BuildingBlock: CIFDUS_clean_linker_0, # of connection points: 2
#     Edge 36, Type (0, 1), BuildingBlock: CIFDUS_clean_linker_0, # of connection points: 2
#     Edge 37, Type (0, 1), BuildingBlock: CIFDUS_clean_linker_0, # of connection points: 2
#     Edge 38, Type (0, 1), BuildingBlock: CIFDUS_clean_linker_0, # of connection points: 2
#     Edge 39, Type (0, 1), BuildingBlock: CIFDUS_clean_linker_0, # of connection points: 2
#     Edge 40, Type (0, 1), BuildingBlock: CIFDUS_clean_linker_0, # of connection points: 2
#     Edge 41, Type (0, 1), BuildingBlock: CIFDUS_clean_linker_0, # of connection points: 2
#     Edge 42, Type (0, 1), BuildingBlock: CIFDUS_clean_linker_0, # of connection points: 2
#     Edge 43, Type (0, 1), BuildingBlock: CIFDUS_clean_linker_0, # of connection points: 2
#     Edge 44, Type (0, 1), BuildingBlock: CIFDUS_clean_linker_0, # of connection points: 2
#     Edge 45, Type (0, 1), BuildingBlock: CIFDUS_clean_linker_0, # of connection points: 2
#     Edge 46, Type (0, 1), BuildingBlock: CIFDUS_clean_linker_0, # of connection points: 2
#     Edge 47, Type (0, 1), BuildingBlock: CIFDUS_clean_linker_0, # of connection points: 2
#     Edge 48, Type (0, 1), BuildingBlock: CIFDUS_clean_linker_0, # of connection points: 2
#     Edge 49, Type (0, 1), BuildingBlock: CIFDUS_clean_linker_0, # of connection points: 2
#     Edge 50, Type (0, 1), BuildingBlock: CIFDUS_clean_linker_0, # of connection points: 2
#     Edge 51, Type (0, 1), BuildingBlock: CIFDUS_clean_linker_0, # of connection points: 2
#     Edge 52, Type (0, 1), BuildingBlock: CIFDUS_clean_linker_0, # of connection points: 2
#     Edge 53, Type (0, 1), BuildingBlock: CIFDUS_clean_linker_0, # of connection points: 2
#     Edge 54, Type (0, 1), BuildingBlock: CIFDUS_clean_linker_0, # of connection points: 2
#     Edge 55, Type (0, 1), BuildingBlock: CIFDUS_clean_linker_0, # of connection points: 2
#     Edge 56, Type (0, 1), BuildingBlock: CIFDUS_clean_linker_0, # of connection points: 2
#     Edge 57, Type (0, 1), BuildingBlock: CIFDUS_clean_linker_0, # of connection points: 2
#     Edge 58, Type (0, 1), BuildingBlock: CIFDUS_clean_linker_0, # of connection points: 2
#     Edge 59, Type (0, 1), BuildingBlock: CIFDUS_clean_linker_0, # of connection points: 2
#     Edge 60, Type (0, 1), BuildingBlock: CIFDUS_clean_linker_0, # of connection points: 2
#     Edge 61, Type (0, 1), BuildingBlock: CIFDUS_clean_linker_0, # of connection points: 2
#     Edge 62, Type (0, 1), BuildingBlock: CIFDUS_clean_linker_0, # of connection points: 2
#     Edge 63, Type (0, 1), BuildingBlock: CIFDUS_clean_linker_0, # of connection points: 2
#     Edge 64, Type (0, 1), BuildingBlock: CIFDUS_clean_linker_0, # of connection points: 2
#     Edge 65, Type (0, 1), BuildingBlock: CIFDUS_clean_linker_0, # of connection points: 2
#     Edge 66, Type (0, 1), BuildingBlock: CIFDUS_clean_linker_0, # of connection points: 2
#     Edge 67, Type (0, 1), BuildingBlock: CIFDUS_clean_linker_0, # of connection points: 2
#     Edge 68, Type (0, 1), BuildingBlock: CIFDUS_clean_linker_0, # of connection points: 2
#     Edge 69, Type (0, 1), BuildingBlock: CIFDUS_clean_linker_0, # of connection points: 2
#     Edge 70, Type (0, 1), BuildingBlock: CIFDUS_clean_linker_0, # of connection points: 2
#     Edge 71, Type (0, 1), BuildingBlock: CIFDUS_clean_linker_0, # of connection points: 2
#     Edge 72, Type (0, 1), BuildingBlock: CIFDUS_clean_linker_0, # of connection points: 2
#     Edge 73, Type (0, 1), BuildingBlock: CIFDUS_clean_linker_0, # of connection points: 2
#     Edge 74, Type (0, 1), BuildingBlock: CIFDUS_clean_linker_0, # of connection points: 2
#     Edge 75, Type (0, 1), BuildingBlock: CIFDUS_clean_linker_0, # of connection points: 2
# Relax obj value: 0.085
# Max RMSD: 0.208
# Mean RMSD: 0.129
data_MOF--net-ctn--node1-TATPOV_clean_sbu_0--node2-CUQRIR_clean_linker_1--edge1-CIFDUS_clean_linker_0
_symmetry_space_group_name_H-M    P1
_symmetry_Int_Tables_number       1
_symmetry_cell_setting            triclinic
loop_
_symmetry_equiv_pos_as_xyz
'x, y, z'
_cell_length_a     44.651919
_cell_length_b     41.39912
_cell_length_c     42.564364
_cell_angle_alpha  97.940024
_cell_angle_beta   90.000908
_cell_angle_gamma 94.098086
loop_
_atom_site_label
_atom_site_type_symbol
_atom_site_fract_x
_atom_site_fract_y
_atom_site_fract_z
_atom_type_partial_charge
C0 C 0.04003 0.99771 0.08013 0.0
N1 N 0.05466 0.0082 0.05497 0.0
N2 N 0.01477 0.0136 0.08644 0.0
C3 C 0.05042 0.97211 0.09876 0.0
C4 C 0.01422 0.03376 0.06408 0.0
N5 N 0.03816 0.03027 0.0447 0.0
C6 C 0.99081 0.05778 0.0618 0.0
H7 H 0.06179 0.95314 0.0831 0.0
H8 H 0.03153 0.96011 0.11068 0.0
H9 H 0.06659 0.98394 0.11736 0.0
H10 H 1.00036 0.08264 0.07146 0.0
H11 H 0.9704 0.05181 0.07533 0.0
H12 H 0.98441 0.05812 0.03668 0.0
C13 C 0.26014 0.72703 0.24926 0.0
N14 N 0.27304 0.71507 0.27367 0.0
N15 N 0.27596 0.75428 0.24249 0.0
C16 C 0.23059 0.71384 0.23379 0.0
C17 C 0.29883 0.75875 0.26393 0.0
N18 N 0.29689 0.73513 0.28316 0.0
C19 C 0.32427 0.78472 0.26456 0.0
H20 H 0.23463 0.69423 0.21404 0.0
H21 H 0.21927 0.73333 0.22399 0.0
H22 H 0.21545 0.70333 0.25104 0.0
H23 H 0.31814 0.80695 0.28017 0.0
H24 H 0.32859 0.79124 0.24047 0.0
H25 H 0.34514 0.77648 0.27403 0.0
C26 C 0.9839 0.49994 0.07863 0.0
N27 N 0.99926 0.47368 0.08279 0.0
N28 N 0.96353 0.49199 0.05473 0.0
C29 C 0.98963 0.53358 0.09698 0.0
C30 C 0.96678 0.45991 0.04491 0.0
N31 N 0.98826 0.44863 0.06212 0.0
C32 C 0.95051 0.4401 0.01688 0.0
H33 H 0.99516 0.53199 0.12211 0.0
H34 H 0.97006 0.54841 0.09611 0.0
H35 H 0.00904 0.54634 0.08647 0.0
H36 H 0.96583 0.43785 0.99629 0.0
H37 H 0.93011 0.45163 0.01048 0.0
H38 H 0.94382 0.41511 0.02213 0.0
C39 C 0.69615 0.7387 0.20999 0.0
N40 N 0.72208 0.75557 0.20355 0.0
N41 N 0.68497 0.75164 0.23809 0.0
C42 C 0.68231 0.70874 0.1897 0.0
C43 C 0.70476 0.77713 0.24847 0.0
N44 N 0.72767 0.77926 0.22775 0.0
C45 C 0.69985 0.80194 0.27709 0.0
H46 H 0.66811 0.71641 0.17105 0.0
H47 H 0.66793 0.6935 0.20404 0.0
H48 H 0.69995 0.69391 0.17795 0.0
H49 H 0.71203 0.79528 0.29771 0.0
H50 H 0.6757 0.8025 0.28308 0.0
H51 H 0.70847 0.82679 0.27299 0.0
C52 C 0.042 0.98195 0.46239 0.0
N53 N 0.06662 0.98685 0.48147 0.0
N54 N 0.04513 0.99958 0.43799 0.0
C55 C 0.01434 0.96067 0.46819 0.0
C56 C 0.07254 0.01563 0.44289 0.0
N57 N 0.08553 0.00819 0.46955 0.0
C58 C 0.08624 0.03947 0.42238 0.0
H59 H 1.0022 0.95146 0.44561 0.0
H60 H 0.99913 0.97533 0.48405 0.0
H61 H 0.02028 0.93966 0.47995 0.0
H62 H 0.08443 0.0647 0.43462 0.0
H63 H 0.07473 0.0371 0.39902 0.0
H64 H 0.11043 0.03573 0.41877 0.0
C65 C 0.19063 0.7476 0.7865 0.0
N66 N 0.21341 0.73393 0.79962 0.0
N67 N 0.18325 0.73119 0.75757 0.0
C68 C 0.17745 0.77895 0.80028 0.0
C69 C 0.20272 0.70747 0.75302 0.0
N70 N 0.22134 0.7093 0.77846 0.0
C71 C 0.20202 0.68111 0.72485 0.0
H72 H 0.15804 0.77321 0.81533 0.0
H73 H 0.16932 0.79197 0.78119 0.0
H74 H 0.19427 0.79542 0.815 0.0
H75 H 0.21836 0.6886 0.70711 0.0
H76 H 0.17941 0.67727 0.71358 0.0
H77 H 0.20848 0.65771 0.7319 0.0
C78 C 0.92331 0.55046 0.43979 0.0
N79 N 0.94416 0.57594 0.44091 0.0
N80 N 0.89698 0.56035 0.45197 0.0
C81 C 0.92896 0.51539 0.42838 0.0
C82 C 0.9025 0.59298 0.46031 0.0
N83 N 0.93109 0.60255 0.45322 0.0
C84 C 0.88166 0.61458 0.47972 0.0
H85 H 0.90776 0.5012 0.41998 0.0
H86 H 0.93809 0.50429 0.4483 0.0
H87 H 0.94558 0.51386 0.40893 0.0
H88 H 0.89186 0.62292 0.5035 0.0
H89 H 0.85937 0.60175 0.4825 0.0
H90 H 0.8787 0.63662 0.46821 0.0
C91 C 0.81658 0.84172 0.84974 0.0
N92 N 0.83857 0.82238 0.83864 0.0
N93 N 0.81301 0.86507 0.831 0.0
C94 C 0.79696 0.83616 0.87753 0.0
C95 C 0.83351 0.85915 0.80791 0.0
N96 N 0.84885 0.83293 0.81224 0.0
C97 C 0.83704 0.87761 0.77985 0.0
H98 H 0.78342 0.8573 0.88497 0.0
H99 H 0.81091 0.83192 0.89791 0.0
H100 H 0.78168 0.81394 0.87084 0.0
H101 H 0.86034 0.87737 0.77079 0.0
H102 H 0.83146 0.90332 0.78604 0.0
H103 H 0.82149 0.8658 0.76063 0.0
C104 C 0.31494 0.34915 0.35938 0.0
N105 N 0.33702 0.32986 0.3484 0.0
N106 N 0.30978 0.37083 0.33929 0.0
C107 C 0.29671 0.34498 0.38848 0.0
C108 C 0.32941 0.36393 0.31551 0.0
N109 N 0.34571 0.33873 0.32075 0.0
C110 C 0.33112 0.38028 0.28598 0.0
H111 H 0.28162 0.32234 0.38361 0.0
H112 H 0.28303 0.36611 0.39544 0.0
H113 H 0.31167 0.34225 0.40859 0.0
H114 H 0.35408 0.38023 0.27602 0.0
H115 H 0.32484 0.40587 0.29075 0.0
H116 H 0.31524 0.36674 0.26793 0.0
C117 C 0.4807 0.99618 0.58509 0.0
N118 N 0.49318 0.96781 0.58841 0.0
N119 N 0.46207 0.99194 0.55947 0.0
C120 C 0.48724 0.02807 0.60642 0.0
C121 C 0.46331 0.96 0.5477 0.0
N122 N 0.48191 0.94525 0.56536 0.0
C123 C 0.44694 0.94327 0.5183 0.0
H124 H 0.47007 0.04561 0.60413 0.0
H125 H 0.5092 0.03941 0.59988 0.0
H126 H 0.48865 0.02381 0.63153 0.0
H127 H 0.46182 0.94456 0.49756 0.0
H128 H 0.42614 0.95531 0.5142 0.0
H129 H 0.44104 0.91712 0.52012 0.0
C130 C 0.19195 0.25041 0.71653 0.0
N131 N 0.21893 0.26558 0.7108 0.0
N132 N 0.18394 0.25862 0.74709 0.0
C133 C 0.17394 0.2264 0.69281 0.0
C134 C 0.20689 0.27944 0.75978 0.0
N135 N 0.22845 0.28327 0.73788 0.0
C136 C 0.20663 0.29881 0.79247 0.0
H137 H 0.15998 0.24001 0.67836 0.0
H138 H 0.15882 0.20969 0.70492 0.0
H139 H 0.18895 0.21179 0.67667 0.0
H140 H 0.18342 0.30113 0.80134 0.0
H141 H 0.21768 0.32368 0.79255 0.0
H142 H 0.21914 0.28608 0.80902 0.0
C143 C 0.77751 0.21935 0.72948 0.0
N144 N 0.78781 0.20443 0.75338 0.0
N145 N 0.79956 0.23924 0.71891 0.0
C146 C 0.74708 0.21145 0.71385 0.0
C147 C 0.82375 0.23543 0.73695 0.0
N148 N 0.8167 0.21412 0.75769 0.0
C149 C 0.85423 0.25289 0.73471 0.0
H150 H 0.74779 0.21482 0.68846 0.0
H151 H 0.73101 0.22811 0.72603 0.0
H152 H 0.73864 0.1859 0.71553 0.0
H153 H 0.85267 0.27568 0.72401 0.0
H154 H 0.86878 0.23656 0.7197 0.0
H155 H 0.86489 0.25888 0.75855 0.0
C156 C 0.52916 0.49741 0.57401 0.0
N157 N 0.54316 0.50513 0.54738 0.0
N158 N 0.50441 0.5143 0.57987 0.0
C159 C 0.53803 0.47137 0.59291 0.0
C160 C 0.50358 0.53243 0.55584 0.0
N161 N 0.52695 0.52681 0.53597 0.0
C162 C 0.48 0.55597 0.55211 0.0
H163 H 0.51825 0.46078 0.60473 0.0
H164 H 0.55454 0.4824 0.61151 0.0
H165 H 0.54847 0.45149 0.57749 0.0
H166 H 0.48803 0.57536 0.53799 0.0
H167 H 0.47266 0.56757 0.57564 0.0
H168 H 0.46021 0.54223 0.53966 0.0
C169 C 0.53204 0.49779 0.98409 0.0
N170 N 0.56009 0.49838 0.99641 0.0
N171 N 0.53196 0.51497 0.95928 0.0
C172 C 0.50514 0.47787 0.99444 0.0
C173 C 0.56109 0.52555 0.95646 0.0
N174 N 0.57835 0.51511 0.97878 0.0
C175 C 0.57232 0.54794 0.93334 0.0
H176 H 0.51193 0.45509 1.00253 0.0
H177 H 0.48847 0.4712 0.97488 0.0
H178 H 0.49428 0.49245 0.01455 0.0
H179 H 0.59115 0.56496 0.94382 0.0
H180 H 0.55411 0.56233 0.92609 0.0
H181 H 0.58062 0.53301 0.91188 0.0
C182 C 0.69713 0.24632 0.27562 0.0
N183 N 0.71473 0.22997 0.2929 0.0
N184 N 0.69002 0.22841 0.24724 0.0
C185 C 0.68893 0.28097 0.28518 0.0
C186 C 0.70434 0.20072 0.24754 0.0
N187 N 0.71975 0.2018 0.27519 0.0
C188 C 0.70089 0.17149 0.2222 0.0
H189 H 0.66774 0.28077 0.29878 0.0
H190 H 0.68544 0.29321 0.26399 0.0
H191 H 0.70675 0.29532 0.30038 0.0
H192 H 0.71906 0.17345 0.20464 0.0
H193 H 0.67901 0.17045 0.20962 0.0
H194 H 0.7026 0.14845 0.23244 0.0
C195 C 0.4507 0.03984 0.97847 0.0
N196 N 0.47126 0.0655 0.97865 0.0
N197 N 0.42525 0.04942 0.993 0.0
C198 C 0.45497 1.0055 0.96309 0.0
C199 C 0.43087 0.08195 1.00176 0.0
N200 N 0.45876 0.09186 0.99262 0.0
C201 C 0.4104 0.10336 0.02197 0.0
H202 H 0.43305 0.9919 0.9565 0.0
H203 H 0.46665 0.99248 0.98006 0.0
H204 H 0.46896 1.00571 0.94156 0.0
H205 H 0.42356 0.12061 0.03998 0.0
H206 H 0.39347 0.08872 0.03417 0.0
H207 H 0.3985 0.11796 0.00661 0.0
Zn208 Zn 0.29737 0.83559 0.023 0.0
Zn209 Zn 0.25166 0.87138 0.03393 0.0
O210 O 0.25233 0.84584 0.07326 0.0
O211 O 0.28609 0.81058 0.0584 0.0
O212 O 0.21682 0.90111 0.04251 0.0
O213 O 0.32667 0.87449 0.03057 0.0
O214 O 0.28823 0.90508 0.0318 0.0
C215 C 0.26665 0.82125 0.07798 0.0
C216 C 0.25663 0.82284 0.97196 0.0
O217 O 0.24113 0.84145 0.99107 0.0
O218 O 0.28324 0.81803 0.97919 0.0
C219 C 0.20014 0.91054 0.02168 0.0
O220 O 0.20415 0.89993 0.99155 0.0
C221 C 0.31652 0.90238 0.03205 0.0
Zn222 Zn 0.09212 0.45565 0.31018 0.0
Zn223 Zn 0.12777 0.50412 0.29241 0.0
O224 O 0.10026 0.52867 0.32518 0.0
O225 O 0.07481 0.48813 0.34408 0.0
O226 O 0.15796 0.53935 0.28128 0.0
O227 O 0.12686 0.43046 0.32017 0.0
O228 O 0.15601 0.47195 0.3081 0.0
C229 C 0.08102 0.51851 0.34436 0.0
C230 C 0.08363 0.46454 0.24426 0.0
O231 O 0.10487 0.48686 0.25049 0.0
O232 O 0.07409 0.44817 0.26575 0.0
C233 C 0.17293 0.55826 0.30273 0.0
O234 O 0.16772 0.55562 0.33268 0.0
C235 C 0.15287 0.44399 0.31756 0.0
Zn236 Zn 0.80472 0.59471 0.92911 0.0
Zn237 Zn 0.79151 0.63814 0.97923 0.0
O238 O 0.82595 0.61549 0.99718 0.0
O239 O 0.83956 0.58276 0.95513 0.0
O240 O 0.77824 0.67068 0.01579 0.0
O241 O 0.81052 0.63078 0.90149 0.0
O242 O 0.80405 0.66674 0.94377 0.0
C243 C 0.84311 0.5943 0.98418 0.0
C244 C 0.74554 0.581 0.95269 0.0
O245 O 0.75294 0.60687 0.9718 0.0
O246 O 0.76381 0.57038 0.93161 0.0
C247 C 0.7924 0.68039 0.04173 0.0
O248 O 0.81911 0.67019 0.0459 0.0
C249 C 0.81016 0.66022 0.91432 0.0
Zn250 Zn 0.83214 1.00244 0.32987 0.0
Zn251 Zn 0.86509 1.00139 0.27701 0.0
O252 O 0.83893 0.04079 0.27614 0.0
O253 O 0.80978 0.0396 0.31774 0.0
O254 O 0.89133 1.00219 0.23794 0.0
O255 O 0.86939 0.01268 0.35677 0.0
O256 O 0.89666 0.0071 0.31352 0.0
C257 C 0.81791 0.05254 0.29355 0.0
C258 C 0.82469 0.94095 0.28873 0.0
O259 O 0.84141 0.95598 0.27035 0.0
O260 O 0.8181 0.95511 0.31589 0.0
C261 C 0.89606 0.97682 0.21853 0.0
O262 O 0.88312 0.94841 0.22322 0.0
C263 C 0.89484 0.01215 0.3437 0.0
Zn264 Zn 0.30226 0.10752 0.44916 0.0
Zn265 Zn 0.29699 0.15448 0.49888 0.0
O266 O 0.32955 0.12643 0.51299 0.0
O267 O 0.33873 0.09264 0.47 0.0
O268 O 0.29098 0.18798 0.53773 0.0
O269 O 0.30719 0.14304 0.4205 0.0
O270 O 0.30917 0.18121 0.46221 0.0
C271 C 0.3445 0.1038 0.49875 0.0
C272 C 0.24466 0.10268 0.479 0.0
O273 O 0.25499 0.12969 0.49461 0.0
O274 O 0.26089 0.08709 0.45864 0.0
C275 C 0.3091 0.19408 0.56126 0.0
O276 O 0.33466 0.18012 0.55995 0.0
C277 C 0.31114 0.17289 0.43227 0.0
Zn278 Zn 0.33406 0.50136 0.82885 0.0
Zn279 Zn 0.36173 0.51418 0.77584 0.0
O280 O 0.33436 0.55293 0.78457 0.0
O281 O 0.30934 0.54001 0.82622 0.0
O282 O 0.38574 0.5211 0.73669 0.0
O283 O 0.37279 0.50847 0.85363 0.0
O284 O 0.39586 0.51434 0.80887 0.0
C285 C 0.31433 0.55902 0.80558 0.0
C286 C 0.32438 0.449 0.77742 0.0
O287 O 0.33854 0.46945 0.76202 0.0
O288 O 0.32053 0.45599 0.80699 0.0
C289 C 0.37528 0.51357 0.70864 0.0
O290 O 0.34691 0.50299 0.70456 0.0
C291 C 0.39684 0.51281 0.83857 0.0
Zn292 Zn 0.79551 0.34667 0.51249 0.0
Zn293 Zn 0.74522 0.37495 0.5247 0.0
O294 O 0.75249 0.35185 0.56501 0.0
O295 O 0.79294 0.32596 0.55168 0.0
O296 O 0.70774 0.40022 0.53498 0.0
O297 O 0.81947 0.38917 0.51336 0.0
O298 O 0.77676 0.41286 0.51809 0.0
C299 C 0.77239 0.33284 0.57136 0.0
C300 C 0.75141 0.32422 0.46489 0.0
O301 O 0.73514 0.34268 0.48326 0.0
O302 O 0.77875 0.32246 0.47175 0.0
C303 C 0.69027 0.40884 0.51441 0.0
O304 O 0.695 0.39962 0.48415 0.0
C305 C 0.80521 0.41462 0.51501 0.0
Zn306 Zn 0.59838 0.96028 0.8065 0.0
Zn307 Zn 0.63605 0.01216 0.79792 0.0
O308 O 0.6088 0.0306 0.83431 0.0
O309 O 0.58101 0.98727 0.84471 0.0
O310 O 0.66601 0.05031 0.79325 0.0
O311 O 0.63335 0.93348 0.81225 0.0
O312 O 0.66379 0.97678 0.80777 0.0
C313 C 0.58879 0.01751 0.85079 0.0
C314 C 0.59268 0.98081 0.74433 0.0
O315 O 0.614 1.00182 0.75459 0.0
O316 O 0.58173 0.96089 0.76212 0.0
C317 C 0.65934 0.07982 0.79995 0.0
O318 O 0.63193 0.08575 0.80906 0.0
C319 C 0.6597 0.94695 0.81226 0.0
Zn320 Zn 0.9984 0.27082 0.88905 0.0
Zn321 Zn 0.00471 0.21893 0.91447 0.0
O322 O 0.04076 0.22176 0.88336 0.0
O323 O 0.02936 0.26066 0.85609 0.0
O324 O 0.01343 0.17914 0.93575 0.0
O325 O 0.0099 0.30051 0.92905 0.0
O326 O 0.00475 0.2566 0.95292 0.0
C327 C 0.04627 0.23853 0.86071 0.0
C328 C 0.94562 0.22774 0.88068 0.0
O329 O 0.96255 0.2083 0.89182 0.0
O330 O 0.95507 0.25702 0.8792 0.0
C331 C 0.00975 0.14978 0.92202 0.0
O332 O 0.99873 0.14421 0.89299 0.0
C333 C 0.00885 0.28763 0.95431 0.0
Zn334 Zn 0.50005 0.77477 0.37636 0.0
Zn335 Zn 0.50653 0.72798 0.40871 0.0
O336 O 0.54165 0.72563 0.3763 0.0
O337 O 0.5294 0.75893 0.34318 0.0
O338 O 0.51546 0.69243 0.4354 0.0
O339 O 0.51425 0.80882 0.4124 0.0
O340 O 0.50963 0.76989 0.44275 0.0
C341 C 0.54652 0.73822 0.35086 0.0
C342 C 0.44624 0.73369 0.37571 0.0
O343 O 0.46336 0.71564 0.38859 0.0
O344 O 0.45613 0.76177 0.37031 0.0
C345 C 0.51684 0.66212 0.42541 0.0
O346 O 0.51056 0.65122 0.3955 0.0
C347 C 0.51459 0.80005 0.43969 0.0
Zn348 Zn 0.96447 0.82407 0.59553 0.0
Zn349 Zn 0.00797 0.80358 0.62748 0.0
O350 O 0.02754 0.84369 0.60884 0.0
O351 O 0.98951 0.86581 0.58945 0.0
O352 O 0.04209 0.78885 0.65099 0.0
O353 O 0.93697 0.82093 0.63319 0.0
O354 O 0.9746 0.80887 0.6617 0.0
C355 C 0.01734 0.86638 0.59543 0.0
C356 C 0.98266 0.76082 0.56821 0.0
O357 O 0.99878 0.76445 0.59327 0.0
O358 O 0.96673 0.78355 0.56252 0.0
C359 C 0.0667 0.78296 0.6371 0.0
O360 O 0.06972 0.78726 0.60722 0.0
C361 C 0.94697 0.81423 0.65922 0.0
Zn362 Zn 0.45669 0.33288 0.10402 0.0
Zn363 Zn 0.50205 0.3139 0.13389 0.0
O364 O 0.52016 0.35732 0.11975 0.0
O365 O 0.47984 0.3764 0.10138 0.0
O366 O 0.53501 0.29921 0.15919 0.0
O367 O 0.42878 0.32631 0.14042 0.0
O368 O 0.46789 0.31563 0.16749 0.0
C369 C 0.50762 0.37978 0.1081 0.0
C370 C 0.47835 0.27318 0.07233 0.0
O371 O 0.49534 0.27645 0.09679 0.0
O372 O 0.46044 0.29489 0.06899 0.0
C373 C 0.55884 0.28711 0.14819 0.0
O374 O 0.56385 0.28442 0.11756 0.0
C375 C 0.43986 0.31936 0.16583 0.0
H376 H 0.18383 0.74708 0.85405 0.0
H377 H 0.27249 0.74545 0.81441 0.0
H378 H 0.29405 0.77168 0.8654 0.0
H379 H 0.28695 0.79924 0.91963 0.0
H380 H 0.19741 0.8072 0.95673 0.0
H381 H 0.17655 0.77576 0.9077 0.0
C382 C 0.20786 0.75264 0.85664 0.0
C383 C 0.22658 0.74467 0.83056 0.0
C384 C 0.21971 0.76959 0.88521 0.0
C385 C 0.25773 0.75107 0.83428 0.0
C386 C 0.26994 0.76649 0.86325 0.0
C387 C 0.26285 0.7941 0.91699 0.0
C388 C 0.24371 0.80555 0.94175 0.0
C389 C 0.25105 0.77658 0.88859 0.0
C390 C 0.21256 0.79891 0.93792 0.0
C391 C 0.20067 0.78073 0.91002 0.0
H392 H 0.97516 0.60087 0.39476 0.0
H393 H 0.98267 0.54433 0.47148 0.0
H394 H 0.03001 0.52462 0.45034 0.0
H395 H 0.06324 0.51532 0.4045 0.0
H396 H 0.05684 0.57236 0.32776 0.0
H397 H 0.01551 0.60062 0.35444 0.0
C398 C 0.98792 0.58527 0.40732 0.0
C399 C 0.97552 0.57345 0.43417 0.0
C400 C 0.01493 0.57374 0.39468 0.0
C401 C 0.99194 0.55327 0.45053 0.0
C402 C 0.01879 0.54188 0.43833 0.0
C403 C 0.05335 0.53465 0.39415 0.0
C404 C 0.06264 0.54149 0.36411 0.0
C405 C 0.02963 0.55061 0.40955 0.0
C406 C 0.04998 0.56674 0.35093 0.0
C407 C 0.02619 0.58269 0.36605 0.0
H408 H 0.81743 0.76164 0.81577 0.0
H409 H 0.87114 0.81801 0.89038 0.0
H410 H 0.86733 0.77218 0.92141 0.0
H411 H 0.84336 0.71825 0.92977 0.0
H412 H 0.79111 0.66097 0.85396 0.0
H413 H 0.79927 0.70471 0.82102 0.0
C414 C 0.8293 0.76316 0.83821 0.0
C415 C 0.84492 0.79278 0.85072 0.0
C416 C 0.82636 0.73691 0.85609 0.0
C417 C 0.85958 0.79507 0.88018 0.0
C418 C 0.85691 0.76911 0.8981 0.0
C419 C 0.83387 0.71541 0.90601 0.0
C420 C 0.81618 0.68672 0.89452 0.0
C421 C 0.8394 0.74033 0.8868 0.0
C422 C 0.80458 0.68297 0.86342 0.0
C423 C 0.80932 0.70793 0.84452 0.0
H424 H 0.99351 0.02624 0.45143 0.0
H425 H 0.04577 0.98182 0.37467 0.0
H426 H 0.0043 0.98421 0.33716 0.0
H427 H 0.95158 0.99538 0.32751 0.0
H428 H 0.89918 0.03774 0.4059 0.0
H429 H 0.94214 0.03989 0.4415 0.0
C430 C 0.99571 0.01747 0.42638 0.0
C431 C 0.02232 1.004 0.41551 0.0
C432 C 0.9717 0.01838 0.40542 0.0
C433 C 0.02535 0.99252 0.38319 0.0
C434 C 1.00166 0.99375 0.36194 0.0
C435 C 0.94972 1.00545 0.35229 0.0
C436 C 0.92212 0.01616 0.36404 0.0
C437 C 0.97448 1.00613 0.3729 0.0
C438 C 0.92004 0.02904 0.39626 0.0
C439 C 0.94461 0.03032 0.41669 0.0
H440 H 0.27455 0.24581 0.70197 0.0
H441 H 0.19899 0.27622 0.65379 0.0
H442 H 0.22171 0.2593 0.60229 0.0
H443 H 0.26029 0.23002 0.57126 0.0
H444 H 0.33621 0.19952 0.61951 0.0
H445 H 0.31656 0.22273 0.67055 0.0
C446 C 0.26358 0.24941 0.68012 0.0
C447 C 0.23505 0.26167 0.68137 0.0
C448 C 0.2767 0.23928 0.65066 0.0
C449 C 0.2208 0.26628 0.6531 0.0
C450 C 0.23375 0.25659 0.62377 0.0
C451 C 0.27277 0.22883 0.59289 0.0
C452 C 0.29947 0.21259 0.59151 0.0
C453 C 0.26124 0.24204 0.62224 0.0
C454 C 0.3155 0.21167 0.6198 0.0
C455 C 0.30423 0.22486 0.64908 0.0
H456 H 0.44438 0.50326 0.57817 0.0
H457 H 0.52034 0.52658 0.64147 0.0
H458 H 0.48698 0.52926 0.68737 0.0
H459 H 0.43614 0.52521 0.70925 0.0
H460 H 0.35988 0.50215 0.64572 0.0
H461 H 0.39325 0.49978 0.60012 0.0
C462 C 0.45344 0.50908 0.60207 0.0
C463 C 0.48464 0.51471 0.60665 0.0
C464 C 0.43408 0.51087 0.62819 0.0
C465 C 0.49637 0.52185 0.6376 0.0
C466 C 0.47731 0.52358 0.66373 0.0
C467 C 0.42676 0.51986 0.68544 0.0
C468 C 0.39549 0.51393 0.68099 0.0
C469 C 0.4461 0.51823 0.6593 0.0
C470 C 0.38382 0.50685 0.64991 0.0
C471 C 0.4029 0.5054 0.62378 0.0
H472 H 0.76047 0.28243 0.70565 0.0
H473 H 0.83646 0.23112 0.66923 0.0
H474 H 0.83479 0.25619 0.62066 0.0
H475 H 0.81134 0.29124 0.58832 0.0
H476 H 0.7342 0.34229 0.62253 0.0
H477 H 0.73633 0.31841 0.67214 0.0
C478 C 0.77661 0.27698 0.68699 0.0
C479 C 0.79886 0.25538 0.69103 0.0
C480 C 0.7751 0.29111 0.65879 0.0
C481 C 0.81964 0.24822 0.66682 0.0
C482 C 0.81848 0.2623 0.639 0.0
C483 C 0.79487 0.29733 0.60652 0.0
C484 C 0.77259 0.3186 0.60158 0.0
C485 C 0.79627 0.28362 0.63471 0.0
C486 C 0.75155 0.32597 0.62561 0.0
C487 C 0.75281 0.31235 0.65399 0.0
H488 H 0.54526 1.00114 0.60875 0.0
H489 H 0.48281 0.92178 0.62644 0.0
H490 H 0.50975 0.91693 0.67548 0.0
H491 H 0.54784 0.93896 0.71576 0.0
H492 H 0.60873 0.02081 0.69988 0.0
H493 H 0.58534 0.02153 0.64807 0.0
C494 C 0.53773 0.98278 0.62339 0.0
C495 C 0.512 0.96198 0.61428 0.0
C496 C 0.55273 0.98101 0.65209 0.0
C497 C 0.50274 0.93776 0.63291 0.0
C498 C 0.51793 0.9353 0.6611 0.0
C499 C 0.55619 0.95688 0.70095 0.0
C500 C 0.57988 0.98002 0.71196 0.0
C501 C 0.54245 0.95737 0.67133 0.0
C502 C 0.59044 1.00284 0.6922 0.0
C503 C 0.57708 1.00326 0.66251 0.0
H504 H 0.81928 0.23216 0.82048 0.0
H505 H 0.86101 0.17449 0.74326 0.0
H506 H 0.90339 0.16732 0.7777 0.0
H507 H 0.93233 0.1859 0.82713 0.0
H508 H 0.89253 0.24832 0.90261 0.0
H509 H 0.84552 0.24476 0.87237 0.0
C510 C 0.83724 0.21714 0.81176 0.0
C511 C 0.8372 0.20361 0.77968 0.0
C512 C 0.862 0.21429 0.83147 0.0
C513 C 0.86073 0.18477 0.76806 0.0
C514 C 0.88497 0.18092 0.78769 0.0
C515 C 0.91289 0.19752 0.83737 0.0
C516 C 0.91558 0.21688 0.8672 0.0
C517 C 0.88643 0.19666 0.8191 0.0
C518 C 0.89067 0.23284 0.87989 0.0
C519 C 0.86393 0.2311 0.86244 0.0
H520 H 0.52841 0.9338 0.52801 0.0
H521 H 0.45784 0.88689 0.57759 0.0
H522 H 0.46567 0.83407 0.54576 0.0
H523 H 0.48609 0.80424 0.49679 0.0
H524 H 0.55286 0.854 0.44397 0.0
H525 H 0.55358 0.90237 0.48389 0.0
C526 C 0.51583 0.91158 0.53264 0.0
C527 C 0.49304 0.91379 0.55529 0.0
C528 C 0.51937 0.88197 0.513 0.0
C529 C 0.47598 0.88533 0.5607 0.0
C530 C 0.48016 0.85535 0.54213 0.0
C531 C 0.5014 0.82535 0.49463 0.0
C532 C 0.51925 0.8257 0.46743 0.0
C533 C 0.50081 0.85371 0.51715 0.0
C534 C 0.53874 0.85332 0.46462 0.0
C535 C 0.53914 0.88101 0.4874 0.0
H536 H 0.17465 0.22987 0.79934 0.0
H537 H 0.13002 0.27251 0.72723 0.0
H538 H 0.08222 0.26725 0.75497 0.0
H539 H 0.05449 0.25512 0.802 0.0
H540 H 0.09852 0.21226 0.87471 0.0
H541 H 0.14523 0.21252 0.84443 0.0
C542 C 0.15423 0.23747 0.78968 0.0
C543 C 0.15553 0.25156 0.76147 0.0
C544 C 0.12697 0.23452 0.80593 0.0
C545 C 0.12922 0.2614 0.74883 0.0
C546 C 0.10206 0.25857 0.76477 0.0
C547 C 0.07422 0.24551 0.8111 0.0
C548 C 0.07319 0.23407 0.84073 0.0
C549 C 0.10085 0.24586 0.79368 0.0
C550 C 0.09877 0.22123 0.85197 0.0
C551 C 0.1255 0.22155 0.83475 0.0
H552 H 0.5533 0.58669 0.53744 0.0
H553 H 0.51059 0.50583 0.47556 0.0
H554 H 0.50664 0.54028 0.43355 0.0
H555 H 0.50861 0.59544 0.41759 0.0
H556 H 0.5453 0.6779 0.48279 0.0
H557 H 0.55793 0.64137 0.5204 0.0
C558 C 0.54438 0.57652 0.51419 0.0
C559 C 0.53334 0.54356 0.50901 0.0
C560 C 0.54009 0.59718 0.4912 0.0
C561 C 0.52042 0.53074 0.47946 0.0
C562 C 0.51754 0.55068 0.45578 0.0
C563 C 0.51967 0.60538 0.43988 0.0
C564 C 0.52575 0.63944 0.44741 0.0
C565 C 0.52623 0.58425 0.46183 0.0
C566 C 0.54 0.65186 0.47649 0.0
C567 C 0.5474 0.63095 0.49799 0.0
H568 H 0.83797 0.80617 0.75261 0.0
H569 H 0.90817 0.82992 0.82263 0.0
H570 H 0.94634 0.8231 0.78093 0.0
H571 H 0.95896 0.81876 0.72343 0.0
H572 H 0.88678 0.80128 0.6543 0.0
H573 H 0.8503 0.79783 0.69629 0.0
C574 C 0.8617 0.80876 0.75864 0.0
C575 C 0.8704 0.81842 0.79043 0.0
C576 C 0.88313 0.80703 0.73446 0.0
C577 C 0.90109 0.82208 0.79827 0.0
C578 C 0.9228 0.81878 0.77435 0.0
C579 C 0.93528 0.81392 0.71763 0.0
C580 C 0.92567 0.8108 0.68568 0.0
C581 C 0.91404 0.8127 0.74218 0.0
C582 C 0.89486 0.80442 0.67861 0.0
C583 C 0.8739 0.80219 0.70263 0.0
H584 H 0.0927 0.93481 0.49713 0.0
H585 H 0.04022 0.01442 0.53352 0.0
H586 H 0.02218 0.98498 0.57667 0.0
H587 H 0.01311 0.93172 0.59628 0.0
H588 H 0.06734 0.85265 0.56159 0.0
H589 H 0.09331 0.88656 0.52584 0.0
C590 C 0.07869 0.9463 0.51561 0.0
C591 C 0.06777 0.97667 0.51238 0.0
C592 C 0.06806 0.92885 0.54004 0.0
C593 C 0.04913 0.99123 0.53599 0.0
C594 C 0.03841 0.97413 0.56026 0.0
C595 C 0.03131 0.92237 0.58163 0.0
C596 C 0.03808 0.88968 0.58121 0.0
C597 C 0.0464 0.94216 0.56141 0.0
C598 C 0.06179 0.8778 0.56232 0.0
C599 C 0.07651 0.89712 0.5417 0.0
H600 H 0.18588 0.74337 0.69735 0.0
H601 H 0.12553 0.73116 0.77429 0.0
H602 H 0.08349 0.74549 0.74329 0.0
H603 H 0.06465 0.76388 0.69542 0.0
H604 H 0.12467 0.77627 0.6178 0.0
H605 H 0.16615 0.75928 0.64771 0.0
C606 C 0.16337 0.74348 0.7069 0.0
C607 C 0.1585 0.73649 0.73787 0.0
C608 C 0.13946 0.75195 0.68897 0.0
C609 C 0.1295 0.73678 0.75047 0.0
C610 C 0.1056 0.74495 0.73281 0.0
C611 C 0.08678 0.76283 0.68498 0.0
C612 C 0.09161 0.77159 0.65456 0.0
C613 C 0.11043 0.75306 0.70223 0.0
C614 C 0.12037 0.76975 0.64125 0.0
C615 C 0.14411 0.76005 0.65833 0.0
H616 H 0.97044 0.61496 0.50121 0.0
H617 H 0.92324 0.65944 0.4324 0.0
H618 H 0.93777 0.714 0.46077 0.0
H619 H 0.95798 0.7479 0.509 0.0
H620 H 0.00415 0.7031 0.57899 0.0
H621 H 0.99631 0.64982 0.54636 0.0
C622 C 0.96438 0.63681 0.49203 0.0
C623 C 0.94608 0.63368 0.46487 0.0
C624 C 0.97209 0.66783 0.50905 0.0
C625 C 0.9376 0.66174 0.4532 0.0
C626 C 0.94563 0.69274 0.46958 0.0
C627 C 0.96663 0.72656 0.51697 0.0
C628 C 0.98115 0.72942 0.54666 0.0
C629 C 0.96189 0.69597 0.49819 0.0
C630 C 0.99264 0.70158 0.55638 0.0
C631 C 0.98815 0.67106 0.53774 0.0
H632 H 0.76475 0.79793 0.277 0.0
H633 H 0.74302 0.81873 0.1838 0.0
H634 H 0.77547 0.86966 0.19268 0.0
H635 H 0.80394 0.9121 0.23038 0.0
H636 H 0.81925 0.89328 0.32603 0.0
H637 H 0.79526 0.83821 0.31324 0.0
C638 C 0.76757 0.81351 0.25856 0.0
C639 C 0.75146 0.80495 0.22999 0.0
C640 C 0.78465 0.84347 0.26465 0.0
C641 C 0.75542 0.82485 0.20593 0.0
C642 C 0.77363 0.85414 0.2112 0.0
C643 C 0.80239 0.89565 0.24816 0.0
C644 C 0.81312 0.90669 0.27915 0.0
C645 C 0.78744 0.86432 0.24096 0.0
C646 C 0.81084 0.88536 0.30212 0.0
C647 C 0.7972 0.85387 0.29482 0.0
H648 H 0.76481 0.17377 0.24301 0.0
H649 H 0.71244 0.17259 0.32774 0.0
H650 H 0.73895 0.1265 0.3415 0.0
H651 H 0.77539 0.08523 0.32803 0.0
H652 H 0.82715 0.08545 0.24233 0.0
H653 H 0.80225 0.13296 0.23001 0.0
C654 C 0.75937 0.16331 0.26447 0.0
C655 C 0.73683 0.17633 0.28441 0.0
C656 C 0.77434 0.13654 0.2718 0.0
C657 C 0.72996 0.16303 0.31232 0.0
C658 C 0.74494 0.13659 0.31999 0.0
C659 C 0.7813 0.09561 0.30662 0.0
C660 C 0.80305 0.08157 0.28604 0.0
C661 C 0.76691 0.12291 0.29969 0.0
C662 C 0.81045 0.0956 0.25855 0.0
C663 C 0.79624 0.12281 0.25149 0.0
H664 H 0.42887 1.00159 0.02808 0.0
H665 H 0.36675 0.05092 0.97779 0.0
H666 H 0.32557 0.01134 0.98874 0.0
H667 H 0.30885 0.9594 0.00849 0.0
H668 H 0.37289 0.90928 0.05626 0.0
H669 H 0.41175 0.95244 0.05077 0.0
C670 C 0.4062 1.0036 0.01978 0.0
C671 C 0.40058 0.02854 1.00195 0.0
C672 C 0.38315 0.98058 0.02566 0.0
C673 C 0.37127 0.03162 0.99151 0.0
C674 C 0.34791 0.00901 0.99769 0.0
C675 C 0.33117 0.95835 0.01817 0.0
C676 C 0.33809 0.93114 0.03255 0.0
C677 C 0.35374 0.98292 0.01418 0.0
C678 C 0.36713 0.92986 0.04483 0.0
C679 C 0.38938 0.95448 0.04168 0.0
H680 H 0.25261 0.34729 0.33522 0.0
H681 H 0.30956 0.4362 0.34132 0.0
H682 H 0.26566 0.46754 0.33534 0.0
H683 H 0.21108 0.46881 0.32649 0.0
H684 H 0.15432 0.37939 0.32288 0.0
H685 H 0.19797 0.34907 0.33025 0.0
C686 C 0.25517 0.37359 0.33566 0.0
C687 C 0.28399 0.38959 0.33841 0.0
C688 C 0.22992 0.39123 0.33262 0.0
C689 C 0.28741 0.42358 0.33886 0.0
C690 C 0.26239 0.44137 0.3355 0.0
C691 C 0.20828 0.44273 0.32745 0.0
C692 C 0.17947 0.4264 0.32393 0.0
C693 C 0.23353 0.42537 0.33199 0.0
C694 C 0.17619 0.39262 0.32554 0.0
C695 C 0.20116 0.37519 0.32967 0.0
H696 H 0.10556 0.06922 0.49292 0.0
H697 H 0.13261 0.97153 0.4679 0.0
H698 H 0.1856 0.99212 0.47023 0.0
H699 H 0.22341 0.03889 0.47235 0.0
H700 H 0.19634 0.1369 0.49819 0.0
H701 H 0.14417 0.11552 0.50248 0.0
C702 C 0.12326 0.05253 0.48909 0.0
C703 C 0.11553 0.01898 0.48044 0.0
C704 C 0.1535 0.06476 0.48978 0.0
C705 C 0.13832 0.99735 0.47511 0.0
C706 C 0.16849 0.00923 0.47594 0.0
C707 C 0.2061 0.05553 0.47915 0.0
C708 C 0.21361 0.08948 0.48435 0.0
C709 C 0.17624 0.04301 0.48204 0.0
C710 C 0.19109 0.1107 0.49382 0.0
C711 C 0.16126 0.09849 0.49629 0.0
H712 H 0.73608 0.21039 0.78403 0.0
H713 H 0.80215 0.14235 0.75383 0.0
H714 H 0.76868 0.09708 0.76802 0.0
H715 H 0.71824 0.07648 0.78311 0.0
H716 H 0.6513 0.14505 0.81064 0.0
H717 H 0.68718 0.19043 0.80309 0.0
C718 C 0.74322 0.18567 0.78131 0.0
C719 C 0.77136 0.17948 0.76809 0.0
C720 C 0.72342 0.15986 0.78832 0.0
C721 C 0.78069 0.14755 0.76443 0.0
C722 C 0.76138 0.12171 0.7721 0.0
C723 C 0.71155 0.10136 0.78766 0.0
C724 C 0.68194 0.10725 0.79704 0.0
C725 C 0.7323 0.12746 0.78308 0.0
C726 C 0.6738 0.1397 0.80312 0.0
C727 C 0.69433 0.16573 0.79889 0.0
H728 H 0.41901 0.02804 0.58696 0.0
H729 H 0.46929 0.00835 0.50106 0.0
H730 H 0.4379 0.04277 0.47452 0.0
H731 H 0.39386 0.07516 0.47488 0.0
H732 H 0.34544 0.09815 0.56182 0.0
H733 H 0.37881 0.06655 0.58924 0.0
C734 C 0.42347 0.03212 0.56272 0.0
C735 C 0.44625 0.01581 0.54583 0.0
C736 C 0.40563 0.05237 0.54788 0.0
C737 C 0.45168 0.02065 0.51428 0.0
C738 C 0.43377 0.04026 0.49919 0.0
C739 C 0.39086 0.07354 0.49992 0.0
C740 C 0.36706 0.08859 0.51623 0.0
C741 C 0.41031 0.0557 0.51557 0.0
C742 C 0.36363 0.08673 0.54877 0.0
C743 C 0.38259 0.06854 0.56441 0.0
H744 H 0.59516 0.50321 0.5783 0.0
H745 H 0.55159 0.47539 0.48751 0.0
H746 H 0.59444 0.44482 0.46826 0.0
H747 H 0.64237 0.42167 0.4791 0.0
H748 H 0.6829 0.44485 0.5723 0.0
H749 H 0.64292 0.48049 0.58912 0.0
C750 C 0.59525 0.49063 0.55422 0.0
C751 C 0.57033 0.49187 0.53426 0.0
C752 C 0.61916 0.47153 0.54406 0.0
C753 C 0.57074 0.47565 0.50305 0.0
C754 C 0.59506 0.45763 0.49227 0.0
C755 C 0.64252 0.4346 0.50307 0.0
C756 C 0.66564 0.43037 0.52443 0.0
C757 C 0.61908 0.45472 0.51283 0.0
C758 C 0.66534 0.44732 0.55542 0.0
C759 C 0.64254 0.46788 0.56503 0.0
H760 H 0.68185 0.25191 0.34288 0.0
H761 H 0.7721 0.23362 0.3138 0.0
H762 H 0.79132 0.25948 0.36594 0.0
H763 H 0.78263 0.29128 0.41766 0.0
H764 H 0.69256 0.31393 0.44514 0.0
H765 H 0.67297 0.28311 0.39526 0.0
C766 C 0.70571 0.25367 0.34811 0.0
C767 C 0.72566 0.24122 0.32467 0.0
C768 C 0.71654 0.26979 0.3775 0.0
C769 C 0.75644 0.24287 0.33167 0.0
C770 C 0.76736 0.25793 0.36128 0.0
C771 C 0.75866 0.28939 0.41292 0.0
C772 C 0.73908 0.30503 0.43514 0.0
C773 C 0.74767 0.27213 0.38407 0.0
C774 C 0.70813 0.30232 0.42843 0.0
C775 C 0.69692 0.28463 0.39996 0.0
H776 H 0.49285 0.09513 0.93029 0.0
H777 H 0.51496 0.03093 0.9967 0.0
H778 H 0.557 0.01239 0.96379 0.0
H779 H 0.58083 0.00708 0.91141 0.0
H780 H 0.56039 0.07237 0.8452 0.0
H781 H 0.52449 0.09825 0.88257 0.0
C782 C 0.50775 0.07816 0.93801 0.0
C783 C 0.50083 0.06393 0.96544 0.0
C784 C 0.53161 0.06731 0.91862 0.0
C785 C 0.52001 0.04187 0.97545 0.0
C786 C 0.54377 0.03107 0.9565 0.0
C787 C 0.56904 0.02755 0.90562 0.0
C788 C 0.57274 0.03762 0.87564 0.0
C789 C 0.54876 0.04238 0.92727 0.0
C790 C 0.55772 0.06429 0.86826 0.0
C791 C 0.53712 0.07894 0.88953 0.0
H792 H 0.31587 0.26851 0.32842 0.0
H793 H 0.37142 0.32797 0.3995 0.0
H794 H 0.36905 0.28378 0.43254 0.0
H795 H 0.34552 0.2307 0.44392 0.0
H796 H 0.29073 0.17068 0.37185 0.0
H797 H 0.29811 0.21233 0.33659 0.0
C798 C 0.32846 0.27104 0.35052 0.0
C799 C 0.34415 0.30107 0.36148 0.0
C800 C 0.32625 0.24578 0.36962 0.0
C801 C 0.35976 0.30469 0.3905 0.0
C802 C 0.35792 0.27967 0.40956 0.0
C803 C 0.33535 0.22674 0.42043 0.0
C804 C 0.31718 0.19789 0.41074 0.0
C805 C 0.34024 0.25056 0.39992 0.0
C806 C 0.30465 0.19277 0.37998 0.0
C807 C 0.3089 0.21656 0.35974 0.0
H808 H 0.52605 0.50362 0.89572 0.0
H809 H 0.48068 0.53895 0.98152 0.0
H810 H 0.4347 0.54255 0.95132 0.0
H811 H 0.40672 0.5323 0.90111 0.0
H812 H 0.45208 0.49908 0.81443 0.0
H813 H 0.49902 0.49852 0.84416 0.0
C814 C 0.50619 0.51266 0.90754 0.0
C815 C 0.5064 0.52065 0.94072 0.0
C816 C 0.47995 0.51486 0.88992 0.0
C817 C 0.48066 0.53224 0.95601 0.0
C818 C 0.45449 0.53432 0.93878 0.0
C819 C 0.42692 0.5251 0.88868 0.0
C820 C 0.42588 0.51533 0.85572 0.0
C821 C 0.45372 0.52507 0.90583 0.0
C822 C 0.45233 0.50662 0.83984 0.0
C823 C 0.47912 0.5062 0.85683 0.0
H824 H 0.70588 0.75012 0.14244 0.0
H825 H 0.78052 0.74355 0.20448 0.0
H826 H 0.81058 0.72219 0.15894 0.0
H827 H 0.81336 0.70009 0.1022 0.0
H828 H 0.73738 0.70508 0.0407 0.0
H829 H 0.71003 0.73215 0.08516 0.0
C830 C 0.72883 0.74421 0.14575 0.0
C831 C 0.74102 0.74792 0.17654 0.0
C832 C 0.74552 0.73132 0.11963 0.0
C833 C 0.77087 0.74084 0.18084 0.0
C834 C 0.78787 0.72843 0.15488 0.0
C835 C 0.79096 0.70743 0.09841 0.0
C836 C 0.77738 0.70016 0.06813 0.0
C837 C 0.77513 0.72273 0.12425 0.0
C838 C 0.74836 0.71006 0.06372 0.0
C839 C 0.73264 0.72557 0.08916 0.0
H840 H 0.97727 0.9626 0.09614 0.0
H841 H 0.00694 0.06119 0.13461 0.0
H842 H 0.97201 0.05919 0.17899 0.0
H843 H 0.93343 0.02887 0.20694 0.0
H844 H 0.90475 0.92935 0.16887 0.0
H845 H 0.9389 0.932 0.12441 0.0
C846 C 0.97609 0.9834 0.1145 0.0
C847 C 0.99461 0.01187 0.1126 0.0
C848 C 0.95617 0.98186 0.1399 0.0
C849 C 0.99283 0.03905 0.13598 0.0
C850 C 0.97293 0.03786 0.16122 0.0
C851 C 0.93457 0.00779 0.18887 0.0
C852 C 0.91648 0.97897 0.19129 0.0
C853 C 0.9545 0.00935 0.16345 0.0
C854 C 0.91841 0.95184 0.1677 0.0
C855 C 0.93795 0.95331 0.14222 0.0
H856 H 0.26934 0.72821 0.18185 0.0
H857 H 0.27256 0.81953 0.24408 0.0
H858 H 0.26634 0.84911 0.19847 0.0
H859 H 0.26295 0.84866 0.14002 0.0
H860 H 0.26101 0.75637 0.07883 0.0
H861 H 0.26256 0.72726 0.12476 0.0
C862 C 0.26815 0.75452 0.18536 0.0
C863 C 0.27139 0.77177 0.21605 0.0
C864 C 0.26449 0.77106 0.15919 0.0
C865 C 0.27039 0.80592 0.22048 0.0
C866 C 0.26667 0.82271 0.19447 0.0
C867 C 0.26211 0.82217 0.13695 0.0
C868 C 0.26168 0.80459 0.1062 0.0
C869 C 0.26399 0.80555 0.1636 0.0
C870 C 0.26124 0.77032 0.10235 0.0
C871 C 0.26233 0.75368 0.12856 0.0
H872 H 0.99704 0.43184 0.12514 0.0
H873 H 0.05081 0.51192 0.09471 0.0
H874 H 0.08359 0.51499 0.14145 0.0
H875 H 0.0938 0.49802 0.19356 0.0
H876 H 0.03917 0.41778 0.22376 0.0
H877 H 0.01022 0.41134 0.17457 0.0
C878 C 0.01634 0.44944 0.12857 0.0
C879 C 0.02134 0.47198 0.10707 0.0
C880 C 0.03474 0.45122 0.15562 0.0
C881 C 0.04632 0.49479 0.11148 0.0
C882 C 0.065 0.4965 0.13813 0.0
C883 C 0.07581 0.47888 0.18924 0.0
C884 C 0.06853 0.45873 0.21264 0.0
C885 C 0.05892 0.47541 0.16086 0.0
C886 C 0.04518 0.43392 0.20643 0.0
C887 C 0.02854 0.43016 0.17824 0.0
H888 H 0.33412 0.6875 0.28854 0.0
H889 H 0.30525 0.77874 0.33519 0.0
H890 H 0.34746 0.78365 0.37258 0.0
H891 H 0.39688 0.76683 0.38562 0.0
H892 H 0.42722 0.67604 0.33931 0.0
H893 H 0.38009 0.66549 0.30856 0.0
C894 C 0.3367 0.70776 0.30762 0.0
C895 C 0.31693 0.73293 0.3092 0.0
C896 C 0.36147 0.71063 0.32873 0.0
C897 C 0.32039 0.75929 0.33372 0.0
C898 C 0.34457 0.76214 0.35489 0.0
C899 C 0.39272 0.74422 0.36952 0.0
C900 C 0.41541 0.72229 0.36459 0.0
C901 C 0.36592 0.73871 0.35174 0.0
C902 C 0.40991 0.69311 0.34368 0.0
C903 C 0.38311 0.68731 0.32585 0.0
H904 H 0.96798 0.38679 0.06667 0.0
H905 H 0.04089 0.44564 0.0327 0.0
H906 H 0.05775 0.39769 0.99893 0.0
H907 H 0.04492 0.34226 0.97132 0.0
H908 H 0.97168 0.28288 0.00457 0.0
H909 H 0.96182 0.32736 0.04676 0.0
C910 C 0.98824 0.38856 0.05279 0.0
C911 C 1.0032 0.41943 0.05178 0.0
C912 C 0.99724 0.36097 0.0329 0.0
C913 C 0.02932 0.42192 0.03377 0.0
C914 C 0.03864 0.39464 0.01422 0.0
C915 C 0.02745 0.33874 0.9885 0.0
C916 C 0.00881 0.30961 0.98474 0.0
C917 C 0.02181 0.36448 0.01238 0.0
C918 C 0.98635 0.3051 0.00712 0.0
C919 C 0.98054 0.33065 0.03104 0.0
H920 H 0.67651 0.73081 0.29442 0.0
H921 H 0.63043 0.75495 0.21302 0.0
H922 H 0.58211 0.74947 0.23992 0.0
H923 H 0.55413 0.74368 0.28871 0.0
H924 H 0.5999 0.71869 0.3703 0.0
H925 H 0.64722 0.71796 0.34121 0.0
C926 C 0.65569 0.73417 0.28258 0.0
C927 C 0.65665 0.74333 0.25202 0.0
C928 C 0.62816 0.73102 0.29828 0.0
C929 C 0.62986 0.74772 0.23653 0.0
C930 C 0.60241 0.74478 0.25196 0.0
C931 C 0.57438 0.73757 0.29995 0.0
C932 C 0.57364 0.73166 0.33172 0.0
C933 C 0.60141 0.7373 0.28315 0.0
C934 C 0.59991 0.72333 0.34587 0.0
C935 C 0.627 0.72314 0.32932 0.0
H936 H 0.01606 0.02128 0.98571 0.0
H937 H 0.07356 0.08582 0.05104 0.0
H938 H 0.07125 0.12932 0.0175 0.0
H939 H 0.04688 0.15096 0.97336 0.0
H940 H 0.98881 0.08591 0.90814 0.0
H941 H 0.99711 0.04071 0.93763 0.0
C942 C 0.0291 0.04444 0.99166 0.0
C943 C 0.0454 0.05036 0.02035 0.0
C944 C 0.02672 0.06951 0.97277 0.0
C945 C 0.06151 0.08068 0.02862 0.0
C946 C 0.05969 0.10564 0.00974 0.0
C947 C 0.03623 0.12683 0.96548 0.0
C948 C 0.01683 0.12202 0.93885 0.0
C949 C 0.04135 0.10075 0.98242 0.0
C950 C 1.00365 0.09043 0.92865 0.0
C951 C 0.00842 0.0645 0.94549 0.0
H952 H 0.33409 0.30824 0.26242 0.0
H953 H 0.40545 0.33859 0.32996 0.0
H954 H 0.44273 0.33157 0.28742 0.0
H955 H 0.45372 0.32582 0.22959 0.0
H956 H 0.38026 0.3018 0.16258 0.0
H957 H 0.34515 0.29776 0.20582 0.0
C958 C 0.35792 0.31218 0.26778 0.0
C959 C 0.36717 0.32387 0.29905 0.0
C960 C 0.37874 0.3103 0.243 0.0
C961 C 0.39798 0.32923 0.30602 0.0
C962 C 0.41915 0.32579 0.28159 0.0
C963 C 0.43009 0.31931 0.22453 0.0
C964 C 0.41962 0.31461 0.19283 0.0
C965 C 0.40967 0.31786 0.24975 0.0
C966 C 0.3889 0.30614 0.18669 0.0
C967 C 0.36877 0.30361 0.21142 0.0
H968 H 0.54138 0.51 0.05576 0.0
H969 H 0.59364 0.44643 0.99313 0.0
H970 H 0.58708 0.4041 0.02819 0.0
H971 H 0.55575 0.38107 0.06912 0.0
H972 H 0.49724 0.44308 0.12619 0.0
H973 H 0.51671 0.49009 0.10148 0.0
C974 C 0.55251 0.48743 0.05082 0.0
C975 C 0.56788 0.48113 0.02207 0.0
C976 C 0.54655 0.46254 0.06975 0.0
C977 C 0.58197 0.45179 0.01533 0.0
C978 C 0.57764 0.4274 0.03508 0.0
C979 C 0.5482 0.40518 0.07688 0.0
C980 C 0.52522 0.4088 0.09949 0.0
C981 C 0.55837 0.43177 0.06124 0.0
C982 C 0.51499 0.43989 0.10892 0.0
C983 C 0.52603 0.4667 0.09468 0.0
H984 H 0.634 0.24424 0.25869 0.0
H985 H 0.69893 0.22886 0.18452 0.0
H986 H 0.66346 0.2448 0.14619 0.0
H987 H 0.61449 0.26541 0.13486 0.0
H988 H 0.55089 0.28267 0.2108 0.0
H989 H 0.58546 0.26424 0.24755 0.0
C990 C 0.64029 0.24457 0.23412 0.0
C991 C 0.66887 0.23576 0.22426 0.0
C992 C 0.62013 0.25433 0.21272 0.0
C993 C 0.67687 0.23554 0.19237 0.0
C994 C 0.6567 0.2448 0.17064 0.0
C995 C 0.6082 0.26507 0.15942 0.0
C996 C 0.58017 0.27555 0.17002 0.0
C997 C 0.62835 0.25461 0.18067 0.0
C998 C 0.57236 0.27494 0.20197 0.0
C999 C 0.59208 0.26432 0.22306 0.0
H1000 H 0.44251 0.14761 0.97576 0.0
H1001 H 0.50666 0.10697 0.03147 0.0
H1002 H 0.5218 0.16167 0.05939 0.0
H1003 H 0.51038 0.21936 0.07353 0.0
H1004 H 0.44417 0.25894 0.01848 0.0
H1005 H 0.4363 0.20663 0.98464 0.0
C1006 C 0.46049 0.15114 0.99331 0.0
C1007 C 0.47353 0.12374 1.00177 0.0
C1008 C 0.46814 0.18234 0.00983 0.0
C1009 C 0.49666 0.12803 0.02455 0.0
C1010 C 0.50494 0.15917 0.04074 0.0
C1011 C 0.49461 0.21671 0.05381 0.0
C1012 C 0.47746 0.24294 0.04903 0.0
C1013 C 0.48986 0.1863 0.03452 0.0
C1014 C 0.45737 0.23912 0.02309 0.0
C1015 C 0.45282 0.20916 1.00364 0.0
H1016 H 0.242 0.33316 0.70491 0.0
H1017 H 0.27201 0.28541 0.78153 0.0
H1018 H 0.30721 0.33241 0.79944 0.0
H1019 H 0.3234 0.39014 0.79788 0.0
H1020 H 0.29528 0.43779 0.7202 0.0
H1021 H 0.26558 0.3878 0.69769 0.0
C1022 C 0.25709 0.33274 0.72478 0.0
C1023 C 0.25433 0.30629 0.74227 0.0
C1024 C 0.27706 0.36003 0.73502 0.0
C1025 C 0.27377 0.30581 0.76806 0.0
C1026 C 0.29366 0.33271 0.77838 0.0
C1027 C 0.31117 0.38931 0.77572 0.0
C1028 C 0.31099 0.41759 0.76095 0.0
C1029 C 0.29451 0.36049 0.76285 0.0
C1030 C 0.29556 0.41624 0.732 0.0
C1031 C 0.27851 0.38773 0.71923 0.0
H1032 H 0.22294 0.67011 0.82338 0.0
H1033 H 0.26932 0.69798 0.74172 0.0
H1034 H 0.30356 0.65442 0.74325 0.0
H1035 H 0.31787 0.60592 0.76584 0.0
H1036 H 0.27033 0.57762 0.84726 0.0
H1037 H 0.23918 0.62359 0.84794 0.0
C1038 C 0.24099 0.66688 0.80645 0.0
C1039 C 0.24386 0.68698 0.78253 0.0
C1040 C 0.26011 0.64143 0.8072 0.0
C1041 C 0.26693 0.68258 0.76029 0.0
C1042 C 0.28632 0.65765 0.76111 0.0
C1043 C 0.30081 0.60988 0.78382 0.0
C1044 C 0.2964 0.58804 0.80625 0.0
C1045 C 0.28274 0.63645 0.78408 0.0
C1046 C 0.27421 0.59379 0.82949 0.0
C1047 C 0.25633 0.62017 0.82999 0.0
H1048 H 0.90385 0.52594 0.49909 0.0
H1049 H 0.83943 0.54856 0.43193 0.0
H1050 H 0.80237 0.50773 0.44913 0.0
H1051 H 0.79099 0.46125 0.47943 0.0
H1052 H 0.85808 0.43666 0.54327 0.0
H1053 H 0.89142 0.48282 0.53185 0.0
C1054 C 0.8815 0.52202 0.48867 0.0
C1055 C 0.87409 0.53964 0.46432 0.0
C1056 C 0.86099 0.49818 0.49811 0.0
C1057 C 0.84527 0.53493 0.45073 0.0
C1058 C 0.82429 0.51163 0.4605 0.0
C1059 C 0.81262 0.46663 0.49132 0.0
C1060 C 0.8222 0.4458 0.51214 0.0
C1061 C 0.83219 0.4925 0.48365 0.0
C1062 C 0.8504 0.45247 0.52712 0.0
C1063 C 0.86948 0.47871 0.52052 0.0
H1064 H 0.75554 0.8437 0.82232 0.0
H1065 H 0.81492 0.9309 0.83821 0.0
H1066 H 0.77245 0.96475 0.83377 0.0
H1067 H 0.71839 0.96893 0.82412 0.0
H1068 H 0.65914 0.88089 0.81007 0.0
H1069 H 0.70141 0.84794 0.81535 0.0
C1070 C 0.75892 0.87015 0.82512 0.0
C1071 C 0.78801 0.88502 0.83039 0.0
C1072 C 0.73448 0.88918 0.82282 0.0
C1073 C 0.79255 0.9192 0.83388 0.0
C1074 C 0.76834 0.9384 0.83137 0.0
C1075 C 0.71474 0.94255 0.82227 0.0
C1076 C 0.68561 0.92746 0.81656 0.0
C1077 C 0.7392 0.92362 0.82558 0.0
C1078 C 0.68127 0.89323 0.81448 0.0
C1079 C 0.70544 0.87429 0.81744 0.0
H1080 H 0.62058 0.49832 0.93679 0.0
H1081 H 0.60666 0.55052 0.02945 0.0
H1082 H 0.65843 0.57545 0.03046 0.0
H1083 H 0.70573 0.58665 1.00197 0.0
H1084 H 0.71843 0.53427 0.90848 0.0
H1085 H 0.66911 0.50546 0.91051 0.0
C1086 C 0.62934 0.51449 0.95747 0.0
C1087 C 0.61019 0.52261 0.98305 0.0
C1088 C 0.65862 0.52929 0.95731 0.0
C1089 C 0.62133 0.54371 0.00975 0.0
C1090 C 0.6507 0.55827 0.01005 0.0
C1091 C 0.69773 0.56887 0.98209 0.0
C1092 C 0.71571 0.56303 0.95492 0.0
C1093 C 0.66924 0.55205 0.98348 0.0
C1094 C 0.70511 0.53949 0.9296 0.0
C1095 C 0.67688 0.52289 0.93074 0.0
H1096 H 0.26253 0.6556 0.24137 0.0
H1097 H 0.25853 0.71025 0.33461 0.0
H1098 H 0.22904 0.66429 0.35326 0.0
H1099 H 0.19879 0.61158 0.34061 0.0
H1100 H 0.19894 0.56021 0.24515 0.0
H1101 H 0.2349 0.60204 0.22944 0.0
C1102 C 0.25551 0.65706 0.26589 0.0
C1103 C 0.26234 0.68609 0.28661 0.0
C1104 C 0.23723 0.63147 0.27569 0.0
C1105 C 0.25362 0.68794 0.31841 0.0
C1106 C 0.23643 0.66188 0.32885 0.0
C1107 C 0.20691 0.60941 0.31645 0.0
C1108 C 0.19594 0.58296 0.29399 0.0
C1109 C 0.22715 0.63401 0.30736 0.0
C1110 C 0.2067 0.5805 0.26279 0.0
C1111 C 0.22738 0.60433 0.25381 0.0
H1112 H 0.91874 0.52741 0.07926 0.0
H1113 H 0.97043 0.50422 0.9949 0.0
H1114 H 0.93841 0.53553 0.96552 0.0
H1115 H 0.89373 0.56632 0.96314 0.0
H1116 H 0.84317 0.59225 0.0481 0.0
H1117 H 0.87705 0.56383 0.07828 0.0
C1118 C 0.9232 0.52991 0.05464 0.0
C1119 C 0.94664 0.51355 0.03904 0.0
C1120 C 0.90491 0.54833 0.03811 0.0
C1121 C 0.95228 0.51653 0.0071 0.0
C1122 C 0.93403 0.53438 0.99041 0.0
C1123 C 0.89031 0.56604 0.98833 0.0
C1124 C 0.86581 0.58104 1.00328 0.0
C1125 C 0.90995 0.54988 0.00552 0.0
C1126 C 0.86189 0.58088 0.03604 0.0
C1127 C 0.88115 0.56448 0.05327 0.0
H1128 H 0.10656 1.00626 0.0861 0.0
H1129 H 0.06448 0.98308 0.99412 0.0
H1130 H 0.10739 0.95238 0.97447 0.0
H1131 H 0.15413 0.92688 0.9856 0.0
H1132 H 0.19319 0.94636 0.07971 0.0
H1133 H 0.15395 0.98285 0.09669 0.0
C1134 C 0.10701 0.99467 0.06168 0.0
C1135 C 0.08234 0.9966 0.04163 0.0
C1136 C 0.13091 0.97571 0.05123 0.0
C1137 C 0.08332 0.98211 0.00987 0.0
C1138 C 0.10765 0.96418 0.99884 0.0
C1139 C 0.15418 0.93926 0.00977 0.0
C1140 C 0.17656 0.93356 0.03139 0.0
C1141 C 0.13112 0.95991 0.01962 0.0
C1142 C 0.17618 0.94991 0.06262 0.0
C1143 C 0.15378 0.97095 0.07234 0.0
loop_
_geom_bond_atom_site_label_1
_geom_bond_atom_site_label_2
_geom_bond_distance
_geom_bond_site_symmetry_2
_ccdc_geom_bond_type
C0 N1 1.317 1_565 S
C0 N2 1.352 1_565 S
C0 C3 1.485 . S
N1 C0 1.317 1_545 S
N1 N5 1.370 . S
N2 C0 1.352 1_545 S
N2 C4 1.346 1_455 S
C3 C0 1.485 . S
C3 H7 0.960 . S
C3 H8 0.961 . S
C3 H9 0.960 . S
C4 N2 1.346 1_655 S
C4 N5 1.307 1_655 S
C4 C6 1.486 . S
N5 N1 1.370 . S
N5 C4 1.307 1_455 S
C6 C4 1.486 . S
C6 H10 0.960 . S
C6 H11 0.960 . S
C6 H12 0.959 . S
H7 C3 0.960 . S
H8 C3 0.961 . S
H9 C3 0.960 . S
H10 C6 0.960 . S
H11 C6 0.960 . S
H12 C6 0.959 . S
C13 N14 1.317 . S
C13 N15 1.348 . S
C13 C16 1.485 . S
N14 C13 1.317 . S
N14 N18 1.370 . S
N15 C13 1.348 . S
N15 C17 1.346 . S
C16 C13 1.485 . S
C16 H20 0.960 . S
C16 H21 0.961 . S
C16 H22 0.960 . S
C17 N15 1.346 . S
C17 N18 1.307 . S
C17 C19 1.486 . S
N18 N14 1.370 . S
N18 C17 1.307 . S
C19 C17 1.486 . S
C19 H23 0.960 . S
C19 H24 0.960 . S
C19 H25 0.959 . S
H20 C16 0.960 . S
H21 C16 0.961 . S
H22 C16 0.960 . S
H23 C19 0.960 . S
H24 C19 0.960 . S
H25 C19 0.959 . S
C26 N27 1.317 . S
C26 N28 1.348 . S
C26 C29 1.485 . S
N27 C26 1.317 . S
N27 N31 1.370 . S
N28 C26 1.348 . S
N28 C30 1.346 . S
C29 C26 1.485 . S
C29 H33 0.960 . S
C29 H34 0.961 . S
C29 H35 0.960 . S
C30 N28 1.346 . S
C30 N31 1.307 . S
C30 C32 1.486 . S
N31 N27 1.370 . S
N31 C30 1.307 . S
C32 C30 1.486 . S
C32 H36 0.960 . S
C32 H37 0.960 . S
C32 H38 0.959 . S
H33 C29 0.960 . S
H34 C29 0.961 . S
H35 C29 0.960 . S
H36 C32 0.960 . S
H37 C32 0.960 . S
H38 C32 0.959 . S
C39 N40 1.317 . S
C39 N41 1.348 . S
C39 C42 1.485 . S
N40 C39 1.317 . S
N40 N44 1.370 . S
N41 C39 1.348 . S
N41 C43 1.346 . S
C42 C39 1.485 . S
C42 H46 0.960 . S
C42 H47 0.961 . S
C42 H48 0.960 . S
C43 N41 1.346 . S
C43 N44 1.307 . S
C43 C45 1.486 . S
N44 N40 1.370 . S
N44 C43 1.307 . S
C45 C43 1.486 . S
C45 H49 0.960 . S
C45 H50 0.960 . S
C45 H51 0.959 . S
H46 C42 0.960 . S
H47 C42 0.961 . S
H48 C42 0.960 . S
H49 C45 0.960 . S
H50 C45 0.960 . S
H51 C45 0.959 . S
C52 N53 1.317 . S
C52 N54 1.348 . S
C52 C55 1.485 . S
N53 C52 1.317 . S
N53 N57 1.370 . S
N54 C52 1.348 . S
N54 C56 1.346 . S
C55 C52 1.485 . S
C55 H59 0.960 . S
C55 H60 0.961 1_455 S
C55 H61 0.960 . S
C56 N54 1.346 . S
C56 N57 1.307 . S
C56 C58 1.486 1_565 S
N57 N53 1.370 . S
N57 C56 1.307 . S
C58 C56 1.486 1_545 S
C58 H62 0.960 . S
C58 H63 0.960 . S
C58 H64 0.959 . S
H59 C55 0.960 . S
H60 C55 0.961 1_655 S
H61 C55 0.960 . S
H62 C58 0.960 . S
H63 C58 0.960 . S
H64 C58 0.959 . S
C65 N66 1.317 . S
C65 N67 1.348 . S
C65 C68 1.485 . S
N66 C65 1.317 . S
N66 N70 1.370 . S
N67 C65 1.348 . S
N67 C69 1.346 . S
C68 C65 1.485 . S
C68 H72 0.960 . S
C68 H73 0.961 . S
C68 H74 0.960 . S
C69 N67 1.346 . S
C69 N70 1.307 . S
C69 C71 1.486 . S
N70 N66 1.370 . S
N70 C69 1.307 . S
C71 C69 1.486 . S
C71 H75 0.960 . S
C71 H76 0.960 . S
C71 H77 0.959 . S
H72 C68 0.960 . S
H73 C68 0.961 . S
H74 C68 0.960 . S
H75 C71 0.960 . S
H76 C71 0.960 . S
H77 C71 0.959 . S
C78 N79 1.317 . S
C78 N80 1.348 . S
C78 C81 1.485 . S
N79 C78 1.317 . S
N79 N83 1.370 . S
N80 C78 1.348 . S
N80 C82 1.346 . S
C81 C78 1.485 . S
C81 H85 0.960 . S
C81 H86 0.961 . S
C81 H87 0.960 . S
C82 N80 1.346 . S
C82 N83 1.307 . S
C82 C84 1.486 . S
N83 N79 1.370 . S
N83 C82 1.307 . S
C84 C82 1.486 . S
C84 H88 0.960 . S
C84 H89 0.960 . S
C84 H90 0.959 . S
H85 C81 0.960 . S
H86 C81 0.961 . S
H87 C81 0.960 . S
H88 C84 0.960 . S
H89 C84 0.960 . S
H90 C84 0.959 . S
C91 N92 1.317 . S
C91 N93 1.348 . S
C91 C94 1.485 . S
N92 C91 1.317 . S
N92 N96 1.370 . S
N93 C91 1.348 . S
N93 C95 1.346 . S
C94 C91 1.485 . S
C94 H98 0.960 . S
C94 H99 0.961 . S
C94 H100 0.960 . S
C95 N93 1.346 . S
C95 N96 1.307 . S
C95 C97 1.486 . S
N96 N92 1.370 . S
N96 C95 1.307 . S
C97 C95 1.486 . S
C97 H101 0.960 . S
C97 H102 0.960 . S
C97 H103 0.959 . S
H98 C94 0.960 . S
H99 C94 0.961 . S
H100 C94 0.960 . S
H101 C97 0.960 . S
H102 C97 0.960 . S
H103 C97 0.959 . S
C104 N105 1.317 . S
C104 N106 1.348 . S
C104 C107 1.485 . S
N105 C104 1.317 . S
N105 N109 1.370 . S
N106 C104 1.348 . S
N106 C108 1.346 . S
C107 C104 1.485 . S
C107 H111 0.960 . S
C107 H112 0.961 . S
C107 H113 0.960 . S
C108 N106 1.346 . S
C108 N109 1.307 . S
C108 C110 1.486 . S
N109 N105 1.370 . S
N109 C108 1.307 . S
C110 C108 1.486 . S
C110 H114 0.960 . S
C110 H115 0.960 . S
C110 H116 0.959 . S
H111 C107 0.960 . S
H112 C107 0.961 . S
H113 C107 0.960 . S
H114 C110 0.960 . S
H115 C110 0.960 . S
H116 C110 0.959 . S
C117 N118 1.317 . S
C117 N119 1.348 . S
C117 C120 1.485 1_565 S
N118 C117 1.317 . S
N118 N122 1.370 . S
N119 C117 1.348 . S
N119 C121 1.346 . S
C120 C117 1.485 1_545 S
C120 H124 0.960 . S
C120 H125 0.961 . S
C120 H126 0.960 . S
C121 N119 1.346 . S
C121 N122 1.307 . S
C121 C123 1.486 . S
N122 N118 1.370 . S
N122 C121 1.307 . S
C123 C121 1.486 . S
C123 H127 0.960 . S
C123 H128 0.960 . S
C123 H129 0.959 . S
H124 C120 0.960 . S
H125 C120 0.961 . S
H126 C120 0.960 . S
H127 C123 0.960 . S
H128 C123 0.960 . S
H129 C123 0.959 . S
C130 N131 1.317 . S
C130 N132 1.348 . S
C130 C133 1.485 . S
N131 C130 1.317 . S
N131 N135 1.370 . S
N132 C130 1.348 . S
N132 C134 1.346 . S
C133 C130 1.485 . S
C133 H137 0.960 . S
C133 H138 0.961 . S
C133 H139 0.960 . S
C134 N132 1.346 . S
C134 N135 1.307 . S
C134 C136 1.486 . S
N135 N131 1.370 . S
N135 C134 1.307 . S
C136 C134 1.486 . S
C136 H140 0.960 . S
C136 H141 0.960 . S
C136 H142 0.959 . S
H137 C133 0.960 . S
H138 C133 0.961 . S
H139 C133 0.960 . S
H140 C136 0.960 . S
H141 C136 0.960 . S
H142 C136 0.959 . S
C143 N144 1.317 . S
C143 N145 1.348 . S
C143 C146 1.485 . S
N144 C143 1.317 . S
N144 N148 1.370 . S
N145 C143 1.348 . S
N145 C147 1.346 . S
C146 C143 1.485 . S
C146 H150 0.960 . S
C146 H151 0.961 . S
C146 H152 0.960 . S
C147 N145 1.346 . S
C147 N148 1.307 . S
C147 C149 1.486 . S
N148 N144 1.370 . S
N148 C147 1.307 . S
C149 C147 1.486 . S
C149 H153 0.960 . S
C149 H154 0.960 . S
C149 H155 0.959 . S
H150 C146 0.960 . S
H151 C146 0.961 . S
H152 C146 0.960 . S
H153 C149 0.960 . S
H154 C149 0.960 . S
H155 C149 0.959 . S
C156 N157 1.317 . S
C156 N158 1.348 . S
C156 C159 1.485 . S
N157 C156 1.317 . S
N157 N161 1.370 . S
N158 C156 1.348 . S
N158 C160 1.346 . S
C159 C156 1.485 . S
C159 H163 0.960 . S
C159 H164 0.961 . S
C159 H165 0.960 . S
C160 N158 1.346 . S
C160 N161 1.307 . S
C160 C162 1.486 . S
N161 N157 1.370 . S
N161 C160 1.307 . S
C162 C160 1.486 . S
C162 H166 0.960 . S
C162 H167 0.960 . S
C162 H168 0.959 . S
H163 C159 0.960 . S
H164 C159 0.961 . S
H165 C159 0.960 . S
H166 C162 0.960 . S
H167 C162 0.960 . S
H168 C162 0.959 . S
C169 N170 1.317 . S
C169 N171 1.348 . S
C169 C172 1.485 . S
N170 C169 1.317 . S
N170 N174 1.370 . S
N171 C169 1.348 . S
N171 C173 1.346 . S
C172 C169 1.485 . S
C172 H176 0.960 . S
C172 H177 0.961 . S
C172 H178 0.960 . S
C173 N171 1.346 . S
C173 N174 1.307 . S
C173 C175 1.486 . S
N174 N170 1.370 . S
N174 C173 1.307 . S
C175 C173 1.486 . S
C175 H179 0.960 . S
C175 H180 0.960 . S
C175 H181 0.959 . S
H176 C172 0.960 . S
H177 C172 0.961 . S
H178 C172 0.960 . S
H179 C175 0.960 . S
H180 C175 0.960 . S
H181 C175 0.959 . S
C182 N183 1.317 . S
C182 N184 1.348 . S
C182 C185 1.485 . S
N183 C182 1.317 . S
N183 N187 1.370 . S
N184 C182 1.348 . S
N184 C186 1.346 . S
C185 C182 1.485 . S
C185 H189 0.960 . S
C185 H190 0.961 . S
C185 H191 0.960 . S
C186 N184 1.346 . S
C186 N187 1.307 . S
C186 C188 1.486 . S
N187 N183 1.370 . S
N187 C186 1.307 . S
C188 C186 1.486 . S
C188 H192 0.960 . S
C188 H193 0.960 . S
C188 H194 0.959 . S
H189 C185 0.960 . S
H190 C185 0.961 . S
H191 C185 0.960 . S
H192 C188 0.960 . S
H193 C188 0.960 . S
H194 C188 0.959 . S
C195 N196 1.317 . S
C195 N197 1.348 . S
C195 C198 1.485 . S
N196 C195 1.317 . S
N196 N200 1.370 . S
N197 C195 1.348 . S
N197 C199 1.346 . S
C198 C195 1.485 . S
C198 H202 0.960 . S
C198 H203 0.961 1_545 S
C198 H204 0.960 . S
C199 N197 1.346 . S
C199 N200 1.307 . S
C199 C201 1.486 1_556 S
N200 N196 1.370 . S
N200 C199 1.307 . S
C201 C199 1.486 1_554 S
C201 H205 0.960 . S
C201 H206 0.960 1_554 S
C201 H207 0.959 . S
H202 C198 0.960 . S
H203 C198 0.961 1_565 S
H204 C198 0.960 . S
H205 C201 0.960 . S
H206 C201 0.960 1_556 S
H207 C201 0.959 . S
Zn208 O211 2.044 . S
Zn208 O213 2.039 1_554 S
Zn208 O218 2.051 1_554 S
Zn209 O210 1.962 . S
Zn209 O212 1.986 . S
Zn209 O214 1.996 . S
Zn209 O217 1.943 1_554 S
O210 Zn209 1.962 . S
O210 C215 1.254 . S
O211 Zn208 2.044 . S
O211 C215 1.269 . S
O212 Zn209 1.986 . S
O212 C219 1.262 . S
O213 Zn208 2.039 1_556 S
O213 C221 1.260 . S
O214 Zn209 1.996 . S
O214 C221 1.257 1_554 S
C215 O210 1.254 . S
C215 O211 1.269 . S
C216 O217 1.249 . S
C216 O218 1.270 . S
O217 Zn209 1.943 1_556 S
O217 C216 1.249 . S
O218 Zn208 2.051 1_556 S
O218 C216 1.270 . S
C219 O212 1.262 . S
C219 O220 1.232 . S
O220 C219 1.232 . S
C221 O213 1.260 . S
C221 O214 1.257 1_556 S
Zn222 O225 2.031 . S
Zn222 O227 2.049 . S
Zn222 O232 2.067 . S
Zn223 O224 1.962 . S
Zn223 O226 1.986 . S
Zn223 O228 1.996 . S
Zn223 O231 1.943 . S
O224 Zn223 1.962 . S
O224 C229 1.254 . S
O225 Zn222 2.031 . S
O225 C229 1.269 . S
O226 Zn223 1.986 . S
O226 C233 1.262 . S
O227 Zn222 2.049 . S
O227 C235 1.260 . S
O228 Zn223 1.996 . S
O228 C235 1.257 . S
C229 O224 1.254 . S
C229 O225 1.269 . S
C230 O231 1.249 . S
C230 O232 1.270 . S
O231 Zn223 1.943 . S
O231 C230 1.249 . S
O232 Zn222 2.067 . S
O232 C230 1.270 . S
C233 O226 1.262 . S
C233 O234 1.232 . S
O234 C233 1.232 . S
C235 O227 1.260 . S
C235 O228 1.257 . S
Zn236 O239 2.031 . S
Zn236 O241 2.049 . S
Zn236 O246 2.067 . S
Zn237 O238 1.962 . S
Zn237 O240 1.986 . S
Zn237 O242 1.996 1_554 S
Zn237 O245 1.943 . S
O238 Zn237 1.962 . S
O238 C243 1.254 . S
O239 Zn236 2.031 . S
O239 C243 1.269 1_556 S
O240 Zn237 1.986 . S
O240 C247 1.262 . S
O241 Zn236 2.049 . S
O241 C249 1.260 . S
O242 Zn237 1.996 1_556 S
O242 C249 1.257 . S
C243 O238 1.254 . S
C243 O239 1.269 1_554 S
C244 O245 1.249 1_556 S
C244 O246 1.270 . S
O245 Zn237 1.943 . S
O245 C244 1.249 1_554 S
O246 Zn236 2.067 . S
O246 C244 1.270 . S
C247 O240 1.262 . S
C247 O248 1.232 . S
O248 C247 1.232 . S
C249 O241 1.260 . S
C249 O242 1.257 . S
Zn250 O253 2.031 . S
Zn250 O255 2.049 1_545 S
Zn250 O260 2.067 1_545 S
Zn251 O252 1.962 . S
Zn251 O254 1.986 . S
Zn251 O256 1.996 . S
Zn251 O259 1.943 1_545 S
O252 Zn251 1.962 . S
O252 C257 1.254 . S
O253 Zn250 2.031 . S
O253 C257 1.269 . S
O254 Zn251 1.986 . S
O254 C261 1.262 . S
O255 Zn250 2.049 1_565 S
O255 C263 1.260 . S
O256 Zn251 1.996 . S
O256 C263 1.257 1_545 S
C257 O252 1.254 . S
C257 O253 1.269 . S
C258 O259 1.249 . S
C258 O260 1.270 . S
O259 Zn251 1.943 1_565 S
O259 C258 1.249 . S
O260 Zn250 2.067 1_565 S
O260 C258 1.270 . S
C261 O254 1.262 . S
C261 O262 1.232 . S
O262 C261 1.232 . S
C263 O255 1.260 . S
C263 O256 1.257 1_565 S
Zn264 O267 2.031 . S
Zn264 O269 2.049 . S
Zn264 O274 2.067 . S
Zn265 O266 1.962 . S
Zn265 O268 1.986 . S
Zn265 O270 1.996 . S
Zn265 O273 1.943 . S
O266 Zn265 1.962 . S
O266 C271 1.254 . S
O267 Zn264 2.031 . S
O267 C271 1.269 . S
O268 Zn265 1.986 . S
O268 C275 1.262 . S
O269 Zn264 2.049 . S
O269 C277 1.260 . S
O270 Zn265 1.996 . S
O270 C277 1.257 . S
C271 O266 1.254 . S
C271 O267 1.269 . S
C272 O273 1.249 . S
C272 O274 1.270 . S
O273 Zn265 1.943 . S
O273 C272 1.249 . S
O274 Zn264 2.067 . S
O274 C272 1.270 . S
C275 O268 1.262 . S
C275 O276 1.232 . S
O276 C275 1.232 . S
C277 O269 1.260 . S
C277 O270 1.257 . S
Zn278 O281 2.031 . S
Zn278 O283 2.049 . S
Zn278 O288 2.067 . S
Zn279 O280 1.962 . S
Zn279 O282 1.986 . S
Zn279 O284 1.996 . S
Zn279 O287 1.943 . S
O280 Zn279 1.962 . S
O280 C285 1.254 . S
O281 Zn278 2.031 . S
O281 C285 1.269 . S
O282 Zn279 1.986 . S
O282 C289 1.262 . S
O283 Zn278 2.049 . S
O283 C291 1.260 . S
O284 Zn279 1.996 . S
O284 C291 1.257 . S
C285 O280 1.254 . S
C285 O281 1.269 . S
C286 O287 1.249 . S
C286 O288 1.270 . S
O287 Zn279 1.943 . S
O287 C286 1.249 . S
O288 Zn278 2.067 . S
O288 C286 1.270 . S
C289 O282 1.262 . S
C289 O290 1.232 . S
O290 C289 1.232 . S
C291 O283 1.260 . S
C291 O284 1.257 . S
Zn292 O295 2.031 . S
Zn292 O297 2.049 . S
Zn292 O302 2.067 . S
Zn293 O294 1.962 . S
Zn293 O296 1.986 . S
Zn293 O298 1.996 . S
Zn293 O301 1.943 . S
O294 Zn293 1.962 . S
O294 C299 1.254 . S
O295 Zn292 2.031 . S
O295 C299 1.269 . S
O296 Zn293 1.986 . S
O296 C303 1.262 . S
O297 Zn292 2.049 . S
O297 C305 1.260 . S
O298 Zn293 1.996 . S
O298 C305 1.257 . S
C299 O294 1.254 . S
C299 O295 1.269 . S
C300 O301 1.249 . S
C300 O302 1.270 . S
O301 Zn293 1.943 . S
O301 C300 1.249 . S
O302 Zn292 2.067 . S
O302 C300 1.270 . S
C303 O296 1.262 . S
C303 O304 1.232 . S
O304 C303 1.232 . S
C305 O297 1.260 . S
C305 O298 1.257 . S
Zn306 O309 2.031 1_565 S
Zn306 O311 2.049 . S
Zn306 O316 2.067 . S
Zn307 O308 1.962 . S
Zn307 O310 1.986 . S
Zn307 O312 1.996 1_545 S
Zn307 O315 1.943 . S
O308 Zn307 1.962 . S
O308 C313 1.254 . S
O309 Zn306 2.031 1_545 S
O309 C313 1.269 . S
O310 Zn307 1.986 . S
O310 C317 1.262 . S
O311 Zn306 2.049 . S
O311 C319 1.260 . S
O312 Zn307 1.996 1_565 S
O312 C319 1.257 . S
C313 O308 1.254 . S
C313 O309 1.269 . S
C314 O315 1.249 1_565 S
C314 O316 1.270 . S
O315 Zn307 1.943 . S
O315 C314 1.249 1_545 S
O316 Zn306 2.067 . S
O316 C314 1.270 . S
C317 O310 1.262 . S
C317 O318 1.232 . S
O318 C317 1.232 . S
C319 O311 1.260 . S
C319 O312 1.257 . S
Zn320 O323 2.031 . S
Zn320 O325 2.049 1_455 S
Zn320 O330 2.067 1_455 S
Zn321 O322 1.962 . S
Zn321 O324 1.986 . S
Zn321 O326 1.996 . S
Zn321 O329 1.943 1_455 S
O322 Zn321 1.962 . S
O322 C327 1.254 . S
O323 Zn320 2.031 . S
O323 C327 1.269 . S
O324 Zn321 1.986 . S
O324 C331 1.262 . S
O325 Zn320 2.049 1_655 S
O325 C333 1.260 . S
O326 Zn321 1.996 . S
O326 C333 1.257 1_455 S
C327 O322 1.254 . S
C327 O323 1.269 . S
C328 O329 1.249 . S
C328 O330 1.270 . S
O329 Zn321 1.943 1_655 S
O329 C328 1.249 . S
O330 Zn320 2.067 1_655 S
O330 C328 1.270 . S
C331 O324 1.262 . S
C331 O332 1.232 . S
O332 C331 1.232 . S
C333 O325 1.260 . S
C333 O326 1.257 1_655 S
Zn334 O337 2.031 . S
Zn334 O339 2.049 . S
Zn334 O344 2.067 . S
Zn335 O336 1.962 . S
Zn335 O338 1.986 . S
Zn335 O340 1.996 . S
Zn335 O343 1.943 . S
O336 Zn335 1.962 . S
O336 C341 1.254 . S
O337 Zn334 2.031 . S
O337 C341 1.269 . S
O338 Zn335 1.986 . S
O338 C345 1.262 . S
O339 Zn334 2.049 . S
O339 C347 1.260 . S
O340 Zn335 1.996 . S
O340 C347 1.257 . S
C341 O336 1.254 . S
C341 O337 1.269 . S
C342 O343 1.249 . S
C342 O344 1.270 . S
O343 Zn335 1.943 . S
O343 C342 1.249 . S
O344 Zn334 2.067 . S
O344 C342 1.270 . S
C345 O338 1.262 . S
C345 O346 1.232 . S
O346 C345 1.232 . S
C347 O339 1.260 . S
C347 O340 1.257 . S
Zn348 O351 2.031 1_655 S
Zn348 O353 2.049 . S
Zn348 O358 2.067 . S
Zn349 O350 1.962 . S
Zn349 O352 1.986 . S
Zn349 O354 1.996 1_455 S
Zn349 O357 1.943 . S
O350 Zn349 1.962 . S
O350 C355 1.254 . S
O351 Zn348 2.031 1_455 S
O351 C355 1.269 . S
O352 Zn349 1.986 . S
O352 C359 1.262 . S
O353 Zn348 2.049 . S
O353 C361 1.260 . S
O354 Zn349 1.996 1_655 S
O354 C361 1.257 . S
C355 O350 1.254 . S
C355 O351 1.269 . S
C356 O357 1.226 1_655 S
C356 O358 1.300 . S
O357 Zn349 1.943 . S
O357 C356 1.226 1_455 S
O358 Zn348 2.067 . S
O358 C356 1.300 . S
C359 O352 1.262 . S
C359 O360 1.232 . S
O360 C359 1.232 . S
C361 O353 1.260 . S
C361 O354 1.257 . S
Zn362 O365 2.031 . S
Zn362 O367 2.049 . S
Zn362 O372 2.067 . S
Zn363 O364 1.962 . S
Zn363 O366 1.986 . S
Zn363 O368 1.996 . S
Zn363 O371 1.943 . S
O364 Zn363 1.962 . S
O364 C369 1.254 . S
O365 Zn362 2.031 . S
O365 C369 1.269 . S
O366 Zn363 1.986 . S
O366 C373 1.262 . S
O367 Zn362 2.049 . S
O367 C375 1.260 . S
O368 Zn363 1.996 . S
O368 C375 1.257 . S
C369 O364 1.254 . S
C369 O365 1.269 . S
C370 O371 1.249 . S
C370 O372 1.270 . S
O371 Zn363 1.943 . S
O371 C370 1.249 . S
O372 Zn362 2.067 . S
O372 C370 1.270 . S
C373 O366 1.262 . S
C373 O374 1.232 . S
O374 C373 1.232 . S
C375 O367 1.260 . S
C375 O368 1.257 . S
H376 C382 0.930 . S
H377 C385 0.930 . S
H378 C386 0.930 . S
H379 C387 0.930 . S
H380 C390 0.930 . S
H381 C391 0.930 . S
C382 H376 0.930 . S
C382 C383 1.355 . S
C382 C384 1.415 . S
C383 C382 1.355 . S
C383 C385 1.419 . S
C384 C382 1.415 . S
C384 C389 1.425 . S
C384 C391 1.409 . S
C385 H377 0.930 . S
C385 C383 1.419 . S
C385 C386 1.362 . S
C386 H378 0.930 . S
C386 C385 1.362 . S
C386 C389 1.409 . S
C387 H379 0.930 . S
C387 C388 1.355 . S
C387 C389 1.415 . S
C388 C387 1.355 . S
C388 C390 1.419 . S
C389 C384 1.425 . S
C389 C386 1.409 . S
C389 C387 1.415 . S
C390 H380 0.930 . S
C390 C388 1.419 . S
C390 C391 1.362 . S
C391 H381 0.930 . S
C391 C384 1.409 . S
C391 C390 1.362 . S
H392 C398 0.930 . S
H393 C401 0.930 . S
H394 C402 0.930 . S
H395 C403 0.930 . S
H396 C406 0.930 . S
H397 C407 0.930 . S
C398 H392 0.930 . S
C398 C399 1.355 . S
C398 C400 1.415 1_655 S
C399 C398 1.355 . S
C399 C401 1.419 1_655 S
C400 C398 1.415 1_455 S
C400 C405 1.425 . S
C400 C407 1.409 . S
C401 H393 0.930 . S
C401 C399 1.419 1_455 S
C401 C402 1.362 . S
C402 H394 0.930 . S
C402 C401 1.362 . S
C402 C405 1.409 . S
C403 H395 0.930 . S
C403 C404 1.355 . S
C403 C405 1.415 . S
C404 C403 1.355 . S
C404 C406 1.419 . S
C405 C400 1.425 . S
C405 C402 1.409 . S
C405 C403 1.415 . S
C406 H396 0.930 . S
C406 C404 1.419 . S
C406 C407 1.362 . S
C407 H397 0.930 . S
C407 C400 1.409 . S
C407 C406 1.362 . S
H408 C414 0.930 . S
H409 C417 0.930 . S
H410 C418 0.930 . S
H411 C419 0.930 . S
H412 C422 0.930 . S
H413 C423 0.930 . S
C414 H408 0.930 . S
C414 C415 1.355 . S
C414 C416 1.415 . S
C415 C414 1.355 . S
C415 C417 1.419 . S
C416 C414 1.415 . S
C416 C421 1.425 . S
C416 C423 1.409 . S
C417 H409 0.930 . S
C417 C415 1.419 . S
C417 C418 1.362 . S
C418 H410 0.930 . S
C418 C417 1.362 . S
C418 C421 1.409 . S
C419 H411 0.930 . S
C419 C420 1.355 . S
C419 C421 1.415 . S
C420 C419 1.355 . S
C420 C422 1.419 . S
C421 C416 1.425 . S
C421 C418 1.409 . S
C421 C419 1.415 . S
C422 H412 0.930 . S
C422 C420 1.419 . S
C422 C423 1.362 . S
C423 H413 0.930 . S
C423 C416 1.409 . S
C423 C422 1.362 . S
H424 C430 0.930 1_445 S
H425 C433 0.930 . S
H426 C434 0.930 . S
H427 C435 0.930 . S
H428 C438 0.930 . S
H429 C439 0.930 . S
C430 H424 0.930 1_665 S
C430 C431 1.355 1_655 S
C430 C432 1.415 . S
C431 C430 1.355 1_455 S
C431 C433 1.419 . S
C432 C430 1.415 . S
C432 C437 1.425 . S
C432 C439 1.409 1_565 S
C433 H425 0.930 . S
C433 C431 1.419 . S
C433 C434 1.362 1_455 S
C434 H426 0.930 . S
C434 C433 1.362 1_655 S
C434 C437 1.409 . S
C435 H427 0.930 . S
C435 C436 1.355 . S
C435 C437 1.415 . S
C436 C435 1.355 . S
C436 C438 1.419 1_565 S
C437 C432 1.425 . S
C437 C434 1.409 . S
C437 C435 1.415 . S
C438 H428 0.930 . S
C438 C436 1.419 1_545 S
C438 C439 1.362 . S
C439 H429 0.930 . S
C439 C432 1.409 1_545 S
C439 C438 1.362 . S
H440 C446 0.930 . S
H441 C449 0.930 . S
H442 C450 0.930 . S
H443 C451 0.930 . S
H444 C454 0.930 . S
H445 C455 0.930 . S
C446 H440 0.930 . S
C446 C447 1.355 . S
C446 C448 1.415 . S
C447 C446 1.355 . S
C447 C449 1.419 . S
C448 C446 1.415 . S
C448 C453 1.425 . S
C448 C455 1.409 . S
C449 H441 0.930 . S
C449 C447 1.419 . S
C449 C450 1.362 . S
C450 H442 0.930 . S
C450 C449 1.362 . S
C450 C453 1.409 . S
C451 H443 0.930 . S
C451 C452 1.355 . S
C451 C453 1.415 . S
C452 C451 1.355 . S
C452 C454 1.419 . S
C453 C448 1.425 . S
C453 C450 1.409 . S
C453 C451 1.415 . S
C454 H444 0.930 . S
C454 C452 1.419 . S
C454 C455 1.362 . S
C455 H445 0.930 . S
C455 C448 1.409 . S
C455 C454 1.362 . S
H456 C462 0.930 . S
H457 C465 0.930 . S
H458 C466 0.930 . S
H459 C467 0.930 . S
H460 C470 0.930 . S
H461 C471 0.930 . S
C462 H456 0.930 . S
C462 C463 1.355 . S
C462 C464 1.415 . S
C463 C462 1.355 . S
C463 C465 1.419 . S
C464 C462 1.415 . S
C464 C469 1.425 . S
C464 C471 1.409 . S
C465 H457 0.930 . S
C465 C463 1.419 . S
C465 C466 1.362 . S
C466 H458 0.930 . S
C466 C465 1.362 . S
C466 C469 1.409 . S
C467 H459 0.930 . S
C467 C468 1.355 . S
C467 C469 1.415 . S
C468 C467 1.355 . S
C468 C470 1.419 . S
C469 C464 1.425 . S
C469 C466 1.409 . S
C469 C467 1.415 . S
C470 H460 0.930 . S
C470 C468 1.419 . S
C470 C471 1.362 . S
C471 H461 0.930 . S
C471 C464 1.409 . S
C471 C470 1.362 . S
H472 C478 0.930 . S
H473 C481 0.930 . S
H474 C482 0.930 . S
H475 C483 0.930 . S
H476 C486 0.930 . S
H477 C487 0.930 . S
C478 H472 0.930 . S
C478 C479 1.355 . S
C478 C480 1.415 . S
C479 C478 1.355 . S
C479 C481 1.419 . S
C480 C478 1.415 . S
C480 C485 1.425 . S
C480 C487 1.409 . S
C481 H473 0.930 . S
C481 C479 1.419 . S
C481 C482 1.362 . S
C482 H474 0.930 . S
C482 C481 1.362 . S
C482 C485 1.409 . S
C483 H475 0.930 . S
C483 C484 1.355 . S
C483 C485 1.415 . S
C484 C483 1.355 . S
C484 C486 1.419 . S
C485 C480 1.425 . S
C485 C482 1.409 . S
C485 C483 1.415 . S
C486 H476 0.930 . S
C486 C484 1.419 . S
C486 C487 1.362 . S
C487 H477 0.930 . S
C487 C480 1.409 . S
C487 C486 1.362 . S
H488 C494 0.930 . S
H489 C497 0.930 . S
H490 C498 0.930 . S
H491 C499 0.930 . S
H492 C502 0.930 . S
H493 C503 0.930 . S
C494 H488 0.930 . S
C494 C495 1.355 . S
C494 C496 1.415 . S
C495 C494 1.355 . S
C495 C497 1.419 . S
C496 C494 1.415 . S
C496 C501 1.425 . S
C496 C503 1.409 1_565 S
C497 H489 0.930 . S
C497 C495 1.419 . S
C497 C498 1.362 . S
C498 H490 0.930 . S
C498 C497 1.362 . S
C498 C501 1.409 . S
C499 H491 0.930 . S
C499 C500 1.355 . S
C499 C501 1.415 . S
C500 C499 1.355 . S
C500 C502 1.419 1_565 S
C501 C496 1.425 . S
C501 C498 1.409 . S
C501 C499 1.415 . S
C502 H492 0.930 . S
C502 C500 1.419 1_545 S
C502 C503 1.362 . S
C503 H493 0.930 . S
C503 C496 1.409 1_545 S
C503 C502 1.362 . S
H504 C510 0.930 . S
H505 C513 0.930 . S
H506 C514 0.930 . S
H507 C515 0.930 . S
H508 C518 0.930 . S
H509 C519 0.930 . S
C510 H504 0.930 . S
C510 C511 1.355 . S
C510 C512 1.415 . S
C511 C510 1.355 . S
C511 C513 1.419 . S
C512 C510 1.415 . S
C512 C517 1.425 . S
C512 C519 1.409 . S
C513 H505 0.930 . S
C513 C511 1.419 . S
C513 C514 1.362 . S
C514 H506 0.930 . S
C514 C513 1.362 . S
C514 C517 1.409 . S
C515 H507 0.930 . S
C515 C516 1.355 . S
C515 C517 1.415 . S
C516 C515 1.355 . S
C516 C518 1.419 . S
C517 C512 1.425 . S
C517 C514 1.409 . S
C517 C515 1.415 . S
C518 H508 0.930 . S
C518 C516 1.419 . S
C518 C519 1.362 . S
C519 H509 0.930 . S
C519 C512 1.409 . S
C519 C518 1.362 . S
H520 C526 0.930 . S
H521 C529 0.930 . S
H522 C530 0.930 . S
H523 C531 0.930 . S
H524 C534 0.930 . S
H525 C535 0.930 . S
C526 H520 0.930 . S
C526 C527 1.355 . S
C526 C528 1.415 . S
C527 C526 1.355 . S
C527 C529 1.419 . S
C528 C526 1.415 . S
C528 C533 1.425 . S
C528 C535 1.409 . S
C529 H521 0.930 . S
C529 C527 1.419 . S
C529 C530 1.362 . S
C530 H522 0.930 . S
C530 C529 1.362 . S
C530 C533 1.409 . S
C531 H523 0.930 . S
C531 C532 1.355 . S
C531 C533 1.415 . S
C532 C531 1.355 . S
C532 C534 1.419 . S
C533 C528 1.425 . S
C533 C530 1.409 . S
C533 C531 1.415 . S
C534 H524 0.930 . S
C534 C532 1.419 . S
C534 C535 1.362 . S
C535 H525 0.930 . S
C535 C528 1.409 . S
C535 C534 1.362 . S
H536 C542 0.930 . S
H537 C545 0.930 . S
H538 C546 0.930 . S
H539 C547 0.930 . S
H540 C550 0.930 . S
H541 C551 0.930 . S
C542 H536 0.930 . S
C542 C543 1.355 . S
C542 C544 1.415 . S
C543 C542 1.355 . S
C543 C545 1.419 . S
C544 C542 1.415 . S
C544 C549 1.425 . S
C544 C551 1.409 . S
C545 H537 0.930 . S
C545 C543 1.419 . S
C545 C546 1.362 . S
C546 H538 0.930 . S
C546 C545 1.362 . S
C546 C549 1.409 . S
C547 H539 0.930 . S
C547 C548 1.355 . S
C547 C549 1.415 . S
C548 C547 1.355 . S
C548 C550 1.419 . S
C549 C544 1.425 . S
C549 C546 1.409 . S
C549 C547 1.415 . S
C550 H540 0.930 . S
C550 C548 1.419 . S
C550 C551 1.362 . S
C551 H541 0.930 . S
C551 C544 1.409 . S
C551 C550 1.362 . S
H552 C558 0.930 . S
H553 C561 0.930 . S
H554 C562 0.930 . S
H555 C563 0.930 . S
H556 C566 0.930 . S
H557 C567 0.930 . S
C558 H552 0.930 . S
C558 C559 1.355 . S
C558 C560 1.415 . S
C559 C558 1.355 . S
C559 C561 1.419 . S
C560 C558 1.415 . S
C560 C565 1.425 . S
C560 C567 1.409 . S
C561 H553 0.930 . S
C561 C559 1.419 . S
C561 C562 1.362 . S
C562 H554 0.930 . S
C562 C561 1.362 . S
C562 C565 1.409 . S
C563 H555 0.930 . S
C563 C564 1.355 . S
C563 C565 1.415 . S
C564 C563 1.355 . S
C564 C566 1.419 . S
C565 C560 1.425 . S
C565 C562 1.409 . S
C565 C563 1.415 . S
C566 H556 0.930 . S
C566 C564 1.419 . S
C566 C567 1.362 . S
C567 H557 0.930 . S
C567 C560 1.409 . S
C567 C566 1.362 . S
H568 C574 0.930 . S
H569 C577 0.930 . S
H570 C578 0.930 . S
H571 C579 0.930 . S
H572 C582 0.930 . S
H573 C583 0.930 . S
C574 H568 0.930 . S
C574 C575 1.355 . S
C574 C576 1.415 . S
C575 C574 1.355 . S
C575 C577 1.419 . S
C576 C574 1.415 . S
C576 C581 1.425 . S
C576 C583 1.409 . S
C577 H569 0.930 . S
C577 C575 1.419 . S
C577 C578 1.362 . S
C578 H570 0.930 . S
C578 C577 1.362 . S
C578 C581 1.409 . S
C579 H571 0.930 . S
C579 C580 1.355 . S
C579 C581 1.415 . S
C580 C579 1.355 . S
C580 C582 1.419 . S
C581 C576 1.425 . S
C581 C578 1.409 . S
C581 C579 1.415 . S
C582 H572 0.930 . S
C582 C580 1.419 . S
C582 C583 1.362 . S
C583 H573 0.930 . S
C583 C576 1.409 . S
C583 C582 1.362 . S
H584 C590 0.930 . S
H585 C593 0.930 . S
H586 C594 0.930 1_655 S
H587 C595 0.930 . S
H588 C598 0.930 . S
H589 C599 0.930 . S
C590 H584 0.930 . S
C590 C591 1.355 . S
C590 C592 1.415 . S
C591 C590 1.355 . S
C591 C593 1.419 . S
C592 C590 1.415 . S
C592 C597 1.425 . S
C592 C599 1.409 . S
C593 H585 0.930 . S
C593 C591 1.419 . S
C593 C594 1.362 . S
C594 H586 0.930 1_455 S
C594 C593 1.362 . S
C594 C597 1.409 . S
C595 H587 0.930 . S
C595 C596 1.355 . S
C595 C597 1.415 . S
C596 C595 1.355 . S
C596 C598 1.419 . S
C597 C592 1.425 . S
C597 C594 1.409 . S
C597 C595 1.415 . S
C598 H588 0.930 . S
C598 C596 1.419 . S
C598 C599 1.362 . S
C599 H589 0.930 . S
C599 C592 1.409 . S
C599 C598 1.362 . S
H600 C606 0.930 . S
H601 C609 0.930 . S
H602 C610 0.930 . S
H603 C611 0.930 . S
H604 C614 0.930 . S
H605 C615 0.930 . S
C606 H600 0.930 . S
C606 C607 1.355 . S
C606 C608 1.415 . S
C607 C606 1.355 . S
C607 C609 1.419 . S
C608 C606 1.415 . S
C608 C613 1.425 . S
C608 C615 1.409 . S
C609 H601 0.930 . S
C609 C607 1.419 . S
C609 C610 1.362 . S
C610 H602 0.930 . S
C610 C609 1.362 . S
C610 C613 1.409 . S
C611 H603 0.930 . S
C611 C612 1.355 . S
C611 C613 1.415 . S
C612 C611 1.355 . S
C612 C614 1.419 . S
C613 C608 1.425 . S
C613 C610 1.409 . S
C613 C611 1.415 . S
C614 H604 0.930 . S
C614 C612 1.419 . S
C614 C615 1.362 . S
C615 H605 0.930 . S
C615 C608 1.409 . S
C615 C614 1.362 . S
H616 C622 0.930 . S
H617 C625 0.930 . S
H618 C626 0.930 . S
H619 C627 0.930 . S
H620 C630 0.930 . S
H621 C631 0.930 . S
C622 H616 0.930 . S
C622 C623 1.355 . S
C622 C624 1.415 . S
C623 C622 1.355 . S
C623 C625 1.419 . S
C624 C622 1.415 . S
C624 C629 1.425 . S
C624 C631 1.409 1_655 S
C625 H617 0.930 . S
C625 C623 1.419 . S
C625 C626 1.362 . S
C626 H618 0.930 . S
C626 C625 1.362 . S
C626 C629 1.409 . S
C627 H619 0.930 . S
C627 C628 1.346 1_655 S
C627 C629 1.415 . S
C628 C627 1.346 1_455 S
C628 C630 1.426 . S
C629 C624 1.425 . S
C629 C626 1.409 . S
C629 C627 1.415 . S
C630 H620 0.930 . S
C630 C628 1.426 . S
C630 C631 1.362 . S
C631 H621 0.930 . S
C631 C624 1.409 1_455 S
C631 C630 1.362 . S
H632 C638 0.930 . S
H633 C641 0.930 . S
H634 C642 0.930 . S
H635 C643 0.930 . S
H636 C646 0.930 . S
H637 C647 0.930 . S
C638 H632 0.930 . S
C638 C639 1.355 . S
C638 C640 1.415 . S
C639 C638 1.355 . S
C639 C641 1.419 . S
C640 C638 1.415 . S
C640 C645 1.425 . S
C640 C647 1.409 . S
C641 H633 0.930 . S
C641 C639 1.419 . S
C641 C642 1.362 . S
C642 H634 0.930 . S
C642 C641 1.362 . S
C642 C645 1.409 . S
C643 H635 0.930 . S
C643 C644 1.355 . S
C643 C645 1.415 . S
C644 C643 1.355 . S
C644 C646 1.419 . S
C645 C640 1.425 . S
C645 C642 1.409 . S
C645 C643 1.415 . S
C646 H636 0.930 . S
C646 C644 1.419 . S
C646 C647 1.362 . S
C647 H637 0.930 . S
C647 C640 1.409 . S
C647 C646 1.362 . S
H648 C654 0.930 . S
H649 C657 0.930 . S
H650 C658 0.930 . S
H651 C659 0.930 . S
H652 C662 0.930 . S
H653 C663 0.930 . S
C654 H648 0.930 . S
C654 C655 1.355 . S
C654 C656 1.415 . S
C655 C654 1.355 . S
C655 C657 1.419 . S
C656 C654 1.415 . S
C656 C661 1.425 . S
C656 C663 1.409 . S
C657 H649 0.930 . S
C657 C655 1.419 . S
C657 C658 1.362 . S
C658 H650 0.930 . S
C658 C657 1.362 . S
C658 C661 1.409 . S
C659 H651 0.930 . S
C659 C660 1.355 . S
C659 C661 1.415 . S
C660 C659 1.355 . S
C660 C662 1.419 . S
C661 C656 1.425 . S
C661 C658 1.409 . S
C661 C659 1.415 . S
C662 H652 0.930 . S
C662 C660 1.419 . S
C662 C663 1.362 . S
C663 H653 0.930 . S
C663 C656 1.409 . S
C663 C662 1.362 . S
H664 C670 0.930 . S
H665 C673 0.930 . S
H666 C674 0.930 . S
H667 C675 0.930 . S
H668 C678 0.930 . S
H669 C679 0.930 . S
C670 H664 0.930 . S
C670 C671 1.355 . S
C670 C672 1.415 . S
C671 C670 1.355 . S
C671 C673 1.419 1_545 S
C672 C670 1.415 . S
C672 C677 1.425 1_545 S
C672 C679 1.409 1_556 S
C673 H665 0.930 . S
C673 C671 1.419 1_565 S
C673 C674 1.362 . S
C674 H666 0.930 . S
C674 C673 1.362 . S
C674 C677 1.409 . S
C675 H667 0.930 . S
C675 C676 1.355 . S
C675 C677 1.415 . S
C676 C675 1.355 . S
C676 C678 1.419 1_556 S
C677 C672 1.425 1_565 S
C677 C674 1.409 . S
C677 C675 1.415 . S
C678 H668 0.930 . S
C678 C676 1.419 1_554 S
C678 C679 1.362 1_565 S
C679 H669 0.930 . S
C679 C672 1.409 1_554 S
C679 C678 1.362 1_545 S
H680 C686 0.930 . S
H681 C689 0.930 . S
H682 C690 0.930 . S
H683 C691 0.930 . S
H684 C694 0.930 . S
H685 C695 0.930 . S
C686 H680 0.930 . S
C686 C687 1.355 . S
C686 C688 1.415 . S
C687 C686 1.355 . S
C687 C689 1.419 . S
C688 C686 1.415 . S
C688 C693 1.425 . S
C688 C695 1.409 . S
C689 H681 0.930 . S
C689 C687 1.419 . S
C689 C690 1.362 . S
C690 H682 0.930 . S
C690 C689 1.362 . S
C690 C693 1.409 . S
C691 H683 0.930 . S
C691 C692 1.355 . S
C691 C693 1.415 . S
C692 C691 1.355 . S
C692 C694 1.419 . S
C693 C688 1.425 . S
C693 C690 1.409 . S
C693 C691 1.415 . S
C694 H684 0.930 . S
C694 C692 1.419 . S
C694 C695 1.362 . S
C695 H685 0.930 . S
C695 C688 1.409 . S
C695 C694 1.362 . S
H696 C702 0.930 . S
H697 C705 0.930 . S
H698 C706 0.930 . S
H699 C707 0.930 . S
H700 C710 0.930 . S
H701 C711 0.930 . S
C702 H696 0.930 . S
C702 C703 1.355 1_545 S
C702 C704 1.415 . S
C703 C702 1.355 1_565 S
C703 C705 1.419 . S
C704 C702 1.415 . S
C704 C709 1.425 . S
C704 C711 1.409 . S
C705 H697 0.930 . S
C705 C703 1.419 . S
C705 C706 1.362 . S
C706 H698 0.930 . S
C706 C705 1.362 . S
C706 C709 1.409 1_565 S
C707 H699 0.930 . S
C707 C708 1.355 . S
C707 C709 1.415 . S
C708 C707 1.355 . S
C708 C710 1.419 . S
C709 C704 1.425 . S
C709 C706 1.409 1_545 S
C709 C707 1.415 . S
C710 H700 0.930 . S
C710 C708 1.419 . S
C710 C711 1.362 . S
C711 H701 0.930 . S
C711 C704 1.409 . S
C711 C710 1.362 . S
H712 C718 0.930 . S
H713 C721 0.930 . S
H714 C722 0.930 . S
H715 C723 0.930 . S
H716 C726 0.930 . S
H717 C727 0.930 . S
C718 H712 0.930 . S
C718 C719 1.355 . S
C718 C720 1.415 . S
C719 C718 1.355 . S
C719 C721 1.419 . S
C720 C718 1.415 . S
C720 C725 1.425 . S
C720 C727 1.409 . S
C721 H713 0.930 . S
C721 C719 1.419 . S
C721 C722 1.362 . S
C722 H714 0.930 . S
C722 C721 1.362 . S
C722 C725 1.409 . S
C723 H715 0.930 . S
C723 C724 1.355 . S
C723 C725 1.415 . S
C724 C723 1.355 . S
C724 C726 1.419 . S
C725 C720 1.425 . S
C725 C722 1.409 . S
C725 C723 1.415 . S
C726 H716 0.930 . S
C726 C724 1.419 . S
C726 C727 1.362 . S
C727 H717 0.930 . S
C727 C720 1.409 . S
C727 C726 1.362 . S
H728 C734 0.930 . S
H729 C737 0.937 . S
H730 C738 0.930 . S
H731 C739 0.930 . S
H732 C742 0.930 . S
H733 C743 0.930 . S
C734 H728 0.930 . S
C734 C735 1.353 1_545 S
C734 C736 1.415 . S
C735 C734 1.353 1_565 S
C735 C737 1.421 . S
C736 C734 1.415 . S
C736 C741 1.425 . S
C736 C743 1.409 . S
C737 H729 0.937 . S
C737 C735 1.421 . S
C737 C738 1.353 1_565 S
C738 H730 0.930 . S
C738 C737 1.353 1_545 S
C738 C741 1.409 . S
C739 H731 0.930 . S
C739 C740 1.355 . S
C739 C741 1.415 . S
C740 C739 1.355 . S
C740 C742 1.419 . S
C741 C736 1.425 . S
C741 C738 1.409 . S
C741 C739 1.415 . S
C742 H732 0.930 . S
C742 C740 1.419 . S
C742 C743 1.362 . S
C743 H733 0.930 . S
C743 C736 1.409 . S
C743 C742 1.362 . S
H744 C750 0.930 . S
H745 C753 0.930 . S
H746 C754 0.930 . S
H747 C755 0.930 . S
H748 C758 0.930 . S
H749 C759 0.930 . S
C750 H744 0.930 . S
C750 C751 1.355 . S
C750 C752 1.415 . S
C751 C750 1.355 . S
C751 C753 1.419 . S
C752 C750 1.415 . S
C752 C757 1.425 . S
C752 C759 1.409 . S
C753 H745 0.930 . S
C753 C751 1.419 . S
C753 C754 1.362 . S
C754 H746 0.930 . S
C754 C753 1.362 . S
C754 C757 1.409 . S
C755 H747 0.930 . S
C755 C756 1.355 . S
C755 C757 1.415 . S
C756 C755 1.355 . S
C756 C758 1.419 . S
C757 C752 1.425 . S
C757 C754 1.409 . S
C757 C755 1.415 . S
C758 H748 0.930 . S
C758 C756 1.419 . S
C758 C759 1.362 . S
C759 H749 0.930 . S
C759 C752 1.409 . S
C759 C758 1.362 . S
H760 C766 0.930 . S
H761 C769 0.930 . S
H762 C770 0.930 . S
H763 C771 0.930 . S
H764 C774 0.930 . S
H765 C775 0.930 . S
C766 H760 0.930 . S
C766 C767 1.355 . S
C766 C768 1.415 . S
C767 C766 1.355 . S
C767 C769 1.419 . S
C768 C766 1.415 . S
C768 C773 1.425 . S
C768 C775 1.409 . S
C769 H761 0.930 . S
C769 C767 1.419 . S
C769 C770 1.362 . S
C770 H762 0.930 . S
C770 C769 1.362 . S
C770 C773 1.409 . S
C771 H763 0.930 . S
C771 C772 1.355 . S
C771 C773 1.415 . S
C772 C771 1.355 . S
C772 C774 1.419 . S
C773 C768 1.425 . S
C773 C770 1.409 . S
C773 C771 1.415 . S
C774 H764 0.930 . S
C774 C772 1.419 . S
C774 C775 1.362 . S
C775 H765 0.930 . S
C775 C768 1.409 . S
C775 C774 1.362 . S
H776 C782 0.930 . S
H777 C785 0.930 . S
H778 C786 0.930 . S
H779 C787 0.930 . S
H780 C790 0.930 . S
H781 C791 0.930 . S
C782 H776 0.930 . S
C782 C783 1.355 . S
C782 C784 1.415 . S
C783 C782 1.355 . S
C783 C785 1.419 . S
C784 C782 1.415 . S
C784 C789 1.425 . S
C784 C791 1.409 . S
C785 H777 0.930 . S
C785 C783 1.419 . S
C785 C786 1.362 . S
C786 H778 0.930 . S
C786 C785 1.362 . S
C786 C789 1.409 . S
C787 H779 0.930 . S
C787 C788 1.355 . S
C787 C789 1.415 . S
C788 C787 1.355 . S
C788 C790 1.419 . S
C789 C784 1.425 . S
C789 C786 1.409 . S
C789 C787 1.415 . S
C790 H780 0.930 . S
C790 C788 1.419 . S
C790 C791 1.362 . S
C791 H781 0.930 . S
C791 C784 1.409 . S
C791 C790 1.362 . S
H792 C798 0.930 . S
H793 C801 0.930 . S
H794 C802 0.930 . S
H795 C803 0.930 . S
H796 C806 0.930 . S
H797 C807 0.930 . S
C798 H792 0.930 . S
C798 C799 1.355 . S
C798 C800 1.415 . S
C799 C798 1.355 . S
C799 C801 1.419 . S
C800 C798 1.415 . S
C800 C805 1.425 . S
C800 C807 1.409 . S
C801 H793 0.930 . S
C801 C799 1.419 . S
C801 C802 1.362 . S
C802 H794 0.930 . S
C802 C801 1.362 . S
C802 C805 1.409 . S
C803 H795 0.930 . S
C803 C804 1.355 . S
C803 C805 1.415 . S
C804 C803 1.355 . S
C804 C806 1.419 . S
C805 C800 1.425 . S
C805 C802 1.409 . S
C805 C803 1.415 . S
C806 H796 0.930 . S
C806 C804 1.419 . S
C806 C807 1.362 . S
C807 H797 0.930 . S
C807 C800 1.409 . S
C807 C806 1.362 . S
H808 C814 0.930 . S
H809 C817 0.930 . S
H810 C818 0.930 . S
H811 C819 0.930 . S
H812 C822 0.930 . S
H813 C823 0.930 . S
C814 H808 0.930 . S
C814 C815 1.355 . S
C814 C816 1.415 . S
C815 C814 1.355 . S
C815 C817 1.419 . S
C816 C814 1.415 . S
C816 C821 1.425 . S
C816 C823 1.409 . S
C817 H809 0.930 . S
C817 C815 1.419 . S
C817 C818 1.362 . S
C818 H810 0.930 . S
C818 C817 1.362 . S
C818 C821 1.409 . S
C819 H811 0.930 . S
C819 C820 1.355 . S
C819 C821 1.415 . S
C820 C819 1.355 . S
C820 C822 1.419 . S
C821 C816 1.425 . S
C821 C818 1.409 . S
C821 C819 1.415 . S
C822 H812 0.930 . S
C822 C820 1.419 . S
C822 C823 1.362 . S
C823 H813 0.930 . S
C823 C816 1.409 . S
C823 C822 1.362 . S
H824 C830 0.930 . S
H825 C833 0.930 . S
H826 C834 0.930 . S
H827 C835 0.930 . S
H828 C838 0.930 . S
H829 C839 0.930 . S
C830 H824 0.930 . S
C830 C831 1.355 . S
C830 C832 1.415 . S
C831 C830 1.355 . S
C831 C833 1.419 . S
C832 C830 1.415 . S
C832 C837 1.425 . S
C832 C839 1.409 . S
C833 H825 0.930 . S
C833 C831 1.419 . S
C833 C834 1.362 . S
C834 H826 0.930 . S
C834 C833 1.362 . S
C834 C837 1.409 . S
C835 H827 0.930 . S
C835 C836 1.355 . S
C835 C837 1.415 . S
C836 C835 1.355 . S
C836 C838 1.419 . S
C837 C832 1.425 . S
C837 C834 1.409 . S
C837 C835 1.415 . S
C838 H828 0.930 . S
C838 C836 1.419 . S
C838 C839 1.362 . S
C839 H829 0.930 . S
C839 C832 1.409 . S
C839 C838 1.362 . S
H840 C846 0.930 . S
H841 C849 0.930 . S
H842 C850 0.930 . S
H843 C851 0.930 . S
H844 C854 0.930 . S
H845 C855 0.930 . S
C846 H840 0.930 . S
C846 C847 1.355 1_565 S
C846 C848 1.415 . S
C847 C846 1.355 1_545 S
C847 C849 1.419 . S
C848 C846 1.415 . S
C848 C853 1.425 1_565 S
C848 C855 1.409 . S
C849 H841 0.930 . S
C849 C847 1.419 . S
C849 C850 1.362 . S
C850 H842 0.930 . S
C850 C849 1.362 . S
C850 C853 1.409 . S
C851 H843 0.930 . S
C851 C852 1.355 . S
C851 C853 1.415 . S
C852 C851 1.355 . S
C852 C854 1.419 1_545 S
C853 C848 1.425 1_545 S
C853 C850 1.409 . S
C853 C851 1.415 . S
C854 H844 0.930 . S
C854 C852 1.419 1_565 S
C854 C855 1.362 . S
C855 H845 0.930 . S
C855 C848 1.409 . S
C855 C854 1.362 . S
H856 C862 0.930 . S
H857 C865 0.930 . S
H858 C866 0.930 . S
H859 C867 0.930 . S
H860 C870 0.930 . S
H861 C871 0.930 . S
C862 H856 0.930 . S
C862 C863 1.355 . S
C862 C864 1.415 . S
C863 C862 1.355 . S
C863 C865 1.419 . S
C864 C862 1.415 . S
C864 C869 1.425 . S
C864 C871 1.409 . S
C865 H857 0.930 . S
C865 C863 1.419 . S
C865 C866 1.362 . S
C866 H858 0.930 . S
C866 C865 1.362 . S
C866 C869 1.409 . S
C867 H859 0.930 . S
C867 C868 1.355 . S
C867 C869 1.415 . S
C868 C867 1.355 . S
C868 C870 1.419 . S
C869 C864 1.425 . S
C869 C866 1.409 . S
C869 C867 1.415 . S
C870 H860 0.930 . S
C870 C868 1.419 . S
C870 C871 1.362 . S
C871 H861 0.930 . S
C871 C864 1.409 . S
C871 C870 1.362 . S
H872 C878 0.959 . S
H873 C881 0.930 . S
H874 C882 0.930 . S
H875 C883 0.930 . S
H876 C886 0.930 . S
H877 C887 0.930 . S
C878 H872 0.959 . S
C878 C879 1.355 . S
C878 C880 1.386 1_655 S
C879 C878 1.355 . S
C879 C881 1.392 1_655 S
C880 C878 1.386 1_455 S
C880 C885 1.425 . S
C880 C887 1.409 . S
C881 H873 0.930 . S
C881 C879 1.392 1_455 S
C881 C882 1.362 . S
C882 H874 0.930 . S
C882 C881 1.362 . S
C882 C885 1.409 . S
C883 H875 0.930 . S
C883 C884 1.355 . S
C883 C885 1.415 . S
C884 C883 1.355 . S
C884 C886 1.419 . S
C885 C880 1.425 . S
C885 C882 1.409 . S
C885 C883 1.415 . S
C886 H876 0.930 . S
C886 C884 1.419 . S
C886 C887 1.362 . S
C887 H877 0.930 . S
C887 C880 1.409 . S
C887 C886 1.362 . S
H888 C894 0.930 . S
H889 C897 0.930 . S
H890 C898 0.930 . S
H891 C899 0.930 . S
H892 C902 0.930 . S
H893 C903 0.930 . S
C894 H888 0.930 . S
C894 C895 1.355 . S
C894 C896 1.415 . S
C895 C894 1.355 . S
C895 C897 1.419 . S
C896 C894 1.415 . S
C896 C901 1.425 . S
C896 C903 1.409 . S
C897 H889 0.930 . S
C897 C895 1.419 . S
C897 C898 1.362 . S
C898 H890 0.930 . S
C898 C897 1.362 . S
C898 C901 1.409 . S
C899 H891 0.930 . S
C899 C900 1.355 . S
C899 C901 1.415 . S
C900 C899 1.355 . S
C900 C902 1.419 . S
C901 C896 1.425 . S
C901 C898 1.409 . S
C901 C899 1.415 . S
C902 H892 0.930 . S
C902 C900 1.419 . S
C902 C903 1.362 . S
C903 H893 0.930 . S
C903 C896 1.409 . S
C903 C902 1.362 . S
H904 C910 0.930 . S
H905 C913 0.930 . S
H906 C914 0.930 . S
H907 C915 0.930 . S
H908 C918 0.930 . S
H909 C919 0.930 . S
C910 H904 0.930 . S
C910 C911 1.355 . S
C910 C912 1.415 . S
C911 C910 1.355 . S
C911 C913 1.419 . S
C912 C910 1.415 . S
C912 C917 1.425 1_554 S
C912 C919 1.409 . S
C913 H905 0.930 . S
C913 C911 1.419 . S
C913 C914 1.362 1_554 S
C914 H906 0.930 . S
C914 C913 1.362 1_556 S
C914 C917 1.409 . S
C915 H907 0.930 . S
C915 C916 1.355 . S
C915 C917 1.415 . S
C916 C915 1.355 . S
C916 C918 1.419 1_556 S
C917 C912 1.425 1_556 S
C917 C914 1.409 . S
C917 C915 1.415 . S
C918 H908 0.930 . S
C918 C916 1.419 1_554 S
C918 C919 1.362 . S
C919 H909 0.930 . S
C919 C912 1.409 . S
C919 C918 1.362 . S
H920 C926 0.930 . S
H921 C929 0.930 . S
H922 C930 0.930 . S
H923 C931 0.930 . S
H924 C934 0.930 . S
H925 C935 0.930 . S
C926 H920 0.930 . S
C926 C927 1.355 . S
C926 C928 1.415 . S
C927 C926 1.355 . S
C927 C929 1.419 . S
C928 C926 1.415 . S
C928 C933 1.425 . S
C928 C935 1.409 . S
C929 H921 0.930 . S
C929 C927 1.419 . S
C929 C930 1.362 . S
C930 H922 0.930 . S
C930 C929 1.362 . S
C930 C933 1.409 . S
C931 H923 0.930 . S
C931 C932 1.355 . S
C931 C933 1.415 . S
C932 C931 1.355 . S
C932 C934 1.419 . S
C933 C928 1.425 . S
C933 C930 1.409 . S
C933 C931 1.415 . S
C934 H924 0.930 . S
C934 C932 1.419 . S
C934 C935 1.362 . S
C935 H925 0.930 . S
C935 C928 1.409 . S
C935 C934 1.362 . S
H936 C942 0.930 . S
H937 C945 0.930 . S
H938 C946 0.930 . S
H939 C947 0.930 . S
H940 C950 0.930 . S
H941 C951 0.930 . S
C942 H936 0.930 . S
C942 C943 1.355 1_556 S
C942 C944 1.415 . S
C943 C942 1.355 1_554 S
C943 C945 1.419 1_455 S
C944 C942 1.415 . S
C944 C949 1.425 . S
C944 C951 1.409 . S
C945 H937 0.930 . S
C945 C943 1.419 1_655 S
C945 C946 1.362 . S
C946 H938 0.930 . S
C946 C945 1.362 . S
C946 C949 1.409 1_654 S
C947 H939 0.930 . S
C947 C948 1.355 1_655 S
C947 C949 1.415 1_655 S
C948 C947 1.355 1_455 S
C948 C950 1.419 . S
C949 C944 1.425 . S
C949 C946 1.409 1_456 S
C949 C947 1.415 1_455 S
C950 H940 0.930 . S
C950 C948 1.419 . S
C950 C951 1.362 . S
C951 H941 0.930 . S
C951 C944 1.409 . S
C951 C950 1.362 . S
H952 C958 0.930 . S
H953 C961 0.930 . S
H954 C962 0.930 . S
H955 C963 0.930 . S
H956 C966 0.930 . S
H957 C967 0.930 . S
C958 H952 0.930 . S
C958 C959 1.355 . S
C958 C960 1.415 . S
C959 C958 1.355 . S
C959 C961 1.419 . S
C960 C958 1.415 . S
C960 C965 1.425 . S
C960 C967 1.409 . S
C961 H953 0.930 . S
C961 C959 1.419 . S
C961 C962 1.362 . S
C962 H954 0.930 . S
C962 C961 1.362 . S
C962 C965 1.409 . S
C963 H955 0.930 . S
C963 C964 1.355 . S
C963 C965 1.415 . S
C964 C963 1.355 . S
C964 C966 1.419 . S
C965 C960 1.425 . S
C965 C962 1.409 . S
C965 C963 1.415 . S
C966 H956 0.930 . S
C966 C964 1.419 . S
C966 C967 1.362 . S
C967 H957 0.930 . S
C967 C960 1.409 . S
C967 C966 1.362 . S
H968 C974 0.930 . S
H969 C977 0.930 . S
H970 C978 0.930 . S
H971 C979 0.930 . S
H972 C982 0.930 . S
H973 C983 0.930 . S
C974 H968 0.930 . S
C974 C975 1.355 1_554 S
C974 C976 1.415 . S
C975 C974 1.355 1_556 S
C975 C977 1.419 . S
C976 C974 1.415 . S
C976 C981 1.425 . S
C976 C983 1.409 . S
C977 H969 0.930 . S
C977 C975 1.419 . S
C977 C978 1.362 1_556 S
C978 H970 0.930 . S
C978 C977 1.362 1_554 S
C978 C981 1.409 . S
C979 H971 0.930 . S
C979 C980 1.355 . S
C979 C981 1.415 . S
C980 C979 1.355 . S
C980 C982 1.419 . S
C981 C976 1.425 . S
C981 C978 1.409 . S
C981 C979 1.415 . S
C982 H972 0.930 . S
C982 C980 1.419 . S
C982 C983 1.362 . S
C983 H973 0.930 . S
C983 C976 1.409 . S
C983 C982 1.362 . S
H984 C990 0.930 . S
H985 C993 0.930 . S
H986 C994 0.930 . S
H987 C995 0.930 . S
H988 C998 0.930 . S
H989 C999 0.930 . S
C990 H984 0.930 . S
C990 C991 1.355 . S
C990 C992 1.415 . S
C991 C990 1.355 . S
C991 C993 1.419 . S
C992 C990 1.415 . S
C992 C997 1.425 . S
C992 C999 1.409 . S
C993 H985 0.930 . S
C993 C991 1.419 . S
C993 C994 1.362 . S
C994 H986 0.930 . S
C994 C993 1.362 . S
C994 C997 1.409 . S
C995 H987 0.930 . S
C995 C996 1.355 . S
C995 C997 1.415 . S
C996 C995 1.355 . S
C996 C998 1.419 . S
C997 C992 1.425 . S
C997 C994 1.409 . S
C997 C995 1.415 . S
C998 H988 0.930 . S
C998 C996 1.419 . S
C998 C999 1.362 . S
C999 H989 0.930 . S
C999 C992 1.409 . S
C999 C998 1.362 . S
H1000 C1006 0.930 . S
H1001 C1009 0.930 . S
H1002 C1010 0.930 . S
H1003 C1011 0.930 . S
H1004 C1014 0.930 . S
H1005 C1015 0.930 1_556 S
C1006 H1000 0.930 . S
C1006 C1007 1.355 . S
C1006 C1008 1.415 1_556 S
C1007 C1006 1.355 . S
C1007 C1009 1.419 1_556 S
C1008 C1006 1.415 1_554 S
C1008 C1013 1.425 . S
C1008 C1015 1.409 . S
C1009 H1001 0.930 . S
C1009 C1007 1.419 1_554 S
C1009 C1010 1.362 . S
C1010 H1002 0.930 . S
C1010 C1009 1.362 . S
C1010 C1013 1.409 . S
C1011 H1003 0.930 . S
C1011 C1012 1.355 . S
C1011 C1013 1.415 . S
C1012 C1011 1.355 . S
C1012 C1014 1.419 . S
C1013 C1008 1.425 . S
C1013 C1010 1.409 . S
C1013 C1011 1.415 . S
C1014 H1004 0.930 . S
C1014 C1012 1.419 . S
C1014 C1015 1.362 . S
C1015 H1005 0.930 1_554 S
C1015 C1008 1.409 . S
C1015 C1014 1.362 . S
H1016 C1022 0.930 . S
H1017 C1025 0.930 . S
H1018 C1026 0.930 . S
H1019 C1027 0.930 . S
H1020 C1030 0.930 . S
H1021 C1031 0.930 . S
C1022 H1016 0.930 . S
C1022 C1023 1.355 . S
C1022 C1024 1.415 . S
C1023 C1022 1.355 . S
C1023 C1025 1.419 . S
C1024 C1022 1.415 . S
C1024 C1029 1.425 . S
C1024 C1031 1.409 . S
C1025 H1017 0.930 . S
C1025 C1023 1.419 . S
C1025 C1026 1.362 . S
C1026 H1018 0.930 . S
C1026 C1025 1.362 . S
C1026 C1029 1.409 . S
C1027 H1019 0.930 . S
C1027 C1028 1.355 . S
C1027 C1029 1.415 . S
C1028 C1027 1.355 . S
C1028 C1030 1.419 . S
C1029 C1024 1.425 . S
C1029 C1026 1.409 . S
C1029 C1027 1.415 . S
C1030 H1020 0.930 . S
C1030 C1028 1.419 . S
C1030 C1031 1.362 . S
C1031 H1021 0.930 . S
C1031 C1024 1.409 . S
C1031 C1030 1.362 . S
H1032 C1038 0.930 . S
H1033 C1041 0.930 . S
H1034 C1042 0.930 . S
H1035 C1043 0.930 . S
H1036 C1046 0.930 . S
H1037 C1047 0.930 . S
C1038 H1032 0.930 . S
C1038 C1039 1.355 . S
C1038 C1040 1.415 . S
C1039 C1038 1.355 . S
C1039 C1041 1.419 . S
C1040 C1038 1.415 . S
C1040 C1045 1.425 . S
C1040 C1047 1.409 . S
C1041 H1033 0.930 . S
C1041 C1039 1.419 . S
C1041 C1042 1.362 . S
C1042 H1034 0.930 . S
C1042 C1041 1.362 . S
C1042 C1045 1.409 . S
C1043 H1035 0.930 . S
C1043 C1044 1.355 . S
C1043 C1045 1.415 . S
C1044 C1043 1.355 . S
C1044 C1046 1.419 . S
C1045 C1040 1.425 . S
C1045 C1042 1.409 . S
C1045 C1043 1.415 . S
C1046 H1036 0.930 . S
C1046 C1044 1.419 . S
C1046 C1047 1.362 . S
C1047 H1037 0.930 . S
C1047 C1040 1.409 . S
C1047 C1046 1.362 . S
H1048 C1054 0.930 . S
H1049 C1057 0.930 . S
H1050 C1058 0.930 . S
H1051 C1059 0.930 . S
H1052 C1062 0.930 . S
H1053 C1063 0.930 . S
C1054 H1048 0.930 . S
C1054 C1055 1.355 . S
C1054 C1056 1.415 . S
C1055 C1054 1.355 . S
C1055 C1057 1.419 . S
C1056 C1054 1.415 . S
C1056 C1061 1.425 . S
C1056 C1063 1.409 . S
C1057 H1049 0.930 . S
C1057 C1055 1.419 . S
C1057 C1058 1.362 . S
C1058 H1050 0.930 . S
C1058 C1057 1.362 . S
C1058 C1061 1.409 . S
C1059 H1051 0.930 . S
C1059 C1060 1.355 . S
C1059 C1061 1.415 . S
C1060 C1059 1.355 . S
C1060 C1062 1.419 . S
C1061 C1056 1.425 . S
C1061 C1058 1.409 . S
C1061 C1059 1.415 . S
C1062 H1052 0.930 . S
C1062 C1060 1.419 . S
C1062 C1063 1.362 . S
C1063 H1053 0.930 . S
C1063 C1056 1.409 . S
C1063 C1062 1.362 . S
H1064 C1070 0.930 . S
H1065 C1073 0.930 . S
H1066 C1074 0.930 . S
H1067 C1075 0.930 . S
H1068 C1078 0.930 . S
H1069 C1079 0.930 . S
C1070 H1064 0.930 . S
C1070 C1071 1.355 . S
C1070 C1072 1.415 . S
C1071 C1070 1.355 . S
C1071 C1073 1.419 . S
C1072 C1070 1.415 . S
C1072 C1077 1.425 . S
C1072 C1079 1.409 . S
C1073 H1065 0.930 . S
C1073 C1071 1.419 . S
C1073 C1074 1.362 . S
C1074 H1066 0.930 . S
C1074 C1073 1.362 . S
C1074 C1077 1.409 . S
C1075 H1067 0.930 . S
C1075 C1076 1.355 . S
C1075 C1077 1.415 . S
C1076 C1075 1.355 . S
C1076 C1078 1.419 . S
C1077 C1072 1.425 . S
C1077 C1074 1.409 . S
C1077 C1075 1.415 . S
C1078 H1068 0.930 . S
C1078 C1076 1.419 . S
C1078 C1079 1.362 . S
C1079 H1069 0.930 . S
C1079 C1072 1.409 . S
C1079 C1078 1.362 . S
H1080 C1086 0.930 . S
H1081 C1089 0.930 . S
H1082 C1090 0.930 1_554 S
H1083 C1091 0.930 1_554 S
H1084 C1094 0.930 . S
H1085 C1095 0.930 . S
C1086 H1080 0.930 . S
C1086 C1087 1.355 . S
C1086 C1088 1.415 . S
C1087 C1086 1.355 . S
C1087 C1089 1.419 . S
C1088 C1086 1.415 . S
C1088 C1093 1.425 . S
C1088 C1095 1.409 . S
C1089 H1081 0.930 . S
C1089 C1087 1.419 . S
C1089 C1090 1.362 . S
C1090 H1082 0.930 1_556 S
C1090 C1089 1.362 . S
C1090 C1093 1.409 . S
C1091 H1083 0.930 1_556 S
C1091 C1092 1.355 . S
C1091 C1093 1.415 . S
C1092 C1091 1.355 . S
C1092 C1094 1.419 . S
C1093 C1088 1.425 . S
C1093 C1090 1.409 . S
C1093 C1091 1.415 . S
C1094 H1084 0.930 . S
C1094 C1092 1.419 . S
C1094 C1095 1.362 . S
C1095 H1085 0.930 . S
C1095 C1088 1.409 . S
C1095 C1094 1.362 . S
H1096 C1102 0.930 . S
H1097 C1105 0.930 . S
H1098 C1106 0.930 . S
H1099 C1107 0.930 . S
H1100 C1110 0.930 . S
H1101 C1111 0.930 . S
C1102 H1096 0.930 . S
C1102 C1103 1.355 . S
C1102 C1104 1.415 . S
C1103 C1102 1.355 . S
C1103 C1105 1.419 . S
C1104 C1102 1.415 . S
C1104 C1109 1.425 . S
C1104 C1111 1.409 . S
C1105 H1097 0.930 . S
C1105 C1103 1.419 . S
C1105 C1106 1.362 . S
C1106 H1098 0.930 . S
C1106 C1105 1.362 . S
C1106 C1109 1.409 . S
C1107 H1099 0.930 . S
C1107 C1108 1.355 . S
C1107 C1109 1.415 . S
C1108 C1107 1.355 . S
C1108 C1110 1.419 . S
C1109 C1104 1.425 . S
C1109 C1106 1.409 . S
C1109 C1107 1.415 . S
C1110 H1100 0.930 . S
C1110 C1108 1.419 . S
C1110 C1111 1.362 . S
C1111 H1101 0.930 . S
C1111 C1104 1.409 . S
C1111 C1110 1.362 . S
H1112 C1118 0.930 . S
H1113 C1121 0.930 . S
H1114 C1122 0.930 . S
H1115 C1123 0.930 . S
H1116 C1126 0.930 . S
H1117 C1127 0.930 . S
C1118 H1112 0.930 . S
C1118 C1119 1.355 . S
C1118 C1120 1.415 . S
C1119 C1118 1.355 . S
C1119 C1121 1.419 . S
C1120 C1118 1.415 . S
C1120 C1125 1.425 . S
C1120 C1127 1.409 . S
C1121 H1113 0.930 . S
C1121 C1119 1.419 . S
C1121 C1122 1.362 . S
C1122 H1114 0.930 . S
C1122 C1121 1.362 . S
C1122 C1125 1.409 . S
C1123 H1115 0.930 . S
C1123 C1124 1.355 . S
C1123 C1125 1.415 . S
C1124 C1123 1.355 . S
C1124 C1126 1.419 . S
C1125 C1120 1.425 . S
C1125 C1122 1.409 . S
C1125 C1123 1.415 . S
C1126 H1116 0.930 . S
C1126 C1124 1.419 . S
C1126 C1127 1.362 . S
C1127 H1117 0.930 . S
C1127 C1120 1.409 . S
C1127 C1126 1.362 . S
H1128 C1134 0.930 1_545 S
H1129 C1137 0.930 . S
H1130 C1138 0.917 1_556 S
H1131 C1139 0.930 . S
H1132 C1142 0.930 . S
H1133 C1143 0.930 1_545 S
C1134 H1128 0.930 1_565 S
C1134 C1135 1.355 . S
C1134 C1136 1.415 . S
C1135 C1134 1.355 . S
C1135 C1137 1.419 . S
C1136 C1134 1.415 . S
C1136 C1141 1.425 . S
C1136 C1143 1.409 . S
C1137 H1129 0.930 . S
C1137 C1135 1.419 . S
C1137 C1138 1.362 . S
C1138 H1130 0.917 1_554 S
C1138 C1137 1.362 . S
C1138 C1141 1.409 . S
C1139 H1131 0.930 . S
C1139 C1140 1.355 . S
C1139 C1141 1.415 . S
C1140 C1139 1.355 . S
C1140 C1142 1.419 . S
C1141 C1136 1.425 . S
C1141 C1138 1.409 . S
C1141 C1139 1.415 . S
C1142 H1132 0.930 . S
C1142 C1140 1.419 . S
C1142 C1143 1.362 . S
C1143 H1133 0.930 1_565 S
C1143 C1136 1.409 . S
C1143 C1142 1.362 . S
C388 C216 1.327 . S
C383 N66 1.325 . S
C404 C229 1.527 . S
C399 N79 1.538 . S
C415 N92 1.779 . S
C420 C249 1.697 . S
C436 C263 1.317 . S
C431 N54 1.358 . S
C452 C275 1.509 . S
C447 N131 1.508 . S
C468 C289 1.211 . S
C463 N158 1.188 . S
C479 N145 1.537 . S
C484 C299 1.535 . S
C500 C314 1.757 . S
C495 N118 1.756 . S
C511 N148 1.852 . S
C516 C328 1.760 . S
C532 C347 1.362 . S
C527 N122 1.519 . S
C543 N132 1.267 . S
C548 C327 1.249 . S
C564 C345 1.450 . S
C559 N161 1.441 . S
C575 N96 1.902 . S
C580 C361 1.777 . S
C591 N53 1.624 . S
C596 C355 1.685 . S
C607 N67 1.184 . S
C612 C359 1.177 . S
C623 N83 1.384 . S
C628 C356 1.411 1_455 S
C639 N44 1.395 . S
C644 C258 1.409 . S
C655 N187 1.465 . S
C660 C257 1.480 . S
C676 C221 1.200 . S
C671 N197 1.213 . S
C692 C235 1.309 . S
C687 N106 1.424 . S
C703 N57 1.796 . S
C708 C272 1.799 . S
C724 C317 1.494 . S
C719 N144 1.492 . S
C740 C271 1.391 . S
C735 N119 1.377 . S
C756 C303 1.703 . S
C751 N157 1.688 . S
C772 C300 1.302 . S
C767 N183 1.264 . S
C783 N196 1.532 . S
C788 C313 1.529 . S
C799 N105 1.796 . S
C804 C277 1.711 . S
C820 C291 1.293 . S
C815 N171 1.361 . S
C831 N40 1.523 . S
C836 C247 1.510 . S
C852 C261 1.216 . S
C847 N2 1.196 1_655 S
C868 C215 1.540 . S
C863 N15 1.541 . S
C884 C230 1.720 . S
C879 N27 1.748 . S
C895 N18 1.838 . S
C900 C342 1.811 . S
C911 N31 1.484 . S
C916 C333 1.457 . S
C927 N41 1.267 . S
C932 C341 1.249 . S
C943 N5 1.394 . S
C948 C331 1.438 . S
C964 C375 1.792 . S
C959 N109 1.877 . S
C980 C369 1.683 . S
C975 N170 1.628 . S
C996 C373 1.188 . S
C991 N184 1.196 . S
C1007 N200 1.363 . S
C1012 C370 1.377 . S
C1023 N135 1.438 . S
C1028 C286 1.402 . S
C1044 C285 1.473 . S
C1039 N70 1.466 . S
C1060 C305 1.148 . S
C1055 N80 1.231 . S
C1076 C319 1.302 . S
C1071 N93 1.418 . S
C1087 N174 1.782 . S
C1092 C244 1.800 . S
C1108 C233 1.498 . S
C1103 N14 1.479 . S
C1119 N28 1.371 . S
C1124 C243 1.385 . S
C1140 C219 1.707 . S
C1135 N1 1.682 1_565 S
