# Generated by pormake.
# Topology anh, (6,3)-cn, num edge types: 1
# Building blocks:
#     Node 0, Type 0, BuildingBlock: NUHQIS_clean_sbu_0, # of connection points: 6
#     Node 1, Type 0, BuildingBlock: NUHQIS_clean_sbu_0, # of connection points: 6
#     Node 2, Type 0, BuildingBlock: NUHQIS_clean_sbu_0, # of connection points: 6
#     Node 3, Type 1, BuildingBlock: MIDCAF_clean_linker_0, # of connection points: 3
#     Node 4, Type 1, BuildingBlock: MIDCAF_clean_linker_0, # of connection points: 3
#     Node 5, Type 1, BuildingBlock: MIDCAF_clean_linker_0, # of connection points: 3
#     Node 6, Type 1, BuildingBlock: MIDCAF_clean_linker_0, # of connection points: 3
#     Node 7, Type 1, BuildingBlock: MIDCAF_clean_linker_0, # of connection points: 3
#     Node 8, Type 1, BuildingBlock: MIDCAF_clean_linker_0, # of connection points: 3
#     Edge 9, Type (0, 1), BuildingBlock: XUDNAN_clean_linker_2, # of connection points: 2
#     Edge 10, Type (0, 1), BuildingBlock: XUDNAN_clean_linker_2, # of connection points: 2
#     Edge 11, Type (0, 1), BuildingBlock: XUDNAN_clean_linker_2, # of connection points: 2
#     Edge 12, Type (0, 1), BuildingBlock: XUDNAN_clean_linker_2, # of connection points: 2
#     Edge 13, Type (0, 1), BuildingBlock: XUDNAN_clean_linker_2, # of connection points: 2
#     Edge 14, Type (0, 1), BuildingBlock: XUDNAN_clean_linker_2, # of connection points: 2
#     Edge 15, Type (0, 1), BuildingBlock: XUDNAN_clean_linker_2, # of connection points: 2
#     Edge 16, Type (0, 1), BuildingBlock: XUDNAN_clean_linker_2, # of connection points: 2
#     Edge 17, Type (0, 1), BuildingBlock: XUDNAN_clean_linker_2, # of connection points: 2
#     Edge 18, Type (0, 1), BuildingBlock: XUDNAN_clean_linker_2, # of connection points: 2
#     Edge 19, Type (0, 1), BuildingBlock: XUDNAN_clean_linker_2, # of connection points: 2
#     Edge 20, Type (0, 1), BuildingBlock: XUDNAN_clean_linker_2, # of connection points: 2
#     Edge 21, Type (0, 1), BuildingBlock: XUDNAN_clean_linker_2, # of connection points: 2
#     Edge 22, Type (0, 1), BuildingBlock: XUDNAN_clean_linker_2, # of connection points: 2
#     Edge 23, Type (0, 1), BuildingBlock: XUDNAN_clean_linker_2, # of connection points: 2
#     Edge 24, Type (0, 1), BuildingBlock: XUDNAN_clean_linker_2, # of connection points: 2
#     Edge 25, Type (0, 1), BuildingBlock: XUDNAN_clean_linker_2, # of connection points: 2
#     Edge 26, Type (0, 1), BuildingBlock: XUDNAN_clean_linker_2, # of connection points: 2
# Relax obj value: 0.239
# Max RMSD: 0.189
# Mean RMSD: 0.155
data_MOF--net-anh--node1-NUHQIS_clean_sbu_0--node2-MIDCAF_clean_linker_0--edge1-XUDNAN_clean_linker_2
_symmetry_space_group_name_H-M    P1
_symmetry_Int_Tables_number       1
_symmetry_cell_setting            triclinic
loop_
_symmetry_equiv_pos_as_xyz
'x, y, z'
_cell_length_a     36.705824
_cell_length_b     36.73351
_cell_length_c     67.246137
_cell_angle_alpha  90.363613
_cell_angle_beta   92.792916
_cell_angle_gamma 119.91427
loop_
_atom_site_label
_atom_site_type_symbol
_atom_site_fract_x
_atom_site_fract_y
_atom_site_fract_z
_atom_type_partial_charge
Tb0 Tb 0.16967 0.58232 0.16165 0.0
Eu1 Eu 0.11801 0.63048 0.15592 0.0
C2 C 0.1442 0.61349 0.19828 0.0
C3 C 1.06727 0.52753 0.16234 0.0
C4 C 0.25207 0.55323 0.176 0.0
C5 C 0.29065 0.52941 0.1974 0.0
C6 C 0.25311 0.52827 0.19147 0.0
C7 C 0.28983 0.58198 0.16769 0.0
C8 C 0.32729 0.58287 0.17348 0.0
C9 C 0.32767 0.55512 0.18772 0.0
C10 C 0.21103 0.54507 0.16724 0.0
O11 O 0.1434 0.56782 0.13092 0.0
O12 O 0.14128 0.62763 0.1256 0.0
O13 O 0.18668 0.68444 0.1634 0.0
O14 O 0.22032 0.64765 0.15689 0.0
C15 C 0.1425 0.59492 0.11858 0.0
O16 O 1.07864 0.64642 0.13699 0.0
O17 O 0.09761 0.67307 0.16709 0.0
O18 O 0.11186 0.60942 0.18741 0.0
O19 O 0.1762 0.61504 0.18977 0.0
O20 O 0.10479 0.53162 0.16655 0.0
O21 O 1.06456 0.56039 0.15611 0.0
C22 C 0.22206 0.68391 0.16091 0.0
O23 O 0.18424 0.54411 0.17955 0.0
O24 O 0.21088 0.564 0.1509 0.0
C25 C 1.02748 0.65021 0.15474 0.0
C26 C 0.9397 0.59939 0.15718 0.0
C27 C 0.9568 0.6197 0.13946 0.0
C28 C 1.00015 0.64514 0.13835 0.0
C29 C 1.01057 0.63303 0.17296 0.0
C30 C 0.96702 0.60824 0.17421 0.0
C31 C 1.07222 0.66609 0.15142 0.0
H32 H 0.29009 0.50814 0.20862 0.0
H33 H 0.2244 0.50607 0.1982 0.0
H34 H 0.29008 0.60195 0.15585 0.0
H35 H 0.35505 0.60284 0.16557 0.0
H36 H 0.93729 0.61353 0.12587 0.0
H37 H 1.01249 0.65801 0.12415 0.0
H38 H 1.03092 0.63652 0.18592 0.0
H39 H 0.95504 0.5942 0.18825 0.0
Tb40 Tb 0.66046 0.11503 0.49699 0.0
Eu41 Eu 0.56446 0.07072 0.48056 0.0
C42 C 0.58719 0.08133 0.52527 0.0
C43 C 0.61088 1.01395 0.49084 0.0
C44 C 0.75339 0.20289 0.51813 0.0
C45 C 0.80235 0.27431 0.50961 0.0
C46 C 0.79202 0.23236 0.51091 0.0
C47 C 0.72776 0.21692 0.52635 0.0
C48 C 0.73819 0.25892 0.5251 0.0
C49 C 0.77419 0.2872 0.51555 0.0
C50 C 0.73451 0.15861 0.51148 0.0
O51 O 0.66166 0.10415 0.46473 0.0
O52 O 0.60015 0.101 0.45376 0.0
O53 O 0.57937 0.13807 0.48989 0.0
O54 O 0.65111 0.16929 0.49048 0.0
C55 C 0.63679 0.10534 0.45019 0.0
O56 O 0.5138 1.03178 0.45855 0.0
O57 O 0.49986 1.05472 0.48526 0.0
O58 O 0.56695 1.05189 0.51164 0.0
O59 O 0.62204 0.11491 0.52096 0.0
O60 O 0.643 1.04771 0.49987 0.0
O61 O 0.58094 1.01755 0.48067 0.0
C62 C 0.61685 0.17263 0.49119 0.0
O63 O 0.70397 0.1311 0.52166 0.0
O64 O 0.72478 0.15246 0.49239 0.0
C65 C 0.45471 0.98333 0.47558 0.0
C66 C 0.40884 0.9007 0.48909 0.0
C67 C 0.42942 0.90857 0.47122 0.0
C68 C 0.45198 0.94937 0.46451 0.0
C69 C 0.43267 0.97523 0.49305 0.0
C70 C 0.40999 0.93431 0.49974 0.0
C71 C 0.48469 1.02703 0.47043 0.0
H72 H 0.83053 0.29587 0.50232 0.0
H73 H 0.812 0.22222 0.50434 0.0
H74 H 0.6975 0.19477 0.53181 0.0
H75 H 0.71598 0.26816 0.52969 0.0
H76 H 0.42805 0.88312 0.46237 0.0
H77 H 0.4683 0.95437 0.45092 0.0
H78 H 0.43407 1.00067 0.50192 0.0
H79 H 0.39419 0.92912 0.5135 0.0
Tb80 Tb 0.66225 0.64401 0.82767 0.0
Eu81 Eu 0.60743 0.54539 0.8203 0.0
C82 C 0.63519 0.58428 0.8633 0.0
C83 C 0.71185 0.59251 0.82737 0.0
C84 C 0.678 0.74858 0.82916 0.0
C85 C 0.67051 0.7981 0.80814 0.0
C86 C 0.69552 0.78284 0.81666 0.0
C87 C 0.63647 0.73273 0.8347 0.0
C88 C 0.61147 0.74784 0.82616 0.0
C89 C 0.62753 0.77901 0.8119 0.0
C90 C 0.69813 0.72284 0.83172 0.0
O91 O 0.66731 0.63085 0.79632 0.0
O92 O 0.60445 0.57111 0.79025 0.0
O93 O 0.55872 0.56399 0.82913 0.0
O94 O 0.59691 0.63274 0.82111 0.0
C95 C 0.63703 0.60421 0.78365 0.0
O96 O 0.59074 0.48766 0.80357 0.0
O97 O 0.55877 0.48504 0.83026 0.0
O98 O 0.63591 0.55667 0.85134 0.0
O99 O 0.63629 0.61778 0.85604 0.0
O100 O 0.71179 0.62649 0.83415 0.0
O101 O 0.67654 0.56083 0.81903 0.0
C102 C 0.56063 0.60033 0.82604 0.0
O103 O 0.68722 0.69795 0.84669 0.0
O104 O 0.69732 0.70322 0.81541 0.0
C105 C 0.57781 0.43305 0.82572 0.0
C106 C 0.60078 0.37651 0.8423 0.0
C107 C 0.61602 0.39506 0.82408 0.0
C108 C 0.6046 0.42291 0.81586 0.0
C109 C 0.56298 0.41497 0.84411 0.0
C110 C 0.57439 0.38698 0.85232 0.0
C111 C 0.56713 0.46391 0.81738 0.0
H112 H 0.68413 0.82303 0.79764 0.0
H113 H 0.72742 0.79538 0.81213 0.0
H114 H 0.62202 0.70608 0.84423 0.0
H115 H 0.5786 0.73245 0.82947 0.0
H116 H 0.63544 0.38676 0.81569 0.0
H117 H 0.61659 0.4362 0.80169 0.0
H118 H 0.54243 0.42232 0.85212 0.0
H119 H 0.56199 0.37293 0.86633 0.0
C120 C 0.4966 0.98612 0.2031 0.0
C121 C 0.49459 0.96482 0.18516 0.0
C122 C 0.53071 0.98554 0.17366 0.0
C123 C 0.56713 1.02451 0.18008 0.0
H124 H 0.68811 0.20421 0.17804 0.0
H125 H 0.75414 0.26658 0.16852 0.0
H126 H 0.82536 0.22991 0.20794 0.0
H127 H 0.76075 0.16888 0.21708 0.0
H128 H 0.71897 0.13898 0.26248 0.0
H129 H 0.72566 0.1396 0.29851 0.0
H130 H 0.59373 0.1016 0.30079 0.0
H131 H 0.58686 0.09743 0.26451 0.0
H132 H 0.53247 1.0383 0.22378 0.0
H133 H 0.47055 0.97227 0.21272 0.0
H134 H 0.53121 0.97148 0.15956 0.0
H135 H 0.59401 1.03794 0.17094 0.0
N136 N 0.64313 0.11306 0.19735 0.0
N137 N 0.68086 0.14571 0.22786 0.0
N138 N 0.61367 0.08628 0.22814 0.0
C139 C 0.67891 0.14528 0.20756 0.0
C140 C 0.64867 0.11696 0.23825 0.0
C141 C 0.60997 0.08296 0.20782 0.0
C142 C 0.71823 0.17979 0.198 0.0
C143 C 0.71795 0.20883 0.18425 0.0
C144 C 0.75617 0.2454 0.17904 0.0
C145 C 0.79639 0.25436 0.18723 0.0
C146 C 0.79606 0.2249 0.2008 0.0
C147 C 0.75838 0.18914 0.20608 0.0
C148 C 0.65244 0.1183 0.26053 0.0
C149 C 0.6914 0.1307 0.27072 0.0
C150 C 0.6952 0.13145 0.29162 0.0
C151 C 0.66046 0.12128 0.30324 0.0
C152 C 0.62139 0.10904 0.29285 0.0
C153 C 0.61736 0.10698 0.27187 0.0
C154 C 0.56953 1.0447 0.19845 0.0
C155 C 0.53292 1.0246 0.20956 0.0
C156 C 0.59655 0.4475 0.53427 0.0
C157 C 0.61721 0.44745 0.5171 0.0
C158 C 0.63444 0.48529 0.50633 0.0
C159 C 0.63202 0.52129 0.5127 0.0
H160 H 0.59104 0.641 0.50096 0.0
H161 H 0.58752 0.70246 0.48908 0.0
H162 H 0.64405 0.76793 0.54542 0.0
H163 H 0.64839 0.70774 0.55689 0.0
H164 H 0.63117 0.66269 0.59477 0.0
H165 H 0.63767 0.66857 0.6309 0.0
H166 H 0.6173 0.54252 0.63362 0.0
H167 H 0.61049 0.53628 0.59708 0.0
H168 H 0.57946 0.48145 0.55441 0.0
H169 H 0.58295 0.42005 0.54331 0.0
H170 H 0.65029 0.4874 0.49288 0.0
H171 H 0.64676 0.54943 0.50414 0.0
N172 N 0.61625 0.59465 0.52935 0.0
N173 N 0.61977 0.62887 0.55983 0.0
N174 N 0.61569 0.56328 0.56014 0.0
C175 C 0.6186 0.62905 0.53956 0.0
C176 C 0.61832 0.59673 0.5703 0.0
C177 C 0.61481 0.56121 0.5398 0.0
C178 C 0.61992 0.66804 0.53009 0.0
C179 C 0.60335 0.66862 0.51075 0.0
C180 C 0.60088 0.70434 0.504 0.0
C181 C 0.61504 0.74153 0.51617 0.0
C182 C 0.63286 0.74113 0.5352 0.0
C183 C 0.63509 0.70566 0.54191 0.0
C184 C 0.6206 0.59907 0.59272 0.0
C185 C 0.62787 0.63596 0.60291 0.0
C186 C 0.6318 0.63946 0.62378 0.0
C187 C 0.62843 0.60619 0.63534 0.0
C188 C 0.61992 0.56875 0.62527 0.0
C189 C 0.61628 0.56531 0.60426 0.0
C190 C 0.61273 0.52161 0.53034 0.0
C191 C 0.5947 0.48347 0.54074 0.0
C192 C 1.01281 0.58278 0.84024 0.0
C193 C 0.99135 0.59728 0.85233 0.0
C194 C 1.01179 0.61532 0.87108 0.0
C195 C 1.05014 0.61733 0.87766 0.0
H196 H 0.2253 0.56856 0.89192 0.0
H197 H 0.28836 0.57179 0.88037 0.0
H198 H 0.27123 0.62194 0.82517 0.0
H199 H 0.20778 0.61949 0.83712 0.0
H200 H 0.19781 0.5846 0.93076 0.0
H201 H 0.1991 0.58036 0.96686 0.0
H202 H 0.09507 0.60363 0.9683 0.0
H203 H 0.09381 0.60821 0.93199 0.0
H204 H 1.0657 0.57247 0.83715 0.0
H205 H 0.9995 0.56921 0.82553 0.0
H206 H 0.99742 0.62678 0.8812 0.0
H207 H 1.06315 0.6307 0.89245 0.0
N208 N 0.14048 0.5979 0.86489 0.0
N209 N 0.17376 0.59545 0.89546 0.0
N210 N 0.11238 0.59979 0.89559 0.0
C211 C 0.17336 0.59579 0.87518 0.0
C212 C 0.14394 0.5975 0.90583 0.0
C213 C 0.10941 0.59989 0.87529 0.0
C214 C 0.21016 0.59397 0.86571 0.0
C215 C 0.2344 0.58023 0.87719 0.0
C216 C 0.27123 0.5818 0.87042 0.0
C217 C 0.28672 0.5975 0.8517 0.0
C218 C 0.26189 0.61024 0.83987 0.0
C219 C 0.22458 0.60842 0.84665 0.0
C220 C 0.1455 0.59646 0.92819 0.0
C221 C 0.1752 0.58901 0.93866 0.0
C222 C 0.17584 0.58638 0.95948 0.0
C223 C 0.14697 0.5913 0.97064 0.0
C224 C 0.11796 0.5999 0.96029 0.0
C225 C 0.11709 0.60223 0.93938 0.0
C226 C 1.07103 0.60179 0.86593 0.0
C227 C 1.05166 0.58509 0.84683 0.0
C228 C 0.18664 0.61997 0.45823 0.0
C229 C 0.18286 0.62977 0.47799 0.0
C230 C 0.14277 0.61873 0.48425 0.0
C231 C 0.10809 0.60259 0.47051 0.0
H232 H 0.99501 0.59626 0.46357 0.0
H233 H 0.92668 0.56492 0.4771 0.0
H234 H 0.86739 0.5196 0.41813 0.0
H235 H 0.93669 0.54979 0.40457 0.0
H236 H 1.02085 0.60357 0.36905 0.0
H237 H 1.04295 0.61245 0.33483 0.0
H238 H 0.1321 0.57195 0.35137 0.0
H239 H 0.1111 0.56438 0.38541 0.0
H240 H 0.15675 0.59921 0.42913 0.0
H241 H 0.21708 0.6283 0.45284 0.0
H242 H 0.13883 0.62541 0.49946 0.0
H243 H 1.0782 0.59695 0.47558 0.0
N244 N 1.04244 0.58574 0.44039 0.0
N245 N 1.01894 0.58002 0.40679 0.0
N246 N 0.08529 0.58776 0.4154 0.0
C247 C 1.01224 0.5812 0.42647 0.0
C248 C 1.05563 0.58337 0.40121 0.0
C249 C 1.07897 0.58892 0.43502 0.0
C250 C 0.97131 0.57381 0.43313 0.0
C251 C 0.96747 0.58047 0.45334 0.0
C252 C 0.92794 0.56297 0.46111 0.0
C253 C 0.8913 0.53847 0.44882 0.0
C254 C 0.89506 0.53729 0.4281 0.0
C255 C 0.9348 0.55461 0.42031 0.0
C256 C 1.06465 0.58387 0.37999 0.0
C257 C 1.04484 0.59617 0.36528 0.0
C258 C 1.05746 0.60119 0.34568 0.0
C259 C 0.08986 0.59367 0.34045 0.0
C260 C 0.10795 0.57924 0.355 0.0
C261 C 0.0957 0.57464 0.37452 0.0
C262 C 0.11291 0.59713 0.45027 0.0
C263 C 0.15201 0.60378 0.44452 0.0
C264 C 0.55384 0.13408 0.78086 0.0
C265 C 0.5442 0.1228 0.80066 0.0
C266 C 0.51074 0.08282 0.80442 0.0
C267 C 0.48723 1.05462 0.78866 0.0
H268 H 0.42523 0.93048 0.77744 0.0
H269 H 0.43357 0.87108 0.78405 0.0
H270 H 0.40995 0.83505 0.72126 0.0
H271 H 0.4051 0.89749 0.71448 0.0
H272 H 0.41345 0.97085 0.68445 0.0
H273 H 0.42738 0.98935 0.64997 0.0
H274 H 0.52562 0.11422 0.66897 0.0
H275 H 0.5121 0.09563 0.70373 0.0
H276 H 0.53818 0.11575 0.74999 0.0
H277 H 0.57894 0.16512 0.77756 0.0
H278 H 0.50251 0.07359 0.81955 0.0
H279 H 0.46157 1.02397 0.79206 0.0
N280 N 0.45046 0.99408 0.75599 0.0
N281 N 0.43442 0.97724 0.72194 0.0
N282 N 0.47528 1.04777 0.73308 0.0
C283 C 0.43144 0.96464 0.74101 0.0
C284 C 0.45584 1.01877 0.71785 0.0
C285 C 0.47233 1.03552 0.75224 0.0
C286 C 0.41722 0.92022 0.74531 0.0
C287 C 0.42079 0.90946 0.76502 0.0
C288 C 0.42514 0.87461 0.76885 0.0
C289 C 0.42492 0.84914 0.75304 0.0
C290 C 0.41283 0.85534 0.73371 0.0
C291 C 0.40951 0.89096 0.72982 0.0
C292 C 0.46174 1.03166 0.6969 0.0
C293 C 0.4378 1.0024 0.68136 0.0
C294 C 0.4456 1.0131 0.66155 0.0
C295 C 0.47757 1.05328 0.65677 0.0
C296 C 0.50098 0.08293 0.67224 0.0
C297 C 0.49299 0.07231 0.69213 0.0
C298 C 0.49638 0.06609 0.76881 0.0
C299 C 0.53004 0.10608 0.76508 0.0
C300 C 0.6659 0.38098 0.0836 0.0
C301 C 0.66708 0.37771 0.1044 0.0
C302 C 0.62917 0.35762 0.11396 0.0
C303 C 0.59137 0.34731 0.1034 0.0
H304 H 0.48996 0.36159 0.11898 0.0
H305 H 0.47385 0.39611 0.14566 0.0
H306 H 0.47948 0.48851 0.10473 0.0
H307 H 0.49486 0.45403 0.07801 0.0
H308 H 0.49285 0.43037 0.03147 0.0
H309 H 0.50792 0.46792 0.00058 0.0
H310 H 0.60257 0.43415 0.9899 0.0
H311 H 0.58718 0.39595 0.02065 0.0
H312 H 0.62911 0.37779 0.0574 0.0
H313 H 0.69485 0.39581 0.0759 0.0
H314 H 0.62928 0.35445 0.12997 0.0
H315 H 0.56323 0.33605 0.11159 0.0
N316 N 0.53414 0.37174 0.08748 0.0
N317 N 0.51138 0.40014 0.06204 0.0
N318 N 0.55794 0.37591 0.05545 0.0
C319 C 0.51094 0.38934 0.08132 0.0
C320 C 0.53426 0.39295 0.04889 0.0
C321 C 0.55772 0.36481 0.07472 0.0
C322 C 0.49373 0.4051 0.09639 0.0
C323 C 0.48704 0.38885 0.1156 0.0
C324 C 0.47807 0.40863 0.13088 0.0
C325 C 0.47647 0.44537 0.12725 0.0
C326 C 0.48146 0.46065 0.10792 0.0
C327 C 0.48965 0.44052 0.09258 0.0
C328 C 0.53909 0.41042 0.02873 0.0
C329 C 0.51652 0.4304 0.02246 0.0
C330 C 0.52535 0.45224 0.0048 0.0
C331 C 0.55688 0.45456 0.99295 0.0
C332 C 0.57797 0.43282 -0.00134 0.0
C333 C 0.56917 0.41096 0.01635 0.0
C334 C 0.59124 0.35724 0.0832 0.0
C335 C 0.62812 0.37054 0.07302 0.0
H336 H 0.32308 0.47915 0.18892 0.0
H337 H 0.41255 0.61262 0.18815 0.0
H338 H 0.46788 0.59687 0.17952 0.0
H339 H 0.40441 0.44446 0.20542 0.0
H340 H 0.37579 0.39803 0.18943 0.0
H341 H 0.34789 0.41932 0.20203 0.0
H342 H 0.31344 0.42262 0.1681 0.0
H343 H 0.34174 0.40254 0.15532 0.0
H344 H 0.34658 0.45207 0.14846 0.0
H345 H 0.50539 0.56812 0.16151 0.0
H346 H 0.52391 0.52832 0.13829 0.0
H347 H 0.41133 0.41317 0.15154 0.0
C348 C 0.3549 0.5051 0.1882 0.0
C349 C 0.3635 0.5471 0.18922 0.0
C350 C 0.40523 0.58018 0.18736 0.0
C351 C 0.43693 0.5715 0.18259 0.0
C352 C 0.42654 0.5296 0.18013 0.0
C353 C 0.38671 0.49685 0.18341 0.0
C354 C 0.3813 0.45498 0.17655 0.0
C355 C 0.37712 0.42759 0.19443 0.0
C356 C 0.34358 0.43178 0.1612 0.0
C357 C 0.42274 0.46966 0.16716 0.0
C358 C 0.44892 0.51268 0.16987 0.0
C359 C 0.48595 0.53429 0.15993 0.0
C360 C 0.49604 0.51158 0.14665 0.0
C361 C 0.46914 0.46779 0.14343 0.0
C362 C 0.43287 0.44646 0.15428 0.0
H363 H 0.7805 0.30965 0.47742 0.0
H364 H 0.77541 0.35233 0.53681 0.0
H365 H 0.78671 0.41989 0.52338 0.0
H366 H 0.86175 0.39757 0.46255 0.0
H367 H 0.84188 0.39358 0.43709 0.0
H368 H 0.82432 0.34712 0.45112 0.0
H369 H 0.74687 0.32927 0.44372 0.0
H370 H 0.76468 0.37664 0.42998 0.0
H371 H 0.73134 0.36694 0.45042 0.0
H372 H 0.81338 0.48676 0.50447 0.0
H373 H 0.85656 0.54586 0.48325 0.0
H374 H 0.84126 0.45725 0.43621 0.0
C375 C 0.7813 0.33314 0.48754 0.0
C376 C 0.77806 0.32657 0.50812 0.0
C377 C 0.77824 0.35726 0.52097 0.0
C378 C 0.78419 0.39537 0.51343 0.0
C379 C 0.78859 0.40144 0.49298 0.0
C380 C 0.78661 0.37073 0.48023 0.0
C381 C 0.7969 0.38601 0.45938 0.0
C382 C 0.83338 0.38082 0.45215 0.0
C383 C 0.7576 0.36337 0.44503 0.0
C384 C 0.80948 0.43158 0.46275 0.0
C385 C 0.80289 0.43967 0.48199 0.0
C386 C 0.81778 0.48062 0.48927 0.0
C387 C 0.84244 0.51407 0.47711 0.0
C388 C 0.85271 0.50629 0.45808 0.0
C389 C 0.83335 0.46451 0.45043 0.0
H390 H 0.55861 0.78353 0.82308 0.0
H391 H 0.62956 0.7916 0.77181 0.0
H392 H 0.57861 0.80023 0.75013 0.0
H393 H 0.45477 0.72391 0.79683 0.0
H394 H 0.43314 0.75025 0.81061 0.0
H395 H 0.47466 0.74331 0.82203 0.0
H396 H 0.52012 0.82389 0.82916 0.0
H397 H 0.4786 0.83077 0.81791 0.0
H398 H 0.53072 0.85897 0.80885 0.0
H399 H 0.52319 0.81267 0.7345 0.0
H400 H 0.47146 0.83453 0.72653 0.0
H401 H 0.43032 0.80927 0.78703 0.0
C402 C 0.56332 0.78681 0.80728 0.0
C403 C 0.5984 0.78729 0.79923 0.0
C404 C 0.60356 0.79214 0.77847 0.0
C405 C 0.57439 0.79635 0.76595 0.0
C406 C 0.5399 0.79509 0.77435 0.0
C407 C 0.5343 0.79062 0.79452 0.0
C408 C 0.49546 0.79203 0.79986 0.0
C409 C 0.46255 0.74987 0.80783 0.0
C410 C 0.50693 0.82859 0.81482 0.0
C411 C 0.48093 0.79943 0.77963 0.0
C412 C 0.50674 0.80061 0.76509 0.0
C413 C 0.50218 0.81102 0.74565 0.0
C414 C 0.47201 0.82291 0.74121 0.0
C415 C 0.44646 0.82409 0.75614 0.0
C416 C 0.44954 0.80958 0.77526 0.0
H417 H 0.8715 0.59331 0.13511 0.0
H418 H 0.90643 0.5263 0.17786 0.0
H419 H 0.83683 0.46324 0.17163 0.0
H420 H 0.75615 0.53699 0.14248 0.0
H421 H 0.74402 0.53714 0.1162 0.0
H422 H 0.79204 0.57951 0.12775 0.0
H423 H 0.83456 0.56587 0.10198 0.0
H424 H 0.78694 0.52289 0.09066 0.0
H425 H 0.82905 0.51439 0.09971 0.0
H426 H 0.76801 0.40342 0.15628 0.0
H427 H 0.7034 0.35531 0.13533 0.0
H428 H 0.71856 0.46077 0.10083 0.0
C429 C 0.86457 0.56564 0.14338 0.0
C430 C 0.89497 0.56496 0.15684 0.0
C431 C 0.88381 0.5281 0.16763 0.0
C432 C 0.84439 0.4918 0.16403 0.0
C433 C 0.81663 0.49266 0.14946 0.0
C434 C 0.82602 0.52891 0.13954 0.0
C435 C 0.79296 0.5209 0.12319 0.0
C436 C 0.76992 0.54506 0.12768 0.0
C437 C 0.81204 0.53164 0.10269 0.0
C438 C 0.76449 0.47416 0.12487 0.0
C439 C 0.77801 0.45835 0.14031 0.0
C440 C 0.7569 0.41555 0.14426 0.0
C441 C 0.72061 0.38845 0.13226 0.0
C442 C 0.70681 0.40435 0.11628 0.0
C443 C 0.72909 0.44767 0.11267 0.0
H444 H 0.33041 0.86245 0.50314 0.0
H445 H 0.43214 0.84043 0.48956 0.0
H446 H 0.38651 0.76482 0.49498 0.0
H447 H 0.27812 0.77225 0.54009 0.0
H448 H 0.22683 0.76176 0.53071 0.0
H449 H 0.27068 0.81485 0.5319 0.0
H450 H 0.25729 0.82172 0.49425 0.0
H451 H 0.21364 0.76919 0.49303 0.0
H452 H 0.25587 0.78371 0.47665 0.0
H453 H 0.32658 0.6921 0.49326 0.0
H454 H 0.25796 0.63005 0.48315 0.0
H455 H 0.19522 0.69883 0.49859 0.0
C456 C 0.34365 0.84198 0.50227 0.0
C457 C 0.38466 0.85715 0.49596 0.0
C458 C 0.40059 0.82929 0.49427 0.0
C459 C 0.37507 0.78638 0.49758 0.0
C460 C 0.33392 0.77195 0.50286 0.0
C461 C 0.31849 0.7991 0.50546 0.0
C462 C 0.27147 0.77533 0.50763 0.0
C463 C 0.26118 0.78141 0.52885 0.0
C464 C 0.24826 0.78823 0.49195 0.0
C465 C 0.26224 0.73079 0.5039 0.0
C466 C 0.2988 0.72924 0.50196 0.0
C467 C 0.2978 0.69264 0.49536 0.0
C468 C 0.2587 0.65755 0.48957 0.0
C469 C 0.22128 0.65959 0.4902 0.0
C470 C 0.2231 0.69585 0.49855 0.0
H471 H 0.54194 0.30088 0.85476 0.0
H472 H 0.67399 0.37348 0.8432 0.0
H473 H 0.67809 0.30869 0.84206 0.0
H474 H 0.5491 0.20634 0.88061 0.0
H475 H 0.49804 0.17049 0.8689 0.0
H476 H 0.50961 0.22175 0.8779 0.0
H477 H 0.48785 0.23608 0.84297 0.0
H478 H 0.47698 0.18577 0.8338 0.0
H479 H 0.51401 0.23239 0.82164 0.0
H480 H 0.66225 0.24025 0.82911 0.0
H481 H 0.62895 0.17519 0.80811 0.0
H482 H 0.50719 0.14402 0.82859 0.0
C483 C 0.57229 0.30326 0.85336 0.0
C484 C 0.60751 0.34187 0.84894 0.0
C485 C 0.64655 0.34399 0.8465 0.0
C486 C 0.6492 0.3073 0.846 0.0
C487 C 0.61272 0.26889 0.84832 0.0
C488 C 0.57512 0.2667 0.85263 0.0
C489 C 0.53865 0.22205 0.85022 0.0
C490 C 0.52294 0.20409 0.87062 0.0
C491 C 0.50236 0.21897 0.83631 0.0
C492 C 0.56042 0.20087 0.84103 0.0
C493 C 0.60349 0.22783 0.84095 0.0
C494 C 0.62895 0.21824 0.82982 0.0
C495 C 0.6098 0.18141 0.81779 0.0
C496 C 0.56566 0.15472 0.81698 0.0
C497 C 0.54116 0.16344 0.82954 0.0
H498 H 0.66083 0.9864 0.51317 0.0
H499 H 0.55115 0.93964 0.47188 0.0
H500 H 0.54151 0.86843 0.47353 0.0
H501 H 0.69944 0.91829 0.49451 0.0
H502 H 0.71612 0.90947 0.51877 0.0
H503 H 0.7154 0.95746 0.51433 0.0
H504 H 0.66752 0.94289 0.54364 0.0
H505 H 0.6681 0.89486 0.54814 0.0
H506 H 0.61867 0.89374 0.54391 0.0
H507 H 0.54294 0.79958 0.47951 0.0
H508 H 0.55409 0.74154 0.48979 0.0
H509 H 0.66277 0.82924 0.52764 0.0
C510 C 0.63485 0.96132 0.50437 0.0
C511 C 0.60696 0.97006 0.49221 0.0
C512 C 0.57336 0.93519 0.48125 0.0
C513 C 0.56751 0.89402 0.48209 0.0
C514 C 0.59527 0.88661 0.49408 0.0
C515 C 0.62831 0.91934 0.50511 0.0
C516 C 0.65311 0.9022 0.51704 0.0
C517 C 0.69874 0.92311 0.51079 0.0
C518 C 0.65178 0.90883 0.53952 0.0
C519 C 0.629 0.85504 0.51102 0.0
C520 C 0.59581 0.84693 0.49767 0.0
C521 C 0.56907 0.80601 0.48991 0.0
C522 C 0.57602 0.77278 0.49581 0.0
C523 C 0.60964 0.77927 0.50959 0.0
C524 C 0.63642 0.8218 0.51721 0.0
H525 H 0.79229 0.64409 0.84825 0.0
H526 H 0.72388 0.53133 0.81036 0.0
H527 H 0.78566 0.52169 0.81221 0.0
H528 H 0.89604 0.68049 0.82839 0.0
H529 H 0.92497 0.69897 0.85218 0.0
H530 H 0.87572 0.69817 0.84781 0.0
H531 H 0.84684 0.65296 0.8786 0.0
H532 H 0.89601 0.65364 0.88305 0.0
H533 H 0.84733 0.60424 0.88031 0.0
H534 H 0.85649 0.52342 0.81789 0.0
H535 H 0.92701 0.53497 0.82772 0.0
H536 H 0.95321 0.64613 0.86264 0.0
C537 C 0.79023 0.61742 0.84025 0.0
C538 C 0.75198 0.58863 0.82899 0.0
C539 C 0.75177 0.55416 0.81905 0.0
C540 C 0.78719 0.54832 0.82001 0.0
C541 C 0.82393 0.57692 0.83112 0.0
C542 C 0.82575 0.61079 0.84118 0.0
C543 C 0.86926 0.63627 0.85236 0.0
C544 C 0.8929 0.68115 0.84473 0.0
C545 C 0.86457 0.63682 0.87492 0.0
C546 C 0.89145 0.61159 0.847 0.0
C547 C 0.86456 0.57755 0.83462 0.0
C548 C 0.87761 0.55018 0.82755 0.0
C549 C 0.91851 0.55734 0.83316 0.0
C550 C 0.94747 0.59177 0.84599 0.0
C551 C 0.93286 0.61919 0.85294 0.0
H552 H 0.24887 0.76591 0.1781 0.0
H553 H 0.29619 0.69516 0.1474 0.0
H554 H 0.36734 0.75716 0.14967 0.0
H555 H 0.31743 0.86796 0.1562 0.0
H556 H 0.32631 0.89851 0.17884 0.0
H557 H 0.27814 0.84908 0.17444 0.0
H558 H 0.29254 0.82274 0.20779 0.0
H559 H 0.34075 0.87208 0.21229 0.0
H560 H 0.3417 0.82349 0.21245 0.0
H561 H 0.43574 0.82818 0.15507 0.0
H562 H 0.49411 0.89919 0.16424 0.0
H563 H 0.40699 0.92761 0.19259 0.0
C564 C 0.27407 0.76345 0.1717 0.0
C565 C 0.26558 0.72447 0.16235 0.0
C566 C 0.30056 0.72365 0.15458 0.0
C567 C 0.34165 0.75917 0.15579 0.0
C568 C 0.3489 0.7966 0.16505 0.0
C569 C 0.31611 0.79905 0.17301 0.0
C570 C 0.33338 0.84318 0.1827 0.0
C571 C 0.31257 0.86604 0.17243 0.0
C572 C 0.32668 0.84019 0.20514 0.0
C573 C 0.38065 0.86498 0.1789 0.0
C574 C 0.38862 0.83736 0.16855 0.0
C575 C 0.42949 0.84987 0.16314 0.0
C576 C 0.46287 0.89102 0.16835 0.0
C577 C 0.45657 0.92072 0.17915 0.0
C578 C 0.41411 0.90664 0.18446 0.0
H579 H 0.56169 0.19984 0.50561 0.0
H580 H 0.68445 0.24804 0.48169 0.0
H581 H 0.69617 0.3201 0.48482 0.0
H582 H 0.53621 0.27598 0.48306 0.0
H583 H 0.51166 0.28174 0.5045 0.0
H584 H 0.51137 0.23324 0.49975 0.0
H585 H 0.54614 0.23942 0.53487 0.0
H586 H 0.54654 0.28794 0.53973 0.0
H587 H 0.59487 0.28641 0.54229 0.0
H588 H 0.69608 0.38957 0.49071 0.0
H589 H 0.68449 0.44806 0.49956 0.0
H590 H 0.56325 0.35894 0.52135 0.0
C591 C 0.59101 0.22546 0.50089 0.0
C592 C 0.62189 0.21693 0.49311 0.0
C593 C 0.65991 0.25243 0.48758 0.0
C594 C 0.66707 0.29403 0.48937 0.0
C595 C 0.63648 0.30129 0.49714 0.0
C596 C 0.59919 0.26796 0.50297 0.0
C597 C 0.57218 0.2851 0.51141 0.0
C598 C 0.53036 0.26798 0.49894 0.0
C599 C 0.56447 0.27405 0.53338 0.0
C600 C 0.59988 0.33295 0.50934 0.0
C601 C 0.63676 0.34139 0.50092 0.0
C602 C 0.66714 0.38292 0.49728 0.0
C603 C 0.66001 0.41639 0.50229 0.0
C604 C 0.62274 0.40954 0.51118 0.0
C605 C 0.59237 0.36646 0.51473 0.0
H606 H 0.48558 0.55168 0.84639 0.0
H607 H 0.54488 0.65997 0.80935 0.0
H608 H 0.48311 0.66959 0.81128 0.0
H609 H 0.37678 0.51209 0.82696 0.0
H610 H 0.35426 0.49689 0.85081 0.0
H611 H 0.40247 0.49739 0.84618 0.0
H612 H 0.43941 0.54707 0.87699 0.0
H613 H 0.39131 0.5467 0.88171 0.0
H614 H 0.43907 0.59587 0.87891 0.0
H615 H 0.41142 0.66582 0.81622 0.0
H616 H 0.34381 0.65578 0.82651 0.0
H617 H 0.32847 0.5509 0.86175 0.0
C618 C 0.48558 0.57732 0.83854 0.0
C619 C 0.52117 0.60492 0.82751 0.0
C620 C 0.51901 0.63823 0.81789 0.0
C621 C 0.48353 0.64388 0.81886 0.0
C622 C 0.44932 0.61632 0.82974 0.0
C623 C 0.45024 0.58388 0.83964 0.0
C624 C 0.40977 0.55978 0.85095 0.0
C625 C 0.38431 0.5138 0.84327 0.0
C626 C 0.42054 0.56251 0.87348 0.0
C627 C 0.38591 0.58344 0.84584 0.0
C628 C 0.40927 0.61565 0.83339 0.0
C629 C 0.39358 0.64117 0.82622 0.0
C630 C 0.35414 0.63463 0.83205 0.0
C631 C 0.32903 0.60236 0.84511 0.0
C632 C 0.34597 0.57638 0.85198 0.0
H633 H 0.9788 0.50042 0.16572 0.0
H634 H 1.06571 0.45268 0.16471 0.0
H635 H 1.00768 0.38148 0.16958 0.0
H636 H 0.91374 0.42924 0.20436 0.0
H637 H 0.86503 0.42254 0.19321 0.0
H638 H 0.91404 0.47001 0.18961 0.0
H639 H 0.8972 0.45637 0.15112 0.0
H640 H 0.84916 0.4082 0.15528 0.0
H641 H 0.88798 0.4074 0.14019 0.0
H642 H 0.94053 0.31358 0.17499 0.0
H643 H 0.87036 0.25527 0.18132 0.0
H644 H 0.82121 0.34104 0.18004 0.0
C645 C 0.98567 0.47499 0.16636 0.0
C646 C 1.02821 0.48359 0.16466 0.0
C647 C 1.03452 0.44842 0.16591 0.0
C648 C 1.0013 0.4072 0.16868 0.0
C649 C 0.96044 0.39991 0.17041 0.0
C650 C 0.95223 0.43273 0.16937 0.0
C651 C 0.9049 0.41523 0.17222 0.0
C652 C 0.89903 0.43547 0.19095 0.0
C653 C 0.88352 0.42225 0.15361 0.0
C654 C 0.88812 0.36788 0.17497 0.0
C655 C 0.92116 0.36018 0.17381 0.0
C656 C 0.91465 0.31959 0.17603 0.0
C657 C 0.87412 0.28626 0.1798 0.0
C658 C 0.83893 0.29225 0.18158 0.0
C659 C 0.84655 0.3343 0.17878 0.0
H660 H 0.13511 0.64048 0.08706 0.0
H661 H 0.15114 0.53345 0.10004 0.0
H662 H 0.15317 0.52119 0.0642 0.0
H663 H 1.06756 0.5944 0.04183 0.0
H664 H 0.09022 0.64299 0.02886 0.0
H665 H 0.0898 0.64381 0.05564 0.0
H666 H 0.17063 0.69311 0.05823 0.0
H667 H 0.17129 0.69245 0.03146 0.0
H668 H 0.20373 0.67744 0.04618 0.0
H669 H 0.15489 0.52061 0.02704 0.0
H670 H 0.15479 0.53098 0.99089 0.0
H671 H 0.13693 0.63781 0.00075 0.0
C672 C 0.13897 0.61442 0.08237 0.0
C673 C 0.14296 0.58796 0.0966 0.0
C674 C 0.14792 0.55422 0.08965 0.0
C675 C 0.14916 0.54695 0.06923 0.0
C676 C 0.14523 0.5735 0.05567 0.0
C677 C 0.14008 0.60649 0.06188 0.0
C678 C 0.13657 0.63013 0.044 0.0
C679 C 0.09347 0.62768 0.0425 0.0
C680 C 0.17271 0.67601 0.04503 0.0
C681 C 0.1408 0.60539 0.02685 0.0
C682 C 0.14585 0.57292 0.03402 0.0
C683 C 0.151 0.54597 0.02127 0.0
C684 C 0.15117 0.55232 0.00069 0.0
C685 C 0.14615 0.58538 0.99278 0.0
C686 C 0.14058 0.61206 0.00619 0.0
H687 H 0.58564 0.07296 0.41592 0.0
H688 H 0.71647 0.15053 0.43678 0.0
H689 H 0.7367 0.16356 0.40177 0.0
H690 H 0.60669 1.02459 0.37367 0.0
H691 H 0.56448 1.02244 0.35788 0.0
H692 H 0.56062 1.01989 0.3845 0.0
H693 H 0.54824 0.08339 0.38444 0.0
H694 H 0.55242 0.08636 0.35785 0.0
H695 H 0.58612 0.13174 0.37379 0.0
H696 H 0.74141 0.17251 0.3642 0.0
H697 H 0.73253 0.17029 0.32781 0.0
H698 H 0.5993 0.07928 0.33107 0.0
C699 C 0.6186 0.09262 0.41312 0.0
C700 C 0.64951 0.11102 0.42916 0.0
C701 C 0.69229 0.13605 0.42481 0.0
C702 C 0.704 0.14376 0.40494 0.0
C703 C 0.67269 0.12549 0.3895 0.0
C704 C 0.63094 0.09975 0.39338 0.0
C705 C 0.60361 0.0827 0.3741 0.0
C706 C 0.58262 1.03455 0.37244 0.0
C707 C 0.57065 0.0969 0.37245 0.0
C708 C 0.63635 0.10342 0.35871 0.0
C709 C 0.67588 0.12833 0.36793 0.0
C710 C 0.71071 0.15224 0.35687 0.0
C711 C 0.70524 0.15028 0.33595 0.0
C712 C 0.66528 0.12377 0.32586 0.0
C713 C 0.63044 0.10016 0.33776 0.0
H714 H 0.5881 0.55038 0.75157 0.0
H715 H 0.69597 0.67403 0.76578 0.0
H716 H 0.70514 0.68684 0.73 0.0
H717 H 0.63073 0.52719 0.70886 0.0
H718 H 0.58113 0.50051 0.69446 0.0
H719 H 0.58214 0.50062 0.72128 0.0
H720 H 0.53274 0.532 0.72086 0.0
H721 H 0.5315 0.53189 0.69404 0.0
H722 H 0.54743 0.57997 0.70809 0.0
H723 H 0.70313 0.68721 0.69276 0.0
H724 H 0.69031 0.67494 0.65641 0.0
H725 H 0.58426 0.55075 0.66502 0.0
C726 C 0.61359 0.58019 0.74716 0.0
C727 C 0.64132 0.61119 0.76172 0.0
C728 C 0.67431 0.64965 0.75513 0.0
C729 C 0.67981 0.6573 0.73475 0.0
C730 C 0.65222 0.6262 0.72086 0.0
C731 C 0.61975 0.58835 0.72671 0.0
C732 C 0.59487 0.56029 0.70853 0.0
C733 C 0.59738 0.51975 0.70827 0.0
C734 C 0.54891 0.55046 0.70784 0.0
C735 C 0.6184 0.58835 0.69161 0.0
C736 C 0.65129 0.62626 0.69917 0.0
C737 C 0.6774 0.65766 0.68669 0.0
C738 C 0.66968 0.65043 0.66597 0.0
C739 C 0.63608 0.612 0.65764 0.0
C740 C 0.61036 0.58039 0.67079 0.0
H741 H 0.62069 0.11012 0.56354 0.0
H742 H 0.50346 1.04943 0.52708 0.0
H743 H 0.46409 1.04447 0.55643 0.0
H744 H 0.58028 1.04444 0.60408 0.0
H745 H 0.61016 0.08455 0.62317 0.0
H746 H 0.63025 0.08919 0.59888 0.0
H747 H 0.63643 0.16232 0.59585 0.0
H748 H 0.61612 0.15779 0.62014 0.0
H749 H 0.59073 0.1676 0.5989 0.0
H750 H 0.43654 1.04121 0.58932 0.0
H751 H 0.42155 1.03433 0.62485 0.0
H752 H 0.55537 0.09318 0.64106 0.0
C753 C 0.58685 0.09655 0.56179 0.0
C754 C 0.56507 0.08037 0.5431 0.0
C755 C 0.5207 0.06193 0.54131 0.0
C756 C 0.49806 0.05928 0.55785 0.0
C757 C 0.52018 0.07489 0.57615 0.0
C758 C 0.56349 0.09283 0.57834 0.0
C759 C 0.57868 0.10289 0.60013 0.0
C760 C 0.60115 0.07882 0.60696 0.0
C761 C 0.60718 0.15049 0.60398 0.0
C762 C 0.53703 0.08678 0.60974 0.0
C763 C 0.50388 0.0716 0.59554 0.0
C764 C 0.46219 1.05321 0.60062 0.0
C765 C 0.45398 1.04922 0.62082 0.0
C766 C 0.48725 0.06309 0.63568 0.0
C767 C 0.52937 0.08296 0.63003 0.0
H768 H 0.62394 0.5135 0.88159 0.0
H769 H 0.62864 0.63238 0.89283 0.0
H770 H 0.61025 0.61261 0.92755 0.0
H771 H 0.53543 0.45147 0.90906 0.0
H772 H 0.55441 0.41765 0.91833 0.0
H773 H 0.57067 0.4423 0.89485 0.0
H774 H 0.64891 0.47529 0.90735 0.0
H775 H 0.63303 0.45052 0.93085 0.0
H776 H 0.6672 0.50661 0.93024 0.0
H777 H 0.58832 0.57829 0.96054 0.0
H778 H 0.56675 0.53322 0.98969 0.0
H779 H 0.57508 0.43637 0.95628 0.0
C780 C 0.62172 0.53574 0.89138 0.0
C781 C 0.62791 0.57461 0.88452 0.0
C782 C 0.62423 0.60253 0.89779 0.0
C783 C 0.61373 0.59154 0.91751 0.0
C784 C 0.60709 0.5526 0.92366 0.0
C785 C 0.61117 0.52526 0.911 0.0
C786 C 0.60115 0.48478 0.921 0.0
C787 C 0.56316 0.44683 0.91016 0.0
C788 C 0.63989 0.47898 0.92245 0.0
C789 C 0.59051 0.49346 0.9413 0.0
C790 C 0.59416 0.53274 0.94254 0.0
C791 C 0.58541 0.5475 0.95975 0.0
C792 C 0.57284 0.52152 0.97616 0.0
C793 C 0.56907 0.48119 0.97525 0.0
C794 C 0.57805 0.46716 0.95752 0.0
H795 H 1.07709 0.59098 0.22131 0.0
H796 H 0.21243 0.64171 0.22468 0.0
H797 H 0.21329 0.64473 0.26139 0.0
H798 H 1.07309 0.65078 0.26356 0.0
H799 H 1.02507 0.60765 0.27184 0.0
H800 H 1.0353 0.6116 0.24578 0.0
H801 H 1.02547 0.53668 0.24523 0.0
H802 H 1.01521 0.53246 0.27127 0.0
H803 H 1.0566 0.52463 0.26262 0.0
H804 H 0.19957 0.64152 0.29743 0.0
H805 H 0.17199 0.62965 0.33084 0.0
H806 H 1.04487 0.57767 0.30425 0.0
C807 C 0.10696 0.60316 0.22978 0.0
C808 C 0.14476 0.61638 0.22018 0.0
C809 C 0.18312 0.63145 0.23175 0.0
C810 C 0.18395 0.63341 0.25258 0.0
C811 C 0.14611 0.6199 0.26159 0.0
C812 C 0.10829 0.60488 0.2506 0.0
C813 C 1.0719 0.5905 0.26401 0.0
C814 C 1.05006 0.61671 0.26112 0.0
C815 C 1.04045 0.54326 0.26057 0.0
C816 C 0.09521 0.59968 0.28426 0.0
C817 C 0.138 0.61691 0.28248 0.0
C818 C 0.16611 0.62785 0.29903 0.0
C819 C 0.15004 0.62065 0.31795 0.0
C820 C 0.10617 0.60225 0.32021 0.0
C821 C 1.07854 0.59202 0.30306 0.0
loop_
_geom_bond_atom_site_label_1
_geom_bond_atom_site_label_2
_geom_bond_distance
_geom_bond_site_symmetry_2
_ccdc_geom_bond_type
Tb0 C10 2.825 . S
Tb0 O11 2.347 . S
Tb0 O14 2.366 . S
Tb0 O19 2.418 . S
Tb0 O20 2.384 1_455 S
Tb0 O23 2.479 . S
Tb0 O24 2.471 . S
Eu1 O12 2.418 . S
Eu1 O13 2.384 1_655 S
Eu1 O16 2.479 . S
Eu1 O17 2.471 . S
Eu1 O18 2.347 1_655 S
Eu1 O21 2.366 . S
Eu1 C31 2.825 . S
C2 O18 1.259 . S
C2 O19 1.265 . S
C3 O20 1.255 . S
C3 O21 1.265 . S
C4 C6 1.380 . S
C4 C7 1.374 . S
C4 C10 1.507 . S
C5 C6 1.384 . S
C5 C9 1.387 . S
C5 H32 0.930 . S
C6 C4 1.380 . S
C6 C5 1.384 . S
C6 H33 0.931 . S
C7 C4 1.374 . S
C7 C8 1.390 . S
C7 H34 0.930 . S
C8 C7 1.390 . S
C8 C9 1.391 . S
C8 H35 0.930 . S
C9 C5 1.387 . S
C9 C8 1.391 . S
C10 Tb0 2.825 . S
C10 C4 1.507 . S
C10 O23 1.238 . S
C10 O24 1.247 . S
O11 Tb0 2.347 . S
O11 C15 1.259 . S
O12 Eu1 2.418 . S
O12 C15 1.263 1_655 S
O13 Eu1 2.384 1_455 S
O13 C22 1.255 . S
O14 Tb0 2.366 . S
O14 C22 1.265 . S
C15 O11 1.259 . S
C15 O12 1.263 1_455 S
O16 Eu1 2.479 . S
O16 C31 1.238 . S
O17 Eu1 2.471 . S
O17 C31 1.247 . S
O18 Eu1 2.347 1_455 S
O18 C2 1.259 . S
O19 Tb0 2.418 . S
O19 C2 1.265 . S
O20 Tb0 2.384 1_655 S
O20 C3 1.255 . S
O21 Eu1 2.366 . S
O21 C3 1.265 . S
C22 O13 1.255 . S
C22 O14 1.265 . S
O23 Tb0 2.479 . S
O23 C10 1.238 . S
O24 Tb0 2.471 . S
O24 C10 1.247 . S
C25 C28 1.380 . S
C25 C29 1.374 . S
C25 C31 1.507 . S
C26 C27 1.387 . S
C26 C30 1.391 . S
C27 C26 1.387 . S
C27 C28 1.384 . S
C27 H36 0.930 . S
C28 C25 1.380 . S
C28 C27 1.384 . S
C28 H37 0.931 . S
C29 C25 1.374 . S
C29 C30 1.390 . S
C29 H38 0.930 . S
C30 C26 1.391 . S
C30 C29 1.390 . S
C30 H39 0.930 . S
C31 Eu1 2.825 . S
C31 O16 1.238 . S
C31 O17 1.247 . S
C31 C25 1.507 . S
H32 C5 0.930 . S
H33 C6 0.931 . S
H34 C7 0.930 . S
H35 C8 0.930 . S
H36 C27 0.930 . S
H37 C28 0.931 . S
H38 C29 0.930 . S
H39 C30 0.930 . S
Tb40 C50 2.825 . S
Tb40 O51 2.347 . S
Tb40 O54 2.366 . S
Tb40 O59 2.418 . S
Tb40 O60 2.384 1_545 S
Tb40 O63 2.479 . S
Tb40 O64 2.471 . S
Eu41 O52 2.418 . S
Eu41 O53 2.384 . S
Eu41 O56 2.479 1_545 S
Eu41 O57 2.471 1_545 S
Eu41 O58 2.347 . S
Eu41 O61 2.366 1_545 S
Eu41 C71 2.825 1_545 S
C42 O58 1.259 . S
C42 O59 1.265 . S
C43 O60 1.255 . S
C43 O61 1.265 . S
C44 C46 1.380 . S
C44 C47 1.374 . S
C44 C50 1.507 . S
C45 C46 1.384 . S
C45 C49 1.387 . S
C45 H72 0.930 . S
C46 C44 1.380 . S
C46 C45 1.384 . S
C46 H73 0.931 . S
C47 C44 1.374 . S
C47 C48 1.390 . S
C47 H74 0.930 . S
C48 C47 1.390 . S
C48 C49 1.391 . S
C48 H75 0.930 . S
C49 C45 1.387 . S
C49 C48 1.391 . S
C50 Tb40 2.825 . S
C50 C44 1.507 . S
C50 O63 1.238 . S
C50 O64 1.247 . S
O51 Tb40 2.347 . S
O51 C55 1.259 . S
O52 Eu41 2.418 . S
O52 C55 1.265 . S
O53 Eu41 2.384 . S
O53 C62 1.255 . S
O54 Tb40 2.366 . S
O54 C62 1.265 . S
C55 O51 1.259 . S
C55 O52 1.265 . S
O56 Eu41 2.479 1_565 S
O56 C71 1.238 . S
O57 Eu41 2.471 1_565 S
O57 C71 1.247 . S
O58 Eu41 2.347 . S
O58 C42 1.259 . S
O59 Tb40 2.418 . S
O59 C42 1.265 . S
O60 Tb40 2.384 1_565 S
O60 C43 1.255 . S
O61 Eu41 2.366 1_565 S
O61 C43 1.265 . S
C62 O53 1.255 . S
C62 O54 1.265 . S
O63 Tb40 2.479 . S
O63 C50 1.238 . S
O64 Tb40 2.471 . S
O64 C50 1.247 . S
C65 C68 1.380 . S
C65 C69 1.374 . S
C65 C71 1.507 . S
C66 C67 1.387 . S
C66 C70 1.391 . S
C67 C66 1.387 . S
C67 C68 1.384 . S
C67 H76 0.930 . S
C68 C65 1.380 . S
C68 C67 1.384 . S
C68 H77 0.931 . S
C69 C65 1.374 . S
C69 C70 1.390 . S
C69 H78 0.930 . S
C70 C66 1.391 . S
C70 C69 1.390 . S
C70 H79 0.930 . S
C71 Eu41 2.825 1_565 S
C71 O56 1.238 . S
C71 O57 1.247 . S
C71 C65 1.507 . S
H72 C45 0.930 . S
H73 C46 0.931 . S
H74 C47 0.930 . S
H75 C48 0.930 . S
H76 C67 0.930 . S
H77 C68 0.931 . S
H78 C69 0.930 . S
H79 C70 0.930 . S
Tb80 C90 2.825 . S
Tb80 O91 2.347 . S
Tb80 O94 2.366 . S
Tb80 O99 2.418 . S
Tb80 O100 2.384 . S
Tb80 O103 2.479 . S
Tb80 O104 2.471 . S
Eu81 O92 2.418 . S
Eu81 O93 2.384 . S
Eu81 O96 2.479 . S
Eu81 O97 2.471 . S
Eu81 O98 2.347 . S
Eu81 O101 2.366 . S
Eu81 C111 2.825 . S
C82 O98 1.259 . S
C82 O99 1.265 . S
C83 O100 1.255 . S
C83 O101 1.265 . S
C84 C86 1.380 . S
C84 C87 1.374 . S
C84 C90 1.507 . S
C85 C86 1.384 . S
C85 C89 1.387 . S
C85 H112 0.930 . S
C86 C84 1.380 . S
C86 C85 1.384 . S
C86 H113 0.931 . S
C87 C84 1.374 . S
C87 C88 1.390 . S
C87 H114 0.930 . S
C88 C87 1.390 . S
C88 C89 1.391 . S
C88 H115 0.930 . S
C89 C85 1.387 . S
C89 C88 1.391 . S
C90 Tb80 2.825 . S
C90 C84 1.507 . S
C90 O103 1.238 . S
C90 O104 1.247 . S
O91 Tb80 2.347 . S
O91 C95 1.259 . S
O92 Eu81 2.418 . S
O92 C95 1.265 . S
O93 Eu81 2.384 . S
O93 C102 1.255 . S
O94 Tb80 2.366 . S
O94 C102 1.265 . S
C95 O91 1.259 . S
C95 O92 1.265 . S
O96 Eu81 2.479 . S
O96 C111 1.238 . S
O97 Eu81 2.471 . S
O97 C111 1.247 . S
O98 Eu81 2.347 . S
O98 C82 1.259 . S
O99 Tb80 2.418 . S
O99 C82 1.265 . S
O100 Tb80 2.384 . S
O100 C83 1.255 . S
O101 Eu81 2.366 . S
O101 C83 1.265 . S
C102 O93 1.255 . S
C102 O94 1.265 . S
O103 Tb80 2.479 . S
O103 C90 1.238 . S
O104 Tb80 2.471 . S
O104 C90 1.247 . S
C105 C108 1.380 . S
C105 C109 1.374 . S
C105 C111 1.507 . S
C106 C107 1.387 . S
C106 C110 1.391 . S
C107 C106 1.387 . S
C107 C108 1.384 . S
C107 H116 0.930 . S
C108 C105 1.380 . S
C108 C107 1.384 . S
C108 H117 0.931 . S
C109 C105 1.374 . S
C109 C110 1.390 . S
C109 H118 0.930 . S
C110 C106 1.391 . S
C110 C109 1.390 . S
C110 H119 0.930 . S
C111 Eu81 2.825 . S
C111 O96 1.238 . S
C111 O97 1.247 . S
C111 C105 1.507 . S
H112 C85 0.930 . S
H113 C86 0.931 . S
H114 C87 0.930 . S
H115 C88 0.930 . S
H116 C107 0.930 . S
H117 C108 0.931 . S
H118 C109 0.930 . S
H119 C110 0.930 . S
C120 C121 1.384 . S
C120 H133 0.947 . S
C120 C155 1.382 . S
C121 C120 1.384 . S
C121 C122 1.378 . S
C122 C121 1.378 . S
C122 C123 1.378 . S
C122 H134 0.952 . S
C123 C122 1.378 . S
C123 H135 0.950 . S
C123 C154 1.383 . S
H124 C143 0.947 . S
H125 C144 0.946 . S
H126 C146 0.953 . S
H127 C147 0.945 . S
H128 C149 0.952 . S
H129 C150 0.949 . S
H130 C152 0.950 . S
H131 C153 0.948 . S
H132 C155 0.951 . S
H133 C120 0.947 . S
H134 C122 0.952 . S
H135 C123 0.950 . S
N136 C139 1.382 . S
N136 C141 1.363 1_545 S
N137 C139 1.371 . S
N137 C140 1.372 . S
N138 C140 1.361 1_565 S
N138 C141 1.377 . S
C139 N136 1.382 . S
C139 N137 1.371 . S
C139 C142 1.480 . S
C140 N137 1.372 . S
C140 N138 1.361 1_545 S
C140 C148 1.457 . S
C141 N136 1.363 1_565 S
C141 N138 1.377 . S
C141 C154 1.479 . S
C142 C139 1.480 . S
C142 C143 1.383 . S
C142 C147 1.385 . S
C143 H124 0.947 . S
C143 C142 1.383 . S
C143 C144 1.388 . S
C144 H125 0.946 . S
C144 C143 1.388 . S
C144 C145 1.384 . S
C145 C144 1.384 . S
C145 C146 1.377 . S
C146 H126 0.953 . S
C146 C145 1.377 . S
C146 C147 1.369 . S
C147 H127 0.945 . S
C147 C142 1.385 . S
C147 C146 1.369 . S
C148 C140 1.457 . S
C148 C149 1.372 . S
C148 C153 1.364 1_545 S
C149 H128 0.952 . S
C149 C148 1.372 . S
C149 C150 1.389 . S
C150 H129 0.949 . S
C150 C149 1.389 . S
C150 C151 1.387 . S
C151 C150 1.387 . S
C151 C152 1.372 1_545 S
C152 H130 0.950 . S
C152 C151 1.372 1_565 S
C152 C153 1.379 . S
C153 H131 0.948 . S
C153 C148 1.364 1_565 S
C153 C152 1.379 . S
C154 C123 1.383 . S
C154 C141 1.479 . S
C154 C155 1.398 . S
C155 C120 1.382 . S
C155 H132 0.951 . S
C155 C154 1.398 . S
C156 C157 1.384 . S
C156 H169 0.947 . S
C156 C191 1.382 . S
C157 C156 1.384 . S
C157 C158 1.378 . S
C158 C157 1.378 . S
C158 C159 1.378 . S
C158 H170 0.952 . S
C159 C158 1.378 . S
C159 H171 0.950 . S
C159 C190 1.383 . S
H160 C179 0.947 . S
H161 C180 0.946 . S
H162 C182 0.953 . S
H163 C183 0.945 . S
H164 C185 0.952 . S
H165 C186 0.949 . S
H166 C188 0.950 . S
H167 C189 0.948 . S
H168 C191 0.951 . S
H169 C156 0.947 . S
H170 C158 0.952 . S
H171 C159 0.950 . S
N172 C175 1.382 . S
N172 C177 1.363 . S
N173 C175 1.371 . S
N173 C176 1.372 . S
N174 C176 1.361 . S
N174 C177 1.377 . S
C175 N172 1.382 . S
C175 N173 1.371 . S
C175 C178 1.480 . S
C176 N173 1.372 . S
C176 N174 1.361 . S
C176 C184 1.457 . S
C177 N172 1.363 . S
C177 N174 1.377 . S
C177 C190 1.479 . S
C178 C175 1.480 . S
C178 C179 1.383 . S
C178 C183 1.385 . S
C179 H160 0.947 . S
C179 C178 1.383 . S
C179 C180 1.388 . S
C180 H161 0.946 . S
C180 C179 1.388 . S
C180 C181 1.384 . S
C181 C180 1.384 . S
C181 C182 1.377 . S
C182 H162 0.953 . S
C182 C181 1.377 . S
C182 C183 1.369 . S
C183 H163 0.945 . S
C183 C178 1.385 . S
C183 C182 1.369 . S
C184 C176 1.457 . S
C184 C185 1.372 . S
C184 C189 1.364 . S
C185 H164 0.952 . S
C185 C184 1.372 . S
C185 C186 1.389 . S
C186 H165 0.949 . S
C186 C185 1.389 . S
C186 C187 1.387 . S
C187 C186 1.387 . S
C187 C188 1.372 . S
C188 H166 0.950 . S
C188 C187 1.372 . S
C188 C189 1.379 . S
C189 H167 0.948 . S
C189 C184 1.364 . S
C189 C188 1.379 . S
C190 C159 1.383 . S
C190 C177 1.479 . S
C190 C191 1.398 . S
C191 C156 1.382 . S
C191 H168 0.951 . S
C191 C190 1.398 . S
C192 C193 1.384 . S
C192 H205 0.947 . S
C192 C227 1.382 . S
C193 C192 1.384 . S
C193 C194 1.378 . S
C194 C193 1.378 . S
C194 C195 1.378 . S
C194 H206 0.952 . S
C195 C194 1.378 . S
C195 H207 0.950 . S
C195 C226 1.383 . S
H196 C215 0.947 . S
H197 C216 0.946 . S
H198 C218 0.953 . S
H199 C219 0.945 . S
H200 C221 0.952 . S
H201 C222 0.949 . S
H202 C224 0.950 . S
H203 C225 0.948 . S
H204 C227 0.951 . S
H205 C192 0.947 . S
H206 C194 0.952 . S
H207 C195 0.950 . S
N208 C211 1.382 . S
N208 C213 1.363 1_455 S
N209 C211 1.371 . S
N209 C212 1.372 . S
N210 C212 1.361 1_655 S
N210 C213 1.377 . S
C211 N208 1.382 . S
C211 N209 1.371 . S
C211 C214 1.480 . S
C212 N209 1.372 . S
C212 N210 1.361 1_455 S
C212 C220 1.457 . S
C213 N208 1.363 1_655 S
C213 N210 1.377 . S
C213 C226 1.479 . S
C214 C211 1.480 . S
C214 C215 1.383 . S
C214 C219 1.385 . S
C215 H196 0.947 . S
C215 C214 1.383 . S
C215 C216 1.388 . S
C216 H197 0.946 . S
C216 C215 1.388 . S
C216 C217 1.384 . S
C217 C216 1.384 . S
C217 C218 1.377 . S
C218 H198 0.953 . S
C218 C217 1.377 . S
C218 C219 1.369 . S
C219 H199 0.945 . S
C219 C214 1.385 . S
C219 C218 1.369 . S
C220 C212 1.457 . S
C220 C221 1.372 . S
C220 C225 1.364 1_455 S
C221 H200 0.952 . S
C221 C220 1.372 . S
C221 C222 1.389 . S
C222 H201 0.949 . S
C222 C221 1.389 . S
C222 C223 1.387 . S
C223 C222 1.387 . S
C223 C224 1.372 1_455 S
C224 H202 0.950 . S
C224 C223 1.372 1_655 S
C224 C225 1.379 . S
C225 H203 0.948 . S
C225 C220 1.364 1_655 S
C225 C224 1.379 . S
C226 C195 1.383 . S
C226 C213 1.479 . S
C226 C227 1.398 . S
C227 C192 1.382 . S
C227 H204 0.951 . S
C227 C226 1.398 . S
C228 C229 1.384 . S
C228 H241 0.947 . S
C228 C263 1.382 . S
C229 C228 1.384 . S
C229 C230 1.378 . S
C230 C229 1.378 . S
C230 C231 1.378 . S
C230 H242 0.952 . S
C231 C230 1.378 . S
C231 H243 0.950 . S
C231 C262 1.383 . S
H232 C251 0.947 . S
H233 C252 0.946 . S
H234 C254 0.953 . S
H235 C255 0.945 . S
H236 C257 0.952 . S
H237 C258 0.949 . S
H238 C260 0.950 . S
H239 C261 0.948 . S
H240 C263 0.951 . S
H241 C228 0.947 . S
H242 C230 0.952 . S
H243 C231 0.950 . S
N244 C247 1.382 1_455 S
N244 C249 1.363 . S
N245 C247 1.371 . S
N245 C248 1.372 1_655 S
N246 C248 1.361 . S
N246 C249 1.377 . S
C247 N244 1.382 1_655 S
C247 N245 1.371 . S
C247 C250 1.480 . S
C248 N245 1.372 1_455 S
C248 N246 1.361 . S
C248 C256 1.457 . S
C249 N244 1.363 . S
C249 N246 1.377 . S
C249 C262 1.479 . S
C250 C247 1.480 . S
C250 C251 1.383 . S
C250 C255 1.385 . S
C251 H232 0.947 . S
C251 C250 1.383 . S
C251 C252 1.388 . S
C252 H233 0.946 . S
C252 C251 1.388 . S
C252 C253 1.384 . S
C253 C252 1.384 . S
C253 C254 1.377 . S
C254 H234 0.953 . S
C254 C253 1.377 . S
C254 C255 1.369 . S
C255 H235 0.945 . S
C255 C250 1.385 . S
C255 C254 1.369 . S
C256 C248 1.457 . S
C256 C257 1.372 1_455 S
C256 C261 1.364 . S
C257 H236 0.952 . S
C257 C256 1.372 1_655 S
C257 C258 1.389 . S
C258 H237 0.949 . S
C258 C257 1.389 . S
C258 C259 1.387 1_655 S
C259 C258 1.387 1_455 S
C259 C260 1.372 . S
C260 H238 0.950 . S
C260 C259 1.372 . S
C260 C261 1.379 . S
C261 H239 0.948 . S
C261 C256 1.364 . S
C261 C260 1.379 . S
C262 C231 1.383 . S
C262 C249 1.479 . S
C262 C263 1.398 . S
C263 C228 1.382 . S
C263 H240 0.951 . S
C263 C262 1.398 . S
C264 C265 1.384 . S
C264 H277 0.947 . S
C264 C299 1.382 . S
C265 C264 1.384 . S
C265 C266 1.378 . S
C266 C265 1.378 . S
C266 C267 1.378 . S
C266 H278 0.952 . S
C267 C266 1.378 . S
C267 H279 0.950 . S
C267 C298 1.383 . S
H268 C287 0.947 . S
H269 C288 0.946 . S
H270 C290 0.953 . S
H271 C291 0.945 . S
H272 C293 0.952 . S
H273 C294 0.949 . S
H274 C296 0.950 . S
H275 C297 0.948 . S
H276 C299 0.951 . S
H277 C264 0.947 . S
H278 C266 0.952 . S
H279 C267 0.950 . S
N280 C283 1.382 1_545 S
N280 C285 1.363 . S
N281 C283 1.371 . S
N281 C284 1.372 1_565 S
N282 C284 1.361 . S
N282 C285 1.377 . S
C283 N280 1.382 1_565 S
C283 N281 1.371 . S
C283 C286 1.480 . S
C284 N281 1.372 1_545 S
C284 N282 1.361 . S
C284 C292 1.457 . S
C285 N280 1.363 . S
C285 N282 1.377 . S
C285 C298 1.479 . S
C286 C283 1.480 . S
C286 C287 1.383 . S
C286 C291 1.385 . S
C287 H268 0.947 . S
C287 C286 1.383 . S
C287 C288 1.388 . S
C288 H269 0.946 . S
C288 C287 1.388 . S
C288 C289 1.384 . S
C289 C288 1.384 . S
C289 C290 1.377 . S
C290 H270 0.953 . S
C290 C289 1.377 . S
C290 C291 1.369 . S
C291 H271 0.945 . S
C291 C286 1.385 . S
C291 C290 1.369 . S
C292 C284 1.457 . S
C292 C293 1.372 1_545 S
C292 C297 1.364 . S
C293 H272 0.952 . S
C293 C292 1.372 1_565 S
C293 C294 1.389 . S
C294 H273 0.949 . S
C294 C293 1.389 . S
C294 C295 1.387 1_565 S
C295 C294 1.387 1_545 S
C295 C296 1.372 . S
C296 H274 0.950 . S
C296 C295 1.372 . S
C296 C297 1.379 . S
C297 H275 0.948 . S
C297 C292 1.364 . S
C297 C296 1.379 . S
C298 C267 1.383 . S
C298 C285 1.479 . S
C298 C299 1.398 . S
C299 C264 1.382 . S
C299 H276 0.951 . S
C299 C298 1.398 . S
C300 C301 1.384 . S
C300 H313 0.947 . S
C300 C335 1.382 . S
C301 C300 1.384 . S
C301 C302 1.378 . S
C302 C301 1.378 . S
C302 C303 1.378 . S
C302 H314 0.952 . S
C303 C302 1.378 . S
C303 H315 0.950 . S
C303 C334 1.383 . S
H304 C323 0.947 . S
H305 C324 0.946 . S
H306 C326 0.953 . S
H307 C327 0.945 . S
H308 C329 0.952 . S
H309 C330 0.949 . S
H310 C332 0.950 . S
H311 C333 0.948 . S
H312 C335 0.951 . S
H313 C300 0.947 . S
H314 C302 0.952 . S
H315 C303 0.950 . S
N316 C319 1.382 . S
N316 C321 1.363 . S
N317 C319 1.371 . S
N317 C320 1.372 . S
N318 C320 1.361 . S
N318 C321 1.377 . S
C319 N316 1.382 . S
C319 N317 1.371 . S
C319 C322 1.480 . S
C320 N317 1.372 . S
C320 N318 1.361 . S
C320 C328 1.457 . S
C321 N316 1.363 . S
C321 N318 1.377 . S
C321 C334 1.479 . S
C322 C319 1.480 . S
C322 C323 1.383 . S
C322 C327 1.385 . S
C323 H304 0.947 . S
C323 C322 1.383 . S
C323 C324 1.388 . S
C324 H305 0.946 . S
C324 C323 1.388 . S
C324 C325 1.384 . S
C325 C324 1.384 . S
C325 C326 1.377 . S
C326 H306 0.953 . S
C326 C325 1.377 . S
C326 C327 1.369 . S
C327 H307 0.945 . S
C327 C322 1.385 . S
C327 C326 1.369 . S
C328 C320 1.457 . S
C328 C329 1.372 . S
C328 C333 1.364 . S
C329 H308 0.952 . S
C329 C328 1.372 . S
C329 C330 1.389 . S
C330 H309 0.949 . S
C330 C329 1.389 . S
C330 C331 1.387 . S
C331 C330 1.387 . S
C331 C332 1.372 . S
C332 H310 0.950 . S
C332 C331 1.372 . S
C332 C333 1.379 . S
C333 H311 0.948 . S
C333 C328 1.364 . S
C333 C332 1.379 . S
C334 C303 1.383 . S
C334 C321 1.479 . S
C334 C335 1.398 . S
C335 C300 1.382 . S
C335 H312 0.951 . S
C335 C334 1.398 . S
H336 C348 0.930 . S
H337 C350 0.930 . S
H338 C351 0.930 . S
H339 C355 0.959 . S
H340 C355 0.959 . S
H341 C355 0.961 . S
H342 C356 0.960 . S
H343 C356 0.961 . S
H344 C356 0.959 . S
H345 C359 0.929 . S
H346 C360 0.931 . S
H347 C362 0.930 . S
C348 H336 0.930 . S
C348 C349 1.399 . S
C348 C353 1.399 . S
C349 C348 1.399 . S
C349 C350 1.376 . S
C350 H337 0.930 . S
C350 C349 1.376 . S
C350 C351 1.388 . S
C351 H338 0.930 . S
C351 C350 1.388 . S
C351 C352 1.390 . S
C352 C351 1.390 . S
C352 C353 1.394 . S
C352 C358 1.465 . S
C353 C348 1.399 . S
C353 C352 1.394 . S
C353 C354 1.516 . S
C354 C353 1.516 . S
C354 C355 1.502 . S
C354 C356 1.561 . S
C354 C357 1.526 . S
C355 H339 0.959 . S
C355 H340 0.959 . S
C355 H341 0.961 . S
C355 C354 1.502 . S
C356 H342 0.960 . S
C356 H343 0.961 . S
C356 H344 0.959 . S
C356 C354 1.561 . S
C357 C354 1.526 . S
C357 C358 1.396 . S
C357 C362 1.390 . S
C358 C352 1.465 . S
C358 C357 1.396 . S
C358 C359 1.399 . S
C359 H345 0.929 . S
C359 C358 1.399 . S
C359 C360 1.385 . S
C360 H346 0.931 . S
C360 C359 1.385 . S
C360 C361 1.389 . S
C361 C360 1.389 . S
C361 C362 1.387 . S
C362 H347 0.930 . S
C362 C357 1.390 . S
C362 C361 1.387 . S
H363 C375 0.930 . S
H364 C377 0.930 . S
H365 C378 0.930 . S
H366 C382 0.959 . S
H367 C382 0.959 . S
H368 C382 0.961 . S
H369 C383 0.960 . S
H370 C383 0.961 . S
H371 C383 0.959 . S
H372 C386 0.929 . S
H373 C387 0.931 . S
H374 C389 0.930 . S
C375 H363 0.930 . S
C375 C376 1.399 . S
C375 C380 1.399 . S
C376 C375 1.399 . S
C376 C377 1.376 . S
C377 H364 0.930 . S
C377 C376 1.376 . S
C377 C378 1.388 . S
C378 H365 0.930 . S
C378 C377 1.388 . S
C378 C379 1.390 . S
C379 C378 1.390 . S
C379 C380 1.394 . S
C379 C385 1.465 . S
C380 C375 1.399 . S
C380 C379 1.394 . S
C380 C381 1.516 . S
C381 C380 1.516 . S
C381 C382 1.502 . S
C381 C383 1.561 . S
C381 C384 1.526 . S
C382 H366 0.959 . S
C382 H367 0.959 . S
C382 H368 0.961 . S
C382 C381 1.502 . S
C383 H369 0.960 . S
C383 H370 0.961 . S
C383 H371 0.959 . S
C383 C381 1.561 . S
C384 C381 1.526 . S
C384 C385 1.396 . S
C384 C389 1.390 . S
C385 C379 1.465 . S
C385 C384 1.396 . S
C385 C386 1.399 . S
C386 H372 0.929 . S
C386 C385 1.399 . S
C386 C387 1.385 . S
C387 H373 0.931 . S
C387 C386 1.385 . S
C387 C388 1.389 . S
C388 C387 1.389 . S
C388 C389 1.387 . S
C389 H374 0.930 . S
C389 C384 1.390 . S
C389 C388 1.387 . S
H390 C402 0.930 . S
H391 C404 0.930 . S
H392 C405 0.930 . S
H393 C409 0.959 . S
H394 C409 0.959 . S
H395 C409 0.961 . S
H396 C410 0.960 . S
H397 C410 0.961 . S
H398 C410 0.959 . S
H399 C413 0.929 . S
H400 C414 0.931 . S
H401 C416 0.930 . S
C402 H390 0.930 . S
C402 C403 1.399 . S
C402 C407 1.399 . S
C403 C402 1.399 . S
C403 C404 1.376 . S
C404 H391 0.930 . S
C404 C403 1.376 . S
C404 C405 1.388 . S
C405 H392 0.930 . S
C405 C404 1.388 . S
C405 C406 1.390 . S
C406 C405 1.390 . S
C406 C407 1.394 . S
C406 C412 1.465 . S
C407 C402 1.399 . S
C407 C406 1.394 . S
C407 C408 1.516 . S
C408 C407 1.516 . S
C408 C409 1.502 . S
C408 C410 1.561 . S
C408 C411 1.526 . S
C409 H393 0.959 . S
C409 H394 0.959 . S
C409 H395 0.961 . S
C409 C408 1.502 . S
C410 H396 0.960 . S
C410 H397 0.961 . S
C410 H398 0.959 . S
C410 C408 1.561 . S
C411 C408 1.526 . S
C411 C412 1.396 . S
C411 C416 1.390 . S
C412 C406 1.465 . S
C412 C411 1.396 . S
C412 C413 1.399 . S
C413 H399 0.929 . S
C413 C412 1.399 . S
C413 C414 1.385 . S
C414 H400 0.931 . S
C414 C413 1.385 . S
C414 C415 1.389 . S
C415 C414 1.389 . S
C415 C416 1.387 . S
C416 H401 0.930 . S
C416 C411 1.390 . S
C416 C415 1.387 . S
H417 C429 0.930 . S
H418 C431 0.930 . S
H419 C432 0.930 . S
H420 C436 0.959 . S
H421 C436 0.959 . S
H422 C436 0.961 . S
H423 C437 0.960 . S
H424 C437 0.961 . S
H425 C437 0.959 . S
H426 C440 0.929 . S
H427 C441 0.931 . S
H428 C443 0.930 . S
C429 H417 0.930 . S
C429 C430 1.399 . S
C429 C434 1.399 . S
C430 C429 1.399 . S
C430 C431 1.376 . S
C431 H418 0.930 . S
C431 C430 1.376 . S
C431 C432 1.388 . S
C432 H419 0.930 . S
C432 C431 1.388 . S
C432 C433 1.390 . S
C433 C432 1.390 . S
C433 C434 1.394 . S
C433 C439 1.465 . S
C434 C429 1.399 . S
C434 C433 1.394 . S
C434 C435 1.516 . S
C435 C434 1.516 . S
C435 C436 1.502 . S
C435 C437 1.561 . S
C435 C438 1.526 . S
C436 H420 0.959 . S
C436 H421 0.959 . S
C436 H422 0.961 . S
C436 C435 1.502 . S
C437 H423 0.960 . S
C437 H424 0.961 . S
C437 H425 0.959 . S
C437 C435 1.561 . S
C438 C435 1.526 . S
C438 C439 1.396 . S
C438 C443 1.390 . S
C439 C433 1.465 . S
C439 C438 1.396 . S
C439 C440 1.399 . S
C440 H426 0.929 . S
C440 C439 1.399 . S
C440 C441 1.385 . S
C441 H427 0.931 . S
C441 C440 1.385 . S
C441 C442 1.389 . S
C442 C441 1.389 . S
C442 C443 1.387 . S
C443 H428 0.930 . S
C443 C438 1.390 . S
C443 C442 1.387 . S
H444 C456 0.930 . S
H445 C458 0.930 . S
H446 C459 0.930 . S
H447 C463 0.959 . S
H448 C463 0.959 . S
H449 C463 0.961 . S
H450 C464 0.960 . S
H451 C464 0.961 . S
H452 C464 0.959 . S
H453 C467 0.929 . S
H454 C468 0.931 . S
H455 C470 0.930 . S
C456 H444 0.930 . S
C456 C457 1.399 . S
C456 C461 1.399 . S
C457 C456 1.399 . S
C457 C458 1.376 . S
C458 H445 0.930 . S
C458 C457 1.376 . S
C458 C459 1.388 . S
C459 H446 0.930 . S
C459 C458 1.388 . S
C459 C460 1.390 . S
C460 C459 1.390 . S
C460 C461 1.394 . S
C460 C466 1.465 . S
C461 C456 1.399 . S
C461 C460 1.394 . S
C461 C462 1.516 . S
C462 C461 1.516 . S
C462 C463 1.502 . S
C462 C464 1.561 . S
C462 C465 1.526 . S
C463 H447 0.959 . S
C463 H448 0.959 . S
C463 H449 0.961 . S
C463 C462 1.502 . S
C464 H450 0.960 . S
C464 H451 0.961 . S
C464 H452 0.959 . S
C464 C462 1.561 . S
C465 C462 1.526 . S
C465 C466 1.396 . S
C465 C470 1.390 . S
C466 C460 1.465 . S
C466 C465 1.396 . S
C466 C467 1.399 . S
C467 H453 0.929 . S
C467 C466 1.399 . S
C467 C468 1.385 . S
C468 H454 0.931 . S
C468 C467 1.385 . S
C468 C469 1.389 . S
C469 C468 1.389 . S
C469 C470 1.387 . S
C470 H455 0.930 . S
C470 C465 1.390 . S
C470 C469 1.387 . S
H471 C483 0.930 . S
H472 C485 0.930 . S
H473 C486 0.930 . S
H474 C490 0.959 . S
H475 C490 0.959 . S
H476 C490 0.961 . S
H477 C491 0.960 . S
H478 C491 0.961 . S
H479 C491 0.959 . S
H480 C494 0.929 . S
H481 C495 0.931 . S
H482 C497 0.930 . S
C483 H471 0.930 . S
C483 C484 1.399 . S
C483 C488 1.399 . S
C484 C483 1.399 . S
C484 C485 1.376 . S
C485 H472 0.930 . S
C485 C484 1.376 . S
C485 C486 1.388 . S
C486 H473 0.930 . S
C486 C485 1.388 . S
C486 C487 1.390 . S
C487 C486 1.390 . S
C487 C488 1.394 . S
C487 C493 1.465 . S
C488 C483 1.399 . S
C488 C487 1.394 . S
C488 C489 1.516 . S
C489 C488 1.516 . S
C489 C490 1.502 . S
C489 C491 1.561 . S
C489 C492 1.526 . S
C490 H474 0.959 . S
C490 H475 0.959 . S
C490 H476 0.961 . S
C490 C489 1.502 . S
C491 H477 0.960 . S
C491 H478 0.961 . S
C491 H479 0.959 . S
C491 C489 1.561 . S
C492 C489 1.526 . S
C492 C493 1.396 . S
C492 C497 1.390 . S
C493 C487 1.465 . S
C493 C492 1.396 . S
C493 C494 1.399 . S
C494 H480 0.929 . S
C494 C493 1.399 . S
C494 C495 1.385 . S
C495 H481 0.931 . S
C495 C494 1.385 . S
C495 C496 1.389 . S
C496 C495 1.389 . S
C496 C497 1.387 . S
C497 H482 0.930 . S
C497 C492 1.390 . S
C497 C496 1.387 . S
H498 C510 0.930 . S
H499 C512 0.930 . S
H500 C513 0.930 . S
H501 C517 0.959 . S
H502 C517 0.959 . S
H503 C517 0.961 . S
H504 C518 0.960 . S
H505 C518 0.961 . S
H506 C518 0.959 . S
H507 C521 0.929 . S
H508 C522 0.931 . S
H509 C524 0.930 . S
C510 H498 0.930 . S
C510 C511 1.399 . S
C510 C515 1.399 . S
C511 C510 1.399 . S
C511 C512 1.376 . S
C512 H499 0.930 . S
C512 C511 1.376 . S
C512 C513 1.388 . S
C513 H500 0.930 . S
C513 C512 1.388 . S
C513 C514 1.390 . S
C514 C513 1.390 . S
C514 C515 1.394 . S
C514 C520 1.465 . S
C515 C510 1.399 . S
C515 C514 1.394 . S
C515 C516 1.516 . S
C516 C515 1.516 . S
C516 C517 1.502 . S
C516 C518 1.561 . S
C516 C519 1.526 . S
C517 H501 0.959 . S
C517 H502 0.959 . S
C517 H503 0.961 . S
C517 C516 1.502 . S
C518 H504 0.960 . S
C518 H505 0.961 . S
C518 H506 0.959 . S
C518 C516 1.561 . S
C519 C516 1.526 . S
C519 C520 1.396 . S
C519 C524 1.390 . S
C520 C514 1.465 . S
C520 C519 1.396 . S
C520 C521 1.399 . S
C521 H507 0.929 . S
C521 C520 1.399 . S
C521 C522 1.385 . S
C522 H508 0.931 . S
C522 C521 1.385 . S
C522 C523 1.389 . S
C523 C522 1.389 . S
C523 C524 1.387 . S
C524 H509 0.930 . S
C524 C519 1.390 . S
C524 C523 1.387 . S
H525 C537 0.930 . S
H526 C539 0.930 . S
H527 C540 0.930 . S
H528 C544 0.959 . S
H529 C544 0.959 . S
H530 C544 0.961 . S
H531 C545 0.960 . S
H532 C545 0.961 . S
H533 C545 0.959 . S
H534 C548 0.929 . S
H535 C549 0.931 . S
H536 C551 0.930 . S
C537 H525 0.930 . S
C537 C538 1.399 . S
C537 C542 1.399 . S
C538 C537 1.399 . S
C538 C539 1.376 . S
C539 H526 0.930 . S
C539 C538 1.376 . S
C539 C540 1.388 . S
C540 H527 0.930 . S
C540 C539 1.388 . S
C540 C541 1.390 . S
C541 C540 1.390 . S
C541 C542 1.394 . S
C541 C547 1.465 . S
C542 C537 1.399 . S
C542 C541 1.394 . S
C542 C543 1.516 . S
C543 C542 1.516 . S
C543 C544 1.502 . S
C543 C545 1.561 . S
C543 C546 1.526 . S
C544 H528 0.959 . S
C544 H529 0.959 . S
C544 H530 0.961 . S
C544 C543 1.502 . S
C545 H531 0.960 . S
C545 H532 0.961 . S
C545 H533 0.959 . S
C545 C543 1.561 . S
C546 C543 1.526 . S
C546 C547 1.396 . S
C546 C551 1.390 . S
C547 C541 1.465 . S
C547 C546 1.396 . S
C547 C548 1.399 . S
C548 H534 0.929 . S
C548 C547 1.399 . S
C548 C549 1.385 . S
C549 H535 0.931 . S
C549 C548 1.385 . S
C549 C550 1.389 . S
C550 C549 1.389 . S
C550 C551 1.387 . S
C551 H536 0.930 . S
C551 C546 1.390 . S
C551 C550 1.387 . S
H552 C564 0.930 . S
H553 C566 0.930 . S
H554 C567 0.930 . S
H555 C571 0.959 . S
H556 C571 0.959 . S
H557 C571 0.961 . S
H558 C572 0.960 . S
H559 C572 0.961 . S
H560 C572 0.959 . S
H561 C575 0.929 . S
H562 C576 0.931 . S
H563 C578 0.930 . S
C564 H552 0.930 . S
C564 C565 1.399 . S
C564 C569 1.399 . S
C565 C564 1.399 . S
C565 C566 1.376 . S
C566 H553 0.930 . S
C566 C565 1.376 . S
C566 C567 1.388 . S
C567 H554 0.930 . S
C567 C566 1.388 . S
C567 C568 1.390 . S
C568 C567 1.390 . S
C568 C569 1.394 . S
C568 C574 1.465 . S
C569 C564 1.399 . S
C569 C568 1.394 . S
C569 C570 1.516 . S
C570 C569 1.516 . S
C570 C571 1.502 . S
C570 C572 1.561 . S
C570 C573 1.526 . S
C571 H555 0.959 . S
C571 H556 0.959 . S
C571 H557 0.961 . S
C571 C570 1.502 . S
C572 H558 0.960 . S
C572 H559 0.961 . S
C572 H560 0.959 . S
C572 C570 1.561 . S
C573 C570 1.526 . S
C573 C574 1.396 . S
C573 C578 1.390 . S
C574 C568 1.465 . S
C574 C573 1.396 . S
C574 C575 1.399 . S
C575 H561 0.929 . S
C575 C574 1.399 . S
C575 C576 1.385 . S
C576 H562 0.931 . S
C576 C575 1.385 . S
C576 C577 1.389 . S
C577 C576 1.389 . S
C577 C578 1.387 . S
C578 H563 0.930 . S
C578 C573 1.390 . S
C578 C577 1.387 . S
H579 C591 0.930 . S
H580 C593 0.930 . S
H581 C594 0.930 . S
H582 C598 0.959 . S
H583 C598 0.959 . S
H584 C598 0.961 . S
H585 C599 0.960 . S
H586 C599 0.961 . S
H587 C599 0.959 . S
H588 C602 0.929 . S
H589 C603 0.931 . S
H590 C605 0.930 . S
C591 H579 0.930 . S
C591 C592 1.399 . S
C591 C596 1.399 . S
C592 C591 1.399 . S
C592 C593 1.376 . S
C593 H580 0.930 . S
C593 C592 1.376 . S
C593 C594 1.388 . S
C594 H581 0.930 . S
C594 C593 1.388 . S
C594 C595 1.390 . S
C595 C594 1.390 . S
C595 C596 1.394 . S
C595 C601 1.465 . S
C596 C591 1.399 . S
C596 C595 1.394 . S
C596 C597 1.516 . S
C597 C596 1.516 . S
C597 C598 1.502 . S
C597 C599 1.561 . S
C597 C600 1.526 . S
C598 H582 0.959 . S
C598 H583 0.959 . S
C598 H584 0.961 . S
C598 C597 1.502 . S
C599 H585 0.960 . S
C599 H586 0.961 . S
C599 H587 0.959 . S
C599 C597 1.561 . S
C600 C597 1.526 . S
C600 C601 1.396 . S
C600 C605 1.390 . S
C601 C595 1.465 . S
C601 C600 1.396 . S
C601 C602 1.399 . S
C602 H588 0.929 . S
C602 C601 1.399 . S
C602 C603 1.385 . S
C603 H589 0.931 . S
C603 C602 1.385 . S
C603 C604 1.389 . S
C604 C603 1.389 . S
C604 C605 1.387 . S
C605 H590 0.930 . S
C605 C600 1.390 . S
C605 C604 1.387 . S
H606 C618 0.930 . S
H607 C620 0.930 . S
H608 C621 0.930 . S
H609 C625 0.959 . S
H610 C625 0.959 . S
H611 C625 0.961 . S
H612 C626 0.960 . S
H613 C626 0.961 . S
H614 C626 0.959 . S
H615 C629 0.929 . S
H616 C630 0.931 . S
H617 C632 0.930 . S
C618 H606 0.930 . S
C618 C619 1.399 . S
C618 C623 1.399 . S
C619 C618 1.399 . S
C619 C620 1.376 . S
C620 H607 0.930 . S
C620 C619 1.376 . S
C620 C621 1.388 . S
C621 H608 0.930 . S
C621 C620 1.388 . S
C621 C622 1.390 . S
C622 C621 1.390 . S
C622 C623 1.394 . S
C622 C628 1.465 . S
C623 C618 1.399 . S
C623 C622 1.394 . S
C623 C624 1.516 . S
C624 C623 1.516 . S
C624 C625 1.502 . S
C624 C626 1.561 . S
C624 C627 1.526 . S
C625 H609 0.959 . S
C625 H610 0.959 . S
C625 H611 0.961 . S
C625 C624 1.502 . S
C626 H612 0.960 . S
C626 H613 0.961 . S
C626 H614 0.959 . S
C626 C624 1.561 . S
C627 C624 1.526 . S
C627 C628 1.396 . S
C627 C632 1.390 . S
C628 C622 1.465 . S
C628 C627 1.396 . S
C628 C629 1.399 . S
C629 H615 0.929 . S
C629 C628 1.399 . S
C629 C630 1.385 . S
C630 H616 0.931 . S
C630 C629 1.385 . S
C630 C631 1.389 . S
C631 C630 1.389 . S
C631 C632 1.387 . S
C632 H617 0.930 . S
C632 C627 1.390 . S
C632 C631 1.387 . S
H633 C645 0.930 . S
H634 C647 0.930 . S
H635 C648 0.930 . S
H636 C652 0.959 . S
H637 C652 0.959 . S
H638 C652 0.961 . S
H639 C653 0.960 . S
H640 C653 0.961 . S
H641 C653 0.959 . S
H642 C656 0.929 . S
H643 C657 0.931 . S
H644 C659 0.930 . S
C645 H633 0.930 . S
C645 C646 1.399 . S
C645 C650 1.399 . S
C646 C645 1.399 . S
C646 C647 1.376 . S
C647 H634 0.930 . S
C647 C646 1.376 . S
C647 C648 1.388 . S
C648 H635 0.930 . S
C648 C647 1.388 . S
C648 C649 1.390 . S
C649 C648 1.390 . S
C649 C650 1.394 . S
C649 C655 1.465 . S
C650 C645 1.399 . S
C650 C649 1.394 . S
C650 C651 1.516 . S
C651 C650 1.516 . S
C651 C652 1.502 . S
C651 C653 1.561 . S
C651 C654 1.526 . S
C652 H636 0.959 . S
C652 H637 0.959 . S
C652 H638 0.961 . S
C652 C651 1.502 . S
C653 H639 0.960 . S
C653 H640 0.961 . S
C653 H641 0.959 . S
C653 C651 1.561 . S
C654 C651 1.526 . S
C654 C655 1.396 . S
C654 C659 1.390 . S
C655 C649 1.465 . S
C655 C654 1.396 . S
C655 C656 1.399 . S
C656 H642 0.929 . S
C656 C655 1.399 . S
C656 C657 1.385 . S
C657 H643 0.931 . S
C657 C656 1.385 . S
C657 C658 1.389 . S
C658 C657 1.389 . S
C658 C659 1.387 . S
C659 H644 0.930 . S
C659 C654 1.390 . S
C659 C658 1.387 . S
H660 C672 0.930 . S
H661 C674 0.930 . S
H662 C675 0.930 . S
H663 C679 0.959 . S
H664 C679 0.959 . S
H665 C679 0.961 . S
H666 C680 0.960 . S
H667 C680 0.961 . S
H668 C680 0.959 . S
H669 C683 0.929 . S
H670 C684 0.931 1_556 S
H671 C686 0.930 . S
C672 H660 0.930 . S
C672 C673 1.399 . S
C672 C677 1.399 . S
C673 C672 1.399 . S
C673 C674 1.376 . S
C674 H661 0.930 . S
C674 C673 1.376 . S
C674 C675 1.388 . S
C675 H662 0.930 . S
C675 C674 1.388 . S
C675 C676 1.390 . S
C676 C675 1.390 . S
C676 C677 1.394 . S
C676 C682 1.465 . S
C677 C672 1.399 . S
C677 C676 1.394 . S
C677 C678 1.516 . S
C678 C677 1.516 . S
C678 C679 1.502 1_455 S
C678 C680 1.561 . S
C678 C681 1.526 . S
C679 H663 0.959 . S
C679 H664 0.959 . S
C679 H665 0.961 . S
C679 C678 1.502 1_655 S
C680 H666 0.960 . S
C680 H667 0.961 . S
C680 H668 0.959 . S
C680 C678 1.561 . S
C681 C678 1.526 . S
C681 C682 1.396 . S
C681 C686 1.390 . S
C682 C676 1.465 . S
C682 C681 1.396 . S
C682 C683 1.399 . S
C683 H669 0.929 . S
C683 C682 1.399 . S
C683 C684 1.385 . S
C684 H670 0.931 1_554 S
C684 C683 1.385 . S
C684 C685 1.406 . S
C685 C684 1.406 . S
C685 C686 1.425 . S
C686 H671 0.930 . S
C686 C681 1.390 . S
C686 C685 1.425 . S
H687 C699 0.930 1_565 S
H688 C701 0.930 . S
H689 C702 0.930 . S
H690 C706 0.957 1_545 S
H691 C706 0.959 . S
H692 C706 0.961 . S
H693 C707 0.960 . S
H694 C707 0.961 . S
H695 C707 0.959 . S
H696 C710 0.929 . S
H697 C711 0.931 . S
H698 C713 0.930 1_565 S
C699 H687 0.930 1_545 S
C699 C700 1.399 . S
C699 C704 1.399 . S
C700 C699 1.399 . S
C700 C701 1.376 . S
C701 H688 0.930 . S
C701 C700 1.376 . S
C701 C702 1.388 . S
C702 H689 0.930 . S
C702 C701 1.388 . S
C702 C703 1.390 . S
C703 C702 1.390 . S
C703 C704 1.394 . S
C703 C709 1.465 . S
C704 C699 1.399 . S
C704 C703 1.394 . S
C704 C705 1.516 1_545 S
C705 C704 1.516 1_565 S
C705 C706 1.502 . S
C705 C707 1.561 . S
C705 C708 1.526 1_565 S
C706 H690 0.957 1_565 S
C706 H691 0.959 . S
C706 H692 0.961 . S
C706 C705 1.502 . S
C707 H693 0.960 . S
C707 H694 0.961 . S
C707 H695 0.959 . S
C707 C705 1.561 . S
C708 C705 1.526 1_545 S
C708 C709 1.396 . S
C708 C713 1.390 . S
C709 C703 1.465 . S
C709 C708 1.396 . S
C709 C710 1.399 . S
C710 H696 0.929 . S
C710 C709 1.399 . S
C710 C711 1.385 . S
C711 H697 0.931 . S
C711 C710 1.385 . S
C711 C712 1.389 . S
C712 C711 1.389 . S
C712 C713 1.387 . S
C713 H698 0.930 1_545 S
C713 C708 1.390 . S
C713 C712 1.387 . S
H714 C726 0.930 . S
H715 C728 0.930 . S
H716 C729 0.930 . S
H717 C733 0.959 . S
H718 C733 0.959 . S
H719 C733 0.961 . S
H720 C734 0.960 . S
H721 C734 0.961 . S
H722 C734 0.959 . S
H723 C737 0.929 . S
H724 C738 0.931 . S
H725 C740 0.930 . S
C726 H714 0.930 . S
C726 C727 1.399 . S
C726 C731 1.399 . S
C727 C726 1.399 . S
C727 C728 1.376 . S
C728 H715 0.930 . S
C728 C727 1.376 . S
C728 C729 1.388 . S
C729 H716 0.930 . S
C729 C728 1.388 . S
C729 C730 1.390 . S
C730 C729 1.390 . S
C730 C731 1.394 . S
C730 C736 1.465 . S
C731 C726 1.399 . S
C731 C730 1.394 . S
C731 C732 1.516 . S
C732 C731 1.516 . S
C732 C733 1.502 . S
C732 C734 1.561 . S
C732 C735 1.526 . S
C733 H717 0.959 . S
C733 H718 0.959 . S
C733 H719 0.961 . S
C733 C732 1.502 . S
C734 H720 0.960 . S
C734 H721 0.961 . S
C734 H722 0.959 . S
C734 C732 1.561 . S
C735 C732 1.526 . S
C735 C736 1.396 . S
C735 C740 1.390 . S
C736 C730 1.465 . S
C736 C735 1.396 . S
C736 C737 1.399 . S
C737 H723 0.929 . S
C737 C736 1.399 . S
C737 C738 1.385 . S
C738 H724 0.931 . S
C738 C737 1.385 . S
C738 C739 1.389 . S
C739 C738 1.389 . S
C739 C740 1.387 . S
C740 H725 0.930 . S
C740 C735 1.390 . S
C740 C739 1.387 . S
H741 C753 0.930 . S
H742 C755 0.930 . S
H743 C756 0.930 . S
H744 C760 0.959 . S
H745 C760 0.959 . S
H746 C760 0.961 . S
H747 C761 0.960 . S
H748 C761 0.961 . S
H749 C761 0.959 . S
H750 C764 0.929 . S
H751 C765 0.931 . S
H752 C767 0.930 . S
C753 H741 0.930 . S
C753 C754 1.399 . S
C753 C758 1.399 . S
C754 C753 1.399 . S
C754 C755 1.376 1_545 S
C755 H742 0.930 . S
C755 C754 1.376 1_565 S
C755 C756 1.388 . S
C756 H743 0.930 . S
C756 C755 1.388 . S
C756 C757 1.390 1_565 S
C757 C756 1.390 1_545 S
C757 C758 1.394 . S
C757 C763 1.466 . S
C758 C753 1.399 . S
C758 C757 1.394 . S
C758 C759 1.516 . S
C759 C758 1.516 . S
C759 C760 1.502 . S
C759 C761 1.561 . S
C759 C762 1.526 . S
C760 H744 0.959 . S
C760 H745 0.959 . S
C760 H746 0.961 . S
C760 C759 1.502 . S
C761 H747 0.960 . S
C761 H748 0.961 . S
C761 H749 0.959 . S
C761 C759 1.561 . S
C762 C759 1.526 . S
C762 C763 1.398 . S
C762 C767 1.390 . S
C763 C757 1.466 . S
C763 C762 1.398 . S
C763 C764 1.397 1_545 S
C764 H750 0.929 . S
C764 C763 1.397 1_565 S
C764 C765 1.385 . S
C765 H751 0.931 . S
C765 C764 1.385 . S
C765 C766 1.389 1_565 S
C766 C765 1.389 1_545 S
C766 C767 1.387 . S
C767 H752 0.930 . S
C767 C762 1.390 . S
C767 C766 1.387 . S
H768 C780 0.930 . S
H769 C782 0.930 . S
H770 C783 0.930 . S
H771 C787 0.959 . S
H772 C787 0.959 . S
H773 C787 0.961 . S
H774 C788 0.960 . S
H775 C788 0.961 . S
H776 C788 0.959 . S
H777 C791 0.929 . S
H778 C792 0.931 1_554 S
H779 C794 0.930 . S
C780 H768 0.930 . S
C780 C781 1.399 . S
C780 C785 1.399 . S
C781 C780 1.399 . S
C781 C782 1.376 . S
C782 H769 0.930 . S
C782 C781 1.376 . S
C782 C783 1.388 . S
C783 H770 0.930 . S
C783 C782 1.388 . S
C783 C784 1.390 . S
C784 C783 1.390 . S
C784 C785 1.394 . S
C784 C790 1.465 . S
C785 C780 1.399 . S
C785 C784 1.394 . S
C785 C786 1.516 . S
C786 C785 1.516 . S
C786 C787 1.502 . S
C786 C788 1.561 . S
C786 C789 1.526 . S
C787 H771 0.959 . S
C787 H772 0.959 . S
C787 H773 0.961 . S
C787 C786 1.502 . S
C788 H774 0.960 . S
C788 H775 0.961 . S
C788 H776 0.959 . S
C788 C786 1.561 . S
C789 C786 1.526 . S
C789 C790 1.396 . S
C789 C794 1.390 . S
C790 C784 1.465 . S
C790 C789 1.396 . S
C790 C791 1.399 . S
C791 H777 0.929 . S
C791 C790 1.399 . S
C791 C792 1.385 . S
C792 H778 0.931 1_556 S
C792 C791 1.385 . S
C792 C793 1.389 . S
C793 C792 1.389 . S
C793 C794 1.387 . S
C794 H779 0.930 . S
C794 C789 1.390 . S
C794 C793 1.387 . S
H795 C807 0.930 1_655 S
H796 C809 0.930 . S
H797 C810 0.930 . S
H798 C814 0.959 . S
H799 C814 0.959 . S
H800 C814 0.961 . S
H801 C815 0.960 . S
H802 C815 0.961 . S
H803 C815 0.959 1_455 S
H804 C818 0.929 . S
H805 C819 0.931 . S
H806 C821 0.930 . S
C807 H795 0.930 1_455 S
C807 C808 1.399 . S
C807 C812 1.399 . S
C808 C807 1.399 . S
C808 C809 1.376 . S
C809 H796 0.930 . S
C809 C808 1.376 . S
C809 C810 1.388 . S
C810 H797 0.930 . S
C810 C809 1.388 . S
C810 C811 1.390 . S
C811 C810 1.390 . S
C811 C812 1.394 . S
C811 C817 1.465 . S
C812 C807 1.399 . S
C812 C811 1.394 . S
C812 C813 1.516 1_455 S
C813 C812 1.516 1_655 S
C813 C814 1.502 . S
C813 C815 1.561 . S
C813 C816 1.526 . S
C814 H798 0.959 . S
C814 H799 0.959 . S
C814 H800 0.961 . S
C814 C813 1.502 . S
C815 H801 0.960 . S
C815 H802 0.961 . S
C815 H803 0.959 1_655 S
C815 C813 1.561 . S
C816 C813 1.526 . S
C816 C817 1.389 1_655 S
C816 C821 1.396 . S
C817 C811 1.465 . S
C817 C816 1.389 1_455 S
C817 C818 1.399 . S
C818 H804 0.929 . S
C818 C817 1.399 . S
C818 C819 1.385 . S
C819 H805 0.931 . S
C819 C818 1.385 . S
C819 C820 1.389 . S
C820 C819 1.389 . S
C820 C821 1.387 1_455 S
C821 H806 0.930 . S
C821 C816 1.396 . S
C821 C820 1.387 1_655 S
C349 C9 0.515 . S
C361 C325 0.394 . S
C376 C49 0.419 . S
C388 C253 0.437 . S
C403 C89 0.255 . S
C415 C289 0.259 . S
C430 C26 0.320 . S
C442 C301 0.334 . S
C469 C229 0.423 . S
C457 C66 0.397 . S
C496 C265 0.427 . S
C484 C106 0.657 . S
C511 C43 2.954 . S
C523 C181 2.894 . S
C538 C83 3.089 . S
C550 C193 3.027 . S
C565 C22 3.149 . S
C577 C121 3.104 . S
C604 C157 3.100 . S
C592 C62 3.145 . S
C631 C217 2.906 . S
C619 C102 2.997 . S
C646 C3 2.939 . S
C658 C145 2.857 . S
C685 C223 1.720 1_554 S
C673 C15 1.756 . S
C700 C55 1.730 . S
C712 C151 1.788 . S
C727 C95 1.754 . S
C739 C187 1.780 . S
C766 C295 1.096 . S
C754 C42 1.096 . S
C793 C331 1.079 1_556 S
C781 C82 1.040 . S
C808 C2 1.056 . S
C820 C259 1.054 . S
