# Generated by pormake.
# Topology zzz, (3,6)-cn, num edge types: 1
# Building blocks:
#     Node 0, Type 0, BuildingBlock: ESEHIV_clean_linker_0, # of connection points: 3
#     Node 1, Type 0, BuildingBlock: ESEHIV_clean_linker_0, # of connection points: 3
#     Node 2, Type 0, BuildingBlock: ESEHIV_clean_linker_0, # of connection points: 3
#     Node 3, Type 0, BuildingBlock: ESEHIV_clean_linker_0, # of connection points: 3
#     Node 4, Type 0, BuildingBlock: ESEHIV_clean_linker_0, # of connection points: 3
#     Node 5, Type 0, BuildingBlock: ESEHIV_clean_linker_0, # of connection points: 3
#     Node 6, Type 0, BuildingBlock: ESEHIV_clean_linker_0, # of connection points: 3
#     Node 7, Type 0, BuildingBlock: ESEHIV_clean_linker_0, # of connection points: 3
#     Node 8, Type 1, BuildingBlock: KUMBUR_clean_sbu_1, # of connection points: 6
#     Node 9, Type 1, BuildingBlock: KUMBUR_clean_sbu_1, # of connection points: 6
#     Node 10, Type 1, BuildingBlock: KUMBUR_clean_sbu_1, # of connection points: 6
#     Node 11, Type 1, BuildingBlock: KUMBUR_clean_sbu_1, # of connection points: 6
#     Edge 12, Type (0, 1), BuildingBlock: XUDNAN_clean_linker_2, # of connection points: 2
#     Edge 13, Type (0, 1), BuildingBlock: XUDNAN_clean_linker_2, # of connection points: 2
#     Edge 14, Type (0, 1), BuildingBlock: XUDNAN_clean_linker_2, # of connection points: 2
#     Edge 15, Type (0, 1), BuildingBlock: XUDNAN_clean_linker_2, # of connection points: 2
#     Edge 16, Type (0, 1), BuildingBlock: XUDNAN_clean_linker_2, # of connection points: 2
#     Edge 17, Type (0, 1), BuildingBlock: XUDNAN_clean_linker_2, # of connection points: 2
#     Edge 18, Type (0, 1), BuildingBlock: XUDNAN_clean_linker_2, # of connection points: 2
#     Edge 19, Type (0, 1), BuildingBlock: XUDNAN_clean_linker_2, # of connection points: 2
#     Edge 20, Type (0, 1), BuildingBlock: XUDNAN_clean_linker_2, # of connection points: 2
#     Edge 21, Type (0, 1), BuildingBlock: XUDNAN_clean_linker_2, # of connection points: 2
#     Edge 22, Type (0, 1), BuildingBlock: XUDNAN_clean_linker_2, # of connection points: 2
#     Edge 23, Type (0, 1), BuildingBlock: XUDNAN_clean_linker_2, # of connection points: 2
#     Edge 24, Type (0, 1), BuildingBlock: XUDNAN_clean_linker_2, # of connection points: 2
#     Edge 25, Type (0, 1), BuildingBlock: XUDNAN_clean_linker_2, # of connection points: 2
#     Edge 26, Type (0, 1), BuildingBlock: XUDNAN_clean_linker_2, # of connection points: 2
#     Edge 27, Type (0, 1), BuildingBlock: XUDNAN_clean_linker_2, # of connection points: 2
#     Edge 28, Type (0, 1), BuildingBlock: XUDNAN_clean_linker_2, # of connection points: 2
#     Edge 29, Type (0, 1), BuildingBlock: XUDNAN_clean_linker_2, # of connection points: 2
#     Edge 30, Type (0, 1), BuildingBlock: XUDNAN_clean_linker_2, # of connection points: 2
#     Edge 31, Type (0, 1), BuildingBlock: XUDNAN_clean_linker_2, # of connection points: 2
#     Edge 32, Type (0, 1), BuildingBlock: XUDNAN_clean_linker_2, # of connection points: 2
#     Edge 33, Type (0, 1), BuildingBlock: XUDNAN_clean_linker_2, # of connection points: 2
#     Edge 34, Type (0, 1), BuildingBlock: XUDNAN_clean_linker_2, # of connection points: 2
#     Edge 35, Type (0, 1), BuildingBlock: XUDNAN_clean_linker_2, # of connection points: 2
# Relax obj value: 0.357
# Max RMSD: 0.204
# Mean RMSD: 0.184
data_MOF--net-zzz--node1-KUMBUR_clean_sbu_1--node2-ESEHIV_clean_linker_0--edge1-XUDNAN_clean_linker_2
_symmetry_space_group_name_H-M    P1
_symmetry_Int_Tables_number       1
_symmetry_cell_setting            triclinic
loop_
_symmetry_equiv_pos_as_xyz
'x, y, z'
_cell_length_a     43.304961
_cell_length_b     43.579319
_cell_length_c     16.30886
_cell_angle_alpha  90.135899
_cell_angle_beta   89.911923
_cell_angle_gamma 90.374441
loop_
_atom_site_label
_atom_site_type_symbol
_atom_site_fract_x
_atom_site_fract_y
_atom_site_fract_z
_atom_type_partial_charge
H0 H 0.81125 0.47327 0.24974 0.0
H1 H 0.72553 0.47831 0.12344 0.0
H2 H 0.75752 0.55612 0.26511 0.0
C3 C 0.79006 0.48554 0.23838 0.0
C4 C 0.78624 0.51499 0.27255 0.0
C5 C 0.7684 0.47238 0.18498 0.0
C6 C 0.74203 0.4889 0.16464 0.0
C7 C 0.73781 0.51946 0.18946 0.0
C8 C 0.76035 0.53271 0.24423 0.0
H9 H 0.95249 0.8205 0.23745 0.0
H10 H 0.94487 0.73354 0.11327 0.0
H11 H 0.02151 0.75135 0.27481 0.0
C12 C 0.96084 0.79753 0.22581 0.0
C13 C 0.98786 0.78832 0.26594 0.0
C14 C 0.94514 0.77827 0.17006 0.0
C15 C 0.95702 0.74896 0.15444 0.0
C16 C 0.98513 0.73933 0.18766 0.0
C17 C 1.00031 0.7588 0.2462 0.0
H18 H 0.72372 0.9805 0.25072 0.0
H19 H 0.80454 0.97515 0.09981 0.0
H20 H 0.8038 0.03492 0.31184 0.0
C21 C 0.74752 0.98687 0.23897 0.0
C22 C 0.7616 1.0081 0.29198 0.0
C23 C 0.76236 0.97544 0.16879 0.0
C24 C 0.79295 0.98429 0.15346 0.0
C25 C 0.80825 1.0063 0.2021 0.0
C26 C 0.79262 0.01783 0.27359 0.0
H27 H 0.58558 0.73369 0.19162 0.0
H28 H 0.53642 0.81016 0.29034 0.0
H29 H 0.60522 0.82437 0.10472 0.0
C30 C 0.5835 0.75819 0.19721 0.0
C31 C 0.59714 0.77723 0.13702 0.0
C32 C 0.56455 0.76978 0.26071 0.0
C33 C 0.55446 0.80108 0.25153 0.0
C34 C 0.56767 0.82022 0.18886 0.0
C35 C 0.59277 0.80879 0.14458 0.0
H36 H 0.23007 0.45101 0.14884 0.0
H37 H 0.30579 0.46166 0.31558 0.0
H38 H 0.30159 0.51812 0.101 0.0
C39 C 0.25197 0.46159 0.16441 0.0
C40 C 0.26348 0.48534 0.1145 0.0
C41 C 0.26573 0.45428 0.23974 0.0
C42 C 0.29499 0.4667 0.25744 0.0
C43 C 0.30927 0.48874 0.20736 0.0
C44 C 0.29238 0.49941 0.13729 0.0
H45 H 0.98363 0.23597 0.08741 0.0
H46 H 0.987 0.30261 0.28052 0.0
H47 H 0.05144 0.30847 0.0777 0.0
C48 C 0.99422 0.25626 0.11396 0.0
C49 C 0.01939 0.26959 0.07383 0.0
C50 C 0.98342 0.26681 0.18965 0.0
C51 C 0.99589 0.29391 0.22287 0.0
C52 C 0.01978 0.31002 0.18236 0.0
C53 C 0.03231 0.29714 0.10822 0.0
H54 H 0.31329 0.09841 0.17122 0.0
H55 H 0.22011 0.1107 0.25612 0.0
H56 H 0.23997 0.04175 0.07661 0.0
C57 C 0.28894 0.09324 0.16842 0.0
C58 C 0.27907 0.07149 0.10937 0.0
C59 C 0.26841 0.10647 0.226 0.0
C60 C 0.23707 0.09889 0.21933 0.0
C61 C 0.22687 0.07401 0.17249 0.0
C62 C 0.24789 0.06029 0.11572 0.0
H63 H 0.52064 0.33629 0.22069 0.0
H64 H 0.50519 0.25373 0.07562 0.0
H65 H 0.51555 0.24951 0.33847 0.0
C66 C 0.51803 0.31169 0.21413 0.0
C67 C 0.51859 0.29408 0.28553 0.0
C68 C 0.51354 0.2981 0.1362 0.0
C69 C 0.50895 0.26522 0.13366 0.0
C70 C 0.51001 0.2474 0.20774 0.0
C71 C 0.5146 0.2626 0.28184 0.0
Tb72 Tb 0.98273 0.04173 0.61554 0.0
C73 C 0.12488 0.01423 0.76936 0.0
N74 N 0.10431 1.00005 0.7196 0.0
C75 C 0.14591 0.97683 0.64483 0.0
C76 C 0.15696 1.01082 0.75836 0.0
C77 C 0.1143 0.98074 0.65915 0.0
C78 C 0.16738 0.99222 0.69412 0.0
C79 C 0.13371 0.04428 0.8917 0.0
C80 C 0.11348 0.03064 0.83432 0.0
C81 C 0.16578 0.04208 0.87984 0.0
C82 C 0.17741 0.02538 0.81308 0.0
Tb83 Tb 0.05307 1.00997 0.74037 0.0
N84 N 0.08242 0.03164 0.84367 0.0
C85 C 0.12109 0.05891 0.96025 0.0
C86 C 0.07009 0.0447 0.9128 0.0
C87 C 0.08913 0.05881 0.97126 0.0
H88 H 0.09795 0.96855 0.62102 0.0
H89 H 0.07911 0.06962 0.02478 0.0
H90 H 0.93297 0.99592 0.71519 0.0
H91 H 1.00842 0.05265 0.29149 0.0
H92 H 0.04552 0.04519 0.92269 0.0
H93 H 0.13579 0.06971 1.00578 0.0
H94 H 1.00809 0.06881 0.43591 0.0
H95 H 0.15368 0.96196 0.59584 0.0
H96 H 0.18173 0.05258 0.92287 0.0
H97 H 0.20216 0.02325 0.80549 0.0
H98 H 0.89903 0.9522 0.68248 0.0
H99 H 0.19185 0.98904 0.68326 0.0
H100 H 0.97942 1.00617 0.24931 0.0
N101 N 0.95068 1.00026 0.59343 0.0
C102 C 0.94844 0.99034 0.51447 0.0
C103 C 0.91296 0.96261 0.63476 0.0
C104 C 0.92908 0.96546 0.49311 0.0
C105 C 0.93237 0.98744 0.65308 0.0
C106 C 0.91148 0.9514 0.55461 0.0
N107 N 0.98375 0.02952 0.47835 0.0
C108 C 0.99769 0.04721 0.41979 0.0
C109 C 0.96388 0.99593 0.3725 0.0
C110 C 0.9659 1.00519 0.45532 0.0
C111 C 0.98033 0.01257 0.31349 0.0
C112 C 0.99691 0.03865 0.33714 0.0
H113 H 0.89635 0.9322 0.54065 0.0
H114 H 0.91292 0.93657 0.39347 0.0
H115 H 0.94306 0.96355 0.28763 0.0
O116 O 0.96224 0.07625 0.54432 0.0
O117 O 0.99385 0.99242 0.62788 0.0
O118 O 0.04507 0.98853 0.61879 0.0
O119 O 0.9393 0.05872 0.65102 0.0
O120 O 0.02879 0.05854 0.57005 0.0
O121 O 0.06523 0.02324 0.61392 0.0
O122 O 0.01919 0.9772 0.76751 0.0
O123 O 0.0492 0.05971 0.75813 0.0
O124 O 1.00569 0.07826 0.69014 0.0
O125 O 0.06796 0.96997 0.80095 0.0
O126 O 0.0135 0.02342 0.8205 0.0
O127 O 0.97012 0.03585 0.74392 0.0
C128 C 0.01782 0.97915 0.5941 0.0
C129 C 0.90795 0.07645 0.54211 0.0
C130 C 0.87498 0.10378 0.44705 0.0
C131 C 0.85494 0.07848 0.44289 0.0
C132 C 0.88769 0.05114 0.53894 0.0
C133 C 0.86115 0.05232 0.48981 0.0
C134 C 0.901 0.10274 0.49764 0.0
C135 C 0.05632 0.04527 0.56379 0.0
C136 C 0.93716 0.0765 0.58782 0.0
C137 C 0.92762 0.95568 0.41112 0.0
C138 C 0.94486 0.97098 0.3509 0.0
C139 C 0.02996 0.08197 0.73903 0.0
C140 C 0.0311 0.92913 0.83333 0.0
C141 C 0.99106 0.89143 0.86255 0.0
C142 C 0.01409 0.86969 0.87968 0.0
C143 C 0.05382 0.90734 0.85106 0.0
C144 C 0.99974 0.92125 0.84092 0.0
C145 C 0.04526 0.87773 0.87445 0.0
C146 C 0.98365 0.02984 0.81402 0.0
C147 C 0.03978 0.95895 0.79903 0.0
H148 H 0.83518 0.07868 0.40227 0.0
H149 H 0.89244 0.03052 0.57328 0.0
H150 H 0.84578 0.03266 0.48656 0.0
H151 H 0.9169 0.12213 0.49899 0.0
H152 H 1.00796 0.84663 0.89863 0.0
H153 H 0.07813 0.91294 0.845 0.0
H154 H 0.98201 0.93797 0.82751 0.0
H155 H 0.0628 0.8609 0.8879 0.0
Tb156 Tb 0.534 0.07022 0.7645 0.0
C157 C 0.53 0.94703 0.51918 0.0
N158 N 0.52699 0.97778 0.51215 0.0
C159 C 0.552 0.9759 0.38044 0.0
C160 C 0.54473 0.92937 0.45828 0.0
C161 C 0.53667 0.99225 0.44218 0.0
C162 C 0.55649 0.94437 0.3891 0.0
C163 C 0.51549 0.90095 0.59188 0.0
C164 C 0.51596 0.93316 0.58468 0.0
C165 C 0.53144 0.88309 0.53396 0.0
C166 C 0.54615 0.89732 0.46723 0.0
Tb167 Tb 0.50518 1.00331 0.6212 0.0
N168 N 0.50046 0.9513 0.63768 0.0
C169 C 0.49793 0.88778 0.65491 0.0
C170 C 0.4818 0.93855 0.69624 0.0
C171 C 0.48055 0.90669 0.70642 0.0
H172 H 0.53306 0.01651 0.43385 0.0
H173 H 0.46623 0.89675 0.75402 0.0
H174 H 0.47791 0.1213 0.76245 0.0
H175 H 0.65749 0.08962 0.73192 0.0
H176 H 0.46835 0.95303 0.73625 0.0
H177 H 0.49687 0.86311 0.66267 0.0
H178 H 0.61103 0.06428 0.7875 0.0
H179 H 0.56018 0.98761 0.32604 0.0
H180 H 0.53171 0.8583 0.53876 0.0
H181 H 0.55763 0.8833 0.42166 0.0
H182 H 0.46856 0.17228 0.70104 0.0
H183 H 0.56818 0.93172 0.34107 0.0
H184 H 0.65245 0.13579 0.64508 0.0
N185 N 0.52404 0.11855 0.71799 0.0
C186 C 0.54773 0.13347 0.6808 0.0
C187 C 0.49089 0.16153 0.69444 0.0
C188 C 0.54371 0.16279 0.64633 0.0
C189 C 0.49624 0.13272 0.72914 0.0
C190 C 0.51459 0.17643 0.65162 0.0
N191 N 0.57958 0.09342 0.72491 0.0
C192 C 0.60835 0.08373 0.7474 0.0
C193 C 0.60255 0.13631 0.65331 0.0
C194 C 0.57658 0.12028 0.68377 0.0
C195 C 0.6319 0.12426 0.66763 0.0
C196 C 0.63484 0.09827 0.71676 0.0
H197 H 0.51051 0.19889 0.62555 0.0
H198 H 0.56656 0.20055 0.58424 0.0
H199 H 0.61814 0.17726 0.58983 0.0
O200 O 0.55156 0.09949 0.85649 0.0
O201 O 0.50787 0.07943 0.65141 0.0
O202 O 0.52439 0.04477 0.5589 0.0
O203 O 0.51303 0.06998 0.88104 0.0
O204 O 0.56961 0.03722 0.71836 0.0
O205 O 0.55268 0.01861 0.59374 0.0
O206 O 0.47074 0.03441 0.59345 0.0
O207 O 0.52161 0.98472 0.73982 0.0
O208 O 0.54108 0.02448 0.82119 0.0
O209 O 0.46592 0.98722 0.55607 0.0
O210 O 0.48117 1.01116 0.74001 0.0
O211 O 0.48356 0.06309 0.75626 0.0
C212 C 0.51823 0.07352 0.5774 0.0
C213 C 0.55027 0.07431 0.98309 0.0
C214 C 0.58848 0.03752 0.03116 0.0
C215 C 0.5777 0.04193 0.11187 0.0
C216 C 0.53954 0.07823 0.0634 0.0
C217 C 0.55341 0.06217 0.12761 0.0
C218 C 0.57486 0.05441 0.96784 0.0
C219 C 0.5752 0.02766 0.64254 0.0
C220 C 0.53401 0.0877 0.91302 0.0
C221 C 0.56915 0.17802 0.61125 0.0
C222 C 0.59852 0.16474 0.61442 0.0
C223 C 0.5343 0.99511 0.80841 0.0
C224 C 0.42079 0.0153 0.59653 0.0
C225 C 0.37621 0.04804 0.62137 0.0
C226 C 0.359 0.02179 0.64402 0.0
C227 C 0.40341 0.98933 0.6183 0.0
C228 C 0.40759 0.0444 0.60364 0.0
C229 C 0.3728 0.99278 0.64411 0.0
C230 C 0.46887 0.0369 0.76731 0.0
C231 C 0.45237 0.01373 0.56358 0.0
H232 H 0.58798 0.02993 0.16293 0.0
H233 H 0.52019 0.09315 0.07612 0.0
H234 H 0.54499 0.06498 0.18966 0.0
H235 H 0.58212 0.05079 0.90523 0.0
H236 H 0.3346 0.02317 0.6576 0.0
H237 H 0.41331 0.9666 0.61511 0.0
H238 H 0.42171 0.06438 0.59082 0.0
H239 H 0.3593 0.97275 0.66078 0.0
Tb240 Tb 0.55455 0.51384 0.62061 0.0
C241 C 0.45468 0.4937 0.84702 0.0
N242 N 0.45658 0.51067 0.77693 0.0
C243 C 0.41205 0.48406 0.72384 0.0
C244 C 0.43257 0.47 0.85573 0.0
C245 C 0.43409 0.50757 0.7186 0.0
C246 C 0.41167 0.46478 0.79192 0.0
C247 C 0.47327 0.48368 0.98498 0.0
C248 C 0.4746 0.50049 0.91132 0.0
C249 C 0.45175 0.45965 0.99298 0.0
C250 C 0.43153 0.45276 0.92843 0.0
Tb251 Tb 0.49455 0.54794 0.77748 0.0
N252 N 0.49612 0.52296 0.90026 0.0
C253 C 0.49378 0.49143 0.04815 0.0
C254 C 0.51613 0.53071 0.96179 0.0
C255 C 0.5153 0.51503 0.03646 0.0
H256 H 0.43185 0.52377 0.66944 0.0
H257 H 0.53116 0.52122 0.08503 0.0
H258 H 0.61304 0.56213 0.62562 0.0
H259 H 0.50866 0.44626 0.37063 0.0
H260 H 0.53256 0.54919 0.95347 0.0
H261 H 0.49321 0.47934 0.10612 0.0
H262 H 0.52031 0.45781 0.51606 0.0
H263 H 0.39483 0.48136 0.67627 0.0
H264 H 0.45049 0.44632 0.0489 0.0
H265 H 0.41484 0.43434 0.93583 0.0
H266 H 0.64493 0.59144 0.52573 0.0
H267 H 0.39435 0.44679 0.79617 0.0
H268 H 0.52885 0.4802 0.26105 0.0
N269 N 0.58375 0.54306 0.53405 0.0
C270 C 0.57873 0.53901 0.45285 0.0
C271 C 0.62612 0.57703 0.50446 0.0
C272 C 0.59551 0.55571 0.39382 0.0
C273 C 0.60811 0.56051 0.56074 0.0
C274 C 0.61935 0.57515 0.42068 0.0
N275 N 0.54614 0.49821 0.48869 0.0
C276 C 0.52917 0.47275 0.46852 0.0
C277 C 0.55276 0.5104 0.34585 0.0
C278 C 0.55849 0.51617 0.42938 0.0
C279 C 0.53388 0.48541 0.32468 0.0
C280 C 0.52249 0.46617 0.38633 0.0
H281 H 0.63311 0.58816 0.37727 0.0
H282 H 0.60061 0.56471 0.26377 0.0
H283 H 0.56174 0.52577 0.22226 0.0
O284 O 0.58085 0.47515 0.587 0.0
O285 O 0.5472 0.56353 0.59635 0.0
O286 O 0.51229 0.5834 0.6916 0.0
O287 O 0.59492 0.50491 0.68596 0.0
O288 O 0.50474 0.50491 0.59889 0.0
O289 O 0.48078 0.54768 0.64711 0.0
O290 O 0.48702 0.57881 0.87404 0.0
O291 O 0.52081 0.50491 0.8021 0.0
O292 O 0.5224 0.48118 0.67879 0.0
O293 O 0.45212 0.57161 0.78344 0.0
O294 O 0.54122 0.5661 0.80229 0.0
O295 O 0.57116 0.52822 0.74345 0.0
C296 C 0.53077 0.58643 0.62704 0.0
C297 C 0.60697 0.45313 0.70219 0.0
C298 C 0.60384 0.39869 0.73273 0.0
C299 C 0.62303 0.4027 0.80076 0.0
C300 C 0.6261 0.45717 0.77126 0.0
C301 C 0.63393 0.43206 0.82033 0.0
C302 C 0.59562 0.42386 0.68435 0.0
C303 C 0.48416 0.52673 0.58958 0.0
C304 C 0.60001 0.47925 0.64795 0.0
C305 C 0.58867 0.55145 0.31029 0.0
C306 C 0.56686 0.52914 0.28652 0.0
C307 C 0.51972 0.47943 0.75872 0.0
C308 C 0.46249 0.6224 0.82386 0.0
C309 C 0.49315 0.66888 0.802 0.0
C310 C 0.46567 0.68571 0.79442 0.0
C311 C 0.43529 0.63936 0.81661 0.0
C312 C 0.49106 0.63711 0.81288 0.0
C313 C 0.43695 0.67088 0.80062 0.0
C314 C 0.56741 0.55103 0.79571 0.0
C315 C 0.46188 0.58936 0.84198 0.0
H316 H 0.62994 0.38323 0.83742 0.0
H317 H 0.63529 0.47963 0.78669 0.0
H318 H 0.64899 0.43522 0.87253 0.0
H319 H 0.58106 0.42025 0.63103 0.0
H320 H 0.46624 0.71039 0.78702 0.0
H321 H 0.41296 0.62832 0.82349 0.0
H322 H 0.51206 0.62381 0.81503 0.0
H323 H 0.41593 0.68403 0.79544 0.0
Tb324 Tb 0.04703 0.55062 0.634 0.0
C325 C 0.04791 0.43052 0.80798 0.0
N326 N 0.02745 0.43927 0.74942 0.0
C327 C 0.02949 0.38875 0.69015 0.0
C328 C 0.06174 0.40126 0.80585 0.0
C329 C 0.01659 0.41798 0.69445 0.0
C330 C 0.05307 0.38074 0.74391 0.0
C331 C 0.06941 0.43922 0.94347 0.0
C332 C 0.05137 0.44898 0.87658 0.0
C333 C 0.08504 0.41117 0.9387 0.0
C334 C 0.08137 0.39229 0.86979 0.0
Tb335 Tb 1.00567 0.48676 0.76791 0.0
N336 N 0.03432 0.47495 0.88132 0.0
C337 C 0.06967 0.45701 1.01503 0.0
C338 C 0.03233 0.49083 0.95366 0.0
C339 C 0.05066 0.48269 0.02057 0.0
H340 H 0.99751 0.42312 0.6544 0.0
H341 H 0.0498 0.49595 0.07671 0.0
H342 H 1.0111 0.61518 0.67376 0.0
H343 H 0.09116 0.50923 0.34238 0.0
H344 H 0.01728 0.51034 0.95872 0.0
H345 H 0.08337 0.45036 0.06753 0.0
H346 H 0.09148 0.51606 0.4923 0.0
H347 H 0.02053 0.37214 0.64687 0.0
H348 H 0.09899 0.40327 0.98946 0.0
H349 H 0.09239 0.37004 0.86875 0.0
H350 H 0.98021 0.65345 0.59859 0.0
H351 H 0.06271 0.35788 0.74096 0.0
H352 H 0.05311 0.53688 0.25757 0.0
N353 N 0.01828 0.58687 0.56915 0.0
C354 C 0.01527 0.5841 0.48689 0.0
C355 C 0.98964 0.63385 0.56652 0.0
C356 C 0.99771 0.60515 0.44138 0.0
C357 C 1.00706 0.6121 0.60899 0.0
C358 C 0.98436 0.62999 0.48256 0.0
N359 N 0.05185 0.54494 0.49409 0.0
C360 C 0.07406 0.52757 0.4566 0.0
C361 C 0.03206 0.5596 0.3616 0.0
C362 C 0.03236 0.5619 0.44788 0.0
C363 C 0.05266 0.53943 0.32367 0.0
C364 C 0.07423 0.52387 0.37133 0.0
H365 H 0.97087 0.64682 0.44973 0.0
H366 H 0.9814 0.61706 0.32041 0.0
H367 H 1.01155 0.57704 0.24982 0.0
O368 O 0.08168 0.57923 0.58447 0.0
O369 O 0.9955 0.55058 0.63734 0.0
O370 O 0.98156 0.50005 0.65351 0.0
O371 O 0.07436 0.57692 0.71423 0.0
O372 O 0.05555 0.50191 0.59811 0.0
O373 O 1.01185 0.47551 0.63631 0.0
O374 O 0.95867 0.49231 0.79938 0.0
O375 O 0.04903 0.51056 0.80619 0.0
O376 O 0.07529 0.51391 0.68807 0.0
O377 O 0.98289 0.4517 0.83245 0.0
O378 O 0.9987 0.53273 0.82281 0.0
O379 O 0.02881 0.56858 0.75165 0.0
C380 C 0.97583 0.52771 0.62462 0.0
C381 C 0.12532 0.57951 0.66959 0.0
C382 C 0.16794 0.54369 0.6525 0.0
C383 C 0.18732 0.56427 0.69527 0.0
C384 C 0.14474 0.59978 0.71208 0.0
C385 C 0.17562 0.59199 0.72546 0.0
C386 C 0.13677 0.55137 0.64263 0.0
C387 C 0.03548 0.47937 0.58645 0.0
C388 C 0.09262 0.58639 0.65635 0.0
C389 C 0.99539 0.60155 0.35606 0.0
C390 C 1.01249 0.57872 0.31609 0.0
C391 C 0.07556 0.50914 0.76734 0.0
C392 C 0.93282 0.44443 0.78746 0.0
C393 C 0.89106 0.40718 0.80106 0.0
C394 C 0.89122 0.40255 0.71593 0.0
C395 C 0.9334 0.43892 0.70263 0.0
C396 C 0.9119 0.42822 0.83645 0.0
C397 C 0.91261 0.41818 0.66705 0.0
C398 C 1.01071 0.56064 0.81371 0.0
C399 C 0.95615 0.46432 0.82615 0.0
H400 H 0.21161 0.55955 0.70346 0.0
H401 H 0.13603 0.62141 0.73507 0.0
H402 H 0.19067 0.60771 0.75812 0.0
H403 H 0.12112 0.53549 0.61287 0.0
H404 H 0.8748 0.38696 0.68756 0.0
H405 H 0.95023 0.45022 0.66417 0.0
H406 H 0.91154 0.43232 0.90209 0.0
H407 H 0.91304 0.41431 0.60147 0.0
H408 H 0.20947 0.029 0.28191 0.0
H409 H 0.1724 0.09901 0.12321 0.0
H410 H 0.12408 0.09916 0.20423 0.0
H411 H 0.13259 0.9877 0.3206 0.0
H412 H 0.14321 0.97949 0.42506 0.0
H413 H 0.17254 0.9817 0.34669 0.0
H414 H 0.20153 0.02236 0.43357 0.0
H415 H 0.17181 0.02112 0.51076 0.0
H416 H 0.18197 0.05707 0.46314 0.0
H417 H 0.08473 0.10017 0.32415 0.0
H418 H 0.05278 0.09252 0.44817 0.0
H419 H 0.1113 0.01689 0.51941 0.0
C420 C 0.19041 0.04286 0.26084 0.0
C421 C 0.19465 0.06321 0.19348 0.0
C422 C 0.16954 0.08234 0.17185 0.0
C423 C 0.14212 0.08301 0.21894 0.0
C424 C 0.1395 0.06404 0.28768 0.0
C425 C 0.16254 0.0434 0.30668 0.0
C426 C 0.15443 0.02622 0.38544 0.0
C427 C 0.15045 0.99172 0.36841 0.0
C428 C 0.17889 0.03205 0.45213 0.0
C429 C 0.12371 0.04085 0.4087 0.0
C430 C 0.11572 0.063 0.3524 0.0
C431 C 0.09009 0.08177 0.36613 0.0
C432 C 0.07164 0.07697 0.4368 0.0
C433 C 0.07778 0.05274 0.49239 0.0
C434 C 0.10484 0.035 0.47791 0.0
H435 H 0.55417 0.20403 0.23952 0.0
H436 H 0.45555 0.21587 0.21621 0.0
H437 H 0.44685 0.16989 0.30195 0.0
H438 H 0.55217 0.11589 0.24836 0.0
H439 H 0.58317 0.11505 0.32196 0.0
H440 H 0.58197 0.14486 0.24551 0.0
H441 H 0.58451 0.18584 0.35834 0.0
H442 H 0.58494 0.15696 0.43686 0.0
H443 H 0.5556 0.18625 0.43779 0.0
H444 H 0.44914 0.12964 0.41573 0.0
H445 H 0.46181 0.09346 0.52709 0.0
H446 H 0.55919 0.1047 0.47424 0.0
C447 C 0.53077 0.19561 0.2473 0.0
C448 C 0.50553 0.21326 0.21756 0.0
C449 C 0.47526 0.20234 0.23444 0.0
C450 C 0.47014 0.17644 0.28491 0.0
C451 C 0.49552 0.16098 0.31771 0.0
C452 C 0.52532 0.16953 0.2972 0.0
C453 C 0.54859 0.15045 0.34531 0.0
C454 C 0.56763 0.13035 0.28683 0.0
C455 C 0.56966 0.17111 0.39775 0.0
C456 C 0.52736 0.13081 0.39889 0.0
C457 C 0.49679 0.13728 0.3818 0.0
C458 C 0.47297 0.12394 0.42772 0.0
C459 C 0.48038 0.10335 0.4913 0.0
C460 C 0.51138 0.09552 0.50869 0.0
C461 C 0.53519 0.10955 0.46136 0.0
H462 H 0.35989 0.45705 0.266 0.0
H463 H 0.32698 0.54966 0.22935 0.0
H464 H 0.37042 0.56942 0.31401 0.0
H465 H 0.37872 0.4653 0.47248 0.0
H466 H 0.41264 0.44156 0.47018 0.0
H467 H 0.38211 0.43511 0.39724 0.0
H468 H 0.42075 0.44169 0.27653 0.0
H469 H 0.4513 0.4471 0.35012 0.0
H470 H 0.4448 0.47559 0.27218 0.0
H471 H 0.41422 0.57834 0.41931 0.0
H472 H 0.45488 0.57624 0.52499 0.0
H473 H 0.45985 0.47752 0.4959 0.0
C474 C 0.3623 0.48165 0.27348 0.0
C475 C 0.33978 0.50177 0.23918 0.0
C476 C 0.3439 0.53369 0.25248 0.0
C477 C 0.36848 0.54507 0.30165 0.0
C478 C 0.38926 0.52443 0.33732 0.0
C479 C 0.38664 0.49333 0.32262 0.0
C480 C 0.41075 0.47569 0.37188 0.0
C481 C 0.39511 0.45308 0.43145 0.0
C482 C 0.43324 0.45904 0.31421 0.0
C483 C 0.42709 0.50153 0.41835 0.0
C484 C 0.41437 0.52949 0.39715 0.0
C485 C 0.42444 0.55653 0.43501 0.0
C486 C 0.44766 0.55507 0.49558 0.0
C487 C 0.46123 0.52681 0.5191 0.0
C488 C 0.45076 0.49966 0.47871 0.0
H489 H 0.05426 0.32284 0.32254 0.0
H490 H 1.00264 0.36677 0.1292 0.0
H491 H 1.00447 0.41583 0.20626 0.0
H492 H 0.02182 0.3585 0.49333 0.0
H493 H 0.05816 0.36206 0.54729 0.0
H494 H 0.05317 0.33269 0.47134 0.0
H495 H 0.10299 0.35469 0.40276 0.0
H496 H 0.10513 0.38553 0.47653 0.0
H497 H 0.10354 0.39396 0.36848 0.0
H498 H 1.00511 0.45852 0.31579 0.0
H499 H 1.00875 0.49152 0.43931 0.0
H500 H 0.0633 0.4222 0.56034 0.0
C501 C 0.04446 0.34313 0.29495 0.0
C502 C 0.02893 0.34088 0.21815 0.0
C503 C 0.01545 0.36787 0.18614 0.0
C504 C 0.01613 0.39589 0.23024 0.0
C505 C 0.03084 0.39712 0.30661 0.0
C506 C 0.04557 0.37161 0.33763 0.0
C507 C 0.05944 0.379 0.42162 0.0
C508 C 0.04732 0.35676 0.48727 0.0
C509 C 0.09488 0.37825 0.41709 0.0
C510 C 0.04811 0.41177 0.43624 0.0
C511 C 0.03209 0.42195 0.36826 0.0
C512 C 0.01816 0.45085 0.36834 0.0
C513 C 0.0204 0.4696 0.43899 0.0
C514 C 0.03673 0.45997 0.5095 0.0
C515 C 0.05097 0.43058 0.50735 0.0
H516 H 0.82027 0.03043 0.0505 0.0
H517 H 0.86666 1.00464 0.27459 0.0
H518 H 0.91738 1.01065 0.20392 0.0
H519 H 0.86714 0.98906 0.91741 0.0
H520 H 0.86639 0.0167 0.83545 0.0
H521 H 0.83473 0.01449 0.90682 0.0
H522 H 0.84155 0.07213 0.94204 0.0
H523 H 0.87302 0.07462 0.86987 0.0
H524 H 0.87876 0.08625 0.97493 0.0
H525 H 0.96399 0.01385 0.09751 0.0
H526 H 0.99887 0.01704 0.9769 0.0
H527 H 0.92066 0.04053 0.82424 0.0
C528 C 0.84113 0.02702 0.08579 0.0
C529 C 0.83915 0.01756 0.16918 0.0
C530 C 0.86723 0.0126 0.21174 0.0
C531 C 0.89625 0.01563 0.17139 0.0
C532 C 0.89714 0.02373 0.08801 0.0
C533 C 0.87007 0.02977 0.04641 0.0
C534 C 0.8765 0.03643 0.95634 0.0
C535 C 0.86022 0.01277 0.90077 0.0
C536 C 0.86689 0.06931 0.93452 0.0
C537 C 0.91138 0.0329 0.95252 0.0
C538 C 0.92311 0.0256 0.02881 0.0
C539 C 0.95477 0.02 0.03821 0.0
C540 C 0.97459 0.02192 0.96884 0.0
C541 C 0.96307 0.02944 0.88983 0.0
C542 C 0.93081 0.03508 0.88298 0.0
H543 H 0.55137 0.83061 0.03038 0.0
H544 H 0.55668 0.87716 0.2648 0.0
H545 H 0.54719 0.92693 0.19402 0.0
H546 H 0.59533 0.88611 0.92451 0.0
H547 H 0.57488 0.88195 0.82888 0.0
H548 H 0.5771 0.85007 0.89855 0.0
H549 H 0.51732 0.84544 0.90427 0.0
H550 H 0.51562 0.87601 0.83068 0.0
H551 H 0.49481 0.87917 0.92613 0.0
H552 H 0.5388 0.97267 0.09105 0.0
H553 H 0.5333 1.0078 0.97356 0.0
H554 H 0.54064 0.93118 0.8056 0.0
C555 C 0.54974 0.85115 0.06762 0.0
C556 C 0.55424 0.84956 0.15416 0.0
C557 C 0.55253 0.87731 0.19939 0.0
C558 C 0.54754 0.90579 0.15912 0.0
C559 C 0.54471 0.90641 0.0732 0.0
C560 C 0.54581 0.87958 0.02835 0.0
C561 C 0.54486 0.88602 0.93657 0.0
C562 C 0.57483 0.8754 0.8947 0.0
C563 C 0.51643 0.87077 0.89716 0.0
C564 C 0.54243 0.92082 0.93559 0.0
C565 C 0.54228 0.93222 1.01499 0.0
C566 C 0.53955 0.96371 0.02913 0.0
C567 C 0.53709 0.98377 0.96142 0.0
C568 C 0.53807 0.97291 0.87923 0.0
C569 C 0.54043 0.94068 0.86699 0.0
H570 H 0.67826 0.49811 0.16309 0.0
H571 H 0.73673 0.57717 0.11585 0.0
H572 H 0.69785 0.59636 0.01661 0.0
H573 H 0.66031 0.48469 0.95695 0.0
H574 H 0.62151 0.47117 0.97597 0.0
H575 H 0.6507 0.46687 0.05344 0.0
H576 H 0.61679 0.49683 0.15846 0.0
H577 H 0.58738 0.49954 0.0807 0.0
H578 H 0.60205 0.53387 0.1292 0.0
H579 H 0.65287 0.60387 0.90875 0.0
H580 H 0.60857 0.59929 0.81217 0.0
H581 H 0.58401 0.51184 0.91976 0.0
C582 C 0.68281 0.51988 0.13341 0.0
C583 C 0.711 0.53608 0.14871 0.0
C584 C 0.71541 0.56444 0.10753 0.0
C585 C 0.69347 0.5753 0.04979 0.0
C586 C 0.66706 0.55753 0.03254 0.0
C587 C 0.6618 0.53037 0.07383 0.0
C588 C 0.63344 0.51379 0.03999 0.0
C589 C 0.64203 0.48226 1.0045 0.0
C590 C 0.60842 0.51076 0.10612 0.0
C591 C 0.62331 0.53564 0.97286 0.0
C592 C 0.64264 0.56104 0.96984 0.0
C593 C 0.63757 0.58418 0.91196 0.0
C594 C 0.61222 0.58148 0.85726 0.0
C595 C 0.59233 0.55553 0.85906 0.0
C596 C 0.59837 0.53227 0.91753 0.0
H597 H 0.01553 0.72697 0.04225 0.0
H598 H 0.97575 0.6826 0.25503 0.0
H599 H 0.97798 0.63253 0.18264 0.0
H600 H 0.97599 0.68443 0.89438 0.0
H601 H 1.00718 0.68144 0.82156 0.0
H602 H 1.00591 0.71335 0.89185 0.0
H603 H 0.06046 0.70025 0.9452 0.0
H604 H 0.06222 0.66867 0.87375 0.0
H605 H 0.06823 0.66204 0.98158 0.0
H606 H 0.97848 0.58793 0.08061 0.0
H607 H 0.98304 0.55185 0.96479 0.0
H608 H 0.0264 0.62336 0.81897 0.0
C609 C 1.00891 0.70644 0.07538 0.0
C610 C 0.9967 0.70881 0.15643 0.0
C611 C 0.98647 0.68146 0.19506 0.0
C612 C 0.98732 0.65288 0.15384 0.0
C613 C 0.99876 0.65151 0.07365 0.0
C614 C 1.01007 0.6775 0.03538 0.0
C615 C 0.01998 0.66989 0.94761 0.0
C616 C 1.00115 0.68838 0.88518 0.0
C617 C 0.0548 0.67555 0.93638 0.0
C618 C 1.01218 0.63569 0.94212 0.0
C619 C 0.99962 0.62567 1.01535 0.0
C620 C 0.98891 0.59552 0.02376 0.0
C621 C 0.99165 0.57501 0.95696 0.0
C622 C 1.00562 0.58404 0.88178 0.0
C623 C 0.01582 0.61517 0.87499 0.0
H624 H 0.98102 0.20451 0.19585 0.0
H625 H 0.93299 0.28537 0.28339 0.0
H626 H 0.89239 0.2516 0.34342 0.0
H627 H 0.91145 0.1639 0.12991 0.0
H628 H 0.92748 0.12715 0.15625 0.0
H629 H 0.95253 0.15793 0.12323 0.0
H630 H 0.98478 0.15325 0.25695 0.0
H631 H 0.96045 0.12196 0.2885 0.0
H632 H 0.96533 0.1548 0.35469 0.0
H633 H 0.86098 0.20708 0.40663 0.0
H634 H 0.84389 0.15771 0.4677 0.0
H635 H 0.90662 0.10884 0.30888 0.0
C636 C 0.96162 0.2155 0.22552 0.0
C637 C 0.95993 0.24774 0.23312 0.0
C638 C 0.93486 0.26073 0.27668 0.0
C639 C 0.91149 0.24176 0.30979 0.0
C640 C 0.91323 0.21009 0.29659 0.0
C641 C 0.93768 0.19729 0.25469 0.0
C642 C 0.93511 0.16286 0.24879 0.0
C643 C 0.93141 0.15236 0.15922 0.0
C644 C 0.96304 0.14734 0.28971 0.0
C645 C 0.90579 0.15781 0.29684 0.0
C646 C 0.89342 0.18519 0.32466 0.0
C647 C 0.86966 0.18562 0.38264 0.0
C648 C 0.85973 0.15753 0.41624 0.0
C649 C 0.87321 0.1297 0.39021 0.0
C650 C 0.89495 0.12982 0.32627 0.0
H651 H 0.32621 0.13299 0.25706 0.0
H652 H 0.23674 0.11863 0.37354 0.0
H653 H 0.25941 0.12679 0.50472 0.0
H654 H 0.36041 0.0841 0.34986 0.0
H655 H 0.39747 0.10182 0.36978 0.0
H656 H 0.37444 0.11546 0.28762 0.0
H657 H 0.37688 0.16994 0.34934 0.0
H658 H 0.39942 0.15623 0.43448 0.0
H659 H 0.36413 0.17672 0.45302 0.0
H660 H 0.28991 0.11063 0.61786 0.0
H661 H 0.32288 0.07325 0.68712 0.0
H662 H 0.394 0.08968 0.50444 0.0
C663 C 0.31113 0.13192 0.30962 0.0
C664 C 0.27974 0.12323 0.30164 0.0
C665 C 0.26091 0.12459 0.3734 0.0
C666 C 0.27374 0.12946 0.45072 0.0
C667 C 0.30555 0.13254 0.45729 0.0
C668 C 0.32411 0.1348 0.38808 0.0
C669 C 0.35761 0.12932 0.40987 0.0
C670 C 0.37329 0.10625 0.35097 0.0
C671 C 0.37555 0.15987 0.4118 0.0
C672 C 0.35363 0.11682 0.49606 0.0
C673 C 0.32407 0.12167 0.52521 0.0
C674 C 0.31333 0.10733 0.59652 0.0
C675 C 0.33206 0.08557 0.63486 0.0
C676 C 0.36092 0.07767 0.60054 0.0
C677 C 0.37246 0.09528 0.53401 0.0
H678 H 0.57353 0.31818 0.32928 0.0
H679 H 0.48195 0.29724 0.4211 0.0
H680 H 0.49864 0.31128 0.56185 0.0
H681 H 0.61547 0.28896 0.50676 0.0
H682 H 0.64452 0.31871 0.50156 0.0
H683 H 0.62566 0.30564 0.40927 0.0
H684 H 0.60823 0.36124 0.37553 0.0
H685 H 0.62842 0.37434 0.46515 0.0
H686 H 0.58805 0.38302 0.45273 0.0
H687 H 0.52401 0.33262 0.68773 0.0
H688 H 0.55387 0.36581 0.78236 0.0
H689 H 0.62999 0.36745 0.61133 0.0
C690 C 0.55698 0.31704 0.37912 0.0
C691 C 0.52643 0.30745 0.3653 0.0
C692 C 0.50536 0.30527 0.43138 0.0
C693 C 0.51477 0.31262 0.51124 0.0
C694 C 0.54547 0.32124 0.52349 0.0
C695 C 0.56616 0.32365 0.45905 0.0
C696 C 0.59725 0.33522 0.48714 0.0
C697 C 0.62219 0.31065 0.47548 0.0
C698 C 0.60597 0.36523 0.44258 0.0
C699 C 0.59047 0.34048 0.57693 0.0
C700 C 0.56064 0.3317 0.59733 0.0
C701 C 0.54766 0.33877 0.67338 0.0
C702 C 0.56476 0.35731 0.72722 0.0
C703 C 0.59413 0.36841 0.70387 0.0
C704 C 0.60801 0.358 0.63114 0.0
H705 H 0.2028 0.45751 0.25983 0.0
H706 H 0.28449 0.42182 0.37876 0.0
H707 H 0.25998 0.42997 0.51264 0.0
H708 H 0.19203 0.51428 0.35309 0.0
H709 H 0.15081 0.5152 0.36875 0.0
H710 H 0.16618 0.49335 0.28612 0.0
H711 H 0.1396 0.44403 0.33856 0.0
H712 H 0.12281 0.46581 0.42137 0.0
H713 H 0.14496 0.43198 0.4432 0.0
H714 H 0.23895 0.46352 0.62211 0.0
H715 H 0.21687 0.50693 0.69921 0.0
H716 H 0.14832 0.51827 0.50875 0.0
C717 C 0.21504 0.44931 0.31289 0.0
C718 C 0.24661 0.44131 0.30841 0.0
C719 C 0.261 0.43011 0.38039 0.0
C720 C 0.24703 0.43423 0.45717 0.0
C721 C 0.21783 0.44747 0.46023 0.0
C722 C 0.20106 0.45294 0.38947 0.0
C723 C 0.17276 0.47208 0.40734 0.0
C724 C 0.17043 0.50037 0.35062 0.0
C725 C 0.1433 0.45229 0.40234 0.0
C726 C 0.1794 0.481 0.49505 0.0
C727 C 0.20458 0.4656 0.52614 0.0
C728 C 0.21819 0.47448 0.60021 0.0
C729 C 0.20574 0.4995 0.64321 0.0
C730 C 0.17997 0.51549 0.61208 0.0
C731 C 0.1667 0.5056 0.53743 0.0
H732 H 0.93113 0.76306 1.01171 0.0
H733 H 0.90154 0.82267 0.20847 0.0
H734 H 0.88343 0.85978 0.10786 0.0
H735 H 0.96691 0.79442 0.90978 0.0
H736 H 0.95494 0.79033 0.80422 0.0
H737 H 0.94337 0.76223 0.87702 0.0
H738 H 0.88653 0.7707 0.8396 0.0
H739 H 0.89828 0.79916 0.76544 0.0
H740 H 0.8702 0.80858 0.84292 0.0
H741 H 0.90235 0.89728 1.01432 0.0
H742 H 0.94741 0.92184 0.95123 0.0
H743 H 0.96196 0.84201 0.8001 0.0
C744 C 0.91879 0.78282 0.03381 0.0
C745 C 0.91993 0.79098 0.11766 0.0
C746 C 0.9029 0.81673 0.14408 0.0
C747 C 0.89186 0.8378 0.08682 0.0
C748 C 0.897 0.83221 1.00348 0.0
C749 C 0.90768 0.8039 0.97641 0.0
C750 C 0.91806 0.80583 0.8877 0.0
C751 C 0.94763 0.78721 0.86897 0.0
C752 C 0.89169 0.79549 0.83061 0.0
C753 C 0.92265 0.8402 0.88149 0.0
C754 C 0.90695 0.85527 0.94425 0.0
C755 C 0.91383 0.88586 0.96391 0.0
C756 C 0.93973 0.89975 0.92807 0.0
C757 C 0.9582 0.88306 0.87278 0.0
C758 C 0.94775 0.85458 0.84304 0.0
H759 H 0.71345 0.93525 0.18583 0.0
H760 H 0.76746 0.98314 1.00228 0.0
H761 H 0.72329 0.98395 0.91184 0.0
H762 H 0.64418 0.90777 0.02105 0.0
H763 H 0.61685 0.91491 0.10211 0.0
H764 H 0.6532 0.89682 0.12471 0.0
H765 H 0.66335 0.93813 0.23413 0.0
H766 H 0.62836 0.95758 0.21058 0.0
H767 H 0.66475 0.97795 0.20452 0.0
H768 H 0.67619 1.00845 0.88563 0.0
H769 H 0.63287 0.04219 0.91125 0.0
H770 H 0.60158 0.98284 0.1082 0.0
C771 C 0.71606 0.94443 0.12462 0.0
C772 C 0.74337 0.96054 0.10328 0.0
C773 C 0.74681 0.97107 0.02181 0.0
C774 C 0.72143 0.97174 0.96935 0.0
C775 C 0.69281 0.96199 0.99922 0.0
C776 C 0.69008 0.94676 0.07366 0.0
C777 C 0.65658 0.94624 0.10224 0.0
C778 C 0.64185 0.91456 0.08654 0.0
C779 C 0.65306 0.9556 0.19314 0.0
C780 C 0.64308 0.96977 0.04456 0.0
C781 C 0.66361 0.97671 0.98201 0.0
C782 C 0.65927 1.00206 0.93149 0.0
C783 C 0.63435 0.02136 0.94685 0.0
C784 C 0.61335 0.01518 1.01151 0.0
C785 C 0.61725 0.98829 0.05857 0.0
H786 H 0.61709 0.71811 0.09988 0.0
H787 H 0.60285 0.80656 0.98402 0.0
H788 H 0.59288 0.78155 0.85559 0.0
H789 H 0.62992 0.66912 0.89381 0.0
H790 H 0.60584 0.6398 0.93905 0.0
H791 H 0.63214 0.66157 1.00238 0.0
H792 H 0.58596 0.6752 0.09678 0.0
H793 H 0.56033 0.65402 0.0325 0.0
H794 H 0.55279 0.69396 0.05323 0.0
H795 H 0.56025 0.75193 0.76499 0.0
H796 H 0.51485 0.72115 0.72416 0.0
H797 H 0.54014 0.65219 0.90263 0.0
C798 C 0.61231 0.73235 0.0474 0.0
C799 C 0.60806 0.76429 0.0562 0.0
C800 C 0.605 0.78194 0.98323 0.0
C801 C 0.59928 0.76774 0.90788 0.0
C802 C 0.59662 0.73595 0.90564 0.0
C803 C 0.60399 0.71823 0.97341 0.0
C804 C 0.59061 0.6862 0.9653 0.0
C805 C 0.61623 0.66282 0.94908 0.0
C806 C 0.57125 0.6769 0.04129 0.0
C807 C 0.57081 0.69033 0.88976 0.0
C808 C 0.57609 0.7184 0.85298 0.0
C809 C 0.55665 0.72944 0.79143 0.0
C810 C 0.53055 0.71206 0.76951 0.0
C811 C 0.52377 0.68424 0.81027 0.0
C812 C 0.54506 0.67281 0.86819 0.0
H813 H 0.75553 0.45881 0.02532 0.0
H814 H 0.79946 0.4213 0.24128 0.0
H815 H 0.82554 0.38318 0.15471 0.0
H816 H 0.75592 0.37893 0.9002 0.0
H817 H 0.76187 0.40091 0.80798 0.0
H818 H 0.7369 0.41528 0.88779 0.0
H819 H 0.76865 0.46564 0.89121 0.0
H820 H 0.79371 0.45155 0.81339 0.0
H821 H 0.8097 0.46406 0.91006 0.0
H822 H 0.86096 0.36655 0.04887 0.0
H823 H 0.89888 0.37183 0.93709 0.0
H824 H 0.83013 0.41487 0.7853 0.0
C825 C 0.76889 0.44132 0.05554 0.0
C826 C 0.7758 0.44351 0.14001 0.0
C827 C 0.79432 0.42064 0.17634 0.0
C828 C 0.80887 0.3985 0.12763 0.0
C829 C 0.80384 0.39883 0.04309 0.0
C830 C 0.78321 0.41896 1.00763 0.0
C831 C 0.78623 0.41914 0.91511 0.0
C832 C 0.7586 0.40256 0.87545 0.0
C833 C 0.78987 0.45201 0.88069 0.0
C834 C 0.81532 0.40046 0.9054 0.0
C835 C 0.82418 0.38746 0.97932 0.0
C836 C 0.85365 0.37528 0.99 0.0
C837 C 0.87515 0.37843 0.92638 0.0
C838 C 0.86693 0.39342 0.85305 0.0
C839 C 0.83624 0.40244 0.84028 0.0
H840 H 0.98731 0.24598 0.94135 0.0
H841 H 0.07834 0.24722 0.05063 0.0
H842 H 0.0925 0.20188 0.96667 0.0
H843 H 0.97752 0.16755 0.95565 0.0
H844 H 0.95581 0.16263 0.86227 0.0
H845 H 0.95497 0.19876 0.91587 0.0
H846 H 0.97349 0.2271 0.78536 0.0
H847 H 0.97386 0.19112 0.7306 0.0
H848 H 1.00818 0.21471 0.73415 0.0
H849 H 0.09378 0.15087 0.88526 0.0
H850 H 0.0837 0.10257 0.8109 0.0
H851 H 0.99023 0.13219 0.76013 0.0
C852 C 1.01077 0.23764 0.94494 0.0
C853 C 0.0319 0.251 1.00228 0.0
C854 C 0.06196 0.23841 1.00619 0.0
C855 C 0.07 0.21216 0.95936 0.0
C856 C 0.0478 0.19839 0.90829 0.0
C857 C 0.01884 0.21104 0.90017 0.0
C858 C 0.99798 0.19026 0.84841 0.0
C859 C 0.96992 0.17915 0.89854 0.0
C860 C 0.98778 0.20678 0.76996 0.0
C861 C 0.01954 0.16372 0.8286 0.0
C862 C 0.04823 0.16893 0.86352 0.0
C863 C 0.07147 0.14698 0.85714 0.0
C864 C 0.06539 0.11931 0.81467 0.0
C865 C 0.03613 0.11306 0.77842 0.0
C866 C 0.01303 0.13605 0.78541 0.0
H867 H 0.32536 0.10477 0.03001 0.0
H868 H 0.28813 0.01238 0.04687 0.0
H869 H 0.33081 0.99386 0.95822 0.0
H870 H 0.35279 0.09941 0.81694 0.0
H871 H 0.38673 0.12239 0.83665 0.0
H872 H 0.3521 0.12845 0.89583 0.0
H873 H 0.3829 0.12005 0.02983 0.0
H874 H 0.41756 0.11387 0.97109 0.0
H875 H 0.40447 0.08516 0.04276 0.0
H876 H 0.3812 0.98498 0.8726 0.0
H877 H 0.43101 0.98696 0.79876 0.0
H878 H 0.43585 0.08524 0.83867 0.0
C879 C 0.32591 0.08056 1.01511 0.0
C880 C 0.30287 0.06013 0.04694 0.0
C881 C 0.30485 0.02878 0.02368 0.0
C882 C 0.32934 0.01799 0.97344 0.0
C883 C 0.35197 0.03868 0.94544 0.0
C884 C 0.35017 0.06945 0.96507 0.0
C885 C 0.37763 0.08707 0.92903 0.0
C886 C 0.36665 0.11074 0.86588 0.0
C887 C 0.39677 0.10244 0.99724 0.0
C888 C 0.39571 0.06145 0.88744 0.0
C889 C 0.38043 0.03369 0.89703 0.0
C890 C 0.39304 1.00673 0.86497 0.0
C891 C 0.42165 1.00808 0.82287 0.0
C892 C 0.43798 0.03619 0.81208 0.0
C893 C 0.42436 0.06324 0.84506 0.0
H894 H 0.54662 0.35274 0.11146 0.0
H895 H 0.48022 0.29328 0.98935 0.0
H896 H 0.47577 0.33177 0.87797 0.0
H897 H 0.50728 0.42285 0.07388 0.0
H898 H 0.54238 0.44494 0.06077 0.0
H899 H 0.54217 0.41146 0.12511 0.0
H900 H 0.58717 0.38961 0.04094 0.0
H901 H 0.5871 0.42214 0.97294 0.0
H902 H 0.58277 0.38383 0.93224 0.0
H903 H 0.47834 0.37931 0.77846 0.0
H904 H 0.48603 0.4292 0.708 0.0
H905 H 0.54588 0.45955 0.90494 0.0
C906 C 0.53068 0.34755 0.0623 0.0
C907 C 0.51336 0.31946 0.06157 0.0
C908 C 0.494 0.31406 0.99269 0.0
C909 C 0.49111 0.33612 0.92906 0.0
C910 C 0.50752 0.36396 0.93433 0.0
C911 C 0.52696 0.36957 0.99967 0.0
C912 C 0.54151 0.40147 0.99333 0.0
C913 C 0.53279 0.42137 0.06767 0.0
C914 C 0.57674 0.39915 0.98433 0.0
C915 C 0.5269 0.41347 0.91486 0.0
C916 C 0.50775 0.39132 0.88072 0.0
C917 C 0.49299 0.39673 0.80583 0.0
C918 C 0.49765 0.4252 0.76572 0.0
C919 C 0.51635 0.44865 0.80069 0.0
C920 C 0.53112 0.44241 0.87663 0.0
H921 H 0.23052 0.4514 0.99868 0.0
H922 H 0.24457 0.54473 0.08333 0.0
H923 H 0.19976 0.56126 1.00011 0.0
H924 H 0.20688 0.46903 0.79377 0.0
H925 H 0.17637 0.44091 0.78429 0.0
H926 H 0.20937 0.43355 0.84852 0.0
H927 H 0.17808 0.42597 0.98072 0.0
H928 H 0.14501 0.42746 0.91478 0.0
H929 H 0.14715 0.45215 1.00376 0.0
H930 H 0.1474 0.5658 0.924 0.0
H931 H 0.09855 0.55976 0.84748 0.0
H932 H 0.11978 0.46435 0.80123 0.0
C933 C 0.22476 0.47553 0.99816 0.0
C934 C 0.24181 0.49677 0.04771 0.0
C935 C 0.23279 0.528 0.04521 0.0
C936 C 0.20691 0.53752 0.99868 0.0
C937 C 0.18999 0.51572 0.95358 0.0
C938 C 0.19898 0.48541 0.95193 0.0
C939 C 0.17649 0.46624 0.9005 0.0
C940 C 0.19321 0.45157 0.82731 0.0
C941 C 0.16073 0.44154 0.95331 0.0
C942 C 0.15326 0.49042 0.873 0.0
C943 C 0.16121 0.51874 0.90573 0.0
C944 C 0.14167 0.54391 0.89628 0.0
C945 C 0.11381 0.5403 0.85204 0.0
C946 C 0.10558 0.512 0.81465 0.0
C947 C 0.12574 0.48666 0.82619 0.0
H948 H 1.01233 0.84677 0.24229 0.0
H949 H 0.98849 0.78192 0.4331 0.0
H950 H 0.99436 0.82311 0.5372 0.0
H951 H 0.07069 0.89137 0.36755 0.0
H952 H 0.06003 0.92727 0.32119 0.0
H953 H 0.05678 0.89208 0.26344 0.0
H954 H 0.99941 0.90379 0.2356 0.0
H955 H 1.00217 0.93862 0.29471 0.0
H956 H 0.97358 0.90992 0.32068 0.0
H957 H 0.9949 0.87398 0.61858 0.0
H958 H 0.99898 0.92699 0.67213 0.0
H959 H 0.02767 0.9591 0.43307 0.0
C960 C 1.00967 0.84092 0.30641 0.0
C961 C 1.00074 0.81051 0.32924 0.0
C962 C 0.99628 0.80444 0.41377 0.0
C963 C 0.99916 0.82797 0.47339 0.0
C964 C 1.00701 0.85778 0.4485 0.0
C965 C 0.01313 0.86412 0.36709 0.0
C966 C 0.02078 0.89822 0.35638 0.0
C967 C 0.05405 0.90248 0.3253 0.0
C968 C 0.9976 0.91355 0.29841 0.0
C969 C 0.01735 0.91031 0.44397 0.0
C970 C 1.00902 0.88658 0.49596 0.0
C971 C 1.0023 0.89237 0.57847 0.0
C972 C 1.00477 0.92268 0.6088 0.0
C973 C 0.01468 0.94725 0.55828 0.0
C974 C 0.02085 0.9408 0.47422 0.0
H975 H 0.70323 0.033 0.28344 0.0
H976 H 0.77241 1.00583 0.45981 0.0
H977 H 0.73345 1.0105 0.57131 0.0
H978 H 0.66028 0.08723 0.42308 0.0
H979 H 0.62362 0.07648 0.37903 0.0
H980 H 0.65809 0.07577 0.31694 0.0
H981 H 0.64598 0.01997 0.28024 0.0
H982 H 0.61256 0.01896 0.34534 0.0
H983 H 0.64289 0.99137 0.35998 0.0
H984 H 0.68331 0.01323 0.6636 0.0
H985 H 0.63042 0.01519 0.72265 0.0
H986 H 0.59415 0.03862 0.48373 0.0
C987 C 0.7106 0.02909 0.34596 0.0
C988 C 0.74147 0.01953 0.36227 0.0
C989 C 0.74949 0.01393 0.44515 0.0
C990 C 0.7272 0.01619 0.50897 0.0
C991 C 0.6967 0.02428 0.48988 0.0
C992 C 0.68862 0.03112 0.41003 0.0
C993 C 0.65411 0.03772 0.40396 0.0
C994 C 0.64872 0.0713 0.37929 0.0
C995 C 0.63797 0.01563 0.34388 0.0
C996 C 0.64356 0.03211 0.49175 0.0
C997 C 0.66844 0.02503 0.54119 0.0
C998 C 0.66395 0.01897 0.62483 0.0
C999 C 0.63367 0.02018 0.65819 0.0
C1000 C 0.60777 0.02708 0.60841 0.0
C1001 C 0.6132 0.03308 0.5239 0.0
H1002 H 0.59369 0.71614 0.31435 0.0
H1003 H 0.51252 0.77099 0.36634 0.0
H1004 H 0.49609 0.73211 0.46869 0.0
H1005 H 0.552 0.64468 0.31552 0.0
H1006 H 0.58385 0.62318 0.35559 0.0
H1007 H 0.59109 0.65668 0.29407 0.0
H1008 H 0.62409 0.68081 0.40938 0.0
H1009 H 0.6177 0.64733 0.4718 0.0
H1010 H 0.60798 0.68478 0.51085 0.0
H1011 H 0.4884 0.68394 0.56765 0.0
H1012 H 0.489 0.63414 0.63992 0.0
H1013 H 0.57224 0.60939 0.50946 0.0
C1014 C 0.57197 0.72027 0.345 0.0
C1015 C 0.55431 0.74729 0.32866 0.0
C1016 C 0.5269 0.75113 0.37576 0.0
C1017 C 0.51722 0.72881 0.43435 0.0
C1018 C 0.5348 0.70215 0.44577 0.0
C1019 C 0.56152 0.6979 0.40126 0.0
C1020 C 0.57558 0.66664 0.41939 0.0
C1021 C 0.57565 0.64662 0.34155 0.0
C1022 C 0.60828 0.67011 0.45496 0.0
C1023 C 0.55321 0.65393 0.4831 0.0
C1024 C 0.52987 0.67475 0.49824 0.0
C1025 C 0.50676 0.66781 0.55554 0.0
C1026 C 0.50749 0.63929 0.59738 0.0
C1027 C 0.53113 0.61736 0.58292 0.0
C1028 C 0.55405 0.6252 0.52386 0.0
H1029 H 0.81899 0.48024 0.3857 0.0
H1030 H 0.81149 0.57387 0.2984 0.0
H1031 H 0.85708 0.58813 0.38321 0.0
H1032 H 0.84698 0.4962 0.5905 0.0
H1033 H 0.87317 0.46428 0.59082 0.0
H1034 H 0.83827 0.46231 0.53105 0.0
H1035 H 0.86995 0.45071 0.40024 0.0
H1036 H 0.905 0.4522 0.45941 0.0
H1037 H 0.9008 0.47638 0.37065 0.0
H1038 H 0.90637 0.59111 0.47924 0.0
H1039 H 0.95207 0.58232 0.56615 0.0
H1040 H 0.93112 0.48526 0.57182 0.0
C1041 C 0.82673 0.50388 0.38335 0.0
C1042 C 0.81114 0.52578 0.33316 0.0
C1043 C 0.82227 0.55649 0.3358 0.0
C1044 C 0.84853 0.56474 0.38365 0.0
C1045 C 0.86394 0.54211 0.42895 0.0
C1046 C 0.85326 0.51223 0.42865 0.0
C1047 C 0.87452 0.49154 0.47824 0.0
C1048 C 0.8572 0.47776 0.552 0.0
C1049 C 0.88838 0.46622 0.42388 0.0
C1050 C 0.89927 0.51419 0.50623 0.0
C1051 C 0.89255 0.5434 0.4786 0.0
C1052 C 0.91175 0.56813 0.49949 0.0
C1053 C 0.93819 0.56286 0.54847 0.0
C1054 C 0.94644 0.53301 0.57512 0.0
C1055 C 0.92616 0.50846 0.55331 0.0
loop_
_geom_bond_atom_site_label_1
_geom_bond_atom_site_label_2
_geom_bond_distance
_geom_bond_site_symmetry_2
_ccdc_geom_bond_type
H0 C3 0.931 . S
H1 C6 0.928 . S
H2 C8 0.930 . S
C3 H0 0.931 . S
C3 C4 1.413 . S
C3 C5 1.360 . S
C4 C3 1.413 . S
C4 C8 1.429 . S
C5 C3 1.360 . S
C5 C6 1.372 . S
C6 H1 0.928 . S
C6 C5 1.372 . S
C6 C7 1.404 . S
C7 C6 1.404 . S
C7 C8 1.391 . S
C8 H2 0.930 . S
C8 C4 1.429 . S
C8 C7 1.391 . S
H9 C12 0.931 . S
H10 C15 0.928 . S
H11 C17 0.930 . S
C12 H9 0.931 . S
C12 C13 1.413 . S
C12 C14 1.360 . S
C13 C12 1.413 . S
C13 C17 1.429 . S
C14 C12 1.360 . S
C14 C15 1.372 . S
C15 H10 0.928 . S
C15 C14 1.372 . S
C15 C16 1.404 . S
C16 C15 1.404 . S
C16 C17 1.391 . S
C17 H11 0.930 . S
C17 C13 1.429 . S
C17 C16 1.391 . S
H18 C21 0.931 . S
H19 C24 0.928 . S
H20 C26 0.930 . S
C21 H18 0.931 . S
C21 C22 1.413 . S
C21 C23 1.360 . S
C22 C21 1.413 . S
C22 C26 1.429 . S
C23 C21 1.360 . S
C23 C24 1.372 . S
C24 H19 0.928 . S
C24 C23 1.372 . S
C24 C25 1.404 . S
C25 C24 1.404 . S
C25 C26 1.391 . S
C26 H20 0.930 . S
C26 C22 1.429 . S
C26 C25 1.391 . S
H27 C30 0.931 . S
H28 C33 0.928 . S
H29 C35 0.930 . S
C30 H27 0.931 . S
C30 C31 1.413 . S
C30 C32 1.360 . S
C31 C30 1.413 . S
C31 C35 1.429 . S
C32 C30 1.360 . S
C32 C33 1.372 . S
C33 H28 0.928 . S
C33 C32 1.372 . S
C33 C34 1.404 . S
C34 C33 1.404 . S
C34 C35 1.391 . S
C35 H29 0.930 . S
C35 C31 1.429 . S
C35 C34 1.391 . S
H36 C39 0.931 . S
H37 C42 0.928 . S
H38 C44 0.930 . S
C39 H36 0.931 . S
C39 C40 1.413 1_554 S
C39 C41 1.360 . S
C40 C39 1.413 1_556 S
C40 C44 1.429 . S
C41 C39 1.360 . S
C41 C42 1.372 . S
C42 H37 0.928 . S
C42 C41 1.372 . S
C42 C43 1.404 . S
C43 C42 1.404 . S
C43 C44 1.391 1_554 S
C44 H38 0.930 . S
C44 C40 1.429 . S
C44 C43 1.391 1_556 S
H45 C48 0.931 . S
H46 C51 0.928 . S
H47 C53 0.930 . S
C48 H45 0.931 . S
C48 C49 1.413 1_554 S
C48 C50 1.360 . S
C49 C48 1.413 1_556 S
C49 C53 1.429 . S
C50 C48 1.360 . S
C50 C51 1.372 . S
C51 H46 0.928 . S
C51 C50 1.372 . S
C51 C52 1.404 . S
C52 C51 1.404 . S
C52 C53 1.391 1_554 S
C53 H47 0.930 . S
C53 C49 1.429 . S
C53 C52 1.391 1_556 S
H54 C57 0.931 . S
H55 C60 0.928 . S
H56 C62 0.930 . S
C57 H54 0.931 . S
C57 C58 1.413 1_554 S
C57 C59 1.360 . S
C58 C57 1.413 1_556 S
C58 C62 1.429 . S
C59 C57 1.360 . S
C59 C60 1.372 . S
C60 H55 0.928 . S
C60 C59 1.372 . S
C60 C61 1.404 . S
C61 C60 1.404 . S
C61 C62 1.391 1_554 S
C62 H56 0.930 . S
C62 C58 1.429 . S
C62 C61 1.391 1_556 S
H63 C66 0.931 . S
H64 C69 0.928 . S
H65 C71 0.930 . S
C66 H63 0.931 . S
C66 C67 1.413 . S
C66 C68 1.360 1_554 S
C67 C66 1.413 . S
C67 C71 1.429 . S
C68 C66 1.360 1_556 S
C68 C69 1.372 . S
C69 H64 0.928 . S
C69 C68 1.372 . S
C69 C70 1.404 1_556 S
C70 C69 1.404 1_554 S
C70 C71 1.391 . S
C71 H65 0.930 . S
C71 C67 1.429 . S
C71 C70 1.391 . S
Tb72 N101 2.617 . S
Tb72 N107 2.572 . S
Tb72 O116 2.465 . S
Tb72 O117 2.387 1_545 S
Tb72 O119 2.428 . S
Tb72 O120 2.308 1_655 S
Tb72 O124 2.349 1_655 S
Tb72 O127 2.393 . S
Tb72 C136 2.802 . S
C73 N74 1.379 . S
C73 C76 1.416 . S
C73 C80 1.424 . S
N74 C73 1.379 . S
N74 C77 1.334 1_545 S
N74 Tb83 2.617 1_545 S
C75 C77 1.390 1_545 S
C75 C78 1.339 . S
C75 H95 0.930 . S
C76 C73 1.416 . S
C76 C78 1.416 . S
C76 C82 1.448 . S
C77 N74 1.334 1_565 S
C77 C75 1.390 1_565 S
C77 H88 0.930 . S
C78 C75 1.339 . S
C78 C76 1.416 . S
C78 H99 0.930 . S
C79 C80 1.413 . S
C79 C81 1.427 1_556 S
C79 C85 1.416 1_556 S
C80 C73 1.424 . S
C80 C79 1.413 . S
C80 N84 1.361 . S
C81 C79 1.427 1_554 S
C81 C82 1.328 1_554 S
C81 H96 0.929 . S
C82 C76 1.448 . S
C82 C81 1.328 1_556 S
C82 H97 0.930 . S
Tb83 N74 2.617 1_565 S
Tb83 N84 2.572 1_565 S
Tb83 O118 2.349 . S
Tb83 O121 2.393 . S
Tb83 O122 2.465 . S
Tb83 O123 2.387 1_565 S
Tb83 O125 2.428 . S
Tb83 O126 2.305 1_465 S
Tb83 C147 2.802 . S
N84 C80 1.361 . S
N84 Tb83 2.572 1_545 S
N84 C86 1.340 . S
C85 C79 1.416 1_554 S
C85 C87 1.332 . S
C85 H93 0.931 . S
C86 N84 1.340 . S
C86 C87 1.407 1_556 S
C86 H92 0.930 . S
C87 C85 1.332 . S
C87 C86 1.407 1_554 S
C87 H89 0.929 . S
H88 C77 0.930 . S
H89 C87 0.929 . S
H90 C105 0.930 . S
H91 C112 0.929 1_455 S
H92 C86 0.930 . S
H93 C85 0.931 . S
H94 C108 0.930 1_455 S
H95 C75 0.930 . S
H96 C81 0.929 . S
H97 C82 0.930 . S
H98 C103 0.930 . S
H99 C78 0.930 . S
H100 C111 0.931 . S
N101 Tb72 2.617 . S
N101 C102 1.365 1_545 S
N101 C105 1.334 . S
C102 N101 1.365 1_565 S
C102 C104 1.428 . S
C102 C110 1.427 . S
C103 H98 0.930 . S
C103 C105 1.390 . S
C103 C106 1.339 1_545 S
C104 C102 1.428 . S
C104 C106 1.416 . S
C104 C137 1.448 . S
C105 H90 0.930 . S
C105 N101 1.334 . S
C105 C103 1.390 . S
C106 C103 1.339 1_565 S
C106 C104 1.416 . S
C106 H113 0.930 . S
N107 Tb72 2.572 . S
N107 C108 1.340 . S
N107 C110 1.361 1_545 S
C108 H94 0.930 1_655 S
C108 N107 1.340 . S
C108 C112 1.407 1_545 S
C109 C110 1.413 . S
C109 C111 1.416 . S
C109 C138 1.427 . S
C110 C102 1.427 . S
C110 N107 1.361 1_565 S
C110 C109 1.413 . S
C111 H100 0.931 . S
C111 C109 1.416 . S
C111 C112 1.332 . S
C112 H91 0.929 1_655 S
C112 C108 1.407 1_565 S
C112 C111 1.332 . S
H113 C106 0.930 . S
H114 C137 0.930 . S
H115 C138 0.929 . S
O116 Tb72 2.465 . S
O116 C136 1.264 . S
O117 Tb72 2.387 1_565 S
O117 C128 1.264 . S
O118 Tb83 2.349 . S
O118 C128 1.243 1_455 S
O119 Tb72 2.428 . S
O119 C136 1.256 . S
O120 Tb72 2.308 1_455 S
O120 C135 1.266 . S
O121 Tb83 2.393 . S
O121 C135 1.248 1_565 S
O122 Tb83 2.465 . S
O122 C147 1.264 . S
O123 Tb83 2.387 1_545 S
O123 C139 1.264 . S
O124 Tb72 2.349 1_455 S
O124 C139 1.243 . S
O125 Tb83 2.428 . S
O125 C147 1.256 . S
O126 Tb83 2.305 1_645 S
O126 C146 1.268 . S
O127 Tb72 2.393 . S
O127 C146 1.248 . S
C128 O117 1.264 . S
C128 O118 1.243 1_655 S
C129 C132 1.399 . S
C129 C134 1.383 . S
C129 C136 1.496 . S
C130 C131 1.399 . S
C130 C134 1.389 . S
C131 C130 1.399 . S
C131 C133 1.380 . S
C131 H148 0.929 . S
C132 C129 1.399 . S
C132 C133 1.392 . S
C132 H149 0.929 . S
C133 C131 1.380 . S
C133 C132 1.392 . S
C133 H150 0.929 . S
C134 C129 1.383 . S
C134 C130 1.389 . S
C134 H151 0.931 1_655 S
C135 O120 1.266 . S
C135 O121 1.248 1_545 S
C136 Tb72 2.802 . S
C136 O116 1.264 . S
C136 O119 1.256 . S
C136 C129 1.496 . S
C137 C104 1.448 . S
C137 H114 0.930 . S
C137 C138 1.328 . S
C138 C109 1.427 . S
C138 H115 0.929 . S
C138 C137 1.328 . S
C139 O123 1.264 . S
C139 O124 1.243 . S
C140 C143 1.399 . S
C140 C144 1.383 . S
C140 C147 1.496 . S
C141 C142 1.399 . S
C141 C144 1.389 . S
C142 C141 1.399 . S
C142 C145 1.380 . S
C142 H152 0.929 . S
C143 C140 1.399 . S
C143 C145 1.392 . S
C143 H153 0.929 . S
C144 C140 1.383 . S
C144 C141 1.389 . S
C144 H154 0.931 . S
C145 C142 1.380 . S
C145 C143 1.392 . S
C145 H155 0.929 . S
C146 O126 1.268 . S
C146 O127 1.248 . S
C147 Tb83 2.802 . S
C147 O122 1.264 . S
C147 O125 1.256 . S
C147 C140 1.496 . S
H148 C131 0.929 . S
H149 C132 0.929 . S
H150 C133 0.929 . S
H151 C134 0.931 1_455 S
H152 C142 0.929 . S
H153 C143 0.929 . S
H154 C144 0.931 . S
H155 C145 0.929 . S
Tb156 N185 2.617 . S
Tb156 N191 2.572 . S
Tb156 O200 2.465 . S
Tb156 O201 2.387 . S
Tb156 O203 2.428 . S
Tb156 O204 2.308 . S
Tb156 O208 2.349 1_545 S
Tb156 O211 2.393 . S
Tb156 C220 2.802 . S
C157 N158 1.379 . S
C157 C160 1.416 . S
C157 C164 1.424 . S
N158 C157 1.379 . S
N158 C161 1.334 . S
N158 Tb167 2.617 . S
C159 C161 1.390 . S
C159 C162 1.339 . S
C159 H179 0.930 . S
C160 C157 1.416 . S
C160 C162 1.416 . S
C160 C166 1.448 . S
C161 N158 1.334 . S
C161 C159 1.390 . S
C161 H172 0.930 . S
C162 C159 1.339 . S
C162 C160 1.416 . S
C162 H183 0.930 . S
C163 C164 1.413 . S
C163 C165 1.427 . S
C163 C169 1.416 . S
C164 C157 1.424 . S
C164 C163 1.413 . S
C164 N168 1.361 . S
C165 C163 1.427 . S
C165 C166 1.328 . S
C165 H180 0.929 . S
C166 C160 1.448 . S
C166 C165 1.328 . S
C166 H181 0.930 . S
Tb167 N158 2.617 . S
Tb167 N168 2.572 . S
Tb167 O202 2.349 1_565 S
Tb167 O205 2.393 . S
Tb167 O206 2.465 . S
Tb167 O207 2.387 . S
Tb167 O209 2.428 . S
Tb167 O210 2.308 1_565 S
Tb167 C231 2.802 . S
N168 C164 1.361 . S
N168 Tb167 2.572 . S
N168 C170 1.340 . S
C169 C163 1.416 . S
C169 C171 1.332 . S
C169 H177 0.931 . S
C170 N168 1.340 . S
C170 C171 1.407 . S
C170 H176 0.930 . S
C171 C169 1.332 . S
C171 C170 1.407 . S
C171 H173 0.929 . S
H172 C161 0.930 . S
H173 C171 0.929 . S
H174 C189 0.930 . S
H175 C196 0.929 . S
H176 C170 0.930 . S
H177 C169 0.931 . S
H178 C192 0.930 . S
H179 C159 0.930 . S
H180 C165 0.929 . S
H181 C166 0.930 . S
H182 C187 0.930 . S
H183 C162 0.930 . S
H184 C195 0.931 . S
N185 Tb156 2.617 . S
N185 C186 1.379 . S
N185 C189 1.334 . S
C186 N185 1.379 . S
C186 C188 1.416 . S
C186 C194 1.424 . S
C187 H182 0.930 . S
C187 C189 1.390 . S
C187 C190 1.339 . S
C188 C186 1.416 . S
C188 C190 1.416 . S
C188 C221 1.448 . S
C189 H174 0.930 . S
C189 N185 1.334 . S
C189 C187 1.390 . S
C190 C187 1.339 . S
C190 C188 1.416 . S
C190 H197 0.930 . S
N191 Tb156 2.572 . S
N191 C192 1.340 . S
N191 C194 1.361 . S
C192 H178 0.930 . S
C192 N191 1.340 . S
C192 C196 1.407 . S
C193 C194 1.413 . S
C193 C195 1.416 . S
C193 C222 1.427 . S
C194 C186 1.424 . S
C194 N191 1.361 . S
C194 C193 1.413 . S
C195 H184 0.931 . S
C195 C193 1.416 . S
C195 C196 1.332 . S
C196 H175 0.929 . S
C196 C192 1.407 . S
C196 C195 1.332 . S
H197 C190 0.930 . S
H198 C221 0.930 . S
H199 C222 0.929 . S
O200 Tb156 2.465 . S
O200 C220 1.264 . S
O201 Tb156 2.387 . S
O201 C212 1.264 . S
O202 Tb167 2.349 1_545 S
O202 C212 1.243 . S
O203 Tb156 2.428 . S
O203 C220 1.256 . S
O204 Tb156 2.308 . S
O204 C219 1.266 1_545 S
O205 Tb167 2.393 . S
O205 C219 1.248 . S
O206 Tb167 2.465 . S
O206 C231 1.264 . S
O207 Tb167 2.387 . S
O207 C223 1.264 . S
O208 Tb156 2.349 1_565 S
O208 C223 1.243 . S
O209 Tb167 2.428 . S
O209 C231 1.256 . S
O210 Tb167 2.308 1_545 S
O210 C230 1.266 . S
O211 Tb156 2.393 . S
O211 C230 1.248 . S
C212 O201 1.264 . S
C212 O202 1.243 . S
C213 C216 1.399 1_556 S
C213 C218 1.383 . S
C213 C220 1.496 . S
C214 C215 1.398 . S
C214 C218 1.390 1_554 S
C215 C214 1.398 . S
C215 C217 1.380 . S
C215 H232 0.929 . S
C216 C213 1.399 1_554 S
C216 C217 1.392 . S
C216 H233 0.929 . S
C217 C215 1.380 . S
C217 C216 1.392 . S
C217 H234 0.929 . S
C218 C213 1.383 . S
C218 C214 1.390 1_556 S
C218 H235 0.931 . S
C219 O204 1.266 1_565 S
C219 O205 1.248 . S
C220 Tb156 2.802 . S
C220 O200 1.264 . S
C220 O203 1.256 . S
C220 C213 1.496 . S
C221 C188 1.448 . S
C221 H198 0.930 . S
C221 C222 1.328 . S
C222 C193 1.427 . S
C222 H199 0.929 . S
C222 C221 1.328 . S
C223 O207 1.264 . S
C223 O208 1.243 . S
C224 C227 1.399 . S
C224 C228 1.383 . S
C224 C231 1.496 . S
C225 C226 1.399 . S
C225 C228 1.389 . S
C226 C225 1.399 . S
C226 C229 1.380 . S
C226 H236 0.929 . S
C227 C224 1.399 . S
C227 C229 1.392 . S
C227 H237 0.929 . S
C228 C224 1.383 . S
C228 C225 1.389 . S
C228 H238 0.931 . S
C229 C226 1.380 . S
C229 C227 1.392 . S
C229 H239 0.929 . S
C230 O210 1.266 . S
C230 O211 1.248 . S
C231 Tb167 2.802 . S
C231 O206 1.264 . S
C231 O209 1.256 . S
C231 C224 1.496 . S
H232 C215 0.929 . S
H233 C216 0.929 . S
H234 C217 0.929 . S
H235 C218 0.931 . S
H236 C226 0.929 . S
H237 C227 0.929 . S
H238 C228 0.931 . S
H239 C229 0.929 . S
Tb240 N269 2.617 . S
Tb240 N275 2.572 . S
Tb240 O284 2.465 . S
Tb240 O285 2.387 . S
Tb240 O287 2.428 . S
Tb240 O288 2.308 . S
Tb240 O292 2.349 . S
Tb240 O295 2.393 . S
Tb240 C304 2.802 . S
C241 N242 1.379 . S
C241 C244 1.416 . S
C241 C248 1.424 . S
N242 C241 1.379 . S
N242 C245 1.334 . S
N242 Tb251 2.617 . S
C243 C245 1.390 . S
C243 C246 1.339 . S
C243 H263 0.930 . S
C244 C241 1.416 . S
C244 C246 1.416 . S
C244 C250 1.448 . S
C245 N242 1.334 . S
C245 C243 1.390 . S
C245 H256 0.930 . S
C246 C243 1.339 . S
C246 C244 1.416 . S
C246 H267 0.930 . S
C247 C248 1.413 . S
C247 C249 1.427 1_556 S
C247 C253 1.416 1_556 S
C248 C241 1.424 . S
C248 C247 1.413 . S
C248 N252 1.361 . S
C249 C247 1.427 1_554 S
C249 C250 1.328 1_554 S
C249 H264 0.929 . S
C250 C244 1.448 . S
C250 C249 1.328 1_556 S
C250 H265 0.930 . S
Tb251 N242 2.617 . S
Tb251 N252 2.572 . S
Tb251 O286 2.349 . S
Tb251 O289 2.393 . S
Tb251 O290 2.465 . S
Tb251 O291 2.387 . S
Tb251 O293 2.428 . S
Tb251 O294 2.308 . S
Tb251 C315 2.802 . S
N252 C248 1.361 . S
N252 Tb251 2.572 . S
N252 C254 1.340 . S
C253 C247 1.416 1_554 S
C253 C255 1.332 . S
C253 H261 0.931 . S
C254 N252 1.340 . S
C254 C255 1.407 1_556 S
C254 H260 0.930 . S
C255 C253 1.332 . S
C255 C254 1.407 1_554 S
C255 H257 0.929 . S
H256 C245 0.930 . S
H257 C255 0.929 . S
H258 C273 0.930 . S
H259 C280 0.929 . S
H260 C254 0.930 . S
H261 C253 0.931 . S
H262 C276 0.930 . S
H263 C243 0.930 . S
H264 C249 0.929 . S
H265 C250 0.930 . S
H266 C271 0.930 . S
H267 C246 0.930 . S
H268 C279 0.931 . S
N269 Tb240 2.617 . S
N269 C270 1.379 . S
N269 C273 1.334 . S
C270 N269 1.379 . S
C270 C272 1.416 . S
C270 C278 1.424 . S
C271 H266 0.930 . S
C271 C273 1.390 . S
C271 C274 1.339 . S
C272 C270 1.416 . S
C272 C274 1.416 . S
C272 C305 1.448 . S
C273 H258 0.930 . S
C273 N269 1.334 . S
C273 C271 1.390 . S
C274 C271 1.339 . S
C274 C272 1.416 . S
C274 H281 0.930 . S
N275 Tb240 2.572 . S
N275 C276 1.340 . S
N275 C278 1.361 . S
C276 H262 0.930 . S
C276 N275 1.340 . S
C276 C280 1.407 . S
C277 C278 1.413 . S
C277 C279 1.416 . S
C277 C306 1.427 . S
C278 C270 1.424 . S
C278 N275 1.361 . S
C278 C277 1.413 . S
C279 H268 0.931 . S
C279 C277 1.416 . S
C279 C280 1.332 . S
C280 H259 0.929 . S
C280 C276 1.407 . S
C280 C279 1.332 . S
H281 C274 0.930 . S
H282 C305 0.930 . S
H283 C306 0.929 . S
O284 Tb240 2.465 . S
O284 C304 1.264 . S
O285 Tb240 2.387 . S
O285 C296 1.264 . S
O286 Tb251 2.349 . S
O286 C296 1.243 . S
O287 Tb240 2.428 . S
O287 C304 1.256 . S
O288 Tb240 2.308 . S
O288 C303 1.266 . S
O289 Tb251 2.393 . S
O289 C303 1.248 . S
O290 Tb251 2.465 . S
O290 C315 1.264 . S
O291 Tb251 2.387 . S
O291 C307 1.264 . S
O292 Tb240 2.349 . S
O292 C307 1.243 . S
O293 Tb251 2.428 . S
O293 C315 1.256 . S
O294 Tb251 2.308 . S
O294 C314 1.266 . S
O295 Tb240 2.393 . S
O295 C314 1.248 . S
C296 O285 1.264 . S
C296 O286 1.243 . S
C297 C300 1.399 . S
C297 C302 1.383 . S
C297 C304 1.496 . S
C298 C299 1.399 . S
C298 C302 1.389 . S
C299 C298 1.399 . S
C299 C301 1.380 . S
C299 H316 0.929 . S
C300 C297 1.399 . S
C300 C301 1.392 . S
C300 H317 0.929 . S
C301 C299 1.380 . S
C301 C300 1.392 . S
C301 H318 0.929 . S
C302 C297 1.383 . S
C302 C298 1.389 . S
C302 H319 0.931 . S
C303 O288 1.266 . S
C303 O289 1.248 . S
C304 Tb240 2.802 . S
C304 O284 1.264 . S
C304 O287 1.256 . S
C304 C297 1.496 . S
C305 C272 1.448 . S
C305 H282 0.930 . S
C305 C306 1.328 . S
C306 C277 1.427 . S
C306 H283 0.929 . S
C306 C305 1.328 . S
C307 O291 1.264 . S
C307 O292 1.243 . S
C308 C311 1.399 . S
C308 C312 1.383 . S
C308 C315 1.496 . S
C309 C310 1.399 . S
C309 C312 1.389 . S
C310 C309 1.399 . S
C310 C313 1.380 . S
C310 H320 0.929 . S
C311 C308 1.399 . S
C311 C313 1.392 . S
C311 H321 0.929 . S
C312 C308 1.383 . S
C312 C309 1.389 . S
C312 H322 0.931 . S
C313 C310 1.380 . S
C313 C311 1.392 . S
C313 H323 0.929 . S
C314 O294 1.266 . S
C314 O295 1.248 . S
C315 Tb251 2.802 . S
C315 O290 1.264 . S
C315 O293 1.256 . S
C315 C308 1.496 . S
H316 C299 0.929 . S
H317 C300 0.929 . S
H318 C301 0.929 . S
H319 C302 0.931 . S
H320 C310 0.929 . S
H321 C311 0.929 . S
H322 C312 0.931 . S
H323 C313 0.929 . S
Tb324 N353 2.617 . S
Tb324 N359 2.572 . S
Tb324 O368 2.465 . S
Tb324 O369 2.387 1_455 S
Tb324 O371 2.428 . S
Tb324 O372 2.308 . S
Tb324 O376 2.349 . S
Tb324 O379 2.393 . S
Tb324 C388 2.802 . S
C325 N326 1.379 1_455 S
C325 C328 1.416 . S
C325 C332 1.424 . S
N326 C325 1.379 1_655 S
N326 C329 1.334 . S
N326 Tb335 2.617 . S
C327 C329 1.390 1_455 S
C327 C330 1.339 . S
C327 H347 0.930 . S
C328 C325 1.416 . S
C328 C330 1.416 . S
C328 C334 1.448 . S
C329 N326 1.334 . S
C329 C327 1.390 1_655 S
C329 H340 0.930 . S
C330 C327 1.339 . S
C330 C328 1.416 . S
C330 H351 0.930 . S
C331 C332 1.413 . S
C331 C333 1.427 1_556 S
C331 C337 1.416 1_556 S
C332 C325 1.424 . S
C332 C331 1.413 . S
C332 N336 1.361 . S
C333 C331 1.427 1_554 S
C333 C334 1.328 1_554 S
C333 H348 0.929 . S
C334 C328 1.448 . S
C334 C333 1.328 1_556 S
C334 H349 0.930 . S
Tb335 N326 2.617 . S
Tb335 N336 2.572 1_655 S
Tb335 O370 2.349 . S
Tb335 O373 2.393 . S
Tb335 O374 2.465 . S
Tb335 O375 2.387 1_655 S
Tb335 O377 2.428 . S
Tb335 O378 2.308 . S
Tb335 C399 2.802 . S
N336 C332 1.361 . S
N336 Tb335 2.572 1_455 S
N336 C338 1.340 . S
C337 C331 1.416 1_554 S
C337 C339 1.332 . S
C337 H345 0.931 . S
C338 N336 1.340 . S
C338 C339 1.407 1_556 S
C338 H344 0.929 . S
C339 C337 1.332 . S
C339 C338 1.407 1_554 S
C339 H341 0.929 . S
H340 C329 0.930 . S
H341 C339 0.929 . S
H342 C357 0.930 . S
H343 C364 0.929 . S
H344 C338 0.929 . S
H345 C337 0.931 . S
H346 C360 0.930 . S
H347 C327 0.930 . S
H348 C333 0.929 . S
H349 C334 0.930 . S
H350 C355 0.930 . S
H351 C330 0.930 . S
H352 C363 0.931 . S
N353 Tb324 2.617 . S
N353 C354 1.365 1_455 S
N353 C357 1.334 . S
C354 N353 1.365 1_655 S
C354 C356 1.427 . S
C354 C362 1.427 . S
C355 H350 0.930 . S
C355 C357 1.390 . S
C355 C358 1.339 1_455 S
C356 C354 1.427 . S
C356 C358 1.416 . S
C356 C389 1.448 . S
C357 H342 0.930 . S
C357 N353 1.334 . S
C357 C355 1.390 . S
C358 C355 1.339 1_655 S
C358 C356 1.416 . S
C358 H365 0.930 . S
N359 Tb324 2.572 . S
N359 C360 1.340 . S
N359 C362 1.361 1_455 S
C360 H346 0.930 . S
C360 N359 1.340 . S
C360 C364 1.407 1_455 S
C361 C362 1.413 . S
C361 C363 1.416 . S
C361 C390 1.427 . S
C362 C354 1.427 . S
C362 N359 1.361 1_655 S
C362 C361 1.413 . S
C363 H352 0.931 . S
C363 C361 1.416 . S
C363 C364 1.332 . S
C364 H343 0.929 . S
C364 C360 1.407 1_655 S
C364 C363 1.332 . S
H365 C358 0.930 . S
H366 C389 0.930 . S
H367 C390 0.929 . S
O368 Tb324 2.465 . S
O368 C388 1.264 . S
O369 Tb324 2.387 1_655 S
O369 C380 1.264 . S
O370 Tb335 2.349 . S
O370 C380 1.243 . S
O371 Tb324 2.428 . S
O371 C388 1.256 . S
O372 Tb324 2.308 . S
O372 C387 1.266 . S
O373 Tb335 2.393 . S
O373 C387 1.248 1_655 S
O374 Tb335 2.465 . S
O374 C399 1.264 . S
O375 Tb335 2.387 1_455 S
O375 C391 1.264 . S
O376 Tb324 2.349 . S
O376 C391 1.243 . S
O377 Tb335 2.428 . S
O377 C399 1.256 . S
O378 Tb335 2.308 . S
O378 C398 1.266 1_655 S
O379 Tb324 2.393 . S
O379 C398 1.248 . S
C380 O369 1.264 . S
C380 O370 1.243 . S
C381 C384 1.399 . S
C381 C386 1.383 . S
C381 C388 1.496 . S
C382 C383 1.399 . S
C382 C386 1.389 . S
C383 C382 1.399 . S
C383 C385 1.380 . S
C383 H400 0.929 . S
C384 C381 1.399 . S
C384 C385 1.392 . S
C384 H401 0.929 . S
C385 C383 1.380 . S
C385 C384 1.392 . S
C385 H402 0.929 . S
C386 C381 1.383 . S
C386 C382 1.389 . S
C386 H403 0.931 . S
C387 O372 1.266 . S
C387 O373 1.248 1_455 S
C388 Tb324 2.802 . S
C388 O368 1.264 . S
C388 O371 1.256 . S
C388 C381 1.496 . S
C389 C356 1.448 . S
C389 H366 0.930 . S
C389 C390 1.328 . S
C390 C361 1.427 . S
C390 H367 0.929 . S
C390 C389 1.328 . S
C391 O375 1.264 . S
C391 O376 1.243 . S
C392 C395 1.399 . S
C392 C396 1.383 . S
C392 C399 1.496 . S
C393 C394 1.399 . S
C393 C396 1.389 . S
C394 C393 1.399 . S
C394 C397 1.380 . S
C394 H404 0.929 . S
C395 C392 1.399 . S
C395 C397 1.392 . S
C395 H405 0.929 . S
C396 C392 1.383 . S
C396 C393 1.389 . S
C396 H406 0.931 . S
C397 C394 1.380 . S
C397 C395 1.392 . S
C397 H407 0.929 . S
C398 O378 1.266 1_455 S
C398 O379 1.248 . S
C399 Tb335 2.802 . S
C399 O374 1.264 . S
C399 O377 1.256 . S
C399 C392 1.496 . S
H400 C383 0.929 . S
H401 C384 0.929 . S
H402 C385 0.929 . S
H403 C386 0.931 . S
H404 C394 0.929 . S
H405 C395 0.929 . S
H406 C396 0.931 . S
H407 C397 0.929 . S
H408 C420 0.930 1_565 S
H409 C422 0.930 . S
H410 C423 0.930 . S
H411 C427 0.959 . S
H412 C427 0.959 . S
H413 C427 0.961 . S
H414 C428 0.960 . S
H415 C428 0.961 . S
H416 C428 0.959 . S
H417 C431 0.929 . S
H418 C432 0.931 . S
H419 C434 0.930 1_565 S
C420 H408 0.930 1_545 S
C420 C421 1.399 . S
C420 C425 1.399 . S
C421 C420 1.399 . S
C421 C422 1.376 . S
C422 H409 0.930 . S
C422 C421 1.376 . S
C422 C423 1.388 . S
C423 H410 0.930 . S
C423 C422 1.388 . S
C423 C424 1.390 . S
C424 C423 1.390 . S
C424 C425 1.394 . S
C424 C430 1.465 . S
C425 C420 1.399 . S
C425 C424 1.394 . S
C425 C426 1.516 1_545 S
C426 C425 1.516 1_565 S
C426 C427 1.502 . S
C426 C428 1.561 . S
C426 C429 1.526 1_565 S
C427 H411 0.959 . S
C427 H412 0.959 . S
C427 H413 0.961 . S
C427 C426 1.502 . S
C428 H414 0.960 . S
C428 H415 0.961 . S
C428 H416 0.959 . S
C428 C426 1.561 . S
C429 C426 1.526 1_545 S
C429 C430 1.396 . S
C429 C434 1.390 . S
C430 C424 1.465 . S
C430 C429 1.396 . S
C430 C431 1.399 . S
C431 H417 0.929 . S
C431 C430 1.399 . S
C431 C432 1.385 . S
C432 H418 0.931 . S
C432 C431 1.385 . S
C432 C433 1.389 . S
C433 C432 1.389 . S
C433 C434 1.387 . S
C434 H419 0.930 1_545 S
C434 C429 1.390 . S
C434 C433 1.387 . S
H435 C447 0.930 . S
H436 C449 0.930 . S
H437 C450 0.930 . S
H438 C454 0.959 . S
H439 C454 0.959 . S
H440 C454 0.961 . S
H441 C455 0.960 . S
H442 C455 0.961 . S
H443 C455 0.959 . S
H444 C458 0.929 . S
H445 C459 0.931 . S
H446 C461 0.930 . S
C447 H435 0.930 . S
C447 C448 1.399 . S
C447 C452 1.399 . S
C448 C447 1.399 . S
C448 C449 1.376 . S
C449 H436 0.930 . S
C449 C448 1.376 . S
C449 C450 1.388 . S
C450 H437 0.930 . S
C450 C449 1.388 . S
C450 C451 1.390 . S
C451 C450 1.390 . S
C451 C452 1.394 . S
C451 C457 1.465 . S
C452 C447 1.399 . S
C452 C451 1.394 . S
C452 C453 1.516 . S
C453 C452 1.516 . S
C453 C454 1.502 . S
C453 C455 1.561 . S
C453 C456 1.526 . S
C454 H438 0.959 . S
C454 H439 0.959 . S
C454 H440 0.961 . S
C454 C453 1.502 . S
C455 H441 0.960 . S
C455 H442 0.961 . S
C455 H443 0.959 . S
C455 C453 1.561 . S
C456 C453 1.526 . S
C456 C457 1.396 . S
C456 C461 1.390 . S
C457 C451 1.465 . S
C457 C456 1.396 . S
C457 C458 1.399 . S
C458 H444 0.929 . S
C458 C457 1.399 . S
C458 C459 1.385 . S
C459 H445 0.931 . S
C459 C458 1.385 . S
C459 C460 1.389 . S
C460 C459 1.389 . S
C460 C461 1.387 . S
C461 H446 0.930 . S
C461 C456 1.390 . S
C461 C460 1.387 . S
H462 C474 0.930 . S
H463 C476 0.930 . S
H464 C477 0.930 . S
H465 C481 0.959 . S
H466 C481 0.959 . S
H467 C481 0.961 . S
H468 C482 0.960 . S
H469 C482 0.961 . S
H470 C482 0.959 . S
H471 C485 0.929 . S
H472 C486 0.931 . S
H473 C488 0.930 . S
C474 H462 0.930 . S
C474 C475 1.399 . S
C474 C479 1.399 . S
C475 C474 1.399 . S
C475 C476 1.376 . S
C476 H463 0.930 . S
C476 C475 1.376 . S
C476 C477 1.388 . S
C477 H464 0.930 . S
C477 C476 1.388 . S
C477 C478 1.390 . S
C478 C477 1.390 . S
C478 C479 1.394 . S
C478 C484 1.465 . S
C479 C474 1.399 . S
C479 C478 1.394 . S
C479 C480 1.516 . S
C480 C479 1.516 . S
C480 C481 1.502 . S
C480 C482 1.561 . S
C480 C483 1.526 . S
C481 H465 0.959 . S
C481 H466 0.959 . S
C481 H467 0.961 . S
C481 C480 1.502 . S
C482 H468 0.960 . S
C482 H469 0.961 . S
C482 H470 0.959 . S
C482 C480 1.561 . S
C483 C480 1.526 . S
C483 C484 1.396 . S
C483 C488 1.390 . S
C484 C478 1.465 . S
C484 C483 1.396 . S
C484 C485 1.399 . S
C485 H471 0.929 . S
C485 C484 1.399 . S
C485 C486 1.385 . S
C486 H472 0.931 . S
C486 C485 1.385 . S
C486 C487 1.389 . S
C487 C486 1.389 . S
C487 C488 1.387 . S
C488 H473 0.930 . S
C488 C483 1.390 . S
C488 C487 1.387 . S
H489 C501 0.930 . S
H490 C503 0.930 . S
H491 C504 0.930 1_655 S
H492 C508 0.959 . S
H493 C508 0.959 . S
H494 C508 0.961 . S
H495 C509 0.960 . S
H496 C509 0.961 . S
H497 C509 0.959 . S
H498 C512 0.929 . S
H499 C513 0.944 . S
H500 C515 0.930 . S
C501 H489 0.930 . S
C501 C502 1.399 . S
C501 C506 1.399 . S
C502 C501 1.399 . S
C502 C503 1.376 . S
C503 H490 0.930 . S
C503 C502 1.376 . S
C503 C504 1.388 . S
C504 H491 0.930 1_455 S
C504 C503 1.388 . S
C504 C505 1.390 . S
C505 C504 1.390 . S
C505 C506 1.394 . S
C505 C511 1.465 . S
C506 C501 1.399 . S
C506 C505 1.394 . S
C506 C507 1.516 . S
C507 C506 1.516 . S
C507 C508 1.502 . S
C507 C509 1.561 . S
C507 C510 1.526 . S
C508 H492 0.959 . S
C508 H493 0.959 . S
C508 H494 0.961 . S
C508 C507 1.502 . S
C509 H495 0.960 . S
C509 H496 0.961 . S
C509 H497 0.959 . S
C509 C507 1.561 . S
C510 C507 1.526 . S
C510 C511 1.396 . S
C510 C515 1.390 . S
C511 C505 1.465 . S
C511 C510 1.396 . S
C511 C512 1.399 1_455 S
C512 H498 0.929 . S
C512 C511 1.399 1_655 S
C512 C513 1.387 . S
C513 H499 0.944 . S
C513 C512 1.387 . S
C513 C514 1.376 1_655 S
C514 C513 1.376 1_455 S
C514 C515 1.387 . S
C515 H500 0.930 . S
C515 C510 1.390 . S
C515 C514 1.387 . S
H516 C528 0.947 . S
H517 C530 0.930 . S
H518 C531 0.930 . S
H519 C535 0.959 1_556 S
H520 C535 0.959 1_556 S
H521 C535 0.961 . S
H522 C536 0.960 . S
H523 C536 0.961 . S
H524 C536 0.959 . S
H525 C539 0.929 . S
H526 C540 0.931 . S
H527 C542 0.930 . S
C528 H516 0.947 . S
C528 C529 1.384 1_545 S
C528 C533 1.398 1_545 S
C529 C528 1.384 1_565 S
C529 C530 1.376 . S
C530 H517 0.930 . S
C530 C529 1.376 . S
C530 C531 1.388 . S
C531 H518 0.930 . S
C531 C530 1.388 . S
C531 C532 1.390 . S
C532 C531 1.390 . S
C532 C533 1.394 . S
C532 C538 1.476 . S
C533 C528 1.398 1_565 S
C533 C532 1.394 . S
C533 C534 1.516 1_565 S
C534 C533 1.516 1_545 S
C534 C535 1.502 . S
C534 C536 1.561 . S
C534 C537 1.526 1_554 S
C535 H519 0.959 1_554 S
C535 H520 0.959 1_554 S
C535 H521 0.961 . S
C535 C534 1.502 . S
C536 H522 0.960 . S
C536 H523 0.961 . S
C536 H524 0.959 . S
C536 C534 1.561 . S
C537 C534 1.526 1_556 S
C537 C538 1.393 1_546 S
C537 C542 1.390 . S
C538 C532 1.476 . S
C538 C537 1.393 1_564 S
C538 C539 1.392 1_554 S
C539 H525 0.929 . S
C539 C538 1.392 1_556 S
C539 C540 1.385 . S
C540 H526 0.931 . S
C540 C539 1.385 . S
C540 C541 1.389 . S
C541 C540 1.389 . S
C541 C542 1.387 1_565 S
C542 H527 0.930 . S
C542 C537 1.390 . S
C542 C541 1.387 1_545 S
H543 C555 0.930 . S
H544 C557 0.930 . S
H545 C558 0.930 . S
H546 C562 0.959 . S
H547 C562 0.959 . S
H548 C562 0.961 . S
H549 C563 0.960 . S
H550 C563 0.961 . S
H551 C563 0.959 . S
H552 C566 0.929 . S
H553 C567 0.931 . S
H554 C569 0.930 . S
C555 H543 0.930 . S
C555 C556 1.399 . S
C555 C560 1.399 . S
C556 C555 1.399 . S
C556 C557 1.376 . S
C557 H544 0.930 . S
C557 C556 1.376 . S
C557 C558 1.388 . S
C558 H545 0.930 . S
C558 C557 1.388 . S
C558 C559 1.390 . S
C559 C558 1.390 . S
C559 C560 1.394 . S
C559 C565 1.465 1_554 S
C560 C555 1.399 . S
C560 C559 1.394 . S
C560 C561 1.516 . S
C561 C560 1.516 . S
C561 C562 1.502 . S
C561 C563 1.561 . S
C561 C564 1.526 1_554 S
C562 H546 0.959 . S
C562 H547 0.959 . S
C562 H548 0.961 . S
C562 C561 1.502 . S
C563 H549 0.960 . S
C563 H550 0.961 . S
C563 H551 0.959 . S
C563 C561 1.561 . S
C564 C561 1.526 1_556 S
C564 C565 1.396 . S
C564 C569 1.390 . S
C565 C559 1.465 1_556 S
C565 C564 1.396 . S
C565 C566 1.399 . S
C566 H552 0.929 . S
C566 C565 1.399 . S
C566 C567 1.385 . S
C567 H553 0.931 . S
C567 C566 1.385 . S
C567 C568 1.389 . S
C568 C567 1.389 . S
C568 C569 1.387 . S
C569 H554 0.930 . S
C569 C564 1.390 . S
C569 C568 1.387 . S
H570 C582 0.930 . S
H571 C584 0.930 . S
H572 C585 0.930 . S
H573 C589 0.959 . S
H574 C589 0.959 . S
H575 C589 0.961 1_554 S
H576 C590 0.960 . S
H577 C590 0.961 . S
H578 C590 0.959 . S
H579 C593 0.929 . S
H580 C594 0.931 . S
H581 C596 0.930 . S
C582 H570 0.930 . S
C582 C583 1.399 . S
C582 C587 1.399 . S
C583 C582 1.399 . S
C583 C584 1.376 . S
C584 H571 0.930 . S
C584 C583 1.376 . S
C584 C585 1.388 . S
C585 H572 0.930 . S
C585 C584 1.388 . S
C585 C586 1.390 . S
C586 C585 1.390 . S
C586 C587 1.394 . S
C586 C592 1.465 . S
C587 C582 1.399 . S
C587 C586 1.394 . S
C587 C588 1.516 . S
C588 C587 1.516 . S
C588 C589 1.502 1_554 S
C588 C590 1.561 . S
C588 C591 1.526 1_554 S
C589 H573 0.959 . S
C589 H574 0.959 . S
C589 H575 0.961 1_556 S
C589 C588 1.502 1_556 S
C590 H576 0.960 . S
C590 H577 0.961 . S
C590 H578 0.959 . S
C590 C588 1.561 . S
C591 C588 1.526 1_556 S
C591 C592 1.396 1_556 S
C591 C596 1.390 . S
C592 C586 1.465 . S
C592 C591 1.396 1_554 S
C592 C593 1.399 1_554 S
C593 H579 0.929 . S
C593 C592 1.399 1_556 S
C593 C594 1.385 . S
C594 H580 0.931 . S
C594 C593 1.385 . S
C594 C595 1.389 . S
C595 C594 1.389 . S
C595 C596 1.387 . S
C596 H581 0.930 . S
C596 C591 1.390 . S
C596 C595 1.387 . S
H597 C609 0.930 . S
H598 C611 0.930 . S
H599 C612 0.930 . S
H600 C616 0.959 . S
H601 C616 0.959 . S
H602 C616 0.961 . S
H603 C617 0.960 . S
H604 C617 0.961 . S
H605 C617 0.959 . S
H606 C620 0.929 . S
H607 C621 0.931 . S
H608 C623 0.923 1_455 S
C609 H597 0.930 . S
C609 C610 1.399 . S
C609 C614 1.399 . S
C610 C609 1.399 . S
C610 C611 1.376 . S
C611 H598 0.930 . S
C611 C610 1.376 . S
C611 C612 1.388 . S
C612 H599 0.930 . S
C612 C611 1.388 . S
C612 C613 1.390 . S
C613 C612 1.390 . S
C613 C614 1.394 . S
C613 C619 1.465 1_554 S
C614 C609 1.399 . S
C614 C613 1.394 . S
C614 C615 1.516 . S
C615 C614 1.516 . S
C615 C616 1.502 1_655 S
C615 C617 1.561 . S
C615 C618 1.526 1_554 S
C616 H600 0.959 . S
C616 H601 0.959 . S
C616 H602 0.961 . S
C616 C615 1.502 1_455 S
C617 H603 0.960 . S
C617 H604 0.961 . S
C617 H605 0.959 . S
C617 C615 1.561 . S
C618 C615 1.526 1_556 S
C618 C619 1.396 . S
C618 C623 1.393 . S
C619 C613 1.465 1_556 S
C619 C618 1.396 . S
C619 C620 1.399 . S
C620 H606 0.929 . S
C620 C619 1.399 . S
C620 C621 1.385 . S
C621 H607 0.931 . S
C621 C620 1.385 . S
C621 C622 1.389 . S
C622 C621 1.389 . S
C622 C623 1.390 . S
C623 H608 0.923 1_655 S
C623 C618 1.393 . S
C623 C622 1.390 . S
H624 C636 0.930 . S
H625 C638 0.947 . S
H626 C639 0.930 . S
H627 C643 0.959 . S
H628 C643 0.959 . S
H629 C643 0.961 . S
H630 C644 0.960 . S
H631 C644 0.961 . S
H632 C644 0.959 . S
H633 C647 0.929 . S
H634 C648 0.931 . S
H635 C650 0.930 . S
C636 H624 0.930 . S
C636 C637 1.399 . S
C636 C641 1.399 . S
C637 C636 1.399 . S
C637 C638 1.376 . S
C638 H625 0.947 . S
C638 C637 1.376 . S
C638 C639 1.388 1_455 S
C639 H626 0.930 . S
C639 C638 1.388 1_655 S
C639 C640 1.390 1_655 S
C640 C639 1.390 1_455 S
C640 C641 1.394 . S
C640 C646 1.465 1_455 S
C641 C636 1.399 . S
C641 C640 1.394 . S
C641 C642 1.516 . S
C642 C641 1.516 . S
C642 C643 1.502 . S
C642 C644 1.561 . S
C642 C645 1.526 . S
C643 H627 0.959 . S
C643 H628 0.959 . S
C643 H629 0.961 . S
C643 C642 1.502 . S
C644 H630 0.960 . S
C644 H631 0.961 . S
C644 H632 0.959 . S
C644 C642 1.561 . S
C645 C642 1.526 . S
C645 C646 1.396 1_455 S
C645 C650 1.390 . S
C646 C640 1.465 1_655 S
C646 C645 1.396 1_655 S
C646 C647 1.399 . S
C647 H633 0.929 . S
C647 C646 1.399 . S
C647 C648 1.385 . S
C648 H634 0.931 . S
C648 C647 1.385 . S
C648 C649 1.389 . S
C649 C648 1.389 . S
C649 C650 1.387 1_655 S
C650 H635 0.930 . S
C650 C645 1.390 . S
C650 C649 1.387 1_455 S
H651 C663 0.930 . S
H652 C665 0.930 1_565 S
H653 C666 0.930 . S
H654 C670 0.959 . S
H655 C670 0.959 . S
H656 C670 0.961 . S
H657 C671 0.960 . S
H658 C671 0.961 . S
H659 C671 0.959 . S
H660 C674 0.929 . S
H661 C675 0.931 . S
H662 C677 0.930 . S
C663 H651 0.930 . S
C663 C664 1.399 . S
C663 C668 1.399 . S
C664 C663 1.399 . S
C664 C665 1.376 . S
C665 H652 0.930 1_545 S
C665 C664 1.376 . S
C665 C666 1.388 1_545 S
C666 H653 0.930 . S
C666 C665 1.388 1_565 S
C666 C667 1.390 1_565 S
C667 C666 1.390 1_545 S
C667 C668 1.394 . S
C667 C673 1.465 1_545 S
C668 C663 1.399 . S
C668 C667 1.394 . S
C668 C669 1.516 . S
C669 C668 1.516 . S
C669 C670 1.502 . S
C669 C671 1.561 . S
C669 C672 1.526 . S
C670 H654 0.959 . S
C670 H655 0.959 . S
C670 H656 0.961 . S
C670 C669 1.502 . S
C671 H657 0.960 . S
C671 H658 0.961 . S
C671 H659 0.959 . S
C671 C669 1.561 . S
C672 C669 1.526 . S
C672 C673 1.396 1_545 S
C672 C677 1.390 . S
C673 C667 1.465 1_565 S
C673 C672 1.396 1_565 S
C673 C674 1.399 . S
C674 H660 0.929 . S
C674 C673 1.399 . S
C674 C675 1.385 . S
C675 H661 0.931 . S
C675 C674 1.385 . S
C675 C676 1.389 . S
C676 C675 1.389 . S
C676 C677 1.387 1_565 S
C677 H662 0.930 . S
C677 C672 1.390 . S
C677 C676 1.387 1_545 S
H678 C690 0.930 . S
H679 C692 0.930 . S
H680 C693 0.930 . S
H681 C697 0.959 . S
H682 C697 0.959 . S
H683 C697 0.961 . S
H684 C698 0.960 . S
H685 C698 0.961 . S
H686 C698 0.959 . S
H687 C701 0.929 . S
H688 C702 0.931 . S
H689 C704 0.930 . S
C690 H678 0.930 . S
C690 C691 1.399 . S
C690 C695 1.399 . S
C691 C690 1.399 . S
C691 C692 1.376 . S
C692 H679 0.930 . S
C692 C691 1.376 . S
C692 C693 1.388 . S
C693 H680 0.930 . S
C693 C692 1.388 . S
C693 C694 1.390 . S
C694 C693 1.390 . S
C694 C695 1.394 . S
C694 C700 1.465 . S
C695 C690 1.399 . S
C695 C694 1.394 . S
C695 C696 1.516 . S
C696 C695 1.516 . S
C696 C697 1.502 . S
C696 C698 1.561 . S
C696 C699 1.526 . S
C697 H681 0.959 . S
C697 H682 0.959 . S
C697 H683 0.961 . S
C697 C696 1.502 . S
C698 H684 0.960 . S
C698 H685 0.961 . S
C698 H686 0.959 . S
C698 C696 1.561 . S
C699 C696 1.526 . S
C699 C700 1.396 . S
C699 C704 1.390 . S
C700 C694 1.465 . S
C700 C699 1.396 . S
C700 C701 1.399 . S
C701 H687 0.929 . S
C701 C700 1.399 . S
C701 C702 1.385 . S
C702 H688 0.931 . S
C702 C701 1.385 . S
C702 C703 1.389 . S
C703 C702 1.389 . S
C703 C704 1.387 . S
C704 H689 0.930 . S
C704 C699 1.390 . S
C704 C703 1.387 . S
H705 C717 0.930 . S
H706 C719 0.930 . S
H707 C720 0.930 . S
H708 C724 0.959 . S
H709 C724 0.959 . S
H710 C724 0.961 . S
H711 C725 0.960 . S
H712 C725 0.961 . S
H713 C725 0.959 . S
H714 C728 0.929 . S
H715 C729 0.931 . S
H716 C731 0.930 . S
C717 H705 0.930 . S
C717 C718 1.399 . S
C717 C722 1.399 . S
C718 C717 1.399 . S
C718 C719 1.376 . S
C719 H706 0.930 . S
C719 C718 1.376 . S
C719 C720 1.388 . S
C720 H707 0.930 . S
C720 C719 1.388 . S
C720 C721 1.390 . S
C721 C720 1.390 . S
C721 C722 1.394 . S
C721 C727 1.465 . S
C722 C717 1.399 . S
C722 C721 1.394 . S
C722 C723 1.516 . S
C723 C722 1.516 . S
C723 C724 1.502 . S
C723 C725 1.561 . S
C723 C726 1.526 . S
C724 H708 0.959 . S
C724 H709 0.959 . S
C724 H710 0.961 . S
C724 C723 1.502 . S
C725 H711 0.960 . S
C725 H712 0.961 . S
C725 H713 0.959 . S
C725 C723 1.561 . S
C726 C723 1.526 . S
C726 C727 1.396 . S
C726 C731 1.390 . S
C727 C721 1.465 . S
C727 C726 1.396 . S
C727 C728 1.399 . S
C728 H714 0.929 . S
C728 C727 1.399 . S
C728 C729 1.385 . S
C729 H715 0.931 . S
C729 C728 1.385 . S
C729 C730 1.389 . S
C730 C729 1.389 . S
C730 C731 1.387 . S
C731 H716 0.930 . S
C731 C726 1.390 . S
C731 C730 1.387 . S
H732 C744 0.930 . S
H733 C746 0.930 . S
H734 C747 0.930 . S
H735 C751 0.959 . S
H736 C751 0.959 1_556 S
H737 C751 0.961 . S
H738 C752 0.960 . S
H739 C752 0.949 1_455 S
H740 C752 0.959 . S
H741 C755 0.929 . S
H742 C756 0.931 1_655 S
H743 C758 0.930 . S
C744 H732 0.930 . S
C744 C745 1.399 . S
C744 C749 1.399 . S
C745 C744 1.399 . S
C745 C746 1.376 . S
C746 H733 0.930 . S
C746 C745 1.376 . S
C746 C747 1.388 . S
C747 H734 0.930 . S
C747 C746 1.388 . S
C747 C748 1.390 . S
C748 C747 1.390 . S
C748 C749 1.394 . S
C748 C754 1.465 . S
C749 C744 1.399 . S
C749 C748 1.394 . S
C749 C750 1.516 1_655 S
C750 C749 1.516 1_455 S
C750 C751 1.502 . S
C750 C752 1.561 1_454 S
C750 C753 1.526 . S
C751 H735 0.959 . S
C751 H736 0.959 1_554 S
C751 H737 0.961 . S
C751 C750 1.502 . S
C752 H738 0.960 . S
C752 H739 0.949 1_655 S
C752 H740 0.959 . S
C752 C750 1.561 1_656 S
C753 C750 1.526 . S
C753 C754 1.396 1_455 S
C753 C758 1.390 1_554 S
C754 C748 1.465 . S
C754 C753 1.396 1_655 S
C754 C755 1.399 . S
C755 H741 0.929 . S
C755 C754 1.399 . S
C755 C756 1.385 1_655 S
C756 H742 0.931 1_455 S
C756 C755 1.385 1_455 S
C756 C757 1.389 1_554 S
C757 C756 1.389 1_556 S
C757 C758 1.387 . S
C758 H743 0.930 . S
C758 C753 1.390 1_556 S
C758 C757 1.387 . S
H759 C771 0.930 . S
H760 C773 0.930 . S
H761 C774 0.930 . S
H762 C778 0.959 . S
H763 C778 0.959 1_545 S
H764 C778 0.961 . S
H765 C779 0.960 . S
H766 C779 0.961 . S
H767 C779 0.959 . S
H768 C782 0.929 1_565 S
H769 C783 0.931 . S
H770 C785 0.930 . S
C771 H759 0.930 . S
C771 C772 1.399 . S
C771 C776 1.399 . S
C772 C771 1.399 . S
C772 C773 1.376 . S
C773 H760 0.930 . S
C773 C772 1.376 . S
C773 C774 1.388 . S
C774 H761 0.930 . S
C774 C773 1.388 . S
C774 C775 1.390 . S
C775 C774 1.390 . S
C775 C776 1.394 . S
C775 C781 1.465 1_565 S
C776 C771 1.399 . S
C776 C775 1.394 . S
C776 C777 1.516 1_565 S
C777 C776 1.516 1_545 S
C777 C778 1.502 1_545 S
C777 C779 1.561 . S
C777 C780 1.526 . S
C778 H762 0.959 . S
C778 H763 0.959 1_565 S
C778 H764 0.961 . S
C778 C777 1.502 1_565 S
C779 H765 0.960 . S
C779 H766 0.961 . S
C779 H767 0.959 . S
C779 C777 1.561 . S
C780 C777 1.526 . S
C780 C781 1.396 . S
C780 C785 1.390 . S
C781 C775 1.465 1_545 S
C781 C780 1.396 . S
C781 C782 1.399 1_554 S
C782 H768 0.929 1_545 S
C782 C781 1.399 1_556 S
C782 C783 1.385 . S
C783 H769 0.931 . S
C783 C782 1.385 . S
C783 C784 1.389 . S
C784 C783 1.389 . S
C784 C785 1.387 1_556 S
C785 H770 0.930 . S
C785 C780 1.390 . S
C785 C784 1.387 1_554 S
H786 C798 0.930 . S
H787 C800 0.930 . S
H788 C801 0.930 . S
H789 C805 0.959 . S
H790 C805 0.959 . S
H791 C805 0.961 . S
H792 C806 0.960 . S
H793 C806 0.961 . S
H794 C806 0.959 . S
H795 C809 0.929 . S
H796 C810 0.931 . S
H797 C812 0.930 . S
C798 H786 0.930 . S
C798 C799 1.399 . S
C798 C803 1.399 . S
C799 C798 1.399 . S
C799 C800 1.376 . S
C800 H787 0.930 . S
C800 C799 1.376 . S
C800 C801 1.388 . S
C801 H788 0.930 . S
C801 C800 1.388 . S
C801 C802 1.390 . S
C802 C801 1.390 . S
C802 C803 1.394 . S
C802 C808 1.465 . S
C803 C798 1.399 . S
C803 C802 1.394 . S
C803 C804 1.516 . S
C804 C803 1.516 . S
C804 C805 1.502 . S
C804 C806 1.561 . S
C804 C807 1.526 . S
C805 H789 0.959 . S
C805 H790 0.959 . S
C805 H791 0.961 . S
C805 C804 1.502 . S
C806 H792 0.960 . S
C806 H793 0.961 . S
C806 H794 0.959 . S
C806 C804 1.561 . S
C807 C804 1.526 . S
C807 C808 1.396 . S
C807 C812 1.390 . S
C808 C802 1.465 . S
C808 C807 1.396 . S
C808 C809 1.399 1_554 S
C809 H795 0.929 . S
C809 C808 1.399 1_556 S
C809 C810 1.385 . S
C810 H796 0.931 . S
C810 C809 1.385 . S
C810 C811 1.389 . S
C811 C810 1.389 . S
C811 C812 1.387 1_556 S
C812 H797 0.930 . S
C812 C807 1.390 . S
C812 C811 1.387 1_554 S
H813 C825 0.930 . S
H814 C827 0.930 . S
H815 C828 0.930 . S
H816 C832 0.959 1_556 S
H817 C832 0.959 1_556 S
H818 C832 0.961 . S
H819 C833 0.960 . S
H820 C833 0.961 . S
H821 C833 0.959 . S
H822 C836 0.929 . S
H823 C837 0.931 . S
H824 C839 0.930 . S
C825 H813 0.930 . S
C825 C826 1.399 . S
C825 C830 1.399 . S
C826 C825 1.399 . S
C826 C827 1.376 . S
C827 H814 0.930 . S
C827 C826 1.376 . S
C827 C828 1.388 . S
C828 H815 0.930 . S
C828 C827 1.388 . S
C828 C829 1.390 . S
C829 C828 1.390 . S
C829 C830 1.394 . S
C829 C835 1.465 . S
C830 C825 1.399 . S
C830 C829 1.394 . S
C830 C831 1.516 . S
C831 C830 1.516 . S
C831 C832 1.502 . S
C831 C833 1.561 . S
C831 C834 1.526 . S
C832 H816 0.959 1_554 S
C832 H817 0.959 1_554 S
C832 H818 0.961 . S
C832 C831 1.502 . S
C833 H819 0.960 . S
C833 H820 0.961 . S
C833 H821 0.959 . S
C833 C831 1.561 . S
C834 C831 1.526 . S
C834 C835 1.396 . S
C834 C839 1.390 1_554 S
C835 C829 1.465 . S
C835 C834 1.396 . S
C835 C836 1.399 . S
C836 H822 0.929 . S
C836 C835 1.399 . S
C836 C837 1.385 . S
C837 H823 0.931 . S
C837 C836 1.385 . S
C837 C838 1.389 1_554 S
C838 C837 1.389 1_556 S
C838 C839 1.387 . S
C839 H824 0.930 . S
C839 C834 1.390 1_556 S
C839 C838 1.387 . S
H840 C852 0.930 . S
H841 C854 0.930 1_554 S
H842 C855 0.926 1_554 S
H843 C859 0.959 . S
H844 C859 0.959 . S
H845 C859 0.961 . S
H846 C860 0.960 . S
H847 C860 0.961 . S
H848 C860 0.959 . S
H849 C863 0.929 . S
H850 C864 0.931 . S
H851 C866 0.930 . S
C852 H840 0.930 . S
C852 C853 1.399 . S
C852 C857 1.399 . S
C853 C852 1.399 . S
C853 C854 1.376 . S
C854 H841 0.930 1_556 S
C854 C853 1.376 . S
C854 C855 1.388 . S
C855 H842 0.926 1_556 S
C855 C854 1.388 . S
C855 C856 1.390 . S
C856 C855 1.390 . S
C856 C857 1.394 . S
C856 C862 1.465 . S
C857 C852 1.399 . S
C857 C856 1.394 . S
C857 C858 1.516 . S
C858 C857 1.516 . S
C858 C859 1.502 1_455 S
C858 C860 1.561 . S
C858 C861 1.526 . S
C859 H843 0.959 . S
C859 H844 0.959 . S
C859 H845 0.961 . S
C859 C858 1.502 1_655 S
C860 H846 0.960 . S
C860 H847 0.961 . S
C860 H848 0.959 . S
C860 C858 1.561 . S
C861 C858 1.526 . S
C861 C862 1.396 . S
C861 C866 1.390 . S
C862 C856 1.465 . S
C862 C861 1.396 . S
C862 C863 1.399 . S
C863 H849 0.929 . S
C863 C862 1.399 . S
C863 C864 1.385 . S
C864 H850 0.931 . S
C864 C863 1.385 . S
C864 C865 1.389 . S
C865 C864 1.389 . S
C865 C866 1.387 . S
C866 H851 0.930 . S
C866 C861 1.390 . S
C866 C865 1.387 . S
H867 C879 0.930 . S
H868 C881 0.930 1_565 S
H869 C882 0.930 1_565 S
H870 C886 0.959 . S
H871 C886 0.959 . S
H872 C886 0.961 . S
H873 C887 0.960 . S
H874 C887 0.961 . S
H875 C887 0.959 . S
H876 C890 0.929 . S
H877 C891 0.931 . S
H878 C893 0.930 . S
C879 H867 0.930 . S
C879 C880 1.399 . S
C879 C884 1.399 . S
C880 C879 1.399 . S
C880 C881 1.376 . S
C881 H868 0.930 1_545 S
C881 C880 1.376 . S
C881 C882 1.388 . S
C882 H869 0.930 1_545 S
C882 C881 1.388 . S
C882 C883 1.390 . S
C883 C882 1.390 . S
C883 C884 1.394 . S
C883 C889 1.465 . S
C884 C879 1.399 . S
C884 C883 1.394 . S
C884 C885 1.516 . S
C885 C884 1.516 . S
C885 C886 1.502 . S
C885 C887 1.561 . S
C885 C888 1.526 . S
C886 H870 0.959 . S
C886 H871 0.959 . S
C886 H872 0.961 . S
C886 C885 1.502 . S
C887 H873 0.960 . S
C887 H874 0.961 . S
C887 H875 0.959 . S
C887 C885 1.561 . S
C888 C885 1.526 . S
C888 C889 1.396 . S
C888 C893 1.390 . S
C889 C883 1.465 . S
C889 C888 1.396 . S
C889 C890 1.399 1_545 S
C890 H876 0.929 . S
C890 C889 1.399 1_565 S
C890 C891 1.385 . S
C891 H877 0.931 . S
C891 C890 1.385 . S
C891 C892 1.389 1_565 S
C892 C891 1.389 1_545 S
C892 C893 1.387 . S
C893 H878 0.930 . S
C893 C888 1.390 . S
C893 C892 1.387 . S
H894 C906 0.930 . S
H895 C908 0.930 . S
H896 C909 0.930 . S
H897 C913 0.959 . S
H898 C913 0.959 . S
H899 C913 0.961 . S
H900 C914 0.960 . S
H901 C914 0.961 . S
H902 C914 0.959 . S
H903 C917 0.929 . S
H904 C918 0.931 . S
H905 C920 0.930 . S
C906 H894 0.930 . S
C906 C907 1.399 . S
C906 C911 1.399 . S
C907 C906 1.399 . S
C907 C908 1.376 . S
C908 H895 0.930 . S
C908 C907 1.376 . S
C908 C909 1.388 . S
C909 H896 0.930 . S
C909 C908 1.388 . S
C909 C910 1.390 . S
C910 C909 1.390 . S
C910 C911 1.394 . S
C910 C916 1.465 . S
C911 C906 1.399 . S
C911 C910 1.394 . S
C911 C912 1.516 . S
C912 C911 1.516 . S
C912 C913 1.502 . S
C912 C914 1.561 . S
C912 C915 1.526 . S
C913 H897 0.959 . S
C913 H898 0.959 . S
C913 H899 0.961 . S
C913 C912 1.502 . S
C914 H900 0.960 . S
C914 H901 0.961 . S
C914 H902 0.959 . S
C914 C912 1.561 . S
C915 C912 1.526 . S
C915 C916 1.396 . S
C915 C920 1.390 . S
C916 C910 1.465 . S
C916 C915 1.396 . S
C916 C917 1.399 . S
C917 H903 0.929 . S
C917 C916 1.399 . S
C917 C918 1.385 . S
C918 H904 0.931 . S
C918 C917 1.385 . S
C918 C919 1.389 . S
C919 C918 1.389 . S
C919 C920 1.387 . S
C920 H905 0.930 . S
C920 C915 1.390 . S
C920 C919 1.387 . S
H921 C933 0.930 . S
H922 C935 0.930 1_554 S
H923 C936 0.930 1_554 S
H924 C940 0.959 . S
H925 C940 0.959 . S
H926 C940 0.961 . S
H927 C941 0.960 . S
H928 C941 0.961 . S
H929 C941 0.959 . S
H930 C944 0.929 . S
H931 C945 0.931 . S
H932 C947 0.930 . S
C933 H921 0.930 . S
C933 C934 1.399 . S
C933 C938 1.399 . S
C934 C933 1.399 . S
C934 C935 1.376 . S
C935 H922 0.930 1_556 S
C935 C934 1.376 . S
C935 C936 1.388 . S
C936 H923 0.930 1_556 S
C936 C935 1.388 . S
C936 C937 1.390 . S
C937 C936 1.390 . S
C937 C938 1.394 . S
C937 C943 1.465 . S
C938 C933 1.399 . S
C938 C937 1.394 . S
C938 C939 1.516 . S
C939 C938 1.516 . S
C939 C940 1.502 . S
C939 C941 1.561 . S
C939 C942 1.526 . S
C940 H924 0.959 . S
C940 H925 0.959 . S
C940 H926 0.961 . S
C940 C939 1.502 . S
C941 H927 0.960 . S
C941 H928 0.961 . S
C941 H929 0.959 . S
C941 C939 1.561 . S
C942 C939 1.526 . S
C942 C943 1.396 . S
C942 C947 1.390 . S
C943 C937 1.465 . S
C943 C942 1.396 . S
C943 C944 1.399 . S
C944 H930 0.929 . S
C944 C943 1.399 . S
C944 C945 1.385 . S
C945 H931 0.931 . S
C945 C944 1.385 . S
C945 C946 1.389 . S
C946 C945 1.389 . S
C946 C947 1.387 . S
C947 H932 0.930 . S
C947 C942 1.390 . S
C947 C946 1.387 . S
H948 C960 0.930 1_455 S
H949 C962 0.930 . S
H950 C963 0.930 . S
H951 C967 0.959 . S
H952 C967 0.959 . S
H953 C967 0.961 . S
H954 C968 0.960 . S
H955 C968 0.961 . S
H956 C968 0.959 1_655 S
H957 C971 0.929 . S
H958 C972 0.931 . S
H959 C974 0.930 . S
C960 H948 0.930 1_655 S
C960 C961 1.399 . S
C960 C965 1.399 . S
C961 C960 1.399 . S
C961 C962 1.376 . S
C962 H949 0.930 . S
C962 C961 1.376 . S
C962 C963 1.388 . S
C963 H950 0.930 . S
C963 C962 1.388 . S
C963 C964 1.390 . S
C964 C963 1.390 . S
C964 C965 1.394 . S
C964 C970 1.465 . S
C965 C960 1.399 . S
C965 C964 1.394 . S
C965 C966 1.516 1_655 S
C966 C965 1.516 1_455 S
C966 C967 1.502 . S
C966 C968 1.561 . S
C966 C969 1.526 1_455 S
C967 H951 0.959 . S
C967 H952 0.959 . S
C967 H953 0.961 . S
C967 C966 1.502 . S
C968 H954 0.960 . S
C968 H955 0.961 . S
C968 H956 0.959 1_455 S
C968 C966 1.561 . S
C969 C966 1.526 1_655 S
C969 C970 1.396 . S
C969 C974 1.390 1_655 S
C970 C964 1.465 . S
C970 C969 1.396 . S
C970 C971 1.399 . S
C971 H957 0.929 . S
C971 C970 1.399 . S
C971 C972 1.385 . S
C972 H958 0.931 . S
C972 C971 1.385 . S
C972 C973 1.389 . S
C973 C972 1.389 . S
C973 C974 1.387 1_655 S
C974 H959 0.930 . S
C974 C969 1.390 1_455 S
C974 C973 1.387 1_455 S
H975 C987 0.930 1_545 S
H976 C989 0.930 . S
H977 C990 0.930 . S
H978 C994 0.959 1_565 S
H979 C994 0.959 . S
H980 C994 0.961 . S
H981 C995 0.960 . S
H982 C995 0.961 . S
H983 C995 0.959 . S
H984 C998 0.929 . S
H985 C999 0.931 . S
H986 C1001 0.930 . S
C987 H975 0.930 1_565 S
C987 C988 1.399 . S
C987 C992 1.399 . S
C988 C987 1.399 . S
C988 C989 1.376 . S
C989 H976 0.930 . S
C989 C988 1.376 . S
C989 C990 1.388 . S
C990 H977 0.930 . S
C990 C989 1.388 . S
C990 C991 1.390 . S
C991 C990 1.390 . S
C991 C992 1.394 . S
C991 C997 1.465 . S
C992 C987 1.399 . S
C992 C991 1.394 . S
C992 C993 1.516 1_565 S
C993 C992 1.516 1_545 S
C993 C994 1.502 . S
C993 C995 1.561 . S
C993 C996 1.526 1_545 S
C994 H978 0.959 1_545 S
C994 H979 0.959 . S
C994 H980 0.961 . S
C994 C993 1.502 . S
C995 H981 0.960 . S
C995 H982 0.961 . S
C995 H983 0.959 . S
C995 C993 1.561 . S
C996 C993 1.526 1_565 S
C996 C997 1.396 . S
C996 C1001 1.390 1_565 S
C997 C991 1.465 . S
C997 C996 1.396 . S
C997 C998 1.399 . S
C998 H984 0.929 . S
C998 C997 1.399 . S
C998 C999 1.385 . S
C999 H985 0.931 . S
C999 C998 1.385 . S
C999 C1000 1.389 . S
C1000 C999 1.389 . S
C1000 C1001 1.387 1_565 S
C1001 H986 0.930 . S
C1001 C996 1.390 1_545 S
C1001 C1000 1.387 1_545 S
H1002 C1014 0.930 . S
H1003 C1016 0.930 . S
H1004 C1017 0.930 . S
H1005 C1021 0.959 . S
H1006 C1021 0.959 . S
H1007 C1021 0.961 . S
H1008 C1022 0.960 . S
H1009 C1022 0.961 . S
H1010 C1022 0.959 . S
H1011 C1025 0.929 . S
H1012 C1026 0.931 . S
H1013 C1028 0.930 . S
C1014 H1002 0.930 . S
C1014 C1015 1.399 . S
C1014 C1019 1.399 . S
C1015 C1014 1.399 . S
C1015 C1016 1.376 . S
C1016 H1003 0.930 . S
C1016 C1015 1.376 . S
C1016 C1017 1.388 . S
C1017 H1004 0.930 . S
C1017 C1016 1.388 . S
C1017 C1018 1.390 . S
C1018 C1017 1.390 . S
C1018 C1019 1.394 . S
C1018 C1024 1.465 . S
C1019 C1014 1.399 . S
C1019 C1018 1.394 . S
C1019 C1020 1.516 . S
C1020 C1019 1.516 . S
C1020 C1021 1.502 . S
C1020 C1022 1.561 . S
C1020 C1023 1.526 . S
C1021 H1005 0.959 . S
C1021 H1006 0.959 . S
C1021 H1007 0.961 . S
C1021 C1020 1.502 . S
C1022 H1008 0.960 . S
C1022 H1009 0.961 . S
C1022 H1010 0.959 . S
C1022 C1020 1.561 . S
C1023 C1020 1.526 . S
C1023 C1024 1.396 . S
C1023 C1028 1.390 . S
C1024 C1018 1.465 . S
C1024 C1023 1.396 . S
C1024 C1025 1.399 . S
C1025 H1011 0.929 . S
C1025 C1024 1.399 . S
C1025 C1026 1.385 . S
C1026 H1012 0.931 . S
C1026 C1025 1.385 . S
C1026 C1027 1.389 . S
C1027 C1026 1.389 . S
C1027 C1028 1.387 . S
C1028 H1013 0.930 . S
C1028 C1023 1.390 . S
C1028 C1027 1.387 . S
H1029 C1041 0.930 . S
H1030 C1043 0.930 . S
H1031 C1044 0.930 . S
H1032 C1048 0.959 . S
H1033 C1048 0.959 . S
H1034 C1048 0.961 . S
H1035 C1049 0.960 . S
H1036 C1049 0.961 . S
H1037 C1049 0.959 . S
H1038 C1052 0.929 . S
H1039 C1053 0.931 . S
H1040 C1055 0.930 . S
C1041 H1029 0.930 . S
C1041 C1042 1.399 . S
C1041 C1046 1.399 . S
C1042 C1041 1.399 . S
C1042 C1043 1.376 . S
C1043 H1030 0.930 . S
C1043 C1042 1.376 . S
C1043 C1044 1.388 . S
C1044 H1031 0.930 . S
C1044 C1043 1.388 . S
C1044 C1045 1.390 . S
C1045 C1044 1.390 . S
C1045 C1046 1.394 . S
C1045 C1051 1.465 . S
C1046 C1041 1.399 . S
C1046 C1045 1.394 . S
C1046 C1047 1.516 . S
C1047 C1046 1.516 . S
C1047 C1048 1.502 . S
C1047 C1049 1.561 . S
C1047 C1050 1.526 . S
C1048 H1032 0.959 . S
C1048 H1033 0.959 . S
C1048 H1034 0.961 . S
C1048 C1047 1.502 . S
C1049 H1035 0.960 . S
C1049 H1036 0.961 . S
C1049 H1037 0.959 . S
C1049 C1047 1.561 . S
C1050 C1047 1.526 . S
C1050 C1051 1.396 . S
C1050 C1055 1.390 . S
C1051 C1045 1.465 . S
C1051 C1050 1.396 . S
C1051 C1052 1.399 . S
C1052 H1038 0.929 . S
C1052 C1051 1.399 . S
C1052 C1053 1.385 . S
C1053 H1039 0.931 . S
C1053 C1052 1.385 . S
C1053 C1054 1.389 . S
C1054 C1053 1.389 . S
C1054 C1055 1.387 . S
C1055 H1040 0.930 . S
C1055 C1050 1.390 . S
C1055 C1054 1.387 . S
C421 C61 1.818 . S
C433 C135 1.991 . S
C460 C212 1.991 . S
C448 C70 1.828 . S
C487 C303 1.946 . S
C475 C43 1.867 . S
C514 C387 1.956 . S
C502 C52 1.805 . S
C541 C146 1.984 1_565 S
C529 C25 1.876 . S
C556 C34 1.831 . S
C568 C223 1.997 . S
C583 C7 1.877 . S
C595 C314 1.974 . S
C610 C16 1.810 . S
C622 C398 1.976 1_655 S
C649 C130 0.431 . S
C637 C50 0.487 . S
C676 C225 0.594 . S
C664 C59 0.433 . S
C703 C298 0.561 . S
C691 C67 0.578 . S
C718 C41 0.571 . S
C730 C382 0.598 . S
C745 C14 0.540 . S
C757 C141 0.622 . S
C784 C214 0.698 1_556 S
C772 C23 0.497 . S
C811 C309 0.551 . S
C799 C31 0.558 . S
C826 C5 0.425 . S
C838 C393 0.461 . S
C853 C49 1.858 . S
C865 C139 2.111 . S
C880 C58 1.848 . S
C892 C230 2.077 . S
C919 C307 2.118 . S
C907 C68 1.911 . S
C946 C391 2.129 . S
C934 C40 1.864 . S
C961 C13 1.896 . S
C973 C128 2.099 . S
C1000 C219 2.088 . S
C988 C22 1.846 . S
C1027 C296 2.121 . S
C1015 C32 1.875 . S
C1042 C4 1.886 . S
C1054 C380 2.124 . S
