# Generated by pormake.
# Topology anh, (6,3)-cn, num edge types: 1
# Building blocks:
#     Node 0, Type 0, BuildingBlock: BETFAJ_clean_sbu_0, # of connection points: 6
#     Node 1, Type 0, BuildingBlock: BETFAJ_clean_sbu_0, # of connection points: 6
#     Node 2, Type 0, BuildingBlock: BETFAJ_clean_sbu_0, # of connection points: 6
#     Node 3, Type 1, BuildingBlock: PAMTOO_clean_linker_0, # of connection points: 3
#     Node 4, Type 1, BuildingBlock: PAMTOO_clean_linker_0, # of connection points: 3
#     Node 5, Type 1, BuildingBlock: PAMTOO_clean_linker_0, # of connection points: 3
#     Node 6, Type 1, BuildingBlock: PAMTOO_clean_linker_0, # of connection points: 3
#     Node 7, Type 1, BuildingBlock: PAMTOO_clean_linker_0, # of connection points: 3
#     Node 8, Type 1, BuildingBlock: PAMTOO_clean_linker_0, # of connection points: 3
#     Edge 9, Type (0, 1), BuildingBlock: ZUJKAS_clean_linker_0, # of connection points: 2
#     Edge 10, Type (0, 1), BuildingBlock: ZUJKAS_clean_linker_0, # of connection points: 2
#     Edge 11, Type (0, 1), BuildingBlock: ZUJKAS_clean_linker_0, # of connection points: 2
#     Edge 12, Type (0, 1), BuildingBlock: ZUJKAS_clean_linker_0, # of connection points: 2
#     Edge 13, Type (0, 1), BuildingBlock: ZUJKAS_clean_linker_0, # of connection points: 2
#     Edge 14, Type (0, 1), BuildingBlock: ZUJKAS_clean_linker_0, # of connection points: 2
#     Edge 15, Type (0, 1), BuildingBlock: ZUJKAS_clean_linker_0, # of connection points: 2
#     Edge 16, Type (0, 1), BuildingBlock: ZUJKAS_clean_linker_0, # of connection points: 2
#     Edge 17, Type (0, 1), BuildingBlock: ZUJKAS_clean_linker_0, # of connection points: 2
#     Edge 18, Type (0, 1), BuildingBlock: ZUJKAS_clean_linker_0, # of connection points: 2
#     Edge 19, Type (0, 1), BuildingBlock: ZUJKAS_clean_linker_0, # of connection points: 2
#     Edge 20, Type (0, 1), BuildingBlock: ZUJKAS_clean_linker_0, # of connection points: 2
#     Edge 21, Type (0, 1), BuildingBlock: ZUJKAS_clean_linker_0, # of connection points: 2
#     Edge 22, Type (0, 1), BuildingBlock: ZUJKAS_clean_linker_0, # of connection points: 2
#     Edge 23, Type (0, 1), BuildingBlock: ZUJKAS_clean_linker_0, # of connection points: 2
#     Edge 24, Type (0, 1), BuildingBlock: ZUJKAS_clean_linker_0, # of connection points: 2
#     Edge 25, Type (0, 1), BuildingBlock: ZUJKAS_clean_linker_0, # of connection points: 2
#     Edge 26, Type (0, 1), BuildingBlock: ZUJKAS_clean_linker_0, # of connection points: 2
# Relax obj value: 0.134
# Max RMSD: 0.168
# Mean RMSD: 0.121
data_MOF--net-anh--node1-BETFAJ_clean_sbu_0--node2-PAMTOO_clean_linker_0--edge1-ZUJKAS_clean_linker_0
_symmetry_space_group_name_H-M    P1
_symmetry_Int_Tables_number       1
_symmetry_cell_setting            triclinic
loop_
_symmetry_equiv_pos_as_xyz
'x, y, z'
_cell_length_a     39.963312
_cell_length_b     46.803501
_cell_length_c     63.998194
_cell_angle_alpha  87.859955
_cell_angle_beta   91.952554
_cell_angle_gamma 127.98552
loop_
_atom_site_label
_atom_site_type_symbol
_atom_site_fract_x
_atom_site_fract_y
_atom_site_fract_z
_atom_type_partial_charge
Sm0 Sm 0.19194 0.57039 0.15074 0.0
Sm1 Sm 0.13719 0.59547 0.16626 0.0
C2 C 0.23767 0.55533 0.13269 0.0
C3 C 0.23699 0.52366 0.13348 0.0
C4 C 0.26691 0.52413 0.12242 0.0
C5 C 0.26637 0.49397 0.12327 0.0
C6 C 0.23583 0.4629 0.1352 0.0
C7 C 0.20573 0.46259 0.14619 0.0
C8 C 0.2063 0.49275 0.14531 0.0
C9 C 0.17812 0.56568 0.19279 0.0
C10 C 0.23756 0.65814 0.15599 0.0
C11 C 0.09269 0.60485 0.19035 0.0
C12 C 1.04698 0.58651 0.191 0.0
C13 C 1.02812 0.58458 0.20961 0.0
C14 C 0.98386 0.56295 0.21092 0.0
C15 C 0.958 0.54276 0.19365 0.0
C16 C 0.9773 0.54567 0.17488 0.0
C17 C 1.02133 0.56716 0.17361 0.0
C18 C 0.13255 0.58873 0.12311 0.0
C19 C 0.0901 0.50851 0.15768 0.0
O20 O 0.2495 0.57344 0.15006 0.0
O21 O 0.20447 0.55019 0.1237 0.0
O22 O 0.18601 0.59081 0.18057 0.0
O23 O 0.17976 0.54263 0.18315 0.0
O24 O 0.23856 0.63327 0.14734 0.0
O25 O 0.20394 0.64994 0.16586 0.0
O26 O 0.10322 0.58401 0.19573 0.0
O27 O 0.11252 0.62529 0.1737 0.0
O28 O 0.15222 0.58373 0.13641 0.0
O29 O 0.11251 0.59791 0.13285 0.0
O30 O 0.08974 0.53287 0.16737 0.0
O31 O 0.12399 0.51698 0.14796 0.0
H32 H 0.29081 0.54785 0.11325 0.0
H33 H 0.29039 0.49527 0.11489 0.0
H34 H 0.1816 0.43897 0.15534 0.0
H35 H 0.18283 0.49199 0.15388 0.0
H36 H 1.04754 0.59891 0.22328 0.0
H37 H 0.96988 0.56107 0.22561 0.0
H38 H 0.95832 0.53102 0.16119 0.0
H39 H 1.03533 0.56791 0.15919 0.0
Sm40 Sm 0.65845 0.04534 0.48595 0.0
Sm41 Sm 0.60335 0.07186 0.47055 0.0
C42 C 0.68965 0.01921 0.50968 0.0
C43 C 0.68836 0.98715 0.50993 0.0
C44 C 0.69588 0.97554 0.52872 0.0
C45 C 0.69331 0.94436 0.52939 0.0
C46 C 0.68322 0.92428 0.51123 0.0
C47 C 0.67603 0.93622 0.49235 0.0
C48 C 0.67837 0.96733 0.49172 0.0
C49 C 0.64886 0.04304 0.44276 0.0
C50 C 0.55679 0.98581 0.47309 0.0
C51 C 0.57359 0.10432 0.45303 0.0
C52 C 0.57602 0.1361 0.45827 0.0
C53 C 0.5959 0.16634 0.44458 0.0
C54 C 0.60013 0.19722 0.44981 0.0
C55 C 0.58421 0.19833 0.46878 0.0
C56 C 0.56387 0.16787 0.48234 0.0
C57 C 0.55992 0.13716 0.47719 0.0
C58 C 0.60678 0.06126 0.51291 0.0
C59 C 0.70806 0.1328 0.47899 0.0
O60 O 0.6536 0.01295 0.51355 0.0
O61 O 0.71094 0.04303 0.49446 0.0
O62 O 0.6341 0.05157 0.45591 0.0
O63 O 0.67066 0.03452 0.45267 0.0
O64 O 0.58834 0.99342 0.48565 0.0
O65 O 0.55857 0.01144 0.46228 0.0
O66 O 0.60903 0.11111 0.44725 0.0
O67 O 0.55109 0.07566 0.46538 0.0
O68 O 0.63675 0.07451 0.50034 0.0
O69 O 0.57413 0.05597 0.50353 0.0
O70 O 0.67205 0.12548 0.47176 0.0
O71 O 0.71048 0.10733 0.48656 0.0
H72 H 0.70349 0.99048 0.54292 0.0
H73 H 0.69947 0.93608 0.54411 0.0
H74 H 0.66772 0.92111 0.47816 0.0
H75 H 0.67203 0.97572 0.4771 0.0
H76 H 0.60854 0.16621 0.42991 0.0
H77 H 0.61561 0.22014 0.43895 0.0
H78 H 0.55177 0.16805 0.49718 0.0
H79 H 0.5447 0.11447 0.4882 0.0
Sm80 Sm 0.64985 0.5642 0.8488 0.0
Sm81 Sm 0.58763 0.47763 0.85046 0.0
C82 C 0.69124 0.63429 0.84065 0.0
C83 C 0.68291 0.66043 0.83596 0.0
C84 C 0.64566 0.65017 0.82548 0.0
C85 C 0.63885 0.6758 0.82111 0.0
C86 C 0.66899 0.71197 0.82732 0.0
C87 C 0.70598 0.72189 0.838 0.0
C88 C 0.71285 0.69636 0.84224 0.0
C89 C 0.63324 0.53094 0.88738 0.0
C90 C 0.5436 0.51954 0.84915 0.0
C91 C 0.54693 0.41003 0.86397 0.0
C92 C 0.54723 0.37996 0.8583 0.0
C93 C 0.54392 0.3566 0.87394 0.0
C94 C 0.54697 0.32942 0.86893 0.0
C95 C 0.55336 0.32506 0.84814 0.0
C96 C 0.5562 0.34839 0.83249 0.0
C97 C 0.5534 0.37566 0.83753 0.0
C98 C 0.60984 0.50148 0.80951 0.0
C99 C 0.69409 0.5235 0.84906 0.0
O100 O 0.6806 0.61072 0.82627 0.0
O101 O 0.68269 0.62034 0.85961 0.0
O102 O 0.60687 0.52124 0.87265 0.0
O103 O 0.67046 0.56046 0.88241 0.0
O104 O 0.58247 0.5508 0.84657 0.0
O105 O 0.5376 0.4883 0.852 0.0
O106 O 0.58194 0.43752 0.87285 0.0
O107 O 0.53066 0.4199 0.85009 0.0
O108 O 0.62163 0.52059 0.82546 0.0
O109 O 0.58457 0.46747 0.81505 0.0
O110 O 0.65594 0.49304 0.854 0.0
O111 O 0.69927 0.55387 0.8441 0.0
H112 H 0.62194 0.62244 0.82067 0.0
H113 H 0.60985 0.66725 0.81305 0.0
H114 H 0.73003 0.74959 0.84277 0.0
H115 H 0.74175 0.70474 0.85036 0.0
H116 H 0.53971 0.35978 0.8901 0.0
H117 H 0.54527 0.31236 0.88145 0.0
H118 H 0.56048 0.34556 0.81629 0.0
H119 H 0.55647 0.3936 0.82519 0.0
H120 H 0.72939 0.1542 0.22329 0.0
H121 H 0.62446 0.04281 0.21109 0.0
H122 H 0.69662 0.11612 0.16006 0.0
H123 H 0.60027 0.05291 0.14753 0.0
C124 C 0.59468 0.03911 0.16299 0.0
O125 O 0.6331 0.04881 0.17075 0.0
H126 H 0.58127 0.04809 0.17353 0.0
C127 C 0.70885 0.13272 0.21233 0.0
C128 C 0.71694 0.13988 0.19077 0.0
C129 C 0.6757 0.09786 0.21995 0.0
C130 C 0.65046 0.06982 0.20565 0.0
C131 C 0.65787 0.07641 0.18416 0.0
C132 C 0.69116 0.11132 0.17672 0.0
H133 H 0.66296 0.62861 0.58898 0.0
H134 H 0.65155 0.53153 0.58317 0.0
H135 H 0.65195 0.58688 0.52819 0.0
H136 H 0.59343 0.50769 0.52515 0.0
C137 C 0.60841 0.50048 0.53692 0.0
O138 O 0.64789 0.53165 0.54241 0.0
H139 H 0.58767 0.48796 0.55086 0.0
C140 C 0.65929 0.60826 0.57936 0.0
C141 C 0.65717 0.61114 0.55749 0.0
C142 C 0.65715 0.57966 0.58895 0.0
C143 C 0.65399 0.55421 0.57624 0.0
C144 C 0.65227 0.55697 0.55441 0.0
C145 C 0.6541 0.58546 0.54507 0.0
H146 H 1.04928 0.53209 0.90004 0.0
H147 H 0.16169 0.53935 0.89748 0.0
H148 H 0.09015 0.52253 0.84095 0.0
H149 H 0.13771 0.48199 0.84573 0.0
C150 C 0.16038 0.501 0.85795 0.0
O151 O 0.15954 0.53054 0.85763 0.0
H152 H 0.14852 0.48615 0.87323 0.0
C153 C 0.07116 0.53126 0.89103 0.0
C154 C 0.06473 0.52674 0.86934 0.0
C155 C 0.10572 0.53579 0.90128 0.0
C156 C 0.13497 0.53589 0.88963 0.0
C157 C 0.12966 0.53037 0.868 0.0
C158 C 0.09435 0.52613 0.85769 0.0
H159 H 0.07176 0.48358 0.41271 0.0
H160 H 0.18045 0.59419 0.4234 0.0
H161 H 0.10712 0.52414 0.47538 0.0
H162 H 0.15711 0.61019 0.48532 0.0
C163 C 0.16913 0.61593 0.46911 0.0
O164 O 0.17352 0.59 0.46383 0.0
H165 H 0.14525 0.61463 0.45875 0.0
C166 C 0.09297 0.50537 0.4234 0.0
C167 C 0.08539 0.49922 0.44501 0.0
C168 C 0.12695 0.53944 0.41535 0.0
C169 C 0.15356 0.56787 0.42921 0.0
C170 C 0.1463 0.56247 0.45075 0.0
C171 C 0.1121 0.52824 0.45866 0.0
H172 H 0.63808 0.98265 0.73343 0.0
H173 H 0.62005 0.06278 0.74335 0.0
H174 H 0.62744 1.00741 0.79595 0.0
H175 H 0.56515 0.02195 0.80228 0.0
C176 C 0.57678 0.04301 0.78971 0.0
O177 O 0.6168 0.05545 0.784 0.0
H178 H 0.55424 0.03048 0.77617 0.0
C179 C 0.63484 0.99834 0.74401 0.0
C180 C 0.63395 0.99196 0.76573 0.0
C181 C 0.6298 0.02374 0.73571 0.0
C182 C 0.6238 0.04295 0.7494 0.0
C183 C 0.62271 0.03681 0.77102 0.0
C184 C 0.6279 0.01152 0.77916 0.0
H185 H 0.58298 0.37235 0.09813 0.0
H186 H 0.45414 0.33233 0.08622 0.0
H187 H 0.49162 0.32132 0.14755 0.0
H188 H 0.39757 0.25899 0.13648 0.0
C189 C 0.39471 0.27469 0.12407 0.0
O190 O 0.42993 0.31063 0.12461 0.0
H191 H 0.39168 0.263 0.10864 0.0
C192 C 0.55074 0.35826 0.10337 0.0
C193 C 0.54111 0.34718 0.12446 0.0
C194 C 0.51976 0.35316 0.08929 0.0
C195 C 0.47829 0.33545 0.09646 0.0
C196 C 0.46825 0.32358 0.11733 0.0
C197 C 0.4995 0.32943 0.13127 0.0
H198 H 0.2246 0.42194 0.16992 0.0
H199 H 0.23161 0.37351 0.17257 0.0
H200 H 0.25621 0.385 0.10651 0.0
H201 H 0.24797 0.4326 0.10357 0.0
H202 H 0.20231 0.31083 0.12252 0.0
H203 H 0.35209 0.40243 0.16869 0.0
H204 H 0.30508 0.39397 0.17854 0.0
H205 H 0.32719 0.41892 0.15439 0.0
C206 C 0.23063 0.41364 0.15588 0.0
C207 C 0.23627 0.43141 0.13657 0.0
C208 C 0.23486 0.38614 0.15746 0.0
C209 C 0.24494 0.37608 0.13979 0.0
C210 C 0.24852 0.39249 0.12033 0.0
H211 H 0.34985 0.28307 0.09505 0.0
H212 H 0.30209 0.29765 0.10159 0.0
C213 C 0.24427 0.41993 0.11873 0.0
C214 C 0.25564 0.35097 0.14167 0.0
H215 H 0.33467 0.34728 0.15868 0.0
C216 C 0.23087 0.31842 0.13069 0.0
C217 C 0.29277 0.36091 0.15246 0.0
C218 C 0.3211 0.39602 0.1641 0.0
C219 C 0.2432 0.29617 0.12956 0.0
C220 C 0.28167 0.30724 0.13932 0.0
C221 C 0.30509 0.33875 0.15126 0.0
C222 C 0.30152 0.28979 0.13519 0.0
C223 C 0.2154 0.26146 0.1176 0.0
C224 C 0.31667 0.28001 0.15185 0.0
C225 C 0.34425 0.27193 0.14809 0.0
C226 C 0.35681 0.27327 0.12763 0.0
C227 C 0.33967 0.28093 0.11089 0.0
C228 C 0.31225 0.28912 0.11464 0.0
H229 H 0.18155 0.25027 0.11802 0.0
H230 H 0.22507 0.26712 0.10098 0.0
H231 H 0.21828 0.24065 0.12395 0.0
H232 H 0.30925 0.28082 0.16783 0.0
H233 H 0.35788 0.26691 0.16126 0.0
H234 H 0.78989 0.1601 0.48988 0.0
H235 H 0.85411 0.22316 0.48748 0.0
H236 H 0.77919 0.25592 0.46493 0.0
H237 H 0.71503 0.19307 0.46694 0.0
H238 H 0.84769 0.28382 0.44085 0.0
H239 H 0.89827 0.30924 0.52419 0.0
H240 H 0.89045 0.27011 0.51428 0.0
H241 H 0.84598 0.27062 0.51592 0.0
C242 C 0.78694 0.18073 0.48459 0.0
C243 C 0.7471 0.17131 0.4786 0.0
C244 C 0.82375 0.21689 0.48337 0.0
C245 C 0.82153 0.24449 0.47631 0.0
C246 C 0.78177 0.2352 0.47052 0.0
H247 H 1.02524 0.48002 0.47419 0.0
H248 H 0.96149 0.41851 0.48316 0.0
C249 C 0.74503 0.19912 0.47168 0.0
C250 C 0.86074 0.28266 0.47366 0.0
H251 H 0.94843 0.35374 0.49938 0.0
C252 C 0.86955 0.29911 0.4537 0.0
C253 C 0.88912 0.3029 0.49045 0.0
C254 C 0.88037 0.2875 0.51247 0.0
C255 C 0.90623 0.33476 0.44996 0.0
C256 C 0.93547 0.35449 0.46654 0.0
C257 C 0.92624 0.33848 0.48664 0.0
C258 C 0.97604 0.39148 0.46299 0.0
C259 C 0.9132 0.35111 0.42824 0.0
C260 C 1.00611 0.39661 0.44933 0.0
C261 C 1.04236 0.43151 0.44424 0.0
C262 C 1.04957 0.46221 0.45276 0.0
C263 C 1.02064 0.45697 0.46738 0.0
C264 C 0.98415 0.42186 0.47245 0.0
H265 H 0.88319 0.33648 0.41891 0.0
H266 H 0.92686 0.38012 0.42887 0.0
H267 H 0.93584 0.34939 0.41997 0.0
H268 H 1.00105 0.37357 0.44221 0.0
H269 H 0.06444 0.43452 0.43327 0.0
H270 H 0.64042 0.72242 0.79057 0.0
H271 H 0.63369 0.7701 0.78192 0.0
H272 H 0.67577 0.81134 0.84427 0.0
H273 H 0.68288 0.76394 0.85297 0.0
H274 H 0.58598 0.78709 0.79882 0.0
H275 H 0.75767 0.90093 0.80831 0.0
H276 H 0.73742 0.85429 0.80739 0.0
H277 H 0.73425 0.87196 0.83109 0.0
C278 C 0.64789 0.74146 0.80249 0.0
C279 C 0.66253 0.73959 0.8224 0.0
C280 C 0.64418 0.76877 0.7975 0.0
C281 C 0.65502 0.79472 0.81231 0.0
C282 C 0.66831 0.79221 0.83242 0.0
H283 H 0.5905 0.94263 0.79794 0.0
H284 H 0.59586 0.89552 0.81047 0.0
C285 C 0.67227 0.76506 0.83738 0.0
C286 C 0.65254 0.82444 0.80665 0.0
H287 H 0.71187 0.91663 0.80259 0.0
C288 C 0.61348 0.81542 0.79965 0.0
C289 C 0.6886 0.8614 0.80749 0.0
C290 C 0.73196 0.87283 0.81378 0.0
C291 C 0.60943 0.84232 0.79353 0.0
C292 C 0.64525 0.87929 0.79486 0.0
C293 C 0.68434 0.8883 0.8018 0.0
C294 C 0.64338 0.90902 0.78816 0.0
C295 C 0.56711 0.83084 0.78513 0.0
C296 C 0.66954 0.93322 0.77204 0.0
C297 C 0.6671 0.96055 0.76509 0.0
C298 C 0.6384 0.96431 0.77412 0.0
C299 C 0.61308 0.94065 0.79069 0.0
C300 C 0.61569 0.91338 0.7977 0.0
H301 H 0.54638 0.80215 0.78016 0.0
H302 H 0.55051 0.83343 0.79758 0.0
H303 H 0.57133 0.84829 0.77161 0.0
H304 H 0.69145 0.9306 0.76459 0.0
H305 H 0.68767 0.9787 0.75259 0.0
H306 H 0.90712 0.55518 0.21209 0.0
H307 H 0.82934 0.51627 0.21129 0.0
H308 H 0.8256 0.43687 0.17676 0.0
H309 H 0.90271 0.47462 0.17832 0.0
H310 H 0.78348 0.49896 0.17649 0.0
H311 H 0.73102 0.37162 0.21663 0.0
H312 H 0.78463 0.41305 0.21915 0.0
H313 H 0.76936 0.384 0.19722 0.0
C314 C 0.88961 0.52897 0.20484 0.0
C315 C 0.91103 0.51812 0.19507 0.0
C316 C 0.84522 0.50682 0.20436 0.0
C317 C 0.82158 0.4734 0.19424 0.0
C318 C 0.84298 0.46206 0.18513 0.0
H319 H 0.60448 0.34126 0.12062 0.0
H320 H 0.66855 0.36953 0.14255 0.0
C321 C 0.88717 0.48402 0.18569 0.0
C322 C 0.77529 0.45254 0.19059 0.0
H323 H 0.68236 0.36612 0.18977 0.0
C324 C 0.7611 0.47011 0.17992 0.0
C325 C 0.74606 0.41489 0.19511 0.0
C326 C 0.75855 0.39495 0.20787 0.0
C327 C 0.71932 0.4506 0.17227 0.0
C328 C 0.69103 0.4126 0.1755 0.0
C329 C 0.70435 0.39526 0.18722 0.0
C330 C 0.64926 0.39039 0.16479 0.0
C331 C 0.70641 0.47037 0.15962 0.0
C332 C 0.6168 0.39183 0.17053 0.0
C333 C 0.58024 0.37575 0.15804 0.0
C334 C 0.5758 0.35816 0.1396 0.0
C335 C 0.60729 0.35492 0.13464 0.0
C336 C 0.6437 0.37085 0.14718 0.0
H337 H 0.73353 0.49936 0.15675 0.0
H338 H 0.69258 0.45722 0.14431 0.0
H339 H 0.68168 0.46901 0.1681 0.0
H340 H 0.62064 0.4068 0.18411 0.0
H341 H 0.55666 0.37895 0.16215 0.0
H342 H 0.53968 0.92624 0.49433 0.0
H343 H 0.47563 0.8633 0.49226 0.0
H344 H 0.42166 0.89475 0.44644 0.0
H345 H 0.48578 0.95787 0.44826 0.0
H346 H 0.39189 0.83549 0.50085 0.0
H347 H 0.40557 0.80891 0.41898 0.0
H348 H 0.44956 0.84709 0.43323 0.0
H349 H 0.40863 0.84845 0.42215 0.0
C350 C 0.51438 0.91987 0.48368 0.0
C351 C 0.5181 0.94731 0.47142 0.0
C352 C 0.47769 0.88378 0.48255 0.0
C353 C 0.44398 0.87413 0.46901 0.0
C354 C 0.44753 0.90137 0.45672 0.0
H355 H 0.19235 0.67362 0.44321 0.0
H356 H 0.25924 0.73558 0.44333 0.0
C357 C 0.4842 0.93755 0.45788 0.0
C358 C 0.40455 0.83581 0.4684 0.0
H359 H 0.34135 0.76356 0.43625 0.0
C360 C 0.38094 0.81969 0.48675 0.0
C361 C 0.39016 0.81522 0.44999 0.0
C362 C 0.41491 0.83059 0.42999 0.0
C363 C 0.34299 0.78389 0.48711 0.0
C364 C 0.32863 0.76318 0.46872 0.0
C365 C 0.3523 0.77931 0.45036 0.0
C366 C 0.28874 0.72501 0.46813 0.0
C367 C 0.31801 0.769 0.50707 0.0
C368 C 0.28326 0.69807 0.48166 0.0
C369 C 0.24493 0.6627 0.48169 0.0
C370 C 0.21148 0.65343 0.46802 0.0
C371 C 0.21751 0.68003 0.45398 0.0
C372 C 0.25575 0.71543 0.45403 0.0
H373 H 0.32673 0.79101 0.51765 0.0
H374 H 0.28334 0.75193 0.50376 0.0
H375 H 0.32493 0.75198 0.51549 0.0
H376 H 0.30854 0.70445 0.49232 0.0
H377 H 0.24114 0.64263 0.49256 0.0
H378 H 0.50926 0.25568 0.86425 0.0
H379 H 0.51662 0.20938 0.85556 0.0
H380 H 0.61241 0.28289 0.81053 0.0
H381 H 0.60684 0.3299 0.81984 0.0
H382 H 0.50236 0.17721 0.81859 0.0
H383 H 0.67038 0.24848 0.84286 0.0
H384 H 0.64058 0.26384 0.84994 0.0
H385 H 0.66335 0.27423 0.82438 0.0
C386 C 0.53246 0.26227 0.85276 0.0
C387 C 0.55756 0.29666 0.84282 0.0
C388 C 0.5364 0.23565 0.8477 0.0
C389 C 0.56556 0.24281 0.83263 0.0
C390 C 0.59037 0.27695 0.82254 0.0
H391 H 0.6149 0.1099 0.77096 0.0
H392 H 0.61276 0.15862 0.7817 0.0
C393 C 0.58665 0.30366 0.82767 0.0
C394 C 0.56876 0.21409 0.82692 0.0
H395 H 0.63824 0.19495 0.82313 0.0
C396 C 0.53202 0.18102 0.81973 0.0
C397 C 0.6075 0.21907 0.82838 0.0
C398 C 0.6476 0.25318 0.837 0.0
C399 C 0.53309 0.15308 0.81365 0.0
C400 C 0.57185 0.15823 0.81494 0.0
C401 C 0.60861 0.19121 0.82211 0.0
C402 C 0.57464 0.12947 0.80899 0.0
C403 C 0.49293 0.11844 0.80555 0.0
C404 C 0.55439 0.09725 0.82096 0.0
C405 C 0.55591 0.06964 0.81497 0.0
C406 C 0.57797 0.07389 0.79701 0.0
C407 C 0.59835 0.10625 0.78509 0.0
C408 C 0.59705 0.13397 0.79115 0.0
H409 H 0.46789 0.12142 0.80168 0.0
H410 H 0.49945 0.10969 0.79137 0.0
H411 H 0.48048 0.09667 0.81767 0.0
H412 H 0.53716 0.09339 0.83484 0.0
H413 H 0.53943 0.04477 0.82426 0.0
H414 H 0.64395 0.87002 0.54089 0.0
H415 H 0.63943 0.81544 0.54296 0.0
H416 H 0.70884 0.84746 0.48559 0.0
H417 H 0.71405 0.90255 0.48353 0.0
H418 H 0.60431 0.75917 0.51087 0.0
H419 H 0.77549 0.83041 0.52998 0.0
H420 H 0.75022 0.85121 0.53358 0.0
H421 H 0.76249 0.84683 0.50777 0.0
C422 C 0.65853 0.8656 0.52878 0.0
C423 C 0.67965 0.89073 0.51213 0.0
C424 C 0.65565 0.83431 0.52991 0.0
C425 C 0.6741 0.82765 0.51452 0.0
C426 C 0.69474 0.85234 0.49771 0.0
H427 H 0.70063 0.65433 0.5231 0.0
H428 H 0.70293 0.70499 0.50891 0.0
C429 C 0.69743 0.88362 0.49649 0.0
C430 C 0.67187 0.7949 0.51639 0.0
H431 H 0.73113 0.76682 0.52946 0.0
C432 C 0.63206 0.76077 0.51473 0.0
C433 C 0.70822 0.79718 0.5212 0.0
C434 C 0.75161 0.83329 0.52338 0.0
C435 C 0.62744 0.72875 0.51831 0.0
C436 C 0.66345 0.73102 0.52421 0.0
C437 C 0.70356 0.76514 0.52498 0.0
C438 C 0.65969 0.69871 0.53154 0.0
C439 C 0.58395 0.69281 0.5159 0.0
C440 C 0.63471 0.67847 0.54894 0.0
C441 C 0.6332 0.6496 0.55697 0.0
C442 C 0.65707 0.64053 0.54794 0.0
C443 C 0.68164 0.66047 0.53029 0.0
C444 C 0.68313 0.68948 0.52224 0.0
H445 H 0.56379 0.69512 0.50472 0.0
H446 H 0.58594 0.67169 0.51038 0.0
H447 H 0.56799 0.68382 0.53126 0.0
H448 H 0.61708 0.68555 0.55666 0.0
H449 H 0.61356 0.63452 0.57042 0.0
H450 H 0.77775 0.57888 0.83802 0.0
H451 H 0.83892 0.57853 0.83849 0.0
H452 H 0.75978 0.46832 0.86205 0.0
H453 H 0.69845 0.46823 0.86108 0.0
H454 H 0.88272 0.57276 0.86732 0.0
H455 H 0.814 0.45455 0.81721 0.0
H456 H 0.78838 0.47506 0.82039 0.0
H457 H 0.78214 0.44312 0.83972 0.0
C458 C 0.77307 0.55436 0.84318 0.0
C459 C 0.73232 0.52348 0.84934 0.0
C460 C 0.80848 0.55421 0.84348 0.0
C461 C 0.80479 0.52314 0.84987 0.0
C462 C 0.76419 0.49248 0.85635 0.0
H463 H 0.98028 0.47043 0.87473 0.0
H464 H 0.91924 0.47038 0.86885 0.0
C465 C 0.72876 0.49256 0.85597 0.0
C466 C 0.84327 0.5232 0.85026 0.0
H467 H 0.87785 0.47519 0.8357 0.0
C468 C 0.88148 0.55148 0.86018 0.0
C469 C 0.84287 0.49572 0.84105 0.0
C470 C 0.80482 0.46562 0.82881 0.0
C471 C 0.91784 0.55248 0.86167 0.0
C472 C 0.91721 0.52476 0.8527 0.0
C473 C 0.87914 0.49661 0.84267 0.0
C474 C 0.95483 0.52375 0.85426 0.0
C475 C 0.95629 0.58282 0.8736 0.0
C476 C 0.99591 0.55297 0.8473 0.0
C477 C 1.03111 0.55271 0.85037 0.0
C478 C 1.02655 0.5231 0.86034 0.0
C479 C 0.98517 0.49334 0.86647 0.0
C480 C 0.95004 0.49348 0.8633 0.0
H481 H 0.94825 0.59613 0.88409 0.0
H482 H 0.97094 0.57274 0.88314 0.0
H483 H 0.9802 0.60368 0.86234 0.0
H484 H 1.00112 0.57653 0.83987 0.0
H485 H 1.06238 0.57658 0.84592 0.0
H486 H 0.31853 0.68624 0.14469 0.0
H487 H 0.38238 0.74966 0.14569 0.0
H488 H 0.30761 0.78101 0.16608 0.0
H489 H 0.24408 0.71787 0.16566 0.0
H490 H 0.40454 0.81041 0.12543 0.0
H491 H 0.39973 0.82625 0.21023 0.0
H492 H 0.3667 0.78262 0.19802 0.0
H493 H 0.35139 0.81169 0.1971 0.0
C494 C 0.31564 0.70662 0.14938 0.0
C495 C 0.27612 0.69678 0.15531 0.0
C496 C 0.35223 0.74291 0.14996 0.0
C497 C 0.3501 0.77012 0.15645 0.0
C498 C 0.31043 0.76048 0.16165 0.0
H499 H 0.52968 1.00226 0.13452 0.0
H500 H 0.47279 0.93691 0.13259 0.0
C501 C 0.27398 0.72427 0.16125 0.0
C502 C 0.38909 0.8086 0.1576 0.0
H503 H 0.44581 0.88093 0.19011 0.0
C504 C 0.41376 0.82574 0.13963 0.0
C505 C 0.40178 0.82855 0.17622 0.0
C506 C 0.37878 0.81123 0.19654 0.0
C507 C 0.4498 0.86247 0.13956 0.0
C508 C 0.46098 0.88298 0.15784 0.0
C509 C 0.4371 0.86549 0.176 0.0
C510 C 0.49672 0.92268 0.15844 0.0
C511 C 0.47577 0.87873 0.11995 0.0
C512 C 0.52859 0.93682 0.17401 0.0
C513 C 0.56087 0.97429 0.1753 0.0
C514 C 0.5623 0.99842 0.16084 0.0
C515 C 0.53016 0.98425 0.14544 0.0
C516 C 0.49772 0.94685 0.14427 0.0
H517 H 0.47182 0.85759 0.11027 0.0
H518 H 0.46484 0.89193 0.11041 0.0
H519 H 0.51004 0.8994 0.12367 0.0
H520 H 0.52826 0.91885 0.18533 0.0
H521 H 0.58442 0.98438 0.18773 0.0
H522 H 0.65484 0.26932 0.46499 0.0
H523 H 0.66383 0.32321 0.47618 0.0
H524 H 0.53405 0.25568 0.49677 0.0
H525 H 0.52497 0.20177 0.4858 0.0
H526 H 0.6232 0.35145 0.46436 0.0
H527 H 0.59785 0.31351 0.54857 0.0
H528 H 0.60632 0.29048 0.53004 0.0
H529 H 0.55463 0.27917 0.53244 0.0
C530 C 0.62815 0.266 0.47178 0.0
C531 C 0.58928 0.23125 0.47467 0.0
C532 C 0.63338 0.29679 0.47824 0.0
C533 C 0.5999 0.29342 0.48772 0.0
C534 C 0.56071 0.25886 0.49005 0.0
H535 H 0.5658 0.45657 0.50344 0.0
H536 H 0.56704 0.40835 0.49112 0.0
C537 C 0.55552 0.22808 0.48372 0.0
C538 C 0.60569 0.32601 0.49497 0.0
H539 H 0.59634 0.36205 0.53771 0.0
C540 C 0.61764 0.35392 0.48043 0.0
C541 C 0.59924 0.32956 0.51603 0.0
C542 C 0.58924 0.30177 0.53272 0.0
C543 C 0.62198 0.38473 0.48624 0.0
C544 C 0.61323 0.38731 0.50704 0.0
C545 C 0.60259 0.35992 0.52171 0.0
C546 C 0.61404 0.41773 0.51389 0.0
C547 C 0.6363 0.41433 0.47006 0.0
C548 C 0.63915 0.43846 0.53115 0.0
C549 C 0.63809 0.46576 0.53834 0.0
C550 C 0.61223 0.47309 0.52827 0.0
C551 C 0.58689 0.45215 0.51112 0.0
C552 C 0.58773 0.42471 0.50402 0.0
H553 H 0.65427 0.41382 0.4574 0.0
H554 H 0.60803 0.4102 0.46281 0.0
H555 H 0.65663 0.44152 0.47719 0.0
H556 H 0.65926 0.43326 0.53919 0.0
H557 H 0.65709 0.48089 0.55193 0.0
H558 H 0.54204 0.57788 0.85218 0.0
H559 H 0.4807 0.57773 0.85396 0.0
H560 H 0.39657 0.46176 0.84732 0.0
H561 H 0.45763 0.46165 0.84662 0.0
H562 H 0.41974 0.56415 0.83071 0.0
H563 H 0.33784 0.46222 0.89447 0.0
H564 H 0.3907 0.48062 0.88686 0.0
H565 H 0.34503 0.44347 0.87282 0.0
C566 C 0.51049 0.55219 0.85126 0.0
C567 C 0.5055 0.5197 0.84951 0.0
C568 C 0.47501 0.55212 0.85224 0.0
C569 C 0.43284 0.51961 0.85142 0.0
C570 C 0.42798 0.48731 0.84894 0.0
H571 H 0.17605 0.45762 0.84108 0.0
H572 H 0.24173 0.46441 0.83977 0.0
C573 C 0.46339 0.48729 0.84829 0.0
C574 C 0.39445 0.5196 0.85275 0.0
H575 H 0.29638 0.47551 0.87528 0.0
C576 C 0.39315 0.54489 0.8407 0.0
C577 C 0.35894 0.49498 0.86582 0.0
C578 C 0.35835 0.4691 0.88088 0.0
C579 C 0.35784 0.54541 0.84083 0.0
C580 C 0.32193 0.51996 0.85331 0.0
C581 C 0.32334 0.49502 0.86553 0.0
C582 C 0.28198 0.51758 0.85326 0.0
C583 C 0.35861 0.57267 0.8271 0.0
C584 C 0.28146 0.54512 0.86127 0.0
C585 C 0.2432 0.54114 0.86215 0.0
C586 C 0.20427 0.50983 0.85457 0.0
C587 C 0.20523 0.48264 0.84649 0.0
C588 C 0.24305 0.48637 0.84588 0.0
H589 H 0.38551 0.587 0.81605 0.0
H590 H 0.32842 0.55912 0.81802 0.0
H591 H 0.36172 0.59312 0.83706 0.0
H592 H 0.31049 0.56934 0.86748 0.0
H593 H 0.24394 0.56222 0.86917 0.0
H594 H 0.07582 0.44935 0.13958 0.0
H595 H 1.01133 0.38621 0.14111 0.0
H596 H 0.95172 0.41727 0.179 0.0
H597 H 1.01532 0.48026 0.17721 0.0
H598 H 0.97257 0.34089 0.17468 0.0
H599 H 0.86072 0.35838 0.13523 0.0
H600 H 0.91752 0.39322 0.13465 0.0
H601 H 0.88775 0.38784 0.15699 0.0
C602 C 1.04887 0.44283 0.14809 0.0
C603 C 1.05088 0.4701 0.15817 0.0
C604 C 1.01199 0.40666 0.14896 0.0
C605 C 0.97625 0.39696 0.15983 0.0
C606 C 0.97833 0.42408 0.17003 0.0
H607 H 0.73879 0.20457 0.20355 0.0
H608 H 0.80151 0.26571 0.19412 0.0
C609 C 1.01503 0.46019 0.16911 0.0
C610 C 0.93748 0.35835 0.1614 0.0
H611 H 0.82956 0.30267 0.15456 0.0
C612 C 0.94139 0.33244 0.17001 0.0
C613 C 0.89668 0.34721 0.15529 0.0
C614 C 0.89039 0.37306 0.14483 0.0
C615 C 0.90557 0.29618 0.17346 0.0
C616 C 0.86471 0.28533 0.1679 0.0
C617 C 0.86086 0.311 0.15885 0.0
C618 C 0.82544 0.248 0.17245 0.0
C619 C 0.91157 0.27008 0.1838 0.0
C620 C 0.81737 0.21763 0.16301 0.0
C621 C 0.78142 0.18251 0.1684 0.0
C622 C 0.75292 0.1771 0.18337 0.0
C623 C 0.76041 0.20771 0.1922 0.0
C624 C 0.79615 0.24272 0.18676 0.0
H625 H 0.94383 0.28428 0.19083 0.0
H626 H 0.88773 0.25367 0.1962 0.0
H627 H 0.90708 0.25122 0.17195 0.0
H628 H 0.83917 0.22107 0.15168 0.0
H629 H 0.77669 0.15956 0.16135 0.0
H630 H 0.07971 0.58671 0.09402 0.0
H631 H 0.07698 0.57774 0.05626 0.0
H632 H 0.18073 0.57236 0.06312 0.0
H633 H 0.1838 0.58178 0.10073 0.0
H634 H 0.14273 0.6201 0.02619 0.0
H635 H 0.08686 0.47815 0.03233 0.0
H636 H 0.08361 0.50038 0.05374 0.0
H637 H 0.13338 0.51026 0.04771 0.0
C638 C 0.10187 0.58357 0.08744 0.0
C639 C 0.13143 0.58413 0.10033 0.0
C640 C 0.10029 0.57846 0.06591 0.0
C641 C 0.12814 0.57372 0.05696 0.0
C642 C 0.15829 0.5751 0.06977 0.0
H643 H 0.17841 0.58515 0.92369 0.0
H644 H 0.18552 0.59462 0.96153 0.0
C645 C 0.15992 0.5803 0.09126 0.0
C646 C 0.12596 0.56771 0.0342 0.0
H647 H 0.10532 0.50587 -0.0014 0.0
C648 C 0.13459 0.59516 0.02013 0.0
C649 C 0.11497 0.53501 0.02637 0.0
C650 C 0.1038 0.50407 0.04077 0.0
C651 C 0.13285 0.59089 -0.00159 0.0
C652 C 0.12259 0.55844 0.99059 0.0
C653 C 0.11362 0.53087 0.00466 0.0
C654 C 0.11911 0.55194 0.96783 0.0
C655 C 0.14108 0.62079 0.98398 0.0
C656 C 0.07973 0.52414 0.95894 0.0
C657 C 0.07564 0.51857 0.93742 0.0
C658 C 0.11094 0.54055 0.92433 0.0
C659 C 0.15067 0.56771 0.93336 0.0
C660 C 0.1547 0.57337 0.95493 0.0
H661 H 0.13972 0.64045 0.99231 0.0
H662 H 0.17318 0.63574 0.97724 0.0
H663 H 0.11762 0.60944 0.97085 0.0
H664 H 1.05195 0.50713 0.96864 0.0
H665 H 1.04475 0.49707 0.93098 0.0
H666 H 0.60493 0.06122 0.42007 0.0
H667 H 0.60436 0.06903 0.38189 0.0
H668 H 0.68675 0.03958 0.37585 0.0
H669 H 0.68752 0.03186 0.41384 0.0
H670 H 0.71373 0.10588 0.35454 0.0
H671 H 0.54615 0.98917 0.33623 0.0
H672 H 0.55447 0.01835 0.35672 0.0
H673 H 0.57251 0.9916 0.36037 0.0
C674 C 0.62263 0.05619 0.41054 0.0
C675 C 0.64634 0.04602 0.41984 0.0
C676 C 0.62213 0.06048 0.38878 0.0
C677 C 0.64529 0.05462 0.37608 0.0
C678 C 0.6686 0.04413 0.38539 0.0
H679 H 0.65517 0.03842 0.24286 0.0
H680 H 0.64554 0.02812 0.28069 0.0
C681 C 0.66897 0.0397 0.40706 0.0
C682 C 0.64704 0.06096 0.35317 0.0
H683 H 0.58788 0.02847 0.30806 0.0
C684 C 0.68621 0.08908 0.34436 0.0
C685 C 0.61111 0.03875 0.33999 0.0
C686 C 0.56865 1.00756 0.34869 0.0
C687 C 0.69046 0.09561 0.32268 0.0
C688 C 0.65449 0.0736 0.3095 0.0
C689 C 0.61529 0.04542 0.31827 0.0
C690 C 0.6575 0.07893 0.28649 0.0
C691 C 0.73359 0.12549 0.31397 0.0
C692 C 0.6666 0.1106 0.27723 0.0
C693 C 0.67183 0.11648 0.25562 0.0
C694 C 0.66807 0.09077 0.24284 0.0
C695 C 0.65789 0.05862 0.25217 0.0
C696 C 0.65252 0.05273 0.2738 0.0
H697 H 0.7594 0.13523 0.32576 0.0
H698 H 0.74013 0.1161 0.30012 0.0
H699 H 0.73426 0.14877 0.30889 0.0
H700 H 0.66996 0.1309 0.28677 0.0
H701 H 0.67879 0.14117 0.24891 0.0
H702 H 0.65002 0.57058 0.79341 0.0
H703 H 0.66269 0.58944 0.75629 0.0
H704 H 0.60696 0.47994 0.73937 0.0
H705 H 0.59395 0.46106 0.77613 0.0
H706 H 0.70781 0.58382 0.72481 0.0
H707 H 0.53588 0.50283 0.70617 0.0
H708 H 0.55652 0.51305 0.73264 0.0
H709 H 0.54998 0.47684 0.71913 0.0
C710 C 0.64092 0.55074 0.78176 0.0
C711 C 0.62079 0.51438 0.7876 0.0
C712 C 0.64808 0.56148 0.76059 0.0
C713 C 0.63505 0.5359 0.74509 0.0
C714 C 0.61646 0.49993 0.75105 0.0
H715 H 0.69616 0.55868 0.61404 0.0
H716 H 0.69285 0.55083 0.65214 0.0
C717 C 0.60918 0.48923 0.77207 0.0
C718 C 0.63962 0.54613 0.72259 0.0
H719 H 0.58223 0.52465 0.6772 0.0
C720 C 0.68042 0.5712 0.71438 0.0
C721 C 0.60377 0.52999 0.70911 0.0
C722 C 0.55904 0.50445 0.71721 0.0
C723 C 0.68634 0.57964 0.69284 0.0
C724 C 0.65052 0.56202 0.67922 0.0
C725 C 0.60972 0.53784 0.6876 0.0
C726 C 0.65425 0.56816 0.65622 0.0
C727 C 0.73082 0.60751 0.68493 0.0
C728 C 0.63274 0.57955 0.64578 0.0
C729 C 0.63384 0.58333 0.62403 0.0
C730 C 0.65659 0.57588 0.61217 0.0
C731 C 0.67817 0.56447 0.62266 0.0
C732 C 0.67684 0.5605 0.64448 0.0
H733 H 0.7528 0.62574 0.69757 0.0
H734 H 0.74287 0.59346 0.67897 0.0
H735 H 0.73144 0.62426 0.67196 0.0
H736 H 0.61472 0.58522 0.65449 0.0
H737 H 0.61611 0.59144 0.61649 0.0
H738 H 0.67439 0.07407 0.53495 0.0
H739 H 0.67936 0.06621 0.57272 0.0
H740 H 0.55197 0.03104 0.57979 0.0
H741 H 0.54639 0.03771 0.54203 0.0
H742 H 0.6743 0.09978 0.60462 0.0
H743 H 0.54562 0.95184 0.61154 0.0
H744 H 0.5671 0.97476 0.58666 0.0
H745 H 0.52795 0.97552 0.59913 0.0
C746 C 0.6473 0.06423 0.54456 0.0
C747 C 0.60985 0.05616 0.53558 0.0
C748 C 0.65021 0.05987 0.56612 0.0
C749 C 0.61577 0.04742 0.57905 0.0
C750 C 0.57854 0.03974 0.57008 0.0
H751 H 0.57424 0.02759 0.7122 0.0
H752 H 0.57271 0.03454 0.67408 0.0
C753 C 0.57549 0.04382 0.54852 0.0
C754 C 0.61928 0.04381 0.60201 0.0
H755 H 0.57114 0.98444 0.64346 0.0
C756 C 0.65198 0.07448 0.61308 0.0
C757 C 0.59021 0.01072 0.61304 0.0
C758 C 0.55602 0.97626 0.60196 0.0
C759 C 0.65568 0.07316 0.63493 0.0
C760 C 0.62597 0.04038 0.64593 0.0
C761 C 0.59361 1.00961 0.63491 0.0
C762 C 0.62796 0.03746 0.66895 0.0
C763 C 0.69072 0.10694 0.64624 0.0
C764 C 0.65954 0.0368 0.67855 0.0
C765 C 0.66041 0.03272 0.70027 0.0
C766 C 0.62981 0.0294 0.71273 0.0
C767 C 0.59849 0.03049 0.70303 0.0
C768 C 0.59743 0.03425 0.68129 0.0
H769 H 0.70764 0.13135 0.63577 0.0
H770 H 0.67766 0.1116 0.65958 0.0
H771 H 0.71409 0.10334 0.65267 0.0
H772 H 0.68319 0.03903 0.66922 0.0
H773 H 0.68507 0.03222 0.70733 0.0
H774 H 0.68542 0.54826 0.92133 0.0
H775 H 0.66639 0.51573 0.95512 0.0
H776 H 0.53823 0.43619 0.93247 0.0
H777 H 0.5567 0.46918 0.89902 0.0
H778 H 0.53972 0.45919 0.97064 0.0
H779 H 0.64758 0.42226 0.97034 0.0
H780 H 0.67467 0.47002 0.96682 0.0
H781 H 0.63717 0.43921 0.94727 0.0
C782 C 0.65329 0.52374 0.92357 0.0
C783 C 0.62259 0.51111 0.90756 0.0
C784 C 0.64252 0.50501 0.9428 0.0
C785 C 0.60107 0.47314 0.94619 0.0
C786 C 0.57045 0.46058 0.93016 0.0
H787 H 0.47369 0.32384 0.05283 0.0
H788 H 0.49244 0.35171 0.01769 0.0
C789 C 0.58108 0.47941 0.91105 0.0
C790 C 0.58889 0.45375 0.96673 0.0
H791 H 0.61331 0.41288 0.00252 0.0
C792 C 0.55558 0.4488 0.97752 0.0
C793 C 0.60956 0.44013 0.97566 0.0
C794 C 0.64395 0.44282 0.96435 0.0
C795 C 0.543 0.4313 -0.00281 0.0
C796 C 0.56414 0.41829 0.00623 0.0
C797 C 0.59725 0.42298 0.99546 0.0
C798 C 0.55314 0.40078 0.02723 0.0
C799 C 0.50786 0.42756 0.00843 0.0
C800 C 0.58132 0.41904 0.04406 0.0
C801 C 0.5706 0.40344 0.06412 0.0
C802 C 0.53161 0.36899 0.06771 0.0
C803 C 0.50372 0.35052 0.05067 0.0
C804 C 0.51441 0.36631 0.03059 0.0
H805 H 0.49919 0.44392 0.00076 0.0
H806 H 0.47924 0.39869 0.00864 0.0
H807 H 0.51741 0.43608 0.02491 0.0
H808 H 0.61128 0.44576 0.04173 0.0
H809 H 0.5925 0.41883 0.07689 0.0
H810 H 0.15792 0.512 0.22056 0.0
H811 H 0.14952 0.51044 0.2584 0.0
H812 H 0.17599 0.61478 0.25403 0.0
H813 H 0.18415 0.61638 0.21611 0.0
H814 H 0.21136 0.56102 0.28709 0.0
H815 H 0.06662 0.55285 0.28831 0.0
H816 H 0.08278 0.54327 0.26529 0.0
H817 H 0.10918 0.58934 0.27264 0.0
C818 C 0.16163 0.53447 0.22766 0.0
C819 C 0.17151 0.56424 0.21544 0.0
C820 C 0.15686 0.53355 0.24924 0.0
C821 C 0.16166 0.56229 0.25896 0.0
C822 C 0.17136 0.59202 0.24678 0.0
H823 H 0.14753 0.59722 0.39065 0.0
H824 H 0.15867 0.60518 0.35276 0.0
C825 C 0.17616 0.59296 0.22516 0.0
C826 C 0.15831 0.5617 0.28197 0.0
H827 H 0.10029 0.55941 0.3209 0.0
C828 C 0.18708 0.56066 0.2945 0.0
C829 C 0.12678 0.56149 0.29155 0.0
C830 C 0.09431 0.5615 0.27881 0.0
C831 C 0.18514 0.55935 0.31639 0.0
C832 C 0.15312 0.55843 0.32597 0.0
C833 C 0.12481 0.56013 0.31347 0.0
C834 C 0.14741 0.55415 0.34892 0.0
C835 C 0.21762 0.55927 0.32906 0.0
C836 C 0.13716 0.52276 0.35922 0.0
C837 C 0.13101 0.51823 0.38079 0.0
C838 C 0.13469 0.54492 0.39249 0.0
C839 C 0.14497 0.57639 0.38211 0.0
C840 C 0.15106 0.58086 0.36048 0.0
H841 H 0.24645 0.57021 0.31985 0.0
H842 H 0.22721 0.5755 0.34338 0.0
H843 H 0.20364 0.53099 0.33392 0.0
H844 H 0.13354 0.50156 0.35054 0.0
H845 H 0.12351 0.49384 0.38833 0.0
loop_
_geom_bond_atom_site_label_1
_geom_bond_atom_site_label_2
_geom_bond_distance
_geom_bond_site_symmetry_2
_ccdc_geom_bond_type
Sm0 C2 2.846 . S
Sm0 O20 2.543 . S
Sm0 O21 2.450 . S
Sm0 O22 2.681 1_455 S
Sm0 O23 2.464 . S
Sm0 O24 2.396 . S
Sm0 O28 2.386 . S
Sm0 O31 2.408 1_455 S
Sm1 C11 2.846 . S
Sm1 O22 2.386 . S
Sm1 O25 2.408 1_655 S
Sm1 O26 2.543 . S
Sm1 O27 2.450 . S
Sm1 O28 2.681 1_655 S
Sm1 O29 2.464 . S
Sm1 O30 2.396 . S
C2 Sm0 2.846 . S
C2 C3 1.506 . S
C2 O20 1.261 . S
C2 O21 1.242 . S
C3 C2 1.506 . S
C3 C4 1.358 . S
C3 C8 1.382 . S
C4 C3 1.358 . S
C4 C5 1.385 . S
C4 H32 0.930 . S
C5 C4 1.385 . S
C5 C6 1.395 . S
C5 H33 0.929 . S
C6 C5 1.395 . S
C6 C7 1.335 . S
C7 C6 1.335 . S
C7 C8 1.398 . S
C7 H34 0.930 . S
C8 C3 1.382 . S
C8 C7 1.398 . S
C8 H35 0.929 . S
C9 O22 1.271 1_455 S
C9 O23 1.251 . S
C10 O24 1.252 . S
C10 O25 1.272 . S
C11 Sm1 2.846 . S
C11 C12 1.506 . S
C11 O26 1.261 . S
C11 O27 1.242 . S
C12 C11 1.506 . S
C12 C13 1.358 . S
C12 C17 1.382 . S
C13 C12 1.358 . S
C13 C14 1.385 . S
C13 H36 0.930 . S
C14 C13 1.385 . S
C14 C15 1.395 . S
C14 H37 0.929 . S
C15 C14 1.395 . S
C15 C16 1.335 . S
C16 C15 1.335 . S
C16 C17 1.398 . S
C16 H38 0.930 . S
C17 C12 1.382 . S
C17 C16 1.398 . S
C17 H39 0.929 . S
C18 O28 1.271 . S
C18 O29 1.251 1_455 S
C19 O30 1.252 . S
C19 O31 1.272 . S
O20 Sm0 2.543 . S
O20 C2 1.261 . S
O21 Sm0 2.450 . S
O21 C2 1.242 . S
O22 Sm0 2.681 1_655 S
O22 Sm1 2.386 . S
O22 C9 1.271 1_655 S
O23 Sm0 2.464 . S
O23 C9 1.251 . S
O24 Sm0 2.396 . S
O24 C10 1.252 . S
O25 Sm1 2.408 1_455 S
O25 C10 1.272 . S
O26 Sm1 2.543 . S
O26 C11 1.261 . S
O27 Sm1 2.450 . S
O27 C11 1.242 . S
O28 Sm0 2.386 . S
O28 Sm1 2.681 1_455 S
O28 C18 1.271 . S
O29 Sm1 2.464 . S
O29 C18 1.251 1_655 S
O30 Sm1 2.396 . S
O30 C19 1.252 . S
O31 Sm0 2.408 1_655 S
O31 C19 1.272 . S
H32 C4 0.930 . S
H33 C5 0.929 . S
H34 C7 0.930 . S
H35 C8 0.929 . S
H36 C13 0.930 . S
H37 C14 0.929 . S
H38 C16 0.930 . S
H39 C17 0.929 . S
Sm40 C42 2.846 1_545 S
Sm40 O60 2.543 1_545 S
Sm40 O61 2.450 1_545 S
Sm40 O62 2.681 . S
Sm40 O63 2.464 . S
Sm40 O64 2.396 1_545 S
Sm40 O68 2.386 . S
Sm40 O71 2.408 . S
Sm41 C51 2.846 . S
Sm41 O62 2.386 . S
Sm41 O65 2.408 1_545 S
Sm41 O66 2.543 . S
Sm41 O67 2.450 . S
Sm41 O68 2.681 . S
Sm41 O69 2.464 . S
Sm41 O70 2.396 . S
C42 Sm40 2.846 1_565 S
C42 C43 1.506 . S
C42 O60 1.261 . S
C42 O61 1.242 . S
C43 C42 1.506 . S
C43 C44 1.358 . S
C43 C48 1.382 . S
C44 C43 1.358 . S
C44 C45 1.385 . S
C44 H72 0.930 . S
C45 C44 1.385 . S
C45 C46 1.395 . S
C45 H73 0.929 . S
C46 C45 1.395 . S
C46 C47 1.335 . S
C47 C46 1.335 . S
C47 C48 1.398 . S
C47 H74 0.930 . S
C48 C43 1.382 . S
C48 C47 1.398 . S
C48 H75 0.929 . S
C49 O62 1.271 . S
C49 O63 1.251 . S
C50 O64 1.252 . S
C50 O65 1.272 . S
C51 Sm41 2.846 . S
C51 C52 1.506 . S
C51 O66 1.261 . S
C51 O67 1.242 . S
C52 C51 1.506 . S
C52 C53 1.358 . S
C52 C57 1.382 . S
C53 C52 1.358 . S
C53 C54 1.385 . S
C53 H76 0.930 . S
C54 C53 1.385 . S
C54 C55 1.395 . S
C54 H77 0.929 . S
C55 C54 1.395 . S
C55 C56 1.335 . S
C56 C55 1.335 . S
C56 C57 1.398 . S
C56 H78 0.930 . S
C57 C52 1.382 . S
C57 C56 1.398 . S
C57 H79 0.929 . S
C58 O68 1.271 . S
C58 O69 1.251 . S
C59 O70 1.252 . S
C59 O71 1.272 . S
O60 Sm40 2.543 1_565 S
O60 C42 1.261 . S
O61 Sm40 2.450 1_565 S
O61 C42 1.242 . S
O62 Sm40 2.681 . S
O62 Sm41 2.386 . S
O62 C49 1.271 . S
O63 Sm40 2.464 . S
O63 C49 1.251 . S
O64 Sm40 2.396 1_565 S
O64 C50 1.252 . S
O65 Sm41 2.408 1_565 S
O65 C50 1.272 . S
O66 Sm41 2.543 . S
O66 C51 1.261 . S
O67 Sm41 2.450 . S
O67 C51 1.242 . S
O68 Sm40 2.386 . S
O68 Sm41 2.681 . S
O68 C58 1.271 . S
O69 Sm41 2.464 . S
O69 C58 1.251 . S
O70 Sm41 2.396 . S
O70 C59 1.252 . S
O71 Sm40 2.408 . S
O71 C59 1.272 . S
H72 C44 0.930 . S
H73 C45 0.929 . S
H74 C47 0.930 . S
H75 C48 0.929 . S
H76 C53 0.930 . S
H77 C54 0.929 . S
H78 C56 0.930 . S
H79 C57 0.929 . S
Sm80 C82 2.846 . S
Sm80 O100 2.543 . S
Sm80 O101 2.450 . S
Sm80 O102 2.681 . S
Sm80 O103 2.464 . S
Sm80 O104 2.396 . S
Sm80 O108 2.386 . S
Sm80 O111 2.408 . S
Sm81 C91 2.846 . S
Sm81 O102 2.386 . S
Sm81 O105 2.408 . S
Sm81 O106 2.543 . S
Sm81 O107 2.450 . S
Sm81 O108 2.681 . S
Sm81 O109 2.464 . S
Sm81 O110 2.396 . S
C82 Sm80 2.846 . S
C82 C83 1.506 . S
C82 O100 1.261 . S
C82 O101 1.242 . S
C83 C82 1.506 . S
C83 C84 1.358 . S
C83 C88 1.382 . S
C84 C83 1.358 . S
C84 C85 1.385 . S
C84 H112 0.930 . S
C85 C84 1.385 . S
C85 C86 1.395 . S
C85 H113 0.929 . S
C86 C85 1.395 . S
C86 C87 1.335 . S
C87 C86 1.335 . S
C87 C88 1.398 . S
C87 H114 0.930 . S
C88 C83 1.382 . S
C88 C87 1.398 . S
C88 H115 0.929 . S
C89 O102 1.271 . S
C89 O103 1.251 . S
C90 O104 1.252 . S
C90 O105 1.272 . S
C91 Sm81 2.846 . S
C91 C92 1.506 . S
C91 O106 1.261 . S
C91 O107 1.242 . S
C92 C91 1.506 . S
C92 C93 1.358 . S
C92 C97 1.382 . S
C93 C92 1.358 . S
C93 C94 1.385 . S
C93 H116 0.930 . S
C94 C93 1.385 . S
C94 C95 1.395 . S
C94 H117 0.929 . S
C95 C94 1.395 . S
C95 C96 1.335 . S
C96 C95 1.335 . S
C96 C97 1.398 . S
C96 H118 0.930 . S
C97 C92 1.382 . S
C97 C96 1.398 . S
C97 H119 0.929 . S
C98 O108 1.271 . S
C98 O109 1.251 . S
C99 O110 1.252 . S
C99 O111 1.272 . S
O100 Sm80 2.543 . S
O100 C82 1.261 . S
O101 Sm80 2.450 . S
O101 C82 1.242 . S
O102 Sm80 2.681 . S
O102 Sm81 2.386 . S
O102 C89 1.271 . S
O103 Sm80 2.464 . S
O103 C89 1.251 . S
O104 Sm80 2.396 . S
O104 C90 1.252 . S
O105 Sm81 2.408 . S
O105 C90 1.272 . S
O106 Sm81 2.543 . S
O106 C91 1.261 . S
O107 Sm81 2.450 . S
O107 C91 1.242 . S
O108 Sm80 2.386 . S
O108 Sm81 2.681 . S
O108 C98 1.271 . S
O109 Sm81 2.464 . S
O109 C98 1.251 . S
O110 Sm81 2.396 . S
O110 C99 1.252 . S
O111 Sm80 2.408 . S
O111 C99 1.272 . S
H112 C84 0.930 . S
H113 C85 0.929 . S
H114 C87 0.930 . S
H115 C88 0.929 . S
H116 C93 0.930 . S
H117 C94 0.929 . S
H118 C96 0.930 . S
H119 C97 0.929 . S
H120 C127 0.929 . S
H121 C130 0.930 . S
H122 C132 0.929 . S
H123 C124 0.969 . S
C124 H123 0.969 . S
C124 O125 1.550 . S
C124 H126 0.973 . S
O125 C124 1.550 . S
O125 C131 1.412 . S
H126 C124 0.973 . S
C127 H120 0.929 . S
C127 C128 1.400 . S
C127 C129 1.364 . S
C128 C127 1.400 . S
C128 C132 1.377 . S
C129 C127 1.364 . S
C129 C130 1.374 1_545 S
C130 H121 0.930 . S
C130 C129 1.374 1_565 S
C130 C131 1.383 . S
C131 O125 1.412 . S
C131 C130 1.383 . S
C131 C132 1.394 1_565 S
C132 H122 0.929 . S
C132 C128 1.377 . S
C132 C131 1.394 1_545 S
H133 C140 0.929 . S
H134 C143 0.930 . S
H135 C145 0.929 . S
H136 C137 0.969 . S
C137 H136 0.969 . S
C137 O138 1.550 . S
C137 H139 0.973 . S
O138 C137 1.550 . S
O138 C144 1.412 . S
H139 C137 0.973 . S
C140 H133 0.929 . S
C140 C141 1.400 . S
C140 C142 1.364 . S
C141 C140 1.400 . S
C141 C145 1.377 . S
C142 C140 1.364 . S
C142 C143 1.374 . S
C143 H134 0.930 . S
C143 C142 1.374 . S
C143 C144 1.383 . S
C144 O138 1.412 . S
C144 C143 1.383 . S
C144 C145 1.394 . S
C145 H135 0.929 . S
C145 C141 1.377 . S
C145 C144 1.394 . S
H146 C153 0.929 . S
H147 C156 0.930 . S
H148 C158 0.929 . S
H149 C150 0.969 . S
C150 H149 0.969 . S
C150 O151 1.550 . S
C150 H152 0.973 . S
O151 C150 1.550 . S
O151 C157 1.412 . S
H152 C150 0.973 . S
C153 H146 0.929 . S
C153 C154 1.400 . S
C153 C155 1.364 . S
C154 C153 1.400 . S
C154 C158 1.377 . S
C155 C153 1.364 . S
C155 C156 1.374 . S
C156 H147 0.930 . S
C156 C155 1.374 . S
C156 C157 1.383 . S
C157 O151 1.412 . S
C157 C156 1.383 . S
C157 C158 1.394 . S
C158 H148 0.929 . S
C158 C154 1.377 . S
C158 C157 1.394 . S
H159 C166 0.929 1_655 S
H160 C169 0.930 . S
H161 C171 0.929 . S
H162 C163 0.969 . S
C163 H162 0.969 . S
C163 O164 1.550 . S
C163 H165 0.973 . S
O164 C163 1.550 . S
O164 C170 1.412 . S
H165 C163 0.973 . S
C166 H159 0.929 1_455 S
C166 C167 1.400 . S
C166 C168 1.364 . S
C167 C166 1.400 . S
C167 C171 1.379 . S
C168 C166 1.364 . S
C168 C169 1.374 . S
C169 H160 0.930 . S
C169 C168 1.374 . S
C169 C170 1.383 . S
C170 O164 1.412 . S
C170 C169 1.383 . S
C170 C171 1.394 . S
C171 H161 0.929 . S
C171 C167 1.379 . S
C171 C170 1.394 . S
H172 C179 0.929 . S
H173 C182 0.930 . S
H174 C184 0.929 . S
H175 C176 0.969 . S
C176 H175 0.969 . S
C176 O177 1.550 . S
C176 H178 0.973 . S
O177 C176 1.550 . S
O177 C183 1.412 . S
H178 C176 0.973 . S
C179 H172 0.929 . S
C179 C180 1.400 . S
C179 C181 1.364 1_565 S
C180 C179 1.400 . S
C180 C184 1.377 1_565 S
C181 C179 1.364 1_545 S
C181 C182 1.374 . S
C182 H173 0.930 . S
C182 C181 1.374 . S
C182 C183 1.383 . S
C183 O177 1.412 . S
C183 C182 1.383 . S
C183 C184 1.394 . S
C184 H174 0.929 . S
C184 C180 1.377 1_545 S
C184 C183 1.394 . S
H185 C192 0.929 . S
H186 C195 0.930 . S
H187 C197 0.929 . S
H188 C189 0.969 . S
C189 H188 0.969 . S
C189 O190 1.550 . S
C189 H191 0.973 . S
O190 C189 1.550 . S
O190 C196 1.412 . S
H191 C189 0.973 . S
C192 H185 0.929 . S
C192 C193 1.400 . S
C192 C194 1.364 . S
C193 C192 1.400 . S
C193 C197 1.377 . S
C194 C192 1.364 . S
C194 C195 1.374 . S
C195 H186 0.930 . S
C195 C194 1.374 . S
C195 C196 1.383 . S
C196 O190 1.412 . S
C196 C195 1.383 . S
C196 C197 1.394 . S
C197 H187 0.929 . S
C197 C193 1.377 . S
C197 C196 1.394 . S
H198 C206 0.929 . S
H199 C208 0.930 . S
H200 C210 0.930 . S
H201 C213 0.929 . S
H202 C216 0.930 . S
H203 C218 0.960 . S
H204 C218 0.960 . S
H205 C218 0.960 . S
C206 H198 0.929 . S
C206 C207 1.377 . S
C206 C208 1.384 . S
C207 C206 1.377 . S
C207 C213 1.390 . S
C208 H199 0.930 . S
C208 C206 1.384 . S
C208 C209 1.372 . S
C209 C208 1.372 . S
C209 C210 1.400 . S
C209 C214 1.490 . S
C210 H200 0.930 . S
C210 C209 1.400 . S
C210 C213 1.386 . S
H211 C227 0.930 . S
H212 C228 0.931 . S
C213 H201 0.929 . S
C213 C207 1.390 . S
C213 C210 1.386 . S
C214 C209 1.490 . S
C214 C216 1.395 . S
C214 C217 1.403 . S
H215 C221 0.930 . S
C216 H202 0.930 . S
C216 C214 1.395 . S
C216 C219 1.403 . S
C217 C214 1.403 . S
C217 C218 1.524 . S
C217 C221 1.400 . S
C218 H203 0.960 . S
C218 H204 0.960 . S
C218 H205 0.960 . S
C218 C217 1.524 . S
C219 C216 1.403 . S
C219 C220 1.392 . S
C219 C223 1.495 . S
C220 C219 1.392 . S
C220 C221 1.385 . S
C220 C222 1.478 . S
C221 H215 0.930 . S
C221 C217 1.400 . S
C221 C220 1.385 . S
C222 C220 1.478 . S
C222 C224 1.381 . S
C222 C228 1.383 . S
C223 C219 1.495 . S
C223 H229 0.959 . S
C223 H230 0.961 . S
C223 H231 0.960 . S
C224 C222 1.381 . S
C224 C225 1.394 . S
C224 H232 0.930 . S
C225 C224 1.394 . S
C225 C226 1.383 . S
C225 H233 0.929 . S
C226 C225 1.383 . S
C226 C227 1.377 . S
C227 H211 0.930 . S
C227 C226 1.377 . S
C227 C228 1.379 . S
C228 H212 0.931 . S
C228 C222 1.383 . S
C228 C227 1.379 . S
H229 C223 0.959 . S
H230 C223 0.961 . S
H231 C223 0.960 . S
H232 C224 0.930 . S
H233 C225 0.929 . S
H234 C242 0.929 . S
H235 C244 0.930 . S
H236 C246 0.930 . S
H237 C249 0.929 . S
H238 C252 0.930 . S
H239 C254 0.960 . S
H240 C254 0.960 . S
H241 C254 0.960 . S
C242 H234 0.929 . S
C242 C243 1.377 . S
C242 C244 1.384 . S
C243 C242 1.377 . S
C243 C249 1.390 . S
C244 H235 0.930 . S
C244 C242 1.384 . S
C244 C245 1.372 . S
C245 C244 1.372 . S
C245 C246 1.400 . S
C245 C250 1.490 . S
C246 H236 0.930 . S
C246 C245 1.400 . S
C246 C249 1.386 . S
H247 C263 0.930 . S
H248 C264 0.931 . S
C249 H237 0.929 . S
C249 C243 1.390 . S
C249 C246 1.386 . S
C250 C245 1.490 . S
C250 C252 1.395 . S
C250 C253 1.403 . S
H251 C257 0.930 . S
C252 H238 0.930 . S
C252 C250 1.395 . S
C252 C255 1.403 . S
C253 C250 1.403 . S
C253 C254 1.524 . S
C253 C257 1.400 . S
C254 H239 0.960 . S
C254 H240 0.960 . S
C254 H241 0.960 . S
C254 C253 1.524 . S
C255 C252 1.403 . S
C255 C256 1.392 . S
C255 C259 1.495 . S
C256 C255 1.392 . S
C256 C257 1.385 . S
C256 C258 1.478 . S
C257 H251 0.930 . S
C257 C253 1.400 . S
C257 C256 1.385 . S
C258 C256 1.478 . S
C258 C260 1.381 . S
C258 C264 1.383 . S
C259 C255 1.495 . S
C259 H265 0.959 . S
C259 H266 0.961 . S
C259 H267 0.960 . S
C260 C258 1.381 . S
C260 C261 1.394 . S
C260 H268 0.930 . S
C261 C260 1.394 . S
C261 C262 1.383 . S
C261 H269 0.929 . S
C262 C261 1.383 . S
C262 C263 1.377 . S
C263 H247 0.930 . S
C263 C262 1.377 . S
C263 C264 1.379 . S
C264 H248 0.931 . S
C264 C258 1.383 . S
C264 C263 1.379 . S
H265 C259 0.959 . S
H266 C259 0.961 . S
H267 C259 0.960 . S
H268 C260 0.930 . S
H269 C261 0.929 . S
H270 C278 0.929 . S
H271 C280 0.930 . S
H272 C282 0.930 . S
H273 C285 0.929 . S
H274 C288 0.930 . S
H275 C290 0.960 . S
H276 C290 0.960 . S
H277 C290 0.960 . S
C278 H270 0.929 . S
C278 C279 1.377 . S
C278 C280 1.384 . S
C279 C278 1.377 . S
C279 C285 1.390 . S
C280 H271 0.930 . S
C280 C278 1.384 . S
C280 C281 1.372 . S
C281 C280 1.372 . S
C281 C282 1.400 . S
C281 C286 1.490 . S
C282 H272 0.930 . S
C282 C281 1.400 . S
C282 C285 1.386 . S
H283 C299 0.930 . S
H284 C300 0.931 . S
C285 H273 0.929 . S
C285 C279 1.390 . S
C285 C282 1.386 . S
C286 C281 1.490 . S
C286 C288 1.395 . S
C286 C289 1.403 . S
H287 C293 0.930 . S
C288 H274 0.930 . S
C288 C286 1.395 . S
C288 C291 1.403 . S
C289 C286 1.403 . S
C289 C290 1.524 . S
C289 C293 1.400 . S
C290 H275 0.960 . S
C290 H276 0.960 . S
C290 H277 0.960 . S
C290 C289 1.524 . S
C291 C288 1.403 . S
C291 C292 1.392 . S
C291 C295 1.495 . S
C292 C291 1.392 . S
C292 C293 1.385 . S
C292 C294 1.478 . S
C293 H287 0.930 . S
C293 C289 1.400 . S
C293 C292 1.385 . S
C294 C292 1.478 . S
C294 C296 1.381 . S
C294 C300 1.383 . S
C295 C291 1.495 . S
C295 H301 0.959 . S
C295 H302 0.961 . S
C295 H303 0.960 . S
C296 C294 1.381 . S
C296 C297 1.394 . S
C296 H304 0.930 . S
C297 C296 1.394 . S
C297 C298 1.383 . S
C297 H305 0.929 . S
C298 C297 1.383 . S
C298 C299 1.377 . S
C299 H283 0.930 . S
C299 C298 1.377 . S
C299 C300 1.379 . S
C300 H284 0.931 . S
C300 C294 1.383 . S
C300 C299 1.379 . S
H301 C295 0.959 . S
H302 C295 0.961 . S
H303 C295 0.960 . S
H304 C296 0.930 . S
H305 C297 0.929 . S
H306 C314 0.929 . S
H307 C316 0.930 . S
H308 C318 0.930 . S
H309 C321 0.929 . S
H310 C324 0.930 . S
H311 C326 0.960 . S
H312 C326 0.960 . S
H313 C326 0.960 . S
C314 H306 0.929 . S
C314 C315 1.377 . S
C314 C316 1.384 . S
C315 C314 1.377 . S
C315 C321 1.390 . S
C316 H307 0.930 . S
C316 C314 1.384 . S
C316 C317 1.372 . S
C317 C316 1.372 . S
C317 C318 1.400 . S
C317 C322 1.490 . S
C318 H308 0.930 . S
C318 C317 1.400 . S
C318 C321 1.386 . S
H319 C335 0.930 . S
H320 C336 0.931 . S
C321 H309 0.929 . S
C321 C315 1.390 . S
C321 C318 1.386 . S
C322 C317 1.490 . S
C322 C324 1.395 . S
C322 C325 1.403 . S
H323 C329 0.930 . S
C324 H310 0.930 . S
C324 C322 1.395 . S
C324 C327 1.403 . S
C325 C322 1.403 . S
C325 C326 1.524 . S
C325 C329 1.400 . S
C326 H311 0.960 . S
C326 H312 0.960 . S
C326 H313 0.960 . S
C326 C325 1.524 . S
C327 C324 1.403 . S
C327 C328 1.392 . S
C327 C331 1.495 . S
C328 C327 1.392 . S
C328 C329 1.385 . S
C328 C330 1.478 . S
C329 H323 0.930 . S
C329 C325 1.400 . S
C329 C328 1.385 . S
C330 C328 1.478 . S
C330 C332 1.381 . S
C330 C336 1.383 . S
C331 C327 1.495 . S
C331 H337 0.959 . S
C331 H338 0.961 . S
C331 H339 0.960 . S
C332 C330 1.381 . S
C332 C333 1.394 . S
C332 H340 0.930 . S
C333 C332 1.394 . S
C333 C334 1.383 . S
C333 H341 0.929 . S
C334 C333 1.383 . S
C334 C335 1.377 . S
C335 H319 0.930 . S
C335 C334 1.377 . S
C335 C336 1.379 . S
C336 H320 0.931 . S
C336 C330 1.383 . S
C336 C335 1.379 . S
H337 C331 0.959 . S
H338 C331 0.961 . S
H339 C331 0.960 . S
H340 C332 0.930 . S
H341 C333 0.929 . S
H342 C350 0.929 . S
H343 C352 0.930 . S
H344 C354 0.930 . S
H345 C357 0.929 . S
H346 C360 0.930 . S
H347 C362 0.960 . S
H348 C362 0.960 . S
H349 C362 0.960 . S
C350 H342 0.929 . S
C350 C351 1.377 . S
C350 C352 1.384 . S
C351 C350 1.377 . S
C351 C357 1.390 . S
C352 H343 0.930 . S
C352 C350 1.384 . S
C352 C353 1.372 . S
C353 C352 1.372 . S
C353 C354 1.400 . S
C353 C358 1.490 . S
C354 H344 0.930 . S
C354 C353 1.400 . S
C354 C357 1.386 . S
H355 C371 0.930 . S
H356 C372 0.931 . S
C357 H345 0.929 . S
C357 C351 1.390 . S
C357 C354 1.386 . S
C358 C353 1.490 . S
C358 C360 1.395 . S
C358 C361 1.403 . S
H359 C365 0.930 . S
C360 H346 0.930 . S
C360 C358 1.395 . S
C360 C363 1.403 . S
C361 C358 1.403 . S
C361 C362 1.524 . S
C361 C365 1.400 . S
C362 H347 0.960 . S
C362 H348 0.960 . S
C362 H349 0.960 . S
C362 C361 1.524 . S
C363 C360 1.403 . S
C363 C364 1.392 . S
C363 C367 1.495 . S
C364 C363 1.392 . S
C364 C365 1.385 . S
C364 C366 1.478 . S
C365 H359 0.930 . S
C365 C361 1.400 . S
C365 C364 1.385 . S
C366 C364 1.478 . S
C366 C368 1.381 . S
C366 C372 1.383 . S
C367 C363 1.495 . S
C367 H373 0.959 . S
C367 H374 0.961 . S
C367 H375 0.960 . S
C368 C366 1.381 . S
C368 C369 1.394 . S
C368 H376 0.930 . S
C369 C368 1.394 . S
C369 C370 1.383 . S
C369 H377 0.929 . S
C370 C369 1.383 . S
C370 C371 1.377 . S
C371 H355 0.930 . S
C371 C370 1.377 . S
C371 C372 1.379 . S
C372 H356 0.931 . S
C372 C366 1.383 . S
C372 C371 1.379 . S
H373 C367 0.959 . S
H374 C367 0.961 . S
H375 C367 0.960 . S
H376 C368 0.930 . S
H377 C369 0.929 . S
H378 C386 0.929 . S
H379 C388 0.930 . S
H380 C390 0.930 . S
H381 C393 0.929 . S
H382 C396 0.930 . S
H383 C398 0.960 . S
H384 C398 0.960 . S
H385 C398 0.960 . S
C386 H378 0.929 . S
C386 C387 1.377 . S
C386 C388 1.384 . S
C387 C386 1.377 . S
C387 C393 1.390 . S
C388 H379 0.930 . S
C388 C386 1.384 . S
C388 C389 1.372 . S
C389 C388 1.372 . S
C389 C390 1.400 . S
C389 C394 1.490 . S
C390 H380 0.930 . S
C390 C389 1.400 . S
C390 C393 1.386 . S
H391 C407 0.930 . S
H392 C408 0.931 . S
C393 H381 0.929 . S
C393 C387 1.390 . S
C393 C390 1.386 . S
C394 C389 1.490 . S
C394 C396 1.395 . S
C394 C397 1.403 . S
H395 C401 0.930 . S
C396 H382 0.930 . S
C396 C394 1.395 . S
C396 C399 1.403 . S
C397 C394 1.403 . S
C397 C398 1.524 . S
C397 C401 1.400 . S
C398 H383 0.960 . S
C398 H384 0.960 . S
C398 H385 0.960 . S
C398 C397 1.524 . S
C399 C396 1.403 . S
C399 C400 1.392 . S
C399 C403 1.495 . S
C400 C399 1.392 . S
C400 C401 1.385 . S
C400 C402 1.478 . S
C401 H395 0.930 . S
C401 C397 1.400 . S
C401 C400 1.385 . S
C402 C400 1.478 . S
C402 C404 1.381 . S
C402 C408 1.383 . S
C403 C399 1.495 . S
C403 H409 0.959 . S
C403 H410 0.961 . S
C403 H411 0.960 . S
C404 C402 1.381 . S
C404 C405 1.394 . S
C404 H412 0.930 . S
C405 C404 1.394 . S
C405 C406 1.383 . S
C405 H413 0.929 . S
C406 C405 1.383 . S
C406 C407 1.377 . S
C407 H391 0.930 . S
C407 C406 1.377 . S
C407 C408 1.379 . S
C408 H392 0.931 . S
C408 C402 1.383 . S
C408 C407 1.379 . S
H409 C403 0.959 . S
H410 C403 0.961 . S
H411 C403 0.960 . S
H412 C404 0.930 . S
H413 C405 0.929 . S
H414 C422 0.929 . S
H415 C424 0.930 . S
H416 C426 0.930 . S
H417 C429 0.929 . S
H418 C432 0.930 . S
H419 C434 0.960 . S
H420 C434 0.960 . S
H421 C434 0.960 . S
C422 H414 0.929 . S
C422 C423 1.377 . S
C422 C424 1.384 . S
C423 C422 1.377 . S
C423 C429 1.390 . S
C424 H415 0.930 . S
C424 C422 1.384 . S
C424 C425 1.372 . S
C425 C424 1.372 . S
C425 C426 1.400 . S
C425 C430 1.490 . S
C426 H416 0.930 . S
C426 C425 1.400 . S
C426 C429 1.386 . S
H427 C443 0.930 . S
H428 C444 0.931 . S
C429 H417 0.929 . S
C429 C423 1.390 . S
C429 C426 1.386 . S
C430 C425 1.490 . S
C430 C432 1.395 . S
C430 C433 1.403 . S
H431 C437 0.930 . S
C432 H418 0.930 . S
C432 C430 1.395 . S
C432 C435 1.403 . S
C433 C430 1.403 . S
C433 C434 1.524 . S
C433 C437 1.400 . S
C434 H419 0.960 . S
C434 H420 0.960 . S
C434 H421 0.960 . S
C434 C433 1.524 . S
C435 C432 1.403 . S
C435 C436 1.392 . S
C435 C439 1.495 . S
C436 C435 1.392 . S
C436 C437 1.385 . S
C436 C438 1.478 . S
C437 H431 0.930 . S
C437 C433 1.400 . S
C437 C436 1.385 . S
C438 C436 1.478 . S
C438 C440 1.381 . S
C438 C444 1.383 . S
C439 C435 1.495 . S
C439 H445 0.959 . S
C439 H446 0.961 . S
C439 H447 0.960 . S
C440 C438 1.381 . S
C440 C441 1.394 . S
C440 H448 0.930 . S
C441 C440 1.394 . S
C441 C442 1.383 . S
C441 H449 0.929 . S
C442 C441 1.383 . S
C442 C443 1.377 . S
C443 H427 0.930 . S
C443 C442 1.377 . S
C443 C444 1.379 . S
C444 H428 0.931 . S
C444 C438 1.383 . S
C444 C443 1.379 . S
H445 C439 0.959 . S
H446 C439 0.961 . S
H447 C439 0.960 . S
H448 C440 0.930 . S
H449 C441 0.929 . S
H450 C458 0.929 . S
H451 C460 0.930 . S
H452 C462 0.930 . S
H453 C465 0.929 . S
H454 C468 0.930 . S
H455 C470 0.960 . S
H456 C470 0.960 . S
H457 C470 0.960 . S
C458 H450 0.929 . S
C458 C459 1.377 . S
C458 C460 1.384 . S
C459 C458 1.377 . S
C459 C465 1.390 . S
C460 H451 0.930 . S
C460 C458 1.384 . S
C460 C461 1.372 . S
C461 C460 1.372 . S
C461 C462 1.400 . S
C461 C466 1.490 . S
C462 H452 0.930 . S
C462 C461 1.400 . S
C462 C465 1.386 . S
H463 C479 0.930 . S
H464 C480 0.931 . S
C465 H453 0.929 . S
C465 C459 1.390 . S
C465 C462 1.386 . S
C466 C461 1.490 . S
C466 C468 1.395 . S
C466 C469 1.403 . S
H467 C473 0.930 . S
C468 H454 0.930 . S
C468 C466 1.395 . S
C468 C471 1.403 . S
C469 C466 1.403 . S
C469 C470 1.524 . S
C469 C473 1.400 . S
C470 H455 0.960 . S
C470 H456 0.960 . S
C470 H457 0.960 . S
C470 C469 1.524 . S
C471 C468 1.403 . S
C471 C472 1.392 . S
C471 C475 1.495 . S
C472 C471 1.392 . S
C472 C473 1.385 . S
C472 C474 1.478 . S
C473 H467 0.930 . S
C473 C469 1.400 . S
C473 C472 1.385 . S
C474 C472 1.478 . S
C474 C476 1.381 . S
C474 C480 1.383 . S
C475 C471 1.495 . S
C475 H481 0.959 . S
C475 H482 0.961 . S
C475 H483 0.960 . S
C476 C474 1.381 . S
C476 C477 1.394 . S
C476 H484 0.930 . S
C477 C476 1.394 . S
C477 C478 1.383 . S
C477 H485 0.929 . S
C478 C477 1.383 . S
C478 C479 1.377 . S
C479 H463 0.930 . S
C479 C478 1.377 . S
C479 C480 1.379 . S
C480 H464 0.931 . S
C480 C474 1.383 . S
C480 C479 1.379 . S
H481 C475 0.959 . S
H482 C475 0.961 . S
H483 C475 0.960 . S
H484 C476 0.930 . S
H485 C477 0.929 . S
H486 C494 0.929 . S
H487 C496 0.930 . S
H488 C498 0.930 . S
H489 C501 0.929 . S
H490 C504 0.930 . S
H491 C506 0.960 . S
H492 C506 0.960 . S
H493 C506 0.960 . S
C494 H486 0.929 . S
C494 C495 1.377 . S
C494 C496 1.384 . S
C495 C494 1.377 . S
C495 C501 1.390 . S
C496 H487 0.930 . S
C496 C494 1.384 . S
C496 C497 1.372 . S
C497 C496 1.372 . S
C497 C498 1.400 . S
C497 C502 1.490 . S
C498 H488 0.930 . S
C498 C497 1.400 . S
C498 C501 1.386 . S
H499 C515 0.930 . S
H500 C516 0.931 . S
C501 H489 0.929 . S
C501 C495 1.390 . S
C501 C498 1.386 . S
C502 C497 1.490 . S
C502 C504 1.395 . S
C502 C505 1.403 . S
H503 C509 0.930 . S
C504 H490 0.930 . S
C504 C502 1.395 . S
C504 C507 1.403 . S
C505 C502 1.403 . S
C505 C506 1.524 . S
C505 C509 1.400 . S
C506 H491 0.960 . S
C506 H492 0.960 . S
C506 H493 0.960 . S
C506 C505 1.524 . S
C507 C504 1.403 . S
C507 C508 1.392 . S
C507 C511 1.495 . S
C508 C507 1.392 . S
C508 C509 1.385 . S
C508 C510 1.478 . S
C509 H503 0.930 . S
C509 C505 1.400 . S
C509 C508 1.385 . S
C510 C508 1.478 . S
C510 C512 1.381 . S
C510 C516 1.383 . S
C511 C507 1.495 . S
C511 H517 0.959 . S
C511 H518 0.961 . S
C511 H519 0.960 . S
C512 C510 1.381 . S
C512 C513 1.394 . S
C512 H520 0.930 . S
C513 C512 1.394 . S
C513 C514 1.383 . S
C513 H521 0.929 . S
C514 C513 1.383 . S
C514 C515 1.377 . S
C515 H499 0.930 . S
C515 C514 1.377 . S
C515 C516 1.379 . S
C516 H500 0.931 . S
C516 C510 1.383 . S
C516 C515 1.379 . S
H517 C511 0.959 . S
H518 C511 0.961 . S
H519 C511 0.960 . S
H520 C512 0.930 . S
H521 C513 0.929 . S
H522 C530 0.929 . S
H523 C532 0.930 . S
H524 C534 0.930 . S
H525 C537 0.929 . S
H526 C540 0.930 . S
H527 C542 0.960 . S
H528 C542 0.960 . S
H529 C542 0.960 . S
C530 H522 0.929 . S
C530 C531 1.377 . S
C530 C532 1.384 . S
C531 C530 1.377 . S
C531 C537 1.390 . S
C532 H523 0.930 . S
C532 C530 1.384 . S
C532 C533 1.372 . S
C533 C532 1.372 . S
C533 C534 1.400 . S
C533 C538 1.490 . S
C534 H524 0.930 . S
C534 C533 1.400 . S
C534 C537 1.386 . S
H535 C551 0.930 . S
H536 C552 0.931 . S
C537 H525 0.929 . S
C537 C531 1.390 . S
C537 C534 1.386 . S
C538 C533 1.490 . S
C538 C540 1.395 . S
C538 C541 1.403 . S
H539 C545 0.930 . S
C540 H526 0.930 . S
C540 C538 1.395 . S
C540 C543 1.403 . S
C541 C538 1.403 . S
C541 C542 1.524 . S
C541 C545 1.400 . S
C542 H527 0.960 . S
C542 H528 0.960 . S
C542 H529 0.960 . S
C542 C541 1.524 . S
C543 C540 1.403 . S
C543 C544 1.392 . S
C543 C547 1.495 . S
C544 C543 1.392 . S
C544 C545 1.385 . S
C544 C546 1.478 . S
C545 H539 0.930 . S
C545 C541 1.400 . S
C545 C544 1.385 . S
C546 C544 1.478 . S
C546 C548 1.381 . S
C546 C552 1.383 . S
C547 C543 1.495 . S
C547 H553 0.959 . S
C547 H554 0.961 . S
C547 H555 0.960 . S
C548 C546 1.381 . S
C548 C549 1.394 . S
C548 H556 0.930 . S
C549 C548 1.394 . S
C549 C550 1.383 . S
C549 H557 0.929 . S
C550 C549 1.383 . S
C550 C551 1.377 . S
C551 H535 0.930 . S
C551 C550 1.377 . S
C551 C552 1.379 . S
C552 H536 0.931 . S
C552 C546 1.383 . S
C552 C551 1.379 . S
H553 C547 0.959 . S
H554 C547 0.961 . S
H555 C547 0.960 . S
H556 C548 0.930 . S
H557 C549 0.929 . S
H558 C566 0.929 . S
H559 C568 0.930 . S
H560 C570 0.930 . S
H561 C573 0.929 . S
H562 C576 0.930 . S
H563 C578 0.960 . S
H564 C578 0.960 . S
H565 C578 0.960 . S
C566 H558 0.929 . S
C566 C567 1.377 . S
C566 C568 1.384 . S
C567 C566 1.377 . S
C567 C573 1.390 . S
C568 H559 0.930 . S
C568 C566 1.384 . S
C568 C569 1.372 . S
C569 C568 1.372 . S
C569 C570 1.400 . S
C569 C574 1.490 . S
C570 H560 0.930 . S
C570 C569 1.400 . S
C570 C573 1.386 . S
H571 C587 0.930 . S
H572 C588 0.931 . S
C573 H561 0.929 . S
C573 C567 1.390 . S
C573 C570 1.386 . S
C574 C569 1.490 . S
C574 C576 1.395 . S
C574 C577 1.403 . S
H575 C581 0.930 . S
C576 H562 0.930 . S
C576 C574 1.395 . S
C576 C579 1.403 . S
C577 C574 1.403 . S
C577 C578 1.524 . S
C577 C581 1.400 . S
C578 H563 0.960 . S
C578 H564 0.960 . S
C578 H565 0.960 . S
C578 C577 1.524 . S
C579 C576 1.403 . S
C579 C580 1.392 . S
C579 C583 1.495 . S
C580 C579 1.392 . S
C580 C581 1.385 . S
C580 C582 1.478 . S
C581 H575 0.930 . S
C581 C577 1.400 . S
C581 C580 1.385 . S
C582 C580 1.478 . S
C582 C584 1.381 . S
C582 C588 1.383 . S
C583 C579 1.495 . S
C583 H589 0.959 . S
C583 H590 0.961 . S
C583 H591 0.960 . S
C584 C582 1.381 . S
C584 C585 1.394 . S
C584 H592 0.930 . S
C585 C584 1.394 . S
C585 C586 1.383 . S
C585 H593 0.929 . S
C586 C585 1.383 . S
C586 C587 1.377 . S
C587 H571 0.930 . S
C587 C586 1.377 . S
C587 C588 1.379 . S
C588 H572 0.931 . S
C588 C582 1.383 . S
C588 C587 1.379 . S
H589 C583 0.959 . S
H590 C583 0.961 . S
H591 C583 0.960 . S
H592 C584 0.930 . S
H593 C585 0.929 . S
H594 C602 0.929 . S
H595 C604 0.930 . S
H596 C606 0.930 . S
H597 C609 0.929 . S
H598 C612 0.930 . S
H599 C614 0.960 . S
H600 C614 0.960 . S
H601 C614 0.960 . S
C602 H594 0.929 . S
C602 C603 1.377 . S
C602 C604 1.384 . S
C603 C602 1.377 . S
C603 C609 1.390 . S
C604 H595 0.930 . S
C604 C602 1.384 . S
C604 C605 1.372 . S
C605 C604 1.372 . S
C605 C606 1.400 . S
C605 C610 1.490 . S
C606 H596 0.930 . S
C606 C605 1.400 . S
C606 C609 1.386 . S
H607 C623 0.930 . S
H608 C624 0.931 . S
C609 H597 0.929 . S
C609 C603 1.390 . S
C609 C606 1.386 . S
C610 C605 1.490 . S
C610 C612 1.395 . S
C610 C613 1.403 . S
H611 C617 0.930 . S
C612 H598 0.930 . S
C612 C610 1.395 . S
C612 C615 1.403 . S
C613 C610 1.403 . S
C613 C614 1.524 . S
C613 C617 1.400 . S
C614 H599 0.960 . S
C614 H600 0.960 . S
C614 H601 0.960 . S
C614 C613 1.524 . S
C615 C612 1.403 . S
C615 C616 1.392 . S
C615 C619 1.495 . S
C616 C615 1.392 . S
C616 C617 1.385 . S
C616 C618 1.478 . S
C617 H611 0.930 . S
C617 C613 1.400 . S
C617 C616 1.385 . S
C618 C616 1.478 . S
C618 C620 1.381 . S
C618 C624 1.383 . S
C619 C615 1.495 . S
C619 H625 0.959 . S
C619 H626 0.961 . S
C619 H627 0.960 . S
C620 C618 1.381 . S
C620 C621 1.394 . S
C620 H628 0.930 . S
C621 C620 1.394 . S
C621 C622 1.383 . S
C621 H629 0.929 . S
C622 C621 1.383 . S
C622 C623 1.377 . S
C623 H607 0.930 . S
C623 C622 1.377 . S
C623 C624 1.379 . S
C624 H608 0.931 . S
C624 C618 1.383 . S
C624 C623 1.379 . S
H625 C619 0.959 . S
H626 C619 0.961 . S
H627 C619 0.960 . S
H628 C620 0.930 . S
H629 C621 0.929 . S
H630 C638 0.929 . S
H631 C640 0.930 . S
H632 C642 0.930 . S
H633 C645 0.929 . S
H634 C648 0.930 . S
H635 C650 0.960 . S
H636 C650 0.960 . S
H637 C650 0.960 . S
C638 H630 0.929 . S
C638 C639 1.377 1_655 S
C638 C640 1.384 . S
C639 C638 1.377 1_455 S
C639 C645 1.390 . S
C640 H631 0.930 . S
C640 C638 1.384 . S
C640 C641 1.372 1_655 S
C641 C640 1.372 1_455 S
C641 C642 1.400 . S
C641 C646 1.490 . S
C642 H632 0.930 . S
C642 C641 1.400 . S
C642 C645 1.386 . S
H643 C659 0.930 . S
H644 C660 0.931 . S
C645 H633 0.929 . S
C645 C639 1.390 . S
C645 C642 1.386 . S
C646 C641 1.490 . S
C646 C648 1.395 . S
C646 C649 1.403 . S
H647 C653 0.930 1_556 S
C648 H634 0.930 . S
C648 C646 1.395 . S
C648 C651 1.403 . S
C649 C646 1.403 . S
C649 C650 1.524 . S
C649 C653 1.400 . S
C650 H635 0.960 . S
C650 H636 0.960 . S
C650 H637 0.960 . S
C650 C649 1.524 . S
C651 C648 1.403 . S
C651 C652 1.392 1_554 S
C651 C655 1.495 1_554 S
C652 C651 1.392 1_556 S
C652 C653 1.385 1_556 S
C652 C654 1.478 . S
C653 H647 0.930 1_554 S
C653 C649 1.400 . S
C653 C652 1.385 1_554 S
C654 C652 1.478 . S
C654 C656 1.381 . S
C654 C660 1.383 . S
C655 C651 1.495 1_556 S
C655 H661 0.959 1_556 S
C655 H662 0.961 . S
C655 H663 0.960 . S
C656 C654 1.381 . S
C656 C657 1.394 . S
C656 H664 0.930 1_455 S
C657 C656 1.394 . S
C657 C658 1.383 . S
C657 H665 0.929 . S
C658 C657 1.383 . S
C658 C659 1.377 . S
C659 H643 0.930 . S
C659 C658 1.377 . S
C659 C660 1.379 . S
C660 H644 0.931 . S
C660 C654 1.383 . S
C660 C659 1.379 . S
H661 C655 0.959 1_554 S
H662 C655 0.961 . S
H663 C655 0.960 . S
H664 C656 0.930 1_655 S
H665 C657 0.929 . S
H666 C674 0.929 . S
H667 C676 0.930 . S
H668 C678 0.930 1_565 S
H669 C681 0.929 1_565 S
H670 C684 0.930 . S
H671 C686 0.960 . S
H672 C686 0.960 . S
H673 C686 0.960 . S
C674 H666 0.929 . S
C674 C675 1.377 . S
C674 C676 1.384 . S
C675 C674 1.377 . S
C675 C681 1.390 . S
C676 H667 0.930 . S
C676 C674 1.384 . S
C676 C677 1.372 . S
C677 C676 1.372 . S
C677 C678 1.400 . S
C677 C682 1.490 . S
C678 H668 0.930 1_545 S
C678 C677 1.400 . S
C678 C681 1.386 . S
H679 C695 0.930 1_565 S
H680 C696 0.931 . S
C681 H669 0.929 1_545 S
C681 C675 1.390 . S
C681 C678 1.386 . S
C682 C677 1.490 . S
C682 C684 1.395 . S
C682 C685 1.403 1_545 S
H683 C689 0.930 . S
C684 H670 0.930 . S
C684 C682 1.395 . S
C684 C687 1.403 . S
C685 C682 1.403 1_565 S
C685 C686 1.524 . S
C685 C689 1.400 . S
C686 H671 0.960 . S
C686 H672 0.960 . S
C686 H673 0.960 . S
C686 C685 1.524 . S
C687 C684 1.403 . S
C687 C688 1.392 . S
C687 C691 1.495 . S
C688 C687 1.392 . S
C688 C689 1.385 1_545 S
C688 C690 1.478 . S
C689 H683 0.930 . S
C689 C685 1.400 . S
C689 C688 1.385 1_565 S
C690 C688 1.478 . S
C690 C692 1.381 . S
C690 C696 1.383 . S
C691 C687 1.495 . S
C691 H697 0.959 . S
C691 H698 0.961 . S
C691 H699 0.960 . S
C692 C690 1.381 . S
C692 C693 1.394 . S
C692 H700 0.930 . S
C693 C692 1.394 . S
C693 C694 1.383 . S
C693 H701 0.929 . S
C694 C693 1.383 . S
C694 C695 1.377 . S
C695 H679 0.930 1_545 S
C695 C694 1.377 . S
C695 C696 1.379 . S
C696 H680 0.931 . S
C696 C690 1.383 . S
C696 C695 1.379 . S
H697 C691 0.959 . S
H698 C691 0.961 . S
H699 C691 0.960 . S
H700 C692 0.930 . S
H701 C693 0.929 . S
H702 C710 0.929 . S
H703 C712 0.930 . S
H704 C714 0.930 . S
H705 C717 0.929 . S
H706 C720 0.930 . S
H707 C722 0.960 . S
H708 C722 0.960 . S
H709 C722 0.960 . S
C710 H702 0.929 . S
C710 C711 1.377 . S
C710 C712 1.384 . S
C711 C710 1.377 . S
C711 C717 1.390 . S
C712 H703 0.930 . S
C712 C710 1.384 . S
C712 C713 1.372 . S
C713 C712 1.372 . S
C713 C714 1.400 . S
C713 C718 1.490 . S
C714 H704 0.930 . S
C714 C713 1.400 . S
C714 C717 1.386 . S
H715 C731 0.930 . S
H716 C732 0.931 . S
C717 H705 0.929 . S
C717 C711 1.390 . S
C717 C714 1.386 . S
C718 C713 1.490 . S
C718 C720 1.395 . S
C718 C721 1.403 . S
H719 C725 0.930 . S
C720 H706 0.930 . S
C720 C718 1.395 . S
C720 C723 1.403 . S
C721 C718 1.403 . S
C721 C722 1.524 . S
C721 C725 1.400 . S
C722 H707 0.960 . S
C722 H708 0.960 . S
C722 H709 0.960 . S
C722 C721 1.524 . S
C723 C720 1.403 . S
C723 C724 1.392 . S
C723 C727 1.495 . S
C724 C723 1.392 . S
C724 C725 1.385 . S
C724 C726 1.478 . S
C725 H719 0.930 . S
C725 C721 1.400 . S
C725 C724 1.385 . S
C726 C724 1.478 . S
C726 C728 1.381 . S
C726 C732 1.383 . S
C727 C723 1.495 . S
C727 H733 0.959 . S
C727 H734 0.961 . S
C727 H735 0.960 . S
C728 C726 1.381 . S
C728 C729 1.394 . S
C728 H736 0.930 . S
C729 C728 1.394 . S
C729 C730 1.383 . S
C729 H737 0.929 . S
C730 C729 1.383 . S
C730 C731 1.377 . S
C731 H715 0.930 . S
C731 C730 1.377 . S
C731 C732 1.379 . S
C732 H716 0.931 . S
C732 C726 1.383 . S
C732 C731 1.379 . S
H733 C727 0.959 . S
H734 C727 0.961 . S
H735 C727 0.960 . S
H736 C728 0.930 . S
H737 C729 0.929 . S
H738 C746 0.929 . S
H739 C748 0.930 . S
H740 C750 0.930 1_565 S
H741 C753 0.929 1_565 S
H742 C756 0.930 . S
H743 C758 0.960 . S
H744 C758 0.960 . S
H745 C758 0.960 . S
C746 H738 0.929 . S
C746 C747 1.377 . S
C746 C748 1.384 . S
C747 C746 1.377 . S
C747 C753 1.390 . S
C748 H739 0.930 . S
C748 C746 1.384 . S
C748 C749 1.372 . S
C749 C748 1.372 . S
C749 C750 1.400 . S
C749 C754 1.490 . S
C750 H740 0.930 1_545 S
C750 C749 1.400 . S
C750 C753 1.386 . S
H751 C767 0.930 . S
H752 C768 0.931 . S
C753 H741 0.929 1_545 S
C753 C747 1.390 . S
C753 C750 1.386 . S
C754 C749 1.490 . S
C754 C756 1.395 . S
C754 C757 1.403 1_545 S
H755 C761 0.930 . S
C756 H742 0.930 . S
C756 C754 1.395 . S
C756 C759 1.403 . S
C757 C754 1.403 1_565 S
C757 C758 1.524 . S
C757 C761 1.400 . S
C758 H743 0.960 . S
C758 H744 0.960 . S
C758 H745 0.960 . S
C758 C757 1.524 . S
C759 C756 1.403 . S
C759 C760 1.392 . S
C759 C763 1.495 . S
C760 C759 1.392 . S
C760 C761 1.385 1_545 S
C760 C762 1.478 . S
C761 H755 0.930 . S
C761 C757 1.400 . S
C761 C760 1.385 1_565 S
C762 C760 1.478 . S
C762 C764 1.381 . S
C762 C768 1.383 . S
C763 C759 1.495 . S
C763 H769 0.959 . S
C763 H770 0.961 . S
C763 H771 0.960 . S
C764 C762 1.381 . S
C764 C765 1.394 . S
C764 H772 0.930 . S
C765 C764 1.394 . S
C765 C766 1.383 . S
C765 H773 0.929 . S
C766 C765 1.383 . S
C766 C767 1.377 . S
C767 H751 0.930 . S
C767 C766 1.377 . S
C767 C768 1.379 . S
C768 H752 0.931 . S
C768 C762 1.383 . S
C768 C767 1.379 . S
H769 C763 0.959 . S
H770 C763 0.961 . S
H771 C763 0.960 . S
H772 C764 0.930 . S
H773 C765 0.929 . S
H774 C782 0.929 . S
H775 C784 0.930 . S
H776 C786 0.930 . S
H777 C789 0.929 . S
H778 C792 0.930 . S
H779 C794 0.960 . S
H780 C794 0.960 . S
H781 C794 0.960 . S
C782 H774 0.929 . S
C782 C783 1.377 . S
C782 C784 1.384 . S
C783 C782 1.377 . S
C783 C789 1.390 . S
C784 H775 0.930 . S
C784 C782 1.384 . S
C784 C785 1.372 . S
C785 C784 1.372 . S
C785 C786 1.400 . S
C785 C790 1.490 . S
C786 H776 0.930 . S
C786 C785 1.400 . S
C786 C789 1.386 . S
H787 C803 0.930 . S
H788 C804 0.931 . S
C789 H777 0.929 . S
C789 C783 1.390 . S
C789 C786 1.386 . S
C790 C785 1.490 . S
C790 C792 1.395 . S
C790 C793 1.403 . S
H791 C797 0.930 1_554 S
C792 H778 0.930 . S
C792 C790 1.395 . S
C792 C795 1.403 . S
C793 C790 1.403 . S
C793 C794 1.524 . S
C793 C797 1.400 . S
C794 H779 0.960 . S
C794 H780 0.960 . S
C794 H781 0.960 . S
C794 C793 1.524 . S
C795 C792 1.403 . S
C795 C796 1.392 1_556 S
C795 C799 1.495 . S
C796 C795 1.392 1_554 S
C796 C797 1.385 1_554 S
C796 C798 1.478 . S
C797 H791 0.930 1_556 S
C797 C793 1.400 . S
C797 C796 1.385 1_556 S
C798 C796 1.478 . S
C798 C800 1.381 . S
C798 C804 1.383 . S
C799 C795 1.495 . S
C799 H805 0.959 . S
C799 H806 0.961 1_556 S
C799 H807 0.960 1_556 S
C800 C798 1.381 . S
C800 C801 1.394 . S
C800 H808 0.930 . S
C801 C800 1.394 . S
C801 C802 1.383 . S
C801 H809 0.929 . S
C802 C801 1.383 . S
C802 C803 1.377 . S
C803 H787 0.930 . S
C803 C802 1.377 . S
C803 C804 1.379 . S
C804 H788 0.931 . S
C804 C798 1.383 . S
C804 C803 1.379 . S
H805 C799 0.959 . S
H806 C799 0.961 1_554 S
H807 C799 0.960 1_554 S
H808 C800 0.930 . S
H809 C801 0.929 . S
H810 C818 0.929 . S
H811 C820 0.930 . S
H812 C822 0.930 . S
H813 C825 0.929 . S
H814 C828 0.930 . S
H815 C830 0.960 . S
H816 C830 0.960 . S
H817 C830 0.960 . S
C818 H810 0.929 . S
C818 C819 1.377 . S
C818 C820 1.384 . S
C819 C818 1.377 . S
C819 C825 1.390 1_655 S
C820 H811 0.930 . S
C820 C818 1.384 . S
C820 C821 1.372 1_655 S
C821 C820 1.372 1_455 S
C821 C822 1.400 . S
C821 C826 1.490 . S
C822 H812 0.930 . S
C822 C821 1.400 . S
C822 C825 1.386 . S
H823 C839 0.930 . S
H824 C840 0.931 . S
C825 H813 0.929 . S
C825 C819 1.390 1_455 S
C825 C822 1.386 . S
C826 C821 1.490 . S
C826 C828 1.395 . S
C826 C829 1.403 1_455 S
H827 C833 0.930 . S
C828 H814 0.930 . S
C828 C826 1.395 . S
C828 C831 1.403 . S
C829 C826 1.403 1_655 S
C829 C830 1.524 . S
C829 C833 1.400 . S
C830 H815 0.960 . S
C830 H816 0.960 . S
C830 H817 0.960 . S
C830 C829 1.524 . S
C831 C828 1.403 . S
C831 C832 1.392 . S
C831 C835 1.495 . S
C832 C831 1.392 . S
C832 C833 1.385 1_455 S
C832 C834 1.478 . S
C833 H827 0.930 . S
C833 C829 1.400 . S
C833 C832 1.385 1_655 S
C834 C832 1.478 . S
C834 C836 1.381 . S
C834 C840 1.383 . S
C835 C831 1.495 . S
C835 H841 0.959 . S
C835 H842 0.961 . S
C835 H843 0.960 . S
C836 C834 1.381 . S
C836 C837 1.394 . S
C836 H844 0.930 . S
C837 C836 1.394 . S
C837 C838 1.383 . S
C837 H845 0.929 . S
C838 C837 1.383 . S
C838 C839 1.377 . S
C839 H823 0.930 . S
C839 C838 1.377 . S
C839 C840 1.379 . S
C840 H824 0.931 . S
C840 C834 1.383 . S
C840 C839 1.379 . S
H841 C835 0.959 . S
H842 C835 0.961 . S
H843 C835 0.960 . S
H844 C836 0.930 . S
H845 C837 0.929 . S
C207 C6 0.490 . S
C226 C189 0.586 . S
C243 C59 1.790 . S
C262 C167 1.746 1_655 S
C279 C86 1.101 . S
C298 C180 1.092 . S
C315 C15 0.316 . S
C334 C193 0.243 . S
C370 C163 1.894 . S
C351 C50 2.003 . S
C406 C176 1.206 . S
C387 C95 1.313 . S
C423 C46 1.050 . S
C442 C141 1.054 . S
C459 C99 2.984 . S
C478 C154 2.947 1_655 S
C495 C10 1.999 . S
C514 C124 1.883 . S
C550 C137 1.298 . S
C531 C55 1.322 . S
C586 C150 2.874 . S
C567 C90 3.027 . S
C603 C19 1.795 . S
C622 C128 1.769 . S
C658 C155 1.725 . S
C639 C18 1.690 . S
C675 C49 1.467 . S
C694 C129 1.490 . S
C711 C98 1.510 . S
C730 C142 1.592 . S
C766 C181 1.548 . S
C747 C58 1.479 . S
C802 C194 1.355 . S
C783 C89 1.327 . S
C819 C9 1.440 1_655 S
C838 C168 1.488 . S
