# Generated by pormake.
# Topology pyr, (3,6)-cn, num edge types: 1
# Building blocks:
#     Node 0, Type 0, BuildingBlock: PAMTOO_clean_linker_0, # of connection points: 3
#     Node 1, Type 0, BuildingBlock: PAMTOO_clean_linker_0, # of connection points: 3
#     Node 2, Type 0, BuildingBlock: PAMTOO_clean_linker_0, # of connection points: 3
#     Node 3, Type 0, BuildingBlock: PAMTOO_clean_linker_0, # of connection points: 3
#     Node 4, Type 0, BuildingBlock: PAMTOO_clean_linker_0, # of connection points: 3
#     Node 5, Type 0, BuildingBlock: PAMTOO_clean_linker_0, # of connection points: 3
#     Node 6, Type 0, BuildingBlock: PAMTOO_clean_linker_0, # of connection points: 3
#     Node 7, Type 0, BuildingBlock: PAMTOO_clean_linker_0, # of connection points: 3
#     Node 8, Type 1, BuildingBlock: MIDCAF_clean_sbu_0, # of connection points: 6
#     Node 9, Type 1, BuildingBlock: MIDCAF_clean_sbu_0, # of connection points: 6
#     Node 10, Type 1, BuildingBlock: MIDCAF_clean_sbu_0, # of connection points: 6
#     Node 11, Type 1, BuildingBlock: MIDCAF_clean_sbu_0, # of connection points: 6
#     Edge 12, Type (0, 1), BuildingBlock: KIFKEQ_clean_linker_1, # of connection points: 2
#     Edge 13, Type (0, 1), BuildingBlock: KIFKEQ_clean_linker_1, # of connection points: 2
#     Edge 14, Type (0, 1), BuildingBlock: KIFKEQ_clean_linker_1, # of connection points: 2
#     Edge 15, Type (0, 1), BuildingBlock: KIFKEQ_clean_linker_1, # of connection points: 2
#     Edge 16, Type (0, 1), BuildingBlock: KIFKEQ_clean_linker_1, # of connection points: 2
#     Edge 17, Type (0, 1), BuildingBlock: KIFKEQ_clean_linker_1, # of connection points: 2
#     Edge 18, Type (0, 1), BuildingBlock: KIFKEQ_clean_linker_1, # of connection points: 2
#     Edge 19, Type (0, 1), BuildingBlock: KIFKEQ_clean_linker_1, # of connection points: 2
#     Edge 20, Type (0, 1), BuildingBlock: KIFKEQ_clean_linker_1, # of connection points: 2
#     Edge 21, Type (0, 1), BuildingBlock: KIFKEQ_clean_linker_1, # of connection points: 2
#     Edge 22, Type (0, 1), BuildingBlock: KIFKEQ_clean_linker_1, # of connection points: 2
#     Edge 23, Type (0, 1), BuildingBlock: KIFKEQ_clean_linker_1, # of connection points: 2
#     Edge 24, Type (0, 1), BuildingBlock: KIFKEQ_clean_linker_1, # of connection points: 2
#     Edge 25, Type (0, 1), BuildingBlock: KIFKEQ_clean_linker_1, # of connection points: 2
#     Edge 26, Type (0, 1), BuildingBlock: KIFKEQ_clean_linker_1, # of connection points: 2
#     Edge 27, Type (0, 1), BuildingBlock: KIFKEQ_clean_linker_1, # of connection points: 2
#     Edge 28, Type (0, 1), BuildingBlock: KIFKEQ_clean_linker_1, # of connection points: 2
#     Edge 29, Type (0, 1), BuildingBlock: KIFKEQ_clean_linker_1, # of connection points: 2
#     Edge 30, Type (0, 1), BuildingBlock: KIFKEQ_clean_linker_1, # of connection points: 2
#     Edge 31, Type (0, 1), BuildingBlock: KIFKEQ_clean_linker_1, # of connection points: 2
#     Edge 32, Type (0, 1), BuildingBlock: KIFKEQ_clean_linker_1, # of connection points: 2
#     Edge 33, Type (0, 1), BuildingBlock: KIFKEQ_clean_linker_1, # of connection points: 2
#     Edge 34, Type (0, 1), BuildingBlock: KIFKEQ_clean_linker_1, # of connection points: 2
#     Edge 35, Type (0, 1), BuildingBlock: KIFKEQ_clean_linker_1, # of connection points: 2
# Relax obj value: 0.095
# Max RMSD: 0.201
# Mean RMSD: 0.141
data_MOF--net-pyr--node1-MIDCAF_clean_sbu_0--node2-PAMTOO_clean_linker_0--edge1-KIFKEQ_clean_linker_1
_symmetry_space_group_name_H-M    P1
_symmetry_Int_Tables_number       1
_symmetry_cell_setting            triclinic
loop_
_symmetry_equiv_pos_as_xyz
'x, y, z'
_cell_length_a     35.112389
_cell_length_b     36.387049
_cell_length_c     35.85193
_cell_angle_alpha  89.810517
_cell_angle_beta   91.207498
_cell_angle_gamma 95.006297
loop_
_atom_site_label
_atom_site_type_symbol
_atom_site_fract_x
_atom_site_fract_y
_atom_site_fract_z
_atom_type_partial_charge
H0 H 0.20183 0.26846 0.2746 0.0
H1 H 0.28487 0.18889 0.28628 0.0
H2 H 0.2985 0.27159 0.20157 0.0
H3 H 0.30254 0.19383 0.17805 0.0
C4 C 0.31812 0.18382 0.20292 0.0
O5 O 0.32451 0.21197 0.22873 0.0
H6 H 0.29981 0.16074 0.21558 0.0
C7 C 0.22838 0.2583 0.26612 0.0
C8 C 0.24849 0.27492 0.23581 0.0
C9 C 0.24153 0.22772 0.28509 0.0
C10 C 0.27508 0.21333 0.27315 0.0
C11 C 0.29483 0.22871 0.24255 0.0
C12 C 0.28217 0.25985 0.22465 0.0
H13 H 0.28164 0.88483 0.75169 0.0
H14 H 0.2877 0.81412 0.65612 0.0
H15 H 0.37577 0.81715 0.74038 0.0
H16 H 0.39721 0.82635 0.65793 0.0
C17 C 0.3761 0.80421 0.64687 0.0
O18 O 0.35287 0.79039 0.6752 0.0
H19 H 0.35846 0.81684 0.62495 0.0
C20 C 0.29576 0.86438 0.73655 0.0
C21 C 0.32996 0.85175 0.75125 0.0
C22 C 0.28038 0.85157 0.70186 0.0
C23 C 0.29906 0.82493 0.68259 0.0
C24 C 0.33349 0.81304 0.69622 0.0
C25 C 0.34871 0.82615 0.73054 0.0
H26 H 0.8037 0.25037 0.85988 0.0
H27 H 0.7085 0.26007 0.78377 0.0
H28 H 0.79692 0.3479 0.79188 0.0
H29 H 0.71432 0.36507 0.8033 0.0
C30 C 0.70101 0.34632 0.78126 0.0
O31 O 0.72875 0.32746 0.76484 0.0
H32 H 0.6798 0.32645 0.79504 0.0
C33 C 0.78989 0.2652 0.83793 0.0
C34 C 0.80607 0.30032 0.82673 0.0
C35 C 0.75443 0.25041 0.82299 0.0
C36 C 0.73581 0.2707 0.7958 0.0
C37 C 0.7505 0.30611 0.78582 0.0
C38 C 0.78586 0.32054 0.80049 0.0
H39 H 0.81545 0.75236 0.36184 0.0
H40 H 0.8274 0.67023 0.27738 0.0
H41 H 0.88333 0.77842 0.26495 0.0
H42 H 0.86037 0.74175 0.18957 0.0
C43 C 0.85584 0.71341 0.20128 0.0
O44 O 0.87283 0.71274 0.2363 0.0
H45 H 0.82448 0.70584 0.2028 0.0
C46 C 0.82644 0.74442 0.33535 0.0
C47 C 0.85083 0.77001 0.31555 0.0
C48 C 0.81728 0.70825 0.32183 0.0
C49 C 0.83262 0.69816 0.28781 0.0
C50 C 0.85607 0.7236 0.26748 0.0
C51 C 0.86476 0.75936 0.28104 0.0
H52 H 0.88036 0.9329 0.83411 0.0
H53 H 0.85845 0.85345 0.92255 0.0
H54 H 0.94516 0.83808 0.84321 0.0
H55 H 0.88935 0.77082 0.87032 0.0
C56 C 0.89228 0.77813 0.90045 0.0
O57 O 0.91219 0.81243 0.90419 0.0
H58 H 0.86326 0.77892 0.91208 0.0
C59 C 0.88591 0.90739 0.8481 0.0
C60 C 0.91467 0.88662 0.83469 0.0
C61 C 0.86499 0.89579 0.87978 0.0
C62 C 0.87393 0.86321 0.89812 0.0
C63 C 0.9026 0.84245 0.88494 0.0
C64 C 0.92265 0.85396 0.85301 0.0
H65 H 0.71729 0.11923 0.31817 0.0
H66 H 0.67605 0.22627 0.30174 0.0
H67 H 0.77008 0.21383 0.37764 0.0
H68 H 0.73061 0.26905 0.40658 0.0
C69 C 0.70853 0.27033 0.38403 0.0
O70 O 0.72356 0.25991 0.35075 0.0
H71 H 0.68375 0.25078 0.39191 0.0
C72 C 0.71931 0.14849 0.32433 0.0
C73 C 0.74695 0.16346 0.35028 0.0
C74 C 0.69399 0.17101 0.30633 0.0
C75 C 0.69585 0.20876 0.31493 0.0
C76 C 0.72303 0.22394 0.34098 0.0
C77 C 0.74894 0.20152 0.35791 0.0
H78 H 0.34189 0.69329 0.12447 0.0
H79 H 0.3308 0.67032 0.24181 0.0
H80 H 0.38317 0.77496 0.20585 0.0
H81 H 0.40716 0.76795 0.28731 0.0
C82 C 0.40045 0.7384 0.28002 0.0
O83 O 0.36427 0.73439 0.26367 0.0
H84 H 0.42273 0.73127 0.26021 0.0
C85 C 0.34692 0.70175 0.15325 0.0
C86 C 0.36439 0.73714 0.16127 0.0
C87 C 0.3344 0.67764 0.18205 0.0
C88 C 0.34027 0.6887 0.21937 0.0
C89 C 0.35799 0.72377 0.22774 0.0
C90 C 0.3692 0.74809 0.19879 0.0
H91 H 0.1479 0.30277 0.70811 0.0
H92 H 0.24232 0.36739 0.76081 0.0
H93 H 0.2581 0.31525 0.65614 0.0
H94 H 0.31584 0.30849 0.71854 0.0
C95 C 0.32158 0.33893 0.72166 0.0
O96 O 0.29087 0.3569 0.7087 0.0
H97 H 0.32657 0.34515 0.7518 0.0
C98 C 0.17751 0.31397 0.70787 0.0
C99 C 0.20105 0.30574 0.67818 0.0
C100 C 0.19196 0.33623 0.73775 0.0
C101 C 0.23072 0.34961 0.73838 0.0
C102 C 0.25437 0.34174 0.7091 0.0
C103 C 0.23956 0.32016 0.67902 0.0
Zn104 Zn 0.99082 0.06993 0.55763 0.0
Zn105 Zn 0.06558 0.98372 0.47608 0.0
Zn106 Zn 0.0295 0.02621 0.51836 0.0
C107 C 0.09606 0.05538 0.46139 0.0
C108 C 0.99056 0.97349 0.45221 0.0
O109 O 0.02764 0.00329 0.57635 0.0
O110 O 0.99382 0.04269 0.60513 0.0
C111 C 0.05515 0.11264 0.53432 0.0
O112 O 0.07518 0.06183 0.48943 0.0
O113 O 0.09642 0.02293 0.44919 0.0
O114 O 0.02193 0.95993 0.4475 0.0
O115 O 0.98808 0.99935 0.47635 0.0
O116 O 0.02496 0.11572 0.55208 0.0
O117 O 0.06132 0.08164 0.51923 0.0
O118 O 0.97067 0.02788 0.49317 0.0
O119 O 0.94193 0.06541 0.52956 0.0
C120 C 0.94117 0.04498 0.50116 0.0
O121 O 0.05415 0.98503 0.55598 0.0
O122 O 0.08866 0.95569 0.5168 0.0
C123 C 0.01152 0.01394 0.606 0.0
C124 C 0.07799 0.96085 0.54966 0.0
Zn125 Zn 0.51187 0.05358 0.97031 0.0
Zn126 Zn 0.5896 0.96433 0.05198 0.0
Zn127 Zn 0.55029 0.00829 0.01061 0.0
C128 C 0.63817 0.98882 0.99582 0.0
C129 C 0.52363 0.92246 0.02662 0.0
O130 O 0.52813 0.05056 0.04804 0.0
O131 O 0.49764 0.0868 0.01031 0.0
C132 C 0.58551 0.05648 0.94165 0.0
O133 O 0.60866 0.00598 0.98674 0.0
O134 O 0.63767 0.96821 0.02419 0.0
O135 O 0.55375 0.91962 0.0459 0.0
O136 O 0.51775 0.9533 0.01063 0.0
O137 O 0.55388 0.06997 0.93646 0.0
O138 O 0.58954 0.03284 0.96796 0.0
O139 O 0.50138 0.9748 0.98262 0.0
O140 O 0.47175 0.01662 0.95106 0.0
C141 C 0.47426 0.98338 0.96022 0.0
O142 O 0.55609 0.03209 0.06778 0.0
O143 O 0.58936 0.99272 0.09892 0.0
C144 C 0.50775 0.07813 0.04294 0.0
C145 C 0.57313 0.02234 0.09802 0.0
Zn146 Zn 0.60344 0.57742 0.55494 0.0
Zn147 Zn 0.50545 0.49025 0.47224 0.0
Zn148 Zn 0.55443 0.53412 0.51416 0.0
C149 C 0.57813 0.48786 0.44202 0.0
C150 C 0.48048 0.56133 0.46961 0.0
O151 O 0.52851 0.58714 0.52242 0.0
O152 O 0.57068 0.61877 0.55924 0.0
C153 C 0.58559 0.51394 0.59694 0.0
O154 O 0.58679 0.51164 0.46813 0.0
O155 O 0.54395 0.4745 0.43729 0.0
O156 O 0.47258 0.52935 0.45646 0.0
O157 O 0.50891 0.56767 0.49276 0.0
O158 O 0.60685 0.54375 0.59791 0.0
O159 O 0.56304 0.50641 0.56861 0.0
O160 O 0.6085 0.54266 0.48334 0.0
O161 O 0.64558 0.58111 0.51888 0.0
C162 C 0.64018 0.5627 0.48917 0.0
O163 O 0.53126 0.48837 0.54992 0.0
O164 O 0.48916 0.45607 0.51342 0.0
C165 C 0.53873 0.61606 0.54216 0.0
C166 C 0.50545 0.46131 0.54494 0.0
Zn167 Zn 0.10578 0.53762 0.97684 0.0
Zn168 Zn 0.01682 0.44912 0.06695 0.0
Zn169 Zn 0.06179 0.4941 0.02143 0.0
C170 C 0.09319 0.44767 0.09199 0.0
C171 C 0.00836 0.42185 0.99322 0.0
O172 O 0.03672 0.54822 0.01597 0.0
O173 O 0.07509 0.58075 0.97758 0.0
C174 C 0.15056 0.52087 0.03943 0.0
O175 O 0.09872 0.47164 0.06563 0.0
O176 O 0.05997 0.43324 0.09848 0.0
O177 O 0.99598 0.41597 0.02574 0.0
O178 O 0.03383 0.44878 0.98706 0.0
O179 O 0.15233 0.53881 0.0092 0.0
O180 O 0.1194 0.50163 0.04809 0.0
O181 O 0.06365 0.46682 0.96645 0.0
O182 O 0.10152 0.50495 0.93261 0.0
C183 C 0.08111 0.47482 0.93581 0.0
O184 O 0.01827 0.52723 0.04452 0.0
O185 O 0.98599 0.48951 0.08359 0.0
C186 C 0.04551 0.57796 0.99716 0.0
C187 C 0.99203 0.52108 0.06893 0.0
H188 H 0.26714 0.20156 0.3522 0.0
H189 H 0.1642 0.21054 0.28596 0.0
H190 H 0.23011 0.16467 0.39839 0.0
H191 H 0.12733 0.17436 0.33225 0.0
H192 H 0.09507 0.06081 0.38679 0.0
H193 H 0.12849 0.10722 0.34771 0.0
H194 H 0.17517 0.16447 0.44598 0.0
H195 H 0.14133 0.11717 0.48548 0.0
C196 C 0.23657 0.19606 0.34774 0.0
C197 C 0.21868 0.20882 0.31527 0.0
C198 C 0.21534 0.17528 0.37438 0.0
C199 C 0.17585 0.1665 0.36887 0.0
C200 C 0.15777 0.1805 0.33715 0.0
C201 C 0.17888 0.20146 0.31074 0.0
C202 C 0.11224 0.08344 0.40015 0.0
C203 C 0.1154 0.08558 0.43922 0.0
C204 C 0.13115 0.11021 0.37773 0.0
C205 C 0.15423 0.13969 0.39371 0.0
C206 C 0.15746 0.14207 0.43291 0.0
C207 C 0.13785 0.11533 0.45552 0.0
H208 H 0.33563 0.92335 0.77513 0.0
H209 H 0.36464 0.81476 0.80786 0.0
H210 H 0.36631 0.94898 0.83166 0.0
H211 H 0.39549 0.84055 0.86499 0.0
H212 H 0.48984 0.91609 0.93297 0.0
H213 H 0.45153 0.87999 0.88578 0.0
H214 H 0.36063 0.9516 0.89766 0.0
H215 H 0.39943 0.98814 0.94341 0.0
C216 C 0.34791 0.90477 0.79476 0.0
C217 C 0.34739 0.86693 0.78694 0.0
C218 C 0.36555 0.91948 0.82736 0.0
C219 C 0.38314 0.89682 0.85327 0.0
C220 C 0.38248 0.85888 0.84562 0.0
C221 C 0.3648 0.84411 0.81285 0.0
C222 C 0.46119 0.92329 0.92626 0.0
C223 C 0.44776 0.95515 0.94142 0.0
C224 C 0.43923 0.90271 0.89911 0.0
C225 C 0.40337 0.91354 0.88704 0.0
C226 C 0.38859 0.94318 0.90528 0.0
C227 C 0.41063 0.96388 0.93187 0.0
H228 H 0.63378 0.32711 0.74268 0.0
H229 H 0.72374 0.415 0.7553 0.0
H230 H 0.59897 0.3656 0.69978 0.0
H231 H 0.68958 0.45328 0.71224 0.0
H232 H 0.60673 0.5281 0.66883 0.0
H233 H 0.63107 0.48524 0.71377 0.0
H234 H 0.60292 0.39528 0.63694 0.0
H235 H 0.57794 0.43841 0.59192 0.0
C236 C 0.64611 0.35462 0.73602 0.0
C237 C 0.681 0.36852 0.75268 0.0
C238 C 0.62629 0.37657 0.71149 0.0
C239 C 0.64113 0.41274 0.70323 0.0
C240 C 0.67684 0.4259 0.71885 0.0
C241 C 0.69659 0.40398 0.74322 0.0
C242 C 0.60489 0.49903 0.66187 0.0
C243 C 0.59077 0.48664 0.62677 0.0
C244 C 0.61917 0.47454 0.68746 0.0
C245 C 0.61993 0.43708 0.67846 0.0
C246 C 0.60286 0.42404 0.6446 0.0
C247 C 0.58835 0.44868 0.6189 0.0
H248 H 0.8987 0.72593 0.13819 0.0
H249 H 0.85204 0.63907 0.21039 0.0
H250 H 0.92882 0.68062 0.10098 0.0
H251 H 0.88313 0.5939 0.17445 0.0
H252 H 0.918 0.51495 0.08994 0.0
H253 H 0.88229 0.56242 0.11692 0.0
H254 H 0.98037 0.6418 0.10509 0.0
H255 H 0.01559 0.59427 0.07713 0.0
C256 C 0.89484 0.69707 0.14594 0.0
C257 C 0.87301 0.68582 0.17699 0.0
C258 C 0.91229 0.67115 0.12486 0.0
C259 C 0.90842 0.63352 0.13461 0.0
C260 C 0.88616 0.62245 0.16556 0.0
C261 C 0.86855 0.64828 0.18638 0.0
C262 C 0.93169 0.54269 0.09271 0.0
C263 C 0.96949 0.55099 0.08141 0.0
C264 C 0.91135 0.56987 0.10839 0.0
C265 C 0.92856 0.6059 0.11374 0.0
C266 C 0.96601 0.6145 0.1011 0.0
C267 C 0.98626 0.58729 0.08507 0.0
H268 H 0.33545 0.11243 0.19566 0.0
H269 H 0.38267 0.22446 0.1786 0.0
H270 H 0.38935 0.08967 0.16413 0.0
H271 H 0.43771 0.20181 0.14794 0.0
H272 H 0.48502 0.1476 0.04299 0.0
H273 H 0.44636 0.17495 0.0889 0.0
H274 H 0.45571 0.08053 0.16092 0.0
H275 H 0.49327 0.05239 0.11385 0.0
C276 C 0.35808 0.13217 0.18616 0.0
C277 C 0.35506 0.17022 0.18992 0.0
C278 C 0.38919 0.11912 0.1682 0.0
C279 C 0.41805 0.14382 0.1533 0.0
C280 C 0.41586 0.18194 0.15865 0.0
C281 C 0.38455 0.19499 0.17651 0.0
C282 C 0.4795 0.13297 0.06895 0.0
C283 C 0.49212 0.09773 0.07465 0.0
C284 C 0.45749 0.14883 0.09553 0.0
C285 C 0.44743 0.12988 0.12863 0.0
C286 C 0.46233 0.09568 0.1355 0.0
C287 C 0.48433 0.07972 0.10873 0.0
H288 H 0.26975 0.8686 0.62847 0.0
H289 H 0.21473 0.87191 0.73501 0.0
H290 H 0.21438 0.89174 0.59808 0.0
H291 H 0.15915 0.8966 0.70408 0.0
H292 H 0.09814 0.98442 0.62095 0.0
H293 H 0.14358 0.9564 0.66329 0.0
H294 H 0.14498 0.86409 0.58823 0.0
H295 H 0.10022 0.89182 0.54631 0.0
C296 C 0.24569 0.87385 0.64547 0.0
C297 C 0.24653 0.86747 0.68418 0.0
C298 C 0.21395 0.88734 0.62798 0.0
C299 C 0.18216 0.89537 0.64861 0.0
C300 C 0.18324 0.89047 0.68751 0.0
C301 C 0.21509 0.87644 0.70515 0.0
C302 C 0.10718 0.95755 0.61428 0.0
C303 C 0.0961 0.94051 0.58011 0.0
C304 C 0.13324 0.94159 0.63841 0.0
C305 C 0.14842 0.90849 0.62855 0.0
C306 C 0.13435 0.88997 0.59616 0.0
C307 C 0.1086 0.9058 0.57223 0.0
H308 H 0.86967 0.26595 0.84891 0.0
H309 H 0.82441 0.37276 0.84619 0.0
H310 H 0.92613 0.2928 0.8834 0.0
H311 H 0.88125 0.39944 0.8791 0.0
H312 H 0.9965 0.44412 0.92132 0.0
H313 H 0.95349 0.41281 0.87464 0.0
H314 H 0.93378 0.31979 0.94893 0.0
H315 H 0.9767 0.35099 0.99546 0.0
C316 C 0.87178 0.29513 0.85532 0.0
C317 C 0.84221 0.31705 0.84474 0.0
C318 C 0.90428 0.31051 0.87482 0.0
C319 C 0.9082 0.34825 0.8837 0.0
C320 C 0.87941 0.37041 0.872 0.0
C321 C 0.84674 0.35501 0.85301 0.0
C322 C 0.98401 0.41649 0.92715 0.0
C323 C 0.98984 0.40003 0.96207 0.0
C324 C 0.95911 0.39873 0.90058 0.0
C325 C 0.94 0.36403 0.90831 0.0
C326 C 0.94822 0.34641 0.94208 0.0
C327 C 0.97268 0.36434 0.96879 0.0
H328 H 0.76382 0.6538 0.29619 0.0
H329 H 0.81663 0.69941 0.3978 0.0
H330 H 0.7251 0.60855 0.33262 0.0
H331 H 0.77604 0.6565 0.4341 0.0
H332 H 0.71734 0.56818 0.49752 0.0
H333 H 0.76332 0.596 0.45357 0.0
H334 H 0.67209 0.60348 0.37161 0.0
H335 H 0.62681 0.57328 0.41504 0.0
C336 C 0.76727 0.65421 0.32627 0.0
C337 C 0.79329 0.68058 0.34396 0.0
C338 C 0.7447 0.62844 0.34723 0.0
C339 C 0.74732 0.62857 0.38644 0.0
C340 C 0.77359 0.6548 0.40399 0.0
C341 C 0.79643 0.68016 0.38309 0.0
C342 C 0.70752 0.57458 0.46959 0.0
C343 C 0.66861 0.56893 0.45968 0.0
C344 C 0.7337 0.59108 0.44453 0.0
C345 C 0.72134 0.60335 0.40939 0.0
C346 C 0.68285 0.59454 0.39835 0.0
C347 C 0.65678 0.57713 0.42321 0.0
H348 H 0.25549 0.29231 0.16095 0.0
H349 H 0.20604 0.32959 0.26208 0.0
H350 H 0.22782 0.34069 0.12634 0.0
H351 H 0.17429 0.3749 0.22654 0.0
H352 H 0.12681 0.4644 0.16014 0.0
H353 H 0.17194 0.42848 0.19423 0.0
H354 H 0.17184 0.354 0.10018 0.0
H355 H 0.12973 0.3919 0.06581 0.0
C356 C 0.2389 0.31078 0.17609 0.0
C357 C 0.23298 0.30628 0.21465 0.0
C358 C 0.22215 0.33834 0.15584 0.0
C359 C 0.19784 0.36169 0.1731 0.0
C360 C 0.19291 0.35798 0.21187 0.0
C361 C 0.21059 0.33111 0.23234 0.0
C362 C 0.13781 0.4411 0.14655 0.0
C363 C 0.12559 0.43121 0.11022 0.0
C364 C 0.16313 0.41997 0.16624 0.0
C365 C 0.17559 0.38767 0.15047 0.0
C366 C 0.16397 0.37883 0.11343 0.0
C367 C 0.13958 0.4005 0.09355 0.0
H368 H 0.78478 0.18573 0.84478 0.0
H369 H 0.67876 0.23782 0.83775 0.0
H370 H 0.74998 0.1298 0.87021 0.0
H371 H 0.64463 0.18234 0.86138 0.0
H372 H 0.66027 0.07223 0.96407 0.0
H373 H 0.70763 0.11371 0.93159 0.0
H374 H 0.63053 0.11589 0.8364 0.0
H375 H 0.58338 0.07513 0.86879 0.0
C376 C 0.75421 0.18526 0.84843 0.0
C377 C 0.73447 0.21604 0.83837 0.0
C378 C 0.73439 0.15327 0.86281 0.0
C379 C 0.69456 0.15154 0.86686 0.0
C380 C 0.67517 0.18249 0.85747 0.0
C381 C 0.69481 0.21431 0.84372 0.0
C382 C 0.65422 0.08038 0.93563 0.0
C383 C 0.61804 0.07106 0.91906 0.0
C384 C 0.68126 0.10413 0.9171 0.0
C385 C 0.67227 0.11854 0.88187 0.0
C386 C 0.63785 0.10564 0.86381 0.0
C387 C 0.61092 0.0823 0.8823 0.0
H388 H 0.81076 0.81697 0.35733 0.0
H389 H 0.92255 0.80528 0.31285 0.0
H390 H 0.8358 0.87445 0.38805 0.0
H391 H 0.94684 0.8624 0.34241 0.0
H392 H 0.92455 0.93738 0.47699 0.0
H393 H 0.88308 0.89266 0.44026 0.0
H394 H 0.94211 0.92904 0.34043 0.0
H395 H 0.98403 0.97248 0.37736 0.0
C396 C 0.84051 0.82668 0.35383 0.0
C397 C 0.86451 0.80646 0.33227 0.0
C398 C 0.85475 0.85967 0.37131 0.0
C399 C 0.89315 0.87332 0.36725 0.0
C400 C 0.91684 0.85333 0.34531 0.0
C401 C 0.90281 0.82042 0.32822 0.0
C402 C 0.92738 0.9368 0.44697 0.0
C403 C 0.95743 0.95805 0.42987 0.0
C404 C 0.90379 0.91113 0.42593 0.0
C405 C 0.91002 0.90666 0.38758 0.0
C406 C 0.93722 0.93119 0.37005 0.0
C407 C 0.96093 0.95635 0.39106 0.0
H408 H 0.44288 0.77851 0.67148 0.0
H409 H 0.35609 0.76193 0.58485 0.0
H410 H 0.47997 0.73331 0.6419 0.0
H411 H 0.39342 0.71684 0.55468 0.0
H412 H 0.46002 0.61013 0.53884 0.0
H413 H 0.41813 0.65483 0.56256 0.0
H414 H 0.51674 0.73167 0.58479 0.0
H415 H 0.55826 0.68725 0.56154 0.0
C416 C 0.43179 0.76505 0.6461 0.0
C417 C 0.39709 0.7741 0.63004 0.0
C418 C 0.45308 0.7394 0.62897 0.0
C419 C 0.44002 0.72201 0.59547 0.0
C420 C 0.40433 0.72982 0.58035 0.0
C421 C 0.38304 0.75564 0.59751 0.0
C422 C 0.47255 0.63692 0.5479 0.0
C423 C 0.51246 0.64504 0.54861 0.0
C424 C 0.44861 0.66247 0.56167 0.0
C425 C 0.46422 0.69645 0.57645 0.0
C426 C 0.50388 0.70535 0.57465 0.0
C427 C 0.52765 0.67998 0.561 0.0
H428 H 0.97214 0.94125 0.83464 0.0
H429 H 0.90824 0.86259 0.76275 0.0
H430 H 0.00657 0.96778 0.78101 0.0
H431 H 0.94124 0.88998 0.70845 0.0
H432 H 0.01381 0.93886 0.61556 0.0
H433 H 0.99841 0.9037 0.67268 0.0
H434 H 0.98931 0.00588 0.73172 0.0
H435 H 0.00566 0.04032 0.67573 0.0
C436 C 0.96573 0.92959 0.80722 0.0
C437 C 0.9375 0.90022 0.80253 0.0
C438 C 0.98525 0.9448 0.77645 0.0
C439 C 0.97643 0.93139 0.74016 0.0
C440 C 0.94918 0.90082 0.73589 0.0
C441 C 0.92999 0.8853 0.76685 0.0
C442 C 0.00968 0.95363 0.64113 0.0
C443 C 0.01068 0.99232 0.64111 0.0
C444 C 1.00038 0.93354 0.67375 0.0
C445 C 0.99217 0.95185 0.70688 0.0
C446 C 0.99579 0.99063 0.70711 0.0
C447 C 0.00495 0.0105 0.67477 0.0
H448 H 0.68725 0.19032 0.23332 0.0
H449 H 0.63866 0.11488 0.31599 0.0
H450 H 0.64865 0.1573 0.18468 0.0
H451 H 0.59813 0.08294 0.26802 0.0
H452 H 0.58683 1.00215 0.16953 0.0
H453 H 0.60823 0.04165 0.22125 0.0
H454 H 0.59087 0.13784 0.15384 0.0
H455 H 0.57183 0.09775 0.10096 0.0
C456 C 0.6674 0.16723 0.2411 0.0
C457 C 0.66615 0.15476 0.27815 0.0
C458 C 0.64501 0.14838 0.21331 0.0
C459 C 0.62044 0.11698 0.22215 0.0
C460 C 0.6174 0.10629 0.25986 0.0
C461 C 0.64038 0.12468 0.28745 0.0
C462 C 0.58695 0.03173 0.16588 0.0
C463 C 0.57762 0.04676 0.13108 0.0
C464 C 0.59893 0.05456 0.1958 0.0
C465 C 0.60164 0.09319 0.19194 0.0
C466 C 0.58984 0.10826 0.15776 0.0
C467 C 0.57823 0.08527 0.12755 0.0
H468 H 0.39137 0.66329 0.28342 0.0
H469 H 0.41653 0.75941 0.35265 0.0
H470 H 0.40347 0.62359 0.33655 0.0
H471 H 0.42853 0.71975 0.40618 0.0
H472 H 0.50617 0.63435 0.46354 0.0
H473 H 0.47932 0.67976 0.42284 0.0
H474 H 0.38204 0.60211 0.3978 0.0
H475 H 0.40907 0.55664 0.43818 0.0
C476 C 0.39856 0.6758 0.31031 0.0
C477 C 0.40281 0.71428 0.31404 0.0
C478 C 0.40541 0.65315 0.34082 0.0
C479 C 0.41692 0.66852 0.3757 0.0
C480 C 0.41996 0.70709 0.37967 0.0
C481 C 0.41291 0.72975 0.34912 0.0
C482 C 0.4784 0.62743 0.45043 0.0
C483 C 0.45994 0.59178 0.45376 0.0
C484 C 0.46302 0.65346 0.42698 0.0
C485 C 0.42891 0.64425 0.40646 0.0
C486 C 0.40881 0.60974 0.41253 0.0
C487 C 0.42418 0.58377 0.43586 0.0
H488 H 0.12205 0.36257 0.72806 0.0
H489 H 0.2039 0.33604 0.81337 0.0
H490 H 0.08332 0.38887 0.77542 0.0
H491 H 0.16522 0.36239 0.86069 0.0
H492 H 0.0815 0.4 0.9417 0.0
H493 H 0.09975 0.35827 0.89283 0.0
H494 H 0.10096 0.44742 0.81295 0.0
H495 H 0.08341 0.48895 0.86164 0.0
C496 C 0.13128 0.36158 0.75704 0.0
C497 C 0.16614 0.34755 0.76704 0.0
C498 C 0.10918 0.37671 0.78407 0.0
C499 C 0.12126 0.37766 0.82169 0.0
C500 C 0.15497 0.36166 0.83197 0.0
C501 C 0.17733 0.34696 0.80487 0.0
C502 C 0.08443 0.41024 0.91341 0.0
C503 C 0.08142 0.4477 0.90539 0.0
C504 C 0.09513 0.38648 0.88557 0.0
C505 C 0.10213 0.39974 0.84923 0.0
C506 C 0.09558 0.43636 0.84062 0.0
C507 C 0.08565 0.46018 0.8685 0.0
H508 H 0.84768 0.90856 0.9525 0.0
H509 H 0.81236 0.93271 0.83955 0.0
H510 H 0.79472 0.93913 0.97605 0.0
H511 H 0.76045 0.96585 0.86335 0.0
H512 H 0.64258 0.97105 0.92234 0.0
H513 H 0.70009 0.95478 0.89119 0.0
H514 H 0.76876 0.99443 0.98676 0.0
H515 H 0.71095 0.00818 0.01836 0.0
C516 C 0.82876 0.92063 0.93259 0.0
C517 C 0.83419 0.91759 0.89404 0.0
C518 C 0.7986 0.93894 0.94619 0.0
C519 C 0.77311 0.95537 0.92172 0.0
C520 C 0.77916 0.95332 0.88311 0.0
C521 C 0.80927 0.93462 0.86945 0.0
C522 C 0.67019 0.97725 0.93603 0.0
C523 C 0.6725 0.99059 0.97273 0.0
C524 C 0.70325 0.96788 0.91827 0.0
C525 C 0.73921 0.97223 0.93682 0.0
C526 C 0.74156 0.98934 0.97207 0.0
C527 C 0.70854 0.99783 0.99003 0.0
H528 H 0.78435 0.1064 0.32224 0.0
H529 H 0.76768 0.16556 0.42403 0.0
H530 H 0.82664 0.06711 0.35602 0.0
H531 H 0.81073 0.12766 0.45718 0.0
H532 H 0.8669 0.04535 0.51955 0.0
H533 H 0.81576 0.06662 0.48037 0.0
H534 H 0.89023 0.07118 0.38572 0.0
H535 H 0.94099 0.04831 0.42496 0.0
C536 C 0.78956 0.11093 0.35182 0.0
C537 C 0.77274 0.13928 0.37039 0.0
C538 C 0.81399 0.08857 0.37109 0.0
C539 C 0.82188 0.09391 0.40941 0.0
C540 C 0.80477 0.12213 0.42788 0.0
C541 C 0.78051 0.14438 0.4087 0.0
C542 C 0.87182 0.04959 0.49005 0.0
C543 C 0.90795 0.04561 0.47533 0.0
C544 C 0.84271 0.06224 0.46767 0.0
C545 C 0.8493 0.07189 0.4302 0.0
C546 C 0.8842 0.06421 0.41451 0.0
C547 C 0.91328 0.05095 0.43692 0.0
H548 H 0.35845 0.62179 0.14073 0.0
H549 H 0.26171 0.65437 0.20058 0.0
H550 H 0.31885 0.56955 0.11395 0.0
H551 H 0.22131 0.60373 0.17236 0.0
H552 H 0.14932 0.51661 0.11575 0.0
H553 H 0.19923 0.54221 0.15909 0.0
H554 H 0.27344 0.56792 0.06601 0.0
H555 H 0.2247 0.54051 0.02365 0.0
C556 C 0.32878 0.61723 0.14861 0.0
C557 C 0.31291 0.64209 0.17236 0.0
C558 C 0.30597 0.58753 0.1331 0.0
C559 C 0.26652 0.58272 0.14019 0.0
C560 C 0.25151 0.60611 0.16636 0.0
C561 C 0.27457 0.63536 0.18246 0.0
C562 C 0.17699 0.52608 0.10491 0.0
C563 C 0.18303 0.52671 0.06631 0.0
C564 C 0.20544 0.54141 0.12966 0.0
C565 C 0.24027 0.55797 0.11617 0.0
C566 C 0.24732 0.55533 0.07781 0.0
C567 C 0.21912 0.53981 0.05327 0.0
H568 H 0.38921 0.37687 0.74536 0.0
H569 H 0.33084 0.32975 0.64745 0.0
H570 H 0.44267 0.40105 0.70707 0.0
H571 H 0.3828 0.35512 0.60885 0.0
H572 H 0.48257 0.38824 0.54355 0.0
H573 H 0.44581 0.35322 0.5906 0.0
H574 H 0.45691 0.44847 0.66317 0.0
H575 H 0.49568 0.48254 0.61673 0.0
C576 C 0.38803 0.37154 0.71564 0.0
C577 C 0.35601 0.35155 0.6992 0.0
C578 C 0.41848 0.38556 0.69365 0.0
C579 C 0.41727 0.38012 0.65475 0.0
C580 C 0.38541 0.35928 0.63871 0.0
C581 C 0.35532 0.34499 0.6607 0.0
C582 C 0.47801 0.40123 0.57005 0.0
C583 C 0.49146 0.43815 0.57643 0.0
C584 C 0.4566 0.38135 0.59689 0.0
C585 C 0.44723 0.3983 0.6303 0.0
C586 C 0.46347 0.43437 0.63787 0.0
C587 C 0.48568 0.45402 0.61124 0.0
H588 H 0.88759 0.70437 0.88618 0.0
H589 H 0.94047 0.78557 0.96292 0.0
H590 H 0.92049 0.65633 0.91808 0.0
H591 H 0.97363 0.73761 0.99466 0.0
H592 H 0.06664 0.65113 0.99173 0.0
H593 H 0.02618 0.69995 0.97484 0.0
H594 H 0.92636 0.62192 0.97903 0.0
H595 H 0.9672 0.57282 0.99606 0.0
C596 C 0.90631 0.7119 0.90984 0.0
C597 C 0.91253 0.74891 0.92112 0.0
C598 C 0.92478 0.68437 0.92839 0.0
C599 C 0.94983 0.69322 0.95878 0.0
C600 C 0.95487 0.73003 0.97104 0.0
C601 C 0.93606 0.75752 0.95271 0.0
C602 C 0.03595 0.64461 0.98996 0.0
C603 C 0.02004 0.60822 0.99514 0.0
C604 C 0.01274 0.6726 0.98041 0.0
C605 C 0.97311 0.66473 0.97524 0.0
C606 C 0.95688 0.62871 0.98246 0.0
C607 C 0.98016 0.60071 0.99254 0.0
H608 H 0.36094 0.81196 0.15548 0.0
H609 H 0.40061 0.71892 0.09779 0.0
H610 H 0.3924 0.85365 0.11023 0.0
H611 H 0.43054 0.76054 0.05148 0.0
H612 H 0.53362 0.84981 0.03374 0.0
H613 H 0.4872 0.80227 0.05659 0.0
H614 H 0.39879 0.8775 0.04684 0.0
H615 H 0.44594 0.92561 0.02442 0.0
C616 C 0.37589 0.80035 0.13282 0.0
C617 C 0.37883 0.76212 0.13073 0.0
C618 C 0.39339 0.82424 0.10643 0.0
C619 C 0.41422 0.81049 0.07725 0.0
C620 C 0.41509 0.77208 0.07382 0.0
C621 C 0.39768 0.74819 0.10028 0.0
C622 C 0.504 0.85583 0.03524 0.0
C623 C 0.49351 0.89154 0.02785 0.0
C624 C 0.47725 0.82848 0.04825 0.0
C625 C 0.43935 0.83626 0.05429 0.0
C626 C 0.42795 0.87088 0.04314 0.0
C627 C 0.45483 0.8983 0.02985 0.0
H628 H 0.23676 0.25421 0.63884 0.0
H629 H 0.12963 0.30375 0.64547 0.0
H630 H 0.20906 0.21225 0.59092 0.0
H631 H 0.10106 0.25996 0.60035 0.0
H632 H 0.05078 0.18484 0.5167 0.0
H633 H 0.09312 0.23647 0.54085 0.0
H634 H 0.16743 0.15925 0.58897 0.0
H635 H 0.12637 0.10835 0.56246 0.0
C636 C 0.2074 0.25643 0.62992 0.0
C637 C 0.18529 0.28205 0.64664 0.0
C638 C 0.19132 0.23198 0.60267 0.0
C639 C 0.15257 0.23215 0.59182 0.0
C640 C 0.13108 0.25899 0.60736 0.0
C641 C 0.1473 0.28376 0.63406 0.0
C642 C 0.07716 0.17927 0.53101 0.0
C643 C 0.08557 0.14285 0.53766 0.0
C644 C 0.10115 0.20872 0.54543 0.0
C645 C 0.13323 0.20221 0.56798 0.0
C646 C 0.14325 0.16568 0.57169 0.0
C647 C 0.11971 0.13632 0.55648 0.0
H648 H 0.63835 0.29078 0.36272 0.0
H649 H 0.7503 0.33618 0.39939 0.0
H650 H 0.6144 0.35126 0.36788 0.0
H651 H 0.72691 0.39753 0.40352 0.0
H652 H 0.64935 0.4748 0.46784 0.0
H653 H 0.6872 0.42695 0.445 0.0
H654 H 0.61227 0.41264 0.34793 0.0
H655 H 0.57349 0.45926 0.3719 0.0
C656 C 0.658 0.31405 0.3711 0.0
C657 C 0.69585 0.3088 0.38144 0.0
C658 C 0.64445 0.34891 0.37378 0.0
C659 C 0.66862 0.37953 0.38643 0.0
C660 C 0.70729 0.37457 0.39434 0.0
C661 C 0.72078 0.33954 0.3918 0.0
C662 C 0.64184 0.46241 0.44094 0.0
C663 C 0.6081 0.47026 0.42198 0.0
C664 C 0.66354 0.4348 0.42778 0.0
C665 C 0.65214 0.41496 0.39511 0.0
C666 C 0.62114 0.42635 0.37384 0.0
C667 C 0.59916 0.45344 0.38731 0.0
loop_
_geom_bond_atom_site_label_1
_geom_bond_atom_site_label_2
_geom_bond_distance
_geom_bond_site_symmetry_2
_ccdc_geom_bond_type
H0 C7 0.929 . S
H1 C10 0.930 . S
H2 C12 0.929 . S
H3 C4 0.969 . S
C4 H3 0.969 . S
C4 O5 1.550 . S
C4 H6 0.973 . S
O5 C4 1.550 . S
O5 C11 1.412 . S
H6 C4 0.973 . S
C7 H0 0.929 . S
C7 C8 1.400 . S
C7 C9 1.364 . S
C8 C7 1.400 . S
C8 C12 1.377 . S
C9 C7 1.364 . S
C9 C10 1.374 . S
C10 H1 0.930 . S
C10 C9 1.374 . S
C10 C11 1.383 . S
C11 O5 1.412 . S
C11 C10 1.383 . S
C11 C12 1.394 . S
C12 H2 0.929 . S
C12 C8 1.377 . S
C12 C11 1.394 . S
H13 C20 0.929 . S
H14 C23 0.930 . S
H15 C25 0.929 . S
H16 C17 0.969 . S
C17 H16 0.969 . S
C17 O18 1.550 . S
C17 H19 0.973 . S
O18 C17 1.550 . S
O18 C24 1.412 . S
H19 C17 0.973 . S
C20 H13 0.929 . S
C20 C21 1.400 . S
C20 C22 1.364 . S
C21 C20 1.400 . S
C21 C25 1.377 . S
C22 C20 1.364 . S
C22 C23 1.374 . S
C23 H14 0.930 . S
C23 C22 1.374 . S
C23 C24 1.383 . S
C24 O18 1.412 . S
C24 C23 1.383 . S
C24 C25 1.394 . S
C25 H15 0.929 . S
C25 C21 1.377 . S
C25 C24 1.394 . S
H26 C33 0.929 . S
H27 C36 0.930 . S
H28 C38 0.929 . S
H29 C30 0.969 . S
C30 H29 0.969 . S
C30 O31 1.550 . S
C30 H32 0.973 . S
O31 C30 1.550 . S
O31 C37 1.412 . S
H32 C30 0.973 . S
C33 H26 0.929 . S
C33 C34 1.400 . S
C33 C35 1.364 . S
C34 C33 1.400 . S
C34 C38 1.377 . S
C35 C33 1.364 . S
C35 C36 1.374 . S
C36 H27 0.930 . S
C36 C35 1.374 . S
C36 C37 1.383 . S
C37 O31 1.412 . S
C37 C36 1.383 . S
C37 C38 1.394 . S
C38 H28 0.929 . S
C38 C34 1.377 . S
C38 C37 1.394 . S
H39 C46 0.929 . S
H40 C49 0.930 . S
H41 C51 0.929 . S
H42 C43 0.969 . S
C43 H42 0.969 . S
C43 O44 1.550 . S
C43 H45 0.973 . S
O44 C43 1.550 . S
O44 C50 1.412 . S
H45 C43 0.973 . S
C46 H39 0.929 . S
C46 C47 1.400 . S
C46 C48 1.364 . S
C47 C46 1.400 . S
C47 C51 1.377 . S
C48 C46 1.364 . S
C48 C49 1.374 . S
C49 H40 0.930 . S
C49 C48 1.374 . S
C49 C50 1.383 . S
C50 O44 1.412 . S
C50 C49 1.383 . S
C50 C51 1.394 . S
C51 H41 0.929 . S
C51 C47 1.377 . S
C51 C50 1.394 . S
H52 C59 0.929 . S
H53 C62 0.930 . S
H54 C64 0.929 1_455 S
H55 C56 0.969 . S
C56 H55 0.969 . S
C56 O57 1.550 1_655 S
C56 H58 1.001 . S
O57 C56 1.550 1_455 S
O57 C63 1.412 1_455 S
H58 C56 1.001 . S
C59 H52 0.929 . S
C59 C60 1.400 . S
C59 C61 1.364 . S
C60 C59 1.400 . S
C60 C64 1.377 . S
C61 C59 1.364 . S
C61 C62 1.374 . S
C62 H53 0.930 . S
C62 C61 1.374 . S
C62 C63 1.383 . S
C63 O57 1.412 1_655 S
C63 C62 1.383 . S
C63 C64 1.394 . S
C64 H54 0.929 1_655 S
C64 C60 1.377 . S
C64 C63 1.394 . S
H65 C72 0.929 . S
H66 C75 0.930 . S
H67 C77 0.929 . S
H68 C69 0.969 . S
C69 H68 0.969 . S
C69 O70 1.550 . S
C69 H71 0.973 . S
O70 C69 1.550 . S
O70 C76 1.412 . S
H71 C69 0.973 . S
C72 H65 0.929 . S
C72 C73 1.400 . S
C72 C74 1.364 . S
C73 C72 1.400 . S
C73 C77 1.377 . S
C74 C72 1.364 . S
C74 C75 1.374 . S
C75 H66 0.930 . S
C75 C74 1.374 . S
C75 C76 1.383 . S
C76 O70 1.412 . S
C76 C75 1.383 . S
C76 C77 1.394 . S
C77 H67 0.929 . S
C77 C73 1.377 . S
C77 C76 1.394 . S
H78 C85 0.929 . S
H79 C88 0.930 . S
H80 C90 0.929 . S
H81 C82 0.969 . S
C82 H81 0.969 . S
C82 O83 1.550 . S
C82 H84 0.973 . S
O83 C82 1.550 . S
O83 C89 1.412 . S
H84 C82 0.973 . S
C85 H78 0.929 . S
C85 C86 1.400 . S
C85 C87 1.364 . S
C86 C85 1.400 . S
C86 C90 1.377 . S
C87 C85 1.364 . S
C87 C88 1.374 . S
C88 H79 0.930 . S
C88 C87 1.374 . S
C88 C89 1.383 . S
C89 O83 1.412 . S
C89 C88 1.383 . S
C89 C90 1.394 . S
C90 H80 0.929 . S
C90 C86 1.377 . S
C90 C89 1.394 . S
H91 C98 0.929 . S
H92 C101 0.930 . S
H93 C103 0.929 . S
H94 C95 0.969 . S
C95 H94 0.969 . S
C95 O96 1.550 . S
C95 H97 0.973 . S
O96 C95 1.550 . S
O96 C102 1.412 . S
H97 C95 0.973 . S
C98 H91 0.929 . S
C98 C99 1.400 . S
C98 C100 1.364 . S
C99 C98 1.400 . S
C99 C103 1.377 . S
C100 C98 1.364 . S
C100 C101 1.374 . S
C101 H92 0.930 . S
C101 C100 1.374 . S
C101 C102 1.383 . S
C102 O96 1.412 . S
C102 C101 1.383 . S
C102 C103 1.394 . S
C103 H93 0.929 . S
C103 C99 1.377 . S
C103 C102 1.394 . S
Zn104 O110 1.920 . S
Zn104 O116 1.898 . S
Zn104 O119 1.905 . S
Zn105 O113 1.905 1_565 S
Zn105 O114 1.898 . S
Zn105 O122 1.920 . S
Zn106 O109 2.080 1_455 S
Zn106 O112 2.114 . S
Zn106 O115 2.120 1_445 S
Zn106 O117 2.120 . S
Zn106 O118 2.114 1_455 S
Zn106 O121 2.080 . S
C107 O112 1.166 . S
C107 O113 1.182 . S
C108 O114 1.167 1_655 S
C108 O115 1.299 . S
O109 Zn106 2.080 1_655 S
O109 C123 1.305 . S
O110 Zn104 1.920 . S
O110 C123 1.234 . S
C111 O116 1.167 1_455 S
C111 O117 1.299 . S
O112 Zn106 2.114 . S
O112 C107 1.166 . S
O113 Zn105 1.905 1_545 S
O113 C107 1.182 . S
O114 Zn105 1.898 . S
O114 C108 1.167 1_455 S
O115 Zn106 2.120 1_665 S
O115 C108 1.299 . S
O116 Zn104 1.898 . S
O116 C111 1.167 1_655 S
O117 Zn106 2.120 . S
O117 C111 1.299 . S
O118 Zn106 2.114 1_655 S
O118 C120 1.166 . S
O119 Zn104 1.905 . S
O119 C120 1.182 . S
C120 O118 1.166 . S
C120 O119 1.182 . S
O121 Zn106 2.080 . S
O121 C124 1.305 1_545 S
O122 Zn105 1.920 . S
O122 C124 1.234 . S
C123 O109 1.305 . S
C123 O110 1.234 . S
C124 O121 1.305 1_565 S
C124 O122 1.234 . S
Zn125 O131 1.920 1_556 S
Zn125 O137 1.898 . S
Zn125 O140 1.905 . S
Zn126 O134 1.905 . S
Zn126 O135 1.898 . S
Zn126 O143 1.920 . S
Zn127 O130 2.080 . S
Zn127 O133 2.114 1_545 S
Zn127 O136 2.120 1_545 S
Zn127 O138 2.129 . S
Zn127 O139 2.114 1_544 S
Zn127 O142 2.080 . S
C128 O133 1.166 . S
C128 O134 1.182 . S
C129 O135 1.167 . S
C129 O136 1.299 . S
O130 Zn127 2.080 . S
O130 C144 1.305 . S
O131 Zn125 1.920 1_554 S
O131 C144 1.234 . S
C132 O137 1.167 . S
C132 O138 1.274 1_556 S
O133 Zn127 2.114 1_565 S
O133 C128 1.166 . S
O134 Zn126 1.905 . S
O134 C128 1.182 . S
O135 Zn126 1.898 . S
O135 C129 1.167 . S
O136 Zn127 2.120 1_565 S
O136 C129 1.299 . S
O137 Zn125 1.898 . S
O137 C132 1.167 . S
O138 Zn127 2.129 . S
O138 C132 1.274 1_554 S
O139 Zn127 2.114 1_566 S
O139 C141 1.166 . S
O140 Zn125 1.905 . S
O140 C141 1.182 1_545 S
C141 O139 1.166 . S
C141 O140 1.182 1_565 S
O142 Zn127 2.080 . S
O142 C145 1.305 . S
O143 Zn126 1.920 . S
O143 C145 1.234 1_565 S
C144 O130 1.305 . S
C144 O131 1.234 . S
C145 O142 1.305 . S
C145 O143 1.234 1_545 S
Zn146 O152 1.920 . S
Zn146 O158 1.898 . S
Zn146 O161 1.905 . S
Zn147 O155 1.905 . S
Zn147 O156 1.898 . S
Zn147 O164 1.920 . S
Zn148 O151 2.080 . S
Zn148 O154 2.114 . S
Zn148 O157 2.120 . S
Zn148 O159 2.120 . S
Zn148 O160 2.114 . S
Zn148 O163 2.080 . S
C149 O154 1.166 . S
C149 O155 1.182 . S
C150 O156 1.167 . S
C150 O157 1.299 . S
O151 Zn148 2.080 . S
O151 C165 1.305 . S
O152 Zn146 1.920 . S
O152 C165 1.234 . S
C153 O158 1.167 . S
C153 O159 1.299 . S
O154 Zn148 2.114 . S
O154 C149 1.166 . S
O155 Zn147 1.905 . S
O155 C149 1.182 . S
O156 Zn147 1.898 . S
O156 C150 1.167 . S
O157 Zn148 2.120 . S
O157 C150 1.299 . S
O158 Zn146 1.898 . S
O158 C153 1.167 . S
O159 Zn148 2.120 . S
O159 C153 1.299 . S
O160 Zn148 2.114 . S
O160 C162 1.166 . S
O161 Zn146 1.905 . S
O161 C162 1.182 . S
C162 O160 1.166 . S
C162 O161 1.182 . S
O163 Zn148 2.080 . S
O163 C166 1.305 . S
O164 Zn147 1.920 . S
O164 C166 1.234 . S
C165 O151 1.305 . S
C165 O152 1.234 . S
C166 O163 1.305 . S
C166 O164 1.234 . S
Zn167 O173 1.920 . S
Zn167 O179 1.898 . S
Zn167 O182 1.905 . S
Zn168 O176 1.905 1_655 S
Zn168 O177 1.898 . S
Zn168 O185 1.920 . S
Zn169 O172 2.080 1_554 S
Zn169 O175 2.114 . S
Zn169 O178 2.120 1_554 S
Zn169 O180 2.120 . S
Zn169 O181 2.114 1_554 S
Zn169 O184 2.080 . S
C170 O175 1.166 . S
C170 O176 1.182 . S
C171 O177 1.167 1_556 S
C171 O178 1.299 1_655 S
O172 Zn169 2.080 1_556 S
O172 C186 1.305 . S
O173 Zn167 1.920 . S
O173 C186 1.234 . S
C174 O179 1.167 1_554 S
C174 O180 1.299 . S
O175 Zn169 2.114 . S
O175 C170 1.166 . S
O176 Zn168 1.905 1_455 S
O176 C170 1.182 . S
O177 Zn168 1.898 . S
O177 C171 1.167 1_554 S
O178 Zn169 2.120 1_556 S
O178 C171 1.299 1_455 S
O179 Zn167 1.898 . S
O179 C174 1.167 1_556 S
O180 Zn169 2.120 . S
O180 C174 1.299 . S
O181 Zn169 2.114 1_556 S
O181 C183 1.166 . S
O182 Zn167 1.905 . S
O182 C183 1.182 . S
C183 O181 1.166 . S
C183 O182 1.182 . S
O184 Zn169 2.080 . S
O184 C187 1.305 . S
O185 Zn168 1.920 . S
O185 C187 1.234 1_655 S
C186 O172 1.305 . S
C186 O173 1.234 . S
C187 O184 1.305 . S
C187 O185 1.234 1_455 S
H188 C196 0.950 . S
H189 C201 0.950 . S
H190 C198 0.950 . S
H191 C200 0.950 . S
H192 C202 0.950 . S
H193 C204 0.950 . S
H194 C206 0.950 . S
H195 C207 0.950 . S
C196 H188 0.950 . S
C196 C197 1.386 . S
C196 C198 1.391 . S
C197 C196 1.386 . S
C197 C201 1.393 . S
C198 H190 0.950 . S
C198 C196 1.391 . S
C198 C199 1.400 . S
C199 C198 1.400 . S
C199 C200 1.398 . S
C199 C205 1.491 . S
C200 H191 0.950 . S
C200 C199 1.398 . S
C200 C201 1.391 . S
C201 H189 0.950 . S
C201 C197 1.393 . S
C201 C200 1.391 . S
C202 H192 0.950 . S
C202 C203 1.386 . S
C202 C204 1.391 . S
C203 C202 1.386 . S
C203 C207 1.393 . S
C204 H193 0.950 . S
C204 C202 1.391 . S
C204 C205 1.400 . S
C205 C199 1.491 . S
C205 C204 1.400 . S
C205 C206 1.398 . S
C206 H194 0.950 . S
C206 C205 1.398 . S
C206 C207 1.391 . S
C207 H195 0.950 . S
C207 C203 1.393 . S
C207 C206 1.391 . S
H208 C216 0.950 . S
H209 C221 0.950 . S
H210 C218 0.950 . S
H211 C220 0.950 . S
H212 C222 0.950 . S
H213 C224 0.950 . S
H214 C226 0.950 . S
H215 C227 0.950 1_545 S
C216 H208 0.950 . S
C216 C217 1.386 . S
C216 C218 1.391 . S
C217 C216 1.386 . S
C217 C221 1.393 . S
C218 H210 0.950 . S
C218 C216 1.391 . S
C218 C219 1.400 . S
C219 C218 1.400 . S
C219 C220 1.398 . S
C219 C225 1.491 . S
C220 H211 0.950 . S
C220 C219 1.398 . S
C220 C221 1.391 . S
C221 H209 0.950 . S
C221 C217 1.393 . S
C221 C220 1.391 . S
C222 H212 0.950 . S
C222 C223 1.386 . S
C222 C224 1.391 . S
C223 C222 1.386 . S
C223 C227 1.393 . S
C224 H213 0.950 . S
C224 C222 1.391 . S
C224 C225 1.400 . S
C225 C219 1.491 . S
C225 C224 1.400 . S
C225 C226 1.398 . S
C226 H214 0.950 . S
C226 C225 1.398 . S
C226 C227 1.391 . S
C227 H215 0.950 1_565 S
C227 C223 1.393 . S
C227 C226 1.391 . S
H228 C236 0.950 . S
H229 C241 0.950 . S
H230 C238 0.950 . S
H231 C240 0.950 . S
H232 C242 0.950 . S
H233 C244 0.950 . S
H234 C246 0.950 . S
H235 C247 0.950 . S
C236 H228 0.950 . S
C236 C237 1.386 . S
C236 C238 1.391 . S
C237 C236 1.386 . S
C237 C241 1.393 . S
C238 H230 0.950 . S
C238 C236 1.391 . S
C238 C239 1.400 . S
C239 C238 1.400 . S
C239 C240 1.398 . S
C239 C245 1.491 . S
C240 H231 0.950 . S
C240 C239 1.398 . S
C240 C241 1.391 . S
C241 H229 0.950 . S
C241 C237 1.393 . S
C241 C240 1.391 . S
C242 H232 0.950 . S
C242 C243 1.386 . S
C242 C244 1.391 . S
C243 C242 1.386 . S
C243 C247 1.393 . S
C244 H233 0.950 . S
C244 C242 1.391 . S
C244 C245 1.400 . S
C245 C239 1.491 . S
C245 C244 1.400 . S
C245 C246 1.398 . S
C246 H234 0.950 . S
C246 C245 1.398 . S
C246 C247 1.391 . S
C247 H235 0.950 . S
C247 C243 1.393 . S
C247 C246 1.391 . S
H248 C256 0.950 . S
H249 C261 0.950 . S
H250 C258 0.950 1_455 S
H251 C260 0.950 . S
H252 C262 0.950 . S
H253 C264 0.950 . S
H254 C266 0.950 . S
H255 C267 0.950 . S
C256 H248 0.950 . S
C256 C257 1.386 . S
C256 C258 1.391 . S
C257 C256 1.386 . S
C257 C261 1.393 . S
C258 H250 0.950 1_655 S
C258 C256 1.391 . S
C258 C259 1.400 . S
C259 C258 1.400 . S
C259 C260 1.398 . S
C259 C265 1.491 . S
C260 H251 0.950 . S
C260 C259 1.398 . S
C260 C261 1.391 . S
C261 H249 0.950 . S
C261 C257 1.393 . S
C261 C260 1.391 . S
C262 H252 0.950 . S
C262 C263 1.386 1_655 S
C262 C264 1.391 . S
C263 C262 1.386 1_455 S
C263 C267 1.393 . S
C264 H253 0.950 . S
C264 C262 1.391 . S
C264 C265 1.400 . S
C265 C259 1.491 . S
C265 C264 1.400 . S
C265 C266 1.398 1_655 S
C266 H254 0.950 . S
C266 C265 1.398 1_455 S
C266 C267 1.391 . S
C267 H255 0.950 . S
C267 C263 1.393 . S
C267 C266 1.391 . S
H268 C276 0.950 . S
H269 C281 0.950 . S
H270 C278 0.950 . S
H271 C280 0.950 . S
H272 C282 0.950 . S
H273 C284 0.950 . S
H274 C286 0.950 . S
H275 C287 0.950 . S
C276 H268 0.950 . S
C276 C277 1.386 . S
C276 C278 1.391 . S
C277 C276 1.386 . S
C277 C281 1.393 . S
C278 H270 0.950 . S
C278 C276 1.391 . S
C278 C279 1.400 . S
C279 C278 1.400 . S
C279 C280 1.398 . S
C279 C285 1.491 . S
C280 H271 0.950 . S
C280 C279 1.398 . S
C280 C281 1.391 . S
C281 H269 0.950 . S
C281 C277 1.393 . S
C281 C280 1.391 . S
C282 H272 0.950 . S
C282 C283 1.386 . S
C282 C284 1.391 . S
C283 C282 1.386 . S
C283 C287 1.393 . S
C284 H273 0.950 . S
C284 C282 1.391 . S
C284 C285 1.400 . S
C285 C279 1.491 . S
C285 C284 1.400 . S
C285 C286 1.398 . S
C286 H274 0.950 . S
C286 C285 1.398 . S
C286 C287 1.391 . S
C287 H275 0.950 . S
C287 C283 1.393 . S
C287 C286 1.391 . S
H288 C296 0.950 . S
H289 C301 0.950 . S
H290 C298 0.950 . S
H291 C300 0.950 . S
H292 C302 0.950 . S
H293 C304 0.950 . S
H294 C306 0.950 . S
H295 C307 0.950 . S
C296 H288 0.950 . S
C296 C297 1.386 . S
C296 C298 1.391 . S
C297 C296 1.386 . S
C297 C301 1.393 . S
C298 H290 0.950 . S
C298 C296 1.391 . S
C298 C299 1.400 . S
C299 C298 1.400 . S
C299 C300 1.398 . S
C299 C305 1.491 . S
C300 H291 0.950 . S
C300 C299 1.398 . S
C300 C301 1.391 . S
C301 H289 0.950 . S
C301 C297 1.393 . S
C301 C300 1.391 . S
C302 H292 0.950 . S
C302 C303 1.386 . S
C302 C304 1.391 . S
C303 C302 1.386 . S
C303 C307 1.393 . S
C304 H293 0.950 . S
C304 C302 1.391 . S
C304 C305 1.400 . S
C305 C299 1.491 . S
C305 C304 1.400 . S
C305 C306 1.398 . S
C306 H294 0.950 . S
C306 C305 1.398 . S
C306 C307 1.391 . S
C307 H295 0.950 . S
C307 C303 1.393 . S
C307 C306 1.391 . S
H308 C316 0.950 . S
H309 C321 0.950 . S
H310 C318 0.950 . S
H311 C320 0.950 . S
H312 C322 0.950 . S
H313 C324 0.950 . S
H314 C326 0.950 . S
H315 C327 0.950 . S
C316 H308 0.950 . S
C316 C317 1.386 . S
C316 C318 1.391 . S
C317 C316 1.386 . S
C317 C321 1.393 . S
C318 H310 0.950 . S
C318 C316 1.391 . S
C318 C319 1.400 . S
C319 C318 1.400 . S
C319 C320 1.398 . S
C319 C325 1.491 . S
C320 H311 0.950 . S
C320 C319 1.398 . S
C320 C321 1.391 . S
C321 H309 0.950 . S
C321 C317 1.393 . S
C321 C320 1.391 . S
C322 H312 0.950 . S
C322 C323 1.386 . S
C322 C324 1.391 . S
C323 C322 1.386 . S
C323 C327 1.393 . S
C324 H313 0.950 . S
C324 C322 1.391 . S
C324 C325 1.400 . S
C325 C319 1.491 . S
C325 C324 1.400 . S
C325 C326 1.398 . S
C326 H314 0.950 . S
C326 C325 1.398 . S
C326 C327 1.391 . S
C327 H315 0.950 . S
C327 C323 1.393 . S
C327 C326 1.391 . S
H328 C336 0.950 . S
H329 C341 0.950 . S
H330 C338 0.950 . S
H331 C340 0.950 . S
H332 C342 0.950 . S
H333 C344 0.950 . S
H334 C346 0.950 . S
H335 C347 0.950 . S
C336 H328 0.950 . S
C336 C337 1.386 . S
C336 C338 1.391 . S
C337 C336 1.386 . S
C337 C341 1.393 . S
C338 H330 0.950 . S
C338 C336 1.391 . S
C338 C339 1.400 . S
C339 C338 1.400 . S
C339 C340 1.398 . S
C339 C345 1.491 . S
C340 H331 0.950 . S
C340 C339 1.398 . S
C340 C341 1.391 . S
C341 H329 0.950 . S
C341 C337 1.393 . S
C341 C340 1.391 . S
C342 H332 0.950 . S
C342 C343 1.386 . S
C342 C344 1.391 . S
C343 C342 1.386 . S
C343 C347 1.393 . S
C344 H333 0.950 . S
C344 C342 1.391 . S
C344 C345 1.400 . S
C345 C339 1.491 . S
C345 C344 1.400 . S
C345 C346 1.398 . S
C346 H334 0.950 . S
C346 C345 1.398 . S
C346 C347 1.391 . S
C347 H335 0.950 . S
C347 C343 1.393 . S
C347 C346 1.391 . S
H348 C356 0.950 . S
H349 C361 0.950 . S
H350 C358 0.950 . S
H351 C360 0.950 . S
H352 C362 0.950 . S
H353 C364 0.950 . S
H354 C366 0.950 . S
H355 C367 0.950 . S
C356 H348 0.950 . S
C356 C357 1.386 . S
C356 C358 1.391 . S
C357 C356 1.386 . S
C357 C361 1.393 . S
C358 H350 0.950 . S
C358 C356 1.391 . S
C358 C359 1.400 . S
C359 C358 1.400 . S
C359 C360 1.398 . S
C359 C365 1.491 . S
C360 H351 0.950 . S
C360 C359 1.398 . S
C360 C361 1.391 . S
C361 H349 0.950 . S
C361 C357 1.393 . S
C361 C360 1.391 . S
C362 H352 0.950 . S
C362 C363 1.386 . S
C362 C364 1.391 . S
C363 C362 1.386 . S
C363 C367 1.393 . S
C364 H353 0.950 . S
C364 C362 1.391 . S
C364 C365 1.400 . S
C365 C359 1.491 . S
C365 C364 1.400 . S
C365 C366 1.398 . S
C366 H354 0.950 . S
C366 C365 1.398 . S
C366 C367 1.391 . S
C367 H355 0.950 . S
C367 C363 1.393 . S
C367 C366 1.391 . S
H368 C376 0.950 . S
H369 C381 0.950 . S
H370 C378 0.950 . S
H371 C380 0.950 . S
H372 C382 0.950 . S
H373 C384 0.950 . S
H374 C386 0.950 . S
H375 C387 0.950 . S
C376 H368 0.950 . S
C376 C377 1.386 . S
C376 C378 1.391 . S
C377 C376 1.386 . S
C377 C381 1.393 . S
C378 H370 0.950 . S
C378 C376 1.391 . S
C378 C379 1.400 . S
C379 C378 1.400 . S
C379 C380 1.398 . S
C379 C385 1.491 . S
C380 H371 0.950 . S
C380 C379 1.398 . S
C380 C381 1.391 . S
C381 H369 0.950 . S
C381 C377 1.393 . S
C381 C380 1.391 . S
C382 H372 0.950 . S
C382 C383 1.386 . S
C382 C384 1.391 . S
C383 C382 1.386 . S
C383 C387 1.393 . S
C384 H373 0.950 . S
C384 C382 1.391 . S
C384 C385 1.400 . S
C385 C379 1.491 . S
C385 C384 1.400 . S
C385 C386 1.398 . S
C386 H374 0.950 . S
C386 C385 1.398 . S
C386 C387 1.391 . S
C387 H375 0.950 . S
C387 C383 1.393 . S
C387 C386 1.391 . S
H388 C396 0.950 . S
H389 C401 0.950 . S
H390 C398 0.950 . S
H391 C400 0.950 . S
H392 C402 0.950 1_455 S
H393 C404 0.950 . S
H394 C406 0.950 . S
H395 C407 0.950 . S
C396 H388 0.950 . S
C396 C397 1.386 . S
C396 C398 1.391 . S
C397 C396 1.386 . S
C397 C401 1.393 . S
C398 H390 0.950 . S
C398 C396 1.391 . S
C398 C399 1.400 . S
C399 C398 1.400 . S
C399 C400 1.398 . S
C399 C405 1.491 . S
C400 H391 0.950 . S
C400 C399 1.398 . S
C400 C401 1.391 . S
C401 H389 0.950 . S
C401 C397 1.393 . S
C401 C400 1.391 . S
C402 H392 0.950 1_655 S
C402 C403 1.386 . S
C402 C404 1.391 . S
C403 C402 1.386 . S
C403 C407 1.393 . S
C404 H393 0.950 . S
C404 C402 1.391 . S
C404 C405 1.400 . S
C405 C399 1.491 . S
C405 C404 1.400 . S
C405 C406 1.398 . S
C406 H394 0.950 . S
C406 C405 1.398 . S
C406 C407 1.391 . S
C407 H395 0.950 . S
C407 C403 1.393 . S
C407 C406 1.391 . S
H408 C416 0.950 . S
H409 C421 0.950 . S
H410 C418 0.950 . S
H411 C420 0.950 . S
H412 C422 0.950 . S
H413 C424 0.950 . S
H414 C426 0.950 . S
H415 C427 0.950 . S
C416 H408 0.950 . S
C416 C417 1.386 . S
C416 C418 1.391 . S
C417 C416 1.386 . S
C417 C421 1.393 . S
C418 H410 0.950 . S
C418 C416 1.391 . S
C418 C419 1.400 . S
C419 C418 1.400 . S
C419 C420 1.398 . S
C419 C425 1.491 . S
C420 H411 0.950 . S
C420 C419 1.398 . S
C420 C421 1.391 . S
C421 H409 0.950 . S
C421 C417 1.393 . S
C421 C420 1.391 . S
C422 H412 0.950 . S
C422 C423 1.386 . S
C422 C424 1.391 . S
C423 C422 1.386 . S
C423 C427 1.393 . S
C424 H413 0.950 . S
C424 C422 1.391 . S
C424 C425 1.400 . S
C425 C419 1.491 . S
C425 C424 1.400 . S
C425 C426 1.398 . S
C426 H414 0.950 . S
C426 C425 1.398 . S
C426 C427 1.391 . S
C427 H415 0.950 . S
C427 C423 1.393 . S
C427 C426 1.391 . S
H428 C436 0.947 1_545 S
H429 C441 0.950 . S
H430 C438 0.950 . S
H431 C440 0.950 . S
H432 C442 0.950 . S
H433 C444 0.950 . S
H434 C446 0.950 . S
H435 C447 0.950 . S
C436 H428 0.947 1_565 S
C436 C437 1.389 . S
C436 C438 1.391 1_565 S
C437 C436 1.389 . S
C437 C441 1.393 1_655 S
C438 H430 0.950 . S
C438 C436 1.391 1_545 S
C438 C439 1.400 1_545 S
C439 C438 1.400 1_565 S
C439 C440 1.398 1_655 S
C439 C445 1.491 . S
C440 H431 0.950 . S
C440 C439 1.398 1_455 S
C440 C441 1.391 . S
C441 H429 0.950 . S
C441 C437 1.393 1_455 S
C441 C440 1.391 . S
C442 H432 0.950 . S
C442 C443 1.386 1_465 S
C442 C444 1.391 . S
C443 C442 1.386 1_645 S
C443 C447 1.393 . S
C444 H433 0.950 . S
C444 C442 1.391 . S
C444 C445 1.400 1_455 S
C445 C439 1.491 . S
C445 C444 1.400 1_655 S
C445 C446 1.398 1_565 S
C446 H434 0.950 . S
C446 C445 1.398 1_545 S
C446 C447 1.391 . S
C447 H435 0.950 . S
C447 C443 1.393 . S
C447 C446 1.391 . S
H448 C456 0.950 . S
H449 C461 0.950 . S
H450 C458 0.950 . S
H451 C460 0.950 . S
H452 C462 0.950 1_565 S
H453 C464 0.950 . S
H454 C466 0.950 . S
H455 C467 0.950 . S
C456 H448 0.950 . S
C456 C457 1.386 . S
C456 C458 1.391 . S
C457 C456 1.386 . S
C457 C461 1.393 . S
C458 H450 0.950 . S
C458 C456 1.391 . S
C458 C459 1.400 . S
C459 C458 1.400 . S
C459 C460 1.398 . S
C459 C465 1.491 . S
C460 H451 0.950 . S
C460 C459 1.398 . S
C460 C461 1.391 . S
C461 H449 0.950 . S
C461 C457 1.393 . S
C461 C460 1.391 . S
C462 H452 0.950 1_545 S
C462 C463 1.386 . S
C462 C464 1.391 . S
C463 C462 1.386 . S
C463 C467 1.393 . S
C464 H453 0.950 . S
C464 C462 1.391 . S
C464 C465 1.400 . S
C465 C459 1.491 . S
C465 C464 1.400 . S
C465 C466 1.398 . S
C466 H454 0.950 . S
C466 C465 1.398 . S
C466 C467 1.391 . S
C467 H455 0.950 . S
C467 C463 1.393 . S
C467 C466 1.391 . S
H468 C476 0.950 . S
H469 C481 0.950 . S
H470 C478 0.950 . S
H471 C480 0.950 . S
H472 C482 0.950 . S
H473 C484 0.950 . S
H474 C486 0.950 . S
H475 C487 0.950 . S
C476 H468 0.950 . S
C476 C477 1.386 . S
C476 C478 1.391 . S
C477 C476 1.386 . S
C477 C481 1.393 . S
C478 H470 0.950 . S
C478 C476 1.391 . S
C478 C479 1.400 . S
C479 C478 1.400 . S
C479 C480 1.398 . S
C479 C485 1.491 . S
C480 H471 0.950 . S
C480 C479 1.398 . S
C480 C481 1.391 . S
C481 H469 0.950 . S
C481 C477 1.393 . S
C481 C480 1.391 . S
C482 H472 0.950 . S
C482 C483 1.386 . S
C482 C484 1.391 . S
C483 C482 1.386 . S
C483 C487 1.393 . S
C484 H473 0.950 . S
C484 C482 1.391 . S
C484 C485 1.400 . S
C485 C479 1.491 . S
C485 C484 1.400 . S
C485 C486 1.398 . S
C486 H474 0.950 . S
C486 C485 1.398 . S
C486 C487 1.391 . S
C487 H475 0.950 . S
C487 C483 1.393 . S
C487 C486 1.391 . S
H488 C496 0.950 . S
H489 C501 0.950 . S
H490 C498 0.950 . S
H491 C500 0.950 . S
H492 C502 0.950 . S
H493 C504 0.950 . S
H494 C506 0.950 . S
H495 C507 0.950 . S
C496 H488 0.950 . S
C496 C497 1.386 . S
C496 C498 1.391 . S
C497 C496 1.386 . S
C497 C501 1.393 . S
C498 H490 0.950 . S
C498 C496 1.391 . S
C498 C499 1.400 . S
C499 C498 1.400 . S
C499 C500 1.398 . S
C499 C505 1.491 . S
C500 H491 0.950 . S
C500 C499 1.398 . S
C500 C501 1.391 . S
C501 H489 0.950 . S
C501 C497 1.393 . S
C501 C500 1.391 . S
C502 H492 0.950 . S
C502 C503 1.386 . S
C502 C504 1.391 . S
C503 C502 1.386 . S
C503 C507 1.393 . S
C504 H493 0.950 . S
C504 C502 1.391 . S
C504 C505 1.400 . S
C505 C499 1.491 . S
C505 C504 1.400 . S
C505 C506 1.398 . S
C506 H494 0.950 . S
C506 C505 1.398 . S
C506 C507 1.391 . S
C507 H495 0.950 . S
C507 C503 1.393 . S
C507 C506 1.391 . S
H508 C516 0.959 . S
H509 C521 0.950 . S
H510 C518 0.950 . S
H511 C520 0.950 . S
H512 C522 0.950 . S
H513 C524 0.950 . S
H514 C526 0.950 . S
H515 C527 0.950 . S
C516 H508 0.959 . S
C516 C517 1.374 1_554 S
C516 C518 1.394 . S
C517 C516 1.374 1_556 S
C517 C521 1.393 . S
C518 H510 0.950 . S
C518 C516 1.394 . S
C518 C519 1.400 1_554 S
C519 C518 1.400 1_556 S
C519 C520 1.398 . S
C519 C525 1.491 . S
C520 H511 0.950 . S
C520 C519 1.398 . S
C520 C521 1.391 . S
C521 H509 0.950 . S
C521 C517 1.393 . S
C521 C520 1.391 . S
C522 H512 0.950 . S
C522 C523 1.386 . S
C522 C524 1.391 . S
C523 C522 1.386 . S
C523 C527 1.393 1_556 S
C524 H513 0.950 . S
C524 C522 1.391 . S
C524 C525 1.400 . S
C525 C519 1.491 . S
C525 C524 1.400 . S
C525 C526 1.398 1_556 S
C526 H514 0.950 . S
C526 C525 1.398 1_554 S
C526 C527 1.391 . S
C527 H515 0.950 . S
C527 C523 1.393 1_554 S
C527 C526 1.391 . S
H528 C536 0.950 . S
H529 C541 0.950 . S
H530 C538 0.950 . S
H531 C540 0.950 . S
H532 C542 0.950 . S
H533 C544 0.950 . S
H534 C546 0.950 . S
H535 C547 0.950 . S
C536 H528 0.950 . S
C536 C537 1.386 . S
C536 C538 1.391 . S
C537 C536 1.386 . S
C537 C541 1.393 . S
C538 H530 0.950 . S
C538 C536 1.391 . S
C538 C539 1.400 . S
C539 C538 1.400 . S
C539 C540 1.398 . S
C539 C545 1.491 . S
C540 H531 0.950 . S
C540 C539 1.398 . S
C540 C541 1.391 . S
C541 H529 0.950 . S
C541 C537 1.393 . S
C541 C540 1.391 . S
C542 H532 0.950 . S
C542 C543 1.386 . S
C542 C544 1.391 . S
C543 C542 1.386 . S
C543 C547 1.393 . S
C544 H533 0.950 . S
C544 C542 1.391 . S
C544 C545 1.400 . S
C545 C539 1.491 . S
C545 C544 1.400 . S
C545 C546 1.398 . S
C546 H534 0.950 . S
C546 C545 1.398 . S
C546 C547 1.391 . S
C547 H535 0.950 . S
C547 C543 1.393 . S
C547 C546 1.391 . S
H548 C556 0.950 . S
H549 C561 0.950 . S
H550 C558 0.950 . S
H551 C560 0.950 . S
H552 C562 0.950 . S
H553 C564 0.950 . S
H554 C566 0.950 . S
H555 C567 0.950 . S
C556 H548 0.950 . S
C556 C557 1.386 . S
C556 C558 1.391 . S
C557 C556 1.386 . S
C557 C561 1.393 . S
C558 H550 0.950 . S
C558 C556 1.391 . S
C558 C559 1.400 . S
C559 C558 1.400 . S
C559 C560 1.398 . S
C559 C565 1.491 . S
C560 H551 0.950 . S
C560 C559 1.398 . S
C560 C561 1.391 . S
C561 H549 0.950 . S
C561 C557 1.393 . S
C561 C560 1.391 . S
C562 H552 0.950 . S
C562 C563 1.386 . S
C562 C564 1.391 . S
C563 C562 1.386 . S
C563 C567 1.393 . S
C564 H553 0.950 . S
C564 C562 1.391 . S
C564 C565 1.400 . S
C565 C559 1.491 . S
C565 C564 1.400 . S
C565 C566 1.398 . S
C566 H554 0.950 . S
C566 C565 1.398 . S
C566 C567 1.391 . S
C567 H555 0.950 . S
C567 C563 1.393 . S
C567 C566 1.391 . S
H568 C576 0.950 . S
H569 C581 0.950 . S
H570 C578 0.950 . S
H571 C580 0.950 . S
H572 C582 0.950 . S
H573 C584 0.950 . S
H574 C586 0.950 . S
H575 C587 0.950 . S
C576 H568 0.950 . S
C576 C577 1.386 . S
C576 C578 1.391 . S
C577 C576 1.386 . S
C577 C581 1.393 . S
C578 H570 0.950 . S
C578 C576 1.391 . S
C578 C579 1.400 . S
C579 C578 1.400 . S
C579 C580 1.398 . S
C579 C585 1.491 . S
C580 H571 0.950 . S
C580 C579 1.398 . S
C580 C581 1.391 . S
C581 H569 0.950 . S
C581 C577 1.393 . S
C581 C580 1.391 . S
C582 H572 0.950 . S
C582 C583 1.386 . S
C582 C584 1.391 . S
C583 C582 1.386 . S
C583 C587 1.393 . S
C584 H573 0.950 . S
C584 C582 1.391 . S
C584 C585 1.400 . S
C585 C579 1.491 . S
C585 C584 1.400 . S
C585 C586 1.398 . S
C586 H574 0.950 . S
C586 C585 1.398 . S
C586 C587 1.391 . S
C587 H575 0.950 . S
C587 C583 1.393 . S
C587 C586 1.391 . S
H588 C596 0.950 . S
H589 C601 0.950 . S
H590 C598 0.950 1_655 S
H591 C600 0.950 . S
H592 C602 0.950 . S
H593 C604 0.950 . S
H594 C606 0.950 1_655 S
H595 C607 0.950 . S
C596 H588 0.950 . S
C596 C597 1.386 1_655 S
C596 C598 1.391 1_655 S
C597 C596 1.386 1_455 S
C597 C601 1.393 1_556 S
C598 H590 0.950 1_455 S
C598 C596 1.391 1_455 S
C598 C599 1.400 . S
C599 C598 1.400 . S
C599 C600 1.398 1_556 S
C599 C605 1.491 . S
C600 H591 0.950 . S
C600 C599 1.398 1_554 S
C600 C601 1.391 . S
C601 H589 0.950 . S
C601 C597 1.393 1_554 S
C601 C600 1.391 . S
C602 H592 0.950 . S
C602 C603 1.386 1_554 S
C602 C604 1.391 . S
C603 C602 1.386 1_556 S
C603 C607 1.393 . S
C604 H593 0.950 . S
C604 C602 1.391 . S
C604 C605 1.400 1_554 S
C605 C599 1.491 . S
C605 C604 1.400 1_556 S
C605 C606 1.398 . S
C606 H594 0.950 1_455 S
C606 C605 1.398 . S
C606 C607 1.391 . S
C607 H595 0.950 . S
C607 C603 1.393 . S
C607 C606 1.391 . S
H608 C616 0.950 . S
H609 C621 0.950 1_556 S
H610 C618 0.950 . S
H611 C620 0.950 1_556 S
H612 C622 0.950 1_556 S
H613 C624 0.950 1_556 S
H614 C626 0.950 . S
H615 C627 0.950 . S
C616 H608 0.950 . S
C616 C617 1.386 . S
C616 C618 1.391 . S
C617 C616 1.386 . S
C617 C621 1.393 . S
C618 H610 0.950 . S
C618 C616 1.391 . S
C618 C619 1.400 . S
C619 C618 1.400 . S
C619 C620 1.398 . S
C619 C625 1.491 . S
C620 H611 0.950 1_554 S
C620 C619 1.398 . S
C620 C621 1.391 . S
C621 H609 0.950 1_554 S
C621 C617 1.393 . S
C621 C620 1.391 . S
C622 H612 0.950 1_554 S
C622 C623 1.386 . S
C622 C624 1.391 . S
C623 C622 1.386 . S
C623 C627 1.393 . S
C624 H613 0.950 1_554 S
C624 C622 1.391 . S
C624 C625 1.400 . S
C625 C619 1.491 . S
C625 C624 1.400 . S
C625 C626 1.398 . S
C626 H614 0.950 . S
C626 C625 1.398 . S
C626 C627 1.391 . S
C627 H615 0.950 . S
C627 C623 1.393 . S
C627 C626 1.391 . S
H628 C636 0.950 . S
H629 C641 0.950 . S
H630 C638 0.950 . S
H631 C640 0.950 . S
H632 C642 0.950 1_655 S
H633 C644 0.950 . S
H634 C646 0.950 . S
H635 C647 0.950 . S
C636 H628 0.950 . S
C636 C637 1.386 . S
C636 C638 1.391 . S
C637 C636 1.386 . S
C637 C641 1.393 . S
C638 H630 0.950 . S
C638 C636 1.391 . S
C638 C639 1.400 . S
C639 C638 1.400 . S
C639 C640 1.398 . S
C639 C645 1.491 . S
C640 H631 0.950 . S
C640 C639 1.398 . S
C640 C641 1.391 . S
C641 H629 0.950 . S
C641 C637 1.393 . S
C641 C640 1.391 . S
C642 H632 0.950 1_455 S
C642 C643 1.386 . S
C642 C644 1.391 . S
C643 C642 1.386 . S
C643 C647 1.393 . S
C644 H633 0.950 . S
C644 C642 1.391 . S
C644 C645 1.400 . S
C645 C639 1.491 . S
C645 C644 1.400 . S
C645 C646 1.398 . S
C646 H634 0.950 . S
C646 C645 1.398 . S
C646 C647 1.391 . S
C647 H635 0.950 . S
C647 C643 1.393 . S
C647 C646 1.391 . S
H648 C656 0.950 . S
H649 C661 0.950 . S
H650 C658 0.950 . S
H651 C660 0.950 . S
H652 C662 0.950 . S
H653 C664 0.950 . S
H654 C666 0.950 . S
H655 C667 0.950 . S
C656 H648 0.950 . S
C656 C657 1.386 . S
C656 C658 1.391 . S
C657 C656 1.386 . S
C657 C661 1.393 . S
C658 H650 0.950 . S
C658 C656 1.391 . S
C658 C659 1.400 . S
C659 C658 1.400 . S
C659 C660 1.398 . S
C659 C665 1.491 . S
C660 H651 0.950 . S
C660 C659 1.398 . S
C660 C661 1.391 . S
C661 H649 0.950 . S
C661 C657 1.393 . S
C661 C660 1.391 . S
C662 H652 0.950 . S
C662 C663 1.386 . S
C662 C664 1.391 . S
C663 C662 1.386 . S
C663 C667 1.393 . S
C664 H653 0.950 . S
C664 C662 1.391 . S
C664 C665 1.400 . S
C665 C659 1.491 . S
C665 C664 1.400 . S
C665 C666 1.398 . S
C666 H654 0.950 . S
C666 C665 1.398 . S
C666 C667 1.391 . S
C667 H655 0.950 . S
C667 C663 1.393 . S
C667 C666 1.391 . S
C197 C9 1.951 . S
C203 C107 1.783 . S
C217 C21 1.554 . S
C223 C141 1.407 . S
C243 C153 1.181 . S
C237 C30 1.218 . S
C257 C43 1.253 . S
C263 C187 1.266 . S
C283 C144 1.394 . S
C277 C4 1.442 . S
C303 C124 1.848 . S
C297 C22 2.006 . S
C323 C171 1.119 . S
C317 C34 1.212 . S
C343 C162 1.281 . S
C337 C48 1.381 . S
C357 C8 1.638 . S
C363 C170 1.539 . S
C383 C132 1.385 . S
C377 C35 1.518 . S
C397 C47 1.595 . S
C403 C108 1.438 . S
C417 C17 1.389 . S
C423 C165 1.340 . S
C443 C123 1.560 . S
C437 C60 1.650 . S
C457 C74 1.833 . S
C463 C145 1.743 . S
C477 C82 1.182 . S
C483 C150 1.113 . S
C497 C100 1.854 . S
C503 C183 1.754 . S
C517 C61 1.881 . S
C523 C128 1.744 1_556 S
C543 C120 1.610 . S
C537 C73 1.673 . S
C563 C174 1.491 . S
C557 C87 1.647 . S
C583 C166 1.122 . S
C577 C95 1.104 . S
C597 C56 1.586 1_455 S
C603 C186 1.589 . S
C623 C129 1.626 . S
C617 C86 1.705 . S
C643 C111 1.452 . S
C637 C99 1.543 . S
C657 C69 1.516 . S
C663 C149 1.430 . S
