# Generated by pormake.
# Topology ssa, (4,4)-cn, num edge types: 1
# Building blocks:
#     Node 0, Type 0, BuildingBlock: ESEHIV_clean_sbu_0, # of connection points: 4
#     Node 1, Type 0, BuildingBlock: ESEHIV_clean_sbu_0, # of connection points: 4
#     Node 2, Type 0, BuildingBlock: ESEHIV_clean_sbu_0, # of connection points: 4
#     Node 3, Type 0, BuildingBlock: ESEHIV_clean_sbu_0, # of connection points: 4
#     Node 4, Type 0, BuildingBlock: ESEHIV_clean_sbu_0, # of connection points: 4
#     Node 5, Type 0, BuildingBlock: ESEHIV_clean_sbu_0, # of connection points: 4
#     Node 6, Type 1, BuildingBlock: NAWXER_clean_linker_0, # of connection points: 4
#     Node 7, Type 1, BuildingBlock: NAWXER_clean_linker_0, # of connection points: 4
#     Node 8, Type 1, BuildingBlock: NAWXER_clean_linker_0, # of connection points: 4
#     Node 9, Type 1, BuildingBlock: NAWXER_clean_linker_0, # of connection points: 4
#     Node 10, Type 1, BuildingBlock: NAWXER_clean_linker_0, # of connection points: 4
#     Node 11, Type 1, BuildingBlock: NAWXER_clean_linker_0, # of connection points: 4
#     Edge 12, Type (0, 1), BuildingBlock: KIFKEQ_clean_linker_1, # of connection points: 2
#     Edge 13, Type (0, 1), BuildingBlock: KIFKEQ_clean_linker_1, # of connection points: 2
#     Edge 14, Type (0, 1), BuildingBlock: KIFKEQ_clean_linker_1, # of connection points: 2
#     Edge 15, Type (0, 1), BuildingBlock: KIFKEQ_clean_linker_1, # of connection points: 2
#     Edge 16, Type (0, 1), BuildingBlock: KIFKEQ_clean_linker_1, # of connection points: 2
#     Edge 17, Type (0, 1), BuildingBlock: KIFKEQ_clean_linker_1, # of connection points: 2
#     Edge 18, Type (0, 1), BuildingBlock: KIFKEQ_clean_linker_1, # of connection points: 2
#     Edge 19, Type (0, 1), BuildingBlock: KIFKEQ_clean_linker_1, # of connection points: 2
#     Edge 20, Type (0, 1), BuildingBlock: KIFKEQ_clean_linker_1, # of connection points: 2
#     Edge 21, Type (0, 1), BuildingBlock: KIFKEQ_clean_linker_1, # of connection points: 2
#     Edge 22, Type (0, 1), BuildingBlock: KIFKEQ_clean_linker_1, # of connection points: 2
#     Edge 23, Type (0, 1), BuildingBlock: KIFKEQ_clean_linker_1, # of connection points: 2
#     Edge 24, Type (0, 1), BuildingBlock: KIFKEQ_clean_linker_1, # of connection points: 2
#     Edge 25, Type (0, 1), BuildingBlock: KIFKEQ_clean_linker_1, # of connection points: 2
#     Edge 26, Type (0, 1), BuildingBlock: KIFKEQ_clean_linker_1, # of connection points: 2
#     Edge 27, Type (0, 1), BuildingBlock: KIFKEQ_clean_linker_1, # of connection points: 2
#     Edge 28, Type (0, 1), BuildingBlock: KIFKEQ_clean_linker_1, # of connection points: 2
#     Edge 29, Type (0, 1), BuildingBlock: KIFKEQ_clean_linker_1, # of connection points: 2
#     Edge 30, Type (0, 1), BuildingBlock: KIFKEQ_clean_linker_1, # of connection points: 2
#     Edge 31, Type (0, 1), BuildingBlock: KIFKEQ_clean_linker_1, # of connection points: 2
#     Edge 32, Type (0, 1), BuildingBlock: KIFKEQ_clean_linker_1, # of connection points: 2
#     Edge 33, Type (0, 1), BuildingBlock: KIFKEQ_clean_linker_1, # of connection points: 2
#     Edge 34, Type (0, 1), BuildingBlock: KIFKEQ_clean_linker_1, # of connection points: 2
#     Edge 35, Type (0, 1), BuildingBlock: KIFKEQ_clean_linker_1, # of connection points: 2
# Relax obj value: 0.009
# Max RMSD: 0.106
# Mean RMSD: 0.056
data_MOF--net-ssa--node1-ESEHIV_clean_sbu_0--node2-NAWXER_clean_linker_0--edge1-KIFKEQ_clean_linker_1
_symmetry_space_group_name_H-M    P1
_symmetry_Int_Tables_number       1
_symmetry_cell_setting            triclinic
loop_
_symmetry_equiv_pos_as_xyz
'x, y, z'
_cell_length_a     59.223827
_cell_length_b     62.955827
_cell_length_c     42.67937
_cell_angle_alpha  88.285222
_cell_angle_beta   90.906002
_cell_angle_gamma 122.10702
loop_
_atom_site_label
_atom_site_type_symbol
_atom_site_fract_x
_atom_site_fract_y
_atom_site_fract_z
_atom_type_partial_charge
Cu0 Cu 0.99411 0.51552 0.00954 0.0
N1 N 0.96717 0.48227 0.01666 0.0
N2 N 0.93464 0.44362 1.00412 0.0
C3 C 0.95269 0.46695 0.99342 0.0
C4 C 0.93798 0.44428 0.03555 0.0
C5 C 0.9581 0.46829 0.04326 0.0
O6 O 0.98366 0.5246 0.97005 0.0
C7 C 0.03179 0.49984 0.01187 0.0
O8 O 0.01148 0.47754 0.00494 0.0
H9 H 0.95597 0.47278 0.96895 0.0
H10 H 0.96568 0.47502 0.06646 0.0
N11 N 0.99522 0.53506 0.04208 0.0
N12 N 0.01293 0.56143 0.08181 0.0
C13 C 0.01731 0.54981 0.05881 0.0
C14 C 0.97592 0.53719 0.05485 0.0
C15 C 0.98682 0.5535 0.07949 0.0
C16 C 0.98369 0.54455 0.96387 0.0
O17 O 0.99597 0.56354 0.98278 0.0
H18 H 0.03611 0.55143 0.05457 0.0
H19 H 0.95543 0.52746 0.04699 0.0
O20 O 0.02881 0.51849 0.01103 0.0
H21 H 0.92669 0.42864 0.05179 0.0
H22 H 0.97635 0.55909 0.09438 0.0
Cu23 Cu 0.51861 0.0109 0.50729 0.0
N24 N 0.53794 0.01028 0.47356 0.0
N25 N 0.55263 0.99377 0.43973 0.0
C26 C 0.53604 0.98925 0.46386 0.0
C27 C 0.56532 0.01876 0.43387 0.0
C28 C 0.55623 0.02891 0.45483 0.0
O29 O 0.48292 0.98163 0.50267 0.0
C30 C 0.55905 0.01598 0.54879 0.0
O31 O 0.5718 0.0174 0.52315 0.0
H32 H 0.52261 0.97096 0.47447 0.0
H33 H 0.56277 0.04847 0.45661 0.0
N34 N 0.51788 0.04025 0.50816 0.0
N35 N 0.51648 0.07172 0.52904 0.0
C36 C 0.51718 0.05088 0.53476 0.0
C37 C 0.5179 0.05503 0.48468 0.0
C38 C 0.51681 0.07437 0.49752 0.0
C39 C 0.46935 0.98193 0.47943 0.0
O40 O 0.47905 0.00259 0.46221 0.0
H41 H 0.51679 0.04322 0.55793 0.0
H42 H 0.51863 0.05198 0.46001 0.0
O43 O 0.53505 0.01046 0.54683 0.0
H44 H 0.58053 0.02911 0.41623 0.0
H45 H 0.51664 0.08939 0.4847 0.0
Cu46 Cu 0.52621 0.51007 0.03008 0.0
N47 N 0.5246 0.47956 0.02836 0.0
N48 N 0.52231 0.44669 0.00613 0.0
C49 C 0.52083 0.46723 1.00161 0.0
C50 C 0.52714 0.44602 0.03705 0.0
C51 C 0.52844 0.46626 0.05074 0.0
O52 O 0.54736 0.52958 0.99403 0.0
C53 C 0.47581 0.48905 0.05291 0.0
O54 O 0.48476 0.47737 0.07004 0.0
H55 H 0.51795 0.47375 0.97902 0.0
H56 H 0.5321 0.47097 0.07519 0.0
N57 N 0.54263 0.52868 0.06591 0.0
N58 N 0.55511 0.55957 0.09975 0.0
C59 C 0.54138 0.54865 0.07338 0.0
C60 C 0.55774 0.52677 0.08832 0.0
C61 C 0.56548 0.54581 0.10923 0.0
C62 C 0.57156 0.53571 0.99605 0.0
O63 O 0.57944 0.52977 0.02198 0.0
H64 H 0.531 0.5553 0.05911 0.0
H65 H 0.56317 0.51287 0.08919 0.0
O66 O 0.49051 0.50396 0.03096 0.0
H67 H 0.52955 0.43191 0.04894 0.0
H68 H 0.57774 0.54916 0.12979 0.0
Cu69 Cu 0.98512 0.4713 0.51048 0.0
N70 N 0.98937 0.45796 0.47431 0.0
N71 N 0.01008 0.45464 0.43315 0.0
C72 C 0.01158 0.46918 0.45669 0.0
C73 C 0.98576 0.4334 0.43604 0.0
C74 C 0.97306 0.43548 0.46158 0.0
O75 O 0.01719 0.50522 0.51232 0.0
C76 C 0.97395 0.45061 0.57356 0.0
O77 O 0.98033 0.47298 0.58223 0.0
H78 H 0.02865 0.4876 0.46139 0.0
H79 H 0.95364 0.42139 0.47068 0.0
N80 N 0.95496 0.4734 0.50711 0.0
N81 N 0.92398 0.48136 0.5206 0.0
C82 C 0.94802 0.48486 0.52743 0.0
C83 C 0.93475 0.46238 0.48647 0.0
C84 C 0.91552 0.46722 0.4948 0.0
C85 C 0.01735 0.52144 0.49342 0.0
O86 O 0.99564 0.515 0.47733 0.0
H87 H 0.95992 0.4947 0.5476 0.0
H88 H 0.93374 0.45109 0.46727 0.0
O89 O 0.9776 0.44742 0.54517 0.0
H90 H 0.97803 0.41716 0.42151 0.0
H91 H 0.89664 0.46051 0.48309 0.0
Cu92 Cu 0.49879 0.00653 0.04838 0.0
N93 N 0.49219 0.03224 0.04437 0.0
N94 N 0.49231 0.06459 0.02126 0.0
C95 C 0.50522 0.05234 0.0249 0.0
C96 C 0.47071 0.0521 0.04008 0.0
C97 C 0.47066 0.03208 0.05423 0.0
O98 O 0.51814 0.00797 0.01097 0.0
C99 C 0.46268 0.95371 0.06112 0.0
O100 O 0.48246 0.9513 0.05281 0.0
H101 H 0.52296 0.05692 0.01214 0.0
H102 H 0.45503 0.01741 0.06878 0.0
N103 N 0.52193 0.0126 0.08163 0.0
N104 N 0.54049 1.00103 0.11886 0.0
C105 C 0.51769 0.99569 0.10439 0.0
C106 C 0.5482 0.02988 0.08232 0.0
C107 C 0.55972 0.02286 0.10539 0.0
C108 C 0.51327 0.01279 0.98338 0.0
O109 O 0.49046 0.01106 0.97784 0.0
H110 H 0.49856 0.97868 0.10839 0.0
H111 H 0.55861 0.04498 0.06514 0.0
O112 O 0.46531 0.97512 0.05812 0.0
H113 H 0.45495 0.0559 0.04157 0.0
H114 H 0.58091 0.0317 0.10949 0.0
Cu115 Cu 0.50108 0.49076 0.47717 0.0
N116 N 0.52191 0.50952 0.4429 0.0
N117 N 0.53846 0.54158 0.40825 0.0
C118 C 0.5167 0.52392 0.42416 0.0
C119 C 0.55798 0.5375 0.41642 0.0
C120 C 0.54771 0.51775 0.43798 0.0
O121 O 0.46583 0.48591 0.47055 0.0
C122 C 0.51699 0.50364 0.54259 0.0
O123 O 0.49244 0.48703 0.55134 0.0
H124 H 0.49789 0.52281 0.42407 0.0
H125 H 0.55889 0.51152 0.45139 0.0
N126 N 0.49786 0.45966 0.47893 0.0
N127 N 0.49444 0.42538 0.50084 0.0
C128 C 0.49089 0.44461 0.5046 0.0
C129 C 0.50583 0.44951 0.45786 0.0
C130 C 0.50377 0.42832 0.47134 0.0
C131 C 0.46106 0.50341 0.47022 0.0
O132 O 0.47942 0.52554 0.4805 0.0
H133 H 0.48491 0.44854 0.52631 0.0
H134 H 0.51381 0.45761 0.43492 0.0
O135 O 0.5223 0.50896 0.51356 0.0
H136 H 0.57874 0.54947 0.40982 0.0
H137 H 0.50954 0.41654 0.46061 0.0
C138 C 0.3385 0.51267 0.18689 0.0
C139 C 0.33059 0.49578 0.16217 0.0
C140 C 0.31945 0.51362 0.20484 0.0
C141 C 0.29214 0.49746 0.19863 0.0
C142 C 0.30326 0.47998 0.15581 0.0
C143 C 0.28432 0.48084 0.17378 0.0
C144 C 0.27132 0.49847 0.21608 0.0
C145 C 0.31471 0.48016 0.29175 0.0
C146 C 0.32636 0.49839 0.31505 0.0
C147 C 0.29683 0.48029 0.26982 0.0
C148 C 0.29015 0.49862 0.27078 0.0
C149 C 0.31962 0.51669 0.31582 0.0
C150 C 0.30159 0.51665 0.29417 0.0
C151 C 0.26998 0.49834 0.24919 0.0
C152 C 0.17036 0.47151 0.29972 0.0
C153 C 0.16134 0.48789 0.29409 0.0
C154 C 0.19261 0.47503 0.284 0.0
C155 C 0.20618 0.49484 0.26207 0.0
C156 C 0.17539 0.50819 0.2727 0.0
C157 C 0.1977 0.51167 0.25687 0.0
C158 C 0.22905 0.49738 0.24502 0.0
C159 C 0.20133 0.51621 0.14415 0.0
C160 C 0.17367 0.49948 0.14815 0.0
C161 C 0.21956 0.51566 0.16495 0.0
C162 C 0.21076 0.49844 0.1904 0.0
C163 C 0.16492 0.48192 0.1734 0.0
C164 C 0.18322 0.48119 0.19398 0.0
C165 C 0.23074 0.4982 0.21193 0.0
H166 H 0.35939 0.52505 0.19253 0.0
H167 H 0.32611 0.52717 0.22322 0.0
H168 H 0.29643 0.46711 0.1366 0.0
H169 H 0.26341 0.46841 0.16821 0.0
H170 H 0.31951 0.46584 0.29038 0.0
H171 H 0.2879 0.46585 0.25245 0.0
H172 H 0.32787 0.53079 0.33365 0.0
H173 H 0.29653 0.53079 0.2957 0.0
H174 H 0.16034 0.45603 0.31653 0.0
H175 H 0.19898 0.46197 0.28859 0.0
H176 H 0.16893 0.52114 0.2679 0.0
H177 H 0.20817 0.52735 0.24042 0.0
H178 H 0.20903 0.5296 0.12467 0.0
H179 H 0.24067 0.52888 0.16121 0.0
H180 H 0.14387 0.46879 0.17756 0.0
H181 H 0.17575 0.46704 0.21262 0.0
N182 N 0.2518 0.49863 0.19894 0.0
N183 N 0.24877 0.49765 0.26222 0.0
C184 C 0.83339 0.29446 0.83763 0.0
C185 C 0.82169 0.30224 0.85922 0.0
C186 C 0.8175 0.27514 0.81707 0.0
C187 C 0.78964 0.2636 0.81732 0.0
C188 C 0.79385 0.29062 0.85948 0.0
C189 C 0.77801 0.2715 0.83878 0.0
C190 C 0.77214 0.24191 0.79746 0.0
C191 C 0.82091 0.30584 0.72763 0.0
C192 C 0.84017 0.3034 0.71188 0.0
C193 C 0.8006 0.28578 0.74528 0.0
C194 C 0.7987 0.26259 0.74733 0.0
C195 C 0.83818 0.28004 0.71431 0.0
C196 C 0.81751 0.25984 0.73143 0.0
C197 C 0.77673 0.24101 0.76524 0.0
C198 C 0.67265 0.15049 0.72622 0.0
C199 C 0.68124 0.13869 0.70643 0.0
C200 C 0.69093 0.17063 0.74428 0.0
C201 C 0.71815 0.17908 0.74349 0.0
C202 C 0.70864 0.14767 0.70503 0.0
C203 C 0.72693 0.16775 0.7233 0.0
C204 C 0.73745 0.19987 0.76343 0.0
C205 C 0.6821 0.13473 0.82737 0.0
C206 C 0.66815 0.1398 0.84924 0.0
C207 C 0.70344 0.15431 0.81032 0.0
C208 C 0.7108 0.17936 0.81402 0.0
C209 C 0.67602 0.16488 0.85361 0.0
C210 C 0.69705 0.18439 0.8362 0.0
C211 C 0.73323 0.20054 0.79586 0.0
H212 H 0.85478 0.30284 0.83723 0.0
H213 H 0.82697 0.26881 0.80166 0.0
H214 H 0.7843 0.29641 0.87561 0.0
H215 H 0.75657 0.26277 0.83963 0.0
H216 H 0.82109 0.32311 0.72593 0.0
H217 H 0.78605 0.28825 0.75692 0.0
H218 H 0.85271 0.27728 0.70326 0.0
H219 H 0.81646 0.24212 0.73267 0.0
H220 H 0.65172 0.14402 0.72804 0.0
H221 H 0.68374 0.1795 0.75907 0.0
H222 H 0.71602 0.13936 0.68955 0.0
H223 H 0.74789 0.17422 0.72199 0.0
H224 H 0.67684 0.11565 0.82391 0.0
H225 H 0.71427 0.14981 0.7944 0.0
H226 H 0.66563 0.1694 0.87021 0.0
H227 H 0.70239 0.20348 0.83985 0.0
N228 N 0.75064 0.22167 0.81138 0.0
N229 N 0.75918 0.21997 0.74949 0.0
C230 C 0.5987 0.72943 0.21561 0.0
C231 C 0.57879 0.71576 0.19321 0.0
C232 C 0.59986 0.74933 0.23083 0.0
C233 C 0.5811 0.756 0.22407 0.0
C234 C 0.56092 0.72341 0.18527 0.0
C235 C 0.56217 0.74343 0.20047 0.0
C236 C 0.57951 0.77412 0.2439 0.0
C237 C 0.54636 0.70165 0.29464 0.0
C238 C 0.56382 0.70205 0.31764 0.0
C239 C 0.54982 0.72394 0.28242 0.0
C240 C 0.57111 0.74714 0.29244 0.0
C241 C 0.58455 0.72534 0.32855 0.0
C242 C 0.5881 0.74774 0.31609 0.0
C243 C 0.57626 0.77052 0.27677 0.0
C244 C 0.5503 0.84688 0.31047 0.0
C245 C 0.56994 0.86223 0.3323 0.0
C246 C 0.55207 0.82873 0.29458 0.0
C247 C 0.57359 0.8256 0.29999 0.0
C248 C 0.59092 0.85832 0.33858 0.0
C249 C 0.59266 0.8401 0.32263 0.0
C250 C 0.57703 0.80849 0.28037 0.0
C251 C 0.59696 0.87772 0.22842 0.0
C252 C 0.57527 0.87296 0.20938 0.0
C253 C 0.59949 0.85794 0.2393 0.0
C254 C 0.58041 0.83318 0.23125 0.0
C255 C 0.55712 0.84832 0.19987 0.0
C256 C 0.55978 0.82859 0.21058 0.0
C257 C 0.57982 0.81188 0.24745 0.0
H258 H 0.6132 0.72451 0.22178 0.0
H259 H 0.61488 0.75901 0.24869 0.0
H260 H 0.54523 0.71326 0.1683 0.0
H261 H 0.54746 0.74822 0.19497 0.0
H262 H 0.53034 0.6841 0.28548 0.0
H263 H 0.53622 0.72309 0.26449 0.0
H264 H 0.59804 0.72626 0.34666 0.0
H265 H 0.60454 0.7655 0.32424 0.0
H266 H 0.53354 0.84891 0.30555 0.0
H267 H 0.5369 0.81747 0.27751 0.0
H268 H 0.60648 0.86988 0.35508 0.0
H269 H 0.60943 0.83799 0.3271 0.0
H270 H 0.61121 0.89653 0.23607 0.0
H271 H 0.61564 0.86181 0.25516 0.0
H272 H 0.54047 0.84424 0.18477 0.0
H273 H 0.54487 0.8096 0.20416 0.0
N274 N 0.58079 0.79452 0.23026 0.0
N275 N 0.57539 0.78792 0.29396 0.0
C276 C 0.83507 0.54308 0.68762 0.0
C277 C 0.82275 0.52163 0.66907 0.0
C278 C 0.81994 0.54763 0.70806 0.0
C279 C 0.7923 0.53063 0.71056 0.0
C280 C 0.79503 0.5049 0.67139 0.0
C281 C 0.77999 0.5094 0.69183 0.0
C282 C 0.77558 0.53537 0.73096 0.0
C283 C 0.83129 0.52552 0.79444 0.0
C284 C 0.84478 0.5434 0.8179 0.0
C285 C 0.81055 0.52466 0.77702 0.0
C286 C 0.80346 0.54249 0.78114 0.0
C287 C 0.83679 0.56055 0.82285 0.0
C288 C 0.81668 0.56021 0.80463 0.0
C289 C 0.78126 0.54193 0.76293 0.0
C290 C 0.68256 0.53329 0.80947 0.0
C291 C 0.69153 0.55699 0.82194 0.0
C292 C 0.69922 0.52963 0.79068 0.0
C293 C 0.72532 0.54944 0.78432 0.0
C294 C 0.71771 0.57689 0.81501 0.0
C295 C 0.73454 0.57302 0.79676 0.0
C296 C 0.74295 0.54547 0.76475 0.0
C297 C 0.68504 0.55151 0.70048 0.0
C298 C 0.66998 0.531 0.68089 0.0
C299 C 0.70677 0.55406 0.71749 0.0
C300 C 0.71357 0.53582 0.71596 0.0
C301 C 0.67702 0.51296 0.67905 0.0
C302 C 0.69853 0.51536 0.69633 0.0
C303 C 0.73701 0.53837 0.73319 0.0
H304 H 0.8564 0.55629 0.68646 0.0
H305 H 0.82978 0.56446 0.72174 0.0
H306 H 0.78482 0.48849 0.65699 0.0
H307 H 0.75863 0.49623 0.69302 0.0
H308 H 0.83658 0.51202 0.78921 0.0
H309 H 0.79995 0.50973 0.76056 0.0
H310 H 0.84567 0.57415 0.84117 0.0
H311 H 0.81136 0.57386 0.80911 0.0
H312 H 0.66288 0.51731 0.81483 0.0
H313 H 0.69187 0.5112 0.78148 0.0
H314 H 0.72528 0.59549 0.82363 0.0
H315 H 0.75464 0.58855 0.7919 0.0
H316 H 0.68049 0.566 0.70195 0.0
H317 H 0.71857 0.57064 0.73124 0.0
H318 H 0.66578 0.49685 0.66434 0.0
H319 H 0.70338 0.5011 0.69441 0.0
N320 N 0.75362 0.5336 0.71766 0.0
N321 N 0.76471 0.54698 0.77836 0.0
C322 C 0.16888 0.6666 0.25372 0.0
C323 C 0.1553 0.67436 0.23379 0.0
C324 C 0.1913 0.68419 0.27053 0.0
C325 C 0.20047 0.70983 0.26773 0.0
C326 C 0.16449 0.70002 0.23122 0.0
C327 C 0.18694 0.71757 0.24785 0.0
C328 C 0.22477 0.72896 0.28415 0.0
C329 C 0.16318 0.68284 0.358 0.0
C330 C 0.16989 0.66855 0.37753 0.0
C331 C 0.18225 0.70218 0.33849 0.0
C332 C 0.20856 0.70775 0.33792 0.0
C333 C 0.1965 0.67467 0.37752 0.0
C334 C 0.21564 0.69417 0.35808 0.0
C335 C 0.22876 0.72795 0.31675 0.0
C336 C 0.31596 0.83336 0.34103 0.0
C337 C 0.32974 0.82959 0.36551 0.0
C338 C 0.297 0.81325 0.3234 0.0
C339 C 0.29163 0.78894 0.32955 0.0
C340 C 0.32412 0.80519 0.37189 0.0
C341 C 0.30515 0.78505 0.35416 0.0
C342 C 0.27025 0.76733 0.31232 0.0
C343 C 0.33296 0.81547 0.23949 0.0
C344 C 0.32433 0.82306 0.21286 0.0
C345 C 0.31459 0.79769 0.26118 0.0
C346 C 0.28705 0.78745 0.25736 0.0
C347 C 0.29672 0.81239 0.20885 0.0
C348 C 0.27842 0.79492 0.23076 0.0
C349 C 0.26691 0.76767 0.27935 0.0
H350 H 0.16224 0.64695 0.25621 0.0
H351 H 0.20171 0.67782 0.28527 0.0
H352 H 0.15475 0.70663 0.21566 0.0
H353 H 0.19381 0.73727 0.24514 0.0
H354 H 0.14316 0.67925 0.35789 0.0
H355 H 0.17643 0.71284 0.32386 0.0
H356 H 0.20246 0.66407 0.39202 0.0
H357 H 0.23588 0.69828 0.35827 0.0
H358 H 0.31934 0.85179 0.33595 0.0
H359 H 0.28612 0.81665 0.30539 0.0
H360 H 0.3345 0.80168 0.39046 0.0
H361 H 0.30105 0.76641 0.35965 0.0
H362 H 0.35397 0.82328 0.24374 0.0
H363 H 0.32202 0.79174 0.28067 0.0
H364 H 0.28904 0.81712 0.18843 0.0
H365 H 0.25736 0.78713 0.22675 0.0
N366 N 0.24404 0.74859 0.26682 0.0
N367 N 0.2513 0.74727 0.32956 0.0
C368 C 0.49214 0.17664 0.82491 0.0
C369 C 0.51181 0.18534 0.84841 0.0
C370 C 0.49226 0.19332 0.80241 0.0
C371 C 0.51221 0.21893 0.80282 0.0
C372 C 0.53214 0.21087 0.84817 0.0
C373 C 0.53224 0.22749 0.82572 0.0
C374 C 0.51059 0.23741 0.78227 0.0
C375 C 0.52377 0.19072 0.715 0.0
C376 C 0.50592 0.18078 0.68959 0.0
C377 C 0.52329 0.20769 0.73508 0.0
C378 C 0.50448 0.21469 0.7308 0.0
C379 C 0.48712 0.18783 0.68544 0.0
C380 C 0.48641 0.20448 0.70576 0.0
C381 C 0.50514 0.23452 0.74978 0.0
C382 C 0.5172 0.33062 0.70441 0.0
C383 C 0.49626 0.3206 0.68242 0.0
C384 C 0.51906 0.31503 0.72701 0.0
C385 C 0.49985 0.2892 0.72818 0.0
C386 C 0.47676 0.29484 0.68427 0.0
C387 C 0.4786 0.27934 0.70681 0.0
C388 C 0.50332 0.27169 0.74847 0.0
C389 C 0.49454 0.32075 0.81742 0.0
C390 C 0.51437 0.33144 0.84077 0.0
C391 C 0.49313 0.30288 0.79724 0.0
C392 C 0.51184 0.29561 0.79954 0.0
C393 C 0.53303 0.32409 0.84287 0.0
C394 C 0.53177 0.30649 0.82257 0.0
C395 C 0.5095 0.27496 0.78079 0.0
H396 H 0.476 0.15715 0.82471 0.0
H397 H 0.47614 0.18636 0.78556 0.0
H398 H 0.54779 0.21809 0.86566 0.0
H399 H 0.54774 0.2472 0.82662 0.0
H400 H 0.53838 0.18563 0.7193 0.0
H401 H 0.53822 0.21585 0.75333 0.0
H402 H 0.47339 0.18114 0.66588 0.0
H403 H 0.47193 0.20977 0.70149 0.0
H404 H 0.53244 0.35043 0.70377 0.0
H405 H 0.53601 0.32302 0.74272 0.0
H406 H 0.46061 0.28639 0.66745 0.0
H407 H 0.46374 0.25941 0.70701 0.0
H408 H 0.4799 0.326 0.81485 0.0
H409 H 0.47694 0.29427 0.78052 0.0
H410 H 0.54824 0.33133 0.86087 0.0
H411 H 0.54624 0.30102 0.82527 0.0
N412 N 0.51279 0.25757 0.79622 0.0
N413 N 0.5015 0.25171 0.73444 0.0
H414 H 0.04772 0.46626 0.01106 0.0
H415 H 0.07004 0.53821 0.04721 0.0
H416 H 0.08334 0.46703 0.04133 0.0
H417 H 0.10484 0.53853 0.07865 0.0
H418 H 0.17729 0.54071 0.11842 0.0
H419 H 0.14602 0.54193 0.08202 0.0
H420 H 0.09337 0.46155 0.09285 0.0
H421 H 0.12552 0.46011 0.12734 0.0
C422 C 0.06037 0.48236 0.02531 0.0
C423 C 0.05592 0.50214 0.02667 0.0
C424 C 0.08067 0.48269 0.04304 0.0
C425 C 0.09691 0.50265 0.06304 0.0
C426 C 0.09307 0.52291 0.06341 0.0
C427 C 0.07298 0.52272 0.04534 0.0
C428 C 0.15929 0.52319 0.11265 0.0
C429 C 0.15416 0.50029 0.12603 0.0
C430 C 0.14106 0.52394 0.092 0.0
C431 C 0.11695 0.50186 0.08426 0.0
C432 C 0.11182 0.47897 0.09766 0.0
C433 C 0.13017 0.47819 0.11804 0.0
H434 H 0.61045 0.02991 0.56133 0.0
H435 H 0.54272 0.02776 0.6016 0.0
H436 H 0.63867 0.05666 0.6033 0.0
H437 H 0.57096 0.05428 0.64377 0.0
H438 H 0.68033 0.09577 0.69349 0.0
H439 H 0.64893 0.06157 0.66006 0.0
H440 H 0.60653 0.0992 0.64226 0.0
H441 H 0.63796 0.13343 0.67511 0.0
C442 C 0.60142 0.03459 0.57957 0.0
C443 C 0.5744 0.02696 0.57786 0.0
C444 C 0.6176 0.04988 0.60369 0.0
C445 C 0.60712 0.0579 0.62655 0.0
C446 C 0.57969 0.04875 0.62614 0.0
C447 C 0.56347 0.03336 0.60211 0.0
C448 C 0.66436 0.09678 0.68233 0.0
C449 C 0.66172 0.1174 0.68695 0.0
C450 C 0.64632 0.07713 0.66333 0.0
C451 C 0.62516 0.0776 0.64871 0.0
C452 C 0.62228 0.09801 0.65373 0.0
C453 C 0.64036 0.11768 0.67255 0.0
H454 H 0.59466 0.59138 0.13919 0.0
H455 H 0.52306 0.57822 0.09282 0.0
H456 H 0.60075 0.62922 0.16177 0.0
H457 H 0.52943 0.61614 0.11503 0.0
H458 H 0.5659 0.69991 0.13254 0.0
H459 H 0.5602 0.66206 0.1104 0.0
H460 H 0.57973 0.64222 0.20004 0.0
H461 H 0.58503 0.67979 0.22235 0.0
C462 C 0.58009 0.59637 0.13395 0.0
C463 C 0.55844 0.58167 0.11394 0.0
C464 C 0.58363 0.61813 0.14688 0.0
C465 C 0.56567 0.62581 0.14004 0.0
C466 C 0.54391 0.61103 0.12031 0.0
C467 C 0.54029 0.58923 0.10753 0.0
C468 C 0.5688 0.68741 0.14762 0.0
C469 C 0.57602 0.69303 0.17924 0.0
C470 C 0.56555 0.6657 0.1349 0.0
C471 C 0.56952 0.6491 0.15345 0.0
C472 C 0.57691 0.65479 0.18498 0.0
C473 C 0.58002 0.67641 0.19774 0.0
H474 H 0.8704 0.45738 0.52711 0.0
H475 H 0.94465 0.52224 0.55666 0.0
H476 H 0.84608 0.46826 0.56209 0.0
H477 H 0.92039 0.53277 0.59228 0.0
H478 H 0.86369 0.55535 0.63063 0.0
H479 H 0.88827 0.54671 0.59295 0.0
H480 H 0.84169 0.4681 0.61968 0.0
H481 H 0.81739 0.47671 0.65752 0.0
C482 C 0.8815 0.47411 0.54078 0.0
C483 C 0.90946 0.48887 0.53925 0.0
C484 C 0.86761 0.48018 0.56109 0.0
C485 C 0.88136 0.50123 0.58014 0.0
C486 C 0.90924 0.51649 0.57781 0.0
C487 C 0.92314 0.51033 0.55763 0.0
C488 C 0.85892 0.53628 0.62872 0.0
C489 C 0.83849 0.5167 0.64699 0.0
C490 C 0.87293 0.53133 0.60707 0.0
C491 C 0.86671 0.50669 0.60316 0.0
C492 C 0.84654 0.4872 0.62169 0.0
C493 C 0.83264 0.49215 0.64339 0.0
H494 H 0.42602 0.95666 0.09586 0.0
H495 H 0.4484 0.90468 0.06926 0.0
H496 H 0.39275 0.92516 0.13152 0.0
H497 H 0.41412 0.87256 0.10387 0.0
H498 H 0.37219 0.82989 0.19392 0.0
H499 H 0.40414 0.86065 0.15653 0.0
H500 H 0.35193 0.88812 0.13841 0.0
H501 H 0.32107 0.85881 0.17766 0.0
C502 C 0.42344 0.93829 0.09708 0.0
C503 C 0.43997 0.93328 0.07961 0.0
C504 C 0.40418 0.92006 0.11757 0.0
C505 C 0.40058 0.89611 0.12095 0.0
C506 C 0.41655 0.89086 0.10259 0.0
C507 C 0.43608 0.90923 0.08238 0.0
C508 C 0.36764 0.84274 0.18243 0.0
C509 C 0.34387 0.84171 0.18921 0.0
C510 C 0.38586 0.8602 0.16039 0.0
C511 C 0.3808 0.87704 0.14408 0.0
C512 C 0.3569 0.87583 0.15064 0.0
C513 C 0.33886 0.85861 0.17296 0.0
H514 H 0.52219 0.40222 0.50539 0.0
H515 H 0.46242 0.40941 0.5519 0.0
H516 H 0.52175 0.3762 0.54912 0.0
H517 H 0.4629 0.38447 0.59619 0.0
H518 H 0.45263 0.31962 0.65805 0.0
H519 H 0.4509 0.34304 0.6126 0.0
H520 H 0.53647 0.38148 0.60302 0.0
H521 H 0.53804 0.35715 0.64752 0.0
C522 C 0.50878 0.39808 0.52475 0.0
C523 C 0.49247 0.40807 0.52517 0.0
C524 C 0.50881 0.38346 0.55007 0.0
C525 C 0.49252 0.37848 0.57636 0.0
C526 C 0.47559 0.3878 0.57629 0.0
C527 C 0.47552 0.40234 0.55099 0.0
C528 C 0.47107 0.33297 0.64614 0.0
C529 C 0.49547 0.33645 0.65642 0.0
C530 C 0.4701 0.34657 0.62023 0.0
C531 C 0.49353 0.36406 0.60402 0.0
C532 C 0.51799 0.36786 0.61463 0.0
C533 C 0.51894 0.35421 0.64049 0.0
H534 H 0.54194 0.94878 0.46337 0.0
H535 H 0.57181 0.99741 0.38097 0.0
H536 H 0.5466 0.91767 0.43709 0.0
H537 H 0.57765 0.96662 0.35509 0.0
H538 H 0.55554 0.89379 0.30658 0.0
H539 H 0.55194 0.92581 0.33248 0.0
H540 H 0.57925 0.90951 0.41905 0.0
H541 H 0.58162 0.87664 0.39351 0.0
C542 C 0.54949 0.9529 0.43962 0.0
C543 C 0.55629 0.97566 0.42429 0.0
C544 C 0.55253 0.93512 0.42466 0.0
C545 C 0.56256 0.93958 0.39394 0.0
C546 C 0.56959 0.96241 0.37863 0.0
C547 C 0.56651 0.98022 0.39362 0.0
C548 C 0.56051 0.89683 0.33124 0.0
C549 C 0.56866 0.88242 0.348 0.0
C550 C 0.5588 0.91547 0.346 0.0
C551 C 0.56526 0.92029 0.37791 0.0
C552 C 0.57377 0.90612 0.39456 0.0
C553 C 0.57543 0.88744 0.3798 0.0
H554 H 0.62408 0.55219 0.99615 0.0
H555 H 0.56062 0.54217 0.93469 0.0
H556 H 0.65295 0.56226 0.9517 0.0
H557 H 0.5903 0.55355 0.88954 0.0
H558 H 0.63689 0.53426 0.82051 0.0
H559 H 0.60854 0.53444 0.86082 0.0
H560 H 0.67837 0.58964 0.91115 0.0
H561 H 0.70667 0.58762 0.87266 0.0
C562 C 0.61644 0.5527 0.97308 0.0
C563 C 0.58991 0.54605 0.96894 0.0
C564 C 0.6332 0.55879 0.94744 0.0
C565 C 0.62405 0.5587 0.91683 0.0
C566 C 0.59791 0.55343 0.91275 0.0
C567 C 0.58096 0.54713 0.9386 0.0
C568 C 0.64626 0.54632 0.84028 0.0
C569 C 0.6742 0.56039 0.84357 0.0
C570 C 0.62992 0.5468 0.86316 0.0
C571 C 0.6411 0.56172 0.88965 0.0
C572 C 0.66901 0.57738 0.89154 0.0
C573 C 0.68533 0.57651 0.86905 0.0
H574 H 0.06972 0.53405 0.49721 0.0
H575 H 0.02066 0.56298 0.46853 0.0
H576 H 0.10838 0.57052 0.47151 0.0
H577 H 0.05886 0.59903 0.44326 0.0
H578 H 0.11768 0.63512 0.36252 0.0
H579 H 0.08303 0.60152 0.39488 0.0
H580 H 0.13972 0.6187 0.46959 0.0
H581 H 0.17465 0.65304 0.43732 0.0
C582 C 0.06736 0.5485 0.48626 0.0
C583 C 0.04209 0.54554 0.48472 0.0
C584 C 0.08944 0.56931 0.47141 0.0
C585 C 0.08654 0.5874 0.45475 0.0
C586 C 0.06166 0.58516 0.45521 0.0
C587 C 0.03978 0.56455 0.46993 0.0
C588 C 0.12285 0.6321 0.38597 0.0
C589 C 0.14903 0.6472 0.39732 0.0
C590 C 0.10292 0.6127 0.40455 0.0
C591 C 0.10849 0.60761 0.43502 0.0
C592 C 0.13479 0.62211 0.4462 0.0
C593 C 0.1548 0.64176 0.42762 0.0
H594 H 0.51757 0.07276 0.96552 0.0
H595 H 0.47803 0.0989 0.02275 0.0
H596 H 0.52375 0.10284 0.92434 0.0
H597 H 0.48339 0.12851 0.98084 0.0
H598 H 0.52035 0.19478 0.91093 0.0
H599 H 0.51747 0.16663 0.95329 0.0
H600 H 0.49593 0.10855 0.88651 0.0
H601 H 0.49973 0.13705 0.84394 0.0
C602 C 0.51046 0.08511 0.96955 0.0
C603 C 0.49738 0.08347 0.99762 0.0
C604 C 0.51368 0.10214 0.94567 0.0
C605 C 0.50392 0.11796 0.94921 0.0
C606 C 0.49131 0.1167 0.97748 0.0
C607 C 0.48804 0.09961 1.00139 0.0
C608 C 0.51537 0.17612 0.90522 0.0
C609 C 0.5104 0.16819 0.87403 0.0
C610 C 0.5134 0.1599 0.92955 0.0
C611 C 0.50645 0.13536 0.92328 0.0
C612 C 0.50161 0.12745 0.89208 0.0
C613 C 0.50352 0.14367 0.86773 0.0
H614 H 0.42635 0.46447 0.43297 0.0
H615 H 0.44422 0.53639 0.46434 0.0
H616 H 0.39355 0.46286 0.39646 0.0
H617 H 0.41062 0.53438 0.42871 0.0
H618 H 0.37343 0.53842 0.33604 0.0
H619 H 0.40388 0.53856 0.37516 0.0
H620 H 0.35196 0.45823 0.38785 0.0
H621 H 0.32193 0.45814 0.34797 0.0
C622 C 0.42288 0.47972 0.43263 0.0
C623 C 0.43809 0.50061 0.45165 0.0
C624 C 0.40392 0.47877 0.41162 0.0
C625 C 0.39941 0.4986 0.40915 0.0
C626 C 0.41385 0.51899 0.42922 0.0
C627 C 0.43298 0.52003 0.45003 0.0
C628 C 0.36846 0.52079 0.34727 0.0
C629 C 0.34519 0.49827 0.33877 0.0
C630 C 0.38589 0.52086 0.36994 0.0
C631 C 0.38049 0.49843 0.38509 0.0
C632 C 0.35715 0.47588 0.37653 0.0
C633 C 0.33984 0.47579 0.3536 0.0
H634 H 0.91497 0.44543 0.94712 0.0
H635 H 0.91315 0.39406 0.01797 0.0
H636 H 0.88783 0.4106 0.91287 0.0
H637 H 0.88539 0.35895 0.98362 0.0
H638 H 0.81327 0.30264 0.92192 0.0
H639 H 0.83985 0.33643 0.95836 0.0
H640 H 0.89451 0.38064 0.8835 0.0
H641 H 0.86774 0.34707 0.847 0.0
C642 C 0.9089 0.42672 0.95538 0.0
C643 C 0.91662 0.42261 0.98516 0.0
C644 C 0.8933 0.40675 0.93572 0.0
C645 C 0.88481 0.38211 0.9454 0.0
C646 C 0.89163 0.37778 0.97559 0.0
C647 C 0.90744 0.39786 0.99528 0.0
C648 C 0.83093 0.31963 0.91328 0.0
C649 C 0.83837 0.32231 0.88158 0.0
C650 C 0.84624 0.33884 0.93418 0.0
C651 C 0.86915 0.36119 0.92373 0.0
C652 C 0.87677 0.36372 0.89213 0.0
C653 C 0.86159 0.34444 0.8713 0.0
H654 H 0.93665 0.50455 0.94416 0.0
H655 H 0.98938 0.58423 0.92849 0.0
H656 H 0.9041 0.50447 0.90916 0.0
H657 H 0.95794 0.58413 0.8909 0.0
H658 H 0.88727 0.5834 0.84843 0.0
H659 H 0.92024 0.58339 0.88218 0.0
H660 H 0.88777 0.50534 0.86234 0.0
H661 H 0.85261 0.50441 0.83234 0.0
C662 C 0.94161 0.52201 0.93242 0.0
C663 C 0.96566 0.54439 0.93908 0.0
C664 C 0.92287 0.52201 0.91197 0.0
C665 C 0.92789 0.54432 0.89666 0.0
C666 C 0.95261 0.56658 0.90256 0.0
C667 C 0.97098 0.56667 0.92388 0.0
C668 C 0.88654 0.56595 0.85177 0.0
C669 C 0.86655 0.54384 0.83741 0.0
C670 C 0.90616 0.56611 0.87081 0.0
C671 C 0.90719 0.54436 0.87552 0.0
C672 C 0.88771 0.52246 0.86035 0.0
C673 C 0.86757 0.52209 0.84218 0.0
H674 H 0.43267 0.97826 0.43734 0.0
H675 H 0.45235 0.93311 0.49577 0.0
H676 H 0.3977 0.94072 0.41215 0.0
H677 H 0.41747 0.89535 0.46999 0.0
H678 H 0.33742 0.83108 0.42926 0.0
H679 H 0.36911 0.86715 0.46015 0.0
H680 H 0.39867 0.9126 0.37517 0.0
H681 H 0.3672 0.87675 0.34447 0.0
C682 C 0.42934 0.96026 0.44505 0.0
C683 C 0.44545 0.95868 0.46834 0.0
C684 C 0.40941 0.93874 0.43043 0.0
C685 C 0.40517 0.9151 0.4386 0.0
C686 C 0.42022 0.9133 0.46319 0.0
C687 C 0.44019 0.93491 0.47797 0.0
C688 C 0.35088 0.84874 0.41719 0.0
C689 C 0.34965 0.8511 0.38441 0.0
C690 C 0.36898 0.86939 0.4349 0.0
C691 C 0.38617 0.89282 0.42017 0.0
C692 C 0.38525 0.89498 0.38735 0.0
C693 C 0.36723 0.87441 0.36972 0.0
H694 H 0.54838 0.42208 0.00493 0.0
H695 H 0.492 0.43324 0.9536 0.0
H696 H 0.54612 0.39455 0.96411 0.0
H697 H 0.48975 0.40574 0.9127 0.0
H698 H 0.47225 0.33155 0.86719 0.0
H699 H 0.4738 0.3596 0.90659 0.0
H700 H 0.5597 0.39954 0.90684 0.0
H701 H 0.55839 0.37223 0.86665 0.0
C702 C 0.53536 0.4185 0.98505 0.0
C703 C 0.52039 0.42986 0.98249 0.0
C704 C 0.53425 0.40293 0.96153 0.0
C705 C 0.51783 0.39804 0.93512 0.0
C706 C 0.5025 0.40906 0.93281 0.0
C707 C 0.50393 0.42494 0.95611 0.0
C708 C 0.49153 0.34658 0.87511 0.0
C709 C 0.51519 0.34941 0.86366 0.0
C710 C 0.49237 0.36258 0.89786 0.0
C711 C 0.51686 0.38163 0.91004 0.0
C712 C 0.54051 0.38475 0.89832 0.0
C713 C 0.5397 0.36899 0.87531 0.0
H714 H 0.06334 0.48732 0.44027 0.0
H715 H 1.00443 0.43453 0.37588 0.0
H716 H 0.09847 0.49628 0.40383 0.0
H717 H 0.03993 0.44345 0.33932 0.0
H718 H 0.11425 0.44359 0.30493 0.0
H719 H 0.07678 0.43626 0.33668 0.0
H720 H 0.11682 0.51576 0.35247 0.0
H721 H 0.15471 0.523 0.32148 0.0
C722 C 0.05774 0.47785 0.41817 0.0
C723 C 0.03089 0.4602 0.41108 0.0
C724 C 0.078 0.48304 0.3972 0.0
C725 C 0.07201 0.47067 0.36861 0.0
C726 C 0.0452 0.45312 0.36133 0.0
C727 C 0.02486 0.44797 0.38231 0.0
C728 C 0.11505 0.4595 0.31518 0.0
C729 C 0.13756 0.48384 0.31097 0.0
C730 C 0.09344 0.45533 0.33308 0.0
C731 C 0.09388 0.47541 0.34723 0.0
C732 C 0.11603 0.49986 0.34218 0.0
C733 C 0.13762 0.50404 0.32418 0.0
H734 H 0.56608 0.02988 0.99272 0.0
H735 H 0.51144 0.02809 0.92296 0.0
H736 H 0.6036 0.05884 0.95921 0.0
H737 H 0.54916 0.05702 0.88937 0.0
H738 H 0.626 0.09538 0.82807 0.0
H739 H 0.58853 0.06191 0.85859 0.0
H740 H 0.62217 0.10411 0.94269 0.0
H741 H 0.65946 0.13747 0.91228 0.0
C742 C 0.56198 0.03522 0.96998 0.0
C743 C 0.53563 0.02663 0.96063 0.0
C744 C 0.58355 0.05201 0.95089 0.0
C745 C 0.57938 0.06043 0.92178 0.0
C746 C 0.55304 0.05081 0.91161 0.0
C747 C 0.53142 0.03421 0.93089 0.0
C748 C 0.62544 0.09739 0.85311 0.0
C749 C 0.64567 0.11909 0.86776 0.0
C750 C 0.60392 0.07831 0.87053 0.0
C751 C 0.60242 0.08031 0.90307 0.0
C752 C 0.62286 0.10186 0.91773 0.0
C753 C 0.64411 0.12107 0.90027 0.0
H754 H 0.5117 0.56419 0.42133 0.0
H755 H 0.57321 0.57002 0.36186 0.0
H756 H 0.51824 0.60252 0.39815 0.0
H757 H 0.57972 0.60885 0.3381 0.0
H758 H 0.60252 0.69173 0.33109 0.0
H759 H 0.59644 0.65234 0.35148 0.0
H760 H 0.51104 0.61869 0.35028 0.0
H761 H 0.51714 0.65823 0.33166 0.0
C762 C 0.52625 0.57334 0.40275 0.0
C763 C 0.54168 0.56378 0.39309 0.0
C764 C 0.53006 0.59546 0.38948 0.0
C765 C 0.54934 0.60867 0.36608 0.0
C766 C 0.56484 0.59919 0.35629 0.0
C767 C 0.56107 0.57696 0.36974 0.0
C768 C 0.58248 0.67599 0.33557 0.0
C769 C 0.56033 0.67817 0.32992 0.0
C770 C 0.57898 0.65332 0.34677 0.0
C771 C 0.55326 0.63239 0.35253 0.0
C772 C 0.53115 0.63454 0.34648 0.0
C773 C 0.53464 0.65716 0.33547 0.0
H774 H 0.4906 0.09646 0.52392 0.0
H775 H 0.53985 0.08274 0.5862 0.0
H776 H 0.48793 0.12251 0.56341 0.0
H777 H 0.53731 0.10885 0.62562 0.0
H778 H 0.55054 0.18206 0.66905 0.0
H779 H 0.55307 0.15538 0.63087 0.0
H780 H 0.46778 0.11537 0.61872 0.0
H781 H 0.46486 0.14118 0.65795 0.0
C782 C 0.50098 0.09916 0.54596 0.0
C783 C 0.51539 0.08754 0.55198 0.0
C784 C 0.49928 0.11388 0.56864 0.0
C785 C 0.51237 0.11767 0.59762 0.0
C786 C 0.52711 0.10635 0.60346 0.0
C787 C 0.52841 0.09128 0.581 0.0
C788 C 0.53219 0.16729 0.65883 0.0
C789 C 0.50746 0.16394 0.66681 0.0
C790 C 0.53372 0.15209 0.63674 0.0
C791 C 0.51065 0.13339 0.62168 0.0
C792 C 0.48595 0.12989 0.62963 0.0
C793 C 0.48433 0.1448 0.65207 0.0
H794 H 0.43834 0.45528 0.09366 0.0
H795 H 0.45851 0.52056 0.03588 0.0
H796 H 0.4023 0.45678 0.11737 0.0
H797 H 0.4217 0.52173 0.05927 0.0
H798 H 0.37913 0.53456 0.1407 0.0
H799 H 0.41211 0.53187 0.1104 0.0
H800 H 0.35951 0.45127 0.10871 0.0
H801 H 0.32725 0.45383 0.14022 0.0
C802 C 0.43474 0.4697 0.08556 0.0
C803 C 0.45137 0.48787 0.06298 0.0
C804 C 0.41393 0.47049 0.09908 0.0
C805 C 0.40916 0.48946 0.09037 0.0
C806 C 0.42509 0.50707 0.0668 0.0
C807 C 0.44597 0.50624 0.05315 0.0
C808 C 0.37471 0.51626 0.13408 0.0
C809 C 0.35057 0.49441 0.14307 0.0
C810 C 0.39344 0.51474 0.11627 0.0
C811 C 0.38845 0.49135 0.10708 0.0
C812 C 0.36412 0.46958 0.11564 0.0
C813 C 0.34549 0.47108 0.13348 0.0
H814 H 0.94021 0.40173 0.55768 0.0
H815 H 0.97074 0.44946 0.63771 0.0
H816 H 0.90929 0.36665 0.59128 0.0
H817 H 0.941 0.41394 0.67198 0.0
H818 H 0.8649 0.35438 0.72108 0.0
H819 H 0.8978 0.38885 0.68847 0.0
H820 H 0.90017 0.33618 0.62801 0.0
H821 H 0.86525 0.3017 0.65869 0.0
C822 C 0.94083 0.40457 0.58266 0.0
C823 C 0.958 0.42847 0.59495 0.0
C824 C 0.92304 0.3843 0.60214 0.0
C825 C 0.92222 0.38712 0.6347 0.0
C826 C 0.94031 0.4109 0.64708 0.0
C827 C 0.95771 0.43132 0.62744 0.0
C828 C 0.87197 0.34999 0.70053 0.0
C829 C 0.86187 0.32489 0.6927 0.0
C830 C 0.89146 0.36999 0.68199 0.0
C831 C 0.90202 0.36567 0.65526 0.0
C832 C 0.8924 0.34057 0.6479 0.0
C833 C 0.87252 0.32058 0.66606 0.0
H834 H 0.58163 0.01224 0.15837 0.0
H835 H 0.50867 0.95014 0.12095 0.0
H836 H 0.59058 0.98245 0.18495 0.0
H837 H 0.5175 0.92094 0.14721 0.0
H838 H 0.52896 0.87185 0.21381 0.0
H839 H 0.52041 0.90437 0.19751 0.0
H840 H 0.60275 0.95256 0.16922 0.0
H841 H 0.61136 0.92004 0.1862 0.0
C842 C 0.56742 0.99235 0.15602 0.0
C843 C 0.54442 0.98374 0.13753 0.0
C844 C 0.57256 0.97531 0.17118 0.0
C845 C 0.55474 0.94933 0.16821 0.0
C846 C 0.5314 0.94079 0.15054 0.0
C847 C 0.5263 0.95771 0.13544 0.0
C848 C 0.54521 0.88941 0.20409 0.0
C849 C 0.5707 0.89331 0.20072 0.0
C850 C 0.54036 0.90804 0.19484 0.0
C851 C 0.56084 0.93095 0.18177 0.0
C852 C 0.58661 0.93522 0.17948 0.0
C853 C 0.59152 0.91658 0.18899 0.0
H854 H 0.57043 0.53376 0.53055 0.0
H855 H 0.51474 0.49221 0.60571 0.0
H856 H 0.60728 0.54198 0.5649 0.0
H857 H 0.55188 0.50053 0.64015 0.0
H858 H 0.63021 0.53818 0.69901 0.0
H859 H 0.59343 0.53431 0.66715 0.0
H860 H 0.62231 0.51473 0.58765 0.0
H861 H 0.65901 0.51879 0.61925 0.0
C862 C 0.566 0.52668 0.55455 0.0
C863 C 0.53947 0.51215 0.56522 0.0
C864 C 0.58719 0.53126 0.57419 0.0
C865 C 0.58253 0.52162 0.60515 0.0
C866 C 0.55617 0.50828 0.61645 0.0
C867 C 0.53487 0.5035 0.59667 0.0
C868 C 0.62875 0.53319 0.67467 0.0
C869 C 0.64754 0.52875 0.6617 0.0
C870 C 0.60759 0.53081 0.65649 0.0
C871 C 0.60497 0.52432 0.6248 0.0
C872 C 0.62388 0.52005 0.61186 0.0
C873 C 0.64479 0.52212 0.63008 0.0
H874 H 1.00344 0.5717 0.13998 0.0
H875 H 0.06663 0.58928 0.07493 0.0
H876 H 0.03674 0.59817 0.17888 0.0
H877 H 0.09955 0.6151 0.11376 0.0
H878 H 0.15132 0.63624 0.20033 0.0
H879 H 0.11554 0.60828 0.16504 0.0
H880 H 0.07231 0.64361 0.18716 0.0
H881 H 0.10794 0.67133 0.22304 0.0
C882 C 0.02432 0.58129 0.13385 0.0
C883 C 0.03227 0.57805 0.10438 0.0
C884 C 0.04339 0.59638 0.15616 0.0
C885 C 0.07075 0.60839 0.14951 0.0
C886 C 0.07863 0.60559 0.11986 0.0
C887 C 0.05968 0.59072 0.09758 0.0
C888 C 0.13398 0.63776 0.1981 0.0
C889 C 0.1325 0.65605 0.21437 0.0
C890 C 0.11363 0.62193 0.17764 0.0
C891 C 0.09125 0.62393 0.17312 0.0
C892 C 0.08927 0.64159 0.19024 0.0
C893 C 0.10975 0.65757 0.21056 0.0
loop_
_geom_bond_atom_site_label_1
_geom_bond_atom_site_label_2
_geom_bond_distance
_geom_bond_site_symmetry_2
_ccdc_geom_bond_type
Cu0 N1 1.999 1_454 S
Cu0 O6 1.974 1_454 S
Cu0 N11 1.985 . S
Cu0 O20 1.959 . S
N1 Cu0 1.999 1_656 S
N1 C3 1.263 . S
N1 C5 1.389 1_556 S
N2 C3 1.358 . S
N2 C4 1.400 . S
C3 N1 1.263 . S
C3 N2 1.358 . S
C3 H9 0.930 . S
C4 N2 1.400 . S
C4 C5 1.351 1_556 S
C4 H21 0.930 . S
C5 N1 1.389 1_554 S
C5 C4 1.351 1_554 S
C5 H10 0.930 . S
O6 Cu0 1.974 1_656 S
O6 C16 1.282 . S
C7 O8 1.261 1_554 S
C7 O20 1.251 . S
O8 C7 1.261 1_556 S
H9 C3 0.930 . S
H10 C5 0.930 . S
N11 Cu0 1.985 . S
N11 C13 1.335 . S
N11 C14 1.390 . S
N12 C13 1.345 . S
N12 C15 1.336 . S
C13 N11 1.335 . S
C13 N12 1.345 . S
C13 H18 0.930 . S
C14 N11 1.390 . S
C14 C15 1.346 . S
C14 H19 0.930 1_554 S
C15 N12 1.336 . S
C15 C14 1.346 . S
C15 H22 0.929 . S
C16 O6 1.282 . S
C16 O17 1.216 1_655 S
O17 C16 1.216 1_455 S
H18 C13 0.930 . S
H19 C14 0.930 1_556 S
O20 Cu0 1.959 . S
O20 C7 1.251 . S
H21 C4 0.930 . S
H22 C15 0.929 . S
Cu23 N24 1.999 . S
Cu23 O29 1.974 . S
Cu23 N34 1.985 1_565 S
Cu23 O43 1.959 1_565 S
N24 Cu23 1.999 . S
N24 C26 1.263 . S
N24 C28 1.389 . S
N25 C26 1.358 . S
N25 C27 1.400 . S
C26 N24 1.263 . S
C26 N25 1.358 . S
C26 H32 0.930 . S
C27 N25 1.400 . S
C27 C28 1.351 . S
C27 H44 0.930 . S
C28 N24 1.389 . S
C28 C27 1.351 . S
C28 H33 0.930 . S
O29 Cu23 1.974 . S
O29 C39 1.282 . S
C30 O31 1.261 . S
C30 O43 1.251 . S
O31 C30 1.261 . S
H32 C26 0.930 . S
H33 C28 0.930 . S
N34 Cu23 1.985 1_545 S
N34 C36 1.335 . S
N34 C37 1.390 . S
N35 C36 1.345 . S
N35 C38 1.336 . S
C36 N34 1.335 . S
C36 N35 1.345 . S
C36 H41 0.930 . S
C37 N34 1.390 . S
C37 C38 1.346 . S
C37 H42 0.930 . S
C38 N35 1.336 . S
C38 C37 1.346 . S
C38 H45 0.929 . S
C39 O29 1.282 . S
C39 O40 1.216 . S
O40 C39 1.216 . S
H41 C36 0.930 . S
H42 C37 0.930 . S
O43 Cu23 1.959 1_545 S
O43 C30 1.251 . S
H44 C27 0.930 . S
H45 C38 0.929 . S
Cu46 N47 1.999 1_554 S
Cu46 O52 1.974 1_554 S
Cu46 N57 1.985 . S
Cu46 O66 1.959 . S
N47 Cu46 1.999 1_556 S
N47 C49 1.263 . S
N47 C51 1.389 . S
N48 C49 1.358 . S
N48 C50 1.400 . S
C49 N47 1.263 . S
C49 N48 1.358 . S
C49 H55 0.930 . S
C50 N48 1.400 . S
C50 C51 1.351 . S
C50 H67 0.930 . S
C51 N47 1.389 . S
C51 C50 1.351 . S
C51 H56 0.930 . S
O52 Cu46 1.974 1_556 S
O52 C62 1.282 . S
C53 O54 1.261 . S
C53 O66 1.251 . S
O54 C53 1.261 . S
H55 C49 0.930 . S
H56 C51 0.930 . S
N57 Cu46 1.985 . S
N57 C59 1.335 . S
N57 C60 1.390 . S
N58 C59 1.345 . S
N58 C61 1.336 . S
C59 N57 1.335 . S
C59 N58 1.345 . S
C59 H64 0.930 . S
C60 N57 1.390 . S
C60 C61 1.346 . S
C60 H65 0.930 . S
C61 N58 1.336 . S
C61 C60 1.346 . S
C61 H68 0.929 . S
C62 O52 1.282 . S
C62 O63 1.216 1_556 S
O63 C62 1.216 1_554 S
H64 C59 0.930 . S
H65 C60 0.930 . S
O66 Cu46 1.959 . S
O66 C53 1.251 . S
H67 C50 0.930 . S
H68 C61 0.929 . S
Cu69 N70 1.999 1_655 S
Cu69 O75 1.974 1_655 S
Cu69 N80 1.985 . S
Cu69 O89 1.959 . S
N70 Cu69 1.999 1_455 S
N70 C72 1.263 . S
N70 C74 1.389 1_455 S
N71 C72 1.358 . S
N71 C73 1.400 . S
C72 N70 1.263 . S
C72 N71 1.358 . S
C72 H78 0.930 . S
C73 N71 1.400 . S
C73 C74 1.351 1_455 S
C73 H90 0.930 . S
C74 N70 1.389 1_655 S
C74 C73 1.351 1_655 S
C74 H79 0.930 . S
O75 Cu69 1.974 1_455 S
O75 C85 1.282 . S
C76 O77 1.254 1_655 S
C76 O89 1.251 . S
O77 C76 1.254 1_455 S
H78 C72 0.930 . S
H79 C74 0.930 . S
N80 Cu69 1.985 . S
N80 C82 1.335 . S
N80 C83 1.390 . S
N81 C82 1.345 . S
N81 C84 1.336 . S
C82 N80 1.335 . S
C82 N81 1.345 . S
C82 H87 0.930 . S
C83 N80 1.390 . S
C83 C84 1.346 . S
C83 H88 0.930 1_655 S
C84 N81 1.336 . S
C84 C83 1.346 . S
C84 H91 0.929 . S
C85 O75 1.282 . S
C85 O86 1.216 . S
O86 C85 1.216 . S
H87 C82 0.930 . S
H88 C83 0.930 1_455 S
O89 Cu69 1.959 . S
O89 C76 1.251 . S
H90 C73 0.930 . S
H91 C84 0.929 . S
Cu92 N93 1.999 . S
Cu92 O98 1.974 1_554 S
Cu92 N103 1.985 1_545 S
Cu92 O112 1.959 1_545 S
N93 Cu92 1.999 . S
N93 C95 1.263 1_554 S
N93 C97 1.389 . S
N94 C95 1.358 . S
N94 C96 1.400 1_556 S
C95 N93 1.263 1_556 S
C95 N94 1.358 . S
C95 H101 0.930 . S
C96 N94 1.400 1_554 S
C96 C97 1.351 . S
C96 H113 0.930 . S
C97 N93 1.389 . S
C97 C96 1.351 . S
C97 H102 0.930 . S
O98 Cu92 1.974 1_556 S
O98 C108 1.282 . S
C99 O100 1.261 . S
C99 O112 1.251 . S
O100 C99 1.261 . S
H101 C95 0.930 . S
H102 C97 0.930 . S
N103 Cu92 1.985 1_565 S
N103 C105 1.335 . S
N103 C106 1.390 . S
N104 C105 1.345 . S
N104 C107 1.336 . S
C105 N103 1.335 . S
C105 N104 1.345 . S
C105 H110 0.930 . S
C106 N103 1.390 . S
C106 C107 1.346 . S
C106 H111 0.922 1_565 S
C107 N104 1.336 . S
C107 C106 1.346 . S
C107 H114 0.929 . S
C108 O98 1.282 . S
C108 O109 1.216 . S
O109 C108 1.216 . S
H110 C105 0.930 . S
H111 C106 0.922 1_545 S
O112 Cu92 1.959 1_565 S
O112 C99 1.251 . S
H113 C96 0.930 . S
H114 C107 0.929 . S
Cu115 N116 1.999 . S
Cu115 O121 1.974 . S
Cu115 N126 1.985 . S
Cu115 O135 1.959 . S
N116 Cu115 1.999 . S
N116 C118 1.263 . S
N116 C120 1.389 . S
N117 C118 1.358 . S
N117 C119 1.400 . S
C118 N116 1.263 . S
C118 N117 1.358 . S
C118 H124 0.930 . S
C119 N117 1.400 . S
C119 C120 1.351 . S
C119 H136 0.930 . S
C120 N116 1.389 . S
C120 C119 1.351 . S
C120 H125 0.930 . S
O121 Cu115 1.974 . S
O121 C131 1.282 . S
C122 O123 1.261 . S
C122 O135 1.251 . S
O123 C122 1.261 . S
H124 C118 0.930 . S
H125 C120 0.930 . S
N126 Cu115 1.985 . S
N126 C128 1.335 . S
N126 C129 1.390 . S
N127 C128 1.345 . S
N127 C130 1.336 . S
C128 N126 1.335 . S
C128 N127 1.345 . S
C128 H133 0.930 . S
C129 N126 1.390 . S
C129 C130 1.346 . S
C129 H134 0.930 . S
C130 N127 1.336 . S
C130 C129 1.346 . S
C130 H137 0.929 . S
C131 O121 1.282 . S
C131 O132 1.216 . S
O132 C131 1.216 . S
H133 C128 0.930 . S
H134 C129 0.930 . S
O135 Cu115 1.959 . S
O135 C122 1.251 . S
H136 C119 0.930 . S
H137 C130 0.929 . S
C138 C139 1.384 . S
C138 C140 1.384 . S
C138 H166 0.931 . S
C139 C138 1.384 . S
C139 C142 1.382 . S
C140 C138 1.384 . S
C140 C141 1.381 . S
C140 H167 0.930 . S
C141 C140 1.381 . S
C141 C143 1.381 . S
C141 C144 1.487 . S
C142 C139 1.382 . S
C142 C143 1.387 . S
C142 H168 0.930 . S
C143 C141 1.381 . S
C143 C142 1.387 . S
C143 H169 0.931 . S
C144 C141 1.487 . S
C144 C151 1.399 . S
C144 N182 1.343 . S
C145 C146 1.384 . S
C145 C147 1.384 . S
C145 H170 0.931 . S
C146 C145 1.384 . S
C146 C149 1.382 . S
C147 C145 1.384 . S
C147 C148 1.381 . S
C147 H171 0.930 . S
C148 C147 1.381 . S
C148 C150 1.381 . S
C148 C151 1.487 . S
C149 C146 1.382 . S
C149 C150 1.387 . S
C149 H172 0.930 . S
C150 C148 1.381 . S
C150 C149 1.387 . S
C150 H173 0.931 . S
C151 C144 1.399 . S
C151 C148 1.487 . S
C151 N183 1.343 . S
C152 C153 1.384 . S
C152 C154 1.384 . S
C152 H174 0.931 . S
C153 C152 1.384 . S
C153 C156 1.382 . S
C154 C152 1.384 . S
C154 C155 1.381 . S
C154 H175 0.930 . S
C155 C154 1.381 . S
C155 C157 1.381 . S
C155 C158 1.487 . S
C156 C153 1.382 . S
C156 C157 1.387 . S
C156 H176 0.930 . S
C157 C155 1.381 . S
C157 C156 1.387 . S
C157 H177 0.931 . S
C158 C155 1.487 . S
C158 C165 1.399 . S
C158 N183 1.343 . S
C159 C160 1.384 . S
C159 C161 1.384 . S
C159 H178 0.931 . S
C160 C159 1.384 . S
C160 C163 1.382 . S
C161 C159 1.384 . S
C161 C162 1.381 . S
C161 H179 0.930 . S
C162 C161 1.381 . S
C162 C164 1.381 . S
C162 C165 1.487 . S
C163 C160 1.382 . S
C163 C164 1.387 . S
C163 H180 0.930 . S
C164 C162 1.381 . S
C164 C163 1.387 . S
C164 H181 0.931 . S
C165 C158 1.399 . S
C165 C162 1.487 . S
C165 N182 1.343 . S
H166 C138 0.931 . S
H167 C140 0.930 . S
H168 C142 0.930 . S
H169 C143 0.931 . S
H170 C145 0.931 . S
H171 C147 0.930 . S
H172 C149 0.930 . S
H173 C150 0.931 . S
H174 C152 0.931 . S
H175 C154 0.930 . S
H176 C156 0.930 . S
H177 C157 0.931 . S
H178 C159 0.931 . S
H179 C161 0.930 . S
H180 C163 0.930 . S
H181 C164 0.931 . S
N182 C144 1.343 . S
N182 C165 1.343 . S
N183 C151 1.343 . S
N183 C158 1.343 . S
C184 C185 1.384 . S
C184 C186 1.384 . S
C184 H212 0.931 . S
C185 C184 1.384 . S
C185 C188 1.382 . S
C186 C184 1.384 . S
C186 C187 1.381 . S
C186 H213 0.930 . S
C187 C186 1.381 . S
C187 C189 1.381 . S
C187 C190 1.487 . S
C188 C185 1.382 . S
C188 C189 1.387 . S
C188 H214 0.930 . S
C189 C187 1.381 . S
C189 C188 1.387 . S
C189 H215 0.931 . S
C190 C187 1.487 . S
C190 C197 1.399 . S
C190 N228 1.343 . S
C191 C192 1.384 . S
C191 C193 1.384 . S
C191 H216 0.931 . S
C192 C191 1.384 . S
C192 C195 1.382 . S
C193 C191 1.384 . S
C193 C194 1.381 . S
C193 H217 0.930 . S
C194 C193 1.381 . S
C194 C196 1.381 . S
C194 C197 1.487 . S
C195 C192 1.382 . S
C195 C196 1.387 . S
C195 H218 0.930 . S
C196 C194 1.381 . S
C196 C195 1.387 . S
C196 H219 0.931 . S
C197 C190 1.399 . S
C197 C194 1.487 . S
C197 N229 1.343 . S
C198 C199 1.384 . S
C198 C200 1.384 . S
C198 H220 0.931 . S
C199 C198 1.384 . S
C199 C202 1.382 . S
C200 C198 1.384 . S
C200 C201 1.381 . S
C200 H221 0.930 . S
C201 C200 1.381 . S
C201 C203 1.381 . S
C201 C204 1.487 . S
C202 C199 1.382 . S
C202 C203 1.387 . S
C202 H222 0.930 . S
C203 C201 1.381 . S
C203 C202 1.387 . S
C203 H223 0.931 . S
C204 C201 1.487 . S
C204 C211 1.399 . S
C204 N229 1.343 . S
C205 C206 1.384 . S
C205 C207 1.384 . S
C205 H224 0.931 . S
C206 C205 1.384 . S
C206 C209 1.382 . S
C207 C205 1.384 . S
C207 C208 1.381 . S
C207 H225 0.930 . S
C208 C207 1.381 . S
C208 C210 1.381 . S
C208 C211 1.487 . S
C209 C206 1.382 . S
C209 C210 1.387 . S
C209 H226 0.930 . S
C210 C208 1.381 . S
C210 C209 1.387 . S
C210 H227 0.931 . S
C211 C204 1.399 . S
C211 C208 1.487 . S
C211 N228 1.343 . S
H212 C184 0.931 . S
H213 C186 0.930 . S
H214 C188 0.930 . S
H215 C189 0.931 . S
H216 C191 0.931 . S
H217 C193 0.930 . S
H218 C195 0.930 . S
H219 C196 0.931 . S
H220 C198 0.931 . S
H221 C200 0.930 . S
H222 C202 0.930 . S
H223 C203 0.931 . S
H224 C205 0.931 . S
H225 C207 0.930 . S
H226 C209 0.930 . S
H227 C210 0.931 . S
N228 C190 1.343 . S
N228 C211 1.343 . S
N229 C197 1.343 . S
N229 C204 1.343 . S
C230 C231 1.384 . S
C230 C232 1.384 . S
C230 H258 0.931 . S
C231 C230 1.384 . S
C231 C234 1.382 . S
C232 C230 1.384 . S
C232 C233 1.381 . S
C232 H259 0.930 . S
C233 C232 1.381 . S
C233 C235 1.381 . S
C233 C236 1.487 . S
C234 C231 1.382 . S
C234 C235 1.387 . S
C234 H260 0.930 . S
C235 C233 1.381 . S
C235 C234 1.387 . S
C235 H261 0.931 . S
C236 C233 1.487 . S
C236 C243 1.399 . S
C236 N274 1.343 . S
C237 C238 1.384 . S
C237 C239 1.384 . S
C237 H262 0.931 . S
C238 C237 1.384 . S
C238 C241 1.382 . S
C239 C237 1.384 . S
C239 C240 1.381 . S
C239 H263 0.930 . S
C240 C239 1.381 . S
C240 C242 1.381 . S
C240 C243 1.487 . S
C241 C238 1.382 . S
C241 C242 1.387 . S
C241 H264 0.930 . S
C242 C240 1.381 . S
C242 C241 1.387 . S
C242 H265 0.931 . S
C243 C236 1.399 . S
C243 C240 1.487 . S
C243 N275 1.343 . S
C244 C245 1.384 . S
C244 C246 1.384 . S
C244 H266 0.931 . S
C245 C244 1.384 . S
C245 C248 1.382 . S
C246 C244 1.384 . S
C246 C247 1.381 . S
C246 H267 0.930 . S
C247 C246 1.381 . S
C247 C249 1.381 . S
C247 C250 1.487 . S
C248 C245 1.382 . S
C248 C249 1.387 . S
C248 H268 0.930 . S
C249 C247 1.381 . S
C249 C248 1.387 . S
C249 H269 0.931 . S
C250 C247 1.487 . S
C250 C257 1.399 . S
C250 N275 1.343 . S
C251 C252 1.384 . S
C251 C253 1.384 . S
C251 H270 0.931 . S
C252 C251 1.384 . S
C252 C255 1.382 . S
C253 C251 1.384 . S
C253 C254 1.381 . S
C253 H271 0.930 . S
C254 C253 1.381 . S
C254 C256 1.381 . S
C254 C257 1.487 . S
C255 C252 1.382 . S
C255 C256 1.387 . S
C255 H272 0.930 . S
C256 C254 1.381 . S
C256 C255 1.387 . S
C256 H273 0.931 . S
C257 C250 1.399 . S
C257 C254 1.487 . S
C257 N274 1.343 . S
H258 C230 0.931 . S
H259 C232 0.930 . S
H260 C234 0.930 . S
H261 C235 0.931 . S
H262 C237 0.931 . S
H263 C239 0.930 . S
H264 C241 0.930 . S
H265 C242 0.931 . S
H266 C244 0.931 . S
H267 C246 0.930 . S
H268 C248 0.930 . S
H269 C249 0.931 . S
H270 C251 0.931 . S
H271 C253 0.930 . S
H272 C255 0.930 . S
H273 C256 0.931 . S
N274 C236 1.343 . S
N274 C257 1.343 . S
N275 C243 1.343 . S
N275 C250 1.343 . S
C276 C277 1.384 . S
C276 C278 1.384 . S
C276 H304 0.931 . S
C277 C276 1.384 . S
C277 C280 1.382 . S
C278 C276 1.384 . S
C278 C279 1.381 . S
C278 H305 0.930 . S
C279 C278 1.381 . S
C279 C281 1.381 . S
C279 C282 1.487 . S
C280 C277 1.382 . S
C280 C281 1.387 . S
C280 H306 0.930 . S
C281 C279 1.381 . S
C281 C280 1.387 . S
C281 H307 0.931 . S
C282 C279 1.487 . S
C282 C289 1.399 . S
C282 N320 1.343 . S
C283 C284 1.384 . S
C283 C285 1.384 . S
C283 H308 0.931 . S
C284 C283 1.384 . S
C284 C287 1.382 . S
C285 C283 1.384 . S
C285 C286 1.381 . S
C285 H309 0.930 . S
C286 C285 1.381 . S
C286 C288 1.381 . S
C286 C289 1.487 . S
C287 C284 1.382 . S
C287 C288 1.387 . S
C287 H310 0.930 . S
C288 C286 1.381 . S
C288 C287 1.387 . S
C288 H311 0.931 . S
C289 C282 1.399 . S
C289 C286 1.487 . S
C289 N321 1.343 . S
C290 C291 1.384 . S
C290 C292 1.384 . S
C290 H312 0.931 . S
C291 C290 1.384 . S
C291 C294 1.382 . S
C292 C290 1.384 . S
C292 C293 1.381 . S
C292 H313 0.930 . S
C293 C292 1.381 . S
C293 C295 1.381 . S
C293 C296 1.487 . S
C294 C291 1.382 . S
C294 C295 1.387 . S
C294 H314 0.930 . S
C295 C293 1.381 . S
C295 C294 1.387 . S
C295 H315 0.931 . S
C296 C293 1.487 . S
C296 C303 1.399 . S
C296 N321 1.343 . S
C297 C298 1.384 . S
C297 C299 1.384 . S
C297 H316 0.931 . S
C298 C297 1.384 . S
C298 C301 1.382 . S
C299 C297 1.384 . S
C299 C300 1.381 . S
C299 H317 0.930 . S
C300 C299 1.381 . S
C300 C302 1.381 . S
C300 C303 1.487 . S
C301 C298 1.382 . S
C301 C302 1.387 . S
C301 H318 0.930 . S
C302 C300 1.381 . S
C302 C301 1.387 . S
C302 H319 0.931 . S
C303 C296 1.399 . S
C303 C300 1.487 . S
C303 N320 1.343 . S
H304 C276 0.931 . S
H305 C278 0.930 . S
H306 C280 0.930 . S
H307 C281 0.931 . S
H308 C283 0.931 . S
H309 C285 0.930 . S
H310 C287 0.930 . S
H311 C288 0.931 . S
H312 C290 0.931 . S
H313 C292 0.930 . S
H314 C294 0.930 . S
H315 C295 0.931 . S
H316 C297 0.931 . S
H317 C299 0.930 . S
H318 C301 0.930 . S
H319 C302 0.931 . S
N320 C282 1.343 . S
N320 C303 1.343 . S
N321 C289 1.343 . S
N321 C296 1.343 . S
C322 C323 1.384 . S
C322 C324 1.384 . S
C322 H350 0.931 . S
C323 C322 1.384 . S
C323 C326 1.382 . S
C324 C322 1.384 . S
C324 C325 1.381 . S
C324 H351 0.930 . S
C325 C324 1.381 . S
C325 C327 1.381 . S
C325 C328 1.487 . S
C326 C323 1.382 . S
C326 C327 1.387 . S
C326 H352 0.930 . S
C327 C325 1.381 . S
C327 C326 1.387 . S
C327 H353 0.931 . S
C328 C325 1.487 . S
C328 C335 1.399 . S
C328 N366 1.343 . S
C329 C330 1.384 . S
C329 C331 1.384 . S
C329 H354 0.931 . S
C330 C329 1.384 . S
C330 C333 1.382 . S
C331 C329 1.384 . S
C331 C332 1.381 . S
C331 H355 0.930 . S
C332 C331 1.381 . S
C332 C334 1.381 . S
C332 C335 1.487 . S
C333 C330 1.382 . S
C333 C334 1.387 . S
C333 H356 0.930 . S
C334 C332 1.381 . S
C334 C333 1.387 . S
C334 H357 0.931 . S
C335 C328 1.399 . S
C335 C332 1.487 . S
C335 N367 1.343 . S
C336 C337 1.384 . S
C336 C338 1.384 . S
C336 H358 0.931 . S
C337 C336 1.384 . S
C337 C340 1.382 . S
C338 C336 1.384 . S
C338 C339 1.381 . S
C338 H359 0.930 . S
C339 C338 1.381 . S
C339 C341 1.381 . S
C339 C342 1.487 . S
C340 C337 1.382 . S
C340 C341 1.387 . S
C340 H360 0.930 . S
C341 C339 1.381 . S
C341 C340 1.387 . S
C341 H361 0.931 . S
C342 C339 1.487 . S
C342 C349 1.399 . S
C342 N367 1.343 . S
C343 C344 1.384 . S
C343 C345 1.384 . S
C343 H362 0.931 . S
C344 C343 1.384 . S
C344 C347 1.382 . S
C345 C343 1.384 . S
C345 C346 1.381 . S
C345 H363 0.930 . S
C346 C345 1.381 . S
C346 C348 1.381 . S
C346 C349 1.487 . S
C347 C344 1.382 . S
C347 C348 1.387 . S
C347 H364 0.930 . S
C348 C346 1.381 . S
C348 C347 1.387 . S
C348 H365 0.931 . S
C349 C342 1.399 . S
C349 C346 1.487 . S
C349 N366 1.343 . S
H350 C322 0.931 . S
H351 C324 0.930 . S
H352 C326 0.930 . S
H353 C327 0.931 . S
H354 C329 0.931 . S
H355 C331 0.930 . S
H356 C333 0.930 . S
H357 C334 0.931 . S
H358 C336 0.931 . S
H359 C338 0.930 . S
H360 C340 0.930 . S
H361 C341 0.931 . S
H362 C343 0.931 . S
H363 C345 0.930 . S
H364 C347 0.930 . S
H365 C348 0.931 . S
N366 C328 1.343 . S
N366 C349 1.343 . S
N367 C335 1.343 . S
N367 C342 1.343 . S
C368 C369 1.384 . S
C368 C370 1.384 . S
C368 H396 0.931 . S
C369 C368 1.384 . S
C369 C372 1.382 . S
C370 C368 1.384 . S
C370 C371 1.381 . S
C370 H397 0.930 . S
C371 C370 1.381 . S
C371 C373 1.381 . S
C371 C374 1.487 . S
C372 C369 1.382 . S
C372 C373 1.387 . S
C372 H398 0.930 . S
C373 C371 1.381 . S
C373 C372 1.387 . S
C373 H399 0.931 . S
C374 C371 1.487 . S
C374 C381 1.399 . S
C374 N412 1.343 . S
C375 C376 1.384 . S
C375 C377 1.384 . S
C375 H400 0.931 . S
C376 C375 1.384 . S
C376 C379 1.382 . S
C377 C375 1.384 . S
C377 C378 1.381 . S
C377 H401 0.930 . S
C378 C377 1.381 . S
C378 C380 1.381 . S
C378 C381 1.487 . S
C379 C376 1.382 . S
C379 C380 1.387 . S
C379 H402 0.930 . S
C380 C378 1.381 . S
C380 C379 1.387 . S
C380 H403 0.931 . S
C381 C374 1.399 . S
C381 C378 1.487 . S
C381 N413 1.343 . S
C382 C383 1.384 . S
C382 C384 1.384 . S
C382 H404 0.931 . S
C383 C382 1.384 . S
C383 C386 1.382 . S
C384 C382 1.384 . S
C384 C385 1.381 . S
C384 H405 0.930 . S
C385 C384 1.381 . S
C385 C387 1.381 . S
C385 C388 1.487 . S
C386 C383 1.382 . S
C386 C387 1.387 . S
C386 H406 0.930 . S
C387 C385 1.381 . S
C387 C386 1.387 . S
C387 H407 0.931 . S
C388 C385 1.487 . S
C388 C395 1.399 . S
C388 N413 1.343 . S
C389 C390 1.384 . S
C389 C391 1.384 . S
C389 H408 0.931 . S
C390 C389 1.384 . S
C390 C393 1.382 . S
C391 C389 1.384 . S
C391 C392 1.381 . S
C391 H409 0.930 . S
C392 C391 1.381 . S
C392 C394 1.381 . S
C392 C395 1.487 . S
C393 C390 1.382 . S
C393 C394 1.387 . S
C393 H410 0.930 . S
C394 C392 1.381 . S
C394 C393 1.387 . S
C394 H411 0.931 . S
C395 C388 1.399 . S
C395 C392 1.487 . S
C395 N412 1.343 . S
H396 C368 0.931 . S
H397 C370 0.930 . S
H398 C372 0.930 . S
H399 C373 0.931 . S
H400 C375 0.931 . S
H401 C377 0.930 . S
H402 C379 0.930 . S
H403 C380 0.931 . S
H404 C382 0.931 . S
H405 C384 0.930 . S
H406 C386 0.930 . S
H407 C387 0.931 . S
H408 C389 0.931 . S
H409 C391 0.930 . S
H410 C393 0.930 . S
H411 C394 0.931 . S
N412 C374 1.343 . S
N412 C395 1.343 . S
N413 C381 1.343 . S
N413 C388 1.343 . S
H414 C422 0.950 . S
H415 C427 0.950 . S
H416 C424 0.950 . S
H417 C426 0.950 . S
H418 C428 0.950 . S
H419 C430 0.950 . S
H420 C432 0.950 . S
H421 C433 0.950 . S
C422 H414 0.950 . S
C422 C423 1.386 . S
C422 C424 1.391 . S
C423 C422 1.386 . S
C423 C427 1.393 . S
C424 H416 0.950 . S
C424 C422 1.391 . S
C424 C425 1.400 . S
C425 C424 1.400 . S
C425 C426 1.398 . S
C425 C431 1.491 . S
C426 H417 0.950 . S
C426 C425 1.398 . S
C426 C427 1.391 . S
C427 H415 0.950 . S
C427 C423 1.393 . S
C427 C426 1.391 . S
C428 H418 0.950 . S
C428 C429 1.386 . S
C428 C430 1.391 . S
C429 C428 1.386 . S
C429 C433 1.393 . S
C430 H419 0.950 . S
C430 C428 1.391 . S
C430 C431 1.400 . S
C431 C425 1.491 . S
C431 C430 1.400 . S
C431 C432 1.398 . S
C432 H420 0.950 . S
C432 C431 1.398 . S
C432 C433 1.391 . S
C433 H421 0.950 . S
C433 C429 1.393 . S
C433 C432 1.391 . S
H434 C442 0.950 . S
H435 C447 0.950 . S
H436 C444 0.950 . S
H437 C446 0.950 . S
H438 C448 0.950 . S
H439 C450 0.950 . S
H440 C452 0.950 . S
H441 C453 0.950 . S
C442 H434 0.950 . S
C442 C443 1.386 . S
C442 C444 1.391 . S
C443 C442 1.386 . S
C443 C447 1.393 . S
C444 H436 0.950 . S
C444 C442 1.391 . S
C444 C445 1.400 . S
C445 C444 1.400 . S
C445 C446 1.398 . S
C445 C451 1.491 . S
C446 H437 0.950 . S
C446 C445 1.398 . S
C446 C447 1.391 . S
C447 H435 0.950 . S
C447 C443 1.393 . S
C447 C446 1.391 . S
C448 H438 0.950 . S
C448 C449 1.386 . S
C448 C450 1.391 . S
C449 C448 1.386 . S
C449 C453 1.393 . S
C450 H439 0.950 . S
C450 C448 1.391 . S
C450 C451 1.400 . S
C451 C445 1.491 . S
C451 C450 1.400 . S
C451 C452 1.398 . S
C452 H440 0.950 . S
C452 C451 1.398 . S
C452 C453 1.391 . S
C453 H441 0.950 . S
C453 C449 1.393 . S
C453 C452 1.391 . S
H454 C462 0.950 . S
H455 C467 0.950 . S
H456 C464 0.950 . S
H457 C466 0.950 . S
H458 C468 0.950 . S
H459 C470 0.950 . S
H460 C472 0.950 . S
H461 C473 0.950 . S
C462 H454 0.950 . S
C462 C463 1.386 . S
C462 C464 1.391 . S
C463 C462 1.386 . S
C463 C467 1.393 . S
C464 H456 0.950 . S
C464 C462 1.391 . S
C464 C465 1.400 . S
C465 C464 1.400 . S
C465 C466 1.398 . S
C465 C471 1.491 . S
C466 H457 0.950 . S
C466 C465 1.398 . S
C466 C467 1.391 . S
C467 H455 0.950 . S
C467 C463 1.393 . S
C467 C466 1.391 . S
C468 H458 0.950 . S
C468 C469 1.386 . S
C468 C470 1.391 . S
C469 C468 1.386 . S
C469 C473 1.393 . S
C470 H459 0.950 . S
C470 C468 1.391 . S
C470 C471 1.400 . S
C471 C465 1.491 . S
C471 C470 1.400 . S
C471 C472 1.398 . S
C472 H460 0.950 . S
C472 C471 1.398 . S
C472 C473 1.391 . S
C473 H461 0.950 . S
C473 C469 1.393 . S
C473 C472 1.391 . S
H474 C482 0.950 . S
H475 C487 0.950 . S
H476 C484 0.950 . S
H477 C486 0.950 . S
H478 C488 0.950 . S
H479 C490 0.950 . S
H480 C492 0.950 . S
H481 C493 0.950 . S
C482 H474 0.950 . S
C482 C483 1.386 . S
C482 C484 1.391 . S
C483 C482 1.386 . S
C483 C487 1.393 . S
C484 H476 0.950 . S
C484 C482 1.391 . S
C484 C485 1.400 . S
C485 C484 1.400 . S
C485 C486 1.398 . S
C485 C491 1.491 . S
C486 H477 0.950 . S
C486 C485 1.398 . S
C486 C487 1.391 . S
C487 H475 0.950 . S
C487 C483 1.393 . S
C487 C486 1.391 . S
C488 H478 0.950 . S
C488 C489 1.386 . S
C488 C490 1.391 . S
C489 C488 1.386 . S
C489 C493 1.393 . S
C490 H479 0.950 . S
C490 C488 1.391 . S
C490 C491 1.400 . S
C491 C485 1.491 . S
C491 C490 1.400 . S
C491 C492 1.398 . S
C492 H480 0.950 . S
C492 C491 1.398 . S
C492 C493 1.391 . S
C493 H481 0.950 . S
C493 C489 1.393 . S
C493 C492 1.391 . S
H494 C502 0.950 . S
H495 C507 0.950 . S
H496 C504 0.950 . S
H497 C506 0.950 . S
H498 C508 0.950 . S
H499 C510 0.950 . S
H500 C512 0.950 . S
H501 C513 0.950 . S
C502 H494 0.950 . S
C502 C503 1.386 . S
C502 C504 1.391 . S
C503 C502 1.386 . S
C503 C507 1.393 . S
C504 H496 0.950 . S
C504 C502 1.391 . S
C504 C505 1.400 . S
C505 C504 1.400 . S
C505 C506 1.398 . S
C505 C511 1.491 . S
C506 H497 0.950 . S
C506 C505 1.398 . S
C506 C507 1.391 . S
C507 H495 0.950 . S
C507 C503 1.393 . S
C507 C506 1.391 . S
C508 H498 0.950 . S
C508 C509 1.386 . S
C508 C510 1.391 . S
C509 C508 1.386 . S
C509 C513 1.393 . S
C510 H499 0.950 . S
C510 C508 1.391 . S
C510 C511 1.400 . S
C511 C505 1.491 . S
C511 C510 1.400 . S
C511 C512 1.398 . S
C512 H500 0.950 . S
C512 C511 1.398 . S
C512 C513 1.391 . S
C513 H501 0.950 . S
C513 C509 1.393 . S
C513 C512 1.391 . S
H514 C522 0.950 . S
H515 C527 0.950 . S
H516 C524 0.950 . S
H517 C526 0.950 . S
H518 C528 0.950 . S
H519 C530 0.950 . S
H520 C532 0.950 . S
H521 C533 0.950 . S
C522 H514 0.950 . S
C522 C523 1.386 . S
C522 C524 1.391 . S
C523 C522 1.386 . S
C523 C527 1.393 . S
C524 H516 0.950 . S
C524 C522 1.391 . S
C524 C525 1.400 . S
C525 C524 1.400 . S
C525 C526 1.398 . S
C525 C531 1.491 . S
C526 H517 0.950 . S
C526 C525 1.398 . S
C526 C527 1.391 . S
C527 H515 0.950 . S
C527 C523 1.393 . S
C527 C526 1.391 . S
C528 H518 0.950 . S
C528 C529 1.386 . S
C528 C530 1.391 . S
C529 C528 1.386 . S
C529 C533 1.393 . S
C530 H519 0.950 . S
C530 C528 1.391 . S
C530 C531 1.400 . S
C531 C525 1.491 . S
C531 C530 1.400 . S
C531 C532 1.398 . S
C532 H520 0.950 . S
C532 C531 1.398 . S
C532 C533 1.391 . S
C533 H521 0.950 . S
C533 C529 1.393 . S
C533 C532 1.391 . S
H534 C542 0.950 . S
H535 C547 0.950 . S
H536 C544 0.950 . S
H537 C546 0.950 . S
H538 C548 0.950 . S
H539 C550 0.950 . S
H540 C552 0.950 . S
H541 C553 0.950 . S
C542 H534 0.950 . S
C542 C543 1.386 . S
C542 C544 1.391 . S
C543 C542 1.386 . S
C543 C547 1.393 . S
C544 H536 0.950 . S
C544 C542 1.391 . S
C544 C545 1.400 . S
C545 C544 1.400 . S
C545 C546 1.398 . S
C545 C551 1.491 . S
C546 H537 0.950 . S
C546 C545 1.398 . S
C546 C547 1.391 . S
C547 H535 0.950 . S
C547 C543 1.393 . S
C547 C546 1.391 . S
C548 H538 0.950 . S
C548 C549 1.386 . S
C548 C550 1.391 . S
C549 C548 1.386 . S
C549 C553 1.393 . S
C550 H539 0.950 . S
C550 C548 1.391 . S
C550 C551 1.400 . S
C551 C545 1.491 . S
C551 C550 1.400 . S
C551 C552 1.398 . S
C552 H540 0.950 . S
C552 C551 1.398 . S
C552 C553 1.391 . S
C553 H541 0.950 . S
C553 C549 1.393 . S
C553 C552 1.391 . S
H554 C562 0.950 . S
H555 C567 0.950 . S
H556 C564 0.950 . S
H557 C566 0.950 . S
H558 C568 0.950 . S
H559 C570 0.950 . S
H560 C572 0.950 . S
H561 C573 0.950 . S
C562 H554 0.950 . S
C562 C563 1.386 . S
C562 C564 1.391 . S
C563 C562 1.386 . S
C563 C567 1.393 . S
C564 H556 0.950 . S
C564 C562 1.391 . S
C564 C565 1.400 . S
C565 C564 1.400 . S
C565 C566 1.398 . S
C565 C571 1.491 . S
C566 H557 0.950 . S
C566 C565 1.398 . S
C566 C567 1.391 . S
C567 H555 0.950 . S
C567 C563 1.393 . S
C567 C566 1.391 . S
C568 H558 0.950 . S
C568 C569 1.386 . S
C568 C570 1.391 . S
C569 C568 1.386 . S
C569 C573 1.393 . S
C570 H559 0.950 . S
C570 C568 1.391 . S
C570 C571 1.400 . S
C571 C565 1.491 . S
C571 C570 1.400 . S
C571 C572 1.398 . S
C572 H560 0.950 . S
C572 C571 1.398 . S
C572 C573 1.391 . S
C573 H561 0.950 . S
C573 C569 1.393 . S
C573 C572 1.391 . S
H574 C582 0.950 . S
H575 C587 0.950 . S
H576 C584 0.950 . S
H577 C586 0.950 . S
H578 C588 0.950 . S
H579 C590 0.950 . S
H580 C592 0.950 . S
H581 C593 0.950 . S
C582 H574 0.950 . S
C582 C583 1.386 . S
C582 C584 1.391 . S
C583 C582 1.386 . S
C583 C587 1.393 . S
C584 H576 0.950 . S
C584 C582 1.391 . S
C584 C585 1.400 . S
C585 C584 1.400 . S
C585 C586 1.398 . S
C585 C591 1.491 . S
C586 H577 0.950 . S
C586 C585 1.398 . S
C586 C587 1.391 . S
C587 H575 0.950 . S
C587 C583 1.393 . S
C587 C586 1.391 . S
C588 H578 0.950 . S
C588 C589 1.386 . S
C588 C590 1.391 . S
C589 C588 1.386 . S
C589 C593 1.393 . S
C590 H579 0.950 . S
C590 C588 1.391 . S
C590 C591 1.400 . S
C591 C585 1.491 . S
C591 C590 1.400 . S
C591 C592 1.398 . S
C592 H580 0.950 . S
C592 C591 1.398 . S
C592 C593 1.391 . S
C593 H581 0.950 . S
C593 C589 1.393 . S
C593 C592 1.391 . S
H594 C602 0.950 . S
H595 C607 0.950 . S
H596 C604 0.950 . S
H597 C606 0.950 . S
H598 C608 0.950 . S
H599 C610 0.950 . S
H600 C612 0.950 . S
H601 C613 0.950 . S
C602 H594 0.950 . S
C602 C603 1.386 . S
C602 C604 1.391 . S
C603 C602 1.386 . S
C603 C607 1.393 . S
C604 H596 0.950 . S
C604 C602 1.391 . S
C604 C605 1.400 . S
C605 C604 1.400 . S
C605 C606 1.398 . S
C605 C611 1.491 . S
C606 H597 0.950 . S
C606 C605 1.398 . S
C606 C607 1.391 . S
C607 H595 0.950 . S
C607 C603 1.393 . S
C607 C606 1.391 . S
C608 H598 0.950 . S
C608 C609 1.386 . S
C608 C610 1.391 . S
C609 C608 1.386 . S
C609 C613 1.393 . S
C610 H599 0.950 . S
C610 C608 1.391 . S
C610 C611 1.400 . S
C611 C605 1.491 . S
C611 C610 1.400 . S
C611 C612 1.398 . S
C612 H600 0.950 . S
C612 C611 1.398 . S
C612 C613 1.391 . S
C613 H601 0.950 . S
C613 C609 1.393 . S
C613 C612 1.391 . S
H614 C622 0.950 . S
H615 C627 0.950 . S
H616 C624 0.950 . S
H617 C626 0.950 . S
H618 C628 0.950 . S
H619 C630 0.950 . S
H620 C632 0.950 . S
H621 C633 0.950 . S
C622 H614 0.950 . S
C622 C623 1.386 . S
C622 C624 1.391 . S
C623 C622 1.386 . S
C623 C627 1.393 . S
C624 H616 0.950 . S
C624 C622 1.391 . S
C624 C625 1.400 . S
C625 C624 1.400 . S
C625 C626 1.398 . S
C625 C631 1.491 . S
C626 H617 0.950 . S
C626 C625 1.398 . S
C626 C627 1.391 . S
C627 H615 0.950 . S
C627 C623 1.393 . S
C627 C626 1.391 . S
C628 H618 0.950 . S
C628 C629 1.386 . S
C628 C630 1.391 . S
C629 C628 1.386 . S
C629 C633 1.393 . S
C630 H619 0.950 . S
C630 C628 1.391 . S
C630 C631 1.400 . S
C631 C625 1.491 . S
C631 C630 1.400 . S
C631 C632 1.398 . S
C632 H620 0.950 . S
C632 C631 1.398 . S
C632 C633 1.391 . S
C633 H621 0.950 . S
C633 C629 1.393 . S
C633 C632 1.391 . S
H634 C642 0.950 . S
H635 C647 0.950 . S
H636 C644 0.950 . S
H637 C646 0.950 . S
H638 C648 0.950 . S
H639 C650 0.950 . S
H640 C652 0.950 . S
H641 C653 0.950 . S
C642 H634 0.950 . S
C642 C643 1.386 . S
C642 C644 1.391 . S
C643 C642 1.386 . S
C643 C647 1.393 . S
C644 H636 0.950 . S
C644 C642 1.391 . S
C644 C645 1.400 . S
C645 C644 1.400 . S
C645 C646 1.398 . S
C645 C651 1.491 . S
C646 H637 0.950 . S
C646 C645 1.398 . S
C646 C647 1.391 . S
C647 H635 0.950 . S
C647 C643 1.393 . S
C647 C646 1.391 . S
C648 H638 0.950 . S
C648 C649 1.386 . S
C648 C650 1.391 . S
C649 C648 1.386 . S
C649 C653 1.393 . S
C650 H639 0.950 . S
C650 C648 1.391 . S
C650 C651 1.400 . S
C651 C645 1.491 . S
C651 C650 1.400 . S
C651 C652 1.398 . S
C652 H640 0.950 . S
C652 C651 1.398 . S
C652 C653 1.391 . S
C653 H641 0.950 . S
C653 C649 1.393 . S
C653 C652 1.391 . S
H654 C662 0.950 . S
H655 C667 0.950 . S
H656 C664 0.950 . S
H657 C666 0.950 . S
H658 C668 0.950 . S
H659 C670 0.950 . S
H660 C672 0.950 . S
H661 C673 0.950 . S
C662 H654 0.950 . S
C662 C663 1.386 . S
C662 C664 1.391 . S
C663 C662 1.386 . S
C663 C667 1.393 . S
C664 H656 0.950 . S
C664 C662 1.391 . S
C664 C665 1.400 . S
C665 C664 1.400 . S
C665 C666 1.398 . S
C665 C671 1.491 . S
C666 H657 0.950 . S
C666 C665 1.398 . S
C666 C667 1.391 . S
C667 H655 0.950 . S
C667 C663 1.393 . S
C667 C666 1.391 . S
C668 H658 0.950 . S
C668 C669 1.386 . S
C668 C670 1.391 . S
C669 C668 1.386 . S
C669 C673 1.393 . S
C670 H659 0.950 . S
C670 C668 1.391 . S
C670 C671 1.400 . S
C671 C665 1.491 . S
C671 C670 1.400 . S
C671 C672 1.398 . S
C672 H660 0.950 . S
C672 C671 1.398 . S
C672 C673 1.391 . S
C673 H661 0.950 . S
C673 C669 1.393 . S
C673 C672 1.391 . S
H674 C682 0.950 . S
H675 C687 0.950 . S
H676 C684 0.950 . S
H677 C686 0.950 . S
H678 C688 0.950 . S
H679 C690 0.950 . S
H680 C692 0.950 . S
H681 C693 0.950 . S
C682 H674 0.950 . S
C682 C683 1.386 . S
C682 C684 1.391 . S
C683 C682 1.386 . S
C683 C687 1.393 . S
C684 H676 0.950 . S
C684 C682 1.391 . S
C684 C685 1.400 . S
C685 C684 1.400 . S
C685 C686 1.398 . S
C685 C691 1.491 . S
C686 H677 0.950 . S
C686 C685 1.398 . S
C686 C687 1.391 . S
C687 H675 0.950 . S
C687 C683 1.393 . S
C687 C686 1.391 . S
C688 H678 0.950 . S
C688 C689 1.386 . S
C688 C690 1.391 . S
C689 C688 1.386 . S
C689 C693 1.393 . S
C690 H679 0.950 . S
C690 C688 1.391 . S
C690 C691 1.400 . S
C691 C685 1.491 . S
C691 C690 1.400 . S
C691 C692 1.398 . S
C692 H680 0.950 . S
C692 C691 1.398 . S
C692 C693 1.391 . S
C693 H681 0.950 . S
C693 C689 1.393 . S
C693 C692 1.391 . S
H694 C702 0.950 . S
H695 C707 0.950 . S
H696 C704 0.950 . S
H697 C706 0.950 . S
H698 C708 0.950 . S
H699 C710 0.950 . S
H700 C712 0.950 . S
H701 C713 0.950 . S
C702 H694 0.950 . S
C702 C703 1.386 . S
C702 C704 1.391 . S
C703 C702 1.386 . S
C703 C707 1.393 . S
C704 H696 0.950 . S
C704 C702 1.391 . S
C704 C705 1.400 . S
C705 C704 1.400 . S
C705 C706 1.398 . S
C705 C711 1.491 . S
C706 H697 0.950 . S
C706 C705 1.398 . S
C706 C707 1.391 . S
C707 H695 0.950 . S
C707 C703 1.393 . S
C707 C706 1.391 . S
C708 H698 0.950 . S
C708 C709 1.386 . S
C708 C710 1.391 . S
C709 C708 1.386 . S
C709 C713 1.393 . S
C710 H699 0.950 . S
C710 C708 1.391 . S
C710 C711 1.400 . S
C711 C705 1.491 . S
C711 C710 1.400 . S
C711 C712 1.398 . S
C712 H700 0.950 . S
C712 C711 1.398 . S
C712 C713 1.391 . S
C713 H701 0.950 . S
C713 C709 1.393 . S
C713 C712 1.391 . S
H714 C722 0.950 . S
H715 C727 0.950 . S
H716 C724 0.950 . S
H717 C726 0.950 . S
H718 C728 0.950 . S
H719 C730 0.950 . S
H720 C732 0.950 . S
H721 C733 0.950 . S
C722 H714 0.950 . S
C722 C723 1.386 . S
C722 C724 1.391 . S
C723 C722 1.386 . S
C723 C727 1.393 . S
C724 H716 0.950 . S
C724 C722 1.391 . S
C724 C725 1.400 . S
C725 C724 1.400 . S
C725 C726 1.398 . S
C725 C731 1.491 . S
C726 H717 0.950 . S
C726 C725 1.398 . S
C726 C727 1.391 . S
C727 H715 0.950 . S
C727 C723 1.393 . S
C727 C726 1.391 . S
C728 H718 0.950 . S
C728 C729 1.386 . S
C728 C730 1.391 . S
C729 C728 1.386 . S
C729 C733 1.393 . S
C730 H719 0.950 . S
C730 C728 1.391 . S
C730 C731 1.400 . S
C731 C725 1.491 . S
C731 C730 1.400 . S
C731 C732 1.398 . S
C732 H720 0.950 . S
C732 C731 1.398 . S
C732 C733 1.391 . S
C733 H721 0.950 . S
C733 C729 1.393 . S
C733 C732 1.391 . S
H734 C742 0.950 . S
H735 C747 0.950 . S
H736 C744 0.950 . S
H737 C746 0.950 . S
H738 C748 0.950 . S
H739 C750 0.950 . S
H740 C752 0.950 . S
H741 C753 0.950 . S
C742 H734 0.950 . S
C742 C743 1.386 . S
C742 C744 1.391 . S
C743 C742 1.386 . S
C743 C747 1.393 . S
C744 H736 0.950 . S
C744 C742 1.391 . S
C744 C745 1.400 . S
C745 C744 1.400 . S
C745 C746 1.398 . S
C745 C751 1.491 . S
C746 H737 0.950 . S
C746 C745 1.398 . S
C746 C747 1.391 . S
C747 H735 0.950 . S
C747 C743 1.393 . S
C747 C746 1.391 . S
C748 H738 0.950 . S
C748 C749 1.386 . S
C748 C750 1.391 . S
C749 C748 1.386 . S
C749 C753 1.393 . S
C750 H739 0.950 . S
C750 C748 1.391 . S
C750 C751 1.400 . S
C751 C745 1.491 . S
C751 C750 1.400 . S
C751 C752 1.398 . S
C752 H740 0.950 . S
C752 C751 1.398 . S
C752 C753 1.391 . S
C753 H741 0.950 . S
C753 C749 1.393 . S
C753 C752 1.391 . S
H754 C762 0.950 . S
H755 C767 0.950 . S
H756 C764 0.950 . S
H757 C766 0.950 . S
H758 C768 0.950 . S
H759 C770 0.950 . S
H760 C772 0.950 . S
H761 C773 0.950 . S
C762 H754 0.950 . S
C762 C763 1.386 . S
C762 C764 1.391 . S
C763 C762 1.386 . S
C763 C767 1.393 . S
C764 H756 0.950 . S
C764 C762 1.391 . S
C764 C765 1.400 . S
C765 C764 1.400 . S
C765 C766 1.398 . S
C765 C771 1.491 . S
C766 H757 0.950 . S
C766 C765 1.398 . S
C766 C767 1.391 . S
C767 H755 0.950 . S
C767 C763 1.393 . S
C767 C766 1.391 . S
C768 H758 0.950 . S
C768 C769 1.386 . S
C768 C770 1.391 . S
C769 C768 1.386 . S
C769 C773 1.393 . S
C770 H759 0.950 . S
C770 C768 1.391 . S
C770 C771 1.400 . S
C771 C765 1.491 . S
C771 C770 1.400 . S
C771 C772 1.398 . S
C772 H760 0.950 . S
C772 C771 1.398 . S
C772 C773 1.391 . S
C773 H761 0.950 . S
C773 C769 1.393 . S
C773 C772 1.391 . S
H774 C782 0.950 . S
H775 C787 0.950 . S
H776 C784 0.950 . S
H777 C786 0.950 . S
H778 C788 0.950 . S
H779 C790 0.950 . S
H780 C792 0.950 . S
H781 C793 0.950 . S
C782 H774 0.950 . S
C782 C783 1.386 . S
C782 C784 1.391 . S
C783 C782 1.386 . S
C783 C787 1.393 . S
C784 H776 0.950 . S
C784 C782 1.391 . S
C784 C785 1.400 . S
C785 C784 1.400 . S
C785 C786 1.398 . S
C785 C791 1.491 . S
C786 H777 0.950 . S
C786 C785 1.398 . S
C786 C787 1.391 . S
C787 H775 0.950 . S
C787 C783 1.393 . S
C787 C786 1.391 . S
C788 H778 0.950 . S
C788 C789 1.386 . S
C788 C790 1.391 . S
C789 C788 1.386 . S
C789 C793 1.393 . S
C790 H779 0.950 . S
C790 C788 1.391 . S
C790 C791 1.400 . S
C791 C785 1.491 . S
C791 C790 1.400 . S
C791 C792 1.398 . S
C792 H780 0.950 . S
C792 C791 1.398 . S
C792 C793 1.391 . S
C793 H781 0.950 . S
C793 C789 1.393 . S
C793 C792 1.391 . S
H794 C802 0.950 . S
H795 C807 0.950 . S
H796 C804 0.950 . S
H797 C806 0.950 . S
H798 C808 0.950 . S
H799 C810 0.950 . S
H800 C812 0.950 . S
H801 C813 0.950 . S
C802 H794 0.950 . S
C802 C803 1.386 . S
C802 C804 1.391 . S
C803 C802 1.386 . S
C803 C807 1.393 . S
C804 H796 0.950 . S
C804 C802 1.391 . S
C804 C805 1.400 . S
C805 C804 1.400 . S
C805 C806 1.398 . S
C805 C811 1.491 . S
C806 H797 0.950 . S
C806 C805 1.398 . S
C806 C807 1.391 . S
C807 H795 0.950 . S
C807 C803 1.393 . S
C807 C806 1.391 . S
C808 H798 0.950 . S
C808 C809 1.386 . S
C808 C810 1.391 . S
C809 C808 1.386 . S
C809 C813 1.393 . S
C810 H799 0.950 . S
C810 C808 1.391 . S
C810 C811 1.400 . S
C811 C805 1.491 . S
C811 C810 1.400 . S
C811 C812 1.398 . S
C812 H800 0.950 . S
C812 C811 1.398 . S
C812 C813 1.391 . S
C813 H801 0.950 . S
C813 C809 1.393 . S
C813 C812 1.391 . S
H814 C822 0.950 . S
H815 C827 0.950 . S
H816 C824 0.950 . S
H817 C826 0.950 . S
H818 C828 0.950 . S
H819 C830 0.950 . S
H820 C832 0.950 . S
H821 C833 0.950 . S
C822 H814 0.950 . S
C822 C823 1.386 . S
C822 C824 1.391 . S
C823 C822 1.386 . S
C823 C827 1.393 . S
C824 H816 0.950 . S
C824 C822 1.391 . S
C824 C825 1.400 . S
C825 C824 1.400 . S
C825 C826 1.398 . S
C825 C831 1.491 . S
C826 H817 0.950 . S
C826 C825 1.398 . S
C826 C827 1.391 . S
C827 H815 0.950 . S
C827 C823 1.393 . S
C827 C826 1.391 . S
C828 H818 0.950 . S
C828 C829 1.386 . S
C828 C830 1.391 . S
C829 C828 1.386 . S
C829 C833 1.393 . S
C830 H819 0.950 . S
C830 C828 1.391 . S
C830 C831 1.400 . S
C831 C825 1.491 . S
C831 C830 1.400 . S
C831 C832 1.398 . S
C832 H820 0.950 . S
C832 C831 1.398 . S
C832 C833 1.391 . S
C833 H821 0.950 . S
C833 C829 1.393 . S
C833 C832 1.391 . S
H834 C842 0.950 . S
H835 C847 0.950 . S
H836 C844 0.950 . S
H837 C846 0.950 . S
H838 C848 0.950 . S
H839 C850 0.950 . S
H840 C852 0.950 . S
H841 C853 0.950 . S
C842 H834 0.950 . S
C842 C843 1.386 . S
C842 C844 1.391 . S
C843 C842 1.386 . S
C843 C847 1.393 . S
C844 H836 0.950 . S
C844 C842 1.391 . S
C844 C845 1.400 . S
C845 C844 1.400 . S
C845 C846 1.398 . S
C845 C851 1.491 . S
C846 H837 0.950 . S
C846 C845 1.398 . S
C846 C847 1.391 . S
C847 H835 0.950 . S
C847 C843 1.393 . S
C847 C846 1.391 . S
C848 H838 0.950 . S
C848 C849 1.386 . S
C848 C850 1.391 . S
C849 C848 1.386 . S
C849 C853 1.393 . S
C850 H839 0.950 . S
C850 C848 1.391 . S
C850 C851 1.400 . S
C851 C845 1.491 . S
C851 C850 1.400 . S
C851 C852 1.398 . S
C852 H840 0.950 . S
C852 C851 1.398 . S
C852 C853 1.391 . S
C853 H841 0.950 . S
C853 C849 1.393 . S
C853 C852 1.391 . S
H854 C862 0.950 . S
H855 C867 0.950 . S
H856 C864 0.950 . S
H857 C866 0.950 . S
H858 C868 0.950 . S
H859 C870 0.950 . S
H860 C872 0.950 . S
H861 C873 0.950 . S
C862 H854 0.950 . S
C862 C863 1.386 . S
C862 C864 1.391 . S
C863 C862 1.386 . S
C863 C867 1.393 . S
C864 H856 0.950 . S
C864 C862 1.391 . S
C864 C865 1.400 . S
C865 C864 1.400 . S
C865 C866 1.398 . S
C865 C871 1.491 . S
C866 H857 0.950 . S
C866 C865 1.398 . S
C866 C867 1.391 . S
C867 H855 0.950 . S
C867 C863 1.393 . S
C867 C866 1.391 . S
C868 H858 0.950 . S
C868 C869 1.386 . S
C868 C870 1.391 . S
C869 C868 1.386 . S
C869 C873 1.393 . S
C870 H859 0.950 . S
C870 C868 1.391 . S
C870 C871 1.400 . S
C871 C865 1.491 . S
C871 C870 1.400 . S
C871 C872 1.398 . S
C872 H860 0.950 . S
C872 C871 1.398 . S
C872 C873 1.391 . S
C873 H861 0.950 . S
C873 C869 1.393 . S
C873 C872 1.391 . S
H874 C882 0.950 . S
H875 C887 0.950 . S
H876 C884 0.950 . S
H877 C886 0.950 . S
H878 C888 0.950 . S
H879 C890 0.950 . S
H880 C892 0.950 . S
H881 C893 0.950 . S
C882 H874 0.950 . S
C882 C883 1.386 . S
C882 C884 1.391 . S
C883 C882 1.386 . S
C883 C887 1.393 . S
C884 H876 0.950 . S
C884 C882 1.391 . S
C884 C885 1.400 . S
C885 C884 1.400 . S
C885 C886 1.398 . S
C885 C891 1.491 . S
C886 H877 0.950 . S
C886 C885 1.398 . S
C886 C887 1.391 . S
C887 H875 0.950 . S
C887 C883 1.393 . S
C887 C886 1.391 . S
C888 H878 0.950 . S
C888 C889 1.386 . S
C888 C890 1.391 . S
C889 C888 1.386 . S
C889 C893 1.393 . S
C890 H879 0.950 . S
C890 C888 1.391 . S
C890 C891 1.400 . S
C891 C885 1.491 . S
C891 C890 1.400 . S
C891 C892 1.398 . S
C892 H880 0.950 . S
C892 C891 1.398 . S
C892 C893 1.391 . S
C893 H881 0.950 . S
C893 C889 1.393 . S
C893 C892 1.391 . S
C423 C7 1.880 . S
C429 C160 1.865 . S
C443 C30 1.648 . S
C449 C199 1.635 . S
C469 C231 1.722 . S
C463 N58 1.698 . S
C489 C277 1.496 . S
C483 N81 1.467 . S
C509 C344 1.770 . S
C503 C99 1.784 . S
C529 C383 1.543 . S
C523 N127 1.509 . S
C543 N25 1.725 . S
C549 C245 1.751 . S
C563 C62 1.643 . S
C569 C291 1.631 . S
C589 C330 1.800 . S
C583 C85 1.819 . S
C609 C369 1.519 . S
C603 N94 1.522 . S
C623 C131 1.821 . S
C629 C146 1.789 . S
C649 C185 1.490 . S
C643 N2 1.487 . S
C669 C284 1.802 . S
C663 C16 1.816 . S
C683 C39 1.608 . S
C689 C337 1.594 . S
C709 C390 1.707 . S
C703 N48 1.694 . S
C723 N71 1.448 . S
C729 C153 1.472 . S
C743 C108 1.775 . S
C749 C206 1.758 . S
C763 N117 1.488 . S
C769 C238 1.518 . S
C783 N35 1.701 . S
C789 C376 1.733 . S
C809 C139 1.634 . S
C803 C53 1.646 . S
C823 C76 1.849 . S
C829 C192 1.830 . S
C843 N104 1.501 . S
C849 C252 1.510 . S
C863 C122 1.769 . S
C869 C298 1.739 . S
C883 N12 1.451 . S
C889 C323 1.481 . S
