# Generated by pormake.
# Topology pyr, (3,6)-cn, num edge types: 1
# Building blocks:
#     Node 0, Type 0, BuildingBlock: BETDAH_clean_linker_0, # of connection points: 3
#     Node 1, Type 0, BuildingBlock: BETDAH_clean_linker_0, # of connection points: 3
#     Node 2, Type 0, BuildingBlock: BETDAH_clean_linker_0, # of connection points: 3
#     Node 3, Type 0, BuildingBlock: BETDAH_clean_linker_0, # of connection points: 3
#     Node 4, Type 0, BuildingBlock: BETDAH_clean_linker_0, # of connection points: 3
#     Node 5, Type 0, BuildingBlock: BETDAH_clean_linker_0, # of connection points: 3
#     Node 6, Type 0, BuildingBlock: BETDAH_clean_linker_0, # of connection points: 3
#     Node 7, Type 0, BuildingBlock: BETDAH_clean_linker_0, # of connection points: 3
#     Node 8, Type 1, BuildingBlock: MIDCAF_clean_sbu_0, # of connection points: 6
#     Node 9, Type 1, BuildingBlock: MIDCAF_clean_sbu_0, # of connection points: 6
#     Node 10, Type 1, BuildingBlock: MIDCAF_clean_sbu_0, # of connection points: 6
#     Node 11, Type 1, BuildingBlock: MIDCAF_clean_sbu_0, # of connection points: 6
#     Edge 12, Type (0, 1), BuildingBlock: OJICUG_clean_linker_0, # of connection points: 2
#     Edge 13, Type (0, 1), BuildingBlock: OJICUG_clean_linker_0, # of connection points: 2
#     Edge 14, Type (0, 1), BuildingBlock: OJICUG_clean_linker_0, # of connection points: 2
#     Edge 15, Type (0, 1), BuildingBlock: OJICUG_clean_linker_0, # of connection points: 2
#     Edge 16, Type (0, 1), BuildingBlock: OJICUG_clean_linker_0, # of connection points: 2
#     Edge 17, Type (0, 1), BuildingBlock: OJICUG_clean_linker_0, # of connection points: 2
#     Edge 18, Type (0, 1), BuildingBlock: OJICUG_clean_linker_0, # of connection points: 2
#     Edge 19, Type (0, 1), BuildingBlock: OJICUG_clean_linker_0, # of connection points: 2
#     Edge 20, Type (0, 1), BuildingBlock: OJICUG_clean_linker_0, # of connection points: 2
#     Edge 21, Type (0, 1), BuildingBlock: OJICUG_clean_linker_0, # of connection points: 2
#     Edge 22, Type (0, 1), BuildingBlock: OJICUG_clean_linker_0, # of connection points: 2
#     Edge 23, Type (0, 1), BuildingBlock: OJICUG_clean_linker_0, # of connection points: 2
#     Edge 24, Type (0, 1), BuildingBlock: OJICUG_clean_linker_0, # of connection points: 2
#     Edge 25, Type (0, 1), BuildingBlock: OJICUG_clean_linker_0, # of connection points: 2
#     Edge 26, Type (0, 1), BuildingBlock: OJICUG_clean_linker_0, # of connection points: 2
#     Edge 27, Type (0, 1), BuildingBlock: OJICUG_clean_linker_0, # of connection points: 2
#     Edge 28, Type (0, 1), BuildingBlock: OJICUG_clean_linker_0, # of connection points: 2
#     Edge 29, Type (0, 1), BuildingBlock: OJICUG_clean_linker_0, # of connection points: 2
#     Edge 30, Type (0, 1), BuildingBlock: OJICUG_clean_linker_0, # of connection points: 2
#     Edge 31, Type (0, 1), BuildingBlock: OJICUG_clean_linker_0, # of connection points: 2
#     Edge 32, Type (0, 1), BuildingBlock: OJICUG_clean_linker_0, # of connection points: 2
#     Edge 33, Type (0, 1), BuildingBlock: OJICUG_clean_linker_0, # of connection points: 2
#     Edge 34, Type (0, 1), BuildingBlock: OJICUG_clean_linker_0, # of connection points: 2
#     Edge 35, Type (0, 1), BuildingBlock: OJICUG_clean_linker_0, # of connection points: 2
# Relax obj value: 0.089
# Max RMSD: 0.179
# Mean RMSD: 0.133
data_MOF--net-pyr--node1-MIDCAF_clean_sbu_0--node2-BETDAH_clean_linker_0--edge1-OJICUG_clean_linker_0
_symmetry_space_group_name_H-M    P1
_symmetry_Int_Tables_number       1
_symmetry_cell_setting            triclinic
loop_
_symmetry_equiv_pos_as_xyz
'x, y, z'
_cell_length_a     24.851761
_cell_length_b     25.111002
_cell_length_c     26.184807
_cell_angle_alpha  90.471695
_cell_angle_beta   90.914526
_cell_angle_gamma 96.359552
loop_
_atom_site_label
_atom_site_type_symbol
_atom_site_fract_x
_atom_site_fract_y
_atom_site_fract_z
_atom_type_partial_charge
H0 H 0.31643 0.191 0.32104 0.0
H1 H 0.28142 0.27183 0.18181 0.0
H2 H 0.1615 0.24916 0.29609 0.0
C3 C 0.28931 0.21179 0.29771 0.0
C4 C 0.2367 0.21706 0.31514 0.0
C5 C 0.30589 0.22946 0.2489 0.0
C6 C 0.27139 0.25954 0.22034 0.0
C7 C 0.22058 0.26895 0.23872 0.0
C8 C 0.203 0.24651 0.28526 0.0
N9 N 0.18206 0.28854 0.20523 0.0
C10 C 0.18075 0.34226 0.1929 0.0
H11 H 0.40924 0.78712 0.84465 0.0
H12 H 0.26485 0.86078 0.87623 0.0
H13 H 0.26379 0.74817 0.75301 0.0
C14 C 0.36726 0.79156 0.83613 0.0
C15 C 0.34034 0.76227 0.79485 0.0
C16 C 0.34066 0.8271 0.86637 0.0
C17 C 0.28629 0.83313 0.85456 0.0
C18 C 0.2594 0.8058 0.81321 0.0
C19 C 0.28612 0.77037 0.78364 0.0
N20 N 0.20437 0.81265 0.80341 0.0
C21 C 0.18706 0.83507 0.75851 0.0
H22 H 0.78129 0.28807 0.93447 0.0
H23 H 0.80559 0.36381 0.78831 0.0
H24 H 0.68587 0.22821 0.80368 0.0
C25 C 0.77161 0.28991 0.89409 0.0
C26 C 0.73018 0.25326 0.87319 0.0
C27 C 0.7996 0.32982 0.86404 0.0
C28 C 0.78496 0.33319 0.81213 0.0
C29 C 0.74451 0.29584 0.79042 0.0
C30 C 0.71801 0.25568 0.82073 0.0
N31 N 0.72979 0.29812 0.73808 0.0
C32 C 0.70912 0.34271 0.71777 0.0
H33 H 0.75701 0.80845 0.43101 0.0
H34 H 0.81811 0.82975 0.27875 0.0
H35 H 0.6727 0.72498 0.30426 0.0
C36 C 0.75263 0.80102 0.39027 0.0
C37 C 0.70931 0.7649 0.37188 0.0
C38 C 0.79198 0.8253 0.3573 0.0
C39 C 0.78839 0.81159 0.305 0.0
C40 C 0.74564 0.77519 0.28595 0.0
C41 C 0.70573 0.7528 0.31927 0.0
N42 N 0.74213 0.76071 0.23336 0.0
C43 C 0.78657 0.7468 0.20653 0.0
H44 H 0.99895 0.87241 0.87626 0.0
H45 H 0.91538 0.94383 0.99794 0.0
H46 H 0.96378 0.03615 0.86609 0.0
C47 C 0.98118 0.90633 0.89209 0.0
C48 C 0.9845 0.95477 0.8652 0.0
C49 C 0.95712 0.90251 0.94056 0.0
C50 C 0.93391 0.94655 0.96073 0.0
C51 C 0.93619 0.99465 0.93334 0.0
C52 C 0.96247 0.99875 0.8867 0.0
N53 N 0.91302 0.03992 0.95193 0.0
C54 C 0.86188 0.03573 0.97287 0.0
H55 H 0.70017 0.09322 0.37639 0.0
H56 H 0.69099 0.12983 0.53662 0.0
H57 H 0.57637 0.18588 0.43119 0.0
C58 C 0.68129 0.11235 0.40761 0.0
C59 C 0.63578 0.13997 0.39771 0.0
C60 C 0.70144 0.10776 0.45762 0.0
C61 C 0.67561 0.13173 0.49779 0.0
C62 C 0.63159 0.16071 0.48861 0.0
C63 C 0.61122 0.16449 0.43844 0.0
N64 N 0.60835 0.1845 0.53112 0.0
C65 C 0.5867 0.23316 0.52951 0.0
H66 H 0.3465 0.70508 0.09256 0.0
H67 H 0.38042 0.55046 0.14613 0.0
H68 H 0.48991 0.69051 0.18337 0.0
C69 C 0.37284 0.68051 0.11291 0.0
C70 C 0.42015 0.70458 0.13708 0.0
C71 C 0.35804 0.62514 0.11674 0.0
C72 C 0.39172 0.59326 0.14317 0.0
C73 C 0.4392 0.61692 0.16727 0.0
C74 C 0.45303 0.67251 0.16465 0.0
N75 N 0.47202 0.58466 0.1953 0.0
C76 C 0.48741 0.59791 0.24534 0.0
H77 H 0.20707 0.3904 0.60128 0.0
H78 H 0.11956 0.50453 0.67972 0.0
H79 H 0.03311 0.36742 0.60469 0.0
C80 C 0.16908 0.40347 0.61341 0.0
C81 C 0.12026 0.3733 0.59902 0.0
C82 C 0.16915 0.4513 0.64192 0.0
C83 C 0.11973 0.46785 0.65768 0.0
C84 C 0.07058 0.437 0.6443 0.0
C85 C 0.07124 0.39102 0.61409 0.0
N86 N 0.01974 0.45053 0.6609 0.0
C87 C 0.01304 0.47531 0.70753 0.0
Zn88 Zn 0.98152 0.0915 0.59965 0.0
Zn89 Zn 0.08469 0.96748 0.4861 0.0
Zn90 Zn 0.0314 0.03375 0.53973 0.0
C91 C 0.12858 0.07273 0.46224 0.0
C92 C 0.97506 0.95165 0.45418 0.0
O93 O 0.03714 1.00572 0.62121 0.0
O94 O 0.99251 0.06072 0.66646 0.0
C95 C 0.06077 0.16069 0.55381 0.0
O96 O 0.09352 0.08475 0.49511 0.0
O97 O 0.13323 0.02413 0.45234 0.0
O98 O 0.02035 0.93472 0.44685 0.0
O99 O 0.97101 0.98959 0.487 0.0
O100 O 0.02341 0.16023 0.58579 0.0
O101 O 0.07061 0.11715 0.53115 0.0
O102 O 0.94453 0.03005 0.51225 0.0
O103 O 0.9086 0.07992 0.56983 0.0
C104 C 0.90362 0.05173 0.52968 0.0
O105 O 0.07066 0.97747 0.59109 0.0
O106 O 0.1143 0.92526 0.54166 0.0
C107 C 0.0192 0.02103 0.66437 0.0
C108 C 0.10127 0.9394 0.58571 0.0
Zn109 Zn 0.47271 0.09474 0.02405 0.0
Zn110 Zn 0.58803 0.99879 0.13759 0.0
Zn111 Zn 0.53354 0.04414 0.0867 0.0
C112 C 0.65141 0.01627 0.05994 0.0
C113 C 0.50266 0.92735 0.12815 0.0
O114 O 0.49147 0.09949 0.13526 0.0
O115 O 0.44018 0.13617 0.07845 0.0
C116 C 0.57977 0.12089 0.99497 0.0
O117 O 0.61816 0.05225 0.05758 0.0
O118 O 0.64089 0.97657 0.08866 0.0
O119 O 0.53492 0.9423 0.16442 0.0
O120 O 0.49997 0.95802 0.08912 0.0
O121 O 0.53273 0.13244 0.98461 0.0
O122 O 0.58784 0.08784 0.03096 0.0
O123 O 0.47767 0.98132 0.04606 0.0
O124 O 0.43262 0.02881 0.99255 0.0
C125 C 0.44292 0.98393 1.00923 0.0
O126 O 0.53408 0.08097 0.16538 0.0
O127 O 0.61491 0.05811 0.18414 0.0
C128 C 0.45595 0.13157 0.12416 0.0
C129 C 0.57684 0.08541 0.19442 0.0
Zn130 Zn 0.57314 0.62161 0.63372 0.0
Zn131 Zn 0.43255 0.51044 0.51881 0.0
Zn132 Zn 0.50141 0.55846 0.57562 0.0
C133 C 0.50594 0.438 0.54072 0.0
C134 C 0.47244 0.58535 0.45716 0.0
O135 O 0.45607 0.60166 0.63436 0.0
O136 O 0.5202 0.65021 0.67957 0.0
C137 C 0.59721 0.514 0.64173 0.0
O138 O 0.52028 0.47398 0.57525 0.0
O139 O 0.47169 0.44687 0.50662 0.0
O140 O 0.42655 0.55913 0.46123 0.0
O141 O 0.50705 0.58669 0.49456 0.0
O142 O 0.61143 0.56074 0.65886 0.0
O143 O 0.55729 0.50524 0.60959 0.0
O144 O 0.5478 0.6161 0.52507 0.0
O145 O 0.60396 0.66726 0.57617 0.0
C146 C 0.58572 0.655 0.53178 0.0
O147 O 0.42013 0.56149 0.61112 0.0
O148 O 0.37093 0.50044 0.56384 0.0
C149 C 0.47064 0.63542 0.67094 0.0
C150 C 0.37525 0.53178 0.60178 0.0
Zn151 Zn 0.07614 0.64149 0.97199 0.0
Zn152 Zn 0.95951 0.51851 0.08883 0.0
Zn153 Zn 0.01692 0.58004 0.02642 0.0
C154 C 0.06365 0.50419 0.11605 0.0
C155 C 0.93476 0.47928 0.98919 0.0
O156 O 0.99204 0.66359 0.03136 0.0
O157 O 0.06059 0.71226 0.99566 0.0
C158 C 0.1483 0.59302 0.02805 0.0
O159 O 0.07184 0.53772 0.07895 0.0
O160 O 0.01603 0.4897 0.13007 0.0
O161 O 0.92276 0.47013 0.03522 0.0
O162 O 0.96948 0.51911 0.97772 0.0
O163 O 0.14771 0.62097 0.98839 0.0
O164 O 0.10335 0.5759 0.04958 0.0
O165 O 1.00319 0.55232 0.94576 0.0
O166 O 0.04711 0.6192 0.90398 0.0
C167 C 0.01765 0.57499 0.90335 0.0
O168 O 0.96308 0.6311 0.06875 0.0
O169 O 0.92101 0.57333 0.12206 0.0
C170 C 0.01574 0.70959 0.01774 0.0
C171 C 0.92984 0.62052 0.10565 0.0
C172 C 0.17224 0.20083 0.38959 0.0
C173 C 0.21422 0.18456 0.35943 0.0
H174 H 0.11155 0.17828 0.44525 0.0
C175 C 0.23101 0.13366 0.36843 0.0
H176 H 0.15841 0.23986 0.3845 0.0
C177 C 0.20538 0.09941 0.40439 0.0
C178 C 0.16134 0.1142 0.43213 0.0
H179 H 0.26205 0.11843 0.34574 0.0
H180 H 0.21862 0.05997 0.40857 0.0
C181 C 0.14584 0.16587 0.42526 0.0
C182 C 0.4243 0.88184 0.90279 0.0
C183 C 0.3699 0.86041 0.90829 0.0
H184 H 0.49018 0.93699 0.9316 0.0
C185 C 0.34247 0.87491 0.95226 0.0
H186 H 0.44681 0.87256 0.86943 0.0
C187 C 0.36734 0.91269 0.98746 0.0
C188 C 0.42061 0.93568 0.98021 0.0
H189 H 0.30103 0.85848 0.95869 0.0
H190 H 0.34428 0.9255 0.01918 0.0
C191 C 0.44931 0.91892 0.93841 0.0
C192 C 0.6704 0.3894 0.64561 0.0
C193 C 0.68324 0.38695 0.69783 0.0
H194 H 0.63374 0.43285 0.58645 0.0
C195 C 0.66855 0.42648 0.73119 0.0
H196 H 0.6816 0.35912 0.61931 0.0
C197 C 0.6406 0.46783 0.71264 0.0
C198 C 0.62646 0.46985 0.66054 0.0
H199 H 0.67815 0.42507 0.77165 0.0
H200 H 0.62928 0.49782 0.73918 0.0
C201 C 0.64247 0.43092 0.627 0.0
C202 C 0.86028 0.68995 0.20931 0.0
C203 C 0.82998 0.72366 0.18136 0.0
H204 H 0.91652 0.63151 0.20678 0.0
C205 C 0.83795 0.72902 0.12852 0.0
H206 H 0.85456 0.68517 0.25005 0.0
C207 C 0.87406 0.69856 0.10354 0.0
C208 C 0.90175 0.66206 0.13124 0.0
H209 H 0.81447 0.75467 0.10627 0.0
H210 H 0.87741 0.70078 0.06243 0.0
C211 C 0.89565 0.65932 0.1845 0.0
C212 C 0.36867 0.15757 0.23585 0.0
C213 C 0.35419 0.20918 0.22453 0.0
H214 H 0.41387 0.09316 0.21379 0.0
C215 C 0.38193 0.23791 0.18517 0.0
H216 H 0.34819 0.13332 0.26515 0.0
C217 C 0.41839 0.2138 0.15478 0.0
C218 C 0.42954 0.16106 0.16399 0.0
H219 H 0.37359 0.27818 0.17602 0.0
H220 H 0.43604 0.23556 0.12244 0.0
C221 C 0.40643 0.1341 0.20627 0.0
C222 C 0.15274 0.83263 0.66939 0.0
C223 C 0.16606 0.86128 0.71478 0.0
H224 H 0.12123 0.8351 0.5928 0.0
C225 C 0.15781 0.91553 0.718 0.0
H226 H 0.15883 0.79066 0.66631 0.0
C227 C 0.13647 0.94099 0.67611 0.0
C228 C 0.12235 0.91236 0.63068 0.0
H229 H 0.16812 0.93833 0.75278 0.0
H230 H 0.13227 0.98334 0.67884 0.0
C231 C 0.13124 0.85803 0.62755 0.0
C232 C 0.84535 0.4239 0.87878 0.0
C233 C 0.84226 0.36854 0.88854 0.0
H234 H 0.87842 0.50315 0.90306 0.0
C235 C 0.87664 0.3506 0.92635 0.0
H236 H 0.81948 0.43907 0.84994 0.0
C237 C 0.90904 0.38708 0.95709 0.0
C238 C 0.90915 0.44228 0.94982 0.0
H239 H 0.87662 0.30824 0.93386 0.0
H240 H 0.93259 0.37214 0.98796 0.0
C241 C 0.87888 0.46058 0.90916 0.0
C242 C 0.65323 0.7663 0.45093 0.0
C243 C 0.67058 0.73773 0.40887 0.0
H244 H 0.61275 0.76236 0.5228 0.0
C245 C 0.65535 0.68213 0.40565 0.0
H246 H 0.66366 0.80923 0.45435 0.0
C247 C 0.62591 0.65551 0.44485 0.0
C248 C 0.61061 0.68388 0.48764 0.0
H249 H 0.66882 0.65872 0.37437 0.0
H250 H 0.61806 0.61231 0.44328 0.0
C251 C 0.62398 0.73959 0.49007 0.0
C252 C 0.13231 0.42043 0.20968 0.0
C253 C 0.16507 0.39375 0.1774 0.0
H254 H 0.07528 0.47807 0.21543 0.0
C255 C 0.17269 0.41158 0.12702 0.0
H256 H 0.12543 0.40699 0.2485 0.0
C257 C 0.1443 0.45285 0.10803 0.0
C258 C 0.10737 0.47606 0.13909 0.0
H259 H 0.19734 0.39101 0.10128 0.0
H260 H 0.14735 0.46292 0.06795 0.0
C261 C 0.10366 0.46113 0.1907 0.0
C262 C 0.68113 0.2337 0.95512 0.0
C263 C 0.69688 0.21578 0.90708 0.0
H264 H 0.63215 0.21669 0.0209 0.0
C265 C 0.67782 0.16334 0.89089 0.0
H266 H 0.69404 0.27407 0.96854 0.0
C267 C 0.64198 0.13062 0.9211 0.0
C268 C 0.62514 0.14972 0.96801 0.0
H269 H 0.68958 0.14807 0.85441 0.0
H270 H 0.62587 0.09129 0.90701 0.0
C271 C 0.64562 0.20099 0.9852 0.0
C272 C 0.89039 0.86233 0.35932 0.0
C273 C 0.83794 0.86264 0.37854 0.0
H274 H 0.9743 0.89101 0.36746 0.0
C275 C 0.83049 0.89632 0.42059 0.0
H276 H 0.8981 0.83654 0.32755 0.0
C277 C 0.87466 0.92638 0.44451 0.0
C278 C 0.92713 0.92489 0.42611 0.0
H279 H 0.79062 0.89843 0.43606 0.0
H280 H 0.8679 0.94854 0.47882 0.0
C281 C 0.93431 0.89327 0.38264 0.0
C282 C 0.41035 0.69704 0.78562 0.0
C283 C 0.36911 0.72399 0.76349 0.0
H284 H 0.4744 0.64804 0.77363 0.0
C285 C 0.35716 0.71514 0.7109 0.0
H286 H 0.41979 0.70065 0.82607 0.0
C287 C 0.38729 0.68259 0.68118 0.0
C288 C 0.43076 0.65918 0.70308 0.0
H289 H 0.32619 0.73517 0.69192 0.0
H290 H 0.3788 0.67857 0.64054 0.0
C291 C 0.44122 0.66591 0.75571 0.0
C292 C 0.98785 0.92758 0.7729 0.0
C293 C 0.00862 0.96072 0.8138 0.0
H294 H 0.97641 0.92069 0.6914 0.0
C295 C 0.04438 0.00654 0.80342 0.0
H296 H 0.96005 0.89214 0.77991 0.0
C297 C 0.05332 0.02285 0.75322 0.0
C298 C 0.0275 0.99314 0.71249 0.0
H299 H 0.0614 0.03243 0.83427 0.0
H300 H 0.07653 0.06119 0.74642 0.0
C301 C 0.99728 0.94379 0.72233 0.0
C302 C 0.64926 0.15622 0.30477 0.0
C303 C 0.61394 0.1411 0.34462 0.0
H304 H 0.66353 0.15223 0.22467 0.0
C305 C 0.5605 0.11941 0.33251 0.0
H306 H 0.69041 0.17355 0.31303 0.0
C307 C 0.54484 0.10736 0.28148 0.0
C308 C 0.58252 0.11709 0.2423 0.0
H309 H 0.5325 0.10737 0.36265 0.0
H310 H 0.50551 0.08551 0.27343 0.0
C311 C 0.63366 0.14448 0.25418 0.0
C312 C 0.45791 0.63648 0.32485 0.0
C313 C 0.4944 0.60739 0.29932 0.0
H314 H 0.42319 0.6533 0.39689 0.0
C315 C 0.53073 0.5798 0.32729 0.0
H316 H 0.42913 0.65744 0.30353 0.0
C317 C 0.52759 0.57775 0.38047 0.0
C318 C 0.48836 0.60356 0.40601 0.0
H319 H 0.55849 0.55639 0.30793 0.0
H320 H 0.55213 0.55168 0.40102 0.0
C321 C 0.45469 0.63436 0.37803 0.0
C322 C 1.00208 0.46787 0.80059 0.0
C323 C 0.00665 0.49949 0.75665 0.0
H324 H 1.0015 0.46727 0.88248 0.0
C325 C 0.00792 0.55508 0.76086 0.0
H326 H 1.001 0.42469 0.7977 0.0
C327 C 0.00748 0.57931 0.80893 0.0
C328 C 0.00582 0.5482 0.85347 0.0
H329 H 0.01122 0.57992 0.72715 0.0
H330 H 0.01077 0.62265 0.81134 0.0
C331 C 1.00165 0.49212 0.84888 0.0
C332 C 0.78041 0.07667 0.99791 0.0
C333 C 0.80779 0.03113 0.99213 0.0
H334 H 0.7088 0.1078 0.02446 0.0
C335 C 0.78244 0.98077 1.00514 0.0
H336 H 0.79964 0.11591 0.98772 0.0
C337 C 0.73055 0.97599 0.02528 0.0
C338 C 0.70319 0.02158 0.03262 0.0
H339 H 0.80302 0.94521 1.00044 0.0
H340 H 0.71223 0.93659 0.036 0.0
C341 C 0.72832 0.07195 0.01818 0.0
C342 C 0.79709 0.08946 0.4381 0.0
C343 C 0.75078 0.08048 0.4686 0.0
H344 H 0.8829 0.08542 0.43322 0.0
C345 C 0.75414 0.05043 0.51341 0.0
H346 H 0.79601 0.11243 0.40335 0.0
C347 C 0.80375 0.03543 0.53043 0.0
C348 C 0.85094 0.04905 0.50255 0.0
H349 H 0.71903 0.04144 0.53711 0.0
H350 H 0.806 0.01662 0.56739 0.0
C351 C 0.84685 0.07371 0.45495 0.0
C352 C 0.29911 0.59974 0.04154 0.0
C353 C 0.30588 0.60209 0.09464 0.0
H354 H 0.24304 0.59269 0.97868 0.0
C355 C 0.26069 0.59162 0.12598 0.0
H356 H 0.33363 0.60793 0.01691 0.0
C357 C 0.20857 0.58359 0.10426 0.0
C358 C 0.20148 0.58578 0.05104 0.0
H359 H 0.26542 0.59389 0.16717 0.0
H360 H 0.17402 0.58028 0.12915 0.0
C361 C 0.24733 0.5912 0.01988 0.0
C362 C 0.26491 0.46212 0.67362 0.0
C363 C 0.22128 0.48487 0.65114 0.0
H364 H 0.35103 0.46288 0.67796 0.0
C365 C 0.23108 0.53463 0.62694 0.0
H366 H 0.25824 0.42379 0.69252 0.0
C367 C 0.28436 0.55704 0.61862 0.0
C368 C 0.32808 0.5301 0.63486 0.0
H369 H 0.19804 0.55278 0.60912 0.0
H370 H 0.29114 0.59131 0.59372 0.0
C371 C 0.318 0.48492 0.66588 0.0
C372 C 0.93055 0.80544 0.95867 0.0
C373 C 0.96113 0.85416 0.97162 0.0
H374 H 0.92225 0.71999 0.96675 0.0
C375 C 1.00138 0.85505 0.00989 0.0
H376 H 0.89947 0.80398 0.92905 0.0
C377 C 0.0147 0.80716 0.03109 0.0
C378 C 0.98719 0.75782 0.0151 0.0
H379 H 0.0256 0.89226 0.02018 0.0
H380 H 0.04972 0.80827 0.05643 0.0
C381 C 0.94306 0.75759 0.9808 0.0
C382 C 0.45048 0.79217 0.17947 0.0
C383 C 0.43491 0.76321 0.13467 0.0
H384 H 0.48244 0.86716 0.21247 0.0
C385 C 0.43587 0.79017 0.08776 0.0
H386 H 0.44913 0.77256 0.21621 0.0
C387 C 0.45529 0.84463 0.08546 0.0
C388 C 0.47335 0.87292 0.13012 0.0
H389 H 0.4241 0.76858 0.05263 0.0
H390 H 0.45891 0.86361 0.0486 0.0
C391 C 0.46927 0.84641 0.17724 0.0
C392 C 0.08039 0.30604 0.53399 0.0
C393 C 0.11937 0.32072 0.57252 0.0
H394 H 0.0323 0.24124 0.49575 0.0
C395 C 0.15014 0.28154 0.59208 0.0
H396 H 0.05673 0.3356 0.51763 0.0
C397 C 0.13669 0.22756 0.57873 0.0
C398 C 0.09262 0.21241 0.54564 0.0
H399 H 0.18043 0.29168 0.62182 0.0
H400 H 0.15623 0.19738 0.59909 0.0
C401 C 0.06696 0.25218 0.52082 0.0
C402 C 0.55697 0.3127 0.48802 0.0
C403 C 0.56672 0.28483 0.5326 0.0
H404 H 0.53048 0.38371 0.45602 0.0
C405 C 0.55774 0.30773 0.58038 0.0
H406 H 0.56385 0.29561 0.45087 0.0
C407 C 0.5387 0.35813 0.5835 0.0
C408 C 0.52902 0.38632 0.53884 0.0
H409 H 0.56524 0.28659 0.61524 0.0
H410 H 0.531 0.37477 0.62063 0.0
C411 C 0.53804 0.36297 0.4911 0.0
loop_
_geom_bond_atom_site_label_1
_geom_bond_atom_site_label_2
_geom_bond_distance
_geom_bond_site_symmetry_2
_ccdc_geom_bond_type
H0 C3 0.929 . S
H1 C6 0.929 . S
H2 C8 0.930 . S
C3 H0 0.929 . S
C3 C4 1.398 . S
C3 C5 1.396 . S
C4 C3 1.398 . S
C4 C8 1.407 . S
C5 C3 1.396 . S
C5 C6 1.394 . S
C6 H1 0.929 . S
C6 C5 1.394 . S
C6 C7 1.382 . S
C7 C6 1.382 . S
C7 C8 1.392 . S
C7 N9 1.420 . S
C8 H2 0.930 . S
C8 C4 1.407 . S
C8 C7 1.392 . S
N9 C7 1.420 . S
N9 C10 1.244 . S
C10 N9 1.244 . S
H11 C14 0.929 . S
H12 C17 0.929 . S
H13 C19 0.930 . S
C14 H11 0.929 . S
C14 C15 1.398 . S
C14 C16 1.396 . S
C15 C14 1.398 . S
C15 C19 1.407 . S
C16 C14 1.396 . S
C16 C17 1.394 . S
C17 H12 0.929 . S
C17 C16 1.394 . S
C17 C18 1.382 . S
C18 C17 1.382 . S
C18 C19 1.392 . S
C18 N20 1.420 . S
C19 H13 0.930 . S
C19 C15 1.407 . S
C19 C18 1.392 . S
N20 C18 1.420 . S
N20 C21 1.244 . S
C21 N20 1.244 . S
H22 C25 0.929 . S
H23 C28 0.929 . S
H24 C30 0.930 . S
C25 H22 0.929 . S
C25 C26 1.398 . S
C25 C27 1.396 . S
C26 C25 1.398 . S
C26 C30 1.407 . S
C27 C25 1.396 . S
C27 C28 1.394 . S
C28 H23 0.929 . S
C28 C27 1.394 . S
C28 C29 1.382 . S
C29 C28 1.382 . S
C29 C30 1.392 . S
C29 N31 1.420 . S
C30 H24 0.930 . S
C30 C26 1.407 . S
C30 C29 1.392 . S
N31 C29 1.420 . S
N31 C32 1.244 . S
C32 N31 1.244 . S
H33 C36 0.929 . S
H34 C39 0.929 . S
H35 C41 0.930 . S
C36 H33 0.929 . S
C36 C37 1.398 . S
C36 C38 1.396 . S
C37 C36 1.398 . S
C37 C41 1.407 . S
C38 C36 1.396 . S
C38 C39 1.394 . S
C39 H34 0.929 . S
C39 C38 1.394 . S
C39 C40 1.382 . S
C40 C39 1.382 . S
C40 C41 1.392 . S
C40 N42 1.420 . S
C41 H35 0.930 . S
C41 C37 1.407 . S
C41 C40 1.392 . S
N42 C40 1.420 . S
N42 C43 1.244 . S
C43 N42 1.244 . S
H44 C47 0.945 . S
H45 C50 0.929 1_554 S
H46 C52 0.930 . S
C47 H44 0.945 . S
C47 C48 1.389 1_455 S
C47 C49 1.389 1_455 S
C48 C47 1.389 1_655 S
C48 C52 1.407 1_565 S
C49 C47 1.389 1_655 S
C49 C50 1.394 . S
C50 H45 0.929 1_556 S
C50 C49 1.394 . S
C50 C51 1.382 . S
C51 C50 1.382 . S
C51 C52 1.392 1_565 S
C51 N53 1.420 1_565 S
C52 H46 0.930 . S
C52 C48 1.407 1_545 S
C52 C51 1.392 1_545 S
N53 C51 1.420 1_545 S
N53 C54 1.244 1_546 S
C54 N53 1.244 1_564 S
H55 C58 0.929 . S
H56 C61 0.929 . S
H57 C63 0.930 . S
C58 H55 0.929 . S
C58 C59 1.398 . S
C58 C60 1.396 . S
C59 C58 1.398 . S
C59 C63 1.407 . S
C60 C58 1.396 . S
C60 C61 1.394 . S
C61 H56 0.929 . S
C61 C60 1.394 . S
C61 C62 1.382 . S
C62 C61 1.382 . S
C62 C63 1.392 . S
C62 N64 1.420 . S
C63 H57 0.930 . S
C63 C59 1.407 . S
C63 C62 1.392 . S
N64 C62 1.420 . S
N64 C65 1.244 . S
C65 N64 1.244 . S
H66 C69 0.929 . S
H67 C72 0.929 . S
H68 C74 0.930 . S
C69 H66 0.929 . S
C69 C70 1.398 . S
C69 C71 1.396 . S
C70 C69 1.398 . S
C70 C74 1.407 . S
C71 C69 1.396 . S
C71 C72 1.394 . S
C72 H67 0.929 . S
C72 C71 1.394 . S
C72 C73 1.382 . S
C73 C72 1.382 . S
C73 C74 1.392 . S
C73 N75 1.420 . S
C74 H68 0.930 . S
C74 C70 1.407 . S
C74 C73 1.392 . S
N75 C73 1.420 . S
N75 C76 1.244 . S
C76 N75 1.244 . S
H77 C80 0.929 . S
H78 C83 0.929 . S
H79 C85 0.930 . S
C80 H77 0.929 . S
C80 C81 1.398 . S
C80 C82 1.396 . S
C81 C80 1.398 . S
C81 C85 1.407 . S
C82 C80 1.396 . S
C82 C83 1.394 . S
C83 H78 0.929 . S
C83 C82 1.394 . S
C83 C84 1.382 . S
C84 C83 1.382 . S
C84 C85 1.392 . S
C84 N86 1.420 . S
C85 H79 0.930 . S
C85 C81 1.407 . S
C85 C84 1.392 . S
N86 C84 1.420 . S
N86 C87 1.244 . S
C87 N86 1.244 . S
Zn88 O94 1.920 . S
Zn88 O100 1.898 . S
Zn88 O103 1.905 . S
Zn89 O97 1.905 1_565 S
Zn89 O98 1.898 . S
Zn89 O106 1.920 . S
Zn90 O93 2.080 1_455 S
Zn90 O96 2.114 . S
Zn90 O99 2.120 1_445 S
Zn90 O101 2.120 . S
Zn90 O102 2.114 1_455 S
Zn90 O105 2.080 . S
C91 O96 1.166 . S
C91 O97 1.182 . S
C92 O98 1.167 1_655 S
C92 O99 1.299 . S
O93 Zn90 2.080 1_655 S
O93 C107 1.305 . S
O94 Zn88 1.920 . S
O94 C107 1.234 . S
C95 O100 1.167 1_455 S
C95 O101 1.299 . S
O96 Zn90 2.114 . S
O96 C91 1.166 . S
O97 Zn89 1.905 1_545 S
O97 C91 1.182 . S
O98 Zn89 1.898 . S
O98 C92 1.167 1_455 S
O99 Zn90 2.120 1_665 S
O99 C92 1.299 . S
O100 Zn88 1.898 . S
O100 C95 1.167 1_655 S
O101 Zn90 2.120 . S
O101 C95 1.299 . S
O102 Zn90 2.114 1_655 S
O102 C104 1.166 . S
O103 Zn88 1.905 . S
O103 C104 1.182 . S
C104 O102 1.166 . S
C104 O103 1.182 . S
O105 Zn90 2.080 . S
O105 C108 1.305 1_545 S
O106 Zn89 1.920 . S
O106 C108 1.234 . S
C107 O93 1.305 . S
C107 O94 1.234 . S
C108 O105 1.305 1_565 S
C108 O106 1.234 . S
Zn109 O115 1.920 1_556 S
Zn109 O121 1.898 . S
Zn109 O124 1.905 . S
Zn110 O118 1.905 . S
Zn110 O119 1.898 . S
Zn110 O127 1.920 . S
Zn111 O114 2.080 . S
Zn111 O117 2.114 1_545 S
Zn111 O120 2.120 1_545 S
Zn111 O122 2.120 . S
Zn111 O123 2.114 1_544 S
Zn111 O126 2.080 . S
C112 O117 1.166 . S
C112 O118 1.182 . S
C113 O119 1.167 . S
C113 O120 1.299 . S
O114 Zn111 2.080 . S
O114 C128 1.305 . S
O115 Zn109 1.920 1_554 S
O115 C128 1.234 . S
C116 O121 1.167 1_554 S
C116 O122 1.299 . S
O117 Zn111 2.114 1_565 S
O117 C112 1.166 . S
O118 Zn110 1.905 . S
O118 C112 1.182 . S
O119 Zn110 1.898 . S
O119 C113 1.167 . S
O120 Zn111 2.120 1_565 S
O120 C113 1.299 . S
O121 Zn109 1.898 . S
O121 C116 1.167 1_556 S
O122 Zn111 2.120 . S
O122 C116 1.299 . S
O123 Zn111 2.114 1_566 S
O123 C125 1.166 . S
O124 Zn109 1.905 . S
O124 C125 1.182 1_545 S
C125 O123 1.166 . S
C125 O124 1.182 1_565 S
O126 Zn111 2.080 . S
O126 C129 1.305 . S
O127 Zn110 1.920 . S
O127 C129 1.234 1_565 S
C128 O114 1.305 . S
C128 O115 1.234 . S
C129 O126 1.305 . S
C129 O127 1.234 1_545 S
Zn130 O136 1.920 . S
Zn130 O142 1.898 . S
Zn130 O145 1.905 . S
Zn131 O139 1.905 . S
Zn131 O140 1.898 . S
Zn131 O148 1.920 . S
Zn132 O135 2.080 . S
Zn132 O138 2.114 . S
Zn132 O141 2.120 . S
Zn132 O143 2.120 . S
Zn132 O144 2.114 . S
Zn132 O147 2.080 . S
C133 O138 1.166 . S
C133 O139 1.182 . S
C134 O140 1.167 . S
C134 O141 1.299 . S
O135 Zn132 2.080 . S
O135 C149 1.305 . S
O136 Zn130 1.920 . S
O136 C149 1.234 . S
C137 O142 1.167 . S
C137 O143 1.299 . S
O138 Zn132 2.114 . S
O138 C133 1.166 . S
O139 Zn131 1.905 . S
O139 C133 1.182 . S
O140 Zn131 1.898 . S
O140 C134 1.167 . S
O141 Zn132 2.120 . S
O141 C134 1.299 . S
O142 Zn130 1.898 . S
O142 C137 1.167 . S
O143 Zn132 2.120 . S
O143 C137 1.299 . S
O144 Zn132 2.114 . S
O144 C146 1.166 . S
O145 Zn130 1.905 . S
O145 C146 1.182 . S
C146 O144 1.166 . S
C146 O145 1.182 . S
O147 Zn132 2.080 . S
O147 C150 1.305 . S
O148 Zn131 1.920 . S
O148 C150 1.234 . S
C149 O135 1.305 . S
C149 O136 1.234 . S
C150 O147 1.305 . S
C150 O148 1.234 . S
Zn151 O157 1.920 . S
Zn151 O163 1.898 . S
Zn151 O166 1.905 . S
Zn152 O160 1.905 1_655 S
Zn152 O161 1.898 . S
Zn152 O169 1.920 . S
Zn153 O156 2.080 1_554 S
Zn153 O159 2.114 . S
Zn153 O162 2.120 1_454 S
Zn153 O164 2.120 . S
Zn153 O165 2.114 1_554 S
Zn153 O168 2.080 . S
C154 O159 1.166 . S
C154 O160 1.182 . S
C155 O161 1.167 1_556 S
C155 O162 1.299 . S
O156 Zn153 2.080 1_556 S
O156 C170 1.305 . S
O157 Zn151 1.920 . S
O157 C170 1.234 . S
C158 O163 1.167 1_554 S
C158 O164 1.299 . S
O159 Zn153 2.114 . S
O159 C154 1.166 . S
O160 Zn152 1.905 1_455 S
O160 C154 1.182 . S
O161 Zn152 1.898 . S
O161 C155 1.167 1_554 S
O162 Zn153 2.120 1_656 S
O162 C155 1.299 . S
O163 Zn151 1.898 . S
O163 C158 1.167 1_556 S
O164 Zn153 2.120 . S
O164 C158 1.299 . S
O165 Zn153 2.114 1_556 S
O165 C167 1.166 . S
O166 Zn151 1.905 . S
O166 C167 1.182 . S
C167 O165 1.166 . S
C167 O166 1.182 . S
O168 Zn153 2.080 . S
O168 C171 1.305 1_455 S
O169 Zn152 1.920 . S
O169 C171 1.234 . S
C170 O156 1.305 . S
C170 O157 1.234 . S
C171 O168 1.305 1_655 S
C171 O169 1.234 . S
C172 C173 1.387 . S
C172 H176 0.950 . S
C172 C181 1.390 . S
C173 C172 1.387 . S
C173 C175 1.387 . S
H174 C181 0.950 . S
C175 C173 1.387 . S
C175 C177 1.390 . S
C175 H179 0.950 . S
H176 C172 0.950 . S
C177 C175 1.390 . S
C177 C178 1.387 . S
C177 H180 0.950 . S
C178 C177 1.387 . S
C178 C181 1.387 . S
H179 C175 0.950 . S
H180 C177 0.950 . S
C181 C172 1.390 . S
C181 H174 0.950 . S
C181 C178 1.387 . S
C182 C183 1.387 . S
C182 H186 0.950 . S
C182 C191 1.390 . S
C183 C182 1.387 . S
C183 C185 1.387 . S
H184 C191 0.950 1_545 S
C185 C183 1.387 . S
C185 C187 1.390 . S
C185 H189 0.950 . S
H186 C182 0.950 . S
C187 C185 1.390 . S
C187 C188 1.387 . S
C187 H190 0.950 . S
C188 C187 1.387 . S
C188 C191 1.387 . S
H189 C185 0.950 . S
H190 C187 0.950 . S
C191 C182 1.390 . S
C191 H184 0.950 1_565 S
C191 C188 1.387 . S
C192 C193 1.387 . S
C192 H196 0.950 . S
C192 C201 1.390 . S
C193 C192 1.387 . S
C193 C195 1.387 . S
H194 C201 0.950 . S
C195 C193 1.387 . S
C195 C197 1.390 . S
C195 H199 0.950 . S
H196 C192 0.950 . S
C197 C195 1.390 . S
C197 C198 1.387 . S
C197 H200 0.950 . S
C198 C197 1.387 . S
C198 C201 1.387 . S
H199 C195 0.950 . S
H200 C197 0.950 . S
C201 C192 1.390 . S
C201 H194 0.950 . S
C201 C198 1.387 . S
C202 C203 1.387 . S
C202 H206 0.950 . S
C202 C211 1.390 . S
C203 C202 1.387 . S
C203 C205 1.387 . S
H204 C211 0.950 . S
C205 C203 1.387 . S
C205 C207 1.390 . S
C205 H209 0.950 . S
H206 C202 0.950 . S
C207 C205 1.390 . S
C207 C208 1.387 . S
C207 H210 0.950 . S
C208 C207 1.387 . S
C208 C211 1.387 . S
H209 C205 0.950 . S
H210 C207 0.950 . S
C211 C202 1.390 . S
C211 H204 0.950 . S
C211 C208 1.387 . S
C212 C213 1.387 . S
C212 H216 0.950 . S
C212 C221 1.390 . S
C213 C212 1.387 . S
C213 C215 1.387 . S
H214 C221 0.950 . S
C215 C213 1.387 . S
C215 C217 1.390 . S
C215 H219 0.950 . S
H216 C212 0.950 . S
C217 C215 1.390 . S
C217 C218 1.387 . S
C217 H220 0.950 . S
C218 C217 1.387 . S
C218 C221 1.387 . S
H219 C215 0.950 . S
H220 C217 0.950 . S
C221 C212 1.390 . S
C221 H214 0.950 . S
C221 C218 1.387 . S
C222 C223 1.387 . S
C222 H226 0.950 . S
C222 C231 1.390 . S
C223 C222 1.387 . S
C223 C225 1.387 . S
H224 C231 0.950 . S
C225 C223 1.387 . S
C225 C227 1.390 1_565 S
C225 H229 0.950 1_565 S
H226 C222 0.950 . S
C227 C225 1.390 1_545 S
C227 C228 1.387 1_545 S
C227 H230 0.950 . S
C228 C227 1.387 1_565 S
C228 C231 1.387 . S
H229 C225 0.950 1_545 S
H230 C227 0.950 . S
C231 C222 1.390 . S
C231 H224 0.950 . S
C231 C228 1.387 . S
C232 C233 1.387 . S
C232 H236 0.950 . S
C232 C241 1.390 . S
C233 C232 1.387 . S
C233 C235 1.387 . S
H234 C241 0.950 . S
C235 C233 1.387 . S
C235 C237 1.390 . S
C235 H239 0.950 . S
H236 C232 0.950 . S
C237 C235 1.390 . S
C237 C238 1.387 . S
C237 H240 0.950 1_556 S
C238 C237 1.387 . S
C238 C241 1.387 . S
H239 C235 0.950 . S
H240 C237 0.950 1_554 S
C241 C232 1.390 . S
C241 H234 0.950 . S
C241 C238 1.387 . S
C242 C243 1.387 . S
C242 H246 0.950 . S
C242 C251 1.390 . S
C243 C242 1.387 . S
C243 C245 1.387 . S
H244 C251 0.950 . S
C245 C243 1.387 . S
C245 C247 1.390 . S
C245 H249 0.950 . S
H246 C242 0.950 . S
C247 C245 1.390 . S
C247 C248 1.387 . S
C247 H250 0.950 . S
C248 C247 1.387 . S
C248 C251 1.387 . S
H249 C245 0.950 . S
H250 C247 0.950 . S
C251 C242 1.390 . S
C251 H244 0.950 . S
C251 C248 1.387 . S
C252 C253 1.387 . S
C252 H256 0.950 . S
C252 C261 1.390 . S
C253 C252 1.387 . S
C253 C255 1.387 . S
H254 C261 0.950 . S
C255 C253 1.387 . S
C255 C257 1.390 . S
C255 H259 0.950 . S
H256 C252 0.950 . S
C257 C255 1.390 . S
C257 C258 1.387 . S
C257 H260 0.950 . S
C258 C257 1.387 . S
C258 C261 1.387 . S
H259 C255 0.950 . S
H260 C257 0.950 . S
C261 C252 1.390 . S
C261 H254 0.950 . S
C261 C258 1.387 . S
C262 C263 1.387 1_554 S
C262 H266 0.950 . S
C262 C271 1.390 . S
C263 C262 1.387 1_556 S
C263 C265 1.387 . S
H264 C271 0.950 . S
C265 C263 1.387 . S
C265 C267 1.390 . S
C265 H269 0.950 . S
H266 C262 0.950 . S
C267 C265 1.390 . S
C267 C268 1.387 . S
C267 H270 0.950 . S
C268 C267 1.387 . S
C268 C271 1.387 1_556 S
H269 C265 0.950 . S
H270 C267 0.950 . S
C271 C262 1.390 . S
C271 H264 0.950 . S
C271 C268 1.387 1_554 S
C272 C273 1.387 . S
C272 H276 0.950 . S
C272 C281 1.390 . S
C273 C272 1.387 . S
C273 C275 1.387 . S
H274 C281 0.950 . S
C275 C273 1.387 . S
C275 C277 1.390 . S
C275 H279 0.950 . S
H276 C272 0.950 . S
C277 C275 1.390 . S
C277 C278 1.387 . S
C277 H280 0.950 . S
C278 C277 1.387 . S
C278 C281 1.387 . S
H279 C275 0.950 . S
H280 C277 0.950 . S
C281 C272 1.390 . S
C281 H274 0.950 . S
C281 C278 1.387 . S
C282 C283 1.387 . S
C282 H286 0.950 . S
C282 C291 1.390 . S
C283 C282 1.387 . S
C283 C285 1.387 . S
H284 C291 0.950 . S
C285 C283 1.387 . S
C285 C287 1.390 . S
C285 H289 0.950 . S
H286 C282 0.950 . S
C287 C285 1.390 . S
C287 C288 1.387 . S
C287 H290 0.950 . S
C288 C287 1.387 . S
C288 C291 1.387 . S
H289 C285 0.950 . S
H290 C287 0.950 . S
C291 C282 1.390 . S
C291 H284 0.950 . S
C291 C288 1.387 . S
C292 C293 1.387 . S
C292 H296 0.950 . S
C292 C301 1.390 . S
C293 C292 1.387 . S
C293 C295 1.387 1_665 S
H294 C301 0.950 . S
C295 C293 1.387 1_445 S
C295 C297 1.390 . S
C295 H299 0.950 . S
H296 C292 0.950 . S
C297 C295 1.390 . S
C297 C298 1.387 1_455 S
C297 H300 0.950 . S
C298 C297 1.387 1_655 S
C298 C301 1.387 1_545 S
H299 C295 0.950 . S
H300 C297 0.950 . S
C301 C292 1.390 . S
C301 H294 0.950 . S
C301 C298 1.387 1_565 S
C302 C303 1.387 . S
C302 H306 0.950 . S
C302 C311 1.390 . S
C303 C302 1.387 . S
C303 C305 1.387 . S
H304 C311 0.950 . S
C305 C303 1.387 . S
C305 C307 1.390 . S
C305 H309 0.950 1_545 S
H306 C302 0.950 . S
C307 C305 1.390 . S
C307 C308 1.387 . S
C307 H310 0.950 1_545 S
C308 C307 1.387 . S
C308 C311 1.387 . S
H309 C305 0.950 1_565 S
H310 C307 0.950 1_565 S
C311 C302 1.390 . S
C311 H304 0.950 . S
C311 C308 1.387 . S
C312 C313 1.387 . S
C312 H316 0.950 . S
C312 C321 1.390 . S
C313 C312 1.387 . S
C313 C315 1.387 . S
H314 C321 0.950 . S
C315 C313 1.387 . S
C315 C317 1.390 . S
C315 H319 0.950 . S
H316 C312 0.950 . S
C317 C315 1.390 . S
C317 C318 1.387 . S
C317 H320 0.950 . S
C318 C317 1.387 . S
C318 C321 1.387 . S
H319 C315 0.950 . S
H320 C317 0.950 . S
C321 C312 1.390 . S
C321 H314 0.950 . S
C321 C318 1.387 . S
C322 C323 1.387 . S
C322 H326 0.950 1_455 S
C322 C331 1.390 . S
C323 C322 1.387 . S
C323 C325 1.387 . S
H324 C331 0.950 1_655 S
C325 C323 1.387 . S
C325 C327 1.390 . S
C325 H329 0.950 . S
H326 C322 0.950 1_655 S
C327 C325 1.390 . S
C327 C328 1.387 . S
C327 H330 0.950 . S
C328 C327 1.387 . S
C328 C331 1.387 . S
H329 C325 0.950 . S
H330 C327 0.950 . S
C331 C322 1.390 . S
C331 H324 0.950 1_455 S
C331 C328 1.387 . S
C332 C333 1.387 . S
C332 H336 0.950 . S
C332 C341 1.390 . S
C333 C332 1.387 . S
C333 C335 1.387 1_545 S
H334 C341 0.950 . S
C335 C333 1.387 1_565 S
C335 C337 1.390 . S
C335 H339 0.950 . S
H336 C332 0.950 . S
C337 C335 1.390 . S
C337 C338 1.387 1_565 S
C337 H340 0.950 . S
C338 C337 1.387 1_545 S
C338 C341 1.387 . S
H339 C335 0.950 . S
H340 C337 0.950 . S
C341 C332 1.390 . S
C341 H334 0.950 . S
C341 C338 1.387 . S
C342 C343 1.387 . S
C342 H346 0.950 . S
C342 C351 1.390 . S
C343 C342 1.387 . S
C343 C345 1.387 . S
H344 C351 0.950 . S
C345 C343 1.387 . S
C345 C347 1.390 . S
C345 H349 0.950 . S
H346 C342 0.950 . S
C347 C345 1.390 . S
C347 C348 1.387 . S
C347 H350 0.951 1_545 S
C348 C347 1.387 . S
C348 C351 1.387 . S
H349 C345 0.950 . S
H350 C347 0.951 1_565 S
C351 C342 1.390 . S
C351 H344 0.950 . S
C351 C348 1.387 . S
C352 C353 1.387 . S
C352 H356 0.950 . S
C352 C361 1.390 . S
C353 C352 1.387 . S
C353 C355 1.387 . S
H354 C361 0.950 . S
C355 C353 1.387 . S
C355 C357 1.390 . S
C355 H359 0.950 . S
H356 C352 0.950 . S
C357 C355 1.390 . S
C357 C358 1.387 . S
C357 H360 0.950 . S
C358 C357 1.387 . S
C358 C361 1.387 . S
H359 C355 0.950 . S
H360 C357 0.950 . S
C361 C352 1.390 . S
C361 H354 0.950 . S
C361 C358 1.387 . S
C362 C363 1.387 . S
C362 H366 0.950 . S
C362 C371 1.390 . S
C363 C362 1.387 . S
C363 C365 1.387 . S
H364 C371 0.950 . S
C365 C363 1.387 . S
C365 C367 1.390 . S
C365 H369 0.950 . S
H366 C362 0.950 . S
C367 C365 1.390 . S
C367 C368 1.387 . S
C367 H370 0.950 . S
C368 C367 1.387 . S
C368 C371 1.387 . S
H369 C365 0.950 . S
H370 C367 0.950 . S
C371 C362 1.390 . S
C371 H364 0.950 . S
C371 C368 1.387 . S
C372 C373 1.387 . S
C372 H376 0.950 . S
C372 C381 1.390 . S
C373 C372 1.387 . S
C373 C375 1.387 1_656 S
H374 C381 0.950 . S
C375 C373 1.387 1_454 S
C375 C377 1.390 . S
C375 H379 0.950 . S
H376 C372 0.950 . S
C377 C375 1.390 . S
C377 C378 1.387 1_554 S
C377 H380 0.950 . S
C378 C377 1.387 1_556 S
C378 C381 1.387 1_455 S
H379 C375 0.950 . S
H380 C377 0.950 . S
C381 C372 1.390 . S
C381 H374 0.950 . S
C381 C378 1.387 1_655 S
C382 C383 1.387 . S
C382 H386 0.950 . S
C382 C391 1.390 . S
C383 C382 1.387 . S
C383 C385 1.387 . S
H384 C391 0.950 . S
C385 C383 1.387 . S
C385 C387 1.390 . S
C385 H389 0.950 . S
H386 C382 0.950 . S
C387 C385 1.390 . S
C387 C388 1.387 . S
C387 H390 0.950 . S
C388 C387 1.387 . S
C388 C391 1.387 . S
H389 C385 0.950 . S
H390 C387 0.950 . S
C391 C382 1.390 . S
C391 H384 0.950 . S
C391 C388 1.387 . S
C392 C393 1.387 . S
C392 H396 0.950 . S
C392 C401 1.390 . S
C393 C392 1.387 . S
C393 C395 1.387 . S
H394 C401 0.950 . S
C395 C393 1.387 . S
C395 C397 1.390 . S
C395 H399 0.950 . S
H396 C392 0.950 . S
C397 C395 1.390 . S
C397 C398 1.387 . S
C397 H400 0.950 . S
C398 C397 1.387 . S
C398 C401 1.387 . S
H399 C395 0.950 . S
H400 C397 0.950 . S
C401 C392 1.390 . S
C401 H394 0.950 . S
C401 C398 1.387 . S
C402 C403 1.387 . S
C402 H406 0.950 . S
C402 C411 1.390 . S
C403 C402 1.387 . S
C403 C405 1.387 . S
H404 C411 0.950 . S
C405 C403 1.387 . S
C405 C407 1.390 . S
C405 H409 0.950 . S
H406 C402 0.950 . S
C407 C405 1.390 . S
C407 C408 1.387 . S
C407 H410 0.950 . S
C408 C407 1.387 . S
C408 C411 1.387 . S
H409 C405 0.950 . S
H410 C407 0.950 . S
C411 C402 1.390 . S
C411 H404 0.950 . S
C411 C408 1.387 . S
C173 C4 1.690 . S
C178 C91 1.556 . S
C183 C16 1.785 . S
C188 C125 1.658 . S
C198 C137 1.170 . S
C193 C32 1.218 . S
C203 C43 1.397 . S
C208 C171 1.284 . S
C218 C128 1.747 . S
C213 C5 1.883 . S
C228 C108 1.322 . S
C223 C21 1.375 . S
C238 C155 1.291 . S
C233 C27 1.447 . S
C248 C146 1.409 . S
C243 C37 1.464 . S
C253 C10 1.570 . S
C258 C154 1.488 . S
C268 C116 1.502 1_556 S
C263 C26 1.603 . S
C273 C38 1.337 . S
C278 C92 1.246 . S
C283 C15 1.654 . S
C288 C149 1.550 . S
C298 C107 1.766 . S
C293 C48 1.846 . S
C303 C59 1.653 . S
C308 C129 1.539 . S
C313 C76 1.508 . S
C318 C134 1.416 . S
C323 C87 1.386 . S
C328 C167 1.364 . S
C333 C54 1.483 1_545 S
C338 C112 1.434 1_545 S
C348 C104 1.751 . S
C343 C60 1.865 . S
C358 C158 1.479 . S
C353 C71 1.495 . S
C368 C150 1.382 . S
C363 C82 1.505 . S
C373 C49 1.788 . S
C378 C170 1.680 . S
C388 C113 1.328 . S
C383 C70 1.405 . S
C398 C95 1.542 . S
C393 C81 1.644 . S
C403 C65 1.578 . S
C408 C133 1.509 . S
