# Generated by pormake.
# Topology pyr, (3,6)-cn, num edge types: 1
# Building blocks:
#     Node 0, Type 0, BuildingBlock: ESEHIV_clean_linker_0, # of connection points: 3
#     Node 1, Type 0, BuildingBlock: ESEHIV_clean_linker_0, # of connection points: 3
#     Node 2, Type 0, BuildingBlock: ESEHIV_clean_linker_0, # of connection points: 3
#     Node 3, Type 0, BuildingBlock: ESEHIV_clean_linker_0, # of connection points: 3
#     Node 4, Type 0, BuildingBlock: ESEHIV_clean_linker_0, # of connection points: 3
#     Node 5, Type 0, BuildingBlock: ESEHIV_clean_linker_0, # of connection points: 3
#     Node 6, Type 0, BuildingBlock: ESEHIV_clean_linker_0, # of connection points: 3
#     Node 7, Type 0, BuildingBlock: ESEHIV_clean_linker_0, # of connection points: 3
#     Node 8, Type 1, BuildingBlock: PAMTUU_clean_sbu_0, # of connection points: 6
#     Node 9, Type 1, BuildingBlock: PAMTUU_clean_sbu_0, # of connection points: 6
#     Node 10, Type 1, BuildingBlock: PAMTUU_clean_sbu_0, # of connection points: 6
#     Node 11, Type 1, BuildingBlock: PAMTUU_clean_sbu_0, # of connection points: 6
#     Edge 12, Type (0, 1), BuildingBlock: MIFKUJ_clean_linker_0, # of connection points: 2
#     Edge 13, Type (0, 1), BuildingBlock: MIFKUJ_clean_linker_0, # of connection points: 2
#     Edge 14, Type (0, 1), BuildingBlock: MIFKUJ_clean_linker_0, # of connection points: 2
#     Edge 15, Type (0, 1), BuildingBlock: MIFKUJ_clean_linker_0, # of connection points: 2
#     Edge 16, Type (0, 1), BuildingBlock: MIFKUJ_clean_linker_0, # of connection points: 2
#     Edge 17, Type (0, 1), BuildingBlock: MIFKUJ_clean_linker_0, # of connection points: 2
#     Edge 18, Type (0, 1), BuildingBlock: MIFKUJ_clean_linker_0, # of connection points: 2
#     Edge 19, Type (0, 1), BuildingBlock: MIFKUJ_clean_linker_0, # of connection points: 2
#     Edge 20, Type (0, 1), BuildingBlock: MIFKUJ_clean_linker_0, # of connection points: 2
#     Edge 21, Type (0, 1), BuildingBlock: MIFKUJ_clean_linker_0, # of connection points: 2
#     Edge 22, Type (0, 1), BuildingBlock: MIFKUJ_clean_linker_0, # of connection points: 2
#     Edge 23, Type (0, 1), BuildingBlock: MIFKUJ_clean_linker_0, # of connection points: 2
#     Edge 24, Type (0, 1), BuildingBlock: MIFKUJ_clean_linker_0, # of connection points: 2
#     Edge 25, Type (0, 1), BuildingBlock: MIFKUJ_clean_linker_0, # of connection points: 2
#     Edge 26, Type (0, 1), BuildingBlock: MIFKUJ_clean_linker_0, # of connection points: 2
#     Edge 27, Type (0, 1), BuildingBlock: MIFKUJ_clean_linker_0, # of connection points: 2
#     Edge 28, Type (0, 1), BuildingBlock: MIFKUJ_clean_linker_0, # of connection points: 2
#     Edge 29, Type (0, 1), BuildingBlock: MIFKUJ_clean_linker_0, # of connection points: 2
#     Edge 30, Type (0, 1), BuildingBlock: MIFKUJ_clean_linker_0, # of connection points: 2
#     Edge 31, Type (0, 1), BuildingBlock: MIFKUJ_clean_linker_0, # of connection points: 2
#     Edge 32, Type (0, 1), BuildingBlock: MIFKUJ_clean_linker_0, # of connection points: 2
#     Edge 33, Type (0, 1), BuildingBlock: MIFKUJ_clean_linker_0, # of connection points: 2
#     Edge 34, Type (0, 1), BuildingBlock: MIFKUJ_clean_linker_0, # of connection points: 2
#     Edge 35, Type (0, 1), BuildingBlock: MIFKUJ_clean_linker_0, # of connection points: 2
# Relax obj value: 0.084
# Max RMSD: 0.123
# Mean RMSD: 0.050
data_MOF--net-pyr--node1-PAMTUU_clean_sbu_0--node2-ESEHIV_clean_linker_0--edge1-MIFKUJ_clean_linker_0
_symmetry_space_group_name_H-M    P1
_symmetry_Int_Tables_number       1
_symmetry_cell_setting            triclinic
loop_
_symmetry_equiv_pos_as_xyz
'x, y, z'
_cell_length_a     47.287086
_cell_length_b     48.474883
_cell_length_c     47.300731
_cell_angle_alpha  90.141316
_cell_angle_beta   89.123206
_cell_angle_gamma 99.721483
loop_
_atom_site_label
_atom_site_type_symbol
_atom_site_fract_x
_atom_site_fract_y
_atom_site_fract_z
_atom_type_partial_charge
H0 H 0.28221 0.27838 0.21964 0.0
H1 H 0.34874 0.22897 0.22863 0.0
H2 H 0.33265 0.2624 0.1472 0.0
C3 C 0.30027 0.26997 0.2108 0.0
C4 C 0.307 0.2737 0.18193 0.0
C5 C 0.31487 0.25341 0.22764 0.0
C6 C 0.33739 0.2417 0.21557 0.0
C7 C 0.34376 0.24428 0.18645 0.0
C8 C 0.32891 0.26104 0.16985 0.0
H9 H 0.16226 0.81372 0.74098 0.0
H10 H 0.23209 0.76788 0.74749 0.0
H11 H 0.18524 0.76595 0.67011 0.0
C12 C 0.17488 0.79902 0.73208 0.0
C13 C 0.17044 0.78999 0.70403 0.0
C14 C 0.19722 0.79135 0.74786 0.0
C15 C 0.21427 0.77325 0.73575 0.0
C16 C 0.21003 0.76385 0.70776 0.0
C17 C 0.18786 0.77209 0.6921 0.0
H18 H 0.6967 0.34434 0.87997 0.0
H19 H 0.69807 0.41232 0.82162 0.0
H20 H 0.62972 0.34099 0.81872 0.0
C21 C 0.6866 0.35403 0.86318 0.0
C22 C 0.66087 0.33942 0.85163 0.0
C23 C 0.70022 0.3805 0.85312 0.0
C24 C 0.68812 0.39196 0.82943 0.0
C25 C 0.66269 0.37798 0.81636 0.0
C26 C 0.64925 0.35179 0.82807 0.0
H27 H 0.83926 0.70592 0.3844 0.0
H28 H 0.90348 0.71254 0.31811 0.0
H29 H 0.83528 0.64108 0.32177 0.0
C30 C 0.84768 0.69784 0.36526 0.0
C31 C 0.83371 0.67198 0.3545 0.0
C32 C 0.87269 0.71307 0.35242 0.0
C33 C 0.88429 0.70126 0.32822 0.0
C34 C 0.8713 0.67495 0.31698 0.0
C35 C 0.84599 0.66069 0.33051 0.0
H36 H 0.68086 0.79633 0.81101 0.0
H37 H 0.73101 0.73056 0.81491 0.0
H38 H 0.67003 0.73934 0.88133 0.0
C39 C 0.68544 0.7775 0.82099 0.0
C40 C 0.67201 0.76882 0.84693 0.0
C41 C 0.70675 0.76382 0.80927 0.0
C42 C 0.71399 0.74066 0.82346 0.0
C43 C 0.70117 0.73185 0.84965 0.0
C44 C 0.67984 0.7458 0.86102 0.0
H45 H 0.79561 0.28825 0.30841 0.0
H46 H 0.8561 0.23142 0.31028 0.0
H47 H 0.8429 0.28022 0.3839 0.0
C48 C 0.81192 0.27934 0.31937 0.0
C49 C 0.8176 0.2866 0.34768 0.0
C50 C 0.82513 0.259 0.30582 0.0
C51 C 0.84655 0.24798 0.32005 0.0
C52 C 0.85348 0.25592 0.34806 0.0
C53 C 0.83885 0.27524 0.36181 0.0
H54 H 0.34164 0.69975 0.16058 0.0
H55 H 0.33444 0.63866 0.22707 0.0
H56 H 0.40477 0.70827 0.2264 0.0
C57 C 0.3498 0.69245 0.17994 0.0
C58 C 0.37479 0.70804 0.192 0.0
C59 C 0.33482 0.66756 0.19225 0.0
C60 C 0.34558 0.65783 0.21756 0.0
C61 C 0.37135 0.67184 0.22993 0.0
C62 C 0.38564 0.69694 0.21676 0.0
H63 H 0.12358 0.3393 0.72554 0.0
H64 H 0.19126 0.34059 0.66325 0.0
H65 H 0.1945 0.40807 0.7227 0.0
C66 C 0.14363 0.34936 0.71603 0.0
C67 C 0.15802 0.37485 0.72789 0.0
C68 C 0.155 0.33682 0.69212 0.0
C69 C 0.18136 0.3505 0.68039 0.0
C70 C 0.19577 0.37639 0.69071 0.0
C71 C 0.18393 0.38809 0.71469 0.0
Tb72 Tb 0.04007 0.02639 0.50815 0.0
Tb73 Tb 0.98141 0.01921 0.54672 0.0
C74 C 0.98986 0.97465 0.49867 0.0
C75 C 0.10494 0.05472 0.46494 0.0
C76 C 0.14051 0.09724 0.43464 0.0
C77 C 0.14958 0.07161 0.44006 0.0
C78 C 0.13191 0.05053 0.45506 0.0
C79 C 0.09591 0.08042 0.46021 0.0
C80 C 0.11361 0.10158 0.44513 0.0
C81 C 0.08672 0.03216 0.48038 0.0
O82 O 1.01003 0.04457 0.48273 0.0
O83 O 0.97822 0.05289 0.51772 0.0
O84 O 0.01187 0.05325 0.56631 0.0
O85 O 0.041 0.06743 0.5281 0.0
O86 O 0.93661 1.01587 0.54986 0.0
O87 O 0.96248 1.01659 0.58719 0.0
O88 O 1.003 0.98534 0.55942 0.0
O89 O 0.04835 1.00675 0.54766 0.0
O90 O 0.01774 0.98396 0.49851 0.0
O91 O 0.97193 0.98803 0.51268 0.0
C92 C 0.98851 0.05629 0.49182 0.0
O93 O 0.08501 0.03564 0.50761 0.0
O94 O 0.06172 0.02295 0.46956 0.0
C95 C 0.03124 0.07219 0.55357 0.0
C96 C 0.91693 0.98862 0.58857 0.0
C97 C 0.88025 0.94281 0.61287 0.0
C98 C 0.87334 0.96989 0.61448 0.0
C99 C 0.89159 0.99262 0.60243 0.0
C100 C 0.92365 0.96159 0.58628 0.0
C101 C 0.90547 0.93884 0.59841 0.0
C102 C 0.93655 1.01283 0.57723 0.0
C103 C 0.03083 0.9871 0.56104 0.0
H104 H 0.17037 0.06781 0.43263 0.0
H105 H 0.13925 0.03087 0.45884 0.0
H106 H 0.07512 0.08397 0.46792 0.0
H107 H 0.10595 0.12101 0.44108 0.0
H108 H 0.85429 0.97366 0.62581 0.0
H109 H 0.88616 1.01339 0.60437 0.0
H110 H 0.94313 0.95818 0.57546 0.0
H111 H 0.9112 0.91819 0.59663 0.0
Tb112 Tb 0.55139 0.02227 0.03588 0.0
Tb113 Tb 0.49799 1.01251 0.9914 0.0
C114 C 0.55234 0.98702 0.9816 0.0
C115 C 0.61612 0.05163 0.078 0.0
C116 C 0.65733 0.09371 0.1016 0.0
C117 C 0.66391 0.06699 0.09606 0.0
C118 C 0.64344 0.04614 0.08441 0.0
C119 C 0.60968 0.07853 0.08254 0.0
C120 C 0.63012 0.0994 0.09439 0.0
C121 C 0.59472 0.0288 0.06709 0.0
O122 O 0.56243 0.05675 1.00489 0.0
O123 O 0.52066 0.05436 0.97958 0.0
O124 O 0.48205 0.03041 0.02929 0.0
O125 O 0.52448 0.05233 0.04816 0.0
O126 O 0.47922 0.98925 0.95723 0.0
O127 O 0.46008 0.02304 0.97481 0.0
O128 O 0.49038 0.97457 1.01812 0.0
O129 O 0.52147 0.98716 0.0549 0.0
O130 O 0.55514 0.98696 1.00898 0.0
O131 O 0.53606 1.00292 0.96999 0.0
C132 C 0.54666 0.06722 0.98607 0.0
O133 O 0.56841 0.02731 0.07658 0.0
O134 O 0.59582 0.02441 0.03991 0.0
C135 C 0.49656 0.0494 0.04574 0.0
C136 C 0.42849 0.98412 0.95591 0.0
C137 C 0.37456 0.95133 0.94466 0.0
C138 C 0.37702 0.98026 0.94967 0.0
C139 C 0.40374 0.99651 0.95505 0.0
C140 C 0.42578 0.95495 0.95267 0.0
C141 C 0.39914 0.93877 0.94707 0.0
C142 C 0.45705 1.00198 0.95727 0.0
C143 C 0.50036 0.96963 0.04326 0.0
H144 H 0.68452 0.06187 0.10172 0.0
H145 H 0.64876 0.0255 0.08091 0.0
H146 H 0.58875 0.08322 0.07738 0.0
H147 H 0.62457 0.11988 0.09821 0.0
H148 H 0.35845 0.99056 0.94841 0.0
H149 H 0.40522 0.01893 0.9575 0.0
H150 H 0.4444 0.94468 0.95319 0.0
H151 H 0.39823 0.91665 0.94297 0.0
Tb152 Tb 0.51556 0.49778 0.5067 0.0
Tb153 Tb 0.51487 0.5546 0.54155 0.0
C154 C 0.48829 0.5476 0.48037 0.0
C155 C 0.5425 0.43811 0.47506 0.0
C156 C 0.59135 0.41345 0.46376 0.0
C157 C 0.56873 0.41088 0.44438 0.0
C158 C 0.54452 0.42309 0.45003 0.0
C159 C 0.56474 0.44037 0.49472 0.0
C160 C 0.58888 0.42802 0.48919 0.0
C161 C 0.51874 0.45371 0.47918 0.0
O162 O 0.5602 0.51921 0.50425 0.0
O163 O 0.55267 0.56375 0.51345 0.0
O164 O 0.54338 0.53285 0.56694 0.0
O165 O 0.531 0.48855 0.54891 0.0
O166 O 0.51774 0.59831 0.54098 0.0
O167 O 0.51078 0.57541 0.58008 0.0
O168 O 0.47886 0.525 0.55892 0.0
O169 O 0.47085 0.49429 0.52201 0.0
O170 O 0.5039 0.52791 0.4758 0.0
O171 O 0.48458 0.55611 0.50648 0.0
C172 C 0.56889 0.54644 0.50316 0.0
O173 O 0.50801 0.45382 0.5047 0.0
O174 O 0.52305 0.47862 0.46809 0.0
C175 C 0.54329 0.50559 0.56867 0.0
C176 C 0.4863 0.61319 0.57468 0.0
C177 C 0.43797 0.63715 0.59024 0.0
C178 C 0.46209 0.63997 0.60778 0.0
C179 C 0.48604 0.62813 0.60002 0.0
C180 C 0.46235 0.61031 0.55706 0.0
C181 C 0.43847 0.6223 0.56469 0.0
C182 C 0.51087 0.59933 0.56767 0.0
C183 C 0.46256 0.50418 0.54619 0.0
H184 H 0.57012 0.40027 0.42436 0.0
H185 H 0.52776 0.42153 0.43444 0.0
H186 H 0.56373 0.45223 0.51405 0.0
H187 H 0.60572 0.43014 0.50469 0.0
H188 H 0.46226 0.65082 0.62783 0.0
H189 H 0.50418 0.63024 0.61404 0.0
H190 H 0.46198 0.59861 0.53748 0.0
H191 H 0.42045 0.62 0.55052 0.0
Tb192 Tb 0.01777 0.55482 1.00571 0.0
Tb193 Tb 0.01523 0.49689 0.04008 0.0
C194 C 0.04498 0.50517 0.97862 0.0
C195 C 0.9892 0.61158 0.97245 0.0
C196 C 0.9369 0.62806 0.95799 0.0
C197 C 0.95883 0.62811 0.93754 0.0
C198 C 0.98479 0.61998 0.94475 0.0
C199 C 0.96755 0.61214 0.99304 0.0
C200 C 0.94173 0.62044 0.98591 0.0
C201 C 0.01464 0.59901 0.97884 0.0
O202 O 0.98079 0.52647 0.98872 0.0
O203 O 0.97117 0.49416 0.02427 0.0
O204 O 0.99926 0.52471 0.07096 0.0
O205 O 0.98819 0.55863 0.04144 0.0
O206 O 1.00575 0.45296 0.04116 0.0
O207 O 0.02294 0.47637 0.07753 0.0
O208 O 0.0599 0.51858 0.04468 0.0
O209 O 0.0546 0.56348 0.03402 0.0
O210 O 0.04697 0.53254 0.98127 0.0
O211 O 0.03071 0.48812 0.99751 0.0
C212 C 0.96373 0.50532 1.00066 0.0
O213 O 0.02175 0.59867 1.00532 0.0
O214 O 0.01533 0.57501 0.96674 0.0
C215 C 0.98756 0.54712 0.06673 0.0
C216 C 0.04009 0.43493 0.0677 0.0
C217 C 0.08699 0.40664 0.07396 0.0
C218 C 0.06422 0.40303 0.09389 0.0
C219 C 0.04096 0.41708 0.09076 0.0
C220 C 0.06248 0.4383 0.04753 0.0
C221 C 0.08565 0.42417 0.05055 0.0
C222 C 0.01714 0.45176 0.06593 0.0
C223 C 0.06941 0.54578 0.04544 0.0
H224 H 0.95578 0.63417 0.91592 0.0
H225 H 1.00109 0.61941 0.9285 0.0
H226 H 0.97014 0.60531 1.01448 0.0
H227 H 0.92513 0.6199 1.00203 0.0
H228 H 0.06477 0.39003 0.11239 0.0
H229 H 0.02403 0.41456 0.1067 0.0
H230 H 0.0623 0.45226 0.0297 0.0
H231 H 0.1026 0.42715 0.03464 0.0
H232 H 0.29497 0.28425 0.27032 0.0
H233 H 0.26609 0.26557 0.31189 0.0
H234 H 0.27738 0.18202 0.28876 0.0
H235 H 0.30579 0.20017 0.24754 0.0
H236 H 0.21765 0.19527 0.2928 0.0
H237 H 0.30908 0.20378 0.34182 0.0
H238 H 0.35383 0.23073 0.36046 0.0
H239 H 0.30516 0.28069 0.41046 0.0
H240 H 0.2601 0.25426 0.39177 0.0
H241 H 0.16951 0.08878 0.3862 0.0
H242 H 0.19909 0.12359 0.35657 0.0
H243 H 0.18154 0.18925 0.41253 0.0
H244 H 0.15225 0.15415 0.443 0.0
H245 H 0.23934 0.19581 0.39513 0.0
H246 H 0.14797 0.18297 0.35271 0.0
H247 H 0.10262 0.15685 0.33451 0.0
H248 H 0.14931 0.11771 0.27189 0.0
H249 H 0.195 0.14325 0.28999 0.0
C250 C 0.29179 0.26198 0.27454 0.0
C251 C 0.30268 0.24369 0.25568 0.0
C252 C 0.27541 0.25141 0.29824 0.0
C253 C 0.26965 0.22248 0.30315 0.0
C254 C 0.28175 0.20443 0.28525 0.0
C255 C 0.29821 0.21491 0.26183 0.0
C256 C 0.24843 0.21023 0.32473 0.0
C257 C 0.2223 0.19538 0.3152 0.0
C258 C 0.25419 0.21149 0.35394 0.0
C259 C 0.28126 0.22734 0.36508 0.0
C260 C 0.30793 0.22074 0.35652 0.0
C261 C 0.33335 0.23585 0.36716 0.0
C262 C 0.33235 0.25749 0.38654 0.0
C263 C 0.30591 0.26398 0.39539 0.0
C264 C 0.28043 0.24893 0.38479 0.0
C265 C 0.17217 0.11057 0.39246 0.0
C266 C 0.15859 0.11872 0.41696 0.0
C267 C 0.18889 0.13046 0.37537 0.0
C268 C 0.19218 0.15899 0.38221 0.0
C269 C 0.17911 0.16731 0.40689 0.0
C270 C 0.16225 0.14731 0.42409 0.0
C271 C 0.2091 0.17969 0.36298 0.0
C272 C 0.23429 0.19624 0.37286 0.0
C273 C 0.2024 0.18029 0.33398 0.0
C274 C 0.17495 0.16497 0.32281 0.0
C275 C 0.1486 0.16866 0.33517 0.0
C276 C 0.12282 0.15397 0.32486 0.0
C277 C 0.12309 0.13561 0.30207 0.0
C278 C 0.14914 0.13195 0.28953 0.0
C279 C 0.17498 0.14656 0.29978 0.0
H280 H 0.10311 0.12426 0.29412 0.0
H281 H 0.35205 0.26915 0.39478 0.0
H282 H 0.21322 0.76894 0.79727 0.0
H283 H 0.23566 0.79488 0.83812 0.0
H284 H 0.22442 0.87258 0.79925 0.0
H285 H 0.20237 0.84708 0.75856 0.0
H286 H 0.28163 0.86799 0.81217 0.0
H287 H 0.18747 0.85376 0.85571 0.0
H288 H 0.14234 0.8256 0.87328 0.0
H289 H 0.18944 0.78291 0.93088 0.0
H290 H 0.23494 0.81055 0.91334 0.0
H291 H 0.33818 0.9687 0.90684 0.0
H292 H 0.29997 0.93983 0.88114 0.0
H293 H 0.31255 0.86754 0.9292 0.0
H294 H 0.35027 0.89665 0.95613 0.0
H295 H 0.25438 0.86642 0.914 0.0
H296 H 0.34771 0.87807 0.87076 0.0
H297 H 0.39387 0.90455 0.85358 0.0
H298 H 0.34958 0.94895 0.79495 0.0
H299 H 0.30308 0.92305 0.81216 0.0
C300 C 0.21504 0.79151 0.79778 0.0
C301 C 0.20602 0.80596 0.77473 0.0
C302 C 0.22769 0.80625 0.82113 0.0
C303 C 0.23163 0.83559 0.82161 0.0
C304 C 0.22142 0.84991 0.79928 0.0
C305 C 0.20863 0.83526 0.77612 0.0
C306 C 0.24954 0.85169 0.84337 0.0
C307 C 0.27546 0.86793 0.83437 0.0
C308 C 0.24196 0.85065 0.87244 0.0
C309 C 0.21464 0.834 0.88297 0.0
C310 C 0.18824 0.83816 0.87191 0.0
C311 C 0.16258 0.82234 0.88191 0.0
C312 C 0.16303 0.80241 0.90312 0.0
C313 C 0.18914 0.79832 0.91442 0.0
C314 C 0.21486 0.81407 0.90447 0.0
C315 C 0.3322 0.94693 0.91284 0.0
C316 C 0.34765 0.93495 0.93334 0.0
C317 C 0.31043 0.93039 0.89792 0.0
C318 C 0.30388 0.90149 0.90291 0.0
C319 C 0.31745 0.8898 0.92495 0.0
C320 C 0.33919 0.90642 0.94008 0.0
C321 C 0.28598 0.88329 0.88255 0.0
C322 C 0.2604 0.86648 0.89177 0.0
C323 C 0.29397 0.88339 0.85359 0.0
C324 C 0.3219 0.89882 0.84296 0.0
C325 C 0.3478 0.89364 0.85437 0.0
C326 C 0.37402 0.90852 0.8446 0.0
C327 C 0.37465 0.92847 0.82323 0.0
C328 C 0.34905 0.93352 0.81153 0.0
C329 C 0.32275 0.91874 0.82128 0.0
H330 H 0.39498 0.93996 0.81568 0.0
H331 H 0.14314 0.7902 0.91085 0.0
H332 H 0.69129 0.40773 0.77115 0.0
H333 H 0.67181 0.42876 0.7305 0.0
H334 H 0.58598 0.39968 0.76191 0.0
H335 H 0.60546 0.37795 0.80232 0.0
H336 H 0.58192 0.39515 0.70946 0.0
H337 H 0.62504 0.4734 0.76376 0.0
H338 H 0.66324 0.50362 0.78972 0.0
H339 H 0.7151 0.51556 0.714 0.0
H340 H 0.67733 0.48511 0.68766 0.0
H341 H 0.56089 0.53029 0.62019 0.0
H342 H 0.57997 0.50926 0.66139 0.0
H343 H 0.57677 0.43187 0.61557 0.0
H344 H 0.55659 0.45243 0.575 0.0
H345 H 0.62332 0.49084 0.67716 0.0
H346 H 0.57269 0.37504 0.65715 0.0
H347 H 0.52923 0.34791 0.63608 0.0
H348 H 0.48362 0.41607 0.65138 0.0
H349 H 0.52669 0.44346 0.67284 0.0
C350 C 0.66823 0.40589 0.76972 0.0
C351 C 0.65025 0.39098 0.79073 0.0
C352 C 0.65693 0.41819 0.74617 0.0
C353 C 0.62705 0.41674 0.74267 0.0
C354 C 0.60904 0.40151 0.76345 0.0
C355 C 0.62034 0.38889 0.78686 0.0
C356 C 0.6147 0.43072 0.71753 0.0
C357 C 0.59122 0.41606 0.70253 0.0
C358 C 0.62573 0.45844 0.70809 0.0
C359 C 0.64848 0.47676 0.72382 0.0
C360 C 0.64467 0.48233 0.7527 0.0
C361 C 0.66624 0.49951 0.76747 0.0
C362 C 0.69162 0.51144 0.75354 0.0
C363 C 0.69545 0.50626 0.72477 0.0
C364 C 0.67396 0.48906 0.70991 0.0
C365 C 0.56418 0.50876 0.61879 0.0
C366 C 0.55677 0.49326 0.59385 0.0
C367 C 0.57527 0.49659 0.64262 0.0
C368 C 0.5796 0.46839 0.6426 0.0
C369 C 0.57303 0.45323 0.61727 0.0
C370 C 0.56159 0.46525 0.59363 0.0
C371 C 0.59093 0.45504 0.66872 0.0
C372 C 0.61415 0.46985 0.68397 0.0
C373 C 0.57909 0.42779 0.67892 0.0
C374 C 0.55301 0.41138 0.66632 0.0
C375 C 0.55335 0.38419 0.6561 0.0
C376 C 0.5288 0.36878 0.64407 0.0
C377 C 0.50371 0.3803 0.6423 0.0
C378 C 0.50309 0.40721 0.65266 0.0
C379 C 0.52758 0.42269 0.66474 0.0
H380 H 0.48474 0.36835 0.63296 0.0
H381 H 0.70829 0.52474 0.76501 0.0
H382 H 0.89527 0.70131 0.26798 0.0
H383 H 0.91444 0.68056 0.226 0.0
H384 H 0.89497 0.599 0.26447 0.0
H385 H 0.87599 0.61961 0.30654 0.0
H386 H 0.94757 0.60576 0.23884 0.0
H387 H 0.85341 0.61962 0.21102 0.0
H388 H 0.81484 0.64709 0.20315 0.0
H389 H 0.86939 0.70049 0.14516 0.0
H390 H 0.90843 0.67355 0.15299 0.0
H391 H 0.97015 0.52355 0.11856 0.0
H392 H 0.95011 0.54482 0.15944 0.0
H393 H 0.95534 0.62224 0.11344 0.0
H394 H 0.97404 0.60041 0.07189 0.0
H395 H 0.91056 0.6188 0.14316 0.0
H396 H 1.00481 0.6075 0.17019 0.0
H397 H 0.04531 0.58252 0.17815 0.0
H398 H 0.99403 0.528 0.23761 0.0
H399 H 0.9531 0.55244 0.22974 0.0
C400 C 0.89518 0.67897 0.26771 0.0
C401 C 0.8838 0.66233 0.29104 0.0
C402 C 0.90601 0.66699 0.24339 0.0
C403 C 0.90609 0.63793 0.24148 0.0
C404 C 0.89525 0.62138 0.26496 0.0
C405 C 0.88413 0.63328 0.28913 0.0
C406 C 0.91742 0.62477 0.21529 0.0
C407 C 0.93916 0.60838 0.21799 0.0
C408 C 0.90741 0.62861 0.18762 0.0
C409 C 0.88393 0.64474 0.18281 0.0
C410 C 0.85725 0.63735 0.19676 0.0
C411 C 0.83529 0.6528 0.19227 0.0
C412 C 0.83969 0.67557 0.17372 0.0
C413 C 0.86603 0.68288 0.15956 0.0
C414 C 0.88807 0.66751 0.16399 0.0
C415 C 0.96697 0.54509 0.11698 0.0
C416 C 0.97398 0.5601 0.09159 0.0
C417 C 0.95567 0.55749 0.14073 0.0
C418 C 0.95168 0.58573 0.14045 0.0
C419 C 0.95812 0.60056 0.11483 0.0
C420 C 0.96894 0.58798 0.09085 0.0
C421 C 0.94082 0.59961 0.16659 0.0
C422 C 0.91913 0.61616 0.16393 0.0
C423 C 0.95123 0.59631 0.19428 0.0
C424 C 0.97581 0.58163 0.19916 0.0
C425 C 1.00212 0.59008 0.18483 0.0
C426 C 0.02516 0.57602 0.18934 0.0
C427 C 0.02222 0.55364 0.20832 0.0
C428 C 0.99626 0.54531 0.22289 0.0
C429 C 0.97315 0.55927 0.21843 0.0
H430 H 0.04008 0.54278 0.21178 0.0
H431 H 0.82266 0.68751 0.17028 0.0
H432 H 0.34646 0.19 0.19954 0.0
H433 H 0.37481 0.15889 0.17666 0.0
H434 H 0.40961 0.22433 0.11797 0.0
H435 H 0.38236 0.25648 0.14205 0.0
H436 H 0.37128 0.13883 0.12655 0.0
H437 H 0.47604 0.21323 0.09468 0.0
H438 H 0.50633 0.25631 0.11186 0.0
H439 H 0.47538 0.23758 0.19664 0.0
H440 H 0.44523 0.19423 0.18003 0.0
H441 H 0.44731 0.06674 0.0301 0.0
H442 H 0.42324 0.10149 0.05347 0.0
H443 H 0.48645 0.11074 0.11927 0.0
H444 H 0.51155 0.07712 0.09497 0.0
H445 H 0.47615 0.15918 0.10747 0.0
H446 H 0.41555 0.07136 0.12736 0.0
H447 H 0.3863 0.02569 0.11601 0.0
H448 H 0.33048 0.06669 0.06625 0.0
H449 H 0.35962 0.11259 0.07704 0.0
C450 C 0.36075 0.19822 0.18232 0.0
C451 C 0.36243 0.22601 0.17296 0.0
C452 C 0.37665 0.18016 0.16895 0.0
C453 C 0.39442 0.18923 0.14565 0.0
C454 C 0.39632 0.21695 0.13616 0.0
C455 C 0.38055 0.23524 0.14979 0.0
C456 C 0.40998 0.16909 0.1309 0.0
C457 C 0.39423 0.14332 0.12237 0.0
C458 C 0.43995 0.17472 0.12579 0.0
C459 C 0.45813 0.20067 0.13603 0.0
C460 C 0.47576 0.21828 0.11699 0.0
C461 C 0.4929 0.24275 0.12663 0.0
C462 C 0.49269 0.24973 0.15531 0.0
C463 C 0.47542 0.23221 0.17442 0.0
C464 C 0.45828 0.20772 0.16489 0.0
C465 C 0.45594 0.07605 0.04967 0.0
C466 C 0.48111 0.06905 0.06092 0.0
C467 C 0.44214 0.09589 0.06305 0.0
C468 C 0.45268 0.10843 0.08846 0.0
C469 C 0.47788 0.10141 0.0997 0.0
C470 C 0.4921 0.08207 0.08592 0.0
C471 C 0.43747 0.12881 0.10331 0.0
C472 C 0.45322 0.1547 0.11166 0.0
C473 C 0.40759 0.12293 0.10916 0.0
C474 C 0.38992 0.09537 0.1028 0.0
C475 C 0.39714 0.07061 0.11387 0.0
C476 C 0.38057 0.0447 0.10755 0.0
C477 C 0.35659 0.04329 0.09036 0.0
C478 C 0.34908 0.06781 0.07953 0.0
C479 C 0.3656 0.09378 0.08576 0.0
H480 H 0.3438 0.0232 0.08548 0.0
H481 H 0.50597 0.26868 0.16273 0.0
H482 H 0.11484 0.79606 0.71532 0.0
H483 H 0.08677 0.82609 0.68991 0.0
H484 H 0.15526 0.84539 0.62818 0.0
H485 H 0.18322 0.81536 0.65323 0.0
H486 H 0.13793 0.89254 0.65766 0.0
H487 H 0.09795 0.8088 0.60661 0.0
H488 H 0.07288 0.76009 0.60252 0.0
H489 H 0.99863 0.78215 0.6444 0.0
H490 H 0.02344 0.83094 0.64911 0.0
H491 H 0.08543 0.97629 0.55805 0.0
H492 H 0.10516 0.93994 0.58255 0.0
H493 H 0.02371 0.91326 0.62498 0.0
H494 H 1.00338 0.94916 0.59955 0.0
H495 H 0.04486 0.86923 0.60876 0.0
H496 H 0.08193 0.95184 0.65961 0.0
H497 H 0.10571 1.00065 0.66656 0.0
H498 H 0.18365 0.98126 0.62992 0.0
H499 H 0.16022 0.93241 0.62238 0.0
C500 C 0.12352 0.80619 0.69593 0.0
C501 C 0.15113 0.80335 0.68617 0.0
C502 C 0.10751 0.82326 0.68147 0.0
C503 C 0.11906 0.83794 0.65727 0.0
C504 C 0.14603 0.83414 0.64681 0.0
C505 C 0.16185 0.81682 0.661 0.0
C506 C 0.10449 0.85944 0.6445 0.0
C507 C 0.11774 0.88748 0.64665 0.0
C508 C 0.07759 0.85278 0.63133 0.0
C509 C 0.06269 0.82345 0.62851 0.0
C510 C 0.07639 0.80321 0.61522 0.0
C511 C 0.0622 0.7756 0.61272 0.0
C512 C 0.03421 0.76801 0.62327 0.0
C513 C 0.02033 0.78804 0.63628 0.0
C514 C 0.03444 0.81568 0.63885 0.0
C515 C 0.07171 0.96287 0.57275 0.0
C516 C 0.0429 0.96579 0.57707 0.0
C517 C 0.08306 0.94209 0.58682 0.0
C518 C 0.0661 0.92417 0.60605 0.0
C519 C 0.03724 0.92691 0.61032 0.0
C520 C 0.0257 0.9475 0.59589 0.0
C521 C 0.07863 0.90247 0.62131 0.0
C522 C 0.06497 0.87441 0.61986 0.0
C523 C 0.10499 0.90913 0.63564 0.0
C524 C 0.11923 0.93849 0.64023 0.0
C525 C 0.10408 0.95802 0.65285 0.0
C526 C 0.11751 0.9857 0.65692 0.0
C527 C 0.14616 0.99406 0.64863 0.0
C528 C 0.16146 0.97475 0.63631 0.0
C529 C 0.14812 0.94706 0.63217 0.0
H530 H 0.15651 1.0155 0.6518 0.0
H531 H 0.02326 0.74662 0.62131 0.0
H532 H 0.71332 0.38084 0.91008 0.0
H533 H 0.75674 0.4024 0.93379 0.0
H534 H 0.79157 0.43829 0.85484 0.0
H535 H 0.74848 0.41528 0.83046 0.0
H536 H 0.83343 0.42277 0.88062 0.0
H537 H 0.76552 0.47798 0.91236 0.0
H538 H 0.7204 0.4889 0.93275 0.0
H539 H 0.73685 0.45009 1.01094 0.0
H540 H 0.78197 0.4387 0.99092 0.0
H541 H 0.94613 0.5175 0.94754 0.0
H542 H 0.90217 0.49796 0.92294 0.0
H543 H 0.87328 0.44678 0.99546 0.0
H544 H 0.91765 0.46612 1.02026 0.0
H545 H 0.82896 0.47188 0.97225 0.0
H546 H 0.89932 0.41815 0.93721 0.0
H547 H 0.94555 0.4123 0.91519 0.0
H548 H 0.92485 0.45453 0.84053 0.0
H549 H 0.87865 0.46098 0.86227 0.0
C550 C 0.73019 0.39302 0.89742 0.0
C551 C 0.72689 0.39578 0.86793 0.0
C552 C 0.75516 0.40589 0.91131 0.0
C553 C 0.7779 0.42264 0.89656 0.0
C554 C 0.77468 0.42567 0.86712 0.0
C555 C 0.74966 0.4126 0.8531 0.0
C556 C 0.80497 0.43626 0.91175 0.0
C557 C 0.83221 0.43381 0.90044 0.0
C558 C 0.80421 0.4507 0.93796 0.0
C559 C 0.77696 0.45721 0.95002 0.0
C560 C 0.75938 0.47153 0.93381 0.0
C561 C 0.73385 0.47788 0.94533 0.0
C562 C 0.72571 0.47011 0.97309 0.0
C563 C 0.74315 0.45606 0.98942 0.0
C564 C 0.76874 0.44969 0.97802 0.0
C565 C 0.93053 0.50211 0.95847 0.0
C566 C 0.93589 0.49351 0.98613 0.0
C567 C 0.90523 0.49079 0.94417 0.0
C568 C 0.88408 0.47053 0.95698 0.0
C569 C 0.88903 0.46228 0.98484 0.0
C570 C 0.9146 0.47337 0.99907 0.0
C571 C 0.85713 0.45798 0.94126 0.0
C572 C 0.82999 0.46075 0.95245 0.0
C573 C 0.85802 0.4444 0.91466 0.0
C574 C 0.88564 0.44027 0.90147 0.0
C575 C 0.90471 0.42636 0.91617 0.0
C576 C 0.9309 0.42291 0.90373 0.0
C577 C 0.93817 0.4331 0.87651 0.0
C578 C 0.91921 0.44668 0.86163 0.0
C579 C 0.89301 0.45021 0.87399 0.0
H580 H 0.95846 0.43042 0.86691 0.0
H581 H 0.70593 0.47504 0.98197 0.0
H582 H 0.81488 0.61506 0.36332 0.0
H583 H 0.77119 0.59217 0.38799 0.0
H584 H 0.74617 0.67253 0.40254 0.0
H585 H 0.78939 0.69541 0.3778 0.0
H586 H 0.73773 0.64323 0.44955 0.0
H587 H 0.71343 0.6236 0.35224 0.0
H588 H 0.7198 0.60524 0.30431 0.0
H589 H 0.7165 0.52264 0.33821 0.0
H590 H 0.71051 0.54059 0.38641 0.0
H591 H 0.59257 0.60164 0.49374 0.0
H592 H 0.63716 0.62071 0.46883 0.0
H593 H 0.65459 0.53722 0.45508 0.0
H594 H 0.60947 0.51791 0.4795 0.0
H595 H 0.66829 0.56588 0.40869 0.0
H596 H 0.69156 0.58439 0.50544 0.0
H597 H 0.68573 0.60201 0.55377 0.0
H598 H 0.69203 0.68565 0.5217 0.0
H599 H 0.69752 0.66848 0.47311 0.0
C600 C 0.79996 0.62791 0.37142 0.0
C601 C 0.80617 0.6573 0.36851 0.0
C602 C 0.77482 0.61471 0.38567 0.0
C603 C 0.75493 0.63043 0.39729 0.0
C604 C 0.76099 0.6597 0.39414 0.0
C605 C 0.786 0.67286 0.37994 0.0
C606 C 0.72813 0.61679 0.41314 0.0
C607 C 0.72243 0.62655 0.44036 0.0
C608 C 0.70826 0.59432 0.4019 0.0
C609 C 0.71185 0.5835 0.37296 0.0
C610 C 0.71431 0.60157 0.3495 0.0
C611 C 0.7178 0.59123 0.32228 0.0
C612 C 0.71864 0.56281 0.31822 0.0
C613 C 0.7159 0.54466 0.34138 0.0
C614 C 0.71245 0.5549 0.36865 0.0
C615 C 0.60589 0.58722 0.48564 0.0
C616 C 0.59719 0.5581 0.48901 0.0
C617 C 0.63166 0.59825 0.47138 0.0
C618 C 0.64992 0.58062 0.4602 0.0
C619 C 0.64121 0.5515 0.46341 0.0
C620 C 0.61533 0.54042 0.4776 0.0
C621 C 0.67772 0.59259 0.44497 0.0
C622 C 0.68363 0.5825 0.41792 0.0
C623 C 0.69792 0.61468 0.45642 0.0
C624 C 0.69468 0.6251 0.48561 0.0
C625 C 0.69149 0.60652 0.50867 0.0
C626 C 0.68828 0.61643 0.53611 0.0
C627 C 0.68844 0.64492 0.54079 0.0
C628 C 0.69188 0.66358 0.51804 0.0
C629 C 0.69507 0.65377 0.49055 0.0
H630 H 0.68595 0.65255 0.56206 0.0
H631 H 0.72134 0.55484 0.29713 0.0
H632 H 0.32214 0.31774 0.14546 0.0
H633 H 0.28948 0.34179 0.11826 0.0
H634 H 0.21708 0.28369 0.15075 0.0
H635 H 0.24939 0.25992 0.17783 0.0
H636 H 0.2135 0.29452 0.09294 0.0
H637 H 0.23456 0.3448 0.18161 0.0
H638 H 0.26688 0.37147 0.2162 0.0
H639 H 0.2968 0.43359 0.15315 0.0
H640 H 0.26491 0.40704 0.11806 0.0
H641 H 0.08823 0.35367 0.09336 0.0
H642 H 0.1303 0.33256 0.10334 0.0
H643 H 0.18555 0.40706 0.07324 0.0
H644 H 0.14355 0.42888 0.06448 0.0
H645 H 0.20436 0.39128 0.12126 0.0
H646 H 0.17704 0.34541 0.03476 0.0
H647 H 0.14457 0.31914 1.00008 0.0
H648 H 0.12704 0.24932 0.05706 0.0
H649 H 0.15908 0.27532 0.09228 0.0
C650 C 0.29926 0.31008 0.14647 0.0
C651 C 0.28813 0.28731 0.16392 0.0
C652 C 0.2807 0.32377 0.13103 0.0
C653 C 0.2509 0.31454 0.13265 0.0
C654 C 0.23999 0.29109 0.14919 0.0
C655 C 0.25841 0.2777 0.1648 0.0
C656 C 0.23057 0.32996 0.11863 0.0
C657 C 0.21144 0.31569 0.09904 0.0
C658 C 0.22855 0.35784 0.12604 0.0
C659 C 0.24767 0.37376 0.14713 0.0
C660 C 0.24824 0.36401 0.17506 0.0
C661 C 0.26643 0.37912 0.19476 0.0
C662 C 0.28396 0.40416 0.18685 0.0
C663 C 0.28327 0.41416 0.15923 0.0
C664 C 0.26515 0.39909 0.13942 0.0
C665 C 0.10932 0.36561 0.08891 0.0
C666 C 0.11249 0.39299 0.07816 0.0
C667 C 0.13337 0.35337 0.09427 0.0
C668 C 0.1611 0.36806 0.08863 0.0
C669 C 0.16436 0.39526 0.07756 0.0
C670 C 0.1403 0.4076 0.07235 0.0
C671 C 0.18659 0.35559 0.09604 0.0
C672 C 0.20672 0.37038 0.11447 0.0
C673 C 0.1896 0.32823 0.08741 0.0
C674 C 0.17037 0.31241 0.06624 0.0
C675 C 0.16612 0.32453 0.03999 0.0
C676 C 0.14781 0.30967 1.02022 0.0
C677 C 0.13372 0.2826 0.02638 0.0
C678 C 0.13797 0.2703 0.05232 0.0
C679 C 0.15624 0.28507 0.07218 0.0
H680 H 0.11955 0.27113 1.01105 0.0
H681 H 0.29801 0.41584 0.20214 0.0
H682 H 0.62796 0.2925 0.82614 0.0
H683 H 0.60784 0.24714 0.84747 0.0
H684 H 0.64222 0.27608 0.928 0.0
H685 H 0.661 0.32158 0.90753 0.0
H686 H 0.65377 0.22297 0.91601 0.0
H687 H 0.57101 0.26903 0.91595 0.0
H688 H 0.53504 0.29327 0.89406 0.0
H689 H 0.50859 0.22229 0.84042 0.0
H690 H 0.54471 0.19777 0.86174 0.0
H691 H 0.58836 0.1103 1.00455 0.0
H692 H 0.60601 0.15546 0.98214 0.0
H693 H 0.55057 0.13192 0.91143 0.0
H694 H 0.53151 0.08754 0.93485 0.0
H695 H 0.55037 0.18219 0.91643 0.0
H696 H 0.63187 0.13571 0.91358 0.0
H697 H 0.6687 0.1105 0.93235 0.0
H698 H 0.69906 0.18002 0.9866 0.0
H699 H 0.6622 0.20552 0.96837 0.0
C700 C 0.63098 0.28957 0.84849 0.0
C701 C 0.64682 0.31135 0.86463 0.0
C702 C 0.61948 0.26329 0.86074 0.0
C703 C 0.62349 0.25762 0.88957 0.0
C704 C 0.63893 0.27934 0.90572 0.0
C705 C 0.64999 0.30563 0.89369 0.0
C706 C 0.61199 0.22932 0.90304 0.0
C707 C 0.63109 0.21423 0.9163 0.0
C708 C 0.58251 0.21702 0.90298 0.0
C709 C 0.56077 0.23169 0.89022 0.0
C710 C 0.55769 0.25869 0.89932 0.0
C711 C 0.53724 0.27246 0.88705 0.0
C712 C 0.5196 0.25937 0.86581 0.0
C713 C 0.52231 0.23243 0.85684 0.0
C714 C 0.54275 0.21858 0.86903 0.0
C715 C 0.57997 0.11462 0.98416 0.0
C716 C 0.55851 0.0948 0.97163 0.0
C717 C 0.59035 0.14065 0.97103 0.0
C718 C 0.58051 0.14762 0.94429 0.0
C719 C 0.55894 0.12774 0.93187 0.0
C720 C 0.54802 0.10202 0.94534 0.0
C721 C 0.59216 0.17548 0.92955 0.0
C722 C 0.57311 0.19062 0.91608 0.0
C723 C 0.62183 0.18759 0.92889 0.0
C724 C 0.6441 0.1724 0.9398 0.0
C725 C 0.6463 0.14555 0.92962 0.0
C726 C 0.66719 0.13122 0.94015 0.0
C727 C 0.68615 0.14362 0.96071 0.0
C728 C 0.68433 0.17042 0.97071 0.0
C729 C 0.66347 0.18483 0.96027 0.0
H730 H 0.7023 0.13249 0.96885 0.0
H731 H 0.50378 0.27006 0.85634 0.0
H732 H 0.93046 0.73701 0.35637 0.0
H733 H 0.95142 0.78124 0.37882 0.0
H734 H 0.86668 0.79692 0.4004 0.0
H735 H 0.84571 0.75383 0.37674 0.0
H736 H 0.89583 0.84382 0.38684 0.0
H737 H 0.91604 0.77195 0.44951 0.0
H738 H 0.93554 0.72987 0.46308 0.0
H739 H 0.02041 0.77053 0.4395 0.0
H740 H 1.00135 0.81275 0.42546 0.0
H741 H 0.93358 0.94814 0.49321 0.0
H742 H 0.91522 0.90498 0.46768 0.0
H743 H 1.00145 0.89693 0.44265 0.0
H744 H 0.01998 0.93992 0.46842 0.0
H745 H 0.97319 0.84678 0.45689 0.0
H746 H 0.9523 0.91949 0.39593 0.0
H747 H 0.93216 0.96153 0.38353 0.0
H748 H 0.84752 0.91889 0.40525 0.0
H749 H 0.86721 0.8767 0.41814 0.0
C750 C 0.91619 0.74998 0.36554 0.0
C751 C 0.88618 0.74115 0.36484 0.0
C752 C 0.9283 0.77531 0.37885 0.0
C753 C 0.91087 0.79264 0.39219 0.0
C754 C 0.88094 0.78424 0.39069 0.0
C755 C 0.86887 0.75913 0.37727 0.0
C756 C 0.9234 0.81937 0.40765 0.0
C757 C 0.91251 0.84419 0.40239 0.0
C758 C 0.94572 0.8207 0.4277 0.0
C759 C 0.95722 0.79538 0.43615 0.0
C760 C 0.93883 0.77184 0.44703 0.0
C761 C 0.94981 0.74798 0.45484 0.0
C762 C 0.97918 0.7475 0.45208 0.0
C763 C 0.99766 0.77091 0.44158 0.0
C764 C 0.98678 0.79482 0.43371 0.0
C765 C 0.94874 0.93731 0.48227 0.0
C766 C 0.97841 0.94796 0.48296 0.0
C767 C 0.93813 0.91249 0.46744 0.0
C768 C 0.95674 0.89746 0.45264 0.0
C769 C 0.9864 0.90785 0.45368 0.0
C770 C 0.99703 0.93268 0.46846 0.0
C771 C 0.9454 0.87103 0.43622 0.0
C772 C 0.95654 0.84634 0.44129 0.0
C773 C 0.92318 0.86976 0.41613 0.0
C774 C 0.91127 0.89503 0.40825 0.0
C775 C 0.92942 0.91915 0.39825 0.0
C776 C 0.91808 0.94299 0.3911 0.0
C777 C 0.88859 0.9429 0.39366 0.0
C778 C 0.87036 0.91894 0.4033 0.0
C779 C 0.8816 0.89505 0.41051 0.0
H780 H 0.87985 0.96138 0.38812 0.0
H781 H 0.98764 0.72901 0.45814 0.0
H782 H 0.19943 0.71688 0.67451 0.0
H783 H 0.23497 0.693 0.65045 0.0
H784 H 0.30335 0.75317 0.68512 0.0
H785 H 0.26819 0.77705 0.70891 0.0
H786 H 0.31016 0.7442 0.62756 0.0
H787 H 0.28757 0.69003 0.71355 0.0
H788 H 0.25519 0.66098 0.74728 0.0
H789 H 0.23015 0.6002 0.68224 0.0
H790 H 0.26211 0.62911 0.648 0.0
H791 H 0.4365 0.68737 0.6164 0.0
H792 H 0.39445 0.70642 0.63225 0.0
H793 H 0.33915 0.63429 0.59858 0.0
H794 H 0.38122 0.61452 0.58356 0.0
H795 H 0.32103 0.6466 0.64984 0.0
H796 H 0.34673 0.69734 0.56496 0.0
H797 H 0.37867 0.72572 0.53041 0.0
H798 H 0.3965 0.79225 0.591 0.0
H799 H 0.36501 0.7641 0.62609 0.0
C800 C 0.22207 0.72489 0.67698 0.0
C801 C 0.23108 0.7486 0.69381 0.0
C802 C 0.24229 0.71124 0.66333 0.0
C803 C 0.27176 0.7213 0.66613 0.0
C804 C 0.28072 0.74508 0.68272 0.0
C805 C 0.26061 0.75852 0.69652 0.0
C806 C 0.29357 0.70733 0.65181 0.0
C807 C 0.31268 0.72291 0.63251 0.0
C808 C 0.29613 0.67925 0.65757 0.0
C809 C 0.27693 0.6619 0.67814 0.0
C810 C 0.27494 0.67061 0.70638 0.0
C811 C 0.25671 0.65414 0.7256 0.0
C812 C 0.24054 0.62881 0.71688 0.0
C813 C 0.24263 0.61985 0.68894 0.0
C814 C 0.26081 0.63627 0.66962 0.0
C815 C 0.41543 0.67541 0.61251 0.0
C816 C 0.41229 0.64933 0.59879 0.0
C817 C 0.39137 0.68651 0.6213 0.0
C818 C 0.36362 0.67196 0.61626 0.0
C819 C 0.36035 0.64595 0.60255 0.0
C820 C 0.38444 0.63479 0.59378 0.0
C821 C 0.33819 0.68373 0.62611 0.0
C822 C 0.31834 0.66775 0.64451 0.0
C823 C 0.33477 0.71139 0.61932 0.0
C824 C 0.35364 0.72851 0.59824 0.0
C825 C 0.35762 0.71794 0.571 0.0
C826 C 0.37562 0.734 0.5513 0.0
C827 C 0.38964 0.76075 0.55852 0.0
C828 C 0.38564 0.77152 0.58544 0.0
C829 C 0.36768 0.75553 0.60523 0.0
H830 H 0.40357 0.77315 0.54324 0.0
H831 H 0.22645 0.61608 0.7318 0.0
H832 H 0.688 0.78685 0.76149 0.0
H833 H 0.71745 0.81234 0.72391 0.0
H834 H 0.79384 0.79355 0.76297 0.0
H835 H 0.76485 0.76949 0.80128 0.0
H836 H 0.80003 0.84666 0.75199 0.0
H837 H 0.76815 0.76302 0.69947 0.0
H838 H 0.73299 0.72474 0.67971 0.0
H839 H 0.69437 0.78425 0.63317 0.0
H840 H 0.72907 0.82295 0.65296 0.0
H841 H 0.89777 0.90265 0.64542 0.0
H842 H 0.86783 0.86684 0.67405 0.0
H843 H 0.79175 0.89425 0.64333 0.0
H844 H 0.82159 0.92986 0.61415 0.0
H845 H 0.78591 0.83542 0.64861 0.0
H846 H 0.81661 0.91877 0.70366 0.0
H847 H 0.85233 0.95672 0.72321 0.0
H848 H 0.89372 0.89626 0.76515 0.0
H849 H 0.85847 0.85791 0.74549 0.0
C850 C 0.71106 0.78801 0.76197 0.0
C851 C 0.72401 0.77606 0.7844 0.0
C852 C 0.72785 0.80233 0.7403 0.0
C853 C 0.75786 0.80467 0.74049 0.0
C854 C 0.77073 0.79195 0.76234 0.0
C855 C 0.75403 0.77789 0.78409 0.0
C856 C 0.77608 0.82231 0.71937 0.0
C857 C 0.79723 0.8438 0.72939 0.0
C858 C 0.77195 0.81913 0.68987 0.0
C859 C 0.75106 0.79591 0.67791 0.0
C860 C 0.75201 0.76797 0.68521 0.0
C861 C 0.73219 0.74619 0.67396 0.0
C862 C 0.71142 0.75206 0.65525 0.0
C863 C 0.71046 0.77973 0.64769 0.0
C864 C 0.73022 0.8016 0.65889 0.0
C865 C 0.87466 0.90065 0.64425 0.0
C866 C 0.86202 0.9192 0.62772 0.0
C867 C 0.8576 0.88029 0.66073 0.0
C868 C 0.82763 0.87816 0.661 0.0
C869 C 0.81486 0.89564 0.64342 0.0
C870 C 0.83192 0.91609 0.62699 0.0
C871 C 0.80985 0.85936 0.68138 0.0
C872 C 0.78875 0.83793 0.67124 0.0
C873 C 0.81403 0.86244 0.71083 0.0
C874 C 0.83509 0.88548 0.72286 0.0
C875 C 0.83346 0.91356 0.71687 0.0
C876 C 0.8536 0.93514 0.728 0.0
C877 C 0.87532 0.9289 0.74535 0.0
C878 C 0.8769 0.90106 0.75167 0.0
C879 C 0.85685 0.8794 0.74056 0.0
H880 H 0.89089 0.94564 0.75395 0.0
H881 H 0.69609 0.73517 0.64656 0.0
H882 H 0.76866 0.24616 0.29263 0.0
H883 H 0.74736 0.22038 0.25215 0.0
H884 H 0.83142 0.21386 0.21903 0.0
H885 H 0.85341 0.24092 0.25955 0.0
H886 H 0.78915 0.22407 0.17673 0.0
H887 H 0.80081 0.16033 0.2503 0.0
H888 H 0.79915 0.14317 0.29941 0.0
H889 H 0.70762 0.13827 0.30195 0.0
H890 H 0.70879 0.15589 0.253 0.0
H891 H 0.71537 0.10794 0.09241 0.0
H892 H 0.74993 0.13819 0.12195 0.0
H893 H 0.68049 0.15642 0.17511 0.0
H894 H 0.646 0.12613 0.146 0.0
H895 H 0.72393 0.13672 0.2044 0.0
H896 H 0.71393 0.20508 0.13199 0.0
H897 H 0.71623 0.22276 0.08303 0.0
H898 H 0.80593 0.21763 0.07785 0.0
H899 H 0.80406 0.19952 0.12668 0.0
C900 C 0.78285 0.24015 0.27641 0.0
C901 C 0.81285 0.24585 0.2793 0.0
C902 C 0.77054 0.22512 0.25337 0.0
C903 C 0.78782 0.21502 0.23282 0.0
C904 C 0.81779 0.22153 0.23477 0.0
C905 C 0.83026 0.23676 0.25798 0.0
C906 C 0.77388 0.19589 0.21087 0.0
C907 C 0.77538 0.20463 0.18256 0.0
C908 C 0.75584 0.17065 0.21866 0.0
C909 C 0.75492 0.15959 0.248 0.0
C910 C 0.78035 0.15577 0.26138 0.0
C911 C 0.77949 0.14594 0.2892 0.0
C912 C 0.7533 0.13966 0.3038 0.0
C913 C 0.7279 0.14314 0.2906 0.0
C914 C 0.72864 0.15302 0.26281 0.0
C915 C 0.70751 0.11866 0.11024 0.0
C916 C 0.678 0.11464 0.11696 0.0
C917 C 0.72723 0.13599 0.12697 0.0
C918 C 0.7177 0.14944 0.15069 0.0
C919 C 0.68822 0.14618 0.15686 0.0
C920 C 0.66853 0.12905 0.14009 0.0
C921 C 0.73832 0.16537 0.1704 0.0
C922 C 0.73811 0.15587 0.19837 0.0
C923 C 0.75766 0.18965 0.16214 0.0
C924 C 0.75878 0.20062 0.13285 0.0
C925 C 0.73408 0.20746 0.12032 0.0
C926 C 0.73532 0.21762 0.09261 0.0
C927 C 0.76119 0.22123 0.0773 0.0
C928 C 0.7859 0.21477 0.08971 0.0
C929 C 0.78476 0.20458 0.1174 0.0
H930 H 0.7621 0.2291 0.05586 0.0
H931 H 0.75267 0.13207 0.32534 0.0
H932 H 0.42722 0.66481 0.24121 0.0
H933 H 0.44589 0.6443 0.28314 0.0
H934 H 0.36166 0.63199 0.32159 0.0
H935 H 0.3427 0.65164 0.27936 0.0
H936 H 0.41033 0.65651 0.35984 0.0
H937 H 0.3813 0.57756 0.29813 0.0
H938 H 0.38107 0.55177 0.25312 0.0
H939 H 0.47222 0.55516 0.25775 0.0
H940 H 0.47303 0.58137 0.30261 0.0
H941 H 0.44125 0.57531 0.47891 0.0
H942 H 0.42051 0.59542 0.43823 0.0
H943 H 0.48663 0.57178 0.38406 0.0
H944 H 0.50584 0.54983 0.42432 0.0
H945 H 0.44619 0.56637 0.35308 0.0
H946 H 0.4786 0.64584 0.41136 0.0
H947 H 0.48286 0.67453 0.45473 0.0
H948 H 0.39208 0.6747 0.45509 0.0
H949 H 0.38723 0.64572 0.41189 0.0
C950 C 0.41258 0.65787 0.25858 0.0
C951 C 0.38325 0.66008 0.25645 0.0
C952 C 0.42336 0.64597 0.28271 0.0
C953 C 0.40542 0.63639 0.30606 0.0
C954 C 0.37625 0.63911 0.30424 0.0
C955 C 0.36532 0.65034 0.27981 0.0
C956 C 0.41688 0.62311 0.3319 0.0
C957 C 0.41786 0.63663 0.35838 0.0
C958 C 0.42775 0.59754 0.33042 0.0
C959 C 0.42727 0.58169 0.30356 0.0
C960 C 0.40133 0.57304 0.28942 0.0
C961 C 0.40109 0.5583 0.26396 0.0
C962 C 0.42663 0.5519 0.25254 0.0
C963 C 0.45245 0.56017 0.2666 0.0
C964 C 0.45282 0.57495 0.29205 0.0
C965 C 0.4514 0.57434 0.45833 0.0
C966 C 0.47544 0.56074 0.45534 0.0
C967 C 0.43963 0.5863 0.43477 0.0
C968 C 0.45203 0.58624 0.40727 0.0
C969 C 0.47608 0.57253 0.40446 0.0
C970 C 0.48731 0.5599 0.42782 0.0
C971 C 0.44003 0.59979 0.38154 0.0
C972 C 0.43887 0.58632 0.35488 0.0
C973 C 0.42969 0.62583 0.38273 0.0
C974 C 0.43252 0.64337 0.40858 0.0
C975 C 0.45953 0.65187 0.42079 0.0
C976 C 0.46205 0.66819 0.44532 0.0
C977 C 0.43774 0.67636 0.4577 0.0
C978 C 0.41088 0.66831 0.4455 0.0
C979 C 0.40824 0.65196 0.42098 0.0
H980 H 0.43973 0.68897 0.47671 0.0
H981 H 0.42639 0.54048 0.23283 0.0
H982 H 0.18744 0.40101 0.77341 0.0
H983 H 0.16882 0.42245 0.81502 0.0
H984 H 0.08297 0.40107 0.78318 0.0
H985 H 0.10151 0.37895 0.74185 0.0
H986 H 0.14531 0.46372 0.82661 0.0
H987 H 0.03213 0.39585 0.83514 0.0
H988 H 1.00823 0.34766 0.82486 0.0
H989 H 0.08863 0.31837 0.83186 0.0
H990 H 0.11291 0.3663 0.84253 0.0
H991 H 0.06403 0.5302 0.92751 0.0
H992 H 0.08246 0.50881 0.88561 0.0
H993 H 0.07508 0.4303 0.93004 0.0
H994 H 0.05548 0.4513 0.97138 0.0
H995 H 0.06029 0.41705 0.88106 0.0
H996 H 0.14293 0.47892 0.91351 0.0
H997 H 0.17151 0.52379 0.92843 0.0
H998 H 0.16013 0.55942 0.84722 0.0
H999 H 0.13118 0.51485 0.83193 0.0
C1000 C 0.16455 0.40083 0.77513 0.0
C1001 C 0.14616 0.38792 0.75389 0.0
C1002 C 0.15381 0.41324 0.79917 0.0
C1003 C 0.12419 0.41341 0.80306 0.0
C1004 C 0.10579 0.40086 0.78164 0.0
C1005 C 0.11651 0.38813 0.75772 0.0
C1006 C 0.11286 0.42681 0.82923 0.0
C1007 C 0.12664 0.45339 0.83835 0.0
C1008 C 0.08881 0.41363 0.84552 0.0
C1009 C 0.07437 0.38472 0.8393 0.0
C1010 C 0.04468 0.3791 0.83456 0.0
C1011 C 0.03107 0.35184 0.82865 0.0
C1012 C 0.04692 0.32999 0.8276 0.0
C1013 C 0.07639 0.33533 0.83256 0.0
C1014 C 0.09009 0.36255 0.83851 0.0
C1015 C 0.06652 0.50843 0.92851 0.0
C1016 C 0.05826 0.49271 0.95324 0.0
C1017 C 0.07728 0.49609 0.90435 0.0
C1018 C 0.08086 0.4677 0.90417 0.0
C1019 C 0.07269 0.4521 0.929 0.0
C1020 C 0.06153 0.46429 0.95295 0.0
C1021 C 0.09257 0.4541 0.87831 0.0
C1022 C 0.07887 0.42747 0.86924 0.0
C1023 C 0.11724 0.46685 0.8626 0.0
C1024 C 0.13466 0.49364 0.87169 0.0
C1025 C 0.14637 0.49638 0.8989 0.0
C1026 C 0.16265 0.52175 0.90741 0.0
C1027 C 0.16756 0.54447 0.88881 0.0
C1028 C 0.15627 0.54183 0.86162 0.0
C1029 C 0.13994 0.51651 0.85301 0.0
H1030 H 0.18017 0.56409 0.89544 0.0
H1031 H 0.03635 0.3089 0.823 0.0
H1032 H 0.62931 0.79221 0.82292 0.0
H1033 H 0.6039 0.82749 0.84384 0.0
H1034 H 0.64669 0.82081 0.9228 0.0
H1035 H 0.67222 0.78574 0.90206 0.0
H1036 H 0.59115 0.82763 0.93134 0.0
H1037 H 0.67346 0.87046 0.876 0.0
H1038 H 0.70339 0.87832 0.83268 0.0
H1039 H 0.63411 0.90573 0.7891 0.0
H1040 H 0.60358 0.89757 0.83208 0.0
H1041 H 0.59184 0.95584 0.99819 0.0
H1042 H 0.60857 0.91801 0.97232 0.0
H1043 H 0.55823 0.93351 0.9006 0.0
H1044 H 0.54151 0.97186 0.92634 0.0
H1045 H 0.61211 0.92104 0.88547 0.0
H1046 H 0.53235 0.88429 0.9452 0.0
H1047 H 0.506 0.87988 0.9907 0.0
H1048 H 0.57205 0.84139 0.02758 0.0
H1049 H 0.59955 0.8468 0.98264 0.0
C1050 C 0.63297 0.798 0.84486 0.0
C1051 C 0.65291 0.78634 0.86078 0.0
C1052 C 0.61845 0.81812 0.85677 0.0
C1053 C 0.62377 0.82706 0.88473 0.0
C1054 C 0.64227 0.81418 0.90119 0.0
C1055 C 0.65677 0.79405 0.88932 0.0
C1056 C 0.61204 0.85134 0.8962 0.0
C1057 C 0.59578 0.84806 0.92139 0.0
C1058 C 0.61772 0.8779 0.8829 0.0
C1059 C 0.63613 0.88308 0.85714 0.0
C1060 C 0.66453 0.87795 0.85711 0.0
C1061 C 0.68161 0.88248 0.83264 0.0
C1062 C 0.67063 0.89243 0.80813 0.0
C1063 C 0.64256 0.89796 0.80808 0.0
C1064 C 0.62536 0.89338 0.83249 0.0
C1065 C 0.58452 0.95147 0.9768 0.0
C1066 C 0.56506 0.96661 0.96443 0.0
C1067 C 0.5941 0.9298 0.96207 0.0
C1068 C 0.58415 0.92263 0.9348 0.0
C1069 C 0.56598 0.93866 0.92172 0.0
C1070 C 0.55645 0.96052 0.93645 0.0
C1071 C 0.59161 0.89741 0.92082 0.0
C1072 C 0.60705 0.90051 0.89518 0.0
C1073 C 0.58533 0.87073 0.93383 0.0
C1074 C 0.56815 0.86616 0.96053 0.0
C1075 C 0.54137 0.87502 0.96303 0.0
C1076 C 0.52622 0.87237 0.98876 0.0
C1077 C 0.53727 0.86024 1.012 0.0
C1078 C 0.56351 0.85076 1.00955 0.0
C1079 C 0.57894 0.85371 0.98397 0.0
H1080 H 0.52554 0.85825 0.03192 0.0
H1081 H 0.68389 0.89594 0.7892 0.0
H1082 H 0.90684 0.24638 0.33238 0.0
H1083 H 0.93535 0.21547 0.35568 0.0
H1084 H 0.87084 0.19879 0.42183 0.0
H1085 H 0.84287 0.23022 0.3991 0.0
H1086 H 0.92135 0.2012 0.44383 0.0
H1087 H 0.87286 0.15499 0.36332 0.0
H1088 H 0.86024 0.14997 0.31294 0.0
H1089 H 0.9487 0.15061 0.29056 0.0
H1090 H 0.9619 0.15605 0.3408 0.0
H1091 H 0.93566 0.07089 0.49613 0.0
H1092 H 0.91667 0.10573 0.46838 0.0
H1093 H 0.99423 0.11976 0.41749 0.0
H1094 H 0.01327 0.08422 0.44491 0.0
H1095 H 0.94351 0.12139 0.38644 0.0
H1096 H 0.98848 0.15967 0.47163 0.0
H1097 H 0.99519 0.15681 0.52298 0.0
H1098 H 0.90815 0.16829 0.53797 0.0
H1099 H 0.90035 0.16952 0.48659 0.0
C1100 C 0.89909 0.23645 0.35217 0.0
C1101 C 0.87269 0.24063 0.36396 0.0
C1102 C 0.91527 0.21872 0.36538 0.0
C1103 C 0.90496 0.20436 0.39022 0.0
C1104 C 0.87926 0.20962 0.4027 0.0
C1105 C 0.86331 0.22764 0.38973 0.0
C1106 C 0.91975 0.18252 0.40236 0.0
C1107 C 0.92614 0.18376 0.43127 0.0
C1108 C 0.92635 0.15986 0.38592 0.0
C1109 C 0.91841 0.15624 0.35576 0.0
C1110 C 0.88964 0.15423 0.34763 0.0
C1111 C 0.88238 0.1513 0.31911 0.0
C1112 C 0.90367 0.15005 0.29856 0.0
C1113 C 0.93225 0.15164 0.3065 0.0
C1114 C 0.93963 0.15464 0.33499 0.0
C1115 C 0.9486 0.08115 0.47885 0.0
C1116 C 0.97615 0.07519 0.47297 0.0
C1117 C 0.93767 0.10098 0.46296 0.0
C1118 C 0.9543 0.11568 0.44128 0.0
C1119 C 0.98115 0.10869 0.43423 0.0
C1120 C 0.99201 0.08849 0.44996 0.0
C1121 C 0.9445 0.1399 0.42788 0.0
C1122 C 0.93917 0.13913 0.39881 0.0
C1123 C 0.93839 0.16274 0.44427 0.0
C1124 C 0.94377 0.16447 0.47517 0.0
C1125 C 0.97071 0.16146 0.48584 0.0
C1126 C 0.97464 0.15992 0.51496 0.0
C1127 C 0.95211 0.16239 0.53374 0.0
C1128 C 0.92558 0.16636 0.52339 0.0
C1129 C 0.92133 0.16732 0.49425 0.0
H1130 H 0.95526 0.16133 0.5563 0.0
H1131 H 0.89801 0.14779 0.27648 0.0
H1132 H 0.28167 0.64566 0.21605 0.0
H1133 H 0.23766 0.62431 0.19211 0.0
H1134 H 0.28322 0.63231 0.11209 0.0
H1135 H 0.32666 0.65464 0.13583 0.0
H1136 H 0.23607 0.64377 0.10106 0.0
H1137 H 0.25873 0.56598 0.15242 0.0
H1138 H 0.27003 0.53956 0.19407 0.0
H1139 H 0.18914 0.54809 0.23259 0.0
H1140 H 0.1775 0.57486 0.19129 0.0
H1141 H 0.11052 0.5169 0.0667 0.0
H1142 H 0.15522 0.53565 0.09092 0.0
H1143 H 0.1358 0.61904 0.0835 0.0
H1144 H 0.0919 0.60057 0.05845 0.0
H1145 H 0.17093 0.5599 0.137 0.0
H1146 H 0.19399 0.66918 0.08322 0.0
H1147 H 0.18696 0.69067 0.03717 0.0
H1148 H 0.18389 0.61108 0.99623 0.0
H1149 H 0.19126 0.5892 0.04195 0.0
C1150 C 0.28241 0.64262 0.19339 0.0
C1151 C 0.30805 0.65207 0.17808 0.0
C1152 C 0.25705 0.6302 0.17954 0.0
C1153 C 0.2565 0.62606 0.1499 0.0
C1154 C 0.28234 0.63515 0.13478 0.0
C1155 C 0.30747 0.64796 0.14851 0.0
C1156 C 0.22924 0.61313 0.13446 0.0
C1157 C 0.22195 0.62545 0.10916 0.0
C1158 C 0.21047 0.58871 0.14404 0.0
C1159 C 0.21738 0.57267 0.1689 0.0
C1160 C 0.24344 0.56239 0.16986 0.0
C1161 C 0.24989 0.54732 0.19339 0.0
C1162 C 0.23035 0.54222 0.216 0.0
C1163 C 0.20427 0.5521 0.21509 0.0
C1164 C 0.19773 0.5672 0.19162 0.0
C1165 C 0.11585 0.53929 0.06995 0.0
C1166 C 0.09736 0.55708 0.06007 0.0
C1167 C 0.14155 0.55008 0.08408 0.0
C1168 C 0.14978 0.57908 0.08898 0.0
C1169 C 0.13096 0.59674 0.07957 0.0
C1170 C 0.10549 0.58602 0.0652 0.0
C1171 C 0.17768 0.59082 0.1039 0.0
C1172 C 0.18505 0.57829 0.12904 0.0
C1173 C 0.19709 0.61449 0.09368 0.0
C1174 C 0.19286 0.62752 0.06607 0.0
C1175 C 0.19191 0.6563 0.06437 0.0
C1176 C 0.18785 0.66854 0.03834 0.0
C1177 C 0.18488 0.65223 1.01381 0.0
C1178 C 0.18608 0.62367 1.01526 0.0
C1179 C 0.19016 0.61133 0.04123 0.0
H1180 H 0.18172 0.66175 0.99368 0.0
H1181 H 0.23538 0.53055 0.23419 0.0
H1182 H 0.20963 0.37759 0.63361 0.0
H1183 H 0.25395 0.39904 0.60979 0.0
H1184 H 0.28837 0.43113 0.68938 0.0
H1185 H 0.24419 0.40897 0.71372 0.0
H1186 H 0.3004 0.47076 0.6475 0.0
H1187 H 0.31074 0.3746 0.65819 0.0
H1188 H 0.29623 0.32349 0.65381 0.0
H1189 H 0.29414 0.33112 0.56348 0.0
H1190 H 0.30825 0.38236 0.56734 0.0
H1191 H 0.44481 0.51152 0.60075 0.0
H1192 H 0.40038 0.49065 0.62462 0.0
H1193 H 0.37133 0.44744 0.54788 0.0
H1194 H 0.41669 0.46746 0.52412 0.0
H1195 H 0.35586 0.41354 0.58836 0.0
H1196 H 0.34539 0.50947 0.57689 0.0
H1197 H 0.35853 0.56078 0.58077 0.0
H1198 H 0.35939 0.55427 0.67125 0.0
H1199 H 0.34666 0.5029 0.66791 0.0
C1200 C 0.22664 0.38881 0.64635 0.0
C1201 C 0.22299 0.39096 0.67595 0.0
C1202 C 0.25214 0.40128 0.63251 0.0
C1203 C 0.27501 0.41654 0.64763 0.0
C1204 C 0.27125 0.41949 0.67704 0.0
C1205 C 0.24575 0.40681 0.69099 0.0
C1206 C 0.30268 0.42922 0.63273 0.0
C1207 C 0.31271 0.45815 0.63488 0.0
C1208 C 0.31862 0.41315 0.61547 0.0
C1209 C 0.31028 0.38235 0.61308 0.0
C1210 C 0.30697 0.36541 0.6374 0.0
C1211 C 0.29885 0.33641 0.63501 0.0
C1212 C 0.29419 0.32407 0.60839 0.0
C1213 C 0.29772 0.34071 0.58409 0.0
C1214 C 0.3058 0.36973 0.58636 0.0
C1215 C 0.42899 0.49768 0.58876 0.0
C1216 C 0.43456 0.49147 0.56026 0.0
C1217 C 0.40324 0.48581 0.60252 0.0
C1218 C 0.38166 0.46777 0.58816 0.0
C1219 C 0.38726 0.46131 0.5597 0.0
C1220 C 0.41332 0.47289 0.54599 0.0
C1221 C 0.35375 0.45527 0.60298 0.0
C1222 C 0.34362 0.4263 0.60086 0.0
C1223 C 0.33759 0.47138 0.6201 0.0
C1224 C 0.34532 0.50229 0.62213 0.0
C1225 C 0.34859 0.51896 0.59761 0.0
C1226 C 0.35594 0.54807 0.59971 0.0
C1227 C 0.35985 0.56077 0.62624 0.0
C1228 C 0.35639 0.5444 0.65072 0.0
C1229 C 0.34909 0.5153 0.64873 0.0
H1230 H 0.36549 0.58328 0.62789 0.0
H1231 H 0.28791 0.30162 0.60659 0.0
H1232 H 0.71337 0.73489 0.90595 0.0
H1233 H 0.74563 0.70928 0.93061 0.0
H1234 H 0.75183 0.65841 0.85661 0.0
H1235 H 0.71847 0.68319 0.83204 0.0
H1236 H 0.75875 0.62979 0.90702 0.0
H1237 H 0.79603 0.71732 0.86092 0.0
H1238 H 0.79754 0.76743 0.85085 0.0
H1239 H 0.8154 0.78726 0.93801 0.0
H1240 H 0.81343 0.73714 0.94868 0.0
H1241 H 0.90489 0.61003 0.91185 0.0
H1242 H 0.85827 0.62148 0.89898 0.0
H1243 H 0.85833 0.67252 0.97383 0.0
H1244 H 0.90515 0.66151 0.98658 0.0
H1245 H 0.84602 0.6994 0.92641 0.0
H1246 H 0.81479 0.61058 0.97055 0.0
H1247 H 0.81387 0.56023 0.97875 0.0
H1248 H 0.78613 0.54213 0.89372 0.0
H1249 H 0.78736 0.59246 0.88479 0.0
C1250 C 0.72046 0.71742 0.89527 0.0
C1251 C 0.71379 0.71145 0.86679 0.0
C1252 C 0.7391 0.7029 0.90939 0.0
C1253 C 0.75164 0.68246 0.89516 0.0
C1254 C 0.74254 0.67428 0.86787 0.0
C1255 C 0.72369 0.68865 0.85379 0.0
C1256 C 0.7776 0.67344 0.90659 0.0
C1257 C 0.7779 0.6449 0.9112 0.0
C1258 C 0.8025 0.69328 0.91213 0.0
C1259 C 0.80427 0.72347 0.90566 0.0
C1260 C 0.80009 0.73235 0.87797 0.0
C1261 C 0.80103 0.76075 0.87215 0.0
C1262 C 0.80649 0.78051 0.89379 0.0
C1263 C 0.81111 0.77192 0.92128 0.0
C1264 C 0.81008 0.74352 0.92723 0.0
C1265 C 0.89501 0.6238 0.92547 0.0
C1266 C 0.9087 0.635 0.95014 0.0
C1267 C 0.86824 0.63003 0.91829 0.0
C1268 C 0.85472 0.64757 0.93564 0.0
C1269 C 0.86834 0.65878 0.96027 0.0
C1270 C 0.89502 0.65244 0.96755 0.0
C1271 C 0.82727 0.6557 0.92715 0.0
C1272 C 0.82679 0.68419 0.92275 0.0
C1273 C 0.80245 0.63573 0.92158 0.0
C1274 C 0.80145 0.60538 0.92691 0.0
C1275 C 0.80874 0.59591 0.9535 0.0
C1276 C 0.80812 0.56736 0.9583 0.0
C1277 C 0.80004 0.54801 0.93674 0.0
C1278 C 0.79243 0.55716 0.91037 0.0
C1279 C 0.79307 0.5857 0.90544 0.0
H1280 H 0.79967 0.52593 0.94049 0.0
H1281 H 0.80722 0.8025 0.88925 0.0
H1282 H 0.43271 0.73344 0.18959 0.0
H1283 H 0.45446 0.77707 0.16588 0.0
H1284 H 0.37106 0.78964 0.13889 0.0
H1285 H 0.34911 0.74705 0.16324 0.0
H1286 H 0.40877 0.79963 0.09512 0.0
H1287 H 0.4074 0.82922 0.1921 0.0
H1288 H 0.41819 0.82778 0.24286 0.0
H1289 H 0.50847 0.84187 0.22338 0.0
H1290 H 0.4982 0.84303 0.17244 0.0
H1291 H 0.44609 0.93796 0.03924 0.0
H1292 H 0.42552 0.89535 0.06479 0.0
H1293 H 0.50591 0.89631 0.10697 0.0
H1294 H 0.52569 0.9402 0.08297 0.0
H1295 H 0.47043 0.87815 0.14305 0.0
H1296 H 0.47313 0.84556 0.04652 0.0
H1297 H 0.46327 0.84426 0.99535 0.0
H1298 H 0.37285 0.83426 1.01308 0.0
H1299 H 0.38212 0.83515 0.06431 0.0
C1300 C 0.41879 0.74555 0.179 0.0
C1301 C 0.38885 0.73579 0.1784 0.0
C1302 C 0.4314 0.7707 0.1652 0.0
C1303 C 0.41464 0.78713 0.1502 0.0
C1304 C 0.38483 0.77759 0.14983 0.0
C1305 C 0.37222 0.75275 0.16381 0.0
C1306 C 0.42777 0.81391 0.13466 0.0
C1307 C 0.42205 0.81686 0.10577 0.0
C1308 C 0.44581 0.83655 0.14787 0.0
C1309 C 0.45202 0.8359 0.17845 0.0
C1310 C 0.42955 0.83178 0.19863 0.0
C1311 C 0.43557 0.83106 0.22743 0.0
C1312 C 0.464 0.83465 0.23634 0.0
C1313 C 0.48646 0.83904 0.21645 0.0
C1314 C 0.48055 0.83975 0.18761 0.0
C1315 C 0.45946 0.92914 0.05396 0.0
C1316 C 0.48772 0.94289 0.05881 0.0
C1317 C 0.4477 0.90425 0.06849 0.0
C1318 C 0.46405 0.89131 0.0877 0.0
C1319 C 0.49235 0.9052 0.09252 0.0
C1320 C 0.50384 0.93053 0.07859 0.0
C1321 C 0.45171 0.864 0.10316 0.0
C1322 C 0.45742 0.86093 0.13215 0.0
C1323 C 0.43394 0.84103 0.08993 0.0
C1324 C 0.42835 0.84073 0.05919 0.0
C1325 C 0.45118 0.84326 0.03947 0.0
C1326 C 0.4457 0.84256 1.01049 0.0
C1327 C 0.4175 0.83943 1.00099 0.0
C1328 C 0.39468 0.83676 1.02046 0.0
C1329 C 0.40002 0.83723 0.04946 0.0
H1330 H 0.41332 0.83897 0.97854 0.0
H1331 H 0.46862 0.83409 0.25865 0.0
H1332 H 0.11953 0.2911 0.71744 0.0
H1333 H 0.09668 0.24737 0.69559 0.0
H1334 H 0.13466 0.27558 0.61508 0.0
H1335 H 0.15512 0.31999 0.636 0.0
H1336 H 0.08716 0.25035 0.60334 0.0
H1337 H 0.15789 0.22206 0.66387 0.0
H1338 H 0.18229 0.21702 0.70883 0.0
H1339 H 0.1042 0.17121 0.74431 0.0
H1340 H 0.07926 0.17627 0.69965 0.0
H1341 H 0.06982 0.11729 0.53329 0.0
H1342 H 0.08867 0.16123 0.55707 0.0
H1343 H 0.03719 0.13417 0.63098 0.0
H1344 H 0.01852 0.08981 0.6074 0.0
H1345 H 0.08977 0.15801 0.64697 0.0
H1346 H 0.01886 0.2015 0.59025 0.0
H1347 H 0.99518 0.2113 0.54611 0.0
H1348 H 0.0768 0.22663 0.50282 0.0
H1349 H 0.10105 0.21849 0.54721 0.0
C1350 C 0.12279 0.28832 0.695 0.0
C1351 C 0.13992 0.30958 0.67893 0.0
C1352 C 0.10999 0.26278 0.68247 0.0
C1353 C 0.11429 0.25721 0.6535 0.0
C1354 C 0.13086 0.27865 0.63742 0.0
C1355 C 0.14312 0.30426 0.64973 0.0
C1356 C 0.10131 0.22969 0.63953 0.0
C1357 C 0.0883 0.23029 0.61297 0.0
C1358 C 0.1017 0.20291 0.65172 0.0
C1359 C 0.11665 0.1998 0.67854 0.0
C1360 C 0.14589 0.21107 0.68133 0.0
C1361 C 0.15981 0.20819 0.70674 0.0
C1362 C 0.14478 0.19387 0.72944 0.0
C1363 C 0.1158 0.18234 0.72673 0.0
C1364 C 0.10177 0.18519 0.70137 0.0
C1365 C 0.06228 0.1206 0.55457 0.0
C1366 C 0.04243 0.09962 0.56821 0.0
C1367 C 0.07296 0.14611 0.56816 0.0
C1368 C 0.06413 0.15177 0.59589 0.0
C1369 C 0.04444 0.13077 0.60962 0.0
C1370 C 0.03367 0.10524 0.596 0.0
C1371 C 0.07619 0.17893 0.6108 0.0
C1372 C 0.08887 0.17819 0.63752 0.0
C1373 C 0.076 0.20562 0.59866 0.0
C1374 C 0.0616 0.20885 0.57174 0.0
C1375 C 0.03166 0.20673 0.57122 0.0
C1376 C 0.01819 0.21222 0.54625 0.0
C1377 C 0.0344 0.2191 0.52154 0.0
C1378 C 0.06423 0.22109 0.5219 0.0
C1379 C 0.07788 0.21635 0.54702 0.0
H1380 H 0.02387 0.22307 0.50217 0.0
H1381 H 0.1556 0.19167 0.7491 0.0
H1382 H 0.83147 0.33105 0.38428 0.0
H1383 H 0.79795 0.35762 0.40815 0.0
H1384 H 0.72665 0.30363 0.37019 0.0
H1385 H 0.75961 0.27737 0.34661 0.0
H1386 H 0.72254 0.35761 0.3633 0.0
H1387 H 0.74364 0.29732 0.43931 0.0
H1388 H 0.77549 0.27873 0.4725 0.0
H1389 H 0.80211 0.3611 0.50646 0.0
H1390 H 0.77067 0.38023 0.47318 0.0
H1391 H 0.59563 0.36396 0.43742 0.0
H1392 H 0.63927 0.34755 0.42153 0.0
H1393 H 0.69082 0.4199 0.4589 0.0
H1394 H 0.64721 0.43709 0.47414 0.0
H1395 H 0.71103 0.36601 0.46726 0.0
H1396 H 0.68493 0.42485 0.39426 0.0
H1397 H 0.65164 0.44215 0.36172 0.0
H1398 H 0.63387 0.36139 0.32214 0.0
H1399 H 0.66674 0.34348 0.35476 0.0
C1400 C 0.80862 0.32491 0.38122 0.0
C1401 C 0.79815 0.30253 0.36318 0.0
C1402 C 0.78954 0.34003 0.39483 0.0
C1403 C 0.75982 0.33268 0.39076 0.0
C1404 C 0.74949 0.30991 0.37332 0.0
C1405 C 0.76838 0.29499 0.35977 0.0
C1406 C 0.73897 0.34865 0.4039 0.0
C1407 C 0.72005 0.35941 0.38604 0.0
C1408 C 0.73626 0.35176 0.43354 0.0
C1409 C 0.75511 0.34025 0.45352 0.0
C1410 C 0.75649 0.3115 0.45368 0.0
C1411 C 0.77442 0.30086 0.47254 0.0
C1412 C 0.79089 0.31874 0.49151 0.0
C1413 C 0.7894 0.34729 0.49171 0.0
C1414 C 0.77152 0.35804 0.47286 0.0
C1415 C 0.6162 0.37646 0.44225 0.0
C1416 C 0.61787 0.40201 0.45677 0.0
C1417 C 0.6411 0.36694 0.43335 0.0
C1418 C 0.66816 0.38267 0.4389 0.0
C1419 C 0.67007 0.40748 0.45453 0.0
C1420 C 0.64512 0.41719 0.46327 0.0
C1421 C 0.69412 0.37385 0.4266 0.0
C1422 C 0.71396 0.36464 0.44454 0.0
C1423 C 0.69771 0.37201 0.39699 0.0
C1424 C 0.67815 0.38278 0.3771 0.0
C1425 C 0.67377 0.41072 0.37876 0.0
C1426 C 0.65499 0.42065 0.36028 0.0
C1427 C 0.6406 0.40287 0.33991 0.0
C1428 C 0.64502 0.37514 0.33794 0.0
C1429 C 0.66375 0.3651 0.3564 0.0
H1430 H 0.62607 0.41059 0.32562 0.0
H1431 H 0.80476 0.31047 0.50611 0.0
loop_
_geom_bond_atom_site_label_1
_geom_bond_atom_site_label_2
_geom_bond_distance
_geom_bond_site_symmetry_2
_ccdc_geom_bond_type
H0 C3 0.931 . S
H1 C6 0.928 . S
H2 C8 0.930 . S
C3 H0 0.931 . S
C3 C4 1.413 . S
C3 C5 1.360 . S
C4 C3 1.413 . S
C4 C8 1.429 . S
C5 C3 1.360 . S
C5 C6 1.372 . S
C6 H1 0.928 . S
C6 C5 1.372 . S
C6 C7 1.404 . S
C7 C6 1.404 . S
C7 C8 1.391 . S
C8 H2 0.930 . S
C8 C4 1.429 . S
C8 C7 1.391 . S
H9 C12 0.931 . S
H10 C15 0.928 . S
H11 C17 0.930 . S
C12 H9 0.931 . S
C12 C13 1.413 . S
C12 C14 1.360 . S
C13 C12 1.413 . S
C13 C17 1.429 . S
C14 C12 1.360 . S
C14 C15 1.372 . S
C15 H10 0.928 . S
C15 C14 1.372 . S
C15 C16 1.404 . S
C16 C15 1.404 . S
C16 C17 1.391 . S
C17 H11 0.930 . S
C17 C13 1.429 . S
C17 C16 1.391 . S
H18 C21 0.931 . S
H19 C24 0.928 . S
H20 C26 0.930 . S
C21 H18 0.931 . S
C21 C22 1.413 . S
C21 C23 1.360 . S
C22 C21 1.413 . S
C22 C26 1.429 . S
C23 C21 1.360 . S
C23 C24 1.372 . S
C24 H19 0.928 . S
C24 C23 1.372 . S
C24 C25 1.404 . S
C25 C24 1.404 . S
C25 C26 1.391 . S
C26 H20 0.930 . S
C26 C22 1.429 . S
C26 C25 1.391 . S
H27 C30 0.931 . S
H28 C33 0.928 . S
H29 C35 0.930 . S
C30 H27 0.931 . S
C30 C31 1.413 . S
C30 C32 1.360 . S
C31 C30 1.413 . S
C31 C35 1.429 . S
C32 C30 1.360 . S
C32 C33 1.372 . S
C33 H28 0.928 . S
C33 C32 1.372 . S
C33 C34 1.404 . S
C34 C33 1.404 . S
C34 C35 1.391 . S
C35 H29 0.930 . S
C35 C31 1.429 . S
C35 C34 1.391 . S
H36 C39 0.931 . S
H37 C42 0.928 . S
H38 C44 0.930 . S
C39 H36 0.931 . S
C39 C40 1.413 . S
C39 C41 1.360 . S
C40 C39 1.413 . S
C40 C44 1.429 . S
C41 C39 1.360 . S
C41 C42 1.372 . S
C42 H37 0.928 . S
C42 C41 1.372 . S
C42 C43 1.404 . S
C43 C42 1.404 . S
C43 C44 1.391 . S
C44 H38 0.930 . S
C44 C40 1.429 . S
C44 C43 1.391 . S
H45 C48 0.931 . S
H46 C51 0.928 . S
H47 C53 0.930 . S
C48 H45 0.931 . S
C48 C49 1.413 . S
C48 C50 1.360 . S
C49 C48 1.413 . S
C49 C53 1.429 . S
C50 C48 1.360 . S
C50 C51 1.372 . S
C51 H46 0.928 . S
C51 C50 1.372 . S
C51 C52 1.404 . S
C52 C51 1.404 . S
C52 C53 1.391 . S
C53 H47 0.930 . S
C53 C49 1.429 . S
C53 C52 1.391 . S
H54 C57 0.931 . S
H55 C60 0.928 . S
H56 C62 0.930 . S
C57 H54 0.931 . S
C57 C58 1.413 . S
C57 C59 1.360 . S
C58 C57 1.413 . S
C58 C62 1.429 . S
C59 C57 1.360 . S
C59 C60 1.372 . S
C60 H55 0.928 . S
C60 C59 1.372 . S
C60 C61 1.404 . S
C61 C60 1.404 . S
C61 C62 1.391 . S
C62 H56 0.930 . S
C62 C58 1.429 . S
C62 C61 1.391 . S
H63 C66 0.931 . S
H64 C69 0.928 . S
H65 C71 0.930 . S
C66 H63 0.931 . S
C66 C67 1.413 . S
C66 C68 1.360 . S
C67 C66 1.413 . S
C67 C71 1.429 . S
C68 C66 1.360 . S
C68 C69 1.372 . S
C69 H64 0.928 . S
C69 C68 1.372 . S
C69 C70 1.404 . S
C70 C69 1.404 . S
C70 C71 1.391 . S
C71 H65 0.930 . S
C71 C67 1.429 . S
C71 C70 1.391 . S
Tb72 C81 2.764 . S
Tb72 O82 2.325 1_455 S
Tb72 O85 2.303 . S
Tb72 O89 2.322 1_545 S
Tb72 O90 2.349 1_545 S
Tb72 O93 2.415 . S
Tb72 O94 2.399 . S
Tb73 O83 2.322 . S
Tb73 O84 2.349 . S
Tb73 O86 2.415 1_545 S
Tb73 O87 2.399 1_545 S
Tb73 O88 2.325 1_645 S
Tb73 O91 2.303 1_545 S
Tb73 C102 2.764 1_545 S
C74 O90 1.261 1_655 S
C74 O91 1.257 . S
C75 C78 1.358 . S
C75 C79 1.332 . S
C75 C81 1.504 . S
C76 C77 1.373 . S
C76 C80 1.308 . S
C77 C76 1.373 . S
C77 C78 1.429 . S
C77 H104 0.932 . S
C78 C75 1.358 . S
C78 C77 1.429 . S
C78 H105 0.930 . S
C79 C75 1.332 . S
C79 C80 1.394 . S
C79 H106 0.932 . S
C80 C76 1.308 . S
C80 C79 1.394 . S
C80 H107 0.929 . S
C81 Tb72 2.764 . S
C81 C75 1.504 . S
C81 O93 1.239 . S
C81 O94 1.263 . S
O82 Tb72 2.325 1_655 S
O82 C92 1.236 . S
O83 Tb73 2.322 . S
O83 C92 1.257 . S
O84 Tb73 2.349 . S
O84 C95 1.261 1_655 S
O85 Tb72 2.303 . S
O85 C95 1.257 . S
O86 Tb73 2.415 1_565 S
O86 C102 1.239 . S
O87 Tb73 2.399 1_565 S
O87 C102 1.263 . S
O88 Tb73 2.325 1_465 S
O88 C103 1.236 . S
O89 Tb72 2.322 1_565 S
O89 C103 1.257 . S
O90 Tb72 2.349 1_565 S
O90 C74 1.261 1_455 S
O91 Tb73 2.303 1_565 S
O91 C74 1.257 . S
C92 O82 1.236 . S
C92 O83 1.257 . S
O93 Tb72 2.415 . S
O93 C81 1.239 . S
O94 Tb72 2.399 . S
O94 C81 1.263 . S
C95 O84 1.261 1_455 S
C95 O85 1.257 . S
C96 C99 1.358 . S
C96 C100 1.332 . S
C96 C102 1.504 . S
C97 C98 1.373 . S
C97 C101 1.308 . S
C98 C97 1.373 . S
C98 C99 1.429 . S
C98 H108 0.932 . S
C99 C96 1.358 . S
C99 C98 1.429 . S
C99 H109 0.930 . S
C100 C96 1.332 . S
C100 C101 1.394 . S
C100 H110 0.932 . S
C101 C97 1.308 . S
C101 C100 1.394 . S
C101 H111 0.929 . S
C102 Tb73 2.764 1_565 S
C102 O86 1.239 . S
C102 O87 1.263 . S
C102 C96 1.504 . S
C103 O88 1.236 . S
C103 O89 1.257 . S
H104 C77 0.932 . S
H105 C78 0.930 . S
H106 C79 0.932 . S
H107 C80 0.929 . S
H108 C98 0.932 . S
H109 C99 0.930 . S
H110 C100 0.932 . S
H111 C101 0.929 . S
Tb112 C121 2.764 . S
Tb112 O122 2.325 1_554 S
Tb112 O125 2.303 . S
Tb112 O129 2.322 1_545 S
Tb112 O130 2.347 1_544 S
Tb112 O133 2.415 . S
Tb112 O134 2.399 . S
Tb113 O123 2.322 . S
Tb113 O124 2.349 1_556 S
Tb113 O126 2.415 1_545 S
Tb113 O127 2.399 1_545 S
Tb113 O128 2.325 1_546 S
Tb113 O131 2.303 1_545 S
Tb113 C142 2.764 1_545 S
C114 O130 1.264 . S
C114 O131 1.257 . S
C115 C118 1.358 . S
C115 C119 1.332 . S
C115 C121 1.504 . S
C116 C117 1.373 . S
C116 C120 1.308 . S
C117 C116 1.373 . S
C117 C118 1.429 . S
C117 H144 0.932 . S
C118 C115 1.358 . S
C118 C117 1.429 . S
C118 H145 0.930 . S
C119 C115 1.332 . S
C119 C120 1.394 . S
C119 H146 0.932 . S
C120 C116 1.308 . S
C120 C119 1.394 . S
C120 H147 0.929 . S
C121 Tb112 2.764 . S
C121 C115 1.504 . S
C121 O133 1.239 . S
C121 O134 1.263 . S
O122 Tb112 2.325 1_556 S
O122 C132 1.236 . S
O123 Tb113 2.322 . S
O123 C132 1.257 . S
O124 Tb113 2.349 1_554 S
O124 C135 1.261 . S
O125 Tb112 2.303 . S
O125 C135 1.257 . S
O126 Tb113 2.415 1_565 S
O126 C142 1.239 . S
O127 Tb113 2.399 1_565 S
O127 C142 1.263 . S
O128 Tb113 2.325 1_564 S
O128 C143 1.236 . S
O129 Tb112 2.322 1_565 S
O129 C143 1.257 . S
O130 Tb112 2.347 1_566 S
O130 C114 1.264 . S
O131 Tb113 2.303 1_565 S
O131 C114 1.257 . S
C132 O122 1.236 . S
C132 O123 1.257 . S
O133 Tb112 2.415 . S
O133 C121 1.239 . S
O134 Tb112 2.399 . S
O134 C121 1.263 . S
C135 O124 1.261 . S
C135 O125 1.257 . S
C136 C139 1.358 . S
C136 C140 1.332 . S
C136 C142 1.504 . S
C137 C138 1.373 . S
C137 C141 1.308 . S
C138 C137 1.373 . S
C138 C139 1.429 . S
C138 H148 0.932 . S
C139 C136 1.358 . S
C139 C138 1.429 . S
C139 H149 0.930 . S
C140 C136 1.332 . S
C140 C141 1.394 . S
C140 H150 0.932 . S
C141 C137 1.308 . S
C141 C140 1.394 . S
C141 H151 0.929 . S
C142 Tb113 2.764 1_565 S
C142 O126 1.239 . S
C142 O127 1.263 . S
C142 C136 1.504 . S
C143 O128 1.236 . S
C143 O129 1.257 . S
H144 C117 0.932 . S
H145 C118 0.930 . S
H146 C119 0.932 . S
H147 C120 0.929 . S
H148 C138 0.932 . S
H149 C139 0.930 . S
H150 C140 0.932 . S
H151 C141 0.929 . S
Tb152 C161 2.764 . S
Tb152 O162 2.325 . S
Tb152 O165 2.303 . S
Tb152 O169 2.322 . S
Tb152 O170 2.349 . S
Tb152 O173 2.415 . S
Tb152 O174 2.399 . S
Tb153 O163 2.322 . S
Tb153 O164 2.349 . S
Tb153 O166 2.415 . S
Tb153 O167 2.399 . S
Tb153 O168 2.325 . S
Tb153 O171 2.303 . S
Tb153 C182 2.764 . S
C154 O170 1.261 . S
C154 O171 1.257 . S
C155 C158 1.358 . S
C155 C159 1.332 . S
C155 C161 1.504 . S
C156 C157 1.373 . S
C156 C160 1.308 . S
C157 C156 1.373 . S
C157 C158 1.429 . S
C157 H184 0.932 . S
C158 C155 1.358 . S
C158 C157 1.429 . S
C158 H185 0.930 . S
C159 C155 1.332 . S
C159 C160 1.394 . S
C159 H186 0.932 . S
C160 C156 1.308 . S
C160 C159 1.394 . S
C160 H187 0.929 . S
C161 Tb152 2.764 . S
C161 C155 1.504 . S
C161 O173 1.239 . S
C161 O174 1.263 . S
O162 Tb152 2.325 . S
O162 C172 1.236 . S
O163 Tb153 2.322 . S
O163 C172 1.257 . S
O164 Tb153 2.349 . S
O164 C175 1.261 . S
O165 Tb152 2.303 . S
O165 C175 1.257 . S
O166 Tb153 2.415 . S
O166 C182 1.239 . S
O167 Tb153 2.399 . S
O167 C182 1.263 . S
O168 Tb153 2.325 . S
O168 C183 1.236 . S
O169 Tb152 2.322 . S
O169 C183 1.257 . S
O170 Tb152 2.349 . S
O170 C154 1.261 . S
O171 Tb153 2.303 . S
O171 C154 1.257 . S
C172 O162 1.236 . S
C172 O163 1.257 . S
O173 Tb152 2.415 . S
O173 C161 1.239 . S
O174 Tb152 2.399 . S
O174 C161 1.263 . S
C175 O164 1.261 . S
C175 O165 1.257 . S
C176 C179 1.358 . S
C176 C180 1.332 . S
C176 C182 1.504 . S
C177 C178 1.373 . S
C177 C181 1.308 . S
C178 C177 1.373 . S
C178 C179 1.429 . S
C178 H188 0.932 . S
C179 C176 1.358 . S
C179 C178 1.429 . S
C179 H189 0.930 . S
C180 C176 1.332 . S
C180 C181 1.394 . S
C180 H190 0.932 . S
C181 C177 1.308 . S
C181 C180 1.394 . S
C181 H191 0.929 . S
C182 Tb153 2.764 . S
C182 O166 1.239 . S
C182 O167 1.263 . S
C182 C176 1.504 . S
C183 O168 1.236 . S
C183 O169 1.257 . S
H184 C157 0.932 . S
H185 C158 0.930 . S
H186 C159 0.932 . S
H187 C160 0.929 . S
H188 C178 0.932 . S
H189 C179 0.930 . S
H190 C180 0.932 . S
H191 C181 0.929 . S
Tb192 C201 2.767 . S
Tb192 O202 2.328 . S
Tb192 O205 2.304 1_556 S
Tb192 O209 2.304 1_656 S
Tb192 O210 2.347 1_655 S
Tb192 O213 2.419 . S
Tb192 O214 2.401 . S
Tb193 O203 2.322 1_455 S
Tb193 O204 2.349 1_455 S
Tb193 O206 2.415 . S
Tb193 O207 2.399 . S
Tb193 O208 2.325 . S
Tb193 O211 2.303 1_554 S
Tb193 C222 2.764 . S
C194 O210 1.261 . S
C194 O211 1.257 . S
C195 C198 1.358 . S
C195 C199 1.332 . S
C195 C201 1.504 . S
C196 C197 1.373 . S
C196 C200 1.308 . S
C197 C196 1.373 . S
C197 C198 1.429 . S
C197 H224 0.932 . S
C198 C195 1.358 . S
C198 C197 1.429 . S
C198 H225 0.930 . S
C199 C195 1.332 . S
C199 C200 1.394 . S
C199 H226 0.932 . S
C200 C196 1.308 . S
C200 C199 1.394 . S
C200 H227 0.929 . S
C201 Tb192 2.767 . S
C201 C195 1.504 . S
C201 O213 1.239 . S
C201 O214 1.263 . S
O202 Tb192 2.328 . S
O202 C212 1.236 . S
O203 Tb193 2.322 1_655 S
O203 C212 1.257 1_554 S
O204 Tb193 2.349 1_655 S
O204 C215 1.261 . S
O205 Tb192 2.304 1_554 S
O205 C215 1.257 . S
O206 Tb193 2.415 . S
O206 C222 1.239 . S
O207 Tb193 2.399 . S
O207 C222 1.263 . S
O208 Tb193 2.325 . S
O208 C223 1.236 . S
O209 Tb192 2.304 1_454 S
O209 C223 1.281 . S
O210 Tb192 2.347 1_455 S
O210 C194 1.261 . S
O211 Tb193 2.303 1_556 S
O211 C194 1.257 . S
C212 O202 1.236 . S
C212 O203 1.257 1_556 S
O213 Tb192 2.419 . S
O213 C201 1.239 . S
O214 Tb192 2.401 . S
O214 C201 1.263 . S
C215 O204 1.261 . S
C215 O205 1.257 . S
C216 C219 1.358 . S
C216 C220 1.332 . S
C216 C222 1.504 . S
C217 C218 1.373 . S
C217 C221 1.308 . S
C218 C217 1.373 . S
C218 C219 1.429 . S
C218 H228 0.932 . S
C219 C216 1.358 . S
C219 C218 1.429 . S
C219 H229 0.930 . S
C220 C216 1.332 . S
C220 C221 1.394 . S
C220 H230 0.932 . S
C221 C217 1.308 . S
C221 C220 1.394 . S
C221 H231 0.929 . S
C222 Tb193 2.764 . S
C222 O206 1.239 . S
C222 O207 1.263 . S
C222 C216 1.504 . S
C223 O208 1.236 . S
C223 O209 1.281 . S
H224 C197 0.932 . S
H225 C198 0.930 . S
H226 C199 0.932 . S
H227 C200 0.929 . S
H228 C218 0.932 . S
H229 C219 0.930 . S
H230 C220 0.932 . S
H231 C221 0.929 . S
H232 C250 0.951 . S
H233 C252 0.951 . S
H234 C254 0.950 . S
H235 C255 0.950 . S
H236 C257 0.950 . S
H237 C260 0.950 . S
H238 C261 0.950 . S
H239 C263 0.950 . S
H240 C264 0.950 . S
H241 C265 0.951 . S
H242 C267 0.951 . S
H243 C269 0.950 . S
H244 C270 0.950 . S
H245 C272 0.950 . S
H246 C275 0.950 . S
H247 C276 0.950 . S
H248 C278 0.950 . S
H249 C279 0.950 . S
C250 H232 0.951 . S
C250 C251 1.366 . S
C250 C252 1.388 . S
C251 C250 1.366 . S
C251 C255 1.385 . S
C252 H233 0.951 . S
C252 C250 1.388 . S
C252 C253 1.366 . S
C253 C252 1.366 . S
C253 C254 1.414 . S
C253 C256 1.499 . S
C254 H234 0.950 . S
C254 C253 1.414 . S
C254 C255 1.374 . S
C255 H235 0.950 . S
C255 C251 1.385 . S
C255 C254 1.374 . S
C256 C253 1.499 . S
C256 C257 1.373 . S
C256 C258 1.389 . S
C257 H236 0.950 . S
C257 C256 1.373 . S
C257 C273 1.377 . S
C258 C256 1.389 . S
C258 C259 1.524 . S
C258 C272 1.377 . S
C259 C258 1.524 . S
C259 C260 1.397 . S
C259 C264 1.363 . S
C260 H237 0.950 . S
C260 C259 1.397 . S
C260 C261 1.334 . S
C261 H238 0.950 . S
C261 C260 1.334 . S
C261 C262 1.287 . S
C262 C261 1.287 . S
C262 C263 1.524 . S
C262 H281 0.913 . S
C263 H239 0.950 . S
C263 C262 1.524 . S
C263 C264 1.415 . S
C264 H240 0.950 . S
C264 C259 1.363 . S
C264 C263 1.415 . S
C265 H241 0.951 . S
C265 C266 1.366 . S
C265 C267 1.388 . S
C266 C265 1.366 . S
C266 C270 1.385 . S
C267 H242 0.951 . S
C267 C265 1.388 . S
C267 C268 1.366 . S
C268 C267 1.366 . S
C268 C269 1.414 . S
C268 C271 1.499 . S
C269 H243 0.950 . S
C269 C268 1.414 . S
C269 C270 1.374 . S
C270 H244 0.950 . S
C270 C266 1.385 . S
C270 C269 1.374 . S
C271 C268 1.499 . S
C271 C272 1.373 . S
C271 C273 1.389 . S
C272 H245 0.950 . S
C272 C258 1.377 . S
C272 C271 1.373 . S
C273 C257 1.377 . S
C273 C271 1.389 . S
C273 C274 1.524 . S
C274 C273 1.524 . S
C274 C275 1.397 . S
C274 C279 1.363 . S
C275 H246 0.950 . S
C275 C274 1.397 . S
C275 C276 1.334 . S
C276 H247 0.950 . S
C276 C275 1.334 . S
C276 C277 1.287 . S
C277 C276 1.287 . S
C277 C278 1.524 . S
C277 H280 0.999 . S
C278 H248 0.950 . S
C278 C277 1.524 . S
C278 C279 1.415 . S
C279 H249 0.950 . S
C279 C274 1.363 . S
C279 C278 1.415 . S
H280 C277 0.999 . S
H281 C262 0.913 . S
H282 C300 0.951 . S
H283 C302 0.951 . S
H284 C304 0.950 . S
H285 C305 0.950 . S
H286 C307 0.950 . S
H287 C310 0.950 . S
H288 C311 0.950 . S
H289 C313 0.950 . S
H290 C314 0.950 . S
H291 C315 0.951 . S
H292 C317 0.951 . S
H293 C319 0.950 . S
H294 C320 0.950 . S
H295 C322 0.950 . S
H296 C325 0.950 . S
H297 C326 0.950 . S
H298 C328 0.950 . S
H299 C329 0.950 . S
C300 H282 0.951 . S
C300 C301 1.366 . S
C300 C302 1.388 . S
C301 C300 1.366 . S
C301 C305 1.385 . S
C302 H283 0.951 . S
C302 C300 1.388 . S
C302 C303 1.366 . S
C303 C302 1.366 . S
C303 C304 1.414 . S
C303 C306 1.499 . S
C304 H284 0.950 . S
C304 C303 1.414 . S
C304 C305 1.374 . S
C305 H285 0.950 . S
C305 C301 1.385 . S
C305 C304 1.374 . S
C306 C303 1.499 . S
C306 C307 1.373 . S
C306 C308 1.389 . S
C307 H286 0.950 . S
C307 C306 1.373 . S
C307 C323 1.377 . S
C308 C306 1.389 . S
C308 C309 1.524 . S
C308 C322 1.377 . S
C309 C308 1.524 . S
C309 C310 1.397 . S
C309 C314 1.363 . S
C310 H287 0.950 . S
C310 C309 1.397 . S
C310 C311 1.334 . S
C311 H288 0.950 . S
C311 C310 1.334 . S
C311 C312 1.287 . S
C312 C311 1.287 . S
C312 C313 1.524 . S
C312 H331 0.913 . S
C313 H289 0.950 . S
C313 C312 1.524 . S
C313 C314 1.415 . S
C314 H290 0.950 . S
C314 C309 1.363 . S
C314 C313 1.415 . S
C315 H291 0.951 . S
C315 C316 1.366 . S
C315 C317 1.388 . S
C316 C315 1.366 . S
C316 C320 1.385 . S
C317 H292 0.951 . S
C317 C315 1.388 . S
C317 C318 1.366 . S
C318 C317 1.366 . S
C318 C319 1.414 . S
C318 C321 1.499 . S
C319 H293 0.950 . S
C319 C318 1.414 . S
C319 C320 1.374 . S
C320 H294 0.950 . S
C320 C316 1.385 . S
C320 C319 1.374 . S
C321 C318 1.499 . S
C321 C322 1.373 . S
C321 C323 1.389 . S
C322 H295 0.950 . S
C322 C308 1.377 . S
C322 C321 1.373 . S
C323 C307 1.377 . S
C323 C321 1.389 . S
C323 C324 1.524 . S
C324 C323 1.524 . S
C324 C325 1.397 . S
C324 C329 1.363 . S
C325 H296 0.950 . S
C325 C324 1.397 . S
C325 C326 1.334 . S
C326 H297 0.950 . S
C326 C325 1.334 . S
C326 C327 1.287 . S
C327 C326 1.287 . S
C327 C328 1.524 . S
C327 H330 0.999 . S
C328 H298 0.950 . S
C328 C327 1.524 . S
C328 C329 1.415 . S
C329 H299 0.950 . S
C329 C324 1.363 . S
C329 C328 1.415 . S
H330 C327 0.999 . S
H331 C312 0.913 . S
H332 C350 0.951 . S
H333 C352 0.951 . S
H334 C354 0.950 . S
H335 C355 0.950 . S
H336 C357 0.950 . S
H337 C360 0.950 . S
H338 C361 0.950 . S
H339 C363 0.950 . S
H340 C364 0.950 . S
H341 C365 0.951 . S
H342 C367 0.951 . S
H343 C369 0.950 . S
H344 C370 0.950 . S
H345 C372 0.950 . S
H346 C375 0.950 . S
H347 C376 0.950 . S
H348 C378 0.950 . S
H349 C379 0.950 . S
C350 H332 0.951 . S
C350 C351 1.366 . S
C350 C352 1.388 . S
C351 C350 1.366 . S
C351 C355 1.385 . S
C352 H333 0.951 . S
C352 C350 1.388 . S
C352 C353 1.366 . S
C353 C352 1.366 . S
C353 C354 1.414 . S
C353 C356 1.499 . S
C354 H334 0.950 . S
C354 C353 1.414 . S
C354 C355 1.374 . S
C355 H335 0.950 . S
C355 C351 1.385 . S
C355 C354 1.374 . S
C356 C353 1.499 . S
C356 C357 1.373 . S
C356 C358 1.389 . S
C357 H336 0.950 . S
C357 C356 1.373 . S
C357 C373 1.377 . S
C358 C356 1.389 . S
C358 C359 1.524 . S
C358 C372 1.377 . S
C359 C358 1.524 . S
C359 C360 1.397 . S
C359 C364 1.363 . S
C360 H337 0.950 . S
C360 C359 1.397 . S
C360 C361 1.334 . S
C361 H338 0.950 . S
C361 C360 1.334 . S
C361 C362 1.287 . S
C362 C361 1.287 . S
C362 C363 1.524 . S
C362 H381 0.913 . S
C363 H339 0.950 . S
C363 C362 1.524 . S
C363 C364 1.415 . S
C364 H340 0.950 . S
C364 C359 1.363 . S
C364 C363 1.415 . S
C365 H341 0.951 . S
C365 C366 1.366 . S
C365 C367 1.388 . S
C366 C365 1.366 . S
C366 C370 1.385 . S
C367 H342 0.951 . S
C367 C365 1.388 . S
C367 C368 1.366 . S
C368 C367 1.366 . S
C368 C369 1.414 . S
C368 C371 1.499 . S
C369 H343 0.950 . S
C369 C368 1.414 . S
C369 C370 1.374 . S
C370 H344 0.950 . S
C370 C366 1.385 . S
C370 C369 1.374 . S
C371 C368 1.499 . S
C371 C372 1.373 . S
C371 C373 1.389 . S
C372 H345 0.950 . S
C372 C358 1.377 . S
C372 C371 1.373 . S
C373 C357 1.377 . S
C373 C371 1.389 . S
C373 C374 1.524 . S
C374 C373 1.524 . S
C374 C375 1.397 . S
C374 C379 1.363 . S
C375 H346 0.950 . S
C375 C374 1.397 . S
C375 C376 1.334 . S
C376 H347 0.950 . S
C376 C375 1.334 . S
C376 C377 1.287 . S
C377 C376 1.287 . S
C377 C378 1.524 . S
C377 H380 0.999 . S
C378 H348 0.950 . S
C378 C377 1.524 . S
C378 C379 1.415 . S
C379 H349 0.950 . S
C379 C374 1.363 . S
C379 C378 1.415 . S
H380 C377 0.999 . S
H381 C362 0.913 . S
H382 C400 0.951 . S
H383 C402 0.951 . S
H384 C404 0.950 . S
H385 C405 0.950 . S
H386 C407 0.950 . S
H387 C410 0.950 . S
H388 C411 0.950 . S
H389 C413 0.950 . S
H390 C414 0.950 . S
H391 C415 0.951 . S
H392 C417 0.951 . S
H393 C419 0.950 . S
H394 C420 0.950 . S
H395 C422 0.950 . S
H396 C425 0.950 . S
H397 C426 0.950 . S
H398 C428 0.950 . S
H399 C429 0.950 . S
C400 H382 0.951 . S
C400 C401 1.366 . S
C400 C402 1.388 . S
C401 C400 1.366 . S
C401 C405 1.385 . S
C402 H383 0.951 . S
C402 C400 1.388 . S
C402 C403 1.366 . S
C403 C402 1.366 . S
C403 C404 1.414 . S
C403 C406 1.499 . S
C404 H384 0.950 . S
C404 C403 1.414 . S
C404 C405 1.374 . S
C405 H385 0.950 . S
C405 C401 1.385 . S
C405 C404 1.374 . S
C406 C403 1.499 . S
C406 C407 1.373 . S
C406 C408 1.389 . S
C407 H386 0.950 . S
C407 C406 1.373 . S
C407 C423 1.377 . S
C408 C406 1.389 . S
C408 C409 1.524 . S
C408 C422 1.377 . S
C409 C408 1.524 . S
C409 C410 1.397 . S
C409 C414 1.363 . S
C410 H387 0.950 . S
C410 C409 1.397 . S
C410 C411 1.334 . S
C411 H388 0.950 . S
C411 C410 1.334 . S
C411 C412 1.287 . S
C412 C411 1.287 . S
C412 C413 1.524 . S
C412 H431 0.913 . S
C413 H389 0.950 . S
C413 C412 1.524 . S
C413 C414 1.415 . S
C414 H390 0.950 . S
C414 C409 1.363 . S
C414 C413 1.415 . S
C415 H391 0.951 . S
C415 C416 1.366 . S
C415 C417 1.388 . S
C416 C415 1.366 . S
C416 C420 1.385 . S
C417 H392 0.951 . S
C417 C415 1.388 . S
C417 C418 1.366 . S
C418 C417 1.366 . S
C418 C419 1.414 . S
C418 C421 1.499 . S
C419 H393 0.950 . S
C419 C418 1.414 . S
C419 C420 1.374 . S
C420 H394 0.950 . S
C420 C416 1.385 . S
C420 C419 1.374 . S
C421 C418 1.499 . S
C421 C422 1.373 . S
C421 C423 1.389 . S
C422 H395 0.950 . S
C422 C408 1.377 . S
C422 C421 1.373 . S
C423 C407 1.377 . S
C423 C421 1.389 . S
C423 C424 1.524 . S
C424 C423 1.524 . S
C424 C425 1.397 . S
C424 C429 1.363 . S
C425 H396 0.950 . S
C425 C424 1.397 . S
C425 C426 1.334 1_655 S
C426 H397 0.950 . S
C426 C425 1.334 1_455 S
C426 C427 1.287 . S
C427 C426 1.287 . S
C427 C428 1.524 1_455 S
C427 H430 0.999 . S
C428 H398 0.950 . S
C428 C427 1.524 1_655 S
C428 C429 1.415 . S
C429 H399 0.950 . S
C429 C424 1.363 . S
C429 C428 1.415 . S
H430 C427 0.999 . S
H431 C412 0.913 . S
H432 C450 0.951 . S
H433 C452 0.951 . S
H434 C454 0.950 . S
H435 C455 0.950 . S
H436 C457 0.950 . S
H437 C460 0.950 . S
H438 C461 0.950 . S
H439 C463 0.950 . S
H440 C464 0.950 . S
H441 C465 0.951 . S
H442 C467 0.951 . S
H443 C469 0.950 . S
H444 C470 0.950 . S
H445 C472 0.950 . S
H446 C475 0.950 . S
H447 C476 0.950 . S
H448 C478 0.950 . S
H449 C479 0.950 . S
C450 H432 0.951 . S
C450 C451 1.366 . S
C450 C452 1.388 . S
C451 C450 1.366 . S
C451 C455 1.385 . S
C452 H433 0.951 . S
C452 C450 1.388 . S
C452 C453 1.366 . S
C453 C452 1.366 . S
C453 C454 1.414 . S
C453 C456 1.499 . S
C454 H434 0.950 . S
C454 C453 1.414 . S
C454 C455 1.374 . S
C455 H435 0.950 . S
C455 C451 1.385 . S
C455 C454 1.374 . S
C456 C453 1.499 . S
C456 C457 1.373 . S
C456 C458 1.389 . S
C457 H436 0.950 . S
C457 C456 1.373 . S
C457 C473 1.377 . S
C458 C456 1.389 . S
C458 C459 1.524 . S
C458 C472 1.377 . S
C459 C458 1.524 . S
C459 C460 1.397 . S
C459 C464 1.363 . S
C460 H437 0.950 . S
C460 C459 1.397 . S
C460 C461 1.334 . S
C461 H438 0.950 . S
C461 C460 1.334 . S
C461 C462 1.287 . S
C462 C461 1.287 . S
C462 C463 1.524 . S
C462 H481 0.913 . S
C463 H439 0.950 . S
C463 C462 1.524 . S
C463 C464 1.415 . S
C464 H440 0.950 . S
C464 C459 1.363 . S
C464 C463 1.415 . S
C465 H441 0.951 . S
C465 C466 1.366 . S
C465 C467 1.388 . S
C466 C465 1.366 . S
C466 C470 1.385 . S
C467 H442 0.951 . S
C467 C465 1.388 . S
C467 C468 1.366 . S
C468 C467 1.366 . S
C468 C469 1.414 . S
C468 C471 1.499 . S
C469 H443 0.950 . S
C469 C468 1.414 . S
C469 C470 1.374 . S
C470 H444 0.950 . S
C470 C466 1.385 . S
C470 C469 1.374 . S
C471 C468 1.499 . S
C471 C472 1.373 . S
C471 C473 1.389 . S
C472 H445 0.950 . S
C472 C458 1.377 . S
C472 C471 1.373 . S
C473 C457 1.377 . S
C473 C471 1.389 . S
C473 C474 1.524 . S
C474 C473 1.524 . S
C474 C475 1.397 . S
C474 C479 1.363 . S
C475 H446 0.950 . S
C475 C474 1.397 . S
C475 C476 1.334 . S
C476 H447 0.950 . S
C476 C475 1.334 . S
C476 C477 1.287 1_554 S
C477 C476 1.287 1_556 S
C477 C478 1.524 . S
C477 H480 0.999 . S
C478 H448 0.950 . S
C478 C477 1.524 . S
C478 C479 1.415 1_556 S
C479 H449 0.950 . S
C479 C474 1.363 . S
C479 C478 1.415 1_554 S
H480 C477 0.999 . S
H481 C462 0.913 . S
H482 C500 0.951 . S
H483 C502 0.951 . S
H484 C504 0.950 . S
H485 C505 0.950 . S
H486 C507 0.950 . S
H487 C510 0.950 . S
H488 C511 0.950 . S
H489 C513 0.950 . S
H490 C514 0.950 . S
H491 C515 0.951 . S
H492 C517 0.951 . S
H493 C519 0.950 . S
H494 C520 0.950 . S
H495 C522 0.950 . S
H496 C525 0.950 . S
H497 C526 0.950 . S
H498 C528 0.950 . S
H499 C529 0.950 . S
C500 H482 0.951 . S
C500 C501 1.366 . S
C500 C502 1.388 . S
C501 C500 1.366 . S
C501 C505 1.385 . S
C502 H483 0.951 . S
C502 C500 1.388 . S
C502 C503 1.366 . S
C503 C502 1.366 . S
C503 C504 1.414 . S
C503 C506 1.499 . S
C504 H484 0.950 . S
C504 C503 1.414 . S
C504 C505 1.374 . S
C505 H485 0.950 . S
C505 C501 1.385 . S
C505 C504 1.374 . S
C506 C503 1.499 . S
C506 C507 1.373 . S
C506 C508 1.389 . S
C507 H486 0.950 . S
C507 C506 1.373 . S
C507 C523 1.377 . S
C508 C506 1.389 . S
C508 C509 1.524 . S
C508 C522 1.377 . S
C509 C508 1.524 . S
C509 C510 1.397 . S
C509 C514 1.363 . S
C510 H487 0.950 . S
C510 C509 1.397 . S
C510 C511 1.334 . S
C511 H488 0.950 . S
C511 C510 1.334 . S
C511 C512 1.287 . S
C512 C511 1.287 . S
C512 C513 1.524 . S
C512 H531 0.913 . S
C513 H489 0.950 . S
C513 C512 1.524 . S
C513 C514 1.415 . S
C514 H490 0.950 . S
C514 C509 1.363 . S
C514 C513 1.415 . S
C515 H491 0.951 . S
C515 C516 1.366 . S
C515 C517 1.388 . S
C516 C515 1.366 . S
C516 C520 1.385 . S
C517 H492 0.951 . S
C517 C515 1.388 . S
C517 C518 1.366 . S
C518 C517 1.366 . S
C518 C519 1.414 . S
C518 C521 1.499 . S
C519 H493 0.950 . S
C519 C518 1.414 . S
C519 C520 1.374 . S
C520 H494 0.950 . S
C520 C516 1.385 . S
C520 C519 1.374 . S
C521 C518 1.499 . S
C521 C522 1.373 . S
C521 C523 1.389 . S
C522 H495 0.950 . S
C522 C508 1.377 . S
C522 C521 1.373 . S
C523 C507 1.377 . S
C523 C521 1.389 . S
C523 C524 1.524 . S
C524 C523 1.524 . S
C524 C525 1.397 . S
C524 C529 1.363 . S
C525 H496 0.950 . S
C525 C524 1.397 . S
C525 C526 1.334 . S
C526 H497 0.950 . S
C526 C525 1.334 . S
C526 C527 1.287 . S
C527 C526 1.287 . S
C527 C528 1.524 . S
C527 H530 0.999 . S
C528 H498 0.950 . S
C528 C527 1.524 . S
C528 C529 1.415 . S
C529 H499 0.950 . S
C529 C524 1.363 . S
C529 C528 1.415 . S
H530 C527 0.999 . S
H531 C512 0.913 . S
H532 C550 0.951 . S
H533 C552 0.951 . S
H534 C554 0.950 . S
H535 C555 0.950 . S
H536 C557 0.950 . S
H537 C560 0.950 . S
H538 C561 0.950 . S
H539 C563 0.950 1_554 S
H540 C564 0.950 . S
H541 C565 0.951 . S
H542 C567 0.951 . S
H543 C569 0.950 . S
H544 C570 0.950 . S
H545 C572 0.950 . S
H546 C575 0.950 . S
H547 C576 0.950 . S
H548 C578 0.950 . S
H549 C579 0.950 . S
C550 H532 0.951 . S
C550 C551 1.366 . S
C550 C552 1.388 . S
C551 C550 1.366 . S
C551 C555 1.385 . S
C552 H533 0.951 . S
C552 C550 1.388 . S
C552 C553 1.366 . S
C553 C552 1.366 . S
C553 C554 1.414 . S
C553 C556 1.499 . S
C554 H534 0.950 . S
C554 C553 1.414 . S
C554 C555 1.374 . S
C555 H535 0.950 . S
C555 C551 1.385 . S
C555 C554 1.374 . S
C556 C553 1.499 . S
C556 C557 1.373 . S
C556 C558 1.389 . S
C557 H536 0.950 . S
C557 C556 1.373 . S
C557 C573 1.377 . S
C558 C556 1.389 . S
C558 C559 1.524 . S
C558 C572 1.377 . S
C559 C558 1.524 . S
C559 C560 1.397 . S
C559 C564 1.363 . S
C560 H537 0.950 . S
C560 C559 1.397 . S
C560 C561 1.334 . S
C561 H538 0.950 . S
C561 C560 1.334 . S
C561 C562 1.287 . S
C562 C561 1.287 . S
C562 C563 1.524 . S
C562 H581 0.913 1_556 S
C563 H539 0.950 1_556 S
C563 C562 1.524 . S
C563 C564 1.415 . S
C564 H540 0.950 . S
C564 C559 1.363 . S
C564 C563 1.415 . S
C565 H541 0.951 . S
C565 C566 1.366 . S
C565 C567 1.388 . S
C566 C565 1.366 . S
C566 C570 1.385 . S
C567 H542 0.951 . S
C567 C565 1.388 . S
C567 C568 1.366 . S
C568 C567 1.366 . S
C568 C569 1.414 . S
C568 C571 1.499 . S
C569 H543 0.950 . S
C569 C568 1.414 . S
C569 C570 1.374 . S
C570 H544 0.950 . S
C570 C566 1.385 . S
C570 C569 1.374 . S
C571 C568 1.499 . S
C571 C572 1.373 . S
C571 C573 1.389 . S
C572 H545 0.950 . S
C572 C558 1.377 . S
C572 C571 1.373 . S
C573 C557 1.377 . S
C573 C571 1.389 . S
C573 C574 1.524 . S
C574 C573 1.524 . S
C574 C575 1.397 . S
C574 C579 1.363 . S
C575 H546 0.950 . S
C575 C574 1.397 . S
C575 C576 1.334 . S
C576 H547 0.950 . S
C576 C575 1.334 . S
C576 C577 1.287 . S
C577 C576 1.287 . S
C577 C578 1.524 . S
C577 H580 0.999 . S
C578 H548 0.950 . S
C578 C577 1.524 . S
C578 C579 1.415 . S
C579 H549 0.950 . S
C579 C574 1.363 . S
C579 C578 1.415 . S
H580 C577 0.999 . S
H581 C562 0.913 1_554 S
H582 C600 0.951 . S
H583 C602 0.951 . S
H584 C604 0.950 . S
H585 C605 0.950 . S
H586 C607 0.950 . S
H587 C610 0.950 . S
H588 C611 0.950 . S
H589 C613 0.950 . S
H590 C614 0.950 . S
H591 C615 0.951 . S
H592 C617 0.951 . S
H593 C619 0.950 . S
H594 C620 0.950 . S
H595 C622 0.950 . S
H596 C625 0.950 . S
H597 C626 0.950 . S
H598 C628 0.950 . S
H599 C629 0.950 . S
C600 H582 0.951 . S
C600 C601 1.366 . S
C600 C602 1.388 . S
C601 C600 1.366 . S
C601 C605 1.385 . S
C602 H583 0.951 . S
C602 C600 1.388 . S
C602 C603 1.366 . S
C603 C602 1.366 . S
C603 C604 1.414 . S
C603 C606 1.499 . S
C604 H584 0.950 . S
C604 C603 1.414 . S
C604 C605 1.374 . S
C605 H585 0.950 . S
C605 C601 1.385 . S
C605 C604 1.374 . S
C606 C603 1.499 . S
C606 C607 1.373 . S
C606 C608 1.389 . S
C607 H586 0.950 . S
C607 C606 1.373 . S
C607 C623 1.377 . S
C608 C606 1.389 . S
C608 C609 1.524 . S
C608 C622 1.377 . S
C609 C608 1.524 . S
C609 C610 1.397 . S
C609 C614 1.363 . S
C610 H587 0.950 . S
C610 C609 1.397 . S
C610 C611 1.334 . S
C611 H588 0.950 . S
C611 C610 1.334 . S
C611 C612 1.287 . S
C612 C611 1.287 . S
C612 C613 1.524 . S
C612 H631 0.913 . S
C613 H589 0.950 . S
C613 C612 1.524 . S
C613 C614 1.415 . S
C614 H590 0.950 . S
C614 C609 1.363 . S
C614 C613 1.415 . S
C615 H591 0.951 . S
C615 C616 1.366 . S
C615 C617 1.388 . S
C616 C615 1.366 . S
C616 C620 1.385 . S
C617 H592 0.951 . S
C617 C615 1.388 . S
C617 C618 1.366 . S
C618 C617 1.366 . S
C618 C619 1.414 . S
C618 C621 1.499 . S
C619 H593 0.950 . S
C619 C618 1.414 . S
C619 C620 1.374 . S
C620 H594 0.950 . S
C620 C616 1.385 . S
C620 C619 1.374 . S
C621 C618 1.499 . S
C621 C622 1.373 . S
C621 C623 1.389 . S
C622 H595 0.950 . S
C622 C608 1.377 . S
C622 C621 1.373 . S
C623 C607 1.377 . S
C623 C621 1.389 . S
C623 C624 1.524 . S
C624 C623 1.524 . S
C624 C625 1.397 . S
C624 C629 1.363 . S
C625 H596 0.950 . S
C625 C624 1.397 . S
C625 C626 1.334 . S
C626 H597 0.950 . S
C626 C625 1.334 . S
C626 C627 1.287 . S
C627 C626 1.287 . S
C627 C628 1.524 . S
C627 H630 0.999 . S
C628 H598 0.950 . S
C628 C627 1.524 . S
C628 C629 1.415 . S
C629 H599 0.950 . S
C629 C624 1.363 . S
C629 C628 1.415 . S
H630 C627 0.999 . S
H631 C612 0.913 . S
H632 C650 0.951 . S
H633 C652 0.951 . S
H634 C654 0.950 . S
H635 C655 0.950 . S
H636 C657 0.950 . S
H637 C660 0.950 . S
H638 C661 0.950 . S
H639 C663 0.950 . S
H640 C664 0.950 . S
H641 C665 0.951 . S
H642 C667 0.951 . S
H643 C669 0.950 . S
H644 C670 0.950 . S
H645 C672 0.950 . S
H646 C675 0.950 . S
H647 C676 0.950 . S
H648 C678 0.950 . S
H649 C679 0.950 . S
C650 H632 0.951 . S
C650 C651 1.366 . S
C650 C652 1.388 . S
C651 C650 1.366 . S
C651 C655 1.385 . S
C652 H633 0.951 . S
C652 C650 1.388 . S
C652 C653 1.366 . S
C653 C652 1.366 . S
C653 C654 1.414 . S
C653 C656 1.499 . S
C654 H634 0.950 . S
C654 C653 1.414 . S
C654 C655 1.374 . S
C655 H635 0.950 . S
C655 C651 1.385 . S
C655 C654 1.374 . S
C656 C653 1.499 . S
C656 C657 1.373 . S
C656 C658 1.389 . S
C657 H636 0.950 . S
C657 C656 1.373 . S
C657 C673 1.377 . S
C658 C656 1.389 . S
C658 C659 1.524 . S
C658 C672 1.377 . S
C659 C658 1.524 . S
C659 C660 1.397 . S
C659 C664 1.363 . S
C660 H637 0.950 . S
C660 C659 1.397 . S
C660 C661 1.334 . S
C661 H638 0.950 . S
C661 C660 1.334 . S
C661 C662 1.287 . S
C662 C661 1.287 . S
C662 C663 1.524 . S
C662 H681 0.913 . S
C663 H639 0.950 . S
C663 C662 1.524 . S
C663 C664 1.415 . S
C664 H640 0.950 . S
C664 C659 1.363 . S
C664 C663 1.415 . S
C665 H641 0.951 . S
C665 C666 1.366 . S
C665 C667 1.388 . S
C666 C665 1.366 . S
C666 C670 1.385 . S
C667 H642 0.951 . S
C667 C665 1.388 . S
C667 C668 1.366 . S
C668 C667 1.366 . S
C668 C669 1.414 . S
C668 C671 1.499 . S
C669 H643 0.950 . S
C669 C668 1.414 . S
C669 C670 1.374 . S
C670 H644 0.950 . S
C670 C666 1.385 . S
C670 C669 1.374 . S
C671 C668 1.499 . S
C671 C672 1.373 . S
C671 C673 1.389 . S
C672 H645 0.950 . S
C672 C658 1.377 . S
C672 C671 1.373 . S
C673 C657 1.377 . S
C673 C671 1.389 . S
C673 C674 1.524 . S
C674 C673 1.524 . S
C674 C675 1.397 . S
C674 C679 1.363 . S
C675 H646 0.950 . S
C675 C674 1.397 . S
C675 C676 1.334 . S
C676 H647 0.950 . S
C676 C675 1.334 . S
C676 C677 1.287 . S
C677 C676 1.287 . S
C677 C678 1.524 . S
C677 H680 0.999 . S
C678 H648 0.950 . S
C678 C677 1.524 . S
C678 C679 1.415 . S
C679 H649 0.950 . S
C679 C674 1.363 . S
C679 C678 1.415 . S
H680 C677 0.999 . S
H681 C662 0.913 . S
H682 C700 0.951 . S
H683 C702 0.951 . S
H684 C704 0.950 . S
H685 C705 0.950 . S
H686 C707 0.950 . S
H687 C710 0.950 . S
H688 C711 0.950 . S
H689 C713 0.950 . S
H690 C714 0.950 . S
H691 C715 0.955 1_554 S
H692 C717 0.951 . S
H693 C719 0.950 . S
H694 C720 0.950 . S
H695 C722 0.950 . S
H696 C725 0.950 . S
H697 C726 0.950 . S
H698 C728 0.950 . S
H699 C729 0.950 . S
C700 H682 0.951 . S
C700 C701 1.366 . S
C700 C702 1.388 . S
C701 C700 1.366 . S
C701 C705 1.385 . S
C702 H683 0.951 . S
C702 C700 1.388 . S
C702 C703 1.366 . S
C703 C702 1.366 . S
C703 C704 1.414 . S
C703 C706 1.499 . S
C704 H684 0.950 . S
C704 C703 1.414 . S
C704 C705 1.374 . S
C705 H685 0.950 . S
C705 C701 1.385 . S
C705 C704 1.374 . S
C706 C703 1.499 . S
C706 C707 1.373 . S
C706 C708 1.389 . S
C707 H686 0.950 . S
C707 C706 1.373 . S
C707 C723 1.377 . S
C708 C706 1.389 . S
C708 C709 1.524 . S
C708 C722 1.377 . S
C709 C708 1.524 . S
C709 C710 1.397 . S
C709 C714 1.363 . S
C710 H687 0.950 . S
C710 C709 1.397 . S
C710 C711 1.334 . S
C711 H688 0.950 . S
C711 C710 1.334 . S
C711 C712 1.287 . S
C712 C711 1.287 . S
C712 C713 1.524 . S
C712 H731 0.913 . S
C713 H689 0.950 . S
C713 C712 1.524 . S
C713 C714 1.415 . S
C714 H690 0.950 . S
C714 C709 1.363 . S
C714 C713 1.415 . S
C715 H691 0.955 1_556 S
C715 C716 1.366 . S
C715 C717 1.388 . S
C716 C715 1.366 . S
C716 C720 1.385 . S
C717 H692 0.951 . S
C717 C715 1.388 . S
C717 C718 1.366 . S
C718 C717 1.366 . S
C718 C719 1.414 . S
C718 C721 1.499 . S
C719 H693 0.950 . S
C719 C718 1.414 . S
C719 C720 1.374 . S
C720 H694 0.950 . S
C720 C716 1.385 . S
C720 C719 1.374 . S
C721 C718 1.499 . S
C721 C722 1.373 . S
C721 C723 1.389 . S
C722 H695 0.950 . S
C722 C708 1.377 . S
C722 C721 1.373 . S
C723 C707 1.377 . S
C723 C721 1.389 . S
C723 C724 1.524 . S
C724 C723 1.524 . S
C724 C725 1.397 . S
C724 C729 1.363 . S
C725 H696 0.950 . S
C725 C724 1.397 . S
C725 C726 1.334 . S
C726 H697 0.950 . S
C726 C725 1.334 . S
C726 C727 1.287 . S
C727 C726 1.287 . S
C727 C728 1.524 1_556 S
C727 H730 0.999 1_556 S
C728 H698 0.950 . S
C728 C727 1.524 1_554 S
C728 C729 1.415 1_554 S
C729 H699 0.950 . S
C729 C724 1.363 . S
C729 C728 1.415 1_556 S
H730 C727 0.999 1_554 S
H731 C712 0.913 . S
H732 C750 0.951 . S
H733 C752 0.951 . S
H734 C754 0.950 . S
H735 C755 0.950 . S
H736 C757 0.950 . S
H737 C760 0.950 . S
H738 C761 0.950 . S
H739 C763 0.950 . S
H740 C764 0.950 . S
H741 C765 0.951 . S
H742 C767 0.951 . S
H743 C769 0.950 . S
H744 C770 0.950 . S
H745 C772 0.950 . S
H746 C775 0.950 . S
H747 C776 0.950 . S
H748 C778 0.950 . S
H749 C779 0.950 . S
C750 H732 0.951 . S
C750 C751 1.366 . S
C750 C752 1.388 . S
C751 C750 1.366 . S
C751 C755 1.385 . S
C752 H733 0.951 . S
C752 C750 1.388 . S
C752 C753 1.366 . S
C753 C752 1.366 . S
C753 C754 1.414 . S
C753 C756 1.499 . S
C754 H734 0.950 . S
C754 C753 1.414 . S
C754 C755 1.374 . S
C755 H735 0.950 . S
C755 C751 1.385 . S
C755 C754 1.374 . S
C756 C753 1.499 . S
C756 C757 1.373 . S
C756 C758 1.389 . S
C757 H736 0.950 . S
C757 C756 1.373 . S
C757 C773 1.377 . S
C758 C756 1.389 . S
C758 C759 1.524 . S
C758 C772 1.377 . S
C759 C758 1.524 . S
C759 C760 1.397 . S
C759 C764 1.363 . S
C760 H737 0.950 . S
C760 C759 1.397 . S
C760 C761 1.334 . S
C761 H738 0.950 . S
C761 C760 1.334 . S
C761 C762 1.287 1_655 S
C762 C761 1.287 1_455 S
C762 C763 1.524 . S
C762 H781 0.913 . S
C763 H739 0.950 . S
C763 C762 1.524 . S
C763 C764 1.415 1_455 S
C764 H740 0.950 . S
C764 C759 1.363 . S
C764 C763 1.415 1_655 S
C765 H741 0.951 . S
C765 C766 1.366 . S
C765 C767 1.388 . S
C766 C765 1.366 . S
C766 C770 1.385 . S
C767 H742 0.951 . S
C767 C765 1.388 . S
C767 C768 1.366 . S
C768 C767 1.366 . S
C768 C769 1.414 . S
C768 C771 1.499 . S
C769 H743 0.950 . S
C769 C768 1.414 . S
C769 C770 1.374 . S
C770 H744 0.950 . S
C770 C766 1.385 . S
C770 C769 1.374 . S
C771 C768 1.499 . S
C771 C772 1.373 . S
C771 C773 1.389 . S
C772 H745 0.950 . S
C772 C758 1.377 . S
C772 C771 1.373 . S
C773 C757 1.377 . S
C773 C771 1.389 . S
C773 C774 1.524 . S
C774 C773 1.524 . S
C774 C775 1.397 . S
C774 C779 1.363 . S
C775 H746 0.950 . S
C775 C774 1.397 . S
C775 C776 1.334 . S
C776 H747 0.950 . S
C776 C775 1.334 . S
C776 C777 1.287 . S
C777 C776 1.287 . S
C777 C778 1.524 . S
C777 H780 0.999 . S
C778 H748 0.950 . S
C778 C777 1.524 . S
C778 C779 1.415 . S
C779 H749 0.950 . S
C779 C774 1.363 . S
C779 C778 1.415 . S
H780 C777 0.999 . S
H781 C762 0.913 . S
H782 C800 0.951 . S
H783 C802 0.951 . S
H784 C804 0.950 . S
H785 C805 0.950 . S
H786 C807 0.950 . S
H787 C810 0.950 . S
H788 C811 0.950 . S
H789 C813 0.950 . S
H790 C814 0.950 . S
H791 C815 0.951 . S
H792 C817 0.951 . S
H793 C819 0.950 . S
H794 C820 0.950 . S
H795 C822 0.950 . S
H796 C825 0.950 . S
H797 C826 0.950 . S
H798 C828 0.950 . S
H799 C829 0.950 . S
C800 H782 0.951 . S
C800 C801 1.366 . S
C800 C802 1.388 . S
C801 C800 1.366 . S
C801 C805 1.385 . S
C802 H783 0.951 . S
C802 C800 1.388 . S
C802 C803 1.366 . S
C803 C802 1.366 . S
C803 C804 1.414 . S
C803 C806 1.499 . S
C804 H784 0.950 . S
C804 C803 1.414 . S
C804 C805 1.374 . S
C805 H785 0.950 . S
C805 C801 1.385 . S
C805 C804 1.374 . S
C806 C803 1.499 . S
C806 C807 1.373 . S
C806 C808 1.389 . S
C807 H786 0.950 . S
C807 C806 1.373 . S
C807 C823 1.377 . S
C808 C806 1.389 . S
C808 C809 1.524 . S
C808 C822 1.377 . S
C809 C808 1.524 . S
C809 C810 1.397 . S
C809 C814 1.363 . S
C810 H787 0.950 . S
C810 C809 1.397 . S
C810 C811 1.334 . S
C811 H788 0.950 . S
C811 C810 1.334 . S
C811 C812 1.287 . S
C812 C811 1.287 . S
C812 C813 1.524 . S
C812 H831 0.913 . S
C813 H789 0.950 . S
C813 C812 1.524 . S
C813 C814 1.415 . S
C814 H790 0.950 . S
C814 C809 1.363 . S
C814 C813 1.415 . S
C815 H791 0.951 . S
C815 C816 1.366 . S
C815 C817 1.388 . S
C816 C815 1.366 . S
C816 C820 1.385 . S
C817 H792 0.951 . S
C817 C815 1.388 . S
C817 C818 1.366 . S
C818 C817 1.366 . S
C818 C819 1.414 . S
C818 C821 1.499 . S
C819 H793 0.950 . S
C819 C818 1.414 . S
C819 C820 1.374 . S
C820 H794 0.950 . S
C820 C816 1.385 . S
C820 C819 1.374 . S
C821 C818 1.499 . S
C821 C822 1.373 . S
C821 C823 1.389 . S
C822 H795 0.950 . S
C822 C808 1.377 . S
C822 C821 1.373 . S
C823 C807 1.377 . S
C823 C821 1.389 . S
C823 C824 1.524 . S
C824 C823 1.524 . S
C824 C825 1.397 . S
C824 C829 1.363 . S
C825 H796 0.950 . S
C825 C824 1.397 . S
C825 C826 1.334 . S
C826 H797 0.950 . S
C826 C825 1.334 . S
C826 C827 1.287 . S
C827 C826 1.287 . S
C827 C828 1.524 . S
C827 H830 0.999 . S
C828 H798 0.950 . S
C828 C827 1.524 . S
C828 C829 1.415 . S
C829 H799 0.950 . S
C829 C824 1.363 . S
C829 C828 1.415 . S
H830 C827 0.999 . S
H831 C812 0.913 . S
H832 C850 0.951 . S
H833 C852 0.951 . S
H834 C854 0.950 . S
H835 C855 0.950 . S
H836 C857 0.950 . S
H837 C860 0.950 . S
H838 C861 0.950 . S
H839 C863 0.950 . S
H840 C864 0.950 . S
H841 C865 0.951 . S
H842 C867 0.951 . S
H843 C869 0.950 . S
H844 C870 0.950 . S
H845 C872 0.950 . S
H846 C875 0.950 . S
H847 C876 0.950 . S
H848 C878 0.950 . S
H849 C879 0.950 . S
C850 H832 0.951 . S
C850 C851 1.366 . S
C850 C852 1.388 . S
C851 C850 1.366 . S
C851 C855 1.385 . S
C852 H833 0.951 . S
C852 C850 1.388 . S
C852 C853 1.366 . S
C853 C852 1.366 . S
C853 C854 1.414 . S
C853 C856 1.499 . S
C854 H834 0.950 . S
C854 C853 1.414 . S
C854 C855 1.374 . S
C855 H835 0.950 . S
C855 C851 1.385 . S
C855 C854 1.374 . S
C856 C853 1.499 . S
C856 C857 1.373 . S
C856 C858 1.389 . S
C857 H836 0.950 . S
C857 C856 1.373 . S
C857 C873 1.377 . S
C858 C856 1.389 . S
C858 C859 1.524 . S
C858 C872 1.377 . S
C859 C858 1.524 . S
C859 C860 1.397 . S
C859 C864 1.363 . S
C860 H837 0.950 . S
C860 C859 1.397 . S
C860 C861 1.334 . S
C861 H838 0.950 . S
C861 C860 1.334 . S
C861 C862 1.287 . S
C862 C861 1.287 . S
C862 C863 1.524 . S
C862 H881 0.913 . S
C863 H839 0.950 . S
C863 C862 1.524 . S
C863 C864 1.415 . S
C864 H840 0.950 . S
C864 C859 1.363 . S
C864 C863 1.415 . S
C865 H841 0.951 . S
C865 C866 1.366 . S
C865 C867 1.388 . S
C866 C865 1.366 . S
C866 C870 1.385 . S
C867 H842 0.951 . S
C867 C865 1.388 . S
C867 C868 1.366 . S
C868 C867 1.366 . S
C868 C869 1.414 . S
C868 C871 1.499 . S
C869 H843 0.950 . S
C869 C868 1.414 . S
C869 C870 1.374 . S
C870 H844 0.950 . S
C870 C866 1.385 . S
C870 C869 1.374 . S
C871 C868 1.499 . S
C871 C872 1.373 . S
C871 C873 1.389 . S
C872 H845 0.950 . S
C872 C858 1.377 . S
C872 C871 1.373 . S
C873 C857 1.377 . S
C873 C871 1.389 . S
C873 C874 1.524 . S
C874 C873 1.524 . S
C874 C875 1.397 . S
C874 C879 1.363 . S
C875 H846 0.950 . S
C875 C874 1.397 . S
C875 C876 1.334 . S
C876 H847 0.950 . S
C876 C875 1.334 . S
C876 C877 1.287 . S
C877 C876 1.287 . S
C877 C878 1.524 . S
C877 H880 0.999 . S
C878 H848 0.950 . S
C878 C877 1.524 . S
C878 C879 1.415 . S
C879 H849 0.950 . S
C879 C874 1.363 . S
C879 C878 1.415 . S
H880 C877 0.999 . S
H881 C862 0.913 . S
H882 C900 0.951 . S
H883 C902 0.951 . S
H884 C904 0.950 . S
H885 C905 0.950 . S
H886 C907 0.950 . S
H887 C910 0.950 . S
H888 C911 0.950 . S
H889 C913 0.950 . S
H890 C914 0.950 . S
H891 C915 0.951 . S
H892 C917 0.951 . S
H893 C919 0.950 . S
H894 C920 0.950 . S
H895 C922 0.950 . S
H896 C925 0.950 . S
H897 C926 0.950 . S
H898 C928 0.950 . S
H899 C929 0.950 . S
C900 H882 0.951 . S
C900 C901 1.366 . S
C900 C902 1.388 . S
C901 C900 1.366 . S
C901 C905 1.385 . S
C902 H883 0.951 . S
C902 C900 1.388 . S
C902 C903 1.366 . S
C903 C902 1.366 . S
C903 C904 1.414 . S
C903 C906 1.499 . S
C904 H884 0.950 . S
C904 C903 1.414 . S
C904 C905 1.374 . S
C905 H885 0.950 . S
C905 C901 1.385 . S
C905 C904 1.374 . S
C906 C903 1.499 . S
C906 C907 1.373 . S
C906 C908 1.389 . S
C907 H886 0.950 . S
C907 C906 1.373 . S
C907 C923 1.377 . S
C908 C906 1.389 . S
C908 C909 1.524 . S
C908 C922 1.377 . S
C909 C908 1.524 . S
C909 C910 1.397 . S
C909 C914 1.363 . S
C910 H887 0.950 . S
C910 C909 1.397 . S
C910 C911 1.334 . S
C911 H888 0.950 . S
C911 C910 1.334 . S
C911 C912 1.287 . S
C912 C911 1.287 . S
C912 C913 1.524 . S
C912 H931 0.913 . S
C913 H889 0.950 . S
C913 C912 1.524 . S
C913 C914 1.415 . S
C914 H890 0.950 . S
C914 C909 1.363 . S
C914 C913 1.415 . S
C915 H891 0.951 . S
C915 C916 1.366 . S
C915 C917 1.388 . S
C916 C915 1.366 . S
C916 C920 1.385 . S
C917 H892 0.951 . S
C917 C915 1.388 . S
C917 C918 1.366 . S
C918 C917 1.366 . S
C918 C919 1.414 . S
C918 C921 1.499 . S
C919 H893 0.950 . S
C919 C918 1.414 . S
C919 C920 1.374 . S
C920 H894 0.950 . S
C920 C916 1.385 . S
C920 C919 1.374 . S
C921 C918 1.499 . S
C921 C922 1.373 . S
C921 C923 1.389 . S
C922 H895 0.950 . S
C922 C908 1.377 . S
C922 C921 1.373 . S
C923 C907 1.377 . S
C923 C921 1.389 . S
C923 C924 1.524 . S
C924 C923 1.524 . S
C924 C925 1.397 . S
C924 C929 1.363 . S
C925 H896 0.950 . S
C925 C924 1.397 . S
C925 C926 1.334 . S
C926 H897 0.950 . S
C926 C925 1.334 . S
C926 C927 1.287 . S
C927 C926 1.287 . S
C927 C928 1.524 . S
C927 H930 0.999 . S
C928 H898 0.950 . S
C928 C927 1.524 . S
C928 C929 1.415 . S
C929 H899 0.950 . S
C929 C924 1.363 . S
C929 C928 1.415 . S
H930 C927 0.999 . S
H931 C912 0.913 . S
H932 C950 0.951 . S
H933 C952 0.951 . S
H934 C954 0.950 . S
H935 C955 0.950 . S
H936 C957 0.950 . S
H937 C960 0.950 . S
H938 C961 0.950 . S
H939 C963 0.950 . S
H940 C964 0.950 . S
H941 C965 0.951 . S
H942 C967 0.951 . S
H943 C969 0.950 . S
H944 C970 0.950 . S
H945 C972 0.950 . S
H946 C975 0.950 . S
H947 C976 0.950 . S
H948 C978 0.950 . S
H949 C979 0.950 . S
C950 H932 0.951 . S
C950 C951 1.366 . S
C950 C952 1.388 . S
C951 C950 1.366 . S
C951 C955 1.385 . S
C952 H933 0.951 . S
C952 C950 1.388 . S
C952 C953 1.366 . S
C953 C952 1.366 . S
C953 C954 1.414 . S
C953 C956 1.499 . S
C954 H934 0.950 . S
C954 C953 1.414 . S
C954 C955 1.374 . S
C955 H935 0.950 . S
C955 C951 1.385 . S
C955 C954 1.374 . S
C956 C953 1.499 . S
C956 C957 1.373 . S
C956 C958 1.389 . S
C957 H936 0.950 . S
C957 C956 1.373 . S
C957 C973 1.377 . S
C958 C956 1.389 . S
C958 C959 1.524 . S
C958 C972 1.377 . S
C959 C958 1.524 . S
C959 C960 1.397 . S
C959 C964 1.363 . S
C960 H937 0.950 . S
C960 C959 1.397 . S
C960 C961 1.334 . S
C961 H938 0.950 . S
C961 C960 1.334 . S
C961 C962 1.287 . S
C962 C961 1.287 . S
C962 C963 1.524 . S
C962 H981 0.913 . S
C963 H939 0.950 . S
C963 C962 1.524 . S
C963 C964 1.415 . S
C964 H940 0.950 . S
C964 C959 1.363 . S
C964 C963 1.415 . S
C965 H941 0.951 . S
C965 C966 1.366 . S
C965 C967 1.388 . S
C966 C965 1.366 . S
C966 C970 1.385 . S
C967 H942 0.951 . S
C967 C965 1.388 . S
C967 C968 1.366 . S
C968 C967 1.366 . S
C968 C969 1.414 . S
C968 C971 1.499 . S
C969 H943 0.950 . S
C969 C968 1.414 . S
C969 C970 1.374 . S
C970 H944 0.950 . S
C970 C966 1.385 . S
C970 C969 1.374 . S
C971 C968 1.499 . S
C971 C972 1.373 . S
C971 C973 1.389 . S
C972 H945 0.950 . S
C972 C958 1.377 . S
C972 C971 1.373 . S
C973 C957 1.377 . S
C973 C971 1.389 . S
C973 C974 1.524 . S
C974 C973 1.524 . S
C974 C975 1.397 . S
C974 C979 1.363 . S
C975 H946 0.950 . S
C975 C974 1.397 . S
C975 C976 1.334 . S
C976 H947 0.950 . S
C976 C975 1.334 . S
C976 C977 1.287 . S
C977 C976 1.287 . S
C977 C978 1.524 . S
C977 H980 0.999 . S
C978 H948 0.950 . S
C978 C977 1.524 . S
C978 C979 1.415 . S
C979 H949 0.950 . S
C979 C974 1.363 . S
C979 C978 1.415 . S
H980 C977 0.999 . S
H981 C962 0.913 . S
H982 C1000 0.951 . S
H983 C1002 0.951 . S
H984 C1004 0.950 . S
H985 C1005 0.950 . S
H986 C1007 0.950 . S
H987 C1010 0.950 . S
H988 C1011 0.950 . S
H989 C1013 0.950 . S
H990 C1014 0.950 . S
H991 C1015 0.951 . S
H992 C1017 0.951 . S
H993 C1019 0.950 . S
H994 C1020 0.950 . S
H995 C1022 0.950 . S
H996 C1025 0.950 . S
H997 C1026 0.950 . S
H998 C1028 0.950 . S
H999 C1029 0.950 . S
C1000 H982 0.951 . S
C1000 C1001 1.366 . S
C1000 C1002 1.388 . S
C1001 C1000 1.366 . S
C1001 C1005 1.385 . S
C1002 H983 0.951 . S
C1002 C1000 1.388 . S
C1002 C1003 1.366 . S
C1003 C1002 1.366 . S
C1003 C1004 1.414 . S
C1003 C1006 1.499 . S
C1004 H984 0.950 . S
C1004 C1003 1.414 . S
C1004 C1005 1.374 . S
C1005 H985 0.950 . S
C1005 C1001 1.385 . S
C1005 C1004 1.374 . S
C1006 C1003 1.499 . S
C1006 C1007 1.373 . S
C1006 C1008 1.389 . S
C1007 H986 0.950 . S
C1007 C1006 1.373 . S
C1007 C1023 1.377 . S
C1008 C1006 1.389 . S
C1008 C1009 1.524 . S
C1008 C1022 1.377 . S
C1009 C1008 1.524 . S
C1009 C1010 1.397 . S
C1009 C1014 1.363 . S
C1010 H987 0.950 . S
C1010 C1009 1.397 . S
C1010 C1011 1.334 . S
C1011 H988 0.950 . S
C1011 C1010 1.334 . S
C1011 C1012 1.287 . S
C1012 C1011 1.287 . S
C1012 C1013 1.524 . S
C1012 H1031 0.913 . S
C1013 H989 0.950 . S
C1013 C1012 1.524 . S
C1013 C1014 1.415 . S
C1014 H990 0.950 . S
C1014 C1009 1.363 . S
C1014 C1013 1.415 . S
C1015 H991 0.951 . S
C1015 C1016 1.366 . S
C1015 C1017 1.388 . S
C1016 C1015 1.366 . S
C1016 C1020 1.385 . S
C1017 H992 0.951 . S
C1017 C1015 1.388 . S
C1017 C1018 1.366 . S
C1018 C1017 1.366 . S
C1018 C1019 1.414 . S
C1018 C1021 1.499 . S
C1019 H993 0.950 . S
C1019 C1018 1.414 . S
C1019 C1020 1.374 . S
C1020 H994 0.950 . S
C1020 C1016 1.385 . S
C1020 C1019 1.374 . S
C1021 C1018 1.499 . S
C1021 C1022 1.373 . S
C1021 C1023 1.389 . S
C1022 H995 0.950 . S
C1022 C1008 1.377 . S
C1022 C1021 1.373 . S
C1023 C1007 1.377 . S
C1023 C1021 1.389 . S
C1023 C1024 1.524 . S
C1024 C1023 1.524 . S
C1024 C1025 1.397 . S
C1024 C1029 1.363 . S
C1025 H996 0.950 . S
C1025 C1024 1.397 . S
C1025 C1026 1.334 . S
C1026 H997 0.950 . S
C1026 C1025 1.334 . S
C1026 C1027 1.287 . S
C1027 C1026 1.287 . S
C1027 C1028 1.524 . S
C1027 H1030 0.999 . S
C1028 H998 0.950 . S
C1028 C1027 1.524 . S
C1028 C1029 1.415 . S
C1029 H999 0.950 . S
C1029 C1024 1.363 . S
C1029 C1028 1.415 . S
H1030 C1027 0.999 . S
H1031 C1012 0.913 . S
H1032 C1050 0.951 . S
H1033 C1052 0.951 . S
H1034 C1054 0.950 . S
H1035 C1055 0.950 . S
H1036 C1057 0.950 . S
H1037 C1060 0.950 . S
H1038 C1061 0.950 . S
H1039 C1063 0.950 . S
H1040 C1064 0.950 . S
H1041 C1065 0.951 . S
H1042 C1067 0.951 . S
H1043 C1069 0.950 . S
H1044 C1070 0.950 . S
H1045 C1072 0.950 . S
H1046 C1075 0.950 . S
H1047 C1076 0.950 . S
H1048 C1078 0.950 . S
H1049 C1079 0.950 . S
C1050 H1032 0.951 . S
C1050 C1051 1.366 . S
C1050 C1052 1.388 . S
C1051 C1050 1.366 . S
C1051 C1055 1.385 . S
C1052 H1033 0.951 . S
C1052 C1050 1.388 . S
C1052 C1053 1.366 . S
C1053 C1052 1.366 . S
C1053 C1054 1.414 . S
C1053 C1056 1.499 . S
C1054 H1034 0.950 . S
C1054 C1053 1.414 . S
C1054 C1055 1.374 . S
C1055 H1035 0.950 . S
C1055 C1051 1.385 . S
C1055 C1054 1.374 . S
C1056 C1053 1.499 . S
C1056 C1057 1.373 . S
C1056 C1058 1.389 . S
C1057 H1036 0.950 . S
C1057 C1056 1.373 . S
C1057 C1073 1.377 . S
C1058 C1056 1.389 . S
C1058 C1059 1.524 . S
C1058 C1072 1.377 . S
C1059 C1058 1.524 . S
C1059 C1060 1.397 . S
C1059 C1064 1.363 . S
C1060 H1037 0.950 . S
C1060 C1059 1.397 . S
C1060 C1061 1.334 . S
C1061 H1038 0.950 . S
C1061 C1060 1.334 . S
C1061 C1062 1.287 . S
C1062 C1061 1.287 . S
C1062 C1063 1.524 . S
C1062 H1081 0.913 . S
C1063 H1039 0.950 . S
C1063 C1062 1.524 . S
C1063 C1064 1.415 . S
C1064 H1040 0.950 . S
C1064 C1059 1.363 . S
C1064 C1063 1.415 . S
C1065 H1041 0.951 . S
C1065 C1066 1.366 . S
C1065 C1067 1.388 . S
C1066 C1065 1.366 . S
C1066 C1070 1.385 . S
C1067 H1042 0.951 . S
C1067 C1065 1.388 . S
C1067 C1068 1.366 . S
C1068 C1067 1.366 . S
C1068 C1069 1.414 . S
C1068 C1071 1.499 . S
C1069 H1043 0.950 . S
C1069 C1068 1.414 . S
C1069 C1070 1.374 . S
C1070 H1044 0.950 . S
C1070 C1066 1.385 . S
C1070 C1069 1.374 . S
C1071 C1068 1.499 . S
C1071 C1072 1.373 . S
C1071 C1073 1.389 . S
C1072 H1045 0.950 . S
C1072 C1058 1.377 . S
C1072 C1071 1.373 . S
C1073 C1057 1.377 . S
C1073 C1071 1.389 . S
C1073 C1074 1.524 . S
C1074 C1073 1.524 . S
C1074 C1075 1.397 . S
C1074 C1079 1.363 . S
C1075 H1046 0.950 . S
C1075 C1074 1.397 . S
C1075 C1076 1.334 . S
C1076 H1047 0.950 . S
C1076 C1075 1.334 . S
C1076 C1077 1.287 . S
C1077 C1076 1.287 . S
C1077 C1078 1.524 . S
C1077 H1080 0.999 . S
C1078 H1048 0.950 . S
C1078 C1077 1.524 . S
C1078 C1079 1.415 . S
C1079 H1049 0.950 . S
C1079 C1074 1.363 . S
C1079 C1078 1.415 . S
H1080 C1077 0.999 . S
H1081 C1062 0.913 . S
H1082 C1100 0.951 . S
H1083 C1102 0.951 . S
H1084 C1104 0.950 . S
H1085 C1105 0.950 . S
H1086 C1107 0.950 . S
H1087 C1110 0.950 . S
H1088 C1111 0.950 . S
H1089 C1113 0.950 1_455 S
H1090 C1114 0.950 . S
H1091 C1115 0.951 . S
H1092 C1117 0.951 . S
H1093 C1119 0.950 . S
H1094 C1120 0.985 . S
H1095 C1122 0.950 . S
H1096 C1125 0.950 . S
H1097 C1126 0.950 . S
H1098 C1128 0.950 . S
H1099 C1129 0.950 . S
C1100 H1082 0.951 . S
C1100 C1101 1.366 . S
C1100 C1102 1.388 . S
C1101 C1100 1.366 . S
C1101 C1105 1.385 . S
C1102 H1083 0.951 . S
C1102 C1100 1.388 . S
C1102 C1103 1.366 . S
C1103 C1102 1.366 . S
C1103 C1104 1.414 . S
C1103 C1106 1.499 . S
C1104 H1084 0.950 . S
C1104 C1103 1.414 . S
C1104 C1105 1.374 . S
C1105 H1085 0.950 . S
C1105 C1101 1.385 . S
C1105 C1104 1.374 . S
C1106 C1103 1.499 . S
C1106 C1107 1.373 . S
C1106 C1108 1.389 . S
C1107 H1086 0.950 . S
C1107 C1106 1.373 . S
C1107 C1123 1.377 . S
C1108 C1106 1.389 . S
C1108 C1109 1.524 . S
C1108 C1122 1.377 . S
C1109 C1108 1.524 . S
C1109 C1110 1.397 . S
C1109 C1114 1.363 . S
C1110 H1087 0.950 . S
C1110 C1109 1.397 . S
C1110 C1111 1.334 . S
C1111 H1088 0.950 . S
C1111 C1110 1.334 . S
C1111 C1112 1.287 . S
C1112 C1111 1.287 . S
C1112 C1113 1.524 . S
C1112 H1131 0.913 . S
C1113 H1089 0.950 1_655 S
C1113 C1112 1.524 . S
C1113 C1114 1.415 . S
C1114 H1090 0.950 . S
C1114 C1109 1.363 . S
C1114 C1113 1.415 . S
C1115 H1091 0.951 . S
C1115 C1116 1.366 . S
C1115 C1117 1.388 . S
C1116 C1115 1.366 . S
C1116 C1120 1.385 . S
C1117 H1092 0.951 . S
C1117 C1115 1.388 . S
C1117 C1118 1.366 . S
C1118 C1117 1.366 . S
C1118 C1119 1.414 . S
C1118 C1121 1.499 . S
C1119 H1093 0.950 . S
C1119 C1118 1.414 . S
C1119 C1120 1.374 . S
C1120 H1094 0.985 . S
C1120 C1116 1.385 . S
C1120 C1119 1.374 . S
C1121 C1118 1.499 . S
C1121 C1122 1.373 . S
C1121 C1123 1.389 . S
C1122 H1095 0.950 . S
C1122 C1108 1.377 . S
C1122 C1121 1.373 . S
C1123 C1107 1.377 . S
C1123 C1121 1.389 . S
C1123 C1124 1.524 . S
C1124 C1123 1.524 . S
C1124 C1125 1.397 . S
C1124 C1129 1.363 . S
C1125 H1096 0.950 . S
C1125 C1124 1.397 . S
C1125 C1126 1.334 . S
C1126 H1097 0.950 . S
C1126 C1125 1.334 . S
C1126 C1127 1.287 . S
C1127 C1126 1.287 . S
C1127 C1128 1.524 . S
C1127 H1130 0.999 . S
C1128 H1098 0.950 . S
C1128 C1127 1.524 . S
C1128 C1129 1.415 . S
C1129 H1099 0.950 . S
C1129 C1124 1.363 . S
C1129 C1128 1.415 . S
H1130 C1127 0.999 . S
H1131 C1112 0.913 . S
H1132 C1150 0.951 . S
H1133 C1152 0.951 . S
H1134 C1154 0.950 . S
H1135 C1155 0.950 . S
H1136 C1157 0.950 . S
H1137 C1160 0.950 . S
H1138 C1161 0.950 . S
H1139 C1163 0.950 . S
H1140 C1164 0.950 . S
H1141 C1165 0.951 . S
H1142 C1167 0.951 . S
H1143 C1169 0.950 . S
H1144 C1170 0.950 . S
H1145 C1172 0.950 . S
H1146 C1175 0.950 . S
H1147 C1176 0.950 . S
H1148 C1178 0.950 . S
H1149 C1179 0.950 . S
C1150 H1132 0.951 . S
C1150 C1151 1.366 . S
C1150 C1152 1.388 . S
C1151 C1150 1.366 . S
C1151 C1155 1.385 . S
C1152 H1133 0.951 . S
C1152 C1150 1.388 . S
C1152 C1153 1.366 . S
C1153 C1152 1.366 . S
C1153 C1154 1.414 . S
C1153 C1156 1.499 . S
C1154 H1134 0.950 . S
C1154 C1153 1.414 . S
C1154 C1155 1.374 . S
C1155 H1135 0.950 . S
C1155 C1151 1.385 . S
C1155 C1154 1.374 . S
C1156 C1153 1.499 . S
C1156 C1157 1.373 . S
C1156 C1158 1.389 . S
C1157 H1136 0.950 . S
C1157 C1156 1.373 . S
C1157 C1173 1.377 . S
C1158 C1156 1.389 . S
C1158 C1159 1.524 . S
C1158 C1172 1.377 . S
C1159 C1158 1.524 . S
C1159 C1160 1.397 . S
C1159 C1164 1.363 . S
C1160 H1137 0.950 . S
C1160 C1159 1.397 . S
C1160 C1161 1.334 . S
C1161 H1138 0.950 . S
C1161 C1160 1.334 . S
C1161 C1162 1.287 . S
C1162 C1161 1.287 . S
C1162 C1163 1.524 . S
C1162 H1181 0.913 . S
C1163 H1139 0.950 . S
C1163 C1162 1.524 . S
C1163 C1164 1.415 . S
C1164 H1140 0.950 . S
C1164 C1159 1.363 . S
C1164 C1163 1.415 . S
C1165 H1141 0.951 . S
C1165 C1166 1.366 . S
C1165 C1167 1.388 . S
C1166 C1165 1.366 . S
C1166 C1170 1.385 . S
C1167 H1142 0.951 . S
C1167 C1165 1.388 . S
C1167 C1168 1.366 . S
C1168 C1167 1.366 . S
C1168 C1169 1.414 . S
C1168 C1171 1.499 . S
C1169 H1143 0.950 . S
C1169 C1168 1.414 . S
C1169 C1170 1.374 . S
C1170 H1144 0.950 . S
C1170 C1166 1.385 . S
C1170 C1169 1.374 . S
C1171 C1168 1.499 . S
C1171 C1172 1.373 . S
C1171 C1173 1.389 . S
C1172 H1145 0.950 . S
C1172 C1158 1.377 . S
C1172 C1171 1.373 . S
C1173 C1157 1.377 . S
C1173 C1171 1.389 . S
C1173 C1174 1.524 . S
C1174 C1173 1.524 . S
C1174 C1175 1.397 . S
C1174 C1179 1.363 . S
C1175 H1146 0.950 . S
C1175 C1174 1.397 . S
C1175 C1176 1.334 1_554 S
C1176 H1147 0.950 . S
C1176 C1175 1.334 1_556 S
C1176 C1177 1.287 . S
C1177 C1176 1.287 . S
C1177 C1178 1.524 . S
C1177 H1180 0.999 . S
C1178 H1148 0.950 . S
C1178 C1177 1.524 . S
C1178 C1179 1.415 1_556 S
C1179 H1149 0.950 . S
C1179 C1174 1.363 . S
C1179 C1178 1.415 1_554 S
H1180 C1177 0.999 . S
H1181 C1162 0.913 . S
H1182 C1200 0.951 . S
H1183 C1202 0.951 . S
H1184 C1204 0.950 . S
H1185 C1205 0.950 . S
H1186 C1207 0.950 . S
H1187 C1210 0.950 . S
H1188 C1211 0.950 . S
H1189 C1213 0.950 . S
H1190 C1214 0.950 . S
H1191 C1215 0.951 . S
H1192 C1217 0.951 . S
H1193 C1219 0.950 . S
H1194 C1220 0.950 . S
H1195 C1222 0.950 . S
H1196 C1225 0.950 . S
H1197 C1226 0.950 . S
H1198 C1228 0.950 . S
H1199 C1229 0.950 . S
C1200 H1182 0.951 . S
C1200 C1201 1.366 . S
C1200 C1202 1.388 . S
C1201 C1200 1.366 . S
C1201 C1205 1.385 . S
C1202 H1183 0.951 . S
C1202 C1200 1.388 . S
C1202 C1203 1.366 . S
C1203 C1202 1.366 . S
C1203 C1204 1.414 . S
C1203 C1206 1.499 . S
C1204 H1184 0.950 . S
C1204 C1203 1.414 . S
C1204 C1205 1.374 . S
C1205 H1185 0.950 . S
C1205 C1201 1.385 . S
C1205 C1204 1.374 . S
C1206 C1203 1.499 . S
C1206 C1207 1.373 . S
C1206 C1208 1.389 . S
C1207 H1186 0.950 . S
C1207 C1206 1.373 . S
C1207 C1223 1.377 . S
C1208 C1206 1.389 . S
C1208 C1209 1.524 . S
C1208 C1222 1.377 . S
C1209 C1208 1.524 . S
C1209 C1210 1.397 . S
C1209 C1214 1.363 . S
C1210 H1187 0.950 . S
C1210 C1209 1.397 . S
C1210 C1211 1.334 . S
C1211 H1188 0.950 . S
C1211 C1210 1.334 . S
C1211 C1212 1.287 . S
C1212 C1211 1.287 . S
C1212 C1213 1.524 . S
C1212 H1231 0.913 . S
C1213 H1189 0.950 . S
C1213 C1212 1.524 . S
C1213 C1214 1.415 . S
C1214 H1190 0.950 . S
C1214 C1209 1.363 . S
C1214 C1213 1.415 . S
C1215 H1191 0.951 . S
C1215 C1216 1.366 . S
C1215 C1217 1.388 . S
C1216 C1215 1.366 . S
C1216 C1220 1.385 . S
C1217 H1192 0.951 . S
C1217 C1215 1.388 . S
C1217 C1218 1.366 . S
C1218 C1217 1.366 . S
C1218 C1219 1.414 . S
C1218 C1221 1.499 . S
C1219 H1193 0.950 . S
C1219 C1218 1.414 . S
C1219 C1220 1.374 . S
C1220 H1194 0.950 . S
C1220 C1216 1.385 . S
C1220 C1219 1.374 . S
C1221 C1218 1.499 . S
C1221 C1222 1.373 . S
C1221 C1223 1.389 . S
C1222 H1195 0.950 . S
C1222 C1208 1.377 . S
C1222 C1221 1.373 . S
C1223 C1207 1.377 . S
C1223 C1221 1.389 . S
C1223 C1224 1.524 . S
C1224 C1223 1.524 . S
C1224 C1225 1.397 . S
C1224 C1229 1.363 . S
C1225 H1196 0.950 . S
C1225 C1224 1.397 . S
C1225 C1226 1.334 . S
C1226 H1197 0.950 . S
C1226 C1225 1.334 . S
C1226 C1227 1.287 . S
C1227 C1226 1.287 . S
C1227 C1228 1.524 . S
C1227 H1230 0.999 . S
C1228 H1198 0.950 . S
C1228 C1227 1.524 . S
C1228 C1229 1.415 . S
C1229 H1199 0.950 . S
C1229 C1224 1.363 . S
C1229 C1228 1.415 . S
H1230 C1227 0.999 . S
H1231 C1212 0.913 . S
H1232 C1250 0.951 . S
H1233 C1252 0.951 . S
H1234 C1254 0.950 . S
H1235 C1255 0.950 . S
H1236 C1257 0.950 . S
H1237 C1260 0.950 . S
H1238 C1261 0.950 . S
H1239 C1263 0.950 . S
H1240 C1264 0.950 . S
H1241 C1265 0.951 . S
H1242 C1267 0.951 . S
H1243 C1269 0.950 . S
H1244 C1270 0.950 . S
H1245 C1272 0.950 . S
H1246 C1275 0.950 . S
H1247 C1276 0.950 . S
H1248 C1278 0.950 . S
H1249 C1279 0.950 . S
C1250 H1232 0.951 . S
C1250 C1251 1.366 . S
C1250 C1252 1.388 . S
C1251 C1250 1.366 . S
C1251 C1255 1.385 . S
C1252 H1233 0.951 . S
C1252 C1250 1.388 . S
C1252 C1253 1.366 . S
C1253 C1252 1.366 . S
C1253 C1254 1.414 . S
C1253 C1256 1.499 . S
C1254 H1234 0.950 . S
C1254 C1253 1.414 . S
C1254 C1255 1.374 . S
C1255 H1235 0.950 . S
C1255 C1251 1.385 . S
C1255 C1254 1.374 . S
C1256 C1253 1.499 . S
C1256 C1257 1.373 . S
C1256 C1258 1.389 . S
C1257 H1236 0.950 . S
C1257 C1256 1.373 . S
C1257 C1273 1.377 . S
C1258 C1256 1.389 . S
C1258 C1259 1.524 . S
C1258 C1272 1.377 . S
C1259 C1258 1.524 . S
C1259 C1260 1.397 . S
C1259 C1264 1.363 . S
C1260 H1237 0.950 . S
C1260 C1259 1.397 . S
C1260 C1261 1.334 . S
C1261 H1238 0.950 . S
C1261 C1260 1.334 . S
C1261 C1262 1.287 . S
C1262 C1261 1.287 . S
C1262 C1263 1.524 . S
C1262 H1281 0.913 . S
C1263 H1239 0.950 . S
C1263 C1262 1.524 . S
C1263 C1264 1.415 . S
C1264 H1240 0.950 . S
C1264 C1259 1.363 . S
C1264 C1263 1.415 . S
C1265 H1241 0.951 . S
C1265 C1266 1.366 . S
C1265 C1267 1.388 . S
C1266 C1265 1.366 . S
C1266 C1270 1.385 . S
C1267 H1242 0.951 . S
C1267 C1265 1.388 . S
C1267 C1268 1.366 . S
C1268 C1267 1.366 . S
C1268 C1269 1.414 . S
C1268 C1271 1.499 . S
C1269 H1243 0.950 . S
C1269 C1268 1.414 . S
C1269 C1270 1.374 . S
C1270 H1244 0.950 . S
C1270 C1266 1.385 . S
C1270 C1269 1.374 . S
C1271 C1268 1.499 . S
C1271 C1272 1.373 . S
C1271 C1273 1.389 . S
C1272 H1245 0.950 . S
C1272 C1258 1.377 . S
C1272 C1271 1.373 . S
C1273 C1257 1.377 . S
C1273 C1271 1.389 . S
C1273 C1274 1.524 . S
C1274 C1273 1.524 . S
C1274 C1275 1.397 . S
C1274 C1279 1.363 . S
C1275 H1246 0.950 . S
C1275 C1274 1.397 . S
C1275 C1276 1.334 . S
C1276 H1247 0.950 . S
C1276 C1275 1.334 . S
C1276 C1277 1.287 . S
C1277 C1276 1.287 . S
C1277 C1278 1.524 . S
C1277 H1280 0.999 . S
C1278 H1248 0.950 . S
C1278 C1277 1.524 . S
C1278 C1279 1.415 . S
C1279 H1249 0.950 . S
C1279 C1274 1.363 . S
C1279 C1278 1.415 . S
H1280 C1277 0.999 . S
H1281 C1262 0.913 . S
H1282 C1300 0.951 . S
H1283 C1302 0.951 . S
H1284 C1304 0.950 . S
H1285 C1305 0.950 . S
H1286 C1307 0.950 . S
H1287 C1310 0.950 . S
H1288 C1311 0.950 . S
H1289 C1313 0.950 . S
H1290 C1314 0.950 . S
H1291 C1315 0.951 . S
H1292 C1317 0.951 . S
H1293 C1319 0.950 . S
H1294 C1320 0.950 . S
H1295 C1322 0.950 . S
H1296 C1325 0.950 . S
H1297 C1326 0.950 . S
H1298 C1328 0.950 . S
H1299 C1329 0.950 . S
C1300 H1282 0.951 . S
C1300 C1301 1.366 . S
C1300 C1302 1.388 . S
C1301 C1300 1.366 . S
C1301 C1305 1.385 . S
C1302 H1283 0.951 . S
C1302 C1300 1.388 . S
C1302 C1303 1.366 . S
C1303 C1302 1.366 . S
C1303 C1304 1.414 . S
C1303 C1306 1.499 . S
C1304 H1284 0.950 . S
C1304 C1303 1.414 . S
C1304 C1305 1.374 . S
C1305 H1285 0.950 . S
C1305 C1301 1.385 . S
C1305 C1304 1.374 . S
C1306 C1303 1.499 . S
C1306 C1307 1.373 . S
C1306 C1308 1.389 . S
C1307 H1286 0.950 . S
C1307 C1306 1.373 . S
C1307 C1323 1.377 . S
C1308 C1306 1.389 . S
C1308 C1309 1.524 . S
C1308 C1322 1.377 . S
C1309 C1308 1.524 . S
C1309 C1310 1.397 . S
C1309 C1314 1.363 . S
C1310 H1287 0.950 . S
C1310 C1309 1.397 . S
C1310 C1311 1.334 . S
C1311 H1288 0.950 . S
C1311 C1310 1.334 . S
C1311 C1312 1.287 . S
C1312 C1311 1.287 . S
C1312 C1313 1.524 . S
C1312 H1331 0.913 . S
C1313 H1289 0.950 . S
C1313 C1312 1.524 . S
C1313 C1314 1.415 . S
C1314 H1290 0.950 . S
C1314 C1309 1.363 . S
C1314 C1313 1.415 . S
C1315 H1291 0.951 . S
C1315 C1316 1.366 . S
C1315 C1317 1.388 . S
C1316 C1315 1.366 . S
C1316 C1320 1.385 . S
C1317 H1292 0.951 . S
C1317 C1315 1.388 . S
C1317 C1318 1.366 . S
C1318 C1317 1.366 . S
C1318 C1319 1.414 . S
C1318 C1321 1.499 . S
C1319 H1293 0.950 . S
C1319 C1318 1.414 . S
C1319 C1320 1.374 . S
C1320 H1294 0.950 . S
C1320 C1316 1.385 . S
C1320 C1319 1.374 . S
C1321 C1318 1.499 . S
C1321 C1322 1.373 . S
C1321 C1323 1.389 . S
C1322 H1295 0.950 . S
C1322 C1308 1.377 . S
C1322 C1321 1.373 . S
C1323 C1307 1.377 . S
C1323 C1321 1.389 . S
C1323 C1324 1.524 . S
C1324 C1323 1.524 . S
C1324 C1325 1.397 . S
C1324 C1329 1.363 . S
C1325 H1296 0.950 . S
C1325 C1324 1.397 . S
C1325 C1326 1.334 1_554 S
C1326 H1297 0.950 . S
C1326 C1325 1.334 1_556 S
C1326 C1327 1.287 . S
C1327 C1326 1.287 . S
C1327 C1328 1.524 . S
C1327 H1330 0.999 . S
C1328 H1298 0.950 . S
C1328 C1327 1.524 . S
C1328 C1329 1.415 1_556 S
C1329 H1299 0.950 . S
C1329 C1324 1.363 . S
C1329 C1328 1.415 1_554 S
H1330 C1327 0.999 . S
H1331 C1312 0.913 . S
H1332 C1350 0.951 . S
H1333 C1352 0.951 . S
H1334 C1354 0.950 . S
H1335 C1355 0.950 . S
H1336 C1357 0.950 . S
H1337 C1360 0.950 . S
H1338 C1361 0.950 . S
H1339 C1363 0.950 . S
H1340 C1364 0.950 . S
H1341 C1365 0.951 . S
H1342 C1367 0.951 . S
H1343 C1369 0.950 . S
H1344 C1370 0.950 . S
H1345 C1372 0.950 . S
H1346 C1375 0.950 . S
H1347 C1376 0.950 . S
H1348 C1378 0.950 . S
H1349 C1379 0.950 . S
C1350 H1332 0.951 . S
C1350 C1351 1.366 . S
C1350 C1352 1.388 . S
C1351 C1350 1.366 . S
C1351 C1355 1.385 . S
C1352 H1333 0.951 . S
C1352 C1350 1.388 . S
C1352 C1353 1.366 . S
C1353 C1352 1.366 . S
C1353 C1354 1.414 . S
C1353 C1356 1.499 . S
C1354 H1334 0.950 . S
C1354 C1353 1.414 . S
C1354 C1355 1.374 . S
C1355 H1335 0.950 . S
C1355 C1351 1.385 . S
C1355 C1354 1.374 . S
C1356 C1353 1.499 . S
C1356 C1357 1.373 . S
C1356 C1358 1.389 . S
C1357 H1336 0.950 . S
C1357 C1356 1.373 . S
C1357 C1373 1.377 . S
C1358 C1356 1.389 . S
C1358 C1359 1.524 . S
C1358 C1372 1.377 . S
C1359 C1358 1.524 . S
C1359 C1360 1.397 . S
C1359 C1364 1.363 . S
C1360 H1337 0.950 . S
C1360 C1359 1.397 . S
C1360 C1361 1.334 . S
C1361 H1338 0.950 . S
C1361 C1360 1.334 . S
C1361 C1362 1.287 . S
C1362 C1361 1.287 . S
C1362 C1363 1.524 . S
C1362 H1381 0.913 . S
C1363 H1339 0.950 . S
C1363 C1362 1.524 . S
C1363 C1364 1.415 . S
C1364 H1340 0.950 . S
C1364 C1359 1.363 . S
C1364 C1363 1.415 . S
C1365 H1341 0.951 . S
C1365 C1366 1.366 . S
C1365 C1367 1.388 . S
C1366 C1365 1.366 . S
C1366 C1370 1.385 . S
C1367 H1342 0.951 . S
C1367 C1365 1.388 . S
C1367 C1368 1.366 . S
C1368 C1367 1.366 . S
C1368 C1369 1.414 . S
C1368 C1371 1.499 . S
C1369 H1343 0.950 . S
C1369 C1368 1.414 . S
C1369 C1370 1.374 . S
C1370 H1344 0.950 . S
C1370 C1366 1.385 . S
C1370 C1369 1.374 . S
C1371 C1368 1.499 . S
C1371 C1372 1.373 . S
C1371 C1373 1.389 . S
C1372 H1345 0.950 . S
C1372 C1358 1.377 . S
C1372 C1371 1.373 . S
C1373 C1357 1.377 . S
C1373 C1371 1.389 . S
C1373 C1374 1.524 . S
C1374 C1373 1.524 . S
C1374 C1375 1.397 . S
C1374 C1379 1.363 . S
C1375 H1346 0.950 . S
C1375 C1374 1.397 . S
C1375 C1376 1.334 1_455 S
C1376 H1347 0.950 . S
C1376 C1375 1.334 1_655 S
C1376 C1377 1.287 . S
C1377 C1376 1.287 . S
C1377 C1378 1.524 . S
C1377 H1380 0.999 . S
C1378 H1348 0.950 . S
C1378 C1377 1.524 . S
C1378 C1379 1.415 1_655 S
C1379 H1349 0.950 . S
C1379 C1374 1.363 . S
C1379 C1378 1.415 1_455 S
H1380 C1377 0.999 . S
H1381 C1362 0.913 . S
H1382 C1400 0.951 . S
H1383 C1402 0.951 . S
H1384 C1404 0.950 . S
H1385 C1405 0.950 . S
H1386 C1407 0.950 . S
H1387 C1410 0.950 . S
H1388 C1411 0.950 . S
H1389 C1413 0.950 . S
H1390 C1414 0.950 . S
H1391 C1415 0.951 . S
H1392 C1417 0.951 . S
H1393 C1419 0.950 . S
H1394 C1420 0.950 . S
H1395 C1422 0.950 . S
H1396 C1425 0.950 . S
H1397 C1426 0.950 . S
H1398 C1428 0.950 . S
H1399 C1429 0.950 . S
C1400 H1382 0.951 . S
C1400 C1401 1.366 . S
C1400 C1402 1.388 . S
C1401 C1400 1.366 . S
C1401 C1405 1.385 . S
C1402 H1383 0.951 . S
C1402 C1400 1.388 . S
C1402 C1403 1.366 . S
C1403 C1402 1.366 . S
C1403 C1404 1.414 . S
C1403 C1406 1.499 . S
C1404 H1384 0.950 . S
C1404 C1403 1.414 . S
C1404 C1405 1.374 . S
C1405 H1385 0.950 . S
C1405 C1401 1.385 . S
C1405 C1404 1.374 . S
C1406 C1403 1.499 . S
C1406 C1407 1.373 . S
C1406 C1408 1.389 . S
C1407 H1386 0.950 . S
C1407 C1406 1.373 . S
C1407 C1423 1.377 . S
C1408 C1406 1.389 . S
C1408 C1409 1.524 . S
C1408 C1422 1.377 . S
C1409 C1408 1.524 . S
C1409 C1410 1.397 . S
C1409 C1414 1.363 . S
C1410 H1387 0.950 . S
C1410 C1409 1.397 . S
C1410 C1411 1.334 . S
C1411 H1388 0.950 . S
C1411 C1410 1.334 . S
C1411 C1412 1.287 . S
C1412 C1411 1.287 . S
C1412 C1413 1.524 . S
C1412 H1431 0.913 . S
C1413 H1389 0.950 . S
C1413 C1412 1.524 . S
C1413 C1414 1.415 . S
C1414 H1390 0.950 . S
C1414 C1409 1.363 . S
C1414 C1413 1.415 . S
C1415 H1391 0.951 . S
C1415 C1416 1.366 . S
C1415 C1417 1.388 . S
C1416 C1415 1.366 . S
C1416 C1420 1.385 . S
C1417 H1392 0.951 . S
C1417 C1415 1.388 . S
C1417 C1418 1.366 . S
C1418 C1417 1.366 . S
C1418 C1419 1.414 . S
C1418 C1421 1.499 . S
C1419 H1393 0.950 . S
C1419 C1418 1.414 . S
C1419 C1420 1.374 . S
C1420 H1394 0.950 . S
C1420 C1416 1.385 . S
C1420 C1419 1.374 . S
C1421 C1418 1.499 . S
C1421 C1422 1.373 . S
C1421 C1423 1.389 . S
C1422 H1395 0.950 . S
C1422 C1408 1.377 . S
C1422 C1421 1.373 . S
C1423 C1407 1.377 . S
C1423 C1421 1.389 . S
C1423 C1424 1.524 . S
C1424 C1423 1.524 . S
C1424 C1425 1.397 . S
C1424 C1429 1.363 . S
C1425 H1396 0.950 . S
C1425 C1424 1.397 . S
C1425 C1426 1.334 . S
C1426 H1397 0.950 . S
C1426 C1425 1.334 . S
C1426 C1427 1.287 . S
C1427 C1426 1.287 . S
C1427 C1428 1.524 . S
C1427 H1430 0.999 . S
C1428 H1398 0.950 . S
C1428 C1427 1.524 . S
C1428 C1429 1.415 . S
C1429 H1399 0.950 . S
C1429 C1424 1.363 . S
C1429 C1428 1.415 . S
H1430 C1427 0.999 . S
H1431 C1412 0.913 . S
C251 C5 0.784 . S
C266 C76 0.785 . S
C301 C14 1.014 . S
C316 C137 1.030 . S
C366 C175 2.497 . S
C351 C25 2.556 . S
C401 C34 2.326 . S
C416 C215 2.282 . S
C466 C135 1.094 . S
C451 C7 1.097 . S
C516 C103 1.852 . S
C501 C13 1.804 . S
C566 C212 1.701 . S
C551 C23 1.717 . S
C616 C172 1.830 . S
C601 C31 1.847 . S
C651 C4 0.918 . S
C666 C217 0.923 . S
C716 C132 2.365 . S
C701 C22 2.367 . S
C751 C32 2.181 . S
C766 C74 2.147 . S
C801 C16 1.251 . S
C816 C177 1.282 . S
C866 C97 0.772 . S
C851 C41 0.771 . S
C901 C50 1.025 . S
C916 C116 1.040 . S
C951 C61 2.549 . S
C966 C154 2.492 . S
C1001 C67 2.339 . S
C1016 C194 2.294 . S
C1051 C40 1.125 . S
C1066 C114 1.118 . S
C1116 C92 1.828 . S
C1101 C52 1.777 . S
C1166 C223 1.710 . S
C1151 C59 1.725 . S
C1216 C183 1.824 . S
C1201 C70 1.839 . S
C1251 C43 0.914 . S
C1266 C196 0.920 . S
C1316 C143 2.380 . S
C1301 C58 2.381 . S
C1366 C95 2.127 . S
C1351 C68 2.159 . S
C1401 C49 1.262 . S
C1416 C156 1.289 . S
