# Generated by pormake.
# Topology csq, (4,8)-cn, num edge types: 1
# Building blocks:
#     Node 0, Type 0, BuildingBlock: NAHDIM_clean_linker_0, # of connection points: 4
#     Node 1, Type 0, BuildingBlock: NAHDIM_clean_linker_0, # of connection points: 4
#     Node 2, Type 0, BuildingBlock: NAHDIM_clean_linker_0, # of connection points: 4
#     Node 3, Type 0, BuildingBlock: NAHDIM_clean_linker_0, # of connection points: 4
#     Node 4, Type 0, BuildingBlock: NAHDIM_clean_linker_0, # of connection points: 4
#     Node 5, Type 0, BuildingBlock: NAHDIM_clean_linker_0, # of connection points: 4
#     Node 6, Type 1, BuildingBlock: TAGTUT_clean_sbu_1, # of connection points: 8
#     Node 7, Type 1, BuildingBlock: TAGTUT_clean_sbu_1, # of connection points: 8
#     Node 8, Type 1, BuildingBlock: TAGTUT_clean_sbu_1, # of connection points: 8
#     Edge 9, Type (0, 1), BuildingBlock: EZIPEK_clean_linker_0, # of connection points: 2
#     Edge 10, Type (0, 1), BuildingBlock: EZIPEK_clean_linker_0, # of connection points: 2
#     Edge 11, Type (0, 1), BuildingBlock: EZIPEK_clean_linker_0, # of connection points: 2
#     Edge 12, Type (0, 1), BuildingBlock: EZIPEK_clean_linker_0, # of connection points: 2
#     Edge 13, Type (0, 1), BuildingBlock: EZIPEK_clean_linker_0, # of connection points: 2
#     Edge 14, Type (0, 1), BuildingBlock: EZIPEK_clean_linker_0, # of connection points: 2
#     Edge 15, Type (0, 1), BuildingBlock: EZIPEK_clean_linker_0, # of connection points: 2
#     Edge 16, Type (0, 1), BuildingBlock: EZIPEK_clean_linker_0, # of connection points: 2
#     Edge 17, Type (0, 1), BuildingBlock: EZIPEK_clean_linker_0, # of connection points: 2
#     Edge 18, Type (0, 1), BuildingBlock: EZIPEK_clean_linker_0, # of connection points: 2
#     Edge 19, Type (0, 1), BuildingBlock: EZIPEK_clean_linker_0, # of connection points: 2
#     Edge 20, Type (0, 1), BuildingBlock: EZIPEK_clean_linker_0, # of connection points: 2
#     Edge 21, Type (0, 1), BuildingBlock: EZIPEK_clean_linker_0, # of connection points: 2
#     Edge 22, Type (0, 1), BuildingBlock: EZIPEK_clean_linker_0, # of connection points: 2
#     Edge 23, Type (0, 1), BuildingBlock: EZIPEK_clean_linker_0, # of connection points: 2
#     Edge 24, Type (0, 1), BuildingBlock: EZIPEK_clean_linker_0, # of connection points: 2
#     Edge 25, Type (0, 1), BuildingBlock: EZIPEK_clean_linker_0, # of connection points: 2
#     Edge 26, Type (0, 1), BuildingBlock: EZIPEK_clean_linker_0, # of connection points: 2
#     Edge 27, Type (0, 1), BuildingBlock: EZIPEK_clean_linker_0, # of connection points: 2
#     Edge 28, Type (0, 1), BuildingBlock: EZIPEK_clean_linker_0, # of connection points: 2
#     Edge 29, Type (0, 1), BuildingBlock: EZIPEK_clean_linker_0, # of connection points: 2
#     Edge 30, Type (0, 1), BuildingBlock: EZIPEK_clean_linker_0, # of connection points: 2
#     Edge 31, Type (0, 1), BuildingBlock: EZIPEK_clean_linker_0, # of connection points: 2
#     Edge 32, Type (0, 1), BuildingBlock: EZIPEK_clean_linker_0, # of connection points: 2
# Relax obj value: 0.050
# Max RMSD: 0.132
# Mean RMSD: 0.088
data_MOF--net-csq--node1-TAGTUT_clean_sbu_1--node2-NAHDIM_clean_linker_0--edge1-EZIPEK_clean_linker_0
_symmetry_space_group_name_H-M    P1
_symmetry_Int_Tables_number       1
_symmetry_cell_setting            triclinic
loop_
_symmetry_equiv_pos_as_xyz
'x, y, z'
_cell_length_a     55.355825
_cell_length_b     54.471758
_cell_length_c     21.996145
_cell_angle_alpha  92.424125
_cell_angle_beta   92.404552
_cell_angle_gamma 119.88277
loop_
_atom_site_label
_atom_site_type_symbol
_atom_site_fract_x
_atom_site_fract_y
_atom_site_fract_z
_atom_type_partial_charge
C0 C 0.34413 0.48575 0.60913 0.0
C1 C 0.34824 0.48209 0.54138 0.0
C2 C 0.3259 0.49445 0.45641 0.0
C3 C 0.3064 0.46685 0.43198 0.0
C4 C 0.28866 0.46249 0.3802 0.0
C5 C 0.2896 0.48609 0.35344 0.0
C6 C 0.30931 0.51387 0.37739 0.0
C7 C 0.32736 0.51764 0.42818 0.0
C8 C 0.26789 0.43248 0.35591 0.0
C9 C 0.31043 0.53953 0.35108 0.0
C10 C 0.13192 0.43631 0.55005 0.0
C11 C 0.13484 0.45544 0.49843 0.0
C12 C 0.1495 0.44754 0.39959 0.0
C13 C 0.16722 0.47583 0.38697 0.0
C14 C 0.18838 0.48276 0.34675 0.0
C15 C 0.19192 0.46093 0.31893 0.0
C16 C 0.1728 0.43223 0.32846 0.0
C17 C 0.15152 0.42591 0.36805 0.0
C18 C 0.20788 0.51352 0.33643 0.0
C19 C 0.17592 0.40835 0.3 0.0
C20 C 0.16016 0.43232 0.89523 0.0
C21 C 0.17873 0.46139 0.9064 0.0
C22 C 0.19984 0.47161 0.95387 0.0
C23 C 0.20296 0.45211 0.98927 0.0
C24 C 0.18445 0.42257 0.97702 0.0
C25 C 0.16309 0.41304 0.93016 0.0
C26 C 0.2192 0.50321 0.96502 0.0
C27 C 0.18764 0.40107 0.01236 0.0
C28 C 0.41672 0.5288 0.95955 0.0
C29 C 0.39251 0.50204 0.92548 0.0
C30 C 0.34901 0.49958 0.95233 0.0
C31 C 0.34043 0.51942 0.96278 0.0
C32 C 0.31809 0.51357 0.99883 0.0
C33 C 0.30337 0.48675 0.0233 0.0
C34 C 0.31204 0.46656 0.01303 0.0
C35 C 0.33492 0.47329 0.97801 0.0
C36 C 0.30962 0.53573 0.00892 0.0
C37 C 0.29634 0.43744 0.03672 0.0
C38 C 0.26707 0.48139 0.30731 0.0
C39 C 0.24154 0.4753 0.32929 0.0
C40 C 0.21826 0.46835 0.28994 0.0
C41 C 0.22041 0.46753 0.22613 0.0
C42 C 0.19738 0.46037 0.18498 0.0
C43 C 0.19954 0.45875 0.12221 0.0
C44 C 0.2249 0.46457 0.09834 0.0
C45 C 0.22718 0.46241 0.03478 0.0
C46 C 0.25298 0.46958 0.01262 0.0
C47 C 0.27677 0.47856 0.05195 0.0
C48 C 0.27473 0.47971 0.11583 0.0
C49 C 0.29792 0.48747 0.15703 0.0
C50 C 0.29543 0.48777 0.21984 0.0
C51 C 0.26989 0.4812 0.24372 0.0
C52 C 0.24636 0.47399 0.20299 0.0
C53 C 0.24868 0.47281 0.13901 0.0
C54 C 0.09026 0.39372 0.85079 0.0
C55 C 0.11556 0.42389 0.85311 0.0
O56 O 0.34295 0.50014 0.50784 0.0
O57 O 0.36975 0.50574 0.91438 0.0
O58 O 0.13982 0.42262 0.84948 0.0
O59 O 0.13068 0.44042 0.44266 0.0
H60 H 0.33226 0.45972 0.53008 0.0
H61 H 0.32225 0.4806 0.61429 0.0
H62 H 0.35808 0.50754 0.62984 0.0
H63 H 0.34796 0.47091 0.63554 0.0
H64 H 0.3039 0.44838 0.4534 0.0
H65 H 0.34229 0.53887 0.44735 0.0
H66 H 0.24682 0.42693 0.36985 0.0
H67 H 0.27324 0.41685 0.37367 0.0
H68 H 0.26683 0.43058 0.30528 0.0
H69 H 0.32738 0.55976 0.37415 0.0
H70 H 0.29016 0.53876 0.35561 0.0
H71 H 0.31376 0.53934 0.30169 0.0
H72 H 0.15682 0.47254 0.50512 0.0
H73 H 0.13498 0.44792 0.59507 0.0
H74 H 0.14809 0.42995 0.54804 0.0
H75 H 0.11116 0.41669 0.54651 0.0
H76 H 0.16487 0.49253 0.40937 0.0
H77 H 0.13733 0.40409 0.37729 0.0
H78 H 0.21177 0.51606 0.28735 0.0
H79 H 0.22825 0.52089 0.36232 0.0
H80 H 0.19945 0.52729 0.35179 0.0
H81 H 0.15913 0.38717 0.31148 0.0
H82 H 0.19642 0.41096 0.31595 0.0
H83 H 0.17549 0.40904 0.24965 0.0
H84 H 0.11507 0.4329 0.89896 0.0
H85 H 0.17691 0.47603 0.87733 0.0
H86 H 0.14873 0.39053 0.92025 0.0
H87 H 0.22306 0.50959 0.01467 0.0
H88 H 0.2107 0.51545 0.9424 0.0
H89 H 0.23956 0.50896 0.94653 0.0
H90 H 0.17269 0.3789 0.99449 0.0
H91 H 0.18412 0.40352 0.06099 0.0
H92 H 0.20923 0.40481 0.01053 0.0
H93 H 0.38755 0.48555 0.95828 0.0
H94 H 0.43521 0.52608 0.96698 0.0
H95 H 0.41041 0.53234 0.0049 0.0
H96 H 0.4229 0.5481 0.93474 0.0
H97 H 0.35128 0.53957 0.94234 0.0
H98 H 0.3409 0.4575 0.96869 0.0
H99 H 0.30553 0.5375 0.05745 0.0
H100 H 0.29001 0.52927 0.98076 0.0
H101 H 0.32585 0.55692 0.9961 0.0
H102 H 0.30571 0.42412 0.02481 0.0
H103 H 0.2743 0.42641 0.01751 0.0
H104 H 0.29612 0.43939 0.08709 0.0
H105 H 0.23957 0.47536 0.37822 0.0
H106 H 0.17738 0.45566 0.20098 0.0
H107 H 0.18109 0.45287 0.09255 0.0
H108 H 0.25457 0.46813 0.96371 0.0
H109 H 0.31813 0.49297 0.14107 0.0
H110 H 0.31382 0.49343 0.24955 0.0
H111 H 0.08916 0.38044 0.81002 0.0
H112 H 0.07059 0.39454 0.85095 0.0
H113 H 0.09166 0.38307 0.89168 0.0
C114 C 0.87813 0.44343 0.3615 0.0
C115 C 0.87205 0.41444 0.38223 0.0
C116 C 0.84745 0.36627 0.33737 0.0
C117 C 0.86079 0.35109 0.35309 0.0
C118 C 0.84589 0.32129 0.34989 0.0
C119 C 0.8173 0.30658 0.32895 0.0
C120 C 0.80348 0.32202 0.31677 0.0
C121 C 0.81885 0.35178 0.32072 0.0
C122 C 0.86122 0.30554 0.36358 0.0
C123 C 0.77296 0.30707 0.29496 0.0
C124 C 0.72671 0.16344 0.59798 0.0
C125 C 0.70387 0.15161 0.54532 0.0
C126 C 0.72727 0.16565 0.45048 0.0
C127 C 0.71605 0.18147 0.42576 0.0
C128 C 0.72999 0.20099 0.38222 0.0
C129 C 0.75569 0.20477 0.36328 0.0
C130 C 0.76666 0.18829 0.3872 0.0
C131 C 0.75201 0.16859 0.42981 0.0
C132 C 0.71729 0.21759 0.35652 0.0
C133 C 0.79406 0.19177 0.3685 0.0
C134 C 0.70753 0.12916 0.95627 0.0
C135 C 0.70331 0.15095 0.98039 0.0
C136 C 0.72397 0.17344 0.0189 0.0
C137 C 0.74942 0.17417 0.03423 0.0
C138 C 0.75372 0.1522 0.01061 0.0
C139 C 0.73279 0.13012 0.97137 0.0
C140 C 0.71896 0.19708 0.04107 0.0
C141 C 0.78064 0.1524 0.02574 0.0
C142 C 0.93528 0.37364 0.90408 0.0
C143 C 0.92034 0.35269 0.94951 0.0
C144 C 0.8726 0.31566 0.96513 0.0
C145 C 0.84434 0.30678 0.95362 0.0
C146 C 0.82372 0.28372 0.98197 0.0
C147 C 0.83173 0.26883 0.02165 0.0
C148 C 0.86021 0.27667 0.03067 0.0
C149 C 0.88042 0.30032 0.00322 0.0
C150 C 0.79357 0.27604 0.97151 0.0
C151 C 0.86944 0.26077 0.07131 0.0
C152 C 0.80375 0.27632 0.30572 0.0
C153 C 0.78718 0.25498 0.34316 0.0
C154 C 0.77161 0.22653 0.32009 0.0
C155 C 0.7718 0.21932 0.25749 0.0
C156 C 0.75448 0.1915 0.23103 0.0
C157 C 0.75456 0.18497 0.16897 0.0
C158 C 0.77255 0.20582 0.1316 0.0
C159 C 0.77251 0.19982 0.0683 0.0
C160 C 0.79243 0.22041 0.03384 0.0
C161 C 0.81103 0.24764 0.05984 0.0
C162 C 0.80943 0.25485 0.12133 0.0
C163 C 0.82579 0.28287 0.14684 0.0
C164 C 0.82384 0.28993 0.20694 0.0
C165 C 0.80599 0.26912 0.2446 0.0
C166 C 0.78962 0.24065 0.22014 0.0
C167 C 0.79072 0.23368 0.15782 0.0
C168 C 0.64742 0.07005 0.95565 0.0
C169 C 0.65962 0.09533 0.91542 0.0
O170 O 0.86238 0.39465 0.33281 0.0
O171 O 0.89155 0.33897 0.93853 0.0
O172 O 0.68842 0.10762 0.91667 0.0
O173 O 0.71426 0.14667 0.49266 0.0
H174 H 0.85471 0.40898 0.41232 0.0
H175 H 0.85852 0.44177 0.34171 0.0
H176 H 0.8935 0.45124 0.32633 0.0
H177 H 0.88616 0.45944 0.40112 0.0
H178 H 0.88307 0.36247 0.36512 0.0
H179 H 0.80885 0.36383 0.30856 0.0
H180 H 0.84846 0.28714 0.39048 0.0
H181 H 0.88176 0.31948 0.38913 0.0
H182 H 0.86484 0.29721 0.32005 0.0
H183 H 0.76448 0.32176 0.29514 0.0
H184 H 0.7606 0.28954 0.32422 0.0
H185 H 0.77023 0.2976 0.24771 0.0
H186 H 0.69818 0.16803 0.53678 0.0
H187 H 0.71891 0.16784 0.64036 0.0
H188 H 0.7448 0.18366 0.58595 0.0
H189 H 0.73419 0.14847 0.60788 0.0
H190 H 0.6962 0.17828 0.43958 0.0
H191 H 0.76018 0.15586 0.44843 0.0
H192 H 0.71721 0.21669 0.30597 0.0
H193 H 0.73013 0.2402 0.37378 0.0
H194 H 0.69557 0.20954 0.36958 0.0
H195 H 0.80099 0.17935 0.39562 0.0
H196 H 0.81056 0.21451 0.37399 0.0
H197 H 0.79187 0.18459 0.31959 0.0
H198 H 0.65338 0.10984 0.93704 0.0
H199 H 0.68453 0.15144 0.9678 0.0
H200 H 0.73606 0.11342 0.95222 0.0
H201 H 0.71844 0.19764 0.09146 0.0
H202 H 0.69896 0.19443 0.02111 0.0
H203 H 0.73627 0.21791 0.02938 0.0
H204 H 0.77911 0.1318 0.01176 0.0
H205 H 0.78654 0.15722 0.0755 0.0
H206 H 0.79763 0.16933 0.00175 0.0
H207 H 0.92721 0.36065 0.99826 0.0
H208 H 0.94609 0.39486 0.93095 0.0
H209 H 0.91942 0.37752 0.87922 0.0
H210 H 0.95693 0.35716 0.86035 0.0
H211 H 0.83854 0.31858 0.92364 0.0
H212 H 0.90221 0.30679 0.01234 0.0
H213 H 0.78495 0.27679 0.01581 0.0
H214 H 0.78107 0.254 0.95049 0.0
H215 H 0.79097 0.29051 0.94124 0.0
H216 H 0.89106 0.26563 0.06378 0.0
H217 H 0.85512 0.23751 0.06328 0.0
H218 H 0.86883 0.26686 0.11977 0.0
H219 H 0.78618 0.2606 0.39052 0.0
H220 H 0.74033 0.17463 0.25781 0.0
H221 H 0.74059 0.16337 0.15061 0.0
H222 H 0.79266 0.21556 0.98558 0.0
H223 H 0.83997 0.29988 0.12042 0.0
H224 H 0.83676 0.31198 0.22336 0.0
H225 H 0.65432 0.05462 0.94415 0.0
H226 H 0.62422 0.05892 0.95122 0.0
H227 H 0.65444 0.07786 0.00421 0.0
C228 C 0.57598 0.88464 0.40076 0.0
C229 C 0.5646 0.88943 0.34004 0.0
C230 C 0.54999 0.84344 0.28412 0.0
C231 C 0.57668 0.84835 0.2717 0.0
C232 C 0.5799 0.82723 0.24066 0.0
C233 C 0.55599 0.80084 0.22157 0.0
C234 C 0.52935 0.79519 0.23791 0.0
C235 C 0.52671 0.81672 0.26852 0.0
C236 C 0.60861 0.83384 0.22421 0.0
C237 C 0.50346 0.76717 0.21888 0.0
C238 C 0.55015 0.59917 0.10703 0.0
C239 C 0.54569 0.61382 0.16304 0.0
C240 C 0.56627 0.66613 0.17396 0.0
C241 C 0.5415 0.66693 0.18055 0.0
C242 C 0.54094 0.69215 0.17407 0.0
C243 C 0.56583 0.71727 0.16333 0.0
C244 C 0.59134 0.71718 0.16355 0.0
C245 C 0.59113 0.69148 0.16819 0.0
C246 C 0.5135 0.6917 0.17655 0.0
C247 C 0.61854 0.74388 0.15554 0.0
C248 C 0.57713 0.71541 0.76509 0.0
C249 C 0.54982 0.70363 0.78355 0.0
C250 C 0.5424 0.71923 0.82322 0.0
C251 C 0.56299 0.74684 0.84645 0.0
C252 C 0.59054 0.75878 0.82796 0.0
C253 C 0.59723 0.74285 0.78746 0.0
C254 C 0.51284 0.7058 0.84223 0.0
C255 C 0.6131 0.78806 0.85236 0.0
C256 C 0.47164 0.88785 0.94266 0.0
C257 C 0.48695 0.8784 0.89922 0.0
C258 C 0.51538 0.8564 0.91548 0.0
C259 C 0.49621 0.82725 0.90678 0.0
C260 C 0.50555 0.80761 0.90183 0.0
C261 C 0.5346 0.81748 0.90605 0.0
C262 C 0.55383 0.84698 0.90889 0.0
C263 C 0.54394 0.86612 0.91481 0.0
C264 C 0.48446 0.77629 0.89802 0.0
C265 C 0.58489 0.85824 0.91199 0.0
C266 C 0.55801 0.78225 0.17335 0.0
C267 C 0.5625 0.76023 0.18953 0.0
C268 C 0.56441 0.74239 0.14463 0.0
C269 C 0.56285 0.74725 0.08218 0.0
C270 C 0.56584 0.73052 0.03586 0.0
C271 C 0.56451 0.73571 0.9748 0.0
C272 C 0.55878 0.75695 0.95726 0.0
C273 C 0.55666 0.76197 0.89518 0.0
C274 C 0.54913 0.782 0.87906 0.0
C275 C 0.54445 0.7978 0.92395 0.0
C276 C 0.54818 0.79425 0.98634 0.0
C277 C 0.54502 0.81086 0.03258 0.0
C278 C 0.54881 0.80738 0.09359 0.0
C279 C 0.55493 0.78644 0.11116 0.0
C280 C 0.55774 0.76915 0.0655 0.0
C281 C 0.55497 0.7735 0.00297 0.0
C282 C 0.58427 0.67977 0.63047 0.0
C283 C 0.56854 0.6775 0.68753 0.0
O284 O 0.54545 0.86393 0.30894 0.0
O285 O 0.50711 0.87523 0.93124 0.0
O286 O 0.58526 0.70094 0.72732 0.0
O287 O 0.56738 0.64172 0.17247 0.0
H288 H 0.58298 0.90061 0.31298 0.0
H289 H 0.58832 0.87403 0.39229 0.0
H290 H 0.55899 0.8712 0.42967 0.0
H291 H 0.59003 0.90535 0.42661 0.0
H292 H 0.59498 0.86885 0.28365 0.0
H293 H 0.50624 0.81305 0.27887 0.0
H294 H 0.61202 0.81591 0.23397 0.0
H295 H 0.62539 0.85352 0.24947 0.0
H296 H 0.61028 0.83663 0.17455 0.0
H297 H 0.48503 0.76458 0.24236 0.0
H298 H 0.50699 0.74935 0.22887 0.0
H299 H 0.4987 0.7658 0.1689 0.0
H300 H 0.52618 0.61388 0.15094 0.0
H301 H 0.53167 0.57773 0.09619 0.0
H302 H 0.56869 0.59662 0.11392 0.0
H303 H 0.55288 0.61181 0.06692 0.0
H304 H 0.52243 0.64807 0.18988 0.0
H305 H 0.61034 0.69089 0.16528 0.0
H306 H 0.50889 0.69926 0.13387 0.0
H307 H 0.515 0.70636 0.21502 0.0
H308 H 0.49578 0.67017 0.18273 0.0
H309 H 0.63686 0.74158 0.16886 0.0
H310 H 0.61995 0.76216 0.18315 0.0
H311 H 0.61953 0.74878 0.10694 0.0
H312 H 0.5504 0.67915 0.67036 0.0
H313 H 0.53448 0.68206 0.76885 0.0
H314 H 0.61833 0.75167 0.77339 0.0
H315 H 0.51256 0.70098 0.89081 0.0
H316 H 0.49854 0.68579 0.81433 0.0
H317 H 0.50483 0.72078 0.83816 0.0
H318 H 0.63333 0.79459 0.83224 0.0
H319 H 0.61625 0.78855 0.90268 0.0
H320 H 0.60654 0.8038 0.84254 0.0
H321 H 0.46997 0.85742 0.88026 0.0
H322 H 0.48551 0.90866 0.96778 0.0
H323 H 0.46179 0.87188 0.97679 0.0
H324 H 0.45483 0.88929 0.91649 0.0
H325 H 0.47409 0.81969 0.90825 0.0
H326 H 0.55854 0.88874 0.92139 0.0
H327 H 0.48497 0.76768 0.94263 0.0
H328 H 0.48981 0.7648 0.86309 0.0
H329 H 0.46289 0.77199 0.88657 0.0
H330 H 0.59663 0.88089 0.90158 0.0
H331 H 0.58995 0.84554 0.87956 0.0
H332 H 0.59203 0.85645 0.95867 0.0
H333 H 0.56396 0.7566 0.23731 0.0
H334 H 0.56957 0.7134 0.04612 0.0
H335 H 0.56752 0.72245 0.94151 0.0
H336 H 0.54684 0.78525 0.83134 0.0
H337 H 0.5398 0.827 0.02253 0.0
H338 H 0.54642 0.82117 0.12664 0.0
H339 H 0.57135 0.66133 0.59714 0.0
H340 H 0.60436 0.68054 0.64227 0.0
H341 H 0.58894 0.69947 0.60829 0.0
C342 C 0.86029 0.56031 0.51967 0.0
C343 C 0.87077 0.54819 0.4697 0.0
C344 C 0.86208 0.55674 0.36417 0.0
C345 C 0.84874 0.52881 0.33752 0.0
C346 C 0.83162 0.52139 0.28323 0.0
C347 C 0.82819 0.54241 0.25496 0.0
C348 C 0.84358 0.571 0.279 0.0
C349 C 0.86057 0.57781 0.33319 0.0
C350 C 0.81615 0.49088 0.25763 0.0
C351 C 0.84073 0.59406 0.2496 0.0
C352 C 0.62377 0.50855 0.3462 0.0
C353 C 0.64519 0.51403 0.30152 0.0
C354 C 0.68431 0.50723 0.28186 0.0
C355 C 0.69952 0.53192 0.25084 0.0
C356 C 0.72284 0.53641 0.21987 0.0
C357 C 0.73015 0.51493 0.21627 0.0
C358 C 0.71433 0.48961 0.24586 0.0
C359 C 0.69203 0.48643 0.27946 0.0
C360 C 0.74003 0.56463 0.19289 0.0
C361 C 0.72128 0.46611 0.2433 0.0
C362 C 0.70842 0.53157 0.81303 0.0
C363 C 0.73254 0.55734 0.83305 0.0
C364 C 0.75314 0.55794 0.87344 0.0
C365 C 0.75044 0.53212 0.89189 0.0
C366 C 0.72712 0.50602 0.8685 0.0
C367 C 0.70612 0.50616 0.83053 0.0
C368 C 0.77779 0.58635 0.89622 0.0
C369 C 0.72413 0.47795 0.88397 0.0
C370 C 0.97461 0.59835 0.87264 0.0
C371 C 0.94463 0.57347 0.87362 0.0
C372 C 0.90053 0.5728 0.88338 0.0
C373 C 0.89272 0.59238 0.90306 0.0
C374 C 0.86682 0.58344 0.92732 0.0
C375 C 0.84798 0.55407 0.93035 0.0
C376 C 0.85552 0.53409 0.90908 0.0
C377 C 0.88173 0.54369 0.88565 0.0
C378 C 0.85964 0.60539 0.95002 0.0
C379 C 0.83583 0.50264 0.911 0.0
C380 C 0.80506 0.53391 0.20764 0.0
C381 C 0.77896 0.52625 0.22851 0.0
C382 C 0.75625 0.52039 0.18844 0.0
C383 C 0.75961 0.52225 0.12501 0.0
C384 C 0.73746 0.5172 0.08318 0.0
C385 C 0.74152 0.52097 0.02147 0.0
C386 C 0.76754 0.52861 0.99863 0.0
C387 C 0.77196 0.53276 0.93598 0.0
C388 C 0.79812 0.54014 0.91515 0.0
C389 C 0.82034 0.54432 0.95527 0.0
C390 C 0.81645 0.54075 0.01811 0.0
C391 C 0.83852 0.54542 0.05995 0.0
C392 C 0.8348 0.54292 0.12205 0.0
C393 C 0.80882 0.53548 0.14454 0.0
C394 C 0.78605 0.52991 0.10307 0.0
C395 C 0.78993 0.53279 0.03977 0.0
C396 C 0.67969 0.56902 0.8033 0.0
C397 C 0.68546 0.55249 0.75273 0.0
O398 O 0.87661 0.56431 0.41944 0.0
O399 O 0.92586 0.58267 0.86048 0.0
O400 O 0.6868 0.53023 0.778 0.0
O401 O 0.66245 0.50304 0.31485 0.0
H402 H 0.85328 0.52656 0.45603 0.0
H403 H 0.84181 0.56122 0.50102 0.0
H404 H 0.87645 0.58196 0.53767 0.0
H405 H 0.85389 0.54655 0.55851 0.0
H406 H 0.85128 0.51269 0.35922 0.0
H407 H 0.87165 0.59945 0.35334 0.0
H408 H 0.79365 0.48141 0.26549 0.0
H409 H 0.82416 0.47801 0.27927 0.0
H410 H 0.81789 0.48972 0.2076 0.0
H411 H 0.85546 0.61548 0.27175 0.0
H412 H 0.81908 0.59 0.25252 0.0
H413 H 0.84461 0.59389 0.20053 0.0
H414 H 0.637 0.5089 0.2526 0.0
H415 H 0.63433 0.54901 0.37971 0.0
H416 H 0.6235 0.49218 0.37627 0.0
H417 H 0.60314 0.49363 0.32056 0.0
H418 H 0.69403 0.54836 0.25211 0.0
H419 H 0.68025 0.46745 0.30339 0.0
H420 H 0.73451 0.5622 0.14309 0.0
H421 H 0.76273 0.57232 0.19996 0.0
H422 H 0.73599 0.58118 0.21306 0.0
H423 H 0.7036 0.44573 0.25593 0.0
H424 H 0.73953 0.47199 0.27582 0.0
H425 H 0.72691 0.46291 0.19693 0.0
H426 H 0.70576 0.56645 0.73381 0.0
H427 H 0.73529 0.57724 0.81858 0.0
H428 H 0.68773 0.4863 0.81416 0.0
H429 H 0.78316 0.58686 0.94564 0.0
H430 H 0.77379 0.6041 0.88864 0.0
H431 H 0.79614 0.59001 0.87115 0.0
H432 H 0.70841 0.46015 0.85228 0.0
H433 H 0.71732 0.47353 0.93093 0.0
H434 H 0.74445 0.47856 0.88241 0.0
H435 H 0.94341 0.5686 0.92205 0.0
H436 H 0.98981 0.59125 0.88422 0.0
H437 H 0.97818 0.61554 0.90714 0.0
H438 H 0.97897 0.60746 0.82761 0.0
H439 H 0.90727 0.61481 0.90029 0.0
H440 H 0.88714 0.52841 0.86784 0.0
H441 H 0.8545 0.60253 0.9984 0.0
H442 H 0.8409 0.60249 0.92311 0.0
H443 H 0.87699 0.62742 0.94649 0.0
H444 H 0.8448 0.4898 0.89283 0.0
H445 H 0.81599 0.49642 0.8839 0.0
H446 H 0.83067 0.49751 0.95875 0.0
H447 H 0.77654 0.52578 0.27727 0.0
H448 H 0.71687 0.51084 0.09795 0.0
H449 H 0.7239 0.51773 0.99192 0.0
H450 H 0.80149 0.54353 0.86725 0.0
H451 H 0.85903 0.55136 0.04523 0.0
H452 H 0.85254 0.54702 0.15236 0.0
H453 H 0.68181 0.58896 0.78699 0.0
H454 H 0.69444 0.57497 0.84408 0.0
H455 H 0.65823 0.55582 0.81812 0.0
C456 C 0.30983 0.88503 0.72321 0.0
C457 C 0.32351 0.89285 0.78867 0.0
C458 C 0.29669 0.85574 0.85832 0.0
C459 C 0.27396 0.86039 0.86231 0.0
C460 C 0.25357 0.84625 0.9037 0.0
C461 C 0.25572 0.82683 0.9411 0.0
C462 C 0.27828 0.82174 0.93631 0.0
C463 C 0.29846 0.83632 0.89501 0.0
C464 C 0.22953 0.85181 0.9071 0.0
C465 C 0.28094 0.80066 0.97435 0.0
C466 C 0.05572 0.64472 0.87744 0.0
C467 C 0.08455 0.647 0.87568 0.0
C468 C 0.12183 0.68453 0.9424 0.0
C469 C 0.14572 0.68808 0.97448 0.0
C470 C 0.16894 0.71517 0.98811 0.0
C471 C 0.16749 0.73937 0.972 0.0
C472 C 0.14347 0.73586 0.93853 0.0
C473 C 0.12094 0.70836 0.92344 0.0
C474 C 0.1946 0.71781 0.02164 0.0
C475 C 0.14118 0.76114 0.92097 0.0
C476 C 0.1519 0.71924 0.34621 0.0
C477 C 0.17131 0.71751 0.31027 0.0
C478 C 0.19142 0.74141 0.28347 0.0
C479 C 0.19113 0.76727 0.29042 0.0
C480 C 0.17247 0.76944 0.3294 0.0
C481 C 0.15331 0.74536 0.35782 0.0
C482 C 0.21202 0.73847 0.24532 0.0
C483 C 0.17179 0.79669 0.33841 0.0
C484 C 0.36542 0.9663 0.37133 0.0
C485 C 0.3598 0.93972 0.40359 0.0
C486 C 0.329 0.89842 0.33168 0.0
C487 C 0.3277 0.87512 0.29946 0.0
C488 C 0.30272 0.85391 0.26904 0.0
C489 C 0.27863 0.8567 0.26919 0.0
C490 C 0.27989 0.88053 0.30083 0.0
C491 C 0.30504 0.90108 0.33229 0.0
C492 C 0.30209 0.82837 0.23764 0.0
C493 C 0.25458 0.88413 0.30178 0.0
C494 C 0.2337 0.81074 0.98309 0.0
C495 C 0.21013 0.7855 0.95924 0.0
C496 C 0.18965 0.76798 0.99695 0.0
C497 C 0.19229 0.77599 0.05979 0.0
C498 C 0.17151 0.75928 0.09842 0.0
C499 C 0.17605 0.76483 0.1612 0.0
C500 C 0.2015 0.78734 0.18758 0.0
C501 C 0.20803 0.79053 0.25119 0.0
C502 C 0.23285 0.81389 0.27636 0.0
C503 C 0.25179 0.83388 0.23926 0.0
C504 C 0.24627 0.83014 0.17506 0.0
C505 C 0.26537 0.84899 0.13591 0.0
C506 C 0.26099 0.84319 0.07274 0.0
C507 C 0.23721 0.81851 0.04651 0.0
C508 C 0.21668 0.80062 0.08502 0.0
C509 C 0.22126 0.80638 0.14925 0.0
C510 C 0.08723 0.68171 0.31773 0.0
C511 C 0.10999 0.67363 0.32951 0.0
O512 O 0.31701 0.86881 0.81914 0.0
O513 O 0.35389 0.91765 0.36092 0.0
O514 O 0.13092 0.69558 0.36761 0.0
O515 O 0.09983 0.65787 0.93116 0.0
H516 H 0.3142 0.90472 0.80977 0.0
H517 H 0.28674 0.87347 0.72449 0.0
H518 H 0.3154 0.87128 0.69599 0.0
H519 H 0.316 0.90463 0.69921 0.0
H520 H 0.27164 0.87456 0.83278 0.0
H521 H 0.31586 0.83261 0.8911 0.0
H522 H 0.20969 0.83212 0.89194 0.0
H523 H 0.23183 0.86899 0.8782 0.0
H524 H 0.22788 0.85775 0.95505 0.0
H525 H 0.29892 0.79804 0.96281 0.0
H526 H 0.26153 0.77966 0.96759 0.0
H527 H 0.28372 0.80783 0.02343 0.0
H528 H 0.09481 0.66183 0.83953 0.0
H529 H 0.04202 0.63185 0.83655 0.0
H530 H 0.05798 0.66612 0.87703 0.0
H531 H 0.04517 0.63531 0.91901 0.0
H532 H 0.14621 0.66947 0.98835 0.0
H533 H 0.10234 0.70561 0.89874 0.0
H534 H 0.21396 0.7353 0.00515 0.0
H535 H 0.19527 0.69779 0.0162 0.0
H536 H 0.19433 0.72262 0.07105 0.0
H537 H 0.12085 0.75482 0.89594 0.0
H538 H 0.15826 0.77417 0.89174 0.0
H539 H 0.14365 0.77471 0.96256 0.0
H540 H 0.11822 0.67173 0.28532 0.0
H541 H 0.17037 0.6973 0.30206 0.0
H542 H 0.13831 0.74642 0.38632 0.0
H543 H 0.20412 0.7342 0.19661 0.0
H544 H 0.21482 0.72053 0.25859 0.0
H545 H 0.23271 0.75824 0.2497 0.0
H546 H 0.15547 0.79465 0.36886 0.0
H547 H 0.16779 0.80317 0.29362 0.0
H548 H 0.19242 0.81386 0.35846 0.0
H549 H 0.34138 0.93267 0.43086 0.0
H550 H 0.37006 0.98405 0.40526 0.0
H551 H 0.38345 0.97309 0.34272 0.0
H552 H 0.34692 0.96205 0.34141 0.0
H553 H 0.34635 0.87335 0.29929 0.0
H554 H 0.30577 0.91909 0.35681 0.0
H555 H 0.30015 0.82921 0.18748 0.0
H556 H 0.28374 0.80846 0.2501 0.0
H557 H 0.32132 0.82747 0.24956 0.0
H558 H 0.25975 0.90533 0.32228 0.0
H559 H 0.23872 0.86761 0.3287 0.0
H560 H 0.24503 0.8812 0.2547 0.0
H561 H 0.20827 0.77887 0.91125 0.0
H562 H 0.15183 0.74118 0.08068 0.0
H563 H 0.1597 0.75074 0.18888 0.0
H564 H 0.23806 0.81589 0.3251 0.0
H565 H 0.28431 0.86794 0.15379 0.0
H566 H 0.27676 0.8579 0.04478 0.0
H567 H 0.07726 0.68163 0.36061 0.0
H568 H 0.07081 0.66744 0.2823 0.0
H569 H 0.09666 0.70337 0.30126 0.0
C570 C 0.39623 0.32944 0.41979 0.0
C571 C 0.42478 0.33168 0.41381 0.0
C572 C 0.43906 0.30728 0.34231 0.0
C573 C 0.46796 0.31963 0.35399 0.0
C574 C 0.48147 0.30434 0.33999 0.0
C575 C 0.4657 0.27642 0.31219 0.0
C576 C 0.43651 0.26408 0.29955 0.0
C577 C 0.42356 0.27981 0.31459 0.0
C578 C 0.51265 0.31823 0.35344 0.0
C579 C 0.41917 0.23453 0.26913 0.0
C580 C 0.48981 0.10219 0.49888 0.0
C581 C 0.4825 0.11728 0.45357 0.0
C582 C 0.49871 0.16502 0.42138 0.0
C583 C 0.47638 0.15673 0.37721 0.0
C584 C 0.47412 0.17689 0.34361 0.0
C585 C 0.49486 0.20585 0.35338 0.0
C586 C 0.51719 0.21434 0.39812 0.0
C587 C 0.51879 0.19375 0.43162 0.0
C588 C 0.44999 0.16711 0.29627 0.0
C589 C 0.53976 0.24504 0.40921 0.0
C590 C 0.56479 0.17925 0.05186 0.0
C591 C 0.53679 0.17108 0.03621 0.0
C592 C 0.52803 0.19118 0.03767 0.0
C593 C 0.54755 0.21984 0.05636 0.0
C594 C 0.57619 0.22853 0.06624 0.0
C595 C 0.5845 0.20803 0.06323 0.0
C596 C 0.49747 0.18135 0.02438 0.0
C597 C 0.59759 0.25901 0.08513 0.0
C598 C 0.48041 0.3639 0.99002 0.0
C599 C 0.51092 0.37782 0.9725 0.0
C600 C 0.51827 0.33751 0.96216 0.0
C601 C 0.50017 0.30879 0.94511 0.0
C602 C 0.50293 0.28775 0.97407 0.0
C603 C 0.52481 0.2959 0.01985 0.0
C604 C 0.54468 0.32501 0.03309 0.0
C605 C 0.54105 0.34556 0.0044 0.0
C606 C 0.48155 0.25692 0.95844 0.0
C607 C 0.5689 0.33445 0.07997 0.0
C608 C 0.48002 0.26104 0.29168 0.0
C609 C 0.48189 0.24218 0.33023 0.0
C610 C 0.49466 0.22669 0.31237 0.0
C611 C 0.50602 0.23016 0.25491 0.0
C612 C 0.51907 0.21497 0.23578 0.0
C613 C 0.52944 0.21786 0.17857 0.0
C614 C 0.52735 0.23619 0.13815 0.0
C615 C 0.53714 0.23863 0.07907 0.0
C616 C 0.53604 0.25804 0.04103 0.0
C617 C 0.52458 0.27464 0.06016 0.0
C618 C 0.51328 0.27133 0.11782 0.0
C619 C 0.50022 0.28654 0.13705 0.0
C620 C 0.48931 0.28321 0.19384 0.0
C621 C 0.49112 0.26465 0.23389 0.0
C622 C 0.50413 0.24911 0.21545 0.0
C623 C 0.515 0.25227 0.15716 0.0
C624 C 0.57445 0.12262 0.10859 0.0
C625 C 0.5565 0.1321 0.07324 0.0
O626 O 0.42587 0.32189 0.35551 0.0
O627 O 0.51302 0.35705 0.93815 0.0
O628 O 0.57327 0.15998 0.0589 0.0
O629 O 0.50166 0.14605 0.45459 0.0
H630 H 0.42442 0.31663 0.44663 0.0
H631 H 0.37946 0.30681 0.41347 0.0
H632 H 0.39174 0.3411 0.38511 0.0
H633 H 0.39529 0.3379 0.46596 0.0
H634 H 0.48003 0.34136 0.37312 0.0
H635 H 0.40125 0.27073 0.30498 0.0
H636 H 0.51772 0.30412 0.37938 0.0
H637 H 0.52148 0.33905 0.38001 0.0
H638 H 0.52294 0.32157 0.30989 0.0
H639 H 0.39666 0.22787 0.26306 0.0
H640 H 0.42149 0.21916 0.29686 0.0
H641 H 0.42681 0.23355 0.22371 0.0
H642 H 0.46053 0.11285 0.45441 0.0
H643 H 0.47317 0.09527 0.53234 0.0
H644 H 0.50684 0.11895 0.53159 0.0
H645 H 0.49546 0.07366 0.44533 0.0
H646 H 0.46083 0.13455 0.36792 0.0
H647 H 0.53594 0.19997 0.46564 0.0
H648 H 0.45789 0.16998 0.25004 0.0
H649 H 0.43987 0.18019 0.3021 0.0
H650 H 0.434 0.14442 0.29883 0.0
H651 H 0.5553 0.24834 0.44694 0.0
H652 H 0.53025 0.25829 0.42038 0.0
H653 H 0.55079 0.25254 0.36699 0.0
H654 H 0.54141 0.13216 0.10478 0.0
H655 H 0.52151 0.14895 0.02501 0.0
H656 H 0.60617 0.21419 0.07382 0.0
H657 H 0.48759 0.17962 0.06809 0.0
H658 H 0.48626 0.16026 0.99843 0.0
H659 H 0.49488 0.19694 0.99804 0.0
H660 H 0.61929 0.26292 0.08481 0.0
H661 H 0.59413 0.26451 0.13192 0.0
H662 H 0.59519 0.27335 0.05414 0.0
H663 H 0.52507 0.38492 0.01478 0.0
H664 H 0.4769 0.37728 0.02364 0.0
H665 H 0.47459 0.34373 0.01135 0.0
H666 H 0.46604 0.35893 0.94872 0.0
H667 H 0.48296 0.3029 0.91147 0.0
H668 H 0.55575 0.36787 0.01565 0.0
H669 H 0.47003 0.24754 0.9992 0.0
H670 H 0.49218 0.24499 0.94527 0.0
H671 H 0.46626 0.25406 0.92052 0.0
H672 H 0.5851 0.35703 0.07689 0.0
H673 H 0.57865 0.32101 0.07426 0.0
H674 H 0.56117 0.332 0.12633 0.0
H675 H 0.47303 0.23927 0.37421 0.0
H676 H 0.52132 0.20052 0.26465 0.0
H677 H 0.53916 0.20549 0.16668 0.0
H678 H 0.54404 0.26015 0.99622 0.0
H679 H 0.49804 0.30106 0.1083 0.0
H680 H 0.47941 0.29542 0.20585 0.0
H681 H 0.56135 0.1006 0.12205 0.0
H682 H 0.58455 0.13683 0.15069 0.0
H683 H 0.59105 0.12344 0.08059 0.0
C684 C 0.9811 0.41519 0.78243 0.0
C685 C 0.06036 0.46205 0.70786 0.0
C686 C 0.04862 0.5535 0.73024 0.0
Mg687 Mg -0.00025 0.43434 0.65384 0.0
O688 O 0.9964 0.46523 0.68524 0.0
Mg689 Mg 0.01846 0.48539 0.7633 0.0
Mg690 Mg 0.01161 0.49836 0.63466 0.0
O691 O 0.02737 0.53058 0.58029 0.0
Mg692 Mg 0.02671 0.5636 0.60108 0.0
Mg693 Mg 0.00814 0.50967 0.4993 0.0
C694 C 0.97105 0.44417 0.5368 0.0
C695 C 0.05169 0.48921 0.5426 0.0
O696 O 0.99363 0.44125 0.80394 0.0
O697 O 0.98048 0.40782 0.72617 0.0
O698 O 0.05354 0.47566 0.74568 0.0
O699 O 0.04313 0.44575 0.66416 0.0
O700 O 0.97579 0.42689 0.56614 0.0
O701 O 0.98202 0.47045 0.55478 0.0
C702 C 0.97129 0.50339 0.73326 0.0
O703 O 0.97896 0.50787 0.67828 0.0
O704 O 0.98302 0.49476 0.77152 0.0
O705 O 0.03719 0.55182 0.45583 0.0
O706 O 0.05005 0.58761 0.52806 0.0
O707 O 0.97461 0.52292 0.50192 0.0
C708 C 0.05065 0.57836 0.47389 0.0
O709 O 0.98458 0.55376 0.58235 0.0
O710 O 0.04473 0.56943 0.69424 0.0
C711 C 0.96862 0.53835 0.53623 0.0
O712 O 0.04106 0.52745 0.71424 0.0
O713 O 0.04388 0.48832 0.59676 0.0
O714 O 0.0415 0.49663 0.49856 0.0
C715 C 0.50391 0.05674 0.85322 0.0
C716 C 0.43911 0.97712 0.76082 0.0
C717 C 0.52498 0.96061 0.71468 0.0
Mg718 Mg 0.47986 0.03697 0.71951 0.0
O719 O 0.50714 0.02636 0.72044 0.0
Mg720 Mg 0.50817 0.00235 0.7864 0.0
Mg721 Mg 0.51619 0.00915 0.64926 0.0
O722 O 0.52631 0.99199 0.58106 0.0
Mg723 Mg 0.55753 0.98765 0.59833 0.0
Mg724 Mg 0.52918 0.01831 0.51736 0.0
C725 C 0.50328 0.05456 0.58623 0.0
C726 C 0.464 0.97774 0.54552 0.0
O727 O 0.50777 0.03541 0.85482 0.0
O728 O 0.4943 0.06252 0.80519 0.0
O729 O 0.46013 0.97556 0.78195 0.0
O730 O 0.44171 0.99837 0.73309 0.0
O731 O 0.4877 0.05391 0.62875 0.0
O732 O 0.51946 0.04394 0.59065 0.0
C733 C 0.57113 0.0401 0.74542 0.0
O734 O 0.56182 0.03599 0.68954 0.0
O735 O 0.55505 0.02954 0.78846 0.0
O736 O 0.53686 0.98764 0.45193 0.0
O737 O 0.55437 0.96687 0.51255 0.0
O738 O 0.57699 0.04804 0.53749 0.0
C739 C 0.54582 0.97016 0.46027 0.0
O740 O 0.5943 0.02891 0.60183 0.0
O741 O 0.54332 0.96269 0.6782 0.0
C742 C 0.59726 0.04921 0.57022 0.0
O743 O 0.5119 0.97437 0.70922 0.0
O744 O 0.47094 0.98223 0.6033 0.0
O745 O 0.48233 0.9893 0.50641 0.0
C746 C 0.53415 0.5597 0.39273 0.0
C747 C 0.57875 0.52218 0.45646 0.0
C748 C 0.48429 0.43936 0.53837 0.0
Mg749 Mg 0.55906 0.55976 0.52085 0.0
O750 O 0.52377 0.52836 0.5259 0.0
Mg751 Mg 0.50946 0.49741 0.45934 0.0
Mg752 Mg 0.51764 0.50568 0.59808 0.0
O753 O 0.51201 0.48338 0.67074 0.0
Mg754 Mg 0.4778 0.45069 0.67933 0.0
Mg755 Mg 0.52671 0.51474 0.73727 0.0
C756 C 0.54885 0.57137 0.65822 0.0
C757 C 0.57846 0.52154 0.66028 0.0
O758 O 0.51863 0.53253 0.39183 0.0
O759 O 0.54967 0.5749 0.43982 0.0
O760 O 0.55318 0.50435 0.44006 0.0
O761 O 0.5859 0.54365 0.4939 0.0
O762 O 0.56206 0.58064 0.61007 0.0
O763 O 0.53073 0.54504 0.66166 0.0
C764 C 0.45857 0.49379 0.53638 0.0
O765 O 0.47271 0.49678 0.58654 0.0
O766 O 0.46791 0.4938 0.48405 0.0
O767 O 0.52274 0.48068 0.80302 0.0
O768 O 0.49173 0.43755 0.75759 0.0
O769 O 0.48206 0.50484 0.7591 0.0
C770 C 0.50934 0.4534 0.80154 0.0
O771 O 0.44949 0.46407 0.70943 0.0
O772 O 0.47284 0.43027 0.58849 0.0
C773 C 0.45649 0.486 0.74515 0.0
O774 O 0.50289 0.46562 0.53406 0.0
O775 O 0.5633 0.51544 0.61007 0.0
O776 O 0.56937 0.5227 0.71224 0.0
C777 C 0.12201 0.49361 0.53044 0.0
C778 C 0.11382 0.46606 0.50316 0.0
C779 C 0.06476 0.45506 0.49598 0.0
C780 C 0.07285 0.48097 0.53009 0.0
N781 N 0.10837 0.52291 0.58875 0.0
N782 N 0.07762 0.41979 0.466 0.0
C783 C 0.10119 0.49951 0.55038 0.0
C784 C 0.08504 0.44669 0.48703 0.0
N785 N 0.14932 0.51488 0.53411 0.0
N786 N 0.03769 0.43836 0.47287 0.0
H787 H 0.05715 0.40308 0.45783 0.0
H788 H 0.05715 0.40308 0.45783 0.0
H789 H 0.02179 0.44243 0.48345 0.0
H790 H 0.03121 0.42146 0.4403 0.0
H791 H 0.15567 0.5358 0.54867 0.0
H792 H 0.16533 0.51325 0.51496 0.0
H793 H 0.12809 0.53503 0.61148 0.0
H794 H 0.09407 0.52892 0.60197 0.0
C795 C 0.67436 0.09709 0.54672 0.0
C796 C 0.67771 0.12446 0.56148 0.0
C797 C 0.62975 0.10123 0.59478 0.0
C798 C 0.62525 0.07476 0.57022 0.0
N799 N 0.64216 0.0476 0.51593 0.0
N800 N 0.65892 0.15097 0.61488 0.0
C801 C 0.64731 0.07264 0.54487 0.0
C802 C 0.65574 0.12611 0.58996 0.0
N803 N 0.69701 0.09405 0.53729 0.0
N804 N 0.60909 0.10291 0.62328 0.0
H805 H 0.6774 0.1705 0.61766 0.0
H806 H 0.6774 0.1705 0.61766 0.0
H807 H 0.58985 0.08516 0.62968 0.0
H808 H 0.61143 0.12205 0.64146 0.0
H809 H 0.69584 0.07436 0.5327 0.0
H810 H 0.71751 0.1108 0.54149 0.0
H811 H 0.65655 0.04579 0.48986 0.0
H812 H 0.62264 0.02915 0.51308 0.0
C813 C 0.51595 0.57874 0.23963 0.0
C814 C 0.543 0.59769 0.22026 0.0
C815 C 0.56407 0.58897 0.31188 0.0
C816 C 0.5372 0.57347 0.33457 0.0
N817 N 0.48805 0.55776 0.3248 0.0
N818 N 0.59344 0.61587 0.23655 0.0
C819 C 0.51328 0.56945 0.29968 0.0
C820 C 0.56708 0.6015 0.25566 0.0
N821 N 0.49279 0.56806 0.19975 0.0
N822 N 0.58721 0.59141 0.34302 0.0
H823 H 0.59882 0.6247 0.19473 0.0
H824 H 0.59882 0.6247 0.19473 0.0
H825 H 0.58662 0.58108 0.38216 0.0
H826 H 0.6073 0.60294 0.32813 0.0
H827 H 0.47311 0.55221 0.21017 0.0
H828 H 0.49353 0.57189 0.15371 0.0
H829 H 0.47053 0.55729 0.30409 0.0
H830 H 0.48533 0.55121 0.36911 0.0
C831 C 0.89321 0.52079 0.51269 0.0
C832 C 0.8966 0.54693 0.49337 0.0
C833 C 0.94776 0.56792 0.50643 0.0
C834 C 0.94388 0.54083 0.51861 0.0
N835 N 0.91323 0.4905 0.52482 0.0
N836 N 0.92769 0.59693 0.47974 0.0
C837 C 0.91672 0.51695 0.5186 0.0
C838 C 0.92408 0.57105 0.49319 0.0
N839 N 0.86788 0.50021 0.52953 0.0
N840 N 0.9743 0.59072 0.50732 0.0
H841 H 0.91192 0.60201 0.47962 0.0
H842 H 0.94645 0.61383 0.46812 0.0
H843 H 0.99214 0.58879 0.50832 0.0
H844 H 0.97909 0.61177 0.50832 0.0
H845 H 0.86498 0.48206 0.54967 0.0
H846 H 0.85042 0.50265 0.5312 0.0
H847 H 0.89396 0.47191 0.5173 0.0
H848 H 0.92974 0.48677 0.5333 0.0
C849 C 0.40719 0.94288 0.42148 0.0
C850 C 0.38548 0.94617 0.4456 0.0
C851 C 0.4118 0.96065 0.54623 0.0
C852 C 0.4343 0.95975 0.51991 0.0
N853 N 0.44703 0.93673 0.44284 0.0
N854 N 0.37046 0.96455 0.52946 0.0
C855 C 0.42994 0.94668 0.46053 0.0
C856 C 0.38846 0.95647 0.50786 0.0
N857 N 0.40667 0.93828 0.35996 0.0
N858 N 0.41195 0.96404 0.60796 0.0
H859 H 0.35397 0.9637 0.50313 0.0
H860 H 0.37375 0.97532 0.57197 0.0
H861 H 0.42713 0.96394 0.63695 0.0
H862 H 0.39505 0.96235 0.63042 0.0
H863 H 0.42286 0.93832 0.33726 0.0
H864 H 0.42286 0.93832 0.33726 0.0
H865 H 0.44336 0.92426 0.40252 0.0
H866 H 0.46279 0.9379 0.47266 0.0
C867 C 0.46935 0.36794 0.47895 0.0
C868 C 0.44888 0.36215 0.43037 0.0
C869 C 0.46172 0.41226 0.43641 0.0
C870 C 0.47889 0.41696 0.49003 0.0
N871 N 0.5079 0.40364 0.54697 0.0
N872 N 0.43717 0.38201 0.34523 0.0
C873 C 0.48571 0.39614 0.50587 0.0
C874 C 0.449 0.38542 0.40296 0.0
N875 N 0.47274 0.34661 0.50055 0.0
N876 N 0.45638 0.43285 0.41913 0.0
H877 H 0.42826 0.36292 0.31853 0.0
H878 H 0.43885 0.39886 0.32143 0.0
H879 H 0.46705 0.4531 0.44045 0.0
H880 H 0.44091 0.42949 0.38574 0.0
H881 H 0.48386 0.34864 0.5416 0.0
H882 H 0.46452 0.32667 0.47761 0.0
H883 H 0.51576 0.39036 0.5573 0.0
H884 H 0.52022 0.4244 0.56632 0.0
C885 C 0.52243 0.9279 0.86512 0.0
C886 C 0.50034 0.89932 0.8499 0.0
C887 C 0.49483 0.91177 0.74657 0.0
C888 C 0.51698 0.93979 0.76129 0.0
N889 N 0.55656 0.97271 0.82828 0.0
N890 N 0.47618 0.8628 0.76721 0.0
C891 C 0.53225 0.94731 0.81867 0.0
C892 C 0.48956 0.89078 0.78802 0.0
N893 N 0.53405 0.93685 0.92358 0.0
N894 N 0.4788 0.90503 0.69284 0.0
H895 H 0.47555 0.84688 0.79286 0.0
H896 H 0.46973 0.85598 0.72141 0.0
H897 H 0.48246 0.9196 0.66012 0.0
H898 H 0.46049 0.88559 0.68328 0.0
H899 H 0.54676 0.95818 0.93835 0.0
H900 H 0.53033 0.92352 0.95871 0.0
H901 H 0.5705 0.97818 0.86644 0.0
H902 H 0.56408 0.98737 0.79526 0.0
C903 C 0.64137 0.51298 0.69122 0.0
C904 C 0.66202 0.54207 0.7011 0.0
C905 C 0.62946 0.55494 0.65274 0.0
C906 C 0.60742 0.52707 0.65984 0.0
N907 N 0.59194 0.47842 0.67927 0.0
N908 N 0.67948 0.58841 0.66339 0.0
C909 C 0.61328 0.5056 0.67613 0.0
C910 C 0.65731 0.56232 0.67204 0.0
N911 N 0.649 0.49273 0.69089 0.0
N912 N 0.6234 0.57456 0.63117 0.0
H913 H 0.70004 0.59388 0.67547 0.0
H914 H 0.67801 0.6038 0.63979 0.0
H915 H 0.60334 0.56915 0.61444 0.0
H916 H 0.63775 0.5961 0.63082 0.0
H917 H 0.63503 0.47122 0.68008 0.0
H918 H 0.66993 0.49805 0.69218 0.0
H919 H 0.59464 0.46266 0.69822 0.0
H920 H 0.57127 0.47206 0.66529 0.0
C921 C 0.06232 0.59287 0.87867 0.0
C922 C 0.0829 0.61877 0.85721 0.0
C923 C 0.09246 0.59211 0.77921 0.0
C924 C 0.06601 0.56842 0.78717 0.0
N925 N 0.03059 0.54251 0.8547 0.0
N926 N 0.12662 0.64146 0.80983 0.0
C927 C 0.05274 0.56746 0.8411 0.0
C928 C 0.10124 0.61787 0.81508 0.0
N929 N 0.05311 0.5926 0.93531 0.0
N930 N 0.1076 0.59013 0.73378 0.0
H931 H 0.13394 0.65982 0.83867 0.0
H932 H 0.14128 0.64235 0.78065 0.0
H933 H 0.10104 0.57085 0.70871 0.0
H934 H 0.12621 0.60689 0.72112 0.0
H935 H 0.03898 0.57419 0.95474 0.0
H936 H 0.06217 0.61071 0.96545 0.0
H937 H 0.01724 0.54065 0.88842 0.0
H938 H 0.02647 0.52359 0.83187 0.0
C939 C 0.51458 0.08753 0.01706 0.0
C940 C 0.54168 0.11205 0.01584 0.0
C941 C 0.541 0.10225 0.90563 0.0
C942 C 0.51475 0.07724 0.90725 0.0
N943 N 0.47716 0.04422 0.96359 0.0
N944 N 0.58348 0.13691 0.96451 0.0
C945 C 0.50162 0.06945 0.96272 0.0
C946 C 0.5556 0.11771 0.96117 0.0
N947 N 0.50128 0.08116 0.07002 0.0
N948 N 0.552 0.11142 0.85109 0.0
H949 H 0.59631 0.14069 0.92854 0.0
H950 H 0.59631 0.14069 0.92854 0.0
H951 H 0.54284 0.10008 0.80927 0.0
H952 H 0.56889 0.13162 0.84681 0.0
H953 H 0.4801 0.06671 0.07176 0.0
H954 H 0.51111 0.09034 0.11291 0.0
H955 H 0.46807 0.03517 0.00322 0.0
H956 H 0.46633 0.03146 0.92403 0.0
C957 C 0.41269 0.51332 0.81895 0.0
C958 C 0.40148 0.49407 0.86589 0.0
C959 C 0.42227 0.46692 0.82539 0.0
C960 C 0.43486 0.48688 0.78106 0.0
N961 N 0.43512 0.52328 0.72294 0.0
N962 N 0.38366 0.4453 0.88913 0.0
C963 C 0.42785 0.50831 0.77378 0.0
C964 C 0.40244 0.46851 0.8613 0.0
N965 N 0.40937 0.53651 0.81788 0.0
N966 N 0.43011 0.4472 0.83564 0.0
H967 H 0.36683 0.44465 0.90999 0.0
H968 H 0.38235 0.42556 0.88342 0.0
H969 H 0.44484 0.44521 0.81113 0.0
H970 H 0.42372 0.43442 0.87234 0.0
H971 H 0.42024 0.55317 0.79041 0.0
H972 H 0.39624 0.53963 0.84567 0.0
H973 H 0.42839 0.53734 0.71126 0.0
H974 H 0.44591 0.51958 0.68934 0.0
C975 C 0.96957 0.36541 0.94595 0.0
C976 C 0.93272 0.33799 0.92295 0.0
C977 C 0.9342 0.3612 0.79607 0.0
C978 C 0.96725 0.39253 0.82353 0.0
N979 N 0.0112 0.41648 0.91191 0.0
N980 N 0.89332 0.30748 0.82455 0.0
C981 C 0.98537 0.39429 0.8962 0.0
C982 C 0.91731 0.3315 0.84314 0.0
N983 N 0.98193 0.36556 0.00024 0.0
N984 N 0.9218 0.36022 0.74104 0.0
H985 H 0.88388 0.29141 0.85429 0.0
H986 H 0.88413 0.30433 0.78049 0.0
H987 H 0.93006 0.37749 0.71418 0.0
H988 H 0.9029 0.34247 0.72508 0.0
H989 H 0.00208 0.38169 0.01453 0.0
H990 H 0.97124 0.34918 0.02866 0.0
H991 H 0.02192 0.41762 0.95298 0.0
H992 H 0.02129 0.43274 0.88302 0.0
C993 C 0.94236 0.55131 0.76554 0.0
C994 C 0.93992 0.54839 0.82977 0.0
C995 C 0.94176 0.50423 0.81652 0.0
C996 C 0.95145 0.51191 0.75805 0.0
N997 N 0.94063 0.52826 0.66759 0.0
N998 N 0.92933 0.5169 0.91214 0.0
C999 C 0.94566 0.53113 0.72924 0.0
C1000 C 0.93665 0.52295 0.85377 0.0
N1001 N 0.94286 0.5738 0.73913 0.0
N1002 N 0.9356 0.47807 0.83397 0.0
H1003 H 0.92023 0.52634 0.93738 0.0
H1004 H 0.93166 0.5019 0.93551 0.0
H1005 H 0.93673 0.46327 0.80424 0.0
H1006 H 0.92648 0.46975 0.87408 0.0
H1007 H 0.94873 0.57878 0.69491 0.0
H1008 H 0.93878 0.58838 0.76148 0.0
H1009 H 0.93323 0.53973 0.64431 0.0
H1010 H 0.93966 0.51129 0.64165 0.0
C1011 C 0.37273 0.90511 0.75724 0.0
C1012 C 0.35537 0.91223 0.79109 0.0
C1013 C 0.39483 0.96067 0.81315 0.0
C1014 C 0.4108 0.95443 0.77301 0.0
N1015 N 0.41636 0.91967 0.71246 0.0
N1016 N 0.3557 0.94172 0.87657 0.0
C1017 C 0.40027 0.92635 0.74734 0.0
C1018 C 0.36807 0.93861 0.82657 0.0
N1019 N 0.36428 0.87799 0.73611 0.0
N1020 N 0.40521 0.98765 0.83882 0.0
H1021 H 0.33803 0.92485 0.89271 0.0
H1022 H 0.36502 0.95962 0.90717 0.0
H1023 H 0.42557 0.00399 0.8346 0.0
H1024 H 0.39308 0.99424 0.86164 0.0
H1025 H 0.34551 0.8603 0.74539 0.0
H1026 H 0.34551 0.8603 0.74539 0.0
H1027 H 0.40912 0.89929 0.69226 0.0
H1028 H 0.43672 0.93439 0.70319 0.0
C1029 C 0.51127 0.42434 0.95451 0.0
C1030 C 0.51879 0.40394 0.93587 0.0
C1031 C 0.52986 0.42424 0.83686 0.0
C1032 C 0.51578 0.43939 0.85048 0.0
N1033 N 0.49393 0.45514 0.92309 0.0
N1034 N 0.55243 0.3995 0.87747 0.0
C1035 C 0.50727 0.44036 0.91001 0.0
C1036 C 0.53331 0.40822 0.88216 0.0
N1037 N 0.50992 0.42971 0.01505 0.0
N1038 N 0.53946 0.42477 0.78041 0.0
H1039 H 0.55839 0.3917 0.91419 0.0
H1040 H 0.56522 0.40379 0.84138 0.0
H1041 H 0.53902 0.43777 0.74741 0.0
H1042 H 0.54666 0.41134 0.76536 0.0
H1043 H 0.5068 0.44599 0.03196 0.0
H1044 H 0.51545 0.42008 0.04867 0.0
H1045 H 0.4843 0.45371 0.96354 0.0
H1046 H 0.49083 0.46737 0.89186 0.0
C1047 C 0.10518 0.42964 0.74105 0.0
C1048 C 0.11275 0.44124 0.8028 0.0
C1049 C 0.10418 0.47932 0.77395 0.0
C1050 C 0.08661 0.46136 0.72379 0.0
N1051 N 0.07921 0.42548 0.6457 0.0
N1052 N 0.12665 0.48263 0.87272 0.0
C1053 C 0.09023 0.43861 0.70226 0.0
C1054 C 0.11509 0.46816 0.81735 0.0
N1055 N 0.11283 0.41083 0.71941 0.0
N1056 N 0.1103 0.50691 0.7793 0.0
H1057 H 0.13755 0.47719 0.90382 0.0
H1058 H 0.12503 0.50005 0.88827 0.0
H1059 H 0.10315 0.51527 0.74571 0.0
H1060 H 0.12466 0.52192 0.81244 0.0
H1061 H 0.10972 0.40326 0.67387 0.0
H1062 H 0.12488 0.4049 0.74581 0.0
H1063 H 0.07707 0.40602 0.63104 0.0
H1064 H 0.07277 0.43468 0.61294 0.0
C1065 C 0.64178 0.06209 0.81692 0.0
C1066 C 0.64644 0.08724 0.84978 0.0
C1067 C 0.60994 0.08768 0.7841 0.0
C1068 C 0.60099 0.0593 0.76326 0.0
N1069 N 0.61221 0.02231 0.74562 0.0
N1070 N 0.64607 0.13085 0.84019 0.0
C1071 C 0.61844 0.04768 0.77424 0.0
C1072 C 0.6342 0.10246 0.82494 0.0
N1073 N 0.65912 0.05141 0.82551 0.0
N1074 N 0.5943 0.09966 0.76761 0.0
H1075 H 0.66499 0.14205 0.86654 0.0
H1076 H 0.63917 0.14371 0.82156 0.0
H1077 H 0.57676 0.08925 0.73672 0.0
H1078 H 0.5983 0.11947 0.78511 0.0
H1079 H 0.67764 0.06173 0.8535 0.0
H1080 H 0.67764 0.06173 0.8535 0.0
H1081 H 0.6242 0.01272 0.75389 0.0
H1082 H 0.59534 0.01143 0.7132 0.0
C1083 C 0.53253 0.62566 0.70475 0.0
C1084 C 0.56041 0.6491 0.71551 0.0
C1085 C 0.57777 0.61569 0.72399 0.0
C1086 C 0.55096 0.5933 0.70367 0.0
N1087 N 0.50166 0.57482 0.7068 0.0
N1088 N 0.60597 0.66413 0.76655 0.0
C1089 C 0.52791 0.59758 0.70563 0.0
C1090 C 0.58185 0.64339 0.73621 0.0
N1091 N 0.51062 0.62974 0.69007 0.0
N1092 N 0.5995 0.61055 0.72811 0.0
H1093 H 0.60916 0.68403 0.78058 0.0
H1094 H 0.62134 0.66039 0.78518 0.0
H1095 H 0.59624 0.58994 0.72257 0.0
H1096 H 0.62037 0.62648 0.73463 0.0
H1097 H 0.49122 0.61344 0.67186 0.0
H1098 H 0.51151 0.64922 0.69477 0.0
H1099 H 0.48411 0.57673 0.71303 0.0
H1100 H 0.4981 0.55425 0.70928 0.0
C1101 C 0.52467 0.11176 0.43302 0.0
C1102 C 0.4876 0.10076 0.41041 0.0
C1103 C 0.4644 0.05057 0.4937 0.0
C1104 C 0.49973 0.06541 0.52885 0.0
N1105 N 0.55558 0.10416 0.52393 0.0
N1106 N 0.43199 0.05616 0.40127 0.0
C1107 C 0.52968 0.09475 0.49786 0.0
C1108 C 0.45775 0.06625 0.42877 0.0
N1109 N 0.54605 0.13362 0.40829 0.0
N1110 N 0.44294 0.02833 0.5173 0.0
H1111 H 0.42896 0.06701 0.36648 0.0
H1112 H 0.41496 0.03748 0.41357 0.0
H1113 H 0.4463 0.0196 0.5557 0.0
H1114 H 0.42254 0.01978 0.49838 0.0
H1115 H 0.56673 0.1406 0.42311 0.0
H1116 H 0.54195 0.14371 0.37336 0.0
H1117 H 0.57304 0.12106 0.50734 0.0
H1118 H 0.55856 0.09474 0.56161 0.0
C1119 C 0.40227 0.5135 0.55179 0.0
C1120 C 0.37771 0.48714 0.532 0.0
C1121 C 0.40685 0.46532 0.51723 0.0
C1122 C 0.43085 0.49123 0.53816 0.0
N1123 N 0.45221 0.54084 0.57214 0.0
N1124 N 0.36015 0.44299 0.46974 0.0
C1125 C 0.42875 0.51546 0.55441 0.0
C1126 C 0.38094 0.4644 0.50722 0.0
N1127 N 0.40165 0.53775 0.56602 0.0
N1128 N 0.40864 0.4413 0.50832 0.0
H1129 H 0.34243 0.44337 0.45362 0.0
H1130 H 0.36241 0.42721 0.44679 0.0
H1131 H 0.42729 0.44113 0.51604 0.0
H1132 H 0.39121 0.42114 0.4994 0.0
H1133 H 0.38393 0.5398 0.562 0.0
H1134 H 0.38393 0.5398 0.562 0.0
H1135 H 0.45152 0.55914 0.58501 0.0
H1136 H 0.4723 0.54363 0.57427 0.0
C1137 C 0.92409 0.42815 0.39171 0.0
C1138 C 0.89757 0.41617 0.41699 0.0
C1139 C 0.91932 0.41725 0.51696 0.0
C1140 C 0.94607 0.4321 0.49354 0.0
N1141 N 0.97461 0.45282 0.41009 0.0
N1142 N 0.86976 0.38656 0.49444 0.0
C1143 C 0.94865 0.43757 0.43109 0.0
C1144 C 0.89507 0.40679 0.47683 0.0
N1145 N 0.92565 0.42884 0.32991 0.0
N1146 N 0.91689 0.41486 0.57842 0.0
H1147 H 0.85175 0.37631 0.46505 0.0
H1148 H 0.86738 0.37698 0.53547 0.0
H1149 H 0.93389 0.42242 0.6105 0.0
H1150 H 0.898 0.40769 0.5984 0.0
H1151 H 0.94394 0.43474 0.30834 0.0
H1152 H 0.90815 0.42057 0.29921 0.0
H1153 H 0.97821 0.46098 0.36737 0.0
H1154 H 0.99286 0.45881 0.43711 0.0
C1155 C 0.56396 0.93574 0.33106 0.0
C1156 C 0.55115 0.90781 0.35149 0.0
C1157 C 0.52424 0.92038 0.41892 0.0
C1158 C 0.54262 0.94939 0.41083 0.0
N1159 N 0.57903 0.98532 0.35669 0.0
N1160 N 0.51169 0.87207 0.40305 0.0
C1161 C 0.5618 0.95729 0.36509 0.0
C1162 C 0.52879 0.89951 0.39048 0.0
N1163 N 0.57714 0.94131 0.27808 0.0
N1164 N 0.50312 0.91271 0.45699 0.0
H1165 H 0.51245 0.85465 0.38406 0.0
H1166 H 0.51245 0.85465 0.38406 0.0
H1167 H 0.49903 0.92749 0.47882 0.0
H1168 H 0.48943 0.89162 0.46537 0.0
H1169 H 0.58529 0.96082 0.25901 0.0
H1170 H 0.57643 0.92528 0.249 0.0
H1171 H 0.59582 0.99256 0.32927 0.0
H1172 H 0.57724 0.00141 0.3798 0.0
C1173 C 0.6266 0.54556 0.29222 0.0
C1174 C 0.65651 0.54252 0.32394 0.0
C1175 C 0.63272 0.52865 0.45131 0.0
C1176 C 0.60011 0.52391 0.4168 0.0
N1177 N 0.57306 0.53058 0.3157 0.0
N1178 N 0.68791 0.54506 0.43047 0.0
C1179 C 0.59718 0.53295 0.33893 0.0
C1180 C 0.66313 0.54089 0.40709 0.0
N1181 N 0.62574 0.55304 0.23481 0.0
N1182 N 0.6345 0.5242 0.5108 0.0
H1183 H 0.70432 0.55074 0.4023 0.0
H1184 H 0.69109 0.54284 0.47648 0.0
H1185 H 0.61701 0.51704 0.53609 0.0
H1186 H 0.65307 0.52733 0.53227 0.0
H1187 H 0.60849 0.55368 0.21602 0.0
H1188 H 0.6428 0.55868 0.20865 0.0
H1189 H 0.57117 0.53574 0.27137 0.0
H1190 H 0.55557 0.52311 0.34082 0.0
C1191 C 0.1123 0.64078 0.40888 0.0
C1192 C 0.09821 0.6449 0.3583 0.0
C1193 C 0.05568 0.60053 0.3738 0.0
C1194 C 0.0679 0.59932 0.43083 0.0
N1195 N 0.10893 0.61595 0.49998 0.0
N1196 N 0.06466 0.61843 0.27374 0.0
C1197 C 0.09665 0.61867 0.44741 0.0
C1198 C 0.07238 0.62149 0.33454 0.0
N1199 N 0.14079 0.65572 0.41577 0.0
N1200 N 0.02774 0.58323 0.35865 0.0
H1201 H 0.07779 0.63227 0.24309 0.0
H1202 H 0.04711 0.60043 0.25312 0.0
H1203 H 0.01417 0.56829 0.3869 0.0
H1204 H 0.01759 0.58565 0.32034 0.0
H1205 H 0.15263 0.65259 0.44926 0.0
H1206 H 0.15276 0.66831 0.38229 0.0
H1207 H 0.12845 0.63152 0.51921 0.0
H1208 H 0.09917 0.59833 0.52572 0.0
loop_
_geom_bond_atom_site_label_1
_geom_bond_atom_site_label_2
_geom_bond_distance
_geom_bond_site_symmetry_2
_ccdc_geom_bond_type
C0 C1 1.560 . S
C0 H61 0.959 . S
C0 H62 0.959 . S
C0 H63 0.960 . S
C1 C0 1.560 . S
C1 O56 1.426 . S
C1 H60 0.980 . S
C2 C3 1.407 . S
C2 C7 1.418 . S
C2 O56 1.334 . S
C3 C2 1.407 . S
C3 C4 1.360 . S
C3 H64 0.929 . S
C4 C3 1.360 . S
C4 C5 1.401 . S
C4 C8 1.527 . S
C5 C4 1.401 . S
C5 C6 1.405 . S
C5 C38 1.587 . S
C6 C5 1.405 . S
C6 C7 1.332 . S
C6 C9 1.496 . S
C7 C2 1.418 . S
C7 C6 1.332 . S
C7 H65 0.929 . S
C8 C4 1.527 . S
C8 H66 0.959 . S
C8 H67 0.961 . S
C8 H68 0.961 . S
C9 C6 1.496 . S
C9 H69 0.960 . S
C9 H70 0.960 . S
C9 H71 0.961 . S
C10 C11 1.517 . S
C10 H73 0.961 . S
C10 H74 0.960 . S
C10 H75 0.959 . S
C11 C10 1.517 . S
C11 O59 1.468 . S
C11 H72 0.980 . S
C12 C13 1.349 . S
C12 C17 1.367 . S
C12 O59 1.408 . S
C13 C12 1.349 . S
C13 C14 1.407 . S
C13 H76 0.930 . S
C14 C13 1.407 . S
C14 C15 1.449 . S
C14 C18 1.535 . S
C15 C14 1.449 . S
C15 C16 1.384 . S
C15 C40 1.553 . S
C16 C15 1.384 . S
C16 C17 1.364 . S
C16 C19 1.450 . S
C17 C12 1.367 . S
C17 C16 1.364 . S
C17 H77 0.931 . S
C18 C14 1.535 . S
C18 H78 0.959 . S
C18 H79 0.961 . S
C18 H80 0.959 . S
C19 C16 1.450 . S
C19 H81 0.960 . S
C19 H82 0.960 . S
C19 H83 0.960 . S
C20 C21 1.309 . S
C20 C25 1.304 . S
C20 O58 1.435 . S
C21 C20 1.309 . S
C21 C22 1.476 1_556 S
C21 H85 0.930 . S
C22 C21 1.476 1_554 S
C22 C23 1.400 . S
C22 C26 1.567 . S
C23 C22 1.400 . S
C23 C24 1.367 1_554 S
C23 C45 1.432 . S
C24 C23 1.367 1_556 S
C24 C25 1.346 . S
C24 C27 1.527 1_556 S
C25 C20 1.304 . S
C25 C24 1.346 . S
C25 H86 0.930 . S
C26 C22 1.567 . S
C26 H87 0.961 . S
C26 H88 0.960 . S
C26 H89 0.958 . S
C27 C24 1.527 1_554 S
C27 H90 0.961 1_554 S
C27 H91 0.960 . S
C27 H92 0.960 1_554 S
C28 C29 1.530 . S
C28 H94 0.961 . S
C28 H95 0.961 . S
C28 H96 0.959 . S
C29 C28 1.530 . S
C29 O57 1.412 . S
C29 H93 0.980 . S
C30 C31 1.288 . S
C30 C35 1.377 . S
C30 O57 1.393 . S
C31 C30 1.288 . S
C31 C32 1.369 1_556 S
C31 H97 0.932 . S
C32 C31 1.369 1_554 S
C32 C33 1.398 . S
C32 C36 1.527 . S
C33 C32 1.398 . S
C33 C34 1.380 . S
C33 C47 1.497 . S
C34 C33 1.380 . S
C34 C35 1.383 1_554 S
C34 C37 1.603 . S
C35 C30 1.377 . S
C35 C34 1.383 1_556 S
C35 H98 0.929 . S
C36 C32 1.527 . S
C36 H99 0.961 . S
C36 H100 0.959 . S
C36 H101 0.959 . S
C37 C34 1.603 . S
C37 H102 0.960 1_554 S
C37 H103 0.962 . S
C37 H104 0.961 . S
C38 C5 1.587 . S
C38 C39 1.360 . S
C38 C51 1.412 . S
C39 C38 1.360 . S
C39 C40 1.365 . S
C39 H105 0.929 . S
C40 C15 1.553 . S
C40 C39 1.365 . S
C40 C41 1.404 . S
C41 C40 1.404 . S
C41 C42 1.395 . S
C41 C52 1.451 . S
C42 C41 1.395 . S
C42 C43 1.322 . S
C42 H106 0.930 . S
C43 C42 1.322 . S
C43 C44 1.459 . S
C43 H107 0.929 . S
C44 C43 1.459 . S
C44 C45 1.445 . S
C44 C53 1.395 . S
C45 C23 1.432 . S
C45 C44 1.445 . S
C45 C46 1.370 . S
C46 C45 1.370 . S
C46 C47 1.438 . S
C46 H108 0.930 1_554 S
C47 C33 1.497 . S
C47 C46 1.438 . S
C47 C48 1.360 . S
C48 C47 1.360 . S
C48 C49 1.401 . S
C48 C53 1.446 . S
C49 C48 1.401 . S
C49 C50 1.347 . S
C49 H109 0.929 . S
C50 C49 1.347 . S
C50 C51 1.455 . S
C50 H110 0.930 . S
C51 C38 1.412 . S
C51 C50 1.455 . S
C51 C52 1.331 . S
C52 C41 1.451 . S
C52 C51 1.331 . S
C52 C53 1.497 . S
C53 C44 1.395 . S
C53 C48 1.446 . S
C53 C52 1.497 . S
C54 C55 1.582 . S
C54 H111 0.962 . S
C54 H112 0.959 . S
C54 H113 0.958 . S
C55 C54 1.582 . S
C55 O58 1.458 . S
C55 H84 0.980 . S
O56 C1 1.426 . S
O56 C2 1.334 . S
O57 C29 1.412 . S
O57 C30 1.393 . S
O58 C20 1.435 . S
O58 C55 1.458 . S
O59 C11 1.468 . S
O59 C12 1.408 . S
H60 C1 0.980 . S
H61 C0 0.959 . S
H62 C0 0.959 . S
H63 C0 0.960 . S
H64 C3 0.929 . S
H65 C7 0.929 . S
H66 C8 0.959 . S
H67 C8 0.961 . S
H68 C8 0.961 . S
H69 C9 0.960 . S
H70 C9 0.960 . S
H71 C9 0.961 . S
H72 C11 0.980 . S
H73 C10 0.961 . S
H74 C10 0.960 . S
H75 C10 0.959 . S
H76 C13 0.930 . S
H77 C17 0.931 . S
H78 C18 0.959 . S
H79 C18 0.961 . S
H80 C18 0.959 . S
H81 C19 0.960 . S
H82 C19 0.960 . S
H83 C19 0.960 . S
H84 C55 0.980 . S
H85 C21 0.930 . S
H86 C25 0.930 . S
H87 C26 0.961 . S
H88 C26 0.960 . S
H89 C26 0.958 . S
H90 C27 0.961 1_556 S
H91 C27 0.960 . S
H92 C27 0.960 1_556 S
H93 C29 0.980 . S
H94 C28 0.961 . S
H95 C28 0.961 . S
H96 C28 0.959 . S
H97 C31 0.932 . S
H98 C35 0.929 . S
H99 C36 0.961 . S
H100 C36 0.959 . S
H101 C36 0.959 . S
H102 C37 0.960 1_556 S
H103 C37 0.962 . S
H104 C37 0.961 . S
H105 C39 0.929 . S
H106 C42 0.930 . S
H107 C43 0.929 . S
H108 C46 0.930 1_556 S
H109 C49 0.929 . S
H110 C50 0.930 . S
H111 C54 0.962 . S
H112 C54 0.959 . S
H113 C54 0.958 . S
C114 C115 1.560 . S
C114 H175 0.959 . S
C114 H176 0.959 . S
C114 H177 0.960 . S
C115 C114 1.560 . S
C115 O170 1.426 . S
C115 H174 0.980 . S
C116 C117 1.407 . S
C116 C121 1.418 . S
C116 O170 1.334 . S
C117 C116 1.407 . S
C117 C118 1.360 . S
C117 H178 0.929 . S
C118 C117 1.360 . S
C118 C119 1.401 . S
C118 C122 1.527 . S
C119 C118 1.401 . S
C119 C120 1.405 . S
C119 C152 1.587 . S
C120 C119 1.405 . S
C120 C121 1.332 . S
C120 C123 1.496 . S
C121 C116 1.418 . S
C121 C120 1.332 . S
C121 H179 0.929 . S
C122 C118 1.527 . S
C122 H180 0.959 . S
C122 H181 0.961 . S
C122 H182 0.961 . S
C123 C120 1.496 . S
C123 H183 0.960 . S
C123 H184 0.960 . S
C123 H185 0.961 . S
C124 C125 1.517 . S
C124 H187 0.961 . S
C124 H188 0.960 . S
C124 H189 0.959 . S
C125 C124 1.517 . S
C125 O173 1.468 . S
C125 H186 0.980 . S
C126 C127 1.349 . S
C126 C131 1.367 . S
C126 O173 1.408 . S
C127 C126 1.349 . S
C127 C128 1.407 . S
C127 H190 0.930 . S
C128 C127 1.407 . S
C128 C129 1.449 . S
C128 C132 1.535 . S
C129 C128 1.449 . S
C129 C130 1.384 . S
C129 C154 1.553 . S
C130 C129 1.384 . S
C130 C131 1.364 . S
C130 C133 1.450 . S
C131 C126 1.367 . S
C131 C130 1.364 . S
C131 H191 0.931 . S
C132 C128 1.535 . S
C132 H192 0.959 . S
C132 H193 0.961 . S
C132 H194 0.959 . S
C133 C130 1.450 . S
C133 H195 0.960 . S
C133 H196 0.960 . S
C133 H197 0.960 . S
C134 C135 1.309 . S
C134 C139 1.304 . S
C134 O172 1.435 . S
C135 C134 1.309 . S
C135 C136 1.476 . S
C135 H199 0.930 . S
C136 C135 1.476 . S
C136 C137 1.400 . S
C136 C140 1.567 1_556 S
C137 C136 1.400 . S
C137 C138 1.373 . S
C137 C159 1.432 1_556 S
C138 C137 1.373 . S
C138 C139 1.339 . S
C138 C141 1.530 . S
C139 C134 1.304 . S
C139 C138 1.339 . S
C139 H200 0.930 . S
C140 C136 1.567 1_554 S
C140 H201 0.961 . S
C140 H202 0.960 . S
C140 H203 0.958 1_554 S
C141 C138 1.530 . S
C141 H204 0.961 . S
C141 H205 0.960 1_556 S
C141 H206 0.960 . S
C142 C143 1.530 . S
C142 H208 0.961 . S
C142 H209 0.961 . S
C142 H210 0.959 . S
C143 C142 1.530 . S
C143 O171 1.412 . S
C143 H207 0.980 . S
C144 C145 1.288 . S
C144 C149 1.377 . S
C144 O171 1.393 . S
C145 C144 1.288 . S
C145 C146 1.369 . S
C145 H211 0.932 . S
C146 C145 1.369 . S
C146 C147 1.398 . S
C146 C150 1.527 1_556 S
C147 C146 1.398 . S
C147 C148 1.380 . S
C147 C161 1.497 1_556 S
C148 C147 1.380 . S
C148 C149 1.383 . S
C148 C151 1.603 . S
C149 C144 1.377 . S
C149 C148 1.383 . S
C149 H212 0.929 . S
C150 C146 1.527 1_554 S
C150 H213 0.961 . S
C150 H214 0.959 1_554 S
C150 H215 0.957 1_554 S
C151 C148 1.603 . S
C151 H216 0.960 . S
C151 H217 0.962 1_556 S
C151 H218 0.961 1_556 S
C152 C119 1.587 . S
C152 C153 1.360 . S
C152 C165 1.412 . S
C153 C152 1.360 . S
C153 C154 1.365 . S
C153 H219 0.929 . S
C154 C129 1.553 . S
C154 C153 1.365 . S
C154 C155 1.404 . S
C155 C154 1.404 . S
C155 C156 1.395 . S
C155 C166 1.451 . S
C156 C155 1.395 . S
C156 C157 1.322 . S
C156 H220 0.930 . S
C157 C156 1.322 . S
C157 C158 1.459 . S
C157 H221 0.929 . S
C158 C157 1.459 . S
C158 C159 1.445 . S
C158 C167 1.395 . S
C159 C137 1.432 1_554 S
C159 C158 1.445 . S
C159 C160 1.370 . S
C160 C159 1.370 . S
C160 C161 1.438 . S
C160 H222 0.930 1_554 S
C161 C147 1.497 1_554 S
C161 C160 1.438 . S
C161 C162 1.360 . S
C162 C161 1.360 . S
C162 C163 1.401 . S
C162 C167 1.446 . S
C163 C162 1.401 . S
C163 C164 1.347 . S
C163 H223 0.929 . S
C164 C163 1.347 . S
C164 C165 1.455 . S
C164 H224 0.930 . S
C165 C152 1.412 . S
C165 C164 1.455 . S
C165 C166 1.331 . S
C166 C155 1.451 . S
C166 C165 1.331 . S
C166 C167 1.497 . S
C167 C158 1.395 . S
C167 C162 1.446 . S
C167 C166 1.497 . S
C168 C169 1.582 . S
C168 H225 0.962 . S
C168 H226 0.959 . S
C168 H227 0.958 . S
C169 C168 1.582 . S
C169 O172 1.458 . S
C169 H198 0.980 . S
O170 C115 1.426 . S
O170 C116 1.334 . S
O171 C143 1.412 . S
O171 C144 1.393 . S
O172 C134 1.435 . S
O172 C169 1.458 . S
O173 C125 1.468 . S
O173 C126 1.408 . S
H174 C115 0.980 . S
H175 C114 0.959 . S
H176 C114 0.959 . S
H177 C114 0.960 . S
H178 C117 0.929 . S
H179 C121 0.929 . S
H180 C122 0.959 . S
H181 C122 0.961 . S
H182 C122 0.961 . S
H183 C123 0.960 . S
H184 C123 0.960 . S
H185 C123 0.961 . S
H186 C125 0.980 . S
H187 C124 0.961 . S
H188 C124 0.960 . S
H189 C124 0.959 . S
H190 C127 0.930 . S
H191 C131 0.931 . S
H192 C132 0.959 . S
H193 C132 0.961 . S
H194 C132 0.959 . S
H195 C133 0.960 . S
H196 C133 0.960 . S
H197 C133 0.960 . S
H198 C169 0.980 . S
H199 C135 0.930 . S
H200 C139 0.930 . S
H201 C140 0.961 . S
H202 C140 0.960 . S
H203 C140 0.958 1_556 S
H204 C141 0.961 . S
H205 C141 0.960 1_554 S
H206 C141 0.960 . S
H207 C143 0.980 . S
H208 C142 0.961 . S
H209 C142 0.961 . S
H210 C142 0.959 . S
H211 C145 0.932 . S
H212 C149 0.929 . S
H213 C150 0.961 . S
H214 C150 0.959 1_556 S
H215 C150 0.957 1_556 S
H216 C151 0.960 . S
H217 C151 0.962 1_554 S
H218 C151 0.961 1_554 S
H219 C153 0.929 . S
H220 C156 0.930 . S
H221 C157 0.929 . S
H222 C160 0.930 1_556 S
H223 C163 0.929 . S
H224 C164 0.930 . S
H225 C168 0.962 . S
H226 C168 0.959 . S
H227 C168 0.958 . S
C228 C229 1.560 . S
C228 H289 0.959 . S
C228 H290 0.959 . S
C228 H291 0.960 . S
C229 C228 1.560 . S
C229 O284 1.426 . S
C229 H288 0.980 . S
C230 C231 1.407 . S
C230 C235 1.418 . S
C230 O284 1.334 . S
C231 C230 1.407 . S
C231 C232 1.360 . S
C231 H292 0.929 . S
C232 C231 1.360 . S
C232 C233 1.401 . S
C232 C236 1.527 . S
C233 C232 1.401 . S
C233 C234 1.405 . S
C233 C266 1.587 . S
C234 C233 1.405 . S
C234 C235 1.332 . S
C234 C237 1.496 . S
C235 C230 1.418 . S
C235 C234 1.332 . S
C235 H293 0.929 . S
C236 C232 1.527 . S
C236 H294 0.959 . S
C236 H295 0.961 . S
C236 H296 0.961 . S
C237 C234 1.496 . S
C237 H297 0.960 . S
C237 H298 0.960 . S
C237 H299 0.961 . S
C238 C239 1.517 . S
C238 H301 0.961 . S
C238 H302 0.960 . S
C238 H303 0.959 . S
C239 C238 1.517 . S
C239 O287 1.468 . S
C239 H300 0.980 . S
C240 C241 1.349 . S
C240 C245 1.367 . S
C240 O287 1.408 . S
C241 C240 1.349 . S
C241 C242 1.407 . S
C241 H304 0.930 . S
C242 C241 1.407 . S
C242 C243 1.449 . S
C242 C246 1.535 . S
C243 C242 1.449 . S
C243 C244 1.384 . S
C243 C268 1.553 . S
C244 C243 1.384 . S
C244 C245 1.364 . S
C244 C247 1.450 . S
C245 C240 1.367 . S
C245 C244 1.364 . S
C245 H305 0.931 . S
C246 C242 1.535 . S
C246 H306 0.959 . S
C246 H307 0.961 . S
C246 H308 0.959 . S
C247 C244 1.450 . S
C247 H309 0.960 . S
C247 H310 0.960 . S
C247 H311 0.960 . S
C248 C249 1.309 . S
C248 C253 1.304 . S
C248 O286 1.435 . S
C249 C248 1.309 . S
C249 C250 1.476 . S
C249 H313 0.930 . S
C250 C249 1.476 . S
C250 C251 1.400 . S
C250 C254 1.567 . S
C251 C250 1.400 . S
C251 C252 1.373 . S
C251 C273 1.432 . S
C252 C251 1.373 . S
C252 C253 1.339 . S
C252 C255 1.530 . S
C253 C248 1.304 . S
C253 C252 1.339 . S
C253 H314 0.930 . S
C254 C250 1.567 . S
C254 H315 0.961 . S
C254 H316 0.960 . S
C254 H317 0.958 . S
C255 C252 1.530 . S
C255 H318 0.961 . S
C255 H319 0.960 . S
C255 H320 0.960 . S
C256 C257 1.530 . S
C256 H322 0.961 . S
C256 H323 0.961 . S
C256 H324 0.959 . S
C257 C256 1.530 . S
C257 O285 1.412 . S
C257 H321 0.980 . S
C258 C259 1.288 . S
C258 C263 1.377 . S
C258 O285 1.393 . S
C259 C258 1.288 . S
C259 C260 1.369 . S
C259 H325 0.932 . S
C260 C259 1.369 . S
C260 C261 1.398 . S
C260 C264 1.527 . S
C261 C260 1.398 . S
C261 C262 1.380 . S
C261 C275 1.497 . S
C262 C261 1.380 . S
C262 C263 1.383 . S
C262 C265 1.603 . S
C263 C258 1.377 . S
C263 C262 1.383 . S
C263 H326 0.929 . S
C264 C260 1.527 . S
C264 H327 0.961 . S
C264 H328 0.959 . S
C264 H329 0.959 . S
C265 C262 1.603 . S
C265 H330 0.960 . S
C265 H331 0.962 . S
C265 H332 0.961 . S
C266 C233 1.587 . S
C266 C267 1.360 . S
C266 C279 1.412 . S
C267 C266 1.360 . S
C267 C268 1.365 . S
C267 H333 0.929 . S
C268 C243 1.553 . S
C268 C267 1.365 . S
C268 C269 1.404 . S
C269 C268 1.404 . S
C269 C270 1.395 . S
C269 C280 1.451 . S
C270 C269 1.395 . S
C270 C271 1.322 . S
C270 H334 0.930 . S
C271 C270 1.322 . S
C271 C272 1.459 1_554 S
C271 H335 0.929 1_554 S
C272 C271 1.459 1_556 S
C272 C273 1.445 . S
C272 C281 1.395 1_556 S
C273 C251 1.432 . S
C273 C272 1.445 . S
C273 C274 1.370 . S
C274 C273 1.370 . S
C274 C275 1.438 . S
C274 H336 0.930 . S
C275 C261 1.497 . S
C275 C274 1.438 . S
C275 C276 1.360 . S
C276 C275 1.360 . S
C276 C277 1.401 1_556 S
C276 C281 1.446 1_556 S
C277 C276 1.401 1_554 S
C277 C278 1.347 . S
C277 H337 0.929 1_554 S
C278 C277 1.347 . S
C278 C279 1.455 . S
C278 H338 0.930 . S
C279 C266 1.412 . S
C279 C278 1.455 . S
C279 C280 1.331 . S
C280 C269 1.451 . S
C280 C279 1.331 . S
C280 C281 1.497 . S
C281 C272 1.395 1_554 S
C281 C276 1.446 1_554 S
C281 C280 1.497 . S
C282 C283 1.582 . S
C282 H339 0.962 . S
C282 H340 0.959 . S
C282 H341 0.958 . S
C283 C282 1.582 . S
C283 O286 1.458 . S
C283 H312 0.980 . S
O284 C229 1.426 . S
O284 C230 1.334 . S
O285 C257 1.412 . S
O285 C258 1.393 . S
O286 C248 1.435 . S
O286 C283 1.458 . S
O287 C239 1.468 . S
O287 C240 1.408 . S
H288 C229 0.980 . S
H289 C228 0.959 . S
H290 C228 0.959 . S
H291 C228 0.960 . S
H292 C231 0.929 . S
H293 C235 0.929 . S
H294 C236 0.959 . S
H295 C236 0.961 . S
H296 C236 0.961 . S
H297 C237 0.960 . S
H298 C237 0.960 . S
H299 C237 0.961 . S
H300 C239 0.980 . S
H301 C238 0.961 . S
H302 C238 0.960 . S
H303 C238 0.959 . S
H304 C241 0.930 . S
H305 C245 0.931 . S
H306 C246 0.959 . S
H307 C246 0.961 . S
H308 C246 0.959 . S
H309 C247 0.960 . S
H310 C247 0.960 . S
H311 C247 0.960 . S
H312 C283 0.980 . S
H313 C249 0.930 . S
H314 C253 0.930 . S
H315 C254 0.961 . S
H316 C254 0.960 . S
H317 C254 0.958 . S
H318 C255 0.961 . S
H319 C255 0.960 . S
H320 C255 0.960 . S
H321 C257 0.980 . S
H322 C256 0.961 . S
H323 C256 0.961 . S
H324 C256 0.959 . S
H325 C259 0.932 . S
H326 C263 0.929 . S
H327 C264 0.961 . S
H328 C264 0.959 . S
H329 C264 0.959 . S
H330 C265 0.960 . S
H331 C265 0.962 . S
H332 C265 0.961 . S
H333 C267 0.929 . S
H334 C270 0.930 . S
H335 C271 0.929 1_556 S
H336 C274 0.930 . S
H337 C277 0.929 1_556 S
H338 C278 0.930 . S
H339 C282 0.962 . S
H340 C282 0.959 . S
H341 C282 0.958 . S
C342 C343 1.560 . S
C342 H403 0.959 . S
C342 H404 0.959 . S
C342 H405 0.960 . S
C343 C342 1.560 . S
C343 O398 1.426 . S
C343 H402 0.980 . S
C344 C345 1.407 . S
C344 C349 1.418 . S
C344 O398 1.334 . S
C345 C344 1.407 . S
C345 C346 1.360 . S
C345 H406 0.929 . S
C346 C345 1.360 . S
C346 C347 1.401 . S
C346 C350 1.527 . S
C347 C346 1.401 . S
C347 C348 1.405 . S
C347 C380 1.587 . S
C348 C347 1.405 . S
C348 C349 1.332 . S
C348 C351 1.496 . S
C349 C344 1.418 . S
C349 C348 1.332 . S
C349 H407 0.929 . S
C350 C346 1.527 . S
C350 H408 0.959 . S
C350 H409 0.961 . S
C350 H410 0.961 . S
C351 C348 1.496 . S
C351 H411 0.960 . S
C351 H412 0.960 . S
C351 H413 0.961 . S
C352 C353 1.517 . S
C352 H415 0.961 . S
C352 H416 0.960 . S
C352 H417 0.959 . S
C353 C352 1.517 . S
C353 O401 1.468 . S
C353 H414 0.980 . S
C354 C355 1.349 . S
C354 C359 1.367 . S
C354 O401 1.408 . S
C355 C354 1.349 . S
C355 C356 1.407 . S
C355 H418 0.930 . S
C356 C355 1.407 . S
C356 C357 1.449 . S
C356 C360 1.535 . S
C357 C356 1.449 . S
C357 C358 1.384 . S
C357 C382 1.553 . S
C358 C357 1.384 . S
C358 C359 1.364 . S
C358 C361 1.450 . S
C359 C354 1.367 . S
C359 C358 1.364 . S
C359 H419 0.931 . S
C360 C356 1.535 . S
C360 H420 0.959 . S
C360 H421 0.961 . S
C360 H422 0.959 . S
C361 C358 1.450 . S
C361 H423 0.960 . S
C361 H424 0.960 . S
C361 H425 0.960 . S
C362 C363 1.309 . S
C362 C367 1.304 . S
C362 O400 1.435 . S
C363 C362 1.309 . S
C363 C364 1.476 . S
C363 H427 0.930 . S
C364 C363 1.476 . S
C364 C365 1.400 . S
C364 C368 1.567 . S
C365 C364 1.400 . S
C365 C366 1.373 . S
C365 C387 1.432 . S
C366 C365 1.373 . S
C366 C367 1.339 . S
C366 C369 1.530 . S
C367 C362 1.304 . S
C367 C366 1.339 . S
C367 H428 0.930 . S
C368 C364 1.567 . S
C368 H429 0.961 . S
C368 H430 0.960 . S
C368 H431 0.958 . S
C369 C366 1.530 . S
C369 H432 0.961 . S
C369 H433 0.960 . S
C369 H434 0.960 . S
C370 C371 1.530 . S
C370 H436 0.961 . S
C370 H437 0.961 . S
C370 H438 0.959 . S
C371 C370 1.530 . S
C371 O399 1.412 . S
C371 H435 0.980 . S
C372 C373 1.288 . S
C372 C377 1.377 . S
C372 O399 1.393 . S
C373 C372 1.288 . S
C373 C374 1.369 . S
C373 H439 0.932 . S
C374 C373 1.369 . S
C374 C375 1.398 . S
C374 C378 1.527 . S
C375 C374 1.398 . S
C375 C376 1.380 . S
C375 C389 1.497 . S
C376 C375 1.380 . S
C376 C377 1.383 . S
C376 C379 1.603 . S
C377 C372 1.377 . S
C377 C376 1.383 . S
C377 H440 0.929 . S
C378 C374 1.527 . S
C378 H441 0.961 . S
C378 H442 0.959 . S
C378 H443 0.959 . S
C379 C376 1.603 . S
C379 H444 0.960 . S
C379 H445 0.962 . S
C379 H446 0.961 . S
C380 C347 1.587 . S
C380 C381 1.360 . S
C380 C393 1.412 . S
C381 C380 1.360 . S
C381 C382 1.365 . S
C381 H447 0.929 . S
C382 C357 1.553 . S
C382 C381 1.365 . S
C382 C383 1.404 . S
C383 C382 1.404 . S
C383 C384 1.395 . S
C383 C394 1.451 . S
C384 C383 1.395 . S
C384 C385 1.322 . S
C384 H448 0.930 . S
C385 C384 1.322 . S
C385 C386 1.459 . S
C385 H449 0.929 . S
C386 C385 1.459 . S
C386 C387 1.445 1_554 S
C386 C395 1.395 . S
C387 C365 1.432 . S
C387 C386 1.445 1_556 S
C387 C388 1.370 . S
C388 C387 1.370 . S
C388 C389 1.438 . S
C388 H450 0.930 . S
C389 C375 1.497 . S
C389 C388 1.438 . S
C389 C390 1.360 1_556 S
C390 C389 1.360 1_554 S
C390 C391 1.401 . S
C390 C395 1.446 . S
C391 C390 1.401 . S
C391 C392 1.347 . S
C391 H451 0.929 . S
C392 C391 1.347 . S
C392 C393 1.455 . S
C392 H452 0.930 . S
C393 C380 1.412 . S
C393 C392 1.455 . S
C393 C394 1.331 . S
C394 C383 1.451 . S
C394 C393 1.331 . S
C394 C395 1.497 . S
C395 C386 1.395 . S
C395 C390 1.446 . S
C395 C394 1.497 . S
C396 C397 1.582 . S
C396 H453 0.962 . S
C396 H454 0.959 . S
C396 H455 0.958 . S
C397 C396 1.582 . S
C397 O400 1.458 . S
C397 H426 0.980 . S
O398 C343 1.426 . S
O398 C344 1.334 . S
O399 C371 1.412 . S
O399 C372 1.393 . S
O400 C362 1.435 . S
O400 C397 1.458 . S
O401 C353 1.468 . S
O401 C354 1.408 . S
H402 C343 0.980 . S
H403 C342 0.959 . S
H404 C342 0.959 . S
H405 C342 0.960 . S
H406 C345 0.929 . S
H407 C349 0.929 . S
H408 C350 0.959 . S
H409 C350 0.961 . S
H410 C350 0.961 . S
H411 C351 0.960 . S
H412 C351 0.960 . S
H413 C351 0.961 . S
H414 C353 0.980 . S
H415 C352 0.961 . S
H416 C352 0.960 . S
H417 C352 0.959 . S
H418 C355 0.930 . S
H419 C359 0.931 . S
H420 C360 0.959 . S
H421 C360 0.961 . S
H422 C360 0.959 . S
H423 C361 0.960 . S
H424 C361 0.960 . S
H425 C361 0.960 . S
H426 C397 0.980 . S
H427 C363 0.930 . S
H428 C367 0.930 . S
H429 C368 0.961 . S
H430 C368 0.960 . S
H431 C368 0.958 . S
H432 C369 0.961 . S
H433 C369 0.960 . S
H434 C369 0.960 . S
H435 C371 0.980 . S
H436 C370 0.961 . S
H437 C370 0.961 . S
H438 C370 0.959 . S
H439 C373 0.932 . S
H440 C377 0.929 . S
H441 C378 0.961 . S
H442 C378 0.959 . S
H443 C378 0.959 . S
H444 C379 0.960 . S
H445 C379 0.962 . S
H446 C379 0.961 . S
H447 C381 0.929 . S
H448 C384 0.930 . S
H449 C385 0.929 . S
H450 C388 0.930 . S
H451 C391 0.929 . S
H452 C392 0.930 . S
H453 C396 0.962 . S
H454 C396 0.959 . S
H455 C396 0.958 . S
C456 C457 1.560 . S
C456 H517 0.959 . S
C456 H518 0.959 . S
C456 H519 0.960 . S
C457 C456 1.560 . S
C457 O512 1.426 . S
C457 H516 0.980 . S
C458 C459 1.407 . S
C458 C463 1.418 . S
C458 O512 1.334 . S
C459 C458 1.407 . S
C459 C460 1.360 . S
C459 H520 0.929 . S
C460 C459 1.360 . S
C460 C461 1.401 . S
C460 C464 1.527 . S
C461 C460 1.401 . S
C461 C462 1.405 . S
C461 C494 1.587 . S
C462 C461 1.405 . S
C462 C463 1.332 . S
C462 C465 1.496 . S
C463 C458 1.418 . S
C463 C462 1.332 . S
C463 H521 0.929 . S
C464 C460 1.527 . S
C464 H522 0.959 . S
C464 H523 0.961 . S
C464 H524 0.961 . S
C465 C462 1.496 . S
C465 H525 0.960 . S
C465 H526 0.960 . S
C465 H527 0.961 . S
C466 C467 1.517 . S
C466 H529 0.961 . S
C466 H530 0.960 . S
C466 H531 0.959 . S
C467 C466 1.517 . S
C467 O515 1.468 . S
C467 H528 0.980 . S
C468 C469 1.349 . S
C468 C473 1.367 . S
C468 O515 1.408 . S
C469 C468 1.349 . S
C469 C470 1.407 . S
C469 H532 0.930 . S
C470 C469 1.407 . S
C470 C471 1.449 . S
C470 C474 1.535 . S
C471 C470 1.449 . S
C471 C472 1.384 . S
C471 C496 1.553 . S
C472 C471 1.384 . S
C472 C473 1.364 . S
C472 C475 1.450 . S
C473 C468 1.367 . S
C473 C472 1.364 . S
C473 H533 0.931 . S
C474 C470 1.535 . S
C474 H534 0.959 . S
C474 H535 0.961 . S
C474 H536 0.959 . S
C475 C472 1.450 . S
C475 H537 0.960 . S
C475 H538 0.960 . S
C475 H539 0.960 . S
C476 C477 1.309 . S
C476 C481 1.304 . S
C476 O514 1.435 . S
C477 C476 1.309 . S
C477 C478 1.476 . S
C477 H541 0.930 . S
C478 C477 1.476 . S
C478 C479 1.400 . S
C478 C482 1.567 . S
C479 C478 1.400 . S
C479 C480 1.373 . S
C479 C501 1.432 . S
C480 C479 1.373 . S
C480 C481 1.339 . S
C480 C483 1.530 . S
C481 C476 1.304 . S
C481 C480 1.339 . S
C481 H542 0.930 . S
C482 C478 1.567 . S
C482 H543 0.961 . S
C482 H544 0.960 . S
C482 H545 0.958 . S
C483 C480 1.530 . S
C483 H546 0.961 . S
C483 H547 0.960 . S
C483 H548 0.960 . S
C484 C485 1.530 . S
C484 H550 0.961 . S
C484 H551 0.961 . S
C484 H552 0.959 . S
C485 C484 1.530 . S
C485 O513 1.412 . S
C485 H549 0.980 . S
C486 C487 1.288 . S
C486 C491 1.377 . S
C486 O513 1.393 . S
C487 C486 1.288 . S
C487 C488 1.369 . S
C487 H553 0.932 . S
C488 C487 1.369 . S
C488 C489 1.398 . S
C488 C492 1.527 . S
C489 C488 1.398 . S
C489 C490 1.380 . S
C489 C503 1.497 . S
C490 C489 1.380 . S
C490 C491 1.383 . S
C490 C493 1.603 . S
C491 C486 1.377 . S
C491 C490 1.383 . S
C491 H554 0.929 . S
C492 C488 1.527 . S
C492 H555 0.961 . S
C492 H556 0.959 . S
C492 H557 0.959 . S
C493 C490 1.603 . S
C493 H558 0.960 . S
C493 H559 0.962 . S
C493 H560 0.961 . S
C494 C461 1.587 . S
C494 C495 1.360 . S
C494 C507 1.412 1_556 S
C495 C494 1.360 . S
C495 C496 1.365 . S
C495 H561 0.929 . S
C496 C471 1.553 . S
C496 C495 1.365 . S
C496 C497 1.404 1_556 S
C497 C496 1.404 1_554 S
C497 C498 1.395 . S
C497 C508 1.451 . S
C498 C497 1.395 . S
C498 C499 1.322 . S
C498 H562 0.930 . S
C499 C498 1.322 . S
C499 C500 1.459 . S
C499 H563 0.929 . S
C500 C499 1.459 . S
C500 C501 1.445 . S
C500 C509 1.395 . S
C501 C479 1.432 . S
C501 C500 1.445 . S
C501 C502 1.370 . S
C502 C501 1.370 . S
C502 C503 1.438 . S
C502 H564 0.930 . S
C503 C489 1.497 . S
C503 C502 1.438 . S
C503 C504 1.360 . S
C504 C503 1.360 . S
C504 C505 1.401 . S
C504 C509 1.446 . S
C505 C504 1.401 . S
C505 C506 1.347 . S
C505 H565 0.929 . S
C506 C505 1.347 . S
C506 C507 1.455 . S
C506 H566 0.930 . S
C507 C494 1.412 1_554 S
C507 C506 1.455 . S
C507 C508 1.331 . S
C508 C497 1.451 . S
C508 C507 1.331 . S
C508 C509 1.497 . S
C509 C500 1.395 . S
C509 C504 1.446 . S
C509 C508 1.497 . S
C510 C511 1.582 . S
C510 H567 0.962 . S
C510 H568 0.959 . S
C510 H569 0.958 . S
C511 C510 1.582 . S
C511 O514 1.458 . S
C511 H540 0.980 . S
O512 C457 1.426 . S
O512 C458 1.334 . S
O513 C485 1.412 . S
O513 C486 1.393 . S
O514 C476 1.435 . S
O514 C511 1.458 . S
O515 C467 1.468 . S
O515 C468 1.408 . S
H516 C457 0.980 . S
H517 C456 0.959 . S
H518 C456 0.959 . S
H519 C456 0.960 . S
H520 C459 0.929 . S
H521 C463 0.929 . S
H522 C464 0.959 . S
H523 C464 0.961 . S
H524 C464 0.961 . S
H525 C465 0.960 . S
H526 C465 0.960 . S
H527 C465 0.961 . S
H528 C467 0.980 . S
H529 C466 0.961 . S
H530 C466 0.960 . S
H531 C466 0.959 . S
H532 C469 0.930 . S
H533 C473 0.931 . S
H534 C474 0.959 . S
H535 C474 0.961 . S
H536 C474 0.959 . S
H537 C475 0.960 . S
H538 C475 0.960 . S
H539 C475 0.960 . S
H540 C511 0.980 . S
H541 C477 0.930 . S
H542 C481 0.930 . S
H543 C482 0.961 . S
H544 C482 0.960 . S
H545 C482 0.958 . S
H546 C483 0.961 . S
H547 C483 0.960 . S
H548 C483 0.960 . S
H549 C485 0.980 . S
H550 C484 0.961 . S
H551 C484 0.961 . S
H552 C484 0.959 . S
H553 C487 0.932 . S
H554 C491 0.929 . S
H555 C492 0.961 . S
H556 C492 0.959 . S
H557 C492 0.959 . S
H558 C493 0.960 . S
H559 C493 0.962 . S
H560 C493 0.961 . S
H561 C495 0.929 . S
H562 C498 0.930 . S
H563 C499 0.929 . S
H564 C502 0.930 . S
H565 C505 0.929 . S
H566 C506 0.930 . S
H567 C510 0.962 . S
H568 C510 0.959 . S
H569 C510 0.958 . S
C570 C571 1.560 . S
C570 H631 0.959 . S
C570 H632 0.959 . S
C570 H633 0.960 . S
C571 C570 1.560 . S
C571 O626 1.426 . S
C571 H630 0.980 . S
C572 C573 1.407 . S
C572 C577 1.418 . S
C572 O626 1.334 . S
C573 C572 1.407 . S
C573 C574 1.360 . S
C573 H634 0.929 . S
C574 C573 1.360 . S
C574 C575 1.401 . S
C574 C578 1.527 . S
C575 C574 1.401 . S
C575 C576 1.405 . S
C575 C608 1.587 . S
C576 C575 1.405 . S
C576 C577 1.332 . S
C576 C579 1.496 . S
C577 C572 1.418 . S
C577 C576 1.332 . S
C577 H635 0.929 . S
C578 C574 1.527 . S
C578 H636 0.959 . S
C578 H637 0.961 . S
C578 H638 0.961 . S
C579 C576 1.496 . S
C579 H639 0.960 . S
C579 H640 0.960 . S
C579 H641 0.961 . S
C580 C581 1.517 . S
C580 H643 0.961 . S
C580 H644 0.960 . S
C580 H645 0.959 . S
C581 C580 1.517 . S
C581 O629 1.468 . S
C581 H642 0.980 . S
C582 C583 1.349 . S
C582 C587 1.367 . S
C582 O629 1.408 . S
C583 C582 1.349 . S
C583 C584 1.407 . S
C583 H646 0.930 . S
C584 C583 1.407 . S
C584 C585 1.449 . S
C584 C588 1.535 . S
C585 C584 1.449 . S
C585 C586 1.384 . S
C585 C610 1.553 . S
C586 C585 1.384 . S
C586 C587 1.364 . S
C586 C589 1.450 . S
C587 C582 1.367 . S
C587 C586 1.364 . S
C587 H647 0.931 . S
C588 C584 1.535 . S
C588 H648 0.959 . S
C588 H649 0.961 . S
C588 H650 0.959 . S
C589 C586 1.450 . S
C589 H651 0.960 . S
C589 H652 0.960 . S
C589 H653 0.960 . S
C590 C591 1.309 . S
C590 C595 1.304 . S
C590 O628 1.435 1_554 S
C591 C590 1.309 . S
C591 C592 1.476 . S
C591 H655 0.930 . S
C592 C591 1.476 . S
C592 C593 1.400 . S
C592 C596 1.567 . S
C593 C592 1.400 . S
C593 C594 1.373 . S
C593 C615 1.432 . S
C594 C593 1.373 . S
C594 C595 1.339 . S
C594 C597 1.530 . S
C595 C590 1.304 . S
C595 C594 1.339 . S
C595 H656 0.930 . S
C596 C592 1.567 . S
C596 H657 0.961 . S
C596 H658 0.960 . S
C596 H659 0.958 . S
C597 C594 1.530 . S
C597 H660 0.961 . S
C597 H661 0.960 . S
C597 H662 0.960 . S
C598 C599 1.530 . S
C598 H664 0.961 . S
C598 H665 0.961 . S
C598 H666 0.959 . S
C599 C598 1.530 . S
C599 O627 1.412 . S
C599 H663 0.980 . S
C600 C601 1.282 1_556 S
C600 C605 1.373 1_556 S
C600 O627 1.403 . S
C601 C600 1.282 1_554 S
C601 C602 1.369 . S
C601 H667 0.932 1_554 S
C602 C601 1.369 . S
C602 C603 1.398 . S
C602 C606 1.527 . S
C603 C602 1.398 . S
C603 C604 1.380 . S
C603 C617 1.497 . S
C604 C603 1.380 . S
C604 C605 1.383 . S
C604 C607 1.603 . S
C605 C600 1.373 1_554 S
C605 C604 1.383 . S
C605 H668 0.929 . S
C606 C602 1.527 . S
C606 H669 0.961 . S
C606 H670 0.959 . S
C606 H671 0.959 . S
C607 C604 1.603 . S
C607 H672 0.960 . S
C607 H673 0.962 . S
C607 H674 0.961 . S
C608 C575 1.587 . S
C608 C609 1.360 . S
C608 C621 1.412 . S
C609 C608 1.360 . S
C609 C610 1.365 . S
C609 H675 0.929 . S
C610 C585 1.553 . S
C610 C609 1.365 . S
C610 C611 1.404 . S
C611 C610 1.404 . S
C611 C612 1.395 . S
C611 C622 1.451 . S
C612 C611 1.395 . S
C612 C613 1.322 . S
C612 H676 0.930 . S
C613 C612 1.322 . S
C613 C614 1.459 . S
C613 H677 0.929 . S
C614 C613 1.459 . S
C614 C615 1.445 . S
C614 C623 1.395 . S
C615 C593 1.432 . S
C615 C614 1.445 . S
C615 C616 1.370 . S
C616 C615 1.370 . S
C616 C617 1.438 . S
C616 H678 0.930 . S
C617 C603 1.497 . S
C617 C616 1.438 . S
C617 C618 1.360 . S
C618 C617 1.360 . S
C618 C619 1.401 . S
C618 C623 1.446 . S
C619 C618 1.401 . S
C619 C620 1.347 . S
C619 H679 0.929 . S
C620 C619 1.347 . S
C620 C621 1.455 . S
C620 H680 0.930 . S
C621 C608 1.412 . S
C621 C620 1.455 . S
C621 C622 1.331 . S
C622 C611 1.451 . S
C622 C621 1.331 . S
C622 C623 1.497 . S
C623 C614 1.395 . S
C623 C618 1.446 . S
C623 C622 1.497 . S
C624 C625 1.582 . S
C624 H681 0.962 . S
C624 H682 0.959 . S
C624 H683 0.958 . S
C625 C624 1.582 . S
C625 O628 1.458 . S
C625 H654 0.980 1_556 S
O626 C571 1.426 . S
O626 C572 1.334 . S
O627 C599 1.412 . S
O627 C600 1.403 . S
O628 C590 1.435 1_556 S
O628 C625 1.458 . S
O629 C581 1.468 . S
O629 C582 1.408 . S
H630 C571 0.980 . S
H631 C570 0.959 . S
H632 C570 0.959 . S
H633 C570 0.960 . S
H634 C573 0.929 . S
H635 C577 0.929 . S
H636 C578 0.959 . S
H637 C578 0.961 . S
H638 C578 0.961 . S
H639 C579 0.960 . S
H640 C579 0.960 . S
H641 C579 0.961 . S
H642 C581 0.980 . S
H643 C580 0.961 . S
H644 C580 0.960 . S
H645 C580 0.959 . S
H646 C583 0.930 . S
H647 C587 0.931 . S
H648 C588 0.959 . S
H649 C588 0.961 . S
H650 C588 0.959 . S
H651 C589 0.960 . S
H652 C589 0.960 . S
H653 C589 0.960 . S
H654 C625 0.980 1_554 S
H655 C591 0.930 . S
H656 C595 0.930 . S
H657 C596 0.961 . S
H658 C596 0.960 . S
H659 C596 0.958 . S
H660 C597 0.961 . S
H661 C597 0.960 . S
H662 C597 0.960 . S
H663 C599 0.980 . S
H664 C598 0.961 . S
H665 C598 0.961 . S
H666 C598 0.959 . S
H667 C601 0.932 1_556 S
H668 C605 0.929 . S
H669 C606 0.961 . S
H670 C606 0.959 . S
H671 C606 0.959 . S
H672 C607 0.960 . S
H673 C607 0.962 . S
H674 C607 0.961 . S
H675 C609 0.929 . S
H676 C612 0.930 . S
H677 C613 0.929 . S
H678 C616 0.930 . S
H679 C619 0.929 . S
H680 C620 0.930 . S
H681 C624 0.962 . S
H682 C624 0.959 . S
H683 C624 0.958 . S
C684 O696 1.241 . S
C684 O697 1.280 . S
C685 O698 1.277 . S
C685 O699 1.245 . S
C686 O710 1.247 . S
C686 O712 1.289 . S
Mg687 O688 1.926 . S
Mg687 O697 1.984 1_455 S
Mg687 O699 1.988 . S
Mg687 O700 2.061 1_455 S
O688 Mg687 1.926 . S
O688 Mg689 1.986 . S
O688 Mg690 1.917 . S
Mg689 O688 1.986 . S
Mg689 O696 2.042 1_455 S
Mg689 O698 2.041 . S
Mg689 O704 2.038 1_455 S
Mg689 O712 2.238 . S
Mg690 O688 1.917 . S
Mg690 O691 1.917 . S
Mg690 O701 2.106 1_455 S
Mg690 O703 2.079 1_455 S
Mg690 O712 2.106 . S
Mg690 O713 2.079 . S
O691 Mg690 1.917 . S
O691 Mg692 1.926 . S
O691 Mg693 1.986 . S
Mg692 O691 1.926 . S
Mg692 O706 1.984 . S
Mg692 O709 1.988 1_455 S
Mg692 O710 2.061 . S
Mg693 O691 1.986 . S
Mg693 O701 2.238 1_455 S
Mg693 O705 2.042 . S
Mg693 O707 2.041 1_455 S
Mg693 O714 2.038 . S
C694 O700 1.247 . S
C694 O701 1.289 . S
C695 O713 1.245 . S
C695 O714 1.274 . S
O696 C684 1.241 . S
O696 Mg689 2.042 1_655 S
O697 C684 1.280 . S
O697 Mg687 1.984 1_655 S
O698 C685 1.277 . S
O698 Mg689 2.041 . S
O699 C685 1.245 . S
O699 Mg687 1.988 . S
O700 Mg687 2.061 1_655 S
O700 C694 1.247 . S
O701 Mg690 2.106 1_655 S
O701 Mg693 2.238 1_655 S
O701 C694 1.289 . S
C702 O703 1.245 . S
C702 O704 1.274 . S
O703 Mg690 2.079 1_655 S
O703 C702 1.245 . S
O704 Mg689 2.038 1_655 S
O704 C702 1.274 . S
O705 Mg693 2.042 . S
O705 C708 1.241 . S
O706 Mg692 1.984 . S
O706 C708 1.280 . S
O707 Mg693 2.041 1_655 S
O707 C711 1.277 . S
C708 O705 1.241 . S
C708 O706 1.280 . S
O709 Mg692 1.988 1_655 S
O709 C711 1.245 . S
O710 C686 1.247 . S
O710 Mg692 2.061 . S
C711 O707 1.277 . S
C711 O709 1.245 . S
O712 C686 1.289 . S
O712 Mg689 2.238 . S
O712 Mg690 2.106 . S
O713 Mg690 2.079 . S
O713 C695 1.245 . S
O714 Mg693 2.038 . S
O714 C695 1.274 . S
C715 O727 1.241 . S
C715 O728 1.280 . S
C716 O729 1.277 . S
C716 O730 1.245 . S
C717 O741 1.247 . S
C717 O743 1.289 . S
Mg718 O719 1.926 . S
Mg718 O728 1.984 . S
Mg718 O730 1.988 1_545 S
Mg718 O731 2.061 . S
O719 Mg718 1.926 . S
O719 Mg720 1.986 . S
O719 Mg721 1.917 . S
Mg720 O719 1.986 . S
Mg720 O727 2.042 . S
Mg720 O729 2.041 1_545 S
Mg720 O735 2.038 . S
Mg720 O743 2.238 1_545 S
Mg721 O719 1.917 . S
Mg721 O722 1.913 1_545 S
Mg721 O732 2.106 . S
Mg721 O734 2.079 . S
Mg721 O743 2.106 1_545 S
Mg721 O744 2.079 1_545 S
O722 Mg721 1.913 1_565 S
O722 Mg723 1.931 . S
O722 Mg724 1.983 1_565 S
Mg723 O722 1.931 . S
Mg723 O737 1.984 . S
Mg723 O740 1.988 1_565 S
Mg723 O741 2.061 . S
Mg724 O722 1.983 1_545 S
Mg724 O732 2.238 . S
Mg724 O736 2.042 1_545 S
Mg724 O738 2.041 . S
Mg724 O745 2.038 1_545 S
C725 O731 1.247 . S
C725 O732 1.289 . S
C726 O744 1.245 . S
C726 O745 1.274 . S
O727 C715 1.241 . S
O727 Mg720 2.042 . S
O728 C715 1.280 . S
O728 Mg718 1.984 . S
O729 C716 1.277 . S
O729 Mg720 2.041 1_565 S
O730 C716 1.245 . S
O730 Mg718 1.988 1_565 S
O731 Mg718 2.061 . S
O731 C725 1.247 . S
O732 Mg721 2.106 . S
O732 Mg724 2.238 . S
O732 C725 1.289 . S
C733 O734 1.245 . S
C733 O735 1.274 . S
O734 Mg721 2.079 . S
O734 C733 1.245 . S
O735 Mg720 2.038 . S
O735 C733 1.274 . S
O736 Mg724 2.042 1_565 S
O736 C739 1.241 . S
O737 Mg723 1.984 . S
O737 C739 1.280 . S
O738 Mg724 2.041 . S
O738 C742 1.277 . S
C739 O736 1.241 . S
C739 O737 1.280 . S
O740 Mg723 1.988 1_545 S
O740 C742 1.245 . S
O741 C717 1.247 . S
O741 Mg723 2.061 . S
C742 O738 1.277 . S
C742 O740 1.245 . S
O743 C717 1.289 . S
O743 Mg720 2.238 1_565 S
O743 Mg721 2.106 1_565 S
O744 Mg721 2.079 1_565 S
O744 C726 1.245 . S
O745 Mg724 2.038 1_565 S
O745 C726 1.274 . S
C746 O758 1.241 . S
C746 O759 1.280 . S
C747 O760 1.277 . S
C747 O761 1.245 . S
C748 O772 1.247 . S
C748 O774 1.289 . S
Mg749 O750 1.926 . S
Mg749 O759 1.984 . S
Mg749 O761 1.988 . S
Mg749 O762 2.061 . S
O750 Mg749 1.926 . S
O750 Mg751 1.986 . S
O750 Mg752 1.917 . S
Mg751 O750 1.986 . S
Mg751 O758 2.042 . S
Mg751 O760 2.041 . S
Mg751 O766 2.038 . S
Mg751 O774 2.238 . S
Mg752 O750 1.917 . S
Mg752 O753 1.917 . S
Mg752 O763 2.106 . S
Mg752 O765 2.079 . S
Mg752 O774 2.106 . S
Mg752 O775 2.079 . S
O753 Mg752 1.917 . S
O753 Mg754 1.926 . S
O753 Mg755 1.986 . S
Mg754 O753 1.926 . S
Mg754 O768 1.984 . S
Mg754 O771 1.988 . S
Mg754 O772 2.061 . S
Mg755 O753 1.986 . S
Mg755 O763 2.238 . S
Mg755 O767 2.042 . S
Mg755 O769 2.041 . S
Mg755 O776 2.038 . S
C756 O762 1.247 . S
C756 O763 1.289 . S
C757 O775 1.245 . S
C757 O776 1.274 . S
O758 C746 1.241 . S
O758 Mg751 2.042 . S
O759 C746 1.280 . S
O759 Mg749 1.984 . S
O760 C747 1.277 . S
O760 Mg751 2.041 . S
O761 C747 1.245 . S
O761 Mg749 1.988 . S
O762 Mg749 2.061 . S
O762 C756 1.247 . S
O763 Mg752 2.106 . S
O763 Mg755 2.238 . S
O763 C756 1.289 . S
C764 O765 1.245 . S
C764 O766 1.274 . S
O765 Mg752 2.079 . S
O765 C764 1.245 . S
O766 Mg751 2.038 . S
O766 C764 1.274 . S
O767 Mg755 2.042 . S
O767 C770 1.241 . S
O768 Mg754 1.984 . S
O768 C770 1.280 . S
O769 Mg755 2.041 . S
O769 C773 1.277 . S
C770 O767 1.241 . S
C770 O768 1.280 . S
O771 Mg754 1.988 . S
O771 C773 1.245 . S
O772 C748 1.247 . S
O772 Mg754 2.061 . S
C773 O769 1.277 . S
C773 O771 1.245 . S
O774 C748 1.289 . S
O774 Mg751 2.238 . S
O774 Mg752 2.106 . S
O775 Mg752 2.079 . S
O775 C757 1.245 . S
O776 Mg755 2.038 . S
O776 C757 1.274 . S
C777 C778 1.363 . S
C777 C783 1.379 . S
C777 N785 1.356 . S
C778 C777 1.363 . S
C778 C784 1.363 . S
C779 C780 1.363 . S
C779 C784 1.379 . S
C779 N786 1.356 . S
C780 C779 1.363 . S
C780 C783 1.363 . S
N781 C783 1.356 . S
N781 H793 0.984 . S
N781 H794 0.985 . S
N782 C784 1.356 . S
N782 H787 0.984 . S
N782 H788 0.985 . S
C783 C777 1.379 . S
C783 C780 1.363 . S
C783 N781 1.356 . S
C784 C778 1.363 . S
C784 C779 1.379 . S
C784 N782 1.356 . S
N785 C777 1.356 . S
N785 H791 0.984 . S
N785 H792 0.984 . S
N786 C779 1.356 . S
N786 H789 0.984 . S
N786 H790 0.985 . S
H787 N782 0.984 . S
H788 N782 0.985 . S
H789 N786 0.984 . S
H790 N786 0.985 . S
H791 N785 0.984 . S
H792 N785 0.984 . S
H793 N781 0.984 . S
H794 N781 0.985 . S
C795 C796 1.363 . S
C795 C801 1.379 . S
C795 N803 1.356 . S
C796 C795 1.363 . S
C796 C802 1.363 . S
C797 C798 1.363 . S
C797 C802 1.379 . S
C797 N804 1.356 . S
C798 C797 1.363 . S
C798 C801 1.363 . S
N799 C801 1.356 . S
N799 H811 0.984 . S
N799 H812 0.985 . S
N800 C802 1.356 . S
N800 H805 0.984 . S
N800 H806 0.985 . S
C801 C795 1.379 . S
C801 C798 1.363 . S
C801 N799 1.356 . S
C802 C796 1.363 . S
C802 C797 1.379 . S
C802 N800 1.356 . S
N803 C795 1.356 . S
N803 H809 0.984 . S
N803 H810 0.984 . S
N804 C797 1.356 . S
N804 H807 0.984 . S
N804 H808 0.985 . S
H805 N800 0.984 . S
H806 N800 0.985 . S
H807 N804 0.984 . S
H808 N804 0.985 . S
H809 N803 0.984 . S
H810 N803 0.984 . S
H811 N799 0.984 . S
H812 N799 0.985 . S
C813 C814 1.363 . S
C813 C819 1.379 . S
C813 N821 1.356 . S
C814 C813 1.363 . S
C814 C820 1.363 . S
C815 C816 1.363 . S
C815 C820 1.379 . S
C815 N822 1.356 . S
C816 C815 1.363 . S
C816 C819 1.363 . S
N817 C819 1.356 . S
N817 H829 0.984 . S
N817 H830 0.985 . S
N818 C820 1.356 . S
N818 H823 0.984 . S
N818 H824 0.985 . S
C819 C813 1.379 . S
C819 C816 1.363 . S
C819 N817 1.356 . S
C820 C814 1.363 . S
C820 C815 1.379 . S
C820 N818 1.356 . S
N821 C813 1.356 . S
N821 H827 0.984 . S
N821 H828 0.984 . S
N822 C815 1.356 . S
N822 H825 0.984 . S
N822 H826 0.985 . S
H823 N818 0.984 . S
H824 N818 0.985 . S
H825 N822 0.984 . S
H826 N822 0.985 . S
H827 N821 0.984 . S
H828 N821 0.984 . S
H829 N817 0.984 . S
H830 N817 0.985 . S
C831 C832 1.363 . S
C831 C837 1.379 . S
C831 N839 1.356 . S
C832 C831 1.363 . S
C832 C838 1.363 . S
C833 C834 1.363 . S
C833 C838 1.379 . S
C833 N840 1.372 . S
C834 C833 1.363 . S
C834 C837 1.363 . S
N835 C837 1.356 . S
N835 H847 0.984 . S
N835 H848 0.985 . S
N836 C838 1.356 . S
N836 H841 0.984 . S
N836 H842 0.985 . S
C837 C831 1.379 . S
C837 C834 1.363 . S
C837 N835 1.356 . S
C838 C832 1.363 . S
C838 C833 1.379 . S
C838 N836 1.356 . S
N839 C831 1.356 . S
N839 H845 0.984 . S
N839 H846 0.984 . S
N840 C833 1.372 . S
N840 H843 0.977 1_655 S
N840 H844 0.976 1_655 S
H841 N836 0.984 . S
H842 N836 0.985 . S
H843 N840 0.977 1_455 S
H844 N840 0.976 1_455 S
H845 N839 0.984 . S
H846 N839 0.984 . S
H847 N835 0.984 . S
H848 N835 0.985 . S
C849 C850 1.363 . S
C849 C855 1.379 . S
C849 N857 1.356 . S
C850 C849 1.363 . S
C850 C856 1.363 . S
C851 C852 1.363 . S
C851 C856 1.379 . S
C851 N858 1.356 . S
C852 C851 1.363 . S
C852 C855 1.363 . S
N853 C855 1.356 . S
N853 H865 0.984 . S
N853 H866 0.985 . S
N854 C856 1.356 . S
N854 H859 0.984 . S
N854 H860 0.985 . S
C855 C849 1.379 . S
C855 C852 1.363 . S
C855 N853 1.356 . S
C856 C850 1.363 . S
C856 C851 1.379 . S
C856 N854 1.356 . S
N857 C849 1.356 . S
N857 H863 0.984 . S
N857 H864 0.984 . S
N858 C851 1.356 . S
N858 H861 0.984 . S
N858 H862 0.985 . S
H859 N854 0.984 . S
H860 N854 0.985 . S
H861 N858 0.984 . S
H862 N858 0.985 . S
H863 N857 0.984 . S
H864 N857 0.984 . S
H865 N853 0.984 . S
H866 N853 0.985 . S
C867 C868 1.363 . S
C867 C873 1.379 . S
C867 N875 1.356 . S
C868 C867 1.363 . S
C868 C874 1.363 . S
C869 C870 1.363 . S
C869 C874 1.379 . S
C869 N876 1.356 . S
C870 C869 1.363 . S
C870 C873 1.363 . S
N871 C873 1.356 . S
N871 H883 0.984 . S
N871 H884 0.985 . S
N872 C874 1.356 . S
N872 H877 0.984 . S
N872 H878 0.985 . S
C873 C867 1.379 . S
C873 C870 1.363 . S
C873 N871 1.356 . S
C874 C868 1.363 . S
C874 C869 1.379 . S
C874 N872 1.356 . S
N875 C867 1.356 . S
N875 H881 0.984 . S
N875 H882 0.984 . S
N876 C869 1.356 . S
N876 H879 0.984 . S
N876 H880 0.985 . S
H877 N872 0.984 . S
H878 N872 0.985 . S
H879 N876 0.984 . S
H880 N876 0.985 . S
H881 N875 0.984 . S
H882 N875 0.984 . S
H883 N871 0.984 . S
H884 N871 0.985 . S
C885 C886 1.363 . S
C885 C891 1.379 . S
C885 N893 1.356 . S
C886 C885 1.363 . S
C886 C892 1.363 . S
C887 C888 1.363 . S
C887 C892 1.379 . S
C887 N894 1.356 . S
C888 C887 1.363 . S
C888 C891 1.363 . S
N889 C891 1.356 . S
N889 H901 0.984 . S
N889 H902 0.985 . S
N890 C892 1.356 . S
N890 H895 0.984 . S
N890 H896 0.985 . S
C891 C885 1.379 . S
C891 C888 1.363 . S
C891 N889 1.356 . S
C892 C886 1.363 . S
C892 C887 1.379 . S
C892 N890 1.356 . S
N893 C885 1.356 . S
N893 H899 0.984 . S
N893 H900 0.984 . S
N894 C887 1.356 . S
N894 H897 0.984 . S
N894 H898 0.985 . S
H895 N890 0.984 . S
H896 N890 0.985 . S
H897 N894 0.984 . S
H898 N894 0.985 . S
H899 N893 0.984 . S
H900 N893 0.984 . S
H901 N889 0.984 . S
H902 N889 0.985 . S
C903 C904 1.363 . S
C903 C909 1.379 . S
C903 N911 1.356 . S
C904 C903 1.363 . S
C904 C910 1.363 . S
C905 C906 1.363 . S
C905 C910 1.379 . S
C905 N912 1.356 . S
C906 C905 1.363 . S
C906 C909 1.363 . S
N907 C909 1.356 . S
N907 H919 0.984 . S
N907 H920 0.985 . S
N908 C910 1.356 . S
N908 H913 0.984 . S
N908 H914 0.985 . S
C909 C903 1.379 . S
C909 C906 1.363 . S
C909 N907 1.356 . S
C910 C904 1.363 . S
C910 C905 1.379 . S
C910 N908 1.356 . S
N911 C903 1.356 . S
N911 H917 0.984 . S
N911 H918 0.984 . S
N912 C905 1.356 . S
N912 H915 0.984 . S
N912 H916 0.985 . S
H913 N908 0.984 . S
H914 N908 0.985 . S
H915 N912 0.984 . S
H916 N912 0.985 . S
H917 N911 0.984 . S
H918 N911 0.984 . S
H919 N907 0.984 . S
H920 N907 0.985 . S
C921 C922 1.363 . S
C921 C927 1.379 . S
C921 N929 1.356 . S
C922 C921 1.363 . S
C922 C928 1.363 . S
C923 C924 1.363 . S
C923 C928 1.379 . S
C923 N930 1.356 . S
C924 C923 1.363 . S
C924 C927 1.363 . S
N925 C927 1.356 . S
N925 H937 0.984 . S
N925 H938 0.985 . S
N926 C928 1.356 . S
N926 H931 0.984 . S
N926 H932 0.985 . S
C927 C921 1.379 . S
C927 C924 1.363 . S
C927 N925 1.356 . S
C928 C922 1.363 . S
C928 C923 1.379 . S
C928 N926 1.356 . S
N929 C921 1.356 . S
N929 H935 0.984 . S
N929 H936 0.984 . S
N930 C923 1.356 . S
N930 H933 0.984 . S
N930 H934 0.985 . S
H931 N926 0.984 . S
H932 N926 0.985 . S
H933 N930 0.984 . S
H934 N930 0.985 . S
H935 N929 0.984 . S
H936 N929 0.984 . S
H937 N925 0.984 . S
H938 N925 0.985 . S
C939 C940 1.363 . S
C939 C945 1.379 . S
C939 N947 1.356 . S
C940 C939 1.363 . S
C940 C946 1.363 . S
C941 C942 1.363 . S
C941 C946 1.379 . S
C941 N948 1.356 . S
C942 C941 1.363 . S
C942 C945 1.363 . S
N943 C945 1.356 . S
N943 H955 0.984 . S
N943 H956 0.985 . S
N944 C946 1.356 . S
N944 H949 0.984 . S
N944 H950 0.985 . S
C945 C939 1.379 . S
C945 C942 1.363 . S
C945 N943 1.356 . S
C946 C940 1.363 . S
C946 C941 1.379 . S
C946 N944 1.356 . S
N947 C939 1.356 . S
N947 H953 0.984 . S
N947 H954 0.984 . S
N948 C941 1.356 . S
N948 H951 0.984 . S
N948 H952 0.985 . S
H949 N944 0.984 . S
H950 N944 0.985 . S
H951 N948 0.984 . S
H952 N948 0.985 . S
H953 N947 0.984 . S
H954 N947 0.984 . S
H955 N943 0.984 . S
H956 N943 0.985 . S
C957 C958 1.363 . S
C957 C963 1.379 . S
C957 N965 1.356 . S
C958 C957 1.363 . S
C958 C964 1.363 . S
C959 C960 1.363 . S
C959 C964 1.379 . S
C959 N966 1.356 . S
C960 C959 1.363 . S
C960 C963 1.363 . S
N961 C963 1.356 . S
N961 H973 0.984 . S
N961 H974 0.985 . S
N962 C964 1.356 . S
N962 H967 0.984 . S
N962 H968 0.985 . S
C963 C957 1.379 . S
C963 C960 1.363 . S
C963 N961 1.356 . S
C964 C958 1.363 . S
C964 C959 1.379 . S
C964 N962 1.356 . S
N965 C957 1.356 . S
N965 H971 0.984 . S
N965 H972 0.984 . S
N966 C959 1.356 . S
N966 H969 0.984 . S
N966 H970 0.985 . S
H967 N962 0.984 . S
H968 N962 0.985 . S
H969 N966 0.984 . S
H970 N966 0.985 . S
H971 N965 0.984 . S
H972 N965 0.984 . S
H973 N961 0.984 . S
H974 N961 0.985 . S
C975 C976 1.363 . S
C975 C981 1.379 . S
C975 N983 1.356 . S
C976 C975 1.363 . S
C976 C982 1.363 . S
C977 C978 1.363 . S
C977 C982 1.379 . S
C977 N984 1.356 . S
C978 C977 1.363 . S
C978 C981 1.363 . S
N979 C981 1.356 . S
N979 H991 0.984 1_655 S
N979 H992 0.985 . S
N980 C982 1.356 . S
N980 H985 0.984 . S
N980 H986 0.985 . S
C981 C975 1.379 . S
C981 C978 1.363 . S
C981 N979 1.356 . S
C982 C976 1.363 . S
C982 C977 1.379 . S
C982 N980 1.356 . S
N983 C975 1.356 . S
N983 H989 0.984 . S
N983 H990 0.984 . S
N984 C977 1.356 . S
N984 H987 0.984 . S
N984 H988 0.985 . S
H985 N980 0.984 . S
H986 N980 0.985 . S
H987 N984 0.984 . S
H988 N984 0.985 . S
H989 N983 0.984 . S
H990 N983 0.984 . S
H991 N979 0.984 1_455 S
H992 N979 0.985 . S
C993 C994 1.363 . S
C993 C999 1.379 . S
C993 N1001 1.356 . S
C994 C993 1.363 . S
C994 C1000 1.363 . S
C995 C996 1.363 . S
C995 C1000 1.379 . S
C995 N1002 1.356 . S
C996 C995 1.363 . S
C996 C999 1.363 . S
N997 C999 1.356 . S
N997 H1009 0.984 . S
N997 H1010 0.985 . S
N998 C1000 1.356 . S
N998 H1003 0.984 . S
N998 H1004 0.985 . S
C999 C993 1.379 . S
C999 C996 1.363 . S
C999 N997 1.356 . S
C1000 C994 1.363 . S
C1000 C995 1.379 . S
C1000 N998 1.356 . S
N1001 C993 1.356 . S
N1001 H1007 0.984 . S
N1001 H1008 0.984 . S
N1002 C995 1.356 . S
N1002 H1005 0.984 . S
N1002 H1006 0.985 . S
H1003 N998 0.984 . S
H1004 N998 0.985 . S
H1005 N1002 0.984 . S
H1006 N1002 0.985 . S
H1007 N1001 0.984 . S
H1008 N1001 0.984 . S
H1009 N997 0.984 . S
H1010 N997 0.985 . S
C1011 C1012 1.363 . S
C1011 C1017 1.379 . S
C1011 N1019 1.356 . S
C1012 C1011 1.363 . S
C1012 C1018 1.363 . S
C1013 C1014 1.363 . S
C1013 C1018 1.379 . S
C1013 N1020 1.356 . S
C1014 C1013 1.363 . S
C1014 C1017 1.363 . S
N1015 C1017 1.356 . S
N1015 H1027 0.984 . S
N1015 H1028 0.985 . S
N1016 C1018 1.356 . S
N1016 H1021 0.984 . S
N1016 H1022 0.985 . S
C1017 C1011 1.379 . S
C1017 C1014 1.363 . S
C1017 N1015 1.356 . S
C1018 C1012 1.363 . S
C1018 C1013 1.379 . S
C1018 N1016 1.356 . S
N1019 C1011 1.356 . S
N1019 H1025 0.984 . S
N1019 H1026 0.984 . S
N1020 C1013 1.356 . S
N1020 H1023 0.984 . S
N1020 H1024 0.985 . S
H1021 N1016 0.984 . S
H1022 N1016 0.985 . S
H1023 N1020 0.984 . S
H1024 N1020 0.985 . S
H1025 N1019 0.984 . S
H1026 N1019 0.984 . S
H1027 N1015 0.984 . S
H1028 N1015 0.985 . S
C1029 C1030 1.363 . S
C1029 C1035 1.379 . S
C1029 N1037 1.356 . S
C1030 C1029 1.363 . S
C1030 C1036 1.363 . S
C1031 C1032 1.363 . S
C1031 C1036 1.379 . S
C1031 N1038 1.356 . S
C1032 C1031 1.363 . S
C1032 C1035 1.363 . S
N1033 C1035 1.356 . S
N1033 H1045 0.984 . S
N1033 H1046 0.985 . S
N1034 C1036 1.356 . S
N1034 H1039 0.984 . S
N1034 H1040 0.985 . S
C1035 C1029 1.379 . S
C1035 C1032 1.363 . S
C1035 N1033 1.356 . S
C1036 C1030 1.363 . S
C1036 C1031 1.379 . S
C1036 N1034 1.356 . S
N1037 C1029 1.356 . S
N1037 H1043 0.984 . S
N1037 H1044 0.984 . S
N1038 C1031 1.356 . S
N1038 H1041 0.984 . S
N1038 H1042 0.985 . S
H1039 N1034 0.984 . S
H1040 N1034 0.985 . S
H1041 N1038 0.984 . S
H1042 N1038 0.985 . S
H1043 N1037 0.984 . S
H1044 N1037 0.984 . S
H1045 N1033 0.984 . S
H1046 N1033 0.985 . S
C1047 C1048 1.363 . S
C1047 C1053 1.379 . S
C1047 N1055 1.356 . S
C1048 C1047 1.363 . S
C1048 C1054 1.363 . S
C1049 C1050 1.363 . S
C1049 C1054 1.379 . S
C1049 N1056 1.356 . S
C1050 C1049 1.363 . S
C1050 C1053 1.363 . S
N1051 C1053 1.356 . S
N1051 H1063 0.984 . S
N1051 H1064 0.985 . S
N1052 C1054 1.356 . S
N1052 H1057 0.984 . S
N1052 H1058 0.985 . S
C1053 C1047 1.379 . S
C1053 C1050 1.363 . S
C1053 N1051 1.356 . S
C1054 C1048 1.363 . S
C1054 C1049 1.379 . S
C1054 N1052 1.356 . S
N1055 C1047 1.356 . S
N1055 H1061 0.984 . S
N1055 H1062 0.984 . S
N1056 C1049 1.356 . S
N1056 H1059 0.984 . S
N1056 H1060 0.985 . S
H1057 N1052 0.984 . S
H1058 N1052 0.985 . S
H1059 N1056 0.984 . S
H1060 N1056 0.985 . S
H1061 N1055 0.984 . S
H1062 N1055 0.984 . S
H1063 N1051 0.984 . S
H1064 N1051 0.985 . S
C1065 C1066 1.363 . S
C1065 C1071 1.379 . S
C1065 N1073 1.356 . S
C1066 C1065 1.363 . S
C1066 C1072 1.363 . S
C1067 C1068 1.363 . S
C1067 C1072 1.379 . S
C1067 N1074 1.356 . S
C1068 C1067 1.363 . S
C1068 C1071 1.363 . S
N1069 C1071 1.356 . S
N1069 H1081 0.984 . S
N1069 H1082 0.985 . S
N1070 C1072 1.356 . S
N1070 H1075 0.984 . S
N1070 H1076 0.985 . S
C1071 C1065 1.379 . S
C1071 C1068 1.363 . S
C1071 N1069 1.356 . S
C1072 C1066 1.363 . S
C1072 C1067 1.379 . S
C1072 N1070 1.356 . S
N1073 C1065 1.356 . S
N1073 H1079 0.984 . S
N1073 H1080 0.984 . S
N1074 C1067 1.356 . S
N1074 H1077 0.984 . S
N1074 H1078 0.985 . S
H1075 N1070 0.984 . S
H1076 N1070 0.985 . S
H1077 N1074 0.984 . S
H1078 N1074 0.985 . S
H1079 N1073 0.984 . S
H1080 N1073 0.984 . S
H1081 N1069 0.984 . S
H1082 N1069 0.985 . S
C1083 C1084 1.363 . S
C1083 C1089 1.379 . S
C1083 N1091 1.356 . S
C1084 C1083 1.363 . S
C1084 C1090 1.363 . S
C1085 C1086 1.363 . S
C1085 C1090 1.379 . S
C1085 N1092 1.356 . S
C1086 C1085 1.363 . S
C1086 C1089 1.363 . S
N1087 C1089 1.356 . S
N1087 H1099 0.984 . S
N1087 H1100 0.985 . S
N1088 C1090 1.356 . S
N1088 H1093 0.984 . S
N1088 H1094 0.985 . S
C1089 C1083 1.379 . S
C1089 C1086 1.363 . S
C1089 N1087 1.356 . S
C1090 C1084 1.363 . S
C1090 C1085 1.379 . S
C1090 N1088 1.356 . S
N1091 C1083 1.356 . S
N1091 H1097 0.984 . S
N1091 H1098 0.984 . S
N1092 C1085 1.356 . S
N1092 H1095 0.984 . S
N1092 H1096 0.985 . S
H1093 N1088 0.984 . S
H1094 N1088 0.985 . S
H1095 N1092 0.984 . S
H1096 N1092 0.985 . S
H1097 N1091 0.984 . S
H1098 N1091 0.984 . S
H1099 N1087 0.984 . S
H1100 N1087 0.985 . S
C1101 C1102 1.363 . S
C1101 C1107 1.379 . S
C1101 N1109 1.356 . S
C1102 C1101 1.363 . S
C1102 C1108 1.363 . S
C1103 C1104 1.363 . S
C1103 C1108 1.379 . S
C1103 N1110 1.356 . S
C1104 C1103 1.363 . S
C1104 C1107 1.363 . S
N1105 C1107 1.356 . S
N1105 H1117 0.984 . S
N1105 H1118 0.985 . S
N1106 C1108 1.356 . S
N1106 H1111 0.984 . S
N1106 H1112 0.985 . S
C1107 C1101 1.379 . S
C1107 C1104 1.363 . S
C1107 N1105 1.356 . S
C1108 C1102 1.363 . S
C1108 C1103 1.379 . S
C1108 N1106 1.356 . S
N1109 C1101 1.356 . S
N1109 H1115 0.984 . S
N1109 H1116 0.984 . S
N1110 C1103 1.356 . S
N1110 H1113 0.984 . S
N1110 H1114 0.985 . S
H1111 N1106 0.984 . S
H1112 N1106 0.985 . S
H1113 N1110 0.984 . S
H1114 N1110 0.985 . S
H1115 N1109 0.984 . S
H1116 N1109 0.984 . S
H1117 N1105 0.984 . S
H1118 N1105 0.985 . S
C1119 C1120 1.363 . S
C1119 C1125 1.379 . S
C1119 N1127 1.356 . S
C1120 C1119 1.363 . S
C1120 C1126 1.363 . S
C1121 C1122 1.363 . S
C1121 C1126 1.379 . S
C1121 N1128 1.356 . S
C1122 C1121 1.363 . S
C1122 C1125 1.363 . S
N1123 C1125 1.356 . S
N1123 H1135 0.984 . S
N1123 H1136 0.985 . S
N1124 C1126 1.356 . S
N1124 H1129 0.984 . S
N1124 H1130 0.985 . S
C1125 C1119 1.379 . S
C1125 C1122 1.363 . S
C1125 N1123 1.356 . S
C1126 C1120 1.363 . S
C1126 C1121 1.379 . S
C1126 N1124 1.356 . S
N1127 C1119 1.356 . S
N1127 H1133 0.984 . S
N1127 H1134 0.984 . S
N1128 C1121 1.356 . S
N1128 H1131 0.984 . S
N1128 H1132 0.985 . S
H1129 N1124 0.984 . S
H1130 N1124 0.985 . S
H1131 N1128 0.984 . S
H1132 N1128 0.985 . S
H1133 N1127 0.984 . S
H1134 N1127 0.984 . S
H1135 N1123 0.984 . S
H1136 N1123 0.985 . S
C1137 C1138 1.363 . S
C1137 C1143 1.379 . S
C1137 N1145 1.356 . S
C1138 C1137 1.363 . S
C1138 C1144 1.363 . S
C1139 C1140 1.363 . S
C1139 C1144 1.379 . S
C1139 N1146 1.356 . S
C1140 C1139 1.363 . S
C1140 C1143 1.363 . S
N1141 C1143 1.356 . S
N1141 H1153 0.984 . S
N1141 H1154 0.985 . S
N1142 C1144 1.356 . S
N1142 H1147 0.984 . S
N1142 H1148 0.985 . S
C1143 C1137 1.379 . S
C1143 C1140 1.363 . S
C1143 N1141 1.356 . S
C1144 C1138 1.363 . S
C1144 C1139 1.379 . S
C1144 N1142 1.356 . S
N1145 C1137 1.356 . S
N1145 H1151 0.984 . S
N1145 H1152 0.984 . S
N1146 C1139 1.356 . S
N1146 H1149 0.984 . S
N1146 H1150 0.985 . S
H1147 N1142 0.984 . S
H1148 N1142 0.985 . S
H1149 N1146 0.984 . S
H1150 N1146 0.985 . S
H1151 N1145 0.984 . S
H1152 N1145 0.984 . S
H1153 N1141 0.984 . S
H1154 N1141 0.985 . S
C1155 C1156 1.363 . S
C1155 C1161 1.379 . S
C1155 N1163 1.356 . S
C1156 C1155 1.363 . S
C1156 C1162 1.363 . S
C1157 C1158 1.363 . S
C1157 C1162 1.379 . S
C1157 N1164 1.356 . S
C1158 C1157 1.363 . S
C1158 C1161 1.363 . S
N1159 C1161 1.356 . S
N1159 H1171 0.984 1_565 S
N1159 H1172 0.985 . S
N1160 C1162 1.356 . S
N1160 H1165 0.984 . S
N1160 H1166 0.985 . S
C1161 C1155 1.379 . S
C1161 C1158 1.363 . S
C1161 N1159 1.356 . S
C1162 C1156 1.363 . S
C1162 C1157 1.379 . S
C1162 N1160 1.356 . S
N1163 C1155 1.356 . S
N1163 H1169 0.984 . S
N1163 H1170 0.984 . S
N1164 C1157 1.356 . S
N1164 H1167 0.984 . S
N1164 H1168 0.985 . S
H1165 N1160 0.984 . S
H1166 N1160 0.985 . S
H1167 N1164 0.984 . S
H1168 N1164 0.985 . S
H1169 N1163 0.984 . S
H1170 N1163 0.984 . S
H1171 N1159 0.984 1_545 S
H1172 N1159 0.985 . S
C1173 C1174 1.363 . S
C1173 C1179 1.379 . S
C1173 N1181 1.356 . S
C1174 C1173 1.363 . S
C1174 C1180 1.363 . S
C1175 C1176 1.363 . S
C1175 C1180 1.379 . S
C1175 N1182 1.356 . S
C1176 C1175 1.363 . S
C1176 C1179 1.363 . S
N1177 C1179 1.356 . S
N1177 H1189 0.984 . S
N1177 H1190 0.985 . S
N1178 C1180 1.356 . S
N1178 H1183 0.984 . S
N1178 H1184 0.985 . S
C1179 C1173 1.379 . S
C1179 C1176 1.363 . S
C1179 N1177 1.356 . S
C1180 C1174 1.363 . S
C1180 C1175 1.379 . S
C1180 N1178 1.356 . S
N1181 C1173 1.356 . S
N1181 H1187 0.984 . S
N1181 H1188 0.984 . S
N1182 C1175 1.356 . S
N1182 H1185 0.984 . S
N1182 H1186 0.985 . S
H1183 N1178 0.984 . S
H1184 N1178 0.985 . S
H1185 N1182 0.984 . S
H1186 N1182 0.985 . S
H1187 N1181 0.984 . S
H1188 N1181 0.984 . S
H1189 N1177 0.984 . S
H1190 N1177 0.985 . S
C1191 C1192 1.363 . S
C1191 C1197 1.379 . S
C1191 N1199 1.356 . S
C1192 C1191 1.363 . S
C1192 C1198 1.363 . S
C1193 C1194 1.363 . S
C1193 C1198 1.379 . S
C1193 N1200 1.356 . S
C1194 C1193 1.363 . S
C1194 C1197 1.363 . S
N1195 C1197 1.356 . S
N1195 H1207 0.984 . S
N1195 H1208 0.985 . S
N1196 C1198 1.356 . S
N1196 H1201 0.984 . S
N1196 H1202 0.985 . S
C1197 C1191 1.379 . S
C1197 C1194 1.363 . S
C1197 N1195 1.356 . S
C1198 C1192 1.363 . S
C1198 C1193 1.379 . S
C1198 N1196 1.356 . S
N1199 C1191 1.356 . S
N1199 H1205 0.984 . S
N1199 H1206 0.984 . S
N1200 C1193 1.356 . S
N1200 H1203 0.984 . S
N1200 H1204 0.985 . S
H1201 N1196 0.984 . S
H1202 N1196 0.985 . S
H1203 N1200 0.984 . S
H1204 N1200 0.985 . S
H1205 N1199 0.984 . S
H1206 N1199 0.984 . S
H1207 N1195 0.984 . S
H1208 N1195 0.985 . S
C778 C11 1.696 . S
C780 C695 1.992 . S
C796 C125 1.269 . S
C798 C742 1.648 . S
C816 C746 1.870 . S
C814 C239 1.380 . S
C834 C711 1.421 . S
C832 C343 1.258 . S
C850 C485 1.408 . S
C852 C726 1.934 . S
C870 C748 1.091 . S
C868 C571 1.202 . S
C888 C717 1.614 . S
C886 C257 1.060 . S
C904 C397 0.896 . S
C906 C757 1.631 . S
C924 C686 1.534 . S
C922 C467 1.329 . S
C940 C625 1.028 . S
C942 C715 1.492 . S
C958 C29 1.514 . S
C960 C773 1.942 . S
C978 C684 1.599 . S
C976 C143 1.084 . S
C996 C702 1.940 . S
C994 C371 1.708 . S
C1014 C716 1.457 . S
C1012 C457 1.176 . S
C1032 C770 1.746 . S
C1030 C599 1.567 . S
C1050 C685 1.518 . S
C1048 C55 1.300 . S
C1068 C733 1.836 . S
C1066 C169 1.723 . S
C1084 C283 0.921 . S
C1086 C756 1.092 . S
C1104 C725 1.444 . S
C1102 C581 0.979 . S
C1122 C764 1.377 . S
C1120 C1 1.092 . S
C1140 C694 1.276 . S
C1138 C115 1.034 . S
C1158 C739 1.227 . S
C1156 C229 0.956 . S
C1174 C353 1.103 . S
C1176 C747 1.897 . S
C1192 C511 1.285 . S
C1194 C708 1.504 . S
