# Generated by pormake.
# Topology zzz, (3,6)-cn, num edge types: 1
# Building blocks:
#     Node 0, Type 0, BuildingBlock: VETTIZ_charged_linker_0, # of connection points: 3
#     Node 1, Type 0, BuildingBlock: VETTIZ_charged_linker_0, # of connection points: 3
#     Node 2, Type 0, BuildingBlock: VETTIZ_charged_linker_0, # of connection points: 3
#     Node 3, Type 0, BuildingBlock: VETTIZ_charged_linker_0, # of connection points: 3
#     Node 4, Type 0, BuildingBlock: VETTIZ_charged_linker_0, # of connection points: 3
#     Node 5, Type 0, BuildingBlock: VETTIZ_charged_linker_0, # of connection points: 3
#     Node 6, Type 0, BuildingBlock: VETTIZ_charged_linker_0, # of connection points: 3
#     Node 7, Type 0, BuildingBlock: VETTIZ_charged_linker_0, # of connection points: 3
#     Node 8, Type 1, BuildingBlock: NUHQIS_clean_sbu_0, # of connection points: 6
#     Node 9, Type 1, BuildingBlock: NUHQIS_clean_sbu_0, # of connection points: 6
#     Node 10, Type 1, BuildingBlock: NUHQIS_clean_sbu_0, # of connection points: 6
#     Node 11, Type 1, BuildingBlock: NUHQIS_clean_sbu_0, # of connection points: 6
#     Edge 12, Type (0, 1), BuildingBlock: AJUNOK_clean_linker_0, # of connection points: 2
#     Edge 13, Type (0, 1), BuildingBlock: AJUNOK_clean_linker_0, # of connection points: 2
#     Edge 14, Type (0, 1), BuildingBlock: AJUNOK_clean_linker_0, # of connection points: 2
#     Edge 15, Type (0, 1), BuildingBlock: AJUNOK_clean_linker_0, # of connection points: 2
#     Edge 16, Type (0, 1), BuildingBlock: AJUNOK_clean_linker_0, # of connection points: 2
#     Edge 17, Type (0, 1), BuildingBlock: AJUNOK_clean_linker_0, # of connection points: 2
#     Edge 18, Type (0, 1), BuildingBlock: AJUNOK_clean_linker_0, # of connection points: 2
#     Edge 19, Type (0, 1), BuildingBlock: AJUNOK_clean_linker_0, # of connection points: 2
#     Edge 20, Type (0, 1), BuildingBlock: AJUNOK_clean_linker_0, # of connection points: 2
#     Edge 21, Type (0, 1), BuildingBlock: AJUNOK_clean_linker_0, # of connection points: 2
#     Edge 22, Type (0, 1), BuildingBlock: AJUNOK_clean_linker_0, # of connection points: 2
#     Edge 23, Type (0, 1), BuildingBlock: AJUNOK_clean_linker_0, # of connection points: 2
#     Edge 24, Type (0, 1), BuildingBlock: AJUNOK_clean_linker_0, # of connection points: 2
#     Edge 25, Type (0, 1), BuildingBlock: AJUNOK_clean_linker_0, # of connection points: 2
#     Edge 26, Type (0, 1), BuildingBlock: AJUNOK_clean_linker_0, # of connection points: 2
#     Edge 27, Type (0, 1), BuildingBlock: AJUNOK_clean_linker_0, # of connection points: 2
#     Edge 28, Type (0, 1), BuildingBlock: AJUNOK_clean_linker_0, # of connection points: 2
#     Edge 29, Type (0, 1), BuildingBlock: AJUNOK_clean_linker_0, # of connection points: 2
#     Edge 30, Type (0, 1), BuildingBlock: AJUNOK_clean_linker_0, # of connection points: 2
#     Edge 31, Type (0, 1), BuildingBlock: AJUNOK_clean_linker_0, # of connection points: 2
#     Edge 32, Type (0, 1), BuildingBlock: AJUNOK_clean_linker_0, # of connection points: 2
#     Edge 33, Type (0, 1), BuildingBlock: AJUNOK_clean_linker_0, # of connection points: 2
#     Edge 34, Type (0, 1), BuildingBlock: AJUNOK_clean_linker_0, # of connection points: 2
#     Edge 35, Type (0, 1), BuildingBlock: AJUNOK_clean_linker_0, # of connection points: 2
# Relax obj value: 0.483
# Max RMSD: 0.253
# Mean RMSD: 0.236
data_MOF--net-zzz--node1-NUHQIS_clean_sbu_0--node2-VETTIZ_charged_linker_0--edge1-AJUNOK_clean_linker_0
_symmetry_space_group_name_H-M    P1
_symmetry_Int_Tables_number       1
_symmetry_cell_setting            triclinic
loop_
_symmetry_equiv_pos_as_xyz
'x, y, z'
_cell_length_a     45.612391
_cell_length_b     45.550122
_cell_length_c     14.963222
_cell_angle_alpha  89.714146
_cell_angle_beta   89.827346
_cell_angle_gamma 90.048828
loop_
_atom_site_label
_atom_site_type_symbol
_atom_site_fract_x
_atom_site_fract_y
_atom_site_fract_z
_atom_type_partial_charge
C0 C 0.82244 0.49625 0.465 0.0
C1 C 0.84351 0.48045 0.51738 0.0
C2 C 0.84069 0.44968 0.52299 0.0
C3 C 0.80238 0.45019 0.41223 0.0
C4 C 0.80107 0.48029 0.41486 0.0
C5 C 0.774 0.49072 0.36235 0.0
H6 H 0.66808 0.44819 0.05209 0.0
C7 C 0.78168 0.43908 0.3459 0.0
C8 C 0.76303 0.46205 0.31857 0.0
H9 H 0.67146 0.53297 0.17773 0.0
H10 H 0.71438 0.51711 0.2657 0.0
H11 H 0.72789 0.44709 1.0061 0.0
H12 H 0.6831 0.40583 0.222 0.0
H13 H 0.70739 0.37983 0.1752 0.0
H14 H 0.68031 0.39713 0.10526 0.0
H15 H 0.71823 0.40933 0.99907 0.0
H16 H 0.75377 0.42092 0.03929 0.0
C17 C 0.78302 0.51373 0.29202 0.0
C18 C 0.75148 0.50279 0.42956 0.0
C19 C 0.8197 0.35671 0.1575 0.0
C20 C 0.8115 0.34884 0.07045 0.0
C21 C 0.78211 0.35259 0.04458 0.0
C22 C 0.76265 0.36819 0.0994 0.0
C23 C 0.77332 0.38157 0.17742 0.0
C24 C 0.80081 0.37416 0.20842 0.0
C25 C 0.80931 0.3913 0.29005 0.0
C26 C 0.7834 0.41263 0.29664 0.0
C27 C 0.76286 0.40712 0.22947 0.0
C28 C 0.83871 0.40742 0.27127 0.0
C29 C 0.81137 0.36958 0.37006 0.0
C30 C 0.67749 0.46334 0.09974 0.0
C31 C 0.66609 0.49174 0.10773 0.0
C32 C 0.67954 0.51077 0.17035 0.0
C33 C 0.70434 0.50157 0.22152 0.0
C34 C 0.71568 0.47293 0.21086 0.0
C35 C 0.70188 0.45462 0.15023 0.0
C36 C 0.7175 0.42612 0.13834 0.0
C37 C 0.74131 0.42854 0.20832 0.0
C38 C 0.74105 0.4562 0.25123 0.0
C39 C 0.72994 0.42557 0.04108 0.0
C40 C 0.696 0.40074 0.16077 0.0
H41 H 0.81753 0.41154 0.48213 0.0
H42 H 0.82259 0.52001 0.4637 0.0
H43 H 0.74714 0.48642 0.48342 0.0
H44 H 0.73027 0.50774 0.39781 0.0
H45 H 0.75983 0.52318 0.46109 0.0
H46 H 0.80023 0.50472 0.24713 0.0
H47 H 0.79187 0.53371 0.32467 0.0
H48 H 0.76414 0.52032 0.25021 0.0
H49 H 0.84205 0.35344 0.17951 0.0
H50 H 0.7751 0.34613 0.97842 0.0
H51 H 0.74076 0.37124 0.07543 0.0
H52 H 0.83707 0.42111 0.20973 0.0
H53 H 0.85698 0.3916 0.26261 0.0
H54 H 0.84542 0.42188 0.32629 0.0
H55 H 0.81173 0.34624 0.3485 0.0
H56 H 0.79235 0.37196 0.41608 0.0
H57 H 0.83198 0.37265 0.40818 0.0
H58 H 0.85531 0.43693 0.56488 0.0
C59 C 0.81976 0.43473 0.47286 0.0
C60 C 0.16 0.78983 0.06494 0.0
C61 C 0.17112 0.81783 0.08651 0.0
C62 C 0.17017 0.82665 0.17686 0.0
C63 C 0.13667 0.78715 0.21001 0.0
C64 C 0.14233 0.77501 0.12773 0.0
C65 C 0.12438 0.74764 0.11346 0.0
H66 H 0.99628 0.67694 0.16637 0.0
C67 C 0.10986 0.77343 0.24655 0.0
C68 C 0.10273 0.74973 0.19194 0.0
H69 H 0.07579 0.64761 0.03604 0.0
H70 H 0.10173 0.68879 0.09575 0.0
H71 H 0.03304 0.70153 0.36739 0.0
H72 H 1.00813 0.75397 0.13571 0.0
H73 H 0.99506 0.76625 0.24162 0.0
H74 H 0.98087 0.73287 0.19515 0.0
H75 H 0.99572 0.70102 0.32838 0.0
H76 H 1.00964 0.73227 0.38745 0.0
C77 C 0.14541 0.72094 0.12177 0.0
C78 C 0.10881 0.74959 0.0218 0.0
C79 C 0.05402 0.83732 0.46194 0.0
C80 C 0.02491 0.83999 0.49037 0.0
C81 C 1.00461 0.81866 0.45931 0.0
C82 C 1.0137 0.7951 0.40263 0.0
C83 C 0.04327 0.79314 0.37453 0.0
C84 C 0.06244 0.81463 0.40425 0.0
C85 C 0.09218 0.81228 0.36352 0.0
C86 C 0.08863 0.78526 0.30583 0.0
C87 C 0.06006 0.77318 0.31183 0.0
C88 C 0.11447 0.80666 0.43976 0.0
C89 C 0.09805 0.84086 0.30796 0.0
C90 C 0.01928 0.67971 0.15052 0.0
C91 C 0.03394 0.65899 0.09444 0.0
C92 C 0.06392 0.66311 0.07729 0.0
C93 C 0.079 0.68721 0.1112 0.0
C94 C 0.06429 0.70824 0.16223 0.0
C95 C 0.03528 0.70415 0.18543 0.0
C96 C 0.02535 0.7287 0.24885 0.0
C97 C 0.0535 0.74715 0.25999 0.0
C98 C 0.0755 0.73514 0.20444 0.0
C99 C 1.01529 0.71518 0.33817 0.0
C100 C 1.00091 0.74648 0.20313 0.0
H101 H 0.15215 0.8195 0.30559 0.0
H102 H 0.16189 0.78166 0.99738 0.0
H103 H 0.09298 0.73163 1.01149 0.0
H104 H 0.12491 0.74842 0.96614 0.0
H105 H 0.09654 0.77059 1.01577 0.0
H106 H 0.1459 0.70776 0.05952 0.0
H107 H 0.13905 0.70651 0.17856 0.0
H108 H 0.16853 0.72747 0.13454 0.0
H109 H 0.0701 0.85362 0.4812 0.0
H110 H 0.98182 0.8201 0.47923 0.0
H111 H 0.99751 0.77946 0.38155 0.0
H112 H 0.10503 0.79178 0.49161 0.0
H113 H 0.12068 0.8275 0.47306 0.0
H114 H 0.13454 0.79545 0.4162 0.0
H115 H 0.07929 0.85643 0.30877 0.0
H116 H 0.10154 0.83625 0.23602 0.0
H117 H 0.11707 0.85335 0.334 0.0
H118 H 0.17901 0.84755 0.19776 0.0
C119 C 0.15341 0.811 0.23915 0.0
C120 C 0.84195 1.0152 0.16662 0.0
C121 C 0.86463 0.03079 0.12045 0.0
C122 C 0.86523 0.06159 0.1265 0.0
C123 C 0.81896 0.06149 0.20535 0.0
C124 C 0.81947 0.03134 0.21124 0.0
C125 C 0.79419 0.02066 0.27115 0.0
H126 H 0.6725 0.06427 0.5207 0.0
C127 C 0.79276 0.07274 0.25021 0.0
C128 C 0.77851 0.04957 0.29541 0.0
H129 H 0.70114 0.97493 0.48881 0.0
H130 H 0.74269 0.9918 0.39601 0.0
H131 H 0.73567 0.09763 0.53567 0.0
H132 H 0.66939 0.07908 0.35394 0.0
H133 H 0.69153 0.09934 0.27972 0.0
H134 H 0.67582 0.11638 0.37802 0.0
H135 H 0.69948 0.11283 0.52433 0.0
H136 H 0.73055 0.12928 0.46893 0.0
C137 C 0.80703 1.00545 0.35428 0.0
C138 C 0.77423 1.00022 0.21677 0.0
C139 C 0.73891 0.15747 0.11537 0.0
C140 C 0.70991 0.166 0.13616 0.0
C141 C 0.70175 0.1664 0.22732 0.0
C142 C 0.71835 0.15112 0.2904 0.0
C143 C 0.74225 0.13462 0.26069 0.0
C144 C 0.75443 0.14055 0.17829 0.0
C145 C 0.78165 0.12239 0.1628 0.0
C146 C 0.7793 0.10059 0.24129 0.0
C147 C 0.75519 0.1073 0.29522 0.0
C148 C 0.80855 0.14309 0.16894 0.0
C149 C 0.77993 0.10676 0.07144 0.0
C150 C 0.68803 0.04824 0.49578 0.0
C151 C 0.68387 0.01845 0.51433 0.0
C152 C 0.704 0.99821 0.47665 0.0
C153 C 0.72803 1.00798 0.4229 0.0
C154 C 0.73151 0.03824 0.40433 0.0
C155 C 0.71102 0.05744 0.43992 0.0
C156 C 0.71462 0.08813 0.40654 0.0
C157 C 0.74194 0.08514 0.349 0.0
C158 C 0.75249 0.05591 0.34739 0.0
C159 C 0.72022 0.10821 0.48794 0.0
C160 C 0.68662 0.09635 0.35189 0.0
H161 H 0.84511 0.10006 0.1783 0.0
H162 H 0.84167 0.99144 0.16721 0.0
H163 H 0.76733 1.01119 0.15369 0.0
H164 H 0.75411 0.99431 0.25389 0.0
H165 H 0.78595 0.97966 0.19923 0.0
H166 H 0.82306 0.02011 0.38781 0.0
H167 H 0.81856 0.9849 0.33537 0.0
H168 H 0.7899 0.99991 0.40382 0.0
H169 H 0.7473 0.16001 0.04812 0.0
H170 H 0.68063 0.1746 0.2485 0.0
H171 H 0.71045 0.15031 0.35782 0.0
H172 H 0.80254 0.1665 0.15804 0.0
H173 H 0.82508 0.13826 0.11648 0.0
H174 H 0.81907 0.14157 0.23568 0.0
H175 H 0.75975 0.09314 0.06731 0.0
H176 H 0.79904 0.09228 0.06031 0.0
H177 H 0.77986 0.12291 1.01562 0.0
H178 H 0.88299 0.07396 0.09614 0.0
C179 C 0.84293 0.07685 0.17044 0.0
C180 C 0.50671 0.69572 0.45211 0.0
C181 C 0.49057 0.67473 0.50446 0.0
C182 C 0.45975 0.6767 0.50447 0.0
C183 C 0.46118 0.71395 0.38952 0.0
C184 C 0.49112 0.71609 0.3967 0.0
C185 C 0.50171 0.74297 0.3428 0.0
H186 H 0.46281 0.84191 1.00502 0.0
C187 C 0.45079 0.73341 0.31807 0.0
C188 C 0.47377 0.75224 0.29155 0.0
H189 H 0.54188 0.84767 0.16071 0.0
H190 H 0.52696 0.80374 0.24668 0.0
H191 H 0.46626 0.7775 0.97434 0.0
H192 H 0.41801 0.8286 0.16209 0.0
H193 H 0.39384 0.80183 0.11982 0.0
H194 H 0.41135 0.82719 0.04391 0.0
H195 H 0.42991 0.78956 0.94978 0.0
H196 H 0.43687 0.75437 1.00178 0.0
C197 C 0.52663 0.73429 0.27888 0.0
C198 C 0.51129 0.76665 0.40974 0.0
C199 C 0.36793 0.6925 0.13601 0.0
C200 C 0.35937 0.69839 0.04757 0.0
C201 C 0.36551 0.72631 1.01115 0.0
C202 C 0.38333 0.7462 0.05755 0.0
C203 C 0.39581 0.73765 0.1397 0.0
C204 C 0.38682 0.71182 0.17954 0.0
C205 C 0.40315 0.70512 0.26426 0.0
C206 C 0.42527 0.73038 0.26498 0.0
C207 C 0.42103 0.74898 0.1915 0.0
C208 C 0.41826 0.67477 0.254 0.0
C209 C 0.38097 0.70618 0.34317 0.0
C210 C 0.47703 0.83403 0.05785 0.0
C211 C 0.50353 0.84839 0.07532 0.0
C212 C 0.52118 0.83719 0.14567 0.0
C213 C 0.51246 0.8119 0.19594 0.0
C214 C 0.4855 0.798 0.17725 0.0
C215 C 0.46853 0.80951 0.10869 0.0
C216 C 0.44102 0.79251 0.09378 0.0
C217 C 0.44244 0.77045 0.1695 0.0
C218 C 0.46886 0.77264 0.21851 0.0
C219 C 0.44337 0.7778 1.00027 0.0
C220 C 0.41453 0.81352 0.10479 0.0
H221 H 0.42189 0.69779 0.45432 0.0
H222 H 0.53041 0.69621 0.45467 0.0
H223 H 0.49358 0.77082 0.45935 0.0
H224 H 0.51617 0.78777 0.3768 0.0
H225 H 0.53115 0.75946 0.44669 0.0
H226 H 0.51935 0.71639 0.23381 0.0
H227 H 0.54602 0.72646 0.31688 0.0
H228 H 0.53352 0.75318 0.2369 0.0
H229 H 0.36348 0.67141 0.16652 0.0
H230 H 0.35876 0.73166 0.94367 0.0
H231 H 0.38831 0.76657 0.02474 0.0
H232 H 0.43193 0.67429 0.19234 0.0
H233 H 0.40186 0.65681 0.25012 0.0
H234 H 0.4326 0.66901 0.31031 0.0
H235 H 0.35794 0.70931 0.32073 0.0
H236 H 0.38575 0.72472 0.38887 0.0
H237 H 0.38098 0.68534 0.38205 0.0
H238 H 0.44661 0.66195 0.54515 0.0
C239 C 0.44521 0.6967 0.44971 0.0
C240 C 0.34487 0.51359 0.35932 0.0
C241 C 0.35762 0.52439 0.44009 0.0
C242 C 0.34302 0.54732 0.4847 0.0
C243 C 0.306 0.55016 0.36921 0.0
C244 C 0.31842 0.5265 0.32597 0.0
C245 C 0.30032 0.51881 0.24263 0.0
H246 H 0.18462 0.56481 0.97144 0.0
C247 C 0.28165 0.56176 0.315 0.0
C248 C 0.27621 0.54265 0.24335 0.0
H249 H 0.19448 0.47503 0.05833 0.0
H250 H 0.23555 0.48969 0.15471 0.0
H251 H 0.17658 0.5917 0.0974 0.0
H252 H 0.25858 0.58936 0.98619 0.0
H253 H 0.24994 0.62398 0.03375 0.0
H254 H 0.22422 0.60678 0.96 0.0
H255 H 0.19554 0.62498 0.10166 0.0
H256 H 0.19407 0.60085 0.19842 0.0
C257 C 0.28802 0.48751 0.25196 0.0
C258 C 0.31955 0.52174 0.15838 0.0
C259 C 0.2235 0.65181 0.39262 0.0
C260 C 0.20471 0.66864 0.33771 0.0
C261 C 0.21224 0.67204 0.24661 0.0
C262 C 0.23167 0.65217 0.20686 0.0
C263 C 0.24366 0.62999 0.26022 0.0
C264 C 0.2436 0.63286 0.35153 0.0
C265 C 0.26361 0.61059 0.39456 0.0
C266 C 0.26924 0.59026 0.31546 0.0
C267 C 0.25565 0.60108 0.23835 0.0
C268 C 0.24732 0.59443 0.47117 0.0
C269 C 0.29179 0.62686 0.42538 0.0
C270 C 0.19628 0.5478 1.00754 0.0
C271 C 0.18611 0.51873 1.00501 0.0
C272 C 0.20162 0.49769 0.05726 0.0
C273 C 0.22604 0.50588 0.11112 0.0
C274 C 0.23548 0.53534 0.11297 0.0
C275 C 0.21924 0.55584 0.06519 0.0
C276 C 0.22565 0.58673 0.09365 0.0
C277 C 0.24723 0.58135 0.16981 0.0
C278 C 0.25536 0.55152 0.17583 0.0
C279 C 0.19671 0.60187 0.12465 0.0
C280 C 0.24036 0.60273 1.01417 0.0
H281 H 0.30751 0.57705 0.4885 0.0
H282 H 0.35508 0.49563 0.32387 0.0
H283 H 0.32947 0.54401 0.15412 0.0
H284 H 0.30623 0.51818 0.09731 0.0
H285 H 0.33755 0.50531 0.15934 0.0
H286 H 0.26946 0.48686 0.30025 0.0
H287 H 0.30523 0.47215 0.27593 0.0
H288 H 0.28072 0.47904 0.18644 0.0
H289 H 0.2198 0.65023 0.46395 0.0
H290 H 0.19984 0.68673 0.20402 0.0
H291 H 0.2351 0.65308 0.13589 0.0
H292 H 0.22535 0.58697 0.44852 0.0
H293 H 0.24427 0.60908 0.52959 0.0
H294 H 0.25924 0.57466 0.49408 0.0
H295 H 0.29186 0.65048 0.40605 0.0
H296 H 0.31184 0.61744 0.39456 0.0
H297 H 0.29418 0.62619 0.49922 0.0
H298 H 0.35171 0.55595 0.54659 0.0
C299 C 0.31759 0.56005 0.45015 0.0
C300 C 0.86496 0.24302 0.42624 0.0
C301 C 0.85294 0.21511 0.409 0.0
C302 C 0.85106 0.20581 0.3193 0.0
C303 C 0.88494 0.24385 0.27671 0.0
C304 C 0.88123 0.25706 0.35858 0.0
C305 C 0.90051 0.28375 0.36748 0.0
H306 H 0.03055 0.33867 0.35354 0.0
C307 C 0.9118 0.2556 0.2354 0.0
C308 C 0.92002 0.2803 0.28424 0.0
H309 H 0.94948 0.38469 0.40971 0.0
H310 H 0.92276 0.34772 0.32481 0.0
H311 H 1.00845 0.26491 0.36602 0.0
H312 H 1.00078 0.31975 0.128 0.0
H313 H 0.0202 0.28595 0.11581 0.0
H314 H 0.03589 0.315 0.18089 0.0
H315 H 0.04041 0.28287 0.3204 0.0
H316 H 0.02507 0.25136 0.2659 0.0
C317 C 0.91841 0.28203 0.455 0.0
C318 C 0.8805 0.31119 0.36492 0.0
C319 C 0.96586 0.18428 0.03607 0.0
C320 C 0.99516 0.17931 1.01264 0.0
C321 C 1.01648 0.19919 0.04586 0.0
C322 C 1.00828 0.22378 0.09935 0.0
C323 C 0.97853 0.22824 0.12192 0.0
C324 C 0.95822 0.20797 0.09118 0.0
C325 C 0.92814 0.21302 0.12773 0.0
C326 C 0.93282 0.24089 0.18124 0.0
C327 C 0.96239 0.2505 0.17811 0.0
C328 C 0.91961 0.18597 0.1869 0.0
C329 C 0.90708 0.21849 0.04843 0.0
C330 C 1.00689 0.34015 0.35093 0.0
C331 C 0.99184 0.36374 0.39436 0.0
C332 C 0.9613 0.36605 0.38289 0.0
C333 C 0.94559 0.34432 0.3383 0.0
C334 C 0.96011 0.3192 0.30917 0.0
C335 C 0.99017 0.31819 0.30575 0.0
C336 C 0.99973 0.29198 0.24784 0.0
C337 C 0.97016 0.27709 0.22537 0.0
C338 C 0.94786 0.2929 0.26882 0.0
C339 C 0.01961 0.27158 0.30294 0.0
C340 C 1.01509 0.30372 0.16329 0.0
H341 H 0.86629 0.21178 0.18607 0.0
H342 H 0.86524 0.25139 0.49377 0.0
H343 H 0.85827 0.30635 0.39209 0.0
H344 H 0.87767 0.31949 0.29547 0.0
H345 H 0.88901 0.32899 0.40793 0.0
H346 H 0.9313 0.26134 0.45788 0.0
H347 H 0.90382 0.28295 0.51444 0.0
H348 H 0.93381 0.3007 0.46086 0.0
H349 H 0.94901 0.16908 1.01468 0.0
H350 H 0.0394 0.19581 0.03003 0.0
H351 H 0.02523 0.23819 0.12288 0.0
H352 H 0.93598 0.16793 0.18402 0.0
H353 H 0.89866 0.17588 0.16535 0.0
H354 H 0.91813 0.19173 0.25877 0.0
H355 H 0.91748 0.23301 0.99738 0.0
H356 H 0.88675 0.22981 0.06908 0.0
H357 H 0.90113 0.19752 1.01543 0.0
H358 H 0.84109 0.18504 0.30237 0.0
C359 C 0.86679 0.22049 0.25244 0.0
C360 C 0.31806 1.00386 0.02908 0.0
C361 C 0.34639 0.99053 0.03568 0.0
C362 C 0.35248 0.97352 0.11268 0.0
C363 C 0.30822 0.9909 0.18298 0.0
C364 C 0.29847 1.00222 0.10351 0.0
C365 C 0.26776 1.01493 0.11776 0.0
H366 H 0.17719 0.05625 0.47602 0.0
C367 C 0.29029 1.00268 0.25591 0.0
C368 C 0.2631 1.0114 0.21971 0.0
H369 H 0.15 0.98587 0.303 0.0
H370 H 0.19721 0.98985 0.21961 0.0
H371 H 0.24551 0.03549 0.51448 0.0
H372 H 0.22671 0.09736 0.29814 0.0
H373 H 0.24388 0.10943 0.40002 0.0
H374 H 0.20589 0.10124 0.39979 0.0
H375 H 0.22228 0.06643 0.53925 0.0
H376 H 0.26005 0.07232 0.5161 0.0
C377 C 0.24495 0.99694 0.06621 0.0
C378 C 0.26699 0.04742 0.08851 0.0
C379 C 0.3563 0.05923 0.46256 0.0
C380 C 0.35958 0.08979 0.45373 0.0
C381 C 0.33494 0.10696 0.43178 0.0
C382 C 0.30806 0.09328 0.41198 0.0
C383 C 0.30661 0.06248 0.40989 0.0
C384 C 0.33145 0.04612 0.42655 0.0
C385 C 0.33229 0.01861 0.37019 0.0
C386 C 0.30213 0.0198 0.32656 0.0
C387 C 0.28694 0.04456 0.35637 0.0
C388 C 0.33526 0.99159 0.43159 0.0
C389 C 0.35794 0.02101 0.30131 0.0
C390 C 0.18104 0.04188 0.41981 0.0
C391 C 0.15989 0.02068 0.39694 0.0
C392 C 0.1657 1.00254 0.32194 0.0
C393 C 0.19257 1.00481 0.27376 0.0
C394 C 0.21347 0.02575 0.29974 0.0
C395 C 0.20762 0.04371 0.3722 0.0
C396 C 0.23383 0.06208 0.39671 0.0
C397 C 0.25707 0.04839 0.33633 0.0
C398 C 0.24455 0.03001 0.27198 0.0
C399 C 0.24085 0.0588 0.49728 0.0
C400 C 0.2274 0.09432 0.37189 0.0
H401 H 0.33922 0.96173 0.2463 0.0
H402 H 0.31191 1.01583 0.96939 0.0
H403 H 0.28363 0.06033 0.12571 0.0
H404 H 0.24505 0.05708 0.10171 0.0
H405 H 0.27162 0.04961 1.01584 0.0
H406 H 0.24526 0.9736 0.08826 0.0
H407 H 0.24962 0.99773 0.99328 0.0
H408 H 0.22259 1.00583 0.07773 0.0
H409 H 0.37545 0.0456 0.47365 0.0
H410 H 0.33732 0.13035 0.42054 0.0
H411 H 0.29063 0.10649 0.38523 0.0
H412 H 0.35704 0.99145 0.46471 0.0
H413 H 0.33289 0.97097 0.39333 0.0
H414 H 0.318 0.99169 0.48427 0.0
H415 H 0.35046 0.03033 0.23654 0.0
H416 H 0.36893 0.99964 0.29093 0.0
H417 H 0.3759 0.03557 0.32285 0.0
H418 H 0.37319 0.96208 0.11886 0.0
C419 C 0.33331 0.97345 0.18616 0.0
C420 C 0.52716 0.31419 0.04644 0.0
C421 C 0.54274 0.33387 0.98815 0.0
C422 C 0.57309 0.32938 0.97645 0.0
C423 C 0.57325 0.29287 0.09337 0.0
C424 C 0.54319 0.29274 0.09652 0.0
C425 C 0.53296 0.26655 0.1542 0.0
H426 H 0.57861 0.16376 0.4729 0.0
C427 C 0.58489 0.27301 0.16137 0.0
C428 C 0.56203 0.25538 0.19526 0.0
H429 H 0.49347 0.16419 0.34858 0.0
H430 H 0.50756 0.20794 0.26084 0.0
H431 H 0.61884 0.17703 0.29736 0.0
H432 H 0.58092 0.22483 0.51165 0.0
H433 H 0.60701 0.24994 0.47129 0.0
H434 H 0.61863 0.21483 0.51542 0.0
H435 H 0.6286 0.17515 0.41362 0.0
H436 H 0.64544 0.20154 0.33975 0.0
C437 C 0.51929 0.24359 0.09166 0.0
C438 C 0.51134 0.27686 0.22643 0.0
C439 C 0.66957 0.31409 0.33275 0.0
C440 C 0.67945 0.30715 0.41913 0.0
C441 C 0.67649 0.27797 0.44962 0.0
C442 C 0.65907 0.25795 0.40224 0.0
C443 C 0.64415 0.26756 0.32524 0.0
C444 C 0.65113 0.29449 0.28837 0.0
C445 C 0.6329 0.30174 0.20777 0.0
C446 C 0.61179 0.27554 0.20762 0.0
C447 C 0.61798 0.25623 0.27813 0.0
C448 C 0.65348 0.30307 0.12516 0.0
C449 C 0.61672 0.33121 0.22403 0.0
C450 C 0.5631 0.17232 0.42469 0.0
C451 C 0.53532 0.15941 0.41589 0.0
C452 C 0.51534 0.1731 0.35604 0.0
C453 C 0.52359 0.1982 0.3042 0.0
C454 C 0.55214 0.20989 0.3118 0.0
C455 C 0.57102 0.19681 0.37262 0.0
C456 C 0.59978 0.2124 0.37893 0.0
C457 C 0.59665 0.23525 0.30567 0.0
C458 C 0.56849 0.23459 0.266 0.0
C459 C 0.62462 0.19041 0.3568 0.0
C460 C 0.60193 0.22616 0.47385 0.0
H461 H 0.6108 0.30454 1.01272 0.0
H462 H 0.50354 0.31548 0.05232 0.0
H463 H 0.5215 0.29425 0.26805 0.0
H464 H 0.50491 0.25848 0.27112 0.0
H465 H 0.49115 0.28594 0.1955 0.0
H466 H 0.53469 0.23818 0.03639 0.0
H467 H 0.49873 0.25217 0.06167 0.0
H468 H 0.51419 0.22288 0.12668 0.0
H469 H 0.67247 0.336 0.30588 0.0
H470 H 0.68506 0.27157 0.51426 0.0
H471 H 0.65619 0.23651 0.43071 0.0
H472 H 0.67692 0.30568 0.14401 0.0
H473 H 0.64864 0.32238 0.08216 0.0
H474 H 0.65193 0.28271 0.08482 0.0
H475 H 0.60359 0.33013 0.2867 0.0
H476 H 0.60178 0.33714 0.16909 0.0
H477 H 0.63241 0.34976 0.22919 0.0
H478 H 0.58553 0.34275 0.92973 0.0
C479 C 0.5881 0.30842 0.02675 0.0
Tb480 Tb 0.03005 0.99946 0.82909 0.0
Eu481 Eu 0.98555 0.02003 0.6707 0.0
C482 C 0.05517 1.01391 0.63276 0.0
C483 C 1.00884 0.06633 0.82269 0.0
C484 C 0.09435 0.96502 0.93504 0.0
C485 C 0.12423 0.93014 0.85315 0.0
C486 C 0.10166 0.95088 0.85486 0.0
C487 C 0.11123 0.96003 1.01144 0.0
C488 C 0.13382 0.93939 1.00979 0.0
C489 C 0.1398 0.92337 0.93158 0.0
C490 C 0.06781 0.98302 0.94141 0.0
O491 O 0.98707 0.99534 0.89647 0.0
O492 O 0.95703 0.01808 0.79453 0.0
O493 O 0.98749 0.97058 0.65328 0.0
O494 O 0.02684 0.96027 0.74314 0.0
C495 C 0.96132 1.00629 0.87375 0.0
O496 O 0.94343 1.0155 0.60381 0.0
O497 O 0.9744 0.04853 0.55844 0.0
O498 O 0.02876 1.01255 0.59801 0.0
O499 O 0.05865 1.01497 0.72008 0.0
O500 O 0.0182 0.04401 0.87098 0.0
O501 O 0.9996 0.06242 0.74006 0.0
C502 C 1.00755 0.95216 0.68237 0.0
O503 O 0.06874 1.00819 0.89991 0.0
O504 O 0.04325 0.96917 0.92692 0.0
C505 C 0.92457 0.06097 0.55859 0.0
C506 C 0.8852 0.10835 0.56179 0.0
C507 C 0.90168 0.10129 0.63803 0.0
C508 C 0.92115 0.07766 0.63656 0.0
C509 C 0.90699 0.06685 0.4842 0.0
C510 C 0.88737 0.09036 0.48579 0.0
C511 C 0.94757 0.03861 0.55361 0.0
H512 H 0.12827 0.91805 0.79218 0.0
H513 H 0.08893 0.95475 0.79494 0.0
H514 H 0.10589 0.97086 0.07371 0.0
H515 H 0.14489 0.93426 0.07187 0.0
H516 H 0.90051 0.11491 0.69708 0.0
H517 H 0.93443 0.07313 0.69494 0.0
H518 H 0.90934 0.05407 0.4237 0.0
H519 H 0.8754 0.09568 0.42539 0.0
Tb520 Tb 0.52265 0.02556 0.83802 0.0
Eu521 Eu 0.49998 0.9899 0.66751 0.0
C522 C 0.51205 0.05859 0.65703 0.0
C523 C 0.4556 1.00433 0.82601 0.0
C524 C 0.5597 0.08279 0.96915 0.0
C525 C 0.58807 0.11657 0.05908 0.0
C526 C 0.56572 0.0957 0.05179 0.0
C527 C 0.57526 0.09199 0.89288 0.0
C528 C 0.59751 0.11296 0.9 0.0
C529 C 0.60475 0.12478 0.9837 0.0
C530 C 0.53771 0.05932 0.963 0.0
O531 O 0.51719 0.98087 0.89315 0.0
O532 O 0.5132 0.95359 0.76435 0.0
O533 O 0.54794 0.99815 0.63831 0.0
O534 O 0.56452 1.01209 0.77612 0.0
C535 C 0.51613 0.95521 0.85217 0.0
O536 O 0.46452 0.97818 0.57698 0.0
O537 O 0.50897 0.96574 0.5441 0.0
O538 O 0.49196 0.03869 0.64144 0.0
O539 O 0.53078 0.05399 0.72164 0.0
O540 O 0.47393 0.02589 0.84515 0.0
O541 O 0.46331 0.98422 0.76812 0.0
C542 C 0.56962 1.00437 0.69247 0.0
O543 O 0.51603 0.06461 0.90876 0.0
O544 O 0.54797 0.0328 0.95302 0.0
C545 C 0.48111 0.99119 0.43573 0.0
C546 C 0.46032 0.04443 0.36654 0.0
C547 C 0.44523 0.0181 0.3493 0.0
C548 C 0.4554 0.99157 0.38482 0.0
C549 C 0.49919 1.01631 0.43558 0.0
C550 C 0.48869 0.0429 0.40163 0.0
C551 C 0.48278 0.97121 0.51323 0.0
H552 H 0.59339 0.12506 0.12458 0.0
H553 H 0.55378 0.08896 0.11117 0.0
H554 H 0.57076 0.08236 0.82831 0.0
H555 H 0.60984 0.11906 0.84076 0.0
H556 H 0.42349 0.01856 0.3209 0.0
H557 H 0.44113 0.97254 0.38364 0.0
H558 H 0.51934 1.01664 0.47368 0.0
H559 H 0.5009 0.06284 0.41397 0.0
Tb560 Tb 0.49654 0.51395 0.82939 0.0
Eu561 Eu 0.53826 0.49461 0.66311 0.0
C562 C 0.46827 0.50238 0.63477 0.0
C563 C 0.51718 0.44725 0.81489 0.0
C564 C 0.43362 0.5468 0.9428 0.0
C565 C 0.40072 0.57762 0.85614 0.0
C566 C 0.42331 0.55695 0.85985 0.0
C567 C 0.42009 0.55613 0.02154 0.0
C568 C 0.3976 0.57682 0.01796 0.0
C569 C 0.3882 0.58841 0.93534 0.0
C570 C 0.4602 0.5289 0.94767 0.0
O571 O 0.54036 0.5187 0.89006 0.0
O572 O 0.56836 0.49592 0.78344 0.0
O573 O 0.5352 0.54393 0.64534 0.0
O574 O 0.49936 0.55447 0.74835 0.0
C575 C 0.56568 0.50786 0.86291 0.0
O576 O 0.57849 0.50152 0.58738 0.0
O577 O 0.54967 0.46548 0.55281 0.0
O578 O 0.49426 0.50318 0.59639 0.0
O579 O 0.46591 0.50087 0.72266 0.0
O580 O 0.51015 0.46935 0.86702 0.0
O581 O 0.52365 0.45185 0.73 0.0
C582 C 0.51683 0.56255 0.68211 0.0
O583 O 0.45917 0.50391 0.90582 0.0
O584 O 0.4845 0.54305 0.9312 0.0
C585 C 0.60053 0.45758 0.5422 0.0
C586 C 0.64529 0.41509 0.54399 0.0
C587 C 0.63418 0.42628 0.62463 0.0
C588 C 0.61175 0.44717 0.6237 0.0
C589 C 0.61281 0.44792 0.46183 0.0
C590 C 0.63501 0.42683 0.46264 0.0
C591 C 0.57536 0.47761 0.54086 0.0
H592 H 0.3941 0.5863 0.79176 0.0
H593 H 0.43368 0.54996 0.79829 0.0
H594 H 0.42796 0.54863 0.08599 0.0
H595 H 0.38914 0.58528 0.08043 0.0
H596 H 0.64188 0.41791 0.68824 0.0
H597 H 0.60251 0.45449 0.68649 0.0
H598 H 0.60448 0.45585 0.39842 0.0
H599 H 0.64287 0.41841 0.39934 0.0
Tb600 Tb 1.00316 0.48792 0.8328 0.0
Eu601 Eu 0.02387 0.53137 0.67277 0.0
C602 C 0.01686 0.46143 0.63664 0.0
C603 C 0.07071 0.5079 0.82365 0.0
C604 C 0.9627 0.42846 0.94216 0.0
C605 C 0.92492 0.40302 0.8585 0.0
C606 C 0.94746 0.42377 0.86205 0.0
C607 C 0.95606 0.41145 0.01751 0.0
C608 C 0.93354 0.39072 1.01409 0.0
C609 C 0.91741 0.38659 0.93494 0.0
C610 C 0.98488 0.45166 0.94774 0.0
O611 O 1.01171 0.52952 0.90331 0.0
O612 O 1.00804 0.56107 0.78476 0.0
O613 O 0.97825 0.51659 0.63238 0.0
O614 O 0.96181 0.50251 0.77031 0.0
C615 C 1.00935 0.55647 0.8715 0.0
O616 O 1.01466 0.57122 0.5957 0.0
O617 O 0.05321 0.54504 0.5657 0.0
O618 O 0.02966 0.48607 0.61163 0.0
O619 O 1.00329 0.45944 0.71436 0.0
O620 O 0.05097 0.4886 0.85045 0.0
O621 O 0.06443 0.52758 0.76152 0.0
C622 C 0.95663 0.50872 0.68555 0.0
O623 O 1.00816 0.44754 0.89883 0.0
O624 O 0.97499 0.47843 0.94037 0.0
C625 C 0.05646 0.59627 0.54064 0.0
C626 C 0.09477 0.6421 0.49292 0.0
C627 C 0.06621 0.6412 0.458 0.0
C628 C 0.04727 0.61826 0.48118 0.0
C629 C 0.08362 0.59906 0.58361 0.0
C630 C 0.10267 0.62181 0.55978 0.0
C631 C 0.0389 0.56934 0.54976 0.0
H632 H 0.9127 0.40052 0.79703 0.0
H633 H 0.95244 0.43675 0.80306 0.0
H634 H 0.96763 0.41484 0.07976 0.0
H635 H 0.92773 0.37911 0.07497 0.0
H636 H 0.05952 0.65673 0.40699 0.0
H637 H 0.02619 0.61668 0.44835 0.0
H638 H 0.09094 0.58258 0.63101 0.0
H639 H 0.12456 0.62189 0.58768 0.0
C640 C 0.10441 0.01822 0.42161 0.0
C641 C 0.13315 1.0168 0.456 0.0
C642 C 0.07945 1.01721 0.47847 0.0
C643 C 0.08199 1.01461 0.57249 0.0
H644 H 0.10118 0.0209 0.35038 0.0
H645 H 0.05796 0.01884 0.44827 0.0
S646 S 0.15244 1.00667 0.69525 0.0
N647 N 0.16247 1.01035 0.58973 0.0
N648 N 0.11631 1.00842 0.69548 0.0
C649 C 0.11072 1.01218 0.60699 0.0
C650 C 0.13597 1.01327 0.54928 0.0
C651 C 0.50167 0.13 0.52069 0.0
C652 C 0.528 0.13226 0.47102 0.0
C653 C 0.49639 0.10622 0.5804 0.0
C654 C 0.51706 0.08353 0.59256 0.0
H655 H 0.48541 0.14723 0.51577 0.0
H656 H 0.47622 0.10595 0.61875 0.0
S657 S 0.58817 0.07703 0.47353 0.0
N658 N 0.57397 0.10786 0.43448 0.0
N659 N 0.56419 0.06419 0.54679 0.0
C660 C 0.54307 0.08516 0.54217 0.0
C661 C 0.54841 0.10909 0.48126 0.0
C662 C 0.38628 0.50613 0.57404 0.0
C663 C 0.38575 0.51308 0.48188 0.0
C664 C 0.41273 0.50173 0.62112 0.0
C665 C 0.44043 0.50403 0.57911 0.0
H666 H 0.36589 0.50518 0.6113 0.0
H667 H 0.41132 0.49734 0.69221 0.0
S668 S 0.45163 0.52057 0.33743 0.0
N669 N 0.41562 0.52105 0.34967 0.0
N670 N 0.4652 0.51263 0.43693 0.0
C671 C 0.44024 0.5098 0.4859 0.0
C672 C 0.41309 0.51428 0.43783 0.0
C673 C 1.00019 0.38405 0.5478 0.0
C674 C 1.0058 0.38594 0.45523 0.0
C675 C 1.00503 0.40798 0.60559 0.0
C676 C 1.01561 0.43533 0.57406 0.0
H677 H 0.99038 0.36428 0.57521 0.0
H678 H 0.99933 0.40523 0.67546 0.0
S679 S 0.03468 0.45164 0.33693 0.0
N680 N 0.02319 0.41723 0.33487 0.0
N681 N 0.03273 0.46204 0.44245 0.0
C682 C 0.02249 0.43712 0.48183 0.0
C683 C 0.01743 0.41261 0.4229 0.0
C684 C 0.88366 1.01674 0.96901 0.0
C685 C 0.88761 1.01678 0.06232 0.0
C686 C 0.90725 1.01197 0.90947 0.0
C687 C 0.93616 1.00704 0.93998 0.0
H688 H 0.86238 0.02214 0.94149 0.0
H689 H 0.90287 1.01325 0.83845 0.0
S690 S 0.95818 1.00428 0.17889 0.0
N691 N 0.92259 1.01094 0.18266 0.0
N692 N 0.96676 1.00148 0.07188 0.0
C693 C 0.94015 1.00577 0.03357 0.0
C694 C 0.91603 1.01085 0.0942 0.0
C695 C 0.5154 0.90276 0.05639 0.0
C696 C 0.51161 0.87475 0.01855 0.0
C697 C 0.51766 0.92837 1.0025 0.0
C698 C 0.51634 0.92726 0.90793 0.0
H699 H 0.5153 0.9051 0.12844 0.0
H700 H 0.51964 0.94932 0.03571 0.0
S701 S 0.50944 0.85866 0.77555 0.0
N702 N 0.50871 0.84726 0.88041 0.0
N703 N 0.51301 0.8947 0.77983 0.0
C704 C 0.51386 0.89908 0.86955 0.0
C705 C 0.51148 0.87314 0.92441 0.0
C706 C 0.61343 0.50841 0.07701 0.0
C707 C 0.64159 0.50078 0.04536 0.0
C708 C 0.58924 0.51173 0.01803 0.0
C709 C 0.59207 0.50751 0.92465 0.0
H710 H 0.60974 0.51054 0.14821 0.0
H711 H 0.56794 0.51658 0.04642 0.0
S712 S 0.66205 0.49052 0.80715 0.0
N713 N 0.67121 0.49144 0.91371 0.0
N714 N 0.62663 0.49774 0.8041 0.0
C715 C 0.62055 0.50127 0.89238 0.0
C716 C 0.64496 0.4979 0.95215 0.0
C717 C 0.02598 0.60433 0.07762 0.0
C718 C 0.01974 0.63322 0.04873 0.0
C719 C 0.02106 0.57964 0.02226 0.0
C720 C 1.01033 0.58261 0.9341 0.0
H721 H 0.03633 0.60091 0.1419 0.0
H722 H 0.02729 0.5582 0.04729 0.0
S723 S 0.98943 0.6535 0.82725 0.0
N724 N 1.00117 0.6631 0.92725 0.0
N725 N 0.99212 0.61737 0.82333 0.0
C726 C 1.00296 0.61138 0.90589 0.0
C727 C 1.00765 0.63639 0.96283 0.0
C728 C 0.87892 0.18968 0.53228 0.0
C729 C 0.85333 0.19219 0.48008 0.0
C730 C 0.88746 0.16267 0.56836 0.0
C731 C 0.87068 0.13729 0.5539 0.0
H732 H 0.89445 0.20763 0.53618 0.0
H733 H 0.90891 0.16114 0.59894 0.0
S734 S 0.79713 0.13441 0.45134 0.0
N735 N 0.80762 0.16884 0.43726 0.0
N736 N 0.82403 0.11768 0.50464 0.0
C737 C 0.84299 0.14042 0.51445 0.0
C738 C 0.83415 0.16803 0.47805 0.0
C739 C 0.41141 0.09385 0.49494 0.0
C740 C 0.38966 0.09939 0.43086 0.0
C741 C 0.43729 0.07937 0.47057 0.0
C742 C 0.44258 0.07118 0.38129 0.0
H743 H 0.40606 0.0953 0.56539 0.0
H744 H 0.45077 0.07051 0.52357 0.0
S745 S 0.39726 0.09091 0.18594 0.0
N746 N 0.37876 0.10361 0.27255 0.0
N747 N 0.42759 0.07641 0.22691 0.0
C748 C 0.42382 0.0821 0.31521 0.0
C749 C 0.39753 0.09698 0.34005 0.0
C750 C 0.69658 0.35798 0.45268 0.0
C751 C 0.68272 0.33203 0.48248 0.0
C752 C 0.68675 0.38556 0.48126 0.0
C753 C 0.66333 0.38798 0.54225 0.0
H754 H 0.71224 0.35716 0.39811 0.0
H755 H 0.69548 0.40502 0.44874 0.0
S756 S 0.62616 0.32663 0.66099 0.0
N757 N 0.64929 0.31053 0.59196 0.0
N758 N 0.63124 0.36218 0.64632 0.0
C759 C 0.65303 0.36224 0.58408 0.0
C760 C 0.66286 0.3342 0.55452 0.0
C761 C 0.16715 0.68058 0.45524 0.0
C762 C 0.17368 0.67238 0.36677 0.0
C763 C 0.13995 0.67362 0.49427 0.0
C764 C 0.11831 0.65852 0.44578 0.0
H765 H 0.18404 0.69006 0.4969 0.0
H766 H 0.1367 0.67795 0.56473 0.0
S767 S 0.12327 0.63448 0.20983 0.0
N768 N 0.15497 0.65041 0.23001 0.0
N769 N 0.10417 0.63799 0.30274 0.0
C770 C 0.12341 0.65301 0.35478 0.0
C771 C 0.15104 0.65981 0.31534 0.0
C772 C 0.15101 0.84254 0.9517 0.0
C773 C 0.17353 0.84099 1.016 0.0
C774 C 0.14269 0.86939 0.91404 0.0
C775 C 0.15661 0.89561 0.939 0.0
H776 H 0.13698 0.82385 0.93901 0.0
H777 H 0.12292 0.8699 0.87416 0.0
S778 S 0.22408 0.90169 0.07492 0.0
N779 N 0.2153 0.86651 0.08034 0.0
N780 N 0.19905 0.91732 1.01086 0.0
C781 C 0.18234 0.89362 0.99005 0.0
C782 C 0.19105 0.86615 0.02785 0.0
C783 C 0.65904 0.17828 0.08291 0.0
C784 C 0.68594 0.1637 0.06818 0.0
C785 C 0.63264 0.16709 0.04904 0.0
C786 C 0.6323 0.14163 0.9963 0.0
H787 H 0.65792 0.19674 0.12817 0.0
H788 H 0.6122 0.17724 0.0693 0.0
S789 S 0.69692 0.09946 0.91853 0.0
N790 N 0.71059 0.1253 0.98275 0.0
N791 N 0.66127 0.10525 0.91788 0.0
C792 C 0.65924 0.12946 0.97032 0.0
C793 C 0.68605 0.14043 1.00586 0.0
C794 C 0.37284 0.66867 0.91581 0.0
C795 C 0.35371 0.6728 0.98879 0.0
C796 C 0.38106 0.64043 0.8893 0.0
C797 C 0.3702 0.61552 0.93445 0.0
H798 H 0.38492 0.68702 0.88767 0.0
H799 H 0.39881 0.6384 0.84146 0.0
S800 S 0.31188 0.61466 0.10641 0.0
N801 N 0.31792 0.64987 0.08733 0.0
N802 N 0.33363 0.59659 0.03775 0.0
C803 C 0.34701 0.61936 0.99516 0.0
C804 C 0.3385 0.64813 0.02176 0.0
C805 C 0.83658 0.37193 0.94222 0.0
C806 C 0.83517 0.34815 1.00259 0.0
C807 C 0.86359 0.38239 0.91087 0.0
C808 C 0.88995 0.36913 0.93801 0.0
H809 H 0.81728 0.38509 0.92898 0.0
H810 H 0.86387 0.40291 0.87394 0.0
S811 S 0.89692 0.30011 0.0673 0.0
N812 N 0.86143 0.30727 0.06903 0.0
N813 N 0.91237 0.32648 1.00756 0.0
C814 C 0.88834 0.34242 0.9851 0.0
C815 C 0.86083 0.33192 0.01769 0.0
C816 C 0.01953 0.12947 0.99173 0.0
C817 C 1.00234 0.15255 0.95704 0.0
C818 C 0.022 0.10216 0.94718 0.0
C819 C 1.00769 0.09657 0.86504 0.0
H820 H 0.03012 0.13205 0.05591 0.0
H821 H 0.03487 0.08504 0.97862 0.0
S822 S 0.96139 0.15058 0.74293 0.0
N823 N 0.9717 0.1683 0.83357 0.0
N824 N 0.97668 0.11779 0.74961 0.0
C825 C 0.99136 0.12001 0.82816 0.0
C826 C 0.98859 0.14762 0.87407 0.0
C827 C 0.38615 0.97097 0.93293 0.0
C828 C 0.37098 0.99524 0.96888 0.0
C829 C 0.41268 0.9743 0.88467 0.0
C830 C 0.426 1.00202 0.87175 0.0
H831 H 0.37782 0.94899 0.94448 0.0
H832 H 0.42346 0.95472 0.86032 0.0
S833 S 0.39477 0.07294 0.94808 0.0
N834 N 0.37088 0.04825 0.9841 0.0
N835 N 0.42077 0.05447 0.89573 0.0
C836 C 0.41072 0.02657 0.90545 0.0
C837 C 0.38332 0.0232 0.9531 0.0
C838 C 0.51834 0.38393 0.98814 0.0
C839 C 0.5294 0.35985 0.93985 0.0
C840 C 0.51345 0.41158 0.94676 0.0
C841 C 0.51942 0.41662 0.85495 0.0
H842 H 0.51513 0.38195 0.05963 0.0
H843 H 0.50594 0.42948 0.98835 0.0
S844 S 0.54624 0.35984 0.69672 0.0
N845 N 0.54416 0.34239 0.79351 0.0
N846 N 0.53519 0.39371 0.71634 0.0
C847 C 0.52905 0.39216 0.80515 0.0
C848 C 0.53395 0.36409 0.84728 0.0
C849 C 0.15197 0.52585 0.87164 0.0
C850 C 0.15777 0.51221 0.95501 0.0
C851 C 0.1243 0.52392 0.82934 0.0
C852 C 0.10076 0.50801 0.86738 0.0
H853 H 0.1689 0.53875 0.83914 0.0
H854 H 0.12131 0.53538 0.76642 0.0
S855 S 0.10374 0.46809 0.08495 0.0
N856 N 0.13689 0.48222 0.07385 0.0
N857 N 0.0856 0.47797 0.99436 0.0
C858 C 0.10643 0.49358 0.94963 0.0
C859 C 0.1346 0.49575 0.99307 0.0
C860 C 0.99562 0.88665 0.52199 0.0
C861 C 0.01693 0.86598 0.54868 0.0
C862 C 0.9921 0.91383 0.56689 0.0
C863 C 1.00968 0.92179 0.64092 0.0
H864 H 0.98249 0.88243 0.46324 0.0
H865 H 0.97601 0.92914 0.5412 0.0
S866 S 0.06663 0.87397 0.74355 0.0
N867 N 0.05425 0.85454 0.6588 0.0
N868 N 0.04783 0.90491 0.7422 0.0
C869 C 0.03011 0.90059 0.6706 0.0
C870 C 0.03366 0.87303 0.62497 0.0
C871 C 0.63384 0.99465 0.5274 0.0
C872 C 0.65717 1.00978 0.56787 0.0
C873 C 0.60613 0.99217 0.56949 0.0
C874 C 0.60039 1.00451 0.65447 0.0
H875 H 0.63653 0.98601 0.46057 0.0
H876 H 0.58877 0.98114 0.53354 0.0
S877 S 0.65488 0.0447 0.79129 0.0
N878 N 0.6731 0.03614 0.69955 0.0
N879 N 0.62156 0.03119 0.77886 0.0
C880 C 0.62403 0.01856 0.69716 0.0
C881 C 0.65214 0.02129 0.65389 0.0
C882 C 0.51989 0.62742 0.51475 0.0
C883 C 0.50383 0.64974 0.55766 0.0
C884 C 0.52514 0.59992 0.55671 0.0
C885 C 0.51431 0.59326 0.64334 0.0
H886 H 0.52684 0.63048 0.44606 0.0
H887 H 0.53654 0.58324 0.51885 0.0
S888 S 0.47407 0.64551 0.78903 0.0
N889 N 0.47984 0.6642 0.69576 0.0
N890 N 0.48905 0.61296 0.77313 0.0
C891 C 0.49971 0.61608 0.6887 0.0
C892 C 0.49471 0.64408 0.64648 0.0
C893 C 0.89227 0.50747 0.51759 0.0
C894 C 0.8692 0.49409 0.56575 0.0
C895 C 0.91989 0.51308 0.55746 0.0
C896 C 0.92591 0.50562 0.64763 0.0
H897 H 0.88958 0.51203 0.44702 0.0
H898 H 0.93704 0.52242 0.51587 0.0
S899 S 0.87205 0.47209 0.80508 0.0
N900 N 0.85379 0.4752 0.7104 0.0
N901 N 0.90501 0.4856 0.7848 0.0
C902 C 0.90243 0.49355 0.69753 0.0
C903 C 0.87441 0.48785 0.65689 0.0
loop_
_geom_bond_atom_site_label_1
_geom_bond_atom_site_label_2
_geom_bond_distance
_geom_bond_site_symmetry_2
_ccdc_geom_bond_type
C0 C1 1.391 . S
C0 C4 1.391 . S
C0 H42 0.948 . S
C1 C0 1.391 . S
C1 C2 1.391 . S
C2 C1 1.391 . S
C2 H58 0.947 . S
C2 C59 1.392 . S
C3 C4 1.391 . S
C3 C7 1.397 . S
C3 C59 1.419 . S
C4 C0 1.391 . S
C4 C3 1.391 . S
C4 C5 1.399 . S
C5 C4 1.399 . S
C5 C8 1.396 . S
C5 C17 1.453 . S
C5 C18 1.684 . S
H6 C30 0.948 . S
C7 C3 1.397 . S
C7 C8 1.394 . S
C7 C26 1.723 . S
C8 C5 1.396 . S
C8 C7 1.394 . S
C8 C38 1.723 . S
H9 C32 0.947 . S
H10 C33 0.948 . S
H11 C39 0.982 . S
H12 C40 0.979 . S
H13 C40 0.980 . S
H14 C40 0.983 . S
H15 C39 0.979 . S
H16 C39 0.977 . S
C17 C5 1.453 . S
C17 H46 0.982 . S
C17 H47 0.979 . S
C17 H48 0.977 . S
C18 C5 1.684 . S
C18 H43 0.979 . S
C18 H44 0.980 . S
C18 H45 0.983 . S
C19 C20 1.391 . S
C19 C24 1.391 . S
C19 H49 0.948 . S
C20 C19 1.391 . S
C20 C21 1.391 . S
C21 C20 1.391 . S
C21 C22 1.392 . S
C21 H50 0.947 . S
C22 C21 1.392 . S
C22 C23 1.419 . S
C22 H51 0.948 . S
C23 C22 1.419 . S
C23 C24 1.391 . S
C23 C27 1.397 . S
C24 C19 1.391 . S
C24 C23 1.391 . S
C24 C25 1.399 . S
C25 C24 1.399 . S
C25 C26 1.396 . S
C25 C28 1.453 . S
C25 C29 1.684 . S
C26 C7 1.723 . S
C26 C25 1.396 . S
C26 C27 1.394 . S
C27 C23 1.397 . S
C27 C26 1.394 . S
C27 C37 1.723 . S
C28 C25 1.453 . S
C28 H52 0.982 . S
C28 H53 0.979 . S
C28 H54 0.977 . S
C29 C25 1.684 . S
C29 H55 0.979 . S
C29 H56 0.980 . S
C29 H57 0.983 . S
C30 H6 0.948 . S
C30 C31 1.391 . S
C30 C35 1.391 . S
C31 C30 1.391 . S
C31 C32 1.391 . S
C32 H9 0.947 . S
C32 C31 1.391 . S
C32 C33 1.392 . S
C33 H10 0.948 . S
C33 C32 1.392 . S
C33 C34 1.419 . S
C34 C33 1.419 . S
C34 C35 1.391 . S
C34 C38 1.397 . S
C35 C30 1.391 . S
C35 C34 1.391 . S
C35 C36 1.399 . S
C36 C35 1.399 . S
C36 C37 1.396 . S
C36 C39 1.453 . S
C36 C40 1.684 . S
C37 C27 1.723 . S
C37 C36 1.396 . S
C37 C38 1.394 . S
C38 C8 1.723 . S
C38 C34 1.397 . S
C38 C37 1.394 . S
C39 H11 0.982 . S
C39 H15 0.979 . S
C39 H16 0.977 . S
C39 C36 1.453 . S
C40 H12 0.979 . S
C40 H13 0.980 . S
C40 H14 0.983 . S
C40 C36 1.684 . S
H41 C59 0.948 . S
H42 C0 0.948 . S
H43 C18 0.979 . S
H44 C18 0.980 . S
H45 C18 0.983 . S
H46 C17 0.982 . S
H47 C17 0.979 . S
H48 C17 0.977 . S
H49 C19 0.948 . S
H50 C21 0.947 . S
H51 C22 0.948 . S
H52 C28 0.982 . S
H53 C28 0.979 . S
H54 C28 0.977 . S
H55 C29 0.979 . S
H56 C29 0.980 . S
H57 C29 0.983 . S
H58 C2 0.947 . S
C59 C2 1.392 . S
C59 C3 1.419 . S
C59 H41 0.948 . S
C60 C61 1.391 . S
C60 C64 1.391 . S
C60 H102 0.948 . S
C61 C60 1.391 . S
C61 C62 1.391 . S
C62 C61 1.391 . S
C62 H118 0.947 . S
C62 C119 1.392 . S
C63 C64 1.391 . S
C63 C67 1.397 1_655 S
C63 C119 1.419 . S
C64 C60 1.391 . S
C64 C63 1.391 . S
C64 C65 1.399 . S
C65 C64 1.399 . S
C65 C68 1.396 1_655 S
C65 C77 1.453 1_655 S
C65 C78 1.684 . S
H66 C90 0.948 . S
C67 C63 1.397 1_455 S
C67 C68 1.394 . S
C67 C86 1.723 . S
C68 C65 1.396 1_455 S
C68 C67 1.394 . S
C68 C98 1.723 . S
H69 C92 0.947 . S
H70 C93 0.948 . S
H71 C99 0.982 . S
H72 C100 0.979 . S
H73 C100 0.980 . S
H74 C100 0.983 . S
H75 C99 0.979 . S
H76 C99 0.977 . S
C77 C65 1.453 1_455 S
C77 H106 0.982 . S
C77 H107 0.979 . S
C77 H108 0.977 . S
C78 C65 1.684 . S
C78 H103 0.979 . S
C78 H104 0.980 . S
C78 H105 0.983 . S
C79 C80 1.391 . S
C79 C84 1.391 . S
C79 H109 0.948 . S
C80 C79 1.391 . S
C80 C81 1.391 . S
C81 C80 1.391 . S
C81 C82 1.392 . S
C81 H110 0.947 . S
C82 C81 1.392 . S
C82 C83 1.419 . S
C82 H111 0.948 . S
C83 C82 1.419 . S
C83 C84 1.391 . S
C83 C87 1.397 1_655 S
C84 C79 1.391 . S
C84 C83 1.391 . S
C84 C85 1.399 . S
C85 C84 1.399 . S
C85 C86 1.396 1_655 S
C85 C88 1.453 1_655 S
C85 C89 1.684 . S
C86 C67 1.723 . S
C86 C85 1.396 1_455 S
C86 C87 1.394 . S
C87 C83 1.397 1_455 S
C87 C86 1.394 . S
C87 C97 1.723 . S
C88 C85 1.453 1_455 S
C88 H112 0.982 . S
C88 H113 0.979 . S
C88 H114 0.977 . S
C89 C85 1.684 . S
C89 H115 0.979 . S
C89 H116 0.980 . S
C89 H117 0.983 . S
C90 H66 0.948 . S
C90 C91 1.391 . S
C90 C95 1.391 . S
C91 C90 1.391 . S
C91 C92 1.391 . S
C92 H69 0.947 . S
C92 C91 1.391 . S
C92 C93 1.392 . S
C93 H70 0.948 . S
C93 C92 1.392 . S
C93 C94 1.419 . S
C94 C93 1.419 . S
C94 C95 1.391 . S
C94 C98 1.397 1_655 S
C95 C90 1.391 . S
C95 C94 1.391 . S
C95 C96 1.399 . S
C96 C95 1.399 . S
C96 C97 1.396 1_655 S
C96 C99 1.453 1_655 S
C96 C100 1.684 . S
C97 C87 1.723 . S
C97 C96 1.396 1_455 S
C97 C98 1.394 . S
C98 C68 1.723 . S
C98 C94 1.397 1_455 S
C98 C97 1.394 . S
C99 H71 0.982 . S
C99 H75 0.979 . S
C99 H76 0.977 . S
C99 C96 1.453 1_455 S
C100 H72 0.979 . S
C100 H73 0.980 . S
C100 H74 0.983 . S
C100 C96 1.684 . S
H101 C119 0.948 . S
H102 C60 0.948 . S
H103 C78 0.979 . S
H104 C78 0.980 . S
H105 C78 0.983 . S
H106 C77 0.982 . S
H107 C77 0.979 . S
H108 C77 0.977 . S
H109 C79 0.948 . S
H110 C81 0.947 . S
H111 C82 0.948 . S
H112 C88 0.982 . S
H113 C88 0.979 . S
H114 C88 0.977 . S
H115 C89 0.979 . S
H116 C89 0.980 . S
H117 C89 0.983 . S
H118 C62 0.947 . S
C119 C62 1.392 . S
C119 C63 1.419 . S
C119 H101 0.948 . S
C120 C121 1.391 . S
C120 C124 1.391 . S
C120 H162 0.948 . S
C121 C120 1.391 . S
C121 C122 1.391 . S
C122 C121 1.391 . S
C122 H178 0.947 . S
C122 C179 1.392 . S
C123 C124 1.391 . S
C123 C127 1.397 1_565 S
C123 C179 1.419 . S
C124 C120 1.391 . S
C124 C123 1.391 . S
C124 C125 1.399 . S
C125 C124 1.399 . S
C125 C128 1.396 1_565 S
C125 C137 1.453 1_565 S
C125 C138 1.684 . S
H126 C150 0.948 . S
C127 C123 1.397 1_545 S
C127 C128 1.394 . S
C127 C146 1.723 . S
C128 C125 1.396 1_545 S
C128 C127 1.394 . S
C128 C158 1.723 . S
H129 C152 0.947 . S
H130 C153 0.948 . S
H131 C159 0.982 . S
H132 C160 0.979 . S
H133 C160 0.980 . S
H134 C160 0.983 . S
H135 C159 0.979 . S
H136 C159 0.977 . S
C137 C125 1.453 1_545 S
C137 H166 0.982 . S
C137 H167 0.979 . S
C137 H168 0.977 . S
C138 C125 1.684 . S
C138 H163 0.979 . S
C138 H164 0.980 . S
C138 H165 0.983 . S
C139 C140 1.391 . S
C139 C144 1.391 . S
C139 H169 0.948 . S
C140 C139 1.391 . S
C140 C141 1.391 . S
C141 C140 1.391 . S
C141 C142 1.392 . S
C141 H170 0.947 . S
C142 C141 1.392 . S
C142 C143 1.419 . S
C142 H171 0.948 . S
C143 C142 1.419 . S
C143 C144 1.391 . S
C143 C147 1.397 1_565 S
C144 C139 1.391 . S
C144 C143 1.391 . S
C144 C145 1.399 . S
C145 C144 1.399 . S
C145 C146 1.396 1_565 S
C145 C148 1.453 1_565 S
C145 C149 1.684 . S
C146 C127 1.723 . S
C146 C145 1.396 1_545 S
C146 C147 1.394 . S
C147 C143 1.397 1_545 S
C147 C146 1.394 . S
C147 C157 1.723 . S
C148 C145 1.453 1_545 S
C148 H172 0.982 . S
C148 H173 0.979 . S
C148 H174 0.977 . S
C149 C145 1.684 . S
C149 H175 0.979 . S
C149 H176 0.980 . S
C149 H177 0.983 . S
C150 H126 0.948 . S
C150 C151 1.391 . S
C150 C155 1.391 . S
C151 C150 1.391 . S
C151 C152 1.391 . S
C152 H129 0.947 . S
C152 C151 1.391 . S
C152 C153 1.392 . S
C153 H130 0.948 . S
C153 C152 1.392 . S
C153 C154 1.419 . S
C154 C153 1.419 . S
C154 C155 1.391 . S
C154 C158 1.397 1_565 S
C155 C150 1.391 . S
C155 C154 1.391 . S
C155 C156 1.399 . S
C156 C155 1.399 . S
C156 C157 1.396 1_565 S
C156 C159 1.453 1_565 S
C156 C160 1.684 . S
C157 C147 1.723 . S
C157 C156 1.396 1_545 S
C157 C158 1.394 . S
C158 C128 1.723 . S
C158 C154 1.397 1_545 S
C158 C157 1.394 . S
C159 H131 0.982 . S
C159 H135 0.979 . S
C159 H136 0.977 . S
C159 C156 1.453 1_545 S
C160 H132 0.979 . S
C160 H133 0.980 . S
C160 H134 0.983 . S
C160 C156 1.684 . S
H161 C179 0.948 . S
H162 C120 0.948 . S
H163 C138 0.979 . S
H164 C138 0.980 . S
H165 C138 0.983 . S
H166 C137 0.982 . S
H167 C137 0.979 . S
H168 C137 0.977 . S
H169 C139 0.948 . S
H170 C141 0.947 . S
H171 C142 0.948 . S
H172 C148 0.982 . S
H173 C148 0.979 . S
H174 C148 0.977 . S
H175 C149 0.979 . S
H176 C149 0.980 . S
H177 C149 0.983 . S
H178 C122 0.947 . S
C179 C122 1.392 . S
C179 C123 1.419 . S
C179 H161 0.948 . S
C180 C181 1.391 . S
C180 C184 1.391 . S
C180 H222 0.948 . S
C181 C180 1.391 . S
C181 C182 1.391 . S
C182 C181 1.391 . S
C182 H238 0.947 . S
C182 C239 1.392 . S
C183 C184 1.391 . S
C183 C187 1.397 . S
C183 C239 1.419 . S
C184 C180 1.391 . S
C184 C183 1.391 . S
C184 C185 1.399 . S
C185 C184 1.399 . S
C185 C188 1.396 . S
C185 C197 1.453 . S
C185 C198 1.684 . S
H186 C210 0.948 . S
C187 C183 1.397 . S
C187 C188 1.394 . S
C187 C206 1.723 . S
C188 C185 1.396 . S
C188 C187 1.394 . S
C188 C218 1.723 . S
H189 C212 0.947 . S
H190 C213 0.948 . S
H191 C219 0.982 . S
H192 C220 0.979 . S
H193 C220 0.980 . S
H194 C220 0.983 . S
H195 C219 0.979 . S
H196 C219 0.977 . S
C197 C185 1.453 . S
C197 H226 0.982 . S
C197 H227 0.979 . S
C197 H228 0.977 . S
C198 C185 1.684 . S
C198 H223 0.979 . S
C198 H224 0.980 . S
C198 H225 0.983 . S
C199 C200 1.391 . S
C199 C204 1.391 . S
C199 H229 0.948 . S
C200 C199 1.391 . S
C200 C201 1.391 . S
C201 C200 1.391 . S
C201 C202 1.392 . S
C201 H230 0.947 . S
C202 C201 1.392 . S
C202 C203 1.419 . S
C202 H231 0.948 . S
C203 C202 1.419 . S
C203 C204 1.391 . S
C203 C207 1.397 . S
C204 C199 1.391 . S
C204 C203 1.391 . S
C204 C205 1.399 . S
C205 C204 1.399 . S
C205 C206 1.396 . S
C205 C208 1.453 . S
C205 C209 1.684 . S
C206 C187 1.723 . S
C206 C205 1.396 . S
C206 C207 1.394 . S
C207 C203 1.397 . S
C207 C206 1.394 . S
C207 C217 1.723 . S
C208 C205 1.453 . S
C208 H232 0.982 . S
C208 H233 0.979 . S
C208 H234 0.977 . S
C209 C205 1.684 . S
C209 H235 0.979 . S
C209 H236 0.980 . S
C209 H237 0.983 . S
C210 H186 0.948 . S
C210 C211 1.391 . S
C210 C215 1.391 . S
C211 C210 1.391 . S
C211 C212 1.391 . S
C212 H189 0.947 . S
C212 C211 1.391 . S
C212 C213 1.392 . S
C213 H190 0.948 . S
C213 C212 1.392 . S
C213 C214 1.419 . S
C214 C213 1.419 . S
C214 C215 1.391 . S
C214 C218 1.397 . S
C215 C210 1.391 . S
C215 C214 1.391 . S
C215 C216 1.399 . S
C216 C215 1.399 . S
C216 C217 1.396 . S
C216 C219 1.453 . S
C216 C220 1.684 . S
C217 C207 1.723 . S
C217 C216 1.396 . S
C217 C218 1.394 . S
C218 C188 1.723 . S
C218 C214 1.397 . S
C218 C217 1.394 . S
C219 H191 0.982 . S
C219 H195 0.979 . S
C219 H196 0.977 . S
C219 C216 1.453 . S
C220 H192 0.979 . S
C220 H193 0.980 . S
C220 H194 0.983 . S
C220 C216 1.684 . S
H221 C239 0.948 . S
H222 C180 0.948 . S
H223 C198 0.979 . S
H224 C198 0.980 . S
H225 C198 0.983 . S
H226 C197 0.982 . S
H227 C197 0.979 . S
H228 C197 0.977 . S
H229 C199 0.948 . S
H230 C201 0.947 . S
H231 C202 0.948 . S
H232 C208 0.982 . S
H233 C208 0.979 . S
H234 C208 0.977 . S
H235 C209 0.979 . S
H236 C209 0.980 . S
H237 C209 0.983 . S
H238 C182 0.947 . S
C239 C182 1.392 . S
C239 C183 1.419 . S
C239 H221 0.948 . S
C240 C241 1.391 . S
C240 C244 1.391 . S
C240 H282 0.948 . S
C241 C240 1.391 . S
C241 C242 1.391 . S
C242 C241 1.391 . S
C242 H298 0.947 . S
C242 C299 1.392 . S
C243 C244 1.391 . S
C243 C247 1.397 . S
C243 C299 1.419 . S
C244 C240 1.391 . S
C244 C243 1.391 . S
C244 C245 1.399 1_554 S
C245 C244 1.399 1_556 S
C245 C248 1.396 . S
C245 C257 1.453 . S
C245 C258 1.684 . S
H246 C270 0.948 . S
C247 C243 1.397 . S
C247 C248 1.394 1_554 S
C247 C266 1.723 . S
C248 C245 1.396 . S
C248 C247 1.394 1_556 S
C248 C278 1.723 . S
H249 C272 0.947 . S
H250 C273 0.948 . S
H251 C279 0.982 . S
H252 C280 0.979 . S
H253 C280 0.980 1_554 S
H254 C280 0.983 . S
H255 C279 0.979 . S
H256 C279 0.977 1_554 S
C257 C245 1.453 . S
C257 H286 0.982 . S
C257 H287 0.979 . S
C257 H288 0.977 . S
C258 C245 1.684 . S
C258 H283 0.979 . S
C258 H284 0.980 . S
C258 H285 0.983 . S
C259 C260 1.391 . S
C259 C264 1.391 . S
C259 H289 0.948 . S
C260 C259 1.391 . S
C260 C261 1.391 . S
C261 C260 1.391 . S
C261 C262 1.392 . S
C261 H290 0.947 . S
C262 C261 1.392 . S
C262 C263 1.419 . S
C262 H291 0.948 . S
C263 C262 1.419 . S
C263 C264 1.391 . S
C263 C267 1.397 . S
C264 C259 1.391 . S
C264 C263 1.391 . S
C264 C265 1.399 . S
C265 C264 1.399 . S
C265 C266 1.396 . S
C265 C268 1.453 . S
C265 C269 1.684 . S
C266 C247 1.723 . S
C266 C265 1.396 . S
C266 C267 1.394 . S
C267 C263 1.397 . S
C267 C266 1.394 . S
C267 C277 1.714 1_554 S
C268 C265 1.453 . S
C268 H292 0.982 . S
C268 H293 0.979 . S
C268 H294 0.977 . S
C269 C265 1.684 . S
C269 H295 0.979 . S
C269 H296 0.980 . S
C269 H297 0.983 . S
C270 H246 0.948 . S
C270 C271 1.391 . S
C270 C275 1.391 . S
C271 C270 1.391 . S
C271 C272 1.391 . S
C272 H249 0.947 . S
C272 C271 1.391 . S
C272 C273 1.392 . S
C273 H250 0.948 . S
C273 C272 1.392 . S
C273 C274 1.419 . S
C274 C273 1.419 . S
C274 C275 1.391 . S
C274 C278 1.397 . S
C275 C270 1.391 . S
C275 C274 1.391 . S
C275 C276 1.399 . S
C276 C275 1.399 . S
C276 C277 1.402 . S
C276 C279 1.453 . S
C276 C280 1.684 . S
C277 C267 1.714 1_556 S
C277 C276 1.402 . S
C277 C278 1.398 . S
C278 C248 1.723 . S
C278 C274 1.397 . S
C278 C277 1.398 . S
C279 H251 0.982 . S
C279 H255 0.979 . S
C279 H256 0.977 1_556 S
C279 C276 1.453 . S
C280 H252 0.979 . S
C280 H253 0.980 1_556 S
C280 H254 0.983 . S
C280 C276 1.684 . S
H281 C299 0.948 . S
H282 C240 0.948 . S
H283 C258 0.979 . S
H284 C258 0.980 . S
H285 C258 0.983 . S
H286 C257 0.982 . S
H287 C257 0.979 . S
H288 C257 0.977 . S
H289 C259 0.948 . S
H290 C261 0.947 . S
H291 C262 0.948 . S
H292 C268 0.982 . S
H293 C268 0.979 . S
H294 C268 0.977 . S
H295 C269 0.979 . S
H296 C269 0.980 . S
H297 C269 0.983 . S
H298 C242 0.947 . S
C299 C242 1.392 . S
C299 C243 1.419 . S
C299 H281 0.948 . S
C300 C301 1.391 . S
C300 C304 1.391 . S
C300 H342 0.948 . S
C301 C300 1.391 . S
C301 C302 1.391 . S
C302 C301 1.391 . S
C302 H358 0.947 . S
C302 C359 1.392 . S
C303 C304 1.391 . S
C303 C307 1.396 1_655 S
C303 C359 1.419 . S
C304 C300 1.391 . S
C304 C303 1.391 . S
C304 C305 1.399 . S
C305 C304 1.399 . S
C305 C308 1.396 1_655 S
C305 C317 1.453 1_655 S
C305 C318 1.684 . S
H306 C330 0.948 . S
C307 C303 1.396 1_455 S
C307 C308 1.395 . S
C307 C326 1.723 . S
C308 C305 1.396 1_455 S
C308 C307 1.395 . S
C308 C338 1.723 . S
H309 C332 0.947 . S
H310 C333 0.948 . S
H311 C339 0.982 . S
H312 C340 0.979 . S
H313 C340 0.980 . S
H314 C340 0.983 . S
H315 C339 0.979 . S
H316 C339 0.977 . S
C317 C305 1.453 1_455 S
C317 H346 0.982 . S
C317 H347 0.979 . S
C317 H348 0.977 . S
C318 C305 1.684 . S
C318 H343 0.979 . S
C318 H344 0.980 . S
C318 H345 0.983 . S
C319 C320 1.391 . S
C319 C324 1.391 . S
C319 H349 0.948 . S
C320 C319 1.391 . S
C320 C321 1.391 . S
C321 C320 1.391 . S
C321 C322 1.392 . S
C321 H350 0.947 . S
C322 C321 1.392 . S
C322 C323 1.419 . S
C322 H351 0.948 . S
C323 C322 1.419 . S
C323 C324 1.391 . S
C323 C327 1.396 1_655 S
C324 C319 1.391 . S
C324 C323 1.391 . S
C324 C325 1.399 . S
C325 C324 1.399 . S
C325 C326 1.396 1_656 S
C325 C328 1.453 1_655 S
C325 C329 1.684 . S
C326 C307 1.723 . S
C326 C325 1.396 1_454 S
C326 C327 1.395 1_554 S
C327 C323 1.396 1_455 S
C327 C326 1.395 1_556 S
C327 C337 1.723 1_556 S
C328 C325 1.453 1_455 S
C328 H352 0.982 . S
C328 H353 0.979 . S
C328 H354 0.977 1_556 S
C329 C325 1.684 . S
C329 H355 0.979 . S
C329 H356 0.980 1_556 S
C329 H357 0.983 . S
C330 H306 0.948 . S
C330 C331 1.391 . S
C330 C335 1.391 . S
C331 C330 1.391 . S
C331 C332 1.391 . S
C332 H309 0.947 . S
C332 C331 1.391 . S
C332 C333 1.392 . S
C333 H310 0.948 . S
C333 C332 1.392 . S
C333 C334 1.419 . S
C334 C333 1.419 . S
C334 C335 1.391 . S
C334 C338 1.396 1_655 S
C335 C330 1.391 . S
C335 C334 1.391 . S
C335 C336 1.399 1_554 S
C336 C335 1.399 1_556 S
C336 C337 1.396 1_656 S
C336 C339 1.453 1_655 S
C336 C340 1.684 . S
C337 C327 1.723 1_554 S
C337 C336 1.396 1_454 S
C337 C338 1.395 . S
C338 C308 1.723 . S
C338 C334 1.396 1_455 S
C338 C337 1.395 . S
C339 H311 0.982 . S
C339 H315 0.979 . S
C339 H316 0.977 . S
C339 C336 1.453 1_455 S
C340 H312 0.979 . S
C340 H313 0.980 . S
C340 H314 0.983 . S
C340 C336 1.684 . S
H341 C359 0.948 . S
H342 C300 0.948 . S
H343 C318 0.979 . S
H344 C318 0.980 . S
H345 C318 0.983 . S
H346 C317 0.982 . S
H347 C317 0.979 . S
H348 C317 0.977 . S
H349 C319 0.948 . S
H350 C321 0.947 . S
H351 C322 0.948 . S
H352 C328 0.982 . S
H353 C328 0.979 . S
H354 C328 0.977 1_554 S
H355 C329 0.979 . S
H356 C329 0.980 1_554 S
H357 C329 0.983 . S
H358 C302 0.947 . S
C359 C302 1.392 . S
C359 C303 1.419 . S
C359 H341 0.948 . S
C360 C361 1.391 . S
C360 C364 1.391 . S
C360 H402 0.948 . S
C361 C360 1.391 . S
C361 C362 1.391 . S
C362 C361 1.391 . S
C362 H418 0.947 . S
C362 C419 1.392 . S
C363 C364 1.391 . S
C363 C367 1.397 1_545 S
C363 C419 1.419 . S
C364 C360 1.391 . S
C364 C363 1.391 . S
C364 C365 1.399 . S
C365 C364 1.399 . S
C365 C368 1.396 1_545 S
C365 C377 1.453 1_545 S
C365 C378 1.684 . S
H366 C390 0.948 . S
C367 C363 1.397 1_565 S
C367 C368 1.394 . S
C367 C386 1.723 1_556 S
C368 C365 1.396 1_565 S
C368 C367 1.394 . S
C368 C398 1.723 1_556 S
H369 C392 0.947 1_556 S
H370 C393 0.948 1_556 S
H371 C399 0.982 . S
H372 C400 0.979 . S
H373 C400 0.980 . S
H374 C400 0.983 . S
H375 C399 0.979 . S
H376 C399 0.977 . S
C377 C365 1.453 1_565 S
C377 H406 0.982 . S
C377 H407 0.979 . S
C377 H408 0.977 . S
C378 C365 1.684 . S
C378 H403 0.979 . S
C378 H404 0.980 . S
C378 H405 0.983 . S
C379 C380 1.391 . S
C379 C384 1.391 . S
C379 H409 0.948 . S
C380 C379 1.391 . S
C380 C381 1.391 . S
C381 C380 1.391 . S
C381 C382 1.392 . S
C381 H410 0.947 . S
C382 C381 1.392 . S
C382 C383 1.419 . S
C382 H411 0.948 . S
C383 C382 1.419 . S
C383 C384 1.391 . S
C383 C387 1.397 1_545 S
C384 C379 1.391 . S
C384 C383 1.391 . S
C384 C385 1.399 . S
C385 C384 1.399 . S
C385 C386 1.396 1_545 S
C385 C388 1.453 1_545 S
C385 C389 1.684 . S
C386 C367 1.723 1_554 S
C386 C385 1.396 1_565 S
C386 C387 1.394 . S
C387 C383 1.397 1_565 S
C387 C386 1.394 . S
C387 C397 1.723 . S
C388 C385 1.453 1_565 S
C388 H412 0.982 . S
C388 H413 0.979 . S
C388 H414 0.977 1_554 S
C389 C385 1.684 . S
C389 H415 0.979 . S
C389 H416 0.980 1_554 S
C389 H417 0.983 . S
C390 H366 0.948 . S
C390 C391 1.391 . S
C390 C395 1.391 . S
C391 C390 1.391 . S
C391 C392 1.391 . S
C392 H369 0.947 1_554 S
C392 C391 1.391 . S
C392 C393 1.392 . S
C393 H370 0.948 1_554 S
C393 C392 1.392 . S
C393 C394 1.419 . S
C394 C393 1.419 . S
C394 C395 1.391 . S
C394 C398 1.397 1_545 S
C395 C390 1.391 . S
C395 C394 1.391 . S
C395 C396 1.399 . S
C396 C395 1.399 . S
C396 C397 1.396 1_545 S
C396 C399 1.453 1_545 S
C396 C400 1.684 . S
C397 C387 1.723 . S
C397 C396 1.396 1_565 S
C397 C398 1.394 . S
C398 C368 1.723 1_554 S
C398 C394 1.397 1_565 S
C398 C397 1.394 . S
C399 H371 0.982 . S
C399 H375 0.979 . S
C399 H376 0.977 . S
C399 C396 1.453 1_565 S
C400 H372 0.979 . S
C400 H373 0.980 . S
C400 H374 0.983 . S
C400 C396 1.684 . S
H401 C419 0.948 . S
H402 C360 0.948 . S
H403 C378 0.979 . S
H404 C378 0.980 . S
H405 C378 0.983 . S
H406 C377 0.982 . S
H407 C377 0.979 . S
H408 C377 0.977 . S
H409 C379 0.948 . S
H410 C381 0.947 . S
H411 C382 0.948 . S
H412 C388 0.982 . S
H413 C388 0.979 . S
H414 C388 0.977 1_556 S
H415 C389 0.979 . S
H416 C389 0.980 1_556 S
H417 C389 0.983 . S
H418 C362 0.947 . S
C419 C362 1.392 . S
C419 C363 1.419 . S
C419 H401 0.948 . S
C420 C421 1.391 . S
C420 C424 1.391 . S
C420 H462 0.948 . S
C421 C420 1.391 . S
C421 C422 1.391 . S
C422 C421 1.391 . S
C422 H478 0.947 . S
C422 C479 1.392 . S
C423 C424 1.391 . S
C423 C427 1.397 . S
C423 C479 1.419 . S
C424 C420 1.391 . S
C424 C423 1.391 . S
C424 C425 1.399 . S
C425 C424 1.399 . S
C425 C428 1.396 . S
C425 C437 1.453 . S
C425 C438 1.684 . S
H426 C450 0.948 . S
C427 C423 1.397 . S
C427 C428 1.394 . S
C427 C446 1.723 1_556 S
C428 C425 1.396 . S
C428 C427 1.394 . S
C428 C458 1.723 1_556 S
H429 C452 0.947 1_556 S
H430 C453 0.940 1_556 S
H431 C459 0.982 . S
H432 C460 0.979 . S
H433 C460 0.980 . S
H434 C460 0.983 . S
H435 C459 0.979 . S
H436 C459 0.977 . S
C437 C425 1.453 . S
C437 H466 0.982 . S
C437 H467 0.979 . S
C437 H468 0.977 . S
C438 C425 1.684 . S
C438 H463 0.979 . S
C438 H464 0.980 . S
C438 H465 0.983 . S
C439 C440 1.391 . S
C439 C444 1.391 . S
C439 H469 0.948 . S
C440 C439 1.391 . S
C440 C441 1.391 . S
C441 C440 1.391 . S
C441 C442 1.392 . S
C441 H470 0.947 . S
C442 C441 1.392 . S
C442 C443 1.419 . S
C442 H471 0.948 . S
C443 C442 1.419 . S
C443 C444 1.391 . S
C443 C447 1.397 . S
C444 C439 1.391 . S
C444 C443 1.391 . S
C444 C445 1.399 . S
C445 C444 1.399 . S
C445 C446 1.396 . S
C445 C448 1.453 . S
C445 C449 1.684 . S
C446 C427 1.723 1_554 S
C446 C445 1.396 . S
C446 C447 1.394 . S
C447 C443 1.397 . S
C447 C446 1.394 . S
C447 C457 1.723 . S
C448 C445 1.453 . S
C448 H472 0.982 . S
C448 H473 0.979 . S
C448 H474 0.977 1_554 S
C449 C445 1.684 . S
C449 H475 0.979 . S
C449 H476 0.980 1_554 S
C449 H477 0.983 . S
C450 H426 0.948 . S
C450 C451 1.391 . S
C450 C455 1.391 . S
C451 C450 1.391 . S
C451 C452 1.391 . S
C452 H429 0.947 1_554 S
C452 C451 1.391 . S
C452 C453 1.394 . S
C453 H430 0.940 1_554 S
C453 C452 1.394 . S
C453 C454 1.424 . S
C454 C453 1.424 . S
C454 C455 1.391 . S
C454 C458 1.397 . S
C455 C450 1.391 . S
C455 C454 1.391 . S
C455 C456 1.399 . S
C456 C455 1.399 . S
C456 C457 1.396 . S
C456 C459 1.453 . S
C456 C460 1.684 . S
C457 C447 1.723 . S
C457 C456 1.396 . S
C457 C458 1.394 . S
C458 C428 1.723 1_554 S
C458 C454 1.397 . S
C458 C457 1.394 . S
C459 H431 0.982 . S
C459 H435 0.979 . S
C459 H436 0.977 . S
C459 C456 1.453 . S
C460 H432 0.979 . S
C460 H433 0.980 . S
C460 H434 0.983 . S
C460 C456 1.684 . S
H461 C479 0.948 . S
H462 C420 0.948 . S
H463 C438 0.979 . S
H464 C438 0.980 . S
H465 C438 0.983 . S
H466 C437 0.982 . S
H467 C437 0.979 . S
H468 C437 0.977 . S
H469 C439 0.948 . S
H470 C441 0.947 . S
H471 C442 0.948 . S
H472 C448 0.982 . S
H473 C448 0.979 . S
H474 C448 0.977 1_556 S
H475 C449 0.979 . S
H476 C449 0.980 1_556 S
H477 C449 0.983 . S
H478 C422 0.947 . S
C479 C422 1.392 . S
C479 C423 1.419 . S
C479 H461 0.948 . S
Tb480 C490 2.825 . S
Tb480 O491 2.347 1_455 S
Tb480 O494 2.366 . S
Tb480 O499 2.418 . S
Tb480 O500 2.384 1_565 S
Tb480 O503 2.479 . S
Tb480 O504 2.471 . S
Eu481 O492 2.418 . S
Eu481 O493 2.384 1_545 S
Eu481 O496 2.479 . S
Eu481 O497 2.471 . S
Eu481 O498 2.347 1_655 S
Eu481 O501 2.366 . S
Eu481 C511 2.825 . S
C482 O498 1.259 1_565 S
C482 O499 1.265 . S
C483 O500 1.255 . S
C483 O501 1.265 1_455 S
C484 C486 1.380 . S
C484 C487 1.374 . S
C484 C490 1.507 . S
C485 C486 1.384 1_554 S
C485 C489 1.387 . S
C485 H512 0.930 . S
C486 C484 1.380 . S
C486 C485 1.384 1_556 S
C486 H513 0.931 . S
C487 C484 1.374 . S
C487 C488 1.390 1_556 S
C487 H514 0.930 1_455 S
C488 C487 1.390 1_554 S
C488 C489 1.391 . S
C488 H515 0.899 1_455 S
C489 C485 1.387 . S
C489 C488 1.391 . S
C490 Tb480 2.825 . S
C490 C484 1.507 . S
C490 O503 1.238 . S
C490 O504 1.247 . S
O491 Tb480 2.347 1_655 S
O491 C495 1.259 1_565 S
O492 Eu481 2.418 . S
O492 C495 1.265 . S
O493 Eu481 2.384 1_565 S
O493 C502 1.255 . S
O494 Tb480 2.366 . S
O494 C502 1.265 1_455 S
C495 O491 1.259 1_545 S
C495 O492 1.265 . S
O496 Eu481 2.479 . S
O496 C511 1.238 . S
O497 Eu481 2.471 . S
O497 C511 1.247 . S
O498 Eu481 2.347 1_455 S
O498 C482 1.259 1_545 S
O499 Tb480 2.418 . S
O499 C482 1.265 . S
O500 Tb480 2.384 1_545 S
O500 C483 1.255 . S
O501 Eu481 2.366 . S
O501 C483 1.265 1_655 S
C502 O493 1.255 . S
C502 O494 1.265 1_655 S
O503 Tb480 2.479 . S
O503 C490 1.238 . S
O504 Tb480 2.471 . S
O504 C490 1.247 . S
C505 C508 1.380 . S
C505 C509 1.374 . S
C505 C511 1.507 . S
C506 C507 1.387 . S
C506 C510 1.391 . S
C507 C506 1.387 . S
C507 C508 1.384 . S
C507 H516 0.930 . S
C508 C505 1.380 . S
C508 C507 1.384 . S
C508 H517 0.931 . S
C509 C505 1.374 . S
C509 C510 1.390 . S
C509 H518 0.930 1_655 S
C510 C506 1.391 . S
C510 C509 1.390 . S
C510 H519 0.930 1_655 S
C511 Eu481 2.825 . S
C511 O496 1.238 . S
C511 O497 1.247 . S
C511 C505 1.507 . S
H512 C485 0.930 . S
H513 C486 0.931 . S
H514 C487 0.930 1_655 S
H515 C488 0.899 1_655 S
H516 C507 0.930 . S
H517 C508 0.931 . S
H518 C509 0.930 1_455 S
H519 C510 0.930 1_455 S
Tb520 C530 2.825 . S
Tb520 O531 2.347 1_545 S
Tb520 O534 2.366 . S
Tb520 O539 2.418 . S
Tb520 O540 2.384 . S
Tb520 O543 2.479 . S
Tb520 O544 2.471 . S
Eu521 O532 2.418 . S
Eu521 O533 2.384 . S
Eu521 O536 2.479 . S
Eu521 O537 2.471 . S
Eu521 O538 2.347 1_565 S
Eu521 O541 2.366 . S
Eu521 C551 2.825 . S
C522 O538 1.259 . S
C522 O539 1.265 . S
C523 O540 1.255 . S
C523 O541 1.265 1_545 S
C524 C526 1.380 . S
C524 C527 1.374 . S
C524 C530 1.507 . S
C525 C526 1.384 1_554 S
C525 C529 1.387 . S
C525 H552 0.930 . S
C526 C524 1.380 . S
C526 C525 1.384 1_556 S
C526 H553 0.931 . S
C527 C524 1.374 . S
C527 C528 1.390 1_556 S
C527 H554 0.930 1_545 S
C528 C527 1.390 1_554 S
C528 C529 1.391 . S
C528 H555 0.930 1_545 S
C529 C525 1.387 . S
C529 C528 1.391 . S
C530 Tb520 2.825 . S
C530 C524 1.507 . S
C530 O543 1.238 . S
C530 O544 1.247 . S
O531 Tb520 2.347 1_565 S
O531 C535 1.259 . S
O532 Eu521 2.418 . S
O532 C535 1.265 . S
O533 Eu521 2.384 . S
O533 C542 1.255 . S
O534 Tb520 2.366 . S
O534 C542 1.265 1_545 S
C535 O531 1.259 . S
C535 O532 1.265 . S
O536 Eu521 2.479 . S
O536 C551 1.238 . S
O537 Eu521 2.471 . S
O537 C551 1.247 . S
O538 Eu521 2.347 1_545 S
O538 C522 1.259 . S
O539 Tb520 2.418 . S
O539 C522 1.265 . S
O540 Tb520 2.384 . S
O540 C523 1.255 . S
O541 Eu521 2.366 . S
O541 C523 1.265 1_565 S
C542 O533 1.255 . S
C542 O534 1.265 1_565 S
O543 Tb520 2.479 . S
O543 C530 1.238 . S
O544 Tb520 2.471 . S
O544 C530 1.247 . S
C545 C548 1.380 . S
C545 C549 1.374 . S
C545 C551 1.507 . S
C546 C547 1.387 . S
C546 C550 1.391 . S
C547 C546 1.387 . S
C547 C548 1.384 . S
C547 H556 0.930 . S
C548 C545 1.380 . S
C548 C547 1.384 . S
C548 H557 0.931 . S
C549 C545 1.374 . S
C549 C550 1.390 . S
C549 H558 0.930 1_565 S
C550 C546 1.391 . S
C550 C549 1.390 . S
C550 H559 0.930 1_565 S
C551 Eu521 2.825 . S
C551 O536 1.238 . S
C551 O537 1.247 . S
C551 C545 1.507 . S
H552 C525 0.930 . S
H553 C526 0.931 . S
H554 C527 0.930 1_565 S
H555 C528 0.930 1_565 S
H556 C547 0.930 . S
H557 C548 0.931 . S
H558 C549 0.930 1_545 S
H559 C550 0.930 1_545 S
Tb560 C570 2.825 . S
Tb560 O571 2.347 . S
Tb560 O574 2.366 . S
Tb560 O579 2.418 . S
Tb560 O580 2.384 . S
Tb560 O583 2.479 . S
Tb560 O584 2.471 . S
Eu561 O572 2.418 . S
Eu561 O573 2.384 . S
Eu561 O576 2.479 . S
Eu561 O577 2.471 . S
Eu561 O578 2.347 . S
Eu561 O581 2.366 . S
Eu561 C591 2.825 . S
C562 O578 1.259 . S
C562 O579 1.265 . S
C563 O580 1.255 . S
C563 O581 1.265 . S
C564 C566 1.380 . S
C564 C567 1.374 . S
C564 C570 1.507 . S
C565 C566 1.384 1_554 S
C565 C569 1.387 . S
C565 H592 0.930 . S
C566 C564 1.380 . S
C566 C565 1.384 1_556 S
C566 H593 0.931 . S
C567 C564 1.374 . S
C567 C568 1.390 1_556 S
C567 H594 0.930 . S
C568 C567 1.390 1_554 S
C568 C569 1.391 . S
C568 H595 0.930 . S
C569 C565 1.387 . S
C569 C568 1.391 . S
C570 Tb560 2.825 . S
C570 C564 1.507 . S
C570 O583 1.238 . S
C570 O584 1.247 . S
O571 Tb560 2.347 . S
O571 C575 1.259 . S
O572 Eu561 2.418 . S
O572 C575 1.265 . S
O573 Eu561 2.384 . S
O573 C582 1.255 . S
O574 Tb560 2.366 . S
O574 C582 1.265 . S
C575 O571 1.259 . S
C575 O572 1.265 . S
O576 Eu561 2.479 . S
O576 C591 1.238 . S
O577 Eu561 2.471 . S
O577 C591 1.247 . S
O578 Eu561 2.347 . S
O578 C562 1.259 . S
O579 Tb560 2.418 . S
O579 C562 1.265 . S
O580 Tb560 2.384 . S
O580 C563 1.255 . S
O581 Eu561 2.366 . S
O581 C563 1.265 . S
C582 O573 1.255 . S
C582 O574 1.265 . S
O583 Tb560 2.479 . S
O583 C570 1.238 . S
O584 Tb560 2.471 . S
O584 C570 1.247 . S
C585 C588 1.380 . S
C585 C589 1.374 . S
C585 C591 1.507 . S
C586 C587 1.387 . S
C586 C590 1.391 . S
C587 C586 1.387 . S
C587 C588 1.384 . S
C587 H596 0.930 . S
C588 C585 1.380 . S
C588 C587 1.384 . S
C588 H597 0.931 . S
C589 C585 1.374 . S
C589 C590 1.390 . S
C589 H598 0.930 . S
C590 C586 1.391 . S
C590 C589 1.390 . S
C590 H599 0.930 . S
C591 Eu561 2.825 . S
C591 O576 1.238 . S
C591 O577 1.247 . S
C591 C585 1.507 . S
H592 C565 0.930 . S
H593 C566 0.931 . S
H594 C567 0.930 . S
H595 C568 0.930 . S
H596 C587 0.930 . S
H597 C588 0.931 . S
H598 C589 0.930 . S
H599 C590 0.930 . S
Tb600 C610 2.825 . S
Tb600 O611 2.347 . S
Tb600 O614 2.366 . S
Tb600 O619 2.418 . S
Tb600 O620 2.384 1_655 S
Tb600 O623 2.479 . S
Tb600 O624 2.471 . S
Eu601 O612 2.418 . S
Eu601 O613 2.384 1_455 S
Eu601 O616 2.479 . S
Eu601 O617 2.471 . S
Eu601 O618 2.347 . S
Eu601 O621 2.366 . S
Eu601 C631 2.825 . S
C602 O618 1.259 1_655 S
C602 O619 1.265 . S
C603 O620 1.255 . S
C603 O621 1.265 . S
C604 C606 1.380 . S
C604 C607 1.374 . S
C604 C610 1.507 . S
C605 C606 1.384 1_554 S
C605 C609 1.387 . S
C605 H632 0.930 . S
C606 C604 1.380 . S
C606 C605 1.384 1_556 S
C606 H633 0.931 . S
C607 C604 1.374 . S
C607 C608 1.390 1_556 S
C607 H634 0.930 . S
C608 C607 1.390 1_554 S
C608 C609 1.391 . S
C608 H635 0.930 . S
C609 C605 1.387 . S
C609 C608 1.391 . S
C610 Tb600 2.825 . S
C610 C604 1.507 . S
C610 O623 1.238 . S
C610 O624 1.247 . S
O611 Tb600 2.347 . S
O611 C615 1.259 1_655 S
O612 Eu601 2.418 . S
O612 C615 1.265 . S
O613 Eu601 2.384 1_655 S
O613 C622 1.255 . S
O614 Tb600 2.366 . S
O614 C622 1.265 . S
C615 O611 1.259 1_455 S
C615 O612 1.265 . S
O616 Eu601 2.479 . S
O616 C631 1.238 . S
O617 Eu601 2.471 . S
O617 C631 1.247 . S
O618 Eu601 2.347 . S
O618 C602 1.259 1_455 S
O619 Tb600 2.418 . S
O619 C602 1.265 . S
O620 Tb600 2.384 1_455 S
O620 C603 1.255 . S
O621 Eu601 2.366 . S
O621 C603 1.265 . S
C622 O613 1.255 . S
C622 O614 1.265 . S
O623 Tb600 2.479 . S
O623 C610 1.238 . S
O624 Tb600 2.471 . S
O624 C610 1.247 . S
C625 C628 1.380 . S
C625 C629 1.374 . S
C625 C631 1.507 . S
C626 C627 1.387 . S
C626 C630 1.391 . S
C627 C626 1.387 . S
C627 C628 1.384 . S
C627 H636 0.930 . S
C628 C625 1.380 . S
C628 C627 1.384 . S
C628 H637 0.931 . S
C629 C625 1.374 . S
C629 C630 1.390 . S
C629 H638 0.930 . S
C630 C626 1.391 . S
C630 C629 1.390 . S
C630 H639 0.930 . S
C631 Eu601 2.825 . S
C631 O616 1.238 . S
C631 O617 1.247 . S
C631 C625 1.507 . S
H632 C605 0.930 . S
H633 C606 0.931 . S
H634 C607 0.930 . S
H635 C608 0.930 . S
H636 C627 0.930 . S
H637 C628 0.931 . S
H638 C629 0.930 . S
H639 C630 0.930 . S
C640 C641 1.365 1_545 S
C640 C642 1.419 . S
C640 H644 0.930 . S
C641 C640 1.365 1_565 S
C641 C650 1.433 . S
C642 C640 1.419 . S
C642 C643 1.361 1_545 S
C642 H645 0.929 . S
C643 C642 1.361 1_565 S
C643 C649 1.430 . S
H644 C640 0.930 . S
H645 C642 0.929 . S
S646 N647 1.613 . S
S646 N648 1.610 . S
N647 S646 1.613 . S
N647 C650 1.350 . S
N648 S646 1.610 . S
N648 C649 1.351 . S
C649 C643 1.430 . S
C649 N648 1.351 . S
C649 C650 1.434 . S
C650 C641 1.433 . S
C650 N647 1.350 . S
C650 C649 1.434 . S
C651 C652 1.369 . S
C651 C653 1.419 . S
C651 H655 0.930 . S
C652 C651 1.369 . S
C652 C661 1.429 . S
C653 C651 1.419 . S
C653 C654 1.363 . S
C653 H656 0.929 . S
C654 C653 1.363 . S
C654 C660 1.428 . S
H655 C651 0.930 . S
H656 C653 0.929 . S
S657 N658 1.607 1_565 S
S657 N659 1.605 1_565 S
N658 S657 1.607 1_545 S
N658 C661 1.350 . S
N659 S657 1.605 1_545 S
N659 C660 1.351 . S
C660 C654 1.428 . S
C660 N659 1.351 . S
C660 C661 1.434 . S
C661 C652 1.429 . S
C661 N658 1.350 . S
C661 C660 1.434 . S
C662 C663 1.369 . S
C662 C664 1.419 . S
C662 H666 0.930 . S
C663 C662 1.369 . S
C663 C672 1.429 . S
C664 C662 1.419 . S
C664 C665 1.363 . S
C664 H667 0.929 . S
C665 C664 1.363 . S
C665 C671 1.428 . S
H666 C662 0.930 . S
H667 C664 0.929 . S
S668 N669 1.613 . S
S668 N670 1.610 . S
N669 S668 1.613 . S
N669 C672 1.350 . S
N670 S668 1.610 . S
N670 C671 1.351 . S
C671 C665 1.428 . S
C671 N670 1.351 . S
C671 C672 1.434 . S
C672 C663 1.429 . S
C672 N669 1.350 . S
C672 C671 1.434 . S
C673 C674 1.376 . S
C673 C675 1.419 . S
C673 H677 0.930 . S
C674 C673 1.376 . S
C674 C683 1.422 1_455 S
C675 C673 1.419 . S
C675 C676 1.395 . S
C675 H678 0.929 . S
C676 C675 1.395 . S
C676 C682 1.396 1_455 S
H677 C673 0.930 . S
H678 C675 0.929 . S
S679 N680 1.613 . S
S679 N681 1.610 . S
N680 S679 1.613 . S
N680 C683 1.350 . S
N681 S679 1.610 . S
N681 C682 1.351 . S
C682 C676 1.396 1_655 S
C682 N681 1.351 . S
C682 C683 1.434 . S
C683 C674 1.422 1_655 S
C683 N680 1.350 . S
C683 C682 1.434 . S
C684 C685 1.358 1_565 S
C684 C686 1.419 . S
C684 H688 0.930 . S
C685 C684 1.358 1_545 S
C685 C694 1.440 . S
C686 C684 1.419 . S
C686 C687 1.355 1_564 S
C686 H689 0.929 . S
C687 C686 1.355 1_546 S
C687 C693 1.437 1_556 S
H688 C684 0.930 . S
H689 C686 0.929 . S
S690 N691 1.613 . S
S690 N692 1.610 . S
N691 S690 1.613 . S
N691 C694 1.350 . S
N692 S690 1.610 . S
N692 C693 1.351 . S
C693 C687 1.437 1_554 S
C693 N692 1.351 . S
C693 C694 1.434 . S
C694 C685 1.440 . S
C694 N691 1.350 . S
C694 C693 1.434 . S
C695 C696 1.369 . S
C695 C697 1.419 . S
C695 H699 0.930 . S
C696 C695 1.369 . S
C696 C705 1.429 . S
C697 C695 1.419 . S
C697 C698 1.363 1_554 S
C697 H700 0.929 . S
C698 C697 1.363 1_556 S
C698 C704 1.428 1_556 S
H699 C695 0.930 . S
H700 C697 0.929 . S
S701 N702 1.613 . S
S701 N703 1.610 . S
N702 S701 1.613 . S
N702 C705 1.350 . S
N703 S701 1.610 . S
N703 C704 1.351 . S
C704 C698 1.428 1_554 S
C704 N703 1.351 . S
C704 C705 1.434 . S
C705 C696 1.429 . S
C705 N702 1.350 . S
C705 C704 1.434 . S
C706 C707 1.369 . S
C706 C708 1.419 . S
C706 H710 0.930 . S
C707 C706 1.369 . S
C707 C716 1.429 . S
C708 C706 1.419 . S
C708 C709 1.363 1_554 S
C708 H711 0.929 . S
C709 C708 1.363 1_556 S
C709 C715 1.428 1_556 S
H710 C706 0.930 . S
H711 C708 0.929 . S
S712 N713 1.613 . S
S712 N714 1.610 . S
N713 S712 1.613 . S
N713 C716 1.350 . S
N714 S712 1.610 . S
N714 C715 1.351 . S
C715 C709 1.428 1_554 S
C715 N714 1.351 . S
C715 C716 1.434 . S
C716 C707 1.429 . S
C716 N713 1.350 . S
C716 C715 1.434 . S
C717 C718 1.342 1_455 S
C717 C719 1.419 . S
C717 H721 0.930 . S
C718 C717 1.342 1_655 S
C718 C727 1.458 . S
C719 C717 1.419 . S
C719 C720 1.363 1_454 S
C719 H722 0.929 . S
C720 C719 1.363 1_656 S
C720 C726 1.428 1_556 S
H721 C717 0.930 . S
H722 C719 0.929 . S
S723 N724 1.613 . S
S723 N725 1.609 1_554 S
N724 S723 1.613 . S
N724 C727 1.350 . S
N725 S723 1.609 1_556 S
N725 C726 1.350 1_556 S
C726 C720 1.428 1_554 S
C726 N725 1.350 1_554 S
C726 C727 1.434 . S
C727 C718 1.458 . S
C727 N724 1.350 . S
C727 C726 1.434 . S
C728 C729 1.366 1_655 S
C728 C730 1.419 . S
C728 H732 0.930 1_655 S
C729 C728 1.366 1_455 S
C729 C738 1.418 1_455 S
C730 C728 1.419 . S
C730 C731 1.363 . S
C730 H733 0.929 . S
C731 C730 1.363 . S
C731 C737 1.428 . S
H732 C728 0.930 1_455 S
H733 C730 0.929 . S
S734 N735 1.613 . S
S734 N736 1.610 . S
N735 S734 1.613 . S
N735 C738 1.350 . S
N736 S734 1.610 . S
N736 C737 1.351 . S
C737 C731 1.428 . S
C737 N736 1.351 . S
C737 C738 1.434 . S
C738 C729 1.418 1_655 S
C738 N735 1.350 . S
C738 C737 1.434 . S
C739 C740 1.354 1_565 S
C739 C741 1.419 . S
C739 H743 0.930 . S
C740 C739 1.354 1_545 S
C740 C749 1.427 1_545 S
C741 C739 1.419 . S
C741 C742 1.363 . S
C741 H744 0.929 . S
C742 C741 1.363 . S
C742 C748 1.428 . S
H743 C739 0.930 . S
H744 C741 0.929 . S
S745 N746 1.613 . S
S745 N747 1.610 1_545 S
N746 S745 1.613 . S
N746 C749 1.350 1_545 S
N747 S745 1.610 1_565 S
N747 C748 1.351 . S
C748 C742 1.428 . S
C748 N747 1.351 . S
C748 C749 1.434 . S
C749 C740 1.427 1_565 S
C749 N746 1.350 1_565 S
C749 C748 1.434 . S
C750 C751 1.369 . S
C750 C752 1.419 . S
C750 H754 0.930 . S
C751 C750 1.369 . S
C751 C760 1.429 . S
C752 C750 1.419 . S
C752 C753 1.363 . S
C752 H755 0.929 . S
C753 C752 1.363 . S
C753 C759 1.428 . S
H754 C750 0.930 . S
H755 C752 0.929 . S
S756 N757 1.613 . S
S756 N758 1.610 . S
N757 S756 1.613 . S
N757 C760 1.350 . S
N758 S756 1.610 . S
N758 C759 1.351 . S
C759 C753 1.428 . S
C759 N758 1.351 . S
C759 C760 1.434 . S
C760 C751 1.429 . S
C760 N757 1.350 . S
C760 C759 1.434 . S
C761 C762 1.369 . S
C761 C763 1.419 . S
C761 H765 0.930 . S
C762 C761 1.369 . S
C762 C771 1.429 . S
C763 C761 1.419 . S
C763 C764 1.363 . S
C763 H766 0.929 . S
C764 C763 1.363 . S
C764 C770 1.428 . S
H765 C761 0.930 . S
H766 C763 0.929 . S
S767 N768 1.613 . S
S767 N769 1.610 . S
N768 S767 1.613 . S
N768 C771 1.350 . S
N769 S767 1.610 . S
N769 C770 1.351 . S
C770 C764 1.428 . S
C770 N769 1.351 . S
C770 C771 1.434 . S
C771 C762 1.429 . S
C771 N768 1.350 . S
C771 C770 1.434 . S
C772 C773 1.371 . S
C772 C774 1.419 1_655 S
C772 H776 0.930 . S
C773 C772 1.371 . S
C773 C782 1.422 1_655 S
C774 C772 1.419 1_455 S
C774 C775 1.363 . S
C774 H777 0.929 . S
C775 C774 1.363 . S
C775 C781 1.428 . S
H776 C772 0.930 . S
H777 C774 0.929 . S
S778 N779 1.613 . S
S778 N780 1.610 . S
N779 S778 1.613 . S
N779 C782 1.350 . S
N780 S778 1.610 . S
N780 C781 1.351 . S
C781 C775 1.428 . S
C781 N780 1.351 . S
C781 C782 1.434 . S
C782 C773 1.422 1_455 S
C782 N779 1.350 . S
C782 C781 1.434 . S
C783 C784 1.347 1_545 S
C783 C785 1.419 . S
C783 H787 0.930 . S
C784 C783 1.347 1_565 S
C784 C793 1.432 . S
C785 C783 1.419 . S
C785 C786 1.363 . S
C785 H788 0.929 . S
C786 C785 1.363 . S
C786 C792 1.428 . S
H787 C783 0.930 . S
H788 C785 0.929 . S
S789 N790 1.613 . S
S789 N791 1.610 1_565 S
N790 S789 1.613 . S
N790 C793 1.350 . S
N791 S789 1.610 1_545 S
N791 C792 1.351 . S
C792 C786 1.428 . S
C792 N791 1.351 . S
C792 C793 1.434 1_545 S
C793 C784 1.432 . S
C793 N790 1.350 . S
C793 C792 1.434 1_565 S
C794 C795 1.369 . S
C794 C796 1.419 . S
C794 H798 0.930 . S
C795 C794 1.369 . S
C795 C804 1.429 . S
C796 C794 1.419 . S
C796 C797 1.363 . S
C796 H799 0.929 . S
C797 C796 1.363 . S
C797 C803 1.428 . S
H798 C794 0.930 . S
H799 C796 0.929 . S
S800 N801 1.613 . S
S800 N802 1.610 . S
N801 S800 1.613 . S
N801 C804 1.350 . S
N802 S800 1.610 . S
N802 C803 1.351 . S
C803 C797 1.428 . S
C803 N802 1.351 . S
C803 C804 1.434 . S
C804 C795 1.429 . S
C804 N801 1.350 . S
C804 C803 1.434 . S
C805 C806 1.369 . S
C805 C807 1.419 . S
C805 H809 0.930 . S
C806 C805 1.369 . S
C806 C815 1.429 . S
C807 C805 1.419 . S
C807 C808 1.363 . S
C807 H810 0.929 . S
C808 C807 1.363 . S
C808 C814 1.428 . S
H809 C805 0.930 . S
H810 C807 0.929 . S
S811 N812 1.613 . S
S811 N813 1.610 . S
N812 S811 1.613 . S
N812 C815 1.350 . S
N813 S811 1.610 . S
N813 C814 1.351 . S
C814 C808 1.428 . S
C814 N813 1.351 . S
C814 C815 1.434 . S
C815 C806 1.429 . S
C815 N812 1.350 . S
C815 C814 1.434 . S
C816 C817 1.369 . S
C816 C818 1.419 . S
C816 H820 0.930 . S
C817 C816 1.369 . S
C817 C826 1.429 1_455 S
C818 C816 1.419 . S
C818 C819 1.363 . S
C818 H821 0.929 . S
C819 C818 1.363 . S
C819 C825 1.428 1_455 S
H820 C816 0.930 . S
H821 C818 0.929 . S
S822 N823 1.613 . S
S822 N824 1.610 . S
N823 S822 1.613 . S
N823 C826 1.350 . S
N824 S822 1.610 . S
N824 C825 1.351 . S
C825 C819 1.428 1_655 S
C825 N824 1.351 . S
C825 C826 1.434 . S
C826 C817 1.429 1_655 S
C826 N823 1.350 . S
C826 C825 1.434 . S
C827 C828 1.369 . S
C827 C829 1.419 . S
C827 H831 0.930 . S
C828 C827 1.369 . S
C828 C837 1.434 . S
C829 C827 1.419 . S
C829 C830 1.363 . S
C829 H832 0.929 . S
C830 C829 1.363 . S
C830 C836 1.428 . S
H831 C827 0.930 . S
H832 C829 0.929 . S
S833 N834 1.613 . S
S833 N835 1.613 . S
N834 S833 1.613 . S
N834 C837 1.344 1_565 S
N835 S833 1.613 . S
N835 C836 1.349 1_565 S
C836 C830 1.428 . S
C836 N835 1.349 1_545 S
C836 C837 1.437 . S
C837 C828 1.434 . S
C837 N834 1.344 1_545 S
C837 C836 1.437 . S
C838 C839 1.369 . S
C838 C840 1.419 . S
C838 H842 0.930 . S
C839 C838 1.369 . S
C839 C848 1.429 . S
C840 C838 1.419 . S
C840 C841 1.363 . S
C840 H843 0.929 . S
C841 C840 1.363 . S
C841 C847 1.428 . S
H842 C838 0.930 . S
H843 C840 0.929 . S
S844 N845 1.613 . S
S844 N846 1.610 . S
N845 S844 1.613 . S
N845 C848 1.350 . S
N846 S844 1.610 . S
N846 C847 1.351 . S
C847 C841 1.428 . S
C847 N846 1.351 . S
C847 C848 1.434 . S
C848 C839 1.429 . S
C848 N845 1.350 . S
C848 C847 1.434 . S
C849 C850 1.369 . S
C849 C851 1.419 . S
C849 H853 0.930 . S
C850 C849 1.369 . S
C850 C859 1.429 . S
C851 C849 1.419 . S
C851 C852 1.363 . S
C851 H854 0.929 . S
C852 C851 1.363 . S
C852 C858 1.428 . S
H853 C849 0.930 . S
H854 C851 0.929 . S
S855 N856 1.613 . S
S855 N857 1.610 . S
N856 S855 1.613 . S
N856 C859 1.350 . S
N857 S855 1.610 . S
N857 C858 1.351 . S
C858 C852 1.428 . S
C858 N857 1.351 . S
C858 C859 1.434 . S
C859 C850 1.429 . S
C859 N856 1.350 . S
C859 C858 1.434 . S
C860 C861 1.369 . S
C860 C862 1.419 . S
C860 H864 0.930 . S
C861 C860 1.369 . S
C861 C870 1.429 1_655 S
C862 C860 1.419 . S
C862 C863 1.363 . S
C862 H865 0.929 . S
C863 C862 1.363 . S
C863 C869 1.428 1_655 S
H864 C860 0.930 . S
H865 C862 0.929 . S
S866 N867 1.613 . S
S866 N868 1.610 . S
N867 S866 1.613 . S
N867 C870 1.350 . S
N868 S866 1.610 . S
N868 C869 1.351 . S
C869 C863 1.428 1_455 S
C869 N868 1.351 . S
C869 C870 1.434 . S
C870 C861 1.429 1_455 S
C870 N867 1.350 . S
C870 C869 1.434 . S
C871 C872 1.369 . S
C871 C873 1.419 . S
C871 H875 0.930 . S
C872 C871 1.369 . S
C872 C881 1.429 1_565 S
C873 C871 1.419 . S
C873 C874 1.363 . S
C873 H876 0.929 . S
C874 C873 1.363 . S
C874 C880 1.428 1_565 S
H875 C871 0.930 . S
H876 C873 0.929 . S
S877 N878 1.613 . S
S877 N879 1.610 . S
N878 S877 1.613 . S
N878 C881 1.350 . S
N879 S877 1.610 . S
N879 C880 1.351 . S
C880 C874 1.428 1_545 S
C880 N879 1.351 . S
C880 C881 1.434 . S
C881 C872 1.429 1_545 S
C881 N878 1.350 . S
C881 C880 1.434 . S
C882 C883 1.369 . S
C882 C884 1.419 . S
C882 H886 0.930 . S
C883 C882 1.369 . S
C883 C892 1.429 . S
C884 C882 1.419 . S
C884 C885 1.363 . S
C884 H887 0.929 . S
C885 C884 1.363 . S
C885 C891 1.428 . S
H886 C882 0.930 . S
H887 C884 0.929 . S
S888 N889 1.613 . S
S888 N890 1.610 . S
N889 S888 1.613 . S
N889 C892 1.350 . S
N890 S888 1.610 . S
N890 C891 1.351 . S
C891 C885 1.428 . S
C891 N890 1.351 . S
C891 C892 1.434 . S
C892 C883 1.429 . S
C892 N889 1.350 . S
C892 C891 1.434 . S
C893 C894 1.369 . S
C893 C895 1.419 . S
C893 H897 0.930 . S
C894 C893 1.369 . S
C894 C903 1.429 . S
C895 C893 1.419 . S
C895 C896 1.363 . S
C895 H898 0.929 . S
C896 C895 1.363 . S
C896 C902 1.428 . S
H897 C893 0.930 . S
H898 C895 0.929 . S
S899 N900 1.613 . S
S899 N901 1.610 . S
N900 S899 1.613 . S
N900 C903 1.350 . S
N901 S899 1.610 . S
N901 C902 1.351 . S
C902 C896 1.428 . S
C902 N901 1.351 . S
C902 C903 1.434 . S
C903 C894 1.429 . S
C903 N900 1.350 . S
C903 C902 1.434 . S
C641 C391 2.668 1_565 S
C643 C482 2.840 . S
C654 C522 2.858 . S
C652 C451 2.686 . S
C665 C562 2.864 . S
C663 C241 2.345 . S
C676 C602 2.842 1_455 S
C674 C331 2.314 1_455 S
C687 C495 2.840 . S
C685 C121 2.306 1_545 S
C696 C211 2.700 . S
C698 C535 2.861 . S
C707 C31 2.708 . S
C709 C575 2.867 . S
C718 C91 2.309 . S
C720 C615 2.847 1_655 S
C731 C506 0.733 . S
C729 C301 0.749 1_455 S
C742 C546 0.728 . S
C740 C380 0.724 . S
C753 C586 0.679 . S
C751 C440 0.681 . S
C762 C260 0.720 . S
C764 C626 0.679 . S
C773 C61 0.724 . S
C775 C489 0.747 . S
C786 C529 0.719 . S
C784 C140 0.737 . S
C797 C569 0.697 . S
C795 C200 0.680 . S
C806 C20 0.684 . S
C808 C609 0.705 . S
C817 C320 3.390 1_455 S
C819 C483 3.688 . S
C828 C361 2.899 . S
C830 C523 3.660 . S
C841 C563 3.648 . S
C839 C421 2.887 . S
C852 C603 3.686 . S
C850 C271 3.382 . S
C861 C80 3.375 . S
C863 C502 3.697 . S
C874 C542 3.657 . S
C872 C151 3.336 . S
C885 C582 3.648 . S
C883 C181 2.922 . S
C894 C1 2.963 . S
C896 C622 3.689 . S
