# Generated by pormake.
# Topology ctn, (3,4)-cn, num edge types: 1
# Building blocks:
#     Node 0, Type 0, BuildingBlock: BETDAH_clean_linker_0, # of connection points: 3
#     Node 1, Type 0, BuildingBlock: BETDAH_clean_linker_0, # of connection points: 3
#     Node 2, Type 0, BuildingBlock: BETDAH_clean_linker_0, # of connection points: 3
#     Node 3, Type 0, BuildingBlock: BETDAH_clean_linker_0, # of connection points: 3
#     Node 4, Type 0, BuildingBlock: BETDAH_clean_linker_0, # of connection points: 3
#     Node 5, Type 0, BuildingBlock: BETDAH_clean_linker_0, # of connection points: 3
#     Node 6, Type 0, BuildingBlock: BETDAH_clean_linker_0, # of connection points: 3
#     Node 7, Type 0, BuildingBlock: BETDAH_clean_linker_0, # of connection points: 3
#     Node 8, Type 0, BuildingBlock: BETDAH_clean_linker_0, # of connection points: 3
#     Node 9, Type 0, BuildingBlock: BETDAH_clean_linker_0, # of connection points: 3
#     Node 10, Type 0, BuildingBlock: BETDAH_clean_linker_0, # of connection points: 3
#     Node 11, Type 0, BuildingBlock: BETDAH_clean_linker_0, # of connection points: 3
#     Node 12, Type 0, BuildingBlock: BETDAH_clean_linker_0, # of connection points: 3
#     Node 13, Type 0, BuildingBlock: BETDAH_clean_linker_0, # of connection points: 3
#     Node 14, Type 0, BuildingBlock: BETDAH_clean_linker_0, # of connection points: 3
#     Node 15, Type 0, BuildingBlock: BETDAH_clean_linker_0, # of connection points: 3
#     Node 16, Type 1, BuildingBlock: TATPOV_clean_sbu_0, # of connection points: 4
#     Node 17, Type 1, BuildingBlock: TATPOV_clean_sbu_0, # of connection points: 4
#     Node 18, Type 1, BuildingBlock: TATPOV_clean_sbu_0, # of connection points: 4
#     Node 19, Type 1, BuildingBlock: TATPOV_clean_sbu_0, # of connection points: 4
#     Node 20, Type 1, BuildingBlock: TATPOV_clean_sbu_0, # of connection points: 4
#     Node 21, Type 1, BuildingBlock: TATPOV_clean_sbu_0, # of connection points: 4
#     Node 22, Type 1, BuildingBlock: TATPOV_clean_sbu_0, # of connection points: 4
#     Node 23, Type 1, BuildingBlock: TATPOV_clean_sbu_0, # of connection points: 4
#     Node 24, Type 1, BuildingBlock: TATPOV_clean_sbu_0, # of connection points: 4
#     Node 25, Type 1, BuildingBlock: TATPOV_clean_sbu_0, # of connection points: 4
#     Node 26, Type 1, BuildingBlock: TATPOV_clean_sbu_0, # of connection points: 4
#     Node 27, Type 1, BuildingBlock: TATPOV_clean_sbu_0, # of connection points: 4
#     Edge 28, Type (0, 1), BuildingBlock: CIFDUS_clean_linker_0, # of connection points: 2
#     Edge 29, Type (0, 1), BuildingBlock: CIFDUS_clean_linker_0, # of connection points: 2
#     Edge 30, Type (0, 1), BuildingBlock: CIFDUS_clean_linker_0, # of connection points: 2
#     Edge 31, Type (0, 1), BuildingBlock: CIFDUS_clean_linker_0, # of connection points: 2
#     Edge 32, Type (0, 1), BuildingBlock: CIFDUS_clean_linker_0, # of connection points: 2
#     Edge 33, Type (0, 1), BuildingBlock: CIFDUS_clean_linker_0, # of connection points: 2
#     Edge 34, Type (0, 1), BuildingBlock: CIFDUS_clean_linker_0, # of connection points: 2
#     Edge 35, Type (0, 1), BuildingBlock: CIFDUS_clean_linker_0, # of connection points: 2
#     Edge 36, Type (0, 1), BuildingBlock: CIFDUS_clean_linker_0, # of connection points: 2
#     Edge 37, Type (0, 1), BuildingBlock: CIFDUS_clean_linker_0, # of connection points: 2
#     Edge 38, Type (0, 1), BuildingBlock: CIFDUS_clean_linker_0, # of connection points: 2
#     Edge 39, Type (0, 1), BuildingBlock: CIFDUS_clean_linker_0, # of connection points: 2
#     Edge 40, Type (0, 1), BuildingBlock: CIFDUS_clean_linker_0, # of connection points: 2
#     Edge 41, Type (0, 1), BuildingBlock: CIFDUS_clean_linker_0, # of connection points: 2
#     Edge 42, Type (0, 1), BuildingBlock: CIFDUS_clean_linker_0, # of connection points: 2
#     Edge 43, Type (0, 1), BuildingBlock: CIFDUS_clean_linker_0, # of connection points: 2
#     Edge 44, Type (0, 1), BuildingBlock: CIFDUS_clean_linker_0, # of connection points: 2
#     Edge 45, Type (0, 1), BuildingBlock: CIFDUS_clean_linker_0, # of connection points: 2
#     Edge 46, Type (0, 1), BuildingBlock: CIFDUS_clean_linker_0, # of connection points: 2
#     Edge 47, Type (0, 1), BuildingBlock: CIFDUS_clean_linker_0, # of connection points: 2
#     Edge 48, Type (0, 1), BuildingBlock: CIFDUS_clean_linker_0, # of connection points: 2
#     Edge 49, Type (0, 1), BuildingBlock: CIFDUS_clean_linker_0, # of connection points: 2
#     Edge 50, Type (0, 1), BuildingBlock: CIFDUS_clean_linker_0, # of connection points: 2
#     Edge 51, Type (0, 1), BuildingBlock: CIFDUS_clean_linker_0, # of connection points: 2
#     Edge 52, Type (0, 1), BuildingBlock: CIFDUS_clean_linker_0, # of connection points: 2
#     Edge 53, Type (0, 1), BuildingBlock: CIFDUS_clean_linker_0, # of connection points: 2
#     Edge 54, Type (0, 1), BuildingBlock: CIFDUS_clean_linker_0, # of connection points: 2
#     Edge 55, Type (0, 1), BuildingBlock: CIFDUS_clean_linker_0, # of connection points: 2
#     Edge 56, Type (0, 1), BuildingBlock: CIFDUS_clean_linker_0, # of connection points: 2
#     Edge 57, Type (0, 1), BuildingBlock: CIFDUS_clean_linker_0, # of connection points: 2
#     Edge 58, Type (0, 1), BuildingBlock: CIFDUS_clean_linker_0, # of connection points: 2
#     Edge 59, Type (0, 1), BuildingBlock: CIFDUS_clean_linker_0, # of connection points: 2
#     Edge 60, Type (0, 1), BuildingBlock: CIFDUS_clean_linker_0, # of connection points: 2
#     Edge 61, Type (0, 1), BuildingBlock: CIFDUS_clean_linker_0, # of connection points: 2
#     Edge 62, Type (0, 1), BuildingBlock: CIFDUS_clean_linker_0, # of connection points: 2
#     Edge 63, Type (0, 1), BuildingBlock: CIFDUS_clean_linker_0, # of connection points: 2
#     Edge 64, Type (0, 1), BuildingBlock: CIFDUS_clean_linker_0, # of connection points: 2
#     Edge 65, Type (0, 1), BuildingBlock: CIFDUS_clean_linker_0, # of connection points: 2
#     Edge 66, Type (0, 1), BuildingBlock: CIFDUS_clean_linker_0, # of connection points: 2
#     Edge 67, Type (0, 1), BuildingBlock: CIFDUS_clean_linker_0, # of connection points: 2
#     Edge 68, Type (0, 1), BuildingBlock: CIFDUS_clean_linker_0, # of connection points: 2
#     Edge 69, Type (0, 1), BuildingBlock: CIFDUS_clean_linker_0, # of connection points: 2
#     Edge 70, Type (0, 1), BuildingBlock: CIFDUS_clean_linker_0, # of connection points: 2
#     Edge 71, Type (0, 1), BuildingBlock: CIFDUS_clean_linker_0, # of connection points: 2
#     Edge 72, Type (0, 1), BuildingBlock: CIFDUS_clean_linker_0, # of connection points: 2
#     Edge 73, Type (0, 1), BuildingBlock: CIFDUS_clean_linker_0, # of connection points: 2
#     Edge 74, Type (0, 1), BuildingBlock: CIFDUS_clean_linker_0, # of connection points: 2
#     Edge 75, Type (0, 1), BuildingBlock: CIFDUS_clean_linker_0, # of connection points: 2
# Relax obj value: 0.048
# Max RMSD: 0.163
# Mean RMSD: 0.096
data_MOF--net-ctn--node1-TATPOV_clean_sbu_0--node2-BETDAH_clean_linker_0--edge1-CIFDUS_clean_linker_0
_symmetry_space_group_name_H-M    P1
_symmetry_Int_Tables_number       1
_symmetry_cell_setting            triclinic
loop_
_symmetry_equiv_pos_as_xyz
'x, y, z'
_cell_length_a     46.769958
_cell_length_b     46.781051
_cell_length_c     47.417111
_cell_angle_alpha  100.0794
_cell_angle_beta   91.671874
_cell_angle_gamma 96.255559
loop_
_atom_site_label
_atom_site_type_symbol
_atom_site_fract_x
_atom_site_fract_y
_atom_site_fract_z
_atom_type_partial_charge
H0 H 0.05591 0.99584 0.08176 0.0
H1 H 0.10002 0.01925 0.00938 0.0
H2 H 0.03205 0.06763 0.04347 0.0
C3 C 0.05894 0.0098 0.06586 0.0
C4 C 0.04129 0.03241 0.06538 0.0
C5 C 0.08041 0.00489 0.04593 0.0
C6 C 0.08394 0.02293 0.02522 0.0
C7 C 0.06652 0.0453 0.02396 0.0
C8 C 0.0452 0.05007 0.04411 0.0
N9 N 0.07149 0.06225 0.00198 0.0
C10 C 0.05606 0.08444 0.9957 0.0
H11 H 0.33079 0.66213 0.27328 0.0
H12 H 0.34613 0.75239 0.26473 0.0
H13 H 0.26776 0.701 0.22858 0.0
C14 C 0.32398 0.6807 0.26517 0.0
C15 C 0.29706 0.67807 0.25024 0.0
C16 C 0.3421 0.70721 0.2701 0.0
C17 C 0.3328 0.73151 0.26034 0.0
C18 C 0.30628 0.72929 0.24511 0.0
C19 C 0.28848 0.70251 0.23992 0.0
N20 N 0.29698 0.75496 0.23751 0.0
C21 C 0.28768 0.75702 0.20986 0.0
H22 H 0.06904 0.4291 0.03483 0.0
H23 H 0.05308 0.51401 0.0786 0.0
H24 H 0.00689 0.47628 0.99909 0.0
C25 C 0.05742 0.44806 0.03608 0.0
C26 C 0.0373 0.44974 0.01392 0.0
C27 C 0.06332 0.47113 0.05953 0.0
C28 C 0.0491 0.49615 0.0605 0.0
C29 C 0.02879 0.49811 0.03898 0.0
C30 C 0.02275 0.47484 0.01573 0.0
N31 N 0.01509 0.52399 0.04159 0.0
C32 C 0.9909 0.52748 0.02541 0.0
H33 H 0.81244 0.81575 0.17284 0.0
H34 H 0.77497 0.74357 0.20999 0.0
H35 H 0.79435 0.82828 0.26248 0.0
C36 C 0.80397 0.80719 0.19111 0.0
C37 C 0.80453 0.82585 0.21787 0.0
C38 C 0.7933 0.77746 0.18787 0.0
C39 C 0.78305 0.76646 0.21189 0.0
C40 C 0.78294 0.78483 0.23853 0.0
C41 C 0.79351 0.8145 0.24151 0.0
N42 N 0.7748 0.77256 0.26277 0.0
C43 C 0.74893 0.77687 0.27559 0.0
H44 H 0.09348 0.02869 0.41152 0.0
H45 H 0.13091 0.96204 0.44718 0.0
H46 H 0.04045 0.95113 0.42478 0.0
C47 C 0.09107 0.00791 0.41886 0.0
C48 C 0.0639 0.99123 0.41655 0.0
C49 C 0.1153 0.99758 0.42999 0.0
C50 C 0.11228 0.97043 0.4389 0.0
C51 C 0.08531 0.95415 0.43776 0.0
C52 C 0.06108 0.96452 0.42671 0.0
N53 N 0.08344 0.92614 0.44538 0.0
C54 C 0.06954 0.91982 0.46938 0.0
H55 H 0.26135 0.70094 0.83854 0.0
H56 H 0.21241 0.74591 0.78556 0.0
H57 H 0.2513 0.67015 0.74748 0.0
C58 C 0.25235 0.70262 0.81764 0.0
C59 C 0.25816 0.68241 0.79345 0.0
C60 C 0.23597 0.72566 0.81507 0.0
C61 C 0.22501 0.72825 0.78776 0.0
C62 C 0.23061 0.70811 0.76336 0.0
C63 C 0.24739 0.68565 0.76639 0.0
N64 N 0.22024 0.70976 0.7353 0.0
C65 C 0.19773 0.72502 0.72877 0.0
H66 H 0.94072 0.55204 0.52059 0.0
H67 H 0.98382 0.5933 0.45666 0.0
H68 H 0.94638 0.50415 0.43483 0.0
C69 C 0.94839 0.55083 0.4991 0.0
C70 C 0.94186 0.5249 0.47882 0.0
C71 C 0.96371 0.57559 0.49135 0.0
C72 C 0.97252 0.5742 0.46317 0.0
C73 C 0.96687 0.54843 0.44309 0.0
C74 C 0.95182 0.52366 0.45092 0.0
N75 N 0.97363 0.54889 0.41431 0.0
C76 C 0.99287 0.5315 0.40024 0.0
H77 H 0.89274 0.77308 0.81602 0.0
H78 H 0.90232 0.86631 0.82174 0.0
H79 H 0.84527 0.82676 0.87693 0.0
C80 C 0.88712 0.7943 0.82587 0.0
C81 C 0.86802 0.79667 0.84832 0.0
C82 C 0.89948 0.81929 0.81621 0.0
C83 C 0.89314 0.84694 0.82936 0.0
C84 C 0.8732 0.84954 0.8508 0.0
C85 C 0.86064 0.82447 0.86025 0.0
N86 N 0.86542 0.8775 0.86212 0.0
C87 C 0.83683 0.88291 0.86211 0.0
H88 H 0.38293 0.28499 0.34582 0.0
H89 H 0.35536 0.3695 0.3454 0.0
H90 H 0.33768 0.32657 0.41684 0.0
C91 C 0.37259 0.30332 0.35633 0.0
C92 C 0.36058 0.30249 0.38313 0.0
C93 C 0.3705 0.32725 0.34245 0.0
C94 C 0.35686 0.35089 0.3559 0.0
C95 C 0.34544 0.35078 0.38293 0.0
C96 C 0.34761 0.32679 0.39652 0.0
N97 N 0.33059 0.37403 0.39626 0.0
C98 C 0.31544 0.39012 0.38025 0.0
H99 H 0.55667 0.91027 0.58454 0.0
H100 H 0.55267 1.00184 0.61426 0.0
H101 H 0.51473 0.9616 0.53185 0.0
C102 C 0.54989 0.93079 0.58097 0.0
C103 C 0.53472 0.93236 0.55518 0.0
C104 C 0.55704 0.95587 0.60209 0.0
C105 C 0.54783 0.98242 0.59792 0.0
C106 C 0.53185 0.9843 0.57318 0.0
C107 C 0.52566 0.95943 0.55165 0.0
N108 N 0.52305 0.01183 0.57049 0.0
C109 C 0.50125 0.01576 0.55151 0.0
H110 H 0.29894 0.28568 0.67633 0.0
H111 H 0.25932 0.20239 0.68996 0.0
H112 H 0.25262 0.27899 0.7528 0.0
C113 C 0.2868 0.27277 0.68975 0.0
C114 C 0.27741 0.2864 0.71618 0.0
C115 C 0.28068 0.24254 0.68018 0.0
C116 C 0.26389 0.22585 0.69681 0.0
C117 C 0.25296 0.23903 0.72241 0.0
C118 C 0.25985 0.26928 0.73221 0.0
N119 N 0.23654 0.22083 0.73852 0.0
C120 C 0.2141 0.22946 0.75542 0.0
H121 H 0.79057 0.18196 0.77553 0.0
H122 H 0.79902 0.2584 0.73546 0.0
H123 H 0.71566 0.21293 0.74218 0.0
C124 C 0.78112 0.1976 0.76489 0.0
C125 C 0.75104 0.19469 0.76012 0.0
C126 C 0.79895 0.22062 0.75646 0.0
C127 C 0.78604 0.24019 0.74179 0.0
C128 C 0.75598 0.23725 0.73661 0.0
C129 C 0.73878 0.21491 0.74625 0.0
N130 N 0.74203 0.25712 0.72305 0.0
C131 C 0.75349 0.27115 0.70164 0.0
H132 H 0.55209 0.48743 0.59197 0.0
H133 H 0.58686 0.54246 0.53405 0.0
H134 H 0.52572 0.57306 0.59466 0.0
C135 C 0.55272 0.50753 0.58347 0.0
C136 C 0.53613 0.52939 0.59582 0.0
C137 C 0.57132 0.51197 0.56131 0.0
C138 C 0.57255 0.53857 0.55088 0.0
C139 C 0.5559 0.56051 0.56296 0.0
C140 C 0.53823 0.55586 0.58547 0.0
N141 N 0.5582 0.58861 0.55511 0.0
C142 C 0.56043 0.59464 0.52745 0.0
H143 H 0.57944 0.51405 0.9204 0.0
H144 H 0.60865 0.51836 0.00792 0.0
H145 H 0.5206 0.48812 0.98255 0.0
C146 C 0.57492 0.51072 0.94193 0.0
C147 C 0.54681 0.50033 0.94842 0.0
C148 C 0.59725 0.51775 0.96331 0.0
C149 C 0.59163 0.51329 0.99118 0.0
C150 C 0.56445 0.50174 0.99783 0.0
C151 C 0.54197 0.49542 0.97659 0.0
N152 N 0.56009 0.49859 0.02663 0.0
C153 C 0.5432 0.47527 0.03454 0.0
H154 H 0.7783 0.21645 0.31836 0.0
H155 H 0.71258 0.26361 0.28868 0.0
H156 H 0.76136 0.21201 0.22811 0.0
C157 C 0.76623 0.22263 0.301 0.0
C158 C 0.7721 0.21129 0.27256 0.0
C159 C 0.74489 0.24166 0.3073 0.0
C160 C 0.72921 0.24925 0.28437 0.0
C161 C 0.73525 0.23842 0.2558 0.0
C162 C 0.75678 0.21991 0.2502 0.0
N163 N 0.72073 0.24602 0.23194 0.0
C164 C 0.69362 0.25563 0.23197 0.0
H165 H 0.41019 0.06411 0.04779 0.0
H166 H 0.45986 0.10469 0.98752 0.0
H167 H 0.42333 0.0153 0.96395 0.0
C168 C 0.41966 0.06263 0.02706 0.0
C169 C 0.41451 0.03653 0.00675 0.0
C170 C 0.43616 0.08722 0.0203 0.0
C171 C 0.44764 0.08562 0.99318 0.0
C172 C 0.4438 0.05956 0.97331 0.0
C173 C 0.42738 0.03497 0.98008 0.0
N174 N 0.45424 0.05936 0.94561 0.0
C175 C 0.47494 0.04186 0.93482 0.0
Zn176 Zn 0.29435 0.82845 0.0159 0.0
Zn177 Zn 0.25333 0.86365 0.02547 0.0
O178 O 0.25341 0.84364 0.06212 0.0
O179 O 0.28737 0.81461 0.05294 0.0
O180 O 0.22402 0.89362 0.03156 0.0
O181 O 0.32467 0.86178 0.01363 0.0
O182 O 0.29092 0.89099 0.02209 0.0
C183 C 0.2684 0.82443 0.06925 0.0
C184 C 0.24966 0.81409 0.97205 0.0
O185 O 0.239 0.83565 0.98677 0.0
O186 O 0.27315 0.8064 0.98021 0.0
C187 C 0.19724 0.88955 0.03597 0.0
O188 O 0.18546 0.86313 0.03764 0.0
C189 C 0.3171 0.88726 0.01724 0.0
Zn190 Zn 0.13564 0.42866 0.26083 0.0
Zn191 Zn 0.16652 0.48103 0.26025 0.0
O192 O 0.13562 0.49197 0.28882 0.0
O193 O 0.11076 0.4495 0.2903 0.0
O194 O 0.1902 0.51948 0.25781 0.0
O195 O 0.17158 0.41342 0.27352 0.0
O196 O 0.19594 0.4569 0.27576 0.0
C197 C 0.11507 0.47695 0.29862 0.0
C198 C 0.13386 0.44447 0.20551 0.0
O199 O 0.14991 0.46691 0.21869 0.0
O200 O 0.1248 0.42431 0.21881 0.0
C201 C 0.17864 0.5428 0.25729 0.0
O202 O 0.15058 0.54212 0.25883 0.0
C203 C 0.19478 0.43041 0.27933 0.0
Zn204 Zn 0.8117 0.60531 0.93507 0.0
Zn205 Zn 0.80909 0.641 0.98778 0.0
O206 O 0.84131 0.61661 0.99391 0.0
O207 O 0.84497 0.58764 0.95259 0.0
O208 O 0.80652 0.66644 0.02631 0.0
O209 O 0.8202 0.64305 0.91864 0.0
O210 O 0.81865 0.67011 0.96142 0.0
C211 C 0.85336 0.59661 0.97864 0.0
C212 C 0.75648 0.59873 0.96099 0.0
O213 O 0.76925 0.61846 0.98057 0.0
O214 O 0.76975 0.58885 0.93908 0.0
C215 C 0.80836 0.65615 0.04931 0.0
O216 O 0.81213 0.6285 0.04776 0.0
C217 C 0.82227 0.66801 0.93468 0.0
Zn218 Zn 0.88604 0.04511 0.3044 0.0
Zn219 Zn 0.91463 0.04171 0.25657 0.0
O220 O 0.8949 0.0803 0.25851 0.0
O221 O 0.87673 0.0852 0.30131 0.0
O222 O 0.94068 0.03982 0.22233 0.0
O223 O 0.92038 0.03977 0.32834 0.0
O224 O 0.94478 0.04023 0.28944 0.0
C225 C 0.88169 0.09484 0.27842 0.0
C226 C 0.86486 0.99467 0.26217 0.0
O227 O 0.88596 0.00363 0.24819 0.0
O228 O 0.85948 0.0095 0.28603 0.0
C229 C 0.93567 0.04445 0.19704 0.0
O230 O 0.91027 0.05143 0.19007 0.0
C231 C 0.94396 0.03862 0.31604 0.0
Zn232 Zn 0.33902 0.08135 0.42684 0.0
Zn233 Zn 0.32092 0.11347 0.47546 0.0
O234 O 0.35429 0.09403 0.48995 0.0
O235 O 0.37033 0.06881 0.45117 0.0
O236 O 0.30594 0.13486 0.51163 0.0
O237 O 0.34533 0.11972 0.41171 0.0
O238 O 0.33292 0.14527 0.45218 0.0
C239 C 0.37191 0.07723 0.47814 0.0
C240 C 0.28003 0.0647 0.43738 0.0
O241 O 0.28536 0.0858 0.45844 0.0
O242 O 0.2997 0.05738 0.42072 0.0
C243 C 0.32181 0.15354 0.5298 0.0
O244 O 0.34907 0.15964 0.52478 0.0
C245 C 0.34164 0.14411 0.42685 0.0
Zn246 Zn 0.36449 0.49877 0.81182 0.0
Zn247 Zn 0.39759 0.50568 0.76754 0.0
O248 O 0.37253 0.54029 0.77044 0.0
O249 O 0.34796 0.53625 0.80873 0.0
O250 O 0.42295 0.50981 0.73365 0.0
O251 O 0.40029 0.49866 0.8368 0.0
O252 O 0.42721 0.50894 0.80168 0.0
C253 C 0.35432 0.54969 0.78836 0.0
C254 C 0.35451 0.44977 0.76655 0.0
O255 O 0.375 0.46413 0.75585 0.0
O256 O 0.34478 0.46054 0.7902 0.0
C257 C 0.44006 0.53303 0.73416 0.0
O258 O 0.44063 0.55415 0.75653 0.0
C259 C 0.4249 0.50449 0.82736 0.0
Zn260 Zn 0.79327 0.34885 0.51123 0.0
Zn261 Zn 0.75175 0.38388 0.51756 0.0
O262 O 0.74969 0.36291 0.55341 0.0
O263 O 0.7863 0.33685 0.54921 0.0
O264 O 0.72149 0.41273 0.52375 0.0
O265 O 0.82304 0.38275 0.50843 0.0
O266 O 0.78912 0.41185 0.5166 0.0
C267 C 0.76533 0.34566 0.56317 0.0
C268 C 0.75108 0.33499 0.46426 0.0
O269 O 0.74084 0.35764 0.47736 0.0
O270 O 0.77249 0.32576 0.47525 0.0
C271 C 0.69425 0.40624 0.5229 0.0
O272 O 0.68354 0.37858 0.51752 0.0
C273 C 0.81537 0.40822 0.51212 0.0
Zn274 Zn 0.62847 0.93351 0.81446 0.0
Zn275 Zn 0.65428 0.98715 0.8063 0.0
O276 O 0.62465 0.99929 0.83563 0.0
O277 O 0.60374 0.95678 0.8429 0.0
O278 O 0.67636 0.02415 0.79806 0.0
O279 O 0.66781 0.92339 0.8272 0.0
O280 O 0.68659 0.96687 0.82091 0.0
C281 C 0.60593 0.98451 0.84796 0.0
C282 C 0.62099 0.94388 0.75652 0.0
O283 O 0.63575 0.96808 0.76715 0.0
O284 O 0.61498 0.92479 0.77208 0.0
C285 C 0.66782 0.04931 0.80031 0.0
O286 O 0.64201 0.05318 0.80939 0.0
C287 C 0.68952 0.94236 0.82811 0.0
Zn288 Zn 0.01152 0.28471 0.83092 0.0
Zn289 Zn 0.0163 0.24279 0.86099 0.0
O290 O 0.05182 0.24248 0.83455 0.0
O291 O 0.04634 0.2768 0.80912 0.0
O292 O 0.02124 0.20828 0.88169 0.0
O293 O 0.01502 0.31409 0.86757 0.0
O294 O 0.01947 0.2796 0.89305 0.0
C295 C 0.06051 0.25705 0.81534 0.0
C296 C 0.96119 0.24455 0.82233 0.0
O297 O 0.97478 0.23303 0.8405 0.0
O298 O 0.97286 0.267 0.81387 0.0
C299 C 0.01727 0.20711 0.90801 0.0
O300 O 0.00844 0.22966 0.92461 0.0
C301 C 0.01841 0.3065 0.89169 0.0
Zn302 Zn 0.54785 0.79071 0.36395 0.0
Zn303 Zn 0.54901 0.7428 0.38545 0.0
O304 O 0.58756 0.74624 0.36429 0.0
O305 O 0.58802 0.78897 0.35081 0.0
O306 O 0.55096 0.70695 0.4047 0.0
O307 O 0.54024 0.81438 0.40189 0.0
O308 O 0.54758 0.77587 0.42085 0.0
C309 C 0.60019 0.76641 0.35246 0.0
C310 C 0.5019 0.74798 0.33969 0.0
O311 O 0.51133 0.73395 0.35823 0.0
O312 O 0.51491 0.77243 0.33703 0.0
C313 C 0.52844 0.69451 0.41393 0.0
O314 O 0.5036 0.7041 0.4095 0.0
C315 C 0.54283 0.80255 0.4237 0.0
Zn316 Zn 0.96835 0.79642 0.6016 0.0
Zn317 Zn 0.01603 0.78424 0.62593 0.0
O318 O 0.02932 0.81794 0.60405 0.0
O319 O 0.98886 0.83144 0.58884 0.0
O320 O 0.05247 0.7763 0.64622 0.0
O321 O 0.94826 0.79909 0.63846 0.0
O322 O 0.98919 0.79318 0.65965 0.0
C323 C 0.0161 0.83465 0.59093 0.0
C324 C 0.98265 0.73913 0.57855 0.0
O325 O 0.00271 0.74533 0.59822 0.0
O326 O 0.96583 0.75778 0.57502 0.0
C327 C 0.07618 0.77501 0.63385 0.0
O328 O 0.07716 0.77907 0.60714 0.0
C329 C 0.96275 0.79745 0.66093 0.0
Zn330 Zn 0.44166 0.30913 0.13168 0.0
Zn331 Zn 0.49343 0.29589 0.14997 0.0
O332 O 0.50354 0.33093 0.12931 0.0
O333 O 0.46168 0.34259 0.11537 0.0
O334 O 0.53204 0.2879 0.16554 0.0
O335 O 0.42914 0.31498 0.1727 0.0
O336 O 0.47131 0.30419 0.18664 0.0
C337 C 0.48892 0.34701 0.11678 0.0
C338 C 0.45424 0.25081 0.10706 0.0
O339 O 0.4773 0.25768 0.12295 0.0
O340 O 0.43604 0.26896 0.10672 0.0
C341 C 0.53351 0.26627 0.17826 0.0
O342 O 0.5099 0.24886 0.18018 0.0
C343 C 0.44635 0.31126 0.19253 0.0
H344 H 0.21833 0.71502 0.86667 0.0
H345 H 0.24475 0.78529 0.82182 0.0
H346 H 0.24621 0.82062 0.8667 0.0
H347 H 0.2472 0.83023 0.91988 0.0
H348 H 0.22305 0.7592 0.96436 0.0
H349 H 0.21298 0.72557 0.91866 0.0
C350 C 0.22397 0.73814 0.86669 0.0
C351 C 0.23179 0.74749 0.84106 0.0
C352 C 0.22518 0.7582 0.89261 0.0
C353 C 0.23863 0.77755 0.84127 0.0
C354 C 0.23964 0.79773 0.86697 0.0
C355 C 0.23863 0.80763 0.91939 0.0
C356 C 0.23537 0.79717 0.94529 0.0
C357 C 0.23388 0.78819 0.89295 0.0
C358 C 0.22516 0.76771 0.94459 0.0
C359 C 0.21974 0.74844 0.91848 0.0
H360 H 0.03939 0.55699 0.37964 0.0
H361 H 0.9931 0.47325 0.38399 0.0
H362 H 0.02782 0.44858 0.35338 0.0
H363 H 0.07017 0.4513 0.3241 0.0
H364 H 0.11613 0.53545 0.31935 0.0
H365 H 0.08277 0.5596 0.35154 0.0
C366 C 0.03717 0.53332 0.37397 0.0
C367 C 0.01405 0.51674 0.38382 0.0
C368 C 0.05702 0.5195 0.35629 0.0
C369 C 0.01097 0.48622 0.37652 0.0
C370 C 0.03072 0.47222 0.35903 0.0
C371 C 0.07301 0.47492 0.33016 0.0
C372 C 0.0956 0.49152 0.31918 0.0
C373 C 0.05367 0.48868 0.34857 0.0
C374 C 0.09894 0.52211 0.3274 0.0
C375 C 0.07985 0.53596 0.3458 0.0
H376 H 0.86102 0.79185 0.90405 0.0
H377 H 0.84924 0.74195 0.81808 0.0
H378 H 0.83391 0.69779 0.83711 0.0
H379 H 0.82519 0.67305 0.8783 0.0
H380 H 0.83582 0.72362 0.96411 0.0
H381 H 0.84974 0.76783 0.9449 0.0
C382 C 0.85463 0.77145 0.88941 0.0
C383 C 0.85648 0.77026 0.85968 0.0
C384 C 0.84567 0.74618 0.90046 0.0
C385 C 0.84851 0.74345 0.84109 0.0
C386 C 0.83961 0.71819 0.85194 0.0
C387 C 0.83048 0.69374 0.8928 0.0
C388 C 0.82961 0.6949 0.92262 0.0
C389 C 0.83842 0.71922 0.88162 0.0
C390 C 0.83633 0.722 0.94106 0.0
C391 C 0.84434 0.74735 0.93011 0.0
H392 H 0.06288 0.01191 0.36644 0.0
H393 H 0.00888 0.99198 0.43428 0.0
H394 H 0.96743 0.00638 0.40981 0.0
H395 H 0.94635 0.02314 0.36858 0.0
H396 H 0.99984 0.0415 0.29974 0.0
H397 H 0.04184 0.0296 0.32541 0.0
C398 C 0.0421 0.01107 0.37603 0.0
C399 C 0.03896 1.00096 0.40219 0.0
C400 C 0.01834 0.01909 0.36168 0.0
C401 C 0.0118 0.99948 0.41409 0.0
C402 C 0.98814 0.00781 0.40015 0.0
C403 C 0.96723 0.02482 0.35924 0.0
C404 C 0.9699 0.03329 0.33224 0.0
C405 C 0.99113 0.01743 0.37385 0.0
C406 C 0.99713 0.03505 0.32044 0.0
C407 C 0.02115 0.0282 0.3351 0.0
H408 H 0.25298 0.2013 0.63752 0.0
H409 H 0.33524 0.25218 0.66234 0.0
H410 H 0.3551 0.22951 0.61798 0.0
H411 H 0.34927 0.195 0.57229 0.0
H412 H 0.26702 0.14394 0.54743 0.0
H413 H 0.24713 0.16674 0.59169 0.0
C414 C 0.2753 0.20725 0.63329 0.0
C415 C 0.29257 0.22843 0.65318 0.0
C416 C 0.28662 0.19409 0.60773 0.0
C417 C 0.32137 0.23619 0.64722 0.0
C418 C 0.3328 0.22314 0.62192 0.0
C419 C 0.32699 0.18885 0.57651 0.0
C420 C 0.30972 0.16776 0.55653 0.0
C421 C 0.31563 0.20207 0.60201 0.0
C422 C 0.28085 0.16012 0.5624 0.0
C423 C 0.26942 0.17313 0.58774 0.0
H424 H 0.52853 0.5685 0.64423 0.0
H425 H 0.5007 0.48016 0.60162 0.0
H426 H 0.46871 0.47325 0.64039 0.0
H427 H 0.44794 0.49265 0.68628 0.0
H428 H 0.47601 0.58129 0.72822 0.0
H429 H 0.50809 0.58774 0.68972 0.0
C430 C 0.51529 0.54779 0.64322 0.0
C431 C 0.51703 0.52495 0.61985 0.0
C432 C 0.49681 0.54402 0.66552 0.0
C433 C 0.50008 0.49807 0.61939 0.0
C434 C 0.48161 0.49415 0.64151 0.0
C435 C 0.46104 0.51339 0.68698 0.0
C436 C 0.45939 0.53645 0.71023 0.0
C437 C 0.4797 0.51701 0.66467 0.0
C438 C 0.47669 0.56312 0.71072 0.0
C439 C 0.49513 0.56687 0.68866 0.0
H440 H 0.72218 0.30607 0.67762 0.0
H441 H 0.80127 0.26654 0.67146 0.0
H442 H 0.81224 0.28693 0.62818 0.0
H443 H 0.79839 0.31434 0.59139 0.0
H444 H 0.71909 0.35394 0.59704 0.0
H445 H 0.70911 0.3353 0.64134 0.0
C446 C 0.74193 0.30226 0.66685 0.0
C447 C 0.76105 0.28505 0.67751 0.0
C448 C 0.7479 0.31389 0.64191 0.0
C449 C 0.78644 0.27991 0.66354 0.0
C450 C 0.7926 0.29147 0.63881 0.0
C451 C 0.7789 0.319 0.60226 0.0
C452 C 0.75942 0.33543 0.59068 0.0
C453 C 0.77334 0.30822 0.62765 0.0
C454 C 0.73443 0.34136 0.60534 0.0
C455 C 0.72871 0.33067 0.63068 0.0
H456 H 0.55037 0.91557 0.63742 0.0
H457 H 0.60277 0.99417 0.62607 0.0
H458 H 0.62843 0.99623 0.67201 0.0
H459 H 0.63375 0.97783 0.71671 0.0
H460 H 0.58156 0.89936 0.72883 0.0
H461 H 0.55847 0.89484 0.68108 0.0
C462 C 0.56772 0.93285 0.64483 0.0
C463 C 0.57439 0.95491 0.62856 0.0
C464 C 0.58236 0.934 0.67142 0.0
C465 C 0.59685 0.97725 0.63848 0.0
C466 C 0.61161 0.9784 0.66468 0.0
C467 C 0.6175 0.95956 0.70888 0.0
C468 C 0.60923 0.93914 0.72649 0.0
C469 C 0.60415 0.95725 0.68159 0.0
C470 C 0.58831 0.91547 0.71579 0.0
C471 C 0.57501 0.91291 0.6885 0.0
H472 H 0.82732 0.20855 0.80396 0.0
H473 H 0.84285 0.24142 0.72536 0.0
H474 H 0.8942 0.25031 0.73833 0.0
H475 H 0.93455 0.25052 0.77263 0.0
H476 H 0.91987 0.21472 0.84952 0.0
H477 H 0.86836 0.2039 0.83577 0.0
C478 C 0.84181 0.21702 0.78919 0.0
C479 C 0.83074 0.22452 0.76371 0.0
C480 C 0.87159 0.22132 0.79636 0.0
C481 C 0.85029 0.23609 0.74543 0.0
C482 C 0.87983 0.24091 0.75268 0.0
C483 C 0.92013 0.24003 0.78625 0.0
C484 C 0.93101 0.23362 0.81219 0.0
C485 C 0.89065 0.23392 0.77821 0.0
C486 C 0.9121 0.21975 0.82941 0.0
C487 C 0.88262 0.21381 0.82165 0.0
H488 H 0.56838 0.88764 0.54128 0.0
H489 H 0.48918 0.91776 0.51514 0.0
H490 H 0.4843 0.87964 0.47275 0.0
H491 H 0.5043 0.83994 0.44116 0.0
H492 H 0.58008 0.80626 0.4697 0.0
H493 H 0.58381 0.84296 0.51385 0.0
C494 C 0.54953 0.88559 0.52693 0.0
C495 C 0.52963 0.90641 0.53139 0.0
C496 C 0.54616 0.86284 0.503 0.0
C497 C 0.50559 0.90305 0.51197 0.0
C498 C 0.50253 0.88096 0.48776 0.0
C499 C 0.5213 0.84038 0.45735 0.0
C500 C 0.54203 0.82074 0.45228 0.0
C501 C 0.52302 0.86118 0.48274 0.0
C502 C 0.56385 0.82117 0.47334 0.0
C503 C 0.56608 0.84227 0.49842 0.0
H504 H 0.16787 0.2514 0.73755 0.0
H505 H 0.20309 0.2171 0.80782 0.0
H506 H 0.15788 0.22112 0.83257 0.0
H507 H 0.10786 0.23422 0.83378 0.0
H508 H 0.07366 0.26921 0.76315 0.0
H509 H 0.11855 0.26482 0.73891 0.0
C510 C 0.16561 0.24514 0.75843 0.0
C511 C 0.18857 0.23433 0.77114 0.0
C512 C 0.13959 0.24732 0.77229 0.0
C513 C 0.18559 0.22584 0.79793 0.0
C514 C 0.15973 0.22796 0.81195 0.0
C515 C 0.11021 0.2406 0.81298 0.0
C516 C 0.08737 0.25194 0.8003 0.0
C517 C 0.13645 0.23851 0.79924 0.0
C518 C 0.09088 0.26046 0.77346 0.0
C519 C 0.11659 0.25804 0.75955 0.0
H520 H 0.51342 0.60408 0.49867 0.0
H521 H 0.60604 0.61661 0.50085 0.0
H522 H 0.60461 0.6473 0.46386 0.0
H523 H 0.57669 0.67426 0.4342 0.0
H524 H 0.48381 0.66237 0.4337 0.0
H525 H 0.48562 0.62778 0.46639 0.0
C526 C 0.53323 0.61299 0.49047 0.0
C527 C 0.55978 0.60791 0.50203 0.0
C528 C 0.53216 0.63109 0.46974 0.0
C529 C 0.58537 0.61996 0.49183 0.0
C530 C 0.58452 0.63769 0.47088 0.0
C531 C 0.55684 0.66384 0.44096 0.0
C532 C 0.53014 0.67124 0.43158 0.0
C533 C 0.55801 0.644 0.46015 0.0
C534 C 0.50468 0.6574 0.44064 0.0
C535 C 0.50566 0.63753 0.45939 0.0
H536 H 0.88072 0.79291 0.76327 0.0
H537 H 0.9559 0.83974 0.81172 0.0
H538 H 0.98317 0.83582 0.76791 0.0
H539 H 0.98478 0.81999 0.71526 0.0
H540 H 0.90754 0.77706 0.66717 0.0
H541 H 0.88186 0.77838 0.71127 0.0
C542 C 0.90316 0.802 0.76415 0.0
C543 C 0.91654 0.81626 0.79043 0.0
C544 C 0.9182 0.80045 0.73893 0.0
C545 C 0.94539 0.82853 0.79154 0.0
C546 C 0.96087 0.8263 0.76656 0.0
C547 C 0.96238 0.81088 0.71459 0.0
C548 C 0.94803 0.79847 0.6881 0.0
C549 C 0.94743 0.81245 0.74006 0.0
C550 C 0.91894 0.78694 0.68734 0.0
C551 C 0.90426 0.7876 0.71252 0.0
H552 H 0.09566 0.89503 0.50817 0.0
H553 H 0.01498 0.92333 0.48507 0.0
H554 H 0.99191 0.90248 0.52391 0.0
H555 H 0.99383 0.87223 0.56099 0.0
H556 H 0.07415 0.84196 0.58297 0.0
H557 H 0.09849 0.86815 0.54847 0.0
C558 C 0.07313 0.89691 0.51204 0.0
C559 C 0.05682 0.91045 0.49403 0.0
C560 C 0.06005 0.88453 0.5341 0.0
C561 C 0.02774 0.91289 0.49886 0.0
C562 C 0.01462 0.90096 0.52097 0.0
C563 C 0.01677 0.87168 0.55863 0.0
C564 C 0.03205 0.85485 0.57439 0.0
C565 C 0.03043 0.88615 0.53827 0.0
C566 C 0.06181 0.85465 0.57112 0.0
C567 C 0.07572 0.86946 0.55124 0.0
H568 H 0.19478 0.74099 0.67762 0.0
H569 H 0.1477 0.73582 0.75357 0.0
H570 H 0.10568 0.752 0.73119 0.0
H571 H 0.08176 0.76515 0.68888 0.0
H572 H 0.12929 0.76942 0.61271 0.0
H573 H 0.17167 0.75616 0.63624 0.0
C574 C 0.17538 0.74384 0.68932 0.0
C575 C 0.17412 0.73754 0.71712 0.0
C576 C 0.15137 0.75274 0.67617 0.0
C577 C 0.149 0.74087 0.73216 0.0
C578 C 0.12502 0.74995 0.71932 0.0
C579 C 0.10142 0.76331 0.67747 0.0
C580 C 0.10218 0.76813 0.64894 0.0
C581 C 0.12582 0.75556 0.69114 0.0
C582 C 0.12794 0.76575 0.63458 0.0
C583 C 0.15226 0.75816 0.64803 0.0
H584 H 0.95254 0.62845 0.48194 0.0
H585 H 0.98644 0.58535 0.54662 0.0
H586 H 0.9967 0.63249 0.57938 0.0
H587 H 0.99598 0.68633 0.58928 0.0
H588 H 0.96016 0.72792 0.52415 0.0
H589 H 0.95119 0.68111 0.49174 0.0
C590 C 0.96235 0.62942 0.50316 0.0
C591 C 0.96897 0.60363 0.51183 0.0
C592 C 0.96799 0.65636 0.52171 0.0
C593 C 0.9811 0.60501 0.53957 0.0
C594 C 0.98709 0.63193 0.55819 0.0
C595 C 0.98641 0.68506 0.56792 0.0
C596 C 0.97878 0.71053 0.55911 0.0
C597 C 0.9807 0.65782 0.54944 0.0
C598 C 0.96609 0.7086 0.5315 0.0
C599 C 0.96094 0.68186 0.51292 0.0
H600 H 0.78515 0.87485 0.24738 0.0
H601 H 0.85471 0.84598 0.196 0.0
H602 H 0.878 0.8961 0.2024 0.0
H603 H 0.88032 0.94787 0.22525 0.0
H604 H 0.8116 0.97624 0.27817 0.0
H605 H 0.78635 0.92687 0.26838 0.0
C606 C 0.80543 0.87954 0.23764 0.0
C607 C 0.81812 0.85664 0.22127 0.0
C608 C 0.81891 0.90843 0.24164 0.0
C609 C 0.84424 0.86319 0.20845 0.0
C610 C 0.85769 0.89187 0.21221 0.0
C611 C 0.85959 0.94334 0.23421 0.0
C612 C 0.84795 0.96573 0.25248 0.0
C613 C 0.84539 0.91465 0.22901 0.0
C614 C 0.82115 0.9594 0.26414 0.0
C615 C 0.8067 0.93112 0.25864 0.0
H616 H 0.82426 0.21075 0.30021 0.0
H617 H 0.76745 0.16239 0.23061 0.0
H618 H 0.79956 0.12435 0.22272 0.0
H619 H 0.84076 0.10173 0.23938 0.0
H620 H 0.89469 0.14794 0.31179 0.0
H621 H 0.86709 0.1898 0.31469 0.0
C622 C 0.81886 0.19192 0.2833 0.0
C623 C 0.79324 0.18949 0.26623 0.0
C624 C 0.83707 0.16964 0.27932 0.0
C625 C 0.78707 0.16513 0.24399 0.0
C626 C 0.80537 0.14318 0.23954 0.0
C627 C 0.84695 0.12141 0.25511 0.0
C628 C 0.86997 0.1221 0.27503 0.0
C629 C 0.83009 0.14485 0.25748 0.0
C630 C 0.87732 0.14724 0.29598 0.0
C631 C 0.86135 0.17101 0.29781 0.0
H632 H 0.42083 0.97845 0.99618 0.0
H633 H 0.36181 0.03916 0.02971 0.0
H634 H 0.3266 0.99864 0.03642 0.0
H635 H 0.31181 0.94569 0.03119 0.0
H636 H 0.37133 0.8852 0.99803 0.0
H637 H 0.40681 0.92575 0.99261 0.0
C638 C 0.40026 0.98278 0.00496 0.0
C639 C 0.394 0.01179 0.01243 0.0
C640 C 0.38006 0.95937 0.00871 0.0
C641 C 0.36735 0.01706 0.02411 0.0
C642 C 0.34709 0.99388 0.02776 0.0
C643 C 0.33255 0.94139 0.02283 0.0
C644 C 0.33873 0.91236 0.01493 0.0
C645 C 0.35309 0.9649 0.01991 0.0
C646 C 0.36587 0.90726 0.00432 0.0
C647 C 0.38625 0.93047 1.00115 0.0
H648 H 0.28198 0.36146 0.33596 0.0
H649 H 0.30947 0.44756 0.38381 0.0
H650 H 0.27634 0.46862 0.3541 0.0
H651 H 0.23679 0.46158 0.31689 0.0
H652 H 0.20781 0.37458 0.2713 0.0
H653 H 0.2445 0.35477 0.29734 0.0
C654 C 0.28078 0.38486 0.3396 0.0
C655 C 0.29774 0.40309 0.36183 0.0
C656 C 0.26145 0.39654 0.32284 0.0
C657 C 0.29635 0.4333 0.36666 0.0
C658 C 0.27746 0.44525 0.34974 0.0
C659 C 0.23891 0.43839 0.31233 0.0
C660 C 0.21962 0.41955 0.29227 0.0
C661 C 0.25954 0.42699 0.32805 0.0
C662 C 0.22234 0.38948 0.28677 0.0
C663 C 0.24325 0.37812 0.30168 0.0
H664 H 0.16476 0.97935 0.4093 0.0
H665 H 0.1297 0.05431 0.45561 0.0
H666 H 0.17779 0.08189 0.46211 0.0
H667 H 0.22994 0.08395 0.45582 0.0
H668 H 0.26459 0.00949 0.40771 0.0
H669 H 0.2165 0.98233 0.40074 0.0
C670 C 0.16775 1.00176 0.42076 0.0
C671 C 0.14394 0.01483 0.43215 0.0
C672 C 0.19531 0.01744 0.42417 0.0
C673 C 0.14782 0.04394 0.4466 0.0
C674 C 0.17526 0.05961 0.45042 0.0
C675 C 0.22695 0.06177 0.44383 0.0
C676 C 0.2508 0.04865 0.4325 0.0
C677 C 0.1992 0.04647 0.43952 0.0
C678 C 0.24656 0.02007 0.41664 0.0
C679 C 0.21909 0.00451 0.41269 0.0
H680 H 0.76058 0.13767 0.75623 0.0
H681 H 0.69938 0.19765 0.78562 0.0
H682 H 0.66819 0.15815 0.80041 0.0
H683 H 0.6582 0.10646 0.80502 0.0
H684 H 0.72022 0.04695 0.77669 0.0
H685 H 0.75127 0.08646 0.76197 0.0
C686 C 0.7406 0.14222 0.76619 0.0
C687 C 0.73237 0.17064 0.7697 0.0
C688 C 0.72286 0.11946 0.77491 0.0
C689 C 0.7061 0.17593 0.78223 0.0
C690 C 0.6883 0.15337 0.79087 0.0
C691 C 0.67852 0.10213 0.79566 0.0
C692 C 0.68676 0.0737 0.79196 0.0
C693 C 0.69641 0.12502 0.78725 0.0
C694 C 0.71326 0.06857 0.77984 0.0
C695 C 0.73107 0.09117 0.77137 0.0
H696 H 0.46196 0.05095 0.56955 0.0
H697 H 0.48952 0.99647 0.49481 0.0
H698 H 0.4513 0.01049 0.46512 0.0
H699 H 0.4108 0.03916 0.46061 0.0
H700 H 0.38351 0.09375 0.53584 0.0
H701 H 0.42084 0.07878 0.56522 0.0
C702 C 0.45938 0.04212 0.54676 0.0
C703 C 0.47819 0.02282 0.53414 0.0
C704 C 0.43754 0.05037 0.53001 0.0
C705 C 0.47503 0.01139 0.50474 0.0
C706 C 0.45328 0.01943 0.48786 0.0
C707 C 0.41297 0.04778 0.48343 0.0
C708 C 0.39437 0.06765 0.49593 0.0
C709 C 0.43452 0.03907 0.50026 0.0
C710 C 0.39749 0.07847 0.52559 0.0
C711 C 0.41885 0.06993 0.54245 0.0
H712 H 0.62917 0.51915 0.5533 0.0
H713 H 0.55596 0.45324 0.54543 0.0
H714 H 0.58721 0.41494 0.53218 0.0
H715 H 0.63559 0.39987 0.52488 0.0
H716 H 0.70915 0.4656 0.53366 0.0
H717 H 0.67762 0.50405 0.54432 0.0
C718 C 0.62003 0.49643 0.54823 0.0
C719 C 0.59022 0.48912 0.55039 0.0
C720 C 0.63826 0.47439 0.54101 0.0
C721 C 0.57882 0.45949 0.54415 0.0
C722 C 0.59669 0.43755 0.53656 0.0
C723 C 0.64478 0.42259 0.529 0.0
C724 C 0.67482 0.42968 0.52853 0.0
C725 C 0.6265 0.44469 0.53532 0.0
C726 C 0.68618 0.45936 0.53394 0.0
C727 C 0.66813 0.48144 0.54003 0.0
H728 H 0.73309 0.29705 0.33069 0.0
H729 H 0.74467 0.21329 0.35312 0.0
H730 H 0.74472 0.23435 0.40379 0.0
H731 H 0.74705 0.27752 0.44178 0.0
H732 H 0.73306 0.36089 0.42045 0.0
H733 H 0.7274 0.33882 0.36941 0.0
C734 C 0.73495 0.28319 0.34658 0.0
C735 C 0.73981 0.25374 0.33788 0.0
C736 C 0.73454 0.29538 0.37596 0.0
C737 C 0.74202 0.23625 0.35901 0.0
C738 C 0.74182 0.24821 0.38809 0.0
C739 C 0.7421 0.29071 0.42599 0.0
C740 C 0.7407 0.3208 0.4348 0.0
C741 C 0.73902 0.27792 0.39681 0.0
C742 C 0.73408 0.33763 0.4142 0.0
C743 C 0.73114 0.32505 0.38499 0.0
H744 H 0.52332 0.06666 0.91679 0.0
H745 H 0.47723 0.98352 0.92362 0.0
H746 H 0.51505 0.95808 0.89861 0.0
H747 H 0.55991 0.9598 0.8728 0.0
H748 H 0.60534 0.04337 0.86514 0.0
H749 H 0.56925 0.06841 0.89269 0.0
C750 C 0.52182 0.04297 0.91294 0.0
C751 C 0.49784 0.02678 0.92184 0.0
C752 C 0.54344 0.02868 0.8984 0.0
C753 C 0.49572 0.99621 0.91685 0.0
C754 C 0.51726 0.98176 0.90256 0.0
C755 C 0.56211 0.9835 0.87736 0.0
C756 C 0.58532 0.99964 0.86677 0.0
C757 C 0.54106 0.99779 0.89294 0.0
C758 C 0.58771 0.03035 0.87291 0.0
C759 C 0.56704 0.04472 0.88864 0.0
H760 H 0.35282 0.2458 0.35533 0.0
H761 H 0.36589 0.29825 0.44019 0.0
H762 H 0.36078 0.25403 0.46121 0.0
H763 H 0.35175 0.20034 0.4555 0.0
H764 H 0.34213 0.14835 0.37036 0.0
H765 H 0.34754 0.19261 0.3495 0.0
C766 C 0.35525 0.24772 0.37841 0.0
C767 C 0.35969 0.27553 0.39605 0.0
C768 C 0.35291 0.22222 0.39035 0.0
C769 C 0.362 0.27727 0.42599 0.0
C770 C 0.35925 0.25195 0.43807 0.0
C771 C 0.35093 0.19873 0.43238 0.0
C772 C 0.34638 0.17109 0.41452 0.0
C773 C 0.35445 0.22431 0.42046 0.0
C774 C 0.34567 0.16933 0.38461 0.0
C775 C 0.34868 0.19464 0.37264 0.0
H776 H 0.53971 0.53114 0.90485 0.0
H777 H 0.49839 0.46003 0.9418 0.0
H778 H 0.45712 0.45573 0.90825 0.0
H779 H 0.43221 0.47256 0.86887 0.0
H780 H 0.4756 0.53974 0.82855 0.0
H781 H 0.51713 0.54443 0.86245 0.0
C782 C 0.52214 0.51414 0.90531 0.0
C783 C 0.52241 0.49616 0.92634 0.0
C784 C 0.49878 0.51102 0.88524 0.0
C785 C 0.49877 0.47479 0.92658 0.0
C786 C 0.47515 0.47209 0.90716 0.0
C787 C 0.45083 0.48817 0.86748 0.0
C788 C 0.45078 0.50602 0.84649 0.0
C789 C 0.47481 0.49026 0.88659 0.0
C790 C 0.47517 0.52579 0.84455 0.0
C791 C 0.49884 0.52853 0.86398 0.0
H792 H 0.80799 0.72191 0.1774 0.0
H793 H 0.77983 0.78899 0.13476 0.0
H794 H 0.78242 0.75762 0.08823 0.0
H795 H 0.79284 0.71125 0.05963 0.0
H796 H 0.81943 0.64355 0.10235 0.0
H797 H 0.81682 0.67492 0.14889 0.0
C798 C 0.80202 0.72954 0.15797 0.0
C799 C 0.7938 0.75783 0.15963 0.0
C800 C 0.80327 0.71128 0.13128 0.0
C801 C 0.78663 0.7675 0.13414 0.0
C802 C 0.78796 0.74951 0.10751 0.0
C803 C 0.79808 0.70335 0.07911 0.0
C804 C 0.80641 0.67512 0.07748 0.0
C805 C 0.79637 0.72142 0.10582 0.0
C806 C 0.81293 0.66517 0.10296 0.0
C807 C 0.81148 0.68311 0.12961 0.0
H808 H 0.04501 0.02907 0.12243 0.0
H809 H 0.98639 0.04632 0.0571 0.0
H810 H 0.94898 0.05224 0.09188 0.0
H811 H 0.93228 0.0511 0.14069 0.0
H812 H 0.99085 0.03237 0.20535 0.0
H813 H 0.0285 0.02796 0.1709 0.0
C814 C 0.02399 0.03386 0.11563 0.0
C815 C 0.01868 0.0371 0.08698 0.0
C816 C 0.00238 0.03683 0.13567 0.0
C817 C 0.99138 0.044 0.07897 0.0
C818 C 0.96983 0.04718 0.09885 0.0
C819 C 0.95327 0.04607 0.14729 0.0
C820 C 0.95854 0.04202 0.17571 0.0
C821 C 0.975 0.04346 0.12724 0.0
C822 C 0.98599 0.03555 0.18372 0.0
C823 C 0.00764 0.03304 0.16399 0.0
H824 H 0.26032 0.80116 0.19668 0.0
H825 H 0.30201 0.72659 0.15993 0.0
H826 H 0.29758 0.73991 0.1124 0.0
H827 H 0.2854 0.77467 0.08229 0.0
H828 H 0.24404 0.8499 0.1183 0.0
H829 H 0.24435 0.83427 0.16511 0.0
C830 C 0.26793 0.78764 0.17808 0.0
C831 C 0.28136 0.76289 0.18151 0.0
C832 C 0.26553 0.79568 0.15086 0.0
C833 C 0.29144 0.7456 0.15756 0.0
C834 C 0.28902 0.7533 0.13048 0.0
C835 C 0.27622 0.78762 0.10029 0.0
C836 C 0.26501 0.81366 0.09683 0.0
C837 C 0.27666 0.7786 0.12701 0.0
C838 C 0.25284 0.82983 0.12034 0.0
C839 C 0.25314 0.82095 0.14713 0.0
H840 H 0.06617 0.4244 0.08588 0.0
H841 H 0.10466 0.51291 0.08807 0.0
H842 H 0.13216 0.51157 0.13233 0.0
H843 H 0.14162 0.48687 0.17273 0.0
H844 H 0.10233 0.39854 0.17066 0.0
H845 H 0.07934 0.39804 0.12378 0.0
C846 C 0.08107 0.44316 0.09568 0.0
C847 C 0.08312 0.46881 0.08388 0.0
C848 C 0.09656 0.44235 0.12128 0.0
C849 C 0.10232 0.49305 0.09702 0.0
C850 C 0.1181 0.49229 0.12229 0.0
C851 C 0.12839 0.46735 0.16185 0.0
C852 C 0.12346 0.44294 0.17541 0.0
C853 C 0.11481 0.46732 0.13502 0.0
C854 C 0.1063 0.41778 0.1609 0.0
C855 C 0.09308 0.41746 0.13406 0.0
H856 H 0.39329 0.73128 0.25476 0.0
H857 H 0.35501 0.68818 0.32003 0.0
H858 H 0.40184 0.69393 0.34621 0.0
H859 H 0.45341 0.71454 0.35216 0.0
H860 H 0.49041 0.75825 0.28655 0.0
H861 H 0.44468 0.74866 0.25891 0.0
C862 C 0.3952 0.72319 0.27475 0.0
C863 C 0.37067 0.70962 0.28557 0.0
C864 C 0.4221 0.72659 0.28963 0.0
C865 C 0.3736 0.6987 0.31121 0.0
C866 C 0.40037 0.70204 0.32622 0.0
C867 C 0.45152 0.7214 0.33155 0.0
C868 C 0.47526 0.73723 0.32153 0.0
C869 C 0.42477 0.7163 0.31583 0.0
C870 C 0.47242 0.74622 0.29488 0.0
C871 C 0.44623 0.74084 0.27905 0.0
H872 H 0.03342 0.39062 0.01259 0.0
H873 H 0.03017 0.45503 0.95782 0.0
H874 H 0.02313 0.41639 0.91576 0.0
H875 H 0.01933 0.36485 0.89432 0.0
H876 H 0.02421 0.29977 0.94804 0.0
H877 H 0.02967 0.3383 0.99073 0.0
C878 C 0.03137 0.39623 0.99144 0.0
C879 C 0.03224 0.4258 0.98848 0.0
C880 C 0.0278 0.37384 0.96716 0.0
C881 C 0.02909 0.43254 0.96088 0.0
C882 C 0.02531 0.41045 0.93674 0.0
C883 C 0.02153 0.35893 0.91533 0.0
C884 C 0.02139 0.32938 0.9179 0.0
C885 C 0.02478 0.38109 0.93963 0.0
C886 C 0.02429 0.32231 0.94539 0.0
C887 C 0.0274 0.34434 0.96981 0.0
H888 H 0.72012 0.73748 0.30232 0.0
H889 H 0.71749 0.82203 0.27877 0.0
H890 H 0.67112 0.8264 0.30106 0.0
H891 H 0.63142 0.80593 0.32658 0.0
H892 H 0.63342 0.7211 0.35024 0.0
H893 H 0.68007 0.71703 0.32864 0.0
C894 C 0.70928 0.75682 0.30221 0.0
C895 C 0.72186 0.77947 0.28908 0.0
C896 C 0.68266 0.75906 0.31502 0.0
C897 C 0.70796 0.80445 0.28886 0.0
C898 C 0.68154 0.80689 0.30156 0.0
C899 C 0.64199 0.7865 0.32712 0.0
C900 C 0.62881 0.76381 0.34004 0.0
C901 C 0.66867 0.7843 0.31462 0.0
C902 C 0.64299 0.73889 0.34047 0.0
C903 C 0.66967 0.73654 0.32809 0.0
H904 H 0.05501 0.09041 0.94076 0.0
H905 H 0.03249 0.13099 0.02453 0.0
H906 H 0.01748 0.17246 0.00459 0.0
H907 H 0.01281 0.19802 0.96344 0.0
H908 H 0.03631 0.15712 0.87981 0.0
H909 H 0.04879 0.11503 0.89948 0.0
C910 C 0.04647 0.10823 0.95452 0.0
C911 C 0.04459 0.10773 0.98395 0.0
C912 C 0.03825 0.13202 0.94292 0.0
C913 C 0.03386 0.13093 0.00174 0.0
C914 C 0.02541 0.15464 0.99034 0.0
C915 C 0.02052 0.17986 0.94945 0.0
C916 C 0.02367 0.18095 0.9201 0.0
C917 C 0.02782 0.1556 0.96098 0.0
C918 C 0.03369 0.15707 0.90242 0.0
C919 C 0.04086 0.13291 0.91367 0.0
H920 H 0.42194 0.31201 0.32305 0.0
H921 H 0.34301 0.34172 0.2964 0.0
H922 H 0.35987 0.34029 0.24799 0.0
H923 H 0.39637 0.32939 0.21294 0.0
H924 H 0.47538 0.29945 0.23931 0.0
H925 H 0.45908 0.3021 0.28805 0.0
C926 C 0.40843 0.31806 0.30658 0.0
C927 C 0.38129 0.32696 0.31329 0.0
C928 C 0.41823 0.31712 0.27875 0.0
C929 C 0.36413 0.33511 0.29186 0.0
C930 C 0.37368 0.33414 0.26414 0.0
C931 C 0.4101 0.32351 0.22934 0.0
C932 C 0.43702 0.31415 0.22239 0.0
C933 C 0.40062 0.32506 0.25731 0.0
C934 C 0.45455 0.30676 0.24401 0.0
C935 C 0.44523 0.3082 0.27191 0.0
H936 H 0.56821 0.4423 0.06612 0.0
H937 H 0.4864 0.45587 0.02979 0.0
H938 H 0.4621 0.4171 0.05243 0.0
H939 H 0.46436 0.38008 0.08309 0.0
H940 H 0.5465 0.36642 0.11934 0.0
H941 H 0.57055 0.40459 0.09626 0.0
C942 C 0.54508 0.43651 0.0631 0.0
C943 C 0.52892 0.45152 0.04639 0.0
C944 C 0.53142 0.4144 0.07626 0.0
C945 C 0.49906 0.44429 0.04255 0.0
C946 C 0.48526 0.42226 0.05553 0.0
C947 C 0.48752 0.38545 0.08604 0.0
C948 C 0.50357 0.37042 0.10307 0.0
C949 C 0.50122 0.4073 0.07257 0.0
C950 C 0.53359 0.37761 0.10642 0.0
C951 C 0.54738 0.39943 0.09321 0.0
H952 H 0.64336 0.22163 0.22951 0.0
H953 H 0.68144 0.30722 0.21998 0.0
H954 H 0.63475 0.3186 0.20278 0.0
H955 H 0.58374 0.30292 0.18776 0.0
H956 H 0.54572 0.21709 0.19745 0.0
H957 H 0.59158 0.20703 0.21721 0.0
C958 C 0.64115 0.24293 0.22415 0.0
C959 C 0.66543 0.26374 0.22617 0.0
C960 C 0.61437 0.24909 0.21395 0.0
C961 C 0.66275 0.2911 0.21884 0.0
C962 C 0.63616 0.29749 0.20883 0.0
C963 C 0.58548 0.28203 0.19423 0.0
C964 C 0.56135 0.2607 0.19086 0.0
C965 C 0.61192 0.27644 0.2058 0.0
C966 C 0.56393 0.23388 0.19968 0.0
C967 C 0.59017 0.22809 0.21102 0.0
H968 H 0.4203 0.13887 0.01217 0.0
H969 H 0.46187 0.0978 0.07407 0.0
H970 H 0.47221 0.14518 0.10645 0.0
H971 H 0.47011 0.1987 0.11646 0.0
H972 H 0.42548 0.23844 0.05525 0.0
H973 H 0.41576 0.1913 0.02319 0.0
C974 C 0.43152 0.1404 0.03283 0.0
C975 C 0.44049 0.11517 0.04081 0.0
C976 C 0.43696 0.16746 0.05131 0.0
C977 C 0.45473 0.11709 0.06766 0.0
C978 C 0.46074 0.14413 0.08604 0.0
C979 C 0.45834 0.19694 0.09606 0.0
C980 C 0.4487 0.22198 0.0881 0.0
C981 C 0.45215 0.16954 0.07798 0.0
C982 C 0.43308 0.21944 0.06184 0.0
C983 C 0.42753 0.19252 0.04348 0.0
H984 H 0.32873 0.31751 0.70821 0.0
H985 H 0.24815 0.32719 0.7493 0.0
H986 H 0.26485 0.3784 0.76817 0.0
H987 H 0.30249 0.42037 0.77338 0.0
H988 H 0.38102 0.41144 0.72874 0.0
H989 H 0.36422 0.36014 0.70976 0.0
C990 C 0.31432 0.33078 0.72066 0.0
C991 C 0.28705 0.3181 0.72718 0.0
C992 C 0.32361 0.36049 0.73063 0.0
C993 C 0.26941 0.3359 0.74425 0.0
C994 C 0.27883 0.36536 0.75485 0.0
C995 C 0.31584 0.40725 0.75931 0.0
C996 C 0.34306 0.41967 0.7526 0.0
C997 C 0.30593 0.37784 0.74827 0.0
C998 C 0.35997 0.40247 0.73414 0.0
C999 C 0.35044 0.37309 0.72344 0.0
H1000 H 0.29973 0.6601 0.75917 0.0
H1001 H 0.25385 0.64854 0.83484 0.0
H1002 H 0.28013 0.60748 0.84025 0.0
H1003 H 0.31506 0.57413 0.82315 0.0
H1004 H 0.36073 0.58428 0.74705 0.0
H1005 H 0.33541 0.62643 0.74207 0.0
C1006 C 0.29535 0.64848 0.77675 0.0
C1007 C 0.27481 0.65757 0.79661 0.0
C1008 C 0.31044 0.62458 0.77964 0.0
C1009 C 0.26978 0.64243 0.81947 0.0
C1010 C 0.28468 0.61877 0.82249 0.0
C1011 C 0.31962 0.58552 0.80544 0.0
C1012 C 0.3398 0.57588 0.78546 0.0
C1013 C 0.30495 0.6096 0.80267 0.0
C1014 C 0.34532 0.59111 0.76275 0.0
C1015 C 0.33081 0.61522 0.75988 0.0
H1016 H 0.89053 0.52702 0.50387 0.0
H1017 H 0.94962 0.46706 0.4688 0.0
H1018 H 0.9162 0.42577 0.47735 0.0
H1019 H 0.86949 0.40672 0.49292 0.0
H1020 H 0.80938 0.46654 0.52611 0.0
H1021 H 0.84404 0.50794 0.52039 0.0
C1022 C 0.89624 0.50493 0.49851 0.0
C1023 C 0.92255 0.50005 0.48586 0.0
C1024 C 0.87671 0.48131 0.50302 0.0
C1025 C 0.92946 0.4713 0.47848 0.0
C1026 C 0.91038 0.44773 0.48339 0.0
C1027 C 0.86399 0.42881 0.49913 0.0
C1028 C 0.83681 0.43347 0.50994 0.0
C1029 C 0.88382 0.45247 0.49534 0.0
C1030 C 0.83007 0.46228 0.51767 0.0
C1031 C 0.84989 0.48598 0.5144 0.0
H1032 H 0.82093 0.93459 0.85638 0.0
H1033 H 0.78808 0.84589 0.8605 0.0
H1034 H 0.73871 0.85666 0.85147 0.0
H1035 H 0.70539 0.89103 0.84021 0.0
H1036 H 0.73922 0.97962 0.83526 0.0
H1037 H 0.78761 0.96927 0.8469 0.0
C1038 C 0.80282 0.9178 0.85559 0.0
C1039 C 0.8077 0.88965 0.85919 0.0
C1040 C 0.77477 0.92412 0.85009 0.0
C1041 C 0.78446 0.86781 0.85793 0.0
C1042 C 0.75636 0.87395 0.85268 0.0
C1043 C 0.72331 0.90812 0.84186 0.0
C1044 C 0.71859 0.93603 0.83671 0.0
C1045 C 0.75129 0.90198 0.8484 0.0
C1046 C 0.74214 0.9579 0.83896 0.0
C1047 C 0.7699 0.95203 0.84563 0.0
H1048 H 0.63007 0.56377 0.99549 0.0
H1049 H 0.6296 0.50085 0.91722 0.0
H1050 H 0.67862 0.52089 0.9089 0.0
H1051 H 0.72237 0.55515 0.92516 0.0
H1052 H 0.72221 0.61699 0.00437 0.0
H1053 H 0.67285 0.59818 0.01116 0.0
C1054 C 0.64075 0.55429 0.97668 0.0
C1055 C 0.62634 0.53068 0.95716 0.0
C1056 C 0.6689 0.56563 0.97228 0.0
C1057 C 0.64019 0.51913 0.93252 0.0
C1058 C 0.66827 0.53046 0.92786 0.0
C1059 C 0.71151 0.56455 0.94386 0.0
C1060 C 0.72613 0.58738 0.96426 0.0
C1061 C 0.68296 0.55354 0.94778 0.0
C1062 C 0.71164 0.59934 0.98834 0.0
C1063 C 0.68334 0.58863 0.99228 0.0
H1064 H 0.2393 0.67061 0.25803 0.0
H1065 H 0.31144 0.62251 0.2354 0.0
H1066 H 0.28127 0.57654 0.23547 0.0
H1067 H 0.23497 0.55003 0.24402 0.0
H1068 H 0.16246 0.59792 0.26564 0.0
H1069 H 0.1921 0.64378 0.26363 0.0
C1070 C 0.24829 0.65005 0.2526 0.0
C1071 C 0.27768 0.65009 0.24695 0.0
C1072 C 0.2308 0.62361 0.25272 0.0
C1073 C 0.28901 0.62319 0.24027 0.0
C1074 C 0.27176 0.59685 0.24025 0.0
C1075 C 0.22562 0.57049 0.24827 0.0
C1076 C 0.19657 0.57049 0.25521 0.0
C1077 C 0.24275 0.59682 0.24691 0.0
C1078 C 0.18476 0.59722 0.26032 0.0
C1079 C 0.20171 0.6235 0.25918 0.0
H1080 H 0.95477 0.56183 0.05167 0.0
H1081 H 0.97061 0.51086 0.97008 0.0
H1082 H 0.92833 0.52707 0.94807 0.0
H1083 H 0.88787 0.5573 0.95216 0.0
H1084 H 0.87332 0.60867 0.03442 0.0
H1085 H 0.91398 0.59072 0.05606 0.0
C1086 C 0.94873 0.55418 0.02911 0.0
C1087 C 0.96537 0.53529 0.01236 0.0
C1088 C 0.92474 0.56375 0.01677 0.0
C1089 C 0.95779 0.52543 0.98321 0.0
C1090 C 0.93374 0.53473 0.97071 0.0
C1091 C 0.89351 0.56445 0.97484 0.0
C1092 C 0.87754 0.58443 0.99155 0.0
C1093 C 0.91717 0.55413 0.98726 0.0
C1094 C 0.88522 0.59343 0.02094 0.0
C1095 C 0.9085 0.58318 0.03341 0.0
H1096 H 0.13835 0.00587 0.0385 0.0
H1097 H 0.06374 0.9489 0.05388 0.0
H1098 H 0.09312 0.90868 0.05291 0.0
H1099 H 0.13984 0.88909 0.04636 0.0
H1100 H 0.21433 0.94611 0.03059 0.0
H1101 H 0.18516 0.98656 0.03278 0.0
C1102 C 0.12844 0.98462 0.04149 0.0
C1103 C 0.09875 0.98057 0.04622 0.0
C1104 C 0.14548 0.96144 0.04074 0.0
C1105 C 0.08652 0.9529 0.05053 0.0
C1106 C 0.10332 0.92976 0.04979 0.0
C1107 C 0.14976 0.91036 0.04346 0.0
C1108 C 0.17935 0.91435 0.03822 0.0
C1109 C 0.1328 0.9337 0.04476 0.0
C1110 C 0.19169 0.94223 0.03462 0.0
C1111 C 0.17498 0.96546 0.03585 0.0
loop_
_geom_bond_atom_site_label_1
_geom_bond_atom_site_label_2
_geom_bond_distance
_geom_bond_site_symmetry_2
_ccdc_geom_bond_type
H0 C3 0.929 . S
H1 C6 0.929 . S
H2 C8 0.930 . S
C3 H0 0.929 . S
C3 C4 1.398 . S
C3 C5 1.396 . S
C4 C3 1.398 . S
C4 C8 1.407 . S
C5 C3 1.396 . S
C5 C6 1.394 . S
C6 H1 0.929 . S
C6 C5 1.394 . S
C6 C7 1.382 . S
C7 C6 1.382 . S
C7 C8 1.392 . S
C7 N9 1.420 . S
C8 H2 0.930 . S
C8 C4 1.407 . S
C8 C7 1.392 . S
N9 C7 1.420 . S
N9 C10 1.244 . S
C10 N9 1.244 . S
H11 C14 0.929 . S
H12 C17 0.929 . S
H13 C19 0.930 . S
C14 H11 0.929 . S
C14 C15 1.398 . S
C14 C16 1.396 . S
C15 C14 1.398 . S
C15 C19 1.407 . S
C16 C14 1.396 . S
C16 C17 1.394 . S
C17 H12 0.929 . S
C17 C16 1.394 . S
C17 C18 1.382 . S
C18 C17 1.382 . S
C18 C19 1.392 . S
C18 N20 1.420 . S
C19 H13 0.930 . S
C19 C15 1.407 . S
C19 C18 1.392 . S
N20 C18 1.420 . S
N20 C21 1.244 . S
C21 N20 1.244 . S
H22 C25 0.929 1_455 S
H23 C28 0.929 . S
H24 C30 0.930 . S
C25 H22 0.929 1_655 S
C25 C26 1.398 . S
C25 C27 1.396 . S
C26 C25 1.398 . S
C26 C30 1.407 . S
C27 C25 1.396 . S
C27 C28 1.394 . S
C28 H23 0.929 . S
C28 C27 1.394 . S
C28 C29 1.382 . S
C29 C28 1.382 . S
C29 C30 1.392 . S
C29 N31 1.420 . S
C30 H24 0.930 . S
C30 C26 1.407 . S
C30 C29 1.392 . S
N31 C29 1.420 . S
N31 C32 1.244 . S
C32 N31 1.244 . S
H33 C36 0.929 . S
H34 C39 0.929 . S
H35 C41 0.930 . S
C36 H33 0.929 . S
C36 C37 1.398 . S
C36 C38 1.396 . S
C37 C36 1.398 . S
C37 C41 1.407 . S
C38 C36 1.396 . S
C38 C39 1.394 . S
C39 H34 0.929 . S
C39 C38 1.394 . S
C39 C40 1.382 . S
C40 C39 1.382 . S
C40 C41 1.392 . S
C40 N42 1.420 . S
C41 H35 0.930 . S
C41 C37 1.407 . S
C41 C40 1.392 . S
N42 C40 1.420 . S
N42 C43 1.244 . S
C43 N42 1.244 . S
H44 C47 0.929 . S
H45 C50 0.929 . S
H46 C52 0.930 . S
C47 H44 0.929 . S
C47 C48 1.398 . S
C47 C49 1.396 . S
C48 C47 1.398 . S
C48 C52 1.407 . S
C49 C47 1.396 . S
C49 C50 1.394 . S
C50 H45 0.929 . S
C50 C49 1.394 . S
C50 C51 1.382 . S
C51 C50 1.382 . S
C51 C52 1.392 . S
C51 N53 1.420 . S
C52 H46 0.930 . S
C52 C48 1.407 . S
C52 C51 1.392 . S
N53 C51 1.420 . S
N53 C54 1.244 . S
C54 N53 1.244 . S
H55 C58 0.929 . S
H56 C61 0.929 . S
H57 C63 0.930 . S
C58 H55 0.929 . S
C58 C59 1.398 . S
C58 C60 1.396 . S
C59 C58 1.398 . S
C59 C63 1.407 . S
C60 C58 1.396 . S
C60 C61 1.394 . S
C61 H56 0.929 . S
C61 C60 1.394 . S
C61 C62 1.382 . S
C62 C61 1.382 . S
C62 C63 1.392 . S
C62 N64 1.420 . S
C63 H57 0.930 . S
C63 C59 1.407 . S
C63 C62 1.392 . S
N64 C62 1.420 . S
N64 C65 1.244 . S
C65 N64 1.244 . S
H66 C69 0.929 . S
H67 C72 0.929 1_455 S
H68 C74 0.930 . S
C69 H66 0.929 . S
C69 C70 1.398 . S
C69 C71 1.396 . S
C70 C69 1.398 . S
C70 C74 1.407 . S
C71 C69 1.396 . S
C71 C72 1.394 . S
C72 H67 0.929 1_655 S
C72 C71 1.394 . S
C72 C73 1.382 . S
C73 C72 1.382 . S
C73 C74 1.392 . S
C73 N75 1.420 1_655 S
C74 H68 0.930 . S
C74 C70 1.407 . S
C74 C73 1.392 . S
N75 C73 1.420 1_455 S
N75 C76 1.244 . S
C76 N75 1.244 . S
H77 C80 0.929 . S
H78 C83 0.929 . S
H79 C85 0.930 . S
C80 H77 0.929 . S
C80 C81 1.398 . S
C80 C82 1.396 . S
C81 C80 1.398 . S
C81 C85 1.407 . S
C82 C80 1.396 . S
C82 C83 1.394 . S
C83 H78 0.929 . S
C83 C82 1.394 . S
C83 C84 1.382 . S
C84 C83 1.382 . S
C84 C85 1.392 . S
C84 N86 1.420 . S
C85 H79 0.930 . S
C85 C81 1.407 . S
C85 C84 1.392 . S
N86 C84 1.420 . S
N86 C87 1.244 . S
C87 N86 1.244 . S
H88 C91 0.929 . S
H89 C94 0.929 . S
H90 C96 0.930 . S
C91 H88 0.929 . S
C91 C92 1.398 . S
C91 C93 1.396 . S
C92 C91 1.398 . S
C92 C96 1.407 . S
C93 C91 1.396 . S
C93 C94 1.394 . S
C94 H89 0.929 . S
C94 C93 1.394 . S
C94 C95 1.382 . S
C95 C94 1.382 . S
C95 C96 1.392 . S
C95 N97 1.420 . S
C96 H90 0.930 . S
C96 C92 1.407 . S
C96 C95 1.392 . S
N97 C95 1.420 . S
N97 C98 1.244 . S
C98 N97 1.244 . S
H99 C102 0.929 . S
H100 C105 0.929 1_545 S
H101 C107 0.930 . S
C102 H99 0.929 . S
C102 C103 1.398 . S
C102 C104 1.396 . S
C103 C102 1.398 . S
C103 C107 1.407 . S
C104 C102 1.396 . S
C104 C105 1.394 . S
C105 H100 0.929 1_565 S
C105 C104 1.394 . S
C105 C106 1.382 . S
C106 C105 1.382 . S
C106 C107 1.392 . S
C106 N108 1.420 . S
C107 H101 0.930 . S
C107 C103 1.407 . S
C107 C106 1.392 . S
N108 C106 1.420 . S
N108 C109 1.244 1_565 S
C109 N108 1.244 1_545 S
H110 C113 0.929 . S
H111 C116 0.929 . S
H112 C118 0.930 . S
C113 H110 0.929 . S
C113 C114 1.398 . S
C113 C115 1.396 . S
C114 C113 1.398 . S
C114 C118 1.407 . S
C115 C113 1.396 . S
C115 C116 1.394 . S
C116 H111 0.929 . S
C116 C115 1.394 . S
C116 C117 1.382 . S
C117 C116 1.382 . S
C117 C118 1.392 . S
C117 N119 1.420 . S
C118 H112 0.930 . S
C118 C114 1.407 . S
C118 C117 1.392 . S
N119 C117 1.420 . S
N119 C120 1.244 . S
C120 N119 1.244 . S
H121 C124 0.929 . S
H122 C127 0.929 . S
H123 C129 0.930 . S
C124 H121 0.929 . S
C124 C125 1.398 . S
C124 C126 1.396 . S
C125 C124 1.398 . S
C125 C129 1.407 . S
C126 C124 1.396 . S
C126 C127 1.394 . S
C127 H122 0.929 . S
C127 C126 1.394 . S
C127 C128 1.382 . S
C128 C127 1.382 . S
C128 C129 1.392 . S
C128 N130 1.420 . S
C129 H123 0.930 . S
C129 C125 1.407 . S
C129 C128 1.392 . S
N130 C128 1.420 . S
N130 C131 1.244 . S
C131 N130 1.244 . S
H132 C135 0.929 . S
H133 C138 0.929 . S
H134 C140 0.930 . S
C135 H132 0.929 . S
C135 C136 1.398 . S
C135 C137 1.396 . S
C136 C135 1.398 . S
C136 C140 1.407 . S
C137 C135 1.396 . S
C137 C138 1.394 . S
C138 H133 0.929 . S
C138 C137 1.394 . S
C138 C139 1.382 . S
C139 C138 1.382 . S
C139 C140 1.392 . S
C139 N141 1.420 . S
C140 H134 0.930 . S
C140 C136 1.407 . S
C140 C139 1.392 . S
N141 C139 1.420 . S
N141 C142 1.244 . S
C142 N141 1.244 . S
H143 C146 0.929 . S
H144 C149 0.929 1_554 S
H145 C151 0.930 . S
C146 H143 0.929 . S
C146 C147 1.398 . S
C146 C148 1.396 . S
C147 C146 1.398 . S
C147 C151 1.407 . S
C148 C146 1.396 . S
C148 C149 1.394 . S
C149 H144 0.929 1_556 S
C149 C148 1.394 . S
C149 C150 1.382 . S
C150 C149 1.382 . S
C150 C151 1.392 . S
C150 N152 1.420 1_556 S
C151 H145 0.930 . S
C151 C147 1.407 . S
C151 C150 1.392 . S
N152 C150 1.420 1_554 S
N152 C153 1.244 . S
C153 N152 1.244 . S
H154 C157 0.929 . S
H155 C160 0.929 . S
H156 C162 0.930 . S
C157 H154 0.929 . S
C157 C158 1.398 . S
C157 C159 1.396 . S
C158 C157 1.398 . S
C158 C162 1.407 . S
C159 C157 1.396 . S
C159 C160 1.394 . S
C160 H155 0.929 . S
C160 C159 1.394 . S
C160 C161 1.382 . S
C161 C160 1.382 . S
C161 C162 1.392 . S
C161 N163 1.420 . S
C162 H156 0.930 . S
C162 C158 1.407 . S
C162 C161 1.392 . S
N163 C161 1.420 . S
N163 C164 1.244 . S
C164 N163 1.244 . S
H165 C168 0.929 . S
H166 C171 0.929 . S
H167 C173 0.930 . S
C168 H165 0.929 . S
C168 C169 1.398 . S
C168 C170 1.396 . S
C169 C168 1.398 . S
C169 C173 1.407 . S
C170 C168 1.396 . S
C170 C171 1.394 . S
C171 H166 0.929 . S
C171 C170 1.394 . S
C171 C172 1.382 . S
C172 C171 1.382 . S
C172 C173 1.392 . S
C172 N174 1.420 . S
C173 H167 0.930 . S
C173 C169 1.407 . S
C173 C172 1.392 . S
N174 C172 1.420 . S
N174 C175 1.244 . S
C175 N174 1.244 . S
Zn176 O179 2.031 . S
Zn176 O181 2.049 . S
Zn176 O186 2.067 1_554 S
Zn177 O178 1.962 . S
Zn177 O180 1.986 . S
Zn177 O182 1.996 . S
Zn177 O185 1.943 . S
O178 Zn177 1.962 . S
O178 C183 1.254 . S
O179 Zn176 2.031 . S
O179 C183 1.269 . S
O180 Zn177 1.986 . S
O180 C187 1.262 . S
O181 Zn176 2.049 . S
O181 C189 1.260 . S
O182 Zn177 1.996 . S
O182 C189 1.257 . S
C183 O178 1.254 . S
C183 O179 1.269 . S
C184 O185 1.249 1_556 S
C184 O186 1.270 . S
O185 Zn177 1.943 . S
O185 C184 1.249 1_554 S
O186 Zn176 2.067 1_556 S
O186 C184 1.270 . S
C187 O180 1.262 . S
C187 O188 1.232 . S
O188 C187 1.232 . S
C189 O181 1.260 . S
C189 O182 1.257 . S
Zn190 O193 2.031 . S
Zn190 O195 2.049 . S
Zn190 O200 2.067 . S
Zn191 O192 1.962 . S
Zn191 O194 1.986 . S
Zn191 O196 1.996 . S
Zn191 O199 1.943 . S
O192 Zn191 1.962 . S
O192 C197 1.254 . S
O193 Zn190 2.031 . S
O193 C197 1.269 . S
O194 Zn191 1.986 . S
O194 C201 1.262 . S
O195 Zn190 2.049 . S
O195 C203 1.260 . S
O196 Zn191 1.996 . S
O196 C203 1.257 . S
C197 O192 1.254 . S
C197 O193 1.269 . S
C198 O199 1.249 . S
C198 O200 1.270 . S
O199 Zn191 1.943 . S
O199 C198 1.249 . S
O200 Zn190 2.067 . S
O200 C198 1.270 . S
C201 O194 1.262 . S
C201 O202 1.232 . S
O202 C201 1.232 . S
C203 O195 1.260 . S
C203 O196 1.257 . S
Zn204 O207 2.031 . S
Zn204 O209 2.049 . S
Zn204 O214 2.067 . S
Zn205 O206 1.962 . S
Zn205 O208 1.986 . S
Zn205 O210 1.996 1_554 S
Zn205 O213 1.943 . S
O206 Zn205 1.962 . S
O206 C211 1.254 . S
O207 Zn204 2.031 . S
O207 C211 1.269 1_556 S
O208 Zn205 1.986 . S
O208 C215 1.262 . S
O209 Zn204 2.049 . S
O209 C217 1.260 . S
O210 Zn205 1.996 1_556 S
O210 C217 1.257 . S
C211 O206 1.254 . S
C211 O207 1.269 1_554 S
C212 O213 1.249 1_556 S
C212 O214 1.270 . S
O213 Zn205 1.943 . S
O213 C212 1.249 1_554 S
O214 Zn204 2.067 . S
O214 C212 1.270 . S
C215 O208 1.262 . S
C215 O216 1.232 . S
O216 C215 1.232 . S
C217 O209 1.260 . S
C217 O210 1.257 . S
Zn218 O221 2.031 . S
Zn218 O223 2.049 . S
Zn218 O228 2.067 1_545 S
Zn219 O220 1.962 . S
Zn219 O222 1.986 . S
Zn219 O224 1.996 . S
Zn219 O227 1.943 1_545 S
O220 Zn219 1.962 . S
O220 C225 1.254 . S
O221 Zn218 2.031 . S
O221 C225 1.269 . S
O222 Zn219 1.986 . S
O222 C229 1.262 . S
O223 Zn218 2.049 . S
O223 C231 1.260 . S
O224 Zn219 1.996 . S
O224 C231 1.257 . S
C225 O220 1.254 . S
C225 O221 1.269 . S
C226 O227 1.249 . S
C226 O228 1.270 . S
O227 Zn219 1.943 1_565 S
O227 C226 1.249 . S
O228 Zn218 2.067 1_565 S
O228 C226 1.270 . S
C229 O222 1.262 . S
C229 O230 1.232 . S
O230 C229 1.232 . S
C231 O223 1.260 . S
C231 O224 1.257 . S
Zn232 O235 2.031 . S
Zn232 O237 2.049 . S
Zn232 O242 2.067 . S
Zn233 O234 1.962 . S
Zn233 O236 1.986 . S
Zn233 O238 1.996 . S
Zn233 O241 1.943 . S
O234 Zn233 1.962 . S
O234 C239 1.254 . S
O235 Zn232 2.031 . S
O235 C239 1.269 . S
O236 Zn233 1.986 . S
O236 C243 1.262 . S
O237 Zn232 2.049 . S
O237 C245 1.260 . S
O238 Zn233 1.996 . S
O238 C245 1.257 . S
C239 O234 1.254 . S
C239 O235 1.269 . S
C240 O241 1.249 . S
C240 O242 1.270 . S
O241 Zn233 1.943 . S
O241 C240 1.249 . S
O242 Zn232 2.067 . S
O242 C240 1.270 . S
C243 O236 1.262 . S
C243 O244 1.232 . S
O244 C243 1.232 . S
C245 O237 1.260 . S
C245 O238 1.257 . S
Zn246 O249 2.031 . S
Zn246 O251 2.049 . S
Zn246 O256 2.067 . S
Zn247 O248 1.962 . S
Zn247 O250 1.986 . S
Zn247 O252 1.996 . S
Zn247 O255 1.943 . S
O248 Zn247 1.962 . S
O248 C253 1.254 . S
O249 Zn246 2.031 . S
O249 C253 1.269 . S
O250 Zn247 1.986 . S
O250 C257 1.262 . S
O251 Zn246 2.049 . S
O251 C259 1.260 . S
O252 Zn247 1.996 . S
O252 C259 1.257 . S
C253 O248 1.254 . S
C253 O249 1.269 . S
C254 O255 1.249 . S
C254 O256 1.270 . S
O255 Zn247 1.943 . S
O255 C254 1.249 . S
O256 Zn246 2.067 . S
O256 C254 1.270 . S
C257 O250 1.262 . S
C257 O258 1.232 . S
O258 C257 1.232 . S
C259 O251 1.260 . S
C259 O252 1.257 . S
Zn260 O263 2.031 . S
Zn260 O265 2.049 . S
Zn260 O270 2.067 . S
Zn261 O262 1.962 . S
Zn261 O264 1.986 . S
Zn261 O266 1.996 . S
Zn261 O269 1.943 . S
O262 Zn261 1.962 . S
O262 C267 1.254 . S
O263 Zn260 2.031 . S
O263 C267 1.269 . S
O264 Zn261 1.986 . S
O264 C271 1.262 . S
O265 Zn260 2.049 . S
O265 C273 1.260 . S
O266 Zn261 1.996 . S
O266 C273 1.257 . S
C267 O262 1.254 . S
C267 O263 1.269 . S
C268 O269 1.249 . S
C268 O270 1.270 . S
O269 Zn261 1.943 . S
O269 C268 1.249 . S
O270 Zn260 2.067 . S
O270 C268 1.270 . S
C271 O264 1.262 . S
C271 O272 1.232 . S
O272 C271 1.232 . S
C273 O265 1.260 . S
C273 O266 1.257 . S
Zn274 O277 2.031 . S
Zn274 O279 2.049 . S
Zn274 O284 2.067 . S
Zn275 O276 1.962 . S
Zn275 O278 1.986 . S
Zn275 O280 1.996 1_545 S
Zn275 O283 1.943 . S
O276 Zn275 1.962 . S
O276 C281 1.254 . S
O277 Zn274 2.031 . S
O277 C281 1.269 1_565 S
O278 Zn275 1.986 . S
O278 C285 1.262 . S
O279 Zn274 2.049 . S
O279 C287 1.260 . S
O280 Zn275 1.996 1_565 S
O280 C287 1.257 . S
C281 O276 1.254 . S
C281 O277 1.269 1_545 S
C282 O283 1.228 1_565 S
C282 O284 1.270 . S
O283 Zn275 1.943 . S
O283 C282 1.228 1_545 S
O284 Zn274 2.067 . S
O284 C282 1.270 . S
C285 O278 1.262 . S
C285 O286 1.232 . S
O286 C285 1.232 . S
C287 O279 1.260 . S
C287 O280 1.257 . S
Zn288 O291 2.031 . S
Zn288 O293 2.049 . S
Zn288 O298 2.067 1_455 S
Zn289 O290 1.962 . S
Zn289 O292 1.986 . S
Zn289 O294 1.996 . S
Zn289 O297 1.943 1_455 S
O290 Zn289 1.962 . S
O290 C295 1.254 . S
O291 Zn288 2.031 . S
O291 C295 1.269 . S
O292 Zn289 1.986 . S
O292 C299 1.262 . S
O293 Zn288 2.049 . S
O293 C301 1.260 . S
O294 Zn289 1.996 . S
O294 C301 1.257 . S
C295 O290 1.254 . S
C295 O291 1.269 . S
C296 O297 1.249 . S
C296 O298 1.270 . S
O297 Zn289 1.943 1_655 S
O297 C296 1.249 . S
O298 Zn288 2.067 1_655 S
O298 C296 1.270 . S
C299 O292 1.262 . S
C299 O300 1.232 . S
O300 C299 1.232 . S
C301 O293 1.260 . S
C301 O294 1.257 . S
Zn302 O305 2.031 . S
Zn302 O307 2.049 . S
Zn302 O312 2.067 . S
Zn303 O304 1.962 . S
Zn303 O306 1.986 . S
Zn303 O308 1.996 . S
Zn303 O311 1.943 . S
O304 Zn303 1.962 . S
O304 C309 1.254 . S
O305 Zn302 2.031 . S
O305 C309 1.269 . S
O306 Zn303 1.986 . S
O306 C313 1.262 . S
O307 Zn302 2.049 . S
O307 C315 1.260 . S
O308 Zn303 1.996 . S
O308 C315 1.257 . S
C309 O304 1.254 . S
C309 O305 1.269 . S
C310 O311 1.249 . S
C310 O312 1.270 . S
O311 Zn303 1.943 . S
O311 C310 1.249 . S
O312 Zn302 2.067 . S
O312 C310 1.270 . S
C313 O306 1.262 . S
C313 O314 1.232 . S
O314 C313 1.232 . S
C315 O307 1.260 . S
C315 O308 1.257 . S
Zn316 O319 2.031 1_655 S
Zn316 O321 2.049 . S
Zn316 O326 2.067 . S
Zn317 O318 1.962 . S
Zn317 O320 1.986 . S
Zn317 O322 1.996 1_455 S
Zn317 O325 1.943 . S
O318 Zn317 1.962 . S
O318 C323 1.254 . S
O319 Zn316 2.031 1_455 S
O319 C323 1.269 . S
O320 Zn317 1.986 . S
O320 C327 1.262 . S
O321 Zn316 2.049 . S
O321 C329 1.260 . S
O322 Zn317 1.996 1_655 S
O322 C329 1.257 . S
C323 O318 1.254 . S
C323 O319 1.269 . S
C324 O325 1.249 1_655 S
C324 O326 1.270 . S
O325 Zn317 1.943 . S
O325 C324 1.249 1_455 S
O326 Zn316 2.067 . S
O326 C324 1.270 . S
C327 O320 1.262 . S
C327 O328 1.232 . S
O328 C327 1.232 . S
C329 O321 1.260 . S
C329 O322 1.257 . S
Zn330 O333 2.031 . S
Zn330 O335 2.049 . S
Zn330 O340 2.067 . S
Zn331 O332 1.962 . S
Zn331 O334 1.986 . S
Zn331 O336 1.996 . S
Zn331 O339 1.943 . S
O332 Zn331 1.962 . S
O332 C337 1.254 . S
O333 Zn330 2.031 . S
O333 C337 1.269 . S
O334 Zn331 1.986 . S
O334 C341 1.262 . S
O335 Zn330 2.049 . S
O335 C343 1.260 . S
O336 Zn331 1.996 . S
O336 C343 1.257 . S
C337 O332 1.254 . S
C337 O333 1.269 . S
C338 O339 1.249 . S
C338 O340 1.270 . S
O339 Zn331 1.943 . S
O339 C338 1.249 . S
O340 Zn330 2.067 . S
O340 C338 1.270 . S
C341 O334 1.262 . S
C341 O342 1.232 . S
O342 C341 1.232 . S
C343 O335 1.260 . S
C343 O336 1.257 . S
H344 C350 0.930 . S
H345 C353 0.930 . S
H346 C354 0.930 . S
H347 C355 0.930 . S
H348 C358 0.930 . S
H349 C359 0.930 . S
C350 H344 0.930 . S
C350 C351 1.355 . S
C350 C352 1.415 . S
C351 C350 1.355 . S
C351 C353 1.419 . S
C352 C350 1.415 . S
C352 C357 1.425 . S
C352 C359 1.409 . S
C353 H345 0.930 . S
C353 C351 1.419 . S
C353 C354 1.362 . S
C354 H346 0.930 . S
C354 C353 1.362 . S
C354 C357 1.409 . S
C355 H347 0.930 . S
C355 C356 1.355 . S
C355 C357 1.415 . S
C356 C355 1.355 . S
C356 C358 1.419 . S
C357 C352 1.425 . S
C357 C354 1.409 . S
C357 C355 1.415 . S
C358 H348 0.930 . S
C358 C356 1.419 . S
C358 C359 1.362 . S
C359 H349 0.930 . S
C359 C352 1.409 . S
C359 C358 1.362 . S
H360 C366 0.930 . S
H361 C369 0.930 . S
H362 C370 0.930 . S
H363 C371 0.930 . S
H364 C374 0.930 . S
H365 C375 0.930 . S
C366 H360 0.930 . S
C366 C367 1.355 . S
C366 C368 1.415 . S
C367 C366 1.355 . S
C367 C369 1.419 . S
C368 C366 1.415 . S
C368 C373 1.425 . S
C368 C375 1.409 . S
C369 H361 0.930 . S
C369 C367 1.419 . S
C369 C370 1.362 . S
C370 H362 0.930 . S
C370 C369 1.362 . S
C370 C373 1.409 . S
C371 H363 0.930 . S
C371 C372 1.355 . S
C371 C373 1.415 . S
C372 C371 1.355 . S
C372 C374 1.419 . S
C373 C368 1.425 . S
C373 C370 1.409 . S
C373 C371 1.415 . S
C374 H364 0.930 . S
C374 C372 1.419 . S
C374 C375 1.362 . S
C375 H365 0.930 . S
C375 C368 1.409 . S
C375 C374 1.362 . S
H376 C382 0.930 . S
H377 C385 0.930 . S
H378 C386 0.930 . S
H379 C387 0.930 . S
H380 C390 0.930 . S
H381 C391 0.930 . S
C382 H376 0.930 . S
C382 C383 1.355 . S
C382 C384 1.415 . S
C383 C382 1.355 . S
C383 C385 1.419 . S
C384 C382 1.415 . S
C384 C389 1.425 . S
C384 C391 1.409 . S
C385 H377 0.930 . S
C385 C383 1.419 . S
C385 C386 1.362 . S
C386 H378 0.930 . S
C386 C385 1.362 . S
C386 C389 1.409 . S
C387 H379 0.930 . S
C387 C388 1.355 . S
C387 C389 1.415 . S
C388 C387 1.355 . S
C388 C390 1.419 . S
C389 C384 1.425 . S
C389 C386 1.409 . S
C389 C387 1.415 . S
C390 H380 0.930 . S
C390 C388 1.419 . S
C390 C391 1.362 . S
C391 H381 0.930 . S
C391 C384 1.409 . S
C391 C390 1.362 . S
H392 C398 0.930 . S
H393 C401 0.930 . S
H394 C402 0.920 1_545 S
H395 C403 0.930 . S
H396 C406 0.930 . S
H397 C407 0.930 . S
C398 H392 0.930 . S
C398 C399 1.355 . S
C398 C400 1.415 . S
C399 C398 1.355 . S
C399 C401 1.419 . S
C400 C398 1.415 . S
C400 C405 1.425 . S
C400 C407 1.409 . S
C401 H393 0.930 . S
C401 C399 1.419 . S
C401 C402 1.362 1_455 S
C402 H394 0.920 1_565 S
C402 C401 1.362 1_655 S
C402 C405 1.409 1_655 S
C403 H395 0.930 . S
C403 C404 1.355 . S
C403 C405 1.415 1_645 S
C404 C403 1.355 . S
C404 C406 1.419 1_645 S
C405 C400 1.425 . S
C405 C402 1.409 1_455 S
C405 C403 1.415 1_465 S
C406 H396 0.930 . S
C406 C404 1.419 1_465 S
C406 C407 1.362 . S
C407 H397 0.930 . S
C407 C400 1.409 . S
C407 C406 1.362 . S
H408 C414 0.930 . S
H409 C417 0.930 . S
H410 C418 0.930 . S
H411 C419 0.930 . S
H412 C422 0.930 . S
H413 C423 0.930 . S
C414 H408 0.930 . S
C414 C415 1.355 . S
C414 C416 1.415 . S
C415 C414 1.355 . S
C415 C417 1.419 . S
C416 C414 1.415 . S
C416 C421 1.425 . S
C416 C423 1.409 . S
C417 H409 0.930 . S
C417 C415 1.419 . S
C417 C418 1.362 . S
C418 H410 0.930 . S
C418 C417 1.362 . S
C418 C421 1.409 . S
C419 H411 0.930 . S
C419 C420 1.355 . S
C419 C421 1.415 . S
C420 C419 1.355 . S
C420 C422 1.419 . S
C421 C416 1.425 . S
C421 C418 1.409 . S
C421 C419 1.415 . S
C422 H412 0.930 . S
C422 C420 1.419 . S
C422 C423 1.362 . S
C423 H413 0.930 . S
C423 C416 1.409 . S
C423 C422 1.362 . S
H424 C430 0.930 . S
H425 C433 0.930 . S
H426 C434 0.930 . S
H427 C435 0.930 . S
H428 C438 0.930 . S
H429 C439 0.930 . S
C430 H424 0.930 . S
C430 C431 1.355 . S
C430 C432 1.415 . S
C431 C430 1.355 . S
C431 C433 1.419 . S
C432 C430 1.415 . S
C432 C437 1.425 . S
C432 C439 1.409 . S
C433 H425 0.930 . S
C433 C431 1.419 . S
C433 C434 1.362 . S
C434 H426 0.930 . S
C434 C433 1.362 . S
C434 C437 1.409 . S
C435 H427 0.930 . S
C435 C436 1.355 . S
C435 C437 1.415 . S
C436 C435 1.355 . S
C436 C438 1.419 . S
C437 C432 1.425 . S
C437 C434 1.409 . S
C437 C435 1.415 . S
C438 H428 0.930 . S
C438 C436 1.419 . S
C438 C439 1.362 . S
C439 H429 0.930 . S
C439 C432 1.409 . S
C439 C438 1.362 . S
H440 C446 0.930 . S
H441 C449 0.930 . S
H442 C450 0.930 . S
H443 C451 0.930 . S
H444 C454 0.930 . S
H445 C455 0.930 . S
C446 H440 0.930 . S
C446 C447 1.355 . S
C446 C448 1.415 . S
C447 C446 1.355 . S
C447 C449 1.419 . S
C448 C446 1.415 . S
C448 C453 1.425 . S
C448 C455 1.409 . S
C449 H441 0.930 . S
C449 C447 1.419 . S
C449 C450 1.362 . S
C450 H442 0.930 . S
C450 C449 1.362 . S
C450 C453 1.409 . S
C451 H443 0.930 . S
C451 C452 1.355 . S
C451 C453 1.415 . S
C452 C451 1.355 . S
C452 C454 1.419 . S
C453 C448 1.425 . S
C453 C450 1.409 . S
C453 C451 1.415 . S
C454 H444 0.930 . S
C454 C452 1.419 . S
C454 C455 1.362 . S
C455 H445 0.930 . S
C455 C448 1.409 . S
C455 C454 1.362 . S
H456 C462 0.930 . S
H457 C465 0.930 . S
H458 C466 0.930 . S
H459 C467 0.930 . S
H460 C470 0.930 . S
H461 C471 0.930 . S
C462 H456 0.930 . S
C462 C463 1.355 . S
C462 C464 1.415 . S
C463 C462 1.355 . S
C463 C465 1.419 . S
C464 C462 1.415 . S
C464 C469 1.425 . S
C464 C471 1.409 . S
C465 H457 0.930 . S
C465 C463 1.419 . S
C465 C466 1.362 . S
C466 H458 0.930 . S
C466 C465 1.362 . S
C466 C469 1.409 . S
C467 H459 0.930 . S
C467 C468 1.355 . S
C467 C469 1.415 . S
C468 C467 1.355 . S
C468 C470 1.419 . S
C469 C464 1.425 . S
C469 C466 1.409 . S
C469 C467 1.415 . S
C470 H460 0.930 . S
C470 C468 1.419 . S
C470 C471 1.362 . S
C471 H461 0.930 . S
C471 C464 1.409 . S
C471 C470 1.362 . S
H472 C478 0.930 . S
H473 C481 0.930 . S
H474 C482 0.930 . S
H475 C483 0.930 . S
H476 C486 0.930 . S
H477 C487 0.930 . S
C478 H472 0.930 . S
C478 C479 1.355 . S
C478 C480 1.415 . S
C479 C478 1.355 . S
C479 C481 1.419 . S
C480 C478 1.415 . S
C480 C485 1.425 . S
C480 C487 1.409 . S
C481 H473 0.930 . S
C481 C479 1.419 . S
C481 C482 1.362 . S
C482 H474 0.930 . S
C482 C481 1.362 . S
C482 C485 1.409 . S
C483 H475 0.930 . S
C483 C484 1.355 . S
C483 C485 1.415 . S
C484 C483 1.355 . S
C484 C486 1.419 . S
C485 C480 1.425 . S
C485 C482 1.409 . S
C485 C483 1.415 . S
C486 H476 0.930 . S
C486 C484 1.419 . S
C486 C487 1.362 . S
C487 H477 0.930 . S
C487 C480 1.409 . S
C487 C486 1.362 . S
H488 C494 0.930 . S
H489 C497 0.930 . S
H490 C498 0.930 . S
H491 C499 0.930 . S
H492 C502 0.930 . S
H493 C503 0.930 . S
C494 H488 0.930 . S
C494 C495 1.355 . S
C494 C496 1.415 . S
C495 C494 1.355 . S
C495 C497 1.419 . S
C496 C494 1.415 . S
C496 C501 1.425 . S
C496 C503 1.409 . S
C497 H489 0.930 . S
C497 C495 1.419 . S
C497 C498 1.362 . S
C498 H490 0.930 . S
C498 C497 1.362 . S
C498 C501 1.409 . S
C499 H491 0.930 . S
C499 C500 1.355 . S
C499 C501 1.415 . S
C500 C499 1.355 . S
C500 C502 1.419 . S
C501 C496 1.425 . S
C501 C498 1.409 . S
C501 C499 1.415 . S
C502 H492 0.930 . S
C502 C500 1.419 . S
C502 C503 1.362 . S
C503 H493 0.930 . S
C503 C496 1.409 . S
C503 C502 1.362 . S
H504 C510 0.930 . S
H505 C513 0.930 . S
H506 C514 0.930 . S
H507 C515 0.930 . S
H508 C518 0.930 . S
H509 C519 0.930 . S
C510 H504 0.930 . S
C510 C511 1.355 . S
C510 C512 1.415 . S
C511 C510 1.355 . S
C511 C513 1.419 . S
C512 C510 1.415 . S
C512 C517 1.425 . S
C512 C519 1.409 . S
C513 H505 0.930 . S
C513 C511 1.419 . S
C513 C514 1.362 . S
C514 H506 0.930 . S
C514 C513 1.362 . S
C514 C517 1.409 . S
C515 H507 0.930 . S
C515 C516 1.355 . S
C515 C517 1.415 . S
C516 C515 1.355 . S
C516 C518 1.419 . S
C517 C512 1.425 . S
C517 C514 1.409 . S
C517 C515 1.415 . S
C518 H508 0.930 . S
C518 C516 1.419 . S
C518 C519 1.362 . S
C519 H509 0.930 . S
C519 C512 1.409 . S
C519 C518 1.362 . S
H520 C526 0.930 . S
H521 C529 0.930 . S
H522 C530 0.930 . S
H523 C531 0.930 . S
H524 C534 0.930 . S
H525 C535 0.930 . S
C526 H520 0.930 . S
C526 C527 1.355 . S
C526 C528 1.415 . S
C527 C526 1.355 . S
C527 C529 1.419 . S
C528 C526 1.415 . S
C528 C533 1.425 . S
C528 C535 1.409 . S
C529 H521 0.930 . S
C529 C527 1.419 . S
C529 C530 1.362 . S
C530 H522 0.930 . S
C530 C529 1.362 . S
C530 C533 1.409 . S
C531 H523 0.930 . S
C531 C532 1.355 . S
C531 C533 1.415 . S
C532 C531 1.355 . S
C532 C534 1.419 . S
C533 C528 1.425 . S
C533 C530 1.409 . S
C533 C531 1.415 . S
C534 H524 0.930 . S
C534 C532 1.419 . S
C534 C535 1.362 . S
C535 H525 0.930 . S
C535 C528 1.409 . S
C535 C534 1.362 . S
H536 C542 0.930 . S
H537 C545 0.930 . S
H538 C546 0.930 . S
H539 C547 0.930 . S
H540 C550 0.930 . S
H541 C551 0.930 . S
C542 H536 0.930 . S
C542 C543 1.355 . S
C542 C544 1.415 . S
C543 C542 1.355 . S
C543 C545 1.419 . S
C544 C542 1.415 . S
C544 C549 1.425 . S
C544 C551 1.409 . S
C545 H537 0.930 . S
C545 C543 1.419 . S
C545 C546 1.362 . S
C546 H538 0.930 . S
C546 C545 1.362 . S
C546 C549 1.409 . S
C547 H539 0.930 . S
C547 C548 1.355 . S
C547 C549 1.415 . S
C548 C547 1.355 . S
C548 C550 1.419 . S
C549 C544 1.425 . S
C549 C546 1.409 . S
C549 C547 1.415 . S
C550 H540 0.930 . S
C550 C548 1.419 . S
C550 C551 1.362 . S
C551 H541 0.930 . S
C551 C544 1.409 . S
C551 C550 1.362 . S
H552 C558 0.930 . S
H553 C561 0.930 . S
H554 C562 0.930 . S
H555 C563 0.930 . S
H556 C566 0.930 . S
H557 C567 0.930 . S
C558 H552 0.930 . S
C558 C559 1.355 . S
C558 C560 1.415 . S
C559 C558 1.355 . S
C559 C561 1.419 . S
C560 C558 1.415 . S
C560 C565 1.425 . S
C560 C567 1.409 . S
C561 H553 0.930 . S
C561 C559 1.419 . S
C561 C562 1.362 . S
C562 H554 0.930 . S
C562 C561 1.362 . S
C562 C565 1.409 . S
C563 H555 0.930 . S
C563 C564 1.355 . S
C563 C565 1.415 . S
C564 C563 1.355 . S
C564 C566 1.419 . S
C565 C560 1.425 . S
C565 C562 1.409 . S
C565 C563 1.415 . S
C566 H556 0.930 . S
C566 C564 1.419 . S
C566 C567 1.362 . S
C567 H557 0.930 . S
C567 C560 1.409 . S
C567 C566 1.362 . S
H568 C574 0.930 . S
H569 C577 0.930 . S
H570 C578 0.930 . S
H571 C579 0.930 . S
H572 C582 0.930 . S
H573 C583 0.930 . S
C574 H568 0.930 . S
C574 C575 1.355 . S
C574 C576 1.415 . S
C575 C574 1.355 . S
C575 C577 1.419 . S
C576 C574 1.415 . S
C576 C581 1.425 . S
C576 C583 1.409 . S
C577 H569 0.930 . S
C577 C575 1.419 . S
C577 C578 1.362 . S
C578 H570 0.930 . S
C578 C577 1.362 . S
C578 C581 1.409 . S
C579 H571 0.930 . S
C579 C580 1.355 . S
C579 C581 1.415 . S
C580 C579 1.355 . S
C580 C582 1.419 . S
C581 C576 1.425 . S
C581 C578 1.409 . S
C581 C579 1.415 . S
C582 H572 0.930 . S
C582 C580 1.419 . S
C582 C583 1.362 . S
C583 H573 0.930 . S
C583 C576 1.409 . S
C583 C582 1.362 . S
H584 C590 0.918 1_455 S
H585 C593 0.930 . S
H586 C594 0.930 . S
H587 C595 0.930 . S
H588 C598 0.930 . S
H589 C599 0.930 . S
C590 H584 0.918 1_655 S
C590 C591 1.355 . S
C590 C592 1.415 . S
C591 C590 1.355 . S
C591 C593 1.419 . S
C592 C590 1.415 . S
C592 C597 1.425 . S
C592 C599 1.409 1_655 S
C593 H585 0.930 . S
C593 C591 1.419 . S
C593 C594 1.362 . S
C594 H586 0.930 . S
C594 C593 1.362 . S
C594 C597 1.409 . S
C595 H587 0.930 . S
C595 C596 1.355 . S
C595 C597 1.415 . S
C596 C595 1.355 . S
C596 C598 1.419 1_655 S
C597 C592 1.425 . S
C597 C594 1.409 . S
C597 C595 1.415 . S
C598 H588 0.930 . S
C598 C596 1.419 1_455 S
C598 C599 1.362 . S
C599 H589 0.930 . S
C599 C592 1.409 1_455 S
C599 C598 1.362 . S
H600 C606 0.930 . S
H601 C609 0.930 . S
H602 C610 0.930 . S
H603 C611 0.930 . S
H604 C614 0.930 . S
H605 C615 0.930 . S
C606 H600 0.930 . S
C606 C607 1.355 . S
C606 C608 1.415 . S
C607 C606 1.355 . S
C607 C609 1.419 . S
C608 C606 1.415 . S
C608 C613 1.425 . S
C608 C615 1.409 . S
C609 H601 0.930 . S
C609 C607 1.419 . S
C609 C610 1.362 . S
C610 H602 0.930 . S
C610 C609 1.362 . S
C610 C613 1.409 . S
C611 H603 0.930 . S
C611 C612 1.355 . S
C611 C613 1.415 . S
C612 C611 1.355 . S
C612 C614 1.419 . S
C613 C608 1.425 . S
C613 C610 1.409 . S
C613 C611 1.415 . S
C614 H604 0.930 . S
C614 C612 1.419 . S
C614 C615 1.362 . S
C615 H605 0.930 . S
C615 C608 1.409 . S
C615 C614 1.362 . S
H616 C622 0.930 . S
H617 C625 0.930 . S
H618 C626 0.930 . S
H619 C627 0.930 . S
H620 C630 0.930 . S
H621 C631 0.930 . S
C622 H616 0.930 . S
C622 C623 1.355 . S
C622 C624 1.415 . S
C623 C622 1.355 . S
C623 C625 1.419 . S
C624 C622 1.415 . S
C624 C629 1.425 . S
C624 C631 1.409 . S
C625 H617 0.930 . S
C625 C623 1.419 . S
C625 C626 1.362 . S
C626 H618 0.930 . S
C626 C625 1.362 . S
C626 C629 1.409 . S
C627 H619 0.930 . S
C627 C628 1.355 . S
C627 C629 1.415 . S
C628 C627 1.355 . S
C628 C630 1.419 . S
C629 C624 1.425 . S
C629 C626 1.409 . S
C629 C627 1.415 . S
C630 H620 0.930 . S
C630 C628 1.419 . S
C630 C631 1.362 . S
C631 H621 0.930 . S
C631 C624 1.409 . S
C631 C630 1.362 . S
H632 C638 0.930 1_554 S
H633 C641 0.930 . S
H634 C642 0.930 . S
H635 C643 0.930 . S
H636 C646 0.930 . S
H637 C647 0.930 . S
C638 H632 0.930 1_556 S
C638 C639 1.355 . S
C638 C640 1.399 1_546 S
C639 C638 1.355 . S
C639 C641 1.419 . S
C640 C638 1.399 1_564 S
C640 C645 1.401 1_554 S
C640 C647 1.449 . S
C641 H633 0.930 . S
C641 C639 1.419 . S
C641 C642 1.362 1_545 S
C642 H634 0.930 . S
C642 C641 1.362 1_565 S
C642 C645 1.409 . S
C643 H635 0.930 . S
C643 C644 1.355 1_556 S
C643 C645 1.415 . S
C644 C643 1.355 1_554 S
C644 C646 1.419 . S
C645 C640 1.401 1_556 S
C645 C642 1.409 . S
C645 C643 1.415 . S
C646 H636 0.930 . S
C646 C644 1.419 . S
C646 C647 1.362 . S
C647 H637 0.930 . S
C647 C640 1.449 . S
C647 C646 1.362 . S
H648 C654 0.930 . S
H649 C657 0.930 . S
H650 C658 0.930 . S
H651 C659 0.930 . S
H652 C662 0.930 . S
H653 C663 0.930 . S
C654 H648 0.930 . S
C654 C655 1.355 . S
C654 C656 1.415 . S
C655 C654 1.355 . S
C655 C657 1.419 . S
C656 C654 1.415 . S
C656 C661 1.425 . S
C656 C663 1.409 . S
C657 H649 0.930 . S
C657 C655 1.419 . S
C657 C658 1.362 . S
C658 H650 0.930 . S
C658 C657 1.362 . S
C658 C661 1.409 . S
C659 H651 0.930 . S
C659 C660 1.355 . S
C659 C661 1.415 . S
C660 C659 1.355 . S
C660 C662 1.419 . S
C661 C656 1.425 . S
C661 C658 1.409 . S
C661 C659 1.415 . S
C662 H652 0.930 . S
C662 C660 1.419 . S
C662 C663 1.362 . S
C663 H653 0.930 . S
C663 C656 1.409 . S
C663 C662 1.362 . S
H664 C670 0.930 1_565 S
H665 C673 0.930 . S
H666 C674 0.930 . S
H667 C675 0.930 . S
H668 C678 0.930 . S
H669 C679 0.930 . S
C670 H664 0.930 1_545 S
C670 C671 1.355 . S
C670 C672 1.415 . S
C671 C670 1.355 . S
C671 C673 1.419 . S
C672 C670 1.415 . S
C672 C677 1.425 . S
C672 C679 1.409 . S
C673 H665 0.930 . S
C673 C671 1.419 . S
C673 C674 1.362 . S
C674 H666 0.930 . S
C674 C673 1.362 . S
C674 C677 1.409 . S
C675 H667 0.930 . S
C675 C676 1.355 . S
C675 C677 1.415 . S
C676 C675 1.355 . S
C676 C678 1.419 . S
C677 C672 1.425 . S
C677 C674 1.409 . S
C677 C675 1.415 . S
C678 H668 0.930 . S
C678 C676 1.419 . S
C678 C679 1.362 . S
C679 H669 0.930 . S
C679 C672 1.409 . S
C679 C678 1.362 . S
H680 C686 0.930 . S
H681 C689 0.930 . S
H682 C690 0.930 . S
H683 C691 0.930 . S
H684 C694 0.930 . S
H685 C695 0.930 . S
C686 H680 0.930 . S
C686 C687 1.355 . S
C686 C688 1.415 . S
C687 C686 1.355 . S
C687 C689 1.419 . S
C688 C686 1.415 . S
C688 C693 1.425 . S
C688 C695 1.409 . S
C689 H681 0.930 . S
C689 C687 1.419 . S
C689 C690 1.362 . S
C690 H682 0.930 . S
C690 C689 1.362 . S
C690 C693 1.409 . S
C691 H683 0.930 . S
C691 C692 1.355 . S
C691 C693 1.415 . S
C692 C691 1.355 . S
C692 C694 1.419 . S
C693 C688 1.425 . S
C693 C690 1.409 . S
C693 C691 1.415 . S
C694 H684 0.930 . S
C694 C692 1.419 . S
C694 C695 1.362 . S
C695 H685 0.930 . S
C695 C688 1.409 . S
C695 C694 1.362 . S
H696 C702 0.930 . S
H697 C705 0.930 . S
H698 C706 0.930 . S
H699 C707 0.930 . S
H700 C710 0.930 . S
H701 C711 0.930 . S
C702 H696 0.930 . S
C702 C703 1.355 . S
C702 C704 1.415 . S
C703 C702 1.355 . S
C703 C705 1.419 . S
C704 C702 1.415 . S
C704 C709 1.425 . S
C704 C711 1.409 . S
C705 H697 0.930 . S
C705 C703 1.419 . S
C705 C706 1.362 . S
C706 H698 0.930 . S
C706 C705 1.362 . S
C706 C709 1.409 . S
C707 H699 0.930 . S
C707 C708 1.355 . S
C707 C709 1.415 . S
C708 C707 1.355 . S
C708 C710 1.419 . S
C709 C704 1.425 . S
C709 C706 1.409 . S
C709 C707 1.415 . S
C710 H700 0.930 . S
C710 C708 1.419 . S
C710 C711 1.362 . S
C711 H701 0.930 . S
C711 C704 1.409 . S
C711 C710 1.362 . S
H712 C718 0.930 . S
H713 C721 0.930 . S
H714 C722 0.930 . S
H715 C723 0.930 . S
H716 C726 0.930 . S
H717 C727 0.930 . S
C718 H712 0.930 . S
C718 C719 1.355 . S
C718 C720 1.415 . S
C719 C718 1.355 . S
C719 C721 1.419 . S
C720 C718 1.415 . S
C720 C725 1.425 . S
C720 C727 1.409 . S
C721 H713 0.930 . S
C721 C719 1.419 . S
C721 C722 1.362 . S
C722 H714 0.930 . S
C722 C721 1.362 . S
C722 C725 1.409 . S
C723 H715 0.930 . S
C723 C724 1.355 . S
C723 C725 1.415 . S
C724 C723 1.355 . S
C724 C726 1.419 . S
C725 C720 1.425 . S
C725 C722 1.409 . S
C725 C723 1.415 . S
C726 H716 0.930 . S
C726 C724 1.419 . S
C726 C727 1.362 . S
C727 H717 0.930 . S
C727 C720 1.409 . S
C727 C726 1.362 . S
H728 C734 0.930 . S
H729 C737 0.930 . S
H730 C738 0.930 . S
H731 C739 0.930 . S
H732 C742 0.930 . S
H733 C743 0.930 . S
C734 H728 0.930 . S
C734 C735 1.355 . S
C734 C736 1.415 . S
C735 C734 1.355 . S
C735 C737 1.419 . S
C736 C734 1.415 . S
C736 C741 1.425 . S
C736 C743 1.409 . S
C737 H729 0.930 . S
C737 C735 1.419 . S
C737 C738 1.362 . S
C738 H730 0.930 . S
C738 C737 1.362 . S
C738 C741 1.409 . S
C739 H731 0.930 . S
C739 C740 1.355 . S
C739 C741 1.415 . S
C740 C739 1.355 . S
C740 C742 1.419 . S
C741 C736 1.425 . S
C741 C738 1.409 . S
C741 C739 1.415 . S
C742 H732 0.930 . S
C742 C740 1.419 . S
C742 C743 1.362 . S
C743 H733 0.930 . S
C743 C736 1.409 . S
C743 C742 1.362 . S
H744 C750 0.930 . S
H745 C753 0.930 . S
H746 C754 0.930 . S
H747 C755 0.930 . S
H748 C758 0.930 . S
H749 C759 0.930 . S
C750 H744 0.930 . S
C750 C751 1.355 . S
C750 C752 1.415 . S
C751 C750 1.355 . S
C751 C753 1.419 . S
C752 C750 1.415 . S
C752 C757 1.425 . S
C752 C759 1.409 . S
C753 H745 0.930 . S
C753 C751 1.419 . S
C753 C754 1.362 . S
C754 H746 0.930 . S
C754 C753 1.362 . S
C754 C757 1.409 . S
C755 H747 0.930 . S
C755 C756 1.355 . S
C755 C757 1.415 . S
C756 C755 1.355 . S
C756 C758 1.419 . S
C757 C752 1.425 . S
C757 C754 1.409 . S
C757 C755 1.415 . S
C758 H748 0.930 . S
C758 C756 1.419 . S
C758 C759 1.362 . S
C759 H749 0.930 . S
C759 C752 1.409 . S
C759 C758 1.362 . S
H760 C766 0.930 . S
H761 C769 0.930 . S
H762 C770 0.930 . S
H763 C771 0.930 . S
H764 C774 0.930 . S
H765 C775 0.930 . S
C766 H760 0.930 . S
C766 C767 1.355 . S
C766 C768 1.415 . S
C767 C766 1.355 . S
C767 C769 1.419 . S
C768 C766 1.415 . S
C768 C773 1.425 . S
C768 C775 1.409 . S
C769 H761 0.930 . S
C769 C767 1.419 . S
C769 C770 1.362 . S
C770 H762 0.930 . S
C770 C769 1.362 . S
C770 C773 1.409 . S
C771 H763 0.930 . S
C771 C772 1.355 . S
C771 C773 1.415 . S
C772 C771 1.355 . S
C772 C774 1.419 . S
C773 C768 1.425 . S
C773 C770 1.409 . S
C773 C771 1.415 . S
C774 H764 0.930 . S
C774 C772 1.419 . S
C774 C775 1.362 . S
C775 H765 0.930 . S
C775 C768 1.409 . S
C775 C774 1.362 . S
H776 C782 0.930 . S
H777 C785 0.930 . S
H778 C786 0.930 . S
H779 C787 0.930 . S
H780 C790 0.930 . S
H781 C791 0.930 . S
C782 H776 0.930 . S
C782 C783 1.355 . S
C782 C784 1.415 . S
C783 C782 1.355 . S
C783 C785 1.419 . S
C784 C782 1.415 . S
C784 C789 1.425 . S
C784 C791 1.409 . S
C785 H777 0.930 . S
C785 C783 1.419 . S
C785 C786 1.362 . S
C786 H778 0.930 . S
C786 C785 1.362 . S
C786 C789 1.409 . S
C787 H779 0.930 . S
C787 C788 1.355 . S
C787 C789 1.415 . S
C788 C787 1.355 . S
C788 C790 1.419 . S
C789 C784 1.425 . S
C789 C786 1.409 . S
C789 C787 1.415 . S
C790 H780 0.930 . S
C790 C788 1.419 . S
C790 C791 1.362 . S
C791 H781 0.930 . S
C791 C784 1.409 . S
C791 C790 1.362 . S
H792 C798 0.930 . S
H793 C801 0.930 . S
H794 C802 0.930 . S
H795 C803 0.930 . S
H796 C806 0.930 . S
H797 C807 0.930 . S
C798 H792 0.930 . S
C798 C799 1.355 . S
C798 C800 1.415 . S
C799 C798 1.355 . S
C799 C801 1.419 . S
C800 C798 1.415 . S
C800 C805 1.425 . S
C800 C807 1.409 . S
C801 H793 0.930 . S
C801 C799 1.419 . S
C801 C802 1.362 . S
C802 H794 0.930 . S
C802 C801 1.362 . S
C802 C805 1.409 . S
C803 H795 0.930 . S
C803 C804 1.355 . S
C803 C805 1.415 . S
C804 C803 1.355 . S
C804 C806 1.419 . S
C805 C800 1.425 . S
C805 C802 1.409 . S
C805 C803 1.415 . S
C806 H796 0.930 . S
C806 C804 1.419 . S
C806 C807 1.362 . S
C807 H797 0.930 . S
C807 C800 1.409 . S
C807 C806 1.362 . S
H808 C814 0.930 . S
H809 C817 0.930 1_565 S
H810 C818 0.907 1_665 S
H811 C819 0.905 1_565 S
H812 C822 0.930 . S
H813 C823 0.930 . S
C814 H808 0.930 . S
C814 C815 1.355 . S
C814 C816 1.415 . S
C815 C814 1.355 . S
C815 C817 1.419 . S
C816 C814 1.415 . S
C816 C821 1.425 . S
C816 C823 1.409 . S
C817 H809 0.930 1_545 S
C817 C815 1.419 . S
C817 C818 1.370 . S
C818 H810 0.907 1_445 S
C818 C817 1.370 . S
C818 C821 1.425 . S
C819 H811 0.905 1_545 S
C819 C820 1.355 . S
C819 C821 1.415 1_655 S
C820 C819 1.355 . S
C820 C822 1.419 1_655 S
C821 C816 1.425 . S
C821 C818 1.425 . S
C821 C819 1.415 1_455 S
C822 H812 0.930 . S
C822 C820 1.419 1_455 S
C822 C823 1.362 . S
C823 H813 0.930 . S
C823 C816 1.409 . S
C823 C822 1.362 . S
H824 C830 0.930 . S
H825 C833 0.930 . S
H826 C834 0.930 . S
H827 C835 0.930 . S
H828 C838 0.930 . S
H829 C839 0.930 . S
C830 H824 0.930 . S
C830 C831 1.355 . S
C830 C832 1.415 . S
C831 C830 1.355 . S
C831 C833 1.419 . S
C832 C830 1.415 . S
C832 C837 1.425 . S
C832 C839 1.409 . S
C833 H825 0.930 . S
C833 C831 1.419 . S
C833 C834 1.362 . S
C834 H826 0.930 . S
C834 C833 1.362 . S
C834 C837 1.409 . S
C835 H827 0.930 . S
C835 C836 1.355 . S
C835 C837 1.415 . S
C836 C835 1.355 . S
C836 C838 1.419 . S
C837 C832 1.425 . S
C837 C834 1.409 . S
C837 C835 1.415 . S
C838 H828 0.930 . S
C838 C836 1.419 . S
C838 C839 1.362 . S
C839 H829 0.930 . S
C839 C832 1.409 . S
C839 C838 1.362 . S
H840 C846 0.930 . S
H841 C849 0.930 . S
H842 C850 0.930 . S
H843 C851 0.930 . S
H844 C854 0.930 . S
H845 C855 0.930 . S
C846 H840 0.930 . S
C846 C847 1.355 . S
C846 C848 1.415 . S
C847 C846 1.355 . S
C847 C849 1.419 . S
C848 C846 1.415 . S
C848 C853 1.425 . S
C848 C855 1.409 . S
C849 H841 0.930 . S
C849 C847 1.419 . S
C849 C850 1.362 . S
C850 H842 0.930 . S
C850 C849 1.362 . S
C850 C853 1.409 . S
C851 H843 0.930 . S
C851 C852 1.355 . S
C851 C853 1.415 . S
C852 C851 1.355 . S
C852 C854 1.419 . S
C853 C848 1.425 . S
C853 C850 1.409 . S
C853 C851 1.415 . S
C854 H844 0.930 . S
C854 C852 1.419 . S
C854 C855 1.362 . S
C855 H845 0.930 . S
C855 C848 1.409 . S
C855 C854 1.362 . S
H856 C862 0.930 . S
H857 C865 0.930 . S
H858 C866 0.930 . S
H859 C867 0.930 . S
H860 C870 0.930 . S
H861 C871 0.930 . S
C862 H856 0.930 . S
C862 C863 1.355 . S
C862 C864 1.415 . S
C863 C862 1.355 . S
C863 C865 1.419 . S
C864 C862 1.415 . S
C864 C869 1.425 . S
C864 C871 1.409 . S
C865 H857 0.930 . S
C865 C863 1.419 . S
C865 C866 1.362 . S
C866 H858 0.930 . S
C866 C865 1.362 . S
C866 C869 1.409 . S
C867 H859 0.930 . S
C867 C868 1.355 . S
C867 C869 1.415 . S
C868 C867 1.355 . S
C868 C870 1.419 . S
C869 C864 1.425 . S
C869 C866 1.409 . S
C869 C867 1.415 . S
C870 H860 0.930 . S
C870 C868 1.419 . S
C870 C871 1.362 . S
C871 H861 0.930 . S
C871 C864 1.409 . S
C871 C870 1.362 . S
H872 C878 0.930 . S
H873 C881 0.930 . S
H874 C882 0.930 . S
H875 C883 0.930 . S
H876 C886 0.930 . S
H877 C887 0.930 . S
C878 H872 0.930 . S
C878 C879 1.355 1_556 S
C878 C880 1.415 . S
C879 C878 1.355 1_554 S
C879 C881 1.419 1_655 S
C880 C878 1.415 . S
C880 C885 1.425 1_655 S
C880 C887 1.409 . S
C881 H873 0.930 . S
C881 C879 1.419 1_455 S
C881 C882 1.362 . S
C882 H874 0.930 . S
C882 C881 1.362 . S
C882 C885 1.409 1_554 S
C883 H875 0.930 . S
C883 C884 1.370 . S
C883 C885 1.415 . S
C884 C883 1.370 . S
C884 C886 1.389 1_455 S
C885 C880 1.425 1_455 S
C885 C882 1.409 1_556 S
C885 C883 1.415 . S
C886 H876 0.930 . S
C886 C884 1.389 1_655 S
C886 C887 1.362 . S
C887 H877 0.930 . S
C887 C880 1.409 . S
C887 C886 1.362 . S
H888 C894 0.930 . S
H889 C897 0.930 . S
H890 C898 0.930 . S
H891 C899 0.930 . S
H892 C902 0.930 . S
H893 C903 0.930 . S
C894 H888 0.930 . S
C894 C895 1.355 . S
C894 C896 1.415 . S
C895 C894 1.355 . S
C895 C897 1.419 . S
C896 C894 1.415 . S
C896 C901 1.425 . S
C896 C903 1.409 . S
C897 H889 0.930 . S
C897 C895 1.419 . S
C897 C898 1.362 . S
C898 H890 0.930 . S
C898 C897 1.362 . S
C898 C901 1.409 . S
C899 H891 0.930 . S
C899 C900 1.355 . S
C899 C901 1.415 . S
C900 C899 1.355 . S
C900 C902 1.419 . S
C901 C896 1.425 . S
C901 C898 1.409 . S
C901 C899 1.415 . S
C902 H892 0.930 . S
C902 C900 1.419 . S
C902 C903 1.362 . S
C903 H893 0.930 . S
C903 C896 1.409 . S
C903 C902 1.362 . S
H904 C910 0.930 1_554 S
H905 C913 0.930 . S
H906 C914 0.930 . S
H907 C915 0.930 . S
H908 C918 0.930 . S
H909 C919 0.930 . S
C910 H904 0.930 1_556 S
C910 C911 1.355 . S
C910 C912 1.415 . S
C911 C910 1.355 . S
C911 C913 1.419 . S
C912 C910 1.415 . S
C912 C917 1.425 . S
C912 C919 1.409 . S
C913 H905 0.930 . S
C913 C911 1.419 . S
C913 C914 1.362 . S
C914 H906 0.930 . S
C914 C913 1.362 . S
C914 C917 1.409 . S
C915 H907 0.930 . S
C915 C916 1.355 . S
C915 C917 1.415 . S
C916 C915 1.355 . S
C916 C918 1.419 . S
C917 C912 1.425 . S
C917 C914 1.409 . S
C917 C915 1.415 . S
C918 H908 0.930 . S
C918 C916 1.419 . S
C918 C919 1.362 . S
C919 H909 0.930 . S
C919 C912 1.409 . S
C919 C918 1.362 . S
H920 C926 0.930 . S
H921 C929 0.930 . S
H922 C930 0.930 . S
H923 C931 0.930 . S
H924 C934 0.930 . S
H925 C935 0.930 . S
C926 H920 0.930 . S
C926 C927 1.355 . S
C926 C928 1.415 . S
C927 C926 1.355 . S
C927 C929 1.419 . S
C928 C926 1.415 . S
C928 C933 1.425 . S
C928 C935 1.409 . S
C929 H921 0.930 . S
C929 C927 1.419 . S
C929 C930 1.362 . S
C930 H922 0.930 . S
C930 C929 1.362 . S
C930 C933 1.409 . S
C931 H923 0.930 . S
C931 C932 1.355 . S
C931 C933 1.415 . S
C932 C931 1.355 . S
C932 C934 1.419 . S
C933 C928 1.425 . S
C933 C930 1.409 . S
C933 C931 1.415 . S
C934 H924 0.930 . S
C934 C932 1.419 . S
C934 C935 1.362 . S
C935 H925 0.930 . S
C935 C928 1.409 . S
C935 C934 1.362 . S
H936 C942 0.930 . S
H937 C945 0.930 . S
H938 C946 0.930 . S
H939 C947 0.930 . S
H940 C950 0.930 . S
H941 C951 0.930 . S
C942 H936 0.930 . S
C942 C943 1.355 . S
C942 C944 1.415 . S
C943 C942 1.355 . S
C943 C945 1.419 . S
C944 C942 1.415 . S
C944 C949 1.425 . S
C944 C951 1.409 . S
C945 H937 0.930 . S
C945 C943 1.419 . S
C945 C946 1.362 . S
C946 H938 0.930 . S
C946 C945 1.362 . S
C946 C949 1.409 . S
C947 H939 0.930 . S
C947 C948 1.355 . S
C947 C949 1.415 . S
C948 C947 1.355 . S
C948 C950 1.419 . S
C949 C944 1.425 . S
C949 C946 1.409 . S
C949 C947 1.415 . S
C950 H940 0.930 . S
C950 C948 1.419 . S
C950 C951 1.362 . S
C951 H941 0.930 . S
C951 C944 1.409 . S
C951 C950 1.362 . S
H952 C958 0.930 . S
H953 C961 0.930 . S
H954 C962 0.930 . S
H955 C963 0.930 . S
H956 C966 0.930 . S
H957 C967 0.930 . S
C958 H952 0.930 . S
C958 C959 1.355 . S
C958 C960 1.415 . S
C959 C958 1.355 . S
C959 C961 1.419 . S
C960 C958 1.415 . S
C960 C965 1.425 . S
C960 C967 1.409 . S
C961 H953 0.930 . S
C961 C959 1.419 . S
C961 C962 1.362 . S
C962 H954 0.930 . S
C962 C961 1.362 . S
C962 C965 1.409 . S
C963 H955 0.930 . S
C963 C964 1.355 . S
C963 C965 1.415 . S
C964 C963 1.355 . S
C964 C966 1.419 . S
C965 C960 1.425 . S
C965 C962 1.409 . S
C965 C963 1.415 . S
C966 H956 0.930 . S
C966 C964 1.419 . S
C966 C967 1.362 . S
C967 H957 0.930 . S
C967 C960 1.409 . S
C967 C966 1.362 . S
H968 C974 0.930 1_556 S
H969 C977 0.930 . S
H970 C978 0.930 . S
H971 C979 0.930 . S
H972 C982 0.930 . S
H973 C983 0.930 . S
C974 H968 0.930 1_554 S
C974 C975 1.355 1_554 S
C974 C976 1.415 . S
C975 C974 1.355 1_556 S
C975 C977 1.419 1_556 S
C976 C974 1.415 . S
C976 C981 1.425 . S
C976 C983 1.409 . S
C977 H969 0.930 . S
C977 C975 1.419 1_554 S
C977 C978 1.362 . S
C978 H970 0.930 . S
C978 C977 1.362 . S
C978 C981 1.409 . S
C979 H971 0.930 . S
C979 C980 1.355 . S
C979 C981 1.415 . S
C980 C979 1.355 . S
C980 C982 1.419 . S
C981 C976 1.425 . S
C981 C978 1.409 . S
C981 C979 1.415 . S
C982 H972 0.930 . S
C982 C980 1.419 . S
C982 C983 1.362 . S
C983 H973 0.930 . S
C983 C976 1.409 . S
C983 C982 1.362 . S
H984 C990 0.930 . S
H985 C993 0.930 . S
H986 C994 0.930 . S
H987 C995 0.930 . S
H988 C998 0.930 . S
H989 C999 0.930 . S
C990 H984 0.930 . S
C990 C991 1.355 . S
C990 C992 1.415 . S
C991 C990 1.355 . S
C991 C993 1.419 . S
C992 C990 1.415 . S
C992 C997 1.425 . S
C992 C999 1.409 . S
C993 H985 0.930 . S
C993 C991 1.419 . S
C993 C994 1.362 . S
C994 H986 0.930 . S
C994 C993 1.362 . S
C994 C997 1.409 . S
C995 H987 0.930 . S
C995 C996 1.355 . S
C995 C997 1.415 . S
C996 C995 1.355 . S
C996 C998 1.419 . S
C997 C992 1.425 . S
C997 C994 1.409 . S
C997 C995 1.415 . S
C998 H988 0.930 . S
C998 C996 1.419 . S
C998 C999 1.362 . S
C999 H989 0.930 . S
C999 C992 1.409 . S
C999 C998 1.362 . S
H1000 C1006 0.930 . S
H1001 C1009 0.930 . S
H1002 C1010 0.930 . S
H1003 C1011 0.930 . S
H1004 C1014 0.930 . S
H1005 C1015 0.930 . S
C1006 H1000 0.930 . S
C1006 C1007 1.355 . S
C1006 C1008 1.415 . S
C1007 C1006 1.355 . S
C1007 C1009 1.419 . S
C1008 C1006 1.415 . S
C1008 C1013 1.425 . S
C1008 C1015 1.409 . S
C1009 H1001 0.930 . S
C1009 C1007 1.419 . S
C1009 C1010 1.362 . S
C1010 H1002 0.930 . S
C1010 C1009 1.362 . S
C1010 C1013 1.409 . S
C1011 H1003 0.930 . S
C1011 C1012 1.355 . S
C1011 C1013 1.415 . S
C1012 C1011 1.355 . S
C1012 C1014 1.419 . S
C1013 C1008 1.425 . S
C1013 C1010 1.409 . S
C1013 C1011 1.415 . S
C1014 H1004 0.930 . S
C1014 C1012 1.419 . S
C1014 C1015 1.362 . S
C1015 H1005 0.930 . S
C1015 C1008 1.409 . S
C1015 C1014 1.362 . S
H1016 C1022 0.930 . S
H1017 C1025 0.930 . S
H1018 C1026 0.930 . S
H1019 C1027 0.930 . S
H1020 C1030 0.930 . S
H1021 C1031 0.930 . S
C1022 H1016 0.930 . S
C1022 C1023 1.355 . S
C1022 C1024 1.415 . S
C1023 C1022 1.355 . S
C1023 C1025 1.419 . S
C1024 C1022 1.415 . S
C1024 C1029 1.425 . S
C1024 C1031 1.409 . S
C1025 H1017 0.930 . S
C1025 C1023 1.419 . S
C1025 C1026 1.362 . S
C1026 H1018 0.930 . S
C1026 C1025 1.362 . S
C1026 C1029 1.409 . S
C1027 H1019 0.930 . S
C1027 C1028 1.355 . S
C1027 C1029 1.415 . S
C1028 C1027 1.355 . S
C1028 C1030 1.419 . S
C1029 C1024 1.425 . S
C1029 C1026 1.409 . S
C1029 C1027 1.415 . S
C1030 H1020 0.930 . S
C1030 C1028 1.419 . S
C1030 C1031 1.362 . S
C1031 H1021 0.930 . S
C1031 C1024 1.409 . S
C1031 C1030 1.362 . S
H1032 C1038 0.930 . S
H1033 C1041 0.930 . S
H1034 C1042 0.930 . S
H1035 C1043 0.930 . S
H1036 C1046 0.930 . S
H1037 C1047 0.930 . S
C1038 H1032 0.930 . S
C1038 C1039 1.355 . S
C1038 C1040 1.415 . S
C1039 C1038 1.355 . S
C1039 C1041 1.419 . S
C1040 C1038 1.415 . S
C1040 C1045 1.425 . S
C1040 C1047 1.409 . S
C1041 H1033 0.930 . S
C1041 C1039 1.419 . S
C1041 C1042 1.362 . S
C1042 H1034 0.930 . S
C1042 C1041 1.362 . S
C1042 C1045 1.409 . S
C1043 H1035 0.930 . S
C1043 C1044 1.355 . S
C1043 C1045 1.415 . S
C1044 C1043 1.355 . S
C1044 C1046 1.419 . S
C1045 C1040 1.425 . S
C1045 C1042 1.409 . S
C1045 C1043 1.415 . S
C1046 H1036 0.930 . S
C1046 C1044 1.419 . S
C1046 C1047 1.362 . S
C1047 H1037 0.930 . S
C1047 C1040 1.409 . S
C1047 C1046 1.362 . S
H1048 C1054 0.930 . S
H1049 C1057 0.930 . S
H1050 C1058 0.930 . S
H1051 C1059 0.930 . S
H1052 C1062 0.930 . S
H1053 C1063 0.930 . S
C1054 H1048 0.930 . S
C1054 C1055 1.355 1_554 S
C1054 C1056 1.415 1_554 S
C1055 C1054 1.355 1_556 S
C1055 C1057 1.419 . S
C1056 C1054 1.415 1_556 S
C1056 C1061 1.425 . S
C1056 C1063 1.409 1_556 S
C1057 H1049 0.930 . S
C1057 C1055 1.419 . S
C1057 C1058 1.362 . S
C1058 H1050 0.930 . S
C1058 C1057 1.362 . S
C1058 C1061 1.409 . S
C1059 H1051 0.930 . S
C1059 C1060 1.355 . S
C1059 C1061 1.415 . S
C1060 C1059 1.355 . S
C1060 C1062 1.419 1_556 S
C1061 C1056 1.425 . S
C1061 C1058 1.409 . S
C1061 C1059 1.415 . S
C1062 H1052 0.930 . S
C1062 C1060 1.419 1_554 S
C1062 C1063 1.362 . S
C1063 H1053 0.930 . S
C1063 C1056 1.409 1_554 S
C1063 C1062 1.362 . S
H1064 C1070 0.930 . S
H1065 C1073 0.930 . S
H1066 C1074 0.930 . S
H1067 C1075 0.930 . S
H1068 C1078 0.930 . S
H1069 C1079 0.930 . S
C1070 H1064 0.930 . S
C1070 C1071 1.355 . S
C1070 C1072 1.415 . S
C1071 C1070 1.355 . S
C1071 C1073 1.419 . S
C1072 C1070 1.415 . S
C1072 C1077 1.425 . S
C1072 C1079 1.409 . S
C1073 H1065 0.930 . S
C1073 C1071 1.419 . S
C1073 C1074 1.362 . S
C1074 H1066 0.930 . S
C1074 C1073 1.362 . S
C1074 C1077 1.409 . S
C1075 H1067 0.930 . S
C1075 C1076 1.355 . S
C1075 C1077 1.415 . S
C1076 C1075 1.355 . S
C1076 C1078 1.419 . S
C1077 C1072 1.425 . S
C1077 C1074 1.409 . S
C1077 C1075 1.415 . S
C1078 H1068 0.930 . S
C1078 C1076 1.419 . S
C1078 C1079 1.362 . S
C1079 H1069 0.930 . S
C1079 C1072 1.409 . S
C1079 C1078 1.362 . S
H1080 C1086 0.930 . S
H1081 C1089 0.930 . S
H1082 C1090 0.930 . S
H1083 C1091 0.930 . S
H1084 C1094 0.930 . S
H1085 C1095 0.930 1_556 S
C1086 H1080 0.930 . S
C1086 C1087 1.355 . S
C1086 C1088 1.415 . S
C1087 C1086 1.355 . S
C1087 C1089 1.419 . S
C1088 C1086 1.415 . S
C1088 C1093 1.425 . S
C1088 C1095 1.409 . S
C1089 H1081 0.930 . S
C1089 C1087 1.419 . S
C1089 C1090 1.362 . S
C1090 H1082 0.930 . S
C1090 C1089 1.362 . S
C1090 C1093 1.409 . S
C1091 H1083 0.930 . S
C1091 C1092 1.355 . S
C1091 C1093 1.415 . S
C1092 C1091 1.355 . S
C1092 C1094 1.419 1_554 S
C1093 C1088 1.425 . S
C1093 C1090 1.409 . S
C1093 C1091 1.415 . S
C1094 H1084 0.930 . S
C1094 C1092 1.419 1_556 S
C1094 C1095 1.362 1_556 S
C1095 H1085 0.930 1_554 S
C1095 C1088 1.409 . S
C1095 C1094 1.362 1_554 S
H1096 C1102 0.930 . S
H1097 C1105 0.930 . S
H1098 C1106 0.930 . S
H1099 C1107 0.930 . S
H1100 C1110 0.930 . S
H1101 C1111 0.930 1_545 S
C1102 H1096 0.930 . S
C1102 C1103 1.355 . S
C1102 C1104 1.415 1_545 S
C1103 C1102 1.355 . S
C1103 C1105 1.419 1_545 S
C1104 C1102 1.415 1_565 S
C1104 C1109 1.425 . S
C1104 C1111 1.409 . S
C1105 H1097 0.930 . S
C1105 C1103 1.419 1_565 S
C1105 C1106 1.362 . S
C1106 H1098 0.930 . S
C1106 C1105 1.362 . S
C1106 C1109 1.409 . S
C1107 H1099 0.930 . S
C1107 C1108 1.355 . S
C1107 C1109 1.415 . S
C1108 C1107 1.355 . S
C1108 C1110 1.419 . S
C1109 C1104 1.425 . S
C1109 C1106 1.409 . S
C1109 C1107 1.415 . S
C1110 H1100 0.930 . S
C1110 C1108 1.419 . S
C1110 C1111 1.362 . S
C1111 H1101 0.930 1_565 S
C1111 C1104 1.409 . S
C1111 C1110 1.362 . S
C356 C184 1.567 . S
C351 C60 1.621 . S
C372 C197 1.333 . S
C367 C76 1.326 . S
C383 C81 1.789 . S
C388 C217 1.692 . S
C404 C231 1.447 . S
C399 C48 1.494 . S
C420 C243 1.527 . S
C415 C115 1.514 . S
C436 C257 1.524 . S
C431 C136 1.543 . S
C447 C131 1.348 . S
C452 C267 1.344 . S
C468 C282 1.529 . S
C463 C104 1.535 . S
C479 C126 1.503 . S
C484 C296 1.441 . S
C500 C315 1.295 . S
C495 C103 1.342 . S
C511 C120 1.413 . S
C516 C295 1.389 . S
C532 C313 1.383 . S
C527 C142 1.385 . S
C543 C82 1.630 . S
C548 C329 1.486 . S
C559 C54 1.739 . S
C564 C323 1.728 . S
C575 C65 1.426 . S
C580 C327 1.434 . S
C591 C71 1.291 . S
C596 C324 1.302 . S
C607 C37 1.565 . S
C612 C226 1.515 . S
C623 C158 1.854 . S
C628 C225 1.844 . S
C644 C189 1.311 . S
C639 C169 1.376 . S
C660 C203 1.278 . S
C655 C98 1.415 . S
C671 C49 1.687 1_545 S
C676 C240 1.705 . S
C692 C285 1.461 . S
C687 C125 1.462 . S
C708 C239 1.388 . S
C703 C109 1.384 . S
C724 C271 1.692 . S
C719 C137 1.675 . S
C740 C268 1.558 . S
C735 C159 1.626 . S
C751 C175 1.325 . S
C756 C281 1.331 . S
C767 C92 1.770 . S
C772 C245 1.605 . S
C788 C259 1.414 . S
C783 C147 1.513 . S
C799 C38 1.518 . S
C804 C215 1.503 . S
C820 C229 1.533 . S
C815 C4 1.543 . S
C836 C183 1.297 . S
C831 C21 1.328 . S
C852 C198 1.543 . S
C847 C27 1.522 1_455 S
C863 C16 1.475 . S
C868 C310 1.414 . S
C879 C26 1.343 . S
C884 C301 1.237 . S
C895 C43 1.419 . S
C900 C309 1.408 . S
C911 C10 1.390 1_556 S
C916 C299 1.362 . S
C932 C343 1.535 . S
C927 C93 1.649 . S
C948 C337 1.747 . S
C943 C153 1.747 . S
C964 C341 1.451 . S
C959 C164 1.428 . S
C975 C170 1.307 . S
C980 C338 1.282 . S
C991 C114 1.563 . S
C996 C254 1.543 . S
C1012 C253 1.853 . S
C1007 C59 1.857 . S
C1028 C273 1.350 . S
C1023 C70 1.346 . S
C1044 C287 1.388 . S
C1039 C87 1.460 . S
C1055 C148 1.686 . S
C1060 C212 1.723 . S
C1076 C201 1.447 . S
C1071 C15 1.463 . S
C1087 C32 1.372 . S
C1092 C211 1.363 . S
C1108 C187 1.691 . S
C1103 C5 1.669 . S
