# Generated by pormake.
# Topology ctn, (3,4)-cn, num edge types: 1
# Building blocks:
#     Node 0, Type 0, BuildingBlock: ESEHIV_clean_linker_0, # of connection points: 3
#     Node 1, Type 0, BuildingBlock: ESEHIV_clean_linker_0, # of connection points: 3
#     Node 2, Type 0, BuildingBlock: ESEHIV_clean_linker_0, # of connection points: 3
#     Node 3, Type 0, BuildingBlock: ESEHIV_clean_linker_0, # of connection points: 3
#     Node 4, Type 0, BuildingBlock: ESEHIV_clean_linker_0, # of connection points: 3
#     Node 5, Type 0, BuildingBlock: ESEHIV_clean_linker_0, # of connection points: 3
#     Node 6, Type 0, BuildingBlock: ESEHIV_clean_linker_0, # of connection points: 3
#     Node 7, Type 0, BuildingBlock: ESEHIV_clean_linker_0, # of connection points: 3
#     Node 8, Type 0, BuildingBlock: ESEHIV_clean_linker_0, # of connection points: 3
#     Node 9, Type 0, BuildingBlock: ESEHIV_clean_linker_0, # of connection points: 3
#     Node 10, Type 0, BuildingBlock: ESEHIV_clean_linker_0, # of connection points: 3
#     Node 11, Type 0, BuildingBlock: ESEHIV_clean_linker_0, # of connection points: 3
#     Node 12, Type 0, BuildingBlock: ESEHIV_clean_linker_0, # of connection points: 3
#     Node 13, Type 0, BuildingBlock: ESEHIV_clean_linker_0, # of connection points: 3
#     Node 14, Type 0, BuildingBlock: ESEHIV_clean_linker_0, # of connection points: 3
#     Node 15, Type 0, BuildingBlock: ESEHIV_clean_linker_0, # of connection points: 3
#     Node 16, Type 1, BuildingBlock: AZAVOO_clean_sbu_0, # of connection points: 4
#     Node 17, Type 1, BuildingBlock: AZAVOO_clean_sbu_0, # of connection points: 4
#     Node 18, Type 1, BuildingBlock: AZAVOO_clean_sbu_0, # of connection points: 4
#     Node 19, Type 1, BuildingBlock: AZAVOO_clean_sbu_0, # of connection points: 4
#     Node 20, Type 1, BuildingBlock: AZAVOO_clean_sbu_0, # of connection points: 4
#     Node 21, Type 1, BuildingBlock: AZAVOO_clean_sbu_0, # of connection points: 4
#     Node 22, Type 1, BuildingBlock: AZAVOO_clean_sbu_0, # of connection points: 4
#     Node 23, Type 1, BuildingBlock: AZAVOO_clean_sbu_0, # of connection points: 4
#     Node 24, Type 1, BuildingBlock: AZAVOO_clean_sbu_0, # of connection points: 4
#     Node 25, Type 1, BuildingBlock: AZAVOO_clean_sbu_0, # of connection points: 4
#     Node 26, Type 1, BuildingBlock: AZAVOO_clean_sbu_0, # of connection points: 4
#     Node 27, Type 1, BuildingBlock: AZAVOO_clean_sbu_0, # of connection points: 4
#     Edge 28, Type (0, 1), BuildingBlock: AJUNOK_clean_linker_0, # of connection points: 2
#     Edge 29, Type (0, 1), BuildingBlock: AJUNOK_clean_linker_0, # of connection points: 2
#     Edge 30, Type (0, 1), BuildingBlock: AJUNOK_clean_linker_0, # of connection points: 2
#     Edge 31, Type (0, 1), BuildingBlock: AJUNOK_clean_linker_0, # of connection points: 2
#     Edge 32, Type (0, 1), BuildingBlock: AJUNOK_clean_linker_0, # of connection points: 2
#     Edge 33, Type (0, 1), BuildingBlock: AJUNOK_clean_linker_0, # of connection points: 2
#     Edge 34, Type (0, 1), BuildingBlock: AJUNOK_clean_linker_0, # of connection points: 2
#     Edge 35, Type (0, 1), BuildingBlock: AJUNOK_clean_linker_0, # of connection points: 2
#     Edge 36, Type (0, 1), BuildingBlock: AJUNOK_clean_linker_0, # of connection points: 2
#     Edge 37, Type (0, 1), BuildingBlock: AJUNOK_clean_linker_0, # of connection points: 2
#     Edge 38, Type (0, 1), BuildingBlock: AJUNOK_clean_linker_0, # of connection points: 2
#     Edge 39, Type (0, 1), BuildingBlock: AJUNOK_clean_linker_0, # of connection points: 2
#     Edge 40, Type (0, 1), BuildingBlock: AJUNOK_clean_linker_0, # of connection points: 2
#     Edge 41, Type (0, 1), BuildingBlock: AJUNOK_clean_linker_0, # of connection points: 2
#     Edge 42, Type (0, 1), BuildingBlock: AJUNOK_clean_linker_0, # of connection points: 2
#     Edge 43, Type (0, 1), BuildingBlock: AJUNOK_clean_linker_0, # of connection points: 2
#     Edge 44, Type (0, 1), BuildingBlock: AJUNOK_clean_linker_0, # of connection points: 2
#     Edge 45, Type (0, 1), BuildingBlock: AJUNOK_clean_linker_0, # of connection points: 2
#     Edge 46, Type (0, 1), BuildingBlock: AJUNOK_clean_linker_0, # of connection points: 2
#     Edge 47, Type (0, 1), BuildingBlock: AJUNOK_clean_linker_0, # of connection points: 2
#     Edge 48, Type (0, 1), BuildingBlock: AJUNOK_clean_linker_0, # of connection points: 2
#     Edge 49, Type (0, 1), BuildingBlock: AJUNOK_clean_linker_0, # of connection points: 2
#     Edge 50, Type (0, 1), BuildingBlock: AJUNOK_clean_linker_0, # of connection points: 2
#     Edge 51, Type (0, 1), BuildingBlock: AJUNOK_clean_linker_0, # of connection points: 2
#     Edge 52, Type (0, 1), BuildingBlock: AJUNOK_clean_linker_0, # of connection points: 2
#     Edge 53, Type (0, 1), BuildingBlock: AJUNOK_clean_linker_0, # of connection points: 2
#     Edge 54, Type (0, 1), BuildingBlock: AJUNOK_clean_linker_0, # of connection points: 2
#     Edge 55, Type (0, 1), BuildingBlock: AJUNOK_clean_linker_0, # of connection points: 2
#     Edge 56, Type (0, 1), BuildingBlock: AJUNOK_clean_linker_0, # of connection points: 2
#     Edge 57, Type (0, 1), BuildingBlock: AJUNOK_clean_linker_0, # of connection points: 2
#     Edge 58, Type (0, 1), BuildingBlock: AJUNOK_clean_linker_0, # of connection points: 2
#     Edge 59, Type (0, 1), BuildingBlock: AJUNOK_clean_linker_0, # of connection points: 2
#     Edge 60, Type (0, 1), BuildingBlock: AJUNOK_clean_linker_0, # of connection points: 2
#     Edge 61, Type (0, 1), BuildingBlock: AJUNOK_clean_linker_0, # of connection points: 2
#     Edge 62, Type (0, 1), BuildingBlock: AJUNOK_clean_linker_0, # of connection points: 2
#     Edge 63, Type (0, 1), BuildingBlock: AJUNOK_clean_linker_0, # of connection points: 2
#     Edge 64, Type (0, 1), BuildingBlock: AJUNOK_clean_linker_0, # of connection points: 2
#     Edge 65, Type (0, 1), BuildingBlock: AJUNOK_clean_linker_0, # of connection points: 2
#     Edge 66, Type (0, 1), BuildingBlock: AJUNOK_clean_linker_0, # of connection points: 2
#     Edge 67, Type (0, 1), BuildingBlock: AJUNOK_clean_linker_0, # of connection points: 2
#     Edge 68, Type (0, 1), BuildingBlock: AJUNOK_clean_linker_0, # of connection points: 2
#     Edge 69, Type (0, 1), BuildingBlock: AJUNOK_clean_linker_0, # of connection points: 2
#     Edge 70, Type (0, 1), BuildingBlock: AJUNOK_clean_linker_0, # of connection points: 2
#     Edge 71, Type (0, 1), BuildingBlock: AJUNOK_clean_linker_0, # of connection points: 2
#     Edge 72, Type (0, 1), BuildingBlock: AJUNOK_clean_linker_0, # of connection points: 2
#     Edge 73, Type (0, 1), BuildingBlock: AJUNOK_clean_linker_0, # of connection points: 2
#     Edge 74, Type (0, 1), BuildingBlock: AJUNOK_clean_linker_0, # of connection points: 2
#     Edge 75, Type (0, 1), BuildingBlock: AJUNOK_clean_linker_0, # of connection points: 2
# Relax obj value: 0.002
# Max RMSD: 0.039
# Mean RMSD: 0.023
data_MOF--net-ctn--node1-AZAVOO_clean_sbu_0--node2-ESEHIV_clean_linker_0--edge1-AJUNOK_clean_linker_0
_symmetry_space_group_name_H-M    P1
_symmetry_Int_Tables_number       1
_symmetry_cell_setting            triclinic
loop_
_symmetry_equiv_pos_as_xyz
'x, y, z'
_cell_length_a     36.331436
_cell_length_b     37.173333
_cell_length_c     37.063498
_cell_angle_alpha  89.954586
_cell_angle_beta   93.697712
_cell_angle_gamma 93.738196
loop_
_atom_site_label
_atom_site_type_symbol
_atom_site_fract_x
_atom_site_fract_y
_atom_site_fract_z
_atom_type_partial_charge
H0 H 0.98564 0.07351 0.02683 0.0
H1 H 0.0446 0.98186 0.0619 0.0
H2 H 0.07671 0.04156 0.96851 0.0
C3 C 0.00723 0.05526 0.02331 0.0
C4 C 0.0311 0.06166 0.99539 0.0
C5 C 0.01231 0.02732 0.04822 0.0
C6 C 0.0395 0.0031 0.04254 0.0
C7 C 0.06189 0.00731 0.01301 0.0
C8 C 0.05807 0.0371 0.98995 0.0
H9 H 0.31775 0.68389 0.28083 0.0
H10 H 0.35194 0.78007 0.22372 0.0
H11 H 0.25901 0.71114 0.18157 0.0
C12 C 0.31415 0.7021 0.25817 0.0
C13 C 0.28573 0.69416 0.23156 0.0
C14 C 0.33813 0.73303 0.25574 0.0
C15 C 0.3335 0.75617 0.22596 0.0
C16 C 0.30504 0.74831 0.19897 0.0
C17 C 0.28107 0.71738 0.20217 0.0
H18 H 0.97805 0.53753 0.09227 0.0
H19 H 0.03412 0.44905 0.05226 0.0
H20 H 0.92844 0.47344 0.00284 0.0
C21 C 0.97894 0.51548 0.07328 0.0
C22 C 0.94954 0.50839 0.04703 0.0
C23 C 0.00983 0.4946 0.07479 0.0
C24 C 0.01097 0.46611 0.05022 0.0
C25 C 0.98179 0.45827 0.02424 0.0
C26 C 0.95124 0.47968 0.0226 0.0
H27 H 0.67834 0.76768 0.22366 0.0
H28 H 0.76998 0.8198 0.17213 0.0
H29 H 0.73079 0.86713 0.26702 0.0
C30 C 0.69893 0.79002 0.22228 0.0
C31 C 0.7013 0.81759 0.24843 0.0
C32 C 0.72356 0.79091 0.19468 0.0
C33 C 0.75064 0.81941 0.19326 0.0
C34 C 0.75356 0.84694 0.2193 0.0
C35 C 0.72852 0.84609 0.24662 0.0
H36 H 0.99783 0.92466 0.46678 0.0
H37 H 0.05064 0.02833 0.44473 0.0
H38 H 0.08874 0.96812 0.53742 0.0
C39 C 0.01815 0.94644 0.4744 0.0
C40 C 0.04273 0.94274 0.50488 0.0
C41 C 0.02056 0.97744 0.45283 0.0
C42 C 0.04771 0.00498 0.46213 0.0
C43 C 0.07258 0.00184 0.49241 0.0
C44 C 0.06985 0.97067 0.51384 0.0
H45 H 0.16365 0.75696 0.78309 0.0
H46 H 0.26261 0.70873 0.82328 0.0
H47 H 0.20274 0.6664 0.72744 0.0
C48 C 0.18346 0.7366 0.78103 0.0
C49 C 0.17885 0.71105 0.75275 0.0
C50 C 0.21397 0.73623 0.80631 0.0
C51 C 0.23944 0.70976 0.80342 0.0
C52 C 0.23566 0.68459 0.77518 0.0
C53 C 0.20514 0.68511 0.75002 0.0
H54 H 0.92735 0.52169 0.50734 0.0
H55 H 0.03013 0.54655 0.4585 0.0
H56 H 0.96429 0.4498 0.42811 0.0
C57 C 0.94784 0.51475 0.48897 0.0
C58 C 0.94247 0.48244 0.46906 0.0
C59 C 0.97918 0.5383 0.48518 0.0
C60 C 0.00527 0.52919 0.46099 0.0
C61 C 0.99968 0.49773 0.4399 0.0
C62 C 0.9681 0.47454 0.44375 0.0
H63 H 0.74178 0.79636 0.81961 0.0
H64 H 0.80237 0.8088 0.72436 0.0
H65 H 0.82831 0.72588 0.80099 0.0
C66 C 0.76271 0.78737 0.80276 0.0
C67 C 0.78309 0.75779 0.81363 0.0
C68 C 0.77042 0.80674 0.77138 0.0
C69 C 0.7973 0.79488 0.74945 0.0
C70 C 0.81857 0.76603 0.76006 0.0
C71 C 0.81115 0.74738 0.79211 0.0
H72 H 0.23414 0.27944 0.31285 0.0
H73 H 0.29347 0.31286 0.22077 0.0
H74 H 0.32208 0.2175 0.27874 0.0
C75 C 0.2553 0.27507 0.29431 0.0
C76 C 0.27787 0.24589 0.29982 0.0
C77 C 0.26012 0.29902 0.26548 0.0
C78 C 0.28823 0.2937 0.24219 0.0
C79 C 0.31022 0.26415 0.24641 0.0
C80 C 0.30526 0.24046 0.27553 0.0
H81 H 0.48001 0.0363 0.59414 0.0
H82 H 0.53454 0.94746 0.55257 0.0
H83 H 0.42893 0.97388 0.50435 0.0
C84 C 0.48039 0.01424 0.57508 0.0
C85 C 0.45046 0.00735 0.54941 0.0
C86 C 0.51114 0.99316 0.57592 0.0
C87 C 0.51163 0.96481 0.55102 0.0
C88 C 0.48209 0.95757 0.52521 0.0
C89 C 0.45183 0.97931 0.52422 0.0
H90 H 0.1701 0.26415 0.70628 0.0
H91 H 0.26259 0.32255 0.66209 0.0
H92 H 0.22316 0.35678 0.76263 0.0
C93 C 0.1906 0.28674 0.70754 0.0
C94 C 0.19286 0.31075 0.73698 0.0
C95 C 0.21532 0.2913 0.68018 0.0
C96 C 0.24264 0.31971 0.68263 0.0
C97 C 0.24597 0.34316 0.71242 0.0
C98 C 0.22031 0.33924 0.73912 0.0
H99 H 0.81167 0.19302 0.78888 0.0
H100 H 0.85083 0.28449 0.7272 0.0
H101 H 0.75369 0.21931 0.68899 0.0
C102 C 0.80864 0.21073 0.76575 0.0
C103 C 0.77945 0.20342 0.7398 0.0
C104 C 0.83442 0.24004 0.76171 0.0
C105 C 0.83092 0.262 0.73087 0.0
C106 C 0.80204 0.25432 0.70436 0.0
C107 C 0.77599 0.22543 0.70939 0.0
H108 H 0.48509 0.57532 0.52569 0.0
H109 H 0.54521 0.48853 0.57144 0.0
H110 H 0.58605 0.54848 0.48131 0.0
C111 C 0.50829 0.55839 0.52597 0.0
C112 C 0.53551 0.56559 0.50131 0.0
C113 C 0.51242 0.53202 0.55277 0.0
C114 C 0.54177 0.50934 0.55124 0.0
C115 C 0.56789 0.51438 0.52485 0.0
C116 C 0.56468 0.54278 0.5 0.0
H117 H 0.49835 0.42615 0.96685 0.0
H118 H 0.54919 0.52991 0.94164 0.0
H119 H 0.58738 0.4737 0.03707 0.0
C120 C 0.51828 0.44847 0.97371 0.0
C121 C 0.54244 0.44634 0.00467 0.0
C122 C 0.5208 0.47832 0.95062 0.0
C123 C 0.54662 0.50709 0.95976 0.0
C124 C 0.57047 0.50593 0.99109 0.0
C125 C 0.56866 0.47514 0.0132 0.0
H126 H 0.65983 0.25132 0.28403 0.0
H127 H 0.75995 0.2061 0.32522 0.0
H128 H 0.71064 0.17243 0.22139 0.0
C129 C 0.68147 0.23307 0.28084 0.0
C130 C 0.68148 0.21195 0.24925 0.0
C131 C 0.70941 0.2305 0.3085 0.0
C132 C 0.73808 0.20774 0.30403 0.0
C133 C 0.73868 0.18677 0.2728 0.0
C134 C 0.7102 0.18872 0.24559 0.0
H135 H 0.42982 0.02019 0.00863 0.0
H136 H 0.51618 0.06101 0.94235 0.0
H137 H 0.45488 0.96117 0.91443 0.0
C138 C 0.44652 0.01739 0.98574 0.0
C139 C 0.43982 0.98697 0.96318 0.0
C140 C 0.47437 0.04415 0.97884 0.0
C141 C 0.49465 0.04064 0.94814 0.0
C142 C 0.48755 0.01096 0.92475 0.0
C143 C 0.46052 0.98395 0.93264 0.0
Mg144 Mg 0.23646 0.85676 0.01388 0.0
O145 O 0.29253 0.88632 0.00171 0.0
O146 O 0.3334 0.84401 0.00108 0.0
Mg147 Mg 0.30503 0.78895 0.01188 0.0
C148 C 0.32534 0.87682 0.99793 0.0
C149 C 0.16924 0.89883 0.00175 0.0
O150 O 0.15748 0.8652 0.00723 0.0
O151 O 0.22914 0.8355 0.95575 0.0
O152 O 0.27132 0.79403 0.95771 0.0
O153 O 0.24986 0.86142 0.07359 0.0
O154 O 0.26349 0.81574 0.04026 0.0
C155 C 0.246 0.81095 0.94085 0.0
C156 C 0.26487 0.83092 0.07153 0.0
O157 O 0.20385 0.90601 0.00055 0.0
Mg158 Mg 0.15777 0.50736 0.27424 0.0
O159 O 0.12361 0.50674 0.21926 0.0
O160 O 0.16434 0.50914 0.17664 0.0
Mg161 Mg 0.223 0.5109 0.20258 0.0
C162 C 0.1311 0.50777 0.18599 0.0
C163 C 0.11377 0.48664 0.33866 0.0
O164 O 0.14867 0.48674 0.35043 0.0
O165 O 0.17107 0.4485 0.26737 0.0
O166 O 0.21203 0.4538 0.22464 0.0
O167 O 0.1629 0.56787 0.27439 0.0
O168 O 0.20277 0.5335 0.25147 0.0
C169 C 0.19344 0.43487 0.24676 0.0
C170 C 0.19295 0.56531 0.25785 0.0
O171 O 0.10647 0.49271 0.30526 0.0
Mg172 Mg 0.76914 0.65601 0.02957 0.0
O173 O 0.71459 0.62043 0.02064 0.0
O174 O 0.67019 0.65902 0.01309 0.0
Mg175 Mg 0.69389 0.71739 0.01944 0.0
C176 C 0.68053 0.62685 0.01477 0.0
C177 C 0.82468 0.59909 0.04941 0.0
O178 O 0.82019 0.61455 0.08053 0.0
O179 O 0.76797 0.67168 0.96932 0.0
O180 O 0.72607 0.71336 0.96874 0.0
O181 O 0.76276 0.65896 0.08987 0.0
O182 O 0.74121 0.69758 0.0504 0.0
C183 C 0.75036 0.69652 0.95339 0.0
C184 C 0.7451 0.6876 0.08344 0.0
O185 O 0.8054 0.60868 0.02157 0.0
Mg186 Mg 0.91217 0.03752 0.24303 0.0
O187 O 0.87492 0.98618 0.23195 0.0
O188 O 0.91082 0.94144 0.22121 0.0
Mg189 Mg 0.97091 0.96421 0.22367 0.0
C190 C 0.87898 0.95317 0.22472 0.0
C191 C 0.86411 0.09951 0.25768 0.0
O192 O 0.89408 0.11568 0.24554 0.0
O193 O 0.92999 0.01642 0.29909 0.0
O194 O 0.96801 0.97445 0.28471 0.0
O195 O 0.91013 0.05146 0.18467 0.0
O196 O 0.952 0.01795 0.21135 0.0
C197 C 0.95273 0.99265 0.30821 0.0
C198 C 0.93806 0.03194 0.18221 0.0
O199 O 0.86307 0.06561 0.26249 0.0
Mg200 Mg 0.27216 0.15528 0.51949 0.0
O201 O 0.21886 0.11733 0.51421 0.0
O202 O 0.17222 0.15283 0.50314 0.0
Mg203 Mg 0.1939 0.2116 0.50052 0.0
C204 C 0.18433 0.12165 0.50835 0.0
C205 C 0.32575 0.09852 0.54722 0.0
O206 O 0.31849 0.11473 0.57715 0.0
O207 O 0.27124 0.16362 0.45812 0.0
O208 O 0.22436 0.19963 0.44995 0.0
O209 O 0.26456 0.16419 0.5784 0.0
O210 O 0.2424 0.19832 0.53476 0.0
C211 C 0.2505 0.18272 0.43779 0.0
C212 C 0.24591 0.19145 0.5687 0.0
O213 O 0.30954 0.10794 0.51756 0.0
Mg214 Mg 0.40445 0.5317 0.7434 0.0
O215 O 0.36821 0.47948 0.73325 0.0
O216 O 0.40565 0.43663 0.72057 0.0
Mg217 Mg 0.465 0.46107 0.72075 0.0
C218 C 0.37348 0.44681 0.72561 0.0
C219 C 0.35686 0.59243 0.75814 0.0
O220 O 0.38623 0.60731 0.74372 0.0
O221 O 0.42527 0.51096 0.79879 0.0
O222 O 0.46426 0.47087 0.78198 0.0
O223 O 0.39996 0.54607 0.68507 0.0
O224 O 0.4439 0.51404 0.71009 0.0
C225 C 0.44929 0.48797 0.80649 0.0
C226 C 0.42881 0.52807 0.68155 0.0
O227 O 0.35567 0.55882 0.7647 0.0
Mg228 Mg 0.73477 0.35512 0.51452 0.0
O229 O 0.78886 0.38622 0.49997 0.0
O230 O 0.83124 0.34525 0.49732 0.0
Mg231 Mg 0.80595 0.2895 0.51141 0.0
C232 C 0.8215 0.37753 0.49447 0.0
C233 C 0.68364 0.41355 0.52919 0.0
O234 O 0.68832 0.39576 0.55957 0.0
O235 O 0.72526 0.33166 0.45687 0.0
O236 O 0.76604 0.2889 0.46119 0.0
O237 O 0.75123 0.36079 0.57409 0.0
O238 O 0.76439 0.31513 0.54084 0.0
C239 C 0.73977 0.30431 0.44415 0.0
C240 C 0.76634 0.33042 0.572 0.0
O241 O 0.70003 0.40366 0.50188 0.0
Mg242 Mg 0.65904 0.01037 0.77482 0.0
O243 O 0.62543 0.00846 0.71976 0.0
O244 O 0.66616 0.01597 0.67743 0.0
Mg245 Mg 0.72466 0.02465 0.70393 0.0
C246 C 0.63296 0.01082 0.68658 0.0
C247 C 0.58227 0.01217 0.80428 0.0
O248 O 0.58421 0.04012 0.78264 0.0
O249 O 0.67892 0.95344 0.76591 0.0
O250 O 0.72186 0.96747 0.7266 0.0
O251 O 0.65845 0.07103 0.7774 0.0
O252 O 0.70162 0.04184 0.75338 0.0
C253 C 0.70557 0.94492 0.74724 0.0
C254 C 0.68883 0.07206 0.76098 0.0
O255 O 0.60836 0.99088 0.80502 0.0
Mg256 Mg 0.04033 0.26675 0.90495 0.0
O257 O 0.98566 0.25874 0.87022 0.0
O258 O 0.94249 0.2395 0.90729 0.0
Mg259 Mg 0.96884 0.23434 0.96449 0.0
C260 C 0.95221 0.24887 0.87595 0.0
C261 C 0.10104 0.28197 0.8576 0.0
O262 O 0.11204 0.26032 0.88358 0.0
O263 O 0.0205 0.31896 0.92789 0.0
O264 O 0.97897 0.29581 0.96502 0.0
O265 O 0.05211 0.20889 0.89705 0.0
O266 O 0.0224 0.2289 0.94221 0.0
C267 C 0.99654 0.32278 0.95122 0.0
C268 C 0.03484 0.20211 0.92595 0.0
O269 O 0.06923 0.2942 0.85861 0.0
Mg270 Mg 0.53922 0.76736 0.40431 0.0
O271 O 0.4856 0.7571 0.36856 0.0
O272 O 0.44173 0.7383 0.40496 0.0
Mg273 Mg 0.46716 0.73458 0.46279 0.0
C274 C 0.45209 0.74693 0.37365 0.0
C275 C 0.60253 0.79854 0.36501 0.0
O276 O 0.61604 0.78894 0.39706 0.0
O277 O 0.51765 0.81928 0.42597 0.0
O278 O 0.47632 0.79616 0.46333 0.0
O279 O 0.55369 0.70979 0.39882 0.0
O280 O 0.5217 0.73044 0.44205 0.0
C281 C 0.49368 0.82313 0.44929 0.0
C282 C 0.53629 0.70372 0.42782 0.0
O283 O 0.56773 0.79523 0.35838 0.0
Mg284 Mg 0.98193 0.73117 0.60011 0.0
O285 O 0.03365 0.7234 0.63804 0.0
O286 O 0.08062 0.71602 0.60302 0.0
Mg287 Mg 0.05901 0.71676 0.54364 0.0
C288 C 0.06762 0.71855 0.634 0.0
C289 C 0.93032 0.72672 0.66393 0.0
O290 O 0.93074 0.69271 0.65454 0.0
O291 O 0.00403 0.78856 0.58606 0.0
O292 O 0.04864 0.77679 0.54968 0.0
O293 O 0.96826 0.67161 0.59718 0.0
O294 O 0.0027 0.70136 0.55895 0.0
C295 C 0.02947 0.79904 0.56535 0.0
C296 C 0.98768 0.67109 0.5692 0.0
O297 O 0.95014 0.75014 0.64747 0.0
Mg298 Mg 0.48344 0.23394 0.09818 0.0
O299 O 0.53636 0.22621 0.13438 0.0
O300 O 0.58131 0.21825 0.09745 0.0
Mg301 Mg 0.55771 0.22003 0.03882 0.0
C302 C 0.57004 0.22094 0.12921 0.0
C303 C 0.41771 0.24417 0.13932 0.0
O304 O 0.40665 0.22997 0.1077 0.0
O305 O 0.50479 0.29149 0.08441 0.0
O306 O 0.54822 0.28018 0.04654 0.0
O307 O 0.46968 0.17466 0.09619 0.0
O308 O 0.50227 0.2042 0.05609 0.0
C309 C 0.52971 0.30225 0.06326 0.0
C310 C 0.488 0.17398 0.06743 0.0
O311 O 0.45218 0.25136 0.1461 0.0
C312 C 0.19188 0.76705 0.8604 0.0
C313 C 0.21981 0.76273 0.83642 0.0
C314 C 0.19967 0.78563 0.89334 0.0
C315 C 0.23563 0.80011 0.9032 0.0
H316 H 0.16459 0.75395 0.85484 0.0
H317 H 0.1782 0.78636 0.91225 0.0
S318 S 0.31643 0.80206 0.84709 0.0
N319 N 0.28316 0.77948 0.82243 0.0
N320 N 0.29796 0.81305 0.8848 0.0
C321 C 0.26287 0.79846 0.87827 0.0
C322 C 0.25489 0.78015 0.84469 0.0
C323 C 0.01916 0.49022 0.3769 0.0
C324 C 0.02767 0.48938 0.41438 0.0
C325 C 0.0469 0.48782 0.35242 0.0
C326 C 0.08408 0.48429 0.36463 0.0
H327 H 0.9912 0.49436 0.3665 0.0
H328 H 0.03929 0.48999 0.3238 0.0
S329 S 0.11924 0.47654 0.46065 0.0
N330 N 0.0747 0.48196 0.46272 0.0
N331 N 0.12684 0.47684 0.4172 0.0
C332 C 0.09232 0.48138 0.40222 0.0
C333 C 0.06413 0.48413 0.42696 0.0
C334 C 0.77207 0.76248 0.8792 0.0
C335 C 0.77698 0.74048 0.84924 0.0
C336 C 0.7639 0.74766 0.91258 0.0
C337 C 0.76106 0.71018 0.91786 0.0
H338 H 0.77438 0.79158 0.8769 0.0
H339 H 0.75984 0.76588 0.93459 0.0
S340 S 0.77278 0.64037 0.84906 0.0
N341 N 0.77886 0.67891 0.8273 0.0
N342 N 0.76496 0.65113 0.89102 0.0
C343 C 0.76728 0.68766 0.88879 0.0
C344 C 0.77495 0.70279 0.85429 0.0
C345 C 0.99797 0.95201 0.3925 0.0
C346 C 0.99772 0.97963 0.4183 0.0
C347 C 0.98173 0.95583 0.3575 0.0
C348 C 0.96431 0.98733 0.34695 0.0
H349 H 0.01246 0.92799 0.3988 0.0
H350 H 0.98393 0.93431 0.33822 0.0
S351 S 0.95254 0.0658 0.40611 0.0
N352 N 0.976 0.03814 0.43223 0.0
N353 N 0.94526 0.04545 0.36646 0.0
C354 C 0.96193 0.01425 0.37327 0.0
C355 C 0.97877 0.01042 0.40888 0.0
C356 C 0.22262 0.22858 0.65915 0.0
C357 C 0.21575 0.26451 0.65081 0.0
C358 C 0.23058 0.20444 0.63208 0.0
C359 C 0.23157 0.21536 0.59575 0.0
H360 H 0.22395 0.21966 0.68702 0.0
H361 H 0.23738 0.17746 0.63992 0.0
S362 S 0.21165 0.30598 0.55991 0.0
N363 N 0.20747 0.30923 0.60385 0.0
N364 N 0.22225 0.26417 0.5528 0.0
C365 C 0.22246 0.25074 0.58692 0.0
C366 C 0.21465 0.27526 0.61453 0.0
C367 C 0.47721 0.49784 0.60012 0.0
C368 C 0.48876 0.53096 0.5844 0.0
C369 C 0.4572 0.4967 0.63141 0.0
C370 C 0.44714 0.52858 0.64733 0.0
H371 H 0.48394 0.47261 0.5884 0.0
H372 H 0.44955 0.47082 0.64319 0.0
S373 S 0.47246 0.62206 0.61948 0.0
N374 N 0.49073 0.59649 0.58995 0.0
N375 N 0.45091 0.59383 0.64663 0.0
C376 C 0.45796 0.56166 0.63195 0.0
C377 C 0.47927 0.56299 0.601 0.0
C378 C 0.79381 0.31199 0.67063 0.0
C379 C 0.7994 0.27498 0.67029 0.0
C380 C 0.78507 0.33034 0.63836 0.0
C381 C 0.78184 0.31228 0.60475 0.0
H382 H 0.79435 0.32639 0.69608 0.0
H383 H 0.77935 0.35851 0.63999 0.0
S384 S 0.79814 0.21584 0.58977 0.0
N385 N 0.80465 0.22159 0.63391 0.0
N386 N 0.78775 0.25548 0.57343 0.0
C387 C 0.7896 0.27563 0.60414 0.0
C388 C 0.79847 0.25712 0.6369 0.0
C389 C 0.5358 0.00125 0.64044 0.0
C390 C 0.54238 0.99971 0.60352 0.0
C391 C 0.56515 0.00495 0.66704 0.0
C392 C 0.60228 0.00752 0.65775 0.0
H393 H 0.50775 0.99873 0.64889 0.0
H394 H 0.55856 0.00558 0.69511 0.0
S395 S 0.63381 0.00722 0.56418 0.0
N396 N 0.58831 0.00275 0.55872 0.0
N397 N 0.64353 0.00959 0.60826 0.0
C398 C 0.60905 0.00682 0.62066 0.0
C399 C 0.57913 0.00293 0.59371 0.0
C400 C 0.85741 0.2462 0.82636 0.0
C401 C 0.86522 0.24629 0.78972 0.0
C402 C 0.88573 0.24751 0.85379 0.0
C403 C 0.92318 0.24905 0.84581 0.0
H404 H 0.82903 0.24445 0.83391 0.0
H405 H 0.87803 0.247 0.88155 0.0
S406 S 0.95835 0.25065 0.75386 0.0
N407 N 0.91293 0.24852 0.74662 0.0
N408 N 0.9665 0.25152 0.79822 0.0
C409 C 0.93145 0.25024 0.80917 0.0
C410 C 0.90242 0.24878 0.78113 0.0
C411 C 0.51373 0.9193 0.48259 0.0
C412 C 0.48217 0.92562 0.5012 0.0
C413 C 0.51638 0.88693 0.46375 0.0
C414 C 0.48773 0.85954 0.46325 0.0
H415 H 0.53701 0.93912 0.48351 0.0
H416 H 0.54182 0.88266 0.45114 0.0
S417 S 0.39792 0.86414 0.50507 0.0
N418 N 0.42081 0.90278 0.51607 0.0
N419 N 0.42546 0.84226 0.48039 0.0
C420 C 0.45523 0.86639 0.48014 0.0
C421 C 0.45252 0.89934 0.49917 0.0
C422 C 0.14419 0.32824 0.77744 0.0
C423 C 0.16938 0.30342 0.76755 0.0
C424 C 0.12166 0.32107 0.80639 0.0
C425 C 0.12435 0.28927 0.82679 0.0
H426 H 0.14167 0.35309 0.76247 0.0
H427 H 0.10244 0.34071 0.81314 0.0
S428 S 0.18654 0.21602 0.81144 0.0
N429 N 0.19584 0.24612 0.78001 0.0
N430 N 0.1542 0.23269 0.83457 0.0
C431 C 0.14973 0.26444 0.8171 0.0
C432 C 0.17209 0.27152 0.78743 0.0
C433 C 0.53762 0.60257 0.44422 0.0
C434 C 0.53645 0.60056 0.48203 0.0
C435 C 0.53739 0.63607 0.42643 0.0
C436 C 0.53555 0.66833 0.44598 0.0
H437 H 0.53834 0.57818 0.42838 0.0
H438 H 0.53825 0.63669 0.39728 0.0
S439 S 0.53727 0.67759 0.54578 0.0
N440 N 0.53773 0.63387 0.53851 0.0
N441 N 0.53569 0.6962 0.50534 0.0
C442 C 0.53531 0.66652 0.48382 0.0
C443 C 0.53623 0.63279 0.50178 0.0
C444 C 0.85185 0.72041 0.72727 0.0
C445 C 0.84922 0.75631 0.73799 0.0
C446 C 0.8788 0.71111 0.70414 0.0
C447 C 0.90428 0.73733 0.69081 0.0
H448 H 0.83222 0.69948 0.73594 0.0
H449 H 0.87898 0.68315 0.696 0.0
S450 S 0.91161 0.83471 0.71445 0.0
N451 N 0.87634 0.8178 0.73635 0.0
N452 N 0.92668 0.80051 0.69251 0.0
C453 C 0.90283 0.77318 0.70255 0.0
C454 C 0.87539 0.78261 0.72618 0.0
C455 C 0.00762 0.89409 0.53796 0.0
C456 C 0.0413 0.90845 0.52552 0.0
C457 C 0.00455 0.8595 0.55322 0.0
C458 C 0.03491 0.83777 0.55595 0.0
H459 H 0.98319 0.90933 0.53489 0.0
H460 H 0.97771 0.84901 0.56105 0.0
S461 S 0.12993 0.86403 0.52993 0.0
N462 N 0.10614 0.89926 0.51908 0.0
N463 N 0.10044 0.8343 0.54747 0.0
C464 C 0.06916 0.85255 0.54516 0.0
C465 C 0.07234 0.88787 0.53004 0.0
C466 C 0.14301 0.74547 0.70584 0.0
C467 C 0.14812 0.71297 0.72448 0.0
C468 C 0.11623 0.74724 0.67697 0.0
C469 C 0.09333 0.71675 0.66618 0.0
H470 H 0.16064 0.76939 0.71286 0.0
H471 H 0.11379 0.77246 0.6626 0.0
S472 S 0.09398 0.62593 0.70713 0.0
N473 N 0.12698 0.64998 0.73078 0.0
N474 N 0.07639 0.65361 0.67668 0.0
C475 C 0.09736 0.68443 0.68507 0.0
C476 C 0.12485 0.68246 0.71421 0.0
C477 C 0.97795 0.57196 0.54373 0.0
C478 C 0.98453 0.57227 0.5067 0.0
C479 C 0.98047 0.6039 0.56409 0.0
C480 C 0.99 0.63739 0.54835 0.0
H481 H 0.97038 0.54684 0.55703 0.0
H482 H 0.97426 0.60236 0.59228 0.0
S483 S 0.0099 0.65301 0.45237 0.0
N484 N 1.00075 0.60906 0.45507 0.0
N485 N 0.00646 0.66888 0.49351 0.0
C486 C 0.99771 0.63799 0.51161 0.0
C487 C 0.99474 0.60551 0.49076 0.0
C488 C 0.82081 0.86453 0.2171 0.0
C489 C 0.78454 0.87495 0.21933 0.0
C490 C 0.8509 0.89004 0.21829 0.0
C491 C 0.84604 0.92715 0.22178 0.0
H492 H 0.82609 0.83626 0.21514 0.0
H493 H 0.87827 0.88037 0.21699 0.0
S494 S 0.75593 0.96847 0.22621 0.0
N495 N 0.74491 0.92473 0.22336 0.0
N496 N 0.80142 0.97301 0.22588 0.0
C497 C 0.80966 0.938 0.22335 0.0
C498 C 0.77897 0.91185 0.22213 0.0
C499 C 0.80626 0.17919 0.27105 0.0
C500 C 0.76988 0.16365 0.26871 0.0
C501 C 0.83647 0.15809 0.2679 0.0
C502 C 0.83151 0.12051 0.26294 0.0
H503 H 0.81138 0.20801 0.27499 0.0
H504 H 0.86395 0.1714 0.26943 0.0
S505 S 0.74155 0.0667 0.256 0.0
N506 N 0.73033 0.10859 0.26161 0.0
N507 N 0.78712 0.0686 0.25616 0.0
C508 C 0.79519 0.10454 0.26108 0.0
C509 C 0.76437 0.1262 0.26375 0.0
C510 C 0.37522 0.96772 0.97883 0.0
C511 C 0.41099 0.95851 0.9716 0.0
C512 C 0.34776 0.94125 0.98724 0.0
C513 C 0.35502 0.90448 0.98904 0.0
H514 H 0.3683 0.99562 0.97766 0.0
H515 H 0.32066 0.94981 0.99243 0.0
S516 S 0.44513 0.86666 0.97352 0.0
N517 N 0.45267 0.91046 0.96768 0.0
N518 N 0.40145 0.86059 0.98316 0.0
C519 C 0.39095 0.89504 0.982 0.0
C520 C 0.41877 0.92204 0.97334 0.0
C521 C 0.23041 0.35197 0.29064 0.0
C522 C 0.23712 0.33064 0.26062 0.0
C523 C 0.21314 0.3845 0.28618 0.0
C524 C 0.2025 0.39704 0.25155 0.0
H525 H 0.24033 0.34454 0.31763 0.0
H526 H 0.21047 0.4011 0.30977 0.0
S527 S 0.20784 0.34877 0.16485 0.0
N528 N 0.22648 0.32205 0.19556 0.0
N529 N 0.19593 0.38416 0.18722 0.0
C530 C 0.20687 0.37506 0.22159 0.0
C531 C 0.22372 0.34162 0.22612 0.0
C532 C 0.09194 0.06709 0.50081 0.0
C533 C 0.10176 0.03118 0.50036 0.0
C534 C 0.11882 0.09579 0.50418 0.0
C535 C 0.15688 0.08997 0.50715 0.0
H536 H 0.06311 0.07311 0.49792 0.0
H537 H 0.10946 0.12287 0.5039 0.0
S538 S 0.19706 0.00052 0.50834 0.0
N539 N 0.15196 0.99098 0.5039 0.0
N540 N 0.20279 0.04493 0.51053 0.0
C541 C 0.16709 0.05399 0.50778 0.0
C542 C 0.1395 0.02464 0.50436 0.0
C543 C 0.76969 0.13689 0.7421 0.0
C544 C 0.75475 0.17068 0.74305 0.0
C545 C 0.74762 0.10524 0.74663 0.0
C546 C 0.70986 0.10619 0.75288 0.0
H547 H 0.79879 0.13498 0.73809 0.0
H548 H 0.76068 0.07987 0.74632 0.0
S549 S 0.65742 0.18834 0.75641 0.0
N550 N 0.70001 0.2037 0.74917 0.0
N551 N 0.65828 0.14399 0.75856 0.0
C552 C 0.69442 0.13992 0.75325 0.0
C553 C 0.71694 0.17223 0.74806 0.0
C554 C 0.40305 0.04377 0.5166 0.0
C555 C 0.41748 0.02907 0.54912 0.0
C556 C 0.3726 0.06521 0.51595 0.0
C557 C 0.35545 0.07282 0.54783 0.0
H558 H 0.41594 0.03937 0.49156 0.0
H559 H 0.36315 0.07672 0.49041 0.0
S560 S 0.37998 0.03711 0.6393 0.0
N561 N 0.41033 0.02091 0.61339 0.0
N562 N 0.3535 0.06145 0.61241 0.0
C563 C 0.36885 0.05718 0.58032 0.0
C564 C 0.39976 0.03531 0.58092 0.0
C565 C 0.60873 0.47378 0.4937 0.0
C566 C 0.60006 0.49163 0.52526 0.0
C567 C 0.63708 0.44968 0.49457 0.0
C568 C 0.65755 0.44262 0.52706 0.0
H569 H 0.59263 0.47748 0.4685 0.0
H570 H 0.6419 0.43539 0.47003 0.0
S571 S 0.64968 0.48713 0.61563 0.0
N572 N 0.61728 0.50406 0.58867 0.0
N573 N 0.66992 0.45857 0.59053 0.0
C574 C 0.65044 0.46189 0.55825 0.0
C575 C 0.62186 0.48644 0.55731 0.0
C576 C 0.71414 0.28822 0.34431 0.0
C577 C 0.70901 0.25034 0.34302 0.0
C578 C 0.72164 0.30643 0.37757 0.0
C579 C 0.72439 0.28708 0.41016 0.0
H580 H 0.71454 0.30355 0.31946 0.0
H581 H 0.72759 0.33537 0.37759 0.0
S582 S 0.70741 0.18836 0.42126 0.0
N583 N 0.70271 0.19482 0.37718 0.0
N584 N 0.71708 0.22872 0.43934 0.0
C585 C 0.71665 0.24956 0.40916 0.0
C586 C 0.70887 0.23124 0.37564 0.0
C587 C 0.53137 0.98099 0.88665 0.0
C588 C 0.50807 0.00904 0.89161 0.0
C589 C 0.55413 0.98125 0.85736 0.0
C590 C 0.55409 0.00941 0.83181 0.0
H591 H 0.5331 0.9595 0.90633 0.0
H592 H 0.57275 0.95982 0.85546 0.0
S593 S 0.49404 0.08678 0.83085 0.0
N594 N 0.48372 0.0639 0.86742 0.0
N595 N 0.52569 0.0644 0.81211 0.0
C596 C 0.52911 0.03649 0.83555 0.0
C597 C 0.50637 0.03634 0.86555 0.0
C598 C 0.2366 0.21077 0.34047 0.0
C599 C 0.27264 0.22213 0.33168 0.0
C600 C 0.22992 0.19519 0.374 0.0
C601 C 0.25905 0.18975 0.39985 0.0
H602 H 0.21313 0.2157 0.32201 0.0
H603 H 0.20153 0.18904 0.38047 0.0
S604 S 0.35882 0.21097 0.38881 0.0
N605 N 0.33813 0.22423 0.35056 0.0
N606 N 0.32555 0.19389 0.41329 0.0
C607 C 0.29546 0.19808 0.39031 0.0
C608 C 0.30227 0.2145 0.35625 0.0
C609 C 0.47956 0.50881 0.90473 0.0
C610 C 0.49871 0.47845 0.91544 0.0
C611 C 0.46175 0.51089 0.87009 0.0
C612 C 0.46289 0.48288 0.8447 0.0
H613 H 0.47902 0.53146 0.92303 0.0
H614 H 0.44846 0.53532 0.86266 0.0
S615 S 0.50754 0.3966 0.86023 0.0
N616 N 0.51643 0.41916 0.89847 0.0
N617 N 0.48276 0.42278 0.83369 0.0
C618 C 0.48071 0.45176 0.85567 0.0
C619 C 0.49865 0.44961 0.89092 0.0
C620 C 0.717 0.77054 0.13072 0.0
C621 C 0.72231 0.76186 0.16741 0.0
C622 C 0.72202 0.74532 0.10383 0.0
C623 C 0.73311 0.71056 0.1126 0.0
H624 H 0.71035 0.79754 0.12276 0.0
H625 H 0.71915 0.75402 0.07597 0.0
S626 S 0.74744 0.67385 0.20523 0.0
N627 N 0.73646 0.71571 0.2116 0.0
N628 N 0.74638 0.66804 0.16097 0.0
C629 C 0.73654 0.70095 0.14935 0.0
C630 C 0.73102 0.72668 0.1768 0.0
C631 C 0.98712 0.05973 0.0994 0.0
C632 C 0.99216 0.02677 0.08208 0.0
C633 C 0.96873 0.06087 0.13128 0.0
C634 C 0.95562 0.02914 0.14784 0.0
H635 H 0.998 0.08505 0.08863 0.0
H636 H 0.96563 0.08684 0.14362 0.0
S637 S 0.95995 0.93599 0.11388 0.0
N638 N 0.98049 0.96149 0.08356 0.0
N639 N 0.94774 0.96389 0.14499 0.0
C640 C 0.96043 0.99596 0.1314 0.0
C641 C 0.97835 0.99471 0.09821 0.0
C642 C 0.2983 0.75616 0.13217 0.0
C643 C 0.30008 0.77165 0.16684 0.0
C644 C 0.28888 0.77622 0.10138 0.0
C645 C 0.28049 0.81254 0.10405 0.0
H646 H 0.30324 0.72794 0.12891 0.0
H647 H 0.28661 0.76254 0.07547 0.0
S648 S 0.28401 0.86636 0.18873 0.0
N649 N 0.295 0.82584 0.20219 0.0
N650 N 0.27713 0.86383 0.14429 0.0
C651 C 0.28388 0.82884 0.13852 0.0
C652 C 0.29376 0.80834 0.16992 0.0
C653 C 0.03395 0.50132 0.13959 0.0
C654 C 0.04071 0.50135 0.10267 0.0
C655 C 0.06323 0.50391 0.16634 0.0
C656 C 0.1004 0.50681 0.15716 0.0
H657 H 0.00587 0.49812 0.14786 0.0
H658 H 0.05659 0.50299 0.19441 0.0
S659 S 0.13217 0.51151 0.06365 0.0
N660 N 0.08668 0.50691 0.05804 0.0
N661 N 0.14177 0.51185 0.10778 0.0
C662 C 0.10727 0.50816 0.12007 0.0
C663 C 0.07745 0.5054 0.093 0.0
C664 C 0.3587 0.73843 0.32109 0.0
C665 C 0.36771 0.7403 0.2848 0.0
C666 C 0.38614 0.74102 0.34938 0.0
C667 C 0.42388 0.74563 0.34266 0.0
H668 H 0.33011 0.73437 0.3277 0.0
H669 H 0.37752 0.73907 0.37679 0.0
S670 S 0.46193 0.75285 0.25201 0.0
N671 N 0.41675 0.74753 0.24336 0.0
N672 N 0.46864 0.75285 0.29651 0.0
C673 C 0.43324 0.74851 0.30635 0.0
C674 C 0.4051 0.7458 0.27746 0.0
C675 C 0.01461 0.41978 0.98281 0.0
C676 C 0.98263 0.42598 0.00084 0.0
C677 C 0.01815 0.38706 0.96489 0.0
C678 C 0.99001 0.35921 0.96475 0.0
H679 H 0.03753 0.43999 0.98352 0.0
H680 H 0.04384 0.38296 0.95265 0.0
S681 S 0.89939 0.36327 0.0052 0.0
N682 N 0.92144 0.4025 0.0155 0.0
N683 N 0.92771 0.34132 0.9815 0.0
C684 C 0.95709 0.36589 0.98104 0.0
C685 C 0.95349 0.39919 0.99914 0.0
C686 C 0.63792 0.80997 0.27128 0.0
C687 C 0.67631 0.81571 0.27852 0.0
C688 C 0.61399 0.80614 0.29944 0.0
C689 C 0.62767 0.80752 0.33588 0.0
H690 H 0.62634 0.80806 0.24362 0.0
H691 H 0.58472 0.80088 0.29251 0.0
S692 S 0.72612 0.82321 0.36902 0.0
N693 N 0.72694 0.82339 0.32455 0.0
N694 N 0.68215 0.81662 0.37752 0.0
C695 C 0.66599 0.81428 0.34341 0.0
C696 C 0.69027 0.81826 0.31473 0.0
C697 C 0.02682 0.12834 0.99543 0.0
C698 C 0.03043 0.09655 0.97566 0.0
C699 C 0.02695 0.16196 0.97869 0.0
C700 C 0.03151 0.16552 0.94151 0.0
H701 H 0.0247 0.12748 0.02445 0.0
H702 H 0.02468 0.18552 0.9954 0.0
S703 S 0.04019 0.09089 0.87682 0.0
N704 N 0.03667 0.07066 0.91627 0.0
N705 N 0.0385 0.13444 0.88488 0.0
C706 C 0.0349 0.13411 0.92113 0.0
C707 C 0.0341 0.09954 0.93819 0.0
C708 C 0.37515 0.25585 0.22965 0.0
C709 C 0.33742 0.25793 0.21927 0.0
C710 C 0.40124 0.25218 0.20365 0.0
C711 C 0.39034 0.24992 0.16648 0.0
H712 H 0.38459 0.25769 0.25795 0.0
H713 H 0.43003 0.25064 0.21277 0.0
S714 S 0.29445 0.25352 0.12577 0.0
N715 N 0.29036 0.25708 0.16968 0.0
N716 N 0.33894 0.25014 0.12093 0.0
C717 C 0.35255 0.25174 0.15598 0.0
C718 C 0.32622 0.25574 0.18233 0.0
C719 C 0.50812 0.39802 0.03873 0.0
C720 C 0.5416 0.41249 0.02596 0.0
C721 C 0.50511 0.36312 0.05325 0.0
C722 C 0.53531 0.34118 0.05481 0.0
H723 H 0.48371 0.41333 0.0362 0.0
H724 H 0.47837 0.35255 0.06126 0.0
S725 S 0.62992 0.36774 0.02788 0.0
N726 N 0.6062 0.40332 0.01831 0.0
N727 N 0.6006 0.33767 0.04519 0.0
C728 C 0.56944 0.35611 0.04388 0.0
C729 C 0.57258 0.39178 0.02958 0.0
C730 C 0.66225 0.21848 0.18365 0.0
C731 C 0.65223 0.21456 0.21952 0.0
C732 C 0.6355 0.22045 0.1549 0.0
C733 C 0.59745 0.21866 0.16068 0.0
H734 H 0.69112 0.22035 0.17772 0.0
H735 H 0.64493 0.22367 0.12788 0.0
S736 S 0.5566 0.20691 0.24964 0.0
N737 N 0.60165 0.20777 0.25933 0.0
N738 N 0.55122 0.21196 0.20539 0.0
C739 C 0.58701 0.2147 0.19653 0.0
C740 C 0.61439 0.21258 0.22587 0.0
C741 C 0.4863 0.11103 0.98707 0.0
C742 C 0.4812 0.0766 0.00259 0.0
C743 C 0.49049 0.14225 0.0085 0.0
C744 C 0.48913 0.14038 0.04628 0.0
H745 H 0.48582 0.11408 0.95798 0.0
H746 H 0.4931 0.16816 0.99516 0.0
S747 S 0.48123 0.05694 0.10087 0.0
N748 N 0.47927 0.04249 0.05863 0.0
N749 N 0.48541 0.10138 0.0987 0.0
C750 C 0.48543 0.10621 0.06235 0.0
C751 C 0.48184 0.0743 0.04058 0.0
C752 C 0.27423 0.40609 0.72179 0.0
C753 C 0.27855 0.36918 0.71706 0.0
C754 C 0.30504 0.431 0.72456 0.0
C755 C 0.34131 0.41983 0.72291 0.0
H756 H 0.24684 0.41583 0.72267 0.0
H757 H 0.30028 0.45925 0.72771 0.0
S758 S 0.36701 0.32515 0.71414 0.0
N759 N 0.32146 0.32213 0.71324 0.0
N760 N 0.37935 0.36854 0.71829 0.0
C761 C 0.34582 0.38267 0.71909 0.0
C762 C 0.31447 0.35747 0.71624 0.0
C763 C 0.30219 0.67447 0.76986 0.0
C764 C 0.26557 0.65994 0.77088 0.0
C765 C 0.33139 0.65227 0.76633 0.0
C766 C 0.32528 0.61455 0.76415 0.0
H767 H 0.30828 0.70338 0.77141 0.0
H768 H 0.35903 0.66488 0.76528 0.0
S769 S 0.23435 0.56306 0.76621 0.0
N770 N 0.22457 0.60564 0.76978 0.0
N771 N 0.2796 0.56357 0.76347 0.0
C772 C 0.28876 0.59956 0.76556 0.0
C773 C 0.25887 0.62234 0.76871 0.0
C774 C 0.88764 0.44165 0.44684 0.0
C775 C 0.91074 0.4565 0.47581 0.0
C776 C 0.85786 0.41677 0.45297 0.0
C777 C 0.85036 0.40601 0.48822 0.0
H778 H 0.89261 0.44934 0.41929 0.0
H779 H 0.84097 0.4055 0.43004 0.0
S780 S 0.90306 0.43528 0.57307 0.0
N781 N 0.92443 0.45741 0.54099 0.0
N782 N 0.86836 0.41102 0.55221 0.0
C783 C 0.87308 0.42049 0.5173 0.0
C784 C 0.90329 0.4457 0.51118 0.0
C785 C 0.71527 0.84494 0.76632 0.0
C786 C 0.75345 0.84157 0.76372 0.0
C787 C 0.69958 0.87834 0.76088 0.0
C788 C 0.72153 0.90938 0.75233 0.0
H789 H 0.69741 0.82161 0.77262 0.0
H790 H 0.67015 0.87981 0.76318 0.0
S791 S 0.82351 0.91567 0.74623 0.0
N792 N 0.81306 0.87288 0.75503 0.0
N793 N 0.78381 0.93494 0.74383 0.0
C794 C 0.75979 0.90633 0.75008 0.0
C795 C 0.77568 0.87264 0.756 0.0
C796 C 0.63577 0.53106 0.00524 0.0
C797 C 0.59792 0.53667 0.99961 0.0
C798 C 0.66225 0.56024 0.0103 0.0
C799 C 0.6519 0.59619 0.01008 0.0
H800 H 0.64507 0.50397 0.00479 0.0
H801 H 0.69109 0.5545 0.01398 0.0
S802 S 0.55544 0.62468 0.99936 0.0
N803 N 0.55103 0.58032 0.99626 0.0
N804 N 0.60024 0.63512 0.00562 0.0
C805 C 0.61381 0.60189 0.00544 0.0
C806 C 0.58702 0.57219 1.00025 0.0
C807 C 0.22364 0.66287 0.23911 0.0
C808 C 0.26154 0.66095 0.2345 0.0
C809 C 0.20126 0.63166 0.24588 0.0
C810 C 0.21603 0.59756 0.24766 0.0
H811 H 0.21154 0.68876 0.23872 0.0
H812 H 0.17238 0.63435 0.25026 0.0
S813 S 0.31366 0.5786 0.2354 0.0
N814 N 0.3127 0.62268 0.23067 0.0
N815 N 0.27101 0.56399 0.24311 0.0
C816 C 0.25377 0.59539 0.24181 0.0
C817 C 0.27645 0.62713 0.23533 0.0
C818 C 0.90021 0.5374 0.07859 0.0
C819 C 0.91649 0.53014 0.04621 0.0
C820 C 0.86985 0.55873 0.07901 0.0
C821 C 0.85431 0.57362 0.04703 0.0
H822 H 0.91108 0.52657 0.10395 0.0
H823 H 0.85875 0.56388 0.10481 0.0
S824 S 0.88673 0.56284 0.95494 0.0
N825 N 0.91496 0.53968 0.98121 0.0
N826 N 0.85741 0.57927 0.98187 0.0
C827 C 0.86978 0.56595 0.01426 0.0
C828 C 0.90095 0.54436 0.01388 0.0
C829 C 0.07893 0.94382 0.00669 0.0
C830 C 0.08981 0.98078 0.00726 0.0
C831 C 0.1047 0.9178 0.00355 0.0
C832 C 0.14259 0.92758 0.0011 0.0
H833 H 0.05018 0.9349 0.00905 0.0
H834 H 0.09476 0.8897 0.00384 0.0
S835 S 0.18524 0.02114 0.00072 0.0
N836 N 0.14082 0.02615 0.00455 0.0
N837 N 0.18948 0.97725 0.9985 0.0
C838 C 0.15376 0.9646 0.00073 0.0
C839 C 0.12735 0.99117 0.00384 0.0
loop_
_geom_bond_atom_site_label_1
_geom_bond_atom_site_label_2
_geom_bond_distance
_geom_bond_site_symmetry_2
_ccdc_geom_bond_type
H0 C3 0.931 1_655 S
H1 C6 0.928 1_565 S
H2 C8 0.929 1_556 S
C3 H0 0.931 1_455 S
C3 C4 1.413 . S
C3 C5 1.360 . S
C4 C3 1.413 . S
C4 C8 1.429 . S
C5 C3 1.360 . S
C5 C6 1.372 . S
C6 H1 0.928 1_545 S
C6 C5 1.372 . S
C6 C7 1.404 . S
C7 C6 1.404 . S
C7 C8 1.391 . S
C8 H2 0.929 1_554 S
C8 C4 1.429 . S
C8 C7 1.391 . S
H9 C12 0.931 . S
H10 C15 0.928 . S
H11 C17 0.930 . S
C12 H9 0.931 . S
C12 C13 1.413 . S
C12 C14 1.360 . S
C13 C12 1.413 . S
C13 C17 1.429 . S
C14 C12 1.360 . S
C14 C15 1.372 . S
C15 H10 0.928 . S
C15 C14 1.372 . S
C15 C16 1.404 . S
C16 C15 1.404 . S
C16 C17 1.391 . S
C17 H11 0.930 . S
C17 C13 1.429 . S
C17 C16 1.391 . S
H18 C21 0.931 . S
H19 C24 0.928 . S
H20 C26 0.914 1_556 S
C21 H18 0.931 . S
C21 C22 1.413 . S
C21 C23 1.360 1_655 S
C22 C21 1.413 . S
C22 C26 1.429 . S
C23 C21 1.360 1_455 S
C23 C24 1.372 . S
C24 H19 0.928 . S
C24 C23 1.372 . S
C24 C25 1.404 1_455 S
C25 C24 1.404 1_655 S
C25 C26 1.391 . S
C26 H20 0.914 1_554 S
C26 C22 1.429 . S
C26 C25 1.391 . S
H27 C30 0.931 . S
H28 C33 0.928 . S
H29 C35 0.930 . S
C30 H27 0.931 . S
C30 C31 1.413 . S
C30 C32 1.360 . S
C31 C30 1.413 . S
C31 C35 1.429 . S
C32 C30 1.360 . S
C32 C33 1.372 . S
C33 H28 0.928 . S
C33 C32 1.372 . S
C33 C34 1.404 . S
C34 C33 1.404 . S
C34 C35 1.391 . S
C35 H29 0.930 . S
C35 C31 1.429 . S
C35 C34 1.391 . S
H36 C39 0.931 . S
H37 C42 0.928 . S
H38 C44 0.930 . S
C39 H36 0.931 . S
C39 C40 1.413 . S
C39 C41 1.360 . S
C40 C39 1.413 . S
C40 C44 1.429 . S
C41 C39 1.360 . S
C41 C42 1.372 1_565 S
C42 H37 0.928 . S
C42 C41 1.372 1_545 S
C42 C43 1.404 1_545 S
C43 C42 1.404 1_565 S
C43 C44 1.391 . S
C44 H38 0.930 . S
C44 C40 1.429 . S
C44 C43 1.391 . S
H45 C48 0.931 . S
H46 C51 0.928 . S
H47 C53 0.930 . S
C48 H45 0.931 . S
C48 C49 1.413 . S
C48 C50 1.360 . S
C49 C48 1.413 . S
C49 C53 1.429 . S
C50 C48 1.360 . S
C50 C51 1.372 . S
C51 H46 0.928 . S
C51 C50 1.372 . S
C51 C52 1.404 . S
C52 C51 1.404 . S
C52 C53 1.391 . S
C53 H47 0.930 . S
C53 C49 1.429 . S
C53 C52 1.391 . S
H54 C57 0.931 . S
H55 C60 0.928 1_455 S
H56 C62 0.930 . S
C57 H54 0.931 . S
C57 C58 1.413 . S
C57 C59 1.360 . S
C58 C57 1.413 . S
C58 C62 1.429 . S
C59 C57 1.360 . S
C59 C60 1.372 . S
C60 H55 0.928 1_655 S
C60 C59 1.372 . S
C60 C61 1.404 . S
C61 C60 1.404 . S
C61 C62 1.391 . S
C62 H56 0.930 . S
C62 C58 1.429 . S
C62 C61 1.391 . S
H63 C66 0.931 . S
H64 C69 0.928 . S
H65 C71 0.930 . S
C66 H63 0.931 . S
C66 C67 1.413 . S
C66 C68 1.360 . S
C67 C66 1.413 . S
C67 C71 1.429 . S
C68 C66 1.360 . S
C68 C69 1.372 . S
C69 H64 0.928 . S
C69 C68 1.372 . S
C69 C70 1.404 . S
C70 C69 1.404 . S
C70 C71 1.391 . S
C71 H65 0.930 . S
C71 C67 1.429 . S
C71 C70 1.391 . S
H72 C75 0.931 . S
H73 C78 0.928 . S
H74 C80 0.930 . S
C75 H72 0.931 . S
C75 C76 1.413 . S
C75 C77 1.360 . S
C76 C75 1.413 . S
C76 C80 1.429 . S
C77 C75 1.360 . S
C77 C78 1.372 . S
C78 H73 0.928 . S
C78 C77 1.372 . S
C78 C79 1.404 . S
C79 C78 1.404 . S
C79 C80 1.391 . S
C80 H74 0.930 . S
C80 C76 1.429 . S
C80 C79 1.391 . S
H81 C84 0.931 1_545 S
H82 C87 0.928 . S
H83 C89 0.930 . S
C84 H81 0.931 1_565 S
C84 C85 1.413 . S
C84 C86 1.360 . S
C85 C84 1.413 . S
C85 C89 1.429 . S
C86 C84 1.360 . S
C86 C87 1.372 . S
C87 H82 0.928 . S
C87 C86 1.372 . S
C87 C88 1.404 . S
C88 C87 1.404 . S
C88 C89 1.391 . S
C89 H83 0.930 . S
C89 C85 1.429 . S
C89 C88 1.391 . S
H90 C93 0.931 . S
H91 C96 0.928 . S
H92 C98 0.930 . S
C93 H90 0.931 . S
C93 C94 1.413 . S
C93 C95 1.360 . S
C94 C93 1.413 . S
C94 C98 1.429 . S
C95 C93 1.360 . S
C95 C96 1.372 . S
C96 H91 0.928 . S
C96 C95 1.372 . S
C96 C97 1.404 . S
C97 C96 1.404 . S
C97 C98 1.391 . S
C98 H92 0.930 . S
C98 C94 1.429 . S
C98 C97 1.391 . S
H99 C102 0.931 . S
H100 C105 0.928 . S
H101 C107 0.930 . S
C102 H99 0.931 . S
C102 C103 1.413 . S
C102 C104 1.360 . S
C103 C102 1.413 . S
C103 C107 1.429 . S
C104 C102 1.360 . S
C104 C105 1.372 . S
C105 H100 0.928 . S
C105 C104 1.372 . S
C105 C106 1.404 . S
C106 C105 1.404 . S
C106 C107 1.391 . S
C107 H101 0.930 . S
C107 C103 1.429 . S
C107 C106 1.391 . S
H108 C111 0.931 . S
H109 C114 0.928 . S
H110 C116 0.930 . S
C111 H108 0.931 . S
C111 C112 1.413 . S
C111 C113 1.360 . S
C112 C111 1.413 . S
C112 C116 1.429 . S
C113 C111 1.360 . S
C113 C114 1.372 . S
C114 H109 0.928 . S
C114 C113 1.372 . S
C114 C115 1.404 . S
C115 C114 1.404 . S
C115 C116 1.391 . S
C116 H110 0.930 . S
C116 C112 1.429 . S
C116 C115 1.391 . S
H117 C120 0.931 . S
H118 C123 0.928 . S
H119 C125 0.930 1_554 S
C120 H117 0.931 . S
C120 C121 1.413 . S
C120 C122 1.360 . S
C121 C120 1.413 . S
C121 C125 1.429 . S
C122 C120 1.360 . S
C122 C123 1.372 . S
C123 H118 0.928 . S
C123 C122 1.372 . S
C123 C124 1.404 . S
C124 C123 1.404 . S
C124 C125 1.391 . S
C125 H119 0.930 1_556 S
C125 C121 1.429 . S
C125 C124 1.391 . S
H126 C129 0.931 . S
H127 C132 0.928 . S
H128 C134 0.930 . S
C129 H126 0.931 . S
C129 C130 1.413 . S
C129 C131 1.360 . S
C130 C129 1.413 . S
C130 C134 1.429 . S
C131 C129 1.360 . S
C131 C132 1.372 . S
C132 H127 0.928 . S
C132 C131 1.372 . S
C132 C133 1.404 . S
C133 C132 1.404 . S
C133 C134 1.391 . S
C134 H128 0.930 . S
C134 C130 1.429 . S
C134 C133 1.391 . S
H135 C138 0.939 . S
H136 C141 0.928 . S
H137 C143 0.930 1_565 S
C138 H135 0.939 . S
C138 C139 1.407 1_554 S
C138 C140 1.358 1_554 S
C139 C138 1.407 1_556 S
C139 C143 1.429 . S
C140 C138 1.358 1_556 S
C140 C141 1.372 . S
C141 H136 0.928 . S
C141 C140 1.372 . S
C141 C142 1.404 . S
C142 C141 1.404 . S
C142 C143 1.391 . S
C143 H137 0.930 1_545 S
C143 C139 1.429 . S
C143 C142 1.391 . S
Mg144 O145 2.028 . S
Mg144 O151 1.986 1_554 S
Mg144 O153 2.114 . S
Mg144 O154 2.251 . S
Mg144 O157 2.010 . S
O145 Mg144 2.028 . S
O145 C148 1.250 1_554 S
O146 Mg147 2.028 . S
O146 C148 1.248 . S
Mg147 O146 2.028 . S
Mg147 O152 2.032 . S
Mg147 O154 2.079 1_556 S
C148 O145 1.250 1_556 S
C148 O146 1.248 . S
C149 O150 1.264 . S
C149 O157 1.249 . S
O150 C149 1.264 . S
O151 Mg144 1.986 1_556 S
O151 C155 1.246 . S
O152 Mg147 2.032 . S
O152 C155 1.259 . S
O153 Mg144 2.114 . S
O153 C156 1.252 . S
O154 Mg144 2.251 . S
O154 Mg147 2.079 1_554 S
O154 C156 1.273 . S
C155 O151 1.246 . S
C155 O152 1.259 . S
C156 O153 1.252 . S
C156 O154 1.273 . S
O157 Mg144 2.010 . S
O157 C149 1.249 . S
Mg158 O159 2.028 . S
Mg158 O165 1.986 . S
Mg158 O167 2.114 . S
Mg158 O168 2.251 . S
Mg158 O171 2.010 . S
O159 Mg158 2.028 . S
O159 C162 1.250 . S
O160 Mg161 2.028 . S
O160 C162 1.248 . S
Mg161 O160 2.028 . S
Mg161 O166 2.032 . S
Mg161 O168 2.079 . S
C162 O159 1.250 . S
C162 O160 1.248 . S
C163 O164 1.264 . S
C163 O171 1.249 . S
O164 C163 1.264 . S
O165 Mg158 1.986 . S
O165 C169 1.246 . S
O166 Mg161 2.032 . S
O166 C169 1.259 . S
O167 Mg158 2.114 . S
O167 C170 1.252 . S
O168 Mg158 2.251 . S
O168 Mg161 2.079 . S
O168 C170 1.273 . S
C169 O165 1.246 . S
C169 O166 1.259 . S
C170 O167 1.252 . S
C170 O168 1.273 . S
O171 Mg158 2.010 . S
O171 C163 1.249 . S
Mg172 O173 2.028 . S
Mg172 O179 1.986 1_554 S
Mg172 O181 2.114 . S
Mg172 O182 2.251 . S
Mg172 O185 2.010 . S
O173 Mg172 2.028 . S
O173 C176 1.250 . S
O174 Mg175 2.028 . S
O174 C176 1.248 1_556 S
Mg175 O174 2.028 . S
Mg175 O180 2.032 . S
Mg175 O182 2.079 1_556 S
C176 O173 1.250 . S
C176 O174 1.248 1_554 S
C177 O178 1.264 . S
C177 O185 1.249 . S
O178 C177 1.264 . S
O179 Mg172 1.986 1_556 S
O179 C183 1.246 . S
O180 Mg175 2.032 . S
O180 C183 1.259 . S
O181 Mg172 2.114 . S
O181 C184 1.252 . S
O182 Mg172 2.251 . S
O182 Mg175 2.079 1_554 S
O182 C184 1.273 . S
C183 O179 1.246 . S
C183 O180 1.259 . S
C184 O181 1.252 . S
C184 O182 1.273 . S
O185 Mg172 2.010 . S
O185 C177 1.249 . S
Mg186 O187 2.028 1_545 S
Mg186 O193 1.986 . S
Mg186 O195 2.114 . S
Mg186 O196 2.251 . S
Mg186 O199 2.010 . S
O187 Mg186 2.028 1_565 S
O187 C190 1.250 . S
O188 Mg189 2.028 . S
O188 C190 1.248 . S
Mg189 O188 2.028 . S
Mg189 O194 2.032 . S
Mg189 O196 2.079 1_565 S
C190 O187 1.250 . S
C190 O188 1.248 . S
C191 O192 1.264 . S
C191 O199 1.249 . S
O192 C191 1.264 . S
O193 Mg186 1.986 . S
O193 C197 1.246 1_545 S
O194 Mg189 2.032 . S
O194 C197 1.259 . S
O195 Mg186 2.114 . S
O195 C198 1.252 . S
O196 Mg186 2.251 . S
O196 Mg189 2.079 1_545 S
O196 C198 1.273 . S
C197 O193 1.246 1_565 S
C197 O194 1.259 . S
C198 O195 1.252 . S
C198 O196 1.273 . S
O199 Mg186 2.010 . S
O199 C191 1.249 . S
Mg200 O201 2.028 . S
Mg200 O207 1.986 . S
Mg200 O209 2.114 . S
Mg200 O210 2.251 . S
Mg200 O213 2.010 . S
O201 Mg200 2.028 . S
O201 C204 1.250 . S
O202 Mg203 2.028 . S
O202 C204 1.248 . S
Mg203 O202 2.028 . S
Mg203 O208 2.032 . S
Mg203 O210 2.079 . S
C204 O201 1.250 . S
C204 O202 1.248 . S
C205 O206 1.264 . S
C205 O213 1.249 . S
O206 C205 1.264 . S
O207 Mg200 1.986 . S
O207 C211 1.246 . S
O208 Mg203 2.032 . S
O208 C211 1.259 . S
O209 Mg200 2.114 . S
O209 C212 1.252 . S
O210 Mg200 2.251 . S
O210 Mg203 2.079 . S
O210 C212 1.273 . S
C211 O207 1.246 . S
C211 O208 1.259 . S
C212 O209 1.252 . S
C212 O210 1.273 . S
O213 Mg200 2.010 . S
O213 C205 1.249 . S
Mg214 O215 2.028 . S
Mg214 O221 1.986 . S
Mg214 O223 2.114 . S
Mg214 O224 2.251 . S
Mg214 O227 2.010 . S
O215 Mg214 2.028 . S
O215 C218 1.250 . S
O216 Mg217 2.028 . S
O216 C218 1.248 . S
Mg217 O216 2.028 . S
Mg217 O222 2.032 . S
Mg217 O224 2.079 . S
C218 O215 1.250 . S
C218 O216 1.248 . S
C219 O220 1.264 . S
C219 O227 1.249 . S
O220 C219 1.264 . S
O221 Mg214 1.986 . S
O221 C225 1.246 . S
O222 Mg217 2.032 . S
O222 C225 1.259 . S
O223 Mg214 2.114 . S
O223 C226 1.252 . S
O224 Mg214 2.251 . S
O224 Mg217 2.079 . S
O224 C226 1.273 . S
C225 O221 1.246 . S
C225 O222 1.259 . S
C226 O223 1.252 . S
C226 O224 1.273 . S
O227 Mg214 2.010 . S
O227 C219 1.249 . S
Mg228 O229 2.028 . S
Mg228 O235 1.986 . S
Mg228 O237 2.114 . S
Mg228 O238 2.251 . S
Mg228 O241 2.010 . S
O229 Mg228 2.028 . S
O229 C232 1.250 . S
O230 Mg231 2.028 . S
O230 C232 1.248 . S
Mg231 O230 2.028 . S
Mg231 O236 2.032 . S
Mg231 O238 2.079 . S
C232 O229 1.250 . S
C232 O230 1.248 . S
C233 O234 1.264 . S
C233 O241 1.249 . S
O234 C233 1.264 . S
O235 Mg228 1.986 . S
O235 C239 1.246 . S
O236 Mg231 2.032 . S
O236 C239 1.259 . S
O237 Mg228 2.114 . S
O237 C240 1.252 . S
O238 Mg228 2.251 . S
O238 Mg231 2.079 . S
O238 C240 1.273 . S
C239 O235 1.246 . S
C239 O236 1.259 . S
C240 O237 1.252 . S
C240 O238 1.273 . S
O241 Mg228 2.010 . S
O241 C233 1.249 . S
Mg242 O243 2.028 1_545 S
Mg242 O249 1.986 1_545 S
Mg242 O251 2.114 . S
Mg242 O252 2.251 . S
Mg242 O255 2.010 . S
O243 Mg242 2.028 1_565 S
O243 C246 1.250 . S
O244 Mg245 2.028 . S
O244 C246 1.248 . S
Mg245 O244 2.028 . S
Mg245 O250 2.032 . S
Mg245 O252 2.079 1_565 S
C246 O243 1.250 . S
C246 O244 1.248 . S
C247 O248 1.264 . S
C247 O255 1.249 . S
O248 C247 1.264 . S
O249 Mg242 1.986 1_565 S
O249 C253 1.246 . S
O250 Mg245 2.032 . S
O250 C253 1.259 . S
O251 Mg242 2.114 . S
O251 C254 1.252 . S
O252 Mg242 2.251 . S
O252 Mg245 2.079 1_545 S
O252 C254 1.273 . S
C253 O249 1.246 . S
C253 O250 1.259 . S
C254 O251 1.252 . S
C254 O252 1.273 . S
O255 Mg242 2.010 . S
O255 C247 1.249 . S
Mg256 O257 2.028 1_455 S
Mg256 O263 1.986 . S
Mg256 O265 2.114 . S
Mg256 O266 2.251 1_455 S
Mg256 O269 2.010 . S
O257 Mg256 2.028 1_655 S
O257 C260 1.250 . S
O258 Mg259 2.028 . S
O258 C260 1.248 . S
Mg259 O258 2.028 . S
Mg259 O264 2.032 . S
Mg259 O266 2.079 . S
C260 O257 1.250 . S
C260 O258 1.248 . S
C261 O262 1.264 . S
C261 O269 1.249 . S
O262 C261 1.264 . S
O263 Mg256 1.986 . S
O263 C267 1.246 1_455 S
O264 Mg259 2.032 . S
O264 C267 1.259 . S
O265 Mg256 2.114 . S
O265 C268 1.252 . S
O266 Mg256 2.251 1_655 S
O266 Mg259 2.079 . S
O266 C268 1.273 1_655 S
C267 O263 1.246 1_655 S
C267 O264 1.259 . S
C268 O265 1.252 . S
C268 O266 1.273 1_455 S
O269 Mg256 2.010 . S
O269 C261 1.249 . S
Mg270 O271 2.028 . S
Mg270 O277 1.986 . S
Mg270 O279 2.114 . S
Mg270 O280 2.251 . S
Mg270 O283 2.010 . S
O271 Mg270 2.028 . S
O271 C274 1.250 . S
O272 Mg273 2.028 . S
O272 C274 1.248 . S
Mg273 O272 2.028 . S
Mg273 O278 2.032 . S
Mg273 O280 2.079 . S
C274 O271 1.250 . S
C274 O272 1.248 . S
C275 O276 1.264 . S
C275 O283 1.249 . S
O276 C275 1.264 . S
O277 Mg270 1.986 . S
O277 C281 1.246 . S
O278 Mg273 2.032 . S
O278 C281 1.259 . S
O279 Mg270 2.114 . S
O279 C282 1.252 . S
O280 Mg270 2.251 . S
O280 Mg273 2.079 . S
O280 C282 1.273 . S
C281 O277 1.246 . S
C281 O278 1.259 . S
C282 O279 1.252 . S
C282 O280 1.273 . S
O283 Mg270 2.010 . S
O283 C275 1.249 . S
Mg284 O285 2.028 1_655 S
Mg284 O291 1.986 . S
Mg284 O293 2.114 . S
Mg284 O294 2.251 1_655 S
Mg284 O297 2.010 . S
O285 Mg284 2.028 1_455 S
O285 C288 1.250 . S
O286 Mg287 2.028 . S
O286 C288 1.248 . S
Mg287 O286 2.028 . S
Mg287 O292 2.032 . S
Mg287 O294 2.079 . S
C288 O285 1.250 . S
C288 O286 1.248 . S
C289 O290 1.264 . S
C289 O297 1.249 . S
O290 C289 1.264 . S
O291 Mg284 1.986 . S
O291 C295 1.246 1_655 S
O292 Mg287 2.032 . S
O292 C295 1.259 . S
O293 Mg284 2.114 . S
O293 C296 1.252 . S
O294 Mg284 2.251 1_455 S
O294 Mg287 2.079 . S
O294 C296 1.273 1_455 S
C295 O291 1.246 1_455 S
C295 O292 1.259 . S
C296 O293 1.252 . S
C296 O294 1.273 1_655 S
O297 Mg284 2.010 . S
O297 C289 1.249 . S
Mg298 O299 2.028 . S
Mg298 O305 1.986 . S
Mg298 O307 2.114 . S
Mg298 O308 2.251 . S
Mg298 O311 2.010 . S
O299 Mg298 2.028 . S
O299 C302 1.250 . S
O300 Mg301 2.028 . S
O300 C302 1.248 . S
Mg301 O300 2.028 . S
Mg301 O306 2.032 . S
Mg301 O308 2.079 . S
C302 O299 1.250 . S
C302 O300 1.248 . S
C303 O304 1.264 . S
C303 O311 1.249 . S
O304 C303 1.264 . S
O305 Mg298 1.986 . S
O305 C309 1.246 . S
O306 Mg301 2.032 . S
O306 C309 1.259 . S
O307 Mg298 2.114 . S
O307 C310 1.252 . S
O308 Mg298 2.251 . S
O308 Mg301 2.079 . S
O308 C310 1.273 . S
C309 O305 1.246 . S
C309 O306 1.259 . S
C310 O307 1.252 . S
C310 O308 1.273 . S
O311 Mg298 2.010 . S
O311 C303 1.249 . S
C312 C313 1.369 . S
C312 C314 1.419 . S
C312 H316 0.930 . S
C313 C312 1.369 . S
C313 C322 1.429 . S
C314 C312 1.419 . S
C314 C315 1.363 . S
C314 H317 0.929 . S
C315 C314 1.363 . S
C315 C321 1.428 . S
H316 C312 0.930 . S
H317 C314 0.929 . S
S318 N319 1.613 . S
S318 N320 1.610 . S
N319 S318 1.613 . S
N319 C322 1.350 . S
N320 S318 1.610 . S
N320 C321 1.351 . S
C321 C315 1.428 . S
C321 N320 1.351 . S
C321 C322 1.434 . S
C322 C313 1.429 . S
C322 N319 1.350 . S
C322 C321 1.434 . S
C323 C324 1.369 . S
C323 C325 1.419 . S
C323 H327 0.930 1_455 S
C324 C323 1.369 . S
C324 C333 1.429 . S
C325 C323 1.419 . S
C325 C326 1.363 . S
C325 H328 0.929 . S
C326 C325 1.363 . S
C326 C332 1.428 . S
H327 C323 0.930 1_655 S
H328 C325 0.929 . S
S329 N330 1.613 . S
S329 N331 1.610 . S
N330 S329 1.613 . S
N330 C333 1.350 . S
N331 S329 1.610 . S
N331 C332 1.351 . S
C332 C326 1.428 . S
C332 N331 1.351 . S
C332 C333 1.434 . S
C333 C324 1.429 . S
C333 N330 1.350 . S
C333 C332 1.434 . S
C334 C335 1.369 . S
C334 C336 1.419 . S
C334 H338 0.930 . S
C335 C334 1.369 . S
C335 C344 1.429 . S
C336 C334 1.419 . S
C336 C337 1.363 . S
C336 H339 0.929 . S
C337 C336 1.363 . S
C337 C343 1.428 . S
H338 C334 0.930 . S
H339 C336 0.929 . S
S340 N341 1.613 . S
S340 N342 1.610 . S
N341 S340 1.613 . S
N341 C344 1.350 . S
N342 S340 1.610 . S
N342 C343 1.351 . S
C343 C337 1.428 . S
C343 N342 1.351 . S
C343 C344 1.434 . S
C344 C335 1.429 . S
C344 N341 1.350 . S
C344 C343 1.434 . S
C345 C346 1.369 . S
C345 C347 1.419 1_455 S
C345 H349 0.930 . S
C346 C345 1.369 . S
C346 C355 1.429 1_455 S
C347 C345 1.419 1_655 S
C347 C348 1.363 . S
C347 H350 0.929 1_665 S
C348 C347 1.363 . S
C348 C354 1.428 . S
H349 C345 0.930 . S
H350 C347 0.929 1_445 S
S351 N352 1.613 . S
S351 N353 1.610 . S
N352 S351 1.613 . S
N352 C355 1.350 . S
N353 S351 1.610 . S
N353 C354 1.351 . S
C354 C348 1.428 . S
C354 N353 1.351 . S
C354 C355 1.434 . S
C355 C346 1.429 1_655 S
C355 N352 1.350 . S
C355 C354 1.434 . S
C356 C357 1.369 . S
C356 C358 1.419 . S
C356 H360 0.930 . S
C357 C356 1.369 . S
C357 C366 1.429 . S
C358 C356 1.419 . S
C358 C359 1.363 . S
C358 H361 0.929 . S
C359 C358 1.363 . S
C359 C365 1.428 . S
H360 C356 0.930 . S
H361 C358 0.929 . S
S362 N363 1.613 . S
S362 N364 1.610 . S
N363 S362 1.613 . S
N363 C366 1.350 . S
N364 S362 1.610 . S
N364 C365 1.351 . S
C365 C359 1.428 . S
C365 N364 1.351 . S
C365 C366 1.434 . S
C366 C357 1.429 . S
C366 N363 1.350 . S
C366 C365 1.434 . S
C367 C368 1.369 . S
C367 C369 1.419 . S
C367 H371 0.930 . S
C368 C367 1.369 . S
C368 C377 1.429 . S
C369 C367 1.419 . S
C369 C370 1.363 . S
C369 H372 0.929 . S
C370 C369 1.363 . S
C370 C376 1.428 . S
H371 C367 0.930 . S
H372 C369 0.929 . S
S373 N374 1.613 . S
S373 N375 1.610 . S
N374 S373 1.613 . S
N374 C377 1.350 . S
N375 S373 1.610 . S
N375 C376 1.351 . S
C376 C370 1.428 . S
C376 N375 1.351 . S
C376 C377 1.434 . S
C377 C368 1.429 . S
C377 N374 1.350 . S
C377 C376 1.434 . S
C378 C379 1.369 . S
C378 C380 1.419 . S
C378 H382 0.930 . S
C379 C378 1.369 . S
C379 C388 1.429 . S
C380 C378 1.419 . S
C380 C381 1.363 . S
C380 H383 0.929 . S
C381 C380 1.363 . S
C381 C387 1.428 . S
H382 C378 0.930 . S
H383 C380 0.929 . S
S384 N385 1.613 . S
S384 N386 1.610 . S
N385 S384 1.613 . S
N385 C388 1.350 . S
N386 S384 1.610 . S
N386 C387 1.351 . S
C387 C381 1.428 . S
C387 N386 1.351 . S
C387 C388 1.434 . S
C388 C379 1.429 . S
C388 N385 1.350 . S
C388 C387 1.434 . S
C389 C390 1.369 . S
C389 C391 1.419 . S
C389 H393 0.930 . S
C390 C389 1.369 . S
C390 C399 1.429 . S
C391 C389 1.419 . S
C391 C392 1.363 . S
C391 H394 0.929 . S
C392 C391 1.363 . S
C392 C398 1.428 . S
H393 C389 0.930 . S
H394 C391 0.929 . S
S395 N396 1.613 . S
S395 N397 1.610 . S
N396 S395 1.613 . S
N396 C399 1.350 . S
N397 S395 1.610 . S
N397 C398 1.351 . S
C398 C392 1.428 . S
C398 N397 1.351 . S
C398 C399 1.434 . S
C399 C390 1.429 . S
C399 N396 1.350 . S
C399 C398 1.434 . S
C400 C401 1.369 . S
C400 C402 1.419 . S
C400 H404 0.930 . S
C401 C400 1.369 . S
C401 C410 1.429 . S
C402 C400 1.419 . S
C402 C403 1.363 . S
C402 H405 0.929 . S
C403 C402 1.363 . S
C403 C409 1.428 . S
H404 C400 0.930 . S
H405 C402 0.929 . S
S406 N407 1.613 . S
S406 N408 1.610 . S
N407 S406 1.613 . S
N407 C410 1.350 . S
N408 S406 1.610 . S
N408 C409 1.351 . S
C409 C403 1.428 . S
C409 N408 1.351 . S
C409 C410 1.434 . S
C410 C401 1.429 . S
C410 N407 1.350 . S
C410 C409 1.434 . S
C411 C412 1.369 . S
C411 C413 1.419 . S
C411 H415 0.930 . S
C412 C411 1.369 . S
C412 C421 1.429 . S
C413 C411 1.419 . S
C413 C414 1.363 . S
C413 H416 0.929 . S
C414 C413 1.363 . S
C414 C420 1.428 . S
H415 C411 0.930 . S
H416 C413 0.929 . S
S417 N418 1.613 . S
S417 N419 1.610 . S
N418 S417 1.613 . S
N418 C421 1.350 . S
N419 S417 1.610 . S
N419 C420 1.351 . S
C420 C414 1.428 . S
C420 N419 1.351 . S
C420 C421 1.434 . S
C421 C412 1.429 . S
C421 N418 1.350 . S
C421 C420 1.434 . S
C422 C423 1.369 . S
C422 C424 1.419 . S
C422 H426 0.930 . S
C423 C422 1.369 . S
C423 C432 1.429 . S
C424 C422 1.419 . S
C424 C425 1.363 . S
C424 H427 0.929 . S
C425 C424 1.363 . S
C425 C431 1.428 . S
H426 C422 0.930 . S
H427 C424 0.929 . S
S428 N429 1.613 . S
S428 N430 1.610 . S
N429 S428 1.613 . S
N429 C432 1.350 . S
N430 S428 1.610 . S
N430 C431 1.351 . S
C431 C425 1.428 . S
C431 N430 1.351 . S
C431 C432 1.434 . S
C432 C423 1.429 . S
C432 N429 1.350 . S
C432 C431 1.434 . S
C433 C434 1.369 . S
C433 C435 1.419 . S
C433 H437 0.930 . S
C434 C433 1.369 . S
C434 C443 1.429 . S
C435 C433 1.419 . S
C435 C436 1.363 . S
C435 H438 0.929 . S
C436 C435 1.363 . S
C436 C442 1.428 . S
H437 C433 0.930 . S
H438 C435 0.929 . S
S439 N440 1.613 . S
S439 N441 1.610 . S
N440 S439 1.613 . S
N440 C443 1.350 . S
N441 S439 1.610 . S
N441 C442 1.351 . S
C442 C436 1.428 . S
C442 N441 1.351 . S
C442 C443 1.434 . S
C443 C434 1.429 . S
C443 N440 1.350 . S
C443 C442 1.434 . S
C444 C445 1.369 . S
C444 C446 1.419 . S
C444 H448 0.930 . S
C445 C444 1.369 . S
C445 C454 1.429 . S
C446 C444 1.419 . S
C446 C447 1.363 . S
C446 H449 0.929 . S
C447 C446 1.363 . S
C447 C453 1.428 . S
H448 C444 0.930 . S
H449 C446 0.929 . S
S450 N451 1.613 . S
S450 N452 1.610 . S
N451 S450 1.613 . S
N451 C454 1.350 . S
N452 S450 1.610 . S
N452 C453 1.351 . S
C453 C447 1.428 . S
C453 N452 1.351 . S
C453 C454 1.434 . S
C454 C445 1.429 . S
C454 N451 1.350 . S
C454 C453 1.434 . S
C455 C456 1.369 . S
C455 C457 1.419 . S
C455 H459 0.930 . S
C456 C455 1.369 . S
C456 C465 1.429 . S
C457 C455 1.419 . S
C457 C458 1.363 . S
C457 H460 0.929 . S
C458 C457 1.363 . S
C458 C464 1.428 . S
H459 C455 0.930 . S
H460 C457 0.929 . S
S461 N462 1.613 . S
S461 N463 1.610 . S
N462 S461 1.613 . S
N462 C465 1.350 1_655 S
N463 S461 1.610 . S
N463 C464 1.351 1_655 S
C464 C458 1.428 . S
C464 N463 1.351 1_455 S
C464 C465 1.434 . S
C465 C456 1.429 . S
C465 N462 1.350 1_455 S
C465 C464 1.434 . S
C466 C467 1.369 . S
C466 C468 1.419 . S
C466 H470 0.930 . S
C467 C466 1.369 . S
C467 C476 1.429 . S
C468 C466 1.419 . S
C468 C469 1.363 . S
C468 H471 0.929 . S
C469 C468 1.363 . S
C469 C475 1.428 . S
H470 C466 0.930 . S
H471 C468 0.929 . S
S472 N473 1.613 . S
S472 N474 1.610 . S
N473 S472 1.613 . S
N473 C476 1.350 . S
N474 S472 1.610 . S
N474 C475 1.351 . S
C475 C469 1.428 . S
C475 N474 1.351 . S
C475 C476 1.434 . S
C476 C467 1.429 . S
C476 N473 1.350 . S
C476 C475 1.434 . S
C477 C478 1.369 . S
C477 C479 1.419 . S
C477 H481 0.930 . S
C478 C477 1.369 . S
C478 C487 1.429 1_655 S
C479 C477 1.419 . S
C479 C480 1.363 . S
C479 H482 0.929 . S
C480 C479 1.363 . S
C480 C486 1.428 1_655 S
H481 C477 0.930 . S
H482 C479 0.929 . S
S483 N484 1.613 . S
S483 N485 1.610 . S
N484 S483 1.613 . S
N484 C487 1.350 . S
N485 S483 1.610 . S
N485 C486 1.351 . S
C486 C480 1.428 1_455 S
C486 N485 1.351 . S
C486 C487 1.434 . S
C487 C478 1.429 1_455 S
C487 N484 1.350 . S
C487 C486 1.434 . S
C488 C489 1.369 . S
C488 C490 1.419 . S
C488 H492 0.930 . S
C489 C488 1.369 . S
C489 C498 1.429 . S
C490 C488 1.419 . S
C490 C491 1.363 . S
C490 H493 0.929 . S
C491 C490 1.363 . S
C491 C497 1.428 . S
H492 C488 0.930 . S
H493 C490 0.929 . S
S494 N495 1.613 . S
S494 N496 1.610 . S
N495 S494 1.613 . S
N495 C498 1.350 . S
N496 S494 1.610 . S
N496 C497 1.351 . S
C497 C491 1.428 . S
C497 N496 1.351 . S
C497 C498 1.434 . S
C498 C489 1.429 . S
C498 N495 1.350 . S
C498 C497 1.434 . S
C499 C500 1.369 . S
C499 C501 1.419 . S
C499 H503 0.930 . S
C500 C499 1.369 . S
C500 C509 1.429 . S
C501 C499 1.419 . S
C501 C502 1.363 . S
C501 H504 0.929 . S
C502 C501 1.363 . S
C502 C508 1.428 . S
H503 C499 0.930 . S
H504 C501 0.929 . S
S505 N506 1.613 . S
S505 N507 1.610 . S
N506 S505 1.613 . S
N506 C509 1.350 . S
N507 S505 1.610 . S
N507 C508 1.351 . S
C508 C502 1.428 . S
C508 N507 1.351 . S
C508 C509 1.434 . S
C509 C500 1.429 . S
C509 N506 1.350 . S
C509 C508 1.434 . S
C510 C511 1.369 . S
C510 C512 1.419 . S
C510 H514 0.930 1_565 S
C511 C510 1.369 . S
C511 C520 1.429 . S
C512 C510 1.419 . S
C512 C513 1.363 . S
C512 H515 0.929 . S
C513 C512 1.363 . S
C513 C519 1.428 1_556 S
H514 C510 0.930 1_545 S
H515 C512 0.929 . S
S516 N517 1.613 . S
S516 N518 1.610 . S
N517 S516 1.613 . S
N517 C520 1.350 1_554 S
N518 S516 1.610 . S
N518 C519 1.351 . S
C519 C513 1.428 1_554 S
C519 N518 1.351 . S
C519 C520 1.434 1_554 S
C520 C511 1.429 . S
C520 N517 1.350 1_556 S
C520 C519 1.434 1_556 S
C521 C522 1.369 . S
C521 C523 1.419 . S
C521 H525 0.930 . S
C522 C521 1.369 . S
C522 C531 1.429 . S
C523 C521 1.419 . S
C523 C524 1.363 . S
C523 H526 0.929 . S
C524 C523 1.363 . S
C524 C530 1.428 . S
H525 C521 0.930 . S
H526 C523 0.929 . S
S527 N528 1.613 . S
S527 N529 1.610 . S
N528 S527 1.613 . S
N528 C531 1.350 . S
N529 S527 1.610 . S
N529 C530 1.351 . S
C530 C524 1.428 . S
C530 N529 1.351 . S
C530 C531 1.434 . S
C531 C522 1.429 . S
C531 N528 1.350 . S
C531 C530 1.434 . S
C532 C533 1.369 . S
C532 C534 1.419 . S
C532 H536 0.930 . S
C533 C532 1.369 . S
C533 C542 1.429 . S
C534 C532 1.419 . S
C534 C535 1.363 . S
C534 H537 0.929 . S
C535 C534 1.363 . S
C535 C541 1.428 . S
H536 C532 0.930 . S
H537 C534 0.929 . S
S538 N539 1.613 . S
S538 N540 1.610 1_565 S
N539 S538 1.613 . S
N539 C542 1.350 1_565 S
N540 S538 1.610 1_545 S
N540 C541 1.351 . S
C541 C535 1.428 . S
C541 N540 1.351 . S
C541 C542 1.434 . S
C542 C533 1.429 . S
C542 N539 1.350 1_545 S
C542 C541 1.434 . S
C543 C544 1.369 . S
C543 C545 1.419 . S
C543 H547 0.930 . S
C544 C543 1.369 . S
C544 C553 1.429 . S
C545 C543 1.419 . S
C545 C546 1.363 . S
C545 H548 0.929 . S
C546 C545 1.363 . S
C546 C552 1.428 . S
H547 C543 0.930 . S
H548 C545 0.929 . S
S549 N550 1.613 . S
S549 N551 1.610 . S
N550 S549 1.613 . S
N550 C553 1.350 . S
N551 S549 1.610 . S
N551 C552 1.351 . S
C552 C546 1.428 . S
C552 N551 1.351 . S
C552 C553 1.434 . S
C553 C544 1.429 . S
C553 N550 1.350 . S
C553 C552 1.434 . S
C554 C555 1.369 . S
C554 C556 1.419 . S
C554 H558 0.930 . S
C555 C554 1.369 . S
C555 C564 1.429 . S
C556 C554 1.419 . S
C556 C557 1.363 . S
C556 H559 0.929 . S
C557 C556 1.363 . S
C557 C563 1.428 . S
H558 C554 0.930 . S
H559 C556 0.929 . S
S560 N561 1.613 . S
S560 N562 1.610 . S
N561 S560 1.613 . S
N561 C564 1.350 . S
N562 S560 1.610 . S
N562 C563 1.351 . S
C563 C557 1.428 . S
C563 N562 1.351 . S
C563 C564 1.434 . S
C564 C555 1.429 . S
C564 N561 1.350 . S
C564 C563 1.434 . S
C565 C566 1.369 . S
C565 C567 1.419 . S
C565 H569 0.930 . S
C566 C565 1.369 . S
C566 C575 1.429 . S
C567 C565 1.419 . S
C567 C568 1.363 . S
C567 H570 0.929 . S
C568 C567 1.363 . S
C568 C574 1.428 . S
H569 C565 0.930 . S
H570 C567 0.929 . S
S571 N572 1.613 . S
S571 N573 1.610 . S
N572 S571 1.613 . S
N572 C575 1.350 . S
N573 S571 1.610 . S
N573 C574 1.351 . S
C574 C568 1.428 . S
C574 N573 1.351 . S
C574 C575 1.434 . S
C575 C566 1.429 . S
C575 N572 1.350 . S
C575 C574 1.434 . S
C576 C577 1.369 . S
C576 C578 1.419 . S
C576 H580 0.930 . S
C577 C576 1.369 . S
C577 C586 1.429 . S
C578 C576 1.419 . S
C578 C579 1.363 . S
C578 H581 0.929 . S
C579 C578 1.363 . S
C579 C585 1.428 . S
H580 C576 0.930 . S
H581 C578 0.929 . S
S582 N583 1.613 . S
S582 N584 1.610 . S
N583 S582 1.613 . S
N583 C586 1.350 . S
N584 S582 1.610 . S
N584 C585 1.351 . S
C585 C579 1.428 . S
C585 N584 1.351 . S
C585 C586 1.434 . S
C586 C577 1.429 . S
C586 N583 1.350 . S
C586 C585 1.434 . S
C587 C588 1.369 1_565 S
C587 C589 1.419 . S
C587 H591 0.930 . S
C588 C587 1.369 1_545 S
C588 C597 1.429 . S
C589 C587 1.419 . S
C589 C590 1.363 1_565 S
C589 H592 0.929 . S
C590 C589 1.363 1_545 S
C590 C596 1.428 . S
H591 C587 0.930 . S
H592 C589 0.929 . S
S593 N594 1.613 . S
S593 N595 1.610 . S
N594 S593 1.613 . S
N594 C597 1.350 . S
N595 S593 1.610 . S
N595 C596 1.351 . S
C596 C590 1.428 . S
C596 N595 1.351 . S
C596 C597 1.434 . S
C597 C588 1.429 . S
C597 N594 1.350 . S
C597 C596 1.434 . S
C598 C599 1.369 . S
C598 C600 1.419 . S
C598 H602 0.930 . S
C599 C598 1.369 . S
C599 C608 1.429 . S
C600 C598 1.419 . S
C600 C601 1.363 . S
C600 H603 0.929 . S
C601 C600 1.363 . S
C601 C607 1.428 . S
H602 C598 0.930 . S
H603 C600 0.929 . S
S604 N605 1.613 . S
S604 N606 1.610 . S
N605 S604 1.613 . S
N605 C608 1.350 . S
N606 S604 1.610 . S
N606 C607 1.351 . S
C607 C601 1.428 . S
C607 N606 1.351 . S
C607 C608 1.434 . S
C608 C599 1.429 . S
C608 N605 1.350 . S
C608 C607 1.434 . S
C609 C610 1.369 . S
C609 C611 1.419 . S
C609 H613 0.930 . S
C610 C609 1.369 . S
C610 C619 1.429 . S
C611 C609 1.419 . S
C611 C612 1.363 . S
C611 H614 0.929 . S
C612 C611 1.363 . S
C612 C618 1.428 . S
H613 C609 0.930 . S
H614 C611 0.929 . S
S615 N616 1.613 . S
S615 N617 1.610 . S
N616 S615 1.613 . S
N616 C619 1.350 . S
N617 S615 1.610 . S
N617 C618 1.351 . S
C618 C612 1.428 . S
C618 N617 1.351 . S
C618 C619 1.434 . S
C619 C610 1.429 . S
C619 N616 1.350 . S
C619 C618 1.434 . S
C620 C621 1.369 . S
C620 C622 1.419 . S
C620 H624 0.930 . S
C621 C620 1.369 . S
C621 C630 1.429 . S
C622 C620 1.419 . S
C622 C623 1.363 . S
C622 H625 0.929 . S
C623 C622 1.363 . S
C623 C629 1.428 . S
H624 C620 0.930 . S
H625 C622 0.929 . S
S626 N627 1.613 . S
S626 N628 1.610 . S
N627 S626 1.613 . S
N627 C630 1.350 . S
N628 S626 1.610 . S
N628 C629 1.351 . S
C629 C623 1.428 . S
C629 N628 1.351 . S
C629 C630 1.434 . S
C630 C621 1.429 . S
C630 N627 1.350 . S
C630 C629 1.434 . S
C631 C632 1.369 . S
C631 C633 1.419 . S
C631 H635 0.930 . S
C632 C631 1.369 . S
C632 C641 1.429 1_545 S
C633 C631 1.419 . S
C633 C634 1.363 . S
C633 H636 0.929 . S
C634 C633 1.363 . S
C634 C640 1.428 1_545 S
H635 C631 0.930 . S
H636 C633 0.929 . S
S637 N638 1.613 . S
S637 N639 1.610 1_455 S
N638 S637 1.613 . S
N638 C641 1.350 1_455 S
N639 S637 1.610 1_655 S
N639 C640 1.351 . S
C640 C634 1.428 1_565 S
C640 N639 1.351 . S
C640 C641 1.434 . S
C641 C632 1.429 1_565 S
C641 N638 1.350 1_655 S
C641 C640 1.434 . S
C642 C643 1.369 . S
C642 C644 1.419 . S
C642 H646 0.930 . S
C643 C642 1.369 . S
C643 C652 1.429 . S
C644 C642 1.419 . S
C644 C645 1.363 . S
C644 H647 0.929 . S
C645 C644 1.363 . S
C645 C651 1.428 . S
H646 C642 0.930 . S
H647 C644 0.929 . S
S648 N649 1.613 . S
S648 N650 1.610 . S
N649 S648 1.613 . S
N649 C652 1.350 . S
N650 S648 1.610 . S
N650 C651 1.351 . S
C651 C645 1.428 . S
C651 N650 1.351 . S
C651 C652 1.434 . S
C652 C643 1.429 . S
C652 N649 1.350 . S
C652 C651 1.434 . S
C653 C654 1.369 . S
C653 C655 1.419 . S
C653 H657 0.930 1_455 S
C654 C653 1.369 . S
C654 C663 1.429 . S
C655 C653 1.419 . S
C655 C656 1.363 . S
C655 H658 0.929 . S
C656 C655 1.363 . S
C656 C662 1.428 . S
H657 C653 0.930 1_655 S
H658 C655 0.929 . S
S659 N660 1.613 . S
S659 N661 1.610 . S
N660 S659 1.613 . S
N660 C663 1.350 . S
N661 S659 1.610 . S
N661 C662 1.351 . S
C662 C656 1.428 . S
C662 N661 1.351 . S
C662 C663 1.434 . S
C663 C654 1.429 . S
C663 N660 1.350 . S
C663 C662 1.434 . S
C664 C665 1.369 . S
C664 C666 1.419 . S
C664 H668 0.930 . S
C665 C664 1.369 . S
C665 C674 1.429 . S
C666 C664 1.419 . S
C666 C667 1.363 . S
C666 H669 0.929 . S
C667 C666 1.363 . S
C667 C673 1.428 . S
H668 C664 0.930 . S
H669 C666 0.929 . S
S670 N671 1.613 . S
S670 N672 1.610 . S
N671 S670 1.613 . S
N671 C674 1.350 . S
N672 S670 1.610 . S
N672 C673 1.351 . S
C673 C667 1.428 . S
C673 N672 1.351 . S
C673 C674 1.434 . S
C674 C665 1.429 . S
C674 N671 1.350 . S
C674 C673 1.434 . S
C675 C676 1.359 1_456 S
C675 C677 1.419 . S
C675 H679 0.930 . S
C676 C675 1.359 1_654 S
C676 C685 1.432 . S
C677 C675 1.419 . S
C677 C678 1.363 1_455 S
C677 H680 0.929 . S
C678 C677 1.363 1_655 S
C678 C684 1.428 . S
H679 C675 0.930 . S
H680 C677 0.929 . S
S681 N682 1.613 . S
S681 N683 1.610 1_554 S
N682 S681 1.613 . S
N682 C685 1.350 . S
N683 S681 1.610 1_556 S
N683 C684 1.351 . S
C684 C678 1.428 . S
C684 N683 1.351 . S
C684 C685 1.434 1_556 S
C685 C676 1.432 . S
C685 N682 1.350 . S
C685 C684 1.434 1_554 S
C686 C687 1.369 . S
C686 C688 1.419 . S
C686 H690 0.930 . S
C687 C686 1.369 . S
C687 C696 1.429 . S
C688 C686 1.419 . S
C688 C689 1.363 . S
C688 H691 0.929 . S
C689 C688 1.363 . S
C689 C695 1.428 . S
H690 C686 0.930 . S
H691 C688 0.929 . S
S692 N693 1.613 . S
S692 N694 1.610 . S
N693 S692 1.613 . S
N693 C696 1.350 . S
N694 S692 1.610 . S
N694 C695 1.351 . S
C695 C689 1.428 . S
C695 N694 1.351 . S
C695 C696 1.434 . S
C696 C687 1.429 . S
C696 N693 1.350 . S
C696 C695 1.434 . S
C697 C698 1.369 . S
C697 C699 1.419 . S
C697 H701 0.930 1_556 S
C698 C697 1.369 . S
C698 C707 1.429 . S
C699 C697 1.419 . S
C699 C700 1.363 . S
C699 H702 0.929 . S
C700 C699 1.363 . S
C700 C706 1.428 . S
H701 C697 0.930 1_554 S
H702 C699 0.929 . S
S703 N704 1.613 . S
S703 N705 1.610 . S
N704 S703 1.613 . S
N704 C707 1.350 1_655 S
N705 S703 1.610 . S
N705 C706 1.351 1_655 S
C706 C700 1.428 . S
C706 N705 1.351 1_455 S
C706 C707 1.434 . S
C707 C698 1.429 . S
C707 N704 1.350 1_455 S
C707 C706 1.434 . S
C708 C709 1.369 . S
C708 C710 1.419 . S
C708 H712 0.930 . S
C709 C708 1.369 . S
C709 C718 1.429 . S
C710 C708 1.419 . S
C710 C711 1.363 . S
C710 H713 0.929 . S
C711 C710 1.363 . S
C711 C717 1.428 . S
H712 C708 0.930 . S
H713 C710 0.929 . S
S714 N715 1.613 . S
S714 N716 1.610 . S
N715 S714 1.613 . S
N715 C718 1.350 . S
N716 S714 1.610 . S
N716 C717 1.351 . S
C717 C711 1.428 . S
C717 N716 1.351 . S
C717 C718 1.434 . S
C718 C709 1.429 . S
C718 N715 1.350 . S
C718 C717 1.434 . S
C719 C720 1.369 . S
C719 C721 1.419 . S
C719 H723 0.930 . S
C720 C719 1.369 . S
C720 C729 1.429 . S
C721 C719 1.419 . S
C721 C722 1.363 . S
C721 H724 0.929 . S
C722 C721 1.363 . S
C722 C728 1.428 . S
H723 C719 0.930 . S
H724 C721 0.929 . S
S725 N726 1.607 1_554 S
S725 N727 1.610 . S
N726 S725 1.607 1_556 S
N726 C729 1.336 1_556 S
N727 S725 1.610 . S
N727 C728 1.351 . S
C728 C722 1.428 . S
C728 N727 1.351 . S
C728 C729 1.434 . S
C729 C720 1.429 . S
C729 N726 1.336 1_554 S
C729 C728 1.434 . S
C730 C731 1.369 . S
C730 C732 1.419 . S
C730 H734 0.930 . S
C731 C730 1.369 . S
C731 C740 1.429 . S
C732 C730 1.419 . S
C732 C733 1.363 . S
C732 H735 0.929 . S
C733 C732 1.363 . S
C733 C739 1.428 . S
H734 C730 0.930 . S
H735 C732 0.929 . S
S736 N737 1.613 . S
S736 N738 1.610 . S
N737 S736 1.613 . S
N737 C740 1.350 . S
N738 S736 1.610 . S
N738 C739 1.351 . S
C739 C733 1.428 . S
C739 N738 1.351 . S
C739 C740 1.434 . S
C740 C731 1.429 . S
C740 N737 1.350 . S
C740 C739 1.434 . S
C741 C742 1.369 . S
C741 C743 1.419 . S
C741 H745 0.930 1_554 S
C742 C741 1.369 . S
C742 C751 1.429 . S
C743 C741 1.419 . S
C743 C744 1.363 . S
C743 H746 0.929 . S
C744 C743 1.363 . S
C744 C750 1.428 . S
H745 C741 0.930 1_556 S
H746 C743 0.929 . S
S747 N748 1.613 . S
S747 N749 1.610 . S
N748 S747 1.613 . S
N748 C751 1.350 . S
N749 S747 1.610 . S
N749 C750 1.351 . S
C750 C744 1.428 . S
C750 N749 1.351 . S
C750 C751 1.434 . S
C751 C742 1.429 . S
C751 N748 1.350 . S
C751 C750 1.434 . S
C752 C753 1.369 . S
C752 C754 1.419 . S
C752 H756 0.930 . S
C753 C752 1.369 . S
C753 C762 1.429 . S
C754 C752 1.419 . S
C754 C755 1.363 . S
C754 H757 0.929 . S
C755 C754 1.363 . S
C755 C761 1.428 . S
H756 C752 0.930 . S
H757 C754 0.929 . S
S758 N759 1.613 . S
S758 N760 1.610 . S
N759 S758 1.613 . S
N759 C762 1.350 . S
N760 S758 1.610 . S
N760 C761 1.351 . S
C761 C755 1.428 . S
C761 N760 1.351 . S
C761 C762 1.434 . S
C762 C753 1.429 . S
C762 N759 1.350 . S
C762 C761 1.434 . S
C763 C764 1.369 . S
C763 C765 1.419 . S
C763 H767 0.930 . S
C764 C763 1.369 . S
C764 C773 1.429 . S
C765 C763 1.419 . S
C765 C766 1.363 . S
C765 H768 0.929 . S
C766 C765 1.363 . S
C766 C772 1.428 . S
H767 C763 0.930 . S
H768 C765 0.929 . S
S769 N770 1.613 . S
S769 N771 1.610 . S
N770 S769 1.613 . S
N770 C773 1.350 . S
N771 S769 1.610 . S
N771 C772 1.351 . S
C772 C766 1.428 . S
C772 N771 1.351 . S
C772 C773 1.434 . S
C773 C764 1.429 . S
C773 N770 1.350 . S
C773 C772 1.434 . S
C774 C775 1.369 . S
C774 C776 1.419 . S
C774 H778 0.930 . S
C775 C774 1.369 . S
C775 C784 1.429 . S
C776 C774 1.419 . S
C776 C777 1.363 . S
C776 H779 0.929 . S
C777 C776 1.363 . S
C777 C783 1.428 . S
H778 C774 0.930 . S
H779 C776 0.929 . S
S780 N781 1.613 . S
S780 N782 1.610 . S
N781 S780 1.613 . S
N781 C784 1.350 . S
N782 S780 1.610 . S
N782 C783 1.351 . S
C783 C777 1.428 . S
C783 N782 1.351 . S
C783 C784 1.434 . S
C784 C775 1.429 . S
C784 N781 1.350 . S
C784 C783 1.434 . S
C785 C786 1.369 . S
C785 C787 1.419 . S
C785 H789 0.930 . S
C786 C785 1.369 . S
C786 C795 1.429 . S
C787 C785 1.419 . S
C787 C788 1.363 . S
C787 H790 0.929 . S
C788 C787 1.363 . S
C788 C794 1.428 . S
H789 C785 0.930 . S
H790 C787 0.929 . S
S791 N792 1.613 . S
S791 N793 1.610 . S
N792 S791 1.613 . S
N792 C795 1.350 . S
N793 S791 1.610 . S
N793 C794 1.351 . S
C794 C788 1.428 . S
C794 N793 1.351 . S
C794 C795 1.434 . S
C795 C786 1.429 . S
C795 N792 1.350 . S
C795 C794 1.434 . S
C796 C797 1.369 . S
C796 C798 1.419 . S
C796 H800 0.930 . S
C797 C796 1.369 . S
C797 C806 1.429 1_556 S
C798 C796 1.419 . S
C798 C799 1.363 . S
C798 H801 0.929 . S
C799 C798 1.363 . S
C799 C805 1.428 1_556 S
H800 C796 0.930 . S
H801 C798 0.929 . S
S802 N803 1.613 . S
S802 N804 1.610 . S
N803 S802 1.613 . S
N803 C806 1.350 . S
N804 S802 1.610 . S
N804 C805 1.351 . S
C805 C799 1.428 1_554 S
C805 N804 1.351 . S
C805 C806 1.434 . S
C806 C797 1.429 1_554 S
C806 N803 1.350 . S
C806 C805 1.434 . S
C807 C808 1.369 . S
C807 C809 1.419 . S
C807 H811 0.930 . S
C808 C807 1.369 . S
C808 C817 1.429 . S
C809 C807 1.419 . S
C809 C810 1.363 . S
C809 H812 0.929 . S
C810 C809 1.363 . S
C810 C816 1.428 . S
H811 C807 0.930 . S
H812 C809 0.929 . S
S813 N814 1.613 . S
S813 N815 1.610 . S
N814 S813 1.613 . S
N814 C817 1.350 . S
N815 S813 1.610 . S
N815 C816 1.351 . S
C816 C810 1.428 . S
C816 N815 1.351 . S
C816 C817 1.434 . S
C817 C808 1.429 . S
C817 N814 1.350 . S
C817 C816 1.434 . S
C818 C819 1.369 . S
C818 C820 1.419 . S
C818 H822 0.930 . S
C819 C818 1.369 . S
C819 C828 1.429 . S
C820 C818 1.419 . S
C820 C821 1.363 . S
C820 H823 0.929 . S
C821 C820 1.363 . S
C821 C827 1.427 1_554 S
H822 C818 0.930 . S
H823 C820 0.929 . S
S824 N825 1.613 . S
S824 N826 1.610 . S
N825 S824 1.613 . S
N825 C828 1.350 1_556 S
N826 S824 1.610 . S
N826 C827 1.352 . S
C827 C821 1.427 1_556 S
C827 N826 1.352 . S
C827 C828 1.434 1_556 S
C828 C819 1.429 . S
C828 N825 1.350 1_554 S
C828 C827 1.434 1_554 S
C829 C830 1.369 . S
C829 C831 1.419 . S
C829 H833 0.930 . S
C830 C829 1.369 . S
C830 C839 1.429 1_565 S
C831 C829 1.419 . S
C831 C832 1.363 . S
C831 H834 0.929 . S
C832 C831 1.363 . S
C832 C838 1.428 . S
H833 C829 0.930 . S
H834 C831 0.929 . S
S835 N836 1.613 . S
S835 N837 1.610 . S
N836 S835 1.613 . S
N836 C839 1.350 . S
N837 S835 1.610 . S
N837 C838 1.351 1_545 S
C838 C832 1.428 . S
C838 N837 1.351 1_565 S
C838 C839 1.434 1_565 S
C839 C830 1.429 1_545 S
C839 N836 1.350 . S
C839 C838 1.434 1_545 S
C315 C155 1.463 . S
C313 C50 1.484 . S
C326 C163 1.259 . S
C324 C61 1.520 1_455 S
C335 C67 1.459 . S
C337 C183 1.435 . S
C348 C197 1.488 . S
C346 C41 1.510 . S
C359 C212 1.514 . S
C357 C95 1.516 . S
C370 C226 1.510 . S
C368 C113 1.505 . S
C379 C106 1.540 . S
C381 C240 1.539 . S
C392 C246 1.444 . S
C390 C86 1.490 . S
C401 C104 1.514 . S
C403 C260 1.481 . S
C414 C281 1.507 . S
C412 C88 1.534 . S
C423 C94 1.488 . S
C425 C261 1.253 . S
C436 C282 1.514 . S
C434 C112 1.511 . S
C445 C70 1.482 . S
C447 C289 1.219 . S
C456 C40 1.507 . S
C458 C295 1.490 . S
C467 C49 1.510 . S
C469 C288 1.466 . S
C478 C59 1.488 . S
C480 C296 1.490 . S
C489 C34 1.497 . S
C491 C190 1.453 . S
C500 C133 1.496 . S
C502 C191 1.260 . S
C513 C148 1.493 . S
C511 C139 1.540 1_565 S
C524 C169 1.451 . S
C522 C77 1.479 . S
C533 C43 1.485 1_545 S
C535 C204 1.451 . S
C546 C254 1.520 . S
C544 C103 1.520 . S
C557 C205 1.237 . S
C555 C85 1.477 1_545 S
C568 C233 1.249 . S
C566 C115 1.519 . S
C579 C239 1.463 . S
C577 C131 1.484 . S
C588 C142 1.518 . S
C590 C247 1.269 . S
C599 C76 1.458 . S
C601 C211 1.437 . S
C612 C225 1.486 . S
C610 C122 1.509 . S
C621 C32 1.516 . S
C623 C184 1.515 . S
C634 C198 1.510 . S
C632 C5 1.506 1_655 S
C645 C156 1.539 . S
C643 C16 1.540 . S
C656 C162 1.444 . S
C654 C23 1.490 . S
C665 C14 1.514 . S
C667 C274 1.478 . S
C676 C25 1.542 . S
C678 C267 1.507 . S
C687 C31 1.488 . S
C689 C275 1.241 . S
C698 C4 1.512 1_556 S
C700 C268 1.514 . S
C711 C303 1.218 . S
C709 C79 1.482 . S
C722 C309 1.488 . S
C720 C121 1.507 1_554 S
C733 C302 1.471 . S
C731 C130 1.509 . S
C742 C140 1.488 1_554 S
C744 C310 1.489 . S
C753 C97 1.497 . S
C755 C218 1.453 . S
C766 C219 1.261 . S
C764 C52 1.496 . S
C777 C232 1.498 . S
C775 C58 1.540 . S
C788 C253 1.451 . S
C786 C68 1.479 . S
C797 C124 1.485 . S
C799 C176 1.446 1_556 S
C810 C170 1.520 . S
C808 C13 1.520 . S
C819 C22 1.477 . S
C821 C177 1.234 . S
C832 C149 1.257 . S
C830 C7 1.519 1_565 S
