# Generated by pormake.
# Topology zzz, (3,6)-cn, num edge types: 1
# Building blocks:
#     Node 0, Type 0, BuildingBlock: MIDCAF_clean_linker_0, # of connection points: 3
#     Node 1, Type 0, BuildingBlock: MIDCAF_clean_linker_0, # of connection points: 3
#     Node 2, Type 0, BuildingBlock: MIDCAF_clean_linker_0, # of connection points: 3
#     Node 3, Type 0, BuildingBlock: MIDCAF_clean_linker_0, # of connection points: 3
#     Node 4, Type 0, BuildingBlock: MIDCAF_clean_linker_0, # of connection points: 3
#     Node 5, Type 0, BuildingBlock: MIDCAF_clean_linker_0, # of connection points: 3
#     Node 6, Type 0, BuildingBlock: MIDCAF_clean_linker_0, # of connection points: 3
#     Node 7, Type 0, BuildingBlock: MIDCAF_clean_linker_0, # of connection points: 3
#     Node 8, Type 1, BuildingBlock: BETGAK_clean_sbu_0, # of connection points: 6
#     Node 9, Type 1, BuildingBlock: BETGAK_clean_sbu_0, # of connection points: 6
#     Node 10, Type 1, BuildingBlock: BETGAK_clean_sbu_0, # of connection points: 6
#     Node 11, Type 1, BuildingBlock: BETGAK_clean_sbu_0, # of connection points: 6
#     Edge 12, Type (0, 1), BuildingBlock: ZUJKAS_clean_linker_0, # of connection points: 2
#     Edge 13, Type (0, 1), BuildingBlock: ZUJKAS_clean_linker_0, # of connection points: 2
#     Edge 14, Type (0, 1), BuildingBlock: ZUJKAS_clean_linker_0, # of connection points: 2
#     Edge 15, Type (0, 1), BuildingBlock: ZUJKAS_clean_linker_0, # of connection points: 2
#     Edge 16, Type (0, 1), BuildingBlock: ZUJKAS_clean_linker_0, # of connection points: 2
#     Edge 17, Type (0, 1), BuildingBlock: ZUJKAS_clean_linker_0, # of connection points: 2
#     Edge 18, Type (0, 1), BuildingBlock: ZUJKAS_clean_linker_0, # of connection points: 2
#     Edge 19, Type (0, 1), BuildingBlock: ZUJKAS_clean_linker_0, # of connection points: 2
#     Edge 20, Type (0, 1), BuildingBlock: ZUJKAS_clean_linker_0, # of connection points: 2
#     Edge 21, Type (0, 1), BuildingBlock: ZUJKAS_clean_linker_0, # of connection points: 2
#     Edge 22, Type (0, 1), BuildingBlock: ZUJKAS_clean_linker_0, # of connection points: 2
#     Edge 23, Type (0, 1), BuildingBlock: ZUJKAS_clean_linker_0, # of connection points: 2
#     Edge 24, Type (0, 1), BuildingBlock: ZUJKAS_clean_linker_0, # of connection points: 2
#     Edge 25, Type (0, 1), BuildingBlock: ZUJKAS_clean_linker_0, # of connection points: 2
#     Edge 26, Type (0, 1), BuildingBlock: ZUJKAS_clean_linker_0, # of connection points: 2
#     Edge 27, Type (0, 1), BuildingBlock: ZUJKAS_clean_linker_0, # of connection points: 2
#     Edge 28, Type (0, 1), BuildingBlock: ZUJKAS_clean_linker_0, # of connection points: 2
#     Edge 29, Type (0, 1), BuildingBlock: ZUJKAS_clean_linker_0, # of connection points: 2
#     Edge 30, Type (0, 1), BuildingBlock: ZUJKAS_clean_linker_0, # of connection points: 2
#     Edge 31, Type (0, 1), BuildingBlock: ZUJKAS_clean_linker_0, # of connection points: 2
#     Edge 32, Type (0, 1), BuildingBlock: ZUJKAS_clean_linker_0, # of connection points: 2
#     Edge 33, Type (0, 1), BuildingBlock: ZUJKAS_clean_linker_0, # of connection points: 2
#     Edge 34, Type (0, 1), BuildingBlock: ZUJKAS_clean_linker_0, # of connection points: 2
#     Edge 35, Type (0, 1), BuildingBlock: ZUJKAS_clean_linker_0, # of connection points: 2
# Relax obj value: 0.421
# Max RMSD: 0.273
# Mean RMSD: 0.252
data_MOF--net-zzz--node1-BETGAK_clean_sbu_0--node2-MIDCAF_clean_linker_0--edge1-ZUJKAS_clean_linker_0
_symmetry_space_group_name_H-M    P1
_symmetry_Int_Tables_number       1
_symmetry_cell_setting            triclinic
loop_
_symmetry_equiv_pos_as_xyz
'x, y, z'
_cell_length_a     74.60111
_cell_length_b     74.627199
_cell_length_c     22.824401
_cell_angle_alpha  89.953218
_cell_angle_beta   90.097548
_cell_angle_gamma 90.127576
loop_
_atom_site_label
_atom_site_type_symbol
_atom_site_fract_x
_atom_site_fract_y
_atom_site_fract_z
_atom_type_partial_charge
C0 C 0.80079 0.53043 0.33873 0.0
C1 C 0.8 0.51949 0.3888 0.0
C2 C 0.78429 0.50939 0.39874 0.0
C3 C 0.76997 0.50983 0.35845 0.0
H4 H 0.70772 0.54598 0.21878 0.0
H5 H 0.67703 0.5466 0.18114 0.0
H6 H 0.67581 0.48874 0.18205 0.0
H7 H 0.70661 0.48829 0.21861 0.0
H8 H 0.73705 0.5206 0.05092 0.0
H9 H 0.74978 0.51759 0.95257 0.0
H10 H 0.80038 0.50181 0.02862 0.0
H11 H 0.78786 0.50486 0.12633 0.0
H12 H 0.78817 0.53864 0.25896 0.0
H13 H 0.8127 0.53822 0.32915 0.0
H14 H 0.78323 0.50088 0.43704 0.0
H15 H 0.75834 0.50143 0.36592 0.0
N16 N 0.74014 0.51818 0.26623 0.0
N17 N 0.7361 0.51514 0.16424 0.0
N18 N 0.76502 0.5166 0.20298 0.0
C19 C 0.72905 0.5167 0.21866 0.0
C20 C 0.75402 0.51499 0.15599 0.0
C21 C 0.75832 0.5182 0.25804 0.0
C22 C 0.70937 0.51709 0.22269 0.0
C23 C 0.7005 0.53345 0.21398 0.0
C24 C 0.68295 0.53377 0.19182 0.0
C25 C 0.67404 0.51771 0.17742 0.0
C26 C 0.68238 0.50136 0.19163 0.0
C27 C 0.6999 0.50107 0.2137 0.0
C28 C 0.76148 0.51299 0.09643 0.0
C29 C 0.75086 0.51638 0.04656 0.0
C30 C 0.7581 0.51469 0.99033 0.0
C31 C 0.77595 0.50926 0.98314 0.0
C32 C 0.78646 0.5057 0.03294 0.0
C33 C 0.77934 0.50763 0.08894 0.0
C34 C 0.7713 0.52011 0.30701 0.0
C35 C 0.78672 0.53063 0.29831 0.0
C36 C 0.97763 0.79698 0.32475 0.0
C37 C 0.99099 0.79707 0.36825 0.0
C38 C 1.00236 0.78203 0.3727 0.0
C39 C 1.00074 0.7676 0.33329 0.0
H40 H 0.97574 0.69767 0.24227 0.0
H41 H 0.9798 0.66664 0.20989 0.0
H42 H 0.02874 0.68209 0.12205 0.0
H43 H 0.02469 0.71275 0.1554 0.0
H44 H 0.99298 0.73513 0.03339 0.0
H45 H 0.98927 0.74859 0.93661 0.0
H46 H 0.95906 0.79188 0.01323 0.0
H47 H 0.96289 0.77862 0.11014 0.0
H48 H 0.96602 0.78354 0.25136 0.0
H49 H 0.96877 0.80832 0.3192 0.0
H50 H 0.0127 0.78155 0.406 0.0
H51 H 0.01007 0.75654 0.33647 0.0
N52 N 0.99375 0.73749 0.24648 0.0
N53 N 0.98889 0.73234 0.14586 0.0
N54 N 0.98237 0.76033 0.18568 0.0
C55 C 0.99412 0.72627 0.19914 0.0
C56 C 0.98293 0.74927 0.13871 0.0
C57 C 0.98778 0.75471 0.23958 0.0
C58 C 1.00009 0.70749 0.20227 0.0
C59 C 0.98784 0.69413 0.21883 0.0
C60 C 0.99001 0.67644 0.1992 0.0
C61 C 1.00445 0.67184 0.16238 0.0
C62 C 0.01755 0.68497 0.15066 0.0
C63 C 0.01532 0.70259 0.17013 0.0
C64 C 0.97844 0.75597 0.07955 0.0
C65 C 0.98522 0.74732 0.02953 0.0
C66 C 0.9831 0.75497 0.9741 0.0
C67 C 0.97386 0.7712 0.96759 0.0
C68 C 0.96605 0.77922 0.017 0.0
C69 C 0.96842 0.77174 0.07255 0.0
C70 C 0.98789 0.76804 0.28816 0.0
C71 C 0.97613 0.78274 0.28538 0.0
C72 C 0.72917 0.97137 0.36973 0.0
C73 C 0.72418 0.98937 0.37757 0.0
C74 C 0.73467 1.0028 0.35072 0.0
C75 C 0.74915 0.99825 0.31428 0.0
H76 H 0.82245 0.97515 0.24009 0.0
H77 H 0.85127 0.98296 0.19454 0.0
H78 H 0.82304 0.00857 0.05207 0.0
H79 H 0.79447 1.00058 0.09733 0.0
H80 H 0.77612 0.95188 0.05216 0.0
H81 H 0.75722 0.93816 0.9773 0.0
H82 H 0.71924 0.92246 0.11062 0.0
H83 H 0.73818 0.9357 0.1852 0.0
H84 H 0.74615 0.95281 0.32514 0.0
H85 H 0.72137 0.96064 0.38905 0.0
H86 H 0.73131 0.01681 0.3563 0.0
H87 H 0.75631 0.00879 0.29147 0.0
N88 N 0.78035 0.98348 0.23987 0.0
N89 N 0.78257 0.96609 0.15395 0.0
N90 N 0.75834 0.96198 0.21708 0.0
C91 C 0.78943 0.9788 0.1902 0.0
C92 C 0.76709 0.95751 0.16729 0.0
C93 C 0.76471 0.97487 0.25347 0.0
C94 C 0.80632 0.98757 0.17264 0.0
C95 C 0.82251 0.98302 0.20019 0.0
C96 C 0.83896 0.98729 0.17372 0.0
C97 C 0.83945 0.99633 0.11952 0.0
C98 C 0.82318 1.0018 0.09406 0.0
C99 C 0.80681 0.99729 0.12002 0.0
C100 C 0.75838 0.94538 0.12449 0.0
C101 C 0.76402 0.945 0.06574 0.0
C102 C 0.75318 0.93716 0.02275 0.0
C103 C 0.73655 0.92955 0.03778 0.0
C104 C 0.73196 0.92815 0.09732 0.0
C105 C 0.74277 0.93598 0.1402 0.0
C106 C 0.75322 0.98018 0.30344 0.0
C107 C 0.74341 0.96686 0.33297 0.0
C108 C 0.43975 0.73856 0.11435 0.0
C109 C 0.43465 0.74701 0.06177 0.0
C110 C 0.43951 0.76505 0.05311 0.0
C111 C 0.45032 0.77394 0.09403 0.0
H112 H 0.47057 0.82464 0.17534 0.0
H113 H 0.47983 0.85282 0.13207 0.0
H114 H 0.53536 0.83742 0.15048 0.0
H115 H 0.52584 0.80874 0.19408 0.0
H116 H 0.52517 0.75589 0.27591 0.0
H117 H 0.53248 0.72958 0.33651 0.0
H118 H 0.47902 0.73043 0.40861 0.0
H119 H 0.4718 0.75629 0.34795 0.0
H120 H 0.45468 0.74014 0.1938 0.0
H121 H 0.43656 0.72463 0.12252 0.0
H122 H 0.43558 0.77206 0.0136 0.0
H123 H 0.45452 0.78755 0.0847 0.0
N124 N 0.47714 0.78948 0.17129 0.0
N125 N 0.49849 0.78615 0.24688 0.0
N126 N 0.47742 0.76339 0.22736 0.0
C127 C 0.49106 0.79621 0.20293 0.0
C128 C 0.49135 0.7697 0.25954 0.0
C129 C 0.47033 0.77305 0.18289 0.0
C130 C 0.49748 0.81446 0.18799 0.0
C131 C 0.48479 0.82739 0.17136 0.0
C132 C 0.49013 0.84365 0.14679 0.0
C133 C 0.50836 0.84747 0.13757 0.0
C134 C 0.52119 0.83486 0.15662 0.0
C135 C 0.51579 0.81853 0.18211 0.0
C136 C 0.49795 0.75814 0.30756 0.0
C137 C 0.51529 0.75084 0.30653 0.0
C138 C 0.5194 0.7357 0.34088 0.0
C139 C 0.50619 0.72766 0.37642 0.0
C140 C 0.48938 0.73601 0.38079 0.0
C141 C 0.48531 0.75098 0.34661 0.0
C142 C 0.45644 0.76499 0.14451 0.0
C143 C 0.45041 0.74745 0.15523 0.0
C144 C 0.23933 0.50247 0.96135 0.0
C145 C 0.22497 0.49016 0.96418 0.0
C146 C 0.22629 0.47572 0.00351 0.0
C147 C 0.24071 0.47443 0.04231 0.0
H148 H 0.3134 0.52266 0.13238 0.0
H149 H 0.34404 0.52747 0.16787 0.0
H150 H 0.35102 0.47022 0.18369 0.0
H151 H 0.32055 0.46561 0.14758 0.0
H152 H 0.28614 0.48729 0.30447 0.0
H153 H 0.27175 0.48977 0.40005 0.0
H154 H 0.21982 0.48775 0.31583 0.0
H155 H 0.23402 0.48464 0.22157 0.0
H156 H 0.26425 0.51134 0.99981 0.0
H157 H 0.23877 0.51377 0.93163 0.0
H158 H 0.2158 0.46569 0.00592 0.0
H159 H 0.24073 0.46367 0.07425 0.0
N160 N 0.2848 0.49091 0.08821 0.0
N161 N 0.28758 0.4891 0.19103 0.0
N162 N 0.25947 0.48594 0.14747 0.0
C163 C 0.29523 0.49117 0.13757 0.0
C164 C 0.26971 0.48658 0.19646 0.0
C165 C 0.26675 0.48803 0.09343 0.0
C166 C 0.3148 0.49376 0.13609 0.0
C167 C 0.32186 0.51114 0.1406 0.0
C168 C 0.3393 0.51387 0.16192 0.0
C169 C 0.34996 0.49924 0.17952 0.0
C170 C 0.34333 0.4818 0.17013 0.0
C171 C 0.32589 0.47912 0.14905 0.0
C172 C 0.26125 0.48594 0.25512 0.0
C173 C 0.27164 0.48706 0.30655 0.0
C174 C 0.26341 0.48856 0.36139 0.0
C175 C 0.24462 0.489 0.36589 0.0
C176 C 0.23431 0.4871 0.31455 0.0
C177 C 0.2425 0.48549 0.26005 0.0
C178 C 0.25442 0.48736 0.04245 0.0
C179 C 0.25398 0.50106 1.00017 0.0
C180 C 0.01994 0.23154 0.96124 0.0
C181 C 0.00532 0.21957 0.95686 0.0
C182 C 0.99013 0.22285 0.99169 0.0
C183 C 0.9901 0.23665 0.03297 0.0
H184 H 0.98989 0.31517 0.12474 0.0
H185 H 0.99484 0.34528 0.16354 0.0
H186 H 0.04973 0.33141 0.20344 0.0
H187 H 0.04443 0.30117 0.16596 0.0
H188 H 0.999 0.27822 0.30213 0.0
H189 H 0.99282 0.26396 0.3965 0.0
H190 H 0.9896 0.21248 0.31092 0.0
H191 H 0.99584 0.2265 0.21713 0.0
H192 H 0.03159 0.25397 0.00713 0.0
H193 H 0.03191 0.22947 0.93539 0.0
H194 H 0.97837 0.21437 0.98849 0.0
H195 H 0.97854 0.23813 0.06124 0.0
N196 N 0.01146 0.27702 0.08988 0.0
N197 N 0.00751 0.27924 0.19208 0.0
N198 N 1.00162 0.25215 0.14477 0.0
C199 C 0.012 0.28691 0.14026 0.0
C200 C 1.00236 0.26187 0.19484 0.0
C201 C 0.00613 0.25949 0.09235 0.0
C202 C 0.01688 0.30602 0.14132 0.0
C203 C 1.00322 0.3189 0.13924 0.0
C204 C 0.00607 0.33612 0.16194 0.0
C205 C 0.02262 0.34075 0.18764 0.0
C206 C 0.03672 0.32824 0.18506 0.0
C207 C 0.03382 0.31101 0.16258 0.0
C208 C 0.99802 0.25349 0.25195 0.0
C209 C 0.99698 0.26385 0.30342 0.0
C210 C 0.99339 0.25574 0.35746 0.0
C211 C 0.99097 0.23712 0.36108 0.0
C212 C 0.99176 0.22684 0.3096 0.0
C213 C 0.99521 0.23491 0.25571 0.0
C214 C 1.00507 0.24789 0.0398 0.0
C215 C 0.01978 0.24563 1.00221 0.0
C216 C 0.29867 0.9998 0.97428 0.0
C217 C 0.29935 0.0156 0.94083 0.0
C218 C 0.28539 0.0282 0.94783 0.0
C219 C 0.27147 0.02519 0.98851 0.0
H220 H 0.21925 0.04339 0.15042 0.0
H221 H 0.1894 0.05065 0.18858 0.0
H222 H 0.17153 0.99701 0.14716 0.0
H223 H 0.20115 0.99006 0.10876 0.0
H224 H 0.23765 0.98403 0.26929 0.0
H225 H 0.25101 0.96804 0.35216 0.0
H226 H 0.29999 0.96174 0.25332 0.0
H227 H 0.28668 0.9769 0.17117 0.0
H228 H 0.28529 0.98456 0.03965 0.0
H229 H 0.3092 0.98988 0.97162 0.0
H230 H 0.28535 0.04047 0.92252 0.0
H231 H 0.26127 0.03533 0.99441 0.0
N232 N 0.24182 0.01381 0.07472 0.0
N233 N 0.23714 0.9995 0.16591 0.0
N234 N 0.26448 0.99644 0.11798 0.0
C235 C 0.23098 0.00998 0.12152 0.0
C236 C 0.25394 0.99276 0.16456 0.0
C237 C 0.25873 0.00678 0.07288 0.0
C238 C 0.21232 0.01629 0.12564 0.0
C239 C 0.20864 0.0335 0.14715 0.0
C240 C 0.19163 0.03752 0.16987 0.0
C241 C 0.17804 0.02436 0.17161 0.0
C242 C 0.1815 0.00757 0.14603 0.0
C243 C 0.19847 1.00356 0.12372 0.0
C244 C 0.26111 0.98189 0.21361 0.0
C245 C 0.25117 0.97895 0.26511 0.0
C246 C 0.25883 0.96983 0.31266 0.0
C247 C 0.27655 0.96346 0.30947 0.0
C248 C 0.28618 0.96598 0.25719 0.0
C249 C 0.27856 0.97497 0.20998 0.0
C250 C 0.27136 0.0096 0.02319 0.0
C251 C 0.28492 0.99683 0.01426 0.0
C252 C 0.53385 0.29056 0.28497 0.0
C253 C 0.53463 0.28021 0.33629 0.0
C254 C 0.5321 0.26162 0.33278 0.0
C255 C 0.52775 0.25367 0.27909 0.0
H256 H 0.47225 0.2212 0.15802 0.0
H257 H 0.46588 0.19193 0.20176 0.0
H258 H 0.51817 0.17339 0.14822 0.0
H259 H 0.52421 0.20253 0.10384 0.0
H260 H 0.48055 0.26673 0.00467 0.0
H261 H 0.47698 0.29203 0.93643 0.0
H262 H 0.53232 0.3068 0.96481 0.0
H263 H 0.53574 0.28184 0.0324 0.0
H264 H 0.52863 0.29117 0.19314 0.0
H265 H 0.53603 0.30491 0.28658 0.0
H266 H 0.53268 0.2534 0.37187 0.0
H267 H 0.52518 0.23939 0.27803 0.0
N268 N 0.5128 0.23938 0.17195 0.0
N269 N 0.50327 0.24295 0.07411 0.0
N270 N 0.51772 0.26654 0.12395 0.0
C271 C 0.50501 0.23255 0.12314 0.0
C272 C 0.50991 0.26005 0.07453 0.0
C273 C 0.51913 0.25636 0.1729 0.0
C274 C 0.49855 0.21394 0.12649 0.0
C275 C 0.48193 0.21051 0.15294 0.0
C276 C 0.47846 0.19385 0.17895 0.0
C277 C 0.49164 0.18036 0.17952 0.0
C278 C 0.50764 0.18335 0.14833 0.0
C279 C 0.51108 0.20002 0.12239 0.0
C280 C 0.50844 0.2723 0.02362 0.0
C281 C 0.49204 0.27509 0.99472 0.0
C282 C 0.48996 0.28969 0.95625 0.0
C283 C 0.50435 0.30153 0.94531 0.0
C284 C 0.521 0.29792 0.97157 0.0
C285 C 0.52297 0.28361 0.01047 0.0
C286 C 0.52603 0.2642 0.22809 0.0
C287 C 0.52967 0.28265 0.23142 0.0
La288 La 0.02051 0.00557 0.68949 0.0
La289 La 0.9965 0.01569 0.5947 0.0
C290 C 0.03345 0.98763 0.77203 0.0
C291 C 0.0297 0.96853 0.78438 0.0
C292 C 0.04253 0.95544 0.77054 0.0
C293 C 0.03764 0.93736 0.76729 0.0
C294 C 0.01983 0.93211 0.77778 0.0
C295 C 0.00739 0.94503 0.79603 0.0
C296 C 0.01225 0.96303 0.79936 0.0
C297 C 0.0373 0.0179 0.59631 0.0
C298 C 0.00591 0.9761 0.59942 0.0
C299 C 0.98102 0.03274 0.5149 0.0
C300 C 0.9716 0.0499 0.5213 0.0
C301 C 0.9625 0.0538 0.57367 0.0
C302 C 0.95651 0.07114 0.58509 0.0
C303 C 0.95968 0.08497 0.54467 0.0
C304 C 0.96817 0.08084 0.49122 0.0
C305 C 0.97407 0.06345 0.47968 0.0
C306 C 0.97978 1.00408 0.68984 0.0
C307 C 0.01104 0.04576 0.68548 0.0
O308 O 0.04208 0.99069 0.72318 0.0
O309 O 0.01998 0.99867 0.77865 0.0
O310 O 0.04228 0.02084 0.64993 0.0
O311 O 0.02385 0.00759 0.59615 0.0
O312 O 0.01027 0.9799 0.65428 0.0
O313 O 1.00251 0.98913 0.56202 0.0
O314 O 0.97373 0.01905 0.5417 0.0
O315 O 0.99832 0.03364 0.524 0.0
O316 O 0.97461 1.00092 0.63675 0.0
O317 O 0.99331 0.01415 0.6879 0.0
O318 O 1.00287 0.0418 0.63549 0.0
O319 O 0.01827 0.03313 0.71839 0.0
H320 H 0.05605 0.9593 0.75863 0.0
H321 H 0.04753 0.92766 0.75336 0.0
H322 H 0.99368 0.9413 0.80601 0.0
H323 H 1.00198 0.97269 0.81048 0.0
H324 H 0.96072 0.04363 0.60709 0.0
H325 H 0.94989 0.07381 0.62633 0.0
H326 H 0.97114 0.09123 0.45952 0.0
H327 H 0.98137 0.06079 0.43962 0.0
La328 La 0.51866 0.0243 0.71024 0.0
La329 La 0.50378 1.00456 0.60715 0.0
C330 C 0.53559 0.03081 0.8025 0.0
C331 C 0.55187 0.02184 0.82509 0.0
C332 C 0.56851 0.02437 0.79748 0.0
C333 C 0.58289 0.01309 0.81016 0.0
C334 C 0.58101 0.99913 0.8511 0.0
C335 C 0.56472 0.99733 0.88143 0.0
C336 C 0.55032 0.00862 0.86869 0.0
C337 C 0.50701 0.04513 0.62464 0.0
C338 C 0.54588 0.00866 0.61558 0.0
C339 C 0.49041 0.9919 0.51586 0.0
C340 C 0.47203 0.98468 0.51003 0.0
C341 C 0.46925 0.96646 0.49752 0.0
C342 C 0.45214 0.95886 0.50312 0.0
C343 C 0.43759 0.96937 0.52169 0.0
C344 C 0.44029 0.98773 0.53171 0.0
C345 C 0.45727 0.9953 0.52604 0.0
C346 C 0.50529 0.98622 0.70668 0.0
C347 C 0.4771 0.02082 0.6974 0.0
O348 O 0.53743 0.04036 0.75452 0.0
O349 O 0.52124 0.02064 0.80082 0.0
O350 O 0.50632 0.04936 0.67973 0.0
O351 O 0.5151 0.03045 0.61942 0.0
O352 O 0.54361 0.01603 0.66781 0.0
O353 O 0.5321 1.00369 0.5826 0.0
O354 O 0.50107 0.98262 0.55009 0.0
O355 O 0.49162 0.0092 0.52574 0.0
O356 O 0.49234 0.98508 0.66923 0.0
O357 O 0.51682 0.99686 0.68694 0.0
O358 O 0.47995 0.01788 0.64114 0.0
O359 O 0.49052 0.02107 0.73536 0.0
H360 H 0.57023 0.03447 0.76383 0.0
H361 H 0.59522 0.0148 0.78574 0.0
H362 H 0.56297 0.98695 0.91412 0.0
H363 H 0.53768 0.00639 0.89091 0.0
H364 H 0.48043 0.95795 0.48576 0.0
H365 H 0.45043 0.94467 0.49487 0.0
H366 H 0.42928 0.99631 0.54454 0.0
H367 H 0.45885 0.00937 0.53637 0.0
La368 La 0.5008 0.5232 0.7294 0.0
La369 La 0.52523 0.50985 0.62796 0.0
C370 C 0.49096 0.53884 0.82058 0.0
C371 C 0.48107 0.55583 0.82764 0.0
C372 C 0.46411 0.55591 0.85422 0.0
C373 C 0.45393 0.57163 0.85575 0.0
C374 C 0.46053 0.58753 0.8305 0.0
C375 C 0.47765 0.58747 0.80495 0.0
C376 C 0.48779 0.57182 0.80354 0.0
C377 C 0.48173 0.51845 0.63178 0.0
C378 C 0.51568 0.55037 0.63074 0.0
C379 C 0.53864 0.49117 0.54824 0.0
C380 C 0.53894 0.47148 0.5439 0.0
C381 C 0.55541 0.46263 0.53841 0.0
C382 C 0.55648 0.44412 0.54706 0.0
C383 C 0.54108 0.43415 0.56156 0.0
C384 C 0.52446 0.44294 0.56419 0.0
C385 C 0.52339 0.46141 0.55542 0.0
C386 C 0.5414 0.52177 0.72334 0.0
C387 C 0.50741 0.48175 0.71879 0.0
O388 O 0.48183 0.52564 0.79678 0.0
O389 O 0.50727 0.54017 0.79926 0.0
O390 O 0.47519 0.5243 0.68066 0.0
O391 O 0.49811 0.51585 0.64083 0.0
O392 O 0.50991 0.54793 0.68534 0.0
O393 O 0.52057 0.53688 0.59656 0.0
O394 O 0.54797 0.4976 0.59205 0.0
O395 O 0.52294 0.49892 0.54348 0.0
O396 O 0.54744 0.52404 0.6705 0.0
O397 O 0.5272 0.51261 0.72104 0.0
O398 O 0.51598 0.48484 0.66889 0.0
O399 O 0.50122 0.49482 0.75239 0.0
H400 H 0.4586 0.54372 0.87277 0.0
H401 H 0.44077 0.57127 0.87573 0.0
H402 H 0.48332 0.59958 0.7864 0.0
H403 H 0.50082 0.57228 0.78285 0.0
H404 H 0.56758 0.47015 0.52997 0.0
H405 H 0.56941 0.43768 0.54324 0.0
H406 H 0.51236 0.43572 0.57574 0.0
H407 H 0.51051 0.46787 0.56072 0.0
La408 La 0.00821 0.49591 0.71686 0.0
La409 La 0.01867 0.51984 0.62072 0.0
C410 C 0.99065 0.48321 0.80081 0.0
C411 C 0.97099 0.48402 0.80916 0.0
C412 C 0.95985 0.47075 0.78468 0.0
C413 C 0.94146 0.47373 0.77841 0.0
C414 C 0.9339 0.49003 0.79659 0.0
C415 C 0.94475 0.50255 0.82597 0.0
C416 C 0.96309 0.49955 0.83242 0.0
C417 C 0.01922 0.4791 0.62225 0.0
C418 C 0.97853 0.51098 0.62671 0.0
C419 C 0.03572 0.53399 0.5382 0.0
C420 C 0.05454 0.53994 0.5374 0.0
C421 C 0.06166 0.55013 0.58382 0.0
C422 C 0.08014 0.55273 0.58881 0.0
C423 C 0.09188 0.54501 0.54797 0.0
C424 C 0.0846 0.53546 0.50024 0.0
C425 C 0.06613 0.53305 0.4949 0.0
C426 C 0.00803 0.53657 0.71654 0.0
C427 C 0.04867 0.50439 0.71011 0.0
O428 O 0.99615 0.47353 0.75659 0.0
O429 O 0.99908 0.49861 0.80329 0.0
O430 O 0.02245 0.4738 0.67539 0.0
O431 O 0.00943 0.49287 0.62358 0.0
O432 O 0.98235 0.50528 0.68034 0.0
O433 O 0.99147 0.51547 0.59011 0.0
O434 O 0.02486 0.54295 0.57224 0.0
O435 O 0.03355 0.51666 0.54348 0.0
O436 O 1.00477 0.54202 0.66372 0.0
O437 O 0.01768 0.52278 0.71392 0.0
O438 O 0.0448 0.51206 0.65917 0.0
O439 O 0.03589 0.49821 0.74473 0.0
H440 H 0.96548 0.45856 0.76682 0.0
H441 H 0.93343 0.46379 0.75583 0.0
H442 H 0.93918 0.51499 0.84213 0.0
H443 H 0.97121 0.50993 0.85242 0.0
H444 H 0.05306 0.55544 0.61778 0.0
H445 H 0.08523 0.56036 0.62561 0.0
H446 H 0.09318 0.52899 0.46847 0.0
H447 H 0.06095 0.52493 0.45932 0.0
H448 H 0.17413 0.04132 0.27734 0.0
H449 H 0.1475 0.04239 0.33937 0.0
H450 H 0.11714 0.01454 0.20675 0.0
H451 H 0.14373 0.01349 0.14404 0.0
H452 H 0.11254 0.05602 0.32403 0.0
H453 H 0.11195 0.98196 0.35052 0.0
H454 H 0.13081 0.99386 0.31986 0.0
H455 H 0.11116 0.98983 0.27618 0.0
C456 C 0.16171 0.03576 0.26062 0.0
C457 C 0.16117 0.02721 0.20564 0.0
C458 C 0.1465 0.03628 0.29643 0.0
C459 C 0.1304 0.02823 0.2783 0.0
C460 C 0.12952 0.02048 0.2223 0.0
H461 H 0.03302 0.00614 0.48326 0.0
H462 H 0.05406 0.00984 0.40138 0.0
C463 C 0.14475 0.01993 0.18643 0.0
C464 C 0.11485 0.02732 0.31915 0.0
H465 H 0.089 0.99801 0.3976 0.0
C466 C 0.10733 0.04334 0.33991 0.0
C467 C 0.10802 0.01076 0.33985 0.0
C468 C 0.11595 0.9931 0.32096 0.0
C469 C 0.09325 0.04325 0.3809 0.0
C470 C 0.08672 0.0267 0.40266 0.0
C471 C 0.09396 0.01069 0.38085 0.0
C472 C 0.07321 0.02565 0.45063 0.0
C473 C 0.08545 0.0609 0.40028 0.0
C474 C 0.07692 0.0333 0.50554 0.0
C475 C 0.06495 0.0312 0.55219 0.0
C476 C 0.04905 0.02128 0.54515 0.0
C477 C 0.04515 0.01388 0.48994 0.0
C478 C 0.05717 0.01597 0.4432 0.0
H479 H 0.08771 0.07156 0.36706 0.0
H480 H 0.07083 0.05973 0.40856 0.0
H481 H 0.09208 0.06518 0.44152 0.0
H482 H 0.08935 0.04048 0.51291 0.0
H483 H 0.06837 0.03701 0.59424 0.0
H484 H 0.47809 0.17925 0.2908 0.0
H485 H 0.47852 0.15427 0.35977 0.0
H486 H 0.50191 0.12037 0.22767 0.0
H487 H 0.50155 0.1454 0.15804 0.0
H488 H 0.46386 0.12022 0.36004 0.0
H489 H 0.53826 0.11697 0.36034 0.0
H490 H 0.52613 0.13532 0.32762 0.0
H491 H 0.52811 0.11435 0.28948 0.0
C492 C 0.48299 0.1664 0.27579 0.0
C493 C 0.48983 0.1644 0.21869 0.0
C494 C 0.48333 0.15213 0.31556 0.0
C495 C 0.49057 0.13552 0.2994 0.0
C496 C 0.49666 0.13318 0.24166 0.0
H497 H 0.51388 0.04004 0.50847 0.0
H498 H 0.50858 0.06102 0.42763 0.0
C499 C 0.49638 0.14749 0.20181 0.0
C500 C 0.49228 0.12097 0.34382 0.0
H501 H 0.523 0.09539 0.41711 0.0
C502 C 0.47679 0.11476 0.37241 0.0
C503 C 0.50916 0.11386 0.36019 0.0
C504 C 0.52639 0.12054 0.33328 0.0
C505 C 0.47771 0.10163 0.41661 0.0
C506 C 0.4946 0.09468 0.43333 0.0
C507 C 0.51005 0.10069 0.40419 0.0
C508 C 0.49668 0.08153 0.48196 0.0
C509 C 0.46057 0.09516 0.44463 0.0
C510 C 0.49177 0.08605 0.5395 0.0
C511 C 0.49479 0.07408 0.58578 0.0
C512 C 0.50286 0.05739 0.57543 0.0
C513 C 0.50756 0.05278 0.51776 0.0
C514 C 0.50458 0.06477 0.47154 0.0
H515 H 0.44872 0.09803 0.41665 0.0
H516 H 0.4611 0.08054 0.45341 0.0
H517 H 0.45869 0.10217 0.48702 0.0
H518 H 0.48598 0.09903 0.54886 0.0
H519 H 0.49109 0.07801 0.6298 0.0
H520 H 0.3555 0.52362 0.26699 0.0
H521 H 0.38105 0.52587 0.33352 0.0
H522 H 0.40748 0.48302 0.24165 0.0
H523 H 0.38195 0.48079 0.17393 0.0
H524 H 0.39281 0.49421 0.4032 0.0
H525 H 0.44681 0.52393 0.26534 0.0
H526 H 0.42333 0.52719 0.2488 0.0
H527 H 0.43355 0.50588 0.23552 0.0
C528 C 0.36693 0.51498 0.25966 0.0
C529 C 0.36665 0.50207 0.21472 0.0
C530 C 0.38149 0.51621 0.29815 0.0
C531 C 0.39621 0.50469 0.29241 0.0
C532 C 0.39634 0.49217 0.24652 0.0
H533 H 0.48909 0.49774 0.53422 0.0
H534 H 0.46959 0.4932 0.44819 0.0
C535 C 0.38168 0.49085 0.20808 0.0
C536 C 0.41057 0.50489 0.3377 0.0
H537 H 0.45387 0.51781 0.36415 0.0
C538 C 0.40619 0.49926 0.39455 0.0
C539 C 0.42809 0.51125 0.32617 0.0
C540 C 0.43336 0.51751 0.26579 0.0
C541 C 0.4187 0.50018 0.44049 0.0
C542 C 0.43598 0.50737 0.42979 0.0
C543 C 0.44062 0.51238 0.3724 0.0
C544 C 0.44871 0.51098 0.47875 0.0
C545 C 0.41323 0.49352 0.50032 0.0
C546 C 0.44374 0.52283 0.5235 0.0
C547 C 0.45481 0.52542 0.57211 0.0
C548 C 0.47128 0.51644 0.57691 0.0
C549 C 0.47666 0.50507 0.53118 0.0
C550 C 0.46545 0.50239 0.48228 0.0
H551 H 0.40212 0.48362 0.49742 0.0
H552 H 0.4247 0.48722 0.52355 0.0
H553 H 0.40847 0.50499 0.52692 0.0
H554 H 0.43108 0.52988 0.52131 0.0
H555 H 0.45033 0.53435 0.60648 0.0
H556 H 0.03986 0.34498 0.29272 0.0
H557 H 0.04056 0.37133 0.35568 0.0
H558 H 0.00989 0.40085 0.22795 0.0
H559 H 0.00919 0.37445 0.16409 0.0
H560 H 0.05328 0.40604 0.33947 0.0
H561 H 0.9796 0.40582 0.37601 0.0
H562 H 0.99115 0.38721 0.34277 0.0
H563 H 0.98649 0.40703 0.30074 0.0
C564 C 0.03355 0.35714 0.27721 0.0
C565 C 0.02446 0.35751 0.22305 0.0
C566 C 0.03386 0.3722 0.31362 0.0
C567 C 0.02504 0.38801 0.29712 0.0
C568 C 0.01647 0.38869 0.24227 0.0
H569 H 0.00634 0.48431 0.511 0.0
H570 H 0.00869 0.4638 0.42722 0.0
C571 C 0.01612 0.37358 0.20572 0.0
C572 C 0.02453 0.40348 0.33835 0.0
H573 H 0.99623 0.42854 0.42271 0.0
C574 C 0.04079 0.41103 0.35739 0.0
C575 C 0.00824 0.41003 0.36176 0.0
C576 C 0.99036 0.40205 0.34479 0.0
C577 C 0.04122 0.42478 0.3995 0.0
C578 C 0.02497 0.43098 0.42407 0.0
C579 C 0.00868 0.4238 0.40383 0.0
C580 C 0.02459 0.44407 0.47332 0.0
C581 C 0.0591 0.43256 0.41729 0.0
C582 C 0.03274 0.43984 0.52708 0.0
C583 C 0.03139 0.45149 0.57486 0.0
C584 C 0.02178 0.4676 0.57004 0.0
C585 C 0.01387 0.47201 0.51596 0.0
C586 C 0.01518 0.46029 0.46813 0.0
H587 H 0.06939 0.43047 0.38284 0.0
H588 H 0.05804 0.44713 0.42638 0.0
H589 H 0.06381 0.42578 0.45777 0.0
H590 H 0.03976 0.42726 0.53263 0.0
H591 H 0.03757 0.44769 0.61601 0.0
H592 H 0.86567 0.97138 0.10161 0.0
H593 H 0.89162 0.9736 0.03683 0.0
H594 H 0.87784 0.02838 0.99692 0.0
H595 H 0.85158 0.02605 0.06073 0.0
H596 H 0.88377 0.01074 0.90003 0.0
H597 H 0.94003 0.9962 0.05049 0.0
H598 H 0.92342 0.97881 0.05198 0.0
H599 H 0.91773 1.00101 0.07657 0.0
C600 C 0.86841 0.98404 0.08018 0.0
C601 C 0.85657 0.99856 0.08654 0.0
C602 C 0.88332 0.98532 0.04315 0.0
C603 C 0.88694 1.00125 0.01239 0.0
C604 C 0.87542 0.01594 0.02014 0.0
H605 H 0.98266 0.02035 0.79716 0.0
H606 H 0.96063 0.01979 0.87702 0.0
C607 C 0.86039 0.01461 0.05665 0.0
C608 C 0.90173 1.0021 0.96839 0.0
H609 H 0.9464 0.9939 0.94766 0.0
C610 C 0.89749 0.0072 0.91075 0.0
C611 C 0.91974 0.99772 0.98213 0.0
C612 C 0.92555 0.99331 0.04381 0.0
C613 C 0.91054 0.00764 0.86644 0.0
C614 C 0.92832 1.00231 0.87941 0.0
C615 C 0.93273 0.99769 0.93736 0.0
C616 C 0.94244 1.00152 0.83325 0.0
C617 C 0.90513 0.0141 0.80626 0.0
C618 C 0.93992 0.99096 0.78296 0.0
C619 C 0.95238 0.99139 0.73723 0.0
C620 C 0.96779 1.00218 0.74115 0.0
C621 C 0.97086 0.01197 0.79283 0.0
C622 C 0.95828 0.01166 0.83846 0.0
H623 H 0.89297 0.02265 0.80805 0.0
H624 H 0.91609 0.02187 0.78524 0.0
H625 H 0.90199 1.00237 0.7782 0.0
H626 H 0.9281 0.98261 0.77854 0.0
H627 H 0.94977 0.98353 0.69824 0.0
H628 H 0.49436 0.88134 0.14613 0.0
H629 H 0.49823 0.90617 0.07744 0.0
H630 H 0.53801 0.87583 0.98355 0.0
H631 H 0.53369 0.85061 0.05082 0.0
H632 H 0.52623 0.92759 0.03824 0.0
H633 H 0.49986 0.88454 0.85899 0.0
H634 H 0.49896 0.87789 0.93488 0.0
H635 H 0.51959 0.87613 0.89468 0.0
C636 C 0.50404 0.87997 0.11113 0.0
C637 C 0.51347 0.8638 0.10347 0.0
C638 C 0.50633 0.89425 0.07206 0.0
C639 C 0.5181 0.89274 0.02444 0.0
C640 C 0.52855 0.87717 0.01921 0.0
H641 H 0.53545 0.98163 0.77377 0.0
H642 H 0.54007 0.95962 0.85227 0.0
C643 C 0.52622 0.86282 0.05821 0.0
C644 C 0.51823 0.90684 0.9781 0.0
H645 H 0.50787 0.91402 0.8341 0.0
C646 C 0.52233 0.92463 0.99347 0.0
C647 C 0.5129 0.90303 0.91983 0.0
C648 C 0.50741 0.88442 0.90098 0.0
C649 C 0.52106 0.9387 0.95241 0.0
C650 C 0.51576 0.93484 0.89412 0.0
C651 C 0.51196 0.91701 0.87867 0.0
C652 C 0.51301 0.94905 0.84897 0.0
C653 C 0.52478 0.95761 0.9724 0.0
C654 C 0.49636 0.9504 0.82038 0.0
C655 C 0.49379 0.96277 0.7751 0.0
C656 C 0.50781 0.97411 0.75741 0.0
C657 C 0.52438 0.9731 0.78676 0.0
C658 C 0.527 0.96059 0.83188 0.0
H659 H 0.52418 0.95883 0.02087 0.0
H660 H 0.53843 0.9616 0.95818 0.0
H661 H 0.51505 0.96715 0.95284 0.0
H662 H 0.48535 0.9417 0.83269 0.0
H663 H 0.48088 0.96329 0.75339 0.0
H664 H 0.64468 0.54001 0.18614 0.0
H665 H 0.6189 0.54177 0.11939 0.0
H666 H 0.64072 0.49851 0.01691 0.0
H667 H 0.66622 0.49656 0.08325 0.0
H668 H 0.61793 0.54974 0.00548 0.0
H669 H 0.59 0.48172 0.0333 0.0
H670 H 0.60664 0.49082 0.08248 0.0
H671 H 0.61326 0.48081 0.01403 0.0
C672 C 0.64385 0.53073 0.14978 0.0
C673 C 0.65744 0.51797 0.1407 0.0
C674 C 0.6291 0.53174 0.11164 0.0
C675 C 0.62762 0.52004 0.0636 0.0
C676 C 0.64117 0.50731 0.05459 0.0
H677 H 0.57542 0.53494 0.73098 0.0
H678 H 0.59482 0.53586 0.81728 0.0
C679 C 0.6558 0.50621 0.09276 0.0
C680 C 0.6126 0.52173 0.02062 0.0
H681 H 0.58144 0.49727 0.94508 0.0
C682 C 0.60979 0.53831 0.99288 0.0
C683 C 0.60167 0.50697 0.00468 0.0
C684 C 0.60291 0.48915 0.03569 0.0
C685 C 0.59698 0.5403 0.94799 0.0
C686 C 0.587 0.52519 0.92908 0.0
C687 C 0.58923 0.50883 0.95872 0.0
C688 C 0.57472 0.5258 0.87735 0.0
C689 C 0.59428 0.55863 0.92151 0.0
C690 C 0.55697 0.51954 0.88165 0.0
C691 C 0.54592 0.51873 0.83197 0.0
C692 C 0.55238 0.5242 0.77694 0.0
C693 C 0.56999 0.5308 0.77286 0.0
C694 C 0.58108 0.53145 0.82238 0.0
H695 H 0.59788 0.56938 0.95312 0.0
H696 H 0.60315 0.56013 0.88283 0.0
H697 H 0.58019 0.56063 0.90723 0.0
H698 H 0.55175 0.51499 0.92336 0.0
H699 H 0.53245 0.51346 0.83641 0.0
H700 H 0.03345 0.6506 0.13488 0.0
H701 H 0.03408 0.6251 0.0674 0.0
H702 H 0.97673 0.62825 0.04743 0.0
H703 H 0.97595 0.65385 0.11392 0.0
H704 H 0.99045 0.59222 0.05513 0.0
H705 H 0.02613 0.63374 0.88974 0.0
H706 H 0.03669 0.63244 0.96046 0.0
H707 H 0.01536 0.64334 0.95306 0.0
C708 C 0.02093 0.6458 0.11655 0.0
C709 C 1.00467 0.65446 0.12972 0.0
C710 C 0.02132 0.6312 0.07795 0.0
C711 C 0.00548 0.62495 0.05159 0.0
C712 C 0.98912 0.63285 0.06718 0.0
H713 H 0.99152 0.56897 0.7236 0.0
H714 H 0.99046 0.5893 0.80762 0.0
C715 C 0.98871 0.64746 0.10565 0.0
C716 C 0.00601 0.61103 0.00486 0.0
H717 H 0.02059 0.60358 0.86509 0.0
C718 C 0.99711 0.59464 0.01368 0.0
C719 C 0.01449 0.61431 0.95042 0.0
C720 C 0.0236 0.63195 0.93734 0.0
C721 C 0.99655 0.58142 0.96962 0.0
C722 C 0.00519 0.58466 0.91545 0.0
C723 C 0.01405 0.60106 0.90671 0.0
C724 C 1.00475 0.57155 0.86628 0.0
C725 C 0.98633 0.5643 0.98073 0.0
C726 C 0.01302 0.55471 0.8713 0.0
C727 C 0.01366 0.54305 0.82315 0.0
C728 C 0.00609 0.54806 0.7691 0.0
C729 C 0.99748 0.56473 0.76463 0.0
C730 C 0.99689 0.57638 0.81261 0.0
H731 H 0.9773 0.56544 0.0192 0.0
H732 H 0.97822 0.56053 0.94178 0.0
H733 H 0.99597 0.55331 0.98938 0.0
H734 H 0.01943 0.55079 0.91193 0.0
H735 H 0.02048 0.53033 0.8278 0.0
H736 H 0.96724 0.24687 0.44706 0.0
H737 H 0.95824 0.22891 0.5323 0.0
H738 H 0.99744 0.18894 0.48548 0.0
H739 H 0.0068 0.207 0.40266 0.0
H740 H 0.94242 0.19872 0.52339 0.0
H741 H 1.00112 0.1845 0.65731 0.0
H742 H 1.00077 0.20339 0.60765 0.0
H743 H 0.00853 0.18167 0.58346 0.0
C744 C 0.97433 0.23454 0.45646 0.0
C745 C 0.98753 0.22816 0.41789 0.0
C746 C 0.96918 0.2243 0.50511 0.0
C747 C 0.9773 0.20764 0.51608 0.0
C748 C 0.99128 0.20194 0.47945 0.0
H749 H 0.94657 0.11112 0.47274 0.0
H750 H 0.94575 0.14304 0.49181 0.0
C751 C 0.99642 0.21212 0.43122 0.0
C752 C 0.96918 0.19447 0.55697 0.0
H753 H 0.9827 0.15698 0.62916 0.0
C754 C 0.95106 0.18995 0.54863 0.0
C755 C 0.97993 0.18337 0.59288 0.0
C756 C 0.9986 0.18871 0.61131 0.0
C757 C 0.9445 0.17315 0.5659 0.0
C758 C 0.95654 0.16049 0.58988 0.0
C759 C 0.97359 0.1663 0.60811 0.0
C760 C 0.95349 0.14092 0.58328 0.0
C761 C 0.92511 0.16869 0.5541 0.0
C762 C 0.95822 0.12889 0.62797 0.0
C763 C 0.95925 0.11052 0.61642 0.0
C764 C 0.95561 0.10387 0.55988 0.0
C765 C 0.94974 0.11581 0.51644 0.0
C766 C 0.94888 0.13412 0.52781 0.0
H767 H 0.91649 0.18034 0.56506 0.0
H768 H 0.92325 0.16593 0.50669 0.0
H769 H 0.92054 0.15689 0.57977 0.0
H770 H 0.96203 0.13378 0.67087 0.0
H771 H 0.96394 0.10171 0.65088 0.0
H772 H 0.27362 0.97373 0.42492 0.0
H773 H 0.29517 0.96738 0.50282 0.0
H774 H 0.32322 0.93115 0.38797 0.0
H775 H 0.3008 0.936 0.31241 0.0
H776 H 0.32929 0.92186 0.49703 0.0
H777 H 0.33936 0.99576 0.47659 0.0
H778 H 0.31826 0.98875 0.50626 0.0
H779 H 0.32366 0.9839 0.43103 0.0
C780 C 0.28389 0.9638 0.41709 0.0
C781 C 0.28594 0.95594 0.36146 0.0
C782 C 0.29638 0.96037 0.46151 0.0
C783 C 0.31137 0.94956 0.45013 0.0
C784 C 0.31201 0.93988 0.39751 0.0
H785 H 0.42005 0.94553 0.45075 0.0
H786 H 0.38839 0.9372 0.45511 0.0
C787 C 0.29929 0.94287 0.35389 0.0
C788 C 0.32781 0.95055 0.48677 0.0
H789 H 0.3618 0.97941 0.52096 0.0
C790 C 0.33624 0.93449 0.50349 0.0
C791 C 0.33694 0.96706 0.49531 0.0
C792 C 0.32921 0.98484 0.47608 0.0
C793 C 0.35399 0.9344 0.52412 0.0
C794 C 0.3634 0.95076 0.52863 0.0
C795 C 0.35447 0.96689 0.51731 0.0
C796 C 0.38309 0.95164 0.53546 0.0
C797 C 0.36282 0.91677 0.5383 0.0
C798 C 0.39068 0.9622 0.57983 0.0
C799 C 0.40874 0.96702 0.5773 0.0
C800 C 0.41947 0.96154 0.52993 0.0
C801 C 0.41216 0.94989 0.48788 0.0
C802 C 0.39408 0.94502 0.49055 0.0
H803 H 0.35275 0.90648 0.55093 0.0
H804 H 0.36998 0.91185 0.49892 0.0
H805 H 0.37272 0.91829 0.57437 0.0
H806 H 0.38238 0.96753 0.61458 0.0
H807 H 0.41413 0.97569 0.61106 0.0
H808 H 0.51497 0.30771 0.37726 0.0
H809 H 0.5207 0.32582 0.4639 0.0
H810 H 0.56465 0.29123 0.51175 0.0
H811 H 0.55898 0.27297 0.42359 0.0
H812 H 0.52429 0.31943 0.58876 0.0
H813 H 0.58805 0.34072 0.48092 0.0
H814 H 0.57152 0.32828 0.43992 0.0
H815 H 0.584 0.31745 0.49711 0.0
C816 C 0.52571 0.30382 0.40663 0.0
C817 C 0.5368 0.28924 0.39335 0.0
C818 C 0.52886 0.31404 0.45645 0.0
C819 C 0.54319 0.30995 0.49393 0.0
C820 C 0.5536 0.29465 0.48306 0.0
H821 H 0.56735 0.41632 0.62246 0.0
H822 H 0.57053 0.38384 0.63475 0.0
C823 C 0.55036 0.28427 0.43294 0.0
C824 C 0.5483 0.32351 0.53801 0.0
H825 H 0.57348 0.36161 0.53993 0.0
C826 C 0.53548 0.32835 0.58008 0.0
C827 C 0.56309 0.33497 0.52758 0.0
C828 C 0.57752 0.33021 0.48403 0.0
C829 C 0.53569 0.34546 0.60544 0.0
C830 C 0.54885 0.35791 0.58742 0.0
C831 C 0.56321 0.35209 0.55279 0.0
C832 C 0.54565 0.37742 0.59072 0.0
C833 C 0.52096 0.3506 0.64726 0.0
C834 C 0.53065 0.38452 0.56174 0.0
C835 C 0.52898 0.40293 0.55349 0.0
C836 C 0.54232 0.41467 0.57402 0.0
C837 C 0.55702 0.40759 0.60512 0.0
C838 C 0.55874 0.38908 0.61298 0.0
H839 H 0.5167 0.33888 0.67393 0.0
H840 H 0.52532 0.36154 0.67704 0.0
H841 H 0.50914 0.35524 0.62196 0.0
H842 H 0.52066 0.37574 0.54253 0.0
H843 H 0.51762 0.40787 0.52876 0.0
H844 H 0.21302 0.47534 0.40739 0.0
H845 H 0.19418 0.48861 0.4821 0.0
H846 H 0.23726 0.52419 0.53186 0.0
H847 H 0.25567 0.51214 0.45283 0.0
H848 H 0.19187 0.49565 0.59381 0.0
H849 H 0.20269 0.56041 0.47617 0.0
H850 H 0.21192 0.53982 0.44885 0.0
H851 H 0.22166 0.55056 0.512 0.0
C852 C 0.21856 0.48596 0.43424 0.0
C853 C 0.23556 0.49321 0.42224 0.0
C854 C 0.20783 0.4934 0.47772 0.0
C855 C 0.21402 0.50796 0.51113 0.0
C856 C 0.23192 0.51349 0.50499 0.0
H857 H 0.11056 0.54344 0.65215 0.0
H858 H 0.14281 0.53927 0.66487 0.0
C859 C 0.24255 0.50637 0.46023 0.0
C860 C 0.20069 0.5186 0.54454 0.0
H861 H 0.17717 0.55761 0.53238 0.0
C862 C 0.18882 0.50936 0.58159 0.0
C863 C 0.19693 0.53666 0.52942 0.0
C864 C 0.20887 0.54748 0.48929 0.0
C865 C 0.17213 0.51666 0.59678 0.0
C866 C 0.16763 0.53401 0.57637 0.0
C867 C 0.18061 0.54421 0.547 0.0
C868 C 0.14872 0.53999 0.57206 0.0
C869 C 0.15886 0.50501 0.62921 0.0
C870 C 0.14149 0.54312 0.51612 0.0
C871 C 0.1232 0.54599 0.5088 0.0
C872 C 0.11162 0.5455 0.55717 0.0
C873 C 0.11904 0.54375 0.61374 0.0
C874 C 0.13748 0.54112 0.62114 0.0
H875 H 0.16377 0.49108 0.63504 0.0
H876 H 0.15643 0.51077 0.67325 0.0
H877 H 0.14587 0.50448 0.60547 0.0
H878 H 0.14989 0.54249 0.47748 0.0
H879 H 0.11808 0.54791 0.46483 0.0
H880 H 0.94634 0.78695 0.90729 0.0
H881 H 0.94934 0.81011 0.83179 0.0
H882 H 0.00671 0.80248 0.83208 0.0
H883 H 1.00361 0.77896 0.90485 0.0
H884 H 0.96447 0.83888 0.86216 0.0
H885 H 1.00114 0.81696 0.66708 0.0
H886 H 0.99082 0.80106 0.71637 0.0
H887 H 0.01326 0.80924 0.72988 0.0
C888 C 0.95947 0.78974 0.88914 0.0
C889 C 0.97476 0.78131 0.912 0.0
C890 C 0.96119 0.80292 0.84597 0.0
C891 C 0.97825 0.80809 0.82593 0.0
C892 C 0.99334 0.79851 0.84526 0.0
H893 H 0.03693 0.90118 0.80949 0.0
H894 H 0.02519 0.87057 0.80259 0.0
C895 C 0.99158 0.78511 0.88746 0.0
C896 C 0.98084 0.82576 0.79729 0.0
H897 H 0.00834 0.84783 0.70173 0.0
C898 C 0.97354 0.84077 0.82559 0.0
C899 C 0.99271 0.82837 0.74964 0.0
C900 C 0.99973 0.81297 0.71377 0.0
C901 C 0.97901 0.85816 0.81125 0.0
C902 C 0.99209 0.86062 0.76734 0.0
C903 C 0.99847 0.84581 0.73595 0.0
C904 C 1.0006 0.87827 0.7591 0.0
C905 C 0.97175 0.87372 0.84621 0.0
C906 C 0.99083 0.89253 0.73531 0.0
C907 C 0.99741 0.90999 0.73966 0.0
C908 C 0.01389 0.91342 0.76769 0.0
C909 C 0.02419 0.89894 0.78782 0.0
C910 C 0.01756 0.88147 0.78363 0.0
H911 H 0.96294 0.86929 0.88268 0.0
H912 H 0.98294 0.88176 0.86476 0.0
H913 H 0.96385 0.8826 0.81697 0.0
H914 H 0.97775 0.89024 0.71598 0.0
H915 H 0.98941 0.92086 0.72227 0.0
H916 H 0.71169 0.90228 0.03091 0.0
H917 H 0.68347 0.90334 0.97604 0.0
H918 H 0.70107 0.95188 0.89069 0.0
H919 H 0.729 0.95085 0.94442 0.0
H920 H 0.6617 0.92979 0.99887 0.0
H921 H 0.67255 0.93068 0.761 0.0
H922 H 0.68936 0.92235 0.81115 0.0
H923 H 0.68804 0.94595 0.79422 0.0
C924 C 0.70977 0.91278 0.99875 0.0
C925 C 0.72251 0.92659 0.99258 0.0
C926 C 0.69368 0.91334 0.96729 0.0
C927 C 0.69012 0.92766 0.92902 0.0
C928 C 0.70359 0.94043 0.91867 0.0
H929 H 0.61697 0.00607 0.85743 0.0
H930 H 0.64131 0.98455 0.86987 0.0
C931 C 0.71965 0.93985 0.9498 0.0
C932 C 0.67152 0.93168 0.91024 0.0
H933 H 0.64826 0.95051 0.79709 0.0
C934 C 0.65853 0.93368 0.95427 0.0
C935 C 0.66731 0.93676 0.8521 0.0
C936 C 0.68006 0.93361 0.80198 0.0
C937 C 0.6422 0.94227 0.94288 0.0
C938 C 0.63881 0.94892 0.88605 0.0
C939 C 0.65107 0.94557 0.84087 0.0
C940 C 0.62388 0.96141 0.87497 0.0
C941 C 0.6293 0.9455 0.99262 0.0
C942 C 0.60607 0.95542 0.87371 0.0
C943 C 0.59211 0.96769 0.86635 0.0
C944 C 0.59577 0.98612 0.86028 0.0
C945 C 0.61369 0.99197 0.86132 0.0
C946 C 0.62761 0.97971 0.86842 0.0
H947 H 0.63441 0.94028 0.03506 0.0
H948 H 0.6267 0.96008 0.99725 0.0
H949 H 0.61631 0.93885 0.98288 0.0
H950 H 0.603 0.9413 0.87855 0.0
H951 H 0.57847 0.96271 0.86466 0.0
H952 H 0.44164 0.74932 0.94405 0.0
H953 H 0.43611 0.72618 0.87131 0.0
H954 H 0.40603 0.6958 0.99872 0.0
H955 H 0.41015 0.71957 0.06996 0.0
H956 H 0.45183 0.69677 0.88964 0.0
H957 H 0.3811 0.679 0.85703 0.0
H958 H 0.38766 0.70018 0.88882 0.0
H959 H 0.38515 0.68048 0.93415 0.0
C960 C 0.43299 0.73823 0.9558 0.0
C961 C 0.42676 0.7361 0.01357 0.0
C962 C 0.42992 0.72489 0.91403 0.0
C963 C 0.42081 0.70909 0.92942 0.0
C964 C 0.41289 0.70789 0.98507 0.0
H965 H 0.44125 0.6009 0.92229 0.0
H966 H 0.42821 0.63081 0.93057 0.0
C967 C 0.41559 0.7214 0.0264 0.0
C968 C 0.42324 0.69257 0.89406 0.0
H969 H 0.40241 0.65344 0.85601 0.0
C970 C 0.4409 0.68759 0.8804 0.0
C971 C 0.40906 0.68046 0.882 0.0
C972 C 0.38969 0.68546 0.89079 0.0
C973 C 0.44493 0.67041 0.85989 0.0
C974 C 0.43092 0.65785 0.8526 0.0
C975 C 0.41312 0.6631 0.86227 0.0
C976 C 0.435 0.63878 0.8422 0.0
C977 C 0.46432 0.66538 0.85029 0.0
C978 C 0.44252 0.63323 0.78904 0.0
C979 C 0.45 0.61616 0.78418 0.0
C980 C 0.45007 0.6044 0.83248 0.0
C981 C 0.44135 0.60959 0.88427 0.0
C982 C 0.43387 0.62666 0.88905 0.0
H983 H 0.47371 0.67617 0.86398 0.0
H984 H 0.46764 0.65301 0.87508 0.0
H985 H 0.46655 0.66262 0.80311 0.0
H986 H 0.44342 0.64241 0.75238 0.0
H987 H 0.4563 0.61239 0.74329 0.0
H988 H 0.79566 0.48193 0.93888 0.0
H989 H 0.81638 0.48375 0.85669 0.0
H990 H 0.79581 0.53602 0.81231 0.0
H991 H 0.77522 0.53441 0.89594 0.0
H992 H 0.8184 0.49244 0.7327 0.0
H993 H 0.84614 0.54577 0.87914 0.0
H994 H 0.82821 0.53146 0.9038 0.0
H995 H 0.82399 0.54833 0.84933 0.0
C996 C 0.7952 0.49358 0.91057 0.0
C997 C 0.78426 0.50823 0.92452 0.0
C998 C 0.8069 0.49455 0.86324 0.0
C999 C 0.80787 0.51019 0.82926 0.0
C1000 C 0.79539 0.52394 0.83858 0.0
H1001 H 0.9209 0.52193 0.75617 0.0
H1002 H 0.88967 0.5299 0.73726 0.0
C1003 C 0.78363 0.52298 0.88621 0.0
C1004 C 0.8244 0.51327 0.79511 0.0
H1005 H 0.86596 0.53072 0.81906 0.0
C1006 C 0.82871 0.50125 0.75001 0.0
C1007 C 0.83776 0.52502 0.81696 0.0
C1008 C 0.83394 0.53838 0.86501 0.0
C1009 C 0.84648 0.4993 0.73094 0.0
C1010 C 0.86016 0.50924 0.75902 0.0
C1011 C 0.85548 0.52287 0.79831 0.0
C1012 C 0.87917 0.5036 0.75789 0.0
C1013 C 0.85055 0.48595 0.68328 0.0
C1014 C 0.88367 0.48613 0.77556 0.0
C1015 C 0.90146 0.48159 0.78704 0.0
C1016 C 0.91508 0.4945 0.78179 0.0
C1017 C 0.91063 0.51181 0.76213 0.0
C1018 C 0.89284 0.51631 0.75029 0.0
H1019 H 0.83957 0.48568 0.65032 0.0
H1020 H 0.86335 0.48913 0.66071 0.0
H1021 H 0.85151 0.47235 0.70268 0.0
H1022 H 0.87332 0.47625 0.78379 0.0
H1023 H 0.90445 0.4682 0.80247 0.0
H1024 H 0.02103 0.21499 0.84789 0.0
H1025 H 0.02252 0.18738 0.78947 0.0
H1026 H 0.99315 0.15912 0.92323 0.0
H1027 H 0.992 0.18621 0.98226 0.0
H1028 H 0.03738 0.15298 0.8244 0.0
H1029 H 0.96509 0.14793 0.76989 0.0
H1030 H 0.97566 0.1687 0.79153 0.0
H1031 H 0.96963 0.15232 0.84585 0.0
C1032 C 0.01493 0.20289 0.865 0.0
C1033 C 0.00617 0.20302 0.91969 0.0
C1034 C 0.01572 0.18714 0.83136 0.0
C1035 C 0.00764 0.17125 0.85146 0.0
C1036 C 0.99908 0.1713 0.90609 0.0
H1037 H 0.02456 0.05918 0.78842 0.0
H1038 H 0.02439 0.09023 0.82232 0.0
C1039 C 0.99839 0.18692 0.93976 0.0
C1040 C 0.00865 0.1543 0.81717 0.0
H1041 H 0.98247 0.12138 0.75738 0.0
C1042 C 0.02541 0.14616 0.80905 0.0
C1043 C 0.99307 0.14552 0.79626 0.0
C1044 C 0.97484 0.15411 0.8007 0.0
C1045 C 0.0269 0.12909 0.7833 0.0
C1046 C 0.01118 0.11975 0.76607 0.0
C1047 C 0.99452 0.12834 0.77135 0.0
C1048 C 0.01166 0.10088 0.74447 0.0
C1049 C 0.04532 0.12121 0.77497 0.0
C1050 C 1.00415 0.09633 0.68998 0.0
C1051 C 1.00403 0.0785 0.67069 0.0
C1052 C 0.01142 0.06476 0.70555 0.0
C1053 C 0.01889 0.06936 0.76016 0.0
C1054 C 0.01892 0.08718 0.77948 0.0
H1055 H 0.05574 0.13184 0.77252 0.0
H1056 H 0.04856 0.1125 0.81295 0.0
H1057 H 0.04598 0.11298 0.73452 0.0
H1058 H 0.9984 0.10662 0.66224 0.0
H1059 H 0.9981 0.0755 0.62845 0.0
H1060 H 0.31813 0.99116 0.87521 0.0
H1061 H 0.34717 0.9951 0.82912 0.0
H1062 H 0.34524 0.05175 0.86592 0.0
H1063 H 0.31681 0.04758 0.9175 0.0
H1064 H 0.36064 0.01101 0.74264 0.0
H1065 H 0.39193 0.04163 0.93901 0.0
H1066 H 0.36953 0.03263 0.9401 0.0
H1067 H 0.37373 0.05468 0.91073 0.0
C1068 C 0.32392 1.00448 0.87438 0.0
C1069 C 0.31525 0.01893 0.90212 0.0
C1070 C 0.34054 0.00676 0.84719 0.0
C1071 C 0.34889 0.02363 0.8456 0.0
C1072 C 0.33955 0.03843 0.86857 0.0
H1073 H 0.44795 0.03243 0.6353 0.0
H1074 H 0.41693 0.0348 0.66883 0.0
C1075 C 0.32304 0.03608 0.89715 0.0
C1076 C 0.3675 0.02533 0.82149 0.0
H1077 H 0.4099 0.03975 0.85442 0.0
C1078 C 0.37139 0.01731 0.76721 0.0
C1079 C 0.38174 0.03326 0.85366 0.0
C1080 C 0.3791 0.04087 0.91432 0.0
C1081 C 0.38898 0.01664 0.74497 0.0
C1082 C 0.40311 0.02505 0.77633 0.0
C1083 C 0.39915 0.0334 0.82997 0.0
C1084 C 0.4222 0.02462 0.75611 0.0
C1085 C 0.39223 0.00608 0.68958 0.0
C1086 C 0.43587 0.01906 0.79462 0.0
C1087 C 0.45375 0.01832 0.77608 0.0
C1088 C 0.45838 0.02286 0.71829 0.0
C1089 C 0.44479 0.02867 0.67996 0.0
C1090 C 0.42697 0.02983 0.69896 0.0
H1091 H 0.38149 0.99601 0.6819 0.0
H1092 H 0.3923 0.01534 0.65153 0.0
H1093 H 0.40528 0.99898 0.69122 0.0
H1094 H 0.43268 0.01499 0.83897 0.0
H1095 H 0.46388 0.01369 0.80658 0.0
H1096 H 0.52679 0.31636 0.86313 0.0
H1097 H 0.52494 0.34631 0.81941 0.0
H1098 H 0.47463 0.35518 0.90722 0.0
H1099 H 0.4765 0.32535 0.95175 0.0
H1100 H 0.49799 0.36401 0.74907 0.0
H1101 H 0.50749 0.39628 0.96634 0.0
H1102 H 0.51203 0.37284 0.95394 0.0
H1103 H 0.48934 0.38046 0.96163 0.0
C1104 C 0.51525 0.32463 0.87276 0.0
C1105 C 0.50186 0.31848 0.91139 0.0
C1106 C 0.51418 0.34173 0.84758 0.0
C1107 C 0.49982 0.35313 0.8609 0.0
C1108 C 0.48599 0.34672 0.89703 0.0
H1109 H 0.48317 0.46752 0.79662 0.0
H1110 H 0.48034 0.43617 0.82771 0.0
C1111 C 0.48698 0.32957 0.92197 0.0
C1112 C 0.49982 0.37199 0.83937 0.0
H1113 H 0.50281 0.41544 0.88579 0.0
C1114 C 0.49906 0.37528 0.77885 0.0
C1115 C 0.50116 0.38669 0.87832 0.0
C1116 C 0.5027 0.38399 0.94367 0.0
C1117 C 0.49944 0.39285 0.75623 0.0
C1118 C 0.50096 0.40758 0.79522 0.0
C1119 C 0.50157 0.40423 0.85579 0.0
C1120 C 0.5023 0.42655 0.77444 0.0
C1121 C 0.49793 0.39539 0.69082 0.0
C1122 C 0.51572 0.43174 0.73477 0.0
C1123 C 0.51726 0.44961 0.71669 0.0
C1124 C 0.50557 0.46281 0.73837 0.0
C1125 C 0.49235 0.4577 0.77894 0.0
C1126 C 0.49071 0.43976 0.79665 0.0
H1127 H 0.49123 0.38378 0.66958 0.0
H1128 H 0.49036 0.40774 0.67976 0.0
H1129 H 0.51158 0.39654 0.67199 0.0
H1130 H 0.52527 0.42205 0.71846 0.0
H1131 H 0.5279 0.45315 0.68662 0.0
H1132 H 0.19067 0.48568 1.0031 0.0
H1133 H 0.16271 0.48957 0.94951 0.0
H1134 H 0.19218 0.5058 0.79605 0.0
H1135 H 0.22054 0.50143 0.84936 0.0
H1136 H 0.14955 0.52093 0.89696 0.0
H1137 H 0.15819 0.46663 0.7322 0.0
H1138 H 0.17124 0.46748 0.79889 0.0
H1139 H 0.17615 0.48259 0.73988 0.0
C1140 C 0.19133 0.48979 0.95765 0.0
C1141 C 0.20797 0.49294 0.93038 0.0
C1142 C 0.17525 0.49216 0.92716 0.0
C1143 C 0.17528 0.49773 0.86846 0.0
C1144 C 0.19181 0.50117 0.84101 0.0
H1145 H 0.07913 0.51165 0.64636 0.0
H1146 H 0.11037 0.51068 0.68021 0.0
C1147 C 0.20801 0.49883 0.87171 0.0
C1148 C 0.15784 0.5002 0.83744 0.0
H1149 H 0.13102 0.48257 0.73003 0.0
C1150 C 0.14557 0.51263 0.86017 0.0
C1151 C 0.15264 0.48946 0.78913 0.0
C1152 C 0.16514 0.47569 0.76353 0.0
C1153 C 0.12819 0.51433 0.83697 0.0
C1154 C 0.1227 0.50303 0.79045 0.0
C1155 C 0.13517 0.4911 0.76604 0.0
C1156 C 0.10382 0.50287 0.76884 0.0
C1157 C 0.1158 0.52819 0.86272 0.0
C1158 C 0.08977 0.49821 0.80684 0.0
C1159 C 0.07194 0.49849 0.78755 0.0
C1160 C 0.06771 0.50349 0.72972 0.0
C1161 C 0.08185 0.50785 0.69131 0.0
C1162 C 0.09973 0.50734 0.71056 0.0
H1163 H 0.12338 0.53897 0.88547 0.0
H1164 H 0.10727 0.53435 0.82828 0.0
H1165 H 0.1069 0.52167 0.89533 0.0
H1166 H 0.09259 0.49435 0.85167 0.0
H1167 H 0.06147 0.49498 0.81832 0.0
H1168 H 0.02262 0.81304 0.40222 0.0
H1169 H 0.02659 0.84178 0.45232 0.0
H1170 H 0.96924 0.84746 0.46542 0.0
H1171 H 0.96518 0.81849 0.41767 0.0
H1172 H 0.01577 0.87382 0.41181 0.0
H1173 H 0.98384 0.86272 0.62777 0.0
H1174 H 0.99079 0.84446 0.58118 0.0
H1175 H 0.96997 0.85589 0.56761 0.0
C1176 C 0.01085 0.82013 0.4173 0.0
C1177 C 0.99357 0.81338 0.40562 0.0
C1178 C 0.01314 0.83667 0.44559 0.0
C1179 C 0.99824 0.84681 0.46335 0.0
C1180 C 0.981 0.83982 0.45344 0.0
H1181 H 0.99242 0.96258 0.49651 0.0
H1182 H 0.99115 0.93123 0.46538 0.0
C1183 C 0.97869 0.82329 0.42531 0.0
C1184 C 1.00061 0.86533 0.48714 0.0
H1185 H 0.9887 0.89311 0.5997 0.0
C1186 C 0.00998 0.87796 0.45319 0.0
C1187 C 0.99328 0.8708 0.5415 0.0
C1188 C 0.98407 0.85772 0.58196 0.0
C1189 C 0.01174 0.89593 0.47103 0.0
C1190 C 1.00357 0.90163 0.52379 0.0
C1191 C 0.99473 0.88887 0.55881 0.0
C1192 C 1.00402 0.92074 0.54325 0.0
C1193 C 0.02253 0.90858 0.43333 0.0
C1194 C 0.01116 0.92536 0.5982 0.0
C1195 C 0.01165 0.94328 0.61648 0.0
C1196 C 1.00505 0.95704 0.58019 0.0
C1197 C 0.99776 0.95238 0.5254 0.0
C1198 C 0.99713 0.93443 0.50736 0.0
H1199 H 0.03219 0.90123 0.40525 0.0
H1200 H 0.01333 0.91609 0.40407 0.0
H1201 H 0.03008 0.91837 0.46047 0.0
H1202 H 0.01658 0.91509 0.62671 0.0
H1203 H 0.01741 0.94638 0.65878 0.0
H1204 H 0.69832 0.0137 0.34655 0.0
H1205 H 0.6688 0.0179 0.39085 0.0
H1206 H 0.68161 0.97867 0.52311 0.0
H1207 H 0.71117 0.9744 0.47906 0.0
H1208 H 0.64923 0.97203 0.47193 0.0
H1209 H 0.65287 0.0433 0.53899 0.0
H1210 H 0.65815 0.03977 0.46318 0.0
H1211 H 0.67249 0.03059 0.51902 0.0
C1212 C 0.69506 0.00629 0.38595 0.0
C1213 C 0.70719 0.99371 0.4092 0.0
C1214 C 0.67811 0.00869 0.41124 0.0
C1215 C 0.67296 0.99871 0.4607 0.0
C1216 C 0.68523 0.98652 0.48495 0.0
H1217 H 0.57744 0.01582 0.67266 0.0
H1218 H 0.60797 0.0129 0.63557 0.0
C1219 C 0.70214 0.98408 0.45965 0.0
C1220 C 0.65444 1.00014 0.48499 0.0
H1221 H 0.624 0.02962 0.54151 0.0
C1222 C 0.64375 0.98462 0.48736 0.0
C1223 C 0.6473 0.01651 0.50571 0.0
C1224 C 0.65834 0.03346 0.50721 0.0
C1225 C 0.6261 0.98506 0.50896 0.0
C1226 C 0.61875 1.00155 0.52788 0.0
C1227 C 0.62953 0.01701 0.52643 0.0
C1228 C 0.60003 1.00297 0.55035 0.0
C1229 C 0.6156 0.96779 0.51232 0.0
C1230 C 0.58528 0.99844 0.51485 0.0
C1231 C 0.56772 1.00004 0.53609 0.0
C1232 C 0.5645 0.00635 0.59322 0.0
C1233 C 0.57933 0.01091 0.62853 0.0
C1234 C 0.59685 0.00928 0.60731 0.0
H1235 H 0.62452 0.9559 0.51114 0.0
H1236 H 0.60744 0.96721 0.55293 0.0
H1237 H 0.60638 0.96696 0.47422 0.0
H1238 H 0.58734 0.99387 0.47035 0.0
H1239 H 0.55668 0.99653 0.50743 0.0
H1240 H 0.53543 0.71546 0.43923 0.0
H1241 H 0.53907 0.68602 0.48616 0.0
H1242 H 0.48711 0.66993 0.42155 0.0
H1243 H 0.48331 0.6992 0.37592 0.0
H1244 H 0.49055 0.66104 0.5334 0.0
H1245 H 0.55097 0.63838 0.41326 0.0
H1246 H 0.55395 0.65914 0.45172 0.0
H1247 H 0.53839 0.65791 0.39158 0.0
C1248 C 0.52486 0.70558 0.43486 0.0
C1249 C 0.50901 0.70977 0.40429 0.0
C1250 C 0.52698 0.68871 0.46146 0.0
C1251 C 0.51344 0.67559 0.45702 0.0
C1252 C 0.49773 0.67977 0.42598 0.0
H1253 H 0.51859 0.5609 0.51596 0.0
H1254 H 0.51854 0.59143 0.47686 0.0
C1255 C 0.49555 0.69658 0.40002 0.0
C1256 C 0.51516 0.65764 0.48557 0.0
H1257 H 0.54051 0.61951 0.48938 0.0
C1258 C 0.50151 0.65199 0.52382 0.0
C1259 C 0.52933 0.64568 0.47266 0.0
C1260 C 0.54391 0.65046 0.42966 0.0
C1261 C 0.50151 0.63477 0.54893 0.0
C1262 C 0.51586 0.62291 0.53694 0.0
C1263 C 0.52958 0.6286 0.49902 0.0
C1264 C 0.5165 0.60435 0.56146 0.0
C1265 C 0.48574 0.62927 0.5863 0.0
C1266 C 0.5157 0.60132 0.62219 0.0
C1267 C 0.51551 0.58384 0.64465 0.0
C1268 C 0.51645 0.56894 0.60699 0.0
C1269 C 0.51784 0.57201 0.54632 0.0
C1270 C 0.51783 0.5895 0.52385 0.0
H1271 H 0.47378 0.63769 0.57738 0.0
H1272 H 0.48207 0.61503 0.57875 0.0
H1273 H 0.48929 0.63093 0.63321 0.0
H1274 H 0.5152 0.61249 0.65238 0.0
H1275 H 0.51474 0.58202 0.69161 0.0
H1276 H 0.81512 0.48892 0.43389 0.0
H1277 H 0.84395 0.48608 0.48499 0.0
H1278 H 0.85066 0.54344 0.47958 0.0
H1279 H 0.82182 0.54639 0.4294 0.0
H1280 H 0.87689 0.49745 0.43663 0.0
H1281 H 0.86473 0.53115 0.64943 0.0
H1282 H 0.84681 0.52224 0.60468 0.0
H1283 H 0.85697 0.54338 0.58657 0.0
C1284 C 0.8225 0.50096 0.44498 0.0
C1285 C 0.81613 0.51789 0.42744 0.0
C1286 C 0.83905 0.49931 0.47386 0.0
C1287 C 0.84946 0.51455 0.48658 0.0
C1288 C 0.84279 0.53149 0.47115 0.0
H1289 H 0.96471 0.5255 0.52553 0.0
H1290 H 0.93339 0.52566 0.49304 0.0
C1291 C 0.82634 0.53315 0.44199 0.0
C1292 C 0.86794 0.51272 0.51095 0.0
H1293 H 0.89521 0.52612 0.62337 0.0
C1294 C 0.88085 0.50358 0.47775 0.0
C1295 C 0.87311 0.52056 0.56488 0.0
C1296 C 0.85967 0.52975 0.60386 0.0
C1297 C 0.89885 0.50256 0.49597 0.0
C1298 C 0.90421 0.51113 0.54849 0.0
C1299 C 0.89117 0.51973 0.58278 0.0
C1300 C 0.92327 0.5113 0.56852 0.0
C1301 C 0.91197 0.49223 0.4589 0.0
C1302 C 0.92803 0.50353 0.62233 0.0
C1303 C 0.9459 0.50368 0.64143 0.0
C1304 C 0.95948 0.51146 0.60699 0.0
C1305 C 0.95466 0.51931 0.55314 0.0
C1306 C 0.93674 0.51932 0.53432 0.0
H1307 H 0.90503 0.48265 0.42925 0.0
H1308 H 0.91971 0.50175 0.43139 0.0
H1309 H 0.92158 0.48468 0.48671 0.0
H1310 H 0.91793 0.4971 0.64912 0.0
H1311 H 0.94913 0.49743 0.68283 0.0
loop_
_geom_bond_atom_site_label_1
_geom_bond_atom_site_label_2
_geom_bond_distance
_geom_bond_site_symmetry_2
_ccdc_geom_bond_type
C0 C1 1.384 . S
C0 H13 0.947 . S
C0 C35 1.382 . S
C1 C0 1.384 . S
C1 C2 1.378 . S
C2 C1 1.378 . S
C2 C3 1.378 . S
C2 H14 0.952 . S
C3 C2 1.378 . S
C3 H15 0.950 . S
C3 C34 1.383 . S
H4 C23 0.947 . S
H5 C24 0.946 . S
H6 C26 0.953 . S
H7 C27 0.945 . S
H8 C29 0.952 . S
H9 C30 0.949 . S
H10 C32 0.950 . S
H11 C33 0.948 . S
H12 C35 0.951 . S
H13 C0 0.947 . S
H14 C2 0.952 . S
H15 C3 0.950 . S
N16 C19 1.382 . S
N16 C21 1.363 . S
N17 C19 1.371 . S
N17 C20 1.372 . S
N18 C20 1.361 . S
N18 C21 1.377 . S
C19 N16 1.382 . S
C19 N17 1.371 . S
C19 C22 1.480 . S
C20 N17 1.372 . S
C20 N18 1.361 . S
C20 C28 1.457 . S
C21 N16 1.363 . S
C21 N18 1.377 . S
C21 C34 1.479 . S
C22 C19 1.480 . S
C22 C23 1.383 . S
C22 C27 1.385 . S
C23 H4 0.947 . S
C23 C22 1.383 . S
C23 C24 1.388 . S
C24 H5 0.946 . S
C24 C23 1.388 . S
C24 C25 1.384 . S
C25 C24 1.384 . S
C25 C26 1.377 . S
C26 H6 0.953 . S
C26 C25 1.377 . S
C26 C27 1.369 . S
C27 H7 0.945 . S
C27 C22 1.385 . S
C27 C26 1.369 . S
C28 C20 1.457 . S
C28 C29 1.372 . S
C28 C33 1.364 . S
C29 H8 0.952 . S
C29 C28 1.372 . S
C29 C30 1.389 . S
C30 H9 0.949 . S
C30 C29 1.389 . S
C30 C31 1.387 . S
C31 C30 1.387 . S
C31 C32 1.372 . S
C32 H10 0.950 . S
C32 C31 1.372 . S
C32 C33 1.379 . S
C33 H11 0.948 . S
C33 C28 1.364 . S
C33 C32 1.379 . S
C34 C3 1.383 . S
C34 C21 1.479 . S
C34 C35 1.398 . S
C35 C0 1.382 . S
C35 H12 0.951 . S
C35 C34 1.398 . S
C36 C37 1.381 1_655 S
C36 H49 0.948 . S
C36 C71 1.382 1_655 S
C37 C36 1.381 1_455 S
C37 C38 1.388 . S
C38 C37 1.388 . S
C38 C39 1.378 . S
C38 H50 0.952 . S
C39 C38 1.378 . S
C39 H51 0.950 . S
C39 C70 1.383 . S
H40 C59 0.947 . S
H41 C60 0.952 . S
H42 C62 0.953 . S
H43 C63 0.945 . S
H44 C65 0.949 1_655 S
H45 C66 0.956 . S
H46 C68 0.950 . S
H47 C69 0.948 . S
H48 C71 0.952 1_655 S
H49 C36 0.948 . S
H50 C38 0.952 . S
H51 C39 0.950 . S
N52 C55 1.382 . S
N52 C57 1.363 . S
N53 C55 1.371 . S
N53 C56 1.372 . S
N54 C56 1.361 . S
N54 C57 1.377 . S
C55 N52 1.382 . S
C55 N53 1.371 . S
C55 C58 1.480 . S
C56 N53 1.372 . S
C56 N54 1.361 . S
C56 C64 1.457 . S
C57 N52 1.363 . S
C57 N54 1.377 . S
C57 C70 1.479 . S
C58 C55 1.480 . S
C58 C59 1.383 . S
C58 C63 1.385 . S
C59 H40 0.947 . S
C59 C58 1.383 . S
C59 C60 1.386 1_455 S
C60 H41 0.952 . S
C60 C59 1.386 1_655 S
C60 C61 1.381 1_655 S
C61 C60 1.381 1_455 S
C61 C62 1.377 . S
C62 H42 0.953 . S
C62 C61 1.377 . S
C62 C63 1.369 . S
C63 H43 0.945 . S
C63 C58 1.385 . S
C63 C62 1.369 . S
C64 C56 1.457 . S
C64 C65 1.375 . S
C64 C69 1.364 . S
C65 H44 0.949 1_455 S
C65 C64 1.375 . S
C65 C66 1.386 1_455 S
C66 H45 0.956 . S
C66 C65 1.386 1_655 S
C66 C67 1.383 1_655 S
C67 C66 1.383 1_455 S
C67 C68 1.372 . S
C68 H46 0.950 . S
C68 C67 1.372 . S
C68 C69 1.379 . S
C69 H47 0.948 . S
C69 C64 1.364 . S
C69 C68 1.379 . S
C70 C39 1.383 . S
C70 C57 1.479 . S
C70 C71 1.397 . S
C71 C36 1.382 1_455 S
C71 H48 0.952 1_455 S
C71 C70 1.397 . S
C72 C73 1.384 . S
C72 H85 0.947 . S
C72 C107 1.382 . S
C73 C72 1.384 . S
C73 C74 1.379 1_565 S
C74 C73 1.379 1_545 S
C74 C75 1.377 . S
C74 H86 0.952 . S
C75 C74 1.377 . S
C75 H87 0.950 . S
C75 C106 1.378 1_545 S
H76 C95 0.947 . S
H77 C96 0.946 . S
H78 C98 0.953 . S
H79 C99 0.945 . S
H80 C101 0.952 . S
H81 C102 0.949 . S
H82 C104 0.950 . S
H83 C105 0.948 . S
H84 C107 0.951 . S
H85 C72 0.947 . S
H86 C74 0.952 . S
H87 C75 0.950 . S
N88 C91 1.382 . S
N88 C93 1.364 . S
N89 C91 1.368 1_565 S
N89 C92 1.367 1_565 S
N90 C92 1.362 . S
N90 C93 1.378 . S
C91 N88 1.382 . S
C91 N89 1.368 1_545 S
C91 C94 1.479 . S
C92 N89 1.367 1_545 S
C92 N90 1.362 . S
C92 C100 1.457 . S
C93 N88 1.364 . S
C93 N90 1.378 . S
C93 C106 1.476 1_545 S
C94 C91 1.479 . S
C94 C95 1.383 1_545 S
C94 C99 1.384 . S
C95 H76 0.947 . S
C95 C94 1.383 1_565 S
C95 C96 1.388 . S
C96 H77 0.946 . S
C96 C95 1.388 . S
C96 C97 1.384 . S
C97 C96 1.384 . S
C97 C98 1.376 1_565 S
C98 H78 0.953 . S
C98 C97 1.376 1_545 S
C98 C99 1.370 . S
C99 H79 0.945 . S
C99 C94 1.384 . S
C99 C98 1.370 . S
C100 C92 1.457 . S
C100 C101 1.372 1_545 S
C100 C105 1.364 . S
C101 H80 0.952 . S
C101 C100 1.372 1_565 S
C101 C102 1.389 . S
C102 H81 0.949 . S
C102 C101 1.389 . S
C102 C103 1.387 . S
C103 C102 1.387 . S
C103 C104 1.372 1_565 S
C104 H82 0.950 . S
C104 C103 1.372 1_545 S
C104 C105 1.379 . S
C105 H83 0.948 . S
C105 C100 1.364 . S
C105 C104 1.379 . S
C106 C75 1.378 1_565 S
C106 C93 1.476 1_565 S
C106 C107 1.405 . S
C107 C72 1.382 . S
C107 H84 0.951 . S
C107 C106 1.405 . S
C108 C109 1.384 . S
C108 H121 0.947 . S
C108 C143 1.382 . S
C109 C108 1.384 . S
C109 C110 1.378 . S
C110 C109 1.378 . S
C110 C111 1.378 . S
C110 H122 0.952 . S
C111 C110 1.378 . S
C111 H123 0.950 . S
C111 C142 1.383 . S
H112 C131 0.947 . S
H113 C132 0.946 . S
H114 C134 0.953 . S
H115 C135 0.945 . S
H116 C137 0.952 . S
H117 C138 0.949 . S
H118 C140 0.950 . S
H119 C141 0.948 . S
H120 C143 0.951 . S
H121 C108 0.947 . S
H122 C110 0.952 . S
H123 C111 0.950 . S
N124 C127 1.382 . S
N124 C129 1.363 . S
N125 C127 1.371 . S
N125 C128 1.372 . S
N126 C128 1.361 . S
N126 C129 1.377 . S
C127 N124 1.382 . S
C127 N125 1.371 . S
C127 C130 1.480 . S
C128 N125 1.372 . S
C128 N126 1.361 . S
C128 C136 1.457 . S
C129 N124 1.363 . S
C129 N126 1.377 . S
C129 C142 1.479 . S
C130 C127 1.480 . S
C130 C131 1.383 . S
C130 C135 1.385 . S
C131 H112 0.947 . S
C131 C130 1.383 . S
C131 C132 1.388 . S
C132 H113 0.946 . S
C132 C131 1.388 . S
C132 C133 1.384 . S
C133 C132 1.384 . S
C133 C134 1.377 . S
C134 H114 0.953 . S
C134 C133 1.377 . S
C134 C135 1.369 . S
C135 H115 0.945 . S
C135 C130 1.385 . S
C135 C134 1.369 . S
C136 C128 1.457 . S
C136 C137 1.372 . S
C136 C141 1.364 . S
C137 H116 0.952 . S
C137 C136 1.372 . S
C137 C138 1.389 . S
C138 H117 0.949 . S
C138 C137 1.389 . S
C138 C139 1.387 . S
C139 C138 1.387 . S
C139 C140 1.372 . S
C140 H118 0.950 . S
C140 C139 1.372 . S
C140 C141 1.379 . S
C141 H119 0.948 . S
C141 C136 1.364 . S
C141 C140 1.379 . S
C142 C111 1.383 . S
C142 C129 1.479 . S
C142 C143 1.398 . S
C143 C108 1.382 . S
C143 H120 0.951 . S
C143 C142 1.398 . S
C144 C145 1.384 . S
C144 H157 0.947 . S
C144 C179 1.382 . S
C145 C144 1.384 . S
C145 C146 1.378 . S
C146 C145 1.378 . S
C146 C147 1.378 . S
C146 H158 0.952 . S
C147 C146 1.378 . S
C147 H159 0.950 . S
C147 C178 1.383 . S
H148 C167 0.947 1_556 S
H149 C168 0.946 . S
H150 C170 0.953 . S
H151 C171 0.945 . S
H152 C173 0.952 . S
H153 C174 0.949 . S
H154 C176 0.950 . S
H155 C177 0.948 . S
H156 C179 0.951 . S
H157 C144 0.947 . S
H158 C146 0.952 . S
H159 C147 0.950 . S
N160 C163 1.382 1_556 S
N160 C165 1.363 . S
N161 C163 1.371 . S
N161 C164 1.372 . S
N162 C164 1.361 . S
N162 C165 1.377 1_554 S
C163 N160 1.382 1_554 S
C163 N161 1.371 . S
C163 C166 1.480 . S
C164 N161 1.372 . S
C164 N162 1.361 . S
C164 C172 1.457 . S
C165 N160 1.363 . S
C165 N162 1.377 1_556 S
C165 C178 1.479 . S
C166 C163 1.480 . S
C166 C167 1.383 . S
C166 C171 1.385 . S
C167 H148 0.947 1_554 S
C167 C166 1.383 . S
C167 C168 1.388 . S
C168 H149 0.946 . S
C168 C167 1.388 . S
C168 C169 1.384 . S
C169 C168 1.384 . S
C169 C170 1.377 . S
C170 H150 0.953 . S
C170 C169 1.377 . S
C170 C171 1.369 . S
C171 H151 0.945 . S
C171 C166 1.385 . S
C171 C170 1.369 . S
C172 C164 1.457 . S
C172 C173 1.372 . S
C172 C177 1.364 . S
C173 H152 0.952 . S
C173 C172 1.372 . S
C173 C174 1.389 . S
C174 H153 0.949 . S
C174 C173 1.389 . S
C174 C175 1.387 . S
C175 C174 1.387 . S
C175 C176 1.372 . S
C176 H154 0.950 . S
C176 C175 1.372 . S
C176 C177 1.379 . S
C177 H155 0.948 . S
C177 C172 1.364 . S
C177 C176 1.379 . S
C178 C147 1.383 . S
C178 C165 1.479 . S
C178 C179 1.398 . S
C179 C144 1.382 . S
C179 H156 0.951 . S
C179 C178 1.398 . S
C180 C181 1.384 . S
C180 H193 0.948 1_455 S
C180 C215 1.382 . S
C181 C180 1.384 . S
C181 C182 1.378 . S
C182 C181 1.378 . S
C182 C183 1.378 . S
C182 H194 0.952 . S
C183 C182 1.378 . S
C183 H195 0.950 . S
C183 C214 1.383 . S
H184 C203 0.947 1_556 S
H185 C204 0.948 . S
H186 C206 0.953 . S
H187 C207 0.945 . S
H188 C209 0.947 1_655 S
H189 C210 0.953 . S
H190 C212 0.950 . S
H191 C213 0.948 . S
H192 C215 0.950 1_655 S
H193 C180 0.948 1_655 S
H194 C182 0.952 . S
H195 C183 0.950 . S
N196 C199 1.382 1_556 S
N196 C201 1.363 . S
N197 C199 1.371 . S
N197 C200 1.372 . S
N198 C200 1.361 . S
N198 C201 1.377 1_554 S
C199 N196 1.382 1_554 S
C199 N197 1.371 . S
C199 C202 1.480 . S
C200 N197 1.372 . S
C200 N198 1.361 . S
C200 C208 1.457 . S
C201 N196 1.363 . S
C201 N198 1.377 1_556 S
C201 C214 1.479 . S
C202 C199 1.480 . S
C202 C203 1.383 . S
C202 C207 1.385 . S
C203 H184 0.947 1_554 S
C203 C202 1.383 . S
C203 C204 1.387 1_455 S
C204 H185 0.948 . S
C204 C203 1.387 1_655 S
C204 C205 1.383 1_655 S
C205 C204 1.383 1_455 S
C205 C206 1.377 . S
C206 H186 0.953 . S
C206 C205 1.377 . S
C206 C207 1.369 . S
C207 H187 0.945 . S
C207 C202 1.385 . S
C207 C206 1.369 . S
C208 C200 1.457 . S
C208 C209 1.379 . S
C208 C213 1.364 . S
C209 H188 0.947 1_455 S
C209 C208 1.379 . S
C209 C210 1.387 1_455 S
C210 H189 0.953 . S
C210 C209 1.387 1_655 S
C210 C211 1.384 1_655 S
C211 C210 1.384 1_455 S
C211 C212 1.372 . S
C212 H190 0.950 . S
C212 C211 1.372 . S
C212 C213 1.379 . S
C213 H191 0.948 . S
C213 C208 1.364 . S
C213 C212 1.379 . S
C214 C183 1.383 . S
C214 C201 1.479 . S
C214 C215 1.399 . S
C215 C180 1.382 . S
C215 H192 0.950 1_455 S
C215 C214 1.399 . S
C216 C217 1.384 . S
C216 H229 0.947 . S
C216 C251 1.382 . S
C217 C216 1.384 . S
C217 C218 1.378 . S
C218 C217 1.378 . S
C218 C219 1.378 . S
C218 H230 0.952 . S
C219 C218 1.378 . S
C219 H231 0.950 . S
C219 C250 1.383 . S
H220 C239 0.947 1_556 S
H221 C240 0.946 . S
H222 C242 0.953 . S
H223 C243 0.945 . S
H224 C245 0.952 . S
H225 C246 0.949 . S
H226 C248 0.950 . S
H227 C249 0.948 . S
H228 C251 0.951 . S
H229 C216 0.947 . S
H230 C218 0.952 . S
H231 C219 0.950 . S
N232 C235 1.382 1_556 S
N232 C237 1.363 . S
N233 C235 1.371 . S
N233 C236 1.372 . S
N234 C236 1.361 . S
N234 C237 1.377 1_554 S
C235 N232 1.382 1_554 S
C235 N233 1.371 . S
C235 C238 1.480 . S
C236 N233 1.372 . S
C236 N234 1.361 . S
C236 C244 1.457 . S
C237 N232 1.363 . S
C237 N234 1.377 1_556 S
C237 C250 1.479 . S
C238 C235 1.480 . S
C238 C239 1.383 . S
C238 C243 1.385 . S
C239 H220 0.947 1_554 S
C239 C238 1.383 . S
C239 C240 1.388 . S
C240 H221 0.946 . S
C240 C239 1.388 . S
C240 C241 1.384 . S
C241 C240 1.384 . S
C241 C242 1.377 . S
C242 H222 0.953 . S
C242 C241 1.377 . S
C242 C243 1.369 . S
C243 H223 0.945 . S
C243 C238 1.385 . S
C243 C242 1.369 . S
C244 C236 1.457 . S
C244 C245 1.372 . S
C244 C249 1.364 . S
C245 H224 0.952 . S
C245 C244 1.372 . S
C245 C246 1.389 . S
C246 H225 0.949 . S
C246 C245 1.389 . S
C246 C247 1.387 . S
C247 C246 1.387 . S
C247 C248 1.372 . S
C248 H226 0.950 . S
C248 C247 1.372 . S
C248 C249 1.379 . S
C249 H227 0.948 . S
C249 C244 1.364 . S
C249 C248 1.379 . S
C250 C219 1.383 . S
C250 C237 1.479 . S
C250 C251 1.398 . S
C251 C216 1.382 . S
C251 H228 0.951 . S
C251 C250 1.398 . S
C252 C253 1.384 . S
C252 H265 0.947 . S
C252 C287 1.382 . S
C253 C252 1.384 . S
C253 C254 1.378 . S
C254 C253 1.378 . S
C254 C255 1.378 . S
C254 H266 0.952 . S
C255 C254 1.378 . S
C255 H267 0.950 . S
C255 C286 1.383 . S
H256 C275 0.947 . S
H257 C276 0.946 . S
H258 C278 0.960 . S
H259 C279 0.945 1_556 S
H260 C281 0.952 . S
H261 C282 0.949 . S
H262 C284 0.950 . S
H263 C285 0.948 . S
H264 C287 0.951 . S
H265 C252 0.947 . S
H266 C254 0.952 . S
H267 C255 0.950 . S
N268 C271 1.382 . S
N268 C273 1.363 . S
N269 C271 1.371 1_556 S
N269 C272 1.372 . S
N270 C272 1.361 1_554 S
N270 C273 1.377 . S
C271 N268 1.382 . S
C271 N269 1.371 1_554 S
C271 C274 1.480 . S
C272 N269 1.372 . S
C272 N270 1.361 1_556 S
C272 C280 1.457 . S
C273 N268 1.363 . S
C273 N270 1.377 . S
C273 C286 1.479 . S
C274 C271 1.480 . S
C274 C275 1.383 . S
C274 C279 1.385 . S
C275 H256 0.947 . S
C275 C274 1.383 . S
C275 C276 1.388 . S
C276 H257 0.946 . S
C276 C275 1.388 . S
C276 C277 1.384 . S
C277 C276 1.384 . S
C277 C278 1.377 . S
C278 H258 0.960 . S
C278 C277 1.377 . S
C278 C279 1.369 . S
C279 H259 0.945 1_554 S
C279 C274 1.385 . S
C279 C278 1.369 . S
C280 C272 1.457 . S
C280 C281 1.372 . S
C280 C285 1.364 . S
C281 H260 0.952 . S
C281 C280 1.372 . S
C281 C282 1.389 . S
C282 H261 0.949 . S
C282 C281 1.389 . S
C282 C283 1.387 . S
C283 C282 1.387 . S
C283 C284 1.372 . S
C284 H262 0.950 . S
C284 C283 1.372 . S
C284 C285 1.379 . S
C285 H263 0.948 . S
C285 C280 1.364 . S
C285 C284 1.379 . S
C286 C255 1.383 . S
C286 C273 1.479 . S
C286 C287 1.398 . S
C287 C252 1.382 . S
C287 H264 0.951 . S
C287 C286 1.398 . S
La288 C290 2.928 . S
La288 O308 2.521 . S
La288 O309 2.628 . S
La288 O310 2.554 . S
La288 O311 2.757 1_565 S
La288 O312 2.470 . S
La288 O317 2.482 1_455 S
La288 O319 2.503 1_565 S
La289 C299 2.928 . S
La289 O311 2.482 1_655 S
La289 O313 2.503 1_545 S
La289 O314 2.521 . S
La289 O315 2.628 . S
La289 O316 2.554 . S
La289 O317 2.757 1_545 S
La289 O318 2.470 . S
C290 La288 2.928 . S
C290 C291 1.503 . S
C290 O308 1.261 . S
C290 O309 1.243 . S
C291 C290 1.503 . S
C291 C292 1.394 . S
C291 C296 1.373 . S
C292 C291 1.394 . S
C292 C293 1.380 . S
C292 H320 0.930 . S
C293 C292 1.380 . S
C293 C294 1.376 . S
C293 H321 0.930 . S
C294 C293 1.376 . S
C294 C295 1.370 . S
C295 C294 1.370 . S
C295 C296 1.396 . S
C295 H322 0.929 1_455 S
C296 C291 1.373 . S
C296 C295 1.396 . S
C296 H323 0.929 1_455 S
C297 O310 1.213 1_545 S
C297 O311 1.308 . S
C298 O312 1.258 1_655 S
C298 O313 1.256 . S
C299 La289 2.928 . S
C299 C300 1.503 . S
C299 O314 1.261 . S
C299 O315 1.243 . S
C300 C299 1.503 . S
C300 C301 1.394 . S
C300 C305 1.373 . S
C301 C300 1.394 . S
C301 C302 1.380 . S
C301 H324 0.930 . S
C302 C301 1.380 . S
C302 C303 1.376 . S
C302 H325 0.930 . S
C303 C302 1.376 . S
C303 C304 1.370 . S
C304 C303 1.370 . S
C304 C305 1.396 . S
C304 H326 0.929 1_655 S
C305 C300 1.373 . S
C305 C304 1.396 . S
C305 H327 0.929 1_655 S
C306 O316 1.240 . S
C306 O317 1.289 1_545 S
C307 O318 1.258 1_455 S
C307 O319 1.256 . S
O308 La288 2.521 . S
O308 C290 1.261 . S
O309 La288 2.628 . S
O309 C290 1.243 . S
O310 La288 2.554 . S
O310 C297 1.213 1_565 S
O311 La288 2.757 1_545 S
O311 La289 2.482 1_455 S
O311 C297 1.308 . S
O312 La288 2.470 . S
O312 C298 1.258 1_455 S
O313 La289 2.503 1_565 S
O313 C298 1.256 . S
O314 La289 2.521 . S
O314 C299 1.261 . S
O315 La289 2.628 . S
O315 C299 1.243 . S
O316 La289 2.554 . S
O316 C306 1.240 . S
O317 La288 2.482 1_655 S
O317 La289 2.757 1_565 S
O317 C306 1.289 1_565 S
O318 La289 2.470 . S
O318 C307 1.258 1_655 S
O319 La288 2.503 1_545 S
O319 C307 1.256 . S
H320 C292 0.930 . S
H321 C293 0.930 . S
H322 C295 0.929 1_655 S
H323 C296 0.929 1_655 S
H324 C301 0.930 . S
H325 C302 0.930 . S
H326 C304 0.929 1_455 S
H327 C305 0.929 1_455 S
La328 C330 2.928 . S
La328 O348 2.521 . S
La328 O349 2.628 . S
La328 O350 2.554 . S
La328 O351 2.757 . S
La328 O352 2.470 . S
La328 O357 2.482 1_545 S
La328 O359 2.503 . S
La329 C339 2.928 . S
La329 O351 2.482 1_565 S
La329 O353 2.503 . S
La329 O354 2.521 . S
La329 O355 2.621 1_565 S
La329 O356 2.554 . S
La329 O357 2.757 . S
La329 O358 2.470 . S
C330 La328 2.928 . S
C330 C331 1.503 . S
C330 O348 1.261 . S
C330 O349 1.243 . S
C331 C330 1.503 . S
C331 C332 1.394 . S
C331 C336 1.373 . S
C332 C331 1.394 . S
C332 C333 1.380 . S
C332 H360 0.930 . S
C333 C332 1.380 . S
C333 C334 1.376 . S
C333 H361 0.930 . S
C334 C333 1.376 . S
C334 C335 1.370 . S
C335 C334 1.370 . S
C335 C336 1.396 . S
C335 H362 0.929 1_545 S
C336 C331 1.373 . S
C336 C335 1.396 . S
C336 H363 0.929 1_545 S
C337 O350 1.240 . S
C337 O351 1.289 . S
C338 O352 1.258 1_565 S
C338 O353 1.256 . S
C339 La329 2.928 . S
C339 C340 1.503 . S
C339 O354 1.261 . S
C339 O355 1.225 1_565 S
C340 C339 1.503 . S
C340 C341 1.394 . S
C340 C345 1.373 . S
C341 C340 1.394 . S
C341 C342 1.380 . S
C341 H364 0.930 . S
C342 C341 1.380 . S
C342 C343 1.376 . S
C342 H365 0.930 . S
C343 C342 1.376 . S
C343 C344 1.370 . S
C344 C343 1.370 . S
C344 C345 1.396 . S
C344 H366 0.929 1_565 S
C345 C340 1.373 . S
C345 C344 1.396 . S
C345 H367 0.929 1_565 S
C346 O356 1.240 . S
C346 O357 1.289 . S
C347 O358 1.258 1_545 S
C347 O359 1.256 . S
O348 La328 2.521 . S
O348 C330 1.261 . S
O349 La328 2.628 . S
O349 C330 1.243 . S
O350 La328 2.554 . S
O350 C337 1.240 . S
O351 La328 2.757 . S
O351 La329 2.482 1_545 S
O351 C337 1.289 . S
O352 La328 2.470 . S
O352 C338 1.258 1_545 S
O353 La329 2.503 . S
O353 C338 1.256 . S
O354 La329 2.521 . S
O354 C339 1.261 . S
O355 La329 2.621 1_545 S
O355 C339 1.225 1_545 S
O356 La329 2.554 . S
O356 C346 1.240 . S
O357 La328 2.482 1_565 S
O357 La329 2.757 . S
O357 C346 1.289 . S
O358 La329 2.470 . S
O358 C347 1.258 1_565 S
O359 La328 2.503 . S
O359 C347 1.256 . S
H360 C332 0.930 . S
H361 C333 0.930 . S
H362 C335 0.929 1_565 S
H363 C336 0.929 1_565 S
H364 C341 0.930 . S
H365 C342 0.930 . S
H366 C344 0.929 1_545 S
H367 C345 0.929 1_545 S
La368 C370 2.928 . S
La368 O388 2.521 . S
La368 O389 2.628 . S
La368 O390 2.554 . S
La368 O391 2.757 . S
La368 O392 2.470 . S
La368 O397 2.482 . S
La368 O399 2.503 . S
La369 C379 2.928 . S
La369 O391 2.482 . S
La369 O393 2.503 . S
La369 O394 2.521 . S
La369 O395 2.628 . S
La369 O396 2.554 . S
La369 O397 2.757 . S
La369 O398 2.470 . S
C370 La368 2.928 . S
C370 C371 1.503 . S
C370 O388 1.261 . S
C370 O389 1.243 . S
C371 C370 1.503 . S
C371 C372 1.394 . S
C371 C376 1.373 . S
C372 C371 1.394 . S
C372 C373 1.380 . S
C372 H400 0.930 . S
C373 C372 1.380 . S
C373 C374 1.376 . S
C373 H401 0.930 . S
C374 C373 1.376 . S
C374 C375 1.370 . S
C375 C374 1.370 . S
C375 C376 1.396 . S
C375 H402 0.929 . S
C376 C371 1.373 . S
C376 C375 1.396 . S
C376 H403 0.929 . S
C377 O390 1.240 . S
C377 O391 1.289 . S
C378 O392 1.258 . S
C378 O393 1.256 . S
C379 La369 2.928 . S
C379 C380 1.503 . S
C379 O394 1.261 . S
C379 O395 1.243 . S
C380 C379 1.503 . S
C380 C381 1.394 . S
C380 C385 1.373 . S
C381 C380 1.394 . S
C381 C382 1.380 . S
C381 H404 0.930 . S
C382 C381 1.380 . S
C382 C383 1.376 . S
C382 H405 0.930 . S
C383 C382 1.376 . S
C383 C384 1.370 . S
C384 C383 1.370 . S
C384 C385 1.396 . S
C384 H406 0.929 . S
C385 C380 1.373 . S
C385 C384 1.396 . S
C385 H407 0.929 . S
C386 O396 1.240 . S
C386 O397 1.289 . S
C387 O398 1.258 . S
C387 O399 1.256 . S
O388 La368 2.521 . S
O388 C370 1.261 . S
O389 La368 2.628 . S
O389 C370 1.243 . S
O390 La368 2.554 . S
O390 C377 1.240 . S
O391 La368 2.757 . S
O391 La369 2.482 . S
O391 C377 1.289 . S
O392 La368 2.470 . S
O392 C378 1.258 . S
O393 La369 2.503 . S
O393 C378 1.256 . S
O394 La369 2.521 . S
O394 C379 1.261 . S
O395 La369 2.628 . S
O395 C379 1.243 . S
O396 La369 2.554 . S
O396 C386 1.240 . S
O397 La368 2.482 . S
O397 La369 2.757 . S
O397 C386 1.289 . S
O398 La369 2.470 . S
O398 C387 1.258 . S
O399 La368 2.503 . S
O399 C387 1.256 . S
H400 C372 0.930 . S
H401 C373 0.930 . S
H402 C375 0.929 . S
H403 C376 0.929 . S
H404 C381 0.930 . S
H405 C382 0.930 . S
H406 C384 0.929 . S
H407 C385 0.929 . S
La408 C410 2.928 . S
La408 O428 2.521 . S
La408 O429 2.628 . S
La408 O430 2.554 . S
La408 O431 2.757 1_655 S
La408 O432 2.470 . S
La408 O437 2.482 . S
La408 O439 2.503 1_655 S
La409 C419 2.928 . S
La409 O431 2.482 . S
La409 O433 2.503 1_455 S
La409 O434 2.521 . S
La409 O435 2.628 . S
La409 O436 2.554 . S
La409 O437 2.757 1_455 S
La409 O438 2.470 . S
C410 La408 2.928 . S
C410 C411 1.503 . S
C410 O428 1.261 . S
C410 O429 1.243 . S
C411 C410 1.503 . S
C411 C412 1.394 . S
C411 C416 1.373 . S
C412 C411 1.394 . S
C412 C413 1.380 . S
C412 H440 0.930 . S
C413 C412 1.380 . S
C413 C414 1.376 . S
C413 H441 0.930 . S
C414 C413 1.376 . S
C414 C415 1.370 . S
C415 C414 1.370 . S
C415 C416 1.396 . S
C415 H442 0.929 . S
C416 C411 1.373 . S
C416 C415 1.396 . S
C416 H443 0.929 . S
C417 O430 1.278 . S
C417 O431 1.268 1_655 S
C418 O432 1.258 . S
C418 O433 1.256 . S
C419 La409 2.928 . S
C419 C420 1.503 . S
C419 O434 1.261 . S
C419 O435 1.243 . S
C420 C419 1.503 . S
C420 C421 1.394 . S
C420 C425 1.373 . S
C421 C420 1.394 . S
C421 C422 1.380 . S
C421 H444 0.930 . S
C422 C421 1.380 . S
C422 C423 1.376 . S
C422 H445 0.930 . S
C423 C422 1.376 . S
C423 C424 1.370 . S
C424 C423 1.370 . S
C424 C425 1.396 . S
C424 H446 0.929 . S
C425 C420 1.373 . S
C425 C424 1.396 . S
C425 H447 0.929 . S
C426 O436 1.240 . S
C426 O437 1.289 1_455 S
C427 O438 1.258 . S
C427 O439 1.256 . S
O428 La408 2.521 . S
O428 C410 1.261 . S
O429 La408 2.628 . S
O429 C410 1.243 . S
O430 La408 2.554 . S
O430 C417 1.278 . S
O431 La408 2.757 1_455 S
O431 La409 2.482 . S
O431 C417 1.268 1_455 S
O432 La408 2.470 . S
O432 C418 1.258 . S
O433 La409 2.503 1_655 S
O433 C418 1.256 . S
O434 La409 2.521 . S
O434 C419 1.261 . S
O435 La409 2.628 . S
O435 C419 1.243 . S
O436 La409 2.554 . S
O436 C426 1.240 . S
O437 La408 2.482 . S
O437 La409 2.757 1_655 S
O437 C426 1.289 1_655 S
O438 La409 2.470 . S
O438 C427 1.258 . S
O439 La408 2.503 1_455 S
O439 C427 1.256 . S
H440 C412 0.930 . S
H441 C413 0.930 . S
H442 C415 0.929 . S
H443 C416 0.929 . S
H444 C421 0.930 . S
H445 C422 0.930 . S
H446 C424 0.929 . S
H447 C425 0.929 . S
H448 C456 0.929 . S
H449 C458 0.930 . S
H450 C460 0.930 . S
H451 C463 0.929 . S
H452 C466 0.930 . S
H453 C468 0.960 . S
H454 C468 0.960 . S
H455 C468 0.960 . S
C456 H448 0.929 . S
C456 C457 1.377 . S
C456 C458 1.384 . S
C457 C456 1.377 . S
C457 C463 1.390 1_545 S
C458 H449 0.930 . S
C458 C456 1.384 . S
C458 C459 1.372 . S
C459 C458 1.372 . S
C459 C460 1.400 1_545 S
C459 C464 1.490 . S
C460 H450 0.930 . S
C460 C459 1.400 1_565 S
C460 C463 1.386 . S
H461 C477 0.930 . S
H462 C478 0.931 . S
C463 H451 0.929 . S
C463 C457 1.390 1_565 S
C463 C460 1.386 . S
C464 C459 1.490 . S
C464 C466 1.395 . S
C464 C467 1.403 1_545 S
H465 C471 0.930 . S
C466 H452 0.930 . S
C466 C464 1.395 . S
C466 C469 1.403 . S
C467 C464 1.403 1_565 S
C467 C468 1.524 . S
C467 C471 1.400 . S
C468 H453 0.960 . S
C468 H454 0.960 . S
C468 H455 0.960 . S
C468 C467 1.524 . S
C469 C466 1.403 . S
C469 C470 1.392 . S
C469 C473 1.495 . S
C470 C469 1.392 . S
C470 C471 1.385 1_545 S
C470 C472 1.478 . S
C471 H465 0.930 . S
C471 C467 1.400 . S
C471 C470 1.385 1_565 S
C472 C470 1.478 . S
C472 C474 1.381 . S
C472 C478 1.383 1_545 S
C473 C469 1.495 . S
C473 H479 0.959 . S
C473 H480 0.961 . S
C473 H481 0.960 . S
C474 C472 1.381 . S
C474 C475 1.394 . S
C474 H482 0.930 . S
C475 C474 1.394 . S
C475 C476 1.383 . S
C475 H483 0.929 . S
C476 C475 1.383 . S
C476 C477 1.377 1_545 S
C477 H461 0.930 . S
C477 C476 1.377 1_565 S
C477 C478 1.379 . S
C478 H462 0.931 . S
C478 C472 1.383 1_565 S
C478 C477 1.379 . S
H479 C473 0.959 . S
H480 C473 0.961 . S
H481 C473 0.960 . S
H482 C474 0.930 . S
H483 C475 0.929 . S
H484 C492 0.929 . S
H485 C494 0.930 . S
H486 C496 0.930 . S
H487 C499 0.929 . S
H488 C502 0.930 . S
H489 C504 0.960 . S
H490 C504 0.960 . S
H491 C504 0.960 . S
C492 H484 0.929 . S
C492 C493 1.377 . S
C492 C494 1.384 . S
C493 C492 1.377 . S
C493 C499 1.390 . S
C494 H485 0.930 . S
C494 C492 1.384 . S
C494 C495 1.372 . S
C495 C494 1.372 . S
C495 C496 1.400 . S
C495 C500 1.490 . S
C496 H486 0.930 . S
C496 C495 1.400 . S
C496 C499 1.386 . S
H497 C513 0.930 . S
H498 C514 0.931 . S
C499 H487 0.929 . S
C499 C493 1.390 . S
C499 C496 1.386 . S
C500 C495 1.490 . S
C500 C502 1.395 . S
C500 C503 1.403 . S
H501 C507 0.930 . S
C502 H488 0.930 . S
C502 C500 1.395 . S
C502 C505 1.403 . S
C503 C500 1.403 . S
C503 C504 1.524 . S
C503 C507 1.400 . S
C504 H489 0.960 . S
C504 H490 0.960 . S
C504 H491 0.960 . S
C504 C503 1.524 . S
C505 C502 1.403 . S
C505 C506 1.392 . S
C505 C509 1.495 . S
C506 C505 1.392 . S
C506 C507 1.385 . S
C506 C508 1.478 . S
C507 H501 0.930 . S
C507 C503 1.400 . S
C507 C506 1.385 . S
C508 C506 1.478 . S
C508 C510 1.381 . S
C508 C514 1.383 . S
C509 C505 1.495 . S
C509 H515 0.959 . S
C509 H516 0.961 . S
C509 H517 0.960 . S
C510 C508 1.381 . S
C510 C511 1.394 . S
C510 H518 0.930 . S
C511 C510 1.394 . S
C511 C512 1.383 . S
C511 H519 0.929 . S
C512 C511 1.383 . S
C512 C513 1.377 . S
C513 H497 0.930 . S
C513 C512 1.377 . S
C513 C514 1.379 . S
C514 H498 0.931 . S
C514 C508 1.383 . S
C514 C513 1.379 . S
H515 C509 0.959 . S
H516 C509 0.961 . S
H517 C509 0.960 . S
H518 C510 0.930 . S
H519 C511 0.929 . S
H520 C528 0.929 . S
H521 C530 0.930 . S
H522 C532 0.930 . S
H523 C535 0.929 . S
H524 C538 0.930 . S
H525 C540 0.960 . S
H526 C540 0.960 . S
H527 C540 0.960 . S
C528 H520 0.929 . S
C528 C529 1.377 . S
C528 C530 1.384 . S
C529 C528 1.377 . S
C529 C535 1.390 . S
C530 H521 0.930 . S
C530 C528 1.384 . S
C530 C531 1.372 . S
C531 C530 1.372 . S
C531 C532 1.400 . S
C531 C536 1.490 . S
C532 H522 0.930 . S
C532 C531 1.400 . S
C532 C535 1.386 . S
H533 C549 0.930 . S
H534 C550 0.931 . S
C535 H523 0.929 . S
C535 C529 1.390 . S
C535 C532 1.386 . S
C536 C531 1.490 . S
C536 C538 1.395 . S
C536 C539 1.403 . S
H537 C543 0.930 . S
C538 H524 0.930 . S
C538 C536 1.395 . S
C538 C541 1.403 . S
C539 C536 1.403 . S
C539 C540 1.524 . S
C539 C543 1.400 . S
C540 H525 0.960 . S
C540 H526 0.960 . S
C540 H527 0.960 . S
C540 C539 1.524 . S
C541 C538 1.403 . S
C541 C542 1.392 . S
C541 C545 1.495 . S
C542 C541 1.392 . S
C542 C543 1.385 . S
C542 C544 1.478 . S
C543 H537 0.930 . S
C543 C539 1.400 . S
C543 C542 1.385 . S
C544 C542 1.478 . S
C544 C546 1.381 . S
C544 C550 1.383 . S
C545 C541 1.495 . S
C545 H551 0.959 . S
C545 H552 0.961 . S
C545 H553 0.960 . S
C546 C544 1.381 . S
C546 C547 1.394 . S
C546 H554 0.930 . S
C547 C546 1.394 . S
C547 C548 1.383 . S
C547 H555 0.929 . S
C548 C547 1.383 . S
C548 C549 1.377 . S
C549 H533 0.930 . S
C549 C548 1.377 . S
C549 C550 1.379 . S
C550 H534 0.931 . S
C550 C544 1.383 . S
C550 C549 1.379 . S
H551 C545 0.959 . S
H552 C545 0.961 . S
H553 C545 0.960 . S
H554 C546 0.930 . S
H555 C547 0.929 . S
H556 C564 0.929 . S
H557 C566 0.930 . S
H558 C568 0.930 . S
H559 C571 0.929 . S
H560 C574 0.930 . S
H561 C576 0.960 . S
H562 C576 0.960 . S
H563 C576 0.960 . S
C564 H556 0.929 . S
C564 C565 1.378 1_455 S
C564 C566 1.384 . S
C565 C564 1.378 1_655 S
C565 C571 1.389 . S
C566 H557 0.930 . S
C566 C564 1.384 . S
C566 C567 1.374 . S
C567 C566 1.374 . S
C567 C568 1.397 1_455 S
C567 C572 1.491 . S
C568 H558 0.930 . S
C568 C567 1.397 1_655 S
C568 C571 1.386 . S
H569 C585 0.930 . S
H570 C586 0.931 . S
C571 H559 0.929 . S
C571 C565 1.389 . S
C571 C568 1.386 . S
C572 C567 1.491 . S
C572 C574 1.395 . S
C572 C575 1.403 1_455 S
H573 C579 0.930 . S
C574 H560 0.930 . S
C574 C572 1.395 . S
C574 C577 1.403 . S
C575 C572 1.403 1_655 S
C575 C576 1.524 . S
C575 C579 1.400 . S
C576 H561 0.960 . S
C576 H562 0.960 . S
C576 H563 0.960 . S
C576 C575 1.524 . S
C577 C574 1.403 . S
C577 C578 1.392 . S
C577 C581 1.495 . S
C578 C577 1.392 . S
C578 C579 1.385 1_455 S
C578 C580 1.478 . S
C579 H573 0.930 . S
C579 C575 1.400 . S
C579 C578 1.385 1_655 S
C580 C578 1.478 . S
C580 C582 1.381 . S
C580 C586 1.383 . S
C581 C577 1.495 . S
C581 H587 0.959 . S
C581 H588 0.961 . S
C581 H589 0.960 . S
C582 C580 1.381 . S
C582 C583 1.394 . S
C582 H590 0.930 . S
C583 C582 1.394 . S
C583 C584 1.383 . S
C583 H591 0.929 . S
C584 C583 1.383 . S
C584 C585 1.377 . S
C585 H569 0.930 . S
C585 C584 1.377 . S
C585 C586 1.379 . S
C586 H570 0.931 . S
C586 C580 1.383 . S
C586 C585 1.379 . S
H587 C581 0.959 . S
H588 C581 0.961 . S
H589 C581 0.960 . S
H590 C582 0.930 . S
H591 C583 0.929 . S
H592 C600 0.929 . S
H593 C602 0.930 . S
H594 C604 0.930 . S
H595 C607 0.929 . S
H596 C610 0.930 . S
H597 C612 0.960 . S
H598 C612 0.960 1_565 S
H599 C612 0.960 . S
C600 H592 0.929 . S
C600 C601 1.377 . S
C600 C602 1.384 . S
C601 C600 1.377 . S
C601 C607 1.390 1_565 S
C602 H593 0.930 . S
C602 C600 1.384 . S
C602 C603 1.372 . S
C603 C602 1.372 . S
C603 C604 1.400 1_565 S
C603 C608 1.490 . S
C604 H594 0.930 . S
C604 C603 1.400 1_545 S
C604 C607 1.386 . S
H605 C621 0.930 . S
H606 C622 0.931 . S
C607 H595 0.929 . S
C607 C601 1.390 1_545 S
C607 C604 1.386 . S
C608 C603 1.490 . S
C608 C610 1.395 1_554 S
C608 C611 1.393 1_565 S
H609 C615 0.947 . S
C610 H596 0.930 . S
C610 C608 1.395 1_556 S
C610 C613 1.403 . S
C611 C608 1.393 1_545 S
C611 C612 1.533 . S
C611 C615 1.400 1_554 S
C612 H597 0.960 . S
C612 H598 0.960 1_545 S
C612 H599 0.960 . S
C612 C611 1.533 . S
C613 C610 1.403 . S
C613 C614 1.392 . S
C613 C617 1.495 . S
C614 C613 1.392 . S
C614 C615 1.373 1_565 S
C614 C616 1.478 . S
C615 H609 0.947 . S
C615 C611 1.400 1_556 S
C615 C614 1.373 1_545 S
C616 C614 1.478 . S
C616 C618 1.381 . S
C616 C622 1.383 1_565 S
C617 C613 1.495 . S
C617 H623 0.959 . S
C617 H624 0.961 . S
C617 H625 0.960 . S
C618 C616 1.381 . S
C618 C619 1.394 . S
C618 H626 0.930 . S
C619 C618 1.394 . S
C619 C620 1.437 . S
C619 H627 0.929 . S
C620 C619 1.437 . S
C620 C621 1.326 1_565 S
C621 H605 0.930 . S
C621 C620 1.326 1_545 S
C621 C622 1.379 . S
C622 H606 0.931 . S
C622 C616 1.383 1_545 S
C622 C621 1.379 . S
H623 C617 0.959 . S
H624 C617 0.961 . S
H625 C617 0.960 . S
H626 C618 0.930 . S
H627 C619 0.929 . S
H628 C636 0.929 . S
H629 C638 0.930 . S
H630 C640 0.930 . S
H631 C643 0.929 . S
H632 C646 0.930 . S
H633 C648 0.960 . S
H634 C648 0.960 . S
H635 C648 0.960 1_554 S
C636 H628 0.929 . S
C636 C637 1.377 . S
C636 C638 1.384 . S
C637 C636 1.377 . S
C637 C643 1.390 . S
C638 H629 0.930 . S
C638 C636 1.384 . S
C638 C639 1.372 . S
C639 C638 1.372 . S
C639 C640 1.400 . S
C639 C644 1.490 . S
C640 H630 0.930 . S
C640 C639 1.400 . S
C640 C643 1.386 . S
H641 C657 0.930 . S
H642 C658 0.931 . S
C643 H631 0.929 . S
C643 C637 1.390 . S
C643 C640 1.386 . S
C644 C639 1.490 . S
C644 C646 1.395 . S
C644 C647 1.403 1_554 S
H645 C651 0.930 . S
C646 H632 0.930 . S
C646 C644 1.395 . S
C646 C649 1.403 1_554 S
C647 C644 1.403 1_556 S
C647 C648 1.524 . S
C647 C651 1.400 . S
C648 H633 0.960 . S
C648 H634 0.960 . S
C648 H635 0.960 1_556 S
C648 C647 1.524 . S
C649 C646 1.403 1_556 S
C649 C650 1.392 . S
C649 C653 1.495 . S
C650 C649 1.392 . S
C650 C651 1.385 . S
C650 C652 1.478 . S
C651 H645 0.930 . S
C651 C647 1.400 . S
C651 C650 1.385 . S
C652 C650 1.478 . S
C652 C654 1.381 . S
C652 C658 1.383 . S
C653 C649 1.495 . S
C653 H659 0.959 1_556 S
C653 H660 0.961 . S
C653 H661 0.960 . S
C654 C652 1.381 . S
C654 C655 1.394 . S
C654 H662 0.930 . S
C655 C654 1.394 . S
C655 C656 1.383 . S
C655 H663 0.929 . S
C656 C655 1.383 . S
C656 C657 1.377 . S
C657 H641 0.930 . S
C657 C656 1.377 . S
C657 C658 1.379 . S
C658 H642 0.931 . S
C658 C652 1.383 . S
C658 C657 1.379 . S
H659 C653 0.959 1_554 S
H660 C653 0.961 . S
H661 C653 0.960 . S
H662 C654 0.930 . S
H663 C655 0.929 . S
H664 C672 0.929 . S
H665 C674 0.930 . S
H666 C676 0.930 . S
H667 C679 0.929 . S
H668 C682 0.930 . S
H669 C684 0.960 1_556 S
H670 C684 0.960 . S
H671 C684 0.960 . S
C672 H664 0.929 . S
C672 C673 1.377 . S
C672 C674 1.384 . S
C673 C672 1.377 . S
C673 C679 1.390 . S
C674 H665 0.930 . S
C674 C672 1.384 . S
C674 C675 1.372 . S
C675 C674 1.372 . S
C675 C676 1.400 . S
C675 C680 1.490 . S
C676 H666 0.930 . S
C676 C675 1.400 . S
C676 C679 1.386 . S
H677 C693 0.930 . S
H678 C694 0.931 . S
C679 H667 0.929 . S
C679 C673 1.390 . S
C679 C676 1.386 . S
C680 C675 1.490 . S
C680 C682 1.395 . S
C680 C683 1.403 1_554 S
H681 C687 0.930 . S
C682 H668 0.930 . S
C682 C680 1.395 . S
C682 C685 1.403 1_554 S
C683 C680 1.403 1_556 S
C683 C684 1.524 1_556 S
C683 C687 1.400 . S
C684 H669 0.960 1_554 S
C684 H670 0.960 . S
C684 H671 0.960 . S
C684 C683 1.524 1_554 S
C685 C682 1.403 1_556 S
C685 C686 1.392 . S
C685 C689 1.495 . S
C686 C685 1.392 . S
C686 C687 1.385 . S
C686 C688 1.478 . S
C687 H681 0.930 . S
C687 C683 1.400 . S
C687 C686 1.385 . S
C688 C686 1.478 . S
C688 C690 1.381 . S
C688 C694 1.383 . S
C689 C685 1.495 . S
C689 H695 0.959 . S
C689 H696 0.961 . S
C689 H697 0.960 . S
C690 C688 1.381 . S
C690 C691 1.394 . S
C690 H698 0.930 . S
C691 C690 1.394 . S
C691 C692 1.383 . S
C691 H699 0.929 . S
C692 C691 1.383 . S
C692 C693 1.377 . S
C693 H677 0.930 . S
C693 C692 1.377 . S
C693 C694 1.379 . S
C694 H678 0.931 . S
C694 C688 1.383 . S
C694 C693 1.379 . S
H695 C689 0.959 . S
H696 C689 0.961 . S
H697 C689 0.960 . S
H698 C690 0.930 . S
H699 C691 0.929 . S
H700 C708 0.929 . S
H701 C710 0.930 . S
H702 C712 0.930 . S
H703 C715 0.929 . S
H704 C718 0.930 . S
H705 C720 0.960 . S
H706 C720 0.960 . S
H707 C720 0.960 . S
C708 H700 0.929 . S
C708 C709 1.377 . S
C708 C710 1.384 . S
C709 C708 1.377 . S
C709 C715 1.390 1_455 S
C710 H701 0.930 . S
C710 C708 1.384 . S
C710 C711 1.387 . S
C711 C710 1.387 . S
C711 C712 1.385 1_455 S
C711 C716 1.490 . S
C712 H702 0.930 . S
C712 C711 1.385 1_655 S
C712 C715 1.386 . S
H713 C729 0.930 . S
H714 C730 0.931 . S
C715 H703 0.929 . S
C715 C709 1.390 1_655 S
C715 C712 1.386 . S
C716 C711 1.490 . S
C716 C718 1.394 1_455 S
C716 C719 1.403 1_554 S
H717 C723 0.930 . S
C718 H704 0.930 . S
C718 C716 1.394 1_655 S
C718 C721 1.403 1_554 S
C719 C716 1.403 1_556 S
C719 C720 1.524 . S
C719 C723 1.400 . S
C720 H705 0.960 . S
C720 H706 0.960 . S
C720 H707 0.960 . S
C720 C719 1.524 . S
C721 C718 1.403 1_556 S
C721 C722 1.392 . S
C721 C725 1.495 1_556 S
C722 C721 1.392 . S
C722 C723 1.385 1_655 S
C722 C724 1.478 . S
C723 H717 0.930 . S
C723 C719 1.400 . S
C723 C722 1.385 1_455 S
C724 C722 1.478 . S
C724 C726 1.381 1_655 S
C724 C730 1.383 . S
C725 C721 1.495 1_554 S
C725 H731 0.959 . S
C725 H732 0.961 1_554 S
C725 H733 0.960 1_554 S
C726 C724 1.381 1_455 S
C726 C727 1.394 . S
C726 H734 0.930 . S
C727 C726 1.394 . S
C727 C728 1.383 1_455 S
C727 H735 0.929 . S
C728 C727 1.383 1_655 S
C728 C729 1.377 . S
C729 H713 0.930 . S
C729 C728 1.377 . S
C729 C730 1.379 . S
C730 H714 0.931 . S
C730 C724 1.383 . S
C730 C729 1.379 . S
H731 C725 0.959 . S
H732 C725 0.961 1_556 S
H733 C725 0.960 1_556 S
H734 C726 0.930 . S
H735 C727 0.929 . S
H736 C744 0.929 . S
H737 C746 0.930 . S
H738 C748 0.930 . S
H739 C751 0.929 . S
H740 C754 0.930 . S
H741 C756 0.960 . S
H742 C756 0.960 . S
H743 C756 0.960 . S
C744 H736 0.929 . S
C744 C745 1.377 1_655 S
C744 C746 1.384 . S
C745 C744 1.377 1_455 S
C745 C751 1.390 . S
C746 H737 0.930 . S
C746 C744 1.384 . S
C746 C747 1.372 . S
C747 C746 1.372 . S
C747 C748 1.400 1_655 S
C747 C752 1.490 . S
C748 H738 0.930 . S
C748 C747 1.400 1_455 S
C748 C751 1.386 . S
H749 C765 0.930 . S
H750 C766 0.931 . S
C751 H739 0.929 . S
C751 C745 1.390 . S
C751 C748 1.386 . S
C752 C747 1.490 . S
C752 C754 1.395 . S
C752 C755 1.423 . S
H753 C759 0.930 1_455 S
C754 H740 0.930 . S
C754 C752 1.395 . S
C754 C757 1.403 . S
C755 C752 1.423 . S
C755 C756 1.496 1_655 S
C755 C759 1.410 . S
C756 H741 0.960 . S
C756 H742 0.960 . S
C756 H743 0.960 . S
C756 C755 1.496 1_455 S
C757 C754 1.403 . S
C757 C758 1.392 . S
C757 C761 1.495 . S
C758 C757 1.392 . S
C758 C759 1.385 . S
C758 C760 1.478 . S
C759 H753 0.930 1_655 S
C759 C755 1.410 . S
C759 C758 1.385 . S
C760 C758 1.478 . S
C760 C762 1.381 . S
C760 C766 1.383 . S
C761 C757 1.495 . S
C761 H767 0.959 . S
C761 H768 0.961 . S
C761 H769 0.960 . S
C762 C760 1.381 . S
C762 C763 1.394 . S
C762 H770 0.930 . S
C763 C762 1.394 . S
C763 C764 1.383 . S
C763 H771 0.929 . S
C764 C763 1.383 . S
C764 C765 1.377 . S
C765 H749 0.930 . S
C765 C764 1.377 . S
C765 C766 1.379 . S
C766 H750 0.931 . S
C766 C760 1.383 . S
C766 C765 1.379 . S
H767 C761 0.959 . S
H768 C761 0.961 . S
H769 C761 0.960 . S
H770 C762 0.930 . S
H771 C763 0.929 . S
H772 C780 0.929 . S
H773 C782 0.932 . S
H774 C784 0.937 . S
H775 C787 0.929 . S
H776 C790 0.930 . S
H777 C792 0.960 . S
H778 C792 0.960 . S
H779 C792 0.960 . S
C780 H772 0.929 . S
C780 C781 1.377 . S
C780 C782 1.384 . S
C781 C780 1.377 . S
C781 C787 1.390 . S
C782 H773 0.932 . S
C782 C780 1.384 . S
C782 C783 1.370 1_545 S
C783 C782 1.370 1_565 S
C783 C784 1.398 1_565 S
C783 C788 1.494 . S
C784 H774 0.937 . S
C784 C783 1.398 1_545 S
C784 C787 1.386 . S
H785 C801 0.930 . S
H786 C802 0.931 . S
C787 H775 0.929 . S
C787 C781 1.390 . S
C787 C784 1.386 . S
C788 C783 1.494 . S
C788 C790 1.395 . S
C788 C791 1.403 1_565 S
H789 C795 0.930 . S
C790 H776 0.930 . S
C790 C788 1.395 . S
C790 C793 1.403 . S
C791 C788 1.403 1_545 S
C791 C792 1.524 . S
C791 C795 1.400 . S
C792 H777 0.960 . S
C792 H778 0.960 . S
C792 H779 0.960 . S
C792 C791 1.524 . S
C793 C790 1.403 . S
C793 C794 1.392 . S
C793 C797 1.495 . S
C794 C793 1.392 . S
C794 C795 1.386 1_565 S
C794 C796 1.478 . S
C795 H789 0.930 . S
C795 C791 1.400 . S
C795 C794 1.386 1_545 S
C796 C794 1.478 . S
C796 C798 1.381 . S
C796 C802 1.383 . S
C797 C793 1.495 . S
C797 H803 0.959 . S
C797 H804 0.961 . S
C797 H805 0.960 . S
C798 C796 1.381 . S
C798 C799 1.394 . S
C798 H806 0.930 . S
C799 C798 1.394 . S
C799 C800 1.383 . S
C799 H807 0.929 . S
C800 C799 1.383 . S
C800 C801 1.377 . S
C801 H785 0.930 . S
C801 C800 1.377 . S
C801 C802 1.379 . S
C802 H786 0.931 . S
C802 C796 1.383 . S
C802 C801 1.379 . S
H803 C797 0.959 . S
H804 C797 0.961 . S
H805 C797 0.960 . S
H806 C798 0.930 . S
H807 C799 0.929 . S
H808 C816 0.929 . S
H809 C818 0.930 . S
H810 C820 0.930 . S
H811 C823 0.929 . S
H812 C826 0.930 . S
H813 C828 0.960 . S
H814 C828 0.960 . S
H815 C828 0.960 . S
C816 H808 0.929 . S
C816 C817 1.377 . S
C816 C818 1.384 . S
C817 C816 1.377 . S
C817 C823 1.390 . S
C818 H809 0.930 . S
C818 C816 1.384 . S
C818 C819 1.372 . S
C819 C818 1.372 . S
C819 C820 1.400 . S
C819 C824 1.490 . S
C820 H810 0.930 . S
C820 C819 1.400 . S
C820 C823 1.386 . S
H821 C837 0.930 . S
H822 C838 0.931 . S
C823 H811 0.929 . S
C823 C817 1.390 . S
C823 C820 1.386 . S
C824 C819 1.490 . S
C824 C826 1.395 . S
C824 C827 1.403 . S
H825 C831 0.930 . S
C826 H812 0.930 . S
C826 C824 1.395 . S
C826 C829 1.403 . S
C827 C824 1.403 . S
C827 C828 1.524 . S
C827 C831 1.400 . S
C828 H813 0.960 . S
C828 H814 0.960 . S
C828 H815 0.960 . S
C828 C827 1.524 . S
C829 C826 1.403 . S
C829 C830 1.392 . S
C829 C833 1.495 . S
C830 C829 1.392 . S
C830 C831 1.385 . S
C830 C832 1.478 . S
C831 H825 0.930 . S
C831 C827 1.400 . S
C831 C830 1.385 . S
C832 C830 1.478 . S
C832 C834 1.381 . S
C832 C838 1.383 . S
C833 C829 1.495 . S
C833 H839 0.959 . S
C833 H840 0.961 . S
C833 H841 0.960 . S
C834 C832 1.381 . S
C834 C835 1.394 . S
C834 H842 0.930 . S
C835 C834 1.394 . S
C835 C836 1.383 . S
C835 H843 0.929 . S
C836 C835 1.383 . S
C836 C837 1.377 . S
C837 H821 0.930 . S
C837 C836 1.377 . S
C837 C838 1.379 . S
C838 H822 0.931 . S
C838 C832 1.383 . S
C838 C837 1.379 . S
H839 C833 0.959 . S
H840 C833 0.961 . S
H841 C833 0.960 . S
H842 C834 0.930 . S
H843 C835 0.929 . S
H844 C852 0.929 . S
H845 C854 0.930 . S
H846 C856 0.930 . S
H847 C859 0.929 . S
H848 C862 0.930 . S
H849 C864 0.960 . S
H850 C864 0.960 . S
H851 C864 0.960 . S
C852 H844 0.929 . S
C852 C853 1.377 . S
C852 C854 1.384 . S
C853 C852 1.377 . S
C853 C859 1.390 . S
C854 H845 0.930 . S
C854 C852 1.384 . S
C854 C855 1.372 . S
C855 C854 1.372 . S
C855 C856 1.400 . S
C855 C860 1.490 . S
C856 H846 0.930 . S
C856 C855 1.400 . S
C856 C859 1.386 . S
H857 C873 0.930 . S
H858 C874 0.931 . S
C859 H847 0.929 . S
C859 C853 1.390 . S
C859 C856 1.386 . S
C860 C855 1.490 . S
C860 C862 1.395 . S
C860 C863 1.403 . S
H861 C867 0.930 . S
C862 H848 0.930 . S
C862 C860 1.395 . S
C862 C865 1.403 . S
C863 C860 1.403 . S
C863 C864 1.524 . S
C863 C867 1.400 . S
C864 H849 0.960 . S
C864 H850 0.960 . S
C864 H851 0.960 . S
C864 C863 1.524 . S
C865 C862 1.403 . S
C865 C866 1.392 . S
C865 C869 1.495 . S
C866 C865 1.392 . S
C866 C867 1.385 . S
C866 C868 1.478 . S
C867 H861 0.930 . S
C867 C863 1.400 . S
C867 C866 1.385 . S
C868 C866 1.478 . S
C868 C870 1.381 . S
C868 C874 1.383 . S
C869 C865 1.495 . S
C869 H875 0.959 . S
C869 H876 0.961 . S
C869 H877 0.960 . S
C870 C868 1.381 . S
C870 C871 1.394 . S
C870 H878 0.930 . S
C871 C870 1.394 . S
C871 C872 1.383 . S
C871 H879 0.929 . S
C872 C871 1.383 . S
C872 C873 1.377 . S
C873 H857 0.930 . S
C873 C872 1.377 . S
C873 C874 1.379 . S
C874 H858 0.931 . S
C874 C868 1.383 . S
C874 C873 1.379 . S
H875 C869 0.959 . S
H876 C869 0.961 . S
H877 C869 0.960 . S
H878 C870 0.930 . S
H879 C871 0.929 . S
H880 C888 0.929 . S
H881 C890 0.930 . S
H882 C892 0.930 . S
H883 C895 0.929 . S
H884 C898 0.930 . S
H885 C900 0.960 . S
H886 C900 0.960 . S
H887 C900 0.960 . S
C888 H880 0.929 . S
C888 C889 1.377 . S
C888 C890 1.384 . S
C889 C888 1.377 . S
C889 C895 1.390 1_655 S
C890 H881 0.930 . S
C890 C888 1.384 . S
C890 C891 1.372 1_655 S
C891 C890 1.372 1_455 S
C891 C892 1.400 . S
C891 C896 1.490 . S
C892 H882 0.930 . S
C892 C891 1.400 . S
C892 C895 1.386 . S
H893 C909 0.930 . S
H894 C910 0.931 . S
C895 H883 0.929 . S
C895 C889 1.390 1_455 S
C895 C892 1.386 . S
C896 C891 1.490 . S
C896 C898 1.395 1_455 S
C896 C899 1.403 1_554 S
H897 C903 0.930 . S
C898 H884 0.930 . S
C898 C896 1.395 1_655 S
C898 C901 1.412 1_554 S
C899 C896 1.403 1_556 S
C899 C900 1.524 . S
C899 C903 1.400 . S
C900 H885 0.960 . S
C900 H886 0.960 . S
C900 H887 0.960 . S
C900 C899 1.524 . S
C901 C898 1.412 1_556 S
C901 C902 1.348 1_655 S
C901 C905 1.532 1_556 S
C902 C901 1.348 1_455 S
C902 C903 1.385 . S
C902 C904 1.478 . S
C903 H897 0.930 . S
C903 C899 1.400 . S
C903 C902 1.385 . S
C904 C902 1.478 . S
C904 C906 1.381 . S
C904 C910 1.383 . S
C905 C901 1.532 1_554 S
C905 H911 0.959 . S
C905 H912 0.961 . S
C905 H913 0.960 1_554 S
C906 C904 1.381 . S
C906 C907 1.394 . S
C906 H914 0.930 1_455 S
C907 C906 1.394 . S
C907 C908 1.383 . S
C907 H915 0.929 . S
C908 C907 1.383 . S
C908 C909 1.377 . S
C909 H893 0.930 . S
C909 C908 1.377 . S
C909 C910 1.379 . S
C910 H894 0.931 . S
C910 C904 1.383 . S
C910 C909 1.379 . S
H911 C905 0.959 . S
H912 C905 0.961 . S
H913 C905 0.960 1_556 S
H914 C906 0.930 1_655 S
H915 C907 0.929 . S
H916 C924 0.929 . S
H917 C926 0.930 . S
H918 C928 0.930 . S
H919 C931 0.929 . S
H920 C934 0.962 . S
H921 C936 0.960 . S
H922 C936 0.960 . S
H923 C936 0.960 . S
C924 H916 0.929 . S
C924 C925 1.377 . S
C924 C926 1.384 . S
C925 C924 1.377 . S
C925 C931 1.390 1_565 S
C926 H917 0.930 . S
C926 C924 1.384 . S
C926 C927 1.372 1_565 S
C927 C926 1.372 1_545 S
C927 C928 1.400 . S
C927 C932 1.490 . S
C928 H918 0.930 . S
C928 C927 1.400 . S
C928 C931 1.386 . S
H929 C945 0.930 . S
H930 C946 0.931 . S
C931 H919 0.929 . S
C931 C925 1.390 1_545 S
C931 C928 1.386 . S
C932 C927 1.490 . S
C932 C934 1.375 1_545 S
C932 C935 1.403 1_554 S
H933 C939 0.930 . S
C934 H920 0.962 . S
C934 C932 1.375 1_565 S
C934 C937 1.394 1_565 S
C935 C932 1.403 1_556 S
C935 C936 1.524 . S
C935 C939 1.400 . S
C936 H921 0.960 . S
C936 H922 0.960 . S
C936 H923 0.960 . S
C936 C935 1.524 . S
C937 C934 1.394 1_545 S
C937 C938 1.392 1_554 S
C937 C941 1.495 1_545 S
C938 C937 1.392 1_556 S
C938 C939 1.385 . S
C938 C940 1.478 . S
C939 H933 0.930 . S
C939 C935 1.400 . S
C939 C938 1.385 . S
C940 C938 1.478 . S
C940 C942 1.381 . S
C940 C946 1.383 . S
C941 C937 1.495 1_565 S
C941 H947 0.959 . S
C941 H948 0.961 1_565 S
C941 H949 0.960 . S
C942 C940 1.381 . S
C942 C943 1.394 . S
C942 H950 0.930 1_545 S
C943 C942 1.394 . S
C943 C944 1.383 . S
C943 H951 0.977 . S
C944 C943 1.383 . S
C944 C945 1.377 . S
C945 H929 0.930 . S
C945 C944 1.377 . S
C945 C946 1.379 . S
C946 H930 0.931 . S
C946 C940 1.383 . S
C946 C945 1.379 . S
H947 C941 0.959 . S
H948 C941 0.961 1_545 S
H949 C941 0.960 . S
H950 C942 0.930 1_565 S
H951 C943 0.977 . S
H952 C960 0.929 . S
H953 C962 0.930 1_556 S
H954 C964 0.930 . S
H955 C967 0.929 . S
H956 C970 0.930 . S
H957 C972 0.960 . S
H958 C972 0.960 . S
H959 C972 0.960 . S
C960 H952 0.929 . S
C960 C961 1.377 . S
C960 C962 1.384 . S
C961 C960 1.377 . S
C961 C967 1.390 . S
C962 H953 0.930 1_554 S
C962 C960 1.384 . S
C962 C963 1.372 . S
C963 C962 1.372 . S
C963 C964 1.400 . S
C963 C968 1.490 . S
C964 H954 0.930 . S
C964 C963 1.400 . S
C964 C967 1.386 . S
H965 C981 0.930 . S
H966 C982 0.931 . S
C967 H955 0.929 . S
C967 C961 1.390 . S
C967 C964 1.386 . S
C968 C963 1.490 . S
C968 C970 1.395 1_554 S
C968 C971 1.403 . S
H969 C975 0.930 . S
C970 H956 0.930 . S
C970 C968 1.395 1_556 S
C970 C973 1.403 . S
C971 C968 1.403 . S
C971 C972 1.524 . S
C971 C975 1.400 1_554 S
C972 H957 0.960 . S
C972 H958 0.960 . S
C972 H959 0.960 . S
C972 C971 1.524 . S
C973 C970 1.403 . S
C973 C974 1.392 . S
C973 C977 1.495 . S
C974 C973 1.392 . S
C974 C975 1.385 . S
C974 C976 1.478 . S
C975 H969 0.930 . S
C975 C971 1.400 1_556 S
C975 C974 1.385 . S
C976 C974 1.478 . S
C976 C978 1.381 . S
C976 C982 1.383 . S
C977 C973 1.495 . S
C977 H983 0.959 . S
C977 H984 0.961 . S
C977 H985 0.960 . S
C978 C976 1.381 . S
C978 C979 1.394 . S
C978 H986 0.930 . S
C979 C978 1.394 . S
C979 C980 1.383 . S
C979 H987 0.929 . S
C980 C979 1.383 . S
C980 C981 1.377 . S
C981 H965 0.930 . S
C981 C980 1.377 . S
C981 C982 1.379 . S
C982 H966 0.931 . S
C982 C976 1.383 . S
C982 C981 1.379 . S
H983 C977 0.959 . S
H984 C977 0.961 . S
H985 C977 0.960 . S
H986 C978 0.930 . S
H987 C979 0.929 . S
H988 C996 0.929 . S
H989 C998 0.930 . S
H990 C1000 0.930 . S
H991 C1003 0.929 . S
H992 C1006 0.930 . S
H993 C1008 0.960 . S
H994 C1008 0.960 . S
H995 C1008 0.960 . S
C996 H988 0.929 . S
C996 C997 1.377 . S
C996 C998 1.384 . S
C997 C996 1.377 . S
C997 C1003 1.390 . S
C998 H989 0.930 . S
C998 C996 1.384 . S
C998 C999 1.372 . S
C999 C998 1.372 . S
C999 C1000 1.400 . S
C999 C1004 1.490 . S
C1000 H990 0.930 . S
C1000 C999 1.400 . S
C1000 C1003 1.386 . S
H1001 C1017 0.930 . S
H1002 C1018 0.931 . S
C1003 H991 0.929 . S
C1003 C997 1.390 . S
C1003 C1000 1.386 . S
C1004 C999 1.490 . S
C1004 C1006 1.395 1_554 S
C1004 C1007 1.403 . S
H1005 C1011 0.930 . S
C1006 H992 0.930 . S
C1006 C1004 1.395 1_556 S
C1006 C1009 1.403 . S
C1007 C1004 1.403 . S
C1007 C1008 1.524 . S
C1007 C1011 1.400 1_554 S
C1008 H993 0.960 . S
C1008 H994 0.960 . S
C1008 H995 0.960 . S
C1008 C1007 1.524 . S
C1009 C1006 1.403 . S
C1009 C1010 1.392 . S
C1009 C1013 1.495 . S
C1010 C1009 1.392 . S
C1010 C1011 1.385 . S
C1010 C1012 1.478 . S
C1011 H1005 0.930 . S
C1011 C1007 1.400 1_556 S
C1011 C1010 1.385 . S
C1012 C1010 1.478 . S
C1012 C1014 1.381 . S
C1012 C1018 1.383 . S
C1013 C1009 1.495 . S
C1013 H1019 0.959 . S
C1013 H1020 0.961 . S
C1013 H1021 0.960 . S
C1014 C1012 1.381 . S
C1014 C1015 1.394 . S
C1014 H1022 0.930 . S
C1015 C1014 1.394 . S
C1015 C1016 1.383 . S
C1015 H1023 0.929 . S
C1016 C1015 1.383 . S
C1016 C1017 1.377 . S
C1017 H1001 0.930 . S
C1017 C1016 1.377 . S
C1017 C1018 1.379 . S
C1018 H1002 0.931 . S
C1018 C1012 1.383 . S
C1018 C1017 1.379 . S
H1019 C1013 0.959 . S
H1020 C1013 0.961 . S
H1021 C1013 0.960 . S
H1022 C1014 0.930 . S
H1023 C1015 0.929 . S
H1024 C1032 0.929 . S
H1025 C1034 0.930 . S
H1026 C1036 0.930 . S
H1027 C1039 0.929 . S
H1028 C1042 0.930 . S
H1029 C1044 0.960 . S
H1030 C1044 0.960 . S
H1031 C1044 0.960 . S
C1032 H1024 0.929 . S
C1032 C1033 1.377 . S
C1032 C1034 1.384 . S
C1033 C1032 1.377 . S
C1033 C1039 1.390 1_455 S
C1034 H1025 0.930 . S
C1034 C1032 1.384 . S
C1034 C1035 1.372 . S
C1035 C1034 1.372 . S
C1035 C1036 1.400 1_455 S
C1035 C1040 1.490 . S
C1036 H1026 0.930 . S
C1036 C1035 1.400 1_655 S
C1036 C1039 1.386 . S
H1037 C1053 0.930 1_655 S
H1038 C1054 0.931 1_655 S
C1039 H1027 0.929 . S
C1039 C1033 1.390 1_655 S
C1039 C1036 1.386 . S
C1040 C1035 1.490 . S
C1040 C1042 1.395 . S
C1040 C1043 1.403 1_455 S
H1041 C1047 0.930 . S
C1042 H1028 0.930 . S
C1042 C1040 1.395 . S
C1042 C1045 1.403 . S
C1043 C1040 1.403 1_655 S
C1043 C1044 1.524 . S
C1043 C1047 1.400 . S
C1044 H1029 0.960 . S
C1044 H1030 0.960 . S
C1044 H1031 0.960 . S
C1044 C1043 1.524 . S
C1045 C1042 1.403 . S
C1045 C1046 1.392 . S
C1045 C1049 1.495 . S
C1046 C1045 1.392 . S
C1046 C1047 1.385 1_455 S
C1046 C1048 1.478 . S
C1047 H1041 0.930 . S
C1047 C1043 1.400 . S
C1047 C1046 1.385 1_655 S
C1048 C1046 1.478 . S
C1048 C1050 1.381 . S
C1048 C1054 1.383 . S
C1049 C1045 1.495 . S
C1049 H1055 0.959 . S
C1049 H1056 0.961 . S
C1049 H1057 0.960 . S
C1050 C1048 1.381 . S
C1050 C1051 1.394 . S
C1050 H1058 0.930 . S
C1051 C1050 1.394 . S
C1051 C1052 1.383 . S
C1051 H1059 0.929 . S
C1052 C1051 1.383 . S
C1052 C1053 1.377 . S
C1053 H1037 0.930 1_455 S
C1053 C1052 1.377 . S
C1053 C1054 1.379 . S
C1054 H1038 0.931 1_455 S
C1054 C1048 1.383 . S
C1054 C1053 1.379 . S
H1055 C1049 0.959 . S
H1056 C1049 0.961 . S
H1057 C1049 0.960 . S
H1058 C1050 0.930 . S
H1059 C1051 0.929 . S
H1060 C1068 0.929 . S
H1061 C1070 0.930 . S
H1062 C1072 0.930 . S
H1063 C1075 0.929 . S
H1064 C1078 0.930 . S
H1065 C1080 0.960 . S
H1066 C1080 0.960 . S
H1067 C1080 0.960 . S
C1068 H1060 0.929 . S
C1068 C1069 1.377 1_565 S
C1068 C1070 1.384 . S
C1069 C1068 1.377 1_545 S
C1069 C1075 1.390 . S
C1070 H1061 0.930 . S
C1070 C1068 1.384 . S
C1070 C1071 1.372 1_565 S
C1071 C1070 1.372 1_545 S
C1071 C1072 1.400 . S
C1071 C1076 1.490 . S
C1072 H1062 0.930 . S
C1072 C1071 1.400 . S
C1072 C1075 1.386 . S
H1073 C1089 0.930 . S
H1074 C1090 0.931 . S
C1075 H1063 0.929 . S
C1075 C1069 1.390 . S
C1075 C1072 1.386 . S
C1076 C1071 1.490 . S
C1076 C1078 1.395 1_545 S
C1076 C1079 1.403 . S
H1077 C1083 0.930 . S
C1078 H1064 0.930 . S
C1078 C1076 1.395 1_565 S
C1078 C1081 1.403 . S
C1079 C1076 1.403 . S
C1079 C1080 1.524 . S
C1079 C1083 1.400 . S
C1080 H1065 0.960 . S
C1080 H1066 0.960 . S
C1080 H1067 0.960 . S
C1080 C1079 1.524 . S
C1081 C1078 1.403 . S
C1081 C1082 1.392 1_565 S
C1081 C1085 1.495 . S
C1082 C1081 1.392 1_545 S
C1082 C1083 1.385 . S
C1082 C1084 1.478 . S
C1083 H1077 0.930 . S
C1083 C1079 1.400 . S
C1083 C1082 1.385 . S
C1084 C1082 1.478 . S
C1084 C1086 1.381 1_545 S
C1084 C1090 1.383 . S
C1085 C1081 1.495 . S
C1085 H1091 0.959 . S
C1085 H1092 0.961 . S
C1085 H1093 0.960 . S
C1086 C1084 1.381 1_565 S
C1086 C1087 1.394 . S
C1086 H1094 0.930 . S
C1087 C1086 1.394 . S
C1087 C1088 1.383 1_565 S
C1087 H1095 0.929 . S
C1088 C1087 1.383 1_545 S
C1088 C1089 1.377 . S
C1089 H1073 0.930 . S
C1089 C1088 1.377 . S
C1089 C1090 1.379 . S
C1090 H1074 0.931 . S
C1090 C1084 1.383 . S
C1090 C1089 1.379 . S
H1091 C1085 0.959 . S
H1092 C1085 0.961 . S
H1093 C1085 0.960 . S
H1094 C1086 0.930 . S
H1095 C1087 0.929 . S
H1096 C1104 0.929 . S
H1097 C1106 0.930 . S
H1098 C1108 0.930 . S
H1099 C1111 0.929 . S
H1100 C1114 0.930 . S
H1101 C1116 0.960 . S
H1102 C1116 0.960 . S
H1103 C1116 0.960 . S
C1104 H1096 0.929 . S
C1104 C1105 1.377 . S
C1104 C1106 1.384 . S
C1105 C1104 1.377 . S
C1105 C1111 1.390 . S
C1106 H1097 0.930 . S
C1106 C1104 1.384 . S
C1106 C1107 1.372 . S
C1107 C1106 1.372 . S
C1107 C1108 1.400 . S
C1107 C1112 1.490 . S
C1108 H1098 0.930 . S
C1108 C1107 1.400 . S
C1108 C1111 1.386 . S
H1109 C1125 0.930 . S
H1110 C1126 0.931 . S
C1111 H1099 0.929 . S
C1111 C1105 1.390 . S
C1111 C1108 1.386 . S
C1112 C1107 1.490 . S
C1112 C1114 1.395 . S
C1112 C1115 1.403 . S
H1113 C1119 0.930 . S
C1114 H1100 0.930 . S
C1114 C1112 1.395 . S
C1114 C1117 1.403 . S
C1115 C1112 1.403 . S
C1115 C1116 1.524 . S
C1115 C1119 1.400 . S
C1116 H1101 0.960 . S
C1116 H1102 0.960 . S
C1116 H1103 0.960 . S
C1116 C1115 1.524 . S
C1117 C1114 1.403 . S
C1117 C1118 1.392 . S
C1117 C1121 1.495 . S
C1118 C1117 1.392 . S
C1118 C1119 1.385 . S
C1118 C1120 1.478 . S
C1119 H1113 0.930 . S
C1119 C1115 1.400 . S
C1119 C1118 1.385 . S
C1120 C1118 1.478 . S
C1120 C1122 1.381 . S
C1120 C1126 1.383 . S
C1121 C1117 1.495 . S
C1121 H1127 0.959 . S
C1121 H1128 0.961 . S
C1121 H1129 0.960 . S
C1122 C1120 1.381 . S
C1122 C1123 1.394 . S
C1122 H1130 0.930 . S
C1123 C1122 1.394 . S
C1123 C1124 1.383 . S
C1123 H1131 0.929 . S
C1124 C1123 1.383 . S
C1124 C1125 1.377 . S
C1125 H1109 0.930 . S
C1125 C1124 1.377 . S
C1125 C1126 1.379 . S
C1126 H1110 0.931 . S
C1126 C1120 1.383 . S
C1126 C1125 1.379 . S
H1127 C1121 0.959 . S
H1128 C1121 0.961 . S
H1129 C1121 0.960 . S
H1130 C1122 0.930 . S
H1131 C1123 0.929 . S
H1132 C1140 0.929 . S
H1133 C1142 0.930 . S
H1134 C1144 0.930 . S
H1135 C1147 0.929 . S
H1136 C1150 0.930 . S
H1137 C1152 0.960 . S
H1138 C1152 0.960 . S
H1139 C1152 0.960 . S
C1140 H1132 0.929 . S
C1140 C1141 1.377 . S
C1140 C1142 1.384 . S
C1141 C1140 1.377 . S
C1141 C1147 1.390 . S
C1142 H1133 0.930 . S
C1142 C1140 1.384 . S
C1142 C1143 1.372 . S
C1143 C1142 1.372 . S
C1143 C1144 1.400 . S
C1143 C1148 1.490 . S
C1144 H1134 0.930 . S
C1144 C1143 1.400 . S
C1144 C1147 1.386 . S
H1145 C1161 0.930 . S
H1146 C1162 0.931 . S
C1147 H1135 0.929 . S
C1147 C1141 1.390 . S
C1147 C1144 1.386 . S
C1148 C1143 1.490 . S
C1148 C1150 1.395 . S
C1148 C1151 1.403 . S
H1149 C1155 0.930 . S
C1150 H1136 0.930 . S
C1150 C1148 1.395 . S
C1150 C1153 1.403 . S
C1151 C1148 1.403 . S
C1151 C1152 1.524 . S
C1151 C1155 1.400 . S
C1152 H1137 0.960 . S
C1152 H1138 0.960 . S
C1152 H1139 0.960 . S
C1152 C1151 1.524 . S
C1153 C1150 1.403 . S
C1153 C1154 1.392 . S
C1153 C1157 1.495 . S
C1154 C1153 1.392 . S
C1154 C1155 1.385 . S
C1154 C1156 1.478 . S
C1155 H1149 0.930 . S
C1155 C1151 1.400 . S
C1155 C1154 1.385 . S
C1156 C1154 1.478 . S
C1156 C1158 1.381 . S
C1156 C1162 1.383 . S
C1157 C1153 1.495 . S
C1157 H1163 0.959 . S
C1157 H1164 0.961 . S
C1157 H1165 0.960 . S
C1158 C1156 1.381 . S
C1158 C1159 1.394 . S
C1158 H1166 0.930 . S
C1159 C1158 1.394 . S
C1159 C1160 1.383 . S
C1159 H1167 0.929 . S
C1160 C1159 1.383 . S
C1160 C1161 1.377 . S
C1161 H1145 0.930 . S
C1161 C1160 1.377 . S
C1161 C1162 1.379 . S
C1162 H1146 0.931 . S
C1162 C1156 1.383 . S
C1162 C1161 1.379 . S
H1163 C1157 0.959 . S
H1164 C1157 0.961 . S
H1165 C1157 0.960 . S
H1166 C1158 0.930 . S
H1167 C1159 0.929 . S
H1168 C1176 0.929 . S
H1169 C1178 0.930 . S
H1170 C1180 0.930 . S
H1171 C1183 0.929 . S
H1172 C1186 0.922 1_455 S
H1173 C1188 0.960 . S
H1174 C1188 0.960 1_455 S
H1175 C1188 0.960 . S
C1176 H1168 0.929 . S
C1176 C1177 1.377 1_455 S
C1176 C1178 1.384 . S
C1177 C1176 1.377 1_655 S
C1177 C1183 1.390 . S
C1178 H1169 0.930 . S
C1178 C1176 1.384 . S
C1178 C1179 1.372 1_455 S
C1179 C1178 1.372 1_655 S
C1179 C1180 1.400 . S
C1179 C1184 1.490 . S
C1180 H1170 0.930 . S
C1180 C1179 1.400 . S
C1180 C1183 1.386 . S
H1181 C1197 0.930 . S
H1182 C1198 0.931 . S
C1183 H1171 0.929 . S
C1183 C1177 1.390 . S
C1183 C1180 1.386 . S
C1184 C1179 1.490 . S
C1184 C1186 1.402 . S
C1184 C1187 1.403 . S
H1185 C1191 0.930 . S
C1186 H1172 0.922 1_655 S
C1186 C1184 1.402 . S
C1186 C1189 1.407 . S
C1187 C1184 1.403 . S
C1187 C1188 1.524 . S
C1187 C1191 1.400 . S
C1188 H1173 0.960 . S
C1188 H1174 0.960 1_655 S
C1188 H1175 0.960 . S
C1188 C1187 1.524 . S
C1189 C1186 1.407 . S
C1189 C1190 1.392 . S
C1189 C1193 1.494 1_655 S
C1190 C1189 1.392 . S
C1190 C1191 1.385 . S
C1190 C1192 1.478 . S
C1191 H1185 0.930 . S
C1191 C1187 1.400 . S
C1191 C1190 1.385 . S
C1192 C1190 1.478 . S
C1192 C1194 1.381 1_655 S
C1192 C1198 1.383 . S
C1193 C1189 1.494 1_455 S
C1193 H1199 0.962 . S
C1193 H1200 0.948 1_455 S
C1193 H1201 0.972 . S
C1194 C1192 1.381 1_455 S
C1194 C1195 1.394 . S
C1194 H1202 0.930 . S
C1195 C1194 1.394 . S
C1195 C1196 1.383 1_455 S
C1195 H1203 0.929 . S
C1196 C1195 1.383 1_655 S
C1196 C1197 1.377 . S
C1197 H1181 0.930 . S
C1197 C1196 1.377 . S
C1197 C1198 1.379 . S
C1198 H1182 0.931 . S
C1198 C1192 1.383 . S
C1198 C1197 1.379 . S
H1199 C1193 0.962 . S
H1200 C1193 0.948 1_655 S
H1201 C1193 0.972 . S
H1202 C1194 0.930 . S
H1203 C1195 0.929 . S
H1204 C1212 0.929 . S
H1205 C1214 0.930 . S
H1206 C1216 0.930 . S
H1207 C1219 0.929 . S
H1208 C1222 0.930 . S
H1209 C1224 0.960 . S
H1210 C1224 0.960 . S
H1211 C1224 0.923 1_565 S
C1212 H1204 0.929 . S
C1212 C1213 1.377 1_545 S
C1212 C1214 1.384 . S
C1213 C1212 1.377 1_565 S
C1213 C1219 1.390 . S
C1214 H1205 0.930 . S
C1214 C1212 1.384 . S
C1214 C1215 1.372 1_545 S
C1215 C1214 1.372 1_565 S
C1215 C1216 1.400 . S
C1215 C1220 1.490 . S
C1216 H1206 0.930 . S
C1216 C1215 1.400 . S
C1216 C1219 1.386 . S
H1217 C1233 0.930 . S
H1218 C1234 0.931 . S
C1219 H1207 0.929 . S
C1219 C1213 1.390 . S
C1219 C1216 1.386 . S
C1220 C1215 1.490 . S
C1220 C1222 1.395 . S
C1220 C1223 1.401 1_565 S
H1221 C1227 0.930 1_545 S
C1222 H1208 0.930 . S
C1222 C1220 1.395 . S
C1222 C1225 1.403 . S
C1223 C1220 1.401 1_545 S
C1223 C1224 1.525 . S
C1223 C1227 1.400 1_545 S
C1224 H1209 0.960 . S
C1224 H1210 0.960 . S
C1224 H1211 0.923 1_545 S
C1224 C1223 1.525 . S
C1225 C1222 1.403 . S
C1225 C1226 1.392 . S
C1225 C1229 1.495 . S
C1226 C1225 1.392 . S
C1226 C1227 1.385 . S
C1226 C1228 1.478 . S
C1227 H1221 0.930 1_565 S
C1227 C1223 1.400 1_565 S
C1227 C1226 1.385 . S
C1228 C1226 1.478 . S
C1228 C1230 1.381 1_565 S
C1228 C1234 1.383 . S
C1229 C1225 1.495 . S
C1229 H1235 0.959 . S
C1229 H1236 0.961 . S
C1229 H1237 0.960 . S
C1230 C1228 1.381 1_545 S
C1230 C1231 1.394 . S
C1230 H1238 0.930 . S
C1231 C1230 1.394 . S
C1231 C1232 1.383 1_545 S
C1231 H1239 0.929 . S
C1232 C1231 1.383 1_565 S
C1232 C1233 1.377 . S
C1233 H1217 0.930 . S
C1233 C1232 1.377 . S
C1233 C1234 1.379 . S
C1234 H1218 0.931 . S
C1234 C1228 1.383 . S
C1234 C1233 1.379 . S
H1235 C1229 0.959 . S
H1236 C1229 0.961 . S
H1237 C1229 0.960 . S
H1238 C1230 0.930 . S
H1239 C1231 0.929 . S
H1240 C1248 0.929 . S
H1241 C1250 0.930 . S
H1242 C1252 0.930 . S
H1243 C1255 0.929 . S
H1244 C1258 0.930 . S
H1245 C1260 0.960 . S
H1246 C1260 0.960 . S
H1247 C1260 0.960 . S
C1248 H1240 0.929 . S
C1248 C1249 1.377 . S
C1248 C1250 1.384 . S
C1249 C1248 1.377 . S
C1249 C1255 1.390 . S
C1250 H1241 0.930 . S
C1250 C1248 1.384 . S
C1250 C1251 1.372 . S
C1251 C1250 1.372 . S
C1251 C1252 1.400 . S
C1251 C1256 1.490 . S
C1252 H1242 0.930 . S
C1252 C1251 1.400 . S
C1252 C1255 1.386 . S
H1253 C1269 0.930 . S
H1254 C1270 0.931 . S
C1255 H1243 0.929 . S
C1255 C1249 1.390 . S
C1255 C1252 1.386 . S
C1256 C1251 1.490 . S
C1256 C1258 1.395 . S
C1256 C1259 1.403 . S
H1257 C1263 0.930 . S
C1258 H1244 0.930 . S
C1258 C1256 1.395 . S
C1258 C1261 1.403 . S
C1259 C1256 1.403 . S
C1259 C1260 1.524 . S
C1259 C1263 1.400 . S
C1260 H1245 0.960 . S
C1260 H1246 0.960 . S
C1260 H1247 0.960 . S
C1260 C1259 1.524 . S
C1261 C1258 1.403 . S
C1261 C1262 1.392 . S
C1261 C1265 1.495 . S
C1262 C1261 1.392 . S
C1262 C1263 1.385 . S
C1262 C1264 1.478 . S
C1263 H1257 0.930 . S
C1263 C1259 1.400 . S
C1263 C1262 1.385 . S
C1264 C1262 1.478 . S
C1264 C1266 1.381 . S
C1264 C1270 1.383 . S
C1265 C1261 1.495 . S
C1265 H1271 0.959 . S
C1265 H1272 0.961 . S
C1265 H1273 0.960 . S
C1266 C1264 1.381 . S
C1266 C1267 1.394 . S
C1266 H1274 0.930 . S
C1267 C1266 1.394 . S
C1267 C1268 1.383 . S
C1267 H1275 0.929 . S
C1268 C1267 1.383 . S
C1268 C1269 1.377 . S
C1269 H1253 0.930 . S
C1269 C1268 1.377 . S
C1269 C1270 1.379 . S
C1270 H1254 0.931 . S
C1270 C1264 1.383 . S
C1270 C1269 1.379 . S
H1271 C1265 0.959 . S
H1272 C1265 0.961 . S
H1273 C1265 0.960 . S
H1274 C1266 0.930 . S
H1275 C1267 0.929 . S
H1276 C1284 0.929 . S
H1277 C1286 0.930 . S
H1278 C1288 0.930 . S
H1279 C1291 0.929 . S
H1280 C1294 0.930 . S
H1281 C1296 0.960 . S
H1282 C1296 0.960 . S
H1283 C1296 0.960 . S
C1284 H1276 0.929 . S
C1284 C1285 1.377 . S
C1284 C1286 1.384 . S
C1285 C1284 1.377 . S
C1285 C1291 1.390 . S
C1286 H1277 0.930 . S
C1286 C1284 1.384 . S
C1286 C1287 1.372 . S
C1287 C1286 1.372 . S
C1287 C1288 1.400 . S
C1287 C1292 1.490 . S
C1288 H1278 0.930 . S
C1288 C1287 1.400 . S
C1288 C1291 1.386 . S
H1289 C1305 0.930 . S
H1290 C1306 0.931 . S
C1291 H1279 0.929 . S
C1291 C1285 1.390 . S
C1291 C1288 1.386 . S
C1292 C1287 1.490 . S
C1292 C1294 1.395 . S
C1292 C1295 1.403 . S
H1293 C1299 0.930 . S
C1294 H1280 0.930 . S
C1294 C1292 1.395 . S
C1294 C1297 1.403 . S
C1295 C1292 1.403 . S
C1295 C1296 1.524 . S
C1295 C1299 1.400 . S
C1296 H1281 0.960 . S
C1296 H1282 0.960 . S
C1296 H1283 0.960 . S
C1296 C1295 1.524 . S
C1297 C1294 1.403 . S
C1297 C1298 1.392 . S
C1297 C1301 1.495 . S
C1298 C1297 1.392 . S
C1298 C1299 1.385 . S
C1298 C1300 1.478 . S
C1299 H1293 0.930 . S
C1299 C1295 1.400 . S
C1299 C1298 1.385 . S
C1300 C1298 1.478 . S
C1300 C1302 1.381 . S
C1300 C1306 1.383 . S
C1301 C1297 1.495 . S
C1301 H1307 0.959 . S
C1301 H1308 0.961 . S
C1301 H1309 0.960 . S
C1302 C1300 1.381 . S
C1302 C1303 1.394 . S
C1302 H1310 0.930 . S
C1303 C1302 1.394 . S
C1303 C1304 1.383 . S
C1303 H1311 0.929 . S
C1304 C1303 1.383 . S
C1304 C1305 1.377 . S
C1305 H1289 0.930 . S
C1305 C1304 1.377 . S
C1305 C1306 1.379 . S
C1306 H1290 0.931 . S
C1306 C1300 1.383 . S
C1306 C1305 1.379 . S
H1307 C1301 0.959 . S
H1308 C1301 0.961 . S
H1309 C1301 0.960 . S
H1310 C1302 0.930 . S
H1311 C1303 0.929 . S
C457 C241 1.865 . S
C476 C297 2.027 . S
C512 C337 2.033 . S
C493 C277 1.925 . S
C548 C377 2.020 . S
C529 C169 1.872 . S
C584 C417 2.026 1_455 S
C565 C205 1.876 1_655 S
C620 C306 2.011 1_565 S
C601 C97 1.879 . S
C637 C133 1.922 . S
C656 C346 2.022 . S
C673 C25 1.873 . S
C692 C386 2.024 . S
C709 C61 1.878 . S
C728 C426 2.031 1_655 S
C764 C303 0.354 . S
C745 C211 0.285 . S
C800 C343 0.374 . S
C781 C247 0.284 . S
C836 C383 0.193 . S
C817 C253 0.267 . S
C853 C175 0.251 . S
C872 C423 0.234 . S
C889 C67 0.372 1_655 S
C908 C294 0.192 . S
C944 C334 0.245 . S
C925 C103 0.382 . S
C980 C374 0.179 . S
C961 C109 0.200 . S
C997 C31 0.344 . S
C1016 C414 0.370 . S
C1033 C181 2.545 . S
C1052 C307 2.812 . S
C1069 C217 2.521 . S
C1088 C347 2.778 . S
C1124 C387 2.797 . S
C1105 C283 2.470 . S
C1160 C427 2.791 . S
C1141 C145 2.525 . S
C1177 C37 2.545 1_655 S
C1196 C298 2.801 . S
C1232 C338 2.791 . S
C1213 C73 2.529 . S
C1268 C378 2.786 . S
C1249 C139 2.469 . S
C1285 C1 2.535 . S
C1304 C418 2.799 . S
