# Generated by pormake.
# Topology eea, (3,6)-cn, num edge types: 1
# Building blocks:
#     Node 0, Type 0, BuildingBlock: VETTIZ_charged_linker_0, # of connection points: 3
#     Node 1, Type 0, BuildingBlock: VETTIZ_charged_linker_0, # of connection points: 3
#     Node 2, Type 0, BuildingBlock: VETTIZ_charged_linker_0, # of connection points: 3
#     Node 3, Type 0, BuildingBlock: VETTIZ_charged_linker_0, # of connection points: 3
#     Node 4, Type 0, BuildingBlock: VETTIZ_charged_linker_0, # of connection points: 3
#     Node 5, Type 0, BuildingBlock: VETTIZ_charged_linker_0, # of connection points: 3
#     Node 6, Type 0, BuildingBlock: VETTIZ_charged_linker_0, # of connection points: 3
#     Node 7, Type 0, BuildingBlock: VETTIZ_charged_linker_0, # of connection points: 3
#     Node 8, Type 0, BuildingBlock: VETTIZ_charged_linker_0, # of connection points: 3
#     Node 9, Type 0, BuildingBlock: VETTIZ_charged_linker_0, # of connection points: 3
#     Node 10, Type 0, BuildingBlock: VETTIZ_charged_linker_0, # of connection points: 3
#     Node 11, Type 0, BuildingBlock: VETTIZ_charged_linker_0, # of connection points: 3
#     Node 12, Type 0, BuildingBlock: VETTIZ_charged_linker_0, # of connection points: 3
#     Node 13, Type 0, BuildingBlock: VETTIZ_charged_linker_0, # of connection points: 3
#     Node 14, Type 0, BuildingBlock: VETTIZ_charged_linker_0, # of connection points: 3
#     Node 15, Type 0, BuildingBlock: VETTIZ_charged_linker_0, # of connection points: 3
#     Node 16, Type 0, BuildingBlock: VETTIZ_charged_linker_0, # of connection points: 3
#     Node 17, Type 0, BuildingBlock: VETTIZ_charged_linker_0, # of connection points: 3
#     Node 18, Type 1, BuildingBlock: CUKXOW_clean_sbu_0, # of connection points: 6
#     Node 19, Type 1, BuildingBlock: CUKXOW_clean_sbu_0, # of connection points: 6
#     Node 20, Type 1, BuildingBlock: CUKXOW_clean_sbu_0, # of connection points: 6
#     Node 21, Type 1, BuildingBlock: CUKXOW_clean_sbu_0, # of connection points: 6
#     Node 22, Type 1, BuildingBlock: CUKXOW_clean_sbu_0, # of connection points: 6
#     Node 23, Type 1, BuildingBlock: CUKXOW_clean_sbu_0, # of connection points: 6
#     Node 24, Type 1, BuildingBlock: CUKXOW_clean_sbu_0, # of connection points: 6
#     Node 25, Type 1, BuildingBlock: CUKXOW_clean_sbu_0, # of connection points: 6
#     Node 26, Type 1, BuildingBlock: CUKXOW_clean_sbu_0, # of connection points: 6
#     Edge 27, Type (0, 1), BuildingBlock: XUDNAN_clean_linker_2, # of connection points: 2
#     Edge 28, Type (0, 1), BuildingBlock: XUDNAN_clean_linker_2, # of connection points: 2
#     Edge 29, Type (0, 1), BuildingBlock: XUDNAN_clean_linker_2, # of connection points: 2
#     Edge 30, Type (0, 1), BuildingBlock: XUDNAN_clean_linker_2, # of connection points: 2
#     Edge 31, Type (0, 1), BuildingBlock: XUDNAN_clean_linker_2, # of connection points: 2
#     Edge 32, Type (0, 1), BuildingBlock: XUDNAN_clean_linker_2, # of connection points: 2
#     Edge 33, Type (0, 1), BuildingBlock: XUDNAN_clean_linker_2, # of connection points: 2
#     Edge 34, Type (0, 1), BuildingBlock: XUDNAN_clean_linker_2, # of connection points: 2
#     Edge 35, Type (0, 1), BuildingBlock: XUDNAN_clean_linker_2, # of connection points: 2
#     Edge 36, Type (0, 1), BuildingBlock: XUDNAN_clean_linker_2, # of connection points: 2
#     Edge 37, Type (0, 1), BuildingBlock: XUDNAN_clean_linker_2, # of connection points: 2
#     Edge 38, Type (0, 1), BuildingBlock: XUDNAN_clean_linker_2, # of connection points: 2
#     Edge 39, Type (0, 1), BuildingBlock: XUDNAN_clean_linker_2, # of connection points: 2
#     Edge 40, Type (0, 1), BuildingBlock: XUDNAN_clean_linker_2, # of connection points: 2
#     Edge 41, Type (0, 1), BuildingBlock: XUDNAN_clean_linker_2, # of connection points: 2
#     Edge 42, Type (0, 1), BuildingBlock: XUDNAN_clean_linker_2, # of connection points: 2
#     Edge 43, Type (0, 1), BuildingBlock: XUDNAN_clean_linker_2, # of connection points: 2
#     Edge 44, Type (0, 1), BuildingBlock: XUDNAN_clean_linker_2, # of connection points: 2
#     Edge 45, Type (0, 1), BuildingBlock: XUDNAN_clean_linker_2, # of connection points: 2
#     Edge 46, Type (0, 1), BuildingBlock: XUDNAN_clean_linker_2, # of connection points: 2
#     Edge 47, Type (0, 1), BuildingBlock: XUDNAN_clean_linker_2, # of connection points: 2
#     Edge 48, Type (0, 1), BuildingBlock: XUDNAN_clean_linker_2, # of connection points: 2
#     Edge 49, Type (0, 1), BuildingBlock: XUDNAN_clean_linker_2, # of connection points: 2
#     Edge 50, Type (0, 1), BuildingBlock: XUDNAN_clean_linker_2, # of connection points: 2
#     Edge 51, Type (0, 1), BuildingBlock: XUDNAN_clean_linker_2, # of connection points: 2
#     Edge 52, Type (0, 1), BuildingBlock: XUDNAN_clean_linker_2, # of connection points: 2
#     Edge 53, Type (0, 1), BuildingBlock: XUDNAN_clean_linker_2, # of connection points: 2
#     Edge 54, Type (0, 1), BuildingBlock: XUDNAN_clean_linker_2, # of connection points: 2
#     Edge 55, Type (0, 1), BuildingBlock: XUDNAN_clean_linker_2, # of connection points: 2
#     Edge 56, Type (0, 1), BuildingBlock: XUDNAN_clean_linker_2, # of connection points: 2
#     Edge 57, Type (0, 1), BuildingBlock: XUDNAN_clean_linker_2, # of connection points: 2
#     Edge 58, Type (0, 1), BuildingBlock: XUDNAN_clean_linker_2, # of connection points: 2
#     Edge 59, Type (0, 1), BuildingBlock: XUDNAN_clean_linker_2, # of connection points: 2
#     Edge 60, Type (0, 1), BuildingBlock: XUDNAN_clean_linker_2, # of connection points: 2
#     Edge 61, Type (0, 1), BuildingBlock: XUDNAN_clean_linker_2, # of connection points: 2
#     Edge 62, Type (0, 1), BuildingBlock: XUDNAN_clean_linker_2, # of connection points: 2
#     Edge 63, Type (0, 1), BuildingBlock: XUDNAN_clean_linker_2, # of connection points: 2
#     Edge 64, Type (0, 1), BuildingBlock: XUDNAN_clean_linker_2, # of connection points: 2
#     Edge 65, Type (0, 1), BuildingBlock: XUDNAN_clean_linker_2, # of connection points: 2
#     Edge 66, Type (0, 1), BuildingBlock: XUDNAN_clean_linker_2, # of connection points: 2
#     Edge 67, Type (0, 1), BuildingBlock: XUDNAN_clean_linker_2, # of connection points: 2
#     Edge 68, Type (0, 1), BuildingBlock: XUDNAN_clean_linker_2, # of connection points: 2
#     Edge 69, Type (0, 1), BuildingBlock: XUDNAN_clean_linker_2, # of connection points: 2
#     Edge 70, Type (0, 1), BuildingBlock: XUDNAN_clean_linker_2, # of connection points: 2
#     Edge 71, Type (0, 1), BuildingBlock: XUDNAN_clean_linker_2, # of connection points: 2
#     Edge 72, Type (0, 1), BuildingBlock: XUDNAN_clean_linker_2, # of connection points: 2
#     Edge 73, Type (0, 1), BuildingBlock: XUDNAN_clean_linker_2, # of connection points: 2
#     Edge 74, Type (0, 1), BuildingBlock: XUDNAN_clean_linker_2, # of connection points: 2
#     Edge 75, Type (0, 1), BuildingBlock: XUDNAN_clean_linker_2, # of connection points: 2
#     Edge 76, Type (0, 1), BuildingBlock: XUDNAN_clean_linker_2, # of connection points: 2
#     Edge 77, Type (0, 1), BuildingBlock: XUDNAN_clean_linker_2, # of connection points: 2
#     Edge 78, Type (0, 1), BuildingBlock: XUDNAN_clean_linker_2, # of connection points: 2
#     Edge 79, Type (0, 1), BuildingBlock: XUDNAN_clean_linker_2, # of connection points: 2
#     Edge 80, Type (0, 1), BuildingBlock: XUDNAN_clean_linker_2, # of connection points: 2
# Relax obj value: 0.018
# Max RMSD: 0.128
# Mean RMSD: 0.057
data_MOF--net-eea--node1-CUKXOW_clean_sbu_0--node2-VETTIZ_charged_linker_0--edge1-XUDNAN_clean_linker_2
_symmetry_space_group_name_H-M    P1
_symmetry_Int_Tables_number       1
_symmetry_cell_setting            triclinic
loop_
_symmetry_equiv_pos_as_xyz
'x, y, z'
_cell_length_a     66.581829
_cell_length_b     63.581583
_cell_length_c     73.128091
_cell_angle_alpha  93.082674
_cell_angle_beta   92.948275
_cell_angle_gamma 119.87775
loop_
_atom_site_label
_atom_site_type_symbol
_atom_site_fract_x
_atom_site_fract_y
_atom_site_fract_z
_atom_type_partial_charge
C0 C 0.23278 0.18277 0.40263 0.0
C1 C 0.23488 0.20422 0.41103 0.0
C2 C 0.24271 0.21097 0.42979 0.0
C3 C 0.24743 0.17565 0.43139 0.0
C4 C 0.23909 0.16874 0.41305 0.0
C5 C 0.23822 0.14549 0.40627 0.0
H6 H 0.26338 0.05708 0.42326 0.0
C7 C 0.25405 0.15814 0.43792 0.0
C8 C 0.2489 0.14055 0.42316 0.0
H9 H 0.22247 0.05856 0.376 0.0
H10 H 0.2299 0.09846 0.38778 0.0
H11 H 0.30325 0.11557 0.42875 0.0
H12 H 0.23834 0.06829 0.44979 0.0
H13 H 0.25414 0.09046 0.46802 0.0
H14 H 0.26511 0.0714 0.45933 0.0
H15 H 0.29954 0.09385 0.44485 0.0
H16 H 0.3068 0.12454 0.4524 0.0
C17 C 0.25343 0.15055 0.38996 0.0
C18 C 0.21239 0.1256 0.40147 0.0
C19 C 0.28422 0.16464 0.50487 0.0
C20 C 0.2916 0.15044 0.51406 0.0
C21 C 0.29482 0.13315 0.50385 0.0
C22 C 0.28947 0.12888 0.48485 0.0
C23 C 0.28049 0.1418 0.47591 0.0
C24 C 0.2788 0.16001 0.48568 0.0
C25 C 0.26963 0.17226 0.47336 0.0
C26 C 0.26461 0.15715 0.45504 0.0
C27 C 0.27087 0.13928 0.45679 0.0
C28 C 0.28922 0.199 0.47268 0.0
C29 C 0.24714 0.16954 0.48069 0.0
C30 C 0.25603 0.06592 0.41531 0.0
C31 C 0.24202 0.05438 0.3988 0.0
C32 C 0.23332 0.06697 0.38878 0.0
C33 C 0.23738 0.08998 0.39577 0.0
C34 C 0.25001 0.10033 0.41304 0.0
C35 C 0.25918 0.08828 0.42238 0.0
C36 C 0.26991 0.10022 0.44131 0.0
C37 C 0.26562 0.12149 0.44196 0.0
C38 C 0.25438 0.12184 0.4253 0.0
C39 C 0.29624 0.10891 0.44206 0.0
C40 C 0.25644 0.08178 0.45543 0.0
H41 H 0.25512 0.20295 0.45423 0.0
H42 H 0.22676 0.17732 0.3882 0.0
H43 H 0.20068 0.12911 0.40982 0.0
H44 H 0.20888 0.10732 0.40464 0.0
H45 H 0.20683 0.12488 0.38676 0.0
H46 H 0.27043 0.16763 0.39326 0.0
H47 H 0.24473 0.15269 0.37741 0.0
H48 H 0.25756 0.13607 0.38667 0.0
H49 H 0.28173 0.17811 0.51251 0.0
H50 H 0.30065 0.12222 0.51075 0.0
H51 H 0.29171 0.11497 0.47799 0.0
H52 H 0.3067 0.20075 0.47446 0.0
H53 H 0.28845 0.21118 0.48375 0.0
H54 H 0.28875 0.20601 0.45925 0.0
H55 H 0.23587 0.15071 0.48452 0.0
H56 H 0.23638 0.17259 0.47038 0.0
H57 H 0.25122 0.18232 0.49311 0.0
H58 H 0.24448 0.22755 0.43638 0.0
C59 C 0.24903 0.19679 0.44003 0.0
C60 C 0.95395 0.17418 0.42323 0.0
C61 C 0.97143 0.19424 0.4346 0.0
C62 C 0.96665 0.19849 0.45261 0.0
C63 C 0.92804 0.16278 0.44768 0.0
C64 C 0.93252 0.15897 0.42994 0.0
C65 C 0.91222 0.13715 0.4194 0.0
H66 H 0.80581 0.03722 0.41799 0.0
C67 C 0.90417 0.14327 0.45038 0.0
C68 C 0.89476 0.12841 0.43373 0.0
H69 H 0.85077 0.06213 0.37386 0.0
H70 H 0.87821 0.0982 0.39304 0.0
H71 H 0.84657 0.05238 0.45071 0.0
H72 H 0.8111 0.08846 0.43026 0.0
H73 H 0.81796 0.09771 0.45389 0.0
H74 H 0.79869 0.06589 0.44629 0.0
H75 H 0.81627 0.0418 0.45256 0.0
H76 H 0.83824 0.06377 0.46955 0.0
C77 C 0.91998 0.11848 0.41418 0.0
C78 C 0.90388 0.14592 0.40279 0.0
C79 C 0.87308 0.13533 0.51359 0.0
C80 C 0.85168 0.11863 0.51999 0.0
C81 C 0.83381 0.1011 0.50711 0.0
C82 C 0.83745 0.09929 0.48857 0.0
C83 C 0.85918 0.11523 0.48258 0.0
C84 C 0.87638 0.13334 0.49485 0.0
C85 C 0.89791 0.14943 0.48557 0.0
C86 C 0.89096 0.13742 0.46593 0.0
C87 C 0.86831 0.11719 0.46438 0.0
C88 C 0.91843 0.14767 0.49474 0.0
C89 C 0.90159 0.17553 0.48679 0.0
C90 C 0.82141 0.05062 0.41239 0.0
C91 C 0.82624 0.04657 0.39443 0.0
C92 C 0.84683 0.0645 0.38775 0.0
C93 C 0.86275 0.08552 0.39892 0.0
C94 C 0.85821 0.0888 0.41707 0.0
C95 C 0.83761 0.07178 0.42343 0.0
C96 C 0.83574 0.07853 0.44309 0.0
C97 C 0.85883 0.10212 0.44753 0.0
C98 C 0.87194 0.10788 0.43227 0.0
C99 C 0.83398 0.05809 0.4547 0.0
C100 C 0.81474 0.08274 0.44356 0.0
H101 H 0.94266 0.18703 0.47303 0.0
H102 H 0.9569 0.17 0.40943 0.0
H103 H 0.90718 0.16475 0.40596 0.0
H104 H 0.88489 0.13483 0.39915 0.0
H105 H 0.91307 0.146 0.39052 0.0
H106 H 0.93158 0.11817 0.42555 0.0
H107 H 0.92975 0.1232 0.40176 0.0
H108 H 0.90541 0.09956 0.41182 0.0
H109 H 0.88713 0.14921 0.52298 0.0
H110 H 0.81685 0.08858 0.51137 0.0
H111 H 0.82322 0.08532 0.47964 0.0
H112 H 0.91299 0.12839 0.49676 0.0
H113 H 0.92455 0.15826 0.50843 0.0
H114 H 0.93335 0.15405 0.48636 0.0
H115 H 0.88468 0.17513 0.48659 0.0
H116 H 0.90987 0.1855 0.4749 0.0
H117 H 0.91214 0.18627 0.49969 0.0
H118 H 0.97948 0.21402 0.46164 0.0
C119 C 0.94514 0.18288 0.4592 0.0
C120 C 0.95282 0.78611 0.41588 0.0
C121 C 0.97231 0.78448 0.42203 0.0
C122 C 0.97187 0.77411 0.43874 0.0
C123 C 0.93415 0.76987 0.44349 0.0
C124 C 0.93441 0.77931 0.42686 0.0
C125 C 0.91408 0.78298 0.42301 0.0
H126 H 0.81942 0.78301 0.45161 0.0
C127 C 0.91332 0.7668 0.4522 0.0
C128 C 0.90183 0.77491 0.4403 0.0
H129 H 0.84882 0.80268 0.39962 0.0
H130 H 0.87822 0.7927 0.40866 0.0
H131 H 0.82505 0.73402 0.4527 0.0
H132 H 0.86406 0.80818 0.47629 0.0
H133 H 0.86982 0.79149 0.49197 0.0
H134 H 0.8404 0.78546 0.48735 0.0
H135 H 0.81513 0.74736 0.46967 0.0
H136 H 0.83237 0.734 0.47618 0.0
C137 C 0.89919 0.76591 0.40576 0.0
C138 C 0.92354 0.81049 0.42115 0.0
C139 C 0.89132 0.72838 0.513 0.0
C140 C 0.87424 0.72594 0.52485 0.0
C141 C 0.86081 0.73687 0.52049 0.0
C142 C 0.86296 0.74816 0.50429 0.0
C143 C 0.87911 0.7493 0.4923 0.0
C144 C 0.89372 0.74053 0.49703 0.0
C145 C 0.91198 0.74664 0.48358 0.0
C146 C 0.90438 0.75844 0.46927 0.0
C147 C 0.88491 0.75959 0.47448 0.0
C148 C 0.91021 0.72281 0.4754 0.0
C149 C 0.93605 0.76492 0.49375 0.0
C150 C 0.83231 0.78533 0.44224 0.0
C151 C 0.83191 0.79379 0.42494 0.0
C152 C 0.84869 0.79606 0.41298 0.0
C153 C 0.86582 0.79037 0.4183 0.0
C154 C 0.86621 0.78231 0.43578 0.0
C155 C 0.84946 0.77963 0.44731 0.0
C156 C 0.85215 0.77024 0.46514 0.0
C157 C 0.87348 0.76794 0.4625 0.0
C158 C 0.88169 0.77518 0.44538 0.0
C159 C 0.83005 0.74514 0.46617 0.0
C160 C 0.85669 0.78965 0.48109 0.0
H161 H 0.9535 0.75912 0.46209 0.0
H162 H 0.95209 0.79327 0.40291 0.0
H163 H 0.93937 0.82191 0.43075 0.0
H164 H 0.91125 0.81656 0.42483 0.0
H165 H 0.92831 0.81512 0.40699 0.0
H166 H 0.89974 0.74868 0.40503 0.0
H167 H 0.90562 0.77468 0.39294 0.0
H168 H 0.88053 0.76002 0.40588 0.0
H169 H 0.90246 0.72088 0.51586 0.0
H170 H 0.84858 0.73697 0.52961 0.0
H171 H 0.85189 0.75564 0.50178 0.0
H172 H 0.89185 0.70918 0.47059 0.0
H173 H 0.9164 0.71479 0.48586 0.0
H174 H 0.92035 0.72552 0.46339 0.0
H175 H 0.93449 0.77629 0.50507 0.0
H176 H 0.94793 0.77818 0.48472 0.0
H177 H 0.94447 0.75531 0.4999 0.0
H178 H 0.98656 0.77251 0.44386 0.0
C179 C 0.95282 0.76665 0.44943 0.0
C180 C 0.17058 0.21547 0.57938 0.0
C181 C 0.19168 0.22219 0.57172 0.0
C182 C 0.19684 0.2356 0.55617 0.0
C183 C 0.15993 0.23457 0.55579 0.0
C184 C 0.15504 0.22179 0.5712 0.0
C185 C 0.13181 0.21589 0.57753 0.0
H186 H 0.03734 0.22943 0.57065 0.0
C187 C 0.13987 0.23763 0.55043 0.0
C188 C 0.12329 0.22664 0.56307 0.0
H189 H 0.05693 0.1944 0.61131 0.0
H190 H 0.08927 0.2002 0.59486 0.0
H191 H 0.08985 0.27377 0.56422 0.0
H192 H 0.04634 0.20214 0.53612 0.0
H193 H 0.06348 0.22101 0.51986 0.0
H194 H 0.04297 0.2274 0.53055 0.0
H195 H 0.06187 0.26359 0.55217 0.0
H196 H 0.08752 0.27522 0.54012 0.0
C197 C 0.13622 0.22931 0.59694 0.0
C198 C 0.11628 0.18779 0.57664 0.0
C199 C 0.14159 0.28261 0.4947 0.0
C200 C 0.12487 0.28618 0.48491 0.0
C201 C 0.10261 0.27655 0.49153 0.0
C202 C 0.09744 0.26439 0.50761 0.0
C203 C 0.11445 0.26123 0.51714 0.0
C204 C 0.13587 0.26973 0.51035 0.0
C205 C 0.15103 0.26258 0.52112 0.0
C206 C 0.13536 0.24882 0.53572 0.0
C207 C 0.11411 0.24855 0.53362 0.0
C208 C 0.17311 0.28615 0.52955 0.0
C209 C 0.15588 0.24581 0.50813 0.0
C210 C 0.04854 0.22288 0.57585 0.0
C211 C 0.04498 0.21211 0.59262 0.0
C212 C 0.05971 0.20344 0.59876 0.0
C213 C 0.07853 0.20681 0.58917 0.0
C214 C 0.08285 0.219 0.57316 0.0
C215 C 0.06764 0.22616 0.56635 0.0
C216 C 0.0748 0.23793 0.54861 0.0
C217 C 0.09754 0.23803 0.54673 0.0
C218 C 0.1021 0.22695 0.56123 0.0
C219 C 0.07868 0.26403 0.55128 0.0
C220 C 0.05595 0.22147 0.53292 0.0
H221 H 0.18611 0.25201 0.53638 0.0
H222 H 0.16597 0.20504 0.59124 0.0
H223 H 0.12028 0.17876 0.56508 0.0
H224 H 0.09756 0.18149 0.57387 0.0
H225 H 0.11902 0.18071 0.58952 0.0
H226 H 0.15263 0.24724 0.59817 0.0
H227 H 0.13782 0.21851 0.60777 0.0
H228 H 0.12268 0.23378 0.60009 0.0
H229 H 0.15895 0.28966 0.49046 0.0
H230 H 0.08889 0.27802 0.4842 0.0
H231 H 0.08031 0.2577 0.51195 0.0
H232 H 0.16861 0.29997 0.53463 0.0
H233 H 0.18584 0.29431 0.51917 0.0
H234 H 0.18177 0.28324 0.54162 0.0
H235 H 0.14126 0.23532 0.49728 0.0
H236 H 0.15737 0.23172 0.51531 0.0
H237 H 0.17188 0.25655 0.50112 0.0
H238 H 0.21313 0.2414 0.55017 0.0
C239 C 0.18113 0.24182 0.54819 0.0
C240 C 0.77858 0.81468 0.5965 0.0
C241 C 0.77187 0.79238 0.58648 0.0
C242 C 0.76145 0.78798 0.56834 0.0
C243 C 0.76443 0.82776 0.57059 0.0
C244 C 0.77444 0.83184 0.58843 0.0
C245 C 0.779 0.8556 0.59781 0.0
H246 H 0.77853 0.96144 0.59482 0.0
C247 C 0.76201 0.8491 0.56661 0.0
C248 C 0.77029 0.86528 0.58267 0.0
H249 H 0.80094 0.93538 0.64056 0.0
H250 H 0.78991 0.89802 0.62236 0.0
H251 H 0.80002 0.94317 0.56413 0.0
H252 H 0.7314 0.91055 0.58252 0.0
H253 H 0.72773 0.90344 0.55862 0.0
H254 H 0.74175 0.93493 0.56786 0.0
H255 H 0.78036 0.95411 0.55905 0.0
H256 H 0.78021 0.93026 0.54447 0.0
C257 C 0.80559 0.87177 0.60272 0.0
C258 C 0.76426 0.8501 0.61454 0.0
C259 C 0.73304 0.85638 0.5023 0.0
C260 C 0.73024 0.87488 0.49484 0.0
C261 C 0.73404 0.89501 0.5067 0.0
C262 C 0.74137 0.89733 0.52533 0.0
C263 C 0.74506 0.87935 0.53244 0.0
C264 C 0.74054 0.85905 0.52111 0.0
C265 C 0.74512 0.84167 0.53143 0.0
C266 C 0.75377 0.85531 0.55055 0.0
C267 C 0.75369 0.87741 0.55097 0.0
C268 C 0.76421 0.83888 0.5223 0.0
C269 C 0.72182 0.8175 0.53152 0.0
C270 C 0.78074 0.94753 0.60098 0.0
C271 C 0.79087 0.95157 0.61915 0.0
C272 C 0.7936 0.933 0.62652 0.0
C273 C 0.78709 0.9112 0.61592 0.0
C274 C 0.77767 0.90771 0.59764 0.0
C275 C 0.77434 0.92556 0.59051 0.0
C276 C 0.76414 0.91858 0.57078 0.0
C277 C 0.76195 0.89366 0.56728 0.0
C278 C 0.77005 0.88752 0.58305 0.0
C279 C 0.78189 0.93749 0.55887 0.0
C280 C 0.74007 0.91691 0.56971 0.0
H281 H 0.74989 0.8012 0.54645 0.0
H282 H 0.78611 0.81834 0.6106 0.0
H283 H 0.74808 0.83201 0.61216 0.0
H284 H 0.75806 0.86312 0.61713 0.0
H285 H 0.77412 0.84996 0.62721 0.0
H286 H 0.8153 0.86973 0.59147 0.0
H287 H 0.81118 0.86657 0.61545 0.0
H288 H 0.81152 0.89141 0.60443 0.0
H289 H 0.73016 0.84062 0.4936 0.0
H290 H 0.73149 0.90923 0.50149 0.0
H291 H 0.74417 0.91326 0.53344 0.0
H292 H 0.77857 0.85696 0.51929 0.0
H293 H 0.75707 0.82715 0.50912 0.0
H294 H 0.7724 0.83124 0.53116 0.0
H295 H 0.70704 0.82093 0.53229 0.0
H296 H 0.72122 0.80764 0.54365 0.0
H297 H 0.71828 0.80534 0.51883 0.0
H298 H 0.75606 0.77085 0.5604 0.0
C299 C 0.75785 0.8056 0.5603 0.0
C300 C 0.05444 0.83758 0.60046 0.0
C301 C 0.03346 0.81699 0.59314 0.0
C302 C 0.03154 0.80871 0.57442 0.0
C303 C 0.07046 0.84208 0.57089 0.0
C304 C 0.07215 0.85004 0.58914 0.0
C305 C 0.09409 0.87361 0.5948 0.0
H306 H 0.19719 0.96608 0.57549 0.0
C307 C 0.09199 0.85999 0.56301 0.0
C308 C 0.10551 0.87868 0.57697 0.0
H309 H 0.16536 0.95411 0.62675 0.0
H310 H 0.13163 0.91777 0.61269 0.0
H311 H 0.18156 0.90857 0.56527 0.0
H312 H 0.15103 0.9514 0.54901 0.0
H313 H 0.14709 0.93136 0.52989 0.0
H314 H 0.1762 0.95399 0.53913 0.0
H315 H 0.1952 0.93333 0.55109 0.0
H316 H 0.17423 0.90308 0.54135 0.0
C317 C 0.10826 0.86887 0.60989 0.0
C318 C 0.08736 0.89295 0.60081 0.0
C319 C 0.10973 0.84333 0.49853 0.0
C320 C 0.12818 0.85708 0.48788 0.0
C321 C 0.14529 0.8809 0.4947 0.0
C322 C 0.14469 0.89057 0.51221 0.0
C323 C 0.12668 0.87636 0.52303 0.0
C324 C 0.10913 0.85346 0.51593 0.0
C325 C 0.09043 0.84191 0.52893 0.0
C326 C 0.10051 0.86089 0.54543 0.0
C327 C 0.12191 0.88097 0.54192 0.0
C328 C 0.08829 0.81749 0.53359 0.0
C329 C 0.06767 0.83933 0.51989 0.0
C330 C 0.18271 0.95562 0.58347 0.0
C331 C 0.18363 0.9628 0.60218 0.0
C332 C 0.16479 0.9488 0.61231 0.0
C333 C 0.14526 0.92769 0.60409 0.0
C334 C 0.14455 0.9203 0.58549 0.0
C335 C 0.16297 0.93419 0.57542 0.0
C336 C 0.15912 0.92289 0.55593 0.0
C337 C 0.13535 0.90006 0.55606 0.0
C338 C 0.1271 0.89877 0.57345 0.0
C339 C 0.17854 0.91669 0.55307 0.0
C340 C 0.15846 0.94078 0.54268 0.0
H341 H 0.04749 0.81392 0.54922 0.0
H342 H 0.05718 0.84434 0.61479 0.0
H343 H 0.07054 0.88887 0.59353 0.0
H344 H 0.09993 0.91142 0.59727 0.0
H345 H 0.08546 0.89357 0.6158 0.0
H346 H 0.10603 0.85039 0.60729 0.0
H347 H 0.10249 0.87004 0.6237 0.0
H348 H 0.1272 0.88142 0.61026 0.0
H349 H 0.09616 0.82512 0.49342 0.0
H350 H 0.15961 0.89175 0.48668 0.0
H351 H 0.15846 0.90865 0.51676 0.0
H352 H 0.10576 0.81997 0.53747 0.0
H353 H 0.0802 0.80364 0.52156 0.0
H354 H 0.07791 0.80999 0.5453 0.0
H355 H 0.0714 0.85413 0.51082 0.0
H356 H 0.05677 0.84105 0.53008 0.0
H357 H 0.05732 0.82169 0.51133 0.0
H358 H 0.01564 0.79305 0.56818 0.0
C359 C 0.04997 0.82103 0.56332 0.0
C360 C 0.89828 0.50853 0.73279 0.0
C361 C 0.89704 0.52802 0.74155 0.0
C362 C 0.90289 0.53337 0.76072 0.0
C363 C 0.90852 0.49842 0.76206 0.0
C364 C 0.90353 0.49386 0.7432 0.0
C365 C 0.9025 0.47083 0.73587 0.0
H366 H 0.90238 0.36704 0.75112 0.0
C367 C 0.91154 0.47842 0.76874 0.0
C368 C 0.90779 0.46217 0.75337 0.0
H369 H 0.89155 0.39101 0.69926 0.0
H370 H 0.89831 0.42873 0.71471 0.0
H371 H 0.94588 0.41516 0.76507 0.0
H372 H 0.87492 0.38812 0.77627 0.0
H373 H 0.89277 0.39945 0.7972 0.0
H374 H 0.89228 0.37505 0.78324 0.0
H375 H 0.93396 0.39655 0.78357 0.0
H376 H 0.94754 0.42934 0.78681 0.0
C377 C 0.92185 0.47758 0.72264 0.0
C378 C 0.87745 0.45316 0.72694 0.0
C379 C 0.9304 0.47619 0.83714 0.0
C380 C 0.93392 0.45947 0.84675 0.0
C381 C 0.93334 0.43961 0.83662 0.0
C382 C 0.92833 0.43571 0.81757 0.0
C383 C 0.92397 0.45189 0.80824 0.0
C384 C 0.92551 0.47205 0.81786 0.0
C385 C 0.92098 0.48754 0.80521 0.0
C386 C 0.91667 0.47334 0.78657 0.0
C387 C 0.91807 0.45222 0.78859 0.0
C388 C 0.94312 0.51295 0.8064 0.0
C389 C 0.89906 0.48798 0.81071 0.0
C390 C 0.9012 0.38037 0.7432 0.0
C391 C 0.89613 0.37598 0.724 0.0
C392 C 0.8954 0.394 0.71406 0.0
C393 C 0.89929 0.41587 0.72308 0.0
C394 C 0.90409 0.41995 0.7423 0.0
C395 C 0.90536 0.40253 0.75201 0.0
C396 C 0.91202 0.41072 0.77221 0.0
C397 C 0.91353 0.43547 0.77309 0.0
C398 C 0.90868 0.4406 0.75557 0.0
C399 C 0.93598 0.41296 0.77732 0.0
C400 C 0.8921 0.39241 0.78294 0.0
H401 H 0.91247 0.52333 0.7856 0.0
H402 H 0.89433 0.50409 0.71806 0.0
H403 H 0.8644 0.45572 0.73417 0.0
H404 H 0.87195 0.43378 0.72784 0.0
H405 H 0.87559 0.45626 0.7123 0.0
H406 H 0.93756 0.49535 0.72752 0.0
H407 H 0.91587 0.47919 0.70859 0.0
H408 H 0.92812 0.46443 0.72182 0.0
H409 H 0.93089 0.49174 0.84444 0.0
H410 H 0.93676 0.42688 0.84347 0.0
H411 H 0.92786 0.42006 0.81086 0.0
H412 H 0.95894 0.51123 0.80642 0.0
H413 H 0.94464 0.52401 0.81924 0.0
H414 H 0.94372 0.52321 0.79455 0.0
H415 H 0.88583 0.46987 0.81469 0.0
H416 H 0.89019 0.49182 0.79931 0.0
H417 H 0.9034 0.5016 0.82261 0.0
H418 H 0.90204 0.54825 0.76786 0.0
C419 C 0.9087 0.51872 0.77102 0.0
C420 C 0.60619 0.50378 0.74185 0.0
C421 C 0.6274 0.52176 0.75109 0.0
C422 C 0.62773 0.52984 0.76952 0.0
C423 C 0.58654 0.50021 0.76956 0.0
C424 C 0.58621 0.49323 0.75127 0.0
C425 C 0.56303 0.47238 0.74358 0.0
H426 H 0.46134 0.37697 0.75963 0.0
C427 C 0.56309 0.48406 0.77553 0.0
C428 C 0.54928 0.46788 0.76023 0.0
H429 H 0.49282 0.39347 0.70835 0.0
H430 H 0.52171 0.43379 0.72179 0.0
H431 H 0.50654 0.39838 0.78618 0.0
H432 H 0.46544 0.4293 0.76821 0.0
H433 H 0.47951 0.44566 0.78952 0.0
H434 H 0.45958 0.41319 0.78841 0.0
H435 H 0.47738 0.3886 0.79178 0.0
H436 H 0.50195 0.41272 0.80552 0.0
C437 C 0.56657 0.4507 0.73768 0.0
C438 C 0.55327 0.48108 0.72784 0.0
C439 C 0.54702 0.4868 0.84306 0.0
C440 C 0.5272 0.47216 0.85217 0.0
C441 C 0.5065 0.45486 0.84176 0.0
C442 C 0.50571 0.45115 0.8227 0.0
C443 C 0.52592 0.46461 0.81385 0.0
C444 C 0.54596 0.48268 0.82381 0.0
C445 C 0.56546 0.49532 0.81163 0.0
C446 C 0.55376 0.48162 0.7929 0.0
C447 C 0.53073 0.46333 0.7945 0.0
C448 C 0.58561 0.49125 0.81829 0.0
C449 C 0.57218 0.5224 0.81217 0.0
C450 C 0.47416 0.38964 0.75127 0.0
C451 C 0.47512 0.38225 0.73306 0.0
C452 C 0.49183 0.39898 0.7224 0.0
C453 C 0.50872 0.4222 0.73032 0.0
C454 C 0.50898 0.42851 0.74911 0.0
C455 C 0.49113 0.41291 0.75897 0.0
C456 C 0.49383 0.42304 0.77859 0.0
C457 C 0.51713 0.44653 0.77919 0.0
C458 C 0.5261 0.44931 0.762 0.0
C459 C 0.4949 0.40481 0.79131 0.0
C460 C 0.47354 0.42797 0.78147 0.0
H461 H 0.60876 0.52569 0.79291 0.0
H462 H 0.60521 0.49753 0.72758 0.0
H463 H 0.55934 0.50085 0.73029 0.0
H464 H 0.53406 0.47206 0.72678 0.0
H465 H 0.55894 0.47812 0.7144 0.0
H466 H 0.57923 0.44976 0.74766 0.0
H467 H 0.57345 0.45266 0.72397 0.0
H468 H 0.5507 0.43277 0.73732 0.0
H469 H 0.56311 0.50029 0.85079 0.0
H470 H 0.49099 0.44367 0.84851 0.0
H471 H 0.48957 0.43732 0.81568 0.0
H472 H 0.57874 0.47224 0.82194 0.0
H473 H 0.59579 0.50372 0.83069 0.0
H474 H 0.59757 0.49363 0.80769 0.0
H475 H 0.55641 0.52424 0.81221 0.0
H476 H 0.58073 0.53109 0.79996 0.0
H477 H 0.58374 0.53294 0.82474 0.0
H478 H 0.64387 0.54378 0.77693 0.0
C479 C 0.60738 0.51918 0.7788 0.0
C480 C 0.63013 0.11173 0.75987 0.0
C481 C 0.64781 0.10943 0.76914 0.0
C482 C 0.64272 0.09624 0.78483 0.0
C483 C 0.60299 0.08881 0.78187 0.0
C484 C 0.60816 0.10144 0.76637 0.0
C485 C 0.588 0.10289 0.75783 0.0
H486 H 0.47639 0.07603 0.75682 0.0
C487 C 0.57819 0.08031 0.78461 0.0
C488 C 0.56948 0.08846 0.77039 0.0
H489 H 0.52834 0.12015 0.72107 0.0
H490 H 0.5563 0.11276 0.73697 0.0
H491 H 0.48599 0.03475 0.75715 0.0
H492 H 0.51308 0.0983 0.79543 0.0
H493 H 0.50241 0.07214 0.80762 0.0
H494 H 0.483 0.07499 0.7914 0.0
H495 H 0.47091 0.03497 0.77669 0.0
H496 H 0.49271 0.02591 0.77788 0.0
C497 C 0.58184 0.09013 0.73802 0.0
C498 C 0.59467 0.13011 0.75904 0.0
C499 C 0.54018 0.03727 0.84098 0.0
C500 C 0.51713 0.02718 0.84594 0.0
C501 C 0.49977 0.02507 0.83284 0.0
C502 C 0.50539 0.03488 0.816 0.0
C503 C 0.52861 0.04682 0.81194 0.0
C504 C 0.54546 0.04677 0.82376 0.0
C505 C 0.56872 0.05806 0.81571 0.0
C506 C 0.56324 0.06659 0.79799 0.0
C507 C 0.5397 0.06024 0.79619 0.0
C508 C 0.57485 0.03787 0.81181 0.0
C509 C 0.58691 0.07962 0.82911 0.0
C510 C 0.49387 0.0843 0.75257 0.0
C511 C 0.50002 0.09854 0.73753 0.0
C512 C 0.52293 0.10872 0.73236 0.0
C513 C 0.53927 0.10455 0.74173 0.0
C514 C 0.53287 0.09019 0.75663 0.0
C515 C 0.51055 0.08042 0.76189 0.0
C516 C 0.50705 0.06587 0.77821 0.0
C517 C 0.53109 0.06879 0.78193 0.0
C518 C 0.54601 0.08298 0.76922 0.0
C519 C 0.48812 0.03901 0.77233 0.0
C520 C 0.50096 0.07826 0.79407 0.0
H521 H 0.61761 0.07657 0.80349 0.0
H522 H 0.63325 0.12133 0.74758 0.0
H523 H 0.60775 0.14084 0.77086 0.0
H524 H 0.5798 0.13275 0.76157 0.0
H525 H 0.60224 0.13862 0.74639 0.0
H526 H 0.58384 0.07375 0.7375 0.0
H527 H 0.59342 0.10252 0.72829 0.0
H528 H 0.56357 0.08324 0.73283 0.0
H529 H 0.55385 0.03859 0.85049 0.0
H530 H 0.48173 0.01634 0.8358 0.0
H531 H 0.49142 0.03324 0.80696 0.0
H532 H 0.55899 0.02024 0.8069 0.0
H533 H 0.58286 0.035 0.82444 0.0
H534 H 0.58658 0.04173 0.80077 0.0
H535 H 0.57988 0.09144 0.83372 0.0
H536 H 0.60301 0.09144 0.82275 0.0
H537 H 0.59157 0.07301 0.84149 0.0
H538 H 0.65608 0.09424 0.79225 0.0
C539 C 0.62041 0.08602 0.79131 0.0
C540 C 0.82772 0.55379 0.92011 0.0
C541 C 0.8465 0.55438 0.91173 0.0
C542 C 0.852 0.56461 0.89475 0.0
C543 C 0.81961 0.57236 0.89471 0.0
C544 C 0.81456 0.56254 0.91141 0.0
C545 C 0.79366 0.56208 0.91854 0.0
H546 H 0.70722 0.58828 0.91087 0.0
C547 C 0.80215 0.57963 0.88956 0.0
C548 C 0.78694 0.5735 0.90352 0.0
H549 H 0.72328 0.55302 0.95354 0.0
H550 H 0.75495 0.5556 0.93777 0.0
H551 H 0.75859 0.62833 0.90686 0.0
H552 H 0.71665 0.55863 0.87572 0.0
H553 H 0.73078 0.58093 0.86037 0.0
H554 H 0.71072 0.5832 0.87481 0.0
H555 H 0.73673 0.62343 0.88907 0.0
H556 H 0.76605 0.63219 0.88412 0.0
C557 C 0.80161 0.57822 0.93709 0.0
C558 C 0.77478 0.53506 0.91971 0.0
C559 C 0.80551 0.62013 0.83055 0.0
C560 C 0.79277 0.63044 0.82323 0.0
C561 C 0.77451 0.62952 0.83272 0.0
C562 C 0.76886 0.61836 0.84918 0.0
C563 C 0.78181 0.60826 0.85643 0.0
C564 C 0.79995 0.60944 0.84724 0.0
C565 C 0.8126 0.59897 0.8576 0.0
C566 C 0.79886 0.59097 0.87432 0.0
C567 C 0.78066 0.59628 0.87347 0.0
C568 C 0.83799 0.61959 0.86288 0.0
C569 C 0.81037 0.57707 0.8455 0.0
C570 C 0.71748 0.58091 0.91662 0.0
C571 C 0.71291 0.57069 0.93361 0.0
C572 C 0.72669 0.56138 0.94068 0.0
C573 C 0.74509 0.56281 0.93143 0.0
C574 C 0.74996 0.57366 0.9148 0.0
C575 C 0.73617 0.58228 0.9075 0.0
C576 C 0.7444 0.59341 0.8897 0.0
C577 C 0.76523 0.58987 0.88761 0.0
C578 C 0.76833 0.57838 0.90243 0.0
C579 C 0.75171 0.62073 0.89239 0.0
C580 C 0.72466 0.57847 0.87425 0.0
H581 H 0.84348 0.58085 0.87319 0.0
H582 H 0.82319 0.54658 0.93331 0.0
H583 H 0.77652 0.52269 0.90938 0.0
H584 H 0.75691 0.53159 0.91648 0.0
H585 H 0.77608 0.52906 0.93349 0.0
H586 H 0.81928 0.59433 0.93677 0.0
H587 H 0.80233 0.56791 0.94865 0.0
H588 H 0.79046 0.58598 0.94028 0.0
H589 H 0.81987 0.62095 0.82366 0.0
H590 H 0.7645 0.63734 0.82729 0.0
H591 H 0.75473 0.61818 0.8557 0.0
H592 H 0.83866 0.63708 0.86686 0.0
H593 H 0.84878 0.62246 0.85115 0.0
H594 H 0.84628 0.6162 0.87493 0.0
H595 H 0.79247 0.5659 0.83856 0.0
H596 H 0.81332 0.56448 0.85351 0.0
H597 H 0.82268 0.58332 0.83466 0.0
H598 H 0.86631 0.56524 0.88791 0.0
C599 C 0.83863 0.57355 0.88618 0.0
C600 C 0.43733 0.14625 0.93604 0.0
C601 C 0.43349 0.12517 0.92559 0.0
C602 C 0.42337 0.12037 0.90732 0.0
C603 C 0.423 0.15834 0.90966 0.0
C604 C 0.43211 0.16259 0.9278 0.0
C605 C 0.4371 0.18691 0.93643 0.0
H606 H 0.44133 0.29454 0.92809 0.0
C607 C 0.42108 0.17964 0.9049 0.0
C608 C 0.42913 0.19635 0.92061 0.0
H609 H 0.4659 0.27203 0.97476 0.0
H610 H 0.45149 0.23225 0.95879 0.0
H611 H 0.4601 0.27083 0.89765 0.0
H612 H 0.39318 0.24545 0.91826 0.0
H613 H 0.38768 0.23371 0.89512 0.0
H614 H 0.40283 0.26631 0.90082 0.0
H615 H 0.44274 0.28491 0.89417 0.0
H616 H 0.43871 0.25982 0.8789 0.0
C617 C 0.46368 0.20273 0.94183 0.0
C618 C 0.4219 0.18241 0.95272 0.0
C619 C 0.39695 0.18589 0.83887 0.0
C620 C 0.39365 0.20364 0.83064 0.0
C621 C 0.39484 0.2229 0.84213 0.0
C622 C 0.40082 0.2255 0.86107 0.0
C623 C 0.4056 0.20864 0.86886 0.0
C624 C 0.40272 0.18868 0.85799 0.0
C625 C 0.4069 0.17173 0.86915 0.0
C626 C 0.41374 0.18544 0.88823 0.0
C627 C 0.41339 0.20731 0.88784 0.0
C628 C 0.4272 0.16972 0.86153 0.0
C629 C 0.38377 0.14715 0.86842 0.0
C630 C 0.44329 0.28087 0.93489 0.0
C631 C 0.45476 0.28635 0.95267 0.0
C632 C 0.45728 0.26824 0.96102 0.0
C633 C 0.4489 0.24517 0.95171 0.0
C634 C 0.43821 0.24019 0.93369 0.0
C635 C 0.43542 0.25784 0.92561 0.0
C636 C 0.4246 0.24965 0.90608 0.0
C637 C 0.42159 0.22428 0.90374 0.0
C638 C 0.42951 0.21884 0.91999 0.0
C639 C 0.44227 0.26717 0.89341 0.0
C640 C 0.40091 0.24885 0.90484 0.0
H641 H 0.41081 0.13229 0.88529 0.0
H642 H 0.44547 0.15064 0.94999 0.0
H643 H 0.40409 0.16663 0.949 0.0
H644 H 0.41939 0.19789 0.95664 0.0
H645 H 0.42949 0.1783 0.96495 0.0
H646 H 0.47368 0.19738 0.93284 0.0
H647 H 0.4682 0.20083 0.95624 0.0
H648 H 0.47055 0.22223 0.94004 0.0
H649 H 0.39578 0.17061 0.83061 0.0
H650 H 0.39136 0.23627 0.83646 0.0
H651 H 0.40184 0.24081 0.86889 0.0
H652 H 0.44143 0.18796 0.85866 0.0
H653 H 0.42131 0.15768 0.84848 0.0
H654 H 0.4353 0.16288 0.87127 0.0
H655 H 0.36849 0.14981 0.86686 0.0
H656 H 0.38175 0.13815 0.88127 0.0
H657 H 0.38218 0.13448 0.85664 0.0
H658 H 0.42018 0.10418 0.89903 0.0
C659 C 0.41801 0.13675 0.89935 0.0
C660 C 0.72191 0.15886 0.92473 0.0
C661 C 0.70601 0.1365 0.91479 0.0
C662 C 0.71147 0.13102 0.89736 0.0
C663 C 0.74732 0.16997 0.89994 0.0
C664 C 0.7424 0.17497 0.91722 0.0
C665 C 0.76141 0.19877 0.92656 0.0
H666 H 0.86374 0.30274 0.92388 0.0
C667 C 0.76995 0.19076 0.89617 0.0
C668 C 0.77837 0.2075 0.9119 0.0
H669 H 0.82151 0.27827 0.96953 0.0
H670 H 0.79371 0.24119 0.95116 0.0
H671 H 0.86235 0.25533 0.91411 0.0
H672 H 0.82003 0.28228 0.89069 0.0
H673 H 0.82973 0.27111 0.87265 0.0
H674 H 0.8507 0.29555 0.8888 0.0
H675 H 0.87176 0.27507 0.89595 0.0
H676 H 0.85464 0.24234 0.89126 0.0
C677 C 0.77171 0.19351 0.94411 0.0
C678 C 0.75115 0.21561 0.9302 0.0
C679 C 0.80092 0.19553 0.83299 0.0
C680 C 0.82155 0.21301 0.82601 0.0
C681 C 0.83831 0.23286 0.83811 0.0
C682 C 0.83423 0.23609 0.85629 0.0
C683 C 0.81327 0.21918 0.86281 0.0
C684 C 0.79723 0.19893 0.85146 0.0
C685 C 0.7767 0.18211 0.86151 0.0
C686 C 0.7828 0.19622 0.88041 0.0
C687 C 0.80416 0.21804 0.88092 0.0
C688 C 0.77635 0.15764 0.86234 0.0
C689 C 0.75446 0.17968 0.85162 0.0
C690 C 0.84829 0.28945 0.92975 0.0
C691 C 0.84447 0.29336 0.948 0.0
C692 C 0.82461 0.27552 0.95544 0.0
C693 C 0.80858 0.25403 0.94476 0.0
C694 C 0.81265 0.2502 0.92652 0.0
C695 C 0.83235 0.26766 0.91936 0.0
C696 C 0.83451 0.25984 0.90013 0.0
C697 C 0.81267 0.23491 0.89684 0.0
C698 C 0.79988 0.22955 0.91227 0.0
C699 C 0.857 0.25817 0.90021 0.0
C700 C 0.83386 0.27812 0.88728 0.0
H701 H 0.73486 0.1425 0.87651 0.0
H702 H 0.71852 0.16407 0.93804 0.0
H703 H 0.73941 0.21403 0.91816 0.0
H704 H 0.7645 0.23509 0.93233 0.0
H705 H 0.74085 0.21062 0.94233 0.0
H706 H 0.76922 0.17482 0.94281 0.0
H707 H 0.76329 0.19506 0.95643 0.0
H708 H 0.79076 0.20563 0.94668 0.0
H709 H 0.78779 0.17983 0.82427 0.0
H710 H 0.85482 0.24607 0.83356 0.0
H711 H 0.84761 0.25176 0.86455 0.0
H712 H 0.79423 0.16039 0.86262 0.0
H713 H 0.76597 0.14474 0.85018 0.0
H714 H 0.76957 0.14889 0.87502 0.0
H715 H 0.75728 0.19791 0.84871 0.0
H716 H 0.73943 0.17173 0.8599 0.0
H717 H 0.74962 0.16831 0.83831 0.0
H718 H 0.70009 0.11375 0.88947 0.0
C719 C 0.73186 0.14766 0.88985 0.0
C720 C 0.55779 0.84331 0.07349 0.0
C721 C 0.56255 0.86549 0.08252 0.0
C722 C 0.57066 0.87087 0.10129 0.0
C723 C 0.57002 0.83229 0.10154 0.0
C724 C 0.56152 0.82704 0.0832 0.0
C725 C 0.55711 0.80265 0.07546 0.0
H726 H 0.55737 0.69814 0.08682 0.0
C727 C 0.5727 0.81169 0.10723 0.0
C728 C 0.56506 0.79432 0.09193 0.0
H729 H 0.53082 0.71736 0.0393 0.0
H730 H 0.54356 0.75709 0.05448 0.0
H731 H 0.60462 0.74957 0.09558 0.0
H732 H 0.53741 0.72008 0.11623 0.0
H733 H 0.55838 0.73445 0.13511 0.0
H734 H 0.5572 0.70935 0.12151 0.0
H735 H 0.59596 0.72855 0.11292 0.0
H736 H 0.6098 0.76104 0.11876 0.0
C737 C 0.57271 0.80664 0.05947 0.0
C738 C 0.53061 0.78627 0.06988 0.0
C739 C 0.60326 0.8116 0.17287 0.0
C740 C 0.60719 0.79451 0.1815 0.0
C741 C 0.60459 0.77408 0.17075 0.0
C742 C 0.59706 0.76993 0.15205 0.0
C743 C 0.59194 0.78632 0.14381 0.0
C744 C 0.59562 0.80711 0.154 0.0
C745 C 0.58977 0.82269 0.14248 0.0
C746 C 0.58138 0.80741 0.124 0.0
C747 C 0.58255 0.78601 0.125 0.0
C748 C 0.61235 0.84727 0.14145 0.0
C749 C 0.57012 0.82507 0.151 0.0
C750 C 0.55463 0.7111 0.07966 0.0
C751 C 0.54302 0.70465 0.06188 0.0
C752 C 0.5395 0.72186 0.05306 0.0
C753 C 0.5469 0.74492 0.06193 0.0
C754 C 0.55774 0.75087 0.07994 0.0
C755 C 0.56163 0.73418 0.08846 0.0
C756 C 0.57265 0.74345 0.10785 0.0
C757 C 0.57438 0.76828 0.10961 0.0
C758 C 0.5657 0.77248 0.09319 0.0
C759 C 0.59696 0.74567 0.10902 0.0
C760 C 0.55575 0.72597 0.12098 0.0
H761 H 0.58085 0.85946 0.12512 0.0
H762 H 0.5515 0.83884 0.05905 0.0
H763 H 0.52026 0.79211 0.078 0.0
H764 H 0.52392 0.76709 0.0727 0.0
H765 H 0.52631 0.78693 0.05512 0.0
H766 H 0.59022 0.82299 0.06296 0.0
H767 H 0.56498 0.80949 0.04668 0.0
H768 H 0.57601 0.79146 0.05653 0.0
H769 H 0.60523 0.82755 0.18074 0.0
H770 H 0.60805 0.76096 0.17694 0.0
H771 H 0.5951 0.75381 0.14481 0.0
H772 H 0.62738 0.84441 0.1399 0.0
H773 H 0.61638 0.85956 0.15416 0.0
H774 H 0.61163 0.85673 0.12945 0.0
H775 H 0.55706 0.80743 0.15578 0.0
H776 H 0.56024 0.82974 0.14107 0.0
H777 H 0.57714 0.83894 0.16303 0.0
H778 H 0.57449 0.88804 0.10839 0.0
C779 C 0.57446 0.85437 0.11088 0.0
C780 C 0.27505 0.85033 0.06853 0.0
C781 C 0.29304 0.8732 0.07624 0.0
C782 C 0.29183 0.88131 0.09428 0.0
C783 C 0.25461 0.84441 0.09605 0.0
C784 C 0.25614 0.83651 0.07849 0.0
C785 C 0.23559 0.8122 0.07173 0.0
H786 H 0.1365 0.71138 0.08751 0.0
C787 C 0.23228 0.82554 0.10229 0.0
C788 C 0.22109 0.80679 0.08799 0.0
H789 H 0.17438 0.72671 0.03908 0.0
H790 H 0.20093 0.76738 0.0522 0.0
H791 H 0.18179 0.73884 0.1179 0.0
H792 H 0.13887 0.764 0.09215 0.0
H793 H 0.14762 0.77819 0.11468 0.0
H794 H 0.12972 0.74541 0.11103 0.0
H795 H 0.15143 0.72632 0.12094 0.0
H796 H 0.17322 0.75302 0.13475 0.0
C797 C 0.24449 0.79401 0.06853 0.0
C798 C 0.22325 0.81547 0.05442 0.0
C799 C 0.21127 0.83435 0.16705 0.0
C800 C 0.1917 0.82004 0.17645 0.0
C801 C 0.17257 0.79923 0.167 0.0
C802 C 0.17333 0.79215 0.14864 0.0
C803 C 0.19337 0.80612 0.1396 0.0
C804 C 0.21161 0.82726 0.14863 0.0
C805 C 0.23093 0.84058 0.13653 0.0
C806 C 0.22162 0.82359 0.11895 0.0
C807 C 0.19974 0.80317 0.12092 0.0
C808 C 0.25334 0.84227 0.14543 0.0
C809 C 0.23304 0.86557 0.13378 0.0
C810 C 0.1504 0.72372 0.07974 0.0
C811 C 0.15368 0.7157 0.06238 0.0
C812 C 0.17182 0.73229 0.05261 0.0
C813 C 0.18726 0.75596 0.06028 0.0
C814 C 0.18475 0.76335 0.07803 0.0
C815 C 0.16624 0.74766 0.08733 0.0
C816 C 0.16647 0.75925 0.10599 0.0
C817 C 0.18867 0.78397 0.10651 0.0
C818 C 0.19925 0.78603 0.0901 0.0
C819 C 0.16821 0.74359 0.12078 0.0
C820 C 0.1445 0.76177 0.10615 0.0
H821 H 0.27268 0.87424 0.11784 0.0
H822 H 0.27558 0.84314 0.05491 0.0
H823 H 0.22533 0.83399 0.05511 0.0
H824 H 0.20422 0.80295 0.05306 0.0
H825 H 0.23055 0.81302 0.04168 0.0
H826 H 0.25935 0.79834 0.0787 0.0
H827 H 0.25058 0.79468 0.0546 0.0
H828 H 0.23139 0.77503 0.07043 0.0
H829 H 0.22611 0.85055 0.174 0.0
H830 H 0.1574 0.78794 0.17406 0.0
H831 H 0.15847 0.77582 0.14227 0.0
H832 H 0.24937 0.82474 0.15091 0.0
H833 H 0.26137 0.85676 0.15704 0.0
H834 H 0.26643 0.84574 0.13559 0.0
H835 H 0.21569 0.8642 0.13329 0.0
H836 H 0.23983 0.87245 0.12059 0.0
H837 H 0.24426 0.87939 0.14523 0.0
H838 H 0.30542 0.89888 0.10058 0.0
C839 C 0.27271 0.86705 0.10422 0.0
C840 C 0.28342 0.43728 0.0871 0.0
C841 C 0.29901 0.42947 0.09251 0.0
C842 C 0.29705 0.41949 0.10955 0.0
C843 C 0.26326 0.42368 0.1146 0.0
C844 C 0.26582 0.43415 0.09818 0.0
C845 C 0.24725 0.44027 0.09351 0.0
H846 H 0.14425 0.43071 0.1089 0.0
C847 C 0.24231 0.42211 0.12222 0.0
C848 C 0.233 0.4319 0.10987 0.0
H849 H 0.18595 0.45967 0.06342 0.0
H850 H 0.21656 0.45534 0.07815 0.0
H851 H 0.15546 0.38679 0.11482 0.0
H852 H 0.18707 0.46009 0.14047 0.0
H853 H 0.18999 0.44247 0.15696 0.0
H854 H 0.1613 0.43579 0.1483 0.0
H855 H 0.1407 0.39809 0.12865 0.0
H856 H 0.15798 0.38676 0.13901 0.0
C857 C 0.23336 0.42507 0.07526 0.0
C858 C 0.25909 0.46827 0.09288 0.0
C859 C 0.21472 0.38285 0.18176 0.0
C860 C 0.19682 0.38017 0.1927 0.0
C861 C 0.18228 0.38918 0.18657 0.0
C862 C 0.18515 0.40003 0.16996 0.0
C863 C 0.20296 0.40235 0.15928 0.0
C864 C 0.21771 0.39432 0.16543 0.0
C865 C 0.23683 0.40006 0.15299 0.0
C866 C 0.23091 0.41256 0.13825 0.0
C867 C 0.21071 0.41339 0.14183 0.0
C868 C 0.23451 0.37578 0.14516 0.0
C869 C 0.26044 0.4176 0.16408 0.0
C870 C 0.16017 0.43636 0.10235 0.0
C871 C 0.1626 0.44513 0.08484 0.0
C872 C 0.18357 0.45249 0.07675 0.0
C873 C 0.20132 0.4499 0.08532 0.0
C874 C 0.19814 0.43959 0.10218 0.0
C875 C 0.17818 0.43365 0.11074 0.0
C876 C 0.17839 0.42334 0.12885 0.0
C877 C 0.20111 0.42291 0.12908 0.0
C878 C 0.21243 0.43235 0.11335 0.0
C879 C 0.15699 0.39738 0.12794 0.0
C880 C 0.17906 0.44114 0.14453 0.0
H881 H 0.2783 0.40832 0.13323 0.0
H882 H 0.28462 0.44537 0.07424 0.0
H883 H 0.27449 0.47795 0.10317 0.0
H884 H 0.24766 0.47555 0.09652 0.0
H885 H 0.26517 0.47369 0.07913 0.0
H886 H 0.23312 0.40743 0.07376 0.0
H887 H 0.24117 0.43498 0.06314 0.0
H888 H 0.21481 0.41975 0.07451 0.0
H889 H 0.22625 0.37615 0.18565 0.0
H890 H 0.16882 0.38831 0.19472 0.0
H891 H 0.17347 0.40638 0.16611 0.0
H892 H 0.21593 0.36194 0.14124 0.0
H893 H 0.24145 0.36831 0.15552 0.0
H894 H 0.24337 0.3775 0.13253 0.0
H895 H 0.25884 0.43064 0.17382 0.0
H896 H 0.27404 0.42914 0.1553 0.0
H897 H 0.2667 0.40742 0.17224 0.0
H898 H 0.30884 0.4133 0.11403 0.0
C899 C 0.27923 0.41649 0.12061 0.0
C900 C 0.50482 0.90217 0.25106 0.0
C901 C 0.52379 0.90468 0.24182 0.0
C902 C 0.52811 0.91574 0.22516 0.0
C903 C 0.49427 0.92049 0.2268 0.0
C904 C 0.49031 0.91005 0.24329 0.0
C905 C 0.46873 0.90751 0.25087 0.0
H906 H 0.36832 0.90884 0.23865 0.0
C907 C 0.47532 0.92561 0.22213 0.0
C908 C 0.46032 0.91809 0.23616 0.0
H909 H 0.39517 0.8878 0.28502 0.0
H910 H 0.4311 0.90118 0.27165 0.0
H911 H 0.41934 0.96095 0.23721 0.0
H912 H 0.38964 0.89108 0.20536 0.0
H913 H 0.39946 0.91515 0.1909 0.0
H914 H 0.37634 0.90971 0.20499 0.0
H915 H 0.39555 0.95098 0.21987 0.0
H916 H 0.42534 0.96555 0.21417 0.0
C917 C 0.47592 0.92314 0.26963 0.0
C918 C 0.45161 0.87994 0.25182 0.0
C919 C 0.4744 0.96232 0.16258 0.0
C920 C 0.45973 0.96962 0.15416 0.0
C921 C 0.44009 0.96633 0.16292 0.0
C922 C 0.43502 0.95555 0.17969 0.0
C923 C 0.44994 0.9483 0.1879 0.0
C924 C 0.46936 0.95201 0.17934 0.0
C925 C 0.48386 0.94413 0.19009 0.0
C926 C 0.47023 0.93531 0.20669 0.0
C927 C 0.45012 0.9374 0.20535 0.0
C928 C 0.50826 0.96676 0.19536 0.0
C929 C 0.48393 0.92311 0.17834 0.0
C930 C 0.38205 0.90725 0.24587 0.0
C931 C 0.37847 0.89627 0.2626 0.0
C932 C 0.39703 0.89521 0.27181 0.0
C933 C 0.41801 0.90308 0.26404 0.0
C934 C 0.42079 0.91226 0.24679 0.0
C935 C 0.40346 0.91521 0.23823 0.0
C936 C 0.41079 0.92715 0.22052 0.0
C937 C 0.43455 0.92922 0.21945 0.0
C938 C 0.44001 0.92013 0.23488 0.0
C939 C 0.41275 0.95245 0.22288 0.0
C940 C 0.39313 0.91001 0.20451 0.0
H941 H 0.51771 0.93181 0.20487 0.0
H942 H 0.50087 0.89352 0.26379 0.0
H943 H 0.45184 0.86915 0.23942 0.0
H944 H 0.43333 0.87527 0.25207 0.0
H945 H 0.45647 0.87326 0.26406 0.0
H946 H 0.49427 0.93831 0.27053 0.0
H947 H 0.4743 0.91201 0.28126 0.0
H948 H 0.46565 0.93228 0.27175 0.0
H949 H 0.48985 0.965 0.15638 0.0
H950 H 0.42851 0.97181 0.15667 0.0
H951 H 0.4197 0.95322 0.18561 0.0
H952 H 0.50701 0.98343 0.19813 0.0
H953 H 0.51978 0.97002 0.18411 0.0
H954 H 0.51692 0.96541 0.20818 0.0
H955 H 0.46702 0.91165 0.16995 0.0
H956 H 0.48603 0.91028 0.18672 0.0
H957 H 0.49778 0.93028 0.16873 0.0
H958 H 0.54279 0.91818 0.21789 0.0
C959 C 0.51353 0.9237 0.21764 0.0
C960 C 0.10336 0.4895 0.27457 0.0
C961 C 0.10387 0.46967 0.26571 0.0
C962 C 0.10216 0.46682 0.24636 0.0
C963 C 0.0982 0.50266 0.24499 0.0
C964 C 0.10084 0.50588 0.26399 0.0
C965 C 0.10112 0.52859 0.27126 0.0
H966 H 0.09727 0.63028 0.25487 0.0
C967 C 0.09527 0.52257 0.23819 0.0
C968 C 0.09732 0.53799 0.25354 0.0
H969 H 0.1084 0.60749 0.30717 0.0
H970 H 0.104 0.57056 0.29198 0.0
H971 H 0.1271 0.61195 0.23015 0.0
H972 H 0.05531 0.58039 0.24063 0.0
H973 H 0.05505 0.5668 0.21901 0.0
H974 H 0.0666 0.59932 0.22219 0.0
H975 H 0.1084 0.6235 0.22324 0.0
H976 H 0.10928 0.59999 0.20915 0.0
C977 C 0.12542 0.54607 0.2815 0.0
C978 C 0.08053 0.52111 0.28331 0.0
C979 C 0.07335 0.52095 0.17027 0.0
C980 C 0.06585 0.53465 0.16038 0.0
C981 C 0.06681 0.55519 0.16979 0.0
C982 C 0.07456 0.5616 0.18852 0.0
C983 C 0.08105 0.54713 0.19823 0.0
C984 C 0.08031 0.52714 0.18911 0.0
C985 C 0.08615 0.5128 0.20193 0.0
C986 C 0.09017 0.52731 0.22027 0.0
C987 C 0.08755 0.54763 0.21795 0.0
C988 C 0.10863 0.5136 0.19635 0.0
C989 C 0.06475 0.48681 0.20117 0.0
C990 C 0.09893 0.61734 0.26294 0.0
C991 C 0.10346 0.62177 0.28216 0.0
C992 C 0.10493 0.60435 0.29234 0.0
C993 C 0.10249 0.58301 0.28348 0.0
C994 C 0.09828 0.57892 0.26422 0.0
C995 C 0.09617 0.59573 0.25429 0.0
C996 C 0.09026 0.58755 0.23407 0.0
C997 C 0.09062 0.56381 0.2334 0.0
C998 C 0.09534 0.5589 0.25109 0.0
C999 C 0.10966 0.60674 0.22346 0.0
C1000 C 0.06563 0.5834 0.22855 0.0
H1001 H 0.09776 0.47994 0.22125 0.0
H1002 H 0.10517 0.49235 0.28945 0.0
H1003 H 0.06497 0.50393 0.27721 0.0
H1004 H 0.07472 0.5346 0.28438 0.0
H1005 H 0.08503 0.518 0.29737 0.0
H1006 H 0.13917 0.54373 0.27528 0.0
H1007 H 0.12588 0.5426 0.29619 0.0
H1008 H 0.13101 0.56548 0.28059 0.0
H1009 H 0.07341 0.50535 0.16366 0.0
H1010 H 0.06084 0.56598 0.16291 0.0
H1011 H 0.07472 0.5773 0.19483 0.0
H1012 H 0.12052 0.53127 0.19095 0.0
H1013 H 0.10463 0.49887 0.18543 0.0
H1014 H 0.11895 0.51231 0.20811 0.0
H1015 H 0.04838 0.48754 0.20085 0.0
H1016 H 0.06456 0.47719 0.21331 0.0
H1017 H 0.06374 0.47552 0.18865 0.0
H1018 H 0.10267 0.45168 0.23933 0.0
C1019 C 0.09923 0.48317 0.23594 0.0
C1020 C 0.37575 0.50604 0.25827 0.0
C1021 C 0.35758 0.48552 0.24773 0.0
C1022 C 0.36125 0.47955 0.22983 0.0
C1023 C 0.40027 0.51445 0.23303 0.0
C1024 C 0.39684 0.52019 0.25065 0.0
C1025 C 0.41788 0.54274 0.25984 0.0
H1026 H 0.52669 0.6378 0.25532 0.0
C1027 C 0.42394 0.53294 0.22913 0.0
C1028 C 0.43439 0.54959 0.24476 0.0
H1029 H 0.48499 0.61955 0.30151 0.0
H1030 H 0.45412 0.5839 0.28362 0.0
H1031 H 0.51585 0.58364 0.24539 0.0
H1032 H 0.48384 0.62196 0.22208 0.0
H1033 H 0.49073 0.60741 0.20427 0.0
H1034 H 0.51371 0.63063 0.22004 0.0
H1035 H 0.53005 0.60625 0.22964 0.0
H1036 H 0.50973 0.57484 0.22168 0.0
C1037 C 0.42702 0.53554 0.27694 0.0
C1038 C 0.4108 0.56217 0.26414 0.0
C1039 C 0.45222 0.52576 0.16736 0.0
C1040 C 0.47365 0.53871 0.15981 0.0
C1041 C 0.49172 0.55981 0.17003 0.0
C1042 C 0.48861 0.5674 0.18757 0.0
C1043 C 0.46728 0.55368 0.1951 0.0
C1044 C 0.44955 0.53328 0.18494 0.0
C1045 C 0.42835 0.52023 0.1952 0.0
C1046 C 0.43626 0.53599 0.21331 0.0
C1047 C 0.45899 0.55573 0.2132 0.0
C1048 C 0.42399 0.49419 0.19756 0.0
C1049 C 0.40803 0.52103 0.18457 0.0
C1050 C 0.51074 0.62616 0.26139 0.0
C1051 C 0.50795 0.63145 0.27969 0.0
C1052 C 0.48731 0.61574 0.2874 0.0
C1053 C 0.46946 0.5951 0.27698 0.0
C1054 C 0.47238 0.58991 0.2587 0.0
C1055 C 0.49285 0.60516 0.25122 0.0
C1056 C 0.49335 0.59575 0.23197 0.0
C1057 C 0.46956 0.5728 0.22898 0.0
C1058 C 0.45734 0.56962 0.24468 0.0
C1059 C 0.51334 0.58992 0.23199 0.0
C1060 C 0.49566 0.6149 0.21879 0.0
H1061 H 0.38397 0.48832 0.20873 0.0
H1062 H 0.37348 0.51125 0.27201 0.0
H1063 H 0.39908 0.56192 0.25261 0.0
H1064 H 0.4257 0.58095 0.26577 0.0
H1065 H 0.4014 0.55866 0.27674 0.0
H1066 H 0.42329 0.51641 0.27485 0.0
H1067 H 0.41873 0.53704 0.28936 0.0
H1068 H 0.44614 0.54652 0.27978 0.0
H1069 H 0.43772 0.50978 0.15987 0.0
H1070 H 0.50851 0.57011 0.16473 0.0
H1071 H 0.50306 0.58344 0.19472 0.0
H1072 H 0.44063 0.49401 0.19872 0.0
H1073 H 0.41295 0.48124 0.18562 0.0
H1074 H 0.41597 0.48702 0.21033 0.0
H1075 H 0.41435 0.53865 0.17841 0.0
H1076 H 0.39469 0.51991 0.19348 0.0
H1077 H 0.39958 0.50622 0.17321 0.0
H1078 H 0.34776 0.46362 0.22152 0.0
C1079 C 0.3824 0.49387 0.22244 0.0
Tb1080 Tb 0.53279 0.02156 1.00236 0.0
C1081 C 0.52009 0.96882 0.01442 0.0
Tb1082 Tb 0.48145 0.98302 0.00606 0.0
O1083 O 0.53463 0.04159 0.0287 0.0
O1084 O 0.51205 0.00424 0.02339 0.0
O1085 O 0.53575 0.98975 0.00842 0.0
C1086 C 0.43899 0.95948 0.01774 0.0
O1087 O 0.49811 0.96303 0.0161 0.0
C1088 C 0.49665 0.98274 0.97323 0.0
C1089 C 0.4943 0.03549 0.99294 0.0
O1090 O 0.4443 0.95638 1.00137 0.0
O1091 O 0.45763 0.97576 0.02766 0.0
O1092 O 0.48018 0.96365 0.97982 0.0
O1093 O 0.50203 1.0004 0.98489 0.0
O1094 O 0.47868 0.01556 1.00024 0.0
O1095 O 0.51597 0.04043 0.99139 0.0
C1096 C 0.57116 0.04083 0.98458 0.0
O1097 O 0.56907 0.05043 1.00008 0.0
O1098 O 0.55211 0.02051 0.97972 0.0
C1099 C 0.51735 0.0223 0.03449 0.0
Tb1100 Tb 0.98785 0.51233 0.99806 0.0
C1101 C 0.04091 0.54993 0.00837 0.0
Tb1102 Tb 0.02118 0.49235 0.00562 0.0
O1103 O 0.99342 0.52652 0.02714 0.0
O1104 O 0.99579 0.49582 0.01927 0.0
O1105 O 0.0205 0.54701 1.002 0.0
C1106 C 0.05052 0.47915 0.0201 0.0
O1107 O 0.04465 0.53155 0.01093 0.0
C1108 C 0.0088 0.49187 0.97074 0.0
C1109 C 0.96842 0.45512 0.99782 0.0
O1110 O 0.0436 0.47663 1.00281 0.0
O1111 O 0.04112 0.48946 0.02938 0.0
O1112 O 0.01512 0.47718 0.97711 0.0
O1113 O 0.01215 0.50755 0.98366 0.0
O1114 O 0.98795 0.45962 0.00722 0.0
O1115 O 0.96588 0.47272 0.99096 0.0
C1116 C 0.95585 0.52062 0.98183 0.0
O1117 O 0.95383 0.50974 0.99673 0.0
O1118 O 0.97625 0.52746 0.97623 0.0
C1119 C 0.99893 0.51074 0.03258 0.0
Tb1120 Tb 0.47525 0.48326 0.00955 0.0
C1121 C 0.4983 0.45126 1.00313 0.0
Tb1122 Tb 0.52801 0.50966 0.00489 0.0
O1123 O 0.46728 0.4677 0.98107 0.0
O1124 O 0.49727 0.50117 0.98877 0.0
O1125 O 0.48022 0.45198 0.00937 0.0
C1126 C 0.57014 0.52714 0.99272 0.0
O1127 O 0.51781 0.47108 0.99966 0.0
C1128 C 0.51626 0.50744 0.03861 0.0
C1129 C 0.50484 0.54151 0.01144 0.0
O1130 O 0.56524 0.52289 0.00956 0.0
O1131 O 0.5512 0.52135 0.98258 0.0
O1132 O 0.53532 0.52518 0.03357 0.0
O1133 O 0.506 0.49129 0.02537 0.0
O1134 O 0.52304 0.54097 0.00532 0.0
O1135 O 0.48532 0.52165 0.01468 0.0
C1136 C 0.43406 0.46697 0.02328 0.0
O1137 O 0.43776 0.46971 0.00607 0.0
O1138 O 0.45355 0.47335 0.03276 0.0
C1139 C 0.48652 0.48481 0.97566 0.0
Tb1140 Tb 0.18991 0.35515 0.33583 0.0
C1141 C 0.18532 0.30804 0.3516 0.0
Tb1142 Tb 0.14111 0.3154 0.34491 0.0
O1143 O 0.20063 0.36726 0.36528 0.0
O1144 O 0.16603 0.35146 0.35484 0.0
O1145 O 0.19754 0.32645 0.34157 0.0
C1146 C 0.10838 0.2887 0.36676 0.0
O1147 O 0.16363 0.30144 0.35524 0.0
C1148 C 0.15187 0.31202 0.31118 0.0
C1149 C 0.14546 0.36171 0.32803 0.0
O1150 O 0.105 0.28785 0.34896 0.0
O1151 O 0.12998 0.30417 0.37195 0.0
O1152 O 0.13047 0.30331 0.31527 0.0
O1153 O 0.16495 0.31932 0.32583 0.0
O1154 O 0.13292 0.34342 0.33802 0.0
O1155 O 0.16725 0.36836 0.32486 0.0
C1156 C 0.22259 0.38425 0.31492 0.0
O1157 O 0.20065 0.37063 0.30985 0.0
O1158 O 0.22641 0.38176 0.33209 0.0
C1159 C 0.17934 0.35888 0.36938 0.0
Tb1160 Tb 0.65106 0.84826 0.33226 0.0
C1161 C 0.70427 0.8859 0.34077 0.0
Tb1162 Tb 0.68299 0.82899 0.3455 0.0
O1163 O 0.65593 0.86686 0.35956 0.0
O1164 O 0.65744 0.83494 0.35653 0.0
O1165 O 0.68416 0.88226 0.33302 0.0
C1166 C 0.71273 0.82246 0.3668 0.0
O1167 O 0.70726 0.8682 0.34676 0.0
C1168 C 0.67382 0.82511 0.30978 0.0
C1169 C 0.63026 0.79123 0.33637 0.0
O1170 O 0.70095 0.83243 0.37227 0.0
O1171 O 0.70758 0.8158 0.34931 0.0
O1172 O 0.67858 0.81048 0.31834 0.0
O1173 O 0.67653 0.8421 0.32123 0.0
O1174 O 0.64964 0.79588 0.34617 0.0
O1175 O 0.62773 0.80856 0.32899 0.0
C1176 C 0.62249 0.85592 0.31035 0.0
O1177 O 0.6376 0.85028 0.30502 0.0
O1178 O 0.62354 0.8576 0.32821 0.0
C1179 C 0.66042 0.85198 0.36802 0.0
Tb1180 Tb 0.14665 0.83497 0.33767 0.0
C1181 C 0.15259 0.78874 0.33082 0.0
Tb1182 Tb 0.19645 0.84187 0.33734 0.0
O1183 O 0.14635 0.84382 0.30865 0.0
O1184 O 0.16735 0.83111 0.31864 0.0
O1185 O 0.13912 0.79717 0.33672 0.0
C1186 C 0.23774 0.85252 0.32593 0.0
O1187 O 0.17447 0.80341 0.32714 0.0
C1188 C 0.17839 0.83385 0.3691 0.0
C1189 C 0.19054 0.88812 0.34604 0.0
O1190 O 0.22633 0.83627 0.33714 0.0
O1191 O 0.22615 0.86322 0.32149 0.0
O1192 O 0.19483 0.8294 0.36512 0.0
O1193 O 0.1756 0.84517 0.35663 0.0
O1194 O 0.20462 0.88006 0.34094 0.0
O1195 O 0.16811 0.87329 0.34777 0.0
C1196 C 0.10624 0.82488 0.35041 0.0
O1197 O 0.11631 0.8398 0.33801 0.0
O1198 O 0.1186 0.81517 0.3552 0.0
C1199 C 0.16348 0.84026 0.30517 0.0
Tb1200 Tb 0.85689 0.6839 0.67066 0.0
C1201 C 0.84813 0.63233 0.68193 0.0
Tb1202 Tb 0.80586 0.64099 0.67134 0.0
O1203 O 0.8517 0.70291 0.69466 0.0
O1204 O 0.83371 0.66543 0.69019 0.0
O1205 O 0.86389 0.65521 0.67916 0.0
C1206 C 0.76696 0.61001 0.68545 0.0
O1207 O 0.82524 0.62347 0.67992 0.0
C1208 C 0.82186 0.64843 0.63896 0.0
C1209 C 0.81459 0.69058 0.65746 0.0
O1210 O 0.77627 0.60425 0.67226 0.0
O1211 O 0.77933 0.63321 0.69039 0.0
O1212 O 0.79974 0.63818 0.64119 0.0
O1213 O 0.833 0.65167 0.65425 0.0
O1214 O 0.80065 0.67148 0.66619 0.0
O1215 O 0.83678 0.69746 0.65595 0.0
C1216 C 0.89945 0.71341 0.66074 0.0
O1217 O 0.89342 0.71247 0.67745 0.0
O1218 O 0.88164 0.69779 0.64983 0.0
C1219 C 0.83552 0.68284 0.70034 0.0
Tb1220 Tb 0.32459 0.17572 0.66571 0.0
C1221 C 0.37639 0.21307 0.67988 0.0
Tb1222 Tb 0.35693 0.15582 0.67621 0.0
O1223 O 0.32687 0.19088 0.69356 0.0
O1224 O 0.33147 0.16079 0.68894 0.0
O1225 O 0.35764 0.21016 0.67003 0.0
C1226 C 0.38879 0.14454 0.68769 0.0
O1227 O 0.37851 0.19445 0.6849 0.0
C1228 C 0.34759 0.15646 0.64088 0.0
C1229 C 0.30471 0.11808 0.66608 0.0
O1230 O 0.38759 0.15295 0.6722 0.0
O1231 O 0.37205 0.14271 0.69717 0.0
O1232 O 0.35024 0.13957 0.64777 0.0
O1233 O 0.35084 0.17208 0.65372 0.0
O1234 O 0.32409 0.12215 0.67546 0.0
O1235 O 0.30192 0.13599 0.66012 0.0
C1236 C 0.29765 0.18555 0.64369 0.0
O1237 O 0.31555 0.18422 0.63918 0.0
O1238 O 0.29498 0.18184 0.66094 0.0
C1239 C 0.33314 0.17669 0.70113 0.0
Tb1240 Tb 0.81823 0.15333 0.68173 0.0
C1241 C 0.83284 0.11385 0.67382 0.0
Tb1242 Tb 0.86814 0.17038 0.67122 0.0
O1243 O 0.80275 0.1343 0.65455 0.0
O1244 O 0.83645 0.1642 0.65788 0.0
O1245 O 0.8173 0.1184 0.68105 0.0
C1246 C 0.90769 0.18004 0.65695 0.0
O1247 O 0.85272 0.13094 0.66831 0.0
C1248 C 0.86378 0.17734 0.7063 0.0
C1249 C 0.85394 0.20966 0.67776 0.0
O1250 O 0.90372 0.17732 0.67407 0.0
O1251 O 0.88916 0.17702 0.64759 0.0
O1252 O 0.88218 0.19098 0.69812 0.0
O1253 O 0.84978 0.15966 0.69506 0.0
O1254 O 0.86713 0.20362 0.66834 0.0
O1255 O 0.83575 0.19339 0.6858 0.0
C1256 C 0.78235 0.14734 0.70018 0.0
O1257 O 0.7888 0.15895 0.68557 0.0
O1258 O 0.79587 0.1387 0.70427 0.0
C1259 C 0.8217 0.14701 0.6466 0.0
H1260 H 0.34017 0.90158 0.08742 0.0
H1261 H 0.29005 0.87905 0.03968 0.0
H1262 H 0.32196 0.89952 0.02002 0.0
H1263 H 0.38126 0.96223 0.07238 0.0
H1264 H 0.40653 0.96146 0.08154 0.0
H1265 H 0.37969 0.94603 0.09224 0.0
H1266 H 0.38077 0.90587 0.08843 0.0
H1267 H 0.40746 0.92118 0.07757 0.0
H1268 H 0.38271 0.8944 0.06589 0.0
H1269 H 0.35864 0.91817 0.00495 0.0
H1270 H 0.39872 0.93858 0.99568 0.0
H1271 H 0.42583 0.95278 0.05295 0.0
C1272 C 0.3359 0.9014 0.07291 0.0
C1273 C 0.31254 0.88827 0.06509 0.0
C1274 C 0.30777 0.88839 0.04597 0.0
C1275 C 0.32578 0.90012 0.03467 0.0
C1276 C 0.34856 0.91215 0.04267 0.0
C1277 C 0.35377 0.91337 0.06138 0.0
C1278 C 0.37992 0.92738 0.06626 0.0
C1279 C 0.38728 0.95066 0.07885 0.0
C1280 C 0.38819 0.91124 0.07505 0.0
C1281 C 0.38845 0.93334 0.04732 0.0
C1282 C 0.36999 0.92419 0.03394 0.0
C1283 C 0.37327 0.92583 0.0153 0.0
C1284 C 0.39606 0.93732 0.01016 0.0
C1285 C 0.41524 0.94732 0.02362 0.0
C1286 C 0.4114 0.94546 0.04244 0.0
H1287 H 0.13663 0.46661 0.09408 0.0
H1288 H 0.14496 0.4231 0.05065 0.0
H1289 H 0.11578 0.42557 0.03022 0.0
H1290 H 0.07305 0.44156 0.08277 0.0
H1291 H 0.07503 0.47062 0.08788 0.0
H1292 H 0.09498 0.4636 0.09991 0.0
H1293 H 0.12967 0.50262 0.08976 0.0
H1294 H 0.10983 0.50961 0.07759 0.0
H1295 H 0.13166 0.50709 0.06564 0.0
H1296 H 0.08911 0.4356 0.01356 0.0
H1297 H 0.06396 0.45088 1.00172 0.0
H1298 H 0.07131 0.48762 0.05551 0.0
C1299 C 0.13183 0.4572 0.08041 0.0
C1300 C 0.14301 0.44468 0.07388 0.0
C1301 C 0.13665 0.43287 0.05583 0.0
C1302 C 0.12007 0.43412 0.04415 0.0
C1303 C 0.10986 0.44716 0.05073 0.0
C1304 C 0.11522 0.45832 0.06845 0.0
C1305 C 0.10229 0.47213 0.07155 0.0
C1306 C 0.08533 0.46133 0.08641 0.0
C1307 C 0.11939 0.49948 0.07642 0.0
C1308 C 0.08933 0.46736 0.05269 0.0
C1309 C 0.09398 0.45283 0.04098 0.0
C1310 C 0.08506 0.44672 0.02263 0.0
C1311 C 0.07088 0.45558 0.01601 0.0
C1312 C 0.06565 0.47032 0.02771 0.0
C1313 C 0.07492 0.47621 0.04632 0.0
H1314 H 0.56522 0.67826 0.05742 0.0
H1315 H 0.49899 0.67479 0.04609 0.0
H1316 H 0.48234 0.63311 0.03101 0.0
H1317 H 0.56305 0.64581 0.01452 0.0
H1318 H 0.57639 0.63004 0.02471 0.0
H1319 H 0.58315 0.65956 0.03482 0.0
H1320 H 0.57074 0.64176 0.06603 0.0
H1321 H 0.56391 0.61217 0.05607 0.0
H1322 H 0.54213 0.61586 0.06709 0.0
H1323 H 0.47233 0.59125 0.01858 0.0
H1324 H 0.47014 0.55239 0.00833 0.0
H1325 H 0.54338 0.58371 0.02593 0.0
C1326 C 0.54722 0.66865 0.05178 0.0
C1327 C 0.53336 0.67969 0.05286 0.0
C1328 C 0.50992 0.66669 0.04523 0.0
C1329 C 0.50031 0.64301 0.0367 0.0
C1330 C 0.51443 0.63268 0.03575 0.0
C1331 C 0.53741 0.64508 0.04298 0.0
C1332 C 0.54881 0.6298 0.03993 0.0
C1333 C 0.56905 0.64204 0.02777 0.0
C1334 C 0.55686 0.62459 0.05838 0.0
C1335 C 0.52862 0.60688 0.02995 0.0
C1336 C 0.5089 0.60886 0.02783 0.0
C1337 C 0.48773 0.58958 0.01992 0.0
C1338 C 0.48664 0.56763 0.01414 0.0
C1339 C 0.50668 0.5653 0.01601 0.0
C1340 C 0.52796 0.58526 0.02387 0.0
H1341 H 0.85937 0.34067 0.94179 0.0
H1342 H 0.86853 0.29556 0.97986 0.0
H1343 H 0.89968 0.33251 0.99814 0.0
H1344 H 0.91815 0.38644 0.94117 0.0
H1345 H 0.91141 0.41063 0.94051 0.0
H1346 H 0.89006 0.38024 0.93148 0.0
H1347 H 0.86168 0.38347 0.95331 0.0
H1348 H 0.88419 0.41335 0.96277 0.0
H1349 H 0.86976 0.38957 0.97774 0.0
H1350 H 0.9321 0.37371 0.01026 0.0
H1351 H 0.96254 0.41684 0.01668 0.0
H1352 H 0.93107 0.4357 0.9717 0.0
C1353 C 0.86785 0.33873 0.9541 0.0
C1354 C 0.86177 0.31547 0.95951 0.0
C1355 C 0.87299 0.31335 0.97566 0.0
C1356 C 0.89065 0.33417 0.98607 0.0
C1357 C 0.89646 0.35691 0.9803 0.0
C1358 C 0.88517 0.35935 0.96486 0.0
C1359 C 0.89491 0.3859 0.9616 0.0
C1360 C 0.90422 0.39108 0.94256 0.0
C1361 C 0.87654 0.39351 0.96401 0.0
C1362 C 0.91435 0.39791 0.97698 0.0
C1363 C 0.91473 0.38085 0.98772 0.0
C1364 C 0.93179 0.3873 1.00214 0.0
C1365 C 0.94906 0.41184 0.00562 0.0
C1366 C 0.94912 0.42965 0.99475 0.0
C1367 C 0.9313 0.42257 0.98042 0.0
H1368 H 0.66696 0.5552 0.92223 0.0
H1369 H 0.71744 0.58464 0.97002 0.0
H1370 H 0.68658 0.57894 0.98977 0.0
H1371 H 0.63137 0.58202 0.93835 0.0
H1372 H 0.60435 0.55587 0.92898 0.0
H1373 H 0.63061 0.56417 0.91804 0.0
H1374 H 0.62454 0.52103 0.92076 0.0
H1375 H 0.59826 0.51245 0.93171 0.0
H1376 H 0.62122 0.5093 0.943 0.0
H1377 H 0.65045 0.56583 0.00485 0.0
H1378 H 0.6107 0.54874 0.01439 0.0
H1379 H 0.58271 0.52894 0.95725 0.0
C1380 C 0.67153 0.56097 0.93678 0.0
C1381 C 0.69457 0.5702 0.94463 0.0
C1382 C 0.69986 0.57726 0.96377 0.0
C1383 C 0.68248 0.57419 0.97509 0.0
C1384 C 0.65984 0.56428 0.96709 0.0
C1385 C 0.65427 0.55806 0.94837 0.0
C1386 C 0.62827 0.54691 0.94357 0.0
C1387 C 0.62336 0.56321 0.93152 0.0
C1388 C 0.61745 0.52088 0.93421 0.0
C1389 C 0.62011 0.54693 0.9626 0.0
C1390 C 0.63873 0.55723 0.9759 0.0
C1391 C 0.63573 0.5581 0.99458 0.0
C1392 C 0.6131 0.54823 0.99986 0.0
C1393 C 0.59373 0.53771 0.98655 0.0
C1394 C 0.59729 0.53721 0.96766 0.0
H1395 H 0.42752 0.10515 0.95906 0.0
H1396 H 0.46079 0.1115 0.90851 0.0
H1397 H 0.47877 0.08871 0.92046 0.0
H1398 H 0.47417 0.11193 0.98977 0.0
H1399 H 0.45612 0.08948 0.00461 0.0
H1400 H 0.4449 0.10564 0.99211 0.0
H1401 H 0.41018 0.06472 0.97756 0.0
H1402 H 0.42122 0.04841 0.99011 0.0
H1403 H 0.41566 0.0429 0.96544 0.0
H1404 H 0.49562 0.06894 0.93809 0.0
H1405 H 0.50822 0.04884 0.95967 0.0
H1406 H 0.46243 0.05129 0.99893 0.0
C1407 C 0.43844 0.1015 0.95052 0.0
C1408 C 0.44267 0.10994 0.93278 0.0
C1409 C 0.45705 0.10489 0.92198 0.0
C1410 C 0.46744 0.09208 0.92869 0.0
C1411 C 0.46308 0.08416 0.94618 0.0
C1412 C 0.4487 0.08826 0.95692 0.0
C1413 C 0.44707 0.07741 0.97524 0.0
C1414 C 0.45611 0.09731 0.99139 0.0
C1415 C 0.42204 0.05715 0.9772 0.0
C1416 C 0.46319 0.06709 0.97318 0.0
C1417 C 0.47227 0.0715 0.9563 0.0
C1418 C 0.48848 0.06514 0.95127 0.0
C1419 C 0.49563 0.05386 0.96375 0.0
C1420 C 0.48634 0.0485 0.98103 0.0
C1421 C 0.4697 0.05502 0.98578 0.0
H1422 H 0.69708 0.12931 0.95141 0.0
H1423 H 0.66373 0.10502 0.89559 0.0
H1424 H 0.62694 0.07716 0.90782 0.0
H1425 H 0.66506 0.07251 0.97139 0.0
H1426 H 0.66247 0.08626 0.99268 0.0
H1427 H 0.68703 0.10317 0.97972 0.0
H1428 H 0.67736 0.13785 0.97885 0.0
H1429 H 0.6528 0.12109 0.99184 0.0
H1430 H 0.64874 0.13091 0.96997 0.0
H1431 H 0.59411 0.05194 0.92553 0.0
H1432 H 0.56537 0.03261 0.94803 0.0
H1433 H 0.61794 0.07593 0.99274 0.0
C1434 C 0.68209 0.11837 0.94165 0.0
C1435 C 0.68371 0.11934 0.92238 0.0
C1436 C 0.66346 0.10427 0.91032 0.0
C1437 C 0.6423 0.08848 0.91715 0.0
C1438 C 0.64142 0.08816 0.93611 0.0
C1439 C 0.66063 0.10288 0.94824 0.0
C1440 C 0.65447 0.09978 0.96804 0.0
C1441 C 0.66807 0.08984 0.97857 0.0
C1442 C 0.65859 0.12384 0.97774 0.0
C1443 C 0.62874 0.08102 0.96507 0.0
C1444 C 0.62182 0.07441 0.94651 0.0
C1445 C 0.59919 0.05698 0.94009 0.0
C1446 C 0.58308 0.04604 0.95295 0.0
C1447 C 0.58947 0.05275 0.97201 0.0
C1448 C 0.61261 0.07058 0.97821 0.0
H1449 H 0.89415 0.57187 0.91482 0.0
H1450 H 0.82852 0.51274 0.92925 0.0
H1451 H 0.84959 0.49768 0.94792 0.0
H1452 H 0.92356 0.53484 0.91189 0.0
H1453 H 0.95122 0.56024 0.92116 0.0
H1454 H 0.93082 0.56547 0.9079 0.0
H1455 H 0.93291 0.59465 0.93509 0.0
H1456 H 0.95284 0.58889 0.94847 0.0
H1457 H 0.92614 0.58359 0.95743 0.0
H1458 H 0.87707 0.49161 0.96776 0.0
H1459 H 0.90994 0.49158 0.98485 0.0
H1460 H 0.95847 0.55193 0.95602 0.0
C1461 C 0.88421 0.55545 0.92157 0.0
C1462 C 0.85962 0.54381 0.92082 0.0
C1463 C 0.84734 0.52243 0.92998 0.0
C1464 C 0.85915 0.51358 0.94054 0.0
C1465 C 0.8833 0.52594 0.94156 0.0
C1466 C 0.89578 0.54608 0.93204 0.0
C1467 C 0.92177 0.55596 0.93583 0.0
C1468 C 0.93246 0.554 0.91814 0.0
C1469 C 0.93413 0.58234 0.94473 0.0
C1470 C 0.92183 0.53859 0.9493 0.0
C1471 C 0.89938 0.52154 0.95243 0.0
C1472 C 0.89473 0.50456 0.9652 0.0
C1473 C 0.91351 0.50481 0.97493 0.0
C1474 C 0.93666 0.52167 0.97169 0.0
C1475 C 0.94089 0.5387 0.95861 0.0
H1476 H 0.43392 0.31384 0.95833 0.0
H1477 H 0.49924 0.31496 0.96815 0.0
H1478 H 0.51738 0.35691 0.98318 0.0
H1479 H 0.45797 0.37607 0.94855 0.0
H1480 H 0.43696 0.38055 0.96012 0.0
H1481 H 0.42922 0.35066 0.95019 0.0
H1482 H 0.41763 0.3336 0.98178 0.0
H1483 H 0.42544 0.3635 0.9918 0.0
H1484 H 0.43849 0.34726 1.00166 0.0
H1485 H 0.52907 0.39983 0.9951 0.0
H1486 H 0.53262 0.43948 0.00509 0.0
H1487 H 0.45898 0.40923 0.98976 0.0
C1488 C 0.45202 0.32296 0.96369 0.0
C1489 C 0.46522 0.31124 0.96211 0.0
C1490 C 0.48881 0.32361 0.96937 0.0
C1491 C 0.49927 0.34743 0.97786 0.0
C1492 C 0.4858 0.35851 0.97921 0.0
C1493 C 0.46262 0.34661 0.97249 0.0
C1494 C 0.45198 0.36254 0.97587 0.0
C1495 C 0.44354 0.36776 0.95759 0.0
C1496 C 0.43222 0.35103 0.98853 0.0
C1497 C 0.47281 0.3853 0.98539 0.0
C1498 C 0.49222 0.38273 0.987 0.0
C1499 C 0.51389 0.40192 0.9942 0.0
C1500 C 0.51576 0.42434 0.99983 0.0
C1501 C 0.496 0.4272 0.99855 0.0
C1502 C 0.47424 0.40732 0.9914 0.0
H1503 H 0.10573 0.68586 0.05813 0.0
H1504 H 0.17035 0.68738 0.04915 0.0
H1505 H 0.14836 0.64583 0.03367 0.0
H1506 H 0.07294 0.6211 0.0666 0.0
H1507 H 0.04621 0.61612 0.05494 0.0
H1508 H 0.06691 0.64576 0.06611 0.0
H1509 H 0.06795 0.6649 0.03552 0.0
H1510 H 0.04747 0.6353 0.0242 0.0
H1511 H 0.0751 0.65362 0.01518 0.0
H1512 H 0.1202 0.60497 0.01881 0.0
H1513 H 0.08669 0.56554 0.00627 0.0
H1514 H 0.03955 0.58962 0.02383 0.0
C1515 C 0.11514 0.67724 0.0531 0.0
C1516 C 0.13975 0.68988 0.05469 0.0
C1517 C 0.15152 0.67812 0.04785 0.0
C1518 C 0.1392 0.65452 0.03908 0.0
C1519 C 0.11504 0.64279 0.03725 0.0
C1520 C 0.10304 0.65354 0.04416 0.0
C1521 C 0.07696 0.6367 0.04007 0.0
C1522 C 0.06506 0.6295 0.058 0.0
C1523 C 0.06625 0.64833 0.02802 0.0
C1524 C 0.07635 0.61508 0.02958 0.0
C1525 C 0.09857 0.61903 0.02826 0.0
C1526 C 0.10269 0.60164 0.01969 0.0
C1527 C 0.08356 0.57934 0.01256 0.0
C1528 C 0.06059 0.57469 0.01386 0.0
C1529 C 0.05695 0.59294 0.02227 0.0
H1530 H 0.34592 0.44563 0.10038 0.0
H1531 H 0.29102 0.41637 0.05569 0.0
H1532 H 0.31943 0.42157 0.03356 0.0
H1533 H 0.38964 0.49099 0.07639 0.0
H1534 H 0.41318 0.48758 0.08612 0.0
H1535 H 0.38844 0.48031 0.09887 0.0
H1536 H 0.38186 0.43695 0.10181 0.0
H1537 H 0.4067 0.44423 0.08914 0.0
H1538 H 0.37881 0.41807 0.08136 0.0
H1539 H 0.35358 0.43245 0.01593 0.0
H1540 H 0.3918 0.44666 0.00387 0.0
H1541 H 0.42516 0.46784 0.05956 0.0
C1542 C 0.33987 0.43995 0.08598 0.0
C1543 C 0.31625 0.43079 0.07975 0.0
C1544 C 0.30906 0.42378 0.06076 0.0
C1545 C 0.32505 0.42654 0.04807 0.0
C1546 C 0.34823 0.43616 0.05455 0.0
C1547 C 0.3557 0.44257 0.07304 0.0
C1548 C 0.38185 0.45314 0.07612 0.0
C1549 C 0.39398 0.47957 0.08489 0.0
C1550 C 0.38764 0.43713 0.0878 0.0
C1551 C 0.38782 0.45196 0.05645 0.0
C1552 C 0.3681 0.44207 0.04428 0.0
C1553 C 0.36913 0.43997 0.02533 0.0
C1554 C 0.3909 0.44814 0.0186 0.0
C1555 C 0.41132 0.45817 0.03077 0.0
C1556 C 0.40974 0.45999 0.04996 0.0
H1557 H 0.5276 0.87659 0.08141 0.0
H1558 H 0.59231 0.89347 0.05879 0.0
H1559 H 0.58775 0.92077 0.03822 0.0
H1560 H 0.49746 0.87488 0.0386 0.0
H1561 H 0.48179 0.88835 0.04851 0.0
H1562 H 0.49042 0.87089 0.06211 0.0
H1563 H 0.51245 0.90758 0.08695 0.0
H1564 H 0.50287 0.92439 0.07354 0.0
H1565 H 0.53346 0.93685 0.08008 0.0
H1566 H 0.57616 0.94557 0.02005 0.0
H1567 H 0.55904 0.968 0.00588 0.0
H1568 H 0.50101 0.93468 0.03956 0.0
C1569 C 0.54091 0.88641 0.0723 0.0
C1570 C 0.5605 0.8834 0.07175 0.0
C1571 C 0.57739 0.89594 0.05945 0.0
C1572 C 0.57487 0.91133 0.04771 0.0
C1573 C 0.55523 0.91376 0.04836 0.0
C1574 C 0.53855 0.90176 0.06035 0.0
C1575 C 0.51888 0.90723 0.05788 0.0
C1576 C 0.49577 0.88395 0.05139 0.0
C1577 C 0.51683 0.91978 0.07568 0.0
C1578 C 0.52733 0.92447 0.04285 0.0
C1579 C 0.54827 0.92781 0.03753 0.0
C1580 C 0.55976 0.94311 0.02408 0.0
C1581 C 0.54987 0.95576 0.0161 0.0
C1582 C 0.52864 0.95304 0.02153 0.0
C1583 C 0.51708 0.93688 0.03492 0.0
H1584 H 0.98117 0.20782 0.39939 0.0
H1585 H 0.01447 0.21682 0.45422 0.0
H1586 H 0.05275 0.24238 0.44282 0.0
H1587 H 0.0239 0.20153 0.37546 0.0
H1588 H 0.02217 0.21759 0.35642 0.0
H1589 H 0.9972 0.20115 0.36907 0.0
H1590 H 0.99494 0.24036 0.37549 0.0
H1591 H 0.01988 0.25692 0.36283 0.0
H1592 H 0.02012 0.26758 0.38623 0.0
H1593 H 0.08751 0.26676 0.4255 0.0
H1594 H 0.11626 0.28746 0.40328 0.0
H1595 H 0.06081 0.26055 0.35928 0.0
C1596 C 0.99645 0.21494 0.40904 0.0
C1597 C 0.9946 0.21027 0.4278 0.0
C1598 C 0.0152 0.22044 0.4399 0.0
C1599 C 0.03711 0.23485 0.43352 0.0
C1600 C 0.03823 0.23881 0.41495 0.0
C1601 C 0.01847 0.2291 0.40287 0.0
C1602 C 0.02452 0.23561 0.38347 0.0
C1603 C 0.01647 0.2126 0.37033 0.0
C1604 C 0.01426 0.25104 0.37661 0.0
C1605 C 0.05081 0.25048 0.38652 0.0
C1606 C 0.05832 0.25221 0.40482 0.0
C1607 C 0.0818 0.26537 0.41113 0.0
C1608 C 0.09802 0.27705 0.3984 0.0
C1609 C 0.09076 0.2754 0.37957 0.0
C1610 C 0.06684 0.26188 0.37357 0.0
H1611 H 0.80611 0.78248 0.39172 0.0
H1612 H 0.81779 0.8201 0.4459 0.0
H1613 H 0.78815 0.83109 0.43698 0.0
H1614 H 0.79819 0.82517 0.36644 0.0
H1615 H 0.77579 0.80206 0.35014 0.0
H1616 H 0.79778 0.79698 0.36087 0.0
H1617 H 0.76573 0.75715 0.37247 0.0
H1618 H 0.74364 0.76213 0.36181 0.0
H1619 H 0.74428 0.75813 0.386 0.0
H1620 H 0.75804 0.83882 0.42199 0.0
H1621 H 0.72882 0.84207 0.40199 0.0
H1622 H 0.73624 0.79884 0.35779 0.0
C1623 C 0.80254 0.79317 0.40165 0.0
C1624 C 0.81421 0.80043 0.4195 0.0
C1625 C 0.80884 0.81413 0.43222 0.0
C1626 C 0.79214 0.82055 0.42726 0.0
C1627 C 0.78094 0.81307 0.40956 0.0
C1628 C 0.78585 0.79965 0.39696 0.0
C1629 C 0.77125 0.79383 0.37885 0.0
C1630 C 0.78668 0.80519 0.36315 0.0
C1631 C 0.75528 0.76616 0.37454 0.0
C1632 C 0.75743 0.80619 0.38322 0.0
C1633 C 0.7633 0.8172 0.401 0.0
C1634 C 0.75315 0.83009 0.4081 0.0
C1635 C 0.7365 0.83171 0.39671 0.0
C1636 C 0.73009 0.82033 0.37855 0.0
C1637 C 0.74074 0.80751 0.37171 0.0
H1638 H 0.23582 0.03108 0.36386 0.0
H1639 H 0.23055 0.01846 0.42172 0.0
H1640 H 0.21989 0.97602 0.41408 0.0
H1641 H 0.1857 0.97266 0.34763 0.0
H1642 H 0.19802 0.96874 0.32724 0.0
H1643 H 0.2066 0.99892 0.3371 0.0
H1644 H 0.24975 0.00992 0.33919 0.0
H1645 H 0.24128 0.97969 0.32948 0.0
H1646 H 0.25842 0.99137 0.35134 0.0
H1647 H 0.20963 0.93541 0.40105 0.0
H1648 H 0.19695 0.89673 0.38245 0.0
H1649 H 0.20642 0.93317 0.33249 0.0
C1650 C 0.23241 0.01937 0.37489 0.0
C1651 C 0.23475 0.02846 0.39347 0.0
C1652 C 0.22982 0.01236 0.40746 0.0
C1653 C 0.22356 0.98808 0.40327 0.0
C1654 C 0.22191 0.97987 0.38497 0.0
C1655 C 0.22586 0.99478 0.37092 0.0
C1656 C 0.2217 0.98061 0.35236 0.0
C1657 C 0.20182 0.98021 0.34038 0.0
C1658 C 0.24413 0.99102 0.34251 0.0
C1659 C 0.21477 0.9555 0.35829 0.0
C1660 C 0.21526 0.95574 0.37723 0.0
C1661 C 0.20924 0.93495 0.38622 0.0
C1662 C 0.20211 0.91313 0.37558 0.0
C1663 C 0.20098 0.91222 0.35619 0.0
C1664 C 0.20756 0.93365 0.34735 0.0
H1665 H 0.52418 0.67948 0.27508 0.0
H1666 H 0.53334 0.63141 0.30997 0.0
H1667 H 0.56451 0.66717 0.32941 0.0
H1668 H 0.58353 0.72623 0.27624 0.0
H1669 H 0.57703 0.75065 0.27722 0.0
H1670 H 0.55587 0.72106 0.26645 0.0
H1671 H 0.52605 0.72061 0.28817 0.0
H1672 H 0.54766 0.74995 0.29922 0.0
H1673 H 0.53301 0.72446 0.31271 0.0
H1674 H 0.59584 0.70816 0.34405 0.0
H1675 H 0.62474 0.75137 0.35319 0.0
H1676 H 0.59374 0.77281 0.30963 0.0
C1677 C 0.53286 0.67662 0.2868 0.0
C1678 C 0.52669 0.65288 0.29104 0.0
C1679 C 0.53803 0.64958 0.30657 0.0
C1680 C 0.55566 0.66973 0.31766 0.0
C1681 C 0.56136 0.693 0.31319 0.0
C1682 C 0.55017 0.69654 0.29823 0.0
C1683 C 0.55942 0.72341 0.29656 0.0
C1684 C 0.5696 0.73076 0.27802 0.0
C1685 C 0.5404 0.72999 0.29933 0.0
C1686 C 0.57818 0.73445 0.31249 0.0
C1687 C 0.57889 0.71659 0.322 0.0
C1688 C 0.59531 0.72232 0.33683 0.0
C1689 C 0.61165 0.74692 0.34193 0.0
C1690 C 0.61142 0.76554 0.33227 0.0
C1691 C 0.59418 0.75909 0.31753 0.0
H1692 H 0.34792 0.91384 0.26642 0.0
H1693 H 0.35713 0.85239 0.27669 0.0
H1694 H 0.32235 0.83496 0.29374 0.0
H1695 H 0.32889 0.92024 0.30929 0.0
H1696 H 0.30698 0.92683 0.3006 0.0
H1697 H 0.33192 0.93429 0.28806 0.0
H1698 H 0.30495 0.90872 0.25899 0.0
H1699 H 0.27991 0.90147 0.27139 0.0
H1700 H 0.28313 0.87736 0.26045 0.0
H1701 H 0.28937 0.82595 0.31217 0.0
H1702 H 0.25631 0.82312 0.32789 0.0
H1703 H 0.26588 0.88852 0.3046 0.0
C1704 C 0.34231 0.89649 0.27195 0.0
C1705 C 0.35556 0.88474 0.2705 0.0
C1706 C 0.34763 0.86206 0.27798 0.0
C1707 C 0.32782 0.85191 0.28764 0.0
C1708 C 0.3157 0.86435 0.28947 0.0
C1709 C 0.32225 0.88585 0.28155 0.0
C1710 C 0.30595 0.89538 0.28583 0.0
C1711 C 0.31923 0.92069 0.29659 0.0
C1712 C 0.2927 0.89575 0.26811 0.0
C1713 C 0.28973 0.87619 0.29773 0.0
C1714 C 0.29581 0.85854 0.29966 0.0
C1715 C 0.2842 0.83946 0.31059 0.0
C1716 C 0.26555 0.8381 0.31956 0.0
C1717 C 0.25857 0.85556 0.31744 0.0
C1718 C 0.27085 0.87489 0.30641 0.0
H1719 H 0.13757 0.45705 0.26537 0.0
H1720 H 0.07525 0.44288 0.29094 0.0
H1721 H 0.07874 0.41323 0.30956 0.0
H1722 H 0.12924 0.3961 0.26334 0.0
H1723 H 0.15986 0.40747 0.26892 0.0
H1724 H 0.15055 0.42575 0.25729 0.0
H1725 H 0.17457 0.46049 0.28345 0.0
H1726 H 0.18244 0.44109 0.2952 0.0
H1727 H 0.16808 0.45483 0.30693 0.0
H1728 H 0.08872 0.38464 0.32487 0.0
H1729 H 0.10551 0.3607 0.33706 0.0
H1730 H 0.16236 0.39497 0.30238 0.0
C1731 C 0.12461 0.44751 0.27481 0.0
C1732 C 0.10602 0.45193 0.27668 0.0
C1733 C 0.08957 0.43959 0.28937 0.0
C1734 C 0.0914 0.42274 0.29993 0.0
C1735 C 0.10997 0.41878 0.29781 0.0
C1736 C 0.12642 0.43098 0.2857 0.0
C1737 C 0.14524 0.42421 0.28662 0.0
C1738 C 0.14623 0.41266 0.26792 0.0
C1739 C 0.16898 0.44648 0.29346 0.0
C1740 C 0.13648 0.40579 0.30077 0.0
C1741 C 0.11614 0.40294 0.30707 0.0
C1742 C 0.1047 0.38679 0.3201 0.0
C1743 C 0.11435 0.37323 0.32692 0.0
C1744 C 0.13531 0.37602 0.32077 0.0
C1745 C 0.14643 0.39254 0.3075 0.0
H1746 H 0.34905 0.47097 0.28272 0.0
H1747 H 0.31438 0.46615 0.22941 0.0
H1748 H 0.27637 0.44005 0.24104 0.0
H1749 H 0.31083 0.40976 0.29265 0.0
H1750 H 0.31131 0.4175 0.31681 0.0
H1751 H 0.33595 0.4361 0.30444 0.0
H1752 H 0.33322 0.47418 0.31466 0.0
H1753 H 0.3086 0.45571 0.32711 0.0
H1754 H 0.30621 0.47385 0.30994 0.0
H1755 H 0.24234 0.41401 0.25796 0.0
H1756 H 0.214 0.38998 0.2795 0.0
H1757 H 0.27019 0.41205 0.32229 0.0
C1758 C 0.33345 0.46466 0.27356 0.0
C1759 C 0.33473 0.47051 0.2551 0.0
C1760 C 0.31389 0.4616 0.2435 0.0
C1761 C 0.2922 0.44689 0.25001 0.0
C1762 C 0.29159 0.44132 0.26819 0.0
C1763 C 0.3116 0.44996 0.27985 0.0
C1764 C 0.30597 0.44101 0.29876 0.0
C1765 C 0.31665 0.42515 0.30343 0.0
C1766 C 0.31397 0.46247 0.31349 0.0
C1767 C 0.27967 0.42596 0.29586 0.0
C1768 C 0.2718 0.42641 0.2781 0.0
C1769 C 0.24827 0.41362 0.27194 0.0
C1770 C 0.23233 0.40002 0.28428 0.0
C1771 C 0.23996 0.39929 0.30255 0.0
C1772 C 0.26393 0.41246 0.30842 0.0
H1773 H 0.54122 0.90872 0.27761 0.0
H1774 H 0.5392 0.87834 0.22249 0.0
H1775 H 0.56311 0.86152 0.23439 0.0
H1776 H 0.60016 0.92603 0.29165 0.0
H1777 H 0.59464 0.91827 0.31493 0.0
H1778 H 0.57693 0.92751 0.30216 0.0
H1779 H 0.53989 0.88749 0.30802 0.0
H1780 H 0.5575 0.87809 0.32077 0.0
H1781 H 0.53776 0.85865 0.30148 0.0
H1782 H 0.58693 0.84787 0.25207 0.0
H1783 H 0.61092 0.83987 0.27441 0.0
H1784 H 0.59823 0.87947 0.31806 0.0
C1785 C 0.54569 0.89838 0.26808 0.0
C1786 C 0.53841 0.8949 0.2491 0.0
C1787 C 0.54484 0.88152 0.23703 0.0
C1788 C 0.55826 0.87174 0.24368 0.0
C1789 C 0.56512 0.87549 0.26244 0.0
C1790 C 0.55917 0.88856 0.27448 0.0
C1791 C 0.56933 0.89043 0.29394 0.0
C1792 C 0.58627 0.91715 0.30108 0.0
C1793 C 0.54996 0.87791 0.30681 0.0
C1794 C 0.58202 0.87647 0.29093 0.0
C1795 C 0.57922 0.86789 0.27265 0.0
C1796 C 0.58938 0.85462 0.26639 0.0
C1797 C 0.60309 0.85034 0.2791 0.0
C1798 C 0.6067 0.85946 0.29775 0.0
C1799 C 0.59573 0.87234 0.30382 0.0
H1800 H 0.13467 0.66823 0.27537 0.0
H1801 H 0.08042 0.62656 0.31042 0.0
H1802 H 0.0868 0.66489 0.3267 0.0
H1803 H 0.17298 0.71436 0.3108 0.0
H1804 H 0.18323 0.73872 0.29595 0.0
H1805 H 0.17362 0.70809 0.28657 0.0
H1806 H 0.14407 0.71007 0.26324 0.0
H1807 H 0.15366 0.74075 0.27252 0.0
H1808 H 0.12333 0.71783 0.27153 0.0
H1809 H 0.09856 0.70784 0.33852 0.0
H1810 H 0.1165 0.75226 0.34638 0.0
H1811 H 0.1648 0.76558 0.3049 0.0
C1812 C 0.12403 0.66727 0.28637 0.0
C1813 C 0.10693 0.64461 0.29161 0.0
C1814 C 0.09358 0.64387 0.30626 0.0
C1815 C 0.09706 0.66548 0.31552 0.0
C1816 C 0.11416 0.6876 0.31009 0.0
C1817 C 0.12757 0.68864 0.29596 0.0
C1818 C 0.14541 0.7147 0.29328 0.0
C1819 C 0.17028 0.71922 0.29687 0.0
C1820 C 0.14136 0.72121 0.274 0.0
C1821 C 0.13988 0.72816 0.30805 0.0
C1822 C 0.12165 0.71223 0.31747 0.0
C1823 C 0.11296 0.72048 0.33134 0.0
C1824 C 0.12321 0.74569 0.33568 0.0
C1825 C 0.14213 0.76226 0.32637 0.0
C1826 C 0.15058 0.75331 0.31244 0.0
H1827 H 0.77814 0.02027 0.3901 0.0
H1828 H 0.83948 0.01956 0.37344 0.0
H1829 H 0.81453 0.98026 0.35522 0.0
H1830 H 0.74515 0.95696 0.3957 0.0
H1831 H 0.7177 0.95346 0.38712 0.0
H1832 H 0.74032 0.98244 0.39789 0.0
H1833 H 0.73823 0.00305 0.36876 0.0
H1834 H 0.71568 0.97405 0.35786 0.0
H1835 H 0.7418 0.99178 0.34673 0.0
H1836 H 0.78358 0.93948 0.34148 0.0
H1837 H 0.74807 0.89977 0.33253 0.0
H1838 H 0.70626 0.92703 0.35637 0.0
C1839 C 0.7863 0.0119 0.38253 0.0
C1840 C 0.81081 0.0232 0.38305 0.0
C1841 C 0.82078 0.01159 0.37296 0.0
C1842 C 0.80675 0.98918 0.36261 0.0
C1843 C 0.78272 0.97858 0.36238 0.0
C1844 C 0.7725 0.98952 0.372 0.0
C1845 C 0.7462 0.97362 0.36998 0.0
C1846 C 0.7368 0.96618 0.38879 0.0
C1847 C 0.73481 0.98639 0.36025 0.0
C1848 C 0.74331 0.95193 0.35794 0.0
C1849 C 0.76465 0.9552 0.35378 0.0
C1850 C 0.76673 0.93688 0.34429 0.0
C1851 C 0.74653 0.91445 0.33924 0.0
C1852 C 0.72453 0.91069 0.3434 0.0
C1853 C 0.72284 0.92981 0.35252 0.0
H1854 H 0.0029 0.76741 0.4163 0.0
H1855 H 0.98961 0.82572 0.40389 0.0
H1856 H 0.02167 0.84149 0.38403 0.0
H1857 H 0.06618 0.80581 0.41864 0.0
H1858 H 0.07081 0.78225 0.40852 0.0
H1859 H 0.04635 0.77437 0.4218 0.0
H1860 H 0.01783 0.74563 0.39467 0.0
H1861 H 0.04192 0.75269 0.38116 0.0
H1862 H 0.01851 0.75702 0.37252 0.0
H1863 H 0.05319 0.84965 0.36391 0.0
H1864 H 0.08564 0.85235 0.34726 0.0
H1865 H 0.08126 0.79124 0.37424 0.0
C1866 C 0.00689 0.78366 0.4096 0.0
C1867 C 0.99316 0.79484 0.41134 0.0
C1868 C 0.99917 0.81617 0.40232 0.0
C1869 C 0.01754 0.82548 0.3911 0.0
C1870 C 0.03023 0.81365 0.38927 0.0
C1871 C 0.02552 0.7935 0.3985 0.0
C1872 C 0.04234 0.78469 0.39432 0.0
C1873 C 0.05732 0.78692 0.41185 0.0
C1874 C 0.02937 0.75845 0.38512 0.0
C1875 C 0.05678 0.8027 0.38099 0.0
C1876 C 0.04937 0.81916 0.37824 0.0
C1877 C 0.05935 0.83703 0.36607 0.0
C1878 C 0.07764 0.83833 0.35659 0.0
C1879 C 0.08585 0.822 0.35946 0.0
C1880 C 0.07526 0.80394 0.3718 0.0
H1881 H 0.19556 0.20782 0.40725 0.0
H1882 H 0.26521 0.2375 0.39016 0.0
H1883 H 0.25965 0.26656 0.37233 0.0
H1884 H 0.16947 0.21286 0.36331 0.0
H1885 H 0.14997 0.22058 0.3741 0.0
H1886 H 0.1591 0.2016 0.38501 0.0
H1887 H 0.17472 0.23164 0.41467 0.0
H1888 H 0.16451 0.24962 0.40369 0.0
H1889 H 0.19454 0.26352 0.41279 0.0
H1890 H 0.24717 0.29309 0.35747 0.0
H1891 H 0.22859 0.31551 0.34596 0.0
H1892 H 0.16648 0.26861 0.37242 0.0
C1893 C 0.20949 0.2204 0.39962 0.0
C1894 C 0.23081 0.22064 0.39995 0.0
C1895 C 0.24877 0.23719 0.38992 0.0
C1896 C 0.24575 0.25368 0.37981 0.0
C1897 C 0.22458 0.25316 0.37979 0.0
C1898 C 0.20667 0.23687 0.38931 0.0
C1899 C 0.18571 0.24027 0.387 0.0
C1900 C 0.16483 0.21747 0.37674 0.0
C1901 C 0.17955 0.24668 0.40566 0.0
C1902 C 0.19495 0.26159 0.37525 0.0
C1903 C 0.2173 0.2685 0.37109 0.0
C1904 C 0.22963 0.28779 0.36055 0.0
C1905 C 0.21888 0.30044 0.35407 0.0
C1906 C 0.196 0.29385 0.35819 0.0
C1907 C 0.18392 0.27407 0.36892 0.0
H1908 H 0.66314 0.56922 0.75047 0.0
H1909 H 0.64039 0.49467 0.73007 0.0
H1910 H 0.67417 0.50915 0.71183 0.0
H1911 H 0.68278 0.59555 0.70904 0.0
H1912 H 0.70782 0.62299 0.71965 0.0
H1913 H 0.68264 0.6069 0.73214 0.0
H1914 H 0.70805 0.60354 0.75864 0.0
H1915 H 0.73329 0.62012 0.74631 0.0
H1916 H 0.7261 0.59067 0.75352 0.0
H1917 H 0.70849 0.53146 0.6941 0.0
H1918 H 0.74289 0.56055 0.67917 0.0
H1919 H 0.74455 0.62069 0.71156 0.0
C1920 C 0.66553 0.55596 0.74242 0.0
C1921 C 0.649 0.53083 0.74155 0.0
C1922 C 0.65261 0.51404 0.7307 0.0
C1923 C 0.67181 0.52206 0.72036 0.0
C1924 C 0.68745 0.54695 0.72113 0.0
C1925 C 0.68472 0.56368 0.73199 0.0
C1926 C 0.70382 0.58946 0.72985 0.0
C1927 C 0.69365 0.60461 0.72221 0.0
C1928 C 0.71871 0.60166 0.74817 0.0
C1929 C 0.71742 0.58455 0.71589 0.0
C1930 C 0.70765 0.55988 0.71107 0.0
C1931 C 0.71648 0.55083 0.69788 0.0
C1932 C 0.73592 0.56745 0.68942 0.0
C1933 C 0.74628 0.59276 0.69422 0.0
C1934 C 0.73695 0.60138 0.70768 0.0
H1935 H 0.4669 0.1081 0.75079 0.0
H1936 H 0.49412 0.0982 0.70031 0.0
H1937 H 0.46802 0.10811 0.68258 0.0
H1938 H 0.40636 0.08167 0.73073 0.0
H1939 H 0.40141 0.10294 0.74426 0.0
H1940 H 0.42168 0.09422 0.75319 0.0
H1941 H 0.45389 0.13963 0.75815 0.0
H1942 H 0.43377 0.14845 0.74912 0.0
H1943 H 0.46081 0.15809 0.73901 0.0
H1944 H 0.44177 0.12176 0.67049 0.0
H1945 H 0.41395 0.13574 0.66403 0.0
H1946 H 0.40113 0.13486 0.72168 0.0
C1947 C 0.46708 0.10763 0.73598 0.0
C1948 C 0.48281 0.10267 0.72697 0.0
C1949 C 0.48263 0.10246 0.70758 0.0
C1950 C 0.46775 0.1079 0.69735 0.0
C1951 C 0.45289 0.11322 0.70665 0.0
C1952 C 0.45214 0.11286 0.72547 0.0
C1953 C 0.43458 0.11964 0.73192 0.0
C1954 C 0.41483 0.09834 0.74053 0.0
C1955 C 0.44648 0.14283 0.74534 0.0
C1956 C 0.42593 0.12421 0.71378 0.0
C1957 C 0.43688 0.12043 0.69946 0.0
C1958 C 0.43284 0.1245 0.68151 0.0
C1959 C 0.41708 0.13255 0.67802 0.0
C1960 C 0.40535 0.13624 0.69234 0.0
C1961 C 0.40973 0.13192 0.71047 0.0
H1962 H 0.86581 0.32906 0.73135 0.0
H1963 H 0.91723 0.37123 0.69439 0.0
H1964 H 0.9106 0.33317 0.67763 0.0
H1965 H 0.87866 0.28087 0.73445 0.0
H1966 H 0.84846 0.25768 0.73446 0.0
H1967 H 0.858 0.28848 0.74315 0.0
H1968 H 0.82629 0.28757 0.72027 0.0
H1969 H 0.81778 0.25706 0.71124 0.0
H1970 H 0.82637 0.28089 0.696 0.0
H1971 H 0.89966 0.29086 0.66574 0.0
H1972 H 0.88498 0.24693 0.65923 0.0
H1973 H 0.83955 0.23173 0.70325 0.0
C1974 C 0.87569 0.33019 0.71976 0.0
C1975 C 0.8921 0.35302 0.71416 0.0
C1976 C 0.90452 0.35388 0.69881 0.0
C1977 C 0.90087 0.33239 0.68923 0.0
C1978 C 0.88451 0.31017 0.69503 0.0
C1979 C 0.87199 0.30887 0.70985 0.0
C1980 C 0.8553 0.2826 0.7131 0.0
C1981 C 0.86046 0.27709 0.73244 0.0
C1982 C 0.82993 0.27669 0.70996 0.0
C1983 C 0.86106 0.26936 0.69824 0.0
C1984 C 0.8778 0.28565 0.68788 0.0
C1985 C 0.88643 0.27791 0.67367 0.0
C1986 C 0.87798 0.25289 0.67008 0.0
C1987 C 0.86101 0.2358 0.68063 0.0
C1988 C 0.85228 0.24425 0.69475 0.0
H1989 H 0.19689 0.01107 0.60222 0.0
H1990 H 0.2162 0.96132 0.62473 0.0
H1991 H 0.24846 0.99555 0.64454 0.0
H1992 H 0.25594 0.06323 0.60215 0.0
H1993 H 0.24699 0.0849 0.60863 0.0
H1994 H 0.22671 0.05651 0.59565 0.0
H1995 H 0.1982 0.04803 0.6209 0.0
H1996 H 0.21903 0.07605 0.63411 0.0
H1997 H 0.20762 0.04759 0.64436 0.0
H1998 H 0.27748 0.03458 0.66251 0.0
H1999 H 0.30377 0.07667 0.67592 0.0
H2000 H 0.26545 0.10147 0.64211 0.0
C2001 C 0.2083 0.00763 0.61106 0.0
C2002 C 0.20454 0.98382 0.61185 0.0
C2003 C 0.21923 0.97962 0.62385 0.0
C2004 C 0.23742 0.99887 0.63519 0.0
C2005 C 0.24049 0.02213 0.63441 0.0
C2006 C 0.2265 0.02668 0.62257 0.0
C2007 C 0.23334 0.05333 0.62474 0.0
C2008 C 0.24123 0.06519 0.60672 0.0
C2009 C 0.21336 0.05642 0.63143 0.0
C2010 C 0.25348 0.06306 0.63951 0.0
C2011 C 0.25715 0.0447 0.64498 0.0
C2012 C 0.27483 0.04915 0.65833 0.0
C2013 C 0.28962 0.07316 0.66593 0.0
C2014 C 0.28673 0.09248 0.66014 0.0
C2015 C 0.26805 0.08716 0.647 0.0
H2016 H 0.9989 0.19843 0.5829 0.0
H2017 H 0.051 0.22383 0.62949 0.0
H2018 H 0.02165 0.21926 0.65042 0.0
H2019 H 0.96757 0.2284 0.60109 0.0
H2020 H 0.93936 0.20361 0.59223 0.0
H2021 H 0.96463 0.20992 0.58044 0.0
H2022 H 0.95528 0.16548 0.58261 0.0
H2023 H 0.93006 0.15909 0.59446 0.0
H2024 H 0.952 0.1536 0.60478 0.0
H2025 H 0.98701 0.20918 0.66662 0.0
H2026 H 0.94854 0.19671 0.67738 0.0
H2027 H 0.91804 0.17934 0.6209 0.0
C2028 C 0.00413 0.20337 0.59747 0.0
C2029 C 0.02719 0.21114 0.60459 0.0
C2030 C 0.03336 0.21733 0.62376 0.0
C2031 C 0.01685 0.21496 0.63576 0.0
C2032 C 0.99421 0.20663 0.62844 0.0
C2033 C 0.98777 0.20119 0.60976 0.0
C2034 C 0.96196 0.19215 0.60576 0.0
C2035 C 0.95816 0.20956 0.5942 0.0
C2036 C 0.94907 0.16603 0.59635 0.0
C2037 C 0.955 0.19296 0.62515 0.0
C2038 C 0.97398 0.20138 0.63794 0.0
C2039 C 0.97203 0.20283 0.65676 0.0
C2040 C 0.95009 0.19561 0.66273 0.0
C2041 C 0.9304 0.1872 0.64995 0.0
C2042 C 0.93289 0.18593 0.6309 0.0
H2043 H 0.81117 0.79646 0.60449 0.0
H2044 H 0.73811 0.74539 0.58894 0.0
H2045 H 0.74112 0.71418 0.60574 0.0
H2046 H 0.8297 0.75171 0.59948 0.0
H2047 H 0.85157 0.76505 0.61872 0.0
H2048 H 0.84415 0.784 0.60587 0.0
H2049 H 0.83459 0.8001 0.63533 0.0
H2050 H 0.84238 0.78177 0.64863 0.0
H2051 H 0.81411 0.77883 0.64966 0.0
H2052 H 0.75137 0.68963 0.62594 0.0
H2053 H 0.76901 0.67134 0.64512 0.0
H2054 H 0.83636 0.73707 0.64599 0.0
C2055 C 0.79588 0.77864 0.60457 0.0
C2056 C 0.77437 0.77327 0.59544 0.0
C2057 C 0.75476 0.74975 0.59572 0.0
C2058 C 0.75629 0.73199 0.60531 0.0
C2059 C 0.77766 0.73791 0.61434 0.0
C2060 C 0.79722 0.76051 0.6138 0.0
C2061 C 0.8182 0.76188 0.62428 0.0
C2062 C 0.83703 0.76589 0.61132 0.0
C2063 C 0.82788 0.78183 0.64043 0.0
C2064 C 0.80729 0.73667 0.63105 0.0
C2065 C 0.78383 0.72328 0.6253 0.0
C2066 C 0.76976 0.69986 0.63038 0.0
C2067 C 0.77994 0.6897 0.64143 0.0
C2068 C 0.80407 0.70276 0.64715 0.0
C2069 C 0.81788 0.72659 0.64183 0.0
H2070 H 0.99868 0.76816 0.59154 0.0
H2071 H 0.02272 0.83864 0.62172 0.0
H2072 H 0.99348 0.81905 0.64345 0.0
H2073 H 0.93732 0.74741 0.59562 0.0
H2074 H 0.92986 0.71624 0.59748 0.0
H2075 H 0.95373 0.73553 0.58466 0.0
H2076 H 0.98076 0.7258 0.60479 0.0
H2077 H 0.95689 0.7068 0.61774 0.0
H2078 H 0.98329 0.73163 0.62944 0.0
H2079 H 0.96311 0.79185 0.66318 0.0
H2080 H 0.92843 0.75965 0.67606 0.0
H2081 H 0.92014 0.70799 0.631 0.0
C2082 C 0.99775 0.77962 0.60256 0.0
C2083 C 0.01389 0.80498 0.60513 0.0
C2084 C 0.01159 0.81906 0.61979 0.0
C2085 C 0.9948 0.80814 0.63221 0.0
C2086 C 0.97977 0.78313 0.6296 0.0
C2087 C 0.98056 0.76912 0.61486 0.0
C2088 C 0.9612 0.74284 0.6146 0.0
C2089 C 0.94455 0.73508 0.59703 0.0
C2090 C 0.97114 0.72576 0.61677 0.0
C2091 C 0.94952 0.7444 0.63148 0.0
C2092 C 0.96088 0.76772 0.64017 0.0
C2093 C 0.95388 0.77356 0.6564 0.0
C2094 C 0.93432 0.75518 0.66369 0.0
C2095 C 0.92173 0.73153 0.65447 0.0
C2096 C 0.92953 0.72603 0.63825 0.0
H2097 H 0.20445 0.22241 0.60827 0.0
H2098 H 0.21572 0.20498 0.55288 0.0
H2099 H 0.24323 0.19305 0.56554 0.0
H2100 H 0.26304 0.24746 0.62771 0.0
H2101 H 0.2552 0.23494 0.64948 0.0
H2102 H 0.23596 0.24173 0.63617 0.0
H2103 H 0.20249 0.19723 0.63665 0.0
H2104 H 0.22163 0.19029 0.64999 0.0
H2105 H 0.20669 0.17252 0.62856 0.0
H2106 H 0.26966 0.1835 0.58382 0.0
H2107 H 0.29403 0.17728 0.6069 0.0
H2108 H 0.26591 0.20032 0.65073 0.0
C2109 C 0.21254 0.21586 0.59882 0.0
C2110 C 0.20801 0.21476 0.57955 0.0
C2111 C 0.21918 0.20637 0.56765 0.0
C2112 C 0.2347 0.19937 0.57471 0.0
C2113 C 0.23885 0.20078 0.59372 0.0
C2114 C 0.22812 0.20878 0.60564 0.0
C2115 C 0.23602 0.20888 0.62551 0.0
C2116 C 0.24829 0.2348 0.63529 0.0
C2117 C 0.21548 0.19117 0.63578 0.0
C2118 C 0.25299 0.19985 0.62286 0.0
C2119 C 0.25424 0.19525 0.60437 0.0
C2120 C 0.26887 0.18711 0.59832 0.0
C2121 C 0.28277 0.1838 0.6115 0.0
C2122 C 0.28207 0.18867 0.63048 0.0
C2123 C 0.26676 0.1965 0.63627 0.0
H2124 H 0.77028 0.98006 0.62234 0.0
H2125 H 0.83192 0.97727 0.64062 0.0
H2126 H 0.84733 0.01664 0.65896 0.0
H2127 H 0.79977 0.04411 0.61754 0.0
H2128 H 0.77691 0.0486 0.62555 0.0
H2129 H 0.77001 0.01951 0.61449 0.0
H2130 H 0.74967 0.9985 0.64289 0.0
H2131 H 0.75665 0.02759 0.6541 0.0
H2132 H 0.76555 0.00861 0.66531 0.0
H2133 H 0.8577 0.05746 0.67325 0.0
H2134 H 0.86229 0.0976 0.68274 0.0
H2135 H 0.7934 0.07397 0.65701 0.0
C2136 C 0.78698 0.98773 0.63024 0.0
C2137 C 0.79976 0.97538 0.63018 0.0
C2138 C 0.82157 0.98607 0.64072 0.0
C2139 C 0.83053 0.00851 0.65115 0.0
C2140 C 0.81747 0.02009 0.65102 0.0
C2141 C 0.79617 0.01015 0.64088 0.0
C2142 C 0.78613 0.02693 0.64275 0.0
C2143 C 0.78303 0.03528 0.62397 0.0
C2144 C 0.76313 0.01467 0.65181 0.0
C2145 C 0.80525 0.04792 0.65536 0.0
C2146 C 0.82317 0.04354 0.65989 0.0
C2147 C 0.84362 0.06093 0.6701 0.0
C2148 C 0.84605 0.08362 0.67548 0.0
C2149 C 0.82803 0.08859 0.67092 0.0
C2150 C 0.80716 0.07033 0.66109 0.0
H2151 H 0.43824 0.35767 0.70632 0.0
H2152 H 0.48386 0.34848 0.74542 0.0
H2153 H 0.46485 0.30485 0.73453 0.0
H2154 H 0.38686 0.29972 0.71193 0.0
H2155 H 0.37577 0.29409 0.6881 0.0
H2156 H 0.39348 0.3249 0.6984 0.0
H2157 H 0.4218 0.33401 0.67304 0.0
H2158 H 0.40427 0.30313 0.66277 0.0
H2159 H 0.43475 0.31525 0.66941 0.0
H2160 H 0.44228 0.26341 0.71948 0.0
H2161 H 0.41406 0.224 0.7033 0.0
H2162 H 0.38037 0.25795 0.67456 0.0
C2163 C 0.44406 0.34631 0.71251 0.0
C2164 C 0.46243 0.35615 0.72666 0.0
C2165 C 0.46971 0.34102 0.73461 0.0
C2166 C 0.45914 0.31635 0.72846 0.0
C2167 C 0.44116 0.30709 0.71446 0.0
C2168 C 0.43335 0.32138 0.70671 0.0
C2169 C 0.41289 0.30623 0.69245 0.0
C2170 C 0.39095 0.30624 0.69806 0.0
C2171 C 0.41879 0.3152 0.67328 0.0
C2172 C 0.41055 0.28131 0.69344 0.0
C2173 C 0.4273 0.28249 0.70608 0.0
C2174 C 0.42901 0.26216 0.70956 0.0
C2175 C 0.41284 0.23981 0.70017 0.0
C2176 C 0.39486 0.23772 0.68757 0.0
C2177 C 0.39392 0.2589 0.68402 0.0
H2178 H 0.67639 0.08999 0.76365 0.0
H2179 H 0.67192 0.15521 0.7583 0.0
H2180 H 0.70706 0.17262 0.74158 0.0
H2181 H 0.74161 0.12259 0.76941 0.0
H2182 H 0.74302 0.09849 0.75645 0.0
H2183 H 0.71862 0.09148 0.76963 0.0
H2184 H 0.69013 0.06959 0.74064 0.0
H2185 H 0.71419 0.07622 0.72722 0.0
H2186 H 0.69367 0.08562 0.72037 0.0
H2187 H 0.73867 0.18051 0.72172 0.0
H2188 H 0.76852 0.18073 0.70293 0.0
H2189 H 0.75527 0.11214 0.72245 0.0
C2190 C 0.68325 0.10822 0.75944 0.0
C2191 C 0.67125 0.12114 0.76213 0.0
C2192 C 0.6806 0.14482 0.75616 0.0
C2193 C 0.70062 0.15493 0.74671 0.0
C2194 C 0.71146 0.14136 0.74357 0.0
C2195 C 0.70349 0.11876 0.75006 0.0
C2196 C 0.71811 0.10778 0.74411 0.0
C2197 C 0.73112 0.10492 0.7609 0.0
C2198 C 0.70312 0.08336 0.73239 0.0
C2199 C 0.73483 0.12731 0.7327 0.0
C2200 C 0.73063 0.1465 0.73262 0.0
C2201 C 0.74249 0.16586 0.72198 0.0
C2202 C 0.75926 0.16573 0.71123 0.0
C2203 C 0.76423 0.14657 0.71137 0.0
C2204 C 0.75196 0.12717 0.72232 0.0
H2205 H 0.91143 0.57753 0.74357 0.0
H2206 H 0.86057 0.50735 0.71527 0.0
H2207 H 0.84548 0.52741 0.69575 0.0
H2208 H 0.87225 0.60184 0.74387 0.0
H2209 H 0.89436 0.6324 0.74042 0.0
H2210 H 0.90214 0.61282 0.75199 0.0
H2211 H 0.93208 0.6196 0.72839 0.0
H2212 H 0.92416 0.63896 0.71663 0.0
H2213 H 0.92258 0.61285 0.70419 0.0
H2214 H 0.83515 0.55367 0.67957 0.0
H2215 H 0.82782 0.58538 0.66876 0.0
H2216 H 0.88418 0.63967 0.70712 0.0
C2217 C 0.89709 0.56644 0.73329 0.0
C2218 C 0.88762 0.54086 0.73068 0.0
C2219 C 0.8687 0.527 0.71718 0.0
C2220 C 0.85987 0.5382 0.70604 0.0
C2221 C 0.86989 0.56335 0.70862 0.0
C2222 C 0.88786 0.57739 0.722 0.0
C2223 C 0.89458 0.60406 0.72215 0.0
C2224 C 0.89059 0.61332 0.74071 0.0
C2225 C 0.91985 0.61979 0.71757 0.0
C2226 C 0.87752 0.60262 0.70679 0.0
C2227 C 0.8636 0.57887 0.6992 0.0
C2228 C 0.84596 0.57237 0.68531 0.0
C2229 C 0.84195 0.59051 0.67926 0.0
C2230 C 0.85553 0.61493 0.68701 0.0
C2231 C 0.87388 0.62121 0.70073 0.0
H2232 H 0.47089 0.95264 0.12351 0.0
H2233 H 0.46201 0.01208 0.14499 0.0
H2234 H 0.47586 0.03272 0.11661 0.0
H2235 H 0.52272 0.98856 0.1032 0.0
H2236 H 0.51604 0.9678 0.08312 0.0
H2237 H 0.50407 0.95628 0.10434 0.0
H2238 H 0.46236 0.93467 0.0888 0.0
H2239 H 0.47339 0.94492 0.06707 0.0
H2240 H 0.45228 0.95161 0.07607 0.0
H2241 H 0.49449 0.04848 0.08652 0.0
H2242 H 0.51105 0.055 0.05619 0.0
H2243 H 0.5051 0.98389 0.05451 0.0
C2244 C 0.47164 0.9699 0.12217 0.0
C2245 C 0.46543 0.98082 0.13644 0.0
C2246 C 0.46652 0.00334 0.13414 0.0
C2247 C 0.47451 0.01524 0.11813 0.0
C2248 C 0.48105 0.00421 0.10449 0.0
C2249 C 0.47929 0.98181 0.10627 0.0
C2250 C 0.48746 0.97375 0.08981 0.0
C2251 C 0.50883 0.97145 0.09547 0.0
C2252 C 0.46769 0.94982 0.07984 0.0
C2253 C 0.49397 0.99497 0.07838 0.0
C2254 C 0.49061 0.01265 0.08712 0.0
C2255 C 0.49685 0.03456 0.07947 0.0
C2256 C 0.50637 0.03822 0.06235 0.0
C2257 C 0.50911 0.01987 0.05303 0.0
C2258 C 0.50287 0.9981 0.06124 0.0
H2259 H 0.06616 0.56312 0.13265 0.0
H2260 H 0.04157 0.48784 0.14347 0.0
H2261 H 0.02401 0.47442 0.11173 0.0
H2262 H 0.01381 0.55018 0.10669 0.0
H2263 H 0.02821 0.57272 0.09079 0.0
H2264 H 0.0414 0.57711 0.11384 0.0
H2265 H 0.07877 0.58185 0.10084 0.0
H2266 H 0.06564 0.57741 0.07774 0.0
H2267 H 0.07675 0.55815 0.08484 0.0
H2268 H 0.00854 0.46862 0.07905 0.0
H2269 H 0.99379 0.47079 0.04794 0.0
H2270 H 0.02408 0.54891 0.05904 0.0
C2271 C 0.05704 0.54378 0.1285 0.0
C2272 C 0.05577 0.5267 0.1408 0.0
C2273 C 0.04371 0.50157 0.13441 0.0
C2274 C 0.03338 0.49364 0.11636 0.0
C2275 C 0.0348 0.51091 0.1048 0.0
C2276 C 0.04612 0.53543 0.11061 0.0
C2277 C 0.04376 0.54999 0.0957 0.0
C2278 C 0.03103 0.56328 0.10214 0.0
C2279 C 0.06765 0.56791 0.08941 0.0
C2280 C 0.02907 0.52972 0.08073 0.0
C2281 C 0.0245 0.50738 0.0862 0.0
C2282 C 0.01184 0.48596 0.07465 0.0
C2283 C 0.00354 0.48737 0.05705 0.0
C2284 C 0.00757 0.50994 0.0513 0.0
C2285 C 0.02045 0.53138 0.06329 0.0
H2286 H 0.49958 0.56523 0.13229 0.0
H2287 H 0.45625 0.4911 0.14646 0.0
H2288 H 0.46119 0.47538 0.11663 0.0
H2289 H 0.48068 0.55379 0.08365 0.0
H2290 H 0.50917 0.5739 0.07669 0.0
H2291 H 0.50139 0.57989 0.09882 0.0
H2292 H 0.53703 0.58001 0.1149 0.0
H2293 H 0.54509 0.57434 0.09283 0.0
H2294 H 0.54093 0.55415 0.11049 0.0
H2295 H 0.4708 0.4673 0.08543 0.0
H2296 H 0.4864 0.46778 0.05535 0.0
H2297 H 0.52539 0.54674 0.06201 0.0
C2298 C 0.49123 0.5457 0.12921 0.0
C2299 C 0.47721 0.52949 0.14176 0.0
C2300 C 0.46653 0.50401 0.13699 0.0
C2301 C 0.46936 0.49483 0.12009 0.0
C2302 C 0.48316 0.51127 0.10808 0.0
C2303 C 0.49407 0.53616 0.11243 0.0
C2304 C 0.5086 0.5498 0.09722 0.0
C2305 C 0.49941 0.56526 0.08859 0.0
C2306 C 0.53445 0.56549 0.10429 0.0
C2307 C 0.50442 0.52865 0.08386 0.0
C2308 C 0.48942 0.50659 0.09029 0.0
C2309 C 0.48262 0.48445 0.08026 0.0
C2310 C 0.4915 0.48488 0.06323 0.0
C2311 C 0.50707 0.50725 0.05651 0.0
C2312 C 0.51364 0.52938 0.06697 0.0
H2313 H 0.96151 0.50104 0.87069 0.0
H2314 H 0.91497 0.42289 0.86918 0.0
H2315 H 0.92644 0.42408 0.90179 0.0
H2316 H 0.00657 0.50601 0.89831 0.0
H2317 H 0.01363 0.53342 0.91232 0.0
H2318 H 0.99957 0.52775 0.88947 0.0
H2319 H 0.96607 0.53197 0.90233 0.0
H2320 H 0.98023 0.53801 0.92526 0.0
H2321 H 0.95061 0.51364 0.92028 0.0
H2322 H 0.94934 0.43143 0.93088 0.0
H2323 H 0.97593 0.44597 0.95898 0.0
H2324 H 0.00499 0.52044 0.94497 0.0
C2325 C 0.95319 0.48436 0.87741 0.0
C2326 C 0.93777 0.46175 0.8672 0.0
C2327 C 0.92734 0.4403 0.8765 0.0
C2328 C 0.93358 0.4408 0.8951 0.0
C2329 C 0.94974 0.46302 0.9045 0.0
C2330 C 0.95887 0.4846 0.89628 0.0
C2331 C 0.97662 0.50573 0.9097 0.0
C2332 C 1.00051 0.519 0.90198 0.0
C2333 C 0.96786 0.52338 0.91469 0.0
C2334 C 0.97716 0.49226 0.92614 0.0
C2335 C 0.96138 0.46763 0.92269 0.0
C2336 C 0.9607 0.45076 0.93433 0.0
C2337 C 0.97613 0.45921 0.95016 0.0
C2338 C 0.99197 0.48437 0.95441 0.0
C2339 C 0.99239 0.5012 0.94233 0.0
H2340 H 0.53555 0.51025 0.87733 0.0
H2341 H 0.51883 0.4349 0.87233 0.0
H2342 H 0.5117 0.432 0.90506 0.0
H2343 H 0.56281 0.52414 0.92673 0.0
H2344 H 0.55109 0.54347 0.93283 0.0
H2345 H 0.55892 0.54163 0.90978 0.0
H2346 H 0.51745 0.52918 0.89637 0.0
H2347 H 0.50925 0.53113 0.91917 0.0
H2348 H 0.49282 0.50329 0.90434 0.0
H2349 H 0.49839 0.43413 0.93527 0.0
H2350 H 0.4837 0.44266 0.96322 0.0
H2351 H 0.51143 0.51766 0.9511 0.0
C2352 C 0.53129 0.49353 0.88341 0.0
C2353 C 0.52784 0.4728 0.87245 0.0
C2354 C 0.52162 0.45095 0.88061 0.0
C2355 C 0.51758 0.44915 0.89917 0.0
C2356 C 0.5201 0.46949 0.90949 0.0
C2357 C 0.52723 0.49145 0.9021 0.0
C2358 C 0.52665 0.50976 0.916 0.0
C2359 C 0.55134 0.53104 0.92168 0.0
C2360 C 0.51058 0.51886 0.90852 0.0
C2361 C 0.51671 0.49415 0.93182 0.0
C2362 C 0.51329 0.47105 0.92773 0.0
C2363 C 0.50172 0.45237 0.93896 0.0
C2364 C 0.49336 0.45736 0.95479 0.0
C2365 C 0.497 0.48093 0.95949 0.0
C2366 C 0.50912 0.49969 0.94803 0.0
H2367 H 0.53282 0.00442 0.86972 0.0
H2368 H 0.48787 0.03566 0.86558 0.0
H2369 H 0.47558 0.02378 0.89615 0.0
H2370 H 0.49533 0.9534 0.89634 0.0
H2371 H 0.51947 0.95594 0.91062 0.0
H2372 H 0.52326 0.96456 0.8874 0.0
H2373 H 0.55723 0.00671 0.89954 0.0
H2374 H 0.55354 0.99926 0.92299 0.0
H2375 H 0.55249 0.02557 0.91594 0.0
H2376 H 0.46763 0.00892 0.92657 0.0
H2377 H 0.4684 0.99654 0.9578 0.0
H2378 H 0.52084 0.97795 0.9449 0.0
C2379 C 0.52033 0.00864 0.87523 0.0
C2380 C 0.51085 0.0204 0.8649 0.0
C2381 C 0.49479 0.0259 0.87281 0.0
C2382 C 0.4877 0.01929 0.89025 0.0
C2383 C 0.49693 0.00733 0.89986 0.0
C2384 C 0.51305 0.00223 0.89284 0.0
C2385 C 0.52136 0.99078 0.90688 0.0
C2386 C 0.51444 0.96461 0.89989 0.0
C2387 C 0.54774 0.00651 0.91166 0.0
C2388 C 0.50785 0.99097 0.92301 0.0
C2389 C 0.49341 1.00001 0.9183 0.0
C2390 C 0.47885 0.00182 0.93047 0.0
C2391 C 0.47935 0.99469 0.94813 0.0
C2392 C 0.4946 0.9863 0.95364 0.0
C2393 C 0.5089 0.98413 0.9409 0.0
H2394 H 0.15721 0.29102 0.46032 0.0
H2395 H 0.10594 0.3127 0.47063 0.0
H2396 H 0.11504 0.33434 0.44275 0.0
H2397 H 0.19958 0.34997 0.44606 0.0
H2398 H 0.21004 0.33673 0.42934 0.0
H2399 H 0.19872 0.32172 0.44969 0.0
H2400 H 0.16931 0.28247 0.42952 0.0
H2401 H 0.18054 0.29733 0.4091 0.0
H2402 H 0.14998 0.28366 0.41198 0.0
H2403 H 0.1281 0.35175 0.41263 0.0
H2404 H 0.14605 0.36564 0.38356 0.0
H2405 H 0.19257 0.33799 0.39548 0.0
C2406 C 0.14808 0.30063 0.45714 0.0
C2407 C 0.1306 0.29971 0.46797 0.0
C2408 C 0.11891 0.31227 0.46257 0.0
C2409 C 0.12417 0.32499 0.44678 0.0
C2410 C 0.14163 0.32568 0.43671 0.0
C2411 C 0.15362 0.3141 0.4418 0.0
C2412 C 0.1721 0.31822 0.42888 0.0
C2413 C 0.19656 0.33252 0.43911 0.0
C2414 C 0.16769 0.29399 0.4193 0.0
C2415 C 0.16822 0.33343 0.41545 0.0
C2416 C 0.15045 0.33741 0.42016 0.0
C2417 C 0.14242 0.3493 0.40905 0.0
C2418 C 0.15271 0.35717 0.39264 0.0
C2419 C 0.17108 0.35351 0.38773 0.0
C2420 C 0.17913 0.34178 0.39936 0.0
H2421 H 0.69668 0.83637 0.47087 0.0
H2422 H 0.75076 0.91235 0.47335 0.0
H2423 H 0.73951 0.91386 0.44109 0.0
H2424 H 0.70248 0.81977 0.42384 0.0
H2425 H 0.67179 0.80032 0.41737 0.0
H2426 H 0.68332 0.80367 0.44087 0.0
H2427 H 0.65585 0.81748 0.4528 0.0
H2428 H 0.64294 0.81327 0.42968 0.0
H2429 H 0.65449 0.84221 0.44302 0.0
H2430 H 0.72012 0.90902 0.41014 0.0
H2431 H 0.69593 0.89662 0.38059 0.0
H2432 H 0.65595 0.82288 0.39604 0.0
C2433 C 0.7064 0.85315 0.46449 0.0
C2434 C 0.72448 0.87434 0.47476 0.0
C2435 C 0.73661 0.89602 0.46592 0.0
C2436 C 0.73043 0.89704 0.44755 0.0
C2437 C 0.71218 0.87615 0.43798 0.0
C2438 C 0.70046 0.85449 0.44598 0.0
C2439 C 0.68098 0.83501 0.43257 0.0
C2440 C 0.68488 0.81342 0.42839 0.0
C2441 C 0.65716 0.8265 0.43996 0.0
C2442 C 0.6837 0.84918 0.41585 0.0
C2443 C 0.70164 0.87299 0.41948 0.0
C2444 C 0.70634 0.89032 0.40697 0.0
C2445 C 0.69245 0.88316 0.39026 0.0
C2446 C 0.67439 0.85879 0.38597 0.0
C2447 C 0.66999 0.84153 0.3989 0.0
H2448 H 0.12944 0.87285 0.45352 0.0
H2449 H 0.13399 0.81787 0.48301 0.0
H2450 H 0.14463 0.80357 0.45494 0.0
H2451 H 0.10521 0.83383 0.40817 0.0
H2452 H 0.12085 0.8598 0.39538 0.0
H2453 H 0.11102 0.86345 0.41723 0.0
H2454 H 0.15359 0.89664 0.42863 0.0
H2455 H 0.16325 0.89242 0.40693 0.0
H2456 H 0.17632 0.88908 0.42796 0.0
H2457 H 0.1606 0.79965 0.42516 0.0
H2458 H 0.17627 0.80325 0.39473 0.0
H2459 H 0.15791 0.85816 0.38369 0.0
C2460 C 0.13211 0.8574 0.45385 0.0
C2461 C 0.13083 0.84632 0.47032 0.0
C2462 C 0.13464 0.82634 0.47042 0.0
C2463 C 0.14076 0.81818 0.45458 0.0
C2464 C 0.14243 0.82984 0.43863 0.0
C2465 C 0.13764 0.84863 0.438 0.0
C2466 C 0.14132 0.85848 0.41927 0.0
C2467 C 0.11822 0.8536 0.40944 0.0
C2468 C 0.15971 0.88576 0.4208 0.0
C2469 C 0.15005 0.84317 0.40982 0.0
C2470 C 0.15053 0.82671 0.42118 0.0
C2471 C 0.15979 0.81206 0.41599 0.0
C2472 C 0.16875 0.81429 0.39876 0.0
C2473 C 0.16814 0.83083 0.38688 0.0
C2474 C 0.15834 0.84514 0.39242 0.0
H2475 H 0.63987 0.83467 0.20464 0.0
H2476 H 0.58636 0.75868 0.20411 0.0
H2477 H 0.5967 0.75945 0.237 0.0
H2478 H 0.68162 0.83104 0.23546 0.0
H2479 H 0.69251 0.86076 0.24738 0.0
H2480 H 0.68048 0.85473 0.22379 0.0
H2481 H 0.65315 0.86962 0.2332 0.0
H2482 H 0.66241 0.87379 0.25738 0.0
H2483 H 0.63221 0.85411 0.24923 0.0
H2484 H 0.61612 0.76603 0.26782 0.0
H2485 H 0.6391 0.78007 0.29786 0.0
H2486 H 0.67828 0.85312 0.28087 0.0
C2487 C 0.63013 0.81837 0.21157 0.0
C2488 C 0.61246 0.79651 0.20175 0.0
C2489 C 0.60021 0.77549 0.21126 0.0
C2490 C 0.60589 0.77575 0.22996 0.0
C2491 C 0.62376 0.79725 0.23912 0.0
C2492 C 0.63559 0.81831 0.23042 0.0
C2493 C 0.6545 0.83869 0.24368 0.0
C2494 C 0.67871 0.84677 0.23719 0.0
C2495 C 0.65033 0.86033 0.24606 0.0
C2496 C 0.65116 0.82573 0.26116 0.0
C2497 C 0.63365 0.80168 0.25792 0.0
C2498 C 0.62909 0.78502 0.27091 0.0
C2499 C 0.64239 0.79313 0.28786 0.0
C2500 C 0.65989 0.81777 0.29184 0.0
C2501 C 0.66438 0.83436 0.27833 0.0
H2502 H 0.16198 0.83014 0.195 0.0
H2503 H 0.22239 0.82154 0.20287 0.0
H2504 H 0.22245 0.8275 0.23655 0.0
H2505 H 0.18055 0.87813 0.2334 0.0
H2506 H 0.15137 0.86725 0.23966 0.0
H2507 H 0.15627 0.86289 0.2161 0.0
H2508 H 0.1281 0.81647 0.21596 0.0
H2509 H 0.12317 0.82068 0.23952 0.0
H2510 H 0.13321 0.79993 0.23312 0.0
H2511 H 0.21296 0.82878 0.26869 0.0
H2512 H 0.19786 0.83093 0.29817 0.0
H2513 H 0.14685 0.84479 0.27084 0.0
C2514 C 0.1753 0.82978 0.2039 0.0
C2515 C 0.19221 0.82538 0.19647 0.0
C2516 C 0.20943 0.82503 0.20838 0.0
C2517 C 0.20954 0.82832 0.22748 0.0
C2518 C 0.19257 0.83243 0.23443 0.0
C2519 C 0.17602 0.83366 0.22308 0.0
C2520 C 0.15993 0.83855 0.23432 0.0
C2521 C 0.16217 0.86317 0.23065 0.0
C2522 C 0.13461 0.81766 0.2305 0.0
C2523 C 0.16971 0.83925 0.25373 0.0
C2524 C 0.18839 0.8354 0.25334 0.0
C2525 C 0.19898 0.83277 0.26924 0.0
C2526 C 0.19046 0.83436 0.28601 0.0
C2527 C 0.1721 0.83945 0.28701 0.0
C2528 C 0.16151 0.84185 0.27059 0.0
H2529 H 0.15624 0.35499 0.21023 0.0
H2530 H 0.23022 0.37948 0.21644 0.0
H2531 H 0.22497 0.35983 0.24513 0.0
H2532 H 0.15413 0.36908 0.25805 0.0
H2533 H 0.12491 0.34423 0.25881 0.0
H2534 H 0.13409 0.35793 0.23763 0.0
H2535 H 0.12202 0.3153 0.22154 0.0
H2536 H 0.11339 0.30175 0.24287 0.0
H2537 H 0.13446 0.2981 0.23067 0.0
H2538 H 0.21212 0.33786 0.27332 0.0
H2539 H 0.19404 0.32129 0.30166 0.0
H2540 H 0.12957 0.31539 0.27948 0.0
C2541 C 0.17149 0.35644 0.21752 0.0
C2542 C 0.19362 0.3685 0.21047 0.0
C2543 C 0.21286 0.36964 0.22081 0.0
C2544 C 0.21011 0.35862 0.23732 0.0
C2545 C 0.18809 0.3468 0.24364 0.0
C2546 C 0.16921 0.34609 0.2343 0.0
C2547 C 0.14794 0.33434 0.24508 0.0
C2548 C 0.13976 0.35247 0.25018 0.0
C2549 C 0.12829 0.31098 0.2344 0.0
C2550 C 0.15788 0.32863 0.26198 0.0
C2551 C 0.18096 0.33553 0.26063 0.0
C2552 C 0.19408 0.33245 0.27455 0.0
C2553 C 0.18364 0.32298 0.29057 0.0
C2554 C 0.16052 0.31732 0.2928 0.0
C2555 C 0.14725 0.31949 0.2781 0.0
H2556 H 0.79536 0.61126 0.78958 0.0
H2557 H 0.80338 0.67693 0.81802 0.0
H2558 H 0.81394 0.69765 0.78937 0.0
H2559 H 0.84207 0.63944 0.76141 0.0
H2560 H 0.82693 0.61823 0.74144 0.0
H2561 H 0.81974 0.60866 0.76408 0.0
H2562 H 0.77641 0.59537 0.75512 0.0
H2563 H 0.78373 0.60471 0.73241 0.0
H2564 H 0.76957 0.61705 0.74598 0.0
H2565 H 0.82613 0.71191 0.75772 0.0
H2566 H 0.83675 0.71744 0.72551 0.0
H2567 H 0.81787 0.64148 0.71777 0.0
C2568 C 0.79934 0.62999 0.78972 0.0
C2569 C 0.79873 0.64261 0.80596 0.0
C2570 C 0.80376 0.66701 0.80565 0.0
C2571 C 0.80977 0.67889 0.78947 0.0
C2572 C 0.81026 0.66597 0.77364 0.0
C2573 C 0.80489 0.64194 0.7736 0.0
C2574 C 0.80648 0.63204 0.75476 0.0
C2575 C 0.8249 0.62414 0.75547 0.0
C2576 C 0.78263 0.61104 0.7466 0.0
C2577 C 0.81406 0.65436 0.74435 0.0
C2578 C 0.81623 0.67382 0.7554 0.0
C2579 C 0.82417 0.69668 0.74887 0.0
C2580 C 0.83016 0.69969 0.73061 0.0
C2581 C 0.82788 0.67988 0.71913 0.0
C2582 C 0.81947 0.65693 0.72612 0.0
H2583 H 0.36824 0.16362 0.80466 0.0
H2584 H 0.41106 0.24258 0.81011 0.0
H2585 H 0.40226 0.24328 0.77728 0.0
H2586 H 0.38558 0.15604 0.75753 0.0
H2587 H 0.35707 0.1308 0.74996 0.0
H2588 H 0.36796 0.13589 0.77383 0.0
H2589 H 0.33148 0.137 0.7832 0.0
H2590 H 0.32057 0.13209 0.7594 0.0
H2591 H 0.32435 0.15819 0.77347 0.0
H2592 H 0.38463 0.23671 0.74582 0.0
H2593 H 0.36224 0.22263 0.71564 0.0
H2594 H 0.33428 0.1475 0.72765 0.0
C2595 C 0.37616 0.18101 0.79888 0.0
C2596 C 0.3899 0.20311 0.81024 0.0
C2597 C 0.39984 0.22544 0.802 0.0
C2598 C 0.39518 0.22605 0.78325 0.0
C2599 C 0.38103 0.20414 0.77263 0.0
C2600 C 0.37203 0.18196 0.77993 0.0
C2601 C 0.35684 0.16125 0.76523 0.0
C2602 C 0.3675 0.14503 0.76141 0.0
C2603 C 0.33183 0.14626 0.77065 0.0
C2604 C 0.3579 0.17547 0.74886 0.0
C2605 C 0.37205 0.2002 0.75359 0.0
C2606 C 0.37407 0.21739 0.74173 0.0
C2607 C 0.36125 0.20919 0.72459 0.0
C2608 C 0.34709 0.184 0.71911 0.0
C2609 C 0.34557 0.16684 0.73132 0.0
H2610 H 0.80958 0.17164 0.80254 0.0
H2611 H 0.84341 0.25057 0.80447 0.0
H2612 H 0.85642 0.24929 0.77391 0.0
H2613 H 0.85016 0.16347 0.7799 0.0
H2614 H 0.82972 0.13698 0.76495 0.0
H2615 H 0.82156 0.14337 0.78674 0.0
H2616 H 0.7859 0.14272 0.77039 0.0
H2617 H 0.79378 0.1362 0.74846 0.0
H2618 H 0.78989 0.16217 0.75223 0.0
H2619 H 0.87164 0.24059 0.74635 0.0
H2620 H 0.88081 0.22438 0.71875 0.0
H2621 H 0.83359 0.15064 0.73157 0.0
C2622 C 0.81927 0.18861 0.7964 0.0
C2623 C 0.82609 0.21129 0.80634 0.0
C2624 C 0.83873 0.23301 0.79761 0.0
C2625 C 0.84605 0.23252 0.78012 0.0
C2626 C 0.84 0.21008 0.77112 0.0
C2627 C 0.82629 0.18844 0.77859 0.0
C2628 C 0.82228 0.16689 0.76564 0.0
C2629 C 0.83149 0.15179 0.77487 0.0
C2630 C 0.79642 0.15106 0.75876 0.0
C2631 C 0.83674 0.18 0.75019 0.0
C2632 C 0.84691 0.20493 0.75383 0.0
C2633 C 0.86296 0.22115 0.74282 0.0
C2634 C 0.86831 0.21173 0.72733 0.0
C2635 C 0.85757 0.18629 0.72288 0.0
C2636 C 0.84154 0.17018 0.73444 0.0
H2637 H 0.32536 0.18581 0.53928 0.0
H2638 H 0.26259 0.11502 0.53386 0.0
H2639 H 0.2689 0.1104 0.56658 0.0
H2640 H 0.3583 0.16953 0.56738 0.0
H2641 H 0.37383 0.19787 0.58174 0.0
H2642 H 0.36306 0.19744 0.55856 0.0
H2643 H 0.34131 0.21826 0.57062 0.0
H2644 H 0.35078 0.21827 0.59416 0.0
H2645 H 0.32023 0.20443 0.58695 0.0
H2646 H 0.28577 0.10953 0.59696 0.0
H2647 H 0.30846 0.11576 0.62647 0.0
H2648 H 0.35866 0.18882 0.61457 0.0
C2649 C 0.31257 0.16984 0.54527 0.0
C2650 C 0.29333 0.15085 0.53427 0.0
C2651 C 0.27725 0.1298 0.54225 0.0
C2652 C 0.28074 0.127 0.56075 0.0
C2653 C 0.30033 0.14553 0.57112 0.0
C2654 C 0.31576 0.16681 0.56389 0.0
C2655 C 0.33616 0.18307 0.57791 0.0
C2656 C 0.35919 0.18721 0.57098 0.0
C2657 C 0.33716 0.20743 0.58272 0.0
C2658 C 0.32982 0.16743 0.59399 0.0
C2659 C 0.30929 0.14567 0.58954 0.0
C2660 C 0.3013 0.12684 0.601 0.0
C2661 C 0.31433 0.13049 0.61768 0.0
C2662 C 0.33473 0.153 0.62298 0.0
C2663 C 0.34264 0.17173 0.61099 0.0
H2664 H 0.86693 0.15817 0.54615 0.0
H2665 H 0.8278 0.07904 0.53923 0.0
H2666 H 0.81786 0.07821 0.57114 0.0
H2667 H 0.88994 0.16177 0.59399 0.0
H2668 H 0.88839 0.18839 0.60146 0.0
H2669 H 0.89347 0.18369 0.57801 0.0
H2670 H 0.85789 0.1865 0.5659 0.0
H2671 H 0.85266 0.19177 0.58916 0.0
H2672 H 0.82993 0.16706 0.57407 0.0
H2673 H 0.80819 0.08546 0.60208 0.0
H2674 H 0.80241 0.10054 0.63192 0.0
H2675 H 0.8507 0.17482 0.62111 0.0
C2676 C 0.85663 0.14066 0.55143 0.0
C2677 C 0.84776 0.11867 0.53992 0.0
C2678 C 0.83424 0.09618 0.54747 0.0
C2679 C 0.82866 0.09547 0.56569 0.0
C2680 C 0.83709 0.11738 0.57645 0.0
C2681 C 0.8511 0.13957 0.56979 0.0
C2682 C 0.85755 0.16037 0.58443 0.0
C2683 C 0.88391 0.1744 0.5898 0.0
C2684 C 0.84899 0.17742 0.578 0.0
C2685 C 0.84427 0.14634 0.60006 0.0
C2686 C 0.83261 0.12155 0.59504 0.0
C2687 C 0.81763 0.10477 0.60636 0.0
C2688 C 0.81439 0.11351 0.62326 0.0
C2689 C 0.82636 0.13874 0.62889 0.0
C2690 C 0.84172 0.15539 0.61724 0.0
H2691 H 0.8336 0.70225 0.54217 0.0
H2692 H 0.90544 0.71835 0.54627 0.0
H2693 H 0.89829 0.69635 0.57401 0.0
H2694 H 0.83392 0.71572 0.59044 0.0
H2695 H 0.80377 0.6931 0.59118 0.0
H2696 H 0.81373 0.70745 0.57035 0.0
H2697 H 0.79739 0.66488 0.55251 0.0
H2698 H 0.78765 0.65047 0.57336 0.0
H2699 H 0.80674 0.64443 0.56028 0.0
H2700 H 0.88395 0.67437 0.60254 0.0
H2701 H 0.86397 0.65596 0.62994 0.0
H2702 H 0.8036 0.65926 0.60905 0.0
C2703 C 0.84818 0.70176 0.5489 0.0
C2704 C 0.8702 0.71234 0.54168 0.0
C2705 C 0.88824 0.71016 0.55101 0.0
C2706 C 0.88445 0.6979 0.56701 0.0
C2707 C 0.86274 0.68836 0.57386 0.0
C2708 C 0.84501 0.69044 0.56519 0.0
C2709 C 0.82381 0.68026 0.57601 0.0
C2710 C 0.81849 0.70032 0.58236 0.0
C2711 C 0.80265 0.65873 0.56487 0.0
C2712 C 0.83233 0.67196 0.59212 0.0
C2713 C 0.85476 0.67657 0.59054 0.0
C2714 C 0.86644 0.6708 0.60393 0.0
C2715 C 0.85505 0.66053 0.61947 0.0
C2716 C 0.83252 0.65671 0.62168 0.0
C2717 C 0.82084 0.662 0.60765 0.0
loop_
_geom_bond_atom_site_label_1
_geom_bond_atom_site_label_2
_geom_bond_distance
_geom_bond_site_symmetry_2
_ccdc_geom_bond_type
C0 C1 1.391 . S
C0 C4 1.391 . S
C0 H42 0.948 . S
C1 C0 1.391 . S
C1 C2 1.391 . S
C2 C1 1.391 . S
C2 H58 0.947 . S
C2 C59 1.392 . S
C3 C4 1.391 . S
C3 C7 1.397 . S
C3 C59 1.419 . S
C4 C0 1.391 . S
C4 C3 1.391 . S
C4 C5 1.399 . S
C5 C4 1.399 . S
C5 C8 1.396 . S
C5 C17 1.453 . S
C5 C18 1.684 . S
H6 C30 0.948 . S
C7 C3 1.397 . S
C7 C8 1.394 . S
C7 C26 1.723 . S
C8 C5 1.396 . S
C8 C7 1.394 . S
C8 C38 1.723 . S
H9 C32 0.947 . S
H10 C33 0.948 . S
H11 C39 0.982 . S
H12 C40 0.979 . S
H13 C40 0.980 . S
H14 C40 0.983 . S
H15 C39 0.979 . S
H16 C39 0.977 . S
C17 C5 1.453 . S
C17 H46 0.982 . S
C17 H47 0.979 . S
C17 H48 0.977 . S
C18 C5 1.684 . S
C18 H43 0.979 . S
C18 H44 0.980 . S
C18 H45 0.983 . S
C19 C20 1.391 . S
C19 C24 1.391 . S
C19 H49 0.948 . S
C20 C19 1.391 . S
C20 C21 1.391 . S
C21 C20 1.391 . S
C21 C22 1.392 . S
C21 H50 0.947 . S
C22 C21 1.392 . S
C22 C23 1.419 . S
C22 H51 0.948 . S
C23 C22 1.419 . S
C23 C24 1.391 . S
C23 C27 1.397 . S
C24 C19 1.391 . S
C24 C23 1.391 . S
C24 C25 1.399 . S
C25 C24 1.399 . S
C25 C26 1.396 . S
C25 C28 1.453 . S
C25 C29 1.684 . S
C26 C7 1.723 . S
C26 C25 1.396 . S
C26 C27 1.394 . S
C27 C23 1.397 . S
C27 C26 1.394 . S
C27 C37 1.723 . S
C28 C25 1.453 . S
C28 H52 0.982 . S
C28 H53 0.979 . S
C28 H54 0.977 . S
C29 C25 1.684 . S
C29 H55 0.979 . S
C29 H56 0.980 . S
C29 H57 0.983 . S
C30 H6 0.948 . S
C30 C31 1.391 . S
C30 C35 1.391 . S
C31 C30 1.391 . S
C31 C32 1.391 . S
C32 H9 0.947 . S
C32 C31 1.391 . S
C32 C33 1.392 . S
C33 H10 0.948 . S
C33 C32 1.392 . S
C33 C34 1.419 . S
C34 C33 1.419 . S
C34 C35 1.391 . S
C34 C38 1.397 . S
C35 C30 1.391 . S
C35 C34 1.391 . S
C35 C36 1.399 . S
C36 C35 1.399 . S
C36 C37 1.396 . S
C36 C39 1.453 . S
C36 C40 1.684 . S
C37 C27 1.723 . S
C37 C36 1.396 . S
C37 C38 1.394 . S
C38 C8 1.723 . S
C38 C34 1.397 . S
C38 C37 1.394 . S
C39 H11 0.982 . S
C39 H15 0.979 . S
C39 H16 0.977 . S
C39 C36 1.453 . S
C40 H12 0.979 . S
C40 H13 0.980 . S
C40 H14 0.983 . S
C40 C36 1.684 . S
H41 C59 0.948 . S
H42 C0 0.948 . S
H43 C18 0.979 . S
H44 C18 0.980 . S
H45 C18 0.983 . S
H46 C17 0.982 . S
H47 C17 0.979 . S
H48 C17 0.977 . S
H49 C19 0.948 . S
H50 C21 0.947 . S
H51 C22 0.948 . S
H52 C28 0.982 . S
H53 C28 0.979 . S
H54 C28 0.977 . S
H55 C29 0.979 . S
H56 C29 0.980 . S
H57 C29 0.983 . S
H58 C2 0.947 . S
C59 C2 1.392 . S
C59 C3 1.419 . S
C59 H41 0.948 . S
C60 C61 1.391 . S
C60 C64 1.391 . S
C60 H102 0.948 . S
C61 C60 1.391 . S
C61 C62 1.391 . S
C62 C61 1.391 . S
C62 H118 0.947 . S
C62 C119 1.392 . S
C63 C64 1.391 . S
C63 C67 1.397 . S
C63 C119 1.419 . S
C64 C60 1.391 . S
C64 C63 1.391 . S
C64 C65 1.399 . S
C65 C64 1.399 . S
C65 C68 1.396 . S
C65 C77 1.453 . S
C65 C78 1.684 . S
H66 C90 0.948 . S
C67 C63 1.397 . S
C67 C68 1.394 . S
C67 C86 1.723 . S
C68 C65 1.396 . S
C68 C67 1.394 . S
C68 C98 1.723 . S
H69 C92 0.947 . S
H70 C93 0.948 . S
H71 C99 0.982 . S
H72 C100 0.979 . S
H73 C100 0.980 . S
H74 C100 0.983 . S
H75 C99 0.979 . S
H76 C99 0.977 . S
C77 C65 1.453 . S
C77 H106 0.982 . S
C77 H107 0.979 . S
C77 H108 0.977 . S
C78 C65 1.684 . S
C78 H103 0.979 . S
C78 H104 0.980 . S
C78 H105 0.983 . S
C79 C80 1.391 . S
C79 C84 1.391 . S
C79 H109 0.948 . S
C80 C79 1.391 . S
C80 C81 1.391 . S
C81 C80 1.391 . S
C81 C82 1.392 . S
C81 H110 0.947 . S
C82 C81 1.392 . S
C82 C83 1.419 . S
C82 H111 0.948 . S
C83 C82 1.419 . S
C83 C84 1.391 . S
C83 C87 1.397 . S
C84 C79 1.391 . S
C84 C83 1.391 . S
C84 C85 1.399 . S
C85 C84 1.399 . S
C85 C86 1.396 . S
C85 C88 1.453 . S
C85 C89 1.684 . S
C86 C67 1.723 . S
C86 C85 1.396 . S
C86 C87 1.394 . S
C87 C83 1.397 . S
C87 C86 1.394 . S
C87 C97 1.723 . S
C88 C85 1.453 . S
C88 H112 0.982 . S
C88 H113 0.979 . S
C88 H114 0.977 . S
C89 C85 1.684 . S
C89 H115 0.979 . S
C89 H116 0.980 . S
C89 H117 0.983 . S
C90 H66 0.948 . S
C90 C91 1.391 . S
C90 C95 1.391 . S
C91 C90 1.391 . S
C91 C92 1.391 . S
C92 H69 0.947 . S
C92 C91 1.391 . S
C92 C93 1.392 . S
C93 H70 0.948 . S
C93 C92 1.392 . S
C93 C94 1.419 . S
C94 C93 1.419 . S
C94 C95 1.391 . S
C94 C98 1.397 . S
C95 C90 1.391 . S
C95 C94 1.391 . S
C95 C96 1.399 . S
C96 C95 1.399 . S
C96 C97 1.396 . S
C96 C99 1.453 . S
C96 C100 1.684 . S
C97 C87 1.723 . S
C97 C96 1.396 . S
C97 C98 1.394 . S
C98 C68 1.723 . S
C98 C94 1.397 . S
C98 C97 1.394 . S
C99 H71 0.982 . S
C99 H75 0.979 . S
C99 H76 0.977 . S
C99 C96 1.453 . S
C100 H72 0.979 . S
C100 H73 0.980 . S
C100 H74 0.983 . S
C100 C96 1.684 . S
H101 C119 0.948 . S
H102 C60 0.948 . S
H103 C78 0.979 . S
H104 C78 0.980 . S
H105 C78 0.983 . S
H106 C77 0.982 . S
H107 C77 0.979 . S
H108 C77 0.977 . S
H109 C79 0.948 . S
H110 C81 0.947 . S
H111 C82 0.948 . S
H112 C88 0.982 . S
H113 C88 0.979 . S
H114 C88 0.977 . S
H115 C89 0.979 . S
H116 C89 0.980 . S
H117 C89 0.983 . S
H118 C62 0.947 . S
C119 C62 1.392 . S
C119 C63 1.419 . S
C119 H101 0.948 . S
C120 C121 1.391 . S
C120 C124 1.391 . S
C120 H162 0.948 . S
C121 C120 1.391 . S
C121 C122 1.391 . S
C122 C121 1.391 . S
C122 H178 0.947 . S
C122 C179 1.392 . S
C123 C124 1.391 . S
C123 C127 1.397 . S
C123 C179 1.419 . S
C124 C120 1.391 . S
C124 C123 1.391 . S
C124 C125 1.399 . S
C125 C124 1.399 . S
C125 C128 1.396 . S
C125 C137 1.453 . S
C125 C138 1.684 . S
H126 C150 0.948 . S
C127 C123 1.397 . S
C127 C128 1.394 . S
C127 C146 1.723 . S
C128 C125 1.396 . S
C128 C127 1.394 . S
C128 C158 1.723 . S
H129 C152 0.947 . S
H130 C153 0.948 . S
H131 C159 0.982 . S
H132 C160 0.979 . S
H133 C160 0.980 . S
H134 C160 0.983 . S
H135 C159 0.979 . S
H136 C159 0.977 . S
C137 C125 1.453 . S
C137 H166 0.982 . S
C137 H167 0.979 . S
C137 H168 0.977 . S
C138 C125 1.684 . S
C138 H163 0.979 . S
C138 H164 0.980 . S
C138 H165 0.983 . S
C139 C140 1.391 . S
C139 C144 1.391 . S
C139 H169 0.948 . S
C140 C139 1.391 . S
C140 C141 1.391 . S
C141 C140 1.391 . S
C141 C142 1.392 . S
C141 H170 0.947 . S
C142 C141 1.392 . S
C142 C143 1.419 . S
C142 H171 0.948 . S
C143 C142 1.419 . S
C143 C144 1.391 . S
C143 C147 1.397 . S
C144 C139 1.391 . S
C144 C143 1.391 . S
C144 C145 1.399 . S
C145 C144 1.399 . S
C145 C146 1.396 . S
C145 C148 1.453 . S
C145 C149 1.684 . S
C146 C127 1.723 . S
C146 C145 1.396 . S
C146 C147 1.394 . S
C147 C143 1.397 . S
C147 C146 1.394 . S
C147 C157 1.723 . S
C148 C145 1.453 . S
C148 H172 0.982 . S
C148 H173 0.979 . S
C148 H174 0.977 . S
C149 C145 1.684 . S
C149 H175 0.979 . S
C149 H176 0.980 . S
C149 H177 0.983 . S
C150 H126 0.948 . S
C150 C151 1.391 . S
C150 C155 1.391 . S
C151 C150 1.391 . S
C151 C152 1.391 . S
C152 H129 0.947 . S
C152 C151 1.391 . S
C152 C153 1.392 . S
C153 H130 0.948 . S
C153 C152 1.392 . S
C153 C154 1.419 . S
C154 C153 1.419 . S
C154 C155 1.391 . S
C154 C158 1.397 . S
C155 C150 1.391 . S
C155 C154 1.391 . S
C155 C156 1.399 . S
C156 C155 1.399 . S
C156 C157 1.396 . S
C156 C159 1.453 . S
C156 C160 1.684 . S
C157 C147 1.723 . S
C157 C156 1.396 . S
C157 C158 1.394 . S
C158 C128 1.723 . S
C158 C154 1.397 . S
C158 C157 1.394 . S
C159 H131 0.982 . S
C159 H135 0.979 . S
C159 H136 0.977 . S
C159 C156 1.453 . S
C160 H132 0.979 . S
C160 H133 0.980 . S
C160 H134 0.983 . S
C160 C156 1.684 . S
H161 C179 0.948 . S
H162 C120 0.948 . S
H163 C138 0.979 . S
H164 C138 0.980 . S
H165 C138 0.983 . S
H166 C137 0.982 . S
H167 C137 0.979 . S
H168 C137 0.977 . S
H169 C139 0.948 . S
H170 C141 0.947 . S
H171 C142 0.948 . S
H172 C148 0.982 . S
H173 C148 0.979 . S
H174 C148 0.977 . S
H175 C149 0.979 . S
H176 C149 0.980 . S
H177 C149 0.983 . S
H178 C122 0.947 . S
C179 C122 1.392 . S
C179 C123 1.419 . S
C179 H161 0.948 . S
C180 C181 1.391 . S
C180 C184 1.391 . S
C180 H222 0.948 . S
C181 C180 1.391 . S
C181 C182 1.391 . S
C182 C181 1.391 . S
C182 H238 0.947 . S
C182 C239 1.392 . S
C183 C184 1.391 . S
C183 C187 1.397 . S
C183 C239 1.419 . S
C184 C180 1.391 . S
C184 C183 1.391 . S
C184 C185 1.399 . S
C185 C184 1.399 . S
C185 C188 1.396 . S
C185 C197 1.453 . S
C185 C198 1.684 . S
H186 C210 0.948 . S
C187 C183 1.397 . S
C187 C188 1.394 . S
C187 C206 1.723 . S
C188 C185 1.396 . S
C188 C187 1.394 . S
C188 C218 1.723 . S
H189 C212 0.947 . S
H190 C213 0.948 . S
H191 C219 0.982 . S
H192 C220 0.979 . S
H193 C220 0.980 . S
H194 C220 0.983 . S
H195 C219 0.979 . S
H196 C219 0.977 . S
C197 C185 1.453 . S
C197 H226 0.982 . S
C197 H227 0.979 . S
C197 H228 0.977 . S
C198 C185 1.684 . S
C198 H223 0.979 . S
C198 H224 0.980 . S
C198 H225 0.983 . S
C199 C200 1.391 . S
C199 C204 1.391 . S
C199 H229 0.948 . S
C200 C199 1.391 . S
C200 C201 1.391 . S
C201 C200 1.391 . S
C201 C202 1.392 . S
C201 H230 0.947 . S
C202 C201 1.392 . S
C202 C203 1.419 . S
C202 H231 0.948 . S
C203 C202 1.419 . S
C203 C204 1.391 . S
C203 C207 1.397 . S
C204 C199 1.391 . S
C204 C203 1.391 . S
C204 C205 1.399 . S
C205 C204 1.399 . S
C205 C206 1.396 . S
C205 C208 1.453 . S
C205 C209 1.684 . S
C206 C187 1.723 . S
C206 C205 1.396 . S
C206 C207 1.394 . S
C207 C203 1.397 . S
C207 C206 1.394 . S
C207 C217 1.723 . S
C208 C205 1.453 . S
C208 H232 0.982 . S
C208 H233 0.979 . S
C208 H234 0.977 . S
C209 C205 1.684 . S
C209 H235 0.979 . S
C209 H236 0.980 . S
C209 H237 0.983 . S
C210 H186 0.948 . S
C210 C211 1.391 . S
C210 C215 1.391 . S
C211 C210 1.391 . S
C211 C212 1.391 . S
C212 H189 0.947 . S
C212 C211 1.391 . S
C212 C213 1.392 . S
C213 H190 0.948 . S
C213 C212 1.392 . S
C213 C214 1.419 . S
C214 C213 1.419 . S
C214 C215 1.391 . S
C214 C218 1.397 . S
C215 C210 1.391 . S
C215 C214 1.391 . S
C215 C216 1.399 . S
C216 C215 1.399 . S
C216 C217 1.396 . S
C216 C219 1.453 . S
C216 C220 1.684 . S
C217 C207 1.723 . S
C217 C216 1.396 . S
C217 C218 1.394 . S
C218 C188 1.723 . S
C218 C214 1.397 . S
C218 C217 1.394 . S
C219 H191 0.982 . S
C219 H195 0.979 . S
C219 H196 0.977 . S
C219 C216 1.453 . S
C220 H192 0.979 . S
C220 H193 0.980 . S
C220 H194 0.983 . S
C220 C216 1.684 . S
H221 C239 0.948 . S
H222 C180 0.948 . S
H223 C198 0.979 . S
H224 C198 0.980 . S
H225 C198 0.983 . S
H226 C197 0.982 . S
H227 C197 0.979 . S
H228 C197 0.977 . S
H229 C199 0.948 . S
H230 C201 0.947 . S
H231 C202 0.948 . S
H232 C208 0.982 . S
H233 C208 0.979 . S
H234 C208 0.977 . S
H235 C209 0.979 . S
H236 C209 0.980 . S
H237 C209 0.983 . S
H238 C182 0.947 . S
C239 C182 1.392 . S
C239 C183 1.419 . S
C239 H221 0.948 . S
C240 C241 1.391 . S
C240 C244 1.391 . S
C240 H282 0.948 . S
C241 C240 1.391 . S
C241 C242 1.391 . S
C242 C241 1.391 . S
C242 H298 0.947 . S
C242 C299 1.392 . S
C243 C244 1.391 . S
C243 C247 1.397 . S
C243 C299 1.419 . S
C244 C240 1.391 . S
C244 C243 1.391 . S
C244 C245 1.399 . S
C245 C244 1.399 . S
C245 C248 1.396 . S
C245 C257 1.453 . S
C245 C258 1.684 . S
H246 C270 0.948 . S
C247 C243 1.397 . S
C247 C248 1.394 . S
C247 C266 1.723 . S
C248 C245 1.396 . S
C248 C247 1.394 . S
C248 C278 1.723 . S
H249 C272 0.947 . S
H250 C273 0.948 . S
H251 C279 0.982 . S
H252 C280 0.979 . S
H253 C280 0.980 . S
H254 C280 0.983 . S
H255 C279 0.979 . S
H256 C279 0.977 . S
C257 C245 1.453 . S
C257 H286 0.982 . S
C257 H287 0.979 . S
C257 H288 0.977 . S
C258 C245 1.684 . S
C258 H283 0.979 . S
C258 H284 0.980 . S
C258 H285 0.983 . S
C259 C260 1.391 . S
C259 C264 1.391 . S
C259 H289 0.948 . S
C260 C259 1.391 . S
C260 C261 1.391 . S
C261 C260 1.391 . S
C261 C262 1.392 . S
C261 H290 0.947 . S
C262 C261 1.392 . S
C262 C263 1.419 . S
C262 H291 0.948 . S
C263 C262 1.419 . S
C263 C264 1.391 . S
C263 C267 1.397 . S
C264 C259 1.391 . S
C264 C263 1.391 . S
C264 C265 1.399 . S
C265 C264 1.399 . S
C265 C266 1.396 . S
C265 C268 1.453 . S
C265 C269 1.684 . S
C266 C247 1.723 . S
C266 C265 1.396 . S
C266 C267 1.394 . S
C267 C263 1.397 . S
C267 C266 1.394 . S
C267 C277 1.723 . S
C268 C265 1.453 . S
C268 H292 0.982 . S
C268 H293 0.979 . S
C268 H294 0.977 . S
C269 C265 1.684 . S
C269 H295 0.979 . S
C269 H296 0.980 . S
C269 H297 0.983 . S
C270 H246 0.948 . S
C270 C271 1.391 . S
C270 C275 1.391 . S
C271 C270 1.391 . S
C271 C272 1.391 . S
C272 H249 0.947 . S
C272 C271 1.391 . S
C272 C273 1.392 . S
C273 H250 0.948 . S
C273 C272 1.392 . S
C273 C274 1.419 . S
C274 C273 1.419 . S
C274 C275 1.391 . S
C274 C278 1.397 . S
C275 C270 1.391 . S
C275 C274 1.391 . S
C275 C276 1.399 . S
C276 C275 1.399 . S
C276 C277 1.396 . S
C276 C279 1.453 . S
C276 C280 1.684 . S
C277 C267 1.723 . S
C277 C276 1.396 . S
C277 C278 1.394 . S
C278 C248 1.723 . S
C278 C274 1.397 . S
C278 C277 1.394 . S
C279 H251 0.982 . S
C279 H255 0.979 . S
C279 H256 0.977 . S
C279 C276 1.453 . S
C280 H252 0.979 . S
C280 H253 0.980 . S
C280 H254 0.983 . S
C280 C276 1.684 . S
H281 C299 0.948 . S
H282 C240 0.948 . S
H283 C258 0.979 . S
H284 C258 0.980 . S
H285 C258 0.983 . S
H286 C257 0.982 . S
H287 C257 0.979 . S
H288 C257 0.977 . S
H289 C259 0.948 . S
H290 C261 0.947 . S
H291 C262 0.948 . S
H292 C268 0.982 . S
H293 C268 0.979 . S
H294 C268 0.977 . S
H295 C269 0.979 . S
H296 C269 0.980 . S
H297 C269 0.983 . S
H298 C242 0.947 . S
C299 C242 1.392 . S
C299 C243 1.419 . S
C299 H281 0.948 . S
C300 C301 1.391 . S
C300 C304 1.391 . S
C300 H342 0.948 . S
C301 C300 1.391 . S
C301 C302 1.391 . S
C302 C301 1.391 . S
C302 H358 0.947 . S
C302 C359 1.392 . S
C303 C304 1.391 . S
C303 C307 1.397 . S
C303 C359 1.419 . S
C304 C300 1.391 . S
C304 C303 1.391 . S
C304 C305 1.399 . S
C305 C304 1.399 . S
C305 C308 1.396 . S
C305 C317 1.453 . S
C305 C318 1.684 . S
H306 C330 0.948 . S
C307 C303 1.397 . S
C307 C308 1.394 . S
C307 C326 1.723 . S
C308 C305 1.396 . S
C308 C307 1.394 . S
C308 C338 1.723 . S
H309 C332 0.947 . S
H310 C333 0.948 . S
H311 C339 0.982 . S
H312 C340 0.979 . S
H313 C340 0.980 . S
H314 C340 0.983 . S
H315 C339 0.979 . S
H316 C339 0.977 . S
C317 C305 1.453 . S
C317 H346 0.982 . S
C317 H347 0.979 . S
C317 H348 0.977 . S
C318 C305 1.684 . S
C318 H343 0.979 . S
C318 H344 0.980 . S
C318 H345 0.983 . S
C319 C320 1.391 . S
C319 C324 1.391 . S
C319 H349 0.948 . S
C320 C319 1.391 . S
C320 C321 1.391 . S
C321 C320 1.391 . S
C321 C322 1.392 . S
C321 H350 0.947 . S
C322 C321 1.392 . S
C322 C323 1.419 . S
C322 H351 0.948 . S
C323 C322 1.419 . S
C323 C324 1.391 . S
C323 C327 1.397 . S
C324 C319 1.391 . S
C324 C323 1.391 . S
C324 C325 1.399 . S
C325 C324 1.399 . S
C325 C326 1.396 . S
C325 C328 1.453 . S
C325 C329 1.684 . S
C326 C307 1.723 . S
C326 C325 1.396 . S
C326 C327 1.394 . S
C327 C323 1.397 . S
C327 C326 1.394 . S
C327 C337 1.723 . S
C328 C325 1.453 . S
C328 H352 0.982 . S
C328 H353 0.979 . S
C328 H354 0.977 . S
C329 C325 1.684 . S
C329 H355 0.979 . S
C329 H356 0.980 . S
C329 H357 0.983 . S
C330 H306 0.948 . S
C330 C331 1.391 . S
C330 C335 1.391 . S
C331 C330 1.391 . S
C331 C332 1.391 . S
C332 H309 0.947 . S
C332 C331 1.391 . S
C332 C333 1.392 . S
C333 H310 0.948 . S
C333 C332 1.392 . S
C333 C334 1.419 . S
C334 C333 1.419 . S
C334 C335 1.391 . S
C334 C338 1.397 . S
C335 C330 1.391 . S
C335 C334 1.391 . S
C335 C336 1.399 . S
C336 C335 1.399 . S
C336 C337 1.396 . S
C336 C339 1.453 . S
C336 C340 1.684 . S
C337 C327 1.723 . S
C337 C336 1.396 . S
C337 C338 1.394 . S
C338 C308 1.723 . S
C338 C334 1.397 . S
C338 C337 1.394 . S
C339 H311 0.982 . S
C339 H315 0.979 . S
C339 H316 0.977 . S
C339 C336 1.453 . S
C340 H312 0.979 . S
C340 H313 0.980 . S
C340 H314 0.983 . S
C340 C336 1.684 . S
H341 C359 0.948 . S
H342 C300 0.948 . S
H343 C318 0.979 . S
H344 C318 0.980 . S
H345 C318 0.983 . S
H346 C317 0.982 . S
H347 C317 0.979 . S
H348 C317 0.977 . S
H349 C319 0.948 . S
H350 C321 0.947 . S
H351 C322 0.948 . S
H352 C328 0.982 . S
H353 C328 0.979 . S
H354 C328 0.977 . S
H355 C329 0.979 . S
H356 C329 0.980 . S
H357 C329 0.983 . S
H358 C302 0.947 . S
C359 C302 1.392 . S
C359 C303 1.419 . S
C359 H341 0.948 . S
C360 C361 1.391 . S
C360 C364 1.391 . S
C360 H402 0.948 . S
C361 C360 1.391 . S
C361 C362 1.391 . S
C362 C361 1.391 . S
C362 H418 0.947 . S
C362 C419 1.392 . S
C363 C364 1.391 . S
C363 C367 1.397 . S
C363 C419 1.419 . S
C364 C360 1.391 . S
C364 C363 1.391 . S
C364 C365 1.399 . S
C365 C364 1.399 . S
C365 C368 1.396 . S
C365 C377 1.453 . S
C365 C378 1.684 . S
H366 C390 0.948 . S
C367 C363 1.397 . S
C367 C368 1.394 . S
C367 C386 1.723 . S
C368 C365 1.396 . S
C368 C367 1.394 . S
C368 C398 1.723 . S
H369 C392 0.947 . S
H370 C393 0.948 . S
H371 C399 0.982 . S
H372 C400 0.979 . S
H373 C400 0.980 . S
H374 C400 0.983 . S
H375 C399 0.979 . S
H376 C399 0.977 . S
C377 C365 1.453 . S
C377 H406 0.982 . S
C377 H407 0.979 . S
C377 H408 0.977 . S
C378 C365 1.684 . S
C378 H403 0.979 . S
C378 H404 0.980 . S
C378 H405 0.983 . S
C379 C380 1.391 . S
C379 C384 1.391 . S
C379 H409 0.948 . S
C380 C379 1.391 . S
C380 C381 1.391 . S
C381 C380 1.391 . S
C381 C382 1.392 . S
C381 H410 0.947 . S
C382 C381 1.392 . S
C382 C383 1.419 . S
C382 H411 0.948 . S
C383 C382 1.419 . S
C383 C384 1.391 . S
C383 C387 1.397 . S
C384 C379 1.391 . S
C384 C383 1.391 . S
C384 C385 1.399 . S
C385 C384 1.399 . S
C385 C386 1.396 . S
C385 C388 1.453 . S
C385 C389 1.684 . S
C386 C367 1.723 . S
C386 C385 1.396 . S
C386 C387 1.394 . S
C387 C383 1.397 . S
C387 C386 1.394 . S
C387 C397 1.723 . S
C388 C385 1.453 . S
C388 H412 0.982 . S
C388 H413 0.979 . S
C388 H414 0.977 . S
C389 C385 1.684 . S
C389 H415 0.979 . S
C389 H416 0.980 . S
C389 H417 0.983 . S
C390 H366 0.948 . S
C390 C391 1.391 . S
C390 C395 1.391 . S
C391 C390 1.391 . S
C391 C392 1.391 . S
C392 H369 0.947 . S
C392 C391 1.391 . S
C392 C393 1.392 . S
C393 H370 0.948 . S
C393 C392 1.392 . S
C393 C394 1.419 . S
C394 C393 1.419 . S
C394 C395 1.391 . S
C394 C398 1.397 . S
C395 C390 1.391 . S
C395 C394 1.391 . S
C395 C396 1.399 . S
C396 C395 1.399 . S
C396 C397 1.396 . S
C396 C399 1.453 . S
C396 C400 1.684 . S
C397 C387 1.723 . S
C397 C396 1.396 . S
C397 C398 1.394 . S
C398 C368 1.723 . S
C398 C394 1.397 . S
C398 C397 1.394 . S
C399 H371 0.982 . S
C399 H375 0.979 . S
C399 H376 0.977 . S
C399 C396 1.453 . S
C400 H372 0.979 . S
C400 H373 0.980 . S
C400 H374 0.983 . S
C400 C396 1.684 . S
H401 C419 0.948 . S
H402 C360 0.948 . S
H403 C378 0.979 . S
H404 C378 0.980 . S
H405 C378 0.983 . S
H406 C377 0.982 . S
H407 C377 0.979 . S
H408 C377 0.977 . S
H409 C379 0.948 . S
H410 C381 0.947 . S
H411 C382 0.948 . S
H412 C388 0.982 . S
H413 C388 0.979 . S
H414 C388 0.977 . S
H415 C389 0.979 . S
H416 C389 0.980 . S
H417 C389 0.983 . S
H418 C362 0.947 . S
C419 C362 1.392 . S
C419 C363 1.419 . S
C419 H401 0.948 . S
C420 C421 1.391 . S
C420 C424 1.391 . S
C420 H462 0.948 . S
C421 C420 1.391 . S
C421 C422 1.391 . S
C422 C421 1.391 . S
C422 H478 0.947 . S
C422 C479 1.392 . S
C423 C424 1.391 . S
C423 C427 1.397 . S
C423 C479 1.419 . S
C424 C420 1.391 . S
C424 C423 1.391 . S
C424 C425 1.399 . S
C425 C424 1.399 . S
C425 C428 1.396 . S
C425 C437 1.453 . S
C425 C438 1.684 . S
H426 C450 0.948 . S
C427 C423 1.397 . S
C427 C428 1.394 . S
C427 C446 1.723 . S
C428 C425 1.396 . S
C428 C427 1.394 . S
C428 C458 1.723 . S
H429 C452 0.947 . S
H430 C453 0.948 . S
H431 C459 0.982 . S
H432 C460 0.979 . S
H433 C460 0.980 . S
H434 C460 0.983 . S
H435 C459 0.979 . S
H436 C459 0.977 . S
C437 C425 1.453 . S
C437 H466 0.982 . S
C437 H467 0.979 . S
C437 H468 0.977 . S
C438 C425 1.684 . S
C438 H463 0.979 . S
C438 H464 0.980 . S
C438 H465 0.983 . S
C439 C440 1.391 . S
C439 C444 1.391 . S
C439 H469 0.948 . S
C440 C439 1.391 . S
C440 C441 1.391 . S
C441 C440 1.391 . S
C441 C442 1.392 . S
C441 H470 0.947 . S
C442 C441 1.392 . S
C442 C443 1.419 . S
C442 H471 0.948 . S
C443 C442 1.419 . S
C443 C444 1.391 . S
C443 C447 1.397 . S
C444 C439 1.391 . S
C444 C443 1.391 . S
C444 C445 1.399 . S
C445 C444 1.399 . S
C445 C446 1.396 . S
C445 C448 1.453 . S
C445 C449 1.684 . S
C446 C427 1.723 . S
C446 C445 1.396 . S
C446 C447 1.394 . S
C447 C443 1.397 . S
C447 C446 1.394 . S
C447 C457 1.723 . S
C448 C445 1.453 . S
C448 H472 0.982 . S
C448 H473 0.979 . S
C448 H474 0.977 . S
C449 C445 1.684 . S
C449 H475 0.979 . S
C449 H476 0.980 . S
C449 H477 0.983 . S
C450 H426 0.948 . S
C450 C451 1.391 . S
C450 C455 1.391 . S
C451 C450 1.391 . S
C451 C452 1.391 . S
C452 H429 0.947 . S
C452 C451 1.391 . S
C452 C453 1.392 . S
C453 H430 0.948 . S
C453 C452 1.392 . S
C453 C454 1.419 . S
C454 C453 1.419 . S
C454 C455 1.391 . S
C454 C458 1.397 . S
C455 C450 1.391 . S
C455 C454 1.391 . S
C455 C456 1.399 . S
C456 C455 1.399 . S
C456 C457 1.396 . S
C456 C459 1.453 . S
C456 C460 1.684 . S
C457 C447 1.723 . S
C457 C456 1.396 . S
C457 C458 1.394 . S
C458 C428 1.723 . S
C458 C454 1.397 . S
C458 C457 1.394 . S
C459 H431 0.982 . S
C459 H435 0.979 . S
C459 H436 0.977 . S
C459 C456 1.453 . S
C460 H432 0.979 . S
C460 H433 0.980 . S
C460 H434 0.983 . S
C460 C456 1.684 . S
H461 C479 0.948 . S
H462 C420 0.948 . S
H463 C438 0.979 . S
H464 C438 0.980 . S
H465 C438 0.983 . S
H466 C437 0.982 . S
H467 C437 0.979 . S
H468 C437 0.977 . S
H469 C439 0.948 . S
H470 C441 0.947 . S
H471 C442 0.948 . S
H472 C448 0.982 . S
H473 C448 0.979 . S
H474 C448 0.977 . S
H475 C449 0.979 . S
H476 C449 0.980 . S
H477 C449 0.983 . S
H478 C422 0.947 . S
C479 C422 1.392 . S
C479 C423 1.419 . S
C479 H461 0.948 . S
C480 C481 1.391 . S
C480 C484 1.391 . S
C480 H522 0.948 . S
C481 C480 1.391 . S
C481 C482 1.391 . S
C482 C481 1.391 . S
C482 H538 0.947 . S
C482 C539 1.392 . S
C483 C484 1.391 . S
C483 C487 1.397 . S
C483 C539 1.419 . S
C484 C480 1.391 . S
C484 C483 1.391 . S
C484 C485 1.399 . S
C485 C484 1.399 . S
C485 C488 1.396 . S
C485 C497 1.453 . S
C485 C498 1.684 . S
H486 C510 0.948 . S
C487 C483 1.397 . S
C487 C488 1.394 . S
C487 C506 1.723 . S
C488 C485 1.396 . S
C488 C487 1.394 . S
C488 C518 1.723 . S
H489 C512 0.947 . S
H490 C513 0.948 . S
H491 C519 0.982 . S
H492 C520 0.979 . S
H493 C520 0.980 . S
H494 C520 0.983 . S
H495 C519 0.979 . S
H496 C519 0.977 . S
C497 C485 1.453 . S
C497 H526 0.982 . S
C497 H527 0.979 . S
C497 H528 0.977 . S
C498 C485 1.684 . S
C498 H523 0.979 . S
C498 H524 0.980 . S
C498 H525 0.983 . S
C499 C500 1.391 . S
C499 C504 1.391 . S
C499 H529 0.948 . S
C500 C499 1.391 . S
C500 C501 1.391 . S
C501 C500 1.391 . S
C501 C502 1.392 . S
C501 H530 0.947 . S
C502 C501 1.392 . S
C502 C503 1.419 . S
C502 H531 0.948 . S
C503 C502 1.419 . S
C503 C504 1.391 . S
C503 C507 1.397 . S
C504 C499 1.391 . S
C504 C503 1.391 . S
C504 C505 1.399 . S
C505 C504 1.399 . S
C505 C506 1.396 . S
C505 C508 1.453 . S
C505 C509 1.684 . S
C506 C487 1.723 . S
C506 C505 1.396 . S
C506 C507 1.394 . S
C507 C503 1.397 . S
C507 C506 1.394 . S
C507 C517 1.723 . S
C508 C505 1.453 . S
C508 H532 0.982 . S
C508 H533 0.979 . S
C508 H534 0.977 . S
C509 C505 1.684 . S
C509 H535 0.979 . S
C509 H536 0.980 . S
C509 H537 0.983 . S
C510 H486 0.948 . S
C510 C511 1.391 . S
C510 C515 1.391 . S
C511 C510 1.391 . S
C511 C512 1.391 . S
C512 H489 0.947 . S
C512 C511 1.391 . S
C512 C513 1.392 . S
C513 H490 0.948 . S
C513 C512 1.392 . S
C513 C514 1.419 . S
C514 C513 1.419 . S
C514 C515 1.391 . S
C514 C518 1.397 . S
C515 C510 1.391 . S
C515 C514 1.391 . S
C515 C516 1.399 . S
C516 C515 1.399 . S
C516 C517 1.396 . S
C516 C519 1.453 . S
C516 C520 1.684 . S
C517 C507 1.723 . S
C517 C516 1.396 . S
C517 C518 1.394 . S
C518 C488 1.723 . S
C518 C514 1.397 . S
C518 C517 1.394 . S
C519 H491 0.982 . S
C519 H495 0.979 . S
C519 H496 0.977 . S
C519 C516 1.453 . S
C520 H492 0.979 . S
C520 H493 0.980 . S
C520 H494 0.983 . S
C520 C516 1.684 . S
H521 C539 0.948 . S
H522 C480 0.948 . S
H523 C498 0.979 . S
H524 C498 0.980 . S
H525 C498 0.983 . S
H526 C497 0.982 . S
H527 C497 0.979 . S
H528 C497 0.977 . S
H529 C499 0.948 . S
H530 C501 0.947 . S
H531 C502 0.948 . S
H532 C508 0.982 . S
H533 C508 0.979 . S
H534 C508 0.977 . S
H535 C509 0.979 . S
H536 C509 0.980 . S
H537 C509 0.983 . S
H538 C482 0.947 . S
C539 C482 1.392 . S
C539 C483 1.419 . S
C539 H521 0.948 . S
C540 C541 1.391 . S
C540 C544 1.391 . S
C540 H582 0.948 . S
C541 C540 1.391 . S
C541 C542 1.391 . S
C542 C541 1.391 . S
C542 H598 0.947 . S
C542 C599 1.392 . S
C543 C544 1.391 . S
C543 C547 1.397 . S
C543 C599 1.419 . S
C544 C540 1.391 . S
C544 C543 1.391 . S
C544 C545 1.399 . S
C545 C544 1.399 . S
C545 C548 1.396 . S
C545 C557 1.453 . S
C545 C558 1.684 . S
H546 C570 0.948 . S
C547 C543 1.397 . S
C547 C548 1.394 . S
C547 C566 1.723 . S
C548 C545 1.396 . S
C548 C547 1.394 . S
C548 C578 1.723 . S
H549 C572 0.947 . S
H550 C573 0.948 . S
H551 C579 0.982 . S
H552 C580 0.979 . S
H553 C580 0.980 . S
H554 C580 0.983 . S
H555 C579 0.979 . S
H556 C579 0.977 . S
C557 C545 1.453 . S
C557 H586 0.982 . S
C557 H587 0.979 . S
C557 H588 0.977 . S
C558 C545 1.684 . S
C558 H583 0.979 . S
C558 H584 0.980 . S
C558 H585 0.983 . S
C559 C560 1.391 . S
C559 C564 1.391 . S
C559 H589 0.948 . S
C560 C559 1.391 . S
C560 C561 1.391 . S
C561 C560 1.391 . S
C561 C562 1.392 . S
C561 H590 0.947 . S
C562 C561 1.392 . S
C562 C563 1.419 . S
C562 H591 0.948 . S
C563 C562 1.419 . S
C563 C564 1.391 . S
C563 C567 1.397 . S
C564 C559 1.391 . S
C564 C563 1.391 . S
C564 C565 1.399 . S
C565 C564 1.399 . S
C565 C566 1.396 . S
C565 C568 1.453 . S
C565 C569 1.684 . S
C566 C547 1.723 . S
C566 C565 1.396 . S
C566 C567 1.394 . S
C567 C563 1.397 . S
C567 C566 1.394 . S
C567 C577 1.723 . S
C568 C565 1.453 . S
C568 H592 0.982 . S
C568 H593 0.979 . S
C568 H594 0.977 . S
C569 C565 1.684 . S
C569 H595 0.979 . S
C569 H596 0.980 . S
C569 H597 0.983 . S
C570 H546 0.948 . S
C570 C571 1.391 . S
C570 C575 1.391 . S
C571 C570 1.391 . S
C571 C572 1.391 . S
C572 H549 0.947 . S
C572 C571 1.391 . S
C572 C573 1.392 . S
C573 H550 0.948 . S
C573 C572 1.392 . S
C573 C574 1.419 . S
C574 C573 1.419 . S
C574 C575 1.391 . S
C574 C578 1.397 . S
C575 C570 1.391 . S
C575 C574 1.391 . S
C575 C576 1.399 . S
C576 C575 1.399 . S
C576 C577 1.396 . S
C576 C579 1.453 . S
C576 C580 1.684 . S
C577 C567 1.723 . S
C577 C576 1.396 . S
C577 C578 1.394 . S
C578 C548 1.723 . S
C578 C574 1.397 . S
C578 C577 1.394 . S
C579 H551 0.982 . S
C579 H555 0.979 . S
C579 H556 0.977 . S
C579 C576 1.453 . S
C580 H552 0.979 . S
C580 H553 0.980 . S
C580 H554 0.983 . S
C580 C576 1.684 . S
H581 C599 0.948 . S
H582 C540 0.948 . S
H583 C558 0.979 . S
H584 C558 0.980 . S
H585 C558 0.983 . S
H586 C557 0.982 . S
H587 C557 0.979 . S
H588 C557 0.977 . S
H589 C559 0.948 . S
H590 C561 0.947 . S
H591 C562 0.948 . S
H592 C568 0.982 . S
H593 C568 0.979 . S
H594 C568 0.977 . S
H595 C569 0.979 . S
H596 C569 0.980 . S
H597 C569 0.983 . S
H598 C542 0.947 . S
C599 C542 1.392 . S
C599 C543 1.419 . S
C599 H581 0.948 . S
C600 C601 1.391 . S
C600 C604 1.391 . S
C600 H642 0.948 . S
C601 C600 1.391 . S
C601 C602 1.391 . S
C602 C601 1.391 . S
C602 H658 0.947 . S
C602 C659 1.392 . S
C603 C604 1.391 . S
C603 C607 1.397 . S
C603 C659 1.419 . S
C604 C600 1.391 . S
C604 C603 1.391 . S
C604 C605 1.399 . S
C605 C604 1.399 . S
C605 C608 1.396 . S
C605 C617 1.453 . S
C605 C618 1.684 . S
H606 C630 0.948 . S
C607 C603 1.397 . S
C607 C608 1.394 . S
C607 C626 1.723 . S
C608 C605 1.396 . S
C608 C607 1.394 . S
C608 C638 1.723 . S
H609 C632 0.947 . S
H610 C633 0.948 . S
H611 C639 0.982 . S
H612 C640 0.979 . S
H613 C640 0.980 . S
H614 C640 0.983 . S
H615 C639 0.979 . S
H616 C639 0.977 . S
C617 C605 1.453 . S
C617 H646 0.982 . S
C617 H647 0.979 . S
C617 H648 0.977 . S
C618 C605 1.684 . S
C618 H643 0.979 . S
C618 H644 0.980 . S
C618 H645 0.983 . S
C619 C620 1.391 . S
C619 C624 1.391 . S
C619 H649 0.948 . S
C620 C619 1.391 . S
C620 C621 1.391 . S
C621 C620 1.391 . S
C621 C622 1.392 . S
C621 H650 0.947 . S
C622 C621 1.392 . S
C622 C623 1.419 . S
C622 H651 0.948 . S
C623 C622 1.419 . S
C623 C624 1.391 . S
C623 C627 1.397 . S
C624 C619 1.391 . S
C624 C623 1.391 . S
C624 C625 1.399 . S
C625 C624 1.399 . S
C625 C626 1.396 . S
C625 C628 1.453 . S
C625 C629 1.684 . S
C626 C607 1.723 . S
C626 C625 1.396 . S
C626 C627 1.394 . S
C627 C623 1.397 . S
C627 C626 1.394 . S
C627 C637 1.723 . S
C628 C625 1.453 . S
C628 H652 0.982 . S
C628 H653 0.979 . S
C628 H654 0.977 . S
C629 C625 1.684 . S
C629 H655 0.979 . S
C629 H656 0.980 . S
C629 H657 0.983 . S
C630 H606 0.948 . S
C630 C631 1.391 . S
C630 C635 1.391 . S
C631 C630 1.391 . S
C631 C632 1.391 . S
C632 H609 0.947 . S
C632 C631 1.391 . S
C632 C633 1.392 . S
C633 H610 0.948 . S
C633 C632 1.392 . S
C633 C634 1.419 . S
C634 C633 1.419 . S
C634 C635 1.391 . S
C634 C638 1.397 . S
C635 C630 1.391 . S
C635 C634 1.391 . S
C635 C636 1.399 . S
C636 C635 1.399 . S
C636 C637 1.396 . S
C636 C639 1.453 . S
C636 C640 1.684 . S
C637 C627 1.723 . S
C637 C636 1.396 . S
C637 C638 1.394 . S
C638 C608 1.723 . S
C638 C634 1.397 . S
C638 C637 1.394 . S
C639 H611 0.982 . S
C639 H615 0.979 . S
C639 H616 0.977 . S
C639 C636 1.453 . S
C640 H612 0.979 . S
C640 H613 0.980 . S
C640 H614 0.983 . S
C640 C636 1.684 . S
H641 C659 0.948 . S
H642 C600 0.948 . S
H643 C618 0.979 . S
H644 C618 0.980 . S
H645 C618 0.983 . S
H646 C617 0.982 . S
H647 C617 0.979 . S
H648 C617 0.977 . S
H649 C619 0.948 . S
H650 C621 0.947 . S
H651 C622 0.948 . S
H652 C628 0.982 . S
H653 C628 0.979 . S
H654 C628 0.977 . S
H655 C629 0.979 . S
H656 C629 0.980 . S
H657 C629 0.983 . S
H658 C602 0.947 . S
C659 C602 1.392 . S
C659 C603 1.419 . S
C659 H641 0.948 . S
C660 C661 1.391 . S
C660 C664 1.391 . S
C660 H702 0.948 . S
C661 C660 1.391 . S
C661 C662 1.391 . S
C662 C661 1.391 . S
C662 H718 0.947 . S
C662 C719 1.392 . S
C663 C664 1.391 . S
C663 C667 1.397 . S
C663 C719 1.419 . S
C664 C660 1.391 . S
C664 C663 1.391 . S
C664 C665 1.399 . S
C665 C664 1.399 . S
C665 C668 1.396 . S
C665 C677 1.453 . S
C665 C678 1.684 . S
H666 C690 0.948 . S
C667 C663 1.397 . S
C667 C668 1.394 . S
C667 C686 1.723 . S
C668 C665 1.396 . S
C668 C667 1.394 . S
C668 C698 1.723 . S
H669 C692 0.947 . S
H670 C693 0.948 . S
H671 C699 0.982 . S
H672 C700 0.979 . S
H673 C700 0.980 . S
H674 C700 0.983 . S
H675 C699 0.979 . S
H676 C699 0.977 . S
C677 C665 1.453 . S
C677 H706 0.982 . S
C677 H707 0.979 . S
C677 H708 0.977 . S
C678 C665 1.684 . S
C678 H703 0.979 . S
C678 H704 0.980 . S
C678 H705 0.983 . S
C679 C680 1.391 . S
C679 C684 1.391 . S
C679 H709 0.948 . S
C680 C679 1.391 . S
C680 C681 1.391 . S
C681 C680 1.391 . S
C681 C682 1.392 . S
C681 H710 0.947 . S
C682 C681 1.392 . S
C682 C683 1.419 . S
C682 H711 0.948 . S
C683 C682 1.419 . S
C683 C684 1.391 . S
C683 C687 1.397 . S
C684 C679 1.391 . S
C684 C683 1.391 . S
C684 C685 1.399 . S
C685 C684 1.399 . S
C685 C686 1.396 . S
C685 C688 1.453 . S
C685 C689 1.684 . S
C686 C667 1.723 . S
C686 C685 1.396 . S
C686 C687 1.394 . S
C687 C683 1.397 . S
C687 C686 1.394 . S
C687 C697 1.723 . S
C688 C685 1.453 . S
C688 H712 0.982 . S
C688 H713 0.979 . S
C688 H714 0.977 . S
C689 C685 1.684 . S
C689 H715 0.979 . S
C689 H716 0.980 . S
C689 H717 0.983 . S
C690 H666 0.948 . S
C690 C691 1.391 . S
C690 C695 1.391 . S
C691 C690 1.391 . S
C691 C692 1.391 . S
C692 H669 0.947 . S
C692 C691 1.391 . S
C692 C693 1.392 . S
C693 H670 0.948 . S
C693 C692 1.392 . S
C693 C694 1.419 . S
C694 C693 1.419 . S
C694 C695 1.391 . S
C694 C698 1.397 . S
C695 C690 1.391 . S
C695 C694 1.391 . S
C695 C696 1.399 . S
C696 C695 1.399 . S
C696 C697 1.396 . S
C696 C699 1.453 . S
C696 C700 1.684 . S
C697 C687 1.723 . S
C697 C696 1.396 . S
C697 C698 1.394 . S
C698 C668 1.723 . S
C698 C694 1.397 . S
C698 C697 1.394 . S
C699 H671 0.982 . S
C699 H675 0.979 . S
C699 H676 0.977 . S
C699 C696 1.453 . S
C700 H672 0.979 . S
C700 H673 0.980 . S
C700 H674 0.983 . S
C700 C696 1.684 . S
H701 C719 0.948 . S
H702 C660 0.948 . S
H703 C678 0.979 . S
H704 C678 0.980 . S
H705 C678 0.983 . S
H706 C677 0.982 . S
H707 C677 0.979 . S
H708 C677 0.977 . S
H709 C679 0.948 . S
H710 C681 0.947 . S
H711 C682 0.948 . S
H712 C688 0.982 . S
H713 C688 0.979 . S
H714 C688 0.977 . S
H715 C689 0.979 . S
H716 C689 0.980 . S
H717 C689 0.983 . S
H718 C662 0.947 . S
C719 C662 1.392 . S
C719 C663 1.419 . S
C719 H701 0.948 . S
C720 C721 1.391 . S
C720 C724 1.391 . S
C720 H762 0.948 . S
C721 C720 1.391 . S
C721 C722 1.391 . S
C722 C721 1.391 . S
C722 H778 0.947 . S
C722 C779 1.392 . S
C723 C724 1.391 . S
C723 C727 1.397 . S
C723 C779 1.419 . S
C724 C720 1.391 . S
C724 C723 1.391 . S
C724 C725 1.399 . S
C725 C724 1.399 . S
C725 C728 1.396 . S
C725 C737 1.453 . S
C725 C738 1.684 . S
H726 C750 0.948 . S
C727 C723 1.397 . S
C727 C728 1.394 . S
C727 C746 1.723 . S
C728 C725 1.396 . S
C728 C727 1.394 . S
C728 C758 1.723 . S
H729 C752 0.947 . S
H730 C753 0.948 . S
H731 C759 0.982 . S
H732 C760 0.979 . S
H733 C760 0.980 . S
H734 C760 0.983 . S
H735 C759 0.979 . S
H736 C759 0.977 . S
C737 C725 1.453 . S
C737 H766 0.982 . S
C737 H767 0.979 . S
C737 H768 0.977 . S
C738 C725 1.684 . S
C738 H763 0.979 . S
C738 H764 0.980 . S
C738 H765 0.983 . S
C739 C740 1.391 . S
C739 C744 1.391 . S
C739 H769 0.948 . S
C740 C739 1.391 . S
C740 C741 1.391 . S
C741 C740 1.391 . S
C741 C742 1.392 . S
C741 H770 0.947 . S
C742 C741 1.392 . S
C742 C743 1.419 . S
C742 H771 0.948 . S
C743 C742 1.419 . S
C743 C744 1.391 . S
C743 C747 1.397 . S
C744 C739 1.391 . S
C744 C743 1.391 . S
C744 C745 1.399 . S
C745 C744 1.399 . S
C745 C746 1.396 . S
C745 C748 1.453 . S
C745 C749 1.684 . S
C746 C727 1.723 . S
C746 C745 1.396 . S
C746 C747 1.394 . S
C747 C743 1.397 . S
C747 C746 1.394 . S
C747 C757 1.723 . S
C748 C745 1.453 . S
C748 H772 0.982 . S
C748 H773 0.979 . S
C748 H774 0.977 . S
C749 C745 1.684 . S
C749 H775 0.979 . S
C749 H776 0.980 . S
C749 H777 0.983 . S
C750 H726 0.948 . S
C750 C751 1.391 . S
C750 C755 1.391 . S
C751 C750 1.391 . S
C751 C752 1.391 . S
C752 H729 0.947 . S
C752 C751 1.391 . S
C752 C753 1.392 . S
C753 H730 0.948 . S
C753 C752 1.392 . S
C753 C754 1.419 . S
C754 C753 1.419 . S
C754 C755 1.391 . S
C754 C758 1.397 . S
C755 C750 1.391 . S
C755 C754 1.391 . S
C755 C756 1.399 . S
C756 C755 1.399 . S
C756 C757 1.396 . S
C756 C759 1.453 . S
C756 C760 1.684 . S
C757 C747 1.723 . S
C757 C756 1.396 . S
C757 C758 1.394 . S
C758 C728 1.723 . S
C758 C754 1.397 . S
C758 C757 1.394 . S
C759 H731 0.982 . S
C759 H735 0.979 . S
C759 H736 0.977 . S
C759 C756 1.453 . S
C760 H732 0.979 . S
C760 H733 0.980 . S
C760 H734 0.983 . S
C760 C756 1.684 . S
H761 C779 0.948 . S
H762 C720 0.948 . S
H763 C738 0.979 . S
H764 C738 0.980 . S
H765 C738 0.983 . S
H766 C737 0.982 . S
H767 C737 0.979 . S
H768 C737 0.977 . S
H769 C739 0.948 . S
H770 C741 0.947 . S
H771 C742 0.948 . S
H772 C748 0.982 . S
H773 C748 0.979 . S
H774 C748 0.977 . S
H775 C749 0.979 . S
H776 C749 0.980 . S
H777 C749 0.983 . S
H778 C722 0.947 . S
C779 C722 1.392 . S
C779 C723 1.419 . S
C779 H761 0.948 . S
C780 C781 1.391 . S
C780 C784 1.391 . S
C780 H822 0.948 . S
C781 C780 1.391 . S
C781 C782 1.391 . S
C782 C781 1.391 . S
C782 H838 0.947 . S
C782 C839 1.392 . S
C783 C784 1.391 . S
C783 C787 1.397 . S
C783 C839 1.419 . S
C784 C780 1.391 . S
C784 C783 1.391 . S
C784 C785 1.399 . S
C785 C784 1.399 . S
C785 C788 1.396 . S
C785 C797 1.453 . S
C785 C798 1.684 . S
H786 C810 0.948 . S
C787 C783 1.397 . S
C787 C788 1.394 . S
C787 C806 1.723 . S
C788 C785 1.396 . S
C788 C787 1.394 . S
C788 C818 1.723 . S
H789 C812 0.947 . S
H790 C813 0.948 . S
H791 C819 0.982 . S
H792 C820 0.979 . S
H793 C820 0.980 . S
H794 C820 0.983 . S
H795 C819 0.979 . S
H796 C819 0.977 . S
C797 C785 1.453 . S
C797 H826 0.982 . S
C797 H827 0.979 . S
C797 H828 0.977 . S
C798 C785 1.684 . S
C798 H823 0.979 . S
C798 H824 0.980 . S
C798 H825 0.983 . S
C799 C800 1.391 . S
C799 C804 1.391 . S
C799 H829 0.948 . S
C800 C799 1.391 . S
C800 C801 1.391 . S
C801 C800 1.391 . S
C801 C802 1.392 . S
C801 H830 0.947 . S
C802 C801 1.392 . S
C802 C803 1.419 . S
C802 H831 0.948 . S
C803 C802 1.419 . S
C803 C804 1.391 . S
C803 C807 1.397 . S
C804 C799 1.391 . S
C804 C803 1.391 . S
C804 C805 1.399 . S
C805 C804 1.399 . S
C805 C806 1.396 . S
C805 C808 1.453 . S
C805 C809 1.684 . S
C806 C787 1.723 . S
C806 C805 1.396 . S
C806 C807 1.394 . S
C807 C803 1.397 . S
C807 C806 1.394 . S
C807 C817 1.723 . S
C808 C805 1.453 . S
C808 H832 0.982 . S
C808 H833 0.979 . S
C808 H834 0.977 . S
C809 C805 1.684 . S
C809 H835 0.979 . S
C809 H836 0.980 . S
C809 H837 0.983 . S
C810 H786 0.948 . S
C810 C811 1.391 . S
C810 C815 1.391 . S
C811 C810 1.391 . S
C811 C812 1.391 . S
C812 H789 0.947 . S
C812 C811 1.391 . S
C812 C813 1.392 . S
C813 H790 0.948 . S
C813 C812 1.392 . S
C813 C814 1.419 . S
C814 C813 1.419 . S
C814 C815 1.391 . S
C814 C818 1.397 . S
C815 C810 1.391 . S
C815 C814 1.391 . S
C815 C816 1.399 . S
C816 C815 1.399 . S
C816 C817 1.396 . S
C816 C819 1.453 . S
C816 C820 1.684 . S
C817 C807 1.723 . S
C817 C816 1.396 . S
C817 C818 1.394 . S
C818 C788 1.723 . S
C818 C814 1.397 . S
C818 C817 1.394 . S
C819 H791 0.982 . S
C819 H795 0.979 . S
C819 H796 0.977 . S
C819 C816 1.453 . S
C820 H792 0.979 . S
C820 H793 0.980 . S
C820 H794 0.983 . S
C820 C816 1.684 . S
H821 C839 0.948 . S
H822 C780 0.948 . S
H823 C798 0.979 . S
H824 C798 0.980 . S
H825 C798 0.983 . S
H826 C797 0.982 . S
H827 C797 0.979 . S
H828 C797 0.977 . S
H829 C799 0.948 . S
H830 C801 0.947 . S
H831 C802 0.948 . S
H832 C808 0.982 . S
H833 C808 0.979 . S
H834 C808 0.977 . S
H835 C809 0.979 . S
H836 C809 0.980 . S
H837 C809 0.983 . S
H838 C782 0.947 . S
C839 C782 1.392 . S
C839 C783 1.419 . S
C839 H821 0.948 . S
C840 C841 1.391 . S
C840 C844 1.391 . S
C840 H882 0.948 . S
C841 C840 1.391 . S
C841 C842 1.391 . S
C842 C841 1.391 . S
C842 H898 0.947 . S
C842 C899 1.392 . S
C843 C844 1.391 . S
C843 C847 1.397 . S
C843 C899 1.419 . S
C844 C840 1.391 . S
C844 C843 1.391 . S
C844 C845 1.399 . S
C845 C844 1.399 . S
C845 C848 1.396 . S
C845 C857 1.453 . S
C845 C858 1.684 . S
H846 C870 0.948 . S
C847 C843 1.397 . S
C847 C848 1.394 . S
C847 C866 1.723 . S
C848 C845 1.396 . S
C848 C847 1.394 . S
C848 C878 1.723 . S
H849 C872 0.947 . S
H850 C873 0.948 . S
H851 C879 0.982 . S
H852 C880 0.979 . S
H853 C880 0.980 . S
H854 C880 0.983 . S
H855 C879 0.979 . S
H856 C879 0.977 . S
C857 C845 1.453 . S
C857 H886 0.982 . S
C857 H887 0.979 . S
C857 H888 0.977 . S
C858 C845 1.684 . S
C858 H883 0.979 . S
C858 H884 0.980 . S
C858 H885 0.983 . S
C859 C860 1.391 . S
C859 C864 1.391 . S
C859 H889 0.948 . S
C860 C859 1.391 . S
C860 C861 1.391 . S
C861 C860 1.391 . S
C861 C862 1.392 . S
C861 H890 0.947 . S
C862 C861 1.392 . S
C862 C863 1.419 . S
C862 H891 0.948 . S
C863 C862 1.419 . S
C863 C864 1.391 . S
C863 C867 1.397 . S
C864 C859 1.391 . S
C864 C863 1.391 . S
C864 C865 1.399 . S
C865 C864 1.399 . S
C865 C866 1.396 . S
C865 C868 1.453 . S
C865 C869 1.684 . S
C866 C847 1.723 . S
C866 C865 1.396 . S
C866 C867 1.394 . S
C867 C863 1.397 . S
C867 C866 1.394 . S
C867 C877 1.723 . S
C868 C865 1.453 . S
C868 H892 0.982 . S
C868 H893 0.979 . S
C868 H894 0.977 . S
C869 C865 1.684 . S
C869 H895 0.979 . S
C869 H896 0.980 . S
C869 H897 0.983 . S
C870 H846 0.948 . S
C870 C871 1.391 . S
C870 C875 1.391 . S
C871 C870 1.391 . S
C871 C872 1.391 . S
C872 H849 0.947 . S
C872 C871 1.391 . S
C872 C873 1.392 . S
C873 H850 0.948 . S
C873 C872 1.392 . S
C873 C874 1.419 . S
C874 C873 1.419 . S
C874 C875 1.391 . S
C874 C878 1.397 . S
C875 C870 1.391 . S
C875 C874 1.391 . S
C875 C876 1.399 . S
C876 C875 1.399 . S
C876 C877 1.396 . S
C876 C879 1.453 . S
C876 C880 1.684 . S
C877 C867 1.723 . S
C877 C876 1.396 . S
C877 C878 1.394 . S
C878 C848 1.723 . S
C878 C874 1.397 . S
C878 C877 1.394 . S
C879 H851 0.982 . S
C879 H855 0.979 . S
C879 H856 0.977 . S
C879 C876 1.453 . S
C880 H852 0.979 . S
C880 H853 0.980 . S
C880 H854 0.983 . S
C880 C876 1.684 . S
H881 C899 0.948 . S
H882 C840 0.948 . S
H883 C858 0.979 . S
H884 C858 0.980 . S
H885 C858 0.983 . S
H886 C857 0.982 . S
H887 C857 0.979 . S
H888 C857 0.977 . S
H889 C859 0.948 . S
H890 C861 0.947 . S
H891 C862 0.948 . S
H892 C868 0.982 . S
H893 C868 0.979 . S
H894 C868 0.977 . S
H895 C869 0.979 . S
H896 C869 0.980 . S
H897 C869 0.983 . S
H898 C842 0.947 . S
C899 C842 1.392 . S
C899 C843 1.419 . S
C899 H881 0.948 . S
C900 C901 1.391 . S
C900 C904 1.391 . S
C900 H942 0.948 . S
C901 C900 1.391 . S
C901 C902 1.391 . S
C902 C901 1.391 . S
C902 H958 0.947 . S
C902 C959 1.392 . S
C903 C904 1.391 . S
C903 C907 1.397 . S
C903 C959 1.419 . S
C904 C900 1.391 . S
C904 C903 1.391 . S
C904 C905 1.399 . S
C905 C904 1.399 . S
C905 C908 1.396 . S
C905 C917 1.453 . S
C905 C918 1.684 . S
H906 C930 0.948 . S
C907 C903 1.397 . S
C907 C908 1.394 . S
C907 C926 1.723 . S
C908 C905 1.396 . S
C908 C907 1.394 . S
C908 C938 1.723 . S
H909 C932 0.947 . S
H910 C933 0.948 . S
H911 C939 0.982 . S
H912 C940 0.979 . S
H913 C940 0.980 . S
H914 C940 0.983 . S
H915 C939 0.979 . S
H916 C939 0.977 . S
C917 C905 1.453 . S
C917 H946 0.982 . S
C917 H947 0.979 . S
C917 H948 0.977 . S
C918 C905 1.684 . S
C918 H943 0.979 . S
C918 H944 0.980 . S
C918 H945 0.983 . S
C919 C920 1.391 . S
C919 C924 1.391 . S
C919 H949 0.948 . S
C920 C919 1.391 . S
C920 C921 1.391 . S
C921 C920 1.391 . S
C921 C922 1.392 . S
C921 H950 0.947 . S
C922 C921 1.392 . S
C922 C923 1.419 . S
C922 H951 0.948 . S
C923 C922 1.419 . S
C923 C924 1.391 . S
C923 C927 1.397 . S
C924 C919 1.391 . S
C924 C923 1.391 . S
C924 C925 1.399 . S
C925 C924 1.399 . S
C925 C926 1.396 . S
C925 C928 1.453 . S
C925 C929 1.684 . S
C926 C907 1.723 . S
C926 C925 1.396 . S
C926 C927 1.394 . S
C927 C923 1.397 . S
C927 C926 1.394 . S
C927 C937 1.723 . S
C928 C925 1.453 . S
C928 H952 0.982 . S
C928 H953 0.979 . S
C928 H954 0.977 . S
C929 C925 1.684 . S
C929 H955 0.979 . S
C929 H956 0.980 . S
C929 H957 0.983 . S
C930 H906 0.948 . S
C930 C931 1.391 . S
C930 C935 1.391 . S
C931 C930 1.391 . S
C931 C932 1.391 . S
C932 H909 0.947 . S
C932 C931 1.391 . S
C932 C933 1.392 . S
C933 H910 0.948 . S
C933 C932 1.392 . S
C933 C934 1.419 . S
C934 C933 1.419 . S
C934 C935 1.391 . S
C934 C938 1.397 . S
C935 C930 1.391 . S
C935 C934 1.391 . S
C935 C936 1.399 . S
C936 C935 1.399 . S
C936 C937 1.396 . S
C936 C939 1.453 . S
C936 C940 1.684 . S
C937 C927 1.723 . S
C937 C936 1.396 . S
C937 C938 1.394 . S
C938 C908 1.723 . S
C938 C934 1.397 . S
C938 C937 1.394 . S
C939 H911 0.982 . S
C939 H915 0.979 . S
C939 H916 0.977 . S
C939 C936 1.453 . S
C940 H912 0.979 . S
C940 H913 0.980 . S
C940 H914 0.983 . S
C940 C936 1.684 . S
H941 C959 0.948 . S
H942 C900 0.948 . S
H943 C918 0.979 . S
H944 C918 0.980 . S
H945 C918 0.983 . S
H946 C917 0.982 . S
H947 C917 0.979 . S
H948 C917 0.977 . S
H949 C919 0.948 . S
H950 C921 0.947 . S
H951 C922 0.948 . S
H952 C928 0.982 . S
H953 C928 0.979 . S
H954 C928 0.977 . S
H955 C929 0.979 . S
H956 C929 0.980 . S
H957 C929 0.983 . S
H958 C902 0.947 . S
C959 C902 1.392 . S
C959 C903 1.419 . S
C959 H941 0.948 . S
C960 C961 1.391 . S
C960 C964 1.391 . S
C960 H1002 0.948 . S
C961 C960 1.391 . S
C961 C962 1.391 . S
C962 C961 1.391 . S
C962 H1018 0.947 . S
C962 C1019 1.392 . S
C963 C964 1.391 . S
C963 C967 1.397 . S
C963 C1019 1.419 . S
C964 C960 1.391 . S
C964 C963 1.391 . S
C964 C965 1.399 . S
C965 C964 1.399 . S
C965 C968 1.396 . S
C965 C977 1.453 . S
C965 C978 1.684 . S
H966 C990 0.948 . S
C967 C963 1.397 . S
C967 C968 1.394 . S
C967 C986 1.723 . S
C968 C965 1.396 . S
C968 C967 1.394 . S
C968 C998 1.723 . S
H969 C992 0.947 . S
H970 C993 0.948 . S
H971 C999 0.982 . S
H972 C1000 0.979 . S
H973 C1000 0.980 . S
H974 C1000 0.983 . S
H975 C999 0.979 . S
H976 C999 0.977 . S
C977 C965 1.453 . S
C977 H1006 0.982 . S
C977 H1007 0.979 . S
C977 H1008 0.977 . S
C978 C965 1.684 . S
C978 H1003 0.979 . S
C978 H1004 0.980 . S
C978 H1005 0.983 . S
C979 C980 1.391 . S
C979 C984 1.391 . S
C979 H1009 0.948 . S
C980 C979 1.391 . S
C980 C981 1.391 . S
C981 C980 1.391 . S
C981 C982 1.392 . S
C981 H1010 0.947 . S
C982 C981 1.392 . S
C982 C983 1.419 . S
C982 H1011 0.948 . S
C983 C982 1.419 . S
C983 C984 1.391 . S
C983 C987 1.397 . S
C984 C979 1.391 . S
C984 C983 1.391 . S
C984 C985 1.399 . S
C985 C984 1.399 . S
C985 C986 1.396 . S
C985 C988 1.453 . S
C985 C989 1.684 . S
C986 C967 1.723 . S
C986 C985 1.396 . S
C986 C987 1.394 . S
C987 C983 1.397 . S
C987 C986 1.394 . S
C987 C997 1.723 . S
C988 C985 1.453 . S
C988 H1012 0.982 . S
C988 H1013 0.979 . S
C988 H1014 0.977 . S
C989 C985 1.684 . S
C989 H1015 0.979 . S
C989 H1016 0.980 . S
C989 H1017 0.983 . S
C990 H966 0.948 . S
C990 C991 1.391 . S
C990 C995 1.391 . S
C991 C990 1.391 . S
C991 C992 1.391 . S
C992 H969 0.947 . S
C992 C991 1.391 . S
C992 C993 1.392 . S
C993 H970 0.948 . S
C993 C992 1.392 . S
C993 C994 1.419 . S
C994 C993 1.419 . S
C994 C995 1.391 . S
C994 C998 1.397 . S
C995 C990 1.391 . S
C995 C994 1.391 . S
C995 C996 1.399 . S
C996 C995 1.399 . S
C996 C997 1.396 . S
C996 C999 1.453 . S
C996 C1000 1.684 . S
C997 C987 1.723 . S
C997 C996 1.396 . S
C997 C998 1.394 . S
C998 C968 1.723 . S
C998 C994 1.397 . S
C998 C997 1.394 . S
C999 H971 0.982 . S
C999 H975 0.979 . S
C999 H976 0.977 . S
C999 C996 1.453 . S
C1000 H972 0.979 . S
C1000 H973 0.980 . S
C1000 H974 0.983 . S
C1000 C996 1.684 . S
H1001 C1019 0.948 . S
H1002 C960 0.948 . S
H1003 C978 0.979 . S
H1004 C978 0.980 . S
H1005 C978 0.983 . S
H1006 C977 0.982 . S
H1007 C977 0.979 . S
H1008 C977 0.977 . S
H1009 C979 0.948 . S
H1010 C981 0.947 . S
H1011 C982 0.948 . S
H1012 C988 0.982 . S
H1013 C988 0.979 . S
H1014 C988 0.977 . S
H1015 C989 0.979 . S
H1016 C989 0.980 . S
H1017 C989 0.983 . S
H1018 C962 0.947 . S
C1019 C962 1.392 . S
C1019 C963 1.419 . S
C1019 H1001 0.948 . S
C1020 C1021 1.391 . S
C1020 C1024 1.391 . S
C1020 H1062 0.948 . S
C1021 C1020 1.391 . S
C1021 C1022 1.391 . S
C1022 C1021 1.391 . S
C1022 H1078 0.947 . S
C1022 C1079 1.392 . S
C1023 C1024 1.391 . S
C1023 C1027 1.397 . S
C1023 C1079 1.419 . S
C1024 C1020 1.391 . S
C1024 C1023 1.391 . S
C1024 C1025 1.399 . S
C1025 C1024 1.399 . S
C1025 C1028 1.396 . S
C1025 C1037 1.453 . S
C1025 C1038 1.684 . S
H1026 C1050 0.948 . S
C1027 C1023 1.397 . S
C1027 C1028 1.394 . S
C1027 C1046 1.723 . S
C1028 C1025 1.396 . S
C1028 C1027 1.394 . S
C1028 C1058 1.723 . S
H1029 C1052 0.947 . S
H1030 C1053 0.948 . S
H1031 C1059 0.982 . S
H1032 C1060 0.979 . S
H1033 C1060 0.980 . S
H1034 C1060 0.983 . S
H1035 C1059 0.979 . S
H1036 C1059 0.977 . S
C1037 C1025 1.453 . S
C1037 H1066 0.982 . S
C1037 H1067 0.979 . S
C1037 H1068 0.977 . S
C1038 C1025 1.684 . S
C1038 H1063 0.979 . S
C1038 H1064 0.980 . S
C1038 H1065 0.983 . S
C1039 C1040 1.391 . S
C1039 C1044 1.391 . S
C1039 H1069 0.948 . S
C1040 C1039 1.391 . S
C1040 C1041 1.391 . S
C1041 C1040 1.391 . S
C1041 C1042 1.392 . S
C1041 H1070 0.947 . S
C1042 C1041 1.392 . S
C1042 C1043 1.419 . S
C1042 H1071 0.948 . S
C1043 C1042 1.419 . S
C1043 C1044 1.391 . S
C1043 C1047 1.397 . S
C1044 C1039 1.391 . S
C1044 C1043 1.391 . S
C1044 C1045 1.399 . S
C1045 C1044 1.399 . S
C1045 C1046 1.396 . S
C1045 C1048 1.453 . S
C1045 C1049 1.684 . S
C1046 C1027 1.723 . S
C1046 C1045 1.396 . S
C1046 C1047 1.394 . S
C1047 C1043 1.397 . S
C1047 C1046 1.394 . S
C1047 C1057 1.723 . S
C1048 C1045 1.453 . S
C1048 H1072 0.982 . S
C1048 H1073 0.979 . S
C1048 H1074 0.977 . S
C1049 C1045 1.684 . S
C1049 H1075 0.979 . S
C1049 H1076 0.980 . S
C1049 H1077 0.983 . S
C1050 H1026 0.948 . S
C1050 C1051 1.391 . S
C1050 C1055 1.391 . S
C1051 C1050 1.391 . S
C1051 C1052 1.391 . S
C1052 H1029 0.947 . S
C1052 C1051 1.391 . S
C1052 C1053 1.392 . S
C1053 H1030 0.948 . S
C1053 C1052 1.392 . S
C1053 C1054 1.419 . S
C1054 C1053 1.419 . S
C1054 C1055 1.391 . S
C1054 C1058 1.397 . S
C1055 C1050 1.391 . S
C1055 C1054 1.391 . S
C1055 C1056 1.399 . S
C1056 C1055 1.399 . S
C1056 C1057 1.396 . S
C1056 C1059 1.453 . S
C1056 C1060 1.684 . S
C1057 C1047 1.723 . S
C1057 C1056 1.396 . S
C1057 C1058 1.394 . S
C1058 C1028 1.723 . S
C1058 C1054 1.397 . S
C1058 C1057 1.394 . S
C1059 H1031 0.982 . S
C1059 H1035 0.979 . S
C1059 H1036 0.977 . S
C1059 C1056 1.453 . S
C1060 H1032 0.979 . S
C1060 H1033 0.980 . S
C1060 H1034 0.983 . S
C1060 C1056 1.684 . S
H1061 C1079 0.948 . S
H1062 C1020 0.948 . S
H1063 C1038 0.979 . S
H1064 C1038 0.980 . S
H1065 C1038 0.983 . S
H1066 C1037 0.982 . S
H1067 C1037 0.979 . S
H1068 C1037 0.977 . S
H1069 C1039 0.948 . S
H1070 C1041 0.947 . S
H1071 C1042 0.948 . S
H1072 C1048 0.982 . S
H1073 C1048 0.979 . S
H1074 C1048 0.977 . S
H1075 C1049 0.979 . S
H1076 C1049 0.980 . S
H1077 C1049 0.983 . S
H1078 C1022 0.947 . S
C1079 C1022 1.392 . S
C1079 C1023 1.419 . S
C1079 H1061 0.948 . S
Tb1080 O1083 2.453 . S
Tb1080 O1084 2.596 1_545 S
Tb1080 O1085 2.374 1_545 S
Tb1080 O1093 2.343 1_554 S
Tb1080 O1095 2.353 . S
Tb1080 O1097 2.427 1_554 S
Tb1080 O1098 2.513 1_554 S
C1081 O1085 1.251 . S
C1081 O1087 1.263 1_554 S
Tb1082 O1084 2.343 1_556 S
Tb1082 O1087 2.353 . S
Tb1082 O1090 2.427 1_556 S
Tb1082 O1091 2.513 1_556 S
Tb1082 O1092 2.453 . S
Tb1082 O1093 2.596 1_565 S
Tb1082 O1094 2.374 1_565 S
O1083 Tb1080 2.453 . S
O1083 C1099 1.245 . S
O1084 Tb1080 2.596 1_565 S
O1084 Tb1082 2.343 1_554 S
O1084 C1099 1.259 1_565 S
O1085 Tb1080 2.374 1_565 S
O1085 C1081 1.251 . S
C1086 O1090 1.275 . S
C1086 O1091 1.246 . S
O1087 C1081 1.263 1_556 S
O1087 Tb1082 2.353 . S
C1088 O1092 1.245 . S
C1088 O1093 1.259 1_565 S
C1089 O1094 1.250 . S
C1089 O1095 1.263 1_556 S
O1090 Tb1082 2.427 1_554 S
O1090 C1086 1.275 . S
O1091 Tb1082 2.513 1_554 S
O1091 C1086 1.246 . S
O1092 Tb1082 2.453 . S
O1092 C1088 1.245 . S
O1093 Tb1080 2.343 1_556 S
O1093 Tb1082 2.596 1_545 S
O1093 C1088 1.259 1_545 S
O1094 Tb1082 2.374 1_545 S
O1094 C1089 1.250 . S
O1095 Tb1080 2.353 . S
O1095 C1089 1.263 1_554 S
C1096 O1097 1.275 . S
C1096 O1098 1.246 . S
O1097 Tb1080 2.427 1_556 S
O1097 C1096 1.275 . S
O1098 Tb1080 2.513 1_556 S
O1098 C1096 1.246 . S
C1099 O1083 1.245 . S
C1099 O1084 1.259 1_545 S
Tb1100 O1103 2.453 . S
Tb1100 O1104 2.596 1_655 S
Tb1100 O1105 2.374 1_655 S
Tb1100 O1113 2.343 1_554 S
Tb1100 O1115 2.344 1_554 S
Tb1100 O1117 2.427 1_554 S
Tb1100 O1118 2.513 1_554 S
C1101 O1105 1.251 . S
C1101 O1107 1.263 . S
Tb1102 O1104 2.343 1_556 S
Tb1102 O1107 2.353 1_556 S
Tb1102 O1110 2.427 1_556 S
Tb1102 O1111 2.513 1_556 S
Tb1102 O1112 2.453 . S
Tb1102 O1113 2.596 1_455 S
Tb1102 O1114 2.374 1_455 S
O1103 Tb1100 2.453 . S
O1103 C1119 1.245 1_655 S
O1104 Tb1100 2.596 1_455 S
O1104 Tb1102 2.343 1_554 S
O1104 C1119 1.259 . S
O1105 Tb1100 2.374 1_455 S
O1105 C1101 1.251 . S
C1106 O1110 1.275 . S
C1106 O1111 1.246 . S
O1107 C1101 1.263 . S
O1107 Tb1102 2.353 1_554 S
C1108 O1112 1.227 1_655 S
C1108 O1113 1.267 . S
C1109 O1114 1.250 . S
C1109 O1115 1.294 . S
O1110 Tb1102 2.427 1_554 S
O1110 C1106 1.275 . S
O1111 Tb1102 2.513 1_554 S
O1111 C1106 1.246 . S
O1112 Tb1102 2.453 . S
O1112 C1108 1.227 1_455 S
O1113 Tb1100 2.343 1_556 S
O1113 Tb1102 2.596 1_655 S
O1113 C1108 1.267 . S
O1114 Tb1102 2.374 1_655 S
O1114 C1109 1.250 . S
O1115 Tb1100 2.344 1_556 S
O1115 C1109 1.294 . S
C1116 O1117 1.275 . S
C1116 O1118 1.246 . S
O1117 Tb1100 2.427 1_556 S
O1117 C1116 1.275 . S
O1118 Tb1100 2.513 1_556 S
O1118 C1116 1.246 . S
C1119 O1103 1.245 1_455 S
C1119 O1104 1.259 . S
Tb1120 O1123 2.453 . S
Tb1120 O1124 2.596 . S
Tb1120 O1125 2.374 . S
Tb1120 O1133 2.343 1_556 S
Tb1120 O1135 2.348 1_556 S
Tb1120 O1137 2.427 1_556 S
Tb1120 O1138 2.513 1_556 S
C1121 O1125 1.251 . S
C1121 O1127 1.240 1_556 S
Tb1122 O1124 2.343 1_554 S
Tb1122 O1127 2.361 . S
Tb1122 O1130 2.427 1_554 S
Tb1122 O1131 2.513 1_554 S
Tb1122 O1132 2.453 . S
Tb1122 O1133 2.596 . S
Tb1122 O1134 2.374 . S
O1123 Tb1120 2.453 . S
O1123 C1139 1.245 . S
O1124 Tb1120 2.596 . S
O1124 Tb1122 2.343 1_556 S
O1124 C1139 1.259 . S
O1125 Tb1120 2.374 . S
O1125 C1121 1.251 . S
C1126 O1130 1.275 . S
C1126 O1131 1.246 . S
O1127 C1121 1.240 1_554 S
O1127 Tb1122 2.361 . S
C1128 O1132 1.245 . S
C1128 O1133 1.259 . S
C1129 O1134 1.250 . S
C1129 O1135 1.285 . S
O1130 Tb1122 2.427 1_556 S
O1130 C1126 1.275 . S
O1131 Tb1122 2.513 1_556 S
O1131 C1126 1.246 . S
O1132 Tb1122 2.453 . S
O1132 C1128 1.245 . S
O1133 Tb1120 2.343 1_554 S
O1133 Tb1122 2.596 . S
O1133 C1128 1.259 . S
O1134 Tb1122 2.374 . S
O1134 C1129 1.250 . S
O1135 Tb1120 2.348 1_554 S
O1135 C1129 1.285 . S
C1136 O1137 1.275 . S
C1136 O1138 1.246 . S
O1137 Tb1120 2.427 1_554 S
O1137 C1136 1.275 . S
O1138 Tb1120 2.513 1_554 S
O1138 C1136 1.246 . S
C1139 O1123 1.245 . S
C1139 O1124 1.259 . S
Tb1140 O1143 2.453 . S
Tb1140 O1144 2.596 . S
Tb1140 O1145 2.374 . S
Tb1140 O1153 2.343 . S
Tb1140 O1155 2.353 . S
Tb1140 O1157 2.427 . S
Tb1140 O1158 2.513 . S
C1141 O1145 1.251 . S
C1141 O1147 1.263 . S
Tb1142 O1144 2.343 . S
Tb1142 O1147 2.353 . S
Tb1142 O1150 2.427 . S
Tb1142 O1151 2.513 . S
Tb1142 O1152 2.453 . S
Tb1142 O1153 2.596 . S
Tb1142 O1154 2.374 . S
O1143 Tb1140 2.453 . S
O1143 C1159 1.245 . S
O1144 Tb1140 2.596 . S
O1144 Tb1142 2.343 . S
O1144 C1159 1.259 . S
O1145 Tb1140 2.374 . S
O1145 C1141 1.251 . S
C1146 O1150 1.275 . S
C1146 O1151 1.246 . S
O1147 C1141 1.263 . S
O1147 Tb1142 2.353 . S
C1148 O1152 1.245 . S
C1148 O1153 1.259 . S
C1149 O1154 1.250 . S
C1149 O1155 1.263 . S
O1150 Tb1142 2.427 . S
O1150 C1146 1.275 . S
O1151 Tb1142 2.513 . S
O1151 C1146 1.246 . S
O1152 Tb1142 2.453 . S
O1152 C1148 1.245 . S
O1153 Tb1140 2.343 . S
O1153 Tb1142 2.596 . S
O1153 C1148 1.259 . S
O1154 Tb1142 2.374 . S
O1154 C1149 1.250 . S
O1155 Tb1140 2.353 . S
O1155 C1149 1.263 . S
C1156 O1157 1.275 . S
C1156 O1158 1.246 . S
O1157 Tb1140 2.427 . S
O1157 C1156 1.275 . S
O1158 Tb1140 2.513 . S
O1158 C1156 1.246 . S
C1159 O1143 1.245 . S
C1159 O1144 1.259 . S
Tb1160 O1163 2.453 . S
Tb1160 O1164 2.596 . S
Tb1160 O1165 2.374 . S
Tb1160 O1173 2.343 . S
Tb1160 O1175 2.353 . S
Tb1160 O1177 2.427 . S
Tb1160 O1178 2.513 . S
C1161 O1165 1.251 . S
C1161 O1167 1.263 . S
Tb1162 O1164 2.343 . S
Tb1162 O1167 2.353 . S
Tb1162 O1170 2.427 . S
Tb1162 O1171 2.513 . S
Tb1162 O1172 2.453 . S
Tb1162 O1173 2.596 . S
Tb1162 O1174 2.374 . S
O1163 Tb1160 2.453 . S
O1163 C1179 1.245 . S
O1164 Tb1160 2.596 . S
O1164 Tb1162 2.343 . S
O1164 C1179 1.259 . S
O1165 Tb1160 2.374 . S
O1165 C1161 1.251 . S
C1166 O1170 1.275 . S
C1166 O1171 1.246 . S
O1167 C1161 1.263 . S
O1167 Tb1162 2.353 . S
C1168 O1172 1.245 . S
C1168 O1173 1.259 . S
C1169 O1174 1.250 . S
C1169 O1175 1.263 . S
O1170 Tb1162 2.427 . S
O1170 C1166 1.275 . S
O1171 Tb1162 2.513 . S
O1171 C1166 1.246 . S
O1172 Tb1162 2.453 . S
O1172 C1168 1.245 . S
O1173 Tb1160 2.343 . S
O1173 Tb1162 2.596 . S
O1173 C1168 1.259 . S
O1174 Tb1162 2.374 . S
O1174 C1169 1.250 . S
O1175 Tb1160 2.353 . S
O1175 C1169 1.263 . S
C1176 O1177 1.275 . S
C1176 O1178 1.246 . S
O1177 Tb1160 2.427 . S
O1177 C1176 1.275 . S
O1178 Tb1160 2.513 . S
O1178 C1176 1.246 . S
C1179 O1163 1.245 . S
C1179 O1164 1.259 . S
Tb1180 O1183 2.453 . S
Tb1180 O1184 2.596 . S
Tb1180 O1185 2.374 . S
Tb1180 O1193 2.343 . S
Tb1180 O1195 2.353 . S
Tb1180 O1197 2.427 . S
Tb1180 O1198 2.513 . S
C1181 O1185 1.251 . S
C1181 O1187 1.263 . S
Tb1182 O1184 2.343 . S
Tb1182 O1187 2.353 . S
Tb1182 O1190 2.427 . S
Tb1182 O1191 2.513 . S
Tb1182 O1192 2.453 . S
Tb1182 O1193 2.596 . S
Tb1182 O1194 2.374 . S
O1183 Tb1180 2.453 . S
O1183 C1199 1.245 . S
O1184 Tb1180 2.596 . S
O1184 Tb1182 2.343 . S
O1184 C1199 1.259 . S
O1185 Tb1180 2.374 . S
O1185 C1181 1.251 . S
C1186 O1190 1.275 . S
C1186 O1191 1.246 . S
O1187 C1181 1.263 . S
O1187 Tb1182 2.353 . S
C1188 O1192 1.245 . S
C1188 O1193 1.259 . S
C1189 O1194 1.250 . S
C1189 O1195 1.263 . S
O1190 Tb1182 2.427 . S
O1190 C1186 1.275 . S
O1191 Tb1182 2.513 . S
O1191 C1186 1.246 . S
O1192 Tb1182 2.453 . S
O1192 C1188 1.245 . S
O1193 Tb1180 2.343 . S
O1193 Tb1182 2.596 . S
O1193 C1188 1.259 . S
O1194 Tb1182 2.374 . S
O1194 C1189 1.250 . S
O1195 Tb1180 2.353 . S
O1195 C1189 1.263 . S
C1196 O1197 1.275 . S
C1196 O1198 1.246 . S
O1197 Tb1180 2.427 . S
O1197 C1196 1.275 . S
O1198 Tb1180 2.513 . S
O1198 C1196 1.246 . S
C1199 O1183 1.245 . S
C1199 O1184 1.259 . S
Tb1200 O1203 2.453 . S
Tb1200 O1204 2.596 . S
Tb1200 O1205 2.374 . S
Tb1200 O1213 2.343 . S
Tb1200 O1215 2.353 . S
Tb1200 O1217 2.427 . S
Tb1200 O1218 2.513 . S
C1201 O1205 1.251 . S
C1201 O1207 1.263 . S
Tb1202 O1204 2.343 . S
Tb1202 O1207 2.353 . S
Tb1202 O1210 2.427 . S
Tb1202 O1211 2.513 . S
Tb1202 O1212 2.453 . S
Tb1202 O1213 2.596 . S
Tb1202 O1214 2.374 . S
O1203 Tb1200 2.453 . S
O1203 C1219 1.245 . S
O1204 Tb1200 2.596 . S
O1204 Tb1202 2.343 . S
O1204 C1219 1.259 . S
O1205 Tb1200 2.374 . S
O1205 C1201 1.251 . S
C1206 O1210 1.275 . S
C1206 O1211 1.246 . S
O1207 C1201 1.263 . S
O1207 Tb1202 2.353 . S
C1208 O1212 1.245 . S
C1208 O1213 1.259 . S
C1209 O1214 1.250 . S
C1209 O1215 1.263 . S
O1210 Tb1202 2.427 . S
O1210 C1206 1.275 . S
O1211 Tb1202 2.513 . S
O1211 C1206 1.246 . S
O1212 Tb1202 2.453 . S
O1212 C1208 1.245 . S
O1213 Tb1200 2.343 . S
O1213 Tb1202 2.596 . S
O1213 C1208 1.259 . S
O1214 Tb1202 2.374 . S
O1214 C1209 1.250 . S
O1215 Tb1200 2.353 . S
O1215 C1209 1.263 . S
C1216 O1217 1.275 . S
C1216 O1218 1.246 . S
O1217 Tb1200 2.427 . S
O1217 C1216 1.275 . S
O1218 Tb1200 2.513 . S
O1218 C1216 1.246 . S
C1219 O1203 1.245 . S
C1219 O1204 1.259 . S
Tb1220 O1223 2.453 . S
Tb1220 O1224 2.596 . S
Tb1220 O1225 2.374 . S
Tb1220 O1233 2.343 . S
Tb1220 O1235 2.353 . S
Tb1220 O1237 2.427 . S
Tb1220 O1238 2.513 . S
C1221 O1225 1.251 . S
C1221 O1227 1.263 . S
Tb1222 O1224 2.343 . S
Tb1222 O1227 2.353 . S
Tb1222 O1230 2.427 . S
Tb1222 O1231 2.513 . S
Tb1222 O1232 2.453 . S
Tb1222 O1233 2.596 . S
Tb1222 O1234 2.374 . S
O1223 Tb1220 2.453 . S
O1223 C1239 1.245 . S
O1224 Tb1220 2.596 . S
O1224 Tb1222 2.343 . S
O1224 C1239 1.259 . S
O1225 Tb1220 2.374 . S
O1225 C1221 1.251 . S
C1226 O1230 1.275 . S
C1226 O1231 1.246 . S
O1227 C1221 1.263 . S
O1227 Tb1222 2.353 . S
C1228 O1232 1.245 . S
C1228 O1233 1.259 . S
C1229 O1234 1.250 . S
C1229 O1235 1.263 . S
O1230 Tb1222 2.427 . S
O1230 C1226 1.275 . S
O1231 Tb1222 2.513 . S
O1231 C1226 1.246 . S
O1232 Tb1222 2.453 . S
O1232 C1228 1.245 . S
O1233 Tb1220 2.343 . S
O1233 Tb1222 2.596 . S
O1233 C1228 1.259 . S
O1234 Tb1222 2.374 . S
O1234 C1229 1.250 . S
O1235 Tb1220 2.353 . S
O1235 C1229 1.263 . S
C1236 O1237 1.275 . S
C1236 O1238 1.246 . S
O1237 Tb1220 2.427 . S
O1237 C1236 1.275 . S
O1238 Tb1220 2.513 . S
O1238 C1236 1.246 . S
C1239 O1223 1.245 . S
C1239 O1224 1.259 . S
Tb1240 O1243 2.453 . S
Tb1240 O1244 2.596 . S
Tb1240 O1245 2.374 . S
Tb1240 O1253 2.343 . S
Tb1240 O1255 2.353 . S
Tb1240 O1257 2.427 . S
Tb1240 O1258 2.513 . S
C1241 O1245 1.251 . S
C1241 O1247 1.263 . S
Tb1242 O1244 2.343 . S
Tb1242 O1247 2.353 . S
Tb1242 O1250 2.427 . S
Tb1242 O1251 2.513 . S
Tb1242 O1252 2.453 . S
Tb1242 O1253 2.596 . S
Tb1242 O1254 2.374 . S
O1243 Tb1240 2.453 . S
O1243 C1259 1.245 . S
O1244 Tb1240 2.596 . S
O1244 Tb1242 2.343 . S
O1244 C1259 1.259 . S
O1245 Tb1240 2.374 . S
O1245 C1241 1.251 . S
C1246 O1250 1.275 . S
C1246 O1251 1.246 . S
O1247 C1241 1.263 . S
O1247 Tb1242 2.353 . S
C1248 O1252 1.245 . S
C1248 O1253 1.259 . S
C1249 O1254 1.250 . S
C1249 O1255 1.263 . S
O1250 Tb1242 2.427 . S
O1250 C1246 1.275 . S
O1251 Tb1242 2.513 . S
O1251 C1246 1.246 . S
O1252 Tb1242 2.453 . S
O1252 C1248 1.245 . S
O1253 Tb1240 2.343 . S
O1253 Tb1242 2.596 . S
O1253 C1248 1.259 . S
O1254 Tb1242 2.374 . S
O1254 C1249 1.250 . S
O1255 Tb1240 2.353 . S
O1255 C1249 1.263 . S
C1256 O1257 1.275 . S
C1256 O1258 1.246 . S
O1257 Tb1240 2.427 . S
O1257 C1256 1.275 . S
O1258 Tb1240 2.513 . S
O1258 C1256 1.246 . S
C1259 O1243 1.245 . S
C1259 O1244 1.259 . S
H1260 C1272 0.930 . S
H1261 C1274 0.930 . S
H1262 C1275 0.930 . S
H1263 C1279 0.959 . S
H1264 C1279 0.959 . S
H1265 C1279 0.961 . S
H1266 C1280 0.960 . S
H1267 C1280 0.961 . S
H1268 C1280 0.959 . S
H1269 C1283 0.929 . S
H1270 C1284 0.954 . S
H1271 C1286 0.930 . S
C1272 H1260 0.930 . S
C1272 C1273 1.399 . S
C1272 C1277 1.399 . S
C1273 C1272 1.399 . S
C1273 C1274 1.376 . S
C1274 H1261 0.930 . S
C1274 C1273 1.376 . S
C1274 C1275 1.388 . S
C1275 H1262 0.930 . S
C1275 C1274 1.388 . S
C1275 C1276 1.390 . S
C1276 C1275 1.390 . S
C1276 C1277 1.394 . S
C1276 C1282 1.465 . S
C1277 C1272 1.399 . S
C1277 C1276 1.394 . S
C1277 C1278 1.516 . S
C1278 C1277 1.516 . S
C1278 C1279 1.502 . S
C1278 C1280 1.561 . S
C1278 C1281 1.526 . S
C1279 H1263 0.959 . S
C1279 H1264 0.959 . S
C1279 H1265 0.961 . S
C1279 C1278 1.502 . S
C1280 H1266 0.960 . S
C1280 H1267 0.961 . S
C1280 H1268 0.959 . S
C1280 C1278 1.561 . S
C1281 C1278 1.526 . S
C1281 C1282 1.396 . S
C1281 C1286 1.390 . S
C1282 C1276 1.465 . S
C1282 C1281 1.396 . S
C1282 C1283 1.399 . S
C1283 H1269 0.929 . S
C1283 C1282 1.399 . S
C1283 C1284 1.385 . S
C1284 H1270 0.954 . S
C1284 C1283 1.385 . S
C1284 C1285 1.389 . S
C1285 C1284 1.389 . S
C1285 C1286 1.387 . S
C1286 H1271 0.930 . S
C1286 C1281 1.390 . S
C1286 C1285 1.387 . S
H1287 C1299 0.930 . S
H1288 C1301 0.930 . S
H1289 C1302 0.930 . S
H1290 C1306 0.959 . S
H1291 C1306 0.959 . S
H1292 C1306 0.961 . S
H1293 C1307 0.960 . S
H1294 C1307 0.961 . S
H1295 C1307 0.959 . S
H1296 C1310 0.929 . S
H1297 C1311 0.931 . S
H1298 C1313 0.930 . S
C1299 H1287 0.930 . S
C1299 C1300 1.399 . S
C1299 C1304 1.399 . S
C1300 C1299 1.399 . S
C1300 C1301 1.376 . S
C1301 H1288 0.930 . S
C1301 C1300 1.376 . S
C1301 C1302 1.388 . S
C1302 H1289 0.930 . S
C1302 C1301 1.388 . S
C1302 C1303 1.390 . S
C1303 C1302 1.390 . S
C1303 C1304 1.394 . S
C1303 C1309 1.465 . S
C1304 C1299 1.399 . S
C1304 C1303 1.394 . S
C1304 C1305 1.516 . S
C1305 C1304 1.516 . S
C1305 C1306 1.502 . S
C1305 C1307 1.561 . S
C1305 C1308 1.526 . S
C1306 H1290 0.959 . S
C1306 H1291 0.959 . S
C1306 H1292 0.961 . S
C1306 C1305 1.502 . S
C1307 H1293 0.960 . S
C1307 H1294 0.961 . S
C1307 H1295 0.959 . S
C1307 C1305 1.561 . S
C1308 C1305 1.526 . S
C1308 C1309 1.396 . S
C1308 C1313 1.390 . S
C1309 C1303 1.465 . S
C1309 C1308 1.396 . S
C1309 C1310 1.399 . S
C1310 H1296 0.929 . S
C1310 C1309 1.399 . S
C1310 C1311 1.385 . S
C1311 H1297 0.931 . S
C1311 C1310 1.385 . S
C1311 C1312 1.389 . S
C1312 C1311 1.389 . S
C1312 C1313 1.387 . S
C1313 H1298 0.930 . S
C1313 C1308 1.390 . S
C1313 C1312 1.387 . S
H1314 C1326 0.930 . S
H1315 C1328 0.930 . S
H1316 C1329 0.930 . S
H1317 C1333 0.974 . S
H1318 C1333 0.944 1_556 S
H1319 C1333 0.954 1_556 S
H1320 C1334 0.960 . S
H1321 C1334 0.961 . S
H1322 C1334 0.959 1_554 S
H1323 C1337 0.929 . S
H1324 C1338 0.931 . S
H1325 C1340 0.930 1_556 S
C1326 H1314 0.930 . S
C1326 C1327 1.399 . S
C1326 C1331 1.399 . S
C1327 C1326 1.399 . S
C1327 C1328 1.376 . S
C1328 H1315 0.930 . S
C1328 C1327 1.376 . S
C1328 C1329 1.388 . S
C1329 H1316 0.930 . S
C1329 C1328 1.388 . S
C1329 C1330 1.390 . S
C1330 C1329 1.390 . S
C1330 C1331 1.394 . S
C1330 C1336 1.465 . S
C1331 C1326 1.399 . S
C1331 C1330 1.394 . S
C1331 C1332 1.516 . S
C1332 C1331 1.516 . S
C1332 C1333 1.510 . S
C1332 C1334 1.561 1_554 S
C1332 C1335 1.526 . S
C1333 H1317 0.974 . S
C1333 H1318 0.944 1_554 S
C1333 H1319 0.954 1_554 S
C1333 C1332 1.510 . S
C1334 H1320 0.960 . S
C1334 H1321 0.961 . S
C1334 H1322 0.959 1_556 S
C1334 C1332 1.561 1_556 S
C1335 C1332 1.526 . S
C1335 C1336 1.396 . S
C1335 C1340 1.390 . S
C1336 C1330 1.465 . S
C1336 C1335 1.396 . S
C1336 C1337 1.399 . S
C1337 H1323 0.929 . S
C1337 C1336 1.399 . S
C1337 C1338 1.385 . S
C1338 H1324 0.931 . S
C1338 C1337 1.385 . S
C1338 C1339 1.389 . S
C1339 C1338 1.389 . S
C1339 C1340 1.387 . S
C1340 H1325 0.930 1_554 S
C1340 C1335 1.390 . S
C1340 C1339 1.387 . S
H1341 C1353 0.930 . S
H1342 C1355 0.930 . S
H1343 C1356 0.930 . S
H1344 C1360 0.959 . S
H1345 C1360 0.959 . S
H1346 C1360 0.961 . S
H1347 C1361 0.960 . S
H1348 C1361 0.961 . S
H1349 C1361 0.959 . S
H1350 C1364 0.929 . S
H1351 C1365 0.931 . S
H1352 C1367 0.930 . S
C1353 H1341 0.930 . S
C1353 C1354 1.399 . S
C1353 C1358 1.399 . S
C1354 C1353 1.399 . S
C1354 C1355 1.376 . S
C1355 H1342 0.930 . S
C1355 C1354 1.376 . S
C1355 C1356 1.388 . S
C1356 H1343 0.930 . S
C1356 C1355 1.388 . S
C1356 C1357 1.390 . S
C1357 C1356 1.390 . S
C1357 C1358 1.394 . S
C1357 C1363 1.465 . S
C1358 C1353 1.399 . S
C1358 C1357 1.394 . S
C1358 C1359 1.516 . S
C1359 C1358 1.516 . S
C1359 C1360 1.502 . S
C1359 C1361 1.561 1_556 S
C1359 C1362 1.526 . S
C1360 H1344 0.959 . S
C1360 H1345 0.959 . S
C1360 H1346 0.961 . S
C1360 C1359 1.502 . S
C1361 H1347 0.960 . S
C1361 H1348 0.961 . S
C1361 H1349 0.959 . S
C1361 C1359 1.561 1_554 S
C1362 C1359 1.526 . S
C1362 C1363 1.396 . S
C1362 C1367 1.390 . S
C1363 C1357 1.465 . S
C1363 C1362 1.396 . S
C1363 C1364 1.399 . S
C1364 H1350 0.929 . S
C1364 C1363 1.399 . S
C1364 C1365 1.385 . S
C1365 H1351 0.931 . S
C1365 C1364 1.385 . S
C1365 C1366 1.389 . S
C1366 C1365 1.389 . S
C1366 C1367 1.387 . S
C1367 H1352 0.930 . S
C1367 C1362 1.390 . S
C1367 C1366 1.387 . S
H1368 C1380 0.930 . S
H1369 C1382 0.930 . S
H1370 C1383 0.930 . S
H1371 C1387 0.959 . S
H1372 C1387 0.959 . S
H1373 C1387 0.961 . S
H1374 C1388 0.960 . S
H1375 C1388 0.961 . S
H1376 C1388 0.959 . S
H1377 C1391 0.929 . S
H1378 C1392 0.931 . S
H1379 C1394 0.930 . S
C1380 H1368 0.930 . S
C1380 C1381 1.399 . S
C1380 C1385 1.399 . S
C1381 C1380 1.399 . S
C1381 C1382 1.376 . S
C1382 H1369 0.930 . S
C1382 C1381 1.376 . S
C1382 C1383 1.388 . S
C1383 H1370 0.930 . S
C1383 C1382 1.388 . S
C1383 C1384 1.390 . S
C1384 C1383 1.390 . S
C1384 C1385 1.394 . S
C1384 C1390 1.465 . S
C1385 C1380 1.399 . S
C1385 C1384 1.394 . S
C1385 C1386 1.516 . S
C1386 C1385 1.516 . S
C1386 C1387 1.502 . S
C1386 C1388 1.561 . S
C1386 C1389 1.526 . S
C1387 H1371 0.959 . S
C1387 H1372 0.959 . S
C1387 H1373 0.961 . S
C1387 C1386 1.502 . S
C1388 H1374 0.960 . S
C1388 H1375 0.961 . S
C1388 H1376 0.959 . S
C1388 C1386 1.561 . S
C1389 C1386 1.526 . S
C1389 C1390 1.396 . S
C1389 C1394 1.390 . S
C1390 C1384 1.465 . S
C1390 C1389 1.396 . S
C1390 C1391 1.399 . S
C1391 H1377 0.929 . S
C1391 C1390 1.399 . S
C1391 C1392 1.385 . S
C1392 H1378 0.931 . S
C1392 C1391 1.385 . S
C1392 C1393 1.389 . S
C1393 C1392 1.389 . S
C1393 C1394 1.387 . S
C1394 H1379 0.930 . S
C1394 C1389 1.390 . S
C1394 C1393 1.387 . S
H1395 C1407 0.930 . S
H1396 C1409 0.930 . S
H1397 C1410 0.930 . S
H1398 C1414 0.959 1_556 S
H1399 C1414 0.959 . S
H1400 C1414 0.961 . S
H1401 C1415 0.971 . S
H1402 C1415 1.002 . S
H1403 C1415 0.937 1_556 S
H1404 C1418 0.929 . S
H1405 C1419 0.931 . S
H1406 C1421 0.930 1_554 S
C1407 H1395 0.930 . S
C1407 C1408 1.399 . S
C1407 C1412 1.399 . S
C1408 C1407 1.399 . S
C1408 C1409 1.376 . S
C1409 H1396 0.930 . S
C1409 C1408 1.376 . S
C1409 C1410 1.388 . S
C1410 H1397 0.930 . S
C1410 C1409 1.388 . S
C1410 C1411 1.390 . S
C1411 C1410 1.390 . S
C1411 C1412 1.394 . S
C1411 C1417 1.465 . S
C1412 C1407 1.399 . S
C1412 C1411 1.394 . S
C1412 C1413 1.516 . S
C1413 C1412 1.516 . S
C1413 C1414 1.502 1_556 S
C1413 C1415 1.534 1_556 S
C1413 C1416 1.526 . S
C1414 H1398 0.959 1_554 S
C1414 H1399 0.959 . S
C1414 H1400 0.961 . S
C1414 C1413 1.502 1_554 S
C1415 H1401 0.971 . S
C1415 H1402 1.002 . S
C1415 H1403 0.937 1_554 S
C1415 C1413 1.534 1_554 S
C1416 C1413 1.526 . S
C1416 C1417 1.396 . S
C1416 C1421 1.390 . S
C1417 C1411 1.465 . S
C1417 C1416 1.396 . S
C1417 C1418 1.399 . S
C1418 H1404 0.929 . S
C1418 C1417 1.399 . S
C1418 C1419 1.385 . S
C1419 H1405 0.931 . S
C1419 C1418 1.385 . S
C1419 C1420 1.389 . S
C1420 C1419 1.389 . S
C1420 C1421 1.387 . S
C1421 H1406 0.930 1_556 S
C1421 C1416 1.390 . S
C1421 C1420 1.387 . S
H1422 C1434 0.930 . S
H1423 C1436 0.930 . S
H1424 C1437 0.930 . S
H1425 C1441 0.959 . S
H1426 C1441 0.959 1_554 S
H1427 C1441 0.961 . S
H1428 C1442 0.960 . S
H1429 C1442 0.961 . S
H1430 C1442 0.959 . S
H1431 C1445 0.929 . S
H1432 C1446 0.931 . S
H1433 C1448 0.930 . S
C1434 H1422 0.930 . S
C1434 C1435 1.399 . S
C1434 C1439 1.399 . S
C1435 C1434 1.399 . S
C1435 C1436 1.376 . S
C1436 H1423 0.930 . S
C1436 C1435 1.376 . S
C1436 C1437 1.388 . S
C1437 H1424 0.930 . S
C1437 C1436 1.388 . S
C1437 C1438 1.390 . S
C1438 C1437 1.390 . S
C1438 C1439 1.394 . S
C1438 C1444 1.465 . S
C1439 C1434 1.399 . S
C1439 C1438 1.394 . S
C1439 C1440 1.516 . S
C1440 C1439 1.516 . S
C1440 C1441 1.502 . S
C1440 C1442 1.561 . S
C1440 C1443 1.526 . S
C1441 H1425 0.959 . S
C1441 H1426 0.959 1_556 S
C1441 H1427 0.961 . S
C1441 C1440 1.502 . S
C1442 H1428 0.960 . S
C1442 H1429 0.961 . S
C1442 H1430 0.959 . S
C1442 C1440 1.561 . S
C1443 C1440 1.526 . S
C1443 C1444 1.396 . S
C1443 C1448 1.390 . S
C1444 C1438 1.465 . S
C1444 C1443 1.396 . S
C1444 C1445 1.399 . S
C1445 H1431 0.929 . S
C1445 C1444 1.399 . S
C1445 C1446 1.385 . S
C1446 H1432 0.931 . S
C1446 C1445 1.385 . S
C1446 C1447 1.389 . S
C1447 C1446 1.389 . S
C1447 C1448 1.387 . S
C1448 H1433 0.930 . S
C1448 C1443 1.390 . S
C1448 C1447 1.387 . S
H1449 C1461 0.930 . S
H1450 C1463 0.930 . S
H1451 C1464 0.930 . S
H1452 C1468 0.959 . S
H1453 C1468 0.959 . S
H1454 C1468 0.961 . S
H1455 C1469 0.960 . S
H1456 C1469 0.961 . S
H1457 C1469 0.959 . S
H1458 C1472 0.929 . S
H1459 C1473 0.931 . S
H1460 C1475 0.930 . S
C1461 H1449 0.930 . S
C1461 C1462 1.399 . S
C1461 C1466 1.399 . S
C1462 C1461 1.399 . S
C1462 C1463 1.376 . S
C1463 H1450 0.930 . S
C1463 C1462 1.376 . S
C1463 C1464 1.388 . S
C1464 H1451 0.930 . S
C1464 C1463 1.388 . S
C1464 C1465 1.390 . S
C1465 C1464 1.390 . S
C1465 C1466 1.394 . S
C1465 C1471 1.465 . S
C1466 C1461 1.399 . S
C1466 C1465 1.394 . S
C1466 C1467 1.516 . S
C1467 C1466 1.516 . S
C1467 C1468 1.502 . S
C1467 C1469 1.561 . S
C1467 C1470 1.526 . S
C1468 H1452 0.959 . S
C1468 H1453 0.959 . S
C1468 H1454 0.961 . S
C1468 C1467 1.502 . S
C1469 H1455 0.960 . S
C1469 H1456 0.961 . S
C1469 H1457 0.959 . S
C1469 C1467 1.561 . S
C1470 C1467 1.526 . S
C1470 C1471 1.396 . S
C1470 C1475 1.390 . S
C1471 C1465 1.465 . S
C1471 C1470 1.396 . S
C1471 C1472 1.399 . S
C1472 H1458 0.929 . S
C1472 C1471 1.399 . S
C1472 C1473 1.385 . S
C1473 H1459 0.931 . S
C1473 C1472 1.385 . S
C1473 C1474 1.389 . S
C1474 C1473 1.389 . S
C1474 C1475 1.387 . S
C1475 H1460 0.930 . S
C1475 C1470 1.390 . S
C1475 C1474 1.387 . S
H1476 C1488 0.930 . S
H1477 C1490 0.930 . S
H1478 C1491 0.930 . S
H1479 C1495 0.959 . S
H1480 C1495 0.959 . S
H1481 C1495 0.961 . S
H1482 C1496 0.960 . S
H1483 C1496 0.961 . S
H1484 C1496 0.983 . S
H1485 C1499 0.929 . S
H1486 C1500 0.931 . S
H1487 C1502 0.930 . S
C1488 H1476 0.930 . S
C1488 C1489 1.399 . S
C1488 C1493 1.399 . S
C1489 C1488 1.399 . S
C1489 C1490 1.376 . S
C1490 H1477 0.930 . S
C1490 C1489 1.376 . S
C1490 C1491 1.388 . S
C1491 H1478 0.930 . S
C1491 C1490 1.388 . S
C1491 C1492 1.390 . S
C1492 C1491 1.390 . S
C1492 C1493 1.394 . S
C1492 C1498 1.465 . S
C1493 C1488 1.399 . S
C1493 C1492 1.394 . S
C1493 C1494 1.516 . S
C1494 C1493 1.516 . S
C1494 C1495 1.502 . S
C1494 C1496 1.561 . S
C1494 C1497 1.526 . S
C1495 H1479 0.959 . S
C1495 H1480 0.959 . S
C1495 H1481 0.961 . S
C1495 C1494 1.502 . S
C1496 H1482 0.960 . S
C1496 H1483 0.961 . S
C1496 H1484 0.983 . S
C1496 C1494 1.561 . S
C1497 C1494 1.526 . S
C1497 C1498 1.396 . S
C1497 C1502 1.390 . S
C1498 C1492 1.465 . S
C1498 C1497 1.396 . S
C1498 C1499 1.399 . S
C1499 H1485 0.929 . S
C1499 C1498 1.399 . S
C1499 C1500 1.385 . S
C1500 H1486 0.931 . S
C1500 C1499 1.385 . S
C1500 C1501 1.389 . S
C1501 C1500 1.389 . S
C1501 C1502 1.387 . S
C1502 H1487 0.930 . S
C1502 C1497 1.390 . S
C1502 C1501 1.387 . S
H1503 C1515 0.930 . S
H1504 C1517 0.930 . S
H1505 C1518 0.930 . S
H1506 C1522 0.959 . S
H1507 C1522 0.959 . S
H1508 C1522 0.961 . S
H1509 C1523 0.960 . S
H1510 C1523 0.961 . S
H1511 C1523 0.959 . S
H1512 C1526 0.929 . S
H1513 C1527 0.931 . S
H1514 C1529 0.930 . S
C1515 H1503 0.930 . S
C1515 C1516 1.399 . S
C1515 C1520 1.399 . S
C1516 C1515 1.399 . S
C1516 C1517 1.376 . S
C1517 H1504 0.930 . S
C1517 C1516 1.376 . S
C1517 C1518 1.388 . S
C1518 H1505 0.930 . S
C1518 C1517 1.388 . S
C1518 C1519 1.390 . S
C1519 C1518 1.390 . S
C1519 C1520 1.394 . S
C1519 C1525 1.465 . S
C1520 C1515 1.399 . S
C1520 C1519 1.394 . S
C1520 C1521 1.516 . S
C1521 C1520 1.516 . S
C1521 C1522 1.502 . S
C1521 C1523 1.561 . S
C1521 C1524 1.526 . S
C1522 H1506 0.959 . S
C1522 H1507 0.959 . S
C1522 H1508 0.961 . S
C1522 C1521 1.502 . S
C1523 H1509 0.960 . S
C1523 H1510 0.961 . S
C1523 H1511 0.959 . S
C1523 C1521 1.561 . S
C1524 C1521 1.526 . S
C1524 C1525 1.396 . S
C1524 C1529 1.390 . S
C1525 C1519 1.465 . S
C1525 C1524 1.396 . S
C1525 C1526 1.399 . S
C1526 H1512 0.929 . S
C1526 C1525 1.399 . S
C1526 C1527 1.385 . S
C1527 H1513 0.931 . S
C1527 C1526 1.385 . S
C1527 C1528 1.389 . S
C1528 C1527 1.389 . S
C1528 C1529 1.387 . S
C1529 H1514 0.930 . S
C1529 C1524 1.390 . S
C1529 C1528 1.387 . S
H1530 C1542 0.930 . S
H1531 C1544 0.930 . S
H1532 C1545 0.930 . S
H1533 C1549 0.959 . S
H1534 C1549 0.959 . S
H1535 C1549 0.961 . S
H1536 C1550 0.960 . S
H1537 C1550 0.961 . S
H1538 C1550 0.959 . S
H1539 C1553 0.929 . S
H1540 C1554 0.931 . S
H1541 C1556 0.930 . S
C1542 H1530 0.930 . S
C1542 C1543 1.399 . S
C1542 C1547 1.399 . S
C1543 C1542 1.399 . S
C1543 C1544 1.376 . S
C1544 H1531 0.930 . S
C1544 C1543 1.376 . S
C1544 C1545 1.388 . S
C1545 H1532 0.930 . S
C1545 C1544 1.388 . S
C1545 C1546 1.390 . S
C1546 C1545 1.390 . S
C1546 C1547 1.394 . S
C1546 C1552 1.465 . S
C1547 C1542 1.399 . S
C1547 C1546 1.394 . S
C1547 C1548 1.516 . S
C1548 C1547 1.516 . S
C1548 C1549 1.502 . S
C1548 C1550 1.561 . S
C1548 C1551 1.526 . S
C1549 H1533 0.959 . S
C1549 H1534 0.959 . S
C1549 H1535 0.961 . S
C1549 C1548 1.502 . S
C1550 H1536 0.960 . S
C1550 H1537 0.961 . S
C1550 H1538 0.959 . S
C1550 C1548 1.561 . S
C1551 C1548 1.526 . S
C1551 C1552 1.396 . S
C1551 C1556 1.390 . S
C1552 C1546 1.465 . S
C1552 C1551 1.396 . S
C1552 C1553 1.399 . S
C1553 H1539 0.929 . S
C1553 C1552 1.399 . S
C1553 C1554 1.385 . S
C1554 H1540 0.931 . S
C1554 C1553 1.385 . S
C1554 C1555 1.389 . S
C1555 C1554 1.389 . S
C1555 C1556 1.387 . S
C1556 H1541 0.930 . S
C1556 C1551 1.390 . S
C1556 C1555 1.387 . S
H1557 C1569 0.930 . S
H1558 C1571 0.930 . S
H1559 C1572 0.930 . S
H1560 C1576 0.959 . S
H1561 C1576 0.959 . S
H1562 C1576 0.961 . S
H1563 C1577 0.960 . S
H1564 C1577 0.961 . S
H1565 C1577 0.959 . S
H1566 C1580 0.929 . S
H1567 C1581 0.931 . S
H1568 C1583 0.930 . S
C1569 H1557 0.930 . S
C1569 C1570 1.399 . S
C1569 C1574 1.399 . S
C1570 C1569 1.399 . S
C1570 C1571 1.376 . S
C1571 H1558 0.930 . S
C1571 C1570 1.376 . S
C1571 C1572 1.388 . S
C1572 H1559 0.930 . S
C1572 C1571 1.388 . S
C1572 C1573 1.390 . S
C1573 C1572 1.390 . S
C1573 C1574 1.394 . S
C1573 C1579 1.465 . S
C1574 C1569 1.399 . S
C1574 C1573 1.394 . S
C1574 C1575 1.516 . S
C1575 C1574 1.516 . S
C1575 C1576 1.502 1_554 S
C1575 C1577 1.561 . S
C1575 C1578 1.526 . S
C1576 H1560 0.959 . S
C1576 H1561 0.959 . S
C1576 H1562 0.961 . S
C1576 C1575 1.502 1_556 S
C1577 H1563 0.960 . S
C1577 H1564 0.961 . S
C1577 H1565 0.959 . S
C1577 C1575 1.561 . S
C1578 C1575 1.526 . S
C1578 C1579 1.396 . S
C1578 C1583 1.390 . S
C1579 C1573 1.465 . S
C1579 C1578 1.396 . S
C1579 C1580 1.399 . S
C1580 H1566 0.929 . S
C1580 C1579 1.399 . S
C1580 C1581 1.385 . S
C1581 H1567 0.931 . S
C1581 C1580 1.385 . S
C1581 C1582 1.389 . S
C1582 C1581 1.389 . S
C1582 C1583 1.387 . S
C1583 H1568 0.930 . S
C1583 C1578 1.390 . S
C1583 C1582 1.387 . S
H1584 C1596 0.930 . S
H1585 C1598 0.930 . S
H1586 C1599 0.930 . S
H1587 C1603 0.959 . S
H1588 C1603 0.959 . S
H1589 C1603 0.961 1_655 S
H1590 C1604 0.960 1_655 S
H1591 C1604 0.961 . S
H1592 C1604 0.959 . S
H1593 C1607 0.929 . S
H1594 C1608 0.931 . S
H1595 C1610 0.930 . S
C1596 H1584 0.930 . S
C1596 C1597 1.399 . S
C1596 C1601 1.399 1_655 S
C1597 C1596 1.399 . S
C1597 C1598 1.376 . S
C1598 H1585 0.930 . S
C1598 C1597 1.376 . S
C1598 C1599 1.388 1_655 S
C1599 H1586 0.930 . S
C1599 C1598 1.388 1_455 S
C1599 C1600 1.390 . S
C1600 C1599 1.390 . S
C1600 C1601 1.394 . S
C1600 C1606 1.465 . S
C1601 C1596 1.399 1_455 S
C1601 C1600 1.394 . S
C1601 C1602 1.516 . S
C1602 C1601 1.516 . S
C1602 C1603 1.502 . S
C1602 C1604 1.561 . S
C1602 C1605 1.526 . S
C1603 H1587 0.959 . S
C1603 H1588 0.959 . S
C1603 H1589 0.961 1_455 S
C1603 C1602 1.502 . S
C1604 H1590 0.960 1_455 S
C1604 H1591 0.961 . S
C1604 H1592 0.959 . S
C1604 C1602 1.561 . S
C1605 C1602 1.526 . S
C1605 C1606 1.396 . S
C1605 C1610 1.390 . S
C1606 C1600 1.465 . S
C1606 C1605 1.396 . S
C1606 C1607 1.399 . S
C1607 H1593 0.929 . S
C1607 C1606 1.399 . S
C1607 C1608 1.385 . S
C1608 H1594 0.931 . S
C1608 C1607 1.385 . S
C1608 C1609 1.389 . S
C1609 C1608 1.389 . S
C1609 C1610 1.387 . S
C1610 H1595 0.930 . S
C1610 C1605 1.390 . S
C1610 C1609 1.387 . S
H1611 C1623 0.930 . S
H1612 C1625 0.930 . S
H1613 C1626 0.930 . S
H1614 C1630 0.959 . S
H1615 C1630 0.959 . S
H1616 C1630 0.961 . S
H1617 C1631 0.960 . S
H1618 C1631 0.961 . S
H1619 C1631 0.959 . S
H1620 C1634 0.929 . S
H1621 C1635 0.931 . S
H1622 C1637 0.930 . S
C1623 H1611 0.930 . S
C1623 C1624 1.399 . S
C1623 C1628 1.399 . S
C1624 C1623 1.399 . S
C1624 C1625 1.376 . S
C1625 H1612 0.930 . S
C1625 C1624 1.376 . S
C1625 C1626 1.388 . S
C1626 H1613 0.930 . S
C1626 C1625 1.388 . S
C1626 C1627 1.390 . S
C1627 C1626 1.390 . S
C1627 C1628 1.394 . S
C1627 C1633 1.465 . S
C1628 C1623 1.399 . S
C1628 C1627 1.394 . S
C1628 C1629 1.516 . S
C1629 C1628 1.516 . S
C1629 C1630 1.502 . S
C1629 C1631 1.561 . S
C1629 C1632 1.526 . S
C1630 H1614 0.959 . S
C1630 H1615 0.959 . S
C1630 H1616 0.961 . S
C1630 C1629 1.502 . S
C1631 H1617 0.960 . S
C1631 H1618 0.961 . S
C1631 H1619 0.959 . S
C1631 C1629 1.561 . S
C1632 C1629 1.526 . S
C1632 C1633 1.396 . S
C1632 C1637 1.390 . S
C1633 C1627 1.465 . S
C1633 C1632 1.396 . S
C1633 C1634 1.399 . S
C1634 H1620 0.929 . S
C1634 C1633 1.399 . S
C1634 C1635 1.385 . S
C1635 H1621 0.931 . S
C1635 C1634 1.385 . S
C1635 C1636 1.389 . S
C1636 C1635 1.389 . S
C1636 C1637 1.387 . S
C1637 H1622 0.930 . S
C1637 C1632 1.390 . S
C1637 C1636 1.387 . S
H1638 C1650 0.930 . S
H1639 C1652 0.930 . S
H1640 C1653 0.930 . S
H1641 C1657 0.959 . S
H1642 C1657 0.959 . S
H1643 C1657 0.961 . S
H1644 C1658 0.960 . S
H1645 C1658 0.961 . S
H1646 C1658 0.959 . S
H1647 C1661 0.929 . S
H1648 C1662 0.931 . S
H1649 C1664 0.930 . S
C1650 H1638 0.930 . S
C1650 C1651 1.399 . S
C1650 C1655 1.399 1_545 S
C1651 C1650 1.399 . S
C1651 C1652 1.376 . S
C1652 H1639 0.930 . S
C1652 C1651 1.376 . S
C1652 C1653 1.388 1_545 S
C1653 H1640 0.930 . S
C1653 C1652 1.388 1_565 S
C1653 C1654 1.390 . S
C1654 C1653 1.390 . S
C1654 C1655 1.394 . S
C1654 C1660 1.465 . S
C1655 C1650 1.399 1_565 S
C1655 C1654 1.394 . S
C1655 C1656 1.516 . S
C1656 C1655 1.516 . S
C1656 C1657 1.502 . S
C1656 C1658 1.561 . S
C1656 C1659 1.526 . S
C1657 H1641 0.959 . S
C1657 H1642 0.959 . S
C1657 H1643 0.961 . S
C1657 C1656 1.502 . S
C1658 H1644 0.960 . S
C1658 H1645 0.961 . S
C1658 H1646 0.959 . S
C1658 C1656 1.561 . S
C1659 C1656 1.526 . S
C1659 C1660 1.396 . S
C1659 C1664 1.390 . S
C1660 C1654 1.465 . S
C1660 C1659 1.396 . S
C1660 C1661 1.399 . S
C1661 H1647 0.929 . S
C1661 C1660 1.399 . S
C1661 C1662 1.385 . S
C1662 H1648 0.931 . S
C1662 C1661 1.385 . S
C1662 C1663 1.389 . S
C1663 C1662 1.389 . S
C1663 C1664 1.387 . S
C1664 H1649 0.930 . S
C1664 C1659 1.390 . S
C1664 C1663 1.387 . S
H1665 C1677 0.930 . S
H1666 C1679 0.930 . S
H1667 C1680 0.930 . S
H1668 C1684 0.959 . S
H1669 C1684 0.959 . S
H1670 C1684 0.961 . S
H1671 C1685 0.960 . S
H1672 C1685 0.961 . S
H1673 C1685 0.959 . S
H1674 C1688 0.929 . S
H1675 C1689 0.931 . S
H1676 C1691 0.930 . S
C1677 H1665 0.930 . S
C1677 C1678 1.399 . S
C1677 C1682 1.399 . S
C1678 C1677 1.399 . S
C1678 C1679 1.376 . S
C1679 H1666 0.930 . S
C1679 C1678 1.376 . S
C1679 C1680 1.388 . S
C1680 H1667 0.930 . S
C1680 C1679 1.388 . S
C1680 C1681 1.390 . S
C1681 C1680 1.390 . S
C1681 C1682 1.394 . S
C1681 C1687 1.465 . S
C1682 C1677 1.399 . S
C1682 C1681 1.394 . S
C1682 C1683 1.516 . S
C1683 C1682 1.516 . S
C1683 C1684 1.502 . S
C1683 C1685 1.561 . S
C1683 C1686 1.526 . S
C1684 H1668 0.959 . S
C1684 H1669 0.959 . S
C1684 H1670 0.961 . S
C1684 C1683 1.502 . S
C1685 H1671 0.960 . S
C1685 H1672 0.961 . S
C1685 H1673 0.959 . S
C1685 C1683 1.561 . S
C1686 C1683 1.526 . S
C1686 C1687 1.396 . S
C1686 C1691 1.390 . S
C1687 C1681 1.465 . S
C1687 C1686 1.396 . S
C1687 C1688 1.399 . S
C1688 H1674 0.929 . S
C1688 C1687 1.399 . S
C1688 C1689 1.385 . S
C1689 H1675 0.931 . S
C1689 C1688 1.385 . S
C1689 C1690 1.389 . S
C1690 C1689 1.389 . S
C1690 C1691 1.387 . S
C1691 H1676 0.930 . S
C1691 C1686 1.390 . S
C1691 C1690 1.387 . S
H1692 C1704 0.930 . S
H1693 C1706 0.930 . S
H1694 C1707 0.930 . S
H1695 C1711 0.959 . S
H1696 C1711 0.959 . S
H1697 C1711 0.961 . S
H1698 C1712 0.960 . S
H1699 C1712 0.961 . S
H1700 C1712 0.959 . S
H1701 C1715 0.929 . S
H1702 C1716 0.931 . S
H1703 C1718 0.930 . S
C1704 H1692 0.930 . S
C1704 C1705 1.399 . S
C1704 C1709 1.399 . S
C1705 C1704 1.399 . S
C1705 C1706 1.376 . S
C1706 H1693 0.930 . S
C1706 C1705 1.376 . S
C1706 C1707 1.388 . S
C1707 H1694 0.930 . S
C1707 C1706 1.388 . S
C1707 C1708 1.390 . S
C1708 C1707 1.390 . S
C1708 C1709 1.394 . S
C1708 C1714 1.465 . S
C1709 C1704 1.399 . S
C1709 C1708 1.394 . S
C1709 C1710 1.516 . S
C1710 C1709 1.516 . S
C1710 C1711 1.502 . S
C1710 C1712 1.561 . S
C1710 C1713 1.526 . S
C1711 H1695 0.959 . S
C1711 H1696 0.959 . S
C1711 H1697 0.961 . S
C1711 C1710 1.502 . S
C1712 H1698 0.960 . S
C1712 H1699 0.961 . S
C1712 H1700 0.959 . S
C1712 C1710 1.561 . S
C1713 C1710 1.526 . S
C1713 C1714 1.396 . S
C1713 C1718 1.390 . S
C1714 C1708 1.465 . S
C1714 C1713 1.396 . S
C1714 C1715 1.399 . S
C1715 H1701 0.929 . S
C1715 C1714 1.399 . S
C1715 C1716 1.385 . S
C1716 H1702 0.931 . S
C1716 C1715 1.385 . S
C1716 C1717 1.389 . S
C1717 C1716 1.389 . S
C1717 C1718 1.387 . S
C1718 H1703 0.930 . S
C1718 C1713 1.390 . S
C1718 C1717 1.387 . S
H1719 C1731 0.930 . S
H1720 C1733 0.930 . S
H1721 C1734 0.930 . S
H1722 C1738 0.959 . S
H1723 C1738 0.959 . S
H1724 C1738 0.961 . S
H1725 C1739 0.960 . S
H1726 C1739 0.961 . S
H1727 C1739 0.959 . S
H1728 C1742 0.929 . S
H1729 C1743 0.931 . S
H1730 C1745 0.930 . S
C1731 H1719 0.930 . S
C1731 C1732 1.399 . S
C1731 C1736 1.399 . S
C1732 C1731 1.399 . S
C1732 C1733 1.376 . S
C1733 H1720 0.930 . S
C1733 C1732 1.376 . S
C1733 C1734 1.388 . S
C1734 H1721 0.930 . S
C1734 C1733 1.388 . S
C1734 C1735 1.390 . S
C1735 C1734 1.390 . S
C1735 C1736 1.394 . S
C1735 C1741 1.465 . S
C1736 C1731 1.399 . S
C1736 C1735 1.394 . S
C1736 C1737 1.516 . S
C1737 C1736 1.516 . S
C1737 C1738 1.502 . S
C1737 C1739 1.561 . S
C1737 C1740 1.526 . S
C1738 H1722 0.959 . S
C1738 H1723 0.959 . S
C1738 H1724 0.961 . S
C1738 C1737 1.502 . S
C1739 H1725 0.960 . S
C1739 H1726 0.961 . S
C1739 H1727 0.959 . S
C1739 C1737 1.561 . S
C1740 C1737 1.526 . S
C1740 C1741 1.396 . S
C1740 C1745 1.390 . S
C1741 C1735 1.465 . S
C1741 C1740 1.396 . S
C1741 C1742 1.399 . S
C1742 H1728 0.929 . S
C1742 C1741 1.399 . S
C1742 C1743 1.385 . S
C1743 H1729 0.931 . S
C1743 C1742 1.385 . S
C1743 C1744 1.389 . S
C1744 C1743 1.389 . S
C1744 C1745 1.387 . S
C1745 H1730 0.930 . S
C1745 C1740 1.390 . S
C1745 C1744 1.387 . S
H1746 C1758 0.930 . S
H1747 C1760 0.930 . S
H1748 C1761 0.930 . S
H1749 C1765 0.959 . S
H1750 C1765 0.959 . S
H1751 C1765 0.961 . S
H1752 C1766 0.960 . S
H1753 C1766 0.961 . S
H1754 C1766 0.959 . S
H1755 C1769 0.929 . S
H1756 C1770 0.931 . S
H1757 C1772 0.930 . S
C1758 H1746 0.930 . S
C1758 C1759 1.399 . S
C1758 C1763 1.399 . S
C1759 C1758 1.399 . S
C1759 C1760 1.376 . S
C1760 H1747 0.930 . S
C1760 C1759 1.376 . S
C1760 C1761 1.388 . S
C1761 H1748 0.930 . S
C1761 C1760 1.388 . S
C1761 C1762 1.390 . S
C1762 C1761 1.390 . S
C1762 C1763 1.394 . S
C1762 C1768 1.465 . S
C1763 C1758 1.399 . S
C1763 C1762 1.394 . S
C1763 C1764 1.516 . S
C1764 C1763 1.516 . S
C1764 C1765 1.502 . S
C1764 C1766 1.561 . S
C1764 C1767 1.526 . S
C1765 H1749 0.959 . S
C1765 H1750 0.959 . S
C1765 H1751 0.961 . S
C1765 C1764 1.502 . S
C1766 H1752 0.960 . S
C1766 H1753 0.961 . S
C1766 H1754 0.959 . S
C1766 C1764 1.561 . S
C1767 C1764 1.526 . S
C1767 C1768 1.396 . S
C1767 C1772 1.390 . S
C1768 C1762 1.465 . S
C1768 C1767 1.396 . S
C1768 C1769 1.399 . S
C1769 H1755 0.929 . S
C1769 C1768 1.399 . S
C1769 C1770 1.385 . S
C1770 H1756 0.931 . S
C1770 C1769 1.385 . S
C1770 C1771 1.389 . S
C1771 C1770 1.389 . S
C1771 C1772 1.387 . S
C1772 H1757 0.930 . S
C1772 C1767 1.390 . S
C1772 C1771 1.387 . S
H1773 C1785 0.930 . S
H1774 C1787 0.930 . S
H1775 C1788 0.930 . S
H1776 C1792 0.959 . S
H1777 C1792 0.959 . S
H1778 C1792 0.961 . S
H1779 C1793 0.960 . S
H1780 C1793 0.961 . S
H1781 C1793 0.959 . S
H1782 C1796 0.929 . S
H1783 C1797 0.931 . S
H1784 C1799 0.930 . S
C1785 H1773 0.930 . S
C1785 C1786 1.399 . S
C1785 C1790 1.399 . S
C1786 C1785 1.399 . S
C1786 C1787 1.376 . S
C1787 H1774 0.930 . S
C1787 C1786 1.376 . S
C1787 C1788 1.388 . S
C1788 H1775 0.930 . S
C1788 C1787 1.388 . S
C1788 C1789 1.390 . S
C1789 C1788 1.390 . S
C1789 C1790 1.394 . S
C1789 C1795 1.465 . S
C1790 C1785 1.399 . S
C1790 C1789 1.394 . S
C1790 C1791 1.516 . S
C1791 C1790 1.516 . S
C1791 C1792 1.502 . S
C1791 C1793 1.561 . S
C1791 C1794 1.526 . S
C1792 H1776 0.959 . S
C1792 H1777 0.959 . S
C1792 H1778 0.961 . S
C1792 C1791 1.502 . S
C1793 H1779 0.960 . S
C1793 H1780 0.961 . S
C1793 H1781 0.959 . S
C1793 C1791 1.561 . S
C1794 C1791 1.526 . S
C1794 C1795 1.396 . S
C1794 C1799 1.390 . S
C1795 C1789 1.465 . S
C1795 C1794 1.396 . S
C1795 C1796 1.399 . S
C1796 H1782 0.929 . S
C1796 C1795 1.399 . S
C1796 C1797 1.385 . S
C1797 H1783 0.931 . S
C1797 C1796 1.385 . S
C1797 C1798 1.389 . S
C1798 C1797 1.389 . S
C1798 C1799 1.387 . S
C1799 H1784 0.930 . S
C1799 C1794 1.390 . S
C1799 C1798 1.387 . S
H1800 C1812 0.930 . S
H1801 C1814 0.930 . S
H1802 C1815 0.930 . S
H1803 C1819 0.959 . S
H1804 C1819 0.959 . S
H1805 C1819 0.961 . S
H1806 C1820 0.960 . S
H1807 C1820 0.961 . S
H1808 C1820 0.959 . S
H1809 C1823 0.929 . S
H1810 C1824 0.931 . S
H1811 C1826 0.930 . S
C1812 H1800 0.930 . S
C1812 C1813 1.399 . S
C1812 C1817 1.399 . S
C1813 C1812 1.399 . S
C1813 C1814 1.376 . S
C1814 H1801 0.930 . S
C1814 C1813 1.376 . S
C1814 C1815 1.388 . S
C1815 H1802 0.930 . S
C1815 C1814 1.388 . S
C1815 C1816 1.390 . S
C1816 C1815 1.390 . S
C1816 C1817 1.394 . S
C1816 C1822 1.465 . S
C1817 C1812 1.399 . S
C1817 C1816 1.394 . S
C1817 C1818 1.516 . S
C1818 C1817 1.516 . S
C1818 C1819 1.502 . S
C1818 C1820 1.561 . S
C1818 C1821 1.526 . S
C1819 H1803 0.959 . S
C1819 H1804 0.959 . S
C1819 H1805 0.961 . S
C1819 C1818 1.502 . S
C1820 H1806 0.960 . S
C1820 H1807 0.961 . S
C1820 H1808 0.959 . S
C1820 C1818 1.561 . S
C1821 C1818 1.526 . S
C1821 C1822 1.396 . S
C1821 C1826 1.390 . S
C1822 C1816 1.465 . S
C1822 C1821 1.396 . S
C1822 C1823 1.399 . S
C1823 H1809 0.929 . S
C1823 C1822 1.399 . S
C1823 C1824 1.385 . S
C1824 H1810 0.931 . S
C1824 C1823 1.385 . S
C1824 C1825 1.389 . S
C1825 C1824 1.389 . S
C1825 C1826 1.387 . S
C1826 H1811 0.930 . S
C1826 C1821 1.390 . S
C1826 C1825 1.387 . S
H1827 C1839 0.930 . S
H1828 C1841 0.930 . S
H1829 C1842 0.930 . S
H1830 C1846 0.959 . S
H1831 C1846 0.959 . S
H1832 C1846 0.961 . S
H1833 C1847 0.960 . S
H1834 C1847 0.961 . S
H1835 C1847 0.959 . S
H1836 C1850 0.929 . S
H1837 C1851 0.931 . S
H1838 C1853 0.930 . S
C1839 H1827 0.930 . S
C1839 C1840 1.399 . S
C1839 C1844 1.399 1_545 S
C1840 C1839 1.399 . S
C1840 C1841 1.376 . S
C1841 H1828 0.930 . S
C1841 C1840 1.376 . S
C1841 C1842 1.388 1_545 S
C1842 H1829 0.930 . S
C1842 C1841 1.388 1_565 S
C1842 C1843 1.390 . S
C1843 C1842 1.390 . S
C1843 C1844 1.394 . S
C1843 C1849 1.465 . S
C1844 C1839 1.399 1_565 S
C1844 C1843 1.394 . S
C1844 C1845 1.516 . S
C1845 C1844 1.516 . S
C1845 C1846 1.502 . S
C1845 C1847 1.561 . S
C1845 C1848 1.526 . S
C1846 H1830 0.959 . S
C1846 H1831 0.959 . S
C1846 H1832 0.961 . S
C1846 C1845 1.502 . S
C1847 H1833 0.960 . S
C1847 H1834 0.961 . S
C1847 H1835 0.959 . S
C1847 C1845 1.561 . S
C1848 C1845 1.526 . S
C1848 C1849 1.396 . S
C1848 C1853 1.390 . S
C1849 C1843 1.465 . S
C1849 C1848 1.396 . S
C1849 C1850 1.399 . S
C1850 H1836 0.929 . S
C1850 C1849 1.399 . S
C1850 C1851 1.385 . S
C1851 H1837 0.931 . S
C1851 C1850 1.385 . S
C1851 C1852 1.389 . S
C1852 C1851 1.389 . S
C1852 C1853 1.387 . S
C1853 H1838 0.930 . S
C1853 C1848 1.390 . S
C1853 C1852 1.387 . S
H1854 C1866 0.930 . S
H1855 C1868 0.930 . S
H1856 C1869 0.930 . S
H1857 C1873 0.959 . S
H1858 C1873 0.959 . S
H1859 C1873 0.961 . S
H1860 C1874 0.960 . S
H1861 C1874 0.961 . S
H1862 C1874 0.959 . S
H1863 C1877 0.929 . S
H1864 C1878 0.931 . S
H1865 C1880 0.930 . S
C1866 H1854 0.930 . S
C1866 C1867 1.399 . S
C1866 C1871 1.399 1_655 S
C1867 C1866 1.399 . S
C1867 C1868 1.376 . S
C1868 H1855 0.930 . S
C1868 C1867 1.376 . S
C1868 C1869 1.388 1_655 S
C1869 H1856 0.930 . S
C1869 C1868 1.388 1_455 S
C1869 C1870 1.390 . S
C1870 C1869 1.390 . S
C1870 C1871 1.394 . S
C1870 C1876 1.465 . S
C1871 C1866 1.399 1_455 S
C1871 C1870 1.394 . S
C1871 C1872 1.516 . S
C1872 C1871 1.516 . S
C1872 C1873 1.502 . S
C1872 C1874 1.561 . S
C1872 C1875 1.526 . S
C1873 H1857 0.959 . S
C1873 H1858 0.959 . S
C1873 H1859 0.961 . S
C1873 C1872 1.502 . S
C1874 H1860 0.960 . S
C1874 H1861 0.961 . S
C1874 H1862 0.959 . S
C1874 C1872 1.561 . S
C1875 C1872 1.526 . S
C1875 C1876 1.396 . S
C1875 C1880 1.390 . S
C1876 C1870 1.465 . S
C1876 C1875 1.396 . S
C1876 C1877 1.399 . S
C1877 H1863 0.929 . S
C1877 C1876 1.399 . S
C1877 C1878 1.385 . S
C1878 H1864 0.931 . S
C1878 C1877 1.385 . S
C1878 C1879 1.389 . S
C1879 C1878 1.389 . S
C1879 C1880 1.387 . S
C1880 H1865 0.930 . S
C1880 C1875 1.390 . S
C1880 C1879 1.387 . S
H1881 C1893 0.930 . S
H1882 C1895 0.930 . S
H1883 C1896 0.930 . S
H1884 C1900 0.959 . S
H1885 C1900 0.959 . S
H1886 C1900 0.961 . S
H1887 C1901 0.960 . S
H1888 C1901 0.961 . S
H1889 C1901 0.959 . S
H1890 C1904 0.929 . S
H1891 C1905 0.931 . S
H1892 C1907 0.930 . S
C1893 H1881 0.930 . S
C1893 C1894 1.399 . S
C1893 C1898 1.399 . S
C1894 C1893 1.399 . S
C1894 C1895 1.376 . S
C1895 H1882 0.930 . S
C1895 C1894 1.376 . S
C1895 C1896 1.388 . S
C1896 H1883 0.930 . S
C1896 C1895 1.388 . S
C1896 C1897 1.390 . S
C1897 C1896 1.390 . S
C1897 C1898 1.394 . S
C1897 C1903 1.465 . S
C1898 C1893 1.399 . S
C1898 C1897 1.394 . S
C1898 C1899 1.516 . S
C1899 C1898 1.516 . S
C1899 C1900 1.502 . S
C1899 C1901 1.561 . S
C1899 C1902 1.526 . S
C1900 H1884 0.959 . S
C1900 H1885 0.959 . S
C1900 H1886 0.961 . S
C1900 C1899 1.502 . S
C1901 H1887 0.960 . S
C1901 H1888 0.961 . S
C1901 H1889 0.959 . S
C1901 C1899 1.561 . S
C1902 C1899 1.526 . S
C1902 C1903 1.396 . S
C1902 C1907 1.390 . S
C1903 C1897 1.465 . S
C1903 C1902 1.396 . S
C1903 C1904 1.399 . S
C1904 H1890 0.929 . S
C1904 C1903 1.399 . S
C1904 C1905 1.385 . S
C1905 H1891 0.931 . S
C1905 C1904 1.385 . S
C1905 C1906 1.389 . S
C1906 C1905 1.389 . S
C1906 C1907 1.387 . S
C1907 H1892 0.930 . S
C1907 C1902 1.390 . S
C1907 C1906 1.387 . S
H1908 C1920 0.930 . S
H1909 C1922 0.930 . S
H1910 C1923 0.930 . S
H1911 C1927 0.959 . S
H1912 C1927 0.959 . S
H1913 C1927 0.961 . S
H1914 C1928 0.960 . S
H1915 C1928 0.961 . S
H1916 C1928 0.959 . S
H1917 C1931 0.929 . S
H1918 C1932 0.931 . S
H1919 C1934 0.930 . S
C1920 H1908 0.930 . S
C1920 C1921 1.399 . S
C1920 C1925 1.399 . S
C1921 C1920 1.399 . S
C1921 C1922 1.376 . S
C1922 H1909 0.930 . S
C1922 C1921 1.376 . S
C1922 C1923 1.388 . S
C1923 H1910 0.930 . S
C1923 C1922 1.388 . S
C1923 C1924 1.390 . S
C1924 C1923 1.390 . S
C1924 C1925 1.394 . S
C1924 C1930 1.465 . S
C1925 C1920 1.399 . S
C1925 C1924 1.394 . S
C1925 C1926 1.516 . S
C1926 C1925 1.516 . S
C1926 C1927 1.502 . S
C1926 C1928 1.561 . S
C1926 C1929 1.526 . S
C1927 H1911 0.959 . S
C1927 H1912 0.959 . S
C1927 H1913 0.961 . S
C1927 C1926 1.502 . S
C1928 H1914 0.960 . S
C1928 H1915 0.961 . S
C1928 H1916 0.959 . S
C1928 C1926 1.561 . S
C1929 C1926 1.526 . S
C1929 C1930 1.396 . S
C1929 C1934 1.390 . S
C1930 C1924 1.465 . S
C1930 C1929 1.396 . S
C1930 C1931 1.399 . S
C1931 H1917 0.929 . S
C1931 C1930 1.399 . S
C1931 C1932 1.385 . S
C1932 H1918 0.931 . S
C1932 C1931 1.385 . S
C1932 C1933 1.389 . S
C1933 C1932 1.389 . S
C1933 C1934 1.387 . S
C1934 H1919 0.930 . S
C1934 C1929 1.390 . S
C1934 C1933 1.387 . S
H1935 C1947 0.930 . S
H1936 C1949 0.930 . S
H1937 C1950 0.930 . S
H1938 C1954 0.959 . S
H1939 C1954 0.959 . S
H1940 C1954 0.961 . S
H1941 C1955 0.960 . S
H1942 C1955 0.961 . S
H1943 C1955 0.959 . S
H1944 C1958 0.929 . S
H1945 C1959 0.931 . S
H1946 C1961 0.930 . S
C1947 H1935 0.930 . S
C1947 C1948 1.399 . S
C1947 C1952 1.399 . S
C1948 C1947 1.399 . S
C1948 C1949 1.376 . S
C1949 H1936 0.930 . S
C1949 C1948 1.376 . S
C1949 C1950 1.388 . S
C1950 H1937 0.930 . S
C1950 C1949 1.388 . S
C1950 C1951 1.390 . S
C1951 C1950 1.390 . S
C1951 C1952 1.394 . S
C1951 C1957 1.465 . S
C1952 C1947 1.399 . S
C1952 C1951 1.394 . S
C1952 C1953 1.516 . S
C1953 C1952 1.516 . S
C1953 C1954 1.502 . S
C1953 C1955 1.561 . S
C1953 C1956 1.526 . S
C1954 H1938 0.959 . S
C1954 H1939 0.959 . S
C1954 H1940 0.961 . S
C1954 C1953 1.502 . S
C1955 H1941 0.960 . S
C1955 H1942 0.961 . S
C1955 H1943 0.959 . S
C1955 C1953 1.561 . S
C1956 C1953 1.526 . S
C1956 C1957 1.396 . S
C1956 C1961 1.390 . S
C1957 C1951 1.465 . S
C1957 C1956 1.396 . S
C1957 C1958 1.399 . S
C1958 H1944 0.929 . S
C1958 C1957 1.399 . S
C1958 C1959 1.385 . S
C1959 H1945 0.931 . S
C1959 C1958 1.385 . S
C1959 C1960 1.389 . S
C1960 C1959 1.389 . S
C1960 C1961 1.387 . S
C1961 H1946 0.930 . S
C1961 C1956 1.390 . S
C1961 C1960 1.387 . S
H1962 C1974 0.930 . S
H1963 C1976 0.930 . S
H1964 C1977 0.930 . S
H1965 C1981 0.959 . S
H1966 C1981 0.959 . S
H1967 C1981 0.961 . S
H1968 C1982 0.960 . S
H1969 C1982 0.961 . S
H1970 C1982 0.959 . S
H1971 C1985 0.929 . S
H1972 C1986 0.931 . S
H1973 C1988 0.930 . S
C1974 H1962 0.930 . S
C1974 C1975 1.399 . S
C1974 C1979 1.399 . S
C1975 C1974 1.399 . S
C1975 C1976 1.376 . S
C1976 H1963 0.930 . S
C1976 C1975 1.376 . S
C1976 C1977 1.388 . S
C1977 H1964 0.930 . S
C1977 C1976 1.388 . S
C1977 C1978 1.390 . S
C1978 C1977 1.390 . S
C1978 C1979 1.394 . S
C1978 C1984 1.465 . S
C1979 C1974 1.399 . S
C1979 C1978 1.394 . S
C1979 C1980 1.516 . S
C1980 C1979 1.516 . S
C1980 C1981 1.502 . S
C1980 C1982 1.561 . S
C1980 C1983 1.526 . S
C1981 H1965 0.959 . S
C1981 H1966 0.959 . S
C1981 H1967 0.961 . S
C1981 C1980 1.502 . S
C1982 H1968 0.960 . S
C1982 H1969 0.961 . S
C1982 H1970 0.959 . S
C1982 C1980 1.561 . S
C1983 C1980 1.526 . S
C1983 C1984 1.396 . S
C1983 C1988 1.390 . S
C1984 C1978 1.465 . S
C1984 C1983 1.396 . S
C1984 C1985 1.399 . S
C1985 H1971 0.929 . S
C1985 C1984 1.399 . S
C1985 C1986 1.385 . S
C1986 H1972 0.931 . S
C1986 C1985 1.385 . S
C1986 C1987 1.389 . S
C1987 C1986 1.389 . S
C1987 C1988 1.387 . S
C1988 H1973 0.930 . S
C1988 C1983 1.390 . S
C1988 C1987 1.387 . S
H1989 C2001 0.930 . S
H1990 C2003 0.930 . S
H1991 C2004 0.930 . S
H1992 C2008 0.959 . S
H1993 C2008 0.959 . S
H1994 C2008 0.961 . S
H1995 C2009 0.960 . S
H1996 C2009 0.961 . S
H1997 C2009 0.959 . S
H1998 C2012 0.929 . S
H1999 C2013 0.931 . S
H2000 C2015 0.930 . S
C2001 H1989 0.930 . S
C2001 C2002 1.399 . S
C2001 C2006 1.399 1_565 S
C2002 C2001 1.399 . S
C2002 C2003 1.376 . S
C2003 H1990 0.930 . S
C2003 C2002 1.376 . S
C2003 C2004 1.388 1_565 S
C2004 H1991 0.930 . S
C2004 C2003 1.388 1_545 S
C2004 C2005 1.390 . S
C2005 C2004 1.390 . S
C2005 C2006 1.394 . S
C2005 C2011 1.465 . S
C2006 C2001 1.399 1_545 S
C2006 C2005 1.394 . S
C2006 C2007 1.516 . S
C2007 C2006 1.516 . S
C2007 C2008 1.502 . S
C2007 C2009 1.561 . S
C2007 C2010 1.526 . S
C2008 H1992 0.959 . S
C2008 H1993 0.959 . S
C2008 H1994 0.961 . S
C2008 C2007 1.502 . S
C2009 H1995 0.960 . S
C2009 H1996 0.961 . S
C2009 H1997 0.959 . S
C2009 C2007 1.561 . S
C2010 C2007 1.526 . S
C2010 C2011 1.396 . S
C2010 C2015 1.390 . S
C2011 C2005 1.465 . S
C2011 C2010 1.396 . S
C2011 C2012 1.399 . S
C2012 H1998 0.929 . S
C2012 C2011 1.399 . S
C2012 C2013 1.385 . S
C2013 H1999 0.931 . S
C2013 C2012 1.385 . S
C2013 C2014 1.389 . S
C2014 C2013 1.389 . S
C2014 C2015 1.387 . S
C2015 H2000 0.930 . S
C2015 C2010 1.390 . S
C2015 C2014 1.387 . S
H2016 C2028 0.930 . S
H2017 C2030 0.930 . S
H2018 C2031 0.930 . S
H2019 C2035 0.959 . S
H2020 C2035 0.959 . S
H2021 C2035 0.961 . S
H2022 C2036 0.960 . S
H2023 C2036 0.961 . S
H2024 C2036 0.959 . S
H2025 C2039 0.929 . S
H2026 C2040 0.931 . S
H2027 C2042 0.930 . S
C2028 H2016 0.930 . S
C2028 C2029 1.399 1_655 S
C2028 C2033 1.399 . S
C2029 C2028 1.399 1_455 S
C2029 C2030 1.376 . S
C2030 H2017 0.930 . S
C2030 C2029 1.376 . S
C2030 C2031 1.388 . S
C2031 H2018 0.930 . S
C2031 C2030 1.388 . S
C2031 C2032 1.390 1_455 S
C2032 C2031 1.390 1_655 S
C2032 C2033 1.394 . S
C2032 C2038 1.465 . S
C2033 C2028 1.399 . S
C2033 C2032 1.394 . S
C2033 C2034 1.516 . S
C2034 C2033 1.516 . S
C2034 C2035 1.502 . S
C2034 C2036 1.561 . S
C2034 C2037 1.526 . S
C2035 H2019 0.959 . S
C2035 H2020 0.959 . S
C2035 H2021 0.961 . S
C2035 C2034 1.502 . S
C2036 H2022 0.960 . S
C2036 H2023 0.961 . S
C2036 H2024 0.959 . S
C2036 C2034 1.561 . S
C2037 C2034 1.526 . S
C2037 C2038 1.396 . S
C2037 C2042 1.390 . S
C2038 C2032 1.465 . S
C2038 C2037 1.396 . S
C2038 C2039 1.399 . S
C2039 H2025 0.929 . S
C2039 C2038 1.399 . S
C2039 C2040 1.385 . S
C2040 H2026 0.931 . S
C2040 C2039 1.385 . S
C2040 C2041 1.389 . S
C2041 C2040 1.389 . S
C2041 C2042 1.387 . S
C2042 H2027 0.930 . S
C2042 C2037 1.390 . S
C2042 C2041 1.387 . S
H2043 C2055 0.930 . S
H2044 C2057 0.930 . S
H2045 C2058 0.930 . S
H2046 C2062 0.959 . S
H2047 C2062 0.959 . S
H2048 C2062 0.961 . S
H2049 C2063 0.960 . S
H2050 C2063 0.961 . S
H2051 C2063 0.959 . S
H2052 C2066 0.929 . S
H2053 C2067 0.931 . S
H2054 C2069 0.930 . S
C2055 H2043 0.930 . S
C2055 C2056 1.399 . S
C2055 C2060 1.399 . S
C2056 C2055 1.399 . S
C2056 C2057 1.376 . S
C2057 H2044 0.930 . S
C2057 C2056 1.376 . S
C2057 C2058 1.388 . S
C2058 H2045 0.930 . S
C2058 C2057 1.388 . S
C2058 C2059 1.390 . S
C2059 C2058 1.390 . S
C2059 C2060 1.394 . S
C2059 C2065 1.465 . S
C2060 C2055 1.399 . S
C2060 C2059 1.394 . S
C2060 C2061 1.516 . S
C2061 C2060 1.516 . S
C2061 C2062 1.502 . S
C2061 C2063 1.561 . S
C2061 C2064 1.526 . S
C2062 H2046 0.959 . S
C2062 H2047 0.959 . S
C2062 H2048 0.961 . S
C2062 C2061 1.502 . S
C2063 H2049 0.960 . S
C2063 H2050 0.961 . S
C2063 H2051 0.959 . S
C2063 C2061 1.561 . S
C2064 C2061 1.526 . S
C2064 C2065 1.396 . S
C2064 C2069 1.390 . S
C2065 C2059 1.465 . S
C2065 C2064 1.396 . S
C2065 C2066 1.399 . S
C2066 H2052 0.929 . S
C2066 C2065 1.399 . S
C2066 C2067 1.385 . S
C2067 H2053 0.931 . S
C2067 C2066 1.385 . S
C2067 C2068 1.389 . S
C2068 C2067 1.389 . S
C2068 C2069 1.387 . S
C2069 H2054 0.930 . S
C2069 C2064 1.390 . S
C2069 C2068 1.387 . S
H2070 C2082 0.930 . S
H2071 C2084 0.930 . S
H2072 C2085 0.963 . S
H2073 C2089 0.959 . S
H2074 C2089 0.959 . S
H2075 C2089 0.961 . S
H2076 C2090 0.960 . S
H2077 C2090 0.961 . S
H2078 C2090 0.959 . S
H2079 C2093 0.929 . S
H2080 C2094 0.931 . S
H2081 C2096 0.930 . S
C2082 H2070 0.930 . S
C2082 C2083 1.399 . S
C2082 C2087 1.399 1_455 S
C2083 C2082 1.399 . S
C2083 C2084 1.376 . S
C2084 H2071 0.930 . S
C2084 C2083 1.376 . S
C2084 C2085 1.388 . S
C2085 H2072 0.963 . S
C2085 C2084 1.388 . S
C2085 C2086 1.390 1_455 S
C2086 C2085 1.390 1_655 S
C2086 C2087 1.394 . S
C2086 C2092 1.465 . S
C2087 C2082 1.399 1_655 S
C2087 C2086 1.394 . S
C2087 C2088 1.516 . S
C2088 C2087 1.516 . S
C2088 C2089 1.502 . S
C2088 C2090 1.561 . S
C2088 C2091 1.526 . S
C2089 H2073 0.959 . S
C2089 H2074 0.959 . S
C2089 H2075 0.961 . S
C2089 C2088 1.502 . S
C2090 H2076 0.960 . S
C2090 H2077 0.961 . S
C2090 H2078 0.959 . S
C2090 C2088 1.561 . S
C2091 C2088 1.526 . S
C2091 C2092 1.396 . S
C2091 C2096 1.390 . S
C2092 C2086 1.465 . S
C2092 C2091 1.396 . S
C2092 C2093 1.399 . S
C2093 H2079 0.929 . S
C2093 C2092 1.399 . S
C2093 C2094 1.385 . S
C2094 H2080 0.931 . S
C2094 C2093 1.385 . S
C2094 C2095 1.389 . S
C2095 C2094 1.389 . S
C2095 C2096 1.387 . S
C2096 H2081 0.930 . S
C2096 C2091 1.390 . S
C2096 C2095 1.387 . S
H2097 C2109 0.930 . S
H2098 C2111 0.930 . S
H2099 C2112 0.930 . S
H2100 C2116 0.959 . S
H2101 C2116 0.959 . S
H2102 C2116 0.961 . S
H2103 C2117 0.960 . S
H2104 C2117 0.961 . S
H2105 C2117 0.959 . S
H2106 C2120 0.929 . S
H2107 C2121 0.931 . S
H2108 C2123 0.930 . S
C2109 H2097 0.930 . S
C2109 C2110 1.399 . S
C2109 C2114 1.399 . S
C2110 C2109 1.399 . S
C2110 C2111 1.376 . S
C2111 H2098 0.930 . S
C2111 C2110 1.376 . S
C2111 C2112 1.388 . S
C2112 H2099 0.930 . S
C2112 C2111 1.388 . S
C2112 C2113 1.390 . S
C2113 C2112 1.390 . S
C2113 C2114 1.394 . S
C2113 C2119 1.465 . S
C2114 C2109 1.399 . S
C2114 C2113 1.394 . S
C2114 C2115 1.516 . S
C2115 C2114 1.516 . S
C2115 C2116 1.502 . S
C2115 C2117 1.561 . S
C2115 C2118 1.526 . S
C2116 H2100 0.959 . S
C2116 H2101 0.959 . S
C2116 H2102 0.961 . S
C2116 C2115 1.502 . S
C2117 H2103 0.960 . S
C2117 H2104 0.961 . S
C2117 H2105 0.959 . S
C2117 C2115 1.561 . S
C2118 C2115 1.526 . S
C2118 C2119 1.396 . S
C2118 C2123 1.390 . S
C2119 C2113 1.465 . S
C2119 C2118 1.396 . S
C2119 C2120 1.399 . S
C2120 H2106 0.929 . S
C2120 C2119 1.399 . S
C2120 C2121 1.385 . S
C2121 H2107 0.931 . S
C2121 C2120 1.385 . S
C2121 C2122 1.389 . S
C2122 C2121 1.389 . S
C2122 C2123 1.387 . S
C2123 H2108 0.930 . S
C2123 C2118 1.390 . S
C2123 C2122 1.387 . S
H2124 C2136 0.930 . S
H2125 C2138 0.930 . S
H2126 C2139 0.930 . S
H2127 C2143 0.959 . S
H2128 C2143 0.959 . S
H2129 C2143 0.961 . S
H2130 C2144 0.960 . S
H2131 C2144 0.961 . S
H2132 C2144 0.959 . S
H2133 C2147 0.929 . S
H2134 C2148 0.931 . S
H2135 C2150 0.930 . S
C2136 H2124 0.930 . S
C2136 C2137 1.399 . S
C2136 C2141 1.399 1_565 S
C2137 C2136 1.399 . S
C2137 C2138 1.376 . S
C2138 H2125 0.930 . S
C2138 C2137 1.376 . S
C2138 C2139 1.388 1_565 S
C2139 H2126 0.930 . S
C2139 C2138 1.388 1_545 S
C2139 C2140 1.390 . S
C2140 C2139 1.390 . S
C2140 C2141 1.394 . S
C2140 C2146 1.465 . S
C2141 C2136 1.399 1_545 S
C2141 C2140 1.394 . S
C2141 C2142 1.516 . S
C2142 C2141 1.516 . S
C2142 C2143 1.502 . S
C2142 C2144 1.561 . S
C2142 C2145 1.526 . S
C2143 H2127 0.959 . S
C2143 H2128 0.959 . S
C2143 H2129 0.961 . S
C2143 C2142 1.502 . S
C2144 H2130 0.960 . S
C2144 H2131 0.961 . S
C2144 H2132 0.959 . S
C2144 C2142 1.561 . S
C2145 C2142 1.526 . S
C2145 C2146 1.396 . S
C2145 C2150 1.390 . S
C2146 C2140 1.465 . S
C2146 C2145 1.396 . S
C2146 C2147 1.399 . S
C2147 H2133 0.929 . S
C2147 C2146 1.399 . S
C2147 C2148 1.385 . S
C2148 H2134 0.931 . S
C2148 C2147 1.385 . S
C2148 C2149 1.389 . S
C2149 C2148 1.389 . S
C2149 C2150 1.387 . S
C2150 H2135 0.930 . S
C2150 C2145 1.390 . S
C2150 C2149 1.387 . S
H2151 C2163 0.930 . S
H2152 C2165 0.930 . S
H2153 C2166 0.930 . S
H2154 C2170 0.959 . S
H2155 C2170 0.959 . S
H2156 C2170 0.961 . S
H2157 C2171 0.960 . S
H2158 C2171 0.961 . S
H2159 C2171 0.959 . S
H2160 C2174 0.929 . S
H2161 C2175 0.931 . S
H2162 C2177 0.930 . S
C2163 H2151 0.930 . S
C2163 C2164 1.399 . S
C2163 C2168 1.399 . S
C2164 C2163 1.399 . S
C2164 C2165 1.376 . S
C2165 H2152 0.930 . S
C2165 C2164 1.376 . S
C2165 C2166 1.388 . S
C2166 H2153 0.930 . S
C2166 C2165 1.388 . S
C2166 C2167 1.390 . S
C2167 C2166 1.390 . S
C2167 C2168 1.394 . S
C2167 C2173 1.465 . S
C2168 C2163 1.399 . S
C2168 C2167 1.394 . S
C2168 C2169 1.516 . S
C2169 C2168 1.516 . S
C2169 C2170 1.502 . S
C2169 C2171 1.561 . S
C2169 C2172 1.526 . S
C2170 H2154 0.959 . S
C2170 H2155 0.959 . S
C2170 H2156 0.961 . S
C2170 C2169 1.502 . S
C2171 H2157 0.960 . S
C2171 H2158 0.961 . S
C2171 H2159 0.959 . S
C2171 C2169 1.561 . S
C2172 C2169 1.526 . S
C2172 C2173 1.396 . S
C2172 C2177 1.390 . S
C2173 C2167 1.465 . S
C2173 C2172 1.396 . S
C2173 C2174 1.399 . S
C2174 H2160 0.929 . S
C2174 C2173 1.399 . S
C2174 C2175 1.385 . S
C2175 H2161 0.931 . S
C2175 C2174 1.385 . S
C2175 C2176 1.389 . S
C2176 C2175 1.389 . S
C2176 C2177 1.387 . S
C2177 H2162 0.930 . S
C2177 C2172 1.390 . S
C2177 C2176 1.387 . S
H2178 C2190 0.930 . S
H2179 C2192 0.930 . S
H2180 C2193 0.930 . S
H2181 C2197 0.959 . S
H2182 C2197 0.959 . S
H2183 C2197 0.961 . S
H2184 C2198 0.960 . S
H2185 C2198 0.961 . S
H2186 C2198 0.959 . S
H2187 C2201 0.929 . S
H2188 C2202 0.931 . S
H2189 C2204 0.930 . S
C2190 H2178 0.930 . S
C2190 C2191 1.399 . S
C2190 C2195 1.399 . S
C2191 C2190 1.399 . S
C2191 C2192 1.376 . S
C2192 H2179 0.930 . S
C2192 C2191 1.376 . S
C2192 C2193 1.388 . S
C2193 H2180 0.930 . S
C2193 C2192 1.388 . S
C2193 C2194 1.390 . S
C2194 C2193 1.390 . S
C2194 C2195 1.394 . S
C2194 C2200 1.465 . S
C2195 C2190 1.399 . S
C2195 C2194 1.394 . S
C2195 C2196 1.516 . S
C2196 C2195 1.516 . S
C2196 C2197 1.502 . S
C2196 C2198 1.561 . S
C2196 C2199 1.526 . S
C2197 H2181 0.959 . S
C2197 H2182 0.959 . S
C2197 H2183 0.961 . S
C2197 C2196 1.502 . S
C2198 H2184 0.960 . S
C2198 H2185 0.961 . S
C2198 H2186 0.959 . S
C2198 C2196 1.561 . S
C2199 C2196 1.526 . S
C2199 C2200 1.396 . S
C2199 C2204 1.390 . S
C2200 C2194 1.465 . S
C2200 C2199 1.396 . S
C2200 C2201 1.399 . S
C2201 H2187 0.929 . S
C2201 C2200 1.399 . S
C2201 C2202 1.385 . S
C2202 H2188 0.931 . S
C2202 C2201 1.385 . S
C2202 C2203 1.389 . S
C2203 C2202 1.389 . S
C2203 C2204 1.387 . S
C2204 H2189 0.930 . S
C2204 C2199 1.390 . S
C2204 C2203 1.387 . S
H2205 C2217 0.930 . S
H2206 C2219 0.930 . S
H2207 C2220 0.930 . S
H2208 C2224 0.959 . S
H2209 C2224 0.959 . S
H2210 C2224 0.961 . S
H2211 C2225 0.960 . S
H2212 C2225 0.961 . S
H2213 C2225 0.959 . S
H2214 C2228 0.929 . S
H2215 C2229 0.931 . S
H2216 C2231 0.930 . S
C2217 H2205 0.930 . S
C2217 C2218 1.399 . S
C2217 C2222 1.399 . S
C2218 C2217 1.399 . S
C2218 C2219 1.376 . S
C2219 H2206 0.930 . S
C2219 C2218 1.376 . S
C2219 C2220 1.388 . S
C2220 H2207 0.930 . S
C2220 C2219 1.388 . S
C2220 C2221 1.390 . S
C2221 C2220 1.390 . S
C2221 C2222 1.394 . S
C2221 C2227 1.465 . S
C2222 C2217 1.399 . S
C2222 C2221 1.394 . S
C2222 C2223 1.516 . S
C2223 C2222 1.516 . S
C2223 C2224 1.502 . S
C2223 C2225 1.561 . S
C2223 C2226 1.526 . S
C2224 H2208 0.959 . S
C2224 H2209 0.959 . S
C2224 H2210 0.961 . S
C2224 C2223 1.502 . S
C2225 H2211 0.960 . S
C2225 H2212 0.961 . S
C2225 H2213 0.959 . S
C2225 C2223 1.561 . S
C2226 C2223 1.526 . S
C2226 C2227 1.396 . S
C2226 C2231 1.390 . S
C2227 C2221 1.465 . S
C2227 C2226 1.396 . S
C2227 C2228 1.399 . S
C2228 H2214 0.929 . S
C2228 C2227 1.399 . S
C2228 C2229 1.385 . S
C2229 H2215 0.931 . S
C2229 C2228 1.385 . S
C2229 C2230 1.389 . S
C2230 C2229 1.389 . S
C2230 C2231 1.387 . S
C2231 H2216 0.930 . S
C2231 C2226 1.390 . S
C2231 C2230 1.387 . S
H2232 C2244 0.930 . S
H2233 C2246 0.930 . S
H2234 C2247 0.931 1_545 S
H2235 C2251 0.959 . S
H2236 C2251 0.959 . S
H2237 C2251 0.961 . S
H2238 C2252 0.960 . S
H2239 C2252 0.961 . S
H2240 C2252 0.959 . S
H2241 C2255 0.929 . S
H2242 C2256 0.931 . S
H2243 C2258 0.930 . S
C2244 H2232 0.930 . S
C2244 C2245 1.399 . S
C2244 C2249 1.399 . S
C2245 C2244 1.399 . S
C2245 C2246 1.376 . S
C2246 H2233 0.930 . S
C2246 C2245 1.376 . S
C2246 C2247 1.388 . S
C2247 H2234 0.931 1_565 S
C2247 C2246 1.388 . S
C2247 C2248 1.389 . S
C2248 C2247 1.389 . S
C2248 C2249 1.394 . S
C2248 C2254 1.465 . S
C2249 C2244 1.399 . S
C2249 C2248 1.394 . S
C2249 C2250 1.516 . S
C2250 C2249 1.516 . S
C2250 C2251 1.502 . S
C2250 C2252 1.561 . S
C2250 C2253 1.526 . S
C2251 H2235 0.959 . S
C2251 H2236 0.959 . S
C2251 H2237 0.961 . S
C2251 C2250 1.502 . S
C2252 H2238 0.960 . S
C2252 H2239 0.961 . S
C2252 H2240 0.959 . S
C2252 C2250 1.561 . S
C2253 C2250 1.526 . S
C2253 C2254 1.396 . S
C2253 C2258 1.390 . S
C2254 C2248 1.465 . S
C2254 C2253 1.396 . S
C2254 C2255 1.399 1_565 S
C2255 H2241 0.929 . S
C2255 C2254 1.399 1_545 S
C2255 C2256 1.385 . S
C2256 H2242 0.931 . S
C2256 C2255 1.385 . S
C2256 C2257 1.389 1_545 S
C2257 C2256 1.389 1_565 S
C2257 C2258 1.387 . S
C2258 H2243 0.930 . S
C2258 C2253 1.390 . S
C2258 C2257 1.387 . S
H2259 C2271 0.930 . S
H2260 C2273 0.930 . S
H2261 C2274 0.930 . S
H2262 C2278 0.959 1_655 S
H2263 C2278 0.959 . S
H2264 C2278 0.961 . S
H2265 C2279 0.960 . S
H2266 C2279 0.961 . S
H2267 C2279 0.959 . S
H2268 C2282 0.929 . S
H2269 C2283 0.931 . S
H2270 C2285 0.930 . S
C2271 H2259 0.930 . S
C2271 C2272 1.399 . S
C2271 C2276 1.399 . S
C2272 C2271 1.399 . S
C2272 C2273 1.376 . S
C2273 H2260 0.930 . S
C2273 C2272 1.376 . S
C2273 C2274 1.388 . S
C2274 H2261 0.930 . S
C2274 C2273 1.388 . S
C2274 C2275 1.390 . S
C2275 C2274 1.390 . S
C2275 C2276 1.394 . S
C2275 C2281 1.465 . S
C2276 C2271 1.399 . S
C2276 C2275 1.394 . S
C2276 C2277 1.516 . S
C2277 C2276 1.516 . S
C2277 C2278 1.502 . S
C2277 C2279 1.561 . S
C2277 C2280 1.526 . S
C2278 H2262 0.959 1_455 S
C2278 H2263 0.959 . S
C2278 H2264 0.961 . S
C2278 C2277 1.502 . S
C2279 H2265 0.960 . S
C2279 H2266 0.961 . S
C2279 H2267 0.959 . S
C2279 C2277 1.561 . S
C2280 C2277 1.526 . S
C2280 C2281 1.396 . S
C2280 C2285 1.390 . S
C2281 C2275 1.465 . S
C2281 C2280 1.396 . S
C2281 C2282 1.399 . S
C2282 H2268 0.929 . S
C2282 C2281 1.399 . S
C2282 C2283 1.385 . S
C2283 H2269 0.931 . S
C2283 C2282 1.385 . S
C2283 C2284 1.389 . S
C2284 C2283 1.389 . S
C2284 C2285 1.387 . S
C2285 H2270 0.930 . S
C2285 C2280 1.390 . S
C2285 C2284 1.387 . S
H2286 C2298 0.930 . S
H2287 C2300 0.930 . S
H2288 C2301 0.930 . S
H2289 C2305 0.959 . S
H2290 C2305 0.959 . S
H2291 C2305 0.961 . S
H2292 C2306 0.960 . S
H2293 C2306 0.961 . S
H2294 C2306 0.959 . S
H2295 C2309 0.929 . S
H2296 C2310 0.931 . S
H2297 C2312 0.930 . S
C2298 H2286 0.930 . S
C2298 C2299 1.399 . S
C2298 C2303 1.399 . S
C2299 C2298 1.399 . S
C2299 C2300 1.376 . S
C2300 H2287 0.930 . S
C2300 C2299 1.376 . S
C2300 C2301 1.388 . S
C2301 H2288 0.930 . S
C2301 C2300 1.388 . S
C2301 C2302 1.390 . S
C2302 C2301 1.390 . S
C2302 C2303 1.394 . S
C2302 C2308 1.465 . S
C2303 C2298 1.399 . S
C2303 C2302 1.394 . S
C2303 C2304 1.516 . S
C2304 C2303 1.516 . S
C2304 C2305 1.502 . S
C2304 C2306 1.561 . S
C2304 C2307 1.526 . S
C2305 H2289 0.959 . S
C2305 H2290 0.959 . S
C2305 H2291 0.961 . S
C2305 C2304 1.502 . S
C2306 H2292 0.960 . S
C2306 H2293 0.961 . S
C2306 H2294 0.959 . S
C2306 C2304 1.561 . S
C2307 C2304 1.526 . S
C2307 C2308 1.396 . S
C2307 C2312 1.390 . S
C2308 C2302 1.465 . S
C2308 C2307 1.396 . S
C2308 C2309 1.399 . S
C2309 H2295 0.929 . S
C2309 C2308 1.399 . S
C2309 C2310 1.385 . S
C2310 H2296 0.931 . S
C2310 C2309 1.385 . S
C2310 C2311 1.389 . S
C2311 C2310 1.389 . S
C2311 C2312 1.387 . S
C2312 H2297 0.930 . S
C2312 C2307 1.390 . S
C2312 C2311 1.387 . S
H2313 C2325 0.930 1_455 S
H2314 C2327 0.930 . S
H2315 C2328 0.930 . S
H2316 C2332 0.959 . S
H2317 C2332 0.959 . S
H2318 C2332 0.961 . S
H2319 C2333 0.960 1_455 S
H2320 C2333 0.961 1_455 S
H2321 C2333 0.958 . S
H2322 C2336 0.929 . S
H2323 C2337 0.931 . S
H2324 C2339 0.935 . S
C2325 H2313 0.930 1_655 S
C2325 C2326 1.399 . S
C2325 C2330 1.399 . S
C2326 C2325 1.399 . S
C2326 C2327 1.376 . S
C2327 H2314 0.930 . S
C2327 C2326 1.376 . S
C2327 C2328 1.388 . S
C2328 H2315 0.930 . S
C2328 C2327 1.388 . S
C2328 C2329 1.390 . S
C2329 C2328 1.390 . S
C2329 C2330 1.394 . S
C2329 C2335 1.465 . S
C2330 C2325 1.399 . S
C2330 C2329 1.394 . S
C2330 C2331 1.516 1_655 S
C2331 C2330 1.516 1_455 S
C2331 C2332 1.502 . S
C2331 C2333 1.562 1_455 S
C2331 C2334 1.526 1_455 S
C2332 H2316 0.959 . S
C2332 H2317 0.959 . S
C2332 H2318 0.961 . S
C2332 C2331 1.502 . S
C2333 H2319 0.960 1_655 S
C2333 H2320 0.961 1_655 S
C2333 H2321 0.958 . S
C2333 C2331 1.562 1_655 S
C2334 C2331 1.526 1_655 S
C2334 C2335 1.396 . S
C2334 C2339 1.387 1_655 S
C2335 C2329 1.465 . S
C2335 C2334 1.396 . S
C2335 C2336 1.399 . S
C2336 H2322 0.929 . S
C2336 C2335 1.399 . S
C2336 C2337 1.385 . S
C2337 H2323 0.931 . S
C2337 C2336 1.385 . S
C2337 C2338 1.389 . S
C2338 C2337 1.389 . S
C2338 C2339 1.384 1_655 S
C2339 H2324 0.935 . S
C2339 C2334 1.387 1_455 S
C2339 C2338 1.384 1_455 S
H2340 C2352 0.930 . S
H2341 C2354 0.930 . S
H2342 C2355 0.930 . S
H2343 C2359 0.959 . S
H2344 C2359 0.959 . S
H2345 C2359 0.961 . S
H2346 C2360 0.960 . S
H2347 C2360 0.961 . S
H2348 C2360 0.959 . S
H2349 C2363 0.929 . S
H2350 C2364 0.931 . S
H2351 C2366 0.930 . S
C2352 H2340 0.930 . S
C2352 C2353 1.399 . S
C2352 C2357 1.399 . S
C2353 C2352 1.399 . S
C2353 C2354 1.376 . S
C2354 H2341 0.930 . S
C2354 C2353 1.376 . S
C2354 C2355 1.388 . S
C2355 H2342 0.930 . S
C2355 C2354 1.388 . S
C2355 C2356 1.390 . S
C2356 C2355 1.390 . S
C2356 C2357 1.394 . S
C2356 C2362 1.465 . S
C2357 C2352 1.399 . S
C2357 C2356 1.394 . S
C2357 C2358 1.516 . S
C2358 C2357 1.516 . S
C2358 C2359 1.502 . S
C2358 C2360 1.561 . S
C2358 C2361 1.526 . S
C2359 H2343 0.959 . S
C2359 H2344 0.959 . S
C2359 H2345 0.961 . S
C2359 C2358 1.502 . S
C2360 H2346 0.960 . S
C2360 H2347 0.961 . S
C2360 H2348 0.959 . S
C2360 C2358 1.561 . S
C2361 C2358 1.526 . S
C2361 C2362 1.396 . S
C2361 C2366 1.390 . S
C2362 C2356 1.465 . S
C2362 C2361 1.396 . S
C2362 C2363 1.399 . S
C2363 H2349 0.929 . S
C2363 C2362 1.399 . S
C2363 C2364 1.385 . S
C2364 H2350 0.931 . S
C2364 C2363 1.385 . S
C2364 C2365 1.389 . S
C2365 C2364 1.389 . S
C2365 C2366 1.387 . S
C2366 H2351 0.930 . S
C2366 C2361 1.390 . S
C2366 C2365 1.387 . S
H2367 C2379 0.930 . S
H2368 C2381 0.930 . S
H2369 C2382 0.930 . S
H2370 C2386 0.959 . S
H2371 C2386 0.959 . S
H2372 C2386 0.957 . S
H2373 C2387 0.960 . S
H2374 C2387 0.961 . S
H2375 C2387 0.959 . S
H2376 C2390 0.929 . S
H2377 C2391 0.931 . S
H2378 C2393 0.930 . S
C2379 H2367 0.930 . S
C2379 C2380 1.399 . S
C2379 C2384 1.399 . S
C2380 C2379 1.399 . S
C2380 C2381 1.376 . S
C2381 H2368 0.930 . S
C2381 C2380 1.376 . S
C2381 C2382 1.388 . S
C2382 H2369 0.930 . S
C2382 C2381 1.388 . S
C2382 C2383 1.390 . S
C2383 C2382 1.390 . S
C2383 C2384 1.394 . S
C2383 C2389 1.465 . S
C2384 C2379 1.399 . S
C2384 C2383 1.394 . S
C2384 C2385 1.516 . S
C2385 C2384 1.516 . S
C2385 C2386 1.502 1_545 S
C2385 C2387 1.561 . S
C2385 C2388 1.526 . S
C2386 H2370 0.959 . S
C2386 H2371 0.959 . S
C2386 H2372 0.957 . S
C2386 C2385 1.502 1_565 S
C2387 H2373 0.960 . S
C2387 H2374 0.961 . S
C2387 H2375 0.959 . S
C2387 C2385 1.561 . S
C2388 C2385 1.526 . S
C2388 C2389 1.396 . S
C2388 C2393 1.390 . S
C2389 C2383 1.465 . S
C2389 C2388 1.396 . S
C2389 C2390 1.399 . S
C2390 H2376 0.929 . S
C2390 C2389 1.399 . S
C2390 C2391 1.385 . S
C2391 H2377 0.931 . S
C2391 C2390 1.385 . S
C2391 C2392 1.389 . S
C2392 C2391 1.389 . S
C2392 C2393 1.387 . S
C2393 H2378 0.930 . S
C2393 C2388 1.390 . S
C2393 C2392 1.387 . S
H2394 C2406 0.930 . S
H2395 C2408 0.930 . S
H2396 C2409 0.930 . S
H2397 C2413 0.959 . S
H2398 C2413 0.959 . S
H2399 C2413 0.961 . S
H2400 C2414 0.960 . S
H2401 C2414 0.961 . S
H2402 C2414 0.959 . S
H2403 C2417 0.929 . S
H2404 C2418 0.931 . S
H2405 C2420 0.930 . S
C2406 H2394 0.930 . S
C2406 C2407 1.399 . S
C2406 C2411 1.399 . S
C2407 C2406 1.399 . S
C2407 C2408 1.376 . S
C2408 H2395 0.930 . S
C2408 C2407 1.376 . S
C2408 C2409 1.388 . S
C2409 H2396 0.930 . S
C2409 C2408 1.388 . S
C2409 C2410 1.390 . S
C2410 C2409 1.390 . S
C2410 C2411 1.394 . S
C2410 C2416 1.465 . S
C2411 C2406 1.399 . S
C2411 C2410 1.394 . S
C2411 C2412 1.516 . S
C2412 C2411 1.516 . S
C2412 C2413 1.502 . S
C2412 C2414 1.561 . S
C2412 C2415 1.526 . S
C2413 H2397 0.959 . S
C2413 H2398 0.959 . S
C2413 H2399 0.961 . S
C2413 C2412 1.502 . S
C2414 H2400 0.960 . S
C2414 H2401 0.961 . S
C2414 H2402 0.959 . S
C2414 C2412 1.561 . S
C2415 C2412 1.526 . S
C2415 C2416 1.396 . S
C2415 C2420 1.390 . S
C2416 C2410 1.465 . S
C2416 C2415 1.396 . S
C2416 C2417 1.399 . S
C2417 H2403 0.929 . S
C2417 C2416 1.399 . S
C2417 C2418 1.385 . S
C2418 H2404 0.931 . S
C2418 C2417 1.385 . S
C2418 C2419 1.389 . S
C2419 C2418 1.389 . S
C2419 C2420 1.387 . S
C2420 H2405 0.930 . S
C2420 C2415 1.390 . S
C2420 C2419 1.387 . S
H2421 C2433 0.930 . S
H2422 C2435 0.930 . S
H2423 C2436 0.930 . S
H2424 C2440 0.959 . S
H2425 C2440 0.959 . S
H2426 C2440 0.961 . S
H2427 C2441 0.960 . S
H2428 C2441 0.961 . S
H2429 C2441 0.959 . S
H2430 C2444 0.929 . S
H2431 C2445 0.931 . S
H2432 C2447 0.930 . S
C2433 H2421 0.930 . S
C2433 C2434 1.399 . S
C2433 C2438 1.399 . S
C2434 C2433 1.399 . S
C2434 C2435 1.376 . S
C2435 H2422 0.930 . S
C2435 C2434 1.376 . S
C2435 C2436 1.388 . S
C2436 H2423 0.930 . S
C2436 C2435 1.388 . S
C2436 C2437 1.390 . S
C2437 C2436 1.390 . S
C2437 C2438 1.394 . S
C2437 C2443 1.465 . S
C2438 C2433 1.399 . S
C2438 C2437 1.394 . S
C2438 C2439 1.516 . S
C2439 C2438 1.516 . S
C2439 C2440 1.502 . S
C2439 C2441 1.561 . S
C2439 C2442 1.526 . S
C2440 H2424 0.959 . S
C2440 H2425 0.959 . S
C2440 H2426 0.961 . S
C2440 C2439 1.502 . S
C2441 H2427 0.960 . S
C2441 H2428 0.961 . S
C2441 H2429 0.959 . S
C2441 C2439 1.561 . S
C2442 C2439 1.526 . S
C2442 C2443 1.396 . S
C2442 C2447 1.390 . S
C2443 C2437 1.465 . S
C2443 C2442 1.396 . S
C2443 C2444 1.399 . S
C2444 H2430 0.929 . S
C2444 C2443 1.399 . S
C2444 C2445 1.385 . S
C2445 H2431 0.931 . S
C2445 C2444 1.385 . S
C2445 C2446 1.389 . S
C2446 C2445 1.389 . S
C2446 C2447 1.387 . S
C2447 H2432 0.930 . S
C2447 C2442 1.390 . S
C2447 C2446 1.387 . S
H2448 C2460 0.930 . S
H2449 C2462 0.930 . S
H2450 C2463 0.930 . S
H2451 C2467 0.959 . S
H2452 C2467 0.959 . S
H2453 C2467 0.961 . S
H2454 C2468 0.960 . S
H2455 C2468 0.961 . S
H2456 C2468 0.959 . S
H2457 C2471 0.929 . S
H2458 C2472 0.931 . S
H2459 C2474 0.930 . S
C2460 H2448 0.930 . S
C2460 C2461 1.399 . S
C2460 C2465 1.399 . S
C2461 C2460 1.399 . S
C2461 C2462 1.376 . S
C2462 H2449 0.930 . S
C2462 C2461 1.376 . S
C2462 C2463 1.388 . S
C2463 H2450 0.930 . S
C2463 C2462 1.388 . S
C2463 C2464 1.390 . S
C2464 C2463 1.390 . S
C2464 C2465 1.394 . S
C2464 C2470 1.465 . S
C2465 C2460 1.399 . S
C2465 C2464 1.394 . S
C2465 C2466 1.516 . S
C2466 C2465 1.516 . S
C2466 C2467 1.502 . S
C2466 C2468 1.561 . S
C2466 C2469 1.526 . S
C2467 H2451 0.959 . S
C2467 H2452 0.959 . S
C2467 H2453 0.961 . S
C2467 C2466 1.502 . S
C2468 H2454 0.960 . S
C2468 H2455 0.961 . S
C2468 H2456 0.959 . S
C2468 C2466 1.561 . S
C2469 C2466 1.526 . S
C2469 C2470 1.396 . S
C2469 C2474 1.390 . S
C2470 C2464 1.465 . S
C2470 C2469 1.396 . S
C2470 C2471 1.399 . S
C2471 H2457 0.929 . S
C2471 C2470 1.399 . S
C2471 C2472 1.385 . S
C2472 H2458 0.931 . S
C2472 C2471 1.385 . S
C2472 C2473 1.389 . S
C2473 C2472 1.389 . S
C2473 C2474 1.387 . S
C2474 H2459 0.930 . S
C2474 C2469 1.390 . S
C2474 C2473 1.387 . S
H2475 C2487 0.930 . S
H2476 C2489 0.930 . S
H2477 C2490 0.930 . S
H2478 C2494 0.959 . S
H2479 C2494 0.959 . S
H2480 C2494 0.961 . S
H2481 C2495 0.960 . S
H2482 C2495 0.961 . S
H2483 C2495 0.959 . S
H2484 C2498 0.929 . S
H2485 C2499 0.931 . S
H2486 C2501 0.930 . S
C2487 H2475 0.930 . S
C2487 C2488 1.399 . S
C2487 C2492 1.399 . S
C2488 C2487 1.399 . S
C2488 C2489 1.376 . S
C2489 H2476 0.930 . S
C2489 C2488 1.376 . S
C2489 C2490 1.388 . S
C2490 H2477 0.930 . S
C2490 C2489 1.388 . S
C2490 C2491 1.390 . S
C2491 C2490 1.390 . S
C2491 C2492 1.394 . S
C2491 C2497 1.465 . S
C2492 C2487 1.399 . S
C2492 C2491 1.394 . S
C2492 C2493 1.516 . S
C2493 C2492 1.516 . S
C2493 C2494 1.502 . S
C2493 C2495 1.561 . S
C2493 C2496 1.526 . S
C2494 H2478 0.959 . S
C2494 H2479 0.959 . S
C2494 H2480 0.961 . S
C2494 C2493 1.502 . S
C2495 H2481 0.960 . S
C2495 H2482 0.961 . S
C2495 H2483 0.959 . S
C2495 C2493 1.561 . S
C2496 C2493 1.526 . S
C2496 C2497 1.396 . S
C2496 C2501 1.390 . S
C2497 C2491 1.465 . S
C2497 C2496 1.396 . S
C2497 C2498 1.399 . S
C2498 H2484 0.929 . S
C2498 C2497 1.399 . S
C2498 C2499 1.385 . S
C2499 H2485 0.931 . S
C2499 C2498 1.385 . S
C2499 C2500 1.389 . S
C2500 C2499 1.389 . S
C2500 C2501 1.387 . S
C2501 H2486 0.930 . S
C2501 C2496 1.390 . S
C2501 C2500 1.387 . S
H2502 C2514 0.930 . S
H2503 C2516 0.930 . S
H2504 C2517 0.930 . S
H2505 C2521 0.959 . S
H2506 C2521 0.959 . S
H2507 C2521 0.961 . S
H2508 C2522 0.960 . S
H2509 C2522 0.961 . S
H2510 C2522 0.959 . S
H2511 C2525 0.929 . S
H2512 C2526 0.931 . S
H2513 C2528 0.930 . S
C2514 H2502 0.930 . S
C2514 C2515 1.399 . S
C2514 C2519 1.399 . S
C2515 C2514 1.399 . S
C2515 C2516 1.376 . S
C2516 H2503 0.930 . S
C2516 C2515 1.376 . S
C2516 C2517 1.388 . S
C2517 H2504 0.930 . S
C2517 C2516 1.388 . S
C2517 C2518 1.390 . S
C2518 C2517 1.390 . S
C2518 C2519 1.394 . S
C2518 C2524 1.465 . S
C2519 C2514 1.399 . S
C2519 C2518 1.394 . S
C2519 C2520 1.516 . S
C2520 C2519 1.516 . S
C2520 C2521 1.502 . S
C2520 C2522 1.561 . S
C2520 C2523 1.526 . S
C2521 H2505 0.959 . S
C2521 H2506 0.959 . S
C2521 H2507 0.961 . S
C2521 C2520 1.502 . S
C2522 H2508 0.960 . S
C2522 H2509 0.961 . S
C2522 H2510 0.959 . S
C2522 C2520 1.561 . S
C2523 C2520 1.526 . S
C2523 C2524 1.396 . S
C2523 C2528 1.390 . S
C2524 C2518 1.465 . S
C2524 C2523 1.396 . S
C2524 C2525 1.399 . S
C2525 H2511 0.929 . S
C2525 C2524 1.399 . S
C2525 C2526 1.385 . S
C2526 H2512 0.931 . S
C2526 C2525 1.385 . S
C2526 C2527 1.389 . S
C2527 C2526 1.389 . S
C2527 C2528 1.387 . S
C2528 H2513 0.930 . S
C2528 C2523 1.390 . S
C2528 C2527 1.387 . S
H2529 C2541 0.930 . S
H2530 C2543 0.930 . S
H2531 C2544 0.930 . S
H2532 C2548 0.959 . S
H2533 C2548 0.959 . S
H2534 C2548 0.961 . S
H2535 C2549 0.960 . S
H2536 C2549 0.961 . S
H2537 C2549 0.959 . S
H2538 C2552 0.929 . S
H2539 C2553 0.931 . S
H2540 C2555 0.930 . S
C2541 H2529 0.930 . S
C2541 C2542 1.399 . S
C2541 C2546 1.399 . S
C2542 C2541 1.399 . S
C2542 C2543 1.376 . S
C2543 H2530 0.930 . S
C2543 C2542 1.376 . S
C2543 C2544 1.388 . S
C2544 H2531 0.930 . S
C2544 C2543 1.388 . S
C2544 C2545 1.390 . S
C2545 C2544 1.390 . S
C2545 C2546 1.394 . S
C2545 C2551 1.465 . S
C2546 C2541 1.399 . S
C2546 C2545 1.394 . S
C2546 C2547 1.516 . S
C2547 C2546 1.516 . S
C2547 C2548 1.502 . S
C2547 C2549 1.561 . S
C2547 C2550 1.526 . S
C2548 H2532 0.959 . S
C2548 H2533 0.959 . S
C2548 H2534 0.961 . S
C2548 C2547 1.502 . S
C2549 H2535 0.960 . S
C2549 H2536 0.961 . S
C2549 H2537 0.959 . S
C2549 C2547 1.561 . S
C2550 C2547 1.526 . S
C2550 C2551 1.396 . S
C2550 C2555 1.390 . S
C2551 C2545 1.465 . S
C2551 C2550 1.396 . S
C2551 C2552 1.399 . S
C2552 H2538 0.929 . S
C2552 C2551 1.399 . S
C2552 C2553 1.385 . S
C2553 H2539 0.931 . S
C2553 C2552 1.385 . S
C2553 C2554 1.389 . S
C2554 C2553 1.389 . S
C2554 C2555 1.387 . S
C2555 H2540 0.930 . S
C2555 C2550 1.390 . S
C2555 C2554 1.387 . S
H2556 C2568 0.930 . S
H2557 C2570 0.930 . S
H2558 C2571 0.930 . S
H2559 C2575 0.959 . S
H2560 C2575 0.959 . S
H2561 C2575 0.961 . S
H2562 C2576 0.960 . S
H2563 C2576 0.961 . S
H2564 C2576 0.959 . S
H2565 C2579 0.929 . S
H2566 C2580 0.931 . S
H2567 C2582 0.930 . S
C2568 H2556 0.930 . S
C2568 C2569 1.399 . S
C2568 C2573 1.399 . S
C2569 C2568 1.399 . S
C2569 C2570 1.376 . S
C2570 H2557 0.930 . S
C2570 C2569 1.376 . S
C2570 C2571 1.388 . S
C2571 H2558 0.930 . S
C2571 C2570 1.388 . S
C2571 C2572 1.390 . S
C2572 C2571 1.390 . S
C2572 C2573 1.394 . S
C2572 C2578 1.465 . S
C2573 C2568 1.399 . S
C2573 C2572 1.394 . S
C2573 C2574 1.516 . S
C2574 C2573 1.516 . S
C2574 C2575 1.502 . S
C2574 C2576 1.561 . S
C2574 C2577 1.526 . S
C2575 H2559 0.959 . S
C2575 H2560 0.959 . S
C2575 H2561 0.961 . S
C2575 C2574 1.502 . S
C2576 H2562 0.960 . S
C2576 H2563 0.961 . S
C2576 H2564 0.959 . S
C2576 C2574 1.561 . S
C2577 C2574 1.526 . S
C2577 C2578 1.396 . S
C2577 C2582 1.390 . S
C2578 C2572 1.465 . S
C2578 C2577 1.396 . S
C2578 C2579 1.399 . S
C2579 H2565 0.929 . S
C2579 C2578 1.399 . S
C2579 C2580 1.385 . S
C2580 H2566 0.931 . S
C2580 C2579 1.385 . S
C2580 C2581 1.389 . S
C2581 C2580 1.389 . S
C2581 C2582 1.387 . S
C2582 H2567 0.930 . S
C2582 C2577 1.390 . S
C2582 C2581 1.387 . S
H2583 C2595 0.930 . S
H2584 C2597 0.930 . S
H2585 C2598 0.930 . S
H2586 C2602 0.959 . S
H2587 C2602 0.959 . S
H2588 C2602 0.961 . S
H2589 C2603 0.960 . S
H2590 C2603 0.961 . S
H2591 C2603 0.959 . S
H2592 C2606 0.929 . S
H2593 C2607 0.931 . S
H2594 C2609 0.930 . S
C2595 H2583 0.930 . S
C2595 C2596 1.399 . S
C2595 C2600 1.399 . S
C2596 C2595 1.399 . S
C2596 C2597 1.376 . S
C2597 H2584 0.930 . S
C2597 C2596 1.376 . S
C2597 C2598 1.388 . S
C2598 H2585 0.930 . S
C2598 C2597 1.388 . S
C2598 C2599 1.390 . S
C2599 C2598 1.390 . S
C2599 C2600 1.394 . S
C2599 C2605 1.465 . S
C2600 C2595 1.399 . S
C2600 C2599 1.394 . S
C2600 C2601 1.516 . S
C2601 C2600 1.516 . S
C2601 C2602 1.502 . S
C2601 C2603 1.561 . S
C2601 C2604 1.526 . S
C2602 H2586 0.959 . S
C2602 H2587 0.959 . S
C2602 H2588 0.961 . S
C2602 C2601 1.502 . S
C2603 H2589 0.960 . S
C2603 H2590 0.961 . S
C2603 H2591 0.959 . S
C2603 C2601 1.561 . S
C2604 C2601 1.526 . S
C2604 C2605 1.396 . S
C2604 C2609 1.390 . S
C2605 C2599 1.465 . S
C2605 C2604 1.396 . S
C2605 C2606 1.399 . S
C2606 H2592 0.929 . S
C2606 C2605 1.399 . S
C2606 C2607 1.385 . S
C2607 H2593 0.931 . S
C2607 C2606 1.385 . S
C2607 C2608 1.389 . S
C2608 C2607 1.389 . S
C2608 C2609 1.387 . S
C2609 H2594 0.930 . S
C2609 C2604 1.390 . S
C2609 C2608 1.387 . S
H2610 C2622 0.930 . S
H2611 C2624 0.930 . S
H2612 C2625 0.930 . S
H2613 C2629 0.959 . S
H2614 C2629 0.959 . S
H2615 C2629 0.961 . S
H2616 C2630 0.960 . S
H2617 C2630 0.961 . S
H2618 C2630 0.959 . S
H2619 C2633 0.929 . S
H2620 C2634 0.931 . S
H2621 C2636 0.930 . S
C2622 H2610 0.930 . S
C2622 C2623 1.399 . S
C2622 C2627 1.399 . S
C2623 C2622 1.399 . S
C2623 C2624 1.376 . S
C2624 H2611 0.930 . S
C2624 C2623 1.376 . S
C2624 C2625 1.388 . S
C2625 H2612 0.930 . S
C2625 C2624 1.388 . S
C2625 C2626 1.390 . S
C2626 C2625 1.390 . S
C2626 C2627 1.394 . S
C2626 C2632 1.465 . S
C2627 C2622 1.399 . S
C2627 C2626 1.394 . S
C2627 C2628 1.516 . S
C2628 C2627 1.516 . S
C2628 C2629 1.502 . S
C2628 C2630 1.561 . S
C2628 C2631 1.526 . S
C2629 H2613 0.959 . S
C2629 H2614 0.959 . S
C2629 H2615 0.961 . S
C2629 C2628 1.502 . S
C2630 H2616 0.960 . S
C2630 H2617 0.961 . S
C2630 H2618 0.959 . S
C2630 C2628 1.561 . S
C2631 C2628 1.526 . S
C2631 C2632 1.396 . S
C2631 C2636 1.390 . S
C2632 C2626 1.465 . S
C2632 C2631 1.396 . S
C2632 C2633 1.399 . S
C2633 H2619 0.929 . S
C2633 C2632 1.399 . S
C2633 C2634 1.385 . S
C2634 H2620 0.931 . S
C2634 C2633 1.385 . S
C2634 C2635 1.389 . S
C2635 C2634 1.389 . S
C2635 C2636 1.387 . S
C2636 H2621 0.930 . S
C2636 C2631 1.390 . S
C2636 C2635 1.387 . S
H2637 C2649 0.930 . S
H2638 C2651 0.930 . S
H2639 C2652 0.930 . S
H2640 C2656 0.959 . S
H2641 C2656 0.959 . S
H2642 C2656 0.961 . S
H2643 C2657 0.960 . S
H2644 C2657 0.961 . S
H2645 C2657 0.959 . S
H2646 C2660 0.929 . S
H2647 C2661 0.931 . S
H2648 C2663 0.930 . S
C2649 H2637 0.930 . S
C2649 C2650 1.399 . S
C2649 C2654 1.399 . S
C2650 C2649 1.399 . S
C2650 C2651 1.376 . S
C2651 H2638 0.930 . S
C2651 C2650 1.376 . S
C2651 C2652 1.388 . S
C2652 H2639 0.930 . S
C2652 C2651 1.388 . S
C2652 C2653 1.390 . S
C2653 C2652 1.390 . S
C2653 C2654 1.394 . S
C2653 C2659 1.465 . S
C2654 C2649 1.399 . S
C2654 C2653 1.394 . S
C2654 C2655 1.516 . S
C2655 C2654 1.516 . S
C2655 C2656 1.502 . S
C2655 C2657 1.561 . S
C2655 C2658 1.526 . S
C2656 H2640 0.959 . S
C2656 H2641 0.959 . S
C2656 H2642 0.961 . S
C2656 C2655 1.502 . S
C2657 H2643 0.960 . S
C2657 H2644 0.961 . S
C2657 H2645 0.959 . S
C2657 C2655 1.561 . S
C2658 C2655 1.526 . S
C2658 C2659 1.396 . S
C2658 C2663 1.390 . S
C2659 C2653 1.465 . S
C2659 C2658 1.396 . S
C2659 C2660 1.399 . S
C2660 H2646 0.929 . S
C2660 C2659 1.399 . S
C2660 C2661 1.385 . S
C2661 H2647 0.931 . S
C2661 C2660 1.385 . S
C2661 C2662 1.389 . S
C2662 C2661 1.389 . S
C2662 C2663 1.387 . S
C2663 H2648 0.930 . S
C2663 C2658 1.390 . S
C2663 C2662 1.387 . S
H2664 C2676 0.930 . S
H2665 C2678 0.930 . S
H2666 C2679 0.930 . S
H2667 C2683 0.959 . S
H2668 C2683 0.959 . S
H2669 C2683 0.961 . S
H2670 C2684 0.960 . S
H2671 C2684 0.961 . S
H2672 C2684 0.959 . S
H2673 C2687 0.929 . S
H2674 C2688 0.931 . S
H2675 C2690 0.930 . S
C2676 H2664 0.930 . S
C2676 C2677 1.399 . S
C2676 C2681 1.399 . S
C2677 C2676 1.399 . S
C2677 C2678 1.376 . S
C2678 H2665 0.930 . S
C2678 C2677 1.376 . S
C2678 C2679 1.388 . S
C2679 H2666 0.930 . S
C2679 C2678 1.388 . S
C2679 C2680 1.390 . S
C2680 C2679 1.390 . S
C2680 C2681 1.394 . S
C2680 C2686 1.465 . S
C2681 C2676 1.399 . S
C2681 C2680 1.394 . S
C2681 C2682 1.516 . S
C2682 C2681 1.516 . S
C2682 C2683 1.502 . S
C2682 C2684 1.561 . S
C2682 C2685 1.526 . S
C2683 H2667 0.959 . S
C2683 H2668 0.959 . S
C2683 H2669 0.961 . S
C2683 C2682 1.502 . S
C2684 H2670 0.960 . S
C2684 H2671 0.961 . S
C2684 H2672 0.959 . S
C2684 C2682 1.561 . S
C2685 C2682 1.526 . S
C2685 C2686 1.396 . S
C2685 C2690 1.390 . S
C2686 C2680 1.465 . S
C2686 C2685 1.396 . S
C2686 C2687 1.399 . S
C2687 H2673 0.929 . S
C2687 C2686 1.399 . S
C2687 C2688 1.385 . S
C2688 H2674 0.931 . S
C2688 C2687 1.385 . S
C2688 C2689 1.389 . S
C2689 C2688 1.389 . S
C2689 C2690 1.387 . S
C2690 H2675 0.930 . S
C2690 C2685 1.390 . S
C2690 C2689 1.387 . S
H2691 C2703 0.930 . S
H2692 C2705 0.930 . S
H2693 C2706 0.930 . S
H2694 C2710 0.959 . S
H2695 C2710 0.959 . S
H2696 C2710 0.961 . S
H2697 C2711 0.960 . S
H2698 C2711 0.961 . S
H2699 C2711 0.959 . S
H2700 C2714 0.929 . S
H2701 C2715 0.931 . S
H2702 C2717 0.930 . S
C2703 H2691 0.930 . S
C2703 C2704 1.399 . S
C2703 C2708 1.399 . S
C2704 C2703 1.399 . S
C2704 C2705 1.376 . S
C2705 H2692 0.930 . S
C2705 C2704 1.376 . S
C2705 C2706 1.388 . S
C2706 H2693 0.930 . S
C2706 C2705 1.388 . S
C2706 C2707 1.390 . S
C2707 C2706 1.390 . S
C2707 C2708 1.394 . S
C2707 C2713 1.465 . S
C2708 C2703 1.399 . S
C2708 C2707 1.394 . S
C2708 C2709 1.516 . S
C2709 C2708 1.516 . S
C2709 C2710 1.502 . S
C2709 C2711 1.561 . S
C2709 C2712 1.526 . S
C2710 H2694 0.959 . S
C2710 H2695 0.959 . S
C2710 H2696 0.961 . S
C2710 C2709 1.502 . S
C2711 H2697 0.960 . S
C2711 H2698 0.961 . S
C2711 H2699 0.959 . S
C2711 C2709 1.561 . S
C2712 C2709 1.526 . S
C2712 C2713 1.396 . S
C2712 C2717 1.390 . S
C2713 C2707 1.465 . S
C2713 C2712 1.396 . S
C2713 C2714 1.399 . S
C2714 H2700 0.929 . S
C2714 C2713 1.399 . S
C2714 C2715 1.385 . S
C2715 H2701 0.931 . S
C2715 C2714 1.385 . S
C2715 C2716 1.389 . S
C2716 C2715 1.389 . S
C2716 C2717 1.387 . S
C2717 H2702 0.930 . S
C2717 C2712 1.390 . S
C2717 C2716 1.387 . S
C1273 C781 1.579 . S
C1285 C1086 1.512 . S
C1300 C871 1.458 . S
C1312 C1106 1.461 . S
C1327 C751 1.551 . S
C1339 C1129 1.568 . S
C1354 C691 1.466 . S
C1366 C1109 1.461 . S
C1393 C1126 1.393 . S
C1381 C571 1.377 . S
C1408 C601 1.441 . S
C1420 C1089 1.474 . S
C1447 C1096 1.564 . S
C1435 C661 1.483 . S
C1474 C1116 1.474 . S
C1462 C541 1.495 . S
C1489 C631 1.561 . S
C1501 C1121 1.569 . S
C1516 C811 1.451 . S
C1528 C1101 1.466 . S
C1543 C841 1.435 . S
C1555 C1136 1.395 . S
C1582 C1081 1.464 . S
C1570 C721 1.393 . S
C1609 C1146 1.556 . S
C1597 C61 1.544 . S
C1624 C151 1.468 . S
C1636 C1166 1.509 . S
C1651 C31 1.553 . S
C1663 C1189 1.567 . S
C1678 C1051 1.458 . S
C1690 C1169 1.438 . S
C1705 C931 1.348 . S
C1717 C1186 1.421 . S
C1732 C961 1.488 . S
C1744 C1149 1.455 . S
C1759 C1021 1.482 . S
C1771 C1156 1.566 . S
C1786 C901 1.452 . S
C1798 C1176 1.509 . S
C1825 C1181 1.543 . S
C1813 C991 1.568 . S
C1840 C91 1.452 . S
C1852 C1161 1.471 . S
C1879 C1196 1.422 . S
C1867 C121 1.415 . S
C1894 C1 1.383 . S
C1906 C1141 1.473 . S
C1933 C1206 1.567 . S
C1921 C421 1.546 . S
C1948 C511 1.475 . S
C1960 C1226 1.455 . S
C1987 C1249 1.565 . S
C1975 C391 1.555 . S
C2014 C1229 1.462 . S
C2002 C331 1.465 . S
C2041 C1246 1.400 . S
C2029 C211 1.355 . S
C2056 C241 1.448 . S
C2068 C1209 1.463 . S
C2083 C301 1.524 . S
C2095 C1216 1.546 . S
C2110 C181 1.462 . S
C2122 C1236 1.503 . S
C2149 C1241 1.580 . S
C2137 C271 1.572 . S
C2164 C451 1.466 . S
C2176 C1221 1.482 . S
C2191 C481 1.420 . S
C2203 C1256 1.418 . S
C2218 C361 1.383 . S
C2230 C1201 1.488 . S
C2245 C920 1.255 . S
C2257 C1099 1.220 1_565 S
C2284 C1119 1.625 . S
C2272 C980 1.678 . S
C2299 C1040 1.477 . S
C2311 C1128 1.428 . S
C2326 C380 1.578 . S
C2338 C1108 1.642 . S
C2353 C440 1.447 . S
C2365 C1139 1.440 . S
C2392 C1088 1.233 1_545 S
C2380 C500 1.190 . S
C2407 C200 1.240 . S
C2419 C1159 1.237 . S
C2434 C260 1.634 . S
C2446 C1179 1.599 . S
C2461 C320 1.476 . S
C2473 C1188 1.426 . S
C2488 C740 1.578 . S
C2500 C1168 1.635 . S
C2527 C1199 1.438 . S
C2515 C800 1.448 . S
C2542 C860 1.270 . S
C2554 C1148 1.264 . S
C2569 C560 1.255 . S
C2581 C1219 1.220 . S
C2596 C620 1.631 . S
C2608 C1239 1.607 . S
C2635 C1248 1.473 . S
C2623 C680 1.403 . S
C2650 C20 1.576 . S
C2662 C1228 1.632 . S
C2677 C80 1.448 . S
C2689 C1259 1.439 . S
C2704 C140 1.246 . S
C2716 C1208 1.278 . S
