# Generated by pormake.
# Topology pth, (4,4)-cn, num edge types: 1
# Building blocks:
#     Node 0, Type 0, BuildingBlock: CEKHIL_clean_sbu_0, # of connection points: 4
#     Node 1, Type 0, BuildingBlock: CEKHIL_clean_sbu_0, # of connection points: 4
#     Node 2, Type 0, BuildingBlock: CEKHIL_clean_sbu_0, # of connection points: 4
#     Node 3, Type 1, BuildingBlock: AZAVOO_clean_linker_0, # of connection points: 4
#     Node 4, Type 1, BuildingBlock: AZAVOO_clean_linker_0, # of connection points: 4
#     Node 5, Type 1, BuildingBlock: AZAVOO_clean_linker_0, # of connection points: 4
#     Edge 6, Type (0, 1), BuildingBlock: OJICUG_clean_linker_0, # of connection points: 2
#     Edge 7, Type (0, 1), BuildingBlock: OJICUG_clean_linker_0, # of connection points: 2
#     Edge 8, Type (0, 1), BuildingBlock: OJICUG_clean_linker_0, # of connection points: 2
#     Edge 9, Type (0, 1), BuildingBlock: OJICUG_clean_linker_0, # of connection points: 2
#     Edge 10, Type (0, 1), BuildingBlock: OJICUG_clean_linker_0, # of connection points: 2
#     Edge 11, Type (0, 1), BuildingBlock: OJICUG_clean_linker_0, # of connection points: 2
#     Edge 12, Type (0, 1), BuildingBlock: OJICUG_clean_linker_0, # of connection points: 2
#     Edge 13, Type (0, 1), BuildingBlock: OJICUG_clean_linker_0, # of connection points: 2
#     Edge 14, Type (0, 1), BuildingBlock: OJICUG_clean_linker_0, # of connection points: 2
#     Edge 15, Type (0, 1), BuildingBlock: OJICUG_clean_linker_0, # of connection points: 2
#     Edge 16, Type (0, 1), BuildingBlock: OJICUG_clean_linker_0, # of connection points: 2
#     Edge 17, Type (0, 1), BuildingBlock: OJICUG_clean_linker_0, # of connection points: 2
# Relax obj value: 0.122
# Max RMSD: 0.225
# Mean RMSD: 0.145
data_MOF--net-pth--node1-CEKHIL_clean_sbu_0--node2-AZAVOO_clean_linker_0--edge1-OJICUG_clean_linker_0
_symmetry_space_group_name_H-M    P1
_symmetry_Int_Tables_number       1
_symmetry_cell_setting            triclinic
loop_
_symmetry_equiv_pos_as_xyz
'x, y, z'
_cell_length_a     19.98314
_cell_length_b     20.314937
_cell_length_c     55.123272
_cell_angle_alpha  93.606079
_cell_angle_beta   88.555655
_cell_angle_gamma 120.35467
loop_
_atom_site_label
_atom_site_type_symbol
_atom_site_fract_x
_atom_site_fract_y
_atom_site_fract_z
_atom_type_partial_charge
Co0 Co 0.13164 0.08396 0.09953 0.0
O1 O 0.07893 0.98997 0.11558 0.0
O2 O 0.189 0.03053 0.09538 0.0
C3 C 0.12432 0.1555 0.1312 0.0
O4 O 0.20374 0.17822 0.08113 0.0
Co5 Co 0.04969 0.17367 0.08947 0.0
O6 O 0.15314 0.25446 0.07933 0.0
C7 C 0.02253 0.04191 0.05639 0.0
C8 C 0.13545 0.97943 0.10869 0.0
C9 C 0.2078 0.2404 0.07518 0.0
O10 O 0.06954 0.03167 0.06897 0.0
O11 O 0.00457 0.0931 0.0621 0.0
O12 O 0.17974 0.13989 0.12997 0.0
O13 O 0.07207 0.12385 0.11423 0.0
Co14 Co 0.06278 0.08728 0.41061 0.0
O15 O 0.00737 0.11511 0.38937 0.0
O16 O 0.11326 0.19769 0.41009 0.0
C17 C 0.06577 0.99789 0.38482 0.0
O18 O 0.13646 0.07892 0.43351 0.0
Co19 Co 0.98362 0.92011 0.42759 0.0
O20 O 0.08937 0.95449 0.43957 0.0
C21 C 0.9535 0.0343 0.45394 0.0
C22 C 0.06025 0.18571 0.39433 0.0
C23 C 0.14192 0.02464 0.44242 0.0
O24 O 0.99755 0.08634 0.43943 0.0
O25 O 0.93802 0.96491 0.45133 0.0
O26 O 0.11546 0.06984 0.38276 0.0
O27 O 0.01117 0.98323 0.40031 0.0
Co28 Co 0.09236 0.11662 0.75081 0.0
O29 O 0.1691 0.16232 0.72608 0.0
O30 O 0.15357 0.06696 0.74746 0.0
C31 C 0.99416 0.10817 0.72888 0.0
O32 O 0.01795 0.05218 0.7771 0.0
Co33 Co 0.00959 0.19788 0.77408 0.0
O34 O 0.94367 0.10105 0.79001 0.0
C35 C 0.17174 0.25213 0.78757 0.0
C36 C 0.1914 0.11449 0.73073 0.0
C37 C 0.96189 0.04935 0.78996 0.0
O38 O 0.16805 0.19372 0.77576 0.0
O39 O 0.11648 0.26676 0.78785 0.0
O40 O 0.01278 0.05541 0.72619 0.0
O41 O 0.03773 0.16591 0.7435 0.0
H42 H 0.07324 0.37734 0.105 0.0
H43 H 0.26 0.0913 0.28292 0.0
H44 H 0.99262 0.41234 0.23053 0.0
H45 H 0.98733 0.30945 0.20447 0.0
H46 H 0.21607 0.37009 0.22973 0.0
H47 H 0.22318 0.47816 0.25394 0.0
H48 H 0.02731 0.52539 0.1932 0.0
H49 H 0.02672 0.46264 0.15374 0.0
H50 H 0.25397 0.49838 0.16961 0.0
H51 H 0.25423 0.56195 0.20883 0.0
H52 H 0.03316 0.67922 0.21866 0.0
H53 H 0.03473 0.75009 0.18457 0.0
H54 H 0.25963 0.78381 0.16357 0.0
H55 H 0.25934 0.71648 0.19901 0.0
H56 H 0.02876 0.7133 0.26793 0.0
H57 H 0.04525 0.83956 0.27829 0.0
H58 H 0.29103 0.9429 0.26443 0.0
H59 H 0.2738 0.81602 0.25448 0.0
H60 H -0.00038 0.5986 0.30138 0.0
H61 H 0.98586 0.68231 0.33219 0.0
H62 H 0.23538 0.82499 0.33674 0.0
H63 H 0.24824 0.74136 0.30544 0.0
H64 H 0.98746 0.46356 0.29466 0.0
H65 H 0.96897 0.38062 0.3276 0.0
H66 H 0.21613 0.46746 0.32945 0.0
H67 H 0.23385 0.5524 0.29727 0.0
O68 O 0.07589 0.40496 0.12026 0.0
O69 O 0.19238 0.42416 0.12945 0.0
O70 O 0.12505 0.98471 0.28563 0.0
O71 O 0.25162 0.04086 0.27845 0.0
C72 C 0.12475 0.53264 0.24887 0.0
C73 C 0.13741 0.57824 0.22889 0.0
C74 C 0.144 0.65048 0.23265 0.0
C75 C 0.14127 0.67855 0.2565 0.0
C76 C 0.13095 0.63391 0.27655 0.0
C77 C 0.12263 0.5608 0.27276 0.0
C78 C 0.10882 0.45356 0.2437 0.0
C79 C 0.04025 0.40136 0.2312 0.0
C80 C 0.03761 0.34232 0.21614 0.0
C81 C 0.10267 0.33281 0.21408 0.0
C82 C 0.16628 0.37779 0.22988 0.0
C83 C 0.16979 0.43851 0.24434 0.0
C84 C 0.1408 0.54818 0.20384 0.0
C85 C 0.07745 0.5208 0.18791 0.0
C86 C 0.07706 0.4845 0.16547 0.0
C87 C 0.14008 0.47499 0.15859 0.0
C88 C 0.20442 0.50454 0.17435 0.0
C89 C 0.20483 0.54106 0.19673 0.0
C90 C 0.1465 0.69357 0.21152 0.0
C91 C 0.08315 0.70261 0.20686 0.0
C92 C 0.08365 0.74203 0.18701 0.0
C93 C 0.14697 0.77209 0.171 0.0
C94 C 0.21018 0.76204 0.17557 0.0
C95 C 0.21004 0.72334 0.19574 0.0
C96 C 0.15019 0.75561 0.26064 0.0
C97 C 0.08606 0.76333 0.26709 0.0
C98 C 0.09565 0.83549 0.27298 0.0
C99 C 0.16958 0.90135 0.2723 0.0
C100 C 0.23338 0.89339 0.26521 0.0
C101 C 0.2237 0.82109 0.25941 0.0
C102 C 0.12487 0.66411 0.30115 0.0
C103 C 0.05134 0.64563 0.30995 0.0
C104 C 0.04364 0.69409 0.32746 0.0
C105 C 0.10953 0.76147 0.33646 0.0
C106 C 0.18347 0.77456 0.32969 0.0
C107 C 0.19105 0.72615 0.31214 0.0
C108 C 0.11193 0.51382 0.29362 0.0
C109 C 0.03757 0.46531 0.30248 0.0
C110 C 0.02719 0.41757 0.32118 0.0
C111 C 0.09101 0.41679 0.33118 0.0
C112 C 0.16573 0.46711 0.32253 0.0
C113 C 0.17601 0.51528 0.30398 0.0
C114 C 0.13806 0.43338 0.13523 0.0
C115 C 0.18039 0.97797 0.27917 0.0
H116 H 0.75588 0.10264 0.43725 0.0
H117 H 0.19781 0.18089 0.64343 0.0
H118 H 0.66636 -0.00032 0.57362 0.0
H119 H 0.75295 0.98374 0.54568 0.0
H120 H 0.8916 0.22882 0.54137 0.0
H121 H 0.80354 0.24406 0.56983 0.0
H122 H 0.60376 0.01796 0.53136 0.0
H123 H 0.65729 0.03014 0.49042 0.0
H124 H 0.73687 0.272 0.49611 0.0
H125 H 0.68404 0.25912 0.53725 0.0
H126 H 0.46929 0.00674 0.53792 0.0
H127 H 0.38176 0.98645 0.50482 0.0
H128 H 0.40633 0.20789 0.52322 0.0
H129 H 0.49964 0.2301 0.55533 0.0
H130 H 0.37675 0.00695 0.59108 0.0
H131 H 0.25704 0.00128 0.60546 0.0
H132 H 0.38599 0.24404 0.62453 0.0
H133 H 0.50493 0.24887 0.60988 0.0
H134 H 0.46559 0.00011 0.63427 0.0
H135 H 0.38213 0.99639 0.66801 0.0
H136 H 0.52188 0.24174 0.67939 0.0
H137 H 0.60341 0.24499 0.64519 0.0
H138 H 0.65346 0.00456 0.61585 0.0
H139 H 0.73779 -0.00016 0.64578 0.0
H140 H 0.80048 0.22851 0.67335 0.0
H141 H 0.72398 0.23554 0.64109 0.0
O142 O 0.73311 0.09872 0.45317 0.0
O143 O 0.76844 0.22178 0.45632 0.0
O144 O 0.17878 0.0584 0.62507 0.0
O145 O 0.24358 0.18202 0.63668 0.0
C146 C 0.66036 0.12862 0.58163 0.0
C147 C 0.61469 0.13196 0.56304 0.0
C148 C 0.54492 0.13041 0.56878 0.0
C149 C 0.52282 0.13001 0.59325 0.0
C150 C 0.56883 0.12774 0.61198 0.0
C151 C 0.6372 0.12583 0.60621 0.0
C152 C 0.72917 0.12305 0.57418 0.0
C153 C 0.71835 0.05029 0.56811 0.0
C154 C 0.76761 0.0413 0.55167 0.0
C155 C 0.82861 0.10501 0.54089 0.0
C156 C 0.84427 0.17854 0.549 0.0
C157 C 0.79502 0.18748 0.56566 0.0
C158 C 0.64067 0.13779 0.53732 0.0
C159 C 0.63257 0.07346 0.5237 0.0
C160 C 0.66318 0.08059 0.50031 0.0
C161 C 0.70173 0.15213 0.49003 0.0
C162 C 0.70772 0.21611 0.50352 0.0
C163 C 0.67735 0.20891 0.52696 0.0
C164 C 0.49108 0.11997 0.54894 0.0
C165 C 0.45687 0.05147 0.53455 0.0
C166 C 0.40601 0.03965 0.5158 0.0
C167 C 0.38607 0.09514 0.51149 0.0
C168 C 0.42098 0.16428 0.52586 0.0
C169 C 0.47348 0.17674 0.54439 0.0
C170 C 0.44925 0.12828 0.59947 0.0
C171 C 0.37866 0.05895 0.59803 0.0
C172 C 0.31055 0.05586 0.60638 0.0
C173 C 0.31207 0.12218 0.61631 0.0
C174 C 0.38279 0.1919 0.61708 0.0
C175 C 0.45073 0.19491 0.60866 0.0
C176 C 0.54061 0.12279 0.63731 0.0
C177 C 0.48041 0.05256 0.64483 0.0
C178 C 0.4325 0.05061 0.66405 0.0
C179 C 0.44452 0.11898 0.676 0.0
C180 C 0.51043 0.18828 0.67021 0.0
C181 C 0.55796 0.19018 0.65094 0.0
C182 C 0.68414 0.12112 0.62577 0.0
C183 C 0.68715 0.05432 0.62795 0.0
C184 C 0.73431 0.05122 0.64561 0.0
C185 C 0.77735 0.11401 0.66222 0.0
C186 C 0.77084 0.17963 0.6606 0.0
C187 C 0.72588 0.18353 0.64234 0.0
C188 C 0.73633 0.15991 0.46549 0.0
C189 C 0.24062 0.11866 0.6262 0.0
H190 H 0.83881 0.78938 0.07422 0.0
H191 H 0.20142 0.14995 0.88666 0.0
H192 H 0.71433 0.79474 0.93795 0.0
H193 H 0.80707 0.89943 0.96468 0.0
H194 H 0.94415 0.78965 0.96722 0.0
H195 H 0.84817 0.68305 0.94125 0.0
H196 H 0.66495 0.71905 0.98336 0.0
H197 H 0.72911 0.76279 0.0231 0.0
H198 H 0.79844 0.59246 0.01548 0.0
H199 H 0.73498 0.55009 0.9755 0.0
H200 H 0.52494 0.59583 0.98101 0.0
H201 H 0.44414 0.53039 0.01522 0.0
H202 H 0.46065 0.33061 0.99355 0.0
H203 H 0.54688 0.39948 0.96038 0.0
H204 H 0.4201 0.51542 0.926 0.0
H205 H 0.29229 0.40588 0.91513 0.0
H206 H 0.39699 0.26648 0.89978 0.0
H207 H 0.52436 0.37663 0.91063 0.0
H208 H 0.50714 0.61334 0.8846 0.0
H209 H 0.41276 0.54592 0.85205 0.0
H210 H 0.50232 0.39246 0.83935 0.0
H211 H 0.60123 0.46517 0.87059 0.0
H212 H 0.62664 0.72801 0.88873 0.0
H213 H 0.69301 0.82118 0.85825 0.0
H214 H 0.87649 0.76694 0.85583 0.0
H215 H 0.80592 0.66933 0.88522 0.0
O216 O 0.81195 0.76972 0.05876 0.0
O217 O 0.84255 0.67848 0.05464 0.0
O218 O 0.20001 0.26787 0.89967 0.0
O219 O 0.25093 0.19369 0.89162 0.0
C220 C 0.70313 0.6567 0.93206 0.0
C221 C 0.66281 0.60981 0.95146 0.0
C222 C 0.58998 0.54352 0.94731 0.0
C223 C 0.55913 0.52191 0.92354 0.0
C224 C 0.59956 0.56827 0.90404 0.0
C225 C 0.67105 0.6368 0.90835 0.0
C226 C 0.77405 0.73099 0.93798 0.0
C227 C 0.76639 0.79517 0.94328 0.0
C228 C 0.81961 0.85499 0.95878 0.0
C229 C 0.88201 0.85192 0.96885 0.0
C230 C 0.8953 0.79256 0.96052 0.0
C231 C 0.84143 0.73228 0.94525 0.0
C232 C 0.69601 0.63191 0.97649 0.0
C233 C 0.69391 0.69118 0.99033 0.0
C234 C 0.73055 0.716 0.01304 0.0
C235 C 0.76924 0.68137 0.02243 0.0
C236 C 0.76935 0.62051 0.00875 0.0
C237 C 0.73295 0.59599 0.98597 0.0
C238 C 0.54195 0.50252 0.96825 0.0
C239 C 0.51228 0.53842 0.98394 0.0
C240 C 0.46523 0.50044 0.00333 0.0
C241 C 0.44498 0.42472 0.00712 0.0
C242 C 0.47571 0.38915 0.99146 0.0
C243 C 0.52421 0.42797 0.97228 0.0
C244 C 0.48113 0.45365 0.91916 0.0
C245 C 0.41501 0.46088 0.92056 0.0
C246 C 0.34224 0.39836 0.91423 0.0
C247 C 0.33447 0.32744 0.9065 0.0
C248 C 0.4009 0.32022 0.90562 0.0
C249 C 0.47363 0.38286 0.91191 0.0
C250 C 0.5622 0.54526 0.87968 0.0
C251 C 0.50975 0.56842 0.87374 0.0
C252 C 0.45415 0.52809 0.85556 0.0
C253 C 0.44809 0.46205 0.84352 0.0
C254 C 0.50512 0.44302 0.84809 0.0
C255 C 0.56214 0.4848 0.8659 0.0
C256 C 0.71015 0.69022 0.88872 0.0
C257 C 0.67974 0.7343 0.88102 0.0
C258 C 0.71889 0.78891 0.86392 0.0
C259 C 0.79074 0.8024 0.85458 0.0
C260 C 0.82087 0.75757 0.86226 0.0
C261 C 0.78086 0.70196 0.87916 0.0
C262 C 0.81002 0.7094 0.04625 0.0
C263 C 0.25764 0.26141 0.89911 0.0
C264 C 0.18527 0.26367 0.16225 0.0
C265 C 0.11825 0.20101 0.15198 0.0
H266 H 0.23293 0.35602 0.18906 0.0
C267 C 0.04611 0.17965 0.16256 0.0
H268 H 0.24154 0.28118 0.15427 0.0
C269 C 0.04118 0.22 0.18336 0.0
C270 C 0.10812 0.28421 0.19354 0.0
H271 H 0.99376 0.13048 0.15513 0.0
H272 H 0.98476 0.20053 0.19141 0.0
C273 C 0.18021 0.30565 0.18251 0.0
C274 C 0.91095 0.0141 0.49697 0.0
C275 C 0.92456 0.0559 0.47621 0.0
H276 H 0.8741 0.99916 0.53389 0.0
C277 C 0.91272 0.11852 0.4775 0.0
H278 H 0.92151 0.96674 0.49681 0.0
C279 C 0.8844 0.13663 0.49887 0.0
C280 C 0.86866 0.09316 0.51942 0.0
H281 H 0.92325 0.15205 0.46184 0.0
H282 H 0.87222 0.18287 0.49896 0.0
C283 C 0.88404 0.03285 0.51832 0.0
C284 C 0.92144 0.91773 0.80323 0.0
C285 C 0.91834 0.98541 0.80617 0.0
H286 H 0.88232 0.80616 0.81568 0.0
C287 C 0.87359 0.99235 0.82515 0.0
H288 H 0.95523 0.91045 0.78875 0.0
C289 C 0.83312 0.93345 0.84081 0.0
C290 C 0.83506 0.86514 0.83777 0.0
H291 H 0.87064 0.04401 0.82823 0.0
H292 H 0.80116 0.94223 0.85557 0.0
C293 C 0.87994 0.8581 0.81877 0.0
C294 C 0.07531 0.84893 0.12345 0.0
C295 C 0.14258 0.91807 0.11885 0.0
H296 H 0.0246 0.74641 0.14248 0.0
C297 C 0.21379 0.93341 0.12839 0.0
H298 H 0.01978 0.83579 0.11614 0.0
C299 C 0.21633 0.88362 0.1443 0.0
C300 C 0.14777 0.81711 0.15055 0.0
H301 H 0.26631 0.98692 0.12528 0.0
H302 H 0.27106 0.90019 0.15297 0.0
C303 C 0.07806 0.79838 0.13882 0.0
C304 C 0.20396 0.98672 0.47298 0.0
C305 C 0.20779 0.0435 0.45872 0.0
H306 H 0.25458 0.95902 0.50117 0.0
C307 C 0.27191 0.11802 0.46158 0.0
H308 H 0.15508 0.92887 0.47161 0.0
C309 C 0.33058 0.13518 0.4785 0.0
C310 C 0.32577 0.07826 0.49297 0.0
H311 H 0.27652 0.1631 0.45091 0.0
H312 H 0.37963 0.19286 0.48019 0.0
C313 C 0.26159 0.00398 0.48997 0.0
C314 C 0.23857 0.34785 0.82206 0.0
C315 C 0.24274 0.305 0.80172 0.0
H316 H 0.29874 0.42823 0.85154 0.0
C317 C 0.31511 0.31413 0.79494 0.0
H318 H 0.18346 0.34126 0.82793 0.0
C319 C 0.38224 0.36616 0.8081 0.0
C320 C 0.37809 0.40917 0.82853 0.0
H321 H 0.32005 0.28209 0.77923 0.0
H322 H 0.43733 0.37299 0.80215 0.0
C323 C 0.3051 0.39852 0.83544 0.0
C324 C 0.94848 0.17849 0.70531 0.0
C325 C 0.93582 0.10892 0.71326 0.0
H326 H 0.91207 0.23471 0.68225 0.0
C327 C 0.86965 0.04089 0.70515 0.0
H328 H -0.00022 0.23177 0.71104 0.0
C329 C 0.8168 0.04252 0.68933 0.0
C330 C 0.83051 0.11209 0.68053 0.0
H331 H 0.85851 0.98653 0.71119 0.0
H332 H 0.76539 0.98896 0.68404 0.0
C333 C 0.89736 0.18002 0.68887 0.0
C334 C 0.97899 0.92046 0.03097 0.0
C335 C 0.98976 0.99433 0.03368 0.0
H336 H 0.93529 0.81719 0.00869 0.0
C337 C 0.97005 0.02319 0.0143 0.0
H338 H 0.99353 0.89671 0.04564 0.0
C339 C 0.9389 0.9786 0.99275 0.0
C340 C 0.9253 0.90349 0.99026 0.0
H341 H 0.97912 0.08058 0.01571 0.0
H342 H 0.92467 0.00283 0.97817 0.0
C343 C 0.94643 0.87527 0.0096 0.0
C344 C 0.13653 0.95589 0.3557 0.0
C345 C 0.07717 0.93732 0.37275 0.0
H346 H 0.19277 0.91501 0.33079 0.0
C347 C 0.03002 0.86073 0.37851 0.0
H348 H 0.17363 0.01437 0.35081 0.0
C349 C 0.04183 0.80372 0.36734 0.0
C350 C 0.10083 0.82214 0.3501 0.0
H351 H 0.98396 0.84468 0.39167 0.0
H352 H 0.0046 0.7452 0.37214 0.0
C353 C 0.14808 0.89895 0.34444 0.0
C354 C 0.2804 0.06221 0.7215 0.0
C355 C 0.25746 0.11573 0.71757 0.0
H356 H 0.35845 0.02152 0.71158 0.0
C357 C 0.29819 0.17131 0.70065 0.0
H358 H 0.2501 0.01872 0.73444 0.0
C359 C 0.35999 0.17318 0.6878 0.0
C360 C 0.38278 0.11945 0.69146 0.0
H361 H 0.28194 0.21325 0.6971 0.0
H362 H 0.38852 0.21558 0.67442 0.0
C363 C 0.34234 0.06381 0.70845 0.0
C364 C 0.26965 0.35035 0.0483 0.0
C365 C 0.27384 0.29342 0.06026 0.0
H366 H 0.31801 0.43392 0.02178 0.0
C367 C 0.33772 0.28322 0.0558 0.0
H368 H 0.22109 0.35958 0.05109 0.0
C369 C 0.39465 0.32726 0.03913 0.0
C370 C 0.38854 0.38194 0.02638 0.0
H371 H 0.34292 0.24006 0.06477 0.0
H372 H 0.4429 0.31774 0.03603 0.0
C373 C 0.32579 0.3935 0.03148 0.0
C374 C 0.12583 0.32321 0.38357 0.0
C375 C 0.06374 0.24772 0.38053 0.0
H376 H 0.18253 0.43635 0.37076 0.0
C377 C 0.00793 0.22997 0.36241 0.0
H378 H 0.16974 0.33876 0.39738 0.0
C379 C 0.0157 0.28534 0.34698 0.0
C380 C 0.07931 0.36029 0.3493 0.0
H381 H 0.95941 0.17234 0.35949 0.0
H382 H 0.97335 0.26826 0.33254 0.0
C383 C 0.13348 0.37894 0.36815 0.0
loop_
_geom_bond_atom_site_label_1
_geom_bond_atom_site_label_2
_geom_bond_distance
_geom_bond_site_symmetry_2
_ccdc_geom_bond_type
Co0 O1 2.216 . S
Co0 O2 2.091 . S
Co0 O4 2.004 . S
Co0 O10 2.021 . S
Co0 O12 2.137 . S
Co0 O13 2.244 . S
O1 Co0 2.216 . S
O1 C8 1.247 1_545 S
O2 Co0 2.091 . S
O2 C8 1.261 1_545 S
C3 O12 1.247 . S
C3 O13 1.272 . S
O4 Co0 2.004 . S
O4 C9 1.259 . S
Co5 O6 2.061 . S
Co5 O11 2.052 . S
Co5 O13 2.135 . S
O6 Co5 2.061 . S
O6 C9 1.235 . S
C7 O10 1.238 . S
C7 O11 1.241 . S
C8 O1 1.247 1_565 S
C8 O2 1.261 1_565 S
C9 O4 1.259 . S
C9 O6 1.235 . S
O10 Co0 2.021 . S
O10 C7 1.238 . S
O11 Co5 2.052 . S
O11 C7 1.241 . S
O12 Co0 2.137 . S
O12 C3 1.247 . S
O13 Co0 2.244 . S
O13 C3 1.272 . S
O13 Co5 2.135 . S
Co14 O15 2.216 . S
Co14 O16 2.091 . S
Co14 O18 2.004 . S
Co14 O24 2.021 . S
Co14 O26 2.137 . S
Co14 O27 2.244 1_545 S
O15 Co14 2.216 . S
O15 C22 1.247 . S
O16 Co14 2.091 . S
O16 C22 1.261 . S
C17 O26 1.247 1_565 S
C17 O27 1.272 . S
O18 Co14 2.004 . S
O18 C23 1.259 . S
Co19 O20 2.061 1_565 S
Co19 O25 2.052 1_455 S
Co19 O27 2.135 . S
O20 Co19 2.061 1_545 S
O20 C23 1.235 . S
C21 O24 1.238 . S
C21 O25 1.241 1_445 S
C22 O15 1.247 . S
C22 O16 1.261 . S
C23 O18 1.259 . S
C23 O20 1.235 . S
O24 Co14 2.021 . S
O24 C21 1.238 . S
O25 Co19 2.052 1_655 S
O25 C21 1.241 1_665 S
O26 Co14 2.137 . S
O26 C17 1.247 1_545 S
O27 Co14 2.244 1_565 S
O27 C17 1.272 . S
O27 Co19 2.135 . S
Co28 O29 2.216 . S
Co28 O30 2.091 . S
Co28 O32 2.004 . S
Co28 O38 2.021 . S
Co28 O40 2.137 . S
Co28 O41 2.244 . S
O29 Co28 2.216 . S
O29 C36 1.247 . S
O30 Co28 2.091 . S
O30 C36 1.261 . S
C31 O40 1.247 . S
C31 O41 1.272 . S
O32 Co28 2.004 . S
O32 C37 1.259 . S
Co33 O34 2.061 . S
Co33 O39 2.052 . S
Co33 O41 2.135 . S
O34 Co33 2.061 . S
O34 C37 1.235 . S
C35 O38 1.238 . S
C35 O39 1.241 . S
C36 O29 1.247 . S
C36 O30 1.261 . S
C37 O32 1.259 . S
C37 O34 1.235 . S
O38 Co28 2.021 . S
O38 C35 1.238 . S
O39 Co33 2.052 . S
O39 C35 1.241 . S
O40 Co28 2.137 . S
O40 C31 1.247 . S
O41 Co28 2.244 . S
O41 C31 1.272 . S
O41 Co33 2.135 . S
H42 O68 0.856 . S
H43 O71 0.854 . S
H44 C79 0.930 1_655 S
H45 C80 0.930 . S
H46 C82 0.930 . S
H47 C83 0.930 . S
H48 C85 0.931 1_655 S
H49 C86 0.930 . S
H50 C88 0.930 . S
H51 C89 0.929 . S
H52 C91 0.930 1_655 S
H53 C92 0.931 . S
H54 C94 0.930 . S
H55 C95 0.929 . S
H56 C97 0.931 1_655 S
H57 C98 0.930 1_655 S
H58 C100 0.930 . S
H59 C101 0.932 . S
H60 C103 0.924 1_655 S
H61 C104 0.929 . S
H62 C106 0.931 . S
H63 C107 0.930 . S
H64 C109 0.929 1_655 S
H65 C110 0.931 1_655 S
H66 C112 0.930 . S
H67 C113 0.929 . S
O68 H42 0.856 . S
O68 C114 1.300 . S
O69 C114 1.209 . S
O70 C115 1.199 . S
O71 H43 0.854 . S
O71 C115 1.297 1_545 S
C72 C73 1.404 . S
C72 C77 1.397 . S
C72 C78 1.492 . S
C73 C72 1.404 . S
C73 C74 1.396 . S
C73 C84 1.492 . S
C74 C73 1.396 . S
C74 C75 1.397 . S
C74 C90 1.509 . S
C75 C74 1.397 . S
C75 C76 1.412 . S
C75 C96 1.485 . S
C76 C75 1.412 . S
C76 C77 1.388 . S
C76 C102 1.490 . S
C77 C72 1.397 . S
C77 C76 1.388 . S
C77 C108 1.519 . S
C78 C72 1.492 . S
C78 C79 1.363 . S
C78 C83 1.390 . S
C79 H44 0.930 1_455 S
C79 C78 1.363 . S
C79 C80 1.372 1_455 S
C80 H45 0.930 . S
C80 C79 1.372 1_655 S
C80 C81 1.383 1_655 S
C81 C80 1.383 1_455 S
C81 C82 1.395 . S
C82 H46 0.930 . S
C82 C81 1.395 . S
C82 C83 1.362 . S
C83 H47 0.930 . S
C83 C78 1.390 . S
C83 C82 1.362 . S
C84 C73 1.492 . S
C84 C85 1.377 . S
C84 C89 1.397 . S
C85 H48 0.931 1_455 S
C85 C84 1.377 . S
C85 C86 1.376 . S
C86 H49 0.930 . S
C86 C85 1.376 . S
C86 C87 1.376 . S
C87 C86 1.376 . S
C87 C88 1.378 . S
C87 C114 1.486 . S
C88 H50 0.930 . S
C88 C87 1.378 . S
C88 C89 1.376 . S
C89 H51 0.929 . S
C89 C84 1.397 . S
C89 C88 1.376 . S
C90 C74 1.509 . S
C90 C91 1.391 . S
C90 C95 1.386 . S
C91 H52 0.930 1_455 S
C91 C90 1.391 . S
C91 C92 1.375 . S
C92 H53 0.931 . S
C92 C91 1.375 . S
C92 C93 1.375 . S
C93 C92 1.375 . S
C93 C94 1.361 . S
C94 H54 0.930 . S
C94 C93 1.361 . S
C94 C95 1.399 . S
C95 H55 0.929 . S
C95 C90 1.386 . S
C95 C94 1.399 . S
C96 C75 1.485 . S
C96 C97 1.394 . S
C96 C101 1.360 . S
C97 H56 0.931 1_455 S
C97 C96 1.394 . S
C97 C98 1.372 . S
C98 H57 0.930 1_455 S
C98 C97 1.372 . S
C98 C99 1.397 . S
C99 C98 1.397 . S
C99 C100 1.390 . S
C99 C115 1.476 . S
C100 H58 0.930 . S
C100 C99 1.390 . S
C100 C101 1.366 . S
C101 H59 0.932 . S
C101 C96 1.360 . S
C101 C100 1.366 . S
C102 C76 1.490 . S
C102 C103 1.389 . S
C102 C107 1.386 . S
C103 H60 0.924 1_455 S
C103 C102 1.389 . S
C103 C104 1.378 1_455 S
C104 H61 0.929 . S
C104 C103 1.378 1_655 S
C104 C105 1.371 1_655 S
C105 C104 1.371 1_455 S
C105 C106 1.380 . S
C106 H62 0.931 . S
C106 C105 1.380 . S
C106 C107 1.387 . S
C107 H63 0.930 . S
C107 C102 1.386 . S
C107 C106 1.387 . S
C108 C77 1.519 . S
C108 C109 1.377 . S
C108 C113 1.361 . S
C109 H64 0.929 1_455 S
C109 C108 1.377 . S
C109 C110 1.386 . S
C110 H65 0.931 1_455 S
C110 C109 1.386 . S
C110 C111 1.363 . S
C111 C110 1.363 . S
C111 C112 1.385 . S
C112 H66 0.930 . S
C112 C111 1.385 . S
C112 C113 1.396 . S
C113 H67 0.929 . S
C113 C108 1.361 . S
C113 C112 1.396 . S
C114 O68 1.300 . S
C114 O69 1.209 . S
C114 C87 1.486 . S
C115 O70 1.199 . S
C115 O71 1.297 1_565 S
C115 C99 1.476 . S
H116 O142 0.856 . S
H117 O145 0.854 . S
H118 C153 0.930 1_565 S
H119 C154 0.930 1_565 S
H120 C156 0.930 . S
H121 C157 0.930 . S
H122 C159 0.931 . S
H123 C160 0.930 . S
H124 C162 0.930 . S
H125 C163 0.929 . S
H126 C165 0.930 . S
H127 C166 0.931 . S
H128 C168 0.930 . S
H129 C169 0.929 . S
H130 C171 0.931 . S
H131 C172 0.930 . S
H132 C174 0.930 . S
H133 C175 0.932 . S
H134 C177 0.930 . S
H135 C178 0.929 1_565 S
H136 C180 0.931 . S
H137 C181 0.930 . S
H138 C183 0.929 . S
H139 C184 0.931 . S
H140 C186 0.930 . S
H141 C187 0.929 . S
O142 H116 0.856 . S
O142 C188 1.300 . S
O143 C188 1.209 . S
O144 C189 1.199 . S
O145 H117 0.854 . S
O145 C189 1.297 . S
C146 C147 1.404 . S
C146 C151 1.397 . S
C146 C152 1.492 . S
C147 C146 1.404 . S
C147 C148 1.396 . S
C147 C158 1.492 . S
C148 C147 1.396 . S
C148 C149 1.397 . S
C148 C164 1.509 . S
C149 C148 1.397 . S
C149 C150 1.412 . S
C149 C170 1.485 . S
C150 C149 1.412 . S
C150 C151 1.388 . S
C150 C176 1.490 . S
C151 C146 1.397 . S
C151 C150 1.388 . S
C151 C182 1.519 . S
C152 C146 1.492 . S
C152 C153 1.363 . S
C152 C157 1.390 . S
C153 H118 0.930 1_545 S
C153 C152 1.363 . S
C153 C154 1.372 . S
C154 H119 0.930 1_545 S
C154 C153 1.372 . S
C154 C155 1.383 . S
C155 C154 1.383 . S
C155 C156 1.395 . S
C156 H120 0.930 . S
C156 C155 1.395 . S
C156 C157 1.362 . S
C157 H121 0.930 . S
C157 C152 1.390 . S
C157 C156 1.362 . S
C158 C147 1.492 . S
C158 C159 1.377 . S
C158 C163 1.397 . S
C159 H122 0.931 . S
C159 C158 1.377 . S
C159 C160 1.376 . S
C160 H123 0.930 . S
C160 C159 1.376 . S
C160 C161 1.376 . S
C161 C160 1.376 . S
C161 C162 1.378 . S
C161 C188 1.486 . S
C162 H124 0.930 . S
C162 C161 1.378 . S
C162 C163 1.376 . S
C163 H125 0.929 . S
C163 C158 1.397 . S
C163 C162 1.376 . S
C164 C148 1.509 . S
C164 C165 1.391 . S
C164 C169 1.386 . S
C165 H126 0.930 . S
C165 C164 1.391 . S
C165 C166 1.375 . S
C166 H127 0.931 . S
C166 C165 1.375 . S
C166 C167 1.375 . S
C167 C166 1.375 . S
C167 C168 1.361 . S
C168 H128 0.930 . S
C168 C167 1.361 . S
C168 C169 1.399 . S
C169 H129 0.929 . S
C169 C164 1.386 . S
C169 C168 1.399 . S
C170 C149 1.485 . S
C170 C171 1.394 . S
C170 C175 1.360 . S
C171 H130 0.931 . S
C171 C170 1.394 . S
C171 C172 1.372 . S
C172 H131 0.930 . S
C172 C171 1.372 . S
C172 C173 1.397 . S
C173 C172 1.397 . S
C173 C174 1.390 . S
C173 C189 1.476 . S
C174 H132 0.930 . S
C174 C173 1.390 . S
C174 C175 1.366 . S
C175 H133 0.932 . S
C175 C170 1.360 . S
C175 C174 1.366 . S
C176 C150 1.490 . S
C176 C177 1.380 . S
C176 C181 1.386 . S
C177 H134 0.930 . S
C177 C176 1.380 . S
C177 C178 1.381 . S
C178 H135 0.929 1_545 S
C178 C177 1.381 . S
C178 C179 1.371 . S
C179 C178 1.371 . S
C179 C180 1.380 . S
C180 H136 0.931 . S
C180 C179 1.380 . S
C180 C181 1.387 . S
C181 H137 0.930 . S
C181 C176 1.386 . S
C181 C180 1.387 . S
C182 C151 1.519 . S
C182 C183 1.377 . S
C182 C187 1.361 . S
C183 H138 0.929 . S
C183 C182 1.377 . S
C183 C184 1.386 . S
C184 H139 0.931 . S
C184 C183 1.386 . S
C184 C185 1.363 . S
C185 C184 1.363 . S
C185 C186 1.385 . S
C186 H140 0.930 . S
C186 C185 1.385 . S
C186 C187 1.396 . S
C187 H141 0.929 . S
C187 C182 1.361 . S
C187 C186 1.396 . S
C188 O142 1.300 . S
C188 O143 1.209 . S
C188 C161 1.486 . S
C189 O144 1.199 . S
C189 O145 1.297 . S
C189 C173 1.476 . S
H190 O216 0.856 . S
H191 O219 0.854 . S
H192 C227 0.930 . S
H193 C228 0.930 . S
H194 C230 0.930 . S
H195 C231 0.930 . S
H196 C233 0.931 . S
H197 C234 0.930 . S
H198 C236 0.930 . S
H199 C237 0.929 . S
H200 C239 0.930 . S
H201 C240 0.931 1_554 S
H202 C242 0.930 . S
H203 C243 0.929 . S
H204 C245 0.931 . S
H205 C246 0.930 . S
H206 C248 0.930 . S
H207 C249 0.932 . S
H208 C251 0.930 . S
H209 C252 0.929 . S
H210 C254 0.931 . S
H211 C255 0.930 . S
H212 C257 0.929 . S
H213 C258 0.931 . S
H214 C260 0.930 . S
H215 C261 0.929 . S
O216 H190 0.856 . S
O216 C262 1.300 . S
O217 C262 1.209 . S
O218 C263 1.199 . S
O219 H191 0.854 . S
O219 C263 1.297 . S
C220 C221 1.404 . S
C220 C225 1.397 . S
C220 C226 1.492 . S
C221 C220 1.404 . S
C221 C222 1.396 . S
C221 C232 1.492 . S
C222 C221 1.396 . S
C222 C223 1.397 . S
C222 C238 1.509 . S
C223 C222 1.397 . S
C223 C224 1.412 . S
C223 C244 1.485 . S
C224 C223 1.412 . S
C224 C225 1.388 . S
C224 C250 1.490 . S
C225 C220 1.397 . S
C225 C224 1.388 . S
C225 C256 1.519 . S
C226 C220 1.492 . S
C226 C227 1.363 . S
C226 C231 1.390 . S
C227 H192 0.930 . S
C227 C226 1.363 . S
C227 C228 1.372 . S
C228 H193 0.930 . S
C228 C227 1.372 . S
C228 C229 1.383 . S
C229 C228 1.383 . S
C229 C230 1.395 . S
C230 H194 0.930 . S
C230 C229 1.395 . S
C230 C231 1.362 . S
C231 H195 0.930 . S
C231 C226 1.390 . S
C231 C230 1.362 . S
C232 C221 1.492 . S
C232 C233 1.377 1_556 S
C232 C237 1.397 . S
C233 H196 0.931 . S
C233 C232 1.377 1_554 S
C233 C234 1.376 . S
C234 H197 0.930 . S
C234 C233 1.376 . S
C234 C235 1.376 . S
C235 C234 1.376 . S
C235 C236 1.378 . S
C235 C262 1.486 . S
C236 H198 0.930 . S
C236 C235 1.378 . S
C236 C237 1.376 1_554 S
C237 H199 0.929 . S
C237 C232 1.397 . S
C237 C236 1.376 1_556 S
C238 C222 1.509 . S
C238 C239 1.391 . S
C238 C243 1.386 . S
C239 H200 0.930 . S
C239 C238 1.391 . S
C239 C240 1.375 . S
C240 H201 0.931 1_556 S
C240 C239 1.375 . S
C240 C241 1.375 1_556 S
C241 C240 1.375 1_554 S
C241 C242 1.361 . S
C242 H202 0.930 . S
C242 C241 1.361 . S
C242 C243 1.399 1_554 S
C243 H203 0.929 . S
C243 C238 1.386 . S
C243 C242 1.399 1_556 S
C244 C223 1.485 . S
C244 C245 1.394 . S
C244 C249 1.360 . S
C245 H204 0.931 . S
C245 C244 1.394 . S
C245 C246 1.372 . S
C246 H205 0.930 . S
C246 C245 1.372 . S
C246 C247 1.397 . S
C247 C246 1.397 . S
C247 C248 1.390 . S
C247 C263 1.476 . S
C248 H206 0.930 . S
C248 C247 1.390 . S
C248 C249 1.366 . S
C249 H207 0.932 . S
C249 C244 1.360 . S
C249 C248 1.366 . S
C250 C224 1.490 . S
C250 C251 1.380 . S
C250 C255 1.386 . S
C251 H208 0.930 . S
C251 C250 1.380 . S
C251 C252 1.381 . S
C252 H209 0.929 . S
C252 C251 1.381 . S
C252 C253 1.371 . S
C253 C252 1.371 . S
C253 C254 1.380 . S
C254 H210 0.931 . S
C254 C253 1.380 . S
C254 C255 1.387 . S
C255 H211 0.930 . S
C255 C250 1.386 . S
C255 C254 1.387 . S
C256 C225 1.519 . S
C256 C257 1.377 . S
C256 C261 1.361 . S
C257 H212 0.929 . S
C257 C256 1.377 . S
C257 C258 1.386 . S
C258 H213 0.931 . S
C258 C257 1.386 . S
C258 C259 1.363 . S
C259 C258 1.363 . S
C259 C260 1.385 . S
C260 H214 0.930 . S
C260 C259 1.385 . S
C260 C261 1.396 . S
C261 H215 0.929 . S
C261 C256 1.361 . S
C261 C260 1.396 . S
C262 O216 1.300 . S
C262 O217 1.209 . S
C262 C235 1.486 . S
C263 O218 1.199 . S
C263 O219 1.297 . S
C263 C247 1.476 . S
C264 C265 1.387 . S
C264 H268 0.950 . S
C264 C273 1.390 . S
C265 C264 1.387 . S
C265 C267 1.387 . S
H266 C273 0.950 . S
C267 C265 1.387 . S
C267 C269 1.390 . S
C267 H271 0.950 . S
H268 C264 0.950 . S
C269 C267 1.390 . S
C269 C270 1.387 . S
C269 H272 0.950 1_455 S
C270 C269 1.387 . S
C270 C273 1.387 . S
H271 C267 0.950 . S
H272 C269 0.950 1_655 S
C273 C264 1.390 . S
C273 H266 0.950 . S
C273 C270 1.387 . S
C274 C275 1.387 . S
C274 H278 0.950 1_545 S
C274 C283 1.389 . S
C275 C274 1.387 . S
C275 C277 1.387 . S
H276 C283 0.944 1_565 S
C277 C275 1.387 . S
C277 C279 1.390 . S
C277 H281 0.950 1_655 S
H278 C274 0.950 1_565 S
C279 C277 1.390 . S
C279 C280 1.387 . S
C279 H282 0.950 . S
C280 C279 1.387 . S
C280 C283 1.394 . S
H281 C277 0.950 1_455 S
H282 C279 0.950 . S
C283 C274 1.389 . S
C283 H276 0.944 1_545 S
C283 C280 1.394 . S
C284 C285 1.387 . S
C284 H288 0.950 . S
C284 C293 1.390 . S
C285 C284 1.387 . S
C285 C287 1.387 . S
H286 C293 0.950 . S
C287 C285 1.387 . S
C287 C289 1.390 . S
C287 H291 0.950 1_565 S
H288 C284 0.950 . S
C289 C287 1.390 . S
C289 C290 1.387 . S
C289 H292 0.950 . S
C290 C289 1.387 . S
C290 C293 1.387 . S
H291 C287 0.950 1_545 S
H292 C289 0.950 . S
C293 C284 1.390 . S
C293 H286 0.950 . S
C293 C290 1.387 . S
C294 C295 1.387 . S
C294 H298 0.950 . S
C294 C303 1.390 . S
C295 C294 1.387 . S
C295 C297 1.387 . S
H296 C303 0.950 . S
C297 C295 1.387 . S
C297 C299 1.390 . S
C297 H301 0.950 1_565 S
H298 C294 0.950 . S
C299 C297 1.390 . S
C299 C300 1.387 . S
C299 H302 0.950 . S
C300 C299 1.387 . S
C300 C303 1.387 . S
H301 C297 0.950 1_545 S
H302 C299 0.950 . S
C303 C294 1.390 . S
C303 H296 0.950 . S
C303 C300 1.387 . S
C304 C305 1.387 . S
C304 H308 0.950 . S
C304 C313 1.390 . S
C305 C304 1.387 . S
C305 C307 1.387 . S
H306 C313 0.950 . S
C307 C305 1.387 . S
C307 C309 1.390 . S
C307 H311 0.950 . S
H308 C304 0.950 . S
C309 C307 1.390 . S
C309 C310 1.387 . S
C309 H312 0.950 . S
C310 C309 1.387 . S
C310 C313 1.387 . S
H311 C307 0.950 . S
H312 C309 0.950 . S
C313 C304 1.390 . S
C313 H306 0.950 . S
C313 C310 1.387 . S
C314 C315 1.387 . S
C314 H318 0.950 . S
C314 C323 1.390 . S
C315 C314 1.387 . S
C315 C317 1.387 . S
H316 C323 0.950 . S
C317 C315 1.387 . S
C317 C319 1.390 . S
C317 H321 0.950 . S
H318 C314 0.950 . S
C319 C317 1.390 . S
C319 C320 1.387 . S
C319 H322 0.950 . S
C320 C319 1.387 . S
C320 C323 1.387 . S
H321 C317 0.950 . S
H322 C319 0.950 . S
C323 C314 1.390 . S
C323 H316 0.950 . S
C323 C320 1.387 . S
C324 C325 1.386 . S
C324 H328 0.950 . S
C324 C333 1.390 1_455 S
C325 C324 1.386 . S
C325 C327 1.385 1_455 S
H326 C333 0.950 . S
C327 C325 1.385 1_655 S
C327 C329 1.390 . S
C327 H331 0.950 . S
H328 C324 0.950 . S
C329 C327 1.390 . S
C329 C330 1.387 . S
C329 H332 0.950 . S
C330 C329 1.387 . S
C330 C333 1.387 . S
H331 C327 0.950 . S
H332 C329 0.950 . S
C333 C324 1.390 1_655 S
C333 H326 0.950 . S
C333 C330 1.387 . S
C334 C335 1.387 . S
C334 H338 0.950 . S
C334 C343 1.390 . S
C335 C334 1.387 . S
C335 C337 1.387 1_565 S
H336 C343 0.938 1_556 S
C337 C335 1.387 1_545 S
C337 C339 1.390 1_554 S
C337 H341 0.950 1_655 S
H338 C334 0.950 . S
C339 C337 1.390 1_556 S
C339 C340 1.387 1_545 S
C339 H342 0.950 . S
C340 C339 1.387 1_565 S
C340 C343 1.387 1_556 S
H341 C337 0.950 1_455 S
H342 C339 0.950 . S
C343 C334 1.390 . S
C343 H336 0.938 1_554 S
C343 C340 1.387 1_554 S
C344 C345 1.387 . S
C344 H348 0.950 . S
C344 C353 1.390 . S
C345 C344 1.387 . S
C345 C347 1.387 . S
H346 C353 0.950 . S
C347 C345 1.387 . S
C347 C349 1.390 . S
C347 H351 0.950 . S
H348 C344 0.950 . S
C349 C347 1.390 . S
C349 C350 1.387 . S
C349 H352 0.950 . S
C350 C349 1.387 . S
C350 C353 1.387 . S
H351 C347 0.950 . S
H352 C349 0.950 . S
C353 C344 1.390 . S
C353 H346 0.950 . S
C353 C350 1.387 . S
C354 C355 1.387 . S
C354 H358 0.950 . S
C354 C363 1.390 . S
C355 C354 1.387 . S
C355 C357 1.387 . S
H356 C363 0.950 1_565 S
C357 C355 1.387 . S
C357 C359 1.390 . S
C357 H361 0.950 . S
H358 C354 0.950 . S
C359 C357 1.390 . S
C359 C360 1.387 . S
C359 H362 0.950 . S
C360 C359 1.387 . S
C360 C363 1.387 . S
H361 C357 0.950 . S
H362 C359 0.950 . S
C363 C354 1.390 . S
C363 H356 0.950 1_545 S
C363 C360 1.387 . S
C364 C365 1.387 . S
C364 H368 0.950 . S
C364 C373 1.390 . S
C365 C364 1.387 . S
C365 C367 1.387 . S
H366 C373 0.950 1_556 S
C367 C365 1.387 . S
C367 C369 1.390 . S
C367 H371 0.950 . S
H368 C364 0.950 . S
C369 C367 1.390 . S
C369 C370 1.387 . S
C369 H372 0.950 . S
C370 C369 1.387 . S
C370 C373 1.387 . S
H371 C367 0.950 . S
H372 C369 0.950 . S
C373 C364 1.390 . S
C373 H366 0.950 1_554 S
C373 C370 1.387 . S
C374 C375 1.387 . S
C374 H378 0.950 . S
C374 C383 1.390 . S
C375 C374 1.387 . S
C375 C377 1.387 . S
H376 C383 0.950 . S
C377 C375 1.387 . S
C377 C379 1.390 . S
C377 H381 0.950 1_455 S
H378 C374 0.950 . S
C379 C377 1.390 . S
C379 C380 1.387 . S
C379 H382 0.950 1_455 S
C380 C379 1.387 . S
C380 C383 1.387 . S
H381 C377 0.950 1_655 S
H382 C379 0.950 1_655 S
C383 C374 1.390 . S
C383 H376 0.950 . S
C383 C380 1.387 . S
C270 C81 1.521 . S
C265 C3 1.659 . S
C275 C21 1.572 1_655 S
C280 C155 1.504 . S
C285 C37 2.027 1_665 S
C290 C259 2.049 . S
C295 C8 0.962 . S
C300 C93 0.962 . S
C310 C167 0.961 . S
C305 C23 0.973 . S
C315 C35 1.763 . S
C320 C253 1.585 . S
C330 C185 2.045 . S
C325 C31 2.054 . S
C335 C7 1.593 1_665 S
C340 C229 1.527 . S
C350 C105 1.594 . S
C345 C17 1.806 . S
C360 C179 1.502 . S
C355 C36 1.684 . S
C370 C241 0.954 . S
C365 C9 0.948 . S
C375 C22 2.071 . S
C380 C111 2.071 . S
