# Generated by pormake.
# Topology ctn, (3,4)-cn, num edge types: 1
# Building blocks:
#     Node 0, Type 0, BuildingBlock: VETTIZ_charged_linker_0, # of connection points: 3
#     Node 1, Type 0, BuildingBlock: VETTIZ_charged_linker_0, # of connection points: 3
#     Node 2, Type 0, BuildingBlock: VETTIZ_charged_linker_0, # of connection points: 3
#     Node 3, Type 0, BuildingBlock: VETTIZ_charged_linker_0, # of connection points: 3
#     Node 4, Type 0, BuildingBlock: VETTIZ_charged_linker_0, # of connection points: 3
#     Node 5, Type 0, BuildingBlock: VETTIZ_charged_linker_0, # of connection points: 3
#     Node 6, Type 0, BuildingBlock: VETTIZ_charged_linker_0, # of connection points: 3
#     Node 7, Type 0, BuildingBlock: VETTIZ_charged_linker_0, # of connection points: 3
#     Node 8, Type 0, BuildingBlock: VETTIZ_charged_linker_0, # of connection points: 3
#     Node 9, Type 0, BuildingBlock: VETTIZ_charged_linker_0, # of connection points: 3
#     Node 10, Type 0, BuildingBlock: VETTIZ_charged_linker_0, # of connection points: 3
#     Node 11, Type 0, BuildingBlock: VETTIZ_charged_linker_0, # of connection points: 3
#     Node 12, Type 0, BuildingBlock: VETTIZ_charged_linker_0, # of connection points: 3
#     Node 13, Type 0, BuildingBlock: VETTIZ_charged_linker_0, # of connection points: 3
#     Node 14, Type 0, BuildingBlock: VETTIZ_charged_linker_0, # of connection points: 3
#     Node 15, Type 0, BuildingBlock: VETTIZ_charged_linker_0, # of connection points: 3
#     Node 16, Type 1, BuildingBlock: NAHDIM_clean_sbu_0, # of connection points: 4
#     Node 17, Type 1, BuildingBlock: NAHDIM_clean_sbu_0, # of connection points: 4
#     Node 18, Type 1, BuildingBlock: NAHDIM_clean_sbu_0, # of connection points: 4
#     Node 19, Type 1, BuildingBlock: NAHDIM_clean_sbu_0, # of connection points: 4
#     Node 20, Type 1, BuildingBlock: NAHDIM_clean_sbu_0, # of connection points: 4
#     Node 21, Type 1, BuildingBlock: NAHDIM_clean_sbu_0, # of connection points: 4
#     Node 22, Type 1, BuildingBlock: NAHDIM_clean_sbu_0, # of connection points: 4
#     Node 23, Type 1, BuildingBlock: NAHDIM_clean_sbu_0, # of connection points: 4
#     Node 24, Type 1, BuildingBlock: NAHDIM_clean_sbu_0, # of connection points: 4
#     Node 25, Type 1, BuildingBlock: NAHDIM_clean_sbu_0, # of connection points: 4
#     Node 26, Type 1, BuildingBlock: NAHDIM_clean_sbu_0, # of connection points: 4
#     Node 27, Type 1, BuildingBlock: NAHDIM_clean_sbu_0, # of connection points: 4
#     Edge 28, Type (0, 1), BuildingBlock: EZIPEK_clean_linker_0, # of connection points: 2
#     Edge 29, Type (0, 1), BuildingBlock: EZIPEK_clean_linker_0, # of connection points: 2
#     Edge 30, Type (0, 1), BuildingBlock: EZIPEK_clean_linker_0, # of connection points: 2
#     Edge 31, Type (0, 1), BuildingBlock: EZIPEK_clean_linker_0, # of connection points: 2
#     Edge 32, Type (0, 1), BuildingBlock: EZIPEK_clean_linker_0, # of connection points: 2
#     Edge 33, Type (0, 1), BuildingBlock: EZIPEK_clean_linker_0, # of connection points: 2
#     Edge 34, Type (0, 1), BuildingBlock: EZIPEK_clean_linker_0, # of connection points: 2
#     Edge 35, Type (0, 1), BuildingBlock: EZIPEK_clean_linker_0, # of connection points: 2
#     Edge 36, Type (0, 1), BuildingBlock: EZIPEK_clean_linker_0, # of connection points: 2
#     Edge 37, Type (0, 1), BuildingBlock: EZIPEK_clean_linker_0, # of connection points: 2
#     Edge 38, Type (0, 1), BuildingBlock: EZIPEK_clean_linker_0, # of connection points: 2
#     Edge 39, Type (0, 1), BuildingBlock: EZIPEK_clean_linker_0, # of connection points: 2
#     Edge 40, Type (0, 1), BuildingBlock: EZIPEK_clean_linker_0, # of connection points: 2
#     Edge 41, Type (0, 1), BuildingBlock: EZIPEK_clean_linker_0, # of connection points: 2
#     Edge 42, Type (0, 1), BuildingBlock: EZIPEK_clean_linker_0, # of connection points: 2
#     Edge 43, Type (0, 1), BuildingBlock: EZIPEK_clean_linker_0, # of connection points: 2
#     Edge 44, Type (0, 1), BuildingBlock: EZIPEK_clean_linker_0, # of connection points: 2
#     Edge 45, Type (0, 1), BuildingBlock: EZIPEK_clean_linker_0, # of connection points: 2
#     Edge 46, Type (0, 1), BuildingBlock: EZIPEK_clean_linker_0, # of connection points: 2
#     Edge 47, Type (0, 1), BuildingBlock: EZIPEK_clean_linker_0, # of connection points: 2
#     Edge 48, Type (0, 1), BuildingBlock: EZIPEK_clean_linker_0, # of connection points: 2
#     Edge 49, Type (0, 1), BuildingBlock: EZIPEK_clean_linker_0, # of connection points: 2
#     Edge 50, Type (0, 1), BuildingBlock: EZIPEK_clean_linker_0, # of connection points: 2
#     Edge 51, Type (0, 1), BuildingBlock: EZIPEK_clean_linker_0, # of connection points: 2
#     Edge 52, Type (0, 1), BuildingBlock: EZIPEK_clean_linker_0, # of connection points: 2
#     Edge 53, Type (0, 1), BuildingBlock: EZIPEK_clean_linker_0, # of connection points: 2
#     Edge 54, Type (0, 1), BuildingBlock: EZIPEK_clean_linker_0, # of connection points: 2
#     Edge 55, Type (0, 1), BuildingBlock: EZIPEK_clean_linker_0, # of connection points: 2
#     Edge 56, Type (0, 1), BuildingBlock: EZIPEK_clean_linker_0, # of connection points: 2
#     Edge 57, Type (0, 1), BuildingBlock: EZIPEK_clean_linker_0, # of connection points: 2
#     Edge 58, Type (0, 1), BuildingBlock: EZIPEK_clean_linker_0, # of connection points: 2
#     Edge 59, Type (0, 1), BuildingBlock: EZIPEK_clean_linker_0, # of connection points: 2
#     Edge 60, Type (0, 1), BuildingBlock: EZIPEK_clean_linker_0, # of connection points: 2
#     Edge 61, Type (0, 1), BuildingBlock: EZIPEK_clean_linker_0, # of connection points: 2
#     Edge 62, Type (0, 1), BuildingBlock: EZIPEK_clean_linker_0, # of connection points: 2
#     Edge 63, Type (0, 1), BuildingBlock: EZIPEK_clean_linker_0, # of connection points: 2
#     Edge 64, Type (0, 1), BuildingBlock: EZIPEK_clean_linker_0, # of connection points: 2
#     Edge 65, Type (0, 1), BuildingBlock: EZIPEK_clean_linker_0, # of connection points: 2
#     Edge 66, Type (0, 1), BuildingBlock: EZIPEK_clean_linker_0, # of connection points: 2
#     Edge 67, Type (0, 1), BuildingBlock: EZIPEK_clean_linker_0, # of connection points: 2
#     Edge 68, Type (0, 1), BuildingBlock: EZIPEK_clean_linker_0, # of connection points: 2
#     Edge 69, Type (0, 1), BuildingBlock: EZIPEK_clean_linker_0, # of connection points: 2
#     Edge 70, Type (0, 1), BuildingBlock: EZIPEK_clean_linker_0, # of connection points: 2
#     Edge 71, Type (0, 1), BuildingBlock: EZIPEK_clean_linker_0, # of connection points: 2
#     Edge 72, Type (0, 1), BuildingBlock: EZIPEK_clean_linker_0, # of connection points: 2
#     Edge 73, Type (0, 1), BuildingBlock: EZIPEK_clean_linker_0, # of connection points: 2
#     Edge 74, Type (0, 1), BuildingBlock: EZIPEK_clean_linker_0, # of connection points: 2
#     Edge 75, Type (0, 1), BuildingBlock: EZIPEK_clean_linker_0, # of connection points: 2
# Relax obj value: 0.002
# Max RMSD: 0.033
# Mean RMSD: 0.017
data_MOF--net-ctn--node1-NAHDIM_clean_sbu_0--node2-VETTIZ_charged_linker_0--edge1-EZIPEK_clean_linker_0
_symmetry_space_group_name_H-M    P1
_symmetry_Int_Tables_number       1
_symmetry_cell_setting            triclinic
loop_
_symmetry_equiv_pos_as_xyz
'x, y, z'
_cell_length_a     52.099675
_cell_length_b     52.366389
_cell_length_c     51.83352
_cell_angle_alpha  91.254396
_cell_angle_beta   90.006448
_cell_angle_gamma 92.296089
loop_
_atom_site_label
_atom_site_type_symbol
_atom_site_fract_x
_atom_site_fract_y
_atom_site_fract_z
_atom_type_partial_charge
C0 C 0.04019 0.11066 0.97667 0.0
C1 C 0.01999 0.12748 0.97907 0.0
C2 C 0.00258 0.12496 0.99967 0.0
C3 C 0.02542 0.0889 0.01518 0.0
C4 C 0.04257 0.09157 0.99496 0.0
C5 C 0.06305 0.07215 0.99555 0.0
H6 H 0.11371 0.96994 0.05193 0.0
C7 C 0.03322 0.06718 0.03072 0.0
C8 C 0.05531 0.05732 0.01937 0.0
H9 H 0.14146 0.0099 0.98491 0.0
H10 H 0.10687 0.03932 0.98873 0.0
H11 H 0.10261 0.01969 0.08542 0.0
H12 H 0.05289 0.97106 0.03764 0.0
H13 H 0.03631 0.97792 0.06635 0.0
H14 H 0.06577 0.96112 0.06777 0.0
H15 H 0.09065 0.98901 0.09581 0.0
H16 H 0.07281 0.0175 0.10113 0.0
C17 C 0.08942 0.0866 0.99904 0.0
C18 C 0.06062 0.05537 0.97061 0.0
C19 C 0.98085 0.04137 0.10936 0.0
C20 C 0.98377 0.02246 0.12775 0.0
C21 C 0.00434 0.00596 0.12562 0.0
C22 C 0.02193 0.00826 0.10526 0.0
C23 C 0.01893 0.02736 0.08696 0.0
C24 C 0.99868 0.04356 0.08924 0.0
C25 C 0.99887 0.06307 0.06837 0.0
C26 C 0.02251 0.05588 0.05315 0.0
C27 C 0.0341 0.0349 0.06405 0.0
C28 C 0.00219 0.08999 0.08128 0.0
C29 C 0.97392 0.05874 0.05232 0.0
C30 C 0.11215 0.98508 0.03816 0.0
C31 C 0.13001 0.98782 0.01807 0.0
C32 C 0.12773 0.00766 0.00048 0.0
C33 C 0.10768 0.02462 0.00275 0.0
C34 C 0.08978 0.02169 0.0229 0.0
C35 C 0.09228 0.00224 0.04026 0.0
C36 C 0.07177 0.00233 0.06067 0.0
C37 C 0.05643 0.02488 0.05259 0.0
C38 C 0.06701 0.03608 0.03041 0.0
C39 C 0.08495 0.00719 0.08724 0.0
C40 C 0.05583 0.97677 0.05827 0.0
H41 H 0.99127 0.10473 0.03299 0.0
H42 H 0.0538 0.1124 0.96095 0.0
H43 H 0.04008 0.05155 0.9654 0.0
H44 H 0.06857 0.03631 0.97264 0.0
H45 H 0.07012 0.06503 0.95408 0.0
H46 H 0.08759 0.1042 0.01121 0.0
H47 H 0.09754 0.09247 0.98016 0.0
H48 H 0.10358 0.07535 0.00926 0.0
H49 H 0.96518 0.05433 0.11083 0.0
H50 H 0.00675 0.99132 0.13977 0.0
H51 H 0.03722 0.99515 0.10463 0.0
H52 H 0.01425 0.08947 0.09897 0.0
H53 H 0.98335 0.09751 0.08703 0.0
H54 H 0.01237 0.10397 0.06887 0.0
H55 H 0.9689 0.03796 0.0499 0.0
H56 H 0.97571 0.06585 0.03249 0.0
H57 H 0.95746 0.06782 0.06196 0.0
H58 H 0.98694 0.13788 0.00165 0.0
C59 C 0.00516 0.10573 0.01774 0.0
C60 C 0.23709 0.63623 0.23297 0.0
C61 C 0.21574 0.63074 0.217 0.0
C62 C 0.21101 0.64661 0.19611 0.0
C63 C 0.24869 0.67323 0.20736 0.0
C64 C 0.25319 0.65757 0.22788 0.0
C65 C 0.27638 0.66653 0.24334 0.0
H66 H 0.37741 0.75057 0.2607 0.0
C67 C 0.26889 0.6939 0.2076 0.0
C68 C 0.28511 0.69012 0.2287 0.0
H69 H 0.35492 0.68648 0.30776 0.0
H70 H 0.31848 0.67649 0.27985 0.0
H71 H 0.32186 0.77096 0.25512 0.0
H72 H 0.36491 0.72245 0.20454 0.0
H73 H 0.35049 0.74549 0.1857 0.0
H74 H 0.37321 0.75569 0.21038 0.0
H75 H 0.34676 0.78365 0.2346 0.0
H76 H 0.31399 0.7791 0.22351 0.0
C77 C 0.26748 0.67331 0.27112 0.0
C78 C 0.29631 0.64538 0.2417 0.0
C79 C 0.27033 0.7607 0.13783 0.0
C80 C 0.28644 0.78228 0.13336 0.0
C81 C 0.30681 0.78849 0.1505 0.0
C82 C 0.31134 0.77314 0.17171 0.0
C83 C 0.29523 0.75144 0.1759 0.0
C84 C 0.27498 0.74567 0.15924 0.0
C85 C 0.25942 0.72232 0.16714 0.0
C86 C 0.27384 0.71484 0.19111 0.0
C87 C 0.29488 0.73186 0.19603 0.0
C88 C 0.2318 0.73044 0.1735 0.0
C89 C 0.26102 0.70187 0.14521 0.0
C90 C 0.3646 0.73435 0.26478 0.0
C91 C 0.36889 0.71912 0.28619 0.0
C92 C 0.35185 0.6983 0.29124 0.0
C93 C 0.33077 0.69261 0.27503 0.0
C94 C 0.32661 0.708 0.25365 0.0
C95 C 0.3433 0.72856 0.24891 0.0
C96 C 0.33539 0.74327 0.22581 0.0
C97 C 0.31137 0.72798 0.21729 0.0
C98 C 0.30644 0.70728 0.23357 0.0
C99 C 0.32931 0.77076 0.235 0.0
C100 C 0.35709 0.74191 0.20547 0.0
H101 H 0.22281 0.67922 0.17498 0.0
H102 H 0.24095 0.62428 0.24922 0.0
H103 H 0.29663 0.63657 0.22197 0.0
H104 H 0.31619 0.65266 0.24525 0.0
H105 H 0.29158 0.62993 0.25547 0.0
H106 H 0.24769 0.68056 0.27112 0.0
H107 H 0.26735 0.65631 0.28358 0.0
H108 H 0.27939 0.6889 0.28032 0.0
H109 H 0.25447 0.75569 0.12493 0.0
H110 H 0.31931 0.80515 0.14728 0.0
H111 H 0.32725 0.77875 0.18399 0.0
H112 H 0.23193 0.75025 0.18175 0.0
H113 H 0.21959 0.72995 0.15592 0.0
H114 H 0.22238 0.71856 0.18839 0.0
H115 H 0.28069 0.70192 0.13684 0.0
H116 H 0.2573 0.6822 0.15188 0.0
H117 H 0.24741 0.70564 0.12937 0.0
H118 H 0.19456 0.64255 0.18369 0.0
C119 C 0.2274 0.66782 0.19116 0.0
C120 C 0.99059 0.39171 0.98386 0.0
C121 C 0.97714 0.3868 0.96071 0.0
C122 C 0.9571 0.40258 0.9539 0.0
C123 C 0.96404 0.42788 0.99321 0.0
C124 C 0.98378 0.41234 0.99974 0.0
C125 C 0.9962 0.42041 0.02497 0.0
H126 H 0.00418 0.50278 0.12753 0.0
C127 C 0.96185 0.44759 0.01387 0.0
C128 C 0.98069 0.44335 0.0325 0.0
H129 H 0.04942 0.4369 0.11224 0.0
H130 H 0.02578 0.42771 0.07266 0.0
H131 H 0.95065 0.47497 0.11239 0.0
H132 H 0.00273 0.52297 0.06858 0.0
H133 H 0.97132 0.53244 0.06251 0.0
H134 H 0.98393 0.53493 0.09489 0.0
H135 H 0.9531 0.50898 0.11746 0.0
H136 H 0.93178 0.49432 0.09348 0.0
C137 C 0.99218 0.39826 0.04411 0.0
C138 C 0.0247 0.42809 0.0196 0.0
C139 C 0.89281 0.51314 0.00839 0.0
C140 C 0.88594 0.53342 0.02477 0.0
C141 C 0.9001 0.53881 0.04748 0.0
C142 C 0.92088 0.52398 0.05395 0.0
C143 C 0.92749 0.50352 0.03753 0.0
C144 C 0.91357 0.49846 0.01514 0.0
C145 C 0.92324 0.47593 1.00009 0.0
C146 C 0.94507 0.46812 0.01725 0.0
C147 C 0.9475 0.48436 0.03911 0.0
C148 C 0.9013 0.45509 0.99843 0.0
C149 C 0.93304 0.48547 0.97362 0.0
C150 C 0.00891 0.48648 0.11548 0.0
C151 C 0.02862 0.47055 0.12261 0.0
C152 C 0.03427 0.44933 0.10683 0.0
C153 C 0.02055 0.4441 0.08394 0.0
C154 C 0.00086 0.46021 0.07689 0.0
C155 C 0.9952 0.48087 0.09266 0.0
C156 C 0.97312 0.49536 0.08251 0.0
C157 C 0.96671 0.48024 0.05786 0.0
C158 C 0.9831 0.45976 0.05462 0.0
C159 C 0.95096 0.49359 0.10243 0.0
C160 C 0.98305 0.52297 0.07692 0.0
H161 H 0.935 0.43443 0.96383 0.0
H162 H 0.00607 0.37974 0.98941 0.0
H163 H 0.02665 0.43827 0.00104 0.0
H164 H 0.03312 0.44156 0.03425 0.0
H165 H 0.03661 0.41099 0.01825 0.0
H166 H 0.97353 0.38767 0.04052 0.0
H167 H 0.00763 0.38433 0.04217 0.0
H168 H 0.99112 0.40498 0.06442 0.0
H169 H 0.88209 0.50872 0.99084 0.0
H170 H 0.89494 0.55445 0.06023 0.0
H171 H 0.93092 0.52895 0.07153 0.0
H172 H 0.89015 0.45449 0.01673 0.0
H173 H 0.88772 0.45893 0.98259 0.0
H174 H 0.90832 0.43561 0.99573 0.0
H175 H 0.94167 0.50521 0.97541 0.0
H176 H 0.94856 0.47395 0.96556 0.0
H177 H 0.91712 0.48578 0.95939 0.0
H178 H 0.9466 0.39893 0.93607 0.0
C179 C 0.95046 0.4231 0.97003 0.0
C180 C 0.64587 0.80371 0.26654 0.0
C181 C 0.62872 0.78239 0.26495 0.0
C182 C 0.63292 0.76286 0.24652 0.0
C183 C 0.671 0.78613 0.23138 0.0
C184 C 0.66686 0.80515 0.24968 0.0
C185 C 0.68721 0.8263 0.24911 0.0
H186 H 0.79319 0.87823 0.19346 0.0
C187 C 0.69449 0.79355 0.21687 0.0
C188 C 0.70409 0.81704 0.22723 0.0
H189 H 0.75155 0.90657 0.25971 0.0
H190 H 0.72326 0.87003 0.25736 0.0
H191 H 0.74353 0.85905 0.15929 0.0
H192 H 0.79358 0.82269 0.21198 0.0
H193 H 0.7864 0.8003 0.18706 0.0
H194 H 0.80325 0.83006 0.17968 0.0
H195 H 0.77632 0.85268 0.15179 0.0
H196 H 0.75071 0.82919 0.14562 0.0
C197 C 0.67404 0.85132 0.24247 0.0
C198 C 0.70154 0.82725 0.27538 0.0
C199 C 0.72418 0.73759 0.14198 0.0
C200 C 0.74491 0.74006 0.12479 0.0
C201 C 0.76241 0.76111 0.12738 0.0
C202 C 0.75918 0.77975 0.14677 0.0
C203 C 0.73814 0.77736 0.16365 0.0
C204 C 0.72117 0.75644 0.16124 0.0
C205 C 0.70011 0.75703 0.1811 0.0
C206 C 0.70718 0.78178 0.19572 0.0
C207 C 0.72939 0.79364 0.18531 0.0
C208 C 0.67415 0.7584 0.16673 0.0
C209 C 0.70225 0.73338 0.19831 0.0
C210 C 0.77697 0.87822 0.20633 0.0
C211 C 0.77258 0.89867 0.22397 0.0
C212 C 0.75372 0.89386 0.24327 0.0
C213 C 0.73746 0.87189 0.24247 0.0
C214 C 0.74044 0.85349 0.22282 0.0
C215 C 0.76041 0.85647 0.20563 0.0
C216 C 0.76181 0.83409 0.18702 0.0
C217 C 0.739 0.81746 0.19567 0.0
C218 C 0.72653 0.82897 0.21663 0.0
C219 C 0.75809 0.84407 0.15939 0.0
C220 C 0.78762 0.82108 0.19138 0.0
H221 H 0.65615 0.74918 0.21604 0.0
H222 H 0.64303 0.81885 0.28071 0.0
H223 H 0.70088 0.80822 0.28456 0.0
H224 H 0.72227 0.83223 0.27336 0.0
H225 H 0.69286 0.84099 0.28912 0.0
H226 H 0.65986 0.84781 0.2266 0.0
H227 H 0.66359 0.85898 0.25945 0.0
H228 H 0.68754 0.86638 0.23552 0.0
H229 H 0.71058 0.72144 0.1403 0.0
H230 H 0.77851 0.76313 0.11425 0.0
H231 H 0.77311 0.79539 0.14774 0.0
H232 H 0.6761 0.77106 0.14982 0.0
H233 H 0.66734 0.73918 0.15949 0.0
H234 H 0.65895 0.76669 0.1787 0.0
H235 H 0.72268 0.72854 0.20095 0.0
H236 H 0.69498 0.73663 0.21807 0.0
H237 H 0.69196 0.71635 0.18953 0.0
H238 H 0.61983 0.74628 0.24519 0.0
C239 C 0.65397 0.76462 0.2297 0.0
C240 C 0.03588 0.90012 0.52466 0.0
C241 C 0.01516 0.88219 0.52294 0.0
C242 C 0.99595 0.88506 0.5043 0.0
C243 C 0.01795 0.92371 0.48952 0.0
C244 C 0.03687 0.9207 0.5078 0.0
C245 C 0.05744 0.94167 0.50703 0.0
H246 H 0.10298 0.05292 0.45666 0.0
C247 C 0.02451 0.94725 0.47529 0.0
C248 C 0.04763 0.95788 0.48547 0.0
H249 H 0.13725 0.00862 0.51587 0.0
H250 H 0.10228 0.97689 0.51236 0.0
H251 H 0.04447 0.04584 0.47598 0.0
H252 H 0.088 0.00454 0.41941 0.0
H253 H 0.05706 0.00748 0.40669 0.0
H254 H 0.07678 0.03588 0.41375 0.0
H255 H 0.05344 0.05902 0.44544 0.0
H256 H 0.0244 0.03952 0.44916 0.0
C257 C 0.0576 0.95617 0.53341 0.0
C258 C 0.08321 0.9295 0.49989 0.0
C259 C 0.96581 0.97491 0.40358 0.0
C260 C 0.96679 0.99594 0.38726 0.0
C261 C 0.98697 0.01448 0.38985 0.0
C262 C 0.00622 0.01198 0.40842 0.0
C263 C 0.00523 0.99072 0.42456 0.0
C264 C 0.98518 0.97269 0.42206 0.0
C265 C 0.98717 0.95149 0.44098 0.0
C266 C 0.01185 0.95957 0.45502 0.0
C267 C 0.02236 0.98253 0.44532 0.0
C268 C 0.96348 0.95207 0.45905 0.0
C269 C 0.98977 0.92607 0.42551 0.0
C270 C 0.1028 0.03632 0.46877 0.0
C271 C 0.12263 0.03311 0.48662 0.0
C272 C 0.12203 0.01132 0.50206 0.0
C273 C 0.10173 0.993 0.49997 0.0
C274 C 0.08187 0.99647 0.48217 0.0
C275 C 0.08274 0.01773 0.46677 0.0
C276 C 0.06032 0.01787 0.44849 0.0
C277 C 0.04571 0.99336 0.45564 0.0
C278 C 0.05835 0.98099 0.47548 0.0
C279 C 0.0448 0.04184 0.45481 0.0
C280 C 0.07088 0.01656 0.42056 0.0
H281 H 0.98197 0.9069 0.47378 0.0
H282 H 0.05088 0.89815 0.53888 0.0
H283 H 0.08001 0.91252 0.48682 0.0
H284 H 0.09626 0.9425 0.48906 0.0
H285 H 0.09326 0.92309 0.51736 0.0
H286 H 0.03766 0.95831 0.54062 0.0
H287 H 0.06825 0.94569 0.54813 0.0
H288 H 0.06585 0.97586 0.53242 0.0
H289 H 0.95038 0.96048 0.40186 0.0
H290 H 0.98787 0.03078 0.37732 0.0
H291 H 0.02117 0.02667 0.40942 0.0
H292 H 0.95749 0.97201 0.46259 0.0
H293 H 0.94683 0.94102 0.45048 0.0
H294 H 0.96737 0.94482 0.47845 0.0
H295 H 0.00172 0.92909 0.40796 0.0
H296 H 0.99963 0.91146 0.4364 0.0
H297 H 0.97069 0.91808 0.41912 0.0
H298 H 0.97991 0.87128 0.50279 0.0
C299 C 0.99722 0.90572 0.48756 0.0
C300 C 0.26521 0.64697 0.80417 0.0
C301 C 0.26027 0.62562 0.78738 0.0
C302 C 0.24315 0.62941 0.76655 0.0
C303 C 0.23087 0.67002 0.78494 0.0
C304 C 0.24997 0.66834 0.8031 0.0
C305 C 0.25178 0.69143 0.82086 0.0
H306 H 0.20218 0.80187 0.86403 0.0
C307 C 0.21772 0.69414 0.78979 0.0
C308 C 0.23009 0.70692 0.81069 0.0
H309 H 0.26868 0.76461 0.89229 0.0
H310 H 0.26386 0.73202 0.85867 0.0
H311 H 0.16696 0.74836 0.85287 0.0
H312 H 0.21504 0.79669 0.80521 0.0
H313 H 0.19009 0.78417 0.78531 0.0
H314 H 0.18263 0.8045 0.81271 0.0
H315 H 0.16046 0.78094 0.84595 0.0
H316 H 0.15021 0.75523 0.82445 0.0
C317 C 0.24658 0.68233 0.84871 0.0
C318 C 0.27838 0.70517 0.81699 0.0
C319 C 0.13478 0.71086 0.74242 0.0
C320 C 0.11614 0.72973 0.74527 0.0
C321 C 0.12388 0.75211 0.75971 0.0
C322 C 0.14646 0.7534 0.77445 0.0
C323 C 0.1625 0.73259 0.77418 0.0
C324 C 0.15712 0.71223 0.75753 0.0
C325 C 0.17761 0.69275 0.75803 0.0
C326 C 0.19547 0.70431 0.77873 0.0
C327 C 0.18645 0.72766 0.78814 0.0
C328 C 0.16484 0.66699 0.76623 0.0
C329 C 0.19076 0.69173 0.73121 0.0
C330 C 0.2156 0.78661 0.86277 0.0
C331 C 0.23574 0.78545 0.88062 0.0
C332 C 0.25303 0.76558 0.87862 0.0
C333 C 0.25013 0.74674 0.85916 0.0
C334 C 0.22954 0.74765 0.84172 0.0
C335 C 0.21283 0.76748 0.84351 0.0
C336 C 0.19216 0.7653 0.82321 0.0
C337 C 0.19918 0.74082 0.80904 0.0
C338 C 0.22097 0.73053 0.82012 0.0
C339 C 0.16596 0.76242 0.83715 0.0
C340 C 0.19486 0.7889 0.80571 0.0
H341 H 0.21503 0.65217 0.74976 0.0
H342 H 0.28076 0.64769 0.81793 0.0
H343 H 0.28531 0.70251 0.79684 0.0
H344 H 0.27784 0.72612 0.81989 0.0
H345 H 0.29303 0.69759 0.83004 0.0
H346 H 0.23111 0.66704 0.84884 0.0
H347 H 0.26405 0.67439 0.85722 0.0
H348 H 0.23967 0.69748 0.86176 0.0
H349 H 0.13277 0.69529 0.72854 0.0
H350 H 0.11295 0.76917 0.75958 0.0
H351 H 0.15055 0.77062 0.78554 0.0
H352 H 0.15262 0.66982 0.78358 0.0
H353 H 0.1524 0.65861 0.75055 0.0
H354 H 0.17875 0.65269 0.77144 0.0
H355 H 0.18918 0.71006 0.72097 0.0
H356 H 0.21167 0.68901 0.73265 0.0
H357 H 0.18189 0.67633 0.71868 0.0
H358 H 0.24133 0.61617 0.75039 0.0
C359 C 0.22817 0.65104 0.76559 0.0
C360 C 0.89799 0.48917 0.49761 0.0
C361 C 0.89093 0.46797 0.48178 0.0
C362 C 0.90552 0.46245 0.45968 0.0
C363 C 0.93392 0.49925 0.46922 0.0
C364 C 0.9195 0.50455 0.49095 0.0
C365 C 0.92956 0.52812 0.50536 0.0
H366 H 0.01678 0.62755 0.5149 0.0
C367 C 0.95488 0.51901 0.46766 0.0
C368 C 0.95247 0.53599 0.4888 0.0
H369 H 0.953 0.61029 0.56555 0.0
H370 H 0.94129 0.57249 0.53965 0.0
H371 H 0.98608 0.61493 0.46216 0.0
H372 H 0.03517 0.57019 0.50845 0.0
H373 H 0.04225 0.56292 0.47607 0.0
H374 H 0.0476 0.59523 0.48831 0.0
H375 H 0.02023 0.62074 0.4638 0.0
H376 H 0.00581 0.59805 0.4409 0.0
C377 C 0.90847 0.54816 0.50515 0.0
C378 C 0.93785 0.5202 0.53266 0.0
C379 C 0.01787 0.51683 0.39281 0.0
C380 C 0.03907 0.53272 0.38621 0.0
C381 C 0.04651 0.55352 0.40252 0.0
C382 C 0.03271 0.55872 0.4251 0.0
C383 C 0.01123 0.54294 0.43136 0.0
C384 C 0.00427 0.52227 0.41545 0.0
C385 C 0.98103 0.50756 0.42527 0.0
C386 C 0.97506 0.52292 0.44957 0.0
C387 C 0.99273 0.54366 0.45296 0.0
C388 C 0.95942 0.50874 0.40483 0.0
C389 C 0.98907 0.48017 0.43142 0.0
C390 C 0.00034 0.6155 0.52029 0.0
C391 C 0.9857 0.62161 0.5421 0.0
C392 C 0.96442 0.60571 0.54874 0.0
C393 C 0.95772 0.58387 0.53368 0.0
C394 C 0.97244 0.57798 0.51174 0.0
C395 C 0.99337 0.59368 0.50542 0.0
C396 C 0.00667 0.58461 0.48138 0.0
C397 C 0.99028 0.5609 0.47426 0.0
C398 C 0.97026 0.55709 0.49208 0.0
C399 C 0.00488 0.60561 0.46091 0.0
C400 C 0.03445 0.57801 0.48868 0.0
H401 H 0.93736 0.47282 0.43621 0.0
H402 H 0.88688 0.49373 0.51464 0.0
H403 H 0.9468 0.50126 0.53189 0.0
H404 H 0.95262 0.5334 0.54138 0.0
H405 H 0.92109 0.51871 0.54585 0.0
H406 H 0.89754 0.54701 0.48668 0.0
H407 H 0.89452 0.545 0.52108 0.0
H408 H 0.91633 0.56804 0.50642 0.0
H409 H 0.0119 0.50073 0.38044 0.0
H410 H 0.06286 0.56588 0.39756 0.0
H411 H 0.03919 0.57495 0.43666 0.0
H412 H 0.95996 0.52766 0.39543 0.0
H413 H 0.96153 0.49388 0.38944 0.0
H414 H 0.93997 0.50674 0.41317 0.0
H415 H 0.00911 0.48037 0.43889 0.0
H416 H 0.97734 0.47124 0.44678 0.0
H417 H 0.98819 0.46758 0.41389 0.0
H418 H 0.90016 0.44614 0.44733 0.0
C419 C 0.92702 0.47796 0.45332 0.0
C420 C 0.78801 0.72897 0.85881 0.0
C421 C 0.7682 0.73137 0.87692 0.0
C422 C 0.75107 0.75131 0.87481 0.0
C423 C 0.7739 0.7666 0.83705 0.0
C424 C 0.79051 0.74678 0.83908 0.0
C425 C 0.81069 0.7473 0.81834 0.0
H426 H 0.86393 0.80447 0.71401 0.0
C427 C 0.78211 0.78207 0.81477 0.0
C428 C 0.80366 0.77086 0.80372 0.0
H429 H 0.88677 0.73568 0.75056 0.0
H430 H 0.8527 0.73953 0.78197 0.0
H431 H 0.85404 0.83643 0.76603 0.0
H432 H 0.80275 0.79117 0.71667 0.0
H433 H 0.78721 0.81928 0.72532 0.0
H434 H 0.81683 0.82144 0.70738 0.0
H435 H 0.84355 0.84753 0.73541 0.0
H436 H 0.82524 0.85261 0.76451 0.0
C437 C 0.83734 0.75084 0.8315 0.0
C438 C 0.8071 0.72253 0.80158 0.0
C439 C 0.7334 0.86079 0.79212 0.0
C440 C 0.73723 0.8794 0.77327 0.0
C441 C 0.75789 0.87751 0.75593 0.0
C442 C 0.77456 0.85724 0.75728 0.0
C443 C 0.7706 0.83872 0.77627 0.0
C444 C 0.75037 0.84076 0.79337 0.0
C445 C 0.74958 0.81974 0.8127 0.0
C446 C 0.77248 0.8046 0.80422 0.0
C447 C 0.78464 0.81574 0.78281 0.0
C448 C 0.75351 0.83208 0.83995 0.0
C449 C 0.72392 0.80407 0.80913 0.0
C450 C 0.86144 0.79034 0.72886 0.0
C451 C 0.87779 0.76974 0.73003 0.0
C452 C 0.87423 0.75163 0.74948 0.0
C453 C 0.85446 0.75393 0.76761 0.0
C454 C 0.83808 0.77456 0.76623 0.0
C455 C 0.8417 0.79232 0.74707 0.0
C456 C 0.8223 0.81281 0.74847 0.0
C457 C 0.80639 0.80438 0.77154 0.0
C458 C 0.81578 0.78202 0.7819 0.0
C459 C 0.83685 0.83881 0.75369 0.0
C460 C 0.80644 0.81139 0.72315 0.0
H461 H 0.74023 0.7838 0.8544 0.0
H462 H 0.80134 0.7137 0.86014 0.0
H463 H 0.78645 0.71632 0.80018 0.0
H464 H 0.81327 0.72506 0.78138 0.0
H465 H 0.81755 0.70659 0.80996 0.0
H466 H 0.83643 0.76413 0.8485 0.0
H467 H 0.84412 0.73234 0.8384 0.0
H468 H 0.85213 0.75956 0.81885 0.0
H469 H 0.71766 0.86199 0.8057 0.0
H470 H 0.76105 0.89177 0.74131 0.0
H471 H 0.78992 0.85682 0.74352 0.0
H472 H 0.76665 0.84934 0.83923 0.0
H473 H 0.735 0.8381 0.84827 0.0
H474 H 0.76279 0.81939 0.85356 0.0
H475 H 0.71869 0.80216 0.78834 0.0
H476 H 0.72487 0.78425 0.81578 0.0
H477 H 0.70796 0.8135 0.81928 0.0
H478 H 0.7357 0.75329 0.8887 0.0
C479 C 0.7538 0.76895 0.85495 0.0
C480 C 0.2875 0.22409 0.35364 0.0
C481 C 0.26854 0.22646 0.37265 0.0
C482 C 0.25216 0.24715 0.37213 0.0
C483 C 0.27381 0.26299 0.33392 0.0
C484 C 0.28985 0.24258 0.33455 0.0
C485 C 0.3094 0.24335 0.31322 0.0
H486 H 0.36064 0.3027 0.2092 0.0
C487 C 0.28158 0.27895 0.31182 0.0
C488 C 0.30247 0.26755 0.29967 0.0
H489 H 0.3848 0.23365 0.24426 0.0
H490 H 0.35087 0.23641 0.27601 0.0
H491 H 0.35268 0.33335 0.26109 0.0
H492 H 0.29892 0.28944 0.21332 0.0
H493 H 0.28405 0.31763 0.22294 0.0
H494 H 0.31306 0.31967 0.20401 0.0
H495 H 0.34048 0.34541 0.23157 0.0
H496 H 0.32394 0.34971 0.26187 0.0
C497 C 0.33649 0.24585 0.32562 0.0
C498 C 0.30473 0.21921 0.29576 0.0
C499 C 0.2333 0.35893 0.29223 0.0
C500 C 0.23677 0.37769 0.27345 0.0
C501 C 0.25686 0.37574 0.25547 0.0
C502 C 0.27329 0.35525 0.25603 0.0
C503 C 0.26966 0.33653 0.27487 0.0
C504 C 0.25004 0.33863 0.29267 0.0
C505 C 0.24961 0.31729 0.31168 0.0
C506 C 0.27197 0.30189 0.30213 0.0
C507 C 0.28352 0.31323 0.2805 0.0
C508 C 0.25467 0.32913 0.33897 0.0
C509 C 0.22363 0.30207 0.3088 0.0
C510 C 0.35835 0.28818 0.22368 0.0
C511 C 0.37505 0.26788 0.22442 0.0
C512 C 0.37191 0.24935 0.24351 0.0
C513 C 0.35228 0.25106 0.26187 0.0
C514 C 0.33573 0.2716 0.26115 0.0
C515 C 0.3389 0.2897 0.24225 0.0
C516 C 0.3198 0.31038 0.24473 0.0
C517 C 0.30462 0.30171 0.26818 0.0
C518 C 0.31401 0.27899 0.2777 0.0
C519 C 0.33481 0.33617 0.2499 0.0
C520 C 0.30308 0.30953 0.21997 0.0
H521 H 0.24163 0.28078 0.35343 0.0
H522 H 0.30036 0.20834 0.35384 0.0
H523 H 0.28382 0.2143 0.29387 0.0
H524 H 0.31152 0.22184 0.27579 0.0
H525 H 0.314 0.20245 0.30394 0.0
H526 H 0.33621 0.25763 0.34375 0.0
H527 H 0.34357 0.22683 0.33052 0.0
H528 H 0.35079 0.2558 0.31328 0.0
H529 H 0.21799 0.36016 0.30629 0.0
H530 H 0.25973 0.39012 0.24091 0.0
H531 H 0.28818 0.35481 0.24178 0.0
H532 H 0.26787 0.34633 0.33807 0.0
H533 H 0.23654 0.33511 0.34814 0.0
H534 H 0.26439 0.31611 0.35192 0.0
H535 H 0.21798 0.30005 0.28813 0.0
H536 H 0.22432 0.28232 0.3157 0.0
H537 H 0.20809 0.31194 0.31917 0.0
H538 H 0.23748 0.24915 0.38677 0.0
C539 C 0.25465 0.26542 0.35283 0.0
C540 C 0.49775 0.89147 0.48395 0.0
C541 C 0.48481 0.88508 0.46084 0.0
C542 C 0.46457 0.90002 0.45277 0.0
C543 C 0.47023 0.92736 0.49094 0.0
C544 C 0.4902 0.91263 0.49862 0.0
C545 C 0.50196 0.92203 0.52372 0.0
H546 H 0.50515 0.00719 0.62394 0.0
C547 C 0.46724 0.94791 0.51066 0.0
C548 C 0.48586 0.9449 0.52984 0.0
H549 H 0.5526 0.94237 0.61164 0.0
H550 H 0.53065 0.9319 0.57139 0.0
H551 H 0.45233 0.97786 0.60659 0.0
H552 H 0.50613 0.02625 0.56533 0.0
H553 H 0.47522 0.03418 0.55557 0.0
H554 H 0.4845 0.0387 0.58896 0.0
H555 H 0.45533 0.01177 0.61232 0.0
H556 H 0.4344 0.998 0.58756 0.0
C557 C 0.49797 0.90068 0.54377 0.0
C558 C 0.53043 0.93007 0.51862 0.0
C559 C 0.39687 0.01179 0.50133 0.0
C560 C 0.38989 0.03297 0.51644 0.0
C561 C 0.40396 0.03973 0.53888 0.0
C562 C 0.42472 0.02538 0.5464 0.0
C563 C 0.43147 0.00406 0.53126 0.0
C564 C 0.41775 0.99768 0.50904 0.0
C565 C 0.42805 0.97473 0.49513 0.0
C566 C 0.44995 0.96818 0.51285 0.0
C567 C 0.45178 0.98538 0.53402 0.0
C568 C 0.40659 0.9534 0.49424 0.0
C569 C 0.43783 0.98318 0.46828 0.0
C570 C 0.51073 0.99084 0.61238 0.0
C571 C 0.53051 0.97552 0.6206 0.0
C572 C 0.53736 0.95431 0.60541 0.0
C573 C 0.52459 0.94832 0.58214 0.0
C574 C 0.50467 0.96368 0.57408 0.0
C575 C 0.49801 0.98451 0.58914 0.0
C576 C 0.47605 0.9983 0.57777 0.0
C577 C 0.47068 0.98238 0.55337 0.0
C578 C 0.48755 0.9622 0.55131 0.0
C579 C 0.45328 0.99667 0.59699 0.0
C580 C 0.48572 0.02589 0.57168 0.0
H581 H 0.44156 0.93179 0.46067 0.0
H582 H 0.51337 0.88015 0.49045 0.0
H583 H 0.53262 0.93915 0.49949 0.0
H584 H 0.53816 0.94459 0.53262 0.0
H585 H 0.54278 0.91327 0.51866 0.0
H586 H 0.47959 0.88959 0.54025 0.0
H587 H 0.51373 0.88702 0.54279 0.0
H588 H 0.49636 0.90822 0.56375 0.0
H589 H 0.3863 0.0064 0.48391 0.0
H590 H 0.39874 0.05608 0.55063 0.0
H591 H 0.43465 0.03142 0.56374 0.0
H592 H 0.39581 0.95293 0.51277 0.0
H593 H 0.39261 0.95664 0.47858 0.0
H594 H 0.41403 0.93408 0.4917 0.0
H595 H 0.44598 0.00316 0.46917 0.0
H596 H 0.45369 0.97168 0.46095 0.0
H597 H 0.422 0.98242 0.4539 0.0
H598 H 0.45445 0.8952 0.43496 0.0
C599 C 0.45718 0.92115 0.46772 0.0
C600 C 0.13906 0.30209 0.7645 0.0
C601 C 0.11866 0.28388 0.75969 0.0
C602 C 0.12452 0.26261 0.74353 0.0
C603 C 0.16542 0.28248 0.73162 0.0
C604 C 0.16154 0.3016 0.74969 0.0
C605 C 0.18352 0.32114 0.75075 0.0
H606 H 0.29039 0.37121 0.6953 0.0
C607 C 0.18999 0.28837 0.71834 0.0
C608 C 0.20066 0.3111 0.72942 0.0
H609 H 0.25238 0.3974 0.76456 0.0
H610 H 0.22364 0.36108 0.76228 0.0
H611 H 0.2401 0.35384 0.66259 0.0
H612 H 0.29026 0.31415 0.71251 0.0
H613 H 0.28218 0.29307 0.68668 0.0
H614 H 0.29948 0.32286 0.68043 0.0
H615 H 0.27233 0.34653 0.65374 0.0
H616 H 0.24572 0.32412 0.64778 0.0
C617 C 0.17277 0.34742 0.74436 0.0
C618 C 0.19651 0.32027 0.77763 0.0
C619 C 0.21682 0.23339 0.64156 0.0
C620 C 0.23681 0.23612 0.62353 0.0
C621 C 0.25494 0.25665 0.62637 0.0
C622 C 0.25305 0.27446 0.64677 0.0
C623 C 0.23256 0.27196 0.6643 0.0
C624 C 0.21491 0.25164 0.66159 0.0
C625 C 0.19394 0.25259 0.68151 0.0
C626 C 0.20214 0.2766 0.69686 0.0
C627 C 0.22474 0.28786 0.68664 0.0
C628 C 0.16818 0.25555 0.66716 0.0
C629 C 0.1949 0.22834 0.69801 0.0
C630 C 0.27474 0.37078 0.70891 0.0
C631 C 0.27113 0.3908 0.72725 0.0
C632 C 0.25349 0.38532 0.74751 0.0
C633 C 0.23702 0.36349 0.74672 0.0
C634 C 0.23858 0.34601 0.72603 0.0
C635 C 0.25798 0.34919 0.70823 0.0
C636 C 0.25833 0.32737 0.68887 0.0
C637 C 0.2354 0.31097 0.69767 0.0
C638 C 0.22374 0.32218 0.71929 0.0
C639 C 0.25409 0.33833 0.66172 0.0
C640 C 0.2839 0.31362 0.692 0.0
H641 H 0.14998 0.2457 0.71683 0.0
H642 H 0.13839 0.31652 0.77954 0.0
H643 H 0.1932 0.30131 0.78661 0.0
H644 H 0.21767 0.3229 0.7765 0.0
H645 H 0.18891 0.33492 0.7911 0.0
H646 H 0.16024 0.34571 0.72697 0.0
H647 H 0.16108 0.35478 0.76061 0.0
H648 H 0.18778 0.36207 0.73996 0.0
H649 H 0.20264 0.21775 0.63968 0.0
H650 H 0.27047 0.25896 0.6126 0.0
H651 H 0.2674 0.28971 0.64784 0.0
H652 H 0.17069 0.26905 0.65098 0.0
H653 H 0.16085 0.23692 0.65887 0.0
H654 H 0.15311 0.26364 0.67941 0.0
H655 H 0.21499 0.22228 0.70026 0.0
H656 H 0.18799 0.23151 0.71794 0.0
H657 H 0.18359 0.21211 0.68891 0.0
H658 H 0.11164 0.24598 0.74179 0.0
C659 C 0.14736 0.26203 0.72927 0.0
C660 C 0.73387 0.14052 0.73902 0.0
C661 C 0.71254 0.13492 0.72305 0.0
C662 C 0.70776 0.15065 0.70208 0.0
C663 C 0.74541 0.17737 0.71315 0.0
C664 C 0.75 0.16181 0.73374 0.0
C665 C 0.77356 0.17062 0.74875 0.0
H666 H 0.87501 0.25469 0.76424 0.0
C667 C 0.76569 0.19793 0.71307 0.0
C668 C 0.78222 0.19412 0.73392 0.0
H669 H 0.85498 0.18932 0.81043 0.0
H670 H 0.81736 0.17977 0.78383 0.0
H671 H 0.81897 0.27485 0.7602 0.0
H672 H 0.86165 0.2271 0.70854 0.0
H673 H 0.84657 0.24994 0.69003 0.0
H674 H 0.8696 0.26041 0.71431 0.0
H675 H 0.84343 0.28788 0.73937 0.0
H676 H 0.8105 0.28318 0.7288 0.0
C677 C 0.76522 0.17755 0.77664 0.0
C678 C 0.79329 0.14928 0.74683 0.0
C679 C 0.76604 0.26477 0.64339 0.0
C680 C 0.78192 0.2865 0.63883 0.0
C681 C 0.80237 0.29287 0.65583 0.0
C682 C 0.80723 0.2775 0.67695 0.0
C683 C 0.79136 0.25563 0.68119 0.0
C684 C 0.771 0.24976 0.66471 0.0
C685 C 0.75565 0.22632 0.67275 0.0
C686 C 0.77036 0.2189 0.69655 0.0
C687 C 0.79136 0.236 0.70126 0.0
C688 C 0.72805 0.23432 0.6794 0.0
C689 C 0.75713 0.2059 0.65077 0.0
C690 C 0.86242 0.23834 0.76847 0.0
C691 C 0.86767 0.22262 0.78921 0.0
C692 C 0.85105 0.20155 0.79443 0.0
C693 C 0.82933 0.1961 0.77897 0.0
C694 C 0.82428 0.21192 0.75811 0.0
C695 C 0.84067 0.23268 0.75323 0.0
C696 C 0.83222 0.24749 0.73043 0.0
C697 C 0.80818 0.23209 0.72224 0.0
C698 C 0.80364 0.21127 0.73848 0.0
C699 C 0.82609 0.27486 0.73995 0.0
C700 C 0.85357 0.24645 0.70967 0.0
H701 H 0.71947 0.18314 0.68076 0.0
H702 H 0.73784 0.12857 0.75523 0.0
H703 H 0.79252 0.13967 0.72746 0.0
H704 H 0.81336 0.15661 0.74893 0.0
H705 H 0.78932 0.13444 0.76144 0.0
H706 H 0.74617 0.18643 0.77672 0.0
H707 H 0.76359 0.16027 0.78868 0.0
H708 H 0.77833 0.19188 0.78622 0.0
H709 H 0.7501 0.25967 0.63062 0.0
H710 H 0.81467 0.30966 0.65257 0.0
H711 H 0.82319 0.28323 0.68911 0.0
H712 H 0.72816 0.25415 0.68761 0.0
H713 H 0.71564 0.23374 0.66196 0.0
H714 H 0.71885 0.22244 0.69441 0.0
H715 H 0.77666 0.20619 0.64206 0.0
H716 H 0.75381 0.1862 0.6575 0.0
H717 H 0.7432 0.20949 0.63517 0.0
H718 H 0.69135 0.14645 0.68963 0.0
C719 C 0.72408 0.17187 0.69703 0.0
C720 C 0.53501 0.61329 0.47758 0.0
C721 C 0.51501 0.63028 0.48055 0.0
C722 C 0.49755 0.62727 0.50104 0.0
C723 C 0.52036 0.59084 0.51572 0.0
C724 C 0.53735 0.59376 0.49539 0.0
C725 C 0.55784 0.5743 0.49556 0.0
H726 H 0.61336 0.47639 0.55488 0.0
C727 C 0.5285 0.56916 0.53112 0.0
C728 C 0.55046 0.55937 0.51943 0.0
H729 H 0.63686 0.51268 0.48431 0.0
H730 H 0.60069 0.54032 0.48709 0.0
H731 H 0.59903 0.52729 0.58578 0.0
H732 H 0.55285 0.47265 0.54098 0.0
H733 H 0.53463 0.48116 0.5681 0.0
H734 H 0.56466 0.46578 0.5725 0.0
H735 H 0.59092 0.49575 0.59684 0.0
H736 H 0.57009 0.52196 0.60256 0.0
C737 C 0.58422 0.58877 0.49872 0.0
C738 C 0.55509 0.55761 0.47059 0.0
C739 C 0.47858 0.54457 0.6117 0.0
C740 C 0.48205 0.52592 0.63026 0.0
C741 C 0.50267 0.5095 0.62781 0.0
C742 C 0.51978 0.51166 0.60704 0.0
C743 C 0.51623 0.5305 0.58859 0.0
C744 C 0.49589 0.54655 0.5911 0.0
C745 C 0.49532 0.56562 0.56986 0.0
C746 C 0.51853 0.55825 0.55407 0.0
C747 C 0.5307 0.5377 0.56513 0.0
C748 C 0.49888 0.59278 0.58221 0.0
C749 C 0.46993 0.56088 0.55462 0.0
C750 C 0.61052 0.4903 0.54009 0.0
C751 C 0.62773 0.49265 0.5194 0.0
C752 C 0.62365 0.51076 0.50035 0.0
C753 C 0.60273 0.52674 0.50208 0.0
C754 C 0.58576 0.52452 0.52309 0.0
C755 C 0.58965 0.50632 0.54149 0.0
C756 C 0.56946 0.5064 0.56221 0.0
C757 C 0.55297 0.52783 0.55341 0.0
C758 C 0.56268 0.53848 0.53058 0.0
C759 C 0.58289 0.51301 0.58833 0.0
C760 C 0.55462 0.48015 0.56119 0.0
H761 H 0.48624 0.60633 0.53391 0.0
H762 H 0.54865 0.6154 0.46192 0.0
H763 H 0.53458 0.55492 0.46478 0.0
H764 H 0.56176 0.53804 0.47299 0.0
H765 H 0.56561 0.56663 0.45429 0.0
H766 H 0.58278 0.60534 0.51238 0.0
H767 H 0.59119 0.59622 0.47998 0.0
H768 H 0.59909 0.57698 0.50702 0.0
H769 H 0.46282 0.55739 0.61332 0.0
H770 H 0.50549 0.49502 0.64205 0.0
H771 H 0.53515 0.49863 0.60623 0.0
H772 H 0.51155 0.59265 0.59949 0.0
H773 H 0.48018 0.60027 0.58848 0.0
H774 H 0.50851 0.6066 0.56924 0.0
H775 H 0.46481 0.54007 0.55294 0.0
H776 H 0.4712 0.56738 0.53452 0.0
H777 H 0.45375 0.57028 0.56443 0.0
H778 H 0.48206 0.6403 0.50347 0.0
C779 C 0.50008 0.6076 0.51863 0.0
C780 C 0.53725 0.40024 0.02222 0.0
C781 C 0.51651 0.38232 0.02089 0.0
C782 C 0.49744 0.38464 0.00197 0.0
C783 C 0.51966 0.42273 0.98613 0.0
C784 C 0.53841 0.42027 0.00472 0.0
C785 C 0.55894 0.44123 0.00361 0.0
H786 H 0.60502 0.551 0.95078 0.0
C787 C 0.52642 0.44578 0.9712 0.0
C788 C 0.54941 0.45671 0.98136 0.0
H789 H 0.63768 0.50909 0.01272 0.0
H790 H 0.60326 0.47682 0.00897 0.0
H791 H 0.54602 0.544 0.96859 0.0
H792 H 0.59122 0.50122 0.91459 0.0
H793 H 0.56051 0.50338 0.90105 0.0
H794 H 0.57987 0.53218 0.90743 0.0
H795 H 0.55613 0.55638 0.93804 0.0
H796 H 0.52694 0.53704 0.94117 0.0
C797 C 0.55867 0.45652 0.02954 0.0
C798 C 0.58482 0.4289 0.99725 0.0
C799 C 0.46851 0.47128 0.89797 0.0
C800 C 0.4698 0.49162 0.88079 0.0
C801 C 0.49026 0.50992 0.88265 0.0
C802 C 0.5094 0.50794 0.90145 0.0
C803 C 0.50801 0.48742 0.91854 0.0
C804 C 0.48778 0.46955 0.91663 0.0
C805 C 0.48945 0.44904 0.93634 0.0
C806 C 0.51409 0.45741 0.9503 0.0
C807 C 0.52486 0.47993 0.93984 0.0
C808 C 0.46567 0.45046 0.9542 0.0
C809 C 0.49193 0.42306 0.92183 0.0
C810 C 0.60463 0.53476 0.96339 0.0
C811 C 0.62383 0.53239 0.98211 0.0
C812 C 0.62296 0.51111 0.99823 0.0
C813 C 0.60296 0.4925 0.99602 0.0
C814 C 0.58364 0.49519 0.97744 0.0
C815 C 0.58481 0.51592 0.96134 0.0
C816 C 0.5628 0.51535 0.94249 0.0
C817 C 0.54806 0.49108 0.95018 0.0
C818 C 0.56032 0.47943 0.97072 0.0
C819 C 0.54711 0.53947 0.94755 0.0
C820 C 0.57398 0.5131 0.91487 0.0
H821 H 0.48377 0.40553 0.9706 0.0
H822 H 0.55212 0.39872 0.03665 0.0
H823 H 0.58185 0.41182 0.98428 0.0
H824 H 0.59821 0.44174 0.98663 0.0
H825 H 0.59439 0.42262 0.01504 0.0
H826 H 0.53867 0.45824 0.03674 0.0
H827 H 0.56972 0.44691 0.04459 0.0
H828 H 0.56622 0.47641 0.0279 0.0
H829 H 0.45289 0.45702 0.8968 0.0
H830 H 0.49143 0.52568 0.86944 0.0
H831 H 0.52455 0.52244 0.90192 0.0
H832 H 0.46004 0.47059 0.95719 0.0
H833 H 0.44889 0.43951 0.94574 0.0
H834 H 0.46926 0.44357 0.9738 0.0
H835 H 0.50383 0.42537 0.90414 0.0
H836 H 0.50181 0.40886 0.93325 0.0
H837 H 0.47281 0.4149 0.91578 0.0
H838 H 0.48137 0.37087 0.00078 0.0
C839 C 0.4989 0.40475 0.98456 0.0
C840 C 0.77672 0.16343 0.29861 0.0
C841 C 0.77342 0.14314 0.28059 0.0
C842 C 0.75208 0.14236 0.26391 0.0
C843 C 0.73727 0.18147 0.28364 0.0
C844 C 0.75837 0.18226 0.29989 0.0
C845 C 0.75836 0.20473 0.31848 0.0
H846 H 0.69976 0.30942 0.36508 0.0
C847 C 0.72169 0.20367 0.29015 0.0
C848 C 0.73397 0.21743 0.31052 0.0
H849 H 0.7697 0.27756 0.39212 0.0
H850 H 0.76658 0.24452 0.35867 0.0
H851 H 0.66859 0.25419 0.35573 0.0
H852 H 0.71157 0.3048 0.30596 0.0
H853 H 0.68671 0.29068 0.28702 0.0
H854 H 0.67896 0.31052 0.31467 0.0
H855 H 0.65879 0.28555 0.34775 0.0
H856 H 0.65061 0.2582 0.32742 0.0
C857 C 0.75651 0.19434 0.34623 0.0
C858 C 0.78265 0.22189 0.31334 0.0
C859 C 0.63736 0.21551 0.24326 0.0
C860 C 0.61742 0.23297 0.24642 0.0
C861 C 0.62326 0.25506 0.26208 0.0
C862 C 0.64557 0.25739 0.27716 0.0
C863 C 0.66324 0.23797 0.27612 0.0
C864 C 0.65942 0.21792 0.25874 0.0
C865 C 0.68113 0.19979 0.25903 0.0
C866 C 0.69823 0.21204 0.27997 0.0
C867 C 0.68759 0.23439 0.28993 0.0
C868 C 0.66996 0.17317 0.26683 0.0
C869 C 0.69435 0.20022 0.23226 0.0
C870 C 0.71434 0.29528 0.36361 0.0
C871 C 0.73496 0.29582 0.38104 0.0
C872 C 0.7537 0.27729 0.37876 0.0
C873 C 0.75178 0.25818 0.35941 0.0
C874 C 0.73081 0.25756 0.34227 0.0
C875 C 0.71258 0.27597 0.34451 0.0
C876 C 0.69149 0.27217 0.32484 0.0
C877 C 0.69992 0.24831 0.31056 0.0
C878 C 0.72297 0.23986 0.32082 0.0
C879 C 0.6659 0.2674 0.3395 0.0
C880 C 0.69193 0.29575 0.30723 0.0
H881 H 0.71819 0.15981 0.25204 0.0
H882 H 0.79304 0.16435 0.3116 0.0
H883 H 0.78676 0.22268 0.2923 0.0
H884 H 0.78051 0.24198 0.3196 0.0
H885 H 0.79976 0.21438 0.32294 0.0
H886 H 0.74461 0.17622 0.34662 0.0
H887 H 0.7758 0.19031 0.35389 0.0
H888 H 0.7469 0.20737 0.35982 0.0
H889 H 0.63679 0.20035 0.22894 0.0
H890 H 0.61082 0.27108 0.26273 0.0
H891 H 0.64814 0.27428 0.28911 0.0
H892 H 0.65458 0.17511 0.28155 0.0
H893 H 0.66143 0.16255 0.24992 0.0
H894 H 0.68425 0.16126 0.27595 0.0
H895 H 0.6941 0.21961 0.22392 0.0
H896 H 0.7149 0.19585 0.23316 0.0
H897 H 0.68443 0.18666 0.21842 0.0
H898 H 0.74937 0.12684 0.24989 0.0
C899 C 0.73405 0.16147 0.26525 0.0
C900 C 0.39969 0.99066 0.99235 0.0
C901 C 0.39459 0.968 0.97803 0.0
C902 C 0.41082 0.96157 0.95738 0.0
C903 C 0.437 1.00025 0.96563 0.0
C904 C 0.42098 0.00638 0.98593 0.0
C905 C 0.42962 0.03072 0.99978 0.0
H906 H 0.51439 0.1316 0.01194 0.0
C907 C 0.45749 0.02057 0.96426 0.0
C908 C 0.45327 0.03842 0.98428 0.0
H909 H 0.44946 0.11241 0.06052 0.0
H910 H 0.43887 0.0752 0.03357 0.0
H911 H 0.48604 0.11778 0.95724 0.0
H912 H 0.53388 0.07474 0.00659 0.0
H913 H 0.54321 0.06829 0.97463 0.0
H914 H 0.54645 0.10054 0.98749 0.0
H915 H 0.52005 0.12416 0.95994 0.0
H916 H 0.50673 0.10062 0.93721 0.0
C917 C 0.40813 0.05013 0.99718 0.0
C918 C 0.43638 0.02425 0.02799 0.0
C919 C 0.52604 0.01626 0.89461 0.0
C920 C 0.54709 0.03255 0.88847 0.0
C921 C 0.552 0.05508 0.90321 0.0
C922 C 0.53611 0.06133 0.92404 0.0
C923 C 0.5151 0.04486 0.93014 0.0
C924 C 0.5103 0.0228 0.91545 0.0
C925 C 0.48698 0.00775 0.92463 0.0
C926 C 0.47863 0.02434 0.94726 0.0
C927 C 0.49522 0.04601 0.95043 0.0
C928 C 0.46684 0.00655 0.90259 0.0
C929 C 0.49562 0.98132 0.93337 0.0
C930 C 0.49786 0.11933 0.01654 0.0
C931 C 0.48265 0.12469 0.03821 0.0
C932 C 0.46133 0.10844 0.04385 0.0
C933 C 0.4553 0.08689 0.02822 0.0
C934 C 0.47087 0.08144 0.0068 0.0
C935 C 0.49172 0.09755 0.00123 0.0
C936 C 0.50641 0.08835 0.97806 0.0
C937 C 0.49102 0.06401 0.97075 0.0
C938 C 0.47019 0.06017 0.98758 0.0
C939 C 0.50501 0.10874 0.95695 0.0
C940 C 0.53402 0.0828 0.98689 0.0
H941 H 0.44369 0.97172 0.93515 0.0
H942 H 0.38749 0.99585 0.00841 0.0
H943 H 0.44335 0.0045 0.02924 0.0
H944 H 0.45228 0.03658 0.03602 0.0
H945 H 0.41937 0.02555 0.04079 0.0
H946 H 0.39942 0.04877 0.97757 0.0
H947 H 0.39255 0.0464 0.01139 0.0
H948 H 0.41522 0.0702 0.99946 0.0
H949 H 0.52195 0.99889 0.88338 0.0
H950 H 0.56817 0.06779 0.89856 0.0
H951 H 0.54083 0.07873 0.93459 0.0
H952 H 0.46698 0.02491 0.89218 0.0
H953 H 0.47095 0.99116 0.88828 0.0
H954 H 0.44695 0.00371 0.90959 0.0
H955 H 0.51499 0.98297 0.94244 0.0
H956 H 0.48302 0.97286 0.94832 0.0
H957 H 0.49666 0.96766 0.91673 0.0
H958 H 0.4071 0.94407 0.94624 0.0
C959 C 0.43199 0.97762 0.95105 0.0
C960 C 0.21341 0.91948 0.00292 0.0
O961 O 0.22059 0.91474 0.97906 0.0
O962 O 0.24277 0.86326 0.98272 0.0
Zn963 Zn 0.25399 0.88623 0.0131 0.0
O964 O 0.28492 0.90878 0.00382 0.0
C965 C 0.26891 0.84249 0.04292 0.0
O966 O 0.27211 0.83172 0.02011 0.0
O967 O 0.2249 0.90923 0.02143 0.0
C968 C 0.30781 0.90152 0.00582 0.0
O969 O 0.31191 0.87856 0.01419 0.0
C970 C 0.25857 0.8542 0.96659 0.0
O971 O 0.28323 0.85967 0.96931 0.0
O972 O 0.26168 0.86539 0.04456 0.0
C973 C 0.1736 0.46564 0.26468 0.0
O974 O 0.18489 0.4884 0.26749 0.0
O975 O 0.10541 0.49876 0.28435 0.0
Zn976 Zn 0.12842 0.49427 0.25303 0.0
O977 O 0.15211 0.52548 0.24816 0.0
C978 C 0.08498 0.49346 0.2171 0.0
O979 O 0.07324 0.50557 0.23579 0.0
O980 O 0.14987 0.46361 0.25895 0.0
C981 C 0.14528 0.54528 0.23663 0.0
O982 O 0.12185 0.54636 0.22759 0.0
C983 C 0.09614 0.51992 0.29136 0.0
O984 O 0.10048 0.54027 0.27746 0.0
O985 O 0.10797 0.48689 0.22024 0.0
C986 C 0.79803 0.59156 0.9979 0.0
O987 O 0.78593 0.58598 0.97615 0.0
O988 O 0.76643 0.64857 0.97114 0.0
Zn989 Zn 0.75863 0.62808 0.00308 0.0
O990 O 0.72935 0.60249 0.99594 0.0
C991 C 0.76377 0.67032 0.03948 0.0
O992 O 0.78509 0.67491 0.0266 0.0
O993 O 0.79001 0.60912 0.01276 0.0
C994 C 0.70612 0.60892 0.99744 0.0
O995 O 0.70098 0.63265 0.00354 0.0
C996 C 0.75213 0.66643 0.96458 0.0
O997 O 0.7318 0.67147 0.97841 0.0
O998 O 0.74919 0.65121 0.03306 0.0
C999 C 0.83826 0.05656 0.26977 0.0
O1000 O 0.82652 0.03438 0.27387 0.0
O1001 O 0.90117 0.01539 0.28425 0.0
Zn1002 Zn 0.8791 0.02437 0.25408 0.0
O1003 O 0.85185 0.997 0.2452 0.0
C1004 C 0.91417 0.01086 0.2139 0.0
O1005 O 0.91139 0.98827 0.22424 0.0
O1006 O 0.8614 0.05731 0.26194 0.0
C1007 C 0.85284 0.97306 0.24828 0.0
O1008 O 0.87335 0.96342 0.25829 0.0
C1009 C 0.89237 0.00918 0.30619 0.0
O1010 O 0.86742 0.00754 0.30992 0.0
O1011 O 0.90213 0.02953 0.22328 0.0
C1012 C 0.30382 0.09419 0.49063 0.0
O1013 O 0.29742 0.09793 0.46653 0.0
O1014 O 0.2688 0.14771 0.47059 0.0
Zn1015 Zn 0.26057 0.1257 0.50163 0.0
O1016 O 0.22979 0.10166 0.49495 0.0
C1017 C 0.2467 0.17041 0.5329 0.0
O1018 O 0.24171 0.18042 0.51056 0.0
O1019 O 0.29097 0.10419 0.5088 0.0
C1020 C 0.20692 0.10799 0.49962 0.0
O1021 O 0.20271 0.13116 0.50839 0.0
C1022 C 0.25149 0.15681 0.45658 0.0
O1023 O 0.22721 0.15147 0.46167 0.0
O1024 O 0.25433 0.14766 0.53365 0.0
C1025 C 0.33588 0.54901 0.77932 0.0
O1026 O 0.33651 0.52887 0.79391 0.0
O1027 O 0.39673 0.51555 0.78359 0.0
Zn1028 Zn 0.37317 0.52085 0.75324 0.0
O1029 O 0.3479 0.49129 0.7463 0.0
C1030 C 0.41498 0.51405 0.71842 0.0
O1031 O 0.42117 0.49734 0.73566 0.0
O1032 O 0.35114 0.55099 0.76029 0.0
C1033 C 0.3516 0.46749 0.74465 0.0
O1034 O 0.37475 0.45903 0.74785 0.0
C1035 C 0.39259 0.49977 0.80153 0.0
O1036 O 0.37147 0.48526 0.80158 0.0
O1037 O 0.39487 0.52672 0.72154 0.0
C1038 C 0.71767 0.43167 0.51198 0.0
O1039 O 0.73812 0.44175 0.5007 0.0
O1040 O 0.74517 0.36385 0.4869 0.0
Zn1041 Zn 0.74986 0.38846 0.51706 0.0
O1042 O 0.78087 0.41164 0.51067 0.0
C1043 C 0.7624 0.3458 0.54836 0.0
O1044 O 0.76515 0.33448 0.52573 0.0
O1045 O 0.71815 0.40922 0.52076 0.0
C1046 C 0.80193 0.40237 0.50349 0.0
O1047 O 0.8035 0.37751 0.50049 0.0
C1048 C 0.74246 0.37149 0.46402 0.0
O1049 O 0.74208 0.39608 0.45965 0.0
O1050 O 0.75583 0.36892 0.54959 0.0
C1051 C 0.67306 0.96645 0.76342 0.0
O1052 O 0.6843 0.98924 0.76615 0.0
O1053 O 0.60539 0.00212 0.7813 0.0
Zn1054 Zn 0.62868 0.99542 0.75106 0.0
O1055 O 0.65241 0.02613 0.74569 0.0
C1056 C 0.58466 0.99572 0.71673 0.0
O1057 O 0.57345 0.00679 0.73646 0.0
O1058 O 0.64937 0.96436 0.75753 0.0
C1059 C 0.64357 0.04792 0.74155 0.0
O1060 O 0.61863 0.05059 0.74093 0.0
C1061 C 0.61452 0.00972 0.80299 0.0
O1062 O 0.6395 0.01292 0.80591 0.0
O1063 O 0.60779 0.98915 0.71862 0.0
C1064 C 0.00104 0.20825 0.90824 0.0
O1065 O 0.97685 0.21348 0.90479 0.0
O1066 O 0.97608 0.23788 0.85452 0.0
Zn1067 Zn 0.00819 0.25001 0.8743 0.0
O1068 O 0.00091 0.28015 0.89805 0.0
C1069 C 0.03259 0.26834 0.82776 0.0
O1070 O 0.00886 0.27302 0.82151 0.0
O1071 O 0.01855 0.22127 0.89683 0.0
C1072 C 0.00163 0.30328 0.89103 0.0
O1073 O 0.00746 0.30872 0.86707 0.0
C1074 C 0.95866 0.25274 0.84782 0.0
O1075 O 0.96105 0.27723 0.85366 0.0
O1076 O 0.03728 0.25878 0.84951 0.0
C1077 C 0.50001 0.71534 0.41378 0.0
O1078 O 0.48132 0.73042 0.41985 0.0
O1079 O 0.47777 0.74061 0.34715 0.0
Zn1080 Zn 0.5076 0.74948 0.37086 0.0
O1081 O 0.4992 0.781 0.392 0.0
C1082 C 0.54139 0.77452 0.33405 0.0
O1083 O 0.52329 0.79126 0.33362 0.0
O1084 O 0.51374 0.71979 0.39401 0.0
C1085 C 0.51608 0.79634 0.40203 0.0
O1086 O 0.54055 0.79198 0.39908 0.0
C1087 C 0.45476 0.74202 0.35502 0.0
O1088 O 0.45033 0.74915 0.379 0.0
O1089 O 0.53909 0.75555 0.34886 0.0
C1090 C 0.00163 0.79564 0.58963 0.0
O1091 O 0.98062 0.78134 0.58587 0.0
O1092 O 0.97769 0.76915 0.65275 0.0
Zn1093 Zn 0.00821 0.76061 0.63054 0.0
O1094 O 0.9992 0.729 0.60865 0.0
C1095 C 0.03537 0.73644 0.67042 0.0
O1096 O 0.01469 0.72128 0.66948 0.0
O1097 O 0.01697 0.79042 0.60765 0.0
C1098 C 0.01534 0.71238 0.60246 0.0
O1099 O 0.03933 0.71551 0.61006 0.0
C1100 C 0.95995 0.75251 0.65743 0.0
O1101 O 0.96078 0.72951 0.64695 0.0
O1102 O 0.03772 0.75473 0.65478 0.0
C1103 C 0.50283 0.29832 0.09067 0.0
O1104 O 0.48147 0.28436 0.08779 0.0
O1105 O 0.47771 0.26978 0.14965 0.0
Zn1106 Zn 0.50993 0.26196 0.12925 0.0
O1107 O 0.50364 0.23199 0.10432 0.0
C1108 C 0.53467 0.24354 0.17459 0.0
O1109 O 0.51119 0.23518 0.17965 0.0
O1110 O 0.51897 0.29261 0.10778 0.0
C1111 C 0.50474 0.20866 0.11035 0.0
O1112 O 0.51033 0.20279 0.13413 0.0
C1113 C 0.46081 0.25283 0.1559 0.0
O1114 O 0.46334 0.229 0.14829 0.0
O1115 O 0.53928 0.25545 0.15388 0.0
C1116 C 0.25298 0.82778 0.89807 0.0
C1117 C 0.23865 0.80463 0.90196 0.0
C1118 C 0.23543 0.81465 0.94822 0.0
C1119 C 0.24943 0.8381 0.94429 0.0
N1120 N 0.26545 0.87002 0.91487 0.0
N1121 N 0.21137 0.7784 0.92903 0.0
C1122 C 0.25641 0.84557 0.91899 0.0
C1123 C 0.22826 0.79887 0.92653 0.0
N1124 N 0.26393 0.83243 0.87458 0.0
N1125 N 0.23018 0.80673 0.97269 0.0
H1126 H 0.20605 0.76619 0.9136 0.0
H1127 H 0.20095 0.77478 0.94578 0.0
H1128 H 0.23461 0.81774 0.98915 0.0
H1129 H 0.223 0.78844 0.97685 0.0
H1130 H 0.27714 0.84747 0.87138 0.0
H1131 H 0.26113 0.82022 0.85856 0.0
H1132 H 0.26859 0.87739 0.8966 0.0
H1133 H 0.26732 0.88382 0.92965 0.0
C1134 C 0.04285 0.53664 0.33824 0.0
C1135 C 0.0531 0.52819 0.36177 0.0
C1136 C 0.0921 0.51532 0.33941 0.0
C1137 C 0.08103 0.52193 0.31552 0.0
N1138 N 0.04392 0.53432 0.29158 0.0
N1139 N 0.0851 0.50539 0.38441 0.0
C1140 C 0.05584 0.53134 0.31476 0.0
C1141 C 0.07701 0.51623 0.36223 0.0
N1142 N 0.02108 0.5504 0.33842 0.0
N1143 N 0.11744 0.50957 0.34059 0.0
H1144 H 0.07466 0.50599 0.40158 0.0
H1145 H 0.10097 0.49396 0.38523 0.0
H1146 H 0.12946 0.50937 0.32452 0.0
H1147 H 0.12724 0.50732 0.35786 0.0
H1148 H 0.01438 0.55967 0.32233 0.0
H1149 H 0.01073 0.55432 0.35518 0.0
H1150 H 0.0246 0.53837 0.28984 0.0
H1151 H 0.05264 0.53044 0.27393 0.0
C1152 C 0.78148 0.71684 0.92059 0.0
C1153 C 0.76551 0.71332 0.89852 0.0
C1154 C 0.74145 0.67821 0.91934 0.0
C1155 C 0.75788 0.68128 0.94115 0.0
N1156 N 0.79608 0.70028 0.96115 0.0
N1157 N 0.73352 0.68822 0.87456 0.0
C1158 C 0.77879 0.69952 0.94127 0.0
C1159 C 0.74641 0.69326 0.89722 0.0
N1160 N 0.79844 0.73745 0.92224 0.0
N1161 N 0.72096 0.66106 0.91992 0.0
H1162 H 0.73662 0.69897 0.85806 0.0
H1163 H 0.72125 0.6723 0.87137 0.0
H1164 H 0.7177 0.64848 0.93502 0.0
H1165 H 0.70642 0.66007 0.90612 0.0
H1166 H 0.80848 0.74291 0.93896 0.0
H1167 H 0.80124 0.75036 0.90736 0.0
H1168 H 0.8133 0.71106 0.96101 0.0
H1169 H 0.79419 0.68867 0.97716 0.0
C1170 C 0.92668 0.01532 0.37117 0.0
C1171 C 0.94693 0.99841 0.36704 0.0
C1172 C 0.92904 0.98584 0.32469 0.0
C1173 C 0.91042 0.00478 0.32763 0.0
N1174 N 0.89405 0.04052 0.3519 0.0
N1175 N 0.96966 0.96992 0.33881 0.0
C1176 C 0.90978 0.02024 0.35048 0.0
C1177 C 0.94873 0.98427 0.3435 0.0
N1178 N 0.92337 0.02636 0.39502 0.0
N1179 N 0.92735 0.96874 0.3044 0.0
H1180 H 0.98428 0.96793 0.35229 0.0
H1181 H 0.97357 0.96159 0.32089 0.0
H1182 H 0.913 0.96903 0.29042 0.0
H1183 H 0.93865 0.95284 0.30267 0.0
H1184 H 0.90733 0.03662 0.40005 0.0
H1185 H 0.9356 0.02345 0.41054 0.0
H1186 H 0.89483 0.05411 0.36687 0.0
H1187 H 0.88177 0.04521 0.33701 0.0
C1188 C 0.21929 0.21716 0.58175 0.0
C1189 C 0.23854 0.21798 0.60117 0.0
C1190 C 0.26392 0.18851 0.57527 0.0
C1191 C 0.24356 0.18579 0.55704 0.0
N1192 N 0.19924 0.19278 0.54653 0.0
N1193 N 0.27629 0.19995 0.61919 0.0
C1194 C 0.22044 0.19872 0.56133 0.0
C1195 C 0.25997 0.20223 0.59879 0.0
N1196 N 0.2005 0.23464 0.58213 0.0
N1197 N 0.28752 0.17935 0.56962 0.0
H1198 H 0.27378 0.20942 0.63687 0.0
H1199 H 0.29073 0.18676 0.61938 0.0
H1200 H 0.29175 0.17019 0.55217 0.0
H1201 H 0.30366 0.1832 0.58114 0.0
H1202 H 0.18766 0.23656 0.56694 0.0
H1203 H 0.19921 0.24888 0.59639 0.0
H1204 H 0.18121 0.19982 0.55053 0.0
H1205 H 0.19894 0.17871 0.53198 0.0
C1206 C 0.46583 0.54166 0.67315 0.0
C1207 C 0.46412 0.52351 0.6524 0.0
C1208 C 0.43065 0.49882 0.6753 0.0
C1209 C 0.43128 0.51775 0.69534 0.0
N1210 N 0.44661 0.55889 0.71211 0.0
N1211 N 0.44216 0.48745 0.6313 0.0
C1212 C 0.44793 0.53977 0.69381 0.0
C1213 C 0.44575 0.50279 0.6528 0.0
N1214 N 0.48527 0.56002 0.67361 0.0
N1215 N 0.41584 0.47688 0.67795 0.0
H1216 H 0.45285 0.48982 0.61445 0.0
H1217 H 0.42724 0.47373 0.6293 0.0
H1218 H 0.40365 0.47381 0.69362 0.0
H1219 H 0.41681 0.46105 0.66555 0.0
H1220 H 0.48937 0.57202 0.68947 0.0
H1221 H 0.49871 0.56205 0.65881 0.0
H1222 H 0.45607 0.57668 0.71054 0.0
H1223 H 0.4346 0.55769 0.72817 0.0
C1224 C 0.75478 0.31686 0.61496 0.0
C1225 C 0.77726 0.3025 0.6161 0.0
C1226 C 0.79168 0.3201 0.57493 0.0
C1227 C 0.76774 0.33177 0.57219 0.0
N1228 N 0.72458 0.33762 0.58768 0.0
N1229 N 0.81502 0.2868 0.59502 0.0
C1230 C 0.74875 0.32928 0.59173 0.0
C1231 C 0.79517 0.30311 0.59549 0.0
N1232 N 0.73952 0.3192 0.63626 0.0
N1233 N 0.81148 0.32604 0.55853 0.0
H1234 H 0.81807 0.27374 0.60951 0.0
H1235 H 0.827 0.28455 0.57911 0.0
H1236 H 0.81002 0.33912 0.54377 0.0
H1237 H 0.83011 0.32007 0.56126 0.0
H1238 H 0.72439 0.33159 0.63738 0.0
H1239 H 0.74343 0.31058 0.65371 0.0
H1240 H 0.70927 0.3338 0.60012 0.0
H1241 H 0.71912 0.34625 0.57071 0.0
C1242 C 0.56651 0.99747 0.64571 0.0
C1243 C 0.54394 0.98139 0.64537 0.0
C1244 C 0.54883 0.97366 0.69156 0.0
C1245 C 0.57046 0.99103 0.69226 0.0
N1246 N 0.59757 0.02274 0.67135 0.0
N1247 N 0.51124 0.95704 0.66812 0.0
C1248 C 0.57873 0.00381 0.66967 0.0
C1249 C 0.53436 0.97037 0.66838 0.0
N1250 N 0.57651 0.00629 0.62303 0.0
N1251 N 0.54285 0.95942 0.71271 0.0
H1252 H 0.50046 0.95357 0.65135 0.0
H1253 H 0.50177 0.95103 0.68473 0.0
H1254 H 0.55307 0.96116 0.73 0.0
H1255 H 0.52914 0.94441 0.71255 0.0
H1256 H 0.59449 0.01556 0.62157 0.0
H1257 H 0.56758 0.00282 0.60521 0.0
H1258 H 0.60258 0.03468 0.65621 0.0
H1259 H 0.60686 0.02804 0.68859 0.0
C1260 C 0.88856 0.24191 0.82909 0.0
C1261 C 0.8908 0.22827 0.80533 0.0
C1262 C 0.93771 0.22994 0.80949 0.0
C1263 C 0.93543 0.24262 0.83386 0.0
N1264 N 0.90872 0.25511 0.86962 0.0
N1265 N 0.91658 0.20478 0.7752 0.0
C1266 C 0.91083 0.24701 0.84447 0.0
C1267 C 0.91512 0.22084 0.79627 0.0
N1268 N 0.86529 0.25068 0.83659 0.0
N1269 N 0.9613 0.22776 0.7983 0.0
H1270 H 0.90044 0.19804 0.76483 0.0
H1271 H 0.93346 0.1964 0.76931 0.0
H1272 H 0.97835 0.234 0.80727 0.0
H1273 H 0.9639 0.22155 0.7793 0.0
H1274 H 0.86299 0.26329 0.85216 0.0
H1275 H 0.84842 0.24688 0.8261 0.0
H1276 H 0.89124 0.25624 0.87923 0.0
H1277 H 0.92457 0.25824 0.88173 0.0
C1278 C 0.4837 0.83767 0.45279 0.0
C1279 C 0.49234 0.86244 0.44531 0.0
C1280 C 0.51483 0.84398 0.4082 0.0
C1281 C 0.50808 0.81912 0.417 0.0
N1282 N 0.4899 0.7921 0.44997 0.0
N1283 N 0.51893 0.88943 0.41827 0.0
C1284 C 0.49346 0.81589 0.43989 0.0
C1285 C 0.50871 0.86568 0.42366 0.0
N1286 N 0.46576 0.835 0.4719 0.0
N1287 N 0.52615 0.84689 0.38459 0.0
H1288 H 0.51451 0.90584 0.42887 0.0
H1289 H 0.53327 0.89264 0.40459 0.0
H1290 H 0.53083 0.83149 0.37264 0.0
H1291 H 0.52895 0.86449 0.37584 0.0
H1292 H 0.45658 0.81761 0.47629 0.0
H1293 H 0.45843 0.85052 0.48204 0.0
H1294 H 0.48184 0.78881 0.46804 0.0
H1295 H 0.49716 0.77576 0.44134 0.0
C1296 C 0.07196 0.26786 0.76614 0.0
C1297 C 0.0926 0.28517 0.77302 0.0
C1298 C 0.07057 0.29539 0.8134 0.0
C1299 C 0.05344 0.27398 0.80913 0.0
N1300 N 0.03775 0.23936 0.78104 0.0
N1301 N 0.09541 0.32782 0.79134 0.0
C1302 C 0.05388 0.26025 0.78524 0.0
C1303 C 0.08789 0.30274 0.79354 0.0
N1304 N 0.0676 0.26164 0.74078 0.0
N1305 N 0.07014 0.30907 0.83611 0.0
H1306 H 0.10253 0.3349 0.77396 0.0
H1307 H 0.09058 0.34194 0.80478 0.0
H1308 H 0.05724 0.30485 0.85092 0.0
H1309 H 0.08394 0.32343 0.84072 0.0
H1310 H 0.05143 0.25101 0.7343 0.0
H1311 H 0.07845 0.27016 0.72612 0.0
H1312 H 0.03919 0.22728 0.7649 0.0
H1313 H 0.0245 0.23285 0.79473 0.0
C1314 C 0.52281 0.67635 0.46985 0.0
C1315 C 0.51253 0.65173 0.46262 0.0
C1316 C 0.49693 0.66832 0.42183 0.0
C1317 C 0.50517 0.69333 0.43013 0.0
N1318 N 0.52437 0.72198 0.46236 0.0
N1319 N 0.48795 0.62411 0.43324 0.0
C1320 C 0.51768 0.69758 0.45425 0.0
C1321 C 0.4992 0.64762 0.43892 0.0
N1322 N 0.53806 0.67923 0.49129 0.0
N1323 N 0.48707 0.66439 0.39754 0.0
H1324 H 0.48974 0.60838 0.44502 0.0
H1325 H 0.4755 0.62045 0.41779 0.0
H1326 H 0.4841 0.67922 0.3849 0.0
H1327 H 0.48333 0.64638 0.38917 0.0
H1328 H 0.54843 0.69603 0.49622 0.0
H1329 H 0.54197 0.66415 0.50332 0.0
H1330 H 0.53062 0.72679 0.48097 0.0
H1331 H 0.52237 0.73783 0.45081 0.0
C1332 C 0.92459 0.77201 0.71864 0.0
C1333 C 0.89875 0.76694 0.71089 0.0
C1334 C 0.9131 0.75644 0.66702 0.0
C1335 C 0.93898 0.75853 0.6756 0.0
N1336 N 0.96938 0.76412 0.71065 0.0
N1337 N 0.86821 0.75109 0.67879 0.0
C1338 C 0.94479 0.76534 0.70168 0.0
C1339 C 0.89291 0.75833 0.68533 0.0
N1340 N 0.92981 0.78365 0.74202 0.0
N1341 N 0.90782 0.75348 0.64127 0.0
H1342 H 0.85285 0.75232 0.69161 0.0
H1343 H 0.86323 0.74196 0.66135 0.0
H1344 H 0.92212 0.75237 0.62725 0.0
H1345 H 0.88944 0.75451 0.63356 0.0
H1346 H 0.94815 0.79028 0.74758 0.0
H1347 H 0.91548 0.7888 0.75497 0.0
H1348 H 0.97427 0.76619 0.73009 0.0
H1349 H 0.98465 0.75864 0.69907 0.0
C1350 C 0.02052 0.83582 0.53174 0.0
C1351 C 0.01339 0.86032 0.54069 0.0
C1352 C 0.00227 0.84293 0.58302 0.0
C1353 C 0.00698 0.81803 0.57323 0.0
N1354 N 0.019 0.79002 0.53814 0.0
N1355 N 0.99524 0.88733 0.57362 0.0
C1356 C 0.01568 0.81427 0.54753 0.0
C1357 C 0.00383 0.86397 0.56608 0.0
N1358 N 0.03258 0.83334 0.50843 0.0
N1359 N 0.99639 0.84645 0.60854 0.0
H1360 H 0.99643 0.90328 0.5619 0.0
H1361 H 0.98533 0.89063 0.59072 0.0
H1362 H 0.99399 0.8314 0.62128 0.0
H1363 H 0.9956 0.86433 0.61759 0.0
H1364 H 0.04072 0.81658 0.50187 0.0
H1365 H 0.03629 0.84871 0.49632 0.0
H1366 H 0.02218 0.78561 0.51876 0.0
H1367 H 0.01725 0.77396 0.54961 0.0
C1368 C 0.0722 0.74696 0.73336 0.0
C1369 C 0.09039 0.72759 0.73116 0.0
C1370 C 0.06807 0.71069 0.69255 0.0
C1371 C 0.05437 0.73349 0.69128 0.0
N1372 N 0.04232 0.77331 0.71162 0.0
N1373 N 0.08802 0.68233 0.72173 0.0
C1374 C 0.05608 0.75167 0.71203 0.0
C1375 C 0.08361 0.70662 0.71442 0.0
N1376 N 0.06721 0.7576 0.757 0.0
N1377 N 0.06692 0.69315 0.67269 0.0
H1378 H 0.0948 0.67859 0.74018 0.0
H1379 H 0.0814 0.66615 0.71127 0.0
H1380 H 0.05622 0.69567 0.65602 0.0
H1381 H 0.07848 0.67734 0.67195 0.0
H1382 H 0.05241 0.77006 0.76035 0.0
H1383 H 0.07556 0.75092 0.77376 0.0
H1384 H 0.04512 0.78824 0.72509 0.0
H1385 H 0.02938 0.7771 0.69698 0.0
C1386 C 0.00472 0.64251 0.58217 0.0
C1387 C 0.9926 0.64487 0.55789 0.0
C1388 C 0.99664 0.69158 0.56212 0.0
C1389 C 0.00696 0.68921 0.58727 0.0
N1390 N 0.01537 0.66262 0.62349 0.0
N1391 N 0.97275 0.67123 0.52661 0.0
C1392 C 0.00953 0.66471 0.59794 0.0
C1393 C 0.98729 0.66931 0.5484 0.0
N1394 N 0.01228 0.61916 0.58986 0.0
N1395 N 0.99674 0.71496 0.55091 0.0
H1396 H 0.96565 0.65533 0.51598 0.0
H1397 H 0.96588 0.68842 0.52029 0.0
H1398 H 0.00354 0.73169 0.56028 0.0
H1399 H 0.99215 0.71753 0.53161 0.0
H1400 H 0.02373 0.61672 0.60602 0.0
H1401 H 0.00896 0.6024 0.5789 0.0
H1402 H 0.015 0.64528 0.63298 0.0
H1403 H 0.01797 0.67844 0.63589 0.0
C1404 C 0.78543 0.94315 0.24282 0.0
C1405 C 0.78936 0.92325 0.22444 0.0
C1406 C 0.83276 0.94109 0.21685 0.0
C1407 C 0.83089 0.95621 0.23978 0.0
N1408 N 0.80483 0.97213 0.27473 0.0
N1409 N 0.80813 0.92088 0.18212 0.0
C1410 C 0.80695 0.95767 0.25265 0.0
C1411 C 0.81071 0.92683 0.20775 0.0
N1412 N 0.76114 0.95067 0.24782 0.0
N1413 N 0.85538 0.94039 0.2036 0.0
H1414 H 0.79032 0.91518 0.1742 0.0
H1415 H 0.82229 0.92521 0.16852 0.0
H1416 H 0.87174 0.95135 0.20899 0.0
H1417 H 0.85818 0.92764 0.18821 0.0
H1418 H 0.75725 0.96667 0.25927 0.0
H1419 H 0.74535 0.94286 0.23753 0.0
H1420 H 0.78825 0.97176 0.286 0.0
H1421 H 0.82028 0.98272 0.28288 0.0
C1422 C 0.79333 0.10449 0.29906 0.0
C1423 C 0.79212 0.12247 0.27904 0.0
C1424 C 0.8215 0.09742 0.25277 0.0
C1425 C 0.82405 0.08034 0.27346 0.0
N1426 N 0.8174 0.07122 0.31844 0.0
N1427 N 0.80965 0.13949 0.23965 0.0
C1428 C 0.81147 0.08498 0.29729 0.0
C1429 C 0.80771 0.12002 0.25678 0.0
N1430 N 0.77643 0.10532 0.31921 0.0
N1431 N 0.83083 0.09141 0.22884 0.0
H1432 H 0.79996 0.15643 0.24211 0.0
H1433 H 0.82274 0.13986 0.22446 0.0
H1434 H 0.84036 0.07469 0.22467 0.0
H1435 H 0.82698 0.10182 0.21248 0.0
H1436 H 0.77458 0.091 0.3328 0.0
H1437 H 0.76268 0.11915 0.32118 0.0
H1438 H 0.81071 0.07546 0.33692 0.0
H1439 H 0.83111 0.05724 0.31804 0.0
C1440 C 0.35073 0.94834 0.96838 0.0
C1441 C 0.37239 0.95082 0.98494 0.0
C1442 C 0.35028 0.92361 0.01648 0.0
C1443 C 0.32983 0.91879 0.99869 0.0
N1444 N 0.31305 0.92271 0.95552 0.0
N1445 N 0.3949 0.93709 0.02256 0.0
C1446 C 0.33067 0.93014 0.97402 0.0
C1447 C 0.37279 0.93735 0.00837 0.0
N1448 N 0.34891 0.96391 0.94768 0.0
N1449 N 0.34775 0.91617 0.04151 0.0
H1450 H 0.4119 0.94674 0.01716 0.0
H1451 H 0.39707 0.92538 0.03834 0.0
H1452 H 0.33118 0.90694 0.04857 0.0
H1453 H 0.36097 0.92151 0.0559 0.0
H1454 H 0.33231 0.96486 0.9366 0.0
H1455 H 0.36315 0.97759 0.94296 0.0
H1456 H 0.31445 0.92833 0.93639 0.0
H1457 H 0.29841 0.90898 0.95852 0.0
C1458 C 0.22044 0.419 0.29158 0.0
C1459 C 0.21933 0.39941 0.27221 0.0
C1460 C 0.18927 0.42385 0.24721 0.0
C1461 C 0.1887 0.44243 0.26757 0.0
N1462 N 0.19929 0.45469 0.31158 0.0
N1463 N 0.19846 0.38039 0.23452 0.0
C1464 C 0.20302 0.43916 0.29049 0.0
C1465 C 0.20241 0.40097 0.25092 0.0
N1466 N 0.23874 0.4189 0.31048 0.0
N1467 N 0.17851 0.42859 0.22382 0.0
H1468 H 0.20756 0.36318 0.23678 0.0
H1469 H 0.18436 0.37952 0.22025 0.0
H1470 H 0.16947 0.44547 0.21987 0.0
H1471 H 0.18079 0.41689 0.20753 0.0
H1472 H 0.24225 0.43416 0.32339 0.0
H1473 H 0.25195 0.40455 0.31191 0.0
H1474 H 0.20725 0.45154 0.32962 0.0
H1475 H 0.18617 0.46923 0.31181 0.0
C1476 C 0.16241 0.05592 0.46965 0.0
C1477 C 0.14392 0.05273 0.48954 0.0
C1478 C 0.16812 0.08397 0.51684 0.0
C1479 C 0.18518 0.08906 0.49603 0.0
N1480 N 0.19542 0.08357 0.45085 0.0
N1481 N 0.12615 0.06749 0.52992 0.0
C1482 C 0.18149 0.07604 0.47191 0.0
C1483 C 0.14587 0.0679 0.51251 0.0
N1484 N 0.16228 0.03924 0.44898 0.0
N1485 N 0.17379 0.09338 0.54108 0.0
H1486 H 0.10938 0.05617 0.52732 0.0
H1487 H 0.12537 0.08017 0.54564 0.0
H1488 H 0.19039 0.10442 0.5454 0.0
H1489 H 0.16339 0.08805 0.5574 0.0
H1490 H 0.17694 0.03897 0.43533 0.0
H1491 H 0.14871 0.02418 0.44667 0.0
H1492 H 0.19165 0.07653 0.43223 0.0
H1493 H 0.2091 0.09866 0.45149 0.0
C1494 C 0.6967 0.09006 0.71243 0.0
C1495 C 0.69515 0.11246 0.72814 0.0
C1496 C 0.6615 0.09155 0.75422 0.0
C1497 C 0.66135 0.0701 0.73699 0.0
N1498 N 0.67556 0.05053 0.69718 0.0
N1499 N 0.67379 0.13626 0.7616 0.0
C1500 C 0.67813 0.06973 0.71542 0.0
C1501 C 0.6769 0.11371 0.7484 0.0
N1502 N 0.71633 0.08797 0.6951 0.0
N1503 N 0.64776 0.09035 0.77666 0.0
H1504 H 0.6849 0.15283 0.75808 0.0
H1505 H 0.65888 0.13915 0.77458 0.0
H1506 H 0.63652 0.07432 0.78177 0.0
H1507 H 0.64925 0.10428 0.79129 0.0
H1508 H 0.72013 0.07105 0.68514 0.0
H1509 H 0.73023 0.10253 0.69226 0.0
H1510 H 0.68533 0.0507 0.67965 0.0
H1511 H 0.66192 0.03547 0.69844 0.0
C1512 C 0.3428 0.04121 0.51828 0.0
C1513 C 0.36768 0.0481 0.509 0.0
C1514 C 0.35094 0.08596 0.48881 0.0
C1515 C 0.32577 0.07817 0.49664 0.0
N1516 N 0.29686 0.04618 0.51473 0.0
N1517 N 0.3952 0.07452 0.48233 0.0
C1518 C 0.32144 0.05519 0.51032 0.0
C1519 C 0.37167 0.06972 0.49327 0.0
N1520 N 0.33967 0.02157 0.53511 0.0
N1521 N 0.35525 0.10945 0.47822 0.0
H1522 H 0.411 0.06343 0.48573 0.0
H1523 H 0.39863 0.08823 0.46836 0.0
H1524 H 0.34063 0.12201 0.47487 0.0
H1525 H 0.37349 0.11745 0.47473 0.0
H1526 H 0.32263 0.01754 0.54498 0.0
H1527 H 0.35469 0.0103 0.54067 0.0
H1528 H 0.29237 0.02822 0.5221 0.0
H1529 H 0.28071 0.05571 0.50892 0.0
C1530 C 0.67373 0.48539 0.53021 0.0
C1531 C 0.65053 0.4766 0.51804 0.0
C1532 C 0.67154 0.43861 0.50119 0.0
C1533 C 0.69429 0.44665 0.51466 0.0
N1534 N 0.71596 0.47504 0.54557 0.0
N1535 N 0.62579 0.44344 0.49521 0.0
C1536 C 0.69511 0.46936 0.53014 0.0
C1537 C 0.64896 0.45273 0.50452 0.0
N1538 N 0.67544 0.50929 0.54141 0.0
N1539 N 0.67185 0.41815 0.48433 0.0
H1540 H 0.60901 0.45361 0.49666 0.0
H1541 H 0.62272 0.42495 0.48775 0.0
H1542 H 0.68801 0.40733 0.48133 0.0
H1543 H 0.65682 0.41305 0.47179 0.0
H1544 H 0.69262 0.51803 0.5479 0.0
H1545 H 0.65994 0.52127 0.54262 0.0
H1546 H 0.71662 0.48978 0.55938 0.0
H1547 H 0.73189 0.46363 0.5462 0.0
C1548 C 0.75539 0.33585 0.40084 0.0
C1549 C 0.73666 0.31551 0.40207 0.0
C1550 C 0.71975 0.33384 0.4422 0.0
C1551 C 0.74015 0.35263 0.44237 0.0
N1552 N 0.78013 0.36889 0.42433 0.0
N1553 N 0.70362 0.29258 0.42586 0.0
C1554 C 0.75871 0.35301 0.42231 0.0
C1555 C 0.71953 0.31378 0.42331 0.0
N1556 N 0.76957 0.33917 0.37888 0.0
N1557 N 0.70004 0.33573 0.45948 0.0
H1558 H 0.7029 0.27743 0.41243 0.0
H1559 H 0.69277 0.28897 0.44235 0.0
H1560 H 0.69925 0.35044 0.47332 0.0
H1561 H 0.68332 0.32417 0.45854 0.0
H1562 H 0.78152 0.35523 0.37579 0.0
H1563 H 0.7677 0.32696 0.36276 0.0
H1564 H 0.79562 0.36803 0.41169 0.0
H1565 H 0.78358 0.38138 0.44 0.0
C1566 C 0.56072 0.03834 0.84251 0.0
C1567 C 0.56401 0.02621 0.86641 0.0
C1568 C 0.5987 0.00138 0.84788 0.0
C1569 C 0.59704 0.01529 0.82477 0.0
N1570 N 0.57947 0.04998 0.80145 0.0
N1571 N 0.58806 0.9988 0.89334 0.0
C1572 C 0.57879 0.03453 0.82239 0.0
C1573 C 0.58356 0.00844 0.86953 0.0
N1574 N 0.53999 0.05308 0.83887 0.0
N1575 N 0.61392 0.98074 0.84879 0.0
H1576 H 0.57705 0.00315 0.90954 0.0
H1577 H 0.60388 0.98806 0.89751 0.0
H1578 H 0.62504 0.97475 0.83323 0.0
H1579 H 0.61383 0.96817 0.86408 0.0
H1580 H 0.53494 0.06008 0.821 0.0
H1581 H 0.52653 0.05657 0.85329 0.0
H1582 H 0.56858 0.06613 0.79999 0.0
H1583 H 0.59263 0.04808 0.78646 0.0
C1584 C 0.25026 0.18508 0.38972 0.0
C1585 C 0.26602 0.20755 0.39349 0.0
C1586 C 0.27345 0.19644 0.43852 0.0
C1587 C 0.25837 0.17342 0.43453 0.0
N1588 N 0.2378 0.14291 0.40488 0.0
N1589 N 0.29677 0.2323 0.41936 0.0
C1590 C 0.2483 0.1669 0.40968 0.0
C1591 C 0.27896 0.21246 0.41724 0.0
N1592 N 0.23669 0.1814 0.36727 0.0
N1593 N 0.28137 0.20377 0.46281 0.0
H1594 H 0.30085 0.24482 0.40438 0.0
H1595 H 0.30902 0.23513 0.43513 0.0
H1596 H 0.27821 0.19265 0.47897 0.0
H1597 H 0.28948 0.2218 0.46737 0.0
H1598 H 0.22255 0.16698 0.36455 0.0
H1599 H 0.23828 0.19389 0.35189 0.0
H1600 H 0.23242 0.13613 0.38656 0.0
H1601 H 0.23682 0.12881 0.41879 0.0
C1602 C 0.45066 0.47771 0.83807 0.0
C1603 C 0.44983 0.49359 0.86057 0.0
C1604 C 0.41218 0.51447 0.84368 0.0
C1605 C 0.41199 0.49739 0.82205 0.0
N1606 N 0.42862 0.46072 0.79977 0.0
N1607 N 0.42805 0.52443 0.88692 0.0
C1608 C 0.43051 0.47836 0.8196 0.0
C1609 C 0.4301 0.51129 0.86396 0.0
N1610 N 0.47121 0.46268 0.83395 0.0
N1611 N 0.39548 0.53396 0.84459 0.0
H1612 H 0.44094 0.52272 0.90213 0.0
H1613 H 0.41255 0.53553 0.89173 0.0
H1614 H 0.38148 0.5363 0.83054 0.0
H1615 H 0.39652 0.54881 0.85828 0.0
H1616 H 0.47447 0.4528 0.8167 0.0
H1617 H 0.48624 0.46156 0.84713 0.0
H1618 H 0.43968 0.44463 0.79848 0.0
H1619 H 0.41464 0.46114 0.7854 0.0
C1620 C 0.76737 0.70242 0.10616 0.0
C1621 C 0.74833 0.72083 0.10373 0.0
C1622 C 0.73659 0.7032 0.0609 0.0
C1623 C 0.75751 0.68668 0.06214 0.0
N1624 N 0.79365 0.67089 0.08518 0.0
N1625 N 0.71647 0.74089 0.07819 0.0
C1626 C 0.77315 0.6864 0.08458 0.0
C1627 C 0.73323 0.72168 0.08101 0.0
N1628 N 0.77934 0.6998 0.12939 0.0
N1629 N 0.71991 0.70121 0.04054 0.0
H1630 H 0.71322 0.75461 0.0926 0.0
H1631 H 0.70714 0.74447 0.06097 0.0
H1632 H 0.72227 0.68869 0.02492 0.0
H1633 H 0.70266 0.71055 0.03993 0.0
H1634 H 0.79145 0.68506 0.13338 0.0
H1635 H 0.77557 0.71126 0.14556 0.0
H1636 H 0.80771 0.67208 0.09946 0.0
H1637 H 0.79741 0.65749 0.07062 0.0
C1638 C 0.94361 0.00317 0.14721 0.0
C1639 C 0.96549 0.02008 0.14956 0.0
C1640 C 0.95425 0.03023 0.19444 0.0
C1641 C 0.93152 0.01454 0.1916 0.0
N1642 N 0.90213 0.98943 0.16445 0.0
N1643 N 0.99001 0.05256 0.17361 0.0
C1644 C 0.92554 0.00187 0.16775 0.0
C1645 C 0.97029 0.03452 0.17265 0.0
N1646 N 0.94036 0.98806 0.12551 0.0
N1647 N 0.96113 0.04002 0.21825 0.0
H1648 H 0.00271 0.05564 0.15834 0.0
H1649 H 0.9927 0.06576 0.18878 0.0
H1650 H 0.94996 0.03722 0.23473 0.0
H1651 H 0.97884 0.04916 0.2222 0.0
H1652 H 0.92652 0.97323 0.1238 0.0
H1653 H 0.95268 0.98919 0.10967 0.0
H1654 H 0.89546 0.98207 0.14677 0.0
H1655 H 0.88832 0.98831 0.17899 0.0
C1656 C 0.26001 0.81301 0.10916 0.0
C1657 C 0.28218 0.79824 0.11051 0.0
C1658 C 0.29726 0.8155 0.06941 0.0
C1659 C 0.27367 0.82784 0.06655 0.0
N1660 N 0.23035 0.834 0.08152 0.0
N1661 N 0.3196 0.78158 0.08965 0.0
C1662 C 0.25442 0.82552 0.08587 0.0
C1663 C 0.30018 0.7984 0.08998 0.0
N1664 N 0.2446 0.81563 0.13032 0.0
N1665 N 0.31731 0.82089 0.05315 0.0
H1666 H 0.32225 0.76848 0.10419 0.0
H1667 H 0.33158 0.77898 0.07379 0.0
H1668 H 0.31631 0.8339 0.0383 0.0
H1669 H 0.33574 0.81447 0.05603 0.0
H1670 H 0.22973 0.82833 0.13128 0.0
H1671 H 0.24816 0.80691 0.1478 0.0
H1672 H 0.2149 0.83035 0.09384 0.0
H1673 H 0.22505 0.8424 0.06438 0.0
C1674 C 0.06723 0.48998 0.14566 0.0
C1675 C 0.04336 0.47602 0.14672 0.0
C1676 C 0.04847 0.47097 0.19333 0.0
C1677 C 0.07116 0.48689 0.19269 0.0
N1678 N 0.10072 0.51422 0.169 0.0
N1679 N 0.00957 0.45543 0.17144 0.0
C1680 C 0.08029 0.49699 0.16902 0.0
C1681 C 0.03347 0.46718 0.17055 0.0
N1682 N 0.07752 0.49633 0.12227 0.0
N1683 N 0.04192 0.45849 0.21544 0.0
H1684 H 0.99847 0.45127 0.15501 0.0
H1685 H 0.99996 0.45133 0.18855 0.0
H1686 H 0.0527 0.46034 0.23238 0.0
H1687 H 0.0272 0.44451 0.21644 0.0
H1688 H 0.0962 0.50372 0.11993 0.0
H1689 H 0.06798 0.49261 0.10481 0.0
H1690 H 0.10642 0.5246 0.15294 0.0
H1691 H 0.11096 0.51972 0.18559 0.0
C1692 C 0.41163 0.70819 0.30454 0.0
C1693 C 0.39107 0.72511 0.30359 0.0
C1694 C 0.41395 0.75454 0.33383 0.0
C1695 C 0.43301 0.73625 0.33711 0.0
N1696 N 0.44733 0.69345 0.32928 0.0
N1697 N 0.3703 0.76212 0.32093 0.0
C1698 C 0.43118 0.71245 0.32343 0.0
C1699 C 0.39154 0.74767 0.31927 0.0
N1700 N 0.4129 0.68847 0.28693 0.0
N1701 N 0.41772 0.77887 0.34359 0.0
H1702 H 0.35337 0.75759 0.31081 0.0
H1703 H 0.36865 0.77722 0.33417 0.0
H1704 H 0.43429 0.78503 0.35357 0.0
H1705 H 0.40566 0.79365 0.33948 0.0
H1706 H 0.42883 0.67718 0.28502 0.0
H1707 H 0.39908 0.68487 0.2726 0.0
H1708 H 0.44507 0.67486 0.32181 0.0
H1709 H 0.46145 0.69547 0.34351 0.0
C1710 C 0.96736 0.34284 0.94216 0.0
C1711 C 0.98388 0.36501 0.94356 0.0
C1712 C 0.01374 0.34497 0.91353 0.0
C1713 C 0.99576 0.32412 0.90972 0.0
N1714 N 0.95343 0.30515 0.91735 0.0
N1715 N 0.02093 0.38902 0.92789 0.0
C1716 C 0.97204 0.32348 0.9233 0.0
C1717 C 0.00658 0.3666 0.9285 0.0
N1718 N 0.94754 0.33999 0.95928 0.0
N1719 N 0.03806 0.34365 0.90381 0.0
H1720 H 0.0164 0.40527 0.9387 0.0
H1721 H 0.03605 0.3922 0.91506 0.0
H1722 H 0.04435 0.32778 0.89349 0.0
H1723 H 0.05276 0.35712 0.90819 0.0
H1724 H 0.93659 0.32304 0.96105 0.0
H1725 H 0.94348 0.35379 0.97335 0.0
H1726 H 0.93477 0.30551 0.92451 0.0
H1727 H 0.95579 0.2908 0.90343 0.0
C1728 C 0.58119 0.78319 0.27295 0.0
C1729 C 0.60635 0.78048 0.28268 0.0
C1730 C 0.58912 0.77696 0.32652 0.0
C1731 C 0.56377 0.77692 0.31642 0.0
N1732 N 0.53569 0.77458 0.27925 0.0
N1733 N 0.6341 0.77027 0.31794 0.0
C1734 C 0.55977 0.77862 0.28941 0.0
C1735 C 0.61029 0.77607 0.30927 0.0
N1736 N 0.57775 0.7908 0.24817 0.0
N1737 N 0.59309 0.7789 0.35256 0.0
H1738 H 0.65008 0.76932 0.30588 0.0
H1739 H 0.63752 0.76416 0.33657 0.0
H1740 H 0.57816 0.78017 0.36585 0.0
H1741 H 0.61121 0.78176 0.36087 0.0
H1742 H 0.56001 0.79576 0.24093 0.0
H1743 H 0.59296 0.79443 0.23551 0.0
H1744 H 0.53212 0.77292 0.2595 0.0
H1745 H 0.51954 0.77026 0.29046 0.0
C1746 C 0.00241 0.14229 0.93716 0.0
C1747 C 0.01681 0.14778 0.95997 0.0
C1748 C 0.02104 0.19302 0.94889 0.0
C1749 C 0.00766 0.18732 0.92547 0.0
N1750 N 0.98989 0.15618 0.89479 0.0
N1751 N 0.04371 0.17692 0.98567 0.0
C1752 C 0.99955 0.16183 0.91888 0.0
C1753 C 0.02737 0.17273 0.96522 0.0
N1754 N 0.9909 0.11857 0.93332 0.0
N1755 N 0.02655 0.21791 0.95614 0.0
H1756 H 0.04835 0.16259 0.99834 0.0
H1757 H 0.05426 0.19399 0.98892 0.0
H1758 H 0.02219 0.23334 0.94476 0.0
H1759 H 0.03359 0.22347 0.97429 0.0
H1760 H 0.97768 0.11421 0.91866 0.0
H1761 H 0.99323 0.10354 0.94588 0.0
H1762 H 0.98612 0.13763 0.8878 0.0
H1763 H 0.98772 0.16999 0.88083 0.0
C1764 C 0.39252 0.25402 0.18141 0.0
C1765 C 0.39654 0.26634 0.20578 0.0
C1766 C 0.44269 0.27105 0.19722 0.0
C1767 C 0.43863 0.25951 0.17237 0.0
N1768 N 0.40917 0.24565 0.13851 0.0
N1769 N 0.424 0.29143 0.23483 0.0
C1770 C 0.41335 0.25263 0.16378 0.0
C1771 C 0.42119 0.27644 0.21299 0.0
N1772 N 0.36894 0.24309 0.17539 0.0
N1773 N 0.46706 0.27553 0.20646 0.0
H1774 H 0.40876 0.29536 0.24716 0.0
H1775 H 0.4409 0.30176 0.23958 0.0
H1776 H 0.48342 0.27207 0.19569 0.0
H1777 H 0.47116 0.28081 0.22555 0.0
H1778 H 0.36554 0.23126 0.15925 0.0
H1779 H 0.35304 0.24442 0.18751 0.0
H1780 H 0.39095 0.24281 0.13044 0.0
H1781 H 0.42389 0.24515 0.12488 0.0
C1782 C 0.50607 0.36577 0.06495 0.0
C1783 C 0.51459 0.36105 0.03934 0.0
C1784 C 0.51568 0.31515 0.04752 0.0
C1785 C 0.50822 0.32002 0.07344 0.0
N1786 N 0.5001 0.34986 0.10827 0.0
N1787 N 0.53197 0.33246 0.00737 0.0
C1788 C 0.5047 0.34535 0.08263 0.0
C1789 C 0.52068 0.33605 0.03093 0.0
N1790 N 0.49823 0.38955 0.07202 0.0
N1791 N 0.51761 0.2905 0.03867 0.0
H1792 H 0.53588 0.34734 0.99472 0.0
H1793 H 0.53938 0.31522 0.00115 0.0
H1794 H 0.51548 0.27474 0.05057 0.0
H1795 H 0.51987 0.28548 0.01928 0.0
H1796 H 0.48909 0.3936 0.08939 0.0
H1797 H 0.49913 0.40503 0.05968 0.0
H1798 H 0.50019 0.36806 0.11675 0.0
H1799 H 0.49797 0.33529 0.1216 0.0
C1800 C 0.57171 0.24676 0.2375 0.0
C1801 C 0.59196 0.23022 0.23185 0.0
C1802 C 0.57165 0.21898 0.19035 0.0
C1803 C 0.55513 0.23966 0.19368 0.0
N1804 N 0.53966 0.27398 0.22056 0.0
N1805 N 0.59422 0.18768 0.21369 0.0
C1806 C 0.55501 0.25362 0.21742 0.0
C1807 C 0.58771 0.21243 0.21109 0.0
N1808 N 0.56635 0.25304 0.26256 0.0
N1809 N 0.57185 0.20532 0.16763 0.0
H1810 H 0.59996 0.18088 0.23149 0.0
H1811 H 0.58967 0.17335 0.19997 0.0
H1812 H 0.56005 0.20927 0.15208 0.0
H1813 H 0.58525 0.19147 0.16374 0.0
H1814 H 0.55031 0.26308 0.2681 0.0
H1815 H 0.57619 0.24516 0.27783 0.0
H1816 H 0.54073 0.2862 0.23671 0.0
H1817 H 0.52769 0.28005 0.20598 0.0
C1818 C 0.47278 0.16797 0.05651 0.0
C1819 C 0.48919 0.14701 0.05547 0.0
C1820 C 0.51791 0.16883 0.08701 0.0
C1821 C 0.49973 0.18806 0.09068 0.0
N1822 N 0.45761 0.20366 0.08181 0.0
N1823 N 0.52532 0.12545 0.0727 0.0
C1824 C 0.47658 0.18714 0.0761 0.0
C1825 C 0.51124 0.14687 0.07151 0.0
N1826 N 0.45388 0.16982 0.03843 0.0
N1827 N 0.54195 0.17199 0.09747 0.0
H1828 H 0.52102 0.10885 0.06179 0.0
H1829 H 0.53988 0.12334 0.08618 0.0
H1830 H 0.54794 0.18827 0.10812 0.0
H1831 H 0.55677 0.15978 0.0933 0.0
H1832 H 0.44307 0.186 0.0366 0.0
H1833 H 0.45064 0.1562 0.02367 0.0
H1834 H 0.43931 0.20196 0.07369 0.0
H1835 H 0.45918 0.21761 0.09641 0.0
C1836 C 0.28515 0.43489 0.74642 0.0
C1837 C 0.28751 0.41562 0.72705 0.0
C1838 C 0.32904 0.43532 0.7148 0.0
C1839 C 0.32953 0.44968 0.7384 0.0
N1840 N 0.30727 0.46311 0.77712 0.0
N1841 N 0.30113 0.4148 0.68275 0.0
C1842 C 0.30726 0.44969 0.75423 0.0
C1843 C 0.30657 0.42038 0.70804 0.0
N1844 N 0.26139 0.44191 0.75417 0.0
N1845 N 0.34967 0.43613 0.69857 0.0
H1846 H 0.28275 0.4084 0.67689 0.0
H1847 H 0.31329 0.42 0.66762 0.0
H1848 H 0.36586 0.44808 0.7018 0.0
H1849 H 0.35113 0.42379 0.68262 0.0
H1850 H 0.2585 0.45752 0.76652 0.0
H1851 H 0.24474 0.43437 0.74516 0.0
H1852 H 0.29211 0.4616 0.79021 0.0
H1853 H 0.32319 0.47385 0.78402 0.0
C1854 C 0.27208 0.58059 0.77164 0.0
C1855 C 0.27492 0.60111 0.78985 0.0
C1856 C 0.31448 0.5829 0.80541 0.0
C1857 C 0.31495 0.56696 0.78297 0.0
N1858 N 0.29297 0.54907 0.74519 0.0
N1859 N 0.28681 0.60529 0.83468 0.0
C1860 C 0.2934 0.56534 0.76616 0.0
C1861 C 0.29278 0.59786 0.8101 0.0
N1862 N 0.24813 0.5727 0.76342 0.0
N1863 N 0.33487 0.58425 0.822 0.0
H1864 H 0.26875 0.61208 0.83928 0.0
H1865 H 0.29803 0.60131 0.85064 0.0
H1866 H 0.35114 0.5735 0.81927 0.0
H1867 H 0.33634 0.59753 0.83726 0.0
H1868 H 0.24455 0.55633 0.75198 0.0
H1869 H 0.23167 0.58043 0.77139 0.0
H1870 H 0.27875 0.54931 0.73105 0.0
H1871 H 0.30754 0.5365 0.74112 0.0
C1872 C 0.86984 0.43194 0.50615 0.0
C1873 C 0.86794 0.45165 0.48799 0.0
C1874 C 0.82327 0.43803 0.47881 0.0
C1875 C 0.82456 0.41952 0.49834 0.0
N1876 N 0.84736 0.40177 0.53384 0.0
N1877 N 0.8421 0.47647 0.46013 0.0
C1878 C 0.84741 0.41722 0.51289 0.0
C1879 C 0.8444 0.45561 0.47525 0.0
N1880 N 0.89321 0.42692 0.51648 0.0
N1881 N 0.80238 0.43805 0.46285 0.0
H1882 H 0.85729 0.48955 0.45674 0.0
H1883 H 0.82466 0.482 0.45267 0.0
H1884 H 0.78661 0.42533 0.4646 0.0
H1885 H 0.80157 0.44914 0.44646 0.0
H1886 H 0.89641 0.41097 0.52751 0.0
H1887 H 0.90995 0.43769 0.51245 0.0
H1888 H 0.86257 0.40135 0.54684 0.0
H1889 H 0.83121 0.39097 0.53964 0.0
C1890 C 0.70307 0.9023 0.74995 0.0
C1891 C 0.71967 0.90097 0.77152 0.0
C1892 C 0.70226 0.94027 0.78968 0.0
C1893 C 0.68824 0.94335 0.76655 0.0
N1894 N 0.67887 0.92947 0.72264 0.0
N1895 N 0.73809 0.92068 0.81017 0.0
C1896 C 0.68947 0.92489 0.74614 0.0
C1897 C 0.72008 0.92048 0.79097 0.0
N1898 N 0.69984 0.88174 0.73339 0.0
N1899 N 0.69789 0.95565 0.81075 0.0
H1900 H 0.75162 0.90664 0.81172 0.0
H1901 H 0.74107 0.93592 0.82321 0.0
H1902 H 0.68446 0.9699 0.81079 0.0
H1903 H 0.70563 0.95259 0.8289 0.0
H1904 H 0.68597 0.88063 0.71889 0.0
H1905 H 0.70932 0.86475 0.73568 0.0
H1906 H 0.68163 0.91793 0.70633 0.0
H1907 H 0.66939 0.9461 0.71866 0.0
C1908 C 0.64458 0.56881 0.00768 0.0
C1909 C 0.64455 0.55251 0.98547 0.0
C1910 C 0.68326 0.57526 0.96963 0.0
C1911 C 0.68489 0.58957 0.99322 0.0
N1912 N 0.66983 0.59642 0.0368 0.0
N1913 N 0.66586 0.53738 0.94709 0.0
C1914 C 0.66625 0.58545 0.01282 0.0
C1915 C 0.66445 0.55494 0.9669 0.0
N1916 N 0.62362 0.56887 0.02355 0.0
N1917 N 0.69894 0.58176 0.94946 0.0
H1918 H 0.65241 0.52226 0.9444 0.0
H1919 H 0.68149 0.53654 0.93462 0.0
H1920 H 0.71257 0.59689 0.95047 0.0
H1921 H 0.69679 0.57376 0.93098 0.0
H1922 H 0.62145 0.58227 0.03845 0.0
H1923 H 0.60728 0.55706 0.02034 0.0
H1924 H 0.65825 0.5919 0.05257 0.0
H1925 H 0.68584 0.60811 0.04171 0.0
C1926 C 0.19811 0.58652 0.20586 0.0
C1927 C 0.19809 0.60852 0.22234 0.0
C1928 C 0.16599 0.58742 0.25011 0.0
C1929 C 0.16408 0.5666 0.23219 0.0
N1930 N 0.17589 0.54713 0.19155 0.0
N1931 N 0.17948 0.63174 0.25796 0.0
C1932 C 0.17947 0.56636 0.20962 0.0
C1933 C 0.18137 0.60947 0.24394 0.0
N1934 N 0.2165 0.58453 0.18719 0.0
N1935 N 0.15356 0.58589 0.27327 0.0
H1936 H 0.19033 0.64836 0.25398 0.0
H1937 H 0.16564 0.63445 0.27214 0.0
H1938 H 0.14213 0.57001 0.27839 0.0
H1939 H 0.15635 0.59926 0.28827 0.0
H1940 H 0.21925 0.56788 0.17636 0.0
H1941 H 0.23054 0.59887 0.18393 0.0
H1942 H 0.18435 0.5474 0.17336 0.0
H1943 H 0.16298 0.53162 0.19402 0.0
C1944 C 0.86635 0.56837 0.99995 0.0
C1945 C 0.86356 0.54877 0.01832 0.0
C1946 C 0.81843 0.55888 0.02501 0.0
C1947 C 0.8207 0.57715 0.00522 0.0
N1948 N 0.84569 0.598 0.97203 0.0
N1949 N 0.83668 0.52282 0.04607 0.0
C1950 C 0.84435 0.58148 0.99211 0.0
C1951 C 0.83953 0.54339 0.03033 0.0
N1952 N 0.89023 0.57494 0.99063 0.0
N1953 N 0.7961 0.55641 0.03878 0.0
H1954 H 0.85177 0.51122 0.05066 0.0
H1955 H 0.81906 0.51602 0.05311 0.0
H1956 H 0.77973 0.56636 0.03455 0.0
H1957 H 0.79418 0.54573 0.05542 0.0
H1958 H 0.89415 0.59082 0.97936 0.0
H1959 H 0.9067 0.56554 0.99573 0.0
H1960 H 0.86137 0.59978 0.95968 0.0
H1961 H 0.83041 0.60902 0.96665 0.0
C1962 C 0.14701 0.94688 0.00039 0.0
C1963 C 0.15109 0.96976 0.01522 0.0
C1964 C 0.19625 0.96001 0.02162 0.0
C1965 C 0.19182 0.93641 0.00802 0.0
N1966 N 0.1622 0.90503 0.98864 0.0
N1967 N 0.17792 0.99644 0.0435 0.0
C1968 C 0.16696 0.92919 0.99853 0.0
C1969 C 0.17522 0.9758 0.02697 0.0
N1970 N 0.12425 0.94234 0.98763 0.0
N1971 N 0.22075 0.96792 0.0283 0.0
H1972 H 0.16311 0.0088 0.04736 0.0
H1973 H 0.19412 1.00024 0.05492 0.0
H1974 H 0.23669 0.95699 0.02461 0.0
H1975 H 0.22562 0.98614 0.03562 0.0
H1976 H 0.12117 0.92757 0.97408 0.0
H1977 H 0.10888 0.95445 0.9892 0.0
H1978 H 0.14391 0.89765 0.98392 0.0
H1979 H 0.17625 0.89142 0.98727 0.0
loop_
_geom_bond_atom_site_label_1
_geom_bond_atom_site_label_2
_geom_bond_distance
_geom_bond_site_symmetry_2
_ccdc_geom_bond_type
C0 C1 1.391 . S
C0 C4 1.391 . S
C0 H42 0.948 . S
C1 C0 1.391 . S
C1 C2 1.391 . S
C2 C1 1.391 . S
C2 H58 0.947 1_455 S
C2 C59 1.392 1_556 S
C3 C4 1.391 1_554 S
C3 C7 1.397 . S
C3 C59 1.419 . S
C4 C0 1.391 . S
C4 C3 1.391 1_556 S
C4 C5 1.399 . S
C5 C4 1.399 . S
C5 C8 1.396 1_556 S
C5 C17 1.453 . S
C5 C18 1.684 . S
H6 C30 0.948 . S
C7 C3 1.397 . S
C7 C8 1.394 . S
C7 C26 1.723 . S
C8 C5 1.396 1_554 S
C8 C7 1.394 . S
C8 C38 1.723 . S
H9 C32 0.947 1_556 S
H10 C33 0.948 1_556 S
H11 C39 0.982 . S
H12 C40 0.979 . S
H13 C40 0.980 . S
H14 C40 0.983 . S
H15 C39 0.979 1_565 S
H16 C39 0.977 . S
C17 C5 1.453 . S
C17 H46 0.982 1_556 S
C17 H47 0.979 . S
C17 H48 0.977 . S
C18 C5 1.684 . S
C18 H43 0.979 . S
C18 H44 0.980 . S
C18 H45 0.983 . S
C19 C20 1.391 . S
C19 C24 1.391 . S
C19 H49 0.948 . S
C20 C19 1.391 . S
C20 C21 1.391 . S
C21 C20 1.391 . S
C21 C22 1.392 1_655 S
C21 H50 0.947 1_545 S
C22 C21 1.392 1_455 S
C22 C23 1.419 . S
C22 H51 0.948 1_545 S
C23 C22 1.419 . S
C23 C24 1.391 1_455 S
C23 C27 1.397 . S
C24 C19 1.391 . S
C24 C23 1.391 1_655 S
C24 C25 1.399 . S
C25 C24 1.399 . S
C25 C26 1.396 1_655 S
C25 C28 1.453 . S
C25 C29 1.684 . S
C26 C7 1.723 . S
C26 C25 1.396 1_455 S
C26 C27 1.394 . S
C27 C23 1.397 . S
C27 C26 1.394 . S
C27 C37 1.723 . S
C28 C25 1.453 . S
C28 H52 0.982 1_655 S
C28 H53 0.979 . S
C28 H54 0.977 . S
C29 C25 1.684 . S
C29 H55 0.979 . S
C29 H56 0.980 . S
C29 H57 0.983 . S
C30 H6 0.948 . S
C30 C31 1.391 . S
C30 C35 1.391 . S
C31 C30 1.391 . S
C31 C32 1.391 1_565 S
C32 H9 0.947 1_554 S
C32 C31 1.391 1_545 S
C32 C33 1.392 . S
C33 H10 0.948 1_554 S
C33 C32 1.392 . S
C33 C34 1.419 . S
C34 C33 1.419 . S
C34 C35 1.391 1_545 S
C34 C38 1.397 . S
C35 C30 1.391 . S
C35 C34 1.391 1_565 S
C35 C36 1.399 . S
C36 C35 1.399 . S
C36 C37 1.396 1_565 S
C36 C39 1.453 1_565 S
C36 C40 1.684 . S
C37 C27 1.723 . S
C37 C36 1.396 1_545 S
C37 C38 1.394 . S
C38 C8 1.723 . S
C38 C34 1.397 . S
C38 C37 1.394 . S
C39 H11 0.982 . S
C39 H15 0.979 1_545 S
C39 H16 0.977 . S
C39 C36 1.453 1_545 S
C40 H12 0.979 . S
C40 H13 0.980 . S
C40 H14 0.983 . S
C40 C36 1.684 . S
H41 C59 0.948 1_655 S
H42 C0 0.948 . S
H43 C18 0.979 . S
H44 C18 0.980 . S
H45 C18 0.983 . S
H46 C17 0.982 1_554 S
H47 C17 0.979 . S
H48 C17 0.977 . S
H49 C19 0.948 . S
H50 C21 0.947 1_565 S
H51 C22 0.948 1_565 S
H52 C28 0.982 1_455 S
H53 C28 0.979 . S
H54 C28 0.977 . S
H55 C29 0.979 . S
H56 C29 0.980 . S
H57 C29 0.983 . S
H58 C2 0.947 1_655 S
C59 C2 1.392 1_554 S
C59 C3 1.419 . S
C59 H41 0.948 1_455 S
C60 C61 1.391 . S
C60 C64 1.391 . S
C60 H102 0.948 . S
C61 C60 1.391 . S
C61 C62 1.391 . S
C62 C61 1.391 . S
C62 H118 0.947 . S
C62 C119 1.392 . S
C63 C64 1.391 . S
C63 C67 1.397 . S
C63 C119 1.419 . S
C64 C60 1.391 . S
C64 C63 1.391 . S
C64 C65 1.399 . S
C65 C64 1.399 . S
C65 C68 1.396 . S
C65 C77 1.453 . S
C65 C78 1.684 . S
H66 C90 0.948 . S
C67 C63 1.397 . S
C67 C68 1.394 . S
C67 C86 1.723 . S
C68 C65 1.396 . S
C68 C67 1.394 . S
C68 C98 1.723 . S
H69 C92 0.947 . S
H70 C93 0.948 . S
H71 C99 0.982 . S
H72 C100 0.979 . S
H73 C100 0.980 . S
H74 C100 0.983 . S
H75 C99 0.979 . S
H76 C99 0.977 . S
C77 C65 1.453 . S
C77 H106 0.982 . S
C77 H107 0.979 . S
C77 H108 0.977 . S
C78 C65 1.684 . S
C78 H103 0.979 . S
C78 H104 0.980 . S
C78 H105 0.983 . S
C79 C80 1.391 . S
C79 C84 1.391 . S
C79 H109 0.948 . S
C80 C79 1.391 . S
C80 C81 1.391 . S
C81 C80 1.391 . S
C81 C82 1.392 . S
C81 H110 0.947 . S
C82 C81 1.392 . S
C82 C83 1.419 . S
C82 H111 0.948 . S
C83 C82 1.419 . S
C83 C84 1.391 . S
C83 C87 1.397 . S
C84 C79 1.391 . S
C84 C83 1.391 . S
C84 C85 1.399 . S
C85 C84 1.399 . S
C85 C86 1.396 . S
C85 C88 1.453 . S
C85 C89 1.684 . S
C86 C67 1.723 . S
C86 C85 1.396 . S
C86 C87 1.394 . S
C87 C83 1.397 . S
C87 C86 1.394 . S
C87 C97 1.723 . S
C88 C85 1.453 . S
C88 H112 0.982 . S
C88 H113 0.979 . S
C88 H114 0.977 . S
C89 C85 1.684 . S
C89 H115 0.979 . S
C89 H116 0.980 . S
C89 H117 0.983 . S
C90 H66 0.948 . S
C90 C91 1.391 . S
C90 C95 1.391 . S
C91 C90 1.391 . S
C91 C92 1.391 . S
C92 H69 0.947 . S
C92 C91 1.391 . S
C92 C93 1.392 . S
C93 H70 0.948 . S
C93 C92 1.392 . S
C93 C94 1.419 . S
C94 C93 1.419 . S
C94 C95 1.391 . S
C94 C98 1.397 . S
C95 C90 1.391 . S
C95 C94 1.391 . S
C95 C96 1.399 . S
C96 C95 1.399 . S
C96 C97 1.396 . S
C96 C99 1.453 . S
C96 C100 1.684 . S
C97 C87 1.723 . S
C97 C96 1.396 . S
C97 C98 1.394 . S
C98 C68 1.723 . S
C98 C94 1.397 . S
C98 C97 1.394 . S
C99 H71 0.982 . S
C99 H75 0.979 . S
C99 H76 0.977 . S
C99 C96 1.453 . S
C100 H72 0.979 . S
C100 H73 0.980 . S
C100 H74 0.983 . S
C100 C96 1.684 . S
H101 C119 0.948 . S
H102 C60 0.948 . S
H103 C78 0.979 . S
H104 C78 0.980 . S
H105 C78 0.983 . S
H106 C77 0.982 . S
H107 C77 0.979 . S
H108 C77 0.977 . S
H109 C79 0.948 . S
H110 C81 0.947 . S
H111 C82 0.948 . S
H112 C88 0.982 . S
H113 C88 0.979 . S
H114 C88 0.977 . S
H115 C89 0.979 . S
H116 C89 0.980 . S
H117 C89 0.983 . S
H118 C62 0.947 . S
C119 C62 1.392 . S
C119 C63 1.419 . S
C119 H101 0.948 . S
C120 C121 1.391 . S
C120 C124 1.373 1_556 S
C120 H162 0.948 1_655 S
C121 C120 1.391 . S
C121 C122 1.391 . S
C122 C121 1.391 . S
C122 H178 0.947 . S
C122 C179 1.392 . S
C123 C124 1.386 1_556 S
C123 C127 1.397 1_556 S
C123 C179 1.419 . S
C124 C120 1.373 1_554 S
C124 C123 1.386 1_554 S
C124 C125 1.428 1_655 S
C125 C124 1.428 1_455 S
C125 C128 1.396 1_455 S
C125 C137 1.453 . S
C125 C138 1.684 . S
H126 C150 0.948 . S
C127 C123 1.397 1_554 S
C127 C128 1.394 . S
C127 C146 1.723 . S
C128 C125 1.396 1_655 S
C128 C127 1.394 . S
C128 C158 1.723 . S
H129 C152 0.947 . S
H130 C153 0.948 . S
H131 C159 0.982 . S
H132 C160 0.979 . S
H133 C160 0.980 . S
H134 C160 0.983 . S
H135 C159 0.979 . S
H136 C159 0.977 . S
C137 C125 1.453 . S
C137 H166 0.982 1_455 S
C137 H167 0.979 . S
C137 H168 0.977 . S
C138 C125 1.684 . S
C138 H163 0.979 . S
C138 H164 0.980 . S
C138 H165 0.983 . S
C139 C140 1.391 . S
C139 C144 1.391 . S
C139 H169 0.948 1_554 S
C140 C139 1.391 . S
C140 C141 1.391 . S
C141 C140 1.391 . S
C141 C142 1.392 . S
C141 H170 0.947 . S
C142 C141 1.392 . S
C142 C143 1.419 . S
C142 H171 0.948 . S
C143 C142 1.419 . S
C143 C144 1.391 . S
C143 C147 1.397 . S
C144 C139 1.391 . S
C144 C143 1.391 . S
C144 C145 1.385 1_554 S
C145 C144 1.385 1_556 S
C145 C146 1.375 1_556 S
C145 C148 1.458 . S
C145 C149 1.719 . S
C146 C127 1.723 . S
C146 C145 1.375 1_554 S
C146 C147 1.394 . S
C147 C143 1.397 . S
C147 C146 1.394 . S
C147 C157 1.723 . S
C148 C145 1.458 . S
C148 H172 0.982 1_556 S
C148 H173 0.979 . S
C148 H174 0.977 . S
C149 C145 1.719 . S
C149 H175 0.979 . S
C149 H176 0.980 . S
C149 H177 0.983 . S
C150 H126 0.948 . S
C150 C151 1.391 . S
C150 C155 1.391 . S
C151 C150 1.391 . S
C151 C152 1.391 . S
C152 H129 0.947 . S
C152 C151 1.391 . S
C152 C153 1.392 . S
C153 H130 0.948 . S
C153 C152 1.392 . S
C153 C154 1.419 . S
C154 C153 1.419 . S
C154 C155 1.391 . S
C154 C158 1.397 1_455 S
C155 C150 1.391 . S
C155 C154 1.391 . S
C155 C156 1.399 1_455 S
C156 C155 1.399 1_655 S
C156 C157 1.396 . S
C156 C159 1.453 . S
C156 C160 1.684 . S
C157 C147 1.723 . S
C157 C156 1.396 . S
C157 C158 1.394 . S
C158 C128 1.723 . S
C158 C154 1.397 1_655 S
C158 C157 1.394 . S
C159 H131 0.982 . S
C159 H135 0.979 . S
C159 H136 0.977 . S
C159 C156 1.453 . S
C160 H132 0.979 . S
C160 H133 0.980 . S
C160 H134 0.983 . S
C160 C156 1.684 . S
H161 C179 0.948 . S
H162 C120 0.948 1_455 S
H163 C138 0.979 . S
H164 C138 0.980 . S
H165 C138 0.983 . S
H166 C137 0.982 1_655 S
H167 C137 0.979 . S
H168 C137 0.977 . S
H169 C139 0.948 1_556 S
H170 C141 0.947 . S
H171 C142 0.948 . S
H172 C148 0.982 1_554 S
H173 C148 0.979 . S
H174 C148 0.977 . S
H175 C149 0.979 . S
H176 C149 0.980 . S
H177 C149 0.983 . S
H178 C122 0.947 . S
C179 C122 1.392 . S
C179 C123 1.419 . S
C179 H161 0.948 . S
C180 C181 1.391 . S
C180 C184 1.391 . S
C180 H222 0.948 . S
C181 C180 1.391 . S
C181 C182 1.391 . S
C182 C181 1.391 . S
C182 H238 0.947 . S
C182 C239 1.392 . S
C183 C184 1.391 . S
C183 C187 1.397 . S
C183 C239 1.419 . S
C184 C180 1.391 . S
C184 C183 1.391 . S
C184 C185 1.399 . S
C185 C184 1.399 . S
C185 C188 1.396 . S
C185 C197 1.453 . S
C185 C198 1.684 . S
H186 C210 0.948 . S
C187 C183 1.397 . S
C187 C188 1.394 . S
C187 C206 1.723 . S
C188 C185 1.396 . S
C188 C187 1.394 . S
C188 C218 1.723 . S
H189 C212 0.947 . S
H190 C213 0.948 . S
H191 C219 0.982 . S
H192 C220 0.979 . S
H193 C220 0.980 . S
H194 C220 0.983 . S
H195 C219 0.979 . S
H196 C219 0.977 . S
C197 C185 1.453 . S
C197 H226 0.982 . S
C197 H227 0.979 . S
C197 H228 0.977 . S
C198 C185 1.684 . S
C198 H223 0.979 . S
C198 H224 0.980 . S
C198 H225 0.983 . S
C199 C200 1.391 . S
C199 C204 1.391 . S
C199 H229 0.948 . S
C200 C199 1.391 . S
C200 C201 1.391 . S
C201 C200 1.391 . S
C201 C202 1.392 . S
C201 H230 0.947 . S
C202 C201 1.392 . S
C202 C203 1.419 . S
C202 H231 0.948 . S
C203 C202 1.419 . S
C203 C204 1.391 . S
C203 C207 1.397 . S
C204 C199 1.391 . S
C204 C203 1.391 . S
C204 C205 1.399 . S
C205 C204 1.399 . S
C205 C206 1.396 . S
C205 C208 1.453 . S
C205 C209 1.684 . S
C206 C187 1.723 . S
C206 C205 1.396 . S
C206 C207 1.394 . S
C207 C203 1.397 . S
C207 C206 1.394 . S
C207 C217 1.723 . S
C208 C205 1.453 . S
C208 H232 0.982 . S
C208 H233 0.979 . S
C208 H234 0.977 . S
C209 C205 1.684 . S
C209 H235 0.979 . S
C209 H236 0.980 . S
C209 H237 0.983 . S
C210 H186 0.948 . S
C210 C211 1.391 . S
C210 C215 1.391 . S
C211 C210 1.391 . S
C211 C212 1.391 . S
C212 H189 0.947 . S
C212 C211 1.391 . S
C212 C213 1.392 . S
C213 H190 0.948 . S
C213 C212 1.392 . S
C213 C214 1.419 . S
C214 C213 1.419 . S
C214 C215 1.391 . S
C214 C218 1.397 . S
C215 C210 1.391 . S
C215 C214 1.391 . S
C215 C216 1.399 . S
C216 C215 1.399 . S
C216 C217 1.396 . S
C216 C219 1.453 . S
C216 C220 1.684 . S
C217 C207 1.723 . S
C217 C216 1.396 . S
C217 C218 1.394 . S
C218 C188 1.723 . S
C218 C214 1.397 . S
C218 C217 1.394 . S
C219 H191 0.982 . S
C219 H195 0.979 . S
C219 H196 0.977 . S
C219 C216 1.453 . S
C220 H192 0.979 . S
C220 H193 0.980 . S
C220 H194 0.983 . S
C220 C216 1.684 . S
H221 C239 0.948 . S
H222 C180 0.948 . S
H223 C198 0.979 . S
H224 C198 0.980 . S
H225 C198 0.983 . S
H226 C197 0.982 . S
H227 C197 0.979 . S
H228 C197 0.977 . S
H229 C199 0.948 . S
H230 C201 0.947 . S
H231 C202 0.948 . S
H232 C208 0.982 . S
H233 C208 0.979 . S
H234 C208 0.977 . S
H235 C209 0.979 . S
H236 C209 0.980 . S
H237 C209 0.983 . S
H238 C182 0.947 . S
C239 C182 1.392 . S
C239 C183 1.419 . S
C239 H221 0.948 . S
C240 C241 1.391 . S
C240 C244 1.391 . S
C240 H282 0.948 . S
C241 C240 1.391 . S
C241 C242 1.391 . S
C242 C241 1.391 . S
C242 H298 0.947 1_455 S
C242 C299 1.392 . S
C243 C244 1.391 . S
C243 C247 1.397 . S
C243 C299 1.419 . S
C244 C240 1.391 . S
C244 C243 1.391 . S
C244 C245 1.399 . S
C245 C244 1.399 . S
C245 C248 1.396 . S
C245 C257 1.453 . S
C245 C258 1.684 . S
H246 C270 0.948 . S
C247 C243 1.397 . S
C247 C248 1.394 . S
C247 C266 1.723 . S
C248 C245 1.396 . S
C248 C247 1.394 . S
C248 C278 1.723 . S
H249 C272 0.947 . S
H250 C273 0.948 . S
H251 C279 0.982 . S
H252 C280 0.979 . S
H253 C280 0.980 . S
H254 C280 0.983 . S
H255 C279 0.979 . S
H256 C279 0.977 . S
C257 C245 1.453 . S
C257 H286 0.982 . S
C257 H287 0.979 . S
C257 H288 0.977 . S
C258 C245 1.684 . S
C258 H283 0.979 . S
C258 H284 0.980 . S
C258 H285 0.983 . S
C259 C260 1.391 . S
C259 C264 1.391 . S
C259 H289 0.948 . S
C260 C259 1.391 . S
C260 C261 1.391 1_565 S
C261 C260 1.391 1_545 S
C261 C262 1.392 1_655 S
C261 H290 0.947 . S
C262 C261 1.392 1_455 S
C262 C263 1.419 1_545 S
C262 H291 0.948 . S
C263 C262 1.419 1_565 S
C263 C264 1.391 1_455 S
C263 C267 1.397 . S
C264 C259 1.391 . S
C264 C263 1.391 1_655 S
C264 C265 1.399 . S
C265 C264 1.399 . S
C265 C266 1.396 1_655 S
C265 C268 1.453 . S
C265 C269 1.684 . S
C266 C247 1.723 . S
C266 C265 1.396 1_455 S
C266 C267 1.394 . S
C267 C263 1.397 . S
C267 C266 1.394 . S
C267 C277 1.723 . S
C268 C265 1.453 . S
C268 H292 0.982 . S
C268 H293 0.979 . S
C268 H294 0.977 . S
C269 C265 1.684 . S
C269 H295 0.966 1_655 S
C269 H296 0.980 . S
C269 H297 0.983 . S
C270 H246 0.948 . S
C270 C271 1.391 . S
C270 C275 1.391 . S
C271 C270 1.391 . S
C271 C272 1.391 . S
C272 H249 0.947 . S
C272 C271 1.391 . S
C272 C273 1.392 1_545 S
C273 H250 0.948 . S
C273 C272 1.392 1_565 S
C273 C274 1.414 1_565 S
C274 C273 1.414 1_545 S
C274 C275 1.412 . S
C274 C278 1.384 1_545 S
C275 C270 1.391 . S
C275 C274 1.412 . S
C275 C276 1.399 . S
C276 C275 1.399 . S
C276 C277 1.396 1_545 S
C276 C279 1.453 . S
C276 C280 1.684 . S
C277 C267 1.723 . S
C277 C276 1.396 1_565 S
C277 C278 1.394 . S
C278 C248 1.723 . S
C278 C274 1.384 1_565 S
C278 C277 1.394 . S
C279 H251 0.982 . S
C279 H255 0.979 . S
C279 H256 0.977 . S
C279 C276 1.453 . S
C280 H252 0.979 . S
C280 H253 0.980 . S
C280 H254 0.983 . S
C280 C276 1.684 . S
H281 C299 0.948 1_655 S
H282 C240 0.948 . S
H283 C258 0.979 . S
H284 C258 0.980 . S
H285 C258 0.983 . S
H286 C257 0.982 . S
H287 C257 0.979 . S
H288 C257 0.977 . S
H289 C259 0.948 . S
H290 C261 0.947 . S
H291 C262 0.948 . S
H292 C268 0.982 . S
H293 C268 0.979 . S
H294 C268 0.977 . S
H295 C269 0.966 1_455 S
H296 C269 0.980 . S
H297 C269 0.983 . S
H298 C242 0.947 1_655 S
C299 C242 1.392 . S
C299 C243 1.419 . S
C299 H281 0.948 1_455 S
C300 C301 1.391 . S
C300 C304 1.391 . S
C300 H342 0.948 . S
C301 C300 1.391 . S
C301 C302 1.391 . S
C302 C301 1.391 . S
C302 H358 0.947 . S
C302 C359 1.392 . S
C303 C304 1.391 . S
C303 C307 1.397 . S
C303 C359 1.419 . S
C304 C300 1.391 . S
C304 C303 1.391 . S
C304 C305 1.399 . S
C305 C304 1.399 . S
C305 C308 1.396 . S
C305 C317 1.453 . S
C305 C318 1.684 . S
H306 C330 0.948 . S
C307 C303 1.397 . S
C307 C308 1.394 . S
C307 C326 1.723 . S
C308 C305 1.396 . S
C308 C307 1.394 . S
C308 C338 1.723 . S
H309 C332 0.947 . S
H310 C333 0.948 . S
H311 C339 0.982 . S
H312 C340 0.979 . S
H313 C340 0.980 . S
H314 C340 0.983 . S
H315 C339 0.979 . S
H316 C339 0.977 . S
C317 C305 1.453 . S
C317 H346 0.982 . S
C317 H347 0.979 . S
C317 H348 0.977 . S
C318 C305 1.684 . S
C318 H343 0.979 . S
C318 H344 0.980 . S
C318 H345 0.983 . S
C319 C320 1.391 . S
C319 C324 1.391 . S
C319 H349 0.948 . S
C320 C319 1.391 . S
C320 C321 1.391 . S
C321 C320 1.391 . S
C321 C322 1.392 . S
C321 H350 0.947 . S
C322 C321 1.392 . S
C322 C323 1.419 . S
C322 H351 0.948 . S
C323 C322 1.419 . S
C323 C324 1.391 . S
C323 C327 1.397 . S
C324 C319 1.391 . S
C324 C323 1.391 . S
C324 C325 1.399 . S
C325 C324 1.399 . S
C325 C326 1.396 . S
C325 C328 1.453 . S
C325 C329 1.684 . S
C326 C307 1.723 . S
C326 C325 1.396 . S
C326 C327 1.394 . S
C327 C323 1.397 . S
C327 C326 1.394 . S
C327 C337 1.723 . S
C328 C325 1.453 . S
C328 H352 0.982 . S
C328 H353 0.979 . S
C328 H354 0.977 . S
C329 C325 1.684 . S
C329 H355 0.979 . S
C329 H356 0.980 . S
C329 H357 0.983 . S
C330 H306 0.948 . S
C330 C331 1.391 . S
C330 C335 1.391 . S
C331 C330 1.391 . S
C331 C332 1.391 . S
C332 H309 0.947 . S
C332 C331 1.391 . S
C332 C333 1.392 . S
C333 H310 0.948 . S
C333 C332 1.392 . S
C333 C334 1.419 . S
C334 C333 1.419 . S
C334 C335 1.391 . S
C334 C338 1.397 . S
C335 C330 1.391 . S
C335 C334 1.391 . S
C335 C336 1.399 . S
C336 C335 1.399 . S
C336 C337 1.396 . S
C336 C339 1.453 . S
C336 C340 1.684 . S
C337 C327 1.723 . S
C337 C336 1.396 . S
C337 C338 1.394 . S
C338 C308 1.723 . S
C338 C334 1.397 . S
C338 C337 1.394 . S
C339 H311 0.982 . S
C339 H315 0.979 . S
C339 H316 0.977 . S
C339 C336 1.453 . S
C340 H312 0.979 . S
C340 H313 0.980 . S
C340 H314 0.983 . S
C340 C336 1.684 . S
H341 C359 0.948 . S
H342 C300 0.948 . S
H343 C318 0.979 . S
H344 C318 0.980 . S
H345 C318 0.983 . S
H346 C317 0.982 . S
H347 C317 0.979 . S
H348 C317 0.977 . S
H349 C319 0.948 . S
H350 C321 0.947 . S
H351 C322 0.948 . S
H352 C328 0.982 . S
H353 C328 0.979 . S
H354 C328 0.977 . S
H355 C329 0.979 . S
H356 C329 0.980 . S
H357 C329 0.983 . S
H358 C302 0.947 . S
C359 C302 1.392 . S
C359 C303 1.419 . S
C359 H341 0.948 . S
C360 C361 1.391 . S
C360 C364 1.391 . S
C360 H402 0.948 . S
C361 C360 1.391 . S
C361 C362 1.391 . S
C362 C361 1.391 . S
C362 H418 0.947 . S
C362 C419 1.392 . S
C363 C364 1.391 . S
C363 C367 1.397 . S
C363 C419 1.419 . S
C364 C360 1.391 . S
C364 C363 1.391 . S
C364 C365 1.399 . S
C365 C364 1.399 . S
C365 C368 1.396 . S
C365 C377 1.453 . S
C365 C378 1.684 . S
H366 C390 0.948 1_455 S
C367 C363 1.397 . S
C367 C368 1.394 . S
C367 C386 1.723 . S
C368 C365 1.396 . S
C368 C367 1.394 . S
C368 C398 1.723 . S
H369 C392 0.947 . S
H370 C393 0.948 . S
H371 C399 0.982 1_655 S
H372 C400 0.979 . S
H373 C400 0.980 . S
H374 C400 0.983 . S
H375 C399 0.979 . S
H376 C399 0.977 . S
C377 C365 1.453 . S
C377 H406 0.982 . S
C377 H407 0.979 . S
C377 H408 0.977 . S
C378 C365 1.684 . S
C378 H403 0.979 . S
C378 H404 0.980 . S
C378 H405 0.983 . S
C379 C380 1.391 . S
C379 C384 1.382 1_455 S
C379 H409 0.948 . S
C380 C379 1.391 . S
C380 C381 1.391 . S
C381 C380 1.391 . S
C381 C382 1.392 . S
C381 H410 0.947 . S
C382 C381 1.392 . S
C382 C383 1.419 . S
C382 H411 0.948 . S
C383 C382 1.419 . S
C383 C384 1.389 1_455 S
C383 C387 1.397 1_455 S
C384 C379 1.382 1_655 S
C384 C383 1.389 1_655 S
C384 C385 1.414 . S
C385 C384 1.414 . S
C385 C386 1.396 . S
C385 C388 1.453 . S
C385 C389 1.684 . S
C386 C367 1.723 . S
C386 C385 1.396 . S
C386 C387 1.394 . S
C387 C383 1.397 1_655 S
C387 C386 1.394 . S
C387 C397 1.723 . S
C388 C385 1.453 . S
C388 H412 0.982 . S
C388 H413 0.979 . S
C388 H414 0.977 . S
C389 C385 1.684 . S
C389 H415 0.979 . S
C389 H416 0.980 . S
C389 H417 0.983 . S
C390 H366 0.948 1_655 S
C390 C391 1.391 . S
C390 C395 1.391 . S
C391 C390 1.391 . S
C391 C392 1.391 . S
C392 H369 0.947 . S
C392 C391 1.391 . S
C392 C393 1.392 . S
C393 H370 0.948 . S
C393 C392 1.392 . S
C393 C394 1.419 . S
C394 C393 1.419 . S
C394 C395 1.391 . S
C394 C398 1.397 . S
C395 C390 1.391 . S
C395 C394 1.391 . S
C395 C396 1.399 1_655 S
C396 C395 1.399 1_455 S
C396 C397 1.396 1_455 S
C396 C399 1.453 . S
C396 C400 1.684 . S
C397 C387 1.723 . S
C397 C396 1.396 1_655 S
C397 C398 1.394 . S
C398 C368 1.723 . S
C398 C394 1.397 . S
C398 C397 1.394 . S
C399 H371 0.982 1_455 S
C399 H375 0.979 . S
C399 H376 0.977 . S
C399 C396 1.453 . S
C400 H372 0.979 . S
C400 H373 0.980 . S
C400 H374 0.983 . S
C400 C396 1.684 . S
H401 C419 0.948 . S
H402 C360 0.948 . S
H403 C378 0.979 . S
H404 C378 0.980 . S
H405 C378 0.983 . S
H406 C377 0.982 . S
H407 C377 0.979 . S
H408 C377 0.977 . S
H409 C379 0.948 . S
H410 C381 0.947 . S
H411 C382 0.948 . S
H412 C388 0.982 . S
H413 C388 0.979 . S
H414 C388 0.977 . S
H415 C389 0.979 . S
H416 C389 0.980 . S
H417 C389 0.983 . S
H418 C362 0.947 . S
C419 C362 1.392 . S
C419 C363 1.419 . S
C419 H401 0.948 . S
C420 C421 1.391 . S
C420 C424 1.391 . S
C420 H462 0.948 . S
C421 C420 1.391 . S
C421 C422 1.391 . S
C422 C421 1.391 . S
C422 H478 0.947 . S
C422 C479 1.392 . S
C423 C424 1.391 . S
C423 C427 1.397 . S
C423 C479 1.419 . S
C424 C420 1.391 . S
C424 C423 1.391 . S
C424 C425 1.399 . S
C425 C424 1.399 . S
C425 C428 1.396 . S
C425 C437 1.453 . S
C425 C438 1.684 . S
H426 C450 0.948 . S
C427 C423 1.397 . S
C427 C428 1.394 . S
C427 C446 1.723 . S
C428 C425 1.396 . S
C428 C427 1.394 . S
C428 C458 1.723 . S
H429 C452 0.947 . S
H430 C453 0.948 . S
H431 C459 0.982 . S
H432 C460 0.979 . S
H433 C460 0.980 . S
H434 C460 0.983 . S
H435 C459 0.979 . S
H436 C459 0.977 . S
C437 C425 1.453 . S
C437 H466 0.982 . S
C437 H467 0.979 . S
C437 H468 0.977 . S
C438 C425 1.684 . S
C438 H463 0.979 . S
C438 H464 0.980 . S
C438 H465 0.983 . S
C439 C440 1.391 . S
C439 C444 1.391 . S
C439 H469 0.948 . S
C440 C439 1.391 . S
C440 C441 1.391 . S
C441 C440 1.391 . S
C441 C442 1.392 . S
C441 H470 0.947 . S
C442 C441 1.392 . S
C442 C443 1.419 . S
C442 H471 0.948 . S
C443 C442 1.419 . S
C443 C444 1.391 . S
C443 C447 1.397 . S
C444 C439 1.391 . S
C444 C443 1.391 . S
C444 C445 1.399 . S
C445 C444 1.399 . S
C445 C446 1.396 . S
C445 C448 1.453 . S
C445 C449 1.684 . S
C446 C427 1.723 . S
C446 C445 1.396 . S
C446 C447 1.394 . S
C447 C443 1.397 . S
C447 C446 1.394 . S
C447 C457 1.723 . S
C448 C445 1.453 . S
C448 H472 0.982 . S
C448 H473 0.979 . S
C448 H474 0.977 . S
C449 C445 1.684 . S
C449 H475 0.979 . S
C449 H476 0.980 . S
C449 H477 0.983 . S
C450 H426 0.948 . S
C450 C451 1.391 . S
C450 C455 1.391 . S
C451 C450 1.391 . S
C451 C452 1.391 . S
C452 H429 0.947 . S
C452 C451 1.391 . S
C452 C453 1.392 . S
C453 H430 0.948 . S
C453 C452 1.392 . S
C453 C454 1.419 . S
C454 C453 1.419 . S
C454 C455 1.391 . S
C454 C458 1.397 . S
C455 C450 1.391 . S
C455 C454 1.391 . S
C455 C456 1.399 . S
C456 C455 1.399 . S
C456 C457 1.396 . S
C456 C459 1.453 . S
C456 C460 1.684 . S
C457 C447 1.723 . S
C457 C456 1.396 . S
C457 C458 1.394 . S
C458 C428 1.723 . S
C458 C454 1.397 . S
C458 C457 1.394 . S
C459 H431 0.982 . S
C459 H435 0.979 . S
C459 H436 0.977 . S
C459 C456 1.453 . S
C460 H432 0.979 . S
C460 H433 0.980 . S
C460 H434 0.983 . S
C460 C456 1.684 . S
H461 C479 0.948 . S
H462 C420 0.948 . S
H463 C438 0.979 . S
H464 C438 0.980 . S
H465 C438 0.983 . S
H466 C437 0.982 . S
H467 C437 0.979 . S
H468 C437 0.977 . S
H469 C439 0.948 . S
H470 C441 0.947 . S
H471 C442 0.948 . S
H472 C448 0.982 . S
H473 C448 0.979 . S
H474 C448 0.977 . S
H475 C449 0.979 . S
H476 C449 0.980 . S
H477 C449 0.983 . S
H478 C422 0.947 . S
C479 C422 1.392 . S
C479 C423 1.419 . S
C479 H461 0.948 . S
C480 C481 1.391 . S
C480 C484 1.391 . S
C480 H522 0.948 . S
C481 C480 1.391 . S
C481 C482 1.391 . S
C482 C481 1.391 . S
C482 H538 0.947 . S
C482 C539 1.392 . S
C483 C484 1.391 . S
C483 C487 1.397 . S
C483 C539 1.419 . S
C484 C480 1.391 . S
C484 C483 1.391 . S
C484 C485 1.399 . S
C485 C484 1.399 . S
C485 C488 1.396 . S
C485 C497 1.453 . S
C485 C498 1.684 . S
H486 C510 0.948 . S
C487 C483 1.397 . S
C487 C488 1.394 . S
C487 C506 1.723 . S
C488 C485 1.396 . S
C488 C487 1.394 . S
C488 C518 1.723 . S
H489 C512 0.947 . S
H490 C513 0.948 . S
H491 C519 0.982 . S
H492 C520 0.979 . S
H493 C520 0.980 . S
H494 C520 0.983 . S
H495 C519 0.979 . S
H496 C519 0.977 . S
C497 C485 1.453 . S
C497 H526 0.982 . S
C497 H527 0.979 . S
C497 H528 0.977 . S
C498 C485 1.684 . S
C498 H523 0.979 . S
C498 H524 0.980 . S
C498 H525 0.983 . S
C499 C500 1.391 . S
C499 C504 1.391 . S
C499 H529 0.948 . S
C500 C499 1.391 . S
C500 C501 1.391 . S
C501 C500 1.391 . S
C501 C502 1.392 . S
C501 H530 0.947 . S
C502 C501 1.392 . S
C502 C503 1.419 . S
C502 H531 0.948 . S
C503 C502 1.419 . S
C503 C504 1.391 . S
C503 C507 1.397 . S
C504 C499 1.391 . S
C504 C503 1.391 . S
C504 C505 1.399 . S
C505 C504 1.399 . S
C505 C506 1.396 . S
C505 C508 1.453 . S
C505 C509 1.684 . S
C506 C487 1.723 . S
C506 C505 1.396 . S
C506 C507 1.394 . S
C507 C503 1.397 . S
C507 C506 1.394 . S
C507 C517 1.723 . S
C508 C505 1.453 . S
C508 H532 0.982 . S
C508 H533 0.979 . S
C508 H534 0.977 . S
C509 C505 1.684 . S
C509 H535 0.979 . S
C509 H536 0.980 . S
C509 H537 0.983 . S
C510 H486 0.948 . S
C510 C511 1.391 . S
C510 C515 1.391 . S
C511 C510 1.391 . S
C511 C512 1.391 . S
C512 H489 0.947 . S
C512 C511 1.391 . S
C512 C513 1.392 . S
C513 H490 0.948 . S
C513 C512 1.392 . S
C513 C514 1.419 . S
C514 C513 1.419 . S
C514 C515 1.391 . S
C514 C518 1.397 . S
C515 C510 1.391 . S
C515 C514 1.391 . S
C515 C516 1.399 . S
C516 C515 1.399 . S
C516 C517 1.396 . S
C516 C519 1.453 . S
C516 C520 1.684 . S
C517 C507 1.723 . S
C517 C516 1.396 . S
C517 C518 1.394 . S
C518 C488 1.723 . S
C518 C514 1.397 . S
C518 C517 1.394 . S
C519 H491 0.982 . S
C519 H495 0.979 . S
C519 H496 0.977 . S
C519 C516 1.453 . S
C520 H492 0.979 . S
C520 H493 0.980 . S
C520 H494 0.983 . S
C520 C516 1.684 . S
H521 C539 0.948 . S
H522 C480 0.948 . S
H523 C498 0.979 . S
H524 C498 0.980 . S
H525 C498 0.983 . S
H526 C497 0.982 . S
H527 C497 0.979 . S
H528 C497 0.977 . S
H529 C499 0.948 . S
H530 C501 0.947 . S
H531 C502 0.948 . S
H532 C508 0.982 . S
H533 C508 0.979 . S
H534 C508 0.977 . S
H535 C509 0.979 . S
H536 C509 0.980 . S
H537 C509 0.983 . S
H538 C482 0.947 . S
C539 C482 1.392 . S
C539 C483 1.419 . S
C539 H521 0.948 . S
C540 C541 1.391 . S
C540 C544 1.391 . S
C540 H582 0.948 . S
C541 C540 1.391 . S
C541 C542 1.391 . S
C542 C541 1.391 . S
C542 H598 0.947 . S
C542 C599 1.392 . S
C543 C544 1.391 . S
C543 C547 1.397 . S
C543 C599 1.419 . S
C544 C540 1.391 . S
C544 C543 1.391 . S
C544 C545 1.399 . S
C545 C544 1.399 . S
C545 C548 1.396 . S
C545 C557 1.453 . S
C545 C558 1.684 . S
H546 C570 0.948 1_545 S
C547 C543 1.397 . S
C547 C548 1.394 . S
C547 C566 1.723 . S
C548 C545 1.396 . S
C548 C547 1.394 . S
C548 C578 1.723 . S
H549 C572 0.947 . S
H550 C573 0.948 . S
H551 C579 0.982 1_565 S
H552 C580 0.979 . S
H553 C580 0.980 . S
H554 C580 0.983 . S
H555 C579 0.979 . S
H556 C579 0.977 . S
C557 C545 1.453 . S
C557 H586 0.982 . S
C557 H587 0.979 . S
C557 H588 0.977 . S
C558 C545 1.684 . S
C558 H583 0.979 . S
C558 H584 0.980 . S
C558 H585 0.983 . S
C559 C560 1.391 . S
C559 C564 1.391 . S
C559 H589 0.948 . S
C560 C559 1.391 . S
C560 C561 1.391 . S
C561 C560 1.391 . S
C561 C562 1.392 . S
C561 H590 0.947 . S
C562 C561 1.392 . S
C562 C563 1.419 . S
C562 H591 0.948 . S
C563 C562 1.419 . S
C563 C564 1.391 . S
C563 C567 1.397 1_545 S
C564 C559 1.391 . S
C564 C563 1.391 . S
C564 C565 1.399 1_545 S
C565 C564 1.399 1_565 S
C565 C566 1.396 . S
C565 C568 1.453 . S
C565 C569 1.684 . S
C566 C547 1.723 . S
C566 C565 1.396 . S
C566 C567 1.394 . S
C567 C563 1.397 1_565 S
C567 C566 1.394 . S
C567 C577 1.723 . S
C568 C565 1.453 . S
C568 H592 0.982 . S
C568 H593 0.979 . S
C568 H594 0.977 . S
C569 C565 1.684 . S
C569 H595 0.979 . S
C569 H596 0.980 . S
C569 H597 0.983 . S
C570 H546 0.948 1_565 S
C570 C571 1.391 . S
C570 C575 1.391 . S
C571 C570 1.391 . S
C571 C572 1.391 . S
C572 H549 0.947 . S
C572 C571 1.391 . S
C572 C573 1.392 . S
C573 H550 0.948 . S
C573 C572 1.392 . S
C573 C574 1.419 . S
C574 C573 1.419 . S
C574 C575 1.391 . S
C574 C578 1.397 . S
C575 C570 1.391 . S
C575 C574 1.391 . S
C575 C576 1.399 1_565 S
C576 C575 1.399 1_545 S
C576 C577 1.396 1_545 S
C576 C579 1.453 . S
C576 C580 1.684 . S
C577 C567 1.723 . S
C577 C576 1.396 1_565 S
C577 C578 1.394 . S
C578 C548 1.723 . S
C578 C574 1.397 . S
C578 C577 1.394 . S
C579 H551 0.982 1_545 S
C579 H555 0.979 . S
C579 H556 0.977 . S
C579 C576 1.453 . S
C580 H552 0.979 . S
C580 H553 0.980 . S
C580 H554 0.983 . S
C580 C576 1.684 . S
H581 C599 0.948 . S
H582 C540 0.948 . S
H583 C558 0.979 . S
H584 C558 0.980 . S
H585 C558 0.983 . S
H586 C557 0.982 . S
H587 C557 0.979 . S
H588 C557 0.977 . S
H589 C559 0.948 . S
H590 C561 0.947 . S
H591 C562 0.948 . S
H592 C568 0.982 . S
H593 C568 0.979 . S
H594 C568 0.977 . S
H595 C569 0.979 . S
H596 C569 0.980 . S
H597 C569 0.983 . S
H598 C542 0.947 . S
C599 C542 1.392 . S
C599 C543 1.419 . S
C599 H581 0.948 . S
C600 C601 1.391 . S
C600 C604 1.391 . S
C600 H642 0.948 . S
C601 C600 1.391 . S
C601 C602 1.391 . S
C602 C601 1.391 . S
C602 H658 0.947 . S
C602 C659 1.392 . S
C603 C604 1.391 . S
C603 C607 1.397 . S
C603 C659 1.419 . S
C604 C600 1.391 . S
C604 C603 1.391 . S
C604 C605 1.399 . S
C605 C604 1.399 . S
C605 C608 1.396 . S
C605 C617 1.453 . S
C605 C618 1.684 . S
H606 C630 0.948 . S
C607 C603 1.397 . S
C607 C608 1.394 . S
C607 C626 1.723 . S
C608 C605 1.396 . S
C608 C607 1.394 . S
C608 C638 1.723 . S
H609 C632 0.947 . S
H610 C633 0.948 . S
H611 C639 0.982 . S
H612 C640 0.979 . S
H613 C640 0.980 . S
H614 C640 0.983 . S
H615 C639 0.979 . S
H616 C639 0.977 . S
C617 C605 1.453 . S
C617 H646 0.982 . S
C617 H647 0.979 . S
C617 H648 0.977 . S
C618 C605 1.684 . S
C618 H643 0.979 . S
C618 H644 0.980 . S
C618 H645 0.983 . S
C619 C620 1.391 . S
C619 C624 1.391 . S
C619 H649 0.948 . S
C620 C619 1.391 . S
C620 C621 1.391 . S
C621 C620 1.391 . S
C621 C622 1.392 . S
C621 H650 0.947 . S
C622 C621 1.392 . S
C622 C623 1.419 . S
C622 H651 0.948 . S
C623 C622 1.419 . S
C623 C624 1.391 . S
C623 C627 1.397 . S
C624 C619 1.391 . S
C624 C623 1.391 . S
C624 C625 1.399 . S
C625 C624 1.399 . S
C625 C626 1.396 . S
C625 C628 1.453 . S
C625 C629 1.684 . S
C626 C607 1.723 . S
C626 C625 1.396 . S
C626 C627 1.394 . S
C627 C623 1.397 . S
C627 C626 1.394 . S
C627 C637 1.723 . S
C628 C625 1.453 . S
C628 H652 0.982 . S
C628 H653 0.979 . S
C628 H654 0.977 . S
C629 C625 1.684 . S
C629 H655 0.979 . S
C629 H656 0.980 . S
C629 H657 0.983 . S
C630 H606 0.948 . S
C630 C631 1.391 . S
C630 C635 1.391 . S
C631 C630 1.391 . S
C631 C632 1.391 . S
C632 H609 0.947 . S
C632 C631 1.391 . S
C632 C633 1.392 . S
C633 H610 0.948 . S
C633 C632 1.392 . S
C633 C634 1.419 . S
C634 C633 1.419 . S
C634 C635 1.391 . S
C634 C638 1.397 . S
C635 C630 1.391 . S
C635 C634 1.391 . S
C635 C636 1.399 . S
C636 C635 1.399 . S
C636 C637 1.396 . S
C636 C639 1.453 . S
C636 C640 1.684 . S
C637 C627 1.723 . S
C637 C636 1.396 . S
C637 C638 1.394 . S
C638 C608 1.723 . S
C638 C634 1.397 . S
C638 C637 1.394 . S
C639 H611 0.982 . S
C639 H615 0.979 . S
C639 H616 0.977 . S
C639 C636 1.453 . S
C640 H612 0.979 . S
C640 H613 0.980 . S
C640 H614 0.983 . S
C640 C636 1.684 . S
H641 C659 0.948 . S
H642 C600 0.948 . S
H643 C618 0.979 . S
H644 C618 0.980 . S
H645 C618 0.983 . S
H646 C617 0.982 . S
H647 C617 0.979 . S
H648 C617 0.977 . S
H649 C619 0.948 . S
H650 C621 0.947 . S
H651 C622 0.948 . S
H652 C628 0.982 . S
H653 C628 0.979 . S
H654 C628 0.977 . S
H655 C629 0.979 . S
H656 C629 0.980 . S
H657 C629 0.983 . S
H658 C602 0.947 . S
C659 C602 1.392 . S
C659 C603 1.419 . S
C659 H641 0.948 . S
C660 C661 1.391 . S
C660 C664 1.391 . S
C660 H702 0.948 . S
C661 C660 1.391 . S
C661 C662 1.391 . S
C662 C661 1.391 . S
C662 H718 0.947 . S
C662 C719 1.392 . S
C663 C664 1.391 . S
C663 C667 1.397 . S
C663 C719 1.419 . S
C664 C660 1.391 . S
C664 C663 1.391 . S
C664 C665 1.399 . S
C665 C664 1.399 . S
C665 C668 1.396 . S
C665 C677 1.453 . S
C665 C678 1.684 . S
H666 C690 0.948 . S
C667 C663 1.397 . S
C667 C668 1.394 . S
C667 C686 1.723 . S
C668 C665 1.396 . S
C668 C667 1.394 . S
C668 C698 1.723 . S
H669 C692 0.947 . S
H670 C693 0.948 . S
H671 C699 0.982 . S
H672 C700 0.979 . S
H673 C700 0.980 . S
H674 C700 0.983 . S
H675 C699 0.979 . S
H676 C699 0.977 . S
C677 C665 1.453 . S
C677 H706 0.982 . S
C677 H707 0.979 . S
C677 H708 0.977 . S
C678 C665 1.684 . S
C678 H703 0.979 . S
C678 H704 0.980 . S
C678 H705 0.983 . S
C679 C680 1.391 . S
C679 C684 1.391 . S
C679 H709 0.948 . S
C680 C679 1.391 . S
C680 C681 1.391 . S
C681 C680 1.391 . S
C681 C682 1.392 . S
C681 H710 0.947 . S
C682 C681 1.392 . S
C682 C683 1.419 . S
C682 H711 0.948 . S
C683 C682 1.419 . S
C683 C684 1.391 . S
C683 C687 1.397 . S
C684 C679 1.391 . S
C684 C683 1.391 . S
C684 C685 1.399 . S
C685 C684 1.399 . S
C685 C686 1.396 . S
C685 C688 1.453 . S
C685 C689 1.684 . S
C686 C667 1.723 . S
C686 C685 1.396 . S
C686 C687 1.394 . S
C687 C683 1.397 . S
C687 C686 1.394 . S
C687 C697 1.723 . S
C688 C685 1.453 . S
C688 H712 0.982 . S
C688 H713 0.979 . S
C688 H714 0.977 . S
C689 C685 1.684 . S
C689 H715 0.979 . S
C689 H716 0.980 . S
C689 H717 0.983 . S
C690 H666 0.948 . S
C690 C691 1.391 . S
C690 C695 1.391 . S
C691 C690 1.391 . S
C691 C692 1.391 . S
C692 H669 0.947 . S
C692 C691 1.391 . S
C692 C693 1.392 . S
C693 H670 0.948 . S
C693 C692 1.392 . S
C693 C694 1.419 . S
C694 C693 1.419 . S
C694 C695 1.391 . S
C694 C698 1.397 . S
C695 C690 1.391 . S
C695 C694 1.391 . S
C695 C696 1.399 . S
C696 C695 1.399 . S
C696 C697 1.396 . S
C696 C699 1.453 . S
C696 C700 1.684 . S
C697 C687 1.723 . S
C697 C696 1.396 . S
C697 C698 1.394 . S
C698 C668 1.723 . S
C698 C694 1.397 . S
C698 C697 1.394 . S
C699 H671 0.982 . S
C699 H675 0.979 . S
C699 H676 0.977 . S
C699 C696 1.453 . S
C700 H672 0.979 . S
C700 H673 0.980 . S
C700 H674 0.983 . S
C700 C696 1.684 . S
H701 C719 0.948 . S
H702 C660 0.948 . S
H703 C678 0.979 . S
H704 C678 0.980 . S
H705 C678 0.983 . S
H706 C677 0.982 . S
H707 C677 0.979 . S
H708 C677 0.977 . S
H709 C679 0.948 . S
H710 C681 0.947 . S
H711 C682 0.948 . S
H712 C688 0.982 . S
H713 C688 0.979 . S
H714 C688 0.977 . S
H715 C689 0.979 . S
H716 C689 0.980 . S
H717 C689 0.983 . S
H718 C662 0.947 . S
C719 C662 1.392 . S
C719 C663 1.419 . S
C719 H701 0.948 . S
C720 C721 1.391 . S
C720 C724 1.391 . S
C720 H762 0.948 . S
C721 C720 1.391 . S
C721 C722 1.391 . S
C722 C721 1.391 . S
C722 H778 0.947 . S
C722 C779 1.392 . S
C723 C724 1.391 . S
C723 C727 1.397 . S
C723 C779 1.419 . S
C724 C720 1.391 . S
C724 C723 1.391 . S
C724 C725 1.399 . S
C725 C724 1.399 . S
C725 C728 1.396 . S
C725 C737 1.453 . S
C725 C738 1.684 . S
H726 C750 0.948 . S
C727 C723 1.397 . S
C727 C728 1.394 . S
C727 C746 1.723 . S
C728 C725 1.396 . S
C728 C727 1.394 . S
C728 C758 1.723 . S
H729 C752 0.947 . S
H730 C753 0.948 . S
H731 C759 0.982 . S
H732 C760 0.979 . S
H733 C760 0.980 . S
H734 C760 0.983 . S
H735 C759 0.979 . S
H736 C759 0.977 . S
C737 C725 1.453 . S
C737 H766 0.982 . S
C737 H767 0.979 . S
C737 H768 0.977 . S
C738 C725 1.684 . S
C738 H763 0.979 . S
C738 H764 0.980 . S
C738 H765 0.983 . S
C739 C740 1.391 . S
C739 C744 1.391 . S
C739 H769 0.948 . S
C740 C739 1.391 . S
C740 C741 1.391 . S
C741 C740 1.391 . S
C741 C742 1.392 . S
C741 H770 0.947 . S
C742 C741 1.392 . S
C742 C743 1.419 . S
C742 H771 0.948 . S
C743 C742 1.419 . S
C743 C744 1.391 . S
C743 C747 1.397 . S
C744 C739 1.391 . S
C744 C743 1.391 . S
C744 C745 1.399 . S
C745 C744 1.399 . S
C745 C746 1.396 . S
C745 C748 1.453 . S
C745 C749 1.684 . S
C746 C727 1.723 . S
C746 C745 1.396 . S
C746 C747 1.394 . S
C747 C743 1.397 . S
C747 C746 1.394 . S
C747 C757 1.723 . S
C748 C745 1.453 . S
C748 H772 0.982 . S
C748 H773 0.979 . S
C748 H774 0.977 . S
C749 C745 1.684 . S
C749 H775 0.979 . S
C749 H776 0.980 . S
C749 H777 0.983 . S
C750 H726 0.948 . S
C750 C751 1.391 . S
C750 C755 1.391 . S
C751 C750 1.391 . S
C751 C752 1.391 . S
C752 H729 0.947 . S
C752 C751 1.391 . S
C752 C753 1.392 . S
C753 H730 0.948 . S
C753 C752 1.392 . S
C753 C754 1.419 . S
C754 C753 1.419 . S
C754 C755 1.391 . S
C754 C758 1.397 . S
C755 C750 1.391 . S
C755 C754 1.391 . S
C755 C756 1.399 . S
C756 C755 1.399 . S
C756 C757 1.396 . S
C756 C759 1.453 . S
C756 C760 1.684 . S
C757 C747 1.723 . S
C757 C756 1.396 . S
C757 C758 1.394 . S
C758 C728 1.723 . S
C758 C754 1.397 . S
C758 C757 1.394 . S
C759 H731 0.982 . S
C759 H735 0.979 . S
C759 H736 0.977 . S
C759 C756 1.453 . S
C760 H732 0.979 . S
C760 H733 0.980 . S
C760 H734 0.983 . S
C760 C756 1.684 . S
H761 C779 0.948 . S
H762 C720 0.948 . S
H763 C738 0.979 . S
H764 C738 0.980 . S
H765 C738 0.983 . S
H766 C737 0.982 . S
H767 C737 0.979 . S
H768 C737 0.977 . S
H769 C739 0.948 . S
H770 C741 0.947 . S
H771 C742 0.948 . S
H772 C748 0.982 . S
H773 C748 0.979 . S
H774 C748 0.977 . S
H775 C749 0.979 . S
H776 C749 0.980 . S
H777 C749 0.983 . S
H778 C722 0.947 . S
C779 C722 1.392 . S
C779 C723 1.419 . S
C779 H761 0.948 . S
C780 C781 1.391 . S
C780 C784 1.391 . S
C780 H822 0.948 . S
C781 C780 1.391 . S
C781 C782 1.391 . S
C782 C781 1.391 . S
C782 H838 0.949 . S
C782 C839 1.392 1_554 S
C783 C784 1.391 1_556 S
C783 C787 1.397 . S
C783 C839 1.419 . S
C784 C780 1.391 . S
C784 C783 1.391 1_554 S
C784 C785 1.399 . S
C785 C784 1.399 . S
C785 C788 1.396 1_554 S
C785 C797 1.453 . S
C785 C798 1.684 . S
H786 C810 0.948 . S
C787 C783 1.397 . S
C787 C788 1.394 . S
C787 C806 1.723 . S
C788 C785 1.396 1_556 S
C788 C787 1.394 . S
C788 C818 1.723 . S
H789 C812 0.947 1_554 S
H790 C813 0.948 1_554 S
H791 C819 0.982 . S
H792 C820 0.979 . S
H793 C820 0.980 . S
H794 C820 0.983 . S
H795 C819 0.979 . S
H796 C819 0.977 . S
C797 C785 1.453 . S
C797 H826 0.982 . S
C797 H827 0.979 . S
C797 H828 0.977 . S
C798 C785 1.684 . S
C798 H823 0.979 1_554 S
C798 H824 0.980 . S
C798 H825 0.983 . S
C799 C800 1.391 . S
C799 C804 1.391 . S
C799 H829 0.948 . S
C800 C799 1.391 . S
C800 C801 1.391 . S
C801 C800 1.391 . S
C801 C802 1.392 . S
C801 H830 0.947 . S
C802 C801 1.392 . S
C802 C803 1.419 . S
C802 H831 0.948 . S
C803 C802 1.419 . S
C803 C804 1.391 . S
C803 C807 1.397 . S
C804 C799 1.391 . S
C804 C803 1.391 . S
C804 C805 1.399 . S
C805 C804 1.399 . S
C805 C806 1.396 . S
C805 C808 1.453 . S
C805 C809 1.684 . S
C806 C787 1.723 . S
C806 C805 1.396 . S
C806 C807 1.394 . S
C807 C803 1.397 . S
C807 C806 1.394 . S
C807 C817 1.723 . S
C808 C805 1.453 . S
C808 H832 0.982 . S
C808 H833 0.979 . S
C808 H834 0.977 . S
C809 C805 1.684 . S
C809 H835 0.979 . S
C809 H836 0.980 . S
C809 H837 0.983 . S
C810 H786 0.948 . S
C810 C811 1.391 . S
C810 C815 1.391 . S
C811 C810 1.391 . S
C811 C812 1.391 . S
C812 H789 0.947 1_556 S
C812 C811 1.391 . S
C812 C813 1.392 . S
C813 H790 0.948 1_556 S
C813 C812 1.392 . S
C813 C814 1.419 . S
C814 C813 1.419 . S
C814 C815 1.391 . S
C814 C818 1.397 . S
C815 C810 1.391 . S
C815 C814 1.391 . S
C815 C816 1.399 . S
C816 C815 1.399 . S
C816 C817 1.396 . S
C816 C819 1.453 . S
C816 C820 1.684 . S
C817 C807 1.723 . S
C817 C816 1.396 . S
C817 C818 1.394 . S
C818 C788 1.723 . S
C818 C814 1.397 . S
C818 C817 1.394 . S
C819 H791 0.982 . S
C819 H795 0.979 . S
C819 H796 0.977 . S
C819 C816 1.453 . S
C820 H792 0.979 . S
C820 H793 0.980 . S
C820 H794 0.983 . S
C820 C816 1.684 . S
H821 C839 0.948 . S
H822 C780 0.948 . S
H823 C798 0.979 1_556 S
H824 C798 0.980 . S
H825 C798 0.983 . S
H826 C797 0.982 . S
H827 C797 0.979 . S
H828 C797 0.977 . S
H829 C799 0.948 . S
H830 C801 0.947 . S
H831 C802 0.948 . S
H832 C808 0.982 . S
H833 C808 0.979 . S
H834 C808 0.977 . S
H835 C809 0.979 . S
H836 C809 0.980 . S
H837 C809 0.983 . S
H838 C782 0.949 . S
C839 C782 1.392 1_556 S
C839 C783 1.419 . S
C839 H821 0.948 . S
C840 C841 1.391 . S
C840 C844 1.391 . S
C840 H882 0.948 . S
C841 C840 1.391 . S
C841 C842 1.391 . S
C842 C841 1.391 . S
C842 H898 0.947 . S
C842 C899 1.392 . S
C843 C844 1.391 . S
C843 C847 1.397 . S
C843 C899 1.419 . S
C844 C840 1.391 . S
C844 C843 1.391 . S
C844 C845 1.399 . S
C845 C844 1.399 . S
C845 C848 1.396 . S
C845 C857 1.453 . S
C845 C858 1.684 . S
H846 C870 0.948 . S
C847 C843 1.397 . S
C847 C848 1.394 . S
C847 C866 1.723 . S
C848 C845 1.396 . S
C848 C847 1.394 . S
C848 C878 1.723 . S
H849 C872 0.947 . S
H850 C873 0.948 . S
H851 C879 0.982 . S
H852 C880 0.979 . S
H853 C880 0.980 . S
H854 C880 0.983 . S
H855 C879 0.979 . S
H856 C879 0.977 . S
C857 C845 1.453 . S
C857 H886 0.982 . S
C857 H887 0.979 . S
C857 H888 0.977 . S
C858 C845 1.684 . S
C858 H883 0.979 . S
C858 H884 0.980 . S
C858 H885 0.983 . S
C859 C860 1.391 . S
C859 C864 1.391 . S
C859 H889 0.948 . S
C860 C859 1.391 . S
C860 C861 1.391 . S
C861 C860 1.391 . S
C861 C862 1.392 . S
C861 H890 0.947 . S
C862 C861 1.392 . S
C862 C863 1.419 . S
C862 H891 0.948 . S
C863 C862 1.419 . S
C863 C864 1.391 . S
C863 C867 1.397 . S
C864 C859 1.391 . S
C864 C863 1.391 . S
C864 C865 1.399 . S
C865 C864 1.399 . S
C865 C866 1.396 . S
C865 C868 1.453 . S
C865 C869 1.684 . S
C866 C847 1.723 . S
C866 C865 1.396 . S
C866 C867 1.394 . S
C867 C863 1.397 . S
C867 C866 1.394 . S
C867 C877 1.723 . S
C868 C865 1.453 . S
C868 H892 0.982 . S
C868 H893 0.979 . S
C868 H894 0.977 . S
C869 C865 1.684 . S
C869 H895 0.979 . S
C869 H896 0.980 . S
C869 H897 0.983 . S
C870 H846 0.948 . S
C870 C871 1.391 . S
C870 C875 1.391 . S
C871 C870 1.391 . S
C871 C872 1.391 . S
C872 H849 0.947 . S
C872 C871 1.391 . S
C872 C873 1.392 . S
C873 H850 0.948 . S
C873 C872 1.392 . S
C873 C874 1.419 . S
C874 C873 1.419 . S
C874 C875 1.391 . S
C874 C878 1.397 . S
C875 C870 1.391 . S
C875 C874 1.391 . S
C875 C876 1.399 . S
C876 C875 1.399 . S
C876 C877 1.396 . S
C876 C879 1.453 . S
C876 C880 1.684 . S
C877 C867 1.723 . S
C877 C876 1.396 . S
C877 C878 1.394 . S
C878 C848 1.723 . S
C878 C874 1.397 . S
C878 C877 1.394 . S
C879 H851 0.982 . S
C879 H855 0.979 . S
C879 H856 0.977 . S
C879 C876 1.453 . S
C880 H852 0.979 . S
C880 H853 0.980 . S
C880 H854 0.983 . S
C880 C876 1.684 . S
H881 C899 0.948 . S
H882 C840 0.948 . S
H883 C858 0.979 . S
H884 C858 0.980 . S
H885 C858 0.983 . S
H886 C857 0.982 . S
H887 C857 0.979 . S
H888 C857 0.977 . S
H889 C859 0.948 . S
H890 C861 0.947 . S
H891 C862 0.948 . S
H892 C868 0.982 . S
H893 C868 0.979 . S
H894 C868 0.977 . S
H895 C869 0.979 . S
H896 C869 0.980 . S
H897 C869 0.983 . S
H898 C842 0.947 . S
C899 C842 1.392 . S
C899 C843 1.419 . S
C899 H881 0.948 . S
C900 C901 1.391 . S
C900 C904 1.391 1_565 S
C900 H942 0.948 1_556 S
C901 C900 1.391 . S
C901 C902 1.391 . S
C902 C901 1.391 . S
C902 H958 0.947 . S
C902 C959 1.392 . S
C903 C904 1.391 . S
C903 C907 1.397 . S
C903 C959 1.419 1_545 S
C904 C900 1.391 1_545 S
C904 C903 1.391 . S
C904 C905 1.399 1_556 S
C905 C904 1.399 1_554 S
C905 C908 1.396 1_554 S
C905 C917 1.453 . S
C905 C918 1.684 . S
H906 C930 0.948 . S
C907 C903 1.397 . S
C907 C908 1.394 . S
C907 C926 1.723 . S
C908 C905 1.396 1_556 S
C908 C907 1.394 . S
C908 C938 1.723 . S
H909 C932 0.947 . S
H910 C933 0.948 . S
H911 C939 0.982 . S
H912 C940 0.979 . S
H913 C940 0.980 . S
H914 C940 0.983 . S
H915 C939 0.979 . S
H916 C939 0.977 . S
C917 C905 1.453 . S
C917 H946 0.982 1_554 S
C917 H947 0.979 . S
C917 H948 0.977 . S
C918 C905 1.684 . S
C918 H943 0.979 . S
C918 H944 0.980 . S
C918 H945 0.983 . S
C919 C920 1.391 . S
C919 C924 1.391 . S
C919 H949 0.948 1_545 S
C920 C919 1.391 . S
C920 C921 1.391 . S
C921 C920 1.391 . S
C921 C922 1.392 . S
C921 H950 0.947 . S
C922 C921 1.392 . S
C922 C923 1.419 . S
C922 H951 0.948 . S
C923 C922 1.419 . S
C923 C924 1.391 . S
C923 C927 1.397 . S
C924 C919 1.391 . S
C924 C923 1.391 . S
C924 C925 1.399 . S
C925 C924 1.399 . S
C925 C926 1.396 . S
C925 C928 1.451 1_545 S
C925 C929 1.684 1_545 S
C926 C907 1.723 . S
C926 C925 1.396 . S
C926 C927 1.394 . S
C927 C923 1.397 . S
C927 C926 1.394 . S
C927 C937 1.723 . S
C928 C925 1.451 1_565 S
C928 H952 0.963 1_565 S
C928 H953 0.992 . S
C928 H954 0.986 . S
C929 C925 1.684 1_565 S
C929 H955 0.979 . S
C929 H956 0.980 . S
C929 H957 0.983 . S
C930 H906 0.948 . S
C930 C931 1.391 . S
C930 C935 1.391 . S
C931 C930 1.391 . S
C931 C932 1.391 . S
C932 H909 0.947 . S
C932 C931 1.391 . S
C932 C933 1.392 . S
C933 H910 0.948 . S
C933 C932 1.392 . S
C933 C934 1.419 . S
C934 C933 1.419 . S
C934 C935 1.391 . S
C934 C938 1.397 1_554 S
C935 C930 1.391 . S
C935 C934 1.391 . S
C935 C936 1.399 1_554 S
C936 C935 1.399 1_556 S
C936 C937 1.396 . S
C936 C939 1.453 . S
C936 C940 1.684 . S
C937 C927 1.723 . S
C937 C936 1.396 . S
C937 C938 1.394 . S
C938 C908 1.723 . S
C938 C934 1.397 1_556 S
C938 C937 1.394 . S
C939 H911 0.982 . S
C939 H915 0.979 . S
C939 H916 0.977 . S
C939 C936 1.453 . S
C940 H912 0.979 . S
C940 H913 0.980 . S
C940 H914 0.983 . S
C940 C936 1.684 . S
H941 C959 0.948 . S
H942 C900 0.948 1_554 S
H943 C918 0.979 . S
H944 C918 0.980 . S
H945 C918 0.983 . S
H946 C917 0.982 1_556 S
H947 C917 0.979 . S
H948 C917 0.977 . S
H949 C919 0.948 1_565 S
H950 C921 0.947 . S
H951 C922 0.948 . S
H952 C928 0.963 1_545 S
H953 C928 0.992 . S
H954 C928 0.986 . S
H955 C929 0.979 . S
H956 C929 0.980 . S
H957 C929 0.983 . S
H958 C902 0.947 . S
C959 C902 1.392 . S
C959 C903 1.419 1_565 S
C959 H941 0.948 . S
C960 O961 1.160 1_554 S
C960 O967 1.185 . S
O961 C960 1.160 1_556 S
O962 Zn963 1.899 1_556 S
O962 C970 1.284 . S
Zn963 O962 1.899 1_554 S
Zn963 O964 2.032 . S
Zn963 O967 2.086 . S
Zn963 O972 1.977 . S
O964 Zn963 2.032 . S
O964 C968 1.278 . S
C965 O966 1.203 . S
C965 O972 1.267 . S
O966 C965 1.203 . S
O967 C960 1.185 . S
O967 Zn963 2.086 . S
C968 O964 1.278 . S
C968 O969 1.211 . S
O969 C968 1.211 . S
C970 O962 1.284 . S
C970 O971 1.273 . S
O971 C970 1.273 . S
O972 Zn963 1.977 . S
O972 C965 1.267 . S
C973 O974 1.160 . S
C973 O980 1.185 . S
O974 C973 1.160 . S
O975 Zn976 1.899 . S
O975 C983 1.284 . S
Zn976 O975 1.899 . S
Zn976 O977 2.032 . S
Zn976 O980 2.086 . S
Zn976 O985 1.977 . S
O977 Zn976 2.032 . S
O977 C981 1.278 . S
C978 O979 1.203 . S
C978 O985 1.267 . S
O979 C978 1.203 . S
O980 C973 1.185 . S
O980 Zn976 2.086 . S
C981 O977 1.278 . S
C981 O982 1.211 . S
O982 C981 1.211 . S
C983 O975 1.284 . S
C983 O984 1.273 . S
O984 C983 1.273 . S
O985 Zn976 1.977 . S
O985 C978 1.267 . S
C986 O987 1.160 1_554 S
C986 O993 1.185 . S
O987 C986 1.160 1_556 S
O988 Zn989 1.899 1_556 S
O988 C996 1.284 . S
Zn989 O988 1.899 1_554 S
Zn989 O990 2.032 1_554 S
Zn989 O993 2.086 . S
Zn989 O998 1.977 . S
O990 Zn989 2.032 1_556 S
O990 C994 1.278 . S
C991 O992 1.203 . S
C991 O998 1.267 . S
O992 C991 1.203 . S
O993 C986 1.185 . S
O993 Zn989 2.086 . S
C994 O990 1.278 . S
C994 O995 1.211 1_556 S
O995 C994 1.211 1_554 S
C996 O988 1.284 . S
C996 O997 1.273 . S
O997 C996 1.273 . S
O998 Zn989 1.977 . S
O998 C991 1.267 . S
C999 O1000 1.160 . S
C999 O1006 1.185 . S
O1000 C999 1.160 . S
O1001 Zn1002 1.899 . S
O1001 C1009 1.284 . S
Zn1002 O1001 1.899 . S
Zn1002 O1003 2.032 1_545 S
Zn1002 O1006 2.086 . S
Zn1002 O1011 1.977 . S
O1003 Zn1002 2.032 1_565 S
O1003 C1007 1.278 . S
C1004 O1005 1.203 . S
C1004 O1011 1.267 . S
O1005 C1004 1.203 . S
O1006 C999 1.185 . S
O1006 Zn1002 2.086 . S
C1007 O1003 1.278 . S
C1007 O1008 1.211 . S
O1008 C1007 1.211 . S
C1009 O1001 1.284 . S
C1009 O1010 1.273 1_545 S
O1010 C1009 1.273 1_565 S
O1011 Zn1002 1.977 . S
O1011 C1004 1.267 . S
C1012 O1013 1.160 . S
C1012 O1019 1.185 . S
O1013 C1012 1.160 . S
O1014 Zn1015 1.899 . S
O1014 C1022 1.284 . S
Zn1015 O1014 1.899 . S
Zn1015 O1016 2.032 . S
Zn1015 O1019 2.086 . S
Zn1015 O1024 1.977 . S
O1016 Zn1015 2.032 . S
O1016 C1020 1.278 . S
C1017 O1018 1.203 . S
C1017 O1024 1.267 . S
O1018 C1017 1.203 . S
O1019 C1012 1.185 . S
O1019 Zn1015 2.086 . S
C1020 O1016 1.278 . S
C1020 O1021 1.211 . S
O1021 C1020 1.211 . S
C1022 O1014 1.284 . S
C1022 O1023 1.273 . S
O1023 C1022 1.273 . S
O1024 Zn1015 1.977 . S
O1024 C1017 1.267 . S
C1025 O1026 1.160 . S
C1025 O1032 1.185 . S
O1026 C1025 1.160 . S
O1027 Zn1028 1.899 . S
O1027 C1035 1.284 . S
Zn1028 O1027 1.899 . S
Zn1028 O1029 2.032 . S
Zn1028 O1032 2.086 . S
Zn1028 O1037 1.977 . S
O1029 Zn1028 2.032 . S
O1029 C1033 1.278 . S
C1030 O1031 1.203 . S
C1030 O1037 1.267 . S
O1031 C1030 1.203 . S
O1032 C1025 1.185 . S
O1032 Zn1028 2.086 . S
C1033 O1029 1.278 . S
C1033 O1034 1.211 . S
O1034 C1033 1.211 . S
C1035 O1027 1.284 . S
C1035 O1036 1.273 . S
O1036 C1035 1.273 . S
O1037 Zn1028 1.977 . S
O1037 C1030 1.267 . S
C1038 O1039 1.160 . S
C1038 O1045 1.185 . S
O1039 C1038 1.160 . S
O1040 Zn1041 1.899 . S
O1040 C1048 1.284 . S
Zn1041 O1040 1.899 . S
Zn1041 O1042 2.032 . S
Zn1041 O1045 2.086 . S
Zn1041 O1050 1.977 . S
O1042 Zn1041 2.032 . S
O1042 C1046 1.278 . S
C1043 O1044 1.203 . S
C1043 O1050 1.267 . S
O1044 C1043 1.203 . S
O1045 C1038 1.185 . S
O1045 Zn1041 2.086 . S
C1046 O1042 1.278 . S
C1046 O1047 1.211 . S
O1047 C1046 1.211 . S
C1048 O1040 1.284 . S
C1048 O1049 1.273 . S
O1049 C1048 1.273 . S
O1050 Zn1041 1.977 . S
O1050 C1043 1.267 . S
C1051 O1052 1.160 . S
C1051 O1058 1.185 . S
O1052 C1051 1.160 . S
O1053 Zn1054 1.899 . S
O1053 C1061 1.284 1_565 S
Zn1054 O1053 1.899 . S
Zn1054 O1055 2.032 1_565 S
Zn1054 O1058 2.086 . S
Zn1054 O1063 1.977 . S
O1055 Zn1054 2.032 1_545 S
O1055 C1059 1.278 . S
C1056 O1057 1.203 1_565 S
C1056 O1063 1.267 . S
O1057 C1056 1.203 1_545 S
O1058 C1051 1.185 . S
O1058 Zn1054 2.086 . S
C1059 O1055 1.278 . S
C1059 O1060 1.211 . S
O1060 C1059 1.211 . S
C1061 O1053 1.284 1_545 S
C1061 O1062 1.273 . S
O1062 C1061 1.273 . S
O1063 Zn1054 1.977 . S
O1063 C1056 1.267 . S
C1064 O1065 1.160 1_455 S
C1064 O1071 1.185 . S
O1065 C1064 1.160 1_655 S
O1066 Zn1067 1.899 1_655 S
O1066 C1074 1.284 . S
Zn1067 O1066 1.899 1_455 S
Zn1067 O1068 2.032 1_455 S
Zn1067 O1071 2.086 . S
Zn1067 O1076 1.977 . S
O1068 Zn1067 2.032 1_655 S
O1068 C1072 1.276 1_655 S
C1069 O1070 1.203 . S
C1069 O1076 1.267 . S
O1070 C1069 1.203 . S
O1071 C1064 1.185 . S
O1071 Zn1067 2.086 . S
C1072 O1068 1.276 1_455 S
C1072 O1073 1.218 . S
O1073 C1072 1.218 . S
C1074 O1066 1.284 . S
C1074 O1075 1.273 . S
O1075 C1074 1.273 . S
O1076 Zn1067 1.977 . S
O1076 C1069 1.267 . S
C1077 O1078 1.160 . S
C1077 O1084 1.185 . S
O1078 C1077 1.160 . S
O1079 Zn1080 1.899 . S
O1079 C1087 1.284 . S
Zn1080 O1079 1.899 . S
Zn1080 O1081 2.032 . S
Zn1080 O1084 2.086 . S
Zn1080 O1089 1.977 . S
O1081 Zn1080 2.032 . S
O1081 C1085 1.278 . S
C1082 O1083 1.203 . S
C1082 O1089 1.267 . S
O1083 C1082 1.203 . S
O1084 C1077 1.185 . S
O1084 Zn1080 2.086 . S
C1085 O1081 1.278 . S
C1085 O1086 1.211 . S
O1086 C1085 1.211 . S
C1087 O1079 1.284 . S
C1087 O1088 1.273 . S
O1088 C1087 1.273 . S
O1089 Zn1080 1.977 . S
O1089 C1082 1.267 . S
C1090 O1091 1.160 1_455 S
C1090 O1097 1.185 . S
O1091 C1090 1.160 1_655 S
O1092 Zn1093 1.899 1_655 S
O1092 C1100 1.284 . S
Zn1093 O1092 1.899 1_455 S
Zn1093 O1094 2.032 1_455 S
Zn1093 O1097 2.086 . S
Zn1093 O1102 1.977 . S
O1094 Zn1093 2.032 1_655 S
O1094 C1098 1.280 . S
C1095 O1096 1.203 . S
C1095 O1102 1.267 . S
O1096 C1095 1.203 . S
O1097 C1090 1.185 . S
O1097 Zn1093 2.086 . S
C1098 O1094 1.280 . S
C1098 O1099 1.205 1_655 S
O1099 C1098 1.205 1_455 S
C1100 O1092 1.284 . S
C1100 O1101 1.273 . S
O1101 C1100 1.273 . S
O1102 Zn1093 1.977 . S
O1102 C1095 1.267 . S
C1103 O1104 1.160 . S
C1103 O1110 1.185 . S
O1104 C1103 1.160 . S
O1105 Zn1106 1.899 . S
O1105 C1113 1.284 . S
Zn1106 O1105 1.899 . S
Zn1106 O1107 2.032 . S
Zn1106 O1110 2.086 . S
Zn1106 O1115 1.977 . S
O1107 Zn1106 2.032 . S
O1107 C1111 1.278 . S
C1108 O1109 1.203 . S
C1108 O1115 1.267 . S
O1109 C1108 1.203 . S
O1110 C1103 1.185 . S
O1110 Zn1106 2.086 . S
C1111 O1107 1.278 . S
C1111 O1112 1.211 . S
O1112 C1111 1.211 . S
C1113 O1105 1.284 . S
C1113 O1114 1.273 . S
O1114 C1113 1.273 . S
O1115 Zn1106 1.977 . S
O1115 C1108 1.267 . S
C1116 C1117 1.363 . S
C1116 C1122 1.379 . S
C1116 N1124 1.356 . S
C1117 C1116 1.363 . S
C1117 C1123 1.363 . S
C1118 C1119 1.363 . S
C1118 C1123 1.379 . S
C1118 N1125 1.356 . S
C1119 C1118 1.363 . S
C1119 C1122 1.363 . S
N1120 C1122 1.356 . S
N1120 H1132 0.984 . S
N1120 H1133 0.985 . S
N1121 C1123 1.356 . S
N1121 H1126 0.984 . S
N1121 H1127 0.985 . S
C1122 C1116 1.379 . S
C1122 C1119 1.363 . S
C1122 N1120 1.356 . S
C1123 C1117 1.363 . S
C1123 C1118 1.379 . S
C1123 N1121 1.356 . S
N1124 C1116 1.356 . S
N1124 H1130 0.984 . S
N1124 H1131 0.984 . S
N1125 C1118 1.356 . S
N1125 H1128 0.984 . S
N1125 H1129 0.985 . S
H1126 N1121 0.984 . S
H1127 N1121 0.985 . S
H1128 N1125 0.984 . S
H1129 N1125 0.985 . S
H1130 N1124 0.984 . S
H1131 N1124 0.984 . S
H1132 N1120 0.984 . S
H1133 N1120 0.985 . S
C1134 C1135 1.363 . S
C1134 C1140 1.379 . S
C1134 N1142 1.356 . S
C1135 C1134 1.363 . S
C1135 C1141 1.363 . S
C1136 C1137 1.363 . S
C1136 C1141 1.379 . S
C1136 N1143 1.356 . S
C1137 C1136 1.363 . S
C1137 C1140 1.363 . S
N1138 C1140 1.356 . S
N1138 H1150 0.984 . S
N1138 H1151 0.985 . S
N1139 C1141 1.356 . S
N1139 H1144 0.984 . S
N1139 H1145 0.985 . S
C1140 C1134 1.379 . S
C1140 C1137 1.363 . S
C1140 N1138 1.356 . S
C1141 C1135 1.363 . S
C1141 C1136 1.379 . S
C1141 N1139 1.356 . S
N1142 C1134 1.356 . S
N1142 H1148 0.984 . S
N1142 H1149 0.984 . S
N1143 C1136 1.356 . S
N1143 H1146 0.984 . S
N1143 H1147 0.985 . S
H1144 N1139 0.984 . S
H1145 N1139 0.985 . S
H1146 N1143 0.984 . S
H1147 N1143 0.985 . S
H1148 N1142 0.984 . S
H1149 N1142 0.984 . S
H1150 N1138 0.984 . S
H1151 N1138 0.985 . S
C1152 C1153 1.363 . S
C1152 C1158 1.379 . S
C1152 N1160 1.356 . S
C1153 C1152 1.363 . S
C1153 C1159 1.363 . S
C1154 C1155 1.363 . S
C1154 C1159 1.379 . S
C1154 N1161 1.356 . S
C1155 C1154 1.363 . S
C1155 C1158 1.363 . S
N1156 C1158 1.356 . S
N1156 H1168 0.984 . S
N1156 H1169 0.985 . S
N1157 C1159 1.356 . S
N1157 H1162 0.984 . S
N1157 H1163 0.985 . S
C1158 C1152 1.379 . S
C1158 C1155 1.363 . S
C1158 N1156 1.356 . S
C1159 C1153 1.363 . S
C1159 C1154 1.379 . S
C1159 N1157 1.356 . S
N1160 C1152 1.356 . S
N1160 H1166 0.984 . S
N1160 H1167 0.984 . S
N1161 C1154 1.356 . S
N1161 H1164 0.984 . S
N1161 H1165 0.985 . S
H1162 N1157 0.984 . S
H1163 N1157 0.985 . S
H1164 N1161 0.984 . S
H1165 N1161 0.985 . S
H1166 N1160 0.984 . S
H1167 N1160 0.984 . S
H1168 N1156 0.984 . S
H1169 N1156 0.985 . S
C1170 C1171 1.363 1_545 S
C1170 C1176 1.379 . S
C1170 N1178 1.356 . S
C1171 C1170 1.363 1_565 S
C1171 C1177 1.363 . S
C1172 C1173 1.363 1_565 S
C1172 C1177 1.379 . S
C1172 N1179 1.356 . S
C1173 C1172 1.363 1_545 S
C1173 C1176 1.363 . S
N1174 C1176 1.356 . S
N1174 H1186 0.984 . S
N1174 H1187 0.985 . S
N1175 C1177 1.356 . S
N1175 H1180 0.984 . S
N1175 H1181 0.985 . S
C1176 C1170 1.379 . S
C1176 C1173 1.363 . S
C1176 N1174 1.356 . S
C1177 C1171 1.363 . S
C1177 C1172 1.379 . S
C1177 N1175 1.356 . S
N1178 C1170 1.356 . S
N1178 H1184 0.984 . S
N1178 H1185 0.984 . S
N1179 C1172 1.356 . S
N1179 H1182 0.984 . S
N1179 H1183 0.985 . S
H1180 N1175 0.984 . S
H1181 N1175 0.985 . S
H1182 N1179 0.984 . S
H1183 N1179 0.985 . S
H1184 N1178 0.984 . S
H1185 N1178 0.984 . S
H1186 N1174 0.984 . S
H1187 N1174 0.985 . S
C1188 C1189 1.363 . S
C1188 C1194 1.379 . S
C1188 N1196 1.356 . S
C1189 C1188 1.363 . S
C1189 C1195 1.363 . S
C1190 C1191 1.363 . S
C1190 C1195 1.379 . S
C1190 N1197 1.356 . S
C1191 C1190 1.363 . S
C1191 C1194 1.363 . S
N1192 C1194 1.356 . S
N1192 H1204 0.984 . S
N1192 H1205 0.985 . S
N1193 C1195 1.356 . S
N1193 H1198 0.984 . S
N1193 H1199 0.985 . S
C1194 C1188 1.379 . S
C1194 C1191 1.363 . S
C1194 N1192 1.356 . S
C1195 C1189 1.363 . S
C1195 C1190 1.379 . S
C1195 N1193 1.356 . S
N1196 C1188 1.356 . S
N1196 H1202 0.984 . S
N1196 H1203 0.984 . S
N1197 C1190 1.356 . S
N1197 H1200 0.984 . S
N1197 H1201 0.985 . S
H1198 N1193 0.984 . S
H1199 N1193 0.985 . S
H1200 N1197 0.984 . S
H1201 N1197 0.985 . S
H1202 N1196 0.984 . S
H1203 N1196 0.984 . S
H1204 N1192 0.984 . S
H1205 N1192 0.985 . S
C1206 C1207 1.363 . S
C1206 C1212 1.379 . S
C1206 N1214 1.356 . S
C1207 C1206 1.363 . S
C1207 C1213 1.363 . S
C1208 C1209 1.363 . S
C1208 C1213 1.379 . S
C1208 N1215 1.356 . S
C1209 C1208 1.363 . S
C1209 C1212 1.363 . S
N1210 C1212 1.356 . S
N1210 H1222 0.984 . S
N1210 H1223 0.985 . S
N1211 C1213 1.356 . S
N1211 H1216 0.984 . S
N1211 H1217 0.985 . S
C1212 C1206 1.379 . S
C1212 C1209 1.363 . S
C1212 N1210 1.356 . S
C1213 C1207 1.363 . S
C1213 C1208 1.379 . S
C1213 N1211 1.356 . S
N1214 C1206 1.356 . S
N1214 H1220 0.984 . S
N1214 H1221 0.984 . S
N1215 C1208 1.356 . S
N1215 H1218 0.984 . S
N1215 H1219 0.985 . S
H1216 N1211 0.984 . S
H1217 N1211 0.985 . S
H1218 N1215 0.984 . S
H1219 N1215 0.985 . S
H1220 N1214 0.984 . S
H1221 N1214 0.984 . S
H1222 N1210 0.984 . S
H1223 N1210 0.985 . S
C1224 C1225 1.363 . S
C1224 C1230 1.379 . S
C1224 N1232 1.356 . S
C1225 C1224 1.363 . S
C1225 C1231 1.363 . S
C1226 C1227 1.363 . S
C1226 C1231 1.379 . S
C1226 N1233 1.356 . S
C1227 C1226 1.363 . S
C1227 C1230 1.363 . S
N1228 C1230 1.356 . S
N1228 H1240 0.984 . S
N1228 H1241 0.985 . S
N1229 C1231 1.356 . S
N1229 H1234 0.984 . S
N1229 H1235 0.985 . S
C1230 C1224 1.379 . S
C1230 C1227 1.363 . S
C1230 N1228 1.356 . S
C1231 C1225 1.363 . S
C1231 C1226 1.379 . S
C1231 N1229 1.356 . S
N1232 C1224 1.356 . S
N1232 H1238 0.984 . S
N1232 H1239 0.984 . S
N1233 C1226 1.356 . S
N1233 H1236 0.984 . S
N1233 H1237 0.985 . S
H1234 N1229 0.984 . S
H1235 N1229 0.985 . S
H1236 N1233 0.984 . S
H1237 N1233 0.985 . S
H1238 N1232 0.984 . S
H1239 N1232 0.984 . S
H1240 N1228 0.984 . S
H1241 N1228 0.985 . S
C1242 C1243 1.363 1_545 S
C1242 C1248 1.379 . S
C1242 N1250 1.356 . S
C1243 C1242 1.363 1_565 S
C1243 C1249 1.363 . S
C1244 C1245 1.363 . S
C1244 C1249 1.379 . S
C1244 N1251 1.356 . S
C1245 C1244 1.363 . S
C1245 C1248 1.363 1_565 S
N1246 C1248 1.356 . S
N1246 H1258 0.984 . S
N1246 H1259 0.985 . S
N1247 C1249 1.356 . S
N1247 H1252 0.984 . S
N1247 H1253 0.985 . S
C1248 C1242 1.379 . S
C1248 C1245 1.363 1_545 S
C1248 N1246 1.356 . S
C1249 C1243 1.363 . S
C1249 C1244 1.379 . S
C1249 N1247 1.356 . S
N1250 C1242 1.356 . S
N1250 H1256 0.984 . S
N1250 H1257 0.984 . S
N1251 C1244 1.356 . S
N1251 H1254 0.984 . S
N1251 H1255 0.985 . S
H1252 N1247 0.984 . S
H1253 N1247 0.985 . S
H1254 N1251 0.984 . S
H1255 N1251 0.985 . S
H1256 N1250 0.984 . S
H1257 N1250 0.984 . S
H1258 N1246 0.984 . S
H1259 N1246 0.985 . S
C1260 C1261 1.363 . S
C1260 C1266 1.379 . S
C1260 N1268 1.356 . S
C1261 C1260 1.363 . S
C1261 C1267 1.363 . S
C1262 C1263 1.363 . S
C1262 C1267 1.379 . S
C1262 N1269 1.356 . S
C1263 C1262 1.363 . S
C1263 C1266 1.363 . S
N1264 C1266 1.356 . S
N1264 H1276 0.984 . S
N1264 H1277 0.985 . S
N1265 C1267 1.356 . S
N1265 H1270 0.984 . S
N1265 H1271 0.985 . S
C1266 C1260 1.379 . S
C1266 C1263 1.363 . S
C1266 N1264 1.356 . S
C1267 C1261 1.363 . S
C1267 C1262 1.379 . S
C1267 N1265 1.356 . S
N1268 C1260 1.356 . S
N1268 H1274 0.984 . S
N1268 H1275 0.984 . S
N1269 C1262 1.356 . S
N1269 H1272 0.984 . S
N1269 H1273 0.985 . S
H1270 N1265 0.984 . S
H1271 N1265 0.985 . S
H1272 N1269 0.984 . S
H1273 N1269 0.985 . S
H1274 N1268 0.984 . S
H1275 N1268 0.984 . S
H1276 N1264 0.984 . S
H1277 N1264 0.985 . S
C1278 C1279 1.363 . S
C1278 C1284 1.379 . S
C1278 N1286 1.356 . S
C1279 C1278 1.363 . S
C1279 C1285 1.363 . S
C1280 C1281 1.363 . S
C1280 C1285 1.379 . S
C1280 N1287 1.356 . S
C1281 C1280 1.363 . S
C1281 C1284 1.363 . S
N1282 C1284 1.356 . S
N1282 H1294 0.984 . S
N1282 H1295 0.985 . S
N1283 C1285 1.356 . S
N1283 H1288 0.984 . S
N1283 H1289 0.985 . S
C1284 C1278 1.379 . S
C1284 C1281 1.363 . S
C1284 N1282 1.356 . S
C1285 C1279 1.363 . S
C1285 C1280 1.379 . S
C1285 N1283 1.356 . S
N1286 C1278 1.356 . S
N1286 H1292 0.984 . S
N1286 H1293 0.984 . S
N1287 C1280 1.356 . S
N1287 H1290 0.984 . S
N1287 H1291 0.985 . S
H1288 N1283 0.984 . S
H1289 N1283 0.985 . S
H1290 N1287 0.984 . S
H1291 N1287 0.985 . S
H1292 N1286 0.984 . S
H1293 N1286 0.984 . S
H1294 N1282 0.984 . S
H1295 N1282 0.985 . S
C1296 C1297 1.363 . S
C1296 C1302 1.379 . S
C1296 N1304 1.356 . S
C1297 C1296 1.363 . S
C1297 C1303 1.363 . S
C1298 C1299 1.363 . S
C1298 C1303 1.379 . S
C1298 N1305 1.356 . S
C1299 C1298 1.363 . S
C1299 C1302 1.363 . S
N1300 C1302 1.356 . S
N1300 H1312 0.984 . S
N1300 H1313 0.985 . S
N1301 C1303 1.356 . S
N1301 H1306 0.984 . S
N1301 H1307 0.985 . S
C1302 C1296 1.379 . S
C1302 C1299 1.363 . S
C1302 N1300 1.356 . S
C1303 C1297 1.363 . S
C1303 C1298 1.379 . S
C1303 N1301 1.356 . S
N1304 C1296 1.356 . S
N1304 H1310 0.984 . S
N1304 H1311 0.984 . S
N1305 C1298 1.356 . S
N1305 H1308 0.984 . S
N1305 H1309 0.985 . S
H1306 N1301 0.984 . S
H1307 N1301 0.985 . S
H1308 N1305 0.984 . S
H1309 N1305 0.985 . S
H1310 N1304 0.984 . S
H1311 N1304 0.984 . S
H1312 N1300 0.984 . S
H1313 N1300 0.985 . S
C1314 C1315 1.363 . S
C1314 C1320 1.379 . S
C1314 N1322 1.356 . S
C1315 C1314 1.363 . S
C1315 C1321 1.363 . S
C1316 C1317 1.363 . S
C1316 C1321 1.379 . S
C1316 N1323 1.356 . S
C1317 C1316 1.363 . S
C1317 C1320 1.363 . S
N1318 C1320 1.356 . S
N1318 H1330 0.984 . S
N1318 H1331 0.985 . S
N1319 C1321 1.356 . S
N1319 H1324 0.984 . S
N1319 H1325 0.985 . S
C1320 C1314 1.379 . S
C1320 C1317 1.363 . S
C1320 N1318 1.356 . S
C1321 C1315 1.363 . S
C1321 C1316 1.379 . S
C1321 N1319 1.356 . S
N1322 C1314 1.356 . S
N1322 H1328 0.984 . S
N1322 H1329 0.984 . S
N1323 C1316 1.356 . S
N1323 H1326 0.984 . S
N1323 H1327 0.985 . S
H1324 N1319 0.984 . S
H1325 N1319 0.985 . S
H1326 N1323 0.984 . S
H1327 N1323 0.985 . S
H1328 N1322 0.984 . S
H1329 N1322 0.984 . S
H1330 N1318 0.984 . S
H1331 N1318 0.985 . S
C1332 C1333 1.363 . S
C1332 C1338 1.379 . S
C1332 N1340 1.356 . S
C1333 C1332 1.363 . S
C1333 C1339 1.363 . S
C1334 C1335 1.363 . S
C1334 C1339 1.379 . S
C1334 N1341 1.356 . S
C1335 C1334 1.363 . S
C1335 C1338 1.363 . S
N1336 C1338 1.356 . S
N1336 H1348 0.984 . S
N1336 H1349 0.985 . S
N1337 C1339 1.356 . S
N1337 H1342 0.984 . S
N1337 H1343 0.985 . S
C1338 C1332 1.379 . S
C1338 C1335 1.363 . S
C1338 N1336 1.356 . S
C1339 C1333 1.363 . S
C1339 C1334 1.379 . S
C1339 N1337 1.356 . S
N1340 C1332 1.356 . S
N1340 H1346 0.984 . S
N1340 H1347 0.984 . S
N1341 C1334 1.356 . S
N1341 H1344 0.984 . S
N1341 H1345 0.985 . S
H1342 N1337 0.984 . S
H1343 N1337 0.985 . S
H1344 N1341 0.984 . S
H1345 N1341 0.985 . S
H1346 N1340 0.984 . S
H1347 N1340 0.984 . S
H1348 N1336 0.984 . S
H1349 N1336 0.985 . S
C1350 C1351 1.363 . S
C1350 C1356 1.379 . S
C1350 N1358 1.356 . S
C1351 C1350 1.363 . S
C1351 C1357 1.363 . S
C1352 C1353 1.363 . S
C1352 C1357 1.379 . S
C1352 N1359 1.356 . S
C1353 C1352 1.363 . S
C1353 C1356 1.363 . S
N1354 C1356 1.356 1_655 S
N1354 H1366 0.984 . S
N1354 H1367 0.985 . S
N1355 C1357 1.356 . S
N1355 H1360 0.984 . S
N1355 H1361 0.985 . S
C1356 C1350 1.379 . S
C1356 C1353 1.363 . S
C1356 N1354 1.356 1_455 S
C1357 C1351 1.363 . S
C1357 C1352 1.379 . S
C1357 N1355 1.356 . S
N1358 C1350 1.356 . S
N1358 H1364 0.984 1_455 S
N1358 H1365 0.984 . S
N1359 C1352 1.356 . S
N1359 H1362 0.984 . S
N1359 H1363 0.985 . S
H1360 N1355 0.984 . S
H1361 N1355 0.985 . S
H1362 N1359 0.984 . S
H1363 N1359 0.985 . S
H1364 N1358 0.984 1_655 S
H1365 N1358 0.984 . S
H1366 N1354 0.984 . S
H1367 N1354 0.985 . S
C1368 C1369 1.363 . S
C1368 C1374 1.379 . S
C1368 N1376 1.356 . S
C1369 C1368 1.363 . S
C1369 C1375 1.363 . S
C1370 C1371 1.363 . S
C1370 C1375 1.379 . S
C1370 N1377 1.356 . S
C1371 C1370 1.363 . S
C1371 C1374 1.363 . S
N1372 C1374 1.356 . S
N1372 H1384 0.984 . S
N1372 H1385 0.985 . S
N1373 C1375 1.356 . S
N1373 H1378 0.984 . S
N1373 H1379 0.985 . S
C1374 C1368 1.379 . S
C1374 C1371 1.363 . S
C1374 N1372 1.356 . S
C1375 C1369 1.363 . S
C1375 C1370 1.379 . S
C1375 N1373 1.356 . S
N1376 C1368 1.356 . S
N1376 H1382 0.984 . S
N1376 H1383 0.984 . S
N1377 C1370 1.356 . S
N1377 H1380 0.984 . S
N1377 H1381 0.985 . S
H1378 N1373 0.984 . S
H1379 N1373 0.985 . S
H1380 N1377 0.984 . S
H1381 N1377 0.985 . S
H1382 N1376 0.984 . S
H1383 N1376 0.984 . S
H1384 N1372 0.984 . S
H1385 N1372 0.985 . S
C1386 C1387 1.363 . S
C1386 C1392 1.379 . S
C1386 N1394 1.356 . S
C1387 C1386 1.363 . S
C1387 C1393 1.365 . S
C1388 C1389 1.363 1_455 S
C1388 C1393 1.378 1_455 S
C1388 N1395 1.356 . S
C1389 C1388 1.363 1_655 S
C1389 C1392 1.363 . S
N1390 C1392 1.356 . S
N1390 H1402 0.984 . S
N1390 H1403 0.985 . S
N1391 C1393 1.355 1_455 S
N1391 H1396 0.984 . S
N1391 H1397 0.985 . S
C1392 C1386 1.379 . S
C1392 C1389 1.363 . S
C1392 N1390 1.356 . S
C1393 C1387 1.365 . S
C1393 C1388 1.378 1_655 S
C1393 N1391 1.355 1_655 S
N1394 C1386 1.356 . S
N1394 H1400 0.984 . S
N1394 H1401 0.984 . S
N1395 C1388 1.356 . S
N1395 H1398 0.984 . S
N1395 H1399 0.985 . S
H1396 N1391 0.984 . S
H1397 N1391 0.985 . S
H1398 N1395 0.984 . S
H1399 N1395 0.985 . S
H1400 N1394 0.984 . S
H1401 N1394 0.984 . S
H1402 N1390 0.984 . S
H1403 N1390 0.985 . S
C1404 C1405 1.363 . S
C1404 C1410 1.379 . S
C1404 N1412 1.356 . S
C1405 C1404 1.363 . S
C1405 C1411 1.363 . S
C1406 C1407 1.363 . S
C1406 C1411 1.379 . S
C1406 N1413 1.356 . S
C1407 C1406 1.363 . S
C1407 C1410 1.363 . S
N1408 C1410 1.356 . S
N1408 H1420 0.984 . S
N1408 H1421 0.985 . S
N1409 C1411 1.356 . S
N1409 H1414 0.984 . S
N1409 H1415 0.985 . S
C1410 C1404 1.379 . S
C1410 C1407 1.363 . S
C1410 N1408 1.356 . S
C1411 C1405 1.363 . S
C1411 C1406 1.379 . S
C1411 N1409 1.356 . S
N1412 C1404 1.356 . S
N1412 H1418 0.984 . S
N1412 H1419 0.984 . S
N1413 C1406 1.356 . S
N1413 H1416 0.984 . S
N1413 H1417 0.985 . S
H1414 N1409 0.984 . S
H1415 N1409 0.985 . S
H1416 N1413 0.984 . S
H1417 N1413 0.985 . S
H1418 N1412 0.984 . S
H1419 N1412 0.984 . S
H1420 N1408 0.984 . S
H1421 N1408 0.985 . S
C1422 C1423 1.363 . S
C1422 C1428 1.379 . S
C1422 N1430 1.356 . S
C1423 C1422 1.363 . S
C1423 C1429 1.363 . S
C1424 C1425 1.363 . S
C1424 C1429 1.379 . S
C1424 N1431 1.356 . S
C1425 C1424 1.363 . S
C1425 C1428 1.363 . S
N1426 C1428 1.356 . S
N1426 H1438 0.984 . S
N1426 H1439 0.985 . S
N1427 C1429 1.356 . S
N1427 H1432 0.984 . S
N1427 H1433 0.985 . S
C1428 C1422 1.379 . S
C1428 C1425 1.363 . S
C1428 N1426 1.356 . S
C1429 C1423 1.363 . S
C1429 C1424 1.379 . S
C1429 N1427 1.356 . S
N1430 C1422 1.356 . S
N1430 H1436 0.984 . S
N1430 H1437 0.984 . S
N1431 C1424 1.356 . S
N1431 H1434 0.984 . S
N1431 H1435 0.985 . S
H1432 N1427 0.984 . S
H1433 N1427 0.985 . S
H1434 N1431 0.984 . S
H1435 N1431 0.985 . S
H1436 N1430 0.984 . S
H1437 N1430 0.984 . S
H1438 N1426 0.984 . S
H1439 N1426 0.985 . S
C1440 C1441 1.363 . S
C1440 C1446 1.379 . S
C1440 N1448 1.356 . S
C1441 C1440 1.363 . S
C1441 C1447 1.363 1_556 S
C1442 C1443 1.363 1_554 S
C1442 C1447 1.379 . S
C1442 N1449 1.356 . S
C1443 C1442 1.363 1_556 S
C1443 C1446 1.363 . S
N1444 C1446 1.356 . S
N1444 H1456 0.984 . S
N1444 H1457 0.985 . S
N1445 C1447 1.356 . S
N1445 H1450 0.984 . S
N1445 H1451 0.985 . S
C1446 C1440 1.379 . S
C1446 C1443 1.363 . S
C1446 N1444 1.356 . S
C1447 C1441 1.363 1_554 S
C1447 C1442 1.379 . S
C1447 N1445 1.356 . S
N1448 C1440 1.356 . S
N1448 H1454 0.984 . S
N1448 H1455 0.984 . S
N1449 C1442 1.356 . S
N1449 H1452 0.984 . S
N1449 H1453 0.985 . S
H1450 N1445 0.984 . S
H1451 N1445 0.985 . S
H1452 N1449 0.984 . S
H1453 N1449 0.985 . S
H1454 N1448 0.984 . S
H1455 N1448 0.984 . S
H1456 N1444 0.984 . S
H1457 N1444 0.985 . S
C1458 C1459 1.363 . S
C1458 C1464 1.379 . S
C1458 N1466 1.356 . S
C1459 C1458 1.363 . S
C1459 C1465 1.363 . S
C1460 C1461 1.363 . S
C1460 C1465 1.379 . S
C1460 N1467 1.356 . S
C1461 C1460 1.363 . S
C1461 C1464 1.363 . S
N1462 C1464 1.356 . S
N1462 H1474 0.984 . S
N1462 H1475 0.985 . S
N1463 C1465 1.356 . S
N1463 H1468 0.984 . S
N1463 H1469 0.985 . S
C1464 C1458 1.379 . S
C1464 C1461 1.363 . S
C1464 N1462 1.356 . S
C1465 C1459 1.363 . S
C1465 C1460 1.379 . S
C1465 N1463 1.356 . S
N1466 C1458 1.356 . S
N1466 H1472 0.984 . S
N1466 H1473 0.984 . S
N1467 C1460 1.356 . S
N1467 H1470 0.984 . S
N1467 H1471 0.985 . S
H1468 N1463 0.984 . S
H1469 N1463 0.985 . S
H1470 N1467 0.984 . S
H1471 N1467 0.985 . S
H1472 N1466 0.984 . S
H1473 N1466 0.984 . S
H1474 N1462 0.984 . S
H1475 N1462 0.985 . S
C1476 C1477 1.363 . S
C1476 C1482 1.379 . S
C1476 N1484 1.356 . S
C1477 C1476 1.363 . S
C1477 C1483 1.363 . S
C1478 C1479 1.363 . S
C1478 C1483 1.379 . S
C1478 N1485 1.356 . S
C1479 C1478 1.363 . S
C1479 C1482 1.363 . S
N1480 C1482 1.356 . S
N1480 H1492 0.984 . S
N1480 H1493 0.985 . S
N1481 C1483 1.356 . S
N1481 H1486 0.984 . S
N1481 H1487 0.985 . S
C1482 C1476 1.379 . S
C1482 C1479 1.363 . S
C1482 N1480 1.356 . S
C1483 C1477 1.363 . S
C1483 C1478 1.379 . S
C1483 N1481 1.356 . S
N1484 C1476 1.356 . S
N1484 H1490 0.984 . S
N1484 H1491 0.984 . S
N1485 C1478 1.356 . S
N1485 H1488 0.984 . S
N1485 H1489 0.985 . S
H1486 N1481 0.984 . S
H1487 N1481 0.985 . S
H1488 N1485 0.984 . S
H1489 N1485 0.985 . S
H1490 N1484 0.984 . S
H1491 N1484 0.984 . S
H1492 N1480 0.984 . S
H1493 N1480 0.985 . S
C1494 C1495 1.363 . S
C1494 C1500 1.379 . S
C1494 N1502 1.356 . S
C1495 C1494 1.363 . S
C1495 C1501 1.363 . S
C1496 C1497 1.363 . S
C1496 C1501 1.379 . S
C1496 N1503 1.356 . S
C1497 C1496 1.363 . S
C1497 C1500 1.363 . S
N1498 C1500 1.356 . S
N1498 H1510 0.984 . S
N1498 H1511 0.985 . S
N1499 C1501 1.356 . S
N1499 H1504 0.984 . S
N1499 H1505 0.985 . S
C1500 C1494 1.379 . S
C1500 C1497 1.363 . S
C1500 N1498 1.356 . S
C1501 C1495 1.363 . S
C1501 C1496 1.379 . S
C1501 N1499 1.356 . S
N1502 C1494 1.356 . S
N1502 H1508 0.984 . S
N1502 H1509 0.984 . S
N1503 C1496 1.356 . S
N1503 H1506 0.984 . S
N1503 H1507 0.985 . S
H1504 N1499 0.984 . S
H1505 N1499 0.985 . S
H1506 N1503 0.984 . S
H1507 N1503 0.985 . S
H1508 N1502 0.984 . S
H1509 N1502 0.984 . S
H1510 N1498 0.984 . S
H1511 N1498 0.985 . S
C1512 C1513 1.363 . S
C1512 C1518 1.379 . S
C1512 N1520 1.356 . S
C1513 C1512 1.363 . S
C1513 C1519 1.363 . S
C1514 C1515 1.363 . S
C1514 C1519 1.379 . S
C1514 N1521 1.356 . S
C1515 C1514 1.363 . S
C1515 C1518 1.363 . S
N1516 C1518 1.356 . S
N1516 H1528 0.984 . S
N1516 H1529 0.985 . S
N1517 C1519 1.356 . S
N1517 H1522 0.984 . S
N1517 H1523 0.985 . S
C1518 C1512 1.379 . S
C1518 C1515 1.363 . S
C1518 N1516 1.356 . S
C1519 C1513 1.363 . S
C1519 C1514 1.379 . S
C1519 N1517 1.356 . S
N1520 C1512 1.356 . S
N1520 H1526 0.984 . S
N1520 H1527 0.984 . S
N1521 C1514 1.356 . S
N1521 H1524 0.984 . S
N1521 H1525 0.985 . S
H1522 N1517 0.984 . S
H1523 N1517 0.985 . S
H1524 N1521 0.984 . S
H1525 N1521 0.985 . S
H1526 N1520 0.984 . S
H1527 N1520 0.984 . S
H1528 N1516 0.984 . S
H1529 N1516 0.985 . S
C1530 C1531 1.363 . S
C1530 C1536 1.379 . S
C1530 N1538 1.356 . S
C1531 C1530 1.363 . S
C1531 C1537 1.363 . S
C1532 C1533 1.363 . S
C1532 C1537 1.379 . S
C1532 N1539 1.356 . S
C1533 C1532 1.363 . S
C1533 C1536 1.363 . S
N1534 C1536 1.356 . S
N1534 H1546 0.984 . S
N1534 H1547 0.985 . S
N1535 C1537 1.356 . S
N1535 H1540 0.984 . S
N1535 H1541 0.985 . S
C1536 C1530 1.379 . S
C1536 C1533 1.363 . S
C1536 N1534 1.356 . S
C1537 C1531 1.363 . S
C1537 C1532 1.379 . S
C1537 N1535 1.356 . S
N1538 C1530 1.356 . S
N1538 H1544 0.984 . S
N1538 H1545 0.984 . S
N1539 C1532 1.356 . S
N1539 H1542 0.984 . S
N1539 H1543 0.985 . S
H1540 N1535 0.984 . S
H1541 N1535 0.985 . S
H1542 N1539 0.984 . S
H1543 N1539 0.985 . S
H1544 N1538 0.984 . S
H1545 N1538 0.984 . S
H1546 N1534 0.984 . S
H1547 N1534 0.985 . S
C1548 C1549 1.363 . S
C1548 C1554 1.379 . S
C1548 N1556 1.356 . S
C1549 C1548 1.363 . S
C1549 C1555 1.363 . S
C1550 C1551 1.363 . S
C1550 C1555 1.379 . S
C1550 N1557 1.356 . S
C1551 C1550 1.363 . S
C1551 C1554 1.363 . S
N1552 C1554 1.356 . S
N1552 H1564 0.984 . S
N1552 H1565 0.985 . S
N1553 C1555 1.356 . S
N1553 H1558 0.984 . S
N1553 H1559 0.985 . S
C1554 C1548 1.379 . S
C1554 C1551 1.363 . S
C1554 N1552 1.356 . S
C1555 C1549 1.363 . S
C1555 C1550 1.379 . S
C1555 N1553 1.356 . S
N1556 C1548 1.356 . S
N1556 H1562 0.984 . S
N1556 H1563 0.984 . S
N1557 C1550 1.356 . S
N1557 H1560 0.984 . S
N1557 H1561 0.985 . S
H1558 N1553 0.984 . S
H1559 N1553 0.985 . S
H1560 N1557 0.984 . S
H1561 N1557 0.985 . S
H1562 N1556 0.984 . S
H1563 N1556 0.984 . S
H1564 N1552 0.984 . S
H1565 N1552 0.985 . S
C1566 C1567 1.363 . S
C1566 C1572 1.379 . S
C1566 N1574 1.356 . S
C1567 C1566 1.363 . S
C1567 C1573 1.357 1_545 S
C1568 C1569 1.363 1_565 S
C1568 C1573 1.380 . S
C1568 N1575 1.356 . S
C1569 C1568 1.363 1_545 S
C1569 C1572 1.363 . S
N1570 C1572 1.356 . S
N1570 H1582 0.984 . S
N1570 H1583 0.985 . S
N1571 C1573 1.360 . S
N1571 H1576 0.984 . S
N1571 H1577 0.985 . S
C1572 C1566 1.379 . S
C1572 C1569 1.363 . S
C1572 N1570 1.356 . S
C1573 C1567 1.357 1_565 S
C1573 C1568 1.380 . S
C1573 N1571 1.360 . S
N1574 C1566 1.356 . S
N1574 H1580 0.984 . S
N1574 H1581 0.984 . S
N1575 C1568 1.356 . S
N1575 H1578 0.984 . S
N1575 H1579 0.985 . S
H1576 N1571 0.984 . S
H1577 N1571 0.985 . S
H1578 N1575 0.984 . S
H1579 N1575 0.985 . S
H1580 N1574 0.984 . S
H1581 N1574 0.984 . S
H1582 N1570 0.984 . S
H1583 N1570 0.985 . S
C1584 C1585 1.363 . S
C1584 C1590 1.379 . S
C1584 N1592 1.356 . S
C1585 C1584 1.363 . S
C1585 C1591 1.363 . S
C1586 C1587 1.363 . S
C1586 C1591 1.379 . S
C1586 N1593 1.356 . S
C1587 C1586 1.363 . S
C1587 C1590 1.363 . S
N1588 C1590 1.356 . S
N1588 H1600 0.984 . S
N1588 H1601 0.985 . S
N1589 C1591 1.356 . S
N1589 H1594 0.984 . S
N1589 H1595 0.985 . S
C1590 C1584 1.379 . S
C1590 C1587 1.363 . S
C1590 N1588 1.356 . S
C1591 C1585 1.363 . S
C1591 C1586 1.379 . S
C1591 N1589 1.356 . S
N1592 C1584 1.356 . S
N1592 H1598 0.984 . S
N1592 H1599 0.984 . S
N1593 C1586 1.356 . S
N1593 H1596 0.984 . S
N1593 H1597 0.985 . S
H1594 N1589 0.984 . S
H1595 N1589 0.985 . S
H1596 N1593 0.984 . S
H1597 N1593 0.985 . S
H1598 N1592 0.984 . S
H1599 N1592 0.984 . S
H1600 N1588 0.984 . S
H1601 N1588 0.985 . S
C1602 C1603 1.363 . S
C1602 C1608 1.379 . S
C1602 N1610 1.356 . S
C1603 C1602 1.363 . S
C1603 C1609 1.363 . S
C1604 C1605 1.363 . S
C1604 C1609 1.379 . S
C1604 N1611 1.356 . S
C1605 C1604 1.363 . S
C1605 C1608 1.363 . S
N1606 C1608 1.356 . S
N1606 H1618 0.984 . S
N1606 H1619 0.985 . S
N1607 C1609 1.356 . S
N1607 H1612 0.984 . S
N1607 H1613 0.985 . S
C1608 C1602 1.379 . S
C1608 C1605 1.363 . S
C1608 N1606 1.356 . S
C1609 C1603 1.363 . S
C1609 C1604 1.379 . S
C1609 N1607 1.356 . S
N1610 C1602 1.356 . S
N1610 H1616 0.984 . S
N1610 H1617 0.984 . S
N1611 C1604 1.356 . S
N1611 H1614 0.984 . S
N1611 H1615 0.985 . S
H1612 N1607 0.984 . S
H1613 N1607 0.985 . S
H1614 N1611 0.984 . S
H1615 N1611 0.985 . S
H1616 N1610 0.984 . S
H1617 N1610 0.984 . S
H1618 N1606 0.984 . S
H1619 N1606 0.985 . S
C1620 C1621 1.363 . S
C1620 C1626 1.379 . S
C1620 N1628 1.356 . S
C1621 C1620 1.363 . S
C1621 C1627 1.363 . S
C1622 C1623 1.363 . S
C1622 C1627 1.379 . S
C1622 N1629 1.356 . S
C1623 C1622 1.363 . S
C1623 C1626 1.363 . S
N1624 C1626 1.356 . S
N1624 H1636 0.984 . S
N1624 H1637 0.985 . S
N1625 C1627 1.356 . S
N1625 H1630 0.984 . S
N1625 H1631 0.985 . S
C1626 C1620 1.379 . S
C1626 C1623 1.363 . S
C1626 N1624 1.356 . S
C1627 C1621 1.363 . S
C1627 C1622 1.379 . S
C1627 N1625 1.356 . S
N1628 C1620 1.356 . S
N1628 H1634 0.984 . S
N1628 H1635 0.984 . S
N1629 C1622 1.356 . S
N1629 H1632 0.984 . S
N1629 H1633 0.985 . S
H1630 N1625 0.984 . S
H1631 N1625 0.985 . S
H1632 N1629 0.984 . S
H1633 N1629 0.985 . S
H1634 N1628 0.984 . S
H1635 N1628 0.984 . S
H1636 N1624 0.984 . S
H1637 N1624 0.985 . S
C1638 C1639 1.363 . S
C1638 C1644 1.379 . S
C1638 N1646 1.371 . S
C1639 C1638 1.363 . S
C1639 C1645 1.363 . S
C1640 C1641 1.363 . S
C1640 C1645 1.379 . S
C1640 N1647 1.356 . S
C1641 C1640 1.363 . S
C1641 C1644 1.363 . S
N1642 C1644 1.356 1_565 S
N1642 H1654 0.984 . S
N1642 H1655 0.985 . S
N1643 C1645 1.356 . S
N1643 H1648 0.984 . S
N1643 H1649 0.985 . S
C1644 C1638 1.379 . S
C1644 C1641 1.363 . S
C1644 N1642 1.356 1_545 S
C1645 C1639 1.363 . S
C1645 C1640 1.379 . S
C1645 N1643 1.356 . S
N1646 C1638 1.371 . S
N1646 H1652 0.959 1_545 S
N1646 H1653 0.997 . S
N1647 C1640 1.356 . S
N1647 H1650 0.984 . S
N1647 H1651 0.985 . S
H1648 N1643 0.984 . S
H1649 N1643 0.985 . S
H1650 N1647 0.984 . S
H1651 N1647 0.985 . S
H1652 N1646 0.959 1_565 S
H1653 N1646 0.997 . S
H1654 N1642 0.984 . S
H1655 N1642 0.985 . S
C1656 C1657 1.363 . S
C1656 C1662 1.379 . S
C1656 N1664 1.356 . S
C1657 C1656 1.363 . S
C1657 C1663 1.363 . S
C1658 C1659 1.363 . S
C1658 C1663 1.379 . S
C1658 N1665 1.356 . S
C1659 C1658 1.363 . S
C1659 C1662 1.363 . S
N1660 C1662 1.356 . S
N1660 H1672 0.984 . S
N1660 H1673 0.985 . S
N1661 C1663 1.356 . S
N1661 H1666 0.984 . S
N1661 H1667 0.985 . S
C1662 C1656 1.379 . S
C1662 C1659 1.363 . S
C1662 N1660 1.356 . S
C1663 C1657 1.363 . S
C1663 C1658 1.379 . S
C1663 N1661 1.356 . S
N1664 C1656 1.356 . S
N1664 H1670 0.984 . S
N1664 H1671 0.984 . S
N1665 C1658 1.356 . S
N1665 H1668 0.984 . S
N1665 H1669 0.985 . S
H1666 N1661 0.984 . S
H1667 N1661 0.985 . S
H1668 N1665 0.984 . S
H1669 N1665 0.985 . S
H1670 N1664 0.984 . S
H1671 N1664 0.984 . S
H1672 N1660 0.984 . S
H1673 N1660 0.985 . S
C1674 C1675 1.363 . S
C1674 C1680 1.379 . S
C1674 N1682 1.356 . S
C1675 C1674 1.363 . S
C1675 C1681 1.363 . S
C1676 C1677 1.363 . S
C1676 C1681 1.379 . S
C1676 N1683 1.356 . S
C1677 C1676 1.363 . S
C1677 C1680 1.363 . S
N1678 C1680 1.356 . S
N1678 H1690 0.984 . S
N1678 H1691 0.985 . S
N1679 C1681 1.356 . S
N1679 H1684 0.984 . S
N1679 H1685 0.985 . S
C1680 C1674 1.379 . S
C1680 C1677 1.363 . S
C1680 N1678 1.356 . S
C1681 C1675 1.363 . S
C1681 C1676 1.379 . S
C1681 N1679 1.356 . S
N1682 C1674 1.356 . S
N1682 H1688 0.984 . S
N1682 H1689 0.984 . S
N1683 C1676 1.356 . S
N1683 H1686 0.984 . S
N1683 H1687 0.985 . S
H1684 N1679 0.984 . S
H1685 N1679 0.985 . S
H1686 N1683 0.984 . S
H1687 N1683 0.985 . S
H1688 N1682 0.984 . S
H1689 N1682 0.984 . S
H1690 N1678 0.984 . S
H1691 N1678 0.985 . S
C1692 C1693 1.363 . S
C1692 C1698 1.379 . S
C1692 N1700 1.356 . S
C1693 C1692 1.363 . S
C1693 C1699 1.363 . S
C1694 C1695 1.363 . S
C1694 C1699 1.379 . S
C1694 N1701 1.356 . S
C1695 C1694 1.363 . S
C1695 C1698 1.363 . S
N1696 C1698 1.356 . S
N1696 H1708 0.984 . S
N1696 H1709 0.985 . S
N1697 C1699 1.356 . S
N1697 H1702 0.984 . S
N1697 H1703 0.985 . S
C1698 C1692 1.379 . S
C1698 C1695 1.363 . S
C1698 N1696 1.356 . S
C1699 C1693 1.363 . S
C1699 C1694 1.379 . S
C1699 N1697 1.356 . S
N1700 C1692 1.356 . S
N1700 H1706 0.984 . S
N1700 H1707 0.984 . S
N1701 C1694 1.356 . S
N1701 H1704 0.984 . S
N1701 H1705 0.985 . S
H1702 N1697 0.984 . S
H1703 N1697 0.985 . S
H1704 N1701 0.984 . S
H1705 N1701 0.985 . S
H1706 N1700 0.984 . S
H1707 N1700 0.984 . S
H1708 N1696 0.984 . S
H1709 N1696 0.985 . S
C1710 C1711 1.363 . S
C1710 C1716 1.379 . S
C1710 N1718 1.356 . S
C1711 C1710 1.363 . S
C1711 C1717 1.363 1_655 S
C1712 C1713 1.363 1_455 S
C1712 C1717 1.379 . S
C1712 N1719 1.356 . S
C1713 C1712 1.363 1_655 S
C1713 C1716 1.363 . S
N1714 C1716 1.356 . S
N1714 H1726 0.984 . S
N1714 H1727 0.985 . S
N1715 C1717 1.356 . S
N1715 H1720 0.984 . S
N1715 H1721 0.985 . S
C1716 C1710 1.379 . S
C1716 C1713 1.363 . S
C1716 N1714 1.356 . S
C1717 C1711 1.363 1_455 S
C1717 C1712 1.379 . S
C1717 N1715 1.356 . S
N1718 C1710 1.356 . S
N1718 H1724 0.984 . S
N1718 H1725 0.984 . S
N1719 C1712 1.356 . S
N1719 H1722 0.984 . S
N1719 H1723 0.985 . S
H1720 N1715 0.984 . S
H1721 N1715 0.985 . S
H1722 N1719 0.984 . S
H1723 N1719 0.985 . S
H1724 N1718 0.984 . S
H1725 N1718 0.984 . S
H1726 N1714 0.984 . S
H1727 N1714 0.985 . S
C1728 C1729 1.363 . S
C1728 C1734 1.379 . S
C1728 N1736 1.356 . S
C1729 C1728 1.363 . S
C1729 C1735 1.363 . S
C1730 C1731 1.363 . S
C1730 C1735 1.379 . S
C1730 N1737 1.356 . S
C1731 C1730 1.363 . S
C1731 C1734 1.363 . S
N1732 C1734 1.356 . S
N1732 H1744 0.984 . S
N1732 H1745 0.985 . S
N1733 C1735 1.356 . S
N1733 H1738 0.984 . S
N1733 H1739 0.985 . S
C1734 C1728 1.379 . S
C1734 C1731 1.363 . S
C1734 N1732 1.356 . S
C1735 C1729 1.363 . S
C1735 C1730 1.379 . S
C1735 N1733 1.356 . S
N1736 C1728 1.356 . S
N1736 H1742 0.984 . S
N1736 H1743 0.984 . S
N1737 C1730 1.356 . S
N1737 H1740 0.984 . S
N1737 H1741 0.985 . S
H1738 N1733 0.984 . S
H1739 N1733 0.985 . S
H1740 N1737 0.984 . S
H1741 N1737 0.985 . S
H1742 N1736 0.984 . S
H1743 N1736 0.984 . S
H1744 N1732 0.984 . S
H1745 N1732 0.985 . S
C1746 C1747 1.363 . S
C1746 C1752 1.379 . S
C1746 N1754 1.356 . S
C1747 C1746 1.363 . S
C1747 C1753 1.363 . S
C1748 C1749 1.363 . S
C1748 C1753 1.379 . S
C1748 N1755 1.359 . S
C1749 C1748 1.363 . S
C1749 C1752 1.363 . S
N1750 C1752 1.356 . S
N1750 H1762 0.984 . S
N1750 H1763 0.985 . S
N1751 C1753 1.356 . S
N1751 H1756 0.980 1_556 S
N1751 H1757 0.985 1_556 S
C1752 C1746 1.379 . S
C1752 C1749 1.363 . S
C1752 N1750 1.356 . S
C1753 C1747 1.363 . S
C1753 C1748 1.379 . S
C1753 N1751 1.356 . S
N1754 C1746 1.356 . S
N1754 H1760 0.984 . S
N1754 H1761 0.984 . S
N1755 C1748 1.359 . S
N1755 H1758 0.983 1_455 S
N1755 H1759 0.982 1_455 S
H1756 N1751 0.980 1_554 S
H1757 N1751 0.985 1_554 S
H1758 N1755 0.983 1_655 S
H1759 N1755 0.982 1_655 S
H1760 N1754 0.984 . S
H1761 N1754 0.984 . S
H1762 N1750 0.984 . S
H1763 N1750 0.985 . S
C1764 C1765 1.363 . S
C1764 C1770 1.379 . S
C1764 N1772 1.356 . S
C1765 C1764 1.363 . S
C1765 C1771 1.363 . S
C1766 C1767 1.363 . S
C1766 C1771 1.379 . S
C1766 N1773 1.356 . S
C1767 C1766 1.363 . S
C1767 C1770 1.363 . S
N1768 C1770 1.356 . S
N1768 H1780 0.984 . S
N1768 H1781 0.985 . S
N1769 C1771 1.356 . S
N1769 H1774 0.984 . S
N1769 H1775 0.985 . S
C1770 C1764 1.379 . S
C1770 C1767 1.363 . S
C1770 N1768 1.356 . S
C1771 C1765 1.363 . S
C1771 C1766 1.379 . S
C1771 N1769 1.356 . S
N1772 C1764 1.356 . S
N1772 H1778 0.984 . S
N1772 H1779 0.984 . S
N1773 C1766 1.356 . S
N1773 H1776 0.984 . S
N1773 H1777 0.985 . S
H1774 N1769 0.984 . S
H1775 N1769 0.985 . S
H1776 N1773 0.984 . S
H1777 N1773 0.985 . S
H1778 N1772 0.984 . S
H1779 N1772 0.984 . S
H1780 N1768 0.984 . S
H1781 N1768 0.985 . S
C1782 C1783 1.363 . S
C1782 C1788 1.379 . S
C1782 N1790 1.356 . S
C1783 C1782 1.363 . S
C1783 C1789 1.363 . S
C1784 C1785 1.363 . S
C1784 C1789 1.379 . S
C1784 N1791 1.356 . S
C1785 C1784 1.363 . S
C1785 C1788 1.363 . S
N1786 C1788 1.356 . S
N1786 H1798 0.984 . S
N1786 H1799 0.985 . S
N1787 C1789 1.356 . S
N1787 H1792 0.984 . S
N1787 H1793 0.985 . S
C1788 C1782 1.379 . S
C1788 C1785 1.363 . S
C1788 N1786 1.356 . S
C1789 C1783 1.363 . S
C1789 C1784 1.379 . S
C1789 N1787 1.356 . S
N1790 C1782 1.356 . S
N1790 H1796 0.984 . S
N1790 H1797 0.984 . S
N1791 C1784 1.356 . S
N1791 H1794 0.984 . S
N1791 H1795 0.985 . S
H1792 N1787 0.984 . S
H1793 N1787 0.985 . S
H1794 N1791 0.984 . S
H1795 N1791 0.985 . S
H1796 N1790 0.984 . S
H1797 N1790 0.984 . S
H1798 N1786 0.984 . S
H1799 N1786 0.985 . S
C1800 C1801 1.363 . S
C1800 C1806 1.379 . S
C1800 N1808 1.356 . S
C1801 C1800 1.363 . S
C1801 C1807 1.363 . S
C1802 C1803 1.363 . S
C1802 C1807 1.379 . S
C1802 N1809 1.356 . S
C1803 C1802 1.363 . S
C1803 C1806 1.363 . S
N1804 C1806 1.356 . S
N1804 H1816 0.984 . S
N1804 H1817 0.985 . S
N1805 C1807 1.356 . S
N1805 H1810 0.984 . S
N1805 H1811 0.985 . S
C1806 C1800 1.379 . S
C1806 C1803 1.363 . S
C1806 N1804 1.356 . S
C1807 C1801 1.363 . S
C1807 C1802 1.379 . S
C1807 N1805 1.356 . S
N1808 C1800 1.356 . S
N1808 H1814 0.984 . S
N1808 H1815 0.984 . S
N1809 C1802 1.356 . S
N1809 H1812 0.984 . S
N1809 H1813 0.985 . S
H1810 N1805 0.984 . S
H1811 N1805 0.985 . S
H1812 N1809 0.984 . S
H1813 N1809 0.985 . S
H1814 N1808 0.984 . S
H1815 N1808 0.984 . S
H1816 N1804 0.984 . S
H1817 N1804 0.985 . S
C1818 C1819 1.363 . S
C1818 C1824 1.379 . S
C1818 N1826 1.356 . S
C1819 C1818 1.363 . S
C1819 C1825 1.363 . S
C1820 C1821 1.363 . S
C1820 C1825 1.379 . S
C1820 N1827 1.356 . S
C1821 C1820 1.363 . S
C1821 C1824 1.363 . S
N1822 C1824 1.356 . S
N1822 H1834 0.984 . S
N1822 H1835 0.985 . S
N1823 C1825 1.356 . S
N1823 H1828 0.984 . S
N1823 H1829 0.985 . S
C1824 C1818 1.379 . S
C1824 C1821 1.363 . S
C1824 N1822 1.356 . S
C1825 C1819 1.363 . S
C1825 C1820 1.379 . S
C1825 N1823 1.356 . S
N1826 C1818 1.356 . S
N1826 H1832 0.984 . S
N1826 H1833 0.984 . S
N1827 C1820 1.356 . S
N1827 H1830 0.984 . S
N1827 H1831 0.985 . S
H1828 N1823 0.984 . S
H1829 N1823 0.985 . S
H1830 N1827 0.984 . S
H1831 N1827 0.985 . S
H1832 N1826 0.984 . S
H1833 N1826 0.984 . S
H1834 N1822 0.984 . S
H1835 N1822 0.985 . S
C1836 C1837 1.363 . S
C1836 C1842 1.379 . S
C1836 N1844 1.356 . S
C1837 C1836 1.363 . S
C1837 C1843 1.363 . S
C1838 C1839 1.363 . S
C1838 C1843 1.379 . S
C1838 N1845 1.356 . S
C1839 C1838 1.363 . S
C1839 C1842 1.363 . S
N1840 C1842 1.356 . S
N1840 H1852 0.984 . S
N1840 H1853 0.985 . S
N1841 C1843 1.356 . S
N1841 H1846 0.984 . S
N1841 H1847 0.985 . S
C1842 C1836 1.379 . S
C1842 C1839 1.363 . S
C1842 N1840 1.356 . S
C1843 C1837 1.363 . S
C1843 C1838 1.379 . S
C1843 N1841 1.356 . S
N1844 C1836 1.356 . S
N1844 H1850 0.984 . S
N1844 H1851 0.984 . S
N1845 C1838 1.356 . S
N1845 H1848 0.984 . S
N1845 H1849 0.985 . S
H1846 N1841 0.984 . S
H1847 N1841 0.985 . S
H1848 N1845 0.984 . S
H1849 N1845 0.985 . S
H1850 N1844 0.984 . S
H1851 N1844 0.984 . S
H1852 N1840 0.984 . S
H1853 N1840 0.985 . S
C1854 C1855 1.363 . S
C1854 C1860 1.379 . S
C1854 N1862 1.356 . S
C1855 C1854 1.363 . S
C1855 C1861 1.363 . S
C1856 C1857 1.363 . S
C1856 C1861 1.379 . S
C1856 N1863 1.356 . S
C1857 C1856 1.363 . S
C1857 C1860 1.363 . S
N1858 C1860 1.356 . S
N1858 H1870 0.984 . S
N1858 H1871 0.985 . S
N1859 C1861 1.356 . S
N1859 H1864 0.984 . S
N1859 H1865 0.985 . S
C1860 C1854 1.379 . S
C1860 C1857 1.363 . S
C1860 N1858 1.356 . S
C1861 C1855 1.363 . S
C1861 C1856 1.379 . S
C1861 N1859 1.356 . S
N1862 C1854 1.356 . S
N1862 H1868 0.984 . S
N1862 H1869 0.984 . S
N1863 C1856 1.356 . S
N1863 H1866 0.984 . S
N1863 H1867 0.985 . S
H1864 N1859 0.984 . S
H1865 N1859 0.985 . S
H1866 N1863 0.984 . S
H1867 N1863 0.985 . S
H1868 N1862 0.984 . S
H1869 N1862 0.984 . S
H1870 N1858 0.984 . S
H1871 N1858 0.985 . S
C1872 C1873 1.363 . S
C1872 C1878 1.379 . S
C1872 N1880 1.356 . S
C1873 C1872 1.363 . S
C1873 C1879 1.363 . S
C1874 C1875 1.363 . S
C1874 C1879 1.379 . S
C1874 N1881 1.356 . S
C1875 C1874 1.363 . S
C1875 C1878 1.363 . S
N1876 C1878 1.356 . S
N1876 H1888 0.984 . S
N1876 H1889 0.985 . S
N1877 C1879 1.356 . S
N1877 H1882 0.984 . S
N1877 H1883 0.985 . S
C1878 C1872 1.379 . S
C1878 C1875 1.363 . S
C1878 N1876 1.356 . S
C1879 C1873 1.363 . S
C1879 C1874 1.379 . S
C1879 N1877 1.356 . S
N1880 C1872 1.356 . S
N1880 H1886 0.984 . S
N1880 H1887 0.984 . S
N1881 C1874 1.356 . S
N1881 H1884 0.984 . S
N1881 H1885 0.985 . S
H1882 N1877 0.984 . S
H1883 N1877 0.985 . S
H1884 N1881 0.984 . S
H1885 N1881 0.985 . S
H1886 N1880 0.984 . S
H1887 N1880 0.984 . S
H1888 N1876 0.984 . S
H1889 N1876 0.985 . S
C1890 C1891 1.363 . S
C1890 C1896 1.379 . S
C1890 N1898 1.356 . S
C1891 C1890 1.363 . S
C1891 C1897 1.363 . S
C1892 C1893 1.363 . S
C1892 C1897 1.379 . S
C1892 N1899 1.356 . S
C1893 C1892 1.363 . S
C1893 C1896 1.363 . S
N1894 C1896 1.356 . S
N1894 H1906 0.984 . S
N1894 H1907 0.985 . S
N1895 C1897 1.356 . S
N1895 H1900 0.984 . S
N1895 H1901 0.985 . S
C1896 C1890 1.379 . S
C1896 C1893 1.363 . S
C1896 N1894 1.356 . S
C1897 C1891 1.363 . S
C1897 C1892 1.379 . S
C1897 N1895 1.356 . S
N1898 C1890 1.356 . S
N1898 H1904 0.984 . S
N1898 H1905 0.984 . S
N1899 C1892 1.356 . S
N1899 H1902 0.984 . S
N1899 H1903 0.985 . S
H1900 N1895 0.984 . S
H1901 N1895 0.985 . S
H1902 N1899 0.984 . S
H1903 N1899 0.985 . S
H1904 N1898 0.984 . S
H1905 N1898 0.984 . S
H1906 N1894 0.984 . S
H1907 N1894 0.985 . S
C1908 C1909 1.363 . S
C1908 C1914 1.379 . S
C1908 N1916 1.356 . S
C1909 C1908 1.363 . S
C1909 C1915 1.363 . S
C1910 C1911 1.363 . S
C1910 C1915 1.379 . S
C1910 N1917 1.356 . S
C1911 C1910 1.363 . S
C1911 C1914 1.363 . S
N1912 C1914 1.356 1_554 S
N1912 H1924 0.984 . S
N1912 H1925 0.985 . S
N1913 C1915 1.356 . S
N1913 H1918 0.984 . S
N1913 H1919 0.985 . S
C1914 C1908 1.379 . S
C1914 C1911 1.363 . S
C1914 N1912 1.356 1_556 S
C1915 C1909 1.363 . S
C1915 C1910 1.379 . S
C1915 N1913 1.356 . S
N1916 C1908 1.356 . S
N1916 H1922 0.985 1_556 S
N1916 H1923 0.984 . S
N1917 C1910 1.356 . S
N1917 H1920 0.984 . S
N1917 H1921 0.985 . S
H1918 N1913 0.984 . S
H1919 N1913 0.985 . S
H1920 N1917 0.984 . S
H1921 N1917 0.985 . S
H1922 N1916 0.985 1_554 S
H1923 N1916 0.984 . S
H1924 N1912 0.984 . S
H1925 N1912 0.985 . S
C1926 C1927 1.363 . S
C1926 C1932 1.379 . S
C1926 N1934 1.356 . S
C1927 C1926 1.363 . S
C1927 C1933 1.363 . S
C1928 C1929 1.363 . S
C1928 C1933 1.379 . S
C1928 N1935 1.356 . S
C1929 C1928 1.363 . S
C1929 C1932 1.363 . S
N1930 C1932 1.356 . S
N1930 H1942 0.984 . S
N1930 H1943 0.985 . S
N1931 C1933 1.356 . S
N1931 H1936 0.984 . S
N1931 H1937 0.985 . S
C1932 C1926 1.379 . S
C1932 C1929 1.363 . S
C1932 N1930 1.356 . S
C1933 C1927 1.363 . S
C1933 C1928 1.379 . S
C1933 N1931 1.356 . S
N1934 C1926 1.356 . S
N1934 H1940 0.984 . S
N1934 H1941 0.984 . S
N1935 C1928 1.356 . S
N1935 H1938 0.984 . S
N1935 H1939 0.985 . S
H1936 N1931 0.984 . S
H1937 N1931 0.985 . S
H1938 N1935 0.984 . S
H1939 N1935 0.985 . S
H1940 N1934 0.984 . S
H1941 N1934 0.984 . S
H1942 N1930 0.984 . S
H1943 N1930 0.985 . S
C1944 C1945 1.363 1_556 S
C1944 C1950 1.379 . S
C1944 N1952 1.356 . S
C1945 C1944 1.363 1_554 S
C1945 C1951 1.363 . S
C1946 C1947 1.363 . S
C1946 C1951 1.379 . S
C1946 N1953 1.356 . S
C1947 C1946 1.363 . S
C1947 C1950 1.363 1_554 S
N1948 C1950 1.356 . S
N1948 H1960 0.984 . S
N1948 H1961 0.985 . S
N1949 C1951 1.356 . S
N1949 H1954 0.984 . S
N1949 H1955 0.985 . S
C1950 C1944 1.379 . S
C1950 C1947 1.363 1_556 S
C1950 N1948 1.356 . S
C1951 C1945 1.363 . S
C1951 C1946 1.379 . S
C1951 N1949 1.356 . S
N1952 C1944 1.356 . S
N1952 H1958 0.984 . S
N1952 H1959 0.984 . S
N1953 C1946 1.356 . S
N1953 H1956 0.984 . S
N1953 H1957 0.985 . S
H1954 N1949 0.984 . S
H1955 N1949 0.985 . S
H1956 N1953 0.984 . S
H1957 N1953 0.985 . S
H1958 N1952 0.984 . S
H1959 N1952 0.984 . S
H1960 N1948 0.984 . S
H1961 N1948 0.985 . S
C1962 C1963 1.363 . S
C1962 C1968 1.379 . S
C1962 N1970 1.356 1_554 S
C1963 C1962 1.363 . S
C1963 C1969 1.363 . S
C1964 C1965 1.363 . S
C1964 C1969 1.379 . S
C1964 N1971 1.356 . S
C1965 C1964 1.363 . S
C1965 C1968 1.363 . S
N1966 C1968 1.356 1_556 S
N1966 H1978 0.984 . S
N1966 H1979 0.985 . S
N1967 C1969 1.356 . S
N1967 H1972 0.984 . S
N1967 H1973 0.985 . S
C1968 C1962 1.379 . S
C1968 C1965 1.363 . S
C1968 N1966 1.356 1_554 S
C1969 C1963 1.363 . S
C1969 C1964 1.379 . S
C1969 N1967 1.356 . S
N1970 C1962 1.356 1_556 S
N1970 H1976 0.984 . S
N1970 H1977 0.981 1_556 S
N1971 C1964 1.356 . S
N1971 H1974 0.984 . S
N1971 H1975 0.985 . S
H1972 N1967 0.984 . S
H1973 N1967 0.985 . S
H1974 N1971 0.984 . S
H1975 N1971 0.985 . S
H1976 N1970 0.984 . S
H1977 N1970 0.981 1_554 S
H1978 N1966 0.984 . S
H1979 N1966 0.985 . S
C1119 C970 1.434 . S
C1117 C331 1.408 . S
C1137 C983 1.588 . S
C1135 C380 1.578 . S
C1153 C421 1.444 . S
C1155 C996 1.457 . S
C1173 C1009 1.516 . S
C1171 C260 1.499 . S
C1191 C1017 1.464 . S
C1189 C620 1.468 . S
C1209 C1030 1.424 . S
C1207 C740 1.420 . S
C1225 C680 1.496 . S
C1227 C1043 1.497 . S
C1245 C1056 1.500 . S
C1243 C571 1.498 . S
C1261 C691 1.430 . S
C1263 C1074 1.442 . S
C1281 C1085 1.504 . S
C1279 C541 1.525 . S
C1297 C601 1.440 . S
C1299 C1069 1.438 . S
C1317 C1077 1.459 . S
C1315 C721 1.461 . S
C1333 C451 1.480 . S
C1335 C1100 1.493 . S
C1351 C241 1.492 . S
C1353 C1090 1.482 . S
C1369 C320 1.485 . S
C1371 C1095 1.479 . S
C1387 C391 1.541 . S
C1389 C1098 1.531 . S
C1405 C211 1.428 . S
C1407 C1007 1.437 . S
C1423 C841 1.416 . S
C1425 C999 1.423 . S
C1443 C968 1.534 1_556 S
C1441 C901 1.549 . S
C1461 C973 1.498 . S
C1459 C500 1.498 . S
C1477 C271 1.503 . S
C1479 C1020 1.504 . S
C1497 C1059 1.503 . S
C1495 C661 1.510 . S
C1515 C1012 1.478 . S
C1513 C560 1.491 . S
C1533 C1038 1.447 . S
C1531 C751 1.463 . S
C1551 C1048 1.434 . S
C1549 C871 1.408 . S
C1567 C920 1.578 . S
C1569 C1061 1.588 . S
C1585 C481 1.444 . S
C1587 C1022 1.454 . S
C1605 C1035 1.516 . S
C1603 C800 1.499 . S
C1621 C200 1.468 . S
C1623 C991 1.460 . S
C1641 C1004 1.424 . S
C1639 C20 1.420 . S
C1659 C965 1.497 . S
C1657 C80 1.496 . S
C1677 C978 1.500 . S
C1675 C151 1.497 . S
C1693 C91 1.430 . S
C1695 C1087 1.442 . S
C1711 C121 1.525 . S
C1713 C1072 1.498 1_655 S
C1729 C181 1.440 . S
C1731 C1082 1.438 . S
C1747 C1 1.461 . S
C1749 C1064 1.459 . S
C1767 C1113 1.493 . S
C1765 C511 1.480 . S
C1785 C1103 1.482 . S
C1783 C781 1.492 . S
C1803 C1108 1.479 . S
C1801 C860 1.485 . S
C1819 C931 1.541 . S
C1821 C1111 1.528 . S
C1837 C631 1.428 . S
C1839 C1033 1.437 . S
C1857 C1025 1.423 . S
C1855 C301 1.416 . S
C1875 C1046 1.534 . S
C1873 C361 1.549 . S
C1893 C1051 1.498 . S
C1891 C440 1.502 . S
C1909 C811 1.503 . S
C1911 C994 1.505 . S
C1929 C981 1.503 . S
C1927 C61 1.514 . S
C1945 C140 1.491 . S
C1947 C986 1.477 . S
C1965 C960 1.447 . S
C1963 C31 1.463 . S
