# Generated by pormake.
# Topology pyr, (3,6)-cn, num edge types: 1
# Building blocks:
#     Node 0, Type 0, BuildingBlock: CUQRIR_clean_linker_1, # of connection points: 3
#     Node 1, Type 0, BuildingBlock: CUQRIR_clean_linker_1, # of connection points: 3
#     Node 2, Type 0, BuildingBlock: CUQRIR_clean_linker_1, # of connection points: 3
#     Node 3, Type 0, BuildingBlock: CUQRIR_clean_linker_1, # of connection points: 3
#     Node 4, Type 0, BuildingBlock: CUQRIR_clean_linker_1, # of connection points: 3
#     Node 5, Type 0, BuildingBlock: CUQRIR_clean_linker_1, # of connection points: 3
#     Node 6, Type 0, BuildingBlock: CUQRIR_clean_linker_1, # of connection points: 3
#     Node 7, Type 0, BuildingBlock: CUQRIR_clean_linker_1, # of connection points: 3
#     Node 8, Type 1, BuildingBlock: MIDCAF_clean_sbu_0, # of connection points: 6
#     Node 9, Type 1, BuildingBlock: MIDCAF_clean_sbu_0, # of connection points: 6
#     Node 10, Type 1, BuildingBlock: MIDCAF_clean_sbu_0, # of connection points: 6
#     Node 11, Type 1, BuildingBlock: MIDCAF_clean_sbu_0, # of connection points: 6
#     Edge 12, Type (0, 1), BuildingBlock: EZIPEK_clean_linker_0, # of connection points: 2
#     Edge 13, Type (0, 1), BuildingBlock: EZIPEK_clean_linker_0, # of connection points: 2
#     Edge 14, Type (0, 1), BuildingBlock: EZIPEK_clean_linker_0, # of connection points: 2
#     Edge 15, Type (0, 1), BuildingBlock: EZIPEK_clean_linker_0, # of connection points: 2
#     Edge 16, Type (0, 1), BuildingBlock: EZIPEK_clean_linker_0, # of connection points: 2
#     Edge 17, Type (0, 1), BuildingBlock: EZIPEK_clean_linker_0, # of connection points: 2
#     Edge 18, Type (0, 1), BuildingBlock: EZIPEK_clean_linker_0, # of connection points: 2
#     Edge 19, Type (0, 1), BuildingBlock: EZIPEK_clean_linker_0, # of connection points: 2
#     Edge 20, Type (0, 1), BuildingBlock: EZIPEK_clean_linker_0, # of connection points: 2
#     Edge 21, Type (0, 1), BuildingBlock: EZIPEK_clean_linker_0, # of connection points: 2
#     Edge 22, Type (0, 1), BuildingBlock: EZIPEK_clean_linker_0, # of connection points: 2
#     Edge 23, Type (0, 1), BuildingBlock: EZIPEK_clean_linker_0, # of connection points: 2
#     Edge 24, Type (0, 1), BuildingBlock: EZIPEK_clean_linker_0, # of connection points: 2
#     Edge 25, Type (0, 1), BuildingBlock: EZIPEK_clean_linker_0, # of connection points: 2
#     Edge 26, Type (0, 1), BuildingBlock: EZIPEK_clean_linker_0, # of connection points: 2
#     Edge 27, Type (0, 1), BuildingBlock: EZIPEK_clean_linker_0, # of connection points: 2
#     Edge 28, Type (0, 1), BuildingBlock: EZIPEK_clean_linker_0, # of connection points: 2
#     Edge 29, Type (0, 1), BuildingBlock: EZIPEK_clean_linker_0, # of connection points: 2
#     Edge 30, Type (0, 1), BuildingBlock: EZIPEK_clean_linker_0, # of connection points: 2
#     Edge 31, Type (0, 1), BuildingBlock: EZIPEK_clean_linker_0, # of connection points: 2
#     Edge 32, Type (0, 1), BuildingBlock: EZIPEK_clean_linker_0, # of connection points: 2
#     Edge 33, Type (0, 1), BuildingBlock: EZIPEK_clean_linker_0, # of connection points: 2
#     Edge 34, Type (0, 1), BuildingBlock: EZIPEK_clean_linker_0, # of connection points: 2
#     Edge 35, Type (0, 1), BuildingBlock: EZIPEK_clean_linker_0, # of connection points: 2
# Relax obj value: 0.107
# Max RMSD: 0.207
# Mean RMSD: 0.151
data_MOF--net-pyr--node1-MIDCAF_clean_sbu_0--node2-CUQRIR_clean_linker_1--edge1-EZIPEK_clean_linker_0
_symmetry_space_group_name_H-M    P1
_symmetry_Int_Tables_number       1
_symmetry_cell_setting            triclinic
loop_
_symmetry_equiv_pos_as_xyz
'x, y, z'
_cell_length_a     23.324188
_cell_length_b     23.238627
_cell_length_c     22.814703
_cell_angle_alpha  88.222091
_cell_angle_beta   92.089216
_cell_angle_gamma 93.964521
loop_
_atom_site_label
_atom_site_type_symbol
_atom_site_fract_x
_atom_site_fract_y
_atom_site_fract_z
_atom_type_partial_charge
C0 C 0.20236 0.28656 0.26449 0.0
N1 N 0.22978 0.2373 0.27431 0.0
N2 N 0.22049 0.31492 0.21521 0.0
C3 C 0.15416 0.30502 0.30034 0.0
C4 C 0.26273 0.28306 0.19704 0.0
N5 N 0.26879 0.23581 0.23284 0.0
C6 C 0.29472 0.2954 0.14152 0.0
H7 H 0.11262 0.29644 0.27587 0.0
H8 H 0.15966 0.3521 0.30741 0.0
H9 H 0.15256 0.28202 0.34366 0.0
H10 H 0.27783 0.33222 0.11578 0.0
H11 H 0.29165 0.25636 0.11446 0.0
H12 H 0.34087 0.30581 0.15268 0.0
C13 C 0.26616 0.78514 0.72149 0.0
N14 N 0.26807 0.83122 0.75699 0.0
N15 N 0.30851 0.75008 0.73612 0.0
C16 C 0.22663 0.77735 0.66798 0.0
C17 C 0.33521 0.77476 0.7836 0.0
N18 N 0.31227 0.82522 0.79587 0.0
C19 C 0.38605 0.7505 0.81583 0.0
H20 H 0.23701 0.74024 0.64187 0.0
H21 H 0.22912 0.81716 0.63977 0.0
H22 H 0.18166 0.76938 0.68188 0.0
H23 H 0.42523 0.76082 0.79034 0.0
H24 H 0.37964 0.70282 0.81974 0.0
H25 H 0.39281 0.76821 0.86034 0.0
C26 C 0.66326 0.28615 0.79808 0.0
N27 N 0.69316 0.28645 0.85024 0.0
N28 N 0.68297 0.32995 0.76236 0.0
C29 C 0.60972 0.24794 0.78486 0.0
C30 C 0.72859 0.35451 0.79268 0.0
N31 N 0.73352 0.33034 0.84737 0.0
C32 C 0.76533 0.40575 0.76991 0.0
H33 H 0.58719 0.26175 0.74368 0.0
H34 H 0.5801 0.24801 0.82185 0.0
H35 H 0.62151 0.203 0.77988 0.0
H36 H 0.7402 0.44463 0.76838 0.0
H37 H 0.77751 0.3982 0.72439 0.0
H38 H 0.80509 0.41396 0.79741 0.0
C39 C 0.7742 0.71469 0.26557 0.0
N40 N 0.82542 0.74643 0.26636 0.0
N41 N 0.74004 0.73117 0.30767 0.0
C42 C 0.75965 0.66346 0.2275 0.0
C43 C 0.7709 0.77591 0.33256 0.0
N44 N 0.82392 0.7843 0.30955 0.0
C45 C 0.75023 0.80849 0.38296 0.0
H46 H 0.74957 0.67889 0.18206 0.0
H47 H 0.72173 0.63668 0.24311 0.0
H48 H 0.79704 0.6365 0.22623 0.0
H49 H 0.70444 0.81734 0.37506 0.0
H50 H 0.77586 0.85002 0.38906 0.0
H51 H 0.75303 0.78154 0.42383 0.0
C52 C 0.86786 0.92601 0.95929 0.0
N53 N 0.9084 0.90416 0.92703 0.0
N54 N 0.84836 0.97411 0.93303 0.0
C55 C 0.84357 0.89805 0.01429 0.0
C56 C 0.8801 0.98257 0.88479 0.0
N57 N 0.91664 0.94009 0.88066 0.0
C58 C 0.87116 0.02894 0.83856 0.0
H59 H 0.80184 0.87433 0.00327 0.0
H60 H 0.8352 0.9316 0.04588 0.0
H61 H 0.87308 0.86745 0.03526 0.0
H62 H 0.91318 0.05073 0.82684 0.0
H63 H 0.84271 0.06139 0.85376 0.0
H64 H 0.85157 0.00896 0.79837 0.0
C65 C 0.70172 0.18197 0.47569 0.0
N66 N 0.70001 0.13679 0.43906 0.0
N67 N 0.65039 0.2059 0.47503 0.0
C68 C 0.75395 0.20334 0.51116 0.0
C69 C 0.61678 0.17294 0.43811 0.0
N70 N 0.64671 0.13171 0.41504 0.0
C71 C 0.55628 0.18585 0.41907 0.0
H72 H 0.76279 0.17125 0.5468 0.0
H73 H 0.74769 0.24538 0.5309 0.0
H74 H 0.79189 0.20751 0.48298 0.0
H75 H 0.5579 0.22281 0.38704 0.0
H76 H 0.53225 0.19835 0.45722 0.0
H77 H 0.53274 0.14819 0.39839 0.0
C78 C 0.3947 0.56892 0.15014 0.0
N79 N 0.42844 0.61901 0.15263 0.0
N80 N 0.35651 0.57049 0.10435 0.0
C81 C 0.39424 0.52057 0.19575 0.0
C82 C 0.37008 0.62152 0.07678 0.0
N83 N 0.41221 0.65193 0.10678 0.0
C84 C 0.33689 0.64449 0.02417 0.0
H85 H 0.4367 0.50178 0.19831 0.0
H86 H 0.36088 0.48577 0.18496 0.0
H87 H 0.38598 0.5372 0.23941 0.0
H88 H 0.29789 0.66377 0.03902 0.0
H89 H 0.32277 0.60894 0.99448 0.0
H90 H 0.36314 0.67802 0.99949 0.0
C91 C 0.0635 0.36698 0.65668 0.0
N92 N 0.10951 0.36987 0.62188 0.0
N93 N 0.06415 0.41414 0.68993 0.0
C94 C 0.02039 0.31603 0.6614 0.0
C95 C 0.11189 0.44636 0.67378 0.0
N96 N 0.14012 0.4193 0.63281 0.0
C97 C 0.13213 0.50278 0.70059 0.0
H98 H 0.98324 0.3259 0.68747 0.0
H99 H 0.04164 0.27915 0.68271 0.0
H100 H 0.00486 0.30278 0.61697 0.0
H101 H 0.14772 0.49445 0.7464 0.0
H102 H 0.09557 0.53073 0.70234 0.0
H103 H 0.16726 0.5256 0.67571 0.0
Zn104 Zn 0.97915 0.09082 0.58775 0.0
Zn105 Zn 0.10942 0.95365 0.48141 0.0
Zn106 Zn 0.03748 0.02419 0.5295 0.0
C107 C 0.13976 0.06608 0.44105 0.0
C108 C 0.99366 0.92753 0.43844 0.0
O109 O 0.03266 0.99305 0.62386 0.0
O110 O 0.97204 0.04827 0.66377 0.0
C111 C 0.07111 0.15971 0.54547 0.0
O112 O 0.10244 0.07751 0.47877 0.0
O113 O 0.14976 0.01455 0.43163 0.0
O114 O 0.04279 0.90752 0.44306 0.0
O115 O 0.98301 0.97303 0.46602 0.0
O116 O 0.0323 0.16032 0.58248 0.0
O117 O 0.0781 0.11342 0.51763 0.0
O118 O 0.94757 0.01604 0.4887 0.0
O119 O 0.91065 0.08672 0.53455 0.0
C120 C 0.90572 0.04846 0.49632 0.0
O121 O 0.0815 0.97396 0.60142 0.0
O122 O 0.1484 0.92972 0.55747 0.0
C123 C 0.0027 0.00568 0.66767 0.0
C124 C 0.12586 0.94352 0.6041 0.0
Zn125 Zn 0.44737 0.09138 0.01087 0.0
Zn126 Zn 0.57824 0.95363 0.12031 0.0
Zn127 Zn 0.51231 0.02157 0.07083 0.0
C128 C 0.6429 0.00383 0.03589 0.0
C129 C 0.48974 0.88385 0.08127 0.0
O130 O 0.46835 0.06888 0.1393 0.0
O131 O 0.40542 0.11186 0.08084 0.0
C132 C 0.56088 0.1291 0.98894 0.0
O133 O 0.5993 0.03512 0.03401 0.0
O134 O 0.64316 0.95905 0.06834 0.0
O135 O 0.53002 0.88273 0.11942 0.0
O136 O 0.47836 0.93152 0.05421 0.0
O137 O 0.51096 0.14677 0.98244 0.0
O138 O 0.56863 0.08115 0.01702 0.0
O139 O 0.44895 0.96776 0.01437 0.0
O140 O 0.40929 0.0332 0.95629 0.0
C141 C 0.41518 0.98089 0.97039 0.0
O142 O 0.51815 0.04302 0.16567 0.0
O143 O 0.59104 0.99118 0.19415 0.0
C144 C 0.42445 0.09974 0.13197 0.0
C145 C 0.55669 0.02866 0.20461 0.0
Zn146 Zn 0.55233 0.5982 0.57527 0.0
Zn147 Zn 0.42716 0.44643 0.42924 0.0
Zn148 Zn 0.48336 0.52485 0.50694 0.0
C149 C 0.51951 0.39424 0.48774 0.0
C150 C 0.46891 0.54546 0.36571 0.0
O151 O 0.42328 0.56389 0.56419 0.0
O152 O 0.48328 0.62971 0.60663 0.0
C153 C 0.58023 0.48668 0.60297 0.0
O154 O 0.52206 0.44141 0.51606 0.0
O155 O 0.4839 0.38628 0.44522 0.0
O156 O 0.43735 0.49959 0.35879 0.0
O157 O 0.48999 0.55906 0.41671 0.0
O158 O 0.59027 0.53705 0.62159 0.0
O159 O 0.54398 0.47647 0.56016 0.0
O160 O 0.5306 0.58965 0.45081 0.0
O161 O 0.59342 0.6379 0.5092 0.0
C162 C 0.57314 0.62734 0.45833 0.0
O163 O 0.3936 0.51642 0.53383 0.0
O164 O 0.35649 0.446 0.47723 0.0
C165 C 0.43304 0.60667 0.59861 0.0
C166 C 0.35165 0.48032 0.5185 0.0
Zn167 Zn 0.0672 0.59811 0.9335 0.0
Zn168 Zn 0.94437 0.4959 0.11138 0.0
Zn169 Zn 0.99809 0.54875 0.01666 0.0
C170 C 0.05659 0.4668 0.12175 0.0
C171 C 0.89271 0.45242 0.00513 0.0
O172 O 0.983 0.64255 0.00665 0.0
O173 O 0.03846 0.67559 0.9341 0.0
C174 C 0.13771 0.55052 0.01541 0.0
O175 O 0.05789 0.5016 0.07658 0.0
O176 O 0.00992 0.45406 0.14687 0.0
O177 O 0.88665 0.45121 0.06002 0.0
O178 O 0.93247 0.48553 0.98128 0.0
O179 O 0.14278 0.58289 0.97028 0.0
O180 O 0.088 0.53477 0.03526 0.0
O181 O 0.97031 0.50421 0.93521 0.0
O182 O 0.03491 0.54408 0.87455 0.0
C183 C 0.99336 0.50785 0.88462 0.0
O184 O 0.96132 0.62077 0.0619 0.0
O185 O 0.9291 0.57357 0.14134 0.0
C186 C 1.00116 0.6837 0.97106 0.0
C187 C 0.93848 0.62055 0.1126 0.0
C188 C 0.24331 0.17667 0.36503 0.0
C189 C 0.20988 0.19065 0.31408 0.0
C190 C 0.12803 0.12963 0.35211 0.0
C191 C 0.16333 0.11187 0.40024 0.0
N192 N 0.25611 0.1127 0.45012 0.0
N193 N 0.12152 0.17589 0.25604 0.0
C194 C 0.22161 0.13342 0.40579 0.0
C195 C 0.15258 0.16558 0.30679 0.0
N196 N 0.29412 0.20758 0.37636 0.0
N197 N 0.07053 0.11287 0.35011 0.0
H198 H 0.13619 0.20412 0.22277 0.0
H199 H 0.08287 0.15328 0.24457 0.0
H200 H 0.05103 0.08438 0.38075 0.0
H201 H 0.04092 0.13046 0.32068 0.0
H202 H 0.31827 0.20375 0.4154 0.0
H203 H 0.30933 0.24112 0.34863 0.0
H204 H 0.30045 0.12185 0.45289 0.0
H205 H 0.24072 0.08342 0.48243 0.0
C206 C 0.39489 0.88963 0.83446 0.0
C207 C 0.33702 0.86565 0.83947 0.0
C208 C 0.33226 0.91322 0.93421 0.0
C209 C 0.38995 0.93613 0.92948 0.0
N210 N 0.48008 0.93698 0.88141 0.0
N211 N 0.26171 0.83702 0.90525 0.0
C212 C 0.42243 0.92133 0.88151 0.0
C213 C 0.3085 0.87289 0.89236 0.0
N214 N 0.42348 0.88257 0.7842 0.0
N215 N 0.30017 0.92966 0.97886 0.0
H216 H 0.24894 0.80205 0.87928 0.0
H217 H 0.24123 0.8368 0.94508 0.0
H218 H 0.31705 0.95686 0.0117 0.0
H219 H 0.25613 0.91908 0.98108 0.0
H220 H 0.46284 0.90397 0.77467 0.0
H221 H 0.40565 0.85899 0.74917 0.0
H222 H 0.50807 0.92205 0.85175 0.0
H223 H 0.50125 0.96137 0.91426 0.0
C224 C 0.6017 0.38961 0.73419 0.0
C225 C 0.64997 0.36005 0.71814 0.0
C226 C 0.64887 0.40908 0.62179 0.0
C227 C 0.60082 0.43808 0.6383 0.0
N228 N 0.52011 0.44198 0.70072 0.0
N229 N 0.70991 0.32989 0.64334 0.0
C230 C 0.57338 0.4235 0.69135 0.0
C231 C 0.67018 0.36579 0.66044 0.0
N232 N 0.5849 0.38863 0.79098 0.0
N233 N 0.67519 0.42446 0.57059 0.0
H234 H 0.72583 0.29818 0.67172 0.0
H235 H 0.72317 0.32833 0.60036 0.0
H236 H 0.65971 0.45551 0.54118 0.0
H237 H 0.71364 0.40859 0.55867 0.0
H238 H 0.55493 0.41556 0.80579 0.0
H239 H 0.60368 0.36477 0.82478 0.0
H240 H 0.4955 0.42743 0.73611 0.0
H241 H 0.49797 0.46719 0.67005 0.0
C242 C 0.91882 0.70728 0.24272 0.0
C243 C 0.87029 0.73812 0.22511 0.0
C244 C 0.88056 0.70804 0.12324 0.0
C245 C 0.92642 0.67454 0.14253 0.0
N246 N 0.00352 0.66199 0.21322 0.0
N247 N 0.81494 0.78043 0.14606 0.0
C248 C 0.95084 0.68198 0.19964 0.0
C249 C 0.85598 0.74405 0.164 0.0
N250 N 0.9306 0.69613 0.30059 0.0
N251 N 0.85712 0.70142 0.06797 0.0
H252 H 0.79245 0.80275 0.1757 0.0
H253 H 0.80569 0.79092 0.10219 0.0
H254 H 0.87397 0.67492 0.03786 0.0
H255 H 0.81967 0.71973 0.05285 0.0
H256 H 0.96139 0.66835 0.31586 0.0
H257 H 0.9058 0.7105 0.33298 0.0
H258 H 0.02569 0.66985 0.25297 0.0
H259 H 0.02722 0.64295 0.18197 0.0
C260 C 0.29252 0.13836 0.20134 0.0
C261 C 0.31029 0.19265 0.22524 0.0
C262 C 0.41122 0.17464 0.20677 0.0
C263 C 0.39242 0.1215 0.18131 0.0
N264 N 0.31937 0.04433 0.17261 0.0
N265 N 0.38725 0.25847 0.26001 0.0
C266 C 0.33446 0.10031 0.18597 0.0
C267 C 0.37016 0.20884 0.23193 0.0
N268 N 0.23601 0.12583 0.18693 0.0
N269 N 0.4676 0.19405 0.20302 0.0
H270 H 0.358 0.28622 0.27484 0.0
H271 H 0.42988 0.27064 0.27138 0.0
H272 H 0.4981 0.16878 0.18632 0.0
H273 H 0.48385 0.23514 0.2145 0.0
H274 H 0.22072 0.08927 0.16441 0.0
H275 H 0.20551 0.1556 0.19138 0.0
H276 H 0.27855 0.02459 0.17928 0.0
H277 H 0.34983 0.01636 0.16056 0.0
C278 C 0.25131 0.9266 0.70929 0.0
C279 C 0.23114 0.87885 0.74524 0.0
C280 C 0.13376 0.88686 0.70069 0.0
C281 C 0.15599 0.93025 0.66127 0.0
N282 N 0.22839 0.00667 0.64358 0.0
N283 N 0.14976 0.82689 0.78796 0.0
C284 C 0.21219 0.95552 0.67137 0.0
C285 C 0.17066 0.86535 0.7465 0.0
N286 N 0.30863 0.94077 0.70683 0.0
N287 N 0.07942 0.86247 0.69108 0.0
H288 H 0.17688 0.80662 0.81792 0.0
H289 H 0.10609 0.81836 0.79502 0.0
H290 H 0.05225 0.87661 0.65713 0.0
H291 H 0.06237 0.82644 0.71435 0.0
H292 H 0.32709 0.96908 0.67543 0.0
H293 H 0.33765 0.92203 0.73529 0.0
H294 H 0.26723 0.03003 0.65287 0.0
H295 H 0.20022 0.02849 0.61564 0.0
C296 C 0.7587 0.41384 0.91152 0.0
C297 C 0.7684 0.35644 0.89497 0.0
C298 C 0.85893 0.36119 0.95426 0.0
C299 C 0.84999 0.41888 0.96809 0.0
N300 N 0.78701 0.49636 0.97118 0.0
N301 N 0.83224 0.27996 0.89248 0.0
C302 C 0.79856 0.44402 0.95001 0.0
C303 C 0.81934 0.33095 0.9151 0.0
N304 N 0.71337 0.44133 0.88685 0.0
N305 N 0.90462 0.33492 0.97979 0.0
H306 H 0.80512 0.25827 0.86217 0.0
H307 H 0.87142 0.26161 0.89964 0.0
H308 H 0.93474 0.35616 0.00796 0.0
H309 H 0.91049 0.29114 0.97677 0.0
H310 H 0.70883 0.4854 0.88935 0.0
H311 H 0.68165 0.42112 0.86008 0.0
H312 H 0.74702 0.51361 0.96677 0.0
H313 H 0.81617 0.52115 0.99735 0.0
C314 C 0.63751 0.71789 0.33206 0.0
C315 C 0.69336 0.69738 0.33487 0.0
C316 C 0.6603 0.61885 0.40192 0.0
C317 C 0.60868 0.64624 0.40818 0.0
N318 N 0.54473 0.71902 0.37755 0.0
N319 N 0.75942 0.62928 0.37478 0.0
C320 C 0.59573 0.69453 0.37199 0.0
C321 C 0.70496 0.64745 0.36961 0.0
N322 N 0.62527 0.76002 0.29146 0.0
N323 N 0.66645 0.56528 0.427 0.0
H324 H 0.79365 0.64768 0.35122 0.0
H325 H 0.77177 0.59812 0.40563 0.0
H326 H 0.63439 0.54318 0.45128 0.0
H327 H 0.70062 0.5404 0.41886 0.0
H328 H 0.58437 0.77448 0.28358 0.0
H329 H 0.65593 0.77745 0.26247 0.0
H330 H 0.53441 0.75743 0.35636 0.0
H331 H 0.51316 0.70139 0.40539 0.0
C332 C 0.19043 0.41456 0.20281 0.0
C333 C 0.18891 0.35757 0.18241 0.0
C334 C 0.11287 0.38068 0.11004 0.0
C335 C 0.10718 0.43352 0.13798 0.0
N336 N 0.13927 0.5013 0.21187 0.0
N337 N 0.14564 0.28424 0.11906 0.0
C338 C 0.14611 0.45105 0.18426 0.0
C339 C 0.14997 0.34029 0.13593 0.0
N340 N 0.23421 0.43309 0.24037 0.0
N341 N 0.08242 0.36888 0.05896 0.0
H342 H 0.17206 0.25321 0.13637 0.0
H343 H 0.11309 0.26738 0.09079 0.0
H344 H 0.05396 0.39697 0.03931 0.0
H345 H 0.08929 0.33387 0.0333 0.0
H346 H 0.24115 0.47564 0.25335 0.0
H347 H 0.26654 0.40637 0.25435 0.0
H348 H 0.16265 0.51384 0.24964 0.0
H349 H 0.1079 0.52926 0.1984 0.0
C350 C 0.6805 0.18656 0.88896 0.0
C351 C 0.67898 0.24659 0.89872 0.0
C352 C 0.61983 0.22245 0.98404 0.0
C353 C 0.61012 0.16521 0.96505 0.0
N354 N 0.62862 0.09277 0.89613 0.0
N355 N 0.63887 0.32118 0.95233 0.0
C356 C 0.64104 0.14657 0.91766 0.0
C357 C 0.64774 0.26448 0.9465 0.0
N358 N 0.71622 0.16852 0.84829 0.0
N359 N 0.60064 0.23699 0.03708 0.0
H360 H 0.65416 0.35242 0.92263 0.0
H361 H 0.61132 0.33605 0.98257 0.0
H362 H 0.58002 0.20671 0.06538 0.0
H363 H 0.61063 0.27723 0.05522 0.0
H364 H 0.72391 0.1253 0.84347 0.0
H365 H 0.74071 0.19731 0.82183 0.0
H366 H 0.64514 0.07898 0.85757 0.0
H367 H 0.59838 0.06305 0.9145 0.0
C368 C 0.89556 0.86955 0.31213 0.0
C369 C 0.87158 0.81769 0.33854 0.0
C370 C 0.91946 0.84534 0.43296 0.0
C371 C 0.94761 0.89387 0.40498 0.0
N372 N 0.96797 0.94998 0.31682 0.0
N373 N 0.86726 0.75259 0.42343 0.0
C374 C 0.93739 0.90526 0.34411 0.0
C375 C 0.88584 0.80457 0.39877 0.0
N376 N 0.87577 0.88639 0.2578 0.0
N377 N 0.92351 0.8391 0.49279 0.0
H378 H 0.8415 0.72187 0.40073 0.0
H379 H 0.88149 0.73759 0.46453 0.0
H380 H 0.94784 0.86815 0.51925 0.0
H381 H 0.89865 0.80847 0.51677 0.0
H382 H 0.88679 0.92647 0.23814 0.0
H383 H 0.84436 0.86178 0.23449 0.0
H384 H 0.96731 0.95683 0.27148 0.0
H385 H 0.99675 0.97843 0.33949 0.0
C386 C 0.32943 0.65068 0.71086 0.0
C387 C 0.33286 0.71073 0.69753 0.0
C388 C 0.37983 0.69365 0.60612 0.0
C389 C 0.3862 0.63585 0.62483 0.0
N390 N 0.36892 0.55837 0.69574 0.0
N391 N 0.36799 0.79079 0.63571 0.0
C392 C 0.36064 0.61362 0.67703 0.0
C393 C 0.35942 0.73262 0.64568 0.0
N394 N 0.29645 0.62956 0.75585 0.0
N395 N 0.39421 0.71123 0.55054 0.0
H396 H 0.35524 0.82109 0.66436 0.0
H397 H 0.39246 0.80905 0.60174 0.0
H398 H 0.4089 0.68295 0.52061 0.0
H399 H 0.38593 0.75164 0.53241 0.0
H400 H 0.28792 0.58565 0.76487 0.0
H401 H 0.27411 0.65644 0.78137 0.0
H402 H 0.3563 0.54122 0.73634 0.0
H403 H 0.39133 0.53061 0.67143 0.0
C404 C 0.92919 0.90962 0.77929 0.0
C405 C 0.95334 0.93508 0.83127 0.0
C406 C 0.0289 0.98631 0.77303 0.0
C407 C 0.99878 0.96831 0.72141 0.0
N408 N 0.93324 0.89951 0.67356 0.0
N409 N 0.02611 0.99772 0.87812 0.0
C410 C 0.9536 0.92479 0.72418 0.0
C411 C 0.00472 0.97166 0.82846 0.0
N412 N 0.8789 0.87636 0.7821 0.0
N413 N 0.07987 0.01844 0.76835 0.0
H414 H 0.00723 0.98994 0.91842 0.0
H415 H 0.05983 0.02943 0.87905 0.0
H416 H 0.09737 0.02913 0.72761 0.0
H417 H 0.10694 0.02986 0.80397 0.0
H418 H 0.85473 0.86134 0.74583 0.0
H419 H 0.85958 0.86654 0.82161 0.0
H420 H 0.90329 0.86423 0.67212 0.0
H421 H 0.95046 0.91096 0.6329 0.0
C422 C 0.62687 0.13807 0.3078 0.0
C423 C 0.62819 0.10409 0.36087 0.0
C424 C 0.5646 0.02929 0.31325 0.0
C425 C 0.56938 0.06036 0.25903 0.0
N426 N 0.61239 0.14041 0.20237 0.0
N427 N 0.59886 0.01731 0.41442 0.0
C428 C 0.6021 0.11391 0.25571 0.0
C429 C 0.59729 0.04944 0.36346 0.0
N430 N 0.64708 0.19464 0.30766 0.0
N431 N 0.5279 0.98089 0.31642 0.0
H432 H 0.62047 0.03254 0.45203 0.0
H433 H 0.582 0.97483 0.4187 0.0
H434 H 0.50284 0.96635 0.28028 0.0
H435 H 0.51857 0.9579 0.35515 0.0
H436 H 0.63987 0.22352 0.27275 0.0
H437 H 0.66794 0.21373 0.34391 0.0
H438 H 0.64236 0.17535 0.19675 0.0
H439 H 0.59372 0.12542 0.16301 0.0
C440 C 0.51158 0.59785 0.21505 0.0
C441 C 0.46646 0.63444 0.20227 0.0
C442 C 0.44152 0.63099 0.30505 0.0
C443 C 0.47822 0.58557 0.31517 0.0
N444 N 0.56316 0.54094 0.28861 0.0
N445 N 0.423 0.71397 0.24302 0.0
C446 C 0.5191 0.57467 0.2732 0.0
C447 C 0.44211 0.66027 0.24985 0.0
N448 N 0.5416 0.57999 0.16969 0.0
N449 N 0.40505 0.64495 0.34704 0.0
H450 H 0.43379 0.73947 0.20646 0.0
H451 H 0.40684 0.73616 0.27712 0.0
H452 H 0.40519 0.6257 0.38899 0.0
H453 H 0.37308 0.67367 0.33898 0.0
H454 H 0.57103 0.54831 0.17363 0.0
H455 H 0.53521 0.59702 0.1273 0.0
H456 H 0.59647 0.53399 0.26109 0.0
H457 H 0.56851 0.52372 0.33113 0.0
C458 C 0.04254 0.39801 0.79474 0.0
C459 C 0.02907 0.42341 0.73911 0.0
C460 C 0.96161 0.48383 0.78361 0.0
C461 C 0.98119 0.46407 0.83954 0.0
N462 N 0.02176 0.38908 0.89846 0.0
N463 N 0.96639 0.47814 0.67736 0.0
C464 C 0.01451 0.4156 0.84478 0.0
C465 C 0.98463 0.46181 0.7325 0.0
N466 N 0.08515 0.36055 0.80007 0.0
N467 N 0.92416 0.5265 0.78046 0.0
H468 H 0.98378 0.46246 0.63995 0.0
H469 H 0.93241 0.50416 0.66849 0.0
H470 H 0.90644 0.54116 0.81822 0.0
H471 H 0.91107 0.54725 0.74171 0.0
H472 H 0.1014 0.34499 0.84013 0.0
H473 H 0.1067 0.34733 0.76415 0.0
H474 H 0.04253 0.35111 0.90538 0.0
H475 H 0.00205 0.40287 0.93534 0.0
C476 C 0.79205 0.04 0.98623 0.0
C477 C 0.79418 0.99701 0.94405 0.0
C478 C 0.69033 0.97594 0.94704 0.0
C479 C 0.68946 0.01387 0.99432 0.0
N480 N 0.73286 0.09362 0.04808 0.0
N481 N 0.74577 0.93538 0.87244 0.0
C482 C 0.73825 0.05041 0.00985 0.0
C483 C 0.74309 0.96929 0.91996 0.0
N484 N 0.84219 0.06801 0.00564 0.0
N485 N 0.64115 0.94405 0.93075 0.0
H486 H 0.78422 0.9287 0.85279 0.0
H487 H 0.70996 0.91704 0.84971 0.0
H488 H 0.60145 0.95038 0.94831 0.0
H489 H 0.63936 0.91069 0.90127 0.0
H490 H 0.84529 0.09637 0.04018 0.0
H491 H 0.88151 0.06135 0.98736 0.0
H492 H 0.76587 0.12414 0.05921 0.0
H493 H 0.69335 0.10136 0.06534 0.0
C494 C 0.74987 0.05567 0.48638 0.0
C495 C 0.7444 0.09563 0.43832 0.0
C496 C 0.84362 0.07958 0.41152 0.0
C497 C 0.84983 0.04397 0.46245 0.0
N498 N 0.80501 0.98163 0.53499 0.0
N499 N 0.78213 0.13815 0.34936 0.0
C500 C 0.80095 0.02573 0.49449 0.0
C501 C 0.78979 0.10413 0.39827 0.0
N502 N 0.70887 0.051 0.5278 0.0
N503 N 0.89073 0.09285 0.3786 0.0
H504 H 0.74435 0.15844 0.34105 0.0
H505 H 0.8113 0.14398 0.31594 0.0
H506 H 0.92927 0.07327 0.38708 0.0
H507 H 0.89225 0.12291 0.34387 0.0
H508 H 0.71321 0.02754 0.56715 0.0
H509 H 0.6723 0.07445 0.52494 0.0
H510 H 0.76999 0.96289 0.55736 0.0
H511 H 0.84291 0.96039 0.54144 0.0
C512 C 0.25601 0.56984 0.13034 0.0
C513 C 0.29947 0.54317 0.10164 0.0
C514 C 0.2278 0.50013 0.03285 0.0
C515 C 0.1889 0.53929 0.05161 0.0
N516 N 0.1638 0.61082 0.11927 0.0
N517 N 0.3277 0.47621 0.03271 0.0
C518 C 0.20162 0.57278 0.1018 0.0
C519 C 0.28511 0.50458 0.05613 0.0
N520 N 0.26777 0.59486 0.18314 0.0
N521 N 0.20999 0.46007 0.99239 0.0
H522 H 0.36952 0.4789 0.05093 0.0
H523 H 0.32214 0.45176 0.99521 0.0
H524 H 0.16781 0.45651 0.97522 0.0
H525 H 0.23528 0.4278 0.97956 0.0
H526 H 0.23629 0.61025 0.2086 0.0
H527 H 0.30793 0.59516 0.20443 0.0
H528 H 0.17411 0.64171 0.15074 0.0
H529 H 0.12289 0.61413 0.10004 0.0
C530 C 0.24685 0.43219 0.63719 0.0
C531 C 0.19376 0.43982 0.60672 0.0
C532 C 0.24526 0.48822 0.52488 0.0
C533 C 0.29826 0.47371 0.55219 0.0
N534 N 0.34961 0.42597 0.63139 0.0
N535 N 0.14215 0.49359 0.53342 0.0
C536 C 0.29919 0.44479 0.60794 0.0
C537 C 0.19284 0.473 0.55362 0.0
N538 N 0.24738 0.41639 0.69531 0.0
N539 N 0.24519 0.5152 0.47076 0.0
H540 H 0.10437 0.48666 0.55648 0.0
H541 H 0.13827 0.52194 0.49754 0.0
H542 H 0.28292 0.53013 0.45036 0.0
H543 H 0.20819 0.52082 0.44494 0.0
H544 H 0.2848 0.41622 0.72164 0.0
H545 H 0.20996 0.40958 0.71884 0.0
H546 H 0.35167 0.39825 0.66805 0.0
H547 H 0.38921 0.43484 0.61208 0.0
C548 C 0.897 0.79705 0.92701 0.0
C549 C 0.93171 0.84854 0.93835 0.0
C550 C 0.00681 0.79074 0.98372 0.0
C551 C 0.97431 0.73959 0.9671 0.0
N552 N 0.89203 0.69365 0.9158 0.0
N553 N 0.00819 0.89397 0.9972 0.0
C554 C 0.92017 0.74262 0.93725 0.0
C555 C 0.98384 0.84531 0.97187 0.0
N556 N 0.84029 0.79983 0.91071 0.0
N557 N 0.06016 0.78703 0.00988 0.0
H558 H 0.98864 0.93296 0.99448 0.0
H559 H 0.04357 0.89452 0.02635 0.0
H560 H 0.07657 0.74773 0.02268 0.0
H561 H 0.08927 0.82247 0.0163 0.0
H562 H 0.81113 0.76384 0.9093 0.0
H563 H 0.82064 0.83847 0.90419 0.0
H564 H 0.85661 0.69419 0.88667 0.0
H565 H 0.90626 0.65246 0.92371 0.0
C566 C 0.38992 0.75447 0.10532 0.0
C567 C 0.42881 0.71174 0.09418 0.0
C568 C 0.49395 0.7847 0.04768 0.0
C569 C 0.45977 0.82795 0.06722 0.0
N570 N 0.37165 0.85655 0.10471 0.0
N571 N 0.50583 0.68243 0.0377 0.0
C572 C 0.40566 0.81344 0.0915 0.0
C573 C 0.47739 0.7258 0.06005 0.0
N574 N 0.33937 0.73823 0.13161 0.0
N575 N 0.54349 0.80085 0.01945 0.0
H576 H 0.49277 0.63901 0.04474 0.0
H577 H 0.53937 0.6889 0.0089 0.0
H578 H 0.55404 0.84374 0.00669 0.0
H579 H 0.57431 0.77271 0.00954 0.0
H580 H 0.30687 0.76551 0.13817 0.0
H581 H 0.32964 0.69625 0.14734 0.0
H582 H 0.33302 0.85044 0.12605 0.0
H583 H 0.38219 0.89967 0.0933 0.0
C584 C 0.15444 0.27758 0.61172 0.0
C585 C 0.12417 0.32335 0.58556 0.0
C586 C 0.08791 0.25932 0.50673 0.0
C587 C 0.10957 0.21261 0.53917 0.0
N588 N 0.18179 0.17867 0.60553 0.0
N589 N 0.06646 0.36024 0.5056 0.0
C590 C 0.15032 0.22289 0.58519 0.0
C591 C 0.09412 0.31544 0.53074 0.0
N592 N 0.18075 0.28437 0.66559 0.0
N593 N 0.05901 0.24849 0.45474 0.0
H594 H 0.06842 0.40052 0.52448 0.0
H595 H 0.04046 0.3575 0.46766 0.0
H596 H 0.05472 0.20688 0.43827 0.0
H597 H 0.04305 0.28007 0.42658 0.0
H598 H 0.19878 0.25122 0.69006 0.0
H599 H 0.18042 0.32264 0.68779 0.0
H600 H 0.21523 0.1834 0.63688 0.0
H601 H 0.17728 0.13831 0.58626 0.0
C602 C 0.64639 0.31013 0.45537 0.0
C603 C 0.63645 0.2618 0.49387 0.0
C604 C 0.56162 0.3102 0.54196 0.0
C605 C 0.56543 0.35393 0.49731 0.0
N606 N 0.62147 0.40644 0.42415 0.0
N607 N 0.59745 0.22018 0.58191 0.0
C608 C 0.61144 0.35752 0.4582 0.0
C609 C 0.59881 0.26408 0.54075 0.0
N610 N 0.68661 0.3085 0.4136 0.0
N611 N 0.52145 0.31228 0.58384 0.0
H612 H 0.62507 0.18677 0.58044 0.0
H613 H 0.57172 0.2178 0.61827 0.0
H614 H 0.49485 0.34645 0.58572 0.0
H615 H 0.51463 0.2812 0.61705 0.0
H616 H 0.6913 0.33827 0.37882 0.0
H617 H 0.71526 0.27611 0.41325 0.0
H618 H 0.65703 0.41432 0.39814 0.0
H619 H 0.59625 0.44173 0.42535 0.0
loop_
_geom_bond_atom_site_label_1
_geom_bond_atom_site_label_2
_geom_bond_distance
_geom_bond_site_symmetry_2
_ccdc_geom_bond_type
C0 N1 1.317 . S
C0 N2 1.348 . S
C0 C3 1.485 . S
N1 C0 1.317 . S
N1 N5 1.370 . S
N2 C0 1.348 . S
N2 C4 1.346 . S
C3 C0 1.485 . S
C3 H7 0.960 . S
C3 H8 0.961 . S
C3 H9 0.960 . S
C4 N2 1.346 . S
C4 N5 1.307 . S
C4 C6 1.486 . S
N5 N1 1.370 . S
N5 C4 1.307 . S
C6 C4 1.486 . S
C6 H10 0.960 . S
C6 H11 0.960 . S
C6 H12 0.959 . S
H7 C3 0.960 . S
H8 C3 0.961 . S
H9 C3 0.960 . S
H10 C6 0.960 . S
H11 C6 0.960 . S
H12 C6 0.959 . S
C13 N14 1.317 . S
C13 N15 1.348 . S
C13 C16 1.485 . S
N14 C13 1.317 . S
N14 N18 1.370 . S
N15 C13 1.348 . S
N15 C17 1.346 . S
C16 C13 1.485 . S
C16 H20 0.960 . S
C16 H21 0.961 . S
C16 H22 0.960 . S
C17 N15 1.346 . S
C17 N18 1.307 . S
C17 C19 1.486 . S
N18 N14 1.370 . S
N18 C17 1.307 . S
C19 C17 1.486 . S
C19 H23 0.960 . S
C19 H24 0.960 . S
C19 H25 0.959 . S
H20 C16 0.960 . S
H21 C16 0.961 . S
H22 C16 0.960 . S
H23 C19 0.960 . S
H24 C19 0.960 . S
H25 C19 0.959 . S
C26 N27 1.317 . S
C26 N28 1.348 . S
C26 C29 1.485 . S
N27 C26 1.317 . S
N27 N31 1.370 . S
N28 C26 1.348 . S
N28 C30 1.346 . S
C29 C26 1.485 . S
C29 H33 0.960 . S
C29 H34 0.961 . S
C29 H35 0.960 . S
C30 N28 1.346 . S
C30 N31 1.307 . S
C30 C32 1.486 . S
N31 N27 1.370 . S
N31 C30 1.307 . S
C32 C30 1.486 . S
C32 H36 0.960 . S
C32 H37 0.960 . S
C32 H38 0.959 . S
H33 C29 0.960 . S
H34 C29 0.961 . S
H35 C29 0.960 . S
H36 C32 0.960 . S
H37 C32 0.960 . S
H38 C32 0.959 . S
C39 N40 1.317 . S
C39 N41 1.348 . S
C39 C42 1.485 . S
N40 C39 1.317 . S
N40 N44 1.370 . S
N41 C39 1.348 . S
N41 C43 1.346 . S
C42 C39 1.485 . S
C42 H46 0.960 . S
C42 H47 0.961 . S
C42 H48 0.960 . S
C43 N41 1.346 . S
C43 N44 1.307 . S
C43 C45 1.486 . S
N44 N40 1.370 . S
N44 C43 1.307 . S
C45 C43 1.486 . S
C45 H49 0.960 . S
C45 H50 0.960 . S
C45 H51 0.959 . S
H46 C42 0.960 . S
H47 C42 0.961 . S
H48 C42 0.960 . S
H49 C45 0.960 . S
H50 C45 0.960 . S
H51 C45 0.959 . S
C52 N53 1.317 . S
C52 N54 1.348 . S
C52 C55 1.485 1_556 S
N53 C52 1.317 . S
N53 N57 1.370 . S
N54 C52 1.348 . S
N54 C56 1.346 . S
C55 C52 1.485 1_554 S
C55 H59 0.960 . S
C55 H60 0.961 . S
C55 H61 0.960 . S
C56 N54 1.346 . S
C56 N57 1.307 . S
C56 C58 1.486 1_565 S
N57 N53 1.370 . S
N57 C56 1.307 . S
C58 C56 1.486 1_545 S
C58 H62 0.960 . S
C58 H63 0.960 . S
C58 H64 0.959 . S
H59 C55 0.960 . S
H60 C55 0.961 . S
H61 C55 0.960 . S
H62 C58 0.960 . S
H63 C58 0.960 . S
H64 C58 0.959 . S
C65 N66 1.317 . S
C65 N67 1.348 . S
C65 C68 1.485 . S
N66 C65 1.317 . S
N66 N70 1.370 . S
N67 C65 1.348 . S
N67 C69 1.346 . S
C68 C65 1.485 . S
C68 H72 0.960 . S
C68 H73 0.961 . S
C68 H74 0.960 . S
C69 N67 1.346 . S
C69 N70 1.307 . S
C69 C71 1.486 . S
N70 N66 1.370 . S
N70 C69 1.307 . S
C71 C69 1.486 . S
C71 H75 0.960 . S
C71 H76 0.960 . S
C71 H77 0.959 . S
H72 C68 0.960 . S
H73 C68 0.961 . S
H74 C68 0.960 . S
H75 C71 0.960 . S
H76 C71 0.960 . S
H77 C71 0.959 . S
C78 N79 1.317 . S
C78 N80 1.348 . S
C78 C81 1.485 . S
N79 C78 1.317 . S
N79 N83 1.370 . S
N80 C78 1.348 . S
N80 C82 1.346 . S
C81 C78 1.485 . S
C81 H85 0.960 . S
C81 H86 0.961 . S
C81 H87 0.960 . S
C82 N80 1.346 . S
C82 N83 1.307 . S
C82 C84 1.486 . S
N83 N79 1.370 . S
N83 C82 1.307 . S
C84 C82 1.486 . S
C84 H88 0.960 . S
C84 H89 0.960 1_554 S
C84 H90 0.959 . S
H85 C81 0.960 . S
H86 C81 0.961 . S
H87 C81 0.960 . S
H88 C84 0.960 . S
H89 C84 0.960 1_556 S
H90 C84 0.959 . S
C91 N92 1.317 . S
C91 N93 1.348 . S
C91 C94 1.485 1_455 S
N92 C91 1.317 . S
N92 N96 1.370 . S
N93 C91 1.348 . S
N93 C95 1.346 . S
C94 C91 1.485 1_655 S
C94 H98 0.960 . S
C94 H99 0.961 . S
C94 H100 0.960 1_655 S
C95 N93 1.346 . S
C95 N96 1.307 . S
C95 C97 1.486 . S
N96 N92 1.370 . S
N96 C95 1.307 . S
C97 C95 1.486 . S
C97 H101 0.960 . S
C97 H102 0.960 . S
C97 H103 0.959 . S
H98 C94 0.960 . S
H99 C94 0.961 . S
H100 C94 0.960 1_455 S
H101 C97 0.960 . S
H102 C97 0.960 . S
H103 C97 0.959 . S
Zn104 O110 1.920 . S
Zn104 O116 1.898 . S
Zn104 O119 1.905 . S
Zn105 O113 1.905 1_565 S
Zn105 O114 1.898 . S
Zn105 O122 1.920 . S
Zn106 O109 2.076 1_445 S
Zn106 O112 2.114 . S
Zn106 O115 2.120 1_545 S
Zn106 O117 2.120 . S
Zn106 O118 2.114 1_455 S
Zn106 O121 2.080 . S
C107 O112 1.166 . S
C107 O113 1.182 . S
C108 O114 1.177 . S
C108 O115 1.299 . S
O109 Zn106 2.076 1_665 S
O109 C123 1.298 1_565 S
O110 Zn104 1.920 . S
O110 C123 1.234 . S
C111 O116 1.167 1_455 S
C111 O117 1.299 . S
O112 Zn106 2.114 . S
O112 C107 1.166 . S
O113 Zn105 1.905 1_545 S
O113 C107 1.182 . S
O114 Zn105 1.898 . S
O114 C108 1.177 . S
O115 Zn106 2.120 1_565 S
O115 C108 1.299 . S
O116 Zn104 1.898 . S
O116 C111 1.167 1_655 S
O117 Zn106 2.120 . S
O117 C111 1.299 . S
O118 Zn106 2.114 1_655 S
O118 C120 1.166 . S
O119 Zn104 1.905 . S
O119 C120 1.182 . S
C120 O118 1.166 . S
C120 O119 1.182 . S
O121 Zn106 2.080 . S
O121 C124 1.305 1_545 S
O122 Zn105 1.920 . S
O122 C124 1.234 . S
C123 O109 1.298 1_545 S
C123 O110 1.234 . S
C124 O121 1.305 1_565 S
C124 O122 1.234 . S
Zn125 O131 1.920 1_556 S
Zn125 O137 1.898 . S
Zn125 O140 1.905 . S
Zn126 O134 1.905 . S
Zn126 O135 1.898 . S
Zn126 O143 1.920 . S
Zn127 O130 2.080 . S
Zn127 O133 2.114 1_545 S
Zn127 O136 2.120 1_545 S
Zn127 O138 2.120 . S
Zn127 O139 2.114 1_544 S
Zn127 O142 2.080 . S
C128 O133 1.166 . S
C128 O134 1.182 . S
C129 O135 1.167 . S
C129 O136 1.299 . S
O130 Zn127 2.080 . S
O130 C144 1.305 . S
O131 Zn125 1.920 1_554 S
O131 C144 1.234 . S
C132 O137 1.167 . S
C132 O138 1.299 1_556 S
O133 Zn127 2.114 1_565 S
O133 C128 1.166 . S
O134 Zn126 1.905 . S
O134 C128 1.182 . S
O135 Zn126 1.898 . S
O135 C129 1.167 . S
O136 Zn127 2.120 1_565 S
O136 C129 1.299 . S
O137 Zn125 1.898 . S
O137 C132 1.167 . S
O138 Zn127 2.120 . S
O138 C132 1.299 1_554 S
O139 Zn127 2.114 1_566 S
O139 C141 1.166 . S
O140 Zn125 1.905 . S
O140 C141 1.182 1_545 S
C141 O139 1.166 . S
C141 O140 1.182 1_565 S
O142 Zn127 2.080 . S
O142 C145 1.305 . S
O143 Zn126 1.920 . S
O143 C145 1.234 1_565 S
C144 O130 1.305 . S
C144 O131 1.234 . S
C145 O142 1.305 . S
C145 O143 1.234 1_545 S
Zn146 O152 1.920 . S
Zn146 O158 1.898 . S
Zn146 O161 1.905 . S
Zn147 O155 1.905 . S
Zn147 O156 1.898 . S
Zn147 O164 1.920 . S
Zn148 O151 2.080 . S
Zn148 O154 2.114 . S
Zn148 O157 2.120 . S
Zn148 O159 2.120 . S
Zn148 O160 2.114 . S
Zn148 O163 2.080 . S
C149 O154 1.166 . S
C149 O155 1.182 . S
C150 O156 1.167 . S
C150 O157 1.299 . S
O151 Zn148 2.080 . S
O151 C165 1.305 . S
O152 Zn146 1.920 . S
O152 C165 1.234 . S
C153 O158 1.167 . S
C153 O159 1.299 . S
O154 Zn148 2.114 . S
O154 C149 1.166 . S
O155 Zn147 1.905 . S
O155 C149 1.182 . S
O156 Zn147 1.898 . S
O156 C150 1.167 . S
O157 Zn148 2.120 . S
O157 C150 1.299 . S
O158 Zn146 1.898 . S
O158 C153 1.167 . S
O159 Zn148 2.120 . S
O159 C153 1.299 . S
O160 Zn148 2.114 . S
O160 C162 1.166 . S
O161 Zn146 1.905 . S
O161 C162 1.182 . S
C162 O160 1.166 . S
C162 O161 1.182 . S
O163 Zn148 2.080 . S
O163 C166 1.305 . S
O164 Zn147 1.920 . S
O164 C166 1.234 . S
C165 O151 1.305 . S
C165 O152 1.234 . S
C166 O163 1.305 . S
C166 O164 1.234 . S
Zn167 O173 1.920 . S
Zn167 O179 1.898 . S
Zn167 O182 1.905 . S
Zn168 O176 1.905 . S
Zn168 O177 1.898 . S
Zn168 O185 1.920 . S
Zn169 O172 2.080 1_454 S
Zn169 O175 2.114 . S
Zn169 O178 2.120 1_454 S
Zn169 O180 2.120 . S
Zn169 O181 2.114 1_554 S
Zn169 O184 2.080 1_455 S
C170 O175 1.166 . S
C170 O176 1.182 1_455 S
C171 O177 1.167 1_556 S
C171 O178 1.299 . S
O172 Zn169 2.080 1_656 S
O172 C186 1.305 1_655 S
O173 Zn167 1.920 . S
O173 C186 1.234 . S
C174 O179 1.167 1_554 S
C174 O180 1.299 . S
O175 Zn169 2.114 . S
O175 C170 1.166 . S
O176 Zn168 1.905 . S
O176 C170 1.182 1_655 S
O177 Zn168 1.898 . S
O177 C171 1.167 1_554 S
O178 Zn169 2.120 1_656 S
O178 C171 1.299 . S
O179 Zn167 1.898 . S
O179 C174 1.167 1_556 S
O180 Zn169 2.120 . S
O180 C174 1.299 . S
O181 Zn169 2.114 1_556 S
O181 C183 1.166 . S
O182 Zn167 1.905 . S
O182 C183 1.182 . S
C183 O181 1.166 . S
C183 O182 1.182 . S
O184 Zn169 2.080 1_655 S
O184 C187 1.305 . S
O185 Zn168 1.920 . S
O185 C187 1.234 . S
C186 O172 1.305 1_455 S
C186 O173 1.234 . S
C187 O184 1.305 . S
C187 O185 1.234 . S
C188 C189 1.363 . S
C188 C194 1.379 . S
C188 N196 1.356 . S
C189 C188 1.363 . S
C189 C195 1.363 . S
C190 C191 1.363 . S
C190 C195 1.379 . S
C190 N197 1.356 . S
C191 C190 1.363 . S
C191 C194 1.363 . S
N192 C194 1.356 . S
N192 H204 0.984 . S
N192 H205 0.985 . S
N193 C195 1.356 . S
N193 H198 0.984 . S
N193 H199 0.985 . S
C194 C188 1.379 . S
C194 C191 1.363 . S
C194 N192 1.356 . S
C195 C189 1.363 . S
C195 C190 1.379 . S
C195 N193 1.356 . S
N196 C188 1.356 . S
N196 H202 0.984 . S
N196 H203 0.984 . S
N197 C190 1.356 . S
N197 H200 0.984 . S
N197 H201 0.985 1_455 S
H198 N193 0.984 . S
H199 N193 0.985 . S
H200 N197 0.984 . S
H201 N197 0.985 1_655 S
H202 N196 0.984 . S
H203 N196 0.984 . S
H204 N192 0.984 . S
H205 N192 0.985 . S
C206 C207 1.363 . S
C206 C212 1.379 . S
C206 N214 1.356 . S
C207 C206 1.363 . S
C207 C213 1.363 . S
C208 C209 1.363 . S
C208 C213 1.379 . S
C208 N215 1.356 . S
C209 C208 1.363 . S
C209 C212 1.363 . S
N210 C212 1.356 1_545 S
N210 H222 0.984 . S
N210 H223 0.985 . S
N211 C213 1.356 . S
N211 H216 0.984 . S
N211 H217 0.985 . S
C212 C206 1.379 . S
C212 C209 1.363 . S
C212 N210 1.356 1_565 S
C213 C207 1.363 . S
C213 C208 1.379 . S
C213 N211 1.356 . S
N214 C206 1.356 . S
N214 H220 0.984 . S
N214 H221 0.984 . S
N215 C208 1.356 . S
N215 H218 0.984 . S
N215 H219 0.985 . S
H216 N211 0.984 . S
H217 N211 0.985 . S
H218 N215 0.984 . S
H219 N215 0.985 . S
H220 N214 0.984 . S
H221 N214 0.984 . S
H222 N210 0.984 . S
H223 N210 0.985 . S
C224 C225 1.363 . S
C224 C230 1.379 . S
C224 N232 1.356 . S
C225 C224 1.363 . S
C225 C231 1.363 . S
C226 C227 1.363 . S
C226 C231 1.379 . S
C226 N233 1.356 . S
C227 C226 1.363 . S
C227 C230 1.363 . S
N228 C230 1.356 . S
N228 H240 0.984 . S
N228 H241 0.985 . S
N229 C231 1.356 . S
N229 H234 0.984 . S
N229 H235 0.985 . S
C230 C224 1.379 . S
C230 C227 1.363 . S
C230 N228 1.356 . S
C231 C225 1.363 . S
C231 C226 1.379 . S
C231 N229 1.356 . S
N232 C224 1.356 . S
N232 H238 0.984 . S
N232 H239 0.984 . S
N233 C226 1.356 . S
N233 H236 0.984 . S
N233 H237 0.985 . S
H234 N229 0.984 . S
H235 N229 0.985 . S
H236 N233 0.984 . S
H237 N233 0.985 . S
H238 N232 0.984 . S
H239 N232 0.984 . S
H240 N228 0.984 . S
H241 N228 0.985 . S
C242 C243 1.363 . S
C242 C248 1.379 . S
C242 N250 1.356 . S
C243 C242 1.363 . S
C243 C249 1.363 . S
C244 C245 1.363 . S
C244 C249 1.379 . S
C244 N251 1.356 . S
C245 C244 1.363 . S
C245 C248 1.363 . S
N246 C248 1.356 . S
N246 H258 0.984 1_655 S
N246 H259 0.985 . S
N247 C249 1.356 . S
N247 H252 0.984 . S
N247 H253 0.985 . S
C248 C242 1.379 . S
C248 C245 1.363 . S
C248 N246 1.356 . S
C249 C243 1.363 . S
C249 C244 1.379 . S
C249 N247 1.356 . S
N250 C242 1.356 . S
N250 H256 0.984 . S
N250 H257 0.984 . S
N251 C244 1.356 . S
N251 H254 0.984 . S
N251 H255 0.985 . S
H252 N247 0.984 . S
H253 N247 0.985 . S
H254 N251 0.984 . S
H255 N251 0.985 . S
H256 N250 0.984 . S
H257 N250 0.984 . S
H258 N246 0.984 1_455 S
H259 N246 0.985 . S
C260 C261 1.363 . S
C260 C266 1.379 . S
C260 N268 1.356 . S
C261 C260 1.363 . S
C261 C267 1.363 . S
C262 C263 1.363 . S
C262 C267 1.379 . S
C262 N269 1.356 . S
C263 C262 1.363 . S
C263 C266 1.363 . S
N264 C266 1.356 . S
N264 H276 0.984 . S
N264 H277 0.985 . S
N265 C267 1.356 . S
N265 H270 0.984 . S
N265 H271 0.985 . S
C266 C260 1.379 . S
C266 C263 1.363 . S
C266 N264 1.356 . S
C267 C261 1.363 . S
C267 C262 1.379 . S
C267 N265 1.356 . S
N268 C260 1.356 . S
N268 H274 0.984 . S
N268 H275 0.984 . S
N269 C262 1.356 . S
N269 H272 0.984 . S
N269 H273 0.985 . S
H270 N265 0.984 . S
H271 N265 0.985 . S
H272 N269 0.984 . S
H273 N269 0.985 . S
H274 N268 0.984 . S
H275 N268 0.984 . S
H276 N264 0.984 . S
H277 N264 0.985 . S
C278 C279 1.363 . S
C278 C284 1.379 . S
C278 N286 1.356 . S
C279 C278 1.363 . S
C279 C285 1.363 . S
C280 C281 1.363 . S
C280 C285 1.379 . S
C280 N287 1.356 . S
C281 C280 1.363 . S
C281 C284 1.363 . S
N282 C284 1.356 . S
N282 H294 0.984 . S
N282 H295 0.985 . S
N283 C285 1.356 . S
N283 H288 0.984 . S
N283 H289 0.985 . S
C284 C278 1.379 . S
C284 C281 1.363 . S
C284 N282 1.356 . S
C285 C279 1.363 . S
C285 C280 1.379 . S
C285 N283 1.356 . S
N286 C278 1.356 . S
N286 H292 0.984 . S
N286 H293 0.984 . S
N287 C280 1.356 . S
N287 H290 0.984 . S
N287 H291 0.985 1_565 S
H288 N283 0.984 . S
H289 N283 0.985 . S
H290 N287 0.984 . S
H291 N287 0.985 1_545 S
H292 N286 0.984 . S
H293 N286 0.984 . S
H294 N282 0.984 . S
H295 N282 0.985 . S
C296 C297 1.363 . S
C296 C302 1.379 . S
C296 N304 1.356 . S
C297 C296 1.363 . S
C297 C303 1.363 . S
C298 C299 1.363 . S
C298 C303 1.379 . S
C298 N305 1.356 . S
C299 C298 1.363 . S
C299 C302 1.363 . S
N300 C302 1.356 1_554 S
N300 H312 0.984 . S
N300 H313 0.985 . S
N301 C303 1.356 . S
N301 H306 0.984 . S
N301 H307 0.985 . S
C302 C296 1.379 . S
C302 C299 1.363 . S
C302 N300 1.356 1_556 S
C303 C297 1.363 . S
C303 C298 1.379 . S
C303 N301 1.356 . S
N304 C296 1.356 . S
N304 H310 0.984 1_556 S
N304 H311 0.984 . S
N305 C298 1.356 . S
N305 H308 0.984 . S
N305 H309 0.985 . S
H306 N301 0.984 . S
H307 N301 0.985 . S
H308 N305 0.984 . S
H309 N305 0.985 . S
H310 N304 0.984 1_554 S
H311 N304 0.984 . S
H312 N300 0.984 . S
H313 N300 0.985 . S
C314 C315 1.363 . S
C314 C320 1.379 . S
C314 N322 1.356 . S
C315 C314 1.363 . S
C315 C321 1.363 . S
C316 C317 1.363 . S
C316 C321 1.379 . S
C316 N323 1.356 . S
C317 C316 1.363 . S
C317 C320 1.363 . S
N318 C320 1.356 . S
N318 H330 0.984 . S
N318 H331 0.985 . S
N319 C321 1.356 . S
N319 H324 0.984 . S
N319 H325 0.985 . S
C320 C314 1.379 . S
C320 C317 1.363 . S
C320 N318 1.356 . S
C321 C315 1.363 . S
C321 C316 1.379 . S
C321 N319 1.356 . S
N322 C314 1.356 . S
N322 H328 0.984 . S
N322 H329 0.984 . S
N323 C316 1.356 . S
N323 H326 0.984 . S
N323 H327 0.985 . S
H324 N319 0.984 . S
H325 N319 0.985 . S
H326 N323 0.984 . S
H327 N323 0.985 . S
H328 N322 0.984 . S
H329 N322 0.984 . S
H330 N318 0.984 . S
H331 N318 0.985 . S
C332 C333 1.363 . S
C332 C338 1.379 . S
C332 N340 1.356 . S
C333 C332 1.363 . S
C333 C339 1.363 . S
C334 C335 1.363 . S
C334 C339 1.379 . S
C334 N341 1.356 . S
C335 C334 1.363 . S
C335 C338 1.363 . S
N336 C338 1.356 . S
N336 H348 0.984 . S
N336 H349 0.985 . S
N337 C339 1.356 . S
N337 H342 0.984 . S
N337 H343 0.985 . S
C338 C332 1.379 . S
C338 C335 1.363 . S
C338 N336 1.356 . S
C339 C333 1.363 . S
C339 C334 1.379 . S
C339 N337 1.356 . S
N340 C332 1.356 . S
N340 H346 0.984 . S
N340 H347 0.984 . S
N341 C334 1.356 . S
N341 H344 0.984 . S
N341 H345 0.985 1_554 S
H342 N337 0.984 . S
H343 N337 0.985 . S
H344 N341 0.984 . S
H345 N341 0.985 1_556 S
H346 N340 0.984 . S
H347 N340 0.984 . S
H348 N336 0.984 . S
H349 N336 0.985 . S
C350 C351 1.363 . S
C350 C356 1.379 . S
C350 N358 1.356 . S
C351 C350 1.363 . S
C351 C357 1.363 . S
C352 C353 1.363 . S
C352 C357 1.379 . S
C352 N359 1.356 . S
C353 C352 1.363 . S
C353 C356 1.363 . S
N354 C356 1.361 . S
N354 H366 0.984 1_556 S
N354 H367 0.981 1_556 S
N355 C357 1.356 . S
N355 H360 0.984 . S
N355 H361 0.985 . S
C356 C350 1.379 . S
C356 C353 1.363 . S
C356 N354 1.361 . S
C357 C351 1.363 . S
C357 C352 1.379 . S
C357 N355 1.356 . S
N358 C350 1.356 . S
N358 H364 0.984 . S
N358 H365 0.984 . S
N359 C352 1.356 . S
N359 H362 0.984 . S
N359 H363 0.985 . S
H360 N355 0.984 . S
H361 N355 0.985 . S
H362 N359 0.984 . S
H363 N359 0.985 . S
H364 N358 0.984 . S
H365 N358 0.984 . S
H366 N354 0.984 1_554 S
H367 N354 0.981 1_554 S
C368 C369 1.363 . S
C368 C374 1.379 . S
C368 N376 1.356 . S
C369 C368 1.363 . S
C369 C375 1.363 . S
C370 C371 1.363 . S
C370 C375 1.379 . S
C370 N377 1.356 1_655 S
C371 C370 1.363 . S
C371 C374 1.363 . S
N372 C374 1.356 . S
N372 H384 0.984 . S
N372 H385 0.985 . S
N373 C375 1.356 . S
N373 H378 0.984 . S
N373 H379 0.985 1_655 S
C374 C368 1.379 . S
C374 C371 1.363 . S
C374 N372 1.356 . S
C375 C369 1.363 . S
C375 C370 1.379 . S
C375 N373 1.356 . S
N376 C368 1.356 . S
N376 H382 0.984 . S
N376 H383 0.984 . S
N377 C370 1.356 1_455 S
N377 H380 0.984 . S
N377 H381 0.985 . S
H378 N373 0.984 . S
H379 N373 0.985 1_455 S
H380 N377 0.984 . S
H381 N377 0.985 . S
H382 N376 0.984 . S
H383 N376 0.984 . S
H384 N372 0.984 . S
H385 N372 0.985 . S
C386 C387 1.363 . S
C386 C392 1.379 . S
C386 N394 1.356 . S
C387 C386 1.363 . S
C387 C393 1.363 . S
C388 C389 1.363 . S
C388 C393 1.379 . S
C388 N395 1.356 . S
C389 C388 1.363 . S
C389 C392 1.363 . S
N390 C392 1.356 . S
N390 H402 0.984 . S
N390 H403 0.985 . S
N391 C393 1.356 . S
N391 H396 0.984 . S
N391 H397 0.985 . S
C392 C386 1.379 . S
C392 C389 1.363 . S
C392 N390 1.356 . S
C393 C387 1.363 . S
C393 C388 1.379 . S
C393 N391 1.356 . S
N394 C386 1.356 . S
N394 H400 0.984 . S
N394 H401 0.984 . S
N395 C388 1.356 . S
N395 H398 0.984 . S
N395 H399 0.985 . S
H396 N391 0.984 . S
H397 N391 0.985 . S
H398 N395 0.984 . S
H399 N395 0.985 . S
H400 N394 0.984 . S
H401 N394 0.984 . S
H402 N390 0.984 . S
H403 N390 0.985 . S
C404 C405 1.363 1_455 S
C404 C410 1.379 . S
C404 N412 1.356 . S
C405 C404 1.363 1_655 S
C405 C411 1.363 1_565 S
C406 C407 1.363 1_545 S
C406 C411 1.379 . S
C406 N413 1.356 . S
C407 C406 1.363 1_565 S
C407 C410 1.363 1_655 S
N408 C410 1.356 . S
N408 H420 0.984 . S
N408 H421 0.985 . S
N409 C411 1.356 . S
N409 H414 0.984 . S
N409 H415 0.985 . S
C410 C404 1.379 . S
C410 C407 1.363 1_455 S
C410 N408 1.356 . S
C411 C405 1.363 1_545 S
C411 C406 1.379 . S
C411 N409 1.356 . S
N412 C404 1.356 . S
N412 H418 0.984 . S
N412 H419 0.984 . S
N413 C406 1.356 . S
N413 H416 0.984 . S
N413 H417 0.985 . S
H414 N409 0.984 . S
H415 N409 0.985 . S
H416 N413 0.984 . S
H417 N413 0.985 . S
H418 N412 0.984 . S
H419 N412 0.984 . S
H420 N408 0.984 . S
H421 N408 0.985 . S
C422 C423 1.363 . S
C422 C428 1.379 . S
C422 N430 1.356 . S
C423 C422 1.363 . S
C423 C429 1.363 . S
C424 C425 1.363 . S
C424 C429 1.379 . S
C424 N431 1.356 1_545 S
C425 C424 1.363 . S
C425 C428 1.363 . S
N426 C428 1.356 . S
N426 H438 0.984 . S
N426 H439 0.985 . S
N427 C429 1.356 1_565 S
N427 H432 0.984 1_565 S
N427 H433 0.985 . S
C428 C422 1.379 . S
C428 C425 1.363 . S
C428 N426 1.356 . S
C429 C423 1.363 . S
C429 C424 1.379 . S
C429 N427 1.356 1_545 S
N430 C422 1.356 . S
N430 H436 0.984 . S
N430 H437 0.984 . S
N431 C424 1.356 1_565 S
N431 H434 0.984 . S
N431 H435 0.985 . S
H432 N427 0.984 1_545 S
H433 N427 0.985 . S
H434 N431 0.984 . S
H435 N431 0.985 . S
H436 N430 0.984 . S
H437 N430 0.984 . S
H438 N426 0.984 . S
H439 N426 0.985 . S
C440 C441 1.363 . S
C440 C446 1.379 . S
C440 N448 1.356 . S
C441 C440 1.363 . S
C441 C447 1.363 . S
C442 C443 1.363 . S
C442 C447 1.379 . S
C442 N449 1.356 . S
C443 C442 1.363 . S
C443 C446 1.363 . S
N444 C446 1.356 . S
N444 H456 0.984 . S
N444 H457 0.985 . S
N445 C447 1.356 . S
N445 H450 0.984 . S
N445 H451 0.985 . S
C446 C440 1.379 . S
C446 C443 1.363 . S
C446 N444 1.356 . S
C447 C441 1.363 . S
C447 C442 1.379 . S
C447 N445 1.356 . S
N448 C440 1.356 . S
N448 H454 0.984 . S
N448 H455 0.984 . S
N449 C442 1.356 . S
N449 H452 0.984 . S
N449 H453 0.985 . S
H450 N445 0.984 . S
H451 N445 0.985 . S
H452 N449 0.984 . S
H453 N449 0.985 . S
H454 N448 0.984 . S
H455 N448 0.984 . S
H456 N444 0.984 . S
H457 N444 0.985 . S
C458 C459 1.363 . S
C458 C464 1.379 . S
C458 N466 1.356 . S
C459 C458 1.363 . S
C459 C465 1.363 . S
C460 C461 1.363 . S
C460 C465 1.379 . S
C460 N467 1.356 . S
C461 C460 1.363 . S
C461 C464 1.363 . S
N462 C464 1.356 1_655 S
N462 H474 0.984 . S
N462 H475 0.985 . S
N463 C465 1.356 . S
N463 H468 0.984 . S
N463 H469 0.985 . S
C464 C458 1.379 . S
C464 C461 1.363 . S
C464 N462 1.356 1_455 S
C465 C459 1.363 . S
C465 C460 1.379 . S
C465 N463 1.356 . S
N466 C458 1.356 . S
N466 H472 0.984 1_455 S
N466 H473 0.984 . S
N467 C460 1.356 . S
N467 H470 0.984 . S
N467 H471 0.985 . S
H468 N463 0.984 . S
H469 N463 0.985 . S
H470 N467 0.984 . S
H471 N467 0.985 . S
H472 N466 0.984 1_655 S
H473 N466 0.984 . S
H474 N462 0.984 . S
H475 N462 0.985 . S
C476 C477 1.363 1_545 S
C476 C482 1.379 . S
C476 N484 1.356 . S
C477 C476 1.363 1_565 S
C477 C483 1.363 1_554 S
C478 C479 1.363 1_556 S
C478 C483 1.379 . S
C478 N485 1.356 . S
C479 C478 1.363 1_554 S
C479 C482 1.363 1_565 S
N480 C482 1.356 . S
N480 H492 0.984 . S
N480 H493 0.985 . S
N481 C483 1.356 . S
N481 H486 0.984 . S
N481 H487 0.985 . S
C482 C476 1.379 . S
C482 C479 1.363 1_545 S
C482 N480 1.356 . S
C483 C477 1.363 1_556 S
C483 C478 1.379 . S
C483 N481 1.356 . S
N484 C476 1.356 . S
N484 H490 0.984 . S
N484 H491 0.984 . S
N485 C478 1.356 . S
N485 H488 0.984 1_556 S
N485 H489 0.985 . S
H486 N481 0.984 . S
H487 N481 0.985 . S
H488 N485 0.984 1_554 S
H489 N485 0.985 . S
H490 N484 0.984 . S
H491 N484 0.984 . S
H492 N480 0.984 . S
H493 N480 0.985 . S
C494 C495 1.363 . S
C494 C500 1.379 . S
C494 N502 1.356 . S
C495 C494 1.363 . S
C495 C501 1.363 . S
C496 C497 1.363 . S
C496 C501 1.379 . S
C496 N503 1.356 . S
C497 C496 1.363 . S
C497 C500 1.363 . S
N498 C500 1.356 1_565 S
N498 H510 0.984 . S
N498 H511 0.985 . S
N499 C501 1.356 . S
N499 H504 0.984 . S
N499 H505 0.985 . S
C500 C494 1.379 . S
C500 C497 1.363 . S
C500 N498 1.356 1_545 S
C501 C495 1.363 . S
C501 C496 1.379 . S
C501 N499 1.356 . S
N502 C494 1.356 . S
N502 H508 0.984 1_545 S
N502 H509 0.984 . S
N503 C496 1.356 . S
N503 H506 0.984 . S
N503 H507 0.985 . S
H504 N499 0.984 . S
H505 N499 0.985 . S
H506 N503 0.984 . S
H507 N503 0.985 . S
H508 N502 0.984 1_565 S
H509 N502 0.984 . S
H510 N498 0.984 . S
H511 N498 0.985 . S
C512 C513 1.363 . S
C512 C518 1.379 . S
C512 N520 1.356 . S
C513 C512 1.363 . S
C513 C519 1.363 . S
C514 C515 1.363 . S
C514 C519 1.379 . S
C514 N521 1.356 . S
C515 C514 1.363 . S
C515 C518 1.363 . S
N516 C518 1.356 . S
N516 H528 0.984 . S
N516 H529 0.985 . S
N517 C519 1.356 . S
N517 H522 0.984 . S
N517 H523 0.985 . S
C518 C512 1.379 . S
C518 C515 1.363 . S
C518 N516 1.356 . S
C519 C513 1.363 . S
C519 C514 1.379 . S
C519 N517 1.356 . S
N520 C512 1.356 . S
N520 H526 0.984 . S
N520 H527 0.984 . S
N521 C514 1.356 . S
N521 H524 0.984 . S
N521 H525 0.985 . S
H522 N517 0.984 . S
H523 N517 0.985 . S
H524 N521 0.984 . S
H525 N521 0.985 . S
H526 N520 0.984 . S
H527 N520 0.984 . S
H528 N516 0.984 . S
H529 N516 0.985 . S
C530 C531 1.363 . S
C530 C536 1.379 . S
C530 N538 1.356 . S
C531 C530 1.363 . S
C531 C537 1.363 . S
C532 C533 1.363 . S
C532 C537 1.379 . S
C532 N539 1.356 . S
C533 C532 1.363 . S
C533 C536 1.363 . S
N534 C536 1.356 . S
N534 H546 0.984 . S
N534 H547 0.985 . S
N535 C537 1.356 . S
N535 H540 0.984 . S
N535 H541 0.985 . S
C536 C530 1.379 . S
C536 C533 1.363 . S
C536 N534 1.356 . S
C537 C531 1.363 . S
C537 C532 1.379 . S
C537 N535 1.356 . S
N538 C530 1.356 . S
N538 H544 0.984 . S
N538 H545 0.984 . S
N539 C532 1.356 . S
N539 H542 0.984 . S
N539 H543 0.985 . S
H540 N535 0.984 . S
H541 N535 0.985 . S
H542 N539 0.984 . S
H543 N539 0.985 . S
H544 N538 0.984 . S
H545 N538 0.984 . S
H546 N534 0.984 . S
H547 N534 0.985 . S
C548 C549 1.363 . S
C548 C554 1.379 . S
C548 N556 1.356 . S
C549 C548 1.363 . S
C549 C555 1.363 1_656 S
C550 C551 1.363 1_454 S
C550 C555 1.379 . S
C550 N557 1.356 . S
C551 C550 1.363 1_656 S
C551 C554 1.363 . S
N552 C554 1.356 . S
N552 H564 0.984 . S
N552 H565 0.985 . S
N553 C555 1.356 . S
N553 H558 0.984 . S
N553 H559 0.985 . S
C554 C548 1.379 . S
C554 C551 1.363 . S
C554 N552 1.356 . S
C555 C549 1.363 1_454 S
C555 C550 1.379 . S
C555 N553 1.356 . S
N556 C548 1.356 . S
N556 H562 0.984 . S
N556 H563 0.984 . S
N557 C550 1.356 . S
N557 H560 0.984 . S
N557 H561 0.985 . S
H558 N553 0.984 . S
H559 N553 0.985 . S
H560 N557 0.984 . S
H561 N557 0.985 . S
H562 N556 0.984 . S
H563 N556 0.984 . S
H564 N552 0.984 . S
H565 N552 0.985 . S
C566 C567 1.363 . S
C566 C572 1.379 . S
C566 N574 1.356 . S
C567 C566 1.363 . S
C567 C573 1.363 . S
C568 C569 1.363 . S
C568 C573 1.379 . S
C568 N575 1.356 . S
C569 C568 1.363 . S
C569 C572 1.363 . S
N570 C572 1.356 . S
N570 H582 0.984 . S
N570 H583 0.985 . S
N571 C573 1.356 . S
N571 H576 0.984 . S
N571 H577 0.985 1_554 S
C572 C566 1.379 . S
C572 C569 1.363 . S
C572 N570 1.356 . S
C573 C567 1.363 . S
C573 C568 1.379 . S
C573 N571 1.356 . S
N574 C566 1.356 . S
N574 H580 0.984 . S
N574 H581 0.984 . S
N575 C568 1.356 . S
N575 H578 0.984 . S
N575 H579 0.985 1_554 S
H576 N571 0.984 . S
H577 N571 0.985 1_556 S
H578 N575 0.984 . S
H579 N575 0.985 1_556 S
H580 N574 0.984 . S
H581 N574 0.984 . S
H582 N570 0.984 . S
H583 N570 0.985 . S
C584 C585 1.363 . S
C584 C590 1.379 . S
C584 N592 1.356 . S
C585 C584 1.363 . S
C585 C591 1.363 . S
C586 C587 1.363 . S
C586 C591 1.379 . S
C586 N593 1.356 . S
C587 C586 1.363 . S
C587 C590 1.363 . S
N588 C590 1.356 . S
N588 H600 0.984 . S
N588 H601 0.985 . S
N589 C591 1.356 . S
N589 H594 0.984 . S
N589 H595 0.985 1_455 S
C590 C584 1.379 . S
C590 C587 1.363 . S
C590 N588 1.356 . S
C591 C585 1.363 . S
C591 C586 1.379 . S
C591 N589 1.356 . S
N592 C584 1.356 . S
N592 H598 0.984 . S
N592 H599 0.984 . S
N593 C586 1.356 . S
N593 H596 0.984 . S
N593 H597 0.985 1_455 S
H594 N589 0.984 . S
H595 N589 0.985 1_655 S
H596 N593 0.984 . S
H597 N593 0.985 1_655 S
H598 N592 0.984 . S
H599 N592 0.984 . S
H600 N588 0.984 . S
H601 N588 0.985 . S
C602 C603 1.363 . S
C602 C608 1.379 . S
C602 N610 1.356 . S
C603 C602 1.363 . S
C603 C609 1.363 . S
C604 C605 1.363 . S
C604 C609 1.379 . S
C604 N611 1.356 . S
C605 C604 1.363 . S
C605 C608 1.363 . S
N606 C608 1.356 . S
N606 H618 0.984 . S
N606 H619 0.985 . S
N607 C609 1.356 . S
N607 H612 0.984 . S
N607 H613 0.985 . S
C608 C602 1.379 . S
C608 C605 1.363 . S
C608 N606 1.356 . S
C609 C603 1.363 . S
C609 C604 1.379 . S
C609 N607 1.356 . S
N610 C602 1.356 . S
N610 H616 0.984 . S
N610 H617 0.984 . S
N611 C604 1.356 . S
N611 H614 0.984 . S
N611 H615 0.985 . S
H612 N607 0.984 . S
H613 N607 0.985 . S
H614 N611 0.984 . S
H615 N611 0.985 . S
H616 N610 0.984 . S
H617 N610 0.984 . S
H618 N606 0.984 . S
H619 N606 0.985 . S
C189 N1 1.493 . S
C191 C107 1.425 . S
C207 N18 1.752 . S
C209 C141 1.652 . S
C227 C153 1.131 . S
C225 N28 1.210 . S
C243 N40 1.591 . S
C245 C187 1.547 . S
C263 C144 1.634 . S
C261 N5 1.755 . S
C281 C124 1.522 . S
C279 N14 1.527 . S
C299 C171 1.384 . S
C297 N31 1.483 . S
C317 C162 1.192 . S
C315 N41 1.278 . S
C333 N2 1.476 . S
C335 C170 1.418 . S
C353 C132 1.457 . S
C351 N27 1.554 . S
C369 N44 1.593 . S
C371 C108 1.508 1_655 S
C387 N15 1.414 . S
C389 C165 1.289 . S
C407 C123 1.593 1_565 S
C405 N57 1.733 . S
C423 N70 1.391 . S
C425 C145 1.320 . S
C441 N79 1.455 . S
C443 C150 1.471 . S
C459 N93 1.447 . S
C461 C183 1.391 . S
C477 N54 1.522 1_554 S
C479 C128 1.465 . S
C497 C120 1.755 . S
C495 N66 1.852 . S
C515 C174 1.188 . S
C513 N80 1.230 . S
C533 C166 1.457 . S
C531 N96 1.520 . S
C549 N53 1.550 . S
C551 C186 1.461 1_655 S
C569 C129 1.486 . S
C567 N83 1.523 . S
C587 C111 1.525 . S
C585 N92 1.632 . S
C603 N67 1.519 . S
C605 C149 1.517 . S
