# Generated by pormake.
# Topology ctn, (3,4)-cn, num edge types: 1
# Building blocks:
#     Node 0, Type 0, BuildingBlock: BETDAH_clean_linker_0, # of connection points: 3
#     Node 1, Type 0, BuildingBlock: BETDAH_clean_linker_0, # of connection points: 3
#     Node 2, Type 0, BuildingBlock: BETDAH_clean_linker_0, # of connection points: 3
#     Node 3, Type 0, BuildingBlock: BETDAH_clean_linker_0, # of connection points: 3
#     Node 4, Type 0, BuildingBlock: BETDAH_clean_linker_0, # of connection points: 3
#     Node 5, Type 0, BuildingBlock: BETDAH_clean_linker_0, # of connection points: 3
#     Node 6, Type 0, BuildingBlock: BETDAH_clean_linker_0, # of connection points: 3
#     Node 7, Type 0, BuildingBlock: BETDAH_clean_linker_0, # of connection points: 3
#     Node 8, Type 0, BuildingBlock: BETDAH_clean_linker_0, # of connection points: 3
#     Node 9, Type 0, BuildingBlock: BETDAH_clean_linker_0, # of connection points: 3
#     Node 10, Type 0, BuildingBlock: BETDAH_clean_linker_0, # of connection points: 3
#     Node 11, Type 0, BuildingBlock: BETDAH_clean_linker_0, # of connection points: 3
#     Node 12, Type 0, BuildingBlock: BETDAH_clean_linker_0, # of connection points: 3
#     Node 13, Type 0, BuildingBlock: BETDAH_clean_linker_0, # of connection points: 3
#     Node 14, Type 0, BuildingBlock: BETDAH_clean_linker_0, # of connection points: 3
#     Node 15, Type 0, BuildingBlock: BETDAH_clean_linker_0, # of connection points: 3
#     Node 16, Type 1, BuildingBlock: UXUYUI_clean_sbu_0, # of connection points: 4
#     Node 17, Type 1, BuildingBlock: UXUYUI_clean_sbu_0, # of connection points: 4
#     Node 18, Type 1, BuildingBlock: UXUYUI_clean_sbu_0, # of connection points: 4
#     Node 19, Type 1, BuildingBlock: UXUYUI_clean_sbu_0, # of connection points: 4
#     Node 20, Type 1, BuildingBlock: UXUYUI_clean_sbu_0, # of connection points: 4
#     Node 21, Type 1, BuildingBlock: UXUYUI_clean_sbu_0, # of connection points: 4
#     Node 22, Type 1, BuildingBlock: UXUYUI_clean_sbu_0, # of connection points: 4
#     Node 23, Type 1, BuildingBlock: UXUYUI_clean_sbu_0, # of connection points: 4
#     Node 24, Type 1, BuildingBlock: UXUYUI_clean_sbu_0, # of connection points: 4
#     Node 25, Type 1, BuildingBlock: UXUYUI_clean_sbu_0, # of connection points: 4
#     Node 26, Type 1, BuildingBlock: UXUYUI_clean_sbu_0, # of connection points: 4
#     Node 27, Type 1, BuildingBlock: UXUYUI_clean_sbu_0, # of connection points: 4
#     Edge 28, Type (0, 1), BuildingBlock: XIVTED_clean_linker_0, # of connection points: 2
#     Edge 29, Type (0, 1), BuildingBlock: XIVTED_clean_linker_0, # of connection points: 2
#     Edge 30, Type (0, 1), BuildingBlock: XIVTED_clean_linker_0, # of connection points: 2
#     Edge 31, Type (0, 1), BuildingBlock: XIVTED_clean_linker_0, # of connection points: 2
#     Edge 32, Type (0, 1), BuildingBlock: XIVTED_clean_linker_0, # of connection points: 2
#     Edge 33, Type (0, 1), BuildingBlock: XIVTED_clean_linker_0, # of connection points: 2
#     Edge 34, Type (0, 1), BuildingBlock: XIVTED_clean_linker_0, # of connection points: 2
#     Edge 35, Type (0, 1), BuildingBlock: XIVTED_clean_linker_0, # of connection points: 2
#     Edge 36, Type (0, 1), BuildingBlock: XIVTED_clean_linker_0, # of connection points: 2
#     Edge 37, Type (0, 1), BuildingBlock: XIVTED_clean_linker_0, # of connection points: 2
#     Edge 38, Type (0, 1), BuildingBlock: XIVTED_clean_linker_0, # of connection points: 2
#     Edge 39, Type (0, 1), BuildingBlock: XIVTED_clean_linker_0, # of connection points: 2
#     Edge 40, Type (0, 1), BuildingBlock: XIVTED_clean_linker_0, # of connection points: 2
#     Edge 41, Type (0, 1), BuildingBlock: XIVTED_clean_linker_0, # of connection points: 2
#     Edge 42, Type (0, 1), BuildingBlock: XIVTED_clean_linker_0, # of connection points: 2
#     Edge 43, Type (0, 1), BuildingBlock: XIVTED_clean_linker_0, # of connection points: 2
#     Edge 44, Type (0, 1), BuildingBlock: XIVTED_clean_linker_0, # of connection points: 2
#     Edge 45, Type (0, 1), BuildingBlock: XIVTED_clean_linker_0, # of connection points: 2
#     Edge 46, Type (0, 1), BuildingBlock: XIVTED_clean_linker_0, # of connection points: 2
#     Edge 47, Type (0, 1), BuildingBlock: XIVTED_clean_linker_0, # of connection points: 2
#     Edge 48, Type (0, 1), BuildingBlock: XIVTED_clean_linker_0, # of connection points: 2
#     Edge 49, Type (0, 1), BuildingBlock: XIVTED_clean_linker_0, # of connection points: 2
#     Edge 50, Type (0, 1), BuildingBlock: XIVTED_clean_linker_0, # of connection points: 2
#     Edge 51, Type (0, 1), BuildingBlock: XIVTED_clean_linker_0, # of connection points: 2
#     Edge 52, Type (0, 1), BuildingBlock: XIVTED_clean_linker_0, # of connection points: 2
#     Edge 53, Type (0, 1), BuildingBlock: XIVTED_clean_linker_0, # of connection points: 2
#     Edge 54, Type (0, 1), BuildingBlock: XIVTED_clean_linker_0, # of connection points: 2
#     Edge 55, Type (0, 1), BuildingBlock: XIVTED_clean_linker_0, # of connection points: 2
#     Edge 56, Type (0, 1), BuildingBlock: XIVTED_clean_linker_0, # of connection points: 2
#     Edge 57, Type (0, 1), BuildingBlock: XIVTED_clean_linker_0, # of connection points: 2
#     Edge 58, Type (0, 1), BuildingBlock: XIVTED_clean_linker_0, # of connection points: 2
#     Edge 59, Type (0, 1), BuildingBlock: XIVTED_clean_linker_0, # of connection points: 2
#     Edge 60, Type (0, 1), BuildingBlock: XIVTED_clean_linker_0, # of connection points: 2
#     Edge 61, Type (0, 1), BuildingBlock: XIVTED_clean_linker_0, # of connection points: 2
#     Edge 62, Type (0, 1), BuildingBlock: XIVTED_clean_linker_0, # of connection points: 2
#     Edge 63, Type (0, 1), BuildingBlock: XIVTED_clean_linker_0, # of connection points: 2
#     Edge 64, Type (0, 1), BuildingBlock: XIVTED_clean_linker_0, # of connection points: 2
#     Edge 65, Type (0, 1), BuildingBlock: XIVTED_clean_linker_0, # of connection points: 2
#     Edge 66, Type (0, 1), BuildingBlock: XIVTED_clean_linker_0, # of connection points: 2
#     Edge 67, Type (0, 1), BuildingBlock: XIVTED_clean_linker_0, # of connection points: 2
#     Edge 68, Type (0, 1), BuildingBlock: XIVTED_clean_linker_0, # of connection points: 2
#     Edge 69, Type (0, 1), BuildingBlock: XIVTED_clean_linker_0, # of connection points: 2
#     Edge 70, Type (0, 1), BuildingBlock: XIVTED_clean_linker_0, # of connection points: 2
#     Edge 71, Type (0, 1), BuildingBlock: XIVTED_clean_linker_0, # of connection points: 2
#     Edge 72, Type (0, 1), BuildingBlock: XIVTED_clean_linker_0, # of connection points: 2
#     Edge 73, Type (0, 1), BuildingBlock: XIVTED_clean_linker_0, # of connection points: 2
#     Edge 74, Type (0, 1), BuildingBlock: XIVTED_clean_linker_0, # of connection points: 2
#     Edge 75, Type (0, 1), BuildingBlock: XIVTED_clean_linker_0, # of connection points: 2
# Relax obj value: 0.051
# Max RMSD: 0.165
# Mean RMSD: 0.106
data_MOF--net-ctn--node1-UXUYUI_clean_sbu_0--node2-BETDAH_clean_linker_0--edge1-XIVTED_clean_linker_0
_symmetry_space_group_name_H-M    P1
_symmetry_Int_Tables_number       1
_symmetry_cell_setting            triclinic
loop_
_symmetry_equiv_pos_as_xyz
'x, y, z'
_cell_length_a     67.513568
_cell_length_b     67.441142
_cell_length_c     68.360455
_cell_angle_alpha  98.27708
_cell_angle_beta   90.316571
_cell_angle_gamma 94.658854
loop_
_atom_site_label
_atom_site_type_symbol
_atom_site_fract_x
_atom_site_fract_y
_atom_site_fract_z
_atom_type_partial_charge
H0 H 0.06921 0.01844 0.08691 0.0
H1 H 0.07612 0.02572 0.02585 0.0
H2 H 0.02746 0.05045 0.05807 0.0
C3 C 0.06408 0.02415 0.07392 0.0
C4 C 0.04675 0.03457 0.07479 0.0
C5 C 0.07489 0.02095 0.05641 0.0
C6 C 0.0684 0.02861 0.0397 0.0
C7 C 0.05175 0.03972 0.04046 0.0
C8 C 0.04094 0.04277 0.05799 0.0
N9 N 0.04499 0.04576 0.02276 0.0
C10 C 0.04086 0.0653 0.02116 0.0
H11 H 0.32405 0.69169 0.25193 0.0
H12 H 0.35826 0.73323 0.22053 0.0
H13 H 0.3004 0.70849 0.19861 0.0
C14 C 0.32544 0.70064 0.23996 0.0
C15 C 0.3101 0.69888 0.22569 0.0
C16 C 0.34303 0.7128 0.23817 0.0
C17 C 0.34487 0.72362 0.22211 0.0
C18 C 0.32949 0.72254 0.2081 0.0
C19 C 0.31208 0.70999 0.20978 0.0
N20 N 0.33267 0.73356 0.19207 0.0
C21 C 0.31786 0.74046 0.18125 0.0
H22 H 0.01143 0.4458 0.0628 0.0
H23 H 0.00661 0.50953 0.0767 0.0
H24 H 0.98114 0.47723 0.02258 0.0
C25 C 0.00612 0.45958 0.05918 0.0
C26 C 0.99595 0.45934 0.04111 0.0
C27 C 0.00996 0.47757 0.07229 0.0
C28 C 0.00332 0.49536 0.06713 0.0
C29 C 0.99257 0.49526 0.04958 0.0
C30 C 0.98892 0.47723 0.03649 0.0
N31 N 0.98666 0.51382 0.04512 0.0
C32 C 0.9693 0.51594 0.03489 0.0
H33 H 0.7808 0.80936 0.1936 0.0
H34 H 0.74797 0.75896 0.21374 0.0
H35 H 0.76472 0.81187 0.25487 0.0
C36 C 0.77332 0.80268 0.20535 0.0
C37 C 0.77373 0.81332 0.22467 0.0
C38 C 0.76385 0.78315 0.20118 0.0
C39 C 0.75468 0.77428 0.21654 0.0
C40 C 0.75498 0.78468 0.23579 0.0
C41 C 0.76438 0.80414 0.23982 0.0
N42 N 0.74814 0.77453 0.25148 0.0
C43 C 0.72931 0.77632 0.2592 0.0
H44 H 0.06983 0.99612 0.44997 0.0
H45 H 0.07111 0.96441 0.50039 0.0
H46 H 0.01981 0.95627 0.4617 0.0
C47 C 0.06276 0.98568 0.45896 0.0
C48 C 0.04365 0.97669 0.45367 0.0
C49 C 0.07285 0.98135 0.47574 0.0
C50 C 0.06348 0.96787 0.48747 0.0
C51 C 0.04435 0.95867 0.48214 0.0
C52 C 0.03467 0.9632 0.46539 0.0
N53 N 0.03403 0.94471 0.49294 0.0
C54 C 0.04049 0.93796 0.50997 0.0
H55 H 0.26594 0.70994 0.83087 0.0
H56 H 0.21257 0.72985 0.80791 0.0
H57 H 0.23697 0.67686 0.77862 0.0
C58 C 0.25402 0.70806 0.81991 0.0
C59 C 0.25349 0.69184 0.80448 0.0
C60 C 0.23934 0.72188 0.82136 0.0
C61 C 0.22386 0.71924 0.80706 0.0
C62 C 0.22317 0.70301 0.79155 0.0
C63 C 0.2379 0.68947 0.79046 0.0
N64 N 0.208 0.69957 0.7767 0.0
C65 C 0.19267 0.71176 0.77479 0.0
H66 H 0.94978 0.55509 0.51531 0.0
H67 H 0.00494 0.56041 0.48435 0.0
H68 H 0.96807 0.50491 0.4752 0.0
C69 C 0.96013 0.54866 0.50461 0.0
C70 C 0.95652 0.52857 0.49565 0.0
C71 C 0.9776 0.56024 0.50073 0.0
C72 C 0.99138 0.55169 0.4873 0.0
C73 C 0.9878 0.53167 0.47811 0.0
C74 C 0.97058 0.52029 0.48248 0.0
N75 N 1.00157 0.52198 0.4652 0.0
C76 C 0.01454 0.53137 0.45301 0.0
H77 H 0.82452 0.76102 0.80755 0.0
H78 H 0.79956 0.80851 0.78193 0.0
H79 H 0.77013 0.78395 0.82967 0.0
C80 C 0.81289 0.7711 0.80691 0.0
C81 C 0.79738 0.771 0.82051 0.0
C82 C 0.8139 0.78464 0.79297 0.0
C83 C 0.79907 0.7982 0.79272 0.0
C84 C 0.78318 0.79778 0.80595 0.0
C85 C 0.7825 0.78421 0.81964 0.0
N86 N 0.76716 0.81014 0.80574 0.0
C87 C 0.76673 0.82726 0.79663 0.0
H88 H 0.32888 0.25987 0.32363 0.0
H89 H 0.30224 0.30443 0.295 0.0
H90 H 0.27362 0.28206 0.34422 0.0
C91 C 0.31705 0.2696 0.32249 0.0
C92 C 0.3014 0.26964 0.336 0.0
C93 C 0.3175 0.28205 0.30755 0.0
C94 C 0.30199 0.29466 0.30628 0.0
C95 C 0.28623 0.29467 0.31963 0.0
C96 C 0.28602 0.28211 0.33422 0.0
N97 N 0.27007 0.3068 0.3189 0.0
C98 C 0.26914 0.32252 0.3079 0.0
H99 H 0.51157 0.9434 0.55664 0.0
H100 H 0.49102 0.00269 0.56027 0.0
H101 H 0.48517 0.96233 0.50571 0.0
C102 C 0.50447 0.9546 0.54987 0.0
C103 C 0.49812 0.95018 0.52998 0.0
C104 C 0.50227 0.97358 0.56092 0.0
C105 C 0.49284 0.988 0.55202 0.0
C106 C 0.48652 0.98373 0.53214 0.0
C107 C 0.48952 0.96509 0.52122 0.0
N108 N 0.47844 0.99837 0.52223 0.0
C109 C 0.46419 0.0108 0.53019 0.0
H110 H 0.27709 0.3036 0.71303 0.0
H111 H 0.23 0.26737 0.7366 0.0
H112 H 0.25588 0.32124 0.77162 0.0
C113 C 0.26706 0.30103 0.72489 0.0
C114 C 0.26813 0.31466 0.7425 0.0
C115 C 0.25346 0.28383 0.72259 0.0
C116 C 0.24032 0.28068 0.73804 0.0
C117 C 0.24148 0.29419 0.75581 0.0
C118 C 0.25535 0.31092 0.75789 0.0
N119 N 0.22988 0.29106 0.77249 0.0
C120 C 0.21149 0.2802 0.77214 0.0
H121 H 0.80948 0.19937 0.75587 0.0
H122 H 0.84527 0.2402 0.72525 0.0
H123 H 0.78655 0.21852 0.70328 0.0
C124 C 0.81112 0.20849 0.74406 0.0
C125 C 0.79573 0.20764 0.72992 0.0
C126 C 0.82908 0.22009 0.74249 0.0
C127 C 0.8315 0.2311 0.72664 0.0
C128 C 0.8162 0.23094 0.71271 0.0
C129 C 0.79827 0.21909 0.71427 0.0
N130 N 0.81987 0.24239 0.69706 0.0
C131 C 0.80547 0.249 0.68551 0.0
H132 H 0.57214 0.52353 0.59402 0.0
H133 H 0.57423 0.54657 0.53828 0.0
H134 H 0.52763 0.5611 0.579 0.0
C135 C 0.56614 0.53249 0.58381 0.0
C136 C 0.54907 0.54251 0.58893 0.0
C137 C 0.57538 0.53381 0.56555 0.0
C138 C 0.56731 0.54544 0.55238 0.0
C139 C 0.55008 0.55534 0.55738 0.0
C140 C 0.54109 0.55368 0.57548 0.0
N141 N 0.54077 0.56651 0.54442 0.0
C142 C 0.54991 0.57502 0.52911 0.0
H143 H 0.56611 0.505 0.96816 0.0
H144 H 0.57984 0.45873 0.00222 0.0
H145 H 0.52851 0.44987 0.96362 0.0
C146 C 0.5624 0.49042 0.97269 0.0
C147 C 0.54553 0.47854 0.96447 0.0
C148 C 0.57497 0.48338 0.98617 0.0
C149 C 0.57014 0.46441 0.99203 0.0
C150 C 0.5531 0.45251 0.98407 0.0
C151 C 0.54115 0.45952 0.97018 0.0
N152 N 0.54827 0.43281 0.9885 0.0
C153 C 0.55091 0.42684 0.0069 0.0
H154 H 0.76514 0.21097 0.33364 0.0
H155 H 0.71657 0.23534 0.30636 0.0
H156 H 0.74208 0.18319 0.2767 0.0
C157 C 0.75489 0.2107 0.32134 0.0
C158 C 0.75535 0.19538 0.30514 0.0
C159 C 0.74095 0.22525 0.32202 0.0
C160 C 0.7272 0.22413 0.3062 0.0
C161 C 0.72763 0.20884 0.28989 0.0
C162 C 0.74171 0.19471 0.28948 0.0
N163 N 0.71451 0.20724 0.27334 0.0
C164 C 0.69799 0.21805 0.27218 0.0
H165 H 0.4511 0.0525 0.01518 0.0
H166 H 0.5092 0.05912 0.98982 0.0
H167 H 0.47442 0.00261 0.97859 0.0
C168 C 0.46255 0.04645 0.00559 0.0
C169 C 0.46017 0.02621 0.99673 0.0
C170 C 0.4802 0.05852 0.00332 0.0
C171 C 0.49538 0.05022 0.99153 0.0
C172 C 0.49318 0.03006 0.9827 0.0
C173 C 0.47573 0.0182 0.98541 0.0
N174 N 0.50934 0.02067 0.97335 0.0
C175 C 0.51784 0.02582 0.95613 0.0
Li176 Li 0.27939 0.89437 0.02227 0.0
Li177 Li 0.2637 0.87021 0.04024 0.0
Li178 Li 0.25805 0.86685 0.00419 0.0
Li179 Li 0.24371 0.89492 0.02885 0.0
C180 C 0.30279 0.8636 0.02051 0.0
N181 N 0.34324 0.86104 0.0241 0.0
C182 C 0.3125 0.86974 0.03873 0.0
C183 C 0.3136 0.856 0.00414 0.0
C184 C 0.33297 0.86837 0.04025 0.0
C185 C 0.33406 0.85488 0.00625 0.0
C186 C 0.26615 0.90487 0.06789 0.0
C187 C 0.2486 0.91282 0.09829 0.0
N188 N 0.26619 0.91527 0.1085 0.0
C189 C 0.28406 0.90769 0.07866 0.0
C190 C 0.24827 0.90763 0.07775 0.0
C191 C 0.28376 0.91285 0.09919 0.0
C192 C 0.30645 0.92882 0.03276 0.0
N193 N 0.30285 0.91179 0.01953 0.0
C194 C 0.33222 0.91991 0.00192 0.0
C195 C 0.31522 0.90728 0.00418 0.0
C196 C 0.33641 0.93754 0.01541 0.0
C197 C 0.3232 0.94201 0.03094 0.0
H198 H 0.29624 0.93221 0.04468 0.0
H199 H 0.31176 0.89398 0.99352 0.0
C200 C 0.27725 0.83714 0.05579 0.0
N201 N 0.26654 0.85333 0.06057 0.0
C202 C 0.27983 0.82388 0.06933 0.0
C203 C 0.25973 0.84367 0.0924 0.0
C204 C 0.25756 0.85658 0.07839 0.0
C205 C 0.2711 0.82709 0.08801 0.0
H206 H 0.28373 0.83439 0.04134 0.0
H207 H 0.24835 0.8689 0.08167 0.0
C208 C 0.2662 0.90899 0.99136 0.0
N209 N 0.28529 0.93514 0.96863 0.0
C210 C 0.26706 0.92972 0.99751 0.0
C211 C 0.27491 0.90154 0.97359 0.0
C212 C 0.27684 0.9427 0.98584 0.0
C213 C 0.28451 0.91502 0.96232 0.0
C214 C 0.22855 0.8505 0.03473 0.0
C215 C 0.23216 0.83042 0.02889 0.0
C216 C 0.21615 0.85556 0.05066 0.0
C217 C 0.22341 0.81568 0.03927 0.0
C218 C 0.20765 0.84037 0.06062 0.0
N219 N 0.21145 0.82092 0.05479 0.0
C220 C 0.26398 0.83242 0.97723 0.0
C221 C 0.24033 0.85283 0.96646 0.0
C222 C 0.26177 0.81925 0.95949 0.0
N223 N 0.25348 0.84891 0.98026 0.0
C224 C 0.23753 0.83994 0.94853 0.0
C225 C 0.2485 0.823 0.9448 0.0
H226 H 0.27415 0.82957 0.98858 0.0
H227 H 0.2322 0.8661 0.96931 0.0
C228 C 0.22617 0.93124 0.04004 0.0
N229 N 0.22215 0.91133 0.03338 0.0
C230 C 0.21072 0.94382 0.04333 0.0
C231 C 0.18727 0.91513 0.03301 0.0
C232 C 0.20319 0.90311 0.02982 0.0
C233 C 0.19094 0.93581 0.03978 0.0
H234 H 0.24141 0.9373 0.04287 0.0
H235 H 0.20046 0.88724 0.02443 0.0
O236 O 0.28279 0.86506 0.01871 0.0
O237 O 0.2662 0.90016 0.04775 0.0
O238 O 0.25717 0.89601 0.00282 0.0
O239 O 0.23747 0.86518 0.02515 0.0
H240 H 0.3043 0.87547 0.05156 0.0
H241 H 0.30633 0.85127 0.9899 0.0
H242 H 0.34069 0.87312 0.05426 0.0
H243 H 0.34265 0.84914 0.99368 0.0
H244 H 0.23486 0.91484 0.10612 0.0
H245 H 0.29808 0.90609 0.07125 0.0
H246 H 0.23425 0.90547 0.06971 0.0
H247 H 0.29751 0.91501 0.10771 0.0
H248 H 0.34181 0.91609 0.98953 0.0
H249 H 0.32592 0.95542 0.0417 0.0
H250 H 0.28884 0.81141 0.06526 0.0
H251 H 0.25231 0.8465 0.10641 0.0
H252 H 0.26047 0.9357 0.01127 0.0
H253 H 0.27448 0.88552 0.96869 0.0
H254 H 0.27775 0.95878 0.99048 0.0
H255 H 0.29142 0.90948 0.94859 0.0
H256 H 0.24183 0.82631 0.01664 0.0
H257 H 0.21333 0.87107 0.05542 0.0
H258 H 0.22618 0.80008 0.03502 0.0
H259 H 0.19811 0.84406 0.07306 0.0
H260 H 0.27029 0.8062 0.95734 0.0
H261 H 0.22725 0.84344 0.93755 0.0
H262 H 0.21422 0.95961 0.04879 0.0
H263 H 0.17228 0.90837 0.02986 0.0
Li264 Li 0.14479 0.51647 0.28279 0.0
Li265 Li 0.16868 0.49439 0.26503 0.0
Li266 Li 0.17046 0.53018 0.2606 0.0
Li267 Li 0.14257 0.50562 0.24728 0.0
C268 C 0.18428 0.5185 0.30249 0.0
N269 N 0.20457 0.51778 0.33756 0.0
C270 C 0.18348 0.50089 0.31112 0.0
C271 C 0.19544 0.53572 0.31165 0.0
C272 C 0.19383 0.50083 0.32886 0.0
C273 C 0.20557 0.53506 0.32939 0.0
C274 C 0.12286 0.47687 0.26284 0.0
C275 C 0.10555 0.44993 0.24057 0.0
N276 N 0.08825 0.45389 0.24987 0.0
C277 C 0.10494 0.48056 0.27226 0.0
C278 C 0.12321 0.46132 0.24696 0.0
C279 C 0.08759 0.46882 0.26547 0.0
C280 C 0.11269 0.53242 0.30487 0.0
N281 N 0.12947 0.5228 0.30637 0.0
C282 C 0.12313 0.5209 0.34052 0.0
C283 C 0.13475 0.51695 0.32376 0.0
C284 C 0.10577 0.53092 0.33945 0.0
C285 C 0.1007 0.5368 0.32127 0.0
H286 H 0.10833 0.5364 0.29081 0.0
H287 H 0.14772 0.5088 0.3246 0.0
C288 C 0.20495 0.47653 0.26993 0.0
N289 N 0.18493 0.47275 0.26745 0.0
C290 C 0.21688 0.4609 0.27195 0.0
C291 C 0.18736 0.43781 0.26882 0.0
C292 C 0.17603 0.45387 0.26691 0.0
C293 C 0.20809 0.44119 0.27144 0.0
H294 H 0.21165 0.49172 0.27041 0.0
H295 H 0.16007 0.4513 0.26521 0.0
C296 C 0.1381 0.5527 0.26963 0.0
N297 N 0.13216 0.5917 0.28572 0.0
C298 C 0.12396 0.56313 0.26125 0.0
C299 C 0.14922 0.5621 0.2862 0.0
C300 C 0.12118 0.58284 0.26961 0.0
C301 C 0.146 0.58182 0.29411 0.0
C302 C 0.18524 0.49534 0.23073 0.0
C303 C 0.20471 0.50399 0.23006 0.0
C304 C 0.18069 0.47531 0.22236 0.0
C305 C 0.21936 0.49237 0.22126 0.0
C306 C 0.19577 0.46418 0.21373 0.0
N307 N 0.21464 0.47286 0.21337 0.0
C308 C 0.2066 0.55517 0.2624 0.0
C309 C 0.17973 0.5673 0.24646 0.0
C310 C 0.21925 0.57161 0.25864 0.0
N311 N 0.18727 0.55328 0.25621 0.0
C312 C 0.19171 0.58423 0.24287 0.0
C313 C 0.21176 0.58639 0.24884 0.0
H314 H 0.21225 0.54373 0.26997 0.0
H315 H 0.16443 0.56527 0.24133 0.0
C316 C 0.1047 0.50256 0.22849 0.0
N317 N 0.12417 0.49945 0.22555 0.0
C318 C 0.09103 0.49845 0.21271 0.0
C319 C 0.11779 0.48844 0.19112 0.0
C320 C 0.1309 0.4926 0.20733 0.0
C321 C 0.09753 0.49137 0.19365 0.0
H322 H 0.0998 0.50827 0.24311 0.0
H323 H 0.14651 0.49067 0.2053 0.0
O324 O 0.17465 0.51881 0.28489 0.0
O325 O 0.13994 0.48844 0.26909 0.0
O326 O 0.14097 0.53341 0.26153 0.0
O327 O 0.17077 0.50636 0.23967 0.0
H328 H 0.17475 0.48748 0.30435 0.0
H329 H 0.19626 0.54947 0.30514 0.0
H330 H 0.19329 0.48732 0.33574 0.0
H331 H 0.21425 0.54829 0.33667 0.0
H332 H 0.10558 0.43797 0.2282 0.0
H333 H 0.10437 0.49242 0.28464 0.0
H334 H 0.13692 0.45822 0.23948 0.0
H335 H 0.0736 0.47159 0.27257 0.0
H336 H 0.12744 0.51561 0.35402 0.0
H337 H 0.08757 0.54465 0.31966 0.0
H338 H 0.2328 0.4642 0.27379 0.0
H339 H 0.17987 0.42297 0.26872 0.0
H340 H 0.11523 0.55604 0.24842 0.0
H341 H 0.16019 0.55427 0.2929 0.0
H342 H 0.11029 0.5911 0.26328 0.0
H343 H 0.15449 0.58928 0.30693 0.0
H344 H 0.20849 0.51948 0.23633 0.0
H345 H 0.16574 0.46835 0.22273 0.0
H346 H 0.2345 0.49886 0.22073 0.0
H347 H 0.19248 0.44861 0.20735 0.0
H348 H 0.23468 0.57286 0.26345 0.0
H349 H 0.18552 0.59527 0.2351 0.0
H350 H 0.07555 0.50077 0.21546 0.0
H351 H 0.12361 0.48345 0.17668 0.0
Li352 Li 0.75751 0.61766 0.99343 0.0
Li353 Li 0.77702 0.64717 0.01363 0.0
Li354 Li 0.7792 0.64167 0.9779 0.0
Li355 Li 0.79503 0.62039 0.99692 0.0
C356 C 0.74741 0.66138 0.98546 0.0
N357 N 0.73347 0.69118 0.96658 0.0
C358 C 0.75436 0.68147 0.99127 0.0
C359 C 0.73334 0.65643 0.9701 0.0
C360 C 0.74714 0.69632 0.98153 0.0
C361 C 0.72648 0.67172 0.96074 0.0
C362 C 0.77063 0.61935 0.03727 0.0
C363 C 0.78072 0.62841 0.07153 0.0
N364 N 0.76208 0.62257 0.07705 0.0
C365 C 0.75158 0.61339 0.0433 0.0
C366 C 0.78535 0.62686 0.0515 0.0
C367 C 0.74756 0.61514 0.06348 0.0
C368 C 0.73614 0.58028 0.99421 0.0
N369 N 0.73406 0.5999 0.99282 0.0
C370 C 0.69868 0.59413 0.99328 0.0
C371 C 0.71583 0.60701 0.99235 0.0
C372 C 0.70029 0.57376 0.995 0.0
C373 C 0.7194 0.5669 0.99537 0.0
H374 H 0.75087 0.57514 0.99486 0.0
H375 H 0.71461 0.62276 0.99156 0.0
C376 C 0.7906 0.68098 0.04168 0.0
N377 N 0.77525 0.66686 0.03649 0.0
C378 C 0.7896 0.69505 0.05871 0.0
C379 C 0.75686 0.68 0.06453 0.0
C380 C 0.75839 0.66643 0.04724 0.0
C381 C 0.77266 0.69455 0.0706 0.0
H382 H 0.80361 0.68137 0.03257 0.0
H383 H 0.74622 0.6553 0.04255 0.0
C384 C 0.77567 0.60679 0.95285 0.0
N385 N 0.77127 0.59677 0.91233 0.0
C386 C 0.79171 0.61013 0.94055 0.0
C387 C 0.75742 0.59828 0.94454 0.0
C388 C 0.78917 0.605 0.9201 0.0
C389 C 0.75549 0.59332 0.92402 0.0
C390 C 0.82119 0.65012 0.99815 0.0
C391 C 0.83189 0.6489 0.98062 0.0
C392 C 0.83128 0.6509 0.01619 0.0
C393 C 0.85253 0.64844 0.98145 0.0
C394 C 0.85192 0.65035 0.01639 0.0
N395 N 0.86203 0.64914 0.99917 0.0
C396 C 0.79403 0.67374 0.95868 0.0
C397 C 0.77041 0.65176 0.93878 0.0
C398 C 0.7963 0.68618 0.94405 0.0
N399 N 0.78143 0.65675 0.95578 0.0
C400 C 0.77236 0.66369 0.92365 0.0
C401 C 0.78543 0.6812 0.92621 0.0
H402 H 0.80219 0.67781 0.97251 0.0
H403 H 0.7598 0.63874 0.93704 0.0
C404 C 0.82054 0.59778 0.01651 0.0
N405 N 0.817 0.60432 0.99901 0.0
C406 C 0.83653 0.58632 0.01866 0.0
C407 C 0.84483 0.58816 0.98462 0.0
C408 C 0.82865 0.59956 0.98313 0.0
C409 C 0.849 0.58141 0.0026 0.0
H410 H 0.81098 0.6015 0.02886 0.0
H411 H 0.82548 0.60473 0.96933 0.0
O412 O 0.75477 0.6466 0.99441 0.0
O413 O 0.77479 0.61801 0.01756 0.0
O414 O 0.77787 0.61151 0.97292 0.0
O415 O 0.80092 0.65009 0.9976 0.0
H416 H 0.76538 0.68552 0.00302 0.0
H417 H 0.72805 0.64092 0.96521 0.0
H418 H 0.75245 0.71192 0.98579 0.0
H419 H 0.71568 0.66811 0.94874 0.0
H420 H 0.79193 0.63434 0.08268 0.0
H421 H 0.73996 0.60762 0.03257 0.0
H422 H 0.80011 0.63174 0.04715 0.0
H423 H 0.73286 0.61065 0.06834 0.0
H424 H 0.68433 0.60011 0.99262 0.0
H425 H 0.72149 0.55148 0.99701 0.0
H426 H 0.80196 0.70627 0.0624 0.0
H427 H 0.74358 0.67877 0.07321 0.0
H428 H 0.80585 0.61696 0.94666 0.0
H429 H 0.74485 0.59556 0.95381 0.0
H430 H 0.80141 0.60764 0.9104 0.0
H431 H 0.74144 0.58677 0.91739 0.0
H432 H 0.82434 0.64803 0.9665 0.0
H433 H 0.82325 0.65171 0.02988 0.0
H434 H 0.86098 0.64739 0.968 0.0
H435 H 0.85989 0.65083 0.03024 0.0
H436 H 0.80655 0.69953 0.94667 0.0
H437 H 0.76337 0.65952 0.9103 0.0
H438 H 0.83927 0.58166 0.03287 0.0
H439 H 0.85386 0.58453 0.97176 0.0
Li440 Li 0.89993 0.04188 0.27575 0.0
Li441 Li 0.92413 0.02191 0.28678 0.0
Li442 Li 0.92308 0.02829 0.25106 0.0
Li443 Li 0.89707 0.00586 0.26568 0.0
C444 C 0.93293 0.06785 0.27973 0.0
N445 N 0.94012 0.10914 0.28797 0.0
C446 C 0.92915 0.07787 0.29852 0.0
C447 C 0.94049 0.07881 0.26516 0.0
C448 C 0.93283 0.09876 0.30238 0.0
C449 C 0.94401 0.09968 0.26962 0.0
C450 C 0.89655 0.01885 0.31223 0.0
C451 C 0.90175 0.99895 0.33818 0.0
N452 N 0.90039 0.0155 0.35188 0.0
C453 C 0.89522 0.03567 0.32659 0.0
C454 C 0.89982 1.00033 0.31807 0.0
C455 C 0.89716 0.03366 0.34656 0.0
C456 C 0.86716 0.06033 0.29316 0.0
N457 N 0.88355 0.06397 0.28233 0.0
C458 C 0.87385 0.0967 0.27898 0.0
C459 C 0.88696 0.08167 0.27507 0.0
C460 C 0.85681 0.09332 0.29013 0.0
C461 C 0.85359 0.07486 0.29731 0.0
H462 H 0.86437 0.0459 0.2982 0.0
H463 H 0.89949 0.08395 0.26567 0.0
C464 C 0.95144 1.00078 0.30551 0.0
N465 N 0.94217 0.01809 0.30751 0.0
C466 C 0.96361 0.99657 0.32071 0.0
C467 C 0.95705 0.02839 0.3396 0.0
C468 C 0.94504 0.03201 0.32398 0.0
C469 C 0.96636 0.01035 0.33818 0.0
H470 H 0.94926 0.99011 0.29215 0.0
H471 H 0.93763 0.0457 0.32525 0.0
C472 C 0.87738 0.03536 0.24341 0.0
N473 N 0.84398 0.05374 0.23467 0.0
C474 C 0.85865 0.02818 0.24924 0.0
C475 C 0.87913 0.05183 0.23307 0.0
C476 C 0.84194 0.0377 0.24469 0.0
C477 C 0.86206 0.06093 0.2288 0.0
C478 C 0.9257 0.98312 0.25302 0.0
C479 C 0.92899 0.97896 0.23272 0.0
C480 C 0.92155 0.96725 0.26387 0.0
C481 C 0.92795 0.95898 0.2236 0.0
C482 C 0.92059 0.94748 0.25419 0.0
N483 N 0.92379 0.94379 0.23442 0.0
C484 C 0.95872 0.03117 0.23056 0.0
C485 C 0.93027 0.03431 0.21111 0.0
C486 C 0.97103 0.03269 0.2144 0.0
N487 N 0.93876 0.03188 0.2286 0.0
C488 C 0.94207 0.03611 0.19459 0.0
C489 C 0.96272 0.03508 0.19608 0.0
H490 H 0.96501 0.02915 0.24466 0.0
H491 H 0.91432 0.03447 0.20987 0.0
C492 C 0.86865 0.97526 0.27437 0.0
N493 N 0.87912 0.98228 0.25952 0.0
C494 C 0.85622 0.95752 0.27061 0.0
C495 C 0.86492 0.95493 0.23615 0.0
C496 C 0.87719 0.97276 0.24059 0.0
C497 C 0.85441 0.94693 0.25133 0.0
H498 H 0.86995 0.98341 0.28917 0.0
H499 H 0.88545 0.97885 0.229 0.0
O500 O 0.92954 0.04741 0.27563 0.0
O501 O 0.895 0.02057 0.29257 0.0
O502 O 0.89395 0.02664 0.2483 0.0
O503 O 0.92633 0.00261 0.26216 0.0
H504 H 0.92307 0.06967 0.30987 0.0
H505 H 0.94354 0.07129 0.25055 0.0
H506 H 0.92982 0.10673 0.3168 0.0
H507 H 0.94981 0.10836 0.25848 0.0
H508 H 0.90442 0.98474 0.34287 0.0
H509 H 0.89299 0.05019 0.32241 0.0
H510 H 0.90118 0.98721 0.30719 0.0
H511 H 0.89624 0.04657 0.35781 0.0
H512 H 0.87665 0.11052 0.27275 0.0
H513 H 0.84066 0.07161 0.30597 0.0
H514 H 0.9708 0.98266 0.31876 0.0
H515 H 0.95857 0.03939 0.35283 0.0
H516 H 0.85706 0.01557 0.25742 0.0
H517 H 0.89355 0.05778 0.22874 0.0
H518 H 0.82737 0.03238 0.24921 0.0
H519 H 0.8632 0.07378 0.22094 0.0
H520 H 0.93215 0.99101 0.22406 0.0
H521 H 0.9188 0.97017 0.27955 0.0
H522 H 0.93039 0.95555 0.20789 0.0
H523 H 0.91724 0.93508 0.26238 0.0
H524 H 0.98689 0.03198 0.21622 0.0
H525 H 0.93505 0.03766 0.18067 0.0
H526 H 0.84805 0.9522 0.28268 0.0
H527 H 0.86406 0.94725 0.22109 0.0
Li528 Li 0.26819 0.14906 0.53414 0.0
Li529 Li 0.25322 0.11999 0.51144 0.0
Li530 Li 0.29046 0.12479 0.51844 0.0
Li531 Li 0.27448 0.14574 0.49717 0.0
C532 C 0.26548 0.11842 0.55616 0.0
N533 N 0.25986 0.11578 0.59575 0.0
C534 C 0.24721 0.11064 0.56255 0.0
C535 C 0.28098 0.12453 0.56988 0.0
C536 C 0.24463 0.10951 0.58263 0.0
C537 C 0.27783 0.12317 0.58984 0.0
C538 C 0.22989 0.15091 0.50645 0.0
C539 C 0.20396 0.14783 0.48153 0.0
N540 N 0.19097 0.15446 0.49566 0.0
C541 C 0.21636 0.15795 0.52068 0.0
C542 C 0.22372 0.14603 0.48668 0.0
C543 C 0.19673 0.15954 0.51495 0.0
C544 C 0.27709 0.18334 0.56288 0.0
N545 N 0.26384 0.16713 0.55773 0.0
C546 C 0.24556 0.17566 0.58724 0.0
C547 C 0.24806 0.16333 0.56931 0.0
C548 C 0.25938 0.19217 0.59327 0.0
C549 C 0.27515 0.19609 0.58065 0.0
H550 H 0.28927 0.18632 0.55325 0.0
H551 H 0.23753 0.15053 0.56476 0.0
C552 C 0.23222 0.08298 0.49525 0.0
N553 N 0.23059 0.10065 0.50727 0.0
C554 C 0.21613 0.06837 0.49244 0.0
C555 C 0.19704 0.09028 0.51462 0.0
C556 C 0.21348 0.10444 0.517 0.0
C557 C 0.1982 0.07191 0.5022 0.0
H558 H 0.24611 0.0801 0.48802 0.0
H559 H 0.21268 0.11834 0.52691 0.0
C560 C 0.31304 0.16064 0.52352 0.0
N561 N 0.35294 0.17231 0.53063 0.0
C562 C 0.32498 0.1665 0.50838 0.0
C563 C 0.32133 0.16104 0.54237 0.0
C564 C 0.34513 0.17227 0.51225 0.0
C565 C 0.34154 0.16688 0.54565 0.0
C566 C 0.27779 0.10935 0.47316 0.0
C567 C 0.29626 0.10428 0.4658 0.0
C568 C 0.26136 0.1074 0.46031 0.0
C569 C 0.2981 0.09779 0.44559 0.0
C570 C 0.26378 0.10086 0.4402 0.0
N571 N 0.28196 0.09626 0.43331 0.0
C572 C 0.31277 0.09756 0.53529 0.0
C573 C 0.33065 0.11508 0.51247 0.0
C574 C 0.32937 0.08739 0.53878 0.0
N575 N 0.31372 0.11122 0.52244 0.0
C576 C 0.34761 0.10526 0.5155 0.0
C577 C 0.34714 0.09117 0.52883 0.0
H578 H 0.29908 0.09448 0.54281 0.0
H579 H 0.33095 0.12563 0.50197 0.0
C580 C 0.26627 0.1755 0.47362 0.0
N581 N 0.27809 0.16037 0.47504 0.0
C582 C 0.26881 0.18718 0.45836 0.0
C583 C 0.29575 0.16763 0.44625 0.0
C584 C 0.29265 0.15629 0.46173 0.0
C585 C 0.28383 0.18345 0.44446 0.0
H586 H 0.25498 0.1787 0.48452 0.0
H587 H 0.30229 0.14462 0.46343 0.0
O588 O 0.2682 0.11988 0.53657 0.0
O589 O 0.24914 0.14911 0.51184 0.0
O590 O 0.29329 0.15481 0.51996 0.0
O591 O 0.27576 0.11584 0.4929 0.0
H592 H 0.23512 0.10562 0.55215 0.0
H593 H 0.29532 0.13018 0.56517 0.0
H594 H 0.23053 0.10364 0.58779 0.0
H595 H 0.28968 0.12795 0.60061 0.0
H596 H 0.19897 0.14403 0.46629 0.0
H597 H 0.22093 0.16203 0.53601 0.0
H598 H 0.2341 0.14108 0.47541 0.0
H599 H 0.18606 0.16482 0.52583 0.0
H600 H 0.23323 0.17197 0.59649 0.0
H601 H 0.28592 0.2089 0.58444 0.0
H602 H 0.21786 0.05432 0.48298 0.0
H603 H 0.18351 0.09379 0.52234 0.0
H604 H 0.31881 0.16654 0.49379 0.0
H605 H 0.31227 0.15698 0.55436 0.0
H606 H 0.35457 0.17672 0.50062 0.0
H607 H 0.34816 0.16716 0.56014 0.0
H608 H 0.30909 0.10546 0.47555 0.0
H609 H 0.24685 0.11073 0.46581 0.0
H610 H 0.31235 0.09397 0.43968 0.0
H611 H 0.2512 0.09937 0.43007 0.0
H612 H 0.32831 0.07677 0.54927 0.0
H613 H 0.36081 0.10837 0.50718 0.0
H614 H 0.25908 0.19904 0.4575 0.0
H615 H 0.30776 0.16439 0.43615 0.0
Li616 Li 0.42528 0.52025 0.79831 0.0
Li617 Li 0.39808 0.53808 0.78185 0.0
Li618 Li 0.4011 0.50154 0.77483 0.0
Li619 Li 0.42502 0.52354 0.76291 0.0
C620 C 0.38077 0.50642 0.80802 0.0
N621 N 0.35031 0.48221 0.82134 0.0
C622 C 0.36136 0.5067 0.80093 0.0
C623 C 0.38469 0.49394 0.82198 0.0
C624 C 0.34617 0.4943 0.80781 0.0
C625 C 0.36908 0.48179 0.82852 0.0
C626 C 0.44095 0.55918 0.77976 0.0
C627 C 0.44948 0.58913 0.76513 0.0
N628 N 0.46903 0.58572 0.76607 0.0
C629 C 0.46111 0.55604 0.78072 0.0
C630 C 0.43505 0.57589 0.772 0.0
C631 C 0.47508 0.5696 0.77365 0.0
C632 C 0.46006 0.51515 0.81881 0.0
N633 N 0.44104 0.52012 0.82131 0.0
C634 C 0.44443 0.52196 0.85636 0.0
C635 C 0.43317 0.52382 0.8396 0.0
C636 C 0.46399 0.51629 0.85422 0.0
C637 C 0.47185 0.51313 0.83513 0.0
H638 H 0.46586 0.51214 0.80406 0.0
H639 H 0.41801 0.52785 0.84112 0.0
C640 C 0.36289 0.55577 0.77535 0.0
N641 N 0.38029 0.55868 0.78584 0.0
C642 C 0.34945 0.57056 0.77735 0.0
C643 C 0.37183 0.59091 0.80134 0.0
C644 C 0.38494 0.57574 0.79876 0.0
C645 C 0.35387 0.58847 0.79042 0.0
H646 H 0.35952 0.54196 0.7653 0.0
H647 H 0.39889 0.57761 0.80695 0.0
C648 C 0.43291 0.48008 0.77231 0.0
N649 N 0.43789 0.43941 0.76558 0.0
C650 C 0.43057 0.46942 0.75323 0.0
C651 C 0.43803 0.4701 0.78794 0.0
C652 C 0.43307 0.44885 0.75014 0.0
C653 C 0.44043 0.44952 0.78424 0.0
C654 C 0.39519 0.52266 0.73683 0.0
C655 C 0.39867 0.50662 0.72224 0.0
C656 C 0.39072 0.54099 0.73133 0.0
C657 C 0.39792 0.50928 0.70237 0.0
C658 C 0.39007 0.54304 0.71129 0.0
N659 N 0.39368 0.52728 0.69735 0.0
C660 C 0.37094 0.47423 0.7549 0.0
C661 C 0.38735 0.46159 0.7806 0.0
C662 C 0.35851 0.45648 0.75095 0.0
N663 N 0.38507 0.47644 0.76947 0.0
C664 C 0.37537 0.44357 0.77709 0.0
C665 C 0.36062 0.44082 0.76215 0.0
H666 H 0.36908 0.48641 0.74654 0.0
H667 H 0.39828 0.46382 0.79246 0.0
C668 C 0.45734 0.51434 0.73813 0.0
N669 N 0.44287 0.52724 0.74161 0.0
C670 C 0.4705 0.51586 0.72263 0.0
C671 C 0.45405 0.54429 0.71483 0.0
C672 C 0.44126 0.54226 0.73053 0.0
C673 C 0.46885 0.53088 0.71059 0.0
H674 H 0.45874 0.50287 0.74744 0.0
H675 H 0.43004 0.5527 0.73382 0.0
O676 O 0.3959 0.51809 0.8011 0.0
O677 O 0.42703 0.54588 0.78625 0.0
O678 O 0.43052 0.50024 0.77562 0.0
O679 O 0.39588 0.52034 0.75637 0.0
H680 H 0.35812 0.51619 0.79004 0.0
H681 H 0.39967 0.49339 0.82746 0.0
H682 H 0.33109 0.49425 0.80235 0.0
H683 H 0.37191 0.47196 0.83921 0.0
H684 H 0.44514 0.60207 0.75898 0.0
H685 H 0.46589 0.54313 0.78663 0.0
H686 H 0.41948 0.57846 0.77108 0.0
H687 H 0.49074 0.56729 0.77416 0.0
H688 H 0.43787 0.5248 0.8708 0.0
H689 H 0.48672 0.50847 0.83272 0.0
H690 H 0.33565 0.56793 0.76887 0.0
H691 H 0.37586 0.60453 0.81148 0.0
H692 H 0.42688 0.47694 0.74093 0.0
H693 H 0.43979 0.47805 0.80283 0.0
H694 H 0.4312 0.4404 0.73546 0.0
H695 H 0.44423 0.44158 0.79623 0.0
H696 H 0.40186 0.49226 0.72622 0.0
H697 H 0.38816 0.55364 0.74239 0.0
H698 H 0.40067 0.49701 0.69094 0.0
H699 H 0.38679 0.55719 0.70683 0.0
H700 H 0.3471 0.45524 0.73955 0.0
H701 H 0.37772 0.43191 0.78601 0.0
H702 H 0.48195 0.50546 0.72023 0.0
H703 H 0.45209 0.55605 0.70592 0.0
Li704 Li 0.77415 0.39961 0.52216 0.0
Li705 Li 0.7574 0.37633 0.54002 0.0
Li706 Li 0.75257 0.37252 0.50377 0.0
Li707 Li 0.73836 0.4014 0.5279 0.0
C708 C 0.79663 0.36862 0.51682 0.0
N709 N 0.837 0.36581 0.51235 0.0
C710 C 0.80955 0.37361 0.53314 0.0
C711 C 0.80421 0.36197 0.49826 0.0
C712 C 0.82991 0.37217 0.53057 0.0
C713 C 0.82468 0.3607 0.49629 0.0
C714 C 0.76116 0.40921 0.5675 0.0
C715 C 0.74508 0.4165 0.59884 0.0
N716 N 0.76262 0.4154 0.60834 0.0
C717 C 0.77906 0.40835 0.57757 0.0
C718 C 0.74404 0.41345 0.57819 0.0
C719 C 0.77948 0.41144 0.59823 0.0
C720 C 0.80279 0.4324 0.53433 0.0
N721 N 0.79811 0.41663 0.51984 0.0
C722 C 0.82693 0.42564 0.50181 0.0
C723 C 0.80967 0.41324 0.50366 0.0
C724 C 0.83222 0.44194 0.5166 0.0
C725 C 0.81984 0.44535 0.53298 0.0
H726 H 0.79322 0.435 0.5469 0.0
H727 H 0.80539 0.40103 0.49202 0.0
C728 C 0.77188 0.34491 0.5575 0.0
N729 N 0.75937 0.35981 0.56078 0.0
C730 C 0.77397 0.33187 0.57136 0.0
C731 C 0.74992 0.34935 0.59171 0.0
C732 C 0.74829 0.36206 0.57741 0.0
C733 C 0.76294 0.33399 0.58879 0.0
H734 H 0.78019 0.34298 0.54401 0.0
H735 H 0.73789 0.37347 0.57949 0.0
C736 C 0.76146 0.41545 0.49141 0.0
N737 N 0.78007 0.44318 0.47007 0.0
C738 C 0.76263 0.43593 0.49885 0.0
C739 C 0.76961 0.40906 0.47306 0.0
C740 C 0.77216 0.44972 0.48787 0.0
C741 C 0.77898 0.42332 0.4625 0.0
C742 C 0.72123 0.35811 0.53431 0.0
C743 C 0.72461 0.33777 0.53026 0.0
C744 C 0.7076 0.36445 0.54872 0.0
C745 C 0.71442 0.32408 0.54091 0.0
C746 C 0.69767 0.35028 0.55901 0.0
N747 N 0.70128 0.33057 0.55494 0.0
C748 C 0.7564 0.33614 0.47939 0.0
C749 C 0.73807 0.35865 0.46442 0.0
C750 C 0.75502 0.32231 0.46208 0.0
N751 N 0.74827 0.35401 0.48013 0.0
C752 C 0.73617 0.34513 0.44681 0.0
C753 C 0.745 0.32681 0.44541 0.0
H754 H 0.76429 0.33281 0.49219 0.0
H755 H 0.73174 0.37298 0.46545 0.0
C756 C 0.72215 0.438 0.54068 0.0
N757 N 0.71747 0.4188 0.53184 0.0
C758 C 0.70744 0.45145 0.54394 0.0
C759 C 0.68336 0.42522 0.52869 0.0
C760 C 0.69856 0.41223 0.52576 0.0
C761 C 0.6877 0.44513 0.53797 0.0
H762 H 0.73735 0.44282 0.54527 0.0
H763 H 0.69529 0.39689 0.51872 0.0
O764 O 0.77664 0.37005 0.51904 0.0
O765 O 0.76048 0.40631 0.54728 0.0
O766 O 0.75257 0.4017 0.50213 0.0
O767 O 0.7314 0.37179 0.52438 0.0
H768 H 0.80389 0.37854 0.54763 0.0
H769 H 0.79446 0.35815 0.48543 0.0
H770 H 0.84009 0.37608 0.54307 0.0
H771 H 0.83077 0.35573 0.48199 0.0
H772 H 0.73192 0.41964 0.6073 0.0
H773 H 0.79251 0.40541 0.56954 0.0
H774 H 0.73002 0.41405 0.57066 0.0
H775 H 0.79322 0.41073 0.60621 0.0
H776 H 0.83586 0.4227 0.48876 0.0
H777 H 0.82341 0.45773 0.54472 0.0
H778 H 0.78433 0.32039 0.5685 0.0
H779 H 0.74084 0.35133 0.60474 0.0
H780 H 0.75648 0.44109 0.51308 0.0
H781 H 0.76893 0.39324 0.46716 0.0
H782 H 0.77331 0.46561 0.49351 0.0
H783 H 0.78546 0.4186 0.44833 0.0
H784 H 0.73519 0.33267 0.51919 0.0
H785 H 0.70492 0.38017 0.55208 0.0
H786 H 0.71699 0.30831 0.53806 0.0
H787 H 0.68716 0.35497 0.57029 0.0
H788 H 0.76178 0.30824 0.46173 0.0
H789 H 0.72841 0.34921 0.43426 0.0
H790 H 0.71155 0.46671 0.55089 0.0
H791 H 0.66833 0.41963 0.52404 0.0
Li792 Li 0.65838 0.99629 0.7574 0.0
Li793 Li 0.63485 0.01796 0.77525 0.0
Li794 Li 0.63208 0.00915 0.738 0.0
Li795 Li 0.65847 0.03331 0.75416 0.0
C796 C 0.62253 0.97114 0.75605 0.0
N797 N 0.60944 0.93076 0.75053 0.0
C798 C 0.61663 0.96163 0.7722 0.0
C799 C 0.62134 0.96017 0.73705 0.0
C800 C 0.61019 0.94119 0.76912 0.0
C801 C 0.61479 0.93976 0.73457 0.0
C802 C 0.66764 0.02499 0.79777 0.0
C803 C 0.66732 0.04829 0.82804 0.0
N804 N 0.67307 0.03383 0.8383 0.0
C805 C 0.67378 0.01044 0.8086 0.0
C806 C 0.66459 0.04414 0.80755 0.0
C807 C 0.67637 0.01517 0.82908 0.0
C808 C 0.69097 0.97184 0.74839 0.0
N809 N 0.67445 0.97435 0.75951 0.0
C810 C 0.68116 0.94661 0.77606 0.0
C811 C 0.66941 0.96208 0.77315 0.0
C812 C 0.69825 0.94359 0.76475 0.0
C813 C 0.703 0.95632 0.7506 0.0
H814 H 0.69501 0.98208 0.738 0.0
H815 H 0.65657 0.96467 0.78221 0.0
C816 C 0.60741 0.03655 0.80237 0.0
N817 N 0.62002 0.02171 0.79914 0.0
C818 C 0.5961 0.03874 0.81953 0.0
C819 C 0.61095 0.01036 0.82969 0.0
C820 C 0.62205 0.00882 0.81244 0.0
C821 C 0.59762 0.02537 0.83335 0.0
H822 H 0.60588 0.04648 0.79148 0.0
H823 H 0.63222 0.9972 0.80958 0.0
C824 C 0.66648 1.00167 0.71474 0.0
N825 N 0.67709 0.98518 0.67725 0.0
C826 C 0.67469 0.01403 0.7016 0.0
C827 C 0.66404 0.98088 0.70891 0.0
C828 C 0.67984 0.00543 0.68268 0.0
C829 C 0.6694 0.97284 0.68988 0.0
C830 C 0.62685 0.05463 0.75215 0.0
C831 C 0.62015 0.05861 0.73384 0.0
C832 C 0.6313 0.07056 0.76741 0.0
C833 C 0.61839 0.07849 0.73097 0.0
C834 C 0.62938 0.09024 0.76396 0.0
N835 N 0.62304 0.09377 0.74596 0.0
C836 C 0.59548 0.99525 0.718 0.0
C837 C 0.61972 0.00984 0.69829 0.0
C838 C 0.5817 0.99229 0.70228 0.0
N839 N 0.6141 0.00383 0.71572 0.0
C840 C 0.60644 0.00724 0.68223 0.0
C841 C 0.58707 0.99846 0.68411 0.0
H842 H 0.59124 0.99095 0.73214 0.0
H843 H 0.63435 0.0172 0.69697 0.0
C844 C 0.6884 0.06555 0.76434 0.0
N845 N 0.67451 0.05716 0.75047 0.0
C846 C 0.69995 0.08312 0.76177 0.0
C847 C 0.68283 0.083 0.73062 0.0
C848 C 0.67164 0.06545 0.73379 0.0
C849 C 0.69724 0.09212 0.74472 0.0
H850 H 0.6906 0.05854 0.77735 0.0
H851 H 0.66058 0.05843 0.72294 0.0
O852 O 0.62884 0.9912 0.75882 0.0
O853 O 0.66467 0.02052 0.77774 0.0
O854 O 0.6613 0.0099 0.73332 0.0
O855 O 0.62898 0.03525 0.75512 0.0
H856 H 0.61712 0.96989 0.78698 0.0
H857 H 0.62516 0.96734 0.7243 0.0
H858 H 0.60576 0.93363 0.78152 0.0
H859 H 0.61387 0.93111 0.71994 0.0
H860 H 0.66487 0.06302 0.83579 0.0
H861 H 0.67647 0.99564 0.80131 0.0
H862 H 0.66014 0.05567 0.79941 0.0
H863 H 0.68099 0.004 0.83763 0.0
H864 H 0.67694 0.93711 0.7871 0.0
H865 H 0.71619 0.95465 0.74177 0.0
H866 H 0.58586 0.05039 0.82168 0.0
H867 H 0.61278 0.9999 0.84005 0.0
H868 H 0.67699 0.03011 0.7059 0.0
H869 H 0.65842 0.971 0.71906 0.0
H870 H 0.68607 0.01484 0.67233 0.0
H871 H 0.66755 0.95677 0.6852 0.0
H872 H 0.61644 0.04651 0.72192 0.0
H873 H 0.63621 0.06779 0.78174 0.0
H874 H 0.61335 0.08177 0.71683 0.0
H875 H 0.63291 0.1027 0.77561 0.0
H876 H 0.56686 0.9857 0.70449 0.0
H877 H 0.61131 0.01209 0.66848 0.0
H878 H 0.71111 0.0894 0.77288 0.0
H879 H 0.68007 0.08947 0.71735 0.0
Li880 Li 0.03344 0.2483 0.88546 0.0
Li881 Li 0.01331 0.2688 0.9094 0.0
Li882 Li 0.01705 0.23193 0.91077 0.0
Li883 Li 0.99642 0.24196 0.88474 0.0
C884 C 0.05739 0.26119 0.9156 0.0
N885 N 0.09747 0.27339 0.91615 0.0
C886 C 0.06373 0.28166 0.91848 0.0
C887 C 0.07141 0.24692 0.91318 0.0
C888 C 0.08407 0.28753 0.91868 0.0
C889 C 0.09161 0.25339 0.91343 0.0
C890 C 0.00512 0.28115 0.87137 0.0
C891 C 0.97724 0.29969 0.86508 0.0
N892 N 0.98884 0.31042 0.85345 0.0
C893 C 0.01672 0.29224 0.85921 0.0
C894 C 0.98519 0.28481 0.87422 0.0
C895 C 0.00824 0.30703 0.85035 0.0
C896 C 0.06205 0.23251 0.8584 0.0
N897 N 0.05612 0.24962 0.86892 0.0
C898 C 0.08169 0.26947 0.85482 0.0
C899 C 0.06558 0.26789 0.86739 0.0
C900 C 0.08814 0.25206 0.84369 0.0
C901 C 0.07817 0.23337 0.84571 0.0
H902 H 0.05412 0.21819 0.85964 0.0
H903 H 0.06053 0.28127 0.87588 0.0
C904 C 0.00758 0.29454 0.94458 0.0
N905 N 0.01086 0.2944 0.92497 0.0
C906 C 0.00503 0.31257 0.95684 0.0
C907 C 0.0093 0.33004 0.9285 0.0
C908 C 0.01201 0.31171 0.91685 0.0
C909 C 0.0057 0.33071 0.94883 0.0
H910 H 0.00688 0.28056 0.95068 0.0
H911 H 0.01495 0.31136 0.90132 0.0
C912 C 0.0168 0.20197 0.88065 0.0
N913 N 0.01624 0.16078 0.87914 0.0
C914 C 0.99954 0.18971 0.87455 0.0
C915 C 0.03383 0.19328 0.8858 0.0
C916 C 0.99955 0.16891 0.87392 0.0
C917 C 0.03323 0.17242 0.885 0.0
C918 C 0.9739 0.24831 0.92067 0.0
C919 C 0.96369 0.23184 0.92749 0.0
C920 C 0.96483 0.26632 0.92146 0.0
C921 C 0.94441 0.2335 0.93451 0.0
C922 C 0.94554 0.26739 0.92859 0.0
N923 N 0.9358 0.25109 0.93489 0.0
C924 C 0.03423 0.21505 0.94192 0.0
C925 C 0.00561 0.19613 0.92697 0.0
C926 C 0.03637 0.20085 0.95465 0.0
N927 N 0.0191 0.21239 0.92834 0.0
C928 C 0.00723 0.18153 0.93933 0.0
C929 C 0.0228 0.18372 0.95341 0.0
H930 H 0.04467 0.2282 0.94285 0.0
H931 H 0.99372 0.19431 0.91607 0.0
C932 C 0.97699 0.23912 0.84836 0.0
N933 N 0.97399 0.23541 0.86718 0.0
C934 C 0.96138 0.2359 0.83453 0.0
C935 C 0.93996 0.22421 0.85943 0.0
C936 C 0.95601 0.2278 0.87283 0.0
C937 C 0.94247 0.22848 0.84 0.0
H938 H 0.99151 0.24497 0.84418 0.0
H939 H 0.95406 0.22448 0.8877 0.0
O940 O 0.03755 0.25516 0.91496 0.0
O941 O 0.01324 0.26661 0.88015 0.0
O942 O 0.01701 0.22237 0.88151 0.0
O943 O 0.99288 0.24697 0.91393 0.0
H944 H 0.05306 0.29289 0.92035 0.0
H945 H 0.06672 0.23102 0.91094 0.0
H946 H 0.08921 0.30332 0.92078 0.0
H947 H 0.10262 0.24252 0.91144 0.0
H948 H 0.96183 0.30265 0.86716 0.0
H949 H 0.03211 0.2895 0.85665 0.0
H950 H 0.97587 0.27606 0.88313 0.0
H951 H 0.01707 0.31578 0.84097 0.0
H952 H 0.08911 0.28416 0.85395 0.0
H953 H 0.0825 0.21961 0.83725 0.0
H954 H 0.00275 0.31226 0.97245 0.0
H955 H 0.00975 0.34349 0.92152 0.0
H956 H 0.98625 0.1962 0.87047 0.0
H957 H 0.04729 0.20256 0.89059 0.0
H958 H 0.98628 0.15924 0.86931 0.0
H959 H 0.04625 0.1655 0.88909 0.0
H960 H 0.97049 0.21786 0.92725 0.0
H961 H 0.97261 0.27943 0.91681 0.0
H962 H 0.93631 0.2208 0.93968 0.0
H963 H 0.93835 0.28122 0.9292 0.0
H964 H 0.04844 0.20336 0.96544 0.0
H965 H 0.99659 0.16847 0.93755 0.0
H966 H 0.96403 0.23965 0.81984 0.0
H967 H 0.92579 0.21808 0.86422 0.0
Li968 Li 0.55047 0.74441 0.37424 0.0
Li969 Li 0.53033 0.76116 0.40171 0.0
Li970 Li 0.53732 0.72448 0.39812 0.0
Li971 Li 0.51504 0.73567 0.37581 0.0
C972 C 0.57535 0.75758 0.40393 0.0
N973 N 0.61369 0.77536 0.40376 0.0
C974 C 0.57915 0.77829 0.40974 0.0
C975 C 0.59109 0.7459 0.39818 0.0
C976 C 0.59863 0.78699 0.40954 0.0
C977 C 0.61035 0.75518 0.39813 0.0
C978 C 0.52006 0.7673 0.35672 0.0
C979 C 0.49542 0.78428 0.34135 0.0
N980 N 0.50099 0.77548 0.32327 0.0
C981 C 0.52554 0.75843 0.338 0.0
C982 C 0.50487 0.78033 0.35844 0.0
C983 C 0.51573 0.76277 0.32127 0.0
C984 C 0.57978 0.73495 0.34524 0.0
N985 N 0.57206 0.75007 0.35737 0.0
C986 C 0.59561 0.77433 0.34634 0.0
C987 C 0.57938 0.76953 0.35785 0.0
C988 C 0.60425 0.75897 0.334 0.0
C989 C 0.59598 0.73907 0.33342 0.0
H990 H 0.57341 0.71968 0.34477 0.0
H991 H 0.57269 0.7813 0.36735 0.0
C992 C 0.52708 0.78476 0.43908 0.0
N993 N 0.52719 0.78515 0.41926 0.0
C994 C 0.52429 0.80221 0.45215 0.0
C995 C 0.52193 0.8201 0.42411 0.0
C996 C 0.52497 0.80237 0.41163 0.0
C997 C 0.52145 0.82013 0.44466 0.0
H998 H 0.52896 0.77081 0.4447 0.0
H999 H 0.52559 0.80235 0.39584 0.0
C1000 C 0.53876 0.69742 0.36811 0.0
N1001 N 0.54389 0.65719 0.36832 0.0
C1002 C 0.52236 0.68318 0.36594 0.0
C1003 C 0.55778 0.69116 0.37038 0.0
C1004 C 0.52526 0.66292 0.36606 0.0
C1005 C 0.56006 0.67077 0.37047 0.0
C1006 C 0.49211 0.73448 0.40769 0.0
C1007 C 0.48171 0.71593 0.40101 0.0
C1008 C 0.48189 0.75025 0.4172 0.0
C1009 C 0.46122 0.71352 0.40383 0.0
C1010 C 0.46141 0.74723 0.41977 0.0
N1011 N 0.45158 0.72909 0.41308 0.0
C1012 C 0.56086 0.70372 0.42197 0.0
C1013 C 0.52803 0.68898 0.41541 0.0
C1014 C 0.56506 0.68852 0.4329 0.0
N1015 N 0.54261 0.70363 0.41341 0.0
C1016 C 0.53159 0.67346 0.42611 0.0
C1017 C 0.55032 0.67306 0.43504 0.0
H1018 H 0.57217 0.71561 0.42034 0.0
H1019 H 0.51362 0.68925 0.40863 0.0
C1020 C 0.49193 0.71667 0.34254 0.0
N1021 N 0.49141 0.73006 0.35939 0.0
C1022 C 0.47568 0.71326 0.32941 0.0
C1023 C 0.45871 0.73772 0.35099 0.0
C1024 C 0.4753 0.74068 0.36367 0.0
C1025 C 0.45879 0.72392 0.33352 0.0
H1026 H 0.50518 0.70898 0.33904 0.0
H1027 H 0.47553 0.75193 0.37663 0.0
O1028 O 0.5563 0.74886 0.40363 0.0
O1029 O 0.52904 0.76267 0.37329 0.0
O1030 O 0.53619 0.7174 0.36848 0.0
O1031 O 0.51218 0.73718 0.40512 0.0
H1032 H 0.56719 0.78759 0.41421 0.0
H1033 H 0.58843 0.7299 0.39347 0.0
H1034 H 0.60177 0.80301 0.41392 0.0
H1035 H 0.62263 0.74635 0.39355 0.0
H1036 H 0.48357 0.79423 0.34246 0.0
H1037 H 0.53702 0.74805 0.33639 0.0
H1038 H 0.50014 0.787 0.37281 0.0
H1039 H 0.51975 0.75593 0.30669 0.0
H1040 H 0.60126 0.78991 0.34701 0.0
H1041 H 0.6022 0.72673 0.32424 0.0
H1042 H 0.52392 0.8016 0.46789 0.0
H1043 H 0.52015 0.83369 0.41777 0.0
H1044 H 0.50749 0.6877 0.36448 0.0
H1045 H 0.57062 0.70195 0.37242 0.0
H1046 H 0.51268 0.65177 0.36449 0.0
H1047 H 0.57468 0.66576 0.37235 0.0
H1048 H 0.48925 0.70367 0.39331 0.0
H1049 H 0.48965 0.76471 0.42246 0.0
H1050 H 0.45297 0.69931 0.39858 0.0
H1051 H 0.45332 0.75932 0.42706 0.0
H1052 H 0.57973 0.68878 0.43945 0.0
H1053 H 0.51965 0.66208 0.42766 0.0
H1054 H 0.47641 0.70247 0.31613 0.0
H1055 H 0.44624 0.74665 0.35451 0.0
Li1056 Li 0.01234 0.78668 0.64234 0.0
Li1057 Li 0.98868 0.77137 0.66441 0.0
Li1058 Li 0.02448 0.76736 0.66637 0.0
Li1059 Li 0.00402 0.74992 0.63812 0.0
C1060 C 0.01375 0.81278 0.6754 0.0
N1061 N 0.01904 0.85429 0.68133 0.0
C1062 C 0.99781 0.82415 0.68122 0.0
C1063 C 0.03237 0.82254 0.67262 0.0
C1064 C 1.00079 0.84512 0.68416 0.0
C1065 C 0.03474 0.84353 0.67567 0.0
C1066 C 0.9758 0.76466 0.61848 0.0
C1067 C 0.95215 0.74058 0.5995 0.0
N1068 N 0.956 0.74972 0.58329 0.0
C1069 C 0.9795 0.77385 0.60165 0.0
C1070 C 0.96197 0.74793 0.61744 0.0
C1071 C 0.96934 0.76606 0.58399 0.0
C1072 C 0.03372 0.80889 0.61576 0.0
N1073 N 0.01806 0.809 0.62817 0.0
C1074 C 0.00956 0.84045 0.61963 0.0
C1075 C 0.00592 0.82426 0.63012 0.0
C1076 C 0.02551 0.84074 0.60645 0.0
C1077 C 0.03769 0.82461 0.60467 0.0
H1078 H 0.0429 0.79638 0.61414 0.0
H1079 H 0.99331 0.82381 0.63976 0.0
C1080 C 0.96721 0.78247 0.69938 0.0
N1081 N 0.96517 0.77461 0.67993 0.0
C1082 C 0.95049 0.78433 0.7113 0.0
C1083 C 0.92988 0.76978 0.68304 0.0
C1084 C 0.94696 0.76845 0.67161 0.0
C1085 C 0.93152 0.77779 0.70318 0.0
H1086 H 0.98188 0.78712 0.70568 0.0
H1087 H 0.94569 0.7623 0.65614 0.0
C1088 C 0.0494 0.75972 0.6379 0.0
N1089 N 0.08772 0.74864 0.64054 0.0
C1090 C 0.05305 0.73941 0.63473 0.0
C1091 C 0.06524 0.7744 0.64229 0.0
C1092 C 0.07253 0.73411 0.63614 0.0
C1093 C 0.0845 0.76849 0.64361 0.0
C1094 C 0.99092 0.73874 0.68019 0.0
C1095 C 0.9967 0.74351 0.70008 0.0
C1096 C 0.97316 0.72698 0.67499 0.0
C1097 C 0.98453 0.73646 0.71449 0.0
C1098 C 0.96138 0.72025 0.68984 0.0
N1099 N 0.96726 0.7251 0.70912 0.0
C1100 C 0.05725 0.77963 0.69368 0.0
C1101 C 0.04952 0.74453 0.68519 0.0
C1102 C 0.07307 0.77638 0.70581 0.0
N1103 N 0.04596 0.76378 0.68358 0.0
C1104 C 0.06508 0.74059 0.69722 0.0
C1105 C 0.07714 0.75663 0.70771 0.0
H1106 H 0.05401 0.79479 0.69233 0.0
H1107 H 0.04031 0.73221 0.67698 0.0
C1108 C 0.00289 0.72716 0.59958 0.0
N1109 N 1.00111 0.72589 0.61918 0.0
C1110 C 1.00099 0.70977 0.58561 0.0
C1111 C 0.99657 0.69 0.6123 0.0
C1112 C 0.99815 0.70779 0.62573 0.0
C1113 C 0.99787 0.69088 0.59194 0.0
H1114 H 0.00582 0.74168 0.59478 0.0
H1115 H 0.99722 0.70714 0.64141 0.0
O1116 O 0.01109 0.79223 0.67231 0.0
O1117 O 0.98571 0.77197 0.63586 0.0
O1118 O 0.03037 0.76517 0.63721 0.0
O1119 O 0.0023 0.74603 0.66592 0.0
H1120 H 0.98325 0.81689 0.68325 0.0
H1121 H 0.04479 0.814 0.66781 0.0
H1122 H 0.98858 0.8541 0.68861 0.0
H1123 H 0.04904 0.85126 0.67344 0.0
H1124 H 0.94154 0.72754 0.59844 0.0
H1125 H 0.99015 0.78679 0.60216 0.0
H1126 H 0.95914 0.74044 0.63023 0.0
H1127 H 0.97209 0.77299 0.57084 0.0
H1128 H 0.99988 0.85257 0.62185 0.0
H1129 H 0.04988 0.82379 0.59445 0.0
H1130 H 0.95244 0.79039 0.72681 0.0
H1131 H 0.91552 0.76472 0.67615 0.0
H1132 H 0.04095 0.72784 0.63144 0.0
H1133 H 0.06266 0.79018 0.64487 0.0
H1134 H 0.07556 0.71845 0.63384 0.0
H1135 H 0.09689 0.77968 0.64713 0.0
H1136 H 0.0103 0.75279 0.70437 0.0
H1137 H 0.96838 0.72332 0.65966 0.0
H1138 H 0.98876 0.74012 0.72996 0.0
H1139 H 0.94753 0.71125 0.68605 0.0
H1140 H 0.08186 0.78919 0.71378 0.0
H1141 H 0.06784 0.72513 0.69803 0.0
H1142 H 0.00235 0.71105 0.57005 0.0
H1143 H 0.99414 0.67571 0.61775 0.0
Li1144 Li 0.50911 0.28555 0.14722 0.0
Li1145 Li 0.48563 0.27002 0.16944 0.0
Li1146 Li 0.52174 0.26522 0.17016 0.0
Li1147 Li 0.5009 0.2476 0.14253 0.0
C1148 C 0.51025 0.3108 0.182 0.0
N1149 N 0.51378 0.35209 0.19241 0.0
C1150 C 0.49381 0.32084 0.18898 0.0
C1151 C 0.52852 0.32175 0.18041 0.0
C1152 C 0.49589 0.34173 0.19415 0.0
C1153 C 0.52999 0.34262 0.18571 0.0
C1154 C 0.46512 0.27284 0.13289 0.0
C1155 C 0.43311 0.2605 0.11812 0.0
N1156 N 0.42874 0.27974 0.11756 0.0
C1157 C 0.46037 0.29248 0.132 0.0
C1158 C 0.45144 0.25669 0.12574 0.0
C1159 C 0.44188 0.29567 0.12427 0.0
C1160 C 0.5277 0.3037 0.11695 0.0
N1161 N 0.51553 0.30756 0.13257 0.0
C1162 C 0.51333 0.34119 0.12577 0.0
C1163 C 0.50825 0.32588 0.13706 0.0
C1164 C 0.52587 0.33762 0.10949 0.0
C1165 C 0.53308 0.31852 0.10519 0.0
H1166 H 0.53309 0.28897 0.11344 0.0
H1167 H 0.49837 0.32866 0.14933 0.0
C1168 C 0.46407 0.26528 0.20354 0.0
N1169 N 0.46281 0.2728 0.1862 0.0
C1170 C 0.44847 0.26646 0.2169 0.0
C1171 C 0.43055 0.2835 0.19457 0.0
C1172 C 0.44648 0.28187 0.18158 0.0
C1173 C 0.43137 0.27572 0.21256 0.0
H1174 H 0.47726 0.25828 0.207 0.0
H1175 H 0.44583 0.28813 0.16798 0.0
C1176 C 0.54674 0.26064 0.14127 0.0
N1177 N 0.58674 0.25487 0.14249 0.0
C1178 C 0.55303 0.24126 0.13722 0.0
C1179 C 0.56077 0.2771 0.14575 0.0
C1180 C 0.57333 0.23866 0.13795 0.0
C1181 C 0.58093 0.27387 0.14635 0.0
C1182 C 0.48685 0.2281 0.17358 0.0
C1183 C 0.49393 0.2133 0.18349 0.0
C1184 C 0.46729 0.22584 0.16634 0.0
C1185 C 0.48132 0.19637 0.18586 0.0
C1186 C 0.45513 0.20872 0.16902 0.0
N1187 N 0.46234 0.19444 0.17863 0.0
C1188 C 0.55365 0.27749 0.19817 0.0
C1189 C 0.54891 0.24258 0.18657 0.0
C1190 C 0.56988 0.27452 0.2099 0.0
N1191 N 0.54364 0.26162 0.18675 0.0
C1192 C 0.56495 0.2389 0.19811 0.0
C1193 C 0.5757 0.25499 0.20998 0.0
H1194 H 0.54905 0.29246 0.19822 0.0
H1195 H 0.54075 0.23026 0.17724 0.0
C1196 C 0.48959 0.2248 0.10536 0.0
N1197 N 0.4973 0.2238 0.12357 0.0
C1198 C 0.48749 0.20764 0.09109 0.0
C1199 C 0.50158 0.18884 0.1145 0.0
C1200 C 0.50331 0.20631 0.12833 0.0
C1201 C 0.49362 0.18934 0.09555 0.0
H1202 H 0.48527 0.23899 0.10183 0.0
H1203 H 0.5097 0.20599 0.1428 0.0
O1204 O 0.5085 0.29036 0.17697 0.0
O1205 O 0.48328 0.26943 0.14015 0.0
O1206 O 0.52691 0.26346 0.14119 0.0
O1207 O 0.49909 0.24466 0.17095 0.0
H1208 H 0.47958 0.31263 0.19037 0.0
H1209 H 0.54137 0.31427 0.17492 0.0
H1210 H 0.48328 0.3497 0.19954 0.0
H1211 H 0.544 0.35129 0.18444 0.0
H1212 H 0.42238 0.24814 0.11259 0.0
H1213 H 0.4707 0.30513 0.13748 0.0
H1214 H 0.45495 0.24136 0.12594 0.0
H1215 H 0.43797 0.31081 0.12364 0.0
H1216 H 0.50752 0.35569 0.12981 0.0
H1217 H 0.54244 0.31486 0.09259 0.0
H1218 H 0.44977 0.25998 0.2304 0.0
H1219 H 0.41788 0.29109 0.19069 0.0
H1220 H 0.54236 0.22836 0.13375 0.0
H1221 H 0.55613 0.2922 0.14885 0.0
H1222 H 0.57842 0.22373 0.13498 0.0
H1223 H 0.59196 0.28646 0.14991 0.0
H1224 H 0.50902 0.21484 0.18925 0.0
H1225 H 0.46153 0.23726 0.15887 0.0
H1226 H 0.48661 0.18476 0.19345 0.0
H1227 H 0.43995 0.20679 0.16349 0.0
H1228 H 0.57762 0.28732 0.21897 0.0
H1229 H 0.56909 0.22364 0.19748 0.0
H1230 H 0.48153 0.2088 0.0766 0.0
H1231 H 0.50634 0.17505 0.11866 0.0
H1232 H 0.27217 0.74568 0.83675 0.0
H1233 H 0.2143 0.8082 0.92382 0.0
H1234 H 0.20874 0.7368 0.84394 0.0
H1235 H 0.27807 0.80701 0.92202 0.0
H1236 H 0.21152 0.78512 0.89255 0.0
H1237 H 0.27408 0.77131 0.86588 0.0
C1238 C 0.25862 0.7491 0.84446 0.0
C1239 C 0.24029 0.73883 0.838 0.0
C1240 C 0.2261 0.78995 0.899 0.0
C1241 C 0.24237 0.76844 0.87138 0.0
C1242 C 0.22771 0.80319 0.91678 0.0
C1243 C 0.24644 0.80943 0.92561 0.0
C1244 C 0.24337 0.78308 0.88988 0.0
C1245 C 0.26331 0.80235 0.91591 0.0
C1246 C 0.25972 0.76381 0.86108 0.0
C1247 C 0.22317 0.74435 0.84833 0.0
N1248 N 0.26137 0.78958 0.89861 0.0
N1249 N 0.22464 0.7587 0.86458 0.0
H1250 H 0.0041 0.53672 0.41625 0.0
H1251 H 0.11651 0.54064 0.37886 0.0
H1252 H 0.05471 0.53715 0.45495 0.0
H1253 H 0.06492 0.52918 0.34 0.0
H1254 H 0.09452 0.54436 0.40724 0.0
H1255 H 0.0266 0.53973 0.3886 0.0
C1256 C 0.02001 0.53792 0.41894 0.0
C1257 C 0.02769 0.53688 0.43777 0.0
C1258 C 0.08805 0.54117 0.39248 0.0
C1259 C 0.05348 0.53982 0.40631 0.0
C1260 C 0.10059 0.5389 0.37624 0.0
C1261 C 0.09264 0.53445 0.3569 0.0
C1262 C 0.06735 0.53904 0.38943 0.0
C1263 C 0.07184 0.53283 0.35453 0.0
C1264 C 0.03284 0.53946 0.40317 0.0
C1265 C 0.04833 0.53812 0.44058 0.0
N1266 N 0.05997 0.53504 0.37056 0.0
N1267 N 0.06056 0.5394 0.42497 0.0
H1268 H 0.80357 0.73077 0.81623 0.0
H1269 H 0.78694 0.72229 0.93085 0.0
H1270 H 0.78953 0.78031 0.85979 0.0
H1271 H 0.7885 0.6704 0.88606 0.0
H1272 H 0.79069 0.744 0.90521 0.0
H1273 H 0.80106 0.70865 0.84183 0.0
C1274 C 0.80008 0.73701 0.83119 0.0
C1275 C 0.79665 0.75739 0.83586 0.0
C1276 C 0.79021 0.72787 0.90095 0.0
C1277 C 0.79373 0.73221 0.86517 0.0
C1278 C 0.78818 0.71546 0.91561 0.0
C1279 C 0.78745 0.69448 0.91061 0.0
C1280 C 0.79168 0.71931 0.88107 0.0
C1281 C 0.78883 0.68648 0.89056 0.0
C1282 C 0.79853 0.72436 0.84575 0.0
C1283 C 0.79203 0.76464 0.85546 0.0
N1284 N 0.79095 0.6989 0.87653 0.0
N1285 N 0.79074 0.7521 0.86936 0.0
H1286 H 0.02112 0.95075 0.42607 0.0
H1287 H 0.99223 0.03599 0.36313 0.0
H1288 H 0.04178 0.01341 0.441 0.0
H1289 H 0.96809 0.97409 0.35159 0.0
H1290 H 0.01149 0.02794 0.39093 0.0
H1291 H 0.00271 0.95891 0.39787 0.0
C1292 C 0.02174 0.96625 0.42347 0.0
C1293 C 0.03296 0.98142 0.43602 0.0
C1294 C 0.002 0.01612 0.38229 0.0
C1295 C 0.01203 0.99087 0.40353 0.0
C1296 C 0.99091 0.02073 0.36646 0.0
C1297 C 0.97849 0.0057 0.35494 0.0
C1298 C 1.0007 0.99634 0.38667 0.0
C1299 C 0.97766 0.98612 0.35982 0.0
C1300 C 0.01129 0.97089 0.40729 0.0
C1301 C 0.0335 1.00118 0.43164 0.0
N1302 N 0.98857 0.98203 0.3753 0.0
N1303 N 0.02314 0.00534 0.4158 0.0
H1304 H 0.28601 0.26909 0.70415 0.0
H1305 H 0.22557 0.20504 0.61183 0.0
H1306 H 0.222 0.26451 0.69958 0.0
H1307 H 0.28934 0.20834 0.61935 0.0
H1308 H 0.22351 0.22612 0.64396 0.0
H1309 H 0.28708 0.2463 0.67321 0.0
C1310 C 0.27214 0.2633 0.69658 0.0
C1311 C 0.25389 0.26891 0.70436 0.0
C1312 C 0.23794 0.2222 0.63856 0.0
C1313 C 0.25499 0.24256 0.6688 0.0
C1314 C 0.23913 0.2101 0.62025 0.0
C1315 C 0.25769 0.20497 0.61276 0.0
C1316 C 0.25541 0.22923 0.64951 0.0
C1317 C 0.27475 0.21218 0.62428 0.0
C1318 C 0.27276 0.25019 0.67892 0.0
C1319 C 0.23639 0.26056 0.69412 0.0
N1320 N 0.27319 0.22392 0.642 0.0
N1321 N 0.23737 0.24789 0.67677 0.0
H1322 H 0.53533 0.57298 0.61467 0.0
H1323 H 0.48279 0.50018 0.68486 0.0
H1324 H 0.54026 0.50896 0.60673 0.0
H1325 H 0.48553 0.56497 0.69737 0.0
H1326 H 0.50401 0.50299 0.65642 0.0
H1327 H 0.5171 0.57029 0.64508 0.0
C1328 C 0.53259 0.55835 0.61937 0.0
C1329 C 0.53921 0.54115 0.60811 0.0
C1330 C 0.50004 0.51659 0.66544 0.0
C1331 C 0.51835 0.53793 0.64293 0.0
C1332 C 0.48799 0.51501 0.68177 0.0
C1333 C 0.48226 0.53237 0.69356 0.0
C1334 C 0.50637 0.53566 0.66075 0.0
C1335 C 0.48923 0.55116 0.68856 0.0
C1336 C 0.52225 0.55682 0.63677 0.0
C1337 C 0.53551 0.52261 0.61503 0.0
N1338 N 0.50083 0.5523 0.67251 0.0
N1339 N 0.52519 0.52146 0.63192 0.0
H1340 H 0.7948 0.23543 0.64748 0.0
H1341 H 0.76411 0.34356 0.62927 0.0
H1342 H 0.79121 0.28535 0.69393 0.0
H1343 H 0.76718 0.29338 0.58276 0.0
H1344 H 0.7703 0.32146 0.6536 0.0
H1345 H 0.78085 0.25518 0.62404 0.0
C1346 C 0.7906 0.25041 0.65277 0.0
C1347 C 0.79392 0.25884 0.67254 0.0
C1348 C 0.76949 0.31524 0.63808 0.0
C1349 C 0.77853 0.28167 0.64594 0.0
C1350 C 0.76585 0.32785 0.62416 0.0
C1351 C 0.76531 0.32041 0.60387 0.0
C1352 C 0.77265 0.295 0.63172 0.0
C1353 C 0.76788 0.29991 0.59819 0.0
C1354 C 0.78278 0.26174 0.63941 0.0
C1355 C 0.78864 0.27836 0.67875 0.0
N1356 N 0.77156 0.28799 0.612 0.0
N1357 N 0.78135 0.28922 0.66545 0.0
H1358 H 0.50167 0.95025 0.59076 0.0
H1359 H 0.58113 0.02501 0.6582 0.0
H1360 H 0.524 0.00829 0.57689 0.0
H1361 H 0.55985 0.96649 0.67165 0.0
H1362 H 0.55836 0.0202 0.62974 0.0
H1363 H 0.52058 0.95712 0.62195 0.0
C1364 C 0.51043 0.96451 0.59434 0.0
C1365 C 0.51136 0.97864 0.58109 0.0
C1366 C 0.55859 0.00843 0.63895 0.0
C1367 C 0.53309 0.98661 0.61681 0.0
C1368 C 0.5717 0.01111 0.65515 0.0
C1369 C 0.57258 0.99605 0.66727 0.0
C1370 C 0.54622 0.99052 0.63472 0.0
C1371 C 0.55964 0.97855 0.66281 0.0
C1372 C 0.5212 0.96843 0.61218 0.0
C1373 C 0.52271 0.997 0.58668 0.0
N1374 N 0.54711 0.97622 0.64684 0.0
N1375 N 0.53327 1.00037 0.60401 0.0
H1376 H 0.82664 0.22401 0.78284 0.0
H1377 H 0.94271 0.21495 0.8001 0.0
H1378 H 0.86869 0.21684 0.73556 0.0
H1379 H 0.9034 0.23552 0.84699 0.0
H1380 H 0.91506 0.21225 0.77648 0.0
H1381 H 0.85389 0.2248 0.8068 0.0
C1382 C 0.8416 0.22251 0.77751 0.0
C1383 C 0.84542 0.22044 0.75719 0.0
C1384 C 0.91248 0.21732 0.79195 0.0
C1385 C 0.87665 0.22134 0.78449 0.0
C1386 C 0.9283 0.21896 0.80546 0.0
C1387 C 0.92548 0.22562 0.82561 0.0
C1388 C 0.89361 0.22226 0.79858 0.0
C1389 C 0.90629 0.23012 0.83167 0.0
C1390 C 0.85715 0.22306 0.79118 0.0
C1391 C 0.86511 0.21872 0.7511 0.0
N1392 N 0.89111 0.2284 0.81821 0.0
N1393 N 0.87997 0.21918 0.76468 0.0
H1394 H 0.47278 0.92792 0.50211 0.0
H1395 H 0.54108 0.83611 0.4793 0.0
H1396 H 0.52979 0.92693 0.53078 0.0
H1397 H 0.49348 0.84645 0.44061 0.0
H1398 H 0.53503 0.86726 0.50091 0.0
H1399 H 0.47814 0.89602 0.48184 0.0
C1400 C 0.48647 0.92106 0.50412 0.0
C1401 C 0.5009 0.93028 0.51814 0.0
C1402 C 0.52592 0.86269 0.48768 0.0
C1403 C 0.50696 0.89346 0.49514 0.0
C1404 C 0.52929 0.84488 0.47542 0.0
C1405 C 0.51782 0.83875 0.4581 0.0
C1406 C 0.5108 0.8743 0.4827 0.0
C1407 C 0.50284 0.85076 0.45369 0.0
C1408 C 0.48947 0.90278 0.49259 0.0
C1409 C 0.51813 0.92034 0.52036 0.0
N1410 N 0.49973 0.86792 0.46593 0.0
N1411 N 0.52067 0.90249 0.50898 0.0
H1412 H 0.17669 0.2952 0.76567 0.0
H1413 H 0.11876 0.22754 0.83769 0.0
H1414 H 0.20244 0.24759 0.7901 0.0
H1415 H 0.09616 0.27973 0.81848 0.0
H1416 H 0.14733 0.23117 0.81623 0.0
H1417 H 0.14479 0.28593 0.78029 0.0
C1418 C 0.17539 0.28242 0.77367 0.0
C1419 C 0.19196 0.27197 0.77662 0.0
C1420 C 0.13605 0.24175 0.81662 0.0
C1421 C 0.15591 0.26165 0.79386 0.0
C1422 C 0.1197 0.23965 0.82882 0.0
C1423 C 0.10512 0.25347 0.83005 0.0
C1424 C 0.13784 0.25776 0.80549 0.0
C1425 C 0.10721 0.26895 0.8183 0.0
C1426 C 0.15729 0.27724 0.78218 0.0
C1427 C 0.18981 0.25581 0.78739 0.0
N1428 N 0.12329 0.27072 0.8066 0.0
N1429 N 0.17213 0.25123 0.7958 0.0
H1430 H 0.57314 0.60986 0.53298 0.0
H1431 H 0.53851 0.63278 0.427 0.0
H1432 H 0.53867 0.56703 0.49071 0.0
H1433 H 0.57079 0.67657 0.47038 0.0
H1434 H 0.54238 0.60711 0.44824 0.0
H1435 H 0.57693 0.63286 0.50826 0.0
C1436 C 0.56683 0.60515 0.51827 0.0
C1437 C 0.55573 0.58662 0.51366 0.0
C1438 C 0.54877 0.62229 0.45305 0.0
C1439 C 0.55945 0.61285 0.48558 0.0
C1440 C 0.54646 0.637 0.44097 0.0
C1441 C 0.55412 0.65695 0.447 0.0
C1442 C 0.55876 0.62754 0.47138 0.0
C1443 C 0.56469 0.6614 0.46507 0.0
C1444 C 0.56884 0.6183 0.50422 0.0
C1445 C 0.54749 0.58121 0.49464 0.0
N1446 N 0.56652 0.64687 0.47669 0.0
N1447 N 0.54936 0.59436 0.48131 0.0
H1448 H 0.83757 0.81662 0.78296 0.0
H1449 H 0.90081 0.74893 0.70456 0.0
H1450 H 0.82798 0.752 0.77059 0.0
H1451 H 0.92138 0.80932 0.7303 0.0
H1452 H 0.87155 0.75095 0.72552 0.0
H1453 H 0.86585 0.8154 0.76049 0.0
C1454 C 0.84132 0.80221 0.77539 0.0
C1455 C 0.83047 0.78438 0.77871 0.0
C1456 C 0.88245 0.76378 0.72658 0.0
C1457 C 0.86273 0.78287 0.75301 0.0
C1458 C 0.89909 0.76267 0.71454 0.0
C1459 C 0.91357 0.77898 0.71569 0.0
C1460 C 0.88009 0.78141 0.73974 0.0
C1461 C 0.91068 0.79633 0.72906 0.0
C1462 C 0.85752 0.80151 0.76269 0.0
C1463 C 0.83608 0.76609 0.76863 0.0
N1464 N 0.89424 0.79713 0.74051 0.0
N1465 N 0.85176 0.76581 0.75622 0.0
H1466 H 0.06997 0.91601 0.52051 0.0
H1467 H 0.99761 0.8621 0.59108 0.0
H1468 H 0.01267 0.93595 0.53735 0.0
H1469 H 0.061 0.85716 0.59311 0.0
H1470 H 0.00306 0.88838 0.57043 0.0
H1471 H 0.06763 0.89383 0.54627 0.0
C1472 C 0.05716 0.91603 0.52999 0.0
C1473 C 0.04156 0.92783 0.5271 0.0
C1474 C 0.01581 0.88167 0.57552 0.0
C1475 C 0.03845 0.90228 0.55588 0.0
C1476 C 0.01274 0.86665 0.58748 0.0
C1477 C 0.02885 0.85727 0.59408 0.0
C1478 C 0.03512 0.88726 0.56969 0.0
C1479 C 0.04803 0.86362 0.58821 0.0
C1480 C 0.05576 0.90335 0.54456 0.0
C1481 C 0.02507 0.92714 0.53935 0.0
N1482 N 0.05061 0.87809 0.57623 0.0
N1483 N 0.02383 0.91441 0.55306 0.0
H1484 H 0.15428 0.70172 0.78199 0.0
H1485 H 0.11485 0.77557 0.71118 0.0
H1486 H 0.19277 0.74358 0.75483 0.0
H1487 H 0.07781 0.72865 0.73305 0.0
H1488 H 0.1428 0.76743 0.73069 0.0
H1489 H 0.12535 0.71493 0.76808 0.0
C1490 C 0.15654 0.71401 0.77341 0.0
C1491 C 0.17574 0.72175 0.76957 0.0
C1492 C 0.12853 0.75899 0.73131 0.0
C1493 C 0.14297 0.73662 0.75328 0.0
C1494 C 0.11253 0.7637 0.72025 0.0
C1495 C 0.09398 0.75267 0.72035 0.0
C1496 C 0.12596 0.74319 0.74264 0.0
C1497 C 0.09192 0.73732 0.73224 0.0
C1498 C 0.14009 0.72145 0.76536 0.0
C1499 C 0.17808 0.73741 0.75818 0.0
N1500 N 0.1077 0.733 0.74283 0.0
N1501 N 0.16186 0.74428 0.7503 0.0
H1502 H 0.9534 0.59113 0.50483 0.0
H1503 H 0.01711 0.6568 0.59251 0.0
H1504 H 0.011 0.57571 0.52222 0.0
H1505 H 0.97455 0.68248 0.5584 0.0
H1506 H 0.01339 0.62576 0.56874 0.0
H1507 H 0.95923 0.62377 0.52594 0.0
C1508 C 0.96734 0.59473 0.51298 0.0
C1509 C 0.98177 0.58077 0.51178 0.0
C1510 C 0.00496 0.63823 0.5664 0.0
C1511 C 0.98838 0.61782 0.53619 0.0
C1512 C 0.00697 0.65587 0.58002 0.0
C1513 C 0.99608 0.67218 0.57741 0.0
C1514 C 0.99167 0.63675 0.55027 0.0
C1515 C 0.98329 0.67027 0.56087 0.0
C1516 C 0.97068 0.61333 0.52497 0.0
C1517 C 0.99959 0.58614 0.52262 0.0
N1518 N 0.98128 0.6528 0.54803 0.0
N1519 N 0.0023 0.60414 0.53457 0.0
H1520 H 0.79781 0.828 0.25681 0.0
H1521 H 0.82963 0.9331 0.21933 0.0
H1522 H 0.77529 0.84454 0.20271 0.0
H1523 H 0.85074 0.91645 0.27393 0.0
H1524 H 0.80951 0.90091 0.21292 0.0
H1525 H 0.81676 0.86067 0.26353 0.0
C1526 C 0.79667 0.83858 0.24642 0.0
C1527 C 0.78486 0.83348 0.22918 0.0
C1528 C 0.81851 0.90433 0.22633 0.0
C1529 C 0.80688 0.87094 0.23664 0.0
C1530 C 0.8301 0.92266 0.22994 0.0
C1531 C 0.8419 0.92754 0.24722 0.0
C1532 C 0.81876 0.89071 0.24005 0.0
C1533 C 0.84168 0.91351 0.26056 0.0
C1534 C 0.80763 0.85721 0.2502 0.0
C1535 C 0.78435 0.84771 0.21608 0.0
N1536 N 0.83034 0.89576 0.25667 0.0
N1537 N 0.79521 0.86576 0.22007 0.0
H1538 H 0.74897 0.15471 0.29414 0.0
H1539 H 0.86384 0.13423 0.3001 0.0
H1540 H 0.79525 0.2012 0.31435 0.0
H1541 H 0.81622 0.08728 0.28785 0.0
H1542 H 0.8392 0.15914 0.30486 0.0
H1543 H 0.77359 0.1299 0.29136 0.0
C1544 C 0.76434 0.15969 0.29798 0.0
C1545 C 0.77008 0.18008 0.30439 0.0
C1546 C 0.83414 0.14338 0.30123 0.0
C1547 C 0.79841 0.15171 0.30128 0.0
C1548 C 0.8482 0.12917 0.2984 0.0
C1549 C 0.84209 0.10863 0.29359 0.0
C1550 C 0.81381 0.13704 0.29906 0.0
C1551 C 0.82162 0.10291 0.29178 0.0
C1552 C 0.77839 0.1455 0.29648 0.0
C1553 C 0.79016 0.18563 0.30946 0.0
N1554 N 0.80824 0.11703 0.29443 0.0
N1555 N 0.80362 0.17154 0.30767 0.0
H1556 H 0.45728 0.98655 0.00243 0.0
H1557 H 0.33982 0.97874 0.01866 0.0
H1558 H 0.42132 0.03607 0.99887 0.0
H1559 H 0.37416 0.92721 0.00727 0.0
H1560 H 0.36986 1.00066 0.01463 0.0
H1561 H 0.42729 0.96524 0.00711 0.0
C1562 C 0.44309 0.99295 0.00246 0.0
C1563 C 0.44191 0.01317 1.00003 0.0
C1564 C 0.3708 0.98456 0.013 0.0
C1565 C 0.40738 0.9888 0.00586 0.0
C1566 C 0.3537 0.97206 0.01542 0.0
C1567 C 0.35449 0.95111 0.01326 0.0
C1568 C 0.38887 0.97607 0.00861 0.0
C1569 C 0.37283 0.94325 0.00885 0.0
C1570 C 0.42594 0.98076 0.00527 0.0
C1571 C 0.42304 0.02066 1.00082 0.0
N1572 N 0.38928 0.95572 0.00674 0.0
N1573 N 0.40654 0.00848 0.00367 0.0
H1574 H 0.24672 0.32251 0.27508 0.0
H1575 H 0.2396 0.44157 0.29716 0.0
H1576 H 0.2805 0.36144 0.32104 0.0
H1577 H 0.20434 0.40227 0.25236 0.0
H1578 H 0.25777 0.41313 0.3033 0.0
H1579 H 0.23424 0.35211 0.26362 0.0
C1580 C 0.25183 0.33738 0.28244 0.0
C1581 C 0.26469 0.33973 0.29886 0.0
C1582 C 0.24616 0.41074 0.29202 0.0
C1583 C 0.25022 0.37353 0.28628 0.0
C1584 C 0.23583 0.42703 0.28841 0.0
C1585 C 0.22027 0.42433 0.27431 0.0
C1586 C 0.24092 0.39155 0.28147 0.0
C1587 C 0.21595 0.40502 0.26363 0.0
C1588 C 0.24463 0.35425 0.27602 0.0
C1589 C 0.27069 0.35916 0.30818 0.0
N1590 N 0.22612 0.38938 0.26751 0.0
N1591 N 0.26328 0.37535 0.30186 0.0
H1592 H 0.10396 0.98529 0.45088 0.0
H1593 H 0.17137 0.06129 0.52987 0.0
H1594 H 0.08764 1.00039 0.51178 0.0
H1595 H 0.1852 0.04763 0.46806 0.0
H1596 H 0.14211 0.03715 0.52444 0.0
H1597 H 0.13544 0.00558 0.45795 0.0
C1598 C 0.10709 0.9928 0.4658 0.0
C1599 C 0.09306 0.99134 0.48072 0.0
C1600 C 0.15161 0.03937 0.5121 0.0
C1601 C 0.12916 0.01474 0.48895 0.0
C1602 C 0.16827 0.05326 0.51514 0.0
C1603 C 0.18078 0.05665 0.49937 0.0
C1604 C 0.14737 0.02875 0.49313 0.0
C1605 C 0.17617 0.04544 0.48072 0.0
C1606 C 0.12509 0.00439 0.46984 0.0
C1607 C 0.09805 1.0011 0.49986 0.0
N1608 N 0.15983 0.03211 0.47812 0.0
N1609 N 0.11562 0.01257 0.50339 0.0
H1610 H 0.7736 0.20259 0.7625 0.0
H1611 H 0.71342 0.10172 0.71012 0.0
H1612 H 0.77731 0.18052 0.70031 0.0
H1613 H 0.70916 0.12495 0.77205 0.0
H1614 H 0.73455 0.13183 0.70554 0.0
H1615 H 0.74759 0.1759 0.76552 0.0
C1616 C 0.76876 0.19223 0.74942 0.0
C1617 C 0.77775 0.19366 0.73116 0.0
C1618 C 0.7289 0.13039 0.72011 0.0
C1619 C 0.74806 0.1629 0.73453 0.0
C1620 C 0.71674 0.11323 0.72273 0.0
C1621 C 0.70955 0.11069 0.74154 0.0
C1622 C 0.73396 0.14518 0.7364 0.0
C1623 C 0.71462 0.12604 0.75735 0.0
C1624 C 0.75391 0.17698 0.75115 0.0
C1625 C 0.77073 0.18 0.71465 0.0
N1626 N 0.72655 0.14254 0.75444 0.0
N1627 N 0.75646 0.16504 0.71677 0.0
H1628 H 0.42664 0.99824 0.53833 0.0
H1629 H 0.38648 0.10567 0.53119 0.0
H1630 H 0.46475 0.05104 0.53136 0.0
H1631 H 0.34837 0.0515 0.53353 0.0
H1632 H 0.41543 0.08685 0.5347 0.0
H1633 H 0.39794 0.01852 0.54072 0.0
C1634 C 0.42893 0.01423 0.53772 0.0
C1635 C 0.44791 0.02315 0.53482 0.0
C1636 C 0.40073 0.07911 0.53456 0.0
C1637 C 0.41533 0.04632 0.53706 0.0
C1638 C 0.38417 0.08982 0.53242 0.0
C1639 C 0.3649 0.08016 0.53193 0.0
C1640 C 0.39806 0.05854 0.5362 0.0
C1641 C 0.36288 0.05967 0.53401 0.0
C1642 C 0.41259 0.02577 0.53893 0.0
C1643 C 0.45025 0.04377 0.53377 0.0
N1644 N 0.37923 0.04955 0.53594 0.0
N1645 N 0.43411 0.05468 0.53477 0.0
H1646 H 0.58324 0.5112 0.53015 0.0
H1647 H 0.68255 0.47248 0.57094 0.0
H1648 H 0.60766 0.53037 0.58892 0.0
H1649 H 0.65648 0.44982 0.51346 0.0
H1650 H 0.65635 0.49538 0.57683 0.0
H1651 H 0.61118 0.49049 0.52272 0.0
C1652 C 0.5946 0.51124 0.54141 0.0
C1653 C 0.59304 0.52245 0.56023 0.0
C1654 C 0.65635 0.48544 0.5629 0.0
C1655 C 0.62494 0.4986 0.55191 0.0
C1656 C 0.6714 0.47241 0.55947 0.0
C1657 C 0.67177 0.45917 0.54166 0.0
C1658 C 0.64149 0.48533 0.54841 0.0
C1659 C 0.65667 0.45957 0.52751 0.0
C1660 C 0.61046 0.49929 0.53721 0.0
C1661 C 0.60809 0.52174 0.57431 0.0
N1662 N 0.64217 0.47243 0.53118 0.0
N1663 N 0.62334 0.50999 0.56989 0.0
H1664 H 0.7089 0.24178 0.34099 0.0
H1665 H 0.77546 0.30707 0.42791 0.0
H1666 H 0.77306 0.24599 0.34247 0.0
H1667 H 0.7132 0.31448 0.42 0.0
H1668 H 0.77431 0.2833 0.39735 0.0
H1669 H 0.7096 0.26747 0.37029 0.0
C1670 C 0.72313 0.2482 0.34733 0.0
C1671 C 0.74095 0.24152 0.33928 0.0
C1672 C 0.76088 0.29015 0.40222 0.0
C1673 C 0.74182 0.27072 0.37302 0.0
C1674 C 0.76151 0.30362 0.41975 0.0
C1675 C 0.74437 0.31268 0.42657 0.0
C1676 C 0.74294 0.28549 0.39142 0.0
C1677 C 0.72677 0.30791 0.41521 0.0
C1678 C 0.72351 0.2628 0.36413 0.0
C1679 C 0.75893 0.25027 0.34835 0.0
N1680 N 0.72647 0.29452 0.39825 0.0
N1681 N 0.75888 0.26428 0.36474 0.0
H1682 H 0.51875 0.99588 0.92606 0.0
H1683 H 0.58887 0.05896 0.8587 0.0
H1684 H 0.53905 0.05804 0.94422 0.0
H1685 H 0.57732 0.99442 0.8484 0.0
H1686 H 0.56807 0.0601 0.88815 0.0
H1687 H 0.53725 0.99628 0.89543 0.0
C1688 C 0.52701 0.00968 0.92341 0.0
C1689 C 0.52744 0.02695 0.93747 0.0
C1690 C 0.57011 0.04571 0.87942 0.0
C1691 C 0.5488 0.02757 0.90266 0.0
C1692 C 0.58189 0.04505 0.86258 0.0
C1693 C 0.58494 0.02655 0.85114 0.0
C1694 C 0.56113 0.02775 0.88471 0.0
C1695 C 0.57564 0.00899 0.85693 0.0
C1696 C 0.53763 0.0099 0.90601 0.0
C1697 C 0.53838 0.04446 0.93357 0.0
N1698 N 0.56417 0.01003 0.87325 0.0
N1699 N 0.54871 0.04434 0.91648 0.0
H1700 H 0.30944 0.22998 0.33385 0.0
H1701 H 0.28176 0.22422 0.44701 0.0
H1702 H 0.292 0.28013 0.37477 0.0
H1703 H 0.29426 0.17223 0.4057 0.0
H1704 H 0.28719 0.24509 0.42095 0.0
H1705 H 0.30626 0.2089 0.36028 0.0
C1706 C 0.30513 0.2366 0.34842 0.0
C1707 C 0.30084 0.25683 0.35205 0.0
C1708 C 0.28876 0.22912 0.41754 0.0
C1709 C 0.29702 0.23278 0.38231 0.0
C1710 C 0.28551 0.21712 0.43243 0.0
C1711 C 0.28738 0.19634 0.42859 0.0
C1712 C 0.29399 0.22037 0.39857 0.0
C1713 C 0.29279 0.18818 0.40944 0.0
C1714 C 0.30318 0.22453 0.36347 0.0
C1715 C 0.29515 0.26455 0.37119 0.0
N1716 N 0.29585 0.20019 0.39515 0.0
N1717 N 0.29337 0.25254 0.38553 0.0
H1718 H 0.50483 0.47468 0.96053 0.0
H1719 H 0.50381 0.52618 0.86199 0.0
H1720 H 0.55768 0.49831 0.93366 0.0
H1721 H 0.45136 0.49836 0.88606 0.0
H1722 H 0.52346 0.51821 0.88949 0.0
H1723 H 0.48469 0.48521 0.93463 0.0
C1724 C 0.51221 0.48207 0.94919 0.0
C1725 C 0.53301 0.48557 0.94929 0.0
C1726 C 0.50764 0.51392 0.88881 0.0
C1727 C 0.51001 0.49783 0.91966 0.0
C1728 C 0.49641 0.5184 0.87306 0.0
C1729 C 0.47589 0.51285 0.87162 0.0
C1730 C 0.49833 0.50377 0.90328 0.0
C1731 C 0.46708 0.50312 0.88663 0.0
C1732 C 0.50069 0.48816 0.93445 0.0
C1733 C 0.54171 0.49551 0.93436 0.0
N1734 N 0.47836 0.49881 0.90176 0.0
N1735 N 0.53018 0.50121 0.92014 0.0
H1736 H 0.73324 0.76156 0.17921 0.0
H1737 H 0.803 0.71002 0.0969 0.0
H1738 H 0.79625 0.7779 0.17776 0.0
H1739 H 0.73987 0.71175 0.08733 0.0
H1740 H 0.80079 0.73282 0.12776 0.0
H1741 H 0.73523 0.74088 0.1468 0.0
C1742 C 0.74747 0.76083 0.17202 0.0
C1743 C 0.7646 0.77146 0.18112 0.0
C1744 C 0.78745 0.72826 0.11883 0.0
C1745 C 0.76704 0.74775 0.14424 0.0
C1746 C 0.78869 0.7153 0.1011 0.0
C1747 C 0.77159 0.70884 0.08932 0.0
C1748 C 0.76896 0.73465 0.12508 0.0
C1749 C 0.75342 0.71594 0.09598 0.0
C1750 C 0.74859 0.74911 0.15352 0.0
C1751 C 0.78266 0.77009 0.17115 0.0
N1752 N 0.75257 0.72834 0.11345 0.0
N1753 N 0.78345 0.7583 0.15333 0.0
H1754 H 0.0251 0.06557 0.09176 0.0
H1755 H 0.99205 0.01074 0.18398 0.0
H1756 H 0.03935 0.00567 0.09884 0.0
H1757 H 0.96227 0.06048 0.16802 0.0
H1758 H 0.0126 0.01127 0.15476 0.0
H1759 H 0.00452 0.06624 0.12127 0.0
C1760 C 0.02392 0.05256 0.09943 0.0
C1761 C 0.03422 0.03561 0.09279 0.0
C1762 C 1.00158 0.02209 0.15762 0.0
C1763 C 0.01092 0.03647 0.12674 0.0
C1764 C 0.98994 0.02189 0.17439 0.0
C1765 C 0.97545 0.03561 0.17846 0.0
C1766 C 0.99889 0.03624 0.14485 0.0
C1767 C 0.97318 0.04954 0.16533 0.0
C1768 C 0.01222 0.05301 0.11632 0.0
C1769 C 0.0322 0.01931 0.10356 0.0
N1770 N 0.98484 0.04956 0.14913 0.0
N1771 N 0.0209 0.02019 0.11997 0.0
H1772 H 0.30425 0.72717 0.14398 0.0
H1773 H 0.27692 0.83697 0.12816 0.0
H1774 H 0.30535 0.77743 0.19072 0.0
H1775 H 0.27242 0.78597 0.08182 0.0
H1776 H 0.28418 0.81466 0.15191 0.0
H1777 H 0.2893 0.74748 0.12165 0.0
C1778 C 0.30088 0.74236 0.1496 0.0
C1779 C 0.3058 0.75072 0.16911 0.0
C1780 C 0.28146 0.80831 0.13657 0.0
C1781 C 0.28929 0.77416 0.14375 0.0
C1782 C 0.27721 0.82105 0.12298 0.0
C1783 C 0.27421 0.81343 0.10286 0.0
C1784 C 0.28283 0.78774 0.13005 0.0
C1785 C 0.27504 0.79264 0.09708 0.0
C1786 C 0.29249 0.75399 0.13687 0.0
C1787 C 0.30155 0.7705 0.17574 0.0
N1788 N 0.2794 0.78058 0.11056 0.0
N1789 N 0.29369 0.78164 0.16303 0.0
H1790 H 0.00369 0.49911 0.10865 0.0
H1791 H 0.09677 0.46145 0.16163 0.0
H1792 H 0.04259 0.45726 0.07875 0.0
H1793 H 0.06614 0.5129 0.18615 0.0
H1794 H 0.07467 0.45689 0.13263 0.0
H1795 H 0.02401 0.50144 0.13867 0.0
C1796 C 0.01651 0.49042 0.10836 0.0
C1797 C 0.02149 0.47808 0.09103 0.0
C1798 C 0.07277 0.46914 0.1444 0.0
C1799 C 0.0447 0.48049 0.12554 0.0
C1800 C 0.08545 0.47183 0.16094 0.0
C1801 C 0.08346 0.48768 0.17639 0.0
C1802 C 0.05787 0.48231 0.14327 0.0
C1803 C 0.06816 0.50033 0.17478 0.0
C1804 C 0.02806 0.4917 0.12556 0.0
C1805 C 0.03804 0.46682 0.09175 0.0
N1806 N 0.05601 0.4974 0.15852 0.0
N1807 N 0.04907 0.46835 0.10869 0.0
H1808 H 0.34143 0.71516 0.27861 0.0
H1809 H 0.45968 0.71968 0.29306 0.0
H1810 H 0.38281 0.71237 0.23058 0.0
H1811 H 0.41889 0.72237 0.34159 0.0
H1812 H 0.4315 0.71611 0.26999 0.0
H1813 H 0.36938 0.71698 0.30195 0.0
C1814 C 0.35637 0.71484 0.27296 0.0
C1815 C 0.35977 0.71373 0.2526 0.0
C1816 C 0.42868 0.71743 0.28568 0.0
C1817 C 0.39184 0.71593 0.27924 0.0
C1818 C 0.44479 0.71933 0.29888 0.0
C1819 C 0.44168 0.72128 0.31933 0.0
C1820 C 0.40925 0.71748 0.29292 0.0
C1821 C 0.42201 0.72113 0.32597 0.0
C1822 C 0.37233 0.71597 0.2863 0.0
C1823 C 0.37948 0.71356 0.24616 0.0
N1824 N 0.40656 0.71927 0.31281 0.0
N1825 N 0.39473 0.71466 0.25941 0.0
H1826 H 0.98267 0.42136 0.04741 0.0
H1827 H 0.02342 0.36847 0.94598 0.0
H1828 H 0.00569 0.45476 0.00207 0.0
H1829 H 0.98137 0.33757 0.98097 0.0
H1830 H 0.01863 0.39995 0.96719 0.0
H1831 H 0.98348 0.39014 0.0242 0.0
C1832 C 0.98771 0.4221 0.0325 0.0
C1833 C 0.99411 0.44063 0.02662 0.0
C1834 C 0.01038 0.38628 0.97014 0.0
C1835 C 0.99539 0.40503 1.00014 0.0
C1836 C 0.01303 0.36824 0.95796 0.0
C1837 C 0.00281 0.35015 0.96159 0.0
C1838 C 0.99765 0.3863 0.98629 0.0
C1839 C 0.9899 0.35095 0.97773 0.0
C1840 C 0.98814 0.40431 0.01927 0.0
C1841 C 1.00047 0.44079 0.00713 0.0
N1842 N 0.9878 0.36867 0.98954 0.0
N1843 N 1.00117 0.42324 0.99465 0.0
H1844 H 0.69541 0.75512 0.24497 0.0
H1845 H 0.63662 0.78566 0.34492 0.0
H1846 H 0.72007 0.79692 0.29433 0.0
H1847 H 0.61237 0.74276 0.29597 0.0
H1848 H 0.66621 0.79203 0.32563 0.0
H1849 H 0.66379 0.75242 0.26233 0.0
C1850 C 0.69399 0.76391 0.25939 0.0
C1851 C 0.71012 0.7763 0.26832 0.0
C1852 C 0.65438 0.78128 0.31906 0.0
C1853 C 0.67434 0.77315 0.28835 0.0
C1854 C 0.63741 0.77772 0.33004 0.0
C1855 C 0.62197 0.76358 0.3221 0.0
C1856 C 0.656 0.77064 0.29998 0.0
C1857 C 0.62401 0.75354 0.30282 0.0
C1858 C 0.67602 0.76233 0.26932 0.0
C1859 C 0.7078 0.78728 0.28702 0.0
N1860 N 0.64071 0.75722 0.29246 0.0
N1861 N 0.69024 0.78539 0.2965 0.0
H1862 H 0.06949 0.09402 0.01581 0.0
H1863 H 0.99354 0.16165 0.97075 0.0
H1864 H 0.00605 0.08025 0.01358 0.0
H1865 H 0.0573 0.1698 0.96561 0.0
H1866 H 0.99764 0.13451 0.99019 0.0
H1867 H 0.06511 0.12487 1.00173 0.0
C1868 C 0.05461 0.09778 0.01268 0.0
C1869 C 0.03808 0.08485 0.01589 0.0
C1870 C 0.01073 0.14232 0.9849 0.0
C1871 C 0.03289 0.11971 0.99948 0.0
C1872 C 0.00841 0.15776 0.97368 0.0
C1873 C 0.02509 0.168 0.96634 0.0
C1874 C 0.02988 0.13703 0.98889 0.0
C1875 C 0.044 0.16253 0.97106 0.0
C1876 C 0.0521 0.11527 0.00454 0.0
C1877 C 0.01911 0.09005 0.0114 0.0
N1878 N 0.04586 0.14738 0.98192 0.0
N1879 N 0.01701 0.10707 0.00329 0.0
H1880 H 0.31553 0.28177 0.26736 0.0
H1881 H 0.43334 0.2826 0.25322 0.0
H1882 H 0.35742 0.2818 0.31526 0.0
H1883 H 0.39109 0.27264 0.20444 0.0
H1884 H 0.40581 0.28442 0.27619 0.0
H1885 H 0.34309 0.28087 0.2442 0.0
C1886 C 0.33053 0.28171 0.27303 0.0
C1887 C 0.33414 0.28182 0.29331 0.0
C1888 C 0.40255 0.28183 0.26046 0.0
C1889 C 0.36579 0.28068 0.26683 0.0
C1890 C 0.4183 0.28066 0.24729 0.0
C1891 C 0.41464 0.27733 0.22676 0.0
C1892 C 0.3829 0.27977 0.25317 0.0
C1893 C 0.39474 0.27545 0.22008 0.0
C1894 C 0.34626 0.28107 0.25978 0.0
C1895 C 0.35389 0.28148 0.29975 0.0
N1896 N 0.37965 0.27668 0.23322 0.0
N1897 N 0.36894 0.28096 0.28658 0.0
H1898 H 0.57796 0.4042 0.02036 0.0
H1899 H 0.50186 0.36524 0.09835 0.0
H1900 H 0.52143 0.42803 0.03314 0.0
H1901 H 0.56119 0.34604 0.09114 0.0
H1902 H 0.50966 0.38975 0.07601 0.0
H1903 H 0.57324 0.38434 0.0477 0.0
C1904 C 0.56476 0.40553 0.02925 0.0
C1905 C 0.5501 0.41777 0.02477 0.0
C1906 C 0.52104 0.38028 0.07941 0.0
C1907 C 0.54432 0.39489 0.05556 0.0
C1908 C 0.51662 0.36631 0.0923 0.0
C1909 C 0.53083 0.3534 0.09665 0.0
C1910 C 0.53979 0.38136 0.07062 0.0
C1911 C 0.54961 0.35536 0.08797 0.0
C1912 C 0.562 0.39414 0.04475 0.0
C1913 C 0.53311 0.41882 0.03636 0.0
N1914 N 0.55348 0.36896 0.0753 0.0
N1915 N 0.53059 0.4074 0.05114 0.0
H1916 H 0.69468 0.25255 0.25701 0.0
H1917 H 0.57895 0.2247 0.23226 0.0
H1918 H 0.66062 0.2023 0.27621 0.0
H1919 H 0.61187 0.27699 0.21546 0.0
H1920 H 0.60814 0.21777 0.25057 0.0
H1921 H 0.66397 0.26366 0.24428 0.0
C1922 C 0.68061 0.24414 0.25888 0.0
C1923 C 0.67994 0.22664 0.2677 0.0
C1924 C 0.60897 0.23085 0.243 0.0
C1925 C 0.64501 0.23882 0.25288 0.0
C1926 C 0.59233 0.23474 0.23243 0.0
C1927 C 0.593 0.25136 0.22216 0.0
C1928 C 0.62654 0.24358 0.24323 0.0
C1929 C 0.61064 0.26407 0.22324 0.0
C1930 C 0.66314 0.25038 0.25154 0.0
C1931 C 0.66157 0.21599 0.26958 0.0
N1932 N 0.62675 0.25982 0.23343 0.0
N1933 N 0.64481 0.22216 0.26208 0.0
H1934 H 0.51369 0.07625 0.02365 0.0
H1935 H 0.46287 0.17566 0.06929 0.0
H1936 H 0.45367 0.08758 0.00941 0.0
H1937 H 0.52061 0.16109 0.08745 0.0
H1938 H 0.46026 0.14496 0.04517 0.0
H1939 H 0.51759 0.10885 0.04468 0.0
C1940 C 0.50141 0.08572 0.0247 0.0
C1941 C 0.4833 0.07911 0.01473 0.0
C1942 C 0.47352 0.1485 0.05441 0.0
C1943 C 0.48757 0.11642 0.03915 0.0
C1944 C 0.47506 0.16609 0.06812 0.0
C1945 C 0.49195 0.17094 0.08052 0.0
C1946 C 0.489 0.13567 0.05297 0.0
C1947 C 0.50718 0.15782 0.07845 0.0
C1948 C 0.50359 0.10428 0.03688 0.0
C1949 C 0.46782 0.09194 0.01698 0.0
N1950 N 0.50534 0.14082 0.06499 0.0
N1951 N 0.47028 0.10993 0.02898 0.0
H1952 H 0.29049 0.33061 0.77549 0.0
H1953 H 0.34579 0.42025 0.72667 0.0
H1954 H 0.27913 0.33977 0.71535 0.0
H1955 H 0.34486 0.41823 0.78953 0.0
H1956 H 0.32372 0.38929 0.72142 0.0
H1957 H 0.3131 0.36103 0.78001 0.0
C1958 C 0.29266 0.33906 0.76324 0.0
C1959 C 0.28269 0.33267 0.74506 0.0
C1960 C 0.32838 0.39565 0.73635 0.0
C1961 C 0.30891 0.36746 0.75007 0.0
C1962 C 0.34091 0.41339 0.73938 0.0
C1963 C 0.34728 0.42192 0.75859 0.0
C1964 C 0.32226 0.38627 0.7526 0.0
C1965 C 0.34068 0.41209 0.77443 0.0
C1966 C 0.30566 0.3564 0.76582 0.0
C1967 C 0.28657 0.34401 0.72958 0.0
N1968 N 0.32859 0.39482 0.77107 0.0
N1969 N 0.29935 0.36087 0.73245 0.0
H1970 H 0.27147 0.6761 0.8344 0.0
H1971 H 0.33369 0.60232 0.76102 0.0
H1972 H 0.27125 0.67443 0.77102 0.0
H1973 H 0.34208 0.61108 0.82439 0.0
H1974 H 0.30987 0.62793 0.76456 0.0
H1975 H 0.2967 0.65183 0.83125 0.0
C1976 C 0.27681 0.67078 0.81983 0.0
C1977 C 0.26912 0.67733 0.80294 0.0
C1978 C 0.31695 0.62432 0.77771 0.0
C1979 C 0.29783 0.64926 0.79923 0.0
C1980 C 0.33047 0.60961 0.7757 0.0
C1981 C 0.33983 0.60448 0.79245 0.0
C1982 C 0.31259 0.63394 0.79662 0.0
C1983 C 0.33531 0.61466 0.81108 0.0
C1984 C 0.29116 0.65683 0.81804 0.0
C1985 C 0.27643 0.66959 0.78443 0.0
N1986 N 0.32193 0.62883 0.81268 0.0
N1987 N 0.29029 0.65595 0.78308 0.0
H1988 H 0.9532 0.48866 0.5003 0.0
H1989 H 0.83699 0.48319 0.52335 0.0
H1990 H 0.91839 0.53978 0.50166 0.0
H1991 H 0.86917 0.43098 0.50581 0.0
H1992 H 0.86736 0.50475 0.51947 0.0
H1993 H 0.92318 0.4679 0.50615 0.0
C1994 C 0.93924 0.49554 0.50171 0.0
C1995 C 0.93838 0.51602 0.50022 0.0
C1996 C 0.86775 0.48857 0.51649 0.0
C1997 C 0.90386 0.49227 0.50736 0.0
C1998 C 0.85048 0.47627 0.51882 0.0
C1999 C 0.85056 0.45526 0.51483 0.0
C2000 C 0.88528 0.47979 0.51037 0.0
C2001 C 0.86839 0.4471 0.50882 0.0
C2002 C 0.9221 0.48366 0.50517 0.0
C2003 C 0.91986 0.52413 0.5028 0.0
N2004 N 0.88502 0.45937 0.50682 0.0
N2005 N 0.90334 0.51223 0.50621 0.0
H2006 H 0.76703 0.86311 0.81939 0.0
H2007 H 0.71429 0.91574 0.7373 0.0
H2008 H 0.75462 0.83322 0.76007 0.0
H2009 H 0.71186 0.9352 0.8001 0.0
H2010 H 0.73451 0.88858 0.7438 0.0
H2011 H 0.75287 0.89311 0.81078 0.0
C2012 C 0.76172 0.86311 0.80439 0.0
C2013 C 0.76206 0.8459 0.79033 0.0
C2014 C 0.72961 0.89888 0.75612 0.0
C2015 C 0.74547 0.87985 0.78046 0.0
C2016 C 0.71816 0.91439 0.75243 0.0
C2017 C 0.71124 0.92762 0.7682 0.0
C2018 C 0.73443 0.89679 0.7757 0.0
C2019 C 0.71662 0.92516 0.78752 0.0
C2020 C 0.75349 0.88012 0.79952 0.0
C2021 C 0.75474 0.84638 0.77121 0.0
N2022 N 0.72787 0.91008 0.79071 0.0
N2023 N 0.74661 0.8631 0.76682 0.0
H2024 H 0.61254 0.47094 0.98434 0.0
H2025 H 0.66535 0.58202 0.01391 0.0
H2026 H 0.58043 0.52322 1.00147 0.0
H2027 H 0.69378 0.53358 0.97984 0.0
H2028 H 0.63541 0.55939 0.01508 0.0
H2029 H 0.64387 0.49234 0.98907 0.0
C2030 C 0.61213 0.48685 0.98954 0.0
C2031 C 0.59391 0.49537 0.99246 0.0
C2032 C 0.64825 0.55372 0.00742 0.0
C2033 C 0.62955 0.51992 0.99765 0.0
C2034 C 0.66534 0.56668 0.00659 0.0
C2035 C 0.68217 0.55986 0.99655 0.0
C2036 C 0.64795 0.53367 0.99831 0.0
C2037 C 0.68132 0.53956 0.98789 0.0
C2038 C 0.62997 0.49907 0.99203 0.0
C2039 C 0.59418 0.51611 0.99894 0.0
N2040 N 0.6645 0.52723 0.98892 0.0
N2041 N 0.6117 0.52769 1.00122 0.0
H2042 H 0.29906 0.66559 0.19929 0.0
H2043 H 0.20734 0.62626 0.26026 0.0
H2044 H 0.28294 0.69814 0.25507 0.0
H2045 H 0.24572 0.58597 0.22747 0.0
H2046 H 0.22968 0.65498 0.25321 0.0
H2047 H 0.27374 0.63837 0.20385 0.0
C2048 C 0.28986 0.66715 0.21227 0.0
C2049 C 0.29293 0.68405 0.22681 0.0
C2050 C 0.23312 0.63984 0.24753 0.0
C2051 C 0.26415 0.65321 0.23209 0.0
C2052 C 0.22043 0.62353 0.2515 0.0
C2053 C 0.22487 0.60383 0.24452 0.0
C2054 C 0.25004 0.63637 0.23609 0.0
C2055 C 0.24195 0.60098 0.23324 0.0
C2056 C 0.2756 0.65161 0.21494 0.0
C2057 C 0.2809 0.68531 0.24353 0.0
N2058 N 0.25388 0.61709 0.22925 0.0
N2059 N 0.26696 0.67009 0.24572 0.0
H2060 H 0.93166 0.50392 0.04358 0.0
H2061 H 0.88632 0.58675 0.98742 0.0
H2062 H 0.96628 0.54141 0.00828 0.0
H2063 H 0.85143 0.54914 0.02265 0.0
H2064 H 0.91507 0.56815 0.99231 0.0
H2065 H 0.9014 0.51789 0.03341 0.0
C2066 C 0.93275 0.51482 0.03335 0.0
C2067 C 0.95126 0.52151 0.02658 0.0
C2068 C 0.9011 0.56388 0.99889 0.0
C2069 C 0.91704 0.53787 0.01524 0.0
C2070 C 0.88462 0.57444 0.99601 0.0
C2071 C 0.8664 0.56961 0.00473 0.0
C2072 C 0.89943 0.54834 0.0106 0.0
C2073 C 0.86524 0.55365 0.01594 0.0
C2074 C 0.91556 0.52288 0.02764 0.0
C2075 C 0.95213 0.53583 0.01363 0.0
N2076 N 0.88152 0.54367 0.01862 0.0
N2077 N 0.93525 0.54366 0.00847 0.0
H2078 H 0.07905 0.98579 0.07123 0.0
H2079 H 0.18902 0.97372 0.03016 0.0
H2080 H 0.11062 0.02845 0.03882 0.0
H2081 H 0.15485 0.92792 0.0566 0.0
H2082 H 0.16133 0.99499 0.0352 0.0
H2083 H 0.10758 0.96549 0.0681 0.0
C2084 C 0.09206 0.99099 0.06361 0.0
C2085 C 0.09243 0.00886 0.05526 0.0
C2086 C 0.15989 0.9803 0.03992 0.0
C2087 C 0.1251 0.98556 0.05144 0.0
C2088 C 0.17574 0.96818 0.03715 0.0
C2089 C 0.17427 0.94898 0.04295 0.0
C2090 C 0.14241 0.97324 0.04864 0.0
C2091 C 0.15657 0.9425 0.05168 0.0
C2092 C 0.10829 0.97931 0.06171 0.0
C2093 C 0.10959 0.01468 0.04529 0.0
N2094 N 0.14135 0.95461 0.05427 0.0
N2095 N 0.12522 0.00307 0.04367 0.0
loop_
_geom_bond_atom_site_label_1
_geom_bond_atom_site_label_2
_geom_bond_distance
_geom_bond_site_symmetry_2
_ccdc_geom_bond_type
H0 C3 0.929 . S
H1 C6 0.929 . S
H2 C8 0.930 . S
C3 H0 0.929 . S
C3 C4 1.398 . S
C3 C5 1.396 . S
C4 C3 1.398 . S
C4 C8 1.407 . S
C5 C3 1.396 . S
C5 C6 1.394 . S
C6 H1 0.929 . S
C6 C5 1.394 . S
C6 C7 1.382 . S
C7 C6 1.382 . S
C7 C8 1.392 . S
C7 N9 1.420 . S
C8 H2 0.930 . S
C8 C4 1.407 . S
C8 C7 1.392 . S
N9 C7 1.420 . S
N9 C10 1.244 . S
C10 N9 1.244 . S
H11 C14 0.929 . S
H12 C17 0.929 . S
H13 C19 0.930 . S
C14 H11 0.929 . S
C14 C15 1.398 . S
C14 C16 1.396 . S
C15 C14 1.398 . S
C15 C19 1.407 . S
C16 C14 1.396 . S
C16 C17 1.394 . S
C17 H12 0.929 . S
C17 C16 1.394 . S
C17 C18 1.382 . S
C18 C17 1.382 . S
C18 C19 1.392 . S
C18 N20 1.420 . S
C19 H13 0.930 . S
C19 C15 1.407 . S
C19 C18 1.392 . S
N20 C18 1.420 . S
N20 C21 1.244 . S
C21 N20 1.244 . S
H22 C25 0.929 . S
H23 C28 0.929 . S
H24 C30 0.933 1_556 S
C25 H22 0.929 . S
C25 C26 1.398 1_455 S
C25 C27 1.396 . S
C26 C25 1.398 1_655 S
C26 C30 1.407 . S
C27 C25 1.396 . S
C27 C28 1.394 1_455 S
C28 H23 0.929 . S
C28 C27 1.394 1_655 S
C28 C29 1.382 . S
C29 C28 1.382 . S
C29 C30 1.392 . S
C29 N31 1.420 . S
C30 H24 0.933 1_554 S
C30 C26 1.407 . S
C30 C29 1.392 . S
N31 C29 1.420 . S
N31 C32 1.244 . S
C32 N31 1.244 . S
H33 C36 0.929 . S
H34 C39 0.929 . S
H35 C41 0.930 . S
C36 H33 0.929 . S
C36 C37 1.398 . S
C36 C38 1.396 . S
C37 C36 1.398 . S
C37 C41 1.407 . S
C38 C36 1.396 . S
C38 C39 1.394 . S
C39 H34 0.929 . S
C39 C38 1.394 . S
C39 C40 1.382 . S
C40 C39 1.382 . S
C40 C41 1.392 . S
C40 N42 1.420 . S
C41 H35 0.930 . S
C41 C37 1.407 . S
C41 C40 1.392 . S
N42 C40 1.420 . S
N42 C43 1.244 . S
C43 N42 1.244 . S
H44 C47 0.950 . S
H45 C50 0.929 . S
H46 C52 0.930 . S
C47 H44 0.950 . S
C47 C48 1.398 . S
C47 C49 1.396 . S
C48 C47 1.398 . S
C48 C52 1.407 . S
C49 C47 1.396 . S
C49 C50 1.394 . S
C50 H45 0.929 . S
C50 C49 1.394 . S
C50 C51 1.382 . S
C51 C50 1.382 . S
C51 C52 1.392 . S
C51 N53 1.420 . S
C52 H46 0.930 . S
C52 C48 1.407 . S
C52 C51 1.392 . S
N53 C51 1.420 . S
N53 C54 1.244 . S
C54 N53 1.244 . S
H55 C58 0.929 . S
H56 C61 0.929 . S
H57 C63 0.930 . S
C58 H55 0.929 . S
C58 C59 1.398 . S
C58 C60 1.396 . S
C59 C58 1.398 . S
C59 C63 1.407 . S
C60 C58 1.396 . S
C60 C61 1.394 . S
C61 H56 0.929 . S
C61 C60 1.394 . S
C61 C62 1.382 . S
C62 C61 1.382 . S
C62 C63 1.392 . S
C62 N64 1.420 . S
C63 H57 0.930 . S
C63 C59 1.407 . S
C63 C62 1.392 . S
N64 C62 1.420 . S
N64 C65 1.244 . S
C65 N64 1.244 . S
H66 C69 0.929 . S
H67 C72 0.929 1_455 S
H68 C74 0.930 . S
C69 H66 0.929 . S
C69 C70 1.398 . S
C69 C71 1.396 . S
C70 C69 1.398 . S
C70 C74 1.407 . S
C71 C69 1.396 . S
C71 C72 1.394 . S
C72 H67 0.929 1_655 S
C72 C71 1.394 . S
C72 C73 1.382 . S
C73 C72 1.382 . S
C73 C74 1.392 . S
C73 N75 1.420 1_655 S
C74 H68 0.930 . S
C74 C70 1.407 . S
C74 C73 1.392 . S
N75 C73 1.420 1_455 S
N75 C76 1.244 . S
C76 N75 1.244 . S
H77 C80 0.929 . S
H78 C83 0.929 . S
H79 C85 0.930 . S
C80 H77 0.929 . S
C80 C81 1.398 . S
C80 C82 1.396 . S
C81 C80 1.398 . S
C81 C85 1.407 . S
C82 C80 1.396 . S
C82 C83 1.394 . S
C83 H78 0.929 . S
C83 C82 1.394 . S
C83 C84 1.382 . S
C84 C83 1.382 . S
C84 C85 1.392 . S
C84 N86 1.420 . S
C85 H79 0.930 . S
C85 C81 1.407 . S
C85 C84 1.392 . S
N86 C84 1.420 . S
N86 C87 1.244 . S
C87 N86 1.244 . S
H88 C91 0.929 . S
H89 C94 0.929 . S
H90 C96 0.930 . S
C91 H88 0.929 . S
C91 C92 1.398 . S
C91 C93 1.396 . S
C92 C91 1.398 . S
C92 C96 1.407 . S
C93 C91 1.396 . S
C93 C94 1.394 . S
C94 H89 0.929 . S
C94 C93 1.394 . S
C94 C95 1.382 . S
C95 C94 1.382 . S
C95 C96 1.392 . S
C95 N97 1.420 . S
C96 H90 0.930 . S
C96 C92 1.407 . S
C96 C95 1.392 . S
N97 C95 1.420 . S
N97 C98 1.244 . S
C98 N97 1.244 . S
H99 C102 0.929 . S
H100 C105 0.929 1_545 S
H101 C107 0.930 . S
C102 H99 0.929 . S
C102 C103 1.398 . S
C102 C104 1.396 . S
C103 C102 1.398 . S
C103 C107 1.407 . S
C104 C102 1.396 . S
C104 C105 1.394 . S
C105 H100 0.929 1_565 S
C105 C104 1.394 . S
C105 C106 1.382 . S
C106 C105 1.382 . S
C106 C107 1.392 . S
C106 N108 1.420 1_565 S
C107 H101 0.930 . S
C107 C103 1.407 . S
C107 C106 1.392 . S
N108 C106 1.420 1_545 S
N108 C109 1.244 . S
C109 N108 1.244 . S
H110 C113 0.929 . S
H111 C116 0.929 . S
H112 C118 0.930 . S
C113 H110 0.929 . S
C113 C114 1.398 . S
C113 C115 1.396 . S
C114 C113 1.398 . S
C114 C118 1.407 . S
C115 C113 1.396 . S
C115 C116 1.394 . S
C116 H111 0.929 . S
C116 C115 1.394 . S
C116 C117 1.382 . S
C117 C116 1.382 . S
C117 C118 1.392 . S
C117 N119 1.420 . S
C118 H112 0.930 . S
C118 C114 1.407 . S
C118 C117 1.392 . S
N119 C117 1.420 . S
N119 C120 1.244 . S
C120 N119 1.244 . S
H121 C124 0.929 . S
H122 C127 0.929 . S
H123 C129 0.930 . S
C124 H121 0.929 . S
C124 C125 1.398 . S
C124 C126 1.396 . S
C125 C124 1.398 . S
C125 C129 1.407 . S
C126 C124 1.396 . S
C126 C127 1.394 . S
C127 H122 0.929 . S
C127 C126 1.394 . S
C127 C128 1.382 . S
C128 C127 1.382 . S
C128 C129 1.392 . S
C128 N130 1.420 . S
C129 H123 0.930 . S
C129 C125 1.407 . S
C129 C128 1.392 . S
N130 C128 1.420 . S
N130 C131 1.244 . S
C131 N130 1.244 . S
H132 C135 0.929 . S
H133 C138 0.929 . S
H134 C140 0.930 . S
C135 H132 0.929 . S
C135 C136 1.398 . S
C135 C137 1.396 . S
C136 C135 1.398 . S
C136 C140 1.407 . S
C137 C135 1.396 . S
C137 C138 1.394 . S
C138 H133 0.929 . S
C138 C137 1.394 . S
C138 C139 1.382 . S
C139 C138 1.382 . S
C139 C140 1.392 . S
C139 N141 1.420 . S
C140 H134 0.930 . S
C140 C136 1.407 . S
C140 C139 1.392 . S
N141 C139 1.420 . S
N141 C142 1.244 . S
C142 N141 1.244 . S
H143 C146 0.929 . S
H144 C149 0.929 . S
H145 C151 0.930 . S
C146 H143 0.929 . S
C146 C147 1.398 . S
C146 C148 1.396 . S
C147 C146 1.398 . S
C147 C151 1.407 . S
C148 C146 1.396 . S
C148 C149 1.394 1_556 S
C149 H144 0.929 . S
C149 C148 1.394 1_554 S
C149 C150 1.382 . S
C150 C149 1.382 . S
C150 C151 1.392 1_554 S
C150 N152 1.420 . S
C151 H145 0.930 . S
C151 C147 1.407 . S
C151 C150 1.392 1_556 S
N152 C150 1.420 . S
N152 C153 1.244 . S
C153 N152 1.244 . S
H154 C157 0.929 . S
H155 C160 0.929 . S
H156 C162 0.930 . S
C157 H154 0.929 . S
C157 C158 1.398 . S
C157 C159 1.396 . S
C158 C157 1.398 . S
C158 C162 1.407 . S
C159 C157 1.396 . S
C159 C160 1.394 . S
C160 H155 0.929 . S
C160 C159 1.394 . S
C160 C161 1.382 . S
C161 C160 1.382 . S
C161 C162 1.392 . S
C161 N163 1.420 . S
C162 H156 0.930 . S
C162 C158 1.407 . S
C162 C161 1.392 . S
N163 C161 1.420 . S
N163 C164 1.244 . S
C164 N163 1.244 . S
H165 C168 0.929 1_554 S
H166 C171 0.929 . S
H167 C173 0.930 1_565 S
C168 H165 0.929 1_556 S
C168 C169 1.398 . S
C168 C170 1.396 . S
C169 C168 1.398 . S
C169 C173 1.407 . S
C170 C168 1.396 . S
C170 C171 1.394 . S
C171 H166 0.929 . S
C171 C170 1.394 . S
C171 C172 1.382 . S
C172 C171 1.382 . S
C172 C173 1.392 . S
C172 N174 1.420 . S
C173 H167 0.930 1_545 S
C173 C169 1.407 . S
C173 C172 1.392 . S
N174 C172 1.420 . S
N174 C175 1.244 . S
C175 N174 1.244 . S
Li176 N193 1.990 . S
Li176 O236 1.956 . S
Li176 O237 1.970 . S
Li176 O238 1.961 . S
Li177 N201 1.990 . S
Li177 O236 1.970 . S
Li177 O237 1.956 . S
Li177 O239 1.961 . S
Li178 N223 1.990 1_554 S
Li178 O236 1.961 . S
Li178 O238 1.956 . S
Li178 O239 1.970 . S
Li179 N229 1.990 . S
Li179 O237 1.961 . S
Li179 O238 1.970 . S
Li179 O239 1.956 . S
C180 C182 1.348 . S
C180 C183 1.356 . S
C180 O236 1.325 . S
N181 C184 1.314 . S
N181 C185 1.279 . S
C182 C180 1.348 . S
C182 C184 1.353 . S
C182 H240 0.929 . S
C183 C180 1.356 . S
C183 C185 1.358 . S
C183 H241 0.930 1_554 S
C184 N181 1.314 . S
C184 C182 1.353 . S
C184 H242 0.930 . S
C185 N181 1.279 . S
C185 C183 1.358 . S
C185 H243 0.930 1_554 S
C186 C189 1.348 . S
C186 C190 1.356 . S
C186 O237 1.325 . S
C187 N188 1.279 . S
C187 C190 1.358 . S
C187 H244 0.930 . S
N188 C187 1.279 . S
N188 C191 1.314 . S
C189 C186 1.348 . S
C189 C191 1.353 . S
C189 H245 0.929 . S
C190 C186 1.356 . S
C190 C187 1.358 . S
C190 H246 0.930 . S
C191 N188 1.314 . S
C191 C189 1.353 . S
C191 H247 0.930 . S
C192 N193 1.314 . S
C192 C197 1.353 . S
C192 H198 0.930 . S
N193 Li176 1.990 . S
N193 C192 1.314 . S
N193 C195 1.279 . S
C194 C195 1.358 . S
C194 C196 1.356 . S
C194 H248 0.930 . S
C195 N193 1.279 . S
C195 C194 1.358 . S
C195 H199 0.930 . S
C196 C194 1.356 . S
C196 C197 1.348 . S
C197 C192 1.353 . S
C197 C196 1.348 . S
C197 H249 0.929 . S
H198 C192 0.930 . S
H199 C195 0.930 . S
C200 N201 1.314 . S
C200 C202 1.353 . S
C200 H206 0.930 . S
N201 Li177 1.990 . S
N201 C200 1.314 . S
N201 C204 1.279 . S
C202 C200 1.353 . S
C202 C205 1.348 . S
C202 H250 0.929 . S
C203 C204 1.358 . S
C203 C205 1.356 . S
C203 H251 0.930 . S
C204 N201 1.279 . S
C204 C203 1.358 . S
C204 H207 0.930 . S
C205 C202 1.348 . S
C205 C203 1.356 . S
H206 C200 0.930 . S
H207 C204 0.930 . S
C208 C210 1.352 . S
C208 C211 1.368 . S
C208 O238 1.311 1_556 S
N209 C212 1.314 . S
N209 C213 1.279 . S
C210 C208 1.352 . S
C210 C212 1.353 . S
C210 H252 0.929 1_556 S
C211 C208 1.368 . S
C211 C213 1.358 . S
C211 H253 0.930 . S
C212 N209 1.314 . S
C212 C210 1.353 . S
C212 H254 0.930 . S
C213 N209 1.279 . S
C213 C211 1.358 . S
C213 H255 0.930 . S
C214 C215 1.348 . S
C214 C216 1.356 . S
C214 O239 1.325 . S
C215 C214 1.348 . S
C215 C217 1.353 . S
C215 H256 0.929 . S
C216 C214 1.356 . S
C216 C218 1.358 . S
C216 H257 0.930 . S
C217 C215 1.353 . S
C217 N219 1.314 . S
C217 H258 0.930 . S
C218 C216 1.358 . S
C218 N219 1.279 . S
C218 H259 0.930 . S
N219 C217 1.314 . S
N219 C218 1.279 . S
C220 C222 1.353 . S
C220 N223 1.314 . S
C220 H226 0.927 1_556 S
C221 N223 1.279 . S
C221 C224 1.358 . S
C221 H227 0.930 . S
C222 C220 1.353 . S
C222 C225 1.348 . S
C222 H260 0.929 . S
N223 Li178 1.990 1_556 S
N223 C220 1.314 . S
N223 C221 1.279 . S
C224 C221 1.358 . S
C224 C225 1.356 . S
C224 H261 0.930 . S
C225 C222 1.348 . S
C225 C224 1.356 . S
H226 C220 0.927 1_554 S
H227 C221 0.930 . S
C228 N229 1.314 . S
C228 C230 1.353 . S
C228 H234 0.930 . S
N229 Li179 1.990 . S
N229 C228 1.314 . S
N229 C232 1.279 . S
C230 C228 1.353 . S
C230 C233 1.348 . S
C230 H262 0.929 . S
C231 C232 1.358 . S
C231 C233 1.356 . S
C231 H263 0.930 . S
C232 N229 1.279 . S
C232 C231 1.358 . S
C232 H235 0.930 . S
C233 C230 1.348 . S
C233 C231 1.356 . S
H234 C228 0.930 . S
H235 C232 0.930 . S
O236 Li176 1.956 . S
O236 Li177 1.970 . S
O236 Li178 1.961 . S
O236 C180 1.325 . S
O237 Li176 1.970 . S
O237 Li177 1.956 . S
O237 Li179 1.961 . S
O237 C186 1.325 . S
O238 Li176 1.961 . S
O238 Li178 1.956 . S
O238 Li179 1.970 . S
O238 C208 1.311 1_554 S
O239 Li177 1.961 . S
O239 Li178 1.970 . S
O239 Li179 1.956 . S
O239 C214 1.325 . S
H240 C182 0.929 . S
H241 C183 0.930 1_556 S
H242 C184 0.930 . S
H243 C185 0.930 1_556 S
H244 C187 0.930 . S
H245 C189 0.929 . S
H246 C190 0.930 . S
H247 C191 0.930 . S
H248 C194 0.930 . S
H249 C197 0.929 . S
H250 C202 0.929 . S
H251 C203 0.930 . S
H252 C210 0.929 1_554 S
H253 C211 0.930 . S
H254 C212 0.930 . S
H255 C213 0.930 . S
H256 C215 0.929 . S
H257 C216 0.930 . S
H258 C217 0.930 . S
H259 C218 0.930 . S
H260 C222 0.929 . S
H261 C224 0.930 . S
H262 C230 0.929 . S
H263 C231 0.930 . S
Li264 N281 1.990 . S
Li264 O324 1.956 . S
Li264 O325 1.970 . S
Li264 O326 1.961 . S
Li265 N289 1.990 . S
Li265 O324 1.970 . S
Li265 O325 1.956 . S
Li265 O327 1.961 . S
Li266 N311 1.990 . S
Li266 O324 1.961 . S
Li266 O326 1.956 . S
Li266 O327 1.970 . S
Li267 N317 1.990 . S
Li267 O325 1.961 . S
Li267 O326 1.970 . S
Li267 O327 1.956 . S
C268 C270 1.348 . S
C268 C271 1.356 . S
C268 O324 1.325 . S
N269 C272 1.314 . S
N269 C273 1.279 . S
C270 C268 1.348 . S
C270 C272 1.353 . S
C270 H328 0.929 . S
C271 C268 1.356 . S
C271 C273 1.358 . S
C271 H329 0.930 . S
C272 N269 1.314 . S
C272 C270 1.353 . S
C272 H330 0.930 . S
C273 N269 1.279 . S
C273 C271 1.358 . S
C273 H331 0.930 . S
C274 C277 1.348 . S
C274 C278 1.356 . S
C274 O325 1.325 . S
C275 N276 1.279 . S
C275 C278 1.358 . S
C275 H332 0.930 . S
N276 C275 1.279 . S
N276 C279 1.314 . S
C277 C274 1.348 . S
C277 C279 1.353 . S
C277 H333 0.929 . S
C278 C274 1.356 . S
C278 C275 1.358 . S
C278 H334 0.930 . S
C279 N276 1.314 . S
C279 C277 1.353 . S
C279 H335 0.930 . S
C280 N281 1.314 . S
C280 C285 1.353 . S
C280 H286 0.930 . S
N281 Li264 1.990 . S
N281 C280 1.314 . S
N281 C283 1.279 . S
C282 C283 1.358 . S
C282 C284 1.356 . S
C282 H336 0.930 . S
C283 N281 1.279 . S
C283 C282 1.358 . S
C283 H287 0.930 . S
C284 C282 1.356 . S
C284 C285 1.348 . S
C285 C280 1.353 . S
C285 C284 1.348 . S
C285 H337 0.929 . S
H286 C280 0.930 . S
H287 C283 0.930 . S
C288 N289 1.314 . S
C288 C290 1.353 . S
C288 H294 0.930 . S
N289 Li265 1.990 . S
N289 C288 1.314 . S
N289 C292 1.279 . S
C290 C288 1.353 . S
C290 C293 1.348 . S
C290 H338 0.929 . S
C291 C292 1.358 . S
C291 C293 1.356 . S
C291 H339 0.930 . S
C292 N289 1.279 . S
C292 C291 1.358 . S
C292 H295 0.930 . S
C293 C290 1.348 . S
C293 C291 1.356 . S
H294 C288 0.930 . S
H295 C292 0.930 . S
C296 C298 1.348 . S
C296 C299 1.356 . S
C296 O326 1.325 . S
N297 C300 1.314 . S
N297 C301 1.279 . S
C298 C296 1.348 . S
C298 C300 1.353 . S
C298 H340 0.929 . S
C299 C296 1.356 . S
C299 C301 1.358 . S
C299 H341 0.930 . S
C300 N297 1.314 . S
C300 C298 1.353 . S
C300 H342 0.930 . S
C301 N297 1.279 . S
C301 C299 1.358 . S
C301 H343 0.930 . S
C302 C303 1.348 . S
C302 C304 1.356 . S
C302 O327 1.325 . S
C303 C302 1.348 . S
C303 C305 1.353 . S
C303 H344 0.929 . S
C304 C302 1.356 . S
C304 C306 1.358 . S
C304 H345 0.930 . S
C305 C303 1.353 . S
C305 N307 1.314 . S
C305 H346 0.930 . S
C306 C304 1.358 . S
C306 N307 1.279 . S
C306 H347 0.930 . S
N307 C305 1.314 . S
N307 C306 1.279 . S
C308 C310 1.353 . S
C308 N311 1.314 . S
C308 H314 0.930 . S
C309 N311 1.279 . S
C309 C312 1.358 . S
C309 H315 0.930 . S
C310 C308 1.353 . S
C310 C313 1.348 . S
C310 H348 0.929 . S
N311 Li266 1.990 . S
N311 C308 1.314 . S
N311 C309 1.279 . S
C312 C309 1.358 . S
C312 C313 1.356 . S
C312 H349 0.930 . S
C313 C310 1.348 . S
C313 C312 1.356 . S
H314 C308 0.930 . S
H315 C309 0.930 . S
C316 N317 1.314 . S
C316 C318 1.353 . S
C316 H322 0.930 . S
N317 Li267 1.990 . S
N317 C316 1.314 . S
N317 C320 1.279 . S
C318 C316 1.353 . S
C318 C321 1.348 . S
C318 H350 0.929 . S
C319 C320 1.358 . S
C319 C321 1.356 . S
C319 H351 0.930 . S
C320 N317 1.279 . S
C320 C319 1.358 . S
C320 H323 0.930 . S
C321 C318 1.348 . S
C321 C319 1.356 . S
H322 C316 0.930 . S
H323 C320 0.930 . S
O324 Li264 1.956 . S
O324 Li265 1.970 . S
O324 Li266 1.961 . S
O324 C268 1.325 . S
O325 Li264 1.970 . S
O325 Li265 1.956 . S
O325 Li267 1.961 . S
O325 C274 1.325 . S
O326 Li264 1.961 . S
O326 Li266 1.956 . S
O326 Li267 1.970 . S
O326 C296 1.325 . S
O327 Li265 1.961 . S
O327 Li266 1.970 . S
O327 Li267 1.956 . S
O327 C302 1.325 . S
H328 C270 0.929 . S
H329 C271 0.930 . S
H330 C272 0.930 . S
H331 C273 0.930 . S
H332 C275 0.930 . S
H333 C277 0.929 . S
H334 C278 0.930 . S
H335 C279 0.930 . S
H336 C282 0.930 . S
H337 C285 0.929 . S
H338 C290 0.929 . S
H339 C291 0.930 . S
H340 C298 0.929 . S
H341 C299 0.930 . S
H342 C300 0.930 . S
H343 C301 0.930 . S
H344 C303 0.929 . S
H345 C304 0.930 . S
H346 C305 0.930 . S
H347 C306 0.930 . S
H348 C310 0.929 . S
H349 C312 0.930 . S
H350 C318 0.929 . S
H351 C319 0.930 . S
Li352 N369 1.994 . S
Li352 O412 1.969 1_556 S
Li352 O413 1.927 1_556 S
Li352 O414 1.997 . S
Li353 N377 1.990 . S
Li353 O412 2.014 . S
Li353 O413 1.956 . S
Li353 O415 1.961 . S
Li354 N399 1.990 . S
Li354 O412 1.924 1_556 S
Li354 O414 1.956 . S
Li354 O415 1.970 1_556 S
Li355 N405 1.990 . S
Li355 O413 1.961 . S
Li355 O414 1.970 1_554 S
Li355 O415 1.956 . S
C356 C358 1.335 1_556 S
C356 C359 1.371 . S
C356 O412 1.317 1_556 S
N357 C360 1.314 1_556 S
N357 C361 1.279 . S
C358 C356 1.335 1_554 S
C358 C360 1.353 . S
C358 H416 0.929 . S
C359 C356 1.371 . S
C359 C361 1.358 . S
C359 H417 0.930 . S
C360 N357 1.314 1_554 S
C360 C358 1.353 . S
C360 H418 0.930 . S
C361 N357 1.279 . S
C361 C359 1.358 . S
C361 H419 0.930 . S
C362 C365 1.348 . S
C362 C366 1.356 . S
C362 O413 1.325 . S
C363 N364 1.279 . S
C363 C366 1.358 . S
C363 H420 0.930 . S
N364 C363 1.279 . S
N364 C367 1.314 . S
C365 C362 1.348 . S
C365 C367 1.353 . S
C365 H421 0.929 . S
C366 C362 1.356 . S
C366 C363 1.358 . S
C366 H422 0.930 . S
C367 N364 1.314 . S
C367 C365 1.353 . S
C367 H423 0.930 . S
C368 N369 1.314 . S
C368 C373 1.353 . S
C368 H374 0.930 . S
N369 Li352 1.994 . S
N369 C368 1.314 . S
N369 C371 1.279 . S
C370 C371 1.358 . S
C370 C372 1.356 . S
C370 H424 0.930 . S
C371 N369 1.279 . S
C371 C370 1.358 . S
C371 H375 0.930 1_556 S
C372 C370 1.356 . S
C372 C373 1.348 . S
C373 C368 1.353 . S
C373 C372 1.348 . S
C373 H425 0.929 . S
H374 C368 0.930 . S
H375 C371 0.930 1_554 S
C376 N377 1.314 . S
C376 C378 1.353 . S
C376 H382 0.930 . S
N377 Li353 1.990 . S
N377 C376 1.314 . S
N377 C380 1.279 . S
C378 C376 1.353 . S
C378 C381 1.348 . S
C378 H426 0.929 . S
C379 C380 1.358 . S
C379 C381 1.356 . S
C379 H427 0.930 . S
C380 N377 1.279 . S
C380 C379 1.358 . S
C380 H383 0.930 . S
C381 C378 1.348 . S
C381 C379 1.356 . S
H382 C376 0.930 . S
H383 C380 0.930 . S
C384 C386 1.348 . S
C384 C387 1.356 . S
C384 O414 1.325 . S
N385 C388 1.314 . S
N385 C389 1.279 . S
C386 C384 1.348 . S
C386 C388 1.353 . S
C386 H428 0.929 . S
C387 C384 1.356 . S
C387 C389 1.358 . S
C387 H429 0.930 . S
C388 N385 1.314 . S
C388 C386 1.353 . S
C388 H430 0.930 . S
C389 N385 1.279 . S
C389 C387 1.358 . S
C389 H431 0.930 . S
C390 C391 1.348 1_554 S
C390 C392 1.356 . S
C390 O415 1.325 . S
C391 C390 1.348 1_556 S
C391 C393 1.353 . S
C391 H432 0.929 . S
C392 C390 1.356 . S
C392 C394 1.358 . S
C392 H433 0.930 . S
C393 C391 1.353 . S
C393 N395 1.314 1_556 S
C393 H434 0.930 . S
C394 C392 1.358 . S
C394 N395 1.279 . S
C394 H435 0.930 . S
N395 C393 1.314 1_554 S
N395 C394 1.279 . S
C396 C398 1.353 . S
C396 N399 1.314 . S
C396 H402 0.930 . S
C397 N399 1.279 . S
C397 C400 1.358 . S
C397 H403 0.930 . S
C398 C396 1.353 . S
C398 C401 1.348 . S
C398 H436 0.929 . S
N399 Li354 1.990 . S
N399 C396 1.314 . S
N399 C397 1.279 . S
C400 C397 1.358 . S
C400 C401 1.356 . S
C400 H437 0.930 . S
C401 C398 1.348 . S
C401 C400 1.356 . S
H402 C396 0.930 . S
H403 C397 0.930 . S
C404 N405 1.314 . S
C404 C406 1.353 . S
C404 H410 0.930 . S
N405 Li355 1.990 . S
N405 C404 1.314 . S
N405 C408 1.279 . S
C406 C404 1.353 . S
C406 C409 1.348 . S
C406 H438 0.929 . S
C407 C408 1.358 . S
C407 C409 1.356 . S
C407 H439 0.930 . S
C408 N405 1.279 . S
C408 C407 1.358 . S
C408 H411 0.930 . S
C409 C406 1.348 . S
C409 C407 1.356 . S
H410 C404 0.930 . S
H411 C408 0.930 . S
O412 Li352 1.969 1_554 S
O412 Li353 2.014 . S
O412 Li354 1.924 1_554 S
O412 C356 1.317 1_554 S
O413 Li352 1.927 1_554 S
O413 Li353 1.956 . S
O413 Li355 1.961 . S
O413 C362 1.325 . S
O414 Li352 1.997 . S
O414 Li354 1.956 . S
O414 Li355 1.970 1_556 S
O414 C384 1.325 . S
O415 Li353 1.961 . S
O415 Li354 1.970 1_554 S
O415 Li355 1.956 . S
O415 C390 1.325 . S
H416 C358 0.929 . S
H417 C359 0.930 . S
H418 C360 0.930 . S
H419 C361 0.930 . S
H420 C363 0.930 . S
H421 C365 0.929 . S
H422 C366 0.930 . S
H423 C367 0.930 . S
H424 C370 0.930 . S
H425 C373 0.929 . S
H426 C378 0.929 . S
H427 C379 0.930 . S
H428 C386 0.929 . S
H429 C387 0.930 . S
H430 C388 0.930 . S
H431 C389 0.930 . S
H432 C391 0.929 . S
H433 C392 0.930 . S
H434 C393 0.930 . S
H435 C394 0.930 . S
H436 C398 0.929 . S
H437 C400 0.930 . S
H438 C406 0.929 . S
H439 C407 0.930 . S
Li440 N457 1.990 . S
Li440 O500 1.956 . S
Li440 O501 1.970 . S
Li440 O502 1.961 . S
Li441 N465 1.990 . S
Li441 O500 1.970 . S
Li441 O501 1.956 . S
Li441 O503 1.961 1_545 S
Li442 N487 1.990 . S
Li442 O500 1.961 . S
Li442 O502 1.956 . S
Li442 O503 1.970 1_545 S
Li443 N493 1.990 . S
Li443 O501 1.961 1_565 S
Li443 O502 1.970 1_565 S
Li443 O503 1.956 . S
C444 C446 1.348 . S
C444 C447 1.356 . S
C444 O500 1.325 . S
N445 C448 1.314 . S
N445 C449 1.279 . S
C446 C444 1.348 . S
C446 C448 1.353 . S
C446 H504 0.929 . S
C447 C444 1.356 . S
C447 C449 1.358 . S
C447 H505 0.930 . S
C448 N445 1.314 . S
C448 C446 1.353 . S
C448 H506 0.930 . S
C449 N445 1.279 . S
C449 C447 1.358 . S
C449 H507 0.930 . S
C450 C453 1.348 . S
C450 C454 1.356 1_545 S
C450 O501 1.325 . S
C451 N452 1.279 1_565 S
C451 C454 1.358 . S
C451 H508 0.930 . S
N452 C451 1.279 1_545 S
N452 C455 1.314 . S
C453 C450 1.348 . S
C453 C455 1.353 . S
C453 H509 0.929 . S
C454 C450 1.356 1_565 S
C454 C451 1.358 . S
C454 H510 0.930 . S
C455 N452 1.314 . S
C455 C453 1.353 . S
C455 H511 0.930 . S
C456 N457 1.314 . S
C456 C461 1.353 . S
C456 H462 0.930 . S
N457 Li440 1.990 . S
N457 C456 1.314 . S
N457 C459 1.279 . S
C458 C459 1.358 . S
C458 C460 1.356 . S
C458 H512 0.930 . S
C459 N457 1.279 . S
C459 C458 1.358 . S
C459 H463 0.930 . S
C460 C458 1.356 . S
C460 C461 1.348 . S
C461 C456 1.353 . S
C461 C460 1.348 . S
C461 H513 0.929 . S
H462 C456 0.930 . S
H463 C459 0.930 . S
C464 N465 1.314 . S
C464 C466 1.353 . S
C464 H470 0.930 . S
N465 Li441 1.990 . S
N465 C464 1.314 . S
N465 C468 1.279 . S
C466 C464 1.353 . S
C466 C469 1.348 . S
C466 H514 0.929 . S
C467 C468 1.358 . S
C467 C469 1.356 . S
C467 H515 0.930 . S
C468 N465 1.279 . S
C468 C467 1.358 . S
C468 H471 0.930 . S
C469 C466 1.348 . S
C469 C467 1.356 . S
H470 C464 0.930 . S
H471 C468 0.930 . S
C472 C474 1.348 . S
C472 C475 1.356 . S
C472 O502 1.325 . S
N473 C476 1.314 . S
N473 C477 1.279 . S
C474 C472 1.348 . S
C474 C476 1.353 . S
C474 H516 0.929 1_545 S
C475 C472 1.356 . S
C475 C477 1.358 . S
C475 H517 0.930 . S
C476 N473 1.314 . S
C476 C474 1.353 . S
C476 H518 0.930 1_545 S
C477 N473 1.279 . S
C477 C475 1.358 . S
C477 H519 0.930 . S
C478 C479 1.348 . S
C478 C480 1.356 . S
C478 O503 1.325 . S
C479 C478 1.348 . S
C479 C481 1.353 . S
C479 H520 0.929 . S
C480 C478 1.356 . S
C480 C482 1.358 . S
C480 H521 0.930 . S
C481 C479 1.353 . S
C481 N483 1.314 . S
C481 H522 0.930 . S
C482 C480 1.358 . S
C482 N483 1.279 . S
C482 H523 0.930 . S
N483 C481 1.314 . S
N483 C482 1.279 . S
C484 C486 1.353 . S
C484 N487 1.314 . S
C484 H490 0.930 . S
C485 N487 1.279 . S
C485 C488 1.358 . S
C485 H491 0.930 . S
C486 C484 1.353 . S
C486 C489 1.348 . S
C486 H524 0.929 . S
N487 Li442 1.990 . S
N487 C484 1.314 . S
N487 C485 1.279 . S
C488 C485 1.358 . S
C488 C489 1.356 . S
C488 H525 0.930 . S
C489 C486 1.348 . S
C489 C488 1.356 . S
H490 C484 0.930 . S
H491 C485 0.930 . S
C492 N493 1.314 . S
C492 C494 1.353 . S
C492 H498 0.930 . S
N493 Li443 1.990 . S
N493 C492 1.314 . S
N493 C496 1.279 . S
C494 C492 1.353 . S
C494 C497 1.348 . S
C494 H526 0.929 . S
C495 C496 1.358 . S
C495 C497 1.356 . S
C495 H527 0.930 . S
C496 N493 1.279 . S
C496 C495 1.358 . S
C496 H499 0.930 . S
C497 C494 1.348 . S
C497 C495 1.356 . S
H498 C492 0.930 . S
H499 C496 0.930 . S
O500 Li440 1.956 . S
O500 Li441 1.970 . S
O500 Li442 1.961 . S
O500 C444 1.325 . S
O501 Li440 1.970 . S
O501 Li441 1.956 . S
O501 Li443 1.961 1_545 S
O501 C450 1.325 . S
O502 Li440 1.961 . S
O502 Li442 1.956 . S
O502 Li443 1.970 1_545 S
O502 C472 1.325 . S
O503 Li441 1.961 1_565 S
O503 Li442 1.970 1_565 S
O503 Li443 1.956 . S
O503 C478 1.325 . S
H504 C446 0.929 . S
H505 C447 0.930 . S
H506 C448 0.930 . S
H507 C449 0.930 . S
H508 C451 0.930 . S
H509 C453 0.929 . S
H510 C454 0.930 . S
H511 C455 0.930 . S
H512 C458 0.930 . S
H513 C461 0.929 . S
H514 C466 0.929 . S
H515 C467 0.930 . S
H516 C474 0.929 1_565 S
H517 C475 0.930 . S
H518 C476 0.930 1_565 S
H519 C477 0.930 . S
H520 C479 0.929 . S
H521 C480 0.930 . S
H522 C481 0.930 . S
H523 C482 0.930 . S
H524 C486 0.929 . S
H525 C488 0.930 . S
H526 C494 0.929 . S
H527 C495 0.930 . S
Li528 N545 1.990 . S
Li528 O588 1.956 . S
Li528 O589 1.970 . S
Li528 O590 1.961 . S
Li529 N553 1.990 . S
Li529 O588 1.970 . S
Li529 O589 1.956 . S
Li529 O591 1.961 . S
Li530 N575 1.990 . S
Li530 O588 1.961 . S
Li530 O590 1.956 . S
Li530 O591 1.970 . S
Li531 N581 1.990 . S
Li531 O589 1.961 . S
Li531 O590 1.970 . S
Li531 O591 1.956 . S
C532 C534 1.348 . S
C532 C535 1.356 . S
C532 O588 1.325 . S
N533 C536 1.314 . S
N533 C537 1.279 . S
C534 C532 1.348 . S
C534 C536 1.353 . S
C534 H592 0.929 . S
C535 C532 1.356 . S
C535 C537 1.358 . S
C535 H593 0.930 . S
C536 N533 1.314 . S
C536 C534 1.353 . S
C536 H594 0.930 . S
C537 N533 1.279 . S
C537 C535 1.358 . S
C537 H595 0.930 . S
C538 C541 1.348 . S
C538 C542 1.356 . S
C538 O589 1.325 . S
C539 N540 1.279 . S
C539 C542 1.358 . S
C539 H596 0.930 . S
N540 C539 1.279 . S
N540 C543 1.314 . S
C541 C538 1.348 . S
C541 C543 1.353 . S
C541 H597 0.929 . S
C542 C538 1.356 . S
C542 C539 1.358 . S
C542 H598 0.930 . S
C543 N540 1.314 . S
C543 C541 1.353 . S
C543 H599 0.930 . S
C544 N545 1.314 . S
C544 C549 1.353 . S
C544 H550 0.930 . S
N545 Li528 1.990 . S
N545 C544 1.314 . S
N545 C547 1.279 . S
C546 C547 1.358 . S
C546 C548 1.356 . S
C546 H600 0.930 . S
C547 N545 1.279 . S
C547 C546 1.358 . S
C547 H551 0.930 . S
C548 C546 1.356 . S
C548 C549 1.348 . S
C549 C544 1.353 . S
C549 C548 1.348 . S
C549 H601 0.929 . S
H550 C544 0.930 . S
H551 C547 0.930 . S
C552 N553 1.314 . S
C552 C554 1.353 . S
C552 H558 0.930 . S
N553 Li529 1.990 . S
N553 C552 1.314 . S
N553 C556 1.279 . S
C554 C552 1.353 . S
C554 C557 1.348 . S
C554 H602 0.929 . S
C555 C556 1.358 . S
C555 C557 1.356 . S
C555 H603 0.930 . S
C556 N553 1.279 . S
C556 C555 1.358 . S
C556 H559 0.930 . S
C557 C554 1.348 . S
C557 C555 1.356 . S
H558 C552 0.930 . S
H559 C556 0.930 . S
C560 C562 1.348 . S
C560 C563 1.356 . S
C560 O590 1.325 . S
N561 C564 1.314 . S
N561 C565 1.279 . S
C562 C560 1.348 . S
C562 C564 1.353 . S
C562 H604 0.929 . S
C563 C560 1.356 . S
C563 C565 1.358 . S
C563 H605 0.930 . S
C564 N561 1.314 . S
C564 C562 1.353 . S
C564 H606 0.930 . S
C565 N561 1.279 . S
C565 C563 1.358 . S
C565 H607 0.930 . S
C566 C567 1.348 . S
C566 C568 1.356 . S
C566 O591 1.325 . S
C567 C566 1.348 . S
C567 C569 1.353 . S
C567 H608 0.929 . S
C568 C566 1.356 . S
C568 C570 1.358 . S
C568 H609 0.930 . S
C569 C567 1.353 . S
C569 N571 1.314 . S
C569 H610 0.930 . S
C570 C568 1.358 . S
C570 N571 1.279 . S
C570 H611 0.930 . S
N571 C569 1.314 . S
N571 C570 1.279 . S
C572 C574 1.353 . S
C572 N575 1.314 . S
C572 H578 0.930 . S
C573 N575 1.279 . S
C573 C576 1.358 . S
C573 H579 0.930 . S
C574 C572 1.353 . S
C574 C577 1.348 . S
C574 H612 0.929 . S
N575 Li530 1.990 . S
N575 C572 1.314 . S
N575 C573 1.279 . S
C576 C573 1.358 . S
C576 C577 1.356 . S
C576 H613 0.930 . S
C577 C574 1.348 . S
C577 C576 1.356 . S
H578 C572 0.930 . S
H579 C573 0.930 . S
C580 N581 1.314 . S
C580 C582 1.353 . S
C580 H586 0.930 . S
N581 Li531 1.990 . S
N581 C580 1.314 . S
N581 C584 1.279 . S
C582 C580 1.353 . S
C582 C585 1.348 . S
C582 H614 0.929 . S
C583 C584 1.358 . S
C583 C585 1.356 . S
C583 H615 0.930 . S
C584 N581 1.279 . S
C584 C583 1.358 . S
C584 H587 0.930 . S
C585 C582 1.348 . S
C585 C583 1.356 . S
H586 C580 0.930 . S
H587 C584 0.930 . S
O588 Li528 1.956 . S
O588 Li529 1.970 . S
O588 Li530 1.961 . S
O588 C532 1.325 . S
O589 Li528 1.970 . S
O589 Li529 1.956 . S
O589 Li531 1.961 . S
O589 C538 1.325 . S
O590 Li528 1.961 . S
O590 Li530 1.956 . S
O590 Li531 1.970 . S
O590 C560 1.325 . S
O591 Li529 1.961 . S
O591 Li530 1.970 . S
O591 Li531 1.956 . S
O591 C566 1.325 . S
H592 C534 0.929 . S
H593 C535 0.930 . S
H594 C536 0.930 . S
H595 C537 0.930 . S
H596 C539 0.930 . S
H597 C541 0.929 . S
H598 C542 0.930 . S
H599 C543 0.930 . S
H600 C546 0.930 . S
H601 C549 0.929 . S
H602 C554 0.929 . S
H603 C555 0.930 . S
H604 C562 0.929 . S
H605 C563 0.930 . S
H606 C564 0.930 . S
H607 C565 0.930 . S
H608 C567 0.929 . S
H609 C568 0.930 . S
H610 C569 0.930 . S
H611 C570 0.930 . S
H612 C574 0.929 . S
H613 C576 0.930 . S
H614 C582 0.929 . S
H615 C583 0.930 . S
Li616 N633 1.990 . S
Li616 O676 1.956 . S
Li616 O677 1.970 . S
Li616 O678 1.961 . S
Li617 N641 1.990 . S
Li617 O676 1.970 . S
Li617 O677 1.956 . S
Li617 O679 1.961 . S
Li618 N663 1.990 . S
Li618 O676 1.961 . S
Li618 O678 1.956 . S
Li618 O679 1.970 . S
Li619 N669 1.990 . S
Li619 O677 1.961 . S
Li619 O678 1.970 . S
Li619 O679 1.956 . S
C620 C622 1.348 . S
C620 C623 1.356 . S
C620 O676 1.325 . S
N621 C624 1.314 . S
N621 C625 1.279 . S
C622 C620 1.348 . S
C622 C624 1.353 . S
C622 H680 0.929 . S
C623 C620 1.356 . S
C623 C625 1.358 . S
C623 H681 0.930 . S
C624 N621 1.314 . S
C624 C622 1.353 . S
C624 H682 0.930 . S
C625 N621 1.279 . S
C625 C623 1.358 . S
C625 H683 0.930 . S
C626 C629 1.348 . S
C626 C630 1.356 . S
C626 O677 1.325 . S
C627 N628 1.279 . S
C627 C630 1.358 . S
C627 H684 0.930 . S
N628 C627 1.279 . S
N628 C631 1.314 . S
C629 C626 1.348 . S
C629 C631 1.353 . S
C629 H685 0.929 . S
C630 C626 1.356 . S
C630 C627 1.358 . S
C630 H686 0.930 . S
C631 N628 1.314 . S
C631 C629 1.353 . S
C631 H687 0.930 . S
C632 N633 1.314 . S
C632 C637 1.353 . S
C632 H638 0.930 . S
N633 Li616 1.990 . S
N633 C632 1.314 . S
N633 C635 1.279 . S
C634 C635 1.358 . S
C634 C636 1.356 . S
C634 H688 0.930 . S
C635 N633 1.279 . S
C635 C634 1.358 . S
C635 H639 0.930 . S
C636 C634 1.356 . S
C636 C637 1.348 . S
C637 C632 1.353 . S
C637 C636 1.348 . S
C637 H689 0.929 . S
H638 C632 0.930 . S
H639 C635 0.930 . S
C640 N641 1.314 . S
C640 C642 1.353 . S
C640 H646 0.930 . S
N641 Li617 1.990 . S
N641 C640 1.314 . S
N641 C644 1.279 . S
C642 C640 1.353 . S
C642 C645 1.348 . S
C642 H690 0.929 . S
C643 C644 1.358 . S
C643 C645 1.356 . S
C643 H691 0.930 . S
C644 N641 1.279 . S
C644 C643 1.358 . S
C644 H647 0.930 . S
C645 C642 1.348 . S
C645 C643 1.356 . S
H646 C640 0.930 . S
H647 C644 0.930 . S
C648 C650 1.348 . S
C648 C651 1.356 . S
C648 O678 1.325 . S
N649 C652 1.314 . S
N649 C653 1.279 . S
C650 C648 1.348 . S
C650 C652 1.353 . S
C650 H692 0.929 . S
C651 C648 1.356 . S
C651 C653 1.358 . S
C651 H693 0.930 . S
C652 N649 1.314 . S
C652 C650 1.353 . S
C652 H694 0.930 . S
C653 N649 1.279 . S
C653 C651 1.358 . S
C653 H695 0.930 . S
C654 C655 1.348 . S
C654 C656 1.356 . S
C654 O679 1.325 . S
C655 C654 1.348 . S
C655 C657 1.353 . S
C655 H696 0.929 . S
C656 C654 1.356 . S
C656 C658 1.358 . S
C656 H697 0.930 . S
C657 C655 1.353 . S
C657 N659 1.314 . S
C657 H698 0.930 . S
C658 C656 1.358 . S
C658 N659 1.279 . S
C658 H699 0.930 . S
N659 C657 1.314 . S
N659 C658 1.279 . S
C660 C662 1.353 . S
C660 N663 1.314 . S
C660 H666 0.930 . S
C661 N663 1.279 . S
C661 C664 1.358 . S
C661 H667 0.930 . S
C662 C660 1.353 . S
C662 C665 1.348 . S
C662 H700 0.929 . S
N663 Li618 1.990 . S
N663 C660 1.314 . S
N663 C661 1.279 . S
C664 C661 1.358 . S
C664 C665 1.356 . S
C664 H701 0.930 . S
C665 C662 1.348 . S
C665 C664 1.356 . S
H666 C660 0.930 . S
H667 C661 0.930 . S
C668 N669 1.314 . S
C668 C670 1.353 . S
C668 H674 0.930 . S
N669 Li619 1.990 . S
N669 C668 1.314 . S
N669 C672 1.279 . S
C670 C668 1.353 . S
C670 C673 1.348 . S
C670 H702 0.929 . S
C671 C672 1.358 . S
C671 C673 1.356 . S
C671 H703 0.930 . S
C672 N669 1.279 . S
C672 C671 1.358 . S
C672 H675 0.930 . S
C673 C670 1.348 . S
C673 C671 1.356 . S
H674 C668 0.930 . S
H675 C672 0.930 . S
O676 Li616 1.956 . S
O676 Li617 1.970 . S
O676 Li618 1.961 . S
O676 C620 1.325 . S
O677 Li616 1.970 . S
O677 Li617 1.956 . S
O677 Li619 1.961 . S
O677 C626 1.325 . S
O678 Li616 1.961 . S
O678 Li618 1.956 . S
O678 Li619 1.970 . S
O678 C648 1.325 . S
O679 Li617 1.961 . S
O679 Li618 1.970 . S
O679 Li619 1.956 . S
O679 C654 1.325 . S
H680 C622 0.929 . S
H681 C623 0.930 . S
H682 C624 0.930 . S
H683 C625 0.930 . S
H684 C627 0.930 . S
H685 C629 0.929 . S
H686 C630 0.930 . S
H687 C631 0.930 . S
H688 C634 0.930 . S
H689 C637 0.929 . S
H690 C642 0.929 . S
H691 C643 0.930 . S
H692 C650 0.929 . S
H693 C651 0.930 . S
H694 C652 0.930 . S
H695 C653 0.930 . S
H696 C655 0.929 . S
H697 C656 0.930 . S
H698 C657 0.930 . S
H699 C658 0.930 . S
H700 C662 0.929 . S
H701 C664 0.930 . S
H702 C670 0.929 . S
H703 C671 0.930 . S
Li704 N721 1.990 . S
Li704 O764 1.956 . S
Li704 O765 1.970 . S
Li704 O766 1.961 . S
Li705 N729 1.990 . S
Li705 O764 1.970 . S
Li705 O765 1.956 . S
Li705 O767 1.961 . S
Li706 N751 1.990 . S
Li706 O764 1.961 . S
Li706 O766 1.956 . S
Li706 O767 1.970 . S
Li707 N757 1.990 . S
Li707 O765 1.961 . S
Li707 O766 1.970 . S
Li707 O767 1.956 . S
C708 C710 1.348 . S
C708 C711 1.356 . S
C708 O764 1.325 . S
N709 C712 1.314 . S
N709 C713 1.279 . S
C710 C708 1.348 . S
C710 C712 1.353 . S
C710 H768 0.929 . S
C711 C708 1.356 . S
C711 C713 1.358 . S
C711 H769 0.930 . S
C712 N709 1.314 . S
C712 C710 1.353 . S
C712 H770 0.930 . S
C713 N709 1.279 . S
C713 C711 1.358 . S
C713 H771 0.930 . S
C714 C717 1.348 . S
C714 C718 1.356 . S
C714 O765 1.325 . S
C715 N716 1.279 . S
C715 C718 1.358 . S
C715 H772 0.930 . S
N716 C715 1.279 . S
N716 C719 1.314 . S
C717 C714 1.348 . S
C717 C719 1.353 . S
C717 H773 0.929 . S
C718 C714 1.356 . S
C718 C715 1.358 . S
C718 H774 0.930 . S
C719 N716 1.314 . S
C719 C717 1.353 . S
C719 H775 0.930 . S
C720 N721 1.314 . S
C720 C725 1.353 . S
C720 H726 0.930 . S
N721 Li704 1.990 . S
N721 C720 1.314 . S
N721 C723 1.279 . S
C722 C723 1.358 . S
C722 C724 1.356 . S
C722 H776 0.930 . S
C723 N721 1.279 . S
C723 C722 1.358 . S
C723 H727 0.930 . S
C724 C722 1.356 . S
C724 C725 1.348 . S
C725 C720 1.353 . S
C725 C724 1.348 . S
C725 H777 0.929 . S
H726 C720 0.930 . S
H727 C723 0.930 . S
C728 N729 1.314 . S
C728 C730 1.353 . S
C728 H734 0.930 . S
N729 Li705 1.990 . S
N729 C728 1.314 . S
N729 C732 1.279 . S
C730 C728 1.353 . S
C730 C733 1.348 . S
C730 H778 0.929 . S
C731 C732 1.358 . S
C731 C733 1.356 . S
C731 H779 0.930 . S
C732 N729 1.279 . S
C732 C731 1.358 . S
C732 H735 0.930 . S
C733 C730 1.348 . S
C733 C731 1.356 . S
H734 C728 0.930 . S
H735 C732 0.930 . S
C736 C738 1.348 . S
C736 C739 1.356 . S
C736 O766 1.325 . S
N737 C740 1.314 . S
N737 C741 1.279 . S
C738 C736 1.348 . S
C738 C740 1.353 . S
C738 H780 0.929 . S
C739 C736 1.356 . S
C739 C741 1.358 . S
C739 H781 0.930 . S
C740 N737 1.314 . S
C740 C738 1.353 . S
C740 H782 0.930 . S
C741 N737 1.279 . S
C741 C739 1.358 . S
C741 H783 0.930 . S
C742 C743 1.348 . S
C742 C744 1.356 . S
C742 O767 1.325 . S
C743 C742 1.348 . S
C743 C745 1.353 . S
C743 H784 0.929 . S
C744 C742 1.356 . S
C744 C746 1.358 . S
C744 H785 0.930 . S
C745 C743 1.353 . S
C745 N747 1.314 . S
C745 H786 0.930 . S
C746 C744 1.358 . S
C746 N747 1.279 . S
C746 H787 0.930 . S
N747 C745 1.314 . S
N747 C746 1.279 . S
C748 C750 1.353 . S
C748 N751 1.314 . S
C748 H754 0.930 . S
C749 N751 1.279 . S
C749 C752 1.358 . S
C749 H755 0.930 . S
C750 C748 1.353 . S
C750 C753 1.348 . S
C750 H788 0.929 . S
N751 Li706 1.990 . S
N751 C748 1.314 . S
N751 C749 1.279 . S
C752 C749 1.358 . S
C752 C753 1.356 . S
C752 H789 0.930 . S
C753 C750 1.348 . S
C753 C752 1.356 . S
H754 C748 0.930 . S
H755 C749 0.930 . S
C756 N757 1.314 . S
C756 C758 1.353 . S
C756 H762 0.930 . S
N757 Li707 1.990 . S
N757 C756 1.314 . S
N757 C760 1.279 . S
C758 C756 1.353 . S
C758 C761 1.348 . S
C758 H790 0.929 . S
C759 C760 1.358 . S
C759 C761 1.356 . S
C759 H791 0.930 . S
C760 N757 1.279 . S
C760 C759 1.358 . S
C760 H763 0.930 . S
C761 C758 1.348 . S
C761 C759 1.356 . S
H762 C756 0.930 . S
H763 C760 0.930 . S
O764 Li704 1.956 . S
O764 Li705 1.970 . S
O764 Li706 1.961 . S
O764 C708 1.325 . S
O765 Li704 1.970 . S
O765 Li705 1.956 . S
O765 Li707 1.961 . S
O765 C714 1.325 . S
O766 Li704 1.961 . S
O766 Li706 1.956 . S
O766 Li707 1.970 . S
O766 C736 1.325 . S
O767 Li705 1.961 . S
O767 Li706 1.970 . S
O767 Li707 1.956 . S
O767 C742 1.325 . S
H768 C710 0.929 . S
H769 C711 0.930 . S
H770 C712 0.930 . S
H771 C713 0.930 . S
H772 C715 0.930 . S
H773 C717 0.929 . S
H774 C718 0.930 . S
H775 C719 0.930 . S
H776 C722 0.930 . S
H777 C725 0.929 . S
H778 C730 0.929 . S
H779 C731 0.930 . S
H780 C738 0.929 . S
H781 C739 0.930 . S
H782 C740 0.930 . S
H783 C741 0.930 . S
H784 C743 0.929 . S
H785 C744 0.930 . S
H786 C745 0.930 . S
H787 C746 0.930 . S
H788 C750 0.929 . S
H789 C752 0.930 . S
H790 C758 0.929 . S
H791 C759 0.930 . S
Li792 N809 1.990 . S
Li792 O852 1.956 . S
Li792 O853 1.970 1_565 S
Li792 O854 1.961 . S
Li793 N817 1.990 . S
Li793 O852 1.970 1_545 S
Li793 O853 1.956 . S
Li793 O855 1.961 . S
Li794 N839 1.990 . S
Li794 O852 1.961 . S
Li794 O854 1.956 . S
Li794 O855 1.970 1_565 S
Li795 N845 1.990 . S
Li795 O853 1.961 . S
Li795 O854 1.970 1_545 S
Li795 O855 1.956 . S
C796 C798 1.348 . S
C796 C799 1.356 . S
C796 O852 1.325 . S
N797 C800 1.314 . S
N797 C801 1.279 . S
C798 C796 1.348 . S
C798 C800 1.353 . S
C798 H856 0.929 . S
C799 C796 1.356 . S
C799 C801 1.358 . S
C799 H857 0.930 . S
C800 N797 1.314 . S
C800 C798 1.353 . S
C800 H858 0.930 . S
C801 N797 1.279 . S
C801 C799 1.358 . S
C801 H859 0.930 . S
C802 C805 1.348 1_545 S
C802 C806 1.356 . S
C802 O853 1.325 . S
C803 N804 1.279 . S
C803 C806 1.358 . S
C803 H860 0.930 . S
N804 C803 1.279 . S
N804 C807 1.314 1_545 S
C805 C802 1.348 1_565 S
C805 C807 1.353 . S
C805 H861 0.929 . S
C806 C802 1.356 . S
C806 C803 1.358 . S
C806 H862 0.930 . S
C807 N804 1.314 1_565 S
C807 C805 1.353 . S
C807 H863 0.930 . S
C808 N809 1.314 . S
C808 C813 1.353 . S
C808 H814 0.930 . S
N809 Li792 1.990 . S
N809 C808 1.314 . S
N809 C811 1.279 . S
C810 C811 1.358 . S
C810 C812 1.356 . S
C810 H864 0.930 . S
C811 N809 1.279 . S
C811 C810 1.358 . S
C811 H815 0.930 . S
C812 C810 1.356 . S
C812 C813 1.348 . S
C813 C808 1.353 . S
C813 C812 1.348 . S
C813 H865 0.929 . S
H814 C808 0.930 . S
H815 C811 0.930 . S
C816 N817 1.314 . S
C816 C818 1.353 . S
C816 H822 0.930 . S
N817 Li793 1.990 . S
N817 C816 1.314 . S
N817 C820 1.279 . S
C818 C816 1.353 . S
C818 C821 1.348 . S
C818 H866 0.929 . S
C819 C820 1.358 . S
C819 C821 1.356 . S
C819 H867 0.930 . S
C820 N817 1.279 . S
C820 C819 1.358 . S
C820 H823 0.930 . S
C821 C818 1.348 . S
C821 C819 1.356 . S
H822 C816 0.930 . S
H823 C820 0.930 . S
C824 C826 1.348 1_565 S
C824 C827 1.356 . S
C824 O854 1.325 . S
N825 C828 1.314 1_565 S
N825 C829 1.279 . S
C826 C824 1.348 1_545 S
C826 C828 1.353 . S
C826 H868 0.929 . S
C827 C824 1.356 . S
C827 C829 1.358 . S
C827 H869 0.930 . S
C828 N825 1.314 1_545 S
C828 C826 1.353 . S
C828 H870 0.930 . S
C829 N825 1.279 . S
C829 C827 1.358 . S
C829 H871 0.930 . S
C830 C831 1.348 . S
C830 C832 1.356 . S
C830 O855 1.325 . S
C831 C830 1.348 . S
C831 C833 1.353 . S
C831 H872 0.929 . S
C832 C830 1.356 . S
C832 C834 1.358 . S
C832 H873 0.930 . S
C833 C831 1.353 . S
C833 N835 1.314 . S
C833 H874 0.930 . S
C834 C832 1.358 . S
C834 N835 1.279 . S
C834 H875 0.930 . S
N835 C833 1.314 . S
N835 C834 1.279 . S
C836 C838 1.353 . S
C836 N839 1.314 . S
C836 H842 0.930 . S
C837 N839 1.279 . S
C837 C840 1.358 . S
C837 H843 0.930 . S
C838 C836 1.353 . S
C838 C841 1.348 . S
C838 H876 0.929 . S
N839 Li794 1.990 . S
N839 C836 1.314 . S
N839 C837 1.279 . S
C840 C837 1.358 . S
C840 C841 1.356 . S
C840 H877 0.930 . S
C841 C838 1.348 . S
C841 C840 1.356 . S
H842 C836 0.930 . S
H843 C837 0.930 . S
C844 N845 1.314 . S
C844 C846 1.353 . S
C844 H850 0.930 . S
N845 Li795 1.990 . S
N845 C844 1.314 . S
N845 C848 1.279 . S
C846 C844 1.353 . S
C846 C849 1.348 . S
C846 H878 0.929 . S
C847 C848 1.358 . S
C847 C849 1.356 . S
C847 H879 0.930 . S
C848 N845 1.279 . S
C848 C847 1.358 . S
C848 H851 0.930 . S
C849 C846 1.348 . S
C849 C847 1.356 . S
H850 C844 0.930 . S
H851 C848 0.930 . S
O852 Li792 1.956 . S
O852 Li793 1.970 1_565 S
O852 Li794 1.961 . S
O852 C796 1.325 . S
O853 Li792 1.970 1_545 S
O853 Li793 1.956 . S
O853 Li795 1.961 . S
O853 C802 1.325 . S
O854 Li792 1.961 . S
O854 Li794 1.956 . S
O854 Li795 1.970 1_565 S
O854 C824 1.325 . S
O855 Li793 1.961 . S
O855 Li794 1.970 1_545 S
O855 Li795 1.956 . S
O855 C830 1.325 . S
H856 C798 0.929 . S
H857 C799 0.930 . S
H858 C800 0.930 . S
H859 C801 0.930 . S
H860 C803 0.930 . S
H861 C805 0.929 . S
H862 C806 0.930 . S
H863 C807 0.930 . S
H864 C810 0.930 . S
H865 C813 0.929 . S
H866 C818 0.929 . S
H867 C819 0.930 . S
H868 C826 0.929 . S
H869 C827 0.930 . S
H870 C828 0.930 . S
H871 C829 0.930 . S
H872 C831 0.929 . S
H873 C832 0.930 . S
H874 C833 0.930 . S
H875 C834 0.930 . S
H876 C838 0.929 . S
H877 C840 0.930 . S
H878 C846 0.929 . S
H879 C847 0.930 . S
Li880 N897 1.990 . S
Li880 O940 1.956 . S
Li880 O941 1.970 . S
Li880 O942 1.961 . S
Li881 N905 1.990 . S
Li881 O940 1.970 . S
Li881 O941 1.956 . S
Li881 O943 1.961 1_455 S
Li882 N927 1.990 . S
Li882 O940 1.961 . S
Li882 O942 1.956 . S
Li882 O943 1.970 1_455 S
Li883 N933 1.990 . S
Li883 O941 1.961 1_655 S
Li883 O942 1.970 1_655 S
Li883 O943 1.956 . S
C884 C886 1.348 . S
C884 C887 1.356 . S
C884 O940 1.325 . S
N885 C888 1.314 . S
N885 C889 1.279 . S
C886 C884 1.348 . S
C886 C888 1.353 . S
C886 H944 0.929 . S
C887 C884 1.356 . S
C887 C889 1.358 . S
C887 H945 0.930 . S
C888 N885 1.314 . S
C888 C886 1.353 . S
C888 H946 0.930 . S
C889 N885 1.279 . S
C889 C887 1.358 . S
C889 H947 0.930 . S
C890 C893 1.348 . S
C890 C894 1.356 1_455 S
C890 O941 1.325 . S
C891 N892 1.279 1_655 S
C891 C894 1.358 . S
C891 H948 0.930 . S
N892 C891 1.279 1_455 S
N892 C895 1.314 . S
C893 C890 1.348 . S
C893 C895 1.353 . S
C893 H949 0.929 . S
C894 C890 1.356 1_655 S
C894 C891 1.358 . S
C894 H950 0.930 . S
C895 N892 1.314 . S
C895 C893 1.353 . S
C895 H951 0.930 . S
C896 N897 1.314 . S
C896 C901 1.353 . S
C896 H902 0.930 . S
N897 Li880 1.990 . S
N897 C896 1.314 . S
N897 C899 1.279 . S
C898 C899 1.358 . S
C898 C900 1.356 . S
C898 H952 0.930 . S
C899 N897 1.279 . S
C899 C898 1.358 . S
C899 H903 0.930 . S
C900 C898 1.356 . S
C900 C901 1.348 . S
C901 C896 1.353 . S
C901 C900 1.348 . S
C901 H953 0.929 . S
H902 C896 0.930 . S
H903 C899 0.930 . S
C904 N905 1.314 . S
C904 C906 1.353 . S
C904 H910 0.930 . S
N905 Li881 1.990 . S
N905 C904 1.314 . S
N905 C908 1.279 . S
C906 C904 1.353 . S
C906 C909 1.348 . S
C906 H954 0.929 1_455 S
C907 C908 1.358 . S
C907 C909 1.356 . S
C907 H955 0.930 . S
C908 N905 1.279 . S
C908 C907 1.358 . S
C908 H911 0.930 . S
C909 C906 1.348 . S
C909 C907 1.356 . S
H910 C904 0.930 . S
H911 C908 0.930 . S
C912 C914 1.348 . S
C912 C915 1.356 . S
C912 O942 1.325 . S
N913 C916 1.314 . S
N913 C917 1.279 . S
C914 C912 1.348 . S
C914 C916 1.353 . S
C914 H956 0.929 1_455 S
C915 C912 1.356 . S
C915 C917 1.358 . S
C915 H957 0.930 . S
C916 N913 1.314 . S
C916 C914 1.353 . S
C916 H958 0.930 1_455 S
C917 N913 1.279 . S
C917 C915 1.358 . S
C917 H959 0.930 . S
C918 C919 1.348 . S
C918 C920 1.356 . S
C918 O943 1.325 . S
C919 C918 1.348 . S
C919 C921 1.353 . S
C919 H960 0.929 . S
C920 C918 1.356 . S
C920 C922 1.358 . S
C920 H961 0.930 . S
C921 C919 1.353 . S
C921 N923 1.314 . S
C921 H962 0.930 . S
C922 C920 1.358 . S
C922 N923 1.279 . S
C922 H963 0.930 . S
N923 C921 1.314 . S
N923 C922 1.279 . S
C924 C926 1.353 . S
C924 N927 1.314 . S
C924 H930 0.930 . S
C925 N927 1.279 . S
C925 C928 1.358 . S
C925 H931 0.930 . S
C926 C924 1.353 . S
C926 C929 1.348 . S
C926 H964 0.929 . S
N927 Li882 1.990 . S
N927 C924 1.314 . S
N927 C925 1.279 . S
C928 C925 1.358 . S
C928 C929 1.356 . S
C928 H965 0.930 . S
C929 C926 1.348 . S
C929 C928 1.356 . S
H930 C924 0.930 . S
H931 C925 0.930 . S
C932 N933 1.314 . S
C932 C934 1.353 . S
C932 H938 0.930 . S
N933 Li883 1.990 . S
N933 C932 1.314 . S
N933 C936 1.279 . S
C934 C932 1.353 . S
C934 C937 1.348 . S
C934 H966 0.929 . S
C935 C936 1.358 . S
C935 C937 1.356 . S
C935 H967 0.930 . S
C936 N933 1.279 . S
C936 C935 1.358 . S
C936 H939 0.930 . S
C937 C934 1.348 . S
C937 C935 1.356 . S
H938 C932 0.930 . S
H939 C936 0.930 . S
O940 Li880 1.956 . S
O940 Li881 1.970 . S
O940 Li882 1.961 . S
O940 C884 1.325 . S
O941 Li880 1.970 . S
O941 Li881 1.956 . S
O941 Li883 1.961 1_455 S
O941 C890 1.325 . S
O942 Li880 1.961 . S
O942 Li882 1.956 . S
O942 Li883 1.970 1_455 S
O942 C912 1.325 . S
O943 Li881 1.961 1_655 S
O943 Li882 1.970 1_655 S
O943 Li883 1.956 . S
O943 C918 1.325 . S
H944 C886 0.929 . S
H945 C887 0.930 . S
H946 C888 0.930 . S
H947 C889 0.930 . S
H948 C891 0.930 . S
H949 C893 0.929 . S
H950 C894 0.930 . S
H951 C895 0.930 . S
H952 C898 0.930 . S
H953 C901 0.929 . S
H954 C906 0.929 1_655 S
H955 C907 0.930 . S
H956 C914 0.929 1_655 S
H957 C915 0.930 . S
H958 C916 0.930 1_655 S
H959 C917 0.930 . S
H960 C919 0.929 . S
H961 C920 0.930 . S
H962 C921 0.930 . S
H963 C922 0.930 . S
H964 C926 0.929 . S
H965 C928 0.930 . S
H966 C934 0.929 . S
H967 C935 0.930 . S
Li968 N985 1.990 . S
Li968 O1028 1.956 . S
Li968 O1029 1.970 . S
Li968 O1030 1.961 . S
Li969 N993 1.990 . S
Li969 O1028 1.970 . S
Li969 O1029 1.956 . S
Li969 O1031 1.961 . S
Li970 N1015 1.990 . S
Li970 O1028 1.961 . S
Li970 O1030 1.956 . S
Li970 O1031 1.970 . S
Li971 N1021 1.990 . S
Li971 O1029 1.961 . S
Li971 O1030 1.970 . S
Li971 O1031 1.956 . S
C972 C974 1.348 . S
C972 C975 1.356 . S
C972 O1028 1.325 . S
N973 C976 1.314 . S
N973 C977 1.279 . S
C974 C972 1.348 . S
C974 C976 1.353 . S
C974 H1032 0.929 . S
C975 C972 1.356 . S
C975 C977 1.358 . S
C975 H1033 0.930 . S
C976 N973 1.314 . S
C976 C974 1.353 . S
C976 H1034 0.930 . S
C977 N973 1.279 . S
C977 C975 1.358 . S
C977 H1035 0.930 . S
C978 C981 1.348 . S
C978 C982 1.356 . S
C978 O1029 1.325 . S
C979 N980 1.279 . S
C979 C982 1.358 . S
C979 H1036 0.930 . S
N980 C979 1.279 . S
N980 C983 1.314 . S
C981 C978 1.348 . S
C981 C983 1.353 . S
C981 H1037 0.929 . S
C982 C978 1.356 . S
C982 C979 1.358 . S
C982 H1038 0.930 . S
C983 N980 1.314 . S
C983 C981 1.353 . S
C983 H1039 0.930 . S
C984 N985 1.314 . S
C984 C989 1.353 . S
C984 H990 0.930 . S
N985 Li968 1.990 . S
N985 C984 1.314 . S
N985 C987 1.279 . S
C986 C987 1.358 . S
C986 C988 1.356 . S
C986 H1040 0.930 . S
C987 N985 1.279 . S
C987 C986 1.358 . S
C987 H991 0.930 . S
C988 C986 1.356 . S
C988 C989 1.348 . S
C989 C984 1.353 . S
C989 C988 1.348 . S
C989 H1041 0.929 . S
H990 C984 0.930 . S
H991 C987 0.930 . S
C992 N993 1.314 . S
C992 C994 1.353 . S
C992 H998 0.930 . S
N993 Li969 1.990 . S
N993 C992 1.314 . S
N993 C996 1.279 . S
C994 C992 1.353 . S
C994 C997 1.348 . S
C994 H1042 0.929 . S
C995 C996 1.358 . S
C995 C997 1.356 . S
C995 H1043 0.930 . S
C996 N993 1.279 . S
C996 C995 1.358 . S
C996 H999 0.930 . S
C997 C994 1.348 . S
C997 C995 1.356 . S
H998 C992 0.930 . S
H999 C996 0.930 . S
C1000 C1002 1.348 . S
C1000 C1003 1.356 . S
C1000 O1030 1.325 . S
N1001 C1004 1.314 . S
N1001 C1005 1.279 . S
C1002 C1000 1.348 . S
C1002 C1004 1.353 . S
C1002 H1044 0.929 . S
C1003 C1000 1.356 . S
C1003 C1005 1.358 . S
C1003 H1045 0.930 . S
C1004 N1001 1.314 . S
C1004 C1002 1.353 . S
C1004 H1046 0.930 . S
C1005 N1001 1.279 . S
C1005 C1003 1.358 . S
C1005 H1047 0.930 . S
C1006 C1007 1.348 . S
C1006 C1008 1.356 . S
C1006 O1031 1.325 . S
C1007 C1006 1.348 . S
C1007 C1009 1.353 . S
C1007 H1048 0.929 . S
C1008 C1006 1.356 . S
C1008 C1010 1.358 . S
C1008 H1049 0.930 . S
C1009 C1007 1.353 . S
C1009 N1011 1.314 . S
C1009 H1050 0.930 . S
C1010 C1008 1.358 . S
C1010 N1011 1.279 . S
C1010 H1051 0.930 . S
N1011 C1009 1.314 . S
N1011 C1010 1.279 . S
C1012 C1014 1.353 . S
C1012 N1015 1.314 . S
C1012 H1018 0.930 . S
C1013 N1015 1.279 . S
C1013 C1016 1.358 . S
C1013 H1019 0.930 . S
C1014 C1012 1.353 . S
C1014 C1017 1.348 . S
C1014 H1052 0.929 . S
N1015 Li970 1.990 . S
N1015 C1012 1.314 . S
N1015 C1013 1.279 . S
C1016 C1013 1.358 . S
C1016 C1017 1.356 . S
C1016 H1053 0.930 . S
C1017 C1014 1.348 . S
C1017 C1016 1.356 . S
H1018 C1012 0.930 . S
H1019 C1013 0.930 . S
C1020 N1021 1.314 . S
C1020 C1022 1.353 . S
C1020 H1026 0.930 . S
N1021 Li971 1.990 . S
N1021 C1020 1.314 . S
N1021 C1024 1.279 . S
C1022 C1020 1.353 . S
C1022 C1025 1.348 . S
C1022 H1054 0.929 . S
C1023 C1024 1.358 . S
C1023 C1025 1.356 . S
C1023 H1055 0.930 . S
C1024 N1021 1.279 . S
C1024 C1023 1.358 . S
C1024 H1027 0.930 . S
C1025 C1022 1.348 . S
C1025 C1023 1.356 . S
H1026 C1020 0.930 . S
H1027 C1024 0.930 . S
O1028 Li968 1.956 . S
O1028 Li969 1.970 . S
O1028 Li970 1.961 . S
O1028 C972 1.325 . S
O1029 Li968 1.970 . S
O1029 Li969 1.956 . S
O1029 Li971 1.961 . S
O1029 C978 1.325 . S
O1030 Li968 1.961 . S
O1030 Li970 1.956 . S
O1030 Li971 1.970 . S
O1030 C1000 1.325 . S
O1031 Li969 1.961 . S
O1031 Li970 1.970 . S
O1031 Li971 1.956 . S
O1031 C1006 1.325 . S
H1032 C974 0.929 . S
H1033 C975 0.930 . S
H1034 C976 0.930 . S
H1035 C977 0.930 . S
H1036 C979 0.930 . S
H1037 C981 0.929 . S
H1038 C982 0.930 . S
H1039 C983 0.930 . S
H1040 C986 0.930 . S
H1041 C989 0.929 . S
H1042 C994 0.929 . S
H1043 C995 0.930 . S
H1044 C1002 0.929 . S
H1045 C1003 0.930 . S
H1046 C1004 0.930 . S
H1047 C1005 0.930 . S
H1048 C1007 0.929 . S
H1049 C1008 0.930 . S
H1050 C1009 0.930 . S
H1051 C1010 0.930 . S
H1052 C1014 0.929 . S
H1053 C1016 0.930 . S
H1054 C1022 0.929 . S
H1055 C1023 0.930 . S
Li1056 N1073 1.990 . S
Li1056 O1116 1.956 . S
Li1056 O1117 1.970 1_455 S
Li1056 O1118 1.961 . S
Li1057 N1081 1.990 . S
Li1057 O1116 1.970 1_655 S
Li1057 O1117 1.956 . S
Li1057 O1119 1.985 . S
Li1058 N1103 1.990 . S
Li1058 O1116 1.961 . S
Li1058 O1118 1.956 . S
Li1058 O1119 1.941 1_455 S
Li1059 N1109 1.987 1_455 S
Li1059 O1117 1.935 1_455 S
Li1059 O1118 2.004 . S
Li1059 O1119 1.953 1_455 S
C1060 C1062 1.348 1_455 S
C1060 C1063 1.356 . S
C1060 O1116 1.325 . S
N1061 C1064 1.314 1_455 S
N1061 C1065 1.279 . S
C1062 C1060 1.348 1_655 S
C1062 C1064 1.353 . S
C1062 H1120 0.929 . S
C1063 C1060 1.356 . S
C1063 C1065 1.358 . S
C1063 H1121 0.930 . S
C1064 N1061 1.314 1_655 S
C1064 C1062 1.353 . S
C1064 H1122 0.930 . S
C1065 N1061 1.279 . S
C1065 C1063 1.358 . S
C1065 H1123 0.930 . S
C1066 C1069 1.348 . S
C1066 C1070 1.356 . S
C1066 O1117 1.325 . S
C1067 N1068 1.279 . S
C1067 C1070 1.358 . S
C1067 H1124 0.930 . S
N1068 C1067 1.279 . S
N1068 C1071 1.314 . S
C1069 C1066 1.348 . S
C1069 C1071 1.353 . S
C1069 H1125 0.929 . S
C1070 C1066 1.356 . S
C1070 C1067 1.358 . S
C1070 H1126 0.930 . S
C1071 N1068 1.314 . S
C1071 C1069 1.353 . S
C1071 H1127 0.930 . S
C1072 N1073 1.314 . S
C1072 C1077 1.353 . S
C1072 H1078 0.930 . S
N1073 Li1056 1.990 . S
N1073 C1072 1.314 . S
N1073 C1075 1.279 . S
C1074 C1075 1.358 . S
C1074 C1076 1.356 . S
C1074 H1128 0.930 . S
C1075 N1073 1.279 . S
C1075 C1074 1.358 . S
C1075 H1079 0.930 . S
C1076 C1074 1.356 . S
C1076 C1077 1.348 . S
C1077 C1072 1.353 . S
C1077 C1076 1.348 . S
C1077 H1129 0.929 . S
H1078 C1072 0.930 . S
H1079 C1075 0.930 . S
C1080 N1081 1.314 . S
C1080 C1082 1.353 . S
C1080 H1086 0.930 . S
N1081 Li1057 1.990 . S
N1081 C1080 1.314 . S
N1081 C1084 1.279 . S
C1082 C1080 1.353 . S
C1082 C1085 1.348 . S
C1082 H1130 0.929 . S
C1083 C1084 1.358 . S
C1083 C1085 1.356 . S
C1083 H1131 0.930 . S
C1084 N1081 1.279 . S
C1084 C1083 1.358 . S
C1084 H1087 0.930 . S
C1085 C1082 1.348 . S
C1085 C1083 1.356 . S
H1086 C1080 0.930 . S
H1087 C1084 0.930 . S
C1088 C1090 1.348 . S
C1088 C1091 1.356 . S
C1088 O1118 1.325 . S
N1089 C1092 1.314 . S
N1089 C1093 1.279 . S
C1090 C1088 1.348 . S
C1090 C1092 1.353 . S
C1090 H1132 0.929 . S
C1091 C1088 1.356 . S
C1091 C1093 1.358 . S
C1091 H1133 0.930 . S
C1092 N1089 1.314 . S
C1092 C1090 1.353 . S
C1092 H1134 0.930 . S
C1093 N1089 1.279 . S
C1093 C1091 1.358 . S
C1093 H1135 0.930 . S
C1094 C1095 1.348 1_655 S
C1094 C1096 1.356 . S
C1094 O1119 1.331 . S
C1095 C1094 1.348 1_455 S
C1095 C1097 1.353 . S
C1095 H1136 0.929 . S
C1096 C1094 1.356 . S
C1096 C1098 1.358 . S
C1096 H1137 0.930 . S
C1097 C1095 1.353 . S
C1097 N1099 1.314 1_455 S
C1097 H1138 0.930 . S
C1098 C1096 1.358 . S
C1098 N1099 1.279 . S
C1098 H1139 0.930 . S
N1099 C1097 1.314 1_655 S
N1099 C1098 1.279 . S
C1100 C1102 1.353 . S
C1100 N1103 1.314 . S
C1100 H1106 0.930 . S
C1101 N1103 1.279 . S
C1101 C1104 1.358 . S
C1101 H1107 0.930 . S
C1102 C1100 1.353 . S
C1102 C1105 1.348 . S
C1102 H1140 0.929 . S
N1103 Li1058 1.990 . S
N1103 C1100 1.314 . S
N1103 C1101 1.279 . S
C1104 C1101 1.358 . S
C1104 C1105 1.356 . S
C1104 H1141 0.930 . S
C1105 C1102 1.348 . S
C1105 C1104 1.356 . S
H1106 C1100 0.930 . S
H1107 C1101 0.930 . S
C1108 N1109 1.314 . S
C1108 C1110 1.353 . S
C1108 H1114 0.930 . S
N1109 Li1059 1.987 1_655 S
N1109 C1108 1.314 . S
N1109 C1112 1.279 . S
C1110 C1108 1.353 . S
C1110 C1113 1.348 . S
C1110 H1142 0.929 . S
C1111 C1112 1.358 . S
C1111 C1113 1.356 . S
C1111 H1143 0.930 . S
C1112 N1109 1.279 . S
C1112 C1111 1.358 . S
C1112 H1115 0.930 . S
C1113 C1110 1.348 . S
C1113 C1111 1.356 . S
H1114 C1108 0.930 . S
H1115 C1112 0.930 . S
O1116 Li1056 1.956 . S
O1116 Li1057 1.970 1_455 S
O1116 Li1058 1.961 . S
O1116 C1060 1.325 . S
O1117 Li1056 1.970 1_655 S
O1117 Li1057 1.956 . S
O1117 Li1059 1.935 1_655 S
O1117 C1066 1.325 . S
O1118 Li1056 1.961 . S
O1118 Li1058 1.956 . S
O1118 Li1059 2.004 . S
O1118 C1088 1.325 . S
O1119 Li1057 1.985 . S
O1119 Li1058 1.941 1_655 S
O1119 Li1059 1.953 1_655 S
O1119 C1094 1.331 . S
H1120 C1062 0.929 . S
H1121 C1063 0.930 . S
H1122 C1064 0.930 . S
H1123 C1065 0.930 . S
H1124 C1067 0.930 . S
H1125 C1069 0.929 . S
H1126 C1070 0.930 . S
H1127 C1071 0.930 . S
H1128 C1074 0.930 . S
H1129 C1077 0.929 . S
H1130 C1082 0.929 . S
H1131 C1083 0.930 . S
H1132 C1090 0.929 . S
H1133 C1091 0.930 . S
H1134 C1092 0.930 . S
H1135 C1093 0.930 . S
H1136 C1095 0.929 . S
H1137 C1096 0.930 . S
H1138 C1097 0.930 . S
H1139 C1098 0.930 . S
H1140 C1102 0.929 . S
H1141 C1104 0.930 . S
H1142 C1110 0.929 . S
H1143 C1111 0.930 . S
Li1144 N1161 1.990 . S
Li1144 O1204 1.956 . S
Li1144 O1205 1.970 . S
Li1144 O1206 1.961 . S
Li1145 N1169 1.990 . S
Li1145 O1204 1.970 . S
Li1145 O1205 1.956 . S
Li1145 O1207 1.961 . S
Li1146 N1191 1.990 . S
Li1146 O1204 1.961 . S
Li1146 O1206 1.956 . S
Li1146 O1207 1.970 . S
Li1147 N1197 1.990 . S
Li1147 O1205 1.961 . S
Li1147 O1206 1.970 . S
Li1147 O1207 1.956 . S
C1148 C1150 1.348 . S
C1148 C1151 1.356 . S
C1148 O1204 1.325 . S
N1149 C1152 1.314 . S
N1149 C1153 1.279 . S
C1150 C1148 1.348 . S
C1150 C1152 1.353 . S
C1150 H1208 0.929 . S
C1151 C1148 1.356 . S
C1151 C1153 1.358 . S
C1151 H1209 0.930 . S
C1152 N1149 1.314 . S
C1152 C1150 1.353 . S
C1152 H1210 0.930 . S
C1153 N1149 1.279 . S
C1153 C1151 1.358 . S
C1153 H1211 0.930 . S
C1154 C1157 1.348 . S
C1154 C1158 1.356 . S
C1154 O1205 1.325 . S
C1155 N1156 1.279 . S
C1155 C1158 1.358 . S
C1155 H1212 0.930 . S
N1156 C1155 1.279 . S
N1156 C1159 1.314 . S
C1157 C1154 1.348 . S
C1157 C1159 1.353 . S
C1157 H1213 0.929 . S
C1158 C1154 1.356 . S
C1158 C1155 1.358 . S
C1158 H1214 0.930 . S
C1159 N1156 1.314 . S
C1159 C1157 1.353 . S
C1159 H1215 0.930 . S
C1160 N1161 1.314 . S
C1160 C1165 1.353 . S
C1160 H1166 0.930 . S
N1161 Li1144 1.990 . S
N1161 C1160 1.314 . S
N1161 C1163 1.279 . S
C1162 C1163 1.358 . S
C1162 C1164 1.356 . S
C1162 H1216 0.930 . S
C1163 N1161 1.279 . S
C1163 C1162 1.358 . S
C1163 H1167 0.930 . S
C1164 C1162 1.356 . S
C1164 C1165 1.348 . S
C1165 C1160 1.353 . S
C1165 C1164 1.348 . S
C1165 H1217 0.929 . S
H1166 C1160 0.930 . S
H1167 C1163 0.930 . S
C1168 N1169 1.314 . S
C1168 C1170 1.353 . S
C1168 H1174 0.930 . S
N1169 Li1145 1.990 . S
N1169 C1168 1.314 . S
N1169 C1172 1.279 . S
C1170 C1168 1.353 . S
C1170 C1173 1.348 . S
C1170 H1218 0.929 . S
C1171 C1172 1.358 . S
C1171 C1173 1.356 . S
C1171 H1219 0.930 . S
C1172 N1169 1.279 . S
C1172 C1171 1.358 . S
C1172 H1175 0.930 . S
C1173 C1170 1.348 . S
C1173 C1171 1.356 . S
H1174 C1168 0.930 . S
H1175 C1172 0.930 . S
C1176 C1178 1.348 . S
C1176 C1179 1.356 . S
C1176 O1206 1.325 . S
N1177 C1180 1.314 . S
N1177 C1181 1.279 . S
C1178 C1176 1.348 . S
C1178 C1180 1.353 . S
C1178 H1220 0.929 . S
C1179 C1176 1.356 . S
C1179 C1181 1.358 . S
C1179 H1221 0.930 . S
C1180 N1177 1.314 . S
C1180 C1178 1.353 . S
C1180 H1222 0.930 . S
C1181 N1177 1.279 . S
C1181 C1179 1.358 . S
C1181 H1223 0.930 . S
C1182 C1183 1.348 . S
C1182 C1184 1.356 . S
C1182 O1207 1.325 . S
C1183 C1182 1.348 . S
C1183 C1185 1.353 . S
C1183 H1224 0.929 . S
C1184 C1182 1.356 . S
C1184 C1186 1.358 . S
C1184 H1225 0.930 . S
C1185 C1183 1.353 . S
C1185 N1187 1.314 . S
C1185 H1226 0.930 . S
C1186 C1184 1.358 . S
C1186 N1187 1.279 . S
C1186 H1227 0.930 . S
N1187 C1185 1.314 . S
N1187 C1186 1.279 . S
C1188 C1190 1.353 . S
C1188 N1191 1.314 . S
C1188 H1194 0.930 . S
C1189 N1191 1.279 . S
C1189 C1192 1.358 . S
C1189 H1195 0.930 . S
C1190 C1188 1.353 . S
C1190 C1193 1.348 . S
C1190 H1228 0.929 . S
N1191 Li1146 1.990 . S
N1191 C1188 1.314 . S
N1191 C1189 1.279 . S
C1192 C1189 1.358 . S
C1192 C1193 1.356 . S
C1192 H1229 0.930 . S
C1193 C1190 1.348 . S
C1193 C1192 1.356 . S
H1194 C1188 0.930 . S
H1195 C1189 0.930 . S
C1196 N1197 1.314 . S
C1196 C1198 1.353 . S
C1196 H1202 0.930 . S
N1197 Li1147 1.990 . S
N1197 C1196 1.314 . S
N1197 C1200 1.279 . S
C1198 C1196 1.353 . S
C1198 C1201 1.348 . S
C1198 H1230 0.929 . S
C1199 C1200 1.358 . S
C1199 C1201 1.356 . S
C1199 H1231 0.930 . S
C1200 N1197 1.279 . S
C1200 C1199 1.358 . S
C1200 H1203 0.930 . S
C1201 C1198 1.348 . S
C1201 C1199 1.356 . S
H1202 C1196 0.930 . S
H1203 C1200 0.930 . S
O1204 Li1144 1.956 . S
O1204 Li1145 1.970 . S
O1204 Li1146 1.961 . S
O1204 C1148 1.325 . S
O1205 Li1144 1.970 . S
O1205 Li1145 1.956 . S
O1205 Li1147 1.961 . S
O1205 C1154 1.325 . S
O1206 Li1144 1.961 . S
O1206 Li1146 1.956 . S
O1206 Li1147 1.970 . S
O1206 C1176 1.325 . S
O1207 Li1145 1.961 . S
O1207 Li1146 1.970 . S
O1207 Li1147 1.956 . S
O1207 C1182 1.325 . S
H1208 C1150 0.929 . S
H1209 C1151 0.930 . S
H1210 C1152 0.930 . S
H1211 C1153 0.930 . S
H1212 C1155 0.930 . S
H1213 C1157 0.929 . S
H1214 C1158 0.930 . S
H1215 C1159 0.930 . S
H1216 C1162 0.930 . S
H1217 C1165 0.929 . S
H1218 C1170 0.929 . S
H1219 C1171 0.930 . S
H1220 C1178 0.929 . S
H1221 C1179 0.930 . S
H1222 C1180 0.930 . S
H1223 C1181 0.930 . S
H1224 C1183 0.929 . S
H1225 C1184 0.930 . S
H1226 C1185 0.930 . S
H1227 C1186 0.930 . S
H1228 C1190 0.929 . S
H1229 C1192 0.930 . S
H1230 C1198 0.929 . S
H1231 C1199 0.930 . S
H1232 C1238 0.930 . S
H1233 C1242 0.930 . S
H1234 C1247 0.929 . S
H1235 C1245 0.929 . S
H1236 C1240 0.929 . S
H1237 C1246 0.929 . S
C1238 H1232 0.930 . S
C1238 C1239 1.367 . S
C1238 C1246 1.378 . S
C1239 C1238 1.367 . S
C1239 C1247 1.433 . S
C1240 H1236 0.929 . S
C1240 C1242 1.378 . S
C1240 C1244 1.350 . S
C1241 C1244 1.463 . S
C1241 C1246 1.350 . S
C1241 N1249 1.427 . S
C1242 H1233 0.930 . S
C1242 C1240 1.378 . S
C1242 C1243 1.367 . S
C1243 C1242 1.367 . S
C1243 C1245 1.433 . S
C1244 C1240 1.350 . S
C1244 C1241 1.463 . S
C1244 N1248 1.427 . S
C1245 H1235 0.929 . S
C1245 C1243 1.433 . S
C1245 N1248 1.384 . S
C1246 H1237 0.929 . S
C1246 C1238 1.378 . S
C1246 C1241 1.350 . S
C1247 H1234 0.929 . S
C1247 C1239 1.433 . S
C1247 N1249 1.384 . S
N1248 C1244 1.427 . S
N1248 C1245 1.384 . S
N1249 C1241 1.427 . S
N1249 C1247 1.384 . S
H1250 C1256 0.930 . S
H1251 C1260 0.930 . S
H1252 C1265 0.929 . S
H1253 C1263 0.929 . S
H1254 C1258 0.929 . S
H1255 C1264 0.929 . S
C1256 H1250 0.930 . S
C1256 C1257 1.367 . S
C1256 C1264 1.378 . S
C1257 C1256 1.367 . S
C1257 C1265 1.433 . S
C1258 H1254 0.929 . S
C1258 C1260 1.378 . S
C1258 C1262 1.350 . S
C1259 C1262 1.463 . S
C1259 C1264 1.350 . S
C1259 N1267 1.427 . S
C1260 H1251 0.930 . S
C1260 C1258 1.378 . S
C1260 C1261 1.367 . S
C1261 C1260 1.367 . S
C1261 C1263 1.433 . S
C1262 C1258 1.350 . S
C1262 C1259 1.463 . S
C1262 N1266 1.427 . S
C1263 H1253 0.929 . S
C1263 C1261 1.433 . S
C1263 N1266 1.384 . S
C1264 H1255 0.929 . S
C1264 C1256 1.378 . S
C1264 C1259 1.350 . S
C1265 H1252 0.929 . S
C1265 C1257 1.433 . S
C1265 N1267 1.384 . S
N1266 C1262 1.427 . S
N1266 C1263 1.384 . S
N1267 C1259 1.427 . S
N1267 C1265 1.384 . S
H1268 C1274 0.930 . S
H1269 C1278 0.930 . S
H1270 C1283 0.929 . S
H1271 C1281 0.929 . S
H1272 C1276 0.929 . S
H1273 C1282 0.929 . S
C1274 H1268 0.930 . S
C1274 C1275 1.367 . S
C1274 C1282 1.378 . S
C1275 C1274 1.367 . S
C1275 C1283 1.433 . S
C1276 H1272 0.929 . S
C1276 C1278 1.378 . S
C1276 C1280 1.350 . S
C1277 C1280 1.463 . S
C1277 C1282 1.350 . S
C1277 N1285 1.427 . S
C1278 H1269 0.930 . S
C1278 C1276 1.378 . S
C1278 C1279 1.367 . S
C1279 C1278 1.367 . S
C1279 C1281 1.433 . S
C1280 C1276 1.350 . S
C1280 C1277 1.463 . S
C1280 N1284 1.427 . S
C1281 H1271 0.929 . S
C1281 C1279 1.433 . S
C1281 N1284 1.384 . S
C1282 H1273 0.929 . S
C1282 C1274 1.378 . S
C1282 C1277 1.350 . S
C1283 H1270 0.929 . S
C1283 C1275 1.433 . S
C1283 N1285 1.384 . S
N1284 C1280 1.427 . S
N1284 C1281 1.384 . S
N1285 C1277 1.427 . S
N1285 C1283 1.384 . S
H1286 C1292 0.930 . S
H1287 C1296 0.930 . S
H1288 C1301 0.929 . S
H1289 C1299 0.929 . S
H1290 C1294 0.929 1_455 S
H1291 C1300 0.929 . S
C1292 H1286 0.930 . S
C1292 C1293 1.367 . S
C1292 C1300 1.378 . S
C1293 C1292 1.367 . S
C1293 C1301 1.433 1_565 S
C1294 H1290 0.929 1_655 S
C1294 C1296 1.378 . S
C1294 C1298 1.396 1_655 S
C1295 C1298 1.442 1_565 S
C1295 C1300 1.350 . S
C1295 N1303 1.427 1_565 S
C1296 H1287 0.930 . S
C1296 C1294 1.378 . S
C1296 C1297 1.367 . S
C1297 C1296 1.367 . S
C1297 C1299 1.433 1_545 S
C1298 C1294 1.396 1_455 S
C1298 C1295 1.442 1_545 S
C1298 N1302 1.399 1_445 S
C1299 H1289 0.929 . S
C1299 C1297 1.433 1_565 S
C1299 N1302 1.384 . S
C1300 H1291 0.929 . S
C1300 C1292 1.378 . S
C1300 C1295 1.350 . S
C1301 H1288 0.929 . S
C1301 C1293 1.433 1_545 S
C1301 N1303 1.384 . S
N1302 C1298 1.399 1_665 S
N1302 C1299 1.384 . S
N1303 C1295 1.427 1_545 S
N1303 C1301 1.384 . S
H1304 C1310 0.930 . S
H1305 C1314 0.930 . S
H1306 C1319 0.929 . S
H1307 C1317 0.929 . S
H1308 C1312 0.929 . S
H1309 C1318 0.929 . S
C1310 H1304 0.930 . S
C1310 C1311 1.367 . S
C1310 C1318 1.378 . S
C1311 C1310 1.367 . S
C1311 C1319 1.433 . S
C1312 H1308 0.929 . S
C1312 C1314 1.378 . S
C1312 C1316 1.350 . S
C1313 C1316 1.463 . S
C1313 C1318 1.350 . S
C1313 N1321 1.427 . S
C1314 H1305 0.930 . S
C1314 C1312 1.378 . S
C1314 C1315 1.367 . S
C1315 C1314 1.367 . S
C1315 C1317 1.433 . S
C1316 C1312 1.350 . S
C1316 C1313 1.463 . S
C1316 N1320 1.427 . S
C1317 H1307 0.929 . S
C1317 C1315 1.433 . S
C1317 N1320 1.384 . S
C1318 H1309 0.929 . S
C1318 C1310 1.378 . S
C1318 C1313 1.350 . S
C1319 H1306 0.929 . S
C1319 C1311 1.433 . S
C1319 N1321 1.384 . S
N1320 C1316 1.427 . S
N1320 C1317 1.384 . S
N1321 C1313 1.427 . S
N1321 C1319 1.384 . S
H1322 C1328 0.930 . S
H1323 C1332 0.930 . S
H1324 C1337 0.929 . S
H1325 C1335 0.929 . S
H1326 C1330 0.929 . S
H1327 C1336 0.929 . S
C1328 H1322 0.930 . S
C1328 C1329 1.367 . S
C1328 C1336 1.378 . S
C1329 C1328 1.367 . S
C1329 C1337 1.433 . S
C1330 H1326 0.929 . S
C1330 C1332 1.378 . S
C1330 C1334 1.350 . S
C1331 C1334 1.463 . S
C1331 C1336 1.350 . S
C1331 N1339 1.427 . S
C1332 H1323 0.930 . S
C1332 C1330 1.378 . S
C1332 C1333 1.367 . S
C1333 C1332 1.367 . S
C1333 C1335 1.433 . S
C1334 C1330 1.350 . S
C1334 C1331 1.463 . S
C1334 N1338 1.427 . S
C1335 H1325 0.929 . S
C1335 C1333 1.433 . S
C1335 N1338 1.384 . S
C1336 H1327 0.929 . S
C1336 C1328 1.378 . S
C1336 C1331 1.350 . S
C1337 H1324 0.929 . S
C1337 C1329 1.433 . S
C1337 N1339 1.384 . S
N1338 C1334 1.427 . S
N1338 C1335 1.384 . S
N1339 C1331 1.427 . S
N1339 C1337 1.384 . S
H1340 C1346 0.930 . S
H1341 C1350 0.930 . S
H1342 C1355 0.929 . S
H1343 C1353 0.929 . S
H1344 C1348 0.929 . S
H1345 C1354 0.929 . S
C1346 H1340 0.930 . S
C1346 C1347 1.367 . S
C1346 C1354 1.378 . S
C1347 C1346 1.367 . S
C1347 C1355 1.433 . S
C1348 H1344 0.929 . S
C1348 C1350 1.378 . S
C1348 C1352 1.350 . S
C1349 C1352 1.463 . S
C1349 C1354 1.350 . S
C1349 N1357 1.427 . S
C1350 H1341 0.930 . S
C1350 C1348 1.378 . S
C1350 C1351 1.367 . S
C1351 C1350 1.367 . S
C1351 C1353 1.433 . S
C1352 C1348 1.350 . S
C1352 C1349 1.463 . S
C1352 N1356 1.427 . S
C1353 H1343 0.929 . S
C1353 C1351 1.433 . S
C1353 N1356 1.384 . S
C1354 H1345 0.929 . S
C1354 C1346 1.378 . S
C1354 C1349 1.350 . S
C1355 H1342 0.929 . S
C1355 C1347 1.433 . S
C1355 N1357 1.384 . S
N1356 C1352 1.427 . S
N1356 C1353 1.384 . S
N1357 C1349 1.427 . S
N1357 C1355 1.384 . S
H1358 C1364 0.930 . S
H1359 C1368 0.930 1_545 S
H1360 C1373 0.938 . S
H1361 C1371 0.929 . S
H1362 C1366 0.929 1_545 S
H1363 C1372 0.929 . S
C1364 H1358 0.930 . S
C1364 C1365 1.367 . S
C1364 C1372 1.378 . S
C1365 C1364 1.367 . S
C1365 C1373 1.427 1_565 S
C1366 H1362 0.929 1_565 S
C1366 C1368 1.378 . S
C1366 C1370 1.350 . S
C1367 C1370 1.463 . S
C1367 C1372 1.350 . S
C1367 N1375 1.444 . S
C1368 H1359 0.930 1_565 S
C1368 C1366 1.378 . S
C1368 C1369 1.367 . S
C1369 C1368 1.367 . S
C1369 C1371 1.433 . S
C1370 C1366 1.350 . S
C1370 C1367 1.463 . S
C1370 N1374 1.427 . S
C1371 H1361 0.929 . S
C1371 C1369 1.433 . S
C1371 N1374 1.384 . S
C1372 H1363 0.929 . S
C1372 C1364 1.378 . S
C1372 C1367 1.350 . S
C1373 H1360 0.938 . S
C1373 C1365 1.427 1_545 S
C1373 N1375 1.376 1_545 S
N1374 C1370 1.427 . S
N1374 C1371 1.384 . S
N1375 C1367 1.444 . S
N1375 C1373 1.376 1_565 S
H1376 C1382 0.930 . S
H1377 C1386 0.930 . S
H1378 C1391 0.929 . S
H1379 C1389 0.929 . S
H1380 C1384 0.929 . S
H1381 C1390 0.929 . S
C1382 H1376 0.930 . S
C1382 C1383 1.367 . S
C1382 C1390 1.378 . S
C1383 C1382 1.367 . S
C1383 C1391 1.433 . S
C1384 H1380 0.929 . S
C1384 C1386 1.378 . S
C1384 C1388 1.350 . S
C1385 C1388 1.463 . S
C1385 C1390 1.350 . S
C1385 N1393 1.427 . S
C1386 H1377 0.930 . S
C1386 C1384 1.378 . S
C1386 C1387 1.367 . S
C1387 C1386 1.367 . S
C1387 C1389 1.433 . S
C1388 C1384 1.350 . S
C1388 C1385 1.463 . S
C1388 N1392 1.427 . S
C1389 H1379 0.929 . S
C1389 C1387 1.433 . S
C1389 N1392 1.384 . S
C1390 H1381 0.929 . S
C1390 C1382 1.378 . S
C1390 C1385 1.350 . S
C1391 H1378 0.929 . S
C1391 C1383 1.433 . S
C1391 N1393 1.384 . S
N1392 C1388 1.427 . S
N1392 C1389 1.384 . S
N1393 C1385 1.427 . S
N1393 C1391 1.384 . S
H1394 C1400 0.930 . S
H1395 C1404 0.930 . S
H1396 C1409 0.929 . S
H1397 C1407 0.929 . S
H1398 C1402 0.929 . S
H1399 C1408 0.929 . S
C1400 H1394 0.930 . S
C1400 C1401 1.367 . S
C1400 C1408 1.378 . S
C1401 C1400 1.367 . S
C1401 C1409 1.433 . S
C1402 H1398 0.929 . S
C1402 C1404 1.378 . S
C1402 C1406 1.350 . S
C1403 C1406 1.463 . S
C1403 C1408 1.350 . S
C1403 N1411 1.427 . S
C1404 H1395 0.930 . S
C1404 C1402 1.378 . S
C1404 C1405 1.367 . S
C1405 C1404 1.367 . S
C1405 C1407 1.433 . S
C1406 C1402 1.350 . S
C1406 C1403 1.463 . S
C1406 N1410 1.427 . S
C1407 H1397 0.929 . S
C1407 C1405 1.433 . S
C1407 N1410 1.384 . S
C1408 H1399 0.929 . S
C1408 C1400 1.378 . S
C1408 C1403 1.350 . S
C1409 H1396 0.929 . S
C1409 C1401 1.433 . S
C1409 N1411 1.384 . S
N1410 C1406 1.427 . S
N1410 C1407 1.384 . S
N1411 C1403 1.427 . S
N1411 C1409 1.384 . S
H1412 C1418 0.930 . S
H1413 C1422 0.930 . S
H1414 C1427 0.929 . S
H1415 C1425 0.929 . S
H1416 C1420 0.929 . S
H1417 C1426 0.929 . S
C1418 H1412 0.930 . S
C1418 C1419 1.367 . S
C1418 C1426 1.378 . S
C1419 C1418 1.367 . S
C1419 C1427 1.433 . S
C1420 H1416 0.929 . S
C1420 C1422 1.378 . S
C1420 C1424 1.350 . S
C1421 C1424 1.463 . S
C1421 C1426 1.350 . S
C1421 N1429 1.427 . S
C1422 H1413 0.930 . S
C1422 C1420 1.378 . S
C1422 C1423 1.367 . S
C1423 C1422 1.367 . S
C1423 C1425 1.433 . S
C1424 C1420 1.350 . S
C1424 C1421 1.463 . S
C1424 N1428 1.427 . S
C1425 H1415 0.929 . S
C1425 C1423 1.433 . S
C1425 N1428 1.384 . S
C1426 H1417 0.929 . S
C1426 C1418 1.378 . S
C1426 C1421 1.350 . S
C1427 H1414 0.929 . S
C1427 C1419 1.433 . S
C1427 N1429 1.384 . S
N1428 C1424 1.427 . S
N1428 C1425 1.384 . S
N1429 C1421 1.427 . S
N1429 C1427 1.384 . S
H1430 C1436 0.930 . S
H1431 C1440 0.930 . S
H1432 C1445 0.929 . S
H1433 C1443 0.929 . S
H1434 C1438 0.929 . S
H1435 C1444 0.929 . S
C1436 H1430 0.930 . S
C1436 C1437 1.367 . S
C1436 C1444 1.378 . S
C1437 C1436 1.367 . S
C1437 C1445 1.433 . S
C1438 H1434 0.929 . S
C1438 C1440 1.378 . S
C1438 C1442 1.350 . S
C1439 C1442 1.463 . S
C1439 C1444 1.350 . S
C1439 N1447 1.427 . S
C1440 H1431 0.930 . S
C1440 C1438 1.378 . S
C1440 C1441 1.367 . S
C1441 C1440 1.367 . S
C1441 C1443 1.433 . S
C1442 C1438 1.350 . S
C1442 C1439 1.463 . S
C1442 N1446 1.427 . S
C1443 H1433 0.929 . S
C1443 C1441 1.433 . S
C1443 N1446 1.384 . S
C1444 H1435 0.929 . S
C1444 C1436 1.378 . S
C1444 C1439 1.350 . S
C1445 H1432 0.929 . S
C1445 C1437 1.433 . S
C1445 N1447 1.384 . S
N1446 C1442 1.427 . S
N1446 C1443 1.384 . S
N1447 C1439 1.427 . S
N1447 C1445 1.384 . S
H1448 C1454 0.930 . S
H1449 C1458 0.930 . S
H1450 C1463 0.929 . S
H1451 C1461 0.929 . S
H1452 C1456 0.929 . S
H1453 C1462 0.929 . S
C1454 H1448 0.930 . S
C1454 C1455 1.367 . S
C1454 C1462 1.378 . S
C1455 C1454 1.367 . S
C1455 C1463 1.433 . S
C1456 H1452 0.929 . S
C1456 C1458 1.378 . S
C1456 C1460 1.350 . S
C1457 C1460 1.463 . S
C1457 C1462 1.350 . S
C1457 N1465 1.427 . S
C1458 H1449 0.930 . S
C1458 C1456 1.378 . S
C1458 C1459 1.367 . S
C1459 C1458 1.367 . S
C1459 C1461 1.433 . S
C1460 C1456 1.350 . S
C1460 C1457 1.463 . S
C1460 N1464 1.427 . S
C1461 H1451 0.929 . S
C1461 C1459 1.433 . S
C1461 N1464 1.384 . S
C1462 H1453 0.929 . S
C1462 C1454 1.378 . S
C1462 C1457 1.350 . S
C1463 H1450 0.929 . S
C1463 C1455 1.433 . S
C1463 N1465 1.384 . S
N1464 C1460 1.427 . S
N1464 C1461 1.384 . S
N1465 C1457 1.427 . S
N1465 C1463 1.384 . S
H1466 C1472 0.930 . S
H1467 C1476 0.930 . S
H1468 C1481 0.929 . S
H1469 C1479 0.929 . S
H1470 C1474 0.929 . S
H1471 C1480 0.929 . S
C1472 H1466 0.930 . S
C1472 C1473 1.367 . S
C1472 C1480 1.378 . S
C1473 C1472 1.367 . S
C1473 C1481 1.433 . S
C1474 H1470 0.929 . S
C1474 C1476 1.378 . S
C1474 C1478 1.350 . S
C1475 C1478 1.463 . S
C1475 C1480 1.350 . S
C1475 N1483 1.427 . S
C1476 H1467 0.930 . S
C1476 C1474 1.378 . S
C1476 C1477 1.367 . S
C1477 C1476 1.367 . S
C1477 C1479 1.433 . S
C1478 C1474 1.350 . S
C1478 C1475 1.463 . S
C1478 N1482 1.427 . S
C1479 H1469 0.929 . S
C1479 C1477 1.433 . S
C1479 N1482 1.384 . S
C1480 H1471 0.929 . S
C1480 C1472 1.378 . S
C1480 C1475 1.350 . S
C1481 H1468 0.929 . S
C1481 C1473 1.433 . S
C1481 N1483 1.384 . S
N1482 C1478 1.427 . S
N1482 C1479 1.384 . S
N1483 C1475 1.427 . S
N1483 C1481 1.384 . S
H1484 C1490 0.930 . S
H1485 C1494 0.930 . S
H1486 C1499 0.929 . S
H1487 C1497 0.929 . S
H1488 C1492 0.929 . S
H1489 C1498 0.929 . S
C1490 H1484 0.930 . S
C1490 C1491 1.367 . S
C1490 C1498 1.378 . S
C1491 C1490 1.367 . S
C1491 C1499 1.433 . S
C1492 H1488 0.929 . S
C1492 C1494 1.378 . S
C1492 C1496 1.350 . S
C1493 C1496 1.463 . S
C1493 C1498 1.350 . S
C1493 N1501 1.427 . S
C1494 H1485 0.930 . S
C1494 C1492 1.378 . S
C1494 C1495 1.367 . S
C1495 C1494 1.367 . S
C1495 C1497 1.433 . S
C1496 C1492 1.350 . S
C1496 C1493 1.463 . S
C1496 N1500 1.427 . S
C1497 H1487 0.929 . S
C1497 C1495 1.433 . S
C1497 N1500 1.384 . S
C1498 H1489 0.929 . S
C1498 C1490 1.378 . S
C1498 C1493 1.350 . S
C1499 H1486 0.929 . S
C1499 C1491 1.433 . S
C1499 N1501 1.384 . S
N1500 C1496 1.427 . S
N1500 C1497 1.384 . S
N1501 C1493 1.427 . S
N1501 C1499 1.384 . S
H1502 C1508 0.930 . S
H1503 C1512 0.929 1_455 S
H1504 C1517 0.929 . S
H1505 C1515 0.929 . S
H1506 C1510 0.941 . S
H1507 C1516 0.929 . S
C1508 H1502 0.930 . S
C1508 C1509 1.367 . S
C1508 C1516 1.378 . S
C1509 C1508 1.367 . S
C1509 C1517 1.433 . S
C1510 H1506 0.941 . S
C1510 C1512 1.378 . S
C1510 C1514 1.350 . S
C1511 C1514 1.463 . S
C1511 C1516 1.350 . S
C1511 N1519 1.427 . S
C1512 H1503 0.929 1_655 S
C1512 C1510 1.378 . S
C1512 C1513 1.367 . S
C1513 C1512 1.367 . S
C1513 C1515 1.433 . S
C1514 C1510 1.350 . S
C1514 C1511 1.463 . S
C1514 N1518 1.427 . S
C1515 H1505 0.929 . S
C1515 C1513 1.433 . S
C1515 N1518 1.384 . S
C1516 H1507 0.929 . S
C1516 C1508 1.378 . S
C1516 C1511 1.350 . S
C1517 H1504 0.929 . S
C1517 C1509 1.433 . S
C1517 N1519 1.384 . S
N1518 C1514 1.427 . S
N1518 C1515 1.384 . S
N1519 C1511 1.427 . S
N1519 C1517 1.384 . S
H1520 C1526 0.930 . S
H1521 C1530 0.930 . S
H1522 C1535 0.929 . S
H1523 C1533 0.929 . S
H1524 C1528 0.929 . S
H1525 C1534 0.929 . S
C1526 H1520 0.930 . S
C1526 C1527 1.367 . S
C1526 C1534 1.378 . S
C1527 C1526 1.367 . S
C1527 C1535 1.433 . S
C1528 H1524 0.929 . S
C1528 C1530 1.378 . S
C1528 C1532 1.350 . S
C1529 C1532 1.463 . S
C1529 C1534 1.350 . S
C1529 N1537 1.427 . S
C1530 H1521 0.930 . S
C1530 C1528 1.378 . S
C1530 C1531 1.367 . S
C1531 C1530 1.367 . S
C1531 C1533 1.433 . S
C1532 C1528 1.350 . S
C1532 C1529 1.463 . S
C1532 N1536 1.427 . S
C1533 H1523 0.929 . S
C1533 C1531 1.433 . S
C1533 N1536 1.384 . S
C1534 H1525 0.929 . S
C1534 C1526 1.378 . S
C1534 C1529 1.350 . S
C1535 H1522 0.929 . S
C1535 C1527 1.433 . S
C1535 N1537 1.384 . S
N1536 C1532 1.427 . S
N1536 C1533 1.384 . S
N1537 C1529 1.427 . S
N1537 C1535 1.384 . S
H1538 C1544 0.930 . S
H1539 C1548 0.930 . S
H1540 C1553 0.929 . S
H1541 C1551 0.929 . S
H1542 C1546 0.929 . S
H1543 C1552 0.929 . S
C1544 H1538 0.930 . S
C1544 C1545 1.367 . S
C1544 C1552 1.378 . S
C1545 C1544 1.367 . S
C1545 C1553 1.433 . S
C1546 H1542 0.929 . S
C1546 C1548 1.378 . S
C1546 C1550 1.350 . S
C1547 C1550 1.463 . S
C1547 C1552 1.350 . S
C1547 N1555 1.427 . S
C1548 H1539 0.930 . S
C1548 C1546 1.378 . S
C1548 C1549 1.367 . S
C1549 C1548 1.367 . S
C1549 C1551 1.433 . S
C1550 C1546 1.350 . S
C1550 C1547 1.463 . S
C1550 N1554 1.427 . S
C1551 H1541 0.929 . S
C1551 C1549 1.433 . S
C1551 N1554 1.384 . S
C1552 H1543 0.929 . S
C1552 C1544 1.378 . S
C1552 C1547 1.350 . S
C1553 H1540 0.929 . S
C1553 C1545 1.433 . S
C1553 N1555 1.384 . S
N1554 C1550 1.427 . S
N1554 C1551 1.384 . S
N1555 C1547 1.427 . S
N1555 C1553 1.384 . S
H1556 C1562 0.930 . S
H1557 C1566 0.930 . S
H1558 C1571 0.929 . S
H1559 C1569 0.929 . S
H1560 C1564 0.929 1_556 S
H1561 C1570 0.929 . S
C1562 H1556 0.930 . S
C1562 C1563 1.367 1_565 S
C1562 C1570 1.378 1_556 S
C1563 C1562 1.367 1_545 S
C1563 C1571 1.433 . S
C1564 H1560 0.929 1_554 S
C1564 C1566 1.378 . S
C1564 C1568 1.350 . S
C1565 C1568 1.451 1_556 S
C1565 C1570 1.345 1_556 S
C1565 N1573 1.445 1_565 S
C1566 H1557 0.930 . S
C1566 C1564 1.378 . S
C1566 C1567 1.367 . S
C1567 C1566 1.367 . S
C1567 C1569 1.433 . S
C1568 C1564 1.350 . S
C1568 C1565 1.451 1_554 S
C1568 N1572 1.427 . S
C1569 H1559 0.929 . S
C1569 C1567 1.433 . S
C1569 N1572 1.384 . S
C1570 H1561 0.929 . S
C1570 C1562 1.378 1_554 S
C1570 C1565 1.345 1_554 S
C1571 H1558 0.929 . S
C1571 C1563 1.433 . S
C1571 N1573 1.384 . S
N1572 C1568 1.427 . S
N1572 C1569 1.384 . S
N1573 C1565 1.445 1_545 S
N1573 C1571 1.384 . S
H1574 C1580 0.930 . S
H1575 C1584 0.930 . S
H1576 C1589 0.929 . S
H1577 C1587 0.929 . S
H1578 C1582 0.929 . S
H1579 C1588 0.929 . S
C1580 H1574 0.930 . S
C1580 C1581 1.367 . S
C1580 C1588 1.378 . S
C1581 C1580 1.367 . S
C1581 C1589 1.433 . S
C1582 H1578 0.929 . S
C1582 C1584 1.378 . S
C1582 C1586 1.350 . S
C1583 C1586 1.463 . S
C1583 C1588 1.350 . S
C1583 N1591 1.427 . S
C1584 H1575 0.930 . S
C1584 C1582 1.378 . S
C1584 C1585 1.367 . S
C1585 C1584 1.367 . S
C1585 C1587 1.433 . S
C1586 C1582 1.350 . S
C1586 C1583 1.463 . S
C1586 N1590 1.427 . S
C1587 H1577 0.929 . S
C1587 C1585 1.433 . S
C1587 N1590 1.384 . S
C1588 H1579 0.929 . S
C1588 C1580 1.378 . S
C1588 C1583 1.350 . S
C1589 H1576 0.929 . S
C1589 C1581 1.433 . S
C1589 N1591 1.384 . S
N1590 C1586 1.427 . S
N1590 C1587 1.384 . S
N1591 C1583 1.427 . S
N1591 C1589 1.384 . S
H1592 C1598 0.930 1_565 S
H1593 C1602 0.930 . S
H1594 C1607 0.929 . S
H1595 C1605 0.929 . S
H1596 C1600 0.929 . S
H1597 C1606 0.929 . S
C1598 H1592 0.930 1_545 S
C1598 C1599 1.367 . S
C1598 C1606 1.378 . S
C1599 C1598 1.367 . S
C1599 C1607 1.433 . S
C1600 H1596 0.929 . S
C1600 C1602 1.378 . S
C1600 C1604 1.350 . S
C1601 C1604 1.463 . S
C1601 C1606 1.350 . S
C1601 N1609 1.427 . S
C1602 H1593 0.930 . S
C1602 C1600 1.378 . S
C1602 C1603 1.367 . S
C1603 C1602 1.367 . S
C1603 C1605 1.433 . S
C1604 C1600 1.350 . S
C1604 C1601 1.463 . S
C1604 N1608 1.427 . S
C1605 H1595 0.929 . S
C1605 C1603 1.433 . S
C1605 N1608 1.384 . S
C1606 H1597 0.929 . S
C1606 C1598 1.378 . S
C1606 C1601 1.350 . S
C1607 H1594 0.929 . S
C1607 C1599 1.433 . S
C1607 N1609 1.384 . S
N1608 C1604 1.427 . S
N1608 C1605 1.384 . S
N1609 C1601 1.427 . S
N1609 C1607 1.384 . S
H1610 C1616 0.930 . S
H1611 C1620 0.930 . S
H1612 C1625 0.929 . S
H1613 C1623 0.929 . S
H1614 C1618 0.929 . S
H1615 C1624 0.929 . S
C1616 H1610 0.930 . S
C1616 C1617 1.367 . S
C1616 C1624 1.378 . S
C1617 C1616 1.367 . S
C1617 C1625 1.433 . S
C1618 H1614 0.929 . S
C1618 C1620 1.378 . S
C1618 C1622 1.350 . S
C1619 C1622 1.463 . S
C1619 C1624 1.350 . S
C1619 N1627 1.427 . S
C1620 H1611 0.930 . S
C1620 C1618 1.378 . S
C1620 C1621 1.367 . S
C1621 C1620 1.367 . S
C1621 C1623 1.433 . S
C1622 C1618 1.350 . S
C1622 C1619 1.463 . S
C1622 N1626 1.427 . S
C1623 H1613 0.929 . S
C1623 C1621 1.433 . S
C1623 N1626 1.384 . S
C1624 H1615 0.929 . S
C1624 C1616 1.378 . S
C1624 C1619 1.350 . S
C1625 H1612 0.929 . S
C1625 C1617 1.433 . S
C1625 N1627 1.384 . S
N1626 C1622 1.427 . S
N1626 C1623 1.384 . S
N1627 C1619 1.427 . S
N1627 C1625 1.384 . S
H1628 C1634 0.930 . S
H1629 C1638 0.930 . S
H1630 C1643 0.929 . S
H1631 C1641 0.929 . S
H1632 C1636 0.929 . S
H1633 C1642 0.929 . S
C1634 H1628 0.930 . S
C1634 C1635 1.367 . S
C1634 C1642 1.378 . S
C1635 C1634 1.367 . S
C1635 C1643 1.433 . S
C1636 H1632 0.929 . S
C1636 C1638 1.378 . S
C1636 C1640 1.350 . S
C1637 C1640 1.463 . S
C1637 C1642 1.350 . S
C1637 N1645 1.427 . S
C1638 H1629 0.930 . S
C1638 C1636 1.378 . S
C1638 C1639 1.367 . S
C1639 C1638 1.367 . S
C1639 C1641 1.433 . S
C1640 C1636 1.350 . S
C1640 C1637 1.463 . S
C1640 N1644 1.427 . S
C1641 H1631 0.929 . S
C1641 C1639 1.433 . S
C1641 N1644 1.384 . S
C1642 H1633 0.929 . S
C1642 C1634 1.378 . S
C1642 C1637 1.350 . S
C1643 H1630 0.929 . S
C1643 C1635 1.433 . S
C1643 N1645 1.384 . S
N1644 C1640 1.427 . S
N1644 C1641 1.384 . S
N1645 C1637 1.427 . S
N1645 C1643 1.384 . S
H1646 C1652 0.930 . S
H1647 C1656 0.930 . S
H1648 C1661 0.929 . S
H1649 C1659 0.929 . S
H1650 C1654 0.929 . S
H1651 C1660 0.929 . S
C1652 H1646 0.930 . S
C1652 C1653 1.367 . S
C1652 C1660 1.378 . S
C1653 C1652 1.367 . S
C1653 C1661 1.433 . S
C1654 H1650 0.929 . S
C1654 C1656 1.378 . S
C1654 C1658 1.350 . S
C1655 C1658 1.463 . S
C1655 C1660 1.350 . S
C1655 N1663 1.427 . S
C1656 H1647 0.930 . S
C1656 C1654 1.378 . S
C1656 C1657 1.367 . S
C1657 C1656 1.367 . S
C1657 C1659 1.433 . S
C1658 C1654 1.350 . S
C1658 C1655 1.463 . S
C1658 N1662 1.427 . S
C1659 H1649 0.929 . S
C1659 C1657 1.433 . S
C1659 N1662 1.384 . S
C1660 H1651 0.929 . S
C1660 C1652 1.378 . S
C1660 C1655 1.350 . S
C1661 H1648 0.929 . S
C1661 C1653 1.433 . S
C1661 N1663 1.384 . S
N1662 C1658 1.427 . S
N1662 C1659 1.384 . S
N1663 C1655 1.427 . S
N1663 C1661 1.384 . S
H1664 C1670 0.930 . S
H1665 C1674 0.930 . S
H1666 C1679 0.929 . S
H1667 C1677 0.929 . S
H1668 C1672 0.929 . S
H1669 C1678 0.929 . S
C1670 H1664 0.930 . S
C1670 C1671 1.367 . S
C1670 C1678 1.378 . S
C1671 C1670 1.367 . S
C1671 C1679 1.433 . S
C1672 H1668 0.929 . S
C1672 C1674 1.378 . S
C1672 C1676 1.350 . S
C1673 C1676 1.463 . S
C1673 C1678 1.350 . S
C1673 N1681 1.427 . S
C1674 H1665 0.930 . S
C1674 C1672 1.378 . S
C1674 C1675 1.367 . S
C1675 C1674 1.367 . S
C1675 C1677 1.433 . S
C1676 C1672 1.350 . S
C1676 C1673 1.463 . S
C1676 N1680 1.427 . S
C1677 H1667 0.929 . S
C1677 C1675 1.433 . S
C1677 N1680 1.384 . S
C1678 H1669 0.929 . S
C1678 C1670 1.378 . S
C1678 C1673 1.350 . S
C1679 H1666 0.929 . S
C1679 C1671 1.433 . S
C1679 N1681 1.384 . S
N1680 C1676 1.427 . S
N1680 C1677 1.384 . S
N1681 C1673 1.427 . S
N1681 C1679 1.384 . S
H1682 C1688 0.930 1_565 S
H1683 C1692 0.930 . S
H1684 C1697 0.929 . S
H1685 C1695 0.977 . S
H1686 C1690 0.929 . S
H1687 C1696 0.929 1_565 S
C1688 H1682 0.930 1_545 S
C1688 C1689 1.367 . S
C1688 C1696 1.378 . S
C1689 C1688 1.367 . S
C1689 C1697 1.433 . S
C1690 H1686 0.929 . S
C1690 C1692 1.378 . S
C1690 C1694 1.350 . S
C1691 C1694 1.463 . S
C1691 C1696 1.350 . S
C1691 N1699 1.427 . S
C1692 H1683 0.930 . S
C1692 C1690 1.378 . S
C1692 C1693 1.367 . S
C1693 C1692 1.367 . S
C1693 C1695 1.385 1_545 S
C1694 C1690 1.350 . S
C1694 C1691 1.463 . S
C1694 N1698 1.478 . S
C1695 H1685 0.977 . S
C1695 C1693 1.385 1_565 S
C1695 N1698 1.386 1_565 S
C1696 H1687 0.929 1_545 S
C1696 C1688 1.378 . S
C1696 C1691 1.350 . S
C1697 H1684 0.929 . S
C1697 C1689 1.433 . S
C1697 N1699 1.384 . S
N1698 C1694 1.478 . S
N1698 C1695 1.386 1_545 S
N1699 C1691 1.427 . S
N1699 C1697 1.384 . S
H1700 C1706 0.930 . S
H1701 C1710 0.930 . S
H1702 C1715 0.929 . S
H1703 C1713 0.929 . S
H1704 C1708 0.929 . S
H1705 C1714 0.929 . S
C1706 H1700 0.930 . S
C1706 C1707 1.367 . S
C1706 C1714 1.378 . S
C1707 C1706 1.367 . S
C1707 C1715 1.433 . S
C1708 H1704 0.929 . S
C1708 C1710 1.378 . S
C1708 C1712 1.350 . S
C1709 C1712 1.463 . S
C1709 C1714 1.350 . S
C1709 N1717 1.427 . S
C1710 H1701 0.930 . S
C1710 C1708 1.378 . S
C1710 C1711 1.367 . S
C1711 C1710 1.367 . S
C1711 C1713 1.433 . S
C1712 C1708 1.350 . S
C1712 C1709 1.463 . S
C1712 N1716 1.427 . S
C1713 H1703 0.929 . S
C1713 C1711 1.433 . S
C1713 N1716 1.384 . S
C1714 H1705 0.929 . S
C1714 C1706 1.378 . S
C1714 C1709 1.350 . S
C1715 H1702 0.929 . S
C1715 C1707 1.433 . S
C1715 N1717 1.384 . S
N1716 C1712 1.427 . S
N1716 C1713 1.384 . S
N1717 C1709 1.427 . S
N1717 C1715 1.384 . S
H1718 C1724 0.930 . S
H1719 C1728 0.930 . S
H1720 C1733 0.929 . S
H1721 C1731 0.929 . S
H1722 C1726 0.929 . S
H1723 C1732 0.929 . S
C1724 H1718 0.930 . S
C1724 C1725 1.367 . S
C1724 C1732 1.378 . S
C1725 C1724 1.367 . S
C1725 C1733 1.433 . S
C1726 H1722 0.929 . S
C1726 C1728 1.378 . S
C1726 C1730 1.350 . S
C1727 C1730 1.463 . S
C1727 C1732 1.350 . S
C1727 N1735 1.427 . S
C1728 H1719 0.930 . S
C1728 C1726 1.378 . S
C1728 C1729 1.367 . S
C1729 C1728 1.367 . S
C1729 C1731 1.433 . S
C1730 C1726 1.350 . S
C1730 C1727 1.463 . S
C1730 N1734 1.427 . S
C1731 H1721 0.929 . S
C1731 C1729 1.433 . S
C1731 N1734 1.384 . S
C1732 H1723 0.929 . S
C1732 C1724 1.378 . S
C1732 C1727 1.350 . S
C1733 H1720 0.929 . S
C1733 C1725 1.433 . S
C1733 N1735 1.384 . S
N1734 C1730 1.427 . S
N1734 C1731 1.384 . S
N1735 C1727 1.427 . S
N1735 C1733 1.384 . S
H1736 C1742 0.930 . S
H1737 C1746 0.930 . S
H1738 C1751 0.929 . S
H1739 C1749 0.929 . S
H1740 C1744 0.929 . S
H1741 C1750 0.929 . S
C1742 H1736 0.930 . S
C1742 C1743 1.367 . S
C1742 C1750 1.378 . S
C1743 C1742 1.367 . S
C1743 C1751 1.433 . S
C1744 H1740 0.929 . S
C1744 C1746 1.378 . S
C1744 C1748 1.350 . S
C1745 C1748 1.463 . S
C1745 C1750 1.350 . S
C1745 N1753 1.427 . S
C1746 H1737 0.930 . S
C1746 C1744 1.378 . S
C1746 C1747 1.367 . S
C1747 C1746 1.367 . S
C1747 C1749 1.433 . S
C1748 C1744 1.350 . S
C1748 C1745 1.463 . S
C1748 N1752 1.427 . S
C1749 H1739 0.929 . S
C1749 C1747 1.433 . S
C1749 N1752 1.384 . S
C1750 H1741 0.929 . S
C1750 C1742 1.378 . S
C1750 C1745 1.350 . S
C1751 H1738 0.929 . S
C1751 C1743 1.433 . S
C1751 N1753 1.384 . S
N1752 C1748 1.427 . S
N1752 C1749 1.384 . S
N1753 C1745 1.427 . S
N1753 C1751 1.384 . S
H1754 C1760 0.930 . S
H1755 C1764 0.930 1_455 S
H1756 C1769 0.929 . S
H1757 C1767 0.929 . S
H1758 C1762 0.929 . S
H1759 C1768 0.929 . S
C1760 H1754 0.930 . S
C1760 C1761 1.367 . S
C1760 C1768 1.378 . S
C1761 C1760 1.367 . S
C1761 C1769 1.433 . S
C1762 H1758 0.929 . S
C1762 C1764 1.378 1_455 S
C1762 C1766 1.350 . S
C1763 C1766 1.463 . S
C1763 C1768 1.350 . S
C1763 N1771 1.427 . S
C1764 H1755 0.930 1_655 S
C1764 C1762 1.378 1_655 S
C1764 C1765 1.367 . S
C1765 C1764 1.367 . S
C1765 C1767 1.433 . S
C1766 C1762 1.350 . S
C1766 C1763 1.463 . S
C1766 N1770 1.427 1_455 S
C1767 H1757 0.929 . S
C1767 C1765 1.433 . S
C1767 N1770 1.384 . S
C1768 H1759 0.929 . S
C1768 C1760 1.378 . S
C1768 C1763 1.350 . S
C1769 H1756 0.929 . S
C1769 C1761 1.433 . S
C1769 N1771 1.384 . S
N1770 C1766 1.427 1_655 S
N1770 C1767 1.384 . S
N1771 C1763 1.427 . S
N1771 C1769 1.384 . S
H1772 C1778 0.930 . S
H1773 C1782 0.930 . S
H1774 C1787 0.929 . S
H1775 C1785 0.929 . S
H1776 C1780 0.929 . S
H1777 C1786 0.929 . S
C1778 H1772 0.930 . S
C1778 C1779 1.367 . S
C1778 C1786 1.378 . S
C1779 C1778 1.367 . S
C1779 C1787 1.433 . S
C1780 H1776 0.929 . S
C1780 C1782 1.378 . S
C1780 C1784 1.350 . S
C1781 C1784 1.463 . S
C1781 C1786 1.350 . S
C1781 N1789 1.427 . S
C1782 H1773 0.930 . S
C1782 C1780 1.378 . S
C1782 C1783 1.367 . S
C1783 C1782 1.367 . S
C1783 C1785 1.433 . S
C1784 C1780 1.350 . S
C1784 C1781 1.463 . S
C1784 N1788 1.427 . S
C1785 H1775 0.929 . S
C1785 C1783 1.433 . S
C1785 N1788 1.384 . S
C1786 H1777 0.929 . S
C1786 C1778 1.378 . S
C1786 C1781 1.350 . S
C1787 H1774 0.929 . S
C1787 C1779 1.433 . S
C1787 N1789 1.384 . S
N1788 C1784 1.427 . S
N1788 C1785 1.384 . S
N1789 C1781 1.427 . S
N1789 C1787 1.384 . S
H1790 C1796 0.930 . S
H1791 C1800 0.930 . S
H1792 C1805 0.929 . S
H1793 C1803 0.929 . S
H1794 C1798 0.929 . S
H1795 C1804 0.929 . S
C1796 H1790 0.930 . S
C1796 C1797 1.367 . S
C1796 C1804 1.378 . S
C1797 C1796 1.367 . S
C1797 C1805 1.433 . S
C1798 H1794 0.929 . S
C1798 C1800 1.378 . S
C1798 C1802 1.350 . S
C1799 C1802 1.463 . S
C1799 C1804 1.350 . S
C1799 N1807 1.427 . S
C1800 H1791 0.930 . S
C1800 C1798 1.378 . S
C1800 C1801 1.367 . S
C1801 C1800 1.367 . S
C1801 C1803 1.433 . S
C1802 C1798 1.350 . S
C1802 C1799 1.463 . S
C1802 N1806 1.427 . S
C1803 H1793 0.929 . S
C1803 C1801 1.433 . S
C1803 N1806 1.384 . S
C1804 H1795 0.929 . S
C1804 C1796 1.378 . S
C1804 C1799 1.350 . S
C1805 H1792 0.929 . S
C1805 C1797 1.433 . S
C1805 N1807 1.384 . S
N1806 C1802 1.427 . S
N1806 C1803 1.384 . S
N1807 C1799 1.427 . S
N1807 C1805 1.384 . S
H1808 C1814 0.930 . S
H1809 C1818 0.930 . S
H1810 C1823 0.929 . S
H1811 C1821 0.929 . S
H1812 C1816 0.929 . S
H1813 C1822 0.929 . S
C1814 H1808 0.930 . S
C1814 C1815 1.367 . S
C1814 C1822 1.378 . S
C1815 C1814 1.367 . S
C1815 C1823 1.433 . S
C1816 H1812 0.929 . S
C1816 C1818 1.378 . S
C1816 C1820 1.350 . S
C1817 C1820 1.463 . S
C1817 C1822 1.350 . S
C1817 N1825 1.427 . S
C1818 H1809 0.930 . S
C1818 C1816 1.378 . S
C1818 C1819 1.367 . S
C1819 C1818 1.367 . S
C1819 C1821 1.433 . S
C1820 C1816 1.350 . S
C1820 C1817 1.463 . S
C1820 N1824 1.427 . S
C1821 H1811 0.929 . S
C1821 C1819 1.433 . S
C1821 N1824 1.384 . S
C1822 H1813 0.929 . S
C1822 C1814 1.378 . S
C1822 C1817 1.350 . S
C1823 H1810 0.929 . S
C1823 C1815 1.433 . S
C1823 N1825 1.384 . S
N1824 C1820 1.427 . S
N1824 C1821 1.384 . S
N1825 C1817 1.427 . S
N1825 C1823 1.384 . S
H1826 C1832 0.930 . S
H1827 C1836 0.930 . S
H1828 C1841 0.929 . S
H1829 C1839 0.929 . S
H1830 C1834 0.929 . S
H1831 C1840 0.923 1_554 S
C1832 H1826 0.930 . S
C1832 C1833 1.367 . S
C1832 C1840 1.366 1_554 S
C1833 C1832 1.367 . S
C1833 C1841 1.433 1_654 S
C1834 H1830 0.929 . S
C1834 C1836 1.378 . S
C1834 C1838 1.350 . S
C1835 C1838 1.461 . S
C1835 C1840 1.373 1_455 S
C1835 N1843 1.423 . S
C1836 H1827 0.930 . S
C1836 C1834 1.378 . S
C1836 C1837 1.367 . S
C1837 C1836 1.367 . S
C1837 C1839 1.433 1_455 S
C1838 C1834 1.350 . S
C1838 C1835 1.461 . S
C1838 N1842 1.427 1_455 S
C1839 H1829 0.929 . S
C1839 C1837 1.433 1_655 S
C1839 N1842 1.384 . S
C1840 H1831 0.923 1_556 S
C1840 C1832 1.366 1_556 S
C1840 C1835 1.373 1_655 S
C1841 H1828 0.929 . S
C1841 C1833 1.433 1_456 S
C1841 N1843 1.384 . S
N1842 C1838 1.427 1_655 S
N1842 C1839 1.384 . S
N1843 C1835 1.423 . S
N1843 C1841 1.384 . S
H1844 C1850 0.930 . S
H1845 C1854 0.930 . S
H1846 C1859 0.929 . S
H1847 C1857 0.929 . S
H1848 C1852 0.929 . S
H1849 C1858 0.929 . S
C1850 H1844 0.930 . S
C1850 C1851 1.367 . S
C1850 C1858 1.378 . S
C1851 C1850 1.367 . S
C1851 C1859 1.433 . S
C1852 H1848 0.929 . S
C1852 C1854 1.378 . S
C1852 C1856 1.350 . S
C1853 C1856 1.463 . S
C1853 C1858 1.350 . S
C1853 N1861 1.427 . S
C1854 H1845 0.930 . S
C1854 C1852 1.378 . S
C1854 C1855 1.367 . S
C1855 C1854 1.367 . S
C1855 C1857 1.433 . S
C1856 C1852 1.350 . S
C1856 C1853 1.463 . S
C1856 N1860 1.427 . S
C1857 H1847 0.929 . S
C1857 C1855 1.433 . S
C1857 N1860 1.384 . S
C1858 H1849 0.929 . S
C1858 C1850 1.378 . S
C1858 C1853 1.350 . S
C1859 H1846 0.929 . S
C1859 C1851 1.433 . S
C1859 N1861 1.384 . S
N1860 C1856 1.427 . S
N1860 C1857 1.384 . S
N1861 C1853 1.427 . S
N1861 C1859 1.384 . S
H1862 C1868 0.930 . S
H1863 C1872 0.930 1_655 S
H1864 C1877 0.929 . S
H1865 C1875 0.929 . S
H1866 C1870 0.929 . S
H1867 C1876 0.929 . S
C1868 H1862 0.930 . S
C1868 C1869 1.367 . S
C1868 C1876 1.378 1_554 S
C1869 C1868 1.367 . S
C1869 C1877 1.433 . S
C1870 H1866 0.929 . S
C1870 C1872 1.378 . S
C1870 C1874 1.350 . S
C1871 C1874 1.463 . S
C1871 C1876 1.350 . S
C1871 N1879 1.427 . S
C1872 H1863 0.930 1_455 S
C1872 C1870 1.378 . S
C1872 C1873 1.367 . S
C1873 C1872 1.367 . S
C1873 C1875 1.433 . S
C1874 C1870 1.350 . S
C1874 C1871 1.463 . S
C1874 N1878 1.427 . S
C1875 H1865 0.929 . S
C1875 C1873 1.433 . S
C1875 N1878 1.384 . S
C1876 H1867 0.929 . S
C1876 C1868 1.378 1_556 S
C1876 C1871 1.350 . S
C1877 H1864 0.929 . S
C1877 C1869 1.433 . S
C1877 N1879 1.384 1_554 S
N1878 C1874 1.427 . S
N1878 C1875 1.384 . S
N1879 C1871 1.427 . S
N1879 C1877 1.384 1_556 S
H1880 C1886 0.930 . S
H1881 C1890 0.930 . S
H1882 C1895 0.929 . S
H1883 C1893 0.929 . S
H1884 C1888 0.929 . S
H1885 C1894 0.929 . S
C1886 H1880 0.930 . S
C1886 C1887 1.367 . S
C1886 C1894 1.378 . S
C1887 C1886 1.367 . S
C1887 C1895 1.433 . S
C1888 H1884 0.929 . S
C1888 C1890 1.378 . S
C1888 C1892 1.350 . S
C1889 C1892 1.463 . S
C1889 C1894 1.350 . S
C1889 N1897 1.427 . S
C1890 H1881 0.930 . S
C1890 C1888 1.378 . S
C1890 C1891 1.367 . S
C1891 C1890 1.367 . S
C1891 C1893 1.433 . S
C1892 C1888 1.350 . S
C1892 C1889 1.463 . S
C1892 N1896 1.427 . S
C1893 H1883 0.929 . S
C1893 C1891 1.433 . S
C1893 N1896 1.384 . S
C1894 H1885 0.929 . S
C1894 C1886 1.378 . S
C1894 C1889 1.350 . S
C1895 H1882 0.929 . S
C1895 C1887 1.433 . S
C1895 N1897 1.384 . S
N1896 C1892 1.427 . S
N1896 C1893 1.384 . S
N1897 C1889 1.427 . S
N1897 C1895 1.384 . S
H1898 C1904 0.930 . S
H1899 C1908 0.930 . S
H1900 C1913 0.929 . S
H1901 C1911 0.929 . S
H1902 C1906 0.929 . S
H1903 C1912 0.929 . S
C1904 H1898 0.930 . S
C1904 C1905 1.367 . S
C1904 C1912 1.378 . S
C1905 C1904 1.367 . S
C1905 C1913 1.433 . S
C1906 H1902 0.929 . S
C1906 C1908 1.378 . S
C1906 C1910 1.350 . S
C1907 C1910 1.463 . S
C1907 C1912 1.350 . S
C1907 N1915 1.427 . S
C1908 H1899 0.930 . S
C1908 C1906 1.378 . S
C1908 C1909 1.367 . S
C1909 C1908 1.367 . S
C1909 C1911 1.433 . S
C1910 C1906 1.350 . S
C1910 C1907 1.463 . S
C1910 N1914 1.427 . S
C1911 H1901 0.929 . S
C1911 C1909 1.433 . S
C1911 N1914 1.384 . S
C1912 H1903 0.929 . S
C1912 C1904 1.378 . S
C1912 C1907 1.350 . S
C1913 H1900 0.929 . S
C1913 C1905 1.433 . S
C1913 N1915 1.384 . S
N1914 C1910 1.427 . S
N1914 C1911 1.384 . S
N1915 C1907 1.427 . S
N1915 C1913 1.384 . S
H1916 C1922 0.930 . S
H1917 C1926 0.930 . S
H1918 C1931 0.929 . S
H1919 C1929 0.929 . S
H1920 C1924 0.929 . S
H1921 C1930 0.929 . S
C1922 H1916 0.930 . S
C1922 C1923 1.367 . S
C1922 C1930 1.378 . S
C1923 C1922 1.367 . S
C1923 C1931 1.433 . S
C1924 H1920 0.929 . S
C1924 C1926 1.378 . S
C1924 C1928 1.350 . S
C1925 C1928 1.463 . S
C1925 C1930 1.350 . S
C1925 N1933 1.427 . S
C1926 H1917 0.930 . S
C1926 C1924 1.378 . S
C1926 C1927 1.367 . S
C1927 C1926 1.367 . S
C1927 C1929 1.433 . S
C1928 C1924 1.350 . S
C1928 C1925 1.463 . S
C1928 N1932 1.427 . S
C1929 H1919 0.929 . S
C1929 C1927 1.433 . S
C1929 N1932 1.384 . S
C1930 H1921 0.929 . S
C1930 C1922 1.378 . S
C1930 C1925 1.350 . S
C1931 H1918 0.929 . S
C1931 C1923 1.433 . S
C1931 N1933 1.384 . S
N1932 C1928 1.427 . S
N1932 C1929 1.384 . S
N1933 C1925 1.427 . S
N1933 C1931 1.384 . S
H1934 C1940 0.930 . S
H1935 C1944 0.930 . S
H1936 C1949 0.929 1_556 S
H1937 C1947 0.929 . S
H1938 C1942 0.929 . S
H1939 C1948 0.929 . S
C1940 H1934 0.930 . S
C1940 C1941 1.367 . S
C1940 C1948 1.378 . S
C1941 C1940 1.367 . S
C1941 C1949 1.433 . S
C1942 H1938 0.929 . S
C1942 C1944 1.378 . S
C1942 C1946 1.350 . S
C1943 C1946 1.463 . S
C1943 C1948 1.350 . S
C1943 N1951 1.427 . S
C1944 H1935 0.930 . S
C1944 C1942 1.378 . S
C1944 C1945 1.367 . S
C1945 C1944 1.367 . S
C1945 C1947 1.433 . S
C1946 C1942 1.350 . S
C1946 C1943 1.463 . S
C1946 N1950 1.427 . S
C1947 H1937 0.929 . S
C1947 C1945 1.433 . S
C1947 N1950 1.384 . S
C1948 H1939 0.929 . S
C1948 C1940 1.378 . S
C1948 C1943 1.350 . S
C1949 H1936 0.929 1_554 S
C1949 C1941 1.433 . S
C1949 N1951 1.384 . S
N1950 C1946 1.427 . S
N1950 C1947 1.384 . S
N1951 C1943 1.427 . S
N1951 C1949 1.384 . S
H1952 C1958 0.930 . S
H1953 C1962 0.930 . S
H1954 C1967 0.929 . S
H1955 C1965 0.929 . S
H1956 C1960 0.929 . S
H1957 C1966 0.929 . S
C1958 H1952 0.930 . S
C1958 C1959 1.367 . S
C1958 C1966 1.378 . S
C1959 C1958 1.367 . S
C1959 C1967 1.433 . S
C1960 H1956 0.929 . S
C1960 C1962 1.378 . S
C1960 C1964 1.350 . S
C1961 C1964 1.463 . S
C1961 C1966 1.350 . S
C1961 N1969 1.427 . S
C1962 H1953 0.930 . S
C1962 C1960 1.378 . S
C1962 C1963 1.367 . S
C1963 C1962 1.367 . S
C1963 C1965 1.433 . S
C1964 C1960 1.350 . S
C1964 C1961 1.463 . S
C1964 N1968 1.427 . S
C1965 H1955 0.929 . S
C1965 C1963 1.433 . S
C1965 N1968 1.384 . S
C1966 H1957 0.929 . S
C1966 C1958 1.378 . S
C1966 C1961 1.350 . S
C1967 H1954 0.929 . S
C1967 C1959 1.433 . S
C1967 N1969 1.384 . S
N1968 C1964 1.427 . S
N1968 C1965 1.384 . S
N1969 C1961 1.427 . S
N1969 C1967 1.384 . S
H1970 C1976 0.930 . S
H1971 C1980 0.930 . S
H1972 C1985 0.929 . S
H1973 C1983 0.929 . S
H1974 C1978 0.929 . S
H1975 C1984 0.929 . S
C1976 H1970 0.930 . S
C1976 C1977 1.367 . S
C1976 C1984 1.378 . S
C1977 C1976 1.367 . S
C1977 C1985 1.433 . S
C1978 H1974 0.929 . S
C1978 C1980 1.378 . S
C1978 C1982 1.350 . S
C1979 C1982 1.463 . S
C1979 C1984 1.350 . S
C1979 N1987 1.427 . S
C1980 H1971 0.930 . S
C1980 C1978 1.378 . S
C1980 C1981 1.367 . S
C1981 C1980 1.367 . S
C1981 C1983 1.433 . S
C1982 C1978 1.350 . S
C1982 C1979 1.463 . S
C1982 N1986 1.427 . S
C1983 H1973 0.929 . S
C1983 C1981 1.433 . S
C1983 N1986 1.384 . S
C1984 H1975 0.929 . S
C1984 C1976 1.378 . S
C1984 C1979 1.350 . S
C1985 H1972 0.929 . S
C1985 C1977 1.433 . S
C1985 N1987 1.384 . S
N1986 C1982 1.427 . S
N1986 C1983 1.384 . S
N1987 C1979 1.427 . S
N1987 C1985 1.384 . S
H1988 C1994 0.930 . S
H1989 C1998 0.930 . S
H1990 C2003 0.929 . S
H1991 C2001 0.929 . S
H1992 C1996 0.929 . S
H1993 C2002 0.929 . S
C1994 H1988 0.930 . S
C1994 C1995 1.367 . S
C1994 C2002 1.378 . S
C1995 C1994 1.367 . S
C1995 C2003 1.433 . S
C1996 H1992 0.929 . S
C1996 C1998 1.378 . S
C1996 C2000 1.350 . S
C1997 C2000 1.463 . S
C1997 C2002 1.350 . S
C1997 N2005 1.427 . S
C1998 H1989 0.930 . S
C1998 C1996 1.378 . S
C1998 C1999 1.367 . S
C1999 C1998 1.367 . S
C1999 C2001 1.433 . S
C2000 C1996 1.350 . S
C2000 C1997 1.463 . S
C2000 N2004 1.427 . S
C2001 H1991 0.929 . S
C2001 C1999 1.433 . S
C2001 N2004 1.384 . S
C2002 H1993 0.929 . S
C2002 C1994 1.378 . S
C2002 C1997 1.350 . S
C2003 H1990 0.929 . S
C2003 C1995 1.433 . S
C2003 N2005 1.384 . S
N2004 C2000 1.427 . S
N2004 C2001 1.384 . S
N2005 C1997 1.427 . S
N2005 C2003 1.384 . S
H2006 C2012 0.930 . S
H2007 C2016 0.930 . S
H2008 C2021 0.929 . S
H2009 C2019 0.929 . S
H2010 C2014 0.929 . S
H2011 C2020 0.929 . S
C2012 H2006 0.930 . S
C2012 C2013 1.367 . S
C2012 C2020 1.378 . S
C2013 C2012 1.367 . S
C2013 C2021 1.433 . S
C2014 H2010 0.929 . S
C2014 C2016 1.378 . S
C2014 C2018 1.350 . S
C2015 C2018 1.463 . S
C2015 C2020 1.350 . S
C2015 N2023 1.427 . S
C2016 H2007 0.930 . S
C2016 C2014 1.378 . S
C2016 C2017 1.367 . S
C2017 C2016 1.367 . S
C2017 C2019 1.433 . S
C2018 C2014 1.350 . S
C2018 C2015 1.463 . S
C2018 N2022 1.427 . S
C2019 H2009 0.929 . S
C2019 C2017 1.433 . S
C2019 N2022 1.384 . S
C2020 H2011 0.929 . S
C2020 C2012 1.378 . S
C2020 C2015 1.350 . S
C2021 H2008 0.929 . S
C2021 C2013 1.433 . S
C2021 N2023 1.384 . S
N2022 C2018 1.427 . S
N2022 C2019 1.384 . S
N2023 C2015 1.427 . S
N2023 C2021 1.384 . S
H2024 C2030 0.930 . S
H2025 C2034 0.930 . S
H2026 C2039 0.929 . S
H2027 C2037 0.929 . S
H2028 C2032 0.929 . S
H2029 C2038 0.929 . S
C2030 H2024 0.930 . S
C2030 C2031 1.367 . S
C2030 C2038 1.378 . S
C2031 C2030 1.367 . S
C2031 C2039 1.433 1_556 S
C2032 H2028 0.929 . S
C2032 C2034 1.378 . S
C2032 C2036 1.350 1_554 S
C2033 C2036 1.463 . S
C2033 C2038 1.350 . S
C2033 N2041 1.427 1_556 S
C2034 H2025 0.930 . S
C2034 C2032 1.378 . S
C2034 C2035 1.367 1_554 S
C2035 C2034 1.367 1_556 S
C2035 C2037 1.433 . S
C2036 C2032 1.350 1_556 S
C2036 C2033 1.463 . S
C2036 N2040 1.427 . S
C2037 H2027 0.929 . S
C2037 C2035 1.433 . S
C2037 N2040 1.384 . S
C2038 H2029 0.929 . S
C2038 C2030 1.378 . S
C2038 C2033 1.350 . S
C2039 H2026 0.929 . S
C2039 C2031 1.433 1_554 S
C2039 N2041 1.384 . S
N2040 C2036 1.427 . S
N2040 C2037 1.384 . S
N2041 C2033 1.427 1_554 S
N2041 C2039 1.384 . S
H2042 C2048 0.930 . S
H2043 C2052 0.930 . S
H2044 C2057 0.929 . S
H2045 C2055 0.929 . S
H2046 C2050 0.929 . S
H2047 C2056 0.929 . S
C2048 H2042 0.930 . S
C2048 C2049 1.367 . S
C2048 C2056 1.378 . S
C2049 C2048 1.367 . S
C2049 C2057 1.433 . S
C2050 H2046 0.929 . S
C2050 C2052 1.378 . S
C2050 C2054 1.350 . S
C2051 C2054 1.463 . S
C2051 C2056 1.350 . S
C2051 N2059 1.427 . S
C2052 H2043 0.930 . S
C2052 C2050 1.378 . S
C2052 C2053 1.367 . S
C2053 C2052 1.367 . S
C2053 C2055 1.433 . S
C2054 C2050 1.350 . S
C2054 C2051 1.463 . S
C2054 N2058 1.427 . S
C2055 H2045 0.929 . S
C2055 C2053 1.433 . S
C2055 N2058 1.384 . S
C2056 H2047 0.929 . S
C2056 C2048 1.378 . S
C2056 C2051 1.350 . S
C2057 H2044 0.929 . S
C2057 C2049 1.433 . S
C2057 N2059 1.384 . S
N2058 C2054 1.427 . S
N2058 C2055 1.384 . S
N2059 C2051 1.427 . S
N2059 C2057 1.384 . S
H2060 C2066 0.930 1_556 S
H2061 C2070 0.930 . S
H2062 C2075 0.929 . S
H2063 C2073 0.929 . S
H2064 C2068 0.929 . S
H2065 C2074 0.929 1_556 S
C2066 H2060 0.930 1_554 S
C2066 C2067 1.367 . S
C2066 C2074 1.378 . S
C2067 C2066 1.367 . S
C2067 C2075 1.433 . S
C2068 H2064 0.929 . S
C2068 C2070 1.378 . S
C2068 C2072 1.350 . S
C2069 C2072 1.463 . S
C2069 C2074 1.350 . S
C2069 N2077 1.427 . S
C2070 H2061 0.930 . S
C2070 C2068 1.378 . S
C2070 C2071 1.367 . S
C2071 C2070 1.367 . S
C2071 C2073 1.433 1_554 S
C2072 C2068 1.350 . S
C2072 C2069 1.463 . S
C2072 N2076 1.427 1_554 S
C2073 H2063 0.929 . S
C2073 C2071 1.433 1_556 S
C2073 N2076 1.384 . S
C2074 H2065 0.929 1_554 S
C2074 C2066 1.378 . S
C2074 C2069 1.350 . S
C2075 H2062 0.929 . S
C2075 C2067 1.433 . S
C2075 N2077 1.384 . S
N2076 C2072 1.427 1_556 S
N2076 C2073 1.384 . S
N2077 C2069 1.427 . S
N2077 C2075 1.384 . S
H2078 C2084 0.930 . S
H2079 C2088 0.930 . S
H2080 C2093 0.929 . S
H2081 C2091 0.929 . S
H2082 C2086 0.929 . S
H2083 C2092 0.929 . S
C2084 H2078 0.930 . S
C2084 C2085 1.367 . S
C2084 C2092 1.378 1_545 S
C2085 C2084 1.367 . S
C2085 C2093 1.433 . S
C2086 H2082 0.929 . S
C2086 C2088 1.378 . S
C2086 C2090 1.350 . S
C2087 C2090 1.463 . S
C2087 C2092 1.350 . S
C2087 N2095 1.427 1_565 S
C2088 H2079 0.930 . S
C2088 C2086 1.378 . S
C2088 C2089 1.367 . S
C2089 C2088 1.367 . S
C2089 C2091 1.433 . S
C2090 C2086 1.350 . S
C2090 C2087 1.463 . S
C2090 N2094 1.427 . S
C2091 H2081 0.929 . S
C2091 C2089 1.433 . S
C2091 N2094 1.384 . S
C2092 H2083 0.929 . S
C2092 C2084 1.378 1_565 S
C2092 C2087 1.350 . S
C2093 H2080 0.929 . S
C2093 C2085 1.433 . S
C2093 N2095 1.384 . S
N2094 C2090 1.427 . S
N2094 C2091 1.384 . S
N2095 C2087 1.427 1_545 S
N2095 C2093 1.384 . S
C1243 C225 1.580 . S
C1239 C60 1.582 . S
C1261 C284 1.304 . S
C1257 C76 1.301 . S
C1275 C81 1.719 . S
C1279 C401 1.718 . S
C1297 C469 1.626 . S
C1293 C48 1.635 . S
C1315 C548 1.525 . S
C1311 C115 1.524 . S
C1333 C673 1.590 . S
C1329 C136 1.594 . S
C1347 C131 1.335 . S
C1351 C733 1.334 . S
C1369 C841 1.584 . S
C1365 C104 1.568 . S
C1383 C126 1.554 . S
C1387 C937 1.558 . S
C1405 C997 1.432 . S
C1401 C103 1.434 . S
C1419 C120 1.421 . S
C1423 C900 1.425 . S
C1441 C1017 1.410 . S
C1437 C142 1.412 . S
C1455 C82 1.474 . S
C1459 C1085 1.480 . S
C1473 C54 1.868 . S
C1477 C1076 1.875 . S
C1491 C65 1.406 . S
C1495 C1105 1.411 . S
C1509 C71 1.263 . S
C1513 C1113 1.273 . S
C1527 C37 1.603 . S
C1531 C497 1.603 . S
C1545 C158 2.047 . S
C1549 C460 2.042 . S
C1567 C196 1.382 . S
C1563 C169 1.387 . S
C1585 C293 1.230 . S
C1581 C98 1.222 . S
C1599 C49 1.763 1_545 S
C1603 C557 1.783 . S
C1621 C849 1.423 . S
C1617 C125 1.423 . S
C1639 C577 1.389 . S
C1635 C109 1.395 . S
C1657 C761 1.843 . S
C1653 C137 1.836 . S
C1675 C753 1.578 . S
C1671 C159 1.583 . S
C1689 C175 1.301 . S
C1693 C821 1.305 . S
C1707 C92 1.720 . S
C1711 C585 1.719 . S
C1729 C636 1.627 . S
C1725 C147 1.635 . S
C1743 C38 1.529 . S
C1747 C381 1.529 . S
C1765 C489 1.590 . S
C1761 C4 1.594 . S
C1783 C205 1.334 . S
C1779 C21 1.335 . S
C1801 C321 1.587 . S
C1797 C27 1.574 . S
C1815 C16 1.548 . S
C1819 C1025 1.553 . S
C1833 C26 1.433 . S
C1837 C909 1.429 . S
C1851 C43 1.417 . S
C1855 C988 1.423 . S
C1869 C10 1.411 . S
C1873 C929 1.411 . S
C1891 C1173 1.482 . S
C1887 C93 1.477 . S
C1909 C1164 1.875 . S
C1905 C153 1.868 . S
C1927 C1193 1.408 . S
C1923 C164 1.399 . S
C1941 C170 1.263 1_554 S
C1945 C1201 1.273 . S
C1959 C114 1.603 . S
C1963 C665 1.602 . S
C1981 C645 2.038 . S
C1977 C59 2.046 . S
C1999 C724 1.381 . S
C1995 C70 1.386 . S
C2017 C812 1.234 . S
C2013 C87 1.226 . S
C2031 C148 1.765 . S
C2035 C372 1.784 . S
C2053 C313 1.422 . S
C2049 C15 1.419 . S
C2067 C32 1.395 . S
C2071 C409 1.388 . S
C2089 C233 1.840 . S
C2085 C5 1.831 . S
