# Generated by pormake.
# Topology rtl, (3,6)-cn, num edge types: 1
# Building blocks:
#     Node 0, Type 0, BuildingBlock: CUQRIR_clean_linker_1, # of connection points: 3
#     Node 1, Type 0, BuildingBlock: CUQRIR_clean_linker_1, # of connection points: 3
#     Node 2, Type 0, BuildingBlock: CUQRIR_clean_linker_1, # of connection points: 3
#     Node 3, Type 0, BuildingBlock: CUQRIR_clean_linker_1, # of connection points: 3
#     Node 4, Type 1, BuildingBlock: KUMJIN_clean_sbu_1, # of connection points: 6
#     Node 5, Type 1, BuildingBlock: KUMJIN_clean_sbu_1, # of connection points: 6
#     Edge 6, Type (0, 1), BuildingBlock: CIFDUS_clean_linker_0, # of connection points: 2
#     Edge 7, Type (0, 1), BuildingBlock: CIFDUS_clean_linker_0, # of connection points: 2
#     Edge 8, Type (0, 1), BuildingBlock: CIFDUS_clean_linker_0, # of connection points: 2
#     Edge 9, Type (0, 1), BuildingBlock: CIFDUS_clean_linker_0, # of connection points: 2
#     Edge 10, Type (0, 1), BuildingBlock: CIFDUS_clean_linker_0, # of connection points: 2
#     Edge 11, Type (0, 1), BuildingBlock: CIFDUS_clean_linker_0, # of connection points: 2
#     Edge 12, Type (0, 1), BuildingBlock: CIFDUS_clean_linker_0, # of connection points: 2
#     Edge 13, Type (0, 1), BuildingBlock: CIFDUS_clean_linker_0, # of connection points: 2
#     Edge 14, Type (0, 1), BuildingBlock: CIFDUS_clean_linker_0, # of connection points: 2
#     Edge 15, Type (0, 1), BuildingBlock: CIFDUS_clean_linker_0, # of connection points: 2
#     Edge 16, Type (0, 1), BuildingBlock: CIFDUS_clean_linker_0, # of connection points: 2
#     Edge 17, Type (0, 1), BuildingBlock: CIFDUS_clean_linker_0, # of connection points: 2
# Relax obj value: 0.065
# Max RMSD: 0.236
# Mean RMSD: 0.181
data_MOF--net-rtl--node1-KUMJIN_clean_sbu_1--node2-CUQRIR_clean_linker_1--edge1-CIFDUS_clean_linker_0
_symmetry_space_group_name_H-M    P1
_symmetry_Int_Tables_number       1
_symmetry_cell_setting            triclinic
loop_
_symmetry_equiv_pos_as_xyz
'x, y, z'
_cell_length_a     28.655341
_cell_length_b     29.094214
_cell_length_c     22.128654
_cell_angle_alpha  74.329885
_cell_angle_beta   98.787246
_cell_angle_gamma 91.982162
loop_
_atom_site_label
_atom_site_type_symbol
_atom_site_fract_x
_atom_site_fract_y
_atom_site_fract_z
_atom_type_partial_charge
C0 C 0.22598 0.78182 0.98997 0.0
N1 N 0.19654 0.81451 0.99734 0.0
N2 N 0.25496 0.76289 0.04502 0.0
C3 C 0.22502 0.76728 0.92937 0.0
C4 C 0.24147 0.78516 0.08625 0.0
N5 N 0.20579 0.81654 0.05724 0.0
C6 C 0.26559 0.7792 0.15326 0.0
H7 H 0.23643 0.72959 0.93938 0.0
H8 H 0.24931 0.79053 0.90007 0.0
H9 H 0.18921 0.77166 0.90117 0.0
H10 H 0.3033 0.76929 0.15821 0.0
H11 H 0.24791 0.75039 0.18569 0.0
H12 H 0.26319 0.81258 0.16781 0.0
C13 C 0.74349 0.72933 0.7226 0.0
N14 N 0.71913 0.68874 0.71967 0.0
N15 N 0.76434 0.74687 0.6697 0.0
C16 C 0.74497 0.75275 0.77567 0.0
C17 C 0.75186 0.71526 0.63502 0.0
N18 N 0.72472 0.68016 0.66512 0.0
C19 C 0.76631 0.71837 0.57143 0.0
H20 H 0.71197 0.77366 0.76833 0.0
H21 H 0.77507 0.77747 0.77727 0.0
H22 H 0.74699 0.72533 0.82193 0.0
H23 H 0.80071 0.7367 0.56692 0.0
H24 H 0.73909 0.7389 0.5335 0.0
H25 H 0.76896 0.68227 0.56436 0.0
C26 C 0.77171 0.20254 0.15646 0.0
N27 N 0.80501 0.17485 0.14612 0.0
N28 N 0.75979 0.24012 0.10492 0.0
C29 C 0.74987 0.19122 0.21641 0.0
C30 C 0.78798 0.2342 0.06337 0.0
N31 N 0.8154 0.19461 0.08841 0.0
C32 C 0.7898 0.26751 0.99848 0.0
H33 H 0.71234 0.20278 0.20633 0.0
H34 H 0.76964 0.21001 0.2497 0.0
H35 H 0.75189 0.15237 0.24004 0.0
H36 H 0.77815 0.30407 0.99561 0.0
H37 H 0.76675 0.25357 0.96247 0.0
H38 H 0.82613 0.26985 0.98667 0.0
C39 C 0.32081 0.2756 0.43948 0.0
N40 N 0.35145 0.31125 0.44627 0.0
N41 N 0.29866 0.2598 0.49142 0.0
C42 C 0.31471 0.25441 0.38396 0.0
C43 C 0.31678 0.28764 0.52952 0.0
N44 N 0.34932 0.3182 0.50275 0.0
C45 C 0.29898 0.28846 0.5899 0.0
H46 H 0.28504 0.27298 0.34842 0.0
H47 H 0.30623 0.21588 0.39904 0.0
H48 H 0.34704 0.25909 0.36104 0.0
H49 H 0.26178 0.27643 0.58921 0.0
H50 H 0.30124 0.32493 0.59671 0.0
H51 H 0.32101 0.26419 0.6309 0.0
Eu52 Eu 0.04629 0.96452 0.53426 0.0
C53 C 0.95404 0.16183 0.51083 0.0
N54 N 0.99456 0.14425 0.54976 0.0
C55 C 0.03181 0.22025 0.51925 0.0
C56 C 0.95117 0.20969 0.4738 0.0
C57 C 0.03316 0.1725 0.55472 0.0
C58 C 0.99068 0.23894 0.47855 0.0
C59 C 0.87383 0.14848 0.46501 0.0
C60 C 0.91586 0.13132 0.5062 0.0
C61 C 0.87091 0.19616 0.42815 0.0
C62 C 0.90944 0.22665 0.43253 0.0
Eu63 Eu 0.99477 0.06273 0.60441 0.0
N64 N 0.92021 0.08471 0.54084 0.0
C65 C 0.8359 0.11721 0.462 0.0
C66 C 0.88232 0.05497 0.54068 0.0
C67 C 0.83997 0.07048 0.50065 0.0
H68 H 0.06495 0.15823 0.5864 0.0
H69 H 0.8103 0.04647 0.50011 0.0
H70 H 0.97679 0.8682 0.55842 0.0
H71 H 0.23093 0.98392 0.63414 0.0
H72 H 0.88374 0.01966 0.57221 0.0
H73 H 0.80306 0.12903 0.4309 0.0
H74 H 0.15725 0.00785 0.56058 0.0
H75 H 0.06252 0.24258 0.52317 0.0
H76 H 0.83898 0.2098 0.396 0.0
H77 H 0.90667 0.26327 0.40355 0.0
H78 H 0.97864 0.78625 0.6292 0.0
H79 H 0.98986 0.27589 0.45081 0.0
H80 H 0.23778 0.90418 0.71111 0.0
N81 N 0.04624 0.88447 0.59579 0.0
C82 C 0.08669 0.86815 0.63585 0.0
C83 C 1.00918 0.80898 0.63175 0.0
C84 C 0.08925 0.8217 0.67724 0.0
C85 C 1.0081 0.85548 0.59208 0.0
C86 C 0.04978 0.79212 0.67486 0.0
N87 N 0.12088 0.94411 0.59832 0.0
C88 C 0.15886 0.97379 0.59519 0.0
C89 C 0.16693 0.88327 0.67962 0.0
C90 C 0.12506 0.89877 0.63714 0.0
C91 C 0.20503 0.9147 0.67917 0.0
C92 C 0.20119 0.95987 0.63611 0.0
H93 H 0.05035 0.75621 0.70591 0.0
H94 H 0.13319 0.77106 0.75264 0.0
H95 H 0.20113 0.82488 0.75471 0.0
O96 O 0.09143 0.96852 0.46206 0.0
O97 O 0.04692 0.95113 0.6411 0.0
O98 O 0.06222 0.02485 0.6567 0.0
O99 O 0.03648 0.91578 0.47328 0.0
O100 O 0.07725 0.04011 0.50855 0.0
O101 O 0.07286 0.06956 0.59495 0.0
O102 O 0.96235 0.0443 0.6907 0.0
O103 O 0.99255 0.07843 0.49785 0.0
O104 O 0.98234 0.0064 0.47372 0.0
O105 O 0.99721 0.11201 0.66442 0.0
O106 O 0.96222 0.98799 0.62574 0.0
O107 O 0.9678 0.95843 0.53993 0.0
C108 C 0.06498 0.97837 0.67712 0.0
C109 C 0.05768 0.9457 0.37082 0.0
C110 C 0.06975 0.92979 0.27125 0.0
C111 C 0.03879 0.96777 0.23792 0.0
C112 C 0.02686 0.98335 0.33672 0.0
C113 C 0.01743 0.99419 0.27057 0.0
C114 C 0.07889 0.91894 0.33804 0.0
C115 C 0.0902 0.07061 0.54268 0.0
C116 C 0.06942 0.93507 0.44029 0.0
C117 C 0.13071 0.80649 0.72011 0.0
C118 C 0.16942 0.83717 0.72131 0.0
C119 C 0.97721 0.05295 0.45833 0.0
C120 C 0.93196 0.10801 0.71944 0.0
C121 C 0.8945 0.13345 0.797 0.0
C122 C 0.85328 0.14489 0.75239 0.0
C123 C 0.89062 0.12016 0.6754 0.0
C124 C 0.93407 0.11532 0.78013 0.0
C125 C 0.85156 0.1386 0.69181 0.0
C126 C 0.94974 0.95755 0.59149 0.0
C127 C 0.9717 0.08503 0.70367 0.0
H128 H 0.03067 0.9767 0.18665 0.0
H129 H 1.01046 0.00451 0.36117 0.0
H130 H 0.99358 0.02328 0.2445 0.0
H131 H 0.10323 0.89031 0.36454 0.0
H132 H 0.82251 0.15912 0.76434 0.0
H133 H 0.8882 0.11479 0.62869 0.0
H134 H 0.96582 0.10584 0.81453 0.0
H135 H 0.81972 0.14766 0.65765 0.0
Eu136 Eu 0.47842 0.48657 1.00775 0.0
C137 C 0.65541 0.58626 0.08389 0.0
N138 N 0.63943 0.54414 0.1182 0.0
C139 C 0.71571 0.50851 0.13019 0.0
C140 C 0.70155 0.59018 0.06818 0.0
C141 C 0.6698 0.50663 0.14489 0.0
C142 C 0.73134 0.55016 0.09045 0.0
C143 C 0.64212 0.67083 0.03312 0.0
C144 C 0.62629 0.62623 0.06684 0.0
C145 C 0.68728 0.67437 0.01504 0.0
C146 C 0.7169 0.63414 0.03246 0.0
Eu147 Eu 0.55957 0.5436 0.1352 0.0
N148 N 0.58201 0.62129 0.08264 0.0
C149 C 0.61203 0.71048 0.01865 0.0
C150 C 0.55336 0.66012 0.0715 0.0
C151 C 0.56771 0.7052 0.03868 0.0
H152 H 0.65922 0.47579 0.17903 0.0
H153 H 0.54454 0.73579 0.02867 0.0
H154 H 0.37467 0.5413 0.98966 0.0
H155 H 0.51849 0.29479 0.07992 0.0
H156 H 0.51917 0.65607 0.08713 0.0
H157 H 0.62289 0.74538 0.99278 0.0
H158 H 0.53081 0.3795 0.02814 0.0
H159 H 0.73925 0.47814 0.15041 0.0
H160 H 0.69987 0.7082 0.98833 0.0
H161 H 0.75201 0.63763 0.01927 0.0
H162 H 0.29446 0.52172 0.01678 0.0
H163 H 0.76703 0.55167 0.07949 0.0
H164 H 0.44428 0.26972 0.12345 0.0
N165 N 0.40085 0.47055 0.0307 0.0
C166 C 0.39054 0.42433 0.0578 0.0
C167 C 0.32125 0.49407 0.02902 0.0
C168 C 0.34528 0.41148 0.07408 0.0
C169 C 0.36675 0.50514 0.01415 0.0
C170 C 0.31059 0.44714 0.05975 0.0
N171 N 0.46802 0.40335 0.04999 0.0
C172 C 0.50007 0.36958 0.05074 0.0
C173 C 0.4157 0.34155 0.09652 0.0
C174 C 0.42545 0.38992 0.06899 0.0
C175 C 0.45038 0.30724 0.10262 0.0
C176 C 0.4924 0.32125 0.07843 0.0
H177 H 0.27538 0.43871 0.07149 0.0
H178 H 0.30172 0.35317 0.11741 0.0
H179 H 0.36334 0.29188 0.13692 0.0
O180 O 0.45908 0.45099 0.93215 0.0
O181 O 0.45457 0.48502 0.10194 0.0
O182 O 0.52211 0.47374 0.17433 0.0
O183 O 0.45007 0.52731 0.91153 0.0
O184 O 0.55374 0.45794 0.0406 0.0
O185 O 0.57564 0.46579 0.14277 0.0
O186 O 0.53508 0.57202 0.20703 0.0
O187 O 0.55019 0.57792 0.0282 0.0
O188 O 0.55037 0.51524 0.98558 0.0
O189 O 0.60756 0.54977 0.21939 0.0
O190 O 0.48351 0.56939 0.1075 0.0
O191 O 0.46179 0.56363 1.00392 0.0
C192 C 0.47673 0.4665 0.15962 0.0
C193 C 0.46735 0.49618 0.82813 0.0
C194 C 0.46928 0.46917 0.73288 0.0
C195 C 0.50002 0.50672 0.7116 0.0
C196 C 0.49873 0.53304 0.8065 0.0
C197 C 0.51485 0.53821 0.74849 0.0
C198 C 0.45306 0.46426 0.79127 0.0
C199 C 0.57913 0.44479 0.09762 0.0
C200 C 0.44843 0.49053 0.88824 0.0
C201 C 0.3361 0.36366 0.10382 0.0
C202 C 0.37125 0.32879 0.11513 0.0
C203 C 0.56336 0.5587 0.98625 0.0
C204 C 0.57424 0.54333 0.31217 0.0
C205 C 0.58925 0.54864 0.42181 0.0
C206 C 0.5766 0.50044 0.44248 0.0
C207 C 0.56148 0.49537 0.3336 0.0
C208 C 0.58768 0.56993 0.35629 0.0
C209 C 0.56246 0.47415 0.39849 0.0
C210 C 0.45776 0.5826 0.05087 0.0
C211 C 0.57543 0.56565 0.24433 0.0
H212 H 0.51318 0.51119 0.66701 0.0
H213 H 0.51066 0.55791 0.83416 0.0
H214 H 0.53896 0.56673 0.73207 0.0
H215 H 0.42875 0.43586 0.80775 0.0
H216 H 0.57735 0.48327 0.49259 0.0
H217 H 0.55128 0.47436 0.30022 0.0
H218 H 0.59807 0.60686 0.33972 0.0
H219 H 0.55259 0.4371 0.41477 0.0
H220 H 0.2192 0.24073 0.41808 0.0
H221 H 0.30618 0.18889 0.59958 0.0
H222 H 0.24861 0.1269 0.63284 0.0
H223 H 0.17198 0.08852 0.61179 0.0
H224 H 0.08853 0.13389 0.42679 0.0
H225 H 0.14587 0.19675 0.39306 0.0
C226 C 0.22581 0.21534 0.4644 0.0
C227 C 0.26655 0.2201 0.50681 0.0
C228 C 0.19292 0.17871 0.48268 0.0
C229 C 0.27456 0.18681 0.56676 0.0
C230 C 0.24173 0.15119 0.58571 0.0
C231 C 0.16658 0.11217 0.56407 0.0
C232 C 0.12609 0.10699 0.5219 0.0
C233 C 0.20045 0.14716 0.54448 0.0
C234 C 0.11961 0.13728 0.45993 0.0
C235 C 0.15234 0.17324 0.44073 0.0
H236 H 0.32215 0.76134 0.97301 0.0
H237 H 0.26866 0.68352 0.14302 0.0
H238 H 0.32879 0.62145 0.16182 0.0
H239 H 0.39503 0.58816 0.12763 0.0
H240 H 0.44162 0.66082 0.95037 0.0
H241 H 0.38465 0.72552 0.93498 0.0
C242 C 0.32331 0.73044 0.01362 0.0
C243 C 0.29118 0.72702 0.05671 0.0
C244 C 0.35634 0.69389 0.02223 0.0
C245 C 0.29362 0.68732 0.10993 0.0
C246 C 0.32762 0.65165 0.12027 0.0
C247 C 0.39253 0.61828 0.08572 0.0
C248 C 0.42228 0.62026 0.04024 0.0
C249 C 0.35895 0.65443 0.07652 0.0
C250 C 0.41866 0.65878 0.98564 0.0
C251 C 0.38637 0.69573 0.97709 0.0
H252 H 0.84505 0.77346 0.73208 0.0
H253 H 0.74328 0.81781 0.56277 0.0
H254 H 0.79221 0.88643 0.52155 0.0
H255 H 0.86588 0.93269 0.5322 0.0
H256 H 0.96305 0.89365 0.70678 0.0
H257 H 0.91431 0.82479 0.74787 0.0
C258 C 0.83309 0.79891 0.68701 0.0
C259 C 0.79056 0.79057 0.6505 0.0
C260 C 0.86094 0.83909 0.66436 0.0
C261 C 0.77601 0.82334 0.59146 0.0
C262 C 0.804 0.86255 0.5679 0.0
C263 C 0.87605 0.90913 0.57932 0.0
C264 C 0.91811 0.91782 0.6163 0.0
C265 C 0.84687 0.87053 0.60353 0.0
C266 C 0.93074 0.88757 0.67761 0.0
C267 C 0.90293 0.84816 0.70103 0.0
H268 H 0.7412 0.28792 0.1884 0.0
H269 H 0.69568 0.27317 0.99962 0.0
H270 H 0.64044 0.33945 0.97814 0.0
H271 H 0.6061 0.40208 1.01274 0.0
H272 H 0.63181 0.39849 0.21147 0.0
H273 H 0.69386 0.33871 0.22985 0.0
C274 C 0.71838 0.29815 0.14317 0.0
C275 C 0.72398 0.27645 0.09497 0.0
C276 C 0.68341 0.3333 0.13301 0.0
C277 C 0.69402 0.29074 0.0365 0.0
C278 C 0.66187 0.32822 0.02446 0.0
C279 C 0.62416 0.38754 0.06062 0.0
C280 C 0.61461 0.40583 0.11027 0.0
C281 C 0.6565 0.34995 0.07229 0.0
C282 C 0.63923 0.38646 0.17167 0.0
C283 C 0.67445 0.35181 0.18247 0.0
H284 H 0.16102 0.78251 0.15754 0.0
H285 H 0.19458 0.91245 0.02438 0.0
H286 H 0.15337 0.95929 0.07703 0.0
H287 H 0.11057 0.9632 0.16416 0.0
H288 H 0.08012 0.83295 0.30041 0.0
H289 H 0.11822 0.78632 0.24467 0.0
C290 C 0.15911 0.82109 0.14027 0.0
C291 C 0.18004 0.84408 0.08669 0.0
C292 C 0.13646 0.84766 0.17192 0.0
C293 C 0.17755 0.894 0.0644 0.0
C294 C 0.15449 0.92074 0.09503 0.0
C295 C 0.11189 0.92458 0.18129 0.0
C296 C 0.09253 0.90163 0.23648 0.0
C297 C 0.13405 0.89796 0.14911 0.0
C298 C 0.09519 0.85157 0.25855 0.0
C299 C 0.11675 0.82485 0.22649 0.0
H300 H 0.64792 0.71488 0.77123 0.0
H301 H 0.73407 0.59522 0.77691 0.0
H302 H 0.69128 0.54309 0.85632 0.0
H303 H 0.63057 0.53192 0.92734 0.0
H304 H 0.54906 0.65329 0.92847 0.0
H305 H 0.58912 0.70442 0.84506 0.0
C306 C 0.6574 0.67747 0.79025 0.0
C307 C 0.69352 0.65868 0.76717 0.0
C308 C 0.63359 0.64806 0.83773 0.0
C309 C 0.70533 0.61009 0.79212 0.0
C310 C 0.68123 0.58042 0.83821 0.0
C311 C 0.6214 0.56948 0.90884 0.0
C312 C 0.58686 0.58877 0.93398 0.0
C313 C 0.64528 0.59895 0.8615 0.0
C314 C 0.57571 0.63763 0.91014 0.0
C315 C 0.59856 0.6669 0.86232 0.0
H316 H 0.8832 0.19978 0.20869 0.0
H317 H 0.79458 0.07993 0.19488 0.0
H318 H 0.84318 0.02875 0.28911 0.0
H319 H 0.90771 0.02084 0.38039 0.0
H320 H 0.99287 0.14387 0.39455 0.0
H321 H 0.94915 0.19127 0.29563 0.0
C322 C 0.8754 0.16217 0.22603 0.0
C323 C 0.83617 0.14309 0.1955 0.0
C324 C 0.90259 0.13391 0.28056 0.0
C325 C 0.82517 0.09476 0.21798 0.0
C326 C 0.85274 0.06584 0.2718 0.0
C327 C 0.91706 0.05777 0.36107 0.0
C328 C 0.95332 0.07887 0.39482 0.0
C329 C 0.89111 0.08529 0.30424 0.0
C330 C 0.96486 0.1269 0.36972 0.0
C331 C 0.93994 0.15408 0.31308 0.0
H332 H 0.40143 0.29782 0.61757 0.0
H333 H 0.35813 0.41332 0.45205 0.0
H334 H 0.39582 0.47096 0.50702 0.0
H335 H 0.43407 0.48863 0.6066 0.0
H336 H 0.47091 0.37236 0.77436 0.0
H337 H 0.44195 0.31487 0.71502 0.0
C338 C 0.40055 0.33565 0.59368 0.0
C339 C 0.37694 0.35149 0.53121 0.0
C340 C 0.4204 0.36838 0.62651 0.0
C341 C 0.37651 0.4004 0.49998 0.0
C342 C 0.39758 0.43328 0.53169 0.0
C343 C 0.43621 0.45067 0.6298 0.0
C344 C 0.45427 0.43473 0.69491 0.0
C345 C 0.41859 0.41777 0.59557 0.0
C346 C 0.45658 0.38548 0.72456 0.0
C347 C 0.44022 0.35261 0.69061 0.0
H348 H 0.64575 0.69752 0.58193 0.0
H349 H 0.74975 0.58921 0.67863 0.0
H350 H 0.71345 0.53602 0.61587 0.0
H351 H 0.65667 0.52386 0.52586 0.0
H352 H 0.55797 0.63614 0.42129 0.0
H353 H 0.58745 0.68459 0.49371 0.0
C354 C 0.65933 0.66169 0.59008 0.0
C355 C 0.69892 0.64623 0.63637 0.0
C356 C 0.63978 0.63261 0.55135 0.0
C357 C 0.71793 0.60072 0.64525 0.0
C358 C 0.69765 0.57077 0.60859 0.0
C359 C 0.64123 0.55866 0.51961 0.0
C360 C 0.60524 0.57648 0.46835 0.0
C361 C 0.65917 0.58674 0.56054 0.0
C362 C 0.58595 0.62189 0.46013 0.0
C363 C 0.60269 0.6495 0.50161 0.0
H364 H 0.89327 0.216 0.03149 0.0
H365 H 0.77959 0.11586 0.06074 0.0
H366 H 0.79816 0.08286 0.97643 0.0
H367 H 0.83837 0.09177 0.88346 0.0
H368 H 0.95145 0.19269 0.85167 0.0
H369 H 0.9419 0.21643 0.94748 0.0
C370 C 0.87351 0.18624 0.02002 0.0
C371 C 0.83479 0.16857 0.05117 0.0
C372 C 0.8838 0.16838 0.97037 0.0
C373 C 0.80953 0.12971 0.03704 0.0
C374 C 0.81984 0.11129 0.9885 0.0
C375 C 0.86151 0.11821 0.89848 0.0
C376 C 0.8952 0.14089 0.86068 0.0
C377 C 0.85556 0.13172 0.95312 0.0
C378 C 0.92531 0.17486 0.88036 0.0
C379 C 0.91965 0.18856 0.93484 0.0
H380 H 0.32336 0.37228 0.3332 0.0
H381 H 0.44654 0.30782 0.46011 0.0
H382 H 0.49757 0.35026 0.38308 0.0
H383 H 0.50635 0.40461 0.27722 0.0
H384 H 0.38228 0.47492 0.15663 0.0
H385 H 0.33251 0.43115 0.23215 0.0
C386 C 0.36139 0.36768 0.34355 0.0
C387 C 0.38139 0.3368 0.40149 0.0
C388 C 0.39026 0.39298 0.29972 0.0
C389 C 0.43066 0.33136 0.41541 0.0
C390 C 0.45967 0.35559 0.37142 0.0
C391 C 0.46851 0.4107 0.26783 0.0
C392 C 0.4481 0.44205 0.20995 0.0
C393 C 0.43987 0.38645 0.31309 0.0
C394 C 0.39894 0.44966 0.19921 0.0
C395 C 0.37033 0.42497 0.24287 0.0
H396 H 0.21181 0.90061 0.92381 0.0
H397 H 0.10859 0.78964 0.95797 0.0
H398 H 0.05756 0.83084 0.85969 0.0
H399 H 0.04548 0.8963 0.76104 0.0
H400 H 0.14642 0.01051 0.73119 0.0
H401 H 0.19555 0.97071 0.83117 0.0
C402 C 0.17734 0.88665 0.91048 0.0
C403 C 0.16301 0.8431 0.94794 0.0
C404 C 0.14843 0.91078 0.85464 0.0
C405 C 0.11927 0.82386 0.92996 0.0
C406 C 0.09058 0.84711 0.87373 0.0
C407 C 0.07795 0.91261 0.77702 0.0
C408 C 0.09255 0.95605 0.73926 0.0
C409 C 0.10521 0.89022 0.83521 0.0
C410 C 0.13451 0.97718 0.76006 0.0
C411 C 0.1626 0.95441 0.81696 0.0
loop_
_geom_bond_atom_site_label_1
_geom_bond_atom_site_label_2
_geom_bond_distance
_geom_bond_site_symmetry_2
_ccdc_geom_bond_type
C0 N1 1.317 . S
C0 N2 1.348 1_556 S
C0 C3 1.485 . S
N1 C0 1.317 . S
N1 N5 1.370 1_556 S
N2 C0 1.348 1_554 S
N2 C4 1.346 . S
C3 C0 1.485 . S
C3 H7 0.960 . S
C3 H8 0.961 . S
C3 H9 0.960 . S
C4 N2 1.346 . S
C4 N5 1.307 . S
C4 C6 1.486 . S
N5 N1 1.370 1_554 S
N5 C4 1.307 . S
C6 C4 1.486 . S
C6 H10 0.960 . S
C6 H11 0.960 . S
C6 H12 0.959 . S
H7 C3 0.960 . S
H8 C3 0.961 . S
H9 C3 0.960 . S
H10 C6 0.960 . S
H11 C6 0.960 . S
H12 C6 0.959 . S
C13 N14 1.317 . S
C13 N15 1.348 . S
C13 C16 1.485 . S
N14 C13 1.317 . S
N14 N18 1.370 . S
N15 C13 1.348 . S
N15 C17 1.346 . S
C16 C13 1.485 . S
C16 H20 0.960 . S
C16 H21 0.961 . S
C16 H22 0.960 . S
C17 N15 1.346 . S
C17 N18 1.307 . S
C17 C19 1.486 . S
N18 N14 1.370 . S
N18 C17 1.307 . S
C19 C17 1.486 . S
C19 H23 0.960 . S
C19 H24 0.960 . S
C19 H25 0.959 . S
H20 C16 0.960 . S
H21 C16 0.961 . S
H22 C16 0.960 . S
H23 C19 0.960 . S
H24 C19 0.960 . S
H25 C19 0.959 . S
C26 N27 1.317 . S
C26 N28 1.348 . S
C26 C29 1.485 . S
N27 C26 1.317 . S
N27 N31 1.370 . S
N28 C26 1.348 . S
N28 C30 1.346 . S
C29 C26 1.485 . S
C29 H33 0.960 . S
C29 H34 0.961 . S
C29 H35 0.960 . S
C30 N28 1.346 . S
C30 N31 1.307 . S
C30 C32 1.486 1_554 S
N31 N27 1.370 . S
N31 C30 1.307 . S
C32 C30 1.486 1_556 S
C32 H36 0.960 . S
C32 H37 0.960 . S
C32 H38 0.959 . S
H33 C29 0.960 . S
H34 C29 0.961 . S
H35 C29 0.960 . S
H36 C32 0.960 . S
H37 C32 0.960 . S
H38 C32 0.959 . S
C39 N40 1.317 . S
C39 N41 1.348 . S
C39 C42 1.485 . S
N40 C39 1.317 . S
N40 N44 1.370 . S
N41 C39 1.348 . S
N41 C43 1.346 . S
C42 C39 1.485 . S
C42 H46 0.960 . S
C42 H47 0.961 . S
C42 H48 0.960 . S
C43 N41 1.346 . S
C43 N44 1.307 . S
C43 C45 1.486 . S
N44 N40 1.370 . S
N44 C43 1.307 . S
C45 C43 1.486 . S
C45 H49 0.960 . S
C45 H50 0.960 . S
C45 H51 0.959 . S
H46 C42 0.960 . S
H47 C42 0.961 . S
H48 C42 0.960 . S
H49 C45 0.960 . S
H50 C45 0.960 . S
H51 C45 0.959 . S
Eu52 N81 2.600 . S
Eu52 N87 2.562 . S
Eu52 O96 2.462 . S
Eu52 O97 2.373 . S
Eu52 O99 2.432 . S
Eu52 O100 2.291 1_565 S
Eu52 O104 2.335 1_465 S
Eu52 O107 2.372 1_455 S
Eu52 C116 2.787 . S
C53 N54 1.365 . S
C53 C56 1.405 . S
C53 C60 1.448 . S
N54 C53 1.365 . S
N54 C57 1.319 1_655 S
N54 Eu63 2.600 . S
C55 C57 1.397 . S
C55 C58 1.367 1_455 S
C55 H75 0.931 . S
C56 C53 1.405 . S
C56 C58 1.403 . S
C56 C62 1.439 . S
C57 N54 1.319 1_455 S
C57 C55 1.397 . S
C57 H68 0.930 . S
C58 C55 1.367 1_655 S
C58 C56 1.403 . S
C58 H79 0.929 . S
C59 C60 1.430 . S
C59 C61 1.387 . S
C59 C65 1.404 . S
C60 C53 1.448 . S
C60 C59 1.430 . S
C60 N64 1.351 . S
C61 C59 1.387 . S
C61 C62 1.374 . S
C61 H76 0.931 . S
C62 C56 1.439 . S
C62 C61 1.374 . S
C62 H77 0.931 . S
Eu63 N54 2.600 . S
Eu63 N64 2.562 . S
Eu63 O98 2.335 1_655 S
Eu63 O101 2.372 1_655 S
Eu63 O102 2.462 . S
Eu63 O103 2.373 . S
Eu63 O105 2.432 . S
Eu63 O106 2.291 1_545 S
Eu63 C127 2.787 . S
N64 C60 1.351 . S
N64 Eu63 2.562 . S
N64 C66 1.325 . S
C65 C59 1.404 . S
C65 C67 1.366 . S
C65 H73 0.930 . S
C66 N64 1.325 . S
C66 C67 1.416 . S
C66 H72 0.929 . S
C67 C65 1.366 . S
C67 C66 1.416 . S
C67 H69 0.930 . S
H68 C57 0.930 . S
H69 C67 0.930 . S
H70 C85 0.930 1_655 S
H71 C92 0.930 . S
H72 C66 0.929 . S
H73 C65 0.930 . S
H74 C88 0.929 . S
H75 C55 0.931 . S
H76 C61 0.931 . S
H77 C62 0.931 . S
H78 C83 0.931 1_655 S
H79 C58 0.929 . S
H80 C91 0.930 . S
N81 Eu52 2.600 . S
N81 C82 1.365 . S
N81 C85 1.319 . S
C82 N81 1.365 . S
C82 C84 1.405 . S
C82 C90 1.448 . S
C83 H78 0.931 1_455 S
C83 C85 1.397 . S
C83 C86 1.367 . S
C84 C82 1.405 . S
C84 C86 1.403 . S
C84 C117 1.439 . S
C85 H70 0.930 1_455 S
C85 N81 1.319 . S
C85 C83 1.397 . S
C86 C83 1.367 . S
C86 C84 1.403 . S
C86 H93 0.929 . S
N87 Eu52 2.562 . S
N87 C88 1.325 . S
N87 C90 1.351 . S
C88 H74 0.929 . S
C88 N87 1.325 . S
C88 C92 1.416 . S
C89 C90 1.430 . S
C89 C91 1.404 . S
C89 C118 1.387 . S
C90 C82 1.448 . S
C90 N87 1.351 . S
C90 C89 1.430 . S
C91 H80 0.930 . S
C91 C89 1.404 . S
C91 C92 1.366 . S
C92 H71 0.930 . S
C92 C88 1.416 . S
C92 C91 1.366 . S
H93 C86 0.929 . S
H94 C117 0.931 . S
H95 C118 0.931 . S
O96 Eu52 2.462 . S
O96 C116 1.252 . S
O97 Eu52 2.373 . S
O97 C108 1.249 . S
O98 Eu63 2.335 1_455 S
O98 C108 1.264 1_545 S
O99 Eu52 2.432 . S
O99 C116 1.268 . S
O100 Eu52 2.291 1_545 S
O100 C115 1.255 . S
O101 Eu63 2.372 1_455 S
O101 C115 1.257 . S
O102 Eu63 2.462 . S
O102 C127 1.252 . S
O103 Eu63 2.373 . S
O103 C119 1.249 . S
O104 Eu52 2.335 1_645 S
O104 C119 1.264 . S
O105 Eu63 2.432 . S
O105 C127 1.268 . S
O106 Eu63 2.291 1_565 S
O106 C126 1.255 . S
O107 Eu52 2.372 1_655 S
O107 C126 1.257 . S
C108 O97 1.249 . S
C108 O98 1.264 1_565 S
C109 C112 1.382 . S
C109 C114 1.390 . S
C109 C116 1.506 . S
C110 C111 1.398 . S
C110 C114 1.392 . S
C111 C110 1.398 . S
C111 C113 1.372 . S
C111 H128 0.931 . S
C112 C109 1.382 . S
C112 C113 1.390 . S
C112 H129 0.931 . S
C113 C111 1.372 . S
C113 C112 1.390 . S
C113 H130 0.929 . S
C114 C109 1.390 . S
C114 C110 1.392 . S
C114 H131 0.930 . S
C115 O100 1.255 . S
C115 O101 1.257 . S
C116 Eu52 2.787 . S
C116 O96 1.252 . S
C116 O99 1.268 . S
C116 C109 1.506 . S
C117 C84 1.439 . S
C117 H94 0.931 . S
C117 C118 1.374 . S
C118 C89 1.387 . S
C118 H95 0.931 . S
C118 C117 1.374 . S
C119 O103 1.249 . S
C119 O104 1.264 . S
C120 C123 1.382 . S
C120 C124 1.390 . S
C120 C127 1.506 . S
C121 C122 1.398 . S
C121 C124 1.392 . S
C122 C121 1.398 . S
C122 C125 1.372 . S
C122 H132 0.931 . S
C123 C120 1.382 . S
C123 C125 1.390 . S
C123 H133 0.931 . S
C124 C120 1.390 . S
C124 C121 1.392 . S
C124 H134 0.930 . S
C125 C122 1.372 . S
C125 C123 1.390 . S
C125 H135 0.929 . S
C126 O106 1.255 . S
C126 O107 1.257 . S
C127 Eu63 2.787 . S
C127 O102 1.252 . S
C127 O105 1.268 . S
C127 C120 1.506 . S
H128 C111 0.931 . S
H129 C112 0.931 . S
H130 C113 0.929 . S
H131 C114 0.930 . S
H132 C122 0.931 . S
H133 C123 0.931 . S
H134 C124 0.930 . S
H135 C125 0.929 . S
Eu136 N165 2.600 1_556 S
Eu136 N171 2.562 1_556 S
Eu136 O180 2.462 . S
Eu136 O181 2.373 1_556 S
Eu136 O183 2.432 . S
Eu136 O184 2.291 1_556 S
Eu136 O188 2.335 . S
Eu136 O191 2.372 1_556 S
Eu136 C200 2.787 . S
C137 N138 1.365 . S
C137 C140 1.405 . S
C137 C144 1.448 . S
N138 C137 1.365 . S
N138 C141 1.319 . S
N138 Eu147 2.600 . S
C139 C141 1.397 . S
C139 C142 1.367 . S
C139 H159 0.931 . S
C140 C137 1.405 . S
C140 C142 1.403 . S
C140 C146 1.439 . S
C141 N138 1.319 . S
C141 C139 1.397 . S
C141 H152 0.930 . S
C142 C139 1.367 . S
C142 C140 1.403 . S
C142 H163 0.929 . S
C143 C144 1.430 . S
C143 C145 1.387 . S
C143 C149 1.404 . S
C144 C137 1.448 . S
C144 C143 1.430 . S
C144 N148 1.351 . S
C145 C143 1.387 . S
C145 C146 1.374 . S
C145 H160 0.931 . S
C146 C140 1.439 . S
C146 C145 1.374 . S
C146 H161 0.931 . S
Eu147 N138 2.600 . S
Eu147 N148 2.562 . S
Eu147 O182 2.335 . S
Eu147 O185 2.372 . S
Eu147 O186 2.462 . S
Eu147 O187 2.373 . S
Eu147 O189 2.432 . S
Eu147 O190 2.291 . S
Eu147 C211 2.787 . S
N148 C144 1.351 . S
N148 Eu147 2.562 . S
N148 C150 1.325 . S
C149 C143 1.404 . S
C149 C151 1.366 . S
C149 H157 0.930 . S
C150 N148 1.325 . S
C150 C151 1.416 . S
C150 H156 0.929 . S
C151 C149 1.366 . S
C151 C150 1.416 . S
C151 H153 0.930 . S
H152 C141 0.930 . S
H153 C151 0.930 . S
H154 C169 0.930 . S
H155 C176 0.930 . S
H156 C150 0.929 . S
H157 C149 0.930 . S
H158 C172 0.929 . S
H159 C139 0.931 . S
H160 C145 0.931 . S
H161 C146 0.931 . S
H162 C167 0.931 . S
H163 C142 0.929 . S
H164 C175 0.930 . S
N165 Eu136 2.600 1_554 S
N165 C166 1.365 . S
N165 C169 1.319 1_554 S
C166 N165 1.365 . S
C166 C168 1.405 . S
C166 C174 1.448 . S
C167 H162 0.931 . S
C167 C169 1.397 . S
C167 C170 1.367 1_556 S
C168 C166 1.405 . S
C168 C170 1.403 . S
C168 C201 1.439 . S
C169 H154 0.930 . S
C169 N165 1.319 1_556 S
C169 C167 1.397 . S
C170 C167 1.367 1_554 S
C170 C168 1.403 . S
C170 H177 0.929 . S
N171 Eu136 2.562 1_554 S
N171 C172 1.325 . S
N171 C174 1.351 . S
C172 H158 0.929 . S
C172 N171 1.325 . S
C172 C176 1.416 . S
C173 C174 1.430 . S
C173 C175 1.404 . S
C173 C202 1.387 . S
C174 C166 1.448 . S
C174 N171 1.351 . S
C174 C173 1.430 . S
C175 H164 0.930 . S
C175 C173 1.404 . S
C175 C176 1.366 . S
C176 H155 0.930 . S
C176 C172 1.416 . S
C176 C175 1.366 . S
H177 C170 0.929 . S
H178 C201 0.931 . S
H179 C202 0.931 . S
O180 Eu136 2.462 . S
O180 C200 1.252 . S
O181 Eu136 2.373 1_554 S
O181 C192 1.249 . S
O182 Eu147 2.335 . S
O182 C192 1.264 . S
O183 Eu136 2.432 . S
O183 C200 1.268 . S
O184 Eu136 2.291 1_554 S
O184 C199 1.255 . S
O185 Eu147 2.372 . S
O185 C199 1.257 . S
O186 Eu147 2.462 . S
O186 C211 1.252 . S
O187 Eu147 2.373 . S
O187 C203 1.249 1_554 S
O188 Eu136 2.335 . S
O188 C203 1.264 . S
O189 Eu147 2.432 . S
O189 C211 1.268 . S
O190 Eu147 2.291 . S
O190 C210 1.255 . S
O191 Eu136 2.372 1_554 S
O191 C210 1.257 . S
C192 O181 1.249 . S
C192 O182 1.264 . S
C193 C196 1.382 . S
C193 C198 1.390 . S
C193 C200 1.506 . S
C194 C195 1.398 . S
C194 C198 1.392 . S
C195 C194 1.398 . S
C195 C197 1.372 . S
C195 H212 0.931 . S
C196 C193 1.382 . S
C196 C197 1.390 . S
C196 H213 0.931 . S
C197 C195 1.372 . S
C197 C196 1.390 . S
C197 H214 0.929 . S
C198 C193 1.390 . S
C198 C194 1.392 . S
C198 H215 0.930 . S
C199 O184 1.255 . S
C199 O185 1.257 . S
C200 Eu136 2.787 . S
C200 O180 1.252 . S
C200 O183 1.268 . S
C200 C193 1.506 . S
C201 C168 1.439 . S
C201 H178 0.931 . S
C201 C202 1.374 . S
C202 C173 1.387 . S
C202 H179 0.931 . S
C202 C201 1.374 . S
C203 O187 1.249 1_556 S
C203 O188 1.264 . S
C204 C207 1.382 . S
C204 C208 1.390 . S
C204 C211 1.506 . S
C205 C206 1.398 . S
C205 C208 1.392 . S
C206 C205 1.398 . S
C206 C209 1.372 . S
C206 H216 0.931 . S
C207 C204 1.382 . S
C207 C209 1.390 . S
C207 H217 0.931 . S
C208 C204 1.390 . S
C208 C205 1.392 . S
C208 H218 0.930 . S
C209 C206 1.372 . S
C209 C207 1.390 . S
C209 H219 0.929 . S
C210 O190 1.255 . S
C210 O191 1.257 . S
C211 Eu147 2.787 . S
C211 O186 1.252 . S
C211 O189 1.268 . S
C211 C204 1.506 . S
H212 C195 0.931 . S
H213 C196 0.931 . S
H214 C197 0.929 . S
H215 C198 0.930 . S
H216 C206 0.931 . S
H217 C207 0.931 . S
H218 C208 0.930 . S
H219 C209 0.929 . S
H220 C226 0.930 . S
H221 C229 0.930 . S
H222 C230 0.930 . S
H223 C231 0.930 . S
H224 C234 0.930 . S
H225 C235 0.930 . S
C226 H220 0.930 . S
C226 C227 1.355 . S
C226 C228 1.415 . S
C227 C226 1.355 . S
C227 C229 1.419 . S
C228 C226 1.415 . S
C228 C233 1.425 . S
C228 C235 1.409 . S
C229 H221 0.930 . S
C229 C227 1.419 . S
C229 C230 1.362 . S
C230 H222 0.930 . S
C230 C229 1.362 . S
C230 C233 1.409 . S
C231 H223 0.930 . S
C231 C232 1.355 . S
C231 C233 1.415 . S
C232 C231 1.355 . S
C232 C234 1.419 . S
C233 C228 1.425 . S
C233 C230 1.409 . S
C233 C231 1.415 . S
C234 H224 0.930 . S
C234 C232 1.419 . S
C234 C235 1.362 . S
C235 H225 0.930 . S
C235 C228 1.409 . S
C235 C234 1.362 . S
H236 C242 0.930 1_556 S
H237 C245 0.930 . S
H238 C246 0.930 . S
H239 C247 0.930 . S
H240 C250 0.930 1_556 S
H241 C251 0.930 1_556 S
C242 H236 0.930 1_554 S
C242 C243 1.355 . S
C242 C244 1.415 . S
C243 C242 1.355 . S
C243 C245 1.419 . S
C244 C242 1.415 . S
C244 C249 1.425 . S
C244 C251 1.409 . S
C245 H237 0.930 . S
C245 C243 1.419 . S
C245 C246 1.362 . S
C246 H238 0.930 . S
C246 C245 1.362 . S
C246 C249 1.409 . S
C247 H239 0.930 . S
C247 C248 1.355 . S
C247 C249 1.415 . S
C248 C247 1.355 . S
C248 C250 1.419 . S
C249 C244 1.425 . S
C249 C246 1.409 . S
C249 C247 1.415 . S
C250 H240 0.930 1_554 S
C250 C248 1.419 . S
C250 C251 1.362 . S
C251 H241 0.930 1_554 S
C251 C244 1.409 . S
C251 C250 1.362 . S
H252 C258 0.930 . S
H253 C261 0.930 . S
H254 C262 0.930 . S
H255 C263 0.930 . S
H256 C266 0.930 . S
H257 C267 0.930 . S
C258 H252 0.930 . S
C258 C259 1.355 . S
C258 C260 1.415 . S
C259 C258 1.355 . S
C259 C261 1.419 . S
C260 C258 1.415 . S
C260 C265 1.425 . S
C260 C267 1.409 . S
C261 H253 0.930 . S
C261 C259 1.419 . S
C261 C262 1.362 . S
C262 H254 0.930 . S
C262 C261 1.362 . S
C262 C265 1.409 . S
C263 H255 0.930 . S
C263 C264 1.355 . S
C263 C265 1.415 . S
C264 C263 1.355 . S
C264 C266 1.419 . S
C265 C260 1.425 . S
C265 C262 1.409 . S
C265 C263 1.415 . S
C266 H256 0.930 . S
C266 C264 1.419 . S
C266 C267 1.362 . S
C267 H257 0.930 . S
C267 C260 1.409 . S
C267 C266 1.362 . S
H268 C274 0.930 . S
H269 C277 0.930 . S
H270 C278 0.930 1_556 S
H271 C279 0.930 . S
H272 C282 0.930 . S
H273 C283 0.930 . S
C274 H268 0.930 . S
C274 C275 1.355 . S
C274 C276 1.415 . S
C275 C274 1.355 . S
C275 C277 1.419 . S
C276 C274 1.415 . S
C276 C281 1.425 . S
C276 C283 1.409 . S
C277 H269 0.930 . S
C277 C275 1.419 . S
C277 C278 1.362 . S
C278 H270 0.930 1_554 S
C278 C277 1.362 . S
C278 C281 1.409 . S
C279 H271 0.930 . S
C279 C280 1.355 . S
C279 C281 1.415 . S
C280 C279 1.355 . S
C280 C282 1.419 . S
C281 C276 1.425 . S
C281 C278 1.409 . S
C281 C279 1.415 . S
C282 H272 0.930 . S
C282 C280 1.419 . S
C282 C283 1.362 . S
C283 H273 0.930 . S
C283 C276 1.409 . S
C283 C282 1.362 . S
H284 C290 0.930 . S
H285 C293 0.930 . S
H286 C294 0.930 . S
H287 C295 0.930 . S
H288 C298 0.930 . S
H289 C299 0.930 . S
C290 H284 0.930 . S
C290 C291 1.355 . S
C290 C292 1.415 . S
C291 C290 1.355 . S
C291 C293 1.419 . S
C292 C290 1.415 . S
C292 C297 1.425 . S
C292 C299 1.409 . S
C293 H285 0.930 . S
C293 C291 1.419 . S
C293 C294 1.362 . S
C294 H286 0.930 . S
C294 C293 1.362 . S
C294 C297 1.409 . S
C295 H287 0.930 . S
C295 C296 1.355 . S
C295 C297 1.415 . S
C296 C295 1.355 . S
C296 C298 1.419 . S
C297 C292 1.425 . S
C297 C294 1.409 . S
C297 C295 1.415 . S
C298 H288 0.930 . S
C298 C296 1.419 . S
C298 C299 1.362 . S
C299 H289 0.930 . S
C299 C292 1.409 . S
C299 C298 1.362 . S
H300 C306 0.930 . S
H301 C309 0.930 . S
H302 C310 0.930 . S
H303 C311 0.930 . S
H304 C314 0.930 . S
H305 C315 0.930 . S
C306 H300 0.930 . S
C306 C307 1.355 . S
C306 C308 1.415 . S
C307 C306 1.355 . S
C307 C309 1.419 . S
C308 C306 1.415 . S
C308 C313 1.425 . S
C308 C315 1.409 . S
C309 H301 0.930 . S
C309 C307 1.419 . S
C309 C310 1.362 . S
C310 H302 0.930 . S
C310 C309 1.362 . S
C310 C313 1.409 . S
C311 H303 0.930 . S
C311 C312 1.355 . S
C311 C313 1.415 . S
C312 C311 1.355 . S
C312 C314 1.419 . S
C313 C308 1.425 . S
C313 C310 1.409 . S
C313 C311 1.415 . S
C314 H304 0.930 . S
C314 C312 1.419 . S
C314 C315 1.362 . S
C315 H305 0.930 . S
C315 C308 1.409 . S
C315 C314 1.362 . S
H316 C322 0.930 . S
H317 C325 0.930 . S
H318 C326 0.930 . S
H319 C327 0.930 . S
H320 C330 0.930 . S
H321 C331 0.930 . S
C322 H316 0.930 . S
C322 C323 1.355 . S
C322 C324 1.415 . S
C323 C322 1.355 . S
C323 C325 1.419 . S
C324 C322 1.415 . S
C324 C329 1.425 . S
C324 C331 1.409 . S
C325 H317 0.930 . S
C325 C323 1.419 . S
C325 C326 1.362 . S
C326 H318 0.930 . S
C326 C325 1.362 . S
C326 C329 1.409 . S
C327 H319 0.930 . S
C327 C328 1.355 . S
C327 C329 1.415 . S
C328 C327 1.355 . S
C328 C330 1.419 . S
C329 C324 1.425 . S
C329 C326 1.409 . S
C329 C327 1.415 . S
C330 H320 0.930 . S
C330 C328 1.419 . S
C330 C331 1.362 . S
C331 H321 0.930 . S
C331 C324 1.409 . S
C331 C330 1.362 . S
H332 C338 0.930 . S
H333 C341 0.930 . S
H334 C342 0.930 . S
H335 C343 0.930 . S
H336 C346 0.930 . S
H337 C347 0.930 . S
C338 H332 0.930 . S
C338 C339 1.355 . S
C338 C340 1.415 . S
C339 C338 1.355 . S
C339 C341 1.419 . S
C340 C338 1.415 . S
C340 C345 1.425 . S
C340 C347 1.409 . S
C341 H333 0.930 . S
C341 C339 1.419 . S
C341 C342 1.362 . S
C342 H334 0.930 . S
C342 C341 1.362 . S
C342 C345 1.409 . S
C343 H335 0.930 . S
C343 C344 1.355 . S
C343 C345 1.415 . S
C344 C343 1.355 . S
C344 C346 1.419 . S
C345 C340 1.425 . S
C345 C342 1.409 . S
C345 C343 1.415 . S
C346 H336 0.930 . S
C346 C344 1.419 . S
C346 C347 1.362 . S
C347 H337 0.930 . S
C347 C340 1.409 . S
C347 C346 1.362 . S
H348 C354 0.930 . S
H349 C357 0.930 . S
H350 C358 0.930 . S
H351 C359 0.930 . S
H352 C362 0.930 . S
H353 C363 0.930 . S
C354 H348 0.930 . S
C354 C355 1.355 . S
C354 C356 1.415 . S
C355 C354 1.355 . S
C355 C357 1.419 . S
C356 C354 1.415 . S
C356 C361 1.425 . S
C356 C363 1.409 . S
C357 H349 0.930 . S
C357 C355 1.419 . S
C357 C358 1.362 . S
C358 H350 0.930 . S
C358 C357 1.362 . S
C358 C361 1.409 . S
C359 H351 0.930 . S
C359 C360 1.355 . S
C359 C361 1.415 . S
C360 C359 1.355 . S
C360 C362 1.419 . S
C361 C356 1.425 . S
C361 C358 1.409 . S
C361 C359 1.415 . S
C362 H352 0.930 . S
C362 C360 1.419 . S
C362 C363 1.362 . S
C363 H353 0.930 . S
C363 C356 1.409 . S
C363 C362 1.362 . S
H364 C370 0.930 . S
H365 C373 0.930 . S
H366 C374 0.930 . S
H367 C375 0.930 . S
H368 C378 0.930 . S
H369 C379 0.930 1_554 S
C370 H364 0.930 . S
C370 C371 1.355 . S
C370 C372 1.415 1_554 S
C371 C370 1.355 . S
C371 C373 1.419 1_554 S
C372 C370 1.415 1_556 S
C372 C377 1.425 . S
C372 C379 1.409 . S
C373 H365 0.930 . S
C373 C371 1.419 1_556 S
C373 C374 1.362 . S
C374 H366 0.930 . S
C374 C373 1.362 . S
C374 C377 1.409 . S
C375 H367 0.930 . S
C375 C376 1.355 . S
C375 C377 1.415 . S
C376 C375 1.355 . S
C376 C378 1.419 . S
C377 C372 1.425 . S
C377 C374 1.409 . S
C377 C375 1.415 . S
C378 H368 0.930 . S
C378 C376 1.419 . S
C378 C379 1.362 . S
C379 H369 0.930 1_556 S
C379 C372 1.409 . S
C379 C378 1.362 . S
H380 C386 0.930 . S
H381 C389 0.930 . S
H382 C390 0.930 . S
H383 C391 0.930 . S
H384 C394 0.930 . S
H385 C395 0.930 . S
C386 H380 0.930 . S
C386 C387 1.355 . S
C386 C388 1.415 . S
C387 C386 1.355 . S
C387 C389 1.419 . S
C388 C386 1.415 . S
C388 C393 1.425 . S
C388 C395 1.409 . S
C389 H381 0.930 . S
C389 C387 1.419 . S
C389 C390 1.362 . S
C390 H382 0.930 . S
C390 C389 1.362 . S
C390 C393 1.409 . S
C391 H383 0.930 . S
C391 C392 1.355 . S
C391 C393 1.415 . S
C392 C391 1.355 . S
C392 C394 1.419 . S
C393 C388 1.425 . S
C393 C390 1.409 . S
C393 C391 1.415 . S
C394 H384 0.930 . S
C394 C392 1.419 . S
C394 C395 1.362 . S
C395 H385 0.930 . S
C395 C388 1.409 . S
C395 C394 1.362 . S
H396 C402 0.930 . S
H397 C405 0.930 . S
H398 C406 0.930 . S
H399 C407 0.930 . S
H400 C410 0.930 1_545 S
H401 C411 0.930 . S
C402 H396 0.930 . S
C402 C403 1.355 . S
C402 C404 1.415 . S
C403 C402 1.355 . S
C403 C405 1.419 . S
C404 C402 1.415 . S
C404 C409 1.425 . S
C404 C411 1.409 . S
C405 H397 0.930 . S
C405 C403 1.419 . S
C405 C406 1.362 . S
C406 H398 0.930 . S
C406 C405 1.362 . S
C406 C409 1.409 . S
C407 H399 0.930 . S
C407 C408 1.355 . S
C407 C409 1.415 . S
C408 C407 1.355 . S
C408 C410 1.419 . S
C409 C404 1.425 . S
C409 C406 1.409 . S
C409 C407 1.415 . S
C410 H400 0.930 1_565 S
C410 C408 1.419 . S
C410 C411 1.362 . S
C411 H401 0.930 . S
C411 C404 1.409 . S
C411 C410 1.362 . S
C232 C115 1.656 . S
C227 N41 1.676 . S
C243 N2 1.616 . S
C248 C210 1.607 . S
C259 N15 1.671 . S
C264 C126 1.663 . S
C275 N28 1.630 . S
C280 C199 1.602 . S
C296 C110 1.323 . S
C291 N5 1.590 . S
C312 C203 1.655 . S
C307 N14 1.646 . S
C323 N27 1.592 . S
C328 C119 1.599 . S
C339 N44 1.548 . S
C344 C194 1.426 . S
C360 C205 1.466 . S
C355 N18 1.555 . S
C376 C121 1.383 . S
C371 N31 1.575 . S
C392 C192 1.650 . S
C387 N40 1.653 . S
C403 N1 1.588 . S
C408 C108 1.603 . S
