# Generated by pormake.
# Topology wbl, (4,4)-cn, num edge types: 1
# Building blocks:
#     Node 0, Type 0, BuildingBlock: NAWXER_clean_linker_0, # of connection points: 4
#     Node 1, Type 0, BuildingBlock: NAWXER_clean_linker_0, # of connection points: 4
#     Node 2, Type 0, BuildingBlock: NAWXER_clean_linker_0, # of connection points: 4
#     Node 3, Type 0, BuildingBlock: NAWXER_clean_linker_0, # of connection points: 4
#     Node 4, Type 0, BuildingBlock: NAWXER_clean_linker_0, # of connection points: 4
#     Node 5, Type 0, BuildingBlock: NAWXER_clean_linker_0, # of connection points: 4
#     Node 6, Type 0, BuildingBlock: NAWXER_clean_linker_0, # of connection points: 4
#     Node 7, Type 0, BuildingBlock: NAWXER_clean_linker_0, # of connection points: 4
#     Node 8, Type 1, BuildingBlock: TATPOV_clean_sbu_0, # of connection points: 4
#     Node 9, Type 1, BuildingBlock: TATPOV_clean_sbu_0, # of connection points: 4
#     Node 10, Type 1, BuildingBlock: TATPOV_clean_sbu_0, # of connection points: 4
#     Node 11, Type 1, BuildingBlock: TATPOV_clean_sbu_0, # of connection points: 4
#     Node 12, Type 1, BuildingBlock: TATPOV_clean_sbu_0, # of connection points: 4
#     Node 13, Type 1, BuildingBlock: TATPOV_clean_sbu_0, # of connection points: 4
#     Node 14, Type 1, BuildingBlock: TATPOV_clean_sbu_0, # of connection points: 4
#     Node 15, Type 1, BuildingBlock: TATPOV_clean_sbu_0, # of connection points: 4
#     Edge 16, Type (0, 1), BuildingBlock: ZUJKAS_clean_linker_0, # of connection points: 2
#     Edge 17, Type (0, 1), BuildingBlock: ZUJKAS_clean_linker_0, # of connection points: 2
#     Edge 18, Type (0, 1), BuildingBlock: ZUJKAS_clean_linker_0, # of connection points: 2
#     Edge 19, Type (0, 1), BuildingBlock: ZUJKAS_clean_linker_0, # of connection points: 2
#     Edge 20, Type (0, 1), BuildingBlock: ZUJKAS_clean_linker_0, # of connection points: 2
#     Edge 21, Type (0, 1), BuildingBlock: ZUJKAS_clean_linker_0, # of connection points: 2
#     Edge 22, Type (0, 1), BuildingBlock: ZUJKAS_clean_linker_0, # of connection points: 2
#     Edge 23, Type (0, 1), BuildingBlock: ZUJKAS_clean_linker_0, # of connection points: 2
#     Edge 24, Type (0, 1), BuildingBlock: ZUJKAS_clean_linker_0, # of connection points: 2
#     Edge 25, Type (0, 1), BuildingBlock: ZUJKAS_clean_linker_0, # of connection points: 2
#     Edge 26, Type (0, 1), BuildingBlock: ZUJKAS_clean_linker_0, # of connection points: 2
#     Edge 27, Type (0, 1), BuildingBlock: ZUJKAS_clean_linker_0, # of connection points: 2
#     Edge 28, Type (0, 1), BuildingBlock: ZUJKAS_clean_linker_0, # of connection points: 2
#     Edge 29, Type (0, 1), BuildingBlock: ZUJKAS_clean_linker_0, # of connection points: 2
#     Edge 30, Type (0, 1), BuildingBlock: ZUJKAS_clean_linker_0, # of connection points: 2
#     Edge 31, Type (0, 1), BuildingBlock: ZUJKAS_clean_linker_0, # of connection points: 2
#     Edge 32, Type (0, 1), BuildingBlock: ZUJKAS_clean_linker_0, # of connection points: 2
#     Edge 33, Type (0, 1), BuildingBlock: ZUJKAS_clean_linker_0, # of connection points: 2
#     Edge 34, Type (0, 1), BuildingBlock: ZUJKAS_clean_linker_0, # of connection points: 2
#     Edge 35, Type (0, 1), BuildingBlock: ZUJKAS_clean_linker_0, # of connection points: 2
#     Edge 36, Type (0, 1), BuildingBlock: ZUJKAS_clean_linker_0, # of connection points: 2
#     Edge 37, Type (0, 1), BuildingBlock: ZUJKAS_clean_linker_0, # of connection points: 2
#     Edge 38, Type (0, 1), BuildingBlock: ZUJKAS_clean_linker_0, # of connection points: 2
#     Edge 39, Type (0, 1), BuildingBlock: ZUJKAS_clean_linker_0, # of connection points: 2
#     Edge 40, Type (0, 1), BuildingBlock: ZUJKAS_clean_linker_0, # of connection points: 2
#     Edge 41, Type (0, 1), BuildingBlock: ZUJKAS_clean_linker_0, # of connection points: 2
#     Edge 42, Type (0, 1), BuildingBlock: ZUJKAS_clean_linker_0, # of connection points: 2
#     Edge 43, Type (0, 1), BuildingBlock: ZUJKAS_clean_linker_0, # of connection points: 2
#     Edge 44, Type (0, 1), BuildingBlock: ZUJKAS_clean_linker_0, # of connection points: 2
#     Edge 45, Type (0, 1), BuildingBlock: ZUJKAS_clean_linker_0, # of connection points: 2
#     Edge 46, Type (0, 1), BuildingBlock: ZUJKAS_clean_linker_0, # of connection points: 2
#     Edge 47, Type (0, 1), BuildingBlock: ZUJKAS_clean_linker_0, # of connection points: 2
# Relax obj value: 0.173
# Max RMSD: 0.170
# Mean RMSD: 0.138
data_MOF--net-wbl--node1-TATPOV_clean_sbu_0--node2-NAWXER_clean_linker_0--edge1-ZUJKAS_clean_linker_0
_symmetry_space_group_name_H-M    P1
_symmetry_Int_Tables_number       1
_symmetry_cell_setting            triclinic
loop_
_symmetry_equiv_pos_as_xyz
'x, y, z'
_cell_length_a     55.799317
_cell_length_b     55.803352
_cell_length_c     95.375892
_cell_angle_alpha  91.348386
_cell_angle_beta   91.335755
_cell_angle_gamma 90.025026
loop_
_atom_site_label
_atom_site_type_symbol
_atom_site_fract_x
_atom_site_fract_y
_atom_site_fract_z
_atom_type_partial_charge
C0 C 0.12126 0.97566 0.37861 0.0
C1 C 0.13706 0.98418 0.3893 0.0
C2 C 0.10826 0.99166 0.37034 0.0
C3 C 0.11101 0.01651 0.37249 0.0
C4 C 0.14001 0.00907 0.39129 0.0
C5 C 0.127 0.02506 0.38302 0.0
C6 C 0.09559 0.03357 0.36478 0.0
C7 C 0.1421 -0.00069 0.33224 0.0
C8 C 0.1295 0.98431 0.32259 0.0
C9 C 0.12977 0.01479 0.34125 0.0
C10 C 0.10462 0.01556 0.34076 0.0
C11 C 0.10433 0.98527 0.32202 0.0
C12 C 0.09201 0.00096 0.33094 0.0
C13 C 0.09141 0.03211 0.35012 0.0
C14 C 0.02839 0.11847 0.33998 0.0
C15 C 0.01142 0.10814 0.33054 0.0
C16 C 0.04538 0.10416 0.34677 0.0
C17 C 0.04543 0.0792 0.34443 0.0
C18 C 0.012 0.08325 0.3279 0.0
C19 C 0.0289 0.06895 0.33474 0.0
C20 C 0.06271 0.06362 0.35188 0.0
C21 C 0.01532 0.09527 0.38496 0.0
C22 C 0.02737 0.11102 0.39447 0.0
C23 C 0.02816 0.08046 0.37583 0.0
C24 C 0.05331 0.08119 0.37596 0.0
C25 C 0.0526 0.11152 0.39463 0.0
C26 C 0.06543 0.0966 0.38553 0.0
C27 C 0.06703 0.06521 0.36653 0.0
H28 H 0.11821 0.95662 0.37698 0.0
H29 H 0.09544 0.98457 0.36262 0.0
H30 H 0.15223 0.01622 0.39933 0.0
H31 H 0.12925 0.04415 0.38494 0.0
H32 H 0.16149 -0.00118 0.33297 0.0
H33 H 0.13989 0.02625 0.34856 0.0
H34 H 0.0942 0.97406 0.31459 0.0
H35 H 0.07261 0.00146 0.33029 0.0
H36 H 0.02864 0.13764 0.34204 0.0
H37 H 0.05846 0.11261 0.35385 0.0
H38 H -0.00096 0.07473 0.32077 0.0
H39 H 0.02872 0.04977 0.3327 0.0
H40 H 0.99595 0.094 0.38476 0.0
H41 H 0.01845 0.06822 0.36878 0.0
H42 H 0.06246 0.12358 0.40171 0.0
H43 H 0.08484 0.09729 0.38586 0.0
N44 N 0.08336 0.0502 0.3724 0.0
N45 N 0.07501 0.04707 0.34425 0.0
C46 C 0.9253 0.5203 0.62324 0.0
C47 C 0.9336 0.50441 0.63349 0.0
C48 C 0.94149 0.53455 0.61612 0.0
C49 C 0.9662 0.53314 0.61919 0.0
C50 C 0.95831 0.50326 0.6366 0.0
C51 C 0.97439 0.5176 0.6296 0.0
C52 C 0.98377 0.54813 0.612 0.0
C53 C 0.95367 0.49585 0.58005 0.0
C54 C 0.94251 0.50619 0.56831 0.0
C55 C 0.96762 0.5098 0.5894 0.0
C56 C 0.97017 0.53452 0.58743 0.0
C57 C 0.94572 0.53074 0.56603 0.0
C58 C 0.95945 0.5448 0.57553 0.0
C59 C 0.98517 0.54936 0.59724 0.0
C60 C 0.08065 0.59632 0.59033 0.0
C61 C 0.07548 0.61306 0.57989 0.0
C62 C 0.06219 0.58412 0.59676 0.0
C63 C 0.03815 0.58858 0.59299 0.0
C64 C 0.05139 0.617 0.57588 0.0
C65 C 0.03292 0.60475 0.58232 0.0
C66 C 0.01853 0.576 0.59994 0.0
C67 C 0.05323 0.62505 0.63246 0.0
C68 C 0.06324 0.61326 0.64407 0.0
C69 C 0.03807 0.61276 0.62289 0.0
C70 C 0.03305 0.58834 0.62461 0.0
C71 C 0.05781 0.58896 0.6459 0.0
C72 C 0.04282 0.57666 0.63628 0.0
C73 C 0.01691 0.57496 0.61468 0.0
H74 H 0.90634 0.52156 0.62064 0.0
H75 H 0.93473 0.54674 0.60829 0.0
H76 H 0.9652 0.49151 0.64462 0.0
H77 H 0.99335 0.51638 0.63222 0.0
H78 H 0.95198 0.47684 0.58185 0.0
H79 H 0.97663 0.50114 0.59809 0.0
H80 H 0.93738 0.53908 0.55701 0.0
H81 H 0.96156 0.56375 0.57366 0.0
H82 H 0.09901 0.59246 0.59345 0.0
H83 H 0.0667 0.57117 0.60468 0.0
H84 H 0.04676 0.6299 0.56796 0.0
H85 H 0.01449 0.60826 0.57916 0.0
H86 H 0.0568 0.64388 0.63092 0.0
H87 H 0.03011 0.62242 0.61424 0.0
H88 H 0.06541 0.57936 0.65468 0.0
H89 H 0.03907 0.55788 0.63789 0.0
N90 N -0.00027 0.56092 0.6201 0.0
N91 N 0.00244 0.56336 0.59179 0.0
C92 C 0.55085 0.40547 0.87275 0.0
C93 C 0.56482 0.41457 0.88413 0.0
C94 C 0.53682 0.42088 0.86458 0.0
C95 C 0.53684 0.44568 0.86755 0.0
C96 C 0.565 0.43941 0.88692 0.0
C97 C 0.55111 0.45474 0.87876 0.0
C98 C 0.52086 0.4623 0.85988 0.0
C99 C 0.57168 0.43371 0.82768 0.0
C100 C 0.56063 0.42073 0.81647 0.0
C101 C 0.55797 0.44708 0.83709 0.0
C102 C 0.53291 0.4476 0.83557 0.0
C103 C 0.53552 0.42148 0.8149 0.0
C104 C 0.52181 0.43491 0.82432 0.0
C105 C 0.51837 0.46266 0.84508 0.0
C106 C 0.46736 0.5561 0.83743 0.0
C107 C 0.44837 0.55021 0.82803 0.0
C108 C 0.48153 0.53816 0.84326 0.0
C109 C 0.47691 0.51395 0.8399 0.0
C110 C 0.44449 0.52598 0.82417 0.0
C111 C 0.45874 0.50799 0.83003 0.0
C112 C 0.49066 0.49501 0.84705 0.0
C113 C 0.44135 0.52817 0.87827 0.0
C114 C 0.45337 0.54184 0.88882 0.0
C115 C 0.45407 0.51251 0.86957 0.0
C116 C 0.47904 0.51032 0.87121 0.0
C117 C 0.47832 0.53927 0.89061 0.0
C118 C 0.491 0.52351 0.88194 0.0
C119 C 0.49276 0.49428 0.8618 0.0
H120 H 0.55016 0.38638 0.87044 0.0
H121 H 0.52549 0.41334 0.85623 0.0
H122 H 0.57587 0.44703 0.89547 0.0
H123 H 0.55141 0.47379 0.88128 0.0
H124 H 0.59101 0.43403 0.82901 0.0
H125 H 0.56703 0.4574 0.84539 0.0
H126 H 0.52645 0.41159 0.80643 0.0
H127 H 0.5025 0.43531 0.82287 0.0
H128 H 0.4712 0.5746 0.84034 0.0
H129 H 0.49589 0.54318 0.85058 0.0
H130 H 0.42996 0.52087 0.81699 0.0
H131 H 0.45504 0.4894 0.82724 0.0
H132 H 0.42216 0.52984 0.87662 0.0
H133 H 0.44439 0.50215 0.86153 0.0
H134 H 0.488 0.54931 0.89878 0.0
H135 H 0.51024 0.52192 0.88345 0.0
N136 N 0.50793 0.47815 0.86764 0.0
N137 N 0.50331 0.47902 0.83922 0.0
C138 C 0.50211 0.91919 0.08498 0.0
C139 C 0.48729 0.93008 0.07486 0.0
C140 C 0.52073 0.93206 0.09165 0.0
C141 C 0.52459 0.9562 0.08852 0.0
C142 C 0.49165 0.95402 0.07143 0.0
C143 C 0.51019 0.96694 0.07819 0.0
C144 C 0.54382 0.97026 0.09579 0.0
C145 C 0.49048 0.95157 0.12828 0.0
C146 C 0.49966 0.93681 0.13888 0.0
C147 C 0.50589 0.96276 0.11912 0.0
C148 C 0.53077 0.9591 0.12022 0.0
C149 C 0.52462 0.93364 0.14016 0.0
C150 C 0.54001 0.94476 0.13095 0.0
C151 C 0.54729 0.97076 0.11053 0.0
C152 C 0.61654 0.0508 0.12079 0.0
C153 C 0.63175 0.04107 0.13113 0.0
C154 C 0.60048 0.03615 0.11311 0.0
C155 C 0.59942 0.01147 0.11559 0.0
C156 C 0.63086 0.01631 0.13347 0.0
C157 C 0.61467 0.00168 0.12584 0.0
C158 C 0.58124 0.99621 0.10825 0.0
C159 C 0.63366 0.01865 0.07636 0.0
C160 C 0.62384 0.03401 0.06625 0.0
C161 C 0.61877 0.00587 0.08509 0.0
C162 C 0.59375 0.00834 0.08397 0.0
C163 C 0.59875 0.03577 0.06484 0.0
C164 C 0.58387 0.02294 0.07356 0.0
C165 C 0.57778 0.9957 0.09353 0.0
H166 H 0.49951 0.9006 0.08761 0.0
H167 H 0.53212 0.92313 0.09925 0.0
H168 H 0.48048 0.96287 0.0637 0.0
H169 H 0.513 0.98548 0.07552 0.0
H170 H 0.47139 0.95478 0.12721 0.0
H171 H 0.49835 0.97438 0.11123 0.0
H172 H 0.53225 0.92226 0.14814 0.0
H173 H 0.55915 0.94188 0.13208 0.0
H174 H 0.6169 0.06981 0.11873 0.0
H175 H 0.5885 0.04421 0.10546 0.0
H176 H 0.64215 0.00839 0.14151 0.0
H177 H 0.61391 0.98273 0.12802 0.0
H178 H 0.65289 0.01649 0.07753 0.0
H179 H 0.6268 0.99414 0.09277 0.0
H180 H 0.59056 0.04762 0.05728 0.0
H181 H 0.56461 0.02497 0.07244 0.0
N182 N 0.5591 0.98287 0.08787 0.0
N183 N 0.56598 0.9836 0.11618 0.0
C184 C 0.03499 0.62519 0.89787 0.0
C185 C 0.05033 0.61628 0.88748 0.0
C186 C 0.01954 0.60974 0.90468 0.0
C187 C 0.01914 0.58514 0.90118 0.0
C188 C 0.05003 0.59162 0.88413 0.0
C189 C 0.03448 0.57626 0.89084 0.0
C190 C 0.00186 0.56866 0.90748 0.0
C191 C 0.05423 0.58576 0.94306 0.0
C192 C 0.04498 0.60377 0.95192 0.0
C193 C 0.03931 0.57387 0.93324 0.0
C194 C 0.01489 0.57958 0.93229 0.0
C195 C 0.02053 0.60956 0.95093 0.0
C196 C 0.00546 0.59725 0.94129 0.0
C197 C -0.00072 0.56661 0.92206 0.0
C198 C 0.94462 0.47388 0.92525 0.0
C199 C 0.93173 0.47843 0.93755 0.0
C200 C 0.95739 0.49213 0.919 0.0
C201 C 0.95673 0.51573 0.92447 0.0
C202 C 0.9318 0.50194 0.94327 0.0
C203 C 0.94405 0.52035 0.93677 0.0
C204 C 0.97069 0.53522 0.91811 0.0
C205 C 0.92106 0.50708 0.88372 0.0
C206 C 0.93317 0.49542 0.87274 0.0
C207 C 0.93372 0.52116 0.8937 0.0
C208 C 0.95869 0.5237 0.89287 0.0
C209 C 0.95806 0.49855 0.87176 0.0
C210 C 0.97065 0.51267 0.88168 0.0
C211 C 0.9726 0.53798 0.90346 0.0
H212 H 0.03485 0.64412 0.90067 0.0
H213 H 0.00749 0.61711 0.9124 0.0
H214 H 0.06134 0.58426 0.87603 0.0
H215 H 0.03434 0.55739 0.88789 0.0
H216 H 0.07309 0.5812 0.94357 0.0
H217 H 0.0468 0.56015 0.92642 0.0
H218 H 0.0131 0.62343 0.95767 0.0
H219 H 0.98658 0.60173 0.94069 0.0
H220 H 0.94493 0.45619 0.92036 0.0
H221 H 0.96799 0.48759 0.90997 0.0
H222 H 0.92274 0.50618 0.95293 0.0
H223 H 0.94373 0.53824 0.94143 0.0
H224 H 0.90189 0.50495 0.88473 0.0
H225 H 0.92406 0.52992 0.9021 0.0
H226 H 0.9678 0.49013 0.86328 0.0
H227 H 0.98987 0.51462 0.88076 0.0
N228 N 0.98835 0.55433 0.89875 0.0
N229 N 0.98393 0.54992 0.92685 0.0
C230 C 0.43947 0.51996 0.13406 0.0
C231 C 0.44891 0.53223 0.12271 0.0
C232 C 0.45464 0.50767 0.14328 0.0
C233 C 0.47955 0.50769 0.14144 0.0
C234 C 0.47382 0.53187 0.12078 0.0
C235 C 0.48895 0.51963 0.13001 0.0
C236 C 0.49594 0.49474 0.15106 0.0
C237 C 0.46527 0.555 0.17642 0.0
C238 C 0.44989 0.54771 0.18697 0.0
C239 C 0.47981 0.53838 0.16956 0.0
C240 C 0.47912 0.51408 0.17302 0.0
C241 C 0.44936 0.52339 0.19051 0.0
C242 C 0.46403 0.50674 0.18366 0.0
C243 C 0.49476 0.4966 0.16582 0.0
C244 C 0.5853 0.44705 0.18462 0.0
C245 C 0.57693 0.43358 0.1958 0.0
C246 C 0.56925 0.45881 0.1757 0.0
C247 C 0.54443 0.45696 0.17755 0.0
C248 C 0.55208 0.4325 0.19793 0.0
C249 C 0.53602 0.44414 0.18892 0.0
C250 C 0.52724 0.46903 0.16799 0.0
C251 C 0.5657 0.41446 0.1408 0.0
C252 C 0.57955 0.42502 0.13046 0.0
C253 C 0.54926 0.42821 0.14838 0.0
C254 C 0.54643 0.45271 0.14573 0.0
C255 C 0.57657 0.44952 0.12783 0.0
C256 C 0.56007 0.46317 0.13532 0.0
C257 C 0.52864 0.46751 0.15321 0.0
H258 H 0.42033 0.51955 0.13568 0.0
H259 H 0.44686 0.49798 0.15177 0.0
H260 H 0.48169 0.54137 0.11225 0.0
H261 H 0.50809 0.5198 0.12834 0.0
H262 H 0.46597 0.57357 0.1734 0.0
H263 H 0.49172 0.54455 0.16159 0.0
H264 H 0.4379 0.51733 0.19873 0.0
H265 H 0.46347 0.48811 0.18659 0.0
H266 H 0.60426 0.44816 0.18256 0.0
H267 H 0.57629 0.46931 0.16732 0.0
H268 H 0.54503 0.42268 0.20658 0.0
H269 H 0.51696 0.44286 0.19071 0.0
H270 H 0.56765 0.39562 0.14305 0.0
H271 H 0.53858 0.41966 0.15618 0.0
H272 H 0.58668 0.45806 0.11977 0.0
H273 H 0.55799 0.48199 0.13302 0.0
N274 N 0.51298 0.48044 0.14535 0.0
N275 N 0.51027 0.48349 0.17373 0.0
C276 C 0.51579 0.92395 0.39826 0.0
C277 C 0.50051 0.93106 0.3872 0.0
C278 C 0.5297 0.94089 0.4058 0.0
C279 C 0.52829 0.96529 0.40254 0.0
C280 C 0.4991 0.95549 0.384 0.0
C281 C 0.51293 0.9724 0.39156 0.0
C282 C 0.54382 0.98336 0.40985 0.0
C283 C 0.49434 0.95686 0.4422 0.0
C284 C 0.50568 0.94309 0.45258 0.0
C285 C 0.50784 0.97038 0.43314 0.0
C286 C 0.53296 0.97034 0.4342 0.0
C287 C 0.53085 0.94329 0.45376 0.0
C288 C 0.54437 0.95703 0.44472 0.0
C289 C 0.54718 0.98472 0.42457 0.0
C290 C 0.60228 0.07678 0.43314 0.0
C291 C 0.61996 0.06977 0.44296 0.0
C292 C 0.5873 0.05973 0.42652 0.0
C293 C 0.58998 0.0353 0.4294 0.0
C294 C 0.62203 0.04537 0.44617 0.0
C295 C 0.60711 0.02832 0.43948 0.0
C296 C 0.5747 0.017 0.42219 0.0
C297 C 0.61936 0.05056 0.38916 0.0
C298 C 0.60584 0.0621 0.37866 0.0
C299 C 0.60825 0.03541 0.3985 0.0
C300 C 0.58333 0.03178 0.39769 0.0
C301 C 0.58098 0.05799 0.3777 0.0
C302 C 0.56988 0.04294 0.38708 0.0
C303 C 0.57111 0.01582 0.40746 0.0
H304 H 0.51753 0.90521 0.40082 0.0
H305 H 0.54197 0.93482 0.41392 0.0
H306 H 0.48729 0.96155 0.37564 0.0
H307 H 0.51163 0.99109 0.38881 0.0
H308 H 0.475 0.95689 0.44095 0.0
H309 H 0.49863 0.98092 0.42529 0.0
H310 H 0.54003 0.933 0.46173 0.0
H311 H 0.56374 0.95698 0.4458 0.0
H312 H 0.60026 0.09539 0.43038 0.0
H313 H 0.57373 0.06563 0.41907 0.0
H314 H 0.63511 0.03943 0.4539 0.0
H315 H 0.6092 0.00961 0.44203 0.0
H316 H 0.63853 0.05338 0.39023 0.0
H317 H 0.61914 0.02649 0.40634 0.0
H318 H 0.57009 0.06615 0.36957 0.0
H319 H 0.55069 0.04015 0.38612 0.0
N320 N 0.55576 -0.00092 0.4019 0.0
N321 N 0.56267 0.00134 0.43018 0.0
C322 C 0.14774 0.00822 0.64642 0.0
C323 C 0.1385 0.99472 0.63486 0.0
C324 C 0.13236 0.02148 0.65503 0.0
C325 C 0.1075 0.02123 0.65231 0.0
C326 C 0.11357 0.9942 0.63238 0.0
C327 C 0.0983 0.0074 0.64095 0.0
C328 C 0.09093 0.03663 0.66038 0.0
C329 C 0.11926 0.98304 0.69089 0.0
C330 C 0.13181 0.99292 0.70261 0.0
C331 C 0.10611 0.99769 0.6819 0.0
C332 C 0.10546 0.02259 0.68431 0.0
C333 C 0.13087 0.01783 0.70514 0.0
C334 C 0.11772 0.0325 0.69609 0.0
C335 C 0.0906 0.03805 0.67521 0.0
C336 C 0.99767 0.08942 0.68447 0.0
C337 C 0.00391 0.1071 0.69465 0.0
C338 C 0.01534 0.07568 0.67803 0.0
C339 C 0.03966 0.07953 0.68148 0.0
C340 C 0.02824 0.11027 0.6985 0.0
C341 C 0.04596 0.09648 0.69201 0.0
C342 C 0.05838 0.06607 0.67393 0.0
C343 C 0.02445 0.11661 0.64345 0.0
C344 C 0.01107 0.10485 0.63267 0.0
C345 C 0.04016 0.10372 0.65204 0.0
C346 C 0.0427 0.07884 0.65003 0.0
C347 C 0.014 0.08003 0.63053 0.0
C348 C 0.0298 0.06718 0.63907 0.0
C349 C 0.05895 0.06485 0.65915 0.0
H350 H 0.16687 0.00916 0.64852 0.0
H351 H 0.13995 0.03243 0.66355 0.0
H352 H 0.10583 0.98363 0.62375 0.0
H353 H 0.07919 0.00693 0.63864 0.0
H354 H 0.11911 0.96387 0.68884 0.0
H355 H 0.09604 0.98945 0.67321 0.0
H356 H 0.1404 0.02598 0.71405 0.0
H357 H 0.11718 0.05164 0.69826 0.0
H358 H 0.97916 0.08661 0.68118 0.0
H359 H 0.01002 0.06229 0.67016 0.0
H360 H 0.03359 0.12347 0.70647 0.0
H361 H 0.06461 0.09949 0.69495 0.0
H362 H 0.02251 0.13571 0.64537 0.0
H363 H 0.05032 0.11317 0.66026 0.0
H364 H 0.00421 0.07056 0.62216 0.0
H365 H 0.03167 0.04804 0.63725 0.0
N366 N 0.07505 0.05006 0.65297 0.0
N367 N 0.07436 0.05282 0.68143 0.0
Zn368 Zn 0.29276 0.74363 0.98671 0.0
Zn369 Zn 0.30536 0.71418 0.00829 0.0
O370 O 0.26897 0.71107 0.00749 0.0
O371 O 0.25803 0.73522 0.99056 0.0
O372 O 0.31597 0.69355 0.02427 0.0
O373 O 0.30929 0.7714 0.99718 0.0
O374 O 0.31907 0.74689 0.01412 0.0
C375 C 0.2526 0.7205 0.99992 0.0
C376 C 0.32264 0.70329 0.97855 0.0
O377 O 0.32138 0.6985 0.99149 0.0
O378 O 0.31218 0.72166 0.97378 0.0
C379 C 0.3146 0.67082 0.02347 0.0
O380 O 0.30522 0.66055 0.01207 0.0
C381 C 0.31953 0.76768 0.00892 0.0
Zn382 Zn 0.31276 0.76811 0.28005 0.0
Zn383 Zn 0.33604 0.79531 0.26111 0.0
O384 O 0.30324 0.8115 0.26214 0.0
O385 O 0.28355 0.78926 0.27679 0.0
O386 O 0.35411 0.81452 0.24718 0.0
O387 O 0.31886 0.73856 0.26782 0.0
O388 O 0.33723 0.7612 0.25282 0.0
C389 C 0.2843 0.80713 0.26883 0.0
C390 C 0.35459 0.79292 0.29159 0.0
O391 O 0.35593 0.8003 0.2791 0.0
O392 O 0.33785 0.77884 0.29481 0.0
C393 C 0.34807 0.81464 0.23425 0.0
O394 O 0.3292 0.80226 0.22985 0.0
C395 C 0.33009 0.74066 0.25652 0.0
Zn396 Zn 0.27726 0.77989 0.49378 0.0
Zn397 Zn 0.26831 0.81252 0.51472 0.0
O398 O 0.30464 0.81488 0.51288 0.0
O399 O 0.31275 0.78778 0.49652 0.0
O400 O 0.26078 0.83447 0.53105 0.0
O401 O 0.26099 0.75368 0.50464 0.0
O402 O 0.25413 0.78092 0.52108 0.0
C403 C 0.31974 0.80409 0.50516 0.0
C404 C 0.24787 0.82052 0.48525 0.0
O405 O 0.25051 0.8271 0.49807 0.0
O406 O 0.25722 0.80111 0.48086 0.0
C407 C 0.2617 0.8572 0.53073 0.0
O408 O 0.26847 0.86751 0.51922 0.0
C409 C 0.25215 0.75947 0.51635 0.0
Zn410 Zn 0.26649 0.75693 0.75306 0.0
Zn411 Zn 0.23569 0.74639 0.77368 0.0
O412 O 0.23352 0.78309 0.77306 0.0
O413 O 0.25984 0.79206 0.75714 0.0
O414 O 0.21465 0.73672 0.78946 0.0
O415 O 0.29333 0.73927 0.76303 0.0
O416 O 0.2678 0.7313 0.77951 0.0
C417 C 0.24427 0.79864 0.7659 0.0
C418 C 0.22514 0.72891 0.74355 0.0
O419 O 0.21976 0.73025 0.75645 0.0
O420 O 0.24412 0.73874 0.73941 0.0
C421 C 0.19392 0.74509 0.79184 0.0
O422 O 0.18509 0.76186 0.78377 0.0
C423 C 0.28869 0.72947 0.77449 0.0
Zn424 Zn 0.81133 0.26029 0.53113 0.0
Zn425 Zn 0.84159 0.24879 0.50985 0.0
O426 O 0.84343 0.28541 0.51055 0.0
O427 O 0.81886 0.29518 0.5275 0.0
O428 O 0.86338 0.23877 0.4942 0.0
O429 O 0.78445 0.24312 0.52036 0.0
O430 O 0.80933 0.2344 0.50341 0.0
C431 C 0.83334 0.3013 0.51818 0.0
C432 C 0.8516 0.23156 0.5399 0.0
O433 O 0.85681 0.23299 0.52703 0.0
O434 O 0.83286 0.24162 0.54445 0.0
C435 C 0.88594 0.23718 0.49612 0.0
O436 O 0.89541 0.24311 0.50846 0.0
C437 C 0.78849 0.23332 0.50854 0.0
Zn438 Zn 0.79208 0.28824 0.76628 0.0
Zn439 Zn 0.80127 0.31731 0.7446 0.0
O440 O 0.76454 0.31737 0.7448 0.0
O441 O 0.75668 0.29277 0.76183 0.0
O442 O 0.81002 0.3377 0.72836 0.0
O443 O 0.81126 0.26154 0.75727 0.0
O444 O 0.81843 0.28566 0.73994 0.0
C445 C 0.74945 0.30679 0.75236 0.0
C446 C 0.81743 0.33182 0.77449 0.0
O447 O 0.81576 0.33586 0.76142 0.0
O448 O 0.809 0.31263 0.77926 0.0
C449 C 0.80244 0.35897 0.72678 0.0
O450 O 0.78734 0.3681 0.73582 0.0
C451 C 0.82116 0.26547 0.74574 0.0
Zn452 Zn 0.77497 0.27056 0.02693 0.0
Zn453 Zn 0.74212 0.27865 0.00593 0.0
O454 O 0.74093 0.24224 0.00752 0.0
O455 O 0.76826 0.23485 0.02389 0.0
O456 O 0.71895 0.28597 0.99008 0.0
O457 O 0.80009 0.28854 0.0162 0.0
O458 O 0.77332 0.29335 0.99917 0.0
C459 C 0.75226 0.22741 0.01517 0.0
C460 C 0.73411 0.29864 0.03571 0.0
O461 O 0.72761 0.29601 0.02287 0.0
O462 O 0.75362 0.28954 0.0401 0.0
C463 C 0.7173 0.30771 0.9865 0.0
O464 O 0.73026 0.32398 0.99338 0.0
C465 C 0.79441 0.29653 0.00425 0.0
Zn466 Zn 0.7862 0.23912 0.23825 0.0
Zn467 Zn 0.7578 0.21921 0.25789 0.0
O468 O 0.7432 0.25266 0.25601 0.0
O469 O 0.76678 0.26971 0.24092 0.0
O470 O 0.73908 0.20288 0.27276 0.0
O471 O 0.81574 0.23265 0.25034 0.0
O472 O 0.79211 0.21703 0.26586 0.0
C473 C 0.74884 0.2707 0.24884 0.0
C474 C 0.75872 0.1979 0.228 0.0
O475 O 0.75114 0.19821 0.2405 0.0
O476 O 0.77395 0.21329 0.22434 0.0
C477 C 0.71736 0.20707 0.27572 0.0
O478 O 0.70544 0.22357 0.26886 0.0
C479 C 0.81303 0.2226 0.26197 0.0
H480 H 0.16872 0.99358 0.307 0.0
H481 H 0.19196 0.96502 0.29298 0.0
H482 H 0.14366 0.90828 0.30375 0.0
H483 H 0.1201 0.93687 0.3175 0.0
H484 H 0.21569 0.92777 0.30269 0.0
H485 H 0.14993 0.89458 0.26251 0.0
H486 H 0.14464 0.921 0.27328 0.0
H487 H 0.13905 0.89162 0.27993 0.0
C488 C 0.16294 0.97505 0.30623 0.0
C489 C 0.14263 0.96741 0.31333 0.0
C490 C 0.17615 0.95879 0.29817 0.0
C491 C 0.16935 0.93456 0.2971 0.0
C492 C 0.14886 0.92698 0.30404 0.0
H493 H 0.2406 0.80265 0.28092 0.0
H494 H 0.21144 0.8345 0.2852 0.0
C495 C 0.13549 0.9433 0.31198 0.0
C496 C 0.18502 0.91685 0.28996 0.0
H497 H 0.18506 0.8701 0.26614 0.0
C498 C 0.20907 0.91546 0.29452 0.0
C499 C 0.17638 0.90073 0.27932 0.0
C500 C 0.15115 0.9022 0.27337 0.0
C501 C 0.22445 0.89785 0.28914 0.0
C502 C 0.21559 0.88127 0.27886 0.0
C503 C 0.19173 0.88289 0.27403 0.0
C504 C 0.23065 0.86121 0.27384 0.0
C505 C 0.24986 0.8965 0.29487 0.0
C506 C 0.25053 0.86552 0.26553 0.0
C507 C 0.26724 0.84735 0.26303 0.0
C508 C 0.26436 0.82464 0.26889 0.0
C509 C 0.24346 0.81997 0.27635 0.0
C510 C 0.22673 0.83812 0.27878 0.0
H511 H 0.25291 0.9086 0.30416 0.0
H512 H 0.25424 0.87787 0.29788 0.0
H513 H 0.26243 0.90168 0.28662 0.0
H514 H 0.25372 0.88326 0.26158 0.0
H515 H 0.28307 0.85154 0.2572 0.0
H516 H 0.11564 0.63237 0.59277 0.0
H517 H 0.14756 0.65526 0.5821 0.0
H518 H 0.1117 0.64756 0.54172 0.0
H519 H 0.07985 0.62429 0.55223 0.0
H520 H 0.17816 0.64201 0.55903 0.0
H521 H 0.12061 0.72108 0.54819 0.0
H522 H 0.11226 0.6982 0.56024 0.0
H523 H 0.10909 0.69277 0.54166 0.0
C524 C 0.11466 0.63528 0.58158 0.0
C525 C 0.09512 0.62657 0.57336 0.0
C526 C 0.13287 0.64844 0.57552 0.0
C527 C 0.13182 0.65328 0.56117 0.0
C528 C 0.11261 0.64431 0.55287 0.0
H529 H 0.24131 0.71293 0.50869 0.0
H530 H 0.21357 0.68601 0.52011 0.0
C531 C 0.0944 0.6311 0.5589 0.0
C532 C 0.15062 0.66811 0.55494 0.0
H533 H 0.1599 0.72172 0.53947 0.0
C534 C 0.17423 0.65944 0.55474 0.0
C535 C 0.14541 0.69092 0.54952 0.0
C536 C 0.12053 0.70147 0.54998 0.0
C537 C 0.19277 0.67295 0.54909 0.0
C538 C 0.18744 0.69557 0.54343 0.0
C539 C 0.16388 0.7043 0.54376 0.0
C540 C 0.20602 0.71076 0.53724 0.0
C541 C 0.21796 0.66313 0.54941 0.0
C542 C 0.211 0.73353 0.54312 0.0
C543 C 0.22677 0.74896 0.53663 0.0
C544 C 0.23773 0.74198 0.52404 0.0
C545 C 0.23325 0.71884 0.51839 0.0
C546 C 0.21746 0.70339 0.52493 0.0
H547 H 0.21999 0.64821 0.55685 0.0
H548 H 0.22241 0.6562 0.53879 0.0
H549 H 0.23108 0.67743 0.55241 0.0
H550 H 0.2023 0.73954 0.55261 0.0
H551 H 0.2298 0.76662 0.54129 0.0
H552 H 0.43026 0.58846 0.84266 0.0
H553 H 0.40394 0.62004 0.83393 0.0
H554 H 0.40356 0.58675 0.79267 0.0
H555 H 0.43015 0.55513 0.80128 0.0
H556 H 0.41177 0.65225 0.81205 0.0
H557 H 0.33188 0.59452 0.80152 0.0
H558 H 0.35712 0.58508 0.8122 0.0
H559 H 0.35888 0.58426 0.79341 0.0
C560 C 0.42476 0.58795 0.83169 0.0
C561 C 0.43232 0.5693 0.82265 0.0
C562 C 0.40964 0.60595 0.82675 0.0
C563 C 0.40164 0.60557 0.81271 0.0
C564 C 0.40923 0.58711 0.80361 0.0
H565 H 0.33434 0.71982 0.76609 0.0
H566 H 0.36249 0.69093 0.77605 0.0
C567 C 0.42438 0.56906 0.80854 0.0
C568 C 0.38548 0.62466 0.80762 0.0
H569 H 0.32939 0.63461 0.79399 0.0
C570 C 0.39374 0.64844 0.80811 0.0
C571 C 0.3619 0.61961 0.80268 0.0
C572 C 0.35176 0.59453 0.80251 0.0
C573 C 0.37909 0.66733 0.80359 0.0
C574 C 0.35573 0.66219 0.79831 0.0
C575 C 0.34738 0.63845 0.79799 0.0
C576 C 0.33958 0.68112 0.79298 0.0
C577 C 0.3886 0.69263 0.80469 0.0
C578 C 0.31737 0.68514 0.79921 0.0
C579 C 0.30119 0.70158 0.79353 0.0
C580 C 0.30687 0.71416 0.78143 0.0
C581 C 0.32943 0.71052 0.77544 0.0
C582 C 0.3456 0.69408 0.78114 0.0
H583 H 0.40417 0.69417 0.81214 0.0
H584 H 0.39459 0.69813 0.79423 0.0
H585 H 0.37445 0.7053 0.80814 0.0
H586 H 0.31239 0.67525 0.80834 0.0
H587 H 0.28398 0.70391 0.7984 0.0
H588 H 0.47515 0.92828 0.04693 0.0
H589 H 0.44332 0.90435 0.03529 0.0
H590 H 0.42338 0.87668 0.07522 0.0
H591 H 0.45488 0.90081 0.08696 0.0
H592 H 0.44014 0.85336 0.03643 0.0
H593 H 0.35889 0.89832 0.05692 0.0
H594 H 0.388 0.91256 0.05722 0.0
H595 H 0.38105 0.89072 0.07006 0.0
C596 C 0.46372 0.91738 0.05325 0.0
C597 C 0.46749 0.91637 0.06785 0.0
C598 C 0.44564 0.9037 0.04659 0.0
C599 C 0.43087 0.88903 0.05444 0.0
C600 C 0.43437 0.88821 0.06902 0.0
H601 H 0.34745 0.76441 0.0327 0.0
H602 H 0.37336 0.79535 0.04347 0.0
C603 C 0.45252 0.90178 0.07568 0.0
C604 C 0.41291 0.87327 0.04729 0.0
H605 H 0.35307 0.86038 0.04525 0.0
C606 C 0.42109 0.85502 0.03825 0.0
C607 C 0.38809 0.87561 0.04967 0.0
C608 C 0.37838 0.89548 0.0589 0.0
C609 C 0.40511 0.83854 0.03183 0.0
C610 C 0.38042 0.84039 0.03458 0.0
C611 C 0.37209 0.85902 0.04329 0.0
C612 C 0.36321 0.82257 0.02873 0.0
C613 C 0.41467 0.81903 0.02228 0.0
C614 C 0.34865 0.82796 0.01706 0.0
C615 C 0.33388 0.8103 0.0108 0.0
C616 C 0.33339 0.78705 0.01621 0.0
C617 C 0.34741 0.78209 0.02825 0.0
C618 C 0.36223 0.7997 0.03442 0.0
H619 H 0.4337 0.8221 0.01965 0.0
H620 H 0.41336 0.80153 0.02751 0.0
H621 H 0.40376 0.8178 0.0124 0.0
H622 H 0.34925 0.84559 0.01256 0.0
H623 H 0.32326 0.81472 0.00157 0.0
H624 H 0.05311 0.65181 0.9535 0.0
H625 H 0.08504 0.67261 0.96707 0.0
H626 H 0.1049 0.60606 0.98633 0.0
H627 H 0.07368 0.5851 0.97231 0.0
H628 H 0.09862 0.67955 0.99461 0.0
H629 H 0.16541 0.62329 0.96676 0.0
H630 H 0.13407 0.62326 0.96178 0.0
H631 H 0.14453 0.60635 0.97655 0.0
C632 C 0.06409 0.64178 0.96081 0.0
C633 C 0.06129 0.61689 0.96178 0.0
C634 C 0.08227 0.65363 0.96856 0.0
C635 C 0.0977 0.64075 0.97745 0.0
C636 C 0.09361 0.6162 0.97924 0.0
H637 H 0.23595 0.68243 0.01439 0.0
H638 H 0.19616 0.66419 0.01212 0.0
C639 C 0.07576 0.60428 0.9713 0.0
C640 C 0.11926 0.65255 0.9838 0.0
H641 H 0.1804 0.65074 0.98384 0.0
C642 C 0.11651 0.67318 0.99234 0.0
C643 C 0.14261 0.64432 0.9807 0.0
C644 C 0.14692 0.62325 0.97084 0.0
C645 C 0.13653 0.68587 0.9978 0.0
C646 C 0.15974 0.67765 0.99462 0.0
C647 C 0.16249 0.65676 0.98638 0.0
C648 C 0.18162 0.69137 0.99856 0.0
C649 C 0.13281 0.70806 0.00681 0.0
C650 C 0.18634 0.71297 0.99194 0.0
C651 C 0.20911 0.72334 0.99309 0.0
C652 C 0.22752 0.71222 0.00088 0.0
C653 C 0.2222 0.69145 0.00829 0.0
C654 C 0.19947 0.681 0.00704 0.0
H655 H 0.11438 0.70889 0.01095 0.0
H656 H 0.14594 0.70875 0.01574 0.0
H657 H 0.13565 0.72414 0.00042 0.0
H658 H 0.17289 0.72102 0.98516 0.0
H659 H 0.2126 0.73939 0.9873 0.0
H660 H 0.40256 0.54384 0.19364 0.0
H661 H 0.37768 0.57409 0.20544 0.0
H662 H 0.43825 0.6221 0.20859 0.0
H663 H 0.46325 0.59194 0.19706 0.0
H664 H 0.41167 0.61653 0.23401 0.0
H665 H 0.35407 0.63814 0.18754 0.0
H666 H 0.35703 0.60701 0.19179 0.0
H667 H 0.38261 0.62316 0.18596 0.0
C668 C 0.41057 0.5608 0.19694 0.0
C669 C 0.4348 0.5656 0.19436 0.0
C670 C 0.39631 0.57809 0.20356 0.0
C671 C 0.40611 0.60037 0.20771 0.0
C672 C 0.43036 0.60504 0.20537 0.0
H673 H 0.35405 0.73852 0.23182 0.0
H674 H 0.36962 0.70278 0.21987 0.0
C675 C 0.44456 0.58786 0.19871 0.0
C676 C 0.39134 0.61893 0.21465 0.0
H677 H 0.3465 0.6593 0.20866 0.0
C678 C 0.39725 0.62575 0.22855 0.0
C679 C 0.37274 0.63097 0.20739 0.0
C680 C 0.36622 0.62466 0.19231 0.0
C681 C 0.38526 0.64462 0.23534 0.0
C682 C 0.36673 0.65677 0.22806 0.0
C683 C 0.36059 0.64976 0.21422 0.0
C684 C 0.35477 0.67789 0.23439 0.0
C685 C 0.3931 0.65201 0.25007 0.0
C686 C 0.34064 0.6756 0.24625 0.0
C687 C 0.3317 0.69598 0.25313 0.0
C688 C 0.33677 0.719 0.24824 0.0
C689 C 0.34992 0.72109 0.23592 0.0
C690 C 0.3588 0.7007 0.22905 0.0
H691 H 0.41043 0.64369 0.25322 0.0
H692 H 0.39494 0.6718 0.25106 0.0
H693 H 0.37932 0.64634 0.25752 0.0
H694 H 0.3371 0.65808 0.25041 0.0
H695 H 0.32152 0.69371 0.26253 0.0
H696 H 0.46505 0.95619 0.46612 0.0
H697 H 0.43831 0.93053 0.47909 0.0
H698 H 0.48621 0.87079 0.47281 0.0
H699 H 0.51314 0.89645 0.45984 0.0
H700 H 0.41661 0.89079 0.4666 0.0
H701 H 0.46871 0.86532 0.51431 0.0
H702 H 0.4766 0.89066 0.5039 0.0
H703 H 0.48392 0.86077 0.49806 0.0
C704 C 0.47002 0.93766 0.46765 0.0
C705 C 0.49108 0.92827 0.46188 0.0
C706 C 0.45481 0.92306 0.47512 0.0
C707 C 0.46036 0.89881 0.47701 0.0
C708 C 0.48183 0.88957 0.47173 0.0
H709 H 0.35589 0.78752 0.48863 0.0
H710 H 0.39297 0.80855 0.48352 0.0
C711 C 0.49715 0.90423 0.46428 0.0
C712 C 0.44231 0.88277 0.48302 0.0
H713 H 0.43185 0.84461 0.50975 0.0
C714 C 0.41994 0.88077 0.47606 0.0
C715 C 0.44673 0.86971 0.49535 0.0
C716 C 0.47021 0.8718 0.50344 0.0
C717 C 0.4019 0.86601 0.48105 0.0
C718 C 0.40639 0.85271 0.49325 0.0
C719 C 0.42865 0.85473 0.50032 0.0
C720 C 0.38755 0.83718 0.49876 0.0
C721 C 0.37801 0.86481 0.47329 0.0
C722 C 0.37287 0.84584 0.50947 0.0
C723 C 0.35158 0.83393 0.51241 0.0
C724 C 0.34465 0.81322 0.50462 0.0
C725 C 0.36055 0.8035 0.49476 0.0
C726 C 0.3818 0.81544 0.49183 0.0
H727 H 0.37647 0.8784 0.46499 0.0
H728 H 0.3757 0.84676 0.4683 0.0
H729 H 0.36317 0.86757 0.48072 0.0
H730 H 0.37705 0.86267 0.51488 0.0
H731 H 0.33983 0.84185 0.52012 0.0
H732 H 0.1337 0.99483 0.73141 0.0
H733 H 0.15369 0.96657 0.74715 0.0
H734 H 0.17994 0.9268 0.71138 0.0
H735 H 0.16039 0.95502 0.69562 0.0
H736 H 0.15347 0.89977 0.73167 0.0
H737 H 0.22729 0.95519 0.7558 0.0
H738 H 0.19751 0.96766 0.75528 0.0
H739 H 0.21304 0.96254 0.73925 0.0
C740 C 0.14413 0.98033 0.72691 0.0
C741 C 0.14535 0.97706 0.71226 0.0
C742 C 0.15549 0.96422 0.73592 0.0
C743 C 0.16832 0.9447 0.7304 0.0
C744 C 0.17007 0.94177 0.71582 0.0
H745 H 0.2641 0.83633 0.75257 0.0
H746 H 0.24487 0.87446 0.74751 0.0
C747 C 0.15878 0.95781 0.70684 0.0
C748 C 0.17863 0.92623 0.73963 0.0
H749 H 0.22533 0.91473 0.76224 0.0
C750 C 0.16897 0.90306 0.73853 0.0
C751 C 0.19884 0.93072 0.7485 0.0
C752 C 0.20998 0.95531 0.74981 0.0
C753 C 0.17955 0.88394 0.74563 0.0
C754 C 0.20016 0.88823 0.75427 0.0
C755 C 0.20937 0.9116 0.75575 0.0
C756 C 0.21399 0.86806 0.7602 0.0
C757 C 0.16938 0.85906 0.74317 0.0
C758 C 0.20365 0.85243 0.76968 0.0
C759 C 0.21455 0.83044 0.77254 0.0
C760 C 0.23599 0.82386 0.76598 0.0
C761 C 0.24744 0.84068 0.75765 0.0
C762 C 0.23652 0.86257 0.75478 0.0
H763 H 0.15599 0.85833 0.73436 0.0
H764 H 0.18389 0.84605 0.74083 0.0
H765 H 0.1604 0.85326 0.75278 0.0
H766 H 0.18644 0.85657 0.77416 0.0
H767 H 0.20535 0.818 0.77911 0.0
H768 H 0.59997 0.39319 0.82221 0.0
H769 H 0.62629 0.37323 0.80549 0.0
H770 H 0.5811 0.39641 0.77116 0.0
H771 H 0.55483 0.41706 0.78781 0.0
H772 H 0.59977 0.34304 0.77173 0.0
H773 H 0.66776 0.41565 0.77728 0.0
H774 H 0.65574 0.40536 0.79341 0.0
H775 H 0.63649 0.42029 0.78106 0.0
C776 C 0.59561 0.39414 0.81111 0.0
C777 C 0.57543 0.40695 0.80635 0.0
C778 C 0.61058 0.38259 0.80159 0.0
C779 C 0.60564 0.38353 0.78714 0.0
C780 C 0.58511 0.39551 0.7823 0.0
H781 H 0.72853 0.34294 0.73742 0.0
H782 H 0.68921 0.36078 0.74148 0.0
C783 C 0.57012 0.40719 0.79184 0.0
C784 C 0.62281 0.37292 0.77723 0.0
H785 H 0.68056 0.37873 0.76705 0.0
C786 C 0.61731 0.35097 0.77045 0.0
C787 C 0.64543 0.38359 0.77541 0.0
C788 C 0.65176 0.40763 0.78207 0.0
C789 C 0.63459 0.3386 0.7626 0.0
C790 C 0.65789 0.34839 0.76171 0.0
C791 C 0.66273 0.37115 0.76772 0.0
C792 C 0.67846 0.33436 0.75636 0.0
C793 C 0.62789 0.31494 0.75562 0.0
C794 C 0.68507 0.31304 0.76292 0.0
C795 C 0.70747 0.30278 0.76061 0.0
C796 C 0.72385 0.31381 0.7518 0.0
C797 C 0.7164 0.33402 0.7443 0.0
C798 C 0.69392 0.34427 0.74662 0.0
H799 H 0.60849 0.31439 0.75271 0.0
H800 H 0.63844 0.31144 0.74606 0.0
H801 H 0.63145 0.30031 0.76307 0.0
H802 H 0.67371 0.3053 0.77069 0.0
H803 H 0.71257 0.28715 0.7665 0.0
H804 H 0.66494 0.0575 0.07468 0.0
H805 H 0.68916 0.08464 0.06111 0.0
H806 H 0.64262 0.07225 0.02496 0.0
H807 H 0.61845 0.04462 0.03837 0.0
H808 H 0.71286 0.0779 0.03361 0.0
H809 H 0.63995 0.14615 0.03416 0.0
H810 H 0.64068 0.12145 0.04605 0.0
H811 H 0.63226 0.11638 0.02796 0.0
C812 C 0.6601 0.0601 0.06376 0.0
C813 C 0.63964 0.04898 0.05765 0.0
C814 C 0.67393 0.07569 0.05604 0.0
C815 C 0.66753 0.08056 0.0421 0.0
C816 C 0.64767 0.06888 0.03577 0.0
H817 H 0.71892 0.20489 0.99789 0.0
H818 H 0.70031 0.16587 0.00133 0.0
C819 C 0.63383 0.05322 0.04347 0.0
C820 C 0.68073 0.09915 0.03461 0.0
H821 H 0.67613 0.15699 0.02415 0.0
C822 C 0.70481 0.09512 0.03137 0.0
C823 C 0.67008 0.12149 0.03164 0.0
C824 C 0.64437 0.12685 0.03518 0.0
C825 C 0.71874 0.11314 0.02549 0.0
C826 C 0.70841 0.1359 0.02315 0.0
C827 C 0.68404 0.13953 0.0259 0.0
C828 C 0.72283 0.15699 0.01924 0.0
C829 C 0.74438 0.10762 0.02194 0.0
C830 C 0.74217 0.16468 0.02789 0.0
C831 C 0.75297 0.18688 0.02589 0.0
C832 C 0.74437 0.20205 0.01533 0.0
C833 C 0.72593 0.19371 0.00615 0.0
C834 C 0.71525 0.1714 0.00811 0.0
H835 H 0.74672 0.08825 0.01935 0.0
H836 H 0.75035 0.1182 0.01294 0.0
H837 H 0.75615 0.11203 0.03118 0.0
H838 H 0.74799 0.15422 0.03676 0.0
H839 H 0.76707 0.19274 0.03318 0.0
H840 H 0.99615 0.10604 0.30311 0.0
H841 H 0.96384 0.12907 0.29209 0.0
H842 H 0.95221 0.16677 0.33134 0.0
H843 H 0.98453 0.14381 0.34244 0.0
H844 H 0.91664 0.12921 0.29977 0.0
H845 H 0.95455 0.22121 0.30341 0.0
H846 H 0.97265 0.19473 0.30582 0.0
H847 H 0.95434 0.20593 0.31977 0.0
C848 C 0.98676 0.1193 0.30938 0.0
C849 C 0.99285 0.12311 0.32364 0.0
C850 C 0.9684 0.1325 0.30306 0.0
C851 C 0.95583 0.14981 0.31086 0.0
C852 C 0.96204 0.15388 0.32505 0.0
H853 H 0.81379 0.20116 0.28748 0.0
H854 H 0.84861 0.18514 0.30013 0.0
C855 C 0.98048 0.14073 0.33138 0.0
C856 C 0.93524 0.1624 0.30432 0.0
H857 H 0.91358 0.21772 0.29617 0.0
C858 C 0.91598 0.14856 0.29896 0.0
C859 C 0.93455 0.18762 0.30319 0.0
C860 C 0.9552 0.20328 0.30823 0.0
C861 C 0.89595 0.15924 0.29256 0.0
C862 C 0.89496 0.1845 0.29175 0.0
C863 C 0.9143 0.19838 0.29698 0.0
C864 C 0.87429 0.19663 0.28501 0.0
C865 C 0.87624 0.14335 0.28645 0.0
C866 C 0.87737 0.20934 0.27267 0.0
C867 C 0.85753 0.21867 0.26545 0.0
C868 C 0.83426 0.21546 0.27048 0.0
C869 C 0.83142 0.20377 0.28325 0.0
C870 C 0.85128 0.19451 0.29046 0.0
H871 H 0.88231 0.12451 0.28497 0.0
H872 H 0.86098 0.14339 0.29371 0.0
H873 H 0.86966 0.15001 0.27618 0.0
H874 H 0.89503 0.21126 0.26835 0.0
H875 H 0.86038 0.22767 0.25569 0.0
H876 H 0.90742 0.4749 0.57481 0.0
H877 H 0.88644 0.44635 0.559 0.0
H878 H 0.92381 0.47433 0.52386 0.0
H879 H 0.94494 0.50315 0.53969 0.0
H880 H 0.85895 0.45602 0.52959 0.0
H881 H 0.9406 0.3983 0.52984 0.0
H882 H 0.93535 0.41915 0.5442 0.0
H883 H 0.94293 0.43016 0.52737 0.0
C884 C 0.91094 0.47516 0.56369 0.0
C885 C 0.92791 0.49104 0.55846 0.0
C886 C 0.89887 0.45899 0.55468 0.0
C887 C 0.90367 0.45832 0.54032 0.0
C888 C 0.91987 0.47475 0.53493 0.0
H889 H 0.86445 0.32141 0.49991 0.0
H890 H 0.87967 0.36259 0.50066 0.0
C891 C 0.93185 0.49114 0.54395 0.0
C892 C 0.8933 0.43873 0.53148 0.0
H893 H 0.90448 0.38068 0.52199 0.0
C894 C 0.86896 0.43969 0.52757 0.0
C895 C 0.90655 0.41766 0.52875 0.0
C896 C 0.93283 0.41602 0.53272 0.0
C897 C 0.85713 0.41947 0.52175 0.0
C898 C 0.86987 0.39766 0.52026 0.0
C899 C 0.89466 0.39735 0.52317 0.0
C900 C 0.85752 0.37433 0.51784 0.0
C901 C 0.83096 0.42154 0.51766 0.0
C902 C 0.83972 0.36734 0.52706 0.0
C903 C 0.83092 0.34395 0.52662 0.0
C904 C 0.84003 0.32686 0.51709 0.0
C905 C 0.8571 0.33412 0.50741 0.0
C906 C 0.8658 0.35765 0.50781 0.0
H907 H 0.82679 0.43979 0.51388 0.0
H908 H 0.82568 0.4082 0.50933 0.0
H909 H 0.81994 0.41858 0.527 0.0
H910 H 0.83354 0.37959 0.53518 0.0
H911 H 0.81782 0.339 0.53424 0.0
H912 H 0.66806 0.06546 0.44849 0.0
H913 H 0.69496 0.09509 0.45974 0.0
H914 H 0.63615 0.14468 0.46364 0.0
H915 H 0.60892 0.11498 0.45266 0.0
H916 H 0.68019 0.16388 0.45221 0.0
H917 H 0.69458 0.11596 0.50215 0.0
H918 H 0.69898 0.09825 0.48643 0.0
H919 H 0.66963 0.10948 0.49025 0.0
C920 C 0.66075 0.08254 0.4519 0.0
C921 C 0.6363 0.0878 0.44975 0.0
C922 C 0.67617 0.09946 0.45827 0.0
C923 C 0.66743 0.12191 0.46261 0.0
C924 C 0.64316 0.12739 0.46036 0.0
H925 H 0.74319 0.22427 0.5174 0.0
H926 H 0.71261 0.19894 0.50579 0.0
C927 C 0.62768 0.11045 0.45403 0.0
C928 C 0.68374 0.13974 0.46941 0.0
H929 H 0.71933 0.14971 0.49853 0.0
C930 C 0.68869 0.1609 0.46236 0.0
C931 C 0.69453 0.1358 0.48271 0.0
C932 C 0.68907 0.11375 0.49092 0.0
C933 C 0.70469 0.17805 0.46815 0.0
C934 C 0.71605 0.17375 0.48125 0.0
C935 C 0.71065 0.15285 0.48844 0.0
C936 C 0.73388 0.19052 0.48766 0.0
C937 C 0.70924 0.20067 0.46028 0.0
C938 C 0.7559 0.1942 0.48125 0.0
C939 C 0.77346 0.20861 0.48786 0.0
C940 C 0.7693 0.21953 0.50103 0.0
C941 C 0.74698 0.21617 0.50727 0.0
C942 C 0.72949 0.20169 0.50067 0.0
H943 H 0.69505 0.20386 0.45217 0.0
H944 H 0.71024 0.21646 0.46757 0.0
H945 H 0.72665 0.19909 0.45495 0.0
H946 H 0.75974 0.1854 0.47131 0.0
H947 H 0.79046 0.21078 0.48278 0.0
H948 H 0.95924 0.09397 0.70303 0.0
H949 H 0.92727 0.12013 0.71152 0.0
H950 H 0.9739 0.18139 0.70883 0.0
H951 H 0.00589 0.15545 0.70012 0.0
H952 H 0.9477 0.17883 0.73431 0.0
H953 H 0.88941 0.16784 0.68653 0.0
H954 H 0.89927 0.14041 0.69431 0.0
H955 H 0.92081 0.15999 0.68681 0.0
C956 C 0.96267 0.11303 0.70417 0.0
C957 C 0.98508 0.12264 0.7008 0.0
C958 C 0.94439 0.12792 0.70903 0.0
C959 C 0.94815 0.15269 0.71058 0.0
C960 C 0.97066 0.1623 0.70764 0.0
H961 H 0.846 0.26803 0.72138 0.0
H962 H 0.87627 0.23999 0.71273 0.0
C963 C 0.98896 0.14742 0.70275 0.0
C964 C 0.92857 0.16863 0.71524 0.0
H965 H 0.87309 0.18938 0.70577 0.0
C966 C 0.93138 0.18116 0.72809 0.0
C967 C 0.90747 0.17179 0.70699 0.0
C968 C 0.90402 0.15948 0.69283 0.0
C969 C 0.91343 0.19657 0.73303 0.0
C970 C 0.89207 0.19928 0.72493 0.0
C971 C 0.88941 0.18703 0.71199 0.0
C972 C 0.87254 0.21523 0.72965 0.0
C973 C 0.91759 0.21014 0.74674 0.0
C974 C 0.85998 0.21016 0.74179 0.0
C975 C 0.84264 0.22608 0.74675 0.0
C976 C 0.83754 0.24736 0.73963 0.0
C977 C 0.84953 0.25187 0.72714 0.0
C978 C 0.86683 0.23588 0.72218 0.0
H979 H 0.93679 0.21011 0.7501 0.0
H980 H 0.91148 0.22901 0.74591 0.0
H981 H 0.90713 0.2016 0.75502 0.0
H982 H 0.86388 0.19408 0.74756 0.0
H983 H 0.83368 0.22198 0.75636 0.0
H984 H 0.88997 0.48134 0.95236 0.0
H985 H 0.86922 0.44936 0.96402 0.0
H986 H 0.92095 0.39825 0.94872 0.0
H987 H 0.9433 0.43039 0.93833 0.0
H988 H 0.84679 0.41264 0.95467 0.0
H989 H 0.92113 0.37922 0.98813 0.0
H990 H 0.92357 0.40643 0.97847 0.0
H991 H 0.92869 0.37772 0.96999 0.0
C992 C 0.89743 0.46345 0.95177 0.0
C993 C 0.91858 0.45871 0.94443 0.0
C994 C 0.88529 0.44505 0.95833 0.0
C995 C 0.89371 0.42136 0.95752 0.0
C996 C 0.91443 0.41643 0.94991 0.0
H997 H 0.7968 0.30333 0.97605 0.0
H998 H 0.82216 0.33191 0.96415 0.0
C999 C 0.92695 0.4349 0.94367 0.0
C1000 C 0.8803 0.4018 0.96423 0.0
H1001 H 0.88662 0.35405 0.98576 0.0
C1002 C 0.8555 0.39995 0.96156 0.0
C1003 C 0.89153 0.38537 0.97339 0.0
C1004 C 0.91763 0.38744 0.97779 0.0
C1005 C 0.84163 0.38229 0.96777 0.0
C1006 C 0.85306 0.36509 0.97634 0.0
C1007 C 0.87786 0.36694 0.97902 0.0
C1008 C 0.83948 0.34584 0.98322 0.0
C1009 C 0.81477 0.38294 0.96544 0.0
C1010 C 0.84198 0.34286 0.99777 0.0
C1011 C 0.8282 0.32587 0.0045 0.0
C1012 C 0.81135 0.31182 0.99684 0.0
C1013 C 0.80948 0.31413 0.98222 0.0
C1014 C 0.82376 0.33067 0.97544 0.0
H1015 H 0.80852 0.40112 0.96256 0.0
H1016 H 0.80967 0.37044 0.95665 0.0
H1017 H 0.80523 0.37755 0.97495 0.0
H1018 H 0.85406 0.35419 0.00402 0.0
H1019 H 0.82995 0.32456 0.01579 0.0
H1020 H 0.57127 0.38879 0.20648 0.0
H1021 H 0.60085 0.36533 0.21957 0.0
H1022 H 0.65131 0.42362 0.21815 0.0
H1023 H 0.62161 0.44768 0.2055 0.0
H1024 H 0.66193 0.37048 0.20567 0.0
H1025 H 0.63556 0.3797 0.26152 0.0
H1026 H 0.61254 0.37677 0.24798 0.0
H1027 H 0.63047 0.4034 0.24919 0.0
C1028 C 0.5884 0.39694 0.20927 0.0
C1029 C 0.59407 0.42012 0.20485 0.0
C1030 C 0.60528 0.38345 0.21671 0.0
C1031 C 0.62811 0.39287 0.21985 0.0
C1032 C 0.63368 0.41617 0.21585 0.0
H1033 H 0.75949 0.31564 0.24009 0.0
H1034 H 0.73115 0.34783 0.2349 0.0
C1035 C 0.61676 0.42976 0.2085 0.0
C1036 C 0.64693 0.37741 0.22591 0.0
H1037 H 0.66706 0.35278 0.25641 0.0
C1038 C 0.66326 0.36672 0.21678 0.0
C1039 C 0.64822 0.37244 0.24035 0.0
C1040 C 0.63087 0.38366 0.25043 0.0
C1041 C 0.6807 0.35068 0.22165 0.0
C1042 C 0.68231 0.34583 0.23616 0.0
C1043 C 0.66598 0.35671 0.24533 0.0
C1044 C 0.70005 0.32852 0.24177 0.0
C1045 C 0.69654 0.33834 0.21107 0.0
C1046 C 0.69223 0.30777 0.24834 0.0
C1047 C 0.70849 0.28956 0.25161 0.0
C1048 C 0.73278 0.29174 0.24823 0.0
C1049 C 0.74082 0.3133 0.24262 0.0
C1050 C 0.72463 0.33164 0.23957 0.0
H1051 H 0.6888 0.33913 0.20025 0.0
H1052 H 0.71424 0.34742 0.21114 0.0
H1053 H 0.69941 0.31924 0.21365 0.0
H1054 H 0.67337 0.30508 0.25024 0.0
H1055 H 0.70173 0.27318 0.25596 0.0
H1056 H 0.14373 0.98847 0.41774 0.0
H1057 H 0.16292 0.95995 0.43347 0.0
H1058 H 0.17647 0.91235 0.39828 0.0
H1059 H 0.15802 0.94117 0.38237 0.0
H1060 H 0.14898 0.9127 0.43767 0.0
H1061 H 0.24202 0.91695 0.41837 0.0
H1062 H 0.21965 0.93916 0.41412 0.0
H1063 H 0.21951 0.91058 0.40503 0.0
C1064 C 0.15121 0.97215 0.41329 0.0
C1065 C 0.14949 0.96717 0.39877 0.0
C1066 C 0.16198 0.95579 0.42232 0.0
C1067 C 0.17135 0.93418 0.41702 0.0
C1068 C 0.16971 0.92912 0.40255 0.0
H1069 H 0.24029 0.81302 0.45702 0.0
H1070 H 0.22053 0.83983 0.44046 0.0
C1071 C 0.15894 0.94549 0.3935 0.0
C1072 C 0.18204 0.91663 0.42675 0.0
H1073 H 0.23399 0.88735 0.43504 0.0
C1074 C 0.16758 0.90719 0.43713 0.0
C1075 C 0.20628 0.90944 0.42596 0.0
C1076 C 0.22288 0.91968 0.41536 0.0
C1077 C 0.17666 0.89056 0.4467 0.0
C1078 C 0.20094 0.88351 0.44598 0.0
C1079 C 0.21536 0.89279 0.43553 0.0
C1080 C 0.21191 0.86688 0.45615 0.0
C1081 C 0.16012 0.88041 0.45736 0.0
C1082 C 0.21363 0.87326 0.47045 0.0
C1083 C 0.22489 0.85799 0.47996 0.0
C1084 C 0.23476 0.83609 0.47531 0.0
C1085 C 0.23283 0.8297 0.46097 0.0
C1086 C 0.22159 0.845 0.45148 0.0
H1087 H 0.14097 0.88271 0.45422 0.0
H1088 H 0.16367 0.86105 0.45886 0.0
H1089 H 0.16319 0.88995 0.46758 0.0
H1090 H 0.20666 0.89027 0.47423 0.0
H1091 H 0.22618 0.86355 0.49091 0.0
H1092 H 0.06257 0.61204 0.67266 0.0
H1093 H 0.08998 0.63228 0.68951 0.0
H1094 H 0.12737 0.66393 0.65547 0.0
H1095 H 0.1002 0.64348 0.63851 0.0
H1096 H 0.15696 0.63998 0.67673 0.0
H1097 H 0.09276 0.70571 0.69932 0.0
H1098 H 0.08279 0.67505 0.69834 0.0
H1099 H 0.08762 0.69087 0.68248 0.0
C1100 C 0.07665 0.6233 0.66877 0.0
C1101 C 0.07927 0.6262 0.65428 0.0
C1102 C 0.09213 0.63498 0.67839 0.0
C1103 C 0.11048 0.64974 0.6737 0.0
C1104 C 0.11318 0.6527 0.65926 0.0
H1105 H 0.22861 0.72661 0.715 0.0
H1106 H 0.20107 0.70708 0.69805 0.0
C1107 C 0.0976 0.64114 0.64962 0.0
C1108 C 0.12739 0.6614 0.68387 0.0
H1109 H 0.13097 0.70324 0.71049 0.0
C1110 C 0.15137 0.6539 0.68408 0.0
C1111 C 0.11988 0.67939 0.69347 0.0
C1112 C 0.09441 0.68844 0.69339 0.0
C1113 C 0.16807 0.66367 0.69385 0.0
C1114 C 0.16062 0.68181 0.7034 0.0
C1115 C 0.13661 0.68931 0.70316 0.0
C1116 C 0.17749 0.69338 0.71369 0.0
C1117 C 0.19335 0.65406 0.69406 0.0
C1118 C 0.17305 0.69266 0.7281 0.0
C1119 C 0.18862 0.70402 0.73782 0.0
C1120 C 0.20892 0.71637 0.7333 0.0
C1121 C 0.21327 0.71708 0.71885 0.0
C1122 C 0.19762 0.70582 0.70914 0.0
H1123 H 0.19432 0.63597 0.68897 0.0
H1124 H 0.20499 0.66625 0.6882 0.0
H1125 H 0.20062 0.65298 0.70496 0.0
H1126 H 0.15753 0.68325 0.73181 0.0
H1127 H 0.18471 0.70317 0.74887 0.0
H1128 H 0.46553 0.58779 0.89651 0.0
H1129 H 0.44337 0.61565 0.91157 0.0
H1130 H 0.38879 0.56201 0.91671 0.0
H1131 H 0.41077 0.53412 0.90156 0.0
H1132 H 0.36988 0.60613 0.91118 0.0
H1133 H 0.43878 0.61338 0.95396 0.0
H1134 H 0.4498 0.62064 0.93704 0.0
H1135 H 0.43984 0.59063 0.94023 0.0
C1136 C 0.44892 0.58188 0.90096 0.0
C1137 C 0.43995 0.55874 0.89793 0.0
C1138 C 0.4363 0.59779 0.90957 0.0
C1139 C 0.41465 0.59075 0.91545 0.0
C1140 C 0.40551 0.56776 0.91231 0.0
H1141 H 0.34288 0.66013 0.98474 0.0
H1142 H 0.3646 0.63308 0.96908 0.0
C1143 C 0.41804 0.55189 0.90363 0.0
C1144 C 0.40132 0.60744 0.92471 0.0
H1145 H 0.40598 0.64038 0.95526 0.0
C1146 C 0.37773 0.61359 0.92084 0.0
C1147 C 0.41152 0.61689 0.93739 0.0
C1148 C 0.43629 0.6099 0.9425 0.0
C1149 C 0.36411 0.62914 0.92925 0.0
C1150 C 0.37458 0.63918 0.9417 0.0
C1151 C 0.39809 0.63285 0.94563 0.0
C1152 C 0.36124 0.65575 0.95105 0.0
C1153 C 0.33848 0.63422 0.92488 0.0
C1154 C 0.35237 0.67761 0.94613 0.0
C1155 C 0.33978 0.6931 0.95504 0.0
C1156 C 0.33612 0.6871 0.96907 0.0
C1157 C 0.34537 0.66533 0.974 0.0
C1158 C 0.3578 0.64982 0.96507 0.0
H1159 H 0.33133 0.62038 0.91732 0.0
H1160 H 0.32671 0.63504 0.93411 0.0
H1161 H 0.3376 0.65179 0.91969 0.0
H1162 H 0.3553 0.68278 0.93544 0.0
H1163 H 0.33306 0.7098 0.95095 0.0
H1164 H 0.45706 0.91433 0.13242 0.0
H1165 H 0.43005 0.89469 0.14846 0.0
H1166 H 0.47844 0.91184 0.18316 0.0
H1167 H 0.50525 0.93202 0.16728 0.0
H1168 H 0.44066 0.8557 0.16606 0.0
H1169 H 0.4132 0.93647 0.19675 0.0
H1170 H 0.42734 0.93824 0.17997 0.0
H1171 H 0.44505 0.93258 0.19552 0.0
C1172 C 0.46181 0.91419 0.1435 0.0
C1173 C 0.48326 0.92483 0.14859 0.0
C1174 C 0.44643 0.90284 0.15262 0.0
C1175 C 0.4521 0.90211 0.16701 0.0
C1176 C 0.47355 0.91256 0.17212 0.0
H1177 H 0.38909 0.84038 0.23979 0.0
H1178 H 0.41375 0.86131 0.22311 0.0
C1179 C 0.48896 0.92386 0.16301 0.0
C1180 C 0.43592 0.8898 0.17663 0.0
H1181 H 0.40174 0.89877 0.20552 0.0
C1182 C 0.432 0.86511 0.17463 0.0
C1183 C 0.42472 0.90216 0.18781 0.0
C1184 C 0.42757 0.92887 0.19012 0.0
C1185 C 0.41762 0.85229 0.18374 0.0
C1186 C 0.40651 0.86462 0.19498 0.0
C1187 C 0.41029 0.88936 0.1969 0.0
C1188 C 0.39122 0.85211 0.20501 0.0
C1189 C 0.41502 0.82554 0.1815 0.0
C1190 C 0.37016 0.8403 0.20039 0.0
C1191 C 0.35604 0.82825 0.20989 0.0
C1192 C 0.36263 0.82794 0.22421 0.0
C1193 C 0.38351 0.84019 0.22883 0.0
C1194 C 0.39763 0.85219 0.21932 0.0
H1195 H 0.42931 0.81805 0.17476 0.0
H1196 H 0.4156 0.81621 0.19166 0.0
H1197 H 0.39748 0.82161 0.17623 0.0
H1198 H 0.36462 0.84045 0.18944 0.0
H1199 H 0.34 0.81914 0.206 0.0
H1200 H 0.03855 0.65958 0.8763 0.0
H1201 H 0.06305 0.68417 0.86119 0.0
H1202 H 0.12166 0.63443 0.86586 0.0
H1203 H 0.09728 0.60973 0.88087 0.0
H1204 H 0.10797 0.70668 0.86484 0.0
H1205 H 0.10994 0.6353 0.8234 0.0
H1206 H 0.08981 0.63441 0.83791 0.0
H1207 H 0.12063 0.62563 0.84024 0.0
C1208 C 0.05678 0.65409 0.87427 0.0
C1209 C 0.06591 0.63258 0.87963 0.0
C1210 C 0.07071 0.6681 0.86561 0.0
C1211 C 0.09397 0.66083 0.86217 0.0
C1212 C 0.10354 0.64004 0.8681 0.0
H1213 H 0.2062 0.70862 0.80919 0.0
H1214 H 0.18158 0.69006 0.82676 0.0
C1215 C 0.08961 0.62597 0.87668 0.0
C1216 C 0.10795 0.67444 0.85199 0.0
H1217 H 0.13565 0.66867 0.82054 0.0
C1218 C 0.11392 0.69846 0.85511 0.0
C1219 C 0.1155 0.6637 0.83925 0.0
C1220 C 0.10847 0.63842 0.8349 0.0
C1221 C 0.12793 0.71178 0.84602 0.0
C1222 C 0.13591 0.70081 0.83346 0.0
C1223 C 0.12962 0.67695 0.83024 0.0
C1224 C 0.1512 0.7135 0.82354 0.0
C1225 C 0.13462 0.73725 0.85005 0.0
C1226 C 0.14226 0.73291 0.81592 0.0
C1227 C 0.15628 0.74356 0.80579 0.0
C1228 C 0.17946 0.73492 0.8031 0.0
C1229 C 0.18845 0.71574 0.81097 0.0
C1230 C 0.17442 0.7051 0.82103 0.0
H1231 H 0.13102 0.74151 0.86124 0.0
H1232 H 0.15389 0.74055 0.84813 0.0
H1233 H 0.12398 0.7497 0.84348 0.0
H1234 H 0.12423 0.73941 0.81756 0.0
H1235 H 0.1488 0.75826 0.79991 0.0
H1236 H 0.45109 0.53361 0.09412 0.0
H1237 H 0.42604 0.55696 0.07812 0.0
H1238 H 0.38538 0.58386 0.113 0.0
H1239 H 0.41052 0.5607 0.12915 0.0
H1240 H 0.35702 0.56873 0.08902 0.0
H1241 H 0.4304 0.63062 0.07538 0.0
H1242 H 0.43741 0.59939 0.07304 0.0
H1243 H 0.4323 0.61145 0.09035 0.0
C1244 C 0.43692 0.54461 0.09841 0.0
C1245 C 0.43294 0.54548 0.11292 0.0
C1246 C 0.42261 0.55789 0.08925 0.0
C1247 C 0.40412 0.57238 0.09442 0.0
C1248 C 0.39962 0.57281 0.10883 0.0
H1249 H 0.33546 0.68659 0.04821 0.0
H1250 H 0.35524 0.66255 0.06616 0.0
C1251 C 0.41394 0.55951 0.11802 0.0
C1252 C 0.38976 0.58737 0.08478 0.0
H1253 H 0.39428 0.63311 0.06188 0.0
C1254 C 0.36509 0.58288 0.08312 0.0
C1255 C 0.40033 0.60601 0.07726 0.0
C1256 C 0.42652 0.61237 0.07916 0.0
C1257 C 0.35078 0.59624 0.07385 0.0
C1258 C 0.36155 0.61433 0.06596 0.0
C1259 C 0.38611 0.61912 0.06787 0.0
C1260 C 0.3478 0.62853 0.05561 0.0
C1261 C 0.32426 0.59109 0.07269 0.0
C1262 C 0.33696 0.61733 0.04375 0.0
C1263 C 0.32559 0.63102 0.03346 0.0
C1264 C 0.32503 0.65617 0.03481 0.0
C1265 C 0.33556 0.66727 0.04683 0.0
C1266 C 0.34689 0.65357 0.05711 0.0
H1267 H 0.31787 0.58141 0.08194 0.0
H1268 H 0.31382 0.60791 0.07163 0.0
H1269 H 0.32057 0.57964 0.06321 0.0
H1270 H 0.33786 0.59806 0.04226 0.0
H1271 H 0.31775 0.62192 0.02431 0.0
H1272 H 0.49474 0.92869 0.35874 0.0
H1273 H 0.4711 0.89974 0.34465 0.0
H1274 H 0.45184 0.86336 0.38216 0.0
H1275 H 0.47515 0.89264 0.39643 0.0
H1276 H 0.47588 0.8479 0.34358 0.0
H1277 H 0.38683 0.87914 0.36192 0.0
H1278 H 0.41356 0.89718 0.36421 0.0
H1279 H 0.40902 0.87192 0.37513 0.0
C1280 C 0.48531 0.91466 0.36402 0.0
C1281 C 0.4866 0.91307 0.3787 0.0
C1282 C 0.47198 0.89804 0.35595 0.0
C1283 C 0.45959 0.8796 0.36239 0.0
C1284 C 0.4611 0.87765 0.37702 0.0
H1285 H 0.35602 0.78304 0.31964 0.0
H1286 H 0.383 0.80041 0.33778 0.0
C1287 C 0.47453 0.89426 0.38513 0.0
C1288 C 0.44491 0.86271 0.35366 0.0
H1289 H 0.38704 0.84844 0.34466 0.0
C1290 C 0.45646 0.8478 0.34389 0.0
C1291 C 0.41962 0.86257 0.35419 0.0
C1292 C 0.40639 0.87862 0.36434 0.0
C1293 C 0.44332 0.83313 0.33437 0.0
C1294 C 0.41799 0.83382 0.33445 0.0
C1295 C 0.40647 0.84799 0.34461 0.0
C1296 C 0.40308 0.82161 0.32341 0.0
C1297 C 0.45668 0.8172 0.32422 0.0
C1298 C 0.40546 0.82778 0.30934 0.0
C1299 C 0.39014 0.81792 0.29897 0.0
C1300 C 0.37196 0.80182 0.30248 0.0
C1301 C 0.36985 0.79535 0.31657 0.0
C1302 C 0.38523 0.80525 0.32695 0.0
H1303 H 0.47487 0.81279 0.32839 0.0
H1304 H 0.44678 0.80024 0.3219 0.0
H1305 H 0.45884 0.82672 0.31425 0.0
H1306 H 0.41873 0.84081 0.30641 0.0
H1307 H 0.39222 0.82339 0.28824 0.0
H1308 H 0.13522 0.99234 0.60629 0.0
H1309 H 0.1598 0.96881 0.59022 0.0
H1310 H 0.20317 0.94452 0.62507 0.0
H1311 H 0.17833 0.96784 0.64136 0.0
H1312 H 0.22917 0.95977 0.60001 0.0
H1313 H 0.15644 0.89383 0.58824 0.0
H1314 H 0.1478 0.92466 0.58649 0.0
H1315 H 0.15639 0.91373 0.60345 0.0
C1316 C 0.14989 0.98189 0.61058 0.0
C1317 C 0.15459 0.98166 0.62513 0.0
C1318 C 0.16397 0.96856 0.60137 0.0
C1319 C 0.18303 0.95471 0.6065 0.0
C1320 C 0.18844 0.95507 0.62095 0.0
H1321 H 0.2473 0.84122 0.55605 0.0
H1322 H 0.23097 0.86482 0.57546 0.0
C1323 C 0.17429 0.96843 0.63021 0.0
C1324 C 0.19672 0.93933 0.59671 0.0
H1325 H 0.19018 0.89215 0.57355 0.0
C1326 C 0.22078 0.94485 0.59429 0.0
C1327 C 0.18573 0.91974 0.58942 0.0
C1328 C 0.16023 0.91243 0.59208 0.0
C1329 C 0.23396 0.93167 0.58437 0.0
C1330 C 0.22263 0.91273 0.57664 0.0
C1331 C 0.19879 0.9068 0.57942 0.0
C1332 C 0.23487 0.89893 0.56544 0.0
C1333 C 0.25987 0.93807 0.58228 0.0
C1334 C 0.24264 0.91031 0.55338 0.0
C1335 C 0.25201 0.89686 0.54223 0.0
C1336 C 0.2536 0.87176 0.54291 0.0
C1337 C 0.24629 0.8605 0.55515 0.0
C1338 C 0.23697 0.87396 0.56628 0.0
H1339 H 0.26757 0.94828 0.59147 0.0
H1340 H 0.27085 0.92175 0.58045 0.0
H1341 H 0.26117 0.94948 0.57295 0.0
H1342 H 0.24072 0.92952 0.5524 0.0
H1343 H 0.2574 0.90607 0.53294 0.0
H1344 H 0.59309 0.37639 0.87654 0.0
H1345 H 0.61758 0.35126 0.89207 0.0
H1346 H 0.59282 0.39165 0.92801 0.0
H1347 H 0.568 0.4163 0.91269 0.0
H1348 H 0.65441 0.36709 0.90996 0.0
H1349 H 0.58422 0.32266 0.94007 0.0
H1350 H 0.57782 0.33735 0.92373 0.0
H1351 H 0.58039 0.35458 0.93989 0.0
C1352 C 0.59257 0.37959 0.88778 0.0
C1353 C 0.57871 0.39838 0.8934 0.0
C1354 C 0.60662 0.36531 0.89662 0.0
C1355 C 0.60674 0.36938 0.9112 0.0
C1356 C 0.59263 0.38787 0.91682 0.0
H1357 H 0.71106 0.35241 0.97606 0.0
H1358 H 0.68484 0.36428 0.95663 0.0
C1359 C 0.57869 0.40215 0.90803 0.0
C1360 C 0.6229 0.35567 0.9206 0.0
H1361 H 0.62377 0.3241 0.95083 0.0
C1362 C 0.64771 0.35733 0.91876 0.0
C1363 C 0.61414 0.34264 0.93195 0.0
C1364 C 0.58767 0.33897 0.93396 0.0
C1365 C 0.66403 0.34752 0.92846 0.0
C1366 C 0.65526 0.3361 0.9404 0.0
C1367 C 0.63046 0.33317 0.94178 0.0
C1368 C 0.67146 0.3285 0.95199 0.0
C1369 C 0.69052 0.34983 0.92596 0.0
C1370 C 0.67217 0.30451 0.95608 0.0
C1371 C 0.68709 0.29764 0.96728 0.0
C1372 C 0.70138 0.31473 0.97465 0.0
C1373 C 0.7004 0.33877 0.97059 0.0
C1374 C 0.68554 0.34558 0.9594 0.0
H1375 H 0.69411 0.35206 0.91465 0.0
H1376 H 0.69756 0.36591 0.93175 0.0
H1377 H 0.70048 0.33391 0.92972 0.0
H1378 H 0.66125 0.2911 0.95056 0.0
H1379 H 0.68738 0.27899 0.97018 0.0
H1380 H 0.67892 0.03414 0.13847 0.0
H1381 H 0.70434 0.05981 0.15384 0.0
H1382 H 0.64539 0.10891 0.15926 0.0
H1383 H 0.62012 0.08361 0.14378 0.0
H1384 H 0.68703 0.13221 0.15486 0.0
H1385 H 0.70028 0.0646 0.19615 0.0
H1386 H 0.70971 0.05496 0.17906 0.0
H1387 H 0.67851 0.06078 0.182 0.0
C1388 C 0.67143 0.05041 0.14298 0.0
C1389 C 0.64754 0.05687 0.13997 0.0
C1390 C 0.68592 0.06499 0.15178 0.0
C1391 C 0.67663 0.08606 0.15788 0.0
C1392 C 0.65292 0.09273 0.15467 0.0
H1393 H 0.72107 0.16737 0.23112 0.0
H1394 H 0.7032 0.13993 0.21354 0.0
C1395 C 0.63852 0.0783 0.14579 0.0
C1396 C 0.69137 0.10122 0.1677 0.0
H1397 H 0.7209 0.10133 0.19945 0.0
C1398 C 0.69454 0.12546 0.16459 0.0
C1399 C 0.7009 0.09239 0.18045 0.0
C1400 C 0.69704 0.06683 0.18472 0.0
C1401 C 0.70667 0.14124 0.17397 0.0
C1402 C 0.71643 0.13235 0.18665 0.0
C1403 C 0.71357 0.10803 0.18967 0.0
C1404 C 0.72824 0.1483 0.19737 0.0
C1405 C 0.70804 0.16744 0.17046 0.0
C1406 C 0.74856 0.1618 0.1942 0.0
C1407 C 0.75871 0.17772 0.2042 0.0
C1408 C 0.74891 0.18016 0.21761 0.0
C1409 C 0.72906 0.16597 0.22089 0.0
C1410 C 0.71882 0.15024 0.21085 0.0
H1411 H 0.69468 0.17224 0.16217 0.0
H1412 H 0.70502 0.179 0.17988 0.0
H1413 H 0.72614 0.17143 0.16653 0.0
H1414 H 0.75647 0.16014 0.18396 0.0
H1415 H 0.77414 0.18821 0.20139 0.0
H1416 H 0.98521 0.13488 0.38934 0.0
H1417 H 0.96177 0.15865 0.40598 0.0
H1418 H 0.01501 0.14633 0.43847 0.0
H1419 H 0.03829 0.12198 0.42206 0.0
H1420 H 0.94455 0.14091 0.43277 0.0
H1421 H 0.00377 0.22084 0.43891 0.0
H1422 H 0.00503 0.2004 0.42396 0.0
H1423 H 0.01812 0.19213 0.44052 0.0
C1424 C 0.99192 0.13711 0.40004 0.0
C1425 C 0.01365 0.12646 0.40436 0.0
C1426 C 0.97857 0.15084 0.40949 0.0
C1427 C 0.98683 0.15442 0.42337 0.0
C1428 C 0.00858 0.14409 0.42771 0.0
H1429 H 0.93311 0.22419 0.49814 0.0
H1430 H 0.95722 0.20469 0.48009 0.0
C1431 C 0.02188 0.13023 0.4183 0.0
C1432 C 0.97209 0.16793 0.43353 0.0
H1433 H 0.97102 0.21868 0.45418 0.0
C1434 C 0.9502 0.15799 0.4374 0.0
C1435 C 0.9797 0.19008 0.43958 0.0
C1436 C 0.00285 0.20168 0.4355 0.0
C1437 C 0.93588 0.1694 0.44745 0.0
C1438 C 0.94339 0.19167 0.45347 0.0
C1439 C 0.96526 0.20165 0.44952 0.0
C1440 C 0.92902 0.2046 0.46412 0.0
C1441 C 0.91326 0.15707 0.45183 0.0
C1442 C 0.90535 0.21157 0.46103 0.0
C1443 C 0.89145 0.22253 0.47136 0.0
C1444 C 0.9011 0.22706 0.48491 0.0
C1445 C 0.92512 0.22092 0.48781 0.0
C1446 C 0.93893 0.20978 0.47751 0.0
H1447 H 0.91356 0.13757 0.4492 0.0
H1448 H 0.91057 0.15944 0.46328 0.0
H1449 H 0.89765 0.16497 0.4462 0.0
H1450 H 0.89753 0.20832 0.45066 0.0
H1451 H 0.87309 0.22727 0.46874 0.0
H1452 H 0.89126 0.51773 0.6454 0.0
H1453 H 0.86579 0.49347 0.66019 0.0
H1454 H 0.91235 0.43276 0.65367 0.0
H1455 H 0.93791 0.45688 0.63902 0.0
H1456 H 0.84097 0.44984 0.65571 0.0
H1457 H 0.91305 0.44161 0.69633 0.0
H1458 H 0.91457 0.46271 0.68233 0.0
H1459 H 0.92197 0.4317 0.67919 0.0
C1460 C 0.89586 0.49912 0.64698 0.0
C1461 C 0.91674 0.48927 0.64122 0.0
C1462 C 0.88135 0.48532 0.65545 0.0
C1463 C 0.8875 0.46149 0.65827 0.0
C1464 C 0.90763 0.4513 0.65192 0.0
H1465 H 0.83652 0.34644 0.70787 0.0
H1466 H 0.85504 0.37191 0.69068 0.0
C1467 C 0.92219 0.46508 0.64355 0.0
C1468 C 0.87347 0.44744 0.66821 0.0
H1469 H 0.87887 0.41667 0.69864 0.0
C1470 C 0.84916 0.44272 0.66515 0.0
C1471 C 0.88419 0.43836 0.68059 0.0
C1472 C 0.90981 0.44403 0.68491 0.0
C1473 C 0.8355 0.42842 0.67392 0.0
C1474 C 0.84647 0.41881 0.68606 0.0
C1475 C 0.87061 0.42392 0.68925 0.0
C1476 C 0.83346 0.40304 0.69557 0.0
C1477 C 0.80968 0.42311 0.67 0.0
C1478 C 0.81507 0.41212 0.70395 0.0
C1479 C 0.80447 0.39762 0.71386 0.0
C1480 C 0.81214 0.37382 0.71555 0.0
C1481 C 0.83016 0.36467 0.70686 0.0
C1482 C 0.84079 0.37918 0.69702 0.0
H1483 H 0.80511 0.42835 0.65909 0.0
H1484 H 0.8058 0.40373 0.67107 0.0
H1485 H 0.79787 0.43322 0.67723 0.0
H1486 H 0.80942 0.43061 0.70311 0.0
H1487 H 0.79066 0.40523 0.7204 0.0
H1488 H 0.64902 0.05573 0.36595 0.0
H1489 H 0.6679 0.08181 0.34916 0.0
H1490 H 0.60766 0.13004 0.35126 0.0
H1491 H 0.58913 0.10465 0.36849 0.0
H1492 H 0.65081 0.09417 0.32319 0.0
H1493 H 0.66379 0.17571 0.35694 0.0
H1494 H 0.65653 0.14691 0.36396 0.0
H1495 H 0.63343 0.16502 0.35612 0.0
C1496 C 0.63998 0.07211 0.36305 0.0
C1497 C 0.61759 0.07812 0.36862 0.0
C1498 C 0.65072 0.08691 0.35337 0.0
C1499 C 0.63935 0.10804 0.3491 0.0
C1500 C 0.61699 0.11408 0.35461 0.0
H1501 H 0.67236 0.21316 0.28618 0.0
H1502 H 0.65297 0.18916 0.30391 0.0
C1503 C 0.60627 0.09935 0.36432 0.0
C1504 C 0.65046 0.12321 0.33846 0.0
H1505 H 0.67091 0.17975 0.33262 0.0
C1506 C 0.65531 0.11284 0.32528 0.0
C1507 C 0.65623 0.1476 0.3412 0.0
C1508 C 0.65245 0.15945 0.35536 0.0
C1509 C 0.66557 0.12627 0.3147 0.0
C1510 C 0.67133 0.15062 0.31744 0.0
C1511 C 0.66636 0.16107 0.33057 0.0
C1512 C 0.68312 0.16534 0.30689 0.0
C1513 C 0.66993 0.11441 0.30061 0.0
C1514 C 0.70658 0.16004 0.30289 0.0
C1515 C 0.71773 0.17372 0.29284 0.0
C1516 C 0.7056 0.19297 0.28659 0.0
C1517 C 0.68215 0.1984 0.29075 0.0
C1518 C 0.67106 0.18476 0.30088 0.0
H1519 H 0.65974 0.09739 0.29917 0.0
H1520 H 0.66486 0.12656 0.29198 0.0
H1521 H 0.6893 0.11026 0.29977 0.0
H1522 H 0.71629 0.14532 0.30757 0.0
H1523 H 0.73581 0.16907 0.28992 0.0
H1524 H 0.01843 0.14794 0.62039 0.0
H1525 H 0.99064 0.16972 0.60509 0.0
H1526 H 0.93771 0.11415 0.60933 0.0
H1527 H 0.9655 0.09218 0.62453 0.0
H1528 H 0.9429 0.12657 0.58219 0.0
H1529 H 0.93178 0.20801 0.61585 0.0
H1530 H 0.96249 0.20137 0.61215 0.0
H1531 H 0.94538 0.18092 0.62225 0.0
C1532 C 0.00077 0.14052 0.61818 0.0
C1533 C 0.99411 0.11838 0.62366 0.0
C1534 C 0.98489 0.153 0.60948 0.0
C1535 C 0.96198 0.14373 0.60625 0.0
C1536 C 0.95529 0.12164 0.61172 0.0
H1537 H 0.84409 0.22138 0.56739 0.0
H1538 H 0.87054 0.19941 0.58333 0.0
C1539 C 0.9712 0.10908 0.62035 0.0
C1540 C 0.94525 0.15658 0.59678 0.0
H1541 H 0.9162 0.2098 0.59244 0.0
C1542 C 0.93697 0.14474 0.58445 0.0
C1543 C 0.9373 0.18015 0.59985 0.0
C1544 C 0.94449 0.1933 0.61331 0.0
C1545 C 0.92122 0.15595 0.575 0.0
C1546 C 0.914 0.17985 0.57781 0.0
C1547 C 0.92197 0.19157 0.59024 0.0
C1548 C 0.898 0.19297 0.56804 0.0
C1549 C 0.91215 0.14194 0.56222 0.0
C1550 C 0.90479 0.19683 0.5542 0.0
C1551 C 0.88966 0.20923 0.54503 0.0
C1552 C 0.86755 0.21827 0.54959 0.0
C1553 C 0.86096 0.21463 0.56353 0.0
C1554 C 0.87606 0.20211 0.57266 0.0
H1555 H 0.91383 0.12231 0.56365 0.0
H1556 H 0.89308 0.14619 0.55979 0.0
H1557 H 0.92292 0.14672 0.55306 0.0
H1558 H 0.9219 0.19042 0.55052 0.0
H1559 H 0.89539 0.21189 0.53441 0.0
H1560 H 0.94637 0.45118 0.86301 0.0
H1561 H 0.92542 0.42561 0.84556 0.0
H1562 H 0.86948 0.47853 0.84165 0.0
H1563 H 0.89034 0.50422 0.85923 0.0
H1564 H 0.85187 0.43283 0.84366 0.0
H1565 H 0.92184 0.43543 0.80347 0.0
H1566 H 0.93329 0.42599 0.82019 0.0
H1567 H 0.92164 0.45586 0.81843 0.0
C1568 C 0.92971 0.45747 0.85834 0.0
C1569 C 0.92009 0.47979 0.86238 0.0
C1570 C 0.91781 0.44287 0.84836 0.0
C1571 C 0.89619 0.45042 0.8421 0.0
C1572 C 0.88625 0.47248 0.8463 0.0
H1573 H 0.83282 0.37691 0.76844 0.0
H1574 H 0.8505 0.40694 0.78466 0.0
C1575 C 0.89812 0.48707 0.85636 0.0
C1576 C 0.88374 0.43493 0.83143 0.0
H1577 H 0.89176 0.40513 0.80025 0.0
C1578 C 0.86048 0.42692 0.8341 0.0
C1579 C 0.89486 0.42761 0.81886 0.0
C1580 C 0.91918 0.43686 0.81497 0.0
C1581 C 0.84836 0.41108 0.82476 0.0
C1582 C 0.86005 0.40266 0.81259 0.0
C1583 C 0.88296 0.41135 0.80968 0.0
C1584 C 0.84902 0.38456 0.80284 0.0
C1585 C 0.82311 0.40363 0.82797 0.0
C1586 C 0.84268 0.36191 0.80766 0.0
C1587 C 0.83249 0.34475 0.79844 0.0
C1588 C 0.82872 0.34983 0.78419 0.0
C1589 C 0.83548 0.37241 0.77935 0.0
C1590 C 0.84556 0.38961 0.7886 0.0
H1591 H 0.81437 0.41687 0.83507 0.0
H1592 H 0.81195 0.40152 0.81822 0.0
H1593 H 0.8236 0.38617 0.8333 0.0
H1594 H 0.84579 0.35742 0.81854 0.0
H1595 H 0.82766 0.32748 0.8025 0.0
H1596 H 0.57221 0.3808 0.11815 0.0
H1597 H 0.59934 0.35852 0.10282 0.0
H1598 H 0.65234 0.41442 0.10847 0.0
H1599 H 0.62525 0.43686 0.1237 0.0
H1600 H 0.64442 0.40212 0.08094 0.0
H1601 H 0.65957 0.3206 0.11211 0.0
H1602 H 0.62847 0.32709 0.10879 0.0
H1603 H 0.64645 0.34755 0.11942 0.0
C1604 C 0.58982 0.38811 0.11632 0.0
C1605 C 0.59662 0.41057 0.12211 0.0
C1606 C 0.60531 0.37536 0.10757 0.0
C1607 C 0.62796 0.3847 0.10463 0.0
C1608 C 0.63494 0.4069 0.11061 0.0
H1609 H 0.74377 0.30987 0.06333 0.0
H1610 H 0.7181 0.33126 0.07981 0.0
C1611 C 0.61944 0.41971 0.11928 0.0
C1612 C 0.64388 0.37204 0.09469 0.0
H1613 H 0.67322 0.31928 0.08864 0.0
C1614 C 0.6508 0.38404 0.08265 0.0
C1615 C 0.65237 0.34856 0.09701 0.0
C1616 C 0.64654 0.33525 0.1101 0.0
C1617 C 0.66578 0.37309 0.07278 0.0
C1618 C 0.67363 0.34932 0.07488 0.0
C1619 C 0.66696 0.33742 0.087 0.0
C1620 C 0.68913 0.33661 0.06474 0.0
C1621 C 0.67342 0.38725 0.06036 0.0
C1622 C 0.68128 0.33239 0.05081 0.0
C1623 C 0.69597 0.32029 0.04132 0.0
C1624 C 0.7187 0.31196 0.04563 0.0
C1625 C 0.7264 0.31607 0.05964 0.0
C1626 C 0.71174 0.32825 0.06909 0.0
H1627 H 0.67128 0.40684 0.06226 0.0
H1628 H 0.6924 0.38354 0.05783 0.0
H1629 H 0.66207 0.38204 0.05107 0.0
H1630 H 0.66368 0.33826 0.04731 0.0
H1631 H 0.68941 0.31727 0.03064 0.0
loop_
_geom_bond_atom_site_label_1
_geom_bond_atom_site_label_2
_geom_bond_distance
_geom_bond_site_symmetry_2
_ccdc_geom_bond_type
C0 C1 1.384 . S
C0 C2 1.384 . S
C0 H28 0.931 . S
C1 C0 1.384 . S
C1 C4 1.382 1_565 S
C2 C0 1.384 . S
C2 C3 1.381 1_565 S
C2 H29 0.930 . S
C3 C2 1.381 1_545 S
C3 C5 1.381 . S
C3 C6 1.487 . S
C4 C1 1.382 1_545 S
C4 C5 1.387 . S
C4 H30 0.930 . S
C5 C3 1.381 . S
C5 C4 1.387 . S
C5 H31 0.931 . S
C6 C3 1.487 . S
C6 C13 1.399 . S
C6 N44 1.343 . S
C7 C8 1.384 . S
C7 C9 1.406 . S
C7 H32 0.931 . S
C8 C7 1.384 . S
C8 C11 1.382 . S
C9 C7 1.406 . S
C9 C10 1.385 . S
C9 H33 0.906 1_565 S
C10 C9 1.385 . S
C10 C12 1.381 . S
C10 C13 1.487 1_565 S
C11 C8 1.382 . S
C11 C12 1.387 . S
C11 H34 0.930 . S
C12 C10 1.381 . S
C12 C11 1.387 . S
C12 H35 0.931 . S
C13 C6 1.399 . S
C13 C10 1.487 1_545 S
C13 N45 1.343 . S
C14 C15 1.384 . S
C14 C16 1.384 . S
C14 H36 0.931 . S
C15 C14 1.384 . S
C15 C18 1.382 . S
C16 C14 1.384 . S
C16 C17 1.381 . S
C16 H37 0.930 . S
C17 C16 1.381 . S
C17 C19 1.381 . S
C17 C20 1.487 . S
C18 C15 1.382 . S
C18 C19 1.387 . S
C18 H38 0.944 . S
C19 C17 1.381 . S
C19 C18 1.387 . S
C19 H39 0.931 . S
C20 C17 1.487 . S
C20 C27 1.399 . S
C20 N45 1.343 . S
C21 C22 1.384 1_655 S
C21 C23 1.384 1_655 S
C21 H40 0.931 . S
C22 C21 1.384 1_455 S
C22 C25 1.382 . S
C23 C21 1.384 1_455 S
C23 C24 1.381 . S
C23 H41 0.930 . S
C24 C23 1.381 . S
C24 C26 1.381 . S
C24 C27 1.487 . S
C25 C22 1.382 . S
C25 C26 1.387 . S
C25 H42 0.930 . S
C26 C24 1.381 . S
C26 C25 1.387 . S
C26 H43 0.931 . S
C27 C20 1.399 . S
C27 C24 1.487 . S
C27 N44 1.343 . S
H28 C0 0.931 . S
H29 C2 0.930 . S
H30 C4 0.930 . S
H31 C5 0.931 . S
H32 C7 0.931 . S
H33 C9 0.906 1_545 S
H34 C11 0.930 . S
H35 C12 0.931 . S
H36 C14 0.931 . S
H37 C16 0.930 . S
H38 C18 0.944 . S
H39 C19 0.931 . S
H40 C21 0.931 . S
H41 C23 0.930 . S
H42 C25 0.930 . S
H43 C26 0.931 . S
N44 C6 1.343 . S
N44 C27 1.343 . S
N45 C13 1.343 . S
N45 C20 1.343 . S
C46 C47 1.384 . S
C46 C48 1.384 . S
C46 H74 0.931 . S
C47 C46 1.384 . S
C47 C50 1.382 . S
C48 C46 1.384 . S
C48 C49 1.381 . S
C48 H75 0.930 . S
C49 C48 1.381 . S
C49 C51 1.381 . S
C49 C52 1.503 . S
C50 C47 1.382 . S
C50 C51 1.387 . S
C50 H76 0.930 . S
C51 C49 1.381 . S
C51 C50 1.387 . S
C51 H77 0.931 1_655 S
C52 C49 1.503 . S
C52 C59 1.398 . S
C52 N90 1.329 1_655 S
C53 C54 1.384 . S
C53 C55 1.384 . S
C53 H78 0.931 . S
C54 C53 1.384 . S
C54 C57 1.382 . S
C55 C53 1.384 . S
C55 C56 1.381 . S
C55 H79 0.930 . S
C56 C55 1.381 . S
C56 C58 1.381 . S
C56 C59 1.488 . S
C57 C54 1.382 . S
C57 C58 1.387 . S
C57 H80 0.930 . S
C58 C56 1.381 . S
C58 C57 1.387 . S
C58 H81 0.931 . S
C59 C52 1.398 . S
C59 C56 1.488 . S
C59 N91 1.342 1_655 S
C60 C61 1.384 . S
C60 C62 1.384 . S
C60 H82 0.931 . S
C61 C60 1.384 . S
C61 C64 1.382 . S
C62 C60 1.384 . S
C62 C63 1.381 . S
C62 H83 0.930 . S
C63 C62 1.381 . S
C63 C65 1.381 . S
C63 C66 1.487 . S
C64 C61 1.382 . S
C64 C65 1.387 . S
C64 H84 0.930 . S
C65 C63 1.381 . S
C65 C64 1.387 . S
C65 H85 0.931 . S
C66 C63 1.487 . S
C66 C73 1.399 . S
C66 N91 1.343 . S
C67 C68 1.384 . S
C67 C69 1.384 . S
C67 H86 0.931 . S
C68 C67 1.384 . S
C68 C71 1.382 . S
C69 C67 1.384 . S
C69 C70 1.381 . S
C69 H87 0.930 . S
C70 C69 1.381 . S
C70 C72 1.381 . S
C70 C73 1.487 . S
C71 C68 1.382 . S
C71 C72 1.387 . S
C71 H88 0.930 . S
C72 C70 1.381 . S
C72 C71 1.387 . S
C72 H89 0.931 . S
C73 C66 1.399 . S
C73 C70 1.487 . S
C73 N90 1.343 . S
H74 C46 0.931 . S
H75 C48 0.930 . S
H76 C50 0.930 . S
H77 C51 0.931 1_455 S
H78 C53 0.931 . S
H79 C55 0.930 . S
H80 C57 0.930 . S
H81 C58 0.931 . S
H82 C60 0.931 . S
H83 C62 0.930 . S
H84 C64 0.930 . S
H85 C65 0.931 . S
H86 C67 0.931 . S
H87 C69 0.930 . S
H88 C71 0.930 . S
H89 C72 0.931 . S
N90 C52 1.329 1_455 S
N90 C73 1.343 . S
N91 C59 1.342 1_455 S
N91 C66 1.343 . S
C92 C93 1.384 . S
C92 C94 1.384 . S
C92 H120 0.931 . S
C93 C92 1.384 . S
C93 C96 1.382 . S
C94 C92 1.384 . S
C94 C95 1.381 . S
C94 H121 0.930 . S
C95 C94 1.381 . S
C95 C97 1.381 . S
C95 C98 1.487 . S
C96 C93 1.382 . S
C96 C97 1.387 . S
C96 H122 0.930 . S
C97 C95 1.381 . S
C97 C96 1.387 . S
C97 H123 0.931 . S
C98 C95 1.487 . S
C98 C105 1.399 . S
C98 N136 1.343 . S
C99 C100 1.384 . S
C99 C101 1.384 . S
C99 H124 0.931 . S
C100 C99 1.384 . S
C100 C103 1.382 . S
C101 C99 1.384 . S
C101 C102 1.381 . S
C101 H125 0.930 . S
C102 C101 1.381 . S
C102 C104 1.381 . S
C102 C105 1.487 . S
C103 C100 1.382 . S
C103 C104 1.387 . S
C103 H126 0.930 . S
C104 C102 1.381 . S
C104 C103 1.387 . S
C104 H127 0.931 . S
C105 C98 1.399 . S
C105 C102 1.487 . S
C105 N137 1.343 . S
C106 C107 1.384 . S
C106 C108 1.384 . S
C106 H128 0.931 . S
C107 C106 1.384 . S
C107 C110 1.382 . S
C108 C106 1.384 . S
C108 C109 1.381 . S
C108 H129 0.930 . S
C109 C108 1.381 . S
C109 C111 1.381 . S
C109 C112 1.487 . S
C110 C107 1.382 . S
C110 C111 1.387 . S
C110 H130 0.930 . S
C111 C109 1.381 . S
C111 C110 1.387 . S
C111 H131 0.931 . S
C112 C109 1.487 . S
C112 C119 1.399 . S
C112 N137 1.343 . S
C113 C114 1.384 . S
C113 C115 1.384 . S
C113 H132 0.931 . S
C114 C113 1.384 . S
C114 C117 1.382 . S
C115 C113 1.384 . S
C115 C116 1.381 . S
C115 H133 0.930 . S
C116 C115 1.381 . S
C116 C118 1.381 . S
C116 C119 1.487 . S
C117 C114 1.382 . S
C117 C118 1.387 . S
C117 H134 0.930 . S
C118 C116 1.381 . S
C118 C117 1.387 . S
C118 H135 0.931 . S
C119 C112 1.399 . S
C119 C116 1.487 . S
C119 N136 1.343 . S
H120 C92 0.931 . S
H121 C94 0.930 . S
H122 C96 0.930 . S
H123 C97 0.931 . S
H124 C99 0.931 . S
H125 C101 0.930 . S
H126 C103 0.930 . S
H127 C104 0.931 . S
H128 C106 0.931 . S
H129 C108 0.930 . S
H130 C110 0.930 . S
H131 C111 0.931 . S
H132 C113 0.931 . S
H133 C115 0.930 . S
H134 C117 0.930 . S
H135 C118 0.931 . S
N136 C98 1.343 . S
N136 C119 1.343 . S
N137 C105 1.343 . S
N137 C112 1.343 . S
C138 C139 1.384 . S
C138 C140 1.384 . S
C138 H166 0.931 . S
C139 C138 1.384 . S
C139 C142 1.382 . S
C140 C138 1.384 . S
C140 C141 1.381 . S
C140 H167 0.930 . S
C141 C140 1.381 . S
C141 C143 1.381 . S
C141 C144 1.487 . S
C142 C139 1.382 . S
C142 C143 1.387 . S
C142 H168 0.930 . S
C143 C141 1.381 . S
C143 C142 1.387 . S
C143 H169 0.931 . S
C144 C141 1.487 . S
C144 C151 1.399 . S
C144 N182 1.343 1_565 S
C145 C146 1.384 . S
C145 C147 1.384 . S
C145 H170 0.931 . S
C146 C145 1.384 . S
C146 C149 1.382 . S
C147 C145 1.384 . S
C147 C148 1.381 . S
C147 H171 0.930 . S
C148 C147 1.381 . S
C148 C150 1.381 . S
C148 C151 1.487 . S
C149 C146 1.382 . S
C149 C150 1.387 . S
C149 H172 0.930 . S
C150 C148 1.381 . S
C150 C149 1.387 . S
C150 H173 0.931 . S
C151 C144 1.399 . S
C151 C148 1.487 . S
C151 N183 1.343 . S
C152 C153 1.384 . S
C152 C154 1.384 . S
C152 H174 0.931 . S
C153 C152 1.384 . S
C153 C156 1.382 . S
C154 C152 1.384 . S
C154 C155 1.381 . S
C154 H175 0.930 . S
C155 C154 1.381 . S
C155 C157 1.381 . S
C155 C158 1.487 . S
C156 C153 1.382 . S
C156 C157 1.387 . S
C156 H176 0.930 . S
C157 C155 1.381 . S
C157 C156 1.387 . S
C157 H177 0.931 . S
C158 C155 1.487 . S
C158 C165 1.399 . S
C158 N183 1.343 1_545 S
C159 C160 1.384 . S
C159 C161 1.384 . S
C159 H178 0.931 . S
C160 C159 1.384 . S
C160 C163 1.382 . S
C161 C159 1.384 . S
C161 C162 1.381 . S
C161 H179 0.930 . S
C162 C161 1.381 . S
C162 C164 1.381 . S
C162 C165 1.487 . S
C163 C160 1.382 . S
C163 C164 1.387 . S
C163 H180 0.930 . S
C164 C162 1.381 . S
C164 C163 1.387 . S
C164 H181 0.931 . S
C165 C158 1.399 . S
C165 C162 1.487 . S
C165 N182 1.343 . S
H166 C138 0.931 . S
H167 C140 0.930 . S
H168 C142 0.930 . S
H169 C143 0.931 . S
H170 C145 0.931 . S
H171 C147 0.930 . S
H172 C149 0.930 . S
H173 C150 0.931 . S
H174 C152 0.931 . S
H175 C154 0.930 . S
H176 C156 0.930 . S
H177 C157 0.931 . S
H178 C159 0.931 . S
H179 C161 0.930 . S
H180 C163 0.930 . S
H181 C164 0.931 . S
N182 C144 1.343 1_545 S
N182 C165 1.343 . S
N183 C151 1.343 . S
N183 C158 1.343 1_565 S
C184 C185 1.384 . S
C184 C186 1.384 . S
C184 H212 0.931 . S
C185 C184 1.384 . S
C185 C188 1.382 . S
C186 C184 1.384 . S
C186 C187 1.381 . S
C186 H213 0.930 . S
C187 C186 1.381 . S
C187 C189 1.381 . S
C187 C190 1.487 . S
C188 C185 1.382 . S
C188 C189 1.387 . S
C188 H214 0.930 . S
C189 C187 1.381 . S
C189 C188 1.387 . S
C189 H215 0.931 . S
C190 C187 1.487 . S
C190 C197 1.399 . S
C190 N228 1.343 . S
C191 C192 1.384 . S
C191 C193 1.384 . S
C191 H216 0.931 . S
C192 C191 1.384 . S
C192 C195 1.382 . S
C193 C191 1.384 . S
C193 C194 1.381 . S
C193 H217 0.930 . S
C194 C193 1.381 . S
C194 C196 1.381 . S
C194 C197 1.487 . S
C195 C192 1.382 . S
C195 C196 1.387 . S
C195 H218 0.930 . S
C196 C194 1.381 . S
C196 C195 1.387 . S
C196 H219 0.931 . S
C197 C190 1.399 . S
C197 C194 1.487 . S
C197 N229 1.347 . S
C198 C199 1.384 . S
C198 C200 1.384 . S
C198 H220 0.931 . S
C199 C198 1.384 . S
C199 C202 1.382 . S
C200 C198 1.384 . S
C200 C201 1.381 . S
C200 H221 0.930 . S
C201 C200 1.381 . S
C201 C203 1.381 . S
C201 C204 1.487 . S
C202 C199 1.382 . S
C202 C203 1.387 . S
C202 H222 0.930 . S
C203 C201 1.381 . S
C203 C202 1.387 . S
C203 H223 0.931 . S
C204 C201 1.487 . S
C204 C211 1.399 . S
C204 N229 1.339 1_655 S
C205 C206 1.384 . S
C205 C207 1.384 . S
C205 H224 0.931 . S
C206 C205 1.384 . S
C206 C209 1.382 . S
C207 C205 1.384 . S
C207 C208 1.381 . S
C207 H225 0.930 . S
C208 C207 1.381 . S
C208 C210 1.381 . S
C208 C211 1.487 . S
C209 C206 1.382 . S
C209 C210 1.387 . S
C209 H226 0.930 . S
C210 C208 1.381 . S
C210 C209 1.387 . S
C210 H227 0.931 . S
C211 C204 1.399 . S
C211 C208 1.487 . S
C211 N228 1.343 1_655 S
H212 C184 0.931 . S
H213 C186 0.930 . S
H214 C188 0.930 . S
H215 C189 0.931 . S
H216 C191 0.931 . S
H217 C193 0.930 . S
H218 C195 0.930 . S
H219 C196 0.931 . S
H220 C198 0.931 . S
H221 C200 0.930 . S
H222 C202 0.930 . S
H223 C203 0.931 . S
H224 C205 0.931 . S
H225 C207 0.930 . S
H226 C209 0.930 . S
H227 C210 0.931 . S
N228 C190 1.343 . S
N228 C211 1.343 1_455 S
N229 C197 1.347 . S
N229 C204 1.339 1_455 S
C230 C231 1.384 . S
C230 C232 1.384 . S
C230 H258 0.931 . S
C231 C230 1.384 . S
C231 C234 1.382 . S
C232 C230 1.384 . S
C232 C233 1.381 . S
C232 H259 0.930 . S
C233 C232 1.381 . S
C233 C235 1.381 . S
C233 C236 1.487 . S
C234 C231 1.382 . S
C234 C235 1.387 . S
C234 H260 0.930 . S
C235 C233 1.381 . S
C235 C234 1.387 . S
C235 H261 0.931 . S
C236 C233 1.487 . S
C236 C243 1.399 . S
C236 N274 1.343 . S
C237 C238 1.384 . S
C237 C239 1.384 . S
C237 H262 0.931 . S
C238 C237 1.384 . S
C238 C241 1.382 . S
C239 C237 1.384 . S
C239 C240 1.381 . S
C239 H263 0.930 . S
C240 C239 1.381 . S
C240 C242 1.381 . S
C240 C243 1.487 . S
C241 C238 1.382 . S
C241 C242 1.387 . S
C241 H264 0.930 . S
C242 C240 1.381 . S
C242 C241 1.387 . S
C242 H265 0.931 . S
C243 C236 1.399 . S
C243 C240 1.487 . S
C243 N275 1.343 . S
C244 C245 1.384 . S
C244 C246 1.384 . S
C244 H266 0.931 . S
C245 C244 1.384 . S
C245 C248 1.382 . S
C246 C244 1.384 . S
C246 C247 1.381 . S
C246 H267 0.930 . S
C247 C246 1.381 . S
C247 C249 1.381 . S
C247 C250 1.487 . S
C248 C245 1.382 . S
C248 C249 1.387 . S
C248 H268 0.930 . S
C249 C247 1.381 . S
C249 C248 1.387 . S
C249 H269 0.931 . S
C250 C247 1.487 . S
C250 C257 1.399 . S
C250 N275 1.343 . S
C251 C252 1.384 . S
C251 C253 1.384 . S
C251 H270 0.931 . S
C252 C251 1.384 . S
C252 C255 1.382 . S
C253 C251 1.384 . S
C253 C254 1.381 . S
C253 H271 0.930 . S
C254 C253 1.381 . S
C254 C256 1.381 . S
C254 C257 1.487 . S
C255 C252 1.382 . S
C255 C256 1.387 . S
C255 H272 0.930 . S
C256 C254 1.381 . S
C256 C255 1.387 . S
C256 H273 0.931 . S
C257 C250 1.399 . S
C257 C254 1.487 . S
C257 N274 1.343 . S
H258 C230 0.931 . S
H259 C232 0.930 . S
H260 C234 0.930 . S
H261 C235 0.931 . S
H262 C237 0.931 . S
H263 C239 0.930 . S
H264 C241 0.930 . S
H265 C242 0.931 . S
H266 C244 0.931 . S
H267 C246 0.930 . S
H268 C248 0.930 . S
H269 C249 0.931 . S
H270 C251 0.931 . S
H271 C253 0.930 . S
H272 C255 0.930 . S
H273 C256 0.931 . S
N274 C236 1.343 . S
N274 C257 1.343 . S
N275 C243 1.343 . S
N275 C250 1.343 . S
C276 C277 1.384 . S
C276 C278 1.384 . S
C276 H304 0.931 . S
C277 C276 1.384 . S
C277 C280 1.382 . S
C278 C276 1.384 . S
C278 C279 1.381 . S
C278 H305 0.930 . S
C279 C278 1.381 . S
C279 C281 1.381 . S
C279 C282 1.487 . S
C280 C277 1.382 . S
C280 C281 1.387 . S
C280 H306 0.930 . S
C281 C279 1.381 . S
C281 C280 1.387 . S
C281 H307 0.931 1_565 S
C282 C279 1.487 . S
C282 C289 1.399 . S
C282 N320 1.343 1_565 S
C283 C284 1.384 . S
C283 C285 1.384 . S
C283 H308 0.931 . S
C284 C283 1.384 . S
C284 C287 1.382 . S
C285 C283 1.384 . S
C285 C286 1.381 . S
C285 H309 0.930 . S
C286 C285 1.381 . S
C286 C288 1.381 . S
C286 C289 1.487 . S
C287 C284 1.382 . S
C287 C288 1.387 . S
C287 H310 0.930 . S
C288 C286 1.381 . S
C288 C287 1.387 . S
C288 H311 0.931 . S
C289 C282 1.399 . S
C289 C286 1.487 . S
C289 N321 1.343 1_565 S
C290 C291 1.384 . S
C290 C292 1.384 . S
C290 H312 0.931 . S
C291 C290 1.384 . S
C291 C294 1.382 . S
C292 C290 1.384 . S
C292 C293 1.381 . S
C292 H313 0.930 . S
C293 C292 1.381 . S
C293 C295 1.381 . S
C293 C296 1.487 . S
C294 C291 1.382 . S
C294 C295 1.387 . S
C294 H314 0.930 . S
C295 C293 1.381 . S
C295 C294 1.387 . S
C295 H315 0.931 . S
C296 C293 1.487 . S
C296 C303 1.399 . S
C296 N321 1.343 . S
C297 C298 1.384 . S
C297 C299 1.384 . S
C297 H316 0.931 . S
C298 C297 1.384 . S
C298 C301 1.382 . S
C299 C297 1.384 . S
C299 C300 1.381 . S
C299 H317 0.930 . S
C300 C299 1.381 . S
C300 C302 1.381 . S
C300 C303 1.487 . S
C301 C298 1.382 . S
C301 C302 1.387 . S
C301 H318 0.930 . S
C302 C300 1.381 . S
C302 C301 1.387 . S
C302 H319 0.931 . S
C303 C296 1.399 . S
C303 C300 1.487 . S
C303 N320 1.343 . S
H304 C276 0.931 . S
H305 C278 0.930 . S
H306 C280 0.930 . S
H307 C281 0.931 1_545 S
H308 C283 0.931 . S
H309 C285 0.930 . S
H310 C287 0.930 . S
H311 C288 0.931 . S
H312 C290 0.931 . S
H313 C292 0.930 . S
H314 C294 0.930 . S
H315 C295 0.931 . S
H316 C297 0.931 . S
H317 C299 0.930 . S
H318 C301 0.930 . S
H319 C302 0.931 . S
N320 C282 1.343 1_545 S
N320 C303 1.343 . S
N321 C289 1.343 1_545 S
N321 C296 1.343 . S
C322 C323 1.384 1_545 S
C322 C324 1.384 . S
C322 H350 0.927 1_545 S
C323 C322 1.384 1_565 S
C323 C326 1.382 . S
C324 C322 1.384 . S
C324 C325 1.381 . S
C324 H351 0.930 . S
C325 C324 1.381 . S
C325 C327 1.381 . S
C325 C328 1.487 . S
C326 C323 1.382 . S
C326 C327 1.387 1_565 S
C326 H352 0.930 . S
C327 C325 1.381 . S
C327 C326 1.387 1_545 S
C327 H353 0.931 . S
C328 C325 1.487 . S
C328 C335 1.399 . S
C328 N366 1.343 . S
C329 C330 1.384 . S
C329 C331 1.384 . S
C329 H354 0.931 . S
C330 C329 1.384 . S
C330 C333 1.382 1_565 S
C331 C329 1.384 . S
C331 C332 1.381 1_565 S
C331 H355 0.930 . S
C332 C331 1.381 1_545 S
C332 C334 1.381 . S
C332 C335 1.487 . S
C333 C330 1.382 1_545 S
C333 C334 1.387 . S
C333 H356 0.930 . S
C334 C332 1.381 . S
C334 C333 1.387 . S
C334 H357 0.931 . S
C335 C328 1.399 . S
C335 C332 1.487 . S
C335 N367 1.343 . S
C336 C337 1.384 1_655 S
C336 C338 1.384 1_655 S
C336 H358 0.931 . S
C337 C336 1.384 1_455 S
C337 C340 1.382 . S
C338 C336 1.384 1_455 S
C338 C339 1.381 . S
C338 H359 0.930 1_455 S
C339 C338 1.381 . S
C339 C341 1.381 . S
C339 C342 1.487 . S
C340 C337 1.382 . S
C340 C341 1.387 . S
C340 H360 0.930 . S
C341 C339 1.381 . S
C341 C340 1.387 . S
C341 H361 0.931 . S
C342 C339 1.487 . S
C342 C349 1.399 . S
C342 N367 1.343 . S
C343 C344 1.384 . S
C343 C345 1.384 . S
C343 H362 0.931 . S
C344 C343 1.384 . S
C344 C347 1.382 . S
C345 C343 1.384 . S
C345 C346 1.381 . S
C345 H363 0.930 . S
C346 C345 1.381 . S
C346 C348 1.381 . S
C346 C349 1.487 . S
C347 C344 1.382 . S
C347 C348 1.387 . S
C347 H364 0.915 1_455 S
C348 C346 1.381 . S
C348 C347 1.387 . S
C348 H365 0.931 . S
C349 C342 1.399 . S
C349 C346 1.487 . S
C349 N366 1.343 . S
H350 C322 0.927 1_565 S
H351 C324 0.930 . S
H352 C326 0.930 . S
H353 C327 0.931 . S
H354 C329 0.931 . S
H355 C331 0.930 . S
H356 C333 0.930 . S
H357 C334 0.931 . S
H358 C336 0.931 . S
H359 C338 0.930 1_655 S
H360 C340 0.930 . S
H361 C341 0.931 . S
H362 C343 0.931 . S
H363 C345 0.930 . S
H364 C347 0.915 1_655 S
H365 C348 0.931 . S
N366 C328 1.343 . S
N366 C349 1.343 . S
N367 C335 1.343 . S
N367 C342 1.343 . S
Zn368 O371 2.031 . S
Zn368 O373 2.049 1_556 S
Zn368 O378 2.067 . S
Zn369 O370 1.962 . S
Zn369 O372 1.986 . S
Zn369 O374 1.996 . S
Zn369 O377 1.943 . S
O370 Zn369 1.962 . S
O370 C375 1.254 . S
O371 Zn368 2.031 . S
O371 C375 1.269 1_556 S
O372 Zn369 1.986 . S
O372 C379 1.262 . S
O373 Zn368 2.049 1_554 S
O373 C381 1.260 . S
O374 Zn369 1.996 . S
O374 C381 1.257 . S
C375 O370 1.254 . S
C375 O371 1.269 1_554 S
C376 O377 1.249 1_556 S
C376 O378 1.270 . S
O377 Zn369 1.943 . S
O377 C376 1.249 1_554 S
O378 Zn368 2.067 . S
O378 C376 1.270 . S
C379 O372 1.262 . S
C379 O380 1.232 . S
O380 C379 1.232 . S
C381 O373 1.260 . S
C381 O374 1.257 . S
Zn382 O385 2.031 . S
Zn382 O387 2.049 . S
Zn382 O392 2.067 . S
Zn383 O384 1.962 . S
Zn383 O386 1.986 . S
Zn383 O388 1.996 . S
Zn383 O391 1.943 . S
O384 Zn383 1.962 . S
O384 C389 1.254 . S
O385 Zn382 2.031 . S
O385 C389 1.269 . S
O386 Zn383 1.986 . S
O386 C393 1.262 . S
O387 Zn382 2.049 . S
O387 C395 1.260 . S
O388 Zn383 1.996 . S
O388 C395 1.257 . S
C389 O384 1.254 . S
C389 O385 1.269 . S
C390 O391 1.249 . S
C390 O392 1.270 . S
O391 Zn383 1.943 . S
O391 C390 1.249 . S
O392 Zn382 2.067 . S
O392 C390 1.270 . S
C393 O386 1.262 . S
C393 O394 1.232 . S
O394 C393 1.232 . S
C395 O387 1.260 . S
C395 O388 1.257 . S
Zn396 O399 2.031 . S
Zn396 O401 2.049 . S
Zn396 O406 2.067 . S
Zn397 O398 1.962 . S
Zn397 O400 1.986 . S
Zn397 O402 1.996 . S
Zn397 O405 1.943 . S
O398 Zn397 1.962 . S
O398 C403 1.254 . S
O399 Zn396 2.031 . S
O399 C403 1.269 . S
O400 Zn397 1.986 . S
O400 C407 1.262 . S
O401 Zn396 2.049 . S
O401 C409 1.260 . S
O402 Zn397 1.996 . S
O402 C409 1.257 . S
C403 O398 1.254 . S
C403 O399 1.269 . S
C404 O405 1.249 . S
C404 O406 1.270 . S
O405 Zn397 1.943 . S
O405 C404 1.249 . S
O406 Zn396 2.067 . S
O406 C404 1.270 . S
C407 O400 1.262 . S
C407 O408 1.232 . S
O408 C407 1.232 . S
C409 O401 1.260 . S
C409 O402 1.257 . S
Zn410 O413 2.031 . S
Zn410 O415 2.049 . S
Zn410 O420 2.067 . S
Zn411 O412 1.962 . S
Zn411 O414 1.986 . S
Zn411 O416 1.996 . S
Zn411 O419 1.943 . S
O412 Zn411 1.962 . S
O412 C417 1.254 . S
O413 Zn410 2.031 . S
O413 C417 1.269 . S
O414 Zn411 1.986 . S
O414 C421 1.262 . S
O415 Zn410 2.049 . S
O415 C423 1.260 . S
O416 Zn411 1.996 . S
O416 C423 1.257 . S
C417 O412 1.254 . S
C417 O413 1.269 . S
C418 O419 1.249 . S
C418 O420 1.270 . S
O419 Zn411 1.943 . S
O419 C418 1.249 . S
O420 Zn410 2.067 . S
O420 C418 1.270 . S
C421 O414 1.262 . S
C421 O422 1.232 . S
O422 C421 1.232 . S
C423 O415 1.260 . S
C423 O416 1.257 . S
Zn424 O427 2.031 . S
Zn424 O429 2.049 . S
Zn424 O434 2.067 . S
Zn425 O426 1.962 . S
Zn425 O428 1.986 . S
Zn425 O430 1.996 . S
Zn425 O433 1.943 . S
O426 Zn425 1.962 . S
O426 C431 1.254 . S
O427 Zn424 2.031 . S
O427 C431 1.269 . S
O428 Zn425 1.986 . S
O428 C435 1.262 . S
O429 Zn424 2.049 . S
O429 C437 1.260 . S
O430 Zn425 1.996 . S
O430 C437 1.257 . S
C431 O426 1.254 . S
C431 O427 1.269 . S
C432 O433 1.249 . S
C432 O434 1.270 . S
O433 Zn425 1.943 . S
O433 C432 1.249 . S
O434 Zn424 2.067 . S
O434 C432 1.270 . S
C435 O428 1.262 . S
C435 O436 1.232 . S
O436 C435 1.232 . S
C437 O429 1.260 . S
C437 O430 1.257 . S
Zn438 O441 2.031 . S
Zn438 O443 2.049 . S
Zn438 O448 2.067 . S
Zn439 O440 1.962 . S
Zn439 O442 1.986 . S
Zn439 O444 1.996 . S
Zn439 O447 1.943 . S
O440 Zn439 1.962 . S
O440 C445 1.254 . S
O441 Zn438 2.031 . S
O441 C445 1.269 . S
O442 Zn439 1.986 . S
O442 C449 1.262 . S
O443 Zn438 2.049 . S
O443 C451 1.260 . S
O444 Zn439 1.996 . S
O444 C451 1.257 . S
C445 O440 1.254 . S
C445 O441 1.269 . S
C446 O447 1.249 . S
C446 O448 1.270 . S
O447 Zn439 1.943 . S
O447 C446 1.249 . S
O448 Zn438 2.067 . S
O448 C446 1.270 . S
C449 O442 1.262 . S
C449 O450 1.232 . S
O450 C449 1.232 . S
C451 O443 1.260 . S
C451 O444 1.257 . S
Zn452 O455 2.031 . S
Zn452 O457 2.049 . S
Zn452 O462 2.067 . S
Zn453 O454 1.962 . S
Zn453 O456 1.986 . S
Zn453 O458 1.996 . S
Zn453 O461 1.943 1_556 S
O454 Zn453 1.962 . S
O454 C459 1.254 1_556 S
O455 Zn452 2.031 . S
O455 C459 1.269 . S
O456 Zn453 1.986 . S
O456 C463 1.262 . S
O457 Zn452 2.049 . S
O457 C465 1.284 . S
O458 Zn453 1.996 . S
O458 C465 1.250 1_556 S
C459 O454 1.254 1_554 S
C459 O455 1.269 . S
C460 O461 1.249 . S
C460 O462 1.270 . S
O461 Zn453 1.943 1_554 S
O461 C460 1.249 . S
O462 Zn452 2.067 . S
O462 C460 1.270 . S
C463 O456 1.262 . S
C463 O464 1.232 . S
O464 C463 1.232 . S
C465 O457 1.284 . S
C465 O458 1.250 1_554 S
Zn466 O469 2.031 . S
Zn466 O471 2.049 . S
Zn466 O476 2.067 . S
Zn467 O468 1.962 . S
Zn467 O470 1.986 . S
Zn467 O472 1.996 . S
Zn467 O475 1.943 . S
O468 Zn467 1.962 . S
O468 C473 1.254 . S
O469 Zn466 2.031 . S
O469 C473 1.269 . S
O470 Zn467 1.986 . S
O470 C477 1.262 . S
O471 Zn466 2.049 . S
O471 C479 1.260 . S
O472 Zn467 1.996 . S
O472 C479 1.257 . S
C473 O468 1.254 . S
C473 O469 1.269 . S
C474 O475 1.249 . S
C474 O476 1.270 . S
O475 Zn467 1.943 . S
O475 C474 1.249 . S
O476 Zn466 2.067 . S
O476 C474 1.270 . S
C477 O470 1.262 . S
C477 O478 1.232 . S
O478 C477 1.232 . S
C479 O471 1.260 . S
C479 O472 1.257 . S
H480 C488 0.929 . S
H481 C490 0.930 . S
H482 C492 0.930 . S
H483 C495 0.929 . S
H484 C498 0.930 . S
H485 C500 0.960 . S
H486 C500 0.960 . S
H487 C500 0.960 . S
C488 H480 0.929 . S
C488 C489 1.377 . S
C488 C490 1.384 . S
C489 C488 1.377 . S
C489 C495 1.390 . S
C490 H481 0.930 . S
C490 C488 1.384 . S
C490 C491 1.372 . S
C491 C490 1.372 . S
C491 C492 1.400 . S
C491 C496 1.490 . S
C492 H482 0.930 . S
C492 C491 1.400 . S
C492 C495 1.386 . S
H493 C509 0.930 . S
H494 C510 0.931 . S
C495 H483 0.929 . S
C495 C489 1.390 . S
C495 C492 1.386 . S
C496 C491 1.490 . S
C496 C498 1.395 . S
C496 C499 1.403 . S
H497 C503 0.930 . S
C498 H484 0.930 . S
C498 C496 1.395 . S
C498 C501 1.403 . S
C499 C496 1.403 . S
C499 C500 1.524 . S
C499 C503 1.400 . S
C500 H485 0.960 . S
C500 H486 0.960 . S
C500 H487 0.960 . S
C500 C499 1.524 . S
C501 C498 1.403 . S
C501 C502 1.392 . S
C501 C505 1.495 . S
C502 C501 1.392 . S
C502 C503 1.385 . S
C502 C504 1.478 . S
C503 H497 0.930 . S
C503 C499 1.400 . S
C503 C502 1.385 . S
C504 C502 1.478 . S
C504 C506 1.381 . S
C504 C510 1.383 . S
C505 C501 1.495 . S
C505 H511 0.959 . S
C505 H512 0.961 . S
C505 H513 0.960 . S
C506 C504 1.381 . S
C506 C507 1.394 . S
C506 H514 0.930 . S
C507 C506 1.394 . S
C507 C508 1.383 . S
C507 H515 0.929 . S
C508 C507 1.383 . S
C508 C509 1.377 . S
C509 H493 0.930 . S
C509 C508 1.377 . S
C509 C510 1.379 . S
C510 H494 0.931 . S
C510 C504 1.383 . S
C510 C509 1.379 . S
H511 C505 0.959 . S
H512 C505 0.961 . S
H513 C505 0.960 . S
H514 C506 0.930 . S
H515 C507 0.929 . S
H516 C524 0.929 . S
H517 C526 0.930 . S
H518 C528 0.930 . S
H519 C531 0.929 . S
H520 C534 0.930 . S
H521 C536 0.960 . S
H522 C536 0.960 . S
H523 C536 0.960 . S
C524 H516 0.929 . S
C524 C525 1.377 . S
C524 C526 1.384 . S
C525 C524 1.377 . S
C525 C531 1.390 . S
C526 H517 0.930 . S
C526 C524 1.384 . S
C526 C527 1.372 . S
C527 C526 1.372 . S
C527 C528 1.400 . S
C527 C532 1.490 . S
C528 H518 0.930 . S
C528 C527 1.400 . S
C528 C531 1.386 . S
H529 C545 0.930 . S
H530 C546 0.931 . S
C531 H519 0.929 . S
C531 C525 1.390 . S
C531 C528 1.386 . S
C532 C527 1.490 . S
C532 C534 1.395 . S
C532 C535 1.403 . S
H533 C539 0.930 . S
C534 H520 0.930 . S
C534 C532 1.395 . S
C534 C537 1.403 . S
C535 C532 1.403 . S
C535 C536 1.524 . S
C535 C539 1.400 . S
C536 H521 0.960 . S
C536 H522 0.960 . S
C536 H523 0.960 . S
C536 C535 1.524 . S
C537 C534 1.403 . S
C537 C538 1.392 . S
C537 C541 1.495 . S
C538 C537 1.392 . S
C538 C539 1.385 . S
C538 C540 1.478 . S
C539 H533 0.930 . S
C539 C535 1.400 . S
C539 C538 1.385 . S
C540 C538 1.478 . S
C540 C542 1.381 . S
C540 C546 1.383 . S
C541 C537 1.495 . S
C541 H547 0.959 . S
C541 H548 0.961 . S
C541 H549 0.960 . S
C542 C540 1.381 . S
C542 C543 1.394 . S
C542 H550 0.930 . S
C543 C542 1.394 . S
C543 C544 1.383 . S
C543 H551 0.929 . S
C544 C543 1.383 . S
C544 C545 1.377 . S
C545 H529 0.930 . S
C545 C544 1.377 . S
C545 C546 1.379 . S
C546 H530 0.931 . S
C546 C540 1.383 . S
C546 C545 1.379 . S
H547 C541 0.959 . S
H548 C541 0.961 . S
H549 C541 0.960 . S
H550 C542 0.930 . S
H551 C543 0.929 . S
H552 C560 0.929 . S
H553 C562 0.930 . S
H554 C564 0.930 . S
H555 C567 0.929 . S
H556 C570 0.930 . S
H557 C572 0.960 . S
H558 C572 0.960 . S
H559 C572 0.960 . S
C560 H552 0.929 . S
C560 C561 1.377 . S
C560 C562 1.384 . S
C561 C560 1.377 . S
C561 C567 1.390 . S
C562 H553 0.930 . S
C562 C560 1.384 . S
C562 C563 1.372 . S
C563 C562 1.372 . S
C563 C564 1.400 . S
C563 C568 1.490 . S
C564 H554 0.930 . S
C564 C563 1.400 . S
C564 C567 1.386 . S
H565 C581 0.930 . S
H566 C582 0.931 . S
C567 H555 0.929 . S
C567 C561 1.390 . S
C567 C564 1.386 . S
C568 C563 1.490 . S
C568 C570 1.395 . S
C568 C571 1.403 . S
H569 C575 0.930 . S
C570 H556 0.930 . S
C570 C568 1.395 . S
C570 C573 1.403 . S
C571 C568 1.403 . S
C571 C572 1.524 . S
C571 C575 1.400 . S
C572 H557 0.960 . S
C572 H558 0.960 . S
C572 H559 0.960 . S
C572 C571 1.524 . S
C573 C570 1.403 . S
C573 C574 1.392 . S
C573 C577 1.495 . S
C574 C573 1.392 . S
C574 C575 1.385 . S
C574 C576 1.478 . S
C575 H569 0.930 . S
C575 C571 1.400 . S
C575 C574 1.385 . S
C576 C574 1.478 . S
C576 C578 1.381 . S
C576 C582 1.383 . S
C577 C573 1.495 . S
C577 H583 0.959 . S
C577 H584 0.961 . S
C577 H585 0.960 . S
C578 C576 1.381 . S
C578 C579 1.394 . S
C578 H586 0.930 . S
C579 C578 1.394 . S
C579 C580 1.383 . S
C579 H587 0.929 . S
C580 C579 1.383 . S
C580 C581 1.377 . S
C581 H565 0.930 . S
C581 C580 1.377 . S
C581 C582 1.379 . S
C582 H566 0.931 . S
C582 C576 1.383 . S
C582 C581 1.379 . S
H583 C577 0.959 . S
H584 C577 0.961 . S
H585 C577 0.960 . S
H586 C578 0.930 . S
H587 C579 0.929 . S
H588 C596 0.929 . S
H589 C598 0.930 . S
H590 C600 0.930 . S
H591 C603 0.929 . S
H592 C606 0.930 . S
H593 C608 0.960 . S
H594 C608 0.960 . S
H595 C608 0.960 . S
C596 H588 0.929 . S
C596 C597 1.377 . S
C596 C598 1.384 . S
C597 C596 1.377 . S
C597 C603 1.390 . S
C598 H589 0.930 . S
C598 C596 1.384 . S
C598 C599 1.372 . S
C599 C598 1.372 . S
C599 C600 1.400 . S
C599 C604 1.490 . S
C600 H590 0.930 . S
C600 C599 1.400 . S
C600 C603 1.386 . S
H601 C617 0.930 . S
H602 C618 0.931 . S
C603 H591 0.929 . S
C603 C597 1.390 . S
C603 C600 1.386 . S
C604 C599 1.490 . S
C604 C606 1.395 . S
C604 C607 1.403 . S
H605 C611 0.930 . S
C606 H592 0.930 . S
C606 C604 1.395 . S
C606 C609 1.403 . S
C607 C604 1.403 . S
C607 C608 1.524 . S
C607 C611 1.400 . S
C608 H593 0.960 . S
C608 H594 0.960 . S
C608 H595 0.960 . S
C608 C607 1.524 . S
C609 C606 1.403 . S
C609 C610 1.392 . S
C609 C613 1.495 . S
C610 C609 1.392 . S
C610 C611 1.385 . S
C610 C612 1.478 . S
C611 H605 0.930 . S
C611 C607 1.400 . S
C611 C610 1.385 . S
C612 C610 1.478 . S
C612 C614 1.381 . S
C612 C618 1.383 . S
C613 C609 1.495 . S
C613 H619 0.959 . S
C613 H620 0.961 . S
C613 H621 0.960 . S
C614 C612 1.381 . S
C614 C615 1.394 . S
C614 H622 0.930 . S
C615 C614 1.394 . S
C615 C616 1.383 . S
C615 H623 0.929 . S
C616 C615 1.383 . S
C616 C617 1.377 . S
C617 H601 0.930 . S
C617 C616 1.377 . S
C617 C618 1.379 . S
C618 H602 0.931 . S
C618 C612 1.383 . S
C618 C617 1.379 . S
H619 C613 0.959 . S
H620 C613 0.961 . S
H621 C613 0.960 . S
H622 C614 0.930 . S
H623 C615 0.929 . S
H624 C632 0.929 . S
H625 C634 0.930 . S
H626 C636 0.930 . S
H627 C639 0.929 . S
H628 C642 0.930 . S
H629 C644 0.960 . S
H630 C644 0.960 . S
H631 C644 0.960 . S
C632 H624 0.929 . S
C632 C633 1.377 . S
C632 C634 1.384 . S
C633 C632 1.377 . S
C633 C639 1.390 . S
C634 H625 0.930 . S
C634 C632 1.384 . S
C634 C635 1.372 . S
C635 C634 1.372 . S
C635 C636 1.400 . S
C635 C640 1.490 . S
C636 H626 0.930 . S
C636 C635 1.400 . S
C636 C639 1.386 . S
H637 C653 0.930 . S
H638 C654 0.931 . S
C639 H627 0.929 . S
C639 C633 1.390 . S
C639 C636 1.386 . S
C640 C635 1.490 . S
C640 C642 1.395 . S
C640 C643 1.403 . S
H641 C647 0.930 . S
C642 H628 0.930 . S
C642 C640 1.395 . S
C642 C645 1.403 . S
C643 C640 1.403 . S
C643 C644 1.524 . S
C643 C647 1.400 . S
C644 H629 0.960 . S
C644 H630 0.960 . S
C644 H631 0.960 . S
C644 C643 1.524 . S
C645 C642 1.403 . S
C645 C646 1.392 . S
C645 C649 1.495 1_556 S
C646 C645 1.392 . S
C646 C647 1.385 . S
C646 C648 1.491 . S
C647 H641 0.930 . S
C647 C643 1.400 . S
C647 C646 1.385 . S
C648 C646 1.491 . S
C648 C650 1.405 . S
C648 C654 1.349 1_556 S
C649 C645 1.495 1_554 S
C649 H655 0.959 . S
C649 H656 0.961 . S
C649 H657 0.963 . S
C650 C648 1.405 . S
C650 C651 1.394 . S
C650 H658 0.930 . S
C651 C650 1.394 . S
C651 C652 1.383 1_556 S
C651 H659 0.929 . S
C652 C651 1.383 1_554 S
C652 C653 1.377 . S
C653 H637 0.930 . S
C653 C652 1.377 . S
C653 C654 1.379 . S
C654 H638 0.931 . S
C654 C648 1.349 1_554 S
C654 C653 1.379 . S
H655 C649 0.959 . S
H656 C649 0.961 . S
H657 C649 0.963 . S
H658 C650 0.930 . S
H659 C651 0.929 . S
H660 C668 0.929 . S
H661 C670 0.930 . S
H662 C672 0.930 . S
H663 C675 0.929 . S
H664 C678 0.930 . S
H665 C680 0.960 . S
H666 C680 0.960 . S
H667 C680 0.960 . S
C668 H660 0.929 . S
C668 C669 1.377 . S
C668 C670 1.384 . S
C669 C668 1.377 . S
C669 C675 1.390 . S
C670 H661 0.930 . S
C670 C668 1.384 . S
C670 C671 1.372 . S
C671 C670 1.372 . S
C671 C672 1.400 . S
C671 C676 1.490 . S
C672 H662 0.930 . S
C672 C671 1.400 . S
C672 C675 1.386 . S
H673 C689 0.930 . S
H674 C690 0.931 . S
C675 H663 0.929 . S
C675 C669 1.390 . S
C675 C672 1.386 . S
C676 C671 1.490 . S
C676 C678 1.395 . S
C676 C679 1.403 . S
H677 C683 0.930 . S
C678 H664 0.930 . S
C678 C676 1.395 . S
C678 C681 1.403 . S
C679 C676 1.403 . S
C679 C680 1.524 . S
C679 C683 1.400 . S
C680 H665 0.960 . S
C680 H666 0.960 . S
C680 H667 0.960 . S
C680 C679 1.524 . S
C681 C678 1.403 . S
C681 C682 1.392 . S
C681 C685 1.495 . S
C682 C681 1.392 . S
C682 C683 1.385 . S
C682 C684 1.478 . S
C683 H677 0.930 . S
C683 C679 1.400 . S
C683 C682 1.385 . S
C684 C682 1.478 . S
C684 C686 1.381 . S
C684 C690 1.383 . S
C685 C681 1.495 . S
C685 H691 0.959 . S
C685 H692 0.961 . S
C685 H693 0.960 . S
C686 C684 1.381 . S
C686 C687 1.394 . S
C686 H694 0.930 . S
C687 C686 1.394 . S
C687 C688 1.383 . S
C687 H695 0.929 . S
C688 C687 1.383 . S
C688 C689 1.377 . S
C689 H673 0.930 . S
C689 C688 1.377 . S
C689 C690 1.379 . S
C690 H674 0.931 . S
C690 C684 1.383 . S
C690 C689 1.379 . S
H691 C685 0.959 . S
H692 C685 0.961 . S
H693 C685 0.960 . S
H694 C686 0.930 . S
H695 C687 0.929 . S
H696 C704 0.929 . S
H697 C706 0.930 . S
H698 C708 0.930 . S
H699 C711 0.929 . S
H700 C714 0.930 . S
H701 C716 0.960 . S
H702 C716 0.960 . S
H703 C716 0.960 . S
C704 H696 0.929 . S
C704 C705 1.377 . S
C704 C706 1.384 . S
C705 C704 1.377 . S
C705 C711 1.390 . S
C706 H697 0.930 . S
C706 C704 1.384 . S
C706 C707 1.372 . S
C707 C706 1.372 . S
C707 C708 1.400 . S
C707 C712 1.490 . S
C708 H698 0.930 . S
C708 C707 1.400 . S
C708 C711 1.386 . S
H709 C725 0.930 . S
H710 C726 0.931 . S
C711 H699 0.929 . S
C711 C705 1.390 . S
C711 C708 1.386 . S
C712 C707 1.490 . S
C712 C714 1.395 . S
C712 C715 1.403 . S
H713 C719 0.930 . S
C714 H700 0.930 . S
C714 C712 1.395 . S
C714 C717 1.403 . S
C715 C712 1.403 . S
C715 C716 1.524 . S
C715 C719 1.400 . S
C716 H701 0.960 . S
C716 H702 0.960 . S
C716 H703 0.960 . S
C716 C715 1.524 . S
C717 C714 1.403 . S
C717 C718 1.392 . S
C717 C721 1.495 . S
C718 C717 1.392 . S
C718 C719 1.385 . S
C718 C720 1.478 . S
C719 H713 0.930 . S
C719 C715 1.400 . S
C719 C718 1.385 . S
C720 C718 1.478 . S
C720 C722 1.381 . S
C720 C726 1.383 . S
C721 C717 1.495 . S
C721 H727 0.959 . S
C721 H728 0.961 . S
C721 H729 0.960 . S
C722 C720 1.381 . S
C722 C723 1.394 . S
C722 H730 0.930 . S
C723 C722 1.394 . S
C723 C724 1.383 . S
C723 H731 0.929 . S
C724 C723 1.383 . S
C724 C725 1.377 . S
C725 H709 0.930 . S
C725 C724 1.377 . S
C725 C726 1.379 . S
C726 H710 0.931 . S
C726 C720 1.383 . S
C726 C725 1.379 . S
H727 C721 0.959 . S
H728 C721 0.961 . S
H729 C721 0.960 . S
H730 C722 0.930 . S
H731 C723 0.929 . S
H732 C740 0.929 . S
H733 C742 0.930 . S
H734 C744 0.930 . S
H735 C747 0.929 . S
H736 C750 0.930 . S
H737 C752 0.960 . S
H738 C752 0.960 . S
H739 C752 0.960 . S
C740 H732 0.929 . S
C740 C741 1.377 . S
C740 C742 1.384 . S
C741 C740 1.377 . S
C741 C747 1.390 . S
C742 H733 0.930 . S
C742 C740 1.384 . S
C742 C743 1.372 . S
C743 C742 1.372 . S
C743 C744 1.400 . S
C743 C748 1.490 . S
C744 H734 0.930 . S
C744 C743 1.400 . S
C744 C747 1.386 . S
H745 C761 0.930 . S
H746 C762 0.931 . S
C747 H735 0.929 . S
C747 C741 1.390 . S
C747 C744 1.386 . S
C748 C743 1.490 . S
C748 C750 1.395 . S
C748 C751 1.403 . S
H749 C755 0.930 . S
C750 H736 0.930 . S
C750 C748 1.395 . S
C750 C753 1.403 . S
C751 C748 1.403 . S
C751 C752 1.524 . S
C751 C755 1.400 . S
C752 H737 0.960 . S
C752 H738 0.960 . S
C752 H739 0.960 . S
C752 C751 1.524 . S
C753 C750 1.403 . S
C753 C754 1.392 . S
C753 C757 1.495 . S
C754 C753 1.392 . S
C754 C755 1.385 . S
C754 C756 1.478 . S
C755 H749 0.930 . S
C755 C751 1.400 . S
C755 C754 1.385 . S
C756 C754 1.478 . S
C756 C758 1.381 . S
C756 C762 1.383 . S
C757 C753 1.495 . S
C757 H763 0.959 . S
C757 H764 0.961 . S
C757 H765 0.960 . S
C758 C756 1.381 . S
C758 C759 1.394 . S
C758 H766 0.930 . S
C759 C758 1.394 . S
C759 C760 1.383 . S
C759 H767 0.929 . S
C760 C759 1.383 . S
C760 C761 1.377 . S
C761 H745 0.930 . S
C761 C760 1.377 . S
C761 C762 1.379 . S
C762 H746 0.931 . S
C762 C756 1.383 . S
C762 C761 1.379 . S
H763 C757 0.959 . S
H764 C757 0.961 . S
H765 C757 0.960 . S
H766 C758 0.930 . S
H767 C759 0.929 . S
H768 C776 0.929 . S
H769 C778 0.930 . S
H770 C780 0.930 . S
H771 C783 0.929 . S
H772 C786 0.930 . S
H773 C788 0.960 . S
H774 C788 0.960 . S
H775 C788 0.960 . S
C776 H768 0.929 . S
C776 C777 1.377 . S
C776 C778 1.384 . S
C777 C776 1.377 . S
C777 C783 1.390 . S
C778 H769 0.930 . S
C778 C776 1.384 . S
C778 C779 1.372 . S
C779 C778 1.372 . S
C779 C780 1.400 . S
C779 C784 1.490 . S
C780 H770 0.930 . S
C780 C779 1.400 . S
C780 C783 1.386 . S
H781 C797 0.930 . S
H782 C798 0.931 . S
C783 H771 0.929 . S
C783 C777 1.390 . S
C783 C780 1.386 . S
C784 C779 1.490 . S
C784 C786 1.395 . S
C784 C787 1.403 . S
H785 C791 0.930 . S
C786 H772 0.930 . S
C786 C784 1.395 . S
C786 C789 1.403 . S
C787 C784 1.403 . S
C787 C788 1.524 . S
C787 C791 1.400 . S
C788 H773 0.960 . S
C788 H774 0.960 . S
C788 H775 0.960 . S
C788 C787 1.524 . S
C789 C786 1.403 . S
C789 C790 1.392 . S
C789 C793 1.495 . S
C790 C789 1.392 . S
C790 C791 1.385 . S
C790 C792 1.478 . S
C791 H785 0.930 . S
C791 C787 1.400 . S
C791 C790 1.385 . S
C792 C790 1.478 . S
C792 C794 1.381 . S
C792 C798 1.383 . S
C793 C789 1.495 . S
C793 H799 0.959 . S
C793 H800 0.961 . S
C793 H801 0.960 . S
C794 C792 1.381 . S
C794 C795 1.394 . S
C794 H802 0.930 . S
C795 C794 1.394 . S
C795 C796 1.383 . S
C795 H803 0.929 . S
C796 C795 1.383 . S
C796 C797 1.377 . S
C797 H781 0.930 . S
C797 C796 1.377 . S
C797 C798 1.379 . S
C798 H782 0.931 . S
C798 C792 1.383 . S
C798 C797 1.379 . S
H799 C793 0.959 . S
H800 C793 0.961 . S
H801 C793 0.960 . S
H802 C794 0.930 . S
H803 C795 0.929 . S
H804 C812 0.929 . S
H805 C814 0.930 . S
H806 C816 0.930 . S
H807 C819 0.929 . S
H808 C822 0.930 . S
H809 C824 0.960 . S
H810 C824 0.960 . S
H811 C824 0.960 . S
C812 H804 0.929 . S
C812 C813 1.377 . S
C812 C814 1.384 . S
C813 C812 1.377 . S
C813 C819 1.390 . S
C814 H805 0.930 . S
C814 C812 1.384 . S
C814 C815 1.372 . S
C815 C814 1.372 . S
C815 C816 1.400 . S
C815 C820 1.490 . S
C816 H806 0.930 . S
C816 C815 1.400 . S
C816 C819 1.386 . S
H817 C833 0.930 1_556 S
H818 C834 0.931 . S
C819 H807 0.929 . S
C819 C813 1.390 . S
C819 C816 1.386 . S
C820 C815 1.490 . S
C820 C822 1.395 . S
C820 C823 1.403 . S
H821 C827 0.930 . S
C822 H808 0.930 . S
C822 C820 1.395 . S
C822 C825 1.403 . S
C823 C820 1.403 . S
C823 C824 1.524 . S
C823 C827 1.400 . S
C824 H809 0.960 . S
C824 H810 0.960 . S
C824 H811 0.960 . S
C824 C823 1.524 . S
C825 C822 1.403 . S
C825 C826 1.392 . S
C825 C829 1.495 . S
C826 C825 1.392 . S
C826 C827 1.385 . S
C826 C828 1.478 . S
C827 H821 0.930 . S
C827 C823 1.400 . S
C827 C826 1.385 . S
C828 C826 1.478 . S
C828 C830 1.381 . S
C828 C834 1.383 . S
C829 C825 1.495 . S
C829 H835 0.959 . S
C829 H836 0.961 . S
C829 H837 0.960 . S
C830 C828 1.381 . S
C830 C831 1.394 . S
C830 H838 0.930 . S
C831 C830 1.394 . S
C831 C832 1.383 . S
C831 H839 0.929 . S
C832 C831 1.383 . S
C832 C833 1.377 . S
C833 H817 0.930 1_554 S
C833 C832 1.377 . S
C833 C834 1.379 . S
C834 H818 0.931 . S
C834 C828 1.383 . S
C834 C833 1.379 . S
H835 C829 0.959 . S
H836 C829 0.961 . S
H837 C829 0.960 . S
H838 C830 0.930 . S
H839 C831 0.929 . S
H840 C848 0.929 . S
H841 C850 0.930 . S
H842 C852 0.930 . S
H843 C855 0.929 . S
H844 C858 0.930 . S
H845 C860 0.960 . S
H846 C860 0.960 . S
H847 C860 0.960 . S
C848 H840 0.929 . S
C848 C849 1.377 . S
C848 C850 1.384 . S
C849 C848 1.377 . S
C849 C855 1.390 . S
C850 H841 0.930 . S
C850 C848 1.384 . S
C850 C851 1.372 . S
C851 C850 1.372 . S
C851 C852 1.400 . S
C851 C856 1.490 . S
C852 H842 0.930 . S
C852 C851 1.400 . S
C852 C855 1.386 . S
H853 C869 0.930 . S
H854 C870 0.931 . S
C855 H843 0.929 . S
C855 C849 1.390 . S
C855 C852 1.386 . S
C856 C851 1.490 . S
C856 C858 1.395 . S
C856 C859 1.403 . S
H857 C863 0.930 . S
C858 H844 0.930 . S
C858 C856 1.395 . S
C858 C861 1.403 . S
C859 C856 1.403 . S
C859 C860 1.524 . S
C859 C863 1.400 . S
C860 H845 0.960 . S
C860 H846 0.960 . S
C860 H847 0.960 . S
C860 C859 1.524 . S
C861 C858 1.403 . S
C861 C862 1.392 . S
C861 C865 1.495 . S
C862 C861 1.392 . S
C862 C863 1.385 . S
C862 C864 1.478 . S
C863 H857 0.930 . S
C863 C859 1.400 . S
C863 C862 1.385 . S
C864 C862 1.478 . S
C864 C866 1.381 . S
C864 C870 1.383 . S
C865 C861 1.495 . S
C865 H871 0.959 . S
C865 H872 0.961 . S
C865 H873 0.960 . S
C866 C864 1.381 . S
C866 C867 1.394 . S
C866 H874 0.930 . S
C867 C866 1.394 . S
C867 C868 1.383 . S
C867 H875 0.929 . S
C868 C867 1.383 . S
C868 C869 1.377 . S
C869 H853 0.930 . S
C869 C868 1.377 . S
C869 C870 1.379 . S
C870 H854 0.931 . S
C870 C864 1.383 . S
C870 C869 1.379 . S
H871 C865 0.959 . S
H872 C865 0.961 . S
H873 C865 0.960 . S
H874 C866 0.930 . S
H875 C867 0.929 . S
H876 C884 0.929 . S
H877 C886 0.930 . S
H878 C888 0.930 . S
H879 C891 0.929 . S
H880 C894 0.930 . S
H881 C896 0.960 . S
H882 C896 0.960 . S
H883 C896 0.960 . S
C884 H876 0.929 . S
C884 C885 1.377 . S
C884 C886 1.384 . S
C885 C884 1.377 . S
C885 C891 1.390 . S
C886 H877 0.930 . S
C886 C884 1.384 . S
C886 C887 1.372 . S
C887 C886 1.372 . S
C887 C888 1.400 . S
C887 C892 1.490 . S
C888 H878 0.930 . S
C888 C887 1.400 . S
C888 C891 1.386 . S
H889 C905 0.930 . S
H890 C906 0.931 . S
C891 H879 0.929 . S
C891 C885 1.390 . S
C891 C888 1.386 . S
C892 C887 1.490 . S
C892 C894 1.395 . S
C892 C895 1.403 . S
H893 C899 0.930 . S
C894 H880 0.930 . S
C894 C892 1.395 . S
C894 C897 1.403 . S
C895 C892 1.403 . S
C895 C896 1.524 . S
C895 C899 1.400 . S
C896 H881 0.960 . S
C896 H882 0.960 . S
C896 H883 0.960 . S
C896 C895 1.524 . S
C897 C894 1.403 . S
C897 C898 1.392 . S
C897 C901 1.495 . S
C898 C897 1.392 . S
C898 C899 1.385 . S
C898 C900 1.478 . S
C899 H893 0.930 . S
C899 C895 1.400 . S
C899 C898 1.385 . S
C900 C898 1.478 . S
C900 C902 1.381 . S
C900 C906 1.383 . S
C901 C897 1.495 . S
C901 H907 0.959 . S
C901 H908 0.961 . S
C901 H909 0.960 . S
C902 C900 1.381 . S
C902 C903 1.394 . S
C902 H910 0.930 . S
C903 C902 1.394 . S
C903 C904 1.383 . S
C903 H911 0.929 . S
C904 C903 1.383 . S
C904 C905 1.377 . S
C905 H889 0.930 . S
C905 C904 1.377 . S
C905 C906 1.379 . S
C906 H890 0.931 . S
C906 C900 1.383 . S
C906 C905 1.379 . S
H907 C901 0.959 . S
H908 C901 0.961 . S
H909 C901 0.960 . S
H910 C902 0.930 . S
H911 C903 0.929 . S
H912 C920 0.929 . S
H913 C922 0.930 . S
H914 C924 0.930 . S
H915 C927 0.929 . S
H916 C930 0.930 . S
H917 C932 0.960 . S
H918 C932 0.960 . S
H919 C932 0.960 . S
C920 H912 0.929 . S
C920 C921 1.377 . S
C920 C922 1.384 . S
C921 C920 1.377 . S
C921 C927 1.390 . S
C922 H913 0.930 . S
C922 C920 1.384 . S
C922 C923 1.372 . S
C923 C922 1.372 . S
C923 C924 1.400 . S
C923 C928 1.490 . S
C924 H914 0.930 . S
C924 C923 1.400 . S
C924 C927 1.386 . S
H925 C941 0.930 . S
H926 C942 0.931 . S
C927 H915 0.929 . S
C927 C921 1.390 . S
C927 C924 1.386 . S
C928 C923 1.490 . S
C928 C930 1.395 . S
C928 C931 1.403 . S
H929 C935 0.930 . S
C930 H916 0.930 . S
C930 C928 1.395 . S
C930 C933 1.403 . S
C931 C928 1.403 . S
C931 C932 1.524 . S
C931 C935 1.400 . S
C932 H917 0.960 . S
C932 H918 0.960 . S
C932 H919 0.960 . S
C932 C931 1.524 . S
C933 C930 1.403 . S
C933 C934 1.392 . S
C933 C937 1.495 . S
C934 C933 1.392 . S
C934 C935 1.385 . S
C934 C936 1.478 . S
C935 H929 0.930 . S
C935 C931 1.400 . S
C935 C934 1.385 . S
C936 C934 1.478 . S
C936 C938 1.381 . S
C936 C942 1.383 . S
C937 C933 1.495 . S
C937 H943 0.959 . S
C937 H944 0.961 . S
C937 H945 0.960 . S
C938 C936 1.381 . S
C938 C939 1.394 . S
C938 H946 0.930 . S
C939 C938 1.394 . S
C939 C940 1.383 . S
C939 H947 0.929 . S
C940 C939 1.383 . S
C940 C941 1.377 . S
C941 H925 0.930 . S
C941 C940 1.377 . S
C941 C942 1.379 . S
C942 H926 0.931 . S
C942 C936 1.383 . S
C942 C941 1.379 . S
H943 C937 0.959 . S
H944 C937 0.961 . S
H945 C937 0.960 . S
H946 C938 0.930 . S
H947 C939 0.929 . S
H948 C956 0.929 . S
H949 C958 0.930 . S
H950 C960 0.930 . S
H951 C963 0.929 1_455 S
H952 C966 0.930 . S
H953 C968 0.960 . S
H954 C968 0.960 . S
H955 C968 0.960 . S
C956 H948 0.929 . S
C956 C957 1.377 . S
C956 C958 1.384 . S
C957 C956 1.377 . S
C957 C963 1.390 . S
C958 H949 0.930 . S
C958 C956 1.384 . S
C958 C959 1.372 . S
C959 C958 1.372 . S
C959 C960 1.400 . S
C959 C964 1.490 . S
C960 H950 0.930 . S
C960 C959 1.400 . S
C960 C963 1.386 . S
H961 C977 0.930 . S
H962 C978 0.931 . S
C963 H951 0.929 1_655 S
C963 C957 1.390 . S
C963 C960 1.386 . S
C964 C959 1.490 . S
C964 C966 1.395 . S
C964 C967 1.403 . S
H965 C971 0.930 . S
C966 H952 0.930 . S
C966 C964 1.395 . S
C966 C969 1.403 . S
C967 C964 1.403 . S
C967 C968 1.524 . S
C967 C971 1.400 . S
C968 H953 0.960 . S
C968 H954 0.960 . S
C968 H955 0.960 . S
C968 C967 1.524 . S
C969 C966 1.403 . S
C969 C970 1.392 . S
C969 C973 1.495 . S
C970 C969 1.392 . S
C970 C971 1.385 . S
C970 C972 1.478 . S
C971 H965 0.930 . S
C971 C967 1.400 . S
C971 C970 1.385 . S
C972 C970 1.478 . S
C972 C974 1.381 . S
C972 C978 1.383 . S
C973 C969 1.495 . S
C973 H979 0.959 . S
C973 H980 0.961 . S
C973 H981 0.960 . S
C974 C972 1.381 . S
C974 C975 1.394 . S
C974 H982 0.930 . S
C975 C974 1.394 . S
C975 C976 1.383 . S
C975 H983 0.929 . S
C976 C975 1.383 . S
C976 C977 1.377 . S
C977 H961 0.930 . S
C977 C976 1.377 . S
C977 C978 1.379 . S
C978 H962 0.931 . S
C978 C972 1.383 . S
C978 C977 1.379 . S
H979 C973 0.959 . S
H980 C973 0.961 . S
H981 C973 0.960 . S
H982 C974 0.930 . S
H983 C975 0.929 . S
H984 C992 0.929 . S
H985 C994 0.930 . S
H986 C996 0.930 . S
H987 C999 0.929 . S
H988 C1002 0.930 . S
H989 C1004 0.960 . S
H990 C1004 0.960 . S
H991 C1004 0.960 . S
C992 H984 0.929 . S
C992 C993 1.377 . S
C992 C994 1.384 . S
C993 C992 1.377 . S
C993 C999 1.390 . S
C994 H985 0.930 . S
C994 C992 1.384 . S
C994 C995 1.372 . S
C995 C994 1.372 . S
C995 C996 1.400 . S
C995 C1000 1.490 . S
C996 H986 0.930 . S
C996 C995 1.400 . S
C996 C999 1.386 . S
H997 C1013 0.930 . S
H998 C1014 0.931 . S
C999 H987 0.929 . S
C999 C993 1.390 . S
C999 C996 1.386 . S
C1000 C995 1.490 . S
C1000 C1002 1.395 . S
C1000 C1003 1.403 . S
H1001 C1007 0.930 . S
C1002 H988 0.930 . S
C1002 C1000 1.395 . S
C1002 C1005 1.403 . S
C1003 C1000 1.403 . S
C1003 C1004 1.524 . S
C1003 C1007 1.400 . S
C1004 H989 0.960 . S
C1004 H990 0.960 . S
C1004 H991 0.960 . S
C1004 C1003 1.524 . S
C1005 C1002 1.403 . S
C1005 C1006 1.392 . S
C1005 C1009 1.495 . S
C1006 C1005 1.392 . S
C1006 C1007 1.385 . S
C1006 C1008 1.478 . S
C1007 H1001 0.930 . S
C1007 C1003 1.400 . S
C1007 C1006 1.385 . S
C1008 C1006 1.478 . S
C1008 C1010 1.381 . S
C1008 C1014 1.383 . S
C1009 C1005 1.495 . S
C1009 H1015 0.959 . S
C1009 H1016 0.961 . S
C1009 H1017 0.960 . S
C1010 C1008 1.381 . S
C1010 C1011 1.394 1_556 S
C1010 H1018 0.930 1_556 S
C1011 C1010 1.394 1_554 S
C1011 C1012 1.383 1_554 S
C1011 H1019 0.929 . S
C1012 C1011 1.383 1_556 S
C1012 C1013 1.377 . S
C1013 H997 0.930 . S
C1013 C1012 1.377 . S
C1013 C1014 1.379 . S
C1014 H998 0.931 . S
C1014 C1008 1.383 . S
C1014 C1013 1.379 . S
H1015 C1009 0.959 . S
H1016 C1009 0.961 . S
H1017 C1009 0.960 . S
H1018 C1010 0.930 1_554 S
H1019 C1011 0.929 . S
H1020 C1028 0.929 . S
H1021 C1030 0.930 . S
H1022 C1032 0.930 . S
H1023 C1035 0.929 . S
H1024 C1038 0.930 . S
H1025 C1040 0.960 . S
H1026 C1040 0.960 . S
H1027 C1040 0.960 . S
C1028 H1020 0.929 . S
C1028 C1029 1.377 . S
C1028 C1030 1.384 . S
C1029 C1028 1.377 . S
C1029 C1035 1.390 . S
C1030 H1021 0.930 . S
C1030 C1028 1.384 . S
C1030 C1031 1.372 . S
C1031 C1030 1.372 . S
C1031 C1032 1.400 . S
C1031 C1036 1.490 . S
C1032 H1022 0.930 . S
C1032 C1031 1.400 . S
C1032 C1035 1.386 . S
H1033 C1049 0.930 . S
H1034 C1050 0.931 . S
C1035 H1023 0.929 . S
C1035 C1029 1.390 . S
C1035 C1032 1.386 . S
C1036 C1031 1.490 . S
C1036 C1038 1.395 . S
C1036 C1039 1.403 . S
H1037 C1043 0.930 . S
C1038 H1024 0.930 . S
C1038 C1036 1.395 . S
C1038 C1041 1.403 . S
C1039 C1036 1.403 . S
C1039 C1040 1.524 . S
C1039 C1043 1.400 . S
C1040 H1025 0.960 . S
C1040 H1026 0.960 . S
C1040 H1027 0.960 . S
C1040 C1039 1.524 . S
C1041 C1038 1.403 . S
C1041 C1042 1.392 . S
C1041 C1045 1.495 . S
C1042 C1041 1.392 . S
C1042 C1043 1.385 . S
C1042 C1044 1.478 . S
C1043 H1037 0.930 . S
C1043 C1039 1.400 . S
C1043 C1042 1.385 . S
C1044 C1042 1.478 . S
C1044 C1046 1.381 . S
C1044 C1050 1.383 . S
C1045 C1041 1.495 . S
C1045 H1051 0.959 . S
C1045 H1052 0.961 . S
C1045 H1053 0.960 . S
C1046 C1044 1.381 . S
C1046 C1047 1.394 . S
C1046 H1054 0.930 . S
C1047 C1046 1.394 . S
C1047 C1048 1.383 . S
C1047 H1055 0.929 . S
C1048 C1047 1.383 . S
C1048 C1049 1.377 . S
C1049 H1033 0.930 . S
C1049 C1048 1.377 . S
C1049 C1050 1.379 . S
C1050 H1034 0.931 . S
C1050 C1044 1.383 . S
C1050 C1049 1.379 . S
H1051 C1045 0.959 . S
H1052 C1045 0.961 . S
H1053 C1045 0.960 . S
H1054 C1046 0.930 . S
H1055 C1047 0.929 . S
H1056 C1064 0.929 . S
H1057 C1066 0.930 . S
H1058 C1068 0.930 . S
H1059 C1071 0.929 . S
H1060 C1074 0.930 . S
H1061 C1076 0.960 . S
H1062 C1076 0.960 . S
H1063 C1076 0.960 . S
C1064 H1056 0.929 . S
C1064 C1065 1.377 . S
C1064 C1066 1.384 . S
C1065 C1064 1.377 . S
C1065 C1071 1.390 . S
C1066 H1057 0.930 . S
C1066 C1064 1.384 . S
C1066 C1067 1.372 . S
C1067 C1066 1.372 . S
C1067 C1068 1.400 . S
C1067 C1072 1.490 . S
C1068 H1058 0.930 . S
C1068 C1067 1.400 . S
C1068 C1071 1.386 . S
H1069 C1085 0.930 . S
H1070 C1086 0.931 . S
C1071 H1059 0.929 . S
C1071 C1065 1.390 . S
C1071 C1068 1.386 . S
C1072 C1067 1.490 . S
C1072 C1074 1.395 . S
C1072 C1075 1.403 . S
H1073 C1079 0.930 . S
C1074 H1060 0.930 . S
C1074 C1072 1.395 . S
C1074 C1077 1.403 . S
C1075 C1072 1.403 . S
C1075 C1076 1.524 . S
C1075 C1079 1.400 . S
C1076 H1061 0.960 . S
C1076 H1062 0.960 . S
C1076 H1063 0.960 . S
C1076 C1075 1.524 . S
C1077 C1074 1.403 . S
C1077 C1078 1.392 . S
C1077 C1081 1.495 . S
C1078 C1077 1.392 . S
C1078 C1079 1.385 . S
C1078 C1080 1.478 . S
C1079 H1073 0.930 . S
C1079 C1075 1.400 . S
C1079 C1078 1.385 . S
C1080 C1078 1.478 . S
C1080 C1082 1.381 . S
C1080 C1086 1.383 . S
C1081 C1077 1.495 . S
C1081 H1087 0.959 . S
C1081 H1088 0.961 . S
C1081 H1089 0.960 . S
C1082 C1080 1.381 . S
C1082 C1083 1.394 . S
C1082 H1090 0.930 . S
C1083 C1082 1.394 . S
C1083 C1084 1.383 . S
C1083 H1091 0.929 . S
C1084 C1083 1.383 . S
C1084 C1085 1.377 . S
C1085 H1069 0.930 . S
C1085 C1084 1.377 . S
C1085 C1086 1.379 . S
C1086 H1070 0.931 . S
C1086 C1080 1.383 . S
C1086 C1085 1.379 . S
H1087 C1081 0.959 . S
H1088 C1081 0.961 . S
H1089 C1081 0.960 . S
H1090 C1082 0.930 . S
H1091 C1083 0.929 . S
H1092 C1100 0.929 . S
H1093 C1102 0.930 . S
H1094 C1104 0.930 . S
H1095 C1107 0.929 . S
H1096 C1110 0.930 . S
H1097 C1112 0.960 . S
H1098 C1112 0.960 . S
H1099 C1112 0.960 . S
C1100 H1092 0.929 . S
C1100 C1101 1.377 . S
C1100 C1102 1.384 . S
C1101 C1100 1.377 . S
C1101 C1107 1.390 . S
C1102 H1093 0.930 . S
C1102 C1100 1.384 . S
C1102 C1103 1.372 . S
C1103 C1102 1.372 . S
C1103 C1104 1.400 . S
C1103 C1108 1.490 . S
C1104 H1094 0.930 . S
C1104 C1103 1.400 . S
C1104 C1107 1.386 . S
H1105 C1121 0.930 . S
H1106 C1122 0.931 . S
C1107 H1095 0.929 . S
C1107 C1101 1.390 . S
C1107 C1104 1.386 . S
C1108 C1103 1.490 . S
C1108 C1110 1.395 . S
C1108 C1111 1.403 . S
H1109 C1115 0.930 . S
C1110 H1096 0.930 . S
C1110 C1108 1.395 . S
C1110 C1113 1.403 . S
C1111 C1108 1.403 . S
C1111 C1112 1.524 . S
C1111 C1115 1.400 . S
C1112 H1097 0.960 . S
C1112 H1098 0.960 . S
C1112 H1099 0.960 . S
C1112 C1111 1.524 . S
C1113 C1110 1.403 . S
C1113 C1114 1.392 . S
C1113 C1117 1.495 . S
C1114 C1113 1.392 . S
C1114 C1115 1.385 . S
C1114 C1116 1.478 . S
C1115 H1109 0.930 . S
C1115 C1111 1.400 . S
C1115 C1114 1.385 . S
C1116 C1114 1.478 . S
C1116 C1118 1.381 . S
C1116 C1122 1.383 . S
C1117 C1113 1.495 . S
C1117 H1123 0.959 . S
C1117 H1124 0.961 . S
C1117 H1125 0.960 . S
C1118 C1116 1.381 . S
C1118 C1119 1.394 . S
C1118 H1126 0.930 . S
C1119 C1118 1.394 . S
C1119 C1120 1.383 . S
C1119 H1127 0.929 . S
C1120 C1119 1.383 . S
C1120 C1121 1.377 . S
C1121 H1105 0.930 . S
C1121 C1120 1.377 . S
C1121 C1122 1.379 . S
C1122 H1106 0.931 . S
C1122 C1116 1.383 . S
C1122 C1121 1.379 . S
H1123 C1117 0.959 . S
H1124 C1117 0.961 . S
H1125 C1117 0.960 . S
H1126 C1118 0.930 . S
H1127 C1119 0.929 . S
H1128 C1136 0.929 . S
H1129 C1138 0.930 . S
H1130 C1140 0.930 . S
H1131 C1143 0.929 . S
H1132 C1146 0.930 . S
H1133 C1148 0.960 . S
H1134 C1148 0.960 . S
H1135 C1148 0.960 . S
C1136 H1128 0.929 . S
C1136 C1137 1.377 . S
C1136 C1138 1.384 . S
C1137 C1136 1.377 . S
C1137 C1143 1.390 . S
C1138 H1129 0.930 . S
C1138 C1136 1.384 . S
C1138 C1139 1.372 . S
C1139 C1138 1.372 . S
C1139 C1140 1.400 . S
C1139 C1144 1.490 . S
C1140 H1130 0.930 . S
C1140 C1139 1.400 . S
C1140 C1143 1.386 . S
H1141 C1157 0.930 . S
H1142 C1158 0.931 . S
C1143 H1131 0.929 . S
C1143 C1137 1.390 . S
C1143 C1140 1.386 . S
C1144 C1139 1.490 . S
C1144 C1146 1.395 . S
C1144 C1147 1.403 . S
H1145 C1151 0.930 . S
C1146 H1132 0.930 . S
C1146 C1144 1.395 . S
C1146 C1149 1.403 . S
C1147 C1144 1.403 . S
C1147 C1148 1.524 . S
C1147 C1151 1.400 . S
C1148 H1133 0.960 . S
C1148 H1134 0.960 . S
C1148 H1135 0.960 . S
C1148 C1147 1.524 . S
C1149 C1146 1.403 . S
C1149 C1150 1.392 . S
C1149 C1153 1.495 . S
C1150 C1149 1.392 . S
C1150 C1151 1.385 . S
C1150 C1152 1.478 . S
C1151 H1145 0.930 . S
C1151 C1147 1.400 . S
C1151 C1150 1.385 . S
C1152 C1150 1.478 . S
C1152 C1154 1.381 . S
C1152 C1158 1.383 . S
C1153 C1149 1.495 . S
C1153 H1159 0.959 . S
C1153 H1160 0.961 . S
C1153 H1161 0.960 . S
C1154 C1152 1.381 . S
C1154 C1155 1.394 . S
C1154 H1162 0.930 . S
C1155 C1154 1.394 . S
C1155 C1156 1.383 . S
C1155 H1163 0.929 . S
C1156 C1155 1.383 . S
C1156 C1157 1.377 . S
C1157 H1141 0.930 . S
C1157 C1156 1.377 . S
C1157 C1158 1.379 . S
C1158 H1142 0.931 . S
C1158 C1152 1.383 . S
C1158 C1157 1.379 . S
H1159 C1153 0.959 . S
H1160 C1153 0.961 . S
H1161 C1153 0.960 . S
H1162 C1154 0.930 . S
H1163 C1155 0.929 . S
H1164 C1172 0.929 . S
H1165 C1174 0.930 . S
H1166 C1176 0.930 . S
H1167 C1179 0.929 . S
H1168 C1182 0.930 . S
H1169 C1184 0.960 . S
H1170 C1184 0.960 . S
H1171 C1184 0.960 . S
C1172 H1164 0.929 . S
C1172 C1173 1.377 . S
C1172 C1174 1.384 . S
C1173 C1172 1.377 . S
C1173 C1179 1.390 . S
C1174 H1165 0.930 . S
C1174 C1172 1.384 . S
C1174 C1175 1.372 . S
C1175 C1174 1.372 . S
C1175 C1176 1.400 . S
C1175 C1180 1.490 . S
C1176 H1166 0.930 . S
C1176 C1175 1.400 . S
C1176 C1179 1.386 . S
H1177 C1193 0.930 . S
H1178 C1194 0.931 . S
C1179 H1167 0.929 . S
C1179 C1173 1.390 . S
C1179 C1176 1.386 . S
C1180 C1175 1.490 . S
C1180 C1182 1.395 . S
C1180 C1183 1.403 . S
H1181 C1187 0.930 . S
C1182 H1168 0.930 . S
C1182 C1180 1.395 . S
C1182 C1185 1.403 . S
C1183 C1180 1.403 . S
C1183 C1184 1.524 . S
C1183 C1187 1.400 . S
C1184 H1169 0.960 . S
C1184 H1170 0.960 . S
C1184 H1171 0.960 . S
C1184 C1183 1.524 . S
C1185 C1182 1.403 . S
C1185 C1186 1.392 . S
C1185 C1189 1.495 . S
C1186 C1185 1.392 . S
C1186 C1187 1.385 . S
C1186 C1188 1.478 . S
C1187 H1181 0.930 . S
C1187 C1183 1.400 . S
C1187 C1186 1.385 . S
C1188 C1186 1.478 . S
C1188 C1190 1.381 . S
C1188 C1194 1.383 . S
C1189 C1185 1.495 . S
C1189 H1195 0.959 . S
C1189 H1196 0.961 . S
C1189 H1197 0.960 . S
C1190 C1188 1.381 . S
C1190 C1191 1.394 . S
C1190 H1198 0.930 . S
C1191 C1190 1.394 . S
C1191 C1192 1.383 . S
C1191 H1199 0.929 . S
C1192 C1191 1.383 . S
C1192 C1193 1.377 . S
C1193 H1177 0.930 . S
C1193 C1192 1.377 . S
C1193 C1194 1.379 . S
C1194 H1178 0.931 . S
C1194 C1188 1.383 . S
C1194 C1193 1.379 . S
H1195 C1189 0.959 . S
H1196 C1189 0.961 . S
H1197 C1189 0.960 . S
H1198 C1190 0.930 . S
H1199 C1191 0.929 . S
H1200 C1208 0.929 . S
H1201 C1210 0.930 . S
H1202 C1212 0.930 . S
H1203 C1215 0.929 . S
H1204 C1218 0.930 . S
H1205 C1220 0.960 . S
H1206 C1220 0.960 . S
H1207 C1220 0.960 . S
C1208 H1200 0.929 . S
C1208 C1209 1.377 . S
C1208 C1210 1.384 . S
C1209 C1208 1.377 . S
C1209 C1215 1.390 . S
C1210 H1201 0.930 . S
C1210 C1208 1.384 . S
C1210 C1211 1.372 . S
C1211 C1210 1.372 . S
C1211 C1212 1.400 . S
C1211 C1216 1.490 . S
C1212 H1202 0.930 . S
C1212 C1211 1.400 . S
C1212 C1215 1.386 . S
H1213 C1229 0.930 . S
H1214 C1230 0.931 . S
C1215 H1203 0.929 . S
C1215 C1209 1.390 . S
C1215 C1212 1.386 . S
C1216 C1211 1.490 . S
C1216 C1218 1.395 . S
C1216 C1219 1.403 . S
H1217 C1223 0.930 . S
C1218 H1204 0.930 . S
C1218 C1216 1.395 . S
C1218 C1221 1.403 . S
C1219 C1216 1.403 . S
C1219 C1220 1.524 . S
C1219 C1223 1.400 . S
C1220 H1205 0.960 . S
C1220 H1206 0.960 . S
C1220 H1207 0.960 . S
C1220 C1219 1.524 . S
C1221 C1218 1.403 . S
C1221 C1222 1.392 . S
C1221 C1225 1.495 . S
C1222 C1221 1.392 . S
C1222 C1223 1.385 . S
C1222 C1224 1.478 . S
C1223 H1217 0.930 . S
C1223 C1219 1.400 . S
C1223 C1222 1.385 . S
C1224 C1222 1.478 . S
C1224 C1226 1.381 . S
C1224 C1230 1.383 . S
C1225 C1221 1.495 . S
C1225 H1231 0.959 . S
C1225 H1232 0.961 . S
C1225 H1233 0.960 . S
C1226 C1224 1.381 . S
C1226 C1227 1.394 . S
C1226 H1234 0.930 . S
C1227 C1226 1.394 . S
C1227 C1228 1.383 . S
C1227 H1235 0.929 . S
C1228 C1227 1.383 . S
C1228 C1229 1.377 . S
C1229 H1213 0.930 . S
C1229 C1228 1.377 . S
C1229 C1230 1.379 . S
C1230 H1214 0.931 . S
C1230 C1224 1.383 . S
C1230 C1229 1.379 . S
H1231 C1225 0.959 . S
H1232 C1225 0.961 . S
H1233 C1225 0.960 . S
H1234 C1226 0.930 . S
H1235 C1227 0.929 . S
H1236 C1244 0.929 . S
H1237 C1246 0.930 . S
H1238 C1248 0.930 . S
H1239 C1251 0.929 . S
H1240 C1254 0.930 . S
H1241 C1256 0.960 . S
H1242 C1256 0.960 . S
H1243 C1256 0.960 . S
C1244 H1236 0.929 . S
C1244 C1245 1.377 . S
C1244 C1246 1.384 . S
C1245 C1244 1.377 . S
C1245 C1251 1.390 . S
C1246 H1237 0.930 . S
C1246 C1244 1.384 . S
C1246 C1247 1.372 . S
C1247 C1246 1.372 . S
C1247 C1248 1.400 . S
C1247 C1252 1.490 . S
C1248 H1238 0.930 . S
C1248 C1247 1.400 . S
C1248 C1251 1.386 . S
H1249 C1265 0.930 . S
H1250 C1266 0.931 . S
C1251 H1239 0.929 . S
C1251 C1245 1.390 . S
C1251 C1248 1.386 . S
C1252 C1247 1.490 . S
C1252 C1254 1.395 . S
C1252 C1255 1.403 . S
H1253 C1259 0.930 . S
C1254 H1240 0.930 . S
C1254 C1252 1.395 . S
C1254 C1257 1.403 . S
C1255 C1252 1.403 . S
C1255 C1256 1.524 . S
C1255 C1259 1.400 . S
C1256 H1241 0.960 . S
C1256 H1242 0.960 . S
C1256 H1243 0.960 . S
C1256 C1255 1.524 . S
C1257 C1254 1.403 . S
C1257 C1258 1.392 . S
C1257 C1261 1.495 . S
C1258 C1257 1.392 . S
C1258 C1259 1.385 . S
C1258 C1260 1.478 . S
C1259 H1253 0.930 . S
C1259 C1255 1.400 . S
C1259 C1258 1.385 . S
C1260 C1258 1.478 . S
C1260 C1262 1.381 . S
C1260 C1266 1.383 . S
C1261 C1257 1.495 . S
C1261 H1267 0.959 . S
C1261 H1268 0.961 . S
C1261 H1269 0.960 . S
C1262 C1260 1.381 . S
C1262 C1263 1.394 . S
C1262 H1270 0.930 . S
C1263 C1262 1.394 . S
C1263 C1264 1.383 . S
C1263 H1271 0.929 . S
C1264 C1263 1.383 . S
C1264 C1265 1.377 . S
C1265 H1249 0.930 . S
C1265 C1264 1.377 . S
C1265 C1266 1.379 . S
C1266 H1250 0.931 . S
C1266 C1260 1.383 . S
C1266 C1265 1.379 . S
H1267 C1261 0.959 . S
H1268 C1261 0.961 . S
H1269 C1261 0.960 . S
H1270 C1262 0.930 . S
H1271 C1263 0.929 . S
H1272 C1280 0.929 . S
H1273 C1282 0.930 . S
H1274 C1284 0.930 . S
H1275 C1287 0.929 . S
H1276 C1290 0.930 . S
H1277 C1292 0.960 . S
H1278 C1292 0.960 . S
H1279 C1292 0.960 . S
C1280 H1272 0.929 . S
C1280 C1281 1.377 . S
C1280 C1282 1.384 . S
C1281 C1280 1.377 . S
C1281 C1287 1.390 . S
C1282 H1273 0.930 . S
C1282 C1280 1.384 . S
C1282 C1283 1.372 . S
C1283 C1282 1.372 . S
C1283 C1284 1.400 . S
C1283 C1288 1.490 . S
C1284 H1274 0.930 . S
C1284 C1283 1.400 . S
C1284 C1287 1.386 . S
H1285 C1301 0.930 . S
H1286 C1302 0.931 . S
C1287 H1275 0.929 . S
C1287 C1281 1.390 . S
C1287 C1284 1.386 . S
C1288 C1283 1.490 . S
C1288 C1290 1.395 . S
C1288 C1291 1.403 . S
H1289 C1295 0.930 . S
C1290 H1276 0.930 . S
C1290 C1288 1.395 . S
C1290 C1293 1.403 . S
C1291 C1288 1.403 . S
C1291 C1292 1.524 . S
C1291 C1295 1.400 . S
C1292 H1277 0.960 . S
C1292 H1278 0.960 . S
C1292 H1279 0.960 . S
C1292 C1291 1.524 . S
C1293 C1290 1.403 . S
C1293 C1294 1.392 . S
C1293 C1297 1.495 . S
C1294 C1293 1.392 . S
C1294 C1295 1.385 . S
C1294 C1296 1.478 . S
C1295 H1289 0.930 . S
C1295 C1291 1.400 . S
C1295 C1294 1.385 . S
C1296 C1294 1.478 . S
C1296 C1298 1.381 . S
C1296 C1302 1.383 . S
C1297 C1293 1.495 . S
C1297 H1303 0.959 . S
C1297 H1304 0.961 . S
C1297 H1305 0.960 . S
C1298 C1296 1.381 . S
C1298 C1299 1.394 . S
C1298 H1306 0.930 . S
C1299 C1298 1.394 . S
C1299 C1300 1.383 . S
C1299 H1307 0.929 . S
C1300 C1299 1.383 . S
C1300 C1301 1.377 . S
C1301 H1285 0.930 . S
C1301 C1300 1.377 . S
C1301 C1302 1.379 . S
C1302 H1286 0.931 . S
C1302 C1296 1.383 . S
C1302 C1301 1.379 . S
H1303 C1297 0.959 . S
H1304 C1297 0.961 . S
H1305 C1297 0.960 . S
H1306 C1298 0.930 . S
H1307 C1299 0.929 . S
H1308 C1316 0.929 . S
H1309 C1318 0.930 . S
H1310 C1320 0.930 . S
H1311 C1323 0.929 . S
H1312 C1326 0.930 . S
H1313 C1328 0.960 . S
H1314 C1328 0.960 . S
H1315 C1328 0.960 . S
C1316 H1308 0.929 . S
C1316 C1317 1.377 . S
C1316 C1318 1.384 . S
C1317 C1316 1.377 . S
C1317 C1323 1.390 . S
C1318 H1309 0.930 . S
C1318 C1316 1.384 . S
C1318 C1319 1.372 . S
C1319 C1318 1.372 . S
C1319 C1320 1.400 . S
C1319 C1324 1.490 . S
C1320 H1310 0.930 . S
C1320 C1319 1.400 . S
C1320 C1323 1.386 . S
H1321 C1337 0.930 . S
H1322 C1338 0.931 . S
C1323 H1311 0.929 . S
C1323 C1317 1.390 . S
C1323 C1320 1.386 . S
C1324 C1319 1.490 . S
C1324 C1326 1.395 . S
C1324 C1327 1.403 . S
H1325 C1331 0.930 . S
C1326 H1312 0.930 . S
C1326 C1324 1.395 . S
C1326 C1329 1.403 . S
C1327 C1324 1.403 . S
C1327 C1328 1.524 . S
C1327 C1331 1.400 . S
C1328 H1313 0.960 . S
C1328 H1314 0.960 . S
C1328 H1315 0.960 . S
C1328 C1327 1.524 . S
C1329 C1326 1.403 . S
C1329 C1330 1.392 . S
C1329 C1333 1.495 . S
C1330 C1329 1.392 . S
C1330 C1331 1.385 . S
C1330 C1332 1.478 . S
C1331 H1325 0.930 . S
C1331 C1327 1.400 . S
C1331 C1330 1.385 . S
C1332 C1330 1.478 . S
C1332 C1334 1.381 . S
C1332 C1338 1.383 . S
C1333 C1329 1.495 . S
C1333 H1339 0.959 . S
C1333 H1340 0.961 . S
C1333 H1341 0.960 . S
C1334 C1332 1.381 . S
C1334 C1335 1.394 . S
C1334 H1342 0.930 . S
C1335 C1334 1.394 . S
C1335 C1336 1.383 . S
C1335 H1343 0.929 . S
C1336 C1335 1.383 . S
C1336 C1337 1.377 . S
C1337 H1321 0.930 . S
C1337 C1336 1.377 . S
C1337 C1338 1.379 . S
C1338 H1322 0.931 . S
C1338 C1332 1.383 . S
C1338 C1337 1.379 . S
H1339 C1333 0.959 . S
H1340 C1333 0.961 . S
H1341 C1333 0.960 . S
H1342 C1334 0.930 . S
H1343 C1335 0.929 . S
H1344 C1352 0.929 . S
H1345 C1354 0.930 . S
H1346 C1356 0.930 . S
H1347 C1359 0.929 . S
H1348 C1362 0.930 . S
H1349 C1364 0.960 . S
H1350 C1364 0.960 . S
H1351 C1364 0.960 . S
C1352 H1344 0.929 . S
C1352 C1353 1.377 . S
C1352 C1354 1.384 . S
C1353 C1352 1.377 . S
C1353 C1359 1.390 . S
C1354 H1345 0.930 . S
C1354 C1352 1.384 . S
C1354 C1355 1.372 . S
C1355 C1354 1.372 . S
C1355 C1356 1.400 . S
C1355 C1360 1.490 . S
C1356 H1346 0.930 . S
C1356 C1355 1.400 . S
C1356 C1359 1.386 . S
H1357 C1373 0.930 . S
H1358 C1374 0.931 . S
C1359 H1347 0.929 . S
C1359 C1353 1.390 . S
C1359 C1356 1.386 . S
C1360 C1355 1.490 . S
C1360 C1362 1.395 . S
C1360 C1363 1.403 . S
H1361 C1367 0.930 . S
C1362 H1348 0.930 . S
C1362 C1360 1.395 . S
C1362 C1365 1.403 . S
C1363 C1360 1.403 . S
C1363 C1364 1.524 . S
C1363 C1367 1.400 . S
C1364 H1349 0.960 . S
C1364 H1350 0.960 . S
C1364 H1351 0.960 . S
C1364 C1363 1.524 . S
C1365 C1362 1.403 . S
C1365 C1366 1.392 . S
C1365 C1369 1.495 . S
C1366 C1365 1.392 . S
C1366 C1367 1.385 . S
C1366 C1368 1.478 . S
C1367 H1361 0.930 . S
C1367 C1363 1.400 . S
C1367 C1366 1.385 . S
C1368 C1366 1.478 . S
C1368 C1370 1.381 . S
C1368 C1374 1.383 . S
C1369 C1365 1.495 . S
C1369 H1375 0.959 . S
C1369 H1376 0.961 . S
C1369 H1377 0.960 . S
C1370 C1368 1.381 . S
C1370 C1371 1.394 . S
C1370 H1378 0.930 . S
C1371 C1370 1.394 . S
C1371 C1372 1.383 . S
C1371 H1379 0.929 . S
C1372 C1371 1.383 . S
C1372 C1373 1.377 . S
C1373 H1357 0.930 . S
C1373 C1372 1.377 . S
C1373 C1374 1.379 . S
C1374 H1358 0.931 . S
C1374 C1368 1.383 . S
C1374 C1373 1.379 . S
H1375 C1369 0.959 . S
H1376 C1369 0.961 . S
H1377 C1369 0.960 . S
H1378 C1370 0.930 . S
H1379 C1371 0.929 . S
H1380 C1388 0.929 . S
H1381 C1390 0.930 . S
H1382 C1392 0.930 . S
H1383 C1395 0.929 . S
H1384 C1398 0.930 . S
H1385 C1400 0.960 . S
H1386 C1400 0.960 . S
H1387 C1400 0.960 . S
C1388 H1380 0.929 . S
C1388 C1389 1.377 . S
C1388 C1390 1.384 . S
C1389 C1388 1.377 . S
C1389 C1395 1.390 . S
C1390 H1381 0.930 . S
C1390 C1388 1.384 . S
C1390 C1391 1.372 . S
C1391 C1390 1.372 . S
C1391 C1392 1.400 . S
C1391 C1396 1.490 . S
C1392 H1382 0.930 . S
C1392 C1391 1.400 . S
C1392 C1395 1.386 . S
H1393 C1409 0.930 . S
H1394 C1410 0.931 . S
C1395 H1383 0.929 . S
C1395 C1389 1.390 . S
C1395 C1392 1.386 . S
C1396 C1391 1.490 . S
C1396 C1398 1.395 . S
C1396 C1399 1.403 . S
H1397 C1403 0.930 . S
C1398 H1384 0.930 . S
C1398 C1396 1.395 . S
C1398 C1401 1.403 . S
C1399 C1396 1.403 . S
C1399 C1400 1.524 . S
C1399 C1403 1.400 . S
C1400 H1385 0.960 . S
C1400 H1386 0.960 . S
C1400 H1387 0.960 . S
C1400 C1399 1.524 . S
C1401 C1398 1.403 . S
C1401 C1402 1.392 . S
C1401 C1405 1.495 . S
C1402 C1401 1.392 . S
C1402 C1403 1.385 . S
C1402 C1404 1.478 . S
C1403 H1397 0.930 . S
C1403 C1399 1.400 . S
C1403 C1402 1.385 . S
C1404 C1402 1.478 . S
C1404 C1406 1.381 . S
C1404 C1410 1.383 . S
C1405 C1401 1.495 . S
C1405 H1411 0.959 . S
C1405 H1412 0.961 . S
C1405 H1413 0.960 . S
C1406 C1404 1.381 . S
C1406 C1407 1.394 . S
C1406 H1414 0.930 . S
C1407 C1406 1.394 . S
C1407 C1408 1.383 . S
C1407 H1415 0.929 . S
C1408 C1407 1.383 . S
C1408 C1409 1.377 . S
C1409 H1393 0.930 . S
C1409 C1408 1.377 . S
C1409 C1410 1.379 . S
C1410 H1394 0.931 . S
C1410 C1404 1.383 . S
C1410 C1409 1.379 . S
H1411 C1405 0.959 . S
H1412 C1405 0.961 . S
H1413 C1405 0.960 . S
H1414 C1406 0.930 . S
H1415 C1407 0.929 . S
H1416 C1424 0.929 . S
H1417 C1426 0.930 . S
H1418 C1428 0.930 . S
H1419 C1431 0.929 . S
H1420 C1434 0.930 . S
H1421 C1436 0.960 1_455 S
H1422 C1436 0.960 . S
H1423 C1436 0.960 1_455 S
C1424 H1416 0.929 . S
C1424 C1425 1.377 . S
C1424 C1426 1.384 . S
C1425 C1424 1.377 . S
C1425 C1431 1.390 1_655 S
C1426 H1417 0.930 . S
C1426 C1424 1.384 . S
C1426 C1427 1.372 . S
C1427 C1426 1.372 . S
C1427 C1428 1.400 . S
C1427 C1432 1.490 . S
C1428 H1418 0.930 . S
C1428 C1427 1.400 . S
C1428 C1431 1.386 1_655 S
H1429 C1445 0.930 . S
H1430 C1446 0.931 . S
C1431 H1419 0.929 . S
C1431 C1425 1.390 1_455 S
C1431 C1428 1.386 1_455 S
C1432 C1427 1.490 . S
C1432 C1434 1.395 . S
C1432 C1435 1.403 . S
H1433 C1439 0.930 . S
C1434 H1420 0.930 . S
C1434 C1432 1.395 . S
C1434 C1437 1.403 . S
C1435 C1432 1.403 . S
C1435 C1436 1.524 . S
C1435 C1439 1.400 . S
C1436 H1421 0.960 1_655 S
C1436 H1422 0.960 . S
C1436 H1423 0.960 1_655 S
C1436 C1435 1.524 . S
C1437 C1434 1.403 . S
C1437 C1438 1.392 . S
C1437 C1441 1.495 . S
C1438 C1437 1.392 . S
C1438 C1439 1.385 . S
C1438 C1440 1.478 . S
C1439 H1433 0.930 . S
C1439 C1435 1.400 . S
C1439 C1438 1.385 . S
C1440 C1438 1.478 . S
C1440 C1442 1.381 . S
C1440 C1446 1.383 . S
C1441 C1437 1.495 . S
C1441 H1447 0.959 . S
C1441 H1448 0.961 . S
C1441 H1449 0.960 . S
C1442 C1440 1.381 . S
C1442 C1443 1.394 . S
C1442 H1450 0.930 . S
C1443 C1442 1.394 . S
C1443 C1444 1.383 . S
C1443 H1451 0.929 . S
C1444 C1443 1.383 . S
C1444 C1445 1.377 . S
C1445 H1429 0.930 . S
C1445 C1444 1.377 . S
C1445 C1446 1.379 . S
C1446 H1430 0.931 . S
C1446 C1440 1.383 . S
C1446 C1445 1.379 . S
H1447 C1441 0.959 . S
H1448 C1441 0.961 . S
H1449 C1441 0.960 . S
H1450 C1442 0.930 . S
H1451 C1443 0.929 . S
H1452 C1460 0.929 . S
H1453 C1462 0.930 . S
H1454 C1464 0.930 . S
H1455 C1467 0.929 . S
H1456 C1470 0.930 . S
H1457 C1472 0.960 . S
H1458 C1472 0.960 . S
H1459 C1472 0.960 . S
C1460 H1452 0.929 . S
C1460 C1461 1.377 . S
C1460 C1462 1.384 . S
C1461 C1460 1.377 . S
C1461 C1467 1.390 . S
C1462 H1453 0.930 . S
C1462 C1460 1.384 . S
C1462 C1463 1.372 . S
C1463 C1462 1.372 . S
C1463 C1464 1.400 . S
C1463 C1468 1.490 . S
C1464 H1454 0.930 . S
C1464 C1463 1.400 . S
C1464 C1467 1.386 . S
H1465 C1481 0.930 . S
H1466 C1482 0.931 . S
C1467 H1455 0.929 . S
C1467 C1461 1.390 . S
C1467 C1464 1.386 . S
C1468 C1463 1.490 . S
C1468 C1470 1.395 . S
C1468 C1471 1.403 . S
H1469 C1475 0.930 . S
C1470 H1456 0.930 . S
C1470 C1468 1.395 . S
C1470 C1473 1.403 . S
C1471 C1468 1.403 . S
C1471 C1472 1.524 . S
C1471 C1475 1.400 . S
C1472 H1457 0.960 . S
C1472 H1458 0.960 . S
C1472 H1459 0.960 . S
C1472 C1471 1.524 . S
C1473 C1470 1.403 . S
C1473 C1474 1.392 . S
C1473 C1477 1.495 . S
C1474 C1473 1.392 . S
C1474 C1475 1.385 . S
C1474 C1476 1.478 . S
C1475 H1469 0.930 . S
C1475 C1471 1.400 . S
C1475 C1474 1.385 . S
C1476 C1474 1.478 . S
C1476 C1478 1.381 . S
C1476 C1482 1.383 . S
C1477 C1473 1.495 . S
C1477 H1483 0.959 . S
C1477 H1484 0.961 . S
C1477 H1485 0.960 . S
C1478 C1476 1.381 . S
C1478 C1479 1.394 . S
C1478 H1486 0.930 . S
C1479 C1478 1.394 . S
C1479 C1480 1.383 . S
C1479 H1487 0.929 . S
C1480 C1479 1.383 . S
C1480 C1481 1.377 . S
C1481 H1465 0.930 . S
C1481 C1480 1.377 . S
C1481 C1482 1.379 . S
C1482 H1466 0.931 . S
C1482 C1476 1.383 . S
C1482 C1481 1.379 . S
H1483 C1477 0.959 . S
H1484 C1477 0.961 . S
H1485 C1477 0.960 . S
H1486 C1478 0.930 . S
H1487 C1479 0.929 . S
H1488 C1496 0.929 . S
H1489 C1498 0.930 . S
H1490 C1500 0.930 . S
H1491 C1503 0.929 . S
H1492 C1506 0.930 . S
H1493 C1508 0.960 . S
H1494 C1508 0.960 . S
H1495 C1508 0.960 . S
C1496 H1488 0.929 . S
C1496 C1497 1.377 . S
C1496 C1498 1.384 . S
C1497 C1496 1.377 . S
C1497 C1503 1.390 . S
C1498 H1489 0.930 . S
C1498 C1496 1.384 . S
C1498 C1499 1.372 . S
C1499 C1498 1.372 . S
C1499 C1500 1.400 . S
C1499 C1504 1.490 . S
C1500 H1490 0.930 . S
C1500 C1499 1.400 . S
C1500 C1503 1.386 . S
H1501 C1517 0.930 . S
H1502 C1518 0.931 . S
C1503 H1491 0.929 . S
C1503 C1497 1.390 . S
C1503 C1500 1.386 . S
C1504 C1499 1.490 . S
C1504 C1506 1.395 . S
C1504 C1507 1.403 . S
H1505 C1511 0.930 . S
C1506 H1492 0.930 . S
C1506 C1504 1.395 . S
C1506 C1509 1.403 . S
C1507 C1504 1.403 . S
C1507 C1508 1.524 . S
C1507 C1511 1.400 . S
C1508 H1493 0.960 . S
C1508 H1494 0.960 . S
C1508 H1495 0.960 . S
C1508 C1507 1.524 . S
C1509 C1506 1.403 . S
C1509 C1510 1.392 . S
C1509 C1513 1.495 . S
C1510 C1509 1.392 . S
C1510 C1511 1.385 . S
C1510 C1512 1.478 . S
C1511 H1505 0.930 . S
C1511 C1507 1.400 . S
C1511 C1510 1.385 . S
C1512 C1510 1.478 . S
C1512 C1514 1.381 . S
C1512 C1518 1.383 . S
C1513 C1509 1.495 . S
C1513 H1519 0.959 . S
C1513 H1520 0.961 . S
C1513 H1521 0.960 . S
C1514 C1512 1.381 . S
C1514 C1515 1.394 . S
C1514 H1522 0.930 . S
C1515 C1514 1.394 . S
C1515 C1516 1.383 . S
C1515 H1523 0.929 . S
C1516 C1515 1.383 . S
C1516 C1517 1.377 . S
C1517 H1501 0.930 . S
C1517 C1516 1.377 . S
C1517 C1518 1.379 . S
C1518 H1502 0.931 . S
C1518 C1512 1.383 . S
C1518 C1517 1.379 . S
H1519 C1513 0.959 . S
H1520 C1513 0.961 . S
H1521 C1513 0.960 . S
H1522 C1514 0.930 . S
H1523 C1515 0.929 . S
H1524 C1532 0.929 . S
H1525 C1534 0.942 . S
H1526 C1536 0.930 . S
H1527 C1539 0.929 . S
H1528 C1542 0.930 . S
H1529 C1544 0.960 . S
H1530 C1544 0.960 . S
H1531 C1544 0.960 . S
C1532 H1524 0.929 . S
C1532 C1533 1.377 1_455 S
C1532 C1534 1.384 1_455 S
C1533 C1532 1.377 1_655 S
C1533 C1539 1.390 . S
C1534 H1525 0.942 . S
C1534 C1532 1.384 1_655 S
C1534 C1535 1.372 . S
C1535 C1534 1.372 . S
C1535 C1536 1.400 . S
C1535 C1540 1.490 . S
C1536 H1526 0.930 . S
C1536 C1535 1.400 . S
C1536 C1539 1.386 . S
H1537 C1553 0.930 . S
H1538 C1554 0.931 . S
C1539 H1527 0.929 . S
C1539 C1533 1.390 . S
C1539 C1536 1.386 . S
C1540 C1535 1.490 . S
C1540 C1542 1.395 . S
C1540 C1543 1.403 . S
H1541 C1547 0.930 . S
C1542 H1528 0.930 . S
C1542 C1540 1.395 . S
C1542 C1545 1.403 . S
C1543 C1540 1.403 . S
C1543 C1544 1.524 . S
C1543 C1547 1.400 . S
C1544 H1529 0.960 . S
C1544 H1530 0.960 . S
C1544 H1531 0.960 . S
C1544 C1543 1.524 . S
C1545 C1542 1.403 . S
C1545 C1546 1.392 . S
C1545 C1549 1.495 . S
C1546 C1545 1.392 . S
C1546 C1547 1.385 . S
C1546 C1548 1.478 . S
C1547 H1541 0.930 . S
C1547 C1543 1.400 . S
C1547 C1546 1.385 . S
C1548 C1546 1.478 . S
C1548 C1550 1.381 . S
C1548 C1554 1.383 . S
C1549 C1545 1.495 . S
C1549 H1555 0.959 . S
C1549 H1556 0.961 . S
C1549 H1557 0.960 . S
C1550 C1548 1.381 . S
C1550 C1551 1.394 . S
C1550 H1558 0.930 . S
C1551 C1550 1.394 . S
C1551 C1552 1.383 . S
C1551 H1559 0.929 . S
C1552 C1551 1.383 . S
C1552 C1553 1.377 . S
C1553 H1537 0.930 . S
C1553 C1552 1.377 . S
C1553 C1554 1.379 . S
C1554 H1538 0.931 . S
C1554 C1548 1.383 . S
C1554 C1553 1.379 . S
H1555 C1549 0.959 . S
H1556 C1549 0.961 . S
H1557 C1549 0.960 . S
H1558 C1550 0.930 . S
H1559 C1551 0.929 . S
H1560 C1568 0.929 . S
H1561 C1570 0.930 . S
H1562 C1572 0.930 . S
H1563 C1575 0.929 . S
H1564 C1578 0.930 . S
H1565 C1580 0.960 . S
H1566 C1580 0.960 . S
H1567 C1580 0.960 . S
C1568 H1560 0.929 . S
C1568 C1569 1.377 . S
C1568 C1570 1.384 . S
C1569 C1568 1.377 . S
C1569 C1575 1.390 . S
C1570 H1561 0.930 . S
C1570 C1568 1.384 . S
C1570 C1571 1.372 . S
C1571 C1570 1.372 . S
C1571 C1572 1.400 . S
C1571 C1576 1.490 . S
C1572 H1562 0.930 . S
C1572 C1571 1.400 . S
C1572 C1575 1.386 . S
H1573 C1589 0.930 . S
H1574 C1590 0.931 . S
C1575 H1563 0.929 . S
C1575 C1569 1.390 . S
C1575 C1572 1.386 . S
C1576 C1571 1.490 . S
C1576 C1578 1.395 . S
C1576 C1579 1.403 . S
H1577 C1583 0.930 . S
C1578 H1564 0.930 . S
C1578 C1576 1.395 . S
C1578 C1581 1.403 . S
C1579 C1576 1.403 . S
C1579 C1580 1.524 . S
C1579 C1583 1.400 . S
C1580 H1565 0.960 . S
C1580 H1566 0.960 . S
C1580 H1567 0.960 . S
C1580 C1579 1.524 . S
C1581 C1578 1.403 . S
C1581 C1582 1.392 . S
C1581 C1585 1.495 . S
C1582 C1581 1.392 . S
C1582 C1583 1.385 . S
C1582 C1584 1.478 . S
C1583 H1577 0.930 . S
C1583 C1579 1.400 . S
C1583 C1582 1.385 . S
C1584 C1582 1.478 . S
C1584 C1586 1.381 . S
C1584 C1590 1.383 . S
C1585 C1581 1.495 . S
C1585 H1591 0.959 . S
C1585 H1592 0.961 . S
C1585 H1593 0.960 . S
C1586 C1584 1.381 . S
C1586 C1587 1.394 . S
C1586 H1594 0.930 . S
C1587 C1586 1.394 . S
C1587 C1588 1.383 . S
C1587 H1595 0.929 . S
C1588 C1587 1.383 . S
C1588 C1589 1.377 . S
C1589 H1573 0.930 . S
C1589 C1588 1.377 . S
C1589 C1590 1.379 . S
C1590 H1574 0.931 . S
C1590 C1584 1.383 . S
C1590 C1589 1.379 . S
H1591 C1585 0.959 . S
H1592 C1585 0.961 . S
H1593 C1585 0.960 . S
H1594 C1586 0.930 . S
H1595 C1587 0.929 . S
H1596 C1604 0.929 . S
H1597 C1606 0.930 . S
H1598 C1608 0.930 . S
H1599 C1611 0.929 . S
H1600 C1614 0.930 . S
H1601 C1616 0.960 . S
H1602 C1616 0.960 . S
H1603 C1616 0.960 . S
C1604 H1596 0.929 . S
C1604 C1605 1.377 . S
C1604 C1606 1.384 . S
C1605 C1604 1.377 . S
C1605 C1611 1.390 . S
C1606 H1597 0.930 . S
C1606 C1604 1.384 . S
C1606 C1607 1.372 . S
C1607 C1606 1.372 . S
C1607 C1608 1.400 . S
C1607 C1612 1.490 . S
C1608 H1598 0.930 . S
C1608 C1607 1.400 . S
C1608 C1611 1.386 . S
H1609 C1625 0.930 . S
H1610 C1626 0.931 . S
C1611 H1599 0.929 . S
C1611 C1605 1.390 . S
C1611 C1608 1.386 . S
C1612 C1607 1.490 . S
C1612 C1614 1.395 . S
C1612 C1615 1.403 . S
H1613 C1619 0.930 . S
C1614 H1600 0.930 . S
C1614 C1612 1.395 . S
C1614 C1617 1.403 . S
C1615 C1612 1.403 . S
C1615 C1616 1.524 . S
C1615 C1619 1.400 . S
C1616 H1601 0.960 . S
C1616 H1602 0.960 . S
C1616 H1603 0.960 . S
C1616 C1615 1.524 . S
C1617 C1614 1.403 . S
C1617 C1618 1.392 . S
C1617 C1621 1.495 . S
C1618 C1617 1.392 . S
C1618 C1619 1.385 . S
C1618 C1620 1.478 . S
C1619 H1613 0.930 . S
C1619 C1615 1.400 . S
C1619 C1618 1.385 . S
C1620 C1618 1.478 . S
C1620 C1622 1.381 . S
C1620 C1626 1.383 . S
C1621 C1617 1.495 . S
C1621 H1627 0.959 . S
C1621 H1628 0.961 . S
C1621 H1629 0.960 . S
C1622 C1620 1.381 . S
C1622 C1623 1.394 . S
C1622 H1630 0.930 . S
C1623 C1622 1.394 . S
C1623 C1624 1.383 . S
C1623 H1631 0.929 . S
C1624 C1623 1.383 . S
C1624 C1625 1.377 . S
C1625 H1609 0.930 . S
C1625 C1624 1.377 . S
C1625 C1626 1.379 . S
C1626 H1610 0.931 . S
C1626 C1620 1.383 . S
C1626 C1625 1.379 . S
H1627 C1621 0.959 . S
H1628 C1621 0.961 . S
H1629 C1621 0.960 . S
H1630 C1622 0.930 . S
H1631 C1623 0.929 . S
C508 C389 1.197 . S
C489 C8 1.205 . S
C544 C409 1.281 . S
C525 C61 1.272 . S
C580 C423 1.306 . S
C561 C107 1.300 . S
C597 C139 1.312 . S
C616 C381 1.308 . S
C633 C192 1.297 . S
C652 C375 1.343 . S
C669 C238 1.271 . S
C688 C395 1.254 . S
C724 C403 1.178 . S
C705 C284 1.190 . S
C760 C417 1.280 . S
C741 C330 1.260 . S
C777 C100 1.254 . S
C796 C445 1.282 . S
C832 C459 1.211 . S
C813 C160 1.173 . S
C849 C15 1.278 1_655 S
C868 C479 1.294 . S
C904 C431 1.335 . S
C885 C54 1.299 . S
C921 C291 1.308 . S
C940 C437 1.323 . S
C957 C337 1.300 1_655 S
C976 C451 1.266 . S
C1012 C465 1.267 1_556 S
C993 C199 1.278 . S
C1029 C245 1.200 . S
C1048 C473 1.215 . S
C1084 C404 1.705 . S
C1065 C1 1.703 . S
C1120 C418 1.705 . S
C1101 C68 1.693 . S
C1137 C114 1.611 . S
C1156 C376 1.624 . S
C1173 C146 1.447 . S
C1192 C393 1.456 . S
C1209 C185 1.309 . S
C1228 C421 1.317 . S
C1264 C379 1.280 . S
C1245 C231 1.276 . S
C1300 C390 1.520 . S
C1281 C277 1.518 . S
C1336 C407 1.384 . S
C1317 C323 1.379 . S
C1372 C463 1.382 . S
C1353 C93 1.382 . S
C1408 C474 1.512 . S
C1389 C153 1.510 . S
C1425 C22 1.274 1_655 S
C1444 C435 1.275 . S
C1480 C449 1.316 . S
C1461 C47 1.309 . S
C1516 C477 1.448 . S
C1497 C298 1.444 . S
C1533 C344 1.618 1_655 S
C1552 C432 1.638 . S
C1588 C446 1.707 . S
C1569 C206 1.691 . S
C1624 C460 1.710 . S
C1605 C252 1.695 . S
