# Generated by pormake.
# Topology zzz, (3,6)-cn, num edge types: 1
# Building blocks:
#     Node 0, Type 0, BuildingBlock: QEWDON_clean_linker_0, # of connection points: 3
#     Node 1, Type 0, BuildingBlock: QEWDON_clean_linker_0, # of connection points: 3
#     Node 2, Type 0, BuildingBlock: QEWDON_clean_linker_0, # of connection points: 3
#     Node 3, Type 0, BuildingBlock: QEWDON_clean_linker_0, # of connection points: 3
#     Node 4, Type 0, BuildingBlock: QEWDON_clean_linker_0, # of connection points: 3
#     Node 5, Type 0, BuildingBlock: QEWDON_clean_linker_0, # of connection points: 3
#     Node 6, Type 0, BuildingBlock: QEWDON_clean_linker_0, # of connection points: 3
#     Node 7, Type 0, BuildingBlock: QEWDON_clean_linker_0, # of connection points: 3
#     Node 8, Type 1, BuildingBlock: CUKXOW_clean_sbu_0, # of connection points: 6
#     Node 9, Type 1, BuildingBlock: CUKXOW_clean_sbu_0, # of connection points: 6
#     Node 10, Type 1, BuildingBlock: CUKXOW_clean_sbu_0, # of connection points: 6
#     Node 11, Type 1, BuildingBlock: CUKXOW_clean_sbu_0, # of connection points: 6
#     Edge 12, Type (0, 1), BuildingBlock: XIVTED_clean_linker_0, # of connection points: 2
#     Edge 13, Type (0, 1), BuildingBlock: XIVTED_clean_linker_0, # of connection points: 2
#     Edge 14, Type (0, 1), BuildingBlock: XIVTED_clean_linker_0, # of connection points: 2
#     Edge 15, Type (0, 1), BuildingBlock: XIVTED_clean_linker_0, # of connection points: 2
#     Edge 16, Type (0, 1), BuildingBlock: XIVTED_clean_linker_0, # of connection points: 2
#     Edge 17, Type (0, 1), BuildingBlock: XIVTED_clean_linker_0, # of connection points: 2
#     Edge 18, Type (0, 1), BuildingBlock: XIVTED_clean_linker_0, # of connection points: 2
#     Edge 19, Type (0, 1), BuildingBlock: XIVTED_clean_linker_0, # of connection points: 2
#     Edge 20, Type (0, 1), BuildingBlock: XIVTED_clean_linker_0, # of connection points: 2
#     Edge 21, Type (0, 1), BuildingBlock: XIVTED_clean_linker_0, # of connection points: 2
#     Edge 22, Type (0, 1), BuildingBlock: XIVTED_clean_linker_0, # of connection points: 2
#     Edge 23, Type (0, 1), BuildingBlock: XIVTED_clean_linker_0, # of connection points: 2
#     Edge 24, Type (0, 1), BuildingBlock: XIVTED_clean_linker_0, # of connection points: 2
#     Edge 25, Type (0, 1), BuildingBlock: XIVTED_clean_linker_0, # of connection points: 2
#     Edge 26, Type (0, 1), BuildingBlock: XIVTED_clean_linker_0, # of connection points: 2
#     Edge 27, Type (0, 1), BuildingBlock: XIVTED_clean_linker_0, # of connection points: 2
#     Edge 28, Type (0, 1), BuildingBlock: XIVTED_clean_linker_0, # of connection points: 2
#     Edge 29, Type (0, 1), BuildingBlock: XIVTED_clean_linker_0, # of connection points: 2
#     Edge 30, Type (0, 1), BuildingBlock: XIVTED_clean_linker_0, # of connection points: 2
#     Edge 31, Type (0, 1), BuildingBlock: XIVTED_clean_linker_0, # of connection points: 2
#     Edge 32, Type (0, 1), BuildingBlock: XIVTED_clean_linker_0, # of connection points: 2
#     Edge 33, Type (0, 1), BuildingBlock: XIVTED_clean_linker_0, # of connection points: 2
#     Edge 34, Type (0, 1), BuildingBlock: XIVTED_clean_linker_0, # of connection points: 2
#     Edge 35, Type (0, 1), BuildingBlock: XIVTED_clean_linker_0, # of connection points: 2
# Relax obj value: 0.025
# Max RMSD: 0.091
# Mean RMSD: 0.034
data_MOF--net-zzz--node1-CUKXOW_clean_sbu_0--node2-QEWDON_clean_linker_0--edge1-XIVTED_clean_linker_0
_symmetry_space_group_name_H-M    P1
_symmetry_Int_Tables_number       1
_symmetry_cell_setting            triclinic
loop_
_symmetry_equiv_pos_as_xyz
'x, y, z'
_cell_length_a     54.231023
_cell_length_b     56.51458
_cell_length_c     15.596558
_cell_angle_alpha  93.415503
_cell_angle_beta   86.666383
_cell_angle_gamma 93.24432
loop_
_atom_site_label
_atom_site_type_symbol
_atom_site_fract_x
_atom_site_fract_y
_atom_site_fract_z
_atom_type_partial_charge
H0 H 0.78236 0.54041 0.97288 0.0
C1 C 0.78778 0.53635 0.03597 0.0
C2 C 0.81011 0.52548 0.04373 0.0
C3 C 0.77332 0.54338 0.11024 0.0
H4 H 0.83542 0.51367 0.13113 0.0
C5 C 0.8176 0.52111 0.12525 0.0
C6 C 0.80415 0.52897 0.19948 0.0
C7 C 0.78197 0.5401 0.19215 0.0
C8 C 0.75055 0.55628 0.10246 0.0
H9 H 0.77181 0.54661 0.24987 0.0
C10 C 0.73207 0.54731 0.0474 0.0
C11 C 0.71078 0.56002 0.0393 0.0
C12 C 0.74745 0.57799 0.14948 0.0
H13 H 0.76147 0.58538 0.1916 0.0
C14 C 0.72645 0.59065 0.14137 0.0
H15 H 0.73427 0.53054 0.011 0.0
C16 C 0.70825 0.58179 0.08662 0.0
H17 H 0.69198 0.59183 0.08226 0.0
H18 H 0.72427 0.6074 0.17767 0.0
H19 H 0.96644 0.7856 0.87796 0.0
C20 C 0.97316 0.79302 0.93846 0.0
C21 C 0.98482 0.81585 0.94314 0.0
C22 C 0.96905 0.78039 0.01373 0.0
H23 H 1.00067 0.84369 0.02536 0.0
C24 C 0.9927 0.82562 0.02198 0.0
C25 C 0.98801 0.81364 0.09762 0.0
C26 C 0.97616 0.79097 0.09323 0.0
C27 C 0.95554 0.75695 0.01216 0.0
H28 H 0.97211 0.7817 0.15174 0.0
C29 C 0.96598 0.73695 0.96951 0.0
C30 C 0.95434 0.71426 0.97821 0.0
C31 C 0.93298 0.75421 0.06038 0.0
H32 H 0.92473 0.76942 0.09384 0.0
C33 C 0.92109 0.7318 0.06692 0.0
H34 H 0.98363 0.73886 0.93354 0.0
C35 C 0.93182 0.71187 0.0269 0.0
H36 H 0.9226 0.69454 0.03411 0.0
H37 H 0.90375 0.72982 0.10443 0.0
H38 H 0.72554 0.96447 0.95258 0.0
C39 C 0.71667 0.96976 0.01426 0.0
C40 C 0.69305 0.97882 0.01793 0.0
C41 C 0.72826 0.96665 0.09125 0.0
H42 H 0.66322 0.99234 0.09958 0.0
C43 C 0.6816 0.98554 0.09742 0.0
C44 C 0.69279 0.98261 0.17409 0.0
C45 C 0.71601 0.97286 0.17109 0.0
C46 C 0.75284 0.95641 0.08965 0.0
H47 H 0.72464 0.97041 0.23068 0.0
C48 C 0.77302 0.96595 0.03947 0.0
C49 C 0.79679 0.95765 0.04553 0.0
C50 C 0.75654 0.93784 0.14284 0.0
H51 H 0.74126 0.93008 0.18145 0.0
C52 C 0.77999 0.92921 0.14718 0.0
H53 H 0.77048 0.98051 -0.00079 0.0
C54 C 0.80008 0.9392 0.09956 0.0
H55 H 0.81824 0.93252 0.10481 0.0
H56 H 0.78267 0.91495 0.18849 0.0
H57 H 0.563 0.73059 0.93944 0.0
C58 C 0.55638 0.72276 -0.00116 0.0
C59 C 0.54401 0.70028 -0.0038 0.0
C60 C 0.56129 0.73452 0.07884 0.0
H61 H 0.52765 0.67206 0.06993 0.0
C62 C 0.53622 0.6899 0.07295 0.0
C63 C 0.54157 0.70094 0.15284 0.0
C64 C 0.5542 0.72331 0.15559 0.0
C65 C 0.57536 0.75773 0.08291 0.0
H66 H 0.55865 0.73189 0.2172 0.0
C67 C 0.56691 0.77742 0.04412 0.0
C68 C 0.57963 0.79982 0.05314 0.0
C69 C 0.59697 0.76043 0.1287 0.0
H70 H 0.60384 0.74548 0.1587 0.0
C71 C 0.60997 0.78238 0.13585 0.0
H72 H 0.54996 0.77549 0.01022 0.0
C73 C 0.60136 0.80197 0.09873 0.0
H74 H 0.61179 0.81884 0.10551 0.0
H75 H 0.62669 0.78427 0.17086 0.0
H76 H 0.23061 0.50019 0.41915 0.0
C77 C 0.22441 0.49334 0.3572 0.0
C78 C 0.20057 0.4824 0.35197 0.0
C79 C 0.23943 0.49703 0.28174 0.0
H80 H 0.17309 0.46796 0.26689 0.0
C81 C 0.19209 0.47484 0.27122 0.0
C82 C 0.20624 0.47918 0.19541 0.0
C83 C 0.2301 0.48989 0.201 0.0
C84 C 0.26341 0.51109 0.28595 0.0
H85 H 0.24098 0.49347 0.14225 0.0
C86 C 0.28067 0.50702 0.34722 0.0
C87 C 0.30291 0.52115 0.35134 0.0
C88 C 0.26878 0.52934 0.22908 0.0
H89 H 0.25573 0.53325 0.18255 0.0
C90 C 0.29083 0.54313 0.23255 0.0
H91 H 0.27675 0.4931 0.3917 0.0
C92 C 0.30777 0.53911 0.29306 0.0
H93 H 0.32486 0.55001 0.29384 0.0
H94 H 0.29475 0.55709 0.18834 0.0
H95 H 0.01504 0.2236 0.50783 0.0
C96 C 0.0215 0.21793 0.44318 0.0
C97 C 0.03386 0.19668 0.42902 0.0
C98 C 0.01525 0.23054 0.37304 0.0
H99 H 0.04897 0.17186 0.33223 0.0
C100 C 0.04096 0.18898 0.34433 0.0
C101 C 0.03401 0.20082 0.27407 0.0
C102 C 0.02146 0.22178 0.2887 0.0
C103 C 0.99824 0.25013 0.38626 0.0
H104 H 0.01514 0.23043 0.2344 0.0
C105 C 0.00442 0.271 0.43611 0.0
C106 C 0.98784 0.28944 0.44652 0.0
C107 C 0.97538 0.24774 0.34777 0.0
H108 H 0.97021 0.23175 0.30973 0.0
C109 C 0.95892 0.26584 0.35833 0.0
H110 H 0.02203 0.2729 0.46598 0.0
C111 C 0.96508 0.28656 0.40701 0.0
H112 H 0.95213 0.30055 0.41239 0.0
H113 H 0.94139 0.26386 0.32818 0.0
H114 H 0.29515 0.01898 0.45044 0.0
C115 C 0.3034 0.02455 0.38942 0.0
C116 C 0.32715 0.036 0.38585 0.0
C117 C 0.2915 0.01797 0.31321 0.0
H118 H 0.35689 0.04954 0.30167 0.0
C119 C 0.33801 0.04211 0.30572 0.0
C120 C 0.32671 0.03502 0.22932 0.0
C121 C 0.30333 0.02316 0.23338 0.0
C122 C 0.26905 1.00192 0.31529 0.0
H123 H 0.29497 0.01676 0.17427 0.0
C124 C 0.24684 0.00878 0.35851 0.0
C125 C 0.22543 0.99349 0.35544 0.0
C126 C 0.26992 0.97944 0.27195 0.0
H127 H 0.28692 0.97377 0.23906 0.0
C128 C 0.24896 0.96404 0.27101 0.0
H129 H 0.246 0.02622 0.39116 0.0
C130 C 0.22684 0.97101 0.31205 0.0
H131 H 0.21073 0.95878 0.30984 0.0
H132 H 0.24982 0.94671 0.23775 0.0
H133 H 0.49312 0.29232 0.43047 0.0
C134 C 0.48385 0.30083 0.38183 0.0
C135 C 0.47165 0.32178 0.40461 0.0
C136 C 0.48557 0.29193 0.29523 0.0
H137 H 0.45104 0.34926 0.35812 0.0
C138 C 0.46052 0.33315 0.34071 0.0
C139 C 0.46539 0.32688 0.25355 0.0
C140 C 0.47657 0.30542 0.23131 0.0
C141 C 0.49894 0.26997 0.26996 0.0
H142 H 0.47941 0.29987 0.16405 0.0
C143 C 0.49668 0.25007 0.32119 0.0
C144 C 0.50869 0.22907 0.29489 0.0
C145 C 0.51396 0.26876 0.19328 0.0
H146 H 0.51699 0.28389 0.15384 0.0
C147 C 0.52545 0.24802 0.16624 0.0
H148 H 0.4856 0.25098 0.38117 0.0
C149 C 0.52264 0.22827 0.21576 0.0
H150 H 0.53137 0.2123 0.19127 0.0
H151 H 0.53658 0.24722 0.10633 0.0
Tb152 Tb 1.00087 0.9899 0.61057 0.0
C153 C 0.05614 0.00827 0.63172 0.0
Tb154 Tb 0.01289 0.02323 0.76816 0.0
O155 O 0.00596 0.0195 0.52539 0.0
O156 O 0.99448 0.02527 0.65414 0.0
O157 O 0.04099 0.991 0.60048 0.0
C158 C 0.0241 0.0624 0.86517 0.0
O159 O 0.04904 0.0236 0.69536 0.0
C160 C 0.01309 0.97756 0.79016 0.0
C161 C 0.95742 0.00471 0.74494 0.0
O162 O 0.03021 0.05909 0.78398 0.0
O163 O 0.01209 0.04351 0.89221 0.0
O164 O 0.00904 0.99323 0.85311 0.0
O165 O 0.01963 0.98818 0.7238 0.0
O166 O 0.97243 0.02184 0.77844 0.0
O167 O 0.96484 0.98957 0.68142 0.0
C168 C 0.99114 0.95071 0.51229 0.0
O169 O 0.98725 0.95277 0.5951 0.0
O170 O 0.99977 0.97092 0.48455 0.0
C171 C 1.00174 0.03545 0.58722 0.0
Tb172 Tb 0.51071 0.03851 0.67648 0.0
C173 C 0.5507 0.0053 0.59126 0.0
Tb174 Tb 0.51322 0.98733 0.74027 0.0
O175 O 0.54693 0.04976 0.724 0.0
O176 O 0.52592 0.02228 0.77892 0.0
O177 O 0.53654 0.02314 0.57982 0.0
C178 C 0.52515 0.94698 0.80444 0.0
O179 O 0.54622 0.99056 0.65414 0.0
C180 C 0.47679 0.99328 0.64127 0.0
C181 C 0.473 0.02048 0.82504 0.0
O182 O 0.52055 0.94951 0.72481 0.0
O183 O 0.52297 0.96715 0.84786 0.0
O184 O 0.47679 0.97644 0.69431 0.0
O185 O 0.49804 0.0036 0.63791 0.0
O186 O 0.48681 1.00229 0.83625 0.0
O187 O 0.47768 0.03537 0.76256 0.0
C188 C 0.50047 0.0781 0.60304 0.0
O189 O 0.50087 0.07585 0.68538 0.0
O190 O 0.50553 0.05807 0.56278 0.0
C191 C 0.54709 0.03276 0.77624 0.0
Tb192 Tb 0.51412 0.527 0.61376 0.0
C193 C 0.4586 0.51113 0.64748 0.0
Tb194 Tb 0.50017 0.49588 0.76596 0.0
O195 O 0.50871 0.49575 0.52378 0.0
O196 O 0.52009 0.49227 0.64684 0.0
O197 O 0.47416 0.52855 0.62153 0.0
C198 C 0.48501 0.45926 0.859 0.0
O199 O 0.46558 0.49456 0.69674 0.0
C200 C 0.50294 0.54182 0.80033 0.0
C201 C 0.5557 0.51456 0.73997 0.0
O202 O 0.48251 0.48146 0.88271 0.0
O203 O 0.49637 0.45771 0.7836 0.0
O204 O 0.50776 0.52654 0.85547 0.0
O205 O 0.49499 0.53093 0.7342 0.0
O206 O 0.54021 0.49854 0.77685 0.0
O207 O 0.54917 0.52785 0.67804 0.0
C208 C 0.52687 0.56437 0.52094 0.0
O209 O 0.51602 0.54464 0.49221 0.0
O210 O 0.53116 0.56278 0.60119 0.0
C211 C 0.51339 0.48087 0.58031 0.0
Tb212 Tb 0.98683 0.50905 0.62844 0.0
C213 C 0.00659 0.4591 0.65097 0.0
Tb214 Tb 0.0253 0.50476 0.76643 0.0
O215 O 0.01532 0.50132 0.52604 0.0
O216 O 0.02455 0.51815 0.64357 0.0
O217 O 0.9882 0.47086 0.62465 0.0
C218 C 0.0673 0.49775 0.83976 0.0
O219 O 0.02454 0.46943 0.69731 0.0
C220 C 0.97881 0.50397 0.82121 0.0
C221 C 0.00332 0.55423 0.75071 0.0
O222 O 0.04581 0.48769 0.86053 0.0
O223 O 0.06498 0.51214 0.77934 0.0
O224 O 0.99668 0.51162 0.86975 0.0
O225 O 0.98781 0.49559 0.75085 0.0
O226 O 0.02182 0.54296 0.7793 0.0
O227 O 0.98679 0.54385 0.69874 0.0
C228 C 0.94453 0.51471 0.55478 0.0
O229 O 0.96569 0.52545 0.53389 0.0
O230 O 0.94738 0.50064 0.61561 0.0
C231 C 0.03333 0.50923 0.57356 0.0
H232 H 0.1816 0.99036 0.27936 0.0
H233 H 0.09837 0.03034 0.69866 0.0
H234 H 0.2142 0.01339 0.51797 0.0
H235 H 0.072 0.98989 0.47554 0.0
H236 H 0.14058 0.03079 0.63008 0.0
H237 H 0.14085 0.9976 0.34587 0.0
C238 C 0.18013 0.99704 0.34594 0.0
C239 C 0.20121 1.00085 0.39376 0.0
C240 C 0.12544 0.02191 0.59649 0.0
C241 C 0.15445 0.00912 0.47096 0.0
C242 C 0.10142 0.02166 0.63542 0.0
C243 C 0.08171 0.00978 0.59325 0.0
C244 C 0.12948 0.01057 0.51454 0.0
C245 C 0.08663 0.99894 0.51126 0.0
C246 C 0.15685 1.00118 0.38398 0.0
C247 C 0.19831 0.0101 0.47918 0.0
N248 N 0.10991 0.99961 0.47489 0.0
N249 N 0.17525 0.01368 0.51565 0.0
H250 H 0.54409 0.19703 0.31218 0.0
H251 H 0.48101 0.11956 0.67039 0.0
H252 H 0.46948 0.21257 0.40202 0.0
H253 H 0.51607 0.08759 0.44009 0.0
H254 H 0.48141 0.15749 0.59905 0.0
H255 H 0.53982 0.16043 0.38738 0.0
C256 C 0.52671 0.19281 0.3471 0.0
C257 C 0.50688 0.20786 0.34837 0.0
C258 C 0.48878 0.14203 0.56442 0.0
C259 C 0.50249 0.16622 0.4382 0.0
C260 C 0.48861 0.12051 0.60484 0.0
C261 C 0.49853 0.10052 0.56082 0.0
C262 C 0.49965 0.14352 0.4809 0.0
C263 C 0.50819 0.10258 0.47612 0.0
C264 C 0.52444 0.17194 0.39057 0.0
C265 C 0.48532 0.20169 0.39887 0.0
N266 N 0.50887 0.1238 0.43938 0.0
N267 N 0.48369 0.18131 0.44199 0.0
H268 H 0.32228 0.47945 0.39257 0.0
H269 H 0.43317 0.54987 0.6247 0.0
H270 H 0.32598 0.55489 0.45477 0.0
H271 H 0.42524 0.47342 0.61492 0.0
H272 H 0.3923 0.55114 0.56972 0.0
H273 H 0.35777 0.47563 0.48136 0.0
C274 C 0.33025 0.49511 0.42622 0.0
C275 C 0.32145 0.51758 0.41526 0.0
C276 C 0.39924 0.53402 0.58023 0.0
C277 C 0.36203 0.51341 0.51575 0.0
C278 C 0.42267 0.5333 0.6115 0.0
C279 C 0.43264 0.5115 0.62383 0.0
C280 C 0.38568 0.51276 0.55922 0.0
C281 C 0.41812 0.49059 0.60641 0.0
C282 C 0.35055 0.49294 0.47651 0.0
C283 C 0.33249 0.5373 0.46001 0.0
N284 N 0.39544 0.49169 0.57362 0.0
N285 N 0.35228 0.53478 0.50731 0.0
H286 H 0.03174 0.31659 0.44215 0.0
H287 H 0.96561 0.43002 0.63588 0.0
H288 H 0.95794 0.31421 0.56175 0.0
H289 H 0.04524 0.42922 0.62452 0.0
H290 H 0.96318 0.3875 0.60112 0.0
H291 H 0.03846 0.3573 0.50461 0.0
C292 C 0.01716 0.32442 0.48288 0.0
C293 C 0.99406 0.31217 0.49544 0.0
C294 C 0.98123 0.39649 0.60677 0.0
C295 C 1.00148 0.35862 0.56535 0.0
C296 C 0.98264 0.42084 0.62595 0.0
C297 C 0.00566 0.43315 0.63254 0.0
C298 C 1.00302 0.38425 0.59225 0.0
C299 C 0.02712 0.42029 0.62007 0.0
C300 C 0.02098 0.34765 0.51812 0.0
C301 C 0.9758 0.3232 0.54851 0.0
N302 N 0.02532 0.39648 0.59928 0.0
N303 N 0.97977 0.34586 0.58034 0.0
H304 H 0.83808 0.97849 0.11388 0.0
H305 H 0.91796 0.9796 0.67468 0.0
H306 H 0.80495 0.96148 0.87179 0.0
H307 H 0.9383 0.02314 0.8991 0.0
H308 H 0.87695 0.97154 0.74438 0.0
H309 H 0.87567 0.99367 0.03636 0.0
C310 C 0.83875 0.97815 0.04425 0.0
C311 C 0.81856 0.9687 -0.00114 0.0
C312 C 0.8903 0.98312 0.77774 0.0
C313 C 0.86149 0.98567 0.90977 0.0
C314 C 0.91373 0.98768 0.73816 0.0
C315 C 0.93165 1.00198 0.78129 0.0
C316 C 0.88494 0.99253 0.86165 0.0
C317 C 0.92509 0.01203 0.86335 0.0
C318 C 0.86011 0.98688 8e-05 0.0
C319 C 0.82019 0.9687 0.90881 0.0
N320 N 0.9024 0.00684 0.90134 0.0
N321 N 0.84148 0.97675 0.86694 0.0
H322 H 0.57656 0.8442 0.13132 0.0
H323 H 0.52817 0.90306 0.72199 0.0
H324 H 0.56083 0.8041 0.89488 0.0
H325 H 0.53793 0.94062 0.96755 0.0
H326 H 0.5402 0.86662 0.78264 0.0
H327 H 0.56259 0.87965 0.07125 0.0
C328 C 0.57023 0.84287 0.06651 0.0
C329 C 0.57008 0.82117 0.01778 0.0
C330 C 0.53964 0.88281 0.82332 0.0
C331 C 0.55384 0.86181 0.94851 0.0
C332 C 0.53282 0.9036 0.78872 0.0
C333 C 0.53207 0.92482 0.83998 0.0
C334 C 0.54588 0.88334 0.90966 0.0
C335 C 0.53824 0.9246 0.92592 0.0
C336 C 0.56212 0.86312 0.03237 0.0
C337 C 0.56118 0.82043 0.93481 0.0
N338 N 0.54494 0.90421 0.95798 0.0
N339 N 0.55355 0.8405 0.90257 0.0
H340 H 0.68801 0.51536 0.03047 0.0
H341 H 0.59033 0.54974 0.6983 0.0
H342 H 0.68794 0.58368 0.92131 0.0
H343 H 0.57873 0.48911 0.8546 0.0
H344 H 0.63015 0.55878 0.76091 0.0
H345 H 0.65203 0.502 0.94798 0.0
C346 C 0.68064 0.52741 0.98819 0.0
C347 C 0.69082 0.55071 0.98313 0.0
C348 C 0.61899 0.54339 0.78109 0.0
C349 C 0.64977 0.53563 0.88903 0.0
C350 C 0.59623 0.53812 0.74504 0.0
C351 C 0.58099 0.51867 0.77144 0.0
C352 C 0.62675 0.52909 0.84393 0.0
C353 C 0.58976 0.50436 0.83257 0.0
C354 C 0.66004 0.51984 0.94166 0.0
C355 C 0.68046 0.56567 0.92788 0.0
N356 N 0.612 0.50991 0.86701 0.0
N357 N 0.6605 0.5579 0.88325 0.0
H358 H 0.96382 0.70148 0.80818 0.0
H359 H 0.01936 0.57766 0.89767 0.0
H360 H 0.97067 0.67819 0.06337 0.0
H361 H 0.97997 0.58778 0.67119 0.0
H362 H 0.01092 0.61832 0.95039 0.0
H363 H 0.97912 0.6634 0.74802 0.0
C364 C 0.96892 0.68845 0.85125 0.0
C365 C 0.96596 0.69274 0.94053 0.0
C366 C 0.00433 0.61164 0.88884 0.0
C367 C 0.98351 0.6496 0.87298 0.0
C368 C 0.00923 0.58852 0.85855 0.0
C369 C 1.00021 0.5793 0.78021 0.0
C370 C 0.99072 0.62575 0.8397 0.0
C371 C 0.98706 0.59413 0.73234 0.0
C372 C 0.97749 0.66678 0.81715 0.0
C373 C 0.97264 0.67537 -0.00592 0.0
N374 N 0.98272 0.61664 0.76278 0.0
N375 N 0.98113 0.65454 0.95951 0.0
H376 H 0.99591 0.1833 0.54241 0.0
H377 H 0.03803 0.05548 0.48365 0.0
H378 H 0.07151 0.16902 0.46478 0.0
H379 H 0.9833 0.07268 0.68597 0.0
H380 H 0.05033 0.09767 0.47743 0.0
H381 H 0.99099 0.14468 0.60579 0.0
C382 C 0.01183 0.17253 0.54194 0.0
C383 C 0.03402 0.17917 0.49638 0.0
C384 C 0.03582 0.09223 0.52395 0.0
C385 C 0.02812 0.13464 0.56553 0.0
C386 C 0.0286 0.06822 0.52666 0.0
C387 C 0.00943 0.06078 0.58445 0.0
C388 C 0.02331 0.10898 0.57781 0.0
C389 C 0.99804 0.07788 0.63993 0.0
C390 C 0.0089 0.15033 0.57734 0.0
C391 C 0.05391 0.16434 0.49754 0.0
N392 N 0.00483 0.10132 0.63419 0.0
N393 N 0.05027 0.14243 0.52886 0.0
H394 H 0.36031 0.07134 0.442 0.0
H395 H 0.47159 0.02785 0.52878 0.0
H396 H 0.33242 1.00022 0.4926 0.0
H397 H 0.42969 0.98043 0.69551 0.0
H398 H 0.43302 0.04427 0.49206 0.0
H399 H 0.39702 0.06494 0.52009 0.0
C400 C 0.36159 0.05462 0.47161 0.0
C401 C 0.34358 0.03607 0.45876 0.0
C402 C 0.43227 0.03073 0.53849 0.0
C403 C 0.38569 0.02843 0.5457 0.0
C404 C 0.45431 0.02131 0.55895 0.0
C405 C 0.45384 0.00305 0.61583 0.0
C406 C 0.4096 0.02152 0.57454 0.0
C407 C 0.43086 0.99447 0.65093 0.0
C408 C 0.38271 0.05086 0.51489 0.0
C409 C 0.34589 0.01497 0.50011 0.0
N410 N 0.40963 0.0036 0.62896 0.0
N411 N 0.36683 0.01156 0.54044 0.0
H412 H 0.43813 0.3445 0.51444 0.0
H413 H 0.53917 0.44629 0.6417 0.0
H414 H 0.51609 0.33398 0.47254 0.0
H415 H 0.47305 0.45751 0.51247 0.0
H416 H 0.52799 0.40336 0.63728 0.0
H417 H 0.44806 0.38381 0.5823 0.0
C418 C 0.45733 0.34988 0.52391 0.0
C419 C 0.47632 0.33634 0.48502 0.0
C420 C 0.51589 0.41532 0.61075 0.0
C421 C 0.48769 0.38103 0.56221 0.0
C422 C 0.5223 0.43964 0.61251 0.0
C423 C 0.5072 0.45518 0.57573 0.0
C424 C 0.49386 0.40674 0.57439 0.0
C425 C 0.48539 0.44594 0.5398 0.0
C426 C 0.46294 0.37245 0.56123 0.0
C427 C 0.50086 0.34402 0.50014 0.0
N428 N 0.4793 0.42227 0.54026 0.0
N429 N 0.50592 0.36624 0.53544 0.0
H430 H 0.16957 0.44614 0.40848 0.0
H431 H 0.07314 0.53608 0.62814 0.0
H432 H 0.1879 0.52078 0.45646 0.0
H433 H 0.05293 0.47122 0.48349 0.0
H434 H 0.11694 0.52729 0.60412 0.0
H435 H 0.12897 0.45138 0.48193 0.0
C436 C 0.1654 0.46344 0.4377 0.0
C437 C 0.18191 0.48314 0.42522 0.0
C438 C 0.10289 0.51494 0.57812 0.0
C439 C 0.13547 0.48933 0.50744 0.0
C440 C 0.078 0.51996 0.59146 0.0
C441 C 0.05959 0.50443 0.5569 0.0
C442 C 0.1093 0.4941 0.53068 0.0
C443 C 0.06667 0.48379 0.51001 0.0
C444 C 0.14214 0.46648 0.47844 0.0
C445 C 0.17568 0.50516 0.46445 0.0
N446 N 0.09102 0.4792 0.49829 0.0
N447 N 0.15269 0.50779 0.50235 0.0
H448 H 0.02414 0.82815 0.83533 0.0
H449 H 0.03275 0.94283 0.68264 0.0
H450 H 0.94819 0.84271 0.90259 0.0
H451 H 0.98146 0.95378 0.90126 0.0
H452 H 0.02367 0.89977 0.68671 0.0
H453 H 0.03035 0.86718 0.77462 0.0
C454 C 0.00842 0.83904 0.83259 0.0
C455 C 0.98554 0.83215 0.87263 0.0
C456 C 0.01449 0.91162 0.73379 0.0
C457 C 0.99271 0.87714 0.80778 0.0
C458 C 0.01963 0.93611 0.73158 0.0
C459 C 0.00807 0.95171 0.79261 0.0
C460 C 0.99747 0.90283 0.79697 0.0
C461 C 0.99103 0.94226 0.85403 0.0
C462 C 0.01202 0.86144 0.79894 0.0
C463 C 0.96597 0.84727 0.8708 0.0
N464 N 0.98618 0.9184 0.85447 0.0
N465 N 0.9702 0.86938 0.84156 0.0
H466 H 0.6956 0.01416 0.90605 0.0
H467 H 0.55255 0.99958 0.8931 0.0
H468 H 0.65567 0.94875 0.96708 0.0
H469 H 0.59408 0.04372 0.71413 0.0
H470 H 0.59075 0.98116 0.92275 0.0
H471 H 0.66015 0.02534 0.82921 0.0
C472 C 0.67986 1.00164 0.89928 0.0
C473 C 0.67849 0.98047 0.94202 0.0
C474 C 0.59144 0.99464 0.876 0.0
C475 C 0.63759 0.99362 0.85951 0.0
C476 C 0.56963 0.00502 0.85897 0.0
C477 C 0.5701 0.02272 0.79995 0.0
C478 C 0.61398 1.00257 0.83543 0.0
C479 C 0.59295 0.03011 0.76041 0.0
C480 C 0.6595 0.00815 0.85674 0.0
C481 C 0.65741 0.96512 0.93396 0.0
N482 N 0.61406 0.02014 0.7794 0.0
N483 N 0.63748 0.97227 0.89564 0.0
H484 H 0.58024 0.67477 0.91816 0.0
H485 H 0.48292 0.57789 0.72436 0.0
H486 H 0.5034 0.6887 0.9042 0.0
H487 H 0.54172 0.56289 0.8842 0.0
H488 H 0.49621 0.62033 0.73606 0.0
H489 H 0.5725 0.63594 0.84331 0.0
C490 C 0.56207 0.67022 0.89461 0.0
C491 C 0.54241 0.68485 0.91702 0.0
C492 C 0.5063 0.60764 0.76758 0.0
C493 C 0.53331 0.64046 0.83407 0.0
C494 C 0.49868 0.58358 0.76148 0.0
C495 C 0.51097 0.56713 0.80508 0.0
C496 C 0.5267 0.61504 0.81565 0.0
C497 C 0.53147 0.57516 0.8513 0.0
C498 C 0.55757 0.64793 0.85346 0.0
C499 C 0.51902 0.67791 0.8873 0.0
N500 N 0.53872 0.59859 0.85542 0.0
N501 N 0.51496 0.65593 0.84865 0.0
H502 H 0.83783 0.56078 0.97076 0.0
H503 H 0.94041 0.47503 0.76804 0.0
H504 H 0.82636 0.48467 0.96292 0.0
H505 H 0.95731 0.54069 0.91305 0.0
H506 H 0.89606 0.48112 0.79542 0.0
H507 H 0.87893 0.55637 0.89918 0.0
C508 C 0.84351 0.54318 0.94991 0.0
C509 C 0.82876 0.52303 0.97177 0.0
C510 C 0.90951 0.49422 0.82069 0.0
C511 C 0.87567 0.51787 0.89251 0.0
C512 C 0.9347 0.49075 0.80547 0.0
C513 C 0.95232 0.50729 0.83937 0.0
C514 C 0.90204 0.5146 0.8686 0.0
C515 C 0.94417 0.52739 0.8871 0.0
C516 C 0.86706 0.54067 0.91063 0.0
C517 C 0.83717 0.50057 0.94596 0.0
N518 N 0.91954 0.53056 0.90014 0.0
N519 N 0.86027 0.49855 0.90835 0.0
H520 H 0.9944 0.18754 0.18154 0.0
H521 H 0.05905 0.0985 0.83927 0.0
H522 H 0.07347 0.18247 0.17937 0.0
H523 H 0.99564 0.07794 0.00329 0.0
H524 H 0.06263 0.13684 0.92349 0.0
H525 H 0.99253 0.15558 0.06859 0.0
C526 C 0.01148 0.18039 0.15464 0.0
C527 C 0.03414 0.18761 0.1894 0.0
C528 C 0.04795 0.12387 0.94031 0.0
C529 C 0.03204 0.15109 0.06154 0.0
C530 C 0.04593 0.10211 0.89287 0.0
C531 C 0.0272 0.08509 0.91546 0.0
C532 C 0.03054 0.12875 0.00816 0.0
C533 C 0.01051 0.09052 0.98473 0.0
C534 C 0.01034 0.162 0.09121 0.0
C535 C 0.05569 0.17736 0.15374 0.0
N536 N 0.01242 0.11201 0.02825 0.0
N537 N 0.05412 0.15939 0.09191 0.0
H538 H 0.35333 0.07238 0.15886 0.0
H539 H 0.44658 0.9865 0.91429 0.0
H540 H 0.33682 0.99711 0.12058 0.0
H541 H 0.44672 0.0603 0.85687 0.0
H542 H 0.40724 0.99066 -0.003 0.0
H543 H 0.38767 0.06932 0.04986 0.0
C544 C 0.3565 0.05538 0.12544 0.0
C545 C 0.34225 0.03498 0.14827 0.0
C546 C 0.41585 0.00592 0.96602 0.0
C547 C 0.38184 0.03118 0.02671 0.0
C548 C 0.43845 0.00364 0.91978 0.0
C549 C 0.45005 0.02315 0.87949 0.0
C550 C 0.40496 0.02796 0.97323 0.0
C551 C 0.43844 0.04483 0.88735 0.0
C552 C 0.37614 0.05359 0.06385 0.0
C553 C 0.34722 0.01328 0.10411 0.0
N554 N 0.41662 0.04673 0.93409 0.0
N555 N 0.36693 0.01185 0.04661 0.0
H556 H 0.45462 0.32125 0.08021 0.0
H557 H 0.46532 0.46099 0.02293 0.0
H558 H 0.47369 0.37486 0.27868 0.0
H559 H 0.48675 0.41179 0.81323 0.0
H560 H 0.4557 0.42761 0.11384 0.0
H561 H 0.4556 0.35281 0.9772 0.0
C562 C 0.45863 0.33948 0.1027 0.0
C563 C 0.46347 0.34522 0.18939 0.0
C564 C 0.46231 0.4241 0.04767 0.0
C565 C 0.46409 0.38114 0.0727 0.0
C566 C 0.46779 0.44311 -0.0041 0.0
C567 C 0.47719 0.43907 0.91124 0.0
C568 C 0.46616 0.40087 0.01443 0.0
C569 C 0.47982 0.41556 0.87887 0.0
C570 C 0.4591 0.35741 0.04395 0.0
C571 C 0.46867 0.36929 0.21418 0.0
N572 N 0.47448 0.39722 0.93086 0.0
N573 N 0.46869 0.38619 0.15651 0.0
H574 H 0.1774 0.44149 0.13278 0.0
H575 H 0.1124 0.52099 0.81342 0.0
H576 H 0.20493 0.51214 0.0745 0.0
H577 H 0.07576 0.46294 0.9463 0.0
H578 H 0.15118 0.51295 0.87751 0.0
H579 H 0.14579 0.44352 0.0282 0.0
C580 C 0.17727 0.45713 0.0959 0.0
C581 C 0.19353 0.47682 0.11334 0.0
C582 C 0.13468 0.50189 0.89199 0.0
C583 C 0.15725 0.4794 -0.00523 0.0
C584 C 0.11258 0.5065 0.85585 0.0
C585 C 0.09085 0.49281 0.87589 0.0
C586 C 0.13504 0.48324 0.94745 0.0
C587 C 0.09206 0.4741 0.93024 0.0
C588 C 0.1591 0.45836 0.03689 0.0
C589 C 0.19273 0.49657 0.06321 0.0
N590 N 0.11378 0.4699 0.96434 0.0
N591 N 0.17454 0.49755 0.00722 0.0
H592 H 0.02962 0.83968 0.14228 0.0
H593 H 0.96808 0.90822 0.55389 0.0
H594 H 0.95602 0.81866 0.23934 0.0
H595 H 0.01365 0.94185 0.35511 0.0
H596 H 0.96982 0.87019 0.46805 0.0
H597 H 0.03163 0.87129 0.25606 0.0
C598 C 0.01418 0.84129 0.18918 0.0
C599 C 0.99244 0.82689 0.18055 0.0
C600 C 0.97941 0.88596 0.4438 0.0
C601 C 0.9946 0.86294 0.31003 0.0
C602 C 0.97832 0.90757 0.49213 0.0
C603 C 0.99047 0.92813 0.46058 0.0
C604 C 0.99336 0.88498 0.36517 0.0
C605 C 0.00377 0.92644 0.38102 0.0
C606 C 0.01527 0.85939 0.25349 0.0
C607 C 0.97307 0.82948 0.24365 0.0
N608 N 0.005 0.90519 0.33627 0.0
N609 N 0.97442 0.84753 0.30527 0.0
H610 H 0.68003 0.9536 0.30554 0.0
H611 H 0.57057 0.03555 0.47206 0.0
H612 H 0.67241 0.0243 0.22465 0.0
H613 H 0.58349 0.96991 0.58645 0.0
H614 H 0.60923 0.03221 0.38601 0.0
H615 H 0.64726 0.96021 0.41836 0.0
C616 C 0.67199 0.97076 0.31348 0.0
C617 C 0.67868 0.98839 0.25573 0.0
C618 C 0.60369 0.01855 0.43011 0.0
C619 C 0.64092 0.99585 0.38201 0.0
C620 C 0.58145 0.02034 0.47879 0.0
C621 C 0.57358 1.00285 0.5359 0.0
C622 C 0.61816 0.99902 0.43788 0.0
C623 C 0.5887 0.98372 0.54265 0.0
C624 C 0.65312 0.97445 0.37707 0.0
C625 C 0.66755 0.01022 0.2677 0.0
N626 N 0.6102 0.98223 0.49376 0.0
N627 N 0.64896 0.01321 0.32864 0.0
H628 H 0.49882 0.67623 0.19999 0.0
H629 H 0.55397 0.60523 0.56438 0.0
H630 H 0.57292 0.69335 0.27931 0.0
H631 H 0.50553 0.57366 0.37443 0.0
H632 H 0.55593 0.64261 0.48982 0.0
H633 H 0.49465 0.64442 0.30012 0.0
C634 C 0.51398 0.67367 0.2402 0.0
C635 C 0.5364 0.68714 0.23037 0.0
C636 C 0.54494 0.62743 0.46483 0.0
C637 C 0.53176 0.65078 0.34447 0.0
C638 C 0.5439 0.60617 0.50681 0.0
C639 C 0.52979 0.58637 0.47464 0.0
C640 C 0.5312 0.62892 0.39201 0.0
C641 C 0.51683 0.58845 0.40065 0.0
C642 C 0.51165 0.65544 0.2967 0.0
C643 C 0.55535 0.68331 0.28487 0.0
N644 N 0.5177 0.60941 0.36217 0.0
N645 N 0.55275 0.66519 0.33904 0.0
H646 H 0.82602 0.56678 0.2848 0.0
H647 H 0.90186 0.48726 0.57214 0.0
H648 H 0.81226 0.49112 0.2926 0.0
H649 H 0.93313 0.55007 0.45403 0.0
H650 H 0.86265 0.49244 0.50617 0.0
H651 H 0.85834 0.56498 0.38774 0.0
C652 C 0.82908 0.54997 0.31134 0.0
C653 C 0.8164 0.5291 0.28139 0.0
C654 C 0.87806 0.50515 0.49539 0.0
C655 C 0.8535 0.52681 0.39669 0.0
C656 C 0.9004 0.50221 0.53265 0.0
C657 C 0.92077 0.51811 0.51729 0.0
C658 C 0.876 0.52441 0.44399 0.0
C659 C 0.91791 0.53727 0.46642 0.0
C660 C 0.84773 0.5489 0.36879 0.0
C661 C 0.82149 0.5076 0.31536 0.0
N662 N 0.8959 0.53991 0.43149 0.0
N663 N 0.83984 0.50695 0.37086 0.0
loop_
_geom_bond_atom_site_label_1
_geom_bond_atom_site_label_2
_geom_bond_distance
_geom_bond_site_symmetry_2
_ccdc_geom_bond_type
H0 C1 0.949 1_556 S
C1 H0 0.949 1_554 S
C1 C2 1.395 . S
C1 C3 1.391 . S
C2 C1 1.395 . S
C2 C5 1.390 . S
C3 C1 1.391 . S
C3 C7 1.387 . S
C3 C8 1.491 . S
H4 C5 0.950 . S
C5 C2 1.390 . S
C5 H4 0.950 . S
C5 C6 1.378 . S
C6 C5 1.378 . S
C6 C7 1.409 . S
C7 C3 1.387 . S
C7 C6 1.409 . S
C7 H9 0.951 . S
C8 C3 1.491 . S
C8 C10 1.382 . S
C8 C12 1.404 . S
H9 C7 0.951 . S
C10 C8 1.382 . S
C10 C11 1.390 . S
C10 H15 0.949 1_554 S
C11 C10 1.390 . S
C11 C16 1.399 . S
C12 C8 1.404 . S
C12 H13 0.950 . S
C12 C14 1.375 . S
H13 C12 0.950 . S
C14 C12 1.375 . S
C14 C16 1.382 . S
C14 H18 0.950 . S
H15 C10 0.949 1_556 S
C16 C11 1.399 . S
C16 C14 1.382 . S
C16 H17 0.952 . S
H17 C16 0.952 . S
H18 C14 0.950 . S
H19 C20 0.949 . S
C20 H19 0.949 . S
C20 C21 1.395 . S
C20 C22 1.391 1_556 S
C21 C20 1.395 . S
C21 C24 1.390 1_556 S
C22 C20 1.391 1_554 S
C22 C26 1.387 . S
C22 C27 1.491 . S
H23 C24 0.950 . S
C24 C21 1.390 1_554 S
C24 H23 0.950 . S
C24 C25 1.378 . S
C25 C24 1.378 . S
C25 C26 1.409 . S
C26 C22 1.387 . S
C26 C25 1.409 . S
C26 H28 0.951 . S
C27 C22 1.491 . S
C27 C29 1.382 1_554 S
C27 C31 1.404 . S
H28 C26 0.951 . S
C29 C27 1.382 1_556 S
C29 C30 1.390 . S
C29 H34 0.949 . S
C30 C29 1.390 . S
C30 C35 1.399 1_556 S
C31 C27 1.404 . S
C31 H32 0.950 . S
C31 C33 1.375 . S
H32 C31 0.950 . S
C33 C31 1.375 . S
C33 C35 1.382 . S
C33 H37 0.950 . S
H34 C29 0.949 . S
C35 C30 1.399 1_554 S
C35 C33 1.382 . S
C35 H36 0.952 . S
H36 C35 0.952 . S
H37 C33 0.950 . S
H38 C39 0.949 1_556 S
C39 H38 0.949 1_554 S
C39 C40 1.395 . S
C39 C41 1.391 . S
C40 C39 1.395 . S
C40 C43 1.390 . S
C41 C39 1.391 . S
C41 C45 1.387 . S
C41 C46 1.491 . S
H42 C43 0.950 . S
C43 C40 1.390 . S
C43 H42 0.950 . S
C43 C44 1.378 . S
C44 C43 1.378 . S
C44 C45 1.409 . S
C45 C41 1.387 . S
C45 C44 1.409 . S
C45 H47 0.951 . S
C46 C41 1.491 . S
C46 C48 1.382 . S
C46 C50 1.404 . S
H47 C45 0.951 . S
C48 C46 1.382 . S
C48 C49 1.390 . S
C48 H53 0.949 1_554 S
C49 C48 1.390 . S
C49 C54 1.399 . S
C50 C46 1.404 . S
C50 H51 0.950 . S
C50 C52 1.375 . S
H51 C50 0.950 . S
C52 C50 1.375 . S
C52 C54 1.382 . S
C52 H56 0.950 . S
H53 C48 0.949 1_556 S
C54 C49 1.399 . S
C54 C52 1.382 . S
C54 H55 0.952 . S
H55 C54 0.952 . S
H56 C52 0.950 . S
H57 C58 0.949 1_556 S
C58 H57 0.949 1_554 S
C58 C59 1.395 . S
C58 C60 1.391 . S
C59 C58 1.395 . S
C59 C62 1.390 . S
C60 C58 1.391 . S
C60 C64 1.387 . S
C60 C65 1.491 . S
H61 C62 0.950 . S
C62 C59 1.390 . S
C62 H61 0.950 . S
C62 C63 1.378 . S
C63 C62 1.378 . S
C63 C64 1.409 . S
C64 C60 1.387 . S
C64 C63 1.409 . S
C64 H66 0.951 . S
C65 C60 1.491 . S
C65 C67 1.382 . S
C65 C69 1.404 . S
H66 C64 0.951 . S
C67 C65 1.382 . S
C67 C68 1.390 . S
C67 H72 0.949 . S
C68 C67 1.390 . S
C68 C73 1.399 . S
C69 C65 1.404 . S
C69 H70 0.950 . S
C69 C71 1.375 . S
H70 C69 0.950 . S
C71 C69 1.375 . S
C71 C73 1.382 . S
C71 H75 0.950 . S
H72 C67 0.949 . S
C73 C68 1.399 . S
C73 C71 1.382 . S
C73 H74 0.952 . S
H74 C73 0.952 . S
H75 C71 0.950 . S
H76 C77 0.949 . S
C77 H76 0.949 . S
C77 C78 1.395 . S
C77 C79 1.391 . S
C78 C77 1.395 . S
C78 C81 1.390 . S
C79 C77 1.391 . S
C79 C83 1.387 . S
C79 C84 1.491 . S
H80 C81 0.950 . S
C81 C78 1.390 . S
C81 H80 0.950 . S
C81 C82 1.378 . S
C82 C81 1.378 . S
C82 C83 1.409 . S
C83 C79 1.387 . S
C83 C82 1.409 . S
C83 H85 0.951 . S
C84 C79 1.491 . S
C84 C86 1.382 . S
C84 C88 1.404 . S
H85 C83 0.951 . S
C86 C84 1.382 . S
C86 C87 1.390 . S
C86 H91 0.949 . S
C87 C86 1.390 . S
C87 C92 1.399 . S
C88 C84 1.404 . S
C88 H89 0.950 . S
C88 C90 1.375 . S
H89 C88 0.950 . S
C90 C88 1.375 . S
C90 C92 1.382 . S
C90 H94 0.950 . S
H91 C86 0.949 . S
C92 C87 1.399 . S
C92 C90 1.382 . S
C92 H93 0.952 . S
H93 C92 0.952 . S
H94 C90 0.950 . S
H95 C96 0.949 . S
C96 H95 0.949 . S
C96 C97 1.395 . S
C96 C98 1.391 . S
C97 C96 1.395 . S
C97 C100 1.390 . S
C98 C96 1.391 . S
C98 C102 1.387 . S
C98 C103 1.491 . S
H99 C100 0.950 . S
C100 C97 1.390 . S
C100 H99 0.950 . S
C100 C101 1.378 . S
C101 C100 1.378 . S
C101 C102 1.409 . S
C102 C98 1.387 . S
C102 C101 1.409 . S
C102 H104 0.951 . S
C103 C98 1.491 . S
C103 C105 1.382 . S
C103 C107 1.404 . S
H104 C102 0.951 . S
C105 C103 1.382 . S
C105 C106 1.390 . S
C105 H110 0.949 . S
C106 C105 1.390 . S
C106 C111 1.399 . S
C107 C103 1.404 . S
C107 H108 0.950 . S
C107 C109 1.375 . S
H108 C107 0.950 . S
C109 C107 1.375 . S
C109 C111 1.382 . S
C109 H113 0.950 1_455 S
H110 C105 0.949 . S
C111 C106 1.399 . S
C111 C109 1.382 . S
C111 H112 0.952 . S
H112 C111 0.952 . S
H113 C109 0.950 1_655 S
H114 C115 0.949 . S
C115 H114 0.949 . S
C115 C116 1.395 . S
C115 C117 1.391 . S
C116 C115 1.395 . S
C116 C119 1.390 . S
C117 C115 1.391 . S
C117 C121 1.387 . S
C117 C122 1.491 . S
H118 C119 0.950 . S
C119 C116 1.390 . S
C119 H118 0.950 . S
C119 C120 1.378 . S
C120 C119 1.378 . S
C120 C121 1.409 . S
C121 C117 1.387 . S
C121 C120 1.409 . S
C121 H123 0.951 . S
C122 C117 1.491 . S
C122 C124 1.382 . S
C122 C126 1.404 . S
H123 C121 0.951 . S
C124 C122 1.382 . S
C124 C125 1.390 . S
C124 H129 0.949 . S
C125 C124 1.390 . S
C125 C130 1.399 . S
C126 C122 1.404 . S
C126 H127 0.950 . S
C126 C128 1.375 . S
H127 C126 0.950 . S
C128 C126 1.375 . S
C128 C130 1.382 . S
C128 H132 0.950 . S
H129 C124 0.949 . S
C130 C125 1.399 . S
C130 C128 1.382 . S
C130 H131 0.952 . S
H131 C130 0.952 . S
H132 C128 0.950 . S
H133 C134 0.949 . S
C134 H133 0.949 . S
C134 C135 1.395 . S
C134 C136 1.391 . S
C135 C134 1.395 . S
C135 C138 1.390 . S
C136 C134 1.391 . S
C136 C140 1.387 . S
C136 C141 1.491 . S
H137 C138 0.950 . S
C138 C135 1.390 . S
C138 H137 0.950 . S
C138 C139 1.378 . S
C139 C138 1.378 . S
C139 C140 1.409 . S
C140 C136 1.387 . S
C140 C139 1.409 . S
C140 H142 0.951 . S
C141 C136 1.491 . S
C141 C143 1.382 . S
C141 C145 1.404 . S
H142 C140 0.951 . S
C143 C141 1.382 . S
C143 C144 1.390 . S
C143 H148 0.949 . S
C144 C143 1.390 . S
C144 C149 1.399 . S
C145 C141 1.404 . S
C145 H146 0.950 . S
C145 C147 1.375 . S
H146 C145 0.950 . S
C147 C145 1.375 . S
C147 C149 1.382 . S
C147 H151 0.950 . S
H148 C143 0.949 . S
C149 C144 1.399 . S
C149 C147 1.382 . S
C149 H150 0.952 . S
H150 C149 0.952 . S
H151 C147 0.950 . S
Tb152 O155 2.453 1_565 S
Tb152 O156 2.596 1_665 S
Tb152 O157 2.374 1_665 S
Tb152 O165 2.343 1_655 S
Tb152 O167 2.353 1_565 S
Tb152 O169 2.427 . S
Tb152 O170 2.513 1_655 S
C153 O157 1.251 . S
C153 O159 1.263 . S
Tb154 O156 2.343 . S
Tb154 O159 2.353 . S
Tb154 O162 2.427 . S
Tb154 O163 2.513 1_455 S
Tb154 O164 2.453 1_545 S
Tb154 O165 2.596 1_545 S
Tb154 O166 2.374 1_455 S
O155 Tb152 2.453 1_545 S
O155 C171 1.245 1_655 S
O156 Tb152 2.596 1_445 S
O156 Tb154 2.343 . S
O156 C171 1.259 . S
O157 Tb152 2.374 1_445 S
O157 C153 1.251 . S
C158 O162 1.275 . S
C158 O163 1.246 1_455 S
O159 C153 1.263 . S
O159 Tb154 2.353 . S
C160 O164 1.245 . S
C160 O165 1.259 . S
C161 O166 1.250 . S
C161 O167 1.263 . S
O162 Tb154 2.427 . S
O162 C158 1.275 . S
O163 Tb154 2.513 1_655 S
O163 C158 1.246 1_655 S
O164 Tb154 2.453 1_565 S
O164 C160 1.245 . S
O165 Tb152 2.343 1_455 S
O165 Tb154 2.596 1_565 S
O165 C160 1.259 . S
O166 Tb154 2.374 1_655 S
O166 C161 1.250 . S
O167 Tb152 2.353 1_545 S
O167 C161 1.263 . S
C168 O169 1.275 . S
C168 O170 1.246 1_655 S
O169 Tb152 2.427 . S
O169 C168 1.275 . S
O170 Tb152 2.513 1_455 S
O170 C168 1.246 1_455 S
C171 O155 1.245 1_455 S
C171 O156 1.259 . S
Tb172 O175 2.453 . S
Tb172 O176 2.596 1_545 S
Tb172 O177 2.374 . S
Tb172 O185 2.343 . S
Tb172 O187 2.353 . S
Tb172 O189 2.427 . S
Tb172 O190 2.513 . S
C173 O177 1.251 1_565 S
C173 O179 1.263 . S
Tb174 O176 2.343 . S
Tb174 O179 2.353 . S
Tb174 O182 2.427 . S
Tb174 O183 2.513 . S
Tb174 O184 2.453 . S
Tb174 O185 2.596 1_565 S
Tb174 O186 2.374 . S
O175 Tb172 2.453 . S
O175 C191 1.245 . S
O176 Tb172 2.596 1_565 S
O176 Tb174 2.343 . S
O176 C191 1.259 1_565 S
O177 Tb172 2.374 . S
O177 C173 1.251 1_545 S
C178 O182 1.275 . S
C178 O183 1.246 . S
O179 C173 1.263 . S
O179 Tb174 2.353 . S
C180 O184 1.245 1_545 S
C180 O185 1.259 . S
C181 O186 1.250 1_545 S
C181 O187 1.263 . S
O182 Tb174 2.427 . S
O182 C178 1.275 . S
O183 Tb174 2.513 . S
O183 C178 1.246 . S
O184 Tb174 2.453 . S
O184 C180 1.245 1_565 S
O185 Tb172 2.343 . S
O185 Tb174 2.596 1_545 S
O185 C180 1.259 . S
O186 Tb174 2.374 . S
O186 C181 1.250 1_565 S
O187 Tb172 2.353 . S
O187 C181 1.263 . S
C188 O189 1.275 . S
C188 O190 1.246 . S
O189 Tb172 2.427 . S
O189 C188 1.275 . S
O190 Tb172 2.513 . S
O190 C188 1.246 . S
C191 O175 1.245 . S
C191 O176 1.259 1_545 S
Tb192 O195 2.453 . S
Tb192 O196 2.596 . S
Tb192 O197 2.374 . S
Tb192 O205 2.343 . S
Tb192 O207 2.353 . S
Tb192 O209 2.427 . S
Tb192 O210 2.513 . S
C193 O197 1.251 . S
C193 O199 1.263 . S
Tb194 O196 2.343 . S
Tb194 O199 2.353 . S
Tb194 O202 2.427 . S
Tb194 O203 2.513 . S
Tb194 O204 2.453 . S
Tb194 O205 2.596 . S
Tb194 O206 2.374 . S
O195 Tb192 2.453 . S
O195 C211 1.245 . S
O196 Tb192 2.596 . S
O196 Tb194 2.343 . S
O196 C211 1.259 . S
O197 Tb192 2.374 . S
O197 C193 1.251 . S
C198 O202 1.275 . S
C198 O203 1.246 . S
O199 C193 1.263 . S
O199 Tb194 2.353 . S
C200 O204 1.245 . S
C200 O205 1.259 . S
C201 O206 1.250 . S
C201 O207 1.263 . S
O202 Tb194 2.427 . S
O202 C198 1.275 . S
O203 Tb194 2.513 . S
O203 C198 1.246 . S
O204 Tb194 2.453 . S
O204 C200 1.245 . S
O205 Tb192 2.343 . S
O205 Tb194 2.596 . S
O205 C200 1.259 . S
O206 Tb194 2.374 . S
O206 C201 1.250 . S
O207 Tb192 2.353 . S
O207 C201 1.263 . S
C208 O209 1.275 . S
C208 O210 1.246 . S
O209 Tb192 2.427 . S
O209 C208 1.275 . S
O210 Tb192 2.513 . S
O210 C208 1.246 . S
C211 O195 1.245 . S
C211 O196 1.259 . S
Tb212 O215 2.453 1_655 S
Tb212 O216 2.596 1_655 S
Tb212 O217 2.372 1_655 S
Tb212 O225 2.343 . S
Tb212 O227 2.353 1_655 S
Tb212 O229 2.427 . S
Tb212 O230 2.513 . S
C213 O217 1.258 . S
C213 O219 1.263 . S
Tb214 O216 2.343 . S
Tb214 O219 2.353 . S
Tb214 O222 2.427 . S
Tb214 O223 2.513 . S
Tb214 O224 2.453 1_455 S
Tb214 O225 2.596 1_455 S
Tb214 O226 2.374 . S
O215 Tb212 2.453 1_455 S
O215 C231 1.245 . S
O216 Tb212 2.596 1_455 S
O216 Tb214 2.343 . S
O216 C231 1.259 . S
O217 Tb212 2.372 1_455 S
O217 C213 1.258 . S
C218 O222 1.275 . S
C218 O223 1.246 . S
O219 C213 1.263 . S
O219 Tb214 2.353 . S
C220 O224 1.245 . S
C220 O225 1.259 . S
C221 O226 1.250 . S
C221 O227 1.263 . S
O222 Tb214 2.427 . S
O222 C218 1.275 . S
O223 Tb214 2.513 . S
O223 C218 1.246 . S
O224 Tb214 2.453 1_655 S
O224 C220 1.245 . S
O225 Tb212 2.343 . S
O225 Tb214 2.596 1_655 S
O225 C220 1.259 . S
O226 Tb214 2.374 . S
O226 C221 1.250 . S
O227 Tb212 2.353 1_455 S
O227 C221 1.263 . S
C228 O229 1.275 . S
C228 O230 1.246 . S
O229 Tb212 2.427 . S
O229 C228 1.275 . S
O230 Tb212 2.513 . S
O230 C228 1.246 . S
C231 O215 1.245 . S
C231 O216 1.259 . S
H232 C238 0.930 . S
H233 C242 0.930 . S
H234 C247 0.929 . S
H235 C245 0.934 . S
H236 C240 0.929 . S
H237 C246 0.929 . S
C238 H232 0.930 . S
C238 C239 1.367 . S
C238 C246 1.378 . S
C239 C238 1.367 . S
C239 C247 1.433 . S
C240 H236 0.929 . S
C240 C242 1.378 . S
C240 C244 1.350 . S
C241 C244 1.463 . S
C241 C246 1.350 . S
C241 N249 1.427 . S
C242 H233 0.930 . S
C242 C240 1.378 . S
C242 C243 1.367 . S
C243 C242 1.367 . S
C243 C245 1.433 . S
C244 C240 1.350 . S
C244 C241 1.463 . S
C244 N248 1.427 . S
C245 H235 0.934 . S
C245 C243 1.433 . S
C245 N248 1.384 . S
C246 H237 0.929 . S
C246 C238 1.378 . S
C246 C241 1.350 . S
C247 H234 0.929 . S
C247 C239 1.433 . S
C247 N249 1.384 . S
N248 C244 1.427 . S
N248 C245 1.384 . S
N249 C241 1.427 . S
N249 C247 1.384 . S
H250 C256 0.930 . S
H251 C260 0.930 . S
H252 C265 0.929 . S
H253 C263 0.929 . S
H254 C258 0.929 . S
H255 C264 0.929 . S
C256 H250 0.930 . S
C256 C257 1.367 . S
C256 C264 1.378 . S
C257 C256 1.367 . S
C257 C265 1.433 . S
C258 H254 0.929 . S
C258 C260 1.378 . S
C258 C262 1.350 . S
C259 C262 1.463 . S
C259 C264 1.350 . S
C259 N267 1.427 . S
C260 H251 0.930 . S
C260 C258 1.378 . S
C260 C261 1.367 . S
C261 C260 1.367 . S
C261 C263 1.433 . S
C262 C258 1.350 . S
C262 C259 1.463 . S
C262 N266 1.427 . S
C263 H253 0.929 . S
C263 C261 1.433 . S
C263 N266 1.384 . S
C264 H255 0.929 . S
C264 C256 1.378 . S
C264 C259 1.350 . S
C265 H252 0.929 . S
C265 C257 1.433 . S
C265 N267 1.384 . S
N266 C262 1.427 . S
N266 C263 1.384 . S
N267 C259 1.427 . S
N267 C265 1.384 . S
H268 C274 0.930 . S
H269 C278 0.930 . S
H270 C283 0.929 . S
H271 C281 0.929 . S
H272 C276 0.929 . S
H273 C282 0.929 . S
C274 H268 0.930 . S
C274 C275 1.367 . S
C274 C282 1.378 . S
C275 C274 1.367 . S
C275 C283 1.433 . S
C276 H272 0.929 . S
C276 C278 1.378 . S
C276 C280 1.350 . S
C277 C280 1.463 . S
C277 C282 1.350 . S
C277 N285 1.427 . S
C278 H269 0.930 . S
C278 C276 1.378 . S
C278 C279 1.367 . S
C279 C278 1.367 . S
C279 C281 1.433 . S
C280 C276 1.350 . S
C280 C277 1.463 . S
C280 N284 1.427 . S
C281 H271 0.929 . S
C281 C279 1.433 . S
C281 N284 1.384 . S
C282 H273 0.929 . S
C282 C274 1.378 . S
C282 C277 1.350 . S
C283 H270 0.929 . S
C283 C275 1.433 . S
C283 N285 1.384 . S
N284 C280 1.427 . S
N284 C281 1.384 . S
N285 C277 1.427 . S
N285 C283 1.384 . S
H286 C292 0.930 . S
H287 C296 0.930 . S
H288 C301 0.929 . S
H289 C299 0.929 . S
H290 C294 0.929 1_655 S
H291 C300 0.929 . S
C292 H286 0.930 . S
C292 C293 1.367 . S
C292 C300 1.378 . S
C293 C292 1.367 . S
C293 C301 1.433 . S
C294 H290 0.929 1_455 S
C294 C296 1.378 1_455 S
C294 C298 1.350 . S
C295 C298 1.463 . S
C295 C300 1.350 . S
C295 N303 1.427 . S
C296 H287 0.930 . S
C296 C294 1.378 1_655 S
C296 C297 1.367 1_655 S
C297 C296 1.367 1_455 S
C297 C299 1.433 . S
C298 C294 1.350 . S
C298 C295 1.463 . S
C298 N302 1.427 . S
C299 H289 0.929 . S
C299 C297 1.433 . S
C299 N302 1.384 . S
C300 H291 0.929 . S
C300 C292 1.378 . S
C300 C295 1.350 . S
C301 H288 0.929 . S
C301 C293 1.433 . S
C301 N303 1.384 . S
N302 C298 1.427 . S
N302 C299 1.384 . S
N303 C295 1.427 . S
N303 C301 1.384 . S
H304 C310 0.930 . S
H305 C314 0.930 . S
H306 C319 0.929 . S
H307 C317 0.929 . S
H308 C312 0.929 . S
H309 C318 0.929 1_554 S
C310 H304 0.930 . S
C310 C311 1.367 1_554 S
C310 C318 1.378 1_554 S
C311 C310 1.367 1_556 S
C311 C319 1.433 . S
C312 H308 0.929 . S
C312 C314 1.378 . S
C312 C316 1.350 . S
C313 C316 1.463 . S
C313 C318 1.350 . S
C313 N321 1.427 . S
C314 H305 0.930 . S
C314 C312 1.378 . S
C314 C315 1.367 . S
C315 C314 1.367 . S
C315 C317 1.433 . S
C316 C312 1.350 . S
C316 C313 1.463 . S
C316 N320 1.427 . S
C317 H307 0.929 . S
C317 C315 1.433 . S
C317 N320 1.384 . S
C318 H309 0.929 1_556 S
C318 C310 1.378 1_556 S
C318 C313 1.350 . S
C319 H306 0.929 . S
C319 C311 1.433 . S
C319 N321 1.384 . S
N320 C316 1.427 . S
N320 C317 1.384 . S
N321 C313 1.427 . S
N321 C319 1.384 . S
H322 C328 0.930 . S
H323 C332 0.930 . S
H324 C337 0.929 . S
H325 C335 0.929 . S
H326 C330 0.929 . S
H327 C336 0.929 . S
C328 H322 0.930 . S
C328 C329 1.367 1_554 S
C328 C336 1.378 . S
C329 C328 1.367 1_556 S
C329 C337 1.433 . S
C330 H326 0.929 . S
C330 C332 1.378 . S
C330 C334 1.350 . S
C331 C334 1.463 . S
C331 C336 1.350 1_556 S
C331 N339 1.427 . S
C332 H323 0.930 . S
C332 C330 1.378 . S
C332 C333 1.367 . S
C333 C332 1.367 . S
C333 C335 1.433 . S
C334 C330 1.350 . S
C334 C331 1.463 . S
C334 N338 1.427 . S
C335 H325 0.929 . S
C335 C333 1.433 . S
C335 N338 1.384 . S
C336 H327 0.929 . S
C336 C328 1.378 . S
C336 C331 1.350 1_554 S
C337 H324 0.929 . S
C337 C329 1.433 . S
C337 N339 1.384 . S
N338 C334 1.427 . S
N338 C335 1.384 . S
N339 C331 1.427 . S
N339 C337 1.384 . S
H340 C346 0.930 1_554 S
H341 C350 0.930 . S
H342 C355 0.929 . S
H343 C353 0.929 . S
H344 C348 0.929 . S
H345 C354 0.929 . S
C346 H340 0.930 1_556 S
C346 C347 1.367 . S
C346 C354 1.378 . S
C347 C346 1.367 . S
C347 C355 1.433 . S
C348 H344 0.929 . S
C348 C350 1.378 . S
C348 C352 1.350 . S
C349 C352 1.463 . S
C349 C354 1.350 . S
C349 N357 1.427 . S
C350 H341 0.930 . S
C350 C348 1.378 . S
C350 C351 1.367 . S
C351 C350 1.367 . S
C351 C353 1.433 . S
C352 C348 1.350 . S
C352 C349 1.463 . S
C352 N356 1.427 . S
C353 H343 0.929 . S
C353 C351 1.433 . S
C353 N356 1.384 . S
C354 H345 0.929 . S
C354 C346 1.378 . S
C354 C349 1.350 . S
C355 H342 0.929 . S
C355 C347 1.433 . S
C355 N357 1.384 . S
N356 C352 1.427 . S
N356 C353 1.384 . S
N357 C349 1.427 . S
N357 C355 1.384 . S
H358 C364 0.930 . S
H359 C368 0.930 . S
H360 C373 0.929 1_554 S
H361 C371 0.929 . S
H362 C366 0.929 . S
H363 C372 0.929 . S
C364 H358 0.930 . S
C364 C365 1.367 . S
C364 C372 1.378 . S
C365 C364 1.367 . S
C365 C373 1.433 . S
C366 H362 0.929 . S
C366 C368 1.378 . S
C366 C370 1.350 . S
C367 C370 1.463 . S
C367 C372 1.350 . S
C367 N375 1.427 . S
C368 H359 0.930 . S
C368 C366 1.378 . S
C368 C369 1.367 . S
C369 C368 1.367 . S
C369 C371 1.433 1_655 S
C370 C366 1.350 . S
C370 C367 1.463 . S
C370 N374 1.427 . S
C371 H361 0.929 . S
C371 C369 1.433 1_455 S
C371 N374 1.384 1_455 S
C372 H363 0.929 . S
C372 C364 1.378 . S
C372 C367 1.350 . S
C373 H360 0.929 1_556 S
C373 C365 1.433 . S
C373 N375 1.384 . S
N374 C370 1.427 . S
N374 C371 1.384 1_655 S
N375 C367 1.427 . S
N375 C373 1.384 . S
H376 C382 0.930 . S
H377 C386 0.930 . S
H378 C391 0.929 . S
H379 C389 0.929 1_655 S
H380 C384 0.929 . S
H381 C390 0.929 . S
C382 H376 0.930 . S
C382 C383 1.367 . S
C382 C390 1.378 . S
C383 C382 1.367 . S
C383 C391 1.433 . S
C384 H380 0.929 . S
C384 C386 1.378 . S
C384 C388 1.350 . S
C385 C388 1.463 . S
C385 C390 1.350 . S
C385 N393 1.427 . S
C386 H377 0.930 . S
C386 C384 1.378 . S
C386 C387 1.367 . S
C387 C386 1.367 . S
C387 C389 1.433 . S
C388 C384 1.350 . S
C388 C385 1.463 . S
C388 N392 1.427 . S
C389 H379 0.929 1_455 S
C389 C387 1.433 . S
C389 N392 1.384 . S
C390 H381 0.929 . S
C390 C382 1.378 . S
C390 C385 1.350 . S
C391 H378 0.929 . S
C391 C383 1.433 . S
C391 N393 1.384 . S
N392 C388 1.427 . S
N392 C389 1.384 . S
N393 C385 1.427 . S
N393 C391 1.384 . S
H394 C400 0.930 . S
H395 C404 0.930 . S
H396 C409 0.929 . S
H397 C407 0.929 . S
H398 C402 0.929 . S
H399 C408 0.929 . S
C400 H394 0.930 . S
C400 C401 1.367 . S
C400 C408 1.378 . S
C401 C400 1.367 . S
C401 C409 1.433 . S
C402 H398 0.929 . S
C402 C404 1.378 . S
C402 C406 1.350 . S
C403 C406 1.463 . S
C403 C408 1.350 . S
C403 N411 1.427 . S
C404 H395 0.930 . S
C404 C402 1.378 . S
C404 C405 1.367 . S
C405 C404 1.367 . S
C405 C407 1.433 . S
C406 C402 1.350 . S
C406 C403 1.463 . S
C406 N410 1.427 . S
C407 H397 0.929 . S
C407 C405 1.433 . S
C407 N410 1.384 . S
C408 H399 0.929 . S
C408 C400 1.378 . S
C408 C403 1.350 . S
C409 H396 0.929 . S
C409 C401 1.433 . S
C409 N411 1.384 . S
N410 C406 1.427 . S
N410 C407 1.384 . S
N411 C403 1.427 . S
N411 C409 1.384 . S
H412 C418 0.930 . S
H413 C422 0.930 . S
H414 C427 0.929 . S
H415 C425 0.929 . S
H416 C420 0.929 . S
H417 C426 0.929 . S
C418 H412 0.930 . S
C418 C419 1.367 . S
C418 C426 1.378 . S
C419 C418 1.367 . S
C419 C427 1.433 . S
C420 H416 0.929 . S
C420 C422 1.378 . S
C420 C424 1.350 . S
C421 C424 1.463 . S
C421 C426 1.350 . S
C421 N429 1.427 . S
C422 H413 0.930 . S
C422 C420 1.378 . S
C422 C423 1.367 . S
C423 C422 1.367 . S
C423 C425 1.433 . S
C424 C420 1.350 . S
C424 C421 1.463 . S
C424 N428 1.427 . S
C425 H415 0.929 . S
C425 C423 1.433 . S
C425 N428 1.384 . S
C426 H417 0.929 . S
C426 C418 1.378 . S
C426 C421 1.350 . S
C427 H414 0.929 . S
C427 C419 1.433 . S
C427 N429 1.384 . S
N428 C424 1.427 . S
N428 C425 1.384 . S
N429 C421 1.427 . S
N429 C427 1.384 . S
H430 C436 0.930 . S
H431 C440 0.930 . S
H432 C445 0.929 . S
H433 C443 0.929 . S
H434 C438 0.929 . S
H435 C444 0.929 . S
C436 H430 0.930 . S
C436 C437 1.367 . S
C436 C444 1.378 . S
C437 C436 1.367 . S
C437 C445 1.433 . S
C438 H434 0.929 . S
C438 C440 1.378 . S
C438 C442 1.350 . S
C439 C442 1.463 . S
C439 C444 1.350 . S
C439 N447 1.427 . S
C440 H431 0.930 . S
C440 C438 1.378 . S
C440 C441 1.367 . S
C441 C440 1.367 . S
C441 C443 1.433 . S
C442 C438 1.350 . S
C442 C439 1.463 . S
C442 N446 1.427 . S
C443 H433 0.929 . S
C443 C441 1.433 . S
C443 N446 1.384 . S
C444 H435 0.929 . S
C444 C436 1.378 . S
C444 C439 1.350 . S
C445 H432 0.929 . S
C445 C437 1.433 . S
C445 N447 1.384 . S
N446 C442 1.427 . S
N446 C443 1.384 . S
N447 C439 1.427 . S
N447 C445 1.384 . S
H448 C454 0.930 1_554 S
H449 C458 0.930 . S
H450 C463 0.929 . S
H451 C461 0.930 . S
H452 C456 0.929 . S
H453 C462 0.929 . S
C454 H448 0.930 1_556 S
C454 C455 1.367 . S
C454 C462 1.378 . S
C455 C454 1.367 . S
C455 C463 1.433 . S
C456 H452 0.929 . S
C456 C458 1.378 . S
C456 C460 1.350 . S
C457 C460 1.463 . S
C457 C462 1.350 . S
C457 N465 1.427 . S
C458 H449 0.930 . S
C458 C456 1.378 . S
C458 C459 1.367 . S
C459 C458 1.367 . S
C459 C461 1.432 1_655 S
C460 C456 1.350 . S
C460 C457 1.463 . S
C460 N464 1.427 . S
C461 H451 0.930 . S
C461 C459 1.432 1_455 S
C461 N464 1.383 1_455 S
C462 H453 0.929 . S
C462 C454 1.378 . S
C462 C457 1.350 . S
C463 H450 0.929 . S
C463 C455 1.433 . S
C463 N465 1.384 . S
N464 C460 1.427 . S
N464 C461 1.383 1_655 S
N465 C457 1.427 . S
N465 C463 1.384 . S
H466 C472 0.930 . S
H467 C476 0.930 . S
H468 C481 0.929 . S
H469 C479 0.929 1_545 S
H470 C474 0.929 . S
H471 C480 0.929 . S
C472 H466 0.930 . S
C472 C473 1.367 . S
C472 C480 1.378 . S
C473 C472 1.367 . S
C473 C481 1.433 1_556 S
C474 H470 0.929 . S
C474 C476 1.378 . S
C474 C478 1.350 . S
C475 C478 1.463 . S
C475 C480 1.350 . S
C475 N483 1.427 . S
C476 H467 0.930 . S
C476 C474 1.378 . S
C476 C477 1.367 . S
C477 C476 1.367 . S
C477 C479 1.433 . S
C478 C474 1.350 . S
C478 C475 1.463 . S
C478 N482 1.427 . S
C479 H469 0.929 1_565 S
C479 C477 1.433 . S
C479 N482 1.384 . S
C480 H471 0.929 . S
C480 C472 1.378 . S
C480 C475 1.350 . S
C481 H468 0.929 . S
C481 C473 1.433 1_554 S
C481 N483 1.384 1_554 S
N482 C478 1.427 . S
N482 C479 1.384 . S
N483 C475 1.427 . S
N483 C481 1.384 1_556 S
H484 C490 0.930 . S
H485 C494 0.930 . S
H486 C499 0.929 . S
H487 C497 0.929 . S
H488 C492 0.929 . S
H489 C498 0.929 . S
C490 H484 0.930 . S
C490 C491 1.367 . S
C490 C498 1.378 . S
C491 C490 1.367 . S
C491 C499 1.433 1_556 S
C492 H488 0.929 . S
C492 C494 1.378 . S
C492 C496 1.350 . S
C493 C496 1.463 . S
C493 C498 1.350 . S
C493 N501 1.427 . S
C494 H485 0.930 . S
C494 C492 1.378 . S
C494 C495 1.367 . S
C495 C494 1.367 . S
C495 C497 1.433 . S
C496 C492 1.350 . S
C496 C493 1.463 . S
C496 N500 1.427 . S
C497 H487 0.929 . S
C497 C495 1.433 . S
C497 N500 1.384 . S
C498 H489 0.929 . S
C498 C490 1.378 . S
C498 C493 1.350 . S
C499 H486 0.929 . S
C499 C491 1.433 1_554 S
C499 N501 1.384 1_554 S
N500 C496 1.427 . S
N500 C497 1.384 . S
N501 C493 1.427 . S
N501 C499 1.384 1_556 S
H502 C508 0.930 . S
H503 C512 0.930 . S
H504 C517 0.929 1_554 S
H505 C515 0.929 . S
H506 C510 0.929 . S
H507 C516 0.929 . S
C508 H502 0.930 . S
C508 C509 1.367 . S
C508 C516 1.378 . S
C509 C508 1.367 . S
C509 C517 1.433 . S
C510 H506 0.929 . S
C510 C512 1.378 . S
C510 C514 1.350 . S
C511 C514 1.463 . S
C511 C516 1.350 . S
C511 N519 1.427 . S
C512 H503 0.930 . S
C512 C510 1.378 . S
C512 C513 1.367 . S
C513 C512 1.367 . S
C513 C515 1.433 . S
C514 C510 1.350 . S
C514 C511 1.463 . S
C514 N518 1.427 . S
C515 H505 0.929 . S
C515 C513 1.433 . S
C515 N518 1.384 . S
C516 H507 0.929 . S
C516 C508 1.378 . S
C516 C511 1.350 . S
C517 H504 0.929 1_556 S
C517 C509 1.433 . S
C517 N519 1.384 . S
N518 C514 1.427 . S
N518 C515 1.384 . S
N519 C511 1.427 . S
N519 C517 1.384 . S
H520 C526 0.930 . S
H521 C530 0.930 . S
H522 C535 0.929 . S
H523 C533 0.929 . S
H524 C528 0.929 . S
H525 C534 0.929 . S
C526 H520 0.930 . S
C526 C527 1.367 . S
C526 C534 1.378 . S
C527 C526 1.367 . S
C527 C535 1.433 . S
C528 H524 0.929 . S
C528 C530 1.378 . S
C528 C532 1.350 1_556 S
C529 C532 1.463 . S
C529 C534 1.350 . S
C529 N537 1.427 . S
C530 H521 0.930 . S
C530 C528 1.378 . S
C530 C531 1.367 . S
C531 C530 1.367 . S
C531 C533 1.433 1_556 S
C532 C528 1.350 1_554 S
C532 C529 1.463 . S
C532 N536 1.427 . S
C533 H523 0.929 . S
C533 C531 1.433 1_554 S
C533 N536 1.384 . S
C534 H525 0.929 . S
C534 C526 1.378 . S
C534 C529 1.350 . S
C535 H522 0.929 . S
C535 C527 1.433 . S
C535 N537 1.384 . S
N536 C532 1.427 . S
N536 C533 1.384 . S
N537 C529 1.427 . S
N537 C535 1.384 . S
H538 C544 0.930 . S
H539 C548 0.930 1_565 S
H540 C553 0.929 . S
H541 C551 0.929 . S
H542 C546 0.929 1_565 S
H543 C552 0.929 . S
C544 H538 0.930 . S
C544 C545 1.367 . S
C544 C552 1.378 . S
C545 C544 1.367 . S
C545 C553 1.433 . S
C546 H542 0.929 1_545 S
C546 C548 1.378 . S
C546 C550 1.349 1_556 S
C547 C550 1.464 . S
C547 C552 1.350 . S
C547 N555 1.427 . S
C548 H539 0.930 1_545 S
C548 C546 1.378 . S
C548 C549 1.367 . S
C549 C548 1.367 . S
C549 C551 1.433 . S
C550 C546 1.349 1_554 S
C550 C547 1.464 . S
C550 N554 1.427 1_554 S
C551 H541 0.929 . S
C551 C549 1.433 . S
C551 N554 1.384 . S
C552 H543 0.929 . S
C552 C544 1.378 . S
C552 C547 1.350 . S
C553 H540 0.929 . S
C553 C545 1.433 . S
C553 N555 1.384 . S
N554 C550 1.427 1_556 S
N554 C551 1.384 . S
N555 C547 1.427 . S
N555 C553 1.384 . S
H556 C562 0.930 . S
H557 C566 0.930 1_554 S
H558 C571 0.929 . S
H559 C569 0.929 . S
H560 C564 0.929 . S
H561 C570 0.929 1_556 S
C562 H556 0.930 . S
C562 C563 1.367 . S
C562 C570 1.378 . S
C563 C562 1.367 . S
C563 C571 1.433 . S
C564 H560 0.929 . S
C564 C566 1.378 1_554 S
C564 C568 1.350 . S
C565 C568 1.463 . S
C565 C570 1.350 . S
C565 N573 1.427 . S
C566 H557 0.930 1_556 S
C566 C564 1.378 1_556 S
C566 C567 1.367 . S
C567 C566 1.367 . S
C567 C569 1.433 . S
C568 C564 1.350 . S
C568 C565 1.463 . S
C568 N572 1.427 1_554 S
C569 H559 0.929 . S
C569 C567 1.433 . S
C569 N572 1.384 . S
C570 H561 0.929 1_554 S
C570 C562 1.378 . S
C570 C565 1.350 . S
C571 H558 0.929 . S
C571 C563 1.433 . S
C571 N573 1.384 . S
N572 C568 1.427 1_556 S
N572 C569 1.384 . S
N573 C565 1.427 . S
N573 C571 1.384 . S
H574 C580 0.930 . S
H575 C584 0.930 . S
H576 C589 0.929 . S
H577 C587 0.929 . S
H578 C582 0.929 . S
H579 C588 0.929 . S
C580 H574 0.930 . S
C580 C581 1.367 . S
C580 C588 1.378 . S
C581 C580 1.367 . S
C581 C589 1.433 . S
C582 H578 0.929 . S
C582 C584 1.378 . S
C582 C586 1.350 1_556 S
C583 C586 1.463 . S
C583 C588 1.350 . S
C583 N591 1.427 . S
C584 H575 0.930 . S
C584 C582 1.378 . S
C584 C585 1.367 . S
C585 C584 1.367 . S
C585 C587 1.433 . S
C586 C582 1.350 1_554 S
C586 C583 1.463 . S
C586 N590 1.427 . S
C587 H577 0.929 . S
C587 C585 1.433 . S
C587 N590 1.384 1_556 S
C588 H579 0.929 . S
C588 C580 1.378 . S
C588 C583 1.350 . S
C589 H576 0.929 . S
C589 C581 1.433 . S
C589 N591 1.384 . S
N590 C586 1.427 . S
N590 C587 1.384 1_554 S
N591 C583 1.427 . S
N591 C589 1.384 . S
H592 C598 0.930 . S
H593 C602 0.930 . S
H594 C607 0.929 . S
H595 C605 0.929 1_455 S
H596 C600 0.929 . S
H597 C606 0.929 . S
C598 H592 0.930 . S
C598 C599 1.367 . S
C598 C606 1.378 . S
C599 C598 1.367 . S
C599 C607 1.433 . S
C600 H596 0.929 . S
C600 C602 1.378 . S
C600 C604 1.350 . S
C601 C604 1.463 . S
C601 C606 1.350 . S
C601 N609 1.427 . S
C602 H593 0.930 . S
C602 C600 1.378 . S
C602 C603 1.367 . S
C603 C602 1.367 . S
C603 C605 1.433 . S
C604 C600 1.350 . S
C604 C601 1.463 . S
C604 N608 1.427 . S
C605 H595 0.929 1_655 S
C605 C603 1.433 . S
C605 N608 1.384 . S
C606 H597 0.929 . S
C606 C598 1.378 . S
C606 C601 1.350 . S
C607 H594 0.929 . S
C607 C599 1.433 . S
C607 N609 1.384 . S
N608 C604 1.427 . S
N608 C605 1.384 . S
N609 C601 1.427 . S
N609 C607 1.384 . S
H610 C616 0.930 . S
H611 C620 0.939 . S
H612 C625 0.929 . S
H613 C623 0.929 . S
H614 C618 0.927 1_545 S
H615 C624 0.929 . S
C616 H610 0.930 . S
C616 C617 1.367 . S
C616 C624 1.378 . S
C617 C616 1.367 . S
C617 C625 1.433 . S
C618 H614 0.927 1_565 S
C618 C620 1.375 1_565 S
C618 C622 1.350 . S
C619 C622 1.463 . S
C619 C624 1.350 . S
C619 N627 1.427 . S
C620 H611 0.939 . S
C620 C618 1.375 1_545 S
C620 C621 1.361 1_545 S
C621 C620 1.361 1_565 S
C621 C623 1.433 . S
C622 C618 1.350 . S
C622 C619 1.463 . S
C622 N626 1.427 . S
C623 H613 0.929 . S
C623 C621 1.433 . S
C623 N626 1.384 . S
C624 H615 0.929 . S
C624 C616 1.378 . S
C624 C619 1.350 . S
C625 H612 0.929 . S
C625 C617 1.433 . S
C625 N627 1.384 . S
N626 C622 1.427 . S
N626 C623 1.384 . S
N627 C619 1.427 . S
N627 C625 1.384 . S
H628 C634 0.930 . S
H629 C638 0.930 . S
H630 C643 0.929 . S
H631 C641 0.929 . S
H632 C636 0.929 . S
H633 C642 0.929 . S
C634 H628 0.930 . S
C634 C635 1.367 . S
C634 C642 1.378 . S
C635 C634 1.367 . S
C635 C643 1.433 . S
C636 H632 0.929 . S
C636 C638 1.378 . S
C636 C640 1.350 . S
C637 C640 1.463 . S
C637 C642 1.350 . S
C637 N645 1.427 . S
C638 H629 0.930 . S
C638 C636 1.378 . S
C638 C639 1.367 . S
C639 C638 1.367 . S
C639 C641 1.433 . S
C640 C636 1.350 . S
C640 C637 1.463 . S
C640 N644 1.427 . S
C641 H631 0.929 . S
C641 C639 1.433 . S
C641 N644 1.384 . S
C642 H633 0.929 . S
C642 C634 1.378 . S
C642 C637 1.350 . S
C643 H630 0.929 . S
C643 C635 1.433 . S
C643 N645 1.384 . S
N644 C640 1.427 . S
N644 C641 1.384 . S
N645 C637 1.427 . S
N645 C643 1.384 . S
H646 C652 0.930 . S
H647 C656 0.930 . S
H648 C661 0.929 . S
H649 C659 0.929 . S
H650 C654 0.929 . S
H651 C660 0.929 . S
C652 H646 0.930 . S
C652 C653 1.367 . S
C652 C660 1.378 . S
C653 C652 1.367 . S
C653 C661 1.433 . S
C654 H650 0.929 . S
C654 C656 1.378 . S
C654 C658 1.350 . S
C655 C658 1.463 . S
C655 C660 1.350 . S
C655 N663 1.427 . S
C656 H647 0.930 . S
C656 C654 1.378 . S
C656 C657 1.367 . S
C657 C656 1.367 . S
C657 C659 1.433 . S
C658 C654 1.350 . S
C658 C655 1.463 . S
C658 N662 1.427 . S
C659 H649 0.929 . S
C659 C657 1.433 . S
C659 N662 1.384 . S
C660 H651 0.929 . S
C660 C652 1.378 . S
C660 C655 1.350 . S
C661 H648 0.929 . S
C661 C653 1.433 . S
C661 N663 1.384 . S
N662 C658 1.427 . S
N662 C659 1.384 . S
N663 C655 1.427 . S
N663 C661 1.384 . S
C239 C125 1.499 . S
C243 C153 1.659 . S
C261 C188 1.602 . S
C257 C144 1.444 . S
C279 C193 1.384 . S
C275 C87 1.304 . S
C297 C213 1.495 . S
C293 C106 1.360 . S
C315 C161 1.658 1_565 S
C311 C49 1.600 1_556 S
C329 C68 1.567 1_556 S
C333 C178 1.600 . S
C347 C11 1.344 1_556 S
C351 C201 1.390 . S
C365 C30 1.437 . S
C369 C221 1.498 1_655 S
C387 C171 1.356 . S
C383 C97 1.320 . S
C405 C180 1.113 . S
C401 C116 1.098 . S
C423 C211 1.406 . S
C419 C135 1.360 . S
C437 C78 1.064 . S
C441 C231 1.072 . S
C455 C21 1.305 . S
C459 C160 1.368 1_655 S
C477 C191 1.119 1_565 S
C473 C40 1.097 1_556 S
C495 C200 1.396 . S
C491 C59 1.374 1_556 S
C509 C2 1.069 1_556 S
C513 C220 1.068 . S
C527 C101 1.441 . S
C531 C158 1.460 . S
C545 C120 1.473 . S
C549 C181 1.525 . S
C567 C198 1.555 . S
C563 C139 1.527 . S
C585 C218 1.596 . S
C581 C82 1.572 . S
C599 C25 1.445 . S
C603 C168 1.459 . S
C621 C173 1.523 . S
C617 C44 1.484 . S
C639 C208 1.564 . S
C635 C63 1.519 . S
C653 C6 1.572 . S
C657 C228 1.598 . S
