# Generated by pormake.
# Topology anh, (6,3)-cn, num edge types: 1
# Building blocks:
#     Node 0, Type 0, BuildingBlock: BETFEN_clean_sbu_0, # of connection points: 6
#     Node 1, Type 0, BuildingBlock: BETFEN_clean_sbu_0, # of connection points: 6
#     Node 2, Type 0, BuildingBlock: BETFEN_clean_sbu_0, # of connection points: 6
#     Node 3, Type 1, BuildingBlock: QEWDON_clean_linker_0, # of connection points: 3
#     Node 4, Type 1, BuildingBlock: QEWDON_clean_linker_0, # of connection points: 3
#     Node 5, Type 1, BuildingBlock: QEWDON_clean_linker_0, # of connection points: 3
#     Node 6, Type 1, BuildingBlock: QEWDON_clean_linker_0, # of connection points: 3
#     Node 7, Type 1, BuildingBlock: QEWDON_clean_linker_0, # of connection points: 3
#     Node 8, Type 1, BuildingBlock: QEWDON_clean_linker_0, # of connection points: 3
#     Edge 9, Type (0, 1), BuildingBlock: TEMPAE_clean_linker_10, # of connection points: 2
#     Edge 10, Type (0, 1), BuildingBlock: TEMPAE_clean_linker_10, # of connection points: 2
#     Edge 11, Type (0, 1), BuildingBlock: TEMPAE_clean_linker_10, # of connection points: 2
#     Edge 12, Type (0, 1), BuildingBlock: TEMPAE_clean_linker_10, # of connection points: 2
#     Edge 13, Type (0, 1), BuildingBlock: TEMPAE_clean_linker_10, # of connection points: 2
#     Edge 14, Type (0, 1), BuildingBlock: TEMPAE_clean_linker_10, # of connection points: 2
#     Edge 15, Type (0, 1), BuildingBlock: TEMPAE_clean_linker_10, # of connection points: 2
#     Edge 16, Type (0, 1), BuildingBlock: TEMPAE_clean_linker_10, # of connection points: 2
#     Edge 17, Type (0, 1), BuildingBlock: TEMPAE_clean_linker_10, # of connection points: 2
#     Edge 18, Type (0, 1), BuildingBlock: TEMPAE_clean_linker_10, # of connection points: 2
#     Edge 19, Type (0, 1), BuildingBlock: TEMPAE_clean_linker_10, # of connection points: 2
#     Edge 20, Type (0, 1), BuildingBlock: TEMPAE_clean_linker_10, # of connection points: 2
#     Edge 21, Type (0, 1), BuildingBlock: TEMPAE_clean_linker_10, # of connection points: 2
#     Edge 22, Type (0, 1), BuildingBlock: TEMPAE_clean_linker_10, # of connection points: 2
#     Edge 23, Type (0, 1), BuildingBlock: TEMPAE_clean_linker_10, # of connection points: 2
#     Edge 24, Type (0, 1), BuildingBlock: TEMPAE_clean_linker_10, # of connection points: 2
#     Edge 25, Type (0, 1), BuildingBlock: TEMPAE_clean_linker_10, # of connection points: 2
#     Edge 26, Type (0, 1), BuildingBlock: TEMPAE_clean_linker_10, # of connection points: 2
# Relax obj value: 0.138
# Max RMSD: 0.176
# Mean RMSD: 0.127
data_MOF--net-anh--node1-BETFEN_clean_sbu_0--node2-QEWDON_clean_linker_0--edge1-TEMPAE_clean_linker_10
_symmetry_space_group_name_H-M    P1
_symmetry_Int_Tables_number       1
_symmetry_cell_setting            triclinic
loop_
_symmetry_equiv_pos_as_xyz
'x, y, z'
_cell_length_a     32.036347
_cell_length_b     34.63651
_cell_length_c     48.817296
_cell_angle_alpha  94.34292
_cell_angle_beta   96.88671
_cell_angle_gamma 105.17159
loop_
_atom_site_label
_atom_site_type_symbol
_atom_site_fract_x
_atom_site_fract_y
_atom_site_fract_z
_atom_type_partial_charge
Pr0 Pr 0.03929 0.58037 0.15583 0.0
Pr1 Pr 0.06901 0.67587 0.15469 0.0
C2 C 0.99975 0.50548 0.16475 0.0
C3 C 0.95382 0.48347 0.16503 0.0
C4 C 0.93133 0.45552 0.14225 0.0
C5 C 0.88852 0.43302 0.1425 0.0
C6 C 0.86786 0.43771 0.16572 0.0
C7 C 0.88923 0.46697 0.18793 0.0
C8 C 0.93194 0.49 0.18753 0.0
C9 C 0.05829 0.60486 0.10524 0.0
C10 C 0.96329 0.6335 0.1528 0.0
C11 C 0.10111 0.74866 0.13891 0.0
C12 C 0.14505 0.7771 0.14406 0.0
C13 C 0.15195 0.81445 0.15971 0.0
C14 C 0.19382 0.84091 0.1657 0.0
C15 C 0.22945 0.83047 0.15602 0.0
C16 C 0.22257 0.79296 0.14054 0.0
C17 C 0.18081 0.7665 0.13463 0.0
C18 C 0.07342 0.65513 0.20965 0.0
C19 C 0.14501 0.62428 0.15991 0.0
O20 O 1.01875 0.53381 0.1852 0.0
O21 O 1.0096 0.51504 0.14044 0.0
O22 O 0.03732 0.62171 0.12077 0.0
O23 O 0.06745 0.57394 0.11533 0.0
O24 O 0.99343 0.66701 0.1505 0.0
O25 O 0.97291 0.59878 0.15523 0.0
O26 O 0.09675 0.71522 0.12299 0.0
O27 O 0.08013 0.74343 0.1604 0.0
O28 O 0.06281 0.63323 0.18717 0.0
O29 O 0.08467 0.69239 0.20445 0.0
O30 O 0.11587 0.5923 0.16615 0.0
O31 O 0.13403 0.65689 0.15284 0.0
H32 H 0.94729 0.45018 0.12455 0.0
H33 H 0.87256 0.41013 0.12536 0.0
H34 H 0.87356 0.47068 0.20605 0.0
H35 H 0.94815 0.51185 0.20516 0.0
H36 H 0.12497 0.8231 0.1674 0.0
H37 H 0.19819 0.86979 0.17752 0.0
H38 H 0.24957 0.78391 0.13321 0.0
H39 H 0.17677 0.73764 0.12287 0.0
Pr40 Pr 0.56663 0.10912 0.50106 0.0
Pr41 Pr 0.46422 0.07819 0.4948 0.0
C42 C 0.65107 0.13682 0.49543 0.0
C43 C 0.67885 0.1783 0.49449 0.0
C44 C 0.70602 0.20026 0.5185 0.0
C45 C 0.73141 0.23971 0.51781 0.0
C46 C 0.73052 0.25769 0.49302 0.0
C47 C 0.70308 0.23616 0.46915 0.0
C48 C 0.67732 0.19696 0.46988 0.0
C49 C 0.5324 0.1046 0.55041 0.0
C50 C 0.51106 0.18265 0.50157 0.0
C51 C 0.38156 0.04513 0.50317 0.0
C52 C 0.35372 1.00306 0.50081 0.0
C53 C 0.3259 0.98584 0.47589 0.0
C54 C 0.30113 0.94568 0.4729 0.0
C55 C 0.30336 0.92212 0.49482 0.0
C56 C 0.33051 0.93907 0.51985 0.0
C57 C 0.3556 0.97926 0.52284 0.0
C58 C 0.48981 0.0861 0.44202 0.0
C59 C 0.52032 1.00405 0.4985 0.0
O60 O 0.62042 0.1214 0.4742 0.0
O61 O 0.63826 0.12844 0.5193 0.0
O62 O 0.51945 0.0791 0.52931 0.0
O63 O 0.56405 0.1347 0.54605 0.0
O64 O 0.47633 0.15233 0.505 0.0
O65 O 0.54755 0.17293 0.49655 0.0
O66 O 0.41431 0.05653 0.52348 0.0
O67 O 0.39157 0.05893 0.47993 0.0
O68 O 0.51366 0.09324 0.46501 0.0
O69 O 0.44934 0.07246 0.44542 0.0
O70 O 0.55714 1.03499 0.50088 0.0
O71 O 0.48166 1.01289 0.49499 0.0
H72 H 0.70782 0.1869 0.53781 0.0
H73 H 0.75267 0.25577 0.5364 0.0
H74 H 0.70187 0.24962 0.44985 0.0
H75 H 0.65643 0.18128 0.45108 0.0
H76 H 0.32351 1.00329 0.45857 0.0
H77 H 0.28007 0.933 0.45349 0.0
H78 H 0.33238 0.92117 0.53699 0.0
H79 H 0.37662 0.99153 0.54231 0.0
Pr80 Pr 0.56674 0.50904 0.82249 0.0
Pr81 Pr 0.60328 0.59521 0.8399 0.0
C82 C 0.55554 0.43378 0.80333 0.0
C83 C 0.59095 0.41651 0.81199 0.0
C84 C 0.61573 0.43 0.83843 0.0
C85 C 0.65267 0.41749 0.84634 0.0
C86 C 0.66476 0.39045 0.82819 0.0
C87 C 0.64269 0.38093 0.8006 0.0
C88 C 0.60575 0.39359 0.79269 0.0
C89 C 0.57188 0.53005 0.87942 0.0
C90 C 0.67722 0.5492 0.8324 0.0
C91 C 0.61887 0.66298 0.87184 0.0
C92 C 0.59018 0.68806 0.86539 0.0
C93 C 0.57987 0.69346 0.83745 0.0
C94 C 0.54626 0.70988 0.82936 0.0
C95 C 0.52588 0.72537 0.84966 0.0
C96 C 0.53069 0.71406 0.87666 0.0
C97 C 0.56376 0.69625 0.88471 0.0
C98 C 0.58462 0.58815 0.7811 0.0
C99 C 0.49512 0.55787 0.82649 0.0
O100 O 0.56653 0.46248 0.78752 0.0
O101 O 0.5347 0.44283 0.82327 0.0
O102 O 0.60219 0.54205 0.86504 0.0
O103 O 0.53751 0.50625 0.86421 0.0
O104 O 0.67084 0.5836 0.84109 0.0
O105 O 0.64369 0.51711 0.82401 0.0
O106 O 0.59787 0.629 0.8798 0.0
O107 O 0.64461 0.65901 0.85339 0.0
O108 O 0.57818 0.5597 0.79594 0.0
O109 O 0.60042 0.62227 0.79648 0.0
O110 O 0.50226 0.52787 0.81125 0.0
O111 O 0.52788 0.58455 0.84223 0.0
H112 H 0.60641 0.45012 0.85314 0.0
H113 H 0.66958 0.4262 0.86739 0.0
H114 H 0.65133 0.36077 0.78563 0.0
H115 H 0.58849 0.38509 0.77171 0.0
H116 H 0.59823 0.68584 0.8217 0.0
H117 H 0.54226 0.71706 0.80813 0.0
H118 H 0.51419 0.72497 0.89244 0.0
H119 H 0.56918 0.68947 0.90594 0.0
H120 H 0.56914 0.1569 0.23697 0.0
C121 C 0.55376 0.12631 0.2276 0.0
C122 C 0.53725 0.09626 0.24445 0.0
C123 C 0.54646 0.1173 0.19842 0.0
H124 H 0.49954 1.03485 0.2448 0.0
C125 C 0.51468 0.05738 0.23206 0.0
C126 C 0.50694 0.04865 0.20325 0.0
C127 C 0.52432 0.078 0.18666 0.0
C128 C 0.5567 0.14899 0.17957 0.0
H129 H 0.51762 0.07073 0.16428 0.0
C130 C 0.59712 0.17833 0.18384 0.0
C131 C 0.60717 0.20588 0.16438 0.0
C132 C 0.52604 0.14882 0.15621 0.0
H133 H 0.49405 0.12734 0.15273 0.0
C134 C 0.53628 0.17624 0.13694 0.0
H135 H 0.62104 0.17917 0.20175 0.0
C136 C 0.57689 0.2045 0.14085 0.0
H137 H 0.58445 0.22583 0.12581 0.0
H138 H 0.51266 0.17558 0.11897 0.0
H139 H 0.53365 0.61009 0.56418 0.0
C140 C 0.53084 0.58093 0.55328 0.0
C141 C 0.53547 0.5492 0.5692 0.0
C142 C 0.52065 0.57531 0.52401 0.0
H143 H 0.53599 0.48713 0.56897 0.0
C144 C 0.53151 0.51031 0.55608 0.0
C145 C 0.52185 0.49998 0.5272 0.0
C146 C 0.51615 0.53337 0.51121 0.0
C147 C 0.5127 0.61256 0.50797 0.0
H148 H 0.5091 0.52644 0.48893 0.0
C149 C 0.52257 0.65658 0.51846 0.0
C150 C 0.51245 0.68766 0.50098 0.0
C151 C 0.49216 0.60276 0.48032 0.0
H152 H 0.48243 0.57206 0.47073 0.0
C153 C 0.48211 0.63143 0.46402 0.0
H154 H 0.53849 0.66665 0.53955 0.0
C155 C 0.49182 0.67211 0.4739 0.0
H156 H 0.48243 0.69195 0.45969 0.0
H157 H 0.46597 0.62169 0.4429 0.0
H158 H 0.12018 0.59158 0.89291 0.0
C159 C 0.08656 0.58413 0.88302 0.0
C160 C 0.05348 0.58473 0.89953 0.0
C161 C 0.07604 0.57442 0.85383 0.0
H162 H 0.9856 0.58089 0.89927 0.0
C163 C 1.01035 0.57741 0.88668 0.0
C164 C 0.99795 0.56482 0.85834 0.0
C165 C 0.03102 0.56358 0.84188 0.0
C166 C 0.11158 0.5777 0.83563 0.0
H167 H 1.02148 0.55377 0.81991 0.0
C168 C 0.15305 0.57112 0.84458 0.0
C169 C 0.186 0.57693 0.82704 0.0
C170 C 0.10449 0.58973 0.80889 0.0
H171 H 0.07435 0.59653 0.80134 0.0
C172 C 0.13658 0.59457 0.79157 0.0
H173 H 0.15995 0.56192 0.86495 0.0
C174 C 0.17693 0.58839 0.80054 0.0
H175 H 0.20147 0.59288 0.78673 0.0
H176 H 0.13033 0.60384 0.77114 0.0
H177 H 0.98833 0.5632 0.41366 0.0
C178 C 1.01891 0.58478 0.4226 0.0
C179 C 0.04856 0.60232 0.405 0.0
C180 C 0.02766 0.59739 0.45145 0.0
H181 H 0.10864 0.64626 0.40227 0.0
C182 C 0.0867 0.63214 0.41616 0.0
C183 C 0.09471 0.64684 0.44431 0.0
C184 C 0.06628 0.62804 0.46203 0.0
C185 C 0.99492 0.58234 0.47035 0.0
H186 H 0.07306 0.639 0.48391 0.0
C187 C 0.96968 0.54172 0.46759 0.0
C188 C 0.94047 0.5285 0.48657 0.0
C189 C 0.98892 0.60927 0.49175 0.0
H190 H 1.00613 0.64096 0.49399 0.0
C191 C 0.96024 0.59597 0.51051 0.0
H192 H 0.9733 0.52035 0.45127 0.0
C193 C 0.93638 0.55579 0.50809 0.0
H194 H 0.91405 0.54604 0.52281 0.0
H195 H 0.95633 0.61699 0.52693 0.0
H196 H 0.50712 1.01543 0.75964 0.0
C197 C 0.51881 0.04733 0.76662 0.0
C198 C 0.5385 0.07482 0.74883 0.0
C199 C 0.51796 0.06201 0.79456 0.0
H200 H 0.58447 0.13344 0.74953 0.0
C201 C 0.56229 0.11348 0.76079 0.0
C202 C 0.55444 0.12793 0.78621 0.0
C203 C 0.52642 0.1035 0.80099 0.0
C204 C 0.53192 0.0421 0.81843 0.0
H205 H 0.52241 0.11646 0.82108 0.0
C206 C 0.56311 1.02095 0.81559 0.0
C207 C 0.58558 1.011 0.83908 0.0
C208 C 0.52537 0.05431 0.84555 0.0
H209 H 0.50055 0.06951 0.8488 0.0
C210 C 0.55402 0.05103 0.8686 0.0
H211 H 0.56676 1.00849 0.79524 0.0
C212 C 0.58559 1.03077 0.86526 0.0
H213 H 0.60369 1.02388 0.88359 0.0
H214 H 0.55054 0.06269 0.88915 0.0
H215 H 0.52177 0.62164 0.09124 0.0
C216 C 0.55389 0.62084 0.1006 0.0
C217 C 0.58045 0.60567 0.08413 0.0
C218 C 0.56924 0.63572 0.12881 0.0
H219 H 0.64138 0.59211 0.08296 0.0
C220 C 0.62235 0.6054 0.09581 0.0
C221 C 0.64101 0.62401 0.12263 0.0
C222 C 0.61342 0.63756 0.13945 0.0
C223 C 0.54068 0.65222 0.14648 0.0
H224 H 0.62665 0.65016 0.16061 0.0
C225 C 0.49413 0.63666 0.14305 0.0
C226 C 0.46875 0.65295 0.16042 0.0
C227 C 0.56042 0.68483 0.16704 0.0
H228 H 0.59523 0.69899 0.16986 0.0
C229 C 0.53568 0.70077 0.18401 0.0
H230 H 0.47778 0.61156 0.12752 0.0
C231 C 0.49054 0.68511 0.1808 0.0
H232 H 0.47244 0.6989 0.1941 0.0
H233 H 0.55164 0.72586 0.19964 0.0
C234 C 0.2036 0.58776 0.15668 0.0
C235 C 0.19157 0.62391 0.15935 0.0
C236 C 0.24723 0.58768 0.15449 0.0
C237 C 0.28005 0.62464 0.15555 0.0
C238 C 0.26792 0.66116 0.15822 0.0
C239 C 0.22409 0.66031 0.15985 0.0
C240 C 0.25823 0.54799 0.15118 0.0
C241 C 0.30143 0.70139 0.15978 0.0
C242 C 0.39978 0.63386 0.18217 0.0
C243 C 0.41968 0.63819 0.15797 0.0
C244 C 0.35444 0.62796 0.18146 0.0
C245 C 0.3275 0.62567 0.15584 0.0
C246 C 0.34685 0.62755 0.13107 0.0
C247 C 0.39262 0.63379 0.13241 0.0
C248 C 0.33575 0.62643 0.20846 0.0
C249 C 0.31943 0.62465 0.10324 0.0
H250 H 0.17877 0.55943 0.1558 0.0
H251 H 0.21538 0.68851 0.1618 0.0
H252 H 0.27699 0.54689 0.13358 0.0
H253 H 0.27921 0.54478 0.17019 0.0
H254 H 0.22853 0.52199 0.14754 0.0
H255 H 0.28668 0.72702 0.16134 0.0
H256 H 0.32675 0.70506 0.17813 0.0
H257 H 0.31817 0.70283 0.14112 0.0
H258 H 0.42012 0.63665 0.20203 0.0
H259 H 0.40745 0.63728 0.1136 0.0
H260 H 0.30799 0.5991 0.20735 0.0
H261 H 0.32289 0.65288 0.21217 0.0
H262 H 0.36047 0.62644 0.22648 0.0
H263 H 0.29154 0.59711 0.10027 0.0
H264 H 0.3386 0.62402 0.08578 0.0
H265 H 0.30554 0.65079 0.10245 0.0
C266 C 0.79297 0.3004 0.47399 0.0
C267 C 0.76079 0.29747 0.49133 0.0
C268 C 0.82304 0.33741 0.47237 0.0
C269 C 0.82015 0.37252 0.48797 0.0
C270 C 0.78707 0.36983 0.5052 0.0
C271 C 0.75805 0.3321 0.50697 0.0
C272 C 0.85845 0.33877 0.45436 0.0
C273 C 0.78222 0.40677 0.52159 0.0
C274 C 0.92084 0.46207 0.5049 0.0
C275 C 0.91314 0.48654 0.4844 0.0
C276 C 0.89114 0.4246 0.50606 0.0
C277 C 0.85239 0.41182 0.48658 0.0
C278 C 0.84478 0.43635 0.46561 0.0
C279 C 0.87553 0.47337 0.46464 0.0
C280 C 0.90076 0.39915 0.5285 0.0
C281 C 0.8035 0.42411 0.44481 0.0
H282 H 0.7951 0.27342 0.4621 0.0
H283 H 0.7329 0.32968 0.52027 0.0
H284 H 0.85679 0.36012 0.43871 0.0
H285 H 0.891 0.34986 0.46735 0.0
H286 H 0.85591 0.30878 0.44336 0.0
H287 H 0.75409 0.39972 0.53339 0.0
H288 H 0.81241 0.42094 0.53641 0.0
H289 H 0.77763 0.42933 0.50737 0.0
H290 H 0.94967 0.47278 0.52044 0.0
H291 H 0.86928 0.49288 0.44921 0.0
H292 H 0.89851 0.36828 0.51924 0.0
H293 H 0.87609 0.39644 0.54288 0.0
H294 H 0.93373 0.41209 0.54076 0.0
H295 H 0.80075 0.39475 0.43292 0.0
H296 H 0.80239 0.44669 0.42994 0.0
H297 H 0.77457 0.42013 0.45584 0.0
C298 C 0.55699 0.7963 0.86404 0.0
C299 C 0.52451 0.76644 0.84665 0.0
C300 C 0.57227 0.8342 0.85602 0.0
C301 C 0.55269 0.84315 0.83073 0.0
C302 C 0.51926 0.81376 0.81322 0.0
C303 C 0.50507 0.77544 0.82157 0.0
C304 C 0.60819 0.86515 0.87524 0.0
C305 C 0.49865 0.82307 0.78595 0.0
C306 C 0.54535 0.94551 0.84781 0.0
C307 C 0.58206 0.96842 0.8379 0.0
C308 C 0.53251 0.90428 0.8424 0.0
C309 C 0.55833 0.88537 0.82768 0.0
C310 C 0.59473 0.90801 0.81662 0.0
C311 C 0.60605 0.95003 0.82161 0.0
C312 C 0.49308 0.88104 0.85434 0.0
C313 C 0.62258 0.88812 0.80075 0.0
H314 H 0.57333 0.78919 0.88299 0.0
H315 H 0.48119 0.75175 0.80777 0.0
H316 H 0.63421 0.88032 0.86352 0.0
H317 H 0.59461 0.88855 0.88461 0.0
H318 H 0.62335 0.85163 0.89236 0.0
H319 H 0.47504 0.79601 0.77392 0.0
H320 H 0.48129 0.84636 0.78973 0.0
H321 H 0.52442 0.83555 0.77322 0.0
H322 H 0.52544 0.96016 0.85908 0.0
H323 H 0.63308 0.96832 0.81287 0.0
H324 H 0.50394 0.8656 0.87183 0.0
H325 H 0.47101 0.85773 0.83844 0.0
H326 H 0.47394 0.90087 0.86227 0.0
H327 H 0.64914 0.88288 0.81554 0.0
H328 H 0.63801 0.90764 0.78564 0.0
H329 H 0.60331 0.85859 0.78952 0.0
C330 C 0.90551 0.67129 0.15268 0.0
C331 C 0.9168 0.63469 0.15274 0.0
C332 C 0.86171 0.6726 0.15195 0.0
C333 C 0.82791 0.63639 0.15085 0.0
C334 C 0.83925 0.59951 0.15177 0.0
C335 C 0.88334 0.59914 0.15286 0.0
C336 C 0.85153 0.71274 0.15175 0.0
C337 C 0.80453 0.56003 0.1501 0.0
C338 C 0.70885 0.63272 0.15911 0.0
C339 C 0.68967 0.63055 0.1313 0.0
C340 C 0.75417 0.63661 0.16608 0.0
C341 C 0.78069 0.63631 0.14476 0.0
C342 C 0.76176 0.63495 0.11691 0.0
C343 C 0.71761 0.63408 0.11081 0.0
C344 C 0.77362 0.64074 0.19622 0.0
C345 C 0.78785 0.63358 0.09318 0.0
H346 H 0.9309 0.6991 0.15297 0.0
H347 H 0.89138 0.57064 0.15313 0.0
H348 H 0.83308 0.71445 0.13136 0.0
H349 H 0.83052 0.71612 0.16777 0.0
H350 H 0.88157 0.73839 0.15561 0.0
H351 H 0.81871 0.53438 0.15329 0.0
H352 H 0.78263 0.56155 0.16585 0.0
H353 H 0.78407 0.55395 0.1294 0.0
H354 H 0.6886 0.63085 0.17546 0.0
H355 H 0.70506 0.63572 0.08947 0.0
H356 H 0.80314 0.66683 0.20075 0.0
H357 H 0.7841 0.61353 0.20075 0.0
H358 H 0.75008 0.64483 0.21039 0.0
H359 H 0.81292 0.66271 0.09388 0.0
H360 H 0.76696 0.62749 0.0726 0.0
H361 H 0.80516 0.6098 0.09499 0.0
C362 C 0.23503 0.87103 0.49995 0.0
C363 C 0.27636 0.8801 0.49153 0.0
C364 C 0.20702 0.83185 0.49455 0.0
C365 C 0.22099 0.80122 0.48052 0.0
C366 C 0.26346 0.81014 0.47282 0.0
C367 C 0.29065 0.84969 0.47831 0.0
C368 C 0.16185 0.82363 0.50284 0.0
C369 C 0.27943 0.77833 0.45774 0.0
C370 C 0.15507 0.69212 0.47971 0.0
C371 C 0.12845 0.68564 0.45386 0.0
C372 C 0.18566 0.72959 0.48872 0.0
C373 C 0.18962 0.76105 0.47143 0.0
C374 C 0.16282 0.7546 0.44539 0.0
C375 C 0.13241 0.71724 0.43709 0.0
C376 C 0.2136 0.73563 0.5167 0.0
C377 C 0.16569 0.78739 0.42638 0.0
H378 H 0.2242 0.89492 0.51002 0.0
H379 H 0.32271 0.85711 0.47176 0.0
H380 H 0.13687 0.81475 0.48402 0.0
H381 H 0.15621 0.79816 0.51567 0.0
H382 H 0.1568 0.85028 0.51472 0.0
H383 H 0.31444 0.78933 0.45524 0.0
H384 H 0.27497 0.75134 0.46913 0.0
H385 H 0.25982 0.76873 0.43685 0.0
H386 H 0.15212 0.66792 0.4928 0.0
H387 H 0.11098 0.71308 0.41752 0.0
H388 H 0.20832 0.76098 0.52987 0.0
H389 H 0.24867 0.74378 0.51413 0.0
H390 H 0.20637 0.7083 0.52776 0.0
H391 H 0.15654 0.81307 0.4366 0.0
H392 H 0.1439 0.7768 0.40624 0.0
H393 H 0.19973 0.79885 0.42212 0.0
C394 C 0.67041 0.34255 0.86145 0.0
C395 C 0.6882 0.3625 0.83972 0.0
C396 C 0.65625 0.30061 0.85837 0.0
C397 C 0.66354 0.27975 0.83427 0.0
C398 C 0.69227 0.29991 0.81683 0.0
C399 C 0.7072 0.34186 0.82123 0.0
C400 C 0.62668 0.27962 0.8778 0.0
C401 C 0.69961 0.27857 0.79043 0.0
C402 C 0.61975 0.16818 0.81671 0.0
C403 C 0.58098 0.16629 0.79955 0.0
C404 C 0.64663 0.20521 0.82917 0.0
C405 C 0.63386 0.24023 0.82391 0.0
C406 C 0.59347 0.23783 0.8073 0.0
C407 C 0.5673 0.20039 0.79526 0.0
C408 C 0.68887 0.20709 0.84732 0.0
C409 C 0.57805 0.27448 0.8017 0.0
H410 H 0.65876 0.35869 0.87744 0.0
H411 H 0.72394 0.35798 0.80572 0.0
H412 H 0.59205 0.27453 0.8685 0.0
H413 H 0.63189 0.2498 0.88112 0.0
H414 H 0.6319 0.298 0.8982 0.0
H415 H 0.72764 0.29691 0.78155 0.0
H416 H 0.70536 0.24905 0.79404 0.0
H417 H 0.66985 0.27281 0.77479 0.0
H418 H 0.62911 0.14076 0.82 0.0
H419 H 0.53652 0.19765 0.78221 0.0
H420 H 0.69071 0.22433 0.86774 0.0
H421 H 0.71698 0.22323 0.83755 0.0
H422 H 0.69237 0.1767 0.85078 0.0
H423 H 0.57105 0.28838 0.82124 0.0
H424 H 0.54795 0.26713 0.78617 0.0
H425 H 0.60383 0.29703 0.79386 0.0
C426 C 0.55771 0.9466 0.514 0.0
C427 C 0.52157 0.95814 0.50042 0.0
C428 C 0.55799 0.90492 0.51679 0.0
C429 C 0.52188 0.87088 0.50506 0.0
C430 C 0.48559 0.88241 0.49099 0.0
C431 C 0.48556 0.92432 0.48941 0.0
C432 C 0.59777 0.89745 0.5328 0.0
C433 C 0.44594 0.84997 0.47705 0.0
C434 C 0.54034 0.76142 0.48704 0.0
C435 C 0.52172 0.73594 0.50677 0.0
C436 C 0.54091 0.80349 0.48654 0.0
C437 C 0.52266 0.82438 0.50641 0.0
C438 C 0.50468 0.79947 0.52696 0.0
C439 C 0.50406 0.7569 0.52679 0.0
C440 C 0.56004 0.82544 0.4635 0.0
C441 C 0.48529 0.81794 0.54944 0.0
H442 H 0.58622 0.97055 0.52323 0.0
H443 H 0.45672 0.93055 0.47883 0.0
H444 H 0.58798 0.87475 0.54739 0.0
H445 H 0.61635 0.88524 0.5182 0.0
H446 H 0.61977 0.92542 0.54475 0.0
H447 H 0.4223 0.86234 0.46443 0.0
H448 H 0.4559 0.82787 0.46341 0.0
H449 H 0.42913 0.83346 0.493 0.0
H450 H 0.55369 0.74767 0.47074 0.0
H451 H 0.48807 0.73964 0.54204 0.0
H452 H 0.58712 0.85225 0.47235 0.0
H453 H 0.53474 0.83631 0.45128 0.0
H454 H 0.5727 0.80615 0.44926 0.0
H455 H 0.51072 0.84365 0.56158 0.0
H456 H 0.47195 0.79599 0.56379 0.0
H457 H 0.45874 0.83004 0.54009 0.0
C458 C 0.73345 0.5141 0.81939 0.0
C459 C 0.72338 0.54756 0.83217 0.0
C460 C 0.7773 0.51341 0.81897 0.0
C461 C 0.81203 0.54663 0.83205 0.0
C462 C 0.80193 0.58052 0.84482 0.0
C463 C 0.75804 0.58066 0.84454 0.0
C464 C 0.78644 0.47683 0.80488 0.0
C465 C 0.83752 0.61631 0.85963 0.0
C466 C 0.92028 0.53182 0.86371 0.0
C467 C 0.94994 0.55309 0.84743 0.0
C468 C 0.87539 0.52848 0.85839 0.0
C469 C 0.85868 0.54477 0.83516 0.0
C470 C 0.88772 0.56289 0.81699 0.0
C471 C 0.93312 0.56728 0.82349 0.0
C472 C 0.84648 0.51031 0.87903 0.0
C473 C 0.87104 0.57931 0.79142 0.0
H474 H 0.7071 0.48847 0.80963 0.0
H475 H 0.75098 0.60679 0.85452 0.0
H476 H 0.81104 0.48603 0.79074 0.0
H477 H 0.8003 0.46044 0.82067 0.0
H478 H 0.75643 0.45579 0.79282 0.0
H479 H 0.82427 0.64034 0.86848 0.0
H480 H 0.8571 0.60659 0.87674 0.0
H481 H 0.86008 0.62929 0.84509 0.0
H482 H 0.93265 0.51972 0.88184 0.0
H483 H 0.95552 0.58355 0.81066 0.0
H484 H 0.81781 0.48627 0.86834 0.0
H485 H 0.8339 0.53382 0.88925 0.0
H486 H 0.86413 0.49743 0.8954 0.0
H487 H 0.84291 0.55621 0.77915 0.0
H488 H 0.89672 0.58888 0.77802 0.0
H489 H 0.85917 0.6056 0.79755 0.0
C490 C 0.29941 0.86536 0.14016 0.0
C491 C 0.27353 0.859 0.1615 0.0
C492 C 0.3405 0.89351 0.14465 0.0
C493 C 0.35569 0.91593 0.171 0.0
C494 C 0.33011 0.90915 0.19279 0.0
C495 C 0.28932 0.88056 0.18779 0.0
C496 C 0.36708 0.90005 0.12102 0.0
C497 C 0.34516 0.93307 0.22108 0.0
C498 C 0.47333 0.9745 0.19523 0.0
C499 C 0.47149 1.01341 0.19075 0.0
C500 C 0.43635 0.94172 0.18716 0.0
C501 C 0.39674 0.94871 0.17539 0.0
C502 C 0.39537 0.98793 0.16999 0.0
C503 C 0.43308 1.0198 0.17745 0.0
C504 C 0.43905 0.90004 0.19249 0.0
C505 C 0.35349 0.99668 0.15801 0.0
H506 H 0.28703 0.84907 0.11971 0.0
H507 H 0.2696 0.87527 0.2044 0.0
H508 H 0.36939 0.93048 0.11458 0.0
H509 H 0.40088 0.89858 0.12783 0.0
H510 H 0.35248 0.87749 0.10267 0.0
H511 H 0.32211 0.92298 0.23605 0.0
H512 H 0.37781 0.93044 0.22971 0.0
H513 H 0.34843 0.96543 0.2192 0.0
H514 H 0.50324 0.96998 0.20567 0.0
H515 H 0.43183 0.05023 0.17445 0.0
H516 H 0.42385 0.87825 0.17385 0.0
H517 H 0.42065 0.89008 0.20972 0.0
H518 H 0.47335 0.89902 0.19816 0.0
H519 H 0.34002 0.97824 0.13776 0.0
H520 H 0.3583 1.02892 0.15492 0.0
H521 H 0.32864 0.98841 0.1721 0.0
C522 C 0.52169 0.254 0.48216 0.0
C523 C 0.50985 0.22878 0.50336 0.0
C524 C 0.52161 0.2962 0.4835 0.0
C525 C 0.51159 0.31728 0.50734 0.0
C526 C 0.50028 0.29209 0.52901 0.0
C527 C 0.49865 0.24942 0.52658 0.0
C528 C 0.53242 0.31841 0.45881 0.0
C529 C 0.49031 0.31056 0.55552 0.0
C530 C 0.55587 0.43821 0.52352 0.0
C531 C 0.51955 0.45419 0.5168 0.0
C532 C 0.55392 0.39563 0.52008 0.0
C533 C 0.51419 0.36478 0.50993 0.0
C534 C 0.47726 0.3805 0.50284 0.0
C535 C 0.48022 0.42354 0.50634 0.0
C536 C 0.59511 0.38351 0.52833 0.0
C537 C 0.43362 0.35137 0.4917 0.0
H538 H 0.53056 0.24038 0.4638 0.0
H539 H 0.4897 0.23231 0.54368 0.0
H540 H 0.50828 0.33548 0.45333 0.0
H541 H 0.56504 0.34048 0.46404 0.0
H542 H 0.53285 0.29775 0.44036 0.0
H543 H 0.48647 0.28943 0.57165 0.0
H544 H 0.51685 0.33811 0.56387 0.0
H545 H 0.45969 0.3197 0.55124 0.0
H546 H 0.58666 0.45952 0.53241 0.0
H547 H 0.45075 0.43303 0.50169 0.0
H548 H 0.60247 0.36591 0.51048 0.0
H549 H 0.59036 0.36377 0.54522 0.0
H550 H 0.62373 0.40988 0.53551 0.0
H551 H 0.43625 0.3338 0.47231 0.0
H552 H 0.4076 0.36677 0.48728 0.0
H553 H 0.42379 0.32959 0.50684 0.0
C554 C 0.41933 0.55681 0.8051 0.0
C555 C 0.44965 0.55922 0.82877 0.0
C556 C 0.3765 0.5591 0.80739 0.0
C557 C 0.36298 0.56218 0.83398 0.0
C558 C 0.39337 0.56344 0.85791 0.0
C559 C 0.43648 0.56278 0.85504 0.0
C560 C 0.34601 0.55918 0.78133 0.0
C561 C 0.3803 0.56519 0.88657 0.0
C562 C 0.26669 0.60711 0.83877 0.0
C563 C 0.23089 0.57274 0.8354 0.0
C564 C 0.30983 0.60408 0.83951 0.0
C565 C 0.31768 0.56565 0.83664 0.0
C566 C 0.28177 0.53079 0.83464 0.0
C567 C 0.23883 0.53474 0.83391 0.0
C568 C 0.34678 0.64212 0.84174 0.0
C569 C 0.28844 0.48922 0.83179 0.0
H570 H 0.42953 0.55429 0.78481 0.0
H571 H 0.45977 0.56423 0.8734 0.0
H572 H 0.31602 0.53383 0.77968 0.0
H573 H 0.33578 0.58744 0.78228 0.0
H574 H 0.36138 0.55665 0.76229 0.0
H575 H 0.40746 0.56519 0.90303 0.0
H576 H 0.36951 0.59267 0.89091 0.0
H577 H 0.35219 0.53895 0.88772 0.0
H578 H 0.26065 0.63652 0.83941 0.0
H579 H 0.21126 0.50808 0.83063 0.0
H580 H 0.36183 0.64325 0.82239 0.0
H581 H 0.37268 0.64239 0.85907 0.0
H582 H 0.33564 0.66966 0.8452 0.0
H583 H 0.29748 0.48288 0.81101 0.0
H584 H 0.25851 0.46555 0.83415 0.0
H585 H 0.31568 0.48729 0.8475 0.0
C586 C 0.83156 0.37986 0.18844 0.0
C587 C 0.82831 0.40677 0.16889 0.0
C588 C 0.79689 0.34604 0.18939 0.0
C589 C 0.75782 0.33983 0.17076 0.0
C590 C 0.75386 0.36774 0.15149 0.0
C591 C 0.78967 0.40079 0.15048 0.0
C592 C 0.80285 0.31606 0.2094 0.0
C593 C 0.7122 0.36222 0.13168 0.0
C594 C 0.68013 0.23598 0.15153 0.0
C595 C 0.64857 0.23738 0.16873 0.0
C596 C 0.71704 0.2687 0.15275 0.0
C597 C 0.72133 0.30367 0.17106 0.0
C598 C 0.69001 0.30459 0.18904 0.0
C599 C 0.654 0.27105 0.18782 0.0
C600 C 0.75048 0.26636 0.1338 0.0
C601 C 0.69345 0.34162 0.20854 0.0
H602 H 0.86212 0.38433 0.20212 0.0
H603 H 0.78779 0.42161 0.13516 0.0
H604 H 0.77605 0.31022 0.22225 0.0
H605 H 0.80144 0.28699 0.19756 0.0
H606 H 0.83457 0.32652 0.2234 0.0
H607 H 0.7137 0.38783 0.1191 0.0
H608 H 0.70576 0.3342 0.11738 0.0
H609 H 0.68408 0.35899 0.1434 0.0
H610 H 0.67533 0.20967 0.13673 0.0
H611 H 0.62897 0.2718 0.20082 0.0
H612 H 0.78401 0.27662 0.14557 0.0
H613 H 0.74861 0.28659 0.11741 0.0
H614 H 0.7452 0.23535 0.12359 0.0
H615 H 0.72552 0.35074 0.22212 0.0
H616 H 0.66714 0.33681 0.22185 0.0
H617 H 0.69145 0.36702 0.19635 0.0
C618 C 0.09167 0.59233 0.06367 0.0
C619 C 0.06549 0.61273 0.07659 0.0
C620 C 0.09437 0.59261 0.03534 0.0
C621 C 0.07098 0.61458 0.01939 0.0
C622 C 0.04688 0.6377 0.03263 0.0
C623 C 0.04422 0.63638 0.06122 0.0
C624 C 0.11967 0.56683 0.02216 0.0
C625 C 1.02181 0.66176 0.01628 0.0
C626 C 0.0951 0.6235 0.945 0.0
C627 C 0.06159 0.59142 0.93044 0.0
C628 C 0.09831 0.63207 0.97402 0.0
C629 C 0.06702 0.60829 0.98856 0.0
C630 C 0.03367 0.57555 0.97391 0.0
C631 C 0.03195 0.56713 0.94529 0.0
C632 C 0.13479 0.66671 0.98913 0.0
C633 C 0.99973 0.54912 0.98845 0.0
H634 H 0.10871 0.57437 0.07551 0.0
H635 H 1.02411 0.65231 0.07115 0.0
H636 H 0.09657 0.5411 0.00852 0.0
H637 H 0.14185 0.58434 0.00899 0.0
H638 H 0.13935 0.55465 0.03784 0.0
H639 H 1.0104 0.68271 0.03002 0.0
H640 H 0.04234 0.67932 0.00228 0.0
H641 H 0.99286 0.64097 0.00308 0.0
H642 H 0.11796 0.64246 0.93366 0.0
H643 H 1.00651 0.54171 0.93428 0.0
H644 H 0.15443 0.65585 0.00558 0.0
H645 H 0.12085 0.68904 -0.00046 0.0
H646 H 0.15684 0.68198 0.97497 0.0
H647 H 1.01575 0.53313 0.00351 0.0
H648 H 0.97444 0.52638 0.97371 0.0
H649 H 0.9832 0.56779 0.00033 0.0
C650 C 0.50833 0.05994 0.39766 0.0
C651 C 0.50499 0.09252 0.41513 0.0
C652 C 0.51886 0.06504 0.37082 0.0
C653 C 0.52527 0.1035 0.36121 0.0
C654 C 0.52296 0.1367 0.37922 0.0
C655 C 0.51307 0.1308 0.40613 0.0
C656 C 0.5214 1.02895 0.35237 0.0
C657 C 0.52867 0.17792 0.36961 0.0
C658 C 0.57394 0.11571 0.2938 0.0
C659 C 0.53595 0.10572 0.27432 0.0
C660 C 0.57124 0.11686 0.32244 0.0
C661 C 0.52963 0.10777 0.33148 0.0
C662 C 0.49142 0.09987 0.31175 0.0
C663 C 0.49511 0.09902 0.28346 0.0
C664 C 0.61265 0.12561 0.3429 0.0
C665 C 0.44638 0.09 0.32034 0.0
H666 H 0.5019 1.03035 0.40484 0.0
H667 H 0.51007 0.15582 0.4198 0.0
H668 H 0.49458 1.02173 0.33458 0.0
H669 H 0.55269 1.03578 0.34373 0.0
H670 H 0.51881 1.00191 0.36363 0.0
H671 H 0.5299 0.20122 0.38686 0.0
H672 H 0.55907 0.18684 0.36013 0.0
H673 H 0.50098 0.1772 0.35339 0.0
H674 H 0.60546 0.12059 0.28663 0.0
H675 H 0.46576 0.09132 0.26826 0.0
H676 H 0.6142 0.09798 0.35261 0.0
H677 H 0.61281 0.14895 0.35981 0.0
H678 H 0.64237 0.13595 0.33287 0.0
H679 H 0.43951 0.0605 0.32881 0.0
H680 H 0.4204 0.08837 0.30269 0.0
H681 H 0.44458 0.1129 0.33699 0.0
C682 C 0.55295 0.60322 0.73475 0.0
C683 C 0.5783 0.58277 0.75017 0.0
C684 C 0.54584 0.59739 0.70542 0.0
C685 C 0.56617 0.57189 0.69099 0.0
C686 C 0.59259 0.55178 0.70662 0.0
C687 C 0.59758 0.55684 0.73593 0.0
C688 C 0.51584 0.61798 0.68983 0.0
C689 C 0.61637 0.52556 0.69242 0.0
C690 C 0.5177 0.52866 0.61585 0.0
C691 C 0.54331 0.55577 0.60039 0.0
C692 C 0.52493 0.53338 0.64512 0.0
C693 C 0.55904 0.56583 0.65966 0.0
C694 C 0.58548 0.59297 0.64416 0.0
C695 C 0.57703 0.58791 0.61482 0.0
C696 C 0.4957 0.50369 0.6605 0.0
C697 C 0.62303 0.62723 0.65861 0.0
H698 H 0.53768 0.62298 0.74569 0.0
H699 H 0.6175 0.54121 0.7478 0.0
H700 H 0.53399 0.63824 0.67611 0.0
H701 H 0.48886 0.59517 0.67633 0.0
H702 H 0.50148 0.63587 0.70398 0.0
H703 H 0.63309 0.50981 0.70733 0.0
H704 H 0.59341 0.50277 0.67658 0.0
H705 H 0.64121 0.54444 0.68144 0.0
H706 H 0.49147 0.5038 0.60495 0.0
H707 H 0.59742 0.60864 0.60312 0.0
H708 H 0.47911 0.51978 0.6743 0.0
H709 H 0.51551 0.48856 0.67387 0.0
H710 H 0.47046 0.48026 0.64621 0.0
H711 H 0.61055 0.64807 0.67168 0.0
H712 H 0.64186 0.64455 0.64372 0.0
H713 H 0.64553 0.61544 0.67261 0.0
C714 C 0.49176 0.07347 0.58682 0.0
C715 C 0.53152 0.09077 0.57784 0.0
C716 C 0.491 0.05949 0.61297 0.0
C717 C 0.53099 0.06255 0.63005 0.0
C718 C 0.57112 0.07686 0.61988 0.0
C719 C 0.57088 0.09128 0.59392 0.0
C720 C 0.44765 0.04497 0.62332 0.0
C721 C 0.61445 0.08058 0.63739 0.0
C722 C 0.52915 0.10008 0.70346 0.0
C723 C 0.53287 0.06749 0.71812 0.0
C724 C 0.53083 0.09905 0.67527 0.0
C725 C 0.53135 0.06282 0.6603 0.0
C726 C 0.53169 1.02836 0.67422 0.0
C727 C 0.53327 1.03125 0.70337 0.0
C728 C 0.53274 0.13734 0.66174 0.0
C729 C 0.53022 0.98883 0.65833 0.0
H730 H 0.46143 0.07235 0.5739 0.0
H731 H 0.60158 0.10332 0.58627 0.0
H732 H 0.4468 1.01814 0.63452 0.0
H733 H 0.44321 0.06895 0.63819 0.0
H734 H 0.41981 0.03743 0.60612 0.0
H735 H 0.64169 0.08537 0.62479 0.0
H736 H 0.62158 0.1066 0.6536 0.0
H737 H 0.6134 0.05328 0.64807 0.0
H738 H 0.52635 0.12757 0.71433 0.0
H739 H 0.53543 1.00574 0.71446 0.0
H740 H 0.50282 0.13332 0.64661 0.0
H741 H 0.5612 0.14462 0.65029 0.0
H742 H 0.53569 0.16365 0.67709 0.0
H743 H 0.49795 0.97683 0.64513 0.0
H744 H 0.5352 0.9661 0.67233 0.0
H745 H 0.55537 0.99313 0.64423 0.0
C746 C 0.53227 0.53837 0.91957 0.0
C747 C 0.57203 0.54509 0.90888 0.0
C748 C 0.53069 0.55073 0.94743 0.0
C749 C 0.56992 0.56987 0.96542 0.0
C750 C 0.6102 0.57798 0.95461 0.0
C751 C 0.61076 0.56567 0.9264 0.0
C752 C 0.48698 0.54228 0.9578 0.0
C753 C 0.65284 0.59837 0.97304 0.0
C754 C 0.5638 0.62301 0.03595 0.0
C755 C 0.56827 0.59391 0.0537 0.0
C756 C 0.56403 0.61569 0.00716 0.0
C757 C 0.56877 0.57835 -0.00413 0.0
C758 C 0.57165 0.5484 0.0137 0.0
C759 C 0.57129 0.55652 0.0423 0.0
C760 C 0.56117 0.64859 0.98904 0.0
C761 C 0.57678 0.50822 0.00274 0.0
H762 H 0.50206 0.52312 0.90611 0.0
H763 H 0.64156 0.57131 0.91826 0.0
H764 H 0.48553 0.52023 0.97325 0.0
H765 H 0.48282 0.57021 0.96842 0.0
H766 H 0.45923 0.53002 0.94075 0.0
H767 H 0.68046 0.60702 0.96095 0.0
H768 H 0.6503 0.6257 0.98536 0.0
H769 H 0.66041 0.57766 0.98796 0.0
H770 H 0.56271 0.65233 0.04481 0.0
H771 H 0.57552 0.53426 0.05607 0.0
H772 H 0.53498 0.63688 0.97106 0.0
H773 H 0.59238 0.65917 0.98066 0.0
H774 H 0.55461 0.67475 0.0006 0.0
H775 H 0.54891 0.49282 0.98644 0.0
H776 H 0.5785 0.48815 0.0193 0.0
H777 H 0.60703 0.51279 0.99301 0.0
C778 C 0.02903 0.61173 0.2399 0.0
C779 C 0.06734 0.64096 0.23702 0.0
C780 C 1.02098 0.59957 0.26604 0.0
C781 C 0.05284 0.61587 0.28963 0.0
C782 C 0.09257 0.64407 0.28649 0.0
C783 C 0.09892 0.65695 0.26027 0.0
C784 C 0.97776 0.57047 0.26858 0.0
C785 C 0.12799 0.66122 0.31094 0.0
C786 C 1.0221 0.62657 0.36191 0.0
C787 C 0.03757 0.59697 0.37445 0.0
C788 C 1.02504 0.63178 0.33394 0.0
C789 C 0.0434 0.60637 0.31797 0.0
C790 C 0.05607 0.57441 0.33003 0.0
C791 C 0.05351 0.57039 0.35833 0.0
C792 C 1.01167 0.66656 0.32215 0.0
C793 C 0.07503 0.54624 0.31357 0.0
H794 H 1.00451 0.59958 0.22184 0.0
H795 H 0.12873 0.67924 0.25788 0.0
H796 H 0.98325 0.5437 0.27795 0.0
H797 H 0.96006 0.58494 0.28261 0.0
H798 H 0.95656 0.56035 0.24821 0.0
H799 H 0.15802 0.68067 0.3047 0.0
H800 H 0.11592 0.67928 0.32634 0.0
H801 H 0.13668 0.6365 0.32145 0.0
H802 H 1.01094 0.64779 0.37466 0.0
H803 H 0.06644 0.54815 0.36827 0.0
H804 H 0.99016 0.65625 0.30194 0.0
H805 H 0.04118 0.68951 0.31833 0.0
H806 H 0.99434 0.68116 0.3364 0.0
H807 H 0.05282 0.533 0.29398 0.0
H808 H 0.08065 0.52143 0.32539 0.0
H809 H 0.10662 0.56324 0.30781 0.0
loop_
_geom_bond_atom_site_label_1
_geom_bond_atom_site_label_2
_geom_bond_distance
_geom_bond_site_symmetry_2
_ccdc_geom_bond_type
Pr0 C2 2.880 1_455 S
Pr0 O20 2.562 1_455 S
Pr0 O21 2.490 1_455 S
Pr0 O22 2.695 . S
Pr0 O23 2.512 . S
Pr0 O25 2.437 1_455 S
Pr0 O28 2.436 . S
Pr0 O30 2.438 . S
Pr1 C11 2.880 . S
Pr1 O22 2.436 . S
Pr1 O24 2.438 1_455 S
Pr1 O26 2.562 . S
Pr1 O27 2.490 . S
Pr1 O28 2.695 . S
Pr1 O29 2.512 . S
Pr1 O31 2.437 . S
C2 Pr0 2.880 1_655 S
C2 C3 1.491 . S
C2 O20 1.254 . S
C2 O21 1.225 . S
C3 C2 1.491 . S
C3 C4 1.392 . S
C3 C8 1.356 . S
C4 C3 1.392 . S
C4 C5 1.368 . S
C4 H32 0.929 . S
C5 C4 1.368 . S
C5 C6 1.386 . S
C5 H33 0.929 . S
C6 C5 1.386 . S
C6 C7 1.373 . S
C7 C6 1.373 . S
C7 C8 1.409 . S
C7 H34 0.931 . S
C8 C3 1.356 . S
C8 C7 1.409 . S
C8 H35 0.930 . S
C9 O22 1.270 . S
C9 O23 1.248 . S
C10 O24 1.267 . S
C10 O25 1.278 . S
C11 Pr1 2.880 . S
C11 C12 1.491 . S
C11 O26 1.254 . S
C11 O27 1.225 . S
C12 C11 1.491 . S
C12 C13 1.392 . S
C12 C17 1.356 . S
C13 C12 1.392 . S
C13 C14 1.368 . S
C13 H36 0.929 . S
C14 C13 1.368 . S
C14 C15 1.386 . S
C14 H37 0.929 . S
C15 C14 1.386 . S
C15 C16 1.373 . S
C16 C15 1.373 . S
C16 C17 1.409 . S
C16 H38 0.931 . S
C17 C12 1.356 . S
C17 C16 1.409 . S
C17 H39 0.930 . S
C18 O28 1.270 . S
C18 O29 1.248 . S
C19 O30 1.267 . S
C19 O31 1.278 . S
O20 Pr0 2.562 1_655 S
O20 C2 1.254 . S
O21 Pr0 2.490 1_655 S
O21 C2 1.225 . S
O22 Pr0 2.695 . S
O22 Pr1 2.436 . S
O22 C9 1.270 . S
O23 Pr0 2.512 . S
O23 C9 1.248 . S
O24 Pr1 2.438 1_655 S
O24 C10 1.267 . S
O25 Pr0 2.437 1_655 S
O25 C10 1.278 . S
O26 Pr1 2.562 . S
O26 C11 1.254 . S
O27 Pr1 2.490 . S
O27 C11 1.225 . S
O28 Pr0 2.436 . S
O28 Pr1 2.695 . S
O28 C18 1.270 . S
O29 Pr1 2.512 . S
O29 C18 1.248 . S
O30 Pr0 2.438 . S
O30 C19 1.267 . S
O31 Pr1 2.437 . S
O31 C19 1.278 . S
H32 C4 0.929 . S
H33 C5 0.929 . S
H34 C7 0.931 . S
H35 C8 0.930 . S
H36 C13 0.929 . S
H37 C14 0.929 . S
H38 C16 0.931 . S
H39 C17 0.930 . S
Pr40 C42 2.880 . S
Pr40 O60 2.562 . S
Pr40 O61 2.490 . S
Pr40 O62 2.695 . S
Pr40 O63 2.512 . S
Pr40 O65 2.437 . S
Pr40 O68 2.436 . S
Pr40 O70 2.438 . S
Pr41 C51 2.880 1_545 S
Pr41 O62 2.436 . S
Pr41 O64 2.438 . S
Pr41 O66 2.562 1_545 S
Pr41 O67 2.490 1_545 S
Pr41 O68 2.695 . S
Pr41 O69 2.512 . S
Pr41 O71 2.437 1_545 S
C42 Pr40 2.880 . S
C42 C43 1.491 . S
C42 O60 1.254 . S
C42 O61 1.225 . S
C43 C42 1.491 . S
C43 C44 1.392 . S
C43 C48 1.356 . S
C44 C43 1.392 . S
C44 C45 1.368 . S
C44 H72 0.929 . S
C45 C44 1.368 . S
C45 C46 1.386 . S
C45 H73 0.929 . S
C46 C45 1.386 . S
C46 C47 1.373 . S
C47 C46 1.373 . S
C47 C48 1.409 . S
C47 H74 0.931 . S
C48 C43 1.356 . S
C48 C47 1.409 . S
C48 H75 0.930 . S
C49 O62 1.270 . S
C49 O63 1.248 . S
C50 O64 1.267 . S
C50 O65 1.278 . S
C51 Pr41 2.880 1_565 S
C51 C52 1.491 . S
C51 O66 1.254 . S
C51 O67 1.225 . S
C52 C51 1.491 . S
C52 C53 1.392 . S
C52 C57 1.356 . S
C53 C52 1.392 . S
C53 C54 1.368 . S
C53 H76 0.929 . S
C54 C53 1.368 . S
C54 C55 1.386 . S
C54 H77 0.929 . S
C55 C54 1.386 . S
C55 C56 1.373 . S
C56 C55 1.373 . S
C56 C57 1.409 . S
C56 H78 0.931 . S
C57 C52 1.356 . S
C57 C56 1.409 . S
C57 H79 0.930 . S
C58 O68 1.270 . S
C58 O69 1.248 . S
C59 O70 1.267 1_565 S
C59 O71 1.278 . S
O60 Pr40 2.562 . S
O60 C42 1.254 . S
O61 Pr40 2.490 . S
O61 C42 1.225 . S
O62 Pr40 2.695 . S
O62 Pr41 2.436 . S
O62 C49 1.270 . S
O63 Pr40 2.512 . S
O63 C49 1.248 . S
O64 Pr41 2.438 . S
O64 C50 1.267 . S
O65 Pr40 2.437 . S
O65 C50 1.278 . S
O66 Pr41 2.562 1_565 S
O66 C51 1.254 . S
O67 Pr41 2.490 1_565 S
O67 C51 1.225 . S
O68 Pr40 2.436 . S
O68 Pr41 2.695 . S
O68 C58 1.270 . S
O69 Pr41 2.512 . S
O69 C58 1.248 . S
O70 Pr40 2.438 . S
O70 C59 1.267 1_545 S
O71 Pr41 2.437 1_565 S
O71 C59 1.278 . S
H72 C44 0.929 . S
H73 C45 0.929 . S
H74 C47 0.931 . S
H75 C48 0.930 . S
H76 C53 0.929 . S
H77 C54 0.929 . S
H78 C56 0.931 . S
H79 C57 0.930 . S
Pr80 C82 2.880 . S
Pr80 O100 2.562 . S
Pr80 O101 2.490 . S
Pr80 O102 2.695 . S
Pr80 O103 2.512 . S
Pr80 O105 2.437 . S
Pr80 O108 2.436 . S
Pr80 O110 2.438 . S
Pr81 C91 2.880 . S
Pr81 O102 2.436 . S
Pr81 O104 2.438 . S
Pr81 O106 2.562 . S
Pr81 O107 2.490 . S
Pr81 O108 2.695 . S
Pr81 O109 2.512 . S
Pr81 O111 2.437 . S
C82 Pr80 2.880 . S
C82 C83 1.491 . S
C82 O100 1.254 . S
C82 O101 1.225 . S
C83 C82 1.491 . S
C83 C84 1.392 . S
C83 C88 1.356 . S
C84 C83 1.392 . S
C84 C85 1.368 . S
C84 H112 0.929 . S
C85 C84 1.368 . S
C85 C86 1.386 . S
C85 H113 0.929 . S
C86 C85 1.386 . S
C86 C87 1.373 . S
C87 C86 1.373 . S
C87 C88 1.409 . S
C87 H114 0.931 . S
C88 C83 1.356 . S
C88 C87 1.409 . S
C88 H115 0.930 . S
C89 O102 1.270 . S
C89 O103 1.248 . S
C90 O104 1.267 . S
C90 O105 1.278 . S
C91 Pr81 2.880 . S
C91 C92 1.491 . S
C91 O106 1.254 . S
C91 O107 1.225 . S
C92 C91 1.491 . S
C92 C93 1.392 . S
C92 C97 1.356 . S
C93 C92 1.392 . S
C93 C94 1.368 . S
C93 H116 0.929 . S
C94 C93 1.368 . S
C94 C95 1.386 . S
C94 H117 0.929 . S
C95 C94 1.386 . S
C95 C96 1.373 . S
C96 C95 1.373 . S
C96 C97 1.409 . S
C96 H118 0.931 . S
C97 C92 1.356 . S
C97 C96 1.409 . S
C97 H119 0.930 . S
C98 O108 1.270 . S
C98 O109 1.248 . S
C99 O110 1.267 . S
C99 O111 1.278 . S
O100 Pr80 2.562 . S
O100 C82 1.254 . S
O101 Pr80 2.490 . S
O101 C82 1.225 . S
O102 Pr80 2.695 . S
O102 Pr81 2.436 . S
O102 C89 1.270 . S
O103 Pr80 2.512 . S
O103 C89 1.248 . S
O104 Pr81 2.438 . S
O104 C90 1.267 . S
O105 Pr80 2.437 . S
O105 C90 1.278 . S
O106 Pr81 2.562 . S
O106 C91 1.254 . S
O107 Pr81 2.490 . S
O107 C91 1.225 . S
O108 Pr80 2.436 . S
O108 Pr81 2.695 . S
O108 C98 1.270 . S
O109 Pr81 2.512 . S
O109 C98 1.248 . S
O110 Pr80 2.438 . S
O110 C99 1.267 . S
O111 Pr81 2.437 . S
O111 C99 1.278 . S
H112 C84 0.929 . S
H113 C85 0.929 . S
H114 C87 0.931 . S
H115 C88 0.930 . S
H116 C93 0.929 . S
H117 C94 0.929 . S
H118 C96 0.931 . S
H119 C97 0.930 . S
H120 C121 0.949 . S
C121 H120 0.949 . S
C121 C122 1.395 . S
C121 C123 1.391 . S
C122 C121 1.395 . S
C122 C125 1.390 . S
C123 C121 1.391 . S
C123 C127 1.387 . S
C123 C128 1.491 . S
H124 C125 0.950 . S
C125 C122 1.390 . S
C125 H124 0.950 . S
C125 C126 1.378 . S
C126 C125 1.378 . S
C126 C127 1.409 . S
C127 C123 1.387 . S
C127 C126 1.409 . S
C127 H129 0.951 . S
C128 C123 1.491 . S
C128 C130 1.382 . S
C128 C132 1.404 . S
H129 C127 0.951 . S
C130 C128 1.382 . S
C130 C131 1.390 . S
C130 H135 0.949 . S
C131 C130 1.390 . S
C131 C136 1.399 . S
C132 C128 1.404 . S
C132 H133 0.950 . S
C132 C134 1.375 . S
H133 C132 0.950 . S
C134 C132 1.375 . S
C134 C136 1.382 . S
C134 H138 0.950 . S
H135 C130 0.949 . S
C136 C131 1.399 . S
C136 C134 1.382 . S
C136 H137 0.952 . S
H137 C136 0.952 . S
H138 C134 0.950 . S
H139 C140 0.949 . S
C140 H139 0.949 . S
C140 C141 1.395 . S
C140 C142 1.391 . S
C141 C140 1.395 . S
C141 C144 1.390 . S
C142 C140 1.391 . S
C142 C146 1.387 . S
C142 C147 1.491 . S
H143 C144 0.950 . S
C144 C141 1.390 . S
C144 H143 0.950 . S
C144 C145 1.378 . S
C145 C144 1.378 . S
C145 C146 1.409 . S
C146 C142 1.387 . S
C146 C145 1.409 . S
C146 H148 0.951 . S
C147 C142 1.491 . S
C147 C149 1.382 . S
C147 C151 1.404 . S
H148 C146 0.951 . S
C149 C147 1.382 . S
C149 C150 1.390 . S
C149 H154 0.949 . S
C150 C149 1.390 . S
C150 C155 1.399 . S
C151 C147 1.404 . S
C151 H152 0.950 . S
C151 C153 1.375 . S
H152 C151 0.950 . S
C153 C151 1.375 . S
C153 C155 1.382 . S
C153 H157 0.950 . S
H154 C149 0.949 . S
C155 C150 1.399 . S
C155 C153 1.382 . S
C155 H156 0.952 . S
H156 C155 0.952 . S
H157 C153 0.950 . S
H158 C159 0.949 . S
C159 H158 0.949 . S
C159 C160 1.395 . S
C159 C161 1.391 . S
C160 C159 1.395 . S
C160 C163 1.390 1_455 S
C161 C159 1.391 . S
C161 C165 1.387 . S
C161 C166 1.491 . S
H162 C163 0.950 . S
C163 C160 1.390 1_655 S
C163 H162 0.950 . S
C163 C164 1.378 . S
C164 C163 1.378 . S
C164 C165 1.409 1_655 S
C165 C161 1.387 . S
C165 C164 1.409 1_455 S
C165 H167 0.951 . S
C166 C161 1.491 . S
C166 C168 1.382 . S
C166 C170 1.404 . S
H167 C165 0.951 . S
C168 C166 1.382 . S
C168 C169 1.390 . S
C168 H173 0.949 . S
C169 C168 1.390 . S
C169 C174 1.399 . S
C170 C166 1.404 . S
C170 H171 0.950 . S
C170 C172 1.375 . S
H171 C170 0.950 . S
C172 C170 1.375 . S
C172 C174 1.382 . S
C172 H176 0.950 . S
H173 C168 0.949 . S
C174 C169 1.399 . S
C174 C172 1.382 . S
C174 H175 0.952 . S
H175 C174 0.952 . S
H176 C172 0.950 . S
H177 C178 0.956 . S
C178 H177 0.956 . S
C178 C179 1.387 1_655 S
C178 C180 1.392 1_655 S
C179 C178 1.387 1_455 S
C179 C182 1.390 . S
C180 C178 1.392 1_455 S
C180 C184 1.387 . S
C180 C185 1.491 1_455 S
H181 C182 0.950 . S
C182 C179 1.390 . S
C182 H181 0.950 . S
C182 C183 1.378 . S
C183 C182 1.378 . S
C183 C184 1.409 . S
C184 C180 1.387 . S
C184 C183 1.409 . S
C184 H186 0.951 . S
C185 C180 1.491 1_655 S
C185 C187 1.382 . S
C185 C189 1.404 . S
H186 C184 0.951 . S
C187 C185 1.382 . S
C187 C188 1.390 . S
C187 H192 0.949 . S
C188 C187 1.390 . S
C188 C193 1.399 . S
C189 C185 1.404 . S
C189 H190 0.950 . S
C189 C191 1.375 . S
H190 C189 0.950 . S
C191 C189 1.375 . S
C191 C193 1.382 . S
C191 H195 0.950 . S
H192 C187 0.949 . S
C193 C188 1.399 . S
C193 C191 1.382 . S
C193 H194 0.952 . S
H194 C193 0.952 . S
H195 C191 0.950 . S
H196 C197 0.949 1_565 S
C197 H196 0.949 1_545 S
C197 C198 1.395 . S
C197 C199 1.391 . S
C198 C197 1.395 . S
C198 C201 1.390 . S
C199 C197 1.391 . S
C199 C203 1.387 . S
C199 C204 1.491 1_545 S
H200 C201 0.950 . S
C201 C198 1.390 . S
C201 H200 0.950 . S
C201 C202 1.378 . S
C202 C201 1.378 . S
C202 C203 1.409 . S
C203 C199 1.387 . S
C203 C202 1.409 . S
C203 H205 0.951 . S
C204 C199 1.491 1_565 S
C204 C206 1.382 . S
C204 C208 1.404 . S
H205 C203 0.951 . S
C206 C204 1.382 . S
C206 C207 1.390 . S
C206 H211 0.949 . S
C207 C206 1.390 . S
C207 C212 1.399 . S
C208 C204 1.404 . S
C208 H209 0.950 1_565 S
C208 C210 1.375 . S
H209 C208 0.950 1_545 S
C210 C208 1.375 . S
C210 C212 1.382 . S
C210 H214 0.950 . S
H211 C206 0.949 . S
C212 C207 1.399 . S
C212 C210 1.382 . S
C212 H213 0.952 . S
H213 C212 0.952 . S
H214 C210 0.950 . S
H215 C216 0.949 . S
C216 H215 0.949 . S
C216 C217 1.395 . S
C216 C218 1.391 . S
C217 C216 1.395 . S
C217 C220 1.390 . S
C218 C216 1.391 . S
C218 C222 1.387 . S
C218 C223 1.491 . S
H219 C220 0.950 . S
C220 C217 1.390 . S
C220 H219 0.950 . S
C220 C221 1.378 . S
C221 C220 1.378 . S
C221 C222 1.409 . S
C222 C218 1.387 . S
C222 C221 1.409 . S
C222 H224 0.951 . S
C223 C218 1.491 . S
C223 C225 1.382 . S
C223 C227 1.404 . S
H224 C222 0.951 . S
C225 C223 1.382 . S
C225 C226 1.390 . S
C225 H230 0.949 . S
C226 C225 1.390 . S
C226 C231 1.399 . S
C227 C223 1.404 . S
C227 H228 0.950 . S
C227 C229 1.375 . S
H228 C227 0.950 . S
C229 C227 1.375 . S
C229 C231 1.382 . S
C229 H233 0.950 . S
H230 C225 0.949 . S
C231 C226 1.399 . S
C231 C229 1.382 . S
C231 H232 0.952 . S
H232 C231 0.952 . S
H233 C229 0.950 . S
C234 C235 1.391 . S
C234 C236 1.394 . S
C234 H250 0.931 . S
C235 C234 1.391 . S
C235 C239 1.376 . S
C236 C234 1.394 . S
C236 C237 1.369 . S
C236 C240 1.531 . S
C237 C236 1.369 . S
C237 C238 1.410 . S
C237 C245 1.503 . S
C238 C237 1.410 . S
C238 C239 1.392 . S
C238 C241 1.511 . S
C239 C235 1.376 . S
C239 C238 1.392 . S
C239 H251 0.929 . S
C240 C236 1.531 . S
C240 H252 0.960 . S
C240 H253 0.962 . S
C240 H254 0.960 . S
C241 C238 1.511 . S
C241 H255 0.961 . S
C241 H256 0.961 . S
C241 H257 0.961 . S
C242 C243 1.370 . S
C242 C244 1.363 . S
C242 H258 0.931 . S
C243 C242 1.370 . S
C243 C247 1.408 . S
C244 C242 1.363 . S
C244 C245 1.370 . S
C244 C248 1.524 . S
C245 C237 1.503 . S
C245 C244 1.370 . S
C245 C246 1.403 . S
C246 C245 1.403 . S
C246 C247 1.404 . S
C246 C249 1.539 . S
C247 C243 1.408 . S
C247 C246 1.404 . S
C247 H259 0.930 . S
C248 C244 1.524 . S
C248 H260 0.956 . S
C248 H261 0.961 . S
C248 H262 0.961 . S
C249 C246 1.539 . S
C249 H263 0.958 . S
C249 H264 0.961 . S
C249 H265 0.960 . S
H250 C234 0.931 . S
H251 C239 0.929 . S
H252 C240 0.960 . S
H253 C240 0.962 . S
H254 C240 0.960 . S
H255 C241 0.961 . S
H256 C241 0.961 . S
H257 C241 0.961 . S
H258 C242 0.931 . S
H259 C247 0.930 . S
H260 C248 0.956 . S
H261 C248 0.961 . S
H262 C248 0.961 . S
H263 C249 0.958 . S
H264 C249 0.961 . S
H265 C249 0.960 . S
C266 C267 1.391 . S
C266 C268 1.394 . S
C266 H282 0.931 . S
C267 C266 1.391 . S
C267 C271 1.376 . S
C268 C266 1.394 . S
C268 C269 1.369 . S
C268 C272 1.531 . S
C269 C268 1.369 . S
C269 C270 1.410 . S
C269 C277 1.503 . S
C270 C269 1.410 . S
C270 C271 1.392 . S
C270 C273 1.511 . S
C271 C267 1.376 . S
C271 C270 1.392 . S
C271 H283 0.929 . S
C272 C268 1.531 . S
C272 H284 0.960 . S
C272 H285 0.962 . S
C272 H286 0.960 . S
C273 C270 1.511 . S
C273 H287 0.961 . S
C273 H288 0.961 . S
C273 H289 0.961 . S
C274 C275 1.370 . S
C274 C276 1.363 . S
C274 H290 0.931 . S
C275 C274 1.370 . S
C275 C279 1.408 . S
C276 C274 1.363 . S
C276 C277 1.370 . S
C276 C280 1.524 . S
C277 C269 1.503 . S
C277 C276 1.370 . S
C277 C278 1.403 . S
C278 C277 1.403 . S
C278 C279 1.404 . S
C278 C281 1.539 . S
C279 C275 1.408 . S
C279 C278 1.404 . S
C279 H291 0.930 . S
C280 C276 1.524 . S
C280 H292 0.956 . S
C280 H293 0.961 . S
C280 H294 0.961 . S
C281 C278 1.539 . S
C281 H295 0.958 . S
C281 H296 0.961 . S
C281 H297 0.960 . S
H282 C266 0.931 . S
H283 C271 0.929 . S
H284 C272 0.960 . S
H285 C272 0.962 . S
H286 C272 0.960 . S
H287 C273 0.961 . S
H288 C273 0.961 . S
H289 C273 0.961 . S
H290 C274 0.931 . S
H291 C279 0.930 . S
H292 C280 0.956 . S
H293 C280 0.961 . S
H294 C280 0.961 . S
H295 C281 0.958 . S
H296 C281 0.961 . S
H297 C281 0.960 . S
C298 C299 1.391 . S
C298 C300 1.394 . S
C298 H314 0.931 . S
C299 C298 1.391 . S
C299 C303 1.376 . S
C300 C298 1.394 . S
C300 C301 1.369 . S
C300 C304 1.531 . S
C301 C300 1.369 . S
C301 C302 1.410 . S
C301 C309 1.503 . S
C302 C301 1.410 . S
C302 C303 1.392 . S
C302 C305 1.511 . S
C303 C299 1.376 . S
C303 C302 1.392 . S
C303 H315 0.929 . S
C304 C300 1.531 . S
C304 H316 0.960 . S
C304 H317 0.962 . S
C304 H318 0.960 . S
C305 C302 1.511 . S
C305 H319 0.961 . S
C305 H320 0.961 . S
C305 H321 0.961 . S
C306 C307 1.370 . S
C306 C308 1.363 . S
C306 H322 0.931 . S
C307 C306 1.370 . S
C307 C311 1.408 . S
C308 C306 1.363 . S
C308 C309 1.370 . S
C308 C312 1.524 . S
C309 C301 1.503 . S
C309 C308 1.370 . S
C309 C310 1.403 . S
C310 C309 1.403 . S
C310 C311 1.404 . S
C310 C313 1.539 . S
C311 C307 1.408 . S
C311 C310 1.404 . S
C311 H323 0.930 . S
C312 C308 1.524 . S
C312 H324 0.956 . S
C312 H325 0.961 . S
C312 H326 0.961 . S
C313 C310 1.539 . S
C313 H327 0.958 . S
C313 H328 0.961 . S
C313 H329 0.960 . S
H314 C298 0.931 . S
H315 C303 0.929 . S
H316 C304 0.960 . S
H317 C304 0.962 . S
H318 C304 0.960 . S
H319 C305 0.961 . S
H320 C305 0.961 . S
H321 C305 0.961 . S
H322 C306 0.931 . S
H323 C311 0.930 . S
H324 C312 0.956 . S
H325 C312 0.961 . S
H326 C312 0.961 . S
H327 C313 0.958 . S
H328 C313 0.961 . S
H329 C313 0.960 . S
C330 C331 1.391 . S
C330 C332 1.394 . S
C330 H346 0.931 . S
C331 C330 1.391 . S
C331 C335 1.376 . S
C332 C330 1.394 . S
C332 C333 1.369 . S
C332 C336 1.531 . S
C333 C332 1.369 . S
C333 C334 1.410 . S
C333 C341 1.503 . S
C334 C333 1.410 . S
C334 C335 1.392 . S
C334 C337 1.511 . S
C335 C331 1.376 . S
C335 C334 1.392 . S
C335 H347 0.929 . S
C336 C332 1.531 . S
C336 H348 0.960 . S
C336 H349 0.962 . S
C336 H350 0.960 . S
C337 C334 1.511 . S
C337 H351 0.961 . S
C337 H352 0.961 . S
C337 H353 0.961 . S
C338 C339 1.370 . S
C338 C340 1.363 . S
C338 H354 0.931 . S
C339 C338 1.370 . S
C339 C343 1.408 . S
C340 C338 1.363 . S
C340 C341 1.370 . S
C340 C344 1.524 . S
C341 C333 1.503 . S
C341 C340 1.370 . S
C341 C342 1.403 . S
C342 C341 1.403 . S
C342 C343 1.404 . S
C342 C345 1.539 . S
C343 C339 1.408 . S
C343 C342 1.404 . S
C343 H355 0.930 . S
C344 C340 1.524 . S
C344 H356 0.956 . S
C344 H357 0.961 . S
C344 H358 0.961 . S
C345 C342 1.539 . S
C345 H359 0.958 . S
C345 H360 0.961 . S
C345 H361 0.960 . S
H346 C330 0.931 . S
H347 C335 0.929 . S
H348 C336 0.960 . S
H349 C336 0.962 . S
H350 C336 0.960 . S
H351 C337 0.961 . S
H352 C337 0.961 . S
H353 C337 0.961 . S
H354 C338 0.931 . S
H355 C343 0.930 . S
H356 C344 0.956 . S
H357 C344 0.961 . S
H358 C344 0.961 . S
H359 C345 0.958 . S
H360 C345 0.961 . S
H361 C345 0.960 . S
C362 C363 1.391 . S
C362 C364 1.394 . S
C362 H378 0.931 . S
C363 C362 1.391 . S
C363 C367 1.376 . S
C364 C362 1.394 . S
C364 C365 1.369 . S
C364 C368 1.531 . S
C365 C364 1.369 . S
C365 C366 1.410 . S
C365 C373 1.503 . S
C366 C365 1.410 . S
C366 C367 1.392 . S
C366 C369 1.511 . S
C367 C363 1.376 . S
C367 C366 1.392 . S
C367 H379 0.929 . S
C368 C364 1.531 . S
C368 H380 0.960 . S
C368 H381 0.962 . S
C368 H382 0.960 . S
C369 C366 1.511 . S
C369 H383 0.961 . S
C369 H384 0.961 . S
C369 H385 0.961 . S
C370 C371 1.370 . S
C370 C372 1.363 . S
C370 H386 0.931 . S
C371 C370 1.370 . S
C371 C375 1.408 . S
C372 C370 1.363 . S
C372 C373 1.370 . S
C372 C376 1.524 . S
C373 C365 1.503 . S
C373 C372 1.370 . S
C373 C374 1.403 . S
C374 C373 1.403 . S
C374 C375 1.404 . S
C374 C377 1.539 . S
C375 C371 1.408 . S
C375 C374 1.404 . S
C375 H387 0.930 . S
C376 C372 1.524 . S
C376 H388 0.956 . S
C376 H389 0.961 . S
C376 H390 0.961 . S
C377 C374 1.539 . S
C377 H391 0.958 . S
C377 H392 0.961 . S
C377 H393 0.960 . S
H378 C362 0.931 . S
H379 C367 0.929 . S
H380 C368 0.960 . S
H381 C368 0.962 . S
H382 C368 0.960 . S
H383 C369 0.961 . S
H384 C369 0.961 . S
H385 C369 0.961 . S
H386 C370 0.931 . S
H387 C375 0.930 . S
H388 C376 0.956 . S
H389 C376 0.961 . S
H390 C376 0.961 . S
H391 C377 0.958 . S
H392 C377 0.961 . S
H393 C377 0.960 . S
C394 C395 1.391 . S
C394 C396 1.394 . S
C394 H410 0.931 . S
C395 C394 1.391 . S
C395 C399 1.376 . S
C396 C394 1.394 . S
C396 C397 1.369 . S
C396 C400 1.531 . S
C397 C396 1.369 . S
C397 C398 1.410 . S
C397 C405 1.503 . S
C398 C397 1.410 . S
C398 C399 1.392 . S
C398 C401 1.511 . S
C399 C395 1.376 . S
C399 C398 1.392 . S
C399 H411 0.929 . S
C400 C396 1.531 . S
C400 H412 0.960 . S
C400 H413 0.962 . S
C400 H414 0.960 . S
C401 C398 1.511 . S
C401 H415 0.961 . S
C401 H416 0.961 . S
C401 H417 0.961 . S
C402 C403 1.370 . S
C402 C404 1.363 . S
C402 H418 0.931 . S
C403 C402 1.370 . S
C403 C407 1.408 . S
C404 C402 1.363 . S
C404 C405 1.370 . S
C404 C408 1.524 . S
C405 C397 1.503 . S
C405 C404 1.370 . S
C405 C406 1.403 . S
C406 C405 1.403 . S
C406 C407 1.404 . S
C406 C409 1.539 . S
C407 C403 1.408 . S
C407 C406 1.404 . S
C407 H419 0.930 . S
C408 C404 1.524 . S
C408 H420 0.956 . S
C408 H421 0.961 . S
C408 H422 0.961 . S
C409 C406 1.539 . S
C409 H423 0.958 . S
C409 H424 0.961 . S
C409 H425 0.960 . S
H410 C394 0.931 . S
H411 C399 0.929 . S
H412 C400 0.960 . S
H413 C400 0.962 . S
H414 C400 0.960 . S
H415 C401 0.961 . S
H416 C401 0.961 . S
H417 C401 0.961 . S
H418 C402 0.931 . S
H419 C407 0.930 . S
H420 C408 0.956 . S
H421 C408 0.961 . S
H422 C408 0.961 . S
H423 C409 0.958 . S
H424 C409 0.961 . S
H425 C409 0.960 . S
C426 C427 1.391 . S
C426 C428 1.394 . S
C426 H442 0.931 . S
C427 C426 1.391 . S
C427 C431 1.376 . S
C428 C426 1.394 . S
C428 C429 1.369 . S
C428 C432 1.531 . S
C429 C428 1.369 . S
C429 C430 1.410 . S
C429 C437 1.503 . S
C430 C429 1.410 . S
C430 C431 1.392 . S
C430 C433 1.511 . S
C431 C427 1.376 . S
C431 C430 1.392 . S
C431 H443 0.929 . S
C432 C428 1.531 . S
C432 H444 0.960 . S
C432 H445 0.962 . S
C432 H446 0.960 . S
C433 C430 1.511 . S
C433 H447 0.961 . S
C433 H448 0.961 . S
C433 H449 0.961 . S
C434 C435 1.370 . S
C434 C436 1.363 . S
C434 H450 0.931 . S
C435 C434 1.370 . S
C435 C439 1.408 . S
C436 C434 1.363 . S
C436 C437 1.370 . S
C436 C440 1.524 . S
C437 C429 1.503 . S
C437 C436 1.370 . S
C437 C438 1.403 . S
C438 C437 1.403 . S
C438 C439 1.404 . S
C438 C441 1.539 . S
C439 C435 1.408 . S
C439 C438 1.404 . S
C439 H451 0.930 . S
C440 C436 1.524 . S
C440 H452 0.956 . S
C440 H453 0.961 . S
C440 H454 0.961 . S
C441 C438 1.539 . S
C441 H455 0.958 . S
C441 H456 0.961 . S
C441 H457 0.960 . S
H442 C426 0.931 . S
H443 C431 0.929 . S
H444 C432 0.960 . S
H445 C432 0.962 . S
H446 C432 0.960 . S
H447 C433 0.961 . S
H448 C433 0.961 . S
H449 C433 0.961 . S
H450 C434 0.931 . S
H451 C439 0.930 . S
H452 C440 0.956 . S
H453 C440 0.961 . S
H454 C440 0.961 . S
H455 C441 0.958 . S
H456 C441 0.961 . S
H457 C441 0.960 . S
C458 C459 1.391 . S
C458 C460 1.394 . S
C458 H474 0.931 . S
C459 C458 1.391 . S
C459 C463 1.376 . S
C460 C458 1.394 . S
C460 C461 1.369 . S
C460 C464 1.531 . S
C461 C460 1.369 . S
C461 C462 1.410 . S
C461 C469 1.503 . S
C462 C461 1.410 . S
C462 C463 1.392 . S
C462 C465 1.511 . S
C463 C459 1.376 . S
C463 C462 1.392 . S
C463 H475 0.929 . S
C464 C460 1.531 . S
C464 H476 0.960 . S
C464 H477 0.962 . S
C464 H478 0.960 . S
C465 C462 1.511 . S
C465 H479 0.961 . S
C465 H480 0.961 . S
C465 H481 0.961 . S
C466 C467 1.370 . S
C466 C468 1.363 . S
C466 H482 0.931 . S
C467 C466 1.370 . S
C467 C471 1.408 . S
C468 C466 1.363 . S
C468 C469 1.370 . S
C468 C472 1.524 . S
C469 C461 1.503 . S
C469 C468 1.370 . S
C469 C470 1.403 . S
C470 C469 1.403 . S
C470 C471 1.404 . S
C470 C473 1.539 . S
C471 C467 1.408 . S
C471 C470 1.404 . S
C471 H483 0.930 . S
C472 C468 1.524 . S
C472 H484 0.956 . S
C472 H485 0.961 . S
C472 H486 0.961 . S
C473 C470 1.539 . S
C473 H487 0.958 . S
C473 H488 0.961 . S
C473 H489 0.960 . S
H474 C458 0.931 . S
H475 C463 0.929 . S
H476 C464 0.960 . S
H477 C464 0.962 . S
H478 C464 0.960 . S
H479 C465 0.961 . S
H480 C465 0.961 . S
H481 C465 0.961 . S
H482 C466 0.931 . S
H483 C471 0.930 . S
H484 C472 0.956 . S
H485 C472 0.961 . S
H486 C472 0.961 . S
H487 C473 0.958 . S
H488 C473 0.961 . S
H489 C473 0.960 . S
C490 C491 1.391 . S
C490 C492 1.394 . S
C490 H506 0.931 . S
C491 C490 1.391 . S
C491 C495 1.376 . S
C492 C490 1.394 . S
C492 C493 1.369 . S
C492 C496 1.531 . S
C493 C492 1.369 . S
C493 C494 1.410 . S
C493 C501 1.503 . S
C494 C493 1.410 . S
C494 C495 1.392 . S
C494 C497 1.511 . S
C495 C491 1.376 . S
C495 C494 1.392 . S
C495 H507 0.929 . S
C496 C492 1.531 . S
C496 H508 0.960 . S
C496 H509 0.962 . S
C496 H510 0.960 . S
C497 C494 1.511 . S
C497 H511 0.961 . S
C497 H512 0.961 . S
C497 H513 0.961 . S
C498 C499 1.370 . S
C498 C500 1.363 . S
C498 H514 0.931 . S
C499 C498 1.370 . S
C499 C503 1.420 . S
C500 C498 1.363 . S
C500 C501 1.370 . S
C500 C504 1.524 . S
C501 C493 1.503 . S
C501 C500 1.370 . S
C501 C502 1.403 . S
C502 C501 1.403 . S
C502 C503 1.419 . S
C502 C505 1.539 . S
C503 C499 1.420 . S
C503 C502 1.419 . S
C503 H515 0.903 1_565 S
C504 C500 1.524 . S
C504 H516 0.956 . S
C504 H517 0.961 . S
C504 H518 0.961 . S
C505 C502 1.539 . S
C505 H519 0.958 . S
C505 H520 0.961 . S
C505 H521 0.960 . S
H506 C490 0.931 . S
H507 C495 0.929 . S
H508 C496 0.960 . S
H509 C496 0.962 . S
H510 C496 0.960 . S
H511 C497 0.961 . S
H512 C497 0.961 . S
H513 C497 0.961 . S
H514 C498 0.931 . S
H515 C503 0.903 1_545 S
H516 C504 0.956 . S
H517 C504 0.961 . S
H518 C504 0.961 . S
H519 C505 0.958 . S
H520 C505 0.961 . S
H521 C505 0.960 . S
C522 C523 1.391 . S
C522 C524 1.394 . S
C522 H538 0.931 . S
C523 C522 1.391 . S
C523 C527 1.376 . S
C524 C522 1.394 . S
C524 C525 1.369 . S
C524 C528 1.531 . S
C525 C524 1.369 . S
C525 C526 1.410 . S
C525 C533 1.503 . S
C526 C525 1.410 . S
C526 C527 1.392 . S
C526 C529 1.511 . S
C527 C523 1.376 . S
C527 C526 1.392 . S
C527 H539 0.929 . S
C528 C524 1.531 . S
C528 H540 0.960 . S
C528 H541 0.962 . S
C528 H542 0.960 . S
C529 C526 1.511 . S
C529 H543 0.961 . S
C529 H544 0.961 . S
C529 H545 0.961 . S
C530 C531 1.370 . S
C530 C532 1.363 . S
C530 H546 0.931 . S
C531 C530 1.370 . S
C531 C535 1.408 . S
C532 C530 1.363 . S
C532 C533 1.370 . S
C532 C536 1.524 . S
C533 C525 1.503 . S
C533 C532 1.370 . S
C533 C534 1.403 . S
C534 C533 1.403 . S
C534 C535 1.404 . S
C534 C537 1.539 . S
C535 C531 1.408 . S
C535 C534 1.404 . S
C535 H547 0.930 . S
C536 C532 1.524 . S
C536 H548 0.956 . S
C536 H549 0.961 . S
C536 H550 0.961 . S
C537 C534 1.539 . S
C537 H551 0.958 . S
C537 H552 0.961 . S
C537 H553 0.960 . S
H538 C522 0.931 . S
H539 C527 0.929 . S
H540 C528 0.960 . S
H541 C528 0.962 . S
H542 C528 0.960 . S
H543 C529 0.961 . S
H544 C529 0.961 . S
H545 C529 0.961 . S
H546 C530 0.931 . S
H547 C535 0.930 . S
H548 C536 0.956 . S
H549 C536 0.961 . S
H550 C536 0.961 . S
H551 C537 0.958 . S
H552 C537 0.961 . S
H553 C537 0.960 . S
C554 C555 1.391 . S
C554 C556 1.394 . S
C554 H570 0.931 . S
C555 C554 1.391 . S
C555 C559 1.376 . S
C556 C554 1.394 . S
C556 C557 1.369 . S
C556 C560 1.531 . S
C557 C556 1.369 . S
C557 C558 1.410 . S
C557 C565 1.503 . S
C558 C557 1.410 . S
C558 C559 1.392 . S
C558 C561 1.511 . S
C559 C555 1.376 . S
C559 C558 1.392 . S
C559 H571 0.929 . S
C560 C556 1.531 . S
C560 H572 0.960 . S
C560 H573 0.962 . S
C560 H574 0.960 . S
C561 C558 1.511 . S
C561 H575 0.961 . S
C561 H576 0.961 . S
C561 H577 0.961 . S
C562 C563 1.370 . S
C562 C564 1.363 . S
C562 H578 0.931 . S
C563 C562 1.370 . S
C563 C567 1.408 . S
C564 C562 1.363 . S
C564 C565 1.370 . S
C564 C568 1.524 . S
C565 C557 1.503 . S
C565 C564 1.370 . S
C565 C566 1.403 . S
C566 C565 1.403 . S
C566 C567 1.404 . S
C566 C569 1.539 . S
C567 C563 1.408 . S
C567 C566 1.404 . S
C567 H579 0.930 . S
C568 C564 1.524 . S
C568 H580 0.956 . S
C568 H581 0.961 . S
C568 H582 0.961 . S
C569 C566 1.539 . S
C569 H583 0.958 . S
C569 H584 0.961 . S
C569 H585 0.960 . S
H570 C554 0.931 . S
H571 C559 0.929 . S
H572 C560 0.960 . S
H573 C560 0.962 . S
H574 C560 0.960 . S
H575 C561 0.961 . S
H576 C561 0.961 . S
H577 C561 0.961 . S
H578 C562 0.931 . S
H579 C567 0.930 . S
H580 C568 0.956 . S
H581 C568 0.961 . S
H582 C568 0.961 . S
H583 C569 0.958 . S
H584 C569 0.961 . S
H585 C569 0.960 . S
C586 C587 1.391 . S
C586 C588 1.394 . S
C586 H602 0.931 . S
C587 C586 1.391 . S
C587 C591 1.376 . S
C588 C586 1.394 . S
C588 C589 1.369 . S
C588 C592 1.531 . S
C589 C588 1.369 . S
C589 C590 1.410 . S
C589 C597 1.503 . S
C590 C589 1.410 . S
C590 C591 1.392 . S
C590 C593 1.511 . S
C591 C587 1.376 . S
C591 C590 1.392 . S
C591 H603 0.929 . S
C592 C588 1.531 . S
C592 H604 0.960 . S
C592 H605 0.962 . S
C592 H606 0.960 . S
C593 C590 1.511 . S
C593 H607 0.961 . S
C593 H608 0.961 . S
C593 H609 0.961 . S
C594 C595 1.370 . S
C594 C596 1.363 . S
C594 H610 0.931 . S
C595 C594 1.370 . S
C595 C599 1.408 . S
C596 C594 1.363 . S
C596 C597 1.370 . S
C596 C600 1.524 . S
C597 C589 1.503 . S
C597 C596 1.370 . S
C597 C598 1.403 . S
C598 C597 1.403 . S
C598 C599 1.404 . S
C598 C601 1.539 . S
C599 C595 1.408 . S
C599 C598 1.404 . S
C599 H611 0.930 . S
C600 C596 1.524 . S
C600 H612 0.956 . S
C600 H613 0.961 . S
C600 H614 0.961 . S
C601 C598 1.539 . S
C601 H615 0.958 . S
C601 H616 0.961 . S
C601 H617 0.960 . S
H602 C586 0.931 . S
H603 C591 0.929 . S
H604 C592 0.960 . S
H605 C592 0.962 . S
H606 C592 0.960 . S
H607 C593 0.961 . S
H608 C593 0.961 . S
H609 C593 0.961 . S
H610 C594 0.931 . S
H611 C599 0.930 . S
H612 C600 0.956 . S
H613 C600 0.961 . S
H614 C600 0.961 . S
H615 C601 0.958 . S
H616 C601 0.961 . S
H617 C601 0.960 . S
C618 C619 1.391 . S
C618 C620 1.394 . S
C618 H634 0.931 . S
C619 C618 1.391 . S
C619 C623 1.376 . S
C620 C618 1.394 . S
C620 C621 1.369 . S
C620 C624 1.531 . S
C621 C620 1.369 . S
C621 C622 1.428 . S
C621 C629 1.503 1_554 S
C622 C621 1.428 . S
C622 C623 1.388 . S
C622 C625 1.499 1_455 S
C623 C619 1.376 . S
C623 C622 1.388 . S
C623 H635 0.929 1_455 S
C624 C620 1.531 . S
C624 H636 0.960 . S
C624 H637 0.962 . S
C624 H638 0.960 . S
C625 C622 1.499 1_655 S
C625 H639 0.961 . S
C625 H640 0.961 1_554 S
C625 H641 0.961 . S
C626 C627 1.370 . S
C626 C628 1.363 . S
C626 H642 0.931 . S
C627 C626 1.370 . S
C627 C631 1.408 1_455 S
C628 C626 1.363 . S
C628 C629 1.370 . S
C628 C632 1.524 1_556 S
C629 C621 1.503 1_556 S
C629 C628 1.370 . S
C629 C630 1.403 1_455 S
C630 C629 1.403 1_655 S
C630 C631 1.404 . S
C630 C633 1.539 . S
C631 C627 1.408 1_655 S
C631 C630 1.404 . S
C631 H643 0.930 . S
C632 C628 1.524 1_554 S
C632 H644 0.956 . S
C632 H645 0.961 . S
C632 H646 0.961 1_554 S
C633 C630 1.539 . S
C633 H647 0.958 . S
C633 H648 0.961 . S
C633 H649 0.960 . S
H634 C618 0.931 . S
H635 C623 0.929 1_655 S
H636 C624 0.960 . S
H637 C624 0.962 . S
H638 C624 0.960 . S
H639 C625 0.961 . S
H640 C625 0.961 1_556 S
H641 C625 0.961 . S
H642 C626 0.931 . S
H643 C631 0.930 . S
H644 C632 0.956 . S
H645 C632 0.961 . S
H646 C632 0.961 1_556 S
H647 C633 0.958 . S
H648 C633 0.961 . S
H649 C633 0.960 . S
C650 C651 1.391 . S
C650 C652 1.394 . S
C650 H666 0.931 . S
C651 C650 1.391 . S
C651 C655 1.376 . S
C652 C650 1.394 . S
C652 C653 1.369 . S
C652 C656 1.531 1_545 S
C653 C652 1.369 . S
C653 C654 1.410 . S
C653 C661 1.503 . S
C654 C653 1.410 . S
C654 C655 1.392 . S
C654 C657 1.511 . S
C655 C651 1.376 . S
C655 C654 1.392 . S
C655 H667 0.929 . S
C656 C652 1.531 1_565 S
C656 H668 0.960 . S
C656 H669 0.962 . S
C656 H670 0.960 . S
C657 C654 1.511 . S
C657 H671 0.961 . S
C657 H672 0.961 . S
C657 H673 0.961 . S
C658 C659 1.370 . S
C658 C660 1.363 . S
C658 H674 0.931 . S
C659 C658 1.370 . S
C659 C663 1.408 . S
C660 C658 1.363 . S
C660 C661 1.370 . S
C660 C664 1.524 . S
C661 C653 1.503 . S
C661 C660 1.370 . S
C661 C662 1.403 . S
C662 C661 1.403 . S
C662 C663 1.404 . S
C662 C665 1.539 . S
C663 C659 1.408 . S
C663 C662 1.404 . S
C663 H675 0.930 . S
C664 C660 1.524 . S
C664 H676 0.956 . S
C664 H677 0.961 . S
C664 H678 0.961 . S
C665 C662 1.539 . S
C665 H679 0.958 . S
C665 H680 0.961 . S
C665 H681 0.960 . S
H666 C650 0.931 . S
H667 C655 0.929 . S
H668 C656 0.960 . S
H669 C656 0.962 . S
H670 C656 0.960 . S
H671 C657 0.961 . S
H672 C657 0.961 . S
H673 C657 0.961 . S
H674 C658 0.931 . S
H675 C663 0.930 . S
H676 C664 0.956 . S
H677 C664 0.961 . S
H678 C664 0.961 . S
H679 C665 0.958 . S
H680 C665 0.961 . S
H681 C665 0.960 . S
C682 C683 1.391 . S
C682 C684 1.394 . S
C682 H698 0.931 . S
C683 C682 1.391 . S
C683 C687 1.376 . S
C684 C682 1.394 . S
C684 C685 1.369 . S
C684 C688 1.531 . S
C685 C684 1.369 . S
C685 C686 1.410 . S
C685 C693 1.503 . S
C686 C685 1.410 . S
C686 C687 1.392 . S
C686 C689 1.511 . S
C687 C683 1.376 . S
C687 C686 1.392 . S
C687 H699 0.929 . S
C688 C684 1.531 . S
C688 H700 0.960 . S
C688 H701 0.962 . S
C688 H702 0.960 . S
C689 C686 1.511 . S
C689 H703 0.961 . S
C689 H704 0.961 . S
C689 H705 0.961 . S
C690 C691 1.370 . S
C690 C692 1.363 . S
C690 H706 0.931 . S
C691 C690 1.370 . S
C691 C695 1.408 . S
C692 C690 1.363 . S
C692 C693 1.370 . S
C692 C696 1.524 . S
C693 C685 1.503 . S
C693 C692 1.370 . S
C693 C694 1.403 . S
C694 C693 1.403 . S
C694 C695 1.404 . S
C694 C697 1.539 . S
C695 C691 1.408 . S
C695 C694 1.404 . S
C695 H707 0.930 . S
C696 C692 1.524 . S
C696 H708 0.956 . S
C696 H709 0.961 . S
C696 H710 0.961 . S
C697 C694 1.539 . S
C697 H711 0.958 . S
C697 H712 0.961 . S
C697 H713 0.960 . S
H698 C682 0.931 . S
H699 C687 0.929 . S
H700 C688 0.960 . S
H701 C688 0.962 . S
H702 C688 0.960 . S
H703 C689 0.961 . S
H704 C689 0.961 . S
H705 C689 0.961 . S
H706 C690 0.931 . S
H707 C695 0.930 . S
H708 C696 0.956 . S
H709 C696 0.961 . S
H710 C696 0.961 . S
H711 C697 0.958 . S
H712 C697 0.961 . S
H713 C697 0.960 . S
C714 C715 1.391 . S
C714 C716 1.394 . S
C714 H730 0.931 . S
C715 C714 1.391 . S
C715 C719 1.376 . S
C716 C714 1.394 . S
C716 C717 1.369 . S
C716 C720 1.531 . S
C717 C716 1.369 . S
C717 C718 1.410 . S
C717 C725 1.503 . S
C718 C717 1.410 . S
C718 C719 1.392 . S
C718 C721 1.511 . S
C719 C715 1.376 . S
C719 C718 1.392 . S
C719 H731 0.929 . S
C720 C716 1.531 . S
C720 H732 0.960 . S
C720 H733 0.962 . S
C720 H734 0.960 . S
C721 C718 1.511 . S
C721 H735 0.961 . S
C721 H736 0.961 . S
C721 H737 0.961 . S
C722 C723 1.370 . S
C722 C724 1.363 . S
C722 H738 0.931 . S
C723 C722 1.370 . S
C723 C727 1.408 . S
C724 C722 1.363 . S
C724 C725 1.370 . S
C724 C728 1.524 . S
C725 C717 1.503 . S
C725 C724 1.370 . S
C725 C726 1.403 . S
C726 C725 1.403 . S
C726 C727 1.404 . S
C726 C729 1.539 1_545 S
C727 C723 1.408 . S
C727 C726 1.404 . S
C727 H739 0.930 1_545 S
C728 C724 1.524 . S
C728 H740 0.956 . S
C728 H741 0.961 . S
C728 H742 0.961 . S
C729 C726 1.539 1_565 S
C729 H743 0.958 . S
C729 H744 0.961 . S
C729 H745 0.960 . S
H730 C714 0.931 . S
H731 C719 0.929 . S
H732 C720 0.960 . S
H733 C720 0.962 . S
H734 C720 0.960 . S
H735 C721 0.961 . S
H736 C721 0.961 . S
H737 C721 0.961 . S
H738 C722 0.931 . S
H739 C727 0.930 1_565 S
H740 C728 0.956 . S
H741 C728 0.961 . S
H742 C728 0.961 . S
H743 C729 0.958 . S
H744 C729 0.961 . S
H745 C729 0.960 . S
C746 C747 1.391 . S
C746 C748 1.394 . S
C746 H762 0.931 . S
C747 C746 1.391 . S
C747 C751 1.376 . S
C748 C746 1.394 . S
C748 C749 1.369 . S
C748 C752 1.531 . S
C749 C748 1.369 . S
C749 C750 1.410 . S
C749 C757 1.503 1_556 S
C750 C749 1.410 . S
C750 C751 1.392 . S
C750 C753 1.511 . S
C751 C747 1.376 . S
C751 C750 1.392 . S
C751 H763 0.929 . S
C752 C748 1.531 . S
C752 H764 0.960 . S
C752 H765 0.962 . S
C752 H766 0.960 . S
C753 C750 1.511 . S
C753 H767 0.961 . S
C753 H768 0.961 1_556 S
C753 H769 0.961 1_556 S
C754 C755 1.370 . S
C754 C756 1.363 . S
C754 H770 0.931 . S
C755 C754 1.370 . S
C755 C759 1.408 . S
C756 C754 1.363 . S
C756 C757 1.370 . S
C756 C760 1.524 . S
C757 C749 1.503 1_554 S
C757 C756 1.370 . S
C757 C758 1.403 . S
C758 C757 1.403 . S
C758 C759 1.404 . S
C758 C761 1.539 . S
C759 C755 1.408 . S
C759 C758 1.404 . S
C759 H771 0.930 . S
C760 C756 1.524 . S
C760 H772 0.956 1_554 S
C760 H773 0.961 1_554 S
C760 H774 0.961 . S
C761 C758 1.539 . S
C761 H775 0.958 . S
C761 H776 0.961 . S
C761 H777 0.960 . S
H762 C746 0.931 . S
H763 C751 0.929 . S
H764 C752 0.960 . S
H765 C752 0.962 . S
H766 C752 0.960 . S
H767 C753 0.961 . S
H768 C753 0.961 1_554 S
H769 C753 0.961 1_554 S
H770 C754 0.931 . S
H771 C759 0.930 . S
H772 C760 0.956 1_556 S
H773 C760 0.961 1_556 S
H774 C760 0.961 . S
H775 C761 0.958 . S
H776 C761 0.961 . S
H777 C761 0.960 . S
C778 C779 1.391 1_655 S
C778 C780 1.394 . S
C778 H794 0.931 . S
C779 C778 1.391 1_455 S
C779 C783 1.376 . S
C780 C778 1.394 . S
C780 C781 1.369 1_655 S
C780 C784 1.531 . S
C781 C780 1.369 1_455 S
C781 C782 1.410 . S
C781 C789 1.503 . S
C782 C781 1.410 . S
C782 C783 1.392 . S
C782 C785 1.511 . S
C783 C779 1.376 . S
C783 C782 1.392 . S
C783 H795 0.929 . S
C784 C780 1.531 . S
C784 H796 0.960 . S
C784 H797 0.962 . S
C784 H798 0.960 . S
C785 C782 1.511 . S
C785 H799 0.961 . S
C785 H800 0.961 . S
C785 H801 0.961 . S
C786 C787 1.370 . S
C786 C788 1.363 . S
C786 H802 0.931 . S
C787 C786 1.370 . S
C787 C791 1.408 . S
C788 C786 1.363 . S
C788 C789 1.370 . S
C788 C792 1.524 . S
C789 C781 1.503 . S
C789 C788 1.370 . S
C789 C790 1.403 . S
C790 C789 1.403 . S
C790 C791 1.404 . S
C790 C793 1.539 . S
C791 C787 1.408 . S
C791 C790 1.404 . S
C791 H803 0.930 . S
C792 C788 1.524 . S
C792 H804 0.956 1_455 S
C792 H805 0.961 . S
C792 H806 0.961 . S
C793 C790 1.539 . S
C793 H807 0.958 . S
C793 H808 0.961 . S
C793 H809 0.960 . S
H794 C778 0.931 . S
H795 C783 0.929 . S
H796 C784 0.960 . S
H797 C784 0.962 . S
H798 C784 0.960 . S
H799 C785 0.961 . S
H800 C785 0.961 . S
H801 C785 0.961 . S
H802 C786 0.931 . S
H803 C791 0.930 . S
H804 C792 0.956 1_655 S
H805 C792 0.961 . S
H806 C792 0.961 . S
H807 C793 0.958 . S
H808 C793 0.961 . S
H809 C793 0.960 . S
C235 C19 2.004 . S
C243 C226 1.941 . S
C267 C46 1.297 . S
C275 C188 1.240 . S
C299 C95 0.397 . S
C307 C207 0.629 . S
C331 C10 1.872 . S
C339 C221 1.846 . S
C371 C183 1.121 . S
C363 C55 1.137 . S
C403 C202 0.358 . S
C395 C86 0.314 . S
C427 C59 3.226 . S
C435 C150 3.143 . S
C459 C90 1.904 . S
C467 C164 1.907 . S
C491 C15 1.104 . S
C499 C126 1.098 1_565 S
C531 C145 2.938 . S
C523 C50 2.964 . S
C563 C169 1.956 . S
C555 C99 1.978 . S
C587 C6 1.328 . S
C595 C131 1.244 . S
C627 C160 1.530 . S
C619 C9 1.442 . S
C651 C58 1.554 . S
C659 C122 1.563 . S
C683 C98 1.645 . S
C691 C141 1.768 . S
C723 C198 1.363 . S
C715 C49 1.298 . S
C755 C217 1.523 . S
C747 C89 1.479 . S
C779 C18 1.575 . S
C787 C179 1.563 . S
