# Generated by pormake.
# Topology llk, (3,12)-cn, num edge types: 1
# Building blocks:
#     Node 0, Type 0, BuildingBlock: BELTOD_clean_linker_0, # of connection points: 3
#     Node 1, Type 0, BuildingBlock: BELTOD_clean_linker_0, # of connection points: 3
#     Node 2, Type 0, BuildingBlock: BELTOD_clean_linker_0, # of connection points: 3
#     Node 3, Type 0, BuildingBlock: BELTOD_clean_linker_0, # of connection points: 3
#     Node 4, Type 0, BuildingBlock: BELTOD_clean_linker_0, # of connection points: 3
#     Node 5, Type 0, BuildingBlock: BELTOD_clean_linker_0, # of connection points: 3
#     Node 6, Type 0, BuildingBlock: BELTOD_clean_linker_0, # of connection points: 3
#     Node 7, Type 0, BuildingBlock: BELTOD_clean_linker_0, # of connection points: 3
#     Node 8, Type 0, BuildingBlock: BELTOD_clean_linker_0, # of connection points: 3
#     Node 9, Type 0, BuildingBlock: BELTOD_clean_linker_0, # of connection points: 3
#     Node 10, Type 0, BuildingBlock: BELTOD_clean_linker_0, # of connection points: 3
#     Node 11, Type 0, BuildingBlock: BELTOD_clean_linker_0, # of connection points: 3
#     Node 12, Type 0, BuildingBlock: BELTOD_clean_linker_0, # of connection points: 3
#     Node 13, Type 0, BuildingBlock: BELTOD_clean_linker_0, # of connection points: 3
#     Node 14, Type 0, BuildingBlock: BELTOD_clean_linker_0, # of connection points: 3
#     Node 15, Type 0, BuildingBlock: BELTOD_clean_linker_0, # of connection points: 3
#     Node 16, Type 0, BuildingBlock: BELTOD_clean_linker_0, # of connection points: 3
#     Node 17, Type 0, BuildingBlock: BELTOD_clean_linker_0, # of connection points: 3
#     Node 18, Type 0, BuildingBlock: BELTOD_clean_linker_0, # of connection points: 3
#     Node 19, Type 0, BuildingBlock: BELTOD_clean_linker_0, # of connection points: 3
#     Node 20, Type 0, BuildingBlock: BELTOD_clean_linker_0, # of connection points: 3
#     Node 21, Type 0, BuildingBlock: BELTOD_clean_linker_0, # of connection points: 3
#     Node 22, Type 0, BuildingBlock: BELTOD_clean_linker_0, # of connection points: 3
#     Node 23, Type 0, BuildingBlock: BELTOD_clean_linker_0, # of connection points: 3
#     Node 24, Type 1, BuildingBlock: EZIPEK_clean_sbu_0, # of connection points: 12
#     Node 25, Type 1, BuildingBlock: EZIPEK_clean_sbu_0, # of connection points: 12
#     Node 26, Type 1, BuildingBlock: EZIPEK_clean_sbu_0, # of connection points: 12
#     Node 27, Type 1, BuildingBlock: EZIPEK_clean_sbu_0, # of connection points: 12
#     Node 28, Type 1, BuildingBlock: EZIPEK_clean_sbu_0, # of connection points: 12
#     Node 29, Type 1, BuildingBlock: EZIPEK_clean_sbu_0, # of connection points: 12
#     Edge 30, Type (0, 1), BuildingBlock: XIVTED_clean_linker_0, # of connection points: 2
#     Edge 31, Type (0, 1), BuildingBlock: XIVTED_clean_linker_0, # of connection points: 2
#     Edge 32, Type (0, 1), BuildingBlock: XIVTED_clean_linker_0, # of connection points: 2
#     Edge 33, Type (0, 1), BuildingBlock: XIVTED_clean_linker_0, # of connection points: 2
#     Edge 34, Type (0, 1), BuildingBlock: XIVTED_clean_linker_0, # of connection points: 2
#     Edge 35, Type (0, 1), BuildingBlock: XIVTED_clean_linker_0, # of connection points: 2
#     Edge 36, Type (0, 1), BuildingBlock: XIVTED_clean_linker_0, # of connection points: 2
#     Edge 37, Type (0, 1), BuildingBlock: XIVTED_clean_linker_0, # of connection points: 2
#     Edge 38, Type (0, 1), BuildingBlock: XIVTED_clean_linker_0, # of connection points: 2
#     Edge 39, Type (0, 1), BuildingBlock: XIVTED_clean_linker_0, # of connection points: 2
#     Edge 40, Type (0, 1), BuildingBlock: XIVTED_clean_linker_0, # of connection points: 2
#     Edge 41, Type (0, 1), BuildingBlock: XIVTED_clean_linker_0, # of connection points: 2
#     Edge 42, Type (0, 1), BuildingBlock: XIVTED_clean_linker_0, # of connection points: 2
#     Edge 43, Type (0, 1), BuildingBlock: XIVTED_clean_linker_0, # of connection points: 2
#     Edge 44, Type (0, 1), BuildingBlock: XIVTED_clean_linker_0, # of connection points: 2
#     Edge 45, Type (0, 1), BuildingBlock: XIVTED_clean_linker_0, # of connection points: 2
#     Edge 46, Type (0, 1), BuildingBlock: XIVTED_clean_linker_0, # of connection points: 2
#     Edge 47, Type (0, 1), BuildingBlock: XIVTED_clean_linker_0, # of connection points: 2
#     Edge 48, Type (0, 1), BuildingBlock: XIVTED_clean_linker_0, # of connection points: 2
#     Edge 49, Type (0, 1), BuildingBlock: XIVTED_clean_linker_0, # of connection points: 2
#     Edge 50, Type (0, 1), BuildingBlock: XIVTED_clean_linker_0, # of connection points: 2
#     Edge 51, Type (0, 1), BuildingBlock: XIVTED_clean_linker_0, # of connection points: 2
#     Edge 52, Type (0, 1), BuildingBlock: XIVTED_clean_linker_0, # of connection points: 2
#     Edge 53, Type (0, 1), BuildingBlock: XIVTED_clean_linker_0, # of connection points: 2
#     Edge 54, Type (0, 1), BuildingBlock: XIVTED_clean_linker_0, # of connection points: 2
#     Edge 55, Type (0, 1), BuildingBlock: XIVTED_clean_linker_0, # of connection points: 2
#     Edge 56, Type (0, 1), BuildingBlock: XIVTED_clean_linker_0, # of connection points: 2
#     Edge 57, Type (0, 1), BuildingBlock: XIVTED_clean_linker_0, # of connection points: 2
#     Edge 58, Type (0, 1), BuildingBlock: XIVTED_clean_linker_0, # of connection points: 2
#     Edge 59, Type (0, 1), BuildingBlock: XIVTED_clean_linker_0, # of connection points: 2
#     Edge 60, Type (0, 1), BuildingBlock: XIVTED_clean_linker_0, # of connection points: 2
#     Edge 61, Type (0, 1), BuildingBlock: XIVTED_clean_linker_0, # of connection points: 2
#     Edge 62, Type (0, 1), BuildingBlock: XIVTED_clean_linker_0, # of connection points: 2
#     Edge 63, Type (0, 1), BuildingBlock: XIVTED_clean_linker_0, # of connection points: 2
#     Edge 64, Type (0, 1), BuildingBlock: XIVTED_clean_linker_0, # of connection points: 2
#     Edge 65, Type (0, 1), BuildingBlock: XIVTED_clean_linker_0, # of connection points: 2
#     Edge 66, Type (0, 1), BuildingBlock: XIVTED_clean_linker_0, # of connection points: 2
#     Edge 67, Type (0, 1), BuildingBlock: XIVTED_clean_linker_0, # of connection points: 2
#     Edge 68, Type (0, 1), BuildingBlock: XIVTED_clean_linker_0, # of connection points: 2
#     Edge 69, Type (0, 1), BuildingBlock: XIVTED_clean_linker_0, # of connection points: 2
#     Edge 70, Type (0, 1), BuildingBlock: XIVTED_clean_linker_0, # of connection points: 2
#     Edge 71, Type (0, 1), BuildingBlock: XIVTED_clean_linker_0, # of connection points: 2
#     Edge 72, Type (0, 1), BuildingBlock: XIVTED_clean_linker_0, # of connection points: 2
#     Edge 73, Type (0, 1), BuildingBlock: XIVTED_clean_linker_0, # of connection points: 2
#     Edge 74, Type (0, 1), BuildingBlock: XIVTED_clean_linker_0, # of connection points: 2
#     Edge 75, Type (0, 1), BuildingBlock: XIVTED_clean_linker_0, # of connection points: 2
#     Edge 76, Type (0, 1), BuildingBlock: XIVTED_clean_linker_0, # of connection points: 2
#     Edge 77, Type (0, 1), BuildingBlock: XIVTED_clean_linker_0, # of connection points: 2
#     Edge 78, Type (0, 1), BuildingBlock: XIVTED_clean_linker_0, # of connection points: 2
#     Edge 79, Type (0, 1), BuildingBlock: XIVTED_clean_linker_0, # of connection points: 2
#     Edge 80, Type (0, 1), BuildingBlock: XIVTED_clean_linker_0, # of connection points: 2
#     Edge 81, Type (0, 1), BuildingBlock: XIVTED_clean_linker_0, # of connection points: 2
#     Edge 82, Type (0, 1), BuildingBlock: XIVTED_clean_linker_0, # of connection points: 2
#     Edge 83, Type (0, 1), BuildingBlock: XIVTED_clean_linker_0, # of connection points: 2
#     Edge 84, Type (0, 1), BuildingBlock: XIVTED_clean_linker_0, # of connection points: 2
#     Edge 85, Type (0, 1), BuildingBlock: XIVTED_clean_linker_0, # of connection points: 2
#     Edge 86, Type (0, 1), BuildingBlock: XIVTED_clean_linker_0, # of connection points: 2
#     Edge 87, Type (0, 1), BuildingBlock: XIVTED_clean_linker_0, # of connection points: 2
#     Edge 88, Type (0, 1), BuildingBlock: XIVTED_clean_linker_0, # of connection points: 2
#     Edge 89, Type (0, 1), BuildingBlock: XIVTED_clean_linker_0, # of connection points: 2
#     Edge 90, Type (0, 1), BuildingBlock: XIVTED_clean_linker_0, # of connection points: 2
#     Edge 91, Type (0, 1), BuildingBlock: XIVTED_clean_linker_0, # of connection points: 2
#     Edge 92, Type (0, 1), BuildingBlock: XIVTED_clean_linker_0, # of connection points: 2
#     Edge 93, Type (0, 1), BuildingBlock: XIVTED_clean_linker_0, # of connection points: 2
#     Edge 94, Type (0, 1), BuildingBlock: XIVTED_clean_linker_0, # of connection points: 2
#     Edge 95, Type (0, 1), BuildingBlock: XIVTED_clean_linker_0, # of connection points: 2
#     Edge 96, Type (0, 1), BuildingBlock: XIVTED_clean_linker_0, # of connection points: 2
#     Edge 97, Type (0, 1), BuildingBlock: XIVTED_clean_linker_0, # of connection points: 2
#     Edge 98, Type (0, 1), BuildingBlock: XIVTED_clean_linker_0, # of connection points: 2
#     Edge 99, Type (0, 1), BuildingBlock: XIVTED_clean_linker_0, # of connection points: 2
#     Edge 100, Type (0, 1), BuildingBlock: XIVTED_clean_linker_0, # of connection points: 2
#     Edge 101, Type (0, 1), BuildingBlock: XIVTED_clean_linker_0, # of connection points: 2
# Relax obj value: 0.096
# Max RMSD: 0.146
# Mean RMSD: 0.122
data_MOF--net-llk--node1-EZIPEK_clean_sbu_0--node2-BELTOD_clean_linker_0--edge1-XIVTED_clean_linker_0
_symmetry_space_group_name_H-M    P1
_symmetry_Int_Tables_number       1
_symmetry_cell_setting            triclinic
loop_
_symmetry_equiv_pos_as_xyz
'x, y, z'
_cell_length_a     52.912732
_cell_length_b     53.048982
_cell_length_c     52.817105
_cell_angle_alpha  90.024039
_cell_angle_beta   90.047986
_cell_angle_gamma 89.996923
loop_
_atom_site_label
_atom_site_type_symbol
_atom_site_fract_x
_atom_site_fract_y
_atom_site_fract_z
_atom_type_partial_charge
P0 P 0.94721 0.25228 0.25176 0.0
H1 H 0.94078 0.25411 0.19676 0.0
H2 H 0.95699 0.28361 0.16531 0.0
H3 H 0.00919 0.3135 0.22061 0.0
H4 H 0.99287 0.28378 0.25206 0.0
H5 H 0.92116 0.20952 0.27333 0.0
H6 H 0.93522 0.17685 0.30248 0.0
H7 H 0.01276 0.19863 0.28991 0.0
H8 H 0.99847 0.23181 0.26064 0.0
H9 H 0.92962 0.30422 0.25384 0.0
H10 H 0.96235 0.25041 0.30575 0.0
O11 O 0.91779 0.24786 0.24124 0.0
H12 H 0.93295 0.33701 0.28636 0.0
H13 H 0.96616 0.28282 0.33762 0.0
C14 C 0.96538 0.26692 0.22685 0.0
C15 C 0.95628 0.26641 0.20193 0.0
C16 C 0.96555 0.2834 0.18393 0.0
C17 C 0.98406 0.30129 0.19058 0.0
C18 C 0.99459 0.30031 0.21504 0.0
C19 C 0.98546 0.28311 0.23295 0.0
C20 C 0.95877 0.22288 0.26443 0.0
C21 C 0.94127 0.20671 0.27595 0.0
C22 C 0.94928 0.18822 0.29292 0.0
C23 C 0.97503 0.18545 0.2987 0.0
C24 C 0.9928 0.20033 0.2857 0.0
C25 C 0.98468 0.21913 0.2688 0.0
C26 C 0.94583 0.27488 0.27718 0.0
C27 C 0.93716 0.29936 0.27228 0.0
C28 C 0.93927 0.3181 0.29077 0.0
C29 C 0.94996 0.31252 0.3145 0.0
C30 C 0.95758 0.28769 0.31966 0.0
C31 C 0.95553 0.26906 0.3012 0.0
P32 P 0.75617 0.9489 0.25329 0.0
H33 H 0.72975 0.91964 0.21574 0.0
H34 H 0.70017 0.93182 0.1827 0.0
H35 H 0.72207 0.00967 0.19185 0.0
H36 H 0.75205 0.99722 0.22528 0.0
H37 H 0.81074 0.94029 0.25421 0.0
H38 H 0.8435 0.95671 0.28223 0.0
H39 H 0.79149 0.01316 0.3098 0.0
H40 H 0.75873 0.99655 0.28165 0.0
H41 H 0.74838 0.92671 0.30327 0.0
H42 H 0.70852 0.97769 0.25358 0.0
O43 O 0.76503 0.91873 0.25195 0.0
H44 H 0.7153 0.93239 0.33533 0.0
H45 H 0.67609 0.98347 0.28514 0.0
C46 C 0.74338 0.95745 0.2228 0.0
C47 C 0.72908 0.93922 0.21 0.0
C48 C 0.71183 0.94625 0.19133 0.0
C49 C 0.70844 0.97174 0.18506 0.0
C50 C 0.72432 0.98987 0.19632 0.0
C51 C 0.74163 0.98277 0.21522 0.0
C52 C 0.78216 0.96692 0.26607 0.0
C53 C 0.80659 0.95672 0.26564 0.0
C54 C 0.82535 0.96614 0.28177 0.0
C55 C 0.81997 0.98594 0.29869 0.0
C56 C 0.79608 0.99754 0.29742 0.0
C57 C 0.7774 0.98822 0.28111 0.0
C58 C 0.73073 0.95125 0.27576 0.0
C59 C 0.73241 0.93878 0.29909 0.0
C60 C 0.71365 0.94219 0.31742 0.0
C61 C 0.69299 0.95818 0.3126 0.0
C62 C 0.69145 0.97057 0.28919 0.0
C63 C 0.71017 0.96726 0.27104 0.0
P64 P 0.05435 0.75459 0.24916 0.0
H65 H 0.05437 0.76392 0.19452 0.0
H66 H 0.03879 0.73842 0.15928 0.0
H67 H 0.99945 0.69041 0.21247 0.0
H68 H 0.01332 0.71679 0.24676 0.0
H69 H 0.08451 0.79188 0.27474 0.0
H70 H 0.07329 0.82538 0.3041 0.0
H71 H 0.99461 0.8163 0.28451 0.0
H72 H 0.00609 0.78246 0.25471 0.0
H73 H 0.08738 0.71328 0.266 0.0
H74 H 0.01683 0.74721 0.28892 0.0
O75 O 0.08425 0.75601 0.23918 0.0
H76 H 0.08216 0.68092 0.29892 0.0
H77 H 0.01146 0.71483 0.32112 0.0
C78 C 0.0356 0.74206 0.22344 0.0
C79 C 0.0416 0.74845 0.19842 0.0
C80 C 0.03299 0.7335 0.17829 0.0
C81 C 0.01851 0.71162 0.18288 0.0
C82 C 0.01053 0.70691 0.20785 0.0
C83 C 0.01876 0.7221 0.22781 0.0
C84 C 0.04618 0.78485 0.26229 0.0
C85 C 0.06492 0.79769 0.2759 0.0
C86 C 0.05846 0.81664 0.29298 0.0
C87 C 0.03305 0.82312 0.29691 0.0
C88 C 0.01436 0.81168 0.2818 0.0
C89 C 0.0209 0.79251 0.26465 0.0
C90 C 0.05269 0.73288 0.27524 0.0
C91 C 0.07106 0.71407 0.27833 0.0
C92 C 0.06808 0.69562 0.29701 0.0
C93 C 0.04639 0.69555 0.31229 0.0
C94 C 0.0283 0.71461 0.30946 0.0
C95 C 0.03152 0.73324 0.29121 0.0
P96 P 0.24987 0.93895 0.25007 0.0
H97 H 0.20393 0.91475 0.26782 0.0
H98 H 0.17115 0.92934 0.29645 0.0
H99 H 0.19793 0.00569 0.28843 0.0
H100 H 0.23106 0.99108 0.2598 0.0
H101 H 0.28216 0.91274 0.21516 0.0
H102 H 0.31197 0.92722 0.18349 0.0
H103 H 0.28253 0.00277 0.19018 0.0
H104 H 0.25214 0.98804 0.22205 0.0
H105 H 0.27588 0.90733 0.2877 0.0
H106 H 0.27425 0.98571 0.26578 0.0
O107 O 0.24656 0.9077 0.24798 0.0
H108 H 0.30688 0.91731 0.32076 0.0
H109 H 0.30442 0.99574 0.29912 0.0
C110 C 0.22024 0.9517 0.26142 0.0
C111 C 0.2024 0.93479 0.27133 0.0
C112 C 0.18371 0.94309 0.28798 0.0
C113 C 0.18232 0.96855 0.29501 0.0
C114 C 0.19861 0.98592 0.28332 0.0
C115 C 0.21756 0.97753 0.26677 0.0
C116 C 0.26459 0.94917 0.22098 0.0
C117 C 0.28133 0.93228 0.20931 0.0
C118 C 0.2987 0.94063 0.19139 0.0
C119 C 0.29989 0.96619 0.18473 0.0
C120 C 0.28202 0.98294 0.19503 0.0
C121 C 0.26457 0.9745 0.21322 0.0
C122 C 0.27264 0.9458 0.27434 0.0
C123 C 0.28206 0.92664 0.29 0.0
C124 C 0.29973 0.93233 0.30885 0.0
C125 C 0.30779 0.9573 0.3125 0.0
C126 C 0.29821 0.9764 0.29688 0.0
C127 C 0.28094 0.97065 0.27782 0.0
P128 P 0.95063 0.7559 0.75623 0.0
H129 H 0.94713 0.75328 0.81148 0.0
H130 H 0.96383 0.72254 0.84146 0.0
H131 H 0.01199 0.69202 0.78299 0.0
H132 H 0.9952 0.72302 0.75303 0.0
H133 H 0.92515 0.80028 0.73731 0.0
H134 H 0.93831 0.83224 0.707 0.0
H135 H 0.01537 0.80628 0.71275 0.0
H136 H 0.00196 0.77378 0.74318 0.0
H137 H 0.93239 0.70414 0.7554 0.0
H138 H 0.96059 0.75807 0.70104 0.0
O139 O 0.92213 0.76149 0.76854 0.0
H140 H 0.93354 0.6713 0.72283 0.0
H141 H 0.96235 0.72559 0.6691 0.0
C142 C 0.96969 0.74031 0.77992 0.0
C143 C 0.9619 0.74057 0.80528 0.0
C144 C 0.97145 0.72286 0.82244 0.0
C145 C 0.98891 0.70446 0.8145 0.0
C146 C 0.99821 0.70561 0.78957 0.0
C147 C 0.98884 0.72355 0.77251 0.0
C148 C 0.96261 0.78485 0.74289 0.0
C149 C 0.94507 0.80202 0.73296 0.0
C150 C 0.95254 0.82011 0.71533 0.0
C151 C 0.97777 0.8215 0.7073 0.0
C152 C 0.9958 0.80564 0.71872 0.0
C153 C 0.98821 0.78724 0.73627 0.0
C154 C 0.94672 0.73351 0.7309 0.0
C155 C 0.93844 0.70903 0.73643 0.0
C156 C 0.93929 0.69026 0.71789 0.0
C157 C 0.94829 0.6958 0.69347 0.0
C158 C 0.95512 0.72071 0.68764 0.0
C159 C 0.95431 0.73938 0.70615 0.0
P160 P 0.25143 0.93797 0.75661 0.0
H161 H 0.28211 0.91146 0.79282 0.0
H162 H 0.31081 0.92595 0.82555 0.0
H163 H 0.28111 0.00137 0.81829 0.0
H164 H 0.25167 0.98651 0.78543 0.0
H165 H 0.20415 0.91491 0.74046 0.0
H166 H 0.17231 0.92909 0.71043 0.0
H167 H 0.20347 0.00416 0.7127 0.0
H168 H 0.23597 0.98979 0.74253 0.0
H169 H 0.27173 0.90939 0.71364 0.0
H170 H 0.28267 0.98252 0.74776 0.0
O171 O 0.24791 0.90671 0.75797 0.0
H172 H 0.30357 0.91962 0.6816 0.0
H173 H 0.31406 0.99283 0.71594 0.0
C174 C 0.26453 0.94781 0.78664 0.0
C175 C 0.28093 0.93095 0.79881 0.0
C176 C 0.29769 0.93933 0.81733 0.0
C177 C 0.29864 0.96489 0.82407 0.0
C178 C 0.28083 0.98154 0.81341 0.0
C179 C 0.2639 0.97304 0.79471 0.0
C180 C 0.22258 0.95124 0.74399 0.0
C181 C 0.20379 0.93465 0.73533 0.0
C182 C 0.18564 0.94269 0.71791 0.0
C183 C 0.18569 0.96759 0.70897 0.0
C184 C 0.20302 0.98485 0.71933 0.0
C185 C 0.22149 0.97666 0.73659 0.0
C186 C 0.27528 0.94492 0.73349 0.0
C187 C 0.28109 0.92752 0.7144 0.0
C188 C 0.29913 0.93345 0.69601 0.0
C189 C 0.31146 0.95693 0.69646 0.0
C190 C 0.30529 0.97439 0.71545 0.0
C191 C 0.28728 0.96847 0.73369 0.0
P192 P 0.05985 0.25265 0.75676 0.0
H193 H 0.07315 0.25474 0.81046 0.0
H194 H 0.05675 0.28126 0.84434 0.0
H195 H 0.99233 0.30037 0.79788 0.0
H196 H 0.00887 0.27365 0.76398 0.0
H197 H 0.08811 0.22453 0.72036 0.0
H198 H 0.0775 0.19045 0.69218 0.0
H199 H 0.00639 0.18033 0.73143 0.0
H200 H 0.01687 0.21631 0.7588 0.0
H201 H 0.08237 0.30188 0.74617 0.0
H202 H 0.02272 0.25534 0.71581 0.0
O203 O 0.09064 0.25352 0.76363 0.0
H204 H 0.07288 0.33428 0.71449 0.0
H205 H 0.01305 0.28749 0.6845 0.0
C206 C 0.0425 0.2625 0.78448 0.0
C207 C 0.05503 0.26385 0.80784 0.0
C208 C 0.04562 0.27914 0.82726 0.0
C209 C 0.02352 0.29345 0.82361 0.0
C210 C 0.00971 0.29005 0.80108 0.0
C211 C 0.01904 0.27454 0.78175 0.0
C212 C 0.05357 0.22262 0.74206 0.0
C213 C 0.07052 0.21454 0.72344 0.0
C214 C 0.06435 0.19478 0.70723 0.0
C215 C 0.04105 0.18213 0.70935 0.0
C216 C 0.02439 0.18966 0.72887 0.0
C217 C 0.03049 0.20996 0.74491 0.0
C218 C 0.05377 0.27594 0.73285 0.0
C219 C 0.06744 0.29853 0.73254 0.0
C220 C 0.06186 0.31708 0.71461 0.0
C221 C 0.04238 0.31328 0.69686 0.0
C222 C 0.02853 0.29072 0.69753 0.0
C223 C 0.03408 0.27229 0.71546 0.0
P224 P 0.75458 0.05166 0.75539 0.0
H225 H 0.75069 0.06494 0.80897 0.0
H226 H 0.7229 0.04933 0.84217 0.0
H227 H 0.70178 0.98648 0.79469 0.0
H228 H 0.72986 0.00203 0.76156 0.0
H229 H 0.79677 0.07862 0.73341 0.0
H230 H 0.83081 0.06556 0.70547 0.0
H231 H 0.80965 0.9877 0.71596 0.0
H232 H 0.77591 0.0009 0.74514 0.0
H233 H 0.71509 0.08713 0.7392 0.0
H234 H 0.74083 0.01264 0.71857 0.0
O235 O 0.7585 0.08181 0.76362 0.0
H236 H 0.68054 0.08342 0.70827 0.0
H237 H 0.70626 0.00877 0.68862 0.0
C238 C 0.74207 0.035 0.78245 0.0
C239 C 0.74074 0.04737 0.80589 0.0
C240 C 0.72476 0.03841 0.82494 0.0
C241 C 0.7097 0.01695 0.82085 0.0
C242 C 0.71273 0.00338 0.79819 0.0
C243 C 0.72895 0.01222 0.77924 0.0
C244 C 0.78378 0.04076 0.74155 0.0
C245 C 0.79991 0.05865 0.73058 0.0
C246 C 0.81934 0.05118 0.71442 0.0
C247 C 0.82272 0.02564 0.70837 0.0
C248 C 0.80729 0.00754 0.72018 0.0
C249 C 0.78815 0.01506 0.73696 0.0
C250 C 0.73078 0.05028 0.73109 0.0
C251 C 0.71356 0.07015 0.72793 0.0
C252 C 0.69384 0.06804 0.71039 0.0
C253 C 0.69085 0.04575 0.69638 0.0
C254 C 0.70818 0.02605 0.69942 0.0
C255 C 0.72806 0.02837 0.71648 0.0
P256 P 0.25092 0.2531 0.95346 0.0
H257 H 0.24639 0.19811 0.9537 0.0
H258 H 0.27499 0.1652 0.96841 0.0
H259 H 0.32184 0.22196 0.00402 0.0
H260 H 0.29197 0.25427 0.99103 0.0
H261 H 0.19824 0.26089 0.93901 0.0
H262 H 0.16583 0.28856 0.9562 0.0
H263 H 0.21294 0.3035 0.0213 0.0
H264 H 0.24543 0.27528 0.00401 0.0
H265 H 0.30264 0.25308 0.93421 0.0
H266 H 0.24775 0.30872 0.95728 0.0
O267 O 0.24135 0.24134 0.92575 0.0
H268 H 0.33544 0.28553 0.93391 0.0
H269 H 0.28036 0.34071 0.95809 0.0
C270 C 0.26749 0.22869 0.97056 0.0
C271 C 0.26244 0.20333 0.9653 0.0
C272 C 0.27913 0.18454 0.97344 0.0
C273 C 0.30148 0.19083 0.98659 0.0
C274 C 0.30506 0.21615 0.99385 0.0
C275 C 0.28799 0.23482 0.98624 0.0
C276 C 0.22421 0.2659 0.97029 0.0
C277 C 0.20129 0.26929 0.95744 0.0
C278 C 0.18273 0.28523 0.96728 0.0
C279 C 0.18694 0.29843 0.98999 0.0
C280 C 0.20928 0.29374 0.00366 0.0
C281 C 0.2277 0.27738 0.99398 0.0
C282 C 0.27303 0.27815 0.947 0.0
C283 C 0.29758 0.27228 0.93899 0.0
C284 C 0.31633 0.29081 0.93898 0.0
C285 C 0.31069 0.31556 0.94669 0.0
C286 C 0.28547 0.32183 0.9522 0.0
C287 C 0.26676 0.30333 0.95211 0.0
P288 P 0.25089 0.75772 0.9497 0.0
H289 H 0.21459 0.7302 0.91997 0.0
H290 H 0.1819 0.70026 0.9318 0.0
H291 H 0.18928 0.72281 0.00999 0.0
H292 H 0.22231 0.75319 0.99787 0.0
H293 H 0.25234 0.81208 0.94066 0.0
H294 H 0.28048 0.84451 0.95728 0.0
H295 H 0.30619 0.79294 0.0151 0.0
H296 H 0.2779 0.76051 0.99833 0.0
H297 H 0.29991 0.74945 0.92558 0.0
H298 H 0.2531 0.71179 0.98077 0.0
O299 O 0.24954 0.76664 0.91942 0.0
H300 H 0.33241 0.71689 0.93121 0.0
H301 H 0.28507 0.67982 0.98645 0.0
C302 C 0.22071 0.74421 0.95796 0.0
C303 C 0.20855 0.72955 0.93954 0.0
C304 C 0.19009 0.71209 0.94638 0.0
C305 C 0.1834 0.70881 0.97188 0.0
C306 C 0.19408 0.72495 0.99018 0.0
C307 C 0.21276 0.74249 0.98326 0.0
C308 C 0.26324 0.78373 0.96798 0.0
C309 C 0.26335 0.80798 0.95746 0.0
C310 C 0.27956 0.82655 0.96698 0.0
C311 C 0.29604 0.82116 0.9872 0.0
C312 C 0.29416 0.79753 0.99916 0.0
C313 C 0.27776 0.77904 0.98973 0.0
C314 C 0.27374 0.73274 0.95216 0.0
C315 C 0.29643 0.73404 0.93856 0.0
C316 C 0.31503 0.71559 0.94194 0.0
C317 C 0.3111 0.69567 0.95905 0.0
C318 C 0.28838 0.69458 0.97268 0.0
C319 C 0.26998 0.71299 0.96938 0.0
P320 P 0.75428 0.25013 0.94963 0.0
H321 H 0.79027 0.27881 0.92071 0.0
H322 H 0.82316 0.30833 0.93316 0.0
H323 H 0.81575 0.2843 0.01088 0.0
H324 H 0.78253 0.25433 0.99812 0.0
H325 H 0.75295 0.19595 0.93943 0.0
H326 H 0.72514 0.16307 0.95559 0.0
H327 H 0.69982 0.21331 0.01475 0.0
H328 H 0.72777 0.24621 0.99841 0.0
H329 H 0.7059 0.25843 0.92412 0.0
H330 H 0.75029 0.2948 0.9822 0.0
O331 O 0.7561 0.24161 0.91925 0.0
H332 H 0.67275 0.29033 0.92968 0.0
H333 H 0.7176 0.32613 0.98788 0.0
C334 C 0.78415 0.26407 0.9584 0.0
C335 C 0.7963 0.2791 0.9403 0.0
C336 C 0.81488 0.2963 0.9475 0.0
C337 C 0.82171 0.29898 0.97305 0.0
C338 C 0.81089 0.28261 0.99103 0.0
C339 C 0.79207 0.26533 0.98375 0.0
C340 C 0.74222 0.2237 0.96745 0.0
C341 C 0.7421 0.19967 0.9564 0.0
C342 C 0.72608 0.18083 0.96567 0.0
C343 C 0.7098 0.18572 0.98615 0.0
C344 C 0.7117 0.20911 0.9986 0.0
C345 C 0.72791 0.22787 0.98942 0.0
C346 C 0.73092 0.27462 0.95216 0.0
C347 C 0.7087 0.27343 0.93775 0.0
C348 C 0.68972 0.29149 0.9411 0.0
C349 C 0.69275 0.31089 0.959 0.0
C350 C 0.71498 0.31181 0.97349 0.0
C351 C 0.73378 0.2938 0.9702 0.0
P352 P 0.75591 0.75367 0.053 0.0
H353 H 0.80865 0.74693 0.06803 0.0
H354 H 0.84172 0.7195 0.05169 0.0
H355 H 0.79542 0.70235 0.98655 0.0
H356 H 0.76227 0.73015 0.00301 0.0
H357 H 0.75267 0.80804 0.06217 0.0
H358 H 0.72277 0.83964 0.04714 0.0
H359 H 0.69337 0.78631 0.99273 0.0
H360 H 0.72326 0.75464 0.0081 0.0
H361 H 0.75837 0.69802 0.05028 0.0
H362 H 0.70258 0.75499 0.06702 0.0
O363 O 0.7647 0.76392 0.08157 0.0
H364 H 0.72539 0.66639 0.04773 0.0
H365 H 0.66942 0.72303 0.06574 0.0
C366 C 0.78295 0.74069 0.03674 0.0
C367 C 0.80587 0.73803 0.0498 0.0
C368 C 0.82482 0.72224 0.04043 0.0
C369 C 0.82107 0.70851 0.01796 0.0
C370 C 0.79874 0.71248 0.00405 0.0
C371 C 0.77991 0.72864 0.01327 0.0
C372 C 0.74016 0.77892 0.03636 0.0
C373 C 0.74035 0.80333 0.0465 0.0
C374 C 0.72316 0.82143 0.03787 0.0
C375 C 0.70538 0.81539 0.01898 0.0
C376 C 0.70652 0.79143 0.00759 0.0
C377 C 0.72387 0.77341 0.01612 0.0
C378 C 0.73279 0.72916 0.05751 0.0
C379 C 0.73906 0.70377 0.05363 0.0
C380 C 0.72012 0.68551 0.05255 0.0
C381 C 0.69463 0.69227 0.0559 0.0
C382 C 0.68877 0.71734 0.06225 0.0
C383 C 0.70773 0.73561 0.06314 0.0
P384 P 0.45103 0.75262 0.75154 0.0
H385 H 0.44248 0.75496 0.69679 0.0
H386 H 0.45804 0.78409 0.66468 0.0
H387 H 0.51179 0.81415 0.7184 0.0
H388 H 0.49591 0.78506 0.75056 0.0
H389 H 0.43767 0.69957 0.75838 0.0
H390 H 0.45389 0.66765 0.78725 0.0
H391 H 0.51627 0.71645 0.80671 0.0
H392 H 0.49996 0.74843 0.77752 0.0
H393 H 0.43862 0.80632 0.74904 0.0
H394 H 0.45008 0.75052 0.80738 0.0
O395 O 0.42291 0.743 0.74096 0.0
H396 H 0.43947 0.83957 0.78098 0.0
H397 H 0.45217 0.78354 0.83907 0.0
C398 C 0.46794 0.76786 0.72613 0.0
C399 C 0.45811 0.76726 0.70149 0.0
C400 C 0.46705 0.78399 0.6831 0.0
C401 C 0.48592 0.80173 0.68909 0.0
C402 C 0.49697 0.801 0.71331 0.0
C403 C 0.48815 0.7841 0.73162 0.0
C404 C 0.46761 0.72642 0.76569 0.0
C405 C 0.45532 0.70314 0.76812 0.0
C406 C 0.4646 0.68486 0.78475 0.0
C407 C 0.4862 0.68965 0.79951 0.0
C408 C 0.49943 0.71235 0.7958 0.0
C409 C 0.49031 0.73049 0.77884 0.0
C410 C 0.44568 0.77607 0.77563 0.0
C411 C 0.44125 0.80119 0.76871 0.0
C412 C 0.44186 0.8202 0.78698 0.0
C413 C 0.44668 0.81432 0.81249 0.0
C414 C 0.44858 0.78884 0.81961 0.0
C415 C 0.44777 0.76986 0.80134 0.0
P416 P 0.25627 0.44602 0.75104 0.0
H417 H 0.23773 0.4212 0.70564 0.0
H418 H 0.20671 0.43418 0.6741 0.0
H419 H 0.20882 0.51008 0.70338 0.0
H420 H 0.23978 0.49688 0.73541 0.0
H421 H 0.31101 0.43826 0.75337 0.0
H422 H 0.3429 0.45587 0.7816 0.0
H423 H 0.28944 0.51198 0.80693 0.0
H424 H 0.25749 0.49417 0.77857 0.0
H425 H 0.20064 0.44266 0.74885 0.0
H426 H 0.25866 0.44274 0.8064 0.0
O427 O 0.26697 0.41697 0.74532 0.0
H428 H 0.1684 0.44592 0.78132 0.0
H429 H 0.22645 0.4473 0.83898 0.0
C430 C 0.24145 0.45813 0.72273 0.0
C431 C 0.23233 0.44086 0.70479 0.0
C432 C 0.21432 0.44821 0.68693 0.0
C433 C 0.20517 0.47305 0.68651 0.0
C434 C 0.21564 0.49083 0.70326 0.0
C435 C 0.23349 0.48334 0.72144 0.0
C436 C 0.28176 0.46474 0.76396 0.0
C437 C 0.30634 0.45488 0.7643 0.0
C438 C 0.32461 0.46498 0.78055 0.0
C439 C 0.31858 0.48506 0.79688 0.0
C440 C 0.29455 0.49625 0.7949 0.0
C441 C 0.27637 0.48631 0.77839 0.0
C442 C 0.23223 0.44373 0.77507 0.0
C443 C 0.20657 0.44349 0.76842 0.0
C444 C 0.18804 0.44546 0.78707 0.0
C445 C 0.19484 0.44768 0.81272 0.0
C446 C 0.2205 0.44578 0.81942 0.0
C447 C 0.239 0.44346 0.80074 0.0
P448 P 0.56025 0.2549 0.75018 0.0
H449 H 0.58065 0.24396 0.70011 0.0
H450 H 0.56602 0.21513 0.66734 0.0
H451 H 0.49351 0.20981 0.70415 0.0
H452 H 0.50841 0.23847 0.73754 0.0
H453 H 0.58775 0.28942 0.78181 0.0
H454 H 0.57432 0.32262 0.81043 0.0
H455 H 0.49872 0.31843 0.77998 0.0
H456 H 0.51248 0.28485 0.7508 0.0
H457 H 0.58692 0.2089 0.7651 0.0
H458 H 0.51886 0.24838 0.78639 0.0
O459 O 0.59146 0.25589 0.74558 0.0
H460 H 0.578 0.17669 0.79713 0.0
H461 H 0.5099 0.21647 0.8181 0.0
C462 C 0.5457 0.24341 0.72146 0.0
C463 C 0.56129 0.2374 0.70085 0.0
C464 C 0.553 0.22073 0.68213 0.0
C465 C 0.52881 0.20999 0.68346 0.0
C466 C 0.51226 0.21789 0.70271 0.0
C467 C 0.52072 0.2344 0.7217 0.0
C468 C 0.55123 0.28477 0.76389 0.0
C469 C 0.56847 0.29615 0.7805 0.0
C470 C 0.5607 0.31496 0.79717 0.0
C471 C 0.53539 0.3228 0.79778 0.0
C472 C 0.51838 0.31273 0.7799 0.0
C473 C 0.52624 0.29367 0.76312 0.0
C474 C 0.554 0.23145 0.77389 0.0
C475 C 0.57021 0.21077 0.77678 0.0
C476 C 0.565 0.19231 0.79492 0.0
C477 C 0.54341 0.19427 0.8103 0.0
C478 C 0.52697 0.21477 0.80693 0.0
C479 C 0.53213 0.23308 0.78876 0.0
P480 P 0.75014 0.44673 0.75112 0.0
H481 H 0.69721 0.43252 0.75808 0.0
H482 H 0.66486 0.44862 0.78666 0.0
H483 H 0.71223 0.51258 0.80421 0.0
H484 H 0.74445 0.49654 0.77539 0.0
H485 H 0.77172 0.42036 0.70829 0.0
H486 H 0.79786 0.43462 0.67324 0.0
H487 H 0.78329 0.51197 0.6939 0.0
H488 H 0.75592 0.49753 0.72857 0.0
H489 H 0.7686 0.41332 0.79144 0.0
H490 H 0.78729 0.48653 0.76098 0.0
O491 O 0.74262 0.41631 0.74804 0.0
H492 H 0.80082 0.41915 0.82453 0.0
H493 H 0.81855 0.49245 0.79403 0.0
C494 C 0.72352 0.46303 0.76484 0.0
C495 C 0.70041 0.45038 0.76745 0.0
C496 C 0.68187 0.45962 0.78387 0.0
C497 C 0.68622 0.48162 0.79808 0.0
C498 C 0.70857 0.49531 0.7939 0.0
C499 C 0.72697 0.48618 0.77725 0.0
C500 C 0.76174 0.45785 0.72106 0.0
C501 C 0.77319 0.4404 0.70476 0.0
C502 C 0.78831 0.44857 0.68476 0.0
C503 C 0.79278 0.47438 0.68105 0.0
C504 C 0.78023 0.49195 0.69651 0.0
C505 C 0.76448 0.48371 0.71617 0.0
C506 C 0.77567 0.44933 0.77347 0.0
C507 C 0.77978 0.43041 0.79158 0.0
C508 C 0.79805 0.43374 0.81046 0.0
C509 C 0.81187 0.45629 0.8117 0.0
C510 C 0.80796 0.47497 0.79342 0.0
C511 C 0.79014 0.47146 0.77439 0.0
P512 P 0.44407 0.25557 0.25436 0.0
H513 H 0.43639 0.2528 0.30915 0.0
H514 H 0.45311 0.22364 0.34065 0.0
H515 H 0.50803 0.19691 0.28644 0.0
H516 H 0.49111 0.22623 0.25491 0.0
H517 H 0.41732 0.29843 0.23372 0.0
H518 H 0.43071 0.33147 0.20471 0.0
H519 H 0.50858 0.3101 0.21604 0.0
H520 H 0.49498 0.27662 0.24523 0.0
H521 H 0.42932 0.20277 0.25238 0.0
H522 H 0.45841 0.25829 0.20018 0.0
O523 O 0.41438 0.25922 0.26436 0.0
H524 H 0.43414 0.17021 0.21987 0.0
H525 H 0.46382 0.22608 0.16831 0.0
C526 C 0.46228 0.2415 0.27958 0.0
C527 C 0.45256 0.24128 0.30425 0.0
C528 C 0.46215 0.2245 0.32228 0.0
C529 C 0.48161 0.20756 0.31591 0.0
C530 C 0.49271 0.20935 0.29178 0.0
C531 C 0.48324 0.22633 0.27383 0.0
C532 C 0.45515 0.28525 0.24199 0.0
C533 C 0.43736 0.30141 0.23087 0.0
C534 C 0.445 0.32012 0.21399 0.0
C535 C 0.47063 0.32308 0.20786 0.0
C536 C 0.4887 0.30824 0.22052 0.0
C537 C 0.48097 0.28927 0.23736 0.0
C538 C 0.44371 0.23294 0.22894 0.0
C539 C 0.43643 0.20802 0.2339 0.0
C540 C 0.43939 0.18943 0.2154 0.0
C541 C 0.44957 0.19554 0.19159 0.0
C542 C 0.4557 0.22076 0.18635 0.0
C543 C 0.45277 0.23928 0.20482 0.0
P544 P 0.75098 0.56129 0.25423 0.0
H545 H 0.70517 0.5858 0.23664 0.0
H546 H 0.67225 0.57188 0.20752 0.0
H547 H 0.70083 0.49583 0.21151 0.0
H548 H 0.73427 0.50996 0.24057 0.0
H549 H 0.75461 0.57057 0.30874 0.0
H550 H 0.78374 0.55413 0.34044 0.0
H551 H 0.80846 0.49695 0.28774 0.0
H552 H 0.77914 0.51357 0.25598 0.0
H553 H 0.74684 0.5608 0.19843 0.0
H554 H 0.80604 0.56603 0.25451 0.0
O555 O 0.74592 0.59075 0.26413 0.0
H556 H 0.77834 0.5571 0.16524 0.0
H557 H 0.83768 0.56104 0.22148 0.0
C558 C 0.72203 0.54887 0.24115 0.0
C559 C 0.7039 0.56594 0.23211 0.0
C560 C 0.68522 0.55804 0.21521 0.0
C561 C 0.68419 0.53286 0.20712 0.0
C562 C 0.70117 0.51533 0.21758 0.0
C563 C 0.72016 0.52336 0.23432 0.0
C564 C 0.76483 0.54348 0.27988 0.0
C565 C 0.76563 0.55398 0.30422 0.0
C566 C 0.7824 0.54455 0.32238 0.0
C567 C 0.79879 0.52451 0.31646 0.0
C568 C 0.79641 0.51269 0.29273 0.0
C569 C 0.77938 0.52196 0.27467 0.0
C570 C 0.77403 0.5626 0.22917 0.0
C571 C 0.76658 0.56104 0.20373 0.0
C572 C 0.78468 0.5588 0.18467 0.0
C573 C 0.81056 0.55809 0.1907 0.0
C574 C 0.81794 0.56148 0.21607 0.0
C575 C 0.79982 0.56406 0.23507 0.0
P576 P 0.55985 0.75027 0.25691 0.0
H577 H 0.58578 0.76869 0.30178 0.0
H578 H 0.57248 0.79805 0.33449 0.0
H579 H 0.49507 0.79048 0.30999 0.0
H580 H 0.50856 0.76103 0.27671 0.0
H581 H 0.58126 0.70067 0.24619 0.0
H582 H 0.56823 0.66809 0.21637 0.0
H583 H 0.49576 0.70431 0.20787 0.0
H584 H 0.50916 0.73758 0.2373 0.0
H585 H 0.54794 0.80468 0.25977 0.0
H586 H 0.56337 0.74939 0.20173 0.0
O587 O 0.59097 0.74588 0.25965 0.0
H588 H 0.53904 0.83593 0.2276 0.0
H589 H 0.5554 0.78113 0.16924 0.0
C590 C 0.54819 0.76234 0.28676 0.0
C591 C 0.56579 0.77244 0.30389 0.0
C592 C 0.55822 0.78954 0.32248 0.0
C593 C 0.53282 0.79688 0.3245 0.0
C594 C 0.51478 0.78511 0.30886 0.0
C595 C 0.52245 0.76806 0.28998 0.0
C596 C 0.54618 0.72165 0.2442 0.0
C597 C 0.56223 0.70131 0.23869 0.0
C598 C 0.55486 0.68272 0.22144 0.0
C599 C 0.53113 0.68388 0.2096 0.0
C600 C 0.51414 0.70294 0.21682 0.0
C601 C 0.52169 0.72182 0.23388 0.0
C602 C 0.55542 0.7743 0.23323 0.0
C603 C 0.54939 0.79911 0.24014 0.0
C604 C 0.5446 0.8172 0.22163 0.0
C605 C 0.54624 0.81098 0.19581 0.0
C606 C 0.55339 0.78638 0.18895 0.0
C607 C 0.55805 0.76824 0.20753 0.0
P608 P 0.25378 0.55485 0.25629 0.0
H609 H 0.24704 0.56894 0.30937 0.0
H610 H 0.21866 0.55287 0.34182 0.0
H611 H 0.20026 0.48938 0.29403 0.0
H612 H 0.2289 0.50561 0.26149 0.0
H613 H 0.30827 0.56395 0.25292 0.0
H614 H 0.33994 0.54865 0.22315 0.0
H615 H 0.28647 0.49416 0.19432 0.0
H616 H 0.25472 0.50983 0.22401 0.0
H617 H 0.19802 0.5549 0.25897 0.0
H618 H 0.2555 0.56728 0.20238 0.0
O619 O 0.26423 0.58306 0.26556 0.0
H620 H 0.166 0.5529 0.22611 0.0
H621 H 0.22325 0.5664 0.16933 0.0
C622 C 0.2402 0.53847 0.28297 0.0
C623 C 0.23764 0.5511 0.30614 0.0
C624 C 0.22131 0.54189 0.32474 0.0
C625 C 0.20695 0.52 0.32038 0.0
C626 C 0.21085 0.50645 0.29781 0.0
C627 C 0.2275 0.51552 0.27934 0.0
C628 C 0.27907 0.53811 0.24068 0.0
C629 C 0.30355 0.54821 0.24075 0.0
C630 C 0.32169 0.53941 0.22365 0.0
C631 C 0.31563 0.52041 0.20606 0.0
C632 C 0.29162 0.50909 0.20733 0.0
C633 C 0.27355 0.51779 0.22458 0.0
C634 C 0.22938 0.55983 0.23301 0.0
C635 C 0.2038 0.5574 0.2395 0.0
C636 C 0.18536 0.55662 0.22063 0.0
C637 C 0.19215 0.55882 0.19499 0.0
C638 C 0.21751 0.56381 0.18884 0.0
C639 C 0.23596 0.56443 0.20773 0.0
P640 P 0.75093 0.75438 0.44905 0.0
H641 H 0.75196 0.69984 0.44078 0.0
H642 H 0.78078 0.66753 0.45635 0.0
H643 H 0.81037 0.72007 0.51141 0.0
H644 H 0.78139 0.75245 0.4956 0.0
H645 H 0.70733 0.77447 0.42276 0.0
H646 H 0.6752 0.80457 0.43587 0.0
H647 H 0.69892 0.79641 0.51361 0.0
H648 H 0.73158 0.76614 0.50025 0.0
H649 H 0.80435 0.75443 0.43575 0.0
H650 H 0.74907 0.80909 0.46044 0.0
O651 O 0.74652 0.74466 0.41932 0.0
H652 H 0.8375 0.7864 0.43949 0.0
H653 H 0.78186 0.84046 0.46483 0.0
C654 C 0.76468 0.72868 0.46681 0.0
C655 C 0.76402 0.70422 0.45676 0.0
C656 C 0.78063 0.68571 0.46568 0.0
C657 C 0.79829 0.69133 0.48482 0.0
C658 C 0.79738 0.71527 0.4963 0.0
C659 C 0.78057 0.73371 0.48749 0.0
C660 C 0.72167 0.76767 0.46055 0.0
C661 C 0.70508 0.77826 0.44277 0.0
C662 C 0.68689 0.79579 0.45023 0.0
C663 C 0.68482 0.8031 0.47569 0.0
C664 C 0.70008 0.79104 0.49386 0.0
C665 C 0.71857 0.77356 0.48629 0.0
C666 C 0.77427 0.77909 0.44826 0.0
C667 C 0.79929 0.77329 0.44177 0.0
C668 C 0.81822 0.7915 0.44408 0.0
C669 C 0.81234 0.81588 0.45272 0.0
C670 C 0.78703 0.82193 0.45795 0.0
C671 C 0.76818 0.80375 0.45566 0.0
P672 P 0.75096 0.25433 0.45345 0.0
H673 H 0.69855 0.24977 0.43658 0.0
H674 H 0.66416 0.2229 0.45098 0.0
H675 H 0.70705 0.2039 0.5179 0.0
H676 H 0.74142 0.23094 0.50346 0.0
H677 H 0.77197 0.29674 0.426 0.0
H678 H 0.7982 0.33196 0.43923 0.0
H679 H 0.7858 0.31231 0.51752 0.0
H680 H 0.75817 0.27745 0.50411 0.0
H681 H 0.77283 0.2161 0.41964 0.0
H682 H 0.78403 0.24199 0.49637 0.0
O683 O 0.74484 0.25673 0.42251 0.0
H684 H 0.80575 0.18413 0.42599 0.0
H685 H 0.81608 0.20992 0.5028 0.0
C686 C 0.72294 0.24202 0.46858 0.0
C687 C 0.70038 0.24042 0.4547 0.0
C688 C 0.68063 0.225 0.46299 0.0
C689 C 0.68308 0.21081 0.48534 0.0
C690 C 0.70483 0.21414 0.50031 0.0
C691 C 0.7245 0.22976 0.49208 0.0
C692 C 0.76303 0.28436 0.46404 0.0
C693 C 0.77396 0.30045 0.44606 0.0
C694 C 0.78914 0.32057 0.45363 0.0
C695 C 0.79424 0.32469 0.47938 0.0
C696 C 0.78231 0.30938 0.49752 0.0
C697 C 0.76647 0.28955 0.48988 0.0
C698 C 0.77594 0.23161 0.45747 0.0
C699 C 0.78235 0.21508 0.43775 0.0
C700 C 0.80111 0.19684 0.44136 0.0
C701 C 0.81321 0.19461 0.46491 0.0
C702 C 0.80681 0.21118 0.48454 0.0
C703 C 0.78849 0.22963 0.48078 0.0
P704 P 0.25498 0.74936 0.45126 0.0
H705 H 0.30907 0.75274 0.43998 0.0
H706 H 0.34157 0.78165 0.45505 0.0
H707 H 0.29069 0.80865 0.51296 0.0
H708 H 0.25807 0.77986 0.4975 0.0
H709 H 0.24857 0.69638 0.43728 0.0
H710 H 0.22045 0.66387 0.45356 0.0
H711 H 0.20157 0.71162 0.51703 0.0
H712 H 0.22993 0.7442 0.50061 0.0
H713 H 0.25733 0.80343 0.44051 0.0
H714 H 0.19923 0.74739 0.45158 0.0
O715 O 0.26438 0.74036 0.42249 0.0
H716 H 0.22544 0.83662 0.44206 0.0
H717 H 0.16756 0.78038 0.45431 0.0
C718 C 0.28108 0.76414 0.46755 0.0
C719 C 0.30511 0.7643 0.4564 0.0
C720 C 0.32374 0.78091 0.46506 0.0
C721 C 0.31862 0.79776 0.48499 0.0
C722 C 0.2951 0.79621 0.49731 0.0
C723 C 0.27654 0.77947 0.48872 0.0
C724 C 0.24142 0.72278 0.46771 0.0
C725 C 0.2391 0.69961 0.45515 0.0
C726 C 0.22293 0.68098 0.46448 0.0
C727 C 0.20852 0.6853 0.48642 0.0
C728 C 0.2122 0.70787 0.49992 0.0
C729 C 0.22869 0.72638 0.49073 0.0
C730 C 0.23087 0.77303 0.44728 0.0
C731 C 0.23773 0.79823 0.44329 0.0
C732 C 0.21949 0.81721 0.44429 0.0
C733 C 0.19404 0.81124 0.44905 0.0
C734 C 0.18698 0.78573 0.45075 0.0
C735 C 0.20523 0.76678 0.44957 0.0
P736 P 0.25575 0.25792 0.56162 0.0
H737 H 0.3072 0.24808 0.57903 0.0
H738 H 0.33853 0.21782 0.56416 0.0
H739 H 0.29615 0.20744 0.49519 0.0
H740 H 0.26412 0.23722 0.51052 0.0
H741 H 0.23324 0.29993 0.58835 0.0
H742 H 0.20273 0.33152 0.5751 0.0
H743 H 0.21486 0.31103 0.49701 0.0
H744 H 0.24561 0.27895 0.51045 0.0
H745 H 0.25736 0.20399 0.57181 0.0
H746 H 0.20165 0.25822 0.54705 0.0
O747 O 0.26268 0.26146 0.59226 0.0
H748 H 0.22665 0.17006 0.56566 0.0
H749 H 0.17156 0.22465 0.54018 0.0
C750 C 0.28327 0.24519 0.54585 0.0
C751 C 0.30495 0.2401 0.5603 0.0
C752 C 0.32281 0.22259 0.55191 0.0
C753 C 0.31957 0.21013 0.52869 0.0
C754 C 0.29912 0.21691 0.51312 0.0
C755 C 0.28096 0.23419 0.52175 0.0
C756 C 0.24209 0.28714 0.55043 0.0
C757 C 0.23023 0.30275 0.56828 0.0
C758 C 0.21244 0.32065 0.56072 0.0
C759 C 0.2061 0.32344 0.53508 0.0
C760 C 0.21942 0.30927 0.51692 0.0
C761 C 0.23719 0.29108 0.52457 0.0
C762 C 0.23208 0.23364 0.55948 0.0
C763 C 0.23857 0.20863 0.56511 0.0
C764 C 0.22108 0.18925 0.56143 0.0
C765 C 0.19673 0.19465 0.55224 0.0
C766 C 0.19006 0.21985 0.5475 0.0
C767 C 0.2075 0.23916 0.55122 0.0
C768 C 0.00589 0.94181 0.56367 0.0
C769 C 0.0053 0.94398 0.44025 0.0
C770 C 0.00726 0.06359 0.56536 0.0
C771 C 0.00643 0.06577 0.4421 0.0
C772 C 0.94539 0.06529 0.50148 0.0
C773 C 0.94423 0.94329 0.49878 0.0
C774 C 0.06777 0.06402 0.50706 0.0
C775 C 0.06644 0.94207 0.4977 0.0
C776 C 0.06693 0.00368 0.44105 0.0
C777 C 0.94464 0.00509 0.44142 0.0
C778 C 0.06732 0.00125 0.56441 0.0
C779 C 0.94541 0.00402 0.56513 0.0
Eu780 Eu 0.00548 0.95587 0.50219 0.0
O781 O 0.98338 0.98215 0.48046 0.0
O782 O 0.02865 0.98044 0.52497 0.0
Eu783 Eu 0.95786 0.00412 0.50323 0.0
Eu784 Eu 0.05413 0.00313 0.50274 0.0
O785 O 0.98305 0.98087 0.52527 0.0
O786 O 0.02796 0.98167 0.48031 0.0
Eu787 Eu 0.00626 0.00291 0.55041 0.0
Eu788 Eu 0.0059 0.00469 0.45529 0.0
O789 O 0.98375 0.02616 0.52573 0.0
O790 O 0.9836 0.02661 0.4811 0.0
O791 O 0.02911 0.02662 0.48057 0.0
O792 O 0.02862 0.02534 0.5252 0.0
Eu793 Eu 0.00649 0.05157 0.5035 0.0
O794 O 0.00501 0.93416 0.53953 0.0
O795 O 0.00564 0.9356 0.46413 0.0
O796 O 0.00756 0.07196 0.54148 0.0
O797 O 0.00665 0.07334 0.46627 0.0
O798 O 0.93732 0.04149 0.50255 0.0
O799 O 0.93663 0.96723 0.50036 0.0
O800 O 0.07546 0.04005 0.50596 0.0
O801 O 0.07456 0.96584 0.49925 0.0
O802 O 0.0428 0.00431 0.43373 0.0
O803 O 0.96877 0.00526 0.43413 0.0
O804 O 0.0433 0.00312 0.5718 0.0
O805 O 0.96964 0.00343 0.57199 0.0
O806 O 0.04386 0.07191 0.50566 0.0
O807 O 0.96946 0.07285 0.50187 0.0
O808 O 0.0424 0.93457 0.49909 0.0
O809 O 0.96814 0.93532 0.49963 0.0
O810 O 0.00512 0.96815 0.43326 0.0
O811 O 0.00627 0.04185 0.43433 0.0
O812 O 0.0067 0.96575 0.57136 0.0
O813 O 0.00634 0.0395 0.5725 0.0
O814 O 0.93693 0.00398 0.54122 0.0
O815 O 0.93666 0.00477 0.46549 0.0
O816 O 0.07522 1.00012 0.54037 0.0
O817 O 0.07505 0.0034 0.46504 0.0
C818 C 0.50597 0.94256 0.06597 0.0
C819 C 0.49931 0.06456 0.06442 0.0
C820 C 0.49787 0.94107 0.9434 0.0
C821 C 0.50715 0.06294 0.94162 0.0
C822 C 0.56537 1.00068 0.94318 0.0
C823 C 0.56474 0.00341 0.06526 0.0
C824 C 0.44207 0.00235 0.94233 0.0
C825 C 0.44152 0.00306 0.06458 0.0
C826 C 0.44259 0.06448 0.00097 0.0
C827 C 0.56571 0.06316 0.00411 0.0
C828 C 0.44088 0.94274 0.00522 0.0
C829 C 0.56426 0.94134 0.00356 0.0
Eu830 Eu 0.50317 0.00343 0.05195 0.0
O831 O 0.52589 0.02569 0.02649 0.0
O832 O 0.48062 0.98077 0.02666 0.0
Eu833 Eu 0.55059 0.00241 0.00414 0.0
Eu834 Eu 0.45602 0.00349 0.00354 0.0
O835 O 0.52511 0.98045 0.02667 0.0
O836 O 0.48137 0.02584 0.0259 0.0
Eu837 Eu 0.50273 0.95476 0.00449 0.0
Eu838 Eu 0.50391 0.05093 0.00326 0.0
O839 O 0.52558 0.97953 0.98153 0.0
O840 O 0.5258 0.02474 0.98118 0.0
O841 O 0.48149 0.02543 0.98066 0.0
O842 O 0.48118 0.98052 0.98165 0.0
Eu843 Eu 0.50367 0.0021 0.95565 0.0
O844 O 0.50542 0.96662 0.07337 0.0
O845 O 0.50051 0.04075 0.07251 0.0
O846 O 0.50033 0.96475 0.93522 0.0
O847 O 0.50607 0.0389 0.93421 0.0
O848 O 0.57229 0.00183 0.96742 0.0
O849 O 0.57205 0.00282 0.04111 0.0
O850 O 0.43468 0.00263 0.96646 0.0
O851 O 0.43438 0.00463 0.04041 0.0
O852 O 0.46658 0.07243 0.00156 0.0
O853 O 0.54183 0.07154 0.00451 0.0
O854 O 0.46473 0.93432 0.00602 0.0
O855 O 0.54024 0.9334 0.00306 0.0
O856 O 0.46609 0.00244 0.93439 0.0
O857 O 0.54148 1.00013 0.93482 0.0
O858 O 0.46544 0.00174 0.07272 0.0
O859 O 0.54075 0.00389 0.07328 0.0
O860 O 0.50071 0.07208 0.04033 0.0
O861 O 0.50631 0.0711 0.96555 0.0
O862 O 0.50471 0.9344 0.04208 0.0
O863 O 0.49866 0.9336 0.96752 0.0
O864 O 0.57158 0.96539 0.00443 0.0
O865 O 0.57253 0.03896 0.00364 0.0
O866 O 0.4341 0.96694 0.00404 0.0
O867 O 0.43509 0.0405 0.0016 0.0
C868 C 0.00213 0.44391 0.06641 0.0
C869 C 0.00404 0.439 0.94422 0.0
C870 C 0.00418 0.56679 0.06096 0.0
C871 C 0.00574 0.56205 0.93891 0.0
C872 C 0.94363 0.56534 0.99906 0.0
C873 C 0.94151 0.44251 0.00375 0.0
C874 C 0.06561 0.56331 1.00037 0.0
C875 C 0.06344 0.44055 0.00718 0.0
C876 C 0.06568 0.49585 0.94256 0.0
C877 C 0.94334 0.49754 0.94057 0.0
C878 C 0.06383 0.50912 0.06466 0.0
C879 C 0.94142 0.50975 0.06267 0.0
Eu880 Eu 0.00271 0.45592 0.0048 0.0
O881 O 0.98131 0.48055 0.9808 0.0
O882 O 0.02565 0.48121 0.02687 0.0
Eu883 Eu 0.95549 0.50376 0.00178 0.0
Eu884 Eu 0.05171 0.50208 0.00343 0.0
O885 O 0.97989 0.48192 0.02614 0.0
O886 O 0.02583 0.47971 0.98152 0.0
Eu887 Eu 0.00277 0.50484 0.05091 0.0
Eu888 Eu 0.00436 0.50107 0.95434 0.0
O889 O 0.98131 0.52621 0.02371 0.0
O890 O 0.9815 0.52477 0.97837 0.0
O891 O 0.02717 0.52392 0.97922 0.0
O892 O 0.02583 0.52529 0.0244 0.0
Eu893 Eu 0.00444 0.55 0.0005 0.0
O894 O 0.00213 0.43601 0.04245 0.0
O895 O 0.00329 0.43292 0.96873 0.0
O896 O 0.00525 0.57291 0.03651 0.0
O897 O 0.0058 0.5699 0.96288 0.0
O898 O 0.93509 0.54159 0.99925 0.0
O899 O 0.93383 0.46654 0.00275 0.0
O900 O 0.07336 0.53927 1.00034 0.0
O901 O 0.07207 0.46426 0.00687 0.0
O902 O 0.04195 0.49798 0.93422 0.0
O903 O 0.96743 0.49746 0.93309 0.0
O904 O 0.03975 0.50843 0.07217 0.0
O905 O 0.96525 0.50876 0.07093 0.0
O906 O 0.04159 0.57087 0.00084 0.0
O907 O 0.96792 0.57205 0.99961 0.0
O908 O 0.03916 0.43392 0.00627 0.0
O909 O 0.96552 0.43493 0.00475 0.0
O910 O 0.00453 0.46252 0.93506 0.0
O911 O 0.00489 0.53788 0.93154 0.0
O912 O 0.00227 0.4681 0.07372 0.0
O913 O 0.00263 0.54336 0.07021 0.0
O914 O 0.93394 0.5076 0.03861 0.0
O915 O 0.93513 0.50052 0.96427 0.0
O916 O 0.07201 0.50657 0.04088 0.0
O917 O 0.07307 0.49682 0.96672 0.0
C918 C 0.50085 0.44213 0.06365 0.0
C919 C 0.50319 0.564 0.06496 0.0
C920 C 0.50224 0.44349 0.94028 0.0
C921 C 0.50432 0.56522 0.94138 0.0
C922 C 0.56302 0.5039 0.94064 0.0
C923 C 0.56352 0.50256 0.06399 0.0
C924 C 0.44106 0.50547 0.94093 0.0
C925 C 0.44126 0.50361 0.0644 0.0
C926 C 0.44243 0.56616 1.00021 0.0
C927 C 0.56468 0.56355 0.00755 0.0
C928 C 0.43997 0.44408 0.99714 0.0
C929 C 0.56228 0.44164 0.99922 0.0
Eu930 Eu 0.50233 0.50314 0.05009 0.0
O931 O 0.52492 0.5253 0.02479 0.0
O932 O 0.47907 0.48124 0.02487 0.0
Eu933 Eu 0.55029 0.50296 0.00239 0.0
Eu934 Eu 0.45419 0.50473 0.00268 0.0
O935 O 0.52467 0.48044 0.02474 0.0
O936 O 0.48017 0.52663 0.02523 0.0
Eu937 Eu 0.50135 0.45583 0.00216 0.0
Eu938 Eu 0.5033 0.55181 0.00301 0.0
O939 O 0.52412 0.48126 0.98016 0.0
O940 O 0.52547 0.52641 0.98014 0.0
O941 O 0.48021 0.52689 0.98064 0.0
O942 O 0.47945 0.48213 0.98028 0.0
Eu943 Eu 0.50214 0.50429 0.95516 0.0
O944 O 0.50227 0.46608 0.07125 0.0
O945 O 0.50246 0.53986 0.07206 0.0
O946 O 0.50175 0.46763 0.93317 0.0
O947 O 0.50292 0.5412 0.93412 0.0
O948 O 0.57133 0.50408 0.9646 0.0
O949 O 0.57141 0.50229 0.03994 0.0
O950 O 0.43299 0.50552 0.96496 0.0
O951 O 0.43308 0.50427 0.04041 0.0
O952 O 0.46656 0.57345 0.00105 0.0
O953 O 0.54091 0.57187 0.00611 0.0
O954 O 0.46376 0.4358 0.99851 0.0
O955 O 0.5382 0.43423 0.00046 0.0
O956 O 0.46521 0.50507 0.93376 0.0
O957 O 0.53882 0.5037 0.93367 0.0
O958 O 0.46545 0.50309 0.07151 0.0
O959 O 0.53945 0.50278 0.07151 0.0
O960 O 0.50359 0.5723 0.04103 0.0
O961 O 0.50502 0.5732 0.96543 0.0
O962 O 0.49986 0.43441 0.03955 0.0
O963 O 0.50235 0.43531 0.96424 0.0
O964 O 0.57041 0.46546 1.00003 0.0
O965 O 0.57197 0.53951 0.00599 0.0
O966 O 0.43261 0.46809 0.99898 0.0
O967 O 0.43418 0.54239 0.00122 0.0
C968 C 0.00239 0.44321 0.56529 0.0
C969 C 0.9972 0.44363 0.4425 0.0
C970 C 0.99646 0.56525 0.56551 0.0
C971 C 0.0081 0.56555 0.44312 0.0
C972 C 0.94091 0.56661 0.50212 0.0
C973 C 0.93867 0.44501 0.50249 0.0
C974 C 0.06402 0.56429 0.50621 0.0
C975 C 0.06201 0.44258 0.5045 0.0
C976 C 0.06418 0.50269 0.44415 0.0
C977 C 0.9409 0.5062 0.44158 0.0
C978 C 0.06167 0.50376 0.56645 0.0
C979 C 0.93839 0.50304 0.56338 0.0
Eu980 Eu 0.00055 0.45648 0.50392 0.0
O981 O 0.97951 0.48263 0.48099 0.0
O982 O 0.02264 0.48166 0.52694 0.0
Eu983 Eu 0.95437 0.50549 0.50287 0.0
Eu984 Eu 0.04861 0.50365 0.50501 0.0
O985 O 0.97823 0.48224 0.52616 0.0
O986 O 0.02375 0.48148 0.48159 0.0
Eu987 Eu 1.00034 0.5043 0.55227 0.0
Eu988 Eu 0.00232 0.50459 0.45563 0.0
O989 O 0.9793 0.52727 0.52614 0.0
O990 O 0.98 0.52783 0.48064 0.0
O991 O 0.02418 0.52644 0.48212 0.0
O992 O 0.02364 0.52672 0.52742 0.0
Eu993 Eu 0.00227 0.55255 0.50423 0.0
O994 O 0.00159 0.43551 0.54122 0.0
O995 O 0.99798 0.43585 0.46654 0.0
O996 O 0.99828 0.57312 0.54156 0.0
O997 O 0.00721 0.57326 0.46717 0.0
O998 O 0.93345 0.54261 0.503 0.0
O999 O 0.93222 0.46927 0.50135 0.0
O1000 O 0.07069 0.54007 0.50517 0.0
O1001 O 0.0696 0.46655 0.50494 0.0
O1002 O 0.04042 0.50254 0.43542 0.0
O1003 O 0.96497 0.50633 0.43373 0.0
O1004 O 0.03757 0.50406 0.57412 0.0
O1005 O 0.96207 0.50273 0.57234 0.0
O1006 O 0.04023 0.57285 0.50674 0.0
O1007 O 0.96502 0.57432 0.50174 0.0
O1008 O 0.03792 0.43484 0.50403 0.0
O1009 O 0.96235 0.43627 0.50429 0.0
O1010 O 0.99906 0.46749 0.43468 0.0
O1011 O 0.00582 0.54182 0.435 0.0
O1012 O 0.00175 0.46713 0.57311 0.0
O1013 O 0.99755 0.54133 0.57328 0.0
O1014 O 0.932 0.50446 0.53903 0.0
O1015 O 0.93354 0.50582 0.46569 0.0
O1016 O 0.06941 0.50364 0.54242 0.0
O1017 O 0.07076 0.50342 0.46852 0.0
C1018 C 0.50196 0.94384 0.56445 0.0
C1019 C 0.50319 0.94284 0.44207 0.0
C1020 C 0.49823 0.06667 0.56339 0.0
C1021 C 0.49983 0.06589 0.44094 0.0
C1022 C 0.4373 0.06452 0.50205 0.0
C1023 C 0.44104 0.94173 0.50229 0.0
C1024 C 0.55938 0.06802 0.50212 0.0
C1025 C 0.56318 0.94519 0.50442 0.0
C1026 C 0.5624 0.00239 0.44228 0.0
C1027 C 0.43994 1.00003 0.44072 0.0
C1028 C 0.56058 0.01092 0.56455 0.0
C1029 C 0.43856 1.0006 0.56328 0.0
Eu1030 Eu 0.50175 0.95752 0.50317 0.0
O1031 O 0.47891 0.98197 0.48018 0.0
O1032 O 0.52356 0.98322 0.52602 0.0
Eu1033 Eu 0.45231 0.0035 0.50215 0.0
Eu1034 Eu 0.54826 0.00623 0.50322 0.0
O1035 O 0.47826 0.9822 0.52513 0.0
O1036 O 0.52355 0.98322 0.48068 0.0
Eu1037 Eu 0.49981 0.0051 0.55087 0.0
Eu1038 Eu 0.50093 0.00447 0.45445 0.0
O1039 O 0.47674 0.02669 0.52505 0.0
O1040 O 0.47715 0.02637 0.47935 0.0
O1041 O 0.52249 0.0277 0.48004 0.0
O1042 O 0.52152 0.02763 0.52501 0.0
Eu1043 Eu 0.49869 0.05215 0.50222 0.0
O1044 O 0.50186 0.93648 0.54031 0.0
O1045 O 0.50246 0.93574 0.46629 0.0
O1046 O 0.49757 0.07385 0.53918 0.0
O1047 O 0.49912 0.07312 0.46511 0.0
O1048 O 0.43001 0.04038 0.50317 0.0
O1049 O 0.43234 0.96541 0.50182 0.0
O1050 O 0.56813 0.04435 0.5018 0.0
O1051 O 0.57053 0.96934 0.50437 0.0
O1052 O 0.53852 0.00307 0.4341 0.0
O1053 O 0.46401 0.00074 0.43321 0.0
O1054 O 0.53672 0.00828 0.57224 0.0
O1055 O 0.46237 0.00266 0.57141 0.0
O1056 O 0.53504 0.07456 0.50265 0.0
O1057 O 0.46116 0.07253 0.50095 0.0
O1058 O 0.53929 0.93719 0.50405 0.0
O1059 O 0.46537 0.93517 0.50292 0.0
O1060 O 0.50312 0.9667 0.43381 0.0
O1061 O 0.50039 0.04193 0.43291 0.0
O1062 O 0.50154 0.96781 0.57236 0.0
O1063 O 0.49907 0.04281 0.57159 0.0
O1064 O 0.43109 0.00072 0.53914 0.0
O1065 O 0.43178 0.00168 0.46457 0.0
O1066 O 0.56861 0.01053 0.54061 0.0
O1067 O 0.56979 0.00385 0.46639 0.0
H1068 H 0.20615 0.14856 0.53058 0.0
H1069 H 0.06007 0.11341 0.5196 0.0
H1070 H 0.14576 0.19416 0.56101 0.0
H1071 H 0.11954 0.05914 0.50625 0.0
H1072 H 0.09173 0.14452 0.53102 0.0
H1073 H 0.17517 0.11633 0.51897 0.0
C1074 C 0.18644 0.15168 0.53509 0.0
C1075 C 0.17852 0.17416 0.54669 0.0
C1076 C 0.09788 0.12582 0.52555 0.0
C1077 C 0.14302 0.13766 0.53298 0.0
C1078 C 0.0798 0.10803 0.51881 0.0
C1079 C 0.0871 0.08352 0.51193 0.0
C1080 C 0.12355 0.11922 0.52528 0.0
C1081 C 0.11301 0.07776 0.51149 0.0
C1082 C 0.16877 0.13336 0.52828 0.0
C1083 C 0.15268 0.17735 0.5517 0.0
N1084 N 0.13034 0.09551 0.51809 0.0
N1085 N 0.13586 0.15936 0.5447 0.0
H1086 H 0.85585 0.18503 0.4375 0.0
H1087 H 0.89602 0.0641 0.51659 0.0
H1088 H 0.81385 0.15983 0.50268 0.0
H1089 H 0.95048 0.11056 0.47756 0.0
H1090 H 0.86332 0.09546 0.50734 0.0
H1091 H 0.88859 0.15358 0.44707 0.0
C1092 C 0.8535 0.1727 0.45367 0.0
C1093 C 0.83232 0.17491 0.4694 0.0
C1094 C 0.88249 0.0988 0.50097 0.0
C1095 C 0.86929 0.13917 0.48035 0.0
C1096 C 0.9011 0.08096 0.50621 0.0
C1097 C 0.92597 0.08485 0.49793 0.0
C1098 C 0.88872 0.12035 0.4869 0.0
C1099 C 0.93158 0.10699 0.48453 0.0
C1100 C 0.87217 0.15498 0.45923 0.0
C1101 C 0.83007 0.15871 0.49024 0.0
N1102 N 0.91301 0.12384 0.4792 0.0
N1103 N 0.84831 0.14139 0.49508 0.0
H1104 H 0.81175 0.86667 0.44312 0.0
H1105 H 0.94869 0.89184 0.50167 0.0
H1106 H 0.85872 0.80776 0.47427 0.0
H1107 H 0.89517 0.95087 0.48416 0.0
H1108 H 0.91705 0.86054 0.48967 0.0
H1109 H 0.84361 0.89764 0.45531 0.0
C1110 C 0.82878 0.86024 0.45249 0.0
C1111 C 0.83252 0.83459 0.45779 0.0
C1112 C 0.91222 0.88035 0.4886 0.0
C1113 C 0.86911 0.86993 0.47168 0.0
C1114 C 0.93025 0.89825 0.49548 0.0
C1115 C 0.92461 0.92407 0.49393 0.0
C1116 C 0.88845 0.88832 0.47991 0.0
C1117 C 0.90037 0.93121 0.48581 0.0
C1118 C 0.84696 0.87793 0.45943 0.0
C1119 C 0.85517 0.8273 0.46956 0.0
N1120 N 0.88325 0.91343 0.47897 0.0
N1121 N 0.87259 0.8449 0.47618 0.0
H1122 H 0.14395 0.81327 0.43508 0.0
H1123 H 0.11794 0.94561 0.50229 0.0
H1124 H 0.20131 0.85504 0.4755 0.0
H1125 H 0.05861 0.8943 0.47973 0.0
H1126 H 0.14925 0.91434 0.48937 0.0
H1127 H 0.11282 0.84492 0.4476 0.0
C1128 C 0.15004 0.82909 0.44652 0.0
C1129 C 0.17532 0.83142 0.45428 0.0
C1130 C 0.12937 0.9099 0.4874 0.0
C1131 C 0.13981 0.86777 0.4685 0.0
C1132 C 0.11147 0.92773 0.49479 0.0
C1133 C 0.08558 0.92256 0.49218 0.0
C1134 C 0.12134 0.88687 0.47706 0.0
C1135 C 0.07834 0.89905 0.48231 0.0
C1136 C 0.13225 0.84715 0.45364 0.0
C1137 C 0.18215 0.8526 0.46873 0.0
N1138 N 0.09614 0.88214 0.47497 0.0
N1139 N 0.16449 0.86992 0.47541 0.0
H1140 H 0.44301 0.19713 0.14013 0.0
H1141 H 0.50068 0.05998 0.11617 0.0
H1142 H 0.46977 0.14879 0.20019 0.0
H1143 H 0.48547 0.1137 0.05656 0.0
H1144 H 0.48796 0.09148 0.14732 0.0
H1145 H 0.4563 0.1656 0.10923 0.0
C1146 C 0.45165 0.17986 0.14682 0.0
C1147 C 0.45536 0.17564 0.17278 0.0
C1148 C 0.48756 0.09639 0.12742 0.0
C1149 C 0.47053 0.13942 0.13753 0.0
C1150 C 0.49487 0.07843 0.1096 0.0
C1151 C 0.49415 0.08414 0.08365 0.0
C1152 C 0.4793 0.12018 0.11925 0.0
C1153 C 0.48647 0.10842 0.07633 0.0
C1154 C 0.45922 0.16187 0.12917 0.0
C1155 C 0.46626 0.15272 0.18039 0.0
N1156 N 0.4792 0.12547 0.09404 0.0
N1157 N 0.47352 0.13549 0.16283 0.0
H1158 H 0.85866 0.57716 0.18566 0.0
H1159 H 0.89033 0.50181 0.05906 0.0
H1160 H 0.80611 0.52534 0.15077 0.0
H1161 H 0.94773 0.53112 0.10929 0.0
H1162 H 0.85803 0.51425 0.08975 0.0
H1163 H 0.89056 0.56469 0.15469 0.0
C1164 C 0.85379 0.56317 0.17154 0.0
C1165 C 0.82962 0.55226 0.17093 0.0
C1166 C 0.87773 0.51779 0.09406 0.0
C1167 C 0.86595 0.5382 0.13524 0.0
C1168 C 0.89615 0.51072 0.07657 0.0
C1169 C 0.92177 0.51533 0.08167 0.0
C1170 C 0.88496 0.5299 0.11656 0.0
C1171 C 0.92824 0.52696 0.10467 0.0
C1172 C 0.872 0.55612 0.15384 0.0
C1173 C 0.8243 0.5346 0.1518 0.0
N1174 N 0.90993 0.534 0.12119 0.0
N1175 N 0.84232 0.52813 0.13472 0.0
H1176 H 0.52038 0.80398 0.15132 0.0
H1177 H 0.52071 0.95007 0.11508 0.0
H1178 H 0.5577 0.8614 0.1957 0.0
H1179 H 0.50024 0.89128 0.06222 0.0
H1180 H 0.5299 0.91799 0.14675 0.0
H1181 H 0.50934 0.83591 0.11989 0.0
C1182 C 0.52645 0.82324 0.15437 0.0
C1183 C 0.54002 0.83 0.17621 0.0
C1184 C 0.52333 0.91213 0.12824 0.0
C1185 C 0.52697 0.86667 0.14057 0.0
C1186 C 0.51789 0.93044 0.11016 0.0
C1187 C 0.50972 0.92338 0.08588 0.0
C1188 C 0.52043 0.88655 0.1221 0.0
C1189 C 0.50662 0.89761 0.08063 0.0
C1190 C 0.51998 0.84147 0.1365 0.0
C1191 C 0.54691 0.85536 0.17937 0.0
N1192 N 0.512 0.88011 0.0986 0.0
N1193 N 0.54026 0.87277 0.16177 0.0
H1194 H 0.14198 0.57242 0.1934 0.0
H1195 H 0.11528 0.50394 0.06128 0.0
H1196 H 0.19925 0.53278 0.15086 0.0
H1197 H 0.05622 0.52825 0.11221 0.0
H1198 H 0.14673 0.51719 0.09238 0.0
H1199 H 0.11062 0.55971 0.16188 0.0
C1200 C 0.14799 0.56113 0.17741 0.0
C1201 C 0.17331 0.55364 0.17483 0.0
C1202 C 0.12687 0.51949 0.09678 0.0
C1203 C 0.13756 0.53915 0.13866 0.0
C1204 C 0.10889 0.51191 0.07905 0.0
C1205 C 0.08304 0.51492 0.08413 0.0
C1206 C 0.11898 0.53041 0.11966 0.0
C1207 C 0.07592 0.52536 0.10751 0.0
C1208 C 0.13009 0.55389 0.15943 0.0
C1209 C 0.18006 0.53935 0.15348 0.0
N1210 N 0.0938 0.53286 0.12435 0.0
N1211 N 0.16228 0.53252 0.13627 0.0
H1212 H 0.47305 0.85803 0.80481 0.0
H1213 H 0.47929 0.89354 0.95127 0.0
H1214 H 0.43354 0.81644 0.86288 0.0
H1215 H 0.50186 0.94467 0.89175 0.0
H1216 H 0.46563 0.86337 0.91924 0.0
H1217 H 0.48566 0.889 0.83643 0.0
C1218 C 0.46663 0.85559 0.82411 0.0
C1219 C 0.45215 0.83453 0.83114 0.0
C1220 C 0.47363 0.88117 0.91322 0.0
C1221 C 0.46726 0.86963 0.86761 0.0
C1222 C 0.48168 0.89835 0.93149 0.0
C1223 C 0.49182 0.92171 0.92421 0.0
C1224 C 0.4759 0.88729 0.88748 0.0
C1225 C 0.49413 0.92693 0.89826 0.0
C1226 C 0.47408 0.87319 0.84221 0.0
C1227 C 0.44499 0.83214 0.85663 0.0
N1228 N 0.48624 0.90984 0.88082 0.0
N1229 N 0.45275 0.8494 0.87397 0.0
H1230 H 0.19165 0.43084 0.86195 0.0
H1231 H 0.06328 0.50387 0.89144 0.0
H1232 H 0.15406 0.47902 0.80779 0.0
H1233 H 0.11243 0.47507 0.95003 0.0
H1234 H 0.09462 0.49179 0.8598 0.0
H1235 H 0.16079 0.44357 0.89394 0.0
C1236 C 0.17696 0.44407 0.85675 0.0
C1237 C 0.17546 0.4538 0.83208 0.0
C1238 C 0.09859 0.48826 0.8796 0.0
C1239 C 0.14 0.46821 0.8685 0.0
C1240 C 0.08071 0.49514 0.89767 0.0
C1241 C 0.08526 0.49052 0.92343 0.0
C1242 C 0.12103 0.4764 0.88729 0.0
C1243 C 0.10822 0.47919 0.9304 0.0
C1244 C 0.15934 0.45129 0.87501 0.0
C1245 C 0.15573 0.4706 0.82638 0.0
N1246 N 0.12519 0.47234 0.9124 0.0
N1247 N 0.13879 0.47724 0.84443 0.0
H1248 H 0.52753 0.20203 0.85888 0.0
H1249 H 0.51655 0.05522 0.89114 0.0
H1250 H 0.54656 0.1429 0.80608 0.0
H1251 H 0.50621 0.11446 0.94641 0.0
H1252 H 0.52493 0.08708 0.85903 0.0
H1253 H 0.5173 0.17014 0.89056 0.0
C1254 C 0.52947 0.1823 0.85394 0.0
C1255 C 0.53786 0.17507 0.82982 0.0
C1256 C 0.52076 0.09309 0.87817 0.0
C1257 C 0.5263 0.13848 0.86599 0.0
C1258 C 0.51585 0.0749 0.89655 0.0
C1259 C 0.51069 0.08211 0.92162 0.0
C1260 C 0.52045 0.1187 0.88483 0.0
C1261 C 0.51018 0.10795 0.9274 0.0
C1262 C 0.52373 0.16411 0.87206 0.0
C1263 C 0.54038 0.14927 0.82454 0.0
N1264 N 0.51503 0.12529 0.90915 0.0
N1265 N 0.53455 0.13189 0.84248 0.0
H1266 H 0.81048 0.49444 0.84577 0.0
H1267 H 0.94932 0.47096 0.89678 0.0
H1268 H 0.85407 0.42935 0.82387 0.0
H1269 H 0.89354 0.51133 0.94058 0.0
H1270 H 0.91647 0.45964 0.86623 0.0
H1271 H 0.84244 0.5046 0.8778 0.0
C1272 C 0.82676 0.48223 0.84794 0.0
C1273 C 0.82983 0.46106 0.83238 0.0
C1274 C 0.91149 0.47099 0.88253 0.0
C1275 C 0.86643 0.47273 0.86835 0.0
C1276 C 0.93022 0.47769 0.89981 0.0
C1277 C 0.92411 0.49222 0.92115 0.0
C1278 C 0.88662 0.47922 0.88644 0.0
C1279 C 0.89902 0.50008 0.92437 0.0
C1280 C 0.8449 0.48799 0.86613 0.0
C1281 C 0.85111 0.44574 0.83572 0.0
N1282 N 0.88116 0.4936 0.90708 0.0
N1283 N 0.86885 0.45204 0.85323 0.0
H1284 H 0.6495 0.70065 0.03198 0.0
H1285 H 0.6133 0.55506 0.02324 0.0
H1286 H 0.69352 0.64157 0.06698 0.0
H1287 H 0.56105 0.61509 0.00534 0.0
H1288 H 0.64442 0.58645 0.03607 0.0
H1289 H 0.61781 0.66954 0.02001 0.0
C1290 C 0.65235 0.68121 0.03753 0.0
C1291 C 0.67426 0.67377 0.05058 0.0
C1292 C 0.62616 0.59273 0.02928 0.0
C1293 C 0.63829 0.63792 0.03621 0.0
C1294 C 0.60841 0.57482 0.02174 0.0
C1295 C 0.58447 0.58242 0.01315 0.0
C1296 C 0.62003 0.61843 0.02805 0.0
C1297 C 0.57922 0.60833 0.01187 0.0
C1298 C 0.63433 0.66342 0.03045 0.0
C1299 C 0.67713 0.64815 0.05664 0.0
N1300 N 0.59688 0.62541 0.01923 0.0
N1301 N 0.65942 0.63113 0.04928 0.0
H1302 H 0.30468 0.64484 0.96356 0.0
H1303 H 0.44994 0.61707 0.99441 0.0
H1304 H 0.36208 0.70262 0.96504 0.0
H1305 H 0.39109 0.56056 0.99609 0.0
H1306 H 0.4183 0.64874 0.98371 0.0
H1307 H 0.33656 0.61359 0.97469 0.0
C1308 C 0.32405 0.65092 0.9662 0.0
C1309 C 0.33075 0.67636 0.96353 0.0
C1310 C 0.41234 0.62942 0.98654 0.0
C1311 C 0.36739 0.64069 0.97622 0.0
C1312 C 0.43038 0.6113 0.99276 0.0
C1313 C 0.42324 0.58601 0.99612 0.0
C1314 C 0.38699 0.62223 0.9836 0.0
C1315 C 0.39757 0.57975 0.99366 0.0
C1316 C 0.34225 0.63308 0.97253 0.0
C1317 C 0.35617 0.68316 0.96674 0.0
N1318 N 0.38042 0.59772 0.98745 0.0
N1319 N 0.37359 0.66542 0.97304 0.0
H1320 H 0.35708 0.30675 0.96782 0.0
H1321 H 0.3914 0.45262 0.98127 0.0
H1322 H 0.31074 0.36663 0.93753 0.0
H1323 H 0.44378 0.39253 0.99858 0.0
H1324 H 0.36056 0.42132 0.96759 0.0
H1325 H 0.38864 0.33783 0.9802 0.0
C1326 C 0.3537 0.32639 0.96334 0.0
C1327 C 0.33116 0.33406 0.95158 0.0
C1328 C 0.37879 0.41499 0.97444 0.0
C1329 C 0.367 0.36985 0.96643 0.0
C1330 C 0.39636 0.43285 0.9825 0.0
C1331 C 0.42028 0.42523 0.99116 0.0
C1332 C 0.38507 0.3893 0.97517 0.0
C1333 C 0.42564 0.39932 0.992 0.0
C1334 C 0.37165 0.34416 0.97068 0.0
C1335 C 0.32766 0.35987 0.94685 0.0
N1336 N 0.40817 0.38229 0.9841 0.0
N1337 N 0.34531 0.37686 0.95444 0.0
H1338 H 0.64156 0.30339 0.96237 0.0
H1339 H 0.61371 0.44731 0.9979 0.0
H1340 H 0.69848 0.36158 0.96564 0.0
H1341 H 0.55503 0.39108 0.99044 0.0
H1342 H 0.64501 0.4155 0.98735 0.0
H1343 H 0.60936 0.3349 0.97271 0.0
C1344 C 0.64722 0.32283 0.96499 0.0
C1345 C 0.67272 0.32988 0.96329 0.0
C1346 C 0.6253 0.41007 0.98809 0.0
C1347 C 0.63617 0.36585 0.97549 0.0
C1348 C 0.60735 0.42825 0.99421 0.0
C1349 C 0.58161 0.42194 0.99505 0.0
C1350 C 0.61753 0.38534 0.98271 0.0
C1351 C 0.57465 0.39685 0.9901 0.0
C1352 C 0.62889 0.34076 0.97109 0.0
C1353 C 0.67909 0.35526 0.96717 0.0
N1354 N 0.59252 0.37948 0.98406 0.0
N1355 N 0.66095 0.37229 0.97317 0.0
H1356 H 0.93947 0.69691 0.64231 0.0
H1357 H 0.99707 0.55994 0.61719 0.0
H1358 H 0.96766 0.6487 0.70182 0.0
H1359 H 0.98238 0.61438 0.5581 0.0
H1360 H 0.98381 0.59098 0.64858 0.0
H1361 H 0.95171 0.66514 0.6112 0.0
C1362 C 0.94812 0.67959 0.64884 0.0
C1363 C 0.95267 0.67551 0.6747 0.0
C1364 C 0.98363 0.59614 0.62875 0.0
C1365 C 0.96667 0.63908 0.63922 0.0
C1366 C 0.99125 0.57845 0.61079 0.0
C1367 C 0.99089 0.58453 0.58491 0.0
C1368 C 0.9754 0.62001 0.62079 0.0
C1369 C 0.98314 0.60884 0.57781 0.0
C1370 C 0.95512 0.66148 0.63108 0.0
C1371 C 0.96355 0.65253 0.68212 0.0
N1372 N 0.97558 0.62563 0.59565 0.0
N1373 N 0.97029 0.63522 0.66444 0.0
H1374 H 0.35703 0.98013 0.70351 0.0
H1375 H 0.38961 0.98545 0.55591 0.0
H1376 H 0.30896 0.949 0.64531 0.0
H1377 H 0.44265 0.00564 0.61481 0.0
H1378 H 0.35844 0.97532 0.58827 0.0
H1379 H 0.38744 0.99247 0.67105 0.0
C1380 C 0.35288 0.97593 0.68387 0.0
C1381 C 0.33045 0.96355 0.67705 0.0
C1382 C 0.37687 0.98206 0.59409 0.0
C1383 C 0.36515 0.97753 0.63986 0.0
C1384 C 0.39467 0.98802 0.57562 0.0
C1385 C 0.41887 0.99639 0.58263 0.0
C1386 C 0.38324 0.98459 0.61976 0.0
C1387 C 0.42431 0.99914 0.6085 0.0
C1388 C 0.37027 0.98289 0.66537 0.0
C1389 C 0.32614 0.95828 0.65139 0.0
N1390 N 0.40663 0.99321 0.62613 0.0
N1391 N 0.34332 0.96538 0.63369 0.0
H1392 H 0.03895 0.36436 0.70374 0.0
H1393 H 0.00367 0.39186 0.55905 0.0
H1394 H 0.03165 0.30651 0.64669 0.0
H1395 H 0.00923 0.44982 0.61636 0.0
H1396 H 0.01277 0.36024 0.59121 0.0
H1397 H 0.02777 0.39603 0.67204 0.0
C1398 C 0.03515 0.35836 0.6845 0.0
C1399 C 0.03622 0.33279 0.67782 0.0
C1400 C 0.01187 0.37988 0.59676 0.0
C1401 C 0.02313 0.36881 0.64157 0.0
C1402 C 0.0066 0.39798 0.5784 0.0
C1403 C 0.00572 0.42363 0.58492 0.0
C1404 C 0.01637 0.38742 0.62185 0.0
C1405 C 0.00969 0.43032 0.61036 0.0
C1406 C 0.02858 0.3764 0.66647 0.0
C1407 C 0.03075 0.326 0.65272 0.0
N1408 N 0.01496 0.41233 0.62786 0.0
N1409 N 0.02447 0.34391 0.63551 0.0
H1410 H 0.65482 0.00944 0.69773 0.0
H1411 H 0.6048 0.03676 0.5593 0.0
H1412 H 0.67921 0.07426 0.65506 0.0
H1413 H 0.55934 0.9975 0.61453 0.0
H1414 H 0.63527 0.04705 0.59256 0.0
H1415 H 0.62192 0.00151 0.66601 0.0
C1416 C 0.653 0.0221 0.68173 0.0
C1417 C 0.66954 0.0425 0.67881 0.0
C1418 C 0.6186 0.03622 0.59735 0.0
C1419 C 0.63259 0.03335 0.64247 0.0
C1420 C 0.60136 0.0301 0.57838 0.0
C1421 C 0.57963 0.01611 0.58419 0.0
C1422 C 0.61426 0.02791 0.62217 0.0
C1423 C 0.57587 0.00832 0.60928 0.0
C1424 C 0.6343 0.01761 0.66373 0.0
C1425 C 0.66662 0.05842 0.65789 0.0
N1426 N 0.59316 0.01416 0.62737 0.0
N1427 N 0.64863 0.05333 0.64025 0.0
H1428 H 0.94358 0.31048 0.36591 0.0
H1429 H 0.99729 0.44911 0.39077 0.0
H1430 H 0.9678 0.36024 0.30599 0.0
H1431 H 0.98461 0.39407 0.44975 0.0
H1432 H 0.9847 0.41778 0.35934 0.0
H1433 H 0.95586 0.3423 0.39692 0.0
C1434 C 0.95142 0.32814 0.35928 0.0
C1435 C 0.95479 0.33265 0.33333 0.0
C1436 C 0.98482 0.41257 0.37917 0.0
C1437 C 0.96884 0.3692 0.36871 0.0
C1438 C 0.99207 0.43043 0.39715 0.0
C1439 C 0.99203 0.42429 0.42301 0.0
C1440 C 0.97732 0.38846 0.3871 0.0
C1441 C 0.98504 0.39973 0.43006 0.0
C1442 C 0.95843 0.3463 0.37698 0.0
C1443 C 0.96463 0.35606 0.32579 0.0
N1444 N 0.97786 0.38278 0.41222 0.0
N1445 N 0.97141 0.37343 0.34342 0.0
H1446 H 0.64185 0.96068 0.30603 0.0
H1447 H 0.6136 0.99842 0.44978 0.0
H1448 H 0.69977 0.96682 0.3633 0.0
H1449 H 0.55658 0.99522 0.39118 0.0
H1450 H 0.64544 0.9868 0.41859 0.0
H1451 H 0.61022 0.97242 0.33744 0.0
C1452 C 0.64789 0.96446 0.32527 0.0
C1453 C 0.67348 0.96292 0.33206 0.0
C1454 C 0.62597 0.98877 0.41256 0.0
C1455 C 0.63738 0.97634 0.36813 0.0
C1456 C 0.60774 0.99552 0.43034 0.0
C1457 C 0.58227 0.99783 0.42316 0.0
C1458 C 0.61872 0.98423 0.38741 0.0
C1459 C 0.57593 0.99372 0.39767 0.0
C1460 C 0.62982 0.97114 0.34319 0.0
C1461 C 0.68021 0.9676 0.35732 0.0
N1462 N 0.59401 0.98704 0.38076 0.0
N1463 N 0.66226 0.97423 0.37445 0.0
H1464 H 0.00726 0.66265 0.31218 0.0
H1465 H 0.03481 0.60905 0.44918 0.0
H1466 H 0.07471 0.68252 0.35342 0.0
H1467 H 0.99401 0.56569 0.39331 0.0
H1468 H 0.0453 0.64003 0.41653 0.0
H1469 H 0.99801 0.63019 0.34389 0.0
C1470 C 0.02014 0.66 0.32792 0.0
C1471 C 0.04174 0.67506 0.33039 0.0
C1472 C 0.03407 0.62372 0.41148 0.0
C1473 C 0.03115 0.63859 0.36668 0.0
C1474 C 0.02785 0.60619 0.43009 0.0
C1475 C 0.01341 0.58488 0.42389 0.0
C1476 C 0.02536 0.62011 0.38666 0.0
C1477 C 0.00521 0.58187 0.39882 0.0
C1478 C 0.01491 0.64154 0.34589 0.0
C1479 C 0.05794 0.67108 0.35096 0.0
N1480 N 0.01115 0.59943 0.3811 0.0
N1481 N 0.05216 0.65333 0.36858 0.0
H1482 H 0.30451 0.99376 0.34873 0.0
H1483 H 0.44676 0.97794 0.39457 0.0
H1484 H 0.35363 0.93527 0.32054 0.0
H1485 H 0.38939 0.01119 0.44219 0.0
H1486 H 0.41425 0.96752 0.36343 0.0
H1487 H 0.33686 0.00526 0.37995 0.0
C1488 C 0.32212 0.98335 0.34921 0.0
C1489 C 0.32653 0.96354 0.33219 0.0
C1490 C 0.40884 0.97715 0.38068 0.0
C1491 C 0.36348 0.97673 0.36738 0.0
C1492 C 0.42737 0.98332 0.39836 0.0
C1493 C 0.42074 0.99547 0.421 0.0
C1494 C 0.38357 0.9835 0.38552 0.0
C1495 C 0.39529 0.00172 0.42502 0.0
C1496 C 0.34047 0.98985 0.367 0.0
C1497 C 0.34952 0.95052 0.33353 0.0
N1498 N 0.37759 0.99573 0.40738 0.0
N1499 N 0.36729 0.95748 0.35073 0.0
H1500 H 0.01131 0.14822 0.29948 0.0
H1501 H 0.98918 0.11445 0.44579 0.0
H1502 H 0.95624 0.18544 0.34658 0.0
H1503 H 0.02093 0.06153 0.39249 0.0
H1504 H 0.98396 0.14489 0.4113 0.0
H1505 H 0.0218 0.1202 0.33517 0.0
C1506 C 0.00158 0.15056 0.31736 0.0
C1507 C 0.98269 0.16891 0.32005 0.0
C1508 C 0.99222 0.12666 0.40722 0.0
C1509 C 0.99474 0.13737 0.36085 0.0
C1510 C 0.99533 0.10933 0.42693 0.0
C1511 C 0.00532 0.08531 0.42202 0.0
C1512 C 0.99949 0.1201 0.38248 0.0
C1513 C 0.01288 0.07972 0.39712 0.0
C1514 C 0.00748 0.13458 0.33765 0.0
C1515 C 0.97065 0.17125 0.34362 0.0
N1516 N 0.00981 0.09695 0.37829 0.0
N1517 N 0.97689 0.15572 0.36309 0.0
H1518 H 0.87161 0.99092 0.29534 0.0
H1519 H 0.8925 0.00408 0.44523 0.0
H1520 H 0.81017 0.9955 0.3488 0.0
H1521 H 0.95284 0.00528 0.39017 0.0
H1522 H 0.86186 0.00208 0.41045 0.0
H1523 H 0.9015 0.99747 0.33003 0.0
C1524 C 0.86439 0.99346 0.31435 0.0
C1525 C 0.8383 0.99263 0.31909 0.0
C1526 C 0.88182 0.00291 0.40604 0.0
C1527 C 0.87251 1.00003 0.3591 0.0
C1528 C 0.89936 0.00403 0.42592 0.0
C1529 C 0.92541 0.00478 0.42079 0.0
C1530 C 0.89035 0.00243 0.38082 0.0
C1531 C 0.93304 0.00467 0.39526 0.0
C1532 C 0.88147 0.99725 0.33419 0.0
C1533 C 0.83007 0.99629 0.34415 0.0
N1534 N 0.91566 0.00342 0.37635 0.0
N1535 N 0.84709 0.99963 0.36321 0.0
H1536 H 0.04918 0.81929 0.34562 0.0
H1537 H 0.99148 0.95036 0.39064 0.0
H1538 H 0.00151 0.8645 0.2974 0.0
H1539 H 0.02081 0.89462 0.44246 0.0
H1540 H 0.99568 0.92004 0.35604 0.0
H1541 H 0.03992 0.84745 0.38097 0.0
C1542 C 0.03676 0.83524 0.34249 0.0
C1543 C 0.02632 0.83977 0.31848 0.0
C1544 C 0.00099 0.91438 0.37501 0.0
C1545 C 0.01557 0.87213 0.35897 0.0
C1546 C 0.99871 0.93171 0.3948 0.0
C1547 C 0.00595 0.9251 0.41954 0.0
C1548 C 0.01092 0.89033 0.37986 0.0
C1549 C 0.01495 0.90056 0.42375 0.0
C1550 C 0.03135 0.85121 0.36273 0.0
C1551 C 0.00998 0.8604 0.31561 0.0
N1552 N 0.01742 0.88418 0.40408 0.0
N1553 N 0.00531 0.87601 0.33557 0.0
H1554 H 0.14799 0.00752 0.29754 0.0
H1555 H 0.1143 0.98291 0.4433 0.0
H1556 H 0.18014 0.94711 0.34165 0.0
H1557 H 0.06283 0.02019 0.3921 0.0
H1558 H 0.14364 0.97644 0.40802 0.0
H1559 H 0.12113 0.0188 0.33391 0.0
C1560 C 0.14941 0.99672 0.31488 0.0
C1561 C 0.166 0.97617 0.31654 0.0
C1562 C 0.12599 0.9862 0.40459 0.0
C1563 C 0.1359 0.98915 0.35813 0.0
C1564 C 0.10933 0.99006 0.42474 0.0
C1565 C 0.08602 0.00198 0.42062 0.0
C1566 C 0.11948 0.99464 0.38022 0.0
C1567 C 0.0805 0.01068 0.39608 0.0
C1568 C 0.13411 0.0031 0.33555 0.0
C1569 C 0.16726 0.96282 0.33946 0.0
N1570 N 0.09709 0.00684 0.37681 0.0
N1571 N 0.15249 0.96957 0.35935 0.0
H1572 H 0.9551 0.82216 0.66112 0.0
H1573 H 0.02395 0.94564 0.61207 0.0
H1574 H 0.01537 0.85721 0.70332 0.0
H1575 H 0.98607 0.89395 0.56161 0.0
H1576 H 0.01959 0.91499 0.64638 0.0
H1577 H 0.96444 0.84972 0.62521 0.0
C1578 C 0.97032 0.83573 0.66279 0.0
C1579 C 0.98436 0.83761 0.68528 0.0
C1580 C 0.01245 0.91026 0.62775 0.0
C1581 C 0.9951 0.8693 0.64425 0.0
C1582 C 0.01482 0.92778 0.60815 0.0
C1583 C 0.00523 0.92242 0.58391 0.0
C1584 C 0.99997 0.88735 0.62327 0.0
C1585 C 0.99379 0.89887 0.57995 0.0
C1586 C 0.97574 0.85132 0.64224 0.0
C1587 C 0.0041 0.85522 0.68632 0.0
N1588 N 0.9912 0.88235 0.5995 0.0
N1589 N 0.00871 0.87063 0.66618 0.0
H1590 H 0.18308 0.94394 0.66342 0.0
H1591 H 0.06383 0.01918 0.61286 0.0
H1592 H 0.15202 0.00695 0.70448 0.0
H1593 H 0.11426 0.97913 0.56283 0.0
H1594 H 0.09392 0.01312 0.64752 0.0
H1595 H 0.15603 0.95439 0.62732 0.0
C1596 C 0.17047 0.95996 0.66481 0.0
C1597 C 0.16958 0.97449 0.68701 0.0
C1598 C 0.0985 0.00587 0.62891 0.0
C1599 C 0.13849 0.98651 0.64579 0.0
C1600 C 0.0813 0.00921 0.60911 0.0
C1601 C 0.08647 0.99954 0.58488 0.0
C1602 C 0.12086 0.99231 0.62464 0.0
C1603 C 0.10952 0.98697 0.58115 0.0
C1604 C 0.15518 0.96602 0.64415 0.0
C1605 C 0.1532 0.99527 0.68771 0.0
N1606 N 0.12571 0.98343 0.60089 0.0
N1607 N 0.13805 1.00051 0.66749 0.0
H1608 H 0.99344 0.16955 0.69106 0.0
H1609 H 0.03967 0.10336 0.56775 0.0
H1610 H 0.0723 0.14951 0.68314 0.0
H1611 H 0.98083 0.06584 0.60977 0.0
H1612 H 0.0468 0.13145 0.60414 0.0
H1613 H 0.98338 0.14053 0.65631 0.0
C1614 C 0.00866 0.15902 0.68239 0.0
C1615 C 0.03393 0.16255 0.69009 0.0
C1616 C 0.03215 0.11723 0.60517 0.0
C1617 C 0.0224 0.13028 0.64955 0.0
C1618 C 0.02795 0.1014 0.58445 0.0
C1619 C 0.00963 0.08237 0.58586 0.0
C1620 C 0.01741 0.11446 0.62707 0.0
C1621 C 0.99516 0.08032 0.60806 0.0
C1622 C 0.00283 0.14265 0.66238 0.0
C1623 C 0.05267 0.14839 0.67753 0.0
N1624 N 0.9992 0.09634 0.62781 0.0
N1625 N 0.04659 0.13331 0.65765 0.0
H1626 H 0.81499 0.9962 0.66636 0.0
H1627 H 0.95501 0.01757 0.61393 0.0
H1628 H 0.87215 0.0398 0.70472 0.0
H1629 H 0.89389 0.99418 0.565 0.0
H1630 H 0.92569 0.02012 0.64903 0.0
H1631 H 0.84454 0.98937 0.63104 0.0
C1632 C 0.8339 0.00395 0.66752 0.0
C1633 C 0.8412 0.01856 0.68847 0.0
C1634 C 0.9186 0.0144 0.63067 0.0
C1635 C 0.87485 0.01102 0.64824 0.0
C1636 C 0.9354 0.01282 0.61049 0.0
C1637 C 0.92699 0.00557 0.5863 0.0
C1638 C 0.89304 0.00857 0.62694 0.0
C1639 C 0.90121 0.99994 0.58325 0.0
C1640 C 0.85061 1.00027 0.64728 0.0
C1641 C 0.86574 0.0285 0.68889 0.0
N1642 N 0.88511 0.00148 0.60338 0.0
N1643 N 0.88164 0.02455 0.66911 0.0
H1644 H 0.34992 0.9561 0.19072 0.0
H1645 H 0.39136 0.01462 0.05828 0.0
H1646 H 0.29824 0.99671 0.14253 0.0
H1647 H 0.44453 0.98821 0.11439 0.0
H1648 H 0.35714 0.00882 0.08869 0.0
H1649 H 0.38476 0.96813 0.163 0.0
C1650 C 0.34594 0.96761 0.17425 0.0
C1651 C 0.32111 0.97517 0.16871 0.0
C1652 C 0.37631 0.0045 0.09443 0.0
C1653 C 0.36101 0.98906 0.1368 0.0
C1654 C 0.39592 0.00772 0.07704 0.0
C1655 C 0.42096 0.0017 0.08366 0.0
C1656 C 0.38164 0.99491 0.1186 0.0
C1657 C 0.4256 0.99308 0.10836 0.0
C1658 C 0.36587 0.97459 0.1585 0.0
C1659 C 0.3171 0.99045 0.14741 0.0
N1660 N 0.40611 0.98971 0.12482 0.0
N1661 N 0.33682 0.99667 0.13204 0.0
H1662 H 0.99243 0.29849 0.13937 0.0
H1663 H 0.99854 0.44827 0.11863 0.0
H1664 H 0.98992 0.35165 0.20115 0.0
H1665 H 0.00515 0.39298 0.0589 0.0
H1666 H 0.99678 0.41374 0.14959 0.0
H1667 H 0.99871 0.33341 0.10996 0.0
C1668 C 0.99333 0.31751 0.14677 0.0
C1669 C 0.99058 0.32209 0.17278 0.0
C1670 C 0.99871 0.40928 0.12968 0.0
C1671 C 0.99767 0.3624 0.13911 0.0
C1672 C 0.99971 0.42899 0.11198 0.0
C1673 C 0.00183 0.42369 0.086 0.0
C1674 C 0.99984 0.3841 0.12133 0.0
C1675 C 0.00331 0.39823 0.07861 0.0
C1676 C 0.99697 0.3375 0.12997 0.0
C1677 C 0.99221 0.34719 0.18129 0.0
N1678 N 0.0022 0.37954 0.0961 0.0
N1679 N 0.99544 0.3664 0.1645 0.0
H1680 H 0.65949 0.95657 0.18936 0.0
H1681 H 0.61413 0.01746 0.05935 0.0
H1682 H 0.70781 0.00394 0.14407 0.0
H1683 H 0.56237 0.98728 0.1147 0.0
H1684 H 0.64871 0.0124 0.08958 0.0
H1685 H 0.62394 0.96702 0.1618 0.0
C1686 C 0.66261 0.96916 0.17353 0.0
C1687 C 0.68673 0.97916 0.16879 0.0
C1688 C 0.62977 0.0071 0.09522 0.0
C1689 C 0.64597 0.9913 0.13712 0.0
C1690 C 0.60998 0.0099 0.07793 0.0
C1691 C 0.58526 0.00265 0.08443 0.0
C1692 C 0.62497 0.99662 0.11912 0.0
C1693 C 0.58106 0.99318 0.10888 0.0
C1694 C 0.64225 0.97526 0.1579 0.0
C1695 C 0.68956 0.99578 0.14833 0.0
N1696 N 0.60076 0.99019 0.12522 0.0
N1697 N 0.66947 0.00112 0.13307 0.0
H1698 H 0.04935 0.69985 0.14255 0.0
H1699 H 0.98335 0.57021 0.10861 0.0
H1700 H 0.97837 0.6784 0.1769 0.0
H1701 H 0.02752 0.612 0.0543 0.0
H1702 H 0.98496 0.60677 0.13729 0.0
H1703 H 0.04467 0.6654 0.11256 0.0
C1704 C 0.03252 0.68832 0.14365 0.0
C1705 C 0.01426 0.69233 0.16258 0.0
C1706 C 0.9942 0.60786 0.11904 0.0
C1707 C 0.00947 0.65187 0.12862 0.0
C1708 C 0.99346 0.58699 0.10279 0.0
C1709 C 0.00528 0.5881 0.07904 0.0
C1710 C 0.00734 0.62968 0.11166 0.0
C1711 C 0.01799 0.61037 0.07235 0.0
C1712 C 0.03006 0.66838 0.12659 0.0
C1713 C 0.9933 0.67593 0.16315 0.0
N1714 N 0.01886 0.63017 0.08864 0.0
N1715 N 0.99164 0.65627 0.14665 0.0
H1716 H 0.29662 0.99676 0.86534 0.0
H1717 H 0.44565 0.98682 0.89281 0.0
H1718 H 0.34871 0.95402 0.81953 0.0
H1719 H 0.39188 0.01401 0.94788 0.0
H1720 H 0.41098 0.98074 0.86274 0.0
H1721 H 0.33201 0.00916 0.89294 0.0
C1722 C 0.31549 0.99015 0.86102 0.0
C1723 C 0.31968 0.97404 0.84037 0.0
C1724 C 0.4068 0.98819 0.88136 0.0
C1725 C 0.36016 0.9882 0.8716 0.0
C1726 C 0.42663 0.99181 0.8985 0.0
C1727 C 0.42171 0.00077 0.92301 0.0
C1728 C 0.38185 0.99376 0.88865 0.0
C1729 C 0.39658 0.00678 0.9293 0.0
C1730 C 0.33565 0.99712 0.87678 0.0
C1731 C 0.34454 0.96606 0.83556 0.0
N1732 N 0.37762 0.0031 0.91229 0.0
N1733 N 0.36377 0.97316 0.85104 0.0
H1734 H 0.02429 0.29193 0.8757 0.0
H1735 H 0.00057 0.44034 0.89206 0.0
H1736 H 0.00799 0.34163 0.81314 0.0
H1737 H 0.00904 0.38859 0.95463 0.0
H1738 H 0.0026 0.40456 0.86279 0.0
H1739 H 0.01781 0.32712 0.90492 0.0
C1740 C 0.01916 0.31019 0.86811 0.0
C1741 C 0.01669 0.31376 0.84189 0.0
C1742 C 0.00391 0.40108 0.88294 0.0
C1743 C 0.00941 0.35433 0.87529 0.0
C1744 C 0.00283 0.42153 0.89969 0.0
C1745 C 0.00471 0.41763 0.92594 0.0
C1746 C 0.00704 0.3765 0.89245 0.0
C1747 C 0.00748 0.39269 0.93461 0.0
C1748 C 0.01542 0.33031 0.88482 0.0
C1749 C 0.0098 0.33787 0.8332 0.0
N1750 N 0.00867 0.3732 0.91796 0.0
N1751 N 0.00661 0.35724 0.84981 0.0
H1752 H 0.71193 0.01585 0.87278 0.0
H1753 H 0.56255 0.99893 0.89088 0.0
H1754 H 0.66069 0.00388 0.81034 0.0
H1755 H 0.61628 0.00175 0.95248 0.0
H1756 H 0.59789 0.99996 0.86088 0.0
H1757 H 0.67684 0.00975 0.9022 0.0
C1758 C 0.69332 0.01175 0.86527 0.0
C1759 C 0.68927 0.0104 0.83906 0.0
C1760 C 0.60186 1.00022 0.88099 0.0
C1761 C 0.64883 0.00358 0.87265 0.0
C1762 C 0.58168 0.99967 0.89815 0.0
C1763 C 0.58628 1.00037 0.92435 0.0
C1764 C 0.62683 0.0016 0.89008 0.0
C1765 C 0.61159 0.00128 0.93254 0.0
C1766 C 0.67326 0.00823 0.88207 0.0
C1767 C 0.66475 0.00483 0.83041 0.0
N1768 N 0.63078 0.00198 0.91552 0.0
N1769 N 0.64542 0.00185 0.84714 0.0
H1770 H 0.99232 0.65413 0.80261 0.0
H1771 H 0.01451 0.61225 0.94648 0.0
H1772 H 0.99992 0.70572 0.86532 0.0
H1773 H 0.99873 0.55868 0.88688 0.0
H1774 H 0.01336 0.64607 0.91574 0.0
H1775 H 0.99898 0.61878 0.83174 0.0
C1776 C 0.99579 0.65808 0.82243 0.0
C1777 C 0.99552 0.68301 0.83152 0.0
C1778 C 0.01018 0.62696 0.90926 0.0
C1779 C 0.00283 0.64253 0.86502 0.0
C1780 C 0.0108 0.60746 0.92689 0.0
C1781 C 0.00643 0.58237 0.91943 0.0
C1782 C 0.00515 0.62163 0.88375 0.0
C1783 C 0.0021 0.57767 0.89359 0.0
C1784 C 0.99937 0.63784 0.83908 0.0
C1785 C 0.99969 0.68687 0.85747 0.0
N1786 N 0.00143 0.59714 0.87669 0.0
N1787 N 0.0031 0.6669 0.87325 0.0
H1788 H 0.19831 0.34641 0.00548 0.0
H1789 H 0.05354 0.3899 0.00831 0.0
H1790 H 0.13518 0.29694 0.99125 0.0
H1791 H 0.1157 0.44275 0.00822 0.0
H1792 H 0.08354 0.35534 0.00785 0.0
H1793 H 0.16867 0.38122 0.01268 0.0
C1794 C 0.1782 0.34276 0.00434 0.0
C1795 C 0.16918 0.31873 0.99772 0.0
C1796 C 0.09068 0.37447 0.00801 0.0
C1797 C 0.13524 0.35853 0.0056 0.0
C1798 C 0.07351 0.39436 0.00828 0.0
C1799 C 0.08199 0.41949 0.00813 0.0
C1800 C 0.1167 0.37949 0.00762 0.0
C1801 C 0.10822 0.42376 0.00824 0.0
C1802 C 0.16132 0.3627 0.00821 0.0
C1803 C 0.14296 0.31519 0.9961 0.0
N1804 N 0.12464 0.40396 0.00789 0.0
N1805 N 0.12695 0.33486 0.99993 0.0
H1806 H 0.14236 0.70822 0.00396 0.0
H1807 H 0.1151 0.56048 0.98436 0.0
H1808 H 0.18772 0.65992 0.95657 0.0
H1809 H 0.06001 0.61273 0.01404 0.0
H1810 H 0.14509 0.59547 0.97996 0.0
H1811 H 0.11496 0.67206 0.0137 0.0
C1812 C 0.14662 0.69 0.99576 0.0
C1813 C 0.1671 0.68714 0.97916 0.0
C1814 C 0.12645 0.5992 0.98755 0.0
C1815 C 0.13609 0.64574 0.99031 0.0
C1816 C 0.10937 0.57921 0.99017 0.0
C1817 C 0.08489 0.58365 0.99934 0.0
C1818 C 0.11911 0.62376 0.99442 0.0
C1819 C 0.07855 0.6084 0.00655 0.0
C1820 C 0.13097 0.66941 0.00122 0.0
C1821 C 0.17182 0.66307 0.96907 0.0
N1822 N 0.0955 0.62747 0.00391 0.0
N1823 N 0.15646 0.64335 0.97477 0.0
H1824 H 0.33659 0.18735 0.02562 0.0
H1825 H 0.39728 0.05909 0.97742 0.0
H1826 H 0.31378 0.15055 0.95619 0.0
H1827 H 0.44134 0.11287 0.02002 0.0
H1828 H 0.36285 0.08958 0.97499 0.0
H1829 H 0.37173 0.15748 0.02916 0.0
C1830 C 0.3388 0.1731 0.01111 0.0
C1831 C 0.32186 0.17164 0.99057 0.0
C1832 C 0.38005 0.09475 0.98484 0.0
C1833 C 0.36185 0.13707 0.99497 0.0
C1834 C 0.39969 0.07734 0.98632 0.0
C1835 C 0.42222 0.08348 0.99892 0.0
C1836 C 0.38266 0.1184 0.99643 0.0
C1837 C 0.42434 0.10749 0.00995 0.0
C1838 C 0.35889 0.15603 0.01324 0.0
C1839 C 0.32571 0.15229 0.97273 0.0
N1840 N 0.40467 0.12406 0.00865 0.0
N1841 N 0.34514 0.1358 0.97543 0.0
H1842 H 0.86289 0.29832 0.00508 0.0
H1843 H 0.89219 0.44588 0.98758 0.0
H1844 H 0.81817 0.3482 0.95871 0.0
H1845 H 0.94654 0.39287 0.01733 0.0
H1846 H 0.86188 0.41134 0.98271 0.0
H1847 H 0.89093 0.33386 0.01545 0.0
C1848 C 0.8589 0.31675 0.99723 0.0
C1849 C 0.83839 0.32024 0.98075 0.0
C1850 C 0.8804 0.40731 0.99044 0.0
C1851 C 0.87015 0.36093 0.9926 0.0
C1852 C 0.89768 0.42707 0.99336 0.0
C1853 C 0.92206 0.42232 0.00272 0.0
C1854 C 0.88741 0.38262 0.99714 0.0
C1855 C 0.92808 0.39745 0.00978 0.0
C1856 C 0.87492 0.33699 0.00305 0.0
C1857 C 0.83405 0.34456 0.97112 0.0
N1858 N 0.91093 0.37857 0.0068 0.0
N1859 N 0.84977 0.36391 0.97715 0.0
H1860 H 0.65511 0.80473 0.01185 0.0
H1861 H 0.61522 0.94981 0.00077 0.0
H1862 H 0.70784 0.86677 0.01284 0.0
H1863 H 0.56077 0.88931 0.00567 0.0
H1864 H 0.64914 0.91907 0.00181 0.0
H1865 H 0.62046 0.8347 0.00581 0.0
C1866 C 0.65947 0.82462 0.01041 0.0
C1867 C 0.68449 0.83322 0.01289 0.0
C1868 C 0.6298 0.91244 0.00261 0.0
C1869 C 0.64478 0.86769 0.00636 0.0
C1870 C 0.61027 0.93004 0.00205 0.0
C1871 C 0.58489 0.92227 0.00331 0.0
C1872 C 0.62415 0.88668 0.00447 0.0
C1873 C 0.57997 0.89626 0.00472 0.0
C1874 C 0.63963 0.84174 0.00718 0.0
C1875 C 0.68888 0.85927 0.01132 0.0
N1876 N 0.59942 0.87941 0.00536 0.0
N1877 N 0.66925 0.87553 0.00823 0.0
H1878 H 0.87284 0.71093 0.01742 0.0
H1879 H 0.8915 0.5626 0.99671 0.0
H1880 H 0.81085 0.66021 0.00262 0.0
H1881 H 0.95292 0.61614 0.0008 0.0
H1882 H 0.86151 0.59779 0.99807 0.0
H1883 H 0.90242 0.67625 0.01037 0.0
C1884 C 0.86547 0.69252 0.01247 0.0
C1885 C 0.83934 0.68848 0.01064 0.0
C1886 C 0.88157 0.60177 0.99851 0.0
C1887 C 0.8731 0.6485 0.00276 0.0
C1888 C 0.89874 0.58167 0.99778 0.0
C1889 C 0.92488 0.58626 0.99876 0.0
C1890 C 0.89058 0.62664 1.00038 0.0
C1891 C 0.93302 0.61148 1.00008 0.0
C1892 C 0.88236 0.6727 0.00841 0.0
C1893 C 0.83086 0.66425 0.00398 0.0
N1894 N 0.91599 0.6306 0.00098 0.0
N1895 N 0.84766 0.64512 0.00053 0.0
H1896 H 0.29369 0.87279 0.99144 0.0
H1897 H 0.44362 0.89066 0.00516 0.0
H1898 H 0.34573 0.81047 0.99752 0.0
H1899 H 0.3899 0.952 0.00521 0.0
H1900 H 0.40829 0.86081 0.00358 0.0
H1901 H 0.32888 0.90197 0.99783 0.0
C1902 C 0.31249 0.86523 0.99428 0.0
C1903 C 0.31669 0.8391 0.99391 0.0
C1904 C 0.4043 0.88082 0.00406 0.0
C1905 C 0.35727 0.87248 0.00111 0.0
C1906 C 0.42449 0.89791 0.00496 0.0
C1907 C 0.4199 0.924 0.00523 0.0
C1908 C 0.3793 0.88985 0.00334 0.0
C1909 C 0.39458 0.93215 0.00492 0.0
C1910 C 0.33261 0.8819 0.99798 0.0
C1911 C 0.3415 0.83043 0.99795 0.0
N1912 N 0.37536 0.9152 0.00389 0.0
N1913 N 0.36084 0.84705 0.00117 0.0
H1914 H 0.71244 0.134 0.98919 0.0
H1915 H 0.56281 0.11522 0.00472 0.0
H1916 H 0.66019 0.19593 0.99725 0.0
H1917 H 0.61672 0.05407 0.00287 0.0
H1918 H 0.598 0.14522 0.003 0.0
H1919 H 0.67747 0.10452 0.99537 0.0
C1920 C 0.69364 0.14141 0.99242 0.0
C1921 C 0.68932 0.16752 0.99268 0.0
C1922 C 0.60207 0.12521 0.00308 0.0
C1923 C 0.649 0.1338 0.99965 0.0
C1924 C 0.58196 0.10804 0.00404 0.0
C1925 C 0.58664 0.08196 0.00385 0.0
C1926 C 0.62708 0.11629 0.00185 0.0
C1927 C 0.61198 0.07392 0.00298 0.0
C1928 C 0.67365 0.12457 0.996 0.0
C1929 C 0.66453 0.17599 0.9972 0.0
N1930 N 0.63112 0.09095 0.00192 0.0
N1931 N 0.64531 0.15921 1.0003 0.0
H1932 H 0.4991 0.70099 0.84852 0.0
H1933 H 0.50621 0.55626 0.89042 0.0
H1934 H 0.48887 0.63808 0.79776 0.0
H1935 H 0.50362 0.61739 0.94448 0.0
H1936 H 0.50502 0.58663 0.8562 0.0
H1937 H 0.50619 0.67134 0.88343 0.0
C1938 C 0.49877 0.68094 0.84463 0.0
C1939 C 0.49335 0.67198 0.82017 0.0
C1940 C 0.50475 0.59348 0.87552 0.0
C1941 C 0.50115 0.63801 0.86007 0.0
C1942 C 0.50543 0.5761 0.89523 0.0
C1943 C 0.50479 0.58415 0.9206 0.0
C1944 C 0.50347 0.61932 0.88094 0.0
C1945 C 0.50404 0.61023 0.9253 0.0
C1946 C 0.50259 0.66405 0.86461 0.0
C1947 C 0.49275 0.64582 0.81633 0.0
N1948 N 0.5033 0.6269 0.90564 0.0
N1949 N 0.49653 0.62981 0.83605 0.0
H1950 H 0.37001 0.49155 0.79417 0.0
H1951 H 0.38891 0.50332 0.94434 0.0
H1952 H 0.30774 0.49454 0.84676 0.0
H1953 H 0.44963 0.50735 0.88983 0.0
H1954 H 0.3586 0.50138 0.90923 0.0
H1955 H 0.39925 0.49879 0.82926 0.0
C1956 C 0.36247 0.49391 0.81308 0.0
C1957 C 0.33637 0.4924 0.81748 0.0
C1958 C 0.37857 0.50283 0.90503 0.0
C1959 C 0.36981 0.50053 0.85794 0.0
C1960 C 0.39591 0.50393 0.92509 0.0
C1961 C 0.42198 0.50537 0.92019 0.0
C1962 C 0.38734 0.5031 0.87989 0.0
C1963 C 0.42982 0.5061 0.89474 0.0
C1964 C 0.37918 0.49809 0.83315 0.0
C1965 C 0.32769 0.49583 0.84242 0.0
N1966 N 0.41264 0.50484 0.87567 0.0
N1967 N 0.34436 0.49951 0.86172 0.0
H1968 H 0.5065 0.366 0.79471 0.0
H1969 H 0.51485 0.39338 0.94407 0.0
H1970 H 0.54476 0.31785 0.84817 0.0
H1971 H 0.49303 0.44993 0.88946 0.0
H1972 H 0.51991 0.36311 0.90956 0.0
H1973 H 0.49547 0.39469 0.82968 0.0
C1974 C 0.51237 0.36139 0.8138 0.0
C1975 C 0.52683 0.33972 0.81852 0.0
C1976 C 0.51389 0.38212 0.90514 0.0
C1977 C 0.51425 0.37219 0.8585 0.0
C1978 C 0.51089 0.39942 0.92488 0.0
C1979 C 0.50365 0.42436 0.91974 0.0
C1980 C 0.50948 0.38968 0.88001 0.0
C1981 C 0.49887 0.431 0.89438 0.0
C1982 C 0.5062 0.37777 0.83371 0.0
C1983 C 0.53397 0.33459 0.84362 0.0
N1984 N 0.50192 0.41381 0.87549 0.0
N1985 N 0.52766 0.35068 0.8626 0.0
H1986 H 0.69788 0.4962 0.84646 0.0
H1987 H 0.55338 0.50399 0.88977 0.0
H1988 H 0.63441 0.48283 0.79693 0.0
H1989 H 0.61531 0.50279 0.94317 0.0
H1990 H 0.58338 0.50142 0.85526 0.0
H1991 H 0.66849 0.50403 0.88142 0.0
C1992 C 0.67775 0.4953 0.84284 0.0
C1993 C 0.66856 0.48885 0.81871 0.0
C1994 C 0.59048 0.50176 0.87449 0.0
C1995 C 0.6349 0.4975 0.8587 0.0
C1996 C 0.57331 0.50325 0.89437 0.0
C1997 C 0.58171 0.50344 0.91965 0.0
C1998 C 0.61643 0.5005 0.87967 0.0
C1999 C 0.6079 0.5026 0.92407 0.0
C2000 C 0.66102 0.49955 0.86286 0.0
C2001 C 0.64232 0.48753 0.81524 0.0
N2002 N 0.62434 0.50109 0.90426 0.0
N2003 N 0.62644 0.49178 0.83499 0.0
H2004 H 0.50718 0.36003 0.20639 0.0
H2005 H 0.48197 0.394 0.06061 0.0
H2006 H 0.45063 0.32346 0.16046 0.0
H2007 H 0.5165 0.44622 0.11296 0.0
H2008 H 0.47693 0.36379 0.0953 0.0
H2009 H 0.51717 0.38795 0.17051 0.0
C2010 C 0.497 0.35783 0.18873 0.0
C2011 C 0.47785 0.33969 0.18644 0.0
C2012 C 0.48573 0.38183 0.09913 0.0
C2013 C 0.48932 0.37111 0.14541 0.0
C2014 C 0.48874 0.39903 0.07931 0.0
C2015 C 0.49949 0.42278 0.08389 0.0
C2016 C 0.49383 0.38826 0.12365 0.0
C2017 C 0.50783 0.42825 0.10859 0.0
C2018 C 0.50262 0.37375 0.16834 0.0
C2019 C 0.46524 0.33751 0.16313 0.0
N2020 N 0.50482 0.41114 0.12753 0.0
N2021 N 0.47121 0.35298 0.14354 0.0
H2022 H 0.64905 0.49466 0.20504 0.0
H2023 H 0.6116 0.52138 0.06068 0.0
H2024 H 0.6812 0.55495 0.16086 0.0
H2025 H 0.55969 0.48696 0.11333 0.0
H2026 H 0.6421 0.52667 0.09518 0.0
H2027 H 0.62053 0.48475 0.16946 0.0
C2028 C 0.65015 0.50568 0.18781 0.0
C2029 C 0.66723 0.5258 0.1859 0.0
C2030 C 0.62408 0.51781 0.09911 0.0
C2031 C 0.63523 0.5144 0.14524 0.0
C2032 C 0.60673 0.51464 0.07941 0.0
C2033 C 0.583 0.50383 0.08415 0.0
C2034 C 0.61785 0.50975 0.12366 0.0
C2035 C 0.57768 0.4956 0.10888 0.0
C2036 C 0.63389 0.5001 0.16761 0.0
C2037 C 0.66802 0.5395 0.16318 0.0
N2038 N 0.59498 0.49869 0.12771 0.0
N2039 N 0.65233 0.53351 0.14373 0.0
H2040 H 0.55909 0.67772 0.16694 0.0
H2041 H 0.48357 0.56061 0.1128 0.0
H2042 H 0.49052 0.6521 0.20259 0.0
H2043 H 0.52616 0.61035 0.06431 0.0
H2044 H 0.48858 0.5908 0.14764 0.0
H2045 H 0.55044 0.64992 0.13092 0.0
C2046 C 0.54224 0.66612 0.16718 0.0
C2047 C 0.52556 0.66704 0.18781 0.0
C2048 C 0.49662 0.59517 0.12931 0.0
C2049 C 0.51563 0.63508 0.14672 0.0
C2050 C 0.49387 0.57794 0.10944 0.0
C2051 C 0.50447 0.58297 0.08558 0.0
C2052 C 0.51061 0.61733 0.12551 0.0
C2053 C 0.51753 0.60578 0.08231 0.0
C2054 C 0.53723 0.65042 0.14656 0.0
C2055 C 0.50383 0.65188 0.18704 0.0
N2056 N 0.52052 0.62194 0.10213 0.0
N2057 N 0.49962 0.63627 0.16695 0.0
H2058 H 0.30481 0.5127 0.15583 0.0
H2059 H 0.45012 0.50176 0.11547 0.0
H2060 H 0.36718 0.51447 0.20849 0.0
H2061 H 0.38909 0.50562 0.06117 0.0
H2062 H 0.41949 0.50314 0.14959 0.0
H2063 H 0.33475 0.50639 0.12113 0.0
C2064 C 0.32477 0.51137 0.16017 0.0
C2065 C 0.33347 0.51415 0.18518 0.0
C2066 C 0.41273 0.50363 0.13024 0.0
C2067 C 0.36791 0.50733 0.1454 0.0
C2068 C 0.43026 0.50285 0.1106 0.0
C2069 C 0.4223 0.5037 0.08519 0.0
C2070 C 0.38686 0.50529 0.12468 0.0
C2071 C 0.3962 0.505 0.08039 0.0
C2072 C 0.34187 0.50799 0.14029 0.0
C2073 C 0.35961 0.51272 0.18953 0.0
N2074 N 0.37942 0.50583 0.09994 0.0
N2075 N 0.37585 0.50948 0.16986 0.0
H2076 H 0.79674 0.46101 0.63135 0.0
H2077 H 0.9378 0.51154 0.61509 0.0
H2078 H 0.83363 0.50488 0.68932 0.0
H2079 H 0.88996 0.48935 0.55263 0.0
H2080 H 0.90131 0.50726 0.64365 0.0
H2081 H 0.83204 0.46964 0.60281 0.0
C2082 C 0.81218 0.47274 0.63791 0.0
C2083 C 0.81226 0.48236 0.66261 0.0
C2084 C 0.8989 0.50351 0.62364 0.0
C2085 C 0.85302 0.4919 0.63032 0.0
C2086 C 0.91972 0.5058 0.60738 0.0
C2087 C 0.917 0.50085 0.5814 0.0
C2088 C 0.87539 0.49585 0.61384 0.0
C2089 C 0.89305 0.49357 0.57245 0.0
C2090 C 0.83235 0.47764 0.62167 0.0
C2091 C 0.83277 0.49737 0.67027 0.0
N2092 N 0.87332 0.49116 0.58862 0.0
N2093 N 0.85251 0.50146 0.65427 0.0
H2094 H 0.49292 0.79835 0.63767 0.0
H2095 H 0.49987 0.94786 0.61659 0.0
H2096 H 0.49267 0.85202 0.69908 0.0
H2097 H 0.5047 0.89288 0.55639 0.0
H2098 H 0.49878 0.91332 0.64736 0.0
H2099 H 0.49894 0.833 0.60781 0.0
C2100 C 0.49428 0.81741 0.64489 0.0
C2101 C 0.49224 0.82224 0.67093 0.0
C2102 C 0.50019 0.90889 0.6274 0.0
C2103 C 0.49903 0.86216 0.6368 0.0
C2104 C 0.5008 0.92862 0.60979 0.0
C2105 C 0.50223 0.92341 0.58375 0.0
C2106 C 0.50096 0.88376 0.61893 0.0
C2107 C 0.50343 0.898 0.57618 0.0
C2108 C 0.49777 0.83722 0.62784 0.0
C2109 C 0.49441 0.84735 0.6792 0.0
N2110 N 0.50266 0.87923 0.59363 0.0
N2111 N 0.49749 0.86637 0.6622 0.0
H2112 H 0.1601 0.44854 0.68354 0.0
H2113 H 0.10975 0.52221 0.56323 0.0
H2114 H 0.2002 0.51228 0.65281 0.0
H2115 H 0.05963 0.48247 0.61377 0.0
H2116 H 0.14409 0.51689 0.59386 0.0
H2117 H 0.12412 0.45838 0.65611 0.0
C2118 C 0.16131 0.4646 0.67093 0.0
C2119 C 0.18321 0.47952 0.67025 0.0
C2120 C 0.12552 0.50957 0.59835 0.0
C2121 C 0.14214 0.49083 0.63876 0.0
C2122 C 0.10593 0.5125 0.58086 0.0
C2123 C 0.08179 0.50271 0.58594 0.0
C2124 C 0.12114 0.49626 0.62088 0.0
C2125 C 0.0779 0.49043 0.60915 0.0
C2126 C 0.14072 0.4703 0.65544 0.0
C2127 C 0.18367 0.50031 0.65386 0.0
N2128 N 0.09746 0.48726 0.62561 0.0
N2129 N 0.16353 0.5052 0.63851 0.0
H2130 H 0.55479 0.16626 0.67832 0.0
H2131 H 0.47932 0.11464 0.55977 0.0
H2132 H 0.48825 0.2045 0.6511 0.0
H2133 H 0.51997 0.06539 0.61047 0.0
H2134 H 0.48458 0.14919 0.5902 0.0
H2135 H 0.54503 0.13055 0.65064 0.0
C2136 C 0.53813 0.16711 0.66641 0.0
C2137 C 0.52238 0.18838 0.66681 0.0
C2138 C 0.4921 0.13075 0.59474 0.0
C2139 C 0.51116 0.14764 0.63499 0.0
C2140 C 0.4892 0.11104 0.57737 0.0
C2141 C 0.49925 0.08707 0.58257 0.0
C2142 C 0.50566 0.12663 0.6172 0.0
C2143 C 0.51179 0.08349 0.60573 0.0
C2144 C 0.53249 0.14668 0.65077 0.0
C2145 C 0.50086 0.18843 0.65126 0.0
N2146 N 0.51493 0.10313 0.62202 0.0
N2147 N 0.49602 0.16847 0.63571 0.0
H2148 H 0.84848 0.51499 0.30499 0.0
H2149 H 0.88999 0.50444 0.45029 0.0
H2150 H 0.797 0.5193 0.36814 0.0
H2151 H 0.9441 0.50863 0.38919 0.0
H2152 H 0.85592 0.50601 0.41973 0.0
H2153 H 0.88348 0.50838 0.33467 0.0
C2154 C 0.84446 0.51413 0.32507 0.0
C2155 C 0.81971 0.51774 0.33408 0.0
C2156 C 0.8752 0.50657 0.4129 0.0
C2157 C 0.8598 0.51055 0.36816 0.0
C2158 C 0.89485 0.50569 0.43042 0.0
C2159 C 0.9202 0.5066 0.42245 0.0
C2160 C 0.88065 0.50836 0.387 0.0
C2161 C 0.92493 0.50801 0.3963 0.0
C2162 C 0.86451 0.5106 0.34201 0.0
C2163 C 0.81575 0.51687 0.36033 0.0
N2164 N 0.90533 0.50892 0.3795 0.0
N2165 N 0.83555 0.51344 0.37639 0.0
H2166 H 0.49512 0.80009 0.36036 0.0
H2167 H 0.52334 0.94478 0.39419 0.0
H2168 H 0.55485 0.84321 0.32571 0.0
H2169 H 0.48703 0.89399 0.44659 0.0
H2170 H 0.52862 0.90965 0.36445 0.0
H2171 H 0.48567 0.83633 0.38799 0.0
C2172 C 0.50612 0.81721 0.35851 0.0
C2173 C 0.52597 0.81858 0.34098 0.0
C2174 C 0.51938 0.90626 0.38242 0.0
C2175 C 0.51511 0.86007 0.37208 0.0
C2176 C 0.51622 0.92634 0.39933 0.0
C2177 C 0.50486 0.92232 0.42299 0.0
C2178 C 0.51074 0.88207 0.389 0.0
C2179 C 0.49614 0.89792 0.42867 0.0
C2180 C 0.50081 0.83781 0.37429 0.0
C2181 C 0.53964 0.84123 0.33927 0.0
N2182 N 0.49922 0.87875 0.41181 0.0
N2183 N 0.53393 0.86106 0.35454 0.0
H2184 H 0.15842 0.50577 0.3091 0.0
H2185 H 0.11498 0.50297 0.45416 0.0
H2186 H 0.20841 0.5189 0.3723 0.0
H2187 H 0.06207 0.50159 0.3918 0.0
H2188 H 0.14966 0.50397 0.42415 0.0
H2189 H 0.12354 0.49897 0.33879 0.0
C2190 C 0.16217 0.50679 0.32924 0.0
C2191 C 0.1864 0.51295 0.33823 0.0
C2192 C 0.13049 0.5034 0.41697 0.0
C2193 C 0.14646 0.50553 0.37229 0.0
C2194 C 0.11053 0.50282 0.43415 0.0
C2195 C 0.08535 0.50236 0.42561 0.0
C2196 C 0.12546 0.50348 0.3909 0.0
C2197 C 0.08109 0.50204 0.39934 0.0
C2198 C 0.14218 0.50314 0.34616 0.0
C2199 C 0.19002 0.51444 0.36451 0.0
N2200 N 0.10095 0.50268 0.38291 0.0
N2201 N 0.17028 0.51083 0.38057 0.0
H2202 H 0.49011 0.15777 0.30454 0.0
H2203 H 0.50212 0.11667 0.4498 0.0
H2204 H 0.48806 0.20957 0.36752 0.0
H2205 H 0.49763 0.06278 0.38859 0.0
H2206 H 0.50065 0.15071 0.41926 0.0
H2207 H 0.49695 0.12298 0.33422 0.0
C2208 C 0.49151 0.16191 0.32457 0.0
C2209 C 0.48846 0.1867 0.33353 0.0
C2210 C 0.50003 0.13147 0.41241 0.0
C2211 C 0.4959 0.14681 0.36765 0.0
C2212 C 0.50084 0.11186 0.42991 0.0
C2213 C 0.4998 0.08658 0.42189 0.0
C2214 C 0.49815 0.12605 0.38649 0.0
C2215 C 0.49838 0.08189 0.39573 0.0
C2216 C 0.49519 0.14197 0.34152 0.0
C2217 C 0.49001 0.19078 0.35974 0.0
N2218 N 0.4975 0.10143 0.37897 0.0
N2219 N 0.49354 0.17108 0.37582 0.0
H2220 H 0.68433 0.8495 0.45381 0.0
H2221 H 0.5597 0.89697 0.52236 0.0
H2222 H 0.64859 0.80647 0.513 0.0
H2223 H 0.61135 0.94782 0.48515 0.0
H2224 H 0.59072 0.86305 0.51793 0.0
H2225 H 0.65654 0.88506 0.46346 0.0
C2226 C 0.67057 0.84757 0.46886 0.0
C2227 C 0.66857 0.82493 0.48248 0.0
C2228 C 0.59537 0.88168 0.51097 0.0
C2229 C 0.63661 0.8656 0.49361 0.0
C2230 C 0.57765 0.90106 0.5134 0.0
C2231 C 0.5829 0.92529 0.50402 0.0
C2232 C 0.61837 0.88637 0.49863 0.0
C2233 C 0.60654 0.92949 0.49276 0.0
C2234 C 0.65483 0.86793 0.47447 0.0
C2235 C 0.65069 0.82358 0.50204 0.0
N2236 N 0.62327 0.91014 0.49008 0.0
N2237 N 0.63517 0.84354 0.50683 0.0
H2238 H 0.63126 0.21331 0.4823 0.0
H2239 H 0.61119 0.0657 0.50748 0.0
H2240 H 0.69204 0.16264 0.50174 0.0
H2241 H 0.55011 0.11846 0.4957 0.0
H2242 H 0.64114 0.10085 0.506 0.0
H2243 H 0.60118 0.17879 0.48803 0.0
C2244 C 0.63826 0.19496 0.48795 0.0
C2245 C 0.66423 0.1909 0.49152 0.0
C2246 C 0.62116 0.1047 0.50383 0.0
C2247 C 0.62988 0.15115 0.49797 0.0
C2248 C 0.60403 0.0846 0.50458 0.0
C2249 C 0.57801 0.08899 0.50163 0.0
C2250 C 0.61226 0.12938 0.49996 0.0
C2251 C 0.56993 0.11401 0.49811 0.0
C2252 C 0.62108 0.17525 0.49126 0.0
C2253 C 0.67218 0.16675 0.49906 0.0
N2254 N 0.58696 0.13316 0.49727 0.0
N2255 N 0.65512 0.14776 0.50183 0.0
H2256 H 0.79508 0.63986 0.49018 0.0
H2257 H 0.94494 0.61867 0.50176 0.0
H2258 H 0.84867 0.70111 0.49289 0.0
H2259 H 0.88975 0.55865 0.50085 0.0
H2260 H 0.91031 0.64939 0.49996 0.0
H2261 H 0.82981 0.61005 0.49583 0.0
C2262 C 0.81414 0.64707 0.49209 0.0
C2263 C 0.81888 0.67308 0.49099 0.0
C2264 C 0.90585 0.62947 0.50023 0.0
C2265 C 0.85897 0.63892 0.49742 0.0
C2266 C 0.92564 0.61189 0.5012 0.0
C2267 C 0.92043 0.58591 0.50136 0.0
C2268 C 0.88065 0.62105 0.49937 0.0
C2269 C 0.89492 0.57839 0.50072 0.0
C2270 C 0.83401 0.63002 0.49537 0.0
C2271 C 0.84402 0.68127 0.4939 0.0
N2272 N 0.87612 0.5958 0.49969 0.0
N2273 N 0.8631 0.66427 0.49679 0.0
H2274 H 0.3704 0.79507 0.48859 0.0
H2275 H 0.38894 0.9444 0.50331 0.0
H2276 H 0.30833 0.84747 0.49486 0.0
H2277 H 0.45047 0.89092 0.50028 0.0
H2278 H 0.35902 0.90925 0.50164 0.0
H2279 H 0.39995 0.83 0.4945 0.0
C2280 C 0.36297 0.8139 0.49135 0.0
C2281 C 0.33681 0.81829 0.49119 0.0
C2282 C 0.37908 0.90526 0.50144 0.0
C2283 C 0.3706 0.85851 0.49789 0.0
C2284 C 0.39622 0.92535 0.50234 0.0
C2285 C 0.42237 0.92076 0.50185 0.0
C2286 C 0.38812 0.88037 0.49996 0.0
C2287 C 0.43055 0.89555 0.50068 0.0
C2288 C 0.37986 0.83386 0.49477 0.0
C2289 C 0.32831 0.8431 0.49514 0.0
N2290 N 0.41353 0.8764 0.49969 0.0
N2291 N 0.34513 0.86227 0.49815 0.0
H2292 H 0.15882 0.32223 0.55529 0.0
H2293 H 0.11071 0.44715 0.48789 0.0
H2294 H 0.20308 0.36053 0.49864 0.0
H2295 H 0.05984 0.39423 0.52322 0.0
H2296 H 0.14516 0.41681 0.49275 0.0
H2297 H 0.12289 0.34945 0.54523 0.0
C2298 C 0.16095 0.33643 0.54071 0.0
C2299 C 0.18404 0.33932 0.52794 0.0
C2300 C 0.12643 0.41172 0.49922 0.0
C2301 C 0.14293 0.37062 0.51634 0.0
C2302 C 0.10674 0.42907 0.49655 0.0
C2303 C 0.08232 0.42328 0.50528 0.0
C2304 C 0.12188 0.38853 0.51112 0.0
C2305 C 0.0783 0.39947 0.51614 0.0
C2306 C 0.14038 0.35184 0.53486 0.0
C2307 C 0.18563 0.35773 0.50895 0.0
N2308 N 0.09794 0.3831 0.51905 0.0
N2309 N 0.16543 0.37291 0.50392 0.0
H2310 H 0.34896 0.2025 0.48643 0.0
H2311 H 0.39115 0.06299 0.52568 0.0
H2312 H 0.32648 0.16771 0.5566 0.0
H2313 H 0.43882 0.11147 0.48079 0.0
H2314 H 0.36098 0.09788 0.53041 0.0
H2315 H 0.37626 0.16585 0.47758 0.0
C2316 C 0.34972 0.1871 0.49986 0.0
C2317 C 0.33575 0.18816 0.52238 0.0
C2318 C 0.37797 0.10075 0.51936 0.0
C2319 C 0.36626 0.1462 0.51222 0.0
C2320 C 0.39508 0.08083 0.51651 0.0
C2321 C 0.41759 0.08438 0.50295 0.0
C2322 C 0.38315 0.12421 0.50813 0.0
C2323 C 0.42181 0.10799 0.49161 0.0
C2324 C 0.36526 0.16628 0.49486 0.0
C2325 C 0.33725 0.1677 0.53917 0.0
N2326 N 0.40475 0.12698 0.49441 0.0
N2327 N 0.35213 0.14753 0.53372 0.0
H2328 H 0.79708 0.37394 0.46482 0.0
H2329 H 0.93861 0.39396 0.51343 0.0
H2330 H 0.83583 0.31801 0.50952 0.0
H2331 H 0.88995 0.45444 0.48838 0.0
H2332 H 0.90247 0.36493 0.5106 0.0
H2333 H 0.83202 0.4032 0.47213 0.0
C2334 C 0.81286 0.36797 0.47645 0.0
C2335 C 0.81356 0.34361 0.48667 0.0
C2336 C 0.8998 0.38461 0.50589 0.0
C2337 C 0.85393 0.37677 0.49473 0.0
C2338 C 0.92043 0.40116 0.50737 0.0
C2339 C 0.91742 0.42674 0.50116 0.0
C2340 C 0.87613 0.39367 0.49784 0.0
C2341 C 0.89332 0.43497 0.4935 0.0
C2342 C 0.83283 0.38463 0.4806 0.0
C2343 C 0.83448 0.33676 0.50155 0.0
N2344 N 0.87377 0.41852 0.49194 0.0
N2345 N 0.85401 0.35316 0.50492 0.0
H2346 H 0.21058 0.63366 0.48811 0.0
H2347 H 0.06146 0.61635 0.50692 0.0
H2348 H 0.15983 0.69612 0.50033 0.0
H2349 H 0.11491 0.55476 0.50551 0.0
H2350 H 0.0969 0.64605 0.50515 0.0
H2351 H 0.17551 0.60453 0.49523 0.0
C2352 C 0.19208 0.64123 0.49249 0.0
C2353 C 0.18815 0.66736 0.49361 0.0
C2354 C 0.1008 0.62602 0.50538 0.0
C2355 C 0.14774 0.63412 0.50158 0.0
C2356 C 0.08056 0.60902 0.50637 0.0
C2357 C 0.08505 0.58291 0.50626 0.0
C2358 C 0.12571 0.61687 0.50413 0.0
C2359 C 0.11031 0.57464 0.50553 0.0
C2360 C 0.17204 0.6246 0.49659 0.0
C2361 C 0.16378 0.67611 0.49954 0.0
N2362 N 0.12957 0.59151 0.50436 0.0
N2363 N 0.14446 0.65955 0.50307 0.0
loop_
_geom_bond_atom_site_label_1
_geom_bond_atom_site_label_2
_geom_bond_distance
_geom_bond_site_symmetry_2
_ccdc_geom_bond_type
P0 O11 1.490 . S
P0 C14 1.812 . S
P0 C20 1.803 . S
P0 C26 1.819 . S
H1 C15 0.941 . S
H2 C16 0.939 . S
H3 C18 0.940 . S
H4 C19 0.940 . S
H5 C21 0.939 . S
H6 C22 0.942 . S
H7 C24 0.940 . S
H8 C25 0.939 . S
H9 C27 0.941 . S
H10 C31 0.939 1_455 S
O11 P0 1.490 . S
H12 C28 0.939 . S
H13 C30 0.940 . S
C14 P0 1.812 . S
C14 C15 1.389 . S
C14 C19 1.391 1_655 S
C15 H1 0.941 . S
C15 C14 1.389 . S
C15 C16 1.397 . S
C16 H2 0.939 . S
C16 C15 1.397 . S
C16 C17 1.378 . S
C17 C16 1.378 . S
C17 C18 1.378 1_655 S
C18 H3 0.940 . S
C18 C17 1.378 1_455 S
C18 C19 1.396 . S
C19 H4 0.940 . S
C19 C14 1.391 1_455 S
C19 C18 1.396 . S
C20 P0 1.803 . S
C20 C21 1.378 . S
C20 C25 1.400 1_655 S
C21 H5 0.939 . S
C21 C20 1.378 . S
C21 C22 1.361 . S
C22 H6 0.942 . S
C22 C21 1.361 . S
C22 C23 1.369 . S
C23 C22 1.369 . S
C23 C24 1.404 1_655 S
C24 H7 0.940 . S
C24 C23 1.404 1_455 S
C24 C25 1.389 . S
C25 H8 0.939 . S
C25 C20 1.400 1_455 S
C25 C24 1.389 . S
C26 P0 1.819 . S
C26 C27 1.391 . S
C26 C31 1.391 . S
C27 H9 0.941 . S
C27 C26 1.391 . S
C27 C28 1.396 . S
C28 H12 0.939 . S
C28 C27 1.396 . S
C28 C29 1.397 . S
C29 C28 1.397 . S
C29 C30 1.385 1_655 S
C30 H13 0.940 . S
C30 C29 1.385 1_455 S
C30 C31 1.388 1_455 S
C31 H10 0.939 1_655 S
C31 C26 1.391 . S
C31 C30 1.388 1_655 S
P32 O43 1.490 . S
P32 C46 1.812 . S
P32 C52 1.803 . S
P32 C58 1.819 . S
H33 C47 0.941 . S
H34 C48 0.939 . S
H35 C50 0.940 . S
H36 C51 0.940 . S
H37 C53 0.939 . S
H38 C54 0.942 . S
H39 C56 0.940 . S
H40 C57 0.939 . S
H41 C59 0.941 . S
H42 C63 0.939 1_545 S
O43 P32 1.490 . S
H44 C60 0.939 . S
H45 C62 0.940 . S
C46 P32 1.812 . S
C46 C47 1.389 . S
C46 C51 1.391 1_565 S
C47 H33 0.941 . S
C47 C46 1.389 . S
C47 C48 1.397 . S
C48 H34 0.939 . S
C48 C47 1.397 . S
C48 C49 1.378 . S
C49 C48 1.378 . S
C49 C50 1.378 1_565 S
C50 H35 0.940 . S
C50 C49 1.378 1_545 S
C50 C51 1.396 . S
C51 H36 0.940 . S
C51 C46 1.391 1_545 S
C51 C50 1.396 . S
C52 P32 1.803 . S
C52 C53 1.378 . S
C52 C57 1.400 1_565 S
C53 H37 0.939 . S
C53 C52 1.378 . S
C53 C54 1.361 . S
C54 H38 0.942 . S
C54 C53 1.361 . S
C54 C55 1.369 . S
C55 C54 1.369 . S
C55 C56 1.404 1_565 S
C56 H39 0.940 . S
C56 C55 1.404 1_545 S
C56 C57 1.389 . S
C57 H40 0.939 . S
C57 C52 1.400 1_545 S
C57 C56 1.389 . S
C58 P32 1.819 . S
C58 C59 1.391 . S
C58 C63 1.391 . S
C59 H41 0.941 . S
C59 C58 1.391 . S
C59 C60 1.396 . S
C60 H44 0.939 . S
C60 C59 1.396 . S
C60 C61 1.397 . S
C61 C60 1.397 . S
C61 C62 1.385 1_565 S
C62 H45 0.940 . S
C62 C61 1.385 1_545 S
C62 C63 1.388 1_545 S
C63 H42 0.939 1_565 S
C63 C58 1.391 . S
C63 C62 1.388 1_565 S
P64 O75 1.490 . S
P64 C78 1.812 . S
P64 C84 1.803 . S
P64 C90 1.819 . S
H65 C79 0.941 . S
H66 C80 0.939 . S
H67 C82 0.940 . S
H68 C83 0.940 1_655 S
H69 C85 0.939 . S
H70 C86 0.942 . S
H71 C88 0.940 . S
H72 C89 0.939 1_655 S
H73 C91 0.941 . S
H74 C95 0.939 . S
O75 P64 1.490 . S
H76 C92 0.939 . S
H77 C94 0.940 . S
C78 P64 1.812 . S
C78 C79 1.389 . S
C78 C83 1.391 . S
C79 H65 0.941 . S
C79 C78 1.389 . S
C79 C80 1.397 . S
C80 H66 0.939 . S
C80 C79 1.397 . S
C80 C81 1.378 . S
C81 C80 1.378 . S
C81 C82 1.378 1_455 S
C82 H67 0.940 . S
C82 C81 1.378 1_655 S
C82 C83 1.396 1_655 S
C83 H68 0.940 1_455 S
C83 C78 1.391 . S
C83 C82 1.396 1_455 S
C84 P64 1.803 . S
C84 C85 1.378 . S
C84 C89 1.400 . S
C85 H69 0.939 . S
C85 C84 1.378 . S
C85 C86 1.361 . S
C86 H70 0.942 . S
C86 C85 1.361 . S
C86 C87 1.369 . S
C87 C86 1.369 . S
C87 C88 1.404 1_455 S
C88 H71 0.940 . S
C88 C87 1.404 1_655 S
C88 C89 1.389 1_655 S
C89 H72 0.939 1_455 S
C89 C84 1.400 . S
C89 C88 1.389 1_455 S
C90 P64 1.819 . S
C90 C91 1.391 . S
C90 C95 1.391 . S
C91 H73 0.941 . S
C91 C90 1.391 . S
C91 C92 1.396 . S
C92 H76 0.939 . S
C92 C91 1.396 . S
C92 C93 1.397 . S
C93 C92 1.397 . S
C93 C94 1.385 1_455 S
C94 H77 0.940 . S
C94 C93 1.385 1_655 S
C94 C95 1.388 1_655 S
C95 H74 0.939 . S
C95 C90 1.391 . S
C95 C94 1.388 1_455 S
P96 O107 1.490 . S
P96 C110 1.812 . S
P96 C116 1.803 . S
P96 C122 1.819 . S
H97 C111 0.941 . S
H98 C112 0.939 . S
H99 C114 0.940 . S
H100 C115 0.940 . S
H101 C117 0.939 . S
H102 C118 0.942 . S
H103 C120 0.940 . S
H104 C121 0.939 . S
H105 C123 0.941 . S
H106 C127 0.939 1_545 S
O107 P96 1.490 . S
H108 C124 0.939 . S
H109 C126 0.940 . S
C110 P96 1.812 . S
C110 C111 1.389 . S
C110 C115 1.391 1_565 S
C111 H97 0.941 . S
C111 C110 1.389 . S
C111 C112 1.397 . S
C112 H98 0.939 . S
C112 C111 1.397 . S
C112 C113 1.378 . S
C113 C112 1.378 . S
C113 C114 1.378 1_565 S
C114 H99 0.940 . S
C114 C113 1.378 1_545 S
C114 C115 1.396 . S
C115 H100 0.940 . S
C115 C110 1.391 1_545 S
C115 C114 1.396 . S
C116 P96 1.803 . S
C116 C117 1.378 . S
C116 C121 1.400 1_565 S
C117 H101 0.939 . S
C117 C116 1.378 . S
C117 C118 1.361 . S
C118 H102 0.942 . S
C118 C117 1.361 . S
C118 C119 1.369 . S
C119 C118 1.369 . S
C119 C120 1.404 1_565 S
C120 H103 0.940 . S
C120 C119 1.404 1_545 S
C120 C121 1.389 . S
C121 H104 0.939 . S
C121 C116 1.400 1_545 S
C121 C120 1.389 . S
C122 P96 1.819 . S
C122 C123 1.391 . S
C122 C127 1.391 . S
C123 H105 0.941 . S
C123 C122 1.391 . S
C123 C124 1.396 . S
C124 H108 0.939 . S
C124 C123 1.396 . S
C124 C125 1.397 . S
C125 C124 1.397 . S
C125 C126 1.385 1_565 S
C126 H109 0.940 . S
C126 C125 1.385 1_545 S
C126 C127 1.388 1_545 S
C127 H106 0.939 1_565 S
C127 C122 1.391 . S
C127 C126 1.388 1_565 S
P128 O139 1.490 . S
P128 C142 1.812 . S
P128 C148 1.803 . S
P128 C154 1.819 . S
H129 C143 0.941 . S
H130 C144 0.939 . S
H131 C146 0.940 . S
H132 C147 0.940 . S
H133 C149 0.939 . S
H134 C150 0.942 . S
H135 C152 0.940 . S
H136 C153 0.939 . S
H137 C155 0.941 . S
H138 C159 0.939 1_455 S
O139 P128 1.490 . S
H140 C156 0.939 . S
H141 C158 0.940 . S
C142 P128 1.812 . S
C142 C143 1.389 . S
C142 C147 1.391 1_655 S
C143 H129 0.941 . S
C143 C142 1.389 . S
C143 C144 1.397 . S
C144 H130 0.939 . S
C144 C143 1.397 . S
C144 C145 1.378 . S
C145 C144 1.378 . S
C145 C146 1.378 1_655 S
C146 H131 0.940 . S
C146 C145 1.378 1_455 S
C146 C147 1.396 . S
C147 H132 0.940 . S
C147 C142 1.391 1_455 S
C147 C146 1.396 . S
C148 P128 1.803 . S
C148 C149 1.378 . S
C148 C153 1.400 1_655 S
C149 H133 0.939 . S
C149 C148 1.378 . S
C149 C150 1.361 . S
C150 H134 0.942 . S
C150 C149 1.361 . S
C150 C151 1.369 . S
C151 C150 1.369 . S
C151 C152 1.404 1_655 S
C152 H135 0.940 . S
C152 C151 1.404 1_455 S
C152 C153 1.389 . S
C153 H136 0.939 . S
C153 C148 1.400 1_455 S
C153 C152 1.389 . S
C154 P128 1.819 . S
C154 C155 1.391 . S
C154 C159 1.391 . S
C155 H137 0.941 . S
C155 C154 1.391 . S
C155 C156 1.396 . S
C156 H140 0.939 . S
C156 C155 1.396 . S
C156 C157 1.397 . S
C157 C156 1.397 . S
C157 C158 1.385 1_655 S
C158 H141 0.940 . S
C158 C157 1.385 1_455 S
C158 C159 1.388 1_455 S
C159 H138 0.939 1_655 S
C159 C154 1.391 . S
C159 C158 1.388 1_655 S
P160 O171 1.490 . S
P160 C174 1.812 . S
P160 C180 1.803 . S
P160 C186 1.819 . S
H161 C175 0.941 . S
H162 C176 0.939 . S
H163 C178 0.940 . S
H164 C179 0.940 . S
H165 C181 0.939 . S
H166 C182 0.942 . S
H167 C184 0.940 . S
H168 C185 0.939 . S
H169 C187 0.941 . S
H170 C191 0.939 1_545 S
O171 P160 1.490 . S
H172 C188 0.939 . S
H173 C190 0.940 . S
C174 P160 1.812 . S
C174 C175 1.389 . S
C174 C179 1.391 1_565 S
C175 H161 0.941 . S
C175 C174 1.389 . S
C175 C176 1.397 . S
C176 H162 0.939 . S
C176 C175 1.397 . S
C176 C177 1.378 . S
C177 C176 1.378 . S
C177 C178 1.378 1_565 S
C178 H163 0.940 . S
C178 C177 1.378 1_545 S
C178 C179 1.396 . S
C179 H164 0.940 . S
C179 C174 1.391 1_545 S
C179 C178 1.396 . S
C180 P160 1.803 . S
C180 C181 1.378 . S
C180 C185 1.400 1_565 S
C181 H165 0.939 . S
C181 C180 1.378 . S
C181 C182 1.361 . S
C182 H166 0.942 . S
C182 C181 1.361 . S
C182 C183 1.369 . S
C183 C182 1.369 . S
C183 C184 1.404 1_565 S
C184 H167 0.940 . S
C184 C183 1.404 1_545 S
C184 C185 1.389 . S
C185 H168 0.939 . S
C185 C180 1.400 1_545 S
C185 C184 1.389 . S
C186 P160 1.819 . S
C186 C187 1.391 . S
C186 C191 1.391 . S
C187 H169 0.941 . S
C187 C186 1.391 . S
C187 C188 1.396 . S
C188 H172 0.939 . S
C188 C187 1.396 . S
C188 C189 1.397 . S
C189 C188 1.397 . S
C189 C190 1.385 1_565 S
C190 H173 0.940 . S
C190 C189 1.385 1_545 S
C190 C191 1.388 1_545 S
C191 H170 0.939 1_565 S
C191 C186 1.391 . S
C191 C190 1.388 1_565 S
P192 O203 1.490 . S
P192 C206 1.812 . S
P192 C212 1.803 . S
P192 C218 1.819 . S
H193 C207 0.941 . S
H194 C208 0.939 . S
H195 C210 0.940 . S
H196 C211 0.940 1_655 S
H197 C213 0.939 . S
H198 C214 0.942 . S
H199 C216 0.940 . S
H200 C217 0.939 1_655 S
H201 C219 0.941 . S
H202 C223 0.939 . S
O203 P192 1.490 . S
H204 C220 0.939 . S
H205 C222 0.940 . S
C206 P192 1.812 . S
C206 C207 1.389 . S
C206 C211 1.391 . S
C207 H193 0.941 . S
C207 C206 1.389 . S
C207 C208 1.397 . S
C208 H194 0.939 . S
C208 C207 1.397 . S
C208 C209 1.378 . S
C209 C208 1.378 . S
C209 C210 1.378 1_455 S
C210 H195 0.940 . S
C210 C209 1.378 1_655 S
C210 C211 1.396 1_655 S
C211 H196 0.940 1_455 S
C211 C206 1.391 . S
C211 C210 1.396 1_455 S
C212 P192 1.803 . S
C212 C213 1.378 . S
C212 C217 1.400 . S
C213 H197 0.939 . S
C213 C212 1.378 . S
C213 C214 1.361 . S
C214 H198 0.942 . S
C214 C213 1.361 . S
C214 C215 1.369 . S
C215 C214 1.369 . S
C215 C216 1.404 1_455 S
C216 H199 0.940 . S
C216 C215 1.404 1_655 S
C216 C217 1.389 1_655 S
C217 H200 0.939 1_455 S
C217 C212 1.400 . S
C217 C216 1.389 1_455 S
C218 P192 1.819 . S
C218 C219 1.391 . S
C218 C223 1.391 . S
C219 H201 0.941 . S
C219 C218 1.391 . S
C219 C220 1.396 . S
C220 H204 0.939 . S
C220 C219 1.396 . S
C220 C221 1.397 . S
C221 C220 1.397 . S
C221 C222 1.385 1_455 S
C222 H205 0.940 . S
C222 C221 1.385 1_655 S
C222 C223 1.388 1_655 S
C223 H202 0.939 . S
C223 C218 1.391 . S
C223 C222 1.388 1_455 S
P224 O235 1.490 . S
P224 C238 1.812 . S
P224 C244 1.803 . S
P224 C250 1.819 . S
H225 C239 0.941 . S
H226 C240 0.939 . S
H227 C242 0.940 . S
H228 C243 0.918 1_565 S
H229 C245 0.939 . S
H230 C246 0.942 . S
H231 C248 0.940 . S
H232 C249 0.928 1_565 S
H233 C251 0.941 . S
H234 C255 0.948 . S
O235 P224 1.490 . S
H236 C252 0.939 . S
H237 C254 0.940 . S
C238 P224 1.812 . S
C238 C239 1.389 . S
C238 C243 1.427 . S
C239 H225 0.941 . S
C239 C238 1.389 . S
C239 C240 1.397 . S
C240 H226 0.939 . S
C240 C239 1.397 . S
C240 C241 1.378 . S
C241 C240 1.378 . S
C241 C242 1.378 1_545 S
C242 H227 0.940 . S
C242 C241 1.378 1_565 S
C242 C243 1.383 1_565 S
C243 H228 0.918 1_545 S
C243 C238 1.427 . S
C243 C242 1.383 1_545 S
C244 P224 1.803 . S
C244 C245 1.378 . S
C244 C249 1.419 . S
C245 H229 0.939 . S
C245 C244 1.378 . S
C245 C246 1.361 . S
C246 H230 0.942 . S
C246 C245 1.361 . S
C246 C247 1.369 . S
C247 C246 1.369 . S
C247 C248 1.404 1_545 S
C248 H231 0.940 . S
C248 C247 1.404 1_565 S
C248 C249 1.382 1_565 S
C249 H232 0.928 1_545 S
C249 C244 1.419 . S
C249 C248 1.382 1_545 S
C250 P224 1.819 . S
C250 C251 1.391 . S
C250 C255 1.391 . S
C251 H233 0.941 . S
C251 C250 1.391 . S
C251 C252 1.396 . S
C252 H236 0.939 . S
C252 C251 1.396 . S
C252 C253 1.397 . S
C253 C252 1.397 . S
C253 C254 1.385 1_545 S
C254 H237 0.940 . S
C254 C253 1.385 1_565 S
C254 C255 1.388 1_565 S
C255 H234 0.948 . S
C255 C250 1.391 . S
C255 C254 1.388 1_545 S
P256 O267 1.490 . S
P256 C270 1.812 . S
P256 C276 1.803 . S
P256 C282 1.819 . S
H257 C271 0.941 . S
H258 C272 0.939 . S
H259 C274 0.940 . S
H260 C275 0.957 . S
H261 C277 0.939 . S
H262 C278 0.942 . S
H263 C280 0.940 . S
H264 C281 0.939 . S
H265 C283 0.941 . S
H266 C287 0.924 1_554 S
O267 P256 1.490 . S
H268 C284 0.939 . S
H269 C286 0.940 . S
C270 P256 1.812 . S
C270 C271 1.389 . S
C270 C275 1.364 1_556 S
C271 H257 0.941 . S
C271 C270 1.389 . S
C271 C272 1.397 . S
C272 H258 0.939 . S
C272 C271 1.397 . S
C272 C273 1.378 . S
C273 C272 1.378 . S
C273 C274 1.378 1_556 S
C274 H259 0.940 . S
C274 C273 1.378 1_554 S
C274 C275 1.407 . S
C275 H260 0.957 . S
C275 C270 1.364 1_554 S
C275 C274 1.407 . S
C276 P256 1.803 . S
C276 C277 1.378 . S
C276 C281 1.400 1_556 S
C277 H261 0.939 . S
C277 C276 1.378 . S
C277 C278 1.361 . S
C278 H262 0.942 . S
C278 C277 1.361 . S
C278 C279 1.369 . S
C279 C278 1.369 . S
C279 C280 1.404 1_556 S
C280 H263 0.940 . S
C280 C279 1.404 1_554 S
C280 C281 1.389 . S
C281 H264 0.939 . S
C281 C276 1.400 1_554 S
C281 C280 1.389 . S
C282 P256 1.819 . S
C282 C283 1.391 . S
C282 C287 1.391 . S
C283 H265 0.941 . S
C283 C282 1.391 . S
C283 C284 1.396 . S
C284 H268 0.939 . S
C284 C283 1.396 . S
C284 C285 1.397 . S
C285 C284 1.397 . S
C285 C286 1.385 1_556 S
C286 H269 0.940 . S
C286 C285 1.385 1_554 S
C286 C287 1.388 1_554 S
C287 H266 0.924 1_556 S
C287 C282 1.391 . S
C287 C286 1.388 1_556 S
P288 O299 1.490 . S
P288 C302 1.812 . S
P288 C308 1.803 . S
P288 C314 1.819 . S
H289 C303 0.941 . S
H290 C304 0.939 . S
H291 C306 0.940 . S
H292 C307 0.958 . S
H293 C309 0.939 . S
H294 C310 0.942 . S
H295 C312 0.940 . S
H296 C313 0.966 . S
H297 C315 0.941 . S
H298 C319 0.925 1_554 S
O299 P288 1.490 . S
H300 C316 0.939 . S
H301 C318 0.940 . S
C302 P288 1.812 . S
C302 C303 1.389 . S
C302 C307 1.362 1_556 S
C303 H289 0.941 . S
C303 C302 1.389 . S
C303 C304 1.397 . S
C304 H290 0.939 . S
C304 C303 1.397 . S
C304 C305 1.378 . S
C305 C304 1.378 . S
C305 C306 1.378 1_556 S
C306 H291 0.940 . S
C306 C305 1.378 1_554 S
C306 C307 1.408 . S
C307 H292 0.958 . S
C307 C302 1.362 1_554 S
C307 C306 1.408 . S
C308 P288 1.803 . S
C308 C309 1.378 . S
C308 C313 1.357 1_556 S
C309 H293 0.939 . S
C309 C308 1.378 . S
C309 C310 1.361 . S
C310 H294 0.942 . S
C310 C309 1.361 . S
C310 C311 1.369 . S
C311 C310 1.369 . S
C311 C312 1.404 1_556 S
C312 H295 0.940 . S
C312 C311 1.404 1_554 S
C312 C313 1.406 . S
C313 H296 0.966 . S
C313 C308 1.357 1_554 S
C313 C312 1.406 . S
C314 P288 1.819 . S
C314 C315 1.391 . S
C314 C319 1.391 . S
C315 H297 0.941 . S
C315 C314 1.391 . S
C315 C316 1.396 . S
C316 H300 0.939 . S
C316 C315 1.396 . S
C316 C317 1.397 . S
C317 C316 1.397 . S
C317 C318 1.385 1_556 S
C318 H301 0.940 . S
C318 C317 1.385 1_554 S
C318 C319 1.388 1_554 S
C319 H298 0.925 1_556 S
C319 C314 1.391 . S
C319 C318 1.388 1_556 S
P320 O331 1.490 . S
P320 C334 1.812 . S
P320 C340 1.803 . S
P320 C346 1.819 . S
H321 C335 0.941 . S
H322 C336 0.939 . S
H323 C338 0.940 . S
H324 C339 0.956 . S
H325 C341 0.939 . S
H326 C342 0.942 . S
H327 C344 0.940 . S
H328 C345 0.964 . S
H329 C347 0.941 . S
H330 C351 0.926 1_554 S
O331 P320 1.490 . S
H332 C348 0.939 . S
H333 C350 0.940 . S
C334 P320 1.812 . S
C334 C335 1.389 . S
C334 C339 1.366 1_556 S
C335 H321 0.941 . S
C335 C334 1.389 . S
C335 C336 1.397 . S
C336 H322 0.939 . S
C336 C335 1.397 . S
C336 C337 1.378 . S
C337 C336 1.378 . S
C337 C338 1.378 1_556 S
C338 H323 0.940 . S
C338 C337 1.378 1_554 S
C338 C339 1.406 . S
C339 H324 0.956 . S
C339 C334 1.366 1_554 S
C339 C338 1.406 . S
C340 P320 1.803 . S
C340 C341 1.378 . S
C340 C345 1.362 1_556 S
C341 H325 0.939 . S
C341 C340 1.378 . S
C341 C342 1.361 . S
C342 H326 0.942 . S
C342 C341 1.361 . S
C342 C343 1.369 . S
C343 C342 1.369 . S
C343 C344 1.404 1_556 S
C344 H327 0.940 . S
C344 C343 1.404 1_554 S
C344 C345 1.405 . S
C345 H328 0.964 . S
C345 C340 1.362 1_554 S
C345 C344 1.405 . S
C346 P320 1.819 . S
C346 C347 1.391 . S
C346 C351 1.391 . S
C347 H329 0.941 . S
C347 C346 1.391 . S
C347 C348 1.396 . S
C348 H332 0.939 . S
C348 C347 1.396 . S
C348 C349 1.397 . S
C349 C348 1.397 . S
C349 C350 1.385 1_556 S
C350 H333 0.940 . S
C350 C349 1.385 1_554 S
C350 C351 1.388 1_554 S
C351 H330 0.926 1_556 S
C351 C346 1.391 . S
C351 C350 1.388 1_556 S
P352 O363 1.490 . S
P352 C366 1.812 . S
P352 C372 1.803 . S
P352 C378 1.819 . S
H353 C367 0.941 . S
H354 C368 0.939 . S
H355 C370 0.940 . S
H356 C371 0.939 . S
H357 C373 0.939 . S
H358 C374 0.942 . S
H359 C376 0.940 . S
H360 C377 0.949 . S
H361 C379 0.941 . S
H362 C383 0.936 1_556 S
O363 P352 1.490 . S
H364 C380 0.939 . S
H365 C382 0.940 . S
C366 P352 1.812 . S
C366 C367 1.389 . S
C366 C371 1.393 1_554 S
C367 H353 0.941 . S
C367 C366 1.389 . S
C367 C368 1.397 . S
C368 H354 0.939 . S
C368 C367 1.397 . S
C368 C369 1.378 . S
C369 C368 1.378 . S
C369 C370 1.378 1_554 S
C370 H355 0.940 . S
C370 C369 1.378 1_556 S
C370 C371 1.396 . S
C371 H356 0.939 . S
C371 C366 1.393 1_556 S
C371 C370 1.396 . S
C372 P352 1.803 . S
C372 C373 1.378 . S
C372 C377 1.385 1_554 S
C373 H357 0.939 . S
C373 C372 1.378 . S
C373 C374 1.361 . S
C374 H358 0.942 . S
C374 C373 1.361 . S
C374 C375 1.369 . S
C375 C374 1.369 . S
C375 C376 1.404 1_554 S
C376 H359 0.940 . S
C376 C375 1.404 1_556 S
C376 C377 1.395 . S
C377 H360 0.949 . S
C377 C372 1.385 1_556 S
C377 C376 1.395 . S
C378 P352 1.819 . S
C378 C379 1.391 . S
C378 C383 1.391 . S
C379 H361 0.941 . S
C379 C378 1.391 . S
C379 C380 1.396 . S
C380 H364 0.939 . S
C380 C379 1.396 . S
C380 C381 1.397 . S
C381 C380 1.397 . S
C381 C382 1.385 1_554 S
C382 H365 0.940 . S
C382 C381 1.385 1_556 S
C382 C383 1.388 1_556 S
C383 H362 0.936 1_554 S
C383 C378 1.391 . S
C383 C382 1.388 1_554 S
P384 O395 1.490 . S
P384 C398 1.812 . S
P384 C404 1.803 . S
P384 C410 1.819 . S
H385 C399 0.941 . S
H386 C400 0.939 . S
H387 C402 0.940 . S
H388 C403 0.940 . S
H389 C405 0.939 . S
H390 C406 0.942 . S
H391 C408 0.940 . S
H392 C409 0.939 . S
H393 C411 0.941 . S
H394 C415 0.939 . S
O395 P384 1.490 . S
H396 C412 0.939 . S
H397 C414 0.940 . S
C398 P384 1.812 . S
C398 C399 1.389 . S
C398 C403 1.391 . S
C399 H385 0.941 . S
C399 C398 1.389 . S
C399 C400 1.397 . S
C400 H386 0.939 . S
C400 C399 1.397 . S
C400 C401 1.378 . S
C401 C400 1.378 . S
C401 C402 1.378 . S
C402 H387 0.940 . S
C402 C401 1.378 . S
C402 C403 1.396 . S
C403 H388 0.940 . S
C403 C398 1.391 . S
C403 C402 1.396 . S
C404 P384 1.803 . S
C404 C405 1.378 . S
C404 C409 1.400 . S
C405 H389 0.939 . S
C405 C404 1.378 . S
C405 C406 1.361 . S
C406 H390 0.942 . S
C406 C405 1.361 . S
C406 C407 1.369 . S
C407 C406 1.369 . S
C407 C408 1.404 . S
C408 H391 0.940 . S
C408 C407 1.404 . S
C408 C409 1.389 . S
C409 H392 0.939 . S
C409 C404 1.400 . S
C409 C408 1.389 . S
C410 P384 1.819 . S
C410 C411 1.391 . S
C410 C415 1.391 . S
C411 H393 0.941 . S
C411 C410 1.391 . S
C411 C412 1.396 . S
C412 H396 0.939 . S
C412 C411 1.396 . S
C412 C413 1.397 . S
C413 C412 1.397 . S
C413 C414 1.385 . S
C414 H397 0.940 . S
C414 C413 1.385 . S
C414 C415 1.388 . S
C415 H394 0.939 . S
C415 C410 1.391 . S
C415 C414 1.388 . S
P416 O427 1.490 . S
P416 C430 1.812 . S
P416 C436 1.803 . S
P416 C442 1.819 . S
H417 C431 0.941 . S
H418 C432 0.939 . S
H419 C434 0.940 . S
H420 C435 0.940 . S
H421 C437 0.939 . S
H422 C438 0.942 . S
H423 C440 0.940 . S
H424 C441 0.939 . S
H425 C443 0.941 . S
H426 C447 0.939 . S
O427 P416 1.490 . S
H428 C444 0.939 . S
H429 C446 0.940 . S
C430 P416 1.812 . S
C430 C431 1.389 . S
C430 C435 1.391 . S
C431 H417 0.941 . S
C431 C430 1.389 . S
C431 C432 1.397 . S
C432 H418 0.939 . S
C432 C431 1.397 . S
C432 C433 1.378 . S
C433 C432 1.378 . S
C433 C434 1.378 . S
C434 H419 0.940 . S
C434 C433 1.378 . S
C434 C435 1.396 . S
C435 H420 0.940 . S
C435 C430 1.391 . S
C435 C434 1.396 . S
C436 P416 1.803 . S
C436 C437 1.378 . S
C436 C441 1.400 . S
C437 H421 0.939 . S
C437 C436 1.378 . S
C437 C438 1.361 . S
C438 H422 0.942 . S
C438 C437 1.361 . S
C438 C439 1.369 . S
C439 C438 1.369 . S
C439 C440 1.404 . S
C440 H423 0.940 . S
C440 C439 1.404 . S
C440 C441 1.389 . S
C441 H424 0.939 . S
C441 C436 1.400 . S
C441 C440 1.389 . S
C442 P416 1.819 . S
C442 C443 1.391 . S
C442 C447 1.391 . S
C443 H425 0.941 . S
C443 C442 1.391 . S
C443 C444 1.396 . S
C444 H428 0.939 . S
C444 C443 1.396 . S
C444 C445 1.397 . S
C445 C444 1.397 . S
C445 C446 1.385 . S
C446 H429 0.940 . S
C446 C445 1.385 . S
C446 C447 1.388 . S
C447 H426 0.939 . S
C447 C442 1.391 . S
C447 C446 1.388 . S
P448 O459 1.490 . S
P448 C462 1.812 . S
P448 C468 1.803 . S
P448 C474 1.819 . S
H449 C463 0.941 . S
H450 C464 0.939 . S
H451 C466 0.940 . S
H452 C467 0.940 . S
H453 C469 0.939 . S
H454 C470 0.942 . S
H455 C472 0.940 . S
H456 C473 0.939 . S
H457 C475 0.941 . S
H458 C479 0.939 . S
O459 P448 1.490 . S
H460 C476 0.939 . S
H461 C478 0.940 . S
C462 P448 1.812 . S
C462 C463 1.389 . S
C462 C467 1.391 . S
C463 H449 0.941 . S
C463 C462 1.389 . S
C463 C464 1.397 . S
C464 H450 0.939 . S
C464 C463 1.397 . S
C464 C465 1.378 . S
C465 C464 1.378 . S
C465 C466 1.378 . S
C466 H451 0.940 . S
C466 C465 1.378 . S
C466 C467 1.396 . S
C467 H452 0.940 . S
C467 C462 1.391 . S
C467 C466 1.396 . S
C468 P448 1.803 . S
C468 C469 1.378 . S
C468 C473 1.400 . S
C469 H453 0.939 . S
C469 C468 1.378 . S
C469 C470 1.361 . S
C470 H454 0.942 . S
C470 C469 1.361 . S
C470 C471 1.369 . S
C471 C470 1.369 . S
C471 C472 1.404 . S
C472 H455 0.940 . S
C472 C471 1.404 . S
C472 C473 1.389 . S
C473 H456 0.939 . S
C473 C468 1.400 . S
C473 C472 1.389 . S
C474 P448 1.819 . S
C474 C475 1.391 . S
C474 C479 1.391 . S
C475 H457 0.941 . S
C475 C474 1.391 . S
C475 C476 1.396 . S
C476 H460 0.939 . S
C476 C475 1.396 . S
C476 C477 1.397 . S
C477 C476 1.397 . S
C477 C478 1.385 . S
C478 H461 0.940 . S
C478 C477 1.385 . S
C478 C479 1.388 . S
C479 H458 0.939 . S
C479 C474 1.391 . S
C479 C478 1.388 . S
P480 O491 1.490 . S
P480 C494 1.812 . S
P480 C500 1.803 . S
P480 C506 1.819 . S
H481 C495 0.941 . S
H482 C496 0.939 . S
H483 C498 0.940 . S
H484 C499 0.940 . S
H485 C501 0.939 . S
H486 C502 0.942 . S
H487 C504 0.940 . S
H488 C505 0.939 . S
H489 C507 0.941 . S
H490 C511 0.939 . S
O491 P480 1.490 . S
H492 C508 0.939 . S
H493 C510 0.940 . S
C494 P480 1.812 . S
C494 C495 1.389 . S
C494 C499 1.391 . S
C495 H481 0.941 . S
C495 C494 1.389 . S
C495 C496 1.397 . S
C496 H482 0.939 . S
C496 C495 1.397 . S
C496 C497 1.378 . S
C497 C496 1.378 . S
C497 C498 1.378 . S
C498 H483 0.940 . S
C498 C497 1.378 . S
C498 C499 1.396 . S
C499 H484 0.940 . S
C499 C494 1.391 . S
C499 C498 1.396 . S
C500 P480 1.803 . S
C500 C501 1.378 . S
C500 C505 1.400 . S
C501 H485 0.939 . S
C501 C500 1.378 . S
C501 C502 1.361 . S
C502 H486 0.942 . S
C502 C501 1.361 . S
C502 C503 1.369 . S
C503 C502 1.369 . S
C503 C504 1.404 . S
C504 H487 0.940 . S
C504 C503 1.404 . S
C504 C505 1.389 . S
C505 H488 0.939 . S
C505 C500 1.400 . S
C505 C504 1.389 . S
C506 P480 1.819 . S
C506 C507 1.391 . S
C506 C511 1.391 . S
C507 H489 0.941 . S
C507 C506 1.391 . S
C507 C508 1.396 . S
C508 H492 0.939 . S
C508 C507 1.396 . S
C508 C509 1.397 . S
C509 C508 1.397 . S
C509 C510 1.385 . S
C510 H493 0.940 . S
C510 C509 1.385 . S
C510 C511 1.388 . S
C511 H490 0.939 . S
C511 C506 1.391 . S
C511 C510 1.388 . S
P512 O523 1.490 . S
P512 C526 1.812 . S
P512 C532 1.803 . S
P512 C538 1.819 . S
H513 C527 0.941 . S
H514 C528 0.939 . S
H515 C530 0.940 . S
H516 C531 0.940 . S
H517 C533 0.939 . S
H518 C534 0.942 . S
H519 C536 0.940 . S
H520 C537 0.939 . S
H521 C539 0.941 . S
H522 C543 0.939 . S
O523 P512 1.490 . S
H524 C540 0.939 . S
H525 C542 0.940 . S
C526 P512 1.812 . S
C526 C527 1.389 . S
C526 C531 1.391 . S
C527 H513 0.941 . S
C527 C526 1.389 . S
C527 C528 1.397 . S
C528 H514 0.939 . S
C528 C527 1.397 . S
C528 C529 1.378 . S
C529 C528 1.378 . S
C529 C530 1.378 . S
C530 H515 0.940 . S
C530 C529 1.378 . S
C530 C531 1.396 . S
C531 H516 0.940 . S
C531 C526 1.391 . S
C531 C530 1.396 . S
C532 P512 1.803 . S
C532 C533 1.378 . S
C532 C537 1.400 . S
C533 H517 0.939 . S
C533 C532 1.378 . S
C533 C534 1.361 . S
C534 H518 0.942 . S
C534 C533 1.361 . S
C534 C535 1.369 . S
C535 C534 1.369 . S
C535 C536 1.404 . S
C536 H519 0.940 . S
C536 C535 1.404 . S
C536 C537 1.389 . S
C537 H520 0.939 . S
C537 C532 1.400 . S
C537 C536 1.389 . S
C538 P512 1.819 . S
C538 C539 1.391 . S
C538 C543 1.391 . S
C539 H521 0.941 . S
C539 C538 1.391 . S
C539 C540 1.396 . S
C540 H524 0.939 . S
C540 C539 1.396 . S
C540 C541 1.397 . S
C541 C540 1.397 . S
C541 C542 1.385 . S
C542 H525 0.940 . S
C542 C541 1.385 . S
C542 C543 1.388 . S
C543 H522 0.939 . S
C543 C538 1.391 . S
C543 C542 1.388 . S
P544 O555 1.490 . S
P544 C558 1.812 . S
P544 C564 1.803 . S
P544 C570 1.819 . S
H545 C559 0.941 . S
H546 C560 0.939 . S
H547 C562 0.940 . S
H548 C563 0.940 . S
H549 C565 0.939 . S
H550 C566 0.942 . S
H551 C568 0.940 . S
H552 C569 0.939 . S
H553 C571 0.941 . S
H554 C575 0.939 . S
O555 P544 1.490 . S
H556 C572 0.939 . S
H557 C574 0.940 . S
C558 P544 1.812 . S
C558 C559 1.389 . S
C558 C563 1.391 . S
C559 H545 0.941 . S
C559 C558 1.389 . S
C559 C560 1.397 . S
C560 H546 0.939 . S
C560 C559 1.397 . S
C560 C561 1.378 . S
C561 C560 1.378 . S
C561 C562 1.378 . S
C562 H547 0.940 . S
C562 C561 1.378 . S
C562 C563 1.396 . S
C563 H548 0.940 . S
C563 C558 1.391 . S
C563 C562 1.396 . S
C564 P544 1.803 . S
C564 C565 1.378 . S
C564 C569 1.400 . S
C565 H549 0.939 . S
C565 C564 1.378 . S
C565 C566 1.361 . S
C566 H550 0.942 . S
C566 C565 1.361 . S
C566 C567 1.369 . S
C567 C566 1.369 . S
C567 C568 1.404 . S
C568 H551 0.940 . S
C568 C567 1.404 . S
C568 C569 1.389 . S
C569 H552 0.939 . S
C569 C564 1.400 . S
C569 C568 1.389 . S
C570 P544 1.819 . S
C570 C571 1.391 . S
C570 C575 1.391 . S
C571 H553 0.941 . S
C571 C570 1.391 . S
C571 C572 1.396 . S
C572 H556 0.939 . S
C572 C571 1.396 . S
C572 C573 1.397 . S
C573 C572 1.397 . S
C573 C574 1.385 . S
C574 H557 0.940 . S
C574 C573 1.385 . S
C574 C575 1.388 . S
C575 H554 0.939 . S
C575 C570 1.391 . S
C575 C574 1.388 . S
P576 O587 1.490 . S
P576 C590 1.812 . S
P576 C596 1.803 . S
P576 C602 1.819 . S
H577 C591 0.941 . S
H578 C592 0.939 . S
H579 C594 0.940 . S
H580 C595 0.940 . S
H581 C597 0.939 . S
H582 C598 0.942 . S
H583 C600 0.940 . S
H584 C601 0.939 . S
H585 C603 0.941 . S
H586 C607 0.939 . S
O587 P576 1.490 . S
H588 C604 0.939 . S
H589 C606 0.940 . S
C590 P576 1.812 . S
C590 C591 1.389 . S
C590 C595 1.391 . S
C591 H577 0.941 . S
C591 C590 1.389 . S
C591 C592 1.397 . S
C592 H578 0.939 . S
C592 C591 1.397 . S
C592 C593 1.378 . S
C593 C592 1.378 . S
C593 C594 1.378 . S
C594 H579 0.940 . S
C594 C593 1.378 . S
C594 C595 1.396 . S
C595 H580 0.940 . S
C595 C590 1.391 . S
C595 C594 1.396 . S
C596 P576 1.803 . S
C596 C597 1.378 . S
C596 C601 1.400 . S
C597 H581 0.939 . S
C597 C596 1.378 . S
C597 C598 1.361 . S
C598 H582 0.942 . S
C598 C597 1.361 . S
C598 C599 1.369 . S
C599 C598 1.369 . S
C599 C600 1.404 . S
C600 H583 0.940 . S
C600 C599 1.404 . S
C600 C601 1.389 . S
C601 H584 0.939 . S
C601 C596 1.400 . S
C601 C600 1.389 . S
C602 P576 1.819 . S
C602 C603 1.391 . S
C602 C607 1.391 . S
C603 H585 0.941 . S
C603 C602 1.391 . S
C603 C604 1.396 . S
C604 H588 0.939 . S
C604 C603 1.396 . S
C604 C605 1.397 . S
C605 C604 1.397 . S
C605 C606 1.385 . S
C606 H589 0.940 . S
C606 C605 1.385 . S
C606 C607 1.388 . S
C607 H586 0.939 . S
C607 C602 1.391 . S
C607 C606 1.388 . S
P608 O619 1.490 . S
P608 C622 1.812 . S
P608 C628 1.803 . S
P608 C634 1.819 . S
H609 C623 0.941 . S
H610 C624 0.939 . S
H611 C626 0.940 . S
H612 C627 0.940 . S
H613 C629 0.939 . S
H614 C630 0.942 . S
H615 C632 0.940 . S
H616 C633 0.939 . S
H617 C635 0.941 . S
H618 C639 0.939 . S
O619 P608 1.490 . S
H620 C636 0.939 . S
H621 C638 0.940 . S
C622 P608 1.812 . S
C622 C623 1.389 . S
C622 C627 1.391 . S
C623 H609 0.941 . S
C623 C622 1.389 . S
C623 C624 1.397 . S
C624 H610 0.939 . S
C624 C623 1.397 . S
C624 C625 1.378 . S
C625 C624 1.378 . S
C625 C626 1.378 . S
C626 H611 0.940 . S
C626 C625 1.378 . S
C626 C627 1.396 . S
C627 H612 0.940 . S
C627 C622 1.391 . S
C627 C626 1.396 . S
C628 P608 1.803 . S
C628 C629 1.378 . S
C628 C633 1.400 . S
C629 H613 0.939 . S
C629 C628 1.378 . S
C629 C630 1.361 . S
C630 H614 0.942 . S
C630 C629 1.361 . S
C630 C631 1.369 . S
C631 C630 1.369 . S
C631 C632 1.404 . S
C632 H615 0.940 . S
C632 C631 1.404 . S
C632 C633 1.389 . S
C633 H616 0.939 . S
C633 C628 1.400 . S
C633 C632 1.389 . S
C634 P608 1.819 . S
C634 C635 1.391 . S
C634 C639 1.391 . S
C635 H617 0.941 . S
C635 C634 1.391 . S
C635 C636 1.396 . S
C636 H620 0.939 . S
C636 C635 1.396 . S
C636 C637 1.397 . S
C637 C636 1.397 . S
C637 C638 1.385 . S
C638 H621 0.940 . S
C638 C637 1.385 . S
C638 C639 1.388 . S
C639 H618 0.939 . S
C639 C634 1.391 . S
C639 C638 1.388 . S
P640 O651 1.490 . S
P640 C654 1.812 . S
P640 C660 1.803 . S
P640 C666 1.819 . S
H641 C655 0.941 . S
H642 C656 0.939 . S
H643 C658 0.940 . S
H644 C659 0.940 . S
H645 C661 0.939 . S
H646 C662 0.942 . S
H647 C664 0.940 . S
H648 C665 0.939 . S
H649 C667 0.941 . S
H650 C671 0.939 . S
O651 P640 1.490 . S
H652 C668 0.939 . S
H653 C670 0.940 . S
C654 P640 1.812 . S
C654 C655 1.389 . S
C654 C659 1.391 . S
C655 H641 0.941 . S
C655 C654 1.389 . S
C655 C656 1.397 . S
C656 H642 0.939 . S
C656 C655 1.397 . S
C656 C657 1.378 . S
C657 C656 1.378 . S
C657 C658 1.378 . S
C658 H643 0.940 . S
C658 C657 1.378 . S
C658 C659 1.396 . S
C659 H644 0.940 . S
C659 C654 1.391 . S
C659 C658 1.396 . S
C660 P640 1.803 . S
C660 C661 1.378 . S
C660 C665 1.400 . S
C661 H645 0.939 . S
C661 C660 1.378 . S
C661 C662 1.361 . S
C662 H646 0.942 . S
C662 C661 1.361 . S
C662 C663 1.369 . S
C663 C662 1.369 . S
C663 C664 1.404 . S
C664 H647 0.940 . S
C664 C663 1.404 . S
C664 C665 1.389 . S
C665 H648 0.939 . S
C665 C660 1.400 . S
C665 C664 1.389 . S
C666 P640 1.819 . S
C666 C667 1.391 . S
C666 C671 1.391 . S
C667 H649 0.941 . S
C667 C666 1.391 . S
C667 C668 1.396 . S
C668 H652 0.939 . S
C668 C667 1.396 . S
C668 C669 1.397 . S
C669 C668 1.397 . S
C669 C670 1.385 . S
C670 H653 0.940 . S
C670 C669 1.385 . S
C670 C671 1.388 . S
C671 H650 0.939 . S
C671 C666 1.391 . S
C671 C670 1.388 . S
P672 O683 1.490 . S
P672 C686 1.812 . S
P672 C692 1.803 . S
P672 C698 1.819 . S
H673 C687 0.941 . S
H674 C688 0.939 . S
H675 C690 0.940 . S
H676 C691 0.940 . S
H677 C693 0.939 . S
H678 C694 0.942 . S
H679 C696 0.940 . S
H680 C697 0.939 . S
H681 C699 0.941 . S
H682 C703 0.939 . S
O683 P672 1.490 . S
H684 C700 0.939 . S
H685 C702 0.940 . S
C686 P672 1.812 . S
C686 C687 1.389 . S
C686 C691 1.391 . S
C687 H673 0.941 . S
C687 C686 1.389 . S
C687 C688 1.397 . S
C688 H674 0.939 . S
C688 C687 1.397 . S
C688 C689 1.378 . S
C689 C688 1.378 . S
C689 C690 1.378 . S
C690 H675 0.940 . S
C690 C689 1.378 . S
C690 C691 1.396 . S
C691 H676 0.940 . S
C691 C686 1.391 . S
C691 C690 1.396 . S
C692 P672 1.803 . S
C692 C693 1.378 . S
C692 C697 1.400 . S
C693 H677 0.939 . S
C693 C692 1.378 . S
C693 C694 1.361 . S
C694 H678 0.942 . S
C694 C693 1.361 . S
C694 C695 1.369 . S
C695 C694 1.369 . S
C695 C696 1.404 . S
C696 H679 0.940 . S
C696 C695 1.404 . S
C696 C697 1.389 . S
C697 H680 0.939 . S
C697 C692 1.400 . S
C697 C696 1.389 . S
C698 P672 1.819 . S
C698 C699 1.391 . S
C698 C703 1.391 . S
C699 H681 0.941 . S
C699 C698 1.391 . S
C699 C700 1.396 . S
C700 H684 0.939 . S
C700 C699 1.396 . S
C700 C701 1.397 . S
C701 C700 1.397 . S
C701 C702 1.385 . S
C702 H685 0.940 . S
C702 C701 1.385 . S
C702 C703 1.388 . S
C703 H682 0.939 . S
C703 C698 1.391 . S
C703 C702 1.388 . S
P704 O715 1.490 . S
P704 C718 1.812 . S
P704 C724 1.803 . S
P704 C730 1.819 . S
H705 C719 0.941 . S
H706 C720 0.939 . S
H707 C722 0.940 . S
H708 C723 0.940 . S
H709 C725 0.939 . S
H710 C726 0.942 . S
H711 C728 0.940 . S
H712 C729 0.939 . S
H713 C731 0.941 . S
H714 C735 0.939 . S
O715 P704 1.490 . S
H716 C732 0.939 . S
H717 C734 0.940 . S
C718 P704 1.812 . S
C718 C719 1.389 . S
C718 C723 1.391 . S
C719 H705 0.941 . S
C719 C718 1.389 . S
C719 C720 1.397 . S
C720 H706 0.939 . S
C720 C719 1.397 . S
C720 C721 1.378 . S
C721 C720 1.378 . S
C721 C722 1.378 . S
C722 H707 0.940 . S
C722 C721 1.378 . S
C722 C723 1.396 . S
C723 H708 0.940 . S
C723 C718 1.391 . S
C723 C722 1.396 . S
C724 P704 1.803 . S
C724 C725 1.378 . S
C724 C729 1.400 . S
C725 H709 0.939 . S
C725 C724 1.378 . S
C725 C726 1.361 . S
C726 H710 0.942 . S
C726 C725 1.361 . S
C726 C727 1.369 . S
C727 C726 1.369 . S
C727 C728 1.404 . S
C728 H711 0.940 . S
C728 C727 1.404 . S
C728 C729 1.389 . S
C729 H712 0.939 . S
C729 C724 1.400 . S
C729 C728 1.389 . S
C730 P704 1.819 . S
C730 C731 1.391 . S
C730 C735 1.391 . S
C731 H713 0.941 . S
C731 C730 1.391 . S
C731 C732 1.396 . S
C732 H716 0.939 . S
C732 C731 1.396 . S
C732 C733 1.397 . S
C733 C732 1.397 . S
C733 C734 1.385 . S
C734 H717 0.940 . S
C734 C733 1.385 . S
C734 C735 1.388 . S
C735 H714 0.939 . S
C735 C730 1.391 . S
C735 C734 1.388 . S
P736 O747 1.490 . S
P736 C750 1.812 . S
P736 C756 1.803 . S
P736 C762 1.819 . S
H737 C751 0.941 . S
H738 C752 0.939 . S
H739 C754 0.940 . S
H740 C755 0.940 . S
H741 C757 0.939 . S
H742 C758 0.942 . S
H743 C760 0.940 . S
H744 C761 0.939 . S
H745 C763 0.941 . S
H746 C767 0.939 . S
O747 P736 1.490 . S
H748 C764 0.939 . S
H749 C766 0.940 . S
C750 P736 1.812 . S
C750 C751 1.389 . S
C750 C755 1.391 . S
C751 H737 0.941 . S
C751 C750 1.389 . S
C751 C752 1.397 . S
C752 H738 0.939 . S
C752 C751 1.397 . S
C752 C753 1.378 . S
C753 C752 1.378 . S
C753 C754 1.378 . S
C754 H739 0.940 . S
C754 C753 1.378 . S
C754 C755 1.396 . S
C755 H740 0.940 . S
C755 C750 1.391 . S
C755 C754 1.396 . S
C756 P736 1.803 . S
C756 C757 1.378 . S
C756 C761 1.400 . S
C757 H741 0.939 . S
C757 C756 1.378 . S
C757 C758 1.361 . S
C758 H742 0.942 . S
C758 C757 1.361 . S
C758 C759 1.369 . S
C759 C758 1.369 . S
C759 C760 1.404 . S
C760 H743 0.940 . S
C760 C759 1.404 . S
C760 C761 1.389 . S
C761 H744 0.939 . S
C761 C756 1.400 . S
C761 C760 1.389 . S
C762 P736 1.819 . S
C762 C763 1.391 . S
C762 C767 1.391 . S
C763 H745 0.941 . S
C763 C762 1.391 . S
C763 C764 1.396 . S
C764 H748 0.939 . S
C764 C763 1.396 . S
C764 C765 1.397 . S
C765 C764 1.397 . S
C765 C766 1.385 . S
C766 H749 0.940 . S
C766 C765 1.385 . S
C766 C767 1.388 . S
C767 H746 0.939 . S
C767 C762 1.391 . S
C767 C766 1.388 . S
C768 O794 1.283 . S
C768 O812 1.283 . S
C769 O795 1.283 . S
C769 O810 1.283 . S
C770 O796 1.283 . S
C770 O813 1.283 . S
C771 O797 1.283 . S
C771 O811 1.283 . S
C772 O798 1.283 . S
C772 O807 1.283 . S
C773 O799 1.283 . S
C773 O809 1.283 . S
C774 O800 1.283 . S
C774 O806 1.283 . S
C775 O801 1.283 . S
C775 O808 1.283 . S
C776 O802 1.283 . S
C776 O817 1.283 . S
C777 O803 1.283 . S
C777 O815 1.283 . S
C778 O804 1.283 . S
C778 O816 1.283 . S
C779 O805 1.283 . S
C779 O814 1.283 . S
Eu780 O781 2.370 1_455 S
Eu780 O782 2.370 . S
Eu780 O785 2.370 1_455 S
Eu780 O786 2.370 . S
Eu780 O794 2.363 . S
Eu780 O795 2.363 . S
Eu780 O808 2.363 . S
Eu780 O809 2.363 1_455 S
O781 Eu780 2.370 1_655 S
O781 Eu783 2.349 1_565 S
O781 Eu788 2.349 1_665 S
O782 Eu780 2.370 . S
O782 Eu784 2.348 1_565 S
O782 Eu787 2.349 1_565 S
Eu783 O781 2.349 1_545 S
Eu783 O785 2.349 1_545 S
Eu783 O789 2.391 . S
Eu783 O790 2.391 . S
Eu783 O798 2.398 . S
Eu783 O799 2.328 1_545 S
Eu783 O814 2.363 . S
Eu783 O815 2.363 . S
Eu784 O782 2.348 1_545 S
Eu784 O786 2.348 1_545 S
Eu784 O791 2.392 . S
Eu784 O792 2.392 . S
Eu784 O800 2.400 . S
Eu784 O801 2.326 1_545 S
Eu784 O816 2.363 . S
Eu784 O817 2.363 . S
O785 Eu780 2.370 1_655 S
O785 Eu783 2.349 1_565 S
O785 Eu787 2.349 1_665 S
O786 Eu780 2.370 . S
O786 Eu784 2.348 1_565 S
O786 Eu788 2.349 1_565 S
Eu787 O782 2.349 1_545 S
Eu787 O785 2.349 1_445 S
Eu787 O789 2.392 1_455 S
Eu787 O792 2.392 . S
Eu787 O804 2.363 . S
Eu787 O805 2.363 1_455 S
Eu787 O812 2.327 1_545 S
Eu787 O813 2.399 . S
Eu788 O781 2.349 1_445 S
Eu788 O786 2.349 1_545 S
Eu788 O790 2.392 1_455 S
Eu788 O791 2.392 . S
Eu788 O802 2.363 . S
Eu788 O803 2.363 1_455 S
Eu788 O810 2.327 1_545 S
Eu788 O811 2.399 . S
O789 Eu783 2.391 . S
O789 Eu787 2.392 1_655 S
O789 Eu793 2.370 1_655 S
O790 Eu783 2.391 . S
O790 Eu788 2.392 1_655 S
O790 Eu793 2.370 1_655 S
O791 Eu784 2.392 . S
O791 Eu788 2.392 . S
O791 Eu793 2.370 . S
O792 Eu784 2.392 . S
O792 Eu787 2.392 . S
O792 Eu793 2.370 . S
Eu793 O789 2.370 1_455 S
Eu793 O790 2.370 1_455 S
Eu793 O791 2.370 . S
Eu793 O792 2.370 . S
Eu793 O796 2.363 . S
Eu793 O797 2.363 . S
Eu793 O806 2.363 . S
Eu793 O807 2.363 1_455 S
O794 C768 1.283 . S
O794 Eu780 2.363 . S
O795 C769 1.283 . S
O795 Eu780 2.363 . S
O796 C770 1.283 . S
O796 Eu793 2.363 . S
O797 C771 1.283 . S
O797 Eu793 2.363 . S
O798 C772 1.283 . S
O798 Eu783 2.398 . S
O799 C773 1.283 . S
O799 Eu783 2.328 1_565 S
O800 C774 1.283 . S
O800 Eu784 2.400 . S
O801 C775 1.283 . S
O801 Eu784 2.326 1_565 S
O802 C776 1.283 . S
O802 Eu788 2.363 . S
O803 C777 1.283 . S
O803 Eu788 2.363 1_655 S
O804 C778 1.283 . S
O804 Eu787 2.363 . S
O805 C779 1.283 . S
O805 Eu787 2.363 1_655 S
O806 C774 1.283 . S
O806 Eu793 2.363 . S
O807 C772 1.283 . S
O807 Eu793 2.363 1_655 S
O808 C775 1.283 . S
O808 Eu780 2.363 . S
O809 C773 1.283 . S
O809 Eu780 2.363 1_655 S
O810 C769 1.283 . S
O810 Eu788 2.327 1_565 S
O811 C771 1.283 . S
O811 Eu788 2.399 . S
O812 C768 1.283 . S
O812 Eu787 2.327 1_565 S
O813 C770 1.283 . S
O813 Eu787 2.399 . S
O814 C779 1.283 . S
O814 Eu783 2.363 . S
O815 C777 1.283 . S
O815 Eu783 2.363 . S
O816 C778 1.283 . S
O816 Eu784 2.363 . S
O817 C776 1.283 . S
O817 Eu784 2.363 . S
C818 O844 1.283 . S
C818 O862 1.283 . S
C819 O845 1.283 . S
C819 O860 1.283 . S
C820 O846 1.283 . S
C820 O863 1.283 . S
C821 O847 1.283 . S
C821 O861 1.283 . S
C822 O848 1.283 . S
C822 O857 1.283 . S
C823 O849 1.283 . S
C823 O859 1.283 . S
C824 O850 1.283 . S
C824 O856 1.283 . S
C825 O851 1.283 . S
C825 O858 1.283 . S
C826 O852 1.283 . S
C826 O867 1.283 . S
C827 O853 1.283 . S
C827 O865 1.283 . S
C828 O854 1.283 . S
C828 O866 1.283 . S
C829 O855 1.283 . S
C829 O864 1.283 . S
Eu830 O831 2.370 . S
Eu830 O832 2.370 1_545 S
Eu830 O835 2.370 1_545 S
Eu830 O836 2.370 . S
Eu830 O844 2.363 1_545 S
Eu830 O845 2.363 . S
Eu830 O858 2.363 . S
Eu830 O859 2.363 . S
O831 Eu830 2.370 . S
O831 Eu833 2.370 . S
O831 Eu838 2.370 . S
O832 Eu830 2.370 1_565 S
O832 Eu834 2.370 1_565 S
O832 Eu837 2.370 . S
Eu833 O831 2.370 . S
Eu833 O835 2.370 1_545 S
Eu833 O839 2.370 1_544 S
Eu833 O840 2.370 1_554 S
Eu833 O848 2.363 1_554 S
Eu833 O849 2.363 . S
Eu833 O864 2.363 1_545 S
Eu833 O865 2.363 . S
Eu834 O832 2.370 1_545 S
Eu834 O836 2.370 . S
Eu834 O841 2.370 1_554 S
Eu834 O842 2.370 1_544 S
Eu834 O850 2.363 1_554 S
Eu834 O851 2.363 . S
Eu834 O866 2.363 1_545 S
Eu834 O867 2.363 . S
O835 Eu830 2.370 1_565 S
O835 Eu833 2.370 1_565 S
O835 Eu837 2.370 . S
O836 Eu830 2.370 . S
O836 Eu834 2.370 . S
O836 Eu838 2.370 . S
Eu837 O832 2.370 . S
Eu837 O835 2.370 . S
Eu837 O839 2.370 1_554 S
Eu837 O842 2.370 1_554 S
Eu837 O854 2.363 . S
Eu837 O855 2.363 . S
Eu837 O862 2.363 . S
Eu837 O863 2.363 1_554 S
Eu838 O831 2.370 . S
Eu838 O836 2.370 . S
Eu838 O840 2.370 1_554 S
Eu838 O841 2.370 1_554 S
Eu838 O852 2.363 . S
Eu838 O853 2.363 . S
Eu838 O860 2.363 . S
Eu838 O861 2.363 1_554 S
O839 Eu833 2.370 1_566 S
O839 Eu837 2.370 1_556 S
O839 Eu843 2.370 1_565 S
O840 Eu833 2.370 1_556 S
O840 Eu838 2.370 1_556 S
O840 Eu843 2.370 . S
O841 Eu834 2.370 1_556 S
O841 Eu838 2.370 1_556 S
O841 Eu843 2.370 . S
O842 Eu834 2.370 1_566 S
O842 Eu837 2.370 1_556 S
O842 Eu843 2.370 1_565 S
Eu843 O839 2.370 1_545 S
Eu843 O840 2.370 . S
Eu843 O841 2.370 . S
Eu843 O842 2.370 1_545 S
Eu843 O846 2.363 1_545 S
Eu843 O847 2.363 . S
Eu843 O856 2.363 . S
Eu843 O857 2.363 . S
O844 C818 1.283 . S
O844 Eu830 2.363 1_565 S
O845 C819 1.283 . S
O845 Eu830 2.363 . S
O846 C820 1.283 . S
O846 Eu843 2.363 1_565 S
O847 C821 1.283 . S
O847 Eu843 2.363 . S
O848 C822 1.283 . S
O848 Eu833 2.363 1_556 S
O849 C823 1.283 . S
O849 Eu833 2.363 . S
O850 C824 1.283 . S
O850 Eu834 2.363 1_556 S
O851 C825 1.283 . S
O851 Eu834 2.363 . S
O852 C826 1.283 . S
O852 Eu838 2.363 . S
O853 C827 1.283 . S
O853 Eu838 2.363 . S
O854 C828 1.283 . S
O854 Eu837 2.363 . S
O855 C829 1.283 . S
O855 Eu837 2.363 . S
O856 C824 1.283 . S
O856 Eu843 2.363 . S
O857 C822 1.283 . S
O857 Eu843 2.363 . S
O858 C825 1.283 . S
O858 Eu830 2.363 . S
O859 C823 1.283 . S
O859 Eu830 2.363 . S
O860 C819 1.283 . S
O860 Eu838 2.363 . S
O861 C821 1.283 . S
O861 Eu838 2.363 1_556 S
O862 C818 1.283 . S
O862 Eu837 2.363 . S
O863 C820 1.283 . S
O863 Eu837 2.363 1_556 S
O864 C829 1.283 . S
O864 Eu833 2.363 1_565 S
O865 C827 1.283 . S
O865 Eu833 2.363 . S
O866 C828 1.283 . S
O866 Eu834 2.363 1_565 S
O867 C826 1.283 . S
O867 Eu834 2.363 . S
C868 O894 1.283 . S
C868 O912 1.283 . S
C869 O895 1.283 . S
C869 O910 1.283 . S
C870 O896 1.283 . S
C870 O913 1.283 . S
C871 O897 1.283 . S
C871 O911 1.283 . S
C872 O898 1.283 . S
C872 O907 1.283 . S
C873 O899 1.283 . S
C873 O909 1.283 . S
C874 O900 1.283 . S
C874 O906 1.283 . S
C875 O901 1.283 . S
C875 O908 1.283 . S
C876 O902 1.283 . S
C876 O917 1.283 . S
C877 O903 1.283 . S
C877 O915 1.283 . S
C878 O904 1.283 . S
C878 O916 1.283 . S
C879 O905 1.283 . S
C879 O914 1.283 . S
Eu880 O881 2.362 1_454 S
Eu880 O882 2.378 . S
Eu880 O885 2.378 1_455 S
Eu880 O886 2.362 1_554 S
Eu880 O894 2.377 . S
Eu880 O895 2.349 1_554 S
Eu880 O908 2.363 . S
Eu880 O909 2.363 1_455 S
O881 Eu880 2.362 1_656 S
O881 Eu883 2.362 1_556 S
O881 Eu888 2.370 1_655 S
O882 Eu880 2.378 . S
O882 Eu884 2.379 . S
O882 Eu887 2.370 . S
Eu883 O881 2.362 1_554 S
Eu883 O885 2.378 . S
Eu883 O889 2.378 . S
Eu883 O890 2.362 1_554 S
Eu883 O898 2.363 . S
Eu883 O899 2.363 . S
Eu883 O914 2.377 . S
Eu883 O915 2.349 1_554 S
Eu884 O882 2.379 . S
Eu884 O886 2.362 1_554 S
Eu884 O891 2.362 1_554 S
Eu884 O892 2.379 . S
Eu884 O900 2.363 . S
Eu884 O901 2.363 . S
Eu884 O916 2.377 . S
Eu884 O917 2.349 1_554 S
O885 Eu880 2.378 1_655 S
O885 Eu883 2.378 . S
O885 Eu887 2.370 1_655 S
O886 Eu880 2.362 1_556 S
O886 Eu884 2.362 1_556 S
O886 Eu888 2.370 . S
Eu887 O882 2.370 . S
Eu887 O885 2.370 1_455 S
Eu887 O889 2.370 1_455 S
Eu887 O892 2.370 . S
Eu887 O904 2.363 . S
Eu887 O905 2.363 1_455 S
Eu887 O912 2.363 . S
Eu887 O913 2.363 . S
Eu888 O881 2.370 1_455 S
Eu888 O886 2.370 . S
Eu888 O890 2.370 1_455 S
Eu888 O891 2.370 . S
Eu888 O902 2.363 . S
Eu888 O903 2.363 1_455 S
Eu888 O910 2.363 . S
Eu888 O911 2.363 . S
O889 Eu883 2.378 . S
O889 Eu887 2.370 1_655 S
O889 Eu893 2.378 1_655 S
O890 Eu883 2.362 1_556 S
O890 Eu888 2.370 1_655 S
O890 Eu893 2.362 1_656 S
O891 Eu884 2.362 1_556 S
O891 Eu888 2.370 . S
O891 Eu893 2.362 1_556 S
O892 Eu884 2.379 . S
O892 Eu887 2.370 . S
O892 Eu893 2.378 . S
Eu893 O889 2.378 1_455 S
Eu893 O890 2.362 1_454 S
Eu893 O891 2.362 1_554 S
Eu893 O892 2.378 . S
Eu893 O896 2.377 . S
Eu893 O897 2.349 1_554 S
Eu893 O906 2.363 . S
Eu893 O907 2.363 1_455 S
O894 C868 1.283 . S
O894 Eu880 2.377 . S
O895 C869 1.283 . S
O895 Eu880 2.349 1_556 S
O896 C870 1.283 . S
O896 Eu893 2.377 . S
O897 C871 1.283 . S
O897 Eu893 2.349 1_556 S
O898 C872 1.283 . S
O898 Eu883 2.363 . S
O899 C873 1.283 . S
O899 Eu883 2.363 . S
O900 C874 1.283 . S
O900 Eu884 2.363 . S
O901 C875 1.283 . S
O901 Eu884 2.363 . S
O902 C876 1.283 . S
O902 Eu888 2.363 . S
O903 C877 1.283 . S
O903 Eu888 2.363 1_655 S
O904 C878 1.283 . S
O904 Eu887 2.363 . S
O905 C879 1.283 . S
O905 Eu887 2.363 1_655 S
O906 C874 1.283 . S
O906 Eu893 2.363 . S
O907 C872 1.283 . S
O907 Eu893 2.363 1_655 S
O908 C875 1.283 . S
O908 Eu880 2.363 . S
O909 C873 1.283 . S
O909 Eu880 2.363 1_655 S
O910 C869 1.283 . S
O910 Eu888 2.363 . S
O911 C871 1.283 . S
O911 Eu888 2.363 . S
O912 C868 1.283 . S
O912 Eu887 2.363 . S
O913 C870 1.283 . S
O913 Eu887 2.363 . S
O914 C879 1.283 . S
O914 Eu883 2.377 . S
O915 C877 1.283 . S
O915 Eu883 2.349 1_556 S
O916 C878 1.283 . S
O916 Eu884 2.377 . S
O917 C876 1.283 . S
O917 Eu884 2.349 1_556 S
C918 O944 1.283 . S
C918 O962 1.283 . S
C919 O945 1.283 . S
C919 O960 1.283 . S
C920 O946 1.283 . S
C920 O963 1.283 . S
C921 O947 1.283 . S
C921 O961 1.283 . S
C922 O948 1.283 . S
C922 O957 1.283 . S
C923 O949 1.283 . S
C923 O959 1.283 . S
C924 O950 1.283 . S
C924 O956 1.283 . S
C925 O951 1.283 . S
C925 O958 1.283 . S
C926 O952 1.283 . S
C926 O967 1.283 . S
C927 O953 1.283 . S
C927 O965 1.283 . S
C928 O954 1.283 . S
C928 O966 1.283 . S
C929 O955 1.283 . S
C929 O964 1.283 . S
Eu930 O931 2.370 . S
Eu930 O932 2.370 . S
Eu930 O935 2.370 . S
Eu930 O936 2.370 . S
Eu930 O944 2.363 . S
Eu930 O945 2.363 . S
Eu930 O958 2.363 . S
Eu930 O959 2.363 . S
O931 Eu930 2.370 . S
O931 Eu933 2.381 . S
O931 Eu938 2.381 . S
O932 Eu930 2.370 . S
O932 Eu934 2.381 . S
O932 Eu937 2.381 . S
Eu933 O931 2.381 . S
Eu933 O935 2.381 . S
Eu933 O939 2.360 1_554 S
Eu933 O940 2.360 1_554 S
Eu933 O948 2.345 1_554 S
Eu933 O949 2.381 . S
Eu933 O964 2.363 . S
Eu933 O965 2.363 . S
Eu934 O932 2.381 . S
Eu934 O936 2.381 . S
Eu934 O941 2.360 1_554 S
Eu934 O942 2.360 1_554 S
Eu934 O950 2.345 1_554 S
Eu934 O951 2.381 . S
Eu934 O966 2.363 . S
Eu934 O967 2.363 . S
O935 Eu930 2.370 . S
O935 Eu933 2.381 . S
O935 Eu937 2.381 . S
O936 Eu930 2.370 . S
O936 Eu934 2.381 . S
O936 Eu938 2.381 . S
Eu937 O932 2.381 . S
Eu937 O935 2.381 . S
Eu937 O939 2.360 1_554 S
Eu937 O942 2.360 1_554 S
Eu937 O954 2.363 . S
Eu937 O955 2.363 . S
Eu937 O962 2.381 . S
Eu937 O963 2.345 1_554 S
Eu938 O931 2.381 . S
Eu938 O936 2.381 . S
Eu938 O940 2.360 1_554 S
Eu938 O941 2.360 1_554 S
Eu938 O952 2.363 . S
Eu938 O953 2.363 . S
Eu938 O960 2.381 . S
Eu938 O961 2.345 1_554 S
O939 Eu933 2.360 1_556 S
O939 Eu937 2.360 1_556 S
O939 Eu943 2.370 . S
O940 Eu933 2.360 1_556 S
O940 Eu938 2.360 1_556 S
O940 Eu943 2.370 . S
O941 Eu934 2.360 1_556 S
O941 Eu938 2.360 1_556 S
O941 Eu943 2.370 . S
O942 Eu934 2.360 1_556 S
O942 Eu937 2.360 1_556 S
O942 Eu943 2.370 . S
Eu943 O939 2.370 . S
Eu943 O940 2.370 . S
Eu943 O941 2.370 . S
Eu943 O942 2.370 . S
Eu943 O946 2.363 . S
Eu943 O947 2.363 . S
Eu943 O956 2.363 . S
Eu943 O957 2.363 . S
O944 C918 1.283 . S
O944 Eu930 2.363 . S
O945 C919 1.283 . S
O945 Eu930 2.363 . S
O946 C920 1.283 . S
O946 Eu943 2.363 . S
O947 C921 1.283 . S
O947 Eu943 2.363 . S
O948 C922 1.283 . S
O948 Eu933 2.345 1_556 S
O949 C923 1.283 . S
O949 Eu933 2.381 . S
O950 C924 1.283 . S
O950 Eu934 2.345 1_556 S
O951 C925 1.283 . S
O951 Eu934 2.381 . S
O952 C926 1.283 . S
O952 Eu938 2.363 . S
O953 C927 1.283 . S
O953 Eu938 2.363 . S
O954 C928 1.283 . S
O954 Eu937 2.363 . S
O955 C929 1.283 . S
O955 Eu937 2.363 . S
O956 C924 1.283 . S
O956 Eu943 2.363 . S
O957 C922 1.283 . S
O957 Eu943 2.363 . S
O958 C925 1.283 . S
O958 Eu930 2.363 . S
O959 C923 1.283 . S
O959 Eu930 2.363 . S
O960 C919 1.283 . S
O960 Eu938 2.381 . S
O961 C921 1.283 . S
O961 Eu938 2.345 1_556 S
O962 C918 1.283 . S
O962 Eu937 2.381 . S
O963 C920 1.283 . S
O963 Eu937 2.345 1_556 S
O964 C929 1.283 . S
O964 Eu933 2.363 . S
O965 C927 1.283 . S
O965 Eu933 2.363 . S
O966 C928 1.283 . S
O966 Eu934 2.363 . S
O967 C926 1.283 . S
O967 Eu934 2.363 . S
C968 O994 1.283 . S
C968 O1012 1.283 . S
C969 O995 1.283 . S
C969 O1010 1.283 . S
C970 O996 1.283 . S
C970 O1013 1.283 . S
C971 O997 1.283 . S
C971 O1011 1.283 . S
C972 O998 1.283 . S
C972 O1007 1.283 . S
C973 O999 1.283 . S
C973 O1009 1.283 . S
C974 O1000 1.283 . S
C974 O1006 1.283 . S
C975 O1001 1.283 . S
C975 O1008 1.283 . S
C976 O1002 1.283 . S
C976 O1017 1.283 . S
C977 O1003 1.283 . S
C977 O1015 1.283 . S
C978 O1004 1.283 . S
C978 O1016 1.283 . S
C979 O1005 1.283 . S
C979 O1014 1.283 . S
Eu980 O981 2.370 1_455 S
Eu980 O982 2.370 . S
Eu980 O985 2.370 1_455 S
Eu980 O986 2.370 . S
Eu980 O994 2.363 . S
Eu980 O995 2.363 . S
Eu980 O1008 2.363 . S
Eu980 O1009 2.363 1_455 S
O981 Eu980 2.370 1_655 S
O981 Eu983 2.370 . S
O981 Eu988 2.370 1_655 S
O982 Eu980 2.370 . S
O982 Eu984 2.370 . S
O982 Eu987 2.370 . S
Eu983 O981 2.370 . S
Eu983 O985 2.370 . S
Eu983 O989 2.370 . S
Eu983 O990 2.370 . S
Eu983 O998 2.363 . S
Eu983 O999 2.363 . S
Eu983 O1014 2.363 . S
Eu983 O1015 2.363 . S
Eu984 O982 2.370 . S
Eu984 O986 2.370 . S
Eu984 O991 2.370 . S
Eu984 O992 2.370 . S
Eu984 O1000 2.363 . S
Eu984 O1001 2.363 . S
Eu984 O1016 2.363 . S
Eu984 O1017 2.363 . S
O985 Eu980 2.370 1_655 S
O985 Eu983 2.370 . S
O985 Eu987 2.370 1_655 S
O986 Eu980 2.370 . S
O986 Eu984 2.370 . S
O986 Eu988 2.370 . S
Eu987 O982 2.370 . S
Eu987 O985 2.370 1_455 S
Eu987 O989 2.370 1_455 S
Eu987 O992 2.370 . S
Eu987 O1004 2.363 . S
Eu987 O1005 2.363 1_455 S
Eu987 O1012 2.363 . S
Eu987 O1013 2.363 . S
Eu988 O981 2.370 1_455 S
Eu988 O986 2.370 . S
Eu988 O990 2.370 1_455 S
Eu988 O991 2.370 . S
Eu988 O1002 2.363 . S
Eu988 O1003 2.363 1_455 S
Eu988 O1010 2.363 . S
Eu988 O1011 2.363 . S
O989 Eu983 2.370 . S
O989 Eu987 2.370 1_655 S
O989 Eu993 2.370 1_655 S
O990 Eu983 2.370 . S
O990 Eu988 2.370 1_655 S
O990 Eu993 2.370 1_655 S
O991 Eu984 2.370 . S
O991 Eu988 2.370 . S
O991 Eu993 2.370 . S
O992 Eu984 2.370 . S
O992 Eu987 2.370 . S
O992 Eu993 2.370 . S
Eu993 O989 2.370 1_455 S
Eu993 O990 2.370 1_455 S
Eu993 O991 2.370 . S
Eu993 O992 2.370 . S
Eu993 O996 2.363 . S
Eu993 O997 2.363 . S
Eu993 O1006 2.363 . S
Eu993 O1007 2.363 1_455 S
O994 C968 1.283 . S
O994 Eu980 2.363 . S
O995 C969 1.283 . S
O995 Eu980 2.363 . S
O996 C970 1.283 . S
O996 Eu993 2.363 . S
O997 C971 1.283 . S
O997 Eu993 2.363 . S
O998 C972 1.283 . S
O998 Eu983 2.363 . S
O999 C973 1.283 . S
O999 Eu983 2.363 . S
O1000 C974 1.283 . S
O1000 Eu984 2.363 . S
O1001 C975 1.283 . S
O1001 Eu984 2.363 . S
O1002 C976 1.283 . S
O1002 Eu988 2.363 . S
O1003 C977 1.283 . S
O1003 Eu988 2.363 1_655 S
O1004 C978 1.283 . S
O1004 Eu987 2.363 . S
O1005 C979 1.283 . S
O1005 Eu987 2.363 1_655 S
O1006 C974 1.283 . S
O1006 Eu993 2.363 . S
O1007 C972 1.283 . S
O1007 Eu993 2.363 1_655 S
O1008 C975 1.283 . S
O1008 Eu980 2.363 . S
O1009 C973 1.283 . S
O1009 Eu980 2.363 1_655 S
O1010 C969 1.283 . S
O1010 Eu988 2.363 . S
O1011 C971 1.283 . S
O1011 Eu988 2.363 . S
O1012 C968 1.283 . S
O1012 Eu987 2.363 . S
O1013 C970 1.283 . S
O1013 Eu987 2.363 . S
O1014 C979 1.283 . S
O1014 Eu983 2.363 . S
O1015 C977 1.283 . S
O1015 Eu983 2.363 . S
O1016 C978 1.283 . S
O1016 Eu984 2.363 . S
O1017 C976 1.283 . S
O1017 Eu984 2.363 . S
C1018 O1044 1.283 . S
C1018 O1062 1.283 . S
C1019 O1045 1.283 . S
C1019 O1060 1.283 . S
C1020 O1046 1.283 . S
C1020 O1063 1.283 . S
C1021 O1047 1.283 . S
C1021 O1061 1.283 . S
C1022 O1048 1.283 . S
C1022 O1057 1.283 . S
C1023 O1049 1.283 . S
C1023 O1059 1.283 . S
C1024 O1050 1.283 . S
C1024 O1056 1.283 . S
C1025 O1051 1.283 . S
C1025 O1058 1.283 . S
C1026 O1052 1.283 . S
C1026 O1067 1.283 . S
C1027 O1053 1.283 . S
C1027 O1065 1.283 . S
C1028 O1054 1.283 . S
C1028 O1066 1.283 . S
C1029 O1055 1.283 . S
C1029 O1064 1.283 . S
Eu1030 O1031 2.370 . S
Eu1030 O1032 2.370 . S
Eu1030 O1035 2.370 . S
Eu1030 O1036 2.370 . S
Eu1030 O1044 2.363 . S
Eu1030 O1045 2.363 . S
Eu1030 O1058 2.363 . S
Eu1030 O1059 2.363 . S
O1031 Eu1030 2.370 . S
O1031 Eu1033 2.370 1_565 S
O1031 Eu1038 2.370 1_565 S
O1032 Eu1030 2.370 . S
O1032 Eu1034 2.370 1_565 S
O1032 Eu1037 2.370 1_565 S
Eu1033 O1031 2.370 1_545 S
Eu1033 O1035 2.370 1_545 S
Eu1033 O1039 2.370 . S
Eu1033 O1040 2.370 . S
Eu1033 O1048 2.363 . S
Eu1033 O1049 2.363 1_545 S
Eu1033 O1064 2.363 . S
Eu1033 O1065 2.363 . S
Eu1034 O1032 2.370 1_545 S
Eu1034 O1036 2.370 1_545 S
Eu1034 O1041 2.370 . S
Eu1034 O1042 2.370 . S
Eu1034 O1050 2.363 . S
Eu1034 O1051 2.363 1_545 S
Eu1034 O1066 2.363 . S
Eu1034 O1067 2.363 . S
O1035 Eu1030 2.370 . S
O1035 Eu1033 2.370 1_565 S
O1035 Eu1037 2.370 1_565 S
O1036 Eu1030 2.370 . S
O1036 Eu1034 2.370 1_565 S
O1036 Eu1038 2.370 1_565 S
Eu1037 O1032 2.370 1_545 S
Eu1037 O1035 2.370 1_545 S
Eu1037 O1039 2.370 . S
Eu1037 O1042 2.370 . S
Eu1037 O1054 2.363 . S
Eu1037 O1055 2.363 . S
Eu1037 O1062 2.363 1_545 S
Eu1037 O1063 2.363 . S
Eu1038 O1031 2.370 1_545 S
Eu1038 O1036 2.370 1_545 S
Eu1038 O1040 2.370 . S
Eu1038 O1041 2.370 . S
Eu1038 O1052 2.363 . S
Eu1038 O1053 2.363 . S
Eu1038 O1060 2.363 1_545 S
Eu1038 O1061 2.363 . S
O1039 Eu1033 2.370 . S
O1039 Eu1037 2.370 . S
O1039 Eu1043 2.370 . S
O1040 Eu1033 2.370 . S
O1040 Eu1038 2.370 . S
O1040 Eu1043 2.370 . S
O1041 Eu1034 2.370 . S
O1041 Eu1038 2.370 . S
O1041 Eu1043 2.370 . S
O1042 Eu1034 2.370 . S
O1042 Eu1037 2.370 . S
O1042 Eu1043 2.370 . S
Eu1043 O1039 2.370 . S
Eu1043 O1040 2.370 . S
Eu1043 O1041 2.370 . S
Eu1043 O1042 2.370 . S
Eu1043 O1046 2.363 . S
Eu1043 O1047 2.363 . S
Eu1043 O1056 2.363 . S
Eu1043 O1057 2.363 . S
O1044 C1018 1.283 . S
O1044 Eu1030 2.363 . S
O1045 C1019 1.283 . S
O1045 Eu1030 2.363 . S
O1046 C1020 1.283 . S
O1046 Eu1043 2.363 . S
O1047 C1021 1.283 . S
O1047 Eu1043 2.363 . S
O1048 C1022 1.283 . S
O1048 Eu1033 2.363 . S
O1049 C1023 1.283 . S
O1049 Eu1033 2.363 1_565 S
O1050 C1024 1.283 . S
O1050 Eu1034 2.363 . S
O1051 C1025 1.283 . S
O1051 Eu1034 2.363 1_565 S
O1052 C1026 1.283 . S
O1052 Eu1038 2.363 . S
O1053 C1027 1.283 . S
O1053 Eu1038 2.363 . S
O1054 C1028 1.283 . S
O1054 Eu1037 2.363 . S
O1055 C1029 1.283 . S
O1055 Eu1037 2.363 . S
O1056 C1024 1.283 . S
O1056 Eu1043 2.363 . S
O1057 C1022 1.283 . S
O1057 Eu1043 2.363 . S
O1058 C1025 1.283 . S
O1058 Eu1030 2.363 . S
O1059 C1023 1.283 . S
O1059 Eu1030 2.363 . S
O1060 C1019 1.283 . S
O1060 Eu1038 2.363 1_565 S
O1061 C1021 1.283 . S
O1061 Eu1038 2.363 . S
O1062 C1018 1.283 . S
O1062 Eu1037 2.363 1_565 S
O1063 C1020 1.283 . S
O1063 Eu1037 2.363 . S
O1064 C1029 1.283 . S
O1064 Eu1033 2.363 . S
O1065 C1027 1.283 . S
O1065 Eu1033 2.363 . S
O1066 C1028 1.283 . S
O1066 Eu1034 2.363 . S
O1067 C1026 1.283 . S
O1067 Eu1034 2.363 . S
H1068 C1074 0.930 . S
H1069 C1078 0.930 . S
H1070 C1083 0.929 . S
H1071 C1081 0.929 . S
H1072 C1076 0.929 . S
H1073 C1082 0.929 . S
C1074 H1068 0.930 . S
C1074 C1075 1.367 . S
C1074 C1082 1.378 . S
C1075 C1074 1.367 . S
C1075 C1083 1.433 . S
C1076 H1072 0.929 . S
C1076 C1078 1.378 . S
C1076 C1080 1.350 . S
C1077 C1080 1.463 . S
C1077 C1082 1.350 . S
C1077 N1085 1.427 . S
C1078 H1069 0.930 . S
C1078 C1076 1.378 . S
C1078 C1079 1.367 . S
C1079 C1078 1.367 . S
C1079 C1081 1.433 . S
C1080 C1076 1.350 . S
C1080 C1077 1.463 . S
C1080 N1084 1.427 . S
C1081 H1071 0.929 . S
C1081 C1079 1.433 . S
C1081 N1084 1.384 . S
C1082 H1073 0.929 . S
C1082 C1074 1.378 . S
C1082 C1077 1.350 . S
C1083 H1070 0.929 . S
C1083 C1075 1.433 . S
C1083 N1085 1.384 . S
N1084 C1080 1.427 . S
N1084 C1081 1.384 . S
N1085 C1077 1.427 . S
N1085 C1083 1.384 . S
H1086 C1092 0.930 . S
H1087 C1096 0.930 . S
H1088 C1101 0.929 . S
H1089 C1099 0.929 . S
H1090 C1094 0.929 . S
H1091 C1100 0.929 . S
C1092 H1086 0.930 . S
C1092 C1093 1.367 . S
C1092 C1100 1.378 . S
C1093 C1092 1.367 . S
C1093 C1101 1.433 . S
C1094 H1090 0.929 . S
C1094 C1096 1.378 . S
C1094 C1098 1.350 . S
C1095 C1098 1.463 . S
C1095 C1100 1.350 . S
C1095 N1103 1.427 . S
C1096 H1087 0.930 . S
C1096 C1094 1.378 . S
C1096 C1097 1.367 . S
C1097 C1096 1.367 . S
C1097 C1099 1.433 . S
C1098 C1094 1.350 . S
C1098 C1095 1.463 . S
C1098 N1102 1.427 . S
C1099 H1089 0.929 . S
C1099 C1097 1.433 . S
C1099 N1102 1.384 . S
C1100 H1091 0.929 . S
C1100 C1092 1.378 . S
C1100 C1095 1.350 . S
C1101 H1088 0.929 . S
C1101 C1093 1.433 . S
C1101 N1103 1.384 . S
N1102 C1098 1.427 . S
N1102 C1099 1.384 . S
N1103 C1095 1.427 . S
N1103 C1101 1.384 . S
H1104 C1110 0.930 . S
H1105 C1114 0.930 . S
H1106 C1119 0.929 . S
H1107 C1117 0.929 . S
H1108 C1112 0.929 . S
H1109 C1118 0.929 . S
C1110 H1104 0.930 . S
C1110 C1111 1.367 . S
C1110 C1118 1.378 . S
C1111 C1110 1.367 . S
C1111 C1119 1.433 . S
C1112 H1108 0.929 . S
C1112 C1114 1.378 . S
C1112 C1116 1.350 . S
C1113 C1116 1.463 . S
C1113 C1118 1.350 . S
C1113 N1121 1.427 . S
C1114 H1105 0.930 . S
C1114 C1112 1.378 . S
C1114 C1115 1.367 . S
C1115 C1114 1.367 . S
C1115 C1117 1.433 . S
C1116 C1112 1.350 . S
C1116 C1113 1.463 . S
C1116 N1120 1.427 . S
C1117 H1107 0.929 . S
C1117 C1115 1.433 . S
C1117 N1120 1.384 . S
C1118 H1109 0.929 . S
C1118 C1110 1.378 . S
C1118 C1113 1.350 . S
C1119 H1106 0.929 . S
C1119 C1111 1.433 . S
C1119 N1121 1.384 . S
N1120 C1116 1.427 . S
N1120 C1117 1.384 . S
N1121 C1113 1.427 . S
N1121 C1119 1.384 . S
H1122 C1128 0.930 . S
H1123 C1132 0.930 . S
H1124 C1137 0.929 . S
H1125 C1135 0.929 . S
H1126 C1130 0.929 . S
H1127 C1136 0.929 . S
C1128 H1122 0.930 . S
C1128 C1129 1.367 . S
C1128 C1136 1.378 . S
C1129 C1128 1.367 . S
C1129 C1137 1.433 . S
C1130 H1126 0.929 . S
C1130 C1132 1.378 . S
C1130 C1134 1.350 . S
C1131 C1134 1.463 . S
C1131 C1136 1.350 . S
C1131 N1139 1.427 . S
C1132 H1123 0.930 . S
C1132 C1130 1.378 . S
C1132 C1133 1.367 . S
C1133 C1132 1.367 . S
C1133 C1135 1.433 . S
C1134 C1130 1.350 . S
C1134 C1131 1.463 . S
C1134 N1138 1.427 . S
C1135 H1125 0.929 . S
C1135 C1133 1.433 . S
C1135 N1138 1.384 . S
C1136 H1127 0.929 . S
C1136 C1128 1.378 . S
C1136 C1131 1.350 . S
C1137 H1124 0.929 . S
C1137 C1129 1.433 . S
C1137 N1139 1.384 . S
N1138 C1134 1.427 . S
N1138 C1135 1.384 . S
N1139 C1131 1.427 . S
N1139 C1137 1.384 . S
H1140 C1146 0.930 . S
H1141 C1150 0.930 . S
H1142 C1155 0.929 . S
H1143 C1153 0.929 . S
H1144 C1148 0.929 . S
H1145 C1154 0.929 . S
C1146 H1140 0.930 . S
C1146 C1147 1.367 . S
C1146 C1154 1.378 . S
C1147 C1146 1.367 . S
C1147 C1155 1.433 . S
C1148 H1144 0.929 . S
C1148 C1150 1.378 . S
C1148 C1152 1.350 . S
C1149 C1152 1.463 . S
C1149 C1154 1.350 . S
C1149 N1157 1.427 . S
C1150 H1141 0.930 . S
C1150 C1148 1.378 . S
C1150 C1151 1.367 . S
C1151 C1150 1.367 . S
C1151 C1153 1.433 . S
C1152 C1148 1.350 . S
C1152 C1149 1.463 . S
C1152 N1156 1.427 . S
C1153 H1143 0.929 . S
C1153 C1151 1.433 . S
C1153 N1156 1.384 . S
C1154 H1145 0.929 . S
C1154 C1146 1.378 . S
C1154 C1149 1.350 . S
C1155 H1142 0.929 . S
C1155 C1147 1.433 . S
C1155 N1157 1.384 . S
N1156 C1152 1.427 . S
N1156 C1153 1.384 . S
N1157 C1149 1.427 . S
N1157 C1155 1.384 . S
H1158 C1164 0.930 . S
H1159 C1168 0.930 . S
H1160 C1173 0.929 . S
H1161 C1171 0.929 . S
H1162 C1166 0.929 . S
H1163 C1172 0.929 . S
C1164 H1158 0.930 . S
C1164 C1165 1.367 . S
C1164 C1172 1.378 . S
C1165 C1164 1.367 . S
C1165 C1173 1.433 . S
C1166 H1162 0.929 . S
C1166 C1168 1.378 . S
C1166 C1170 1.350 . S
C1167 C1170 1.463 . S
C1167 C1172 1.350 . S
C1167 N1175 1.427 . S
C1168 H1159 0.930 . S
C1168 C1166 1.378 . S
C1168 C1169 1.367 . S
C1169 C1168 1.367 . S
C1169 C1171 1.433 . S
C1170 C1166 1.350 . S
C1170 C1167 1.463 . S
C1170 N1174 1.427 . S
C1171 H1161 0.929 . S
C1171 C1169 1.433 . S
C1171 N1174 1.384 . S
C1172 H1163 0.929 . S
C1172 C1164 1.378 . S
C1172 C1167 1.350 . S
C1173 H1160 0.929 . S
C1173 C1165 1.433 . S
C1173 N1175 1.384 . S
N1174 C1170 1.427 . S
N1174 C1171 1.384 . S
N1175 C1167 1.427 . S
N1175 C1173 1.384 . S
H1176 C1182 0.930 . S
H1177 C1186 0.930 . S
H1178 C1191 0.929 . S
H1179 C1189 0.929 . S
H1180 C1184 0.929 . S
H1181 C1190 0.929 . S
C1182 H1176 0.930 . S
C1182 C1183 1.367 . S
C1182 C1190 1.378 . S
C1183 C1182 1.367 . S
C1183 C1191 1.433 . S
C1184 H1180 0.929 . S
C1184 C1186 1.378 . S
C1184 C1188 1.350 . S
C1185 C1188 1.463 . S
C1185 C1190 1.350 . S
C1185 N1193 1.427 . S
C1186 H1177 0.930 . S
C1186 C1184 1.378 . S
C1186 C1187 1.367 . S
C1187 C1186 1.367 . S
C1187 C1189 1.433 . S
C1188 C1184 1.350 . S
C1188 C1185 1.463 . S
C1188 N1192 1.427 . S
C1189 H1179 0.929 . S
C1189 C1187 1.433 . S
C1189 N1192 1.384 . S
C1190 H1181 0.929 . S
C1190 C1182 1.378 . S
C1190 C1185 1.350 . S
C1191 H1178 0.929 . S
C1191 C1183 1.433 . S
C1191 N1193 1.384 . S
N1192 C1188 1.427 . S
N1192 C1189 1.384 . S
N1193 C1185 1.427 . S
N1193 C1191 1.384 . S
H1194 C1200 0.930 . S
H1195 C1204 0.930 . S
H1196 C1209 0.929 . S
H1197 C1207 0.929 . S
H1198 C1202 0.929 . S
H1199 C1208 0.929 . S
C1200 H1194 0.930 . S
C1200 C1201 1.367 . S
C1200 C1208 1.378 . S
C1201 C1200 1.367 . S
C1201 C1209 1.433 . S
C1202 H1198 0.929 . S
C1202 C1204 1.378 . S
C1202 C1206 1.350 . S
C1203 C1206 1.463 . S
C1203 C1208 1.350 . S
C1203 N1211 1.427 . S
C1204 H1195 0.930 . S
C1204 C1202 1.378 . S
C1204 C1205 1.367 . S
C1205 C1204 1.367 . S
C1205 C1207 1.433 . S
C1206 C1202 1.350 . S
C1206 C1203 1.463 . S
C1206 N1210 1.427 . S
C1207 H1197 0.929 . S
C1207 C1205 1.433 . S
C1207 N1210 1.384 . S
C1208 H1199 0.929 . S
C1208 C1200 1.378 . S
C1208 C1203 1.350 . S
C1209 H1196 0.929 . S
C1209 C1201 1.433 . S
C1209 N1211 1.384 . S
N1210 C1206 1.427 . S
N1210 C1207 1.384 . S
N1211 C1203 1.427 . S
N1211 C1209 1.384 . S
H1212 C1218 0.930 . S
H1213 C1222 0.930 . S
H1214 C1227 0.929 . S
H1215 C1225 0.929 . S
H1216 C1220 0.929 . S
H1217 C1226 0.929 . S
C1218 H1212 0.930 . S
C1218 C1219 1.367 . S
C1218 C1226 1.378 . S
C1219 C1218 1.367 . S
C1219 C1227 1.433 . S
C1220 H1216 0.929 . S
C1220 C1222 1.378 . S
C1220 C1224 1.350 . S
C1221 C1224 1.463 . S
C1221 C1226 1.350 . S
C1221 N1229 1.427 . S
C1222 H1213 0.930 . S
C1222 C1220 1.378 . S
C1222 C1223 1.367 . S
C1223 C1222 1.367 . S
C1223 C1225 1.433 . S
C1224 C1220 1.350 . S
C1224 C1221 1.463 . S
C1224 N1228 1.427 . S
C1225 H1215 0.929 . S
C1225 C1223 1.433 . S
C1225 N1228 1.384 . S
C1226 H1217 0.929 . S
C1226 C1218 1.378 . S
C1226 C1221 1.350 . S
C1227 H1214 0.929 . S
C1227 C1219 1.433 . S
C1227 N1229 1.384 . S
N1228 C1224 1.427 . S
N1228 C1225 1.384 . S
N1229 C1221 1.427 . S
N1229 C1227 1.384 . S
H1230 C1236 0.930 . S
H1231 C1240 0.930 . S
H1232 C1245 0.929 . S
H1233 C1243 0.929 . S
H1234 C1238 0.929 . S
H1235 C1244 0.929 . S
C1236 H1230 0.930 . S
C1236 C1237 1.367 . S
C1236 C1244 1.378 . S
C1237 C1236 1.367 . S
C1237 C1245 1.433 . S
C1238 H1234 0.929 . S
C1238 C1240 1.378 . S
C1238 C1242 1.350 . S
C1239 C1242 1.463 . S
C1239 C1244 1.350 . S
C1239 N1247 1.427 . S
C1240 H1231 0.930 . S
C1240 C1238 1.378 . S
C1240 C1241 1.367 . S
C1241 C1240 1.367 . S
C1241 C1243 1.433 . S
C1242 C1238 1.350 . S
C1242 C1239 1.463 . S
C1242 N1246 1.427 . S
C1243 H1233 0.929 . S
C1243 C1241 1.433 . S
C1243 N1246 1.384 . S
C1244 H1235 0.929 . S
C1244 C1236 1.378 . S
C1244 C1239 1.350 . S
C1245 H1232 0.929 . S
C1245 C1237 1.433 . S
C1245 N1247 1.384 . S
N1246 C1242 1.427 . S
N1246 C1243 1.384 . S
N1247 C1239 1.427 . S
N1247 C1245 1.384 . S
H1248 C1254 0.930 . S
H1249 C1258 0.930 . S
H1250 C1263 0.929 . S
H1251 C1261 0.929 . S
H1252 C1256 0.929 . S
H1253 C1262 0.929 . S
C1254 H1248 0.930 . S
C1254 C1255 1.367 . S
C1254 C1262 1.378 . S
C1255 C1254 1.367 . S
C1255 C1263 1.433 . S
C1256 H1252 0.929 . S
C1256 C1258 1.378 . S
C1256 C1260 1.350 . S
C1257 C1260 1.463 . S
C1257 C1262 1.350 . S
C1257 N1265 1.427 . S
C1258 H1249 0.930 . S
C1258 C1256 1.378 . S
C1258 C1259 1.367 . S
C1259 C1258 1.367 . S
C1259 C1261 1.433 . S
C1260 C1256 1.350 . S
C1260 C1257 1.463 . S
C1260 N1264 1.427 . S
C1261 H1251 0.929 . S
C1261 C1259 1.433 . S
C1261 N1264 1.384 . S
C1262 H1253 0.929 . S
C1262 C1254 1.378 . S
C1262 C1257 1.350 . S
C1263 H1250 0.929 . S
C1263 C1255 1.433 . S
C1263 N1265 1.384 . S
N1264 C1260 1.427 . S
N1264 C1261 1.384 . S
N1265 C1257 1.427 . S
N1265 C1263 1.384 . S
H1266 C1272 0.930 . S
H1267 C1276 0.930 . S
H1268 C1281 0.929 . S
H1269 C1279 0.929 . S
H1270 C1274 0.929 . S
H1271 C1280 0.929 . S
C1272 H1266 0.930 . S
C1272 C1273 1.367 . S
C1272 C1280 1.378 . S
C1273 C1272 1.367 . S
C1273 C1281 1.433 . S
C1274 H1270 0.929 . S
C1274 C1276 1.378 . S
C1274 C1278 1.350 . S
C1275 C1278 1.463 . S
C1275 C1280 1.350 . S
C1275 N1283 1.427 . S
C1276 H1267 0.930 . S
C1276 C1274 1.378 . S
C1276 C1277 1.367 . S
C1277 C1276 1.367 . S
C1277 C1279 1.433 . S
C1278 C1274 1.350 . S
C1278 C1275 1.463 . S
C1278 N1282 1.427 . S
C1279 H1269 0.929 . S
C1279 C1277 1.433 . S
C1279 N1282 1.384 . S
C1280 H1271 0.929 . S
C1280 C1272 1.378 . S
C1280 C1275 1.350 . S
C1281 H1268 0.929 . S
C1281 C1273 1.433 . S
C1281 N1283 1.384 . S
N1282 C1278 1.427 . S
N1282 C1279 1.384 . S
N1283 C1275 1.427 . S
N1283 C1281 1.384 . S
H1284 C1290 0.930 . S
H1285 C1294 0.930 . S
H1286 C1299 0.929 . S
H1287 C1297 0.929 . S
H1288 C1292 0.929 . S
H1289 C1298 0.929 . S
C1290 H1284 0.930 . S
C1290 C1291 1.367 . S
C1290 C1298 1.378 . S
C1291 C1290 1.367 . S
C1291 C1299 1.433 1_556 S
C1292 H1288 0.929 . S
C1292 C1294 1.378 . S
C1292 C1296 1.350 . S
C1293 C1296 1.462 1_556 S
C1293 C1298 1.356 . S
C1293 N1301 1.421 1_556 S
C1294 H1285 0.930 . S
C1294 C1292 1.378 . S
C1294 C1295 1.399 . S
C1295 C1294 1.399 . S
C1295 C1297 1.401 1_554 S
C1296 C1292 1.350 . S
C1296 C1293 1.462 1_554 S
C1296 N1300 1.427 1_554 S
C1297 H1287 0.929 . S
C1297 C1295 1.401 1_556 S
C1297 N1300 1.384 . S
C1298 H1289 0.929 . S
C1298 C1290 1.378 . S
C1298 C1293 1.356 . S
C1299 H1286 0.929 . S
C1299 C1291 1.433 1_554 S
C1299 N1301 1.384 . S
N1300 C1296 1.427 1_556 S
N1300 C1297 1.384 . S
N1301 C1293 1.421 1_554 S
N1301 C1299 1.384 . S
H1302 C1308 0.930 . S
H1303 C1312 0.930 . S
H1304 C1317 0.929 . S
H1305 C1315 0.929 . S
H1306 C1310 0.929 . S
H1307 C1316 0.929 . S
C1308 H1302 0.930 . S
C1308 C1309 1.398 . S
C1308 C1316 1.378 . S
C1309 C1308 1.398 . S
C1309 C1317 1.402 1_554 S
C1310 H1306 0.929 . S
C1310 C1312 1.378 . S
C1310 C1314 1.355 . S
C1311 C1314 1.462 1_554 S
C1311 C1316 1.350 . S
C1311 N1319 1.427 1_554 S
C1312 H1303 0.930 . S
C1312 C1310 1.378 . S
C1312 C1313 1.371 1_556 S
C1313 C1312 1.371 1_554 S
C1313 C1315 1.429 . S
C1314 C1310 1.355 . S
C1314 C1311 1.462 1_556 S
C1314 N1318 1.422 1_556 S
C1315 H1305 0.929 . S
C1315 C1313 1.429 . S
C1315 N1318 1.384 . S
C1316 H1307 0.929 . S
C1316 C1308 1.378 . S
C1316 C1311 1.350 . S
C1317 H1304 0.929 . S
C1317 C1309 1.402 1_556 S
C1317 N1319 1.384 . S
N1318 C1314 1.422 1_554 S
N1318 C1315 1.384 . S
N1319 C1311 1.427 1_556 S
N1319 C1317 1.384 . S
H1320 C1326 0.930 . S
H1321 C1330 0.930 . S
H1322 C1335 0.929 . S
H1323 C1333 0.929 . S
H1324 C1328 0.929 . S
H1325 C1334 0.929 . S
C1326 H1320 0.930 . S
C1326 C1327 1.370 . S
C1326 C1334 1.378 . S
C1327 C1326 1.370 . S
C1327 C1335 1.430 1_554 S
C1328 H1324 0.929 . S
C1328 C1330 1.378 . S
C1328 C1332 1.348 1_556 S
C1329 C1332 1.462 . S
C1329 C1334 1.354 . S
C1329 N1337 1.424 1_554 S
C1330 H1321 0.930 . S
C1330 C1328 1.378 . S
C1330 C1331 1.365 1_556 S
C1331 C1330 1.365 1_554 S
C1331 C1333 1.436 . S
C1332 C1328 1.348 1_554 S
C1332 C1329 1.462 . S
C1332 N1336 1.429 . S
C1333 H1323 0.929 . S
C1333 C1331 1.436 . S
C1333 N1336 1.384 . S
C1334 H1325 0.929 . S
C1334 C1326 1.378 . S
C1334 C1329 1.354 . S
C1335 H1322 0.929 . S
C1335 C1327 1.430 1_556 S
C1335 N1337 1.384 . S
N1336 C1332 1.429 . S
N1336 C1333 1.384 . S
N1337 C1329 1.424 1_556 S
N1337 C1335 1.384 . S
H1338 C1344 0.930 . S
H1339 C1348 0.930 . S
H1340 C1353 0.929 . S
H1341 C1351 0.929 . S
H1342 C1346 0.929 . S
H1343 C1352 0.929 . S
C1344 H1338 0.930 . S
C1344 C1345 1.369 . S
C1344 C1352 1.378 . S
C1345 C1344 1.369 . S
C1345 C1353 1.431 1_556 S
C1346 H1342 0.929 . S
C1346 C1348 1.378 . S
C1346 C1350 1.350 . S
C1347 C1350 1.462 1_556 S
C1347 C1352 1.359 . S
C1347 N1355 1.418 1_556 S
C1348 H1339 0.930 . S
C1348 C1346 1.378 . S
C1348 C1349 1.403 . S
C1349 C1348 1.403 . S
C1349 C1351 1.397 1_554 S
C1350 C1346 1.350 . S
C1350 C1347 1.462 1_554 S
C1350 N1354 1.427 1_554 S
C1351 H1341 0.929 . S
C1351 C1349 1.397 1_556 S
C1351 N1354 1.384 . S
C1352 H1343 0.929 . S
C1352 C1344 1.378 . S
C1352 C1347 1.359 . S
C1353 H1340 0.929 . S
C1353 C1345 1.431 1_554 S
C1353 N1355 1.384 . S
N1354 C1350 1.427 1_556 S
N1354 C1351 1.384 . S
N1355 C1347 1.418 1_554 S
N1355 C1353 1.384 . S
H1356 C1362 0.930 . S
H1357 C1366 0.930 . S
H1358 C1371 0.929 . S
H1359 C1369 0.929 . S
H1360 C1364 0.929 . S
H1361 C1370 0.929 . S
C1362 H1356 0.930 . S
C1362 C1363 1.367 . S
C1362 C1370 1.378 . S
C1363 C1362 1.367 . S
C1363 C1371 1.433 1_455 S
C1364 H1360 0.929 . S
C1364 C1366 1.378 . S
C1364 C1368 1.350 1_655 S
C1365 C1368 1.463 . S
C1365 C1370 1.350 . S
C1365 N1373 1.427 1_455 S
C1366 H1357 0.930 . S
C1366 C1364 1.378 . S
C1366 C1367 1.367 1_655 S
C1367 C1366 1.367 1_455 S
C1367 C1369 1.433 . S
C1368 C1364 1.350 1_455 S
C1368 C1365 1.463 . S
C1368 N1372 1.427 . S
C1369 H1359 0.929 . S
C1369 C1367 1.433 . S
C1369 N1372 1.384 . S
C1370 H1361 0.929 . S
C1370 C1362 1.378 . S
C1370 C1365 1.350 . S
C1371 H1358 0.929 . S
C1371 C1363 1.433 1_655 S
C1371 N1373 1.384 . S
N1372 C1368 1.427 . S
N1372 C1369 1.384 . S
N1373 C1365 1.427 1_655 S
N1373 C1371 1.384 . S
H1374 C1380 0.930 . S
H1375 C1384 0.930 . S
H1376 C1389 0.929 . S
H1377 C1387 0.929 . S
H1378 C1382 0.929 . S
H1379 C1388 0.929 . S
C1380 H1374 0.930 . S
C1380 C1381 1.367 . S
C1380 C1388 1.378 . S
C1381 C1380 1.367 . S
C1381 C1389 1.433 1_545 S
C1382 H1378 0.929 . S
C1382 C1384 1.378 . S
C1382 C1386 1.332 1_565 S
C1383 C1386 1.464 . S
C1383 C1388 1.350 . S
C1383 N1391 1.427 1_545 S
C1384 H1375 0.930 . S
C1384 C1382 1.378 . S
C1384 C1385 1.341 1_565 S
C1385 C1384 1.341 1_545 S
C1385 C1387 1.460 . S
C1386 C1382 1.332 1_545 S
C1386 C1383 1.464 . S
C1386 N1390 1.445 . S
C1387 H1377 0.929 . S
C1387 C1385 1.460 . S
C1387 N1390 1.384 . S
C1388 H1379 0.929 . S
C1388 C1380 1.378 . S
C1388 C1383 1.350 . S
C1389 H1376 0.929 . S
C1389 C1381 1.433 1_565 S
C1389 N1391 1.384 . S
N1390 C1386 1.445 . S
N1390 C1387 1.384 . S
N1391 C1383 1.427 1_565 S
N1391 C1389 1.384 . S
H1392 C1398 0.930 . S
H1393 C1402 0.930 . S
H1394 C1407 0.929 . S
H1395 C1405 0.929 . S
H1396 C1400 0.929 . S
H1397 C1406 0.929 . S
C1398 H1392 0.930 . S
C1398 C1399 1.367 . S
C1398 C1406 1.378 . S
C1399 C1398 1.367 . S
C1399 C1407 1.433 1_455 S
C1400 H1396 0.929 . S
C1400 C1402 1.378 . S
C1400 C1404 1.350 1_655 S
C1401 C1404 1.463 . S
C1401 C1406 1.350 . S
C1401 N1409 1.427 1_455 S
C1402 H1393 0.930 . S
C1402 C1400 1.378 . S
C1402 C1403 1.367 1_655 S
C1403 C1402 1.367 1_455 S
C1403 C1405 1.433 . S
C1404 C1400 1.350 1_455 S
C1404 C1401 1.463 . S
C1404 N1408 1.427 . S
C1405 H1395 0.929 . S
C1405 C1403 1.433 . S
C1405 N1408 1.384 . S
C1406 H1397 0.929 . S
C1406 C1398 1.378 . S
C1406 C1401 1.350 . S
C1407 H1394 0.929 . S
C1407 C1399 1.433 1_655 S
C1407 N1409 1.384 . S
N1408 C1404 1.427 . S
N1408 C1405 1.384 . S
N1409 C1401 1.427 1_655 S
N1409 C1407 1.384 . S
H1410 C1416 0.930 . S
H1411 C1420 0.930 . S
H1412 C1425 0.929 . S
H1413 C1423 0.929 . S
H1414 C1418 0.929 . S
H1415 C1424 0.929 . S
C1416 H1410 0.930 . S
C1416 C1417 1.342 1_565 S
C1416 C1424 1.378 . S
C1417 C1416 1.342 1_545 S
C1417 C1425 1.459 . S
C1418 H1414 0.929 . S
C1418 C1420 1.378 . S
C1418 C1422 1.350 . S
C1419 C1422 1.464 . S
C1419 C1424 1.335 1_545 S
C1419 N1427 1.442 . S
C1420 H1411 0.930 . S
C1420 C1418 1.378 . S
C1420 C1421 1.367 . S
C1421 C1420 1.367 . S
C1421 C1423 1.433 1_545 S
C1422 C1418 1.350 . S
C1422 C1419 1.464 . S
C1422 N1426 1.427 1_545 S
C1423 H1413 0.929 . S
C1423 C1421 1.433 1_565 S
C1423 N1426 1.384 . S
C1424 H1415 0.929 . S
C1424 C1416 1.378 . S
C1424 C1419 1.335 1_565 S
C1425 H1412 0.929 . S
C1425 C1417 1.459 . S
C1425 N1427 1.384 . S
N1426 C1422 1.427 1_565 S
N1426 C1423 1.384 . S
N1427 C1419 1.442 . S
N1427 C1425 1.384 . S
H1428 C1434 0.930 . S
H1429 C1438 0.930 . S
H1430 C1443 0.929 . S
H1431 C1441 0.929 . S
H1432 C1436 0.929 . S
H1433 C1442 0.929 . S
C1434 H1428 0.930 . S
C1434 C1435 1.367 . S
C1434 C1442 1.378 . S
C1435 C1434 1.367 . S
C1435 C1443 1.433 1_455 S
C1436 H1432 0.929 . S
C1436 C1438 1.378 . S
C1436 C1440 1.350 1_655 S
C1437 C1440 1.463 . S
C1437 C1442 1.350 . S
C1437 N1445 1.427 1_455 S
C1438 H1429 0.930 . S
C1438 C1436 1.378 . S
C1438 C1439 1.367 1_655 S
C1439 C1438 1.367 1_455 S
C1439 C1441 1.433 . S
C1440 C1436 1.350 1_455 S
C1440 C1437 1.463 . S
C1440 N1444 1.427 . S
C1441 H1431 0.929 . S
C1441 C1439 1.433 . S
C1441 N1444 1.384 . S
C1442 H1433 0.929 . S
C1442 C1434 1.378 . S
C1442 C1437 1.350 . S
C1443 H1430 0.929 . S
C1443 C1435 1.433 1_655 S
C1443 N1445 1.384 . S
N1444 C1440 1.427 . S
N1444 C1441 1.384 . S
N1445 C1437 1.427 1_655 S
N1445 C1443 1.384 . S
H1446 C1452 0.930 . S
H1447 C1456 0.930 . S
H1448 C1461 0.929 . S
H1449 C1459 0.929 . S
H1450 C1454 0.929 . S
H1451 C1460 0.929 . S
C1452 H1446 0.930 . S
C1452 C1453 1.367 . S
C1452 C1460 1.378 . S
C1453 C1452 1.367 . S
C1453 C1461 1.433 1_545 S
C1454 H1450 0.929 . S
C1454 C1456 1.378 . S
C1454 C1458 1.335 1_565 S
C1455 C1458 1.464 . S
C1455 C1460 1.350 . S
C1455 N1463 1.427 1_545 S
C1456 H1447 0.930 . S
C1456 C1454 1.378 . S
C1456 C1457 1.341 1_565 S
C1457 C1456 1.341 1_545 S
C1457 C1459 1.460 . S
C1458 C1454 1.335 1_545 S
C1458 C1455 1.464 . S
C1458 N1462 1.442 . S
C1459 H1449 0.929 . S
C1459 C1457 1.460 . S
C1459 N1462 1.384 . S
C1460 H1451 0.929 . S
C1460 C1452 1.378 . S
C1460 C1455 1.350 . S
C1461 H1448 0.929 . S
C1461 C1453 1.433 1_565 S
C1461 N1463 1.384 . S
N1462 C1458 1.442 . S
N1462 C1459 1.384 . S
N1463 C1455 1.427 1_565 S
N1463 C1461 1.384 . S
H1464 C1470 0.930 . S
H1465 C1474 0.930 . S
H1466 C1479 0.929 . S
H1467 C1477 0.929 . S
H1468 C1472 0.929 . S
H1469 C1478 0.929 . S
C1470 H1464 0.930 . S
C1470 C1471 1.367 1_655 S
C1470 C1478 1.378 . S
C1471 C1470 1.367 1_455 S
C1471 C1479 1.433 . S
C1472 H1468 0.929 . S
C1472 C1474 1.378 . S
C1472 C1476 1.350 . S
C1473 C1476 1.463 . S
C1473 C1478 1.350 1_455 S
C1473 N1481 1.427 . S
C1474 H1465 0.930 . S
C1474 C1472 1.378 . S
C1474 C1475 1.367 . S
C1475 C1474 1.367 . S
C1475 C1477 1.433 1_455 S
C1476 C1472 1.350 . S
C1476 C1473 1.463 . S
C1476 N1480 1.427 1_455 S
C1477 H1467 0.929 . S
C1477 C1475 1.433 1_655 S
C1477 N1480 1.384 . S
C1478 H1469 0.929 . S
C1478 C1470 1.378 . S
C1478 C1473 1.350 1_655 S
C1479 H1466 0.929 . S
C1479 C1471 1.433 . S
C1479 N1481 1.384 . S
N1480 C1476 1.427 1_655 S
N1480 C1477 1.384 . S
N1481 C1473 1.427 . S
N1481 C1479 1.384 . S
H1482 C1488 0.930 . S
H1483 C1492 0.930 . S
H1484 C1497 0.929 . S
H1485 C1495 0.929 . S
H1486 C1490 0.929 . S
H1487 C1496 0.929 . S
C1488 H1482 0.930 . S
C1488 C1489 1.367 . S
C1488 C1496 1.378 . S
C1489 C1488 1.367 . S
C1489 C1497 1.433 1_545 S
C1490 H1486 0.929 . S
C1490 C1492 1.378 . S
C1490 C1494 1.334 1_565 S
C1491 C1494 1.464 . S
C1491 C1496 1.350 . S
C1491 N1499 1.427 1_545 S
C1492 H1483 0.930 . S
C1492 C1490 1.378 . S
C1492 C1493 1.340 1_565 S
C1493 C1492 1.340 1_545 S
C1493 C1495 1.461 . S
C1494 C1490 1.334 1_545 S
C1494 C1491 1.464 . S
C1494 N1498 1.444 . S
C1495 H1485 0.929 . S
C1495 C1493 1.461 . S
C1495 N1498 1.384 . S
C1496 H1487 0.929 . S
C1496 C1488 1.378 . S
C1496 C1491 1.350 . S
C1497 H1484 0.929 . S
C1497 C1489 1.433 1_565 S
C1497 N1499 1.384 . S
N1498 C1494 1.444 . S
N1498 C1495 1.384 . S
N1499 C1491 1.427 1_565 S
N1499 C1497 1.384 . S
H1500 C1506 0.930 . S
H1501 C1510 0.930 . S
H1502 C1515 0.929 . S
H1503 C1513 0.929 . S
H1504 C1508 0.929 . S
H1505 C1514 0.929 . S
C1506 H1500 0.930 . S
C1506 C1507 1.367 . S
C1506 C1514 1.378 . S
C1507 C1506 1.367 . S
C1507 C1515 1.433 1_455 S
C1508 H1504 0.929 . S
C1508 C1510 1.378 . S
C1508 C1512 1.350 1_655 S
C1509 C1512 1.463 . S
C1509 C1514 1.350 . S
C1509 N1517 1.427 1_455 S
C1510 H1501 0.930 . S
C1510 C1508 1.378 . S
C1510 C1511 1.367 1_655 S
C1511 C1510 1.367 1_455 S
C1511 C1513 1.433 . S
C1512 C1508 1.350 1_455 S
C1512 C1509 1.463 . S
C1512 N1516 1.427 . S
C1513 H1503 0.929 . S
C1513 C1511 1.433 . S
C1513 N1516 1.384 . S
C1514 H1505 0.929 . S
C1514 C1506 1.378 . S
C1514 C1509 1.350 . S
C1515 H1502 0.929 . S
C1515 C1507 1.433 1_655 S
C1515 N1517 1.384 . S
N1516 C1512 1.427 . S
N1516 C1513 1.384 . S
N1517 C1509 1.427 1_655 S
N1517 C1515 1.384 . S
H1518 C1524 0.930 . S
H1519 C1528 0.930 . S
H1520 C1533 0.929 . S
H1521 C1531 0.929 . S
H1522 C1526 0.929 . S
H1523 C1532 0.929 . S
C1524 H1518 0.930 . S
C1524 C1525 1.347 1_565 S
C1524 C1532 1.378 . S
C1525 C1524 1.347 1_545 S
C1525 C1533 1.453 . S
C1526 H1522 0.929 . S
C1526 C1528 1.378 . S
C1526 C1530 1.350 . S
C1527 C1530 1.463 . S
C1527 C1532 1.345 1_545 S
C1527 N1535 1.432 . S
C1528 H1519 0.930 . S
C1528 C1526 1.378 . S
C1528 C1529 1.367 . S
C1529 C1528 1.367 . S
C1529 C1531 1.433 1_545 S
C1530 C1526 1.350 . S
C1530 C1527 1.463 . S
C1530 N1534 1.427 1_545 S
C1531 H1521 0.929 . S
C1531 C1529 1.433 1_565 S
C1531 N1534 1.384 . S
C1532 H1523 0.929 . S
C1532 C1524 1.378 . S
C1532 C1527 1.345 1_565 S
C1533 H1520 0.929 . S
C1533 C1525 1.453 . S
C1533 N1535 1.384 . S
N1534 C1530 1.427 1_565 S
N1534 C1531 1.384 . S
N1535 C1527 1.432 . S
N1535 C1533 1.384 . S
H1536 C1542 0.930 . S
H1537 C1546 0.930 . S
H1538 C1551 0.929 . S
H1539 C1549 0.929 . S
H1540 C1544 0.929 . S
H1541 C1550 0.929 . S
C1542 H1536 0.930 . S
C1542 C1543 1.367 . S
C1542 C1550 1.378 . S
C1543 C1542 1.367 . S
C1543 C1551 1.433 1_455 S
C1544 H1540 0.929 . S
C1544 C1546 1.378 . S
C1544 C1548 1.350 1_655 S
C1545 C1548 1.463 . S
C1545 C1550 1.350 . S
C1545 N1553 1.427 1_455 S
C1546 H1537 0.930 . S
C1546 C1544 1.378 . S
C1546 C1547 1.367 1_655 S
C1547 C1546 1.367 1_455 S
C1547 C1549 1.433 . S
C1548 C1544 1.350 1_455 S
C1548 C1545 1.463 . S
C1548 N1552 1.427 . S
C1549 H1539 0.929 . S
C1549 C1547 1.433 . S
C1549 N1552 1.384 . S
C1550 H1541 0.929 . S
C1550 C1542 1.378 . S
C1550 C1545 1.350 . S
C1551 H1538 0.929 . S
C1551 C1543 1.433 1_655 S
C1551 N1553 1.384 . S
N1552 C1548 1.427 . S
N1552 C1549 1.384 . S
N1553 C1545 1.427 1_655 S
N1553 C1551 1.384 . S
H1554 C1560 0.930 . S
H1555 C1564 0.930 . S
H1556 C1569 0.929 . S
H1557 C1567 0.929 . S
H1558 C1562 0.929 . S
H1559 C1568 0.929 . S
C1560 H1554 0.930 . S
C1560 C1561 1.367 . S
C1560 C1568 1.378 . S
C1561 C1560 1.367 . S
C1561 C1569 1.433 1_545 S
C1562 H1558 0.929 . S
C1562 C1564 1.378 . S
C1562 C1566 1.340 1_565 S
C1563 C1566 1.463 . S
C1563 C1568 1.350 . S
C1563 N1571 1.427 1_545 S
C1564 H1555 0.930 . S
C1564 C1562 1.378 . S
C1564 C1565 1.353 1_565 S
C1565 C1564 1.353 1_545 S
C1565 C1567 1.448 . S
C1566 C1562 1.340 1_545 S
C1566 C1563 1.463 . S
C1566 N1570 1.437 . S
C1567 H1557 0.929 . S
C1567 C1565 1.448 . S
C1567 N1570 1.384 . S
C1568 H1559 0.929 . S
C1568 C1560 1.378 . S
C1568 C1563 1.350 . S
C1569 H1556 0.929 . S
C1569 C1561 1.433 1_565 S
C1569 N1571 1.384 . S
N1570 C1566 1.437 . S
N1570 C1567 1.384 . S
N1571 C1563 1.427 1_565 S
N1571 C1569 1.384 . S
H1572 C1578 0.930 . S
H1573 C1582 0.930 . S
H1574 C1587 0.929 . S
H1575 C1585 0.929 . S
H1576 C1580 0.929 . S
H1577 C1586 0.929 . S
C1578 H1572 0.930 . S
C1578 C1579 1.367 1_655 S
C1578 C1586 1.378 . S
C1579 C1578 1.367 1_455 S
C1579 C1587 1.433 . S
C1580 H1576 0.929 . S
C1580 C1582 1.378 . S
C1580 C1584 1.350 . S
C1581 C1584 1.463 . S
C1581 C1586 1.350 1_455 S
C1581 N1589 1.427 . S
C1582 H1573 0.930 . S
C1582 C1580 1.378 . S
C1582 C1583 1.367 . S
C1583 C1582 1.367 . S
C1583 C1585 1.433 1_455 S
C1584 C1580 1.350 . S
C1584 C1581 1.463 . S
C1584 N1588 1.427 1_455 S
C1585 H1575 0.929 . S
C1585 C1583 1.433 1_655 S
C1585 N1588 1.384 . S
C1586 H1577 0.929 . S
C1586 C1578 1.378 . S
C1586 C1581 1.350 1_655 S
C1587 H1574 0.929 . S
C1587 C1579 1.433 . S
C1587 N1589 1.384 . S
N1588 C1584 1.427 1_655 S
N1588 C1585 1.384 . S
N1589 C1581 1.427 . S
N1589 C1587 1.384 . S
H1590 C1596 0.930 . S
H1591 C1600 0.930 . S
H1592 C1605 0.929 . S
H1593 C1603 0.929 . S
H1594 C1598 0.929 . S
H1595 C1604 0.929 . S
C1596 H1590 0.930 . S
C1596 C1597 1.349 1_565 S
C1596 C1604 1.378 . S
C1597 C1596 1.349 1_545 S
C1597 C1605 1.452 . S
C1598 H1594 0.929 . S
C1598 C1600 1.378 . S
C1598 C1602 1.350 . S
C1599 C1602 1.464 . S
C1599 C1604 1.337 1_545 S
C1599 N1607 1.441 . S
C1600 H1591 0.930 . S
C1600 C1598 1.378 . S
C1600 C1601 1.367 . S
C1601 C1600 1.367 . S
C1601 C1603 1.433 1_545 S
C1602 C1598 1.350 . S
C1602 C1599 1.464 . S
C1602 N1606 1.427 1_545 S
C1603 H1593 0.929 . S
C1603 C1601 1.433 1_565 S
C1603 N1606 1.384 . S
C1604 H1595 0.929 . S
C1604 C1596 1.378 . S
C1604 C1599 1.337 1_565 S
C1605 H1592 0.929 . S
C1605 C1597 1.452 . S
C1605 N1607 1.384 . S
N1606 C1602 1.427 1_565 S
N1606 C1603 1.384 . S
N1607 C1599 1.441 . S
N1607 C1605 1.384 . S
H1608 C1614 0.930 . S
H1609 C1618 0.930 . S
H1610 C1623 0.929 . S
H1611 C1621 0.929 . S
H1612 C1616 0.929 . S
H1613 C1622 0.929 . S
C1614 H1608 0.930 . S
C1614 C1615 1.367 1_655 S
C1614 C1622 1.378 . S
C1615 C1614 1.367 1_455 S
C1615 C1623 1.433 . S
C1616 H1612 0.929 . S
C1616 C1618 1.378 . S
C1616 C1620 1.350 . S
C1617 C1620 1.463 . S
C1617 C1622 1.350 1_455 S
C1617 N1625 1.427 . S
C1618 H1609 0.930 . S
C1618 C1616 1.378 . S
C1618 C1619 1.367 . S
C1619 C1618 1.367 . S
C1619 C1621 1.433 1_455 S
C1620 C1616 1.350 . S
C1620 C1617 1.463 . S
C1620 N1624 1.427 1_455 S
C1621 H1611 0.929 . S
C1621 C1619 1.433 1_655 S
C1621 N1624 1.384 . S
C1622 H1613 0.929 . S
C1622 C1614 1.378 . S
C1622 C1617 1.350 1_655 S
C1623 H1610 0.929 . S
C1623 C1615 1.433 . S
C1623 N1625 1.384 . S
N1624 C1620 1.427 1_655 S
N1624 C1621 1.384 . S
N1625 C1617 1.427 . S
N1625 C1623 1.384 . S
H1626 C1632 0.930 . S
H1627 C1636 0.930 . S
H1628 C1641 0.929 . S
H1629 C1639 0.929 . S
H1630 C1634 0.929 . S
H1631 C1640 0.929 . S
C1632 H1626 0.930 . S
C1632 C1633 1.352 1_565 S
C1632 C1640 1.378 . S
C1633 C1632 1.352 1_545 S
C1633 C1641 1.449 . S
C1634 H1630 0.929 . S
C1634 C1636 1.378 . S
C1634 C1638 1.350 . S
C1635 C1638 1.463 . S
C1635 C1640 1.339 1_545 S
C1635 N1643 1.439 . S
C1636 H1627 0.930 . S
C1636 C1634 1.378 . S
C1636 C1637 1.367 . S
C1637 C1636 1.367 . S
C1637 C1639 1.433 1_545 S
C1638 C1634 1.350 . S
C1638 C1635 1.463 . S
C1638 N1642 1.427 1_545 S
C1639 H1629 0.929 . S
C1639 C1637 1.433 1_565 S
C1639 N1642 1.384 . S
C1640 H1631 0.929 . S
C1640 C1632 1.378 . S
C1640 C1635 1.339 1_565 S
C1641 H1628 0.929 . S
C1641 C1633 1.449 . S
C1641 N1643 1.384 . S
N1642 C1638 1.427 1_565 S
N1642 C1639 1.384 . S
N1643 C1635 1.439 . S
N1643 C1641 1.384 . S
H1644 C1650 0.930 . S
H1645 C1654 0.930 . S
H1646 C1659 0.929 . S
H1647 C1657 0.929 . S
H1648 C1652 0.929 . S
H1649 C1658 0.929 . S
C1650 H1644 0.930 . S
C1650 C1651 1.336 1_565 S
C1650 C1658 1.378 . S
C1651 C1650 1.336 1_545 S
C1651 C1659 1.465 . S
C1652 H1648 0.929 . S
C1652 C1654 1.378 . S
C1652 C1656 1.350 . S
C1653 C1656 1.464 . S
C1653 C1658 1.325 1_545 S
C1653 N1661 1.452 . S
C1654 H1645 0.930 . S
C1654 C1652 1.378 . S
C1654 C1655 1.367 . S
C1655 C1654 1.367 . S
C1655 C1657 1.433 1_545 S
C1656 C1652 1.350 . S
C1656 C1653 1.464 . S
C1656 N1660 1.427 1_545 S
C1657 H1647 0.929 . S
C1657 C1655 1.433 1_565 S
C1657 N1660 1.384 . S
C1658 H1649 0.929 . S
C1658 C1650 1.378 . S
C1658 C1653 1.325 1_565 S
C1659 H1646 0.929 . S
C1659 C1651 1.465 . S
C1659 N1661 1.384 . S
N1660 C1656 1.427 1_565 S
N1660 C1657 1.384 . S
N1661 C1653 1.452 . S
N1661 C1659 1.384 . S
H1662 C1668 0.930 . S
H1663 C1672 0.930 . S
H1664 C1677 0.929 . S
H1665 C1675 0.929 . S
H1666 C1670 0.929 . S
H1667 C1676 0.929 . S
C1668 H1662 0.930 . S
C1668 C1669 1.367 1_655 S
C1668 C1676 1.378 . S
C1669 C1668 1.367 1_455 S
C1669 C1677 1.433 . S
C1670 H1666 0.929 . S
C1670 C1672 1.378 . S
C1670 C1674 1.350 . S
C1671 C1674 1.463 . S
C1671 C1676 1.350 1_455 S
C1671 N1679 1.427 . S
C1672 H1663 0.930 . S
C1672 C1670 1.378 . S
C1672 C1673 1.367 . S
C1673 C1672 1.367 . S
C1673 C1675 1.433 1_455 S
C1674 C1670 1.350 . S
C1674 C1671 1.463 . S
C1674 N1678 1.427 1_455 S
C1675 H1665 0.929 . S
C1675 C1673 1.433 1_655 S
C1675 N1678 1.384 . S
C1676 H1667 0.929 . S
C1676 C1668 1.378 . S
C1676 C1671 1.350 1_655 S
C1677 H1664 0.929 . S
C1677 C1669 1.433 . S
C1677 N1679 1.384 . S
N1678 C1674 1.427 1_655 S
N1678 C1675 1.384 . S
N1679 C1671 1.427 . S
N1679 C1677 1.384 . S
H1680 C1686 0.930 . S
H1681 C1690 0.930 . S
H1682 C1695 0.929 . S
H1683 C1693 0.929 . S
H1684 C1688 0.929 . S
H1685 C1694 0.929 . S
C1686 H1680 0.930 . S
C1686 C1687 1.340 1_565 S
C1686 C1694 1.378 . S
C1687 C1686 1.340 1_545 S
C1687 C1695 1.461 . S
C1688 H1684 0.929 . S
C1688 C1690 1.378 . S
C1688 C1692 1.350 . S
C1689 C1692 1.464 . S
C1689 C1694 1.327 1_545 S
C1689 N1697 1.451 . S
C1690 H1681 0.930 . S
C1690 C1688 1.378 . S
C1690 C1691 1.367 . S
C1691 C1690 1.367 . S
C1691 C1693 1.433 1_545 S
C1692 C1688 1.350 . S
C1692 C1689 1.464 . S
C1692 N1696 1.427 1_545 S
C1693 H1683 0.929 . S
C1693 C1691 1.433 1_565 S
C1693 N1696 1.384 . S
C1694 H1685 0.929 . S
C1694 C1686 1.378 . S
C1694 C1689 1.327 1_565 S
C1695 H1682 0.929 . S
C1695 C1687 1.461 . S
C1695 N1697 1.384 . S
N1696 C1692 1.427 1_565 S
N1696 C1693 1.384 . S
N1697 C1689 1.451 . S
N1697 C1695 1.384 . S
H1698 C1704 0.930 . S
H1699 C1708 0.930 . S
H1700 C1713 0.929 . S
H1701 C1711 0.929 . S
H1702 C1706 0.929 . S
H1703 C1712 0.929 . S
C1704 H1698 0.930 . S
C1704 C1705 1.367 . S
C1704 C1712 1.378 . S
C1705 C1704 1.367 . S
C1705 C1713 1.433 1_455 S
C1706 H1702 0.929 . S
C1706 C1708 1.378 . S
C1706 C1710 1.319 1_655 S
C1707 C1710 1.465 . S
C1707 C1712 1.350 . S
C1707 N1715 1.427 1_455 S
C1708 H1699 0.930 . S
C1708 C1706 1.378 . S
C1708 C1709 1.335 1_655 S
C1709 C1708 1.335 1_455 S
C1709 C1711 1.466 . S
C1710 C1706 1.319 1_455 S
C1710 C1707 1.465 . S
C1710 N1714 1.459 . S
C1711 H1701 0.929 . S
C1711 C1709 1.466 . S
C1711 N1714 1.384 . S
C1712 H1703 0.929 . S
C1712 C1704 1.378 . S
C1712 C1707 1.350 . S
C1713 H1700 0.929 . S
C1713 C1705 1.433 1_655 S
C1713 N1715 1.384 . S
N1714 C1710 1.459 . S
N1714 C1711 1.384 . S
N1715 C1707 1.427 1_655 S
N1715 C1713 1.384 . S
H1716 C1722 0.930 . S
H1717 C1726 0.930 . S
H1718 C1731 0.929 . S
H1719 C1729 0.929 . S
H1720 C1724 0.929 . S
H1721 C1730 0.929 . S
C1722 H1716 0.930 . S
C1722 C1723 1.367 . S
C1722 C1730 1.378 . S
C1723 C1722 1.367 . S
C1723 C1731 1.433 1_545 S
C1724 H1720 0.929 . S
C1724 C1726 1.378 . S
C1724 C1728 1.324 1_565 S
C1725 C1728 1.464 . S
C1725 C1730 1.350 . S
C1725 N1733 1.427 1_545 S
C1726 H1717 0.930 . S
C1726 C1724 1.378 . S
C1726 C1727 1.329 1_565 S
C1727 C1726 1.329 1_545 S
C1727 C1729 1.473 . S
C1728 C1724 1.324 1_545 S
C1728 C1725 1.464 . S
C1728 N1732 1.454 . S
C1729 H1719 0.929 . S
C1729 C1727 1.473 . S
C1729 N1732 1.384 . S
C1730 H1721 0.929 . S
C1730 C1722 1.378 . S
C1730 C1725 1.350 . S
C1731 H1718 0.929 . S
C1731 C1723 1.433 1_565 S
C1731 N1733 1.384 . S
N1732 C1728 1.454 . S
N1732 C1729 1.384 . S
N1733 C1725 1.427 1_565 S
N1733 C1731 1.384 . S
H1734 C1740 0.930 . S
H1735 C1744 0.930 . S
H1736 C1749 0.929 . S
H1737 C1747 0.929 . S
H1738 C1742 0.929 . S
H1739 C1748 0.929 . S
C1740 H1734 0.930 . S
C1740 C1741 1.367 1_655 S
C1740 C1748 1.378 . S
C1741 C1740 1.367 1_455 S
C1741 C1749 1.433 . S
C1742 H1738 0.929 . S
C1742 C1744 1.378 . S
C1742 C1746 1.350 . S
C1743 C1746 1.463 . S
C1743 C1748 1.350 1_455 S
C1743 N1751 1.427 . S
C1744 H1735 0.930 . S
C1744 C1742 1.378 . S
C1744 C1745 1.367 . S
C1745 C1744 1.367 . S
C1745 C1747 1.433 1_455 S
C1746 C1742 1.350 . S
C1746 C1743 1.463 . S
C1746 N1750 1.427 1_455 S
C1747 H1737 0.929 . S
C1747 C1745 1.433 1_655 S
C1747 N1750 1.384 . S
C1748 H1739 0.929 . S
C1748 C1740 1.378 . S
C1748 C1743 1.350 1_655 S
C1749 H1736 0.929 . S
C1749 C1741 1.433 . S
C1749 N1751 1.384 . S
N1750 C1746 1.427 1_655 S
N1750 C1747 1.384 . S
N1751 C1743 1.427 . S
N1751 C1749 1.384 . S
H1752 C1758 0.930 . S
H1753 C1762 0.930 . S
H1754 C1767 0.929 . S
H1755 C1765 0.929 . S
H1756 C1760 0.929 . S
H1757 C1766 0.929 . S
C1758 H1752 0.930 . S
C1758 C1759 1.367 1_565 S
C1758 C1766 1.378 . S
C1759 C1758 1.367 1_545 S
C1759 C1767 1.433 . S
C1760 H1756 0.929 . S
C1760 C1762 1.378 . S
C1760 C1764 1.350 . S
C1761 C1764 1.465 . S
C1761 C1766 1.331 1_545 S
C1761 N1769 1.448 . S
C1762 H1753 0.930 . S
C1762 C1760 1.378 . S
C1762 C1763 1.367 . S
C1763 C1762 1.367 . S
C1763 C1765 1.433 1_545 S
C1764 C1760 1.350 . S
C1764 C1761 1.465 . S
C1764 N1768 1.427 1_545 S
C1765 H1755 0.929 . S
C1765 C1763 1.433 1_565 S
C1765 N1768 1.384 . S
C1766 H1757 0.929 . S
C1766 C1758 1.378 . S
C1766 C1761 1.331 1_565 S
C1767 H1754 0.929 . S
C1767 C1759 1.433 . S
C1767 N1769 1.384 . S
N1768 C1764 1.427 1_565 S
N1768 C1765 1.384 . S
N1769 C1761 1.448 . S
N1769 C1767 1.384 . S
H1770 C1776 0.930 . S
H1771 C1780 0.930 . S
H1772 C1785 0.929 . S
H1773 C1783 0.929 . S
H1774 C1778 0.929 . S
H1775 C1784 0.929 . S
C1776 H1770 0.930 . S
C1776 C1777 1.367 . S
C1776 C1784 1.378 . S
C1777 C1776 1.367 . S
C1777 C1785 1.433 1_455 S
C1778 H1774 0.929 . S
C1778 C1780 1.378 . S
C1778 C1782 1.350 1_655 S
C1779 C1782 1.463 . S
C1779 C1784 1.350 . S
C1779 N1787 1.427 1_455 S
C1780 H1771 0.930 . S
C1780 C1778 1.378 . S
C1780 C1781 1.367 1_655 S
C1781 C1780 1.367 1_455 S
C1781 C1783 1.433 . S
C1782 C1778 1.350 1_455 S
C1782 C1779 1.463 . S
C1782 N1786 1.427 . S
C1783 H1773 0.929 . S
C1783 C1781 1.433 . S
C1783 N1786 1.384 . S
C1784 H1775 0.929 . S
C1784 C1776 1.378 . S
C1784 C1779 1.350 . S
C1785 H1772 0.929 . S
C1785 C1777 1.433 1_655 S
C1785 N1787 1.384 . S
N1786 C1782 1.427 . S
N1786 C1783 1.384 . S
N1787 C1779 1.427 1_655 S
N1787 C1785 1.384 . S
H1788 C1794 0.930 . S
H1789 C1798 0.930 . S
H1790 C1803 0.929 . S
H1791 C1801 0.929 . S
H1792 C1796 0.929 . S
H1793 C1802 0.929 . S
C1794 H1788 0.930 . S
C1794 C1795 1.403 . S
C1794 C1802 1.378 . S
C1795 C1794 1.403 . S
C1795 C1803 1.397 1_554 S
C1796 H1792 0.929 . S
C1796 C1798 1.378 . S
C1796 C1800 1.363 . S
C1797 C1800 1.462 1_554 S
C1797 C1802 1.350 . S
C1797 N1805 1.427 1_554 S
C1798 H1789 0.930 . S
C1798 C1796 1.378 . S
C1798 C1799 1.368 . S
C1799 C1798 1.368 . S
C1799 C1801 1.432 1_556 S
C1800 C1796 1.363 . S
C1800 C1797 1.462 1_556 S
C1800 N1804 1.414 1_556 S
C1801 H1791 0.929 . S
C1801 C1799 1.432 1_554 S
C1801 N1804 1.384 . S
C1802 H1793 0.929 . S
C1802 C1794 1.378 . S
C1802 C1797 1.350 . S
C1803 H1790 0.929 . S
C1803 C1795 1.397 1_556 S
C1803 N1805 1.384 . S
N1804 C1800 1.414 1_554 S
N1804 C1801 1.384 . S
N1805 C1797 1.427 1_556 S
N1805 C1803 1.384 . S
H1806 C1812 0.930 . S
H1807 C1816 0.930 . S
H1808 C1821 0.929 . S
H1809 C1819 0.929 . S
H1810 C1814 0.929 . S
H1811 C1820 0.929 . S
C1812 H1806 0.930 . S
C1812 C1813 1.392 . S
C1812 C1820 1.378 . S
C1813 C1812 1.392 . S
C1813 C1821 1.408 1_554 S
C1814 H1810 0.929 . S
C1814 C1816 1.378 . S
C1814 C1818 1.354 . S
C1815 C1818 1.461 1_554 S
C1815 C1820 1.382 . S
C1815 N1823 1.395 1_554 S
C1816 H1807 0.930 . S
C1816 C1814 1.378 . S
C1816 C1817 1.364 . S
C1817 C1816 1.364 . S
C1817 C1819 1.436 1_556 S
C1818 C1814 1.354 . S
C1818 C1815 1.461 1_556 S
C1818 N1822 1.423 1_556 S
C1819 H1809 0.929 . S
C1819 C1817 1.436 1_554 S
C1819 N1822 1.384 . S
C1820 H1811 0.929 . S
C1820 C1812 1.378 . S
C1820 C1815 1.382 . S
C1821 H1808 0.929 . S
C1821 C1813 1.408 1_556 S
C1821 N1823 1.384 . S
N1822 C1818 1.423 1_554 S
N1822 C1819 1.384 . S
N1823 C1815 1.395 1_556 S
N1823 C1821 1.384 . S
H1824 C1830 0.930 . S
H1825 C1834 0.930 . S
H1826 C1839 0.929 . S
H1827 C1837 0.929 . S
H1828 C1832 0.929 . S
H1829 C1838 0.929 . S
C1830 H1824 0.930 . S
C1830 C1831 1.399 . S
C1830 C1838 1.378 . S
C1831 C1830 1.399 . S
C1831 C1839 1.400 1_554 S
C1832 H1828 0.929 . S
C1832 C1834 1.378 . S
C1832 C1836 1.372 . S
C1833 C1836 1.460 1_554 S
C1833 C1838 1.391 . S
C1833 N1841 1.386 1_554 S
C1834 H1825 0.930 . S
C1834 C1832 1.378 . S
C1834 C1835 1.381 . S
C1835 C1834 1.381 . S
C1835 C1837 1.419 1_556 S
C1836 C1832 1.372 . S
C1836 C1833 1.460 1_556 S
C1836 N1840 1.405 1_556 S
C1837 H1827 0.929 . S
C1837 C1835 1.419 1_554 S
C1837 N1840 1.384 . S
C1838 H1829 0.929 . S
C1838 C1830 1.378 . S
C1838 C1833 1.391 . S
C1839 H1826 0.929 . S
C1839 C1831 1.400 1_556 S
C1839 N1841 1.384 . S
N1840 C1836 1.405 1_554 S
N1840 C1837 1.384 . S
N1841 C1833 1.386 1_556 S
N1841 C1839 1.384 . S
H1842 C1848 0.930 . S
H1843 C1852 0.930 . S
H1844 C1857 0.929 . S
H1845 C1855 0.929 . S
H1846 C1850 0.929 . S
H1847 C1856 0.929 . S
C1848 H1842 0.930 . S
C1848 C1849 1.400 . S
C1848 C1856 1.378 . S
C1849 C1848 1.400 . S
C1849 C1857 1.399 1_554 S
C1850 H1846 0.929 . S
C1850 C1852 1.378 . S
C1850 C1854 1.365 . S
C1851 C1854 1.462 1_554 S
C1851 C1856 1.350 . S
C1851 N1859 1.427 1_554 S
C1852 H1843 0.930 . S
C1852 C1850 1.378 . S
C1852 C1853 1.369 . S
C1853 C1852 1.369 . S
C1853 C1855 1.431 1_556 S
C1854 C1850 1.365 . S
C1854 C1851 1.462 1_556 S
C1854 N1858 1.412 1_556 S
C1855 H1845 0.929 . S
C1855 C1853 1.431 1_554 S
C1855 N1858 1.384 . S
C1856 H1847 0.929 . S
C1856 C1848 1.378 . S
C1856 C1851 1.350 . S
C1857 H1844 0.929 . S
C1857 C1849 1.399 1_556 S
C1857 N1859 1.384 . S
N1858 C1854 1.412 1_554 S
N1858 C1855 1.384 . S
N1859 C1851 1.427 1_556 S
N1859 C1857 1.384 . S
H1860 C1866 0.930 . S
H1861 C1870 0.930 . S
H1862 C1875 0.929 . S
H1863 C1873 0.929 . S
H1864 C1868 0.929 . S
H1865 C1874 0.929 . S
C1866 H1860 0.930 . S
C1866 C1867 1.373 . S
C1866 C1874 1.378 . S
C1867 C1866 1.373 . S
C1867 C1875 1.427 1_556 S
C1868 H1864 0.929 . S
C1868 C1870 1.378 . S
C1868 C1872 1.378 . S
C1869 C1872 1.461 1_556 S
C1869 C1874 1.366 . S
C1869 N1877 1.411 1_556 S
C1870 H1861 0.930 . S
C1870 C1868 1.378 . S
C1870 C1871 1.384 . S
C1871 C1870 1.384 . S
C1871 C1873 1.415 1_554 S
C1872 C1868 1.378 . S
C1872 C1869 1.461 1_554 S
C1872 N1876 1.400 1_554 S
C1873 H1863 0.929 . S
C1873 C1871 1.415 1_556 S
C1873 N1876 1.384 . S
C1874 H1865 0.929 . S
C1874 C1866 1.378 . S
C1874 C1869 1.366 . S
C1875 H1862 0.929 . S
C1875 C1867 1.427 1_554 S
C1875 N1877 1.384 . S
N1876 C1872 1.400 1_556 S
N1876 C1873 1.384 . S
N1877 C1869 1.411 1_554 S
N1877 C1875 1.384 . S
H1878 C1884 0.930 . S
H1879 C1888 0.930 . S
H1880 C1893 0.929 . S
H1881 C1891 0.929 . S
H1882 C1886 0.929 . S
H1883 C1892 0.929 . S
C1884 H1878 0.930 . S
C1884 C1885 1.376 . S
C1884 C1892 1.378 . S
C1885 C1884 1.376 . S
C1885 C1893 1.424 1_554 S
C1886 H1882 0.929 . S
C1886 C1888 1.378 . S
C1886 C1890 1.348 . S
C1887 C1890 1.462 1_554 S
C1887 C1892 1.362 . S
C1887 N1895 1.415 1_554 S
C1888 H1879 0.930 . S
C1888 C1886 1.378 . S
C1888 C1889 1.366 1_556 S
C1889 C1888 1.366 1_554 S
C1889 C1891 1.434 . S
C1890 C1886 1.348 . S
C1890 C1887 1.462 1_556 S
C1890 N1894 1.429 1_556 S
C1891 H1881 0.929 . S
C1891 C1889 1.434 . S
C1891 N1894 1.384 . S
C1892 H1883 0.929 . S
C1892 C1884 1.378 . S
C1892 C1887 1.362 . S
C1893 H1880 0.929 . S
C1893 C1885 1.424 1_556 S
C1893 N1895 1.384 . S
N1894 C1890 1.429 1_554 S
N1894 C1891 1.384 . S
N1895 C1887 1.415 1_556 S
N1895 C1893 1.384 . S
H1896 C1902 0.930 . S
H1897 C1906 0.930 . S
H1898 C1911 0.929 . S
H1899 C1909 0.929 . S
H1900 C1904 0.929 . S
H1901 C1910 0.929 . S
C1902 H1896 0.930 . S
C1902 C1903 1.366 1_556 S
C1902 C1910 1.378 . S
C1903 C1902 1.366 1_554 S
C1903 C1911 1.434 . S
C1904 H1900 0.929 . S
C1904 C1906 1.378 . S
C1904 C1908 1.354 . S
C1905 C1908 1.462 1_556 S
C1905 C1910 1.349 . S
C1905 N1913 1.429 1_556 S
C1906 H1897 0.930 . S
C1906 C1904 1.378 . S
C1906 C1907 1.369 . S
C1907 C1906 1.369 . S
C1907 C1909 1.431 1_554 S
C1908 C1904 1.354 . S
C1908 C1905 1.462 1_554 S
C1908 N1912 1.423 1_554 S
C1909 H1899 0.929 . S
C1909 C1907 1.431 1_556 S
C1909 N1912 1.384 . S
C1910 H1901 0.929 . S
C1910 C1902 1.378 . S
C1910 C1905 1.349 . S
C1911 H1898 0.929 . S
C1911 C1903 1.434 . S
C1911 N1913 1.384 . S
N1912 C1908 1.423 1_556 S
N1912 C1909 1.384 . S
N1913 C1905 1.429 1_554 S
N1913 C1911 1.384 . S
H1914 C1920 0.930 . S
H1915 C1924 0.930 . S
H1916 C1929 0.929 . S
H1917 C1927 0.929 . S
H1918 C1922 0.929 . S
H1919 C1928 0.929 . S
C1920 H1914 0.930 . S
C1920 C1921 1.370 . S
C1920 C1928 1.378 . S
C1921 C1920 1.370 . S
C1921 C1929 1.430 1_556 S
C1922 H1918 0.929 . S
C1922 C1924 1.378 . S
C1922 C1926 1.374 . S
C1923 C1926 1.461 1_556 S
C1923 C1928 1.362 . S
C1923 N1931 1.415 1_556 S
C1924 H1915 0.930 . S
C1924 C1922 1.378 . S
C1924 C1925 1.382 . S
C1925 C1924 1.382 . S
C1925 C1927 1.418 1_554 S
C1926 C1922 1.374 . S
C1926 C1923 1.461 1_554 S
C1926 N1930 1.404 1_554 S
C1927 H1917 0.929 . S
C1927 C1925 1.418 1_556 S
C1927 N1930 1.384 . S
C1928 H1919 0.929 . S
C1928 C1920 1.378 . S
C1928 C1923 1.362 . S
C1929 H1916 0.929 . S
C1929 C1921 1.430 1_554 S
C1929 N1931 1.384 . S
N1930 C1926 1.404 1_556 S
N1930 C1927 1.384 . S
N1931 C1923 1.415 1_554 S
N1931 C1929 1.384 . S
H1932 C1938 0.930 . S
H1933 C1942 0.930 . S
H1934 C1947 0.929 . S
H1935 C1945 0.929 . S
H1936 C1940 0.929 . S
H1937 C1946 0.929 . S
C1938 H1932 0.930 . S
C1938 C1939 1.367 . S
C1938 C1946 1.378 . S
C1939 C1938 1.367 . S
C1939 C1947 1.433 . S
C1940 H1936 0.929 . S
C1940 C1942 1.378 . S
C1940 C1944 1.350 . S
C1941 C1944 1.463 . S
C1941 C1946 1.350 . S
C1941 N1949 1.427 . S
C1942 H1933 0.930 . S
C1942 C1940 1.378 . S
C1942 C1943 1.367 . S
C1943 C1942 1.367 . S
C1943 C1945 1.433 . S
C1944 C1940 1.350 . S
C1944 C1941 1.463 . S
C1944 N1948 1.427 . S
C1945 H1935 0.929 . S
C1945 C1943 1.433 . S
C1945 N1948 1.384 . S
C1946 H1937 0.929 . S
C1946 C1938 1.378 . S
C1946 C1941 1.350 . S
C1947 H1934 0.929 . S
C1947 C1939 1.433 . S
C1947 N1949 1.384 . S
N1948 C1944 1.427 . S
N1948 C1945 1.384 . S
N1949 C1941 1.427 . S
N1949 C1947 1.384 . S
H1950 C1956 0.930 . S
H1951 C1960 0.930 . S
H1952 C1965 0.929 . S
H1953 C1963 0.929 . S
H1954 C1958 0.929 . S
H1955 C1964 0.929 . S
C1956 H1950 0.930 . S
C1956 C1957 1.367 . S
C1956 C1964 1.378 . S
C1957 C1956 1.367 . S
C1957 C1965 1.433 . S
C1958 H1954 0.929 . S
C1958 C1960 1.378 . S
C1958 C1962 1.350 . S
C1959 C1962 1.463 . S
C1959 C1964 1.350 . S
C1959 N1967 1.427 . S
C1960 H1951 0.930 . S
C1960 C1958 1.378 . S
C1960 C1961 1.367 . S
C1961 C1960 1.367 . S
C1961 C1963 1.433 . S
C1962 C1958 1.350 . S
C1962 C1959 1.463 . S
C1962 N1966 1.427 . S
C1963 H1953 0.929 . S
C1963 C1961 1.433 . S
C1963 N1966 1.384 . S
C1964 H1955 0.929 . S
C1964 C1956 1.378 . S
C1964 C1959 1.350 . S
C1965 H1952 0.929 . S
C1965 C1957 1.433 . S
C1965 N1967 1.384 . S
N1966 C1962 1.427 . S
N1966 C1963 1.384 . S
N1967 C1959 1.427 . S
N1967 C1965 1.384 . S
H1968 C1974 0.930 . S
H1969 C1978 0.930 . S
H1970 C1983 0.929 . S
H1971 C1981 0.929 . S
H1972 C1976 0.929 . S
H1973 C1982 0.929 . S
C1974 H1968 0.930 . S
C1974 C1975 1.367 . S
C1974 C1982 1.378 . S
C1975 C1974 1.367 . S
C1975 C1983 1.433 . S
C1976 H1972 0.929 . S
C1976 C1978 1.378 . S
C1976 C1980 1.350 . S
C1977 C1980 1.463 . S
C1977 C1982 1.350 . S
C1977 N1985 1.427 . S
C1978 H1969 0.930 . S
C1978 C1976 1.378 . S
C1978 C1979 1.367 . S
C1979 C1978 1.367 . S
C1979 C1981 1.433 . S
C1980 C1976 1.350 . S
C1980 C1977 1.463 . S
C1980 N1984 1.427 . S
C1981 H1971 0.929 . S
C1981 C1979 1.433 . S
C1981 N1984 1.384 . S
C1982 H1973 0.929 . S
C1982 C1974 1.378 . S
C1982 C1977 1.350 . S
C1983 H1970 0.929 . S
C1983 C1975 1.433 . S
C1983 N1985 1.384 . S
N1984 C1980 1.427 . S
N1984 C1981 1.384 . S
N1985 C1977 1.427 . S
N1985 C1983 1.384 . S
H1986 C1992 0.930 . S
H1987 C1996 0.930 . S
H1988 C2001 0.929 . S
H1989 C1999 0.929 . S
H1990 C1994 0.929 . S
H1991 C2000 0.929 . S
C1992 H1986 0.930 . S
C1992 C1993 1.367 . S
C1992 C2000 1.378 . S
C1993 C1992 1.367 . S
C1993 C2001 1.433 . S
C1994 H1990 0.929 . S
C1994 C1996 1.378 . S
C1994 C1998 1.350 . S
C1995 C1998 1.463 . S
C1995 C2000 1.350 . S
C1995 N2003 1.427 . S
C1996 H1987 0.930 . S
C1996 C1994 1.378 . S
C1996 C1997 1.367 . S
C1997 C1996 1.367 . S
C1997 C1999 1.433 . S
C1998 C1994 1.350 . S
C1998 C1995 1.463 . S
C1998 N2002 1.427 . S
C1999 H1989 0.929 . S
C1999 C1997 1.433 . S
C1999 N2002 1.384 . S
C2000 H1991 0.929 . S
C2000 C1992 1.378 . S
C2000 C1995 1.350 . S
C2001 H1988 0.929 . S
C2001 C1993 1.433 . S
C2001 N2003 1.384 . S
N2002 C1998 1.427 . S
N2002 C1999 1.384 . S
N2003 C1995 1.427 . S
N2003 C2001 1.384 . S
H2004 C2010 0.930 . S
H2005 C2014 0.930 . S
H2006 C2019 0.929 . S
H2007 C2017 0.929 . S
H2008 C2012 0.929 . S
H2009 C2018 0.929 . S
C2010 H2004 0.930 . S
C2010 C2011 1.367 . S
C2010 C2018 1.378 . S
C2011 C2010 1.367 . S
C2011 C2019 1.433 . S
C2012 H2008 0.929 . S
C2012 C2014 1.378 . S
C2012 C2016 1.350 . S
C2013 C2016 1.463 . S
C2013 C2018 1.350 . S
C2013 N2021 1.427 . S
C2014 H2005 0.930 . S
C2014 C2012 1.378 . S
C2014 C2015 1.367 . S
C2015 C2014 1.367 . S
C2015 C2017 1.433 . S
C2016 C2012 1.350 . S
C2016 C2013 1.463 . S
C2016 N2020 1.427 . S
C2017 H2007 0.929 . S
C2017 C2015 1.433 . S
C2017 N2020 1.384 . S
C2018 H2009 0.929 . S
C2018 C2010 1.378 . S
C2018 C2013 1.350 . S
C2019 H2006 0.929 . S
C2019 C2011 1.433 . S
C2019 N2021 1.384 . S
N2020 C2016 1.427 . S
N2020 C2017 1.384 . S
N2021 C2013 1.427 . S
N2021 C2019 1.384 . S
H2022 C2028 0.930 . S
H2023 C2032 0.930 . S
H2024 C2037 0.929 . S
H2025 C2035 0.929 . S
H2026 C2030 0.929 . S
H2027 C2036 0.929 . S
C2028 H2022 0.930 . S
C2028 C2029 1.367 . S
C2028 C2036 1.378 . S
C2029 C2028 1.367 . S
C2029 C2037 1.433 . S
C2030 H2026 0.929 . S
C2030 C2032 1.378 . S
C2030 C2034 1.350 . S
C2031 C2034 1.463 . S
C2031 C2036 1.350 . S
C2031 N2039 1.427 . S
C2032 H2023 0.930 . S
C2032 C2030 1.378 . S
C2032 C2033 1.367 . S
C2033 C2032 1.367 . S
C2033 C2035 1.433 . S
C2034 C2030 1.350 . S
C2034 C2031 1.463 . S
C2034 N2038 1.427 . S
C2035 H2025 0.929 . S
C2035 C2033 1.433 . S
C2035 N2038 1.384 . S
C2036 H2027 0.929 . S
C2036 C2028 1.378 . S
C2036 C2031 1.350 . S
C2037 H2024 0.929 . S
C2037 C2029 1.433 . S
C2037 N2039 1.384 . S
N2038 C2034 1.427 . S
N2038 C2035 1.384 . S
N2039 C2031 1.427 . S
N2039 C2037 1.384 . S
H2040 C2046 0.930 . S
H2041 C2050 0.930 . S
H2042 C2055 0.929 . S
H2043 C2053 0.929 . S
H2044 C2048 0.929 . S
H2045 C2054 0.929 . S
C2046 H2040 0.930 . S
C2046 C2047 1.367 . S
C2046 C2054 1.378 . S
C2047 C2046 1.367 . S
C2047 C2055 1.433 . S
C2048 H2044 0.929 . S
C2048 C2050 1.378 . S
C2048 C2052 1.350 . S
C2049 C2052 1.463 . S
C2049 C2054 1.350 . S
C2049 N2057 1.427 . S
C2050 H2041 0.930 . S
C2050 C2048 1.378 . S
C2050 C2051 1.367 . S
C2051 C2050 1.367 . S
C2051 C2053 1.433 . S
C2052 C2048 1.350 . S
C2052 C2049 1.463 . S
C2052 N2056 1.427 . S
C2053 H2043 0.929 . S
C2053 C2051 1.433 . S
C2053 N2056 1.384 . S
C2054 H2045 0.929 . S
C2054 C2046 1.378 . S
C2054 C2049 1.350 . S
C2055 H2042 0.929 . S
C2055 C2047 1.433 . S
C2055 N2057 1.384 . S
N2056 C2052 1.427 . S
N2056 C2053 1.384 . S
N2057 C2049 1.427 . S
N2057 C2055 1.384 . S
H2058 C2064 0.930 . S
H2059 C2068 0.930 . S
H2060 C2073 0.929 . S
H2061 C2071 0.929 . S
H2062 C2066 0.929 . S
H2063 C2072 0.929 . S
C2064 H2058 0.930 . S
C2064 C2065 1.367 . S
C2064 C2072 1.378 . S
C2065 C2064 1.367 . S
C2065 C2073 1.433 . S
C2066 H2062 0.929 . S
C2066 C2068 1.378 . S
C2066 C2070 1.350 . S
C2067 C2070 1.463 . S
C2067 C2072 1.350 . S
C2067 N2075 1.427 . S
C2068 H2059 0.930 . S
C2068 C2066 1.378 . S
C2068 C2069 1.367 . S
C2069 C2068 1.367 . S
C2069 C2071 1.433 . S
C2070 C2066 1.350 . S
C2070 C2067 1.463 . S
C2070 N2074 1.427 . S
C2071 H2061 0.929 . S
C2071 C2069 1.433 . S
C2071 N2074 1.384 . S
C2072 H2063 0.929 . S
C2072 C2064 1.378 . S
C2072 C2067 1.350 . S
C2073 H2060 0.929 . S
C2073 C2065 1.433 . S
C2073 N2075 1.384 . S
N2074 C2070 1.427 . S
N2074 C2071 1.384 . S
N2075 C2067 1.427 . S
N2075 C2073 1.384 . S
H2076 C2082 0.930 . S
H2077 C2086 0.930 . S
H2078 C2091 0.929 . S
H2079 C2089 0.929 . S
H2080 C2084 0.929 . S
H2081 C2090 0.929 . S
C2082 H2076 0.930 . S
C2082 C2083 1.367 . S
C2082 C2090 1.378 . S
C2083 C2082 1.367 . S
C2083 C2091 1.433 . S
C2084 H2080 0.929 . S
C2084 C2086 1.378 . S
C2084 C2088 1.350 . S
C2085 C2088 1.463 . S
C2085 C2090 1.350 . S
C2085 N2093 1.427 . S
C2086 H2077 0.930 . S
C2086 C2084 1.378 . S
C2086 C2087 1.367 . S
C2087 C2086 1.367 . S
C2087 C2089 1.433 . S
C2088 C2084 1.350 . S
C2088 C2085 1.463 . S
C2088 N2092 1.427 . S
C2089 H2079 0.929 . S
C2089 C2087 1.433 . S
C2089 N2092 1.384 . S
C2090 H2081 0.929 . S
C2090 C2082 1.378 . S
C2090 C2085 1.350 . S
C2091 H2078 0.929 . S
C2091 C2083 1.433 . S
C2091 N2093 1.384 . S
N2092 C2088 1.427 . S
N2092 C2089 1.384 . S
N2093 C2085 1.427 . S
N2093 C2091 1.384 . S
H2094 C2100 0.930 . S
H2095 C2104 0.930 . S
H2096 C2109 0.929 . S
H2097 C2107 0.929 . S
H2098 C2102 0.929 . S
H2099 C2108 0.929 . S
C2100 H2094 0.930 . S
C2100 C2101 1.367 . S
C2100 C2108 1.378 . S
C2101 C2100 1.367 . S
C2101 C2109 1.433 . S
C2102 H2098 0.929 . S
C2102 C2104 1.378 . S
C2102 C2106 1.350 . S
C2103 C2106 1.463 . S
C2103 C2108 1.350 . S
C2103 N2111 1.427 . S
C2104 H2095 0.930 . S
C2104 C2102 1.378 . S
C2104 C2105 1.367 . S
C2105 C2104 1.367 . S
C2105 C2107 1.433 . S
C2106 C2102 1.350 . S
C2106 C2103 1.463 . S
C2106 N2110 1.427 . S
C2107 H2097 0.929 . S
C2107 C2105 1.433 . S
C2107 N2110 1.384 . S
C2108 H2099 0.929 . S
C2108 C2100 1.378 . S
C2108 C2103 1.350 . S
C2109 H2096 0.929 . S
C2109 C2101 1.433 . S
C2109 N2111 1.384 . S
N2110 C2106 1.427 . S
N2110 C2107 1.384 . S
N2111 C2103 1.427 . S
N2111 C2109 1.384 . S
H2112 C2118 0.930 . S
H2113 C2122 0.930 . S
H2114 C2127 0.929 . S
H2115 C2125 0.929 . S
H2116 C2120 0.929 . S
H2117 C2126 0.929 . S
C2118 H2112 0.930 . S
C2118 C2119 1.367 . S
C2118 C2126 1.378 . S
C2119 C2118 1.367 . S
C2119 C2127 1.433 . S
C2120 H2116 0.929 . S
C2120 C2122 1.378 . S
C2120 C2124 1.350 . S
C2121 C2124 1.463 . S
C2121 C2126 1.350 . S
C2121 N2129 1.427 . S
C2122 H2113 0.930 . S
C2122 C2120 1.378 . S
C2122 C2123 1.367 . S
C2123 C2122 1.367 . S
C2123 C2125 1.433 . S
C2124 C2120 1.350 . S
C2124 C2121 1.463 . S
C2124 N2128 1.427 . S
C2125 H2115 0.929 . S
C2125 C2123 1.433 . S
C2125 N2128 1.384 . S
C2126 H2117 0.929 . S
C2126 C2118 1.378 . S
C2126 C2121 1.350 . S
C2127 H2114 0.929 . S
C2127 C2119 1.433 . S
C2127 N2129 1.384 . S
N2128 C2124 1.427 . S
N2128 C2125 1.384 . S
N2129 C2121 1.427 . S
N2129 C2127 1.384 . S
H2130 C2136 0.930 . S
H2131 C2140 0.930 . S
H2132 C2145 0.929 . S
H2133 C2143 0.929 . S
H2134 C2138 0.929 . S
H2135 C2144 0.929 . S
C2136 H2130 0.930 . S
C2136 C2137 1.367 . S
C2136 C2144 1.378 . S
C2137 C2136 1.367 . S
C2137 C2145 1.433 . S
C2138 H2134 0.929 . S
C2138 C2140 1.378 . S
C2138 C2142 1.350 . S
C2139 C2142 1.463 . S
C2139 C2144 1.350 . S
C2139 N2147 1.427 . S
C2140 H2131 0.930 . S
C2140 C2138 1.378 . S
C2140 C2141 1.367 . S
C2141 C2140 1.367 . S
C2141 C2143 1.433 . S
C2142 C2138 1.350 . S
C2142 C2139 1.463 . S
C2142 N2146 1.427 . S
C2143 H2133 0.929 . S
C2143 C2141 1.433 . S
C2143 N2146 1.384 . S
C2144 H2135 0.929 . S
C2144 C2136 1.378 . S
C2144 C2139 1.350 . S
C2145 H2132 0.929 . S
C2145 C2137 1.433 . S
C2145 N2147 1.384 . S
N2146 C2142 1.427 . S
N2146 C2143 1.384 . S
N2147 C2139 1.427 . S
N2147 C2145 1.384 . S
H2148 C2154 0.930 . S
H2149 C2158 0.930 . S
H2150 C2163 0.929 . S
H2151 C2161 0.929 . S
H2152 C2156 0.929 . S
H2153 C2162 0.929 . S
C2154 H2148 0.930 . S
C2154 C2155 1.367 . S
C2154 C2162 1.378 . S
C2155 C2154 1.367 . S
C2155 C2163 1.433 . S
C2156 H2152 0.929 . S
C2156 C2158 1.378 . S
C2156 C2160 1.350 . S
C2157 C2160 1.463 . S
C2157 C2162 1.350 . S
C2157 N2165 1.427 . S
C2158 H2149 0.930 . S
C2158 C2156 1.378 . S
C2158 C2159 1.367 . S
C2159 C2158 1.367 . S
C2159 C2161 1.433 . S
C2160 C2156 1.350 . S
C2160 C2157 1.463 . S
C2160 N2164 1.427 . S
C2161 H2151 0.929 . S
C2161 C2159 1.433 . S
C2161 N2164 1.384 . S
C2162 H2153 0.929 . S
C2162 C2154 1.378 . S
C2162 C2157 1.350 . S
C2163 H2150 0.929 . S
C2163 C2155 1.433 . S
C2163 N2165 1.384 . S
N2164 C2160 1.427 . S
N2164 C2161 1.384 . S
N2165 C2157 1.427 . S
N2165 C2163 1.384 . S
H2166 C2172 0.930 . S
H2167 C2176 0.930 . S
H2168 C2181 0.929 . S
H2169 C2179 0.929 . S
H2170 C2174 0.929 . S
H2171 C2180 0.929 . S
C2172 H2166 0.930 . S
C2172 C2173 1.367 . S
C2172 C2180 1.378 . S
C2173 C2172 1.367 . S
C2173 C2181 1.433 . S
C2174 H2170 0.929 . S
C2174 C2176 1.378 . S
C2174 C2178 1.350 . S
C2175 C2178 1.463 . S
C2175 C2180 1.350 . S
C2175 N2183 1.427 . S
C2176 H2167 0.930 . S
C2176 C2174 1.378 . S
C2176 C2177 1.367 . S
C2177 C2176 1.367 . S
C2177 C2179 1.433 . S
C2178 C2174 1.350 . S
C2178 C2175 1.463 . S
C2178 N2182 1.427 . S
C2179 H2169 0.929 . S
C2179 C2177 1.433 . S
C2179 N2182 1.384 . S
C2180 H2171 0.929 . S
C2180 C2172 1.378 . S
C2180 C2175 1.350 . S
C2181 H2168 0.929 . S
C2181 C2173 1.433 . S
C2181 N2183 1.384 . S
N2182 C2178 1.427 . S
N2182 C2179 1.384 . S
N2183 C2175 1.427 . S
N2183 C2181 1.384 . S
H2184 C2190 0.930 . S
H2185 C2194 0.930 . S
H2186 C2199 0.929 . S
H2187 C2197 0.929 . S
H2188 C2192 0.929 . S
H2189 C2198 0.929 . S
C2190 H2184 0.930 . S
C2190 C2191 1.367 . S
C2190 C2198 1.378 . S
C2191 C2190 1.367 . S
C2191 C2199 1.433 . S
C2192 H2188 0.929 . S
C2192 C2194 1.378 . S
C2192 C2196 1.350 . S
C2193 C2196 1.463 . S
C2193 C2198 1.350 . S
C2193 N2201 1.427 . S
C2194 H2185 0.930 . S
C2194 C2192 1.378 . S
C2194 C2195 1.367 . S
C2195 C2194 1.367 . S
C2195 C2197 1.433 . S
C2196 C2192 1.350 . S
C2196 C2193 1.463 . S
C2196 N2200 1.427 . S
C2197 H2187 0.929 . S
C2197 C2195 1.433 . S
C2197 N2200 1.384 . S
C2198 H2189 0.929 . S
C2198 C2190 1.378 . S
C2198 C2193 1.350 . S
C2199 H2186 0.929 . S
C2199 C2191 1.433 . S
C2199 N2201 1.384 . S
N2200 C2196 1.427 . S
N2200 C2197 1.384 . S
N2201 C2193 1.427 . S
N2201 C2199 1.384 . S
H2202 C2208 0.930 . S
H2203 C2212 0.930 . S
H2204 C2217 0.929 . S
H2205 C2215 0.929 . S
H2206 C2210 0.929 . S
H2207 C2216 0.929 . S
C2208 H2202 0.930 . S
C2208 C2209 1.367 . S
C2208 C2216 1.378 . S
C2209 C2208 1.367 . S
C2209 C2217 1.433 . S
C2210 H2206 0.929 . S
C2210 C2212 1.378 . S
C2210 C2214 1.350 . S
C2211 C2214 1.463 . S
C2211 C2216 1.350 . S
C2211 N2219 1.427 . S
C2212 H2203 0.930 . S
C2212 C2210 1.378 . S
C2212 C2213 1.367 . S
C2213 C2212 1.367 . S
C2213 C2215 1.433 . S
C2214 C2210 1.350 . S
C2214 C2211 1.463 . S
C2214 N2218 1.427 . S
C2215 H2205 0.929 . S
C2215 C2213 1.433 . S
C2215 N2218 1.384 . S
C2216 H2207 0.929 . S
C2216 C2208 1.378 . S
C2216 C2211 1.350 . S
C2217 H2204 0.929 . S
C2217 C2209 1.433 . S
C2217 N2219 1.384 . S
N2218 C2214 1.427 . S
N2218 C2215 1.384 . S
N2219 C2211 1.427 . S
N2219 C2217 1.384 . S
H2220 C2226 0.930 . S
H2221 C2230 0.930 . S
H2222 C2235 0.929 . S
H2223 C2233 0.929 . S
H2224 C2228 0.929 . S
H2225 C2234 0.929 . S
C2226 H2220 0.930 . S
C2226 C2227 1.367 . S
C2226 C2234 1.378 . S
C2227 C2226 1.367 . S
C2227 C2235 1.433 . S
C2228 H2224 0.929 . S
C2228 C2230 1.378 . S
C2228 C2232 1.350 . S
C2229 C2232 1.463 . S
C2229 C2234 1.350 . S
C2229 N2237 1.427 . S
C2230 H2221 0.930 . S
C2230 C2228 1.378 . S
C2230 C2231 1.367 . S
C2231 C2230 1.367 . S
C2231 C2233 1.433 . S
C2232 C2228 1.350 . S
C2232 C2229 1.463 . S
C2232 N2236 1.427 . S
C2233 H2223 0.929 . S
C2233 C2231 1.433 . S
C2233 N2236 1.384 . S
C2234 H2225 0.929 . S
C2234 C2226 1.378 . S
C2234 C2229 1.350 . S
C2235 H2222 0.929 . S
C2235 C2227 1.433 . S
C2235 N2237 1.384 . S
N2236 C2232 1.427 . S
N2236 C2233 1.384 . S
N2237 C2229 1.427 . S
N2237 C2235 1.384 . S
H2238 C2244 0.930 . S
H2239 C2248 0.930 . S
H2240 C2253 0.929 . S
H2241 C2251 0.929 . S
H2242 C2246 0.929 . S
H2243 C2252 0.929 . S
C2244 H2238 0.930 . S
C2244 C2245 1.367 . S
C2244 C2252 1.378 . S
C2245 C2244 1.367 . S
C2245 C2253 1.433 . S
C2246 H2242 0.929 . S
C2246 C2248 1.378 . S
C2246 C2250 1.350 . S
C2247 C2250 1.463 . S
C2247 C2252 1.350 . S
C2247 N2255 1.427 . S
C2248 H2239 0.930 . S
C2248 C2246 1.378 . S
C2248 C2249 1.367 . S
C2249 C2248 1.367 . S
C2249 C2251 1.433 . S
C2250 C2246 1.350 . S
C2250 C2247 1.463 . S
C2250 N2254 1.427 . S
C2251 H2241 0.929 . S
C2251 C2249 1.433 . S
C2251 N2254 1.384 . S
C2252 H2243 0.929 . S
C2252 C2244 1.378 . S
C2252 C2247 1.350 . S
C2253 H2240 0.929 . S
C2253 C2245 1.433 . S
C2253 N2255 1.384 . S
N2254 C2250 1.427 . S
N2254 C2251 1.384 . S
N2255 C2247 1.427 . S
N2255 C2253 1.384 . S
H2256 C2262 0.930 . S
H2257 C2266 0.930 . S
H2258 C2271 0.929 . S
H2259 C2269 0.929 . S
H2260 C2264 0.929 . S
H2261 C2270 0.929 . S
C2262 H2256 0.930 . S
C2262 C2263 1.367 . S
C2262 C2270 1.378 . S
C2263 C2262 1.367 . S
C2263 C2271 1.433 . S
C2264 H2260 0.929 . S
C2264 C2266 1.378 . S
C2264 C2268 1.350 . S
C2265 C2268 1.463 . S
C2265 C2270 1.350 . S
C2265 N2273 1.427 . S
C2266 H2257 0.930 . S
C2266 C2264 1.378 . S
C2266 C2267 1.367 . S
C2267 C2266 1.367 . S
C2267 C2269 1.433 . S
C2268 C2264 1.350 . S
C2268 C2265 1.463 . S
C2268 N2272 1.427 . S
C2269 H2259 0.929 . S
C2269 C2267 1.433 . S
C2269 N2272 1.384 . S
C2270 H2261 0.929 . S
C2270 C2262 1.378 . S
C2270 C2265 1.350 . S
C2271 H2258 0.929 . S
C2271 C2263 1.433 . S
C2271 N2273 1.384 . S
N2272 C2268 1.427 . S
N2272 C2269 1.384 . S
N2273 C2265 1.427 . S
N2273 C2271 1.384 . S
H2274 C2280 0.930 . S
H2275 C2284 0.930 . S
H2276 C2289 0.929 . S
H2277 C2287 0.929 . S
H2278 C2282 0.929 . S
H2279 C2288 0.929 . S
C2280 H2274 0.930 . S
C2280 C2281 1.367 . S
C2280 C2288 1.378 . S
C2281 C2280 1.367 . S
C2281 C2289 1.433 . S
C2282 H2278 0.929 . S
C2282 C2284 1.378 . S
C2282 C2286 1.350 . S
C2283 C2286 1.463 . S
C2283 C2288 1.350 . S
C2283 N2291 1.427 . S
C2284 H2275 0.930 . S
C2284 C2282 1.378 . S
C2284 C2285 1.367 . S
C2285 C2284 1.367 . S
C2285 C2287 1.433 . S
C2286 C2282 1.350 . S
C2286 C2283 1.463 . S
C2286 N2290 1.427 . S
C2287 H2277 0.929 . S
C2287 C2285 1.433 . S
C2287 N2290 1.384 . S
C2288 H2279 0.929 . S
C2288 C2280 1.378 . S
C2288 C2283 1.350 . S
C2289 H2276 0.929 . S
C2289 C2281 1.433 . S
C2289 N2291 1.384 . S
N2290 C2286 1.427 . S
N2290 C2287 1.384 . S
N2291 C2283 1.427 . S
N2291 C2289 1.384 . S
H2292 C2298 0.930 . S
H2293 C2302 0.930 . S
H2294 C2307 0.929 . S
H2295 C2305 0.929 . S
H2296 C2300 0.929 . S
H2297 C2306 0.929 . S
C2298 H2292 0.930 . S
C2298 C2299 1.367 . S
C2298 C2306 1.378 . S
C2299 C2298 1.367 . S
C2299 C2307 1.433 . S
C2300 H2296 0.929 . S
C2300 C2302 1.378 . S
C2300 C2304 1.350 . S
C2301 C2304 1.463 . S
C2301 C2306 1.350 . S
C2301 N2309 1.427 . S
C2302 H2293 0.930 . S
C2302 C2300 1.378 . S
C2302 C2303 1.367 . S
C2303 C2302 1.367 . S
C2303 C2305 1.433 . S
C2304 C2300 1.350 . S
C2304 C2301 1.463 . S
C2304 N2308 1.427 . S
C2305 H2295 0.929 . S
C2305 C2303 1.433 . S
C2305 N2308 1.384 . S
C2306 H2297 0.929 . S
C2306 C2298 1.378 . S
C2306 C2301 1.350 . S
C2307 H2294 0.929 . S
C2307 C2299 1.433 . S
C2307 N2309 1.384 . S
N2308 C2304 1.427 . S
N2308 C2305 1.384 . S
N2309 C2301 1.427 . S
N2309 C2307 1.384 . S
H2310 C2316 0.930 . S
H2311 C2320 0.930 . S
H2312 C2325 0.929 . S
H2313 C2323 0.929 . S
H2314 C2318 0.929 . S
H2315 C2324 0.929 . S
C2316 H2310 0.930 . S
C2316 C2317 1.367 . S
C2316 C2324 1.378 . S
C2317 C2316 1.367 . S
C2317 C2325 1.433 . S
C2318 H2314 0.929 . S
C2318 C2320 1.378 . S
C2318 C2322 1.350 . S
C2319 C2322 1.463 . S
C2319 C2324 1.350 . S
C2319 N2327 1.427 . S
C2320 H2311 0.930 . S
C2320 C2318 1.378 . S
C2320 C2321 1.367 . S
C2321 C2320 1.367 . S
C2321 C2323 1.433 . S
C2322 C2318 1.350 . S
C2322 C2319 1.463 . S
C2322 N2326 1.427 . S
C2323 H2313 0.929 . S
C2323 C2321 1.433 . S
C2323 N2326 1.384 . S
C2324 H2315 0.929 . S
C2324 C2316 1.378 . S
C2324 C2319 1.350 . S
C2325 H2312 0.929 . S
C2325 C2317 1.433 . S
C2325 N2327 1.384 . S
N2326 C2322 1.427 . S
N2326 C2323 1.384 . S
N2327 C2319 1.427 . S
N2327 C2325 1.384 . S
H2328 C2334 0.930 . S
H2329 C2338 0.930 . S
H2330 C2343 0.929 . S
H2331 C2341 0.929 . S
H2332 C2336 0.929 . S
H2333 C2342 0.929 . S
C2334 H2328 0.930 . S
C2334 C2335 1.367 . S
C2334 C2342 1.378 . S
C2335 C2334 1.367 . S
C2335 C2343 1.433 . S
C2336 H2332 0.929 . S
C2336 C2338 1.378 . S
C2336 C2340 1.350 . S
C2337 C2340 1.463 . S
C2337 C2342 1.350 . S
C2337 N2345 1.427 . S
C2338 H2329 0.930 . S
C2338 C2336 1.378 . S
C2338 C2339 1.367 . S
C2339 C2338 1.367 . S
C2339 C2341 1.433 . S
C2340 C2336 1.350 . S
C2340 C2337 1.463 . S
C2340 N2344 1.427 . S
C2341 H2331 0.929 . S
C2341 C2339 1.433 . S
C2341 N2344 1.384 . S
C2342 H2333 0.929 . S
C2342 C2334 1.378 . S
C2342 C2337 1.350 . S
C2343 H2330 0.929 . S
C2343 C2335 1.433 . S
C2343 N2345 1.384 . S
N2344 C2340 1.427 . S
N2344 C2341 1.384 . S
N2345 C2337 1.427 . S
N2345 C2343 1.384 . S
H2346 C2352 0.930 . S
H2347 C2356 0.930 . S
H2348 C2361 0.929 . S
H2349 C2359 0.929 . S
H2350 C2354 0.929 . S
H2351 C2360 0.929 . S
C2352 H2346 0.930 . S
C2352 C2353 1.367 . S
C2352 C2360 1.378 . S
C2353 C2352 1.367 . S
C2353 C2361 1.433 . S
C2354 H2350 0.929 . S
C2354 C2356 1.378 . S
C2354 C2358 1.350 . S
C2355 C2358 1.463 . S
C2355 C2360 1.350 . S
C2355 N2363 1.427 . S
C2356 H2347 0.930 . S
C2356 C2354 1.378 . S
C2356 C2357 1.367 . S
C2357 C2356 1.367 . S
C2357 C2359 1.433 . S
C2358 C2354 1.350 . S
C2358 C2355 1.463 . S
C2358 N2362 1.427 . S
C2359 H2349 0.929 . S
C2359 C2357 1.433 . S
C2359 N2362 1.384 . S
C2360 H2351 0.929 . S
C2360 C2352 1.378 . S
C2360 C2355 1.350 . S
C2361 H2348 0.929 . S
C2361 C2353 1.433 . S
C2361 N2363 1.384 . S
N2362 C2358 1.427 . S
N2362 C2359 1.384 . S
N2363 C2355 1.427 . S
N2363 C2361 1.384 . S
C1079 C774 1.134 . S
C1075 C765 1.117 . S
C1093 C701 1.120 . S
C1097 C772 1.151 . S
C1115 C773 1.141 . S
C1111 C669 1.114 . S
C1129 C733 1.098 . S
C1133 C775 1.124 . S
C1151 C819 1.134 . S
C1147 C541 1.113 . S
C1169 C879 1.113 . S
C1165 C573 1.085 . S
C1183 C605 1.124 . S
C1187 C818 1.142 . S
C1205 C878 1.142 . S
C1201 C637 1.112 . S
C1219 C413 1.116 . S
C1223 C820 1.133 . S
C1241 C876 1.141 . S
C1237 C445 1.112 . S
C1255 C477 1.105 . S
C1259 C821 1.124 . S
C1273 C509 1.098 . S
C1277 C877 1.112 . S
C1295 C927 1.127 . S
C1291 C381 1.110 1_556 S
C1309 C317 1.129 1_554 S
C1313 C926 1.156 . S
C1327 C285 1.121 1_554 S
C1331 C928 1.146 . S
C1349 C929 1.117 . S
C1345 C349 1.089 . S
C1363 C157 1.110 1_455 S
C1367 C970 1.129 . S
C1381 C189 1.100 1_545 S
C1385 C1029 1.115 . S
C1399 C221 1.112 . S
C1403 C968 1.138 . S
C1417 C253 1.125 . S
C1421 C1028 1.130 . S
C1439 C969 1.139 . S
C1435 C29 1.120 1_455 S
C1457 C1026 1.142 . S
C1453 C61 1.126 1_545 S
C1471 C93 1.116 . S
C1475 C971 1.130 . S
C1493 C1027 1.125 . S
C1489 C125 1.110 1_545 S
C1511 C771 1.777 . S
C1507 C23 1.678 1_455 S
C1525 C55 1.651 1_545 S
C1529 C777 1.764 . S
C1543 C87 1.653 . S
C1547 C769 1.765 . S
C1561 C113 1.670 1_545 S
C1565 C776 1.753 . S
C1579 C151 1.654 1_455 S
C1583 C768 1.765 . S
C1601 C778 1.747 . S
C1597 C183 1.628 1_545 S
C1615 C215 1.677 . S
C1619 C770 1.776 . S
C1637 C779 1.757 . S
C1633 C247 1.657 . S
C1655 C825 1.750 . S
C1651 C119 1.632 1_545 S
C1669 C17 1.677 1_455 S
C1673 C868 1.766 . S
C1691 C823 1.758 . S
C1687 C49 1.657 1_545 S
C1709 C870 1.765 . S
C1705 C81 1.672 . S
C1723 C177 1.665 1_545 S
C1727 C824 1.751 . S
C1745 C869 1.767 . S
C1741 C209 1.682 . S
C1763 C822 1.757 . S
C1759 C241 1.674 . S
C1781 C871 1.761 . S
C1777 C145 1.670 1_455 S
C1799 C875 1.779 1_556 S
C1795 C279 1.670 1_554 S
C1813 C305 1.698 1_554 S
C1817 C874 1.786 1_556 S
C1835 C826 1.779 1_556 S
C1831 C273 1.688 1_554 S
C1853 C873 1.760 1_556 S
C1849 C337 1.668 1_554 S
C1867 C375 1.669 1_556 S
C1871 C829 1.773 . S
C1885 C369 1.682 . S
C1889 C872 1.767 . S
C1907 C828 1.784 . S
C1903 C311 1.682 1_554 S
C1925 C827 1.773 . S
C1921 C343 1.668 . S
C1943 C921 1.774 . S
C1939 C407 1.675 . S
C1961 C924 1.766 . S
C1957 C439 1.665 . S
C1975 C471 1.669 . S
C1979 C920 1.768 . S
C1997 C922 1.748 . S
C1993 C497 1.659 . S
C2015 C918 1.769 . S
C2011 C535 1.671 . S
C2029 C561 1.665 . S
C2033 C923 1.750 . S
C2047 C599 1.661 . S
C2051 C919 1.773 . S
C2069 C925 1.762 . S
C2065 C631 1.662 . S
C2087 C979 1.747 . S
C2083 C503 1.637 . S
C2101 C401 1.676 . S
C2105 C1018 1.763 . S
C2123 C978 1.757 . S
C2119 C433 1.662 . S
C2141 C1020 1.758 . S
C2137 C465 1.663 . S
C2159 C977 1.745 . S
C2155 C567 1.639 . S
C2173 C593 1.688 . S
C2177 C1019 1.771 . S
C2195 C976 1.756 . S
C2191 C625 1.661 . S
C2213 C1021 1.765 . S
C2209 C529 1.671 . S
C2231 C1025 1.773 . S
C2227 C663 1.662 . S
C2245 C689 1.699 . S
C2249 C1024 1.782 . S
C2267 C972 1.782 . S
C2263 C657 1.696 . S
C2281 C721 1.682 . S
C2285 C1023 1.766 . S
C2303 C975 1.773 . S
C2299 C759 1.662 . S
C2321 C1022 1.769 . S
C2317 C753 1.684 . S
C2339 C973 1.784 . S
C2335 C695 1.680 . S
C2353 C727 1.665 . S
C2357 C974 1.773 . S
