# Generated by pormake.
# Topology zzz, (3,6)-cn, num edge types: 1
# Building blocks:
#     Node 0, Type 0, BuildingBlock: BETDAH_clean_linker_0, # of connection points: 3
#     Node 1, Type 0, BuildingBlock: BETDAH_clean_linker_0, # of connection points: 3
#     Node 2, Type 0, BuildingBlock: BETDAH_clean_linker_0, # of connection points: 3
#     Node 3, Type 0, BuildingBlock: BETDAH_clean_linker_0, # of connection points: 3
#     Node 4, Type 0, BuildingBlock: BETDAH_clean_linker_0, # of connection points: 3
#     Node 5, Type 0, BuildingBlock: BETDAH_clean_linker_0, # of connection points: 3
#     Node 6, Type 0, BuildingBlock: BETDAH_clean_linker_0, # of connection points: 3
#     Node 7, Type 0, BuildingBlock: BETDAH_clean_linker_0, # of connection points: 3
#     Node 8, Type 1, BuildingBlock: LEVNOQ01_clean_sbu_1, # of connection points: 6
#     Node 9, Type 1, BuildingBlock: LEVNOQ01_clean_sbu_1, # of connection points: 6
#     Node 10, Type 1, BuildingBlock: LEVNOQ01_clean_sbu_1, # of connection points: 6
#     Node 11, Type 1, BuildingBlock: LEVNOQ01_clean_sbu_1, # of connection points: 6
#     Edge 12, Type (0, 1), BuildingBlock: OJICUG_clean_linker_0, # of connection points: 2
#     Edge 13, Type (0, 1), BuildingBlock: OJICUG_clean_linker_0, # of connection points: 2
#     Edge 14, Type (0, 1), BuildingBlock: OJICUG_clean_linker_0, # of connection points: 2
#     Edge 15, Type (0, 1), BuildingBlock: OJICUG_clean_linker_0, # of connection points: 2
#     Edge 16, Type (0, 1), BuildingBlock: OJICUG_clean_linker_0, # of connection points: 2
#     Edge 17, Type (0, 1), BuildingBlock: OJICUG_clean_linker_0, # of connection points: 2
#     Edge 18, Type (0, 1), BuildingBlock: OJICUG_clean_linker_0, # of connection points: 2
#     Edge 19, Type (0, 1), BuildingBlock: OJICUG_clean_linker_0, # of connection points: 2
#     Edge 20, Type (0, 1), BuildingBlock: OJICUG_clean_linker_0, # of connection points: 2
#     Edge 21, Type (0, 1), BuildingBlock: OJICUG_clean_linker_0, # of connection points: 2
#     Edge 22, Type (0, 1), BuildingBlock: OJICUG_clean_linker_0, # of connection points: 2
#     Edge 23, Type (0, 1), BuildingBlock: OJICUG_clean_linker_0, # of connection points: 2
#     Edge 24, Type (0, 1), BuildingBlock: OJICUG_clean_linker_0, # of connection points: 2
#     Edge 25, Type (0, 1), BuildingBlock: OJICUG_clean_linker_0, # of connection points: 2
#     Edge 26, Type (0, 1), BuildingBlock: OJICUG_clean_linker_0, # of connection points: 2
#     Edge 27, Type (0, 1), BuildingBlock: OJICUG_clean_linker_0, # of connection points: 2
#     Edge 28, Type (0, 1), BuildingBlock: OJICUG_clean_linker_0, # of connection points: 2
#     Edge 29, Type (0, 1), BuildingBlock: OJICUG_clean_linker_0, # of connection points: 2
#     Edge 30, Type (0, 1), BuildingBlock: OJICUG_clean_linker_0, # of connection points: 2
#     Edge 31, Type (0, 1), BuildingBlock: OJICUG_clean_linker_0, # of connection points: 2
#     Edge 32, Type (0, 1), BuildingBlock: OJICUG_clean_linker_0, # of connection points: 2
#     Edge 33, Type (0, 1), BuildingBlock: OJICUG_clean_linker_0, # of connection points: 2
#     Edge 34, Type (0, 1), BuildingBlock: OJICUG_clean_linker_0, # of connection points: 2
#     Edge 35, Type (0, 1), BuildingBlock: OJICUG_clean_linker_0, # of connection points: 2
# Relax obj value: 0.130
# Max RMSD: 0.177
# Mean RMSD: 0.107
data_MOF--net-zzz--node1-LEVNOQ01_clean_sbu_1--node2-BETDAH_clean_linker_0--edge1-OJICUG_clean_linker_0
_symmetry_space_group_name_H-M    P1
_symmetry_Int_Tables_number       1
_symmetry_cell_setting            triclinic
loop_
_symmetry_equiv_pos_as_xyz
'x, y, z'
_cell_length_a     35.81353
_cell_length_b     36.019899
_cell_length_c     12.213802
_cell_angle_alpha  89.825743
_cell_angle_beta   89.804349
_cell_angle_gamma 90.447361
loop_
_atom_site_label
_atom_site_type_symbol
_atom_site_fract_x
_atom_site_fract_y
_atom_site_fract_z
_atom_type_partial_charge
H0 H 0.87644 0.60929 0.1667 0.0
H1 H 0.78355 0.56505 -0.01281 0.0
H2 H 0.77425 0.58171 0.332 0.0
C3 C 0.84724 0.60112 0.16342 0.0
C4 C 0.82845 0.59442 0.26163 0.0
C5 C 0.83387 0.58373 0.06896 0.0
C6 C 0.79521 0.57656 0.06134 0.0
C7 C 0.7724 0.58041 0.15494 0.0
C8 C 0.78989 0.5862 0.25698 0.0
N9 N 0.73305 0.57417 0.15167 0.0
C10 C 0.71238 0.56754 0.05677 0.0
H11 H 0.92749 0.87873 0.16843 0.0
H12 H 0.96701 0.78466 -0.01233 0.0
H13 H 0.94316 0.7743 0.32932 0.0
C14 C 0.93362 0.84933 0.16401 0.0
C15 C 0.93651 0.82941 0.26147 0.0
C16 C 0.95145 0.83552 0.07067 0.0
C17 C 0.95543 0.79665 0.06126 0.0
C18 C 0.94782 0.77366 0.15262 0.0
C19 C 0.94161 0.79069 0.25497 0.0
N20 N 0.95038 0.73418 0.14784 0.0
C21 C 0.95753 0.71333 0.05381 0.0
H22 H 0.65032 0.92783 0.16676 0.0
H23 H 0.74634 0.96351 -0.01658 0.0
H24 H 0.75707 0.93556 0.32236 0.0
C25 C 0.6804 0.93136 0.16114 0.0
C26 C 0.70095 0.9327 0.2576 0.0
C27 C 0.69513 0.94935 0.06899 0.0
C28 C 0.7342 0.95155 0.05691 0.0
C29 C 0.75716 0.94185 0.14608 0.0
C30 C 0.74015 0.93552 0.249 0.0
N31 N 0.79685 0.94242 0.13885 0.0
C32 C 0.81748 0.95125 0.04506 0.0
H33 H 0.5837 0.65342 0.14703 0.0
H34 H 0.5744 0.75593 -0.02662 0.0
H35 H 0.59577 0.75623 0.32111 0.0
C36 C 0.58696 0.68345 0.14693 0.0
C37 C 0.59096 0.70201 0.24601 0.0
C38 C 0.57913 0.70269 0.05088 0.0
C39 C 0.58077 0.74149 0.0487 0.0
C40 C 0.58924 0.76119 0.14525 0.0
C41 C 0.59291 0.74124 0.24481 0.0
N42 N 0.59187 0.80077 0.14601 0.0
C43 C 0.58267 0.82363 0.05744 0.0
H44 H 0.15426 0.44593 0.18047 0.0
H45 H 0.25235 0.4606 0.37573 0.0
H46 H 0.26186 0.44442 0.02723 0.0
C47 C 0.18443 0.44463 0.18801 0.0
C48 C 0.20566 0.44388 0.09262 0.0
C49 C 0.20079 0.4533 0.28832 0.0
C50 C 0.23981 0.45395 0.29756 0.0
C51 C 0.26224 0.44783 0.20426 0.0
C52 C 0.24492 0.44446 0.10088 0.0
N53 N 0.30196 0.44785 0.21052 0.0
C54 C 0.32217 0.45959 0.30179 0.0
H55 H 0.05856 0.15864 0.15222 0.0
H56 H 0.0728 0.24803 0.37843 0.0
H57 H 0.10508 0.26176 0.03796 0.0
C58 C 0.06837 0.18667 0.16926 0.0
C59 C 0.08339 0.20766 0.08428 0.0
C60 C 0.06549 0.20041 0.27494 0.0
C61 C 0.07544 0.23737 0.29596 0.0
C62 C 0.08973 0.26003 0.21058 0.0
C63 C 0.09411 0.24479 0.10416 0.0
N64 N 0.09994 0.29778 0.23027 0.0
C65 C 0.08726 0.3179 0.32067 0.0
H66 H 0.38567 0.0904 0.20348 0.0
H67 H 0.28237 0.08045 0.37663 0.0
H68 H 0.28248 0.10391 0.03022 0.0
C69 C 0.35558 0.09419 0.20431 0.0
C70 C 0.33687 0.09859 0.10543 0.0
C71 C 0.33595 0.08543 0.29959 0.0
C72 C 0.29705 0.08761 0.30178 0.0
C73 C 0.27747 0.09706 0.2059 0.0
C74 C 0.29752 0.10112 0.10658 0.0
N75 N 0.23776 0.09941 0.20579 0.0
C76 C 0.2156 0.08757 0.29362 0.0
H77 H 0.45984 0.37496 0.17886 0.0
H78 H 0.45776 0.27442 0.3672 0.0
H79 H 0.44768 0.27072 0.01488 0.0
C80 C 0.45507 0.34513 0.18298 0.0
C81 C 0.45279 0.32539 0.08589 0.0
C82 C 0.45831 0.32705 0.28345 0.0
C83 C 0.45488 0.28826 0.28897 0.0
C84 C 0.44859 0.26775 0.19218 0.0
C85 C 0.44899 0.28648 0.09019 0.0
N86 N 0.44355 0.22847 0.19384 0.0
C87 C 0.45076 0.20569 0.28389 0.0
O88 O 0.06018 0.92667 0.7377 0.0
Mg89 Mg 0.07433 0.96187 0.60798 0.0
O90 O 0.03355 0.97255 0.82565 0.0
Mg91 Mg 0.02392 0.0138 0.68317 0.0
O92 O 0.08709 0.01702 0.61269 0.0
O93 O 0.12881 0.97122 0.58618 0.0
O94 O 0.01281 0.05567 0.54483 0.0
O95 O 0.04851 0.06511 0.78703 0.0
Mg96 Mg 0.97685 0.06384 0.77023 0.0
O97 O 0.96049 0.0099 0.75412 0.0
O98 O 0.98518 0.09977 0.63857 0.0
O99 O 1.00642 0.07984 0.90875 0.0
O100 O 0.92262 0.05727 0.80007 0.0
C101 C 0.01286 0.9431 0.49423 0.0
C102 C 0.04218 0.93841 0.81905 0.0
C103 C 0.12065 1.0061 0.58444 0.0
C104 C 1.00137 0.089 0.55279 0.0
C105 C 0.03873 0.08453 0.86951 0.0
C106 C 0.92795 0.02218 0.78708 0.0
O107 O 0.04691 0.94522 0.46782 0.0
O108 O 1.00052 0.96342 0.57221 0.0
O109 O 0.43205 0.99347 0.79783 0.0
Mg110 Mg 0.46245 0.9602 0.689 0.0
O111 O 0.47395 0.03904 0.80446 0.0
Mg112 Mg 0.51996 0.01916 0.6783 0.0
O113 O 0.51739 0.95586 0.73598 0.0
O114 O 0.47599 0.90869 0.73923 0.0
O115 O 0.56622 1.00019 0.55279 0.0
O116 O 0.56672 0.02191 0.80362 0.0
Mg117 Mg 0.57981 0.08401 0.65312 0.0
O118 O 0.52401 0.08089 0.62048 0.0
O119 O 0.60708 0.04712 0.54516 0.0
O120 O 0.59659 0.07552 0.81594 0.0
O121 O 0.55735 0.13308 0.5996 0.0
C122 C 0.44739 1.00024 0.50596 0.0
C123 C 0.44195 0.0254 0.83083 0.0
C124 C 0.50909 0.92128 0.75979 0.0
C125 C 0.59732 0.01426 0.51942 0.0
C126 C 0.5909 0.04265 0.84889 0.0
C127 C 0.52618 0.11535 0.58811 0.0
O128 O 0.44305 0.96617 0.52743 0.0
O129 O 0.47266 0.01849 0.55498 0.0
O130 O 0.55001 0.42547 0.75922 0.0
Mg131 Mg 0.58288 0.45724 0.64913 0.0
O132 O 0.50481 0.4663 0.79191 0.0
Mg133 Mg 0.52008 0.51427 0.66711 0.0
O134 O 0.58394 0.51006 0.70833 0.0
O135 O 0.63501 0.47501 0.69267 0.0
O136 O 0.53719 0.56116 0.54082 0.0
O137 O 0.52513 0.56024 0.79642 0.0
Mg138 Mg 0.46509 0.56884 0.69139 0.0
O139 O 0.45478 0.51805 0.62158 0.0
O140 O 0.49797 0.6049 0.59297 0.0
O141 O 0.47132 0.57823 0.85959 0.0
O142 O 0.41187 0.56285 0.64339 0.0
C143 C 0.53479 0.44595 0.47871 0.0
C144 C 0.51954 0.43417 0.806 0.0
C145 C 0.61945 0.50511 0.72652 0.0
C146 C 0.52618 0.59496 0.53764 0.0
C147 C 0.50649 0.58038 0.86143 0.0
C148 C 0.42065 0.53022 0.60879 0.0
O149 O 0.56998 0.44531 0.48536 0.0
O150 O 0.51645 0.46797 0.53916 0.0
O151 O 0.92817 0.48185 0.73207 0.0
Mg152 Mg 0.96525 0.46541 0.60987 0.0
O153 O 0.97365 0.51103 0.81698 0.0
Mg154 Mg 0.0172 0.51495 0.67777 0.0
O155 O 0.01955 0.44983 0.62238 0.0
O156 O 0.9708 0.41055 0.60129 0.0
O157 O 0.06178 0.51749 0.54519 0.0
O158 O 0.0663 0.49775 0.79728 0.0
Mg159 Mg 0.07201 0.57619 0.68098 0.0
O160 O 0.01716 0.57891 0.73163 0.0
O161 O 0.09124 0.57009 0.51935 0.0
O162 O 0.10487 0.54615 0.79142 0.0
O163 O 0.05682 0.62766 0.72525 0.0
C164 C 0.94831 0.52185 0.47987 0.0
C165 C 0.9395 0.50131 0.81079 0.0
C166 C 1.00638 0.4166 0.5995 0.0
C167 C 0.08627 0.53646 0.49429 0.0
C168 C 0.09731 0.51344 0.82348 0.0
C169 C 0.02449 0.61401 0.75089 0.0
O170 O 0.95049 0.48761 0.4601 0.0
O171 O 0.96842 0.53565 0.55641 0.0
C172 C 0.16071 0.0866 0.41925 0.0
C173 C 0.19427 0.071 0.38232 0.0
H174 H 0.11152 0.07898 0.51871 0.0
C175 C 0.20614 0.03735 0.42697 0.0
H176 H 0.15149 0.113 0.38695 0.0
C177 C 0.18347 0.01799 0.50121 0.0
C178 C 0.1482 0.03176 0.53181 0.0
H179 H 0.23221 0.02508 0.40062 0.0
H180 H 0.19277 0.99108 0.52948 0.0
C181 C 0.13793 0.0672 0.49442 0.0
C182 C 0.46819 0.19281 0.47616 0.0
C183 C 0.46161 0.18008 0.36959 0.0
H184 H 0.49315 0.18112 0.63195 0.0
C185 C 0.46994 0.14316 0.34322 0.0
H186 H 0.46192 0.22119 0.4983 0.0
C187 C 0.48747 0.12013 0.41992 0.0
C188 C 0.4966 0.13367 0.52428 0.0
H189 H 0.46507 0.13284 0.2612 0.0
H190 H 0.49644 0.09277 0.39485 0.0
C191 C 0.48572 0.16981 0.55279 0.0
C192 C 0.37131 0.45452 0.44476 0.0
C193 C 0.34427 0.47542 0.38941 0.0
H194 H 0.41606 0.45523 0.56252 0.0
C195 C 0.34032 0.51303 0.41418 0.0
H196 H 0.37427 0.42521 0.42784 0.0
C197 C 0.36423 0.5301 0.48914 0.0
C198 C 0.39285 0.50995 0.54075 0.0
H199 H 0.31947 0.52959 0.37288 0.0
H200 H 0.36115 0.5596 0.50311 0.0
C201 C 0.39536 0.47167 0.52055 0.0
C202 C 0.08849 0.36743 0.46354 0.0
C203 C 0.06951 0.33908 0.40709 0.0
H204 H 0.08368 0.41437 0.57187 0.0
C205 C 0.03162 0.33309 0.42833 0.0
H206 H 0.11813 0.37158 0.4507 0.0
C207 C 0.01223 0.35659 0.4988 0.0
C208 C 0.03007 0.38729 0.54852 0.0
H209 H 0.0165 0.31112 0.3867 0.0
H210 H 0.98251 0.35181 0.50854 0.0
C211 C 0.06886 0.39161 0.53339 0.0
C212 C 0.87847 0.94745 0.94987 0.0
C213 C 0.84266 0.96293 0.9583 0.0
H214 H 0.93407 0.95363 0.88478 0.0
C215 C 0.83351 0.99336 0.89254 0.0
H216 H 0.88603 0.92389 0.00028 0.0
C217 C 0.86075 0.01018 0.82641 0.0
C218 C 0.89769 0.99699 0.82536 0.0
H219 H 0.80604 1.00567 0.89769 0.0
H220 H 0.85359 0.03528 0.7823 0.0
C221 C 0.90586 0.96426 0.88318 0.0
C222 C 0.57889 0.88598 -0.03082 0.0
C223 C 0.56998 0.84785 -0.03003 0.0
H224 H 0.5672 0.93967 0.89942 0.0
C225 C 0.54561 0.83383 0.89069 0.0
H226 H 0.59782 0.89735 0.02966 0.0
C227 C 0.52841 0.85774 0.81637 0.0
C228 C 0.53494 0.89635 0.81992 0.0
H229 H 0.53834 0.80459 0.88929 0.0
H230 H 0.50834 0.84611 0.75957 0.0
C231 C 0.56159 0.91013 0.89424 0.0
C232 C 0.64933 0.55719 -0.02019 0.0
C233 C 0.68825 0.55842 0.96527 0.0
H234 H 0.59654 0.53965 0.91382 0.0
C235 C 0.70349 0.54747 0.86476 0.0
H236 H 0.63702 0.56548 0.05704 0.0
C237 C 0.68035 0.53319 0.78248 0.0
C238 C 0.64155 0.52972 0.79912 0.0
H239 H 0.73342 0.54824 0.85158 0.0
H240 H 0.69304 0.52293 0.70793 0.0
C241 C 0.62613 0.5429 0.89738 0.0
C242 C 0.96153 0.64982 -0.02366 0.0
C243 C 0.96726 0.68834 0.96513 0.0
H244 H 0.9744 0.59544 0.91458 0.0
C245 C 0.98607 0.70193 0.87259 0.0
H246 H 0.9469 0.63877 0.04725 0.0
C247 C 1.00155 0.6773 0.79683 0.0
C248 C 0.99863 0.63856 0.81213 0.0
H249 H 0.99061 0.73149 0.86178 0.0
H250 H 0.01785 0.68861 0.72949 0.0
C251 C 0.97696 0.62503 0.9 0.0
C252 C 0.02058 0.18265 0.42368 0.0
C253 C 0.05179 0.17436 0.35914 0.0
H254 H 0.97904 0.16136 0.53426 0.0
C255 C 0.06566 0.13796 0.35819 0.0
H256 H 1.00919 0.21042 0.42464 0.0
C257 C 0.04709 0.1097 0.41348 0.0
C258 C 0.01565 0.11755 0.47725 0.0
H259 H 0.08989 0.13097 0.30925 0.0
H260 H 0.058 0.08181 0.40815 0.0
C261 C 1.00281 0.1544 0.48343 0.0
C262 C 0.38569 0.08133 0.43698 0.0
C263 C 0.35654 0.06398 0.38083 0.0
H264 H 0.43695 0.07454 0.52104 0.0
C265 C 0.35578 0.0251 0.37164 0.0
H266 H 0.38702 0.11133 0.44323 0.0
C267 C 0.38558 1.00402 0.4102 0.0
C268 C 0.41631 0.02166 0.45914 0.0
H269 H 0.33371 0.01139 0.32625 0.0
H270 H 0.38499 0.97419 0.39928 0.0
C271 C 0.41504 0.0603 0.4769 0.0
C272 C 0.45522 0.38292 0.39709 0.0
C273 C 0.4738 0.34987 0.37198 0.0
H274 H 0.46092 0.44039 0.43632 0.0
C275 C 0.51233 0.34753 0.39113 0.0
H276 H 0.42568 0.38549 0.38042 0.0
C277 C 0.53256 0.37902 0.42298 0.0
C278 C 0.51448 0.41325 0.43633 0.0
H279 H 0.52735 0.32246 0.37082 0.0
H280 H 0.56241 0.37671 0.43487 0.0
C281 C 0.4755 0.41451 0.42607 0.0
C282 C 0.18203 0.5091 0.3922 0.0
C283 C 0.17615 0.47137 0.36849 0.0
H284 H 0.15766 0.56003 0.44612 0.0
C285 C 0.141 0.45544 0.38906 0.0
H286 H 0.20875 0.52224 0.37513 0.0
C287 C 0.11136 0.47734 0.42256 0.0
C288 C 0.11648 0.51551 0.44107 0.0
H289 H 0.13565 0.42673 0.36844 0.0
H290 H 0.0842 0.46436 0.43303 0.0
C291 C 0.15242 0.53102 0.42847 0.0
C292 C 0.9844 0.85413 0.89492 0.0
C293 C 0.97415 0.86209 0.00323 0.0
H294 H 0.01502 0.87168 0.75317 0.0
C295 C 0.98887 0.89474 0.05211 0.0
H296 H 0.97389 0.8296 0.854 0.0
C297 C 0.01161 0.91924 -0.00642 0.0
C298 C 0.02187 0.91102 0.88634 0.0
H299 H 0.98369 0.90149 0.137 0.0
H300 H 0.02141 0.94448 0.0325 0.0
C301 C 1.0083 0.87816 0.83751 0.0
C302 C 0.64266 0.99461 0.07097 0.0
C303 C 0.67006 0.9752 0.01039 0.0
H304 H 0.59572 0.03108 0.0668 0.0
C305 C 0.67354 0.98209 0.8979 0.0
H306 H 0.64008 0.99147 0.15886 0.0
C307 C 0.64872 1.00626 0.84659 0.0
C308 C 0.62045 0.02377 0.90731 0.0
H309 H 0.69455 0.96814 0.84949 0.0
H310 H 0.65063 0.01022 0.75871 0.0
C311 C 0.61766 0.01809 0.01951 0.0
C312 C 0.52115 0.67592 -0.01803 0.0
C313 C 0.55979 0.68086 -0.0325 0.0
H314 H 0.47429 0.63912 -0.03322 0.0
C315 C 0.58015 0.65411 0.91055 0.0
H316 H 0.50516 0.69597 0.02823 0.0
C317 C 0.56274 0.62137 0.87714 0.0
C318 C 0.52479 0.61455 0.90159 0.0
H319 H 0.61011 0.65708 0.90059 0.0
H320 H 0.57934 0.60113 0.83406 0.0
C321 C 0.50383 0.64284 0.95047 0.0
C322 C 0.89435 0.54966 0.0473 0.0
C323 C 0.86128 0.56361 -0.00065 0.0
H324 H 0.94507 0.5195 0.02523 0.0
C325 C 0.85366 0.55477 0.88986 0.0
H326 H 0.90081 0.55385 0.13284 0.0
C327 C 0.87853 0.53293 0.83029 0.0
C328 C 0.91172 0.5201 0.8785 0.0
H329 H 0.82871 0.56475 0.84998 0.0
H330 H 0.87237 0.52708 0.74522 0.0
C331 C 0.91959 0.52895 -0.01314 0.0
C332 C 0.10773 0.15711 -0.02984 0.0
C333 C 0.08408 0.18825 -0.02237 0.0
H334 H 0.11139 0.09866 0.93417 0.0
C335 C 0.04991 0.18698 0.92182 0.0
H336 H 0.13417 0.1572 0.013 0.0
C337 C 0.03638 0.15325 0.88099 0.0
C338 C 0.05741 0.12058 0.89101 0.0
H339 H 0.03099 0.21027 0.92617 0.0
H340 H 1.0082 0.15213 0.84899 0.0
C341 C 0.0943 0.12325 0.92806 0.0
C342 C 0.35024 0.05231 0.96338 0.0
C343 C 0.35837 0.08731 0.0073 0.0
H344 H 0.37043 1.00496 0.87882 0.0
C345 C 0.39356 0.10357 -0.01499 0.0
H346 H 0.32393 0.03854 -0.01818 0.0
C347 C 0.42091 0.08396 0.92673 0.0
C348 C 0.41361 0.04762 0.89058 0.0
H349 H 0.40083 0.13023 0.02018 0.0
H350 H 0.44806 0.09669 0.91367 0.0
C351 C 0.37751 0.03263 0.90679 0.0
C352 C 0.44452 0.37821 0.95602 0.0
C353 C 0.46445 0.34631 -0.01293 0.0
H354 H 0.44634 0.43152 0.87657 0.0
C355 C 0.50166 0.34287 0.95306 0.0
H356 H 0.4161 0.38199 -0.01576 0.0
C357 C 0.5193 0.3716 0.89544 0.0
C358 C 0.50011 0.40448 0.86936 0.0
H359 H 0.51812 0.31939 -0.02044 0.0
H360 H 0.54853 0.36844 0.8746 0.0
C361 C 0.46216 0.40702 0.8975 0.0
C362 C 0.18963 0.49293 0.96147 0.0
C363 C 0.18535 0.45572 -0.00684 0.0
H364 H 0.16475 0.54056 0.88933 0.0
C365 C 0.15284 0.43637 0.96077 0.0
H366 H 0.21365 0.50894 -0.01171 0.0
C367 C 0.12405 0.45475 0.90535 0.0
C368 C 0.12722 0.49286 0.88156 0.0
H369 H 0.14841 0.40788 -0.01327 0.0
H370 H 0.09893 0.43945 0.88441 0.0
C371 C 0.1609 0.51132 0.90742 0.0
C372 C 0.93219 0.88265 0.39367 0.0
C373 C 0.95153 0.85144 0.35415 0.0
H374 H 0.93633 0.93648 0.46963 0.0
C375 C 0.99014 0.84938 0.3722 0.0
H376 H 0.90257 0.8854 0.37835 0.0
C377 C 1.00948 0.87912 0.41847 0.0
C378 C 0.99069 0.91144 0.45107 0.0
H379 H 1.0061 0.82637 0.3401 0.0
H380 H 0.03956 0.87715 0.42566 0.0
C381 C 0.95158 0.91222 0.44338 0.0
C382 C 0.64687 0.93193 0.38913 0.0
C383 C 0.6803 0.94862 0.35182 0.0
H384 H 0.59397 0.93951 0.46937 0.0
C385 C 0.68667 0.98628 0.37522 0.0
H386 H 0.64076 0.90322 0.36954 0.0
C387 C 0.65947 1.0073 0.4278 0.0
C388 C 0.6252 0.99123 0.46048 0.0
H389 H 0.71136 1.00041 0.34408 0.0
H390 H 0.6651 0.03658 0.44015 0.0
C391 C 0.61965 0.95298 0.44338 0.0
C392 C 0.59848 0.64387 0.35744 0.0
C393 C 0.58278 0.67952 0.34587 0.0
H394 H 0.59241 0.58877 0.42337 0.0
C395 C 0.55097 0.68802 0.4078 0.0
H396 H 0.62291 0.63639 0.31007 0.0
C397 C 0.53325 0.66066 0.47122 0.0
C398 C 0.54689 0.62403 0.47463 0.0
H399 H 0.53777 0.71485 0.39954 0.0
H400 H 0.5078 0.66798 0.51384 0.0
C401 C 0.58057 0.61634 0.4204 0.0
C402 C 0.8828 0.59935 0.39099 0.0
C403 C 0.85251 0.57873 0.34868 0.0
H404 H 0.93719 0.59768 0.46576 0.0
C405 C 0.85327 0.53989 0.35733 0.0
H406 H 0.88343 0.62928 0.38254 0.0
C407 C 0.88459 0.52195 0.39848 0.0
C408 C 0.9158 0.54229 0.43543 0.0
H409 H 0.83109 0.5231 0.32242 0.0
H410 H 0.88448 0.49188 0.39939 0.0
C411 C 0.91395 0.58126 0.4357 0.0
loop_
_geom_bond_atom_site_label_1
_geom_bond_atom_site_label_2
_geom_bond_distance
_geom_bond_site_symmetry_2
_ccdc_geom_bond_type
H0 C3 0.929 . S
H1 C6 0.929 . S
H2 C8 0.930 . S
C3 H0 0.929 . S
C3 C4 1.398 . S
C3 C5 1.396 . S
C4 C3 1.398 . S
C4 C8 1.407 . S
C5 C3 1.396 . S
C5 C6 1.394 1_554 S
C6 H1 0.929 . S
C6 C5 1.394 1_556 S
C6 C7 1.382 1_556 S
C7 C6 1.382 1_554 S
C7 C8 1.392 . S
C7 N9 1.420 . S
C8 H2 0.930 . S
C8 C4 1.407 . S
C8 C7 1.392 . S
N9 C7 1.420 . S
N9 C10 1.244 . S
C10 N9 1.244 . S
H11 C14 0.929 . S
H12 C17 0.929 . S
H13 C19 0.930 . S
C14 H11 0.929 . S
C14 C15 1.398 . S
C14 C16 1.396 . S
C15 C14 1.398 . S
C15 C19 1.407 . S
C16 C14 1.396 . S
C16 C17 1.394 1_554 S
C17 H12 0.929 . S
C17 C16 1.394 1_556 S
C17 C18 1.382 1_556 S
C18 C17 1.382 1_554 S
C18 C19 1.392 . S
C18 N20 1.420 . S
C19 H13 0.930 . S
C19 C15 1.407 . S
C19 C18 1.392 . S
N20 C18 1.420 . S
N20 C21 1.244 . S
C21 N20 1.244 . S
H22 C25 0.929 . S
H23 C28 0.929 . S
H24 C30 0.930 . S
C25 H22 0.929 . S
C25 C26 1.398 . S
C25 C27 1.396 . S
C26 C25 1.398 . S
C26 C30 1.407 . S
C27 C25 1.396 . S
C27 C28 1.394 1_554 S
C28 H23 0.929 . S
C28 C27 1.394 1_556 S
C28 C29 1.382 1_556 S
C29 C28 1.382 1_554 S
C29 C30 1.392 . S
C29 N31 1.420 . S
C30 H24 0.930 . S
C30 C26 1.407 . S
C30 C29 1.392 . S
N31 C29 1.420 . S
N31 C32 1.244 . S
C32 N31 1.244 . S
H33 C36 0.929 . S
H34 C39 0.929 . S
H35 C41 0.930 . S
C36 H33 0.929 . S
C36 C37 1.398 . S
C36 C38 1.396 . S
C37 C36 1.398 . S
C37 C41 1.407 . S
C38 C36 1.396 . S
C38 C39 1.394 1_554 S
C39 H34 0.929 . S
C39 C38 1.394 1_556 S
C39 C40 1.382 1_556 S
C40 C39 1.382 1_554 S
C40 C41 1.392 . S
C40 N42 1.420 . S
C41 H35 0.930 . S
C41 C37 1.407 . S
C41 C40 1.392 . S
N42 C40 1.420 . S
N42 C43 1.244 . S
C43 N42 1.244 . S
H44 C47 0.929 . S
H45 C50 0.929 . S
H46 C52 0.930 . S
C47 H44 0.929 . S
C47 C48 1.398 . S
C47 C49 1.396 . S
C48 C47 1.398 . S
C48 C52 1.407 . S
C49 C47 1.396 . S
C49 C50 1.394 . S
C50 H45 0.929 . S
C50 C49 1.394 . S
C50 C51 1.382 . S
C51 C50 1.382 . S
C51 C52 1.392 . S
C51 N53 1.420 . S
C52 H46 0.930 . S
C52 C48 1.407 . S
C52 C51 1.392 . S
N53 C51 1.420 . S
N53 C54 1.244 . S
C54 N53 1.244 . S
H55 C58 0.929 . S
H56 C61 0.929 . S
H57 C63 0.930 . S
C58 H55 0.929 . S
C58 C59 1.398 . S
C58 C60 1.396 . S
C59 C58 1.398 . S
C59 C63 1.407 . S
C60 C58 1.396 . S
C60 C61 1.394 . S
C61 H56 0.929 . S
C61 C60 1.394 . S
C61 C62 1.382 . S
C62 C61 1.382 . S
C62 C63 1.392 . S
C62 N64 1.420 . S
C63 H57 0.930 . S
C63 C59 1.407 . S
C63 C62 1.392 . S
N64 C62 1.420 . S
N64 C65 1.244 . S
C65 N64 1.244 . S
H66 C69 0.929 . S
H67 C72 0.929 . S
H68 C74 0.930 . S
C69 H66 0.929 . S
C69 C70 1.398 . S
C69 C71 1.396 . S
C70 C69 1.398 . S
C70 C74 1.407 . S
C71 C69 1.396 . S
C71 C72 1.394 . S
C72 H67 0.929 . S
C72 C71 1.394 . S
C72 C73 1.382 . S
C73 C72 1.382 . S
C73 C74 1.392 . S
C73 N75 1.420 . S
C74 H68 0.930 . S
C74 C70 1.407 . S
C74 C73 1.392 . S
N75 C73 1.420 . S
N75 C76 1.244 . S
C76 N75 1.244 . S
H77 C80 0.929 . S
H78 C83 0.929 . S
H79 C85 0.930 . S
C80 H77 0.929 . S
C80 C81 1.398 . S
C80 C82 1.396 . S
C81 C80 1.398 . S
C81 C85 1.407 . S
C82 C80 1.396 . S
C82 C83 1.394 . S
C83 H78 0.929 . S
C83 C82 1.394 . S
C83 C84 1.382 . S
C84 C83 1.382 . S
C84 C85 1.392 . S
C84 N86 1.420 . S
C85 H79 0.930 . S
C85 C81 1.407 . S
C85 C84 1.392 . S
N86 C84 1.420 . S
N86 C87 1.244 . S
C87 N86 1.244 . S
O88 Mg89 1.990 . S
O88 C102 1.253 . S
Mg89 O88 1.990 . S
Mg89 O92 2.180 . S
Mg89 O93 2.117 . S
Mg89 O107 2.030 . S
O90 Mg91 2.072 1_565 S
O90 C102 1.260 . S
Mg91 O90 2.072 1_545 S
Mg91 O92 2.099 1_545 S
Mg91 O94 2.079 . S
Mg91 O95 2.072 . S
Mg91 O97 2.099 1_455 S
Mg91 O108 2.079 1_445 S
O92 Mg89 2.180 . S
O92 Mg91 2.099 1_565 S
O92 C103 1.279 . S
O93 Mg89 2.117 . S
O93 C103 1.250 . S
O94 Mg91 2.079 . S
O94 C104 1.264 1_455 S
O95 Mg91 2.072 . S
O95 C105 1.260 . S
Mg96 O97 2.180 . S
Mg96 O98 2.030 . S
Mg96 O99 1.990 . S
Mg96 O100 2.117 . S
O97 Mg91 2.099 1_655 S
O97 Mg96 2.180 . S
O97 C106 1.279 . S
O98 Mg96 2.030 . S
O98 C104 1.248 . S
O99 Mg96 1.990 . S
O99 C105 1.253 1_655 S
O100 Mg96 2.117 . S
O100 C106 1.250 . S
C101 O107 1.248 1_655 S
C101 O108 1.264 . S
C102 O88 1.253 . S
C102 O90 1.260 . S
C103 O92 1.279 . S
C103 O93 1.250 . S
C104 O94 1.264 1_655 S
C104 O98 1.248 . S
C105 O95 1.260 . S
C105 O99 1.253 1_455 S
C106 O97 1.279 . S
C106 O100 1.250 . S
O107 Mg89 2.030 . S
O107 C101 1.248 1_455 S
O108 Mg91 2.079 1_665 S
O108 C101 1.264 . S
O109 Mg110 1.990 . S
O109 C123 1.253 1_565 S
Mg110 O109 1.990 . S
Mg110 O113 2.180 . S
Mg110 O114 2.117 . S
Mg110 O128 2.030 . S
O111 Mg112 2.072 . S
O111 C123 1.260 . S
Mg112 O111 2.072 . S
Mg112 O113 2.099 1_545 S
Mg112 O115 2.079 1_545 S
Mg112 O116 2.072 . S
Mg112 O118 2.099 . S
Mg112 O129 2.079 . S
O113 Mg110 2.180 . S
O113 Mg112 2.099 1_565 S
O113 C124 1.279 . S
O114 Mg110 2.117 . S
O114 C124 1.250 . S
O115 Mg112 2.079 1_565 S
O115 C125 1.264 . S
O116 Mg112 2.072 . S
O116 C126 1.260 . S
Mg117 O118 2.180 . S
Mg117 O119 2.030 . S
Mg117 O120 1.990 . S
Mg117 O121 2.117 . S
O118 Mg112 2.099 . S
O118 Mg117 2.180 . S
O118 C127 1.279 . S
O119 Mg117 2.030 . S
O119 C125 1.248 1_545 S
O120 Mg117 1.990 . S
O120 C126 1.253 . S
O121 Mg117 2.117 . S
O121 C127 1.250 . S
C122 O128 1.260 . S
C122 O129 1.259 1_565 S
C123 O109 1.253 1_545 S
C123 O111 1.260 . S
C124 O113 1.279 . S
C124 O114 1.250 . S
C125 O115 1.264 . S
C125 O119 1.248 1_565 S
C126 O116 1.260 . S
C126 O120 1.253 . S
C127 O118 1.279 . S
C127 O121 1.250 . S
O128 Mg110 2.030 . S
O128 C122 1.260 . S
O129 Mg112 2.079 . S
O129 C122 1.259 1_545 S
O130 Mg131 1.990 . S
O130 C144 1.253 . S
Mg131 O130 1.990 . S
Mg131 O134 2.180 . S
Mg131 O135 2.117 . S
Mg131 O149 2.030 . S
O132 Mg133 2.072 . S
O132 C144 1.260 . S
Mg133 O132 2.072 . S
Mg133 O134 2.099 . S
Mg133 O136 2.079 . S
Mg133 O137 2.072 . S
Mg133 O139 2.099 . S
Mg133 O150 2.079 . S
O134 Mg131 2.180 . S
O134 Mg133 2.099 . S
O134 C145 1.279 . S
O135 Mg131 2.117 . S
O135 C145 1.250 . S
O136 Mg133 2.079 . S
O136 C146 1.264 . S
O137 Mg133 2.072 . S
O137 C147 1.260 . S
Mg138 O139 2.180 . S
Mg138 O140 2.030 . S
Mg138 O141 1.990 . S
Mg138 O142 2.117 . S
O139 Mg133 2.099 . S
O139 Mg138 2.180 . S
O139 C148 1.279 . S
O140 Mg138 2.030 . S
O140 C146 1.248 . S
O141 Mg138 1.990 . S
O141 C147 1.253 . S
O142 Mg138 2.117 . S
O142 C148 1.250 . S
C143 O149 1.248 . S
C143 O150 1.264 . S
C144 O130 1.253 . S
C144 O132 1.260 . S
C145 O134 1.279 . S
C145 O135 1.250 . S
C146 O136 1.264 . S
C146 O140 1.248 . S
C147 O137 1.260 . S
C147 O141 1.253 . S
C148 O139 1.279 . S
C148 O142 1.250 . S
O149 Mg131 2.030 . S
O149 C143 1.248 . S
O150 Mg133 2.079 . S
O150 C143 1.264 . S
O151 Mg152 1.990 . S
O151 C165 1.253 . S
Mg152 O151 1.990 . S
Mg152 O155 2.180 . S
Mg152 O156 2.117 . S
Mg152 O170 2.030 . S
O153 Mg154 2.072 1_655 S
O153 C165 1.260 . S
Mg154 O153 2.072 1_455 S
Mg154 O155 2.099 1_455 S
Mg154 O157 2.079 . S
Mg154 O158 2.072 . S
Mg154 O160 2.099 . S
Mg154 O171 2.079 1_455 S
O155 Mg152 2.180 . S
O155 Mg154 2.099 1_655 S
O155 C166 1.279 . S
O156 Mg152 2.117 . S
O156 C166 1.250 . S
O157 Mg154 2.079 . S
O157 C167 1.264 . S
O158 Mg154 2.072 . S
O158 C168 1.260 . S
Mg159 O160 2.180 . S
Mg159 O161 2.030 . S
Mg159 O162 1.990 . S
Mg159 O163 2.117 . S
O160 Mg154 2.099 . S
O160 Mg159 2.180 . S
O160 C169 1.279 . S
O161 Mg159 2.030 . S
O161 C167 1.248 . S
O162 Mg159 1.990 . S
O162 C168 1.253 . S
O163 Mg159 2.117 . S
O163 C169 1.250 . S
C164 O170 1.248 . S
C164 O171 1.264 . S
C165 O151 1.253 . S
C165 O153 1.260 . S
C166 O155 1.279 . S
C166 O156 1.250 . S
C167 O157 1.264 . S
C167 O161 1.248 . S
C168 O158 1.260 . S
C168 O162 1.253 . S
C169 O160 1.279 . S
C169 O163 1.250 . S
O170 Mg152 2.030 . S
O170 C164 1.248 . S
O171 Mg154 2.079 1_655 S
O171 C164 1.264 . S
C172 C173 1.387 . S
C172 H176 0.950 . S
C172 C181 1.390 . S
C173 C172 1.387 . S
C173 C175 1.387 . S
H174 C181 0.950 . S
C175 C173 1.387 . S
C175 C177 1.390 1_545 S
C175 H179 0.950 1_545 S
H176 C172 0.950 . S
C177 C175 1.390 1_565 S
C177 C178 1.387 1_565 S
C177 H180 0.950 . S
C178 C177 1.387 1_545 S
C178 C181 1.387 . S
H179 C175 0.950 1_565 S
H180 C177 0.950 . S
C181 C172 1.390 . S
C181 H174 0.950 . S
C181 C178 1.387 . S
C182 C183 1.387 . S
C182 H186 0.950 . S
C182 C191 1.390 . S
C183 C182 1.387 . S
C183 C185 1.387 . S
H184 C191 0.950 . S
C185 C183 1.387 . S
C185 C187 1.390 . S
C185 H189 0.950 . S
H186 C182 0.950 . S
C187 C185 1.390 . S
C187 C188 1.387 . S
C187 H190 0.950 . S
C188 C187 1.387 . S
C188 C191 1.387 . S
H189 C185 0.950 . S
H190 C187 0.950 . S
C191 C182 1.390 . S
C191 H184 0.950 . S
C191 C188 1.387 . S
C192 C193 1.387 . S
C192 H196 0.950 . S
C192 C201 1.390 . S
C193 C192 1.387 . S
C193 C195 1.387 . S
H194 C201 0.950 . S
C195 C193 1.387 . S
C195 C197 1.390 . S
C195 H199 0.950 . S
H196 C192 0.950 . S
C197 C195 1.390 . S
C197 C198 1.387 . S
C197 H200 0.950 . S
C198 C197 1.387 . S
C198 C201 1.387 . S
H199 C195 0.950 . S
H200 C197 0.950 . S
C201 C192 1.390 . S
C201 H194 0.950 . S
C201 C198 1.387 . S
C202 C203 1.387 . S
C202 H206 0.950 . S
C202 C211 1.390 . S
C203 C202 1.387 . S
C203 C205 1.387 . S
H204 C211 0.950 . S
C205 C203 1.387 . S
C205 C207 1.390 1_455 S
C205 H209 0.950 1_455 S
H206 C202 0.950 . S
C207 C205 1.390 1_655 S
C207 C208 1.387 1_655 S
C207 H210 0.950 . S
C208 C207 1.387 1_455 S
C208 C211 1.387 . S
H209 C205 0.950 1_655 S
H210 C207 0.950 . S
C211 C202 1.390 . S
C211 H204 0.950 . S
C211 C208 1.387 . S
C212 C213 1.387 . S
C212 H216 0.950 . S
C212 C221 1.390 . S
C213 C212 1.387 . S
C213 C215 1.387 1_565 S
H214 C221 0.950 . S
C215 C213 1.387 1_545 S
C215 C217 1.390 . S
C215 H219 0.950 . S
H216 C212 0.950 . S
C217 C215 1.390 . S
C217 C218 1.387 1_545 S
C217 H220 0.950 . S
C218 C217 1.387 1_565 S
C218 C221 1.387 . S
H219 C215 0.950 . S
H220 C217 0.950 . S
C221 C212 1.390 . S
C221 H214 0.950 . S
C221 C218 1.387 . S
C222 C223 1.387 . S
C222 H226 0.950 1_556 S
C222 C231 1.390 . S
C223 C222 1.387 . S
C223 C225 1.387 . S
H224 C231 0.950 . S
C225 C223 1.387 . S
C225 C227 1.390 . S
C225 H229 0.950 . S
H226 C222 0.950 1_554 S
C227 C225 1.390 . S
C227 C228 1.387 . S
C227 H230 0.950 . S
C228 C227 1.387 . S
C228 C231 1.387 . S
H229 C225 0.950 . S
H230 C227 0.950 . S
C231 C222 1.390 . S
C231 H224 0.950 . S
C231 C228 1.387 . S
C232 C233 1.387 1_554 S
C232 H236 0.950 . S
C232 C241 1.390 1_554 S
C233 C232 1.387 1_556 S
C233 C235 1.387 . S
H234 C241 0.950 . S
C235 C233 1.387 . S
C235 C237 1.390 . S
C235 H239 0.950 . S
H236 C232 0.950 . S
C237 C235 1.390 . S
C237 C238 1.387 . S
C237 H240 0.950 . S
C238 C237 1.387 . S
C238 C241 1.387 . S
H239 C235 0.950 . S
H240 C237 0.950 . S
C241 C232 1.390 1_556 S
C241 H234 0.950 . S
C241 C238 1.387 . S
C242 C243 1.387 1_554 S
C242 H246 0.950 . S
C242 C251 1.390 1_554 S
C243 C242 1.387 1_556 S
C243 C245 1.387 . S
H244 C251 0.950 . S
C245 C243 1.387 . S
C245 C247 1.390 . S
C245 H249 0.950 . S
H246 C242 0.950 . S
C247 C245 1.390 . S
C247 C248 1.387 . S
C247 H250 0.950 . S
C248 C247 1.387 . S
C248 C251 1.387 . S
H249 C245 0.950 . S
H250 C247 0.950 . S
C251 C242 1.390 1_556 S
C251 H244 0.950 . S
C251 C248 1.387 . S
C252 C253 1.387 . S
C252 H256 0.950 . S
C252 C261 1.390 . S
C253 C252 1.387 . S
C253 C255 1.387 . S
H254 C261 0.950 1_655 S
C255 C253 1.387 . S
C255 C257 1.390 . S
C255 H259 0.950 . S
H256 C252 0.950 . S
C257 C255 1.390 . S
C257 C258 1.387 . S
C257 H260 0.950 . S
C258 C257 1.387 . S
C258 C261 1.387 . S
H259 C255 0.950 . S
H260 C257 0.950 . S
C261 C252 1.390 . S
C261 H254 0.950 1_455 S
C261 C258 1.387 . S
C262 C263 1.387 . S
C262 H266 0.950 . S
C262 C271 1.390 . S
C263 C262 1.387 . S
C263 C265 1.387 . S
H264 C271 0.950 . S
C265 C263 1.387 . S
C265 C267 1.390 1_545 S
C265 H269 0.950 . S
H266 C262 0.950 . S
C267 C265 1.390 1_565 S
C267 C268 1.387 1_565 S
C267 H270 0.950 . S
C268 C267 1.387 1_545 S
C268 C271 1.387 . S
H269 C265 0.950 . S
H270 C267 0.950 . S
C271 C262 1.390 . S
C271 H264 0.950 . S
C271 C268 1.387 . S
C272 C273 1.387 . S
C272 H276 0.950 . S
C272 C281 1.390 . S
C273 C272 1.387 . S
C273 C275 1.387 . S
H274 C281 0.950 . S
C275 C273 1.387 . S
C275 C277 1.390 . S
C275 H279 0.950 . S
H276 C272 0.950 . S
C277 C275 1.390 . S
C277 C278 1.387 . S
C277 H280 0.950 . S
C278 C277 1.387 . S
C278 C281 1.387 . S
H279 C275 0.950 . S
H280 C277 0.950 . S
C281 C272 1.390 . S
C281 H274 0.950 . S
C281 C278 1.387 . S
C282 C283 1.387 . S
C282 H286 0.950 . S
C282 C291 1.390 . S
C283 C282 1.387 . S
C283 C285 1.387 . S
H284 C291 0.950 . S
C285 C283 1.387 . S
C285 C287 1.390 . S
C285 H289 0.950 . S
H286 C282 0.950 . S
C287 C285 1.390 . S
C287 C288 1.387 . S
C287 H290 0.950 . S
C288 C287 1.387 . S
C288 C291 1.387 . S
H289 C285 0.950 . S
H290 C287 0.950 . S
C291 C282 1.390 . S
C291 H284 0.950 . S
C291 C288 1.387 . S
C292 C293 1.387 . S
C292 H296 0.950 . S
C292 C301 1.390 1_655 S
C293 C292 1.387 . S
C293 C295 1.387 1_556 S
H294 C301 0.950 . S
C295 C293 1.387 1_554 S
C295 C297 1.390 1_554 S
C295 H299 0.950 . S
H296 C292 0.950 . S
C297 C295 1.390 1_556 S
C297 C298 1.387 1_655 S
C297 H300 0.950 1_556 S
C298 C297 1.387 1_455 S
C298 C301 1.387 . S
H299 C295 0.950 . S
H300 C297 0.950 1_554 S
C301 C292 1.390 1_455 S
C301 H294 0.950 . S
C301 C298 1.387 . S
C302 C303 1.387 1_554 S
C302 H306 0.950 . S
C302 C311 1.384 1_564 S
C303 C302 1.387 1_556 S
C303 C305 1.387 . S
H304 C311 0.954 1_554 S
C305 C303 1.387 . S
C305 C307 1.390 . S
C305 H309 0.950 . S
H306 C302 0.950 . S
C307 C305 1.390 . S
C307 C308 1.387 1_565 S
C307 H310 0.953 . S
C308 C307 1.387 1_545 S
C308 C311 1.390 . S
H309 C305 0.950 . S
H310 C307 0.953 . S
C311 C302 1.384 1_546 S
C311 H304 0.954 1_556 S
C311 C308 1.390 . S
C312 C313 1.387 1_554 S
C312 H316 0.950 . S
C312 C321 1.390 1_554 S
C313 C312 1.387 1_556 S
C313 C315 1.387 . S
H314 C321 0.950 1_554 S
C315 C313 1.387 . S
C315 C317 1.390 . S
C315 H319 0.950 . S
H316 C312 0.950 . S
C317 C315 1.390 . S
C317 C318 1.387 . S
C317 H320 0.950 . S
C318 C317 1.387 . S
C318 C321 1.387 . S
H319 C315 0.950 . S
H320 C317 0.950 . S
C321 C312 1.390 1_556 S
C321 H314 0.950 1_556 S
C321 C318 1.387 . S
C322 C323 1.387 1_554 S
C322 H326 0.950 . S
C322 C331 1.390 1_554 S
C323 C322 1.387 1_556 S
C323 C325 1.387 . S
H324 C331 0.950 1_554 S
C325 C323 1.387 . S
C325 C327 1.390 . S
C325 H329 0.950 . S
H326 C322 0.950 . S
C327 C325 1.390 . S
C327 C328 1.387 . S
C327 H330 0.950 . S
C328 C327 1.387 . S
C328 C331 1.387 . S
H329 C325 0.950 . S
H330 C327 0.950 . S
C331 C322 1.390 1_556 S
C331 H324 0.950 1_556 S
C331 C328 1.387 . S
C332 C333 1.387 . S
C332 H336 0.950 . S
C332 C341 1.390 . S
C333 C332 1.387 . S
C333 C335 1.387 . S
H334 C341 0.950 1_556 S
C335 C333 1.387 . S
C335 C337 1.390 1_554 S
C335 H339 0.950 1_455 S
H336 C332 0.950 . S
C337 C335 1.390 1_556 S
C337 C338 1.387 . S
C337 H340 0.950 1_455 S
C338 C337 1.387 . S
C338 C341 1.387 1_556 S
H339 C335 0.950 1_655 S
H340 C337 0.950 1_655 S
C341 C332 1.390 . S
C341 H334 0.950 1_554 S
C341 C338 1.387 1_554 S
C342 C343 1.387 . S
C342 H346 0.950 1_545 S
C342 C351 1.390 . S
C343 C342 1.387 . S
C343 C345 1.387 . S
H344 C351 0.950 1_566 S
C345 C343 1.387 . S
C345 C347 1.390 1_554 S
C345 H349 0.950 . S
H346 C342 0.950 1_565 S
C347 C345 1.390 1_556 S
C347 C348 1.387 . S
C347 H350 0.950 . S
C348 C347 1.387 . S
C348 C351 1.387 1_556 S
H349 C345 0.950 . S
H350 C347 0.950 . S
C351 C342 1.390 . S
C351 H344 0.950 1_544 S
C351 C348 1.387 1_554 S
C352 C353 1.387 . S
C352 H356 0.950 . S
C352 C361 1.390 1_554 S
C353 C352 1.387 . S
C353 C355 1.387 . S
H354 C361 0.950 . S
C355 C353 1.387 . S
C355 C357 1.390 . S
C355 H359 0.950 . S
H356 C352 0.950 . S
C357 C355 1.390 . S
C357 C358 1.387 1_554 S
C357 H360 0.950 . S
C358 C357 1.387 1_556 S
C358 C361 1.387 . S
H359 C355 0.950 . S
H360 C357 0.950 . S
C361 C352 1.390 1_556 S
C361 H354 0.950 . S
C361 C358 1.387 . S
C362 C363 1.387 . S
C362 H366 0.950 . S
C362 C371 1.390 . S
C363 C362 1.387 . S
C363 C365 1.387 . S
H364 C371 0.950 . S
C365 C363 1.387 . S
C365 C367 1.390 1_554 S
C365 H369 0.950 . S
H366 C362 0.950 . S
C367 C365 1.390 1_556 S
C367 C368 1.387 . S
C367 H370 0.950 . S
C368 C367 1.387 . S
C368 C371 1.387 1_556 S
H369 C365 0.950 . S
H370 C367 0.950 . S
C371 C362 1.390 . S
C371 H364 0.950 . S
C371 C368 1.387 1_554 S
C372 C373 1.387 . S
C372 H376 0.950 . S
C372 C381 1.390 . S
C373 C372 1.387 . S
C373 C375 1.387 1_655 S
H374 C381 0.950 . S
C375 C373 1.387 1_455 S
C375 C377 1.390 . S
C375 H379 0.950 . S
H376 C372 0.950 . S
C377 C375 1.390 . S
C377 C378 1.387 1_455 S
C377 H380 0.950 . S
C378 C377 1.387 1_655 S
C378 C381 1.387 . S
H379 C375 0.950 . S
H380 C377 0.950 . S
C381 C372 1.390 . S
C381 H374 0.950 . S
C381 C378 1.387 . S
C382 C383 1.387 . S
C382 H386 0.950 . S
C382 C391 1.390 . S
C383 C382 1.387 . S
C383 C385 1.387 1_565 S
H384 C391 0.950 . S
C385 C383 1.387 1_545 S
C385 C387 1.390 . S
C385 H389 0.950 . S
H386 C382 0.950 . S
C387 C385 1.390 . S
C387 C388 1.387 1_545 S
C387 H390 0.950 . S
C388 C387 1.387 1_565 S
C388 C391 1.387 . S
H389 C385 0.950 . S
H390 C387 0.950 . S
C391 C382 1.390 . S
C391 H384 0.950 . S
C391 C388 1.387 . S
C392 C393 1.387 . S
C392 H396 0.950 . S
C392 C401 1.390 . S
C393 C392 1.387 . S
C393 C395 1.387 . S
H394 C401 0.950 . S
C395 C393 1.387 . S
C395 C397 1.390 . S
C395 H399 0.950 . S
H396 C392 0.950 . S
C397 C395 1.390 . S
C397 C398 1.387 . S
C397 H400 0.950 . S
C398 C397 1.387 . S
C398 C401 1.387 . S
H399 C395 0.950 . S
H400 C397 0.950 . S
C401 C392 1.390 . S
C401 H394 0.950 . S
C401 C398 1.387 . S
C402 C403 1.387 . S
C402 H406 0.950 . S
C402 C411 1.390 . S
C403 C402 1.387 . S
C403 C405 1.387 . S
H404 C411 0.950 . S
C405 C403 1.387 . S
C405 C407 1.390 . S
C405 H409 0.950 . S
H406 C402 0.950 . S
C407 C405 1.390 . S
C407 C408 1.387 . S
C407 H410 0.950 . S
C408 C407 1.387 . S
C408 C411 1.387 . S
H409 C405 0.950 . S
H410 C407 0.950 . S
C411 C402 1.390 . S
C411 H404 0.950 . S
C411 C408 1.387 . S
C173 C76 1.591 . S
C178 C103 1.483 1_545 S
C188 C127 1.487 . S
C183 C87 1.592 . S
C198 C148 1.483 . S
C193 C54 1.591 . S
C208 C166 1.485 1_455 S
C203 C65 1.591 . S
C218 C106 1.385 1_565 S
C213 C32 1.507 1_556 S
C223 C43 1.507 1_556 S
C228 C124 1.388 . S
C233 C10 1.505 1_556 S
C238 C145 1.386 . S
C243 C21 1.506 1_556 S
C248 C169 1.388 1_655 S
C258 C104 0.936 1_455 S
C253 C60 0.921 . S
C268 C122 0.924 1_545 S
C263 C71 0.917 . S
C278 C143 0.933 . S
C273 C82 0.915 . S
C283 C49 0.921 . S
C288 C167 0.936 . S
C293 C16 0.979 1_556 S
C298 C102 1.021 . S
C308 C126 1.019 . S
C303 C27 0.982 1_556 S
C318 C147 1.020 . S
C313 C38 0.983 1_556 S
C323 C5 0.982 1_556 S
C328 C165 1.019 . S
C333 C59 1.589 . S
C338 C105 1.554 . S
C343 C70 1.585 . S
C348 C123 1.552 . S
C358 C144 1.555 . S
C353 C81 1.588 . S
C368 C168 1.552 . S
C363 C48 1.585 . S
C373 C15 1.460 . S
C378 C101 1.432 . S
C388 C125 1.431 . S
C383 C26 1.460 . S
C398 C146 1.434 . S
C393 C37 1.461 . S
C403 C4 1.460 . S
C408 C164 1.431 . S
