# Generated by pormake.
# Topology pyr, (3,6)-cn, num edge types: 1
# Building blocks:
#     Node 0, Type 0, BuildingBlock: BETDAH_clean_linker_0, # of connection points: 3
#     Node 1, Type 0, BuildingBlock: BETDAH_clean_linker_0, # of connection points: 3
#     Node 2, Type 0, BuildingBlock: BETDAH_clean_linker_0, # of connection points: 3
#     Node 3, Type 0, BuildingBlock: BETDAH_clean_linker_0, # of connection points: 3
#     Node 4, Type 0, BuildingBlock: BETDAH_clean_linker_0, # of connection points: 3
#     Node 5, Type 0, BuildingBlock: BETDAH_clean_linker_0, # of connection points: 3
#     Node 6, Type 0, BuildingBlock: BETDAH_clean_linker_0, # of connection points: 3
#     Node 7, Type 0, BuildingBlock: BETDAH_clean_linker_0, # of connection points: 3
#     Node 8, Type 1, BuildingBlock: MIDCAF_clean_sbu_0, # of connection points: 6
#     Node 9, Type 1, BuildingBlock: MIDCAF_clean_sbu_0, # of connection points: 6
#     Node 10, Type 1, BuildingBlock: MIDCAF_clean_sbu_0, # of connection points: 6
#     Node 11, Type 1, BuildingBlock: MIDCAF_clean_sbu_0, # of connection points: 6
#     Edge 12, Type (0, 1), BuildingBlock: XIVTED_clean_linker_0, # of connection points: 2
#     Edge 13, Type (0, 1), BuildingBlock: XIVTED_clean_linker_0, # of connection points: 2
#     Edge 14, Type (0, 1), BuildingBlock: XIVTED_clean_linker_0, # of connection points: 2
#     Edge 15, Type (0, 1), BuildingBlock: XIVTED_clean_linker_0, # of connection points: 2
#     Edge 16, Type (0, 1), BuildingBlock: XIVTED_clean_linker_0, # of connection points: 2
#     Edge 17, Type (0, 1), BuildingBlock: XIVTED_clean_linker_0, # of connection points: 2
#     Edge 18, Type (0, 1), BuildingBlock: XIVTED_clean_linker_0, # of connection points: 2
#     Edge 19, Type (0, 1), BuildingBlock: XIVTED_clean_linker_0, # of connection points: 2
#     Edge 20, Type (0, 1), BuildingBlock: XIVTED_clean_linker_0, # of connection points: 2
#     Edge 21, Type (0, 1), BuildingBlock: XIVTED_clean_linker_0, # of connection points: 2
#     Edge 22, Type (0, 1), BuildingBlock: XIVTED_clean_linker_0, # of connection points: 2
#     Edge 23, Type (0, 1), BuildingBlock: XIVTED_clean_linker_0, # of connection points: 2
#     Edge 24, Type (0, 1), BuildingBlock: XIVTED_clean_linker_0, # of connection points: 2
#     Edge 25, Type (0, 1), BuildingBlock: XIVTED_clean_linker_0, # of connection points: 2
#     Edge 26, Type (0, 1), BuildingBlock: XIVTED_clean_linker_0, # of connection points: 2
#     Edge 27, Type (0, 1), BuildingBlock: XIVTED_clean_linker_0, # of connection points: 2
#     Edge 28, Type (0, 1), BuildingBlock: XIVTED_clean_linker_0, # of connection points: 2
#     Edge 29, Type (0, 1), BuildingBlock: XIVTED_clean_linker_0, # of connection points: 2
#     Edge 30, Type (0, 1), BuildingBlock: XIVTED_clean_linker_0, # of connection points: 2
#     Edge 31, Type (0, 1), BuildingBlock: XIVTED_clean_linker_0, # of connection points: 2
#     Edge 32, Type (0, 1), BuildingBlock: XIVTED_clean_linker_0, # of connection points: 2
#     Edge 33, Type (0, 1), BuildingBlock: XIVTED_clean_linker_0, # of connection points: 2
#     Edge 34, Type (0, 1), BuildingBlock: XIVTED_clean_linker_0, # of connection points: 2
#     Edge 35, Type (0, 1), BuildingBlock: XIVTED_clean_linker_0, # of connection points: 2
# Relax obj value: 0.085
# Max RMSD: 0.180
# Mean RMSD: 0.134
data_MOF--net-pyr--node1-MIDCAF_clean_sbu_0--node2-BETDAH_clean_linker_0--edge1-XIVTED_clean_linker_0
_symmetry_space_group_name_H-M    P1
_symmetry_Int_Tables_number       1
_symmetry_cell_setting            triclinic
loop_
_symmetry_equiv_pos_as_xyz
'x, y, z'
_cell_length_a     34.497307
_cell_length_b     35.073335
_cell_length_c     36.532165
_cell_angle_alpha  90.582065
_cell_angle_beta   90.837935
_cell_angle_gamma 96.946461
loop_
_atom_site_label
_atom_site_type_symbol
_atom_site_fract_x
_atom_site_fract_y
_atom_site_fract_z
_atom_type_partial_charge
H0 H 0.28881 0.19914 0.28432 0.0
H1 H 0.27716 0.25196 0.17986 0.0
H2 H 0.18234 0.24539 0.25455 0.0
C3 C 0.27174 0.21384 0.26515 0.0
C4 C 0.23323 0.22014 0.27391 0.0
C5 C 0.28803 0.22485 0.23127 0.0
C6 C 0.26611 0.24472 0.20684 0.0
C7 C 0.22887 0.2536 0.21579 0.0
C8 C 0.21235 0.2412 0.24926 0.0
N9 N 0.20603 0.26815 0.18779 0.0
C10 C 0.18928 0.30224 0.19005 0.0
H11 H 0.37473 0.79379 0.81906 0.0
H12 H 0.28107 0.86193 0.83806 0.0
H13 H 0.27279 0.78274 0.74784 0.0
C14 C 0.34657 0.80217 0.81138 0.0
C15 C 0.32608 0.78458 0.78057 0.0
C16 C 0.33077 0.83008 0.8327 0.0
C17 C 0.29404 0.84043 0.82248 0.0
C18 C 0.27367 0.82412 0.7917 0.0
C19 C 0.28968 0.79638 0.77064 0.0
N20 N 0.2353 0.8333 0.78499 0.0
C21 C 0.22185 0.84532 0.75147 0.0
H22 H 0.79311 0.29225 0.88698 0.0
H23 H 0.7738 0.354 0.78838 0.0
H24 H 0.70978 0.24323 0.80532 0.0
C25 C 0.77831 0.29374 0.86076 0.0
C26 C 0.74991 0.26362 0.84943 0.0
C27 C 0.7871 0.32643 0.839 0.0
C28 C 0.76725 0.32895 0.80534 0.0
C29 C 0.74013 0.29822 0.79298 0.0
C30 C 0.73189 0.26586 0.81487 0.0
N31 N 0.72147 0.29819 0.75815 0.0
C32 C 0.70637 0.32974 0.74339 0.0
H33 H 0.73334 0.78351 0.38414 0.0
H34 H 0.79839 0.7899 0.28401 0.0
H35 H 0.69035 0.71586 0.29013 0.0
C36 C 0.73671 0.77475 0.356 0.0
C37 C 0.70848 0.74696 0.34006 0.0
C38 C 0.76934 0.79088 0.33618 0.0
C39 C 0.77327 0.77859 0.29965 0.0
C40 C 0.74453 0.75184 0.28303 0.0
C41 C 0.71228 0.73649 0.30322 0.0
N42 N 0.74672 0.74013 0.24587 0.0
C43 C 0.7814 0.73933 0.2271 0.0
H44 H 0.97959 0.87778 0.86767 0.0
H45 H 0.91643 0.92706 0.9539 0.0
H46 H 0.95339 0.99436 0.86056 0.0
C47 C 0.96578 0.90148 0.87872 0.0
C48 C 0.96844 0.93635 0.85974 0.0
C49 C 0.94769 0.89809 0.91314 0.0
C50 C 0.93023 0.92931 0.92743 0.0
C51 C 0.93201 0.96389 0.90806 0.0
C52 C 0.95171 0.96731 0.87492 0.0
N53 N 0.91667 0.9968 0.92195 0.0
C54 C 0.88272 0.99609 0.94207 0.0
H55 H 0.6667 0.09545 0.38904 0.0
H56 H 0.7154 0.16256 0.48126 0.0
H57 H 0.62168 0.20115 0.41814 0.0
C58 C 0.6671 0.12049 0.40678 0.0
C59 C 0.64073 0.14746 0.40021 0.0
C60 C 0.69391 0.12555 0.43609 0.0
C61 C 0.69442 0.15807 0.45877 0.0
C62 C 0.66866 0.18533 0.45277 0.0
C63 C 0.64166 0.18015 0.42322 0.0
N64 N 0.67212 0.21772 0.47677 0.0
C65 C 0.64541 0.24405 0.48096 0.0
H66 H 0.35598 0.68493 0.1182 0.0
H67 H 0.3963 0.59891 0.18768 0.0
H68 H 0.47861 0.6873 0.14322 0.0
C69 C 0.37968 0.67313 0.13221 0.0
C70 C 0.41821 0.69033 0.12799 0.0
C71 C 0.37163 0.6399 0.15332 0.0
C72 C 0.40234 0.62446 0.17129 0.0
C73 C 0.44096 0.64188 0.16759 0.0
C74 C 0.4487 0.67401 0.1454 0.0
N75 N 0.47267 0.62782 0.18589 0.0
C76 C 0.47063 0.6161 0.22202 0.0
H77 H 0.15335 0.40593 0.5828 0.0
H78 H 0.10059 0.46561 0.66875 0.0
H79 H 0.03607 0.36714 0.61601 0.0
C80 C 0.12842 0.40907 0.59984 0.0
C81 C 0.09454 0.38271 0.59615 0.0
C82 C 0.1306 0.43916 0.6258 0.0
C83 C 0.09876 0.44252 0.64865 0.0
C84 C 0.06434 0.41671 0.64466 0.0
C85 C 0.06236 0.38741 0.61818 0.0
N86 N 0.03128 0.41904 0.66692 0.0
C87 C 0.03287 0.43828 0.70042 0.0
Zn88 Zn 0.98433 0.06712 0.56523 0.0
Zn89 Zn 0.06053 0.98263 0.47964 0.0
Zn90 Zn 0.02224 0.02788 0.52178 0.0
C91 C 0.09028 0.06003 0.4657 0.0
C92 C 0.98165 0.96838 0.45932 0.0
O93 O 0.03061 0.00996 0.58013 0.0
O94 O 0.00302 0.05197 0.61338 0.0
C95 C 0.03176 0.12026 0.5247 0.0
O96 O 0.06424 0.06699 0.48905 0.0
O97 O 0.09506 0.02574 0.45787 0.0
O98 O 0.01447 0.9591 0.45028 0.0
O99 O 0.97924 0.99309 0.48533 0.0
O100 O 0.00402 0.1184 0.54696 0.0
O101 O 0.04433 0.08935 0.5128 0.0
O102 O 0.95887 0.01853 0.50567 0.0
O103 O 0.93051 0.04694 0.5505 0.0
C104 C 0.92778 0.02775 0.521 0.0
O105 O 0.05492 0.99069 0.55723 0.0
O106 O 0.08244 0.95262 0.51941 0.0
C107 C 0.02158 0.0232 0.61161 0.0
C108 C 0.07644 0.96355 0.55167 0.0
Zn109 Zn 0.50414 0.08142 0.02808 0.0
Zn110 Zn 0.58389 1.0014 0.11758 0.0
Zn111 Zn 0.54495 0.04169 0.07366 0.0
C112 C 0.63901 0.03664 0.07116 0.0
C113 C 0.53105 0.9492 0.07967 0.0
O114 O 0.51498 0.08259 0.10735 0.0
O115 O 0.48635 0.11608 0.0661 0.0
C116 C 0.58292 0.09277 0.00737 0.0
O117 O 0.60769 0.0478 0.05727 0.0
O118 O 0.63731 0.01768 0.10037 0.0
O119 O 0.55977 0.94984 0.10153 0.0
O120 O 0.52053 0.98072 0.06734 0.0
O121 O 0.54948 0.10007 0.99719 0.0
O122 O 0.587 0.07209 0.03579 0.0
O123 O 0.50141 1.00146 0.04164 0.0
O124 O 0.4666 0.03801 0.00868 0.0
C125 C 0.47369 0.00503 0.01826 0.0
O126 O 0.53899 0.06356 0.13098 0.0
O127 O 0.56774 0.02253 0.16445 0.0
C128 C 0.49386 0.10939 0.0992 0.0
C129 C 0.54943 0.05149 0.16248 0.0
Zn130 Zn 0.53911 0.59471 0.60447 0.0
Zn131 Zn 0.43603 0.49149 0.5411 0.0
Zn132 Zn 0.48687 0.54455 0.56934 0.0
C133 C 0.49383 0.45142 0.564 0.0
C134 C 0.4652 0.53988 0.48403 0.0
O135 O 0.45547 0.57727 0.61032 0.0
O136 O 0.50255 0.61508 0.63907 0.0
C137 C 0.56149 0.5221 0.61695 0.0
O138 O 0.50771 0.48624 0.57292 0.0
O139 O 0.45951 0.44445 0.5513 0.0
O140 O 0.44167 0.51032 0.49033 0.0
O141 O 0.48529 0.55764 0.51039 0.0
O142 O 0.57323 0.55712 0.62315 0.0
O143 O 0.53021 0.51248 0.59752 0.0
O144 O 0.51456 0.5839 0.52746 0.0
O145 O 0.55492 0.62523 0.56028 0.0
C146 C 0.54036 0.61371 0.52961 0.0
O147 O 0.42835 0.54921 0.59375 0.0
O148 O 0.3895 0.50131 0.56777 0.0
C149 C 0.46672 0.60317 0.6349 0.0
C150 C 0.39443 0.52956 0.5896 0.0
Zn151 Zn 0.07871 0.61234 1.00187 0.0
Zn152 Zn 0.96798 0.52834 0.07133 0.0
Zn153 Zn 0.02127 0.56887 0.03367 0.0
C154 C 0.03768 0.50426 0.09433 0.0
C155 C 0.95411 0.50997 0.99682 0.0
O156 O 0.00672 0.6294 0.03318 0.0
O157 O 0.05586 0.6616 0.00391 0.0
C158 C 0.11293 0.57963 0.05997 0.0
O159 O 0.05021 0.53321 0.07428 0.0
O160 O 1.00143 0.49407 0.0966 0.0
O161 O 0.93663 0.50859 0.02703 0.0
O162 O 0.9883 0.52894 0.99415 0.0
O163 O 0.12168 0.60442 0.03578 0.0
O164 O 0.07771 0.56274 0.06234 0.0
O165 O 0.02022 0.54943 0.97579 0.0
O166 O 0.07423 0.58234 0.95529 0.0
C167 C 0.04496 0.55745 0.95007 0.0
O168 O 0.98447 0.60911 0.06009 0.0
O169 O 0.95183 0.57154 0.10031 0.0
C170 C 0.02319 0.66085 0.01918 0.0
C171 C 0.96142 0.60456 0.08757 0.0
H172 H 0.24405 0.14984 0.30161 0.0
H173 H 0.07073 0.13071 0.44338 0.0
H174 H 0.17678 0.24434 0.31983 0.0
H175 H 0.16369 0.05891 0.44126 0.0
H176 H 0.10742 0.17442 0.4001 0.0
H177 H 0.21293 0.11711 0.35306 0.0
C178 C 0.22329 0.1643 0.31679 0.0
C179 C 0.21392 0.20062 0.30641 0.0
C180 C 0.11998 0.14944 0.4097 0.0
C181 C 0.17641 0.16175 0.36559 0.0
C182 C 0.09924 0.12471 0.43466 0.0
C183 C 0.11412 0.09103 0.44584 0.0
C184 C 0.15554 0.14006 0.39582 0.0
C185 C 0.15086 0.08427 0.4331 0.0
C186 C 0.20512 0.1452 0.34625 0.0
C187 C 0.18508 0.21645 0.32662 0.0
N188 N 0.16997 0.10822 0.40864 0.0
N189 N 0.16718 0.19685 0.35513 0.0
H190 H 0.30024 0.85311 0.89753 0.0
H191 H 0.50278 0.94173 0.99032 0.0
H192 H 0.41044 0.84941 0.84367 0.0
H193 H 0.39598 0.99272 1.00191 0.0
H194 H 0.46825 0.89274 0.94879 0.0
H195 H 0.33463 0.88992 0.94769 0.0
C196 C 0.33162 0.85994 0.89605 0.0
C197 C 0.35217 0.8487 0.86553 0.0
C198 C 0.45234 0.9143 0.96099 0.0
C199 C 0.39188 0.88978 0.92406 0.0
C200 C 0.47185 0.94195 0.98492 0.0
C201 C 0.45209 0.97119 0.99954 0.0
C202 C 0.41272 0.91562 0.9523 0.0
C203 C 0.41222 0.97064 0.99117 0.0
C204 C 0.35122 0.8807 0.92498 0.0
C205 C 0.39315 0.85724 0.86639 0.0
N206 N 0.39384 0.94334 0.96813 0.0
N207 N 0.41161 0.87742 0.89505 0.0
H208 H 0.63055 0.32084 0.72408 0.0
H209 H 0.63897 0.52955 0.63507 0.0
H210 H 0.73501 0.40149 0.72185 0.0
H211 H 0.53456 0.44848 0.63706 0.0
H212 H 0.6749 0.48273 0.66563 0.0
H213 H 0.59501 0.36692 0.69149 0.0
C214 C 0.64584 0.34848 0.71679 0.0
C215 C 0.68547 0.35777 0.72561 0.0
C216 C 0.64421 0.475 0.65914 0.0
C217 C 0.64541 0.41042 0.68824 0.0
C218 C 0.62366 0.50172 0.64167 0.0
C219 C 0.58379 0.49271 0.63307 0.0
C220 C 0.62472 0.43902 0.66844 0.0
C221 C 0.56544 0.4563 0.64239 0.0
C222 C 0.62566 0.37469 0.69813 0.0
C223 C 0.70431 0.39358 0.71554 0.0
N224 N 0.58602 0.43082 0.65965 0.0
N225 N 0.68406 0.41872 0.69734 0.0
H226 H 0.78854 0.74374 0.15368 0.0
H227 H 0.96926 0.62372 0.15904 0.0
H228 H 0.84929 0.71813 0.25253 0.0
H229 H 0.91756 0.6574 0.05825 0.0
H230 H 0.93239 0.66725 0.19281 0.0
H231 H 0.84097 0.72123 0.11746 0.0
C232 C 0.81347 0.73413 0.16765 0.0
C233 C 0.81495 0.73264 0.20592 0.0
C234 C 0.92954 0.66587 0.16325 0.0
C235 C 0.87439 0.70633 0.16504 0.0
C236 C 0.95075 0.64114 0.14399 0.0
C237 C 0.94642 0.6372 0.10592 0.0
C238 C 0.9029 0.68613 0.14441 0.0
C239 C 0.92194 0.66007 0.0876 0.0
C240 C 0.84329 0.72122 0.14705 0.0
C241 C 0.84735 0.7197 0.22297 0.0
N242 N 0.90046 0.68312 0.10712 0.0
N243 N 0.87563 0.70662 0.2024 0.0
H244 H 0.34643 0.26456 0.19121 0.0
H245 H 0.46533 0.0835 0.1656 0.0
H246 H 0.31609 0.15586 0.2443 0.0
H247 H 0.47699 0.183 0.09649 0.0
H248 H 0.42117 0.11507 0.20486 0.0
H249 H 0.40395 0.24007 0.16599 0.0
C250 C 0.35194 0.23565 0.19782 0.0
C251 C 0.32593 0.2122 0.21966 0.0
C252 C 0.43399 0.13024 0.18147 0.0
C253 C 0.3922 0.18397 0.19098 0.0
C254 C 0.45955 0.1124 0.15932 0.0
C255 C 0.47473 0.13062 0.12769 0.0
C256 C 0.42379 0.16656 0.17193 0.0
C257 C 0.46569 0.16781 0.12047 0.0
C258 C 0.38493 0.22172 0.18351 0.0
C259 C 0.33527 0.17519 0.22784 0.0
N260 N 0.44063 0.18438 0.14217 0.0
N261 N 0.36736 0.16213 0.21324 0.0
H262 H 0.19445 0.81009 0.68799 0.0
H263 H 0.10341 0.99689 0.61683 0.0
H264 H 0.2056 0.91805 0.74668 0.0
H265 H 0.09578 0.89047 0.55561 0.0
H266 H 0.13882 0.96784 0.66569 0.0
H267 H 0.15765 0.83857 0.63926 0.0
C268 C 0.18944 0.83992 0.69029 0.0
C269 C 0.20318 0.86203 0.72092 0.0
C270 C 0.12919 0.9507 0.6417 0.0
C271 C 0.1608 0.8946 0.66604 0.0
C272 C 0.10845 0.96715 0.61404 0.0
C273 C 0.09581 0.94581 0.58252 0.0
C274 C 0.1378 0.9127 0.63764 0.0
C275 C 0.10475 0.90788 0.57961 0.0
C276 C 0.16833 0.85614 0.66267 0.0
C277 C 0.19565 0.90031 0.72314 0.0
N278 N 0.12514 0.89254 0.60677 0.0
N279 N 0.1749 0.91541 0.69611 0.0
H280 H 0.77783 0.40242 0.84654 0.0
H281 H 0.98306 0.45834 0.95118 0.0
H282 H 0.8617 0.32234 0.86329 0.0
H283 H 0.88028 0.5133 0.97198 0.0
H284 H 0.94588 0.41725 0.9045 0.0
H285 H 0.82263 0.45241 0.878 0.0
C286 C 0.80602 0.39564 0.85618 0.0
C287 C 0.81604 0.35823 0.8527 0.0
C288 C 0.93172 0.43872 0.91895 0.0
C289 C 0.86722 0.41497 0.88849 0.0
C290 C 0.9529 0.46218 0.94534 0.0
C291 C 0.93453 0.48907 0.96522 0.0
C292 C 0.8921 0.44253 0.91242 0.0
C293 C 0.89535 0.49279 0.95712 0.0
C294 C 0.83142 0.42402 0.87427 0.0
C295 C 0.8528 0.35079 0.86585 0.0
N296 N 0.87538 0.46973 0.93137 0.0
N297 N 0.87702 0.37886 0.88334 0.0
H298 H 0.67876 0.67064 0.33987 0.0
H299 H 0.55764 0.69057 0.52154 0.0
H300 H 0.66459 0.77915 0.39166 0.0
H301 H 0.55887 0.58306 0.46367 0.0
H302 H 0.59201 0.72395 0.47098 0.0
H303 H 0.63038 0.63857 0.38113 0.0
C304 C 0.66507 0.68786 0.35952 0.0
C305 C 0.67618 0.7277 0.36248 0.0
C306 C 0.58431 0.69314 0.46893 0.0
C307 C 0.62113 0.69093 0.41029 0.0
C308 C 0.56464 0.67411 0.49779 0.0
C309 C 0.55528 0.6341 0.49659 0.0
C310 C 0.5955 0.67194 0.43887 0.0
C311 C 0.56519 0.61403 0.46538 0.0
C312 C 0.63756 0.66945 0.38322 0.0
C313 C 0.65767 0.74832 0.38883 0.0
N314 N 0.58519 0.63312 0.43787 0.0
N315 N 0.6314 0.72968 0.41186 0.0
H316 H 0.12275 0.32293 0.21923 0.0
H317 H 0.11202 0.49221 0.07519 0.0
H318 H 0.21491 0.35923 0.14444 0.0
H319 H 0.02418 0.4615 0.15585 0.0
H320 H 0.15314 0.44818 0.10379 0.0
H321 H 0.08882 0.37736 0.20016 0.0
C322 C 0.1361 0.34288 0.1993 0.0
C323 C 0.17163 0.33702 0.1835 0.0
C324 C 0.12512 0.45149 0.11561 0.0
C325 C 0.13288 0.39867 0.16089 0.0
C326 C 0.10191 0.4771 0.09956 0.0
C327 C 0.06493 0.48112 0.11348 0.0
C328 C 0.11102 0.42927 0.14556 0.0
C329 C 0.05251 0.45936 0.14418 0.0
C330 C 0.11673 0.37382 0.18825 0.0
C331 C 0.1876 0.36314 0.1574 0.0
N332 N 0.07532 0.43428 0.15899 0.0
N333 N 0.16799 0.39267 0.14667 0.0
H334 H 0.72607 0.18755 0.83204 0.0
H335 H 0.65251 0.13022 0.03284 0.0
H336 H 0.74298 0.26602 0.92446 0.0
H337 H 0.58959 0.09226 0.93369 0.0
H338 H 0.70316 0.16645 0.99559 0.0
H339 H 0.69323 0.13889 0.87214 0.0
C340 C 0.7233 0.19457 0.86074 0.0
C341 C 0.7366 0.23148 0.87453 0.0
C342 C 0.67859 0.14952 0.98213 0.0
C343 C 0.70011 0.1753 0.9207 0.0
C344 C 0.64992 0.12884 0.00325 0.0
C345 C 0.61686 0.10874 0.98612 0.0
C346 C 0.6743 0.14921 0.94381 0.0
C347 C 0.61456 0.1078 0.9478 0.0
C348 C 0.70482 0.16662 0.88361 0.0
C349 C 0.73335 0.23814 0.91238 0.0
N350 N 0.64283 0.12788 0.92789 0.0
N351 N 0.71508 0.21046 0.93407 0.0
H352 H 0.81296 0.8527 0.30423 0.0
H353 H 0.9116 0.94168 0.4896 0.0
H354 H 0.79407 0.79696 0.4086 0.0
H355 H 0.97222 0.94964 0.38708 0.0
H356 H 0.85704 0.90119 0.45921 0.0
H357 H 0.8619 0.89989 0.33361 0.0
C358 C 0.819 0.8501 0.33319 0.0
C359 C 0.79908 0.82036 0.35373 0.0
C360 C 0.88214 0.91227 0.44337 0.0
C361 C 0.85411 0.87552 0.38769 0.0
C362 C 0.91299 0.93562 0.46056 0.0
C363 C 0.9463 0.94895 0.44073 0.0
C364 C 0.88448 0.90287 0.40605 0.0
C365 C 0.94703 0.93975 0.40329 0.0
C366 C 0.84671 0.87737 0.34995 0.0
C367 C 0.80778 0.81955 0.39151 0.0
N368 N 0.91655 0.91731 0.38711 0.0
N369 N 0.83446 0.84676 0.40724 0.0
H370 H 0.36741 0.72822 0.80743 0.0
H371 H 0.39566 0.62525 0.61449 0.0
H372 H 0.3209 0.76793 0.7062 0.0
H373 H 0.47502 0.62377 0.70655 0.0
H374 H 0.35648 0.66599 0.65055 0.0
H375 H 0.39623 0.6791 0.77313 0.0
C376 C 0.36337 0.72693 0.77798 0.0
C377 C 0.34218 0.75308 0.75979 0.0
C378 C 0.38217 0.65622 0.66293 0.0
C379 C 0.37435 0.69556 0.72032 0.0
C380 C 0.40422 0.63265 0.64256 0.0
C381 C 0.43855 0.62114 0.65764 0.0
C382 C 0.39434 0.6677 0.69872 0.0
C383 C 0.44879 0.63211 0.69388 0.0
C384 C 0.3796 0.6985 0.75845 0.0
C385 C 0.33686 0.74855 0.72159 0.0
N386 N 0.42688 0.65475 0.71311 0.0
N387 N 0.35295 0.7205 0.70313 0.0
H388 H 0.02467 0.99403 0.84177 0.0
H389 H 0.00925 0.9463 0.62714 0.0
H390 H 0.95887 0.89127 0.7973 0.0
H391 H 0.04961 0.057 0.67505 0.0
H392 H 0.00647 0.91852 0.68891 0.0
H393 H 0.04985 0.00961 0.78098 0.0
C394 C 0.01594 0.97447 0.81918 0.0
C395 C 0.9891 0.9417 0.8244 0.0
C396 C 0.01676 0.9487 0.68575 0.0
C397 C 0.01754 0.95953 0.75444 0.0
C398 C 0.01866 0.96443 0.65057 0.0
C399 C 0.02945 0.00398 0.64622 0.0
C400 C 0.02599 0.97277 0.71649 0.0
C401 C 0.04094 0.0264 0.67735 0.0
C402 C 0.03031 0.98336 0.78445 0.0
C403 C 0.97933 0.91696 0.79433 0.0
N404 N 0.0386 0.01058 0.7111 0.0
N405 N 0.99302 0.92671 0.76041 0.0
H406 H 0.58628 0.0858 0.38861 0.0
H407 H 0.56278 0.12918 0.1763 0.0
H408 H 0.63297 0.1928 0.34028 0.0
H409 H 0.52638 0.02084 0.22737 0.0
H410 H 0.57381 0.15914 0.23743 0.0
H411 H 0.54978 0.06807 0.332 0.0
C412 C 0.58819 0.10586 0.36616 0.0
C413 C 0.61283 0.14061 0.3689 0.0
C414 C 0.56242 0.12904 0.23522 0.0
C415 C 0.57192 0.12018 0.30344 0.0
C416 C 0.55575 0.11207 0.20036 0.0
C417 C 0.54405 0.07245 0.19695 0.0
C418 C 0.55713 0.10609 0.26659 0.0
C419 C 0.53575 0.05143 0.22889 0.0
C420 C 0.56745 0.09574 0.33376 0.0
C421 C 0.61423 0.16571 0.33913 0.0
N422 N 0.54292 0.06835 0.26227 0.0
N423 N 0.59464 0.15471 0.30731 0.0
H424 H 0.48171 0.66498 0.27964 0.0
H425 H 0.46111 0.4939 0.42409 0.0
H426 H 0.46022 0.54498 0.25023 0.0
H427 H 0.47847 0.61327 0.45688 0.0
H428 H 0.46384 0.51279 0.36023 0.0
H429 H 0.48324 0.64753 0.34462 0.0
C430 C 0.47721 0.63495 0.28708 0.0
C431 C 0.47066 0.60622 0.26009 0.0
C432 C 0.46731 0.53499 0.38124 0.0
C433 C 0.47253 0.58608 0.33363 0.0
C434 C 0.46575 0.52421 0.41774 0.0
C435 C 0.46985 0.55211 0.44572 0.0
C436 C 0.47267 0.57409 0.37245 0.0
C437 C 0.47583 0.59092 0.43604 0.0
C438 C 0.47816 0.62502 0.324 0.0
C439 C 0.46519 0.56782 0.27056 0.0
N440 N 0.47695 0.60084 0.40007 0.0
N441 N 0.46622 0.55882 0.3066 0.0
H442 H 0.09723 0.46134 0.74104 0.0
H443 H 0.97798 0.53401 0.91002 0.0
H444 H 0.97171 0.45434 0.74081 0.0
H445 H 0.10321 0.53712 0.90818 0.0
H446 H 0.97387 0.50346 0.84896 0.0
H447 H 0.09937 0.48909 0.8029 0.0
C448 C 0.07016 0.46593 0.75414 0.0
C449 C 0.03431 0.45597 0.73619 0.0
C450 C 0.0022 0.51061 0.86206 0.0
C451 C 0.0362 0.48723 0.80677 0.0
C452 C 0.00446 0.52754 0.89704 0.0
C453 C 0.04087 0.53734 0.91432 0.0
C454 C 0.03673 0.50391 0.84431 0.0
C455 C 0.07451 0.52988 0.8958 0.0
C456 C 0.07128 0.48161 0.78942 0.0
C457 C 0.99991 0.46201 0.75405 0.0
N458 N 0.07162 0.51365 0.86188 0.0
N459 N 0.00165 0.47732 0.7885 0.0
H460 H 0.81217 0.9996 0.91052 0.0
H461 H 0.71239 0.04336 0.10058 0.0
H462 H 0.87325 0.00806 0.01448 0.0
H463 H 0.65037 0.03659 0.99696 0.0
H464 H 0.77268 0.03561 0.0687 0.0
H465 H 0.75319 0.01592 0.94091 0.0
C466 C 0.81286 0.00448 0.93988 0.0
C467 C 0.84708 0.002 0.96031 0.0
C468 C 0.74607 0.0364 0.05278 0.0
C469 C 0.7804 0.02139 0.99509 0.0
C470 C 0.71167 0.04111 0.07097 0.0
C471 C 0.67635 0.04087 0.05137 0.0
C472 C 0.74518 0.03089 0.01464 0.0
C473 C 0.67705 0.03761 0.01308 0.0
C474 C 0.77939 0.01409 0.95715 0.0
C475 C 0.84706 0.00922 0.99802 0.0
N476 N 0.71085 0.03231 0.99597 0.0
N477 N 0.81417 0.01854 0.01425 0.0
H478 H 0.74521 0.09811 0.38852 0.0
H479 H 0.85779 0.00929 0.553 0.0
H480 H 0.70676 0.08989 0.50019 0.0
H481 H 0.9098 0.03445 0.44812 0.0
H482 H 0.79453 0.02067 0.5276 0.0
H483 H 0.79795 0.05943 0.40416 0.0
C484 C 0.74743 0.08747 0.41611 0.0
C485 C 0.72202 0.09756 0.44328 0.0
C486 C 0.81951 0.02296 0.50979 0.0
C487 C 0.78187 0.05341 0.46127 0.0
C488 C 0.85557 0.0161 0.52423 0.0
C489 C 0.88906 0.02147 0.50273 0.0
C490 C 0.81698 0.03605 0.47374 0.0
C491 C 0.88461 0.03017 0.46561 0.0
C492 C 0.77753 0.06554 0.42504 0.0
C493 C 0.72613 0.08321 0.4786 0.0
N494 N 0.84933 0.03813 0.45243 0.0
N495 N 0.75562 0.06217 0.48662 0.0
H496 H 0.30687 0.66954 0.17696 0.0
H497 H 0.17276 0.53871 0.04617 0.0
H498 H 0.3448 0.56727 0.13031 0.0
H499 H 0.12483 0.60549 0.12996 0.0
H500 H 0.23412 0.54259 0.08121 0.0
H501 H 0.23889 0.64254 0.16564 0.0
C502 C 0.30069 0.64095 0.16515 0.0
C503 C 0.33119 0.62061 0.15428 0.0
C504 C 0.20985 0.55537 0.09263 0.0
C505 C 0.25387 0.58997 0.14036 0.0
C506 C 0.17486 0.55299 0.07269 0.0
C507 C 0.14393 0.57155 0.08554 0.0
C508 C 0.21434 0.57789 0.12479 0.0
C509 C 0.14808 0.59049 0.11952 0.0
C510 C 0.26197 0.62549 0.15876 0.0
C511 C 0.32192 0.58375 0.13903 0.0
N512 N 0.18308 0.59401 0.13764 0.0
N513 N 0.28403 0.56993 0.1317 0.0
H514 H 0.17916 0.45385 0.68548 0.0
H515 H 0.34057 0.57258 0.564 0.0
H516 H 0.16381 0.48595 0.57315 0.0
H517 H 0.36825 0.5044 0.65588 0.0
H518 H 0.2717 0.56313 0.58088 0.0
H519 H 0.24398 0.49207 0.68669 0.0
C520 C 0.18916 0.46968 0.6614 0.0
C521 C 0.16663 0.46652 0.629 0.0
C522 C 0.29299 0.55139 0.59817 0.0
C523 C 0.23987 0.51036 0.63031 0.0
C524 C 0.33232 0.55728 0.58886 0.0
C525 C 0.35986 0.53932 0.60873 0.0
C526 C 0.28127 0.52696 0.62725 0.0
C527 C 0.34773 0.51895 0.64015 0.0
C528 C 0.226 0.49137 0.66208 0.0
C529 C 0.18067 0.48739 0.59847 0.0
N530 N 0.30909 0.51259 0.64809 0.0
N531 N 0.2165 0.50822 0.59978 0.0
H532 H 0.97723 0.89448 0.9825 0.0
H533 H 0.95011 0.66497 0.99152 0.0
H534 H 0.92516 0.82269 0.89406 0.0
H535 H 0.05122 0.7348 0.03655 0.0
H536 H 0.92452 0.72361 0.97026 0.0
H537 H 0.9887 0.83657 0.01633 0.0
C538 C 0.96752 0.86649 0.97056 0.0
C539 C 0.95034 0.86326 0.93542 0.0
C540 C 0.9518 0.72604 0.98563 0.0
C541 C 0.96291 0.79716 0.97406 0.0
C542 C 0.96614 0.69274 0.99816 0.0
C543 C 0.00263 0.69523 0.01603 0.0
C544 C 0.97388 0.76197 0.99166 0.0
C545 C 0.02282 0.73179 0.02309 0.0
C546 C 0.9742 0.83357 0.98977 0.0
C547 C 0.93867 0.82633 0.921 0.0
N548 N 0.00825 0.76375 0.01081 0.0
N549 N 0.94515 0.79467 0.94038 0.0
H550 H 0.37838 0.7535 0.12818 0.0
H551 H 0.56132 0.8849 0.05932 0.0
H552 H 0.4778 0.70934 0.08031 0.0
H553 H 0.452 0.9286 0.07931 0.0
H554 H 0.52747 0.81976 0.05755 0.0
H555 H 0.39984 0.81629 0.10211 0.0
C556 C 0.40425 0.75676 0.1115 0.0
C557 C 0.42686 0.72636 0.10712 0.0
C558 C 0.51055 0.84349 0.06156 0.0
C559 C 0.45184 0.79824 0.07769 0.0
C560 C 0.52992 0.88065 0.06254 0.0
C561 C 0.50935 0.9118 0.06991 0.0
C562 C 0.47051 0.8374 0.06921 0.0
C563 C 0.46876 0.90508 0.07372 0.0
C564 C 0.41653 0.79267 0.09668 0.0
C565 C 0.46013 0.73229 0.08531 0.0
N566 N 0.45068 0.86838 0.07423 0.0
N567 N 0.47196 0.76767 0.07194 0.0
H568 H 0.15027 0.33391 0.58772 0.0
H569 H 0.99598 0.1763 0.49366 0.0
H570 H 0.03581 0.35356 0.54882 0.0
H571 H 0.10729 0.15205 0.53625 0.0
H572 H 0.01831 0.24492 0.4979 0.0
H573 H 0.14271 0.27193 0.55526 0.0
C574 C 0.12392 0.32558 0.57165 0.0
C575 C 0.09331 0.34862 0.57148 0.0
C576 C 0.03837 0.22477 0.5055 0.0
C577 C 0.08434 0.27763 0.53456 0.0
C578 C 0.02572 0.18559 0.50269 0.0
C579 C 0.04985 0.15877 0.51478 0.0
C580 C 0.07504 0.23721 0.52154 0.0
C581 C 0.08795 0.17204 0.52659 0.0
C582 C 0.11956 0.29011 0.55325 0.0
C583 C 0.05977 0.33632 0.55034 0.0
N584 N 0.09913 0.21048 0.53055 0.0
N585 N 0.056 0.30152 0.53316 0.0
H586 H 0.67044 0.31965 0.48406 0.0
H587 H 0.47153 0.37447 0.56881 0.0
H588 H 0.57146 0.23657 0.50638 0.0
H589 H 0.57277 0.45711 0.55268 0.0
H590 H 0.50923 0.32311 0.55035 0.0
H591 H 0.63599 0.37025 0.51076 0.0
C592 C 0.64112 0.3123 0.49414 0.0
C593 C 0.62327 0.2743 0.49255 0.0
C594 C 0.52347 0.35237 0.55134 0.0
C595 C 0.5841 0.33152 0.52388 0.0
C596 C 0.50202 0.3817 0.56218 0.0
C597 C 0.51902 0.42015 0.56225 0.0
C598 C 0.56215 0.36149 0.54 0.0
C599 C 0.55859 0.42786 0.55328 0.0
C600 C 0.62165 0.34103 0.50971 0.0
C601 C 0.58578 0.2658 0.50664 0.0
N602 N 0.57868 0.39884 0.54204 0.0
N603 N 0.56734 0.29424 0.52168 0.0
loop_
_geom_bond_atom_site_label_1
_geom_bond_atom_site_label_2
_geom_bond_distance
_geom_bond_site_symmetry_2
_ccdc_geom_bond_type
H0 C3 0.929 . S
H1 C6 0.929 . S
H2 C8 0.930 . S
C3 H0 0.929 . S
C3 C4 1.398 . S
C3 C5 1.396 . S
C4 C3 1.398 . S
C4 C8 1.407 . S
C5 C3 1.396 . S
C5 C6 1.394 . S
C6 H1 0.929 . S
C6 C5 1.394 . S
C6 C7 1.382 . S
C7 C6 1.382 . S
C7 C8 1.392 . S
C7 N9 1.420 . S
C8 H2 0.930 . S
C8 C4 1.407 . S
C8 C7 1.392 . S
N9 C7 1.420 . S
N9 C10 1.244 . S
C10 N9 1.244 . S
H11 C14 0.929 . S
H12 C17 0.929 . S
H13 C19 0.930 . S
C14 H11 0.929 . S
C14 C15 1.398 . S
C14 C16 1.396 . S
C15 C14 1.398 . S
C15 C19 1.407 . S
C16 C14 1.396 . S
C16 C17 1.394 . S
C17 H12 0.929 . S
C17 C16 1.394 . S
C17 C18 1.382 . S
C18 C17 1.382 . S
C18 C19 1.392 . S
C18 N20 1.420 . S
C19 H13 0.930 . S
C19 C15 1.407 . S
C19 C18 1.392 . S
N20 C18 1.420 . S
N20 C21 1.244 . S
C21 N20 1.244 . S
H22 C25 0.929 . S
H23 C28 0.929 . S
H24 C30 0.930 . S
C25 H22 0.929 . S
C25 C26 1.398 . S
C25 C27 1.396 . S
C26 C25 1.398 . S
C26 C30 1.407 . S
C27 C25 1.396 . S
C27 C28 1.394 . S
C28 H23 0.929 . S
C28 C27 1.394 . S
C28 C29 1.382 . S
C29 C28 1.382 . S
C29 C30 1.392 . S
C29 N31 1.420 . S
C30 H24 0.930 . S
C30 C26 1.407 . S
C30 C29 1.392 . S
N31 C29 1.420 . S
N31 C32 1.244 . S
C32 N31 1.244 . S
H33 C36 0.929 . S
H34 C39 0.929 . S
H35 C41 0.930 . S
C36 H33 0.929 . S
C36 C37 1.398 . S
C36 C38 1.396 . S
C37 C36 1.398 . S
C37 C41 1.407 . S
C38 C36 1.396 . S
C38 C39 1.394 . S
C39 H34 0.929 . S
C39 C38 1.394 . S
C39 C40 1.382 . S
C40 C39 1.382 . S
C40 C41 1.392 . S
C40 N42 1.420 . S
C41 H35 0.930 . S
C41 C37 1.407 . S
C41 C40 1.392 . S
N42 C40 1.420 . S
N42 C43 1.244 . S
C43 N42 1.244 . S
H44 C47 0.929 . S
H45 C50 0.929 . S
H46 C52 0.930 1_545 S
C47 H44 0.929 . S
C47 C48 1.398 . S
C47 C49 1.396 . S
C48 C47 1.398 . S
C48 C52 1.407 . S
C49 C47 1.396 . S
C49 C50 1.394 . S
C50 H45 0.929 . S
C50 C49 1.394 . S
C50 C51 1.382 . S
C51 C50 1.382 . S
C51 C52 1.392 . S
C51 N53 1.420 1_565 S
C52 H46 0.930 1_565 S
C52 C48 1.407 . S
C52 C51 1.392 . S
N53 C51 1.420 1_545 S
N53 C54 1.244 1_545 S
C54 N53 1.244 1_565 S
H55 C58 0.929 . S
H56 C61 0.929 . S
H57 C63 0.930 . S
C58 H55 0.929 . S
C58 C59 1.398 . S
C58 C60 1.396 . S
C59 C58 1.398 . S
C59 C63 1.407 . S
C60 C58 1.396 . S
C60 C61 1.394 . S
C61 H56 0.929 . S
C61 C60 1.394 . S
C61 C62 1.382 . S
C62 C61 1.382 . S
C62 C63 1.392 . S
C62 N64 1.420 . S
C63 H57 0.930 . S
C63 C59 1.407 . S
C63 C62 1.392 . S
N64 C62 1.420 . S
N64 C65 1.244 . S
C65 N64 1.244 . S
H66 C69 0.929 . S
H67 C72 0.929 . S
H68 C74 0.930 . S
C69 H66 0.929 . S
C69 C70 1.398 . S
C69 C71 1.396 . S
C70 C69 1.398 . S
C70 C74 1.407 . S
C71 C69 1.396 . S
C71 C72 1.394 . S
C72 H67 0.929 . S
C72 C71 1.394 . S
C72 C73 1.382 . S
C73 C72 1.382 . S
C73 C74 1.392 . S
C73 N75 1.420 . S
C74 H68 0.930 . S
C74 C70 1.407 . S
C74 C73 1.392 . S
N75 C73 1.420 . S
N75 C76 1.244 . S
C76 N75 1.244 . S
H77 C80 0.929 . S
H78 C83 0.929 . S
H79 C85 0.930 . S
C80 H77 0.929 . S
C80 C81 1.398 . S
C80 C82 1.396 . S
C81 C80 1.398 . S
C81 C85 1.407 . S
C82 C80 1.396 . S
C82 C83 1.394 . S
C83 H78 0.929 . S
C83 C82 1.394 . S
C83 C84 1.382 . S
C84 C83 1.382 . S
C84 C85 1.392 . S
C84 N86 1.420 . S
C85 H79 0.930 . S
C85 C81 1.407 . S
C85 C84 1.392 . S
N86 C84 1.420 . S
N86 C87 1.244 . S
C87 N86 1.244 . S
Zn88 O94 1.920 . S
Zn88 O100 1.898 . S
Zn88 O103 1.905 . S
Zn89 O97 1.905 1_565 S
Zn89 O98 1.898 . S
Zn89 O106 1.920 . S
Zn90 O93 2.080 1_455 S
Zn90 O96 2.114 . S
Zn90 O99 2.120 1_445 S
Zn90 O101 2.120 . S
Zn90 O102 2.114 1_455 S
Zn90 O105 2.080 . S
C91 O96 1.166 . S
C91 O97 1.182 . S
C92 O98 1.167 1_655 S
C92 O99 1.299 . S
O93 Zn90 2.080 1_655 S
O93 C107 1.305 . S
O94 Zn88 1.920 . S
O94 C107 1.234 . S
C95 O100 1.167 1_455 S
C95 O101 1.299 . S
O96 Zn90 2.114 . S
O96 C91 1.166 . S
O97 Zn89 1.905 1_545 S
O97 C91 1.182 . S
O98 Zn89 1.898 . S
O98 C92 1.167 1_455 S
O99 Zn90 2.120 1_665 S
O99 C92 1.299 . S
O100 Zn88 1.898 . S
O100 C95 1.167 1_655 S
O101 Zn90 2.120 . S
O101 C95 1.299 . S
O102 Zn90 2.114 1_655 S
O102 C104 1.166 . S
O103 Zn88 1.905 . S
O103 C104 1.182 . S
C104 O102 1.166 . S
C104 O103 1.182 . S
O105 Zn90 2.080 . S
O105 C108 1.305 1_545 S
O106 Zn89 1.920 . S
O106 C108 1.234 . S
C107 O93 1.305 . S
C107 O94 1.234 . S
C108 O105 1.305 1_565 S
C108 O106 1.234 . S
Zn109 O115 1.920 . S
Zn109 O121 1.894 1_554 S
Zn109 O124 1.905 1_554 S
Zn110 O118 1.905 . S
Zn110 O119 1.898 . S
Zn110 O127 1.920 . S
Zn111 O114 2.080 . S
Zn111 O117 2.116 . S
Zn111 O120 2.120 1_545 S
Zn111 O122 2.120 . S
Zn111 O123 2.114 . S
Zn111 O126 2.080 . S
C112 O117 1.165 1_565 S
C112 O118 1.186 . S
C113 O119 1.167 . S
C113 O120 1.299 . S
O114 Zn111 2.080 . S
O114 C128 1.305 . S
O115 Zn109 1.920 . S
O115 C128 1.234 . S
C116 O121 1.154 1_554 S
C116 O122 1.299 . S
O117 Zn111 2.116 . S
O117 C112 1.165 1_545 S
O118 Zn110 1.905 . S
O118 C112 1.186 . S
O119 Zn110 1.898 . S
O119 C113 1.167 . S
O120 Zn111 2.120 1_565 S
O120 C113 1.299 . S
O121 Zn109 1.894 1_556 S
O121 C116 1.154 1_556 S
O122 Zn111 2.120 . S
O122 C116 1.299 . S
O123 Zn111 2.114 . S
O123 C125 1.167 1_544 S
O124 Zn109 1.905 1_556 S
O124 C125 1.174 1_545 S
C125 O123 1.167 1_566 S
C125 O124 1.174 1_565 S
O126 Zn111 2.080 . S
O126 C129 1.305 . S
O127 Zn110 1.920 . S
O127 C129 1.234 1_565 S
C128 O114 1.305 . S
C128 O115 1.234 . S
C129 O126 1.305 . S
C129 O127 1.234 1_545 S
Zn130 O136 1.920 . S
Zn130 O142 1.898 . S
Zn130 O145 1.905 . S
Zn131 O139 1.905 . S
Zn131 O140 1.898 . S
Zn131 O148 1.920 . S
Zn132 O135 2.080 . S
Zn132 O138 2.114 . S
Zn132 O141 2.120 . S
Zn132 O143 2.120 . S
Zn132 O144 2.114 . S
Zn132 O147 2.080 . S
C133 O138 1.166 . S
C133 O139 1.182 . S
C134 O140 1.167 . S
C134 O141 1.299 . S
O135 Zn132 2.080 . S
O135 C149 1.305 . S
O136 Zn130 1.920 . S
O136 C149 1.234 . S
C137 O142 1.167 . S
C137 O143 1.299 . S
O138 Zn132 2.114 . S
O138 C133 1.166 . S
O139 Zn131 1.905 . S
O139 C133 1.182 . S
O140 Zn131 1.898 . S
O140 C134 1.167 . S
O141 Zn132 2.120 . S
O141 C134 1.299 . S
O142 Zn130 1.898 . S
O142 C137 1.167 . S
O143 Zn132 2.120 . S
O143 C137 1.299 . S
O144 Zn132 2.114 . S
O144 C146 1.166 . S
O145 Zn130 1.905 . S
O145 C146 1.182 . S
C146 O144 1.166 . S
C146 O145 1.182 . S
O147 Zn132 2.080 . S
O147 C150 1.305 . S
O148 Zn131 1.920 . S
O148 C150 1.234 . S
C149 O135 1.305 . S
C149 O136 1.234 . S
C150 O147 1.305 . S
C150 O148 1.234 . S
Zn151 O157 1.920 . S
Zn151 O163 1.898 . S
Zn151 O166 1.905 . S
Zn152 O160 1.905 1_655 S
Zn152 O161 1.898 . S
Zn152 O169 1.920 . S
Zn153 O156 2.080 1_554 S
Zn153 O159 2.114 . S
Zn153 O162 2.120 1_454 S
Zn153 O164 2.120 . S
Zn153 O165 2.114 1_554 S
Zn153 O168 2.080 . S
C154 O159 1.166 . S
C154 O160 1.182 . S
C155 O161 1.167 1_556 S
C155 O162 1.299 . S
O156 Zn153 2.080 1_556 S
O156 C170 1.305 . S
O157 Zn151 1.920 . S
O157 C170 1.234 . S
C158 O163 1.167 1_554 S
C158 O164 1.299 . S
O159 Zn153 2.114 . S
O159 C154 1.166 . S
O160 Zn152 1.905 1_455 S
O160 C154 1.182 . S
O161 Zn152 1.898 . S
O161 C155 1.167 1_554 S
O162 Zn153 2.120 1_656 S
O162 C155 1.299 . S
O163 Zn151 1.898 . S
O163 C158 1.167 1_556 S
O164 Zn153 2.120 . S
O164 C158 1.299 . S
O165 Zn153 2.114 1_556 S
O165 C167 1.166 . S
O166 Zn151 1.905 . S
O166 C167 1.182 . S
C167 O165 1.166 . S
C167 O166 1.182 . S
O168 Zn153 2.080 . S
O168 C171 1.305 1_455 S
O169 Zn152 1.920 . S
O169 C171 1.234 . S
C170 O156 1.305 . S
C170 O157 1.234 . S
C171 O168 1.305 1_655 S
C171 O169 1.234 . S
H172 C178 0.930 . S
H173 C182 0.930 . S
H174 C187 0.929 . S
H175 C185 0.929 . S
H176 C180 0.929 . S
H177 C186 0.929 . S
C178 H172 0.930 . S
C178 C179 1.367 . S
C178 C186 1.378 . S
C179 C178 1.367 . S
C179 C187 1.433 . S
C180 H176 0.929 . S
C180 C182 1.378 . S
C180 C184 1.350 . S
C181 C184 1.463 . S
C181 C186 1.350 . S
C181 N189 1.427 . S
C182 H173 0.930 . S
C182 C180 1.378 . S
C182 C183 1.367 . S
C183 C182 1.367 . S
C183 C185 1.433 . S
C184 C180 1.350 . S
C184 C181 1.463 . S
C184 N188 1.427 . S
C185 H175 0.929 . S
C185 C183 1.433 . S
C185 N188 1.384 . S
C186 H177 0.929 . S
C186 C178 1.378 . S
C186 C181 1.350 . S
C187 H174 0.929 . S
C187 C179 1.433 . S
C187 N189 1.384 . S
N188 C184 1.427 . S
N188 C185 1.384 . S
N189 C181 1.427 . S
N189 C187 1.384 . S
H190 C196 0.930 . S
H191 C200 0.930 . S
H192 C205 0.929 . S
H193 C203 0.929 1_545 S
H194 C198 0.929 . S
H195 C204 0.929 . S
C196 H190 0.930 . S
C196 C197 1.367 . S
C196 C204 1.378 . S
C197 C196 1.367 . S
C197 C205 1.433 . S
C198 H194 0.929 . S
C198 C200 1.378 . S
C198 C202 1.350 . S
C199 C202 1.463 . S
C199 C204 1.350 . S
C199 N207 1.427 . S
C200 H191 0.930 . S
C200 C198 1.378 . S
C200 C201 1.367 . S
C201 C200 1.367 . S
C201 C203 1.433 . S
C202 C198 1.350 . S
C202 C199 1.463 . S
C202 N206 1.427 . S
C203 H193 0.929 1_565 S
C203 C201 1.433 . S
C203 N206 1.384 . S
C204 H195 0.929 . S
C204 C196 1.378 . S
C204 C199 1.350 . S
C205 H192 0.929 . S
C205 C197 1.433 . S
C205 N207 1.384 . S
N206 C202 1.427 . S
N206 C203 1.384 . S
N207 C199 1.427 . S
N207 C205 1.384 . S
H208 C214 0.930 . S
H209 C218 0.930 . S
H210 C223 0.929 . S
H211 C221 0.929 . S
H212 C216 0.929 . S
H213 C222 0.929 . S
C214 H208 0.930 . S
C214 C215 1.367 . S
C214 C222 1.378 . S
C215 C214 1.367 . S
C215 C223 1.433 . S
C216 H212 0.929 . S
C216 C218 1.378 . S
C216 C220 1.350 . S
C217 C220 1.463 . S
C217 C222 1.350 . S
C217 N225 1.427 . S
C218 H209 0.930 . S
C218 C216 1.378 . S
C218 C219 1.367 . S
C219 C218 1.367 . S
C219 C221 1.433 . S
C220 C216 1.350 . S
C220 C217 1.463 . S
C220 N224 1.427 . S
C221 H211 0.929 . S
C221 C219 1.433 . S
C221 N224 1.384 . S
C222 H213 0.929 . S
C222 C214 1.378 . S
C222 C217 1.350 . S
C223 H210 0.929 . S
C223 C215 1.433 . S
C223 N225 1.384 . S
N224 C220 1.427 . S
N224 C221 1.384 . S
N225 C217 1.427 . S
N225 C223 1.384 . S
H226 C232 0.930 . S
H227 C236 0.930 1_455 S
H228 C241 0.929 . S
H229 C239 0.929 . S
H230 C234 0.929 . S
H231 C240 0.929 . S
C232 H226 0.930 . S
C232 C233 1.367 . S
C232 C240 1.378 . S
C233 C232 1.367 . S
C233 C241 1.433 . S
C234 H230 0.929 . S
C234 C236 1.378 . S
C234 C238 1.350 . S
C235 C238 1.463 . S
C235 C240 1.350 . S
C235 N243 1.427 . S
C236 H227 0.930 1_655 S
C236 C234 1.378 . S
C236 C237 1.367 . S
C237 C236 1.367 . S
C237 C239 1.433 . S
C238 C234 1.350 . S
C238 C235 1.463 . S
C238 N242 1.427 . S
C239 H229 0.929 . S
C239 C237 1.433 . S
C239 N242 1.384 . S
C240 H231 0.929 . S
C240 C232 1.378 . S
C240 C235 1.350 . S
C241 H228 0.929 . S
C241 C233 1.433 . S
C241 N243 1.384 . S
N242 C238 1.427 . S
N242 C239 1.384 . S
N243 C235 1.427 . S
N243 C241 1.384 . S
H244 C250 0.930 . S
H245 C254 0.930 . S
H246 C259 0.929 . S
H247 C257 0.929 . S
H248 C252 0.929 . S
H249 C258 0.929 . S
C250 H244 0.930 . S
C250 C251 1.367 . S
C250 C258 1.378 . S
C251 C250 1.367 . S
C251 C259 1.433 . S
C252 H248 0.929 . S
C252 C254 1.378 . S
C252 C256 1.350 . S
C253 C256 1.463 . S
C253 C258 1.350 . S
C253 N261 1.427 . S
C254 H245 0.930 . S
C254 C252 1.378 . S
C254 C255 1.367 . S
C255 C254 1.367 . S
C255 C257 1.433 . S
C256 C252 1.350 . S
C256 C253 1.463 . S
C256 N260 1.427 . S
C257 H247 0.929 . S
C257 C255 1.433 . S
C257 N260 1.384 . S
C258 H249 0.929 . S
C258 C250 1.378 . S
C258 C253 1.350 . S
C259 H246 0.929 . S
C259 C251 1.433 . S
C259 N261 1.384 . S
N260 C256 1.427 . S
N260 C257 1.384 . S
N261 C253 1.427 . S
N261 C259 1.384 . S
H262 C268 0.930 . S
H263 C272 0.930 1_545 S
H264 C277 0.929 . S
H265 C275 0.929 . S
H266 C270 0.929 . S
H267 C276 0.929 . S
C268 H262 0.930 . S
C268 C269 1.367 . S
C268 C276 1.378 . S
C269 C268 1.367 . S
C269 C277 1.433 . S
C270 H266 0.929 . S
C270 C272 1.378 . S
C270 C274 1.350 . S
C271 C274 1.463 . S
C271 C276 1.350 . S
C271 N279 1.427 . S
C272 H263 0.930 1_565 S
C272 C270 1.378 . S
C272 C273 1.367 . S
C273 C272 1.367 . S
C273 C275 1.433 . S
C274 C270 1.350 . S
C274 C271 1.463 . S
C274 N278 1.427 . S
C275 H265 0.929 . S
C275 C273 1.433 . S
C275 N278 1.384 . S
C276 H267 0.929 . S
C276 C268 1.378 . S
C276 C271 1.350 . S
C277 H264 0.929 . S
C277 C269 1.433 . S
C277 N279 1.384 . S
N278 C274 1.427 . S
N278 C275 1.384 . S
N279 C271 1.427 . S
N279 C277 1.384 . S
H280 C286 0.930 . S
H281 C290 0.930 . S
H282 C295 0.929 . S
H283 C293 0.929 . S
H284 C288 0.929 . S
H285 C294 0.929 . S
C286 H280 0.930 . S
C286 C287 1.367 . S
C286 C294 1.378 . S
C287 C286 1.367 . S
C287 C295 1.433 . S
C288 H284 0.929 . S
C288 C290 1.378 . S
C288 C292 1.350 . S
C289 C292 1.463 . S
C289 C294 1.350 . S
C289 N297 1.427 . S
C290 H281 0.930 . S
C290 C288 1.378 . S
C290 C291 1.367 . S
C291 C290 1.367 . S
C291 C293 1.433 . S
C292 C288 1.350 . S
C292 C289 1.463 . S
C292 N296 1.427 . S
C293 H283 0.929 . S
C293 C291 1.433 . S
C293 N296 1.384 . S
C294 H285 0.929 . S
C294 C286 1.378 . S
C294 C289 1.350 . S
C295 H282 0.929 . S
C295 C287 1.433 . S
C295 N297 1.384 . S
N296 C292 1.427 . S
N296 C293 1.384 . S
N297 C289 1.427 . S
N297 C295 1.384 . S
H298 C304 0.930 . S
H299 C308 0.930 . S
H300 C313 0.929 . S
H301 C311 0.929 . S
H302 C306 0.929 . S
H303 C312 0.929 . S
C304 H298 0.930 . S
C304 C305 1.367 . S
C304 C312 1.378 . S
C305 C304 1.367 . S
C305 C313 1.433 . S
C306 H302 0.929 . S
C306 C308 1.378 . S
C306 C310 1.350 . S
C307 C310 1.463 . S
C307 C312 1.350 . S
C307 N315 1.427 . S
C308 H299 0.930 . S
C308 C306 1.378 . S
C308 C309 1.367 . S
C309 C308 1.367 . S
C309 C311 1.433 . S
C310 C306 1.350 . S
C310 C307 1.463 . S
C310 N314 1.427 . S
C311 H301 0.929 . S
C311 C309 1.433 . S
C311 N314 1.384 . S
C312 H303 0.929 . S
C312 C304 1.378 . S
C312 C307 1.350 . S
C313 H300 0.929 . S
C313 C305 1.433 . S
C313 N315 1.384 . S
N314 C310 1.427 . S
N314 C311 1.384 . S
N315 C307 1.427 . S
N315 C313 1.384 . S
H316 C322 0.930 . S
H317 C326 0.930 . S
H318 C331 0.929 . S
H319 C329 0.929 . S
H320 C324 0.929 . S
H321 C330 0.929 . S
C322 H316 0.930 . S
C322 C323 1.367 . S
C322 C330 1.378 . S
C323 C322 1.367 . S
C323 C331 1.433 . S
C324 H320 0.929 . S
C324 C326 1.378 . S
C324 C328 1.350 . S
C325 C328 1.463 . S
C325 C330 1.350 . S
C325 N333 1.427 . S
C326 H317 0.930 . S
C326 C324 1.378 . S
C326 C327 1.367 . S
C327 C326 1.367 . S
C327 C329 1.433 . S
C328 C324 1.350 . S
C328 C325 1.463 . S
C328 N332 1.427 . S
C329 H319 0.929 . S
C329 C327 1.433 . S
C329 N332 1.384 . S
C330 H321 0.929 . S
C330 C322 1.378 . S
C330 C325 1.350 . S
C331 H318 0.929 . S
C331 C323 1.433 . S
C331 N333 1.384 . S
N332 C328 1.427 . S
N332 C329 1.384 . S
N333 C325 1.427 . S
N333 C331 1.384 . S
H334 C340 0.930 . S
H335 C344 0.930 . S
H336 C349 0.929 . S
H337 C347 0.929 . S
H338 C342 0.929 . S
H339 C348 0.929 . S
C340 H334 0.930 . S
C340 C341 1.367 . S
C340 C348 1.378 . S
C341 C340 1.367 . S
C341 C349 1.433 . S
C342 H338 0.929 . S
C342 C344 1.378 . S
C342 C346 1.350 1_554 S
C343 C346 1.463 . S
C343 C348 1.350 . S
C343 N351 1.427 . S
C344 H335 0.930 . S
C344 C342 1.378 . S
C344 C345 1.367 . S
C345 C344 1.367 . S
C345 C347 1.433 1_554 S
C346 C342 1.350 1_556 S
C346 C343 1.463 . S
C346 N350 1.427 . S
C347 H337 0.929 . S
C347 C345 1.433 1_556 S
C347 N350 1.384 . S
C348 H339 0.929 . S
C348 C340 1.378 . S
C348 C343 1.350 . S
C349 H336 0.929 . S
C349 C341 1.433 . S
C349 N351 1.384 . S
N350 C346 1.427 . S
N350 C347 1.384 . S
N351 C343 1.427 . S
N351 C349 1.384 . S
H352 C358 0.930 . S
H353 C362 0.930 . S
H354 C367 0.929 . S
H355 C365 0.929 . S
H356 C360 0.929 . S
H357 C366 0.929 . S
C358 H352 0.930 . S
C358 C359 1.367 . S
C358 C366 1.378 . S
C359 C358 1.367 . S
C359 C367 1.433 . S
C360 H356 0.929 . S
C360 C362 1.378 . S
C360 C364 1.350 . S
C361 C364 1.463 . S
C361 C366 1.350 . S
C361 N369 1.427 . S
C362 H353 0.930 . S
C362 C360 1.378 . S
C362 C363 1.367 . S
C363 C362 1.367 . S
C363 C365 1.433 . S
C364 C360 1.350 . S
C364 C361 1.463 . S
C364 N368 1.427 . S
C365 H355 0.929 . S
C365 C363 1.433 . S
C365 N368 1.384 . S
C366 H357 0.929 . S
C366 C358 1.378 . S
C366 C361 1.350 . S
C367 H354 0.929 . S
C367 C359 1.433 . S
C367 N369 1.384 . S
N368 C364 1.427 . S
N368 C365 1.384 . S
N369 C361 1.427 . S
N369 C367 1.384 . S
H370 C376 0.930 . S
H371 C380 0.930 . S
H372 C385 0.929 . S
H373 C383 0.929 . S
H374 C378 0.929 . S
H375 C384 0.929 . S
C376 H370 0.930 . S
C376 C377 1.367 . S
C376 C384 1.378 . S
C377 C376 1.367 . S
C377 C385 1.433 . S
C378 H374 0.929 . S
C378 C380 1.378 . S
C378 C382 1.350 . S
C379 C382 1.463 . S
C379 C384 1.350 . S
C379 N387 1.427 . S
C380 H371 0.930 . S
C380 C378 1.378 . S
C380 C381 1.367 . S
C381 C380 1.367 . S
C381 C383 1.433 . S
C382 C378 1.350 . S
C382 C379 1.463 . S
C382 N386 1.427 . S
C383 H373 0.929 . S
C383 C381 1.433 . S
C383 N386 1.384 . S
C384 H375 0.929 . S
C384 C376 1.378 . S
C384 C379 1.350 . S
C385 H372 0.929 . S
C385 C377 1.433 . S
C385 N387 1.384 . S
N386 C382 1.427 . S
N386 C383 1.384 . S
N387 C379 1.427 . S
N387 C385 1.384 . S
H388 C394 0.930 . S
H389 C398 0.930 . S
H390 C403 0.929 . S
H391 C401 0.929 . S
H392 C396 0.929 . S
H393 C402 0.929 . S
C394 H388 0.930 . S
C394 C395 1.367 1_445 S
C394 C402 1.378 . S
C395 C394 1.367 1_665 S
C395 C403 1.433 . S
C396 H392 0.929 . S
C396 C398 1.378 . S
C396 C400 1.350 1_565 S
C397 C400 1.463 1_565 S
C397 C402 1.350 1_665 S
C397 N405 1.427 . S
C398 H389 0.930 . S
C398 C396 1.378 . S
C398 C399 1.367 1_565 S
C399 C398 1.367 1_545 S
C399 C401 1.433 1_655 S
C400 C396 1.350 1_545 S
C400 C397 1.463 1_545 S
C400 N404 1.427 1_655 S
C401 H391 0.929 . S
C401 C399 1.433 1_455 S
C401 N404 1.384 . S
C402 H393 0.929 . S
C402 C394 1.378 . S
C402 C397 1.350 1_445 S
C403 H390 0.929 . S
C403 C395 1.433 . S
C403 N405 1.384 . S
N404 C400 1.427 1_455 S
N404 C401 1.384 . S
N405 C397 1.427 . S
N405 C403 1.384 . S
H406 C412 0.930 . S
H407 C416 0.930 . S
H408 C421 0.929 . S
H409 C419 0.929 1_565 S
H410 C414 0.929 . S
H411 C420 0.929 . S
C412 H406 0.930 . S
C412 C413 1.367 . S
C412 C420 1.378 . S
C413 C412 1.367 . S
C413 C421 1.433 . S
C414 H410 0.929 . S
C414 C416 1.378 . S
C414 C418 1.350 . S
C415 C418 1.463 . S
C415 C420 1.350 . S
C415 N423 1.427 . S
C416 H407 0.930 . S
C416 C414 1.378 . S
C416 C417 1.367 . S
C417 C416 1.367 . S
C417 C419 1.433 . S
C418 C414 1.350 . S
C418 C415 1.463 . S
C418 N422 1.427 . S
C419 H409 0.929 1_545 S
C419 C417 1.433 . S
C419 N422 1.384 . S
C420 H411 0.929 . S
C420 C412 1.378 . S
C420 C415 1.350 . S
C421 H408 0.929 . S
C421 C413 1.433 . S
C421 N423 1.384 . S
N422 C418 1.427 . S
N422 C419 1.384 . S
N423 C415 1.427 . S
N423 C421 1.384 . S
H424 C430 0.930 . S
H425 C434 0.930 . S
H426 C439 0.929 . S
H427 C437 0.929 . S
H428 C432 0.929 . S
H429 C438 0.929 . S
C430 H424 0.930 . S
C430 C431 1.367 . S
C430 C438 1.378 . S
C431 C430 1.367 . S
C431 C439 1.433 . S
C432 H428 0.929 . S
C432 C434 1.378 . S
C432 C436 1.350 . S
C433 C436 1.463 . S
C433 C438 1.350 . S
C433 N441 1.427 . S
C434 H425 0.930 . S
C434 C432 1.378 . S
C434 C435 1.367 . S
C435 C434 1.367 . S
C435 C437 1.433 . S
C436 C432 1.350 . S
C436 C433 1.463 . S
C436 N440 1.427 . S
C437 H427 0.929 . S
C437 C435 1.433 . S
C437 N440 1.384 . S
C438 H429 0.929 . S
C438 C430 1.378 . S
C438 C433 1.350 . S
C439 H426 0.929 . S
C439 C431 1.433 . S
C439 N441 1.384 . S
N440 C436 1.427 . S
N440 C437 1.384 . S
N441 C433 1.427 . S
N441 C439 1.384 . S
H442 C448 0.930 . S
H443 C452 0.930 . S
H444 C457 0.929 . S
H445 C455 0.929 . S
H446 C450 0.929 . S
H447 C456 0.929 . S
C448 H442 0.930 . S
C448 C449 1.367 . S
C448 C456 1.378 . S
C449 C448 1.367 . S
C449 C457 1.433 . S
C450 H446 0.929 . S
C450 C452 1.378 . S
C450 C454 1.350 . S
C451 C454 1.463 . S
C451 C456 1.350 . S
C451 N459 1.427 . S
C452 H443 0.930 . S
C452 C450 1.378 . S
C452 C453 1.367 . S
C453 C452 1.367 . S
C453 C455 1.433 . S
C454 C450 1.350 . S
C454 C451 1.463 . S
C454 N458 1.427 . S
C455 H445 0.929 . S
C455 C453 1.433 . S
C455 N458 1.384 . S
C456 H447 0.929 . S
C456 C448 1.378 . S
C456 C451 1.350 . S
C457 H444 0.929 . S
C457 C449 1.433 . S
C457 N459 1.384 . S
N458 C454 1.427 . S
N458 C455 1.384 . S
N459 C451 1.427 . S
N459 C457 1.384 . S
H460 C466 0.930 . S
H461 C470 0.930 . S
H462 C475 0.929 . S
H463 C473 0.929 . S
H464 C468 0.929 . S
H465 C474 0.929 . S
C466 H460 0.930 . S
C466 C467 1.366 1_545 S
C466 C474 1.378 . S
C467 C466 1.366 1_565 S
C467 C475 1.435 1_556 S
C468 H464 0.929 . S
C468 C470 1.378 . S
C468 C472 1.350 1_565 S
C469 C472 1.466 . S
C469 C474 1.365 1_554 S
C469 N477 1.408 1_545 S
C470 H461 0.930 . S
C470 C468 1.378 . S
C470 C471 1.367 1_565 S
C471 C470 1.367 1_545 S
C471 C473 1.433 . S
C472 C468 1.350 1_545 S
C472 C469 1.466 . S
C472 N476 1.427 . S
C473 H463 0.929 . S
C473 C471 1.433 . S
C473 N476 1.384 . S
C474 H465 0.929 . S
C474 C466 1.378 . S
C474 C469 1.365 1_556 S
C475 H462 0.929 . S
C475 C467 1.435 1_554 S
C475 N477 1.384 . S
N476 C472 1.427 . S
N476 C473 1.384 . S
N477 C469 1.408 1_565 S
N477 C475 1.384 . S
H478 C484 0.930 . S
H479 C488 0.930 . S
H480 C493 0.929 . S
H481 C491 0.929 . S
H482 C486 0.929 . S
H483 C492 0.929 . S
C484 H478 0.930 . S
C484 C485 1.367 . S
C484 C492 1.378 . S
C485 C484 1.367 . S
C485 C493 1.433 . S
C486 H482 0.929 . S
C486 C488 1.378 . S
C486 C490 1.350 . S
C487 C490 1.463 . S
C487 C492 1.350 . S
C487 N495 1.427 . S
C488 H479 0.930 . S
C488 C486 1.378 . S
C488 C489 1.367 . S
C489 C488 1.367 . S
C489 C491 1.433 . S
C490 C486 1.350 . S
C490 C487 1.463 . S
C490 N494 1.427 . S
C491 H481 0.929 . S
C491 C489 1.433 . S
C491 N494 1.384 . S
C492 H483 0.929 . S
C492 C484 1.378 . S
C492 C487 1.350 . S
C493 H480 0.929 . S
C493 C485 1.433 . S
C493 N495 1.384 . S
N494 C490 1.427 . S
N494 C491 1.384 . S
N495 C487 1.427 . S
N495 C493 1.384 . S
H496 C502 0.930 . S
H497 C506 0.930 1_556 S
H498 C511 0.929 . S
H499 C509 0.929 . S
H500 C504 0.929 . S
H501 C510 0.929 . S
C502 H496 0.930 . S
C502 C503 1.367 . S
C502 C510 1.378 . S
C503 C502 1.367 . S
C503 C511 1.433 . S
C504 H500 0.929 . S
C504 C506 1.378 . S
C504 C508 1.350 . S
C505 C508 1.463 . S
C505 C510 1.350 . S
C505 N513 1.427 . S
C506 H497 0.930 1_554 S
C506 C504 1.378 . S
C506 C507 1.367 . S
C507 C506 1.367 . S
C507 C509 1.433 . S
C508 C504 1.350 . S
C508 C505 1.463 . S
C508 N512 1.427 . S
C509 H499 0.929 . S
C509 C507 1.433 . S
C509 N512 1.384 . S
C510 H501 0.929 . S
C510 C502 1.378 . S
C510 C505 1.350 . S
C511 H498 0.929 . S
C511 C503 1.433 . S
C511 N513 1.384 . S
N512 C508 1.427 . S
N512 C509 1.384 . S
N513 C505 1.427 . S
N513 C511 1.384 . S
H514 C520 0.930 . S
H515 C524 0.930 . S
H516 C529 0.929 . S
H517 C527 0.929 . S
H518 C522 0.929 . S
H519 C528 0.929 . S
C520 H514 0.930 . S
C520 C521 1.367 . S
C520 C528 1.378 . S
C521 C520 1.367 . S
C521 C529 1.433 . S
C522 H518 0.929 . S
C522 C524 1.378 . S
C522 C526 1.350 . S
C523 C526 1.463 . S
C523 C528 1.350 . S
C523 N531 1.427 . S
C524 H515 0.930 . S
C524 C522 1.378 . S
C524 C525 1.367 . S
C525 C524 1.367 . S
C525 C527 1.433 . S
C526 C522 1.350 . S
C526 C523 1.463 . S
C526 N530 1.427 . S
C527 H517 0.929 . S
C527 C525 1.433 . S
C527 N530 1.384 . S
C528 H519 0.929 . S
C528 C520 1.378 . S
C528 C523 1.350 . S
C529 H516 0.929 . S
C529 C521 1.433 . S
C529 N531 1.384 . S
N530 C526 1.427 . S
N530 C527 1.384 . S
N531 C523 1.427 . S
N531 C529 1.384 . S
H532 C538 0.922 1_554 S
H533 C542 0.930 . S
H534 C547 0.929 . S
H535 C545 0.929 . S
H536 C540 0.929 . S
H537 C546 0.929 . S
C538 H532 0.922 1_556 S
C538 C539 1.377 . S
C538 C546 1.376 1_556 S
C539 C538 1.377 . S
C539 C547 1.433 . S
C540 H536 0.929 . S
C540 C542 1.378 . S
C540 C544 1.350 . S
C541 C544 1.463 1_655 S
C541 C546 1.350 1_556 S
C541 N549 1.427 1_655 S
C542 H533 0.930 . S
C542 C540 1.378 . S
C542 C543 1.367 . S
C543 C542 1.367 . S
C543 C545 1.433 1_556 S
C544 C540 1.350 . S
C544 C541 1.463 1_455 S
C544 N548 1.427 1_456 S
C545 H535 0.929 . S
C545 C543 1.433 1_554 S
C545 N548 1.383 1_455 S
C546 H537 0.929 . S
C546 C538 1.376 1_554 S
C546 C541 1.350 1_554 S
C547 H534 0.929 . S
C547 C539 1.433 . S
C547 N549 1.383 1_655 S
N548 C544 1.427 1_654 S
N548 C545 1.383 1_655 S
N549 C541 1.427 1_455 S
N549 C547 1.383 1_455 S
H550 C556 0.930 . S
H551 C560 0.930 . S
H552 C565 0.929 . S
H553 C563 0.929 . S
H554 C558 0.929 . S
H555 C564 0.929 . S
C556 H550 0.930 . S
C556 C557 1.367 . S
C556 C564 1.378 . S
C557 C556 1.367 . S
C557 C565 1.433 . S
C558 H554 0.929 . S
C558 C560 1.378 . S
C558 C562 1.350 . S
C559 C562 1.463 . S
C559 C564 1.350 . S
C559 N567 1.427 . S
C560 H551 0.930 . S
C560 C558 1.378 . S
C560 C561 1.367 . S
C561 C560 1.367 . S
C561 C563 1.433 . S
C562 C558 1.350 . S
C562 C559 1.463 . S
C562 N566 1.427 . S
C563 H553 0.929 . S
C563 C561 1.433 . S
C563 N566 1.384 . S
C564 H555 0.929 . S
C564 C556 1.378 . S
C564 C559 1.350 . S
C565 H552 0.929 . S
C565 C557 1.433 . S
C565 N567 1.384 . S
N566 C562 1.427 . S
N566 C563 1.384 . S
N567 C559 1.427 . S
N567 C565 1.384 . S
H568 C574 0.930 . S
H569 C578 0.930 1_655 S
H570 C583 0.929 . S
H571 C581 0.929 . S
H572 C576 0.929 1_655 S
H573 C582 0.929 . S
C574 H568 0.930 . S
C574 C575 1.367 . S
C574 C582 1.378 . S
C575 C574 1.367 . S
C575 C583 1.433 . S
C576 H572 0.929 1_455 S
C576 C578 1.378 . S
C576 C580 1.350 . S
C577 C580 1.463 . S
C577 C582 1.350 . S
C577 N585 1.427 . S
C578 H569 0.930 1_455 S
C578 C576 1.378 . S
C578 C579 1.367 . S
C579 C578 1.367 . S
C579 C581 1.433 . S
C580 C576 1.350 . S
C580 C577 1.463 . S
C580 N584 1.427 . S
C581 H571 0.929 . S
C581 C579 1.433 . S
C581 N584 1.384 . S
C582 H573 0.929 . S
C582 C574 1.378 . S
C582 C577 1.350 . S
C583 H570 0.929 . S
C583 C575 1.433 . S
C583 N585 1.384 . S
N584 C580 1.427 . S
N584 C581 1.384 . S
N585 C577 1.427 . S
N585 C583 1.384 . S
H586 C592 0.930 . S
H587 C596 0.930 . S
H588 C601 0.929 . S
H589 C599 0.929 . S
H590 C594 0.929 . S
H591 C600 0.929 . S
C592 H586 0.930 . S
C592 C593 1.367 . S
C592 C600 1.378 . S
C593 C592 1.367 . S
C593 C601 1.433 . S
C594 H590 0.929 . S
C594 C596 1.378 . S
C594 C598 1.350 . S
C595 C598 1.463 . S
C595 C600 1.350 . S
C595 N603 1.427 . S
C596 H587 0.930 . S
C596 C594 1.378 . S
C596 C597 1.367 . S
C597 C596 1.367 . S
C597 C599 1.433 . S
C598 C594 1.350 . S
C598 C595 1.463 . S
C598 N602 1.427 . S
C599 H589 0.929 . S
C599 C597 1.433 . S
C599 N602 1.384 . S
C600 H591 0.929 . S
C600 C592 1.378 . S
C600 C595 1.350 . S
C601 H588 0.929 . S
C601 C593 1.433 . S
C601 N603 1.384 . S
N602 C598 1.427 . S
N602 C599 1.384 . S
N603 C595 1.427 . S
N603 C601 1.384 . S
C179 C4 1.721 . S
C183 C91 1.603 . S
C197 C16 1.827 . S
C201 C125 1.702 . S
C219 C137 1.060 . S
C215 C32 1.129 . S
C233 C43 1.365 . S
C237 C171 1.268 . S
C255 C128 1.827 . S
C251 C5 1.977 . S
C273 C108 1.269 . S
C269 C21 1.330 . S
C291 C155 1.261 . S
C287 C27 1.399 . S
C309 C146 1.373 . S
C305 C37 1.432 . S
C323 C10 1.575 . S
C327 C154 1.481 . S
C345 C116 1.485 . S
C341 C26 1.607 . S
C359 C38 1.286 . S
C363 C92 1.188 . S
C377 C15 1.677 . S
C381 C149 1.568 . S
C399 C107 1.788 . S
C395 C48 1.904 . S
C413 C59 1.668 . S
C417 C129 1.570 . S
C431 C76 1.486 . S
C435 C134 1.389 . S
C449 C87 1.323 . S
C453 C167 1.286 . S
C467 C54 1.477 . S
C471 C112 1.402 1_545 S
C489 C104 1.826 . S
C485 C60 1.949 . S
C507 C158 1.431 . S
C503 C71 1.472 . S
C525 C150 1.332 . S
C521 C82 1.444 . S
C539 C49 1.825 . S
C543 C170 1.715 . S
C561 C113 1.271 . S
C557 C70 1.352 . S
C579 C95 1.523 . S
C575 C81 1.658 . S
C593 C65 1.573 . S
C597 C133 1.477 . S
