# Generated by pormake.
# Topology ctn, (3,4)-cn, num edge types: 1
# Building blocks:
#     Node 0, Type 0, BuildingBlock: ESEHIV_clean_linker_0, # of connection points: 3
#     Node 1, Type 0, BuildingBlock: ESEHIV_clean_linker_0, # of connection points: 3
#     Node 2, Type 0, BuildingBlock: ESEHIV_clean_linker_0, # of connection points: 3
#     Node 3, Type 0, BuildingBlock: ESEHIV_clean_linker_0, # of connection points: 3
#     Node 4, Type 0, BuildingBlock: ESEHIV_clean_linker_0, # of connection points: 3
#     Node 5, Type 0, BuildingBlock: ESEHIV_clean_linker_0, # of connection points: 3
#     Node 6, Type 0, BuildingBlock: ESEHIV_clean_linker_0, # of connection points: 3
#     Node 7, Type 0, BuildingBlock: ESEHIV_clean_linker_0, # of connection points: 3
#     Node 8, Type 0, BuildingBlock: ESEHIV_clean_linker_0, # of connection points: 3
#     Node 9, Type 0, BuildingBlock: ESEHIV_clean_linker_0, # of connection points: 3
#     Node 10, Type 0, BuildingBlock: ESEHIV_clean_linker_0, # of connection points: 3
#     Node 11, Type 0, BuildingBlock: ESEHIV_clean_linker_0, # of connection points: 3
#     Node 12, Type 0, BuildingBlock: ESEHIV_clean_linker_0, # of connection points: 3
#     Node 13, Type 0, BuildingBlock: ESEHIV_clean_linker_0, # of connection points: 3
#     Node 14, Type 0, BuildingBlock: ESEHIV_clean_linker_0, # of connection points: 3
#     Node 15, Type 0, BuildingBlock: ESEHIV_clean_linker_0, # of connection points: 3
#     Node 16, Type 1, BuildingBlock: KUFVIS_clean_sbu_0, # of connection points: 4
#     Node 17, Type 1, BuildingBlock: KUFVIS_clean_sbu_0, # of connection points: 4
#     Node 18, Type 1, BuildingBlock: KUFVIS_clean_sbu_0, # of connection points: 4
#     Node 19, Type 1, BuildingBlock: KUFVIS_clean_sbu_0, # of connection points: 4
#     Node 20, Type 1, BuildingBlock: KUFVIS_clean_sbu_0, # of connection points: 4
#     Node 21, Type 1, BuildingBlock: KUFVIS_clean_sbu_0, # of connection points: 4
#     Node 22, Type 1, BuildingBlock: KUFVIS_clean_sbu_0, # of connection points: 4
#     Node 23, Type 1, BuildingBlock: KUFVIS_clean_sbu_0, # of connection points: 4
#     Node 24, Type 1, BuildingBlock: KUFVIS_clean_sbu_0, # of connection points: 4
#     Node 25, Type 1, BuildingBlock: KUFVIS_clean_sbu_0, # of connection points: 4
#     Node 26, Type 1, BuildingBlock: KUFVIS_clean_sbu_0, # of connection points: 4
#     Node 27, Type 1, BuildingBlock: KUFVIS_clean_sbu_0, # of connection points: 4
#     Edge 28, Type (0, 1), BuildingBlock: OJICUG_clean_linker_0, # of connection points: 2
#     Edge 29, Type (0, 1), BuildingBlock: OJICUG_clean_linker_0, # of connection points: 2
#     Edge 30, Type (0, 1), BuildingBlock: OJICUG_clean_linker_0, # of connection points: 2
#     Edge 31, Type (0, 1), BuildingBlock: OJICUG_clean_linker_0, # of connection points: 2
#     Edge 32, Type (0, 1), BuildingBlock: OJICUG_clean_linker_0, # of connection points: 2
#     Edge 33, Type (0, 1), BuildingBlock: OJICUG_clean_linker_0, # of connection points: 2
#     Edge 34, Type (0, 1), BuildingBlock: OJICUG_clean_linker_0, # of connection points: 2
#     Edge 35, Type (0, 1), BuildingBlock: OJICUG_clean_linker_0, # of connection points: 2
#     Edge 36, Type (0, 1), BuildingBlock: OJICUG_clean_linker_0, # of connection points: 2
#     Edge 37, Type (0, 1), BuildingBlock: OJICUG_clean_linker_0, # of connection points: 2
#     Edge 38, Type (0, 1), BuildingBlock: OJICUG_clean_linker_0, # of connection points: 2
#     Edge 39, Type (0, 1), BuildingBlock: OJICUG_clean_linker_0, # of connection points: 2
#     Edge 40, Type (0, 1), BuildingBlock: OJICUG_clean_linker_0, # of connection points: 2
#     Edge 41, Type (0, 1), BuildingBlock: OJICUG_clean_linker_0, # of connection points: 2
#     Edge 42, Type (0, 1), BuildingBlock: OJICUG_clean_linker_0, # of connection points: 2
#     Edge 43, Type (0, 1), BuildingBlock: OJICUG_clean_linker_0, # of connection points: 2
#     Edge 44, Type (0, 1), BuildingBlock: OJICUG_clean_linker_0, # of connection points: 2
#     Edge 45, Type (0, 1), BuildingBlock: OJICUG_clean_linker_0, # of connection points: 2
#     Edge 46, Type (0, 1), BuildingBlock: OJICUG_clean_linker_0, # of connection points: 2
#     Edge 47, Type (0, 1), BuildingBlock: OJICUG_clean_linker_0, # of connection points: 2
#     Edge 48, Type (0, 1), BuildingBlock: OJICUG_clean_linker_0, # of connection points: 2
#     Edge 49, Type (0, 1), BuildingBlock: OJICUG_clean_linker_0, # of connection points: 2
#     Edge 50, Type (0, 1), BuildingBlock: OJICUG_clean_linker_0, # of connection points: 2
#     Edge 51, Type (0, 1), BuildingBlock: OJICUG_clean_linker_0, # of connection points: 2
#     Edge 52, Type (0, 1), BuildingBlock: OJICUG_clean_linker_0, # of connection points: 2
#     Edge 53, Type (0, 1), BuildingBlock: OJICUG_clean_linker_0, # of connection points: 2
#     Edge 54, Type (0, 1), BuildingBlock: OJICUG_clean_linker_0, # of connection points: 2
#     Edge 55, Type (0, 1), BuildingBlock: OJICUG_clean_linker_0, # of connection points: 2
#     Edge 56, Type (0, 1), BuildingBlock: OJICUG_clean_linker_0, # of connection points: 2
#     Edge 57, Type (0, 1), BuildingBlock: OJICUG_clean_linker_0, # of connection points: 2
#     Edge 58, Type (0, 1), BuildingBlock: OJICUG_clean_linker_0, # of connection points: 2
#     Edge 59, Type (0, 1), BuildingBlock: OJICUG_clean_linker_0, # of connection points: 2
#     Edge 60, Type (0, 1), BuildingBlock: OJICUG_clean_linker_0, # of connection points: 2
#     Edge 61, Type (0, 1), BuildingBlock: OJICUG_clean_linker_0, # of connection points: 2
#     Edge 62, Type (0, 1), BuildingBlock: OJICUG_clean_linker_0, # of connection points: 2
#     Edge 63, Type (0, 1), BuildingBlock: OJICUG_clean_linker_0, # of connection points: 2
#     Edge 64, Type (0, 1), BuildingBlock: OJICUG_clean_linker_0, # of connection points: 2
#     Edge 65, Type (0, 1), BuildingBlock: OJICUG_clean_linker_0, # of connection points: 2
#     Edge 66, Type (0, 1), BuildingBlock: OJICUG_clean_linker_0, # of connection points: 2
#     Edge 67, Type (0, 1), BuildingBlock: OJICUG_clean_linker_0, # of connection points: 2
#     Edge 68, Type (0, 1), BuildingBlock: OJICUG_clean_linker_0, # of connection points: 2
#     Edge 69, Type (0, 1), BuildingBlock: OJICUG_clean_linker_0, # of connection points: 2
#     Edge 70, Type (0, 1), BuildingBlock: OJICUG_clean_linker_0, # of connection points: 2
#     Edge 71, Type (0, 1), BuildingBlock: OJICUG_clean_linker_0, # of connection points: 2
#     Edge 72, Type (0, 1), BuildingBlock: OJICUG_clean_linker_0, # of connection points: 2
#     Edge 73, Type (0, 1), BuildingBlock: OJICUG_clean_linker_0, # of connection points: 2
#     Edge 74, Type (0, 1), BuildingBlock: OJICUG_clean_linker_0, # of connection points: 2
#     Edge 75, Type (0, 1), BuildingBlock: OJICUG_clean_linker_0, # of connection points: 2
# Relax obj value: 0.012
# Max RMSD: 0.062
# Mean RMSD: 0.031
data_MOF--net-ctn--node1-KUFVIS_clean_sbu_0--node2-ESEHIV_clean_linker_0--edge1-OJICUG_clean_linker_0
_symmetry_space_group_name_H-M    P1
_symmetry_Int_Tables_number       1
_symmetry_cell_setting            triclinic
loop_
_symmetry_equiv_pos_as_xyz
'x, y, z'
_cell_length_a     35.709475
_cell_length_b     35.583488
_cell_length_c     35.794412
_cell_angle_alpha  90.939355
_cell_angle_beta   90.341953
_cell_angle_gamma 91.656137
loop_
_atom_site_label
_atom_site_type_symbol
_atom_site_fract_x
_atom_site_fract_y
_atom_site_fract_z
_atom_type_partial_charge
H0 H 0.9996 0.08577 0.07177 0.0
H1 H 0.07583 0.99639 0.08927 0.0
H2 H 0.09144 0.07042 0.99642 0.0
C3 C 0.02416 0.07065 0.06345 0.0
C4 C 0.04406 0.08196 0.0315 0.0
C5 C 0.03536 0.03985 0.08458 0.0
C6 C 0.06721 0.02028 0.07333 0.0
C7 C 0.08781 0.03098 0.04156 0.0
C8 C 0.07595 0.06197 0.02095 0.0
H9 H 0.34905 0.65707 0.2469 0.0
H10 H 0.38049 0.76203 0.19654 0.0
H11 H 0.28754 0.69586 0.1519 0.0
C12 C 0.34513 0.67752 0.22523 0.0
C13 C 0.31547 0.6723 0.19952 0.0
C14 C 0.3685 0.70983 0.22471 0.0
C15 C 0.36268 0.73686 0.19722 0.0
C16 C 0.33409 0.73154 0.17038 0.0
C17 C 0.31071 0.69907 0.17149 0.0
H18 H 0.96486 0.54414 0.09061 0.0
H19 H 0.02601 0.4447 0.06503 0.0
H20 H 0.92198 0.46412 1.00855 0.0
C21 C 0.96755 0.51822 0.07477 0.0
C22 C 0.93958 0.50731 0.04853 0.0
C23 C 0.99862 0.49575 0.08143 0.0
C24 C 1.00215 0.46222 0.06046 0.0
C25 C 0.97464 0.45067 0.0341 0.0
C26 C 0.94347 0.47333 0.02842 0.0
H27 H 0.64402 0.78504 0.20665 0.0
H28 H 0.74476 0.83753 0.16405 0.0
H29 H 0.6933 0.88178 0.26332 0.0
C30 C 0.6653 0.8074 0.20805 0.0
C31 C 0.6654 0.83345 0.23796 0.0
C32 C 0.69407 0.80855 0.18146 0.0
C33 C 0.72223 0.83691 0.18422 0.0
C34 C 0.72216 0.86362 0.21352 0.0
C35 C 0.69361 0.86156 0.24034 0.0
H36 H 0.98698 0.9281 0.47582 0.0
H37 H 0.05789 0.02136 0.44497 0.0
H38 H 0.08071 0.96293 0.54617 0.0
C39 C 0.01097 0.94651 0.48197 0.0
C40 C 0.03233 0.94166 0.51473 0.0
C41 C 0.02022 0.97511 0.45671 0.0
C42 C 0.05052 0.9998 0.46477 0.0
C43 C 0.07205 0.99607 0.4974 0.0
C44 C 0.06288 0.96686 0.52207 0.0
H45 H 0.16201 0.74709 0.84035 0.0
H46 H 0.26222 0.69373 0.87703 0.0
H47 H 0.20074 0.64896 0.7821 0.0
C48 C 0.18191 0.72479 0.83763 0.0
C49 C 0.1774 0.69797 0.80857 0.0
C50 C 0.21228 0.72349 0.86266 0.0
C51 C 0.23858 0.69514 0.85801 0.0
C52 C 0.23456 0.66821 0.82914 0.0
C53 C 0.20356 0.66935 0.80486 0.0
H54 H 0.94737 0.55963 0.52546 0.0
H55 H 0.04639 0.59436 0.46612 0.0
H56 H 0.97684 0.50222 0.42384 0.0
C57 C 0.96677 0.55565 0.50279 0.0
C58 C 0.95891 0.52735 0.47588 0.0
C59 C 0.99839 0.57986 0.49974 0.0
C60 C 0.02241 0.5753 0.46915 0.0
C61 C 0.01478 0.5475 0.44144 0.0
C62 C 0.98322 0.5233 0.44531 0.0
H63 H 0.77334 0.83987 0.87839 0.0
H64 H 0.8334 0.85867 0.77671 0.0
H65 H 0.87043 0.77523 0.85299 0.0
C66 C 0.79727 0.83392 0.86106 0.0
C67 C 0.82106 0.80442 0.87003 0.0
C68 C 0.80222 0.85415 0.82801 0.0
C69 C 0.83094 0.84453 0.80321 0.0
C70 C 0.85525 0.81551 0.81184 0.0
C71 C 0.85101 0.79689 0.84598 0.0
H72 H 0.26788 0.33187 0.37044 0.0
H73 H 0.33758 0.3665 0.27947 0.0
H74 H 0.36607 0.26994 0.34395 0.0
C75 C 0.29296 0.32818 0.35403 0.0
C76 C 0.317 0.29867 0.36185 0.0
C77 C 0.30039 0.35271 0.32459 0.0
C78 C 0.33214 0.34752 0.30229 0.0
C79 C 0.35591 0.31726 0.30852 0.0
C80 C 0.34824 0.29339 0.3388 0.0
H81 H 0.46723 0.04661 0.58679 0.0
H82 H 0.52158 0.94087 0.57254 0.0
H83 H 0.42187 0.96269 0.51021 0.0
C84 C 0.46818 0.01878 0.57428 0.0
C85 C 0.44009 1.00722 0.54843 0.0
C86 C 0.49742 0.99502 0.58413 0.0
C87 C 0.49981 0.96005 0.56528 0.0
C88 C 0.47317 0.94867 0.53798 0.0
C89 C 0.44311 0.97212 0.53025 0.0
H90 H 0.14478 0.28356 0.70205 0.0
H91 H 0.24527 0.33743 0.66037 0.0
H92 H 0.1933 0.37977 0.76017 0.0
C93 C 0.16591 0.30604 0.70379 0.0
C94 C 0.16582 0.3316 0.73412 0.0
C95 C 0.19468 0.30784 0.67719 0.0
C96 C 0.22269 0.33632 0.68048 0.0
C97 C 0.22243 0.36254 0.71022 0.0
C98 C 0.19382 0.35988 0.73692 0.0
H99 H 0.84711 0.15784 0.74748 0.0
H100 H 0.87977 0.2618 0.69591 0.0
H101 H 0.78483 0.19721 0.65319 0.0
C102 C 0.84318 0.17825 0.72576 0.0
C103 C 0.81303 0.17342 0.70057 0.0
C104 C 0.86714 0.21008 0.72466 0.0
C105 C 0.86145 0.23701 0.69706 0.0
C106 C 0.83237 0.23211 0.6707 0.0
C107 C 0.80833 0.20012 0.67243 0.0
H108 H 0.49949 0.58458 0.57159 0.0
H109 H 0.57607 0.49546 0.58897 0.0
H110 H 0.59132 0.56967 0.49618 0.0
C111 C 0.5241 0.56955 0.56324 0.0
C112 C 0.54393 0.58094 0.53131 0.0
C113 C 0.53545 0.53882 0.58435 0.0
C114 C 0.56735 0.51934 0.57306 0.0
C115 C 0.58786 0.53015 0.54126 0.0
C116 C 0.57588 0.56111 0.5207 0.0
H117 H 0.49055 0.42806 0.97317 0.0
H118 H 0.55898 0.52364 0.94329 0.0
H119 H 0.58403 0.46399 0.0432 0.0
C120 C 0.51419 0.44694 0.97934 0.0
C121 C 0.53592 0.4421 0.01183 0.0
C122 C 0.52258 0.47609 0.95439 0.0
C123 C 0.5523 0.50149 0.96269 0.0
C124 C 0.5741 0.49775 0.99515 0.0
C125 C 0.5659 0.46788 0.01932 0.0
H126 H 0.66231 0.24705 0.34096 0.0
H127 H 0.76228 0.19348 0.3779 0.0
H128 H 0.70095 0.1488 0.28283 0.0
C129 C 0.68213 0.22467 0.33832 0.0
C130 C 0.67765 0.19785 0.30925 0.0
C131 C 0.71245 0.22332 0.3634 0.0
C132 C 0.73867 0.1949 0.35885 0.0
C133 C 0.73468 0.16798 0.32998 0.0
C134 C 0.70374 0.16916 0.30562 0.0
H135 H 0.44812 0.05651 0.02974 0.0
H136 H 0.54769 0.09077 0.97112 0.0
H137 H 0.47781 0.99928 0.92799 0.0
C138 C 0.46756 0.05247 1.00709 0.0
C139 C 0.45966 0.02439 0.97996 0.0
C140 C 0.49928 0.07654 1.00426 0.0
C141 C 0.52361 0.07181 0.9739 0.0
C142 C 0.51605 0.0441 0.94605 0.0
C143 C 0.48425 0.02019 0.94961 0.0
Mn144 Mn 0.26796 0.87889 0.0168 0.0
Mn145 Mn 0.25684 0.91002 0.92894 0.0
C146 C 0.23546 0.84278 0.97216 0.0
C147 C 0.29858 0.84366 0.06165 0.0
C148 C 0.21299 0.93988 0.99495 0.0
O149 O 0.31015 0.91899 0.01296 0.0
O150 O 0.30033 0.93666 0.95342 0.0
C151 C 0.32691 0.88227 0.8958 0.0
N152 N 0.28879 0.88314 0.89585 0.0
C153 C 0.2845 0.84137 0.84231 0.0
C154 C 0.3237 0.84025 0.84156 0.0
C155 C 0.34497 0.86075 0.86847 0.0
C156 C 0.26804 0.86353 0.87006 0.0
H157 H 0.34344 0.89775 0.91652 0.0
C158 C 0.31898 0.93831 0.98421 0.0
O159 O 0.27709 0.87098 0.07118 0.0
O160 O 0.30436 0.83862 0.02621 0.0
N161 N 0.21627 0.88518 0.90227 0.0
C162 C 0.17874 0.88705 0.90845 0.0
C163 C 0.15355 0.86698 0.88475 0.0
C164 C 0.16716 0.84526 0.85494 0.0
C165 C 0.20588 0.84382 0.84908 0.0
C166 C 0.22964 0.86465 0.87343 0.0
H167 H 0.16811 0.90347 0.93146 0.0
O168 O 0.22849 0.83827 1.00736 0.0
O169 O 0.25975 0.86917 0.96444 0.0
O170 O 0.22821 0.91943 0.01938 0.0
O171 O 0.22184 0.93877 0.96042 0.0
C172 C 0.22183 0.8219 0.82052 0.0
C173 C 0.26111 0.82064 0.81716 0.0
H174 H 0.33774 0.82344 0.82071 0.0
H175 H 0.37524 0.85985 0.86821 0.0
H176 H 0.12371 0.8681 0.88957 0.0
H177 H 0.14766 0.8295 0.83696 0.0
H178 H 0.20417 0.80544 0.80134 0.0
H179 H 0.27304 0.80318 0.79547 0.0
Mn180 Mn 0.16352 0.51464 0.25594 0.0
Mn181 Mn 0.13494 0.60389 0.24857 0.0
C182 C 0.19961 0.55937 0.22481 0.0
C183 C 0.1973 0.46811 0.28522 0.0
C184 C 0.10222 0.53897 0.20175 0.0
O185 O 0.12442 0.51809 0.29762 0.0
O186 O 0.10876 0.57857 0.29051 0.0
C187 C 0.16637 0.63433 0.32006 0.0
N188 N 0.16376 0.63577 0.28213 0.0
C189 C 0.20616 0.68958 0.28066 0.0
C190 C 0.20909 0.6888 0.31971 0.0
C191 C 0.18917 0.66098 0.33947 0.0
C192 C 0.18296 0.66231 0.26283 0.0
H193 H 0.15129 0.61291 0.33539 0.0
C194 C 0.10611 0.54707 0.30739 0.0
O195 O 0.1694 0.45966 0.26293 0.0
O196 O 0.20413 0.50353 0.29227 0.0
N197 N 0.15889 0.63171 0.20956 0.0
C198 C 0.15501 0.62712 0.17185 0.0
C199 C 0.17391 0.65211 0.148 0.0
C200 C 0.19647 0.68163 0.16312 0.0
C201 C 0.19994 0.68588 0.20201 0.0
C202 C 0.18019 0.6603 0.2244 0.0
H203 H 0.13781 0.60443 0.16004 0.0
O204 O 0.20315 0.5239 0.21711 0.0
O205 O 0.17468 0.56735 0.24963 0.0
O206 O 0.1222 0.5137 0.21599 0.0
O207 O 0.10447 0.57352 0.21207 0.0
C208 C 0.22274 0.71411 0.21939 0.0
C209 C 0.22594 0.71587 0.25868 0.0
H210 H 0.22681 0.70917 0.33477 0.0
H211 H 0.19147 0.66005 0.3696 0.0
H212 H 0.1712 0.64855 0.11801 0.0
H213 H 0.21128 0.70064 0.14463 0.0
H214 H 0.23839 0.73425 0.2028 0.0
H215 H 0.24401 0.73732 0.27166 0.0
Mn216 Mn 0.75506 0.63528 0.02856 0.0
Mn217 Mn 0.68003 0.67294 0.98642 0.0
C218 C 0.69832 0.60209 0.02499 0.0
C219 C 0.80971 0.60055 0.03006 0.0
C220 C 0.70651 0.69661 0.06353 0.0
O221 O 0.77927 0.67668 0.99726 0.0
O222 O 0.72694 0.70014 0.97187 0.0
C223 C 0.69796 0.65088 0.90858 0.0
N224 N 0.6737 0.65066 0.93779 0.0
C225 C 0.62642 0.6173 0.90111 0.0
C226 C 0.65082 0.61733 0.87056 0.0
C227 C 0.68681 0.63405 0.87437 0.0
C228 C 0.63918 0.63431 0.93454 0.0
H229 H 0.72557 0.66386 0.91135 0.0
C230 C 0.76247 0.70012 0.97687 0.0
O231 O 0.80277 0.62609 0.05508 0.0
O232 O 0.7854 0.59582 1.00307 0.0
N233 N 0.63259 0.64959 0.99757 0.0
C234 C 0.61316 0.65042 0.03021 0.0
C235 C 0.57699 0.63393 0.03146 0.0
C236 C 0.56094 0.61738 0.99901 0.0
C237 C 0.58127 0.61741 0.96562 0.0
C238 C 0.61726 0.63407 0.96612 0.0
H239 H 0.62527 0.6634 0.05513 0.0
O240 O 0.72256 0.59493 0.05089 0.0
O241 O 0.70773 0.62865 1.00204 0.0
O242 O 0.73427 0.67494 0.06419 0.0
O243 O 0.6835 0.69752 0.03621 0.0
C244 C 0.56737 0.60127 0.93193 0.0
C245 C 0.59004 0.60089 0.89979 0.0
H246 H 0.6423 0.60445 0.84411 0.0
H247 H 0.70585 0.63408 0.85096 0.0
H248 H 0.56147 0.63406 0.05733 0.0
H249 H 0.53307 0.60461 1.00009 0.0
H250 H 0.53943 0.58868 0.93056 0.0
H251 H 0.57926 0.58777 0.87425 0.0
Mn252 Mn 0.88214 0.01431 0.26565 0.0
Mn253 Mn 0.91183 0.92592 0.25294 0.0
C254 C 0.846 0.96978 0.23276 0.0
C255 C 0.84708 0.05914 0.29699 0.0
C256 C 0.94337 0.9925 0.21013 0.0
O257 O 0.92128 0.01007 0.30738 0.0
O258 O 0.93808 0.95012 0.29656 0.0
C259 C 0.88231 0.89234 0.32244 0.0
N260 N 0.88379 0.89265 0.28442 0.0
C261 C 0.84053 0.83962 0.2795 0.0
C262 C 0.83878 0.8386 0.31859 0.0
C263 C 0.85973 0.8651 0.34013 0.0
C264 C 0.86376 0.86723 0.26341 0.0
H265 H 0.89808 0.9128 0.33918 0.0
C266 C 0.9399 0.98102 0.31562 0.0
O267 O 0.87488 0.06893 0.27569 0.0
O268 O 0.84155 0.02346 0.3023 0.0
N269 N 0.88716 0.89961 0.21219 0.0
C270 C 0.88978 0.90609 0.17486 0.0
C271 C 0.86943 0.88282 0.14948 0.0
C272 C 0.84662 0.85315 0.16269 0.0
C273 C 0.8444 0.847 0.2012 0.0
C274 C 0.86558 0.87089 0.22517 0.0
H275 H 0.90703 0.92902 0.16454 0.0
O276 O 0.84223 1.00526 0.22637 0.0
O277 O 0.87179 0.96181 0.25666 0.0
O278 O 0.92315 0.01705 0.22585 0.0
O279 O 0.94163 0.95769 0.2184 0.0
C280 C 0.82138 0.81859 0.21678 0.0
C281 C 0.8194 0.81493 0.25589 0.0
H282 H 0.82114 0.81784 0.33235 0.0
H283 H 0.85834 0.86465 0.37032 0.0
H284 H 0.87115 0.88787 0.1198 0.0
H285 H 0.83064 0.83552 0.14305 0.0
H286 H 0.80468 0.79975 0.19894 0.0
H287 H 0.80112 0.79336 0.26753 0.0
Mn288 Mn 0.25454 0.13299 0.52555 0.0
Mn289 Mn 0.1788 0.16913 0.4833 0.0
C290 C 0.1977 0.09967 0.52398 0.0
C291 C 0.30947 0.09879 0.52748 0.0
C292 C 0.2069 0.19573 0.5591 0.0
O293 O 0.27815 0.17314 0.49229 0.0
O294 O 0.22541 0.1951 0.46627 0.0
C295 C 0.19431 0.14355 0.40593 0.0
N296 N 0.17091 0.14485 0.4358 0.0
C297 C 0.12197 0.11135 0.40153 0.0
C298 C 0.14547 0.10977 0.37032 0.0
C299 C 0.18187 0.12577 0.37261 0.0
C300 C 0.13604 0.12914 0.43406 0.0
H301 H 0.2222 0.15606 0.4075 0.0
C302 C 0.26101 0.19519 0.47066 0.0
O303 O 0.30265 0.12513 0.55167 0.0
O304 O 0.28472 0.09274 0.50108 0.0
N305 N 0.13157 0.14672 0.49674 0.0
C306 C 0.1132 0.14892 0.52992 0.0
C307 C 0.07682 0.1332 0.53273 0.0
C308 C 0.05947 0.11606 0.50124 0.0
C309 C 0.07877 0.11461 0.46728 0.0
C310 C 0.11507 0.13042 0.46625 0.0
H311 H 0.12628 0.16246 0.55408 0.0
O312 O 0.22238 0.09338 0.54974 0.0
O313 O 0.20675 0.12542 0.50004 0.0
O314 O 0.23437 0.17377 0.56022 0.0
O315 O 0.18365 0.19597 0.53194 0.0
C316 C 0.0635 0.09791 0.43444 0.0
C317 C 0.0852 0.09588 0.4017 0.0
H318 H 0.13592 0.09622 0.34453 0.0
H319 H 0.20021 0.12459 0.34869 0.0
H320 H 0.06211 0.13446 0.55905 0.0
H321 H 0.0314 0.10397 0.5035 0.0
H322 H 0.03524 0.0861 0.43423 0.0
H323 H 0.07337 0.08226 0.37686 0.0
Mn324 Mn 0.38157 0.5139 0.76481 0.0
Mn325 Mn 0.4112 0.42539 0.75247 0.0
C326 C 0.34547 0.4693 0.73193 0.0
C327 C 0.34657 0.55894 0.79598 0.0
C328 C 0.44281 0.49172 0.70941 0.0
O329 O 0.42077 0.50988 0.80652 0.0
O330 O 0.43758 0.44992 0.79585 0.0
C331 C 0.3818 0.3923 0.82223 0.0
N332 N 0.38324 0.39233 0.78421 0.0
C333 C 0.34014 0.33914 0.77971 0.0
C334 C 0.33843 0.33841 0.81881 0.0
C335 C 0.35932 0.36513 0.84015 0.0
C336 C 0.36328 0.36669 0.7634 0.0
H337 H 0.39754 0.41293 0.83881 0.0
C338 C 0.43953 0.48092 0.81473 0.0
O339 O 0.37438 0.56859 0.77463 0.0
O340 O 0.34097 0.52328 0.8014 0.0
N341 N 0.38653 0.39875 0.71192 0.0
C342 C 0.38914 0.40493 0.67455 0.0
C343 C 0.36885 0.38141 0.64933 0.0
C344 C 0.34612 0.35179 0.66278 0.0
C345 C 0.34393 0.34593 0.70134 0.0
C346 C 0.36506 0.37006 0.72513 0.0
H347 H 0.40634 0.42782 0.66405 0.0
O348 O 0.34171 0.50478 0.7255 0.0
O349 O 0.37114 0.46133 0.75597 0.0
O350 O 0.42265 0.51637 0.72506 0.0
O351 O 0.44094 0.45693 0.71772 0.0
C352 C 0.32099 0.31758 0.71714 0.0
C353 C 0.31906 0.31421 0.75629 0.0
H354 H 0.32087 0.31771 0.83274 0.0
H355 H 0.35797 0.3649 0.87034 0.0
H356 H 0.37055 0.38623 0.61961 0.0
H357 H 0.33017 0.33397 0.64327 0.0
H358 H 0.30428 0.29859 0.69946 0.0
H359 H 0.30084 0.29269 0.76811 0.0
Mn360 Mn 0.76915 0.37966 0.5162 0.0
Mn361 Mn 0.75715 0.41004 0.42816 0.0
C362 C 0.73632 0.3432 0.47206 0.0
C363 C 0.79967 0.34457 0.56125 0.0
C364 C 0.71364 0.44015 0.49423 0.0
O365 O 0.81138 0.41973 0.51169 0.0
O366 O 0.80047 0.43725 0.45229 0.0
C367 C 0.82738 0.3827 0.39501 0.0
N368 N 0.78925 0.38323 0.39517 0.0
C369 C 0.78516 0.3411 0.34189 0.0
C370 C 0.82437 0.34032 0.34104 0.0
C371 C 0.84556 0.36117 0.36776 0.0
C372 C 0.76859 0.36328 0.36957 0.0
H373 H 0.84385 0.39846 0.41557 0.0
C374 C 0.81959 0.43912 0.48278 0.0
O375 O 0.77848 0.37217 0.57062 0.0
O376 O 0.80545 0.33931 0.52584 0.0
N377 N 0.71671 0.38469 0.40177 0.0
C378 C 0.67918 0.38638 0.40796 0.0
C379 C 0.65408 0.36603 0.3844 0.0
C380 C 0.6678 0.34422 0.35469 0.0
C381 C 0.70652 0.343 0.3488 0.0
C382 C 0.73018 0.3641 0.37301 0.0
H383 H 0.66847 0.40289 0.43088 0.0
O384 O 0.72957 0.33902 0.50735 0.0
O385 O 0.76057 0.36949 0.46395 0.0
O386 O 0.72944 0.42022 0.51873 0.0
O387 O 0.72201 0.43865 0.45959 0.0
C388 C 0.72259 0.32106 0.32032 0.0
C389 C 0.76187 0.32007 0.3169 0.0
H390 H 0.8385 0.32353 0.32024 0.0
H391 H 0.87584 0.36054 0.36742 0.0
H392 H 0.62424 0.36698 0.38923 0.0
H393 H 0.64837 0.32825 0.33681 0.0
H394 H 0.70501 0.30441 0.30124 0.0
H395 H 0.77389 0.30261 0.29527 0.0
Mn396 Mn 0.66283 0.01339 0.7576 0.0
Mn397 Mn 0.633 0.10242 0.75241 0.0
C398 C 0.6987 0.05928 0.72787 0.0
C399 C 0.69631 0.96613 0.78611 0.0
C400 C 0.60104 0.03786 0.70455 0.0
O401 O 0.62264 0.01548 0.79878 0.0
O402 O 0.60873 0.0768 0.79502 0.0
C403 C 0.66632 0.13346 0.82279 0.0
N404 N 0.66247 0.13476 0.78496 0.0
C405 C 0.70411 0.18906 0.78204 0.0
C406 C 0.70832 0.18842 0.82099 0.0
C407 C 0.6894 0.16044 0.84143 0.0
C408 C 0.68065 0.16149 0.765 0.0
H409 H 0.65203 0.11188 0.83862 0.0
C410 C 0.60556 0.04463 0.81051 0.0
O411 O 0.66925 0.95836 0.76264 0.0
O412 O 0.70241 1.00133 0.79491 0.0
N413 N 0.65532 0.13037 0.71259 0.0
C414 C 0.65036 0.12552 0.67502 0.0
C415 C 0.66831 0.15055 0.65051 0.0
C416 C 0.69102 0.18035 0.66484 0.0
C417 C 0.69555 0.18491 0.7036 0.0
C418 C 0.67671 0.15928 0.72668 0.0
H419 H 0.63296 0.10266 0.66382 0.0
O420 O 0.70317 0.02402 0.71989 0.0
O421 O 0.67338 0.06641 0.75258 0.0
O422 O 0.62298 0.01307 0.71639 0.0
O423 O 0.60127 0.07169 0.71709 0.0
C424 C 0.7186 0.21342 0.72019 0.0
C425 C 0.72297 0.21542 0.75937 0.0
H426 H 0.7263 0.20902 0.83544 0.0
H427 H 0.6927 0.15961 0.87148 0.0
H428 H 0.66476 0.14679 0.62062 0.0
H429 H 0.70512 0.19937 0.64583 0.0
H430 H 0.73359 0.23357 0.70305 0.0
H431 H 0.74129 0.23704 0.77174 0.0
Mn432 Mn 0.01465 0.26649 0.88434 0.0
Mn433 Mn 0.92685 0.24982 0.91504 0.0
C434 C 0.97102 0.234 0.84726 0.0
C435 C 0.05891 0.30035 0.85007 0.0
C436 C 0.99366 0.20672 0.94216 0.0
O437 O 0.01005 0.30635 0.92579 0.0
O438 O 0.95088 0.29241 0.94404 0.0
C439 C 0.89301 0.32099 0.8921 0.0
N440 N 0.89353 0.28273 0.89047 0.0
C441 C 0.84057 0.27982 0.84849 0.0
C442 C 0.83935 0.31915 0.84993 0.0
C443 C 0.86571 0.33982 0.8718 0.0
C444 C 0.86823 0.26256 0.86955 0.0
H445 H 0.91331 0.33709 0.90865 0.0
C446 C 0.98138 0.31242 0.94615 0.0
O447 O 0.06891 0.27811 0.87652 0.0
O448 O 0.02332 0.30531 0.84579 0.0
N449 N 0.90062 0.21009 0.88807 0.0
C450 C 0.90712 0.17254 0.88766 0.0
C451 C 0.88396 0.14804 0.86601 0.0
C452 C 0.85434 0.16235 0.84507 0.0
C453 C 0.84812 0.20107 0.84601 0.0
C454 C 0.87195 0.2241 0.8683 0.0
H455 H 0.92999 0.1614 0.90349 0.0
O456 O 1.00649 0.22861 0.84277 0.0
O457 O 0.96238 0.25671 0.87435 0.0
O458 O 0.01791 0.22471 0.92289 0.0
O459 O 0.95875 0.21372 0.94129 0.0
C460 C 0.81966 0.2178 0.82514 0.0
C461 C 0.81591 0.25713 0.82635 0.0
H462 H 0.81852 0.3338 0.83409 0.0
H463 H 0.86509 0.37021 0.8729 0.0
H464 H 0.88904 0.1182 0.8653 0.0
H465 H 0.83677 0.14341 0.82811 0.0
H466 H 0.80077 0.20077 0.80771 0.0
H467 H 0.79427 0.26971 0.80977 0.0
Mn468 Mn 0.51389 0.76694 0.3864 0.0
Mn469 Mn 0.42599 0.74905 0.41621 0.0
C470 C 0.47086 0.7347 0.34848 0.0
C471 C 0.55813 0.80187 0.3532 0.0
C472 C 0.49298 0.70605 0.443 0.0
O473 O 0.50874 0.80583 0.42861 0.0
O474 O 0.44945 0.79137 0.4461 0.0
C475 C 0.39173 0.82028 0.3941 0.0
N476 N 0.39257 0.78205 0.39192 0.0
C477 C 0.34001 0.77934 0.34944 0.0
C478 C 0.33846 0.81864 0.35146 0.0
C479 C 0.36446 0.83919 0.37386 0.0
C480 C 0.36761 0.762 0.37049 0.0
H481 H 0.41178 0.83628 0.41105 0.0
C482 C 0.47991 0.81138 0.44888 0.0
O483 O 0.56812 0.77917 0.37925 0.0
O484 O 0.52253 0.80662 0.34873 0.0
N485 N 0.40029 0.70952 0.38847 0.0
C486 C 0.40711 0.67204 0.38756 0.0
C487 C 0.38434 0.64768 0.36535 0.0
C488 C 0.3548 0.66206 0.34436 0.0
C489 C 0.34824 0.70071 0.34583 0.0
C490 C 0.37167 0.72359 0.36869 0.0
H491 H 0.42994 0.66085 0.40341 0.0
O492 O 0.50643 0.72981 0.34411 0.0
O493 O 0.46176 0.75689 0.37584 0.0
O494 O 0.51721 0.72447 0.42411 0.0
O495 O 0.45802 0.71283 0.44211 0.0
C496 C 0.31986 0.71752 0.32492 0.0
C497 C 0.31577 0.7568 0.32672 0.0
H498 H 0.31765 0.83336 0.33565 0.0
H499 H 0.36358 0.86955 0.3754 0.0
H500 H 0.38968 0.6179 0.36424 0.0
H501 H 0.33755 0.64324 0.32696 0.0
H502 H 0.30134 0.70059 0.307 0.0
H503 H 0.29422 0.76948 0.31012 0.0
Mn504 Mn 0.01624 0.75656 0.64347 0.0
Mn505 Mn 0.98098 0.67419 0.67607 0.0
C506 C 0.02018 0.70118 0.60819 0.0
C507 C 0.01229 0.81265 0.61067 0.0
C508 C 0.05372 0.71031 0.70422 0.0
O509 O 0.98027 0.77405 0.68428 0.0
O510 O 0.95798 0.71724 0.70215 0.0
C511 C 0.90263 0.67959 0.64949 0.0
N512 N 0.93517 0.66062 0.6508 0.0
C513 C 0.90756 0.60826 0.61609 0.0
C514 C 0.8737 0.62718 0.61444 0.0
C515 C 0.8713 0.66309 0.63105 0.0
C516 C 0.93791 0.62625 0.63456 0.0
H517 H 0.90059 0.70704 0.66252 0.0
C518 C 0.9588 0.75326 0.7043 0.0
O519 O 0.03681 0.80861 0.63701 0.0
O520 O 0.98902 0.78454 0.60407 0.0
N521 N 1.00053 0.63016 0.65293 0.0
C522 C 0.03585 0.6168 0.65492 0.0
C523 C 0.04339 0.58175 0.63847 0.0
C524 C 0.01443 0.56057 0.62071 0.0
C525 C 0.97824 0.57479 0.61933 0.0
C526 C 0.97249 0.61003 0.63589 0.0
H527 H 0.05813 0.63282 0.66884 0.0
O528 O 0.04369 0.72908 0.60285 0.0
O529 O 0.99561 0.70625 0.63419 0.0
O530 O 0.05292 0.73885 0.68325 0.0
O531 O 0.02822 0.68448 0.70379 0.0
C532 C 0.94772 0.55551 0.60194 0.0
C533 C 0.91248 0.57234 0.59998 0.0
H534 H 0.84943 0.61449 0.60037 0.0
H535 H 0.84529 0.67791 0.62983 0.0
H536 H 0.07141 0.57101 0.63962 0.0
H537 H 0.02032 0.53353 0.60807 0.0
H538 H 0.95126 0.52796 0.58943 0.0
H539 H 0.88945 0.55754 0.58578 0.0
Mn540 Mn 0.51898 0.25757 0.14218 0.0
Mn541 Mn 0.47949 0.17904 0.17901 0.0
C542 C 0.52048 0.20054 0.10987 0.0
C543 C 0.51766 0.31242 0.10719 0.0
C544 C 0.55449 0.21136 0.20455 0.0
O545 O 0.48409 0.27904 0.18149 0.0
O546 O 0.46103 0.22472 0.20514 0.0
C547 C 0.40145 0.19091 0.15437 0.0
N548 N 0.43206 0.16897 0.15536 0.0
C549 C 0.39941 0.11906 0.12131 0.0
C550 C 0.36747 0.14103 0.1201 0.0
C551 C 0.36856 0.17717 0.13656 0.0
C552 C 0.43142 0.13431 0.13931 0.0
H553 H 0.40212 0.21864 0.1671 0.0
C554 C 0.46363 0.26068 0.20437 0.0
O555 O 0.54208 0.30821 0.13362 0.0
O556 O 0.49337 0.28502 0.10138 0.0
N557 N 0.49425 0.13262 0.15663 0.0
C558 C 0.52805 0.11589 0.15845 0.0
C559 C 0.53205 0.08003 0.14226 0.0
C560 C 0.50115 0.06151 0.12491 0.0
C561 C 0.46654 0.0791 0.12382 0.0
C562 C 0.46428 0.11492 0.14027 0.0
H563 H 0.55182 0.12992 0.17194 0.0
O564 O 0.54531 0.227 0.10344 0.0
O565 O 0.49574 0.20802 0.13525 0.0
O566 O 0.55429 0.23975 0.18327 0.0
O567 O 0.52827 0.18625 0.20473 0.0
C568 C 0.4343 0.06268 0.1067 0.0
C569 C 0.40085 0.08276 0.10514 0.0
H570 H 0.34203 0.13052 0.10643 0.0
H571 H 0.34406 0.19435 0.13562 0.0
H572 H 0.55887 0.06665 0.14321 0.0
H573 H 0.50437 0.0339 0.11235 0.0
H574 H 0.43507 0.0348 0.0942 0.0
H575 H 0.37646 0.07009 0.09125 0.0
C576 C 0.18713 0.76674 0.91262 0.0
C577 C 0.21769 0.75285 0.89237 0.0
H578 H 0.16875 0.80635 0.9543 0.0
C579 C 0.25375 0.76792 0.90001 0.0
H580 H 0.15906 0.75529 0.90779 0.0
C581 C 0.25907 0.79668 0.92647 0.0
C582 C 0.22849 0.81153 0.94548 0.0
H583 H 0.27786 0.75833 0.88475 0.0
H584 H 0.28721 0.80789 0.93156 0.0
C585 C 0.19257 0.7957 0.9393 0.0
C586 C 0.0465 0.57982 0.38834 0.0
C587 C 0.03786 0.5463 0.40693 0.0
H588 H 0.07408 0.60628 0.34281 0.0
C589 C 0.05101 0.5123 0.39202 0.0
H590 H 0.03629 0.60639 0.39868 0.0
C591 C 0.07308 0.5121 0.3596 0.0
C592 C 0.08188 0.54586 0.34116 0.0
H593 H 0.04474 0.486 0.40578 0.0
H594 H 0.08324 0.48561 0.34905 0.0
C595 C 0.06801 0.57962 0.35597 0.0
C596 C 0.79277 0.7914 0.93338 0.0
C597 C 0.81197 0.7786 0.90156 0.0
H598 H 0.76182 0.77618 0.98238 0.0
C599 C 0.81915 0.73984 0.89837 0.0
H600 H 0.78737 0.82095 0.93751 0.0
C601 C 0.80592 0.71459 0.92506 0.0
C602 C 0.78452 0.72731 0.95506 0.0
H603 H 0.83295 0.72833 0.87409 0.0
H604 H 0.80999 0.68477 0.92072 0.0
C605 C 0.77861 0.76591 0.95947 0.0
C606 C 0.99572 0.94535 0.39755 0.0
C607 C 0.99995 0.97747 0.42052 0.0
H608 H 0.97451 0.92146 0.34651 0.0
C609 C 0.98569 0.0116 0.40819 0.0
H610 H 1.00688 0.91882 0.40612 0.0
C611 C 0.96687 0.01331 0.37374 0.0
C612 C 0.96234 0.98097 0.35081 0.0
H613 H 0.98841 0.03671 0.42556 0.0
H614 H 0.95549 0.03979 0.36535 0.0
C615 C 0.97741 0.94709 0.36313 0.0
C616 C 0.23086 0.26011 0.64166 0.0
C617 C 0.1971 0.27855 0.64741 0.0
H618 H 0.26027 0.21931 0.60974 0.0
C619 C 0.16601 0.2688 0.62466 0.0
H620 H 0.25512 0.26673 0.65909 0.0
C621 C 0.16897 0.24172 0.59604 0.0
C622 C 0.2029 0.22341 0.59014 0.0
H623 H 0.13966 0.28264 0.62855 0.0
H624 H 0.14471 0.23515 0.57857 0.0
C625 C 0.23368 0.23271 0.61354 0.0
C626 C 0.50697 0.4883 0.62498 0.0
C627 C 0.51339 0.52669 0.61767 0.0
H628 H 0.48006 0.44718 0.65948 0.0
C629 C 0.49767 0.55342 0.64191 0.0
H630 H 0.51813 0.46686 0.60672 0.0
C631 C 0.47536 0.54212 0.67197 0.0
C632 C 0.46839 0.50374 0.67887 0.0
H633 H 0.50255 0.58322 0.63767 0.0
H634 H 0.46339 0.56356 0.68969 0.0
C635 C 0.48491 0.47699 0.65523 0.0
C636 C 0.82559 0.25224 0.60428 0.0
C637 C 0.82607 0.26144 0.64255 0.0
H638 H 0.81812 0.27172 0.54849 0.0
C639 C 0.8202 0.29881 0.65387 0.0
H640 H 0.83022 0.22366 0.5949 0.0
C641 C 0.81272 0.32625 0.62742 0.0
C642 C 0.8119 0.31701 0.5891 0.0
H643 H 0.82035 0.30654 0.68328 0.0
H644 H 0.80706 0.35455 0.63699 0.0
C645 C 0.81903 0.27985 0.57779 0.0
C646 C 0.51312 0.0296 0.64492 0.0
C647 C 0.52441 1.00634 0.61492 0.0
H648 H 0.52858 0.05828 0.69618 0.0
C649 C 0.56145 0.99367 0.61514 0.0
H650 H 0.48471 0.03919 0.64677 0.0
C651 C 0.58606 1.00346 0.64455 0.0
C652 C 0.5747 0.02705 0.67393 0.0
H653 H 0.57178 0.97647 0.59245 0.0
H654 H 0.61433 0.99319 0.6439 0.0
C655 C 0.53813 0.04032 0.67366 0.0
C656 C 0.90052 0.25193 0.77161 0.0
C657 C 0.89594 0.21636 0.75437 0.0
H658 H 0.92803 0.28504 0.81455 0.0
C659 C 0.9173 0.1865 0.76741 0.0
H660 H 0.88425 0.2754 0.76262 0.0
C661 C 0.94203 0.19199 0.79764 0.0
C662 C 0.94517 0.22718 0.81564 0.0
H663 H 0.91473 0.15887 0.75437 0.0
H664 H 0.95805 0.16866 0.80742 0.0
C665 C 0.92506 0.2573 0.80176 0.0
C666 C 0.44455 0.88783 0.51372 0.0
C667 C 0.47615 0.91192 0.51791 0.0
H668 H 0.42108 0.83724 0.48952 0.0
C669 C 0.51006 0.90135 0.50151 0.0
H670 H 0.41817 0.89492 0.52647 0.0
C671 C 0.51185 0.86812 0.48001 0.0
C672 C 0.47983 0.84455 0.47483 0.0
H673 H 0.53488 0.91945 0.50423 0.0
H674 H 0.53806 0.86139 0.46677 0.0
C675 C 0.44638 0.85455 0.49266 0.0
C676 C 0.1505 0.32186 0.80135 0.0
C677 C 0.13821 0.32716 0.76449 0.0
H678 H 0.13487 0.30915 0.85762 0.0
C679 C 0.09968 0.32702 0.75678 0.0
H680 H 0.18017 0.3218 0.80788 0.0
C681 C 0.0738 0.32085 0.78536 0.0
C682 C 0.08607 0.31376 0.82195 0.0
H683 H 0.08964 0.33122 0.72857 0.0
H684 H 0.04422 0.31977 0.77838 0.0
C685 C 0.12465 0.31477 0.82977 0.0
C686 C 0.55673 0.63916 0.49342 0.0
C687 C 0.5309 0.61327 0.5089 0.0
H688 H 0.56523 0.68857 0.46085 0.0
C689 C 0.49241 0.61856 0.50282 0.0
H690 H 0.58653 0.63642 0.49792 0.0
C691 C 0.48012 0.64884 0.48195 0.0
C692 C 0.50597 0.67456 0.46628 0.0
H693 H 0.47164 0.59891 0.51369 0.0
H694 H 0.4503 0.6517 0.47766 0.0
C695 C 0.54445 0.6693 0.47232 0.0
C696 C 0.90535 0.82485 0.76255 0.0
C697 C 0.88201 0.80092 0.78375 0.0
H698 H 0.94844 0.82878 0.72089 0.0
C699 C 0.88383 0.76193 0.77791 0.0
H700 H 0.90444 0.85506 0.76639 0.0
C701 C 0.9087 0.74702 0.7523 0.0
C702 C 0.93265 0.77058 0.73138 0.0
H703 H 0.86561 0.74268 0.79299 0.0
H704 H 0.9089 0.71672 0.74895 0.0
C705 C 0.93059 0.80979 0.73665 0.0
C706 C 1.0089 0.87487 0.52601 0.0
C707 C 0.02398 0.90938 0.54018 0.0
H708 H 0.99253 0.81771 0.53734 0.0
C709 C 0.03234 0.91214 0.5787 0.0
H710 H 1.00271 0.87094 0.49656 0.0
C711 C 0.02762 0.88098 0.60178 0.0
C712 C 0.01331 0.84657 0.58727 0.0
H713 H 0.04296 0.93826 0.59117 0.0
H714 H 0.03547 0.88375 0.631 0.0
C715 C 1.00317 0.84406 0.54938 0.0
C716 C 0.13844 0.73548 0.7651 0.0
C717 C 0.14607 0.70083 0.78139 0.0
H718 H 0.10366 0.76562 0.72779 0.0
C719 C 0.12345 0.66917 0.77175 0.0
H720 H 0.15565 0.76029 0.77173 0.0
C721 C 0.09341 0.67224 0.7468 0.0
C722 C 0.08572 0.70694 0.73049 0.0
H723 H 0.12861 0.64216 0.78402 0.0
H724 H 0.07632 0.64735 0.7402 0.0
C725 C 0.10878 0.73846 0.73976 0.0
C726 C 0.0408 0.62063 0.54133 0.0
C727 C 1.00475 0.61144 0.5271 0.0
H728 H 0.07406 0.65644 0.57845 0.0
C729 C 0.97453 0.63307 0.53885 0.0
H730 H 0.06467 0.60457 0.53277 0.0
C731 C 0.97997 0.6624 0.56484 0.0
C732 C 0.01559 0.67054 0.58013 0.0
H733 H 0.9466 0.62749 0.52776 0.0
H734 H 0.95615 0.67867 0.57321 0.0
C735 C 0.04621 0.65016 0.56745 0.0
C736 C 0.76877 0.89965 0.25322 0.0
C737 C 0.7532 0.89202 0.21772 0.0
H738 H 0.81009 0.93053 0.28537 0.0
C739 C 0.76798 0.91113 0.18667 0.0
H740 H 0.75851 0.88512 0.27764 0.0
C741 C 0.79805 0.93706 0.19116 0.0
C742 C 0.81409 0.94346 0.22659 0.0
H743 H 0.75624 0.90611 0.15901 0.0
H744 H 0.80925 0.9514 0.16703 0.0
C745 C 0.79865 0.92528 0.2576 0.0
C746 C 0.80143 0.15168 0.31872 0.0
C747 C 0.76399 0.13988 0.32423 0.0
H748 H 0.85727 0.13528 0.30561 0.0
C749 C 0.75472 0.10131 0.32348 0.0
H750 H 0.80919 0.18135 0.31912 0.0
C751 C 0.78233 0.07496 0.31678 0.0
C752 C 0.81955 0.08677 0.30978 0.0
H753 H 0.72607 0.0916 0.32784 0.0
H754 H 0.77418 0.0454 0.31552 0.0
C755 C 0.82889 0.12538 0.31111 0.0
C756 C 0.41141 0.98592 0.01521 0.0
C757 C 0.42386 1.00202 0.98164 0.0
H758 H 0.36857 0.95316 0.04264 0.0
C759 C 0.40101 0.99813 0.94975 0.0
H760 H 0.4285 0.98844 0.04026 0.0
C761 C 0.36671 0.97843 0.95115 0.0
C762 C 0.35427 0.9617 0.98447 0.0
H763 H 0.40942 0.01081 0.92368 0.0
H764 H 0.35019 0.97597 0.92571 0.0
C765 C 0.37706 0.96578 0.01658 0.0
C766 C 0.23601 0.37309 0.30795 0.0
C767 C 0.27369 0.38255 0.31608 0.0
H768 H 0.18223 0.3928 0.29159 0.0
C769 C 0.28557 0.42047 0.31599 0.0
H770 H 0.22625 0.34397 0.30783 0.0
C771 C 0.26021 0.44849 0.30766 0.0
C772 C 0.22274 0.43895 0.29841 0.0
H773 H 0.31445 0.4284 0.32237 0.0
H774 H 0.27027 0.47749 0.30723 0.0
C775 C 0.21087 0.40098 0.29876 0.0
C776 C 0.12928 0.03196 0.47565 0.0
C777 C 0.10496 0.02186 0.50482 0.0
H778 H 0.17787 0.06419 0.4592 0.0
C779 C 0.11222 0.03684 0.54089 0.0
H780 H 0.12512 0.02029 0.44775 0.0
C781 C 0.14257 0.06202 0.54735 0.0
C782 C 0.16572 0.07313 0.51775 0.0
H783 H 0.09402 0.02966 0.56396 0.0
H784 H 0.1474 0.07352 0.57523 0.0
C785 C 0.15945 0.05712 0.48213 0.0
C786 C 0.76776 0.12237 0.67638 0.0
C787 C 0.78474 0.14255 0.70648 0.0
H788 H 0.72704 0.0794 0.65954 0.0
C789 C 0.77387 0.13371 0.74308 0.0
H790 H 0.77581 0.12818 0.64789 0.0
C791 C 0.74635 0.10621 0.74951 0.0
C792 C 0.72852 0.08714 0.71959 0.0
H793 H 0.78578 0.14879 0.76699 0.0
H794 H 0.73842 0.10036 0.77806 0.0
C795 C 0.74009 0.09445 0.68296 0.0
C796 C 0.38866 0.03221 0.50697 0.0
C797 C 0.40687 0.03116 0.54203 0.0
H798 H 0.3434 0.05415 0.47477 0.0
C799 C 0.39245 0.05269 0.57169 0.0
H800 H 0.39904 0.01648 0.48326 0.0
C801 C 0.36137 0.07491 0.56646 0.0
C802 C 0.34308 0.07571 0.53167 0.0
H803 H 0.40469 0.05196 0.5994 0.0
H804 H 0.35115 0.09091 0.59012 0.0
C805 C 0.35689 0.054 0.50195 0.0
C806 C 0.64587 0.49372 0.55565 0.0
C807 C 0.62123 0.50855 0.52917 0.0
H808 H 0.69413 0.46083 0.56562 0.0
C809 C 0.6283 0.5018 0.49102 0.0
H810 H 0.6419 0.49885 0.58524 0.0
C811 C 0.65874 0.48048 0.47972 0.0
C812 C 0.68282 0.46493 0.50625 0.0
H813 H 0.60976 0.51216 0.46973 0.0
H814 H 0.66279 0.47544 0.45012 0.0
C815 C 0.6761 0.47207 0.54437 0.0
C816 C 0.68759 0.26679 0.41331 0.0
C817 C 0.71802 0.25279 0.39295 0.0
H818 H 0.66949 0.30663 0.45492 0.0
C819 C 0.75413 0.26787 0.4003 0.0
H820 H 0.6595 0.25534 0.40868 0.0
C821 C 0.75963 0.29677 0.42657 0.0
C822 C 0.72917 0.31172 0.4457 0.0
H823 H 0.77814 0.2582 0.38493 0.0
H824 H 0.7878 0.30802 0.4314 0.0
C825 C 0.69321 0.29587 0.43983 0.0
C826 C 0.54833 0.07674 0.89347 0.0
C827 C 0.53913 0.04303 0.91145 0.0
H828 H 0.57572 0.10361 0.84818 0.0
C829 C 0.55133 1.00903 0.89558 0.0
H830 H 0.53882 0.10335 0.90443 0.0
C831 C 0.5729 1.00901 0.86275 0.0
C832 C 0.58213 0.04298 0.84489 0.0
H833 H 0.5446 0.98254 0.9088 0.0
H834 H 0.58225 0.98251 0.8514 0.0
C835 C 0.56933 0.07674 0.86079 0.0
C836 C 0.29134 0.28546 0.42585 0.0
C837 C 0.30805 0.27228 0.39278 0.0
H838 H 0.26341 0.27095 0.47675 0.0
C839 C 0.31377 0.23339 0.38861 0.0
H840 H 0.28723 0.3152 0.43052 0.0
C841 C 0.30131 0.20829 0.41588 0.0
C842 C 0.28258 0.22155 0.44752 0.0
H843 H 0.32596 0.22199 0.3634 0.0
H844 H 0.30404 0.17836 0.41103 0.0
C845 C 0.27825 0.26029 0.45265 0.0
C846 C 0.48757 0.51242 0.90596 0.0
C847 C 0.50189 0.47834 0.91839 0.0
H848 H 0.45649 0.54024 0.86348 0.0
C849 C 0.49698 0.44599 0.89582 0.0
H850 H 0.49089 0.53777 0.92294 0.0
C851 C 0.47783 0.44741 0.86184 0.0
C852 C 0.46261 0.48119 0.84953 0.0
H853 H 0.50821 0.41948 0.90437 0.0
H854 H 0.47443 0.42158 0.84559 0.0
C855 C 0.46789 0.5138 0.87195 0.0
C856 C 0.7298 0.75974 0.14709 0.0
C857 C 0.69629 0.7788 0.15219 0.0
H858 H 0.75912 0.71858 0.1156 0.0
C859 C 0.66538 0.76943 0.12909 0.0
H860 H 0.75386 0.76605 0.16488 0.0
C861 C 0.66837 0.74229 0.10056 0.0
C862 C 0.70215 0.72359 0.09508 0.0
H863 H 0.63922 0.78373 0.13254 0.0
H864 H 0.64433 0.73616 0.08266 0.0
C865 C 0.73264 0.7323 0.11904 0.0
C866 C 0.99752 0.05439 0.14218 0.0
C867 C 0.01327 0.02771 0.11791 0.0
H868 H 0.96347 0.06443 0.19016 0.0
C869 C 1.00702 0.98931 0.1253 0.0
H870 H 1.00224 0.0842 0.13788 0.0
C871 C 0.98522 0.97793 0.15571 0.0
C872 C 0.96874 1.00463 0.17943 0.0
H873 H 0.01817 0.96788 0.10702 0.0
H874 H 0.98054 0.94811 0.16002 0.0
C875 C 0.97544 0.04302 0.1724 0.0
C876 C 0.32046 0.79802 0.15399 0.0
C877 C 0.32739 0.76094 0.14243 0.0
H878 H 0.30569 0.85341 0.13743 0.0
C879 C 0.32715 0.75197 0.10412 0.0
H880 H 0.32036 0.80555 0.18345 0.0
C881 C 0.31973 0.77949 0.0778 0.0
C882 C 0.3115 0.81631 0.08934 0.0
H883 H 0.33254 0.72359 0.09457 0.0
H884 H 0.31902 0.77151 0.04847 0.0
C885 C 0.31214 0.82536 0.12771 0.0
C886 C 0.04156 0.47939 0.13463 0.0
C887 C 0.02632 0.5067 0.11143 0.0
H888 H 0.07717 0.468 0.18119 0.0
C889 C 0.03658 0.54472 0.1182 0.0
H890 H 0.03387 0.44991 0.1308 0.0
C891 C 0.06078 0.55518 0.1477 0.0
C892 C 0.07588 0.52787 0.17092 0.0
H893 H 0.02605 0.56656 0.1006 0.0
H894 H 0.06792 0.58472 0.152 0.0
C895 C 0.06617 0.48981 0.16383 0.0
C896 C 0.40054 0.75191 0.27241 0.0
C897 C 0.3968 0.71642 0.25486 0.0
H898 H 0.42707 0.78519 0.31585 0.0
C899 C 0.41857 0.68687 0.26791 0.0
H900 H 0.38395 0.77514 0.2634 0.0
C901 C 0.44291 0.69258 0.29841 0.0
C902 C 0.44525 0.72767 0.3167 0.0
H903 H 0.41665 0.65931 0.25464 0.0
H904 H 0.45929 0.6695 0.30816 0.0
C905 C 0.42471 0.7575 0.30284 0.0
C906 C 0.94641 0.38947 0.01051 0.0
C907 C 0.97762 0.41425 0.01339 0.0
H908 H 0.92329 0.33801 0.98797 0.0
C909 C 0.01121 0.40414 0.99601 0.0
H910 H 0.92034 0.39612 0.0241 0.0
C911 C 0.01304 0.37057 0.97502 0.0
C912 C 0.98142 0.3462 0.97135 0.0
H913 H 0.03574 0.42273 0.99773 0.0
H914 H 0.03898 0.36414 0.96109 0.0
C915 C 0.94831 0.3559 0.98996 0.0
C916 C 0.59924 0.82974 0.2605 0.0
C917 C 0.63774 0.82959 0.26832 0.0
H918 H 0.54371 0.82246 0.28183 0.0
C919 C 0.6499 0.82407 0.30518 0.0
H920 H 0.58932 0.8341 0.23228 0.0
C921 C 0.62393 0.81683 0.33345 0.0
C922 C 0.58537 0.8159 0.32547 0.0
H923 H 0.67955 0.82378 0.31176 0.0
H924 H 0.63404 0.81089 0.36127 0.0
C925 C 0.57325 0.82344 0.28893 0.0
C926 C 0.05711 0.13991 0.99319 0.0
C927 C 0.03117 0.11431 0.00897 0.0
H928 H 0.06585 0.18896 0.96012 0.0
C929 C 0.99271 0.11984 1.00296 0.0
H930 H 0.0869 0.13702 0.99763 0.0
C931 C 0.98057 0.15002 0.98184 0.0
C932 C 1.00652 0.17542 0.96582 0.0
H933 H 0.97184 0.10044 0.01404 0.0
H934 H 0.95075 0.15304 0.97759 0.0
C935 C 0.04498 0.16995 0.97184 0.0
C936 C 0.38249 0.3138 0.24327 0.0
C937 C 0.38686 0.30847 0.28201 0.0
H938 H 0.40411 0.30339 0.18827 0.0
C939 C 0.41961 0.29137 0.2947 0.0
H940 H 0.35757 0.32627 0.23217 0.0
C941 C 0.44559 0.27737 0.26934 0.0
C942 C 0.44015 0.28133 0.23084 0.0
H943 H 0.42468 0.28763 0.32423 0.0
H944 H 0.46946 0.2625 0.27977 0.0
C945 C 0.40906 0.3006 0.21798 0.0
C946 C 0.51397 0.37475 0.0226 0.0
C947 C 0.52847 0.40941 0.03698 0.0
H948 H 0.4984 0.3173 0.03368 0.0
C949 C 0.53704 0.41202 0.07546 0.0
H950 H 0.50766 0.37096 0.99316 0.0
C951 C 0.53296 0.38066 0.09832 0.0
C952 C 0.51904 0.34618 0.08365 0.0
H953 H 0.5472 0.43823 0.0881 0.0
H954 H 0.54076 0.3834 0.12756 0.0
C955 C 0.50883 0.34371 0.04578 0.0
C956 C 0.63944 0.23558 0.26536 0.0
C957 C 0.64654 0.20091 0.28187 0.0
H958 H 0.6052 0.26601 0.22782 0.0
C959 C 0.6236 0.16947 0.27226 0.0
H960 H 0.65691 0.26021 0.27197 0.0
C961 C 0.59369 0.17282 0.24718 0.0
C962 C 0.58651 0.20756 0.2307 0.0
H963 H 0.62837 0.14245 0.28468 0.0
H964 H 0.57628 0.14813 0.24063 0.0
C965 C 0.60995 0.23882 0.23989 0.0
C966 C 0.475 0.13045 0.04217 0.0
C967 C 0.50527 0.10835 0.03143 0.0
H968 H 0.45646 0.1772 0.07493 0.0
C969 C 0.54107 0.11744 0.04626 0.0
H970 H 0.44726 0.1249 0.03058 0.0
C971 C 0.54622 0.14747 0.07184 0.0
C972 C 0.5156 0.16851 0.08339 0.0
H973 H 0.56496 0.10105 0.03845 0.0
H974 H 0.57394 0.15382 0.08311 0.0
C975 C 0.4802 0.16035 0.0676 0.0
C976 C 0.26845 0.39843 0.75079 0.0
C977 C 0.25331 0.39107 0.71504 0.0
H978 H 0.30917 0.42927 0.78373 0.0
C979 C 0.2683 0.41065 0.68438 0.0
H980 H 0.25805 0.38355 0.77494 0.0
C981 C 0.29816 0.43674 0.68949 0.0
C982 C 0.31378 0.44285 0.72515 0.0
H983 H 0.25689 0.40589 0.65655 0.0
H984 H 0.30953 0.45142 0.66565 0.0
C985 C 0.29809 0.42424 0.75578 0.0
C986 C 0.25442 0.60147 0.8227 0.0
C987 C 0.2638 0.64002 0.82338 0.0
H988 H 0.27368 0.54549 0.81472 0.0
C989 C 0.30126 0.65169 0.81774 0.0
H990 H 0.22576 0.59185 0.82716 0.0
C991 C 0.32861 0.62529 0.81004 0.0
C992 C 0.31915 0.58669 0.80878 0.0
H993 H 0.30911 0.68134 0.81809 0.0
H994 H 0.357 0.6351 0.80445 0.0
C995 C 0.28193 0.57502 0.81592 0.0
C996 C 0.91208 0.48787 0.51192 0.0
C997 C 0.9235 0.50439 0.4782 0.0
H998 H 0.87038 0.45432 0.54014 0.0
C999 C 0.90002 0.50027 0.4468 0.0
H1000 H 0.92973 0.49044 0.53654 0.0
C1001 C 0.86605 0.48003 0.44888 0.0
C1002 C 0.8546 0.46296 0.48239 0.0
H1003 H 0.90766 0.51318 0.42062 0.0
H1004 H 0.849 0.47746 0.42379 0.0
C1005 C 0.87807 0.46721 0.51398 0.0
C1006 C 0.77137 0.91562 0.83969 0.0
C1007 C 0.77485 0.88278 0.81784 0.0
H1008 H 0.74386 0.96816 0.8466 0.0
C1009 C 0.75125 0.87675 0.78673 0.0
H1010 H 0.78919 0.92064 0.86397 0.0
C1011 C 0.72469 0.90323 0.77745 0.0
C1012 C 0.72177 0.93665 0.79862 0.0
H1013 H 0.75323 0.85141 0.76975 0.0
H1014 H 0.70716 0.89796 0.75301 0.0
C1015 C 0.74539 0.94262 0.82986 0.0
C1016 C 0.63066 0.53531 0.97434 0.0
C1017 C 0.60629 0.52425 1.00312 0.0
H1018 H 0.67917 0.56834 0.95905 0.0
C1019 C 0.61304 0.53855 0.03953 0.0
H1020 H 0.62682 0.5242 0.94618 0.0
C1021 C 0.64306 0.56385 0.04678 0.0
C1022 C 0.6664 0.5758 0.01766 0.0
H1023 H 0.59476 0.53061 0.06229 0.0
H1024 H 0.64758 0.57471 0.07495 0.0
C1025 C 0.66056 0.5606 0.98163 0.0
C1026 C 0.27579 0.63244 0.24133 0.0
C1027 C 0.28738 0.64118 0.20494 0.0
H1028 H 0.23927 0.59958 0.27565 0.0
C1029 C 0.27089 0.62103 0.17455 0.0
H1030 H 0.28729 0.64755 0.26543 0.0
C1031 C 0.24282 0.59337 0.18061 0.0
C1032 C 0.23039 0.58632 0.217 0.0
H1033 H 0.27948 0.62681 0.14621 0.0
H1034 H 0.22999 0.57851 0.15696 0.0
C1035 C 0.24789 0.60522 0.24725 0.0
C1036 C 0.88856 0.53409 1.00793 0.0
C1037 C 0.90594 0.53094 0.04321 0.0
H1038 H 0.84439 0.55833 0.97599 0.0
C1039 C 0.89085 0.55076 0.0737 0.0
H1040 H 0.89947 0.5197 0.98362 0.0
C1041 C 0.86012 0.57362 0.06901 0.0
C1042 C 0.84285 0.57672 0.03389 0.0
H1043 H 0.90241 0.54835 0.10155 0.0
H1044 H 0.84942 0.58838 0.09323 0.0
C1045 C 0.85713 0.55646 1.00341 0.0
C1046 C 0.12828 1.0024 0.99143 0.0
C1047 C 0.1211 1.00917 0.02956 0.0
H1048 H 0.16269 0.97574 0.95066 0.0
C1049 C 0.14549 0.99407 0.05612 0.0
H1050 H 0.10994 0.01295 0.97008 0.0
C1051 C 0.17552 0.9721 0.04495 0.0
C1052 C 0.18233 0.96492 1.00686 0.0
H1053 H 0.14147 0.99922 0.0857 0.0
H1054 H 0.19335 0.96065 0.06626 0.0
C1055 C 0.15855 0.98077 0.98025 0.0
loop_
_geom_bond_atom_site_label_1
_geom_bond_atom_site_label_2
_geom_bond_distance
_geom_bond_site_symmetry_2
_ccdc_geom_bond_type
H0 C3 0.931 1_655 S
H1 C6 0.928 1_565 S
H2 C8 0.930 1_556 S
C3 H0 0.931 1_455 S
C3 C4 1.413 . S
C3 C5 1.360 . S
C4 C3 1.413 . S
C4 C8 1.429 . S
C5 C3 1.360 . S
C5 C6 1.372 . S
C6 H1 0.928 1_545 S
C6 C5 1.372 . S
C6 C7 1.404 . S
C7 C6 1.404 . S
C7 C8 1.391 . S
C8 H2 0.930 1_554 S
C8 C4 1.429 . S
C8 C7 1.391 . S
H9 C12 0.931 . S
H10 C15 0.928 . S
H11 C17 0.930 . S
C12 H9 0.931 . S
C12 C13 1.413 . S
C12 C14 1.360 . S
C13 C12 1.413 . S
C13 C17 1.429 . S
C14 C12 1.360 . S
C14 C15 1.372 . S
C15 H10 0.928 . S
C15 C14 1.372 . S
C15 C16 1.404 . S
C16 C15 1.404 . S
C16 C17 1.391 . S
C17 H11 0.930 . S
C17 C13 1.429 . S
C17 C16 1.391 . S
H18 C21 0.931 . S
H19 C24 0.928 1_455 S
H20 C26 0.930 1_556 S
C21 H18 0.931 . S
C21 C22 1.413 . S
C21 C23 1.360 . S
C22 C21 1.413 . S
C22 C26 1.429 . S
C23 C21 1.360 . S
C23 C24 1.372 . S
C24 H19 0.928 1_655 S
C24 C23 1.372 . S
C24 C25 1.404 . S
C25 C24 1.404 . S
C25 C26 1.391 . S
C26 H20 0.930 1_554 S
C26 C22 1.429 . S
C26 C25 1.391 . S
H27 C30 0.931 . S
H28 C33 0.928 . S
H29 C35 0.930 . S
C30 H27 0.931 . S
C30 C31 1.413 . S
C30 C32 1.360 . S
C31 C30 1.413 . S
C31 C35 1.429 . S
C32 C30 1.360 . S
C32 C33 1.372 . S
C33 H28 0.928 . S
C33 C32 1.372 . S
C33 C34 1.404 . S
C34 C33 1.404 . S
C34 C35 1.391 . S
C35 H29 0.930 . S
C35 C31 1.429 . S
C35 C34 1.391 . S
H36 C39 0.931 1_655 S
H37 C42 0.947 . S
H38 C44 0.930 . S
C39 H36 0.931 1_455 S
C39 C40 1.413 . S
C39 C41 1.360 . S
C40 C39 1.413 . S
C40 C44 1.429 . S
C41 C39 1.360 . S
C41 C42 1.357 1_565 S
C42 H37 0.947 . S
C42 C41 1.357 1_545 S
C42 C43 1.400 1_545 S
C43 C42 1.400 1_565 S
C43 C44 1.391 . S
C44 H38 0.930 . S
C44 C40 1.429 . S
C44 C43 1.391 . S
H45 C48 0.931 . S
H46 C51 0.928 . S
H47 C53 0.930 . S
C48 H45 0.931 . S
C48 C49 1.413 . S
C48 C50 1.360 . S
C49 C48 1.413 . S
C49 C53 1.429 . S
C50 C48 1.360 . S
C50 C51 1.372 . S
C51 H46 0.928 . S
C51 C50 1.372 . S
C51 C52 1.404 . S
C52 C51 1.404 . S
C52 C53 1.391 . S
C53 H47 0.930 . S
C53 C49 1.429 . S
C53 C52 1.391 . S
H54 C57 0.931 . S
H55 C60 0.928 . S
H56 C62 0.930 . S
C57 H54 0.931 . S
C57 C58 1.413 . S
C57 C59 1.360 . S
C58 C57 1.413 . S
C58 C62 1.429 . S
C59 C57 1.360 . S
C59 C60 1.372 1_655 S
C60 H55 0.928 . S
C60 C59 1.372 1_455 S
C60 C61 1.404 1_455 S
C61 C60 1.404 1_655 S
C61 C62 1.391 . S
C62 H56 0.930 . S
C62 C58 1.429 . S
C62 C61 1.391 . S
H63 C66 0.931 . S
H64 C69 0.928 . S
H65 C71 0.930 . S
C66 H63 0.931 . S
C66 C67 1.413 . S
C66 C68 1.360 . S
C67 C66 1.413 . S
C67 C71 1.429 . S
C68 C66 1.360 . S
C68 C69 1.372 . S
C69 H64 0.928 . S
C69 C68 1.372 . S
C69 C70 1.404 . S
C70 C69 1.404 . S
C70 C71 1.391 . S
C71 H65 0.930 . S
C71 C67 1.429 . S
C71 C70 1.391 . S
H72 C75 0.931 . S
H73 C78 0.928 . S
H74 C80 0.930 . S
C75 H72 0.931 . S
C75 C76 1.413 . S
C75 C77 1.360 . S
C76 C75 1.413 . S
C76 C80 1.429 . S
C77 C75 1.360 . S
C77 C78 1.372 . S
C78 H73 0.928 . S
C78 C77 1.372 . S
C78 C79 1.404 . S
C79 C78 1.404 . S
C79 C80 1.391 . S
C80 H74 0.930 . S
C80 C76 1.429 . S
C80 C79 1.391 . S
H81 C84 0.931 1_545 S
H82 C87 0.928 . S
H83 C89 0.930 . S
C84 H81 0.931 1_565 S
C84 C85 1.413 . S
C84 C86 1.360 . S
C85 C84 1.413 . S
C85 C89 1.429 . S
C86 C84 1.360 . S
C86 C87 1.372 . S
C87 H82 0.928 . S
C87 C86 1.372 . S
C87 C88 1.404 . S
C88 C87 1.404 . S
C88 C89 1.391 . S
C89 H83 0.930 . S
C89 C85 1.429 . S
C89 C88 1.391 . S
H90 C93 0.931 . S
H91 C96 0.928 . S
H92 C98 0.930 . S
C93 H90 0.931 . S
C93 C94 1.413 . S
C93 C95 1.360 . S
C94 C93 1.413 . S
C94 C98 1.429 . S
C95 C93 1.360 . S
C95 C96 1.372 . S
C96 H91 0.928 . S
C96 C95 1.372 . S
C96 C97 1.404 . S
C97 C96 1.404 . S
C97 C98 1.391 . S
C98 H92 0.930 . S
C98 C94 1.429 . S
C98 C97 1.391 . S
H99 C102 0.931 . S
H100 C105 0.928 . S
H101 C107 0.930 . S
C102 H99 0.931 . S
C102 C103 1.413 . S
C102 C104 1.360 . S
C103 C102 1.413 . S
C103 C107 1.429 . S
C104 C102 1.360 . S
C104 C105 1.372 . S
C105 H100 0.928 . S
C105 C104 1.372 . S
C105 C106 1.404 . S
C106 C105 1.404 . S
C106 C107 1.391 . S
C107 H101 0.930 . S
C107 C103 1.429 . S
C107 C106 1.391 . S
H108 C111 0.931 . S
H109 C114 0.928 . S
H110 C116 0.930 . S
C111 H108 0.931 . S
C111 C112 1.413 . S
C111 C113 1.360 . S
C112 C111 1.413 . S
C112 C116 1.429 . S
C113 C111 1.360 . S
C113 C114 1.372 . S
C114 H109 0.928 . S
C114 C113 1.372 . S
C114 C115 1.404 . S
C115 C114 1.404 . S
C115 C116 1.391 . S
C116 H110 0.930 . S
C116 C112 1.429 . S
C116 C115 1.391 . S
H117 C120 0.931 . S
H118 C123 0.928 . S
H119 C125 0.930 1_554 S
C120 H117 0.931 . S
C120 C121 1.413 . S
C120 C122 1.360 . S
C121 C120 1.413 . S
C121 C125 1.429 . S
C122 C120 1.360 . S
C122 C123 1.372 . S
C123 H118 0.928 . S
C123 C122 1.372 . S
C123 C124 1.404 . S
C124 C123 1.404 . S
C124 C125 1.391 . S
C125 H119 0.930 1_556 S
C125 C121 1.429 . S
C125 C124 1.391 . S
H126 C129 0.931 . S
H127 C132 0.928 . S
H128 C134 0.930 . S
C129 H126 0.931 . S
C129 C130 1.413 . S
C129 C131 1.360 . S
C130 C129 1.413 . S
C130 C134 1.429 . S
C131 C129 1.360 . S
C131 C132 1.372 . S
C132 H127 0.928 . S
C132 C131 1.372 . S
C132 C133 1.404 . S
C133 C132 1.404 . S
C133 C134 1.391 . S
C134 H128 0.930 . S
C134 C130 1.429 . S
C134 C133 1.391 . S
H135 C138 0.931 . S
H136 C141 0.928 . S
H137 C143 0.930 1_565 S
C138 H135 0.931 . S
C138 C139 1.413 1_554 S
C138 C140 1.360 1_554 S
C139 C138 1.413 1_556 S
C139 C143 1.429 . S
C140 C138 1.360 1_556 S
C140 C141 1.372 . S
C141 H136 0.928 . S
C141 C140 1.372 . S
C141 C142 1.404 . S
C142 C141 1.404 . S
C142 C143 1.391 . S
C143 H137 0.930 1_545 S
C143 C139 1.429 . S
C143 C142 1.391 . S
Mn144 O149 2.095 . S
Mn144 O159 2.162 . S
Mn144 O160 2.297 . S
Mn144 O168 2.385 1_554 S
Mn144 O169 2.209 1_554 S
Mn144 O170 2.094 . S
Mn145 O150 2.121 . S
Mn145 N152 2.257 . S
Mn145 N161 2.282 . S
Mn145 O169 2.215 . S
Mn145 O171 2.117 . S
C146 O168 1.234 . S
C146 O169 1.283 . S
C147 O159 1.281 . S
C147 O160 1.236 . S
C148 O170 1.240 . S
C148 O171 1.264 1_554 S
O149 Mn144 2.095 . S
O149 C158 1.250 1_554 S
O150 Mn145 2.121 . S
O150 C158 1.258 . S
C151 N152 1.326 . S
C151 C155 1.460 . S
C151 H157 0.929 . S
N152 Mn145 2.257 . S
N152 C151 1.326 . S
N152 C156 1.362 . S
C153 C154 1.258 . S
C153 C156 1.431 . S
C153 C173 1.449 . S
C154 C153 1.258 . S
C154 C155 1.477 . S
C154 H174 0.931 . S
C155 C151 1.460 . S
C155 C154 1.477 . S
C155 H175 0.930 . S
C156 N152 1.362 . S
C156 C153 1.431 . S
C156 C166 1.476 . S
H157 C151 0.929 . S
C158 O149 1.250 1_556 S
C158 O150 1.258 . S
O159 Mn144 2.162 . S
O159 C147 1.281 . S
O160 Mn144 2.297 . S
O160 C147 1.236 . S
N161 Mn145 2.282 . S
N161 C162 1.328 . S
N161 C166 1.318 . S
C162 N161 1.328 . S
C162 C163 1.457 . S
C162 H167 0.929 . S
C163 C162 1.457 . S
C163 C164 1.291 . S
C163 H176 0.931 . S
C164 C163 1.291 . S
C164 C165 1.373 . S
C164 H177 0.929 . S
C165 C164 1.373 . S
C165 C166 1.396 . S
C165 C172 1.403 . S
C166 C156 1.476 . S
C166 N161 1.318 . S
C166 C165 1.396 . S
H167 C162 0.929 . S
O168 Mn144 2.385 1_556 S
O168 C146 1.234 . S
O169 Mn144 2.209 1_556 S
O169 Mn145 2.215 . S
O169 C146 1.283 . S
O170 Mn144 2.094 . S
O170 C148 1.240 . S
O171 Mn145 2.117 . S
O171 C148 1.264 1_556 S
C172 C165 1.403 . S
C172 C173 1.399 . S
C172 H178 0.929 . S
C173 C153 1.449 . S
C173 C172 1.399 . S
C173 H179 0.930 . S
H174 C154 0.931 . S
H175 C155 0.930 . S
H176 C163 0.931 . S
H177 C164 0.929 . S
H178 C172 0.929 . S
H179 C173 0.930 . S
Mn180 O185 2.095 . S
Mn180 O195 2.162 . S
Mn180 O196 2.297 . S
Mn180 O204 2.385 . S
Mn180 O205 2.209 . S
Mn180 O206 2.094 . S
Mn181 O186 2.121 . S
Mn181 N188 2.257 . S
Mn181 N197 2.282 . S
Mn181 O205 2.215 . S
Mn181 O207 2.117 . S
C182 O204 1.234 . S
C182 O205 1.283 . S
C183 O195 1.281 . S
C183 O196 1.236 . S
C184 O206 1.240 . S
C184 O207 1.264 . S
O185 Mn180 2.095 . S
O185 C194 1.250 . S
O186 Mn181 2.121 . S
O186 C194 1.258 . S
C187 N188 1.326 . S
C187 C191 1.460 . S
C187 H193 0.929 . S
N188 Mn181 2.257 . S
N188 C187 1.326 . S
N188 C192 1.362 . S
C189 C190 1.258 . S
C189 C192 1.431 . S
C189 C209 1.449 . S
C190 C189 1.258 . S
C190 C191 1.477 . S
C190 H210 0.931 . S
C191 C187 1.460 . S
C191 C190 1.477 . S
C191 H211 0.930 . S
C192 N188 1.362 . S
C192 C189 1.431 . S
C192 C202 1.476 . S
H193 C187 0.929 . S
C194 O185 1.250 . S
C194 O186 1.258 . S
O195 Mn180 2.162 . S
O195 C183 1.281 . S
O196 Mn180 2.297 . S
O196 C183 1.236 . S
N197 Mn181 2.282 . S
N197 C198 1.328 . S
N197 C202 1.318 . S
C198 N197 1.328 . S
C198 C199 1.457 . S
C198 H203 0.929 . S
C199 C198 1.457 . S
C199 C200 1.291 . S
C199 H212 0.931 . S
C200 C199 1.291 . S
C200 C201 1.373 . S
C200 H213 0.929 . S
C201 C200 1.373 . S
C201 C202 1.396 . S
C201 C208 1.403 . S
C202 C192 1.476 . S
C202 N197 1.318 . S
C202 C201 1.396 . S
H203 C198 0.929 . S
O204 Mn180 2.385 . S
O204 C182 1.234 . S
O205 Mn180 2.209 . S
O205 Mn181 2.215 . S
O205 C182 1.283 . S
O206 Mn180 2.094 . S
O206 C184 1.240 . S
O207 Mn181 2.117 . S
O207 C184 1.264 . S
C208 C201 1.403 . S
C208 C209 1.399 . S
C208 H214 0.929 . S
C209 C189 1.449 . S
C209 C208 1.399 . S
C209 H215 0.930 . S
H210 C190 0.931 . S
H211 C191 0.930 . S
H212 C199 0.931 . S
H213 C200 0.929 . S
H214 C208 0.929 . S
H215 C209 0.930 . S
Mn216 O221 2.095 1_554 S
Mn216 O231 2.162 . S
Mn216 O232 2.297 1_554 S
Mn216 O240 2.385 . S
Mn216 O241 2.209 1_554 S
Mn216 O242 2.094 . S
Mn217 O222 2.121 . S
Mn217 N224 2.257 . S
Mn217 N233 2.282 . S
Mn217 O241 2.215 . S
Mn217 O243 2.117 1_556 S
C218 O240 1.261 . S
C218 O241 1.264 1_554 S
C219 O231 1.281 . S
C219 O232 1.236 1_554 S
C220 O242 1.240 . S
C220 O243 1.264 . S
O221 Mn216 2.095 1_556 S
O221 C230 1.250 . S
O222 Mn217 2.121 . S
O222 C230 1.258 . S
C223 N224 1.326 . S
C223 C227 1.460 . S
C223 H229 0.929 . S
N224 Mn217 2.257 . S
N224 C223 1.326 . S
N224 C228 1.362 . S
C225 C226 1.258 . S
C225 C228 1.431 . S
C225 C245 1.449 . S
C226 C225 1.258 . S
C226 C227 1.477 . S
C226 H246 0.931 . S
C227 C223 1.460 . S
C227 C226 1.477 . S
C227 H247 0.930 . S
C228 N224 1.362 . S
C228 C225 1.431 . S
C228 C238 1.476 . S
H229 C223 0.929 . S
C230 O221 1.250 . S
C230 O222 1.258 . S
O231 Mn216 2.162 . S
O231 C219 1.281 . S
O232 Mn216 2.297 1_556 S
O232 C219 1.236 1_556 S
N233 Mn217 2.282 . S
N233 C234 1.328 1_556 S
N233 C238 1.318 . S
C234 N233 1.328 1_554 S
C234 C235 1.457 . S
C234 H239 0.929 . S
C235 C234 1.457 . S
C235 C236 1.291 . S
C235 H248 0.931 . S
C236 C235 1.291 . S
C236 C237 1.373 1_554 S
C236 H249 0.929 . S
C237 C236 1.373 1_556 S
C237 C238 1.396 . S
C237 C244 1.403 . S
C238 C228 1.476 . S
C238 N233 1.318 . S
C238 C237 1.396 . S
H239 C234 0.929 . S
O240 Mn216 2.385 . S
O240 C218 1.261 . S
O241 Mn216 2.209 1_556 S
O241 Mn217 2.215 . S
O241 C218 1.264 1_556 S
O242 Mn216 2.094 . S
O242 C220 1.240 . S
O243 Mn217 2.117 1_554 S
O243 C220 1.264 . S
C244 C237 1.403 . S
C244 C245 1.399 . S
C244 H250 0.929 . S
C245 C225 1.449 . S
C245 C244 1.399 . S
C245 H251 0.930 . S
H246 C226 0.931 . S
H247 C227 0.930 . S
H248 C235 0.931 . S
H249 C236 0.929 . S
H250 C244 0.929 . S
H251 C245 0.930 . S
Mn252 O257 2.095 . S
Mn252 O267 2.162 . S
Mn252 O268 2.297 . S
Mn252 O276 2.385 1_545 S
Mn252 O277 2.209 1_545 S
Mn252 O278 2.094 . S
Mn253 O258 2.121 . S
Mn253 N260 2.257 . S
Mn253 N269 2.282 . S
Mn253 O277 2.215 . S
Mn253 O279 2.117 . S
C254 O276 1.234 . S
C254 O277 1.283 . S
C255 O267 1.281 . S
C255 O268 1.236 . S
C256 O278 1.240 . S
C256 O279 1.264 1_545 S
O257 Mn252 2.095 . S
O257 C266 1.250 1_545 S
O258 Mn253 2.121 . S
O258 C266 1.258 . S
C259 N260 1.326 . S
C259 C263 1.460 . S
C259 H265 0.929 . S
N260 Mn253 2.257 . S
N260 C259 1.326 . S
N260 C264 1.362 . S
C261 C262 1.258 . S
C261 C264 1.431 . S
C261 C281 1.449 . S
C262 C261 1.258 . S
C262 C263 1.477 . S
C262 H282 0.931 . S
C263 C259 1.460 . S
C263 C262 1.477 . S
C263 H283 0.930 . S
C264 N260 1.362 . S
C264 C261 1.431 . S
C264 C274 1.476 . S
H265 C259 0.929 . S
C266 O257 1.250 1_565 S
C266 O258 1.258 . S
O267 Mn252 2.162 . S
O267 C255 1.281 . S
O268 Mn252 2.297 . S
O268 C255 1.236 . S
N269 Mn253 2.282 . S
N269 C270 1.328 . S
N269 C274 1.318 . S
C270 N269 1.328 . S
C270 C271 1.457 . S
C270 H275 0.929 . S
C271 C270 1.457 . S
C271 C272 1.291 . S
C271 H284 0.931 . S
C272 C271 1.291 . S
C272 C273 1.373 . S
C272 H285 0.929 . S
C273 C272 1.373 . S
C273 C274 1.396 . S
C273 C280 1.403 . S
C274 C264 1.476 . S
C274 N269 1.318 . S
C274 C273 1.396 . S
H275 C270 0.929 . S
O276 Mn252 2.385 1_565 S
O276 C254 1.234 . S
O277 Mn252 2.209 1_565 S
O277 Mn253 2.215 . S
O277 C254 1.283 . S
O278 Mn252 2.094 . S
O278 C256 1.240 . S
O279 Mn253 2.117 . S
O279 C256 1.264 1_565 S
C280 C273 1.403 . S
C280 C281 1.399 . S
C280 H286 0.929 . S
C281 C261 1.449 . S
C281 C280 1.399 . S
C281 H287 0.930 . S
H282 C262 0.931 . S
H283 C263 0.930 . S
H284 C271 0.931 . S
H285 C272 0.929 . S
H286 C280 0.929 . S
H287 C281 0.930 . S
Mn288 O293 2.095 . S
Mn288 O303 2.162 . S
Mn288 O304 2.297 . S
Mn288 O312 2.385 . S
Mn288 O313 2.209 . S
Mn288 O314 2.094 . S
Mn289 O294 2.121 . S
Mn289 N296 2.257 . S
Mn289 N305 2.282 . S
Mn289 O313 2.215 . S
Mn289 O315 2.117 . S
C290 O312 1.234 . S
C290 O313 1.283 . S
C291 O303 1.281 . S
C291 O304 1.236 . S
C292 O314 1.240 . S
C292 O315 1.264 . S
O293 Mn288 2.095 . S
O293 C302 1.250 . S
O294 Mn289 2.121 . S
O294 C302 1.258 . S
C295 N296 1.326 . S
C295 C299 1.460 . S
C295 H301 0.929 . S
N296 Mn289 2.257 . S
N296 C295 1.326 . S
N296 C300 1.362 . S
C297 C298 1.258 . S
C297 C300 1.431 . S
C297 C317 1.449 . S
C298 C297 1.258 . S
C298 C299 1.477 . S
C298 H318 0.931 . S
C299 C295 1.460 . S
C299 C298 1.477 . S
C299 H319 0.930 . S
C300 N296 1.362 . S
C300 C297 1.431 . S
C300 C310 1.476 . S
H301 C295 0.929 . S
C302 O293 1.250 . S
C302 O294 1.258 . S
O303 Mn288 2.162 . S
O303 C291 1.281 . S
O304 Mn288 2.297 . S
O304 C291 1.236 . S
N305 Mn289 2.282 . S
N305 C306 1.328 . S
N305 C310 1.318 . S
C306 N305 1.328 . S
C306 C307 1.457 . S
C306 H311 0.929 . S
C307 C306 1.457 . S
C307 C308 1.291 . S
C307 H320 0.931 . S
C308 C307 1.291 . S
C308 C309 1.373 . S
C308 H321 0.929 . S
C309 C308 1.373 . S
C309 C310 1.396 . S
C309 C316 1.403 . S
C310 C300 1.476 . S
C310 N305 1.318 . S
C310 C309 1.396 . S
H311 C306 0.929 . S
O312 Mn288 2.385 . S
O312 C290 1.234 . S
O313 Mn288 2.209 . S
O313 Mn289 2.215 . S
O313 C290 1.283 . S
O314 Mn288 2.094 . S
O314 C292 1.240 . S
O315 Mn289 2.117 . S
O315 C292 1.264 . S
C316 C309 1.403 . S
C316 C317 1.399 . S
C316 H322 0.929 . S
C317 C297 1.449 . S
C317 C316 1.399 . S
C317 H323 0.930 . S
H318 C298 0.931 . S
H319 C299 0.930 . S
H320 C307 0.931 . S
H321 C308 0.929 . S
H322 C316 0.929 . S
H323 C317 0.930 . S
Mn324 O329 2.095 . S
Mn324 O339 2.162 . S
Mn324 O340 2.297 . S
Mn324 O348 2.385 . S
Mn324 O349 2.209 . S
Mn324 O350 2.094 . S
Mn325 O330 2.121 . S
Mn325 N332 2.257 . S
Mn325 N341 2.282 . S
Mn325 O349 2.215 . S
Mn325 O351 2.117 . S
C326 O348 1.234 . S
C326 O349 1.283 . S
C327 O339 1.281 . S
C327 O340 1.236 . S
C328 O350 1.240 . S
C328 O351 1.264 . S
O329 Mn324 2.095 . S
O329 C338 1.250 . S
O330 Mn325 2.121 . S
O330 C338 1.258 . S
C331 N332 1.326 . S
C331 C335 1.460 . S
C331 H337 0.929 . S
N332 Mn325 2.257 . S
N332 C331 1.326 . S
N332 C336 1.362 . S
C333 C334 1.258 . S
C333 C336 1.431 . S
C333 C353 1.449 . S
C334 C333 1.258 . S
C334 C335 1.477 . S
C334 H354 0.931 . S
C335 C331 1.460 . S
C335 C334 1.477 . S
C335 H355 0.930 . S
C336 N332 1.362 . S
C336 C333 1.431 . S
C336 C346 1.476 . S
H337 C331 0.929 . S
C338 O329 1.250 . S
C338 O330 1.258 . S
O339 Mn324 2.162 . S
O339 C327 1.281 . S
O340 Mn324 2.297 . S
O340 C327 1.236 . S
N341 Mn325 2.282 . S
N341 C342 1.328 . S
N341 C346 1.318 . S
C342 N341 1.328 . S
C342 C343 1.457 . S
C342 H347 0.929 . S
C343 C342 1.457 . S
C343 C344 1.291 . S
C343 H356 0.931 . S
C344 C343 1.291 . S
C344 C345 1.373 . S
C344 H357 0.929 . S
C345 C344 1.373 . S
C345 C346 1.396 . S
C345 C352 1.403 . S
C346 C336 1.476 . S
C346 N341 1.318 . S
C346 C345 1.396 . S
H347 C342 0.929 . S
O348 Mn324 2.385 . S
O348 C326 1.234 . S
O349 Mn324 2.209 . S
O349 Mn325 2.215 . S
O349 C326 1.283 . S
O350 Mn324 2.094 . S
O350 C328 1.240 . S
O351 Mn325 2.117 . S
O351 C328 1.264 . S
C352 C345 1.403 . S
C352 C353 1.399 . S
C352 H358 0.929 . S
C353 C333 1.449 . S
C353 C352 1.399 . S
C353 H359 0.930 . S
H354 C334 0.931 . S
H355 C335 0.930 . S
H356 C343 0.931 . S
H357 C344 0.929 . S
H358 C352 0.929 . S
H359 C353 0.930 . S
Mn360 O365 2.095 . S
Mn360 O375 2.162 . S
Mn360 O376 2.297 . S
Mn360 O384 2.385 . S
Mn360 O385 2.209 . S
Mn360 O386 2.094 . S
Mn361 O366 2.121 . S
Mn361 N368 2.257 . S
Mn361 N377 2.282 . S
Mn361 O385 2.215 . S
Mn361 O387 2.117 . S
C362 O384 1.234 . S
C362 O385 1.283 . S
C363 O375 1.281 . S
C363 O376 1.236 . S
C364 O386 1.240 . S
C364 O387 1.264 . S
O365 Mn360 2.095 . S
O365 C374 1.250 . S
O366 Mn361 2.121 . S
O366 C374 1.258 . S
C367 N368 1.326 . S
C367 C371 1.460 . S
C367 H373 0.929 . S
N368 Mn361 2.257 . S
N368 C367 1.326 . S
N368 C372 1.362 . S
C369 C370 1.258 . S
C369 C372 1.431 . S
C369 C389 1.449 . S
C370 C369 1.258 . S
C370 C371 1.477 . S
C370 H390 0.931 . S
C371 C367 1.460 . S
C371 C370 1.477 . S
C371 H391 0.930 . S
C372 N368 1.362 . S
C372 C369 1.431 . S
C372 C382 1.476 . S
H373 C367 0.929 . S
C374 O365 1.250 . S
C374 O366 1.258 . S
O375 Mn360 2.162 . S
O375 C363 1.281 . S
O376 Mn360 2.297 . S
O376 C363 1.236 . S
N377 Mn361 2.282 . S
N377 C378 1.328 . S
N377 C382 1.318 . S
C378 N377 1.328 . S
C378 C379 1.457 . S
C378 H383 0.929 . S
C379 C378 1.457 . S
C379 C380 1.291 . S
C379 H392 0.931 . S
C380 C379 1.291 . S
C380 C381 1.373 . S
C380 H393 0.929 . S
C381 C380 1.373 . S
C381 C382 1.396 . S
C381 C388 1.403 . S
C382 C372 1.476 . S
C382 N377 1.318 . S
C382 C381 1.396 . S
H383 C378 0.929 . S
O384 Mn360 2.385 . S
O384 C362 1.234 . S
O385 Mn360 2.209 . S
O385 Mn361 2.215 . S
O385 C362 1.283 . S
O386 Mn360 2.094 . S
O386 C364 1.240 . S
O387 Mn361 2.117 . S
O387 C364 1.264 . S
C388 C381 1.403 . S
C388 C389 1.399 . S
C388 H394 0.929 . S
C389 C369 1.449 . S
C389 C388 1.399 . S
C389 H395 0.930 . S
H390 C370 0.931 . S
H391 C371 0.930 . S
H392 C379 0.931 . S
H393 C380 0.929 . S
H394 C388 0.929 . S
H395 C389 0.930 . S
Mn396 O401 2.095 . S
Mn396 O411 2.162 . S
Mn396 O412 2.297 . S
Mn396 O420 2.385 1_565 S
Mn396 O421 2.209 1_565 S
Mn396 O422 2.094 . S
Mn397 O402 2.121 . S
Mn397 N404 2.257 . S
Mn397 N413 2.282 . S
Mn397 O421 2.215 . S
Mn397 O423 2.117 . S
C398 O420 1.234 . S
C398 O421 1.283 . S
C399 O411 1.281 . S
C399 O412 1.236 . S
C400 O422 1.224 1_545 S
C400 O423 1.285 . S
O401 Mn396 2.095 . S
O401 C410 1.250 1_565 S
O402 Mn397 2.121 . S
O402 C410 1.258 . S
C403 N404 1.326 . S
C403 C407 1.460 . S
C403 H409 0.929 . S
N404 Mn397 2.257 . S
N404 C403 1.326 . S
N404 C408 1.362 . S
C405 C406 1.258 . S
C405 C408 1.431 . S
C405 C425 1.449 . S
C406 C405 1.258 . S
C406 C407 1.477 . S
C406 H426 0.931 . S
C407 C403 1.460 . S
C407 C406 1.477 . S
C407 H427 0.930 . S
C408 N404 1.362 . S
C408 C405 1.431 . S
C408 C418 1.476 . S
H409 C403 0.929 . S
C410 O401 1.250 1_545 S
C410 O402 1.258 . S
O411 Mn396 2.162 . S
O411 C399 1.281 . S
O412 Mn396 2.297 . S
O412 C399 1.236 . S
N413 Mn397 2.282 . S
N413 C414 1.328 . S
N413 C418 1.318 . S
C414 N413 1.328 . S
C414 C415 1.457 . S
C414 H419 0.929 . S
C415 C414 1.457 . S
C415 C416 1.291 . S
C415 H428 0.931 . S
C416 C415 1.291 . S
C416 C417 1.373 . S
C416 H429 0.929 . S
C417 C416 1.373 . S
C417 C418 1.396 . S
C417 C424 1.403 . S
C418 C408 1.476 . S
C418 N413 1.318 . S
C418 C417 1.396 . S
H419 C414 0.929 . S
O420 Mn396 2.385 1_545 S
O420 C398 1.234 . S
O421 Mn396 2.209 1_545 S
O421 Mn397 2.215 . S
O421 C398 1.283 . S
O422 Mn396 2.094 . S
O422 C400 1.224 1_565 S
O423 Mn397 2.117 . S
O423 C400 1.285 . S
C424 C417 1.403 . S
C424 C425 1.399 . S
C424 H430 0.929 . S
C425 C405 1.449 . S
C425 C424 1.399 . S
C425 H431 0.930 . S
H426 C406 0.931 . S
H427 C407 0.930 . S
H428 C415 0.931 . S
H429 C416 0.929 . S
H430 C424 0.929 . S
H431 C425 0.930 . S
Mn432 O437 2.095 . S
Mn432 O447 2.162 . S
Mn432 O448 2.297 . S
Mn432 O456 2.385 1_455 S
Mn432 O457 2.209 1_455 S
Mn432 O458 2.094 . S
Mn433 O438 2.121 . S
Mn433 N440 2.257 . S
Mn433 N449 2.282 . S
Mn433 O457 2.215 . S
Mn433 O459 2.117 . S
C434 O456 1.234 . S
C434 O457 1.283 . S
C435 O447 1.281 . S
C435 O448 1.236 . S
C436 O458 1.240 . S
C436 O459 1.264 1_455 S
O437 Mn432 2.095 . S
O437 C446 1.250 1_455 S
O438 Mn433 2.121 . S
O438 C446 1.258 . S
C439 N440 1.326 . S
C439 C443 1.460 . S
C439 H445 0.929 . S
N440 Mn433 2.257 . S
N440 C439 1.326 . S
N440 C444 1.362 . S
C441 C442 1.258 . S
C441 C444 1.431 . S
C441 C461 1.449 . S
C442 C441 1.258 . S
C442 C443 1.477 . S
C442 H462 0.931 . S
C443 C439 1.460 . S
C443 C442 1.477 . S
C443 H463 0.930 . S
C444 N440 1.362 . S
C444 C441 1.431 . S
C444 C454 1.476 . S
H445 C439 0.929 . S
C446 O437 1.250 1_655 S
C446 O438 1.258 . S
O447 Mn432 2.162 . S
O447 C435 1.281 . S
O448 Mn432 2.297 . S
O448 C435 1.236 . S
N449 Mn433 2.282 . S
N449 C450 1.328 . S
N449 C454 1.318 . S
C450 N449 1.328 . S
C450 C451 1.457 . S
C450 H455 0.929 . S
C451 C450 1.457 . S
C451 C452 1.291 . S
C451 H464 0.931 . S
C452 C451 1.291 . S
C452 C453 1.373 . S
C452 H465 0.929 . S
C453 C452 1.373 . S
C453 C454 1.396 . S
C453 C460 1.403 . S
C454 C444 1.476 . S
C454 N449 1.318 . S
C454 C453 1.396 . S
H455 C450 0.929 . S
O456 Mn432 2.385 1_655 S
O456 C434 1.234 . S
O457 Mn432 2.209 1_655 S
O457 Mn433 2.215 . S
O457 C434 1.283 . S
O458 Mn432 2.094 . S
O458 C436 1.240 . S
O459 Mn433 2.117 . S
O459 C436 1.264 1_655 S
C460 C453 1.403 . S
C460 C461 1.399 . S
C460 H466 0.929 . S
C461 C441 1.449 . S
C461 C460 1.399 . S
C461 H467 0.930 . S
H462 C442 0.931 . S
H463 C443 0.930 . S
H464 C451 0.931 . S
H465 C452 0.929 . S
H466 C460 0.929 . S
H467 C461 0.930 . S
Mn468 O473 2.095 . S
Mn468 O483 2.162 . S
Mn468 O484 2.297 . S
Mn468 O492 2.385 . S
Mn468 O493 2.209 . S
Mn468 O494 2.094 . S
Mn469 O474 2.121 . S
Mn469 N476 2.257 . S
Mn469 N485 2.282 . S
Mn469 O493 2.215 . S
Mn469 O495 2.117 . S
C470 O492 1.234 . S
C470 O493 1.283 . S
C471 O483 1.281 . S
C471 O484 1.236 . S
C472 O494 1.240 . S
C472 O495 1.264 . S
O473 Mn468 2.095 . S
O473 C482 1.250 . S
O474 Mn469 2.121 . S
O474 C482 1.258 . S
C475 N476 1.326 . S
C475 C479 1.460 . S
C475 H481 0.929 . S
N476 Mn469 2.257 . S
N476 C475 1.326 . S
N476 C480 1.362 . S
C477 C478 1.258 . S
C477 C480 1.431 . S
C477 C497 1.449 . S
C478 C477 1.258 . S
C478 C479 1.477 . S
C478 H498 0.931 . S
C479 C475 1.460 . S
C479 C478 1.477 . S
C479 H499 0.930 . S
C480 N476 1.362 . S
C480 C477 1.431 . S
C480 C490 1.476 . S
H481 C475 0.929 . S
C482 O473 1.250 . S
C482 O474 1.258 . S
O483 Mn468 2.162 . S
O483 C471 1.281 . S
O484 Mn468 2.297 . S
O484 C471 1.236 . S
N485 Mn469 2.282 . S
N485 C486 1.328 . S
N485 C490 1.318 . S
C486 N485 1.328 . S
C486 C487 1.457 . S
C486 H491 0.929 . S
C487 C486 1.457 . S
C487 C488 1.291 . S
C487 H500 0.931 . S
C488 C487 1.291 . S
C488 C489 1.373 . S
C488 H501 0.929 . S
C489 C488 1.373 . S
C489 C490 1.396 . S
C489 C496 1.403 . S
C490 C480 1.476 . S
C490 N485 1.318 . S
C490 C489 1.396 . S
H491 C486 0.929 . S
O492 Mn468 2.385 . S
O492 C470 1.234 . S
O493 Mn468 2.209 . S
O493 Mn469 2.215 . S
O493 C470 1.283 . S
O494 Mn468 2.094 . S
O494 C472 1.240 . S
O495 Mn469 2.117 . S
O495 C472 1.264 . S
C496 C489 1.403 . S
C496 C497 1.399 . S
C496 H502 0.929 . S
C497 C477 1.449 . S
C497 C496 1.399 . S
C497 H503 0.930 . S
H498 C478 0.931 . S
H499 C479 0.930 . S
H500 C487 0.931 . S
H501 C488 0.929 . S
H502 C496 0.929 . S
H503 C497 0.930 . S
Mn504 O509 2.095 1_455 S
Mn504 O519 2.162 . S
Mn504 O520 2.297 1_455 S
Mn504 O528 2.385 . S
Mn504 O529 2.209 1_455 S
Mn504 O530 2.094 . S
Mn505 O510 2.121 . S
Mn505 N512 2.257 . S
Mn505 N521 2.276 1_655 S
Mn505 O529 2.215 . S
Mn505 O531 2.117 1_655 S
C506 O528 1.234 . S
C506 O529 1.283 1_455 S
C507 O519 1.281 . S
C507 O520 1.236 1_455 S
C508 O530 1.240 . S
C508 O531 1.264 . S
O509 Mn504 2.095 1_655 S
O509 C518 1.250 . S
O510 Mn505 2.121 . S
O510 C518 1.258 . S
C511 N512 1.326 . S
C511 C515 1.460 . S
C511 H517 0.929 . S
N512 Mn505 2.257 . S
N512 C511 1.326 . S
N512 C516 1.362 . S
C513 C514 1.258 . S
C513 C516 1.431 . S
C513 C533 1.449 . S
C514 C513 1.258 . S
C514 C515 1.477 . S
C514 H534 0.931 . S
C515 C511 1.460 . S
C515 C514 1.477 . S
C515 H535 0.930 . S
C516 N512 1.362 . S
C516 C513 1.431 . S
C516 C526 1.476 . S
H517 C511 0.929 . S
C518 O509 1.250 . S
C518 O510 1.258 . S
O519 Mn504 2.162 . S
O519 C507 1.281 . S
O520 Mn504 2.297 1_655 S
O520 C507 1.236 1_655 S
N521 Mn505 2.276 1_455 S
N521 C522 1.343 . S
N521 C526 1.308 1_455 S
C522 N521 1.343 . S
C522 C523 1.457 . S
C522 H527 0.929 . S
C523 C522 1.457 . S
C523 C524 1.291 . S
C523 H536 0.931 . S
C524 C523 1.291 . S
C524 C525 1.373 1_455 S
C524 H537 0.929 . S
C525 C524 1.373 1_655 S
C525 C526 1.396 . S
C525 C532 1.403 . S
C526 C516 1.476 . S
C526 N521 1.308 1_655 S
C526 C525 1.396 . S
H527 C522 0.929 . S
O528 Mn504 2.385 . S
O528 C506 1.234 . S
O529 Mn504 2.209 1_655 S
O529 Mn505 2.215 . S
O529 C506 1.283 1_655 S
O530 Mn504 2.094 . S
O530 C508 1.240 . S
O531 Mn505 2.117 1_455 S
O531 C508 1.264 . S
C532 C525 1.403 . S
C532 C533 1.399 . S
C532 H538 0.929 . S
C533 C513 1.449 . S
C533 C532 1.399 . S
C533 H539 0.930 . S
H534 C514 0.931 . S
H535 C515 0.930 . S
H536 C523 0.931 . S
H537 C524 0.929 . S
H538 C532 0.929 . S
H539 C533 0.930 . S
Mn540 O545 2.095 . S
Mn540 O555 2.162 . S
Mn540 O556 2.297 . S
Mn540 O564 2.385 . S
Mn540 O565 2.209 . S
Mn540 O566 2.094 . S
Mn541 O546 2.121 . S
Mn541 N548 2.257 . S
Mn541 N557 2.282 . S
Mn541 O565 2.215 . S
Mn541 O567 2.117 . S
C542 O564 1.234 . S
C542 O565 1.283 . S
C543 O555 1.281 . S
C543 O556 1.236 . S
C544 O566 1.240 . S
C544 O567 1.264 . S
O545 Mn540 2.095 . S
O545 C554 1.250 . S
O546 Mn541 2.121 . S
O546 C554 1.258 . S
C547 N548 1.326 . S
C547 C551 1.460 . S
C547 H553 0.929 . S
N548 Mn541 2.257 . S
N548 C547 1.326 . S
N548 C552 1.362 . S
C549 C550 1.258 . S
C549 C552 1.431 . S
C549 C569 1.449 . S
C550 C549 1.258 . S
C550 C551 1.477 . S
C550 H570 0.931 . S
C551 C547 1.460 . S
C551 C550 1.477 . S
C551 H571 0.930 . S
C552 N548 1.362 . S
C552 C549 1.431 . S
C552 C562 1.476 . S
H553 C547 0.929 . S
C554 O545 1.250 . S
C554 O546 1.258 . S
O555 Mn540 2.162 . S
O555 C543 1.281 . S
O556 Mn540 2.297 . S
O556 C543 1.236 . S
N557 Mn541 2.282 . S
N557 C558 1.328 . S
N557 C562 1.318 . S
C558 N557 1.328 . S
C558 C559 1.457 . S
C558 H563 0.929 . S
C559 C558 1.457 . S
C559 C560 1.291 . S
C559 H572 0.931 . S
C560 C559 1.291 . S
C560 C561 1.373 . S
C560 H573 0.929 . S
C561 C560 1.373 . S
C561 C562 1.396 . S
C561 C568 1.403 . S
C562 C552 1.476 . S
C562 N557 1.318 . S
C562 C561 1.396 . S
H563 C558 0.929 . S
O564 Mn540 2.385 . S
O564 C542 1.234 . S
O565 Mn540 2.209 . S
O565 Mn541 2.215 . S
O565 C542 1.283 . S
O566 Mn540 2.094 . S
O566 C544 1.240 . S
O567 Mn541 2.117 . S
O567 C544 1.264 . S
C568 C561 1.403 . S
C568 C569 1.399 . S
C568 H574 0.929 . S
C569 C549 1.449 . S
C569 C568 1.399 . S
C569 H575 0.930 . S
H570 C550 0.931 . S
H571 C551 0.930 . S
H572 C559 0.931 . S
H573 C560 0.929 . S
H574 C568 0.929 . S
H575 C569 0.930 . S
C576 C577 1.387 . S
C576 H580 0.950 . S
C576 C585 1.390 . S
C577 C576 1.387 . S
C577 C579 1.387 . S
H578 C585 0.950 . S
C579 C577 1.387 . S
C579 C581 1.390 . S
C579 H583 0.950 . S
H580 C576 0.950 . S
C581 C579 1.390 . S
C581 C582 1.387 . S
C581 H584 0.950 . S
C582 C581 1.387 . S
C582 C585 1.387 . S
H583 C579 0.950 . S
H584 C581 0.950 . S
C585 C576 1.390 . S
C585 H578 0.950 . S
C585 C582 1.387 . S
C586 C587 1.387 . S
C586 H590 0.950 . S
C586 C595 1.390 . S
C587 C586 1.387 . S
C587 C589 1.387 . S
H588 C595 0.950 . S
C589 C587 1.387 . S
C589 C591 1.390 . S
C589 H593 0.950 . S
H590 C586 0.950 . S
C591 C589 1.390 . S
C591 C592 1.387 . S
C591 H594 0.950 . S
C592 C591 1.387 . S
C592 C595 1.387 . S
H593 C589 0.950 . S
H594 C591 0.950 . S
C595 C586 1.390 . S
C595 H588 0.950 . S
C595 C592 1.387 . S
C596 C597 1.387 . S
C596 H600 0.950 . S
C596 C605 1.390 . S
C597 C596 1.387 . S
C597 C599 1.387 . S
H598 C605 0.950 . S
C599 C597 1.387 . S
C599 C601 1.390 . S
C599 H603 0.950 . S
H600 C596 0.950 . S
C601 C599 1.390 . S
C601 C602 1.387 . S
C601 H604 0.950 . S
C602 C601 1.387 . S
C602 C605 1.387 . S
H603 C599 0.950 . S
H604 C601 0.950 . S
C605 C596 1.390 . S
C605 H598 0.950 . S
C605 C602 1.387 . S
C606 C607 1.387 . S
C606 H610 0.950 . S
C606 C615 1.390 . S
C607 C606 1.387 . S
C607 C609 1.387 1_565 S
H608 C615 0.950 . S
C609 C607 1.387 1_545 S
C609 C611 1.390 . S
C609 H613 0.950 . S
H610 C606 0.950 . S
C611 C609 1.390 . S
C611 C612 1.387 1_545 S
C611 H614 0.950 . S
C612 C611 1.387 1_565 S
C612 C615 1.387 . S
H613 C609 0.950 . S
H614 C611 0.950 . S
C615 C606 1.390 . S
C615 H608 0.950 . S
C615 C612 1.387 . S
C616 C617 1.387 . S
C616 H620 0.950 . S
C616 C625 1.390 . S
C617 C616 1.387 . S
C617 C619 1.387 . S
H618 C625 0.950 . S
C619 C617 1.387 . S
C619 C621 1.390 . S
C619 H623 0.950 . S
H620 C616 0.950 . S
C621 C619 1.390 . S
C621 C622 1.387 . S
C621 H624 0.950 . S
C622 C621 1.387 . S
C622 C625 1.387 . S
H623 C619 0.950 . S
H624 C621 0.950 . S
C625 C616 1.390 . S
C625 H618 0.950 . S
C625 C622 1.387 . S
C626 C627 1.387 . S
C626 H630 0.950 . S
C626 C635 1.390 . S
C627 C626 1.387 . S
C627 C629 1.387 . S
H628 C635 0.950 . S
C629 C627 1.387 . S
C629 C631 1.390 . S
C629 H633 0.950 . S
H630 C626 0.950 . S
C631 C629 1.390 . S
C631 C632 1.387 . S
C631 H634 0.950 . S
C632 C631 1.387 . S
C632 C635 1.387 . S
H633 C629 0.950 . S
H634 C631 0.950 . S
C635 C626 1.390 . S
C635 H628 0.950 . S
C635 C632 1.387 . S
C636 C637 1.387 . S
C636 H640 0.950 . S
C636 C645 1.390 . S
C637 C636 1.387 . S
C637 C639 1.387 . S
H638 C645 0.950 . S
C639 C637 1.387 . S
C639 C641 1.390 . S
C639 H643 0.950 . S
H640 C636 0.950 . S
C641 C639 1.390 . S
C641 C642 1.387 . S
C641 H644 0.950 . S
C642 C641 1.387 . S
C642 C645 1.387 . S
H643 C639 0.950 . S
H644 C641 0.950 . S
C645 C636 1.390 . S
C645 H638 0.950 . S
C645 C642 1.387 . S
C646 C647 1.387 . S
C646 H650 0.950 . S
C646 C655 1.390 . S
C647 C646 1.387 . S
C647 C649 1.387 . S
H648 C655 0.950 . S
C649 C647 1.387 . S
C649 C651 1.390 . S
C649 H653 0.950 . S
H650 C646 0.950 . S
C651 C649 1.390 . S
C651 C652 1.387 . S
C651 H654 0.950 . S
C652 C651 1.387 . S
C652 C655 1.387 . S
H653 C649 0.950 . S
H654 C651 0.950 . S
C655 C646 1.390 . S
C655 H648 0.950 . S
C655 C652 1.387 . S
C656 C657 1.387 . S
C656 H660 0.950 . S
C656 C665 1.390 . S
C657 C656 1.387 . S
C657 C659 1.387 . S
H658 C665 0.950 . S
C659 C657 1.387 . S
C659 C661 1.390 . S
C659 H663 0.950 . S
H660 C656 0.950 . S
C661 C659 1.390 . S
C661 C662 1.387 . S
C661 H664 0.950 . S
C662 C661 1.387 . S
C662 C665 1.387 . S
H663 C659 0.950 . S
H664 C661 0.950 . S
C665 C656 1.390 . S
C665 H658 0.950 . S
C665 C662 1.387 . S
C666 C667 1.387 . S
C666 H670 0.950 . S
C666 C675 1.390 . S
C667 C666 1.387 . S
C667 C669 1.387 . S
H668 C675 0.950 . S
C669 C667 1.387 . S
C669 C671 1.390 . S
C669 H673 0.950 . S
H670 C666 0.950 . S
C671 C669 1.390 . S
C671 C672 1.387 . S
C671 H674 0.950 . S
C672 C671 1.387 . S
C672 C675 1.387 . S
H673 C669 0.950 . S
H674 C671 0.950 . S
C675 C666 1.390 . S
C675 H668 0.950 . S
C675 C672 1.387 . S
C676 C677 1.387 . S
C676 H680 0.950 . S
C676 C685 1.390 . S
C677 C676 1.387 . S
C677 C679 1.387 . S
H678 C685 0.950 . S
C679 C677 1.387 . S
C679 C681 1.390 . S
C679 H683 0.950 . S
H680 C676 0.950 . S
C681 C679 1.390 . S
C681 C682 1.387 . S
C681 H684 0.950 . S
C682 C681 1.387 . S
C682 C685 1.387 . S
H683 C679 0.950 . S
H684 C681 0.950 . S
C685 C676 1.390 . S
C685 H678 0.950 . S
C685 C682 1.387 . S
C686 C687 1.387 . S
C686 H690 0.950 . S
C686 C695 1.390 . S
C687 C686 1.387 . S
C687 C689 1.387 . S
H688 C695 0.950 . S
C689 C687 1.387 . S
C689 C691 1.390 . S
C689 H693 0.950 . S
H690 C686 0.950 . S
C691 C689 1.390 . S
C691 C692 1.387 . S
C691 H694 0.950 . S
C692 C691 1.387 . S
C692 C695 1.387 . S
H693 C689 0.950 . S
H694 C691 0.950 . S
C695 C686 1.390 . S
C695 H688 0.950 . S
C695 C692 1.387 . S
C696 C697 1.387 . S
C696 H700 0.950 . S
C696 C705 1.390 . S
C697 C696 1.387 . S
C697 C699 1.387 . S
H698 C705 0.950 . S
C699 C697 1.387 . S
C699 C701 1.390 . S
C699 H703 0.950 . S
H700 C696 0.950 . S
C701 C699 1.390 . S
C701 C702 1.387 . S
C701 H704 0.950 . S
C702 C701 1.387 . S
C702 C705 1.387 . S
H703 C699 0.950 . S
H704 C701 0.950 . S
C705 C696 1.390 . S
C705 H698 0.950 . S
C705 C702 1.387 . S
C706 C707 1.387 . S
C706 H710 0.950 1_455 S
C706 C715 1.390 1_455 S
C707 C706 1.387 . S
C707 C709 1.387 . S
H708 C715 0.950 . S
C709 C707 1.387 . S
C709 C711 1.390 . S
C709 H713 0.950 . S
H710 C706 0.950 1_655 S
C711 C709 1.390 . S
C711 C712 1.387 . S
C711 H714 0.950 . S
C712 C711 1.387 . S
C712 C715 1.387 1_455 S
H713 C709 0.950 . S
H714 C711 0.950 . S
C715 C706 1.390 1_655 S
C715 H708 0.950 . S
C715 C712 1.387 1_655 S
C716 C717 1.387 . S
C716 H720 0.950 . S
C716 C725 1.390 . S
C717 C716 1.387 . S
C717 C719 1.387 . S
H718 C725 0.950 . S
C719 C717 1.387 . S
C719 C721 1.390 . S
C719 H723 0.950 . S
H720 C716 0.950 . S
C721 C719 1.390 . S
C721 C722 1.387 . S
C721 H724 0.950 . S
C722 C721 1.387 . S
C722 C725 1.387 . S
H723 C719 0.950 . S
H724 C721 0.950 . S
C725 C716 1.390 . S
C725 H718 0.950 . S
C725 C722 1.387 . S
C726 C727 1.387 1_455 S
C726 H730 0.950 . S
C726 C735 1.390 . S
C727 C726 1.387 1_655 S
C727 C729 1.387 . S
H728 C735 0.950 . S
C729 C727 1.387 . S
C729 C731 1.390 . S
C729 H733 0.950 . S
H730 C726 0.950 . S
C731 C729 1.390 . S
C731 C732 1.387 . S
C731 H734 0.950 . S
C732 C731 1.387 . S
C732 C735 1.387 1_655 S
H733 C729 0.950 . S
H734 C731 0.950 . S
C735 C726 1.390 . S
C735 H728 0.950 . S
C735 C732 1.387 1_455 S
C736 C737 1.387 . S
C736 H740 0.950 . S
C736 C745 1.390 . S
C737 C736 1.387 . S
C737 C739 1.387 . S
H738 C745 0.950 . S
C739 C737 1.387 . S
C739 C741 1.390 . S
C739 H743 0.950 . S
H740 C736 0.950 . S
C741 C739 1.390 . S
C741 C742 1.387 . S
C741 H744 0.950 . S
C742 C741 1.387 . S
C742 C745 1.387 . S
H743 C739 0.950 . S
H744 C741 0.950 . S
C745 C736 1.390 . S
C745 H738 0.950 . S
C745 C742 1.387 . S
C746 C747 1.387 . S
C746 H750 0.950 . S
C746 C755 1.390 . S
C747 C746 1.387 . S
C747 C749 1.387 . S
H748 C755 0.950 . S
C749 C747 1.387 . S
C749 C751 1.390 . S
C749 H753 0.950 . S
H750 C746 0.950 . S
C751 C749 1.390 . S
C751 C752 1.387 . S
C751 H754 0.950 . S
C752 C751 1.387 . S
C752 C755 1.387 . S
H753 C749 0.950 . S
H754 C751 0.950 . S
C755 C746 1.390 . S
C755 H748 0.950 . S
C755 C752 1.387 . S
C756 C757 1.387 . S
C756 H760 0.950 . S
C756 C765 1.390 . S
C757 C756 1.387 . S
C757 C759 1.387 1_556 S
H758 C765 0.950 . S
C759 C757 1.387 1_554 S
C759 C761 1.390 . S
C759 H763 0.950 1_565 S
H760 C756 0.950 . S
C761 C759 1.390 . S
C761 C762 1.380 1_554 S
C761 H764 0.950 . S
C762 C761 1.380 1_556 S
C762 C765 1.396 . S
H763 C759 0.950 1_545 S
H764 C761 0.950 . S
C765 C756 1.390 . S
C765 H758 0.950 . S
C765 C762 1.396 . S
C766 C767 1.387 . S
C766 H770 0.950 . S
C766 C775 1.390 . S
C767 C766 1.387 . S
C767 C769 1.387 . S
H768 C775 0.950 . S
C769 C767 1.387 . S
C769 C771 1.390 . S
C769 H773 0.950 . S
H770 C766 0.950 . S
C771 C769 1.390 . S
C771 C772 1.387 . S
C771 H774 0.950 . S
C772 C771 1.387 . S
C772 C775 1.387 . S
H773 C769 0.950 . S
H774 C771 0.950 . S
C775 C766 1.390 . S
C775 H768 0.950 . S
C775 C772 1.387 . S
C776 C777 1.387 . S
C776 H780 0.950 . S
C776 C785 1.390 . S
C777 C776 1.387 . S
C777 C779 1.387 . S
H778 C785 0.950 . S
C779 C777 1.387 . S
C779 C781 1.390 . S
C779 H783 0.950 . S
H780 C776 0.950 . S
C781 C779 1.390 . S
C781 C782 1.387 . S
C781 H784 0.950 . S
C782 C781 1.387 . S
C782 C785 1.387 . S
H783 C779 0.950 . S
H784 C781 0.950 . S
C785 C776 1.390 . S
C785 H778 0.950 . S
C785 C782 1.387 . S
C786 C787 1.387 . S
C786 H790 0.950 . S
C786 C795 1.390 . S
C787 C786 1.387 . S
C787 C789 1.387 . S
H788 C795 0.950 . S
C789 C787 1.387 . S
C789 C791 1.390 . S
C789 H793 0.950 . S
H790 C786 0.950 . S
C791 C789 1.390 . S
C791 C792 1.387 . S
C791 H794 0.950 . S
C792 C791 1.387 . S
C792 C795 1.387 . S
H793 C789 0.950 . S
H794 C791 0.950 . S
C795 C786 1.390 . S
C795 H788 0.950 . S
C795 C792 1.387 . S
C796 C797 1.387 . S
C796 H800 0.950 . S
C796 C805 1.390 . S
C797 C796 1.387 . S
C797 C799 1.387 . S
H798 C805 0.950 . S
C799 C797 1.387 . S
C799 C801 1.390 . S
C799 H803 0.950 . S
H800 C796 0.950 . S
C801 C799 1.390 . S
C801 C802 1.387 . S
C801 H804 0.950 . S
C802 C801 1.387 . S
C802 C805 1.387 . S
H803 C799 0.950 . S
H804 C801 0.950 . S
C805 C796 1.390 . S
C805 H798 0.950 . S
C805 C802 1.387 . S
C806 C807 1.387 . S
C806 H810 0.950 . S
C806 C815 1.390 . S
C807 C806 1.387 . S
C807 C809 1.387 . S
H808 C815 0.950 . S
C809 C807 1.387 . S
C809 C811 1.390 . S
C809 H813 0.950 . S
H810 C806 0.950 . S
C811 C809 1.390 . S
C811 C812 1.387 . S
C811 H814 0.950 . S
C812 C811 1.387 . S
C812 C815 1.387 . S
H813 C809 0.950 . S
H814 C811 0.950 . S
C815 C806 1.390 . S
C815 H808 0.950 . S
C815 C812 1.387 . S
C816 C817 1.387 . S
C816 H820 0.950 . S
C816 C825 1.390 . S
C817 C816 1.387 . S
C817 C819 1.387 . S
H818 C825 0.950 . S
C819 C817 1.387 . S
C819 C821 1.390 . S
C819 H823 0.950 . S
H820 C816 0.950 . S
C821 C819 1.390 . S
C821 C822 1.387 . S
C821 H824 0.950 . S
C822 C821 1.387 . S
C822 C825 1.387 . S
H823 C819 0.950 . S
H824 C821 0.950 . S
C825 C816 1.390 . S
C825 H818 0.950 . S
C825 C822 1.387 . S
C826 C827 1.387 . S
C826 H830 0.950 . S
C826 C835 1.390 . S
C827 C826 1.387 . S
C827 C829 1.387 1_545 S
H828 C835 0.950 . S
C829 C827 1.387 1_565 S
C829 C831 1.390 . S
C829 H833 0.950 . S
H830 C826 0.950 . S
C831 C829 1.390 . S
C831 C832 1.387 1_565 S
C831 H834 0.950 . S
C832 C831 1.387 1_545 S
C832 C835 1.387 . S
H833 C829 0.950 . S
H834 C831 0.950 . S
C835 C826 1.390 . S
C835 H828 0.950 . S
C835 C832 1.387 . S
C836 C837 1.387 . S
C836 H840 0.950 . S
C836 C845 1.390 . S
C837 C836 1.387 . S
C837 C839 1.387 . S
H838 C845 0.950 . S
C839 C837 1.387 . S
C839 C841 1.390 . S
C839 H843 0.950 . S
H840 C836 0.950 . S
C841 C839 1.390 . S
C841 C842 1.387 . S
C841 H844 0.950 . S
C842 C841 1.387 . S
C842 C845 1.387 . S
H843 C839 0.950 . S
H844 C841 0.950 . S
C845 C836 1.390 . S
C845 H838 0.950 . S
C845 C842 1.387 . S
C846 C847 1.387 . S
C846 H850 0.950 . S
C846 C855 1.390 . S
C847 C846 1.387 . S
C847 C849 1.387 . S
H848 C855 0.950 . S
C849 C847 1.387 . S
C849 C851 1.390 . S
C849 H853 0.950 . S
H850 C846 0.950 . S
C851 C849 1.390 . S
C851 C852 1.387 . S
C851 H854 0.950 . S
C852 C851 1.387 . S
C852 C855 1.387 . S
H853 C849 0.950 . S
H854 C851 0.950 . S
C855 C846 1.390 . S
C855 H848 0.950 . S
C855 C852 1.387 . S
C856 C857 1.387 . S
C856 H860 0.950 . S
C856 C865 1.390 . S
C857 C856 1.387 . S
C857 C859 1.387 . S
H858 C865 0.950 . S
C859 C857 1.387 . S
C859 C861 1.390 . S
C859 H863 0.950 . S
H860 C856 0.950 . S
C861 C859 1.390 . S
C861 C862 1.387 . S
C861 H864 0.950 . S
C862 C861 1.387 . S
C862 C865 1.387 . S
H863 C859 0.950 . S
H864 C861 0.950 . S
C865 C856 1.390 . S
C865 H858 0.950 . S
C865 C862 1.387 . S
C866 C867 1.387 . S
C866 H870 0.950 . S
C866 C875 1.390 . S
C867 C866 1.387 . S
C867 C869 1.387 1_545 S
H868 C875 0.950 . S
C869 C867 1.387 1_565 S
C869 C871 1.390 . S
C869 H873 0.950 . S
H870 C866 0.950 . S
C871 C869 1.390 . S
C871 C872 1.387 1_565 S
C871 H874 0.950 . S
C872 C871 1.387 1_545 S
C872 C875 1.387 . S
H873 C869 0.950 . S
H874 C871 0.950 . S
C875 C866 1.390 . S
C875 H868 0.950 . S
C875 C872 1.387 . S
C876 C877 1.387 . S
C876 H880 0.950 . S
C876 C885 1.390 . S
C877 C876 1.387 . S
C877 C879 1.387 . S
H878 C885 0.950 . S
C879 C877 1.387 . S
C879 C881 1.390 . S
C879 H883 0.950 . S
H880 C876 0.950 . S
C881 C879 1.390 . S
C881 C882 1.387 . S
C881 H884 0.950 . S
C882 C881 1.387 . S
C882 C885 1.387 . S
H883 C879 0.950 . S
H884 C881 0.950 . S
C885 C876 1.390 . S
C885 H878 0.950 . S
C885 C882 1.387 . S
C886 C887 1.387 . S
C886 H890 0.950 . S
C886 C895 1.390 . S
C887 C886 1.387 . S
C887 C889 1.387 . S
H888 C895 0.950 . S
C889 C887 1.387 . S
C889 C891 1.390 . S
C889 H893 0.950 . S
H890 C886 0.950 . S
C891 C889 1.390 . S
C891 C892 1.387 . S
C891 H894 0.950 . S
C892 C891 1.387 . S
C892 C895 1.387 . S
H893 C889 0.950 . S
H894 C891 0.950 . S
C895 C886 1.390 . S
C895 H888 0.950 . S
C895 C892 1.387 . S
C896 C897 1.387 . S
C896 H900 0.950 . S
C896 C905 1.390 . S
C897 C896 1.387 . S
C897 C899 1.387 . S
H898 C905 0.950 . S
C899 C897 1.387 . S
C899 C901 1.390 . S
C899 H903 0.950 . S
H900 C896 0.950 . S
C901 C899 1.390 . S
C901 C902 1.387 . S
C901 H904 0.950 . S
C902 C901 1.387 . S
C902 C905 1.387 . S
H903 C899 0.950 . S
H904 C901 0.950 . S
C905 C896 1.390 . S
C905 H898 0.950 . S
C905 C902 1.387 . S
C906 C907 1.387 . S
C906 H910 0.950 . S
C906 C915 1.390 . S
C907 C906 1.387 . S
C907 C909 1.387 1_655 S
H908 C915 0.950 . S
C909 C907 1.387 1_455 S
C909 C911 1.390 . S
C909 H913 0.950 . S
H910 C906 0.950 . S
C911 C909 1.390 . S
C911 C912 1.387 1_455 S
C911 H914 0.950 . S
C912 C911 1.387 1_655 S
C912 C915 1.387 . S
H913 C909 0.950 . S
H914 C911 0.950 . S
C915 C906 1.390 . S
C915 H908 0.950 . S
C915 C912 1.387 . S
C916 C917 1.387 . S
C916 H920 0.950 . S
C916 C925 1.390 . S
C917 C916 1.387 . S
C917 C919 1.387 . S
H918 C925 0.950 . S
C919 C917 1.387 . S
C919 C921 1.390 . S
C919 H923 0.950 . S
H920 C916 0.950 . S
C921 C919 1.390 . S
C921 C922 1.387 . S
C921 H924 0.950 . S
C922 C921 1.387 . S
C922 C925 1.387 . S
H923 C919 0.950 . S
H924 C921 0.950 . S
C925 C916 1.390 . S
C925 H918 0.950 . S
C925 C922 1.387 . S
C926 C927 1.387 . S
C926 H930 0.950 . S
C926 C935 1.390 . S
C927 C926 1.387 . S
C927 C929 1.387 1_455 S
H928 C935 0.950 . S
C929 C927 1.387 1_655 S
C929 C931 1.390 . S
C929 H933 0.950 1_556 S
H930 C926 0.950 . S
C931 C929 1.390 . S
C931 C932 1.387 1_655 S
C931 H934 0.950 . S
C932 C931 1.387 1_455 S
C932 C935 1.387 . S
H933 C929 0.950 1_554 S
H934 C931 0.950 . S
C935 C926 1.390 . S
C935 H928 0.950 . S
C935 C932 1.387 . S
C936 C937 1.387 . S
C936 H940 0.950 . S
C936 C945 1.390 . S
C937 C936 1.387 . S
C937 C939 1.387 . S
H938 C945 0.950 . S
C939 C937 1.387 . S
C939 C941 1.390 . S
C939 H943 0.950 . S
H940 C936 0.950 . S
C941 C939 1.390 . S
C941 C942 1.387 . S
C941 H944 0.950 . S
C942 C941 1.387 . S
C942 C945 1.387 . S
H943 C939 0.950 . S
H944 C941 0.950 . S
C945 C936 1.390 . S
C945 H938 0.950 . S
C945 C942 1.387 . S
C946 C947 1.387 . S
C946 H950 0.950 1_554 S
C946 C955 1.390 . S
C947 C946 1.387 . S
C947 C949 1.387 . S
H948 C955 0.950 . S
C949 C947 1.387 . S
C949 C951 1.390 . S
C949 H953 0.950 . S
H950 C946 0.950 1_556 S
C951 C949 1.390 . S
C951 C952 1.387 . S
C951 H954 0.950 . S
C952 C951 1.387 . S
C952 C955 1.387 . S
H953 C949 0.950 . S
H954 C951 0.950 . S
C955 C946 1.390 . S
C955 H948 0.950 . S
C955 C952 1.387 . S
C956 C957 1.387 . S
C956 H960 0.950 . S
C956 C965 1.390 . S
C957 C956 1.387 . S
C957 C959 1.387 . S
H958 C965 0.950 . S
C959 C957 1.387 . S
C959 C961 1.390 . S
C959 H963 0.950 . S
H960 C956 0.950 . S
C961 C959 1.390 . S
C961 C962 1.387 . S
C961 H964 0.950 . S
C962 C961 1.387 . S
C962 C965 1.387 . S
H963 C959 0.950 . S
H964 C961 0.950 . S
C965 C956 1.390 . S
C965 H958 0.950 . S
C965 C962 1.387 . S
C966 C967 1.387 . S
C966 H970 0.950 . S
C966 C975 1.390 . S
C967 C966 1.387 . S
C967 C969 1.387 . S
H968 C975 0.950 . S
C969 C967 1.387 . S
C969 C971 1.390 . S
C969 H973 0.950 . S
H970 C966 0.950 . S
C971 C969 1.390 . S
C971 C972 1.387 . S
C971 H974 0.950 . S
C972 C971 1.387 . S
C972 C975 1.387 . S
H973 C969 0.950 . S
H974 C971 0.950 . S
C975 C966 1.390 . S
C975 H968 0.950 . S
C975 C972 1.387 . S
C976 C977 1.387 . S
C976 H980 0.950 . S
C976 C985 1.390 . S
C977 C976 1.387 . S
C977 C979 1.387 . S
H978 C985 0.950 . S
C979 C977 1.387 . S
C979 C981 1.390 . S
C979 H983 0.950 . S
H980 C976 0.950 . S
C981 C979 1.390 . S
C981 C982 1.387 . S
C981 H984 0.950 . S
C982 C981 1.387 . S
C982 C985 1.387 . S
H983 C979 0.950 . S
H984 C981 0.950 . S
C985 C976 1.390 . S
C985 H978 0.950 . S
C985 C982 1.387 . S
C986 C987 1.387 . S
C986 H990 0.950 . S
C986 C995 1.390 . S
C987 C986 1.387 . S
C987 C989 1.387 . S
H988 C995 0.950 . S
C989 C987 1.387 . S
C989 C991 1.390 . S
C989 H993 0.950 . S
H990 C986 0.950 . S
C991 C989 1.390 . S
C991 C992 1.387 . S
C991 H994 0.950 . S
C992 C991 1.387 . S
C992 C995 1.387 . S
H993 C989 0.950 . S
H994 C991 0.950 . S
C995 C986 1.390 . S
C995 H988 0.950 . S
C995 C992 1.387 . S
C996 C997 1.387 . S
C996 H1000 0.950 . S
C996 C1005 1.390 . S
C997 C996 1.387 . S
C997 C999 1.387 . S
H998 C1005 0.950 . S
C999 C997 1.387 . S
C999 C1001 1.390 . S
C999 H1003 0.950 . S
H1000 C996 0.950 . S
C1001 C999 1.390 . S
C1001 C1002 1.387 . S
C1001 H1004 0.950 . S
C1002 C1001 1.387 . S
C1002 C1005 1.387 . S
H1003 C999 0.950 . S
H1004 C1001 0.950 . S
C1005 C996 1.390 . S
C1005 H998 0.950 . S
C1005 C1002 1.387 . S
C1006 C1007 1.387 . S
C1006 H1010 0.950 . S
C1006 C1015 1.390 . S
C1007 C1006 1.387 . S
C1007 C1009 1.387 . S
H1008 C1015 0.950 . S
C1009 C1007 1.387 . S
C1009 C1011 1.390 . S
C1009 H1013 0.950 . S
H1010 C1006 0.950 . S
C1011 C1009 1.390 . S
C1011 C1012 1.387 . S
C1011 H1014 0.950 . S
C1012 C1011 1.387 . S
C1012 C1015 1.387 . S
H1013 C1009 0.950 . S
H1014 C1011 0.950 . S
C1015 C1006 1.390 . S
C1015 H1008 0.950 . S
C1015 C1012 1.387 . S
C1016 C1017 1.387 . S
C1016 H1020 0.950 . S
C1016 C1025 1.390 . S
C1017 C1016 1.387 . S
C1017 C1019 1.387 1_556 S
H1018 C1025 0.950 . S
C1019 C1017 1.387 1_554 S
C1019 C1021 1.390 . S
C1019 H1023 0.950 . S
H1020 C1016 0.950 . S
C1021 C1019 1.390 . S
C1021 C1022 1.387 1_554 S
C1021 H1024 0.950 . S
C1022 C1021 1.387 1_556 S
C1022 C1025 1.387 . S
H1023 C1019 0.950 . S
H1024 C1021 0.950 . S
C1025 C1016 1.390 . S
C1025 H1018 0.950 . S
C1025 C1022 1.387 . S
C1026 C1027 1.387 . S
C1026 H1030 0.950 . S
C1026 C1035 1.390 . S
C1027 C1026 1.387 . S
C1027 C1029 1.387 . S
H1028 C1035 0.950 . S
C1029 C1027 1.387 . S
C1029 C1031 1.390 . S
C1029 H1033 0.950 . S
H1030 C1026 0.950 . S
C1031 C1029 1.390 . S
C1031 C1032 1.387 . S
C1031 H1034 0.950 . S
C1032 C1031 1.387 . S
C1032 C1035 1.387 . S
H1033 C1029 0.950 . S
H1034 C1031 0.950 . S
C1035 C1026 1.390 . S
C1035 H1028 0.950 . S
C1035 C1032 1.387 . S
C1036 C1037 1.387 1_556 S
C1036 H1040 0.950 . S
C1036 C1045 1.390 . S
C1037 C1036 1.387 1_554 S
C1037 C1039 1.387 . S
H1038 C1045 0.950 . S
C1039 C1037 1.387 . S
C1039 C1041 1.390 . S
C1039 H1043 0.950 . S
H1040 C1036 0.950 . S
C1041 C1039 1.390 . S
C1041 C1042 1.387 . S
C1041 H1044 0.950 . S
C1042 C1041 1.387 . S
C1042 C1045 1.387 1_554 S
H1043 C1039 0.950 . S
H1044 C1041 0.950 . S
C1045 C1036 1.390 . S
C1045 H1038 0.950 . S
C1045 C1042 1.387 1_556 S
C1046 C1047 1.387 1_556 S
C1046 H1050 0.950 . S
C1046 C1055 1.390 . S
C1047 C1046 1.387 1_554 S
C1047 C1049 1.387 . S
H1048 C1055 0.950 . S
C1049 C1047 1.387 . S
C1049 C1051 1.390 . S
C1049 H1053 0.950 . S
H1050 C1046 0.950 . S
C1051 C1049 1.390 . S
C1051 C1052 1.387 . S
C1051 H1054 0.950 . S
C1052 C1051 1.387 . S
C1052 C1055 1.387 1_554 S
H1053 C1049 0.950 . S
H1054 C1051 0.950 . S
C1055 C1046 1.390 . S
C1055 H1048 0.950 . S
C1055 C1052 1.387 1_556 S
C582 C146 1.449 . S
C577 C50 1.454 . S
C592 C194 1.557 . S
C587 C61 1.607 1_455 S
C597 C67 1.459 . S
C602 C230 1.391 . S
C612 C266 1.516 . S
C607 C41 1.564 1_655 S
C622 C292 1.465 . S
C617 C95 1.462 . S
C632 C328 1.540 . S
C627 C113 1.541 . S
C637 C106 1.490 . S
C642 C363 1.497 . S
C652 C400 1.565 1_565 S
C647 C86 1.572 . S
C657 C104 1.454 . S
C662 C434 1.449 . S
C672 C482 1.509 . S
C667 C88 1.556 . S
C677 C94 1.453 . S
C682 C435 1.464 . S
C692 C472 1.556 . S
C687 C112 1.556 . S
C697 C70 1.478 . S
C702 C518 1.412 . S
C707 C40 1.578 . S
C712 C507 1.570 . S
C717 C49 1.489 . S
C722 C508 1.490 . S
C727 C59 1.599 . S
C732 C506 1.594 1_655 S
C737 C34 1.449 . S
C742 C254 1.443 . S
C747 C133 1.447 . S
C752 C255 1.455 . S
C762 C158 1.542 . S
C757 C139 1.592 1_565 S
C772 C183 1.493 . S
C767 C77 1.492 . S
C777 C43 1.572 1_545 S
C782 C290 1.568 . S
C792 C398 1.478 . S
C787 C103 1.484 . S
C802 C291 1.554 . S
C797 C85 1.561 1_545 S
C812 C364 1.554 . S
C807 C115 1.556 . S
C822 C362 1.449 . S
C817 C131 1.454 . S
C827 C142 1.607 . S
C832 C410 1.557 . S
C837 C76 1.459 . S
C842 C302 1.391 . S
C852 C338 1.514 . S
C847 C122 1.564 . S
C857 C32 1.461 . S
C862 C220 1.465 . S
C872 C256 1.539 . S
C867 C5 1.540 1_655 S
C882 C147 1.498 . S
C877 C16 1.489 . S
C892 C184 1.568 . S
C887 C23 1.571 1_455 S
C897 C14 1.454 . S
C902 C470 1.449 . S
C907 C25 1.556 1_556 S
C912 C446 1.510 . S
C917 C31 1.454 . S
C922 C471 1.464 . S
C927 C4 1.556 1_556 S
C932 C436 1.556 . S
C942 C554 1.413 . S
C937 C79 1.478 . S
C952 C543 1.570 . S
C947 C121 1.578 1_554 S
C962 C544 1.491 . S
C957 C130 1.490 . S
C967 C140 1.599 1_554 S
C972 C542 1.594 . S
C977 C97 1.450 . S
C982 C326 1.443 . S
C992 C327 1.455 . S
C987 C52 1.445 . S
C1002 C374 1.542 . S
C997 C58 1.592 . S
C1012 C399 1.493 . S
C1007 C68 1.494 . S
C1017 C124 1.572 . S
C1022 C218 1.562 1_556 S
C1032 C182 1.479 . S
C1027 C13 1.487 . S
C1037 C22 1.561 . S
C1042 C219 1.554 . S
C1052 C148 1.554 . S
C1047 C7 1.556 1_565 S
