# Generated by pormake.
# Topology zzz, (3,6)-cn, num edge types: 1
# Building blocks:
#     Node 0, Type 0, BuildingBlock: BETDIP_clean_linker_0, # of connection points: 3
#     Node 1, Type 0, BuildingBlock: BETDIP_clean_linker_0, # of connection points: 3
#     Node 2, Type 0, BuildingBlock: BETDIP_clean_linker_0, # of connection points: 3
#     Node 3, Type 0, BuildingBlock: BETDIP_clean_linker_0, # of connection points: 3
#     Node 4, Type 0, BuildingBlock: BETDIP_clean_linker_0, # of connection points: 3
#     Node 5, Type 0, BuildingBlock: BETDIP_clean_linker_0, # of connection points: 3
#     Node 6, Type 0, BuildingBlock: BETDIP_clean_linker_0, # of connection points: 3
#     Node 7, Type 0, BuildingBlock: BETDIP_clean_linker_0, # of connection points: 3
#     Node 8, Type 1, BuildingBlock: FUNLAD_clean_sbu_0, # of connection points: 6
#     Node 9, Type 1, BuildingBlock: FUNLAD_clean_sbu_0, # of connection points: 6
#     Node 10, Type 1, BuildingBlock: FUNLAD_clean_sbu_0, # of connection points: 6
#     Node 11, Type 1, BuildingBlock: FUNLAD_clean_sbu_0, # of connection points: 6
#     Edge 12, Type (0, 1), BuildingBlock: CIFDUS_clean_linker_0, # of connection points: 2
#     Edge 13, Type (0, 1), BuildingBlock: CIFDUS_clean_linker_0, # of connection points: 2
#     Edge 14, Type (0, 1), BuildingBlock: CIFDUS_clean_linker_0, # of connection points: 2
#     Edge 15, Type (0, 1), BuildingBlock: CIFDUS_clean_linker_0, # of connection points: 2
#     Edge 16, Type (0, 1), BuildingBlock: CIFDUS_clean_linker_0, # of connection points: 2
#     Edge 17, Type (0, 1), BuildingBlock: CIFDUS_clean_linker_0, # of connection points: 2
#     Edge 18, Type (0, 1), BuildingBlock: CIFDUS_clean_linker_0, # of connection points: 2
#     Edge 19, Type (0, 1), BuildingBlock: CIFDUS_clean_linker_0, # of connection points: 2
#     Edge 20, Type (0, 1), BuildingBlock: CIFDUS_clean_linker_0, # of connection points: 2
#     Edge 21, Type (0, 1), BuildingBlock: CIFDUS_clean_linker_0, # of connection points: 2
#     Edge 22, Type (0, 1), BuildingBlock: CIFDUS_clean_linker_0, # of connection points: 2
#     Edge 23, Type (0, 1), BuildingBlock: CIFDUS_clean_linker_0, # of connection points: 2
#     Edge 24, Type (0, 1), BuildingBlock: CIFDUS_clean_linker_0, # of connection points: 2
#     Edge 25, Type (0, 1), BuildingBlock: CIFDUS_clean_linker_0, # of connection points: 2
#     Edge 26, Type (0, 1), BuildingBlock: CIFDUS_clean_linker_0, # of connection points: 2
#     Edge 27, Type (0, 1), BuildingBlock: CIFDUS_clean_linker_0, # of connection points: 2
#     Edge 28, Type (0, 1), BuildingBlock: CIFDUS_clean_linker_0, # of connection points: 2
#     Edge 29, Type (0, 1), BuildingBlock: CIFDUS_clean_linker_0, # of connection points: 2
#     Edge 30, Type (0, 1), BuildingBlock: CIFDUS_clean_linker_0, # of connection points: 2
#     Edge 31, Type (0, 1), BuildingBlock: CIFDUS_clean_linker_0, # of connection points: 2
#     Edge 32, Type (0, 1), BuildingBlock: CIFDUS_clean_linker_0, # of connection points: 2
#     Edge 33, Type (0, 1), BuildingBlock: CIFDUS_clean_linker_0, # of connection points: 2
#     Edge 34, Type (0, 1), BuildingBlock: CIFDUS_clean_linker_0, # of connection points: 2
#     Edge 35, Type (0, 1), BuildingBlock: CIFDUS_clean_linker_0, # of connection points: 2
# Relax obj value: 0.115
# Max RMSD: 0.175
# Mean RMSD: 0.092
data_MOF--net-zzz--node1-FUNLAD_clean_sbu_0--node2-BETDIP_clean_linker_0--edge1-CIFDUS_clean_linker_0
_symmetry_space_group_name_H-M    P1
_symmetry_Int_Tables_number       1
_symmetry_cell_setting            triclinic
loop_
_symmetry_equiv_pos_as_xyz
'x, y, z'
_cell_length_a     45.240327
_cell_length_b     51.436412
_cell_length_c     15.337571
_cell_angle_alpha  84.582746
_cell_angle_beta   83.895608
_cell_angle_gamma 89.425895
loop_
_atom_site_label
_atom_site_type_symbol
_atom_site_fract_x
_atom_site_fract_y
_atom_site_fract_z
_atom_type_partial_charge
H0 H 0.7922 0.49891 0.4266 0.0
H1 H 0.81897 0.48156 0.15957 0.0
H2 H 0.87968 0.46903 0.35538 0.0
H3 H 0.78992 0.52136 0.14286 0.0
C4 C 0.7706 0.51183 0.18033 0.0
C5 C 0.80839 0.49133 0.37818 0.0
C6 C 0.83663 0.48346 0.40131 0.0
C7 C 0.80175 0.49047 0.29067 0.0
C8 C 0.82353 0.48169 0.22745 0.0
C9 C 0.85174 0.47434 0.25043 0.0
C10 C 0.85767 0.47444 0.33774 0.0
N11 N 0.77363 0.49919 0.26568 0.0
H12 H 0.97798 0.75917 0.28468 0.0
H13 H 0.99442 0.79478 0.01779 0.0
H14 H 0.99897 0.84037 0.23681 0.0
H15 H 0.96858 0.75775 0.98931 0.0
C16 C 0.98004 0.74366 0.03112 0.0
C17 C 0.98263 0.7763 0.23862 0.0
C18 C 0.98678 0.80049 0.26976 0.0
C19 C 0.9854 0.77409 0.14754 0.0
C20 C 0.99205 0.79647 0.0879 0.0
C21 C 0.99661 0.82085 0.11921 0.0
C22 C 0.99409 0.82228 0.21032 0.0
N23 N 0.98412 0.7488 0.11836 0.0
H24 H 0.76395 0.00496 0.28954 0.0
H25 H 0.74668 0.01179 0.01588 0.0
H26 H 0.67464 0.01335 0.22028 0.0
H27 H 0.78839 0.98648 0.0048 0.0
C28 C 0.80281 0.99653 0.04295 0.0
C29 C 0.74862 0.00726 0.23972 0.0
C30 C 0.71781 0.00883 0.26497 0.0
C31 C 0.75945 0.00797 0.14939 0.0
C32 C 0.73903 0.01087 0.08538 0.0
C33 C 0.70842 0.01225 0.11112 0.0
C34 C 0.69831 0.01176 0.20035 0.0
N35 N 0.79067 0.00583 0.12415 0.0
H36 H 0.55404 0.69366 0.27263 0.0
H37 H 0.52807 0.697 0.00863 0.0
H38 H 0.52159 0.62512 0.17337 0.0
H39 H 0.56617 0.72618 0.98498 0.0
C40 C 0.55988 0.73792 0.03934 0.0
C41 C 0.54543 0.68426 0.2203 0.0
C42 C 0.53699 0.6578 0.23389 0.0
C43 C 0.54283 0.69854 0.13842 0.0
C44 C 0.53109 0.68623 0.07114 0.0
C45 C 0.52306 0.65985 0.08404 0.0
C46 C 0.52635 0.64589 0.16494 0.0
N47 N 0.55154 0.72527 0.12488 0.0
H48 H 0.25692 0.51233 0.02339 0.0
H49 H 0.23255 0.50886 0.30476 0.0
H50 H 0.16513 0.5055 0.13147 0.0
H51 H 0.27053 0.53964 0.28682 0.0
C52 C 0.28679 0.52714 0.25385 0.0
C53 C 0.24022 0.51081 0.07973 0.0
C54 C 0.20992 0.50821 0.06771 0.0
C55 C 0.24863 0.51178 0.16559 0.0
C56 C 0.22659 0.50924 0.23809 0.0
C57 C 0.19665 0.50749 0.22533 0.0
C58 C 0.1885 0.50705 0.14067 0.0
N59 N 0.279 0.51504 0.17953 0.0
H60 H 0.07539 0.23741 0.18372 0.0
H61 H 0.05046 0.20342 0.44909 0.0
H62 H 0.0784 0.15438 0.24512 0.0
H63 H 0.02945 0.24097 0.46737 0.0
C64 C 0.04287 0.25567 0.4262 0.0
C65 C 0.07311 0.22054 0.23191 0.0
C66 C 0.07848 0.19548 0.20523 0.0
C67 C 0.06357 0.22375 0.32046 0.0
C68 C 0.05848 0.20144 0.38122 0.0
C69 C 0.06301 0.17626 0.35393 0.0
C70 C 0.07445 0.17369 0.267 0.0
N71 N 0.05887 0.2495 0.34581 0.0
H72 H 0.29276 0.99795 0.17281 0.0
H73 H 0.30817 0.99826 0.44662 0.0
H74 H 0.3817 0.99551 0.24804 0.0
H75 H 0.26557 0.02229 0.4498 0.0
C76 C 0.25199 0.01031 0.41504 0.0
C77 C 0.30776 0.99761 0.22344 0.0
C78 C 0.33878 0.99673 0.20021 0.0
C79 C 0.29628 0.99881 0.31263 0.0
C80 C 0.31626 0.99822 0.37765 0.0
C81 C 0.34695 0.99669 0.35426 0.0
C82 C 0.35784 0.99611 0.26607 0.0
N83 N 0.26488 -0.0 0.33632 0.0
H84 H 0.50206 0.30415 0.19253 0.0
H85 H 0.52292 0.30054 0.46184 0.0
H86 H 0.52529 0.37381 0.30437 0.0
H87 H 0.48281 0.26867 0.46924 0.0
C88 C 0.4952 0.25801 0.41931 0.0
C89 C 0.50848 0.31376 0.24752 0.0
C90 C 0.51398 0.34081 0.23802 0.0
C91 C 0.51124 0.29912 0.32869 0.0
C92 C 0.5201 0.31164 0.39966 0.0
C93 C 0.52599 0.33846 0.38991 0.0
C94 C 0.52232 0.35279 0.30994 0.0
N95 N 0.5061 0.27173 0.33753 0.0
C96 C 0.03523 0.9612 0.87347 0.0
N97 N 0.02209 0.95429 0.6153 0.0
C98 C 0.04353 0.93605 0.62923 0.0
C99 C 0.0416 0.91137 0.60094 0.0
C100 C 0.01779 0.9052 0.55521 0.0
C101 C 0.99632 0.92463 0.53889 0.0
C102 C 0.99877 0.94915 0.57049 0.0
Zn103 Zn 0.02486 0.98592 0.68524 0.0
C104 C 0.96775 0.997 0.79111 0.0
N105 N 0.03605 0.04269 0.85959 0.0
C106 C 0.05927 0.04663 0.90624 0.0
C107 C 0.01584 0.0619 0.84406 0.0
C108 C 0.01925 0.08652 0.87166 0.0
C109 C 0.04316 0.09151 0.91883 0.0
C110 C 0.06308 0.07097 0.93755 0.0
Zn111 Zn 0.03261 0.01111 0.79024 0.0
O112 O 0.03106 0.95863 0.79428 0.0
C113 C 0.08968 0.00043 0.68372 0.0
O114 O 0.03759 0.98392 0.89813 0.0
H115 H 0.99774 0.05863 0.80579 0.0
H116 H 0.06161 0.94011 0.66659 0.0
H117 H 0.07528 0.03121 0.91688 0.0
O118 O 0.07166 0.98804 0.64482 0.0
O119 O 0.07969 0.01175 0.75119 0.0
H120 H 0.98169 0.96373 0.56145 0.0
O121 O 0.02761 0.03769 0.68237 0.0
O122 O 0.0185 0.01403 0.57698 0.0
O123 O 0.9857 0.01001 0.82833 0.0
O124 O 0.97788 0.98465 0.72607 0.0
C125 C 0.02247 0.03633 0.60347 0.0
H126 H 0.05835 0.89706 0.61711 0.0
H127 H 0.97779 0.92095 0.50255 0.0
H128 H 1.00361 0.10164 0.8537 0.0
H129 H 0.08151 0.07363 0.97541 0.0
C130 C 0.49091 0.99071 0.6066 0.0
N131 N 0.52828 0.05893 0.67746 0.0
C132 C 0.52786 0.06705 0.59055 0.0
C133 C 0.52345 0.09336 0.56343 0.0
C134 C 0.51977 0.11169 0.62615 0.0
C135 C 0.5216 0.10285 0.71514 0.0
C136 C 0.52566 0.07628 0.73949 0.0
Zn137 Zn 0.52942 0.01963 0.71435 0.0
C138 C 0.47722 0.00376 0.84584 0.0
N139 N 0.52799 0.93725 0.78436 0.0
C140 C 0.53828 0.92081 0.72364 0.0
C141 C 0.51958 0.92808 0.86944 0.0
C142 C 0.52145 0.90142 0.89627 0.0
C143 C 0.53269 0.88398 0.83547 0.0
C144 C 0.54115 0.89415 0.74799 0.0
Zn145 Zn 0.52725 0.97661 0.74767 0.0
O146 O 0.49918 0.01325 0.62169 0.0
C147 C 0.5796 0.99329 0.61623 0.0
O148 O 0.50129 0.97054 0.64682 0.0
H149 H 0.51165 0.94147 0.91698 0.0
H150 H 0.52999 0.05296 0.54221 0.0
H151 H 0.54478 0.9284 0.65626 0.0
O152 O 0.5673 0.01551 0.62132 0.0
O153 O 0.56744 0.97342 0.66119 0.0
H154 H 0.52599 0.06942 0.80824 0.0
O155 O 0.55328 0.98285 0.84883 0.0
O156 O 0.55928 0.02478 0.80832 0.0
O157 O 0.4869 0.98098 0.83262 0.0
O158 O 0.49184 0.02351 0.8086 0.0
C159 C 0.56522 0.00455 0.85762 0.0
H160 H 0.52186 0.09902 0.4943 0.0
H161 H 0.51951 0.11623 0.76584 0.0
H162 H 0.51408 0.89466 0.96397 0.0
H163 H 0.55052 0.88181 0.6987 0.0
C164 C 0.54518 0.45895 0.64484 0.0
N165 N 0.45817 0.48955 0.68363 0.0
C166 C 0.45843 0.47968 0.60406 0.0
C167 C 0.43304 0.48047 0.55953 0.0
C168 C 0.40703 0.49257 0.59443 0.0
C169 C 0.40699 0.50173 0.6783 0.0
C170 C 0.43267 0.49971 0.72219 0.0
Zn171 Zn 0.49896 0.49494 0.73165 0.0
C172 C 0.51406 0.46237 0.87761 0.0
N173 N 0.58716 0.50989 0.78815 0.0
C174 C 0.61403 0.50868 0.73947 0.0
C175 C 0.58535 0.51341 0.87546 0.0
C176 C 0.61091 0.51565 0.91732 0.0
C177 C 0.63899 0.5139 0.8698 0.0
C178 C 0.64038 0.51067 0.7792 0.0
Zn179 Zn 0.54707 0.50386 0.74068 0.0
O180 O 0.51792 0.46449 0.66214 0.0
C181 C 0.53197 0.53654 0.5952 0.0
O182 O 0.56508 0.47353 0.66686 0.0
H183 H 0.56393 0.51398 0.91381 0.0
H184 H 0.47867 0.47224 0.57183 0.0
H185 H 0.61505 0.50561 0.67041 0.0
O186 O 0.50868 0.52328 0.62291 0.0
O187 O 0.55562 0.53208 0.63219 0.0
H188 H 0.43246 0.50759 0.78507 0.0
O189 O 0.52864 0.53422 0.8113 0.0
O190 O 0.48151 0.52549 0.80592 0.0
O191 O 0.53731 0.4755 0.84876 0.0
O192 O 0.49028 0.46667 0.841 0.0
C193 C 0.50144 0.53985 0.8287 0.0
H194 H 0.43433 0.47227 0.49683 0.0
H195 H 0.38787 0.51154 0.70862 0.0
H196 H 0.60858 0.51867 0.98664 0.0
H197 H 0.66154 0.50901 0.73992 0.0
C198 C 0.05508 0.51164 0.57402 0.0
N199 N 0.02335 0.44037 0.69757 0.0
C200 C 0.01769 0.43565 0.61514 0.0
C201 C 0.01918 0.41036 0.58969 0.0
C202 C 0.02649 0.3896 0.64962 0.0
C203 C 0.03182 0.39489 0.73482 0.0
C204 C 0.03022 0.42061 0.75748 0.0
Zn205 Zn 0.02218 0.47832 0.72605 0.0
C206 C 0.07626 0.49354 0.80327 0.0
N207 N 0.02107 0.55921 0.76594 0.0
C208 C 0.01508 0.57832 0.70272 0.0
C209 C 0.02365 0.56471 0.84977 0.0
C210 C 0.01872 0.58998 0.87386 0.0
C211 C 0.01173 0.61011 0.81069 0.0
C212 C 0.01063 0.60404 0.72351 0.0
Zn213 Zn 0.02271 0.52103 0.73918 0.0
O214 O 0.04745 0.48868 0.60531 0.0
C215 C 0.96873 0.50583 0.66182 0.0
O216 O 0.04627 0.531 0.61528 0.0
H217 H 0.02855 0.54929 0.89906 0.0
H218 H 0.01218 0.45161 0.56858 0.0
H219 H 0.01303 0.57351 0.63649 0.0
O220 O 0.98143 0.48371 0.66945 0.0
O221 O 0.98139 0.5257 0.68447 0.0
H222 H 0.03472 0.42485 0.82255 0.0
O223 O 0.99922 0.51017 0.86403 0.0
O224 O 0.99742 0.46829 0.84684 0.0
O225 O 0.06426 0.51593 0.79239 0.0
O226 O 0.06276 0.47356 0.78427 0.0
C227 C 0.99082 0.48716 0.89281 0.0
H228 H 0.01444 0.40708 0.52385 0.0
H229 H 0.03768 0.3794 0.78279 0.0
H230 H 0.01934 0.59333 0.94224 0.0
H231 H 1.00597 0.61886 0.6719 0.0
H232 H 0.22549 0.0264 0.56597 0.0
H233 H 0.20819 0.98313 0.34939 0.0
H234 H 0.15684 0.97554 0.41524 0.0
H235 H 0.11664 0.98179 0.53374 0.0
H236 H 0.13438 0.02532 0.74987 0.0
H237 H 0.18575 0.032 0.68524 0.0
C238 C 0.21044 0.01531 0.53315 0.0
C239 C 0.22062 0.00544 0.45273 0.0
C240 C 0.18103 0.01098 0.5716 0.0
C241 C 0.20095 0.99102 0.41114 0.0
C242 C 0.17157 0.98665 0.44893 0.0
C243 C 0.13176 0.99261 0.56714 0.0
C244 C 0.12149 0.00301 0.64694 0.0
C245 C 0.16135 0.99658 0.52912 0.0
C246 C 0.14152 0.01704 0.68874 0.0
C247 C 0.17095 0.02094 0.65162 0.0
H248 H 0.47519 0.22844 0.56679 0.0
H249 H 0.53109 0.22538 0.3221 0.0
H250 H 0.54414 0.18005 0.36557 0.0
H251 H 0.54049 0.14168 0.4749 0.0
H252 H 0.48249 0.14448 0.71663 0.0
H253 H 0.47009 0.18966 0.67338 0.0
C254 C 0.4901 0.21774 0.52284 0.0
C255 C 0.5021 0.23015 0.44149 0.0
C256 C 0.49745 0.19176 0.54823 0.0
C257 C 0.52144 0.21621 0.38501 0.0
C258 C 0.52899 0.19032 0.41 0.0
C259 C 0.52488 0.15201 0.51787 0.0
C260 C 0.5127 0.13953 0.59944 0.0
C261 C 0.51723 0.17793 0.49169 0.0
C262 C 0.49285 0.15357 0.65449 0.0
C263 C 0.48544 0.17941 0.62941 0.0
H264 H 0.28631 0.51878 0.42882 0.0
H265 H 0.34362 0.51563 0.18718 0.0
H266 H 0.38606 0.50462 0.27147 0.0
H267 H 0.40683 0.49859 0.41361 0.0
H268 H 0.34759 0.49631 0.65522 0.0
H269 H 0.306 0.50732 0.57077 0.0
C270 C 0.30812 0.51546 0.39481 0.0
C271 C 0.31209 0.51818 0.3023 0.0
C272 C 0.33202 0.50851 0.44359 0.0
C273 C 0.34018 0.51357 0.25848 0.0
C274 C 0.36437 0.5074 0.30669 0.0
C275 C 0.38485 0.49975 0.4486 0.0
C276 C 0.38092 0.4969 0.54185 0.0
C277 C 0.36057 0.50507 0.3994 0.0
C278 C 0.35192 0.49915 0.58424 0.0
C279 C 0.32789 0.5052 0.53583 0.0
H280 H 0.01901 0.2708 0.58127 0.0
H281 H 0.06796 0.29999 0.3353 0.0
H282 H 0.06776 0.34384 0.3843 0.0
H283 H 0.0531 0.37395 0.49628 0.0
H284 H 1.00427 0.34484 0.74258 0.0
H285 H 1.00543 0.30076 0.69493 0.0
C286 C 0.02962 0.28682 0.53856 0.0
C287 C 0.04332 0.28226 0.45484 0.0
C288 C 0.02957 0.3119 0.56738 0.0
C289 C 0.0572 0.30302 0.40006 0.0
C290 C 0.0571 0.32809 0.42803 0.0
C291 C 0.0426 0.35796 0.53934 0.0
C292 C 0.02846 0.36265 0.6226 0.0
C293 C 0.04324 0.33276 0.51136 0.0
C294 C 0.01546 0.34168 0.67844 0.0
C295 C 0.01596 0.31653 0.65102 0.0
H296 H 0.82966 0.97848 0.89529 0.0
H297 H 0.84778 0.02052 0.11394 0.0
H298 H 0.90012 0.02483 0.05404 0.0
H299 H 0.9408 0.01644 0.93951 0.0
H300 H 0.92247 0.97381 0.7219 0.0
H301 H 0.87022 0.97005 0.78116 0.0
C302 C 0.84511 0.98856 0.92988 0.0
C303 C 0.83483 0.99911 0.00905 0.0
C304 C 0.87514 0.99092 0.89502 0.0
C305 C 0.85507 0.01215 0.05309 0.0
C306 C 0.88501 0.01465 0.0187 0.0
C307 C 0.92539 0.00641 0.9047 0.0
C308 C 0.9357 0.99549 0.82592 0.0
C309 C 0.8953 0.00412 0.93965 0.0
C310 C 0.91529 0.98244 0.78236 0.0
C311 C 0.88536 0.98025 0.81634 0.0
H312 H 0.5478 0.76121 0.88409 0.0
H313 H 0.56114 0.77746 0.14753 0.0
H314 H 0.5542 0.82433 0.10746 0.0
H315 H 0.54556 0.86046 -0.00427 0.0
H316 H 0.52671 0.84282 0.73702 0.0
H317 H 0.53506 0.79674 0.7768 0.0
C318 C 0.54917 0.77508 0.93262 0.0
C319 C 0.55518 0.76613 0.01818 0.0
C320 C 0.54435 0.8017 0.90978 0.0
C321 C 0.55653 0.78405 0.08116 0.0
C322 C 0.5526 0.81078 0.05818 0.0
C323 C 0.54271 0.84662 0.94826 0.0
C324 C 0.53594 0.8555 0.86269 0.0
C325 C 0.54654 0.81983 0.97249 0.0
C326 C 0.53279 0.83695 0.80236 0.0
C327 C 0.53729 0.81044 0.82526 0.0
H328 H 0.76205 0.53209 0.01699 0.0
H329 H 0.71774 0.48765 0.24536 0.0
H330 H 0.67355 0.48391 0.1681 0.0
H331 H 0.64793 0.4927 0.03504 0.0
H332 H 0.69183 0.53816 0.8077 0.0
H333 H 0.73606 0.54149 0.88447 0.0
C334 C 0.74261 0.5217 0.04989 0.0
C335 C 0.74308 0.51025 0.13672 0.0
C336 C 0.71739 0.51956 0.00494 0.0
C337 C 0.7179 0.49673 0.17866 0.0
C338 C 0.69267 0.49452 0.13438 0.0
C339 C 0.66701 0.50362 0.00241 0.0
C340 C 0.66637 0.51526 0.91553 0.0
C341 C 0.69221 0.50581 0.04745 0.0
C342 C 0.6917 0.52874 0.87393 0.0
C343 C 0.71695 0.53084 0.91811 0.0
H344 H 0.96148 0.72163 0.89349 0.0
H345 H 0.02091 0.7097 0.09565 0.0
H346 H 0.03746 0.66837 0.04094 0.0
H347 H 0.03474 0.63555 0.93707 0.0
H348 H 0.97151 0.64508 0.74407 0.0
H349 H 0.95761 0.68773 0.79175 0.0
C350 C 0.97803 0.7099 0.92535 0.0
C351 C 0.98982 0.71854 -0.00143 0.0
C352 C 0.98703 0.68587 0.89462 0.0
C353 C 0.01125 0.70329 0.03965 0.0
C354 C 0.02083 0.67971 0.00819 0.0
C355 C 0.01761 0.64667 0.90592 0.0
C356 C 1.00429 0.63682 0.83688 0.0
C357 C 1.00873 0.67074 0.9361 0.0
C358 C 0.9827 0.65214 0.79616 0.0
C359 C 0.97441 0.67651 0.82408 0.0
H360 H 0.03706 0.13189 0.31243 0.0
H361 H 0.06893 0.16708 0.53003 0.0
H362 H 0.05576 0.12767 0.62664 0.0
H363 H 0.03867 0.08307 0.64699 0.0
H364 H 0.01178 0.04507 0.42854 0.0
H365 H 0.02012 0.0861 0.3332 0.0
C366 C 0.04159 0.13087 0.38066 0.0
C367 C 0.0543 0.15248 0.41358 0.0
C368 C 0.035 0.10777 0.43517 0.0
C369 C 0.05897 0.15099 0.50294 0.0
C370 C 0.05165 0.12838 0.55809 0.0
C371 C 0.03433 0.08354 0.57863 0.0
C372 C 0.02458 0.06092 0.54483 0.0
C373 C 0.04007 0.10664 0.52449 0.0
C374 C 0.01925 0.06217 0.4561 0.0
C375 C 0.02411 0.08557 0.40177 0.0
H376 H 0.39064 0.96171 0.37879 0.0
H377 H 0.35228 0.03231 0.47219 0.0
H378 H 0.39463 0.03727 0.55662 0.0
H379 H 0.44403 0.02296 0.59503 0.0
H380 H 0.48165 0.95165 0.50472 0.0
H381 H 0.43833 0.94576 0.4254 0.0
C382 C 0.39143 0.97793 0.41891 0.0
C383 C 0.36862 0.99668 0.41956 0.0
C384 C 0.41596 0.98085 0.46545 0.0
C385 C 0.36955 0.01756 0.47174 0.0
C386 C 0.3939 0.02056 0.51883 0.0
C387 C 0.44284 0.00632 0.557 0.0
C388 C 0.46615 0.98806 0.55355 0.0
C389 C 0.41755 0.00268 0.51423 0.0
C390 C 0.46407 0.96611 0.50681 0.0
C391 C 0.43928 0.96267 0.46219 0.0
H392 H 0.57129 0.37255 0.38812 0.0
H393 H 0.49704 0.33696 0.55498 0.0
H394 H 0.49987 0.37004 0.65824 0.0
H395 H 0.51695 0.41337 0.68419 0.0
H396 H 0.58962 0.45048 0.51478 0.0
H397 H 0.59415 0.41242 0.42874 0.0
C398 C 0.55632 0.3717 0.44848 0.0
C399 C 0.53366 0.35273 0.46362 0.0
C400 C 0.55742 0.39131 0.50554 0.0
C401 C 0.5146 0.35141 0.54221 0.0
C402 C 0.516 0.3705 0.60054 0.0
C403 C 0.53413 0.41286 0.62928 0.0
C404 C 0.55252 0.43471 0.604 0.0
C405 C 0.53625 0.39123 0.58023 0.0
C406 C 0.57515 0.43383 0.53449 0.0
C407 C 0.5776 0.41218 0.48534 0.0
H408 H 0.15089 0.5407 0.25202 0.0
H409 H 0.19047 0.47027 0.3631 0.0
H410 H 0.1487 0.46477 0.47874 0.0
H411 H 0.10085 0.47951 0.54506 0.0
H412 H 0.06247 0.55159 0.44232 0.0
H413 H 0.10391 0.557 0.32472 0.0
C414 C 0.15031 0.52431 0.30224 0.0
C415 C 0.17337 0.50584 0.29992 0.0
C416 C 0.12646 0.52148 0.36841 0.0
C417 C 0.17287 0.48472 0.36478 0.0
C418 C 0.14899 0.48151 0.4301 0.0
C419 C 0.10139 0.49625 0.49618 0.0
C420 C 0.07852 0.51486 0.50035 0.0
C421 C 0.12558 0.49961 0.43176 0.0
C422 C 0.07979 0.53691 0.43899 0.0
C423 C 0.10345 0.54002 0.3724 0.0
H424 H 0.98362 0.87176 0.14572 0.0
H425 H 0.03045 0.82431 0.95732 0.0
H426 H 0.04829 0.8638 0.86733 0.0
H427 H 0.05087 0.91184 0.84318 0.0
H428 H 1.0096 0.95833 0.04236 0.0
H429 H 0.99151 0.91868 0.13181 0.0
C430 C 0.99849 0.86971 0.08656 0.0
C431 C 1.0058 0.84473 0.05961 0.0
C432 C 0.01047 0.89232 0.03852 0.0
C433 C 0.02387 0.84305 0.97976 0.0
C434 C 0.03459 0.86567 0.92883 0.0
C435 C 0.03856 0.91318 0.9073 0.0
C436 C 0.03161 0.93786 0.93661 0.0
C437 C 0.02823 0.89036 0.95809 0.0
C438 C 0.0156 0.93951 0.01932 0.0
C439 C 1.00484 0.91689 0.06961 0.0
H440 H 0.66048 0.98152 0.12205 0.0
H441 H 0.70587 0.04489 0.95938 0.0
H442 H 0.66416 0.04947 0.86851 0.0
H443 H 0.61393 0.03594 0.83939 0.0
H444 H 0.56935 0.97279 0.0064 0.0
H445 H 0.61122 0.96833 0.0944 0.0
C446 C 0.66124 0.99636 0.0666 0.0
C447 C 0.68596 0.013 0.04758 0.0
C448 C 0.63706 0.9993 0.01716 0.0
C449 C 0.68706 0.03178 0.97472 0.0
C450 C 0.6631 0.03459 0.92369 0.0
C451 C 0.61324 0.02158 0.89612 0.0
C452 C 0.58853 0.00491 0.9173 0.0
C453 C 0.63775 0.01871 0.94532 0.0
C454 C 0.58809 0.98594 0.98948 0.0
C455 C 0.61207 0.98324 0.03929 0.0
H456 H 0.47759 0.62536 0.08958 0.0
H457 H 0.5502 0.66155 0.91673 0.0
H458 H 0.54613 0.62889 0.81317 0.0
H459 H 0.52886 0.58566 0.7876 0.0
H460 H 0.45811 0.54771 0.96258 0.0
H461 H 0.45437 0.58547 0.05012 0.0
C462 C 0.492 0.6264 0.02811 0.0
C463 C 0.51454 0.64547 0.01139 0.0
C464 C 0.49027 0.60697 0.97061 0.0
C465 C 0.53272 0.64705 0.93101 0.0
C466 C 0.53064 0.62819 0.87235 0.0
C467 C 0.51224 0.58594 0.84404 0.0
C468 C 0.4942 0.56396 0.87037 0.0
C469 C 0.51061 0.60737 0.89395 0.0
C470 C 0.4723 0.5645 0.94199 0.0
C471 C 0.47031 0.58597 0.992 0.0
H472 H 0.90479 0.49796 0.23288 0.0
H473 H 0.85375 0.44311 0.1143 0.0
H474 H 0.89477 0.43953 -0.00245 0.0
H475 H 0.94364 0.45471 0.92461 0.0
H476 H 0.99215 0.51221 0.03954 0.0
H477 H 0.9539 0.51147 0.16484 0.0
C478 C 0.90288 0.48481 0.18242 0.0
C479 C 0.87655 0.47061 0.18216 0.0
C480 C 0.92612 0.48328 0.11561 0.0
C481 C 0.87391 0.4542 0.11533 0.0
C482 C 0.89733 0.45213 0.04905 0.0
C483 C 0.94605 0.46657 0.97831 0.0
C484 C 0.97059 0.48334 0.97396 0.0
C485 C 0.92337 0.46687 0.04797 0.0
C486 C 0.97338 0.49912 0.04232 0.0
C487 C 0.95151 0.4988 0.11343 0.0
H488 H 0.03387 0.19435 0.10784 0.0
H489 H 0.12802 0.18131 0.10276 0.0
H490 H 0.12562 0.14894 -0.00359 0.0
H491 H 0.09475 0.11726 0.93626 0.0
H492 H 0.99906 0.12533 0.97155 0.0
H493 H 1.00387 0.16638 0.03364 0.0
C494 C 0.05405 0.18543 0.07933 0.0
C495 C 0.08101 0.19004 0.11246 0.0
C496 C 0.05188 0.16494 0.02653 0.0
C497 C 0.10708 0.17819 0.07697 0.0
C498 C 0.10552 0.15918 0.01813 0.0
C499 C 0.07492 0.12796 0.95745 0.0
C500 C 0.04659 0.1178 0.94982 0.0
C501 C 0.07769 0.15107 -0.00205 0.0
C502 C 0.02124 0.13251 0.97538 0.0
C503 C 0.0239 0.15608 0.01157 0.0
H504 H 0.36814 0.03652 0.10416 0.0
H505 H 0.34517 0.95575 0.0997 0.0
H506 H 0.38626 0.95072 0.98461 0.0
H507 H 0.43333 0.9678 0.90261 0.0
H508 H 0.45688 0.04848 0.91341 0.0
H509 H 0.41139 0.05497 0.00922 0.0
C510 C 0.37134 0.01818 0.07478 0.0
C511 C 0.35335 0.99666 0.10903 0.0
C512 C 0.39591 0.01517 0.01229 0.0
C513 C 0.35821 0.97274 0.07269 0.0
C514 C 0.38215 0.96975 0.00834 0.0
C515 C 0.42844 0.98682 0.92569 0.0
C516 C 0.44888 0.00748 0.90201 0.0
C517 C 0.40198 0.99052 0.9807 0.0
C518 C 0.44183 0.03213 0.93123 0.0
C519 C 0.4157 0.03592 0.98581 0.0
H520 H 0.55345 0.37621 0.15908 0.0
H521 H 0.46765 0.34389 0.13388 0.0
H522 H 0.45938 0.37905 0.01857 0.0
H523 H 0.4755 0.42136 0.93369 0.0
H524 H 0.55973 0.45439 0.97658 0.0
H525 H 0.56898 0.41722 0.07874 0.0
C526 C 0.53297 0.37673 0.1279 0.0
C527 C 0.51111 0.35769 0.15534 0.0
C528 C 0.52772 0.39763 0.06658 0.0
C529 C 0.48493 0.35828 0.11336 0.0
C530 C 0.48002 0.37861 0.04859 0.0
C531 C 0.49565 0.42051 0.96631 0.0
C532 C 0.5168 0.44077 0.94731 0.0
C533 C 0.50095 0.39888 0.02651 0.0
C534 C 0.54299 0.4392 0.98956 0.0
C535 C 0.54849 0.41782 0.04781 0.0
H536 H 0.18821 0.46633 0.00428 0.0
H537 H 0.20264 0.54898 0.94624 0.0
H538 H 0.16253 0.55152 0.8504 0.0
H539 H 0.11734 0.53163 0.8083 0.0
H540 H 0.10166 0.44909 0.87328 0.0
H541 H 0.14798 0.44506 0.9419 0.0
C542 C 0.18354 0.48459 0.96677 0.0
C543 C 0.19844 0.5074 0.98143 0.0
C544 C 0.15934 0.48609 0.91625 0.0
C545 C 0.19185 0.53112 0.93447 0.0
C546 C 0.16842 0.53264 0.88141 0.0
C547 C 0.1242 0.51272 0.8368 0.0
C548 C 0.10568 0.49081 0.83761 0.0
C549 C 0.15095 0.51053 0.87612 0.0
C550 C 0.11524 0.46634 0.8729 0.0
C551 C 0.14181 0.46399 0.91191 0.0
H552 H 0.03334 0.8037 0.36019 0.0
H553 H 0.93804 0.80932 0.38274 0.0
H554 H 0.93922 0.84166 0.48955 0.0
H555 H 0.96817 0.87595 0.54412 0.0
H556 H 0.06404 0.8749 0.49405 0.0
H557 H 0.06201 0.83366 0.43095 0.0
C558 C 0.01283 0.81096 0.39273 0.0
C559 C 0.98573 0.80448 0.36365 0.0
C560 C 0.01397 0.83149 0.44596 0.0
C561 C 0.95915 0.814 0.40485 0.0
C562 C 0.95993 0.83305 0.46391 0.0
C563 C 0.98862 0.86668 0.51964 0.0
C564 C 0.01616 0.87887 0.52322 0.0
C565 C 0.98733 0.84336 0.47926 0.0
C566 C 0.04246 0.86609 0.49321 0.0
C567 C 0.04138 0.84242 0.45658 0.0
H568 H 0.69067 0.96676 0.35473 0.0
H569 H 0.71015 0.04761 0.3737 0.0
H570 H 0.66861 0.04985 0.4891 0.0
H571 H 0.62201 0.03061 0.56629 0.0
H572 H 0.6021 0.94979 0.54437 0.0
H573 H 0.6482 0.94574 0.44776 0.0
C574 C 0.68669 0.98446 0.38753 0.0
C575 C 0.70377 0.00686 0.35707 0.0
C576 C 0.66189 0.98587 0.45058 0.0
C577 C 0.69784 0.02995 0.39777 0.0
C578 C 0.67363 0.03137 0.46226 0.0
C579 C 0.62785 0.01209 0.54061 0.0
C580 C 0.60829 0.99068 0.56089 0.0
C581 C 0.65466 0.0098 0.48594 0.0
C582 C 0.61653 0.96665 0.5289 0.0
C583 C 0.64297 0.96429 0.47392 0.0
H584 H 0.49496 0.62646 0.32232 0.0
H585 H 0.58521 0.6513 0.32977 0.0
H586 H 0.59212 0.61569 0.44472 0.0
H587 H 0.57333 0.57474 0.53261 0.0
H588 H 0.48416 0.5489 0.50779 0.0
H589 H 0.47649 0.587 0.40772 0.0
C590 C 0.51608 0.62426 0.34988 0.0
C591 C 0.53959 0.64127 0.31736 0.0
C592 C 0.52036 0.60302 0.41091 0.0
C593 C 0.5667 0.63852 0.35433 0.0
C594 C 0.57076 0.6179 0.41885 0.0
C595 C 0.55237 0.57737 0.50457 0.0
C596 C 0.52948 0.55877 0.5276 0.0
C597 C 0.54801 0.59948 0.44554 0.0
C598 C 0.50231 0.56268 0.49127 0.0
C599 C 0.49772 0.58462 0.43432 0.0
H600 H 0.85932 0.52767 0.44604 0.0
H601 H 0.84163 0.44718 0.53883 0.0
H602 H 0.88086 0.44773 0.6368 0.0
H603 H 0.92637 0.46849 0.67178 0.0
H604 H 0.9453 0.54869 0.57509 0.0
H605 H 0.8996 0.55097 0.50235 0.0
C606 C 0.86303 0.51075 0.49145 0.0
C607 C 0.84748 0.4875 0.48631 0.0
C608 C 0.88669 0.51088 0.54385 0.0
C609 C 0.85294 0.46541 0.5433 0.0
C610 C 0.87583 0.46558 0.59771 0.0
C611 C 0.92028 0.48655 0.63559 0.0
C612 C 0.9395 0.50819 0.62679 0.0
C613 C 0.89393 0.48773 0.59446 0.0
C614 C 0.93103 0.53167 0.58173 0.0
C615 C 0.90489 0.53299 0.5403 0.0
loop_
_geom_bond_atom_site_label_1
_geom_bond_atom_site_label_2
_geom_bond_distance
_geom_bond_site_symmetry_2
_ccdc_geom_bond_type
H0 C5 0.930 . S
H1 C8 0.930 . S
H2 C10 0.930 . S
H3 C4 1.016 . S
C4 H3 1.016 . S
C4 N11 1.286 . S
C5 H0 0.930 . S
C5 C6 1.397 . S
C5 C7 1.361 . S
C6 C5 1.397 . S
C6 C10 1.390 . S
C7 C5 1.361 . S
C7 C8 1.393 . S
C7 N11 1.413 . S
C8 H1 0.930 . S
C8 C7 1.393 . S
C8 C9 1.399 . S
C9 C8 1.399 . S
C9 C10 1.381 . S
C10 H2 0.930 . S
C10 C6 1.390 . S
C10 C9 1.381 . S
N11 C4 1.286 . S
N11 C7 1.413 . S
H12 C17 0.930 . S
H13 C20 0.930 . S
H14 C22 0.930 . S
H15 C16 1.016 . S
C16 H15 1.016 . S
C16 N23 1.286 1_556 S
C17 H12 0.930 . S
C17 C18 1.397 . S
C17 C19 1.361 . S
C18 C17 1.397 . S
C18 C22 1.390 . S
C19 C17 1.361 . S
C19 C20 1.393 1_554 S
C19 N23 1.413 . S
C20 H13 0.930 . S
C20 C19 1.393 1_556 S
C20 C21 1.399 . S
C21 C20 1.399 . S
C21 C22 1.381 1_556 S
C22 H14 0.930 . S
C22 C18 1.390 . S
C22 C21 1.381 1_554 S
N23 C16 1.286 1_554 S
N23 C19 1.413 . S
H24 C29 0.930 . S
H25 C32 0.930 1_556 S
H26 C34 0.930 . S
H27 C28 1.033 1_556 S
C28 H27 1.033 1_554 S
C28 N35 1.265 1_565 S
C29 H24 0.930 . S
C29 C30 1.397 . S
C29 C31 1.361 . S
C30 C29 1.397 . S
C30 C34 1.390 1_545 S
C31 C29 1.361 . S
C31 C32 1.393 . S
C31 N35 1.413 . S
C32 H25 0.930 1_554 S
C32 C31 1.393 . S
C32 C33 1.402 . S
C33 C32 1.402 . S
C33 C34 1.381 1_545 S
C34 H26 0.930 . S
C34 C30 1.390 1_565 S
C34 C33 1.381 1_565 S
N35 C28 1.265 1_545 S
N35 C31 1.413 . S
H36 C41 0.930 . S
H37 C44 0.930 1_556 S
H38 C46 0.930 . S
H39 C40 1.016 1_556 S
C40 H39 1.016 1_554 S
C40 N47 1.286 . S
C41 H36 0.930 . S
C41 C42 1.397 . S
C41 C43 1.361 . S
C42 C41 1.397 . S
C42 C46 1.390 . S
C43 C41 1.361 . S
C43 C44 1.393 . S
C43 N47 1.413 . S
C44 H37 0.930 1_554 S
C44 C43 1.393 . S
C44 C45 1.399 . S
C45 C44 1.399 . S
C45 C46 1.381 . S
C46 H38 0.930 . S
C46 C42 1.390 . S
C46 C45 1.381 . S
N47 C40 1.286 . S
N47 C43 1.413 . S
H48 C53 0.930 . S
H49 C56 0.930 . S
H50 C58 0.930 . S
H51 C52 1.016 . S
C52 H51 1.016 . S
C52 N59 1.286 . S
C53 H48 0.930 . S
C53 C54 1.397 . S
C53 C55 1.361 . S
C54 C53 1.397 . S
C54 C58 1.390 . S
C55 C53 1.361 . S
C55 C56 1.393 . S
C55 N59 1.413 . S
C56 H49 0.930 . S
C56 C55 1.393 . S
C56 C57 1.399 . S
C57 C56 1.399 . S
C57 C58 1.381 . S
C58 H50 0.930 . S
C58 C54 1.390 . S
C58 C57 1.381 . S
N59 C52 1.286 . S
N59 C55 1.413 . S
H60 C65 0.930 . S
H61 C68 0.930 . S
H62 C70 0.930 . S
H63 C64 1.016 . S
C64 H63 1.016 . S
C64 N71 1.286 . S
C65 H60 0.930 . S
C65 C66 1.397 . S
C65 C67 1.361 . S
C66 C65 1.397 . S
C66 C70 1.390 . S
C67 C65 1.361 . S
C67 C68 1.393 . S
C67 N71 1.413 . S
C68 H61 0.930 . S
C68 C67 1.393 . S
C68 C69 1.399 . S
C69 C68 1.399 . S
C69 C70 1.381 . S
C70 H62 0.930 . S
C70 C66 1.390 . S
C70 C69 1.381 . S
N71 C64 1.286 . S
N71 C67 1.413 . S
H72 C77 0.930 . S
H73 C80 0.930 . S
H74 C82 0.930 . S
H75 C76 1.023 . S
C76 H75 1.023 . S
C76 N83 1.275 1_565 S
C77 H72 0.930 . S
C77 C78 1.397 . S
C77 C79 1.361 . S
C78 C77 1.397 . S
C78 C82 1.390 1_545 S
C79 C77 1.361 . S
C79 C80 1.393 . S
C79 N83 1.413 . S
C80 H73 0.930 . S
C80 C79 1.393 . S
C80 C81 1.405 . S
C81 C80 1.405 . S
C81 C82 1.375 1_545 S
C82 H74 0.930 . S
C82 C78 1.390 1_565 S
C82 C81 1.375 1_565 S
N83 C76 1.275 1_545 S
N83 C79 1.413 . S
H84 C89 0.930 . S
H85 C92 0.930 . S
H86 C94 0.930 . S
H87 C88 1.016 . S
C88 H87 1.016 . S
C88 N95 1.286 . S
C89 H84 0.930 . S
C89 C90 1.397 . S
C89 C91 1.361 . S
C90 C89 1.397 . S
C90 C94 1.390 . S
C91 C89 1.361 . S
C91 C92 1.393 . S
C91 N95 1.413 . S
C92 H85 0.930 . S
C92 C91 1.393 . S
C92 C93 1.399 . S
C93 C92 1.399 . S
C93 C94 1.381 . S
C94 H86 0.930 . S
C94 C90 1.390 . S
C94 C93 1.381 . S
N95 C88 1.286 . S
N95 C91 1.413 . S
C96 O112 1.251 . S
C96 O114 1.254 . S
N97 C98 1.333 . S
N97 C102 1.307 1_455 S
N97 Zn103 2.020 . S
C98 N97 1.333 . S
C98 C99 1.379 . S
C98 H116 0.952 . S
C99 C98 1.379 . S
C99 C100 1.390 1_455 S
C99 H126 0.949 . S
C100 C99 1.390 1_655 S
C100 C101 1.357 . S
C101 C100 1.357 . S
C101 C102 1.370 . S
C101 H127 0.950 . S
C102 N97 1.307 1_655 S
C102 C101 1.370 . S
C102 H120 0.986 . S
Zn103 N97 2.020 . S
Zn103 O112 2.039 . S
Zn103 O118 2.034 . S
Zn103 O122 2.025 1_565 S
Zn103 O124 2.024 1_455 S
C104 O123 1.246 . S
C104 O124 1.249 1_545 S
N105 C106 1.307 . S
N105 C107 1.333 . S
N105 Zn111 2.020 . S
C106 N105 1.307 . S
C106 C110 1.370 1_556 S
C106 H117 0.948 . S
C107 N105 1.333 . S
C107 C108 1.379 1_556 S
C107 H115 0.952 . S
C108 C107 1.379 1_554 S
C108 C109 1.390 . S
C108 H128 0.949 . S
C109 C108 1.390 . S
C109 C110 1.357 . S
C110 C106 1.370 1_554 S
C110 C109 1.357 . S
C110 H129 0.950 . S
Zn111 N105 2.020 . S
Zn111 O114 2.025 1_545 S
Zn111 O119 2.024 . S
Zn111 O121 2.039 . S
Zn111 O123 2.034 1_455 S
O112 C96 1.251 . S
O112 Zn103 2.039 . S
C113 O118 1.246 . S
C113 O119 1.249 1_565 S
O114 C96 1.254 . S
O114 Zn111 2.025 1_565 S
H115 C107 0.952 . S
H116 C98 0.952 . S
H117 C106 0.948 . S
O118 Zn103 2.034 . S
O118 C113 1.246 . S
O119 Zn111 2.024 . S
O119 C113 1.249 1_545 S
H120 C102 0.986 . S
O121 Zn111 2.039 . S
O121 C125 1.251 . S
O122 Zn103 2.025 1_545 S
O122 C125 1.254 . S
O123 C104 1.246 . S
O123 Zn111 2.034 1_655 S
O124 Zn103 2.024 1_655 S
O124 C104 1.249 1_565 S
C125 O121 1.251 . S
C125 O122 1.254 . S
H126 C99 0.949 . S
H127 C101 0.950 . S
H128 C108 0.949 . S
H129 C110 0.950 . S
C130 O146 1.251 1_565 S
C130 O148 1.254 . S
N131 C132 1.333 . S
N131 C136 1.307 . S
N131 Zn137 2.020 . S
C132 N131 1.333 . S
C132 C133 1.379 . S
C132 H150 0.952 . S
C133 C132 1.379 . S
C133 C134 1.390 . S
C133 H160 0.949 . S
C134 C133 1.390 . S
C134 C135 1.357 . S
C135 C134 1.357 . S
C135 C136 1.370 . S
C135 H161 0.950 . S
C136 N131 1.307 . S
C136 C135 1.370 . S
C136 H154 0.948 . S
Zn137 N131 2.020 . S
Zn137 O146 2.039 . S
Zn137 O152 2.034 . S
Zn137 O156 2.025 . S
Zn137 O158 2.024 . S
C138 O157 1.246 1_545 S
C138 O158 1.249 . S
N139 C140 1.307 . S
N139 C141 1.333 . S
N139 Zn145 2.020 . S
C140 N139 1.307 . S
C140 C144 1.370 . S
C140 H151 0.948 . S
C141 N139 1.333 . S
C141 C142 1.379 . S
C141 H149 0.952 . S
C142 C141 1.379 . S
C142 C143 1.390 . S
C142 H162 0.949 . S
C143 C142 1.390 . S
C143 C144 1.357 . S
C144 C140 1.370 . S
C144 C143 1.357 . S
C144 H163 0.950 . S
Zn145 N139 2.020 . S
Zn145 O148 2.025 . S
Zn145 O153 2.024 . S
Zn145 O155 2.039 . S
Zn145 O157 2.034 . S
O146 C130 1.251 1_545 S
O146 Zn137 2.039 . S
C147 O152 1.246 1_565 S
C147 O153 1.249 . S
O148 C130 1.254 . S
O148 Zn145 2.025 . S
H149 C141 0.952 . S
H150 C132 0.952 . S
H151 C140 0.948 . S
O152 Zn137 2.034 . S
O152 C147 1.246 1_545 S
O153 Zn145 2.024 . S
O153 C147 1.249 . S
H154 C136 0.948 . S
O155 Zn145 2.039 . S
O155 C159 1.251 1_565 S
O156 Zn137 2.025 . S
O156 C159 1.254 . S
O157 C138 1.246 1_565 S
O157 Zn145 2.034 . S
O158 Zn137 2.024 . S
O158 C138 1.249 . S
C159 O155 1.251 1_545 S
C159 O156 1.254 . S
H160 C133 0.949 . S
H161 C135 0.950 . S
H162 C142 0.949 . S
H163 C144 0.950 . S
C164 O180 1.251 . S
C164 O182 1.254 . S
N165 C166 1.333 . S
N165 C170 1.307 . S
N165 Zn171 2.020 . S
C166 N165 1.333 . S
C166 C167 1.379 . S
C166 H184 0.952 . S
C167 C166 1.379 . S
C167 C168 1.390 . S
C167 H194 0.949 . S
C168 C167 1.390 . S
C168 C169 1.357 . S
C169 C168 1.357 . S
C169 C170 1.370 . S
C169 H195 0.950 . S
C170 N165 1.307 . S
C170 C169 1.370 . S
C170 H188 0.948 . S
Zn171 N165 2.020 . S
Zn171 O180 2.039 . S
Zn171 O186 2.034 . S
Zn171 O190 2.025 . S
Zn171 O192 2.024 . S
C172 O191 1.246 . S
C172 O192 1.249 . S
N173 C174 1.307 . S
N173 C175 1.333 . S
N173 Zn179 2.020 . S
C174 N173 1.307 . S
C174 C178 1.370 . S
C174 H185 0.948 . S
C175 N173 1.333 . S
C175 C176 1.379 . S
C175 H183 0.952 . S
C176 C175 1.379 . S
C176 C177 1.390 . S
C176 H196 0.949 . S
C177 C176 1.390 . S
C177 C178 1.357 . S
C178 C174 1.370 . S
C178 C177 1.357 . S
C178 H197 0.950 . S
Zn179 N173 2.020 . S
Zn179 O182 2.025 . S
Zn179 O187 2.024 . S
Zn179 O189 2.039 . S
Zn179 O191 2.034 . S
O180 C164 1.251 . S
O180 Zn171 2.039 . S
C181 O186 1.246 . S
C181 O187 1.249 . S
O182 C164 1.254 . S
O182 Zn179 2.025 . S
H183 C175 0.952 . S
H184 C166 0.952 . S
H185 C174 0.948 . S
O186 Zn171 2.034 . S
O186 C181 1.246 . S
O187 Zn179 2.024 . S
O187 C181 1.249 . S
H188 C170 0.948 . S
O189 Zn179 2.039 . S
O189 C193 1.251 . S
O190 Zn171 2.025 . S
O190 C193 1.254 . S
O191 C172 1.246 . S
O191 Zn179 2.034 . S
O192 Zn171 2.024 . S
O192 C172 1.249 . S
C193 O189 1.251 . S
C193 O190 1.254 . S
H194 C167 0.949 . S
H195 C169 0.950 . S
H196 C176 0.949 . S
H197 C178 0.950 . S
C198 O214 1.251 . S
C198 O216 1.254 . S
N199 C200 1.333 . S
N199 C204 1.307 . S
N199 Zn205 2.020 . S
C200 N199 1.333 . S
C200 C201 1.379 . S
C200 H218 0.952 . S
C201 C200 1.379 . S
C201 C202 1.390 . S
C201 H228 0.949 . S
C202 C201 1.390 . S
C202 C203 1.357 . S
C203 C202 1.357 . S
C203 C204 1.370 . S
C203 H229 0.950 . S
C204 N199 1.307 . S
C204 C203 1.370 . S
C204 H222 0.948 . S
Zn205 N199 2.020 . S
Zn205 O214 2.039 . S
Zn205 O220 2.034 1_455 S
Zn205 O224 2.025 1_455 S
Zn205 O226 2.024 . S
C206 O225 1.246 . S
C206 O226 1.249 . S
N207 C208 1.307 . S
N207 C209 1.333 1_455 S
N207 Zn213 2.020 . S
C208 N207 1.307 . S
C208 C212 1.370 . S
C208 H219 0.948 . S
C209 N207 1.333 1_655 S
C209 C210 1.379 . S
C209 H217 0.952 . S
C210 C209 1.379 . S
C210 C211 1.390 1_655 S
C210 H230 0.949 . S
C211 C210 1.390 1_455 S
C211 C212 1.357 . S
C212 C208 1.370 . S
C212 C211 1.357 . S
C212 H231 0.950 . S
Zn213 N207 2.020 . S
Zn213 O216 2.025 . S
Zn213 O221 2.024 1_455 S
Zn213 O223 2.039 1_455 S
Zn213 O225 2.034 . S
O214 C198 1.251 . S
O214 Zn205 2.039 . S
C215 O220 1.246 . S
C215 O221 1.249 . S
O216 C198 1.254 . S
O216 Zn213 2.025 . S
H217 C209 0.952 . S
H218 C200 0.952 . S
H219 C208 0.948 . S
O220 Zn205 2.034 1_655 S
O220 C215 1.246 . S
O221 Zn213 2.024 1_655 S
O221 C215 1.249 . S
H222 C204 0.948 . S
O223 Zn213 2.039 1_655 S
O223 C227 1.251 . S
O224 Zn205 2.025 1_655 S
O224 C227 1.254 . S
O225 C206 1.246 . S
O225 Zn213 2.034 . S
O226 Zn205 2.024 . S
O226 C206 1.249 . S
C227 O223 1.251 . S
C227 O224 1.254 . S
H228 C201 0.949 . S
H229 C203 0.950 . S
H230 C210 0.949 . S
H231 C212 0.950 . S
H232 C238 0.930 . S
H233 C241 0.930 . S
H234 C242 0.930 . S
H235 C243 0.930 . S
H236 C246 0.930 . S
H237 C247 0.931 . S
C238 H232 0.930 . S
C238 C239 1.355 . S
C238 C240 1.415 . S
C239 C238 1.355 . S
C239 C241 1.419 . S
C240 C238 1.415 . S
C240 C245 1.425 . S
C240 C247 1.409 . S
C241 H233 0.930 . S
C241 C239 1.419 . S
C241 C242 1.362 . S
C242 H234 0.930 . S
C242 C241 1.362 . S
C242 C245 1.409 . S
C243 H235 0.930 . S
C243 C244 1.355 . S
C243 C245 1.415 . S
C244 C243 1.355 . S
C244 C246 1.419 . S
C245 C240 1.425 . S
C245 C242 1.409 . S
C245 C243 1.415 . S
C246 H236 0.930 . S
C246 C244 1.419 . S
C246 C247 1.362 . S
C247 H237 0.931 . S
C247 C240 1.409 . S
C247 C246 1.362 . S
H248 C254 0.930 . S
H249 C257 0.930 . S
H250 C258 0.930 . S
H251 C259 0.930 . S
H252 C262 0.930 . S
H253 C263 0.930 . S
C254 H248 0.930 . S
C254 C255 1.355 . S
C254 C256 1.415 . S
C255 C254 1.355 . S
C255 C257 1.419 . S
C256 C254 1.415 . S
C256 C261 1.425 . S
C256 C263 1.409 . S
C257 H249 0.930 . S
C257 C255 1.419 . S
C257 C258 1.362 . S
C258 H250 0.930 . S
C258 C257 1.362 . S
C258 C261 1.409 . S
C259 H251 0.930 . S
C259 C260 1.355 . S
C259 C261 1.415 . S
C260 C259 1.355 . S
C260 C262 1.419 . S
C261 C256 1.425 . S
C261 C258 1.409 . S
C261 C259 1.415 . S
C262 H252 0.930 . S
C262 C260 1.419 . S
C262 C263 1.362 . S
C263 H253 0.930 . S
C263 C256 1.409 . S
C263 C262 1.362 . S
H264 C270 0.930 . S
H265 C273 0.930 . S
H266 C274 0.930 . S
H267 C275 0.930 . S
H268 C278 0.930 . S
H269 C279 0.930 . S
C270 H264 0.930 . S
C270 C271 1.355 . S
C270 C272 1.415 . S
C271 C270 1.355 . S
C271 C273 1.419 . S
C272 C270 1.415 . S
C272 C277 1.425 . S
C272 C279 1.409 . S
C273 H265 0.930 . S
C273 C271 1.419 . S
C273 C274 1.362 . S
C274 H266 0.930 . S
C274 C273 1.362 . S
C274 C277 1.409 . S
C275 H267 0.930 . S
C275 C276 1.355 . S
C275 C277 1.415 . S
C276 C275 1.355 . S
C276 C278 1.419 . S
C277 C272 1.425 . S
C277 C274 1.409 . S
C277 C275 1.415 . S
C278 H268 0.930 . S
C278 C276 1.419 . S
C278 C279 1.362 . S
C279 H269 0.930 . S
C279 C272 1.409 . S
C279 C278 1.362 . S
H280 C286 0.930 . S
H281 C289 0.930 . S
H282 C290 0.930 . S
H283 C291 0.930 . S
H284 C294 0.930 1_655 S
H285 C295 0.930 1_655 S
C286 H280 0.930 . S
C286 C287 1.355 . S
C286 C288 1.415 . S
C287 C286 1.355 . S
C287 C289 1.419 . S
C288 C286 1.415 . S
C288 C293 1.425 . S
C288 C295 1.409 . S
C289 H281 0.930 . S
C289 C287 1.419 . S
C289 C290 1.362 . S
C290 H282 0.930 . S
C290 C289 1.362 . S
C290 C293 1.409 . S
C291 H283 0.930 . S
C291 C292 1.355 . S
C291 C293 1.415 . S
C292 C291 1.355 . S
C292 C294 1.419 . S
C293 C288 1.425 . S
C293 C290 1.409 . S
C293 C291 1.415 . S
C294 H284 0.930 1_455 S
C294 C292 1.419 . S
C294 C295 1.362 . S
C295 H285 0.930 1_455 S
C295 C288 1.409 . S
C295 C294 1.362 . S
H296 C302 0.930 . S
H297 C305 0.930 . S
H298 C306 0.930 . S
H299 C307 0.929 1_565 S
H300 C310 0.930 . S
H301 C311 0.930 . S
C302 H296 0.930 . S
C302 C303 1.354 1_546 S
C302 C304 1.415 . S
C303 C302 1.354 1_564 S
C303 C305 1.421 . S
C304 C302 1.415 . S
C304 C309 1.426 . S
C304 C311 1.409 . S
C305 H297 0.930 . S
C305 C303 1.421 . S
C305 C306 1.362 . S
C306 H298 0.930 . S
C306 C305 1.362 . S
C306 C309 1.408 1_564 S
C307 H299 0.929 1_545 S
C307 C308 1.355 . S
C307 C309 1.415 . S
C308 C307 1.355 . S
C308 C310 1.419 . S
C309 C304 1.426 . S
C309 C306 1.408 1_546 S
C309 C307 1.415 . S
C310 H300 0.930 . S
C310 C308 1.419 . S
C310 C311 1.362 . S
C311 H301 0.930 . S
C311 C304 1.409 . S
C311 C310 1.362 . S
H312 C318 0.930 . S
H313 C321 0.930 . S
H314 C322 0.930 . S
H315 C323 0.930 . S
H316 C326 0.930 . S
H317 C327 0.930 . S
C318 H312 0.930 . S
C318 C319 1.355 1_556 S
C318 C320 1.415 . S
C319 C318 1.355 1_554 S
C319 C321 1.419 . S
C320 C318 1.415 . S
C320 C325 1.425 . S
C320 C327 1.409 . S
C321 H313 0.930 . S
C321 C319 1.419 . S
C321 C322 1.362 . S
C322 H314 0.930 . S
C322 C321 1.362 . S
C322 C325 1.409 1_554 S
C323 H315 0.930 . S
C323 C324 1.355 . S
C323 C325 1.415 . S
C324 C323 1.355 . S
C324 C326 1.419 . S
C325 C320 1.425 . S
C325 C322 1.409 1_556 S
C325 C323 1.415 . S
C326 H316 0.930 . S
C326 C324 1.419 . S
C326 C327 1.362 . S
C327 H317 0.930 . S
C327 C320 1.409 . S
C327 C326 1.362 . S
H328 C334 0.930 1_556 S
H329 C337 0.930 . S
H330 C338 0.930 . S
H331 C339 0.930 . S
H332 C342 0.930 . S
H333 C343 0.930 . S
C334 H328 0.930 1_554 S
C334 C335 1.355 . S
C334 C336 1.415 1_554 S
C335 C334 1.355 . S
C335 C337 1.419 . S
C336 C334 1.415 1_556 S
C336 C341 1.425 . S
C336 C343 1.409 . S
C337 H329 0.930 . S
C337 C335 1.419 . S
C337 C338 1.362 . S
C338 H330 0.930 . S
C338 C337 1.362 . S
C338 C341 1.409 1_554 S
C339 H331 0.930 . S
C339 C340 1.355 . S
C339 C341 1.415 . S
C340 C339 1.355 . S
C340 C342 1.419 . S
C341 C336 1.425 . S
C341 C338 1.409 1_556 S
C341 C339 1.415 . S
C342 H332 0.930 . S
C342 C340 1.419 . S
C342 C343 1.362 . S
C343 H333 0.930 . S
C343 C336 1.409 . S
C343 C342 1.362 . S
H344 C350 0.930 . S
H345 C353 0.930 . S
H346 C354 0.930 . S
H347 C355 0.930 . S
H348 C358 0.930 . S
H349 C359 0.930 . S
C350 H344 0.930 . S
C350 C351 1.355 . S
C350 C352 1.415 . S
C351 C350 1.355 . S
C351 C353 1.419 1_655 S
C352 C350 1.415 . S
C352 C357 1.430 . S
C352 C359 1.409 . S
C353 H345 0.930 . S
C353 C351 1.419 1_455 S
C353 C354 1.362 . S
C354 H346 0.930 . S
C354 C353 1.362 . S
C354 C357 1.406 1_455 S
C355 H347 0.930 . S
C355 C356 1.355 1_455 S
C355 C357 1.413 1_455 S
C356 C355 1.355 1_655 S
C356 C358 1.419 . S
C357 C352 1.430 . S
C357 C354 1.406 1_655 S
C357 C355 1.413 1_655 S
C358 H348 0.930 . S
C358 C356 1.419 . S
C358 C359 1.362 . S
C359 H349 0.930 . S
C359 C352 1.409 . S
C359 C358 1.362 . S
H360 C366 0.930 . S
H361 C369 0.930 . S
H362 C370 0.930 . S
H363 C371 0.930 . S
H364 C374 0.930 . S
H365 C375 0.930 . S
C366 H360 0.930 . S
C366 C367 1.355 . S
C366 C368 1.415 . S
C367 C366 1.355 . S
C367 C369 1.419 . S
C368 C366 1.415 . S
C368 C373 1.425 . S
C368 C375 1.409 . S
C369 H361 0.930 . S
C369 C367 1.419 . S
C369 C370 1.362 . S
C370 H362 0.930 . S
C370 C369 1.362 . S
C370 C373 1.409 . S
C371 H363 0.930 . S
C371 C372 1.355 . S
C371 C373 1.415 . S
C372 C371 1.355 . S
C372 C374 1.419 . S
C373 C368 1.425 . S
C373 C370 1.409 . S
C373 C371 1.415 . S
C374 H364 0.930 . S
C374 C372 1.419 . S
C374 C375 1.362 . S
C375 H365 0.930 . S
C375 C368 1.409 . S
C375 C374 1.362 . S
H376 C382 0.930 . S
H377 C385 0.930 . S
H378 C386 0.930 . S
H379 C387 0.930 . S
H380 C390 0.930 . S
H381 C391 0.930 . S
C382 H376 0.930 . S
C382 C383 1.355 1_565 S
C382 C384 1.415 . S
C383 C382 1.355 1_545 S
C383 C385 1.419 . S
C384 C382 1.415 . S
C384 C389 1.425 1_565 S
C384 C391 1.409 . S
C385 H377 0.930 . S
C385 C383 1.419 . S
C385 C386 1.362 . S
C386 H378 0.930 . S
C386 C385 1.362 . S
C386 C389 1.409 . S
C387 H379 0.930 . S
C387 C388 1.355 1_545 S
C387 C389 1.415 . S
C388 C387 1.355 1_565 S
C388 C390 1.419 . S
C389 C384 1.425 1_545 S
C389 C386 1.409 . S
C389 C387 1.415 . S
C390 H380 0.930 . S
C390 C388 1.419 . S
C390 C391 1.362 . S
C391 H381 0.930 . S
C391 C384 1.409 . S
C391 C390 1.362 . S
H392 C398 0.930 . S
H393 C401 0.930 . S
H394 C402 0.930 . S
H395 C403 0.930 . S
H396 C406 0.930 . S
H397 C407 0.930 . S
C398 H392 0.930 . S
C398 C399 1.355 . S
C398 C400 1.415 . S
C399 C398 1.355 . S
C399 C401 1.419 . S
C400 C398 1.415 . S
C400 C405 1.425 . S
C400 C407 1.409 . S
C401 H393 0.930 . S
C401 C399 1.419 . S
C401 C402 1.362 . S
C402 H394 0.930 . S
C402 C401 1.362 . S
C402 C405 1.409 . S
C403 H395 0.930 . S
C403 C404 1.355 . S
C403 C405 1.415 . S
C404 C403 1.355 . S
C404 C406 1.419 . S
C405 C400 1.425 . S
C405 C402 1.409 . S
C405 C403 1.415 . S
C406 H396 0.930 . S
C406 C404 1.419 . S
C406 C407 1.362 . S
C407 H397 0.930 . S
C407 C400 1.409 . S
C407 C406 1.362 . S
H408 C414 0.930 . S
H409 C417 0.930 . S
H410 C418 0.930 . S
H411 C419 0.930 . S
H412 C422 0.930 . S
H413 C423 0.930 . S
C414 H408 0.930 . S
C414 C415 1.355 . S
C414 C416 1.415 . S
C415 C414 1.355 . S
C415 C417 1.419 . S
C416 C414 1.415 . S
C416 C421 1.425 . S
C416 C423 1.409 . S
C417 H409 0.930 . S
C417 C415 1.419 . S
C417 C418 1.362 . S
C418 H410 0.930 . S
C418 C417 1.362 . S
C418 C421 1.409 . S
C419 H411 0.930 . S
C419 C420 1.355 . S
C419 C421 1.415 . S
C420 C419 1.355 . S
C420 C422 1.419 . S
C421 C416 1.425 . S
C421 C418 1.409 . S
C421 C419 1.415 . S
C422 H412 0.930 . S
C422 C420 1.419 . S
C422 C423 1.362 . S
C423 H413 0.930 . S
C423 C416 1.409 . S
C423 C422 1.362 . S
H424 C430 0.930 . S
H425 C433 0.930 1_455 S
H426 C434 0.930 . S
H427 C435 0.930 . S
H428 C438 0.930 . S
H429 C439 0.930 . S
C430 H424 0.930 . S
C430 C431 1.355 . S
C430 C432 1.415 . S
C431 C430 1.355 . S
C431 C433 1.419 . S
C432 C430 1.415 . S
C432 C437 1.425 1_655 S
C432 C439 1.409 . S
C433 H425 0.930 1_655 S
C433 C431 1.419 . S
C433 C434 1.362 1_655 S
C434 H426 0.930 . S
C434 C433 1.362 1_455 S
C434 C437 1.409 . S
C435 H427 0.930 . S
C435 C436 1.355 . S
C435 C437 1.415 . S
C436 C435 1.355 . S
C436 C438 1.419 1_455 S
C437 C432 1.425 1_455 S
C437 C434 1.409 . S
C437 C435 1.415 . S
C438 H428 0.930 . S
C438 C436 1.419 1_655 S
C438 C439 1.362 . S
C439 H429 0.930 . S
C439 C432 1.409 . S
C439 C438 1.362 . S
H440 C446 0.930 . S
H441 C449 0.930 . S
H442 C450 0.930 . S
H443 C451 0.930 . S
H444 C454 0.930 . S
H445 C455 0.930 . S
C446 H440 0.930 . S
C446 C447 1.355 1_566 S
C446 C448 1.415 . S
C447 C446 1.355 1_544 S
C447 C449 1.419 . S
C448 C446 1.415 . S
C448 C453 1.425 1_565 S
C448 C455 1.409 . S
C449 H441 0.930 . S
C449 C447 1.419 . S
C449 C450 1.362 . S
C450 H442 0.930 . S
C450 C449 1.362 . S
C450 C453 1.409 1_554 S
C451 H443 0.930 . S
C451 C452 1.355 . S
C451 C453 1.415 . S
C452 C451 1.355 . S
C452 C454 1.419 1_545 S
C453 C448 1.425 1_545 S
C453 C450 1.409 1_556 S
C453 C451 1.415 . S
C454 H444 0.930 . S
C454 C452 1.419 1_565 S
C454 C455 1.362 . S
C455 H445 0.930 . S
C455 C448 1.409 . S
C455 C454 1.362 . S
H456 C462 0.930 . S
H457 C465 0.930 . S
H458 C466 0.930 . S
H459 C467 0.930 . S
H460 C470 0.930 . S
H461 C471 0.930 . S
C462 H456 0.930 . S
C462 C463 1.355 . S
C462 C464 1.415 1_554 S
C463 C462 1.355 . S
C463 C465 1.419 1_554 S
C464 C462 1.415 1_556 S
C464 C469 1.425 . S
C464 C471 1.409 1_556 S
C465 H457 0.930 . S
C465 C463 1.419 1_556 S
C465 C466 1.362 . S
C466 H458 0.930 . S
C466 C465 1.362 . S
C466 C469 1.409 . S
C467 H459 0.930 . S
C467 C468 1.355 . S
C467 C469 1.415 . S
C468 C467 1.355 . S
C468 C470 1.419 . S
C469 C464 1.425 . S
C469 C466 1.409 . S
C469 C467 1.415 . S
C470 H460 0.930 . S
C470 C468 1.419 . S
C470 C471 1.362 1_556 S
C471 H461 0.930 . S
C471 C464 1.409 1_554 S
C471 C470 1.362 1_554 S
H472 C478 0.930 1_556 S
H473 C481 0.930 . S
H474 C482 0.930 . S
H475 C483 0.930 . S
H476 C486 0.930 . S
H477 C487 0.930 . S
C478 H472 0.930 1_554 S
C478 C479 1.355 . S
C478 C480 1.415 1_554 S
C479 C478 1.355 . S
C479 C481 1.419 . S
C480 C478 1.415 1_556 S
C480 C485 1.425 1_556 S
C480 C487 1.409 . S
C481 H473 0.930 . S
C481 C479 1.419 . S
C481 C482 1.362 . S
C482 H474 0.930 . S
C482 C481 1.362 . S
C482 C485 1.409 . S
C483 H475 0.930 . S
C483 C484 1.355 . S
C483 C485 1.415 1_556 S
C484 C483 1.355 . S
C484 C486 1.419 . S
C485 C480 1.425 1_554 S
C485 C482 1.409 . S
C485 C483 1.415 1_554 S
C486 H476 0.930 . S
C486 C484 1.419 . S
C486 C487 1.362 . S
C487 H477 0.930 . S
C487 C480 1.409 . S
C487 C486 1.362 . S
H488 C494 0.930 . S
H489 C497 0.930 . S
H490 C498 0.930 . S
H491 C499 0.930 . S
H492 C502 0.930 . S
H493 C503 0.930 . S
C494 H488 0.930 . S
C494 C495 1.355 . S
C494 C496 1.415 . S
C495 C494 1.355 . S
C495 C497 1.419 . S
C496 C494 1.415 . S
C496 C501 1.425 . S
C496 C503 1.409 . S
C497 H489 0.930 . S
C497 C495 1.419 . S
C497 C498 1.362 . S
C498 H490 0.930 . S
C498 C497 1.362 . S
C498 C501 1.409 . S
C499 H491 0.930 . S
C499 C500 1.355 . S
C499 C501 1.415 . S
C500 C499 1.355 . S
C500 C502 1.419 . S
C501 C496 1.425 . S
C501 C498 1.409 . S
C501 C499 1.415 . S
C502 H492 0.930 . S
C502 C500 1.419 . S
C502 C503 1.362 . S
C503 H493 0.930 . S
C503 C496 1.409 . S
C503 C502 1.362 . S
H504 C510 0.930 . S
H505 C513 0.930 . S
H506 C514 0.930 1_556 S
H507 C515 0.930 . S
H508 C518 0.930 . S
H509 C519 0.930 . S
C510 H504 0.930 . S
C510 C511 1.364 . S
C510 C512 1.415 . S
C511 C510 1.364 . S
C511 C513 1.407 1_545 S
C512 C510 1.415 . S
C512 C517 1.425 1_545 S
C512 C519 1.409 . S
C513 H505 0.930 . S
C513 C511 1.407 1_565 S
C513 C514 1.362 . S
C514 H506 0.930 1_554 S
C514 C513 1.362 . S
C514 C517 1.409 . S
C515 H507 0.930 . S
C515 C516 1.355 1_565 S
C515 C517 1.415 1_556 S
C516 C515 1.355 1_545 S
C516 C518 1.419 1_556 S
C517 C512 1.425 1_565 S
C517 C514 1.409 . S
C517 C515 1.415 1_554 S
C518 H508 0.930 . S
C518 C516 1.419 1_554 S
C518 C519 1.362 . S
C519 H509 0.930 . S
C519 C512 1.409 . S
C519 C518 1.362 . S
H520 C526 0.930 . S
H521 C529 0.930 . S
H522 C530 0.930 . S
H523 C531 0.930 . S
H524 C534 0.930 . S
H525 C535 0.930 . S
C526 H520 0.930 . S
C526 C527 1.355 . S
C526 C528 1.415 . S
C527 C526 1.355 . S
C527 C529 1.419 . S
C528 C526 1.415 . S
C528 C533 1.425 . S
C528 C535 1.409 1_554 S
C529 H521 0.930 . S
C529 C527 1.419 . S
C529 C530 1.362 . S
C530 H522 0.930 . S
C530 C529 1.362 . S
C530 C533 1.409 . S
C531 H523 0.930 . S
C531 C532 1.355 1_554 S
C531 C533 1.415 . S
C532 C531 1.355 1_556 S
C532 C534 1.419 . S
C533 C528 1.425 . S
C533 C530 1.409 . S
C533 C531 1.415 . S
C534 H524 0.930 . S
C534 C532 1.419 . S
C534 C535 1.362 . S
C535 H525 0.930 . S
C535 C528 1.409 1_556 S
C535 C534 1.362 . S
H536 C542 0.930 . S
H537 C545 0.930 . S
H538 C546 0.930 . S
H539 C547 0.930 . S
H540 C550 0.930 . S
H541 C551 0.930 . S
C542 H536 0.930 . S
C542 C543 1.355 . S
C542 C544 1.415 . S
C543 C542 1.355 . S
C543 C545 1.419 . S
C544 C542 1.415 . S
C544 C549 1.425 . S
C544 C551 1.409 1_554 S
C545 H537 0.930 . S
C545 C543 1.419 . S
C545 C546 1.362 . S
C546 H538 0.930 . S
C546 C545 1.362 . S
C546 C549 1.409 . S
C547 H539 0.930 . S
C547 C548 1.355 . S
C547 C549 1.415 1_556 S
C548 C547 1.355 . S
C548 C550 1.419 . S
C549 C544 1.425 . S
C549 C546 1.409 . S
C549 C547 1.415 1_554 S
C550 H540 0.930 . S
C550 C548 1.419 . S
C550 C551 1.362 . S
C551 H541 0.930 . S
C551 C544 1.409 1_556 S
C551 C550 1.362 . S
H552 C558 0.930 1_455 S
H553 C561 0.930 . S
H554 C562 0.930 . S
H555 C563 0.930 . S
H556 C566 0.930 . S
H557 C567 0.930 . S
C558 H552 0.930 1_655 S
C558 C559 1.355 . S
C558 C560 1.415 . S
C559 C558 1.355 . S
C559 C561 1.419 . S
C560 C558 1.415 . S
C560 C565 1.425 . S
C560 C567 1.409 1_655 S
C561 H553 0.930 . S
C561 C559 1.419 . S
C561 C562 1.362 . S
C562 H554 0.930 . S
C562 C561 1.362 . S
C562 C565 1.409 . S
C563 H555 0.930 . S
C563 C564 1.355 . S
C563 C565 1.415 . S
C564 C563 1.355 . S
C564 C566 1.419 1_655 S
C565 C560 1.425 . S
C565 C562 1.409 . S
C565 C563 1.415 . S
C566 H556 0.930 . S
C566 C564 1.419 1_455 S
C566 C567 1.362 . S
C567 H557 0.930 . S
C567 C560 1.409 1_455 S
C567 C566 1.362 . S
H568 C574 0.930 . S
H569 C577 0.930 . S
H570 C578 0.930 . S
H571 C579 0.930 . S
H572 C582 0.930 . S
H573 C583 0.930 . S
C574 H568 0.930 . S
C574 C575 1.355 1_565 S
C574 C576 1.415 . S
C575 C574 1.355 1_545 S
C575 C577 1.419 . S
C576 C574 1.415 . S
C576 C581 1.425 1_565 S
C576 C583 1.409 . S
C577 H569 0.930 . S
C577 C575 1.419 . S
C577 C578 1.362 . S
C578 H570 0.930 . S
C578 C577 1.362 . S
C578 C581 1.409 . S
C579 H571 0.930 . S
C579 C580 1.355 1_545 S
C579 C581 1.415 . S
C580 C579 1.355 1_565 S
C580 C582 1.419 . S
C581 C576 1.425 1_545 S
C581 C578 1.409 . S
C581 C579 1.415 . S
C582 H572 0.930 . S
C582 C580 1.419 . S
C582 C583 1.362 . S
C583 H573 0.930 . S
C583 C576 1.409 . S
C583 C582 1.362 . S
H584 C590 0.930 . S
H585 C593 0.930 . S
H586 C594 0.930 . S
H587 C595 0.930 . S
H588 C598 0.930 . S
H589 C599 0.930 . S
C590 H584 0.930 . S
C590 C591 1.355 . S
C590 C592 1.415 . S
C591 C590 1.355 . S
C591 C593 1.419 . S
C592 C590 1.415 . S
C592 C597 1.425 . S
C592 C599 1.409 . S
C593 H585 0.930 . S
C593 C591 1.419 . S
C593 C594 1.362 . S
C594 H586 0.930 . S
C594 C593 1.362 . S
C594 C597 1.409 . S
C595 H587 0.930 . S
C595 C596 1.355 . S
C595 C597 1.415 . S
C596 C595 1.355 . S
C596 C598 1.419 . S
C597 C592 1.425 . S
C597 C594 1.409 . S
C597 C595 1.415 . S
C598 H588 0.930 . S
C598 C596 1.419 . S
C598 C599 1.362 . S
C599 H589 0.930 . S
C599 C592 1.409 . S
C599 C598 1.362 . S
H600 C606 0.930 . S
H601 C609 0.930 . S
H602 C610 0.930 . S
H603 C611 0.930 . S
H604 C614 0.930 . S
H605 C615 0.930 . S
C606 H600 0.930 . S
C606 C607 1.355 . S
C606 C608 1.415 . S
C607 C606 1.355 . S
C607 C609 1.419 . S
C608 C606 1.415 . S
C608 C613 1.425 . S
C608 C615 1.409 . S
C609 H601 0.930 . S
C609 C607 1.419 . S
C609 C610 1.362 . S
C610 H602 0.930 . S
C610 C609 1.362 . S
C610 C613 1.409 . S
C611 H603 0.930 . S
C611 C612 1.355 . S
C611 C613 1.415 . S
C612 C611 1.355 . S
C612 C614 1.419 . S
C613 C608 1.425 . S
C613 C610 1.409 . S
C613 C611 1.415 . S
C614 H604 0.930 . S
C614 C612 1.419 . S
C614 C615 1.362 . S
C615 H605 0.930 . S
C615 C608 1.409 . S
C615 C614 1.362 . S
C239 C76 1.857 . S
C244 C113 1.879 . S
C260 C134 1.539 . S
C255 C88 1.496 . S
C276 C168 1.431 . S
C271 C52 1.384 . S
C292 C202 1.552 . S
C287 C64 1.541 . S
C308 C104 1.879 . S
C303 C28 1.858 . S
C319 C40 1.528 . S
C324 C143 1.545 . S
C335 C4 1.400 . S
C340 C177 1.437 . S
C351 C16 1.508 . S
C356 C211 1.538 1_655 S
C372 C125 0.619 . S
C367 C69 0.591 . S
C388 C130 1.112 . S
C383 C81 1.068 . S
C404 C164 1.054 . S
C399 C93 1.024 . S
C415 C57 0.477 . S
C420 C198 0.527 . S
C431 C21 0.623 . S
C436 C96 0.614 . S
C452 C159 1.099 . S
C447 C33 1.068 . S
C468 C193 1.056 . S
C463 C45 1.052 . S
C479 C9 0.459 . S
C484 C227 0.497 . S
C495 C66 1.274 . S
C500 C109 1.320 . S
C511 C78 1.739 . S
C516 C138 1.761 . S
C532 C172 1.547 . S
C527 C90 1.491 . S
C548 C206 1.613 . S
C543 C54 1.563 . S
C559 C18 1.334 . S
C564 C100 1.352 . S
C580 C147 1.756 . S
C575 C30 1.692 . S
C596 C181 1.541 . S
C591 C42 1.537 . S
C607 C6 1.587 . S
C612 C215 1.611 . S
