# Generated by pormake.
# Topology ssb, (4,4)-cn, num edge types: 1
# Building blocks:
#     Node 0, Type 0, BuildingBlock: MIFKUJ_clean_linker_1, # of connection points: 4
#     Node 1, Type 0, BuildingBlock: MIFKUJ_clean_linker_1, # of connection points: 4
#     Node 2, Type 0, BuildingBlock: MIFKUJ_clean_linker_1, # of connection points: 4
#     Node 3, Type 0, BuildingBlock: MIFKUJ_clean_linker_1, # of connection points: 4
#     Node 4, Type 0, BuildingBlock: MIFKUJ_clean_linker_1, # of connection points: 4
#     Node 5, Type 0, BuildingBlock: MIFKUJ_clean_linker_1, # of connection points: 4
#     Node 6, Type 0, BuildingBlock: MIFKUJ_clean_linker_1, # of connection points: 4
#     Node 7, Type 0, BuildingBlock: MIFKUJ_clean_linker_1, # of connection points: 4
#     Node 8, Type 1, BuildingBlock: NAWXER_clean_sbu_0, # of connection points: 4
#     Node 9, Type 1, BuildingBlock: NAWXER_clean_sbu_0, # of connection points: 4
#     Node 10, Type 1, BuildingBlock: NAWXER_clean_sbu_0, # of connection points: 4
#     Node 11, Type 1, BuildingBlock: NAWXER_clean_sbu_0, # of connection points: 4
#     Node 12, Type 1, BuildingBlock: NAWXER_clean_sbu_0, # of connection points: 4
#     Node 13, Type 1, BuildingBlock: NAWXER_clean_sbu_0, # of connection points: 4
#     Node 14, Type 1, BuildingBlock: NAWXER_clean_sbu_0, # of connection points: 4
#     Node 15, Type 1, BuildingBlock: NAWXER_clean_sbu_0, # of connection points: 4
#     Edge 16, Type (0, 1), None
#     Edge 17, Type (0, 1), None
#     Edge 18, Type (0, 1), None
#     Edge 19, Type (0, 1), None
#     Edge 20, Type (0, 1), None
#     Edge 21, Type (0, 1), None
#     Edge 22, Type (0, 1), None
#     Edge 23, Type (0, 1), None
#     Edge 24, Type (0, 1), None
#     Edge 25, Type (0, 1), None
#     Edge 26, Type (0, 1), None
#     Edge 27, Type (0, 1), None
#     Edge 28, Type (0, 1), None
#     Edge 29, Type (0, 1), None
#     Edge 30, Type (0, 1), None
#     Edge 31, Type (0, 1), None
#     Edge 32, Type (0, 1), None
#     Edge 33, Type (0, 1), None
#     Edge 34, Type (0, 1), None
#     Edge 35, Type (0, 1), None
#     Edge 36, Type (0, 1), None
#     Edge 37, Type (0, 1), None
#     Edge 38, Type (0, 1), None
#     Edge 39, Type (0, 1), None
#     Edge 40, Type (0, 1), None
#     Edge 41, Type (0, 1), None
#     Edge 42, Type (0, 1), None
#     Edge 43, Type (0, 1), None
#     Edge 44, Type (0, 1), None
#     Edge 45, Type (0, 1), None
#     Edge 46, Type (0, 1), None
#     Edge 47, Type (0, 1), None
# Relax obj value: 0.000
# Max RMSD: 0.000
# Mean RMSD: 0.000
data_MOF--net-ssb--node1-NAWXER_clean_sbu_0--node2-MIFKUJ_clean_linker_1--edge1-none
_symmetry_space_group_name_H-M    P1
_symmetry_Int_Tables_number       1
_symmetry_cell_setting            triclinic
loop_
_symmetry_equiv_pos_as_xyz
'x, y, z'
_cell_length_a     28.152499
_cell_length_b     28.550014
_cell_length_c     25.221741
_cell_angle_alpha  90.118233
_cell_angle_beta   90.785403
_cell_angle_gamma 89.984908
loop_
_atom_site_label
_atom_site_type_symbol
_atom_site_fract_x
_atom_site_fract_y
_atom_site_fract_z
_atom_type_partial_charge
H0 H 0.31779 0.20361 0.15651 0.0
H1 H 0.3885 0.19256 0.10197 0.0
H2 H 0.43842 0.32983 0.14834 0.0
H3 H 0.36957 0.33948 0.20468 0.0
H4 H 0.30921 0.21339 0.25863 0.0
H5 H 0.21393 0.31873 0.12662 0.0
H6 H 0.20365 0.38356 0.06344 0.0
H7 H 0.30722 0.4647 0.15164 0.0
H8 H 0.31487 0.40124 0.21659 0.0
H9 H 0.20781 0.35963 0.36515 0.0
H10 H 0.1444 0.36494 0.43127 0.0
H11 H 0.07913 0.2412 0.36376 0.0
H12 H 0.14214 0.23588 0.29866 0.0
H13 H 0.20707 0.35486 0.2534 0.0
H14 H 0.2396 0.25389 0.40204 0.0
H15 H 0.23023 0.18944 0.4649 0.0
H16 H 0.23583 0.08995 0.33663 0.0
H17 H 0.24264 0.15438 0.27292 0.0
C18 C 0.33709 0.27326 0.18338 0.0
C19 C 0.34393 0.23139 0.15486 0.0
C20 C 0.38452 0.22495 0.1239 0.0
C21 C 0.41901 0.26042 0.1205 0.0
C22 C 0.41228 0.30202 0.14944 0.0
C23 C 0.37226 0.30803 0.181 0.0
C24 C 0.29554 0.27903 0.21909 0.0
C25 C 0.28642 0.244 0.25694 0.0
C26 C 0.26575 0.31909 0.21758 0.0
C27 C 0.26681 0.35442 0.17489 0.0
C28 C 0.23498 0.35023 0.13176 0.0
C29 C 0.22852 0.38742 0.09632 0.0
C30 C 0.25451 0.42897 0.10302 0.0
C31 C 0.28692 0.43284 0.14565 0.0
C32 C 0.29206 0.39633 0.18211 0.0
C33 C 0.18027 0.29645 0.32824 0.0
C34 C 0.17918 0.33428 0.36411 0.0
C35 C 0.14278 0.33771 0.40133 0.0
C36 C 0.10715 0.30345 0.40256 0.0
C37 C 0.10641 0.268 0.36371 0.0
C38 C 0.14257 0.26456 0.32686 0.0
C39 C 0.22113 0.28961 0.29279 0.0
C40 C 0.22989 0.32421 0.25506 0.0
C41 C 0.24919 0.24828 0.29353 0.0
C42 C 0.24115 0.20943 0.33222 0.0
C43 C 0.237 0.21848 0.38687 0.0
C44 C 0.2315 0.18166 0.42292 0.0
C45 C 0.23092 0.13503 0.40528 0.0
C46 C 0.23496 0.12575 0.35091 0.0
C47 C 0.2395 0.16258 0.31468 0.0
H48 H 0.65815 0.29307 0.26025 0.0
H49 H 0.59353 0.30743 0.1959 0.0
H50 H 0.69222 0.29342 0.06772 0.0
H51 H 0.75648 0.27718 0.13152 0.0
H52 H 0.70628 0.21619 0.27244 0.0
H53 H 0.74959 0.37441 0.24144 0.0
H54 H 0.75295 0.43608 0.17491 0.0
H55 H 0.86875 0.36489 0.09848 0.0
H56 H 0.86459 0.30204 0.16514 0.0
H57 H 0.91257 0.20682 0.29177 0.0
H58 H 0.97608 0.19264 0.3578 0.0
H59 H 0.87785 0.22108 0.48338 0.0
H60 H 0.81445 0.23484 0.41782 0.0
H61 H 0.86579 0.29034 0.27677 0.0
H62 H 0.82202 0.1328 0.31071 0.0
H63 H 0.80754 0.0657 0.36745 0.0
H64 H 0.68713 0.13633 0.43572 0.0
H65 H 0.70217 0.20439 0.37838 0.0
C66 C 0.71242 0.28436 0.20092 0.0
C67 C 0.66611 0.29373 0.21836 0.0
C68 C 0.62935 0.3024 0.18178 0.0
C69 C 0.63847 0.3025 0.12731 0.0
C70 C 0.68484 0.29466 0.10976 0.0
C71 C 0.72149 0.28538 0.14623 0.0
C72 C 0.75031 0.27022 0.23954 0.0
C73 C 0.74079 0.23308 0.27413 0.0
C74 C 0.79597 0.29126 0.24059 0.0
C75 C 0.80607 0.33309 0.20757 0.0
C76 C 0.77641 0.37241 0.21111 0.0
C77 C 0.77842 0.40766 0.17309 0.0
C78 C 0.81079 0.40491 0.13131 0.0
C79 C 0.84366 0.36789 0.13049 0.0
C80 C 0.84123 0.33202 0.16846 0.0
C81 C 0.85862 0.22198 0.3497 0.0
C82 C 0.90436 0.20875 0.33355 0.0
C83 C 0.94042 0.19984 0.37123 0.0
C84 C 0.9314 0.20442 0.42561 0.0
C85 C 0.88527 0.2159 0.44172 0.0
C86 C 0.84917 0.22422 0.40422 0.0
C87 C 0.82151 0.23635 0.3101 0.0
C88 C 0.83119 0.27366 0.27533 0.0
C89 C 0.77562 0.21581 0.30914 0.0
C90 C 0.76412 0.1741 0.34145 0.0
C91 C 0.7925 0.13401 0.33779 0.0
C92 C 0.78386 0.09554 0.36997 0.0
C93 C 0.74637 0.09603 0.4063 0.0
C94 C 0.71602 0.13499 0.40785 0.0
C95 C 0.72488 0.17388 0.3755 0.0
H96 H 0.66916 0.80837 0.16725 0.0
H97 H 0.60546 0.80333 0.10265 0.0
H98 H 0.57679 0.66066 0.14995 0.0
H99 H 0.64053 0.66692 0.21748 0.0
H100 H 0.68685 0.8029 0.27026 0.0
H101 H 0.72592 0.70878 0.11228 0.0
H102 H 0.71467 0.64182 0.05207 0.0
H103 H 0.73299 0.54695 0.18351 0.0
H104 H 0.74352 0.61391 0.24405 0.0
H105 H 0.8442 0.68737 0.33589 0.0
H106 H 0.91227 0.70158 0.39375 0.0
H107 H 0.92285 0.84315 0.3345 0.0
H108 H 0.85575 0.82758 0.27381 0.0
H109 H 0.81497 0.6876 0.23588 0.0
H110 H 0.78623 0.7756 0.39241 0.0
H111 H 0.80936 0.83871 0.45358 0.0
H112 H 0.77133 0.94096 0.33497 0.0
H113 H 0.75056 0.87768 0.27237 0.0
C114 C 0.66038 0.73798 0.1969 0.0
C115 C 0.64851 0.77637 0.16508 0.0
C116 C 0.61213 0.77301 0.12739 0.0
C117 C 0.58648 0.73097 0.11995 0.0
C118 C 0.59627 0.69319 0.15398 0.0
C119 C 0.63262 0.69689 0.19264 0.0
C120 C 0.70575 0.73967 0.2281 0.0
C121 C 0.71476 0.77765 0.26278 0.0
C122 C 0.7422 0.70647 0.21925 0.0
C123 C 0.73532 0.66624 0.18266 0.0
C124 C 0.72664 0.6736 0.1283 0.0
C125 C 0.71955 0.63554 0.09415 0.0
C126 C 0.72122 0.58966 0.11383 0.0
C127 C 0.7299 0.58222 0.16805 0.0
C128 C 0.73674 0.62028 0.2023 0.0
C129 C 0.84417 0.75663 0.30137 0.0
C130 C 0.86213 0.72088 0.33377 0.0
C131 C 0.90089 0.72938 0.36731 0.0
C132 C 0.92218 0.77402 0.36965 0.0
C133 C 0.90661 0.80876 0.33423 0.0
C134 C 0.86846 0.79976 0.29947 0.0
C135 C 0.79623 0.75117 0.27676 0.0
C136 C 0.78684 0.71253 0.24376 0.0
C137 C 0.75927 0.78317 0.2882 0.0
C138 C 0.76702 0.82177 0.32742 0.0
C139 C 0.78345 0.81157 0.37915 0.0
C140 C 0.79755 0.8475 0.41375 0.0
C141 C 0.79426 0.89442 0.39792 0.0
C142 C 0.77602 0.90486 0.34713 0.0
C143 C 0.76302 0.86884 0.31192 0.0
H144 H 0.24956 0.71191 0.38995 0.0
H145 H 0.17978 0.69836 0.44654 0.0
H146 H 0.09787 0.7931 0.34833 0.0
H147 H 0.16635 0.80517 0.29189 0.0
H148 H 0.2385 0.70595 0.25807 0.0
H149 H 0.35347 0.82884 0.37482 0.0
H150 H 0.35932 0.89726 0.43318 0.0
H151 H 0.21652 0.93732 0.38752 0.0
H152 H 0.21188 0.87039 0.32746 0.0
H153 H 0.29582 0.79534 0.11452 0.0
H154 H 0.34971 0.81012 0.04106 0.0
H155 H 0.4647 0.83408 0.1523 0.0
H156 H 0.41145 0.81776 0.22585 0.0
H157 H 0.33579 0.8505 0.26508 0.0
H158 H 0.2209 0.71059 0.15916 0.0
H159 H 0.22438 0.64903 0.09308 0.0
H160 H 0.37701 0.64174 0.11282 0.0
H161 H 0.37308 0.70366 0.18069 0.0
C162 C 0.21359 0.76107 0.33798 0.0
C163 C 0.21647 0.72973 0.38093 0.0
C164 C 0.17652 0.7215 0.41273 0.0
C165 C 0.1334 0.74476 0.40195 0.0
C166 C 0.13065 0.77491 0.35797 0.0
C167 C 0.16996 0.78238 0.32602 0.0
C168 C 0.25406 0.76881 0.30182 0.0
C169 C 0.26015 0.73738 0.25968 0.0
C170 C 0.28318 0.80913 0.30457 0.0
C171 C 0.2816 0.8436 0.34815 0.0
C172 C 0.32305 0.85183 0.3784 0.0
C173 C 0.32664 0.89123 0.41105 0.0
C174 C 0.28856 0.92273 0.41442 0.0
C175 C 0.24639 0.91345 0.38577 0.0
C176 C 0.24322 0.87458 0.35225 0.0
C177 C 0.34997 0.80367 0.17568 0.0
C178 C 0.33242 0.80452 0.12329 0.0
C179 C 0.36279 0.81443 0.08139 0.0
C180 C 0.41088 0.8247 0.09126 0.0
C181 C 0.42735 0.82802 0.14384 0.0
C182 C 0.39714 0.81763 0.18576 0.0
C183 C 0.31923 0.78856 0.22001 0.0
C184 C 0.31515 0.81839 0.26375 0.0
C185 C 0.29258 0.74644 0.21881 0.0
C186 C 0.29658 0.71157 0.17531 0.0
C187 C 0.25519 0.69583 0.14951 0.0
C188 C 0.25733 0.66049 0.1116 0.0
C189 C 0.30099 0.63992 0.0982 0.0
C190 C 0.34287 0.65675 0.1225 0.0
C191 C 0.34064 0.6922 0.16108 0.0
H192 H 0.09226 0.82558 0.74301 0.0
H193 H 0.03774 0.83442 0.66643 0.0
H194 H 0.1563 0.8258 0.56061 0.0
H195 H 0.21022 0.81518 0.63612 0.0
H196 H 0.15063 0.74877 0.76405 0.0
H197 H 0.16979 0.91298 0.73644 0.0
H198 H 0.17264 0.97301 0.66718 0.0
H199 H 0.3097 0.92061 0.61974 0.0
H200 H 0.30571 0.85981 0.68694 0.0
H201 H 0.35358 0.77079 0.77576 0.0
H202 H 0.42397 0.74679 0.82682 0.0
H203 H 0.33659 0.71755 0.96166 0.0
H204 H 0.26631 0.74437 0.9119 0.0
H205 H 0.29877 0.8414 0.78656 0.0
H206 H 0.26866 0.67336 0.78597 0.0
H207 H 0.26903 0.60245 0.83985 0.0
H208 H 0.15354 0.65715 0.93234 0.0
H209 H 0.15372 0.72892 0.87837 0.0
C210 C 0.15535 0.82005 0.69536 0.0
C211 C 0.10654 0.82664 0.70338 0.0
C212 C 0.07566 0.83281 0.65988 0.0
C213 C 0.09334 0.83289 0.60806 0.0
C214 C 0.14224 0.82799 0.60034 0.0
C215 C 0.17289 0.82124 0.64347 0.0
C216 C 0.18858 0.81059 0.74038 0.0
C217 C 0.18239 0.76971 0.77022 0.0
C218 C 0.23006 0.83787 0.74808 0.0
C219 C 0.23726 0.88131 0.7165 0.0
C220 C 0.20077 0.91491 0.71154 0.0
C221 C 0.20218 0.94897 0.6717 0.0
C222 C 0.24085 0.95096 0.63726 0.0
C223 C 0.27909 0.91981 0.64529 0.0
C224 C 0.27724 0.88528 0.68431 0.0
C225 C 0.30412 0.75957 0.83957 0.0
C226 C 0.3492 0.75884 0.81613 0.0
C227 C 0.38939 0.74419 0.84494 0.0
C228 C 0.38548 0.72868 0.89748 0.0
C229 C 0.34032 0.7275 0.92048 0.0
C230 C 0.30015 0.74332 0.89208 0.0
C231 C 0.26206 0.77809 0.80887 0.0
C232 C 0.26638 0.82116 0.782 0.0
C233 C 0.2187 0.75285 0.80378 0.0
C234 C 0.21213 0.70676 0.82928 0.0
C235 C 0.24274 0.66973 0.81707 0.0
C236 C 0.24271 0.62922 0.84766 0.0
C237 C 0.21152 0.62471 0.89038 0.0
C238 C 0.17761 0.65976 0.89934 0.0
C239 C 0.17795 0.70075 0.86883 0.0
H240 H 0.44994 0.35445 0.76934 0.0
H241 H 0.50027 0.35776 0.8503 0.0
H242 H 0.39366 0.28062 0.93512 0.0
H243 H 0.34339 0.27861 0.85541 0.0
H244 H 0.398 0.25285 0.72922 0.0
H245 H 0.37878 0.41656 0.77248 0.0
H246 H 0.37544 0.47351 0.8454 0.0
H247 H 0.24444 0.41052 0.89715 0.0
H248 H 0.24899 0.35302 0.82609 0.0
H249 H 0.19585 0.27804 0.73243 0.0
H250 H 0.12264 0.25387 0.68653 0.0
H251 H 0.20124 0.22801 0.54424 0.0
H252 H 0.27438 0.25463 0.58889 0.0
H253 H 0.25022 0.34757 0.72226 0.0
H254 H 0.28015 0.18105 0.71423 0.0
H255 H 0.27895 0.10895 0.66224 0.0
H256 H 0.38753 0.1644 0.56057 0.0
H257 H 0.38842 0.23729 0.61303 0.0
C258 C 0.39329 0.316 0.80666 0.0
C259 C 0.43746 0.33876 0.80564 0.0
C260 C 0.46568 0.34124 0.85183 0.0
C261 C 0.45029 0.31996 0.89875 0.0
C262 C 0.40595 0.29765 0.89947 0.0
C263 C 0.37753 0.29608 0.85398 0.0
C264 C 0.36178 0.31321 0.75946 0.0
C265 C 0.36651 0.27466 0.7258 0.0
C266 C 0.32041 0.34095 0.75647 0.0
C267 C 0.31419 0.38042 0.79401 0.0
C268 C 0.34933 0.41522 0.7996 0.0
C269 C 0.34765 0.44747 0.84138 0.0
C270 C 0.3101 0.44606 0.87729 0.0
C271 C 0.27398 0.41244 0.87015 0.0
C272 C 0.27612 0.37985 0.8291 0.0
C273 C 0.24122 0.26828 0.66449 0.0
C274 C 0.19772 0.267 0.6914 0.0
C275 C 0.15592 0.25236 0.66551 0.0
C276 C 0.15671 0.23745 0.61251 0.0
C277 C 0.20013 0.23754 0.58576 0.0
C278 C 0.24189 0.25315 0.61128 0.0
C279 C 0.28523 0.28566 0.69259 0.0
C280 C 0.28266 0.32709 0.72286 0.0
C281 C 0.32861 0.26016 0.69312 0.0
C282 C 0.33319 0.21472 0.66615 0.0
C283 C 0.30419 0.17744 0.68127 0.0
C284 C 0.30386 0.13628 0.65188 0.0
C285 C 0.33295 0.13161 0.60737 0.0
C286 C 0.36515 0.16727 0.59502 0.0
C287 C 0.36527 0.20885 0.62448 0.0
H288 H 0.72467 0.15796 0.88965 0.0
H289 H 0.65889 0.15931 0.95336 0.0
H290 H 0.59093 0.26875 0.86216 0.0
H291 H 0.65548 0.26673 0.79876 0.0
H292 H 0.73706 0.1522 0.77263 0.0
H293 H 0.75335 0.26244 0.91814 0.0
H294 H 0.73659 0.32823 0.97776 0.0
H295 H 0.72259 0.42036 0.84334 0.0
H296 H 0.73831 0.35444 0.78338 0.0
H297 H 0.83094 0.31495 0.67974 0.0
H298 H 0.89852 0.33189 0.62265 0.0
H299 H 0.9655 0.20317 0.67352 0.0
H300 H 0.89888 0.18713 0.73156 0.0
H301 H 0.81898 0.30603 0.77904 0.0
H302 H 0.79996 0.20335 0.63259 0.0
H303 H 0.81189 0.142 0.56617 0.0
H304 H 0.82532 0.03906 0.69009 0.0
H305 H 0.81412 0.10068 0.75712 0.0
C306 C 0.69527 0.21279 0.83994 0.0
C307 C 0.69467 0.18096 0.88247 0.0
C308 C 0.65717 0.18169 0.91877 0.0
C309 C 0.62021 0.21441 0.91278 0.0
C310 C 0.61919 0.24337 0.86782 0.0
C311 C 0.65604 0.24225 0.83155 0.0
C312 C 0.73896 0.22061 0.80873 0.0
C313 C 0.75569 0.18542 0.77453 0.0
C314 C 0.76194 0.26474 0.81 0.0
C315 C 0.74692 0.30331 0.84611 0.0
C316 C 0.74512 0.29636 0.90123 0.0
C317 C 0.73532 0.33385 0.93528 0.0
C318 C 0.72719 0.37884 0.9148 0.0
C319 C 0.72753 0.38563 0.85977 0.0
C320 C 0.73713 0.34815 0.82568 0.0
C321 C 0.85918 0.24911 0.70909 0.0
C322 C 0.86054 0.29071 0.67922 0.0
C323 C 0.89929 0.30058 0.64684 0.0
C324 C 0.93721 0.26883 0.64348 0.0
C325 C 0.93663 0.22822 0.67501 0.0
C326 C 0.89828 0.21869 0.7078 0.0
C327 C 0.81723 0.23794 0.7421 0.0
C328 C 0.80077 0.27257 0.77695 0.0
C329 C 0.79413 0.19364 0.7403 0.0
C330 C 0.80647 0.15698 0.70022 0.0
C331 C 0.80712 0.16797 0.64587 0.0
C332 C 0.81426 0.13293 0.60783 0.0
C333 C 0.82107 0.08613 0.62316 0.0
C334 C 0.82178 0.07514 0.6774 0.0
C335 C 0.81464 0.11024 0.71559 0.0
H336 H 0.82734 0.65987 0.64237 0.0
H337 H 0.89598 0.65964 0.58312 0.0
H338 H 0.91914 0.80603 0.61793 0.0
H339 H 0.85293 0.80566 0.6784 0.0
H340 H 0.82145 0.6692 0.74003 0.0
H341 H 0.73406 0.76984 0.60319 0.0
H342 H 0.7188 0.83973 0.54806 0.0
H343 H 0.7592 0.92861 0.67945 0.0
H344 H 0.77422 0.85936 0.73427 0.0
H345 H 0.71309 0.80911 0.85121 0.0
H346 H 0.64367 0.82466 0.90533 0.0
H347 H 0.59464 0.68328 0.87758 0.0
H348 H 0.66347 0.6684 0.82144 0.0
H349 H 0.70128 0.79508 0.75216 0.0
H350 H 0.78076 0.70545 0.89141 0.0
H351 H 0.79472 0.64232 0.95608 0.0
H352 H 0.77258 0.53939 0.83295 0.0
H353 H 0.75908 0.60228 0.76818 0.0
C354 C 0.83358 0.73323 0.66408 0.0
C355 C 0.84717 0.692 0.63718 0.0
C356 C 0.88662 0.69168 0.60354 0.0
C357 C 0.91295 0.73276 0.59562 0.0
C358 C 0.89931 0.7738 0.62255 0.0
C359 C 0.86066 0.7739 0.65668 0.0
C360 C 0.79466 0.73256 0.70398 0.0
C361 C 0.79463 0.69641 0.74201 0.0
C362 C 0.76025 0.76871 0.7084 0.0
C363 C 0.75619 0.80948 0.6724 0.0
C364 C 0.73963 0.80438 0.61997 0.0
C365 C 0.7296 0.84414 0.58917 0.0
C366 C 0.73563 0.88927 0.61066 0.0
C367 C 0.75231 0.89416 0.66292 0.0
C368 C 0.76202 0.85469 0.69367 0.0
C369 C 0.69376 0.73746 0.83214 0.0
C370 C 0.68772 0.78114 0.85726 0.0
C371 C 0.64766 0.7903 0.88767 0.0
C372 C 0.61305 0.75565 0.89471 0.0
C373 C 0.62045 0.71096 0.87233 0.0
C374 C 0.66023 0.70206 0.84094 0.0
C375 C 0.72938 0.73311 0.78924 0.0
C376 C 0.72804 0.76774 0.75008 0.0
C377 C 0.76293 0.6963 0.78487 0.0
C378 C 0.76825 0.65861 0.82505 0.0
C379 C 0.77883 0.66934 0.87831 0.0
C380 C 0.78771 0.63341 0.91492 0.0
C381 C 0.78617 0.58632 0.89879 0.0
C382 C 0.77525 0.57555 0.84579 0.0
C383 C 0.76692 0.6114 0.80909 0.0
C384 C 0.97417 0.27419 0.60281 0.0
C385 C 0.07729 0.29712 0.44938 0.0
O386 O 0.98362 0.31375 0.58206 0.0
Zn387 Zn 0.02734 0.29129 0.52818 0.0
O388 O 0.99387 0.23702 0.58504 0.0
Zn389 Zn 0.04065 0.21552 0.52471 0.0
O390 O 0.09798 0.19315 0.56299 0.0
O391 O 0.0876 0.26934 0.5728 0.0
O392 O 0.07241 0.25519 0.46569 0.0
O393 O 0.05809 0.33091 0.4744 0.0
O394 O 0.97918 0.25259 0.47975 0.0
O395 O 0.99815 0.17739 0.4788 0.0
C396 C 0.11159 0.23224 0.58242 0.0
C397 C 0.9712 0.21086 0.46355 0.0
C398 C 0.81493 0.04877 0.58307 0.0
C399 C 0.79861 0.93172 0.43804 0.0
O400 O 0.84992 0.02812 0.56149 0.0
Zn401 Zn 0.81318 0.98893 0.5107 0.0
O402 O 0.77252 0.03918 0.56799 0.0
Zn403 Zn 0.73517 0.99649 0.51295 0.0
O404 O 0.70153 0.95186 0.55858 0.0
O405 O 0.77947 0.9419 0.56068 0.0
O406 O 0.76002 0.94939 0.45496 0.0
O407 O 0.83837 0.94377 0.45887 0.0
O408 O 0.78399 0.03973 0.45997 0.0
O409 O 0.70598 0.04499 0.46759 0.0
C410 C 0.73816 0.92985 0.57541 0.0
C411 C 0.74449 0.05843 0.44623 0.0
C412 C 0.95308 0.7351 0.55798 0.0
C413 C 0.0924 0.74292 0.43829 0.0
O414 O 0.96255 0.77496 0.53772 0.0
Zn415 Zn 1.01031 0.80787 0.48583 0.0
O416 O 0.97856 0.69965 0.54611 0.0
Zn417 Zn 0.02342 0.73248 0.49866 0.0
O418 O 0.05706 0.77778 0.55283 0.0
O419 O 0.04127 0.85216 0.53483 0.0
O420 O 0.07971 0.70577 0.46235 0.0
O421 O 0.0688 0.78069 0.44472 0.0
O422 O 0.96795 0.82513 0.42691 0.0
O423 O 0.97717 0.74862 0.43511 0.0
C424 C 0.06162 0.82125 0.56362 0.0
C425 C 0.95833 0.78363 0.4113 0.0
C426 C 0.32207 0.09406 0.5696 0.0
C427 C 0.29224 0.9648 0.44811 0.0
O428 O 0.35408 0.07268 0.54384 0.0
Zn429 Zn 0.31012 0.03138 0.50604 0.0
O430 O 0.27825 0.08413 0.56209 0.0
Zn431 Zn 0.23444 0.03889 0.51728 0.0
O432 O 0.20454 1.00483 0.57517 0.0
O433 O 0.2816 0.99164 0.56961 0.0
O434 O 0.25415 0.98352 0.46555 0.0
O435 O 0.33253 0.98185 0.46102 0.0
O436 O 0.27655 0.07927 0.45278 0.0
O437 O 0.20035 0.08371 0.47194 0.0
C438 C 0.24194 0.98438 0.59241 0.0
C439 C 0.23531 0.09671 0.44411 0.0
C440 C 0.44504 0.81183 0.05062 0.0
C441 C 0.57048 0.76539 0.92701 0.0
O442 O 0.46971 0.84149 0.02509 0.0
Zn443 Zn 0.50594 0.7942 0.98535 0.0
O444 O 0.45137 0.76801 0.04407 0.0
Zn445 Zn 0.49206 0.71958 1.00184 0.0
O446 O 0.52769 0.69161 0.06322 0.0
O447 O 0.5447 0.76571 0.04865 0.0
O448 O 0.54801 0.73103 0.94751 0.0
O449 O 0.5575 0.80724 0.93704 0.0
O450 O 0.45173 0.76498 0.93745 0.0
O451 O 0.4395 0.69121 0.95974 0.0
C452 C 0.55102 0.72852 0.07572 0.0
C453 C 0.42854 0.72683 0.93162 0.0
C454 C 0.30101 0.60049 0.05996 0.0
C455 C 0.3064 0.48023 0.92096 0.0
O456 O 0.33865 0.58661 0.03726 0.0
Zn457 Zn 0.30835 0.5388 0.99231 0.0
O458 O 0.26127 0.58081 0.04872 0.0
Zn459 Zn 0.23193 0.52865 0.99843 0.0
O460 O 0.2098 0.48051 0.04651 0.0
O461 O 0.2881 0.48676 0.04773 0.0
O462 O 0.26538 0.48742 0.94046 0.0
O463 O 0.34232 0.50255 0.93914 0.0
O464 O 0.2653 0.58057 0.94166 0.0
O465 O 0.18898 0.56677 0.95467 0.0
C466 C 0.25015 0.46732 0.06432 0.0
C467 C 0.22163 0.5885 0.9303 0.0
C468 C 0.58709 0.22503 0.95607 0.0
C469 C 0.46086 0.25551 0.08552 0.0
O470 O 0.58043 0.26818 0.96747 0.0
Zn471 Zn 0.53905 0.31112 0.01789 0.0
O472 O 0.56414 0.19344 0.98047 0.0
Zn473 Zn 0.52629 0.23678 0.02404 0.0
O474 O 0.48659 0.27286 0.96411 0.0
O475 O 0.50676 0.34786 0.9635 0.0
O476 O 0.47496 0.21557 0.06958 0.0
O477 O 0.48221 0.29252 0.06966 0.0
O478 O 0.58703 0.33931 0.06396 0.0
O479 O 0.57883 0.26329 0.07778 0.0
C480 C 0.48247 0.31401 0.94447 0.0
C481 C 0.59899 0.30237 0.08878 0.0
C482 C 0.72504 0.5504 0.0767 0.0
C483 C 0.72908 0.41953 0.95055 0.0
O484 O 0.76664 0.5391 0.06149 0.0
Zn485 Zn 0.80007 0.49062 0.00982 0.0
O486 O 0.68865 0.52864 0.05893 0.0
Zn487 Zn 0.72324 0.48554 0.0134 0.0
O488 O 0.76139 0.4462 0.07129 0.0
O489 O 0.83874 0.45365 0.06004 0.0
O490 O 0.69189 0.43656 0.97124 0.0
O491 O 0.76984 0.43697 0.96173 0.0
O492 O 0.8269 0.534 0.95828 0.0
O493 O 0.74836 0.5329 0.95541 0.0
C494 C 0.80407 0.43652 0.08553 0.0
C495 C 0.78781 0.54884 0.93862 0.0
loop_
_geom_bond_atom_site_label_1
_geom_bond_atom_site_label_2
_geom_bond_distance
_geom_bond_site_symmetry_2
_ccdc_geom_bond_type
H0 C19 0.949 . S
H1 C20 0.950 . S
H2 C22 0.950 . S
H3 C23 0.950 . S
H4 C25 0.950 . S
H5 C28 0.950 . S
H6 C29 0.950 . S
H7 C31 0.951 . S
H8 C32 0.949 . S
H9 C34 0.949 . S
H10 C35 0.950 . S
H11 C37 0.950 . S
H12 C38 0.950 . S
H13 C40 0.950 . S
H14 C43 0.950 . S
H15 C44 0.950 . S
H16 C46 0.951 . S
H17 C47 0.949 . S
C18 C19 1.376 . S
C18 C23 1.386 . S
C18 C24 1.483 . S
C19 H0 0.949 . S
C19 C18 1.376 . S
C19 C20 1.397 . S
C20 H1 0.950 . S
C20 C19 1.397 . S
C20 C21 1.391 . S
C21 C20 1.391 . S
C21 C22 1.405 . S
C22 H2 0.950 . S
C22 C21 1.405 . S
C22 C23 1.367 . S
C23 H3 0.950 . S
C23 C18 1.386 . S
C23 C22 1.367 . S
C24 C18 1.483 . S
C24 C25 1.382 . S
C24 C26 1.403 . S
C25 H4 0.950 . S
C25 C24 1.382 . S
C25 C41 1.411 . S
C26 C24 1.403 . S
C26 C27 1.489 . S
C26 C40 1.411 . S
C27 C26 1.489 . S
C27 C28 1.383 . S
C27 C32 1.382 . S
C28 H5 0.950 . S
C28 C27 1.383 . S
C28 C29 1.395 . S
C29 H6 0.950 . S
C29 C28 1.395 . S
C29 C30 1.288 . S
C30 C29 1.288 . S
C30 C31 1.392 . S
C31 H7 0.951 . S
C31 C30 1.392 . S
C31 C32 1.392 . S
C32 H8 0.949 . S
C32 C27 1.382 . S
C32 C31 1.392 . S
C33 C34 1.376 . S
C33 C38 1.386 . S
C33 C39 1.483 . S
C34 H9 0.949 . S
C34 C33 1.376 . S
C34 C35 1.397 . S
C35 H10 0.950 . S
C35 C34 1.397 . S
C35 C36 1.391 . S
C36 C35 1.391 . S
C36 C37 1.405 . S
C37 H11 0.950 . S
C37 C36 1.405 . S
C37 C38 1.367 . S
C38 H12 0.950 . S
C38 C33 1.386 . S
C38 C37 1.367 . S
C39 C33 1.483 . S
C39 C40 1.382 . S
C39 C41 1.403 . S
C40 H13 0.950 . S
C40 C26 1.411 . S
C40 C39 1.382 . S
C41 C25 1.411 . S
C41 C39 1.403 . S
C41 C42 1.489 . S
C42 C41 1.489 . S
C42 C43 1.383 . S
C42 C47 1.382 . S
C43 H14 0.950 . S
C43 C42 1.383 . S
C43 C44 1.395 . S
C44 H15 0.950 . S
C44 C43 1.395 . S
C44 C45 1.288 . S
C45 C44 1.288 . S
C45 C46 1.392 . S
C46 H16 0.951 . S
C46 C45 1.392 . S
C46 C47 1.392 . S
C47 H17 0.949 . S
C47 C42 1.382 . S
C47 C46 1.392 . S
H48 C67 0.949 . S
H49 C68 0.950 . S
H50 C70 0.950 . S
H51 C71 0.950 . S
H52 C73 0.950 . S
H53 C76 0.950 . S
H54 C77 0.950 . S
H55 C79 0.951 . S
H56 C80 0.949 . S
H57 C82 0.949 . S
H58 C83 0.950 . S
H59 C85 0.950 . S
H60 C86 0.950 . S
H61 C88 0.950 . S
H62 C91 0.950 . S
H63 C92 0.950 . S
H64 C94 0.951 . S
H65 C95 0.949 . S
C66 C67 1.376 . S
C66 C71 1.386 . S
C66 C72 1.483 . S
C67 H48 0.949 . S
C67 C66 1.376 . S
C67 C68 1.397 . S
C68 H49 0.950 . S
C68 C67 1.397 . S
C68 C69 1.391 . S
C69 C68 1.391 . S
C69 C70 1.405 . S
C70 H50 0.950 . S
C70 C69 1.405 . S
C70 C71 1.367 . S
C71 H51 0.950 . S
C71 C66 1.386 . S
C71 C70 1.367 . S
C72 C66 1.483 . S
C72 C73 1.382 . S
C72 C74 1.403 . S
C73 H52 0.950 . S
C73 C72 1.382 . S
C73 C89 1.411 . S
C74 C72 1.403 . S
C74 C75 1.489 . S
C74 C88 1.411 . S
C75 C74 1.489 . S
C75 C76 1.383 . S
C75 C80 1.382 . S
C76 H53 0.950 . S
C76 C75 1.383 . S
C76 C77 1.395 . S
C77 H54 0.950 . S
C77 C76 1.395 . S
C77 C78 1.288 . S
C78 C77 1.288 . S
C78 C79 1.392 . S
C79 H55 0.951 . S
C79 C78 1.392 . S
C79 C80 1.392 . S
C80 H56 0.949 . S
C80 C75 1.382 . S
C80 C79 1.392 . S
C81 C82 1.376 . S
C81 C86 1.386 . S
C81 C87 1.483 . S
C82 H57 0.949 . S
C82 C81 1.376 . S
C82 C83 1.397 . S
C83 H58 0.950 . S
C83 C82 1.397 . S
C83 C84 1.391 . S
C84 C83 1.391 . S
C84 C85 1.405 . S
C85 H59 0.950 . S
C85 C84 1.405 . S
C85 C86 1.367 . S
C86 H60 0.950 . S
C86 C81 1.386 . S
C86 C85 1.367 . S
C87 C81 1.483 . S
C87 C88 1.382 . S
C87 C89 1.403 . S
C88 H61 0.950 . S
C88 C74 1.411 . S
C88 C87 1.382 . S
C89 C73 1.411 . S
C89 C87 1.403 . S
C89 C90 1.489 . S
C90 C89 1.489 . S
C90 C91 1.383 . S
C90 C95 1.382 . S
C91 H62 0.950 . S
C91 C90 1.383 . S
C91 C92 1.395 . S
C92 H63 0.950 . S
C92 C91 1.395 . S
C92 C93 1.288 . S
C93 C92 1.288 . S
C93 C94 1.392 . S
C94 H64 0.951 . S
C94 C93 1.392 . S
C94 C95 1.392 . S
C95 H65 0.949 . S
C95 C90 1.382 . S
C95 C94 1.392 . S
H96 C115 0.949 . S
H97 C116 0.950 . S
H98 C118 0.950 . S
H99 C119 0.950 . S
H100 C121 0.950 . S
H101 C124 0.950 . S
H102 C125 0.950 . S
H103 C127 0.951 . S
H104 C128 0.949 . S
H105 C130 0.949 . S
H106 C131 0.950 . S
H107 C133 0.950 . S
H108 C134 0.950 . S
H109 C136 0.950 . S
H110 C139 0.950 . S
H111 C140 0.950 . S
H112 C142 0.951 . S
H113 C143 0.949 . S
C114 C115 1.376 . S
C114 C119 1.386 . S
C114 C120 1.483 . S
C115 H96 0.949 . S
C115 C114 1.376 . S
C115 C116 1.397 . S
C116 H97 0.950 . S
C116 C115 1.397 . S
C116 C117 1.391 . S
C117 C116 1.391 . S
C117 C118 1.405 . S
C118 H98 0.950 . S
C118 C117 1.405 . S
C118 C119 1.367 . S
C119 H99 0.950 . S
C119 C114 1.386 . S
C119 C118 1.367 . S
C120 C114 1.483 . S
C120 C121 1.382 . S
C120 C122 1.403 . S
C121 H100 0.950 . S
C121 C120 1.382 . S
C121 C137 1.411 . S
C122 C120 1.403 . S
C122 C123 1.489 . S
C122 C136 1.411 . S
C123 C122 1.489 . S
C123 C124 1.383 . S
C123 C128 1.382 . S
C124 H101 0.950 . S
C124 C123 1.383 . S
C124 C125 1.395 . S
C125 H102 0.950 . S
C125 C124 1.395 . S
C125 C126 1.288 . S
C126 C125 1.288 . S
C126 C127 1.392 . S
C127 H103 0.951 . S
C127 C126 1.392 . S
C127 C128 1.392 . S
C128 H104 0.949 . S
C128 C123 1.382 . S
C128 C127 1.392 . S
C129 C130 1.376 . S
C129 C134 1.386 . S
C129 C135 1.483 . S
C130 H105 0.949 . S
C130 C129 1.376 . S
C130 C131 1.397 . S
C131 H106 0.950 . S
C131 C130 1.397 . S
C131 C132 1.391 . S
C132 C131 1.391 . S
C132 C133 1.405 . S
C133 H107 0.950 . S
C133 C132 1.405 . S
C133 C134 1.367 . S
C134 H108 0.950 . S
C134 C129 1.386 . S
C134 C133 1.367 . S
C135 C129 1.483 . S
C135 C136 1.382 . S
C135 C137 1.403 . S
C136 H109 0.950 . S
C136 C122 1.411 . S
C136 C135 1.382 . S
C137 C121 1.411 . S
C137 C135 1.403 . S
C137 C138 1.489 . S
C138 C137 1.489 . S
C138 C139 1.383 . S
C138 C143 1.382 . S
C139 H110 0.950 . S
C139 C138 1.383 . S
C139 C140 1.395 . S
C140 H111 0.950 . S
C140 C139 1.395 . S
C140 C141 1.288 . S
C141 C140 1.288 . S
C141 C142 1.392 . S
C142 H112 0.951 . S
C142 C141 1.392 . S
C142 C143 1.392 . S
C143 H113 0.949 . S
C143 C138 1.382 . S
C143 C142 1.392 . S
H144 C163 0.949 . S
H145 C164 0.950 . S
H146 C166 0.950 . S
H147 C167 0.950 . S
H148 C169 0.950 . S
H149 C172 0.950 . S
H150 C173 0.950 . S
H151 C175 0.951 . S
H152 C176 0.949 . S
H153 C178 0.949 . S
H154 C179 0.950 . S
H155 C181 0.950 . S
H156 C182 0.950 . S
H157 C184 0.950 . S
H158 C187 0.950 . S
H159 C188 0.950 . S
H160 C190 0.951 . S
H161 C191 0.949 . S
C162 C163 1.376 . S
C162 C167 1.386 . S
C162 C168 1.483 . S
C163 H144 0.949 . S
C163 C162 1.376 . S
C163 C164 1.397 . S
C164 H145 0.950 . S
C164 C163 1.397 . S
C164 C165 1.391 . S
C165 C164 1.391 . S
C165 C166 1.405 . S
C166 H146 0.950 . S
C166 C165 1.405 . S
C166 C167 1.367 . S
C167 H147 0.950 . S
C167 C162 1.386 . S
C167 C166 1.367 . S
C168 C162 1.483 . S
C168 C169 1.382 . S
C168 C170 1.403 . S
C169 H148 0.950 . S
C169 C168 1.382 . S
C169 C185 1.411 . S
C170 C168 1.403 . S
C170 C171 1.489 . S
C170 C184 1.411 . S
C171 C170 1.489 . S
C171 C172 1.383 . S
C171 C176 1.382 . S
C172 H149 0.950 . S
C172 C171 1.383 . S
C172 C173 1.395 . S
C173 H150 0.950 . S
C173 C172 1.395 . S
C173 C174 1.288 . S
C174 C173 1.288 . S
C174 C175 1.392 . S
C175 H151 0.951 . S
C175 C174 1.392 . S
C175 C176 1.392 . S
C176 H152 0.949 . S
C176 C171 1.382 . S
C176 C175 1.392 . S
C177 C178 1.376 . S
C177 C182 1.386 . S
C177 C183 1.483 . S
C178 H153 0.949 . S
C178 C177 1.376 . S
C178 C179 1.397 . S
C179 H154 0.950 . S
C179 C178 1.397 . S
C179 C180 1.391 . S
C180 C179 1.391 . S
C180 C181 1.405 . S
C181 H155 0.950 . S
C181 C180 1.405 . S
C181 C182 1.367 . S
C182 H156 0.950 . S
C182 C177 1.386 . S
C182 C181 1.367 . S
C183 C177 1.483 . S
C183 C184 1.382 . S
C183 C185 1.403 . S
C184 H157 0.950 . S
C184 C170 1.411 . S
C184 C183 1.382 . S
C185 C169 1.411 . S
C185 C183 1.403 . S
C185 C186 1.489 . S
C186 C185 1.489 . S
C186 C187 1.383 . S
C186 C191 1.382 . S
C187 H158 0.950 . S
C187 C186 1.383 . S
C187 C188 1.395 . S
C188 H159 0.950 . S
C188 C187 1.395 . S
C188 C189 1.288 . S
C189 C188 1.288 . S
C189 C190 1.392 . S
C190 H160 0.951 . S
C190 C189 1.392 . S
C190 C191 1.392 . S
C191 H161 0.949 . S
C191 C186 1.382 . S
C191 C190 1.392 . S
H192 C211 0.949 . S
H193 C212 0.950 . S
H194 C214 0.950 . S
H195 C215 0.950 . S
H196 C217 0.950 . S
H197 C220 0.950 . S
H198 C221 0.950 . S
H199 C223 0.951 . S
H200 C224 0.949 . S
H201 C226 0.949 . S
H202 C227 0.950 . S
H203 C229 0.950 . S
H204 C230 0.950 . S
H205 C232 0.950 . S
H206 C235 0.950 . S
H207 C236 0.950 . S
H208 C238 0.951 . S
H209 C239 0.949 . S
C210 C211 1.376 . S
C210 C215 1.386 . S
C210 C216 1.483 . S
C211 H192 0.949 . S
C211 C210 1.376 . S
C211 C212 1.397 . S
C212 H193 0.950 . S
C212 C211 1.397 . S
C212 C213 1.391 . S
C213 C212 1.391 . S
C213 C214 1.405 . S
C214 H194 0.950 . S
C214 C213 1.405 . S
C214 C215 1.367 . S
C215 H195 0.950 . S
C215 C210 1.386 . S
C215 C214 1.367 . S
C216 C210 1.483 . S
C216 C217 1.382 . S
C216 C218 1.403 . S
C217 H196 0.950 . S
C217 C216 1.382 . S
C217 C233 1.411 . S
C218 C216 1.403 . S
C218 C219 1.489 . S
C218 C232 1.411 . S
C219 C218 1.489 . S
C219 C220 1.383 . S
C219 C224 1.382 . S
C220 H197 0.950 . S
C220 C219 1.383 . S
C220 C221 1.395 . S
C221 H198 0.950 . S
C221 C220 1.395 . S
C221 C222 1.288 . S
C222 C221 1.288 . S
C222 C223 1.392 . S
C223 H199 0.951 . S
C223 C222 1.392 . S
C223 C224 1.392 . S
C224 H200 0.949 . S
C224 C219 1.382 . S
C224 C223 1.392 . S
C225 C226 1.376 . S
C225 C230 1.386 . S
C225 C231 1.483 . S
C226 H201 0.949 . S
C226 C225 1.376 . S
C226 C227 1.397 . S
C227 H202 0.950 . S
C227 C226 1.397 . S
C227 C228 1.391 . S
C228 C227 1.391 . S
C228 C229 1.405 . S
C229 H203 0.950 . S
C229 C228 1.405 . S
C229 C230 1.367 . S
C230 H204 0.950 . S
C230 C225 1.386 . S
C230 C229 1.367 . S
C231 C225 1.483 . S
C231 C232 1.382 . S
C231 C233 1.403 . S
C232 H205 0.950 . S
C232 C218 1.411 . S
C232 C231 1.382 . S
C233 C217 1.411 . S
C233 C231 1.403 . S
C233 C234 1.489 . S
C234 C233 1.489 . S
C234 C235 1.383 . S
C234 C239 1.382 . S
C235 H206 0.950 . S
C235 C234 1.383 . S
C235 C236 1.395 . S
C236 H207 0.950 . S
C236 C235 1.395 . S
C236 C237 1.288 . S
C237 C236 1.288 . S
C237 C238 1.392 . S
C238 H208 0.951 . S
C238 C237 1.392 . S
C238 C239 1.392 . S
C239 H209 0.949 . S
C239 C234 1.382 . S
C239 C238 1.392 . S
H240 C259 0.949 . S
H241 C260 0.950 . S
H242 C262 0.950 . S
H243 C263 0.950 . S
H244 C265 0.950 . S
H245 C268 0.950 . S
H246 C269 0.950 . S
H247 C271 0.951 . S
H248 C272 0.949 . S
H249 C274 0.949 . S
H250 C275 0.950 . S
H251 C277 0.950 . S
H252 C278 0.950 . S
H253 C280 0.950 . S
H254 C283 0.950 . S
H255 C284 0.950 . S
H256 C286 0.951 . S
H257 C287 0.949 . S
C258 C259 1.376 . S
C258 C263 1.386 . S
C258 C264 1.483 . S
C259 H240 0.949 . S
C259 C258 1.376 . S
C259 C260 1.397 . S
C260 H241 0.950 . S
C260 C259 1.397 . S
C260 C261 1.391 . S
C261 C260 1.391 . S
C261 C262 1.405 . S
C262 H242 0.950 . S
C262 C261 1.405 . S
C262 C263 1.367 . S
C263 H243 0.950 . S
C263 C258 1.386 . S
C263 C262 1.367 . S
C264 C258 1.483 . S
C264 C265 1.382 . S
C264 C266 1.403 . S
C265 H244 0.950 . S
C265 C264 1.382 . S
C265 C281 1.411 . S
C266 C264 1.403 . S
C266 C267 1.489 . S
C266 C280 1.411 . S
C267 C266 1.489 . S
C267 C268 1.383 . S
C267 C272 1.382 . S
C268 H245 0.950 . S
C268 C267 1.383 . S
C268 C269 1.395 . S
C269 H246 0.950 . S
C269 C268 1.395 . S
C269 C270 1.288 . S
C270 C269 1.288 . S
C270 C271 1.392 . S
C271 H247 0.951 . S
C271 C270 1.392 . S
C271 C272 1.392 . S
C272 H248 0.949 . S
C272 C267 1.382 . S
C272 C271 1.392 . S
C273 C274 1.376 . S
C273 C278 1.386 . S
C273 C279 1.483 . S
C274 H249 0.949 . S
C274 C273 1.376 . S
C274 C275 1.397 . S
C275 H250 0.950 . S
C275 C274 1.397 . S
C275 C276 1.391 . S
C276 C275 1.391 . S
C276 C277 1.405 . S
C277 H251 0.950 . S
C277 C276 1.405 . S
C277 C278 1.367 . S
C278 H252 0.950 . S
C278 C273 1.386 . S
C278 C277 1.367 . S
C279 C273 1.483 . S
C279 C280 1.382 . S
C279 C281 1.403 . S
C280 H253 0.950 . S
C280 C266 1.411 . S
C280 C279 1.382 . S
C281 C265 1.411 . S
C281 C279 1.403 . S
C281 C282 1.489 . S
C282 C281 1.489 . S
C282 C283 1.383 . S
C282 C287 1.382 . S
C283 H254 0.950 . S
C283 C282 1.383 . S
C283 C284 1.395 . S
C284 H255 0.950 . S
C284 C283 1.395 . S
C284 C285 1.288 . S
C285 C284 1.288 . S
C285 C286 1.392 . S
C286 H256 0.951 . S
C286 C285 1.392 . S
C286 C287 1.392 . S
C287 H257 0.949 . S
C287 C282 1.382 . S
C287 C286 1.392 . S
H288 C307 0.949 . S
H289 C308 0.950 . S
H290 C310 0.950 . S
H291 C311 0.950 . S
H292 C313 0.950 . S
H293 C316 0.950 . S
H294 C317 0.950 . S
H295 C319 0.951 . S
H296 C320 0.949 . S
H297 C322 0.949 . S
H298 C323 0.950 . S
H299 C325 0.950 . S
H300 C326 0.950 . S
H301 C328 0.950 . S
H302 C331 0.950 . S
H303 C332 0.950 . S
H304 C334 0.951 . S
H305 C335 0.949 . S
C306 C307 1.376 . S
C306 C311 1.386 . S
C306 C312 1.483 . S
C307 H288 0.949 . S
C307 C306 1.376 . S
C307 C308 1.397 . S
C308 H289 0.950 . S
C308 C307 1.397 . S
C308 C309 1.391 . S
C309 C308 1.391 . S
C309 C310 1.405 . S
C310 H290 0.950 . S
C310 C309 1.405 . S
C310 C311 1.367 . S
C311 H291 0.950 . S
C311 C306 1.386 . S
C311 C310 1.367 . S
C312 C306 1.483 . S
C312 C313 1.382 . S
C312 C314 1.403 . S
C313 H292 0.950 . S
C313 C312 1.382 . S
C313 C329 1.411 . S
C314 C312 1.403 . S
C314 C315 1.489 . S
C314 C328 1.411 . S
C315 C314 1.489 . S
C315 C316 1.383 . S
C315 C320 1.382 . S
C316 H293 0.950 . S
C316 C315 1.383 . S
C316 C317 1.395 . S
C317 H294 0.950 . S
C317 C316 1.395 . S
C317 C318 1.288 . S
C318 C317 1.288 . S
C318 C319 1.392 . S
C319 H295 0.951 . S
C319 C318 1.392 . S
C319 C320 1.392 . S
C320 H296 0.949 . S
C320 C315 1.382 . S
C320 C319 1.392 . S
C321 C322 1.376 . S
C321 C326 1.386 . S
C321 C327 1.483 . S
C322 H297 0.949 . S
C322 C321 1.376 . S
C322 C323 1.397 . S
C323 H298 0.950 . S
C323 C322 1.397 . S
C323 C324 1.391 . S
C324 C323 1.391 . S
C324 C325 1.405 . S
C325 H299 0.950 . S
C325 C324 1.405 . S
C325 C326 1.367 . S
C326 H300 0.950 . S
C326 C321 1.386 . S
C326 C325 1.367 . S
C327 C321 1.483 . S
C327 C328 1.382 . S
C327 C329 1.403 . S
C328 H301 0.950 . S
C328 C314 1.411 . S
C328 C327 1.382 . S
C329 C313 1.411 . S
C329 C327 1.403 . S
C329 C330 1.489 . S
C330 C329 1.489 . S
C330 C331 1.383 . S
C330 C335 1.382 . S
C331 H302 0.950 . S
C331 C330 1.383 . S
C331 C332 1.395 . S
C332 H303 0.950 . S
C332 C331 1.395 . S
C332 C333 1.288 . S
C333 C332 1.288 . S
C333 C334 1.392 . S
C334 H304 0.951 . S
C334 C333 1.392 . S
C334 C335 1.392 . S
C335 H305 0.949 . S
C335 C330 1.382 . S
C335 C334 1.392 . S
H336 C355 0.949 . S
H337 C356 0.950 . S
H338 C358 0.950 . S
H339 C359 0.950 . S
H340 C361 0.950 . S
H341 C364 0.950 . S
H342 C365 0.950 . S
H343 C367 0.951 . S
H344 C368 0.949 . S
H345 C370 0.949 . S
H346 C371 0.950 . S
H347 C373 0.950 . S
H348 C374 0.950 . S
H349 C376 0.950 . S
H350 C379 0.950 . S
H351 C380 0.950 . S
H352 C382 0.951 . S
H353 C383 0.949 . S
C354 C355 1.376 . S
C354 C359 1.386 . S
C354 C360 1.483 . S
C355 H336 0.949 . S
C355 C354 1.376 . S
C355 C356 1.397 . S
C356 H337 0.950 . S
C356 C355 1.397 . S
C356 C357 1.391 . S
C357 C356 1.391 . S
C357 C358 1.405 . S
C358 H338 0.950 . S
C358 C357 1.405 . S
C358 C359 1.367 . S
C359 H339 0.950 . S
C359 C354 1.386 . S
C359 C358 1.367 . S
C360 C354 1.483 . S
C360 C361 1.382 . S
C360 C362 1.403 . S
C361 H340 0.950 . S
C361 C360 1.382 . S
C361 C377 1.411 . S
C362 C360 1.403 . S
C362 C363 1.489 . S
C362 C376 1.411 . S
C363 C362 1.489 . S
C363 C364 1.383 . S
C363 C368 1.382 . S
C364 H341 0.950 . S
C364 C363 1.383 . S
C364 C365 1.395 . S
C365 H342 0.950 . S
C365 C364 1.395 . S
C365 C366 1.288 . S
C366 C365 1.288 . S
C366 C367 1.392 . S
C367 H343 0.951 . S
C367 C366 1.392 . S
C367 C368 1.392 . S
C368 H344 0.949 . S
C368 C363 1.382 . S
C368 C367 1.392 . S
C369 C370 1.376 . S
C369 C374 1.386 . S
C369 C375 1.483 . S
C370 H345 0.949 . S
C370 C369 1.376 . S
C370 C371 1.397 . S
C371 H346 0.950 . S
C371 C370 1.397 . S
C371 C372 1.391 . S
C372 C371 1.391 . S
C372 C373 1.405 . S
C373 H347 0.950 . S
C373 C372 1.405 . S
C373 C374 1.367 . S
C374 H348 0.950 . S
C374 C369 1.386 . S
C374 C373 1.367 . S
C375 C369 1.483 . S
C375 C376 1.382 . S
C375 C377 1.403 . S
C376 H349 0.950 . S
C376 C362 1.411 . S
C376 C375 1.382 . S
C377 C361 1.411 . S
C377 C375 1.403 . S
C377 C378 1.489 . S
C378 C377 1.489 . S
C378 C379 1.383 . S
C378 C383 1.382 . S
C379 H350 0.950 . S
C379 C378 1.383 . S
C379 C380 1.395 . S
C380 H351 0.950 . S
C380 C379 1.395 . S
C380 C381 1.288 . S
C381 C380 1.288 . S
C381 C382 1.392 . S
C382 H352 0.951 . S
C382 C381 1.392 . S
C382 C383 1.392 . S
C383 H353 0.949 . S
C383 C378 1.382 . S
C383 C382 1.392 . S
C384 O386 1.247 . S
C384 O388 1.258 . S
C385 O392 1.247 . S
C385 O393 1.258 . S
O386 C384 1.247 . S
O386 Zn387 2.029 . S
Zn387 O386 2.029 . S
Zn387 O391 2.034 1_655 S
Zn387 O393 2.034 1_655 S
Zn387 O394 2.029 . S
O388 C384 1.258 . S
O388 Zn389 2.026 1_655 S
Zn389 O388 2.026 1_455 S
Zn389 O390 2.037 . S
Zn389 O392 2.037 . S
Zn389 O395 2.026 1_455 S
O390 Zn389 2.037 . S
O390 C396 1.247 . S
O391 Zn387 2.034 1_455 S
O391 C396 1.258 . S
O392 C385 1.247 . S
O392 Zn389 2.037 . S
O393 C385 1.258 . S
O393 Zn387 2.034 1_455 S
O394 Zn387 2.029 . S
O394 C397 1.247 . S
O395 Zn389 2.026 1_655 S
O395 C397 1.258 . S
C396 O390 1.247 . S
C396 O391 1.258 . S
C397 O394 1.247 . S
C397 O395 1.258 . S
C398 O400 1.247 . S
C398 O402 1.258 . S
C399 O406 1.247 . S
C399 O407 1.258 . S
O400 C398 1.247 . S
O400 Zn401 2.040 . S
Zn401 O400 2.040 . S
Zn401 O405 2.023 1_545 S
Zn401 O407 2.023 1_545 S
Zn401 O408 2.040 . S
O402 C398 1.258 . S
O402 Zn403 2.036 1_545 S
Zn403 O402 2.036 1_565 S
Zn403 O404 2.027 . S
Zn403 O406 2.027 . S
Zn403 O409 2.036 1_565 S
O404 Zn403 2.027 . S
O404 C410 1.247 . S
O405 Zn401 2.023 1_565 S
O405 C410 1.258 . S
O406 C399 1.247 . S
O406 Zn403 2.027 . S
O407 C399 1.258 . S
O407 Zn401 2.023 1_565 S
O408 Zn401 2.040 . S
O408 C411 1.247 . S
O409 Zn403 2.036 1_545 S
O409 C411 1.258 . S
C410 O404 1.247 . S
C410 O405 1.258 . S
C411 O408 1.247 . S
C411 O409 1.258 . S
C412 O414 1.247 . S
C412 O416 1.258 . S
C413 O420 1.247 . S
C413 O421 1.258 . S
O414 C412 1.247 . S
O414 Zn415 2.029 . S
Zn415 O414 2.029 . S
Zn415 O419 2.034 1_655 S
Zn415 O421 2.034 1_655 S
Zn415 O422 2.029 . S
O416 C412 1.258 . S
O416 Zn417 2.025 1_655 S
Zn417 O416 2.025 1_455 S
Zn417 O418 2.038 . S
Zn417 O420 2.038 . S
Zn417 O423 2.025 1_455 S
O418 Zn417 2.038 . S
O418 C424 1.247 . S
O419 Zn415 2.034 1_455 S
O419 C424 1.258 . S
O420 C413 1.247 . S
O420 Zn417 2.038 . S
O421 C413 1.258 . S
O421 Zn415 2.034 1_455 S
O422 Zn415 2.029 . S
O422 C425 1.247 . S
O423 Zn417 2.025 1_655 S
O423 C425 1.258 . S
C424 O418 1.247 . S
C424 O419 1.258 . S
C425 O422 1.247 . S
C425 O423 1.258 . S
C426 O428 1.247 . S
C426 O430 1.258 . S
C427 O434 1.247 . S
C427 O435 1.258 . S
O428 C426 1.247 . S
O428 Zn429 2.040 . S
Zn429 O428 2.040 . S
Zn429 O433 2.023 1_545 S
Zn429 O435 2.023 1_545 S
Zn429 O436 2.040 . S
O430 C426 1.258 . S
O430 Zn431 2.037 1_545 S
Zn431 O430 2.037 1_565 S
Zn431 O432 2.026 . S
Zn431 O434 2.026 . S
Zn431 O437 2.037 1_565 S
O432 Zn431 2.026 . S
O432 C438 1.247 . S
O433 Zn429 2.023 1_565 S
O433 C438 1.258 . S
O434 C427 1.247 . S
O434 Zn431 2.026 . S
O435 C427 1.258 . S
O435 Zn429 2.023 1_565 S
O436 Zn429 2.040 . S
O436 C439 1.247 . S
O437 Zn431 2.037 1_545 S
O437 C439 1.258 . S
C438 O432 1.247 . S
C438 O433 1.258 . S
C439 O436 1.247 . S
C439 O437 1.258 . S
C440 O442 1.247 . S
C440 O444 1.258 . S
C441 O448 1.247 . S
C441 O449 1.258 . S
O442 C440 1.247 . S
O442 Zn443 2.028 . S
Zn443 O442 2.028 . S
Zn443 O447 2.035 . S
Zn443 O449 2.035 1_554 S
Zn443 O450 2.028 1_554 S
O444 C440 1.258 . S
O444 Zn445 2.035 . S
Zn445 O444 2.035 . S
Zn445 O446 2.028 . S
Zn445 O448 2.028 1_554 S
Zn445 O451 2.035 1_554 S
O446 Zn445 2.028 . S
O446 C452 1.247 . S
O447 Zn443 2.035 . S
O447 C452 1.258 . S
O448 C441 1.247 . S
O448 Zn445 2.028 1_556 S
O449 C441 1.258 . S
O449 Zn443 2.035 1_556 S
O450 Zn443 2.028 1_556 S
O450 C453 1.247 . S
O451 Zn445 2.035 1_556 S
O451 C453 1.258 . S
C452 O446 1.247 . S
C452 O447 1.258 . S
C453 O450 1.247 . S
C453 O451 1.258 . S
C454 O456 1.247 . S
C454 O458 1.258 . S
C455 O462 1.247 . S
C455 O463 1.258 . S
O456 C454 1.247 . S
O456 Zn457 2.028 . S
Zn457 O456 2.028 . S
Zn457 O461 2.035 . S
Zn457 O463 2.035 1_554 S
Zn457 O464 2.028 1_554 S
O458 C454 1.258 . S
O458 Zn459 2.035 . S
Zn459 O458 2.035 . S
Zn459 O460 2.028 . S
Zn459 O462 2.028 1_554 S
Zn459 O465 2.035 1_554 S
O460 Zn459 2.028 . S
O460 C466 1.247 . S
O461 Zn457 2.035 . S
O461 C466 1.258 . S
O462 C455 1.247 . S
O462 Zn459 2.028 1_556 S
O463 C455 1.258 . S
O463 Zn457 2.035 1_556 S
O464 Zn457 2.028 1_556 S
O464 C467 1.247 . S
O465 Zn459 2.035 1_556 S
O465 C467 1.258 . S
C466 O460 1.247 . S
C466 O461 1.258 . S
C467 O464 1.247 . S
C467 O465 1.258 . S
C468 O470 1.247 . S
C468 O472 1.258 . S
C469 O476 1.247 . S
C469 O477 1.258 . S
O470 C468 1.247 . S
O470 Zn471 2.028 1_556 S
Zn471 O470 2.028 1_554 S
Zn471 O475 2.035 1_554 S
Zn471 O477 2.035 . S
Zn471 O478 2.028 . S
O472 C468 1.258 . S
O472 Zn473 2.035 1_556 S
Zn473 O472 2.035 1_554 S
Zn473 O474 2.028 1_554 S
Zn473 O476 2.028 . S
Zn473 O479 2.035 . S
O474 Zn473 2.028 1_556 S
O474 C480 1.247 . S
O475 Zn471 2.035 1_556 S
O475 C480 1.258 . S
O476 C469 1.247 . S
O476 Zn473 2.028 . S
O477 C469 1.258 . S
O477 Zn471 2.035 . S
O478 Zn471 2.028 . S
O478 C481 1.247 . S
O479 Zn473 2.035 . S
O479 C481 1.258 . S
C480 O474 1.247 . S
C480 O475 1.258 . S
C481 O478 1.247 . S
C481 O479 1.258 . S
C482 O484 1.247 . S
C482 O486 1.258 . S
C483 O490 1.247 . S
C483 O491 1.258 . S
O484 C482 1.247 . S
O484 Zn485 2.028 . S
Zn485 O484 2.028 . S
Zn485 O489 2.035 . S
Zn485 O491 2.035 1_554 S
Zn485 O492 2.028 1_554 S
O486 C482 1.258 . S
O486 Zn487 2.035 . S
Zn487 O486 2.035 . S
Zn487 O488 2.028 . S
Zn487 O490 2.028 1_554 S
Zn487 O493 2.035 1_554 S
O488 Zn487 2.028 . S
O488 C494 1.247 . S
O489 Zn485 2.035 . S
O489 C494 1.258 . S
O490 C483 1.247 . S
O490 Zn487 2.028 1_556 S
O491 C483 1.258 . S
O491 Zn485 2.035 1_556 S
O492 Zn485 2.028 1_556 S
O492 C495 1.247 . S
O493 Zn487 2.035 1_556 S
O493 C495 1.258 . S
C494 O488 1.247 . S
C494 O489 1.258 . S
C495 O492 1.247 . S
C495 O493 1.258 . S
C385 C36 1.507 . S
C411 C93 1.498 . S
C425 C132 1.507 . S
C427 C174 1.496 . S
C213 C424 1.507 . S
C426 C285 1.498 . S
C384 C324 1.508 . S
C410 C366 1.497 . S
C412 C357 1.507 . S
C438 C222 1.498 . S
C396 C276 1.506 . S
C398 C333 1.496 . S
C397 C84 1.507 . S
C399 C141 1.497 . S
C413 C165 1.508 . S
C439 C45 1.498 . S
C441 C372 1.507 . S
C237 C467 1.498 . S
C261 C480 1.508 . S
C318 C483 1.497 . S
C69 C481 1.506 . S
C126 C482 1.497 . S
C180 C440 1.507 . S
C466 C30 1.497 . S
C469 C21 1.507 . S
C78 C494 1.497 . S
C117 C452 1.506 . S
C189 C454 1.496 . S
C453 C228 1.508 . S
C455 C270 1.499 . S
C309 C468 1.507 . S
C495 C381 1.498 . S
