# Generated by pormake.
# Topology ptr, (4,4)-cn, num edge types: 1
# Building blocks:
#     Node 0, Type 0, BuildingBlock: AZAVOO_clean_sbu_0, # of connection points: 4
#     Node 1, Type 0, BuildingBlock: AZAVOO_clean_sbu_0, # of connection points: 4
#     Node 2, Type 0, BuildingBlock: AZAVOO_clean_sbu_0, # of connection points: 4
#     Node 3, Type 0, BuildingBlock: AZAVOO_clean_sbu_0, # of connection points: 4
#     Node 4, Type 0, BuildingBlock: AZAVOO_clean_sbu_0, # of connection points: 4
#     Node 5, Type 0, BuildingBlock: AZAVOO_clean_sbu_0, # of connection points: 4
#     Node 6, Type 0, BuildingBlock: AZAVOO_clean_sbu_0, # of connection points: 4
#     Node 7, Type 0, BuildingBlock: AZAVOO_clean_sbu_0, # of connection points: 4
#     Node 8, Type 0, BuildingBlock: AZAVOO_clean_sbu_0, # of connection points: 4
#     Node 9, Type 0, BuildingBlock: AZAVOO_clean_sbu_0, # of connection points: 4
#     Node 10, Type 0, BuildingBlock: AZAVOO_clean_sbu_0, # of connection points: 4
#     Node 11, Type 0, BuildingBlock: AZAVOO_clean_sbu_0, # of connection points: 4
#     Node 12, Type 0, BuildingBlock: AZAVOO_clean_sbu_0, # of connection points: 4
#     Node 13, Type 0, BuildingBlock: AZAVOO_clean_sbu_0, # of connection points: 4
#     Node 14, Type 0, BuildingBlock: AZAVOO_clean_sbu_0, # of connection points: 4
#     Node 15, Type 0, BuildingBlock: AZAVOO_clean_sbu_0, # of connection points: 4
#     Node 16, Type 0, BuildingBlock: AZAVOO_clean_sbu_0, # of connection points: 4
#     Node 17, Type 0, BuildingBlock: AZAVOO_clean_sbu_0, # of connection points: 4
#     Node 18, Type 1, BuildingBlock: MIFKUJ_clean_linker_1, # of connection points: 4
#     Node 19, Type 1, BuildingBlock: MIFKUJ_clean_linker_1, # of connection points: 4
#     Node 20, Type 1, BuildingBlock: MIFKUJ_clean_linker_1, # of connection points: 4
#     Node 21, Type 1, BuildingBlock: MIFKUJ_clean_linker_1, # of connection points: 4
#     Node 22, Type 1, BuildingBlock: MIFKUJ_clean_linker_1, # of connection points: 4
#     Node 23, Type 1, BuildingBlock: MIFKUJ_clean_linker_1, # of connection points: 4
#     Node 24, Type 1, BuildingBlock: MIFKUJ_clean_linker_1, # of connection points: 4
#     Node 25, Type 1, BuildingBlock: MIFKUJ_clean_linker_1, # of connection points: 4
#     Node 26, Type 1, BuildingBlock: MIFKUJ_clean_linker_1, # of connection points: 4
#     Node 27, Type 1, BuildingBlock: MIFKUJ_clean_linker_1, # of connection points: 4
#     Node 28, Type 1, BuildingBlock: MIFKUJ_clean_linker_1, # of connection points: 4
#     Node 29, Type 1, BuildingBlock: MIFKUJ_clean_linker_1, # of connection points: 4
#     Node 30, Type 1, BuildingBlock: MIFKUJ_clean_linker_1, # of connection points: 4
#     Node 31, Type 1, BuildingBlock: MIFKUJ_clean_linker_1, # of connection points: 4
#     Node 32, Type 1, BuildingBlock: MIFKUJ_clean_linker_1, # of connection points: 4
#     Node 33, Type 1, BuildingBlock: MIFKUJ_clean_linker_1, # of connection points: 4
#     Node 34, Type 1, BuildingBlock: MIFKUJ_clean_linker_1, # of connection points: 4
#     Node 35, Type 1, BuildingBlock: MIFKUJ_clean_linker_1, # of connection points: 4
#     Edge 36, Type (0, 1), None
#     Edge 37, Type (0, 1), None
#     Edge 38, Type (0, 1), None
#     Edge 39, Type (0, 1), None
#     Edge 40, Type (0, 1), None
#     Edge 41, Type (0, 1), None
#     Edge 42, Type (0, 1), None
#     Edge 43, Type (0, 1), None
#     Edge 44, Type (0, 1), None
#     Edge 45, Type (0, 1), None
#     Edge 46, Type (0, 1), None
#     Edge 47, Type (0, 1), None
#     Edge 48, Type (0, 1), None
#     Edge 49, Type (0, 1), None
#     Edge 50, Type (0, 1), None
#     Edge 51, Type (0, 1), None
#     Edge 52, Type (0, 1), None
#     Edge 53, Type (0, 1), None
#     Edge 54, Type (0, 1), None
#     Edge 55, Type (0, 1), None
#     Edge 56, Type (0, 1), None
#     Edge 57, Type (0, 1), None
#     Edge 58, Type (0, 1), None
#     Edge 59, Type (0, 1), None
#     Edge 60, Type (0, 1), None
#     Edge 61, Type (0, 1), None
#     Edge 62, Type (0, 1), None
#     Edge 63, Type (0, 1), None
#     Edge 64, Type (0, 1), None
#     Edge 65, Type (0, 1), None
#     Edge 66, Type (0, 1), None
#     Edge 67, Type (0, 1), None
#     Edge 68, Type (0, 1), None
#     Edge 69, Type (0, 1), None
#     Edge 70, Type (0, 1), None
#     Edge 71, Type (0, 1), None
#     Edge 72, Type (0, 1), None
#     Edge 73, Type (0, 1), None
#     Edge 74, Type (0, 1), None
#     Edge 75, Type (0, 1), None
#     Edge 76, Type (0, 1), None
#     Edge 77, Type (0, 1), None
#     Edge 78, Type (0, 1), None
#     Edge 79, Type (0, 1), None
#     Edge 80, Type (0, 1), None
#     Edge 81, Type (0, 1), None
#     Edge 82, Type (0, 1), None
#     Edge 83, Type (0, 1), None
#     Edge 84, Type (0, 1), None
#     Edge 85, Type (0, 1), None
#     Edge 86, Type (0, 1), None
#     Edge 87, Type (0, 1), None
#     Edge 88, Type (0, 1), None
#     Edge 89, Type (0, 1), None
#     Edge 90, Type (0, 1), None
#     Edge 91, Type (0, 1), None
#     Edge 92, Type (0, 1), None
#     Edge 93, Type (0, 1), None
#     Edge 94, Type (0, 1), None
#     Edge 95, Type (0, 1), None
#     Edge 96, Type (0, 1), None
#     Edge 97, Type (0, 1), None
#     Edge 98, Type (0, 1), None
#     Edge 99, Type (0, 1), None
#     Edge 100, Type (0, 1), None
#     Edge 101, Type (0, 1), None
#     Edge 102, Type (0, 1), None
#     Edge 103, Type (0, 1), None
#     Edge 104, Type (0, 1), None
#     Edge 105, Type (0, 1), None
#     Edge 106, Type (0, 1), None
#     Edge 107, Type (0, 1), None
# Relax obj value: 0.078
# Max RMSD: 0.285
# Mean RMSD: 0.124
data_MOF--net-ptr--node1-AZAVOO_clean_sbu_0--node2-MIFKUJ_clean_linker_1--edge1-none
_symmetry_space_group_name_H-M    P1
_symmetry_Int_Tables_number       1
_symmetry_cell_setting            triclinic
loop_
_symmetry_equiv_pos_as_xyz
'x, y, z'
_cell_length_a     49.922156
_cell_length_b     48.914439
_cell_length_c     31.395845
_cell_angle_alpha  91.604297
_cell_angle_beta   92.581479
_cell_angle_gamma 119.81498
loop_
_atom_site_label
_atom_site_type_symbol
_atom_site_fract_x
_atom_site_fract_y
_atom_site_fract_z
_atom_type_partial_charge
Mg0 Mg 0.00892 0.34239 1.00074 0.0
O1 O 0.98695 0.35987 0.05111 0.0
O2 O 0.94919 0.36361 0.01545 0.0
Mg3 Mg 0.94704 0.35032 0.94487 0.0
C4 C 0.965 0.36633 0.05001 0.0
C5 C 0.04259 0.3099 0.04296 0.0
O6 O 0.03381 0.29542 1.00479 0.0
O7 O 0.96716 0.29181 0.99554 0.0
O8 O 0.93192 0.29932 0.95934 0.0
O9 O 0.04183 0.39278 0.98691 0.0
O10 O -0.00396 0.3634 0.95295 0.0
C11 C 0.9402 0.28129 0.97709 0.0
C12 C 0.02082 0.39047 0.95895 0.0
O13 O 0.03487 0.33038 0.05275 0.0
Mg14 Mg 0.65896 0.63781 0.06531 0.0
O15 O 0.62124 0.62459 1.01069 0.0
O16 O 0.58064 0.62352 0.03944 0.0
Mg17 Mg 0.59129 0.6342 0.11136 0.0
C18 C 0.59389 0.62059 1.00722 0.0
C19 C 0.70114 0.66743 0.98764 0.0
O20 O 0.68651 0.68345 0.98416 0.0
O21 O 0.67059 0.68925 0.0708 0.0
O22 O 0.62893 0.68474 0.10105 0.0
O23 O 0.63947 0.5868 0.07765 0.0
O24 O 0.62546 0.6182 0.10928 0.0
C25 C 0.65551 0.7014 0.08661 0.0
C26 C 0.62193 0.5904 0.10373 0.0
O27 O 0.69461 0.64788 0.01666 0.0
Mg28 Mg 0.32384 0.96496 0.97535 0.0
O29 O 0.36003 0.98769 0.03222 0.0
O30 O 0.40364 0.02619 1.00849 0.0
Mg31 Mg 0.39642 0.02648 0.93609 0.0
C32 C 0.38802 0.01002 0.03871 0.0
C33 C 0.28093 0.95687 0.05112 0.0
O34 O 0.29706 0.98784 0.05492 0.0
O35 O 0.31702 0.00742 0.97095 0.0
O36 O 0.36114 0.04268 0.944 0.0
O37 O 0.33996 0.93041 0.9622 0.0
O38 O 0.35879 0.97714 0.93458 0.0
C39 C 0.33433 0.03441 0.95658 0.0
C40 C 0.35995 0.95175 0.93923 0.0
O41 O 0.28644 0.94203 0.02206 0.0
Mg42 Mg 0.97537 0.64683 0.04673 0.0
O43 O -0.00196 0.62986 0.99699 0.0
O44 O 0.03609 0.62691 0.03314 0.0
Mg45 Mg 0.03771 0.6403 0.10353 0.0
C46 C 0.02029 0.62384 0.99843 0.0
C47 C 0.94308 0.67998 1.00353 0.0
O48 O 0.95254 0.69497 0.04135 0.0
O49 O 0.01647 0.69753 0.05189 0.0
O50 O 0.05216 0.69109 0.08871 0.0
O51 O 0.94289 0.5964 0.0605 0.0
O52 O 0.98846 0.62635 0.09484 0.0
C53 C 0.04341 0.70862 0.07056 0.0
C54 C 0.96393 0.59908 0.08872 0.0
O55 O 0.9497 0.65861 0.99428 0.0
Mg56 Mg 0.33002 0.35253 0.9835 0.0
O57 O 0.36745 0.36658 0.03878 0.0
O58 O 0.40876 0.36876 1.01074 0.0
Mg59 Mg 0.39894 0.35811 0.93878 0.0
C60 C 0.39502 0.37122 0.04269 0.0
C61 C 0.28647 0.32223 0.06018 0.0
O62 O 0.30082 0.30599 0.06441 0.0
O63 O 0.31978 0.30147 0.97872 0.0
O64 O 0.36213 0.30725 0.94914 0.0
O65 O 0.34849 0.40336 0.97097 0.0
O66 O 0.36384 0.37285 0.94007 0.0
C67 C 0.3356 0.28999 0.9634 0.0
C68 C 0.36661 0.40035 0.94538 0.0
O69 O 0.29364 0.34189 0.03122 0.0
Mg70 Mg 0.65374 0.01448 0.06183 0.0
O71 O 0.61835 0.98969 1.00422 0.0
O72 O 0.57728 0.9479 0.02766 0.0
Mg73 Mg 0.58505 0.94655 0.09936 0.0
C74 C 0.59145 0.96541 0.99763 0.0
C75 C 0.69784 0.02892 0.98667 0.0
O76 O 0.68332 -0.00201 0.98143 0.0
O77 O 0.66716 0.97636 0.0653 0.0
O78 O 0.62475 0.93728 0.09102 0.0
O79 O 0.63173 0.04363 0.07673 0.0
O80 O 0.6186 -0.00241 0.10324 0.0
C81 C 0.65218 0.94875 0.07904 0.0
C82 C 0.61399 0.02108 0.10025 0.0
O83 O 0.69067 0.04194 0.0162 0.0
Mg84 Mg 0.68065 0.67573 0.33284 0.0
O85 O 0.65782 0.69226 0.38285 0.0
O86 O 0.62027 0.69613 0.34676 0.0
Mg87 Mg 0.6191 0.68368 0.27613 0.0
C88 C 0.63573 0.6985 0.38153 0.0
C89 C 0.71261 0.64195 0.3757 0.0
O90 O 0.70353 0.62733 0.33763 0.0
O91 O 0.63917 0.62513 0.32654 0.0
O92 O 0.60404 0.63263 0.29007 0.0
O93 O 0.71356 0.7264 0.32033 0.0
O94 O 0.66818 0.69714 0.28523 0.0
C95 C 0.61233 0.6146 0.30778 0.0
C96 C 0.6928 0.72427 0.29206 0.0
O97 O 0.70582 0.66317 0.38516 0.0
Mg98 Mg 0.3183 0.97943 0.39498 0.0
O99 O 0.28074 0.96403 0.34001 0.0
O100 O 0.23852 0.96008 0.36726 0.0
Mg101 Mg 0.24824 0.97058 0.43948 0.0
C102 C 0.25283 0.95827 0.3356 0.0
C103 C 0.35345 0.97247 0.3204 0.0
O104 O 0.3317 0.94289 0.32248 0.0
O105 O 0.32635 0.02935 0.40032 0.0
O106 O 0.28391 0.02235 0.43082 0.0
O107 O 0.30192 0.92886 0.40719 0.0
O108 O 0.28487 0.95774 0.43851 0.0
C109 C 0.3103 0.04019 0.41652 0.0
C110 C 0.28335 0.93082 0.43303 0.0
O111 O 0.35423 0.99331 0.34623 0.0
Mg112 Mg -0.00917 0.29764 0.31362 0.0
O113 O 0.02782 0.32326 0.36927 0.0
O114 O 0.06999 0.36138 0.34197 0.0
Mg115 Mg 0.06147 0.35856 0.26953 0.0
C116 C 0.05549 0.34649 0.37371 0.0
C117 C 0.94879 0.28979 0.39048 0.0
O118 O 0.96398 0.32078 0.3936 0.0
O119 O 0.98241 0.339 0.30703 0.0
O120 O 0.02557 0.37377 0.2775 0.0
O121 O 0.00811 0.26384 0.30273 0.0
O122 O 0.02491 0.3092 0.27181 0.0
C123 C -0.00096 0.36555 0.29108 0.0
C124 C 0.0271 0.28457 0.27817 0.0
O125 O 0.9546 0.27516 0.36152 0.0
Mg126 Mg 0.64565 0.97781 0.37944 0.0
O127 O 0.66786 0.96163 0.32742 0.0
O128 O 0.70622 0.95856 0.36252 0.0
Mg129 Mg 0.70833 0.97045 0.43362 0.0
C130 C 0.6903 0.95587 0.32807 0.0
C131 C 0.58989 0.97681 0.33191 0.0
O132 O 0.57726 0.95503 0.35969 0.0
O133 O 0.6867 0.02858 0.38589 0.0
O134 O 0.72253 0.02165 0.42146 0.0
O135 O 0.61329 0.92706 0.39232 0.0
O136 O 0.65916 0.95656 0.42592 0.0
C137 C 0.71364 0.03948 0.40453 0.0
C138 C 0.63447 0.92944 0.41998 0.0
O139 O 0.61914 0.99093 0.32985 0.0
Mg140 Mg -0.0028 0.68477 0.31442 0.0
O141 O 0.03508 0.69954 0.36922 0.0
O142 O 0.07637 0.70192 0.3409 0.0
Mg143 Mg 0.06599 0.69059 0.26904 0.0
C144 C 0.06277 0.70451 0.37293 0.0
C145 C 0.95463 0.65445 0.39185 0.0
O146 O 0.96941 0.6386 0.39561 0.0
O147 O 0.98737 0.63389 0.30997 0.0
O148 O 0.02952 0.6396 0.2799 0.0
O149 O 0.01505 0.73538 0.3012 0.0
O150 O 0.03063 0.70505 0.27037 0.0
C151 C 0.00311 0.62238 0.29451 0.0
C152 C 0.03308 0.73243 0.27537 0.0
O153 O 0.9612 0.674 0.36283 0.0
Mg154 Mg 0.32829 0.36639 0.40305 0.0
O155 O 0.291 0.34021 0.34784 0.0
O156 O 0.2488 0.30283 0.37601 0.0
Mg157 Mg 0.25758 0.30662 0.44849 0.0
C158 C 0.26324 0.31712 0.34389 0.0
C159 C 0.3696 0.37211 0.3263 0.0
O160 O 0.35341 0.34113 0.32398 0.0
O161 O 0.33625 0.32482 0.41095 0.0
O162 O 0.29299 0.29075 0.44096 0.0
O163 O 0.31117 0.40053 0.41311 0.0
O164 O 0.29455 0.35566 0.44519 0.0
C165 C 0.31942 0.29851 0.42736 0.0
C166 C 0.2924 0.38024 0.43833 0.0
O167 O 0.3645 0.38772 0.35469 0.0
Mg168 Mg 0.3435 0.01342 0.66401 0.0
O169 O 0.32131 0.02983 0.71537 0.0
O170 O 0.28278 0.03286 0.68077 0.0
Mg171 Mg 0.28034 0.0201 0.60994 0.0
C172 C 0.29901 0.03577 0.71497 0.0
C173 C 0.37625 0.97971 0.70477 0.0
O174 O 0.36626 0.96498 0.66684 0.0
O175 O 0.3025 0.96252 0.65825 0.0
O176 O 0.26636 0.96916 0.62307 0.0
O177 O 0.37557 0.06416 0.65081 0.0
O178 O 0.32971 0.03434 0.61721 0.0
C179 C 0.27541 0.95149 0.64007 0.0
C180 C 0.35418 0.06165 0.62339 0.0
O181 O 0.36989 0.00114 0.715 0.0
Mg182 Mg 0.98809 0.30599 0.73389 0.0
O183 O 0.95065 0.29151 0.67856 0.0
O184 O 0.90927 0.28957 0.70596 0.0
Mg185 Mg 0.91922 0.30108 0.77781 0.0
C186 C 0.92305 0.28676 0.6743 0.0
C187 C 0.03106 0.33589 0.65698 0.0
O188 O 0.01619 0.35163 0.65287 0.0
O189 O -0.00153 0.35703 0.73794 0.0
O190 O 0.9562 0.35184 0.76704 0.0
O191 O 0.96948 0.2553 0.74736 0.0
O192 O 0.95429 0.28621 0.77745 0.0
C193 C 0.98281 0.36882 0.75285 0.0
C194 C 0.95143 0.25864 0.77273 0.0
O195 O 0.02439 0.31638 0.68606 0.0
Mg196 Mg 0.65812 0.62646 0.64528 0.0
O197 O 0.69564 0.65272 0.70009 0.0
O198 O 0.73765 0.69016 0.67161 0.0
Mg199 Mg 0.72842 0.6864 0.59925 0.0
C200 C 0.7234 0.67581 0.70382 0.0
C201 C 0.61729 0.62068 0.72276 0.0
O202 O 0.63352 0.65166 0.72521 0.0
O203 O 0.64996 0.66793 0.6378 0.0
O204 O 0.69299 0.70224 0.60756 0.0
O205 O 0.67529 0.59241 0.63522 0.0
O206 O 0.6918 0.63719 0.60291 0.0
C207 C 0.66662 0.69433 0.62151 0.0
C208 C 0.69407 0.6127 0.61001 0.0
O209 O 0.62216 0.60512 0.69404 0.0
Mg210 Mg 0.30692 0.31676 0.71814 0.0
O211 O 0.32962 0.3003 0.66786 0.0
O212 O 0.36765 0.29687 0.70328 0.0
Mg213 Mg 0.36949 0.30985 0.77385 0.0
C214 C 0.3518 0.29418 0.66878 0.0
C215 C 0.27407 0.3498 0.67515 0.0
O216 O 0.28318 0.36461 0.7131 0.0
O217 O 0.3481 0.36761 0.72369 0.0
O218 O 0.38383 0.36061 0.75941 0.0
O219 O 0.2747 0.26601 0.73139 0.0
O220 O 0.32025 0.29594 0.76571 0.0
C221 C 0.37516 0.3784 0.74189 0.0
C222 C 0.29586 0.26859 0.7593 0.0
O223 O 0.28104 0.32869 0.66587 0.0
Mg224 Mg 0.66289 0.01352 0.64698 0.0
O225 O 0.69965 0.02865 0.70354 0.0
O226 O 0.74181 0.03164 0.67727 0.0
Mg227 Mg 0.73316 0.02034 0.60533 0.0
C228 C 0.72744 0.03402 0.70849 0.0
C229 C 0.6165 0.98145 0.72047 0.0
O230 O 0.62959 0.96396 0.72411 0.0
O231 O 0.65367 0.96284 0.64307 0.0
O232 O 0.69673 0.96919 0.61515 0.0
O233 O 0.68061 0.06405 0.63375 0.0
O234 O 0.69736 0.03419 0.60455 0.0
C235 C 0.66998 0.95166 0.62864 0.0
C236 C 0.69946 0.06143 0.60916 0.0
O237 O 0.62545 0.0024 0.69313 0.0
Mg238 Mg -0.00276 0.69439 0.73444 0.0
O239 O 0.95992 0.66835 0.67923 0.0
O240 O 0.91786 0.6307 0.70735 0.0
Mg241 Mg 0.92679 0.63407 0.77974 0.0
C242 C 0.93217 0.64523 0.67529 0.0
C243 C 0.03932 0.70183 0.65738 0.0
O244 O 0.02423 0.67082 0.65448 0.0
O245 O 0.0056 0.65297 0.74167 0.0
O246 O 0.9625 0.61859 0.77172 0.0
O247 O 0.98001 0.72832 0.7447 0.0
O248 O 0.96333 0.68333 0.77652 0.0
C249 C 0.98894 0.62657 0.75798 0.0
C250 C 0.96108 0.70787 0.7696 0.0
O251 O 0.03339 0.71648 0.68616 0.0
H252 H 0.13051 0.32713 0.25791 0.0
H253 H 0.08767 0.32549 0.29466 0.0
H254 H 0.0234 0.23941 0.22185 0.0
H255 H 0.06657 0.24127 0.18427 0.0
H256 H 0.1498 0.2832 0.25261 0.0
H257 H 0.10854 0.33382 0.16526 0.0
H258 H 0.07117 0.34061 0.12039 0.0
H259 H 0.06141 0.26653 0.03172 0.0
H260 H 0.0983 0.25946 0.07718 0.0
H261 H 0.21248 0.26457 0.15558 0.0
H262 H 0.25723 0.27511 0.11525 0.0
H263 H 0.2582 0.35738 0.06649 0.0
H264 H 0.21419 0.34716 0.10733 0.0
H265 H 0.15864 0.30147 0.09822 0.0
H266 H 0.17778 0.24975 0.25454 0.0
H267 H 0.21327 0.26056 0.3169 0.0
H268 H 0.27344 0.35416 0.27574 0.0
H269 H 0.2373 0.3435 0.21385 0.0
C270 C 0.10151 0.28449 0.21821 0.0
C271 C 0.10726 0.3077 0.25018 0.0
C272 C 0.08291 0.30674 0.27114 0.0
C273 C 0.05259 0.28224 0.26102 0.0
C274 C 0.04683 0.25822 0.23036 0.0
C275 C 0.07126 0.25945 0.20873 0.0
C276 C 0.12757 0.28714 0.19496 0.0
C277 C 0.15171 0.28663 0.21863 0.0
C278 C 0.12994 0.29266 0.15103 0.0
C279 C 0.10601 0.2958 0.12495 0.0
C280 C 0.09786 0.31855 0.13664 0.0
C281 C 0.07657 0.32255 0.11079 0.0
C282 C 0.06325 0.30414 0.07238 0.0
C283 C 0.07119 0.28115 0.06104 0.0
C284 C 0.09236 0.27709 0.08698 0.0
C285 C 0.20991 0.30503 0.1344 0.0
C286 C 0.2227 0.28516 0.13676 0.0
C287 C 0.24819 0.29114 0.11357 0.0
C288 C 0.26107 0.31691 0.08738 0.0
C289 C 0.24866 0.33714 0.08601 0.0
C290 C 0.22343 0.33129 0.10931 0.0
C291 C 0.18155 0.29786 0.1561 0.0
C292 C 0.15669 0.29723 0.13197 0.0
C293 C 0.17894 0.29241 0.20014 0.0
C294 C 0.20473 0.29583 0.22956 0.0
C295 C 0.19905 0.27229 0.25823 0.0
C296 C 0.21929 0.27856 0.29401 0.0
C297 C 0.24585 0.30841 0.30162 0.0
C298 C 0.25313 0.33094 0.27074 0.0
C299 C 0.23257 0.32479 0.23513 0.0
H300 H 0.75017 0.92368 0.25713 0.0
H301 H 0.74342 0.95587 0.3116 0.0
H302 H 0.65064 0.92342 0.25783 0.0
H303 H 0.65743 0.89078 0.20355 0.0
H304 H 0.71369 0.85941 0.25507 0.0
H305 H 0.73189 0.94131 0.14762 0.0
H306 H 0.71141 0.97207 0.1124 0.0
H307 H 0.62763 0.88566 0.0713 0.0
H308 H 0.64789 0.85528 0.10617 0.0
H309 H 0.64843 0.79098 0.10656 0.0
H310 H 0.62838 0.73708 0.07743 0.0
H311 H 0.71525 0.74259 0.11508 0.0
H312 H 0.73521 0.79669 0.14527 0.0
H313 H 0.69608 0.84869 0.09736 0.0
H314 H 0.65662 0.77201 0.19821 0.0
H315 H 0.6511 0.72706 0.23564 0.0
H316 H 0.74307 0.78431 0.29633 0.0
H317 H 0.74922 0.82923 0.25606 0.0
C318 C 0.70443 0.90482 0.22602 0.0
C319 C 0.72864 0.92407 0.25633 0.0
C320 C 0.7247 0.94247 0.28753 0.0
C321 C 0.69636 0.94207 0.28935 0.0
C322 C 0.67282 0.9245 0.25719 0.0
C323 C 0.67674 0.90585 0.226 0.0
C324 C 0.70661 0.88042 0.19926 0.0
C325 C 0.71078 0.85766 0.22046 0.0
C326 C 0.70116 0.87693 0.15422 0.0
C327 C 0.69121 0.89613 0.12998 0.0
C328 C 0.7094 0.9291 0.1303 0.0
C329 C 0.69793 0.94653 0.10961 0.0
C330 C 0.66806 0.93107 0.08898 0.0
C331 C 0.6508 0.89804 0.08669 0.0
C332 C 0.6623 0.88074 0.10686 0.0
C333 C 0.6932 0.7977 0.12844 0.0
C334 C 0.66356 0.78101 0.10743 0.0
C335 C 0.65209 0.75023 0.09081 0.0
C336 C 0.67031 0.73584 0.09403 0.0
C337 C 0.70093 0.7534 0.11178 0.0
C338 C 0.71226 0.78414 0.12927 0.0
C339 C 0.70213 0.82756 0.15321 0.0
C340 C 0.70055 0.85143 0.13183 0.0
C341 C 0.7071 0.83053 0.19828 0.0
C342 C 0.7037 0.80375 0.22323 0.0
C343 C 0.67586 0.77484 0.21897 0.0
C344 C 0.67254 0.74916 0.24106 0.0
C345 C 0.69655 0.752 0.26933 0.0
C346 C 0.72412 0.78131 0.27479 0.0
C347 C 0.72768 0.80699 0.25185 0.0
H348 H 0.07835 0.83607 0.23431 0.0
H349 H 0.04126 0.79215 0.2743 0.0
H350 H 0.07638 0.73372 0.22428 0.0
H351 H 0.11408 0.77772 0.18686 0.0
H352 H 0.14099 0.8654 0.24207 0.0
H353 H 0.06291 0.80649 0.12276 0.0
H354 H 0.02758 0.753 0.09143 0.0
H355 H 0.10579 0.74108 0.06793 0.0
H356 H 0.14091 0.79451 0.09821 0.0
H357 H 0.21032 0.86357 0.10685 0.0
H358 H 0.25433 0.89459 0.06511 0.0
H359 H 0.25133 0.97883 0.10174 0.0
H360 H 0.20635 0.94719 0.14309 0.0
H361 H 0.15524 0.85414 0.08873 0.0
H362 H 0.23068 0.89919 0.20761 0.0
H363 H 0.2656 0.92999 0.26914 0.0
H364 H 0.19979 0.95732 0.30755 0.0
H365 H 0.16544 0.92736 0.24522 0.0
C366 C 0.09837 0.8099 0.2066 0.0
C367 C 0.07798 0.81373 0.23215 0.0
C368 C 0.0569 0.78869 0.25504 0.0
C369 C 0.05594 0.75944 0.25264 0.0
C370 C 0.07653 0.75586 0.22718 0.0
C371 C 0.09783 0.78094 0.20502 0.0
C372 C 0.12184 0.83658 0.18378 0.0
C373 C 0.14375 0.86366 0.20818 0.0
C374 C 0.12566 0.83351 0.13985 0.0
C375 C 0.10451 0.80433 0.11323 0.0
C376 C 0.07244 0.79272 0.10951 0.0
C377 C 0.05231 0.7623 0.09132 0.0
C378 C 0.06405 0.74301 0.07736 0.0
C379 C 0.09621 0.75556 0.07831 0.0
C380 C 0.11628 0.78608 0.09561 0.0
C381 C 0.20482 0.903 0.12768 0.0
C382 C 0.21917 0.88876 0.10612 0.0
C383 C 0.24433 0.90652 0.0822 0.0
C384 C 0.25596 0.93904 0.07962 0.0
C385 C 0.24272 0.95374 0.10305 0.0
C386 C 0.21714 0.93576 0.12681 0.0
C387 C 0.17552 0.88259 0.14758 0.0
C388 C 0.1521 0.8569 0.12225 0.0
C389 C 0.17105 0.88647 0.19108 0.0
C390 C 0.1954 0.91101 0.22152 0.0
C391 C 0.22433 0.91294 0.22812 0.0
C392 C 0.24423 0.93039 0.26363 0.0
C393 C 0.23524 0.9457 0.29362 0.0
C394 C 0.20725 0.94552 0.28533 0.0
C395 C 0.18763 0.92848 0.24957 0.0
H396 H 0.2424 0.16308 0.79386 0.0
H397 H 0.24671 0.20784 0.75492 0.0
H398 H 0.3385 0.26696 0.81517 0.0
H399 H 0.33495 0.22222 0.85094 0.0
H400 H 0.27795 0.13444 0.79184 0.0
H401 H 0.25728 0.19354 0.90604 0.0
H402 H 0.27585 0.24714 0.93693 0.0
H403 H 0.36469 0.25601 0.97106 0.0
H404 H 0.34603 0.20256 0.94106 0.0
H405 H 0.34792 0.13275 0.93228 0.0
H406 H 0.36549 0.09829 0.96196 0.0
H407 H 0.2753 0.01729 0.92879 0.0
H408 H 0.25793 0.05198 0.89815 0.0
H409 H 0.30056 0.14358 0.94869 0.0
H410 H 0.33462 0.10126 0.83881 0.0
H411 H 0.33963 0.06775 0.78423 0.0
H412 H 0.24699 0.03795 0.7322 0.0
H413 H 0.24186 0.07087 0.78743 0.0
C414 C 0.28802 0.18946 0.82628 0.0
C415 C 0.26351 0.18571 0.79829 0.0
C416 C 0.266 0.2113 0.77611 0.0
C417 C 0.29302 0.24106 0.78172 0.0
C418 C 0.31749 0.2445 0.80954 0.0
C419 C 0.31526 0.21891 0.83079 0.0
C420 C 0.28591 0.16261 0.84991 0.0
C421 C 0.28182 0.13582 0.82631 0.0
C422 C 0.29224 0.16511 0.89478 0.0
C423 C 0.3004 0.19427 0.92083 0.0
C424 C 0.28039 0.20669 0.92146 0.0
C425 C 0.29093 0.23716 0.93935 0.0
C426 C 0.32172 0.25561 0.95615 0.0
C427 C 0.34086 0.2422 0.95832 0.0
C428 C 0.33019 0.21167 0.94123 0.0
C429 C 0.30179 0.09475 0.91261 0.0
C430 C 0.33173 0.10763 0.93216 0.0
C431 C 0.34172 0.08801 0.94921 0.0
C432 C 0.32169 0.05527 0.94777 0.0
C433 C 0.29102 0.04255 0.93078 0.0
C434 C 0.28119 0.06221 0.91288 0.0
C435 C 0.29311 0.1157 0.89052 0.0
C436 C 0.29501 0.14126 0.91448 0.0
C437 C 0.28641 0.11276 0.84577 0.0
C438 C 0.28771 0.08847 0.81758 0.0
C439 C 0.31491 0.08658 0.81674 0.0
C440 C 0.31783 0.06744 0.78533 0.0
C441 C 0.29381 0.0503 0.75364 0.0
C442 C 0.26603 0.05096 0.75598 0.0
C443 C 0.26303 0.06981 0.78756 0.0
H444 H 0.81492 0.06484 0.79857 0.0
H445 H 0.78019 0.03456 0.73676 0.0
H446 H 0.7152 0.06319 0.7746 0.0
H447 H 0.75047 0.09413 0.83596 0.0
H448 H 0.84029 0.12728 0.8026 0.0
H449 H 0.77504 0.04438 0.89648 0.0
H450 H 0.72916 0.01027 0.93451 0.0
H451 H 0.72464 0.0922 0.97919 0.0
H452 H 0.76971 0.12582 0.94056 0.0
H453 H 0.84159 0.19733 0.94886 0.0
H454 H 0.87783 0.25017 0.98008 0.0
H455 H 0.95437 0.23575 0.95527 0.0
H456 H 0.91793 0.18284 0.92311 0.0
H457 H 0.82516 0.1367 0.95608 0.0
H458 H 0.86974 0.21495 0.86026 0.0
H459 H 0.90884 0.2587 0.82403 0.0
H460 H 0.94108 0.19807 0.7727 0.0
H461 H 0.9026 0.15437 0.81157 0.0
C462 C 0.7854 0.08181 0.82203 0.0
C463 C 0.79286 0.064 0.79418 0.0
C464 C 0.77298 0.04674 0.75875 0.0
C465 C 0.74508 0.04678 0.75043 0.0
C466 C 0.73647 0.06259 0.78014 0.0
C467 C 0.75659 0.08018 0.81545 0.0
C468 C 0.80976 0.10588 0.85294 0.0
C469 C 0.83734 0.12864 0.83649 0.0
C470 C 0.80513 0.10909 0.89654 0.0
C471 C 0.77591 0.08766 0.91591 0.0
C472 C 0.76378 0.05485 0.91383 0.0
C473 C 0.73765 0.03543 0.93568 0.0
C474 C 0.72356 0.04864 0.96022 0.0
C475 C 0.73519 0.08134 0.961 0.0
C476 C 0.761 0.10061 0.93896 0.0
C477 C 0.87706 0.18628 0.93312 0.0
C478 C 0.86608 0.20503 0.9514 0.0
C479 C 0.8868 0.23524 0.96924 0.0
C480 C 0.91885 0.24699 0.97006 0.0
C481 C 0.92975 0.2271 0.95551 0.0
C482 C 0.90898 0.197 0.93683 0.0
C483 C 0.85539 0.15772 0.90564 0.0
C484 C 0.82848 0.13441 0.92252 0.0
C485 C 0.8595 0.15509 0.8617 0.0
C486 C 0.88386 0.18163 0.83975 0.0
C487 C 0.88565 0.21117 0.84206 0.0
C488 C 0.90775 0.23611 0.82057 0.0
C489 C 0.92792 0.23184 0.79504 0.0
C490 C 0.92579 0.20207 0.79202 0.0
C491 C 0.90391 0.17714 0.81425 0.0
H492 H 0.75006 0.64857 0.83253 0.0
H493 H 0.71354 0.63841 0.77139 0.0
H494 H 0.7737 0.73217 0.73071 0.0
H495 H 0.80957 0.74252 0.79243 0.0
H496 H 0.83775 0.70938 0.79381 0.0
H497 H 0.7733 0.64347 0.93754 0.0
H498 H 0.7294 0.63245 0.9791 0.0
H499 H 0.72973 0.71512 0.9332 0.0
H500 H 0.77438 0.72646 0.89216 0.0
H501 H 0.88933 0.73227 0.96877 0.0
H502 H 0.92548 0.72429 0.01453 0.0
H503 H 0.91471 0.64976 0.92582 0.0
H504 H 0.87816 0.65757 0.88057 0.0
H505 H 0.82863 0.68972 0.94781 0.0
H506 H 0.92098 0.75069 0.86317 0.0
H507 H 0.96447 0.75259 0.82644 0.0
H508 H 0.90054 0.66749 0.75151 0.0
H509 H 0.85737 0.66583 0.78741 0.0
C510 C 0.78265 0.69631 0.81707 0.0
C511 C 0.75473 0.66743 0.81155 0.0
C512 C 0.73394 0.66157 0.77637 0.0
C513 C 0.74107 0.6843 0.74582 0.0
C514 C 0.76777 0.71404 0.75338 0.0
C515 C 0.78824 0.72003 0.78876 0.0
C516 C 0.80846 0.69956 0.84626 0.0
C517 C 0.83579 0.70566 0.82772 0.0
C518 C 0.80576 0.69366 0.89017 0.0
C519 C 0.77728 0.68588 0.91191 0.0
C520 C 0.76393 0.65923 0.93632 0.0
C521 C 0.73876 0.65292 0.96003 0.0
C522 C 0.72625 0.67307 0.95973 0.0
C523 C 0.73887 0.69916 0.93406 0.0
C524 C 0.7643 0.70561 0.91047 0.0
C525 C 0.88123 0.69579 0.92098 0.0
C526 C 0.89494 0.71438 0.95901 0.0
C527 C 0.91566 0.70979 0.98511 0.0
C528 C 0.92301 0.68634 0.97389 0.0
C529 C 0.9097 0.66812 0.93536 0.0
C530 C 0.8889 0.67269 0.90929 0.0
C531 C 0.85745 0.6992 0.89506 0.0
C532 C 0.83064 0.6943 0.91416 0.0
C533 C 0.85995 0.70508 0.85125 0.0
C534 C 0.88616 0.70798 0.82809 0.0
C535 C 0.91643 0.73277 0.83839 0.0
C536 C 0.94106 0.73401 0.81726 0.0
C537 C 0.93548 0.71026 0.78625 0.0
C538 C 0.90516 0.68605 0.77527 0.0
C539 C 0.88062 0.68509 0.79574 0.0
H540 H 0.79787 0.65469 0.59319 0.0
H541 H 0.75456 0.6525 0.62931 0.0
H542 H 0.69081 0.56874 0.55186 0.0
H543 H 0.73444 0.5711 0.515 0.0
H544 H 0.81776 0.61199 0.58541 0.0
H545 H 0.77681 0.66363 0.49929 0.0
H546 H 0.74035 0.67153 0.45397 0.0
H547 H 0.73059 0.59795 0.3643 0.0
H548 H 0.76664 0.58988 0.4101 0.0
H549 H 0.88123 0.59533 0.48713 0.0
H550 H 0.92594 0.60671 0.4462 0.0
H551 H 0.9262 0.6893 0.40011 0.0
H552 H 0.88226 0.67827 0.44159 0.0
H553 H 0.82697 0.63221 0.43157 0.0
H554 H 0.84601 0.57892 0.5864 0.0
H555 H 0.8819 0.58898 0.64798 0.0
H556 H 0.94205 0.68298 0.60808 0.0
H557 H 0.90552 0.67309 0.54703 0.0
C558 C 0.7692 0.61322 0.55127 0.0
C559 C 0.77464 0.63557 0.58437 0.0
C560 C 0.75001 0.6343 0.605 0.0
C561 C 0.7197 0.61033 0.59338 0.0
C562 C 0.71421 0.5871 0.56157 0.0
C563 C 0.73893 0.58863 0.54035 0.0
C564 C 0.79554 0.61644 0.52806 0.0
C565 C 0.81974 0.61587 0.55154 0.0
C566 C 0.79807 0.62249 0.48429 0.0
C567 C 0.77426 0.62588 0.45838 0.0
C568 C 0.76631 0.64873 0.47034 0.0
C569 C 0.74556 0.65336 0.44424 0.0
C570 C 0.73256 0.63545 0.4054 0.0
C571 C 0.74016 0.61222 0.39394 0.0
C572 C 0.76083 0.60757 0.42007 0.0
C573 C 0.87831 0.63589 0.46733 0.0
C574 C 0.8913 0.61618 0.4688 0.0
C575 C 0.91677 0.62264 0.44527 0.0
C576 C 0.9294 0.64873 0.4196 0.0
C577 C 0.91684 0.66883 0.41919 0.0
C578 C 0.89164 0.66251 0.44286 0.0
C579 C 0.84983 0.62812 0.48912 0.0
C580 C 0.82494 0.62753 0.4652 0.0
C581 C 0.84712 0.6221 0.53299 0.0
C582 C 0.87292 0.62527 0.56214 0.0
C583 C 0.86734 0.60141 0.5902 0.0
C584 C 0.88783 0.60723 0.6255 0.0
C585 C 0.91454 0.63695 0.63325 0.0
C586 C 0.92165 0.65984 0.60294 0.0
C587 C 0.90085 0.65413 0.56782 0.0
H588 H 0.40939 0.25933 0.59697 0.0
H589 H 0.40384 0.2917 0.65261 0.0
H590 H 0.31193 0.26315 0.59867 0.0
H591 H 0.31729 0.23013 0.54382 0.0
H592 H 0.37338 0.19617 0.59115 0.0
H593 H 0.39455 0.27942 0.48666 0.0
H594 H 0.37807 0.31496 0.45631 0.0
H595 H 0.28784 0.23488 0.42043 0.0
H596 H 0.3044 0.19964 0.44987 0.0
H597 H 0.30168 0.12814 0.44635 0.0
H598 H 0.28128 0.07461 0.41515 0.0
H599 H 0.37057 0.08226 0.44067 0.0
H600 H 0.39073 0.13571 0.47304 0.0
H601 H 0.34976 0.18724 0.43456 0.0
H602 H 0.31453 0.10864 0.53382 0.0
H603 H 0.31079 0.06384 0.56966 0.0
H604 H 0.40399 0.12188 0.62597 0.0
H605 H 0.40837 0.16664 0.58703 0.0
C606 C 0.36393 0.24242 0.56587 0.0
C607 C 0.38831 0.26056 0.59654 0.0
C608 C 0.38506 0.27908 0.62835 0.0
C609 C 0.35735 0.27992 0.63022 0.0
C610 C 0.33367 0.26331 0.59794 0.0
C611 C 0.33681 0.24448 0.56635 0.0
C612 C 0.36522 0.21826 0.53746 0.0
C613 C 0.3693 0.19483 0.55672 0.0
C614 C 0.3585 0.21554 0.49274 0.0
C615 C 0.35055 0.23707 0.47082 0.0
C616 C 0.37148 0.26959 0.47141 0.0
C617 C 0.36219 0.28973 0.45369 0.0
C618 C 0.33176 0.27746 0.43603 0.0
C619 C 0.31145 0.24478 0.43371 0.0
C620 C 0.32086 0.22471 0.45061 0.0
C621 C 0.3476 0.13565 0.46238 0.0
C622 C 0.31711 0.11863 0.44415 0.0
C623 C 0.30546 0.08809 0.42638 0.0
C624 C 0.32436 0.07442 0.42555 0.0
C625 C 0.35564 0.09245 0.44052 0.0
C626 C 0.36713 0.12283 0.45925 0.0
C627 C 0.35735 0.16518 0.48833 0.0
C628 C 0.35555 0.18954 0.46871 0.0
C629 C 0.3643 0.16773 0.53302 0.0
C630 C 0.36209 0.14079 0.55649 0.0
C631 C 0.33447 0.11167 0.55307 0.0
C632 C 0.33216 0.08606 0.57436 0.0
C633 C 0.35699 0.08919 0.6011 0.0
C634 C 0.38441 0.11866 0.60564 0.0
C635 C 0.38695 0.14425 0.58343 0.0
H636 H 0.74622 0.16569 0.57057 0.0
H637 H 0.70805 0.12132 0.60882 0.0
H638 H 0.74372 0.06309 0.55981 0.0
H639 H 0.78244 0.10752 0.52413 0.0
H640 H 0.80939 0.19446 0.58055 0.0
H641 H 0.73189 0.13642 0.45937 0.0
H642 H 0.69719 0.08326 0.42653 0.0
H643 H 0.77618 0.07248 0.40394 0.0
H644 H 0.81067 0.12557 0.43579 0.0
H645 H 0.8803 0.19561 0.44604 0.0
H646 H 0.92415 0.22778 0.40472 0.0
H647 H 0.91829 0.31039 0.44156 0.0
H648 H 0.87357 0.27756 0.48275 0.0
H649 H 0.82447 0.18531 0.42699 0.0
H650 H 0.89908 0.22784 0.54572 0.0
H651 H 0.93471 0.25816 0.60693 0.0
H652 H 0.87003 0.28638 0.6477 0.0
H653 H 0.83494 0.25676 0.58585 0.0
C654 C 0.76658 0.13964 0.54354 0.0
C655 C 0.74574 0.14331 0.56829 0.0
C656 C 0.72404 0.118 0.59017 0.0
C657 C 0.72292 0.08869 0.58752 0.0
C658 C 0.744 0.08529 0.5629 0.0
C659 C 0.76589 0.11061 0.54176 0.0
C660 C 0.79046 0.16646 0.52152 0.0
C661 C 0.81232 0.19318 0.54663 0.0
C662 C 0.79461 0.16386 0.47761 0.0
C663 C 0.77383 0.13482 0.45042 0.0
C664 C 0.74173 0.12297 0.44606 0.0
C665 C 0.72197 0.09273 0.42701 0.0
C666 C 0.73407 0.07383 0.41277 0.0
C667 C 0.7663 0.08663 0.41452 0.0
C668 C 0.78601 0.11697 0.43271 0.0
C669 C 0.87347 0.23414 0.46698 0.0
C670 C 0.88854 0.22069 0.4455 0.0
C671 C 0.91359 0.23912 0.42183 0.0
C672 C 0.9243 0.2715 0.41933 0.0
C673 C 0.91038 0.28543 0.44281 0.0
C674 C 0.88496 0.26678 0.46642 0.0
C675 C 0.84427 0.21304 0.48645 0.0
C676 C 0.8211 0.18758 0.46055 0.0
C677 C 0.83975 0.21617 0.53008 0.0
C678 C 0.86429 0.24009 0.56093 0.0
C679 C 0.89311 0.24163 0.56677 0.0
C680 C 0.91342 0.25883 0.60206 0.0
C681 C 0.90501 0.27431 0.63257 0.0
C682 C 0.87709 0.27445 0.62508 0.0
C683 C 0.857 0.25759 0.58961 0.0
H684 H 0.90886 0.49449 0.12637 0.0
H685 H 0.91401 0.53893 0.0859 0.0
H686 H 0.00632 0.59736 0.14496 0.0
H687 H 0.00184 0.55286 0.18245 0.0
H688 H 0.94387 0.46511 0.12508 0.0
H689 H 0.92404 0.52583 0.23853 0.0
H690 H 0.94322 0.57972 0.26874 0.0
H691 H 0.03202 0.58812 0.30166 0.0
H692 H 0.01268 0.53429 0.27252 0.0
H693 H 0.0124 0.46375 0.26787 0.0
H694 H 0.02976 0.42924 0.29782 0.0
H695 H 0.9401 0.34815 0.26241 0.0
H696 H 0.92286 0.38292 0.23155 0.0
H697 H 0.96597 0.47529 0.28211 0.0
H698 H -0.0002 0.4317 0.17396 0.0
H699 H 0.00513 0.39817 0.11976 0.0
H700 H 0.91299 0.36883 0.06606 0.0
H701 H 0.90752 0.40174 0.12092 0.0
C702 C 0.95463 0.52057 0.1584 0.0
C703 C 0.93024 0.51691 0.13026 0.0
C704 C 0.93323 0.5423 0.10718 0.0
C705 C 0.96064 0.57176 0.11201 0.0
C706 C 0.985 0.57512 0.13999 0.0
C707 C 0.98225 0.5497 0.16221 0.0
C708 C 0.95205 0.49382 0.18265 0.0
C709 C 0.94759 0.4667 0.15959 0.0
C710 C 0.95834 0.49668 0.22753 0.0
C711 C 0.96705 0.52625 0.25294 0.0
C712 C 0.94728 0.53895 0.25355 0.0
C713 C 0.95818 0.56959 0.27104 0.0
C714 C 0.9891 0.58797 0.28735 0.0
C715 C 0.00809 0.57437 0.28933 0.0
C716 C -0.00297 0.54363 0.27274 0.0
C717 C 0.96651 0.42574 0.24709 0.0
C718 C -0.00377 0.43861 0.26739 0.0
C719 C 0.0061 0.41896 0.28457 0.0
C720 C 0.98619 0.3862 0.28247 0.0
C721 C 0.95568 0.37344 0.26487 0.0
C722 C 0.94595 0.39314 0.24686 0.0
C723 C 0.95821 0.44675 0.22445 0.0
C724 C 0.9605 0.47272 0.24786 0.0
C725 C 0.95175 0.44358 0.17963 0.0
C726 C 0.95309 0.41911 0.15189 0.0
C727 C 0.98025 0.4171 0.15162 0.0
C728 C 0.98336 0.39796 0.12042 0.0
C729 C 0.95959 0.38097 0.08835 0.0
C730 C 0.93184 0.38174 0.09012 0.0
C731 C 0.92864 0.40057 0.1215 0.0
H732 H 0.48198 0.3969 0.13116 0.0
H733 H 0.44627 0.36837 0.06937 0.0
H734 H 0.3852 0.40142 0.10994 0.0
H735 H 0.4215 0.43072 0.17108 0.0
H736 H 0.50996 0.45952 0.13536 0.0
H737 H 0.44295 0.3786 0.2343 0.0
H738 H 0.3975 0.34828 0.27545 0.0
H739 H 0.39816 0.43449 0.31219 0.0
H740 H 0.44277 0.4642 0.2709 0.0
H741 H 0.51368 0.53055 0.28134 0.0
H742 H 0.55012 0.58354 0.31172 0.0
H743 H 0.62643 0.5691 0.28542 0.0
H744 H 0.58975 0.51595 0.25408 0.0
H745 H 0.49725 0.47066 0.28934 0.0
H746 H 0.54073 0.54734 0.19204 0.0
H747 H 0.57967 0.5908 0.15533 0.0
H748 H 0.61108 0.52962 0.10344 0.0
H749 H 0.57275 0.48617 0.14289 0.0
C750 C 0.4545 0.41594 0.15596 0.0
C751 C 0.46052 0.39736 0.1274 0.0
C752 C 0.44012 0.38114 0.09197 0.0
C753 C 0.41308 0.38296 0.08445 0.0
C754 C 0.40578 0.39946 0.11489 0.0
C755 C 0.42647 0.41607 0.15013 0.0
C756 C 0.47978 0.43931 0.18644 0.0
C757 C 0.50752 0.4612 0.16937 0.0
C758 C 0.47589 0.44312 0.23015 0.0
C759 C 0.44639 0.42365 0.24999 0.0
C760 C 0.43286 0.39074 0.25063 0.0
C761 C 0.40701 0.37352 0.27421 0.0
C762 C 0.39464 0.38912 0.2976 0.0
C763 C 0.40744 0.42183 0.29512 0.0
C764 C 0.43295 0.43886 0.27148 0.0
C765 C 0.54899 0.51941 0.26495 0.0
C766 C 0.53817 0.53827 0.28336 0.0
C767 C 0.559 0.56857 0.3007 0.0
C768 C 0.59101 0.58033 0.30088 0.0
C769 C 0.60183 0.56042 0.28612 0.0
C770 C 0.58093 0.53019 0.26794 0.0
C771 C 0.527 0.49062 0.23815 0.0
C772 C 0.50011 0.46793 0.2557 0.0
C773 C 0.5304 0.48753 0.19405 0.0
C774 C 0.55451 0.51378 0.17141 0.0
C775 C 0.55642 0.54337 0.17361 0.0
C776 C 0.57843 0.56816 0.15183 0.0
C777 C 0.59836 0.56367 0.12606 0.0
C778 C 0.59599 0.53379 0.12296 0.0
C779 C 0.57421 0.50901 0.14554 0.0
H780 H 0.55922 0.06896 0.14729 0.0
H781 H 0.60034 0.06887 0.10725 0.0
H782 H 0.57097 0.97423 0.14501 0.0
H783 H 0.52905 0.97345 0.18091 0.0
H784 H 0.4988 0.03272 0.13492 0.0
H785 H 0.57339 0.04577 0.24963 0.0
H786 H 0.60728 0.03108 0.28958 0.0
H787 H 0.52759 0.94227 0.31529 0.0
H788 H 0.49415 0.95631 0.27419 0.0
H789 H 0.41629 0.94874 0.24197 0.0
H790 H 0.37075 0.93348 0.28253 0.0
H791 H 0.3928 0.03091 0.29313 0.0
H792 H 0.43801 0.04582 0.2514 0.0
H793 H 0.47733 -0.00389 0.28151 0.0
H794 H 0.40721 0.97067 0.16121 0.0
H795 H 0.37373 0.96728 0.10007 0.0
H796 H 0.43971 0.06302 0.07274 0.0
H797 H 0.47253 0.06687 0.13538 0.0
C798 C 0.54163 0.02151 0.16808 0.0
C799 C 0.56166 0.04815 0.14641 0.0
C800 C 0.58504 0.04805 0.12354 0.0
C801 C 0.58877 0.02141 0.12246 0.0
C802 C 0.56859 -0.00506 0.14424 0.0
C803 C 0.54486 -0.00531 0.16581 0.0
C804 C 0.516 0.02057 0.19096 0.0
C805 C 0.49453 0.02581 0.16757 0.0
C806 C 0.51003 0.00991 0.23286 0.0
C807 C 0.53105 0.00221 0.25874 0.0
C808 C 0.56324 0.02301 0.26353 0.0
C809 C 0.58263 0.01458 0.2863 0.0
C810 C 0.57013 0.98546 0.30549 0.0
C811 C 0.53798 0.9649 0.30101 0.0
C812 C 0.51874 0.97307 0.27777 0.0
C813 C 0.43029 -0.00166 0.24374 0.0
C814 C 0.41086 0.96665 0.25228 0.0
C815 C 0.3849 0.958 0.27542 0.0
C816 C 0.37846 0.98107 0.29131 0.0
C817 C 0.39739 0.01269 0.28146 0.0
C818 C 0.42306 0.02123 0.25751 0.0
C819 C 0.45993 0.00764 0.22497 0.0
C820 C 0.48221 0.00424 0.24946 0.0
C821 C 0.46609 0.01871 0.18348 0.0
C822 C 0.44241 0.01916 0.15341 0.0
C823 C 0.41381 0.99155 0.14361 0.0
C824 C 0.39474 0.98951 0.10818 0.0
C825 C 0.40429 0.01475 0.08123 0.0
C826 C 0.43186 0.04307 0.09269 0.0
C827 C 0.4506 0.04531 0.12858 0.0
H828 H 0.46295 0.99175 0.91692 0.0
H829 H 0.42102 0.99177 0.95428 0.0
H830 H 0.35468 0.90587 0.88285 0.0
H831 H 0.39688 0.9062 0.84454 0.0
H832 H 0.47957 0.94418 0.91085 0.0
H833 H 0.44236 0.00031 0.82603 0.0
H834 H 0.4062 0.00954 0.78208 0.0
H835 H 0.39238 0.93441 0.69214 0.0
H836 H 0.42807 0.92497 0.73661 0.0
H837 H 0.53886 0.92263 0.81064 0.0
H838 H 0.58392 0.93248 0.77156 0.0
H839 H 0.59035 0.01852 0.72807 0.0
H840 H 0.54603 0.00896 0.76779 0.0
H841 H 0.48922 0.96522 0.75721 0.0
H842 H 0.50412 0.90611 0.90698 0.0
H843 H 0.53952 0.91149 0.96691 0.0
H844 H 0.60353 0.00648 0.93382 0.0
H845 H 0.56766 0.00101 0.87409 0.0
C846 C 0.43282 0.94916 0.8778 0.0
C847 C 0.43942 0.97276 0.90958 0.0
C848 C 0.41557 0.97276 0.93085 0.0
C849 C 0.38492 0.94877 0.92132 0.0
C850 C 0.37833 0.92433 0.89088 0.0
C851 C 0.40223 0.92467 0.86885 0.0
C852 C 0.4583 0.95077 0.85411 0.0
C853 C 0.4816 0.94825 0.87703 0.0
C854 C 0.4609 0.95695 0.81038 0.0
C855 C 0.4377 0.96164 0.78496 0.0
C856 C 0.43105 0.98538 0.79731 0.0
C857 C 0.41047 0.99077 0.77199 0.0
C858 C 0.39636 0.97276 0.73351 0.0
C859 C 0.40281 0.94878 0.72153 0.0
C860 C 0.42328 0.94335 0.7469 0.0
C861 C 0.53905 0.96506 0.79216 0.0
C862 C 0.5503 0.94384 0.7932 0.0
C863 C 0.57598 0.94945 0.77074 0.0
C864 C 0.59059 0.97619 0.74653 0.0
C865 C 0.57951 -0.00243 0.74614 0.0
C866 C 0.55408 0.99209 0.76875 0.0
C867 C 0.51107 0.9589 0.81413 0.0
C868 C 0.48706 0.96036 0.79077 0.0
C869 C 0.50816 0.95258 0.85788 0.0
C870 C 0.53311 0.95319 0.88619 0.0
C871 C 0.52617 0.92777 0.91189 0.0
C872 C 0.54643 0.93093 0.94624 0.0
C873 C 0.57412 0.95962 0.95564 0.0
C874 C 0.58238 0.98408 0.92751 0.0
C875 C 0.56192 0.98094 0.89319 0.0
H876 H 0.07831 0.5885 0.92877 0.0
H877 H 0.07243 0.62124 0.98344 0.0
H878 H 0.98075 0.59226 0.92812 0.0
H879 H 0.98649 0.55891 0.87413 0.0
H880 H 0.04171 0.52498 0.92369 0.0
H881 H 0.06432 0.60823 0.81821 0.0
H882 H 0.04759 0.64347 0.7875 0.0
H883 H 0.95797 0.5629 0.75036 0.0
H884 H 0.97482 0.52793 0.78009 0.0
H885 H 0.97416 0.45739 0.77476 0.0
H886 H 0.9546 0.40368 0.74501 0.0
H887 H 0.04268 0.41087 0.7795 0.0
H888 H 0.06208 0.46466 0.81026 0.0
H889 H 0.02127 0.51619 0.76642 0.0
H890 H 0.98397 0.4376 0.86501 0.0
H891 H 0.97894 0.39274 0.90225 0.0
H892 H 0.07092 0.45056 0.96263 0.0
H893 H 0.07659 0.49536 0.92258 0.0
C894 C 0.03301 0.57135 0.89702 0.0
C895 C 0.05721 0.58971 0.92781 0.0
C896 C 0.05377 0.60844 0.95908 0.0
C897 C 0.02602 0.60927 0.96032 0.0
C898 C 0.00251 0.59242 0.92789 0.0
C899 C 0.00586 0.5734 0.8968 0.0
C900 C 0.03456 0.54706 0.86921 0.0
C901 C 0.03835 0.52368 0.88914 0.0
C902 C 0.0286 0.54431 0.82432 0.0
C903 C 0.02066 0.56563 0.80174 0.0
C904 C 0.04136 0.59823 0.80253 0.0
C905 C 0.03193 0.6182 0.78463 0.0
C906 C 0.00156 0.60572 0.76656 0.0
C907 C 0.98152 0.57297 0.76394 0.0
C908 C -0.0089 0.55306 0.78101 0.0
C909 C 0.01944 0.46481 0.79517 0.0
C910 C 0.98963 0.44782 0.77475 0.0
C911 C 0.97845 0.41715 0.75779 0.0
C912 C -0.00286 0.40324 0.76008 0.0
C913 C 0.02795 0.42125 0.77697 0.0
C914 C 0.03897 0.45183 0.79478 0.0
C915 C 0.02814 0.49421 0.82091 0.0
C916 C 0.02638 0.51846 0.80073 0.0
C917 C 0.03396 0.49666 0.86586 0.0
C918 C 0.03104 0.46964 0.88986 0.0
C919 C 0.00337 0.44056 0.88552 0.0
C920 C 0.00031 0.41494 0.90757 0.0
C921 C 0.02441 0.41801 0.93583 0.0
C922 C 0.05189 0.4474 0.94113 0.0
C923 C 0.05517 0.473 0.91828 0.0
H924 H 0.41507 0.50505 0.90817 0.0
H925 H 0.37695 0.46098 0.94697 0.0
H926 H 0.40905 0.4009 0.89327 0.0
H927 H 0.44772 0.44497 0.85701 0.0
H928 H 0.47826 0.5321 0.91531 0.0
H929 H 0.39773 0.47655 0.79742 0.0
H930 H 0.36094 0.42354 0.76577 0.0
H931 H 0.43718 0.40986 0.73607 0.0
H932 H 0.47371 0.46269 0.76683 0.0
H933 H 0.54455 0.52848 0.77844 0.0
H934 H 0.58881 0.55827 0.73659 0.0
H935 H 0.58984 0.64444 0.77466 0.0
H936 H 0.54472 0.61405 0.81639 0.0
H937 H 0.49001 0.52251 0.76065 0.0
H938 H 0.56652 0.56156 0.87825 0.0
H939 H 0.60322 0.59068 0.93908 0.0
H940 H 0.54226 0.62324 0.98189 0.0
H941 H 0.50613 0.59484 0.92043 0.0
C942 C 0.43363 0.47804 0.87876 0.0
C943 C 0.41381 0.48232 0.90499 0.0
C944 C 0.39214 0.45718 0.92717 0.0
C945 C 0.39004 0.42743 0.92338 0.0
C946 C 0.4101 0.42344 0.89729 0.0
C947 C 0.43196 0.44857 0.87583 0.0
C948 C 0.45751 0.50462 0.85632 0.0
C949 C 0.4805 0.53076 0.88119 0.0
C950 C 0.46061 0.502 0.81203 0.0
C951 C 0.43846 0.47344 0.78493 0.0
C952 C 0.40649 0.46253 0.78273 0.0
C953 C 0.38552 0.43238 0.76435 0.0
C954 C 0.39631 0.41271 0.74857 0.0
C955 C 0.42832 0.42465 0.74786 0.0
C956 C 0.4492 0.45486 0.76544 0.0
C957 C 0.54114 0.56901 0.80007 0.0
C958 C 0.55439 0.55383 0.77805 0.0
C959 C 0.57969 0.5709 0.75408 0.0
C960 C 0.59248 0.60362 0.75179 0.0
C961 C 0.58032 0.61919 0.77572 0.0
C962 C 0.55467 0.60193 0.79965 0.0
C963 C 0.51173 0.54947 0.82011 0.0
C964 C 0.48736 0.52491 0.79445 0.0
C965 C 0.50811 0.55288 0.86403 0.0
C966 C 0.53353 0.5761 0.89451 0.0
C967 C 0.56164 0.57606 0.89965 0.0
C968 C 0.58256 0.59257 0.93472 0.0
C969 C 0.57545 0.6089 0.96569 0.0
C970 C 0.5483 0.61061 0.95889 0.0
C971 C 0.52763 0.59446 0.92364 0.0
H972 H 0.57845 0.82511 0.45811 0.0
H973 H 0.5843 0.86951 0.417 0.0
H974 H 0.67646 0.92754 0.47678 0.0
H975 H 0.67112 0.88308 0.51545 0.0
H976 H 0.61336 0.79573 0.45726 0.0
H977 H 0.5922 0.85534 0.5701 0.0
H978 H 0.61052 0.90882 0.60117 0.0
H979 H 0.69926 0.91777 0.63635 0.0
H980 H 0.68076 0.86432 0.60629 0.0
H981 H 0.68078 0.79311 0.60031 0.0
H982 H 0.69779 0.75801 0.62921 0.0
H983 H 0.60786 0.6776 0.59299 0.0
H984 H 0.59101 0.71294 0.56305 0.0
H985 H 0.63422 0.80502 0.61448 0.0
H986 H 0.66899 0.76239 0.50666 0.0
H987 H 0.67508 0.72964 0.4521 0.0
H988 H 0.58323 0.70019 0.39706 0.0
H989 H 0.57697 0.7323 0.45234 0.0
C990 C 0.62402 0.851 0.49077 0.0
C991 C 0.59992 0.84744 0.46212 0.0
C992 C 0.60333 0.8728 0.43862 0.0
C993 C 0.63091 0.9021 0.44344 0.0
C994 C 0.655 0.90538 0.47191 0.0
C995 C 0.65177 0.88001 0.49474 0.0
C996 C 0.62111 0.82412 0.51498 0.0
C997 C 0.61678 0.79711 0.4918 0.0
C998 C 0.62701 0.82673 0.55991 0.0
C999 C 0.63524 0.85606 0.58553 0.0
C1000 C 0.61523 0.86849 0.58575 0.0
C1001 C 0.62564 0.89889 0.60376 0.0
C1002 C 0.65631 0.91733 0.621 0.0
C1003 C 0.67551 0.90397 0.62333 0.0
C1004 C 0.66493 0.87346 0.60618 0.0
C1005 C 0.63479 0.75548 0.57918 0.0
C1006 C 0.66448 0.76799 0.59946 0.0
C1007 C 0.67415 0.748 0.61601 0.0
C1008 C 0.65406 0.71527 0.61335 0.0
C1009 C 0.62357 0.70286 0.59584 0.0
C1010 C 0.61406 0.72289 0.57841 0.0
C1011 C 0.62681 0.77676 0.55665 0.0
C1012 C 0.62903 0.80265 0.58018 0.0
C1013 C 0.6207 0.77386 0.51179 0.0
C1014 C 0.62235 0.74964 0.48397 0.0
C1015 C 0.64964 0.74788 0.48397 0.0
C1016 C 0.65319 0.72922 0.45255 0.0
C1017 C 0.62975 0.71249 0.42 0.0
C1018 C 0.60183 0.71294 0.42151 0.0
C1019 C 0.59818 0.73129 0.45313 0.0
H1020 H 0.15147 0.73435 0.45992 0.0
H1021 H 0.1159 0.70478 0.39846 0.0
H1022 H 0.05163 0.73302 0.44097 0.0
H1023 H 0.08773 0.76327 0.50186 0.0
H1024 H 0.17656 0.79691 0.4647 0.0
H1025 H 0.11361 0.71353 0.56357 0.0
H1026 H 0.06914 0.68094 0.60532 0.0
H1027 H 0.06471 0.76407 0.64395 0.0
H1028 H 0.10831 0.796 0.6021 0.0
H1029 H 0.17801 0.86543 0.61211 0.0
H1030 H 0.21312 0.91846 0.64372 0.0
H1031 H 0.29142 0.90779 0.61592 0.0
H1032 H 0.25609 0.85472 0.58325 0.0
H1033 H 0.1642 0.80574 0.61931 0.0
H1034 H 0.20331 0.88339 0.52257 0.0
H1035 H 0.24018 0.92813 0.48541 0.0
H1036 H 0.27613 0.8714 0.432 0.0
H1037 H 0.23976 0.82667 0.47155 0.0
C1038 C 0.12235 0.75101 0.4857 0.0
C1039 C 0.12938 0.73352 0.45665 0.0
C1040 C 0.10903 0.7167 0.42139 0.0
C1041 C 0.08109 0.71688 0.41448 0.0
C1042 C 0.07293 0.73233 0.44539 0.0
C1043 C 0.09351 0.74949 0.48049 0.0
C1044 C 0.14721 0.77503 0.51609 0.0
C1045 C 0.17425 0.79813 0.49882 0.0
C1046 C 0.14338 0.77813 0.56 0.0
C1047 C 0.11442 0.7572 0.58017 0.0
C1048 C 0.10261 0.72449 0.58046 0.0
C1049 C 0.07733 0.70597 0.6044 0.0
C1050 C 0.06383 0.72008 0.62848 0.0
C1051 C 0.07491 0.75256 0.62636 0.0
C1052 C 0.09983 0.77086 0.60239 0.0
C1053 C 0.21443 0.85625 0.59486 0.0
C1054 C 0.20268 0.87402 0.61401 0.0
C1055 C 0.22274 0.90432 0.63209 0.0
C1056 C 0.25492 0.91713 0.63231 0.0
C1057 C 0.26669 0.89828 0.61666 0.0
C1058 C 0.24656 0.8681 0.59769 0.0
C1059 C 0.19313 0.82731 0.56782 0.0
C1060 C 0.16699 0.80353 0.58552 0.0
C1061 C 0.19643 0.82488 0.52356 0.0
C1062 C 0.21946 0.85198 0.50098 0.0
C1063 C 0.21956 0.8807 0.50366 0.0
C1064 C 0.24037 0.90619 0.48168 0.0
C1065 C 0.26097 0.9033 0.45541 0.0
C1066 C 0.26047 0.87432 0.45192 0.0
C1067 C 0.23983 0.84882 0.47457 0.0
H1068 H 0.08135 0.31807 0.50211 0.0
H1069 H 0.04532 0.30826 0.44044 0.0
H1070 H 0.1052 0.40282 0.40217 0.0
H1071 H 0.14057 0.41278 0.46436 0.0
H1072 H 0.1691 0.38003 0.46503 0.0
H1073 H 0.10414 0.31268 0.60837 0.0
H1074 H 0.05987 0.30134 0.64933 0.0
H1075 H 0.05994 0.38377 0.60295 0.0
H1076 H 0.10497 0.39548 0.56263 0.0
H1077 H 0.21927 0.40107 0.64059 0.0
H1078 H 0.25528 0.39314 0.68664 0.0
H1079 H 0.24698 0.32055 0.59638 0.0
H1080 H 0.21058 0.32836 0.5507 0.0
H1081 H 0.15931 0.35858 0.61843 0.0
H1082 H 0.25236 0.42019 0.5362 0.0
H1083 H 0.29591 0.42331 0.49824 0.0
H1084 H 0.23197 0.34107 0.41834 0.0
H1085 H 0.18879 0.33801 0.45571 0.0
C1086 C 0.11377 0.36616 0.48786 0.0
C1087 C 0.08604 0.33715 0.48154 0.0
C1088 C 0.06554 0.33149 0.44605 0.0
C1089 C 0.07277 0.35458 0.41602 0.0
C1090 C 0.09921 0.38442 0.42441 0.0
C1091 C 0.11939 0.39019 0.46008 0.0
C1092 C 0.13949 0.3693 0.51718 0.0
C1093 C 0.16698 0.37585 0.49881 0.0
C1094 C 0.13659 0.36293 0.56093 0.0
C1095 C 0.10801 0.355 0.58253 0.0
C1096 C 0.09465 0.32833 0.60694 0.0
C1097 C 0.06927 0.32184 0.6303 0.0
C1098 C 0.05653 0.34179 0.62962 0.0
C1099 C 0.06923 0.36793 0.60406 0.0
C1100 C 0.09488 0.37458 0.58087 0.0
C1101 C 0.21236 0.36556 0.59194 0.0
C1102 C 0.22539 0.38363 0.63053 0.0
C1103 C 0.24604 0.37906 0.65683 0.0
C1104 C 0.25403 0.35613 0.6453 0.0
C1105 C 0.24145 0.33846 0.6062 0.0
C1106 C 0.22073 0.34305 0.57989 0.0
C1107 C 0.18849 0.36882 0.56593 0.0
C1108 C 0.16146 0.36347 0.58489 0.0
C1109 C 0.19114 0.37519 0.52225 0.0
C1110 C 0.21753 0.37869 0.49892 0.0
C1111 C 0.24782 0.40313 0.51015 0.0
C1112 C 0.27248 0.40515 0.48824 0.0
C1113 C 0.26689 0.38261 0.45532 0.0
C1114 C 0.23658 0.35881 0.44342 0.0
C1115 C 0.21203 0.357 0.46483 0.0
loop_
_geom_bond_atom_site_label_1
_geom_bond_atom_site_label_2
_geom_bond_distance
_geom_bond_site_symmetry_2
_ccdc_geom_bond_type
Mg0 O1 2.028 1_556 S
Mg0 O7 1.986 1_455 S
Mg0 O9 2.114 . S
Mg0 O10 2.251 1_455 S
Mg0 O13 2.010 1_556 S
O1 Mg0 2.028 1_554 S
O1 C4 1.250 1_455 S
O2 Mg3 2.028 1_554 S
O2 C4 1.248 . S
Mg3 O2 2.028 1_556 S
Mg3 O8 2.032 . S
Mg3 O10 2.079 . S
C4 O1 1.250 1_655 S
C4 O2 1.248 . S
C5 O6 1.264 . S
C5 O13 1.249 . S
O6 C5 1.264 . S
O7 Mg0 1.986 1_655 S
O7 C11 1.246 . S
O8 Mg3 2.032 . S
O8 C11 1.259 . S
O9 Mg0 2.114 . S
O9 C12 1.252 . S
O10 Mg0 2.251 1_655 S
O10 Mg3 2.079 . S
O10 C12 1.273 1_655 S
C11 O7 1.246 . S
C11 O8 1.259 . S
C12 O9 1.252 . S
C12 O10 1.273 1_455 S
O13 Mg0 2.010 1_554 S
O13 C5 1.249 . S
Mg14 O15 2.028 1_554 S
Mg14 O21 1.986 . S
Mg14 O23 2.114 . S
Mg14 O24 2.251 . S
Mg14 O27 2.010 . S
O15 Mg14 2.028 1_556 S
O15 C18 1.250 . S
O16 Mg17 2.028 1_556 S
O16 C18 1.248 . S
Mg17 O16 2.028 1_554 S
Mg17 O22 2.032 . S
Mg17 O24 2.079 . S
C18 O15 1.250 . S
C18 O16 1.248 . S
C19 O20 1.264 1_556 S
C19 O27 1.249 1_556 S
O20 C19 1.264 1_554 S
O21 Mg14 1.986 . S
O21 C25 1.246 . S
O22 Mg17 2.032 . S
O22 C25 1.259 . S
O23 Mg14 2.114 . S
O23 C26 1.252 . S
O24 Mg14 2.251 . S
O24 Mg17 2.079 . S
O24 C26 1.273 . S
C25 O21 1.246 . S
C25 O22 1.259 . S
C26 O23 1.252 . S
C26 O24 1.273 . S
O27 Mg14 2.010 . S
O27 C19 1.249 1_554 S
Mg28 O29 2.028 1_566 S
Mg28 O35 1.986 1_565 S
Mg28 O37 2.114 . S
Mg28 O38 2.251 1_565 S
Mg28 O41 2.010 1_556 S
O29 Mg28 2.028 1_544 S
O29 C32 1.250 . S
O30 Mg31 2.028 1_554 S
O30 C32 1.248 . S
Mg31 O30 2.028 1_556 S
Mg31 O36 2.032 . S
Mg31 O38 2.079 . S
C32 O29 1.250 . S
C32 O30 1.248 . S
C33 O34 1.275 . S
C33 O41 1.249 . S
O34 C33 1.275 . S
O35 Mg28 1.986 1_545 S
O35 C39 1.246 . S
O36 Mg31 2.032 . S
O36 C39 1.259 . S
O37 Mg28 2.114 . S
O37 C40 1.252 . S
O38 Mg28 2.251 1_545 S
O38 Mg31 2.079 . S
O38 C40 1.273 1_545 S
C39 O35 1.246 . S
C39 O36 1.259 . S
C40 O37 1.252 . S
C40 O38 1.273 1_565 S
O41 Mg28 2.010 1_554 S
O41 C33 1.249 . S
Mg42 O43 2.028 1_654 S
Mg42 O49 1.986 1_655 S
Mg42 O51 2.114 . S
Mg42 O52 2.251 1_655 S
Mg42 O55 2.010 . S
O43 Mg42 2.028 1_456 S
O43 C46 1.251 . S
O44 Mg45 2.028 1_556 S
O44 C46 1.248 . S
Mg45 O44 2.028 1_554 S
Mg45 O50 2.032 . S
Mg45 O52 2.079 . S
C46 O43 1.251 . S
C46 O44 1.248 . S
C47 O48 1.264 1_556 S
C47 O55 1.249 1_556 S
O48 C47 1.264 1_554 S
O49 Mg42 1.986 1_455 S
O49 C53 1.246 . S
O50 Mg45 2.032 . S
O50 C53 1.259 . S
O51 Mg42 2.114 . S
O51 C54 1.252 . S
O52 Mg42 2.251 1_455 S
O52 Mg45 2.079 . S
O52 C54 1.273 1_455 S
C53 O49 1.246 . S
C53 O50 1.259 . S
C54 O51 1.252 . S
C54 O52 1.273 1_655 S
O55 Mg42 2.010 . S
O55 C47 1.249 1_554 S
Mg56 O57 2.028 1_556 S
Mg56 O63 1.986 . S
Mg56 O65 2.114 . S
Mg56 O66 2.251 . S
Mg56 O69 2.010 1_556 S
O57 Mg56 2.028 1_554 S
O57 C60 1.250 . S
O58 Mg59 2.028 1_554 S
O58 C60 1.248 . S
Mg59 O58 2.028 1_556 S
Mg59 O64 2.032 . S
Mg59 O66 2.079 . S
C60 O57 1.250 . S
C60 O58 1.248 . S
C61 O62 1.264 . S
C61 O69 1.249 . S
O62 C61 1.264 . S
O63 Mg56 1.986 . S
O63 C67 1.246 . S
O64 Mg59 2.032 . S
O64 C67 1.259 . S
O65 Mg56 2.114 . S
O65 C68 1.252 . S
O66 Mg56 2.251 . S
O66 Mg59 2.079 . S
O66 C68 1.273 . S
C67 O63 1.246 . S
C67 O64 1.259 . S
C68 O65 1.252 . S
C68 O66 1.273 . S
O69 Mg56 2.010 1_554 S
O69 C61 1.249 . S
Mg70 O71 2.028 1_554 S
Mg70 O77 1.986 1_545 S
Mg70 O79 2.114 . S
Mg70 O80 2.251 1_545 S
Mg70 O83 2.010 . S
O71 Mg70 2.028 1_556 S
O71 C74 1.250 1_545 S
O72 Mg73 2.028 1_556 S
O72 C74 1.248 . S
Mg73 O72 2.028 1_554 S
Mg73 O78 2.032 . S
Mg73 O80 2.079 . S
C74 O71 1.250 1_565 S
C74 O72 1.248 . S
C75 O76 1.264 1_556 S
C75 O83 1.249 1_556 S
O76 C75 1.264 1_554 S
O77 Mg70 1.986 1_565 S
O77 C81 1.246 . S
O78 Mg73 2.032 . S
O78 C81 1.259 . S
O79 Mg70 2.114 . S
O79 C82 1.252 . S
O80 Mg70 2.251 1_565 S
O80 Mg73 2.079 . S
O80 C82 1.273 1_565 S
C81 O77 1.246 . S
C81 O78 1.259 . S
C82 O79 1.252 . S
C82 O80 1.273 1_545 S
O83 Mg70 2.010 . S
O83 C75 1.249 1_554 S
Mg84 O85 2.028 . S
Mg84 O91 1.986 . S
Mg84 O93 2.114 . S
Mg84 O94 2.251 . S
Mg84 O97 2.010 . S
O85 Mg84 2.028 . S
O85 C88 1.250 . S
O86 Mg87 2.028 . S
O86 C88 1.248 . S
Mg87 O86 2.028 . S
Mg87 O92 2.032 . S
Mg87 O94 2.079 . S
C88 O85 1.250 . S
C88 O86 1.248 . S
C89 O90 1.264 . S
C89 O97 1.249 . S
O90 C89 1.264 . S
O91 Mg84 1.986 . S
O91 C95 1.246 . S
O92 Mg87 2.032 . S
O92 C95 1.259 . S
O93 Mg84 2.114 . S
O93 C96 1.252 . S
O94 Mg84 2.251 . S
O94 Mg87 2.079 . S
O94 C96 1.273 . S
C95 O91 1.246 . S
C95 O92 1.259 . S
C96 O93 1.252 . S
C96 O94 1.273 . S
O97 Mg84 2.010 . S
O97 C89 1.249 . S
Mg98 O99 2.028 . S
Mg98 O105 1.986 1_565 S
Mg98 O107 2.114 . S
Mg98 O108 2.251 . S
Mg98 O111 2.010 . S
O99 Mg98 2.028 . S
O99 C102 1.250 . S
O100 Mg101 2.028 . S
O100 C102 1.248 . S
Mg101 O100 2.028 . S
Mg101 O106 2.032 1_565 S
Mg101 O108 2.079 . S
C102 O99 1.250 . S
C102 O100 1.248 . S
C103 O104 1.264 . S
C103 O111 1.249 . S
O104 C103 1.264 . S
O105 Mg98 1.986 1_545 S
O105 C109 1.246 . S
O106 Mg101 2.032 1_545 S
O106 C109 1.259 . S
O107 Mg98 2.114 . S
O107 C110 1.252 . S
O108 Mg98 2.251 . S
O108 Mg101 2.079 . S
O108 C110 1.273 . S
C109 O105 1.246 . S
C109 O106 1.259 . S
C110 O107 1.252 . S
C110 O108 1.273 . S
O111 Mg98 2.010 . S
O111 C103 1.249 . S
Mg112 O113 2.028 . S
Mg112 O119 1.986 . S
Mg112 O121 2.114 . S
Mg112 O122 2.251 . S
Mg112 O125 2.010 1_455 S
O113 Mg112 2.028 . S
O113 C116 1.250 . S
O114 Mg115 2.028 . S
O114 C116 1.248 . S
Mg115 O114 2.028 . S
Mg115 O120 2.032 . S
Mg115 O122 2.079 . S
C116 O113 1.250 . S
C116 O114 1.248 . S
C117 O118 1.264 . S
C117 O125 1.249 . S
O118 C117 1.264 . S
O119 Mg112 1.986 . S
O119 C123 1.246 . S
O120 Mg115 2.032 . S
O120 C123 1.259 . S
O121 Mg112 2.114 . S
O121 C124 1.252 . S
O122 Mg112 2.251 . S
O122 Mg115 2.079 . S
O122 C124 1.273 . S
C123 O119 1.246 . S
C123 O120 1.259 . S
C124 O121 1.252 . S
C124 O122 1.273 . S
O125 Mg112 2.010 1_655 S
O125 C117 1.249 . S
Mg126 O127 2.028 . S
Mg126 O133 1.986 1_565 S
Mg126 O135 2.114 . S
Mg126 O136 2.251 . S
Mg126 O139 2.010 . S
O127 Mg126 2.028 . S
O127 C130 1.250 . S
O128 Mg129 2.028 . S
O128 C130 1.248 . S
Mg129 O128 2.028 . S
Mg129 O134 2.032 1_565 S
Mg129 O136 2.079 . S
C130 O127 1.250 . S
C130 O128 1.248 . S
C131 O132 1.264 . S
C131 O139 1.249 . S
O132 C131 1.264 . S
O133 Mg126 1.986 1_545 S
O133 C137 1.246 . S
O134 Mg129 2.032 1_545 S
O134 C137 1.259 . S
O135 Mg126 2.114 . S
O135 C138 1.252 . S
O136 Mg126 2.251 . S
O136 Mg129 2.079 . S
O136 C138 1.273 . S
C137 O133 1.246 . S
C137 O134 1.259 . S
C138 O135 1.252 . S
C138 O136 1.273 . S
O139 Mg126 2.010 . S
O139 C131 1.249 . S
Mg140 O141 2.028 . S
Mg140 O147 1.986 . S
Mg140 O149 2.114 . S
Mg140 O150 2.251 . S
Mg140 O153 2.010 1_455 S
O141 Mg140 2.028 . S
O141 C144 1.250 . S
O142 Mg143 2.028 . S
O142 C144 1.248 . S
Mg143 O142 2.028 . S
Mg143 O148 2.032 . S
Mg143 O150 2.079 . S
C144 O141 1.250 . S
C144 O142 1.248 . S
C145 O146 1.264 . S
C145 O153 1.249 . S
O146 C145 1.264 . S
O147 Mg140 1.986 . S
O147 C151 1.246 . S
O148 Mg143 2.032 . S
O148 C151 1.259 . S
O149 Mg140 2.114 . S
O149 C152 1.252 . S
O150 Mg140 2.251 . S
O150 Mg143 2.079 . S
O150 C152 1.273 . S
C151 O147 1.246 . S
C151 O148 1.259 . S
C152 O149 1.252 . S
C152 O150 1.273 . S
O153 Mg140 2.010 1_655 S
O153 C145 1.249 . S
Mg154 O155 2.028 . S
Mg154 O161 1.986 . S
Mg154 O163 2.114 . S
Mg154 O164 2.251 . S
Mg154 O167 2.010 . S
O155 Mg154 2.028 . S
O155 C158 1.250 . S
O156 Mg157 2.028 . S
O156 C158 1.248 . S
Mg157 O156 2.028 . S
Mg157 O162 2.032 . S
Mg157 O164 2.079 . S
C158 O155 1.250 . S
C158 O156 1.248 . S
C159 O160 1.264 . S
C159 O167 1.249 . S
O160 C159 1.264 . S
O161 Mg154 1.986 . S
O161 C165 1.246 . S
O162 Mg157 2.032 . S
O162 C165 1.259 . S
O163 Mg154 2.114 . S
O163 C166 1.252 . S
O164 Mg154 2.251 . S
O164 Mg157 2.079 . S
O164 C166 1.273 . S
C165 O161 1.246 . S
C165 O162 1.259 . S
C166 O163 1.252 . S
C166 O164 1.273 . S
O167 Mg154 2.010 . S
O167 C159 1.249 . S
Mg168 O169 2.028 . S
Mg168 O175 1.986 1_545 S
Mg168 O177 2.114 . S
Mg168 O178 2.251 . S
Mg168 O181 2.010 . S
O169 Mg168 2.028 . S
O169 C172 1.250 . S
O170 Mg171 2.028 . S
O170 C172 1.248 . S
Mg171 O170 2.028 . S
Mg171 O176 2.032 1_545 S
Mg171 O178 2.079 . S
C172 O169 1.250 . S
C172 O170 1.248 . S
C173 O174 1.264 . S
C173 O181 1.249 . S
O174 C173 1.264 . S
O175 Mg168 1.986 1_565 S
O175 C179 1.246 . S
O176 Mg171 2.032 1_565 S
O176 C179 1.259 . S
O177 Mg168 2.114 . S
O177 C180 1.252 . S
O178 Mg168 2.251 . S
O178 Mg171 2.079 . S
O178 C180 1.273 . S
C179 O175 1.246 . S
C179 O176 1.259 . S
C180 O177 1.252 . S
C180 O178 1.273 . S
O181 Mg168 2.010 . S
O181 C173 1.249 . S
Mg182 O183 2.028 . S
Mg182 O189 1.986 . S
Mg182 O191 2.114 . S
Mg182 O192 2.251 . S
Mg182 O195 2.010 1_655 S
O183 Mg182 2.028 . S
O183 C186 1.250 . S
O184 Mg185 2.028 . S
O184 C186 1.248 . S
Mg185 O184 2.028 . S
Mg185 O190 2.032 . S
Mg185 O192 2.079 . S
C186 O183 1.250 . S
C186 O184 1.248 . S
C187 O188 1.264 . S
C187 O195 1.249 . S
O188 C187 1.264 . S
O189 Mg182 1.986 . S
O189 C193 1.246 . S
O190 Mg185 2.032 . S
O190 C193 1.259 . S
O191 Mg182 2.114 . S
O191 C194 1.252 . S
O192 Mg182 2.251 . S
O192 Mg185 2.079 . S
O192 C194 1.273 . S
C193 O189 1.246 . S
C193 O190 1.259 . S
C194 O191 1.252 . S
C194 O192 1.273 . S
O195 Mg182 2.010 1_455 S
O195 C187 1.249 . S
Mg196 O197 2.028 . S
Mg196 O203 1.986 . S
Mg196 O205 2.114 . S
Mg196 O206 2.251 . S
Mg196 O209 2.010 . S
O197 Mg196 2.028 . S
O197 C200 1.250 . S
O198 Mg199 2.028 . S
O198 C200 1.248 . S
Mg199 O198 2.028 . S
Mg199 O204 2.032 . S
Mg199 O206 2.079 . S
C200 O197 1.250 . S
C200 O198 1.248 . S
C201 O202 1.264 . S
C201 O209 1.249 . S
O202 C201 1.264 . S
O203 Mg196 1.986 . S
O203 C207 1.246 . S
O204 Mg199 2.032 . S
O204 C207 1.259 . S
O205 Mg196 2.114 . S
O205 C208 1.252 . S
O206 Mg196 2.251 . S
O206 Mg199 2.079 . S
O206 C208 1.273 . S
C207 O203 1.246 . S
C207 O204 1.259 . S
C208 O205 1.252 . S
C208 O206 1.273 . S
O209 Mg196 2.010 . S
O209 C201 1.249 . S
Mg210 O211 2.028 . S
Mg210 O217 1.986 . S
Mg210 O219 2.114 . S
Mg210 O220 2.251 . S
Mg210 O223 2.010 . S
O211 Mg210 2.028 . S
O211 C214 1.250 . S
O212 Mg213 2.028 . S
O212 C214 1.248 . S
Mg213 O212 2.028 . S
Mg213 O218 2.032 . S
Mg213 O220 2.079 . S
C214 O211 1.250 . S
C214 O212 1.248 . S
C215 O216 1.264 . S
C215 O223 1.249 . S
O216 C215 1.264 . S
O217 Mg210 1.986 . S
O217 C221 1.246 . S
O218 Mg213 2.032 . S
O218 C221 1.259 . S
O219 Mg210 2.114 . S
O219 C222 1.252 . S
O220 Mg210 2.251 . S
O220 Mg213 2.079 . S
O220 C222 1.273 . S
C221 O217 1.246 . S
C221 O218 1.259 . S
C222 O219 1.252 . S
C222 O220 1.273 . S
O223 Mg210 2.010 . S
O223 C215 1.249 . S
Mg224 O225 2.028 . S
Mg224 O231 1.986 1_545 S
Mg224 O233 2.114 . S
Mg224 O234 2.251 . S
Mg224 O237 2.010 . S
O225 Mg224 2.028 . S
O225 C228 1.250 . S
O226 Mg227 2.028 . S
O226 C228 1.248 . S
Mg227 O226 2.028 . S
Mg227 O232 2.032 1_545 S
Mg227 O234 2.079 . S
C228 O225 1.250 . S
C228 O226 1.248 . S
C229 O230 1.264 . S
C229 O237 1.249 . S
O230 C229 1.264 . S
O231 Mg224 1.986 1_565 S
O231 C235 1.246 . S
O232 Mg227 2.032 1_565 S
O232 C235 1.259 . S
O233 Mg224 2.114 . S
O233 C236 1.252 . S
O234 Mg224 2.251 . S
O234 Mg227 2.079 . S
O234 C236 1.273 . S
C235 O231 1.246 . S
C235 O232 1.259 . S
C236 O233 1.252 . S
C236 O234 1.273 . S
O237 Mg224 2.010 . S
O237 C229 1.249 . S
Mg238 O239 2.028 . S
Mg238 O245 1.986 . S
Mg238 O247 2.114 . S
Mg238 O248 2.251 . S
Mg238 O251 2.010 1_655 S
O239 Mg238 2.028 . S
O239 C242 1.250 . S
O240 Mg241 2.028 . S
O240 C242 1.248 . S
Mg241 O240 2.028 . S
Mg241 O246 2.032 . S
Mg241 O248 2.079 . S
C242 O239 1.250 . S
C242 O240 1.248 . S
C243 O244 1.264 . S
C243 O251 1.249 . S
O244 C243 1.264 . S
O245 Mg238 1.986 . S
O245 C249 1.246 . S
O246 Mg241 2.032 . S
O246 C249 1.259 . S
O247 Mg238 2.114 . S
O247 C250 1.252 . S
O248 Mg238 2.251 . S
O248 Mg241 2.079 . S
O248 C250 1.273 . S
C249 O245 1.246 . S
C249 O246 1.259 . S
C250 O247 1.252 . S
C250 O248 1.273 . S
O251 Mg238 2.010 1_455 S
O251 C243 1.249 . S
H252 C271 0.949 . S
H253 C272 0.950 . S
H254 C274 0.950 . S
H255 C275 0.950 . S
H256 C277 0.950 . S
H257 C280 0.950 . S
H258 C281 0.950 . S
H259 C283 0.951 . S
H260 C284 0.949 . S
H261 C286 0.949 . S
H262 C287 0.950 . S
H263 C289 0.950 . S
H264 C290 0.950 . S
H265 C292 0.950 . S
H266 C295 0.950 . S
H267 C296 0.950 . S
H268 C298 0.951 . S
H269 C299 0.949 . S
C270 C271 1.376 . S
C270 C275 1.386 . S
C270 C276 1.483 . S
C271 H252 0.949 . S
C271 C270 1.376 . S
C271 C272 1.397 . S
C272 H253 0.950 . S
C272 C271 1.397 . S
C272 C273 1.391 . S
C273 C272 1.391 . S
C273 C274 1.405 . S
C274 H254 0.950 . S
C274 C273 1.405 . S
C274 C275 1.367 . S
C275 H255 0.950 . S
C275 C270 1.386 . S
C275 C274 1.367 . S
C276 C270 1.483 . S
C276 C277 1.382 . S
C276 C278 1.403 . S
C277 H256 0.950 . S
C277 C276 1.382 . S
C277 C293 1.411 . S
C278 C276 1.403 . S
C278 C279 1.489 . S
C278 C292 1.411 . S
C279 C278 1.489 . S
C279 C280 1.383 . S
C279 C284 1.382 . S
C280 H257 0.950 . S
C280 C279 1.383 . S
C280 C281 1.395 . S
C281 H258 0.950 . S
C281 C280 1.395 . S
C281 C282 1.288 . S
C282 C281 1.288 . S
C282 C283 1.392 . S
C283 H259 0.951 . S
C283 C282 1.392 . S
C283 C284 1.392 . S
C284 H260 0.949 . S
C284 C279 1.382 . S
C284 C283 1.392 . S
C285 C286 1.376 . S
C285 C290 1.386 . S
C285 C291 1.483 . S
C286 H261 0.949 . S
C286 C285 1.376 . S
C286 C287 1.397 . S
C287 H262 0.950 . S
C287 C286 1.397 . S
C287 C288 1.391 . S
C288 C287 1.391 . S
C288 C289 1.405 . S
C289 H263 0.950 . S
C289 C288 1.405 . S
C289 C290 1.367 . S
C290 H264 0.950 . S
C290 C285 1.386 . S
C290 C289 1.367 . S
C291 C285 1.483 . S
C291 C292 1.382 . S
C291 C293 1.403 . S
C292 H265 0.950 . S
C292 C278 1.411 . S
C292 C291 1.382 . S
C293 C277 1.411 . S
C293 C291 1.403 . S
C293 C294 1.489 . S
C294 C293 1.489 . S
C294 C295 1.383 . S
C294 C299 1.382 . S
C295 H266 0.950 . S
C295 C294 1.383 . S
C295 C296 1.395 . S
C296 H267 0.950 . S
C296 C295 1.395 . S
C296 C297 1.288 . S
C297 C296 1.288 . S
C297 C298 1.392 . S
C298 H268 0.951 . S
C298 C297 1.392 . S
C298 C299 1.392 . S
C299 H269 0.949 . S
C299 C294 1.382 . S
C299 C298 1.392 . S
H300 C319 0.949 . S
H301 C320 0.950 . S
H302 C322 0.950 . S
H303 C323 0.950 . S
H304 C325 0.950 . S
H305 C328 0.950 . S
H306 C329 0.950 . S
H307 C331 0.951 . S
H308 C332 0.949 . S
H309 C334 0.949 . S
H310 C335 0.950 . S
H311 C337 0.950 . S
H312 C338 0.950 . S
H313 C340 0.950 . S
H314 C343 0.950 . S
H315 C344 0.950 . S
H316 C346 0.951 . S
H317 C347 0.949 . S
C318 C319 1.376 . S
C318 C323 1.386 . S
C318 C324 1.483 . S
C319 H300 0.949 . S
C319 C318 1.376 . S
C319 C320 1.397 . S
C320 H301 0.950 . S
C320 C319 1.397 . S
C320 C321 1.391 . S
C321 C320 1.391 . S
C321 C322 1.405 . S
C322 H302 0.950 . S
C322 C321 1.405 . S
C322 C323 1.367 . S
C323 H303 0.950 . S
C323 C318 1.386 . S
C323 C322 1.367 . S
C324 C318 1.483 . S
C324 C325 1.382 . S
C324 C326 1.403 . S
C325 H304 0.950 . S
C325 C324 1.382 . S
C325 C341 1.411 . S
C326 C324 1.403 . S
C326 C327 1.489 . S
C326 C340 1.411 . S
C327 C326 1.489 . S
C327 C328 1.383 . S
C327 C332 1.382 . S
C328 H305 0.950 . S
C328 C327 1.383 . S
C328 C329 1.395 . S
C329 H306 0.950 . S
C329 C328 1.395 . S
C329 C330 1.288 . S
C330 C329 1.288 . S
C330 C331 1.392 . S
C331 H307 0.951 . S
C331 C330 1.392 . S
C331 C332 1.392 . S
C332 H308 0.949 . S
C332 C327 1.382 . S
C332 C331 1.392 . S
C333 C334 1.376 . S
C333 C338 1.386 . S
C333 C339 1.483 . S
C334 H309 0.949 . S
C334 C333 1.376 . S
C334 C335 1.397 . S
C335 H310 0.950 . S
C335 C334 1.397 . S
C335 C336 1.391 . S
C336 C335 1.391 . S
C336 C337 1.405 . S
C337 H311 0.950 . S
C337 C336 1.405 . S
C337 C338 1.367 . S
C338 H312 0.950 . S
C338 C333 1.386 . S
C338 C337 1.367 . S
C339 C333 1.483 . S
C339 C340 1.382 . S
C339 C341 1.403 . S
C340 H313 0.950 . S
C340 C326 1.411 . S
C340 C339 1.382 . S
C341 C325 1.411 . S
C341 C339 1.403 . S
C341 C342 1.489 . S
C342 C341 1.489 . S
C342 C343 1.383 . S
C342 C347 1.382 . S
C343 H314 0.950 . S
C343 C342 1.383 . S
C343 C344 1.395 . S
C344 H315 0.950 . S
C344 C343 1.395 . S
C344 C345 1.288 . S
C345 C344 1.288 . S
C345 C346 1.392 . S
C346 H316 0.951 . S
C346 C345 1.392 . S
C346 C347 1.392 . S
C347 H317 0.949 . S
C347 C342 1.382 . S
C347 C346 1.392 . S
H348 C367 0.949 . S
H349 C368 0.950 . S
H350 C370 0.950 . S
H351 C371 0.950 . S
H352 C373 0.950 . S
H353 C376 0.950 . S
H354 C377 0.950 . S
H355 C379 0.951 . S
H356 C380 0.949 . S
H357 C382 0.949 . S
H358 C383 0.950 . S
H359 C385 0.950 . S
H360 C386 0.950 . S
H361 C388 0.950 . S
H362 C391 0.950 . S
H363 C392 0.950 . S
H364 C394 0.951 . S
H365 C395 0.949 . S
C366 C367 1.376 . S
C366 C371 1.386 . S
C366 C372 1.483 . S
C367 H348 0.949 . S
C367 C366 1.376 . S
C367 C368 1.397 . S
C368 H349 0.950 . S
C368 C367 1.397 . S
C368 C369 1.391 . S
C369 C368 1.391 . S
C369 C370 1.405 . S
C370 H350 0.950 . S
C370 C369 1.405 . S
C370 C371 1.367 . S
C371 H351 0.950 . S
C371 C366 1.386 . S
C371 C370 1.367 . S
C372 C366 1.483 . S
C372 C373 1.382 . S
C372 C374 1.403 . S
C373 H352 0.950 . S
C373 C372 1.382 . S
C373 C389 1.411 . S
C374 C372 1.403 . S
C374 C375 1.489 . S
C374 C388 1.411 . S
C375 C374 1.489 . S
C375 C376 1.383 . S
C375 C380 1.382 . S
C376 H353 0.950 . S
C376 C375 1.383 . S
C376 C377 1.395 . S
C377 H354 0.950 . S
C377 C376 1.395 . S
C377 C378 1.288 . S
C378 C377 1.288 . S
C378 C379 1.392 . S
C379 H355 0.951 . S
C379 C378 1.392 . S
C379 C380 1.392 . S
C380 H356 0.949 . S
C380 C375 1.382 . S
C380 C379 1.392 . S
C381 C382 1.376 . S
C381 C386 1.386 . S
C381 C387 1.483 . S
C382 H357 0.949 . S
C382 C381 1.376 . S
C382 C383 1.397 . S
C383 H358 0.950 . S
C383 C382 1.397 . S
C383 C384 1.391 . S
C384 C383 1.391 . S
C384 C385 1.405 . S
C385 H359 0.950 . S
C385 C384 1.405 . S
C385 C386 1.367 . S
C386 H360 0.950 . S
C386 C381 1.386 . S
C386 C385 1.367 . S
C387 C381 1.483 . S
C387 C388 1.382 . S
C387 C389 1.403 . S
C388 H361 0.950 . S
C388 C374 1.411 . S
C388 C387 1.382 . S
C389 C373 1.411 . S
C389 C387 1.403 . S
C389 C390 1.489 . S
C390 C389 1.489 . S
C390 C391 1.383 . S
C390 C395 1.382 . S
C391 H362 0.950 . S
C391 C390 1.383 . S
C391 C392 1.395 . S
C392 H363 0.950 . S
C392 C391 1.395 . S
C392 C393 1.288 . S
C393 C392 1.288 . S
C393 C394 1.392 . S
C394 H364 0.951 . S
C394 C393 1.392 . S
C394 C395 1.392 . S
C395 H365 0.949 . S
C395 C390 1.382 . S
C395 C394 1.392 . S
H396 C415 0.949 . S
H397 C416 0.950 . S
H398 C418 0.950 . S
H399 C419 0.950 . S
H400 C421 0.950 . S
H401 C424 0.950 . S
H402 C425 0.950 . S
H403 C427 0.951 . S
H404 C428 0.949 . S
H405 C430 0.949 . S
H406 C431 0.950 . S
H407 C433 0.950 . S
H408 C434 0.950 . S
H409 C436 0.950 . S
H410 C439 0.950 . S
H411 C440 0.950 . S
H412 C442 0.951 . S
H413 C443 0.949 . S
C414 C415 1.376 . S
C414 C419 1.386 . S
C414 C420 1.483 . S
C415 H396 0.949 . S
C415 C414 1.376 . S
C415 C416 1.397 . S
C416 H397 0.950 . S
C416 C415 1.397 . S
C416 C417 1.391 . S
C417 C416 1.391 . S
C417 C418 1.405 . S
C418 H398 0.950 . S
C418 C417 1.405 . S
C418 C419 1.367 . S
C419 H399 0.950 . S
C419 C414 1.386 . S
C419 C418 1.367 . S
C420 C414 1.483 . S
C420 C421 1.382 . S
C420 C422 1.403 . S
C421 H400 0.950 . S
C421 C420 1.382 . S
C421 C437 1.411 . S
C422 C420 1.403 . S
C422 C423 1.489 . S
C422 C436 1.411 . S
C423 C422 1.489 . S
C423 C424 1.383 . S
C423 C428 1.382 . S
C424 H401 0.950 . S
C424 C423 1.383 . S
C424 C425 1.395 . S
C425 H402 0.950 . S
C425 C424 1.395 . S
C425 C426 1.288 . S
C426 C425 1.288 . S
C426 C427 1.392 . S
C427 H403 0.951 . S
C427 C426 1.392 . S
C427 C428 1.392 . S
C428 H404 0.949 . S
C428 C423 1.382 . S
C428 C427 1.392 . S
C429 C430 1.376 . S
C429 C434 1.386 . S
C429 C435 1.483 . S
C430 H405 0.949 . S
C430 C429 1.376 . S
C430 C431 1.397 . S
C431 H406 0.950 . S
C431 C430 1.397 . S
C431 C432 1.391 . S
C432 C431 1.391 . S
C432 C433 1.405 . S
C433 H407 0.950 . S
C433 C432 1.405 . S
C433 C434 1.367 . S
C434 H408 0.950 . S
C434 C429 1.386 . S
C434 C433 1.367 . S
C435 C429 1.483 . S
C435 C436 1.382 . S
C435 C437 1.403 . S
C436 H409 0.950 . S
C436 C422 1.411 . S
C436 C435 1.382 . S
C437 C421 1.411 . S
C437 C435 1.403 . S
C437 C438 1.489 . S
C438 C437 1.489 . S
C438 C439 1.383 . S
C438 C443 1.382 . S
C439 H410 0.950 . S
C439 C438 1.383 . S
C439 C440 1.395 . S
C440 H411 0.950 . S
C440 C439 1.395 . S
C440 C441 1.288 . S
C441 C440 1.288 . S
C441 C442 1.392 . S
C442 H412 0.951 . S
C442 C441 1.392 . S
C442 C443 1.392 . S
C443 H413 0.949 . S
C443 C438 1.382 . S
C443 C442 1.392 . S
H444 C463 0.949 . S
H445 C464 0.950 . S
H446 C466 0.950 . S
H447 C467 0.950 . S
H448 C469 0.950 . S
H449 C472 0.950 . S
H450 C473 0.950 . S
H451 C475 0.951 . S
H452 C476 0.949 . S
H453 C478 0.949 . S
H454 C479 0.950 . S
H455 C481 0.950 . S
H456 C482 0.950 . S
H457 C484 0.950 . S
H458 C487 0.950 . S
H459 C488 0.950 . S
H460 C490 0.951 . S
H461 C491 0.949 . S
C462 C463 1.376 . S
C462 C467 1.386 . S
C462 C468 1.483 . S
C463 H444 0.949 . S
C463 C462 1.376 . S
C463 C464 1.397 . S
C464 H445 0.950 . S
C464 C463 1.397 . S
C464 C465 1.391 . S
C465 C464 1.391 . S
C465 C466 1.405 . S
C466 H446 0.950 . S
C466 C465 1.405 . S
C466 C467 1.367 . S
C467 H447 0.950 . S
C467 C462 1.386 . S
C467 C466 1.367 . S
C468 C462 1.483 . S
C468 C469 1.382 . S
C468 C470 1.403 . S
C469 H448 0.950 . S
C469 C468 1.382 . S
C469 C485 1.411 . S
C470 C468 1.403 . S
C470 C471 1.489 . S
C470 C484 1.411 . S
C471 C470 1.489 . S
C471 C472 1.383 . S
C471 C476 1.382 . S
C472 H449 0.950 . S
C472 C471 1.383 . S
C472 C473 1.395 . S
C473 H450 0.950 . S
C473 C472 1.395 . S
C473 C474 1.288 . S
C474 C473 1.288 . S
C474 C475 1.392 . S
C475 H451 0.951 . S
C475 C474 1.392 . S
C475 C476 1.392 . S
C476 H452 0.949 . S
C476 C471 1.382 . S
C476 C475 1.392 . S
C477 C478 1.376 . S
C477 C482 1.386 . S
C477 C483 1.483 . S
C478 H453 0.949 . S
C478 C477 1.376 . S
C478 C479 1.397 . S
C479 H454 0.950 . S
C479 C478 1.397 . S
C479 C480 1.391 . S
C480 C479 1.391 . S
C480 C481 1.405 . S
C481 H455 0.950 . S
C481 C480 1.405 . S
C481 C482 1.367 . S
C482 H456 0.950 . S
C482 C477 1.386 . S
C482 C481 1.367 . S
C483 C477 1.483 . S
C483 C484 1.382 . S
C483 C485 1.403 . S
C484 H457 0.950 . S
C484 C470 1.411 . S
C484 C483 1.382 . S
C485 C469 1.411 . S
C485 C483 1.403 . S
C485 C486 1.489 . S
C486 C485 1.489 . S
C486 C487 1.383 . S
C486 C491 1.382 . S
C487 H458 0.950 . S
C487 C486 1.383 . S
C487 C488 1.395 . S
C488 H459 0.950 . S
C488 C487 1.395 . S
C488 C489 1.288 . S
C489 C488 1.288 . S
C489 C490 1.392 . S
C490 H460 0.951 . S
C490 C489 1.392 . S
C490 C491 1.392 . S
C491 H461 0.949 . S
C491 C486 1.382 . S
C491 C490 1.392 . S
H492 C511 0.949 . S
H493 C512 0.950 . S
H494 C514 0.950 . S
H495 C515 0.950 . S
H496 C517 0.950 . S
H497 C520 0.950 . S
H498 C521 0.950 . S
H499 C523 0.951 . S
H500 C524 0.949 . S
H501 C526 0.949 . S
H502 C527 0.950 . S
H503 C529 0.950 . S
H504 C530 0.950 . S
H505 C532 0.950 . S
H506 C535 0.950 . S
H507 C536 0.950 . S
H508 C538 0.951 . S
H509 C539 0.949 . S
C510 C511 1.376 . S
C510 C515 1.386 . S
C510 C516 1.483 . S
C511 H492 0.949 . S
C511 C510 1.376 . S
C511 C512 1.397 . S
C512 H493 0.950 . S
C512 C511 1.397 . S
C512 C513 1.391 . S
C513 C512 1.391 . S
C513 C514 1.405 . S
C514 H494 0.950 . S
C514 C513 1.405 . S
C514 C515 1.367 . S
C515 H495 0.950 . S
C515 C510 1.386 . S
C515 C514 1.367 . S
C516 C510 1.483 . S
C516 C517 1.382 . S
C516 C518 1.403 . S
C517 H496 0.950 . S
C517 C516 1.382 . S
C517 C533 1.411 . S
C518 C516 1.403 . S
C518 C519 1.489 . S
C518 C532 1.411 . S
C519 C518 1.489 . S
C519 C520 1.383 . S
C519 C524 1.382 . S
C520 H497 0.950 . S
C520 C519 1.383 . S
C520 C521 1.395 . S
C521 H498 0.950 . S
C521 C520 1.395 . S
C521 C522 1.288 . S
C522 C521 1.288 . S
C522 C523 1.392 . S
C523 H499 0.951 . S
C523 C522 1.392 . S
C523 C524 1.392 . S
C524 H500 0.949 . S
C524 C519 1.382 . S
C524 C523 1.392 . S
C525 C526 1.376 . S
C525 C530 1.386 . S
C525 C531 1.483 . S
C526 H501 0.949 . S
C526 C525 1.376 . S
C526 C527 1.397 . S
C527 H502 0.950 . S
C527 C526 1.397 . S
C527 C528 1.391 . S
C528 C527 1.391 . S
C528 C529 1.405 . S
C529 H503 0.950 . S
C529 C528 1.405 . S
C529 C530 1.367 . S
C530 H504 0.950 . S
C530 C525 1.386 . S
C530 C529 1.367 . S
C531 C525 1.483 . S
C531 C532 1.382 . S
C531 C533 1.403 . S
C532 H505 0.950 . S
C532 C518 1.411 . S
C532 C531 1.382 . S
C533 C517 1.411 . S
C533 C531 1.403 . S
C533 C534 1.489 . S
C534 C533 1.489 . S
C534 C535 1.383 . S
C534 C539 1.382 . S
C535 H506 0.950 . S
C535 C534 1.383 . S
C535 C536 1.395 . S
C536 H507 0.950 . S
C536 C535 1.395 . S
C536 C537 1.288 . S
C537 C536 1.288 . S
C537 C538 1.392 . S
C538 H508 0.951 . S
C538 C537 1.392 . S
C538 C539 1.392 . S
C539 H509 0.949 . S
C539 C534 1.382 . S
C539 C538 1.392 . S
H540 C559 0.949 . S
H541 C560 0.950 . S
H542 C562 0.950 . S
H543 C563 0.950 . S
H544 C565 0.950 . S
H545 C568 0.950 . S
H546 C569 0.950 . S
H547 C571 0.951 . S
H548 C572 0.949 . S
H549 C574 0.949 . S
H550 C575 0.950 . S
H551 C577 0.950 . S
H552 C578 0.950 . S
H553 C580 0.950 . S
H554 C583 0.950 . S
H555 C584 0.950 . S
H556 C586 0.951 . S
H557 C587 0.949 . S
C558 C559 1.376 . S
C558 C563 1.386 . S
C558 C564 1.483 . S
C559 H540 0.949 . S
C559 C558 1.376 . S
C559 C560 1.397 . S
C560 H541 0.950 . S
C560 C559 1.397 . S
C560 C561 1.391 . S
C561 C560 1.391 . S
C561 C562 1.405 . S
C562 H542 0.950 . S
C562 C561 1.405 . S
C562 C563 1.367 . S
C563 H543 0.950 . S
C563 C558 1.386 . S
C563 C562 1.367 . S
C564 C558 1.483 . S
C564 C565 1.382 . S
C564 C566 1.403 . S
C565 H544 0.950 . S
C565 C564 1.382 . S
C565 C581 1.411 . S
C566 C564 1.403 . S
C566 C567 1.489 . S
C566 C580 1.411 . S
C567 C566 1.489 . S
C567 C568 1.383 . S
C567 C572 1.382 . S
C568 H545 0.950 . S
C568 C567 1.383 . S
C568 C569 1.395 . S
C569 H546 0.950 . S
C569 C568 1.395 . S
C569 C570 1.288 . S
C570 C569 1.288 . S
C570 C571 1.392 . S
C571 H547 0.951 . S
C571 C570 1.392 . S
C571 C572 1.392 . S
C572 H548 0.949 . S
C572 C567 1.382 . S
C572 C571 1.392 . S
C573 C574 1.376 . S
C573 C578 1.386 . S
C573 C579 1.483 . S
C574 H549 0.949 . S
C574 C573 1.376 . S
C574 C575 1.397 . S
C575 H550 0.950 . S
C575 C574 1.397 . S
C575 C576 1.391 . S
C576 C575 1.391 . S
C576 C577 1.405 . S
C577 H551 0.950 . S
C577 C576 1.405 . S
C577 C578 1.367 . S
C578 H552 0.950 . S
C578 C573 1.386 . S
C578 C577 1.367 . S
C579 C573 1.483 . S
C579 C580 1.382 . S
C579 C581 1.403 . S
C580 H553 0.950 . S
C580 C566 1.411 . S
C580 C579 1.382 . S
C581 C565 1.411 . S
C581 C579 1.403 . S
C581 C582 1.489 . S
C582 C581 1.489 . S
C582 C583 1.383 . S
C582 C587 1.382 . S
C583 H554 0.950 . S
C583 C582 1.383 . S
C583 C584 1.395 . S
C584 H555 0.950 . S
C584 C583 1.395 . S
C584 C585 1.288 . S
C585 C584 1.288 . S
C585 C586 1.392 . S
C586 H556 0.951 . S
C586 C585 1.392 . S
C586 C587 1.392 . S
C587 H557 0.949 . S
C587 C582 1.382 . S
C587 C586 1.392 . S
H588 C607 0.949 . S
H589 C608 0.950 . S
H590 C610 0.950 . S
H591 C611 0.950 . S
H592 C613 0.950 . S
H593 C616 0.950 . S
H594 C617 0.950 . S
H595 C619 0.951 . S
H596 C620 0.949 . S
H597 C622 0.949 . S
H598 C623 0.950 . S
H599 C625 0.950 . S
H600 C626 0.950 . S
H601 C628 0.950 . S
H602 C631 0.950 . S
H603 C632 0.950 . S
H604 C634 0.951 . S
H605 C635 0.949 . S
C606 C607 1.376 . S
C606 C611 1.386 . S
C606 C612 1.483 . S
C607 H588 0.949 . S
C607 C606 1.376 . S
C607 C608 1.397 . S
C608 H589 0.950 . S
C608 C607 1.397 . S
C608 C609 1.391 . S
C609 C608 1.391 . S
C609 C610 1.405 . S
C610 H590 0.950 . S
C610 C609 1.405 . S
C610 C611 1.367 . S
C611 H591 0.950 . S
C611 C606 1.386 . S
C611 C610 1.367 . S
C612 C606 1.483 . S
C612 C613 1.382 . S
C612 C614 1.403 . S
C613 H592 0.950 . S
C613 C612 1.382 . S
C613 C629 1.411 . S
C614 C612 1.403 . S
C614 C615 1.489 . S
C614 C628 1.411 . S
C615 C614 1.489 . S
C615 C616 1.383 . S
C615 C620 1.382 . S
C616 H593 0.950 . S
C616 C615 1.383 . S
C616 C617 1.395 . S
C617 H594 0.950 . S
C617 C616 1.395 . S
C617 C618 1.288 . S
C618 C617 1.288 . S
C618 C619 1.392 . S
C619 H595 0.951 . S
C619 C618 1.392 . S
C619 C620 1.392 . S
C620 H596 0.949 . S
C620 C615 1.382 . S
C620 C619 1.392 . S
C621 C622 1.376 . S
C621 C626 1.386 . S
C621 C627 1.483 . S
C622 H597 0.949 . S
C622 C621 1.376 . S
C622 C623 1.397 . S
C623 H598 0.950 . S
C623 C622 1.397 . S
C623 C624 1.391 . S
C624 C623 1.391 . S
C624 C625 1.405 . S
C625 H599 0.950 . S
C625 C624 1.405 . S
C625 C626 1.367 . S
C626 H600 0.950 . S
C626 C621 1.386 . S
C626 C625 1.367 . S
C627 C621 1.483 . S
C627 C628 1.382 . S
C627 C629 1.403 . S
C628 H601 0.950 . S
C628 C614 1.411 . S
C628 C627 1.382 . S
C629 C613 1.411 . S
C629 C627 1.403 . S
C629 C630 1.489 . S
C630 C629 1.489 . S
C630 C631 1.383 . S
C630 C635 1.382 . S
C631 H602 0.950 . S
C631 C630 1.383 . S
C631 C632 1.395 . S
C632 H603 0.950 . S
C632 C631 1.395 . S
C632 C633 1.288 . S
C633 C632 1.288 . S
C633 C634 1.392 . S
C634 H604 0.951 . S
C634 C633 1.392 . S
C634 C635 1.392 . S
C635 H605 0.949 . S
C635 C630 1.382 . S
C635 C634 1.392 . S
H636 C655 0.949 . S
H637 C656 0.950 . S
H638 C658 0.950 . S
H639 C659 0.950 . S
H640 C661 0.950 . S
H641 C664 0.950 . S
H642 C665 0.950 . S
H643 C667 0.951 . S
H644 C668 0.949 . S
H645 C670 0.949 . S
H646 C671 0.950 . S
H647 C673 0.950 . S
H648 C674 0.950 . S
H649 C676 0.950 . S
H650 C679 0.950 . S
H651 C680 0.950 . S
H652 C682 0.951 . S
H653 C683 0.949 . S
C654 C655 1.376 . S
C654 C659 1.386 . S
C654 C660 1.483 . S
C655 H636 0.949 . S
C655 C654 1.376 . S
C655 C656 1.397 . S
C656 H637 0.950 . S
C656 C655 1.397 . S
C656 C657 1.391 . S
C657 C656 1.391 . S
C657 C658 1.405 . S
C658 H638 0.950 . S
C658 C657 1.405 . S
C658 C659 1.367 . S
C659 H639 0.950 . S
C659 C654 1.386 . S
C659 C658 1.367 . S
C660 C654 1.483 . S
C660 C661 1.382 . S
C660 C662 1.403 . S
C661 H640 0.950 . S
C661 C660 1.382 . S
C661 C677 1.411 . S
C662 C660 1.403 . S
C662 C663 1.489 . S
C662 C676 1.411 . S
C663 C662 1.489 . S
C663 C664 1.383 . S
C663 C668 1.382 . S
C664 H641 0.950 . S
C664 C663 1.383 . S
C664 C665 1.395 . S
C665 H642 0.950 . S
C665 C664 1.395 . S
C665 C666 1.288 . S
C666 C665 1.288 . S
C666 C667 1.392 . S
C667 H643 0.951 . S
C667 C666 1.392 . S
C667 C668 1.392 . S
C668 H644 0.949 . S
C668 C663 1.382 . S
C668 C667 1.392 . S
C669 C670 1.376 . S
C669 C674 1.386 . S
C669 C675 1.483 . S
C670 H645 0.949 . S
C670 C669 1.376 . S
C670 C671 1.397 . S
C671 H646 0.950 . S
C671 C670 1.397 . S
C671 C672 1.391 . S
C672 C671 1.391 . S
C672 C673 1.405 . S
C673 H647 0.950 . S
C673 C672 1.405 . S
C673 C674 1.367 . S
C674 H648 0.950 . S
C674 C669 1.386 . S
C674 C673 1.367 . S
C675 C669 1.483 . S
C675 C676 1.382 . S
C675 C677 1.403 . S
C676 H649 0.950 . S
C676 C662 1.411 . S
C676 C675 1.382 . S
C677 C661 1.411 . S
C677 C675 1.403 . S
C677 C678 1.489 . S
C678 C677 1.489 . S
C678 C679 1.383 . S
C678 C683 1.382 . S
C679 H650 0.950 . S
C679 C678 1.383 . S
C679 C680 1.395 . S
C680 H651 0.950 . S
C680 C679 1.395 . S
C680 C681 1.288 . S
C681 C680 1.288 . S
C681 C682 1.392 . S
C682 H652 0.951 . S
C682 C681 1.392 . S
C682 C683 1.392 . S
C683 H653 0.949 . S
C683 C678 1.382 . S
C683 C682 1.392 . S
H684 C703 0.949 . S
H685 C704 0.950 . S
H686 C706 0.950 . S
H687 C707 0.950 . S
H688 C709 0.950 . S
H689 C712 0.950 . S
H690 C713 0.950 . S
H691 C715 0.951 . S
H692 C716 0.949 . S
H693 C718 0.949 . S
H694 C719 0.950 . S
H695 C721 0.950 . S
H696 C722 0.950 . S
H697 C724 0.950 . S
H698 C727 0.950 . S
H699 C728 0.950 . S
H700 C730 0.951 . S
H701 C731 0.949 . S
C702 C703 1.376 . S
C702 C707 1.386 1_655 S
C702 C708 1.483 . S
C703 H684 0.949 . S
C703 C702 1.376 . S
C703 C704 1.397 . S
C704 H685 0.950 . S
C704 C703 1.397 . S
C704 C705 1.391 . S
C705 C704 1.391 . S
C705 C706 1.405 1_655 S
C706 H686 0.950 . S
C706 C705 1.405 1_455 S
C706 C707 1.367 . S
C707 H687 0.950 . S
C707 C702 1.386 1_455 S
C707 C706 1.367 . S
C708 C702 1.483 . S
C708 C709 1.382 . S
C708 C710 1.403 1_655 S
C709 H688 0.950 . S
C709 C708 1.382 . S
C709 C725 1.411 . S
C710 C708 1.403 1_455 S
C710 C711 1.489 . S
C710 C724 1.411 . S
C711 C710 1.489 . S
C711 C712 1.383 1_455 S
C711 C716 1.382 . S
C712 H689 0.950 . S
C712 C711 1.383 1_655 S
C712 C713 1.395 . S
C713 H690 0.950 . S
C713 C712 1.395 . S
C713 C714 1.288 1_655 S
C714 C713 1.288 1_455 S
C714 C715 1.392 . S
C715 H691 0.951 . S
C715 C714 1.392 . S
C715 C716 1.392 . S
C716 H692 0.949 . S
C716 C711 1.382 . S
C716 C715 1.392 . S
C717 C718 1.376 . S
C717 C722 1.386 1_455 S
C717 C723 1.483 . S
C718 H693 0.949 . S
C718 C717 1.376 . S
C718 C719 1.397 . S
C719 H694 0.950 . S
C719 C718 1.397 . S
C719 C720 1.391 . S
C720 C719 1.391 . S
C720 C721 1.405 1_455 S
C721 H695 0.950 . S
C721 C720 1.405 1_655 S
C721 C722 1.367 . S
C722 H696 0.950 . S
C722 C717 1.386 1_655 S
C722 C721 1.367 . S
C723 C717 1.483 . S
C723 C724 1.382 . S
C723 C725 1.403 1_455 S
C724 H697 0.950 . S
C724 C710 1.411 . S
C724 C723 1.382 . S
C725 C709 1.411 . S
C725 C723 1.403 1_655 S
C725 C726 1.489 . S
C726 C725 1.489 . S
C726 C727 1.383 1_655 S
C726 C731 1.382 . S
C727 H698 0.950 . S
C727 C726 1.383 1_455 S
C727 C728 1.395 . S
C728 H699 0.950 . S
C728 C727 1.395 . S
C728 C729 1.288 1_455 S
C729 C728 1.288 1_655 S
C729 C730 1.392 . S
C730 H700 0.951 . S
C730 C729 1.392 . S
C730 C731 1.392 . S
C731 H701 0.949 . S
C731 C726 1.382 . S
C731 C730 1.392 . S
H732 C751 0.949 . S
H733 C752 0.950 . S
H734 C754 0.950 . S
H735 C755 0.950 . S
H736 C757 0.950 . S
H737 C760 0.950 . S
H738 C761 0.950 . S
H739 C763 0.951 . S
H740 C764 0.949 . S
H741 C766 0.949 . S
H742 C767 0.950 . S
H743 C769 0.950 . S
H744 C770 0.950 . S
H745 C772 0.950 . S
H746 C775 0.950 . S
H747 C776 0.950 . S
H748 C778 0.951 . S
H749 C779 0.949 . S
C750 C751 1.376 . S
C750 C755 1.386 . S
C750 C756 1.483 . S
C751 H732 0.949 . S
C751 C750 1.376 . S
C751 C752 1.397 . S
C752 H733 0.950 . S
C752 C751 1.397 . S
C752 C753 1.391 . S
C753 C752 1.391 . S
C753 C754 1.405 . S
C754 H734 0.950 . S
C754 C753 1.405 . S
C754 C755 1.367 . S
C755 H735 0.950 . S
C755 C750 1.386 . S
C755 C754 1.367 . S
C756 C750 1.483 . S
C756 C757 1.382 . S
C756 C758 1.403 . S
C757 H736 0.950 . S
C757 C756 1.382 . S
C757 C773 1.411 . S
C758 C756 1.403 . S
C758 C759 1.489 . S
C758 C772 1.411 . S
C759 C758 1.489 . S
C759 C760 1.383 . S
C759 C764 1.382 . S
C760 H737 0.950 . S
C760 C759 1.383 . S
C760 C761 1.395 . S
C761 H738 0.950 . S
C761 C760 1.395 . S
C761 C762 1.288 . S
C762 C761 1.288 . S
C762 C763 1.392 . S
C763 H739 0.951 . S
C763 C762 1.392 . S
C763 C764 1.392 . S
C764 H740 0.949 . S
C764 C759 1.382 . S
C764 C763 1.392 . S
C765 C766 1.376 . S
C765 C770 1.386 . S
C765 C771 1.483 . S
C766 H741 0.949 . S
C766 C765 1.376 . S
C766 C767 1.397 . S
C767 H742 0.950 . S
C767 C766 1.397 . S
C767 C768 1.391 . S
C768 C767 1.391 . S
C768 C769 1.405 . S
C769 H743 0.950 . S
C769 C768 1.405 . S
C769 C770 1.367 . S
C770 H744 0.950 . S
C770 C765 1.386 . S
C770 C769 1.367 . S
C771 C765 1.483 . S
C771 C772 1.382 . S
C771 C773 1.403 . S
C772 H745 0.950 . S
C772 C758 1.411 . S
C772 C771 1.382 . S
C773 C757 1.411 . S
C773 C771 1.403 . S
C773 C774 1.489 . S
C774 C773 1.489 . S
C774 C775 1.383 . S
C774 C779 1.382 . S
C775 H746 0.950 . S
C775 C774 1.383 . S
C775 C776 1.395 . S
C776 H747 0.950 . S
C776 C775 1.395 . S
C776 C777 1.288 . S
C777 C776 1.288 . S
C777 C778 1.392 . S
C778 H748 0.951 . S
C778 C777 1.392 . S
C778 C779 1.392 . S
C779 H749 0.949 . S
C779 C774 1.382 . S
C779 C778 1.392 . S
H780 C799 0.949 . S
H781 C800 0.950 . S
H782 C802 0.950 . S
H783 C803 0.950 . S
H784 C805 0.950 . S
H785 C808 0.950 . S
H786 C809 0.950 . S
H787 C811 0.951 . S
H788 C812 0.949 . S
H789 C814 0.949 . S
H790 C815 0.950 . S
H791 C817 0.950 . S
H792 C818 0.950 . S
H793 C820 0.950 . S
H794 C823 0.950 . S
H795 C824 0.950 . S
H796 C826 0.951 . S
H797 C827 0.949 . S
C798 C799 1.376 . S
C798 C803 1.386 1_545 S
C798 C804 1.483 . S
C799 H780 0.949 . S
C799 C798 1.376 . S
C799 C800 1.397 . S
C800 H781 0.950 . S
C800 C799 1.397 . S
C800 C801 1.391 . S
C801 C800 1.391 . S
C801 C802 1.405 1_545 S
C802 H782 0.950 . S
C802 C801 1.405 1_565 S
C802 C803 1.367 . S
C803 H783 0.950 . S
C803 C798 1.386 1_565 S
C803 C802 1.367 . S
C804 C798 1.483 . S
C804 C805 1.382 . S
C804 C806 1.403 1_545 S
C805 H784 0.950 . S
C805 C804 1.382 . S
C805 C821 1.411 . S
C806 C804 1.403 1_565 S
C806 C807 1.489 . S
C806 C820 1.411 . S
C807 C806 1.489 . S
C807 C808 1.383 1_565 S
C807 C812 1.382 . S
C808 H785 0.950 . S
C808 C807 1.383 1_545 S
C808 C809 1.395 . S
C809 H786 0.950 . S
C809 C808 1.395 . S
C809 C810 1.288 1_545 S
C810 C809 1.288 1_565 S
C810 C811 1.392 . S
C811 H787 0.951 . S
C811 C810 1.392 . S
C811 C812 1.392 . S
C812 H788 0.949 . S
C812 C807 1.382 . S
C812 C811 1.392 . S
C813 C814 1.376 . S
C813 C818 1.386 1_565 S
C813 C819 1.483 . S
C814 H789 0.949 . S
C814 C813 1.376 . S
C814 C815 1.397 . S
C815 H790 0.950 . S
C815 C814 1.397 . S
C815 C816 1.391 . S
C816 C815 1.391 . S
C816 C817 1.405 1_565 S
C817 H791 0.950 . S
C817 C816 1.405 1_545 S
C817 C818 1.367 . S
C818 H792 0.950 . S
C818 C813 1.386 1_545 S
C818 C817 1.367 . S
C819 C813 1.483 . S
C819 C820 1.382 . S
C819 C821 1.403 1_565 S
C820 H793 0.950 . S
C820 C806 1.411 . S
C820 C819 1.382 . S
C821 C805 1.411 . S
C821 C819 1.403 1_545 S
C821 C822 1.489 . S
C822 C821 1.489 . S
C822 C823 1.383 1_545 S
C822 C827 1.382 . S
C823 H794 0.950 . S
C823 C822 1.383 1_565 S
C823 C824 1.395 . S
C824 H795 0.950 . S
C824 C823 1.395 . S
C824 C825 1.288 1_565 S
C825 C824 1.288 1_545 S
C825 C826 1.392 . S
C826 H796 0.951 . S
C826 C825 1.392 . S
C826 C827 1.392 . S
C827 H797 0.949 . S
C827 C822 1.382 . S
C827 C826 1.392 . S
H828 C847 0.949 . S
H829 C848 0.950 . S
H830 C850 0.950 . S
H831 C851 0.950 . S
H832 C853 0.950 . S
H833 C856 0.950 . S
H834 C857 0.950 . S
H835 C859 0.951 . S
H836 C860 0.949 . S
H837 C862 0.949 . S
H838 C863 0.950 . S
H839 C865 0.950 . S
H840 C866 0.950 . S
H841 C868 0.950 . S
H842 C871 0.950 . S
H843 C872 0.950 . S
H844 C874 0.951 . S
H845 C875 0.949 . S
C846 C847 1.378 1_565 S
C846 C851 1.385 . S
C846 C852 1.482 1_565 S
C847 H828 0.949 . S
C847 C846 1.378 1_545 S
C847 C848 1.397 . S
C848 H829 0.950 . S
C848 C847 1.397 . S
C848 C849 1.391 1_545 S
C849 C848 1.391 1_565 S
C849 C850 1.405 . S
C850 H830 0.950 . S
C850 C849 1.405 . S
C850 C851 1.367 . S
C851 H831 0.950 . S
C851 C846 1.385 . S
C851 C850 1.367 . S
C852 C846 1.482 1_545 S
C852 C853 1.382 . S
C852 C854 1.403 1_545 S
C853 H832 0.950 . S
C853 C852 1.382 . S
C853 C869 1.411 . S
C854 C852 1.403 1_565 S
C854 C855 1.506 . S
C854 C868 1.411 . S
C855 C854 1.506 . S
C855 C856 1.347 1_565 S
C855 C860 1.400 . S
C856 H833 0.950 . S
C856 C855 1.347 1_545 S
C856 C857 1.395 . S
C857 H834 0.950 . S
C857 C856 1.395 . S
C857 C858 1.288 . S
C858 C857 1.288 . S
C858 C859 1.392 1_545 S
C859 H835 0.951 . S
C859 C858 1.392 1_565 S
C859 C860 1.392 . S
C860 H836 0.949 . S
C860 C855 1.400 . S
C860 C859 1.392 . S
C861 C862 1.371 1_545 S
C861 C866 1.388 . S
C861 C867 1.485 1_545 S
C862 H837 0.949 . S
C862 C861 1.371 1_565 S
C862 C863 1.397 . S
C863 H838 0.950 . S
C863 C862 1.397 . S
C863 C864 1.391 1_565 S
C864 C863 1.391 1_545 S
C864 C865 1.405 . S
C865 H839 0.950 . S
C865 C864 1.405 . S
C865 C866 1.367 . S
C866 H840 0.950 . S
C866 C861 1.388 . S
C866 C865 1.367 . S
C867 C861 1.485 1_565 S
C867 C868 1.382 . S
C867 C869 1.403 1_565 S
C868 H841 0.950 . S
C868 C854 1.411 . S
C868 C867 1.382 . S
C869 C853 1.411 . S
C869 C867 1.403 1_545 S
C869 C870 1.489 . S
C870 C869 1.489 . S
C870 C871 1.383 1_545 S
C870 C875 1.382 . S
C871 H842 0.950 . S
C871 C870 1.383 1_565 S
C871 C872 1.395 . S
C872 H843 0.950 . S
C872 C871 1.395 . S
C872 C873 1.288 . S
C873 C872 1.288 . S
C873 C874 1.392 1_565 S
C874 H844 0.951 . S
C874 C873 1.392 1_545 S
C874 C875 1.392 . S
C875 H845 0.949 . S
C875 C870 1.382 . S
C875 C874 1.392 . S
H876 C895 0.949 . S
H877 C896 0.950 . S
H878 C898 0.950 . S
H879 C899 0.950 . S
H880 C901 0.950 . S
H881 C904 0.950 . S
H882 C905 0.950 . S
H883 C907 0.951 . S
H884 C908 0.949 . S
H885 C910 0.949 . S
H886 C911 0.950 . S
H887 C913 0.950 . S
H888 C914 0.950 . S
H889 C916 0.950 . S
H890 C919 0.950 . S
H891 C920 0.950 . S
H892 C922 0.951 . S
H893 C923 0.949 . S
C894 C895 1.376 . S
C894 C899 1.386 1_455 S
C894 C900 1.483 . S
C895 H876 0.949 . S
C895 C894 1.376 . S
C895 C896 1.397 . S
C896 H877 0.950 . S
C896 C895 1.397 . S
C896 C897 1.391 . S
C897 C896 1.391 . S
C897 C898 1.405 1_455 S
C898 H878 0.950 . S
C898 C897 1.405 1_655 S
C898 C899 1.367 . S
C899 H879 0.950 . S
C899 C894 1.386 1_655 S
C899 C898 1.367 . S
C900 C894 1.483 . S
C900 C901 1.382 . S
C900 C902 1.403 1_455 S
C901 H880 0.950 . S
C901 C900 1.382 . S
C901 C917 1.411 . S
C902 C900 1.403 1_655 S
C902 C903 1.489 . S
C902 C916 1.411 . S
C903 C902 1.489 . S
C903 C904 1.383 1_655 S
C903 C908 1.382 . S
C904 H881 0.950 . S
C904 C903 1.383 1_455 S
C904 C905 1.395 . S
C905 H882 0.950 . S
C905 C904 1.395 . S
C905 C906 1.288 1_455 S
C906 C905 1.288 1_655 S
C906 C907 1.392 . S
C907 H883 0.951 . S
C907 C906 1.392 . S
C907 C908 1.392 . S
C908 H884 0.949 . S
C908 C903 1.382 . S
C908 C907 1.392 . S
C909 C910 1.376 . S
C909 C914 1.386 1_655 S
C909 C915 1.483 . S
C910 H885 0.949 . S
C910 C909 1.376 . S
C910 C911 1.397 . S
C911 H886 0.950 . S
C911 C910 1.397 . S
C911 C912 1.391 . S
C912 C911 1.391 . S
C912 C913 1.405 1_655 S
C913 H887 0.950 . S
C913 C912 1.405 1_455 S
C913 C914 1.367 . S
C914 H888 0.950 . S
C914 C909 1.386 1_455 S
C914 C913 1.367 . S
C915 C909 1.483 . S
C915 C916 1.382 . S
C915 C917 1.403 1_655 S
C916 H889 0.950 . S
C916 C902 1.411 . S
C916 C915 1.382 . S
C917 C901 1.411 . S
C917 C915 1.403 1_455 S
C917 C918 1.489 . S
C918 C917 1.489 . S
C918 C919 1.383 1_455 S
C918 C923 1.382 . S
C919 H890 0.950 . S
C919 C918 1.383 1_655 S
C919 C920 1.395 . S
C920 H891 0.950 . S
C920 C919 1.395 . S
C920 C921 1.288 1_655 S
C921 C920 1.288 1_455 S
C921 C922 1.392 . S
C922 H892 0.951 . S
C922 C921 1.392 . S
C922 C923 1.392 . S
C923 H893 0.949 . S
C923 C918 1.382 . S
C923 C922 1.392 . S
H924 C943 0.949 . S
H925 C944 0.950 . S
H926 C946 0.950 . S
H927 C947 0.950 . S
H928 C949 0.950 . S
H929 C952 0.950 . S
H930 C953 0.950 . S
H931 C955 0.951 . S
H932 C956 0.949 . S
H933 C958 0.949 . S
H934 C959 0.950 . S
H935 C961 0.950 . S
H936 C962 0.950 . S
H937 C964 0.950 . S
H938 C967 0.950 . S
H939 C968 0.950 . S
H940 C970 0.951 . S
H941 C971 0.949 . S
C942 C943 1.376 . S
C942 C947 1.386 . S
C942 C948 1.483 . S
C943 H924 0.949 . S
C943 C942 1.376 . S
C943 C944 1.397 . S
C944 H925 0.950 . S
C944 C943 1.397 . S
C944 C945 1.391 . S
C945 C944 1.391 . S
C945 C946 1.405 . S
C946 H926 0.950 . S
C946 C945 1.405 . S
C946 C947 1.367 . S
C947 H927 0.950 . S
C947 C942 1.386 . S
C947 C946 1.367 . S
C948 C942 1.483 . S
C948 C949 1.382 . S
C948 C950 1.403 . S
C949 H928 0.950 . S
C949 C948 1.382 . S
C949 C965 1.411 . S
C950 C948 1.403 . S
C950 C951 1.489 . S
C950 C964 1.411 . S
C951 C950 1.489 . S
C951 C952 1.383 . S
C951 C956 1.382 . S
C952 H929 0.950 . S
C952 C951 1.383 . S
C952 C953 1.395 . S
C953 H930 0.950 . S
C953 C952 1.395 . S
C953 C954 1.288 . S
C954 C953 1.288 . S
C954 C955 1.392 . S
C955 H931 0.951 . S
C955 C954 1.392 . S
C955 C956 1.392 . S
C956 H932 0.949 . S
C956 C951 1.382 . S
C956 C955 1.392 . S
C957 C958 1.376 . S
C957 C962 1.386 . S
C957 C963 1.483 . S
C958 H933 0.949 . S
C958 C957 1.376 . S
C958 C959 1.397 . S
C959 H934 0.950 . S
C959 C958 1.397 . S
C959 C960 1.391 . S
C960 C959 1.391 . S
C960 C961 1.405 . S
C961 H935 0.950 . S
C961 C960 1.405 . S
C961 C962 1.367 . S
C962 H936 0.950 . S
C962 C957 1.386 . S
C962 C961 1.367 . S
C963 C957 1.483 . S
C963 C964 1.382 . S
C963 C965 1.403 . S
C964 H937 0.950 . S
C964 C950 1.411 . S
C964 C963 1.382 . S
C965 C949 1.411 . S
C965 C963 1.403 . S
C965 C966 1.489 . S
C966 C965 1.489 . S
C966 C967 1.383 . S
C966 C971 1.382 . S
C967 H938 0.950 . S
C967 C966 1.383 . S
C967 C968 1.395 . S
C968 H939 0.950 . S
C968 C967 1.395 . S
C968 C969 1.288 . S
C969 C968 1.288 . S
C969 C970 1.392 . S
C970 H940 0.951 . S
C970 C969 1.392 . S
C970 C971 1.392 . S
C971 H941 0.949 . S
C971 C966 1.382 . S
C971 C970 1.392 . S
H972 C991 0.949 . S
H973 C992 0.950 . S
H974 C994 0.950 . S
H975 C995 0.950 . S
H976 C997 0.950 . S
H977 C1000 0.950 . S
H978 C1001 0.950 . S
H979 C1003 0.951 . S
H980 C1004 0.949 . S
H981 C1006 0.949 . S
H982 C1007 0.950 . S
H983 C1009 0.950 . S
H984 C1010 0.950 . S
H985 C1012 0.950 . S
H986 C1015 0.950 . S
H987 C1016 0.950 . S
H988 C1018 0.951 . S
H989 C1019 0.949 . S
C990 C991 1.376 . S
C990 C995 1.386 . S
C990 C996 1.483 . S
C991 H972 0.949 . S
C991 C990 1.376 . S
C991 C992 1.397 . S
C992 H973 0.950 . S
C992 C991 1.397 . S
C992 C993 1.391 . S
C993 C992 1.391 . S
C993 C994 1.405 . S
C994 H974 0.950 . S
C994 C993 1.405 . S
C994 C995 1.367 . S
C995 H975 0.950 . S
C995 C990 1.386 . S
C995 C994 1.367 . S
C996 C990 1.483 . S
C996 C997 1.382 . S
C996 C998 1.403 . S
C997 H976 0.950 . S
C997 C996 1.382 . S
C997 C1013 1.411 . S
C998 C996 1.403 . S
C998 C999 1.489 . S
C998 C1012 1.411 . S
C999 C998 1.489 . S
C999 C1000 1.383 . S
C999 C1004 1.382 . S
C1000 H977 0.950 . S
C1000 C999 1.383 . S
C1000 C1001 1.395 . S
C1001 H978 0.950 . S
C1001 C1000 1.395 . S
C1001 C1002 1.288 . S
C1002 C1001 1.288 . S
C1002 C1003 1.392 . S
C1003 H979 0.951 . S
C1003 C1002 1.392 . S
C1003 C1004 1.392 . S
C1004 H980 0.949 . S
C1004 C999 1.382 . S
C1004 C1003 1.392 . S
C1005 C1006 1.376 . S
C1005 C1010 1.386 . S
C1005 C1011 1.483 . S
C1006 H981 0.949 . S
C1006 C1005 1.376 . S
C1006 C1007 1.397 . S
C1007 H982 0.950 . S
C1007 C1006 1.397 . S
C1007 C1008 1.391 . S
C1008 C1007 1.391 . S
C1008 C1009 1.405 . S
C1009 H983 0.950 . S
C1009 C1008 1.405 . S
C1009 C1010 1.367 . S
C1010 H984 0.950 . S
C1010 C1005 1.386 . S
C1010 C1009 1.367 . S
C1011 C1005 1.483 . S
C1011 C1012 1.382 . S
C1011 C1013 1.403 . S
C1012 H985 0.950 . S
C1012 C998 1.411 . S
C1012 C1011 1.382 . S
C1013 C997 1.411 . S
C1013 C1011 1.403 . S
C1013 C1014 1.489 . S
C1014 C1013 1.489 . S
C1014 C1015 1.383 . S
C1014 C1019 1.382 . S
C1015 H986 0.950 . S
C1015 C1014 1.383 . S
C1015 C1016 1.395 . S
C1016 H987 0.950 . S
C1016 C1015 1.395 . S
C1016 C1017 1.288 . S
C1017 C1016 1.288 . S
C1017 C1018 1.392 . S
C1018 H988 0.951 . S
C1018 C1017 1.392 . S
C1018 C1019 1.392 . S
C1019 H989 0.949 . S
C1019 C1014 1.382 . S
C1019 C1018 1.392 . S
H1020 C1039 0.949 . S
H1021 C1040 0.950 . S
H1022 C1042 0.950 . S
H1023 C1043 0.950 . S
H1024 C1045 0.950 . S
H1025 C1048 0.950 . S
H1026 C1049 0.950 . S
H1027 C1051 0.951 . S
H1028 C1052 0.949 . S
H1029 C1054 0.949 . S
H1030 C1055 0.950 . S
H1031 C1057 0.950 . S
H1032 C1058 0.950 . S
H1033 C1060 0.950 . S
H1034 C1063 0.950 . S
H1035 C1064 0.950 . S
H1036 C1066 0.951 . S
H1037 C1067 0.949 . S
C1038 C1039 1.376 . S
C1038 C1043 1.386 . S
C1038 C1044 1.483 . S
C1039 H1020 0.949 . S
C1039 C1038 1.376 . S
C1039 C1040 1.397 . S
C1040 H1021 0.950 . S
C1040 C1039 1.397 . S
C1040 C1041 1.391 . S
C1041 C1040 1.391 . S
C1041 C1042 1.405 . S
C1042 H1022 0.950 . S
C1042 C1041 1.405 . S
C1042 C1043 1.367 . S
C1043 H1023 0.950 . S
C1043 C1038 1.386 . S
C1043 C1042 1.367 . S
C1044 C1038 1.483 . S
C1044 C1045 1.382 . S
C1044 C1046 1.403 . S
C1045 H1024 0.950 . S
C1045 C1044 1.382 . S
C1045 C1061 1.411 . S
C1046 C1044 1.403 . S
C1046 C1047 1.489 . S
C1046 C1060 1.411 . S
C1047 C1046 1.489 . S
C1047 C1048 1.383 . S
C1047 C1052 1.382 . S
C1048 H1025 0.950 . S
C1048 C1047 1.383 . S
C1048 C1049 1.395 . S
C1049 H1026 0.950 . S
C1049 C1048 1.395 . S
C1049 C1050 1.288 . S
C1050 C1049 1.288 . S
C1050 C1051 1.392 . S
C1051 H1027 0.951 . S
C1051 C1050 1.392 . S
C1051 C1052 1.392 . S
C1052 H1028 0.949 . S
C1052 C1047 1.382 . S
C1052 C1051 1.392 . S
C1053 C1054 1.376 . S
C1053 C1058 1.386 . S
C1053 C1059 1.483 . S
C1054 H1029 0.949 . S
C1054 C1053 1.376 . S
C1054 C1055 1.397 . S
C1055 H1030 0.950 . S
C1055 C1054 1.397 . S
C1055 C1056 1.391 . S
C1056 C1055 1.391 . S
C1056 C1057 1.405 . S
C1057 H1031 0.950 . S
C1057 C1056 1.405 . S
C1057 C1058 1.367 . S
C1058 H1032 0.950 . S
C1058 C1053 1.386 . S
C1058 C1057 1.367 . S
C1059 C1053 1.483 . S
C1059 C1060 1.382 . S
C1059 C1061 1.403 . S
C1060 H1033 0.950 . S
C1060 C1046 1.411 . S
C1060 C1059 1.382 . S
C1061 C1045 1.411 . S
C1061 C1059 1.403 . S
C1061 C1062 1.489 . S
C1062 C1061 1.489 . S
C1062 C1063 1.383 . S
C1062 C1067 1.382 . S
C1063 H1034 0.950 . S
C1063 C1062 1.383 . S
C1063 C1064 1.395 . S
C1064 H1035 0.950 . S
C1064 C1063 1.395 . S
C1064 C1065 1.288 . S
C1065 C1064 1.288 . S
C1065 C1066 1.392 . S
C1066 H1036 0.951 . S
C1066 C1065 1.392 . S
C1066 C1067 1.392 . S
C1067 H1037 0.949 . S
C1067 C1062 1.382 . S
C1067 C1066 1.392 . S
H1068 C1087 0.949 . S
H1069 C1088 0.950 . S
H1070 C1090 0.950 . S
H1071 C1091 0.950 . S
H1072 C1093 0.950 . S
H1073 C1096 0.950 . S
H1074 C1097 0.950 . S
H1075 C1099 0.951 . S
H1076 C1100 0.949 . S
H1077 C1102 0.949 . S
H1078 C1103 0.950 . S
H1079 C1105 0.950 . S
H1080 C1106 0.950 . S
H1081 C1108 0.950 . S
H1082 C1111 0.950 . S
H1083 C1112 0.950 . S
H1084 C1114 0.951 . S
H1085 C1115 0.949 . S
C1086 C1087 1.376 . S
C1086 C1091 1.386 . S
C1086 C1092 1.483 . S
C1087 H1068 0.949 . S
C1087 C1086 1.376 . S
C1087 C1088 1.397 . S
C1088 H1069 0.950 . S
C1088 C1087 1.397 . S
C1088 C1089 1.391 . S
C1089 C1088 1.391 . S
C1089 C1090 1.405 . S
C1090 H1070 0.950 . S
C1090 C1089 1.405 . S
C1090 C1091 1.367 . S
C1091 H1071 0.950 . S
C1091 C1086 1.386 . S
C1091 C1090 1.367 . S
C1092 C1086 1.483 . S
C1092 C1093 1.382 . S
C1092 C1094 1.403 . S
C1093 H1072 0.950 . S
C1093 C1092 1.382 . S
C1093 C1109 1.411 . S
C1094 C1092 1.403 . S
C1094 C1095 1.489 . S
C1094 C1108 1.411 . S
C1095 C1094 1.489 . S
C1095 C1096 1.383 . S
C1095 C1100 1.382 . S
C1096 H1073 0.950 . S
C1096 C1095 1.383 . S
C1096 C1097 1.395 . S
C1097 H1074 0.950 . S
C1097 C1096 1.395 . S
C1097 C1098 1.288 . S
C1098 C1097 1.288 . S
C1098 C1099 1.392 . S
C1099 H1075 0.951 . S
C1099 C1098 1.392 . S
C1099 C1100 1.392 . S
C1100 H1076 0.949 . S
C1100 C1095 1.382 . S
C1100 C1099 1.392 . S
C1101 C1102 1.376 . S
C1101 C1106 1.386 . S
C1101 C1107 1.483 . S
C1102 H1077 0.949 . S
C1102 C1101 1.376 . S
C1102 C1103 1.397 . S
C1103 H1078 0.950 . S
C1103 C1102 1.397 . S
C1103 C1104 1.391 . S
C1104 C1103 1.391 . S
C1104 C1105 1.405 . S
C1105 H1079 0.950 . S
C1105 C1104 1.405 . S
C1105 C1106 1.367 . S
C1106 H1080 0.950 . S
C1106 C1101 1.386 . S
C1106 C1105 1.367 . S
C1107 C1101 1.483 . S
C1107 C1108 1.382 . S
C1107 C1109 1.403 . S
C1108 H1081 0.950 . S
C1108 C1094 1.411 . S
C1108 C1107 1.382 . S
C1109 C1093 1.411 . S
C1109 C1107 1.403 . S
C1109 C1110 1.489 . S
C1110 C1109 1.489 . S
C1110 C1111 1.383 . S
C1110 C1115 1.382 . S
C1111 H1082 0.950 . S
C1111 C1110 1.383 . S
C1111 C1112 1.395 . S
C1112 H1083 0.950 . S
C1112 C1111 1.395 . S
C1112 C1113 1.288 . S
C1113 C1112 1.288 . S
C1113 C1114 1.392 . S
C1114 H1084 0.951 . S
C1114 C1113 1.392 . S
C1114 C1115 1.392 . S
C1115 H1085 0.949 . S
C1115 C1110 1.382 . S
C1115 C1114 1.392 . S
C4 C729 1.583 . S
C26 C777 1.699 . S
C825 C32 1.534 . S
C40 C849 1.543 . S
C12 C921 1.561 . S
C18 C969 1.618 . S
C46 C897 1.654 . S
C945 C68 1.681 . S
C873 C74 1.589 . S
C82 C801 1.534 . S
C705 C54 1.582 . S
C60 C753 1.635 . S
C88 C1017 1.830 . S
C110 C1065 1.848 . S
C1089 C116 1.729 . S
C124 C273 1.560 . S
C96 C345 1.689 . S
C102 C393 1.738 . S
C130 C321 1.758 . S
C152 C369 1.799 . S
C297 C158 1.640 . S
C1113 C166 1.585 . S
C993 C138 1.684 . S
C1041 C144 1.798 . S
C172 C441 1.755 . S
C194 C489 1.819 . S
C200 C513 1.721 . S
C208 C561 1.628 . S
C633 C180 1.697 . S
C681 C186 1.774 . S
C609 C214 1.843 . S
C657 C236 1.824 . S
C242 C585 1.639 . S
C537 C250 1.508 . S
C222 C417 1.687 . S
C465 C228 1.761 . S
C282 C5 1.792 . S
C25 C336 2.045 . S
C384 C33 1.833 . S
C432 C39 2.003 . S
C480 C11 2.082 . S
C522 C19 1.652 . S
C47 C528 1.754 . S
C67 C426 1.987 . S
C75 C474 1.783 . S
C81 C330 1.919 . S
C378 C53 2.032 . S
C61 C288 1.617 . S
C570 C89 1.646 . S
C109 C624 2.009 . S
C117 C672 1.624 . S
C720 C123 1.356 . S
C95 C768 1.875 . S
C103 C816 1.154 . S
C131 C810 1.027 . S
C151 C714 1.408 . S
C762 C159 1.495 . S
C165 C618 1.840 . S
C137 C666 1.923 . S
C576 C145 1.583 . S
C858 C173 1.088 . S
C193 C912 1.364 . S
C201 C960 1.582 . S
C1008 C207 1.897 . S
C1056 C179 1.993 . S
C187 C1098 1.601 . S
C215 C1104 1.635 . S
C235 C1002 1.962 . S
C1050 C243 1.528 . S
C906 C249 1.249 . S
C954 C221 1.821 . S
C229 C864 1.167 . S
