# Generated by pormake.
# Topology llj, (12,3)-cn, num edge types: 1
# Building blocks:
#     Node 0, Type 0, BuildingBlock: QEWDON_clean_sbu_0, # of connection points: 12
#     Node 1, Type 0, BuildingBlock: QEWDON_clean_sbu_0, # of connection points: 12
#     Node 2, Type 1, BuildingBlock: VETTIZ_charged_linker_0, # of connection points: 3
#     Node 3, Type 1, BuildingBlock: VETTIZ_charged_linker_0, # of connection points: 3
#     Node 4, Type 1, BuildingBlock: VETTIZ_charged_linker_0, # of connection points: 3
#     Node 5, Type 1, BuildingBlock: VETTIZ_charged_linker_0, # of connection points: 3
#     Node 6, Type 1, BuildingBlock: VETTIZ_charged_linker_0, # of connection points: 3
#     Node 7, Type 1, BuildingBlock: VETTIZ_charged_linker_0, # of connection points: 3
#     Node 8, Type 1, BuildingBlock: VETTIZ_charged_linker_0, # of connection points: 3
#     Node 9, Type 1, BuildingBlock: VETTIZ_charged_linker_0, # of connection points: 3
#     Edge 10, Type (0, 1), BuildingBlock: ZUJKAS_clean_linker_0, # of connection points: 2
#     Edge 11, Type (0, 1), BuildingBlock: ZUJKAS_clean_linker_0, # of connection points: 2
#     Edge 12, Type (0, 1), BuildingBlock: ZUJKAS_clean_linker_0, # of connection points: 2
#     Edge 13, Type (0, 1), BuildingBlock: ZUJKAS_clean_linker_0, # of connection points: 2
#     Edge 14, Type (0, 1), BuildingBlock: ZUJKAS_clean_linker_0, # of connection points: 2
#     Edge 15, Type (0, 1), BuildingBlock: ZUJKAS_clean_linker_0, # of connection points: 2
#     Edge 16, Type (0, 1), BuildingBlock: ZUJKAS_clean_linker_0, # of connection points: 2
#     Edge 17, Type (0, 1), BuildingBlock: ZUJKAS_clean_linker_0, # of connection points: 2
#     Edge 18, Type (0, 1), BuildingBlock: ZUJKAS_clean_linker_0, # of connection points: 2
#     Edge 19, Type (0, 1), BuildingBlock: ZUJKAS_clean_linker_0, # of connection points: 2
#     Edge 20, Type (0, 1), BuildingBlock: ZUJKAS_clean_linker_0, # of connection points: 2
#     Edge 21, Type (0, 1), BuildingBlock: ZUJKAS_clean_linker_0, # of connection points: 2
#     Edge 22, Type (0, 1), BuildingBlock: ZUJKAS_clean_linker_0, # of connection points: 2
#     Edge 23, Type (0, 1), BuildingBlock: ZUJKAS_clean_linker_0, # of connection points: 2
#     Edge 24, Type (0, 1), BuildingBlock: ZUJKAS_clean_linker_0, # of connection points: 2
#     Edge 25, Type (0, 1), BuildingBlock: ZUJKAS_clean_linker_0, # of connection points: 2
#     Edge 26, Type (0, 1), BuildingBlock: ZUJKAS_clean_linker_0, # of connection points: 2
#     Edge 27, Type (0, 1), BuildingBlock: ZUJKAS_clean_linker_0, # of connection points: 2
#     Edge 28, Type (0, 1), BuildingBlock: ZUJKAS_clean_linker_0, # of connection points: 2
#     Edge 29, Type (0, 1), BuildingBlock: ZUJKAS_clean_linker_0, # of connection points: 2
#     Edge 30, Type (0, 1), BuildingBlock: ZUJKAS_clean_linker_0, # of connection points: 2
#     Edge 31, Type (0, 1), BuildingBlock: ZUJKAS_clean_linker_0, # of connection points: 2
#     Edge 32, Type (0, 1), BuildingBlock: ZUJKAS_clean_linker_0, # of connection points: 2
#     Edge 33, Type (0, 1), BuildingBlock: ZUJKAS_clean_linker_0, # of connection points: 2
# Relax obj value: 0.012
# Max RMSD: 0.055
# Mean RMSD: 0.051
data_MOF--net-llj--node1-QEWDON_clean_sbu_0--node2-VETTIZ_charged_linker_0--edge1-ZUJKAS_clean_linker_0
_symmetry_space_group_name_H-M    P1
_symmetry_Int_Tables_number       1
_symmetry_cell_setting            triclinic
loop_
_symmetry_equiv_pos_as_xyz
'x, y, z'
_cell_length_a     54.792204
_cell_length_b     54.776725
_cell_length_c     38.533644
_cell_angle_alpha  89.991234
_cell_angle_beta   89.992417
_cell_angle_gamma 89.949279
loop_
_atom_site_label
_atom_site_type_symbol
_atom_site_fract_x
_atom_site_fract_y
_atom_site_fract_z
_atom_type_partial_charge
Zn0 Zn 0.95 0.04855 0.98351 0.0
Zn1 Zn 0.95644 0.04936 0.06549 0.0
O2 O 0.97546 0.04634 0.02166 0.0
H3 H 0.99122 0.03864 0.01912 0.0
C4 C 0.93419 0.99829 0.94008 0.0
O5 O 0.92618 0.00619 0.9702 0.0
Zn6 Zn 0.04205 0.95104 0.06041 0.0
Zn7 Zn 0.04302 0.94766 0.97908 0.0
O8 O 0.01992 0.95313 0.01951 0.0
H9 H 0.00547 0.96321 0.01816 0.0
Zn10 Zn 0.95413 0.96223 0.986 0.0
O11 O 0.96081 0.98418 0.02726 0.0
Zn12 Zn 0.9564 0.96196 0.06781 0.0
H13 H 0.97245 0.99737 0.02633 0.0
Zn14 Zn 0.04571 0.04308 0.98202 0.0
O15 O 0.03717 0.02027 0.02167 0.0
H16 H 0.02621 0.00654 0.01956 0.0
Zn17 Zn 0.04263 0.04002 0.06445 0.0
C18 C 0.06237 0.00461 0.93628 0.0
O19 O 0.06188 0.99266 0.96582 0.0
O20 O 0.91975 0.06797 -0.00099 0.0
O21 O 0.92536 0.06848 0.05612 0.0
O22 O 0.07163 0.9251 0.99196 0.0
O23 O 0.07065 0.92877 0.04934 0.0
O24 O 0.93081 0.93407 0.99766 0.0
O25 O 0.93274 0.93465 0.05523 0.0
C26 C -0.00055 0.06597 0.10072 0.0
O27 O 0.06805 0.07124 0.9974 0.0
O28 O 0.06615 0.06784 0.05482 0.0
O29 O 0.02708 0.94081 0.9316 0.0
C30 C 0.91316 0.07459 0.02929 0.0
O31 O 0.96268 0.05708 0.93448 0.0
C32 C 0.00133 0.93913 0.10361 0.0
O33 O 0.94753 0.97933 0.93926 0.0
C34 C 0.0799 0.91967 0.02185 0.0
O35 O 0.05558 0.02678 0.93573 0.0
C36 C 0.94135 0.00379 0.10798 0.0
O37 O 0.97637 0.06799 0.10044 0.0
O38 O 0.00922 0.05175 0.07864 0.0
C39 C 0.92417 0.92586 0.02709 0.0
O40 O 0.02429 0.93662 0.1011 0.0
O41 O 0.99028 0.95028 0.07934 0.0
C42 C 0.05789 0.9958 0.0996 0.0
O43 O 0.94208 0.98061 0.10801 0.0
O44 O 0.95054 0.01493 0.08214 0.0
C45 C 0.07453 0.07812 0.0276 0.0
O46 O 0.05703 0.01889 0.10208 0.0
O47 O 0.05024 0.98585 0.07191 0.0
C48 C 0.00438 0.9362 0.93059 0.0
O49 O 0.99171 0.937 0.95948 0.0
C50 C 0.98543 0.05944 0.92916 0.0
O51 O 0.00071 0.05522 0.95472 0.0
Zn52 Zn 0.46592 0.54449 0.48362 0.0
Zn53 Zn 0.45979 0.54186 0.56605 0.0
O54 O 0.48301 0.53429 0.52769 0.0
H55 H 0.49472 0.52113 0.52851 0.0
C56 C 0.41949 0.47072 0.43675 0.0
O57 O 0.40583 0.47066 0.46479 0.0
Zn58 Zn 0.53749 0.45713 0.56945 0.0
Zn59 Zn 0.53728 0.45526 0.48779 0.0
O60 O 0.5153 0.46185 0.52903 0.0
H61 H 0.50171 0.47306 0.52856 0.0
Zn62 Zn 0.4498 0.44901 0.48705 0.0
O63 O 0.45168 0.47511 0.52424 0.0
Zn64 Zn 0.44945 0.45628 0.56842 0.0
H65 H 0.4581 0.49134 0.52067 0.0
Zn66 Zn 0.54414 0.54628 0.48278 0.0
O67 O 0.54379 0.52206 0.52283 0.0
H68 H 0.53689 0.50586 0.52162 0.0
Zn69 Zn 0.54661 0.54316 0.56469 0.0
C70 C 0.5564 0.50928 0.43184 0.0
O71 O 0.55542 0.49567 0.45982 0.0
O72 O 0.43764 0.56848 0.4923 0.0
O73 O 0.43348 0.56547 0.54952 0.0
O74 O 0.56534 0.43167 0.49915 0.0
O75 O 0.56497 0.43365 0.55672 0.0
O76 O 0.42932 0.41959 0.50302 0.0
O77 O 0.4294 0.4257 0.56003 0.0
C78 C 0.50084 0.55874 0.60559 0.0
O79 O 0.56454 0.57665 0.49468 0.0
O80 O 0.56679 0.57294 0.55202 0.0
O81 O 0.51987 0.44911 0.44125 0.0
C82 C 0.42712 0.57465 0.52045 0.0
O83 O 0.48808 0.55309 0.44221 0.0
C84 C 0.49561 0.44119 0.60932 0.0
O85 O 0.44092 0.46202 0.43853 0.0
C86 C 0.57366 0.42504 0.52854 0.0
O87 O 0.55149 0.53187 0.43428 0.0
C88 C 0.43471 0.49944 0.6048 0.0
O89 O 0.4777 0.55752 0.60592 0.0
O90 O 0.51202 0.55013 0.57939 0.0
C91 C 0.42264 0.41353 0.53349 0.0
O92 O 0.51877 0.4423 0.60916 0.0
O93 O 0.48419 0.45007 0.58349 0.0
C94 C 0.56148 0.50179 0.60508 0.0
O95 O 0.43243 0.47639 0.60489 0.0
O96 O 0.44719 0.509 0.58059 0.0
C97 C 0.57239 0.58399 0.52399 0.0
O98 O 0.56352 0.52484 0.60305 0.0
O99 O 0.54909 0.49098 0.58181 0.0
C100 C 0.50082 0.43598 0.44273 0.0
O101 O 0.49343 0.42797 0.47311 0.0
C102 C 0.50214 0.57132 0.44596 0.0
O103 O 0.50239 0.58285 0.47587 0.0
C104 C 0.40287 0.28404 0.90563 0.0
C105 C 0.421 0.30191 0.90089 0.0
C106 C 0.43451 0.30995 0.92984 0.0
C107 C 0.4105 0.28422 0.96768 0.0
C108 C 0.39803 0.27539 0.93917 0.0
C109 C 0.37881 0.25708 0.9492 0.0
H110 H 0.31156 0.20448 0.07567 0.0
C111 C 0.39982 0.27314 -0.00095 0.0
C112 C 0.3815 0.25689 0.98847 0.0
H113 H 0.30444 0.19574 0.96458 0.0
H114 H 0.34079 0.21971 0.95566 0.0
H115 H 0.37124 0.19883 0.07811 0.0
H116 H 0.32224 0.26022 0.07379 0.0
H117 H 0.34538 0.26764 0.10336 0.0
H118 H 0.32592 0.2419 0.11206 0.0
H119 H 0.35367 0.20849 0.11494 0.0
H120 H 0.38325 0.22144 0.10557 0.0
C121 C 0.38566 0.23213 0.93294 0.0
C122 C 0.35371 0.26724 0.93756 0.0
C123 C 0.42346 0.30616 0.11723 0.0
C124 C 0.41497 0.30144 0.15097 0.0
C125 C 0.39832 0.2822 0.15628 0.0
C126 C 0.38945 0.2686 0.12817 0.0
C127 C 0.39716 0.27442 0.09437 0.0
C128 C 0.41435 0.29252 0.08947 0.0
C129 C 0.42053 0.2962 0.05186 0.0
C130 C 0.40378 0.27767 0.03486 0.0
C131 C 0.38997 0.26517 0.05984 0.0
C132 C 0.44784 0.28973 0.04648 0.0
C133 C 0.41365 0.3228 0.04209 0.0
C134 C 0.31787 0.20768 0.04942 0.0
C135 C 0.30495 0.19844 0.0208 0.0
C136 C 0.31409 0.20257 0.9871 0.0
C137 C 0.33508 0.21672 0.98194 0.0
C138 C 0.34693 0.22703 0.01073 0.0
C139 C 0.33868 0.22191 0.04381 0.0
C140 C 0.35336 0.23463 0.07132 0.0
C141 C 0.37159 0.24853 0.04925 0.0
C142 C 0.3676 0.24418 0.01377 0.0
C143 C 0.36598 0.21497 0.09398 0.0
C144 C 0.33599 0.25193 0.09151 0.0
H145 H 0.44007 0.30834 0.98408 0.0
H146 H 0.39244 0.27722 0.88382 0.0
H147 H 0.35254 0.28722 0.94259 0.0
H148 H 0.3382 0.25927 0.9518 0.0
H149 H 0.35081 0.26432 0.90933 0.0
H150 H 0.40581 0.22995 0.93104 0.0
H151 H 0.37805 0.23031 0.90635 0.0
H152 H 0.37958 0.2165 0.9489 0.0
H153 H 0.43667 0.32047 0.11243 0.0
H154 H 0.39151 0.27819 0.18205 0.0
H155 H 0.37642 0.25452 0.13376 0.0
H156 H 0.4542 0.27609 0.06588 0.0
H157 H 0.45959 0.30614 0.0491 0.0
H158 H 0.45134 0.28102 0.02104 0.0
H159 H 0.39603 0.3281 0.05434 0.0
H160 H 0.41083 0.32556 0.01406 0.0
H161 H 0.42779 0.33584 0.05117 0.0
H162 H 0.44844 0.32383 0.92701 0.0
C163 C 0.42947 0.30111 0.96309 0.0
C164 C 0.71015 0.40336 0.90563 0.0
C165 C 0.69258 0.42185 0.90128 0.0
C166 C 0.68555 0.43594 0.93023 0.0
C167 C 0.71207 0.41214 0.9673 0.0
C168 C 0.71967 0.39889 0.93877 0.0
C169 C 0.73777 0.37935 0.94836 0.0
H170 H 0.79221 0.31277 0.07392 0.0
C171 C 0.72409 0.40192 0.99829 0.0
C172 C 0.73942 0.38288 0.98742 0.0
H173 H 0.79685 0.30305 0.96275 0.0
H174 H 0.77412 0.34026 0.95387 0.0
H175 H 0.80097 0.37179 0.07301 0.0
H176 H 0.73667 0.32671 0.07584 0.0
H177 H 0.73252 0.35049 0.1058 0.0
H178 H 0.75732 0.32939 0.11181 0.0
H179 H 0.79136 0.35648 0.11184 0.0
H180 H 0.77996 0.3864 0.10051 0.0
C181 C 0.76229 0.38507 0.93007 0.0
C182 C 0.72651 0.35433 0.93859 0.0
C183 C 0.69771 0.43074 0.11752 0.0
C184 C 0.70384 0.42332 0.15134 0.0
C185 C 0.72254 0.40591 0.15593 0.0
C186 C 0.73429 0.39543 0.12725 0.0
C187 C 0.72713 0.40224 0.09359 0.0
C188 C 0.70955 0.42005 0.08922 0.0
C189 C 0.70422 0.42507 0.05165 0.0
C190 C 0.72129 0.40707 0.03414 0.0
C191 C 0.73444 0.39356 0.0588 0.0
C192 C 0.71132 0.4519 0.04373 0.0
C193 C 0.677 0.41886 0.04495 0.0
C194 C 0.78836 0.31872 0.04767 0.0
C195 C 0.79602 0.30481 0.01902 0.0
C196 C 0.79117 0.31346 0.98526 0.0
C197 C 0.77775 0.33494 0.98015 0.0
C198 C 0.76892 0.34781 0.00909 0.0
C199 C 0.77488 0.34005 0.04213 0.0
C200 C 0.76395 0.356 0.06981 0.0
C201 C 0.74995 0.37427 0.04792 0.0
C202 C 0.75272 0.36922 0.01239 0.0
C203 C 0.78502 0.36826 0.09017 0.0
C204 C 0.7468 0.33997 0.09229 0.0
H205 H 0.68884 0.44237 0.98411 0.0
H206 H 0.71617 0.39244 0.88381 0.0
H207 H 0.70668 0.35395 0.94484 0.0
H208 H 0.7344 0.3389 0.95312 0.0
H209 H 0.72849 0.35067 0.91037 0.0
H210 H 0.765 0.40511 0.92727 0.0
H211 H 0.76292 0.37695 0.90368 0.0
H212 H 0.77828 0.37874 0.94509 0.0
H213 H 0.68329 0.44388 0.11299 0.0
H214 H 0.72791 0.4002 0.18174 0.0
H215 H 0.74812 0.38203 0.1324 0.0
H216 H 0.72653 0.45812 0.06069 0.0
H217 H 0.69567 0.46444 0.04805 0.0
H218 H 0.71827 0.45436 0.01701 0.0
H219 H 0.6715 0.40231 0.05976 0.0
H220 H 0.67301 0.4144 0.01764 0.0
H221 H 0.66493 0.43409 0.0532 0.0
H222 H 0.67188 0.45012 0.92772 0.0
C223 C 0.69528 0.43127 0.96309 0.0
C224 C 0.59174 0.71168 0.13356 0.0
C225 C 0.57351 0.69364 0.13523 0.0
C226 C 0.56087 0.68729 0.10466 0.0
C227 C 0.58652 0.71443 0.07116 0.0
C228 C 0.59787 0.72184 0.10137 0.0
C229 C 0.61757 0.74036 0.09469 0.0
H230 H 0.6921 0.79624 0.98023 0.0
C231 C 0.59876 0.72659 0.04176 0.0
C232 C 0.61673 0.74211 0.05534 0.0
H233 H 0.69166 0.80259 0.09211 0.0
H234 H 0.6551 0.77823 0.09501 0.0
H235 H 0.68081 0.74039 0.97749 0.0
H236 H 0.63247 0.80225 0.97059 0.0
H237 H 0.62278 0.78066 0.93978 0.0
H238 H 0.65282 0.79391 0.93606 0.0
H239 H 0.67952 0.75961 0.9398 0.0
H240 H 0.65934 0.73394 0.94503 0.0
C241 C 0.64205 0.72959 0.10782 0.0
C242 C 0.61007 0.76471 0.11225 0.0
C243 C 0.58048 0.69828 0.91935 0.0
C244 C 0.59125 0.70325 0.88701 0.0
C245 C 0.60903 0.72178 0.88477 0.0
C246 C 0.6167 0.73435 0.91456 0.0
C247 C 0.60667 0.72817 0.94699 0.0
C248 C 0.58852 0.71074 0.94882 0.0
C249 C 0.5803 0.706 0.98539 0.0
C250 C 0.59667 0.72333 0.00536 0.0
C251 C 0.61218 0.73616 0.98279 0.0
C252 C 0.58581 0.67886 0.99386 0.0
C253 C 0.55302 0.71324 0.98843 0.0
C254 C 0.68408 0.79239 0.00534 0.0
C255 C 0.69493 0.80111 0.036 0.0
C256 C 0.68363 0.79617 0.0681 0.0
C257 C 0.66251 0.78184 0.06977 0.0
C258 C 0.65265 0.77217 0.03906 0.0
C259 C 0.663 0.77807 0.00746 0.0
C260 C 0.64991 0.76628 0.97754 0.0
C261 C 0.63019 0.75209 0.99647 0.0
C262 C 0.63213 0.75537 0.03252 0.0
C263 C 0.66821 0.74925 0.95864 0.0
C264 C 0.63899 0.7867 0.95447 0.0
H265 H 0.55723 0.69169 0.05034 0.0
H266 H 0.60175 0.71706 0.15654 0.0
H267 H 0.58987 0.76646 0.11408 0.0
H268 H 0.6159 0.78088 0.09718 0.0
H269 H 0.6175 0.76599 0.139 0.0
H270 H 0.64362 0.70999 0.10055 0.0
H271 H 0.64337 0.73084 0.13653 0.0
H272 H 0.65823 0.73845 0.09644 0.0
H273 H 0.56639 0.68453 0.92188 0.0
H274 H 0.61765 0.72599 0.86019 0.0
H275 H 0.63064 0.74791 0.91133 0.0
H276 H 0.60357 0.67317 0.9824 0.0
H277 H 0.57147 0.66669 0.98311 0.0
H278 H 0.58769 0.67513 0.02182 0.0
H279 H 0.5484 0.72837 0.97032 0.0
H280 H 0.54828 0.72035 0.01445 0.0
H281 H 0.54092 0.6976 0.98214 0.0
H282 H 0.54625 0.674 0.10534 0.0
C283 C 0.56721 0.69765 0.07272 0.0
C284 C 0.29103 0.57982 0.12652 0.0
C285 C 0.30878 0.56125 0.12501 0.0
C286 C 0.31494 0.55119 0.09248 0.0
C287 C 0.28753 0.57935 0.06376 0.0
C288 C 0.28063 0.58849 0.09569 0.0
C289 C 0.26202 0.6086 0.09247 0.0
H290 H 0.20202 0.68852 0.98972 0.0
C291 C 0.27462 0.59337 0.03672 0.0
C292 C 0.25939 0.61035 0.0533 0.0
H293 H 0.19931 0.68277 0.10161 0.0
H294 H 0.22471 0.64677 0.09943 0.0
H295 H 0.25704 0.67866 0.98186 0.0
H296 H 0.19622 0.62919 0.97502 0.0
H297 H 0.21674 0.62149 0.94168 0.0
H298 H 0.2028 0.65137 0.94203 0.0
H299 H 0.23688 0.67821 0.94517 0.0
H300 H 0.26324 0.65859 0.94753 0.0
C301 C 0.27314 0.63211 0.10827 0.0
C302 C 0.23808 0.60003 0.11006 0.0
C303 C 0.29788 0.58112 0.91067 0.0
C304 C 0.29116 0.59304 0.87981 0.0
C305 C 0.27288 0.61114 0.88094 0.0
C306 C 0.26186 0.6176 0.91249 0.0
C307 C 0.2694 0.60605 0.9433 0.0
C308 C 0.28688 0.5879 0.9419 0.0
C309 C 0.29311 0.57794 0.97712 0.0
C310 C 0.27659 0.59322 2e-05 0.0
C311 C 0.26285 0.60973 0.98014 0.0
C312 C 0.32051 0.58317 0.98398 0.0
C313 C 0.28608 0.55052 0.978 0.0
C314 C 0.20645 0.67924 0.01374 0.0
C315 C 0.19878 0.68863 0.0459 0.0
C316 C 0.20531 0.67615 0.07654 0.0
C317 C 0.22003 0.65523 0.07522 0.0
C318 C 0.22848 0.64678 0.04294 0.0
C319 C 0.22118 0.65841 0.01287 0.0
C320 C 0.23206 0.64703 0.98092 0.0
C321 C 0.24727 0.62677 0.9968 0.0
C322 C 0.24529 0.62686 0.03315 0.0
C323 C 0.24804 0.66651 0.96257 0.0
C324 C 0.21098 0.63682 0.95842 0.0
H325 H 0.31012 0.55186 0.03804 0.0
H326 H 0.28586 0.58798 0.15104 0.0
H327 H 0.23587 0.57989 0.10795 0.0
H328 H 0.2216 0.60766 0.09752 0.0
H329 H 0.23789 0.60477 0.13809 0.0
H330 H 0.29268 0.63392 0.10085 0.0
H331 H 0.27215 0.63174 0.13706 0.0
H332 H 0.26435 0.64898 0.09893 0.0
H333 H 0.31213 0.5674 0.91081 0.0
H334 H 0.26723 0.62039 0.85743 0.0
H335 H 0.24823 0.63167 0.91176 0.0
H336 H 0.32572 0.60142 0.9737 0.0
H337 H 0.33228 0.56936 0.97109 0.0
H338 H 0.32523 0.58384 0.01177 0.0
H339 H 0.27035 0.54669 0.96056 0.0
H340 H 0.27988 0.5445 0.00395 0.0
H341 H 0.30151 0.53882 0.96946 0.0
H342 H 0.32805 0.53643 0.0906 0.0
C343 C 0.3044 0.56008 0.06194 0.0
C344 C 0.90507 0.78693 0.40096 0.0
C345 C 0.92337 0.80479 0.39782 0.0
C346 C 0.93682 0.81155 0.42749 0.0
C347 C 0.91253 0.7844 0.46293 0.0
C348 C 0.90002 0.77698 0.43367 0.0
C349 C 0.88042 0.75867 0.442 0.0
H350 H 0.81113 0.70304 0.56332 0.0
C351 C 0.90165 0.77209 0.49322 0.0
C352 C 0.88302 0.75672 0.48117 0.0
H353 H 0.80421 0.6992 0.45167 0.0
H354 H 0.84153 0.72203 0.445 0.0
H355 H 0.87023 0.69463 0.56547 0.0
H356 H 0.82441 0.75849 0.56653 0.0
H357 H 0.84742 0.76289 0.59757 0.0
H358 H 0.82653 0.73782 0.60256 0.0
H359 H 0.85376 0.70388 0.60351 0.0
H360 H 0.88385 0.71559 0.59401 0.0
C361 C 0.88681 0.73433 0.42363 0.0
C362 C 0.85555 0.76984 0.43118 0.0
C363 C 0.92675 0.79821 0.61421 0.0
C364 C 0.91843 0.79188 0.64752 0.0
C365 C 0.90112 0.77299 0.65095 0.0
C366 C 0.89164 0.76124 0.6216 0.0
C367 C 0.89934 0.76861 0.58842 0.0
C368 C 0.91704 0.78638 0.58522 0.0
C369 C 0.92307 0.79191 0.54802 0.0
C370 C 0.90578 0.77474 0.52935 0.0
C371 C 0.89174 0.76137 0.55312 0.0
C372 C 0.95018 0.7851 0.54159 0.0
C373 C 0.91677 0.81911 0.54118 0.0
C374 C 0.81771 0.70708 0.53744 0.0
C375 C 0.80454 0.69962 0.508 0.0
C376 C 0.81402 0.70471 0.47477 0.0
C377 C 0.83557 0.71819 0.47094 0.0
C378 C 0.84765 0.72687 0.50064 0.0
C379 C 0.83909 0.72066 0.53318 0.0
C380 C 0.85418 0.73155 0.5618 0.0
C381 C 0.87291 0.74578 0.54105 0.0
C382 C 0.86883 0.74318 0.50525 0.0
C383 C 0.86607 0.71045 0.5826 0.0
C384 C 0.83742 0.74849 0.58356 0.0
H385 H 0.94217 0.80764 0.48154 0.0
H386 H 0.89466 0.7811 0.37856 0.0
H387 H 0.85487 0.78963 0.43762 0.0
H388 H 0.83986 0.76178 0.44489 0.0
H389 H 0.85257 0.76799 0.40278 0.0
H390 H 0.90692 0.73176 0.42185 0.0
H391 H 0.87939 0.73388 0.39681 0.0
H392 H 0.88021 0.71817 0.43803 0.0
H393 H 0.93986 0.81278 0.61057 0.0
H394 H 0.89475 0.76745 0.67637 0.0
H395 H 0.87827 0.74726 0.62586 0.0
H396 H 0.9561 0.76991 0.55884 0.0
H397 H 0.9624 0.80087 0.54664 0.0
H398 H 0.95345 0.77822 0.515 0.0
H399 H 0.89968 0.82436 0.55491 0.0
H400 H 0.91319 0.82323 0.51365 0.0
H401 H 0.93155 0.83129 0.55058 0.0
H402 H 0.95087 0.8254 0.42592 0.0
C403 C 0.9316 0.80136 0.45991 0.0
C404 C 0.20179 0.89533 0.40313 0.0
C405 C 0.18328 0.91301 0.40001 0.0
C406 C 0.17656 0.92672 0.42947 0.0
C407 C 0.20506 0.90386 0.46478 0.0
C408 C 0.21239 0.89109 0.43568 0.0
C409 C 0.23149 0.87222 0.444 0.0
H410 H 0.29458 0.80896 0.56504 0.0
C411 C 0.21838 0.89398 0.49495 0.0
C412 C 0.23408 0.87558 0.48298 0.0
H413 H 0.29434 0.7988 0.45367 0.0
H414 H 0.26881 0.83421 0.44685 0.0
H415 H 0.29854 0.86869 0.56349 0.0
H416 H 0.23818 0.81868 0.5715 0.0
H417 H 0.2329 0.84249 0.601 0.0
H418 H 0.25943 0.82344 0.60629 0.0
H419 H 0.29236 0.85174 0.60238 0.0
H420 H 0.278 0.88083 0.59401 0.0
C421 C 0.25523 0.87909 0.42447 0.0
C422 C 0.22101 0.84679 0.43451 0.0
C423 C 0.19507 0.92188 0.61592 0.0
C424 C 0.20244 0.91459 0.64929 0.0
C425 C 0.22172 0.89767 0.6526 0.0
C426 C 0.23289 0.88759 0.62314 0.0
C427 C 0.22456 0.89431 0.58998 0.0
C428 C 0.20632 0.91158 0.58683 0.0
C429 C 0.19961 0.91645 0.54967 0.0
C430 C 0.21659 0.89896 0.53099 0.0
C431 C 0.23103 0.88591 0.55469 0.0
C432 C 0.20571 0.94346 0.54136 0.0
C433 C 0.17238 0.90951 0.54475 0.0
C434 C 0.28902 0.81435 0.53918 0.0
C435 C 0.29642 0.80088 0.50991 0.0
C436 C 0.28914 0.80889 0.47668 0.0
C437 C 0.27407 0.82936 0.47276 0.0
C438 C 0.26589 0.84188 0.50236 0.0
C439 C 0.27377 0.83464 0.53483 0.0
C440 C 0.26292 0.84993 0.56336 0.0
C441 C 0.24701 0.86733 0.54265 0.0
C442 C 0.24871 0.8624 0.50696 0.0
C443 C 0.28393 0.86345 0.58213 0.0
C444 C 0.24765 0.83291 0.58708 0.0
H445 H 0.18121 0.93315 0.48318 0.0
H446 H 0.20736 0.88447 0.38101 0.0
H447 H 0.20117 0.84584 0.44056 0.0
H448 H 0.22924 0.83175 0.4495 0.0
H449 H 0.22325 0.84294 0.40639 0.0
H450 H 0.25731 0.89926 0.42267 0.0
H451 H 0.25516 0.87174 0.39761 0.0
H452 H 0.27187 0.87279 0.438 0.0
H453 H 0.18015 0.93462 0.61237 0.0
H454 H 0.22803 0.89205 0.67801 0.0
H455 H 0.24724 0.87458 0.62734 0.0
H456 H 0.22162 0.9499 0.55679 0.0
H457 H 0.19006 0.95563 0.54746 0.0
H458 H 0.21121 0.94623 0.51402 0.0
H459 H 0.16771 0.89301 0.56024 0.0
H460 H 0.16772 0.90461 0.51781 0.0
H461 H 0.16018 0.92454 0.55337 0.0
H462 H 0.16277 0.94084 0.42759 0.0
C463 C 0.18738 0.9223 0.46173 0.0
C464 C 0.08029 0.20953 0.62785 0.0
C465 C 0.0628 0.19075 0.62695 0.0
C466 C 0.05414 0.18254 0.59454 0.0
C467 C 0.08157 0.21019 0.56492 0.0
C468 C 0.08936 0.21896 0.59664 0.0
C469 C 0.10891 0.23804 0.59292 0.0
H470 H 0.19068 0.29518 0.49029 0.0
C471 C 0.0958 0.22256 0.53757 0.0
C472 C 0.11164 0.23914 0.55372 0.0
H473 H 0.1828 0.30036 0.60168 0.0
H474 H 0.14632 0.27576 0.59917 0.0
H475 H 0.17978 0.23916 0.48478 0.0
H476 H 0.13239 0.30134 0.47253 0.0
H477 H 0.12305 0.27945 0.44198 0.0
H478 H 0.15339 0.29224 0.43921 0.0
H479 H 0.18218 0.26019 0.44918 0.0
H480 H 0.16186 0.23451 0.44755 0.0
C481 C 0.13229 0.22833 0.61096 0.0
C482 C 0.09905 0.26237 0.60791 0.0
C483 C 0.08855 0.19366 0.41308 0.0
C484 C 0.10011 0.20067 0.38214 0.0
C485 C 0.116 0.22086 0.38232 0.0
C486 C 0.12114 0.23321 0.41337 0.0
C487 C 0.11026 0.22525 0.44445 0.0
C488 C 0.09375 0.20623 0.44373 0.0
C489 C 0.08324 0.20076 0.47888 0.0
C490 C 0.09667 0.21924 0.50108 0.0
C491 C 0.11274 0.23326 0.4809 0.0
C492 C 0.09018 0.17414 0.4884 0.0
C493 C 0.0554 0.20584 0.47775 0.0
C494 C 0.1808 0.29143 0.51405 0.0
C495 C 0.18973 0.29947 0.54626 0.0
C496 C 0.17648 0.294 0.57662 0.0
C497 C 0.15533 0.27971 0.5751 0.0
C498 C 0.14751 0.2705 0.54294 0.0
C499 C 0.1598 0.27695 0.51299 0.0
C500 C 0.14913 0.26513 0.48122 0.0
C501 C 0.1288 0.25005 0.49716 0.0
C502 C 0.12805 0.25315 0.53333 0.0
C503 C 0.16917 0.24896 0.46447 0.0
C504 C 0.13907 0.28546 0.45719 0.0
H505 H 0.05634 0.18485 0.53982 0.0
H506 H 0.08707 0.2165 0.65232 0.0
H507 H 0.07913 0.26426 0.60296 0.0
H508 H 0.10735 0.27858 0.59559 0.0
H509 H 0.10189 0.26333 0.63642 0.0
H510 H 0.13418 0.20827 0.6072 0.0
H511 H 0.13176 0.23186 0.63934 0.0
H512 H 0.14927 0.23605 0.60023 0.0
H513 H 0.07578 0.17857 0.41344 0.0
H514 H 0.12493 0.22665 0.35863 0.0
H515 H 0.13376 0.24815 0.41211 0.0
H516 H 0.10927 0.17006 0.4804 0.0
H517 H 0.07804 0.16089 0.47507 0.0
H518 H 0.08967 0.17046 0.51651 0.0
H519 H 0.05085 0.22011 0.45823 0.0
H520 H 0.04834 0.21318 0.50256 0.0
H521 H 0.04503 0.18913 0.47079 0.0
H522 H 0.04083 0.16797 0.59304 0.0
C523 C 0.06333 0.19222 0.56359 0.0
C524 C 0.79361 0.09346 0.6309 0.0
C525 C 0.8121 0.07562 0.63113 0.0
C526 C 0.81843 0.06396 0.59979 0.0
C527 C 0.78967 0.08924 0.56844 0.0
C528 C 0.78269 0.09998 0.59933 0.0
C529 C 0.76369 0.11949 0.59404 0.0
H530 H 0.70218 0.19277 0.48322 0.0
C531 C 0.77626 0.10135 0.54005 0.0
C532 C 0.76083 0.11896 0.55481 0.0
H533 H 0.70118 0.19398 0.59542 0.0
H534 H 0.72605 0.15762 0.59704 0.0
H535 H 0.75763 0.18247 0.47541 0.0
H536 H 0.69665 0.13295 0.47582 0.0
H537 H 0.71694 0.12302 0.44341 0.0
H538 H 0.70302 0.15281 0.43991 0.0
H539 H 0.73677 0.1802 0.43966 0.0
H540 H 0.7631 0.16064 0.44305 0.0
C541 C 0.77445 0.14402 0.607 0.0
C542 C 0.74002 0.11149 0.61282 0.0
C543 C 0.79881 0.0821 0.41547 0.0
C544 C 0.79172 0.09212 0.38344 0.0
C545 C 0.77293 0.10971 0.38274 0.0
C546 C 0.7619 0.11769 0.41358 0.0
C547 C 0.76995 0.10821 0.44552 0.0
C548 C 0.78779 0.09038 0.44597 0.0
C549 C 0.79452 0.08272 0.48215 0.0
C550 C 0.77791 0.09904 0.50345 0.0
C551 C 0.76369 0.11403 0.48191 0.0
C552 C 0.8219 0.08879 0.48782 0.0
C553 C 0.78795 0.05536 0.4865 0.0
C554 C 0.7073 0.18516 0.50814 0.0
C555 C 0.69997 0.19643 0.53922 0.0
C556 C 0.70654 0.18563 0.5711 0.0
C557 C 0.72117 0.16464 0.57199 0.0
C558 C 0.72946 0.15439 0.54069 0.0
C559 C 0.72196 0.16427 0.50946 0.0
C560 C 0.73255 0.15102 0.47879 0.0
C561 C 0.74803 0.13184 0.49676 0.0
C562 C 0.74633 0.13404 0.53301 0.0
C563 C 0.74824 0.1694 0.45781 0.0
C564 C 0.71131 0.13942 0.45807 0.0
H565 H 0.81318 0.06127 0.54556 0.0
H566 H 0.78836 0.10278 0.65454 0.0
H567 H 0.73791 0.09129 0.6122 0.0
H568 H 0.72335 0.11859 0.60017 0.0
H569 H 0.74017 0.11722 0.64046 0.0
H570 H 0.79406 0.14556 0.59982 0.0
H571 H 0.77314 0.14548 0.63569 0.0
H572 H 0.76568 0.16015 0.5953 0.0
H573 H 0.81343 0.06882 0.41701 0.0
H574 H 0.76694 0.11749 0.35833 0.0
H575 H 0.74793 0.13134 0.41142 0.0
H576 H 0.82699 0.10593 0.47412 0.0
H577 H 0.83379 0.07398 0.47771 0.0
H578 H 0.8266 0.09223 0.51521 0.0
H579 H 0.77158 0.05052 0.47084 0.0
H580 H 0.78294 0.0506 0.51346 0.0
H581 H 0.80317 0.04342 0.47785 0.0
H582 H 0.83222 0.04977 0.5994 0.0
C583 C 0.80727 0.07059 0.56854 0.0
H584 H 0.09753 0.10302 0.97558 0.0
H585 H 0.13532 0.12631 0.97992 0.0
H586 H 0.13499 0.1172 0.09106 0.0
H587 H 0.0972 0.0936 0.0871 0.0
H588 H 0.14964 0.16856 0.01793 0.0
H589 H 0.19942 0.08459 0.05821 0.0
H590 H 0.16903 0.08374 0.04021 0.0
H591 H 0.1736 0.09289 0.08448 0.0
C592 C 0.10521 0.10627 0.00105 0.0
C593 C 0.09454 0.09609 0.03093 0.0
C594 C 0.12682 0.11961 0.00346 0.0
C595 C 0.13814 0.12297 0.03571 0.0
C596 C 0.1267 0.11435 0.06587 0.0
H597 H 0.26847 0.21167 0.0652 0.0
H598 H 0.22814 0.1932 0.07126 0.0
C599 C 0.10504 0.101 0.06353 0.0
C600 C 0.16267 0.13406 0.03719 0.0
H601 H 0.22249 0.12071 0.05329 0.0
C602 C 0.16557 0.15822 0.02592 0.0
C603 C 0.18339 0.12027 0.04707 0.0
C604 C 0.18138 0.09387 0.05793 0.0
C605 C 0.18875 0.169 0.02417 0.0
C606 C 0.20942 0.15529 0.03436 0.0
C607 C 0.20652 0.13116 0.04574 0.0
C608 C 0.23433 0.16547 0.0323 0.0
C609 C 0.19103 0.19471 0.01046 0.0
C610 C 0.25139 0.15541 0.00922 0.0
C611 C 0.27458 0.16574 0.00593 0.0
C612 C 0.28109 0.1862 0.02589 0.0
C613 C 0.26413 0.19575 0.04973 0.0
C614 C 0.24098 0.18542 0.05296 0.0
H615 H 0.17422 0.20072 0.99676 0.0
H616 H 0.19425 0.20737 0.03245 0.0
H617 H 0.20672 0.19624 0.99236 0.0
H618 H 0.24658 0.13986 0.99324 0.0
H619 H 0.28735 0.15782 0.98766 0.0
H620 H 0.89737 0.09701 0.08867 0.0
H621 H 0.87231 0.1338 0.09234 0.0
H622 H 0.86022 0.13126 0.98183 0.0
H623 H 0.88505 0.09441 0.97779 0.0
H624 H 0.88725 0.17577 0.05658 0.0
H625 H 0.7928 0.14981 0.02037 0.0
H626 H 0.81515 0.12781 0.03497 0.0
H627 H 0.81568 0.13869 0.99096 0.0
C628 C 0.88882 0.10383 0.06526 0.0
C629 C 0.8935 0.09294 0.03284 0.0
C630 C 0.87454 0.12489 0.06743 0.0
C631 C 0.86446 0.13521 0.03737 0.0
C632 C 0.86758 0.12339 0.00539 0.0
H633 H 0.8352 0.28502 0.98491 0.0
H634 H 0.8519 0.24376 0.99165 0.0
C635 C 0.88189 0.10236 0.00315 0.0
C636 C 0.85359 0.15988 0.03855 0.0
H637 H 0.80248 0.19238 0.018 0.0
C638 C 0.86862 0.17939 0.04856 0.0
C639 C 0.82932 0.16448 0.02809 0.0
C640 C 0.8122 0.14407 0.01828 0.0
C641 C 0.8602 0.20354 0.04744 0.0
C642 C 0.83624 0.20821 0.03569 0.0
C643 C 0.82095 0.18867 0.02669 0.0
C644 C 0.82674 0.23332 0.03232 0.0
C645 C 0.87699 0.22386 0.05874 0.0
C646 C 0.807 0.24089 0.05276 0.0
C647 C 0.79742 0.26433 0.04891 0.0
C648 C 0.80732 0.28054 0.02434 0.0
C649 C 0.82718 0.2729 0.00396 0.0
C650 C 0.83682 0.24945 0.00795 0.0
H651 H 0.89247 0.21692 0.07455 0.0
H652 H 0.88462 0.23299 0.03543 0.0
H653 H 0.8669 0.23776 0.07407 0.0
H654 H 0.79892 0.2286 0.07155 0.0
H655 H 0.78184 0.26955 0.06455 0.0
H656 H 0.89909 0.90577 0.9728 0.0
H657 H 0.86114 0.88254 0.97565 0.0
H658 H 0.86461 0.88299 0.0874 0.0
H659 H 0.90271 0.90622 0.08501 0.0
H660 H 0.84931 0.83681 0.0548 0.0
H661 H 0.79765 0.91831 0.00978 0.0
H662 H 0.82315 0.90959 0.98313 0.0
H663 H 0.82836 0.9202 0.02659 0.0
C664 C 0.89207 0.90061 0.99803 0.0
C665 C 0.9038 0.90816 0.0287 0.0
C666 C 0.87031 0.88744 -0.00043 0.0
C667 C 0.85993 0.88155 0.03172 0.0
C668 C 0.87232 0.88759 0.06235 0.0
H669 H 0.70895 0.84173 0.07235 0.0
H670 H 0.74928 0.86111 0.0726 0.0
C671 C 0.89409 0.90084 0.06089 0.0
C672 C 0.83545 0.87034 0.03334 0.0
H673 H 0.77552 0.88137 0.0149 0.0
C674 C 0.83314 0.84651 0.04616 0.0
C675 C 0.81443 0.88328 0.02254 0.0
C676 C 0.81585 0.90934 0.00999 0.0
C677 C 0.8103 0.83499 0.04765 0.0
C678 C 0.7894 0.84765 0.03574 0.0
C679 C 0.79165 0.87169 0.02372 0.0
C680 C 0.76503 0.83615 0.03527 0.0
C681 C 0.80862 0.80948 0.0622 0.0
C682 C 0.76051 0.81607 0.01368 0.0
C683 C 0.73758 0.80501 0.01346 0.0
C684 C 0.71874 0.8139 0.03479 0.0
C685 C 0.7232 0.83435 0.05592 0.0
C686 C 0.74615 0.84546 0.05601 0.0
H687 H 0.82506 0.8046 0.07761 0.0
H688 H 0.79223 0.8075 0.07891 0.0
H689 H 0.80703 0.79627 0.04049 0.0
H690 H 0.77478 0.80889 0.99709 0.0
H691 H 0.73479 0.78914 0.99718 0.0
H692 H 0.09682 0.88954 0.97071 0.0
H693 H 0.11942 0.85154 0.97824 0.0
H694 H 0.12652 0.86626 0.08772 0.0
H695 H 0.10335 0.90412 0.08068 0.0
H696 H 0.16439 0.83872 0.00349 0.0
H697 H 0.09047 0.80133 0.08676 0.0
H698 H 0.08705 0.82926 0.06244 0.0
H699 H 0.10378 0.82911 0.10258 0.0
C700 C 0.10352 0.88497 0.9963 0.0
C701 C 0.09791 0.89967 0.02518 0.0
C702 C 0.11641 0.86319 0.00059 0.0
C703 C 0.12401 0.85579 0.0337 0.0
C704 C 0.12018 0.87134 0.06213 0.0
H705 H 0.20618 0.72619 0.09133 0.0
H706 H 0.18743 0.76676 0.09013 0.0
C707 C 0.10711 0.89305 0.05793 0.0
C708 C 0.13471 0.83122 0.03855 0.0
H709 H 0.12515 0.77626 0.07832 0.0
C710 C 0.15588 0.82511 0.01995 0.0
C711 C 0.12332 0.81339 0.05971 0.0
C712 C 0.09978 0.81845 0.07878 0.0
C713 C 0.16603 0.80166 0.02213 0.0
C714 C 0.15476 0.78403 0.04346 0.0
C715 C 0.13372 0.79004 0.06219 0.0
C716 C 0.16446 0.75903 0.04592 0.0
C717 C 0.1886 0.79562 0.00141 0.0
C718 C 0.1572 0.7413 0.02187 0.0
C719 C 0.16769 0.71806 0.02261 0.0
C720 C 0.18562 0.71227 0.04743 0.0
C721 C 0.1922 0.72995 0.0722 0.0
C722 C 0.18167 0.75316 0.07144 0.0
H723 H 0.1956 0.81162 0.98676 0.0
H724 H 0.20317 0.78889 0.01902 0.0
H725 H 0.18443 0.78075 0.98277 0.0
H726 H 0.14381 0.74562 0.0021 0.0
H727 H 0.16203 0.70475 0.00346 0.0
H728 H 0.59205 0.609 0.46922 0.0
H729 H 0.63 0.63232 0.46937 0.0
H730 H 0.63456 0.62504 0.58058 0.0
H731 H 0.5967 0.6015 0.58085 0.0
H732 H 0.64774 0.67499 0.50586 0.0
H733 H 0.69585 0.58906 0.54142 0.0
H734 H 0.66474 0.58947 0.52606 0.0
H735 H 0.67152 0.59808 0.56998 0.0
C736 C 0.60077 0.6128 0.49384 0.0
C737 C 0.59159 0.60295 0.52494 0.0
C738 C 0.62248 0.62613 0.49385 0.0
C739 C 0.63527 0.62982 0.52488 0.0
C740 C 0.6251 0.62191 0.55631 0.0
H741 H 0.76836 0.71322 0.55252 0.0
H742 H 0.72729 0.69622 0.55724 0.0
C743 C 0.6034 0.60858 0.55637 0.0
C744 C 0.66021 0.63996 0.52389 0.0
H745 H 0.71995 0.62456 0.53637 0.0
C746 C 0.66355 0.66407 0.51267 0.0
C747 C 0.68074 0.62539 0.53217 0.0
C748 C 0.67819 0.59899 0.54282 0.0
C749 C 0.687 0.67414 0.50988 0.0
C750 C 0.70747 0.65972 0.51886 0.0
C751 C 0.70414 0.63555 0.52976 0.0
C752 C 0.73258 0.66936 0.5168 0.0
C753 C 0.68975 0.69993 0.4967 0.0
C754 C 0.74931 0.65931 0.49322 0.0
C755 C 0.77289 0.66881 0.49067 0.0
C756 C 0.78013 0.68837 0.51192 0.0
C757 C 0.76343 0.69797 0.53608 0.0
C758 C 0.73988 0.6885 0.53853 0.0
H759 H 0.67291 0.70651 0.48363 0.0
H760 H 0.69361 0.71224 0.51889 0.0
H761 H 0.70524 0.70127 0.4782 0.0
H762 H 0.74398 0.64436 0.47645 0.0
H763 H 0.78544 0.66091 0.47207 0.0
H764 H 0.41542 0.6042 0.46583 0.0
H765 H 0.39118 0.64151 0.46721 0.0
H766 H 0.3739 0.62856 0.57486 0.0
H767 H 0.39875 0.59143 0.57407 0.0
H768 H 0.34388 0.65178 0.48146 0.0
H769 H 0.40442 0.69581 0.57873 0.0
H770 H 0.41236 0.66762 0.55732 0.0
H771 H 0.39116 0.66757 0.59295 0.0
C772 C 0.40627 0.60907 0.48973 0.0
C773 C 0.4093 0.59497 0.51995 0.0
C774 C 0.39243 0.63046 0.49049 0.0
C775 C 0.38126 0.63812 0.52137 0.0
C776 C 0.38296 0.62333 0.55103 0.0
H777 H 0.29026 0.76562 0.55948 0.0
H778 H 0.31112 0.72625 0.5638 0.0
C779 C 0.397 0.60201 0.5504 0.0
C780 C 0.36854 0.66198 0.5225 0.0
H781 H 0.36956 0.71815 0.56113 0.0
C782 C 0.34947 0.66625 0.49893 0.0
C783 C 0.37602 0.68093 0.54516 0.0
C784 C 0.39725 0.67792 0.56976 0.0
C785 C 0.33768 0.68896 0.49743 0.0
C786 C 0.34515 0.70777 0.52006 0.0
C787 C 0.36394 0.70352 0.54393 0.0
C788 C 0.33382 0.73216 0.51872 0.0
C789 C 0.31734 0.69285 0.47163 0.0
C790 C 0.34017 0.74857 0.49234 0.0
C791 C 0.32856 0.77122 0.49001 0.0
C792 C 0.3103 0.77775 0.51398 0.0
C793 C 0.30446 0.76137 0.5409 0.0
C794 C 0.31621 0.7388 0.5433 0.0
H795 H 0.31188 0.67562 0.45856 0.0
H796 H 0.30113 0.70078 0.4848 0.0
H797 H 0.32337 0.70606 0.45154 0.0
H798 H 0.35391 0.74372 0.47333 0.0
H799 H 0.33375 0.78354 0.46931 0.0
H800 H 0.40013 0.38695 0.48258 0.0
H801 H 0.36201 0.3642 0.48809 0.0
H802 H 0.3629 0.37539 0.5988 0.0
H803 H 0.40099 0.39828 0.59374 0.0
H804 H 0.34555 0.32287 0.53061 0.0
H805 H 0.30038 0.4113 0.56147 0.0
H806 H 0.33057 0.40953 0.54288 0.0
H807 H 0.32609 0.4033 0.58817 0.0
C808 C 0.39259 0.38409 0.50823 0.0
C809 C 0.40339 0.39484 0.53764 0.0
C810 C 0.37079 0.3711 0.5113 0.0
C811 C 0.35948 0.36866 0.54373 0.0
C812 C 0.37123 0.37749 0.57349 0.0
H813 H 0.22636 0.28994 0.59214 0.0
H814 H 0.26759 0.30701 0.59244 0.0
C815 C 0.39305 0.39046 0.5705 0.0
C816 C 0.33441 0.35897 0.54591 0.0
H817 H 0.27556 0.37612 0.56197 0.0
C818 C 0.33024 0.33442 0.53763 0.0
C819 C 0.3145 0.37432 0.55443 0.0
C820 C 0.31794 0.40114 0.56199 0.0
C821 C 0.30656 0.32467 0.53811 0.0
C822 C 0.28675 0.33991 0.54733 0.0
C823 C 0.29089 0.36452 0.55522 0.0
C824 C 0.26147 0.33067 0.54835 0.0
C825 C 0.3028 0.29831 0.52812 0.0
C826 C 0.24427 0.33899 0.52414 0.0
C827 C 0.22065 0.3294 0.52402 0.0
C828 C 0.21386 0.31154 0.54836 0.0
C829 C 0.23096 0.30389 0.57332 0.0
C830 C 0.25458 0.31339 0.5733 0.0
H831 H 0.31914 0.29046 0.51518 0.0
H832 H 0.29901 0.28744 0.55182 0.0
H833 H 0.28688 0.29645 0.51049 0.0
H834 H 0.24929 0.35249 0.50487 0.0
H835 H 0.20778 0.33576 0.50468 0.0
H836 H 0.5951 0.40502 0.58622 0.0
H837 H 0.619 0.36731 0.58904 0.0
H838 H 0.61595 0.36102 0.47761 0.0
H839 H 0.59207 0.39858 0.47436 0.0
H840 H 0.59861 0.31918 0.51671 0.0
H841 H 0.69052 0.35096 0.55825 0.0
H842 H 0.66491 0.36256 0.58244 0.0
H843 H 0.66859 0.37096 0.53774 0.0
C844 C 0.59992 0.3959 0.56224 0.0
C845 C 0.59152 0.40476 0.53008 0.0
C846 C 0.61361 0.37439 0.56392 0.0
C847 C 0.61919 0.36146 0.53352 0.0
C848 C 0.61178 0.37079 0.50133 0.0
H849 H 0.71 0.23562 0.49813 0.0
H850 H 0.68956 0.27529 0.4975 0.0
C851 C 0.5982 0.39231 0.49957 0.0
C852 C 0.63096 0.33722 0.53534 0.0
H853 H 0.68419 0.30826 0.55581 0.0
C854 C 0.61732 0.31674 0.52527 0.0
C855 C 0.65534 0.33425 0.54642 0.0
C856 C 0.67086 0.35581 0.55663 0.0
C857 C 0.62746 0.29324 0.52601 0.0
C858 C 0.65179 0.29022 0.53737 0.0
C859 C 0.66547 0.31071 0.54735 0.0
C860 C 0.66369 0.26601 0.53776 0.0
C861 C 0.61229 0.27187 0.514 0.0
C862 C 0.65585 0.24772 0.56068 0.0
C863 C 0.66743 0.22495 0.56102 0.0
C864 C 0.68698 0.22017 0.53836 0.0
C865 C 0.69471 0.2386 0.51546 0.0
C866 C 0.68322 0.26133 0.51526 0.0
H867 H 0.59564 0.27784 0.49987 0.0
H868 H 0.62313 0.25975 0.49678 0.0
H869 H 0.60651 0.26101 0.53688 0.0
H870 H 0.64093 0.25113 0.57848 0.0
H871 H 0.66103 0.21108 0.57886 0.0
H872 H 0.04849 0.06244 0.11652 0.0
H873 H 0.07066 0.08424 0.16195 0.0
H874 H 0.00496 0.12333 0.18866 0.0
H875 H 0.9827 0.1015 0.14371 0.0
H876 H 0.07779 0.13496 0.17448 0.0
H877 H 0.02535 0.09045 0.27991 0.0
H878 H 0.02517 0.07933 0.23582 0.0
H879 H 0.0062 0.10474 0.24803 0.0
C880 C 0.03879 0.0757 0.13181 0.0
C881 C 0.01377 0.07993 0.12656 0.0
C882 C 0.0515 0.08818 0.15781 0.0
C883 C 0.0393 0.10504 0.17901 0.0
C884 C 0.01457 0.10999 0.17301 0.0
H885 H 0.08728 0.21788 0.31813 0.0
H886 H 0.07601 0.1937 0.26705 0.0
C887 C 0.00191 0.0975 0.1472 0.0
C888 C 0.052 0.1171 0.20814 0.0
H889 H 0.04841 0.12566 0.29555 0.0
C890 C 0.07161 0.13278 0.20104 0.0
C891 C 0.04415 0.11382 0.24276 0.0
C892 C 0.02423 0.09598 0.2522 0.0
C893 C 0.08295 0.14611 0.22768 0.0
C894 C 0.07407 0.14394 0.26204 0.0
C895 C 0.05507 0.12752 0.26916 0.0
C896 C 0.08364 0.15877 0.29114 0.0
C897 C 0.10433 0.16228 0.21879 0.0
C898 C 0.09148 0.14719 0.32166 0.0
C899 C 0.09744 0.16093 0.3509 0.0
C900 C 0.0958 0.1865 0.35011 0.0
C901 C 0.08887 0.19818 0.31921 0.0
C902 C 0.0826 0.18439 0.29001 0.0
H903 H 0.11358 0.15607 0.19468 0.0
H904 H 0.09768 0.18116 0.21433 0.0
H905 H 0.11789 0.16268 0.24018 0.0
H906 H 0.09238 0.12746 0.32313 0.0
H907 H 0.10299 0.15153 0.37436 0.0
H908 H 0.93226 0.05307 0.11586 0.0
H909 H 0.90875 0.07283 0.16185 0.0
H910 H 0.89947 0.00323 0.21239 0.0
H911 H 0.92277 0.98341 0.16661 0.0
H912 H 0.85955 0.06094 0.17983 0.0
H913 H 0.92242 0.04851 0.29105 0.0
H914 H 0.93238 0.04625 0.24646 0.0
H915 H 0.9173 0.02092 0.267 0.0
C916 C 0.92542 0.042 0.13674 0.0
C917 C 0.92928 0.01664 0.13716 0.0
C918 C 0.912 0.05333 0.1631 0.0
C919 C 0.90258 0.03949 0.19062 0.0
C920 C 0.90692 0.0143 0.19164 0.0
H921 H 0.80638 0.04659 0.36328 0.0
H922 H 0.8329 0.03611 0.31445 0.0
C923 C 0.92017 0.003 0.16527 0.0
C924 C 0.88689 0.05083 0.21732 0.0
H925 H 0.88062 0.05697 0.30492 0.0
C926 C 0.86426 0.06049 0.20717 0.0
C927 C 0.89318 0.05018 0.25286 0.0
C928 C 0.91775 0.04112 0.26503 0.0
C929 C 0.84715 0.06836 0.2319 0.0
C930 C 0.85308 0.06672 0.26751 0.0
C931 C 0.87608 0.05795 0.27755 0.0
C932 C 0.83539 0.07307 0.29502 0.0
C933 C 0.82252 0.07733 0.21992 0.0
C934 C 0.8278 0.09728 0.29987 0.0
C935 C 0.81269 0.10335 0.32782 0.0
C936 C 0.8051 0.08529 0.35143 0.0
C937 C 0.81216 0.06094 0.34576 0.0
C938 C 0.82724 0.05491 0.31788 0.0
H939 H 0.81925 0.07333 0.19204 0.0
H940 H 0.80773 0.06884 0.23551 0.0
H941 H 0.82144 0.09739 0.22366 0.0
H942 H 0.83421 0.1116 0.28276 0.0
H943 H 0.80787 0.12232 0.33179 0.0
H944 H 0.95207 0.93183 0.11339 0.0
H945 H 0.93221 0.91228 0.16301 0.0
H946 H 0.00225 0.90392 0.21271 0.0
H947 H 0.02206 0.92356 0.16361 0.0
H948 H 0.94251 0.86433 0.18674 0.0
H949 H 0.95927 0.93274 0.28968 0.0
H950 H 0.96107 0.94004 0.24402 0.0
H951 H 0.98635 0.92552 0.26557 0.0
C952 C 0.96315 0.92621 0.13503 0.0
C953 C 0.9886 0.92924 0.13439 0.0
C954 C 0.9518 0.91498 0.16335 0.0
C955 C 0.96576 0.90694 0.19164 0.0
C956 C 0.99109 0.9104 0.1914 0.0
H957 H 0.96711 0.81723 0.36875 0.0
H958 H 0.97392 0.84221 0.31708 0.0
C959 C 0.0024 0.92148 0.16313 0.0
C960 C 0.95444 0.89329 0.2205 0.0
H961 H 0.95157 0.89157 0.30885 0.0
C962 C 0.94397 0.87045 0.21343 0.0
C963 C 0.95634 0.90144 0.25519 0.0
C964 C 0.96614 0.92639 0.26409 0.0
C965 C 0.93679 0.85482 0.24043 0.0
C966 C 0.94008 0.86243 0.27512 0.0
C967 C 0.94935 0.88576 0.28212 0.0
C968 C 0.9356 0.84591 0.30466 0.0
C969 C 0.92694 0.82983 0.23188 0.0
C970 C 0.9118 0.83954 0.31436 0.0
C971 C 0.90782 0.82539 0.34401 0.0
C972 C 0.92763 0.81748 0.36439 0.0
C973 C 0.95148 0.82332 0.35387 0.0
C974 C 0.95541 0.8375 0.32434 0.0
H975 H 0.92808 0.82571 0.20369 0.0
H976 H 0.93717 0.81562 0.24643 0.0
H977 H 0.90753 0.82872 0.23995 0.0
H978 H 0.8963 0.84613 0.29961 0.0
H979 H 0.88922 0.82147 0.35171 0.0
H980 H 0.0843 0.95362 0.09813 0.0
H981 H 0.10412 0.93319 0.1472 0.0
H982 H 0.07384 0.98698 0.21668 0.0
H983 H 0.05349 0.00694 0.16781 0.0
H984 H 0.12739 0.98138 0.21499 0.0
H985 H 0.07698 0.89416 0.23474 0.0
H986 H 0.08493 0.90279 0.19103 0.0
H987 H 0.063 0.92051 0.21463 0.0
C988 C 0.08093 0.96029 0.124 0.0
C989 C 0.06695 0.98145 0.12924 0.0
C990 C 0.09247 0.94883 0.15197 0.0
C991 C 0.09024 0.95853 0.18549 0.0
C992 C 0.07563 0.97918 0.19096 0.0
H993 H 0.13442 0.91905 0.38976 0.0
H994 H 0.11333 0.92785 0.33533 0.0
C995 C 0.06407 0.99055 0.16307 0.0
C996 C 0.1052 0.94899 0.2143 0.0
H997 H 0.11091 0.90154 0.27108 0.0
C998 C 0.12395 0.96385 0.22716 0.0
C999 C 0.10051 0.92617 0.22992 0.0
C1000 C 0.08021 0.90991 0.21715 0.0
C1001 C 0.13793 0.95671 0.25585 0.0
C1002 C 0.13317 0.93394 0.27175 0.0
C1003 C 0.11461 0.91888 0.25855 0.0
C1004 C 0.14597 0.92651 0.30382 0.0
C1005 C 0.15704 0.97398 0.26972 0.0
C1006 C 0.17126 0.92244 0.30394 0.0
C1007 C 0.18344 0.91765 0.3351 0.0
C1008 C 0.17046 0.91684 0.36657 0.0
C1009 C 0.14499 0.92008 0.36605 0.0
C1010 C 0.13287 0.92484 0.33496 0.0
H1011 H 0.15519 0.99261 0.25859 0.0
H1012 H 0.15587 0.9753 0.29843 0.0
H1013 H 0.17544 0.96695 0.26297 0.0
H1014 H 0.18162 0.92342 0.28004 0.0
H1015 H 0.20306 0.91524 0.33469 0.0
H1016 H 0.07807 0.95756 0.9285 0.0
H1017 H 0.10014 0.94023 0.87917 0.0
H1018 H 0.09419 0.00882 0.82481 0.0
H1019 H 0.07157 0.02615 0.87362 0.0
H1020 H 0.08651 0.96875 0.78231 0.0
H1021 H 0.17121 0.95766 0.86006 0.0
H1022 H 0.14499 0.94241 0.87766 0.0
H1023 H 0.14543 0.97519 0.87521 0.0
C1024 C 0.08123 0.96889 0.90592 0.0
C1025 C 0.07335 0.99333 0.90514 0.0
C1026 C 0.09398 0.959 0.87786 0.0
C1027 C 0.09932 0.97345 0.84877 0.0
C1028 C 0.09044 0.99745 0.8472 0.0
H1029 H 0.18573 0.96089 0.6619 0.0
H1030 H 0.16036 0.97458 0.7104 0.0
C1031 C 0.07754 0.00732 0.87513 0.0
C1032 C 0.11484 0.9639 0.82042 0.0
H1033 H 0.17206 0.94253 0.80259 0.0
C1034 C 0.10521 0.96302 0.78671 0.0
C1035 C 0.13926 0.95652 0.8263 0.0
C1036 C 0.15097 0.95816 0.86168 0.0
C1037 C 0.11932 0.95476 0.75869 0.0
C1038 C 0.14374 0.94749 0.76458 0.0
C1039 C 0.1533 0.94813 0.79829 0.0
C1040 C 0.15975 0.93942 0.73594 0.0
C1041 C 0.10795 0.95361 0.72306 0.0
C1042 C 0.1684 0.91534 0.73494 0.0
C1043 C 0.18285 0.90744 0.70726 0.0
C1044 C 0.18901 0.92356 0.68023 0.0
C1045 C 0.18095 0.94792 0.68199 0.0
C1046 C 0.16646 0.95577 0.70963 0.0
H1047 H 0.08771 0.9544 0.72428 0.0
H1048 H 0.11439 0.96937 0.70746 0.0
H1049 H 0.11344 0.93662 0.70939 0.0
H1050 H 0.16348 0.90252 0.75518 0.0
H1051 H 0.1885 0.88849 0.70649 0.0
H1052 H 0.95863 0.07061 0.87158 0.0
H1053 H 0.97269 0.09156 0.8192 0.0
H1054 H 0.04602 0.09288 0.85982 0.0
H1055 H 0.03224 0.07172 0.91206 0.0
H1056 H 0.99392 0.13773 0.81903 0.0
H1057 H 0.05614 0.06908 0.76036 0.0
H1058 H 0.03403 0.06129 0.79331 0.0
H1059 H 0.06225 0.07577 0.80514 0.0
C1060 C 0.97782 0.07501 0.86912 0.0
C1061 C 0.99432 0.06957 0.89598 0.0
C1062 C 0.98579 0.08699 0.83923 0.0
C1063 C 0.01039 0.09358 0.83557 0.0
C1064 C 0.02704 0.08756 0.86187 0.0
H1065 H 0.09066 0.17754 0.68268 0.0
H1066 H 0.07767 0.15534 0.73454 0.0
C1067 C 0.0191 0.07555 0.89178 0.0
C1068 C 0.01823 0.10832 0.80543 0.0
H1069 H 0.05677 0.10888 0.7359 0.0
C1070 C 0.00756 0.13139 0.80071 0.0
C1071 C 0.03617 0.10004 0.78185 0.0
C1072 C 0.0477 0.07511 0.78514 0.0
C1073 C 0.01455 0.14657 0.77317 0.0
C1074 C 0.03236 0.13823 0.74942 0.0
C1075 C 0.04313 0.11521 0.75423 0.0
C1076 C 0.03981 0.15292 0.71903 0.0
C1077 C 0.00318 0.17159 0.77014 0.0
C1078 C 0.02276 0.15899 0.69326 0.0
C1079 C 0.03007 0.17187 0.66377 0.0
C1080 C 0.0546 0.17875 0.65941 0.0
C1081 C 0.07156 0.17286 0.68551 0.0
C1082 C 0.06423 0.16 0.715 0.0
H1083 H 0.99512 0.17769 0.79514 0.0
H1084 H 0.01683 0.18531 0.76161 0.0
H1085 H 0.98835 0.17101 0.75056 0.0
H1086 H 0.0039 0.15335 0.69563 0.0
H1087 H 0.01654 0.17627 0.64424 0.0
H1088 H 0.94184 0.98243 0.87371 0.0
H1089 H 0.92362 0.9987 0.82058 0.0
H1090 H 0.88884 0.05586 0.87958 0.0
H1091 H 0.90697 0.03979 0.9329 0.0
H1092 H 0.87121 0.00285 0.8131 0.0
H1093 H 0.91909 0.09139 0.7937 0.0
H1094 H 0.93237 0.06628 0.81753 0.0
H1095 H 0.90899 0.08462 0.83711 0.0
C1096 C 0.93064 0.99871 0.87535 0.0
C1097 C 0.92567 0.00972 0.90754 0.0
C1098 C 0.92026 0.00795 0.84498 0.0
C1099 C 0.90502 0.02851 0.84624 0.0
C1100 C 0.90081 0.04015 0.87808 0.0
H1101 H 0.79327 0.06879 0.69631 0.0
H1102 H 0.81567 0.05837 0.74938 0.0
C1103 C 0.91107 0.03084 0.90852 0.0
C1104 C 0.8917 0.03635 0.81483 0.0
H1105 H 0.88525 0.08327 0.75732 0.0
C1106 C 0.87427 0.02041 0.80082 0.0
C1107 C 0.89591 0.05919 0.79895 0.0
C1108 C 0.9152 0.0764 0.81232 0.0
C1109 C 0.86073 0.02681 0.77134 0.0
C1110 C 0.86454 0.04988 0.75584 0.0
C1111 C 0.88218 0.06573 0.76962 0.0
C1112 C 0.85104 0.05741 0.72441 0.0
C1113 C 0.84278 0.00867 0.75663 0.0
C1114 C 0.86364 0.06087 0.69316 0.0
C1115 C 0.85095 0.06689 0.66296 0.0
C1116 C 0.82543 0.06969 0.66352 0.0
C1117 C 0.81292 0.06679 0.6951 0.0
C1118 C 0.82565 0.06069 0.72533 0.0
H1119 H 0.84584 0.98999 0.76699 0.0
H1120 H 0.82397 0.01435 0.76365 0.0
H1121 H 0.84403 0.00805 0.72788 0.0
H1122 H 0.88326 0.05854 0.69203 0.0
H1123 H 0.86115 0.06948 0.63916 0.0
H1124 H 0.0268 0.92744 0.86854 0.0
H1125 H 0.00995 0.90545 0.81889 0.0
H1126 H 0.9403 0.90064 0.87055 0.0
H1127 H 0.9569 0.92275 0.92036 0.0
H1128 H 0.99069 0.85701 0.82851 0.0
H1129 H 0.92314 0.92034 0.76904 0.0
H1130 H 0.9477 0.93086 0.79654 0.0
H1131 H 0.92134 0.91663 0.81535 0.0
C1132 C 0.00776 0.92215 0.8691 0.0
C1133 C 0.99325 0.92655 0.89854 0.0
C1134 C 0.99819 0.9096 0.84071 0.0
C1135 C 0.97393 0.9015 0.84114 0.0
C1136 C 0.959 0.90701 0.86964 0.0
H1137 H 0.89111 0.8079 0.70238 0.0
H1138 H 0.90448 0.83338 0.75091 0.0
C1139 C 0.96857 0.91953 0.89812 0.0
C1140 C 0.96515 0.88501 0.81359 0.0
H1141 H 0.92411 0.87984 0.7475 0.0
C1142 C 0.9762 0.862 0.81066 0.0
C1143 C 0.94605 0.89155 0.79083 0.0
C1144 C 0.93391 0.91625 0.79277 0.0
C1145 C 0.96859 0.8452 0.78552 0.0
C1146 C 0.94981 0.85188 0.76222 0.0
C1147 C 0.93855 0.87482 0.7654 0.0
C1148 C 0.94203 0.83553 0.7338 0.0
C1149 C 0.98043 0.82032 0.78457 0.0
C1150 C 0.95876 0.82826 0.70826 0.0
C1151 C 0.95128 0.81344 0.68082 0.0
C1152 C 0.92684 0.80587 0.67819 0.0
C1153 C 0.91015 0.81306 0.70399 0.0
C1154 C 0.91769 0.82782 0.73152 0.0
H1155 H 0.98895 0.81561 0.80987 0.0
H1156 H 0.96699 0.80592 0.77781 0.0
H1157 H 0.99502 0.82026 0.7646 0.0
H1158 H 0.97754 0.83437 0.70924 0.0
H1159 H 0.96461 0.80808 0.6615 0.0
H1160 H 0.54739 0.5769 0.60804 0.0
H1161 H 0.56608 0.60039 0.65476 0.0
H1162 H 0.5018 0.58944 0.71753 0.0
H1163 H 0.48287 0.56654 0.67041 0.0
H1164 H 0.51432 0.63672 0.71409 0.0
H1165 H 0.59599 0.58123 0.74654 0.0
H1166 H 0.59398 0.58942 0.70153 0.0
H1167 H 0.57135 0.56962 0.72022 0.0
C1168 C 0.53749 0.57907 0.63191 0.0
C1169 C 0.5137 0.56993 0.63532 0.0
C1170 C 0.5482 0.59246 0.65876 0.0
C1171 C 0.53541 0.59653 0.68977 0.0
C1172 C 0.512 0.58656 0.69378 0.0
H1173 H 0.58389 0.65404 0.88475 0.0
H1174 H 0.57132 0.62937 0.83525 0.0
C1175 C 0.50123 0.57345 0.66682 0.0
C1176 C 0.54543 0.61272 0.71702 0.0
H1177 H 0.59331 0.6205 0.77255 0.0
C1178 C 0.53159 0.63316 0.72691 0.0
C1179 C 0.56792 0.60798 0.73372 0.0
C1180 C 0.58309 0.58576 0.72524 0.0
C1181 C 0.53945 0.64885 0.75335 0.0
C1182 C 0.5621 0.64435 0.76971 0.0
C1183 C 0.57607 0.62403 0.75965 0.0
C1184 C 0.57076 0.65952 0.79899 0.0
C1185 C 0.52302 0.66962 0.76429 0.0
C1186 C 0.57496 0.68464 0.79489 0.0
C1187 C 0.58179 0.69894 0.82336 0.0
C1188 C 0.58469 0.68827 0.8563 0.0
C1189 C 0.58122 0.66295 0.85993 0.0
C1190 C 0.57431 0.64875 0.83159 0.0
H1191 H 0.504 0.66704 0.75499 0.0
H1192 H 0.52269 0.67151 0.79298 0.0
H1193 H 0.53 0.68693 0.75312 0.0
H1194 H 0.57275 0.69322 0.76977 0.0
H1195 H 0.58433 0.71837 0.8197 0.0
H1196 H 0.42853 0.54931 0.60888 0.0
H1197 H 0.40692 0.57218 0.65398 0.0
H1198 H 0.39325 0.50507 0.70913 0.0
H1199 H 0.41468 0.48222 0.66436 0.0
H1200 H 0.35667 0.56364 0.6744 0.0
H1201 H 0.42122 0.55173 0.78372 0.0
H1202 H 0.43019 0.54802 0.7389 0.0
H1203 H 0.41471 0.52374 0.76133 0.0
C1204 C 0.42116 0.53948 0.63067 0.0
C1205 C 0.42328 0.51396 0.63279 0.0
C1206 C 0.4088 0.55257 0.65643 0.0
C1207 C 0.39876 0.5403 0.68498 0.0
C1208 C 0.40123 0.51491 0.68752 0.0
H1209 H 0.30395 0.54814 0.85514 0.0
H1210 H 0.33021 0.53903 0.80553 0.0
C1211 C 0.41337 0.50187 0.66175 0.0
C1212 C 0.38434 0.55346 0.71137 0.0
H1213 H 0.37967 0.56116 0.79889 0.0
C1214 C 0.36186 0.56365 0.70156 0.0
C1215 C 0.39129 0.55343 0.74666 0.0
C1216 C 0.41579 0.54386 0.7583 0.0
C1217 C 0.34538 0.57236 0.72659 0.0
C1218 C 0.35177 0.57091 0.76202 0.0
C1219 C 0.3748 0.56199 0.77162 0.0
C1220 C 0.33422 0.57672 0.78984 0.0
C1221 C 0.32076 0.58176 0.71528 0.0
C1222 C 0.32753 0.60092 0.79692 0.0
C1223 C 0.3126 0.60621 0.82539 0.0
C1224 C 0.30428 0.58735 0.84717 0.0
C1225 C 0.31034 0.56307 0.83911 0.0
C1226 C 0.32526 0.55783 0.81077 0.0
H1227 H 0.3177 0.57938 0.68698 0.0
H1228 H 0.30605 0.57214 0.72963 0.0
H1229 H 0.31932 0.60148 0.72155 0.0
H1230 H 0.33452 0.61573 0.78117 0.0
H1231 H 0.30847 0.62511 0.83122 0.0
H1232 H 0.44648 0.43184 0.61856 0.0
H1233 H 0.42729 0.40986 0.66653 0.0
H1234 H 0.49752 0.40202 0.71574 0.0
H1235 H 0.51672 0.42388 0.66815 0.0
H1236 H 0.43899 0.36131 0.68854 0.0
H1237 H 0.45362 0.42872 0.7935 0.0
H1238 H 0.45516 0.43674 0.74808 0.0
H1239 H 0.48088 0.42266 0.76914 0.0
C1240 C 0.45779 0.42565 0.63956 0.0
C1241 C 0.48313 0.42961 0.63919 0.0
C1242 C 0.4468 0.41307 0.66703 0.0
C1243 C 0.46098 0.40458 0.6948 0.0
C1244 C 0.48619 0.40881 0.69482 0.0
H1245 H 0.46443 0.31338 0.87019 0.0
H1246 H 0.47069 0.33778 0.81782 0.0
C1247 C 0.49714 0.42123 0.66741 0.0
C1248 C 0.45002 0.39013 0.72316 0.0
H1249 H 0.44694 0.38716 0.81142 0.0
C1250 C 0.44021 0.36709 0.7154 0.0
C1251 C 0.45158 0.39786 0.75807 0.0
C1252 C 0.46065 0.42296 0.76772 0.0
C1253 C 0.43336 0.35092 0.74196 0.0
C1254 C 0.43637 0.35815 0.77686 0.0
C1255 C 0.44496 0.38164 0.78453 0.0
C1256 C 0.43226 0.3412 0.80601 0.0
C1257 C 0.42416 0.32581 0.73276 0.0
C1258 C 0.40857 0.33474 0.81617 0.0
C1259 C 0.40491 0.3209 0.84622 0.0
C1260 C 0.42492 0.31346 0.86655 0.0
C1261 C 0.44866 0.31913 0.85534 0.0
C1262 C 0.45227 0.33297 0.82541 0.0
H1263 H 0.425 0.32224 0.7044 0.0
H1264 H 0.43506 0.3117 0.74649 0.0
H1265 H 0.40493 0.32393 0.74141 0.0
H1266 H 0.39292 0.34118 0.80162 0.0
H1267 H 0.3864 0.31707 0.85442 0.0
H1268 H 0.58381 0.52193 0.66106 0.0
H1269 H 0.60423 0.50114 0.70874 0.0
H1270 H 0.58607 0.43138 0.66389 0.0
H1271 H 0.5656 0.45212 0.61581 0.0
H1272 H 0.58276 0.46504 0.75549 0.0
H1273 H 0.66212 0.43012 0.67948 0.0
H1274 H 0.6433 0.4549 0.6639 0.0
H1275 H 0.63179 0.42427 0.6635 0.0
C1276 C 0.58412 0.50215 0.66114 0.0
C1277 C 0.57314 0.48866 0.63429 0.0
C1278 C 0.59578 0.49032 0.6885 0.0
C1279 C 0.59684 0.46479 0.68956 0.0
C1280 C 0.58567 0.45115 0.66321 0.0
H1281 H 0.67611 0.38734 0.85548 0.0
H1282 H 0.65228 0.39424 0.80247 0.0
C1283 C 0.57388 0.46303 0.63579 0.0
C1284 C 0.60967 0.45287 0.71863 0.0
H1285 H 0.6635 0.4253 0.74013 0.0
C1286 C 0.60023 0.45599 0.75214 0.0
C1287 C 0.63235 0.44096 0.71397 0.0
C1288 C 0.64319 0.43735 0.67835 0.0
C1289 C 0.61342 0.44849 0.78136 0.0
C1290 C 0.63677 0.43799 0.77686 0.0
C1291 C 0.64563 0.43354 0.74331 0.0
C1292 C 0.65291 0.43358 0.80682 0.0
C1293 C 0.6026 0.45246 0.81693 0.0
C1294 C 0.66175 0.45348 0.8259 0.0
C1295 C 0.67547 0.44966 0.85586 0.0
C1296 C 0.68058 0.42584 0.86729 0.0
C1297 C 0.67261 0.40591 0.8472 0.0
C1298 C 0.6589 0.40978 0.81707 0.0
H1299 H 0.58245 0.45468 0.81576 0.0
H1300 H 0.607 0.43697 0.83446 0.0
H1301 H 0.61043 0.46932 0.82836 0.0
H1302 H 0.65761 0.472 0.81793 0.0
H1303 H 0.68174 0.46537 0.8704 0.0
H1304 H 0.56581 0.53365 0.37136 0.0
H1305 H 0.58833 0.51827 0.3211 0.0
H1306 H 0.59308 0.44723 0.36894 0.0
H1307 H 0.57047 0.46232 0.41916 0.0
H1308 H 0.63628 0.49947 0.32807 0.0
H1309 H 0.57385 0.43172 0.26799 0.0
H1310 H 0.56328 0.45513 0.29743 0.0
H1311 H 0.5781 0.42827 0.31396 0.0
C1312 C 0.57122 0.51462 0.3709 0.0
C1313 C 0.56657 0.49924 0.39936 0.0
C1314 C 0.58409 0.50589 0.3422 0.0
C1315 C 0.59225 0.48163 0.34133 0.0
C1316 C 0.58662 0.46593 0.36892 0.0
H1317 H 0.68738 0.39764 0.20748 0.0
H1318 H 0.66137 0.41236 0.25461 0.0
C1319 C 0.57381 0.47463 0.39768 0.0
C1320 C 0.60875 0.47342 0.31335 0.0
H1321 H 0.61497 0.43176 0.24819 0.0
C1322 C 0.63158 0.4848 0.31038 0.0
C1323 C 0.60259 0.45411 0.29072 0.0
C1324 C 0.57805 0.44169 0.29238 0.0
C1325 C 0.64868 0.4771 0.28564 0.0
C1326 C 0.6425 0.45787 0.26283 0.0
C1327 C 0.61963 0.44649 0.26578 0.0
C1328 C 0.65941 0.44943 0.23542 0.0
C1329 C 0.67341 0.48921 0.28477 0.0
C1330 C 0.66704 0.46547 0.20921 0.0
C1331 C 0.68217 0.45722 0.18253 0.0
C1332 C 0.68971 0.43268 0.18136 0.0
C1333 C 0.68224 0.41673 0.20793 0.0
C1334 C 0.66718 0.42504 0.23468 0.0
H1335 H 0.67764 0.49848 0.3097 0.0
H1336 H 0.68806 0.47575 0.2792 0.0
H1337 H 0.67359 0.50323 0.26398 0.0
H1338 H 0.66091 0.48427 0.209 0.0
H1339 H 0.68774 0.46999 0.16259 0.0
H1340 H 0.52549 0.61521 0.44118 0.0
H1341 H 0.54174 0.63425 0.38867 0.0
H1342 H 0.52622 0.56874 0.33065 0.0
H1343 H 0.50928 0.54979 0.3828 0.0
H1344 H 0.57772 0.62318 0.34027 0.0
H1345 H 0.48527 0.6203 0.28121 0.0
H1346 H 0.49056 0.61368 0.32644 0.0
H1347 H 0.49683 0.59096 0.29392 0.0
C1348 C 0.52576 0.60475 0.41733 0.0
C1349 C 0.51555 0.58124 0.41588 0.0
C1350 C 0.53511 0.61564 0.38739 0.0
C1351 C 0.53453 0.60313 0.35565 0.0
C1352 C 0.52616 0.57894 0.35473 0.0
H1353 H 0.56487 0.64495 0.14389 0.0
H1354 H 0.55671 0.62314 0.19791 0.0
C1355 C 0.51657 0.56813 0.38455 0.0
C1356 C 0.54099 0.61601 0.3232 0.0
H1357 H 0.51731 0.63476 0.24571 0.0
C1358 C 0.56455 0.62574 0.31957 0.0
C1359 C 0.52362 0.61953 0.29645 0.0
C1360 C 0.49759 0.61079 0.29972 0.0
C1361 C 0.57133 0.63855 0.28952 0.0
C1362 C 0.55402 0.64179 0.26273 0.0
C1363 C 0.53051 0.63209 0.26636 0.0
C1364 C 0.55985 0.65511 0.23049 0.0
C1365 C 0.59699 0.64823 0.28633 0.0
C1366 C 0.56402 0.68036 0.23104 0.0
C1367 C 0.56836 0.693 0.20012 0.0
C1368 C 0.56852 0.68054 0.16819 0.0
C1369 C 0.5644 0.65519 0.16792 0.0
C1370 C 0.55998 0.64264 0.19877 0.0
H1371 H 0.60937 0.64023 0.30613 0.0
H1372 H 0.60449 0.64435 0.26012 0.0
H1373 H 0.59676 0.66833 0.28987 0.0
H1374 H 0.56353 0.69034 0.2553 0.0
H1375 H 0.5712 0.71255 0.20118 0.0
H1376 H 0.37464 0.49062 0.4254 0.0
H1377 H 0.35832 0.50659 0.37107 0.0
H1378 H 0.42623 0.48992 0.31954 0.0
H1379 H 0.44259 0.4733 0.37376 0.0
H1380 H 0.37476 0.54445 0.3307 0.0
H1381 H 0.37627 0.45718 0.25702 0.0
H1382 H 0.38004 0.45843 0.30351 0.0
H1383 H 0.40507 0.46602 0.27535 0.0
C1384 C 0.38612 0.49025 0.40251 0.0
C1385 C 0.40988 0.48062 0.40384 0.0
C1386 C 0.37677 0.49945 0.37151 0.0
C1387 C 0.39095 0.49917 0.34123 0.0
C1388 C 0.41482 0.48988 0.3425 0.0
H1389 H 0.35711 0.55001 0.13282 0.0
H1390 H 0.37785 0.5357 0.18517 0.0
C1391 C 0.42419 0.48055 0.37353 0.0
C1392 C 0.38058 0.5088 0.30854 0.0
H1393 H 0.36412 0.49252 0.22631 0.0
C1394 C 0.37245 0.53311 0.30785 0.0
C1395 C 0.3776 0.49393 0.27883 0.0
C1396 C 0.38499 0.46738 0.27863 0.0
C1397 C 0.36134 0.54295 0.27821 0.0
C1398 C 0.35815 0.528 0.24871 0.0
C1399 C 0.36666 0.50386 0.2491 0.0
C1400 C 0.34555 0.53695 0.21735 0.0
C1401 C 0.35315 0.56926 0.27853 0.0
C1402 C 0.32049 0.54212 0.21821 0.0
C1403 C 0.30848 0.55 0.18825 0.0
C1404 C 0.32137 0.55281 0.15694 0.0
C1405 C 0.34654 0.54763 0.15633 0.0
C1406 C 0.35848 0.53964 0.18623 0.0
H1407 H 0.36144 0.57963 0.30031 0.0
H1408 H 0.35795 0.57839 0.25372 0.0
H1409 H 0.33302 0.56997 0.28145 0.0
H1410 H 0.31018 0.53977 0.24196 0.0
H1411 H 0.28904 0.5535 0.1895 0.0
H1412 H 0.51468 0.44474 0.37569 0.0
H1413 H 0.49742 0.42664 0.32312 0.0
H1414 H 0.44271 0.39015 0.38459 0.0
H1415 H 0.45969 0.40819 0.43723 0.0
H1416 H 0.49548 0.37541 0.31472 0.0
H1417 H 0.40346 0.4171 0.30158 0.0
H1418 H 0.42798 0.43165 0.32516 0.0
H1419 H 0.41127 0.40698 0.34451 0.0
C1420 C 0.49869 0.43323 0.37797 0.0
C1421 C 0.48868 0.42769 0.41064 0.0
C1422 C 0.48886 0.42295 0.34792 0.0
C1423 C 0.46871 0.40724 0.35002 0.0
C1424 C 0.45801 0.40256 0.38239 0.0
H1425 H 0.42843 0.28756 0.21652 0.0
H1426 H 0.4412 0.31406 0.26443 0.0
C1427 C 0.46788 0.41272 0.41247 0.0
C1428 C 0.46069 0.39348 0.31913 0.0
H1429 H 0.41148 0.38183 0.2675 0.0
C1430 C 0.47719 0.37695 0.30417 0.0
C1431 C 0.43687 0.39568 0.30545 0.0
C1432 C 0.41888 0.41395 0.31974 0.0
C1433 C 0.47029 0.36203 0.27634 0.0
C1434 C 0.44618 0.36351 0.26352 0.0
C1435 C 0.42986 0.38055 0.27779 0.0
C1436 C 0.43768 0.34757 0.23509 0.0
C1437 C 0.48887 0.34486 0.26079 0.0
C1438 C 0.43102 0.35776 0.20312 0.0
C1439 C 0.42366 0.34273 0.17584 0.0
C1440 C 0.4227 0.31724 0.18016 0.0
C1441 C 0.42895 0.30712 0.21248 0.0
C1442 C 0.43639 0.32219 0.23974 0.0
H1443 H 0.50781 0.35004 0.26798 0.0
H1444 H 0.48547 0.32611 0.27053 0.0
H1445 H 0.48739 0.34454 0.23205 0.0
H1446 H 0.43177 0.37733 0.19918 0.0
H1447 H 0.41851 0.35108 0.15143 0.0
loop_
_geom_bond_atom_site_label_1
_geom_bond_atom_site_label_2
_geom_bond_distance
_geom_bond_site_symmetry_2
_ccdc_geom_bond_type
Zn0 O2 1.933 1_556 S
Zn0 O20 1.985 . S
Zn0 O31 1.955 . S
Zn1 O2 1.911 . S
Zn1 O21 1.970 . S
Zn1 O37 1.945 . S
Zn1 O44 1.981 . S
O2 Zn0 1.933 1_554 S
O2 Zn1 1.911 . S
O2 H3 0.841 1_655 S
H3 O2 0.841 1_455 S
C4 O5 1.246 . S
C4 O33 1.276 1_545 S
O5 C4 1.246 . S
Zn6 O8 1.911 . S
Zn6 O23 1.970 . S
Zn6 O40 1.945 . S
Zn6 O47 1.981 . S
Zn7 O8 1.933 1_556 S
Zn7 O22 1.985 . S
Zn7 O29 1.955 . S
O8 Zn6 1.911 . S
O8 Zn7 1.933 1_554 S
O8 H9 0.841 1_455 S
H9 O8 0.841 1_655 S
Zn10 O11 1.933 1_556 S
Zn10 O24 1.985 . S
Zn10 O33 1.955 . S
O11 Zn10 1.933 1_554 S
O11 Zn12 1.911 . S
O11 H13 0.841 1_565 S
Zn12 O11 1.911 . S
Zn12 O25 1.970 . S
Zn12 O41 1.981 . S
Zn12 O43 1.945 . S
H13 O11 0.841 1_545 S
Zn14 O15 1.933 1_556 S
Zn14 O27 1.985 . S
Zn14 O35 1.955 . S
O15 Zn14 1.933 1_554 S
O15 H16 0.841 1_545 S
O15 Zn17 1.911 . S
H16 O15 0.841 1_565 S
Zn17 O15 1.911 . S
Zn17 O28 1.970 . S
Zn17 O38 1.981 . S
Zn17 O46 1.945 . S
C18 O19 1.246 . S
C18 O35 1.276 1_565 S
O19 C18 1.246 . S
O20 Zn0 1.985 . S
O20 C30 1.245 1_556 S
O21 Zn1 1.970 . S
O21 C30 1.263 . S
O22 Zn7 1.985 . S
O22 C34 1.245 1_556 S
O23 Zn6 1.970 . S
O23 C34 1.263 . S
O24 Zn10 1.985 . S
O24 C39 1.245 1_556 S
O25 Zn12 1.970 . S
O25 C39 1.263 . S
C26 O37 1.262 1_455 S
C26 O38 1.245 . S
O27 Zn14 1.985 . S
O27 C45 1.245 1_556 S
O28 Zn17 1.970 . S
O28 C45 1.263 . S
O29 Zn7 1.955 . S
O29 C48 1.276 1_455 S
C30 O20 1.245 1_554 S
C30 O21 1.263 . S
O31 Zn0 1.955 . S
O31 C50 1.276 1_655 S
C32 O40 1.262 1_655 S
C32 O41 1.245 . S
O33 C4 1.276 1_565 S
O33 Zn10 1.955 . S
C34 O22 1.245 1_554 S
C34 O23 1.263 . S
O35 Zn14 1.955 . S
O35 C18 1.276 1_545 S
C36 O43 1.262 1_545 S
C36 O44 1.245 . S
O37 Zn1 1.945 . S
O37 C26 1.262 1_655 S
O38 Zn17 1.981 . S
O38 C26 1.245 . S
C39 O24 1.245 1_554 S
C39 O25 1.263 . S
O40 Zn6 1.945 . S
O40 C32 1.262 1_455 S
O41 Zn12 1.981 . S
O41 C32 1.245 . S
C42 O46 1.262 1_565 S
C42 O47 1.245 . S
O43 Zn12 1.945 . S
O43 C36 1.262 1_565 S
O44 Zn1 1.981 . S
O44 C36 1.245 . S
C45 O27 1.245 1_554 S
C45 O28 1.263 . S
O46 Zn17 1.945 . S
O46 C42 1.262 1_545 S
O47 Zn6 1.981 . S
O47 C42 1.245 . S
C48 O29 1.276 1_655 S
C48 O49 1.246 . S
O49 C48 1.246 . S
C50 O31 1.276 1_455 S
C50 O51 1.246 . S
O51 C50 1.246 . S
Zn52 O54 1.933 . S
Zn52 O72 1.985 . S
Zn52 O83 1.955 . S
Zn53 O54 1.911 . S
Zn53 O73 1.970 . S
Zn53 O89 1.945 . S
Zn53 O96 1.981 . S
O54 Zn52 1.933 . S
O54 Zn53 1.911 . S
O54 H55 0.841 . S
H55 O54 0.841 . S
C56 O57 1.246 . S
C56 O85 1.276 . S
O57 C56 1.246 . S
Zn58 O60 1.911 . S
Zn58 O75 1.970 . S
Zn58 O92 1.945 . S
Zn58 O99 1.981 . S
Zn59 O60 1.933 . S
Zn59 O74 1.985 . S
Zn59 O81 1.955 . S
O60 Zn58 1.911 . S
O60 Zn59 1.933 . S
O60 H61 0.841 . S
H61 O60 0.841 . S
Zn62 O63 1.933 . S
Zn62 O76 1.985 . S
Zn62 O85 1.955 . S
O63 Zn62 1.933 . S
O63 Zn64 1.911 . S
O63 H65 0.841 . S
Zn64 O63 1.911 . S
Zn64 O77 1.970 . S
Zn64 O93 1.981 . S
Zn64 O95 1.945 . S
H65 O63 0.841 . S
Zn66 O67 1.933 . S
Zn66 O79 1.985 . S
Zn66 O87 1.955 . S
O67 Zn66 1.933 . S
O67 H68 0.841 . S
O67 Zn69 1.911 . S
H68 O67 0.841 . S
Zn69 O67 1.911 . S
Zn69 O80 1.970 . S
Zn69 O90 1.981 . S
Zn69 O98 1.945 . S
C70 O71 1.246 . S
C70 O87 1.276 . S
O71 C70 1.246 . S
O72 Zn52 1.985 . S
O72 C82 1.245 . S
O73 Zn53 1.970 . S
O73 C82 1.263 . S
O74 Zn59 1.985 . S
O74 C86 1.245 . S
O75 Zn58 1.970 . S
O75 C86 1.263 . S
O76 Zn62 1.985 . S
O76 C91 1.245 . S
O77 Zn64 1.970 . S
O77 C91 1.263 . S
C78 O89 1.262 . S
C78 O90 1.245 . S
O79 Zn66 1.985 . S
O79 C97 1.245 . S
O80 Zn69 1.970 . S
O80 C97 1.263 . S
O81 Zn59 1.955 . S
O81 C100 1.276 . S
C82 O72 1.245 . S
C82 O73 1.263 . S
O83 Zn52 1.955 . S
O83 C102 1.276 . S
C84 O92 1.262 . S
C84 O93 1.245 . S
O85 C56 1.276 . S
O85 Zn62 1.955 . S
C86 O74 1.245 . S
C86 O75 1.263 . S
O87 Zn66 1.955 . S
O87 C70 1.276 . S
C88 O95 1.262 . S
C88 O96 1.245 . S
O89 Zn53 1.945 . S
O89 C78 1.262 . S
O90 Zn69 1.981 . S
O90 C78 1.245 . S
C91 O76 1.245 . S
C91 O77 1.263 . S
O92 Zn58 1.945 . S
O92 C84 1.262 . S
O93 Zn64 1.981 . S
O93 C84 1.245 . S
C94 O98 1.262 . S
C94 O99 1.245 . S
O95 Zn64 1.945 . S
O95 C88 1.262 . S
O96 Zn53 1.981 . S
O96 C88 1.245 . S
C97 O79 1.245 . S
C97 O80 1.263 . S
O98 Zn69 1.945 . S
O98 C94 1.262 . S
O99 Zn58 1.981 . S
O99 C94 1.245 . S
C100 O81 1.276 . S
C100 O101 1.246 . S
O101 C100 1.246 . S
C102 O83 1.276 . S
C102 O103 1.246 . S
O103 C102 1.246 . S
C104 C105 1.391 . S
C104 C108 1.391 . S
C104 H146 0.948 . S
C105 C104 1.391 . S
C105 C106 1.391 . S
C106 C105 1.391 . S
C106 H162 0.947 . S
C106 C163 1.392 . S
C107 C108 1.391 . S
C107 C111 1.397 . S
C107 C163 1.419 . S
C108 C104 1.391 . S
C108 C107 1.391 . S
C108 C109 1.399 . S
C109 C108 1.399 . S
C109 C112 1.396 . S
C109 C121 1.453 . S
C109 C122 1.684 . S
H110 C134 0.948 . S
C111 C107 1.397 . S
C111 C112 1.394 . S
C111 C130 1.723 1_556 S
C112 C109 1.396 . S
C112 C111 1.394 . S
C112 C142 1.723 1_556 S
H113 C136 0.947 . S
H114 C137 0.948 . S
H115 C143 0.982 . S
H116 C144 0.979 . S
H117 C144 0.980 . S
H118 C144 0.983 . S
H119 C143 0.979 . S
H120 C143 0.977 . S
C121 C109 1.453 . S
C121 H150 0.982 . S
C121 H151 0.979 . S
C121 H152 0.977 . S
C122 C109 1.684 . S
C122 H147 0.979 . S
C122 H148 0.980 . S
C122 H149 0.983 . S
C123 C124 1.391 . S
C123 C128 1.391 . S
C123 H153 0.948 . S
C124 C123 1.391 . S
C124 C125 1.391 . S
C125 C124 1.391 . S
C125 C126 1.392 . S
C125 H154 0.947 . S
C126 C125 1.392 . S
C126 C127 1.419 . S
C126 H155 0.948 . S
C127 C126 1.419 . S
C127 C128 1.391 . S
C127 C131 1.397 . S
C128 C123 1.391 . S
C128 C127 1.391 . S
C128 C129 1.399 . S
C129 C128 1.399 . S
C129 C130 1.396 . S
C129 C132 1.453 . S
C129 C133 1.684 . S
C130 C111 1.723 1_554 S
C130 C129 1.396 . S
C130 C131 1.394 . S
C131 C127 1.397 . S
C131 C130 1.394 . S
C131 C141 1.723 . S
C132 C129 1.453 . S
C132 H156 0.982 . S
C132 H157 0.979 . S
C132 H158 0.977 . S
C133 C129 1.684 . S
C133 H159 0.979 . S
C133 H160 0.980 . S
C133 H161 0.983 . S
C134 H110 0.948 . S
C134 C135 1.391 . S
C134 C139 1.391 . S
C135 C134 1.391 . S
C135 C136 1.391 1_554 S
C136 H113 0.947 . S
C136 C135 1.391 1_556 S
C136 C137 1.392 . S
C137 H114 0.948 . S
C137 C136 1.392 . S
C137 C138 1.419 1_556 S
C138 C137 1.419 1_554 S
C138 C139 1.391 . S
C138 C142 1.397 . S
C139 C134 1.391 . S
C139 C138 1.391 . S
C139 C140 1.399 . S
C140 C139 1.399 . S
C140 C141 1.396 . S
C140 C143 1.453 . S
C140 C144 1.684 . S
C141 C131 1.723 . S
C141 C140 1.396 . S
C141 C142 1.394 . S
C142 C112 1.723 1_554 S
C142 C138 1.397 . S
C142 C141 1.394 . S
C143 H115 0.982 . S
C143 H119 0.979 . S
C143 H120 0.977 . S
C143 C140 1.453 . S
C144 H116 0.979 . S
C144 H117 0.980 . S
C144 H118 0.983 . S
C144 C140 1.684 . S
H145 C163 0.948 . S
H146 C104 0.948 . S
H147 C122 0.979 . S
H148 C122 0.980 . S
H149 C122 0.983 . S
H150 C121 0.982 . S
H151 C121 0.979 . S
H152 C121 0.977 . S
H153 C123 0.948 . S
H154 C125 0.947 . S
H155 C126 0.948 . S
H156 C132 0.982 . S
H157 C132 0.979 . S
H158 C132 0.977 . S
H159 C133 0.979 . S
H160 C133 0.980 . S
H161 C133 0.983 . S
H162 C106 0.947 . S
C163 C106 1.392 . S
C163 C107 1.419 . S
C163 H145 0.948 . S
C164 C165 1.391 . S
C164 C168 1.391 . S
C164 H206 0.948 . S
C165 C164 1.391 . S
C165 C166 1.391 . S
C166 C165 1.391 . S
C166 H222 0.947 . S
C166 C223 1.392 . S
C167 C168 1.391 . S
C167 C171 1.397 . S
C167 C223 1.419 . S
C168 C164 1.391 . S
C168 C167 1.391 . S
C168 C169 1.399 . S
C169 C168 1.399 . S
C169 C172 1.396 . S
C169 C181 1.453 . S
C169 C182 1.684 . S
H170 C194 0.948 . S
C171 C167 1.397 . S
C171 C172 1.394 . S
C171 C190 1.723 1_556 S
C172 C169 1.396 . S
C172 C171 1.394 . S
C172 C202 1.723 1_556 S
H173 C196 0.947 . S
H174 C197 0.948 . S
H175 C203 0.982 . S
H176 C204 0.979 . S
H177 C204 0.980 . S
H178 C204 0.983 . S
H179 C203 0.979 . S
H180 C203 0.977 . S
C181 C169 1.453 . S
C181 H210 0.982 . S
C181 H211 0.979 . S
C181 H212 0.977 . S
C182 C169 1.684 . S
C182 H207 0.979 . S
C182 H208 0.980 . S
C182 H209 0.983 . S
C183 C184 1.391 . S
C183 C188 1.391 . S
C183 H213 0.948 . S
C184 C183 1.391 . S
C184 C185 1.391 . S
C185 C184 1.391 . S
C185 C186 1.392 . S
C185 H214 0.947 . S
C186 C185 1.392 . S
C186 C187 1.419 . S
C186 H215 0.948 . S
C187 C186 1.419 . S
C187 C188 1.391 . S
C187 C191 1.397 . S
C188 C183 1.391 . S
C188 C187 1.391 . S
C188 C189 1.399 . S
C189 C188 1.399 . S
C189 C190 1.396 . S
C189 C192 1.453 . S
C189 C193 1.684 . S
C190 C171 1.723 1_554 S
C190 C189 1.396 . S
C190 C191 1.394 . S
C191 C187 1.397 . S
C191 C190 1.394 . S
C191 C201 1.723 . S
C192 C189 1.453 . S
C192 H216 0.982 . S
C192 H217 0.979 . S
C192 H218 0.977 . S
C193 C189 1.684 . S
C193 H219 0.979 . S
C193 H220 0.980 . S
C193 H221 0.983 . S
C194 H170 0.948 . S
C194 C195 1.391 . S
C194 C199 1.391 . S
C195 C194 1.391 . S
C195 C196 1.391 1_554 S
C196 H173 0.947 . S
C196 C195 1.391 1_556 S
C196 C197 1.392 . S
C197 H174 0.948 . S
C197 C196 1.392 . S
C197 C198 1.419 1_556 S
C198 C197 1.419 1_554 S
C198 C199 1.391 . S
C198 C202 1.397 . S
C199 C194 1.391 . S
C199 C198 1.391 . S
C199 C200 1.399 . S
C200 C199 1.399 . S
C200 C201 1.396 . S
C200 C203 1.453 . S
C200 C204 1.684 . S
C201 C191 1.723 . S
C201 C200 1.396 . S
C201 C202 1.394 . S
C202 C172 1.723 1_554 S
C202 C198 1.397 . S
C202 C201 1.394 . S
C203 H175 0.982 . S
C203 H179 0.979 . S
C203 H180 0.977 . S
C203 C200 1.453 . S
C204 H176 0.979 . S
C204 H177 0.980 . S
C204 H178 0.983 . S
C204 C200 1.684 . S
H205 C223 0.948 . S
H206 C164 0.948 . S
H207 C182 0.979 . S
H208 C182 0.980 . S
H209 C182 0.983 . S
H210 C181 0.982 . S
H211 C181 0.979 . S
H212 C181 0.977 . S
H213 C183 0.948 . S
H214 C185 0.947 . S
H215 C186 0.948 . S
H216 C192 0.982 . S
H217 C192 0.979 . S
H218 C192 0.977 . S
H219 C193 0.979 . S
H220 C193 0.980 . S
H221 C193 0.983 . S
H222 C166 0.947 . S
C223 C166 1.392 . S
C223 C167 1.419 . S
C223 H205 0.948 . S
C224 C225 1.391 . S
C224 C228 1.391 . S
C224 H266 0.948 . S
C225 C224 1.391 . S
C225 C226 1.391 . S
C226 C225 1.391 . S
C226 H282 0.947 . S
C226 C283 1.392 . S
C227 C228 1.391 . S
C227 C231 1.397 . S
C227 C283 1.419 . S
C228 C224 1.391 . S
C228 C227 1.391 . S
C228 C229 1.399 . S
C229 C228 1.399 . S
C229 C232 1.396 . S
C229 C241 1.453 . S
C229 C242 1.684 . S
H230 C254 0.948 . S
C231 C227 1.397 . S
C231 C232 1.394 . S
C231 C250 1.723 . S
C232 C229 1.396 . S
C232 C231 1.394 . S
C232 C262 1.723 . S
H233 C256 0.947 . S
H234 C257 0.948 . S
H235 C263 0.982 . S
H236 C264 0.979 . S
H237 C264 0.980 . S
H238 C264 0.983 . S
H239 C263 0.979 . S
H240 C263 0.977 . S
C241 C229 1.453 . S
C241 H270 0.982 . S
C241 H271 0.979 . S
C241 H272 0.977 . S
C242 C229 1.684 . S
C242 H267 0.979 . S
C242 H268 0.980 . S
C242 H269 0.983 . S
C243 C244 1.391 . S
C243 C248 1.391 . S
C243 H273 0.948 . S
C244 C243 1.391 . S
C244 C245 1.391 . S
C245 C244 1.391 . S
C245 C246 1.392 . S
C245 H274 0.947 . S
C246 C245 1.392 . S
C246 C247 1.419 . S
C246 H275 0.948 . S
C247 C246 1.419 . S
C247 C248 1.391 . S
C247 C251 1.397 . S
C248 C243 1.391 . S
C248 C247 1.391 . S
C248 C249 1.399 . S
C249 C248 1.399 . S
C249 C250 1.396 1_556 S
C249 C252 1.453 1_556 S
C249 C253 1.684 1_556 S
C250 C231 1.723 . S
C250 C249 1.396 1_554 S
C250 C251 1.394 1_554 S
C251 C247 1.397 . S
C251 C250 1.394 1_556 S
C251 C261 1.723 . S
C252 C249 1.453 1_554 S
C252 H276 0.982 1_554 S
C252 H277 0.979 1_554 S
C252 H278 0.977 . S
C253 C249 1.684 1_554 S
C253 H279 0.982 . S
C253 H280 0.980 . S
C253 H281 0.983 1_554 S
C254 H230 0.948 . S
C254 C255 1.391 1_556 S
C254 C259 1.391 1_556 S
C255 C254 1.391 1_554 S
C255 C256 1.391 . S
C256 H233 0.947 . S
C256 C255 1.391 . S
C256 C257 1.392 . S
C257 H234 0.948 . S
C257 C256 1.392 . S
C257 C258 1.419 . S
C258 C257 1.419 . S
C258 C259 1.391 . S
C258 C262 1.397 . S
C259 C254 1.391 1_554 S
C259 C258 1.391 . S
C259 C260 1.399 1_554 S
C260 C259 1.399 1_556 S
C260 C261 1.396 . S
C260 C263 1.453 . S
C260 C264 1.684 . S
C261 C251 1.723 . S
C261 C260 1.396 . S
C261 C262 1.394 1_556 S
C262 C232 1.723 . S
C262 C258 1.397 . S
C262 C261 1.394 1_554 S
C263 H235 0.982 . S
C263 H239 0.979 . S
C263 H240 0.977 . S
C263 C260 1.453 . S
C264 H236 0.979 . S
C264 H237 0.980 . S
C264 H238 0.983 . S
C264 C260 1.684 . S
H265 C283 0.948 . S
H266 C224 0.948 . S
H267 C242 0.979 . S
H268 C242 0.980 . S
H269 C242 0.983 . S
H270 C241 0.982 . S
H271 C241 0.979 . S
H272 C241 0.977 . S
H273 C243 0.948 . S
H274 C245 0.947 . S
H275 C246 0.948 . S
H276 C252 0.982 1_556 S
H277 C252 0.979 1_556 S
H278 C252 0.977 . S
H279 C253 0.982 . S
H280 C253 0.980 . S
H281 C253 0.983 1_556 S
H282 C226 0.947 . S
C283 C226 1.392 . S
C283 C227 1.419 . S
C283 H265 0.948 . S
C284 C285 1.391 . S
C284 C288 1.391 . S
C284 H326 0.948 . S
C285 C284 1.391 . S
C285 C286 1.391 . S
C286 C285 1.391 . S
C286 H342 0.947 . S
C286 C343 1.392 . S
C287 C288 1.391 . S
C287 C291 1.397 . S
C287 C343 1.419 . S
C288 C284 1.391 . S
C288 C287 1.391 . S
C288 C289 1.399 . S
C289 C288 1.399 . S
C289 C292 1.396 . S
C289 C301 1.453 . S
C289 C302 1.684 . S
H290 C314 0.948 . S
C291 C287 1.397 . S
C291 C292 1.394 . S
C291 C310 1.723 . S
C292 C289 1.396 . S
C292 C291 1.394 . S
C292 C322 1.723 . S
H293 C316 0.947 . S
H294 C317 0.948 . S
H295 C323 0.982 . S
H296 C324 0.979 . S
H297 C324 0.980 . S
H298 C324 0.983 . S
H299 C323 0.979 . S
H300 C323 0.977 . S
C301 C289 1.453 . S
C301 H330 0.982 . S
C301 H331 0.979 . S
C301 H332 0.977 . S
C302 C289 1.684 . S
C302 H327 0.979 . S
C302 H328 0.980 . S
C302 H329 0.983 . S
C303 C304 1.391 . S
C303 C308 1.391 . S
C303 H333 0.948 . S
C304 C303 1.391 . S
C304 C305 1.391 . S
C305 C304 1.391 . S
C305 C306 1.392 . S
C305 H334 0.947 . S
C306 C305 1.392 . S
C306 C307 1.419 . S
C306 H335 0.948 . S
C307 C306 1.419 . S
C307 C308 1.391 . S
C307 C311 1.397 . S
C308 C303 1.391 . S
C308 C307 1.391 . S
C308 C309 1.399 . S
C309 C308 1.399 . S
C309 C310 1.396 1_556 S
C309 C312 1.453 1_556 S
C309 C313 1.684 1_556 S
C310 C291 1.723 . S
C310 C309 1.396 1_554 S
C310 C311 1.394 1_554 S
C311 C307 1.397 . S
C311 C310 1.394 1_556 S
C311 C321 1.723 . S
C312 C309 1.453 1_554 S
C312 H336 0.982 1_554 S
C312 H337 0.979 1_554 S
C312 H338 0.977 . S
C313 C309 1.684 1_554 S
C313 H339 0.982 . S
C313 H340 0.980 . S
C313 H341 0.983 1_554 S
C314 H290 0.948 . S
C314 C315 1.391 1_556 S
C314 C319 1.391 1_556 S
C315 C314 1.391 1_554 S
C315 C316 1.391 . S
C316 H293 0.947 . S
C316 C315 1.391 . S
C316 C317 1.392 . S
C317 H294 0.948 . S
C317 C316 1.392 . S
C317 C318 1.419 . S
C318 C317 1.419 . S
C318 C319 1.391 . S
C318 C322 1.397 . S
C319 C314 1.391 1_554 S
C319 C318 1.391 . S
C319 C320 1.399 1_554 S
C320 C319 1.399 1_556 S
C320 C321 1.396 . S
C320 C323 1.453 . S
C320 C324 1.684 . S
C321 C311 1.723 . S
C321 C320 1.396 . S
C321 C322 1.394 1_556 S
C322 C292 1.723 . S
C322 C318 1.397 . S
C322 C321 1.394 1_554 S
C323 H295 0.982 . S
C323 H299 0.979 . S
C323 H300 0.977 . S
C323 C320 1.453 . S
C324 H296 0.979 . S
C324 H297 0.980 . S
C324 H298 0.983 . S
C324 C320 1.684 . S
H325 C343 0.948 . S
H326 C284 0.948 . S
H327 C302 0.979 . S
H328 C302 0.980 . S
H329 C302 0.983 . S
H330 C301 0.982 . S
H331 C301 0.979 . S
H332 C301 0.977 . S
H333 C303 0.948 . S
H334 C305 0.947 . S
H335 C306 0.948 . S
H336 C312 0.982 1_556 S
H337 C312 0.979 1_556 S
H338 C312 0.977 . S
H339 C313 0.982 . S
H340 C313 0.980 . S
H341 C313 0.983 1_556 S
H342 C286 0.947 . S
C343 C286 1.392 . S
C343 C287 1.419 . S
C343 H325 0.948 . S
C344 C345 1.391 . S
C344 C348 1.391 . S
C344 H386 0.948 . S
C345 C344 1.391 . S
C345 C346 1.391 . S
C346 C345 1.391 . S
C346 H402 0.947 . S
C346 C403 1.392 . S
C347 C348 1.391 . S
C347 C351 1.397 . S
C347 C403 1.419 . S
C348 C344 1.391 . S
C348 C347 1.391 . S
C348 C349 1.399 . S
C349 C348 1.399 . S
C349 C352 1.396 . S
C349 C361 1.453 . S
C349 C362 1.684 . S
H350 C374 0.948 . S
C351 C347 1.397 . S
C351 C352 1.394 . S
C351 C370 1.723 . S
C352 C349 1.396 . S
C352 C351 1.394 . S
C352 C382 1.723 . S
H353 C376 0.947 . S
H354 C377 0.948 . S
H355 C383 0.982 . S
H356 C384 0.979 . S
H357 C384 0.980 . S
H358 C384 0.983 . S
H359 C383 0.979 . S
H360 C383 0.977 . S
C361 C349 1.453 . S
C361 H390 0.982 . S
C361 H391 0.979 . S
C361 H392 0.977 . S
C362 C349 1.684 . S
C362 H387 0.979 . S
C362 H388 0.980 . S
C362 H389 0.983 . S
C363 C364 1.391 . S
C363 C368 1.391 . S
C363 H393 0.948 . S
C364 C363 1.391 . S
C364 C365 1.391 . S
C365 C364 1.391 . S
C365 C366 1.392 . S
C365 H394 0.947 . S
C366 C365 1.392 . S
C366 C367 1.419 . S
C366 H395 0.948 . S
C367 C366 1.419 . S
C367 C368 1.391 . S
C367 C371 1.397 . S
C368 C363 1.391 . S
C368 C367 1.391 . S
C368 C369 1.399 . S
C369 C368 1.399 . S
C369 C370 1.396 . S
C369 C372 1.453 . S
C369 C373 1.684 . S
C370 C351 1.723 . S
C370 C369 1.396 . S
C370 C371 1.394 . S
C371 C367 1.397 . S
C371 C370 1.394 . S
C371 C381 1.723 . S
C372 C369 1.453 . S
C372 H396 0.982 . S
C372 H397 0.979 . S
C372 H398 0.977 . S
C373 C369 1.684 . S
C373 H399 0.979 . S
C373 H400 0.980 . S
C373 H401 0.983 . S
C374 H350 0.948 . S
C374 C375 1.391 . S
C374 C379 1.391 . S
C375 C374 1.391 . S
C375 C376 1.391 . S
C376 H353 0.947 . S
C376 C375 1.391 . S
C376 C377 1.392 . S
C377 H354 0.948 . S
C377 C376 1.392 . S
C377 C378 1.419 . S
C378 C377 1.419 . S
C378 C379 1.391 . S
C378 C382 1.397 . S
C379 C374 1.391 . S
C379 C378 1.391 . S
C379 C380 1.399 . S
C380 C379 1.399 . S
C380 C381 1.396 . S
C380 C383 1.453 . S
C380 C384 1.684 . S
C381 C371 1.723 . S
C381 C380 1.396 . S
C381 C382 1.394 . S
C382 C352 1.723 . S
C382 C378 1.397 . S
C382 C381 1.394 . S
C383 H355 0.982 . S
C383 H359 0.979 . S
C383 H360 0.977 . S
C383 C380 1.453 . S
C384 H356 0.979 . S
C384 H357 0.980 . S
C384 H358 0.983 . S
C384 C380 1.684 . S
H385 C403 0.948 . S
H386 C344 0.948 . S
H387 C362 0.979 . S
H388 C362 0.980 . S
H389 C362 0.983 . S
H390 C361 0.982 . S
H391 C361 0.979 . S
H392 C361 0.977 . S
H393 C363 0.948 . S
H394 C365 0.947 . S
H395 C366 0.948 . S
H396 C372 0.982 . S
H397 C372 0.979 . S
H398 C372 0.977 . S
H399 C373 0.979 . S
H400 C373 0.980 . S
H401 C373 0.983 . S
H402 C346 0.947 . S
C403 C346 1.392 . S
C403 C347 1.419 . S
C403 H385 0.948 . S
C404 C405 1.391 . S
C404 C408 1.391 . S
C404 H446 0.948 . S
C405 C404 1.391 . S
C405 C406 1.391 . S
C406 C405 1.391 . S
C406 H462 0.947 . S
C406 C463 1.392 . S
C407 C408 1.391 . S
C407 C411 1.397 . S
C407 C463 1.419 . S
C408 C404 1.391 . S
C408 C407 1.391 . S
C408 C409 1.399 . S
C409 C408 1.399 . S
C409 C412 1.396 . S
C409 C421 1.453 . S
C409 C422 1.684 . S
H410 C434 0.948 . S
C411 C407 1.397 . S
C411 C412 1.394 . S
C411 C430 1.723 . S
C412 C409 1.396 . S
C412 C411 1.394 . S
C412 C442 1.723 . S
H413 C436 0.947 . S
H414 C437 0.948 . S
H415 C443 0.982 . S
H416 C444 0.979 . S
H417 C444 0.980 . S
H418 C444 0.983 . S
H419 C443 0.979 . S
H420 C443 0.977 . S
C421 C409 1.453 . S
C421 H450 0.982 . S
C421 H451 0.979 . S
C421 H452 0.977 . S
C422 C409 1.684 . S
C422 H447 0.979 . S
C422 H448 0.980 . S
C422 H449 0.983 . S
C423 C424 1.391 . S
C423 C428 1.391 . S
C423 H453 0.948 . S
C424 C423 1.391 . S
C424 C425 1.391 . S
C425 C424 1.391 . S
C425 C426 1.392 . S
C425 H454 0.947 . S
C426 C425 1.392 . S
C426 C427 1.419 . S
C426 H455 0.948 . S
C427 C426 1.419 . S
C427 C428 1.391 . S
C427 C431 1.397 . S
C428 C423 1.391 . S
C428 C427 1.391 . S
C428 C429 1.399 . S
C429 C428 1.399 . S
C429 C430 1.396 . S
C429 C432 1.453 . S
C429 C433 1.684 . S
C430 C411 1.723 . S
C430 C429 1.396 . S
C430 C431 1.394 . S
C431 C427 1.397 . S
C431 C430 1.394 . S
C431 C441 1.723 . S
C432 C429 1.453 . S
C432 H456 0.982 . S
C432 H457 0.979 . S
C432 H458 0.977 . S
C433 C429 1.684 . S
C433 H459 0.979 . S
C433 H460 0.980 . S
C433 H461 0.983 . S
C434 H410 0.948 . S
C434 C435 1.391 . S
C434 C439 1.391 . S
C435 C434 1.391 . S
C435 C436 1.391 . S
C436 H413 0.947 . S
C436 C435 1.391 . S
C436 C437 1.392 . S
C437 H414 0.948 . S
C437 C436 1.392 . S
C437 C438 1.419 . S
C438 C437 1.419 . S
C438 C439 1.391 . S
C438 C442 1.397 . S
C439 C434 1.391 . S
C439 C438 1.391 . S
C439 C440 1.399 . S
C440 C439 1.399 . S
C440 C441 1.396 . S
C440 C443 1.453 . S
C440 C444 1.684 . S
C441 C431 1.723 . S
C441 C440 1.396 . S
C441 C442 1.394 . S
C442 C412 1.723 . S
C442 C438 1.397 . S
C442 C441 1.394 . S
C443 H415 0.982 . S
C443 H419 0.979 . S
C443 H420 0.977 . S
C443 C440 1.453 . S
C444 H416 0.979 . S
C444 H417 0.980 . S
C444 H418 0.983 . S
C444 C440 1.684 . S
H445 C463 0.948 . S
H446 C404 0.948 . S
H447 C422 0.979 . S
H448 C422 0.980 . S
H449 C422 0.983 . S
H450 C421 0.982 . S
H451 C421 0.979 . S
H452 C421 0.977 . S
H453 C423 0.948 . S
H454 C425 0.947 . S
H455 C426 0.948 . S
H456 C432 0.982 . S
H457 C432 0.979 . S
H458 C432 0.977 . S
H459 C433 0.979 . S
H460 C433 0.980 . S
H461 C433 0.983 . S
H462 C406 0.947 . S
C463 C406 1.392 . S
C463 C407 1.419 . S
C463 H445 0.948 . S
C464 C465 1.391 . S
C464 C468 1.391 . S
C464 H506 0.948 . S
C465 C464 1.391 . S
C465 C466 1.391 . S
C466 C465 1.391 . S
C466 H522 0.947 . S
C466 C523 1.392 . S
C467 C468 1.391 . S
C467 C471 1.397 . S
C467 C523 1.419 . S
C468 C464 1.391 . S
C468 C467 1.391 . S
C468 C469 1.399 . S
C469 C468 1.399 . S
C469 C472 1.396 . S
C469 C481 1.453 . S
C469 C482 1.684 . S
H470 C494 0.948 . S
C471 C467 1.397 . S
C471 C472 1.394 . S
C471 C490 1.723 . S
C472 C469 1.396 . S
C472 C471 1.394 . S
C472 C502 1.723 . S
H473 C496 0.947 . S
H474 C497 0.948 . S
H475 C503 0.982 . S
H476 C504 0.979 . S
H477 C504 0.980 . S
H478 C504 0.983 . S
H479 C503 0.979 . S
H480 C503 0.977 . S
C481 C469 1.453 . S
C481 H510 0.982 . S
C481 H511 0.979 . S
C481 H512 0.977 . S
C482 C469 1.684 . S
C482 H507 0.979 . S
C482 H508 0.980 . S
C482 H509 0.983 . S
C483 C484 1.391 . S
C483 C488 1.391 . S
C483 H513 0.948 . S
C484 C483 1.391 . S
C484 C485 1.391 . S
C485 C484 1.391 . S
C485 C486 1.392 . S
C485 H514 0.947 . S
C486 C485 1.392 . S
C486 C487 1.419 . S
C486 H515 0.948 . S
C487 C486 1.419 . S
C487 C488 1.391 . S
C487 C491 1.397 . S
C488 C483 1.391 . S
C488 C487 1.391 . S
C488 C489 1.399 . S
C489 C488 1.399 . S
C489 C490 1.396 . S
C489 C492 1.453 . S
C489 C493 1.684 . S
C490 C471 1.723 . S
C490 C489 1.396 . S
C490 C491 1.394 . S
C491 C487 1.397 . S
C491 C490 1.394 . S
C491 C501 1.723 . S
C492 C489 1.453 . S
C492 H516 0.982 . S
C492 H517 0.979 . S
C492 H518 0.977 . S
C493 C489 1.684 . S
C493 H519 0.979 . S
C493 H520 0.980 . S
C493 H521 0.983 . S
C494 H470 0.948 . S
C494 C495 1.391 . S
C494 C499 1.391 . S
C495 C494 1.391 . S
C495 C496 1.391 . S
C496 H473 0.947 . S
C496 C495 1.391 . S
C496 C497 1.392 . S
C497 H474 0.948 . S
C497 C496 1.392 . S
C497 C498 1.419 . S
C498 C497 1.419 . S
C498 C499 1.391 . S
C498 C502 1.397 . S
C499 C494 1.391 . S
C499 C498 1.391 . S
C499 C500 1.399 . S
C500 C499 1.399 . S
C500 C501 1.396 . S
C500 C503 1.453 . S
C500 C504 1.684 . S
C501 C491 1.723 . S
C501 C500 1.396 . S
C501 C502 1.394 . S
C502 C472 1.723 . S
C502 C498 1.397 . S
C502 C501 1.394 . S
C503 H475 0.982 . S
C503 H479 0.979 . S
C503 H480 0.977 . S
C503 C500 1.453 . S
C504 H476 0.979 . S
C504 H477 0.980 . S
C504 H478 0.983 . S
C504 C500 1.684 . S
H505 C523 0.948 . S
H506 C464 0.948 . S
H507 C482 0.979 . S
H508 C482 0.980 . S
H509 C482 0.983 . S
H510 C481 0.982 . S
H511 C481 0.979 . S
H512 C481 0.977 . S
H513 C483 0.948 . S
H514 C485 0.947 . S
H515 C486 0.948 . S
H516 C492 0.982 . S
H517 C492 0.979 . S
H518 C492 0.977 . S
H519 C493 0.979 . S
H520 C493 0.980 . S
H521 C493 0.983 . S
H522 C466 0.947 . S
C523 C466 1.392 . S
C523 C467 1.419 . S
C523 H505 0.948 . S
C524 C525 1.391 . S
C524 C528 1.391 . S
C524 H566 0.948 . S
C525 C524 1.391 . S
C525 C526 1.391 . S
C526 C525 1.391 . S
C526 H582 0.947 . S
C526 C583 1.392 . S
C527 C528 1.391 . S
C527 C531 1.397 . S
C527 C583 1.419 . S
C528 C524 1.391 . S
C528 C527 1.391 . S
C528 C529 1.399 . S
C529 C528 1.399 . S
C529 C532 1.396 . S
C529 C541 1.453 . S
C529 C542 1.684 . S
H530 C554 0.948 . S
C531 C527 1.397 . S
C531 C532 1.394 . S
C531 C550 1.723 . S
C532 C529 1.396 . S
C532 C531 1.394 . S
C532 C562 1.723 . S
H533 C556 0.947 . S
H534 C557 0.948 . S
H535 C563 0.982 . S
H536 C564 0.979 . S
H537 C564 0.980 . S
H538 C564 0.983 . S
H539 C563 0.979 . S
H540 C563 0.977 . S
C541 C529 1.453 . S
C541 H570 0.982 . S
C541 H571 0.979 . S
C541 H572 0.977 . S
C542 C529 1.684 . S
C542 H567 0.979 . S
C542 H568 0.980 . S
C542 H569 0.983 . S
C543 C544 1.391 . S
C543 C548 1.391 . S
C543 H573 0.948 . S
C544 C543 1.391 . S
C544 C545 1.391 . S
C545 C544 1.391 . S
C545 C546 1.392 . S
C545 H574 0.947 . S
C546 C545 1.392 . S
C546 C547 1.419 . S
C546 H575 0.948 . S
C547 C546 1.419 . S
C547 C548 1.391 . S
C547 C551 1.397 . S
C548 C543 1.391 . S
C548 C547 1.391 . S
C548 C549 1.399 . S
C549 C548 1.399 . S
C549 C550 1.396 . S
C549 C552 1.453 . S
C549 C553 1.684 . S
C550 C531 1.723 . S
C550 C549 1.396 . S
C550 C551 1.394 . S
C551 C547 1.397 . S
C551 C550 1.394 . S
C551 C561 1.723 . S
C552 C549 1.453 . S
C552 H576 0.982 . S
C552 H577 0.979 . S
C552 H578 0.977 . S
C553 C549 1.684 . S
C553 H579 0.979 . S
C553 H580 0.980 . S
C553 H581 0.983 . S
C554 H530 0.948 . S
C554 C555 1.391 . S
C554 C559 1.391 . S
C555 C554 1.391 . S
C555 C556 1.391 . S
C556 H533 0.947 . S
C556 C555 1.391 . S
C556 C557 1.392 . S
C557 H534 0.948 . S
C557 C556 1.392 . S
C557 C558 1.419 . S
C558 C557 1.419 . S
C558 C559 1.391 . S
C558 C562 1.397 . S
C559 C554 1.391 . S
C559 C558 1.391 . S
C559 C560 1.399 . S
C560 C559 1.399 . S
C560 C561 1.396 . S
C560 C563 1.453 . S
C560 C564 1.684 . S
C561 C551 1.723 . S
C561 C560 1.396 . S
C561 C562 1.394 . S
C562 C532 1.723 . S
C562 C558 1.397 . S
C562 C561 1.394 . S
C563 H535 0.982 . S
C563 H539 0.979 . S
C563 H540 0.977 . S
C563 C560 1.453 . S
C564 H536 0.979 . S
C564 H537 0.980 . S
C564 H538 0.983 . S
C564 C560 1.684 . S
H565 C583 0.948 . S
H566 C524 0.948 . S
H567 C542 0.979 . S
H568 C542 0.980 . S
H569 C542 0.983 . S
H570 C541 0.982 . S
H571 C541 0.979 . S
H572 C541 0.977 . S
H573 C543 0.948 . S
H574 C545 0.947 . S
H575 C546 0.948 . S
H576 C552 0.982 . S
H577 C552 0.979 . S
H578 C552 0.977 . S
H579 C553 0.979 . S
H580 C553 0.980 . S
H581 C553 0.983 . S
H582 C526 0.947 . S
C583 C526 1.392 . S
C583 C527 1.419 . S
C583 H565 0.948 . S
H584 C592 0.929 . S
H585 C594 0.930 . S
H586 C596 0.930 . S
H587 C599 0.929 . S
H588 C602 0.930 . S
H589 C604 0.960 . S
H590 C604 0.960 . S
H591 C604 0.960 . S
C592 H584 0.929 . S
C592 C593 1.377 1_556 S
C592 C594 1.384 . S
C593 C592 1.377 1_554 S
C593 C599 1.390 . S
C594 H585 0.930 . S
C594 C592 1.384 . S
C594 C595 1.372 1_556 S
C595 C594 1.372 1_554 S
C595 C596 1.400 . S
C595 C600 1.490 . S
C596 H586 0.930 . S
C596 C595 1.400 . S
C596 C599 1.386 . S
H597 C613 0.930 . S
H598 C614 0.931 . S
C599 H587 0.929 . S
C599 C593 1.390 . S
C599 C596 1.386 . S
C600 C595 1.490 . S
C600 C602 1.395 1_554 S
C600 C603 1.403 . S
H601 C607 0.930 . S
C602 H588 0.930 . S
C602 C600 1.395 1_556 S
C602 C605 1.403 . S
C603 C600 1.403 . S
C603 C604 1.524 . S
C603 C607 1.400 . S
C604 H589 0.960 . S
C604 H590 0.960 . S
C604 H591 0.960 . S
C604 C603 1.524 . S
C605 C602 1.403 . S
C605 C606 1.392 1_556 S
C605 C609 1.495 . S
C606 C605 1.392 1_554 S
C606 C607 1.385 . S
C606 C608 1.478 . S
C607 H601 0.930 . S
C607 C603 1.400 . S
C607 C606 1.385 . S
C608 C606 1.478 . S
C608 C610 1.381 1_554 S
C608 C614 1.383 . S
C609 C605 1.495 . S
C609 H615 0.959 . S
C609 H616 0.961 . S
C609 H617 0.960 . S
C610 C608 1.381 1_556 S
C610 C611 1.394 . S
C610 H618 0.930 . S
C611 C610 1.394 . S
C611 C612 1.383 1_556 S
C611 H619 0.929 . S
C612 C611 1.383 1_554 S
C612 C613 1.377 . S
C613 H597 0.930 . S
C613 C612 1.377 . S
C613 C614 1.379 . S
C614 H598 0.931 . S
C614 C608 1.383 . S
C614 C613 1.379 . S
H615 C609 0.959 . S
H616 C609 0.961 . S
H617 C609 0.960 . S
H618 C610 0.930 . S
H619 C611 0.929 . S
H620 C628 0.929 . S
H621 C630 0.930 . S
H622 C632 0.930 . S
H623 C635 0.929 . S
H624 C638 0.930 . S
H625 C640 0.960 . S
H626 C640 0.960 1_554 S
H627 C640 0.960 . S
C628 H620 0.929 . S
C628 C629 1.377 . S
C628 C630 1.384 . S
C629 C628 1.377 . S
C629 C635 1.390 1_554 S
C630 H621 0.930 . S
C630 C628 1.384 . S
C630 C631 1.372 . S
C631 C630 1.372 . S
C631 C632 1.400 1_554 S
C631 C636 1.490 . S
C632 H622 0.930 . S
C632 C631 1.400 1_556 S
C632 C635 1.386 . S
H633 C649 0.930 . S
H634 C650 0.931 . S
C635 H623 0.929 . S
C635 C629 1.390 1_556 S
C635 C632 1.386 . S
C636 C631 1.490 . S
C636 C638 1.395 . S
C636 C639 1.403 . S
H637 C643 0.930 . S
C638 H624 0.930 . S
C638 C636 1.395 . S
C638 C641 1.403 . S
C639 C636 1.403 . S
C639 C640 1.524 1_554 S
C639 C643 1.400 . S
C640 H625 0.960 . S
C640 H626 0.960 1_556 S
C640 H627 0.960 . S
C640 C639 1.524 1_556 S
C641 C638 1.403 . S
C641 C642 1.392 . S
C641 C645 1.495 . S
C642 C641 1.392 . S
C642 C643 1.385 . S
C642 C644 1.478 . S
C643 H637 0.930 . S
C643 C639 1.400 . S
C643 C642 1.385 . S
C644 C642 1.478 . S
C644 C646 1.381 . S
C644 C650 1.383 1_554 S
C645 C641 1.495 . S
C645 H651 0.959 . S
C645 H652 0.961 . S
C645 H653 0.960 . S
C646 C644 1.381 . S
C646 C647 1.394 . S
C646 H654 0.930 . S
C647 C646 1.394 . S
C647 C648 1.383 . S
C647 H655 0.929 . S
C648 C647 1.383 . S
C648 C649 1.377 1_554 S
C649 H633 0.930 . S
C649 C648 1.377 1_556 S
C649 C650 1.379 . S
C650 H634 0.931 . S
C650 C644 1.383 1_556 S
C650 C649 1.379 . S
H651 C645 0.959 . S
H652 C645 0.961 . S
H653 C645 0.960 . S
H654 C646 0.930 . S
H655 C647 0.929 . S
H656 C664 0.929 1_556 S
H657 C666 0.930 1_556 S
H658 C668 0.930 . S
H659 C671 0.929 . S
H660 C674 0.930 . S
H661 C676 0.960 . S
H662 C676 0.960 . S
H663 C676 0.960 1_554 S
C664 H656 0.929 1_554 S
C664 C665 1.377 . S
C664 C666 1.384 . S
C665 C664 1.377 . S
C665 C671 1.390 . S
C666 H657 0.930 1_554 S
C666 C664 1.384 . S
C666 C667 1.372 . S
C667 C666 1.372 . S
C667 C668 1.400 . S
C667 C672 1.490 . S
C668 H658 0.930 . S
C668 C667 1.400 . S
C668 C671 1.386 . S
H669 C685 0.930 . S
H670 C686 0.931 . S
C671 H659 0.929 . S
C671 C665 1.390 . S
C671 C668 1.386 . S
C672 C667 1.490 . S
C672 C674 1.395 . S
C672 C675 1.403 . S
H673 C679 0.930 . S
C674 H660 0.930 . S
C674 C672 1.395 . S
C674 C677 1.403 . S
C675 C672 1.403 . S
C675 C676 1.524 1_554 S
C675 C679 1.400 . S
C676 H661 0.960 . S
C676 H662 0.960 . S
C676 H663 0.960 1_556 S
C676 C675 1.524 1_556 S
C677 C674 1.403 . S
C677 C678 1.392 . S
C677 C681 1.495 . S
C678 C677 1.392 . S
C678 C679 1.385 . S
C678 C680 1.478 . S
C679 H673 0.930 . S
C679 C675 1.400 . S
C679 C678 1.385 . S
C680 C678 1.478 . S
C680 C682 1.381 . S
C680 C686 1.383 . S
C681 C677 1.495 . S
C681 H687 0.959 . S
C681 H688 0.961 . S
C681 H689 0.960 . S
C682 C680 1.381 . S
C682 C683 1.394 . S
C682 H690 0.930 1_554 S
C683 C682 1.394 . S
C683 C684 1.383 . S
C683 H691 0.929 1_554 S
C684 C683 1.383 . S
C684 C685 1.377 . S
C685 H669 0.930 . S
C685 C684 1.377 . S
C685 C686 1.379 . S
C686 H670 0.931 . S
C686 C680 1.383 . S
C686 C685 1.379 . S
H687 C681 0.959 . S
H688 C681 0.961 . S
H689 C681 0.960 . S
H690 C682 0.930 1_556 S
H691 C683 0.929 1_556 S
H692 C700 0.929 . S
H693 C702 0.930 . S
H694 C704 0.930 . S
H695 C707 0.929 . S
H696 C710 0.930 . S
H697 C712 0.960 . S
H698 C712 0.960 . S
H699 C712 0.960 . S
C700 H692 0.929 . S
C700 C701 1.377 . S
C700 C702 1.384 . S
C701 C700 1.377 . S
C701 C707 1.390 . S
C702 H693 0.930 . S
C702 C700 1.384 . S
C702 C703 1.372 . S
C703 C702 1.372 . S
C703 C704 1.400 . S
C703 C708 1.490 . S
C704 H694 0.930 . S
C704 C703 1.400 . S
C704 C707 1.386 . S
H705 C721 0.930 . S
H706 C722 0.931 . S
C707 H695 0.929 . S
C707 C701 1.390 . S
C707 C704 1.386 . S
C708 C703 1.490 . S
C708 C710 1.395 1_554 S
C708 C711 1.403 . S
H709 C715 0.930 . S
C710 H696 0.930 . S
C710 C708 1.395 1_556 S
C710 C713 1.403 . S
C711 C708 1.403 . S
C711 C712 1.524 . S
C711 C715 1.400 . S
C712 H697 0.960 . S
C712 H698 0.960 . S
C712 H699 0.960 . S
C712 C711 1.524 . S
C713 C710 1.403 . S
C713 C714 1.392 1_556 S
C713 C717 1.495 . S
C714 C713 1.392 1_554 S
C714 C715 1.385 . S
C714 C716 1.478 . S
C715 H709 0.930 . S
C715 C711 1.400 . S
C715 C714 1.385 . S
C716 C714 1.478 . S
C716 C718 1.381 . S
C716 C722 1.383 . S
C717 C713 1.495 . S
C717 H723 0.959 . S
C717 H724 0.961 . S
C717 H725 0.960 . S
C718 C716 1.381 . S
C718 C719 1.394 . S
C718 H726 0.930 . S
C719 C718 1.394 . S
C719 C720 1.383 . S
C719 H727 0.929 . S
C720 C719 1.383 . S
C720 C721 1.377 . S
C721 H705 0.930 . S
C721 C720 1.377 . S
C721 C722 1.379 . S
C722 H706 0.931 . S
C722 C716 1.383 . S
C722 C721 1.379 . S
H723 C717 0.959 . S
H724 C717 0.961 . S
H725 C717 0.960 . S
H726 C718 0.930 . S
H727 C719 0.929 . S
H728 C736 0.929 . S
H729 C738 0.930 . S
H730 C740 0.930 . S
H731 C743 0.929 . S
H732 C746 0.930 . S
H733 C748 0.960 . S
H734 C748 0.960 . S
H735 C748 0.960 . S
C736 H728 0.929 . S
C736 C737 1.377 . S
C736 C738 1.384 . S
C737 C736 1.377 . S
C737 C743 1.390 . S
C738 H729 0.930 . S
C738 C736 1.384 . S
C738 C739 1.372 . S
C739 C738 1.372 . S
C739 C740 1.400 . S
C739 C744 1.490 . S
C740 H730 0.930 . S
C740 C739 1.400 . S
C740 C743 1.386 . S
H741 C757 0.930 . S
H742 C758 0.931 . S
C743 H731 0.929 . S
C743 C737 1.390 . S
C743 C740 1.386 . S
C744 C739 1.490 . S
C744 C746 1.395 . S
C744 C747 1.403 . S
H745 C751 0.930 . S
C746 H732 0.930 . S
C746 C744 1.395 . S
C746 C749 1.403 . S
C747 C744 1.403 . S
C747 C748 1.524 . S
C747 C751 1.400 . S
C748 H733 0.960 . S
C748 H734 0.960 . S
C748 H735 0.960 . S
C748 C747 1.524 . S
C749 C746 1.403 . S
C749 C750 1.392 . S
C749 C753 1.495 . S
C750 C749 1.392 . S
C750 C751 1.385 . S
C750 C752 1.478 . S
C751 H745 0.930 . S
C751 C747 1.400 . S
C751 C750 1.385 . S
C752 C750 1.478 . S
C752 C754 1.381 . S
C752 C758 1.383 . S
C753 C749 1.495 . S
C753 H759 0.959 . S
C753 H760 0.961 . S
C753 H761 0.960 . S
C754 C752 1.381 . S
C754 C755 1.394 . S
C754 H762 0.930 . S
C755 C754 1.394 . S
C755 C756 1.383 . S
C755 H763 0.929 . S
C756 C755 1.383 . S
C756 C757 1.377 . S
C757 H741 0.930 . S
C757 C756 1.377 . S
C757 C758 1.379 . S
C758 H742 0.931 . S
C758 C752 1.383 . S
C758 C757 1.379 . S
H759 C753 0.959 . S
H760 C753 0.961 . S
H761 C753 0.960 . S
H762 C754 0.930 . S
H763 C755 0.929 . S
H764 C772 0.929 . S
H765 C774 0.930 . S
H766 C776 0.930 . S
H767 C779 0.929 . S
H768 C782 0.930 . S
H769 C784 0.960 . S
H770 C784 0.960 . S
H771 C784 0.960 . S
C772 H764 0.929 . S
C772 C773 1.377 . S
C772 C774 1.384 . S
C773 C772 1.377 . S
C773 C779 1.390 . S
C774 H765 0.930 . S
C774 C772 1.384 . S
C774 C775 1.372 . S
C775 C774 1.372 . S
C775 C776 1.400 . S
C775 C780 1.490 . S
C776 H766 0.930 . S
C776 C775 1.400 . S
C776 C779 1.386 . S
H777 C793 0.930 . S
H778 C794 0.931 . S
C779 H767 0.929 . S
C779 C773 1.390 . S
C779 C776 1.386 . S
C780 C775 1.490 . S
C780 C782 1.395 . S
C780 C783 1.403 . S
H781 C787 0.930 . S
C782 H768 0.930 . S
C782 C780 1.395 . S
C782 C785 1.403 . S
C783 C780 1.403 . S
C783 C784 1.524 . S
C783 C787 1.400 . S
C784 H769 0.960 . S
C784 H770 0.960 . S
C784 H771 0.960 . S
C784 C783 1.524 . S
C785 C782 1.403 . S
C785 C786 1.392 . S
C785 C789 1.495 . S
C786 C785 1.392 . S
C786 C787 1.385 . S
C786 C788 1.478 . S
C787 H781 0.930 . S
C787 C783 1.400 . S
C787 C786 1.385 . S
C788 C786 1.478 . S
C788 C790 1.381 . S
C788 C794 1.383 . S
C789 C785 1.495 . S
C789 H795 0.959 . S
C789 H796 0.961 . S
C789 H797 0.960 . S
C790 C788 1.381 . S
C790 C791 1.394 . S
C790 H798 0.930 . S
C791 C790 1.394 . S
C791 C792 1.383 . S
C791 H799 0.929 . S
C792 C791 1.383 . S
C792 C793 1.377 . S
C793 H777 0.930 . S
C793 C792 1.377 . S
C793 C794 1.379 . S
C794 H778 0.931 . S
C794 C788 1.383 . S
C794 C793 1.379 . S
H795 C789 0.959 . S
H796 C789 0.961 . S
H797 C789 0.960 . S
H798 C790 0.930 . S
H799 C791 0.929 . S
H800 C808 0.929 . S
H801 C810 0.930 . S
H802 C812 0.930 . S
H803 C815 0.929 . S
H804 C818 0.930 . S
H805 C820 0.960 . S
H806 C820 0.960 . S
H807 C820 0.960 . S
C808 H800 0.929 . S
C808 C809 1.377 . S
C808 C810 1.384 . S
C809 C808 1.377 . S
C809 C815 1.390 . S
C810 H801 0.930 . S
C810 C808 1.384 . S
C810 C811 1.372 . S
C811 C810 1.372 . S
C811 C812 1.400 . S
C811 C816 1.490 . S
C812 H802 0.930 . S
C812 C811 1.400 . S
C812 C815 1.386 . S
H813 C829 0.930 . S
H814 C830 0.931 . S
C815 H803 0.929 . S
C815 C809 1.390 . S
C815 C812 1.386 . S
C816 C811 1.490 . S
C816 C818 1.395 . S
C816 C819 1.403 . S
H817 C823 0.930 . S
C818 H804 0.930 . S
C818 C816 1.395 . S
C818 C821 1.403 . S
C819 C816 1.403 . S
C819 C820 1.524 . S
C819 C823 1.400 . S
C820 H805 0.960 . S
C820 H806 0.960 . S
C820 H807 0.960 . S
C820 C819 1.524 . S
C821 C818 1.403 . S
C821 C822 1.392 . S
C821 C825 1.495 . S
C822 C821 1.392 . S
C822 C823 1.385 . S
C822 C824 1.478 . S
C823 H817 0.930 . S
C823 C819 1.400 . S
C823 C822 1.385 . S
C824 C822 1.478 . S
C824 C826 1.381 . S
C824 C830 1.383 . S
C825 C821 1.495 . S
C825 H831 0.959 . S
C825 H832 0.961 . S
C825 H833 0.960 . S
C826 C824 1.381 . S
C826 C827 1.394 . S
C826 H834 0.930 . S
C827 C826 1.394 . S
C827 C828 1.383 . S
C827 H835 0.929 . S
C828 C827 1.383 . S
C828 C829 1.377 . S
C829 H813 0.930 . S
C829 C828 1.377 . S
C829 C830 1.379 . S
C830 H814 0.931 . S
C830 C824 1.383 . S
C830 C829 1.379 . S
H831 C825 0.959 . S
H832 C825 0.961 . S
H833 C825 0.960 . S
H834 C826 0.930 . S
H835 C827 0.929 . S
H836 C844 0.929 . S
H837 C846 0.930 . S
H838 C848 0.930 . S
H839 C851 0.929 . S
H840 C854 0.930 . S
H841 C856 0.960 . S
H842 C856 0.960 . S
H843 C856 0.960 . S
C844 H836 0.929 . S
C844 C845 1.377 . S
C844 C846 1.384 . S
C845 C844 1.377 . S
C845 C851 1.390 . S
C846 H837 0.930 . S
C846 C844 1.384 . S
C846 C847 1.372 . S
C847 C846 1.372 . S
C847 C848 1.400 . S
C847 C852 1.490 . S
C848 H838 0.930 . S
C848 C847 1.400 . S
C848 C851 1.386 . S
H849 C865 0.930 . S
H850 C866 0.931 . S
C851 H839 0.929 . S
C851 C845 1.390 . S
C851 C848 1.386 . S
C852 C847 1.490 . S
C852 C854 1.395 . S
C852 C855 1.403 . S
H853 C859 0.930 . S
C854 H840 0.930 . S
C854 C852 1.395 . S
C854 C857 1.403 . S
C855 C852 1.403 . S
C855 C856 1.524 . S
C855 C859 1.400 . S
C856 H841 0.960 . S
C856 H842 0.960 . S
C856 H843 0.960 . S
C856 C855 1.524 . S
C857 C854 1.403 . S
C857 C858 1.392 . S
C857 C861 1.495 . S
C858 C857 1.392 . S
C858 C859 1.385 . S
C858 C860 1.478 . S
C859 H853 0.930 . S
C859 C855 1.400 . S
C859 C858 1.385 . S
C860 C858 1.478 . S
C860 C862 1.381 . S
C860 C866 1.383 . S
C861 C857 1.495 . S
C861 H867 0.959 . S
C861 H868 0.961 . S
C861 H869 0.960 . S
C862 C860 1.381 . S
C862 C863 1.394 . S
C862 H870 0.930 . S
C863 C862 1.394 . S
C863 C864 1.383 . S
C863 H871 0.929 . S
C864 C863 1.383 . S
C864 C865 1.377 . S
C865 H849 0.930 . S
C865 C864 1.377 . S
C865 C866 1.379 . S
C866 H850 0.931 . S
C866 C860 1.383 . S
C866 C865 1.379 . S
H867 C861 0.959 . S
H868 C861 0.961 . S
H869 C861 0.960 . S
H870 C862 0.930 . S
H871 C863 0.929 . S
H872 C880 0.929 . S
H873 C882 0.930 . S
H874 C884 0.930 . S
H875 C887 0.929 . S
H876 C890 0.930 . S
H877 C892 0.956 1_655 S
H878 C892 0.959 . S
H879 C892 0.956 1_655 S
C880 H872 0.929 . S
C880 C881 1.377 . S
C880 C882 1.384 . S
C881 C880 1.377 . S
C881 C887 1.390 . S
C882 H873 0.930 . S
C882 C880 1.384 . S
C882 C883 1.372 . S
C883 C882 1.372 . S
C883 C884 1.400 . S
C883 C888 1.490 . S
C884 H874 0.930 . S
C884 C883 1.400 . S
C884 C887 1.386 . S
H885 C901 0.930 . S
H886 C902 0.931 . S
C887 H875 0.929 . S
C887 C881 1.390 . S
C887 C884 1.386 . S
C888 C883 1.490 . S
C888 C890 1.395 . S
C888 C891 1.403 . S
H889 C895 0.930 . S
C890 H876 0.930 . S
C890 C888 1.395 . S
C890 C893 1.403 . S
C891 C888 1.403 . S
C891 C892 1.532 . S
C891 C895 1.400 . S
C892 H877 0.956 1_455 S
C892 H878 0.959 . S
C892 H879 0.956 1_455 S
C892 C891 1.532 . S
C893 C890 1.403 . S
C893 C894 1.392 . S
C893 C897 1.495 . S
C894 C893 1.392 . S
C894 C895 1.385 . S
C894 C896 1.478 . S
C895 H889 0.930 . S
C895 C891 1.400 . S
C895 C894 1.385 . S
C896 C894 1.478 . S
C896 C898 1.381 . S
C896 C902 1.383 . S
C897 C893 1.495 . S
C897 H903 0.959 . S
C897 H904 0.961 . S
C897 H905 0.960 . S
C898 C896 1.381 . S
C898 C899 1.394 . S
C898 H906 0.930 . S
C899 C898 1.394 . S
C899 C900 1.383 . S
C899 H907 0.929 . S
C900 C899 1.383 . S
C900 C901 1.377 . S
C901 H885 0.930 . S
C901 C900 1.377 . S
C901 C902 1.379 . S
C902 H886 0.931 . S
C902 C896 1.383 . S
C902 C901 1.379 . S
H903 C897 0.959 . S
H904 C897 0.961 . S
H905 C897 0.960 . S
H906 C898 0.930 . S
H907 C899 0.929 . S
H908 C916 0.929 . S
H909 C918 0.930 . S
H910 C920 0.930 . S
H911 C923 0.929 1_565 S
H912 C926 0.930 . S
H913 C928 0.960 . S
H914 C928 0.960 . S
H915 C928 0.960 . S
C916 H908 0.929 . S
C916 C917 1.377 . S
C916 C918 1.384 . S
C917 C916 1.377 . S
C917 C923 1.390 . S
C918 H909 0.930 . S
C918 C916 1.384 . S
C918 C919 1.372 . S
C919 C918 1.372 . S
C919 C920 1.400 . S
C919 C924 1.490 . S
C920 H910 0.930 . S
C920 C919 1.400 . S
C920 C923 1.386 . S
H921 C937 0.930 . S
H922 C938 0.931 . S
C923 H911 0.929 1_545 S
C923 C917 1.390 . S
C923 C920 1.386 . S
C924 C919 1.490 . S
C924 C926 1.395 . S
C924 C927 1.403 . S
H925 C931 0.930 . S
C926 H912 0.930 . S
C926 C924 1.395 . S
C926 C929 1.403 . S
C927 C924 1.403 . S
C927 C928 1.524 . S
C927 C931 1.400 . S
C928 H913 0.960 . S
C928 H914 0.960 . S
C928 H915 0.960 . S
C928 C927 1.524 . S
C929 C926 1.403 . S
C929 C930 1.392 . S
C929 C933 1.495 . S
C930 C929 1.392 . S
C930 C931 1.385 . S
C930 C932 1.478 . S
C931 H925 0.930 . S
C931 C927 1.400 . S
C931 C930 1.385 . S
C932 C930 1.478 . S
C932 C934 1.381 . S
C932 C938 1.383 . S
C933 C929 1.495 . S
C933 H939 0.959 . S
C933 H940 0.961 . S
C933 H941 0.960 . S
C934 C932 1.381 . S
C934 C935 1.394 . S
C934 H942 0.930 . S
C935 C934 1.394 . S
C935 C936 1.383 . S
C935 H943 0.929 . S
C936 C935 1.383 . S
C936 C937 1.377 . S
C937 H921 0.930 . S
C937 C936 1.377 . S
C937 C938 1.379 . S
C938 H922 0.931 . S
C938 C932 1.383 . S
C938 C937 1.379 . S
H939 C933 0.959 . S
H940 C933 0.961 . S
H941 C933 0.960 . S
H942 C934 0.930 . S
H943 C935 0.929 . S
H944 C952 0.929 . S
H945 C954 0.930 . S
H946 C956 0.930 . S
H947 C959 0.929 1_455 S
H948 C962 0.930 . S
H949 C964 0.960 . S
H950 C964 0.960 . S
H951 C964 0.960 . S
C952 H944 0.929 . S
C952 C953 1.377 . S
C952 C954 1.384 . S
C953 C952 1.377 . S
C953 C959 1.390 . S
C954 H945 0.930 . S
C954 C952 1.384 . S
C954 C955 1.372 . S
C955 C954 1.372 . S
C955 C956 1.400 . S
C955 C960 1.490 . S
C956 H946 0.930 . S
C956 C955 1.400 . S
C956 C959 1.386 . S
H957 C973 0.930 . S
H958 C974 0.931 . S
C959 H947 0.929 1_655 S
C959 C953 1.390 . S
C959 C956 1.386 . S
C960 C955 1.490 . S
C960 C962 1.395 . S
C960 C963 1.403 . S
H961 C967 0.930 . S
C962 H948 0.930 . S
C962 C960 1.395 . S
C962 C965 1.403 . S
C963 C960 1.403 . S
C963 C964 1.524 . S
C963 C967 1.400 . S
C964 H949 0.960 . S
C964 H950 0.960 . S
C964 H951 0.960 . S
C964 C963 1.524 . S
C965 C962 1.403 . S
C965 C966 1.392 . S
C965 C969 1.495 . S
C966 C965 1.392 . S
C966 C967 1.385 . S
C966 C968 1.478 . S
C967 H961 0.930 . S
C967 C963 1.400 . S
C967 C966 1.385 . S
C968 C966 1.478 . S
C968 C970 1.381 . S
C968 C974 1.383 . S
C969 C965 1.495 . S
C969 H975 0.959 . S
C969 H976 0.961 . S
C969 H977 0.960 . S
C970 C968 1.381 . S
C970 C971 1.394 . S
C970 H978 0.930 . S
C971 C970 1.394 . S
C971 C972 1.383 . S
C971 H979 0.929 . S
C972 C971 1.383 . S
C972 C973 1.377 . S
C973 H957 0.930 . S
C973 C972 1.377 . S
C973 C974 1.379 . S
C974 H958 0.931 . S
C974 C968 1.383 . S
C974 C973 1.379 . S
H975 C969 0.959 . S
H976 C969 0.961 . S
H977 C969 0.960 . S
H978 C970 0.930 . S
H979 C971 0.929 . S
H980 C988 0.929 . S
H981 C990 0.930 . S
H982 C992 0.930 . S
H983 C995 0.929 . S
H984 C998 0.930 . S
H985 C1000 0.960 . S
H986 C1000 0.960 . S
H987 C1000 0.960 . S
C988 H980 0.929 . S
C988 C989 1.377 . S
C988 C990 1.384 . S
C989 C988 1.377 . S
C989 C995 1.390 . S
C990 H981 0.930 . S
C990 C988 1.384 . S
C990 C991 1.372 . S
C991 C990 1.372 . S
C991 C992 1.400 . S
C991 C996 1.490 . S
C992 H982 0.930 . S
C992 C991 1.400 . S
C992 C995 1.386 . S
H993 C1009 0.930 . S
H994 C1010 0.931 . S
C995 H983 0.929 . S
C995 C989 1.390 . S
C995 C992 1.386 . S
C996 C991 1.490 . S
C996 C998 1.395 . S
C996 C999 1.403 . S
H997 C1003 0.930 . S
C998 H984 0.930 . S
C998 C996 1.395 . S
C998 C1001 1.403 . S
C999 C996 1.403 . S
C999 C1000 1.524 . S
C999 C1003 1.400 . S
C1000 H985 0.960 . S
C1000 H986 0.960 . S
C1000 H987 0.960 . S
C1000 C999 1.524 . S
C1001 C998 1.403 . S
C1001 C1002 1.392 . S
C1001 C1005 1.495 . S
C1002 C1001 1.392 . S
C1002 C1003 1.385 . S
C1002 C1004 1.478 . S
C1003 H997 0.930 . S
C1003 C999 1.400 . S
C1003 C1002 1.385 . S
C1004 C1002 1.478 . S
C1004 C1006 1.381 . S
C1004 C1010 1.383 . S
C1005 C1001 1.495 . S
C1005 H1011 0.959 . S
C1005 H1012 0.961 . S
C1005 H1013 0.960 . S
C1006 C1004 1.381 . S
C1006 C1007 1.394 . S
C1006 H1014 0.930 . S
C1007 C1006 1.394 . S
C1007 C1008 1.383 . S
C1007 H1015 0.929 . S
C1008 C1007 1.383 . S
C1008 C1009 1.377 . S
C1009 H993 0.930 . S
C1009 C1008 1.377 . S
C1009 C1010 1.379 . S
C1010 H994 0.931 . S
C1010 C1004 1.383 . S
C1010 C1009 1.379 . S
H1011 C1005 0.959 . S
H1012 C1005 0.961 . S
H1013 C1005 0.960 . S
H1014 C1006 0.930 . S
H1015 C1007 0.929 . S
H1016 C1024 0.929 . S
H1017 C1026 0.930 . S
H1018 C1028 0.930 . S
H1019 C1031 0.964 . S
H1020 C1034 0.930 . S
H1021 C1036 0.960 . S
H1022 C1036 0.960 . S
H1023 C1036 0.960 . S
C1024 H1016 0.929 . S
C1024 C1025 1.377 . S
C1024 C1026 1.384 . S
C1025 C1024 1.377 . S
C1025 C1031 1.390 . S
C1026 H1017 0.930 . S
C1026 C1024 1.384 . S
C1026 C1027 1.372 . S
C1027 C1026 1.372 . S
C1027 C1028 1.400 . S
C1027 C1032 1.490 . S
C1028 H1018 0.930 . S
C1028 C1027 1.400 . S
C1028 C1031 1.386 . S
H1029 C1045 0.930 . S
H1030 C1046 0.931 . S
C1031 H1019 0.964 . S
C1031 C1025 1.390 . S
C1031 C1028 1.386 . S
C1032 C1027 1.490 . S
C1032 C1034 1.395 . S
C1032 C1035 1.403 . S
H1033 C1039 0.930 . S
C1034 H1020 0.930 . S
C1034 C1032 1.395 . S
C1034 C1037 1.403 . S
C1035 C1032 1.403 . S
C1035 C1036 1.524 . S
C1035 C1039 1.400 . S
C1036 H1021 0.960 . S
C1036 H1022 0.960 . S
C1036 H1023 0.960 . S
C1036 C1035 1.524 . S
C1037 C1034 1.403 . S
C1037 C1038 1.392 . S
C1037 C1041 1.495 . S
C1038 C1037 1.392 . S
C1038 C1039 1.385 . S
C1038 C1040 1.478 . S
C1039 H1033 0.930 . S
C1039 C1035 1.400 . S
C1039 C1038 1.385 . S
C1040 C1038 1.478 . S
C1040 C1042 1.381 . S
C1040 C1046 1.383 . S
C1041 C1037 1.495 . S
C1041 H1047 0.959 . S
C1041 H1048 0.961 . S
C1041 H1049 0.960 . S
C1042 C1040 1.381 . S
C1042 C1043 1.394 . S
C1042 H1050 0.930 . S
C1043 C1042 1.394 . S
C1043 C1044 1.383 . S
C1043 H1051 0.929 . S
C1044 C1043 1.383 . S
C1044 C1045 1.377 . S
C1045 H1029 0.930 . S
C1045 C1044 1.377 . S
C1045 C1046 1.379 . S
C1046 H1030 0.931 . S
C1046 C1040 1.383 . S
C1046 C1045 1.379 . S
H1047 C1041 0.959 . S
H1048 C1041 0.961 . S
H1049 C1041 0.960 . S
H1050 C1042 0.930 . S
H1051 C1043 0.929 . S
H1052 C1060 0.929 1_655 S
H1053 C1062 0.932 . S
H1054 C1064 0.930 . S
H1055 C1067 0.929 . S
H1056 C1070 0.930 . S
H1057 C1072 0.960 . S
H1058 C1072 0.960 . S
H1059 C1072 0.960 . S
C1060 H1052 0.929 1_455 S
C1060 C1061 1.377 . S
C1060 C1062 1.384 . S
C1061 C1060 1.377 . S
C1061 C1067 1.390 . S
C1062 H1053 0.932 . S
C1062 C1060 1.384 . S
C1062 C1063 1.372 . S
C1063 C1062 1.372 . S
C1063 C1064 1.400 . S
C1063 C1068 1.490 . S
C1064 H1054 0.930 . S
C1064 C1063 1.400 . S
C1064 C1067 1.386 . S
H1065 C1081 0.930 . S
H1066 C1082 0.931 . S
C1067 H1055 0.929 . S
C1067 C1061 1.390 . S
C1067 C1064 1.386 . S
C1068 C1063 1.490 . S
C1068 C1070 1.395 . S
C1068 C1071 1.403 . S
H1069 C1075 0.930 . S
C1070 H1056 0.930 . S
C1070 C1068 1.395 . S
C1070 C1073 1.403 . S
C1071 C1068 1.403 . S
C1071 C1072 1.524 . S
C1071 C1075 1.400 . S
C1072 H1057 0.960 . S
C1072 H1058 0.960 . S
C1072 H1059 0.960 . S
C1072 C1071 1.524 . S
C1073 C1070 1.403 . S
C1073 C1074 1.392 . S
C1073 C1077 1.495 . S
C1074 C1073 1.392 . S
C1074 C1075 1.385 . S
C1074 C1076 1.478 . S
C1075 H1069 0.930 . S
C1075 C1071 1.400 . S
C1075 C1074 1.385 . S
C1076 C1074 1.478 . S
C1076 C1078 1.381 . S
C1076 C1082 1.383 . S
C1077 C1073 1.495 . S
C1077 H1083 0.959 . S
C1077 H1084 0.961 . S
C1077 H1085 0.960 . S
C1078 C1076 1.381 . S
C1078 C1079 1.394 . S
C1078 H1086 0.930 . S
C1079 C1078 1.394 . S
C1079 C1080 1.383 . S
C1079 H1087 0.929 . S
C1080 C1079 1.383 . S
C1080 C1081 1.377 . S
C1081 H1065 0.930 . S
C1081 C1080 1.377 . S
C1081 C1082 1.379 . S
C1082 H1066 0.931 . S
C1082 C1076 1.383 . S
C1082 C1081 1.379 . S
H1083 C1077 0.959 . S
H1084 C1077 0.961 . S
H1085 C1077 0.960 . S
H1086 C1078 0.930 . S
H1087 C1079 0.929 . S
H1088 C1096 0.929 . S
H1089 C1098 0.930 . S
H1090 C1100 0.930 . S
H1091 C1103 0.929 . S
H1092 C1106 0.930 . S
H1093 C1108 0.960 . S
H1094 C1108 0.960 . S
H1095 C1108 0.960 . S
C1096 H1088 0.929 . S
C1096 C1097 1.377 . S
C1096 C1098 1.384 . S
C1097 C1096 1.377 . S
C1097 C1103 1.390 . S
C1098 H1089 0.930 . S
C1098 C1096 1.384 . S
C1098 C1099 1.372 . S
C1099 C1098 1.372 . S
C1099 C1100 1.400 . S
C1099 C1104 1.490 . S
C1100 H1090 0.930 . S
C1100 C1099 1.400 . S
C1100 C1103 1.386 . S
H1101 C1117 0.930 . S
H1102 C1118 0.931 . S
C1103 H1091 0.929 . S
C1103 C1097 1.390 . S
C1103 C1100 1.386 . S
C1104 C1099 1.490 . S
C1104 C1106 1.395 . S
C1104 C1107 1.403 . S
H1105 C1111 0.930 . S
C1106 H1092 0.930 . S
C1106 C1104 1.395 . S
C1106 C1109 1.403 . S
C1107 C1104 1.403 . S
C1107 C1108 1.524 . S
C1107 C1111 1.400 . S
C1108 H1093 0.960 . S
C1108 H1094 0.960 . S
C1108 H1095 0.960 . S
C1108 C1107 1.524 . S
C1109 C1106 1.403 . S
C1109 C1110 1.392 . S
C1109 C1113 1.495 . S
C1110 C1109 1.392 . S
C1110 C1111 1.385 . S
C1110 C1112 1.478 . S
C1111 H1105 0.930 . S
C1111 C1107 1.400 . S
C1111 C1110 1.385 . S
C1112 C1110 1.478 . S
C1112 C1114 1.381 . S
C1112 C1118 1.383 . S
C1113 C1109 1.495 . S
C1113 H1119 0.959 1_545 S
C1113 H1120 0.965 . S
C1113 H1121 0.960 . S
C1114 C1112 1.381 . S
C1114 C1115 1.394 . S
C1114 H1122 0.930 . S
C1115 C1114 1.394 . S
C1115 C1116 1.383 . S
C1115 H1123 0.929 . S
C1116 C1115 1.383 . S
C1116 C1117 1.377 . S
C1117 H1101 0.930 . S
C1117 C1116 1.377 . S
C1117 C1118 1.379 . S
C1118 H1102 0.931 . S
C1118 C1112 1.383 . S
C1118 C1117 1.379 . S
H1119 C1113 0.959 1_565 S
H1120 C1113 0.965 . S
H1121 C1113 0.960 . S
H1122 C1114 0.930 . S
H1123 C1115 0.929 . S
H1124 C1132 0.929 1_455 S
H1125 C1134 0.929 . S
H1126 C1136 0.930 . S
H1127 C1139 0.929 . S
H1128 C1142 0.930 . S
H1129 C1144 0.960 . S
H1130 C1144 0.960 . S
H1131 C1144 0.960 . S
C1132 H1124 0.929 1_655 S
C1132 C1133 1.377 . S
C1132 C1134 1.384 . S
C1133 C1132 1.377 . S
C1133 C1139 1.390 . S
C1134 H1125 0.929 . S
C1134 C1132 1.384 . S
C1134 C1135 1.372 . S
C1135 C1134 1.372 . S
C1135 C1136 1.400 . S
C1135 C1140 1.490 . S
C1136 H1126 0.930 . S
C1136 C1135 1.400 . S
C1136 C1139 1.386 . S
H1137 C1153 0.930 . S
H1138 C1154 0.931 . S
C1139 H1127 0.929 . S
C1139 C1133 1.390 . S
C1139 C1136 1.386 . S
C1140 C1135 1.490 . S
C1140 C1142 1.395 . S
C1140 C1143 1.403 . S
H1141 C1147 0.930 . S
C1142 H1128 0.930 . S
C1142 C1140 1.395 . S
C1142 C1145 1.403 . S
C1143 C1140 1.403 . S
C1143 C1144 1.524 . S
C1143 C1147 1.400 . S
C1144 H1129 0.960 . S
C1144 H1130 0.960 . S
C1144 H1131 0.960 . S
C1144 C1143 1.524 . S
C1145 C1142 1.403 . S
C1145 C1146 1.392 . S
C1145 C1149 1.495 . S
C1146 C1145 1.392 . S
C1146 C1147 1.385 . S
C1146 C1148 1.478 . S
C1147 H1141 0.930 . S
C1147 C1143 1.400 . S
C1147 C1146 1.385 . S
C1148 C1146 1.478 . S
C1148 C1150 1.381 . S
C1148 C1154 1.383 . S
C1149 C1145 1.495 . S
C1149 H1155 0.959 . S
C1149 H1156 0.961 . S
C1149 H1157 0.960 . S
C1150 C1148 1.381 . S
C1150 C1151 1.394 . S
C1150 H1158 0.930 . S
C1151 C1150 1.394 . S
C1151 C1152 1.383 . S
C1151 H1159 0.929 . S
C1152 C1151 1.383 . S
C1152 C1153 1.377 . S
C1153 H1137 0.930 . S
C1153 C1152 1.377 . S
C1153 C1154 1.379 . S
C1154 H1138 0.931 . S
C1154 C1148 1.383 . S
C1154 C1153 1.379 . S
H1155 C1149 0.959 . S
H1156 C1149 0.961 . S
H1157 C1149 0.960 . S
H1158 C1150 0.930 . S
H1159 C1151 0.929 . S
H1160 C1168 0.929 . S
H1161 C1170 0.930 . S
H1162 C1172 0.930 . S
H1163 C1175 0.929 . S
H1164 C1178 0.930 . S
H1165 C1180 0.960 . S
H1166 C1180 0.960 . S
H1167 C1180 0.960 . S
C1168 H1160 0.929 . S
C1168 C1169 1.377 . S
C1168 C1170 1.384 . S
C1169 C1168 1.377 . S
C1169 C1175 1.390 . S
C1170 H1161 0.930 . S
C1170 C1168 1.384 . S
C1170 C1171 1.372 . S
C1171 C1170 1.372 . S
C1171 C1172 1.400 . S
C1171 C1176 1.490 . S
C1172 H1162 0.930 . S
C1172 C1171 1.400 . S
C1172 C1175 1.386 . S
H1173 C1189 0.930 . S
H1174 C1190 0.931 . S
C1175 H1163 0.929 . S
C1175 C1169 1.390 . S
C1175 C1172 1.386 . S
C1176 C1171 1.490 . S
C1176 C1178 1.395 . S
C1176 C1179 1.403 . S
H1177 C1183 0.930 . S
C1178 H1164 0.930 . S
C1178 C1176 1.395 . S
C1178 C1181 1.403 . S
C1179 C1176 1.403 . S
C1179 C1180 1.524 . S
C1179 C1183 1.400 . S
C1180 H1165 0.960 . S
C1180 H1166 0.960 . S
C1180 H1167 0.960 . S
C1180 C1179 1.524 . S
C1181 C1178 1.403 . S
C1181 C1182 1.392 . S
C1181 C1185 1.495 . S
C1182 C1181 1.392 . S
C1182 C1183 1.385 . S
C1182 C1184 1.478 . S
C1183 H1177 0.930 . S
C1183 C1179 1.400 . S
C1183 C1182 1.385 . S
C1184 C1182 1.478 . S
C1184 C1186 1.381 . S
C1184 C1190 1.383 . S
C1185 C1181 1.495 . S
C1185 H1191 0.959 . S
C1185 H1192 0.961 . S
C1185 H1193 0.960 . S
C1186 C1184 1.381 . S
C1186 C1187 1.394 . S
C1186 H1194 0.930 . S
C1187 C1186 1.394 . S
C1187 C1188 1.383 . S
C1187 H1195 0.929 . S
C1188 C1187 1.383 . S
C1188 C1189 1.377 . S
C1189 H1173 0.930 . S
C1189 C1188 1.377 . S
C1189 C1190 1.379 . S
C1190 H1174 0.931 . S
C1190 C1184 1.383 . S
C1190 C1189 1.379 . S
H1191 C1185 0.959 . S
H1192 C1185 0.961 . S
H1193 C1185 0.960 . S
H1194 C1186 0.930 . S
H1195 C1187 0.929 . S
H1196 C1204 0.929 . S
H1197 C1206 0.930 . S
H1198 C1208 0.930 . S
H1199 C1211 0.929 . S
H1200 C1214 0.930 . S
H1201 C1216 0.960 . S
H1202 C1216 0.960 . S
H1203 C1216 0.960 . S
C1204 H1196 0.929 . S
C1204 C1205 1.377 . S
C1204 C1206 1.384 . S
C1205 C1204 1.377 . S
C1205 C1211 1.390 . S
C1206 H1197 0.930 . S
C1206 C1204 1.384 . S
C1206 C1207 1.372 . S
C1207 C1206 1.372 . S
C1207 C1208 1.400 . S
C1207 C1212 1.490 . S
C1208 H1198 0.930 . S
C1208 C1207 1.400 . S
C1208 C1211 1.386 . S
H1209 C1225 0.930 . S
H1210 C1226 0.931 . S
C1211 H1199 0.929 . S
C1211 C1205 1.390 . S
C1211 C1208 1.386 . S
C1212 C1207 1.490 . S
C1212 C1214 1.395 . S
C1212 C1215 1.403 . S
H1213 C1219 0.930 . S
C1214 H1200 0.930 . S
C1214 C1212 1.395 . S
C1214 C1217 1.403 . S
C1215 C1212 1.403 . S
C1215 C1216 1.524 . S
C1215 C1219 1.400 . S
C1216 H1201 0.960 . S
C1216 H1202 0.960 . S
C1216 H1203 0.960 . S
C1216 C1215 1.524 . S
C1217 C1214 1.403 . S
C1217 C1218 1.392 . S
C1217 C1221 1.495 . S
C1218 C1217 1.392 . S
C1218 C1219 1.385 . S
C1218 C1220 1.478 . S
C1219 H1213 0.930 . S
C1219 C1215 1.400 . S
C1219 C1218 1.385 . S
C1220 C1218 1.478 . S
C1220 C1222 1.381 . S
C1220 C1226 1.383 . S
C1221 C1217 1.495 . S
C1221 H1227 0.959 . S
C1221 H1228 0.961 . S
C1221 H1229 0.960 . S
C1222 C1220 1.381 . S
C1222 C1223 1.394 . S
C1222 H1230 0.930 . S
C1223 C1222 1.394 . S
C1223 C1224 1.383 . S
C1223 H1231 0.929 . S
C1224 C1223 1.383 . S
C1224 C1225 1.377 . S
C1225 H1209 0.930 . S
C1225 C1224 1.377 . S
C1225 C1226 1.379 . S
C1226 H1210 0.931 . S
C1226 C1220 1.383 . S
C1226 C1225 1.379 . S
H1227 C1221 0.959 . S
H1228 C1221 0.961 . S
H1229 C1221 0.960 . S
H1230 C1222 0.930 . S
H1231 C1223 0.929 . S
H1232 C1240 0.929 . S
H1233 C1242 0.930 . S
H1234 C1244 0.930 . S
H1235 C1247 0.929 . S
H1236 C1250 0.930 . S
H1237 C1252 0.960 . S
H1238 C1252 0.960 . S
H1239 C1252 0.960 . S
C1240 H1232 0.929 . S
C1240 C1241 1.377 . S
C1240 C1242 1.384 . S
C1241 C1240 1.377 . S
C1241 C1247 1.390 . S
C1242 H1233 0.930 . S
C1242 C1240 1.384 . S
C1242 C1243 1.372 . S
C1243 C1242 1.372 . S
C1243 C1244 1.400 . S
C1243 C1248 1.490 . S
C1244 H1234 0.930 . S
C1244 C1243 1.400 . S
C1244 C1247 1.386 . S
H1245 C1261 0.930 . S
H1246 C1262 0.931 . S
C1247 H1235 0.929 . S
C1247 C1241 1.390 . S
C1247 C1244 1.386 . S
C1248 C1243 1.490 . S
C1248 C1250 1.395 . S
C1248 C1251 1.403 . S
H1249 C1255 0.930 . S
C1250 H1236 0.930 . S
C1250 C1248 1.395 . S
C1250 C1253 1.403 . S
C1251 C1248 1.403 . S
C1251 C1252 1.524 . S
C1251 C1255 1.400 . S
C1252 H1237 0.960 . S
C1252 H1238 0.960 . S
C1252 H1239 0.960 . S
C1252 C1251 1.524 . S
C1253 C1250 1.403 . S
C1253 C1254 1.392 . S
C1253 C1257 1.495 . S
C1254 C1253 1.392 . S
C1254 C1255 1.385 . S
C1254 C1256 1.478 . S
C1255 H1249 0.930 . S
C1255 C1251 1.400 . S
C1255 C1254 1.385 . S
C1256 C1254 1.478 . S
C1256 C1258 1.381 . S
C1256 C1262 1.383 . S
C1257 C1253 1.495 . S
C1257 H1263 0.959 . S
C1257 H1264 0.961 . S
C1257 H1265 0.960 . S
C1258 C1256 1.381 . S
C1258 C1259 1.394 . S
C1258 H1266 0.930 . S
C1259 C1258 1.394 . S
C1259 C1260 1.383 . S
C1259 H1267 0.929 . S
C1260 C1259 1.383 . S
C1260 C1261 1.377 . S
C1261 H1245 0.930 . S
C1261 C1260 1.377 . S
C1261 C1262 1.379 . S
C1262 H1246 0.931 . S
C1262 C1256 1.383 . S
C1262 C1261 1.379 . S
H1263 C1257 0.959 . S
H1264 C1257 0.961 . S
H1265 C1257 0.960 . S
H1266 C1258 0.930 . S
H1267 C1259 0.929 . S
H1268 C1276 0.929 . S
H1269 C1278 0.930 . S
H1270 C1280 0.930 . S
H1271 C1283 0.929 . S
H1272 C1286 0.930 . S
H1273 C1288 0.960 . S
H1274 C1288 0.960 . S
H1275 C1288 0.960 . S
C1276 H1268 0.929 . S
C1276 C1277 1.377 . S
C1276 C1278 1.384 . S
C1277 C1276 1.377 . S
C1277 C1283 1.390 . S
C1278 H1269 0.930 . S
C1278 C1276 1.384 . S
C1278 C1279 1.372 . S
C1279 C1278 1.372 . S
C1279 C1280 1.400 . S
C1279 C1284 1.490 . S
C1280 H1270 0.930 . S
C1280 C1279 1.400 . S
C1280 C1283 1.386 . S
H1281 C1297 0.930 . S
H1282 C1298 0.931 . S
C1283 H1271 0.929 . S
C1283 C1277 1.390 . S
C1283 C1280 1.386 . S
C1284 C1279 1.490 . S
C1284 C1286 1.395 . S
C1284 C1287 1.403 . S
H1285 C1291 0.930 . S
C1286 H1272 0.930 . S
C1286 C1284 1.395 . S
C1286 C1289 1.403 . S
C1287 C1284 1.403 . S
C1287 C1288 1.524 . S
C1287 C1291 1.400 . S
C1288 H1273 0.960 . S
C1288 H1274 0.960 . S
C1288 H1275 0.960 . S
C1288 C1287 1.524 . S
C1289 C1286 1.403 . S
C1289 C1290 1.392 . S
C1289 C1293 1.495 . S
C1290 C1289 1.392 . S
C1290 C1291 1.385 . S
C1290 C1292 1.478 . S
C1291 H1285 0.930 . S
C1291 C1287 1.400 . S
C1291 C1290 1.385 . S
C1292 C1290 1.478 . S
C1292 C1294 1.381 . S
C1292 C1298 1.383 . S
C1293 C1289 1.495 . S
C1293 H1299 0.959 . S
C1293 H1300 0.961 . S
C1293 H1301 0.960 . S
C1294 C1292 1.381 . S
C1294 C1295 1.394 . S
C1294 H1302 0.930 . S
C1295 C1294 1.394 . S
C1295 C1296 1.383 . S
C1295 H1303 0.929 . S
C1296 C1295 1.383 . S
C1296 C1297 1.377 . S
C1297 H1281 0.930 . S
C1297 C1296 1.377 . S
C1297 C1298 1.379 . S
C1298 H1282 0.931 . S
C1298 C1292 1.383 . S
C1298 C1297 1.379 . S
H1299 C1293 0.959 . S
H1300 C1293 0.961 . S
H1301 C1293 0.960 . S
H1302 C1294 0.930 . S
H1303 C1295 0.929 . S
H1304 C1312 0.929 . S
H1305 C1314 0.930 . S
H1306 C1316 0.930 . S
H1307 C1319 0.929 . S
H1308 C1322 0.930 . S
H1309 C1324 0.960 . S
H1310 C1324 0.960 . S
H1311 C1324 0.960 . S
C1312 H1304 0.929 . S
C1312 C1313 1.377 . S
C1312 C1314 1.384 . S
C1313 C1312 1.377 . S
C1313 C1319 1.390 . S
C1314 H1305 0.930 . S
C1314 C1312 1.384 . S
C1314 C1315 1.372 . S
C1315 C1314 1.372 . S
C1315 C1316 1.400 . S
C1315 C1320 1.490 . S
C1316 H1306 0.930 . S
C1316 C1315 1.400 . S
C1316 C1319 1.386 . S
H1317 C1333 0.930 . S
H1318 C1334 0.931 . S
C1319 H1307 0.929 . S
C1319 C1313 1.390 . S
C1319 C1316 1.386 . S
C1320 C1315 1.490 . S
C1320 C1322 1.395 . S
C1320 C1323 1.403 . S
H1321 C1327 0.930 . S
C1322 H1308 0.930 . S
C1322 C1320 1.395 . S
C1322 C1325 1.403 . S
C1323 C1320 1.403 . S
C1323 C1324 1.524 . S
C1323 C1327 1.400 . S
C1324 H1309 0.960 . S
C1324 H1310 0.960 . S
C1324 H1311 0.960 . S
C1324 C1323 1.524 . S
C1325 C1322 1.403 . S
C1325 C1326 1.392 . S
C1325 C1329 1.495 . S
C1326 C1325 1.392 . S
C1326 C1327 1.385 . S
C1326 C1328 1.478 . S
C1327 H1321 0.930 . S
C1327 C1323 1.400 . S
C1327 C1326 1.385 . S
C1328 C1326 1.478 . S
C1328 C1330 1.381 . S
C1328 C1334 1.383 . S
C1329 C1325 1.495 . S
C1329 H1335 0.959 . S
C1329 H1336 0.961 . S
C1329 H1337 0.960 . S
C1330 C1328 1.381 . S
C1330 C1331 1.394 . S
C1330 H1338 0.930 . S
C1331 C1330 1.394 . S
C1331 C1332 1.383 . S
C1331 H1339 0.929 . S
C1332 C1331 1.383 . S
C1332 C1333 1.377 . S
C1333 H1317 0.930 . S
C1333 C1332 1.377 . S
C1333 C1334 1.379 . S
C1334 H1318 0.931 . S
C1334 C1328 1.383 . S
C1334 C1333 1.379 . S
H1335 C1329 0.959 . S
H1336 C1329 0.961 . S
H1337 C1329 0.960 . S
H1338 C1330 0.930 . S
H1339 C1331 0.929 . S
H1340 C1348 0.929 . S
H1341 C1350 0.930 . S
H1342 C1352 0.930 . S
H1343 C1355 0.929 . S
H1344 C1358 0.930 . S
H1345 C1360 0.960 . S
H1346 C1360 0.960 . S
H1347 C1360 0.960 . S
C1348 H1340 0.929 . S
C1348 C1349 1.377 . S
C1348 C1350 1.384 . S
C1349 C1348 1.377 . S
C1349 C1355 1.390 . S
C1350 H1341 0.930 . S
C1350 C1348 1.384 . S
C1350 C1351 1.372 . S
C1351 C1350 1.372 . S
C1351 C1352 1.400 . S
C1351 C1356 1.490 . S
C1352 H1342 0.930 . S
C1352 C1351 1.400 . S
C1352 C1355 1.386 . S
H1353 C1369 0.930 . S
H1354 C1370 0.931 . S
C1355 H1343 0.929 . S
C1355 C1349 1.390 . S
C1355 C1352 1.386 . S
C1356 C1351 1.490 . S
C1356 C1358 1.395 . S
C1356 C1359 1.403 . S
H1357 C1363 0.930 . S
C1358 H1344 0.930 . S
C1358 C1356 1.395 . S
C1358 C1361 1.403 . S
C1359 C1356 1.403 . S
C1359 C1360 1.524 . S
C1359 C1363 1.400 . S
C1360 H1345 0.960 . S
C1360 H1346 0.960 . S
C1360 H1347 0.960 . S
C1360 C1359 1.524 . S
C1361 C1358 1.403 . S
C1361 C1362 1.392 . S
C1361 C1365 1.495 . S
C1362 C1361 1.392 . S
C1362 C1363 1.385 . S
C1362 C1364 1.478 . S
C1363 H1357 0.930 . S
C1363 C1359 1.400 . S
C1363 C1362 1.385 . S
C1364 C1362 1.478 . S
C1364 C1366 1.381 . S
C1364 C1370 1.383 . S
C1365 C1361 1.495 . S
C1365 H1371 0.959 . S
C1365 H1372 0.961 . S
C1365 H1373 0.960 . S
C1366 C1364 1.381 . S
C1366 C1367 1.394 . S
C1366 H1374 0.930 . S
C1367 C1366 1.394 . S
C1367 C1368 1.383 . S
C1367 H1375 0.929 . S
C1368 C1367 1.383 . S
C1368 C1369 1.377 . S
C1369 H1353 0.930 . S
C1369 C1368 1.377 . S
C1369 C1370 1.379 . S
C1370 H1354 0.931 . S
C1370 C1364 1.383 . S
C1370 C1369 1.379 . S
H1371 C1365 0.959 . S
H1372 C1365 0.961 . S
H1373 C1365 0.960 . S
H1374 C1366 0.930 . S
H1375 C1367 0.929 . S
H1376 C1384 0.929 . S
H1377 C1386 0.930 . S
H1378 C1388 0.930 . S
H1379 C1391 0.929 . S
H1380 C1394 0.930 . S
H1381 C1396 0.960 . S
H1382 C1396 0.960 . S
H1383 C1396 0.960 . S
C1384 H1376 0.929 . S
C1384 C1385 1.377 . S
C1384 C1386 1.384 . S
C1385 C1384 1.377 . S
C1385 C1391 1.390 . S
C1386 H1377 0.930 . S
C1386 C1384 1.384 . S
C1386 C1387 1.372 . S
C1387 C1386 1.372 . S
C1387 C1388 1.400 . S
C1387 C1392 1.490 . S
C1388 H1378 0.930 . S
C1388 C1387 1.400 . S
C1388 C1391 1.386 . S
H1389 C1405 0.930 . S
H1390 C1406 0.931 . S
C1391 H1379 0.929 . S
C1391 C1385 1.390 . S
C1391 C1388 1.386 . S
C1392 C1387 1.490 . S
C1392 C1394 1.395 . S
C1392 C1395 1.403 . S
H1393 C1399 0.930 . S
C1394 H1380 0.930 . S
C1394 C1392 1.395 . S
C1394 C1397 1.403 . S
C1395 C1392 1.403 . S
C1395 C1396 1.524 . S
C1395 C1399 1.400 . S
C1396 H1381 0.960 . S
C1396 H1382 0.960 . S
C1396 H1383 0.960 . S
C1396 C1395 1.524 . S
C1397 C1394 1.403 . S
C1397 C1398 1.392 . S
C1397 C1401 1.495 . S
C1398 C1397 1.392 . S
C1398 C1399 1.385 . S
C1398 C1400 1.478 . S
C1399 H1393 0.930 . S
C1399 C1395 1.400 . S
C1399 C1398 1.385 . S
C1400 C1398 1.478 . S
C1400 C1402 1.381 . S
C1400 C1406 1.383 . S
C1401 C1397 1.495 . S
C1401 H1407 0.959 . S
C1401 H1408 0.961 . S
C1401 H1409 0.960 . S
C1402 C1400 1.381 . S
C1402 C1403 1.394 . S
C1402 H1410 0.930 . S
C1403 C1402 1.394 . S
C1403 C1404 1.383 . S
C1403 H1411 0.929 . S
C1404 C1403 1.383 . S
C1404 C1405 1.377 . S
C1405 H1389 0.930 . S
C1405 C1404 1.377 . S
C1405 C1406 1.379 . S
C1406 H1390 0.931 . S
C1406 C1400 1.383 . S
C1406 C1405 1.379 . S
H1407 C1401 0.959 . S
H1408 C1401 0.961 . S
H1409 C1401 0.960 . S
H1410 C1402 0.930 . S
H1411 C1403 0.929 . S
H1412 C1420 0.929 . S
H1413 C1422 0.930 . S
H1414 C1424 0.930 . S
H1415 C1427 0.929 . S
H1416 C1430 0.930 . S
H1417 C1432 0.960 . S
H1418 C1432 0.960 . S
H1419 C1432 0.960 . S
C1420 H1412 0.929 . S
C1420 C1421 1.377 . S
C1420 C1422 1.384 . S
C1421 C1420 1.377 . S
C1421 C1427 1.390 . S
C1422 H1413 0.930 . S
C1422 C1420 1.384 . S
C1422 C1423 1.372 . S
C1423 C1422 1.372 . S
C1423 C1424 1.400 . S
C1423 C1428 1.490 . S
C1424 H1414 0.930 . S
C1424 C1423 1.400 . S
C1424 C1427 1.386 . S
H1425 C1441 0.930 . S
H1426 C1442 0.931 . S
C1427 H1415 0.929 . S
C1427 C1421 1.390 . S
C1427 C1424 1.386 . S
C1428 C1423 1.490 . S
C1428 C1430 1.395 . S
C1428 C1431 1.403 . S
H1429 C1435 0.930 . S
C1430 H1416 0.930 . S
C1430 C1428 1.395 . S
C1430 C1433 1.403 . S
C1431 C1428 1.403 . S
C1431 C1432 1.524 . S
C1431 C1435 1.400 . S
C1432 H1417 0.960 . S
C1432 H1418 0.960 . S
C1432 H1419 0.960 . S
C1432 C1431 1.524 . S
C1433 C1430 1.403 . S
C1433 C1434 1.392 . S
C1433 C1437 1.495 . S
C1434 C1433 1.392 . S
C1434 C1435 1.385 . S
C1434 C1436 1.478 . S
C1435 H1429 0.930 . S
C1435 C1431 1.400 . S
C1435 C1434 1.385 . S
C1436 C1434 1.478 . S
C1436 C1438 1.381 . S
C1436 C1442 1.383 . S
C1437 C1433 1.495 . S
C1437 H1443 0.959 . S
C1437 H1444 0.961 . S
C1437 H1445 0.960 . S
C1438 C1436 1.381 . S
C1438 C1439 1.394 . S
C1438 H1446 0.930 . S
C1439 C1438 1.394 . S
C1439 C1440 1.383 . S
C1439 H1447 0.929 . S
C1440 C1439 1.383 . S
C1440 C1441 1.377 . S
C1441 H1425 0.930 . S
C1441 C1440 1.377 . S
C1441 C1442 1.379 . S
C1442 H1426 0.931 . S
C1442 C1436 1.383 . S
C1442 C1441 1.379 . S
H1443 C1437 0.959 . S
H1444 C1437 0.961 . S
H1445 C1437 0.960 . S
H1446 C1438 0.930 . S
H1447 C1439 0.929 . S
C593 C45 1.629 . S
C612 C135 1.560 . S
C629 C30 1.636 . S
C648 C195 1.617 . S
C665 C39 1.632 . S
C684 C255 1.633 . S
C720 C315 1.652 . S
C701 C34 1.631 . S
C737 C97 1.629 . S
C756 C375 1.566 . S
C792 C435 1.582 . S
C773 C82 1.630 . S
C828 C495 1.640 . S
C809 C91 1.629 . S
C864 C555 1.638 . S
C845 C86 1.635 . S
C900 C484 1.520 . S
C881 C26 1.476 . S
C936 C544 1.525 . S
C917 C36 1.481 . S
C972 C345 1.487 . S
C953 C32 1.484 . S
C1008 C405 1.483 . S
C989 C42 1.477 . S
C1025 C18 1.565 . S
C1044 C424 1.585 . S
C1080 C465 1.618 . S
C1061 C50 1.560 . S
C1097 C4 1.568 . S
C1116 C525 1.598 . S
C1133 C48 1.564 . S
C1152 C364 1.608 . S
C1188 C244 1.538 . S
C1169 C78 1.475 . S
C1205 C88 1.481 . S
C1224 C304 1.526 . S
C1260 C105 1.470 . S
C1241 C84 1.480 . S
C1296 C165 1.424 . S
C1277 C94 1.470 . S
C1332 C184 1.608 . S
C1313 C70 1.566 . S
C1368 C225 1.620 . S
C1349 C102 1.557 . S
C1385 C56 1.557 . S
C1404 C285 1.619 . S
C1421 C100 1.568 . S
C1440 C124 1.606 . S
