# Generated by pormake.
# Topology pyr, (3,6)-cn, num edge types: 1
# Building blocks:
#     Node 0, Type 0, BuildingBlock: INOVEN_clean_linker_0, # of connection points: 3
#     Node 1, Type 0, BuildingBlock: INOVEN_clean_linker_0, # of connection points: 3
#     Node 2, Type 0, BuildingBlock: INOVEN_clean_linker_0, # of connection points: 3
#     Node 3, Type 0, BuildingBlock: INOVEN_clean_linker_0, # of connection points: 3
#     Node 4, Type 0, BuildingBlock: INOVEN_clean_linker_0, # of connection points: 3
#     Node 5, Type 0, BuildingBlock: INOVEN_clean_linker_0, # of connection points: 3
#     Node 6, Type 0, BuildingBlock: INOVEN_clean_linker_0, # of connection points: 3
#     Node 7, Type 0, BuildingBlock: INOVEN_clean_linker_0, # of connection points: 3
#     Node 8, Type 1, BuildingBlock: MIFKUJ_clean_sbu_0, # of connection points: 6
#     Node 9, Type 1, BuildingBlock: MIFKUJ_clean_sbu_0, # of connection points: 6
#     Node 10, Type 1, BuildingBlock: MIFKUJ_clean_sbu_0, # of connection points: 6
#     Node 11, Type 1, BuildingBlock: MIFKUJ_clean_sbu_0, # of connection points: 6
#     Edge 12, Type (0, 1), BuildingBlock: OJICUG_clean_linker_0, # of connection points: 2
#     Edge 13, Type (0, 1), BuildingBlock: OJICUG_clean_linker_0, # of connection points: 2
#     Edge 14, Type (0, 1), BuildingBlock: OJICUG_clean_linker_0, # of connection points: 2
#     Edge 15, Type (0, 1), BuildingBlock: OJICUG_clean_linker_0, # of connection points: 2
#     Edge 16, Type (0, 1), BuildingBlock: OJICUG_clean_linker_0, # of connection points: 2
#     Edge 17, Type (0, 1), BuildingBlock: OJICUG_clean_linker_0, # of connection points: 2
#     Edge 18, Type (0, 1), BuildingBlock: OJICUG_clean_linker_0, # of connection points: 2
#     Edge 19, Type (0, 1), BuildingBlock: OJICUG_clean_linker_0, # of connection points: 2
#     Edge 20, Type (0, 1), BuildingBlock: OJICUG_clean_linker_0, # of connection points: 2
#     Edge 21, Type (0, 1), BuildingBlock: OJICUG_clean_linker_0, # of connection points: 2
#     Edge 22, Type (0, 1), BuildingBlock: OJICUG_clean_linker_0, # of connection points: 2
#     Edge 23, Type (0, 1), BuildingBlock: OJICUG_clean_linker_0, # of connection points: 2
#     Edge 24, Type (0, 1), BuildingBlock: OJICUG_clean_linker_0, # of connection points: 2
#     Edge 25, Type (0, 1), BuildingBlock: OJICUG_clean_linker_0, # of connection points: 2
#     Edge 26, Type (0, 1), BuildingBlock: OJICUG_clean_linker_0, # of connection points: 2
#     Edge 27, Type (0, 1), BuildingBlock: OJICUG_clean_linker_0, # of connection points: 2
#     Edge 28, Type (0, 1), BuildingBlock: OJICUG_clean_linker_0, # of connection points: 2
#     Edge 29, Type (0, 1), BuildingBlock: OJICUG_clean_linker_0, # of connection points: 2
#     Edge 30, Type (0, 1), BuildingBlock: OJICUG_clean_linker_0, # of connection points: 2
#     Edge 31, Type (0, 1), BuildingBlock: OJICUG_clean_linker_0, # of connection points: 2
#     Edge 32, Type (0, 1), BuildingBlock: OJICUG_clean_linker_0, # of connection points: 2
#     Edge 33, Type (0, 1), BuildingBlock: OJICUG_clean_linker_0, # of connection points: 2
#     Edge 34, Type (0, 1), BuildingBlock: OJICUG_clean_linker_0, # of connection points: 2
#     Edge 35, Type (0, 1), BuildingBlock: OJICUG_clean_linker_0, # of connection points: 2
# Relax obj value: 0.058
# Max RMSD: 0.191
# Mean RMSD: 0.123
data_MOF--net-pyr--node1-MIFKUJ_clean_sbu_0--node2-INOVEN_clean_linker_0--edge1-OJICUG_clean_linker_0
_symmetry_space_group_name_H-M    P1
_symmetry_Int_Tables_number       1
_symmetry_cell_setting            triclinic
loop_
_symmetry_equiv_pos_as_xyz
'x, y, z'
_cell_length_a     28.1125
_cell_length_b     25.887552
_cell_length_c     28.036108
_cell_angle_alpha  86.067041
_cell_angle_beta   88.897724
_cell_angle_gamma 104.57223
loop_
_atom_site_label
_atom_site_type_symbol
_atom_site_fract_x
_atom_site_fract_y
_atom_site_fract_z
_atom_type_partial_charge
H0 H 0.07657 0.14351 0.2281 0.0
H1 H 0.19362 0.07064 0.26641 0.0
H2 H 0.19631 0.15539 0.12818 0.0
N3 N 0.11697 0.18837 0.14294 0.0
N4 N 0.08191 0.20681 0.15483 0.0
C5 C 0.1111 0.13439 0.21943 0.0
C6 C 0.13249 0.10573 0.25343 0.0
C7 C 0.13442 0.15273 0.17461 0.0
C8 C 0.17817 0.13974 0.1625 0.0
C9 C 0.19973 0.10934 0.19501 0.0
C10 C 0.17672 0.09283 0.24066 0.0
H11 H 0.35599 0.84433 0.63865 0.0
H12 H 0.45016 0.82353 0.75398 0.0
H13 H 0.35404 0.92862 0.76461 0.0
N14 N 0.31375 0.91007 0.67841 0.0
N15 N 0.29243 0.93885 0.70009 0.0
C16 C 0.36968 0.85314 0.67384 0.0
C17 C 0.40495 0.82856 0.69332 0.0
C18 C 0.35111 0.8888 0.69923 0.0
C19 C 0.36889 0.90153 0.74461 0.0
C20 C 0.40507 0.87859 0.76463 0.0
C21 C 0.4228 0.84197 0.73868 0.0
H22 H 0.57745 0.31724 0.86774 0.0
H23 H 0.68957 0.33855 0.97273 0.0
H24 H 0.69741 0.4575 0.8558 0.0
N25 N 0.61428 0.40734 0.81569 0.0
N26 N 0.63151 0.4527 0.79503 0.0
C27 C 0.61071 0.34101 0.88214 0.0
C28 C 0.63042 0.32172 0.92338 0.0
C29 C 0.63431 0.39017 0.85822 0.0
C30 C 0.67825 0.42044 0.87554 0.0
C31 C 0.69864 0.40236 0.91688 0.0
C32 C 0.67447 0.35274 0.94061 0.0
H33 H 0.79989 0.59924 0.30738 0.0
H34 H 0.82407 0.70994 0.41805 0.0
H35 H 0.92696 0.7329 0.29865 0.0
N36 N 0.88131 0.64183 0.25774 0.0
N37 N 0.91713 0.66703 0.23146 0.0
C38 C 0.82156 0.63433 0.32293 0.0
C39 C 0.8055 0.65094 0.36589 0.0
C40 C 0.8654 0.66293 0.29889 0.0
C41 C 0.89318 0.71009 0.31705 0.0
C42 C 0.87804 0.7269 0.36004 0.0
C43 C 0.8348 0.69692 0.38449 0.0
H44 H 0.81921 0.92786 0.7603 0.0
H45 H 0.92208 0.83038 0.77635 0.0
H46 H 0.81941 0.83285 0.89161 0.0
N47 N 0.77837 0.90531 0.84595 0.0
N48 N 0.76216 0.89566 0.88818 0.0
C49 C 0.83371 0.89879 0.78108 0.0
C50 C 0.87225 0.88015 0.76214 0.0
C51 C 0.81513 0.88251 0.82771 0.0
C52 C 0.83452 0.84613 0.85575 0.0
C53 C 0.87325 0.82691 0.83759 0.0
C54 C 0.89175 0.84415 0.7906 0.0
H55 H 0.59963 0.18815 0.31799 0.0
H56 H 0.70289 0.09515 0.29142 0.0
H57 H 0.71084 0.18188 0.41882 0.0
N58 N 0.63272 0.22283 0.39815 0.0
N59 N 0.65004 0.24086 0.43598 0.0
C60 C 0.63087 0.17322 0.32876 0.0
C61 C 0.64906 0.14054 0.29931 0.0
C62 C 0.65244 0.18776 0.37172 0.0
C63 C 0.69326 0.16919 0.38608 0.0
C64 C 0.71213 0.13555 0.3574 0.0
C65 C 0.68924 0.12097 0.31403 0.0
H66 H 0.41975 0.74299 0.23625 0.0
H67 H 0.30712 0.7105 0.13309 0.0
H68 H 0.30751 0.59515 0.25149 0.0
N69 N 0.39116 0.65406 0.28915 0.0
N70 N 0.38027 0.60895 0.31123 0.0
C71 C 0.38699 0.71685 0.2231 0.0
C72 C 0.3658 0.73276 0.18163 0.0
C73 C 0.36673 0.66742 0.24808 0.0
C74 C 0.32372 0.63327 0.2319 0.0
C75 C 0.3012 0.64919 0.19079 0.0
C76 C 0.32288 0.69884 0.16583 0.0
H77 H 0.0958 0.34533 0.69523 0.0
H78 H 0.23231 0.35687 0.61779 0.0
H79 H 0.22701 0.46127 0.72924 0.0
N80 N 0.13166 0.42104 0.75402 0.0
N81 N 0.1531 0.44295 0.78875 0.0
C82 C 0.13467 0.36381 0.68868 0.0
C83 C 0.16108 0.34671 0.65232 0.0
C84 C 0.15857 0.4044 0.71715 0.0
C85 C 0.20894 0.42868 0.70844 0.0
C86 C 0.2356 0.4125 0.67199 0.0
C87 C 0.21144 0.37113 0.6446 0.0
Zn88 Zn 0.07108 0.04107 0.54777 0.0
Zn89 Zn 0.94975 0.02304 0.47713 0.0
C90 C 0.09852 0.15999 0.54627 0.0
O91 O 0.1139 0.16078 0.50162 0.0
C92 C 0.96014 0.92071 0.44961 0.0
O93 O 0.98214 0.92037 0.49049 0.0
O94 O 0.12606 0.01263 0.57542 0.0
O95 O 0.00899 -0.00231 0.57965 0.0
O96 O 0.9368 0.99073 0.54607 0.0
C97 C 0.13743 0.01919 0.61868 0.0
O98 O 0.11277 0.04446 0.64496 0.0
O99 O 0.0797 0.1154 0.56945 0.0
C100 C 0.8857 0.06601 0.41456 0.0
O101 O 0.91615 0.05732 0.3817 0.0
O102 O 0.89346 0.05604 0.45844 0.0
O103 O 0.01533 0.07655 0.46211 0.0
O104 O 0.07565 0.03857 0.47687 0.0
O105 O 0.94489 0.96129 0.43578 0.0
C106 C 0.96248 0.98077 0.58089 0.0
C107 C 0.05032 0.05818 0.44716 0.0
Zn108 Zn 0.53566 -0.00149 0.01943 0.0
Zn109 Zn 0.4576 0.04493 0.07212 0.0
C110 C 0.48328 0.93312 0.95012 0.0
O111 O 0.49922 0.89744 0.97647 0.0
C112 C 0.52987 0.10098 0.13429 0.0
O113 O 0.51872 0.14201 0.11118 0.0
O114 O 0.59492 0.97326 0.00246 0.0
O115 O 0.55962 0.07827 0.02173 0.0
O116 O 0.48723 0.09565 0.01501 0.0
C117 C 0.61506 0.98921 0.96135 0.0
O118 O 0.59787 0.02313 0.93402 0.0
O119 O 0.49193 0.9808 0.96283 0.0
C120 C 0.3852 0.06556 0.13996 0.0
O121 O 0.41364 0.05196 0.17259 0.0
O122 O 0.39754 0.06675 0.09591 0.0
O123 O 0.43248 0.96657 0.06294 0.0
O124 O 0.50465 0.95284 0.07804 0.0
O125 O 0.50792 0.054 0.1242 0.0
C126 C 0.53376 0.11014 0.00873 0.0
C127 C 0.45812 0.93657 0.0805 0.0
Zn128 Zn 0.53882 0.49218 0.52189 0.0
Zn129 Zn 0.51665 0.59036 0.56643 0.0
C130 C 0.61903 0.53323 0.4564 0.0
O131 O 0.59314 0.49312 0.43412 0.0
C132 C 0.43804 0.52722 0.62941 0.0
O133 O 0.46473 0.55249 0.66271 0.0
O134 O 0.54465 0.41984 0.50346 0.0
O135 O 0.53458 0.48476 0.59334 0.0
O136 O 0.57207 0.56873 0.60117 0.0
C137 C 0.58001 0.40332 0.52121 0.0
O138 O 0.60738 0.43178 0.55237 0.0
O139 O 0.60272 0.5436 0.49638 0.0
C140 C 0.4654 0.66792 0.58874 0.0
O141 O 0.43298 0.63687 0.56315 0.0
O142 O 0.50727 0.65813 0.59366 0.0
O143 O 0.51607 0.59876 0.49393 0.0
O144 O 0.4833 0.5127 0.48786 0.0
O145 O 0.45409 0.53547 0.58619 0.0
C146 C 0.56174 0.51988 0.61709 0.0
C147 C 0.48816 0.56126 0.47264 0.0
Zn148 Zn 0.98759 0.58321 0.97244 0.0
Zn149 Zn 0.0408 0.49797 0.05109 0.0
C150 C 0.8923 0.53153 0.9454 0.0
O151 O 0.90712 0.56686 0.90888 0.0
C152 C 0.13123 0.51764 0.10516 0.0
O153 O 0.12589 0.46589 0.10396 0.0
O154 O 0.97561 0.64836 0.93631 0.0
O155 O 0.01067 0.60616 0.03736 0.0
O156 O 0.98343 0.52577 0.07348 0.0
C157 C 0.95321 0.679 0.95556 0.0
O158 O 0.94128 0.67098 1.00149 0.0
O159 O 0.92145 0.52843 0.979 0.0
C160 C 0.0447 0.38764 0.05156 0.0
O161 O 0.06595 0.40394 0.00919 0.0
O162 O 0.02892 0.42037 0.07549 0.0
O163 O 0.05985 0.50226 0.98083 0.0
O164 O 0.03205 0.55576 0.92985 0.0
O165 O 0.10021 0.53929 0.08476 0.0
C166 C 0.98914 0.57609 0.07313 0.0
C167 C 0.05735 0.52226 0.93863 0.0
C168 C 0.08547 0.12687 0.32385 0.0
C169 C 0.10959 0.09199 0.30269 0.0
H170 H 0.04676 0.14282 0.38545 0.0
C171 C 0.112 0.04468 0.32929 0.0
H172 H 0.08387 0.16444 0.30533 0.0
C173 C 0.09192 0.03332 0.37602 0.0
C174 C 0.06808 0.06836 0.39677 0.0
H175 H 0.12932 0.01632 0.31415 0.0
H176 H 0.09502 -0.00297 0.39598 0.0
C177 C 0.06432 0.11476 0.37002 0.0
C178 C 0.43269 0.94534 0.82631 0.0
C179 C 0.42368 0.89241 0.81285 0.0
H180 H 0.45815 -0.00027 0.88011 0.0
C181 C 0.43252 0.85281 0.84588 0.0
H182 H 0.42677 0.977 0.80164 0.0
C183 C 0.45071 0.86592 0.89078 0.0
C184 C 0.46044 0.91895 0.90391 0.0
H185 H 0.42516 0.81149 0.83718 0.0
H186 H 0.45757 0.83442 0.91504 0.0
C187 C 0.45077 0.95844 0.87131 0.0
C188 C 0.57714 0.43357 0.72714 0.0
C189 C 0.61268 0.46926 0.75163 0.0
H190 H 0.5335 0.42173 0.66551 0.0
C191 C 0.631 0.52203 0.7321 0.0
H192 H 0.56244 0.39251 0.74127 0.0
C193 C 0.61425 0.53911 0.68855 0.0
C194 C 0.57917 0.50326 0.6637 0.0
H195 H 0.65852 0.54992 0.75056 0.0
H196 H 0.62918 0.58004 0.67415 0.0
C197 C 0.56071 0.45038 0.6836 0.0
C198 C 0.96763 0.67657 0.15827 0.0
C199 C 0.93363 0.64392 0.19178 0.0
H200 H 0.01151 0.68106 0.09403 0.0
C201 C 0.91771 0.5887 0.18605 0.0
H202 H 0.98043 0.7191 0.16226 0.0
C203 C 0.93588 0.56671 0.14761 0.0
C204 C 0.96983 0.59948 0.11379 0.0
H205 H 0.89174 0.56237 0.21158 0.0
H206 H 0.92314 0.52404 0.1443 0.0
C207 C 0.98528 0.65474 0.11937 0.0
C208 C 0.25656 0.08609 0.13417 0.0
C209 C 0.24708 0.09692 0.18148 0.0
H210 H 0.30744 0.06839 0.08395 0.0
C211 C 0.2837 0.09712 0.21508 0.0
H212 H 0.22903 0.08451 0.10745 0.0
C213 C 0.3285 0.08686 0.20168 0.0
C214 C 0.33801 0.07686 0.15424 0.0
H215 H 0.27826 0.10619 0.2516 0.0
H216 H 0.35592 0.08745 0.22839 0.0
C217 C 0.30154 0.07663 0.12066 0.0
C218 C 0.24059 0.94938 0.63168 0.0
C219 C 0.25461 0.95906 0.67883 0.0
H220 H 0.19265 0.96088 0.57575 0.0
C221 C 0.23022 0.98878 0.70579 0.0
H222 H 0.25878 0.92654 0.60993 0.0
C223 C 0.19216 0.00835 0.68631 0.0
C224 C 0.17791 -0.00135 0.63924 0.0
H225 H 0.24054 -0.00347 0.74214 0.0
H226 H 0.17393 0.03105 0.70819 0.0
C227 C 0.20267 0.96908 0.6121 0.0
C228 C 0.78345 0.41092 0.94896 0.0
C229 C 0.74622 0.43496 0.93313 0.0
H230 H 0.85958 0.42323 0.96617 0.0
C231 C 0.75648 0.49116 0.92824 0.0
H232 H 0.7769 0.36778 0.95297 0.0
C233 C 0.80376 0.52235 0.93442 0.0
C234 C 0.8415 0.49827 0.94723 0.0
H235 H 0.72838 0.51114 0.91766 0.0
H236 H 0.81119 0.56545 0.92784 0.0
C237 C 0.83077 0.4425 0.95638 0.0
C238 C 0.74141 0.56486 0.38876 0.0
C239 C 0.75829 0.62062 0.39103 0.0
H240 H 0.68406 0.49404 0.40722 0.0
C241 C 0.72921 0.64708 0.41698 0.0
H242 H 0.76304 0.54251 0.37054 0.0
C243 C 0.68458 0.61861 0.43967 0.0
C244 C 0.66743 0.56342 0.43573 0.0
H245 H 0.74016 0.69003 0.41896 0.0
H246 H 0.66273 0.64001 0.45887 0.0
C247 C 0.69626 0.53683 0.41022 0.0
C248 C 0.03432 0.27252 0.1448 0.0
C249 C 0.0668 0.24589 0.12528 0.0
H250 H 1.00153 0.33867 0.13677 0.0
C251 C 0.08718 0.26207 0.07885 0.0
H252 H 0.01831 0.26033 0.18052 0.0
C253 C 0.07737 0.30636 0.0536 0.0
C254 C 0.04758 0.33556 0.07457 0.0
H255 H 0.11212 0.24187 0.06279 0.0
H256 H 0.0952 0.31925 0.01868 0.0
C257 C 0.02492 0.31725 0.11982 0.0
C258 C 0.63329 0.23235 0.96222 0.0
C259 C 0.60568 0.26838 0.94719 0.0
H260 H 0.63233 0.15422 0.993 0.0
C261 C 0.55415 0.25229 0.95337 0.0
H262 H 0.67298 0.24326 0.95741 0.0
C263 C 0.53072 0.20107 0.97356 0.0
C264 C 0.55831 0.16476 0.98794 0.0
H265 H 0.53188 0.27937 0.94264 0.0
H266 H 0.49098 0.1899 0.97767 0.0
C267 C 0.60989 0.18113 0.98229 0.0
C268 C 0.91125 0.8262 0.35448 0.0
C269 C 0.90637 0.77635 0.37976 0.0
H270 H 0.93209 0.9115 0.35702 0.0
C271 C 0.92391 0.77433 0.42618 0.0
H272 H 0.89765 0.82854 0.31871 0.0
C273 C 0.94422 0.82151 0.44783 0.0
C274 C 0.94631 0.87153 0.42379 0.0
H275 H 0.92043 0.73618 0.44624 0.0
H276 H 0.95586 0.81865 0.48431 0.0
C277 C 0.9307 0.87349 0.37648 0.0
C278 C 0.47069 0.78451 0.66612 0.0
C279 C 0.42141 0.78773 0.66663 0.0
H280 H 0.52353 0.74447 0.6409 0.0
C281 C 0.38736 0.75143 0.64105 0.0
H282 H 0.49803 0.81207 0.68502 0.0
C283 C 0.40207 0.7135 0.61529 0.0
C284 C 0.4512 0.7102 0.6147 0.0
H285 H 0.34889 0.75169 0.64141 0.0
H286 H 0.37453 0.68616 0.59638 0.0
C287 C 0.48541 0.74606 0.64051 0.0
C288 C 0.94592 0.9168 0.70736 0.0
C289 C 0.89459 0.90173 0.71418 0.0
H290 H 0.00732 0.95295 0.6603 0.0
C291 C 0.86524 0.91036 0.6758 0.0
H292 H 0.96964 0.91156 0.73632 0.0
C293 C 0.88696 0.9349 0.63189 0.0
C294 C 0.93841 0.95127 0.62565 0.0
H295 H 0.8255 0.89862 0.67986 0.0
H296 H 0.86349 0.94189 0.60325 0.0
C297 C 0.96753 0.94107 0.6637 0.0
C298 C 0.60414 0.0764 0.24184 0.0
C299 C 0.6257 0.12907 0.25291 0.0
H300 H 0.55639 0.0259 0.19552 0.0
C301 C 0.61921 0.17179 0.22225 0.0
H302 H 0.60837 0.04282 0.26514 0.0
C303 C 0.58954 0.16235 0.18286 0.0
C304 C 0.56545 0.10987 0.17317 0.0
H305 H 0.63571 0.2128 0.22985 0.0
H306 H 0.58429 0.19643 0.16092 0.0
C307 C 0.57414 0.06684 0.20226 0.0
C308 C 0.39789 0.5455 0.37232 0.0
C309 C 0.40674 0.59802 0.35183 0.0
H310 H 0.41687 0.49236 0.4263 0.0
C311 C 0.44241 0.6387 0.37145 0.0
H312 H 0.37062 0.51373 0.35772 0.0
C313 C 0.46877 0.62678 0.41067 0.0
C314 C 0.46034 0.57398 0.43096 0.0
H315 H 0.45003 0.67977 0.35653 0.0
H316 H 0.49592 0.65896 0.4249 0.0
C317 C 0.42452 0.53345 0.41138 0.0
C318 C 0.08446 0.47798 0.81711 0.0
C319 C 0.12823 0.46242 0.82528 0.0
H320 H 0.02831 0.51066 0.84663 0.0
C321 C 0.14922 0.46834 0.87008 0.0
H322 H 0.06796 0.47447 0.78252 0.0
C323 C 0.12625 0.48797 0.9069 0.0
C324 C 0.08261 0.50378 0.89896 0.0
H325 H 0.18319 0.45698 0.87669 0.0
H326 H 0.14283 0.49116 0.9415 0.0
C327 C 0.06214 0.49913 0.85357 0.0
C328 C 0.7079 0.9063 0.95312 0.0
C329 C 0.72619 0.91993 0.90595 0.0
H330 H 0.65837 0.91764 0.00805 0.0
C331 C 0.70884 0.95764 0.87739 0.0
H332 H 0.72109 0.87748 0.97554 0.0
C333 C 0.67336 0.98082 0.89579 0.0
C334 C 0.65448 0.9667 0.94296 0.0
H335 H 0.72251 0.96915 0.84083 0.0
H336 H 0.66039 0.00935 0.8728 0.0
C337 C 0.67225 0.92938 0.97157 0.0
C338 C 0.79296 0.11446 0.33804 0.0
C339 C 0.75648 0.11727 0.37214 0.0
H340 H 0.86212 0.0966 0.32456 0.0
C341 C 0.76332 0.10355 0.42058 0.0
H342 H 0.78956 0.12558 0.30056 0.0
C343 C 0.80541 0.08757 0.43447 0.0
C344 C 0.8417 0.08462 0.40029 0.0
H345 H 0.73582 0.10452 0.44785 0.0
H346 H 0.8092 0.07699 0.472 0.0
C347 C 0.83491 0.09826 0.3519 0.0
C348 C 0.25055 0.55911 0.17029 0.0
C349 C 0.25577 0.61429 0.17261 0.0
H350 H 0.20731 0.48534 0.14695 0.0
C351 C 0.21846 0.63679 0.15462 0.0
H352 H 0.27877 0.54062 0.18346 0.0
C353 C 0.17784 0.60535 0.13327 0.0
C354 C 0.17333 0.55051 0.12958 0.0
H355 H 0.22092 0.67902 0.1566 0.0
H356 H 0.1502 0.62423 0.11923 0.0
C357 C 0.20976 0.52755 0.149 0.0
C358 C 0.32045 0.45544 0.69878 0.0
C359 C 0.28834 0.43954 0.6616 0.0
H360 H 0.3932 0.49534 0.71783 0.0
C361 C 0.30671 0.45059 0.614 0.0
H362 H 0.30767 0.44677 0.73585 0.0
C363 C 0.35574 0.47751 0.60376 0.0
C364 C 0.38749 0.49457 0.64084 0.0
H365 H 0.28289 0.4397 0.58445 0.0
H366 H 0.36832 0.48622 0.56662 0.0
C367 C 0.36953 0.48286 0.68849 0.0
C368 C 0.91109 0.74868 0.84753 0.0
C369 C 0.895 0.78981 0.86785 0.0
H370 H 0.9427 0.68211 0.8591 0.0
C371 C 0.89994 0.79519 0.91729 0.0
H372 H 0.90714 0.74259 0.80984 0.0
C373 C 0.91947 0.75967 0.94576 0.0
C374 C 0.93531 0.71861 0.92531 0.0
H375 H 0.88897 0.82703 0.9341 0.0
H376 H 0.92222 0.76443 0.98378 0.0
C377 C 0.93138 0.71381 0.87584 0.0
C378 C 0.36043 0.8181 0.13644 0.0
C379 C 0.3891 0.78446 0.15455 0.0
H380 H 0.35972 0.8927 0.09887 0.0
C381 C 0.44043 0.80069 0.14705 0.0
H382 H 0.32081 0.80684 0.14203 0.0
C383 C 0.46271 0.84985 0.12261 0.0
C384 C 0.43415 0.88385 0.10504 0.0
H385 H 0.46343 0.77521 0.15987 0.0
H386 H 0.50239 0.8612 0.11764 0.0
C387 C 0.38274 0.86734 0.11191 0.0
C388 C 0.1489 0.3042 0.57419 0.0
C389 C 0.13778 0.30155 0.62361 0.0
H390 H 0.14502 0.26178 0.51088 0.0
C391 C 0.10895 0.25346 0.6461 0.0
H392 H 0.1705 0.34102 0.55573 0.0
C393 C 0.0943 0.20802 0.62038 0.0
C394 C 0.1081 0.2098 0.57161 0.0
H395 H 0.10002 0.25008 0.68413 0.0
H396 H 0.07384 0.17096 0.63929 0.0
C397 C 0.13423 0.25883 0.54846 0.0
C398 C 0.65254 0.30144 0.49914 0.0
C399 C 0.62933 0.2774 0.45965 0.0
H400 H 0.65504 0.35999 0.55 0.0
C401 C 0.58728 0.29203 0.4428 0.0
H402 H 0.68483 0.29059 0.51265 0.0
C403 C 0.57007 0.33147 0.46402 0.0
C404 C 0.59453 0.35721 0.50242 0.0
H405 H 0.56827 0.27396 0.4125 0.0
H406 H 0.53848 0.34285 0.44937 0.0
C407 C 0.63541 0.34106 0.52036 0.0
loop_
_geom_bond_atom_site_label_1
_geom_bond_atom_site_label_2
_geom_bond_distance
_geom_bond_site_symmetry_2
_ccdc_geom_bond_type
H0 C5 0.929 . S
H1 C10 0.931 . S
H2 C8 0.930 . S
N3 N4 1.234 . S
N3 C7 1.453 . S
N4 N3 1.234 . S
C5 H0 0.929 . S
C5 C6 1.373 . S
C5 C7 1.368 . S
C6 C5 1.373 . S
C6 C10 1.397 . S
C7 N3 1.453 . S
C7 C5 1.368 . S
C7 C8 1.373 . S
C8 H2 0.930 . S
C8 C7 1.373 . S
C8 C9 1.371 . S
C9 C8 1.371 . S
C9 C10 1.383 . S
C10 H1 0.931 . S
C10 C6 1.397 . S
C10 C9 1.383 . S
H11 C16 0.929 . S
H12 C21 0.931 . S
H13 C19 0.930 . S
N14 N15 1.234 . S
N14 C18 1.453 . S
N15 N14 1.234 . S
C16 H11 0.929 . S
C16 C17 1.373 . S
C16 C18 1.368 . S
C17 C16 1.373 . S
C17 C21 1.397 . S
C18 N14 1.453 . S
C18 C16 1.368 . S
C18 C19 1.373 . S
C19 H13 0.930 . S
C19 C18 1.373 . S
C19 C20 1.371 . S
C20 C19 1.371 . S
C20 C21 1.383 . S
C21 H12 0.931 . S
C21 C17 1.397 . S
C21 C20 1.383 . S
H22 C27 0.929 . S
H23 C32 0.931 . S
H24 C30 0.930 . S
N25 N26 1.234 . S
N25 C29 1.453 . S
N26 N25 1.234 . S
C27 H22 0.929 . S
C27 C28 1.373 . S
C27 C29 1.368 . S
C28 C27 1.373 . S
C28 C32 1.397 . S
C29 N25 1.453 . S
C29 C27 1.368 . S
C29 C30 1.373 . S
C30 H24 0.930 . S
C30 C29 1.373 . S
C30 C31 1.371 . S
C31 C30 1.371 . S
C31 C32 1.383 . S
C32 H23 0.931 . S
C32 C28 1.397 . S
C32 C31 1.383 . S
H33 C38 0.929 . S
H34 C43 0.931 . S
H35 C41 0.930 . S
N36 N37 1.234 . S
N36 C40 1.453 . S
N37 N36 1.234 . S
C38 H33 0.929 . S
C38 C39 1.373 . S
C38 C40 1.368 . S
C39 C38 1.373 . S
C39 C43 1.397 . S
C40 N36 1.453 . S
C40 C38 1.368 . S
C40 C41 1.373 . S
C41 H35 0.930 . S
C41 C40 1.373 . S
C41 C42 1.371 . S
C42 C41 1.371 . S
C42 C43 1.383 . S
C43 H34 0.931 . S
C43 C39 1.397 . S
C43 C42 1.383 . S
H44 C49 0.929 . S
H45 C54 0.931 . S
H46 C52 0.930 . S
N47 N48 1.234 . S
N47 C51 1.453 . S
N48 N47 1.234 . S
C49 H44 0.929 . S
C49 C50 1.373 . S
C49 C51 1.368 . S
C50 C49 1.373 . S
C50 C54 1.397 . S
C51 N47 1.453 . S
C51 C49 1.368 . S
C51 C52 1.373 . S
C52 H46 0.930 . S
C52 C51 1.373 . S
C52 C53 1.371 . S
C53 C52 1.371 . S
C53 C54 1.383 . S
C54 H45 0.931 . S
C54 C50 1.397 . S
C54 C53 1.383 . S
H55 C60 0.929 . S
H56 C65 0.931 . S
H57 C63 0.930 . S
N58 N59 1.234 . S
N58 C62 1.453 . S
N59 N58 1.234 . S
C60 H55 0.929 . S
C60 C61 1.373 . S
C60 C62 1.368 . S
C61 C60 1.373 . S
C61 C65 1.397 . S
C62 N58 1.453 . S
C62 C60 1.368 . S
C62 C63 1.373 . S
C63 H57 0.930 . S
C63 C62 1.373 . S
C63 C64 1.371 . S
C64 C63 1.371 . S
C64 C65 1.383 . S
C65 H56 0.931 . S
C65 C61 1.397 . S
C65 C64 1.383 . S
H66 C71 0.929 . S
H67 C76 0.931 . S
H68 C74 0.930 . S
N69 N70 1.234 . S
N69 C73 1.453 . S
N70 N69 1.234 . S
C71 H66 0.929 . S
C71 C72 1.373 . S
C71 C73 1.368 . S
C72 C71 1.373 . S
C72 C76 1.397 . S
C73 N69 1.453 . S
C73 C71 1.368 . S
C73 C74 1.373 . S
C74 H68 0.930 . S
C74 C73 1.373 . S
C74 C75 1.371 . S
C75 C74 1.371 . S
C75 C76 1.383 . S
C76 H67 0.931 . S
C76 C72 1.397 . S
C76 C75 1.383 . S
H77 C82 0.929 . S
H78 C87 0.931 . S
H79 C85 0.930 . S
N80 N81 1.234 . S
N80 C84 1.453 . S
N81 N80 1.234 . S
C82 H77 0.929 . S
C82 C83 1.373 . S
C82 C84 1.368 . S
C83 C82 1.373 . S
C83 C87 1.397 . S
C84 N80 1.453 . S
C84 C82 1.368 . S
C84 C85 1.373 . S
C85 H79 0.930 . S
C85 C84 1.373 . S
C85 C86 1.371 . S
C86 C85 1.371 . S
C86 C87 1.383 . S
C87 H78 0.931 . S
C87 C83 1.397 . S
C87 C86 1.383 . S
Zn88 O94 1.969 1_545 S
Zn88 O95 1.965 1_545 S
Zn88 O99 2.024 . S
Zn88 O104 1.969 . S
Zn89 O96 1.969 1_545 S
Zn89 O102 1.969 . S
Zn89 O103 1.965 1_655 S
Zn89 O105 2.024 1_545 S
C90 O91 1.229 . S
C90 O99 1.058 . S
O91 C90 1.229 . S
C92 O93 1.229 . S
C92 O105 1.058 . S
O93 C92 1.229 . S
O94 Zn88 1.969 1_565 S
O94 C97 1.267 . S
O95 Zn88 1.965 1_565 S
O95 C106 1.260 1_455 S
O96 Zn89 1.969 1_565 S
O96 C106 1.258 . S
C97 O94 1.267 . S
C97 O98 1.228 . S
O98 C97 1.228 . S
O99 Zn88 2.024 . S
O99 C90 1.058 . S
C100 O101 1.228 . S
C100 O102 1.267 . S
O101 C100 1.228 . S
O102 Zn89 1.969 . S
O102 C100 1.267 . S
O103 Zn89 1.965 1_455 S
O103 C107 1.260 . S
O104 Zn88 1.969 . S
O104 C107 1.258 . S
O105 Zn89 2.024 1_565 S
O105 C92 1.058 . S
C106 O95 1.260 1_655 S
C106 O96 1.258 . S
C107 O103 1.260 . S
C107 O104 1.258 . S
Zn108 O114 1.969 . S
Zn108 O115 1.965 1_566 S
Zn108 O119 2.024 . S
Zn108 O124 1.969 1_556 S
Zn109 O116 1.969 . S
Zn109 O122 1.969 . S
Zn109 O123 1.965 1_545 S
Zn109 O125 2.024 . S
C110 O111 1.229 . S
C110 O119 1.058 . S
O111 C110 1.229 . S
C112 O113 1.229 . S
C112 O125 1.058 . S
O113 C112 1.229 . S
O114 Zn108 1.969 . S
O114 C117 1.267 . S
O115 Zn108 1.965 1_544 S
O115 C126 1.260 . S
O116 Zn109 1.969 . S
O116 C126 1.258 . S
C117 O114 1.267 . S
C117 O118 1.228 . S
O118 C117 1.228 . S
O119 Zn108 2.024 . S
O119 C110 1.058 . S
C120 O121 1.228 . S
C120 O122 1.267 . S
O121 C120 1.228 . S
O122 Zn109 1.969 . S
O122 C120 1.267 . S
O123 Zn109 1.965 1_565 S
O123 C127 1.260 . S
O124 Zn108 1.969 1_554 S
O124 C127 1.258 . S
O125 Zn109 2.024 . S
O125 C112 1.058 . S
C126 O115 1.260 . S
C126 O116 1.258 . S
C127 O123 1.260 . S
C127 O124 1.258 . S
Zn128 O134 1.969 . S
Zn128 O135 1.965 . S
Zn128 O139 2.024 . S
Zn128 O144 1.969 . S
Zn129 O136 1.969 . S
Zn129 O142 1.969 . S
Zn129 O143 1.965 . S
Zn129 O145 2.024 . S
C130 O131 1.229 . S
C130 O139 1.058 . S
O131 C130 1.229 . S
C132 O133 1.229 . S
C132 O145 1.058 . S
O133 C132 1.229 . S
O134 Zn128 1.969 . S
O134 C137 1.267 . S
O135 Zn128 1.965 . S
O135 C146 1.260 . S
O136 Zn129 1.969 . S
O136 C146 1.258 . S
C137 O134 1.267 . S
C137 O138 1.228 . S
O138 C137 1.228 . S
O139 Zn128 2.024 . S
O139 C130 1.058 . S
C140 O141 1.228 . S
C140 O142 1.267 . S
O141 C140 1.228 . S
O142 Zn129 1.969 . S
O142 C140 1.267 . S
O143 Zn129 1.965 . S
O143 C147 1.260 . S
O144 Zn128 1.969 . S
O144 C147 1.258 . S
O145 Zn129 2.024 . S
O145 C132 1.058 . S
C146 O135 1.260 . S
C146 O136 1.258 . S
C147 O143 1.260 . S
C147 O144 1.258 . S
Zn148 O154 1.969 . S
Zn148 O155 1.965 1_556 S
Zn148 O159 2.024 . S
Zn148 O164 1.969 1_655 S
Zn149 O156 1.969 . S
Zn149 O162 1.969 . S
Zn149 O163 1.965 1_554 S
Zn149 O165 2.024 . S
C150 O151 1.229 . S
C150 O159 1.058 . S
O151 C150 1.229 . S
C152 O153 1.229 . S
C152 O165 1.058 . S
O153 C152 1.229 . S
O154 Zn148 1.969 . S
O154 C157 1.267 . S
O155 Zn148 1.965 1_554 S
O155 C166 1.260 . S
O156 Zn149 1.969 . S
O156 C166 1.258 1_455 S
C157 O154 1.267 . S
C157 O158 1.228 . S
O158 C157 1.228 . S
O159 Zn148 2.024 . S
O159 C150 1.058 . S
C160 O161 1.228 . S
C160 O162 1.267 . S
O161 C160 1.228 . S
O162 Zn149 1.969 . S
O162 C160 1.267 . S
O163 Zn149 1.965 1_556 S
O163 C167 1.260 . S
O164 Zn148 1.969 1_455 S
O164 C167 1.258 . S
O165 Zn149 2.024 . S
O165 C152 1.058 . S
C166 O155 1.260 . S
C166 O156 1.258 1_655 S
C167 O163 1.260 . S
C167 O164 1.258 . S
C168 C169 1.387 . S
C168 H172 0.950 . S
C168 C177 1.390 . S
C169 C168 1.387 . S
C169 C171 1.387 . S
H170 C177 0.950 . S
C171 C169 1.387 . S
C171 C173 1.390 . S
C171 H175 0.950 . S
H172 C168 0.950 . S
C173 C171 1.390 . S
C173 C174 1.387 . S
C173 H176 0.950 . S
C174 C173 1.387 . S
C174 C177 1.387 . S
H175 C171 0.950 . S
H176 C173 0.950 . S
C177 C168 1.390 . S
C177 H170 0.950 . S
C177 C174 1.387 . S
C178 C179 1.387 . S
C178 H182 0.950 . S
C178 C187 1.390 . S
C179 C178 1.387 . S
C179 C181 1.387 . S
H180 C187 0.952 1_545 S
C181 C179 1.387 . S
C181 C183 1.390 . S
C181 H185 0.950 . S
H182 C178 0.950 . S
C183 C181 1.390 . S
C183 C184 1.387 . S
C183 H186 0.950 . S
C184 C183 1.387 . S
C184 C187 1.387 . S
H185 C181 0.950 . S
H186 C183 0.950 . S
C187 C178 1.390 . S
C187 H180 0.952 1_565 S
C187 C184 1.387 . S
C188 C189 1.387 . S
C188 H192 0.950 . S
C188 C197 1.390 . S
C189 C188 1.387 . S
C189 C191 1.387 . S
H190 C197 0.950 . S
C191 C189 1.387 . S
C191 C193 1.390 . S
C191 H195 0.950 . S
H192 C188 0.950 . S
C193 C191 1.390 . S
C193 C194 1.387 . S
C193 H196 0.950 . S
C194 C193 1.387 . S
C194 C197 1.387 . S
H195 C191 0.950 . S
H196 C193 0.950 . S
C197 C188 1.390 . S
C197 H190 0.950 . S
C197 C194 1.387 . S
C198 C199 1.387 . S
C198 H202 0.950 . S
C198 C207 1.390 . S
C199 C198 1.387 . S
C199 C201 1.387 . S
H200 C207 0.950 . S
C201 C199 1.387 . S
C201 C203 1.390 . S
C201 H205 0.950 . S
H202 C198 0.950 . S
C203 C201 1.390 . S
C203 C204 1.387 . S
C203 H206 0.950 . S
C204 C203 1.387 . S
C204 C207 1.387 . S
H205 C201 0.950 . S
H206 C203 0.950 . S
C207 C198 1.390 . S
C207 H200 0.950 . S
C207 C204 1.387 . S
C208 C209 1.387 . S
C208 H212 0.950 . S
C208 C217 1.390 . S
C209 C208 1.387 . S
C209 C211 1.387 . S
H210 C217 0.950 . S
C211 C209 1.387 . S
C211 C213 1.390 . S
C211 H215 0.950 . S
H212 C208 0.950 . S
C213 C211 1.390 . S
C213 C214 1.387 . S
C213 H216 0.950 . S
C214 C213 1.387 . S
C214 C217 1.387 . S
H215 C211 0.950 . S
H216 C213 0.950 . S
C217 C208 1.390 . S
C217 H210 0.950 . S
C217 C214 1.387 . S
C218 C219 1.387 . S
C218 H222 0.950 . S
C218 C227 1.390 . S
C219 C218 1.387 . S
C219 C221 1.387 . S
H220 C227 0.950 . S
C221 C219 1.387 . S
C221 C223 1.390 . S
C221 H225 0.950 . S
H222 C218 0.950 . S
C223 C221 1.390 . S
C223 C224 1.387 . S
C223 H226 0.968 . S
C224 C223 1.387 . S
C224 C227 1.387 . S
H225 C221 0.950 . S
H226 C223 0.968 . S
C227 C218 1.390 . S
C227 H220 0.950 . S
C227 C224 1.387 . S
C228 C229 1.387 . S
C228 H232 0.950 . S
C228 C237 1.390 . S
C229 C228 1.387 . S
C229 C231 1.387 . S
H230 C237 0.950 . S
C231 C229 1.387 . S
C231 C233 1.390 . S
C231 H235 0.950 . S
H232 C228 0.950 . S
C233 C231 1.390 . S
C233 C234 1.387 . S
C233 H236 0.950 . S
C234 C233 1.387 . S
C234 C237 1.387 . S
H235 C231 0.950 . S
H236 C233 0.950 . S
C237 C228 1.390 . S
C237 H230 0.950 . S
C237 C234 1.387 . S
C238 C239 1.387 . S
C238 H242 0.950 . S
C238 C247 1.390 . S
C239 C238 1.387 . S
C239 C241 1.387 . S
H240 C247 0.950 . S
C241 C239 1.387 . S
C241 C243 1.390 . S
C241 H245 0.950 . S
H242 C238 0.950 . S
C243 C241 1.390 . S
C243 C244 1.387 . S
C243 H246 0.950 . S
C244 C243 1.387 . S
C244 C247 1.387 . S
H245 C241 0.950 . S
H246 C243 0.950 . S
C247 C238 1.390 . S
C247 H240 0.950 . S
C247 C244 1.387 . S
C248 C249 1.387 . S
C248 H252 0.950 . S
C248 C257 1.390 . S
C249 C248 1.387 . S
C249 C251 1.387 . S
H250 C257 0.950 . S
C251 C249 1.387 . S
C251 C253 1.390 . S
C251 H255 0.950 . S
H252 C248 0.950 . S
C253 C251 1.390 . S
C253 C254 1.387 . S
C253 H256 0.950 . S
C254 C253 1.387 . S
C254 C257 1.387 . S
H255 C251 0.950 . S
H256 C253 0.950 . S
C257 C248 1.390 . S
C257 H250 0.950 . S
C257 C254 1.387 . S
C258 C259 1.387 . S
C258 H262 0.950 . S
C258 C267 1.390 . S
C259 C258 1.387 . S
C259 C261 1.387 . S
H260 C267 0.950 . S
C261 C259 1.387 . S
C261 C263 1.390 . S
C261 H265 0.950 . S
H262 C258 0.950 . S
C263 C261 1.390 . S
C263 C264 1.387 . S
C263 H266 0.950 1_556 S
C264 C263 1.387 . S
C264 C267 1.387 . S
H265 C261 0.950 . S
H266 C263 0.950 1_554 S
C267 C258 1.390 . S
C267 H260 0.950 . S
C267 C264 1.387 . S
C268 C269 1.387 . S
C268 H272 0.950 . S
C268 C277 1.390 . S
C269 C268 1.387 . S
C269 C271 1.387 . S
H270 C277 0.950 . S
C271 C269 1.387 . S
C271 C273 1.390 . S
C271 H275 0.950 . S
H272 C268 0.950 . S
C273 C271 1.390 . S
C273 C274 1.387 . S
C273 H276 0.950 . S
C274 C273 1.387 . S
C274 C277 1.387 . S
H275 C271 0.950 . S
H276 C273 0.950 . S
C277 C268 1.390 . S
C277 H270 0.950 . S
C277 C274 1.387 . S
C278 C279 1.387 . S
C278 H282 0.950 . S
C278 C287 1.390 . S
C279 C278 1.387 . S
C279 C281 1.387 . S
H280 C287 0.950 . S
C281 C279 1.387 . S
C281 C283 1.390 . S
C281 H285 0.950 . S
H282 C278 0.950 . S
C283 C281 1.390 . S
C283 C284 1.387 . S
C283 H286 0.950 . S
C284 C283 1.387 . S
C284 C287 1.387 . S
H285 C281 0.950 . S
H286 C283 0.950 . S
C287 C278 1.390 . S
C287 H280 0.950 . S
C287 C284 1.387 . S
C288 C289 1.387 . S
C288 H292 0.950 . S
C288 C297 1.390 . S
C289 C288 1.387 . S
C289 C291 1.387 . S
H290 C297 0.950 . S
C291 C289 1.387 . S
C291 C293 1.390 . S
C291 H295 0.950 . S
H292 C288 0.950 . S
C293 C291 1.390 . S
C293 C294 1.387 . S
C293 H296 0.950 . S
C294 C293 1.387 . S
C294 C297 1.387 . S
H295 C291 0.950 . S
H296 C293 0.950 . S
C297 C288 1.390 . S
C297 H290 0.950 . S
C297 C294 1.387 . S
C298 C299 1.387 . S
C298 H302 0.950 . S
C298 C307 1.390 . S
C299 C298 1.387 . S
C299 C301 1.387 . S
H300 C307 0.950 . S
C301 C299 1.387 . S
C301 C303 1.390 . S
C301 H305 0.950 . S
H302 C298 0.950 . S
C303 C301 1.390 . S
C303 C304 1.387 . S
C303 H306 0.950 . S
C304 C303 1.387 . S
C304 C307 1.387 . S
H305 C301 0.950 . S
H306 C303 0.950 . S
C307 C298 1.390 . S
C307 H300 0.950 . S
C307 C304 1.387 . S
C308 C309 1.387 . S
C308 H312 0.950 . S
C308 C317 1.390 . S
C309 C308 1.387 . S
C309 C311 1.387 . S
H310 C317 0.950 . S
C311 C309 1.387 . S
C311 C313 1.390 . S
C311 H315 0.950 . S
H312 C308 0.950 . S
C313 C311 1.390 . S
C313 C314 1.387 . S
C313 H316 0.950 . S
C314 C313 1.387 . S
C314 C317 1.387 . S
H315 C311 0.950 . S
H316 C313 0.950 . S
C317 C308 1.390 . S
C317 H310 0.950 . S
C317 C314 1.387 . S
C318 C319 1.387 . S
C318 H322 0.950 . S
C318 C327 1.390 . S
C319 C318 1.387 . S
C319 C321 1.387 . S
H320 C327 0.950 . S
C321 C319 1.387 . S
C321 C323 1.390 . S
C321 H325 0.950 . S
H322 C318 0.950 . S
C323 C321 1.390 . S
C323 C324 1.387 . S
C323 H326 0.950 . S
C324 C323 1.387 . S
C324 C327 1.387 . S
H325 C321 0.950 . S
H326 C323 0.950 . S
C327 C318 1.390 . S
C327 H320 0.950 . S
C327 C324 1.387 . S
C328 C329 1.387 . S
C328 H332 0.950 . S
C328 C337 1.390 . S
C329 C328 1.387 . S
C329 C331 1.387 . S
H330 C337 0.950 . S
C331 C329 1.387 . S
C331 C333 1.390 . S
C331 H335 0.950 . S
H332 C328 0.950 . S
C333 C331 1.390 . S
C333 C334 1.387 . S
C333 H336 0.950 . S
C334 C333 1.387 . S
C334 C337 1.387 . S
H335 C331 0.950 . S
H336 C333 0.950 . S
C337 C328 1.390 . S
C337 H330 0.950 . S
C337 C334 1.387 . S
C338 C339 1.387 . S
C338 H342 0.950 . S
C338 C347 1.390 . S
C339 C338 1.387 . S
C339 C341 1.387 . S
H340 C347 0.950 . S
C341 C339 1.387 . S
C341 C343 1.390 . S
C341 H345 0.950 . S
H342 C338 0.950 . S
C343 C341 1.390 . S
C343 C344 1.387 . S
C343 H346 0.950 . S
C344 C343 1.387 . S
C344 C347 1.387 . S
H345 C341 0.950 . S
H346 C343 0.950 . S
C347 C338 1.390 . S
C347 H340 0.950 . S
C347 C344 1.387 . S
C348 C349 1.387 . S
C348 H352 0.950 . S
C348 C357 1.390 . S
C349 C348 1.387 . S
C349 C351 1.387 . S
H350 C357 0.950 . S
C351 C349 1.387 . S
C351 C353 1.390 . S
C351 H355 0.950 . S
H352 C348 0.950 . S
C353 C351 1.390 . S
C353 C354 1.387 . S
C353 H356 0.950 . S
C354 C353 1.387 . S
C354 C357 1.387 . S
H355 C351 0.950 . S
H356 C353 0.950 . S
C357 C348 1.390 . S
C357 H350 0.950 . S
C357 C354 1.387 . S
C358 C359 1.387 . S
C358 H362 0.950 . S
C358 C367 1.390 . S
C359 C358 1.387 . S
C359 C361 1.387 . S
H360 C367 0.950 . S
C361 C359 1.387 . S
C361 C363 1.390 . S
C361 H365 0.950 . S
H362 C358 0.950 . S
C363 C361 1.390 . S
C363 C364 1.387 . S
C363 H366 0.950 . S
C364 C363 1.387 . S
C364 C367 1.387 . S
H365 C361 0.950 . S
H366 C363 0.950 . S
C367 C358 1.390 . S
C367 H360 0.950 . S
C367 C364 1.387 . S
C368 C369 1.387 . S
C368 H372 0.950 . S
C368 C377 1.390 . S
C369 C368 1.387 . S
C369 C371 1.387 . S
H370 C377 0.950 . S
C371 C369 1.387 . S
C371 C373 1.390 . S
C371 H375 0.950 . S
H372 C368 0.950 . S
C373 C371 1.390 . S
C373 C374 1.387 . S
C373 H376 0.950 . S
C374 C373 1.387 . S
C374 C377 1.387 . S
H375 C371 0.950 . S
H376 C373 0.950 . S
C377 C368 1.390 . S
C377 H370 0.950 . S
C377 C374 1.387 . S
C378 C379 1.387 . S
C378 H382 0.950 . S
C378 C387 1.390 . S
C379 C378 1.387 . S
C379 C381 1.387 . S
H380 C387 0.950 . S
C381 C379 1.387 . S
C381 C383 1.390 . S
C381 H385 0.950 . S
H382 C378 0.950 . S
C383 C381 1.390 . S
C383 C384 1.387 . S
C383 H386 0.950 . S
C384 C383 1.387 . S
C384 C387 1.387 . S
H385 C381 0.950 . S
H386 C383 0.950 . S
C387 C378 1.390 . S
C387 H380 0.950 . S
C387 C384 1.387 . S
C388 C389 1.387 . S
C388 H392 0.950 . S
C388 C397 1.390 . S
C389 C388 1.387 . S
C389 C391 1.387 . S
H390 C397 0.950 . S
C391 C389 1.387 . S
C391 C393 1.390 . S
C391 H395 0.950 . S
H392 C388 0.950 . S
C393 C391 1.390 . S
C393 C394 1.387 . S
C393 H396 0.950 . S
C394 C393 1.387 . S
C394 C397 1.387 . S
H395 C391 0.950 . S
H396 C393 0.950 . S
C397 C388 1.390 . S
C397 H390 0.950 . S
C397 C394 1.387 . S
C398 C399 1.387 . S
C398 H402 0.950 . S
C398 C407 1.390 . S
C399 C398 1.387 . S
C399 C401 1.387 . S
H400 C407 0.950 . S
C401 C399 1.387 . S
C401 C403 1.390 . S
C401 H405 0.950 . S
H402 C398 0.950 . S
C403 C401 1.390 . S
C403 C404 1.387 . S
C403 H406 0.950 . S
C404 C403 1.387 . S
C404 C407 1.387 . S
H405 C401 0.950 . S
H406 C403 0.950 . S
C407 C398 1.390 . S
C407 H400 0.950 . S
C407 C404 1.387 . S
C169 C6 1.585 . S
C174 C107 1.586 . S
C179 C20 1.444 . S
C184 C110 1.398 . S
C194 C146 1.472 . S
C189 N26 1.496 . S
C199 N37 1.595 . S
C204 C166 1.595 . S
C214 C120 1.933 . S
C209 C9 1.946 . S
C224 C97 1.270 . S
C219 N15 1.300 . S
C234 C150 1.500 . S
C229 C31 1.567 . S
C244 C130 1.307 . S
C239 C39 1.420 . S
C249 N4 1.403 . S
C254 C160 1.317 . S
C264 C126 1.767 1_556 S
C259 C28 1.797 . S
C269 C42 1.479 . S
C274 C92 1.455 . S
C279 C17 1.442 . S
C284 C140 1.390 . S
C294 C106 1.623 . S
C289 C50 1.625 . S
C299 C61 1.313 . S
C304 C112 1.285 . S
C309 N70 1.766 . S
C314 C147 1.751 . S
C319 N81 1.492 . S
C324 C167 1.468 . S
C329 N48 1.509 . S
C334 C117 1.475 . S
C344 C100 1.816 . S
C339 C64 1.801 . S
C354 C152 1.462 . S
C349 C75 1.613 . S
C364 C132 1.325 . S
C359 C86 1.355 . S
C369 C53 1.591 . S
C374 C157 1.500 . S
C384 C127 1.467 . S
C379 C72 1.480 . S
C394 C90 1.667 . S
C389 C83 1.712 . S
C399 N59 1.325 . S
C404 C137 1.274 . S
