# Generated by pormake.
# Topology pyr, (3,6)-cn, num edge types: 1
# Building blocks:
#     Node 0, Type 0, BuildingBlock: QEWDON_clean_linker_0, # of connection points: 3
#     Node 1, Type 0, BuildingBlock: QEWDON_clean_linker_0, # of connection points: 3
#     Node 2, Type 0, BuildingBlock: QEWDON_clean_linker_0, # of connection points: 3
#     Node 3, Type 0, BuildingBlock: QEWDON_clean_linker_0, # of connection points: 3
#     Node 4, Type 0, BuildingBlock: QEWDON_clean_linker_0, # of connection points: 3
#     Node 5, Type 0, BuildingBlock: QEWDON_clean_linker_0, # of connection points: 3
#     Node 6, Type 0, BuildingBlock: QEWDON_clean_linker_0, # of connection points: 3
#     Node 7, Type 0, BuildingBlock: QEWDON_clean_linker_0, # of connection points: 3
#     Node 8, Type 1, BuildingBlock: BETDEL_clean_sbu_0, # of connection points: 6
#     Node 9, Type 1, BuildingBlock: BETDEL_clean_sbu_0, # of connection points: 6
#     Node 10, Type 1, BuildingBlock: BETDEL_clean_sbu_0, # of connection points: 6
#     Node 11, Type 1, BuildingBlock: BETDEL_clean_sbu_0, # of connection points: 6
#     Edge 12, Type (0, 1), BuildingBlock: AJUNOK_clean_linker_0, # of connection points: 2
#     Edge 13, Type (0, 1), BuildingBlock: AJUNOK_clean_linker_0, # of connection points: 2
#     Edge 14, Type (0, 1), BuildingBlock: AJUNOK_clean_linker_0, # of connection points: 2
#     Edge 15, Type (0, 1), BuildingBlock: AJUNOK_clean_linker_0, # of connection points: 2
#     Edge 16, Type (0, 1), BuildingBlock: AJUNOK_clean_linker_0, # of connection points: 2
#     Edge 17, Type (0, 1), BuildingBlock: AJUNOK_clean_linker_0, # of connection points: 2
#     Edge 18, Type (0, 1), BuildingBlock: AJUNOK_clean_linker_0, # of connection points: 2
#     Edge 19, Type (0, 1), BuildingBlock: AJUNOK_clean_linker_0, # of connection points: 2
#     Edge 20, Type (0, 1), BuildingBlock: AJUNOK_clean_linker_0, # of connection points: 2
#     Edge 21, Type (0, 1), BuildingBlock: AJUNOK_clean_linker_0, # of connection points: 2
#     Edge 22, Type (0, 1), BuildingBlock: AJUNOK_clean_linker_0, # of connection points: 2
#     Edge 23, Type (0, 1), BuildingBlock: AJUNOK_clean_linker_0, # of connection points: 2
#     Edge 24, Type (0, 1), BuildingBlock: AJUNOK_clean_linker_0, # of connection points: 2
#     Edge 25, Type (0, 1), BuildingBlock: AJUNOK_clean_linker_0, # of connection points: 2
#     Edge 26, Type (0, 1), BuildingBlock: AJUNOK_clean_linker_0, # of connection points: 2
#     Edge 27, Type (0, 1), BuildingBlock: AJUNOK_clean_linker_0, # of connection points: 2
#     Edge 28, Type (0, 1), BuildingBlock: AJUNOK_clean_linker_0, # of connection points: 2
#     Edge 29, Type (0, 1), BuildingBlock: AJUNOK_clean_linker_0, # of connection points: 2
#     Edge 30, Type (0, 1), BuildingBlock: AJUNOK_clean_linker_0, # of connection points: 2
#     Edge 31, Type (0, 1), BuildingBlock: AJUNOK_clean_linker_0, # of connection points: 2
#     Edge 32, Type (0, 1), BuildingBlock: AJUNOK_clean_linker_0, # of connection points: 2
#     Edge 33, Type (0, 1), BuildingBlock: AJUNOK_clean_linker_0, # of connection points: 2
#     Edge 34, Type (0, 1), BuildingBlock: AJUNOK_clean_linker_0, # of connection points: 2
#     Edge 35, Type (0, 1), BuildingBlock: AJUNOK_clean_linker_0, # of connection points: 2
# Relax obj value: 0.127
# Max RMSD: 0.260
# Mean RMSD: 0.188
data_MOF--net-pyr--node1-BETDEL_clean_sbu_0--node2-QEWDON_clean_linker_0--edge1-AJUNOK_clean_linker_0
_symmetry_space_group_name_H-M    P1
_symmetry_Int_Tables_number       1
_symmetry_cell_setting            triclinic
loop_
_symmetry_equiv_pos_as_xyz
'x, y, z'
_cell_length_a     26.902363
_cell_length_b     28.561056
_cell_length_c     28.02095
_cell_angle_alpha  91.592429
_cell_angle_beta   90.075792
_cell_angle_gamma 105.73601
loop_
_atom_site_label
_atom_site_type_symbol
_atom_site_fract_x
_atom_site_fract_y
_atom_site_fract_z
_atom_type_partial_charge
H0 H 0.32593 0.2483 0.15162 0.0
C1 C 0.30089 0.23429 0.18124 0.0
C2 C 0.30252 0.19019 0.20094 0.0
C3 C 0.26747 0.26048 0.19946 0.0
H4 H 0.27255 0.13872 0.25561 0.0
C5 C 0.27039 0.17214 0.23935 0.0
C6 C 0.23703 0.19805 0.25823 0.0
C7 C 0.23493 0.24172 0.2376 0.0
C8 C 0.26928 0.30877 0.18036 0.0
H9 H 0.21015 0.26234 0.25295 0.0
C10 C 0.22361 0.32163 0.16975 0.0
C11 C 0.22615 0.36694 0.15004 0.0
C12 C 0.31732 0.34221 0.1721 0.0
H13 H 0.35305 0.3336 0.18072 0.0
C14 C 0.31983 0.38731 0.153 0.0
H15 H 0.18634 0.296 0.1754 0.0
C16 C 0.27459 0.39958 0.14178 0.0
H17 H 0.27738 0.43482 0.12694 0.0
H18 H 0.35698 0.4128 0.14681 0.0
H19 H 0.27191 0.89388 0.80596 0.0
C20 C 0.29129 0.8702 0.78728 0.0
C21 C 0.33737 0.86364 0.8059 0.0
C22 C 0.26966 0.84622 0.74466 0.0
H23 H 0.39713 0.82693 0.7951 0.0
C24 C 0.36186 0.83282 0.78091 0.0
C25 C 0.34103 0.80905 0.7379 0.0
C26 C 0.29487 0.816 0.71974 0.0
C27 C 0.21764 0.84853 0.72997 0.0
H28 H 0.27771 0.79665 0.68734 0.0
C29 C 0.21066 0.88376 0.69834 0.0
C30 C 0.16063 0.88815 0.68893 0.0
C31 C 0.17445 0.81738 0.75128 0.0
H32 H 0.17922 0.79039 0.77602 0.0
C33 C 0.12493 0.82146 0.74165 0.0
H34 H 0.2439 0.90833 0.6822 0.0
C35 C 0.11801 0.85685 0.71095 0.0
H36 H 0.07928 0.85969 0.70414 0.0
H37 H 0.09184 0.79745 0.75843 0.0
H38 H 0.68046 0.45882 0.94301 0.0
C39 C 0.668 0.4214 0.95404 0.0
C40 C 0.70151 0.40203 0.98119 0.0
C41 C 0.61795 0.39302 0.94205 0.0
H42 H 0.71041 0.33793 0.01582 0.0
C43 C 0.68492 0.35331 0.99514 0.0
C44 C 0.63588 0.324 0.98198 0.0
C45 C 0.60251 0.34419 0.95584 0.0
C46 C 0.58022 0.41489 0.91841 0.0
H47 H 0.56422 0.3217 0.94628 0.0
C48 C 0.5931 0.44411 0.87784 0.0
C49 C 0.55633 0.4647 0.85694 0.0
C50 C 0.53037 0.40673 0.93748 0.0
H51 H 0.51954 0.38509 0.96887 0.0
C52 C 0.49407 0.42682 0.91681 0.0
H53 H 0.63124 0.45055 0.86252 0.0
C54 C 0.50678 0.45542 0.87684 0.0
H55 H 0.47744 0.46979 0.86096 0.0
H56 H 0.45579 0.42007 0.93178 0.0
H57 H 0.88513 0.79391 0.36604 0.0
C58 C 0.8595 0.77313 0.39234 0.0
C59 C 0.85897 0.7922 0.43917 0.0
C60 C 0.82382 0.72925 0.37804 0.0
H61 H 0.82085 0.78148 0.5073 0.0
C62 C 0.82259 0.76617 0.47175 0.0
C63 C 0.78635 0.72235 0.45802 0.0
C64 C 0.78775 0.70401 0.41101 0.0
C65 C 0.81799 0.71408 0.3269 0.0
H66 H 0.75937 0.67089 0.3993 0.0
C67 C 0.85419 0.69429 0.30315 0.0
C68 C 0.84618 0.679 0.25477 0.0
C69 C 0.7746 0.71903 0.30175 0.0
H70 H 0.74639 0.73418 0.3194 0.0
C71 C 0.76726 0.70467 0.2537 0.0
H72 H 0.88744 0.6897 0.32239 0.0
C73 C 0.8027 0.68458 0.23034 0.0
H74 H 0.7959 0.6728 0.19323 0.0
H75 H 0.7337 0.70867 0.23463 0.0
H76 H 0.82559 0.8196 0.95279 0.0
C77 C 0.84818 0.84439 0.92731 0.0
C78 C 0.89941 0.84437 0.91804 0.0
C79 C 0.82474 0.8739 0.90151 0.0
H80 H 0.9664 0.87412 0.87474 0.0
C81 C 0.92712 0.87461 0.88277 0.0
C82 C 0.90392 0.90488 0.8573 0.0
C83 C 0.85258 0.90423 0.86685 0.0
C84 C 0.76953 0.86933 0.90728 0.0
H85 H 0.83349 0.92578 0.84592 0.0
C86 C 0.75247 0.89592 0.94345 0.0
C87 C 0.69949 0.89111 0.94882 0.0
C88 C 0.73378 0.8381 0.87627 0.0
H89 H 0.7467 0.81746 0.84817 0.0
C90 C 0.68113 0.83336 0.88138 0.0
H91 H 0.78025 0.92009 0.96733 0.0
C92 C 0.66397 0.85977 0.91736 0.0
H93 H 0.62297 0.85628 0.92016 0.0
H94 H 0.65358 0.8094 0.85728 0.0
H95 H 0.81399 0.21762 0.50488 0.0
C96 C 0.80059 0.21198 0.46809 0.0
C97 C 0.82221 0.18367 0.43715 0.0
C98 C 0.75991 0.23034 0.45334 0.0
H99 H 0.82127 0.1538 0.36567 0.0
C100 C 0.80507 0.17631 0.38938 0.0
C101 C 0.76482 0.19542 0.37317 0.0
C102 C 0.7425 0.22224 0.40579 0.0
C103 C 0.73219 0.25278 0.48945 0.0
H104 H 0.70906 0.23388 0.39527 0.0
C105 C 0.71687 0.2952 0.48018 0.0
C106 C 0.69272 0.31648 0.51607 0.0
C107 C 0.72117 0.2313 0.53425 0.0
H108 H 0.73108 0.19798 0.54207 0.0
C109 C 0.69691 0.25222 0.56949 0.0
H110 H 0.72486 0.31225 0.44593 0.0
C111 C 0.68309 0.29473 0.56065 0.0
H112 H 0.66429 0.3105 0.58855 0.0
H113 H 0.68882 0.23542 0.6038 0.0
H114 H 0.44669 0.77568 0.22771 0.0
C115 C 0.40665 0.76296 0.21626 0.0
C116 C 0.38285 0.79488 0.19374 0.0
C117 C 0.3799 0.7137 0.22062 0.0
H118 H 0.31258 0.80252 0.1619 0.0
C119 C 0.33137 0.77756 0.17779 0.0
C120 C 0.30451 0.7283 0.18151 0.0
C121 C 0.3292 0.69683 0.2031 0.0
C122 C 0.40606 0.67757 0.23687 0.0
H123 H 0.30961 0.65835 0.20477 0.0
C124 C 0.42159 0.6763 0.2848 0.0
C125 C 0.44182 0.63829 0.29972 0.0
C126 C 0.41143 0.64118 0.20413 0.0
H127 H 0.39946 0.64146 0.16721 0.0
C128 C 0.43111 0.60358 0.21878 0.0
H129 H 0.41724 0.70413 0.31028 0.0
C130 C 0.44567 0.60178 0.26623 0.0
H131 H 0.4595 0.57133 0.27689 0.0
H132 H 0.4344 0.57532 0.19341 0.0
H133 H 0.26331 0.465 0.75991 0.0
C134 C 0.2417 0.43225 0.74088 0.0
C135 C 0.25671 0.42094 0.69473 0.0
C136 C 0.20067 0.39986 0.76388 0.0
H137 H 0.24085 0.36747 0.6366 0.0
C138 C 0.22846 0.37758 0.67125 0.0
C139 C 0.18686 0.34515 0.69356 0.0
C140 C 0.17292 0.35698 0.73977 0.0
C141 C 0.19326 0.40536 0.81583 0.0
H142 H 0.14158 0.33194 0.75792 0.0
C143 C 0.16682 0.43784 0.83507 0.0
C144 C 0.15796 0.43937 0.88466 0.0
C145 C 0.21181 0.37573 0.84649 0.0
H146 H 0.23221 0.35057 0.83229 0.0
C147 C 0.20405 0.37807 0.89556 0.0
H148 H 0.15188 0.46045 0.81161 0.0
C149 C 0.17709 0.40947 0.91458 0.0
H150 H 0.17093 0.41035 0.95278 0.0
H151 H 0.21853 0.35509 0.9189 0.0
Dy152 Dy 0.07061 0.08401 0.50669 0.0
C153 C 0.98464 1.0085 0.68768 0.0
C154 C 0.12241 0.12705 0.42895 0.0
Dy155 Dy 1.00946 0.05089 0.60212 0.0
O156 O 0.07259 0.10845 0.43059 0.0
O157 O 0.1432 0.12246 0.46975 0.0
O158 O 0.11093 0.02529 0.51629 0.0
O159 O 0.08726 0.05863 0.57614 0.0
C160 C 0.10678 0.02521 0.56242 0.0
C161 C 0.95317 0.09159 0.54434 0.0
O162 O 0.06447 0.12087 0.62626 0.0
O163 O 0.08857 0.15358 0.5518 0.0
O164 O 0.98398 0.05266 0.67819 0.0
O165 O 0.99832 0.98738 0.65016 0.0
O166 O 0.93762 0.07419 0.58583 0.0
O167 O 0.99743 0.0859 0.53721 0.0
O168 O 0.01164 0.01659 0.48014 0.0
O169 O 0.98441 0.98436 0.55464 0.0
C170 C 0.08744 0.1577 0.59921 0.0
C171 C 0.9856 0.98095 0.50738 0.0
Dy172 Dy 0.56968 0.0802 0.13604 0.0
C173 C 0.43634 0.97177 0.97586 0.0
C174 C 0.64639 0.12813 0.19823 0.0
Dy175 Dy 0.49087 0.03102 0.04682 0.0
O176 O 0.63895 0.08383 0.18178 0.0
O177 O 0.61242 0.14744 0.17935 0.0
O178 O 0.53591 0.01904 0.18726 0.0
O179 O 0.50968 0.01539 0.11834 0.0
C180 C 0.50409 0.99222 0.15615 0.0
C181 C 0.55243 0.12059 0.02632 0.0
O182 O 0.43979 0.06121 0.09443 0.0
O183 O 0.50268 0.11254 0.1455 0.0
O184 O 0.41529 0.9874 1.01291 0.0
O185 O 0.48625 0.98777 0.97872 0.0
O186 O 0.51674 0.09448 0.99815 0.0
O187 O 0.55231 0.09679 0.06348 0.0
O188 O 0.61744 0.04853 0.08527 0.0
O189 O 0.54863 0.98865 0.05184 0.0
C190 C 0.45444 0.0959 0.12846 0.0
C191 C 0.59836 1.00651 0.06167 0.0
Dy192 Dy 0.544 0.5335 0.56124 0.0
C193 C 0.45284 0.68279 0.6467 0.0
C194 C 0.60302 0.47725 0.52513 0.0
Dy195 Dy 0.51006 0.62548 0.60779 0.0
O196 O 0.55552 0.47365 0.51222 0.0
O197 O 0.61828 0.5123 0.55704 0.0
O198 O 0.46894 0.47632 0.57773 0.0
O199 O 0.47966 0.54867 0.59636 0.0
C200 C 0.44801 0.50762 0.59826 0.0
C201 C 0.60935 0.64146 0.57948 0.0
O202 O 0.53093 0.59021 0.67261 0.0
O203 O 0.57306 0.53687 0.63692 0.0
O204 O 0.48792 0.69641 0.61411 0.0
O205 O 0.44914 0.63804 0.65753 0.0
O206 O 0.59489 0.66696 0.61351 0.0
O207 O 0.5696 0.61271 0.56128 0.0
O208 O 0.52306 0.56817 0.4965 0.0
O209 O 0.47852 0.62023 0.53191 0.0
C210 C 0.55837 0.55799 0.67524 0.0
C211 C 0.49407 0.59911 0.49365 0.0
Dy212 Dy 0.0166 0.52623 0.08743 0.0
C213 C 0.97052 0.69161 1.00349 0.0
C214 C 0.06452 0.45526 0.10331 0.0
Dy215 Dy 1.00108 0.61579 0.03881 0.0
O216 O 0.03001 0.46541 0.13134 0.0
O217 O 0.07177 0.48334 0.06701 0.0
O218 O 0.95871 0.52908 0.14367 0.0
O219 O 1.00222 0.59423 0.11305 0.0
C220 C 0.9651 0.57584 0.14057 0.0
C221 C 0.05064 0.56192 0.98734 0.0
O222 O 0.0748 0.65337 0.07612 0.0
O223 O 0.09112 0.58312 0.10454 0.0
O224 O 0.98595 0.65969 0.97811 0.0
O225 O 0.97117 0.68184 0.04843 0.0
O226 O 0.06227 0.60904 0.98597 0.0
O227 O 0.01246 0.54672 0.01408 0.0
O228 O 0.94224 0.49135 0.04958 0.0
O229 O 0.92137 0.56375 0.03597 0.0
C230 C 0.10475 0.63075 0.09808 0.0
C231 C 0.90871 0.51549 0.03717 0.0
C232 C 0.15387 0.17107 0.30294 0.0
C233 C 0.20803 0.18161 0.30225 0.0
C234 C 0.12618 0.1538 0.34429 0.0
C235 C 0.15193 0.14728 0.38631 0.0
H236 H 0.13282 0.17532 0.27109 0.0
H237 H 0.08441 0.14525 0.34323 0.0
S238 S 0.29384 0.17321 0.40333 0.0
N239 N 0.2865 0.18662 0.34731 0.0
N240 N 0.23493 0.15474 0.425 0.0
C241 C 0.20622 0.15904 0.38623 0.0
C242 C 0.23417 0.17606 0.34417 0.0
C243 C 0.41411 0.91362 0.85189 0.0
C244 C 0.36099 0.88989 0.85061 0.0
C245 C 0.43771 0.93936 0.89282 0.0
C246 C 0.40922 0.94286 0.93422 0.0
H247 H 0.43765 0.91298 0.82066 0.0
H248 H 0.47869 0.9573 0.89164 0.0
S249 S 0.26978 0.88449 0.95104 0.0
N250 N 0.281 0.86913 0.89562 0.0
N251 N 0.32548 0.91877 0.97234 0.0
C252 C 0.35622 0.91895 0.9339 0.0
C253 C 0.33209 0.89223 0.89215 0.0
C254 C 0.58273 0.47415 0.77096 0.0
C255 C 0.56734 0.494 0.81306 0.0
C256 C 0.58289 0.49675 0.72694 0.0
C257 C 0.56766 0.54014 0.72326 0.0
H258 H 0.59171 0.43943 0.77152 0.0
H259 H 0.59239 0.47849 0.69525 0.0
S260 S 0.53209 0.61065 0.82488 0.0
N261 N 0.54257 0.56232 0.84953 0.0
N262 N 0.54284 0.60486 0.76732 0.0
C263 C 0.55592 0.56211 0.7659 0.0
C264 C 0.55573 0.53903 0.81058 0.0
C265 C 0.86602 0.60308 0.22546 0.0
C266 C 0.88057 0.65409 0.22964 0.0
C267 C 0.8941 0.57834 0.19696 0.0
C268 C 0.93755 0.60372 0.17121 0.0
H269 H 0.83195 0.58221 0.24357 0.0
H270 H 0.88099 0.53899 0.19441 0.0
S271 S 0.99183 0.73787 0.17121 0.0
N272 N 0.94114 0.72938 0.20646 0.0
N273 N 0.99455 0.68306 0.15315 0.0
C274 C 0.95292 0.65487 0.17573 0.0
C275 C 0.92424 0.68002 0.20488 0.0
C276 C 0.39301 0.18996 0.18178 0.0
C277 C 0.34033 0.16479 0.18314 0.0
C278 C 0.4297 0.16709 0.1648 0.0
C279 C 0.41493 0.11841 0.14783 0.0
H280 H 0.40598 0.22761 0.19419 0.0
H281 H 0.46982 0.18805 0.16416 0.0
S282 S 0.28156 0.0365 0.14454 0.0
N283 N 0.27507 0.08862 0.16688 0.0
N284 N 0.34387 0.04547 0.13442 0.0
C285 C 0.36228 0.09277 0.1492 0.0
C286 C 0.32502 0.11597 0.16709 0.0
C287 C 0.13054 0.9621 0.67451 0.0
C288 C 0.15186 0.92538 0.65662 0.0
C289 C 0.11739 0.99509 0.64394 0.0
C290 C 0.12369 0.99165 0.59422 0.0
H291 H 0.12358 0.96505 0.71242 0.0
H292 H 0.10146 0.02299 0.65934 0.0
S293 S 0.17837 0.90184 0.52986 0.0
N294 N 0.17985 0.88801 0.5866 0.0
N295 N 0.15375 0.94887 0.52876 0.0
C296 C 0.14564 0.95538 0.57604 0.0
C297 C 0.15997 0.92246 0.60733 0.0
C298 C 0.79682 0.41313 0.98953 0.0
C299 C 0.75405 0.43225 0.99508 0.0
C300 C 0.8466 0.44019 1.00348 0.0
C301 C 0.85567 0.48764 0.02308 0.0
H302 H 0.79185 0.37697 0.97398 0.0
H303 H 0.8783 0.42398 0.99826 0.0
S304 S 0.75659 0.55345 0.04806 0.0
N305 N 0.72379 0.5007 0.02393 0.0
N306 N 0.81753 0.55205 0.04904 0.0
C307 C 0.81332 0.50724 0.02897 0.0
C308 C 0.76251 0.47947 0.01521 0.0
C309 C 0.69214 0.68464 0.47181 0.0
C310 C 0.74283 0.69939 0.49037 0.0
C311 C 0.64981 0.66576 0.50115 0.0
C312 C 0.65593 0.66091 0.55041 0.0
H313 H 0.68472 0.68897 0.43441 0.0
H314 H 0.6116 0.65627 0.4853 0.0
S315 S 0.77985 0.69209 0.61726 0.0
N316 N 0.79666 0.70594 0.5616 0.0
N317 N 0.7162 0.67149 0.61678 0.0
C318 C 0.70602 0.67531 0.56979 0.0
C319 C 0.74961 0.69421 0.53978 0.0
C320 C 0.1738 0.39698 0.09094 0.0
C321 C 0.17884 0.38086 0.13715 0.0
C322 C 0.13412 0.41788 0.07958 0.0
C323 C 0.09823 0.4238 0.11412 0.0
H324 H 0.20195 0.39506 0.06384 0.0
H325 H 0.13312 0.4316 0.04401 0.0
S326 S 0.09172 0.38313 0.23902 0.0
N327 N 0.14246 0.36847 0.21661 0.0
N328 N 0.06759 0.40812 0.19528 0.0
C329 C 0.10076 0.40497 0.15959 0.0
C330 C 0.14122 0.3834 0.17113 0.0
C331 C 0.6183 0.25641 0.04129 0.0
C332 C 0.61991 0.27161 0.99368 0.0
C333 C 0.59905 0.20685 0.05234 0.0
C334 C 0.58122 0.17126 0.01597 0.0
H335 H 0.63015 0.28315 0.07019 0.0
H336 H 0.59599 0.19673 0.0894 0.0
S337 S 0.58487 0.19178 0.88551 0.0
N338 N 0.60733 0.24667 0.91012 0.0
N339 N 0.57173 0.15425 0.93036 0.0
C340 C 0.58565 0.18598 0.96824 0.0
C341 C 0.60482 0.23598 0.9572 0.0
C342 C 0.87089 0.87413 0.47927 0.0
C343 C 0.89236 0.84158 0.45314 0.0
C344 C 0.9013 0.91975 0.49534 0.0
C345 C 0.95412 0.93529 0.48495 0.0
H346 H 0.83017 0.86418 0.48779 0.0
H347 H 0.88341 0.94298 0.5165 0.0
S348 S 0.02985 0.8651 0.41806 0.0
N349 N 0.97052 0.8286 0.41807 0.0
N350 N 0.02711 0.91553 0.44699 0.0
C351 C 0.9761 0.9042 0.45778 0.0
C352 C 0.94532 0.85712 0.44206 0.0
C353 C 0.39223 0.7874 0.66991 0.0
C354 C 0.36681 0.77531 0.71353 0.0
C355 C 0.42008 0.75733 0.6484 0.0
C356 C 0.42264 0.71378 0.66937 0.0
H357 H 0.39152 0.82083 0.65293 0.0
H358 H 0.43971 0.76829 0.61513 0.0
S359 S 0.3614 0.66563 0.78309 0.0
N360 N 0.34549 0.71706 0.77673 0.0
N361 N 0.39648 0.66001 0.73605 0.0
C362 C 0.39646 0.70101 0.71258 0.0
C363 C 0.36892 0.73194 0.73473 0.0
C364 C 0.95041 0.91073 0.77976 0.0
C365 C 0.93097 0.93383 0.81747 0.0
C366 C 0.96925 0.93572 0.73837 0.0
C367 C 0.96934 0.98463 0.73342 0.0
H368 H 0.94897 0.87253 0.78138 0.0
H369 H 0.98241 0.91613 0.70954 0.0
S370 S 0.92855 0.06295 0.82466 0.0
N371 N 0.91723 1.00925 0.84929 0.0
N372 N 0.95266 0.05641 0.7715 0.0
C373 C 0.95254 1.00881 0.77194 0.0
C374 C 0.93327 0.98332 0.81398 0.0
C375 C 0.73139 0.13324 0.3073 0.0
C376 C 0.74079 0.1816 0.32472 0.0
C377 C 0.70292 0.11729 0.26519 0.0
C378 C 0.68186 0.1487 0.23884 0.0
H379 H 0.74401 0.10666 0.32743 0.0
H380 H 0.69551 0.07929 0.2544 0.0
S381 S 0.70043 0.28024 0.26508 0.0
N382 N 0.73134 0.26222 0.30891 0.0
N383 N 0.6759 0.23139 0.23079 0.0
C384 C 0.69265 0.19759 0.25444 0.0
C385 C 0.72249 0.21419 0.29707 0.0
C386 C 0.42484 0.63707 0.38837 0.0
C387 C 0.45811 0.63492 0.35005 0.0
C388 C 0.43707 0.62674 0.43518 0.0
C389 C 0.48256 0.6132 0.44501 0.0
H390 H 0.38827 0.64491 0.38186 0.0
H391 H 0.40988 0.62762 0.46344 0.0
S392 S 0.58599 0.60961 0.35816 0.0
N393 N 0.54135 0.62459 0.32626 0.0
N394 N 0.56319 0.60294 0.41289 0.0
C395 C 0.51706 0.61314 0.40719 0.0
C396 C 0.50516 0.62462 0.36011 0.0
C397 C 0.14622 0.52146 0.90682 0.0
C398 C 0.12737 0.47049 0.90615 0.0
C399 C 0.12073 0.55092 0.93262 0.0
C400 C 0.0754 0.53035 0.95828 0.0
H401 H 0.18183 0.53853 0.88874 0.0
H402 H 0.13727 0.58999 0.93328 0.0
S403 S 1.00801 0.39865 0.9636 0.0
N404 N 0.0595 0.40076 0.93084 0.0
N405 N 1.01071 0.45576 0.97787 0.0
C406 C 0.0551 0.47943 0.95597 0.0
C407 C 0.08135 0.44959 0.93032 0.0
C408 C 0.69994 0.97112 0.98791 0.0
C409 C 0.68083 0.92003 0.98576 0.0
C410 C 0.67596 0.99969 0.01645 0.0
C411 C 0.63231 0.97778 0.0434 0.0
H412 H 0.73137 0.98919 0.96507 0.0
H413 H 0.68914 0.03896 0.01455 0.0
S414 S 0.57389 0.84555 0.05713 0.0
N415 N 0.62086 0.84881 0.01841 0.0
N416 N 0.57553 0.90239 0.07157 0.0
C417 C 0.61586 0.92678 0.04471 0.0
C418 C 0.64018 0.89786 0.01593 0.0
C419 C 0.83649 0.12478 0.49567 0.0
C420 C 0.8561 0.1561 0.45825 0.0
C421 C 0.86825 0.10326 0.52188 0.0
C422 C 0.92114 0.11194 0.51187 0.0
H423 H 0.79632 0.11797 0.50574 0.0
H424 H 0.8512 0.08035 0.55103 0.0
S425 S 0.99136 0.18962 0.41617 0.0
N426 N 0.93137 0.19351 0.41113 0.0
N427 N 0.9915 0.15291 0.46074 0.0
C428 C 0.94107 0.14173 0.47336 0.0
C429 C 0.90843 0.16381 0.44643 0.0
C430 C 0.21485 0.67342 0.18627 0.0
C431 C 0.25173 0.70824 0.16093 0.0
C432 C 0.16711 0.64913 0.16575 0.0
C433 C 0.15383 0.65952 0.11955 0.0
H434 H 0.22334 0.66408 0.22201 0.0
H435 H 0.14043 0.62176 0.18615 0.0
S436 S 0.23525 0.74789 0.03808 0.0
N437 N 0.27121 0.75164 0.0866 0.0
N438 N 0.17999 0.70749 0.04921 0.0
C439 C 0.18908 0.69551 0.09437 0.0
C440 C 0.23837 0.71958 0.11481 0.0
C441 C 0.30563 0.45966 0.62305 0.0
C442 C 0.30483 0.45101 0.67242 0.0
C443 C 0.35204 0.48068 0.59951 0.0
C444 C 0.39912 0.49479 0.62461 0.0
H445 H 0.27033 0.44842 0.60207 0.0
H446 H 0.35131 0.48441 0.56115 0.0
S447 S 0.41913 0.48153 0.75374 0.0
N448 N 0.35631 0.45896 0.74537 0.0
N449 N 0.44272 0.50001 0.70106 0.0
C450 C 0.3989 0.48854 0.67404 0.0
C451 C 0.35191 0.46645 0.69804 0.0
C452 C 0.94195 0.77706 0.91341 0.0
C453 C 0.92157 0.80878 0.94155 0.0
C454 C 0.95817 0.7396 0.93402 0.0
C455 C 0.95478 0.73263 0.98352 0.0
H456 H 0.94382 0.78021 0.87496 0.0
H457 H 0.97278 0.7155 0.91082 0.0
S458 S 0.90768 0.80806 0.07322 0.0
N459 N 0.90135 0.83257 0.02163 0.0
N460 N 0.93184 0.76189 0.0605 0.0
C461 C 0.93587 0.76492 1.01228 0.0
C462 C 0.9192 0.80305 0.99124 0.0
C463 C 0.4387 0.87686 0.22045 0.0
C464 C 0.4126 0.84543 0.18356 0.0
C465 C 0.46707 0.92467 0.21113 0.0
C466 C 0.47063 0.94271 0.1646 0.0
H467 H 0.43698 0.86447 0.25675 0.0
H468 H 0.48679 0.94753 0.24067 0.0
S469 S 0.41222 0.87351 0.05515 0.0
N470 N 0.39382 0.83476 0.09848 0.0
N471 N 0.44715 0.92448 0.08109 0.0
C472 C 0.44496 0.91149 0.1274 0.0
C473 C 0.41598 0.86287 0.13687 0.0
C474 C 0.14536 0.29406 0.62188 0.0
C475 C 0.16113 0.29709 0.67011 0.0
C476 C 0.122 0.24896 0.59898 0.0
C477 C 0.11332 0.20511 0.62349 0.0
H478 H 0.15075 0.32689 0.60175 0.0
H479 H 0.11006 0.24856 0.56203 0.0
S480 S 0.15219 0.19279 0.74889 0.0
N481 N 0.16991 0.25193 0.74044 0.0
N482 N 0.12534 0.16763 0.6981 0.0
C483 C 0.12974 0.20766 0.67153 0.0
C484 C 0.15376 0.25345 0.69465 0.0
C485 C 0.69861 0.40287 0.53758 0.0
C486 C 0.67692 0.36144 0.50853 0.0
C487 C 0.67657 0.44203 0.53981 0.0
C488 C 0.6315 0.44075 0.51367 0.0
H489 H 0.73126 0.40386 0.56065 0.0
H490 H 0.69319 0.4721 0.56448 0.0
S491 S 0.56326 0.34256 0.42838 0.0
N492 N 0.61104 0.32306 0.44986 0.0
N493 N 0.56893 0.39647 0.45429 0.0
C494 C 0.6115 0.4009 0.48203 0.0
C495 C 0.63439 0.36121 0.47943 0.0
loop_
_geom_bond_atom_site_label_1
_geom_bond_atom_site_label_2
_geom_bond_distance
_geom_bond_site_symmetry_2
_ccdc_geom_bond_type
H0 C1 0.949 . S
C1 H0 0.949 . S
C1 C2 1.395 . S
C1 C3 1.391 . S
C2 C1 1.395 . S
C2 C5 1.390 . S
C3 C1 1.391 . S
C3 C7 1.387 . S
C3 C8 1.491 . S
H4 C5 0.950 . S
C5 C2 1.390 . S
C5 H4 0.950 . S
C5 C6 1.378 . S
C6 C5 1.378 . S
C6 C7 1.409 . S
C7 C3 1.387 . S
C7 C6 1.409 . S
C7 H9 0.951 . S
C8 C3 1.491 . S
C8 C10 1.382 . S
C8 C12 1.404 . S
H9 C7 0.951 . S
C10 C8 1.382 . S
C10 C11 1.390 . S
C10 H15 0.949 . S
C11 C10 1.390 . S
C11 C16 1.399 . S
C12 C8 1.404 . S
C12 H13 0.950 . S
C12 C14 1.375 . S
H13 C12 0.950 . S
C14 C12 1.375 . S
C14 C16 1.382 . S
C14 H18 0.950 . S
H15 C10 0.949 . S
C16 C11 1.399 . S
C16 C14 1.382 . S
C16 H17 0.952 . S
H17 C16 0.952 . S
H18 C14 0.950 . S
H19 C20 0.949 . S
C20 H19 0.949 . S
C20 C21 1.395 . S
C20 C22 1.391 . S
C21 C20 1.395 . S
C21 C24 1.390 . S
C22 C20 1.391 . S
C22 C26 1.387 . S
C22 C27 1.491 . S
H23 C24 0.950 . S
C24 C21 1.390 . S
C24 H23 0.950 . S
C24 C25 1.378 . S
C25 C24 1.378 . S
C25 C26 1.409 . S
C26 C22 1.387 . S
C26 C25 1.409 . S
C26 H28 0.951 . S
C27 C22 1.491 . S
C27 C29 1.382 . S
C27 C31 1.404 . S
H28 C26 0.951 . S
C29 C27 1.382 . S
C29 C30 1.390 . S
C29 H34 0.949 . S
C30 C29 1.390 . S
C30 C35 1.399 . S
C31 C27 1.404 . S
C31 H32 0.950 . S
C31 C33 1.375 . S
H32 C31 0.950 . S
C33 C31 1.375 . S
C33 C35 1.382 . S
C33 H37 0.950 . S
H34 C29 0.949 . S
C35 C30 1.399 . S
C35 C33 1.382 . S
C35 H36 0.952 . S
H36 C35 0.952 . S
H37 C33 0.950 . S
H38 C39 0.949 . S
C39 H38 0.949 . S
C39 C40 1.395 . S
C39 C41 1.391 . S
C40 C39 1.395 . S
C40 C43 1.390 . S
C41 C39 1.391 . S
C41 C45 1.387 . S
C41 C46 1.491 . S
H42 C43 0.950 . S
C43 C40 1.390 . S
C43 H42 0.950 . S
C43 C44 1.378 . S
C44 C43 1.378 . S
C44 C45 1.409 . S
C45 C41 1.387 . S
C45 C44 1.409 . S
C45 H47 0.951 . S
C46 C41 1.491 . S
C46 C48 1.382 . S
C46 C50 1.404 . S
H47 C45 0.951 . S
C48 C46 1.382 . S
C48 C49 1.390 . S
C48 H53 0.949 . S
C49 C48 1.390 . S
C49 C54 1.399 . S
C50 C46 1.404 . S
C50 H51 0.950 . S
C50 C52 1.375 . S
H51 C50 0.950 . S
C52 C50 1.375 . S
C52 C54 1.382 . S
C52 H56 0.950 . S
H53 C48 0.949 . S
C54 C49 1.399 . S
C54 C52 1.382 . S
C54 H55 0.952 . S
H55 C54 0.952 . S
H56 C52 0.950 . S
H57 C58 0.949 . S
C58 H57 0.949 . S
C58 C59 1.395 . S
C58 C60 1.391 . S
C59 C58 1.395 . S
C59 C62 1.390 . S
C60 C58 1.391 . S
C60 C64 1.387 . S
C60 C65 1.491 . S
H61 C62 0.950 . S
C62 C59 1.390 . S
C62 H61 0.950 . S
C62 C63 1.378 . S
C63 C62 1.378 . S
C63 C64 1.409 . S
C64 C60 1.387 . S
C64 C63 1.409 . S
C64 H66 0.951 . S
C65 C60 1.491 . S
C65 C67 1.382 . S
C65 C69 1.404 . S
H66 C64 0.951 . S
C67 C65 1.382 . S
C67 C68 1.390 . S
C67 H72 0.949 . S
C68 C67 1.390 . S
C68 C73 1.399 . S
C69 C65 1.404 . S
C69 H70 0.950 . S
C69 C71 1.375 . S
H70 C69 0.950 . S
C71 C69 1.375 . S
C71 C73 1.382 . S
C71 H75 0.950 . S
H72 C67 0.949 . S
C73 C68 1.399 . S
C73 C71 1.382 . S
C73 H74 0.952 . S
H74 C73 0.952 . S
H75 C71 0.950 . S
H76 C77 0.949 . S
C77 H76 0.949 . S
C77 C78 1.395 . S
C77 C79 1.391 . S
C78 C77 1.395 . S
C78 C81 1.390 . S
C79 C77 1.391 . S
C79 C83 1.387 . S
C79 C84 1.491 . S
H80 C81 0.950 . S
C81 C78 1.390 . S
C81 H80 0.950 . S
C81 C82 1.378 . S
C82 C81 1.378 . S
C82 C83 1.409 . S
C83 C79 1.387 . S
C83 C82 1.409 . S
C83 H85 0.951 . S
C84 C79 1.491 . S
C84 C86 1.382 . S
C84 C88 1.404 . S
H85 C83 0.951 . S
C86 C84 1.382 . S
C86 C87 1.390 . S
C86 H91 0.949 . S
C87 C86 1.390 . S
C87 C92 1.399 . S
C88 C84 1.404 . S
C88 H89 0.950 . S
C88 C90 1.375 . S
H89 C88 0.950 . S
C90 C88 1.375 . S
C90 C92 1.382 . S
C90 H94 0.950 . S
H91 C86 0.949 . S
C92 C87 1.399 . S
C92 C90 1.382 . S
C92 H93 0.952 . S
H93 C92 0.952 . S
H94 C90 0.950 . S
H95 C96 0.949 . S
C96 H95 0.949 . S
C96 C97 1.395 . S
C96 C98 1.391 . S
C97 C96 1.395 . S
C97 C100 1.390 . S
C98 C96 1.391 . S
C98 C102 1.387 . S
C98 C103 1.491 . S
H99 C100 0.950 . S
C100 C97 1.390 . S
C100 H99 0.950 . S
C100 C101 1.378 . S
C101 C100 1.378 . S
C101 C102 1.409 . S
C102 C98 1.387 . S
C102 C101 1.409 . S
C102 H104 0.951 . S
C103 C98 1.491 . S
C103 C105 1.382 . S
C103 C107 1.404 . S
H104 C102 0.951 . S
C105 C103 1.382 . S
C105 C106 1.390 . S
C105 H110 0.949 . S
C106 C105 1.390 . S
C106 C111 1.399 . S
C107 C103 1.404 . S
C107 H108 0.950 . S
C107 C109 1.375 . S
H108 C107 0.950 . S
C109 C107 1.375 . S
C109 C111 1.382 . S
C109 H113 0.950 . S
H110 C105 0.949 . S
C111 C106 1.399 . S
C111 C109 1.382 . S
C111 H112 0.952 . S
H112 C111 0.952 . S
H113 C109 0.950 . S
H114 C115 0.949 . S
C115 H114 0.949 . S
C115 C116 1.395 . S
C115 C117 1.391 . S
C116 C115 1.395 . S
C116 C119 1.390 . S
C117 C115 1.391 . S
C117 C121 1.387 . S
C117 C122 1.491 . S
H118 C119 0.950 . S
C119 C116 1.390 . S
C119 H118 0.950 . S
C119 C120 1.378 . S
C120 C119 1.378 . S
C120 C121 1.409 . S
C121 C117 1.387 . S
C121 C120 1.409 . S
C121 H123 0.951 . S
C122 C117 1.491 . S
C122 C124 1.382 . S
C122 C126 1.404 . S
H123 C121 0.951 . S
C124 C122 1.382 . S
C124 C125 1.390 . S
C124 H129 0.949 . S
C125 C124 1.390 . S
C125 C130 1.399 . S
C126 C122 1.404 . S
C126 H127 0.950 . S
C126 C128 1.375 . S
H127 C126 0.950 . S
C128 C126 1.375 . S
C128 C130 1.382 . S
C128 H132 0.950 . S
H129 C124 0.949 . S
C130 C125 1.399 . S
C130 C128 1.382 . S
C130 H131 0.952 . S
H131 C130 0.952 . S
H132 C128 0.950 . S
H133 C134 0.949 . S
C134 H133 0.949 . S
C134 C135 1.395 . S
C134 C136 1.391 . S
C135 C134 1.395 . S
C135 C138 1.390 . S
C136 C134 1.391 . S
C136 C140 1.387 . S
C136 C141 1.491 . S
H137 C138 0.950 . S
C138 C135 1.390 . S
C138 H137 0.950 . S
C138 C139 1.378 . S
C139 C138 1.378 . S
C139 C140 1.409 . S
C140 C136 1.387 . S
C140 C139 1.409 . S
C140 H142 0.951 . S
C141 C136 1.491 . S
C141 C143 1.382 . S
C141 C145 1.404 . S
H142 C140 0.951 . S
C143 C141 1.382 . S
C143 C144 1.390 . S
C143 H148 0.949 . S
C144 C143 1.390 . S
C144 C149 1.399 . S
C145 C141 1.404 . S
C145 H146 0.950 . S
C145 C147 1.375 . S
H146 C145 0.950 . S
C147 C145 1.375 . S
C147 C149 1.382 . S
C147 H151 0.950 . S
H148 C143 0.949 . S
C149 C144 1.399 . S
C149 C147 1.382 . S
C149 H150 0.952 . S
H150 C149 0.952 . S
H151 C147 0.950 . S
Dy152 O156 2.398 . S
Dy152 O157 2.491 . S
Dy152 O158 2.403 . S
Dy152 O159 2.664 . S
Dy152 O163 2.326 . S
Dy152 O167 2.310 1_455 S
Dy152 O168 2.351 1_445 S
C153 O164 1.185 . S
C153 O165 1.355 . S
C154 O156 1.185 . S
C154 O157 1.355 . S
Dy155 O159 2.310 1_655 S
Dy155 O162 2.351 1_655 S
Dy155 O164 2.398 1_545 S
Dy155 O165 2.491 1_545 S
Dy155 O166 2.403 . S
Dy155 O167 2.664 . S
Dy155 O169 2.326 1_545 S
O156 Dy152 2.398 . S
O156 C154 1.185 . S
O157 Dy152 2.491 . S
O157 C154 1.355 . S
O158 Dy152 2.403 . S
O158 C160 1.254 . S
O159 Dy152 2.664 . S
O159 Dy155 2.310 1_455 S
O159 C160 1.268 . S
C160 O158 1.254 . S
C160 O159 1.268 . S
C161 O166 1.254 . S
C161 O167 1.268 . S
O162 Dy155 2.351 1_455 S
O162 C170 1.249 . S
O163 Dy152 2.326 . S
O163 C170 1.267 . S
O164 C153 1.185 . S
O164 Dy155 2.398 1_565 S
O165 C153 1.355 . S
O165 Dy155 2.491 1_565 S
O166 Dy155 2.403 . S
O166 C161 1.254 . S
O167 Dy152 2.310 1_655 S
O167 Dy155 2.664 . S
O167 C161 1.268 . S
O168 Dy152 2.351 1_665 S
O168 C171 1.249 . S
O169 Dy155 2.326 1_565 S
O169 C171 1.267 . S
C170 O162 1.249 . S
C170 O163 1.267 . S
C171 O168 1.249 . S
C171 O169 1.267 . S
Dy172 O176 2.398 . S
Dy172 O177 2.491 . S
Dy172 O178 2.403 1_545 S
Dy172 O179 2.664 1_545 S
Dy172 O183 2.326 . S
Dy172 O187 2.310 . S
Dy172 O188 2.351 1_545 S
C173 O184 1.185 1_565 S
C173 O185 1.355 . S
C174 O176 1.185 . S
C174 O177 1.355 . S
Dy175 O179 2.310 1_545 S
Dy175 O182 2.351 . S
Dy175 O184 2.398 1_554 S
Dy175 O185 2.491 1_544 S
Dy175 O186 2.403 . S
Dy175 O187 2.664 . S
Dy175 O189 2.326 . S
O176 Dy172 2.398 . S
O176 C174 1.185 . S
O177 Dy172 2.491 . S
O177 C174 1.355 . S
O178 Dy172 2.403 1_565 S
O178 C180 1.254 . S
O179 Dy172 2.664 1_565 S
O179 Dy175 2.310 1_565 S
O179 C180 1.268 . S
C180 O178 1.254 . S
C180 O179 1.268 . S
C181 O186 1.254 . S
C181 O187 1.268 . S
O182 Dy175 2.351 . S
O182 C190 1.249 . S
O183 Dy172 2.326 . S
O183 C190 1.267 . S
O184 C173 1.185 1_545 S
O184 Dy175 2.398 1_556 S
O185 C173 1.355 . S
O185 Dy175 2.491 1_566 S
O186 Dy175 2.403 . S
O186 C181 1.254 . S
O187 Dy172 2.310 . S
O187 Dy175 2.664 . S
O187 C181 1.268 . S
O188 Dy172 2.351 1_565 S
O188 C191 1.249 . S
O189 Dy175 2.326 . S
O189 C191 1.267 1_545 S
C190 O182 1.249 . S
C190 O183 1.267 . S
C191 O188 1.249 . S
C191 O189 1.267 1_565 S
Dy192 O196 2.398 . S
Dy192 O197 2.491 . S
Dy192 O198 2.403 . S
Dy192 O199 2.664 . S
Dy192 O203 2.326 . S
Dy192 O207 2.310 . S
Dy192 O208 2.351 . S
C193 O204 1.185 . S
C193 O205 1.355 . S
C194 O196 1.185 . S
C194 O197 1.355 . S
Dy195 O199 2.310 . S
Dy195 O202 2.351 . S
Dy195 O204 2.398 . S
Dy195 O205 2.491 . S
Dy195 O206 2.403 . S
Dy195 O207 2.664 . S
Dy195 O209 2.326 . S
O196 Dy192 2.398 . S
O196 C194 1.185 . S
O197 Dy192 2.491 . S
O197 C194 1.355 . S
O198 Dy192 2.403 . S
O198 C200 1.254 . S
O199 Dy192 2.664 . S
O199 Dy195 2.310 . S
O199 C200 1.268 . S
C200 O198 1.254 . S
C200 O199 1.268 . S
C201 O206 1.254 . S
C201 O207 1.268 . S
O202 Dy195 2.351 . S
O202 C210 1.249 . S
O203 Dy192 2.326 . S
O203 C210 1.267 . S
O204 C193 1.185 . S
O204 Dy195 2.398 . S
O205 C193 1.355 . S
O205 Dy195 2.491 . S
O206 Dy195 2.403 . S
O206 C201 1.254 . S
O207 Dy192 2.310 . S
O207 Dy195 2.664 . S
O207 C201 1.268 . S
O208 Dy192 2.351 . S
O208 C211 1.249 . S
O209 Dy195 2.326 . S
O209 C211 1.267 . S
C210 O202 1.249 . S
C210 O203 1.267 . S
C211 O208 1.249 . S
C211 O209 1.267 . S
Dy212 O216 2.398 . S
Dy212 O217 2.491 . S
Dy212 O218 2.403 1_455 S
Dy212 O219 2.664 1_455 S
Dy212 O223 2.326 . S
Dy212 O227 2.310 1_554 S
Dy212 O228 2.351 1_455 S
C213 O224 1.185 . S
C213 O225 1.355 . S
C214 O216 1.185 . S
C214 O217 1.355 . S
Dy215 O219 2.310 1_456 S
Dy215 O222 2.351 1_556 S
Dy215 O224 2.398 1_455 S
Dy215 O225 2.491 1_455 S
Dy215 O226 2.403 . S
Dy215 O227 2.664 . S
Dy215 O229 2.326 1_455 S
O216 Dy212 2.398 . S
O216 C214 1.185 . S
O217 Dy212 2.491 . S
O217 C214 1.355 . S
O218 Dy212 2.403 1_655 S
O218 C220 1.254 . S
O219 Dy212 2.664 1_655 S
O219 Dy215 2.310 1_654 S
O219 C220 1.268 . S
C220 O218 1.254 . S
C220 O219 1.268 . S
C221 O226 1.254 . S
C221 O227 1.268 . S
O222 Dy215 2.351 1_554 S
O222 C230 1.249 . S
O223 Dy212 2.326 . S
O223 C230 1.267 . S
O224 C213 1.185 . S
O224 Dy215 2.398 1_655 S
O225 C213 1.355 . S
O225 Dy215 2.491 1_655 S
O226 Dy215 2.403 . S
O226 C221 1.254 . S
O227 Dy212 2.310 1_556 S
O227 Dy215 2.664 . S
O227 C221 1.268 . S
O228 Dy212 2.351 1_655 S
O228 C231 1.249 1_554 S
O229 Dy215 2.326 1_655 S
O229 C231 1.267 . S
C230 O222 1.249 . S
C230 O223 1.267 . S
C231 O228 1.249 1_556 S
C231 O229 1.267 . S
C232 C233 1.369 . S
C232 C234 1.419 . S
C232 H236 0.930 . S
C233 C232 1.369 . S
C233 C242 1.429 . S
C234 C232 1.419 . S
C234 C235 1.363 . S
C234 H237 0.929 . S
C235 C234 1.363 . S
C235 C241 1.428 . S
H236 C232 0.930 . S
H237 C234 0.929 . S
S238 N239 1.613 . S
S238 N240 1.610 . S
N239 S238 1.613 . S
N239 C242 1.350 . S
N240 S238 1.610 . S
N240 C241 1.351 . S
C241 C235 1.428 . S
C241 N240 1.351 . S
C241 C242 1.434 . S
C242 C233 1.429 . S
C242 N239 1.350 . S
C242 C241 1.434 . S
C243 C244 1.369 . S
C243 C245 1.419 . S
C243 H247 0.930 . S
C244 C243 1.369 . S
C244 C253 1.429 . S
C245 C243 1.419 . S
C245 C246 1.363 . S
C245 H248 0.929 . S
C246 C245 1.363 . S
C246 C252 1.428 . S
H247 C243 0.930 . S
H248 C245 0.929 . S
S249 N250 1.613 . S
S249 N251 1.610 . S
N250 S249 1.613 . S
N250 C253 1.350 . S
N251 S249 1.610 . S
N251 C252 1.351 . S
C252 C246 1.428 . S
C252 N251 1.351 . S
C252 C253 1.434 . S
C253 C244 1.429 . S
C253 N250 1.350 . S
C253 C252 1.434 . S
C254 C255 1.369 . S
C254 C256 1.419 . S
C254 H258 0.930 . S
C255 C254 1.369 . S
C255 C264 1.429 . S
C256 C254 1.419 . S
C256 C257 1.363 . S
C256 H259 0.929 . S
C257 C256 1.363 . S
C257 C263 1.428 . S
H258 C254 0.930 . S
H259 C256 0.929 . S
S260 N261 1.613 . S
S260 N262 1.610 . S
N261 S260 1.613 . S
N261 C264 1.350 . S
N262 S260 1.610 . S
N262 C263 1.351 . S
C263 C257 1.428 . S
C263 N262 1.351 . S
C263 C264 1.434 . S
C264 C255 1.429 . S
C264 N261 1.350 . S
C264 C263 1.434 . S
C265 C266 1.369 . S
C265 C267 1.419 . S
C265 H269 0.930 . S
C266 C265 1.369 . S
C266 C275 1.429 . S
C267 C265 1.419 . S
C267 C268 1.363 . S
C267 H270 0.929 . S
C268 C267 1.363 . S
C268 C274 1.428 . S
H269 C265 0.930 . S
H270 C267 0.929 . S
S271 N272 1.613 . S
S271 N273 1.610 . S
N272 S271 1.613 . S
N272 C275 1.350 1_455 S
N273 S271 1.610 . S
N273 C274 1.351 1_455 S
C274 C268 1.428 . S
C274 N273 1.351 1_655 S
C274 C275 1.434 . S
C275 C266 1.429 . S
C275 N272 1.350 1_655 S
C275 C274 1.434 . S
C276 C277 1.369 . S
C276 C278 1.419 . S
C276 H280 0.930 . S
C277 C276 1.369 . S
C277 C286 1.429 . S
C278 C276 1.419 . S
C278 C279 1.363 . S
C278 H281 0.929 . S
C279 C278 1.363 . S
C279 C285 1.428 . S
H280 C276 0.930 . S
H281 C278 0.929 . S
S282 N283 1.613 . S
S282 N284 1.610 . S
N283 S282 1.613 . S
N283 C286 1.350 . S
N284 S282 1.610 . S
N284 C285 1.351 . S
C285 C279 1.428 . S
C285 N284 1.351 . S
C285 C286 1.434 . S
C286 C277 1.429 . S
C286 N283 1.350 . S
C286 C285 1.434 . S
C287 C288 1.369 1_545 S
C287 C289 1.419 . S
C287 H291 0.930 . S
C288 C287 1.369 1_565 S
C288 C297 1.429 . S
C289 C287 1.419 . S
C289 C290 1.363 1_545 S
C289 H292 0.929 . S
C290 C289 1.363 1_565 S
C290 C296 1.428 . S
H291 C287 0.930 . S
H292 C289 0.929 . S
S293 N294 1.613 . S
S293 N295 1.610 . S
N294 S293 1.613 . S
N294 C297 1.350 . S
N295 S293 1.610 . S
N295 C296 1.351 . S
C296 C290 1.428 . S
C296 N295 1.351 . S
C296 C297 1.434 . S
C297 C288 1.429 . S
C297 N294 1.350 . S
C297 C296 1.434 . S
C298 C299 1.369 . S
C298 C300 1.419 . S
C298 H302 0.930 . S
C299 C298 1.369 . S
C299 C308 1.429 . S
C300 C298 1.419 . S
C300 C301 1.363 . S
C300 H303 0.929 1_556 S
C301 C300 1.363 . S
C301 C307 1.428 . S
H302 C298 0.930 . S
H303 C300 0.929 1_554 S
S304 N305 1.613 . S
S304 N306 1.610 . S
N305 S304 1.613 . S
N305 C308 1.350 . S
N306 S304 1.610 . S
N306 C307 1.351 . S
C307 C301 1.428 . S
C307 N306 1.351 . S
C307 C308 1.434 . S
C308 C299 1.429 . S
C308 N305 1.350 . S
C308 C307 1.434 . S
C309 C310 1.369 . S
C309 C311 1.419 . S
C309 H313 0.930 . S
C310 C309 1.369 . S
C310 C319 1.429 . S
C311 C309 1.419 . S
C311 C312 1.363 . S
C311 H314 0.929 . S
C312 C311 1.363 . S
C312 C318 1.428 . S
H313 C309 0.930 . S
H314 C311 0.929 . S
S315 N316 1.613 . S
S315 N317 1.610 . S
N316 S315 1.613 . S
N316 C319 1.350 . S
N317 S315 1.610 . S
N317 C318 1.351 . S
C318 C312 1.428 . S
C318 N317 1.351 . S
C318 C319 1.434 . S
C319 C310 1.429 . S
C319 N316 1.350 . S
C319 C318 1.434 . S
C320 C321 1.369 . S
C320 C322 1.419 . S
C320 H324 0.930 . S
C321 C320 1.369 . S
C321 C330 1.429 . S
C322 C320 1.419 . S
C322 C323 1.363 . S
C322 H325 0.929 . S
C323 C322 1.363 . S
C323 C329 1.428 . S
H324 C320 0.930 . S
H325 C322 0.929 . S
S326 N327 1.613 . S
S326 N328 1.610 . S
N327 S326 1.613 . S
N327 C330 1.350 . S
N328 S326 1.610 . S
N328 C329 1.351 . S
C329 C323 1.428 . S
C329 N328 1.351 . S
C329 C330 1.434 . S
C330 C321 1.429 . S
C330 N327 1.350 . S
C330 C329 1.434 . S
C331 C332 1.369 1_554 S
C331 C333 1.419 . S
C331 H335 0.930 . S
C332 C331 1.369 1_556 S
C332 C341 1.429 . S
C333 C331 1.419 . S
C333 C334 1.363 . S
C333 H336 0.929 . S
C334 C333 1.363 . S
C334 C340 1.428 1_554 S
H335 C331 0.930 . S
H336 C333 0.929 . S
S337 N338 1.613 . S
S337 N339 1.610 . S
N338 S337 1.613 . S
N338 C341 1.350 . S
N339 S337 1.610 . S
N339 C340 1.351 . S
C340 C334 1.428 1_556 S
C340 N339 1.351 . S
C340 C341 1.434 . S
C341 C332 1.429 . S
C341 N338 1.350 . S
C341 C340 1.434 . S
C342 C343 1.369 . S
C342 C344 1.419 . S
C342 H346 0.930 . S
C343 C342 1.369 . S
C343 C352 1.429 . S
C344 C342 1.419 . S
C344 C345 1.363 . S
C344 H347 0.929 . S
C345 C344 1.363 . S
C345 C351 1.428 . S
H346 C342 0.930 . S
H347 C344 0.929 . S
S348 N349 1.613 1_455 S
S348 N350 1.610 . S
N349 S348 1.613 1_655 S
N349 C352 1.350 . S
N350 S348 1.610 . S
N350 C351 1.351 1_455 S
C351 C345 1.428 . S
C351 N350 1.351 1_655 S
C351 C352 1.434 . S
C352 C343 1.429 . S
C352 N349 1.350 . S
C352 C351 1.434 . S
C353 C354 1.369 . S
C353 C355 1.419 . S
C353 H357 0.930 . S
C354 C353 1.369 . S
C354 C363 1.429 . S
C355 C353 1.419 . S
C355 C356 1.363 . S
C355 H358 0.929 . S
C356 C355 1.363 . S
C356 C362 1.428 . S
H357 C353 0.930 . S
H358 C355 0.929 . S
S359 N360 1.613 . S
S359 N361 1.610 . S
N360 S359 1.613 . S
N360 C363 1.350 . S
N361 S359 1.610 . S
N361 C362 1.351 . S
C362 C356 1.428 . S
C362 N361 1.351 . S
C362 C363 1.434 . S
C363 C354 1.429 . S
C363 N360 1.350 . S
C363 C362 1.434 . S
C364 C365 1.369 . S
C364 C366 1.419 . S
C364 H368 0.930 . S
C365 C364 1.369 . S
C365 C374 1.429 . S
C366 C364 1.419 . S
C366 C367 1.363 . S
C366 H369 0.929 . S
C367 C366 1.363 . S
C367 C373 1.428 . S
H368 C364 0.930 . S
H369 C366 0.929 . S
S370 N371 1.613 . S
S370 N372 1.610 . S
N371 S370 1.613 . S
N371 C374 1.350 . S
N372 S370 1.610 . S
N372 C373 1.351 . S
C373 C367 1.428 . S
C373 N372 1.351 . S
C373 C374 1.434 . S
C374 C365 1.429 . S
C374 N371 1.350 . S
C374 C373 1.434 . S
C375 C376 1.369 . S
C375 C377 1.419 . S
C375 H379 0.930 . S
C376 C375 1.369 . S
C376 C385 1.429 . S
C377 C375 1.419 . S
C377 C378 1.363 . S
C377 H380 0.929 . S
C378 C377 1.363 . S
C378 C384 1.428 . S
H379 C375 0.930 . S
H380 C377 0.929 . S
S381 N382 1.613 . S
S381 N383 1.610 . S
N382 S381 1.613 . S
N382 C385 1.350 . S
N383 S381 1.610 . S
N383 C384 1.351 . S
C384 C378 1.428 . S
C384 N383 1.351 . S
C384 C385 1.434 . S
C385 C376 1.429 . S
C385 N382 1.350 . S
C385 C384 1.434 . S
C386 C387 1.369 . S
C386 C388 1.419 . S
C386 H390 0.930 . S
C387 C386 1.369 . S
C387 C396 1.429 . S
C388 C386 1.419 . S
C388 C389 1.363 . S
C388 H391 0.929 . S
C389 C388 1.363 . S
C389 C395 1.428 . S
H390 C386 0.930 . S
H391 C388 0.929 . S
S392 N393 1.613 . S
S392 N394 1.610 . S
N393 S392 1.613 . S
N393 C396 1.350 . S
N394 S392 1.610 . S
N394 C395 1.351 . S
C395 C389 1.428 . S
C395 N394 1.351 . S
C395 C396 1.434 . S
C396 C387 1.429 . S
C396 N393 1.350 . S
C396 C395 1.434 . S
C397 C398 1.369 . S
C397 C399 1.419 . S
C397 H401 0.930 . S
C398 C397 1.369 . S
C398 C407 1.429 . S
C399 C397 1.419 . S
C399 C400 1.363 . S
C399 H402 0.929 . S
C400 C399 1.363 . S
C400 C406 1.428 . S
H401 C397 0.930 . S
H402 C399 0.929 . S
S403 N404 1.613 1_655 S
S403 N405 1.610 1_655 S
N404 S403 1.613 1_455 S
N404 C407 1.350 . S
N405 S403 1.610 1_455 S
N405 C406 1.351 . S
C406 C400 1.428 . S
C406 N405 1.351 . S
C406 C407 1.434 . S
C407 C398 1.429 . S
C407 N404 1.350 . S
C407 C406 1.434 . S
C408 C409 1.369 . S
C408 C410 1.419 . S
C408 H412 0.930 . S
C409 C408 1.369 . S
C409 C418 1.429 . S
C410 C408 1.419 . S
C410 C411 1.363 1_556 S
C410 H413 0.929 . S
C411 C410 1.363 1_554 S
C411 C417 1.428 . S
H412 C408 0.930 . S
H413 C410 0.929 . S
S414 N415 1.613 . S
S414 N416 1.610 . S
N415 S414 1.613 . S
N415 C418 1.350 1_554 S
N416 S414 1.610 . S
N416 C417 1.351 . S
C417 C411 1.428 . S
C417 N416 1.351 . S
C417 C418 1.434 1_554 S
C418 C409 1.429 . S
C418 N415 1.350 1_556 S
C418 C417 1.434 1_556 S
C419 C420 1.369 . S
C419 C421 1.419 . S
C419 H423 0.930 . S
C420 C419 1.369 . S
C420 C429 1.429 . S
C421 C419 1.419 . S
C421 C422 1.363 . S
C421 H424 0.929 . S
C422 C421 1.363 . S
C422 C428 1.428 . S
H423 C419 0.930 . S
H424 C421 0.929 . S
S425 N426 1.613 . S
S425 N427 1.610 . S
N426 S425 1.613 . S
N426 C429 1.350 . S
N427 S425 1.610 . S
N427 C428 1.351 . S
C428 C422 1.428 . S
C428 N427 1.351 . S
C428 C429 1.434 . S
C429 C420 1.429 . S
C429 N426 1.350 . S
C429 C428 1.434 . S
C430 C431 1.369 . S
C430 C432 1.419 . S
C430 H434 0.930 . S
C431 C430 1.369 . S
C431 C440 1.429 . S
C432 C430 1.419 . S
C432 C433 1.363 . S
C432 H435 0.929 . S
C433 C432 1.363 . S
C433 C439 1.428 . S
H434 C430 0.930 . S
H435 C432 0.929 . S
S436 N437 1.613 . S
S436 N438 1.610 . S
N437 S436 1.613 . S
N437 C440 1.350 . S
N438 S436 1.610 . S
N438 C439 1.351 . S
C439 C433 1.428 . S
C439 N438 1.351 . S
C439 C440 1.434 . S
C440 C431 1.429 . S
C440 N437 1.350 . S
C440 C439 1.434 . S
C441 C442 1.369 . S
C441 C443 1.419 . S
C441 H445 0.930 . S
C442 C441 1.369 . S
C442 C451 1.429 . S
C443 C441 1.419 . S
C443 C444 1.363 . S
C443 H446 0.929 . S
C444 C443 1.363 . S
C444 C450 1.428 . S
H445 C441 0.930 . S
H446 C443 0.929 . S
S447 N448 1.613 . S
S447 N449 1.610 . S
N448 S447 1.613 . S
N448 C451 1.350 . S
N449 S447 1.610 . S
N449 C450 1.351 . S
C450 C444 1.428 . S
C450 N449 1.351 . S
C450 C451 1.434 . S
C451 C442 1.429 . S
C451 N448 1.350 . S
C451 C450 1.434 . S
C452 C453 1.369 . S
C452 C454 1.419 . S
C452 H456 0.930 . S
C453 C452 1.369 . S
C453 C462 1.429 . S
C454 C452 1.419 . S
C454 C455 1.363 . S
C454 H457 0.929 . S
C455 C454 1.363 . S
C455 C461 1.428 . S
H456 C452 0.930 . S
H457 C454 0.929 . S
S458 N459 1.613 . S
S458 N460 1.610 . S
N459 S458 1.613 . S
N459 C462 1.350 . S
N460 S458 1.610 . S
N460 C461 1.351 . S
C461 C455 1.428 . S
C461 N460 1.351 . S
C461 C462 1.434 . S
C462 C453 1.429 . S
C462 N459 1.350 . S
C462 C461 1.434 . S
C463 C464 1.369 . S
C463 C465 1.419 . S
C463 H467 0.930 . S
C464 C463 1.369 . S
C464 C473 1.429 . S
C465 C463 1.419 . S
C465 C466 1.363 . S
C465 H468 0.929 . S
C466 C465 1.363 . S
C466 C472 1.428 . S
H467 C463 0.930 . S
H468 C465 0.929 . S
S469 N470 1.613 . S
S469 N471 1.610 . S
N470 S469 1.613 . S
N470 C473 1.350 . S
N471 S469 1.610 . S
N471 C472 1.351 . S
C472 C466 1.428 . S
C472 N471 1.351 . S
C472 C473 1.434 . S
C473 C464 1.429 . S
C473 N470 1.350 . S
C473 C472 1.434 . S
C474 C475 1.369 . S
C474 C476 1.419 . S
C474 H478 0.930 . S
C475 C474 1.369 . S
C475 C484 1.429 . S
C476 C474 1.419 . S
C476 C477 1.363 . S
C476 H479 0.929 . S
C477 C476 1.363 . S
C477 C483 1.428 . S
H478 C474 0.930 . S
H479 C476 0.929 . S
S480 N481 1.613 . S
S480 N482 1.610 . S
N481 S480 1.613 . S
N481 C484 1.350 . S
N482 S480 1.610 . S
N482 C483 1.351 . S
C483 C477 1.428 . S
C483 N482 1.351 . S
C483 C484 1.434 . S
C484 C475 1.429 . S
C484 N481 1.350 . S
C484 C483 1.434 . S
C485 C486 1.369 . S
C485 C487 1.419 . S
C485 H489 0.930 . S
C486 C485 1.369 . S
C486 C495 1.429 . S
C487 C485 1.419 . S
C487 C488 1.363 . S
C487 H490 0.929 . S
C488 C487 1.363 . S
C488 C494 1.428 . S
H489 C485 0.930 . S
H490 C487 0.929 . S
S491 N492 1.613 . S
S491 N493 1.610 . S
N492 S491 1.613 . S
N492 C495 1.350 . S
N493 S491 1.610 . S
N493 C494 1.351 . S
C494 C488 1.428 . S
C494 N493 1.351 . S
C494 C495 1.434 . S
C495 C486 1.429 . S
C495 N492 1.350 . S
C495 C494 1.434 . S
C233 C6 1.595 . S
C235 C154 1.583 . S
C244 C21 1.714 . S
C246 C173 1.684 . S
C257 C210 1.347 . S
C255 C49 1.331 . S
C266 C68 1.470 . S
C268 C220 1.526 . S
C279 C190 2.400 . S
C277 C2 2.326 . S
C290 C160 1.155 1_565 S
C288 C30 1.069 . S
C301 C231 1.548 . S
C299 C40 1.588 . S
C312 C201 1.375 . S
C310 C63 1.374 . S
C321 C11 1.490 . S
C323 C214 1.656 . S
C334 C181 1.891 . S
C332 C44 1.940 . S
C343 C59 1.546 . S
C345 C171 1.547 . S
C354 C25 1.450 . S
C356 C193 1.416 . S
C367 C153 1.709 . S
C365 C82 1.711 . S
C376 C101 1.609 . S
C378 C174 1.567 . S
C387 C125 1.570 . S
C389 C211 1.654 . S
C398 C144 1.313 . S
C400 C221 1.395 . S
C409 C87 1.583 . S
C411 C191 1.698 . S
C422 C161 1.965 . S
C420 C97 2.039 . S
C433 C230 1.370 . S
C431 C120 1.420 . S
C444 C200 1.384 . S
C442 C135 1.467 . S
C453 C78 1.853 . S
C455 C213 1.935 . S
C466 C180 1.418 . S
C464 C116 1.456 . S
C477 C170 1.967 . S
C475 C139 1.959 . S
C486 C106 1.170 . S
C488 C194 1.376 . S
