# Generated by pormake.
# Topology pyr, (3,6)-cn, num edge types: 1
# Building blocks:
#     Node 0, Type 0, BuildingBlock: VETTIZ_charged_linker_0, # of connection points: 3
#     Node 1, Type 0, BuildingBlock: VETTIZ_charged_linker_0, # of connection points: 3
#     Node 2, Type 0, BuildingBlock: VETTIZ_charged_linker_0, # of connection points: 3
#     Node 3, Type 0, BuildingBlock: VETTIZ_charged_linker_0, # of connection points: 3
#     Node 4, Type 0, BuildingBlock: VETTIZ_charged_linker_0, # of connection points: 3
#     Node 5, Type 0, BuildingBlock: VETTIZ_charged_linker_0, # of connection points: 3
#     Node 6, Type 0, BuildingBlock: VETTIZ_charged_linker_0, # of connection points: 3
#     Node 7, Type 0, BuildingBlock: VETTIZ_charged_linker_0, # of connection points: 3
#     Node 8, Type 1, BuildingBlock: LEVNOQ01_clean_sbu_1, # of connection points: 6
#     Node 9, Type 1, BuildingBlock: LEVNOQ01_clean_sbu_1, # of connection points: 6
#     Node 10, Type 1, BuildingBlock: LEVNOQ01_clean_sbu_1, # of connection points: 6
#     Node 11, Type 1, BuildingBlock: LEVNOQ01_clean_sbu_1, # of connection points: 6
#     Edge 12, Type (0, 1), BuildingBlock: KIFKEQ_clean_linker_1, # of connection points: 2
#     Edge 13, Type (0, 1), BuildingBlock: KIFKEQ_clean_linker_1, # of connection points: 2
#     Edge 14, Type (0, 1), BuildingBlock: KIFKEQ_clean_linker_1, # of connection points: 2
#     Edge 15, Type (0, 1), BuildingBlock: KIFKEQ_clean_linker_1, # of connection points: 2
#     Edge 16, Type (0, 1), BuildingBlock: KIFKEQ_clean_linker_1, # of connection points: 2
#     Edge 17, Type (0, 1), BuildingBlock: KIFKEQ_clean_linker_1, # of connection points: 2
#     Edge 18, Type (0, 1), BuildingBlock: KIFKEQ_clean_linker_1, # of connection points: 2
#     Edge 19, Type (0, 1), BuildingBlock: KIFKEQ_clean_linker_1, # of connection points: 2
#     Edge 20, Type (0, 1), BuildingBlock: KIFKEQ_clean_linker_1, # of connection points: 2
#     Edge 21, Type (0, 1), BuildingBlock: KIFKEQ_clean_linker_1, # of connection points: 2
#     Edge 22, Type (0, 1), BuildingBlock: KIFKEQ_clean_linker_1, # of connection points: 2
#     Edge 23, Type (0, 1), BuildingBlock: KIFKEQ_clean_linker_1, # of connection points: 2
#     Edge 24, Type (0, 1), BuildingBlock: KIFKEQ_clean_linker_1, # of connection points: 2
#     Edge 25, Type (0, 1), BuildingBlock: KIFKEQ_clean_linker_1, # of connection points: 2
#     Edge 26, Type (0, 1), BuildingBlock: KIFKEQ_clean_linker_1, # of connection points: 2
#     Edge 27, Type (0, 1), BuildingBlock: KIFKEQ_clean_linker_1, # of connection points: 2
#     Edge 28, Type (0, 1), BuildingBlock: KIFKEQ_clean_linker_1, # of connection points: 2
#     Edge 29, Type (0, 1), BuildingBlock: KIFKEQ_clean_linker_1, # of connection points: 2
#     Edge 30, Type (0, 1), BuildingBlock: KIFKEQ_clean_linker_1, # of connection points: 2
#     Edge 31, Type (0, 1), BuildingBlock: KIFKEQ_clean_linker_1, # of connection points: 2
#     Edge 32, Type (0, 1), BuildingBlock: KIFKEQ_clean_linker_1, # of connection points: 2
#     Edge 33, Type (0, 1), BuildingBlock: KIFKEQ_clean_linker_1, # of connection points: 2
#     Edge 34, Type (0, 1), BuildingBlock: KIFKEQ_clean_linker_1, # of connection points: 2
#     Edge 35, Type (0, 1), BuildingBlock: KIFKEQ_clean_linker_1, # of connection points: 2
# Relax obj value: 0.035
# Max RMSD: 0.111
# Mean RMSD: 0.047
data_MOF--net-pry--node1-LEVNOQ01_clean_sbu_1--node2-VETTIZ_charged_linker_0--edge1-KIFKEQ_clean_linker_1
_symmetry_space_group_name_H-M    P1
_symmetry_Int_Tables_number       1
_symmetry_cell_setting            triclinic
loop_
_symmetry_equiv_pos_as_xyz
'x, y, z'
_cell_length_a     46.143002
_cell_length_b     44.48481
_cell_length_c     44.478224
_cell_angle_alpha  92.188353
_cell_angle_beta   91.266237
_cell_angle_gamma 93.745112
loop_
_atom_site_label
_atom_site_type_symbol
_atom_site_fract_x
_atom_site_fract_y
_atom_site_fract_z
_atom_type_partial_charge
C0 C 0.12473 0.10447 0.2328 0.0
C1 C 0.10327 0.11774 0.25008 0.0
C2 C 0.08979 0.14258 0.23836 0.0
C3 C 0.1188 0.14034 0.19351 0.0
C4 C 0.13225 0.11622 0.20492 0.0
C5 C 0.15551 0.10562 0.18453 0.0
H6 H 0.23635 0.12609 0.06054 0.0
C7 C 0.13194 0.14739 0.16423 0.0
C8 C 0.15365 0.12722 0.15896 0.0
H9 H 0.24505 0.05982 0.12822 0.0
H10 H 0.20279 0.07698 0.15308 0.0
H11 H 0.22264 0.18097 0.10524 0.0
H12 H 0.16587 0.1164 0.05397 0.0
H13 H 0.15048 0.15142 0.05262 0.0
H14 H 0.18565 0.14694 0.03665 0.0
H15 H 0.21935 0.18061 0.06492 0.0
H16 H 0.19496 0.20041 0.08838 0.0
C17 C 0.185 0.10992 0.20202 0.0
C18 C 0.14689 0.07266 0.17377 0.0
C19 C 0.09534 0.23278 0.10361 0.0
C20 C 0.1036 0.24545 0.0762 0.0
C21 C 0.12623 0.23269 0.06024 0.0
C22 C 0.14039 0.20822 0.07138 0.0
C23 C 0.13216 0.1963 0.09901 0.0
C24 C 0.10989 0.20856 0.11456 0.0
C25 C 0.10425 0.19334 0.14375 0.0
C26 C 0.12642 0.16954 0.14292 0.0
C27 C 0.14286 0.17147 0.11674 0.0
C28 C 0.11077 0.21702 0.16992 0.0
C29 C 0.0727 0.17909 0.14246 0.0
C30 C 0.22919 0.11531 0.08076 0.0
C31 C 0.24433 0.09173 0.09256 0.0
C32 C 0.2338 0.07792 0.11855 0.0
C33 C 0.20938 0.08812 0.13314 0.0
C34 C 0.19518 0.11247 0.12171 0.0
C35 C 0.20478 0.12521 0.09556 0.0
C36 C 0.18671 0.15047 0.08633 0.0
C37 C 0.16527 0.15147 0.11175 0.0
C38 C 0.17042 0.12925 0.13253 0.0
C39 C 0.2068 0.17974 0.08593 0.0
C40 C 0.17144 0.14114 0.05571 0.0
H41 H 0.08613 0.17264 0.20282 0.0
H42 H 0.13546 0.0852 0.24061 0.0
H43 H 0.12302 0.06931 0.16955 0.0
H44 H 0.15666 0.06635 0.15218 0.0
H45 H 0.15297 0.05658 0.19096 0.0
H46 H 0.1859 0.13061 0.21697 0.0
H47 H 0.18842 0.09051 0.21638 0.0
H48 H 0.20371 0.11323 0.18721 0.0
H49 H 0.07778 0.24141 0.1164 0.0
H50 H 0.13349 0.24198 0.03934 0.0
H51 H 0.1575 0.19976 0.05819 0.0
H52 H 0.12868 0.23367 0.16422 0.0
H53 H 0.0914 0.22973 0.17491 0.0
H54 H 0.11849 0.20701 0.19073 0.0
H55 H 0.06711 0.16893 0.11965 0.0
H56 H 0.06924 0.16046 0.15793 0.0
H57 H 0.05692 0.19631 0.1475 0.0
H58 H 0.07369 0.15386 0.25111 0.0
C59 C 0.09727 0.15375 0.21028 0.0
C60 C 0.27734 0.89511 0.56668 0.0
C61 C 0.2609 0.91837 0.57792 0.0
C62 C 0.27054 0.93451 0.60462 0.0
C63 C 0.31259 0.90483 0.60792 0.0
C64 C 0.30302 0.88882 0.58193 0.0
C65 C 0.32321 0.86509 0.57279 0.0
H66 H 0.44638 0.79483 0.59845 0.0
C67 C 0.34031 0.89306 0.61789 0.0
C68 C 0.34667 0.86983 0.59731 0.0
H69 H 0.38043 0.7741 0.52865 0.0
H70 H 0.35388 0.81563 0.54668 0.0
H71 H 0.44831 0.86661 0.59519 0.0
H72 H 0.40065 0.80501 0.65129 0.0
H73 H 0.41473 0.83583 0.67423 0.0
H74 H 0.43931 0.81251 0.65474 0.0
H75 H 0.46539 0.84904 0.62597 0.0
H76 H 0.44788 0.88392 0.63131 0.0
C77 C 0.33502 0.87253 0.5414 0.0
C78 C 0.30642 0.83382 0.57412 0.0
C79 C 0.39301 0.93748 0.71295 0.0
C80 C 0.41968 0.93199 0.72698 0.0
C81 C 0.43684 0.91018 0.71376 0.0
C82 C 0.42757 0.89393 0.68728 0.0
C83 C 0.40081 0.89948 0.67363 0.0
C84 C 0.38416 0.9212 0.68627 0.0
C85 C 0.35686 0.92478 0.66794 0.0
C86 C 0.35963 0.90125 0.64264 0.0
C87 C 0.38532 0.88635 0.64621 0.0
C88 C 0.3582 0.95723 0.65628 0.0
C89 C 0.3305 0.91691 0.68781 0.0
C90 C 0.42615 0.79907 0.58708 0.0
C91 C 0.41563 0.78095 0.56196 0.0
C92 C 0.38941 0.78782 0.54768 0.0
C93 C 0.37379 0.81183 0.55842 0.0
C94 C 0.38427 0.82921 0.5839 0.0
C95 C 0.41009 0.82276 0.59775 0.0
C96 C 0.41748 0.84312 0.62506 0.0
C97 C 0.39174 0.86276 0.62539 0.0
C98 C 0.37245 0.85452 0.60116 0.0
C99 C 0.44635 0.86159 0.61941 0.0
C100 C 0.41834 0.82329 0.65291 0.0
H101 H 0.30233 0.941 0.63977 0.0
H102 H 0.27069 0.8824 0.54615 0.0
H103 H 0.28983 0.83387 0.59191 0.0
H104 H 0.32055 0.81578 0.58026 0.0
H105 H 0.29494 0.82736 0.55239 0.0
H106 H 0.33929 0.89729 0.53953 0.0
H107 H 0.31915 0.86456 0.52322 0.0
H108 H 0.35604 0.86294 0.53692 0.0
H109 H 0.37949 0.95432 0.72233 0.0
H110 H 0.45732 0.90527 0.72425 0.0
H111 H 0.44157 0.87756 0.67854 0.0
H112 H 0.38097 0.96543 0.65197 0.0
H113 H 0.34937 0.97325 0.67293 0.0
H114 H 0.34661 0.95872 0.63444 0.0
H115 H 0.33463 0.89737 0.70182 0.0
H116 H 0.3105 0.90997 0.67459 0.0
H117 H 0.32615 0.93621 0.70328 0.0
H118 H 0.25805 0.95219 0.61409 0.0
C119 C 0.29623 0.92788 0.61962 0.0
C120 C 0.60555 0.2778 0.89705 0.0
C121 C 0.58556 0.25974 0.87878 0.0
C122 C 0.57119 0.27263 0.85473 0.0
C123 C 0.59988 0.31963 0.86467 0.0
C124 C 0.61223 0.3077 0.88972 0.0
C125 C 0.63424 0.32957 0.9056 0.0
H126 H 0.72415 0.45433 0.89918 0.0
C127 C 0.61439 0.34968 0.86077 0.0
C128 C 0.63411 0.35601 0.88496 0.0
H129 H 0.71976 0.38829 0.96825 0.0
H130 H 0.67571 0.3652 0.94537 0.0
H131 H 0.65202 0.46154 0.89219 0.0
H132 H 0.71357 0.40828 0.84644 0.0
H133 H 0.68992 0.42098 0.81903 0.0
H134 H 0.71242 0.44807 0.84165 0.0
H135 H 0.67916 0.4777 0.8682 0.0
H136 H 0.64452 0.46201 0.85322 0.0
C137 C 0.62286 0.33779 0.9372 0.0
C138 C 0.66383 0.31493 0.90597 0.0
C139 C 0.60138 0.39816 0.76097 0.0
C140 C 0.61472 0.42364 0.74803 0.0
C141 C 0.63441 0.44285 0.76574 0.0
C142 C 0.64117 0.43626 0.79561 0.0
C143 C 0.62831 0.41004 0.8078 0.0
C144 C 0.60833 0.39192 0.79065 0.0
C145 C 0.597 0.36479 0.80678 0.0
C146 C 0.6139 0.3692 0.83637 0.0
C147 C 0.6323 0.39563 0.8369 0.0
C148 C 0.56394 0.36706 0.81113 0.0
C149 C 0.60519 0.33638 0.7883 0.0
C150 C 0.7137 0.43493 0.90949 0.0
C151 C 0.72596 0.42285 0.93531 0.0
C152 C 0.71098 0.39819 0.94843 0.0
C153 C 0.68555 0.38447 0.93485 0.0
C154 C 0.67529 0.39503 0.9075 0.0
C155 C 0.68867 0.42053 0.89581 0.0
C156 C 0.67522 0.42799 0.8661 0.0
C157 C 0.65177 0.40253 0.86177 0.0
C158 C 0.65222 0.3831 0.88593 0.0
C159 C 0.66214 0.45903 0.86984 0.0
C160 C 0.69885 0.42652 0.8419 0.0
H161 H 0.56724 0.31085 0.82845 0.0
H162 H 0.61622 0.2686 0.91626 0.0
H163 H 0.66745 0.30335 0.88389 0.0
H164 H 0.68266 0.33126 0.90966 0.0
H165 H 0.66452 0.29787 0.92354 0.0
H166 H 0.59869 0.33599 0.93735 0.0
H167 H 0.63073 0.32255 0.95436 0.0
H168 H 0.629 0.36146 0.9445 0.0
H169 H 0.58638 0.38273 0.748 0.0
H170 H 0.64453 0.46302 0.75653 0.0
H171 H 0.65647 0.45154 0.80791 0.0
H172 H 0.55832 0.39098 0.81332 0.0
H173 H 0.55109 0.35633 0.79172 0.0
H174 H 0.55635 0.35696 0.83215 0.0
H175 H 0.62679 0.3403 0.77797 0.0
H176 H 0.60746 0.31647 0.80191 0.0
H177 H 0.58905 0.33041 0.7698 0.0
H178 H 0.55542 0.25918 0.84066 0.0
C179 C 0.57817 0.30256 0.84766 0.0
C180 C 0.93674 0.70129 0.43125 0.0
C181 C 0.92668 0.71726 0.4564 0.0
C182 C 0.90431 0.70354 0.4733 0.0
C183 C 0.89939 0.66116 0.43712 0.0
C184 C 0.92254 0.67376 0.42173 0.0
C185 C 0.92757 0.65676 0.39268 0.0
H186 H 0.87809 0.55373 0.28563 0.0
C187 C 0.88721 0.63439 0.41919 0.0
C188 C 0.9037 0.6317 0.39318 0.0
H189 H 0.95162 0.61891 0.28285 0.0
H190 H 0.94501 0.63373 0.33472 0.0
H191 H 0.89341 0.52924 0.34887 0.0
H192 H 0.83558 0.59682 0.32435 0.0
H193 H 0.81759 0.56983 0.34684 0.0
H194 H 0.83181 0.55787 0.31167 0.0
H195 H 0.85641 0.51921 0.33754 0.0
H196 H 0.86659 0.52903 0.37635 0.0
C197 C 0.95806 0.64427 0.39468 0.0
C198 C 0.92327 0.67827 0.3664 0.0
C199 C 0.79183 0.58083 0.4482 0.0
C200 C 0.77473 0.55631 0.4348 0.0
C201 C 0.78651 0.5392 0.4112 0.0
C202 C 0.81341 0.54803 0.39927 0.0
C203 C 0.82883 0.57419 0.41104 0.0
C204 C 0.81888 0.58912 0.43616 0.0
C205 C 0.83937 0.61528 0.44676 0.0
C206 C 0.86252 0.61425 0.42303 0.0
C207 C 0.85569 0.59063 0.40166 0.0
C208 C 0.85156 0.60857 0.47835 0.0
C209 C 0.82277 0.64442 0.44569 0.0
C210 C 0.89283 0.57106 0.29632 0.0
C211 C 0.915 0.58565 0.27992 0.0
C212 C 0.93389 0.60792 0.29472 0.0
C213 C 0.93012 0.61639 0.32491 0.0
C214 C 0.90699 0.60276 0.34055 0.0
C215 C 0.88917 0.58003 0.3265 0.0
C216 C 0.86577 0.56813 0.34684 0.0
C217 C 0.87191 0.58837 0.37496 0.0
C218 C 0.89594 0.60867 0.37096 0.0
C219 C 0.87053 0.53463 0.35266 0.0
C220 C 0.83601 0.57325 0.33178 0.0
H221 H 0.87314 0.66672 0.47704 0.0
H222 H 0.95413 0.71094 0.41795 0.0
H223 H 0.90885 0.69647 0.37272 0.0
H224 H 0.91227 0.66684 0.34638 0.0
H225 H 0.9443 0.68929 0.35967 0.0
H226 H 0.96241 0.63597 0.41753 0.0
H227 H 0.97531 0.66203 0.39022 0.0
H228 H 0.96033 0.62466 0.37911 0.0
H229 H 0.78377 0.59436 0.46655 0.0
H230 H 0.7745 0.51943 0.40124 0.0
H231 H 0.82076 0.53472 0.3807 0.0
H232 H 0.85381 0.58399 0.48055 0.0
H233 H 0.83696 0.61604 0.4963 0.0
H234 H 0.87367 0.6191 0.48285 0.0
H235 H 0.80835 0.64392 0.42527 0.0
H236 H 0.83717 0.66504 0.44423 0.0
H237 H 0.80896 0.64689 0.46566 0.0
H238 H 0.89601 0.71532 0.49272 0.0
C239 C 0.89077 0.67546 0.46391 0.0
C240 C 0.8906 0.78652 0.93678 0.0
C241 C 0.9136 0.77014 0.92584 0.0
C242 C 0.92745 0.77977 0.89954 0.0
C243 C 0.89465 0.81999 0.89481 0.0
C244 C 0.8815 0.81115 0.92097 0.0
C245 C 0.85678 0.83026 0.92898 0.0
H246 H 0.76743 0.93908 0.89178 0.0
C247 C 0.879 0.8453 0.88293 0.0
C248 C 0.85676 0.85144 0.90292 0.0
H249 H 0.76705 0.8869 0.9719 0.0
H250 H 0.80883 0.86201 0.955 0.0
H251 H 0.77941 0.88694 0.84624 0.0
H252 H 0.83955 0.95229 0.89204 0.0
H253 H 0.84903 0.94939 0.85397 0.0
H254 H 0.81393 0.9619 0.86357 0.0
H255 H 0.78407 0.92508 0.83455 0.0
H256 H 0.80675 0.89624 0.82076 0.0
C257 C 0.82857 0.80938 0.92918 0.0
C258 C 0.86459 0.84736 0.95939 0.0
C259 C 0.90847 0.89046 0.78356 0.0
C260 C 0.89639 0.91202 0.76554 0.0
C261 C 0.87146 0.9258 0.77542 0.0
C262 C 0.85894 0.91852 0.80291 0.0
C263 C 0.87121 0.89691 0.82069 0.0
C264 C 0.8954 0.88306 0.81077 0.0
C265 C 0.90448 0.85942 0.83179 0.0
C266 C 0.88217 0.86183 0.85628 0.0
C267 C 0.86286 0.88403 0.84977 0.0
C268 C 0.9014 0.82841 0.81446 0.0
C269 C 0.9356 0.86871 0.84393 0.0
C270 C 0.77654 0.92258 0.90588 0.0
C271 C 0.76348 0.91479 0.9331 0.0
C272 C 0.77612 0.89295 0.95054 0.0
C273 C 0.80057 0.87856 0.94076 0.0
C274 C 0.81282 0.88594 0.91316 0.0
C275 C 0.80109 0.90795 0.89642 0.0
C276 C 0.81724 0.913 0.86779 0.0
C277 C 0.84046 0.89037 0.8701 0.0
C278 C 0.83764 0.87442 0.89667 0.0
C279 C 0.7959 0.90518 0.84078 0.0
C280 C 0.83058 0.94589 0.86908 0.0
H281 H 0.92949 0.81038 0.86411 0.0
H282 H 0.87967 0.7802 0.95711 0.0
H283 H 0.88845 0.85254 0.96203 0.0
H284 H 0.85519 0.86956 0.96122 0.0
H285 H 0.85754 0.83377 0.97868 0.0
H286 H 0.828 0.79244 0.91007 0.0
H287 H 0.82714 0.79694 0.95033 0.0
H288 H 0.80868 0.82153 0.92627 0.0
H289 H 0.92738 0.87918 0.77634 0.0
H290 H 0.86188 0.94258 0.76201 0.0
H291 H 0.8401 0.92996 0.80921 0.0
H292 H 0.88326 0.82752 0.79748 0.0
H293 H 0.92155 0.82387 0.80235 0.0
H294 H 0.89583 0.80953 0.82915 0.0
H295 H 0.93817 0.89342 0.84908 0.0
H296 H 0.94087 0.85815 0.86526 0.0
H297 H 0.95205 0.86311 0.82709 0.0
H298 H 0.94494 0.76757 0.89022 0.0
C299 C 0.9182 0.80453 0.88412 0.0
C300 C 0.73261 0.12494 0.44501 0.0
C301 C 0.74718 0.10004 0.43438 0.0
C302 C 0.73447 0.08139 0.41069 0.0
C303 C 0.69396 0.11325 0.40756 0.0
C304 C 0.70592 0.13088 0.43156 0.0
C305 C 0.68694 0.15573 0.44076 0.0
H306 H 0.56572 0.23031 0.41674 0.0
C307 C 0.66659 0.12603 0.39807 0.0
C308 C 0.66212 0.15066 0.41774 0.0
H309 H 0.63031 0.24621 0.48852 0.0
H310 H 0.65687 0.20526 0.46863 0.0
H311 H 0.56177 0.15689 0.41818 0.0
H312 H 0.61032 0.22061 0.36521 0.0
H313 H 0.60026 0.18935 0.34115 0.0
H314 H 0.57244 0.21079 0.35786 0.0
H315 H 0.54521 0.17882 0.39027 0.0
H316 H 0.55978 0.14323 0.38048 0.0
C317 C 0.67679 0.15035 0.47325 0.0
C318 C 0.70432 0.18628 0.437 0.0
C319 C 0.61335 0.08515 0.30215 0.0
C320 C 0.58933 0.09468 0.28596 0.0
C321 C 0.57369 0.11814 0.29842 0.0
C322 C 0.5823 0.1325 0.32606 0.0
C323 C 0.60701 0.12355 0.34146 0.0
C324 C 0.62193 0.10003 0.32962 0.0
C325 C 0.64826 0.09433 0.34862 0.0
C326 C 0.6469 0.11858 0.37349 0.0
C327 C 0.62262 0.13554 0.36923 0.0
C328 C 0.64401 0.06219 0.36079 0.0
C329 C 0.67546 0.09947 0.32916 0.0
C330 C 0.58535 0.22469 0.42846 0.0
C331 C 0.59579 0.2415 0.4544 0.0
C332 C 0.62185 0.23382 0.46844 0.0
C333 C 0.63719 0.2099 0.45693 0.0
C334 C 0.62649 0.19339 0.43099 0.0
C335 C 0.60096 0.20088 0.41722 0.0
C336 C 0.5931 0.18115 0.3896 0.0
C337 C 0.61767 0.16003 0.38956 0.0
C338 C 0.63727 0.16747 0.41373 0.0
C339 C 0.56332 0.16417 0.39457 0.0
C340 C 0.5938 0.20133 0.36191 0.0
H341 H 0.69965 0.07308 0.37899 0.0
H342 H 0.74171 0.13933 0.46353 0.0
H343 H 0.71663 0.18585 0.41578 0.0
H344 H 0.69035 0.20537 0.43528 0.0
H345 H 0.72021 0.19124 0.45594 0.0
H346 H 0.67542 0.12592 0.478 0.0
H347 H 0.69208 0.16202 0.49019 0.0
H348 H 0.65464 0.15753 0.47711 0.0
H349 H 0.62599 0.06743 0.29298 0.0
H350 H 0.55496 0.1257 0.28645 0.0
H351 H 0.56968 0.15043 0.33408 0.0
H352 H 0.6206 0.05562 0.36382 0.0
H353 H 0.65268 0.04516 0.34508 0.0
H354 H 0.65416 0.06045 0.38336 0.0
H355 H 0.67359 0.11963 0.31535 0.0
H356 H 0.69575 0.10402 0.34256 0.0
H357 H 0.678 0.07979 0.31354 0.0
H358 H 0.74541 0.06212 0.40214 0.0
C359 C 0.708 0.08789 0.39719 0.0
C360 C 0.38739 0.62731 0.25704 0.0
C361 C 0.3738 0.60133 0.26908 0.0
C362 C 0.35297 0.58368 0.25124 0.0
C363 C 0.35927 0.61778 0.21049 0.0
C364 C 0.37979 0.63508 0.22781 0.0
C365 C 0.39126 0.6625 0.21191 0.0
H366 H 0.38372 0.74972 0.09102 0.0
C367 C 0.3555 0.63247 0.18165 0.0
C368 C 0.37409 0.65877 0.18233 0.0
H369 H 0.43694 0.76733 0.17172 0.0
H370 H 0.41892 0.7195 0.19098 0.0
H371 H 0.32843 0.72783 0.12294 0.0
H372 H 0.39555 0.67869 0.0823 0.0
H373 H 0.36228 0.65896 0.07225 0.0
H374 H 0.36914 0.6972 0.06076 0.0
H375 H 0.33056 0.72217 0.08293 0.0
H376 H 0.31088 0.69539 0.10562 0.0
C377 C 0.38366 0.69092 0.23062 0.0
C378 C 0.42417 0.66003 0.20724 0.0
C379 C 0.27855 0.58944 0.10574 0.0
C380 C 0.26795 0.59993 0.07845 0.0
C381 C 0.28224 0.62532 0.06601 0.0
C382 C 0.30607 0.64071 0.0811 0.0
C383 C 0.31549 0.63084 0.10911 0.0
C384 C 0.30215 0.60526 0.12069 0.0
C385 C 0.31439 0.5987 0.15119 0.0
C386 C 0.33695 0.6249 0.15623 0.0
C387 C 0.33747 0.64356 0.13154 0.0
C388 C 0.2896 0.59974 0.17418 0.0
C389 C 0.32859 0.56814 0.14853 0.0
C390 C 0.39181 0.74312 0.11269 0.0
C391 C 0.41184 0.7621 0.12987 0.0
C392 C 0.42134 0.75305 0.15824 0.0
C393 C 0.41091 0.72532 0.16928 0.0
C394 C 0.39048 0.70678 0.1519 0.0
C395 C 0.38147 0.71582 0.12404 0.0
C396 C 0.35909 0.69402 0.1089 0.0
C397 C 0.35607 0.67022 0.13222 0.0
C398 C 0.37442 0.67775 0.15739 0.0
C399 C 0.33074 0.71052 0.10457 0.0
C400 C 0.37189 0.68158 0.07936 0.0
H401 H 0.32971 0.57731 0.20977 0.0
H402 H 0.40373 0.64119 0.26995 0.0
H403 H 0.42875 0.63653 0.20035 0.0
H404 H 0.43268 0.67413 0.1891 0.0
H405 H 0.43684 0.66624 0.22834 0.0
H406 H 0.3629 0.6868 0.24252 0.0
H407 H 0.40087 0.69758 0.2479 0.0
H408 H 0.38002 0.71036 0.21663 0.0
H409 H 0.26773 0.57027 0.11611 0.0
H410 H 0.27459 0.63361 0.04487 0.0
H411 H 0.31569 0.6602 0.07073 0.0
H412 H 0.27325 0.61568 0.16742 0.0
H413 H 0.27804 0.5772 0.17596 0.0
H414 H 0.29726 0.60821 0.19683 0.0
H415 H 0.33986 0.56581 0.12678 0.0
H416 H 0.34557 0.56578 0.16601 0.0
H417 H 0.312 0.54896 0.14947 0.0
H418 H 0.34187 0.56379 0.26001 0.0
C419 C 0.34579 0.59165 0.22205 0.0
C420 C 0.05493 0.30833 0.58771 0.0
C421 C 0.06143 0.29215 0.56113 0.0
C422 C 0.08533 0.30276 0.54432 0.0
C423 C 0.0971 0.34298 0.58178 0.0
C424 C 0.07315 0.33326 0.59775 0.0
C425 C 0.07087 0.35095 0.62702 0.0
H426 H 0.13101 0.4544 0.72954 0.0
C427 C 0.11275 0.36805 0.59946 0.0
C428 C 0.09747 0.37282 0.62602 0.0
H429 H 0.05002 0.40068 0.73483 0.0
H430 H 0.05649 0.37904 0.68497 0.0
H431 H 0.11925 0.47484 0.6653 0.0
H432 H 0.16863 0.40275 0.69576 0.0
H433 H 0.18928 0.42324 0.66962 0.0
H434 H 0.17837 0.44208 0.70357 0.0
H435 H 0.15641 0.48148 0.67775 0.0
H436 H 0.14668 0.47108 0.63897 0.0
C437 C 0.04231 0.3674 0.62604 0.0
C438 C 0.07311 0.32887 0.65299 0.0
C439 C 0.20803 0.4159 0.56228 0.0
C440 C 0.22705 0.43968 0.57402 0.0
C441 C 0.22012 0.45492 0.60102 0.0
C442 C 0.19503 0.44634 0.61644 0.0
C443 C 0.17652 0.4222 0.60483 0.0
C444 C 0.18276 0.4078 0.57787 0.0
C445 C 0.15981 0.38339 0.56857 0.0
C446 C 0.139 0.38548 0.59449 0.0
C447 C 0.14927 0.40788 0.6159 0.0
C448 C 0.14565 0.39185 0.53841 0.0
C449 C 0.1743 0.35293 0.5673 0.0
C450 C 0.11498 0.43762 0.72002 0.0
C451 C 0.09026 0.42876 0.73614 0.0
C452 C 0.06932 0.40762 0.72277 0.0
C453 C 0.07313 0.3951 0.69387 0.0
C454 C 0.09811 0.40391 0.67805 0.0
C455 C 0.11828 0.4252 0.69097 0.0
C456 C 0.14257 0.43316 0.67013 0.0
C457 C 0.13419 0.41232 0.64302 0.0
C458 C 0.10829 0.39508 0.64791 0.0
C459 C 0.14146 0.46689 0.66268 0.0
C460 C 0.17137 0.42512 0.68543 0.0
H461 H 0.12119 0.3346 0.54088 0.0
H462 H 0.03656 0.30121 0.60106 0.0
H463 H 0.08914 0.31188 0.64782 0.0
H464 H 0.08097 0.33998 0.67449 0.0
H465 H 0.05185 0.31647 0.65656 0.0
H466 H 0.03709 0.37415 0.6028 0.0
H467 H 0.02369 0.35268 0.63351 0.0
H468 H 0.04371 0.38872 0.63976 0.0
H469 H 0.21268 0.40397 0.54144 0.0
H470 H 0.23458 0.4731 0.6107 0.0
H471 H 0.19125 0.4586 0.63703 0.0
H472 H 0.14441 0.41669 0.53741 0.0
H473 H 0.15841 0.3843 0.51896 0.0
H474 H 0.12294 0.38256 0.53538 0.0
H475 H 0.1908 0.35212 0.58583 0.0
H476 H 0.15886 0.33337 0.57047 0.0
H477 H 0.18548 0.34957 0.54569 0.0
H478 H 0.09125 0.29069 0.52401 0.0
C479 C 0.10303 0.32812 0.55439 0.0
O480 O 0.01542 0.00571 0.58896 0.0
Mg481 Mg 0.04153 0.03315 0.56109 0.0
O482 O 0.98569 0.98699 0.55192 0.0
Mg483 Mg 0.00256 0.00707 0.50635 0.0
O484 O 0.0174 0.05294 0.52926 0.0
O485 O 0.04243 0.07913 0.56621 0.0
O486 O 0.02227 0.03146 0.46215 0.0
O487 O 0.95757 0.02742 0.5016 0.0
Mg488 Mg 0.98482 0.98947 0.4544 0.0
O489 O 0.98462 0.95815 0.48706 0.0
O490 O 0.02251 0.99366 0.42952 0.0
O491 O 0.95467 0.02361 0.4524 0.0
O492 O 0.96248 0.95081 0.44159 0.0
C493 C 0.07312 0.99259 0.52227 0.0
C494 C 0.9935 0.98891 0.57978 0.0
C495 C 0.02593 0.07862 0.54238 0.0
C496 C 0.03124 0.02022 0.43736 0.0
C497 C 0.94506 0.03347 0.477 0.0
C498 C 0.9699 0.94067 0.46718 0.0
O499 O 0.07711 0.01416 0.54156 0.0
O500 O 0.04804 0.98552 0.51027 0.0
O501 O 0.45794 0.07648 0.02508 0.0
Mg502 Mg 0.50327 0.07847 0.02744 0.0
O503 O 0.45732 0.02708 0.01719 0.0
Mg504 Mg 0.50535 0.0138 0.00537 0.0
O505 O 0.52218 0.06098 0.99011 0.0
O506 O 0.52366 0.11037 0.00323 0.0
O507 O 0.55496 0.00251 0.9932 0.0
O508 O 0.48768 0.00651 0.95508 0.0
Mg509 Mg 0.51559 0.95896 0.98941 0.0
O510 O 0.48579 0.96677 0.02171 0.0
O511 O 0.5575 0.95575 0.0059 0.0
O512 O 0.5097 0.96577 0.94315 0.0
O513 O 0.49108 0.92171 0.99829 0.0
C514 C 0.52969 0.04325 0.07428 0.0
C515 C 0.44401 0.05109 0.02224 0.0
C516 C 0.53012 0.08881 0.98485 0.0
C517 C 0.57024 0.98027 0.99897 0.0
C518 C 0.49477 0.98703 0.93528 0.0
C519 C 0.47939 0.93788 0.01873 0.0
O520 O 0.52459 0.06977 0.0676 0.0
O521 O 0.52331 0.0209 0.05585 0.0
O522 O 0.49696 0.57754 0.55524 0.0
Mg523 Mg 0.48833 0.53428 0.57037 0.0
O524 O 0.49212 0.56117 0.50757 0.0
Mg525 Mg 0.49855 0.50846 0.50467 0.0
O526 O 0.51691 0.50613 0.55272 0.0
O527 O 0.51637 0.51921 0.60164 0.0
O528 O 0.50551 0.45608 0.5008 0.0
O529 O 0.54652 0.52006 0.49101 0.0
Mg530 Mg 0.50956 0.48493 0.43635 0.0
O531 O 0.48068 0.51065 0.45681 0.0
O532 O 0.5048 0.44123 0.45249 0.0
O533 O 0.55077 0.50829 0.44228 0.0
O534 O 0.47873 0.50022 0.40753 0.0
C535 C 0.43476 0.50131 0.54126 0.0
C536 C 0.49444 0.58273 0.52759 0.0
C537 C 0.52761 0.50452 0.57972 0.0
C538 C 0.50586 0.43526 0.48011 0.0
C539 C 0.5614 0.51951 0.46712 0.0
C540 C 0.4686 0.51384 0.43075 0.0
O541 O 0.44539 0.51518 0.56485 0.0
O542 O 0.45035 0.49682 0.5183 0.0
O543 O 0.99341 0.43965 0.05083 0.0
Mg544 Mg 0.01133 0.48372 0.05724 0.0
O545 O 0.01319 0.45317 0.00917 0.0
Mg546 Mg 0.00018 0.5053 0.00603 0.0
O547 O 0.98372 0.51744 0.05568 0.0
O548 O 0.00046 0.49796 0.09834 0.0
O549 O 0.98886 0.55575 0.99868 0.0
O550 O 0.95022 0.48741 1.0011 0.0
Mg551 Mg 0.975 0.50214 0.95654 0.0
O552 O 0.01899 0.4983 0.9561 0.0
O553 O 0.95565 0.54367 0.96374 0.0
O554 O 0.94829 0.46235 0.95818 0.0
O555 O 0.99071 0.50514 0.9153 0.0
C556 C 0.06562 0.51286 0.03459 0.0
C557 C 0.00523 0.43223 0.02674 0.0
C558 C 0.9841 0.51586 0.08489 0.0
C559 C 0.96826 0.56338 0.98155 0.0
C560 C 0.93658 0.46862 0.98268 0.0
C561 C 0.01571 0.50078 0.92711 0.0
O562 O 0.05659 0.49348 0.05288 0.0
O563 O 0.04783 0.5232 0.01595 0.0
H564 H 0.04956 0.11576 0.27631 0.0
H565 H 0.13805 0.09275 0.29252 0.0
H566 H 0.03615 0.09649 0.32493 0.0
H567 H 0.12402 0.07219 0.34054 0.0
H568 H 0.07084 0.00101 0.39816 0.0
H569 H 0.0906 0.02724 0.35519 0.0
H570 H 0.0466 0.10626 0.38209 0.0
H571 H 0.02714 0.07999 0.42569 0.0
C572 C 0.06632 0.107 0.29024 0.0
C573 C 0.09501 0.10596 0.28012 0.0
C574 C 0.05853 0.09587 0.31819 0.0
C575 C 0.07903 0.08294 0.33665 0.0
C576 C 0.10768 0.08191 0.32674 0.0
C577 C 0.11563 0.09347 0.299 0.0
C578 C 0.06598 0.02425 0.39535 0.0
C579 C 0.04751 0.03848 0.41533 0.0
C580 C 0.07732 0.03928 0.37072 0.0
C581 C 0.07 0.06874 0.3651 0.0
C582 C 0.05245 0.08347 0.38576 0.0
C583 C 0.04157 0.06859 0.41086 0.0
H584 H 0.47361 0.95821 0.74115 0.0
H585 H 0.38825 0.94246 0.77748 0.0
H586 H 0.49182 0.97913 0.78993 0.0
H587 H 0.40657 0.96289 0.82663 0.0
H588 H 0.44672 0.01221 0.91115 0.0
H589 H 0.42786 0.00557 0.85899 0.0
H590 H 0.5017 0.95511 0.836 0.0
H591 H 0.52037 0.962 0.88723 0.0
C592 C 0.4587 0.95939 0.75957 0.0
C593 C 0.42962 0.94824 0.7556 0.0
C594 C 0.46911 0.97138 0.78754 0.0
C595 C 0.45079 0.97228 0.8124 0.0
C596 C 0.42125 0.96276 0.80798 0.0
C597 C 0.41076 0.95094 0.77984 0.0
C598 C 0.45911 0.00028 0.89469 0.0
C599 C 0.48492 0.98746 0.90334 0.0
C600 C 0.44822 0.99625 0.86492 0.0
C601 C 0.46322 0.97974 0.84325 0.0
C602 C 0.4897 0.96828 0.85182 0.0
C603 C 0.50034 0.97204 0.88138 0.0
H604 H 0.65185 0.44462 0.70494 0.0
H605 H 0.56184 0.41678 0.71915 0.0
H606 H 0.63943 0.4565 0.65309 0.0
H607 H 0.54976 0.42785 0.66771 0.0
H608 H 0.52682 0.44358 0.57826 0.0
H609 H 0.55598 0.41589 0.61304 0.0
H610 H 0.60988 0.49729 0.63458 0.0
H611 H 0.58086 0.52453 0.59989 0.0
C612 C 0.62951 0.44085 0.69699 0.0
C613 C 0.60781 0.42992 0.71623 0.0
C614 C 0.62252 0.44725 0.66723 0.0
C615 C 0.59374 0.44261 0.65617 0.0
C616 C 0.5723 0.4308 0.67519 0.0
C617 C 0.57921 0.42468 0.70485 0.0
C618 C 0.54604 0.45492 0.58904 0.0
C619 C 0.55167 0.48606 0.58679 0.0
C620 C 0.56251 0.43923 0.60918 0.0
C621 C 0.58465 0.45468 0.62712 0.0
C622 C 0.59297 0.48475 0.62116 0.0
C623 C 0.57641 0.5004 0.60123 0.0
H624 H 0.92548 0.62454 0.23478 0.0
H625 H 0.91221 0.52974 0.25172 0.0
H626 H 0.93513 0.61218 0.18218 0.0
H627 H 0.92197 0.51734 0.19923 0.0
H628 H 0.92985 0.49946 0.10197 0.0
H629 H 0.90643 0.51948 0.14663 0.0
H630 H 0.97544 0.58987 0.15735 0.0
H631 H 0.99831 0.56994 0.11254 0.0
C632 C 0.92457 0.60105 0.22723 0.0
C633 C 0.91848 0.57808 0.24747 0.0
C634 C 0.92997 0.594 0.19709 0.0
C635 C 0.92939 0.56381 0.1865 0.0
C636 C 0.92212 0.54087 0.20649 0.0
C637 C 0.91666 0.54794 0.23664 0.0
C638 C 0.9391 0.52007 0.11315 0.0
C639 C 0.96547 0.53361 0.10375 0.0
C640 C 0.92601 0.53125 0.13893 0.0
C641 C 0.93929 0.556 0.15579 0.0
C642 C 0.96447 0.57096 0.14477 0.0
C643 C 0.97754 0.55972 0.11904 0.0
H644 H 0.28884 0.12875 0.07313 0.0
H645 H 0.26259 0.03463 0.08171 0.0
H646 H 0.33479 0.11521 0.05295 0.0
H647 H 0.30865 0.02076 0.0606 0.0
H648 H 0.40968 0.01323 0.05599 0.0
H649 H 0.35969 0.02072 0.07082 0.0
H650 H 0.35692 0.09489 0.01098 0.0
H651 H 0.40699 0.08829 0.99772 0.0
C652 C 0.29267 0.10507 0.07013 0.0
C653 C 0.2719 0.08281 0.07887 0.0
C654 C 0.3191 0.0972 0.05841 0.0
C655 C 0.32555 0.06677 0.05469 0.0
C656 C 0.30467 0.04442 0.06332 0.0
C657 C 0.27821 0.05235 0.07536 0.0
C658 C 0.39801 0.03063 0.04559 0.0
C659 C 0.41219 0.05031 0.02589 0.0
C660 C 0.36937 0.03502 0.05409 0.0
C661 C 0.35431 0.05894 0.0427 0.0
C662 C 0.36799 0.07693 0.0211 0.0
C663 C 0.39661 0.07292 0.01314 0.0
H664 H 0.24325 0.97444 0.56777 0.0
H665 H 0.21767 0.87995 0.55174 0.0
H666 H 0.1977 0.98771 0.54537 0.0
H667 H 0.1722 0.8933 0.52794 0.0
H668 H 0.0806 0.93524 0.53783 0.0
H669 H 0.1276 0.9137 0.54453 0.0
H670 H 0.1692 0.98935 0.50037 0.0
H671 H 0.12234 0.01129 0.49513 0.0
C672 C 0.22795 0.95647 0.55921 0.0
C673 C 0.23395 0.92615 0.56191 0.0
C674 C 0.20196 0.96408 0.54584 0.0
C675 C 0.18124 0.94157 0.53461 0.0
C676 C 0.18759 0.91119 0.53648 0.0
C677 C 0.21372 0.90356 0.54992 0.0
C678 C 0.09969 0.94648 0.52846 0.0
C679 C 0.09807 0.97478 0.51594 0.0
C680 C 0.12667 0.93426 0.53237 0.0
C681 C 0.15232 0.95018 0.52365 0.0
C682 C 0.15 0.97691 0.50809 0.0
C683 C 0.12317 0.98929 0.50465 0.0
H684 H 0.77206 0.44067 0.90142 0.0
H685 H 0.74788 0.42792 0.99374 0.0
H686 H 0.82164 0.4545 0.91805 0.0
H687 H 0.79842 0.44068 0.01017 0.0
H688 H 0.90199 0.42369 0.00699 0.0
H689 H 0.84888 0.41548 0.99963 0.0
H690 H 0.84788 0.49755 0.95088 0.0
H691 H 0.90041 0.50567 0.95843 0.0
C692 C 0.77708 0.44139 0.92534 0.0
C693 C 0.75573 0.43348 0.94624 0.0
C694 C 0.80563 0.44909 0.93482 0.0
C695 C 0.81374 0.44871 0.96537 0.0
C696 C 0.79262 0.44095 0.98645 0.0
C697 C 0.76378 0.43363 0.97699 0.0
C698 C 0.89011 0.44019 0.99541 0.0
C699 C 0.90487 0.46525 0.98324 0.0
C700 C 0.8599 0.4356 0.99125 0.0
C701 C 0.84448 0.45583 0.97452 0.0
C702 C 0.85932 0.48158 0.96369 0.0
C703 C 0.88924 0.48626 0.96807 0.0
H704 H 0.7289 0.53857 0.39715 0.0
H705 H 0.75008 0.56164 0.49077 0.0
H706 H 0.67815 0.53202 0.40878 0.0
H707 H 0.69835 0.55701 0.50209 0.0
H708 H 0.60321 0.51164 0.51022 0.0
H709 H 0.65581 0.52151 0.50519 0.0
H710 H 0.64048 0.56368 0.42081 0.0
H711 H 0.58854 0.55242 0.42522 0.0
C712 C 0.72285 0.54199 0.42035 0.0
C713 C 0.7438 0.55052 0.44301 0.0
C714 C 0.6935 0.53885 0.42692 0.0
C715 C 0.68403 0.54468 0.45626 0.0
C716 C 0.70491 0.55246 0.47923 0.0
C717 C 0.73452 0.55536 0.47267 0.0
C718 C 0.61125 0.52353 0.49096 0.0
C719 C 0.59206 0.53093 0.46786 0.0
C720 C 0.6413 0.52918 0.48805 0.0
C721 C 0.65239 0.54264 0.46217 0.0
C722 C 0.63278 0.5523 0.44049 0.0
C723 C 0.60301 0.54614 0.44311 0.0
H724 H 0.09128 0.25933 0.01725 0.0
H725 H 0.08313 0.29274 0.10907 0.0
H726 H 0.06675 0.30279 0.99937 0.0
H727 H 0.05754 0.33488 0.0911 0.0
H728 H 0.05263 0.41296 0.99641 0.0
H729 H 0.07646 0.36592 0.00455 0.0
H730 H 0.00631 0.33577 0.06082 0.0
H731 H 0.98241 0.38206 0.0525 0.0
C732 C 0.08448 0.27586 0.03366 0.0
C733 C 0.08903 0.2721 0.06476 0.0
C734 C 0.07032 0.30067 0.02333 0.0
C735 C 0.05998 0.32196 0.04386 0.0
C736 C 0.06487 0.31851 0.07478 0.0
C737 C 0.07937 0.29413 0.08507 0.0
C738 C 0.04179 0.39578 0.00957 0.0
C739 C 0.01572 0.40137 0.02402 0.0
C740 C 0.05553 0.36897 0.01437 0.0
C741 C 0.04344 0.34752 0.03377 0.0
C742 C 0.01631 0.35213 0.04615 0.0
C743 C 0.00257 0.3786 0.04122 0.0
H744 H 0.53356 0.22755 0.88246 0.0
H745 H 0.62618 0.21907 0.88703 0.0
H746 H 0.52534 0.1756 0.89717 0.0
H747 H 0.61812 0.16667 0.90092 0.0
H748 H 0.58481 0.11273 0.98433 0.0
H749 H 0.60238 0.14815 0.94783 0.0
H750 H 0.52803 0.12171 0.88958 0.0
H751 H 0.51031 0.08637 0.92696 0.0
C752 C 0.55211 0.21424 0.8859 0.0
C753 C 0.58046 0.22736 0.88431 0.0
C754 C 0.54747 0.18434 0.89397 0.0
C755 C 0.57112 0.16694 0.90033 0.0
C756 C 0.59947 0.17957 0.89657 0.0
C757 C 0.60409 0.20957 0.88883 0.0
C758 C 0.57318 0.11327 0.96293 0.0
C759 C 0.54629 0.09713 0.9583 0.0
C760 C 0.58316 0.13366 0.94194 0.0
C761 C 0.56617 0.13834 0.9161 0.0
C762 C 0.54125 0.11901 0.9096 0.0
C763 C 0.53131 0.09847 0.9307 0.0
H764 H 0.93769 0.74885 0.51071 0.0
H765 H 0.93648 0.75922 0.41441 0.0
H766 H 0.94803 0.80361 0.51837 0.0
H767 H 0.9476 0.81284 0.42211 0.0
H768 H 0.92507 0.90624 0.44154 0.0
H769 H 0.91579 0.85206 0.44326 0.0
H770 H 0.98763 0.84778 0.50646 0.0
H771 H 0.99687 0.90288 0.50508 0.0
C772 C 0.93998 0.76265 0.49126 0.0
C773 C 0.93631 0.74959 0.46195 0.0
C774 C 0.94607 0.79386 0.49566 0.0
C775 C 0.94821 0.8124 0.47083 0.0
C776 C 0.94565 0.79913 0.44168 0.0
C777 C 0.93967 0.76824 0.4373 0.0
C778 C 0.93875 0.8939 0.45612 0.0
C779 C 0.96206 0.90869 0.47272 0.0
C780 C 0.93344 0.86285 0.45706 0.0
C781 C 0.95143 0.8457 0.47443 0.0
C782 C 0.97354 0.86055 0.49279 0.0
C783 C 0.97881 0.89197 0.49198 0.0
H784 H 0.4222 0.75839 0.50397 0.0
H785 H 0.44348 0.74197 0.59682 0.0
H786 H 0.44555 0.71269 0.48813 0.0
H787 H 0.46729 0.69729 0.58093 0.0
H788 H 0.45297 0.60434 0.49079 0.0
H789 H 0.4367 0.65577 0.49433 0.0
H790 H 0.51055 0.6831 0.55266 0.0
H791 H 0.52627 0.63189 0.5496 0.0
C792 C 0.43189 0.74519 0.521 0.0
C793 C 0.43106 0.75409 0.55173 0.0
C794 C 0.44536 0.71911 0.51186 0.0
C795 C 0.45861 0.70165 0.53321 0.0
C796 C 0.45794 0.71068 0.56382 0.0
C797 C 0.4443 0.73643 0.57295 0.0
C798 C 0.46633 0.62172 0.50324 0.0
C799 C 0.49071 0.61423 0.52014 0.0
C800 C 0.45695 0.6511 0.50543 0.0
C801 C 0.47198 0.67321 0.52443 0.0
C802 C 0.49817 0.66635 0.53844 0.0
C803 C 0.50735 0.63714 0.53643 0.0
H804 H 0.86992 0.91428 0.71006 0.0
H805 H 0.95313 0.92899 0.75605 0.0
H806 H 0.89203 0.92838 0.66281 0.0
H807 H 0.97512 0.94484 0.70961 0.0
H808 H 0.01564 0.95301 0.62085 0.0
H809 H 0.99145 0.93088 0.66352 0.0
H810 H 0.91108 0.96721 0.63474 0.0
H811 H 0.93527 0.98735 0.59072 0.0
C812 C 0.89296 0.92078 0.71003 0.0
C813 C 0.90984 0.92041 0.73668 0.0
C814 C 0.90568 0.92906 0.68296 0.0
C815 C 0.93557 0.93776 0.68195 0.0
C816 C 0.95228 0.93754 0.70891 0.0
C817 C 0.93966 0.92866 0.73576 0.0
C818 C 0.99262 0.95559 0.62338 0.0
C819 C 0.97727 0.97174 0.60251 0.0
C820 C 0.97875 0.94332 0.64814 0.0
C821 C 0.94928 0.94772 0.65335 0.0
C822 C 0.93366 0.96297 0.63162 0.0
C823 C 0.94747 0.97459 0.60631 0.0
H824 H 0.58286 0.03519 0.26599 0.0
H825 H 0.57972 0.12618 0.2362 0.0
H826 H 0.57169 0.01564 0.21416 0.0
H827 H 0.56877 0.10688 0.18502 0.0
H828 H 0.58035 0.0708 0.09376 0.0
H829 H 0.59745 0.07834 0.14589 0.0
H830 H 0.52746 0.01737 0.17395 0.0
H831 H 0.51048 0.00949 0.12115 0.0
C832 C 0.57981 0.05093 0.24839 0.0
C833 C 0.58201 0.0822 0.25509 0.0
C834 C 0.57334 0.03977 0.21887 0.0
C835 C 0.56967 0.05976 0.19558 0.0
C836 C 0.57187 0.09094 0.20244 0.0
C837 C 0.57785 0.102 0.2318 0.0
C838 C 0.56927 0.05814 0.11094 0.0
C839 C 0.54415 0.03961 0.1036 0.0
C840 C 0.5789 0.06262 0.14077 0.0
C841 C 0.56342 0.04893 0.16397 0.0
C842 C 0.53979 0.02817 0.15644 0.0
C843 C 0.53016 0.02354 0.12631 0.0
H844 H 0.38075 0.54444 0.28728 0.0
H845 H 0.38492 0.63732 0.32029 0.0
H846 H 0.39475 0.52882 0.33671 0.0
H847 H 0.39958 0.62151 0.37023 0.0
H848 H 0.47472 0.57385 0.42475 0.0
H849 H 0.44402 0.60012 0.39057 0.0
H850 H 0.38013 0.52457 0.38904 0.0
H851 H 0.41156 0.49804 0.42236 0.0
C852 C 0.38404 0.56151 0.30527 0.0
C853 C 0.38159 0.59212 0.2998 0.0
C854 C 0.39194 0.55252 0.33377 0.0
C855 C 0.39777 0.57389 0.35761 0.0
C856 C 0.39508 0.60454 0.35234 0.0
C857 C 0.38695 0.61357 0.3237 0.0
C858 C 0.45332 0.56374 0.41852 0.0
C859 C 0.4454 0.53401 0.42588 0.0
C860 C 0.43576 0.57868 0.39877 0.0
C861 C 0.41012 0.56393 0.38636 0.0
C862 C 0.40016 0.53613 0.39769 0.0
C863 C 0.41788 0.52111 0.41712 0.0
H864 H 0.1267 0.43122 0.78573 0.0
H865 H 0.04311 0.45698 0.75418 0.0
H866 H 0.11744 0.45285 0.83617 0.0
H867 H 0.03408 0.4788 0.80393 0.0
H868 H 0.03161 0.53756 0.88307 0.0
H869 H 0.05706 0.52312 0.83786 0.0
H870 H 0.07701 0.43958 0.87744 0.0
H871 H 0.05165 0.45438 0.92315 0.0
C872 C 0.10653 0.44175 0.78959 0.0
C873 C 0.08552 0.44244 0.76627 0.0
C874 C 0.10125 0.454 0.81831 0.0
C875 C 0.07524 0.46775 0.82376 0.0
C876 C 0.05453 0.46874 0.80021 0.0
C877 C 0.05954 0.45606 0.77184 0.0
C878 C 0.04256 0.51672 0.88262 0.0
C879 C 0.03959 0.49694 0.90633 0.0
C880 C 0.05693 0.50839 0.85672 0.0
C881 C 0.06837 0.47999 0.85399 0.0
C882 C 0.06835 0.46162 0.87906 0.0
C883 C 0.05399 0.47011 0.90522 0.0
H884 H 0.71656 0.88631 0.95865 0.0
H885 H 0.74826 0.9737 0.92952 0.0
H886 H 0.67272 0.90762 0.97636 0.0
H887 H 0.70378 0.99521 0.9473 0.0
H888 H 0.60117 0.0063 0.95334 0.0
H889 H 0.64985 0.99376 0.93767 0.0
H890 H 0.65858 0.94124 0.01668 0.0
H891 H 0.61011 0.95304 0.03162 0.0
C892 C 0.71438 0.91021 0.95635 0.0
C893 C 0.73628 0.92831 0.94305 0.0
C894 C 0.68914 0.9225 0.96655 0.0
C895 C 0.68488 0.95331 0.96381 0.0
C896 C 0.70636 0.97141 0.9498 0.0
C897 C 0.73182 0.95905 0.93957 0.0
C898 C 0.61396 0.99288 0.96774 0.0
C899 C 0.60182 0.98045 0.99358 0.0
C900 C 0.64177 0.98555 0.95872 0.0
C901 C 0.65783 0.96581 0.97551 0.0
C902 C 0.64652 0.95575 0.00272 0.0
C903 C 0.61885 0.96279 0.0115 0.0
H904 H 0.79525 0.13883 0.44062 0.0
H905 H 0.76407 0.04728 0.45609 0.0
H906 H 0.84446 0.12706 0.4561 0.0
H907 H 0.81312 0.03566 0.47208 0.0
H908 H 0.90272 0.03286 0.51905 0.0
H909 H 0.85435 0.05234 0.51374 0.0
H910 H 0.87818 0.08914 0.42868 0.0
H911 H 0.92603 0.06913 0.43355 0.0
C912 C 0.79886 0.1164 0.44794 0.0
C913 C 0.77601 0.09389 0.44707 0.0
C914 C 0.82693 0.10968 0.4567 0.0
C915 C 0.83247 0.08051 0.46533 0.0
C916 C 0.80933 0.0584 0.46582 0.0
C917 C 0.78139 0.06496 0.45649 0.0
C918 C 0.89776 0.04566 0.49956 0.0
C919 C 0.918 0.04942 0.47664 0.0
C920 C 0.87012 0.05663 0.49647 0.0
C921 C 0.86263 0.07217 0.4708 0.0
C922 C 0.8835 0.07743 0.44879 0.0
C923 C 0.9108 0.06589 0.45153 0.0
H924 H 0.22174 0.62869 0.05742 0.0
H925 H 0.25208 0.54 0.06915 0.0
H926 H 0.1739 0.60623 0.04199 0.0
H927 H 0.20433 0.51739 0.05318 0.0
H928 H 0.10808 0.49488 0.07194 0.0
H929 H 0.15811 0.51481 0.07714 0.0
H930 H 0.14397 0.57545 0.00541 0.0
H931 H 0.09323 0.55586 1.00062 0.0
C932 C 0.21838 0.60434 0.05588 0.0
C933 C 0.24053 0.58606 0.06468 0.0
C934 C 0.19097 0.59146 0.04701 0.0
C935 C 0.18521 0.56003 0.04665 0.0
C936 C 0.20791 0.54171 0.05381 0.0
C937 C 0.23526 0.55461 0.06286 0.0
C938 C 0.11558 0.51232 0.05707 0.0
C939 C 0.09658 0.5239 0.03596 0.0
C940 C 0.14443 0.52357 0.05988 0.0
C941 C 0.15511 0.54664 0.04159 0.0
C942 C 0.13631 0.55783 0.01999 0.0
C943 C 0.1073 0.54654 0.01717 0.0
H944 H 0.24898 0.49602 0.56175 0.0
H945 H 0.26789 0.40233 0.55382 0.0
H946 H 0.2984 0.51085 0.54733 0.0
H947 H 0.31763 0.41721 0.53952 0.0
H948 H 0.40428 0.46032 0.50214 0.0
H949 H 0.35206 0.44502 0.50282 0.0
H950 H 0.34278 0.50598 0.57938 0.0
H951 H 0.39406 0.52102 0.57887 0.0
C952 C 0.26361 0.4786 0.55642 0.0
C953 C 0.25482 0.44807 0.55942 0.0
C954 C 0.29186 0.48706 0.54816 0.0
C955 C 0.31199 0.46519 0.54284 0.0
C956 C 0.30255 0.43453 0.54341 0.0
C957 C 0.27412 0.42603 0.55162 0.0
C958 C 0.39096 0.47046 0.51898 0.0
C959 C 0.40337 0.49176 0.54054 0.0
C960 C 0.36116 0.46169 0.51938 0.0
C961 C 0.34332 0.47457 0.54094 0.0
C962 C 0.35581 0.49604 0.56215 0.0
C963 C 0.38536 0.50443 0.56202 0.0
H964 H 0.87815 0.72665 0.95135 0.0
H965 H 0.96839 0.74985 0.9337 0.0
H966 H 0.89123 0.67902 0.97112 0.0
H967 H 0.98128 0.70141 0.95217 0.0
H968 H 0.99833 0.6162 0.00255 0.0
H969 H 0.98529 0.668 0.9944 0.0
H970 H 0.90594 0.63317 0.94851 0.0
H971 H 0.91855 0.58219 0.95704 0.0
C972 C 0.90086 0.72186 0.95202 0.0
C973 C 0.92213 0.74218 0.94058 0.0
C974 C 0.90834 0.69426 0.96307 0.0
C975 C 0.9373 0.68604 0.96292 0.0
C976 C 0.95879 0.70693 0.95279 0.0
C977 C 0.9513 0.7346 0.94178 0.0
C978 C 0.97789 0.61973 0.99122 0.0
C979 C 0.95958 0.59499 0.98035 0.0
C980 C 0.97051 0.6494 0.9863 0.0
C981 C 0.94453 0.6549 0.97072 0.0
C982 C 0.92588 0.63004 0.96095 0.0
C983 C 0.93328 0.60063 0.96567 0.0
H984 H 0.41537 0.81806 0.15845 0.0
H985 H 0.43129 0.77174 0.07391 0.0
H986 H 0.42628 0.86674 0.13533 0.0
H987 H 0.442 0.81975 0.05106 0.0
H988 H 0.43168 0.90145 0.00557 0.0
H989 H 0.41201 0.86179 0.03712 0.0
H990 H 0.46841 0.89682 0.11087 0.0
H991 H 0.48728 0.93737 0.07935 0.0
C992 C 0.42158 0.81832 0.13511 0.0
C993 C 0.42213 0.79126 0.11778 0.0
C994 C 0.42759 0.84607 0.1219 0.0
C995 C 0.43407 0.84697 0.09121 0.0
C996 C 0.43604 0.81979 0.07448 0.0
C997 C 0.43014 0.79229 0.0876 0.0
C998 C 0.43882 0.90143 0.02895 0.0
C999 C 0.46093 0.92214 0.04017 0.0
C1000 C 0.42787 0.87862 0.04689 0.0
C1001 C 0.43941 0.87576 0.07607 0.0
C1002 C 0.45925 0.89848 0.08841 0.0
C1003 C 0.46992 0.92171 0.07049 0.0
H1004 H 0.04037 0.24932 0.5989 0.0
H1005 H 0.04695 0.26756 0.50439 0.0
H1006 H 0.02082 0.1987 0.58599 0.0
H1007 H 0.02796 0.21593 0.49147 0.0
H1008 H 0.05111 0.11219 0.49955 0.0
H1009 H 0.05048 0.16698 0.49824 0.0
H1010 H 0.98156 0.16529 0.56247 0.0
H1011 H 0.98283 0.11054 0.56409 0.0
C1012 C 0.03685 0.24294 0.57531 0.0
C1013 C 0.04548 0.26268 0.55273 0.0
C1014 C 0.02556 0.21371 0.56787 0.0
C1015 C 0.02278 0.20324 0.53766 0.0
C1016 C 0.03002 0.22331 0.51495 0.0
C1017 C 0.04108 0.2528 0.5224 0.0
C1018 C 0.03481 0.12347 0.51208 0.0
C1019 C 0.01692 0.10741 0.53179 0.0
C1020 C 0.03447 0.15486 0.51145 0.0
C1021 C 0.01636 0.17051 0.53075 0.0
C1022 C 0.99606 0.15388 0.54773 0.0
C1023 C 0.99651 0.12255 0.54841 0.0
H1024 H 0.61874 0.29694 0.47521 0.0
H1025 H 0.53708 0.24482 0.46018 0.0
H1026 H 0.59277 0.34087 0.49 0.0
H1027 H 0.51103 0.28877 0.47519 0.0
H1028 H 0.48388 0.38447 0.45036 0.0
H1029 H 0.50329 0.33511 0.451 0.0
H1030 H 0.56106 0.36569 0.52533 0.0
H1031 H 0.54158 0.41566 0.52432 0.0
C1032 C 0.59525 0.29466 0.4757 0.0
C1033 C 0.57999 0.26744 0.46617 0.0
C1034 C 0.58032 0.31985 0.48434 0.0
C1035 C 0.54976 0.31844 0.48372 0.0
C1036 C 0.53455 0.29078 0.47554 0.0
C1037 C 0.54948 0.26562 0.46682 0.0
C1038 C 0.50004 0.38037 0.46751 0.0
C1039 C 0.51133 0.40392 0.48717 0.0
C1040 C 0.51118 0.35199 0.46794 0.0
C1041 C 0.53406 0.34648 0.48794 0.0
C1042 C 0.54373 0.36935 0.50934 0.0
C1043 C 0.53232 0.39783 0.50907 0.0
loop_
_geom_bond_atom_site_label_1
_geom_bond_atom_site_label_2
_geom_bond_distance
_geom_bond_site_symmetry_2
_ccdc_geom_bond_type
C0 C1 1.391 . S
C0 C4 1.391 . S
C0 H42 0.948 . S
C1 C0 1.391 . S
C1 C2 1.391 . S
C2 C1 1.391 . S
C2 H58 0.947 . S
C2 C59 1.392 . S
C3 C4 1.391 . S
C3 C7 1.397 . S
C3 C59 1.419 . S
C4 C0 1.391 . S
C4 C3 1.391 . S
C4 C5 1.399 . S
C5 C4 1.399 . S
C5 C8 1.396 . S
C5 C17 1.453 . S
C5 C18 1.684 . S
H6 C30 0.948 . S
C7 C3 1.397 . S
C7 C8 1.394 . S
C7 C26 1.723 . S
C8 C5 1.396 . S
C8 C7 1.394 . S
C8 C38 1.723 . S
H9 C32 0.947 . S
H10 C33 0.948 . S
H11 C39 0.982 . S
H12 C40 0.979 . S
H13 C40 0.980 . S
H14 C40 0.983 . S
H15 C39 0.979 . S
H16 C39 0.977 . S
C17 C5 1.453 . S
C17 H46 0.982 . S
C17 H47 0.979 . S
C17 H48 0.977 . S
C18 C5 1.684 . S
C18 H43 0.979 . S
C18 H44 0.980 . S
C18 H45 0.983 . S
C19 C20 1.391 . S
C19 C24 1.391 . S
C19 H49 0.948 . S
C20 C19 1.391 . S
C20 C21 1.391 . S
C21 C20 1.391 . S
C21 C22 1.392 . S
C21 H50 0.947 . S
C22 C21 1.392 . S
C22 C23 1.419 . S
C22 H51 0.948 . S
C23 C22 1.419 . S
C23 C24 1.391 . S
C23 C27 1.397 . S
C24 C19 1.391 . S
C24 C23 1.391 . S
C24 C25 1.399 . S
C25 C24 1.399 . S
C25 C26 1.396 . S
C25 C28 1.453 . S
C25 C29 1.684 . S
C26 C7 1.723 . S
C26 C25 1.396 . S
C26 C27 1.394 . S
C27 C23 1.397 . S
C27 C26 1.394 . S
C27 C37 1.723 . S
C28 C25 1.453 . S
C28 H52 0.982 . S
C28 H53 0.979 . S
C28 H54 0.977 . S
C29 C25 1.684 . S
C29 H55 0.979 . S
C29 H56 0.980 . S
C29 H57 0.983 . S
C30 H6 0.948 . S
C30 C31 1.391 . S
C30 C35 1.391 . S
C31 C30 1.391 . S
C31 C32 1.391 . S
C32 H9 0.947 . S
C32 C31 1.391 . S
C32 C33 1.392 . S
C33 H10 0.948 . S
C33 C32 1.392 . S
C33 C34 1.419 . S
C34 C33 1.419 . S
C34 C35 1.391 . S
C34 C38 1.397 . S
C35 C30 1.391 . S
C35 C34 1.391 . S
C35 C36 1.399 . S
C36 C35 1.399 . S
C36 C37 1.396 . S
C36 C39 1.453 . S
C36 C40 1.684 . S
C37 C27 1.723 . S
C37 C36 1.396 . S
C37 C38 1.394 . S
C38 C8 1.723 . S
C38 C34 1.397 . S
C38 C37 1.394 . S
C39 H11 0.982 . S
C39 H15 0.979 . S
C39 H16 0.977 . S
C39 C36 1.453 . S
C40 H12 0.979 . S
C40 H13 0.980 . S
C40 H14 0.983 . S
C40 C36 1.684 . S
H41 C59 0.948 . S
H42 C0 0.948 . S
H43 C18 0.979 . S
H44 C18 0.980 . S
H45 C18 0.983 . S
H46 C17 0.982 . S
H47 C17 0.979 . S
H48 C17 0.977 . S
H49 C19 0.948 . S
H50 C21 0.947 . S
H51 C22 0.948 . S
H52 C28 0.982 . S
H53 C28 0.979 . S
H54 C28 0.977 . S
H55 C29 0.979 . S
H56 C29 0.980 . S
H57 C29 0.983 . S
H58 C2 0.947 . S
C59 C2 1.392 . S
C59 C3 1.419 . S
C59 H41 0.948 . S
C60 C61 1.391 . S
C60 C64 1.391 . S
C60 H102 0.948 . S
C61 C60 1.391 . S
C61 C62 1.391 . S
C62 C61 1.391 . S
C62 H118 0.947 . S
C62 C119 1.392 . S
C63 C64 1.391 . S
C63 C67 1.397 . S
C63 C119 1.419 . S
C64 C60 1.391 . S
C64 C63 1.391 . S
C64 C65 1.399 . S
C65 C64 1.399 . S
C65 C68 1.396 . S
C65 C77 1.453 . S
C65 C78 1.684 . S
H66 C90 0.948 . S
C67 C63 1.397 . S
C67 C68 1.394 . S
C67 C86 1.723 . S
C68 C65 1.396 . S
C68 C67 1.394 . S
C68 C98 1.723 . S
H69 C92 0.947 . S
H70 C93 0.948 . S
H71 C99 0.982 . S
H72 C100 0.979 . S
H73 C100 0.980 . S
H74 C100 0.983 . S
H75 C99 0.979 . S
H76 C99 0.977 . S
C77 C65 1.453 . S
C77 H106 0.982 . S
C77 H107 0.979 . S
C77 H108 0.977 . S
C78 C65 1.684 . S
C78 H103 0.979 . S
C78 H104 0.980 . S
C78 H105 0.983 . S
C79 C80 1.391 . S
C79 C84 1.391 . S
C79 H109 0.948 . S
C80 C79 1.391 . S
C80 C81 1.391 . S
C81 C80 1.391 . S
C81 C82 1.392 . S
C81 H110 0.947 . S
C82 C81 1.392 . S
C82 C83 1.419 . S
C82 H111 0.948 . S
C83 C82 1.419 . S
C83 C84 1.391 . S
C83 C87 1.397 . S
C84 C79 1.391 . S
C84 C83 1.391 . S
C84 C85 1.399 . S
C85 C84 1.399 . S
C85 C86 1.396 . S
C85 C88 1.453 . S
C85 C89 1.684 . S
C86 C67 1.723 . S
C86 C85 1.396 . S
C86 C87 1.394 . S
C87 C83 1.397 . S
C87 C86 1.394 . S
C87 C97 1.723 . S
C88 C85 1.453 . S
C88 H112 0.982 . S
C88 H113 0.979 . S
C88 H114 0.977 . S
C89 C85 1.684 . S
C89 H115 0.979 . S
C89 H116 0.980 . S
C89 H117 0.983 . S
C90 H66 0.948 . S
C90 C91 1.391 . S
C90 C95 1.391 . S
C91 C90 1.391 . S
C91 C92 1.391 . S
C92 H69 0.947 . S
C92 C91 1.391 . S
C92 C93 1.392 . S
C93 H70 0.948 . S
C93 C92 1.392 . S
C93 C94 1.419 . S
C94 C93 1.419 . S
C94 C95 1.391 . S
C94 C98 1.397 . S
C95 C90 1.391 . S
C95 C94 1.391 . S
C95 C96 1.399 . S
C96 C95 1.399 . S
C96 C97 1.396 . S
C96 C99 1.453 . S
C96 C100 1.684 . S
C97 C87 1.723 . S
C97 C96 1.396 . S
C97 C98 1.394 . S
C98 C68 1.723 . S
C98 C94 1.397 . S
C98 C97 1.394 . S
C99 H71 0.982 . S
C99 H75 0.979 . S
C99 H76 0.977 . S
C99 C96 1.453 . S
C100 H72 0.979 . S
C100 H73 0.980 . S
C100 H74 0.983 . S
C100 C96 1.684 . S
H101 C119 0.948 . S
H102 C60 0.948 . S
H103 C78 0.979 . S
H104 C78 0.980 . S
H105 C78 0.983 . S
H106 C77 0.982 . S
H107 C77 0.979 . S
H108 C77 0.977 . S
H109 C79 0.948 . S
H110 C81 0.947 . S
H111 C82 0.948 . S
H112 C88 0.982 . S
H113 C88 0.979 . S
H114 C88 0.977 . S
H115 C89 0.979 . S
H116 C89 0.980 . S
H117 C89 0.983 . S
H118 C62 0.947 . S
C119 C62 1.392 . S
C119 C63 1.419 . S
C119 H101 0.948 . S
C120 C121 1.391 . S
C120 C124 1.391 . S
C120 H162 0.948 . S
C121 C120 1.391 . S
C121 C122 1.391 . S
C122 C121 1.391 . S
C122 H178 0.947 . S
C122 C179 1.392 . S
C123 C124 1.391 . S
C123 C127 1.397 . S
C123 C179 1.419 . S
C124 C120 1.391 . S
C124 C123 1.391 . S
C124 C125 1.399 . S
C125 C124 1.399 . S
C125 C128 1.396 . S
C125 C137 1.453 . S
C125 C138 1.684 . S
H126 C150 0.948 . S
C127 C123 1.397 . S
C127 C128 1.394 . S
C127 C146 1.723 . S
C128 C125 1.396 . S
C128 C127 1.394 . S
C128 C158 1.723 . S
H129 C152 0.947 . S
H130 C153 0.948 . S
H131 C159 0.982 . S
H132 C160 0.979 . S
H133 C160 0.980 . S
H134 C160 0.983 . S
H135 C159 0.979 . S
H136 C159 0.977 . S
C137 C125 1.453 . S
C137 H166 0.982 . S
C137 H167 0.979 . S
C137 H168 0.977 . S
C138 C125 1.684 . S
C138 H163 0.979 . S
C138 H164 0.980 . S
C138 H165 0.983 . S
C139 C140 1.391 . S
C139 C144 1.391 . S
C139 H169 0.948 . S
C140 C139 1.391 . S
C140 C141 1.391 . S
C141 C140 1.391 . S
C141 C142 1.392 . S
C141 H170 0.947 . S
C142 C141 1.392 . S
C142 C143 1.419 . S
C142 H171 0.948 . S
C143 C142 1.419 . S
C143 C144 1.391 . S
C143 C147 1.397 . S
C144 C139 1.391 . S
C144 C143 1.391 . S
C144 C145 1.399 . S
C145 C144 1.399 . S
C145 C146 1.396 . S
C145 C148 1.453 . S
C145 C149 1.684 . S
C146 C127 1.723 . S
C146 C145 1.396 . S
C146 C147 1.394 . S
C147 C143 1.397 . S
C147 C146 1.394 . S
C147 C157 1.723 . S
C148 C145 1.453 . S
C148 H172 0.982 . S
C148 H173 0.979 . S
C148 H174 0.977 . S
C149 C145 1.684 . S
C149 H175 0.979 . S
C149 H176 0.980 . S
C149 H177 0.983 . S
C150 H126 0.948 . S
C150 C151 1.391 . S
C150 C155 1.391 . S
C151 C150 1.391 . S
C151 C152 1.391 . S
C152 H129 0.947 . S
C152 C151 1.391 . S
C152 C153 1.392 . S
C153 H130 0.948 . S
C153 C152 1.392 . S
C153 C154 1.419 . S
C154 C153 1.419 . S
C154 C155 1.391 . S
C154 C158 1.397 . S
C155 C150 1.391 . S
C155 C154 1.391 . S
C155 C156 1.399 . S
C156 C155 1.399 . S
C156 C157 1.396 . S
C156 C159 1.453 . S
C156 C160 1.684 . S
C157 C147 1.723 . S
C157 C156 1.396 . S
C157 C158 1.394 . S
C158 C128 1.723 . S
C158 C154 1.397 . S
C158 C157 1.394 . S
C159 H131 0.982 . S
C159 H135 0.979 . S
C159 H136 0.977 . S
C159 C156 1.453 . S
C160 H132 0.979 . S
C160 H133 0.980 . S
C160 H134 0.983 . S
C160 C156 1.684 . S
H161 C179 0.948 . S
H162 C120 0.948 . S
H163 C138 0.979 . S
H164 C138 0.980 . S
H165 C138 0.983 . S
H166 C137 0.982 . S
H167 C137 0.979 . S
H168 C137 0.977 . S
H169 C139 0.948 . S
H170 C141 0.947 . S
H171 C142 0.948 . S
H172 C148 0.982 . S
H173 C148 0.979 . S
H174 C148 0.977 . S
H175 C149 0.979 . S
H176 C149 0.980 . S
H177 C149 0.983 . S
H178 C122 0.947 . S
C179 C122 1.392 . S
C179 C123 1.419 . S
C179 H161 0.948 . S
C180 C181 1.391 . S
C180 C184 1.391 . S
C180 H222 0.948 . S
C181 C180 1.391 . S
C181 C182 1.391 . S
C182 C181 1.391 . S
C182 H238 0.947 . S
C182 C239 1.392 . S
C183 C184 1.391 . S
C183 C187 1.397 . S
C183 C239 1.419 . S
C184 C180 1.391 . S
C184 C183 1.391 . S
C184 C185 1.399 . S
C185 C184 1.399 . S
C185 C188 1.396 . S
C185 C197 1.453 . S
C185 C198 1.684 . S
H186 C210 0.948 . S
C187 C183 1.397 . S
C187 C188 1.394 . S
C187 C206 1.723 . S
C188 C185 1.396 . S
C188 C187 1.394 . S
C188 C218 1.723 . S
H189 C212 0.947 . S
H190 C213 0.948 . S
H191 C219 0.982 . S
H192 C220 0.979 . S
H193 C220 0.980 . S
H194 C220 0.983 . S
H195 C219 0.979 . S
H196 C219 0.977 . S
C197 C185 1.453 . S
C197 H226 0.982 . S
C197 H227 0.979 . S
C197 H228 0.977 . S
C198 C185 1.684 . S
C198 H223 0.979 . S
C198 H224 0.980 . S
C198 H225 0.983 . S
C199 C200 1.391 . S
C199 C204 1.391 . S
C199 H229 0.948 . S
C200 C199 1.391 . S
C200 C201 1.391 . S
C201 C200 1.391 . S
C201 C202 1.392 . S
C201 H230 0.947 . S
C202 C201 1.392 . S
C202 C203 1.419 . S
C202 H231 0.948 . S
C203 C202 1.419 . S
C203 C204 1.391 . S
C203 C207 1.397 . S
C204 C199 1.391 . S
C204 C203 1.391 . S
C204 C205 1.399 . S
C205 C204 1.399 . S
C205 C206 1.396 . S
C205 C208 1.453 . S
C205 C209 1.684 . S
C206 C187 1.723 . S
C206 C205 1.396 . S
C206 C207 1.394 . S
C207 C203 1.397 . S
C207 C206 1.394 . S
C207 C217 1.723 . S
C208 C205 1.453 . S
C208 H232 0.982 . S
C208 H233 0.979 . S
C208 H234 0.977 . S
C209 C205 1.684 . S
C209 H235 0.979 . S
C209 H236 0.980 . S
C209 H237 0.983 . S
C210 H186 0.948 . S
C210 C211 1.391 . S
C210 C215 1.391 . S
C211 C210 1.391 . S
C211 C212 1.391 . S
C212 H189 0.947 . S
C212 C211 1.391 . S
C212 C213 1.392 . S
C213 H190 0.948 . S
C213 C212 1.392 . S
C213 C214 1.419 . S
C214 C213 1.419 . S
C214 C215 1.391 . S
C214 C218 1.397 . S
C215 C210 1.391 . S
C215 C214 1.391 . S
C215 C216 1.399 . S
C216 C215 1.399 . S
C216 C217 1.396 . S
C216 C219 1.453 . S
C216 C220 1.684 . S
C217 C207 1.723 . S
C217 C216 1.396 . S
C217 C218 1.394 . S
C218 C188 1.723 . S
C218 C214 1.397 . S
C218 C217 1.394 . S
C219 H191 0.982 . S
C219 H195 0.979 . S
C219 H196 0.977 . S
C219 C216 1.453 . S
C220 H192 0.979 . S
C220 H193 0.980 . S
C220 H194 0.983 . S
C220 C216 1.684 . S
H221 C239 0.948 . S
H222 C180 0.948 . S
H223 C198 0.979 . S
H224 C198 0.980 . S
H225 C198 0.983 . S
H226 C197 0.982 . S
H227 C197 0.979 . S
H228 C197 0.977 . S
H229 C199 0.948 . S
H230 C201 0.947 . S
H231 C202 0.948 . S
H232 C208 0.982 . S
H233 C208 0.979 . S
H234 C208 0.977 . S
H235 C209 0.979 . S
H236 C209 0.980 . S
H237 C209 0.983 . S
H238 C182 0.947 . S
C239 C182 1.392 . S
C239 C183 1.419 . S
C239 H221 0.948 . S
C240 C241 1.391 . S
C240 C244 1.391 . S
C240 H282 0.948 . S
C241 C240 1.391 . S
C241 C242 1.391 . S
C242 C241 1.391 . S
C242 H298 0.947 . S
C242 C299 1.392 . S
C243 C244 1.391 . S
C243 C247 1.397 . S
C243 C299 1.419 . S
C244 C240 1.391 . S
C244 C243 1.391 . S
C244 C245 1.399 . S
C245 C244 1.399 . S
C245 C248 1.396 . S
C245 C257 1.453 . S
C245 C258 1.684 . S
H246 C270 0.948 . S
C247 C243 1.397 . S
C247 C248 1.394 . S
C247 C266 1.723 . S
C248 C245 1.396 . S
C248 C247 1.394 . S
C248 C278 1.723 . S
H249 C272 0.947 . S
H250 C273 0.948 . S
H251 C279 0.982 . S
H252 C280 0.979 . S
H253 C280 0.980 . S
H254 C280 0.983 . S
H255 C279 0.979 . S
H256 C279 0.977 . S
C257 C245 1.453 . S
C257 H286 0.982 . S
C257 H287 0.979 . S
C257 H288 0.977 . S
C258 C245 1.684 . S
C258 H283 0.979 . S
C258 H284 0.980 . S
C258 H285 0.983 . S
C259 C260 1.391 . S
C259 C264 1.391 . S
C259 H289 0.948 . S
C260 C259 1.391 . S
C260 C261 1.391 . S
C261 C260 1.391 . S
C261 C262 1.392 . S
C261 H290 0.947 . S
C262 C261 1.392 . S
C262 C263 1.419 . S
C262 H291 0.948 . S
C263 C262 1.419 . S
C263 C264 1.391 . S
C263 C267 1.397 . S
C264 C259 1.391 . S
C264 C263 1.391 . S
C264 C265 1.399 . S
C265 C264 1.399 . S
C265 C266 1.396 . S
C265 C268 1.453 . S
C265 C269 1.684 . S
C266 C247 1.723 . S
C266 C265 1.396 . S
C266 C267 1.394 . S
C267 C263 1.397 . S
C267 C266 1.394 . S
C267 C277 1.723 . S
C268 C265 1.453 . S
C268 H292 0.982 . S
C268 H293 0.979 . S
C268 H294 0.977 . S
C269 C265 1.684 . S
C269 H295 0.979 . S
C269 H296 0.980 . S
C269 H297 0.983 . S
C270 H246 0.948 . S
C270 C271 1.391 . S
C270 C275 1.391 . S
C271 C270 1.391 . S
C271 C272 1.391 . S
C272 H249 0.947 . S
C272 C271 1.391 . S
C272 C273 1.392 . S
C273 H250 0.948 . S
C273 C272 1.392 . S
C273 C274 1.419 . S
C274 C273 1.419 . S
C274 C275 1.391 . S
C274 C278 1.397 . S
C275 C270 1.391 . S
C275 C274 1.391 . S
C275 C276 1.399 . S
C276 C275 1.399 . S
C276 C277 1.396 . S
C276 C279 1.453 . S
C276 C280 1.684 . S
C277 C267 1.723 . S
C277 C276 1.396 . S
C277 C278 1.394 . S
C278 C248 1.723 . S
C278 C274 1.397 . S
C278 C277 1.394 . S
C279 H251 0.982 . S
C279 H255 0.979 . S
C279 H256 0.977 . S
C279 C276 1.453 . S
C280 H252 0.979 . S
C280 H253 0.980 . S
C280 H254 0.983 . S
C280 C276 1.684 . S
H281 C299 0.948 . S
H282 C240 0.948 . S
H283 C258 0.979 . S
H284 C258 0.980 . S
H285 C258 0.983 . S
H286 C257 0.982 . S
H287 C257 0.979 . S
H288 C257 0.977 . S
H289 C259 0.948 . S
H290 C261 0.947 . S
H291 C262 0.948 . S
H292 C268 0.982 . S
H293 C268 0.979 . S
H294 C268 0.977 . S
H295 C269 0.979 . S
H296 C269 0.980 . S
H297 C269 0.983 . S
H298 C242 0.947 . S
C299 C242 1.392 . S
C299 C243 1.419 . S
C299 H281 0.948 . S
C300 C301 1.391 . S
C300 C304 1.391 . S
C300 H342 0.948 . S
C301 C300 1.391 . S
C301 C302 1.391 . S
C302 C301 1.391 . S
C302 H358 0.947 . S
C302 C359 1.392 . S
C303 C304 1.391 . S
C303 C307 1.397 . S
C303 C359 1.419 . S
C304 C300 1.391 . S
C304 C303 1.391 . S
C304 C305 1.399 . S
C305 C304 1.399 . S
C305 C308 1.396 . S
C305 C317 1.453 . S
C305 C318 1.684 . S
H306 C330 0.948 . S
C307 C303 1.397 . S
C307 C308 1.394 . S
C307 C326 1.723 . S
C308 C305 1.396 . S
C308 C307 1.394 . S
C308 C338 1.723 . S
H309 C332 0.947 . S
H310 C333 0.948 . S
H311 C339 0.982 . S
H312 C340 0.979 . S
H313 C340 0.980 . S
H314 C340 0.983 . S
H315 C339 0.979 . S
H316 C339 0.977 . S
C317 C305 1.453 . S
C317 H346 0.982 . S
C317 H347 0.979 . S
C317 H348 0.977 . S
C318 C305 1.684 . S
C318 H343 0.979 . S
C318 H344 0.980 . S
C318 H345 0.983 . S
C319 C320 1.391 . S
C319 C324 1.391 . S
C319 H349 0.948 . S
C320 C319 1.391 . S
C320 C321 1.391 . S
C321 C320 1.391 . S
C321 C322 1.392 . S
C321 H350 0.947 . S
C322 C321 1.392 . S
C322 C323 1.419 . S
C322 H351 0.948 . S
C323 C322 1.419 . S
C323 C324 1.391 . S
C323 C327 1.397 . S
C324 C319 1.391 . S
C324 C323 1.391 . S
C324 C325 1.399 . S
C325 C324 1.399 . S
C325 C326 1.396 . S
C325 C328 1.453 . S
C325 C329 1.684 . S
C326 C307 1.723 . S
C326 C325 1.396 . S
C326 C327 1.394 . S
C327 C323 1.397 . S
C327 C326 1.394 . S
C327 C337 1.723 . S
C328 C325 1.453 . S
C328 H352 0.982 . S
C328 H353 0.979 . S
C328 H354 0.977 . S
C329 C325 1.684 . S
C329 H355 0.979 . S
C329 H356 0.980 . S
C329 H357 0.983 . S
C330 H306 0.948 . S
C330 C331 1.391 . S
C330 C335 1.391 . S
C331 C330 1.391 . S
C331 C332 1.391 . S
C332 H309 0.947 . S
C332 C331 1.391 . S
C332 C333 1.392 . S
C333 H310 0.948 . S
C333 C332 1.392 . S
C333 C334 1.419 . S
C334 C333 1.419 . S
C334 C335 1.391 . S
C334 C338 1.397 . S
C335 C330 1.391 . S
C335 C334 1.391 . S
C335 C336 1.399 . S
C336 C335 1.399 . S
C336 C337 1.396 . S
C336 C339 1.453 . S
C336 C340 1.684 . S
C337 C327 1.723 . S
C337 C336 1.396 . S
C337 C338 1.394 . S
C338 C308 1.723 . S
C338 C334 1.397 . S
C338 C337 1.394 . S
C339 H311 0.982 . S
C339 H315 0.979 . S
C339 H316 0.977 . S
C339 C336 1.453 . S
C340 H312 0.979 . S
C340 H313 0.980 . S
C340 H314 0.983 . S
C340 C336 1.684 . S
H341 C359 0.948 . S
H342 C300 0.948 . S
H343 C318 0.979 . S
H344 C318 0.980 . S
H345 C318 0.983 . S
H346 C317 0.982 . S
H347 C317 0.979 . S
H348 C317 0.977 . S
H349 C319 0.948 . S
H350 C321 0.947 . S
H351 C322 0.948 . S
H352 C328 0.982 . S
H353 C328 0.979 . S
H354 C328 0.977 . S
H355 C329 0.979 . S
H356 C329 0.980 . S
H357 C329 0.983 . S
H358 C302 0.947 . S
C359 C302 1.392 . S
C359 C303 1.419 . S
C359 H341 0.948 . S
C360 C361 1.391 . S
C360 C364 1.391 . S
C360 H402 0.948 . S
C361 C360 1.391 . S
C361 C362 1.391 . S
C362 C361 1.391 . S
C362 H418 0.947 . S
C362 C419 1.392 . S
C363 C364 1.391 . S
C363 C367 1.397 . S
C363 C419 1.419 . S
C364 C360 1.391 . S
C364 C363 1.391 . S
C364 C365 1.399 . S
C365 C364 1.399 . S
C365 C368 1.396 . S
C365 C377 1.453 . S
C365 C378 1.684 . S
H366 C390 0.948 . S
C367 C363 1.397 . S
C367 C368 1.394 . S
C367 C386 1.723 . S
C368 C365 1.396 . S
C368 C367 1.394 . S
C368 C398 1.723 . S
H369 C392 0.947 . S
H370 C393 0.948 . S
H371 C399 0.982 . S
H372 C400 0.979 . S
H373 C400 0.980 . S
H374 C400 0.983 . S
H375 C399 0.979 . S
H376 C399 0.977 . S
C377 C365 1.453 . S
C377 H406 0.982 . S
C377 H407 0.979 . S
C377 H408 0.977 . S
C378 C365 1.684 . S
C378 H403 0.979 . S
C378 H404 0.980 . S
C378 H405 0.983 . S
C379 C380 1.391 . S
C379 C384 1.391 . S
C379 H409 0.948 . S
C380 C379 1.391 . S
C380 C381 1.391 . S
C381 C380 1.391 . S
C381 C382 1.392 . S
C381 H410 0.947 . S
C382 C381 1.392 . S
C382 C383 1.419 . S
C382 H411 0.948 . S
C383 C382 1.419 . S
C383 C384 1.391 . S
C383 C387 1.397 . S
C384 C379 1.391 . S
C384 C383 1.391 . S
C384 C385 1.399 . S
C385 C384 1.399 . S
C385 C386 1.396 . S
C385 C388 1.453 . S
C385 C389 1.684 . S
C386 C367 1.723 . S
C386 C385 1.396 . S
C386 C387 1.394 . S
C387 C383 1.397 . S
C387 C386 1.394 . S
C387 C397 1.723 . S
C388 C385 1.453 . S
C388 H412 0.982 . S
C388 H413 0.979 . S
C388 H414 0.977 . S
C389 C385 1.684 . S
C389 H415 0.979 . S
C389 H416 0.980 . S
C389 H417 0.983 . S
C390 H366 0.948 . S
C390 C391 1.391 . S
C390 C395 1.391 . S
C391 C390 1.391 . S
C391 C392 1.391 . S
C392 H369 0.947 . S
C392 C391 1.391 . S
C392 C393 1.392 . S
C393 H370 0.948 . S
C393 C392 1.392 . S
C393 C394 1.419 . S
C394 C393 1.419 . S
C394 C395 1.391 . S
C394 C398 1.397 . S
C395 C390 1.391 . S
C395 C394 1.391 . S
C395 C396 1.399 . S
C396 C395 1.399 . S
C396 C397 1.396 . S
C396 C399 1.453 . S
C396 C400 1.684 . S
C397 C387 1.723 . S
C397 C396 1.396 . S
C397 C398 1.394 . S
C398 C368 1.723 . S
C398 C394 1.397 . S
C398 C397 1.394 . S
C399 H371 0.982 . S
C399 H375 0.979 . S
C399 H376 0.977 . S
C399 C396 1.453 . S
C400 H372 0.979 . S
C400 H373 0.980 . S
C400 H374 0.983 . S
C400 C396 1.684 . S
H401 C419 0.948 . S
H402 C360 0.948 . S
H403 C378 0.979 . S
H404 C378 0.980 . S
H405 C378 0.983 . S
H406 C377 0.982 . S
H407 C377 0.979 . S
H408 C377 0.977 . S
H409 C379 0.948 . S
H410 C381 0.947 . S
H411 C382 0.948 . S
H412 C388 0.982 . S
H413 C388 0.979 . S
H414 C388 0.977 . S
H415 C389 0.979 . S
H416 C389 0.980 . S
H417 C389 0.983 . S
H418 C362 0.947 . S
C419 C362 1.392 . S
C419 C363 1.419 . S
C419 H401 0.948 . S
C420 C421 1.391 . S
C420 C424 1.391 . S
C420 H462 0.948 . S
C421 C420 1.391 . S
C421 C422 1.391 . S
C422 C421 1.391 . S
C422 H478 0.947 . S
C422 C479 1.392 . S
C423 C424 1.391 . S
C423 C427 1.397 . S
C423 C479 1.419 . S
C424 C420 1.391 . S
C424 C423 1.391 . S
C424 C425 1.399 . S
C425 C424 1.399 . S
C425 C428 1.396 . S
C425 C437 1.453 . S
C425 C438 1.684 . S
H426 C450 0.948 . S
C427 C423 1.397 . S
C427 C428 1.394 . S
C427 C446 1.723 . S
C428 C425 1.396 . S
C428 C427 1.394 . S
C428 C458 1.723 . S
H429 C452 0.947 . S
H430 C453 0.948 . S
H431 C459 0.982 . S
H432 C460 0.979 . S
H433 C460 0.980 . S
H434 C460 0.983 . S
H435 C459 0.979 . S
H436 C459 0.977 . S
C437 C425 1.453 . S
C437 H466 0.982 . S
C437 H467 0.979 . S
C437 H468 0.977 . S
C438 C425 1.684 . S
C438 H463 0.979 . S
C438 H464 0.980 . S
C438 H465 0.983 . S
C439 C440 1.391 . S
C439 C444 1.391 . S
C439 H469 0.948 . S
C440 C439 1.391 . S
C440 C441 1.391 . S
C441 C440 1.391 . S
C441 C442 1.392 . S
C441 H470 0.947 . S
C442 C441 1.392 . S
C442 C443 1.419 . S
C442 H471 0.948 . S
C443 C442 1.419 . S
C443 C444 1.391 . S
C443 C447 1.397 . S
C444 C439 1.391 . S
C444 C443 1.391 . S
C444 C445 1.399 . S
C445 C444 1.399 . S
C445 C446 1.396 . S
C445 C448 1.453 . S
C445 C449 1.684 . S
C446 C427 1.723 . S
C446 C445 1.396 . S
C446 C447 1.394 . S
C447 C443 1.397 . S
C447 C446 1.394 . S
C447 C457 1.723 . S
C448 C445 1.453 . S
C448 H472 0.982 . S
C448 H473 0.979 . S
C448 H474 0.977 . S
C449 C445 1.684 . S
C449 H475 0.979 . S
C449 H476 0.980 . S
C449 H477 0.983 . S
C450 H426 0.948 . S
C450 C451 1.391 . S
C450 C455 1.391 . S
C451 C450 1.391 . S
C451 C452 1.391 . S
C452 H429 0.947 . S
C452 C451 1.391 . S
C452 C453 1.392 . S
C453 H430 0.948 . S
C453 C452 1.392 . S
C453 C454 1.419 . S
C454 C453 1.419 . S
C454 C455 1.391 . S
C454 C458 1.397 . S
C455 C450 1.391 . S
C455 C454 1.391 . S
C455 C456 1.399 . S
C456 C455 1.399 . S
C456 C457 1.396 . S
C456 C459 1.453 . S
C456 C460 1.684 . S
C457 C447 1.723 . S
C457 C456 1.396 . S
C457 C458 1.394 . S
C458 C428 1.723 . S
C458 C454 1.397 . S
C458 C457 1.394 . S
C459 H431 0.982 . S
C459 H435 0.979 . S
C459 H436 0.977 . S
C459 C456 1.453 . S
C460 H432 0.979 . S
C460 H433 0.980 . S
C460 H434 0.983 . S
C460 C456 1.684 . S
H461 C479 0.948 . S
H462 C420 0.948 . S
H463 C438 0.979 . S
H464 C438 0.980 . S
H465 C438 0.983 . S
H466 C437 0.982 . S
H467 C437 0.979 . S
H468 C437 0.977 . S
H469 C439 0.948 . S
H470 C441 0.947 . S
H471 C442 0.948 . S
H472 C448 0.982 . S
H473 C448 0.979 . S
H474 C448 0.977 . S
H475 C449 0.979 . S
H476 C449 0.980 . S
H477 C449 0.983 . S
H478 C422 0.947 . S
C479 C422 1.392 . S
C479 C423 1.419 . S
C479 H461 0.948 . S
O480 Mg481 1.990 . S
O480 C494 1.253 1_445 S
Mg481 O480 1.990 . S
Mg481 O484 2.180 . S
Mg481 O485 2.117 . S
Mg481 O499 2.030 1_545 S
O482 Mg483 2.072 1_665 S
O482 C494 1.260 . S
Mg483 O482 2.072 1_445 S
Mg483 O484 2.099 . S
Mg483 O486 2.079 . S
Mg483 O487 2.072 1_455 S
Mg483 O489 2.099 1_445 S
Mg483 O500 2.079 1_545 S
O484 Mg481 2.180 . S
O484 Mg483 2.099 . S
O484 C495 1.279 . S
O485 Mg481 2.117 . S
O485 C495 1.250 . S
O486 Mg483 2.079 . S
O486 C496 1.264 . S
O487 Mg483 2.072 1_655 S
O487 C497 1.260 . S
Mg488 O489 2.180 . S
Mg488 O490 2.030 1_565 S
Mg488 O491 1.990 1_565 S
Mg488 O492 2.117 . S
O489 Mg483 2.099 1_665 S
O489 Mg488 2.180 . S
O489 C498 1.279 . S
O490 Mg488 2.030 1_545 S
O490 C496 1.248 1_655 S
O491 Mg488 1.990 1_545 S
O491 C497 1.253 . S
O492 Mg488 2.117 . S
O492 C498 1.250 . S
C493 O499 1.248 . S
C493 O500 1.264 . S
C494 O480 1.253 1_665 S
C494 O482 1.260 . S
C495 O484 1.279 . S
C495 O485 1.250 . S
C496 O486 1.264 . S
C496 O490 1.248 1_455 S
C497 O487 1.260 . S
C497 O491 1.253 . S
C498 O489 1.279 . S
C498 O492 1.250 . S
O499 Mg481 2.030 1_565 S
O499 C493 1.248 . S
O500 Mg483 2.079 1_565 S
O500 C493 1.264 . S
O501 Mg502 1.990 . S
O501 C515 1.253 . S
Mg502 O501 1.990 . S
Mg502 O505 2.170 1_554 S
Mg502 O506 2.117 1_554 S
Mg502 O520 2.030 . S
O503 Mg504 2.072 . S
O503 C515 1.260 . S
Mg504 O503 2.072 . S
Mg504 O505 2.096 1_554 S
Mg504 O507 2.079 1_554 S
Mg504 O508 2.072 1_554 S
Mg504 O510 2.099 1_545 S
Mg504 O521 2.079 . S
O505 Mg502 2.170 1_556 S
O505 Mg504 2.096 1_556 S
O505 C516 1.289 . S
O506 Mg502 2.117 1_556 S
O506 C516 1.250 . S
O507 Mg504 2.079 1_556 S
O507 C517 1.264 1_545 S
O508 Mg504 2.072 1_556 S
O508 C518 1.260 1_545 S
Mg509 O510 2.180 1_556 S
Mg509 O511 2.030 . S
Mg509 O512 1.990 . S
Mg509 O513 2.117 1_556 S
O510 Mg504 2.099 1_565 S
O510 Mg509 2.180 1_554 S
O510 C519 1.279 . S
O511 Mg509 2.030 . S
O511 C517 1.248 . S
O512 Mg509 1.990 . S
O512 C518 1.253 . S
O513 Mg509 2.117 1_554 S
O513 C519 1.250 . S
C514 O520 1.248 . S
C514 O521 1.264 . S
C515 O501 1.253 . S
C515 O503 1.260 . S
C516 O505 1.289 . S
C516 O506 1.250 . S
C517 O507 1.264 1_565 S
C517 O511 1.248 . S
C518 O508 1.260 1_565 S
C518 O512 1.253 . S
C519 O510 1.279 . S
C519 O513 1.250 . S
O520 Mg502 2.030 . S
O520 C514 1.248 . S
O521 Mg504 2.079 . S
O521 C514 1.264 . S
O522 Mg523 1.990 . S
O522 C536 1.253 . S
Mg523 O522 1.990 . S
Mg523 O526 2.180 . S
Mg523 O527 2.117 . S
Mg523 O541 2.030 . S
O524 Mg525 2.072 . S
O524 C536 1.260 . S
Mg525 O524 2.072 . S
Mg525 O526 2.099 . S
Mg525 O528 2.079 . S
Mg525 O529 2.072 . S
Mg525 O531 2.099 . S
Mg525 O542 2.079 . S
O526 Mg523 2.180 . S
O526 Mg525 2.099 . S
O526 C537 1.279 . S
O527 Mg523 2.117 . S
O527 C537 1.250 . S
O528 Mg525 2.079 . S
O528 C538 1.264 . S
O529 Mg525 2.072 . S
O529 C539 1.260 . S
Mg530 O531 2.180 . S
Mg530 O532 2.030 . S
Mg530 O533 1.990 . S
Mg530 O534 2.117 . S
O531 Mg525 2.099 . S
O531 Mg530 2.180 . S
O531 C540 1.279 . S
O532 Mg530 2.030 . S
O532 C538 1.248 . S
O533 Mg530 1.990 . S
O533 C539 1.253 . S
O534 Mg530 2.117 . S
O534 C540 1.250 . S
C535 O541 1.248 . S
C535 O542 1.264 . S
C536 O522 1.253 . S
C536 O524 1.260 . S
C537 O526 1.279 . S
C537 O527 1.250 . S
C538 O528 1.264 . S
C538 O532 1.248 . S
C539 O529 1.260 . S
C539 O533 1.253 . S
C540 O531 1.279 . S
C540 O534 1.250 . S
O541 Mg523 2.030 . S
O541 C535 1.248 . S
O542 Mg525 2.079 . S
O542 C535 1.264 . S
O543 Mg544 1.990 . S
O543 C557 1.253 . S
Mg544 O543 1.990 . S
Mg544 O547 2.180 1_455 S
Mg544 O548 2.117 1_455 S
Mg544 O562 2.030 . S
O545 Mg546 2.072 . S
O545 C557 1.260 . S
Mg546 O545 2.072 . S
Mg546 O547 2.099 1_455 S
Mg546 O549 2.079 1_454 S
Mg546 O550 2.072 1_455 S
Mg546 O552 2.099 1_554 S
Mg546 O563 2.079 . S
O547 Mg544 2.180 1_655 S
O547 Mg546 2.099 1_655 S
O547 C558 1.279 . S
O548 Mg544 2.117 1_655 S
O548 C558 1.250 . S
O549 Mg546 2.079 1_656 S
O549 C559 1.264 . S
O550 Mg546 2.072 1_655 S
O550 C560 1.260 1_554 S
Mg551 O552 2.180 1_655 S
Mg551 O553 2.030 . S
Mg551 O554 1.990 . S
Mg551 O555 2.117 . S
O552 Mg546 2.099 1_556 S
O552 Mg551 2.180 1_455 S
O552 C561 1.279 . S
O553 Mg551 2.030 . S
O553 C559 1.248 . S
O554 Mg551 1.990 . S
O554 C560 1.253 . S
O555 Mg551 2.117 . S
O555 C561 1.250 1_655 S
C556 O562 1.248 . S
C556 O563 1.264 . S
C557 O543 1.253 . S
C557 O545 1.260 . S
C558 O547 1.279 . S
C558 O548 1.250 . S
C559 O549 1.264 . S
C559 O553 1.248 . S
C560 O550 1.260 1_556 S
C560 O554 1.253 . S
C561 O552 1.279 . S
C561 O555 1.250 1_455 S
O562 Mg544 2.030 . S
O562 C556 1.248 . S
O563 Mg546 2.079 . S
O563 C556 1.264 . S
H564 C572 0.950 . S
H565 C577 0.950 . S
H566 C574 0.950 . S
H567 C576 0.950 . S
H568 C578 0.950 . S
H569 C580 0.950 . S
H570 C582 0.950 . S
H571 C583 0.950 1_655 S
C572 H564 0.950 . S
C572 C573 1.386 . S
C572 C574 1.391 . S
C573 C572 1.386 . S
C573 C577 1.393 . S
C574 H566 0.950 . S
C574 C572 1.391 . S
C574 C575 1.400 . S
C575 C574 1.400 . S
C575 C576 1.398 . S
C575 C581 1.491 . S
C576 H567 0.950 . S
C576 C575 1.398 . S
C576 C577 1.391 . S
C577 H565 0.950 . S
C577 C573 1.393 . S
C577 C576 1.391 . S
C578 H568 0.950 . S
C578 C579 1.386 . S
C578 C580 1.391 . S
C579 C578 1.386 . S
C579 C583 1.393 . S
C580 H569 0.950 . S
C580 C578 1.391 . S
C580 C581 1.400 . S
C581 C575 1.491 . S
C581 C580 1.400 . S
C581 C582 1.398 . S
C582 H570 0.950 . S
C582 C581 1.398 . S
C582 C583 1.391 . S
C583 H571 0.950 1_455 S
C583 C579 1.393 . S
C583 C582 1.391 . S
H584 C592 0.950 . S
H585 C597 0.950 . S
H586 C594 0.950 . S
H587 C596 0.950 . S
H588 C598 0.950 . S
H589 C600 0.950 . S
H590 C602 0.950 . S
H591 C603 0.950 1_545 S
C592 H584 0.950 . S
C592 C593 1.386 . S
C592 C594 1.391 . S
C593 C592 1.386 . S
C593 C597 1.393 . S
C594 H586 0.950 . S
C594 C592 1.391 . S
C594 C595 1.400 . S
C595 C594 1.400 . S
C595 C596 1.398 . S
C595 C601 1.491 . S
C596 H587 0.950 . S
C596 C595 1.398 . S
C596 C597 1.391 . S
C597 H585 0.950 . S
C597 C593 1.393 . S
C597 C596 1.391 . S
C598 H588 0.950 . S
C598 C599 1.386 . S
C598 C600 1.391 . S
C599 C598 1.386 . S
C599 C603 1.393 . S
C600 H589 0.950 . S
C600 C598 1.391 . S
C600 C601 1.400 . S
C601 C595 1.491 . S
C601 C600 1.400 . S
C601 C602 1.398 . S
C602 H590 0.950 . S
C602 C601 1.398 . S
C602 C603 1.391 . S
C603 H591 0.950 1_565 S
C603 C599 1.393 . S
C603 C602 1.391 . S
H604 C612 0.950 . S
H605 C617 0.950 . S
H606 C614 0.950 . S
H607 C616 0.950 . S
H608 C618 0.950 . S
H609 C620 0.950 . S
H610 C622 0.950 . S
H611 C623 0.950 . S
C612 H604 0.950 . S
C612 C613 1.386 . S
C612 C614 1.391 . S
C613 C612 1.386 . S
C613 C617 1.393 . S
C614 H606 0.950 . S
C614 C612 1.391 . S
C614 C615 1.400 . S
C615 C614 1.400 . S
C615 C616 1.398 . S
C615 C621 1.491 . S
C616 H607 0.950 . S
C616 C615 1.398 . S
C616 C617 1.391 . S
C617 H605 0.950 . S
C617 C613 1.393 . S
C617 C616 1.391 . S
C618 H608 0.950 . S
C618 C619 1.386 . S
C618 C620 1.391 . S
C619 C618 1.386 . S
C619 C623 1.393 . S
C620 H609 0.950 . S
C620 C618 1.391 . S
C620 C621 1.400 . S
C621 C615 1.491 . S
C621 C620 1.400 . S
C621 C622 1.398 . S
C622 H610 0.950 . S
C622 C621 1.398 . S
C622 C623 1.391 . S
C623 H611 0.950 . S
C623 C619 1.393 . S
C623 C622 1.391 . S
H624 C632 0.950 . S
H625 C637 0.950 . S
H626 C634 0.950 . S
H627 C636 0.950 . S
H628 C638 0.950 . S
H629 C640 0.950 . S
H630 C642 0.950 . S
H631 C643 0.950 . S
C632 H624 0.950 . S
C632 C633 1.386 . S
C632 C634 1.391 . S
C633 C632 1.386 . S
C633 C637 1.393 . S
C634 H626 0.950 . S
C634 C632 1.391 . S
C634 C635 1.400 . S
C635 C634 1.400 . S
C635 C636 1.398 . S
C635 C641 1.491 . S
C636 H627 0.950 . S
C636 C635 1.398 . S
C636 C637 1.391 . S
C637 H625 0.950 . S
C637 C633 1.393 . S
C637 C636 1.391 . S
C638 H628 0.950 . S
C638 C639 1.386 . S
C638 C640 1.391 . S
C639 C638 1.386 . S
C639 C643 1.393 . S
C640 H629 0.950 . S
C640 C638 1.391 . S
C640 C641 1.400 . S
C641 C635 1.491 . S
C641 C640 1.400 . S
C641 C642 1.398 . S
C642 H630 0.950 . S
C642 C641 1.398 . S
C642 C643 1.391 . S
C643 H631 0.950 . S
C643 C639 1.393 . S
C643 C642 1.391 . S
H644 C652 0.950 . S
H645 C657 0.950 . S
H646 C654 0.950 . S
H647 C656 0.950 . S
H648 C658 0.950 . S
H649 C660 0.950 . S
H650 C662 0.950 . S
H651 C663 0.950 . S
C652 H644 0.950 . S
C652 C653 1.386 . S
C652 C654 1.391 . S
C653 C652 1.386 . S
C653 C657 1.393 . S
C654 H646 0.950 . S
C654 C652 1.391 . S
C654 C655 1.400 . S
C655 C654 1.400 . S
C655 C656 1.398 . S
C655 C661 1.491 . S
C656 H647 0.950 . S
C656 C655 1.398 . S
C656 C657 1.391 . S
C657 H645 0.950 . S
C657 C653 1.393 . S
C657 C656 1.391 . S
C658 H648 0.950 . S
C658 C659 1.386 . S
C658 C660 1.391 . S
C659 C658 1.386 . S
C659 C663 1.393 . S
C660 H649 0.950 . S
C660 C658 1.391 . S
C660 C661 1.400 . S
C661 C655 1.491 . S
C661 C660 1.400 . S
C661 C662 1.398 . S
C662 H650 0.950 . S
C662 C661 1.398 . S
C662 C663 1.391 . S
C663 H651 0.950 . S
C663 C659 1.393 . S
C663 C662 1.391 . S
H664 C672 0.950 . S
H665 C677 0.950 . S
H666 C674 0.950 . S
H667 C676 0.950 . S
H668 C678 0.950 . S
H669 C680 0.950 . S
H670 C682 0.950 . S
H671 C683 0.950 1_545 S
C672 H664 0.950 . S
C672 C673 1.386 . S
C672 C674 1.391 . S
C673 C672 1.386 . S
C673 C677 1.393 . S
C674 H666 0.950 . S
C674 C672 1.391 . S
C674 C675 1.400 . S
C675 C674 1.400 . S
C675 C676 1.398 . S
C675 C681 1.491 . S
C676 H667 0.950 . S
C676 C675 1.398 . S
C676 C677 1.391 . S
C677 H665 0.950 . S
C677 C673 1.393 . S
C677 C676 1.391 . S
C678 H668 0.950 . S
C678 C679 1.386 . S
C678 C680 1.391 . S
C679 C678 1.386 . S
C679 C683 1.393 . S
C680 H669 0.950 . S
C680 C678 1.391 . S
C680 C681 1.400 . S
C681 C675 1.491 . S
C681 C680 1.400 . S
C681 C682 1.398 . S
C682 H670 0.950 . S
C682 C681 1.398 . S
C682 C683 1.391 . S
C683 H671 0.950 1_565 S
C683 C679 1.393 . S
C683 C682 1.391 . S
H684 C692 0.950 . S
H685 C697 0.950 . S
H686 C694 0.950 . S
H687 C696 0.950 . S
H688 C698 0.985 . S
H689 C700 0.950 1_554 S
H690 C702 0.950 . S
H691 C703 0.950 . S
C692 H684 0.950 . S
C692 C693 1.386 . S
C692 C694 1.391 . S
C693 C692 1.386 . S
C693 C697 1.393 . S
C694 H686 0.950 . S
C694 C692 1.391 . S
C694 C695 1.400 . S
C695 C694 1.400 . S
C695 C696 1.398 . S
C695 C701 1.491 . S
C696 H687 0.950 . S
C696 C695 1.398 . S
C696 C697 1.391 . S
C697 H685 0.950 . S
C697 C693 1.393 . S
C697 C696 1.391 . S
C698 H688 0.985 . S
C698 C699 1.362 1_554 S
C698 C700 1.380 1_554 S
C699 C698 1.362 1_556 S
C699 C703 1.393 . S
C700 H689 0.950 1_556 S
C700 C698 1.380 1_556 S
C700 C701 1.400 . S
C701 C695 1.491 . S
C701 C700 1.400 . S
C701 C702 1.398 . S
C702 H690 0.950 . S
C702 C701 1.398 . S
C702 C703 1.391 . S
C703 H691 0.950 . S
C703 C699 1.393 . S
C703 C702 1.391 . S
H704 C712 0.950 . S
H705 C717 0.950 . S
H706 C714 0.950 . S
H707 C716 0.950 . S
H708 C718 0.950 . S
H709 C720 0.950 . S
H710 C722 0.950 . S
H711 C723 0.950 . S
C712 H704 0.950 . S
C712 C713 1.386 . S
C712 C714 1.391 . S
C713 C712 1.386 . S
C713 C717 1.393 . S
C714 H706 0.950 . S
C714 C712 1.391 . S
C714 C715 1.400 . S
C715 C714 1.400 . S
C715 C716 1.398 . S
C715 C721 1.491 . S
C716 H707 0.950 . S
C716 C715 1.398 . S
C716 C717 1.391 . S
C717 H705 0.950 . S
C717 C713 1.393 . S
C717 C716 1.391 . S
C718 H708 0.950 . S
C718 C719 1.386 . S
C718 C720 1.391 . S
C719 C718 1.386 . S
C719 C723 1.393 . S
C720 H709 0.950 . S
C720 C718 1.391 . S
C720 C721 1.400 . S
C721 C715 1.491 . S
C721 C720 1.400 . S
C721 C722 1.398 . S
C722 H710 0.950 . S
C722 C721 1.398 . S
C722 C723 1.391 . S
C723 H711 0.950 . S
C723 C719 1.393 . S
C723 C722 1.391 . S
H724 C732 0.950 . S
H725 C737 0.950 . S
H726 C734 0.950 . S
H727 C736 0.950 . S
H728 C738 0.950 . S
H729 C740 0.950 . S
H730 C742 0.950 . S
H731 C743 0.950 1_556 S
C732 H724 0.950 . S
C732 C733 1.386 . S
C732 C734 1.391 . S
C733 C732 1.386 . S
C733 C737 1.393 . S
C734 H726 0.950 . S
C734 C732 1.391 . S
C734 C735 1.400 . S
C735 C734 1.400 . S
C735 C736 1.398 . S
C735 C741 1.491 . S
C736 H727 0.950 . S
C736 C735 1.398 . S
C736 C737 1.391 . S
C737 H725 0.950 . S
C737 C733 1.393 . S
C737 C736 1.391 . S
C738 H728 0.950 . S
C738 C739 1.386 . S
C738 C740 1.391 . S
C739 C738 1.386 . S
C739 C743 1.393 . S
C740 H729 0.950 . S
C740 C738 1.391 . S
C740 C741 1.400 . S
C741 C735 1.491 . S
C741 C740 1.400 . S
C741 C742 1.398 . S
C742 H730 0.950 . S
C742 C741 1.398 . S
C742 C743 1.391 . S
C743 H731 0.950 1_554 S
C743 C739 1.393 . S
C743 C742 1.391 . S
H744 C752 0.950 . S
H745 C757 0.950 . S
H746 C754 0.950 . S
H747 C756 0.950 . S
H748 C758 0.950 . S
H749 C760 0.950 . S
H750 C762 0.950 . S
H751 C763 0.950 . S
C752 H744 0.950 . S
C752 C753 1.386 . S
C752 C754 1.391 . S
C753 C752 1.386 . S
C753 C757 1.393 . S
C754 H746 0.950 . S
C754 C752 1.391 . S
C754 C755 1.400 . S
C755 C754 1.400 . S
C755 C756 1.398 . S
C755 C761 1.491 . S
C756 H747 0.950 . S
C756 C755 1.398 . S
C756 C757 1.391 . S
C757 H745 0.950 . S
C757 C753 1.393 . S
C757 C756 1.391 . S
C758 H748 0.950 . S
C758 C759 1.386 . S
C758 C760 1.391 . S
C759 C758 1.386 . S
C759 C763 1.393 . S
C760 H749 0.950 . S
C760 C758 1.391 . S
C760 C761 1.400 . S
C761 C755 1.491 . S
C761 C760 1.400 . S
C761 C762 1.398 . S
C762 H750 0.950 . S
C762 C761 1.398 . S
C762 C763 1.391 . S
C763 H751 0.950 . S
C763 C759 1.393 . S
C763 C762 1.391 . S
H764 C772 0.950 . S
H765 C777 0.950 . S
H766 C774 0.950 . S
H767 C776 0.950 . S
H768 C778 0.950 . S
H769 C780 0.950 . S
H770 C782 0.950 . S
H771 C783 0.950 . S
C772 H764 0.950 . S
C772 C773 1.386 . S
C772 C774 1.391 . S
C773 C772 1.386 . S
C773 C777 1.393 . S
C774 H766 0.950 . S
C774 C772 1.391 . S
C774 C775 1.400 . S
C775 C774 1.400 . S
C775 C776 1.398 . S
C775 C781 1.491 . S
C776 H767 0.950 . S
C776 C775 1.398 . S
C776 C777 1.391 . S
C777 H765 0.950 . S
C777 C773 1.393 . S
C777 C776 1.391 . S
C778 H768 0.950 . S
C778 C779 1.386 . S
C778 C780 1.391 . S
C779 C778 1.386 . S
C779 C783 1.393 . S
C780 H769 0.950 . S
C780 C778 1.391 . S
C780 C781 1.400 . S
C781 C775 1.491 . S
C781 C780 1.400 . S
C781 C782 1.398 . S
C782 H770 0.950 . S
C782 C781 1.398 . S
C782 C783 1.391 . S
C783 H771 0.950 . S
C783 C779 1.393 . S
C783 C782 1.391 . S
H784 C792 0.950 . S
H785 C797 0.950 . S
H786 C794 0.950 . S
H787 C796 0.950 . S
H788 C798 0.950 . S
H789 C800 0.950 . S
H790 C802 0.950 . S
H791 C803 0.950 . S
C792 H784 0.950 . S
C792 C793 1.386 . S
C792 C794 1.391 . S
C793 C792 1.386 . S
C793 C797 1.393 . S
C794 H786 0.950 . S
C794 C792 1.391 . S
C794 C795 1.400 . S
C795 C794 1.400 . S
C795 C796 1.398 . S
C795 C801 1.491 . S
C796 H787 0.950 . S
C796 C795 1.398 . S
C796 C797 1.391 . S
C797 H785 0.950 . S
C797 C793 1.393 . S
C797 C796 1.391 . S
C798 H788 0.950 . S
C798 C799 1.386 . S
C798 C800 1.391 . S
C799 C798 1.386 . S
C799 C803 1.393 . S
C800 H789 0.950 . S
C800 C798 1.391 . S
C800 C801 1.400 . S
C801 C795 1.491 . S
C801 C800 1.400 . S
C801 C802 1.398 . S
C802 H790 0.950 . S
C802 C801 1.398 . S
C802 C803 1.391 . S
C803 H791 0.950 . S
C803 C799 1.393 . S
C803 C802 1.391 . S
H804 C812 0.950 . S
H805 C817 0.950 . S
H806 C814 0.950 . S
H807 C816 0.950 . S
H808 C818 0.950 1_455 S
H809 C820 0.950 1_455 S
H810 C822 0.950 . S
H811 C823 0.950 . S
C812 H804 0.950 . S
C812 C813 1.386 . S
C812 C814 1.391 . S
C813 C812 1.386 . S
C813 C817 1.393 . S
C814 H806 0.950 . S
C814 C812 1.391 . S
C814 C815 1.400 . S
C815 C814 1.400 . S
C815 C816 1.398 . S
C815 C821 1.491 . S
C816 H807 0.950 . S
C816 C815 1.398 . S
C816 C817 1.391 . S
C817 H805 0.950 . S
C817 C813 1.393 . S
C817 C816 1.391 . S
C818 H808 0.950 1_655 S
C818 C819 1.386 . S
C818 C820 1.391 . S
C819 C818 1.386 . S
C819 C823 1.393 . S
C820 H809 0.950 1_655 S
C820 C818 1.391 . S
C820 C821 1.400 . S
C821 C815 1.491 . S
C821 C820 1.400 . S
C821 C822 1.398 . S
C822 H810 0.950 . S
C822 C821 1.398 . S
C822 C823 1.391 . S
C823 H811 0.950 . S
C823 C819 1.393 . S
C823 C822 1.391 . S
H824 C832 0.950 . S
H825 C837 0.950 . S
H826 C834 0.950 . S
H827 C836 0.950 . S
H828 C838 0.950 . S
H829 C840 0.950 . S
H830 C842 0.950 . S
H831 C843 0.950 . S
C832 H824 0.950 . S
C832 C833 1.386 . S
C832 C834 1.391 . S
C833 C832 1.386 . S
C833 C837 1.393 . S
C834 H826 0.950 . S
C834 C832 1.391 . S
C834 C835 1.400 . S
C835 C834 1.400 . S
C835 C836 1.398 . S
C835 C841 1.491 . S
C836 H827 0.950 . S
C836 C835 1.398 . S
C836 C837 1.391 . S
C837 H825 0.950 . S
C837 C833 1.393 . S
C837 C836 1.391 . S
C838 H828 0.950 . S
C838 C839 1.386 . S
C838 C840 1.391 . S
C839 C838 1.386 . S
C839 C843 1.393 . S
C840 H829 0.950 . S
C840 C838 1.391 . S
C840 C841 1.400 . S
C841 C835 1.491 . S
C841 C840 1.400 . S
C841 C842 1.398 . S
C842 H830 0.950 . S
C842 C841 1.398 . S
C842 C843 1.391 . S
C843 H831 0.950 . S
C843 C839 1.393 . S
C843 C842 1.391 . S
H844 C852 0.950 . S
H845 C857 0.950 . S
H846 C854 0.950 . S
H847 C856 0.950 . S
H848 C858 0.950 . S
H849 C860 0.950 . S
H850 C862 0.950 . S
H851 C863 0.950 . S
C852 H844 0.950 . S
C852 C853 1.386 . S
C852 C854 1.391 . S
C853 C852 1.386 . S
C853 C857 1.393 . S
C854 H846 0.950 . S
C854 C852 1.391 . S
C854 C855 1.400 . S
C855 C854 1.400 . S
C855 C856 1.398 . S
C855 C861 1.491 . S
C856 H847 0.950 . S
C856 C855 1.398 . S
C856 C857 1.391 . S
C857 H845 0.950 . S
C857 C853 1.393 . S
C857 C856 1.391 . S
C858 H848 0.950 . S
C858 C859 1.386 . S
C858 C860 1.391 . S
C859 C858 1.386 . S
C859 C863 1.393 . S
C860 H849 0.950 . S
C860 C858 1.391 . S
C860 C861 1.400 . S
C861 C855 1.491 . S
C861 C860 1.400 . S
C861 C862 1.398 . S
C862 H850 0.950 . S
C862 C861 1.398 . S
C862 C863 1.391 . S
C863 H851 0.950 . S
C863 C859 1.393 . S
C863 C862 1.391 . S
H864 C872 0.950 . S
H865 C877 0.950 . S
H866 C874 0.950 . S
H867 C876 0.950 . S
H868 C878 0.950 . S
H869 C880 0.950 . S
H870 C882 0.950 . S
H871 C883 0.950 . S
C872 H864 0.950 . S
C872 C873 1.386 . S
C872 C874 1.391 . S
C873 C872 1.386 . S
C873 C877 1.393 . S
C874 H866 0.950 . S
C874 C872 1.391 . S
C874 C875 1.400 . S
C875 C874 1.400 . S
C875 C876 1.398 . S
C875 C881 1.491 . S
C876 H867 0.950 . S
C876 C875 1.398 . S
C876 C877 1.391 . S
C877 H865 0.950 . S
C877 C873 1.393 . S
C877 C876 1.391 . S
C878 H868 0.950 . S
C878 C879 1.386 . S
C878 C880 1.391 . S
C879 C878 1.386 . S
C879 C883 1.393 . S
C880 H869 0.950 . S
C880 C878 1.391 . S
C880 C881 1.400 . S
C881 C875 1.491 . S
C881 C880 1.400 . S
C881 C882 1.398 . S
C882 H870 0.950 . S
C882 C881 1.398 . S
C882 C883 1.391 . S
C883 H871 0.950 . S
C883 C879 1.393 . S
C883 C882 1.391 . S
H884 C892 0.950 . S
H885 C897 0.950 . S
H886 C894 0.950 . S
H887 C896 0.950 . S
H888 C898 0.950 1_545 S
H889 C900 0.933 1_545 S
H890 C902 0.950 . S
H891 C903 0.950 . S
C892 H884 0.950 . S
C892 C893 1.386 . S
C892 C894 1.391 . S
C893 C892 1.386 . S
C893 C897 1.393 . S
C894 H886 0.950 . S
C894 C892 1.391 . S
C894 C895 1.400 . S
C895 C894 1.400 . S
C895 C896 1.398 . S
C895 C901 1.491 . S
C896 H887 0.950 . S
C896 C895 1.398 . S
C896 C897 1.391 . S
C897 H885 0.950 . S
C897 C893 1.393 . S
C897 C896 1.391 . S
C898 H888 0.950 1_565 S
C898 C899 1.386 . S
C898 C900 1.391 . S
C899 C898 1.386 . S
C899 C903 1.393 . S
C900 H889 0.933 1_565 S
C900 C898 1.391 . S
C900 C901 1.400 . S
C901 C895 1.491 . S
C901 C900 1.400 . S
C901 C902 1.398 . S
C902 H890 0.950 . S
C902 C901 1.398 . S
C902 C903 1.391 . S
C903 H891 0.950 . S
C903 C899 1.393 . S
C903 C902 1.391 . S
H904 C912 0.950 . S
H905 C917 0.950 . S
H906 C914 0.950 . S
H907 C916 0.950 . S
H908 C918 0.950 . S
H909 C920 0.950 . S
H910 C922 0.950 . S
H911 C923 0.950 . S
C912 H904 0.950 . S
C912 C913 1.386 . S
C912 C914 1.391 . S
C913 C912 1.386 . S
C913 C917 1.393 . S
C914 H906 0.950 . S
C914 C912 1.391 . S
C914 C915 1.400 . S
C915 C914 1.400 . S
C915 C916 1.398 . S
C915 C921 1.491 . S
C916 H907 0.950 . S
C916 C915 1.398 . S
C916 C917 1.391 . S
C917 H905 0.950 . S
C917 C913 1.393 . S
C917 C916 1.391 . S
C918 H908 0.950 . S
C918 C919 1.386 . S
C918 C920 1.391 . S
C919 C918 1.386 . S
C919 C923 1.393 . S
C920 H909 0.950 . S
C920 C918 1.391 . S
C920 C921 1.400 . S
C921 C915 1.491 . S
C921 C920 1.400 . S
C921 C922 1.398 . S
C922 H910 0.950 . S
C922 C921 1.398 . S
C922 C923 1.391 . S
C923 H911 0.950 . S
C923 C919 1.393 . S
C923 C922 1.391 . S
H924 C932 0.950 . S
H925 C937 0.950 . S
H926 C934 0.950 . S
H927 C936 0.950 . S
H928 C938 0.950 . S
H929 C940 0.950 . S
H930 C942 0.950 . S
H931 C943 0.950 . S
C932 H924 0.950 . S
C932 C933 1.386 . S
C932 C934 1.391 . S
C933 C932 1.386 . S
C933 C937 1.393 . S
C934 H926 0.950 . S
C934 C932 1.391 . S
C934 C935 1.400 . S
C935 C934 1.400 . S
C935 C936 1.398 . S
C935 C941 1.491 . S
C936 H927 0.950 . S
C936 C935 1.398 . S
C936 C937 1.391 . S
C937 H925 0.950 . S
C937 C933 1.393 . S
C937 C936 1.391 . S
C938 H928 0.950 . S
C938 C939 1.386 . S
C938 C940 1.391 . S
C939 C938 1.386 . S
C939 C943 1.393 . S
C940 H929 0.950 . S
C940 C938 1.391 . S
C940 C941 1.400 . S
C941 C935 1.491 . S
C941 C940 1.400 . S
C941 C942 1.398 . S
C942 H930 0.950 . S
C942 C941 1.398 . S
C942 C943 1.391 . S
C943 H931 0.950 . S
C943 C939 1.393 . S
C943 C942 1.391 . S
H944 C952 0.950 . S
H945 C957 0.950 . S
H946 C954 0.950 . S
H947 C956 0.950 . S
H948 C958 0.950 . S
H949 C960 0.950 . S
H950 C962 0.950 . S
H951 C963 0.950 . S
C952 H944 0.950 . S
C952 C953 1.386 . S
C952 C954 1.391 . S
C953 C952 1.386 . S
C953 C957 1.393 . S
C954 H946 0.950 . S
C954 C952 1.391 . S
C954 C955 1.400 . S
C955 C954 1.400 . S
C955 C956 1.398 . S
C955 C961 1.491 . S
C956 H947 0.950 . S
C956 C955 1.398 . S
C956 C957 1.391 . S
C957 H945 0.950 . S
C957 C953 1.393 . S
C957 C956 1.391 . S
C958 H948 0.950 . S
C958 C959 1.386 . S
C958 C960 1.391 . S
C959 C958 1.386 . S
C959 C963 1.393 . S
C960 H949 0.950 . S
C960 C958 1.391 . S
C960 C961 1.400 . S
C961 C955 1.491 . S
C961 C960 1.400 . S
C961 C962 1.398 . S
C962 H950 0.950 . S
C962 C961 1.398 . S
C962 C963 1.391 . S
C963 H951 0.950 . S
C963 C959 1.393 . S
C963 C962 1.391 . S
H964 C972 0.950 . S
H965 C977 0.950 . S
H966 C974 0.950 . S
H967 C976 0.950 . S
H968 C978 0.938 1_455 S
H969 C980 0.950 . S
H970 C982 0.950 . S
H971 C983 0.950 . S
C972 H964 0.950 . S
C972 C973 1.386 . S
C972 C974 1.391 . S
C973 C972 1.386 . S
C973 C977 1.393 . S
C974 H966 0.950 . S
C974 C972 1.391 . S
C974 C975 1.400 . S
C975 C974 1.400 . S
C975 C976 1.398 . S
C975 C981 1.491 . S
C976 H967 0.950 . S
C976 C975 1.398 . S
C976 C977 1.391 . S
C977 H965 0.950 . S
C977 C973 1.393 . S
C977 C976 1.391 . S
C978 H968 0.938 1_655 S
C978 C979 1.386 . S
C978 C980 1.391 . S
C979 C978 1.386 . S
C979 C983 1.393 . S
C980 H969 0.950 . S
C980 C978 1.391 . S
C980 C981 1.400 . S
C981 C975 1.491 . S
C981 C980 1.400 . S
C981 C982 1.398 . S
C982 H970 0.950 . S
C982 C981 1.398 . S
C982 C983 1.391 . S
C983 H971 0.950 . S
C983 C979 1.393 . S
C983 C982 1.391 . S
H984 C992 0.950 . S
H985 C997 0.950 . S
H986 C994 0.950 . S
H987 C996 0.950 . S
H988 C998 0.950 . S
H989 C1000 0.950 . S
H990 C1002 0.950 . S
H991 C1003 0.950 . S
C992 H984 0.950 . S
C992 C993 1.386 . S
C992 C994 1.391 . S
C993 C992 1.386 . S
C993 C997 1.393 . S
C994 H986 0.950 . S
C994 C992 1.391 . S
C994 C995 1.400 . S
C995 C994 1.400 . S
C995 C996 1.398 . S
C995 C1001 1.491 . S
C996 H987 0.950 . S
C996 C995 1.398 . S
C996 C997 1.391 . S
C997 H985 0.950 . S
C997 C993 1.393 . S
C997 C996 1.391 . S
C998 H988 0.950 . S
C998 C999 1.386 . S
C998 C1000 1.391 . S
C999 C998 1.386 . S
C999 C1003 1.393 . S
C1000 H989 0.950 . S
C1000 C998 1.391 . S
C1000 C1001 1.400 . S
C1001 C995 1.491 . S
C1001 C1000 1.400 . S
C1001 C1002 1.398 . S
C1002 H990 0.950 . S
C1002 C1001 1.398 . S
C1002 C1003 1.391 . S
C1003 H991 0.950 . S
C1003 C999 1.393 . S
C1003 C1002 1.391 . S
H1004 C1012 0.950 . S
H1005 C1017 0.950 . S
H1006 C1014 0.950 . S
H1007 C1016 0.950 . S
H1008 C1018 0.950 . S
H1009 C1020 0.950 . S
H1010 C1022 0.950 . S
H1011 C1023 0.950 . S
C1012 H1004 0.950 . S
C1012 C1013 1.386 . S
C1012 C1014 1.391 . S
C1013 C1012 1.386 . S
C1013 C1017 1.393 . S
C1014 H1006 0.950 . S
C1014 C1012 1.391 . S
C1014 C1015 1.400 . S
C1015 C1014 1.400 . S
C1015 C1016 1.398 . S
C1015 C1021 1.491 . S
C1016 H1007 0.950 . S
C1016 C1015 1.398 . S
C1016 C1017 1.391 . S
C1017 H1005 0.950 . S
C1017 C1013 1.393 . S
C1017 C1016 1.391 . S
C1018 H1008 0.950 . S
C1018 C1019 1.386 . S
C1018 C1020 1.391 . S
C1019 C1018 1.386 . S
C1019 C1023 1.393 . S
C1020 H1009 0.950 . S
C1020 C1018 1.391 . S
C1020 C1021 1.400 . S
C1021 C1015 1.491 . S
C1021 C1020 1.400 . S
C1021 C1022 1.398 . S
C1022 H1010 0.950 . S
C1022 C1021 1.398 . S
C1022 C1023 1.391 . S
C1023 H1011 0.950 . S
C1023 C1019 1.393 . S
C1023 C1022 1.391 . S
H1024 C1032 0.950 . S
H1025 C1037 0.950 . S
H1026 C1034 0.950 . S
H1027 C1036 0.950 . S
H1028 C1038 0.950 . S
H1029 C1040 0.950 . S
H1030 C1042 0.950 . S
H1031 C1043 0.950 . S
C1032 H1024 0.950 . S
C1032 C1033 1.386 . S
C1032 C1034 1.391 . S
C1033 C1032 1.386 . S
C1033 C1037 1.393 . S
C1034 H1026 0.950 . S
C1034 C1032 1.391 . S
C1034 C1035 1.400 . S
C1035 C1034 1.400 . S
C1035 C1036 1.398 . S
C1035 C1041 1.491 . S
C1036 H1027 0.950 . S
C1036 C1035 1.398 . S
C1036 C1037 1.391 . S
C1037 H1025 0.950 . S
C1037 C1033 1.393 . S
C1037 C1036 1.391 . S
C1038 H1028 0.950 . S
C1038 C1039 1.386 . S
C1038 C1040 1.391 . S
C1039 C1038 1.386 . S
C1039 C1043 1.393 . S
C1040 H1029 0.950 . S
C1040 C1038 1.391 . S
C1040 C1041 1.400 . S
C1041 C1035 1.491 . S
C1041 C1040 1.400 . S
C1041 C1042 1.398 . S
C1042 H1030 0.950 . S
C1042 C1041 1.398 . S
C1042 C1043 1.391 . S
C1043 H1031 0.950 . S
C1043 C1039 1.393 . S
C1043 C1042 1.391 . S
C573 C1 1.598 . S
C579 C496 1.573 . S
C593 C80 1.463 . S
C599 C518 1.434 . S
C619 C537 1.206 . S
C613 C140 1.416 . S
C633 C211 1.776 . S
C639 C558 1.524 . S
C659 C515 1.769 . S
C653 C31 1.795 . S
C679 C493 1.664 . S
C673 C61 1.669 . S
C699 C560 1.299 . S
C693 C151 1.332 . S
C719 C539 1.461 . S
C713 C200 1.468 . S
C733 C20 1.749 . S
C739 C557 1.709 . S
C759 C516 1.295 . S
C753 C121 1.561 . S
C773 C181 1.636 . S
C779 C498 1.531 . S
C793 C91 1.494 . S
C799 C536 1.515 . S
C819 C494 1.576 . S
C813 C260 1.625 . S
C833 C320 1.276 . S
C839 C514 1.299 . S
C853 C361 1.508 . S
C859 C540 1.296 . S
C873 C451 1.689 . S
C879 C561 1.398 . S
C893 C271 1.746 . S
C899 C517 1.712 . S
C919 C497 1.728 . S
C913 C301 1.743 . S
C939 C556 1.185 . S
C933 C380 1.229 . S
C959 C535 1.545 . S
C953 C440 1.531 . S
C973 C241 1.542 . S
C979 C559 1.535 . S
C999 C519 1.286 . S
C993 C391 1.514 . S
C1019 C495 1.334 . S
C1013 C421 1.467 . S
C1033 C331 1.432 . S
C1039 C538 1.443 . S
