# Generated by pormake.
# Topology hwx, (6,3)-cn, num edge types: 1
# Building blocks:
#     Node 0, Type 0, BuildingBlock: OJICUG_clean_sbu_0, # of connection points: 6
#     Node 1, Type 0, BuildingBlock: OJICUG_clean_sbu_0, # of connection points: 6
#     Node 2, Type 0, BuildingBlock: OJICUG_clean_sbu_0, # of connection points: 6
#     Node 3, Type 0, BuildingBlock: OJICUG_clean_sbu_0, # of connection points: 6
#     Node 4, Type 1, BuildingBlock: BELTOD_clean_linker_0, # of connection points: 3
#     Node 5, Type 1, BuildingBlock: BELTOD_clean_linker_0, # of connection points: 3
#     Node 6, Type 1, BuildingBlock: BELTOD_clean_linker_0, # of connection points: 3
#     Node 7, Type 1, BuildingBlock: BELTOD_clean_linker_0, # of connection points: 3
#     Node 8, Type 1, BuildingBlock: BELTOD_clean_linker_0, # of connection points: 3
#     Node 9, Type 1, BuildingBlock: BELTOD_clean_linker_0, # of connection points: 3
#     Node 10, Type 1, BuildingBlock: BELTOD_clean_linker_0, # of connection points: 3
#     Node 11, Type 1, BuildingBlock: BELTOD_clean_linker_0, # of connection points: 3
#     Edge 12, Type (0, 1), BuildingBlock: KIFKEQ_clean_linker_1, # of connection points: 2
#     Edge 13, Type (0, 1), BuildingBlock: KIFKEQ_clean_linker_1, # of connection points: 2
#     Edge 14, Type (0, 1), BuildingBlock: KIFKEQ_clean_linker_1, # of connection points: 2
#     Edge 15, Type (0, 1), BuildingBlock: KIFKEQ_clean_linker_1, # of connection points: 2
#     Edge 16, Type (0, 1), BuildingBlock: KIFKEQ_clean_linker_1, # of connection points: 2
#     Edge 17, Type (0, 1), BuildingBlock: KIFKEQ_clean_linker_1, # of connection points: 2
#     Edge 18, Type (0, 1), BuildingBlock: KIFKEQ_clean_linker_1, # of connection points: 2
#     Edge 19, Type (0, 1), BuildingBlock: KIFKEQ_clean_linker_1, # of connection points: 2
#     Edge 20, Type (0, 1), BuildingBlock: KIFKEQ_clean_linker_1, # of connection points: 2
#     Edge 21, Type (0, 1), BuildingBlock: KIFKEQ_clean_linker_1, # of connection points: 2
#     Edge 22, Type (0, 1), BuildingBlock: KIFKEQ_clean_linker_1, # of connection points: 2
#     Edge 23, Type (0, 1), BuildingBlock: KIFKEQ_clean_linker_1, # of connection points: 2
#     Edge 24, Type (0, 1), BuildingBlock: KIFKEQ_clean_linker_1, # of connection points: 2
#     Edge 25, Type (0, 1), BuildingBlock: KIFKEQ_clean_linker_1, # of connection points: 2
#     Edge 26, Type (0, 1), BuildingBlock: KIFKEQ_clean_linker_1, # of connection points: 2
#     Edge 27, Type (0, 1), BuildingBlock: KIFKEQ_clean_linker_1, # of connection points: 2
#     Edge 28, Type (0, 1), BuildingBlock: KIFKEQ_clean_linker_1, # of connection points: 2
#     Edge 29, Type (0, 1), BuildingBlock: KIFKEQ_clean_linker_1, # of connection points: 2
#     Edge 30, Type (0, 1), BuildingBlock: KIFKEQ_clean_linker_1, # of connection points: 2
#     Edge 31, Type (0, 1), BuildingBlock: KIFKEQ_clean_linker_1, # of connection points: 2
#     Edge 32, Type (0, 1), BuildingBlock: KIFKEQ_clean_linker_1, # of connection points: 2
#     Edge 33, Type (0, 1), BuildingBlock: KIFKEQ_clean_linker_1, # of connection points: 2
#     Edge 34, Type (0, 1), BuildingBlock: KIFKEQ_clean_linker_1, # of connection points: 2
#     Edge 35, Type (0, 1), BuildingBlock: KIFKEQ_clean_linker_1, # of connection points: 2
# Relax obj value: 0.069
# Max RMSD: 0.096
# Mean RMSD: 0.086
data_MOF--net-hwx--node1-OJICUG_clean_sbu_0--node2-BELTOD_clean_linker_0--edge1-KIFKEQ_clean_linker_1
_symmetry_space_group_name_H-M    P1
_symmetry_Int_Tables_number       1
_symmetry_cell_setting            triclinic
loop_
_symmetry_equiv_pos_as_xyz
'x, y, z'
_cell_length_a     57.818235
_cell_length_b     57.779638
_cell_length_c     25.712749
_cell_angle_alpha  89.431585
_cell_angle_beta   90.582468
_cell_angle_gamma 90.044426
loop_
_atom_site_label
_atom_site_type_symbol
_atom_site_fract_x
_atom_site_fract_y
_atom_site_fract_z
_atom_type_partial_charge
Sc0 Sc 0.20881 0.21405 0.07454 0.0
Sc1 Sc 0.17243 0.17551 0.00576 0.0
Sc2 Sc 0.21274 0.21098 0.93927 0.0
O3 O 0.19796 0.20012 0.00648 0.0
C4 C 0.20799 0.2585 0.00101 0.0
C5 C 0.15444 0.20957 0.09332 0.0
C6 C 0.15925 0.20716 0.90734 0.0
C7 C 0.20385 0.1605 0.10361 0.0
C8 C 0.25668 0.21048 0.01419 0.0
C9 C 0.20714 0.15678 0.91981 0.0
O10 O 0.20613 0.24897 0.04553 0.0
O11 O 0.15069 0.19425 0.05907 0.0
O12 O 0.17966 0.21493 0.90188 0.0
O13 O 0.21268 0.18047 0.10943 0.0
O14 O 0.24756 0.20859 0.96929 0.0
O15 O 0.19081 0.1537 0.95199 0.0
O16 O 0.2448 0.21285 0.05502 0.0
O17 O 0.18858 0.15603 0.069 0.0
O18 O 0.21651 0.17635 0.91174 0.0
O19 O 0.17443 0.21759 0.10285 0.0
O20 O 0.21092 0.24703 0.95964 0.0
O21 O 0.15384 0.19257 0.94265 0.0
Sc22 Sc 0.27288 0.71408 0.42429 0.0
Sc23 Sc 0.31713 0.68653 0.49737 0.0
Sc24 Sc 0.27047 0.7132 0.56084 0.0
O25 O 0.28681 0.70451 0.49417 0.0
C26 C 0.26548 0.7593 0.49201 0.0
C27 C 0.32691 0.72183 0.40414 0.0
C28 C 0.3235 0.72127 0.59221 0.0
C29 C 0.29037 0.66289 0.4019 0.0
C30 C 0.22726 0.70148 0.48783 0.0
C31 C 0.28783 0.66205 0.58748 0.0
O32 O 0.26795 0.74924 0.44866 0.0
O33 O 0.33386 0.70868 0.441 0.0
O34 O 0.30193 0.72437 0.59762 0.0
O35 O 0.27683 0.67988 0.39329 0.0
O36 O 0.2368 0.70337 0.53231 0.0
O37 O 0.30402 0.66229 0.55431 0.0
O38 O 0.23815 0.70488 0.44577 0.0
O39 O 0.3059 0.66301 0.43737 0.0
O40 O 0.27418 0.67903 0.59375 0.0
O41 O 0.30562 0.72491 0.39359 0.0
O42 O 0.26556 0.74847 0.5353 0.0
O43 O 0.33178 0.70815 0.55758 0.0
Sc44 Sc 0.7618 0.75841 0.92918 0.0
Sc45 Sc 0.79782 0.7965 -0.0009 0.0
Sc46 Sc 0.75955 0.75966 0.0663 0.0
O47 O 0.77307 0.77152 0.99819 0.0
C48 C 0.71479 0.76229 0.99238 0.0
C49 C 0.76738 0.81209 0.90072 0.0
C50 C 0.76371 0.81378 0.08777 0.0
C51 C 0.81604 0.76314 0.9099 0.0
C52 C 0.76431 0.71312 0.0016 0.0
C53 C 0.8129 0.76554 0.09707 0.0
O54 O 0.72589 0.76171 0.94995 0.0
O55 O 0.78115 0.81638 0.93826 0.0
O56 O 0.75453 0.79408 0.09587 0.0
O57 O 0.79648 0.75386 0.90073 0.0
O58 O 0.76328 0.72394 0.04434 0.0
O59 O 0.81738 0.77956 0.06011 0.0
O60 O 0.76345 0.72328 0.95755 0.0
O61 O 0.81894 0.77881 0.94374 0.0
O62 O 0.79284 0.75714 0.10431 0.0
O63 O 0.75922 0.79201 0.8924 0.0
O64 O 0.72468 0.76116 0.03669 0.0
O65 O 0.77955 0.81706 0.05457 0.0
Sc66 Sc 0.71217 0.26959 0.57577 0.0
Sc67 Sc 0.68647 0.31493 0.5029 0.0
Sc68 Sc 0.71415 0.26892 0.43932 0.0
O69 O 0.7042 0.28448 0.50596 0.0
C70 C 0.75856 0.26234 0.51326 0.0
C71 C 0.71981 0.32344 0.59977 0.0
C72 C 0.72348 0.32204 0.41234 0.0
C73 C 0.66085 0.28695 0.59404 0.0
C74 C 0.70028 0.22504 0.50728 0.0
C75 C 0.6636 0.28724 0.40898 0.0
O76 O 0.74789 0.26567 0.5555 0.0
O77 O 0.70828 0.33098 0.56081 0.0
O78 O 0.72754 0.30057 0.40755 0.0
O79 O 0.67715 0.27255 0.60217 0.0
O80 O 0.70202 0.23541 0.46372 0.0
O81 O 0.66266 0.30218 0.44487 0.0
O82 O 0.70417 0.23501 0.55035 0.0
O83 O 0.66227 0.30355 0.56128 0.0
O84 O 0.68117 0.2745 0.40169 0.0
O85 O 0.7217 0.302 0.61048 0.0
O86 O 0.74844 0.26194 0.46911 0.0
O87 O 0.70868 0.32985 0.444 0.0
P88 P 0.30647 0.48708 -0.00053 0.0
H89 H 0.33163 0.4947 0.0974 0.0
H90 H 0.3254 0.52138 0.16911 0.0
H91 H 0.26265 0.54576 0.094 0.0
H92 H 0.26923 0.51926 0.02204 0.0
H93 H 0.29793 0.45166 0.92219 0.0
H94 H 0.27357 0.41703 0.92158 0.0
H95 H 0.24848 0.43412 0.07419 0.0
H96 H 0.27298 0.46853 0.07478 0.0
H97 H 0.33634 0.52222 0.95529 0.0
H98 H 0.26966 0.4924 0.91989 0.0
O99 O 0.33348 0.47699 0.00287 0.0
H100 H 0.33155 0.54951 0.88254 0.0
H101 H 0.26504 0.51932 0.84641 0.0
C102 C 0.30109 0.50535 0.05414 0.0
C103 C 0.3165 0.50574 0.09649 0.0
C104 C 0.31282 0.52087 0.13764 0.0
C105 C 0.29361 0.5358 0.13704 0.0
C106 C 0.2778 0.53476 0.09518 0.0
C107 C 0.2815 0.5196 0.05414 0.0
C108 C 0.28706 0.46278 0.99816 0.0
C109 C 0.28694 0.44808 0.95518 0.0
C110 C 0.27292 0.4284 0.95477 0.0
C111 C 0.25903 0.42295 0.99775 0.0
C112 C 0.25907 0.43786 0.04062 0.0
C113 C 0.27301 0.45761 0.04085 0.0
C114 C 0.30365 0.50494 0.94216 0.0
C115 C 0.32089 0.52125 0.93122 0.0
C116 C 0.31808 0.53689 0.88995 0.0
C117 C 0.29798 0.53639 0.85886 0.0
C118 C 0.28084 0.51981 0.8694 0.0
C119 C 0.28352 0.50438 0.91125 0.0
P120 P 0.98781 0.76388 0.51122 0.0
H121 H 0.98431 0.78452 0.61426 0.0
H122 H 0.95932 0.77613 0.68808 0.0
H123 H 0.93254 0.71604 0.60883 0.0
H124 H 0.95761 0.7246 0.53493 0.0
H125 H 0.01503 0.75373 0.41946 0.0
H126 H 0.05212 0.73456 0.40795 0.0
H127 H 0.05572 0.72023 0.57325 0.0
H128 H 0.01801 0.73843 0.58387 0.0
H129 H 0.95356 0.79572 0.46848 0.0
H130 H 0.97726 0.72647 0.43784 0.0
O131 O 0.99599 0.79148 0.51624 0.0
H132 H 0.92479 0.7924 0.3986 0.0
H133 H 0.94862 0.72312 0.36743 0.0
C134 C 0.9724 0.75547 0.56875 0.0
C135 C 0.97331 0.76937 0.61304 0.0
C136 C 0.95912 0.76445 0.65539 0.0
C137 C 0.9438 0.74554 0.654 0.0
C138 C 0.94393 0.73091 0.61064 0.0
C139 C 0.95825 0.73577 0.56846 0.0
C140 C 0.01348 0.74694 0.50226 0.0
C141 C 0.02348 0.74584 0.45297 0.0
C142 C 0.04487 0.73512 0.44657 0.0
C143 C 0.05701 0.72588 0.48969 0.0
C144 C 0.0467 0.72673 0.53901 0.0
C145 C 0.02515 0.73724 0.54522 0.0
C146 C 0.96797 0.76163 0.45721 0.0
C147 C 0.95278 0.77992 0.4462 0.0
C148 C 0.93624 0.77793 0.40661 0.0
C149 C 0.93457 0.75753 0.37749 0.0
C150 C 0.94978 0.73915 0.38877 0.0
C151 C 0.96618 0.74109 0.42881 0.0
P152 P 0.82621 0.46631 0.00401 0.0
H153 H 0.84263 0.45826 0.89842 0.0
H154 H 0.82568 0.43801 0.82389 0.0
H155 H 0.76483 0.42271 0.91424 0.0
H156 H 0.78177 0.44305 0.98817 0.0
H157 H 0.85031 0.50888 0.0323 0.0
H158 H 0.83834 0.54941 0.03341 0.0
H159 H 0.77003 0.52954 0.98018 0.0
H160 H 0.78239 0.48923 0.97767 0.0
H161 H 0.83984 0.42222 0.04958 0.0
H162 H 0.79244 0.47727 0.08556 0.0
O163 O 0.85498 0.46492 0.00013 0.0
H164 H 0.82551 0.39969 0.12352 0.0
H165 H 0.77775 0.45471 0.15879 0.0
C166 C 0.81363 0.45176 0.94903 0.0
C167 C 0.82567 0.45049 0.90213 0.0
C168 C 0.81598 0.43891 0.85964 0.0
C169 C 0.79395 0.42871 0.86326 0.0
C170 C 0.78174 0.43057 0.91005 0.0
C171 C 0.7915 0.44201 0.95252 0.0
C172 C 0.81739 0.49614 0.00387 0.0
C173 C 0.83283 0.51331 0.02041 0.0
C174 C 0.82587 0.53645 0.02153 0.0
C175 C 0.80322 0.54277 0.00672 0.0
C176 C 0.78772 0.52537 0.99087 0.0
C177 C 0.79476 0.50227 0.98949 0.0
C178 C 0.81742 0.45149 0.0624 0.0
C179 C 0.82657 0.42958 0.07383 0.0
C180 C 0.81822 0.41665 0.1158 0.0
C181 C 0.80042 0.42538 0.14691 0.0
C182 C 0.79166 0.44762 0.136 0.0
C183 C 0.80002 0.46052 0.09392 0.0
P184 P 0.00821 0.30041 0.49706 0.0
H185 H 0.00946 0.31678 0.38959 0.0
H186 H 0.02655 0.30102 0.31085 0.0
H187 H 0.05272 0.24276 0.40043 0.0
H188 H 0.03487 0.25816 0.47808 0.0
H189 H 0.97274 0.30949 0.57325 0.0
H190 H 0.93165 0.29933 0.57786 0.0
H191 H 0.93664 0.26433 0.43071 0.0
H192 H 0.97749 0.27444 0.42627 0.0
H193 H 0.04974 0.31567 0.55176 0.0
H194 H -0.00024 0.26061 0.56615 0.0
O195 O 0.01031 0.32921 0.49556 0.0
H196 H 0.07128 0.29997 0.62628 0.0
H197 H 0.02078 0.24516 0.6417 0.0
C198 C 0.02144 0.28896 0.43983 0.0
C199 C 0.01896 0.30065 0.39213 0.0
C200 C 0.02872 0.2916 0.34719 0.0
C201 C 0.04113 0.27066 0.34927 0.0
C202 C 0.04306 0.25876 0.39714 0.0
C203 C 0.03314 0.26775 0.4419 0.0
C204 C 0.97813 0.2928 0.49947 0.0
C205 C 0.96494 0.29961 0.54206 0.0
C206 C 0.94157 0.29368 0.54481 0.0
C207 C 0.93102 0.28103 0.50464 0.0
C208 C 0.94431 0.27426 0.46197 0.0
C209 C 0.96771 0.28003 0.45949 0.0
C210 C 0.02291 0.28962 0.55426 0.0
C211 C 0.04319 0.30044 0.57161 0.0
C212 C 0.05541 0.29148 0.61436 0.0
C213 C 0.04763 0.27141 0.64032 0.0
C214 C 0.0273 0.26057 0.62251 0.0
C215 C 0.01513 0.26953 0.57963 0.0
P216 P 0.76218 0.98705 0.48669 0.0
H217 H 0.78183 0.98379 0.3827 0.0
H218 H 0.7742 0.9577 0.31033 0.0
H219 H 0.71803 0.9266 0.39592 0.0
H220 H 0.72588 0.95271 0.46838 0.0
H221 H 0.75482 0.01967 0.57029 0.0
H222 H 0.73436 0.0566 0.57383 0.0
H223 H 0.70962 0.0468 0.41643 0.0
H224 H 0.73029 0.01001 0.413 0.0
H225 H 0.79446 0.95333 0.52893 0.0
H226 H 0.72657 0.9788 0.56601 0.0
O227 O 0.78929 0.99653 0.48066 0.0
H228 H 0.79209 0.92521 0.60027 0.0
H229 H 0.72412 0.95071 0.63782 0.0
C230 C 0.75477 0.96976 0.43126 0.0
C231 C 0.76776 0.97149 0.38572 0.0
C232 C 0.76325 0.95669 0.34421 0.0
C233 C 0.74563 0.93996 0.34764 0.0
C234 C 0.73194 0.93907 0.3925 0.0
C235 C 0.7364 0.95398 0.43387 0.0
C236 C 0.7438 0.01196 0.49173 0.0
C237 C 0.74453 0.02522 0.53702 0.0
C238 C 0.73276 0.04629 0.53904 0.0
C239 C 0.72034 0.05459 0.49541 0.0
C240 C 0.71914 0.0409 0.45055 0.0
C241 C 0.73085 0.01979 0.44868 0.0
C242 C 0.76096 0.9685 0.54309 0.0
C243 C 0.77921 0.95312 0.55303 0.0
C244 C 0.77774 0.93693 0.59346 0.0
C245 C 0.75791 0.93579 0.62454 0.0
C246 C 0.73971 0.95142 0.61486 0.0
C247 C 0.74113 0.96751 0.57399 0.0
P248 P 0.48943 0.30669 0.99676 0.0
H249 H 0.49723 0.3322 0.89922 0.0
H250 H 0.52123 0.32401 0.82394 0.0
H251 H 0.53732 0.25651 0.88859 0.0
H252 H 0.51367 0.26505 0.96429 0.0
H253 H 0.44896 0.31478 0.06009 0.0
H254 H 0.41225 0.29465 0.06947 0.0
H255 H 0.43236 0.24672 0.94985 0.0
H256 H 0.46958 0.26588 0.94367 0.0
H257 H 0.53985 0.30419 0.00755 0.0
H258 H 0.48075 0.29651 0.10775 0.0
O259 O 0.48432 0.33511 0.99694 0.0
H260 H 0.56557 0.2962 0.08126 0.0
H261 H 0.5067 0.28962 0.18198 0.0
C262 C 0.50399 0.29935 0.93759 0.0
C263 C 0.5057 0.31554 0.8969 0.0
C264 C 0.5193 0.31077 0.85369 0.0
C265 C 0.53135 0.28969 0.85059 0.0
C266 C 0.52855 0.27304 0.89027 0.0
C267 C 0.51497 0.27785 0.93337 0.0
C268 C 0.46215 0.29182 0.00154 0.0
C269 C 0.44555 0.29976 0.03635 0.0
C270 C 0.42441 0.28834 0.0412 0.0
C271 C 0.41914 0.26904 0.01021 0.0
C272 C 0.43587 0.26121 0.97511 0.0
C273 C 0.45723 0.27237 0.97116 0.0
C274 C 0.50821 0.30011 0.05139 0.0
C275 C 0.53229 0.3004 0.045 0.0
C276 C 0.54704 0.29596 0.08716 0.0
C277 C 0.538 0.29203 0.13684 0.0
C278 C 0.51397 0.29241 0.14376 0.0
C279 C 0.49916 0.29631 0.10123 0.0
P280 P 0.29752 0.01061 0.51457 0.0
H281 H 0.31647 0.04331 0.58957 0.0
H282 H 0.30017 0.06199 0.66544 0.0
H283 H 0.23626 0.02438 0.64215 0.0
H284 H 0.25259 0.00627 0.56511 0.0
H285 H 0.29304 0.97928 0.42674 0.0
H286 H 0.28471 0.93796 0.4208 0.0
H287 H 0.28181 0.93331 0.58849 0.0
H288 H 0.28977 0.97476 0.59407 0.0
H289 H 0.31484 0.04779 0.44774 0.0
H290 H 0.25252 0.00731 0.46222 0.0
O291 O 0.32621 0.01374 0.51447 0.0
H292 H 0.29789 0.06876 0.3739 0.0
H293 H 0.23561 0.02772 0.38721 0.0
C294 C 0.28587 0.02312 0.57239 0.0
C295 C 0.29905 0.0389 0.60111 0.0
C296 C 0.28972 0.04947 0.64473 0.0
C297 C 0.26696 0.04451 0.66031 0.0
C298 C 0.25378 0.02868 0.63114 0.0
C299 C 0.26313 0.0182 0.58732 0.0
C300 C 0.29121 0.98022 0.51074 0.0
C301 C 0.29031 0.96943 0.4622 0.0
C302 C 0.28576 0.94577 0.45887 0.0
C303 C 0.28237 0.93243 0.50417 0.0
C304 C 0.28382 0.94324 0.55286 0.0
C305 C 0.2884 0.96692 0.5561 0.0
C306 C 0.2851 0.02572 0.45966 0.0
C307 C 0.2976 0.04322 0.43456 0.0
C308 C 0.28791 0.0551 0.39212 0.0
C309 C 0.26548 0.04972 0.37413 0.0
C310 C 0.25287 0.03236 0.40012 0.0
C311 C 0.26257 0.02058 0.44276 0.0
P312 P 0.46886 0.82585 0.99814 0.0
H313 H 0.46239 0.84339 0.10353 0.0
H314 H 0.44332 0.82713 0.18038 0.0
H315 H 0.4273 0.76512 0.09452 0.0
H316 H 0.44653 0.78132 0.01844 0.0
H317 H 0.51212 0.85084 0.97955 0.0
H318 H 0.55239 0.83829 0.97581 0.0
H319 H 0.53091 0.76774 0.00571 0.0
H320 H 0.4908 0.78057 0.01075 0.0
H321 H 0.42068 0.83093 0.96823 0.0
H322 H 0.48181 0.79992 0.90405 0.0
O323 O 0.46752 0.85467 0.00058 0.0
H324 H 0.3975 0.8155 0.89651 0.0
H325 H 0.45869 0.78395 0.83312 0.0
C326 C 0.45549 0.81372 0.05511 0.0
C327 C 0.45477 0.8263 0.10138 0.0
C328 C 0.44385 0.817 0.14519 0.0
C329 C 0.43374 0.79486 0.1435 0.0
C330 C 0.43512 0.7821 0.09734 0.0
C331 C 0.44594 0.79144 0.05362 0.0
C332 C 0.49855 0.81669 0.99628 0.0
C333 C 0.51611 0.83271 0.98568 0.0
C334 C 0.53911 0.82546 0.98305 0.0
C335 C 0.5449 0.80199 0.99053 0.0
C336 C 0.52712 0.78598 0.00066 0.0
C337 C 0.50416 0.79329 0.0035 0.0
C338 C 0.45288 0.81642 0.94178 0.0
C339 C 0.42912 0.82092 0.93851 0.0
C340 C 0.41589 0.81193 0.89774 0.0
C341 C 0.42621 0.79826 0.85943 0.0
C342 C 0.45023 0.7945 0.86183 0.0
C343 C 0.46346 0.80352 0.9027 0.0
H344 H 0.10969 0.19322 0.10025 0.0
H345 H 0.15522 0.24726 0.15569 0.0
H346 H 0.07866 0.2085 0.15449 0.0
H347 H 0.12476 0.26199 0.2097 0.0
H348 H 0.06409 0.29586 0.27548 0.0
H349 H 0.08779 0.28147 0.20537 0.0
H350 H 0.07053 0.2112 0.24884 0.0
H351 H 0.04574 0.22563 0.31754 0.0
C352 C 0.11305 0.20837 0.12365 0.0
C353 C 0.135 0.2189 0.12381 0.0
C354 C 0.09534 0.21705 0.15479 0.0
C355 C 0.09922 0.23653 0.18613 0.0
C356 C 0.12101 0.24723 0.18534 0.0
C357 C 0.13862 0.23857 0.15466 0.0
C358 C 0.06477 0.27736 0.2693 0.0
C359 C 0.05323 0.2619 0.30267 0.0
C360 C 0.07858 0.2691 0.2294 0.0
C361 C 0.08135 0.24518 0.22213 0.0
C362 C 0.06873 0.22972 0.25338 0.0
C363 C 0.05478 0.238 0.29321 0.0
H364 H 0.26346 0.65909 0.67778 0.0
H365 H 0.30794 0.61933 0.57816 0.0
H366 H 0.26385 0.62759 0.7415 0.0
H367 H 0.30812 0.58777 0.64221 0.0
H368 H 0.28545 0.52919 0.75746 0.0
H369 H 0.28043 0.55853 0.68848 0.0
H370 H 0.29744 0.61215 0.79824 0.0
H371 H 0.30256 0.58297 0.86672 0.0
C372 C 0.27304 0.64353 0.66904 0.0
C373 C 0.28586 0.64184 0.62303 0.0
C374 C 0.27332 0.62555 0.7057 0.0
C375 C 0.28615 0.60539 0.69686 0.0
C376 C 0.29802 0.60313 0.64981 0.0
C377 C 0.298 0.62125 0.61334 0.0
C378 C 0.288 0.54728 0.76666 0.0
C379 C 0.2945 0.55389 0.81717 0.0
C380 C 0.28523 0.56398 0.72731 0.0
C381 C 0.28847 0.58755 0.73822 0.0
C382 C 0.29462 0.59411 0.78895 0.0
C383 C 0.29774 0.57744 0.82795 0.0
H384 H 0.85914 0.77524 0.08985 0.0
H385 H 0.8087 0.7436 0.19136 0.0
H386 H 0.88877 0.77023 0.15714 0.0
H387 H 0.83845 0.73855 0.25836 0.0
H388 H 0.88891 0.76862 0.38293 0.0
H389 H 0.85991 0.76722 0.31343 0.0
H390 H 0.91102 0.74014 0.20889 0.0
H391 H 0.94018 0.74178 0.27855 0.0
C392 C 0.85441 0.76696 0.1262 0.0
C393 C 0.83147 0.76004 0.13535 0.0
C394 C 0.87144 0.76397 0.16461 0.0
C395 C 0.86585 0.75417 0.21307 0.0
C396 C 0.84316 0.74642 0.22154 0.0
C397 C 0.82616 0.74921 0.183 0.0
C398 C 0.89392 0.76234 0.34512 0.0
C399 C 0.91679 0.75545 0.33596 0.0
C400 C 0.87729 0.76131 0.30552 0.0
C401 C 0.88322 0.75354 0.25581 0.0
C402 C 0.90602 0.74631 0.2468 0.0
C403 C 0.92264 0.74711 0.28665 0.0
H404 H 0.71427 0.37062 0.60322 0.0
H405 H 0.75218 0.31408 0.67509 0.0
H406 H 0.73317 0.39768 0.66262 0.0
H407 H 0.77078 0.34103 0.73429 0.0
H408 H 0.81581 0.39738 0.80198 0.0
H409 H 0.79881 0.37345 0.73384 0.0
H410 H 0.73244 0.40562 0.75802 0.0
H411 H 0.74956 0.42994 0.82541 0.0
C412 C 0.72667 0.36396 0.63146 0.0
C413 C 0.73161 0.34015 0.6345 0.0
C414 C 0.7374 0.37945 0.66559 0.0
C415 C 0.75348 0.37147 0.70303 0.0
C416 C 0.75869 0.34775 0.70545 0.0
C417 C 0.74785 0.33227 0.67174 0.0
C418 C 0.79769 0.39963 0.79213 0.0
C419 C 0.78399 0.41546 0.81923 0.0
C420 C 0.78791 0.38578 0.75346 0.0
C421 C 0.76426 0.38756 0.74084 0.0
C422 C 0.75074 0.40396 0.76667 0.0
C423 C 0.76048 0.41771 0.80558 0.0
H424 H 0.6642 0.27208 0.30919 0.0
H425 H 0.61833 0.29804 0.42654 0.0
H426 H 0.63247 0.27145 0.24686 0.0
H427 H 0.58604 0.29617 0.36499 0.0
H428 H 0.54172 0.31822 0.22355 0.0
H429 H 0.57103 0.31526 0.29213 0.0
H430 H 0.59854 0.25398 0.21955 0.0
H431 H 0.57003 0.25809 0.14949 0.0
C432 C 0.64718 0.27722 0.32193 0.0
C433 C 0.64378 0.28523 0.37264 0.0
C434 C 0.62886 0.27671 0.28624 0.0
C435 C 0.60654 0.28375 0.30065 0.0
C436 C 0.60303 0.29107 0.35204 0.0
C437 C 0.6215 0.29202 0.38748 0.0
C438 C 0.55395 0.30403 0.22286 0.0
C439 C 0.55385 0.28846 0.18143 0.0
C440 C 0.57069 0.3022 0.26224 0.0
C441 C 0.5874 0.28447 0.2614 0.0
C442 C 0.58642 0.26823 0.22093 0.0
C443 C 0.56999 0.27039 0.18102 0.0
H444 H 0.24961 0.15208 0.87715 0.0
H445 H 0.18405 0.11692 0.89361 0.0
H446 H 0.26313 0.12148 0.82086 0.0
H447 H 0.19773 0.0861 0.83659 0.0
H448 H 0.22301 0.06168 0.66974 0.0
H449 H 0.20791 0.08532 0.73974 0.0
H450 H 0.27299 0.07902 0.8224 0.0
H451 H 0.28801 0.05494 0.75307 0.0
C452 C 0.23814 0.13769 0.86906 0.0
C453 C 0.2157 0.13699 0.88951 0.0
C454 C 0.24598 0.12007 0.83714 0.0
C455 C 0.23149 0.10142 0.82441 0.0
C456 C 0.2092 0.10036 0.8457 0.0
C457 C 0.20144 0.1179 0.87845 0.0
C458 C 0.23392 0.06482 0.70341 0.0
C459 C 0.25684 0.05665 0.70544 0.0
C460 C 0.22525 0.07837 0.74351 0.0
C461 C 0.23935 0.08414 0.78624 0.0
C462 C 0.26186 0.07508 0.78951 0.0
C463 C 0.27047 0.06141 0.74967 0.0
H464 H 0.37399 0.71537 0.40222 0.0
H465 H 0.31892 0.7558 0.33157 0.0
H466 H 0.40184 0.73435 0.34496 0.0
H467 H 0.34661 0.77438 0.27435 0.0
H468 H 0.40339 0.8176 0.20573 0.0
H469 H 0.37949 0.80125 0.27458 0.0
H470 H 0.41037 0.73418 0.25078 0.0
H471 H 0.43478 0.75069 0.18298 0.0
C472 C 0.36782 0.72836 0.37476 0.0
C473 C 0.34417 0.73394 0.37135 0.0
C474 C 0.38377 0.73914 0.34183 0.0
C475 C 0.37643 0.75587 0.30517 0.0
C476 C 0.35288 0.7618 0.30262 0.0
C477 C 0.33696 0.75096 0.3352 0.0
C478 C 0.40543 0.79948 0.21592 0.0
C479 C 0.42087 0.7854 0.18866 0.0
C480 C 0.39157 0.79006 0.255 0.0
C481 C 0.39289 0.76638 0.26779 0.0
C482 C 0.40903 0.75251 0.24205 0.0
C483 C 0.42283 0.76191 0.20284 0.0
H484 H 0.74457 0.80883 0.8072 0.0
H485 H 0.7777 0.8582 0.9091 0.0
H486 H 0.73913 0.83916 0.74168 0.0
H487 H 0.77236 0.8884 0.84324 0.0
H488 H 0.74378 0.94117 0.72497 0.0
H489 H 0.74252 0.91158 0.79384 0.0
H490 H 0.767 0.86058 0.68574 0.0
H491 H 0.76794 0.88995 0.6171 0.0
C492 C 0.75046 0.82617 0.81595 0.0
C493 C 0.7618 0.831 0.86328 0.0
C494 C 0.74743 0.84351 0.77826 0.0
C495 C 0.7555 0.86608 0.7872 0.0
C496 C 0.76584 0.87119 0.83539 0.0
C497 C 0.76903 0.85383 0.87298 0.0
C498 C 0.74862 0.92356 0.71595 0.0
C499 C 0.75611 0.91786 0.66587 0.0
C500 C 0.74804 0.9067 0.75535 0.0
C501 C 0.75465 0.88379 0.74512 0.0
C502 C 0.76157 0.87803 0.69466 0.0
C503 C 0.76236 0.89489 0.65553 0.0
H504 H 0.85901 0.78291 0.90849 0.0
H505 H 0.81867 0.72802 0.83907 0.0
H506 H 0.89064 0.77453 0.85046 0.0
H507 H 0.85078 0.71915 0.78187 0.0
H508 H 0.95017 0.74823 0.75951 0.0
H509 H 0.92036 0.74825 0.82615 0.0
H510 H 0.86808 0.73708 0.70764 0.0
H511 H 0.89785 0.7366 0.64162 0.0
C512 C 0.857 0.76877 0.88144 0.0
C513 C 0.83613 0.75633 0.8781 0.0
C514 C 0.87528 0.76384 0.84834 0.0
C515 C 0.87327 0.74621 0.81126 0.0
C516 C 0.85277 0.7331 0.80939 0.0
C517 C 0.83439 0.73813 0.84234 0.0
C518 C 0.93231 0.74549 0.74795 0.0
C519 C 0.92633 0.74252 0.69536 0.0
C520 C 0.91523 0.74557 0.78603 0.0
C521 C 0.89177 0.74288 0.77225 0.0
C522 C 0.88596 0.73887 0.71987 0.0
C523 C 0.90305 0.73863 0.68191 0.0
H524 H 0.76141 0.31288 0.35386 0.0
H525 H 0.71463 0.36815 0.39366 0.0
H526 H 0.78102 0.33851 0.29334 0.0
H527 H 0.73409 0.39376 0.33182 0.0
H528 H 0.78779 0.43837 0.24505 0.0
H529 H 0.7702 0.41424 0.31264 0.0
H530 H 0.77195 0.35559 0.20978 0.0
H531 H 0.78951 0.37955 0.14277 0.0
C532 C 0.75527 0.33051 0.34971 0.0
C533 C 0.73625 0.33836 0.37827 0.0
C534 C 0.76649 0.3452 0.31478 0.0
C535 C 0.75894 0.3681 0.30719 0.0
C536 C 0.74042 0.37625 0.33698 0.0
C537 C 0.7292 0.36154 0.37226 0.0
C538 C 0.78435 0.42033 0.23697 0.0
C539 C 0.79021 0.41083 0.18871 0.0
C540 C 0.77426 0.40652 0.27562 0.0
C541 C 0.7698 0.38296 0.26674 0.0
C542 C 0.7756 0.37355 0.21837 0.0
C543 C 0.78569 0.38729 0.17991 0.0
H544 H 0.16199 0.24499 0.84382 0.0
H545 H 0.1155 0.18991 0.88944 0.0
H546 H 0.13293 0.26004 0.78385 0.0
H547 H 0.08616 0.20527 0.82884 0.0
H548 H 0.05681 0.22573 0.66172 0.0
H549 H 0.08169 0.20988 0.7306 0.0
H550 H 0.09417 0.27886 0.78753 0.0
H551 H 0.06906 0.29473 0.71933 0.0
C552 C 0.14555 0.23606 0.84114 0.0
C553 C 0.14113 0.21616 0.87138 0.0
C554 C 0.12881 0.24485 0.80702 0.0
C555 C 0.10725 0.23392 0.80192 0.0
C556 C 0.1027 0.21399 0.83196 0.0
C557 C 0.11945 0.20527 0.86671 0.0
C558 C 0.06448 0.23748 0.68956 0.0
C559 C 0.06115 0.26153 0.68468 0.0
C560 C 0.07872 0.22838 0.72898 0.0
C561 C 0.09001 0.24316 0.76408 0.0
C562 C 0.08598 0.2671 0.76044 0.0
C563 C 0.07167 0.27618 0.72128 0.0
H564 H 0.25751 0.65425 0.32716 0.0
H565 H 0.31917 0.62527 0.39864 0.0
H566 H 0.25615 0.62223 0.26649 0.0
H567 H 0.31805 0.59354 0.33707 0.0
H568 H 0.29981 0.52991 0.2422 0.0
H569 H 0.297 0.55928 0.30958 0.0
H570 H 0.27849 0.61034 0.19252 0.0
H571 H 0.28116 0.58108 0.12555 0.0
C572 C 0.27076 0.64104 0.33009 0.0
C573 C 0.28858 0.64249 0.36757 0.0
C574 C 0.27002 0.62272 0.29511 0.0
C575 C 0.28711 0.60544 0.29661 0.0
C576 C 0.30449 0.60645 0.33515 0.0
C577 C 0.3052 0.62474 0.37029 0.0
C578 C 0.29512 0.54742 0.23098 0.0
C579 C 0.29069 0.55318 0.17857 0.0
C580 C 0.29352 0.56423 0.26953 0.0
C581 C 0.28751 0.58715 0.25644 0.0
C582 C 0.28274 0.59277 0.20411 0.0
C583 C 0.28429 0.57599 0.16566 0.0
H584 H 0.37093 0.71788 0.5998 0.0
H585 H 0.31207 0.75217 0.66726 0.0
H586 H 0.39639 0.73671 0.66309 0.0
H587 H 0.33744 0.77104 0.72937 0.0
H588 H 0.38432 0.77732 0.87124 0.0
H589 H 0.36036 0.75909 0.80506 0.0
H590 H 0.41153 0.77528 0.68896 0.0
H591 H 0.43563 0.79369 0.75552 0.0
C592 C 0.36342 0.7295 0.62779 0.0
C593 C 0.3394 0.73331 0.62864 0.0
C594 C 0.37803 0.74036 0.66386 0.0
C595 C 0.36889 0.75518 0.70152 0.0
C596 C 0.34498 0.75937 0.70151 0.0
C597 C 0.33043 0.74859 0.66563 0.0
C598 C 0.39037 0.77726 0.83152 0.0
C599 C 0.41178 0.78717 0.81857 0.0
C600 C 0.37665 0.76677 0.79358 0.0
C601 C 0.38397 0.76589 0.74169 0.0
C602 C 0.40552 0.77551 0.72871 0.0
C603 C 0.41928 0.78607 0.76678 0.0
H604 H 0.78172 0.85756 0.088 0.0
H605 H 0.72972 0.81488 0.16151 0.0
H606 H 0.77323 0.88866 0.14748 0.0
H607 H 0.72078 0.84641 0.22031 0.0
H608 H 0.73965 0.89347 0.36009 0.0
H609 H 0.74006 0.86397 0.29333 0.0
H610 H 0.74587 0.91719 0.17483 0.0
H611 H 0.7458 0.94675 0.24206 0.0
C612 C 0.76819 0.8549 0.11628 0.0
C613 C 0.75662 0.83355 0.12031 0.0
C614 C 0.76319 0.87287 0.15022 0.0
C615 C 0.74639 0.87002 0.18889 0.0
C616 C 0.73408 0.84904 0.19149 0.0
C617 C 0.73915 0.831 0.15762 0.0
C618 C 0.7405 0.89891 0.31971 0.0
C619 C 0.74284 0.92242 0.30633 0.0
C620 C 0.74069 0.88198 0.28136 0.0
C621 C 0.74315 0.88819 0.22869 0.0
C622 C 0.74438 0.9118 0.21512 0.0
C623 C 0.7443 0.92873 0.25356 0.0
H624 H 0.64856 0.25126 0.65889 0.0
H625 H 0.62506 0.31777 0.60071 0.0
H626 H 0.61523 0.24913 0.71579 0.0
H627 H 0.59211 0.31587 0.65866 0.0
H628 H 0.57463 0.27157 0.86014 0.0
H629 H 0.60398 0.2686 0.79372 0.0
H630 H 0.55607 0.29667 0.67947 0.0
H631 H 0.52659 0.29982 0.74653 0.0
C632 C 0.63627 0.26541 0.65809 0.0
C633 C 0.63965 0.28481 0.62561 0.0
C634 C 0.6172 0.2642 0.69086 0.0
C635 C 0.60112 0.28242 0.69215 0.0
C636 C 0.60402 0.30142 0.65826 0.0
C637 C 0.62303 0.30258 0.62526 0.0
C638 C 0.57016 0.27666 0.82064 0.0
C639 C 0.54828 0.28593 0.80858 0.0
C640 C 0.58701 0.27494 0.78248 0.0
C641 C 0.58239 0.28241 0.73124 0.0
C642 C 0.56027 0.29106 0.71875 0.0
C643 C 0.54339 0.29284 0.75708 0.0
H644 H 0.24486 0.159 0.15575 0.0
H645 H 0.18212 0.11976 0.13051 0.0
H646 H 0.25878 0.12953 0.21624 0.0
H647 H 0.19625 0.09002 0.1919 0.0
H648 H 0.22084 0.0651 0.36156 0.0
H649 H 0.20515 0.08905 0.29079 0.0
H650 H 0.27132 0.08768 0.21468 0.0
H651 H 0.28693 0.06335 0.28459 0.0
C652 C 0.23404 0.14403 0.16302 0.0
C653 C 0.21231 0.14178 0.13854 0.0
C654 C 0.24213 0.12704 0.19738 0.0
C655 C 0.22863 0.10746 0.20857 0.0
C656 C 0.20695 0.10501 0.18395 0.0
C657 C 0.19894 0.12194 0.14876 0.0
C658 C 0.23191 0.06947 0.3292 0.0
C659 C 0.25525 0.06256 0.32911 0.0
C660 C 0.2229 0.08318 0.28869 0.0
C661 C 0.23708 0.09035 0.24756 0.0
C662 C 0.2601 0.08265 0.24635 0.0
C663 C 0.26906 0.06884 0.28655 0.0
H664 H 0.19733 0.28955 0.07693 0.0
H665 H 0.22081 0.28544 0.91815 0.0
H666 H 0.20424 0.33114 0.07576 0.0
H667 H 0.22838 0.32677 0.91762 0.0
H668 H 0.23241 0.40395 0.92052 0.0
H669 H 0.21433 0.36571 0.92035 0.0
H670 H 0.23879 0.3539 0.07784 0.0
H671 H 0.25639 0.39208 0.07814 0.0
C672 C 0.20375 0.29753 0.04162 0.0
C673 C 0.20885 0.28409 0.9979 0.0
C674 C 0.2078 0.32136 0.04103 0.0
C675 C 0.21718 0.33225 0.99688 0.0
C676 C 0.22096 0.31903 0.95216 0.0
C677 C 0.21674 0.29524 0.95259 0.0
C678 C 0.23367 0.3932 0.9552 0.0
C679 C 0.2459 0.40093 -0.00076 0.0
C680 C 0.22335 0.37132 0.95512 0.0
C681 C 0.22519 0.35667 -0.00103 0.0
C682 C 0.23666 0.36484 0.04368 0.0
C683 C 0.24683 0.38673 0.04385 0.0
H684 H 0.19731 0.69466 0.56854 0.0
H685 H 0.19962 0.69997 0.40074 0.0
H686 H 0.15525 0.6958 0.56469 0.0
H687 H 0.15752 0.70081 0.39715 0.0
H688 H 0.09094 0.74373 0.42799 0.0
H689 H 0.13111 0.73203 0.42365 0.0
H690 H 0.11847 0.67733 0.53547 0.0
H691 H 0.07779 0.68877 0.53917 0.0
C692 C 0.18889 0.69556 0.53076 0.0
C693 C 0.20191 0.69767 0.48502 0.0
C694 C 0.16474 0.69607 0.52858 0.0
C695 C 0.15311 0.69873 0.48065 0.0
C696 C 0.16605 0.69915 0.43471 0.0
C697 C 0.19019 0.69858 0.43683 0.0
C698 C 0.09645 0.72879 0.45064 0.0
C699 C 0.08105 0.7172 0.48394 0.0
C700 C 0.11956 0.72209 0.44815 0.0
C701 C 0.12795 0.70372 0.47913 0.0
C702 C 0.1125 0.69167 0.51144 0.0
C703 C 0.08926 0.69829 0.51368 0.0
H704 H 0.76365 0.68396 0.08649 0.0
H705 H 0.77295 0.68461 0.9198 0.0
H706 H 0.77124 0.64246 0.08869 0.0
H707 H 0.78114 0.64342 0.92232 0.0
H708 H 0.77579 0.56572 0.93579 0.0
H709 H 0.76408 0.60616 0.93631 0.0
H710 H 0.80325 0.61638 0.07828 0.0
H711 H 0.81394 0.57562 0.07928 0.0
C712 C 0.76728 0.67529 0.0503 0.0
C713 C 0.7677 0.68768 0.00297 0.0
C714 C 0.77177 0.65151 0.05164 0.0
C715 C 0.77688 0.6396 0.00572 0.0
C716 C 0.77693 0.65194 0.95834 0.0
C717 C 0.77234 0.67565 0.95695 0.0
C718 C 0.78161 0.57649 0.96758 0.0
C719 C 0.79585 0.56741 0.00744 0.0
C720 C 0.77512 0.59977 0.96754 0.0
C721 C 0.7828 0.61457 0.0072 0.0
C722 C 0.79681 0.60543 0.04741 0.0
C723 C 0.80322 0.58212 0.04758 0.0
H724 H 0.78768 0.27393 0.59325 0.0
H725 H 0.78719 0.2472 0.43678 0.0
H726 H 0.82965 0.27599 0.59179 0.0
H727 H 0.82927 0.24851 0.43601 0.0
H728 H 0.89907 0.28598 0.42691 0.0
H729 H 0.85774 0.27831 0.43062 0.0
H730 H 0.86541 0.25527 0.5904 0.0
H731 H 0.90681 0.26352 0.5868 0.0
C732 C 0.79654 0.26802 0.55892 0.0
C733 C 0.78407 0.26062 0.51492 0.0
C734 C 0.82066 0.26912 0.55817 0.0
C735 C 0.83284 0.26263 0.51358 0.0
C736 C 0.82039 0.25413 0.47056 0.0
C737 C 0.79627 0.25324 0.47111 0.0
C738 C 0.89194 0.27903 0.46261 0.0
C739 C 0.90609 0.27539 0.50659 0.0
C740 C 0.86827 0.27453 0.46473 0.0
C741 C 0.85824 0.26609 0.51079 0.0
C742 C 0.87252 0.26206 0.55455 0.0
C743 C 0.8962 0.26675 0.55252 0.0
H744 H 0.70586 0.19446 0.58828 0.0
H745 H 0.68482 0.19836 0.42662 0.0
H746 H 0.70527 0.1525 0.5845 0.0
H747 H 0.68344 0.15627 0.42335 0.0
H748 H 0.69599 0.07608 0.57211 0.0
H749 H 0.68479 0.11682 0.57529 0.0
H750 H 0.71291 0.12756 0.42176 0.0
H751 H 0.72362 0.08703 0.41841 0.0
C752 C 0.70052 0.18638 0.55225 0.0
C753 C 0.69579 0.1998 0.50749 0.0
C754 C 0.70005 0.16225 0.55017 0.0
C755 C 0.69461 0.15095 0.50339 0.0
C756 C 0.68823 0.1644 0.45967 0.0
C757 C 0.68892 0.18855 0.46162 0.0
C758 C 0.69947 0.08716 0.53886 0.0
C759 C 0.71075 0.07839 0.4951 0.0
C760 C 0.69311 0.11048 0.54068 0.0
C761 C 0.69805 0.12555 0.49892 0.0
C762 C 0.70843 0.11646 0.4543 0.0
C763 C 0.71464 0.09316 0.45238 0.0
H764 H 0.28935 0.20098 0.9406 0.0
H765 H 0.28155 0.22618 0.09736 0.0
H766 H 0.33024 0.21206 0.94309 0.0
H767 H 0.32213 0.23746 0.09898 0.0
H768 H 0.37718 0.28934 0.02788 0.0
H769 H 0.33957 0.27082 0.03411 0.0
H770 H 0.3704 0.20457 0.00267 0.0
H771 H 0.40862 0.22273 -0.0005 0.0
C772 C 0.29641 0.20844 0.97584 0.0
C773 C 0.2821 0.21296 0.01852 0.0
C774 C 0.31979 0.21467 0.97725 0.0
C775 C 0.32907 0.22577 0.02102 0.0
C776 C 0.31521 0.22903 0.06473 0.0
C777 C 0.292 0.22249 0.06371 0.0
C778 C 0.37622 0.27075 0.02352 0.0
C779 C 0.39612 0.25757 0.01362 0.0
C780 C 0.3546 0.26021 0.02676 0.0
C781 C 0.35227 0.23633 0.01916 0.0
C782 C 0.3719 0.22305 0.00859 0.0
C783 C 0.3937 0.23353 0.0064 0.0
H784 H 0.26235 0.78755 0.57653 0.0
H785 H 0.2658 0.78915 0.40853 0.0
H786 H 0.26452 0.82956 0.57783 0.0
H787 H 0.26749 0.83125 0.41003 0.0
H788 H 0.30335 0.90114 0.44128 0.0
H789 H 0.29645 0.85963 0.43675 0.0
H790 H 0.24408 0.86522 0.55465 0.0
H791 H 0.25102 0.90684 0.55924 0.0
C792 C 0.26321 0.79683 0.53981 0.0
C793 C 0.26409 0.7849 0.49244 0.0
C794 C 0.26434 0.82096 0.54058 0.0
C795 C 0.26635 0.83371 0.49405 0.0
C796 C 0.26634 0.82187 0.44658 0.0
C797 C 0.26521 0.79773 0.44577 0.0
C798 C 0.29015 0.89356 0.46575 0.0
C799 C 0.27775 0.90725 0.50066 0.0
C800 C 0.28616 0.86978 0.46309 0.0
C801 C 0.26967 0.85915 0.49525 0.0
C802 C 0.25709 0.87287 0.52981 0.0
C803 C 0.26109 0.89668 0.5325 0.0
H804 H 0.68645 0.76566 0.90622 0.0
H805 H 0.68541 0.76655 0.07438 0.0
H806 H 0.64497 0.77329 0.90387 0.0
H807 H 0.64426 0.7747 0.07183 0.0
H808 H 0.56684 0.77024 0.05336 0.0
H809 H 0.60714 0.75818 0.05102 0.0
H810 H 0.61899 0.80508 0.92205 0.0
H811 H 0.57838 0.81631 0.92274 0.0
C812 C 0.67741 0.76739 0.94267 0.0
C813 C 0.68935 0.76552 0.99048 0.0
C814 C 0.65365 0.77191 0.94129 0.0
C815 C 0.6413 0.77468 0.98765 0.0
C816 C 0.65315 0.77235 0.03539 0.0
C817 C 0.67684 0.7678 0.0368 0.0
C818 C 0.57794 0.77771 0.02394 0.0
C819 C 0.56938 0.7943 0.98833 0.0
C820 C 0.60112 0.77098 0.02299 0.0
C821 C 0.61633 0.78074 0.98652 0.0
C822 C 0.60769 0.79704 0.95033 0.0
C823 C 0.58448 0.80373 0.9512 0.0
loop_
_geom_bond_atom_site_label_1
_geom_bond_atom_site_label_2
_geom_bond_distance
_geom_bond_site_symmetry_2
_ccdc_geom_bond_type
Sc0 O3 2.025 . S
Sc0 O10 2.105 . S
Sc0 O13 2.105 . S
Sc0 O16 2.105 . S
Sc0 O19 2.105 . S
Sc1 O3 2.025 . S
Sc1 O11 2.105 . S
Sc1 O15 2.105 1_554 S
Sc1 O17 2.105 . S
Sc1 O21 2.105 1_554 S
Sc2 O3 2.025 1_556 S
Sc2 O12 2.105 . S
Sc2 O14 2.105 . S
Sc2 O18 2.105 . S
Sc2 O20 2.105 . S
O3 Sc0 2.025 . S
O3 Sc1 2.025 . S
O3 Sc2 2.025 1_554 S
C4 O10 1.268 . S
C4 O20 1.268 1_554 S
C5 O11 1.268 . S
C5 O19 1.268 . S
C6 O12 1.268 . S
C6 O21 1.268 . S
C7 O13 1.268 . S
C7 O17 1.268 . S
C8 O14 1.268 1_554 S
C8 O16 1.268 . S
C9 O15 1.268 . S
C9 O18 1.268 . S
O10 Sc0 2.105 . S
O10 C4 1.268 . S
O11 Sc1 2.105 . S
O11 C5 1.268 . S
O12 Sc2 2.105 . S
O12 C6 1.268 . S
O13 Sc0 2.105 . S
O13 C7 1.268 . S
O14 Sc2 2.105 . S
O14 C8 1.268 1_556 S
O15 Sc1 2.105 1_556 S
O15 C9 1.268 . S
O16 Sc0 2.105 . S
O16 C8 1.268 . S
O17 Sc1 2.105 . S
O17 C7 1.268 . S
O18 Sc2 2.105 . S
O18 C9 1.268 . S
O19 Sc0 2.105 . S
O19 C5 1.268 . S
O20 Sc2 2.105 . S
O20 C4 1.268 1_556 S
O21 Sc1 2.105 1_556 S
O21 C6 1.268 . S
Sc22 O25 2.025 . S
Sc22 O32 2.105 . S
Sc22 O35 2.105 . S
Sc22 O38 2.105 . S
Sc22 O41 2.105 . S
Sc23 O25 2.025 . S
Sc23 O33 2.105 . S
Sc23 O37 2.105 . S
Sc23 O39 2.105 . S
Sc23 O43 2.105 . S
Sc24 O25 2.025 . S
Sc24 O34 2.105 . S
Sc24 O36 2.105 . S
Sc24 O40 2.105 . S
Sc24 O42 2.105 . S
O25 Sc22 2.025 . S
O25 Sc23 2.025 . S
O25 Sc24 2.025 . S
C26 O32 1.268 . S
C26 O42 1.268 . S
C27 O33 1.268 . S
C27 O41 1.268 . S
C28 O34 1.268 . S
C28 O43 1.268 . S
C29 O35 1.268 . S
C29 O39 1.268 . S
C30 O36 1.268 . S
C30 O38 1.268 . S
C31 O37 1.268 . S
C31 O40 1.268 . S
O32 Sc22 2.105 . S
O32 C26 1.268 . S
O33 Sc23 2.105 . S
O33 C27 1.268 . S
O34 Sc24 2.105 . S
O34 C28 1.268 . S
O35 Sc22 2.105 . S
O35 C29 1.268 . S
O36 Sc24 2.105 . S
O36 C30 1.268 . S
O37 Sc23 2.105 . S
O37 C31 1.268 . S
O38 Sc22 2.105 . S
O38 C30 1.268 . S
O39 Sc23 2.105 . S
O39 C29 1.268 . S
O40 Sc24 2.105 . S
O40 C31 1.268 . S
O41 Sc22 2.105 . S
O41 C27 1.268 . S
O42 Sc24 2.105 . S
O42 C26 1.268 . S
O43 Sc23 2.105 . S
O43 C28 1.268 . S
Sc44 O47 2.025 1_556 S
Sc44 O54 2.105 . S
Sc44 O57 2.105 . S
Sc44 O60 2.105 . S
Sc44 O63 2.105 . S
Sc45 O47 2.025 . S
Sc45 O55 2.105 1_554 S
Sc45 O59 2.105 . S
Sc45 O61 2.105 1_554 S
Sc45 O65 2.105 . S
Sc46 O47 2.025 . S
Sc46 O56 2.105 . S
Sc46 O58 2.105 . S
Sc46 O62 2.105 . S
Sc46 O64 2.105 . S
O47 Sc44 2.025 1_554 S
O47 Sc45 2.025 . S
O47 Sc46 2.025 . S
C48 O54 1.268 1_554 S
C48 O64 1.268 . S
C49 O55 1.268 . S
C49 O63 1.268 . S
C50 O56 1.268 . S
C50 O65 1.268 . S
C51 O57 1.268 . S
C51 O61 1.268 . S
C52 O58 1.268 . S
C52 O60 1.268 1_554 S
C53 O59 1.268 . S
C53 O62 1.268 . S
O54 Sc44 2.105 . S
O54 C48 1.268 1_556 S
O55 Sc45 2.105 1_556 S
O55 C49 1.268 . S
O56 Sc46 2.105 . S
O56 C50 1.268 . S
O57 Sc44 2.105 . S
O57 C51 1.268 . S
O58 Sc46 2.105 . S
O58 C52 1.268 . S
O59 Sc45 2.105 . S
O59 C53 1.268 . S
O60 Sc44 2.105 . S
O60 C52 1.268 1_556 S
O61 Sc45 2.105 1_556 S
O61 C51 1.268 . S
O62 Sc46 2.105 . S
O62 C53 1.268 . S
O63 Sc44 2.105 . S
O63 C49 1.268 . S
O64 Sc46 2.105 . S
O64 C48 1.268 . S
O65 Sc45 2.105 . S
O65 C50 1.268 . S
Sc66 O69 2.025 . S
Sc66 O76 2.105 . S
Sc66 O79 2.105 . S
Sc66 O82 2.105 . S
Sc66 O85 2.105 . S
Sc67 O69 2.025 . S
Sc67 O77 2.105 . S
Sc67 O81 2.105 . S
Sc67 O83 2.105 . S
Sc67 O87 2.105 . S
Sc68 O69 2.025 . S
Sc68 O78 2.105 . S
Sc68 O80 2.105 . S
Sc68 O84 2.105 . S
Sc68 O86 2.105 . S
O69 Sc66 2.025 . S
O69 Sc67 2.025 . S
O69 Sc68 2.025 . S
C70 O76 1.268 . S
C70 O86 1.268 . S
C71 O77 1.268 . S
C71 O85 1.268 . S
C72 O78 1.268 . S
C72 O87 1.268 . S
C73 O79 1.268 . S
C73 O83 1.268 . S
C74 O80 1.268 . S
C74 O82 1.268 . S
C75 O81 1.268 . S
C75 O84 1.268 . S
O76 Sc66 2.105 . S
O76 C70 1.268 . S
O77 Sc67 2.105 . S
O77 C71 1.268 . S
O78 Sc68 2.105 . S
O78 C72 1.268 . S
O79 Sc66 2.105 . S
O79 C73 1.268 . S
O80 Sc68 2.105 . S
O80 C74 1.268 . S
O81 Sc67 2.105 . S
O81 C75 1.268 . S
O82 Sc66 2.105 . S
O82 C74 1.268 . S
O83 Sc67 2.105 . S
O83 C73 1.268 . S
O84 Sc68 2.105 . S
O84 C75 1.268 . S
O85 Sc66 2.105 . S
O85 C71 1.268 . S
O86 Sc68 2.105 . S
O86 C70 1.268 . S
O87 Sc67 2.105 . S
O87 C72 1.268 . S
P88 O99 1.490 . S
P88 C102 1.812 . S
P88 C108 1.803 . S
P88 C114 1.819 1_554 S
H89 C103 0.941 . S
H90 C104 0.939 . S
H91 C106 0.940 . S
H92 C107 0.940 . S
H93 C109 0.939 . S
H94 C110 0.942 . S
H95 C112 0.940 . S
H96 C113 0.939 . S
H97 C115 0.941 . S
H98 C119 0.939 . S
O99 P88 1.490 . S
H100 C116 0.939 . S
H101 C118 0.940 . S
C102 P88 1.812 . S
C102 C103 1.389 . S
C102 C107 1.391 . S
C103 H89 0.941 . S
C103 C102 1.389 . S
C103 C104 1.397 . S
C104 H90 0.939 . S
C104 C103 1.397 . S
C104 C105 1.378 . S
C105 C104 1.378 . S
C105 C106 1.378 . S
C106 H91 0.940 . S
C106 C105 1.378 . S
C106 C107 1.396 . S
C107 H92 0.940 . S
C107 C102 1.391 . S
C107 C106 1.396 . S
C108 P88 1.803 . S
C108 C109 1.378 1_554 S
C108 C113 1.400 . S
C109 H93 0.939 . S
C109 C108 1.378 1_556 S
C109 C110 1.361 . S
C110 H94 0.942 . S
C110 C109 1.361 . S
C110 C111 1.369 1_556 S
C111 C110 1.369 1_554 S
C111 C112 1.404 . S
C112 H95 0.940 . S
C112 C111 1.404 . S
C112 C113 1.389 . S
C113 H96 0.939 . S
C113 C108 1.400 . S
C113 C112 1.389 . S
C114 P88 1.819 1_556 S
C114 C115 1.391 . S
C114 C119 1.391 . S
C115 H97 0.941 . S
C115 C114 1.391 . S
C115 C116 1.396 . S
C116 H100 0.939 . S
C116 C115 1.396 . S
C116 C117 1.397 . S
C117 C116 1.397 . S
C117 C118 1.385 . S
C118 H101 0.940 . S
C118 C117 1.385 . S
C118 C119 1.388 . S
C119 H98 0.939 . S
C119 C114 1.391 . S
C119 C118 1.388 . S
P120 O131 1.490 . S
P120 C134 1.812 . S
P120 C140 1.803 1_655 S
P120 C146 1.819 . S
H121 C135 0.941 . S
H122 C136 0.939 . S
H123 C138 0.940 . S
H124 C139 0.940 . S
H125 C141 0.939 . S
H126 C142 0.942 . S
H127 C144 0.940 . S
H128 C145 0.939 . S
H129 C147 0.941 . S
H130 C151 0.939 . S
O131 P120 1.490 . S
H132 C148 0.939 . S
H133 C150 0.940 . S
C134 P120 1.812 . S
C134 C135 1.389 . S
C134 C139 1.391 . S
C135 H121 0.941 . S
C135 C134 1.389 . S
C135 C136 1.397 . S
C136 H122 0.939 . S
C136 C135 1.397 . S
C136 C137 1.378 . S
C137 C136 1.378 . S
C137 C138 1.378 . S
C138 H123 0.940 . S
C138 C137 1.378 . S
C138 C139 1.396 . S
C139 H124 0.940 . S
C139 C134 1.391 . S
C139 C138 1.396 . S
C140 P120 1.803 1_455 S
C140 C141 1.378 . S
C140 C145 1.400 . S
C141 H125 0.939 . S
C141 C140 1.378 . S
C141 C142 1.361 . S
C142 H126 0.942 . S
C142 C141 1.361 . S
C142 C143 1.369 . S
C143 C142 1.369 . S
C143 C144 1.404 . S
C144 H127 0.940 . S
C144 C143 1.404 . S
C144 C145 1.389 . S
C145 H128 0.939 . S
C145 C140 1.400 . S
C145 C144 1.389 . S
C146 P120 1.819 . S
C146 C147 1.391 . S
C146 C151 1.391 . S
C147 H129 0.941 . S
C147 C146 1.391 . S
C147 C148 1.396 . S
C148 H132 0.939 . S
C148 C147 1.396 . S
C148 C149 1.397 . S
C149 C148 1.397 . S
C149 C150 1.385 . S
C150 H133 0.940 . S
C150 C149 1.385 . S
C150 C151 1.388 . S
C151 H130 0.939 . S
C151 C146 1.391 . S
C151 C150 1.388 . S
P152 O163 1.490 . S
P152 C166 1.812 . S
P152 C172 1.803 . S
P152 C178 1.819 1_556 S
H153 C167 0.941 . S
H154 C168 0.939 . S
H155 C170 0.940 . S
H156 C171 0.940 . S
H157 C173 0.939 . S
H158 C174 0.942 . S
H159 C176 0.940 . S
H160 C177 0.939 . S
H161 C179 0.941 . S
H162 C183 0.939 . S
O163 P152 1.490 . S
H164 C180 0.939 . S
H165 C182 0.940 . S
C166 P152 1.812 . S
C166 C167 1.389 . S
C166 C171 1.391 . S
C167 H153 0.941 . S
C167 C166 1.389 . S
C167 C168 1.397 . S
C168 H154 0.939 . S
C168 C167 1.397 . S
C168 C169 1.378 . S
C169 C168 1.378 . S
C169 C170 1.378 . S
C170 H155 0.940 . S
C170 C169 1.378 . S
C170 C171 1.396 . S
C171 H156 0.940 . S
C171 C166 1.391 . S
C171 C170 1.396 . S
C172 P152 1.803 . S
C172 C173 1.378 1_556 S
C172 C177 1.400 . S
C173 H157 0.939 . S
C173 C172 1.378 1_554 S
C173 C174 1.361 . S
C174 H158 0.942 . S
C174 C173 1.361 . S
C174 C175 1.369 . S
C175 C174 1.369 . S
C175 C176 1.404 1_554 S
C176 H159 0.940 . S
C176 C175 1.404 1_556 S
C176 C177 1.389 . S
C177 H160 0.939 . S
C177 C172 1.400 . S
C177 C176 1.389 . S
C178 P152 1.819 1_554 S
C178 C179 1.391 . S
C178 C183 1.391 . S
C179 H161 0.941 . S
C179 C178 1.391 . S
C179 C180 1.396 . S
C180 H164 0.939 . S
C180 C179 1.396 . S
C180 C181 1.397 . S
C181 C180 1.397 . S
C181 C182 1.385 . S
C182 H165 0.940 . S
C182 C181 1.385 . S
C182 C183 1.388 . S
C183 H162 0.939 . S
C183 C178 1.391 . S
C183 C182 1.388 . S
P184 O195 1.490 . S
P184 C198 1.812 . S
P184 C204 1.803 1_455 S
P184 C210 1.819 . S
H185 C199 0.941 . S
H186 C200 0.939 . S
H187 C202 0.940 . S
H188 C203 0.940 . S
H189 C205 0.939 . S
H190 C206 0.942 . S
H191 C208 0.940 . S
H192 C209 0.939 . S
H193 C211 0.941 . S
H194 C215 0.939 . S
O195 P184 1.490 . S
H196 C212 0.939 . S
H197 C214 0.940 . S
C198 P184 1.812 . S
C198 C199 1.389 . S
C198 C203 1.391 . S
C199 H185 0.941 . S
C199 C198 1.389 . S
C199 C200 1.397 . S
C200 H186 0.939 . S
C200 C199 1.397 . S
C200 C201 1.378 . S
C201 C200 1.378 . S
C201 C202 1.378 . S
C202 H187 0.940 . S
C202 C201 1.378 . S
C202 C203 1.396 . S
C203 H188 0.940 . S
C203 C198 1.391 . S
C203 C202 1.396 . S
C204 P184 1.803 1_655 S
C204 C205 1.378 . S
C204 C209 1.400 . S
C205 H189 0.939 . S
C205 C204 1.378 . S
C205 C206 1.361 . S
C206 H190 0.942 . S
C206 C205 1.361 . S
C206 C207 1.369 . S
C207 C206 1.369 . S
C207 C208 1.404 . S
C208 H191 0.940 . S
C208 C207 1.404 . S
C208 C209 1.389 . S
C209 H192 0.939 . S
C209 C204 1.400 . S
C209 C208 1.389 . S
C210 P184 1.819 . S
C210 C211 1.391 . S
C210 C215 1.391 . S
C211 H193 0.941 . S
C211 C210 1.391 . S
C211 C212 1.396 . S
C212 H196 0.939 . S
C212 C211 1.396 . S
C212 C213 1.397 . S
C213 C212 1.397 . S
C213 C214 1.385 . S
C214 H197 0.940 . S
C214 C213 1.385 . S
C214 C215 1.388 . S
C215 H194 0.939 . S
C215 C210 1.391 . S
C215 C214 1.388 . S
P216 O227 1.490 . S
P216 C230 1.812 . S
P216 C236 1.803 1_565 S
P216 C242 1.819 . S
H217 C231 0.941 . S
H218 C232 0.939 . S
H219 C234 0.940 . S
H220 C235 0.940 . S
H221 C237 0.939 . S
H222 C238 0.942 . S
H223 C240 0.940 . S
H224 C241 0.939 . S
H225 C243 0.941 . S
H226 C247 0.939 . S
O227 P216 1.490 . S
H228 C244 0.939 . S
H229 C246 0.940 . S
C230 P216 1.812 . S
C230 C231 1.389 . S
C230 C235 1.391 . S
C231 H217 0.941 . S
C231 C230 1.389 . S
C231 C232 1.397 . S
C232 H218 0.939 . S
C232 C231 1.397 . S
C232 C233 1.378 . S
C233 C232 1.378 . S
C233 C234 1.378 . S
C234 H219 0.940 . S
C234 C233 1.378 . S
C234 C235 1.396 . S
C235 H220 0.940 . S
C235 C230 1.391 . S
C235 C234 1.396 . S
C236 P216 1.803 1_545 S
C236 C237 1.378 . S
C236 C241 1.400 . S
C237 H221 0.939 . S
C237 C236 1.378 . S
C237 C238 1.361 . S
C238 H222 0.942 . S
C238 C237 1.361 . S
C238 C239 1.369 . S
C239 C238 1.369 . S
C239 C240 1.404 . S
C240 H223 0.940 . S
C240 C239 1.404 . S
C240 C241 1.389 . S
C241 H224 0.939 . S
C241 C236 1.400 . S
C241 C240 1.389 . S
C242 P216 1.819 . S
C242 C243 1.391 . S
C242 C247 1.391 . S
C243 H225 0.941 . S
C243 C242 1.391 . S
C243 C244 1.396 . S
C244 H228 0.939 . S
C244 C243 1.396 . S
C244 C245 1.397 . S
C245 C244 1.397 . S
C245 C246 1.385 . S
C246 H229 0.940 . S
C246 C245 1.385 . S
C246 C247 1.388 . S
C247 H226 0.939 . S
C247 C242 1.391 . S
C247 C246 1.388 . S
P248 O259 1.490 . S
P248 C262 1.812 . S
P248 C268 1.803 . S
P248 C274 1.819 1_556 S
H249 C263 0.941 . S
H250 C264 0.939 . S
H251 C266 0.940 . S
H252 C267 0.940 . S
H253 C269 0.939 . S
H254 C270 0.942 . S
H255 C272 0.940 . S
H256 C273 0.939 . S
H257 C275 0.941 . S
H258 C279 0.939 . S
O259 P248 1.490 . S
H260 C276 0.939 . S
H261 C278 0.940 . S
C262 P248 1.812 . S
C262 C263 1.389 . S
C262 C267 1.391 . S
C263 H249 0.941 . S
C263 C262 1.389 . S
C263 C264 1.397 . S
C264 H250 0.939 . S
C264 C263 1.397 . S
C264 C265 1.378 . S
C265 C264 1.378 . S
C265 C266 1.378 . S
C266 H251 0.940 . S
C266 C265 1.378 . S
C266 C267 1.396 . S
C267 H252 0.940 . S
C267 C262 1.391 . S
C267 C266 1.396 . S
C268 P248 1.803 . S
C268 C269 1.378 1_556 S
C268 C273 1.400 . S
C269 H253 0.939 . S
C269 C268 1.378 1_554 S
C269 C270 1.361 . S
C270 H254 0.942 . S
C270 C269 1.361 . S
C270 C271 1.369 . S
C271 C270 1.369 . S
C271 C272 1.404 1_554 S
C272 H255 0.940 . S
C272 C271 1.404 1_556 S
C272 C273 1.389 . S
C273 H256 0.939 . S
C273 C268 1.400 . S
C273 C272 1.389 . S
C274 P248 1.819 1_554 S
C274 C275 1.391 . S
C274 C279 1.391 . S
C275 H257 0.941 . S
C275 C274 1.391 . S
C275 C276 1.396 . S
C276 H260 0.939 . S
C276 C275 1.396 . S
C276 C277 1.397 . S
C277 C276 1.397 . S
C277 C278 1.385 . S
C278 H261 0.940 . S
C278 C277 1.385 . S
C278 C279 1.388 . S
C279 H258 0.939 . S
C279 C274 1.391 . S
C279 C278 1.388 . S
P280 O291 1.490 . S
P280 C294 1.812 . S
P280 C300 1.803 1_545 S
P280 C306 1.819 . S
H281 C295 0.941 . S
H282 C296 0.939 . S
H283 C298 0.940 . S
H284 C299 0.940 . S
H285 C301 0.939 . S
H286 C302 0.942 . S
H287 C304 0.940 . S
H288 C305 0.939 . S
H289 C307 0.941 . S
H290 C311 0.939 . S
O291 P280 1.490 . S
H292 C308 0.939 . S
H293 C310 0.940 . S
C294 P280 1.812 . S
C294 C295 1.389 . S
C294 C299 1.391 . S
C295 H281 0.941 . S
C295 C294 1.389 . S
C295 C296 1.397 . S
C296 H282 0.939 . S
C296 C295 1.397 . S
C296 C297 1.378 . S
C297 C296 1.378 . S
C297 C298 1.378 . S
C298 H283 0.940 . S
C298 C297 1.378 . S
C298 C299 1.396 . S
C299 H284 0.940 . S
C299 C294 1.391 . S
C299 C298 1.396 . S
C300 P280 1.803 1_565 S
C300 C301 1.378 . S
C300 C305 1.400 . S
C301 H285 0.939 . S
C301 C300 1.378 . S
C301 C302 1.361 . S
C302 H286 0.942 . S
C302 C301 1.361 . S
C302 C303 1.369 . S
C303 C302 1.369 . S
C303 C304 1.404 . S
C304 H287 0.940 . S
C304 C303 1.404 . S
C304 C305 1.389 . S
C305 H288 0.939 . S
C305 C300 1.400 . S
C305 C304 1.389 . S
C306 P280 1.819 . S
C306 C307 1.391 . S
C306 C311 1.391 . S
C307 H289 0.941 . S
C307 C306 1.391 . S
C307 C308 1.396 . S
C308 H292 0.939 . S
C308 C307 1.396 . S
C308 C309 1.397 . S
C309 C308 1.397 . S
C309 C310 1.385 . S
C310 H293 0.940 . S
C310 C309 1.385 . S
C310 C311 1.388 . S
C311 H290 0.939 . S
C311 C306 1.391 . S
C311 C310 1.388 . S
P312 O323 1.490 . S
P312 C326 1.812 . S
P312 C332 1.803 . S
P312 C338 1.819 1_554 S
H313 C327 0.941 . S
H314 C328 0.939 . S
H315 C330 0.940 . S
H316 C331 0.940 . S
H317 C333 0.939 . S
H318 C334 0.942 . S
H319 C336 0.940 . S
H320 C337 0.939 . S
H321 C339 0.941 . S
H322 C343 0.939 . S
O323 P312 1.490 . S
H324 C340 0.939 . S
H325 C342 0.940 . S
C326 P312 1.812 . S
C326 C327 1.389 . S
C326 C331 1.391 . S
C327 H313 0.941 . S
C327 C326 1.389 . S
C327 C328 1.397 . S
C328 H314 0.939 . S
C328 C327 1.397 . S
C328 C329 1.378 . S
C329 C328 1.378 . S
C329 C330 1.378 . S
C330 H315 0.940 . S
C330 C329 1.378 . S
C330 C331 1.396 . S
C331 H316 0.940 . S
C331 C326 1.391 . S
C331 C330 1.396 . S
C332 P312 1.803 . S
C332 C333 1.378 1_554 S
C332 C337 1.400 . S
C333 H317 0.939 . S
C333 C332 1.378 1_556 S
C333 C334 1.361 . S
C334 H318 0.942 . S
C334 C333 1.361 . S
C334 C335 1.369 1_556 S
C335 C334 1.369 1_554 S
C335 C336 1.404 . S
C336 H319 0.940 . S
C336 C335 1.404 . S
C336 C337 1.389 . S
C337 H320 0.939 . S
C337 C332 1.400 . S
C337 C336 1.389 . S
C338 P312 1.819 1_556 S
C338 C339 1.391 . S
C338 C343 1.391 . S
C339 H321 0.941 . S
C339 C338 1.391 . S
C339 C340 1.396 . S
C340 H324 0.939 . S
C340 C339 1.396 . S
C340 C341 1.397 . S
C341 C340 1.397 . S
C341 C342 1.385 . S
C342 H325 0.940 . S
C342 C341 1.385 . S
C342 C343 1.388 . S
C343 H322 0.939 . S
C343 C338 1.391 . S
C343 C342 1.388 . S
H344 C352 0.950 . S
H345 C357 0.950 . S
H346 C354 0.950 . S
H347 C356 0.950 . S
H348 C358 0.950 . S
H349 C360 0.950 . S
H350 C362 0.950 . S
H351 C363 0.950 . S
C352 H344 0.950 . S
C352 C353 1.386 . S
C352 C354 1.391 . S
C353 C352 1.386 . S
C353 C357 1.393 . S
C354 H346 0.950 . S
C354 C352 1.391 . S
C354 C355 1.400 . S
C355 C354 1.400 . S
C355 C356 1.398 . S
C355 C361 1.491 . S
C356 H347 0.950 . S
C356 C355 1.398 . S
C356 C357 1.391 . S
C357 H345 0.950 . S
C357 C353 1.393 . S
C357 C356 1.391 . S
C358 H348 0.950 . S
C358 C359 1.386 . S
C358 C360 1.391 . S
C359 C358 1.386 . S
C359 C363 1.393 . S
C360 H349 0.950 . S
C360 C358 1.391 . S
C360 C361 1.400 . S
C361 C355 1.491 . S
C361 C360 1.400 . S
C361 C362 1.398 . S
C362 H350 0.950 . S
C362 C361 1.398 . S
C362 C363 1.391 . S
C363 H351 0.950 . S
C363 C359 1.393 . S
C363 C362 1.391 . S
H364 C372 0.950 . S
H365 C377 0.950 . S
H366 C374 0.950 . S
H367 C376 0.950 . S
H368 C378 0.950 . S
H369 C380 0.950 . S
H370 C382 0.950 . S
H371 C383 0.950 . S
C372 H364 0.950 . S
C372 C373 1.386 . S
C372 C374 1.391 . S
C373 C372 1.386 . S
C373 C377 1.393 . S
C374 H366 0.950 . S
C374 C372 1.391 . S
C374 C375 1.400 . S
C375 C374 1.400 . S
C375 C376 1.398 . S
C375 C381 1.491 . S
C376 H367 0.950 . S
C376 C375 1.398 . S
C376 C377 1.391 . S
C377 H365 0.950 . S
C377 C373 1.393 . S
C377 C376 1.391 . S
C378 H368 0.950 . S
C378 C379 1.386 . S
C378 C380 1.391 . S
C379 C378 1.386 . S
C379 C383 1.393 . S
C380 H369 0.950 . S
C380 C378 1.391 . S
C380 C381 1.400 . S
C381 C375 1.491 . S
C381 C380 1.400 . S
C381 C382 1.398 . S
C382 H370 0.950 . S
C382 C381 1.398 . S
C382 C383 1.391 . S
C383 H371 0.950 . S
C383 C379 1.393 . S
C383 C382 1.391 . S
H384 C392 0.950 . S
H385 C397 0.950 . S
H386 C394 0.950 . S
H387 C396 0.950 . S
H388 C398 0.950 . S
H389 C400 0.950 . S
H390 C402 0.950 . S
H391 C403 0.950 . S
C392 H384 0.950 . S
C392 C393 1.386 . S
C392 C394 1.391 . S
C393 C392 1.386 . S
C393 C397 1.393 . S
C394 H386 0.950 . S
C394 C392 1.391 . S
C394 C395 1.400 . S
C395 C394 1.400 . S
C395 C396 1.398 . S
C395 C401 1.491 . S
C396 H387 0.950 . S
C396 C395 1.398 . S
C396 C397 1.391 . S
C397 H385 0.950 . S
C397 C393 1.393 . S
C397 C396 1.391 . S
C398 H388 0.950 . S
C398 C399 1.386 . S
C398 C400 1.391 . S
C399 C398 1.386 . S
C399 C403 1.393 . S
C400 H389 0.950 . S
C400 C398 1.391 . S
C400 C401 1.400 . S
C401 C395 1.491 . S
C401 C400 1.400 . S
C401 C402 1.398 . S
C402 H390 0.950 . S
C402 C401 1.398 . S
C402 C403 1.391 . S
C403 H391 0.950 . S
C403 C399 1.393 . S
C403 C402 1.391 . S
H404 C412 0.950 . S
H405 C417 0.950 . S
H406 C414 0.950 . S
H407 C416 0.950 . S
H408 C418 0.950 . S
H409 C420 0.950 . S
H410 C422 0.950 . S
H411 C423 0.950 . S
C412 H404 0.950 . S
C412 C413 1.386 . S
C412 C414 1.391 . S
C413 C412 1.386 . S
C413 C417 1.393 . S
C414 H406 0.950 . S
C414 C412 1.391 . S
C414 C415 1.400 . S
C415 C414 1.400 . S
C415 C416 1.398 . S
C415 C421 1.491 . S
C416 H407 0.950 . S
C416 C415 1.398 . S
C416 C417 1.391 . S
C417 H405 0.950 . S
C417 C413 1.393 . S
C417 C416 1.391 . S
C418 H408 0.950 . S
C418 C419 1.386 . S
C418 C420 1.391 . S
C419 C418 1.386 . S
C419 C423 1.393 . S
C420 H409 0.950 . S
C420 C418 1.391 . S
C420 C421 1.400 . S
C421 C415 1.491 . S
C421 C420 1.400 . S
C421 C422 1.398 . S
C422 H410 0.950 . S
C422 C421 1.398 . S
C422 C423 1.391 . S
C423 H411 0.950 . S
C423 C419 1.393 . S
C423 C422 1.391 . S
H424 C432 0.950 . S
H425 C437 0.950 . S
H426 C434 0.950 . S
H427 C436 0.950 . S
H428 C438 0.950 . S
H429 C440 0.950 . S
H430 C442 0.950 . S
H431 C443 0.950 . S
C432 H424 0.950 . S
C432 C433 1.386 . S
C432 C434 1.391 . S
C433 C432 1.386 . S
C433 C437 1.393 . S
C434 H426 0.950 . S
C434 C432 1.391 . S
C434 C435 1.400 . S
C435 C434 1.400 . S
C435 C436 1.398 . S
C435 C441 1.491 . S
C436 H427 0.950 . S
C436 C435 1.398 . S
C436 C437 1.391 . S
C437 H425 0.950 . S
C437 C433 1.393 . S
C437 C436 1.391 . S
C438 H428 0.950 . S
C438 C439 1.386 . S
C438 C440 1.391 . S
C439 C438 1.386 . S
C439 C443 1.393 . S
C440 H429 0.950 . S
C440 C438 1.391 . S
C440 C441 1.400 . S
C441 C435 1.491 . S
C441 C440 1.400 . S
C441 C442 1.398 . S
C442 H430 0.950 . S
C442 C441 1.398 . S
C442 C443 1.391 . S
C443 H431 0.950 . S
C443 C439 1.393 . S
C443 C442 1.391 . S
H444 C452 0.950 . S
H445 C457 0.950 . S
H446 C454 0.950 . S
H447 C456 0.950 . S
H448 C458 0.950 . S
H449 C460 0.950 . S
H450 C462 0.950 . S
H451 C463 0.950 . S
C452 H444 0.950 . S
C452 C453 1.386 . S
C452 C454 1.391 . S
C453 C452 1.386 . S
C453 C457 1.393 . S
C454 H446 0.950 . S
C454 C452 1.391 . S
C454 C455 1.400 . S
C455 C454 1.400 . S
C455 C456 1.398 . S
C455 C461 1.491 . S
C456 H447 0.950 . S
C456 C455 1.398 . S
C456 C457 1.391 . S
C457 H445 0.950 . S
C457 C453 1.393 . S
C457 C456 1.391 . S
C458 H448 0.950 . S
C458 C459 1.386 . S
C458 C460 1.391 . S
C459 C458 1.386 . S
C459 C463 1.393 . S
C460 H449 0.950 . S
C460 C458 1.391 . S
C460 C461 1.400 . S
C461 C455 1.491 . S
C461 C460 1.400 . S
C461 C462 1.398 . S
C462 H450 0.950 . S
C462 C461 1.398 . S
C462 C463 1.391 . S
C463 H451 0.950 . S
C463 C459 1.393 . S
C463 C462 1.391 . S
H464 C472 0.950 . S
H465 C477 0.950 . S
H466 C474 0.950 . S
H467 C476 0.950 . S
H468 C478 0.950 . S
H469 C480 0.950 . S
H470 C482 0.950 . S
H471 C483 0.950 . S
C472 H464 0.950 . S
C472 C473 1.386 . S
C472 C474 1.391 . S
C473 C472 1.386 . S
C473 C477 1.393 . S
C474 H466 0.950 . S
C474 C472 1.391 . S
C474 C475 1.400 . S
C475 C474 1.400 . S
C475 C476 1.398 . S
C475 C481 1.491 . S
C476 H467 0.950 . S
C476 C475 1.398 . S
C476 C477 1.391 . S
C477 H465 0.950 . S
C477 C473 1.393 . S
C477 C476 1.391 . S
C478 H468 0.950 . S
C478 C479 1.386 . S
C478 C480 1.391 . S
C479 C478 1.386 . S
C479 C483 1.393 . S
C480 H469 0.950 . S
C480 C478 1.391 . S
C480 C481 1.400 . S
C481 C475 1.491 . S
C481 C480 1.400 . S
C481 C482 1.398 . S
C482 H470 0.950 . S
C482 C481 1.398 . S
C482 C483 1.391 . S
C483 H471 0.950 . S
C483 C479 1.393 . S
C483 C482 1.391 . S
H484 C492 0.950 . S
H485 C497 0.950 . S
H486 C494 0.950 . S
H487 C496 0.950 . S
H488 C498 0.950 . S
H489 C500 0.950 . S
H490 C502 0.950 . S
H491 C503 0.950 . S
C492 H484 0.950 . S
C492 C493 1.386 . S
C492 C494 1.391 . S
C493 C492 1.386 . S
C493 C497 1.393 . S
C494 H486 0.950 . S
C494 C492 1.391 . S
C494 C495 1.400 . S
C495 C494 1.400 . S
C495 C496 1.398 . S
C495 C501 1.491 . S
C496 H487 0.950 . S
C496 C495 1.398 . S
C496 C497 1.391 . S
C497 H485 0.950 . S
C497 C493 1.393 . S
C497 C496 1.391 . S
C498 H488 0.950 . S
C498 C499 1.386 . S
C498 C500 1.391 . S
C499 C498 1.386 . S
C499 C503 1.393 . S
C500 H489 0.950 . S
C500 C498 1.391 . S
C500 C501 1.400 . S
C501 C495 1.491 . S
C501 C500 1.400 . S
C501 C502 1.398 . S
C502 H490 0.950 . S
C502 C501 1.398 . S
C502 C503 1.391 . S
C503 H491 0.950 . S
C503 C499 1.393 . S
C503 C502 1.391 . S
H504 C512 0.950 . S
H505 C517 0.950 . S
H506 C514 0.950 . S
H507 C516 0.950 . S
H508 C518 0.950 . S
H509 C520 0.950 . S
H510 C522 0.950 . S
H511 C523 0.950 . S
C512 H504 0.950 . S
C512 C513 1.386 . S
C512 C514 1.391 . S
C513 C512 1.386 . S
C513 C517 1.393 . S
C514 H506 0.950 . S
C514 C512 1.391 . S
C514 C515 1.400 . S
C515 C514 1.400 . S
C515 C516 1.398 . S
C515 C521 1.491 . S
C516 H507 0.950 . S
C516 C515 1.398 . S
C516 C517 1.391 . S
C517 H505 0.950 . S
C517 C513 1.393 . S
C517 C516 1.391 . S
C518 H508 0.950 . S
C518 C519 1.386 . S
C518 C520 1.391 . S
C519 C518 1.386 . S
C519 C523 1.393 . S
C520 H509 0.950 . S
C520 C518 1.391 . S
C520 C521 1.400 . S
C521 C515 1.491 . S
C521 C520 1.400 . S
C521 C522 1.398 . S
C522 H510 0.950 . S
C522 C521 1.398 . S
C522 C523 1.391 . S
C523 H511 0.950 . S
C523 C519 1.393 . S
C523 C522 1.391 . S
H524 C532 0.950 . S
H525 C537 0.950 . S
H526 C534 0.950 . S
H527 C536 0.950 . S
H528 C538 0.950 . S
H529 C540 0.950 . S
H530 C542 0.950 . S
H531 C543 0.950 . S
C532 H524 0.950 . S
C532 C533 1.386 . S
C532 C534 1.391 . S
C533 C532 1.386 . S
C533 C537 1.393 . S
C534 H526 0.950 . S
C534 C532 1.391 . S
C534 C535 1.400 . S
C535 C534 1.400 . S
C535 C536 1.398 . S
C535 C541 1.491 . S
C536 H527 0.950 . S
C536 C535 1.398 . S
C536 C537 1.391 . S
C537 H525 0.950 . S
C537 C533 1.393 . S
C537 C536 1.391 . S
C538 H528 0.950 . S
C538 C539 1.386 . S
C538 C540 1.391 . S
C539 C538 1.386 . S
C539 C543 1.393 . S
C540 H529 0.950 . S
C540 C538 1.391 . S
C540 C541 1.400 . S
C541 C535 1.491 . S
C541 C540 1.400 . S
C541 C542 1.398 . S
C542 H530 0.950 . S
C542 C541 1.398 . S
C542 C543 1.391 . S
C543 H531 0.950 . S
C543 C539 1.393 . S
C543 C542 1.391 . S
H544 C552 0.950 . S
H545 C557 0.950 . S
H546 C554 0.950 . S
H547 C556 0.950 . S
H548 C558 0.950 . S
H549 C560 0.950 . S
H550 C562 0.950 . S
H551 C563 0.950 . S
C552 H544 0.950 . S
C552 C553 1.386 . S
C552 C554 1.391 . S
C553 C552 1.386 . S
C553 C557 1.393 . S
C554 H546 0.950 . S
C554 C552 1.391 . S
C554 C555 1.400 . S
C555 C554 1.400 . S
C555 C556 1.398 . S
C555 C561 1.491 . S
C556 H547 0.950 . S
C556 C555 1.398 . S
C556 C557 1.391 . S
C557 H545 0.950 . S
C557 C553 1.393 . S
C557 C556 1.391 . S
C558 H548 0.950 . S
C558 C559 1.386 . S
C558 C560 1.391 . S
C559 C558 1.386 . S
C559 C563 1.393 . S
C560 H549 0.950 . S
C560 C558 1.391 . S
C560 C561 1.400 . S
C561 C555 1.491 . S
C561 C560 1.400 . S
C561 C562 1.398 . S
C562 H550 0.950 . S
C562 C561 1.398 . S
C562 C563 1.391 . S
C563 H551 0.950 . S
C563 C559 1.393 . S
C563 C562 1.391 . S
H564 C572 0.950 . S
H565 C577 0.950 . S
H566 C574 0.950 . S
H567 C576 0.950 . S
H568 C578 0.950 . S
H569 C580 0.950 . S
H570 C582 0.950 . S
H571 C583 0.950 . S
C572 H564 0.950 . S
C572 C573 1.386 . S
C572 C574 1.391 . S
C573 C572 1.386 . S
C573 C577 1.393 . S
C574 H566 0.950 . S
C574 C572 1.391 . S
C574 C575 1.400 . S
C575 C574 1.400 . S
C575 C576 1.398 . S
C575 C581 1.491 . S
C576 H567 0.950 . S
C576 C575 1.398 . S
C576 C577 1.391 . S
C577 H565 0.950 . S
C577 C573 1.393 . S
C577 C576 1.391 . S
C578 H568 0.950 . S
C578 C579 1.386 . S
C578 C580 1.391 . S
C579 C578 1.386 . S
C579 C583 1.393 . S
C580 H569 0.950 . S
C580 C578 1.391 . S
C580 C581 1.400 . S
C581 C575 1.491 . S
C581 C580 1.400 . S
C581 C582 1.398 . S
C582 H570 0.950 . S
C582 C581 1.398 . S
C582 C583 1.391 . S
C583 H571 0.950 . S
C583 C579 1.393 . S
C583 C582 1.391 . S
H584 C592 0.950 . S
H585 C597 0.950 . S
H586 C594 0.950 . S
H587 C596 0.950 . S
H588 C598 0.950 . S
H589 C600 0.950 . S
H590 C602 0.950 . S
H591 C603 0.950 . S
C592 H584 0.950 . S
C592 C593 1.386 . S
C592 C594 1.391 . S
C593 C592 1.386 . S
C593 C597 1.393 . S
C594 H586 0.950 . S
C594 C592 1.391 . S
C594 C595 1.400 . S
C595 C594 1.400 . S
C595 C596 1.398 . S
C595 C601 1.491 . S
C596 H587 0.950 . S
C596 C595 1.398 . S
C596 C597 1.391 . S
C597 H585 0.950 . S
C597 C593 1.393 . S
C597 C596 1.391 . S
C598 H588 0.950 . S
C598 C599 1.386 . S
C598 C600 1.391 . S
C599 C598 1.386 . S
C599 C603 1.393 . S
C600 H589 0.950 . S
C600 C598 1.391 . S
C600 C601 1.400 . S
C601 C595 1.491 . S
C601 C600 1.400 . S
C601 C602 1.398 . S
C602 H590 0.950 . S
C602 C601 1.398 . S
C602 C603 1.391 . S
C603 H591 0.950 . S
C603 C599 1.393 . S
C603 C602 1.391 . S
H604 C612 0.950 . S
H605 C617 0.950 . S
H606 C614 0.950 . S
H607 C616 0.950 . S
H608 C618 0.950 . S
H609 C620 0.950 . S
H610 C622 0.950 . S
H611 C623 0.950 . S
C612 H604 0.950 . S
C612 C613 1.386 . S
C612 C614 1.391 . S
C613 C612 1.386 . S
C613 C617 1.393 . S
C614 H606 0.950 . S
C614 C612 1.391 . S
C614 C615 1.400 . S
C615 C614 1.400 . S
C615 C616 1.398 . S
C615 C621 1.491 . S
C616 H607 0.950 . S
C616 C615 1.398 . S
C616 C617 1.391 . S
C617 H605 0.950 . S
C617 C613 1.393 . S
C617 C616 1.391 . S
C618 H608 0.950 . S
C618 C619 1.386 . S
C618 C620 1.391 . S
C619 C618 1.386 . S
C619 C623 1.393 . S
C620 H609 0.950 . S
C620 C618 1.391 . S
C620 C621 1.400 . S
C621 C615 1.491 . S
C621 C620 1.400 . S
C621 C622 1.398 . S
C622 H610 0.950 . S
C622 C621 1.398 . S
C622 C623 1.391 . S
C623 H611 0.950 . S
C623 C619 1.393 . S
C623 C622 1.391 . S
H624 C632 0.950 . S
H625 C637 0.950 . S
H626 C634 0.950 . S
H627 C636 0.950 . S
H628 C638 0.950 . S
H629 C640 0.950 . S
H630 C642 0.950 . S
H631 C643 0.950 . S
C632 H624 0.950 . S
C632 C633 1.386 . S
C632 C634 1.391 . S
C633 C632 1.386 . S
C633 C637 1.393 . S
C634 H626 0.950 . S
C634 C632 1.391 . S
C634 C635 1.400 . S
C635 C634 1.400 . S
C635 C636 1.398 . S
C635 C641 1.491 . S
C636 H627 0.950 . S
C636 C635 1.398 . S
C636 C637 1.391 . S
C637 H625 0.950 . S
C637 C633 1.393 . S
C637 C636 1.391 . S
C638 H628 0.950 . S
C638 C639 1.386 . S
C638 C640 1.391 . S
C639 C638 1.386 . S
C639 C643 1.393 . S
C640 H629 0.950 . S
C640 C638 1.391 . S
C640 C641 1.400 . S
C641 C635 1.491 . S
C641 C640 1.400 . S
C641 C642 1.398 . S
C642 H630 0.950 . S
C642 C641 1.398 . S
C642 C643 1.391 . S
C643 H631 0.950 . S
C643 C639 1.393 . S
C643 C642 1.391 . S
H644 C652 0.950 . S
H645 C657 0.950 . S
H646 C654 0.950 . S
H647 C656 0.950 . S
H648 C658 0.950 . S
H649 C660 0.950 . S
H650 C662 0.950 . S
H651 C663 0.950 . S
C652 H644 0.950 . S
C652 C653 1.386 . S
C652 C654 1.391 . S
C653 C652 1.386 . S
C653 C657 1.393 . S
C654 H646 0.950 . S
C654 C652 1.391 . S
C654 C655 1.400 . S
C655 C654 1.400 . S
C655 C656 1.398 . S
C655 C661 1.491 . S
C656 H647 0.950 . S
C656 C655 1.398 . S
C656 C657 1.391 . S
C657 H645 0.950 . S
C657 C653 1.393 . S
C657 C656 1.391 . S
C658 H648 0.950 . S
C658 C659 1.386 . S
C658 C660 1.391 . S
C659 C658 1.386 . S
C659 C663 1.393 . S
C660 H649 0.950 . S
C660 C658 1.391 . S
C660 C661 1.400 . S
C661 C655 1.491 . S
C661 C660 1.400 . S
C661 C662 1.398 . S
C662 H650 0.950 . S
C662 C661 1.398 . S
C662 C663 1.391 . S
C663 H651 0.950 . S
C663 C659 1.393 . S
C663 C662 1.391 . S
H664 C672 0.950 . S
H665 C677 0.950 . S
H666 C674 0.950 . S
H667 C676 0.950 . S
H668 C678 0.950 . S
H669 C680 0.950 . S
H670 C682 0.950 . S
H671 C683 0.950 . S
C672 H664 0.950 . S
C672 C673 1.386 . S
C672 C674 1.391 . S
C673 C672 1.386 . S
C673 C677 1.393 1_554 S
C674 H666 0.950 . S
C674 C672 1.391 . S
C674 C675 1.400 . S
C675 C674 1.400 . S
C675 C676 1.398 1_554 S
C675 C681 1.491 . S
C676 H667 0.950 . S
C676 C675 1.398 1_556 S
C676 C677 1.391 . S
C677 H665 0.950 . S
C677 C673 1.393 1_556 S
C677 C676 1.391 . S
C678 H668 0.950 . S
C678 C679 1.386 1_556 S
C678 C680 1.391 . S
C679 C678 1.386 1_554 S
C679 C683 1.393 . S
C680 H669 0.950 . S
C680 C678 1.391 . S
C680 C681 1.390 1_556 S
C681 C675 1.491 . S
C681 C680 1.390 1_554 S
C681 C682 1.408 . S
C682 H670 0.950 . S
C682 C681 1.408 . S
C682 C683 1.391 . S
C683 H671 0.950 . S
C683 C679 1.393 . S
C683 C682 1.391 . S
H684 C692 0.950 . S
H685 C697 0.950 . S
H686 C694 0.950 . S
H687 C696 0.950 . S
H688 C698 0.950 . S
H689 C700 0.950 . S
H690 C702 0.950 . S
H691 C703 0.950 . S
C692 H684 0.950 . S
C692 C693 1.386 . S
C692 C694 1.391 . S
C693 C692 1.386 . S
C693 C697 1.393 . S
C694 H686 0.950 . S
C694 C692 1.391 . S
C694 C695 1.400 . S
C695 C694 1.400 . S
C695 C696 1.398 . S
C695 C701 1.491 . S
C696 H687 0.950 . S
C696 C695 1.398 . S
C696 C697 1.391 . S
C697 H685 0.950 . S
C697 C693 1.393 . S
C697 C696 1.391 . S
C698 H688 0.950 . S
C698 C699 1.386 . S
C698 C700 1.391 . S
C699 C698 1.386 . S
C699 C703 1.393 . S
C700 H689 0.950 . S
C700 C698 1.391 . S
C700 C701 1.400 . S
C701 C695 1.491 . S
C701 C700 1.400 . S
C701 C702 1.398 . S
C702 H690 0.950 . S
C702 C701 1.398 . S
C702 C703 1.391 . S
C703 H691 0.950 . S
C703 C699 1.393 . S
C703 C702 1.391 . S
H704 C712 0.950 . S
H705 C717 0.950 . S
H706 C714 0.950 . S
H707 C716 0.950 . S
H708 C718 0.950 . S
H709 C720 0.950 . S
H710 C722 0.950 . S
H711 C723 0.950 . S
C712 H704 0.950 . S
C712 C713 1.386 . S
C712 C714 1.391 . S
C713 C712 1.386 . S
C713 C717 1.393 1_554 S
C714 H706 0.950 . S
C714 C712 1.391 . S
C714 C715 1.400 . S
C715 C714 1.400 . S
C715 C716 1.398 1_554 S
C715 C721 1.491 . S
C716 H707 0.950 . S
C716 C715 1.398 1_556 S
C716 C717 1.391 . S
C717 H705 0.950 . S
C717 C713 1.393 1_556 S
C717 C716 1.391 . S
C718 H708 0.950 . S
C718 C719 1.386 1_556 S
C718 C720 1.391 . S
C719 C718 1.386 1_554 S
C719 C723 1.393 . S
C720 H709 0.950 . S
C720 C718 1.391 . S
C720 C721 1.400 1_556 S
C721 C715 1.491 . S
C721 C720 1.400 1_554 S
C721 C722 1.398 . S
C722 H710 0.950 . S
C722 C721 1.398 . S
C722 C723 1.391 . S
C723 H711 0.950 . S
C723 C719 1.393 . S
C723 C722 1.391 . S
H724 C732 0.950 . S
H725 C737 0.950 . S
H726 C734 0.950 . S
H727 C736 0.950 . S
H728 C738 0.950 . S
H729 C740 0.950 . S
H730 C742 0.950 . S
H731 C743 0.950 . S
C732 H724 0.950 . S
C732 C733 1.386 . S
C732 C734 1.391 . S
C733 C732 1.386 . S
C733 C737 1.393 . S
C734 H726 0.950 . S
C734 C732 1.391 . S
C734 C735 1.400 . S
C735 C734 1.400 . S
C735 C736 1.398 . S
C735 C741 1.491 . S
C736 H727 0.950 . S
C736 C735 1.398 . S
C736 C737 1.391 . S
C737 H725 0.950 . S
C737 C733 1.393 . S
C737 C736 1.391 . S
C738 H728 0.950 . S
C738 C739 1.386 . S
C738 C740 1.391 . S
C739 C738 1.386 . S
C739 C743 1.393 . S
C740 H729 0.950 . S
C740 C738 1.391 . S
C740 C741 1.400 . S
C741 C735 1.491 . S
C741 C740 1.400 . S
C741 C742 1.398 . S
C742 H730 0.950 . S
C742 C741 1.398 . S
C742 C743 1.391 . S
C743 H731 0.950 . S
C743 C739 1.393 . S
C743 C742 1.391 . S
H744 C752 0.950 . S
H745 C757 0.950 . S
H746 C754 0.950 . S
H747 C756 0.950 . S
H748 C758 0.950 . S
H749 C760 0.950 . S
H750 C762 0.950 . S
H751 C763 0.950 . S
C752 H744 0.950 . S
C752 C753 1.386 . S
C752 C754 1.391 . S
C753 C752 1.386 . S
C753 C757 1.393 . S
C754 H746 0.950 . S
C754 C752 1.391 . S
C754 C755 1.400 . S
C755 C754 1.400 . S
C755 C756 1.398 . S
C755 C761 1.491 . S
C756 H747 0.950 . S
C756 C755 1.398 . S
C756 C757 1.391 . S
C757 H745 0.950 . S
C757 C753 1.393 . S
C757 C756 1.391 . S
C758 H748 0.950 . S
C758 C759 1.386 . S
C758 C760 1.391 . S
C759 C758 1.386 . S
C759 C763 1.393 . S
C760 H749 0.950 . S
C760 C758 1.391 . S
C760 C761 1.400 . S
C761 C755 1.491 . S
C761 C760 1.400 . S
C761 C762 1.398 . S
C762 H750 0.950 . S
C762 C761 1.398 . S
C762 C763 1.391 . S
C763 H751 0.950 . S
C763 C759 1.393 . S
C763 C762 1.391 . S
H764 C772 0.950 . S
H765 C777 0.950 . S
H766 C774 0.950 . S
H767 C776 0.950 . S
H768 C778 0.950 . S
H769 C780 0.950 . S
H770 C782 0.950 . S
H771 C783 0.950 . S
C772 H764 0.950 . S
C772 C773 1.386 1_556 S
C772 C774 1.391 . S
C773 C772 1.386 1_554 S
C773 C777 1.393 . S
C774 H766 0.950 . S
C774 C772 1.391 . S
C774 C775 1.400 1_556 S
C775 C774 1.400 1_554 S
C775 C776 1.398 . S
C775 C781 1.491 . S
C776 H767 0.950 . S
C776 C775 1.398 . S
C776 C777 1.391 . S
C777 H765 0.950 . S
C777 C773 1.393 . S
C777 C776 1.391 . S
C778 H768 0.950 . S
C778 C779 1.386 . S
C778 C780 1.391 . S
C779 C778 1.386 . S
C779 C783 1.393 1_554 S
C780 H769 0.950 . S
C780 C778 1.391 . S
C780 C781 1.400 . S
C781 C775 1.491 . S
C781 C780 1.400 . S
C781 C782 1.398 1_554 S
C782 H770 0.950 . S
C782 C781 1.398 1_556 S
C782 C783 1.391 . S
C783 H771 0.950 . S
C783 C779 1.393 1_556 S
C783 C782 1.391 . S
H784 C792 0.950 . S
H785 C797 0.950 . S
H786 C794 0.950 . S
H787 C796 0.950 . S
H788 C798 0.950 . S
H789 C800 0.950 . S
H790 C802 0.950 . S
H791 C803 0.950 . S
C792 H784 0.950 . S
C792 C793 1.386 . S
C792 C794 1.391 . S
C793 C792 1.386 . S
C793 C797 1.393 . S
C794 H786 0.950 . S
C794 C792 1.391 . S
C794 C795 1.400 . S
C795 C794 1.400 . S
C795 C796 1.398 . S
C795 C801 1.491 . S
C796 H787 0.950 . S
C796 C795 1.398 . S
C796 C797 1.391 . S
C797 H785 0.950 . S
C797 C793 1.393 . S
C797 C796 1.391 . S
C798 H788 0.950 . S
C798 C799 1.386 . S
C798 C800 1.391 . S
C799 C798 1.386 . S
C799 C803 1.393 . S
C800 H789 0.950 . S
C800 C798 1.391 . S
C800 C801 1.400 . S
C801 C795 1.491 . S
C801 C800 1.400 . S
C801 C802 1.398 . S
C802 H790 0.950 . S
C802 C801 1.398 . S
C802 C803 1.391 . S
C803 H791 0.950 . S
C803 C799 1.393 . S
C803 C802 1.391 . S
H804 C812 0.950 . S
H805 C817 0.950 . S
H806 C814 0.950 . S
H807 C816 0.950 . S
H808 C818 0.950 . S
H809 C820 0.950 . S
H810 C822 0.950 . S
H811 C823 0.950 . S
C812 H804 0.950 . S
C812 C813 1.386 1_556 S
C812 C814 1.391 . S
C813 C812 1.386 1_554 S
C813 C817 1.393 . S
C814 H806 0.950 . S
C814 C812 1.391 . S
C814 C815 1.400 1_556 S
C815 C814 1.400 1_554 S
C815 C816 1.398 . S
C815 C821 1.491 . S
C816 H807 0.950 . S
C816 C815 1.398 . S
C816 C817 1.391 . S
C817 H805 0.950 . S
C817 C813 1.393 . S
C817 C816 1.391 . S
C818 H808 0.950 . S
C818 C819 1.398 . S
C818 C820 1.391 . S
C819 C818 1.398 . S
C819 C823 1.380 1_554 S
C820 H809 0.950 . S
C820 C818 1.391 . S
C820 C821 1.420 . S
C821 C815 1.491 . S
C821 C820 1.420 . S
C821 C822 1.379 1_554 S
C822 H810 0.950 . S
C822 C821 1.379 1_556 S
C822 C823 1.391 . S
C823 H811 0.950 . S
C823 C819 1.380 1_556 S
C823 C822 1.391 . S
C353 C5 1.437 . S
C359 C201 1.461 . S
C373 C31 1.462 . S
C379 C117 1.414 . S
C399 C149 1.403 . S
C393 C53 1.445 . S
C413 C71 1.431 . S
C419 C169 1.456 . S
C439 C277 1.393 . S
C433 C75 1.463 . S
C459 C297 1.455 . S
C453 C9 1.445 . S
C479 C329 1.455 . S
C473 C27 1.431 . S
C499 C245 1.390 . S
C493 C49 1.460 . S
C513 C51 1.450 . S
C519 C137 1.415 . S
C533 C72 1.454 . S
C539 C181 1.462 . S
C553 C6 1.444 . S
C559 C213 1.464 . S
C579 C105 1.419 . S
C573 C29 1.434 . S
C593 C28 1.460 . S
C599 C341 1.473 . S
C619 C233 1.398 . S
C613 C50 1.453 . S
C639 C265 1.402 . S
C633 C73 1.434 . S
C653 C7 1.444 . S
C659 C309 1.460 . S
C679 C111 1.455 . S
C673 C4 1.488 . S
C699 C143 1.446 . S
C693 C30 1.492 . S
C713 C52 1.487 . S
C719 C175 1.491 . S
C733 C70 1.490 . S
C739 C207 1.491 . S
C759 C239 1.438 . S
C753 C74 1.494 . S
C773 C8 1.491 . S
C779 C271 1.449 . S
C793 C26 1.493 . S
C799 C303 1.497 . S
C813 C48 1.488 . S
C819 C335 1.492 . S
