# Generated by pormake.
# Topology nom, (4,4)-cn, num edge types: 1
# Building blocks:
#     Node 0, Type 0, BuildingBlock: NAHDIM_clean_linker_0, # of connection points: 4
#     Node 1, Type 0, BuildingBlock: NAHDIM_clean_linker_0, # of connection points: 4
#     Node 2, Type 0, BuildingBlock: NAHDIM_clean_linker_0, # of connection points: 4
#     Node 3, Type 0, BuildingBlock: NAHDIM_clean_linker_0, # of connection points: 4
#     Node 4, Type 0, BuildingBlock: NAHDIM_clean_linker_0, # of connection points: 4
#     Node 5, Type 0, BuildingBlock: NAHDIM_clean_linker_0, # of connection points: 4
#     Node 6, Type 1, BuildingBlock: TATPOV_clean_sbu_0, # of connection points: 4
#     Node 7, Type 1, BuildingBlock: TATPOV_clean_sbu_0, # of connection points: 4
#     Node 8, Type 1, BuildingBlock: TATPOV_clean_sbu_0, # of connection points: 4
#     Node 9, Type 1, BuildingBlock: TATPOV_clean_sbu_0, # of connection points: 4
#     Node 10, Type 1, BuildingBlock: TATPOV_clean_sbu_0, # of connection points: 4
#     Node 11, Type 1, BuildingBlock: TATPOV_clean_sbu_0, # of connection points: 4
#     Edge 12, Type (0, 1), BuildingBlock: MIFKUJ_clean_linker_0, # of connection points: 2
#     Edge 13, Type (0, 1), BuildingBlock: MIFKUJ_clean_linker_0, # of connection points: 2
#     Edge 14, Type (0, 1), BuildingBlock: MIFKUJ_clean_linker_0, # of connection points: 2
#     Edge 15, Type (0, 1), BuildingBlock: MIFKUJ_clean_linker_0, # of connection points: 2
#     Edge 16, Type (0, 1), BuildingBlock: MIFKUJ_clean_linker_0, # of connection points: 2
#     Edge 17, Type (0, 1), BuildingBlock: MIFKUJ_clean_linker_0, # of connection points: 2
#     Edge 18, Type (0, 1), BuildingBlock: MIFKUJ_clean_linker_0, # of connection points: 2
#     Edge 19, Type (0, 1), BuildingBlock: MIFKUJ_clean_linker_0, # of connection points: 2
#     Edge 20, Type (0, 1), BuildingBlock: MIFKUJ_clean_linker_0, # of connection points: 2
#     Edge 21, Type (0, 1), BuildingBlock: MIFKUJ_clean_linker_0, # of connection points: 2
#     Edge 22, Type (0, 1), BuildingBlock: MIFKUJ_clean_linker_0, # of connection points: 2
#     Edge 23, Type (0, 1), BuildingBlock: MIFKUJ_clean_linker_0, # of connection points: 2
#     Edge 24, Type (0, 1), BuildingBlock: MIFKUJ_clean_linker_0, # of connection points: 2
#     Edge 25, Type (0, 1), BuildingBlock: MIFKUJ_clean_linker_0, # of connection points: 2
#     Edge 26, Type (0, 1), BuildingBlock: MIFKUJ_clean_linker_0, # of connection points: 2
#     Edge 27, Type (0, 1), BuildingBlock: MIFKUJ_clean_linker_0, # of connection points: 2
#     Edge 28, Type (0, 1), BuildingBlock: MIFKUJ_clean_linker_0, # of connection points: 2
#     Edge 29, Type (0, 1), BuildingBlock: MIFKUJ_clean_linker_0, # of connection points: 2
#     Edge 30, Type (0, 1), BuildingBlock: MIFKUJ_clean_linker_0, # of connection points: 2
#     Edge 31, Type (0, 1), BuildingBlock: MIFKUJ_clean_linker_0, # of connection points: 2
#     Edge 32, Type (0, 1), BuildingBlock: MIFKUJ_clean_linker_0, # of connection points: 2
#     Edge 33, Type (0, 1), BuildingBlock: MIFKUJ_clean_linker_0, # of connection points: 2
#     Edge 34, Type (0, 1), BuildingBlock: MIFKUJ_clean_linker_0, # of connection points: 2
#     Edge 35, Type (0, 1), BuildingBlock: MIFKUJ_clean_linker_0, # of connection points: 2
# Relax obj value: 0.065
# Max RMSD: 0.133
# Mean RMSD: 0.124
data_MOF--net-nom--node1-TATPOV_clean_sbu_0--node2-NAHDIM_clean_linker_0--edge1-MIFKUJ_clean_linker_0
_symmetry_space_group_name_H-M    P1
_symmetry_Int_Tables_number       1
_symmetry_cell_setting            triclinic
loop_
_symmetry_equiv_pos_as_xyz
'x, y, z'
_cell_length_a     69.34614
_cell_length_b     70.3703
_cell_length_c     84.63489
_cell_angle_alpha  90.594898
_cell_angle_beta   90.587152
_cell_angle_gamma 120.00574
loop_
_atom_site_label
_atom_site_type_symbol
_atom_site_fract_x
_atom_site_fract_y
_atom_site_fract_z
_atom_type_partial_charge
C0 C 0.11988 0.57169 0.24801 0.0
C1 C 0.1309 0.57913 0.26444 0.0
C2 C 0.09737 0.56874 0.28004 0.0
C3 C 0.08981 0.54613 0.28073 0.0
C4 C 0.06852 0.53147 0.28633 0.0
C5 C 0.05439 0.5395 0.29112 0.0
C6 C 0.06205 0.56228 0.29061 0.0
C7 C 0.08361 0.57662 0.2853 0.0
C8 C 0.061 0.50732 0.28693 0.0
C9 C 0.04733 0.57143 0.29535 0.0
C10 C 0.89792 0.45356 0.22055 0.0
C11 C 0.91286 0.46685 0.23387 0.0
C12 C 0.9448 0.47137 0.24937 0.0
C13 C 0.94647 0.48861 0.25896 0.0
C14 C 0.96247 0.4978 0.27118 0.0
C15 C 0.9766 0.4891 0.27428 0.0
C16 C 0.9749 0.47167 0.26475 0.0
C17 C 0.95913 0.46318 0.2523 0.0
C18 C 0.9642 0.51685 0.28077 0.0
C19 C 0.98964 0.46194 0.26775 0.0
C20 C 0.89797 0.43828 0.35979 0.0
C21 C 0.90481 0.4601 0.35602 0.0
C22 C 0.92744 0.47545 0.35409 0.0
C23 C 0.94347 0.46873 0.35584 0.0
C24 C 0.9367 0.44708 0.36056 0.0
C25 C 0.91398 0.43217 0.36266 0.0
C26 C 0.93415 0.49864 0.34966 0.0
C27 C 0.95337 0.43946 0.36276 0.0
C28 C 0.10664 0.59064 0.39622 0.0
C29 C 0.09245 0.56902 0.40471 0.0
C30 C 0.05398 0.55047 0.39491 0.0
C31 C 0.03941 0.55691 0.38879 0.0
C32 C 0.02276 0.54365 0.3777 0.0
C33 C 0.02045 0.52327 0.37294 0.0
C34 C 0.03426 0.51605 0.37987 0.0
C35 C 0.05092 0.52975 0.39082 0.0
C36 C 0.00812 0.55172 0.37068 0.0
C37 C 0.03174 0.49411 0.37538 0.0
C38 C 0.03126 0.52393 0.29593 0.0
C39 C 0.01522 0.51319 0.28397 0.0
C40 C 0.99309 0.49832 0.28753 0.0
C41 C 0.9867 0.49373 0.30347 0.0
C42 C 0.96474 0.47827 0.30745 0.0
C43 C 0.95832 0.47469 0.32314 0.0
C44 C 0.97358 0.48651 0.33547 0.0
C45 C 0.96695 0.48374 0.35144 0.0
C46 C 0.98258 0.4957 0.36341 0.0
C47 C 0.0048 0.51038 0.35985 0.0
C48 C 0.01175 0.51332 0.34396 0.0
C49 C 0.03401 0.5279 0.33999 0.0
C50 C 0.04056 0.53106 0.3243 0.0
C51 C 0.02503 0.52011 0.31196 0.0
C52 C 0.00261 0.50504 0.31571 0.0
C53 C 0.996 0.50153 0.33173 0.0
C54 C 0.84712 0.39834 0.34286 0.0
C55 C 0.85938 0.42123 0.35058 0.0
O56 O 0.11759 0.58346 0.27426 0.0
O57 O 0.07055 0.56447 0.40492 0.0
O58 O 0.87612 0.4227 0.36052 0.0
O59 O 0.92973 0.46231 0.23724 0.0
H60 H 0.13349 0.56611 0.26962 0.0
H61 H 0.10359 0.55631 0.24879 0.0
H62 H 0.11707 0.58453 0.24273 0.0
H63 H 0.13056 0.56841 0.24004 0.0
H64 H 0.10033 0.53975 0.27692 0.0
H65 H 0.08962 0.59408 0.2848 0.0
H66 H 0.04755 0.49827 0.27797 0.0
H67 H 0.07477 0.50399 0.28455 0.0
H68 H 0.05406 0.50078 0.2987 0.0
H69 H 0.0551 0.58925 0.293 0.0
H70 H 0.03112 0.56259 0.28885 0.0
H71 H 0.04382 0.56889 0.30816 0.0
H72 H 0.91884 0.48476 0.23311 0.0
H73 H 0.90054 0.46575 0.21111 0.0
H74 H 0.9068 0.44623 0.214 0.0
H75 H 0.8671 0.43439 0.2313 0.0
H76 H 0.93549 0.49514 0.25697 0.0
H77 H 0.95775 0.44991 0.24487 0.0
H78 H 0.95742 0.51116 0.2927 0.0
H79 H 0.98189 0.52995 0.28228 0.0
H80 H 0.95477 0.52402 0.2752 0.0
H81 H 0.98461 0.44694 0.26042 0.0
H82 H 0.00711 0.47424 0.26501 0.0
H83 H 0.98919 0.45778 0.28041 0.0
H84 H 0.86655 0.43294 0.34068 0.0
H85 H 0.89247 0.46509 0.35443 0.0
H86 H 0.90852 0.41538 0.36587 0.0
H87 H 0.93941 0.5013 0.33716 0.0
H88 H 0.92027 0.5021 0.35102 0.0
H89 H 0.94854 0.51056 0.35709 0.0
H90 H 0.94541 0.42205 0.36639 0.0
H91 H 0.96228 0.44129 0.35155 0.0
H92 H 0.96599 0.44988 0.37188 0.0
H93 H 0.09392 0.55607 0.39809 0.0
H94 H 0.12429 0.59463 0.39592 0.0
H95 H 0.10045 0.58919 0.38386 0.0
H96 H 0.10578 0.60429 0.40227 0.0
H97 H 0.04164 0.57274 0.39232 0.0
H98 H 0.06145 0.52422 0.39619 0.0
H99 H 0.01056 0.5535 0.35772 0.0
H100 H 0.99034 0.5395 0.37262 0.0
H101 H 0.01174 0.56776 0.37589 0.0
H102 H 0.04246 0.49005 0.3828 0.0
H103 H 0.01411 0.48096 0.37655 0.0
H104 H 0.03627 0.49427 0.36282 0.0
H105 H 0.01997 0.51671 0.27171 0.0
H106 H 0.95223 0.46885 0.29846 0.0
H107 H 0.94115 0.46269 0.32545 0.0
H108 H 0.97735 0.4937 0.37561 0.0
H109 H 0.04665 0.53709 0.34895 0.0
H110 H 0.0579 0.54246 0.32195 0.0
H111 H 0.83339 0.39669 0.33501 0.0
H112 H 0.85887 0.39572 0.33559 0.0
H113 H 0.84009 0.38538 0.35192 0.0
C114 C 0.38907 0.88439 0.51202 0.0
C115 C 0.4006 0.88631 0.528 0.0
C116 C 0.4393 0.91543 0.52362 0.0
C117 C 0.4609 0.91968 0.52073 0.0
C118 C 0.4783 0.94108 0.51796 0.0
C119 C 0.47398 0.9587 0.51826 0.0
C120 C 0.45224 0.95462 0.52139 0.0
C121 C 0.4351 0.93306 0.5239 0.0
C122 C 0.50125 0.94484 0.51456 0.0
C123 C 0.44709 0.97308 0.522 0.0
C124 C 0.58585 0.03382 0.6033 0.0
C125 C 0.57183 0.04207 0.59497 0.0
C126 C 0.56617 0.0422 0.56656 0.0
C127 C 0.54517 0.0406 0.5666 0.0
C128 C 0.53122 0.03309 0.55312 0.0
C129 C 0.53834 0.02676 0.53943 0.0
C130 C 0.55988 0.02916 0.53921 0.0
C131 C 0.57369 0.03731 0.55272 0.0
C132 C 0.50867 0.0314 0.55365 0.0
C133 C 0.56801 0.02228 0.52497 0.0
C134 C 0.57203 0.12571 0.46116 0.0
C135 C 0.54989 0.11695 0.46593 0.0
C136 C 0.53611 0.09424 0.46777 0.0
C137 C 0.5446 0.08003 0.46467 0.0
C138 C 0.56667 0.08876 0.45936 0.0
C139 C 0.58004 0.11152 0.45754 0.0
C140 C 0.51243 0.0854 0.473 0.0
C141 C 0.57616 0.07404 0.45578 0.0
C142 C 0.4231 0.92254 0.4132 0.0
C143 C 0.44802 0.93648 0.41005 0.0
C144 C 0.46706 0.97495 0.41778 0.0
C145 C 0.46009 0.98924 0.42337 0.0
C146 C 0.4725 0.00515 0.43507 0.0
C147 C 0.49258 0.00701 0.44092 0.0
C148 C 0.50065 0.99386 0.43421 0.0
C149 C 0.48769 0.97782 0.42277 0.0
C150 C 0.46357 0.01909 0.44182 0.0
C151 C 0.52243 0.99599 0.4397 0.0
C152 C 0.49204 0.98145 0.5152 0.0
C153 C 0.50627 0.99366 0.52773 0.0
C154 C 0.5226 0.01567 0.52595 0.0
C155 C 0.52432 0.0261 0.51141 0.0
C156 C 0.53935 0.0486 0.50951 0.0
C157 C 0.54115 0.05855 0.49501 0.0
C158 C 0.5283 0.04626 0.4818 0.0
C159 C 0.53029 0.05604 0.46691 0.0
C160 C 0.51829 0.043 0.45382 0.0
C161 C 0.50366 0.02049 0.45531 0.0
C162 C 0.5003 0.01075 0.47031 0.0
C163 C 0.48458 0.98844 0.4724 0.0
C164 C 0.48168 0.97887 0.4871 0.0
C165 C 0.49465 0.99112 0.50025 0.0
C166 C 0.51065 0.0136 0.4984 0.0
C167 C 0.51306 0.02357 0.4835 0.0
C168 C 0.60871 0.17337 0.47947 0.0
C169 C 0.58728 0.16406 0.46951 0.0
O170 O 0.42317 0.89422 0.52597 0.0
O171 O 0.45332 0.95809 0.40799 0.0
O172 O 0.58589 0.14763 0.45953 0.0
O173 O 0.57936 0.04794 0.57972 0.0
H174 H 0.39822 0.89766 0.53592 0.0
H175 H 0.39608 0.90072 0.50652 0.0
H176 H 0.39141 0.87331 0.5038 0.0
H177 H 0.37095 0.87781 0.51363 0.0
H178 H 0.46405 0.90607 0.52052 0.0
H179 H 0.41856 0.93027 0.52603 0.0
H180 H 0.51311 0.95552 0.52398 0.0
H181 H 0.50164 0.92926 0.5139 0.0
H182 H 0.50712 0.95351 0.5032 0.0
H183 H 0.42986 0.9675 0.52592 0.0
H184 H 0.45896 0.98632 0.53019 0.0
H185 H 0.44914 0.98025 0.5101 0.0
H186 H 0.55437 0.02803 0.59473 0.0
H187 H 0.58013 0.02907 0.6156 0.0
H188 H 0.58407 0.01916 0.59689 0.0
H189 H 0.60376 0.04664 0.60361 0.0
H190 H 0.5396 0.04506 0.57719 0.0
H191 H 0.59005 0.03887 0.55279 0.0
H192 H 0.4956 0.01388 0.55455 0.0
H193 H 0.50726 0.04055 0.56393 0.0
H194 H 0.50537 0.03779 0.54262 0.0
H195 H 0.58418 0.02305 0.52733 0.0
H196 H 0.55555 0.00526 0.5212 0.0
H197 H 0.57016 0.03321 0.51498 0.0
H198 H 0.57328 0.15746 0.47794 0.0
H199 H 0.54321 0.12774 0.46799 0.0
H200 H 0.59703 0.11841 0.45358 0.0
H201 H 0.51001 0.07704 0.48446 0.0
H202 H 0.50806 0.09851 0.47438 0.0
H203 H 0.50074 0.073 0.46425 0.0
H204 H 0.59384 0.08344 0.45219 0.0
H205 H 0.57496 0.06432 0.46635 0.0
H206 H 0.56624 0.06227 0.44612 0.0
H207 H 0.45691 0.93503 0.42061 0.0
H208 H 0.41844 0.90514 0.41499 0.0
H209 H 0.41899 0.92868 0.42407 0.0
H210 H 0.4131 0.92337 0.40317 0.0
H211 H 0.44428 0.98707 0.41918 0.0
H212 H 0.49338 0.96719 0.41796 0.0
H213 H 0.46037 0.01578 0.45461 0.0
H214 H 0.47617 0.03673 0.4407 0.0
H215 H 0.44789 0.0159 0.4358 0.0
H216 H 0.52823 0.98754 0.43148 0.0
H217 H 0.53551 0.01355 0.44083 0.0
H218 H 0.52029 0.98858 0.45152 0.0
H219 H 0.50466 0.98589 0.53903 0.0
H220 H 0.54978 0.05877 0.51924 0.0
H221 H 0.55298 0.07593 0.49423 0.0
H222 H 0.52042 0.05043 0.44233 0.0
H223 H 0.47419 0.97812 0.4627 0.0
H224 H 0.46935 0.96165 0.48799 0.0
H225 H 0.61021 0.18661 0.48756 0.0
H226 H 0.60843 0.16018 0.48674 0.0
H227 H 0.62354 0.18008 0.47181 0.0
C228 C 0.59141 0.47448 0.71707 0.0
C229 C 0.58236 0.45884 0.70269 0.0
C230 C 0.55278 0.46569 0.69281 0.0
C231 C 0.56684 0.48632 0.68625 0.0
C232 C 0.55805 0.49887 0.68 0.0
C233 C 0.53482 0.49069 0.68036 0.0
C234 C 0.52062 0.46979 0.68672 0.0
C235 C 0.52983 0.45753 0.69277 0.0
C236 C 0.5736 0.52105 0.67321 0.0
C237 C 0.4958 0.46063 0.68746 0.0
C238 C 0.4752 0.55928 0.76143 0.0
C239 C 0.477 0.54888 0.74655 0.0
C240 C 0.4972 0.55644 0.72211 0.0
C241 C 0.48149 0.53676 0.71449 0.0
C242 C 0.48683 0.52919 0.70081 0.0
C243 C 0.50844 0.54145 0.69457 0.0
C244 C 0.52403 0.56175 0.70173 0.0
C245 C 0.51811 0.56912 0.71538 0.0
C246 C 0.46953 0.50764 0.69333 0.0
C247 C 0.54707 0.57527 0.69522 0.0
C248 C 0.46414 0.57358 0.60317 0.0
C249 C 0.45 0.55566 0.61244 0.0
C250 C 0.45624 0.54037 0.61713 0.0
C251 C 0.47733 0.54353 0.61283 0.0
C252 C 0.49131 0.56131 0.60312 0.0
C253 C 0.48431 0.5759 0.59819 0.0
C254 C 0.44037 0.521 0.62678 0.0
C255 C 0.51381 0.56513 0.59818 0.0
C256 C 0.46842 0.38849 0.5758 0.0
C257 C 0.48492 0.41317 0.57594 0.0
C258 C 0.47753 0.44234 0.58318 0.0
C259 C 0.46008 0.44296 0.59073 0.0
C260 C 0.46405 0.4609 0.6004 0.0
C261 C 0.48596 0.47906 0.60193 0.0
C262 C 0.50347 0.47908 0.59342 0.0
C263 C 0.49914 0.46045 0.5844 0.0
C264 C 0.44487 0.46019 0.60919 0.0
C265 C 0.52677 0.4986 0.59401 0.0
C266 C 0.52554 0.50446 0.67479 0.0
C267 C 0.52402 0.51856 0.68579 0.0
C268 C 0.51496 0.53165 0.68155 0.0
C269 C 0.50868 0.53189 0.66566 0.0
C270 C 0.50129 0.54621 0.66074 0.0
C271 C 0.49427 0.54568 0.64519 0.0
C272 C 0.49341 0.53012 0.63418 0.0
C273 C 0.48499 0.52849 0.61862 0.0
C274 C 0.48355 0.51223 0.60824 0.0
C275 C 0.49045 0.49751 0.61289 0.0
C276 C 0.49975 0.49945 0.6282 0.0
C277 C 0.50742 0.48532 0.63319 0.0
C278 C 0.51656 0.4874 0.64825 0.0
C279 C 0.51737 0.50295 0.65918 0.0
C280 C 0.50928 0.51703 0.65454 0.0
C281 C 0.501 0.51566 0.63891 0.0
C282 C 0.4635 0.62287 0.60784 0.0
C283 C 0.44937 0.59787 0.60852 0.0
O284 O 0.56046 0.45316 0.69944 0.0
O285 O 0.47301 0.4241 0.57471 0.0
O286 O 0.4587 0.5888 0.59876 0.0
O287 O 0.49289 0.56309 0.73614 0.0
H288 H 0.5928 0.46688 0.69226 0.0
H289 H 0.59136 0.48992 0.71467 0.0
H290 H 0.58102 0.46675 0.72757 0.0
H291 H 0.60885 0.47876 0.71981 0.0
H292 H 0.58464 0.49286 0.68605 0.0
H293 H 0.51912 0.44159 0.69782 0.0
H294 H 0.57279 0.53401 0.68027 0.0
H295 H 0.59115 0.5247 0.67312 0.0
H296 H 0.56826 0.5218 0.66092 0.0
H297 H 0.48692 0.4436 0.69193 0.0
H298 H 0.49234 0.47119 0.6954 0.0
H299 H 0.48897 0.46074 0.67557 0.0
H300 H 0.47785 0.53358 0.74822 0.0
H301 H 0.44286 0.55441 0.76005 0.0
H302 H 0.48085 0.55221 0.7711 0.0
H303 H 0.4905 0.57607 0.76216 0.0
H304 H 0.46505 0.52698 0.71931 0.0
H305 H 0.53009 0.58438 0.72119 0.0
H306 H 0.46615 0.51029 0.68094 0.0
H307 H 0.47588 0.49596 0.69302 0.0
H308 H 0.45358 0.49997 0.69978 0.0
H309 H 0.55658 0.59158 0.70121 0.0
H310 H 0.55638 0.56634 0.69673 0.0
H311 H 0.54599 0.57765 0.68235 0.0
H312 H 0.44978 0.59328 0.62104 0.0
H313 H 0.43405 0.55355 0.61587 0.0
H314 H 0.49491 0.58965 0.59084 0.0
H315 H 0.44664 0.52343 0.63918 0.0
H316 H 0.42338 0.51888 0.62682 0.0
H317 H 0.4393 0.50568 0.62213 0.0
H318 H 0.52344 0.58073 0.59174 0.0
H319 H 0.52367 0.5655 0.60872 0.0
H320 H 0.51159 0.55138 0.59037 0.0
H321 H 0.49421 0.41741 0.58747 0.0
H322 H 0.47731 0.37915 0.5774 0.0
H323 H 0.45657 0.38442 0.58564 0.0
H324 H 0.4588 0.38324 0.56446 0.0
H325 H 0.44342 0.42894 0.58948 0.0
H326 H 0.51253 0.46009 0.57817 0.0
H327 H 0.44934 0.46423 0.6219 0.0
H328 H 0.4412 0.47266 0.60435 0.0
H329 H 0.4295 0.44386 0.60816 0.0
H330 H 0.53711 0.49791 0.58432 0.0
H331 H 0.52636 0.51414 0.59317 0.0
H332 H 0.53493 0.49895 0.60543 0.0
H333 H 0.52894 0.51855 0.698 0.0
H334 H 0.50106 0.5581 0.66885 0.0
H335 H 0.48901 0.55728 0.64202 0.0
H336 H 0.47654 0.51072 0.59646 0.0
H337 H 0.50658 0.47255 0.62549 0.0
H338 H 0.52244 0.47626 0.65136 0.0
H339 H 0.46369 0.62856 0.59561 0.0
H340 H 0.45683 0.63071 0.61588 0.0
H341 H 0.48089 0.62825 0.61164 0.0
C342 C 0.13532 0.57438 0.89344 0.0
C343 C 0.14236 0.56797 0.87808 0.0
C344 C 0.10557 0.54037 0.86726 0.0
C345 C 0.0991 0.5551 0.86158 0.0
C346 C 0.07735 0.54748 0.85581 0.0
C347 C 0.06167 0.52475 0.85593 0.0
C348 C 0.06817 0.50989 0.86158 0.0
C349 C 0.09015 0.51791 0.86695 0.0
C350 C 0.07106 0.56376 0.84967 0.0
C351 C 0.05182 0.48558 0.86217 0.0
C352 C 0.95616 0.551 0.9247 0.0
C353 C 0.95801 0.53151 0.91849 0.0
C354 C 0.96419 0.52382 0.89157 0.0
C355 C 0.9697 0.50747 0.89429 0.0
C356 C 0.98126 0.50254 0.88295 0.0
C357 C 0.98801 0.51472 0.86886 0.0
C358 C 0.98253 0.53133 0.86619 0.0
C359 C 0.9701 0.53519 0.87742 0.0
C360 C 0.98637 0.48444 0.88613 0.0
C361 C 0.99014 0.54539 0.85168 0.0
C362 C 0.89961 0.44873 0.78618 0.0
C363 C 0.90641 0.43437 0.79202 0.0
C364 C 0.92904 0.44167 0.79495 0.0
C365 C 0.94512 0.46371 0.79186 0.0
C366 C 0.93838 0.47785 0.78515 0.0
C367 C 0.91565 0.47007 0.78227 0.0
C368 C 0.93575 0.42603 0.80173 0.0
C369 C 0.95513 0.50136 0.78154 0.0
C370 C 0.10799 0.48645 0.76086 0.0
C371 C 0.09401 0.496 0.75434 0.0
C372 C 0.05449 0.47887 0.75942 0.0
C373 C 0.03863 0.45949 0.76641 0.0
C374 C 0.02178 0.45909 0.77569 0.0
C375 C 0.02056 0.47847 0.77761 0.0
C376 C 0.03537 0.49757 0.76934 0.0
C377 C 0.05232 0.49762 0.76042 0.0
C378 C 0.00602 0.43834 0.7841 0.0
C379 C 0.03396 0.51825 0.77057 0.0
C380 C 0.0383 0.51659 0.85065 0.0
C381 C 0.02403 0.51853 0.86124 0.0
C382 C 0.00169 0.51083 0.85727 0.0
C383 C 0.99313 0.50057 0.84237 0.0
C384 C 0.97054 0.49178 0.83821 0.0
C385 C 0.96249 0.48249 0.8233 0.0
C386 C 0.97669 0.48145 0.81199 0.0
C387 C 0.96875 0.47239 0.79669 0.0
C388 C 0.98332 0.47163 0.78572 0.0
C389 C 0.00573 0.47957 0.78968 0.0
C390 C 0.01393 0.48854 0.80496 0.0
C391 C 0.03633 0.49647 0.8094 0.0
C392 C 0.04436 0.50569 0.82432 0.0
C393 C 0.03027 0.50716 0.83547 0.0
C394 C 0.00759 0.49909 0.83133 0.0
C395 C 0.99939 0.48966 0.81609 0.0
C396 C 0.85434 0.44474 0.80342 0.0
C397 C 0.86083 0.4299 0.79436 0.0
O398 O 0.12631 0.54696 0.87323 0.0
O399 O 0.07212 0.47928 0.75228 0.0
O400 O 0.87778 0.44249 0.78404 0.0
O401 O 0.95328 0.52905 0.90242 0.0
H402 H 0.14465 0.57986 0.86872 0.0
H403 H 0.11946 0.57438 0.89159 0.0
H404 H 0.13294 0.56258 0.90289 0.0
H405 H 0.14818 0.59114 0.89743 0.0
H406 H 0.11082 0.57253 0.86159 0.0
H407 H 0.0953 0.50667 0.87131 0.0
H408 H 0.05897 0.56455 0.85776 0.0
H409 H 0.08572 0.58051 0.84873 0.0
H410 H 0.06283 0.55833 0.83786 0.0
H411 H 0.059 0.47646 0.86812 0.0
H412 H 0.03665 0.48262 0.86852 0.0
H413 H 0.0466 0.47885 0.84997 0.0
H414 H 0.97556 0.5355 0.92066 0.0
H415 H 0.9606 0.55391 0.9375 0.0
H416 H 0.96781 0.56605 0.91828 0.0
H417 H 0.93894 0.54798 0.92292 0.0
H418 H 0.96476 0.49842 0.90518 0.0
H419 H 0.96567 0.54774 0.87548 0.0
H420 H 0.98271 0.4738 0.87545 0.0
H421 H 0.00435 0.49176 0.88908 0.0
H422 H 0.97666 0.47409 0.89614 0.0
H423 H 0.98854 0.56026 0.85301 0.0
H424 H 0.00777 0.55062 0.84913 0.0
H425 H 0.97981 0.53576 0.84132 0.0
H426 H 0.86644 0.42224 0.80338 0.0
H427 H 0.8941 0.41747 0.79429 0.0
H428 H 0.91023 0.48088 0.77746 0.0
H429 H 0.94326 0.43191 0.81369 0.0
H430 H 0.9214 0.40909 0.80264 0.0
H431 H 0.94858 0.42562 0.79423 0.0
H432 H 0.94732 0.50996 0.77568 0.0
H433 H 0.96347 0.51034 0.79267 0.0
H434 H 0.9682 0.50192 0.77376 0.0
H435 H 0.09524 0.5081 0.76349 0.0
H436 H 0.12577 0.49948 0.76204 0.0
H437 H 0.10198 0.47961 0.77274 0.0
H438 H 0.10666 0.47303 0.75308 0.0
H439 H 0.04026 0.445 0.76529 0.0
H440 H 0.06416 0.5124 0.75448 0.0
H441 H 0.00791 0.44141 0.79708 0.0
H442 H 0.98856 0.43332 0.78079 0.0
H443 H 0.00901 0.42459 0.78124 0.0
H444 H 0.04402 0.53028 0.76143 0.0
H445 H 0.01639 0.51434 0.76934 0.0
H446 H 0.04025 0.52605 0.78239 0.0
H447 H 0.03048 0.5263 0.87272 0.0
H448 H 0.95883 0.49209 0.84643 0.0
H449 H 0.94499 0.47621 0.82074 0.0
H450 H 0.97715 0.46479 0.77398 0.0
H451 H 0.048 0.49574 0.80137 0.0
H452 H 0.06179 0.5117 0.82699 0.0
H453 H 0.84056 0.4349 0.81161 0.0
H454 H 0.86886 0.45716 0.81051 0.0
H455 H 0.84901 0.45349 0.79518 0.0
C456 C 0.4549 0.89089 0.92015 0.0
C457 C 0.45318 0.88163 0.93674 0.0
C458 C 0.47953 0.9158 0.95089 0.0
C459 C 0.46515 0.92435 0.95254 0.0
C460 C 0.47334 0.94618 0.9575 0.0
C461 C 0.49639 0.95983 0.96071 0.0
C462 C 0.51085 0.95119 0.95935 0.0
C463 C 0.50213 0.92915 0.95467 0.0
C464 C 0.45739 0.9548 0.95906 0.0
C465 C 0.53555 0.96535 0.96249 0.0
C466 C 0.5647 0.10076 0.88183 0.0
C467 C 0.56392 0.08802 0.89594 0.0
C468 C 0.53694 0.06115 0.91397 0.0
C469 C 0.55301 0.06095 0.92413 0.0
C470 C 0.54664 0.04758 0.93743 0.0
C471 C 0.52376 0.03449 0.94088 0.0
C472 C 0.50756 0.03492 0.93083 0.0
C473 C 0.51439 0.04817 0.91743 0.0
C474 C 0.56442 0.04726 0.94771 0.0
C475 C 0.48304 0.02132 0.93421 0.0
C476 C 0.54234 0.1191 0.02436 0.0
C477 C 0.55955 0.11481 0.0208 0.0
C478 C 0.5553 0.09315 0.01934 0.0
C479 C 0.53332 0.0755 0.02118 0.0
C480 C 0.51621 0.07983 0.02551 0.0
C481 C 0.52106 0.10164 0.02726 0.0
C482 C 0.57415 0.08915 0.01538 0.0
C483 C 0.49265 0.06143 0.02775 0.0
C484 C 0.53036 0.93367 0.06898 0.0
C485 C 0.51335 0.94069 0.07298 0.0
C486 C 0.52318 0.97705 0.06423 0.0
C487 C 0.5429 0.9939 0.05817 0.0
C488 C 0.54245 0.00752 0.04637 0.0
C489 C 0.52171 0.00456 0.04095 0.0
C490 C 0.50175 0.98845 0.04789 0.0
C491 C 0.50269 0.97462 0.05934 0.0
C492 C 0.5641 0.02465 0.03939 0.0
C493 C 0.47944 0.98551 0.04295 0.0
C494 C 0.50536 0.98343 0.96459 0.0
C495 C 0.50987 0.99771 0.95204 0.0
C496 C 0.51693 0.01987 0.95472 0.0
C497 C 0.51881 0.02796 0.97035 0.0
C498 C 0.52413 0.04972 0.97344 0.0
C499 C 0.52657 0.05769 0.98888 0.0
C500 C 0.52441 0.04438 0.00182 0.0
C501 C 0.52787 0.05262 0.01754 0.0
C502 C 0.52627 0.03912 0.03007 0.0
C503 C 0.52099 0.01738 0.02735 0.0
C504 C 0.51663 0.00861 0.01175 0.0
C505 C 0.51052 0.98659 0.00859 0.0
C506 C 0.50621 0.97813 0.99321 0.0
C507 C 0.50888 0.9916 0.98032 0.0
C508 C 0.51538 0.01392 0.9832 0.0
C509 C 0.5187 0.02228 0.99894 0.0
C510 C 0.54726 0.16793 0.00874 0.0
C511 C 0.55968 0.15672 0.01516 0.0
O512 O 0.47244 0.895 0.94551 0.0
O513 O 0.52431 0.96334 0.07482 0.0
O514 O 0.54565 0.13981 0.02491 0.0
O515 O 0.54247 0.07346 0.90073 0.0
H516 H 0.43853 0.88057 0.94279 0.0
H517 H 0.45671 0.90747 0.92087 0.0
H518 H 0.46956 0.89215 0.91398 0.0
H519 H 0.43961 0.88016 0.91302 0.0
H520 H 0.44755 0.91421 0.94992 0.0
H521 H 0.51308 0.9224 0.95345 0.0
H522 H 0.46111 0.96739 0.94997 0.0
H523 H 0.43973 0.94164 0.95755 0.0
H524 H 0.4596 0.96284 0.97082 0.0
H525 H 0.54465 0.95631 0.96045 0.0
H526 H 0.5425 0.97985 0.95473 0.0
H527 H 0.53859 0.97154 0.97491 0.0
H528 H 0.57479 0.08055 0.89532 0.0
H529 H 0.5724 0.0955 0.87234 0.0
H530 H 0.54747 0.09194 0.87638 0.0
H531 H 0.57958 0.13315 0.89048 0.0
H532 H 0.57055 0.07101 0.92169 0.0
H533 H 0.50212 0.04847 0.90957 0.0
H534 H 0.56506 0.05483 0.95941 0.0
H535 H 0.56037 0.03009 0.9497 0.0
H536 H 0.58118 0.05639 0.94242 0.0
H537 H 0.47277 0.02549 0.92639 0.0
H538 H 0.47757 0.00367 0.93241 0.0
H539 H 0.47992 0.02371 0.94671 0.0
H540 H 0.56411 0.15005 0.00468 0.0
H541 H 0.57626 0.12836 0.01911 0.0
H542 H 0.508 0.10518 0.03026 0.0
H543 H 0.57212 0.08308 0.00298 0.0
H544 H 0.59066 0.1043 0.0167 0.0
H545 H 0.57383 0.07634 0.02312 0.0
H546 H 0.48115 0.06758 0.03076 0.0
H547 H 0.48643 0.05122 0.01678 0.0
H548 H 0.49234 0.05067 0.03736 0.0
H549 H 0.50104 0.93523 0.06298 0.0
H550 H 0.52195 0.91558 0.06719 0.0
H551 H 0.53893 0.94157 0.05789 0.0
H552 H 0.54307 0.93866 0.07862 0.0
H553 H 0.55862 0.99578 0.06228 0.0
H554 H 0.4875 0.96189 0.06448 0.0
H555 H 0.56351 0.02241 0.02635 0.0
H556 H 0.56655 0.04123 0.0419 0.0
H557 H 0.57867 0.02393 0.04424 0.0
H558 H 0.46609 0.97491 0.05119 0.0
H559 H 0.48032 0.00169 0.04235 0.0
H560 H 0.47483 0.97782 0.03097 0.0
H561 H 0.508 0.9915 0.93999 0.0
H562 H 0.52635 0.06079 0.96395 0.0
H563 H 0.53055 0.07454 0.99051 0.0
H564 H 0.52948 0.04571 0.04206 0.0
H565 H 0.50878 0.97555 0.01798 0.0
H566 H 0.50126 0.961 0.99152 0.0
H567 H 0.55816 0.18152 0.00083 0.0
H568 H 0.53233 0.15587 0.00181 0.0
H569 H 0.54173 0.17461 0.01854 0.0
C570 C 0.55566 0.42831 0.0906 0.0
C571 C 0.57143 0.43462 0.105 0.0
C572 C 0.56633 0.46408 0.11659 0.0
C573 C 0.54519 0.45055 0.12297 0.0
C574 C 0.53279 0.4596 0.12919 0.0
C575 C 0.54161 0.48258 0.12892 0.0
C576 C 0.56309 0.49626 0.12284 0.0
C577 C 0.57525 0.4868 0.11692 0.0
C578 C 0.51009 0.44458 0.13583 0.0
C579 C 0.57298 0.52083 0.12226 0.0
C580 C 0.41516 0.4671 0.05758 0.0
C581 C 0.43647 0.48626 0.0647 0.0
C582 C 0.44982 0.49177 0.09197 0.0
C583 C 0.47229 0.5072 0.08954 0.0
C584 C 0.48857 0.51108 0.1011 0.0
C585 C 0.48224 0.49887 0.11518 0.0
C586 C 0.45952 0.4834 0.11766 0.0
C587 C 0.44354 0.48049 0.10615 0.0
C588 C 0.51252 0.52806 0.09818 0.0
C589 C 0.45207 0.46948 0.13224 0.0
C590 C 0.4769 0.57915 0.19451 0.0
C591 C 0.49888 0.58961 0.18915 0.0
C592 C 0.51016 0.57788 0.18714 0.0
C593 C 0.49932 0.5553 0.19075 0.0
C594 C 0.47763 0.54504 0.19702 0.0
C595 C 0.46674 0.5572 0.19893 0.0
C596 C 0.53349 0.58947 0.1808 0.0
C597 C 0.46574 0.52108 0.20118 0.0
C598 C 0.62418 0.51378 0.23461 0.0
C599 C 0.59953 0.50589 0.23722 0.0
C600 C 0.58092 0.52539 0.2278 0.0
C601 C 0.58665 0.54547 0.22099 0.0
C602 C 0.57188 0.54748 0.21063 0.0
C603 C 0.55059 0.52903 0.20748 0.0
C604 C 0.54408 0.5091 0.21536 0.0
C605 C 0.55944 0.50741 0.22533 0.0
C606 C 0.57932 0.56909 0.20265 0.0
C607 C 0.52116 0.48938 0.2129 0.0
C608 C 0.52789 0.49221 0.13407 0.0
C609 C 0.51234 0.4918 0.12325 0.0
C610 C 0.49944 0.50136 0.12693 0.0
C611 C 0.5024 0.51208 0.14172 0.0
C612 C 0.49071 0.52304 0.14546 0.0
C613 C 0.49331 0.53303 0.16021 0.0
C614 C 0.50758 0.53232 0.17183 0.0
C615 C 0.51015 0.54223 0.18693 0.0
C616 C 0.52396 0.54064 0.19837 0.0
C617 C 0.53595 0.53 0.19496 0.0
C618 C 0.53429 0.52079 0.17971 0.0
C619 C 0.54694 0.51091 0.17561 0.0
C620 C 0.54494 0.5016 0.16068 0.0
C621 C 0.53021 0.5018 0.14924 0.0
C622 C 0.51746 0.51184 0.15305 0.0
C623 C 0.51974 0.52161 0.16822 0.0
C624 C 0.44493 0.58938 0.17244 0.0
C625 C 0.4642 0.6032 0.18402 0.0
O626 O 0.57859 0.45607 0.10982 0.0
O627 O 0.59651 0.52393 0.23666 0.0
O628 O 0.46514 0.58981 0.19557 0.0
O629 O 0.43384 0.48723 0.08083 0.0
H630 H 0.5627 0.42331 0.11485 0.0
H631 H 0.54049 0.42899 0.09363 0.0
H632 H 0.56405 0.43972 0.08074 0.0
H633 H 0.55033 0.41129 0.08654 0.0
H634 H 0.53816 0.43294 0.12306 0.0
H635 H 0.59162 0.49712 0.11208 0.0
H636 H 0.49713 0.44472 0.12809 0.0
H637 H 0.50655 0.4274 0.13673 0.0
H638 H 0.50875 0.45056 0.14774 0.0
H639 H 0.58955 0.5291 0.11664 0.0
H640 H 0.56162 0.52478 0.11555 0.0
H641 H 0.57479 0.52762 0.13442 0.0
H642 H 0.4502 0.48275 0.06236 0.0
H643 H 0.41697 0.46552 0.04467 0.0
H644 H 0.41176 0.45155 0.06319 0.0
H645 H 0.40072 0.46954 0.05954 0.0
H646 H 0.4771 0.51629 0.07866 0.0
H647 H 0.4261 0.46871 0.10789 0.0
H648 H 0.52014 0.53861 0.10887 0.0
H649 H 0.52211 0.51968 0.09556 0.0
H650 H 0.51413 0.53865 0.08805 0.0
H651 H 0.4346 0.45578 0.13107 0.0
H652 H 0.46304 0.46251 0.13469 0.0
H653 H 0.4532 0.4798 0.1426 0.0
H654 H 0.47962 0.6108 0.17695 0.0
H655 H 0.50729 0.60692 0.18652 0.0
H656 H 0.44992 0.54939 0.20335 0.0
H657 H 0.53371 0.58197 0.16925 0.0
H658 H 0.53996 0.60728 0.17917 0.0
H659 H 0.54488 0.58741 0.18901 0.0
H660 H 0.4494 0.51581 0.20672 0.0
H661 H 0.46295 0.51098 0.19032 0.0
H662 H 0.47625 0.5178 0.20943 0.0
H663 H 0.58998 0.49398 0.22746 0.0
H664 H 0.6272 0.49969 0.2344 0.0
H665 H 0.62932 0.52216 0.22309 0.0
H666 H 0.63464 0.52554 0.24415 0.0
H667 H 0.60315 0.55935 0.22328 0.0
H668 H 0.55471 0.49207 0.23112 0.0
H669 H 0.57721 0.56657 0.18963 0.0
H670 H 0.56878 0.57595 0.20656 0.0
H671 H 0.597 0.58131 0.20545 0.0
H672 H 0.51724 0.47683 0.22207 0.0
H673 H 0.50828 0.49436 0.21305 0.0
H674 H 0.5202 0.48172 0.20117 0.0
H675 H 0.51018 0.48383 0.1118 0.0
H676 H 0.47944 0.52402 0.137 0.0
H677 H 0.48381 0.54115 0.16241 0.0
H678 H 0.52566 0.54807 0.20997 0.0
H679 H 0.55859 0.51027 0.1839 0.0
H680 H 0.55498 0.49412 0.15823 0.0
H681 H 0.4289 0.5804 0.17872 0.0
H682 H 0.44354 0.60002 0.16341 0.0
H683 H 0.448 0.57716 0.16627 0.0
Zn684 Zn 0.64443 0.45203 0.41438 0.0
Zn685 Zn 0.62373 0.40766 0.41303 0.0
O686 O 0.65695 0.41779 0.41136 0.0
O687 O 0.67417 0.45385 0.41042 0.0
O688 O 0.61001 0.37476 0.41423 0.0
O689 O 0.63313 0.45118 0.43644 0.0
O690 O 0.61392 0.41519 0.43387 0.0
C691 C 0.67478 0.43616 0.40999 0.0
C692 C 0.61202 0.43152 0.38847 0.0
O693 O 0.61041 0.41361 0.3931 0.0
O694 O 0.62454 0.44941 0.39585 0.0
C695 C 0.61673 0.36434 0.40566 0.0
O696 O 0.63174 0.37502 0.39491 0.0
C697 C 0.6191 0.43265 0.44179 0.0
Zn698 Zn 0.20349 0.6443 0.58834 0.0
Zn699 Zn 0.22654 0.62306 0.58461 0.0
O700 O 0.25002 0.6558 0.58274 0.0
O701 O 0.23182 0.67356 0.5867 0.0
O702 O 0.24569 0.60898 0.58482 0.0
O703 O 0.19243 0.63074 0.60958 0.0
O704 O 0.20988 0.61227 0.60558 0.0
C705 C 0.24982 0.67378 0.58384 0.0
C706 C 0.19092 0.61513 0.56034 0.0
O707 O 0.20619 0.61133 0.565 0.0
O708 O 0.1867 0.628 0.56826 0.0
C709 C 0.25142 0.60163 0.57307 0.0
O710 O 0.24397 0.60221 0.55885 0.0
C711 C 0.19743 0.61662 0.61405 0.0
Zn712 Zn 0.56089 0.21057 0.73452 0.0
Zn713 Zn 0.60642 0.2314 0.73543 0.0
O714 O 0.59898 0.25589 0.73285 0.0
O715 O 0.56243 0.24 0.73205 0.0
O716 O 0.63986 0.24852 0.73757 0.0
O717 O 0.56057 0.19921 0.75654 0.0
O718 O 0.59713 0.21482 0.75625 0.0
C719 C 0.58138 0.25721 0.73167 0.0
C720 C 0.58104 0.1974 0.70949 0.0
O721 O 0.59945 0.21161 0.71592 0.0
O722 O 0.56272 0.1939 0.71521 0.0
C723 C 0.65128 0.26476 0.72875 0.0
O724 O 0.64113 0.26917 0.71739 0.0
C725 C 0.57871 0.20314 0.76313 0.0
Zn726 Zn 0.39034 0.57625 0.91293 0.0
Zn727 Zn 0.40732 0.62033 0.91431 0.0
O728 O 0.37357 0.60719 0.91168 0.0
O729 O 0.35896 0.57135 0.91062 0.0
O730 O 0.4184 0.65287 0.91584 0.0
O731 O 0.40425 0.57806 0.93421 0.0
O732 O 0.41744 0.61382 0.93563 0.0
C733 C 0.35659 0.58806 0.91033 0.0
C734 C 0.42144 0.59963 0.88816 0.0
O735 O 0.4224 0.61661 0.89451 0.0
O736 O 0.4091 0.58082 0.89384 0.0
C737 C 0.40874 0.6611 0.90795 0.0
O738 O 0.39229 0.64843 0.8982 0.0
C739 C 0.41508 0.59623 0.94158 0.0
Zn740 Zn 0.81059 0.43484 0.06828 0.0
Zn741 Zn 0.7877 0.39085 0.06604 0.0
O742 O 0.76395 0.40006 0.06634 0.0
O743 O 0.78213 0.43611 0.06601 0.0
O744 O 0.76837 0.3581 0.06375 0.0
O745 O 0.82828 0.43553 0.04934 0.0
O746 O 0.8073 0.39966 0.04624 0.0
C747 C 0.76388 0.4181 0.06609 0.0
C748 C 0.8159 0.4134 0.09562 0.0
O749 O 0.80391 0.39585 0.08756 0.0
O750 O 0.82066 0.43185 0.09003 0.0
C751 C 0.75336 0.34811 0.07391 0.0
O752 O 0.75222 0.3593 0.08604 0.0
C753 C 0.82304 0.41804 0.04164 0.0
Zn754 Zn 0.37582 0.81883 0.242 0.0
Zn755 Zn 0.39569 0.7942 0.24018 0.0
O756 O 0.36202 0.7723 0.24122 0.0
O757 O 0.34532 0.79188 0.24196 0.0
O758 O 0.40755 0.77334 0.23819 0.0
O759 O 0.39063 0.83328 0.22161 0.0
O760 O 0.40623 0.81271 0.22012 0.0
C761 C 0.34424 0.77339 0.24184 0.0
C762 C 0.40581 0.82528 0.26835 0.0
O763 O 0.40971 0.81182 0.26081 0.0
O764 O 0.39198 0.83043 0.26291 0.0
C765 C 0.42615 0.77791 0.23234 0.0
O766 O 0.43963 0.79795 0.22756 0.0
C767 C 0.40298 0.82761 0.21447 0.0
H768 H 0.14278 0.62297 0.26825 0.0
H769 H 0.17923 0.65532 0.26452 0.0
H770 H 0.20615 0.61376 0.25182 0.0
H771 H 0.1699 0.58124 0.25641 0.0
H772 H 0.23492 0.646 0.26968 0.0
H773 H 0.19103 0.64113 0.22374 0.0
H774 H 0.15852 0.63851 0.20953 0.0
H775 H 0.17174 0.69977 0.23052 0.0
H776 H 0.20416 0.70262 0.24502 0.0
H777 H 0.33428 0.73089 0.23676 0.0
H778 H 0.29828 0.69751 0.23993 0.0
H779 H 0.26907 0.73672 0.25364 0.0
H780 H 0.30472 0.77008 0.24996 0.0
H781 H 0.24174 0.70505 0.23464 0.0
H782 H 0.28495 0.70943 0.28109 0.0
H783 H 0.31744 0.71211 0.29537 0.0
H784 H 0.30555 0.65186 0.27335 0.0
H785 H 0.27314 0.64896 0.25879 0.0
C786 C 0.15652 0.62068 0.26493 0.0
C787 C 0.15357 0.5995 0.26291 0.0
C788 C 0.17732 0.63922 0.2626 0.0
C789 C 0.19539 0.63702 0.25764 0.0
C790 C 0.1925 0.6159 0.25567 0.0
C791 C 0.17181 0.59735 0.25828 0.0
C792 C 0.21727 0.65668 0.2544 0.0
C793 C 0.23644 0.65876 0.26184 0.0
C794 C 0.21925 0.67357 0.24441 0.0
C795 C 0.19991 0.67199 0.23555 0.0
C796 C 0.18693 0.65398 0.22539 0.0
C797 C 0.16852 0.65246 0.21728 0.0
C798 C 0.16304 0.66894 0.21915 0.0
C799 C 0.17599 0.68701 0.22909 0.0
C800 C 0.19439 0.6886 0.23724 0.0
C801 C 0.32016 0.73239 0.24038 0.0
C802 C 0.32237 0.75313 0.24315 0.0
C803 C 0.29961 0.71329 0.24228 0.0
C804 C 0.28104 0.71458 0.24729 0.0
C805 C 0.28316 0.73529 0.24978 0.0
C806 C 0.30358 0.75437 0.24769 0.0
C807 C 0.25935 0.69444 0.25 0.0
C808 C 0.24022 0.69225 0.24244 0.0
C809 C 0.25741 0.67746 0.25988 0.0
C810 C 0.27676 0.67909 0.26875 0.0
C811 C 0.28935 0.69683 0.27923 0.0
C812 C 0.30773 0.69837 0.28738 0.0
C813 C 0.31358 0.68219 0.28524 0.0
C814 C 0.30101 0.66439 0.27498 0.0
C815 C 0.28263 0.66278 0.26679 0.0
H816 H 0.32783 0.68343 0.29155 0.0
H817 H 0.14878 0.66773 0.21287 0.0
H818 H 0.56519 0.18641 0.4758 0.0
H819 H 0.56755 0.21784 0.46197 0.0
H820 H 0.61211 0.21441 0.42834 0.0
H821 H 0.61 0.1831 0.44232 0.0
H822 H 0.628 0.25534 0.43907 0.0
H823 H 0.55837 0.19923 0.41774 0.0
H824 H 0.52018 0.16763 0.41839 0.0
H825 H 0.49899 0.20611 0.44487 0.0
H826 H 0.53715 0.23787 0.44459 0.0
H827 H 0.63069 0.33838 0.39134 0.0
H828 H 0.62284 0.3019 0.39921 0.0
H829 H 0.57999 0.30166 0.43587 0.0
H830 H 0.58753 0.33804 0.42799 0.0
H831 H 0.56283 0.26133 0.42136 0.0
H832 H 0.63304 0.31611 0.44454 0.0
H833 H 0.67119 0.34782 0.4439 0.0
H834 H 0.69114 0.31143 0.41381 0.0
H835 H 0.65299 0.27958 0.41409 0.0
C836 C 0.57518 0.19214 0.4653 0.0
C837 C 0.58712 0.18209 0.45998 0.0
C838 C 0.57649 0.21006 0.45738 0.0
C839 C 0.58978 0.21832 0.44398 0.0
C840 C 0.60165 0.20825 0.43859 0.0
C841 C 0.60034 0.19031 0.44652 0.0
C842 C 0.59228 0.23825 0.43619 0.0
C843 C 0.61376 0.25647 0.43492 0.0
C844 C 0.57368 0.23994 0.43109 0.0
C845 C 0.55069 0.22088 0.43126 0.0
C846 C 0.54562 0.20091 0.42381 0.0
C847 C 0.52396 0.18297 0.42409 0.0
C848 C 0.50718 0.18484 0.43169 0.0
C849 C 0.51201 0.20468 0.439 0.0
C850 C 0.53365 0.22266 0.43877 0.0
C851 C 0.61935 0.33047 0.40094 0.0
C852 C 0.60991 0.34124 0.40914 0.0
C853 C 0.61494 0.30963 0.40545 0.0
C854 C 0.60111 0.29921 0.41829 0.0
C855 C 0.59077 0.30942 0.42597 0.0
C856 C 0.59515 0.33026 0.42147 0.0
C857 C 0.5985 0.27834 0.42434 0.0
C858 C 0.57704 0.26002 0.42535 0.0
C859 C 0.6171 0.27653 0.42921 0.0
C860 C 0.64011 0.29556 0.42919 0.0
C861 C 0.64552 0.31492 0.4377 0.0
C862 C 0.66715 0.33291 0.43741 0.0
C863 C 0.68356 0.33166 0.42878 0.0
C864 C 0.6784 0.31238 0.42047 0.0
C865 C 0.65678 0.29436 0.42069 0.0
H866 H 0.70029 0.34561 0.42857 0.0
H867 H 0.49042 0.17094 0.4319 0.0
H868 H 0.41631 0.59539 0.62694 0.0
H869 H 0.37945 0.58852 0.61888 0.0
H870 H 0.39203 0.57742 0.57078 0.0
H871 H 0.4294 0.58536 0.57872 0.0
H872 H 0.37625 0.60338 0.57075 0.0
H873 H 0.35273 0.53474 0.59499 0.0
H874 H 0.35081 0.50953 0.61573 0.0
H875 H 0.32379 0.53743 0.64786 0.0
H876 H 0.32584 0.56303 0.6274 0.0
H877 H 0.26843 0.58556 0.55083 0.0
H878 H 0.29816 0.57677 0.55467 0.0
H879 H 0.30172 0.59293 0.60432 0.0
H880 H 0.27183 0.60121 0.60069 0.0
H881 H 0.30676 0.55797 0.60008 0.0
H882 H 0.33712 0.63048 0.57701 0.0
H883 H 0.3395 0.65602 0.55634 0.0
H884 H 0.35368 0.61977 0.52178 0.0
H885 H 0.35112 0.59387 0.54223 0.0
C886 C 0.411 0.59104 0.61471 0.0
C887 C 0.42557 0.5905 0.60355 0.0
C888 C 0.38987 0.58698 0.61011 0.0
C889 C 0.38268 0.58197 0.59425 0.0
C890 C 0.39709 0.58106 0.5831 0.0
C891 C 0.41839 0.58544 0.58767 0.0
C892 C 0.36101 0.57972 0.58918 0.0
C893 C 0.36095 0.593 0.57693 0.0
C894 C 0.34103 0.56644 0.59734 0.0
C895 C 0.33954 0.55089 0.60966 0.0
C896 C 0.34649 0.53559 0.6065 0.0
C897 C 0.34537 0.52121 0.61821 0.0
C898 C 0.33721 0.52189 0.63311 0.0
C899 C 0.3301 0.53691 0.63631 0.0
C900 C 0.3312 0.55134 0.62466 0.0
C901 C 0.27537 0.58699 0.56259 0.0
C902 C 0.26791 0.59433 0.57542 0.0
C903 C 0.29239 0.58201 0.56476 0.0
C904 C 0.30241 0.58451 0.57974 0.0
C905 C 0.29428 0.59088 0.59265 0.0
C906 C 0.27723 0.59573 0.59053 0.0
C907 C 0.3223 0.58202 0.58198 0.0
C908 C 0.322 0.5679 0.5937 0.0
C909 C 0.34196 0.59445 0.57331 0.0
C910 C 0.34368 0.61013 0.56109 0.0
C911 C 0.34061 0.6279 0.56498 0.0
C912 C 0.34201 0.64244 0.55331 0.0
C913 C 0.34667 0.63948 0.53775 0.0
C914 C 0.35003 0.62201 0.53383 0.0
C915 C 0.34861 0.60741 0.54545 0.0
H916 H 0.34774 0.65075 0.52873 0.0
H917 H 0.33637 0.51076 0.64216 0.0
H918 H 0.83666 0.38591 0.80059 0.0
H919 H 0.80311 0.35756 0.78689 0.0
H920 H 0.80627 0.40568 0.75425 0.0
H921 H 0.8399 0.43413 0.76794 0.0
H922 H 0.76472 0.3808 0.76618 0.0
H923 H 0.81958 0.36838 0.74208 0.0
H924 H 0.8514 0.36196 0.74146 0.0
H925 H 0.8136 0.30178 0.76634 0.0
H926 H 0.78163 0.308 0.76733 0.0
H927 H 0.67852 0.3046 0.71564 0.0
H928 H 0.71613 0.33204 0.72438 0.0
H929 H 0.71534 0.28762 0.75943 0.0
H930 H 0.6777 0.26001 0.75076 0.0
H931 H 0.75651 0.31115 0.74474 0.0
H932 H 0.70295 0.32475 0.77047 0.0
H933 H 0.67094 0.33089 0.77139 0.0
H934 H 0.7065 0.38887 0.74379 0.0
H935 H 0.73862 0.38287 0.74249 0.0
C936 C 0.83034 0.39037 0.79038 0.0
C937 C 0.84096 0.41217 0.78525 0.0
C938 C 0.81121 0.37417 0.78255 0.0
C939 C 0.80232 0.37948 0.76947 0.0
C940 C 0.81291 0.40123 0.76429 0.0
C941 C 0.83211 0.41742 0.77207 0.0
C942 C 0.78143 0.36249 0.76164 0.0
C943 C 0.76306 0.36575 0.76123 0.0
C944 C 0.77912 0.34263 0.75553 0.0
C945 C 0.79827 0.33876 0.7549 0.0
C946 C 0.8181 0.35386 0.74754 0.0
C947 C 0.83616 0.35024 0.7471 0.0
C948 C 0.83454 0.3315 0.75389 0.0
C949 C 0.81483 0.3163 0.7611 0.0
C950 C 0.79673 0.31986 0.76159 0.0
C951 C 0.68645 0.3005 0.72504 0.0
C952 C 0.67503 0.28019 0.73261 0.0
C953 C 0.70792 0.31624 0.73005 0.0
C954 C 0.71837 0.31194 0.74268 0.0
C955 C 0.70753 0.29126 0.74968 0.0
C956 C 0.68599 0.27554 0.74474 0.0
C957 C 0.7399 0.32952 0.74931 0.0
C958 C 0.75831 0.32632 0.74955 0.0
C959 C 0.74227 0.34943 0.75532 0.0
C960 C 0.72308 0.35322 0.75623 0.0
C961 C 0.70388 0.33871 0.76449 0.0
C962 C 0.68573 0.34218 0.7651 0.0
C963 C 0.68666 0.36021 0.75761 0.0
C964 C 0.70579 0.37487 0.74955 0.0
C965 C 0.72397 0.37146 0.74888 0.0
H966 H 0.67258 0.36286 0.75809 0.0
H967 H 0.84854 0.32873 0.75354 0.0
H968 H 0.41409 0.84388 0.9306 0.0
H969 H 0.40769 0.80675 0.92639 0.0
H970 H 0.47747 0.83018 0.9354 0.0
H971 H 0.48414 0.86753 0.93871 0.0
H972 H 0.46495 0.80386 0.91175 0.0
H973 H 0.43493 0.7989 0.96297 0.0
H974 H 0.41187 0.80258 0.98342 0.0
H975 H 0.35254 0.75824 0.95715 0.0
H976 H 0.37525 0.75452 0.93642 0.0
H977 H 0.44673 0.69428 0.92182 0.0
H978 H 0.45556 0.73215 0.92716 0.0
H979 H 0.39277 0.71772 0.90595 0.0
H980 H 0.38399 0.68004 0.90031 0.0
H981 H 0.403 0.73912 0.93706 0.0
H982 H 0.43511 0.74583 0.88547 0.0
H983 H 0.45939 0.74193 0.8662 0.0
H984 H 0.51671 0.78294 0.89546 0.0
H985 H 0.49271 0.78681 0.91504 0.0
C986 C 0.428 0.84102 0.93184 0.0
C987 C 0.44948 0.85854 0.93538 0.0
C988 C 0.42433 0.81979 0.92952 0.0
C989 C 0.44199 0.8155 0.93096 0.0
C990 C 0.46352 0.83301 0.93436 0.0
C991 C 0.46728 0.85435 0.9364 0.0
C992 C 0.43812 0.79291 0.92829 0.0
C993 C 0.45163 0.78979 0.91753 0.0
C994 C 0.42055 0.77441 0.93562 0.0
C995 C 0.40682 0.77658 0.94807 0.0
C996 C 0.41697 0.79006 0.96149 0.0
C997 C 0.40396 0.79213 0.97314 0.0
C998 C 0.38076 0.78069 0.97157 0.0
C999 C 0.37052 0.76711 0.95834 0.0
C1000 C 0.38345 0.76499 0.94665 0.0
C1001 C 0.43488 0.69923 0.91821 0.0
C1002 C 0.41469 0.68421 0.91062 0.0
C1003 C 0.43995 0.72083 0.92125 0.0
C1004 C 0.42479 0.72764 0.91694 0.0
C1005 C 0.40465 0.71271 0.90937 0.0
C1006 C 0.39973 0.69124 0.90609 0.0
C1007 C 0.42971 0.75026 0.92053 0.0
C1008 C 0.41639 0.75331 0.93144 0.0
C1009 C 0.44766 0.7687 0.91357 0.0
C1010 C 0.46209 0.76639 0.9018 0.0
C1011 C 0.45287 0.75383 0.88787 0.0
C1012 C 0.46658 0.75167 0.87688 0.0
C1013 C 0.48957 0.76212 0.87963 0.0
C1014 C 0.4989 0.77481 0.89336 0.0
C1015 C 0.48525 0.77701 0.90441 0.0
H1016 H 0.50016 0.76044 0.87109 0.0
H1017 H 0.37072 0.78231 0.9806 0.0
H1018 H 0.57594 0.39829 0.10748 0.0
H1019 H 0.60712 0.39363 0.09932 0.0
H1020 H 0.64254 0.46088 0.08422 0.0
H1021 H 0.61106 0.46529 0.09174 0.0
H1022 H 0.64687 0.43618 0.06325 0.0
H1023 H 0.65545 0.44377 0.11969 0.0
H1024 H 0.64403 0.43522 0.1474 0.0
H1025 H 0.63203 0.36966 0.14022 0.0
H1026 H 0.64311 0.37774 0.11239 0.0
H1027 H 0.75716 0.4531 0.06363 0.0
H1028 H 0.72275 0.45367 0.06831 0.0
H1029 H 0.68808 0.3839 0.07603 0.0
H1030 H 0.72243 0.38313 0.07136 0.0
H1031 H 0.68229 0.40777 0.10004 0.0
H1032 H 0.67677 0.40226 0.04347 0.0
H1033 H 0.69013 0.41269 0.01631 0.0
H1034 H 0.69856 0.47675 0.02452 0.0
H1035 H 0.68554 0.46681 0.05182 0.0
C1036 C 0.5905 0.41211 0.10256 0.0
C1037 C 0.59133 0.43233 0.1007 0.0
C1038 C 0.60831 0.40946 0.09793 0.0
C1039 C 0.6274 0.42704 0.09145 0.0
C1040 C 0.62808 0.44712 0.08929 0.0
C1041 C 0.61017 0.4497 0.09375 0.0
C1042 C 0.64657 0.42448 0.08674 0.0
C1043 C 0.65475 0.43019 0.07137 0.0
C1044 C 0.65659 0.41621 0.09719 0.0
C1045 C 0.64987 0.41129 0.11391 0.0
C1046 C 0.6502 0.42748 0.12398 0.0
C1047 C 0.64382 0.42273 0.13972 0.0
C1048 C 0.63724 0.40189 0.14556 0.0
C1049 C 0.63709 0.38578 0.13568 0.0
C1050 C 0.64343 0.39044 0.11992 0.0
C1051 C 0.74216 0.43781 0.06611 0.0
C1052 C 0.74258 0.41809 0.06718 0.0
C1053 C 0.72249 0.43817 0.06874 0.0
C1054 C 0.70288 0.41883 0.07249 0.0
C1055 C 0.70307 0.39901 0.07317 0.0
C1056 C 0.7227 0.3986 0.07043 0.0
C1057 C 0.6826 0.41961 0.07665 0.0
C1058 C 0.67425 0.41359 0.09192 0.0
C1059 C 0.67263 0.42786 0.06618 0.0
C1060 C 0.68034 0.43384 0.04974 0.0
C1061 C 0.68163 0.41863 0.03953 0.0
C1062 C 0.68912 0.42444 0.0241 0.0
C1063 C 0.69524 0.44538 0.01871 0.0
C1064 C 0.69383 0.46053 0.02872 0.0
C1065 C 0.68637 0.45481 0.04417 0.0
H1066 H 0.70103 0.44985 0.00676 0.0
H1067 H 0.63232 0.39825 0.15774 0.0
H1068 H 0.40669 0.85117 0.52133 0.0
H1069 H 0.38677 0.81421 0.53234 0.0
H1070 H 0.34981 0.8342 0.56223 0.0
H1071 H 0.36978 0.87107 0.55143 0.0
H1072 H 0.36219 0.80881 0.57812 0.0
H1073 H 0.32799 0.80686 0.52754 0.0
H1074 H 0.32757 0.81151 0.49872 0.0
H1075 H 0.34982 0.76511 0.49141 0.0
H1076 H 0.35068 0.76043 0.52022 0.0
H1077 H 0.25806 0.71493 0.59152 0.0
H1078 H 0.28971 0.74988 0.58377 0.0
H1079 H 0.31893 0.71562 0.56072 0.0
H1080 H 0.2873 0.68042 0.56858 0.0
H1081 H 0.31591 0.74631 0.54155 0.0
H1082 H 0.34413 0.7442 0.59248 0.0
H1083 H 0.34316 0.73928 0.62131 0.0
H1084 H 0.33105 0.79295 0.62809 0.0
H1085 H 0.3316 0.79799 0.59927 0.0
C1086 C 0.39459 0.84772 0.53045 0.0
C1087 C 0.39 0.86407 0.53568 0.0
C1088 C 0.38314 0.82661 0.53666 0.0
C1089 C 0.36673 0.82143 0.54806 0.0
C1090 C 0.3625 0.83786 0.55353 0.0
C1091 C 0.3739 0.85891 0.54734 0.0
C1092 C 0.35304 0.79869 0.5538 0.0
C1093 C 0.35203 0.79515 0.57014 0.0
C1094 C 0.34024 0.78074 0.54334 0.0
C1095 C 0.33969 0.78352 0.52603 0.0
C1096 C 0.33299 0.7978 0.51979 0.0
C1097 C 0.33263 0.80041 0.50346 0.0
C1098 C 0.33874 0.78867 0.49324 0.0
C1099 C 0.34515 0.77424 0.49934 0.0
C1100 C 0.34558 0.7716 0.51567 0.0
C1101 C 0.27136 0.7148 0.585 0.0
C1102 C 0.27016 0.6949 0.58065 0.0
C1103 C 0.28948 0.7348 0.58063 0.0
C1104 C 0.3067 0.73533 0.57173 0.0
C1105 C 0.30583 0.71554 0.56763 0.0
C1106 C 0.28781 0.69547 0.57219 0.0
C1107 C 0.32467 0.75656 0.56589 0.0
C1108 C 0.32644 0.75985 0.54953 0.0
C1109 C 0.33807 0.77428 0.57632 0.0
C1110 C 0.33776 0.77138 0.59369 0.0
C1111 C 0.34108 0.75485 0.6001 0.0
C1112 C 0.34064 0.75206 0.61645 0.0
C1113 C 0.33701 0.76577 0.62652 0.0
C1114 C 0.33385 0.78233 0.62027 0.0
C1115 C 0.33426 0.78519 0.60393 0.0
H1116 H 0.33668 0.76358 0.63918 0.0
H1117 H 0.33844 0.79071 0.4806 0.0
H1118 H 0.6163 0.45077 0.69631 0.0
H1119 H 0.61862 0.41795 0.70217 0.0
H1120 H 0.55348 0.3882 0.72284 0.0
H1121 H 0.55151 0.42126 0.71758 0.0
H1122 H 0.57972 0.38045 0.74038 0.0
H1123 H 0.56252 0.37445 0.68468 0.0
H1124 H 0.56796 0.38661 0.65705 0.0
H1125 H 0.63189 0.39078 0.6572 0.0
H1126 H 0.62695 0.37891 0.68492 0.0
H1127 H 0.54854 0.26761 0.73488 0.0
H1128 H 0.55142 0.30335 0.73104 0.0
H1129 H 0.62081 0.3314 0.71978 0.0
H1130 H 0.61821 0.29579 0.72378 0.0
H1131 H 0.59522 0.34103 0.69792 0.0
H1132 H 0.61052 0.34439 0.75353 0.0
H1133 H 0.60365 0.33097 0.78084 0.0
H1134 H 0.54143 0.33038 0.78036 0.0
H1135 H 0.54777 0.3435 0.75295 0.0
C1136 C 0.60244 0.43714 0.702 0.0
C1137 C 0.58344 0.4383 0.70602 0.0
C1138 C 0.60375 0.4184 0.70532 0.0
C1139 C 0.58601 0.4004 0.71263 0.0
C1140 C 0.5673 0.40179 0.71707 0.0
C1141 C 0.56609 0.42061 0.71392 0.0
C1142 C 0.58683 0.38007 0.71567 0.0
C1143 C 0.58288 0.37173 0.73104 0.0
C1144 C 0.59148 0.36892 0.70359 0.0
C1145 C 0.59447 0.37603 0.68692 0.0
C1146 C 0.57781 0.37813 0.67886 0.0
C1147 C 0.58079 0.38494 0.66317 0.0
C1148 C 0.60029 0.38953 0.65539 0.0
C1149 C 0.61682 0.38726 0.66325 0.0
C1150 C 0.61393 0.38048 0.67895 0.0
C1151 C 0.56443 0.28139 0.73163 0.0
C1152 C 0.58314 0.27887 0.72963 0.0
C1153 C 0.56606 0.30179 0.7295 0.0
C1154 C 0.58634 0.31996 0.72519 0.0
C1155 C 0.60503 0.31753 0.72311 0.0
C1156 C 0.6035 0.2972 0.72545 0.0
C1157 C 0.58782 0.34138 0.72251 0.0
C1158 C 0.5922 0.34988 0.70723 0.0
C1159 C 0.58336 0.35255 0.73462 0.0
C1160 C 0.57952 0.34473 0.75113 0.0
C1161 C 0.59527 0.34121 0.7592 0.0
C1162 C 0.5915 0.3337 0.77471 0.0
C1163 C 0.57209 0.32978 0.78232 0.0
C1164 C 0.55644 0.33341 0.77444 0.0
C1165 C 0.56013 0.3409 0.75892 0.0
H1166 H 0.5692 0.32396 0.79433 0.0
H1167 H 0.60256 0.39479 0.64324 0.0
H1168 H 0.15082 0.53451 0.88588 0.0
H1169 H 0.18683 0.53726 0.89097 0.0
H1170 H 0.21986 0.60698 0.883 0.0
H1171 H 0.18386 0.60407 0.87706 0.0
H1172 H 0.24252 0.59129 0.86989 0.0
H1173 H 0.21047 0.58404 0.921 0.0
H1174 H 0.18167 0.5669 0.94124 0.0
H1175 H 0.18616 0.50828 0.93831 0.0
H1176 H 0.21479 0.52498 0.91789 0.0
H1177 H 0.34606 0.62042 0.90678 0.0
H1178 H 0.30942 0.61612 0.90136 0.0
H1179 H 0.27979 0.54575 0.90269 0.0
H1180 H 0.31642 0.54985 0.90816 0.0
H1181 H 0.25552 0.56106 0.91897 0.0
H1182 H 0.28878 0.56985 0.86791 0.0
H1183 H 0.31834 0.58837 0.84836 0.0
H1184 H 0.31233 0.64607 0.85223 0.0
H1185 H 0.28293 0.628 0.87198 0.0
C1186 C 0.16576 0.55037 0.88495 0.0
C1187 C 0.16454 0.56905 0.88073 0.0
C1188 C 0.18635 0.55197 0.88806 0.0
C1189 C 0.20609 0.57238 0.88758 0.0
C1190 C 0.2049 0.59103 0.88339 0.0
C1191 C 0.18435 0.58938 0.88002 0.0
C1192 C 0.228 0.57438 0.89146 0.0
C1193 C 0.2454 0.58492 0.88073 0.0
C1194 C 0.23172 0.5657 0.90546 0.0
C1195 C 0.21462 0.55569 0.91781 0.0
C1196 C 0.20521 0.56744 0.9246 0.0
C1197 C 0.18893 0.55782 0.93611 0.0
C1198 C 0.18205 0.5365 0.94103 0.0
C1199 C 0.19148 0.52479 0.93447 0.0
C1200 C 0.20775 0.53433 0.92294 0.0
C1201 C 0.33177 0.60401 0.90599 0.0
C1202 C 0.33421 0.58546 0.90782 0.0
C1203 C 0.31085 0.6016 0.90283 0.0
C1204 C 0.29196 0.58062 0.90144 0.0
C1205 C 0.2942 0.56208 0.90368 0.0
C1206 C 0.31515 0.56447 0.90677 0.0
C1207 C 0.26991 0.57804 0.89746 0.0
C1208 C 0.25254 0.56739 0.90815 0.0
C1209 C 0.26627 0.58682 0.88352 0.0
C1210 C 0.2838 0.59764 0.87153 0.0
C1211 C 0.29388 0.58655 0.86468 0.0
C1212 C 0.31058 0.59695 0.85355 0.0
C1213 C 0.31725 0.6184 0.84908 0.0
C1214 C 0.30717 0.62947 0.85571 0.0
C1215 C 0.29047 0.61914 0.86686 0.0
H1216 H 0.33019 0.62643 0.84047 0.0
H1217 H 0.16944 0.52907 0.94994 0.0
H1218 H 0.60282 0.17611 0.00533 0.0
H1219 H 0.63626 0.20538 0.0185 0.0
H1220 H 0.59686 0.20427 0.05799 0.0
H1221 H 0.56328 0.17502 0.04474 0.0
H1222 H 0.62334 0.24537 0.04782 0.0
H1223 H 0.63251 0.18488 0.06181 0.0
H1224 H 0.63436 0.15119 0.05721 0.0
H1225 H 0.69046 0.18628 0.02713 0.0
H1226 H 0.68872 0.22013 0.03135 0.0
H1227 H 0.71681 0.32343 0.09181 0.0
H1228 H 0.68481 0.28759 0.08494 0.0
H1229 H 0.71721 0.28505 0.0424 0.0
H1230 H 0.7494 0.32085 0.04921 0.0
H1231 H 0.69367 0.24431 0.05663 0.0
H1232 H 0.68189 0.30338 0.04051 0.0
H1233 H 0.68037 0.33729 0.04499 0.0
H1234 H 0.62896 0.30451 0.079 0.0
H1235 H 0.63045 0.27049 0.07491 0.0
C1236 C 0.60138 0.18187 0.01693 0.0
C1237 C 0.58053 0.17316 0.0241 0.0
C1238 C 0.62048 0.19855 0.02447 0.0
C1239 C 0.61909 0.20685 0.03931 0.0
C1240 C 0.59831 0.19802 0.04657 0.0
C1241 C 0.5792 0.18129 0.03906 0.0
C1242 C 0.63912 0.22567 0.04671 0.0
C1243 C 0.63857 0.24497 0.05005 0.0
C1244 C 0.65915 0.22531 0.04928 0.0
C1245 C 0.66037 0.20502 0.0468 0.0
C1246 C 0.64514 0.18539 0.05412 0.0
C1247 C 0.64618 0.16626 0.05159 0.0
C1248 C 0.66249 0.16659 0.04186 0.0
C1249 C 0.67782 0.18606 0.03466 0.0
C1250 C 0.67683 0.20522 0.03713 0.0
C1251 C 0.71732 0.31511 0.08112 0.0
C1252 C 0.73554 0.32514 0.07094 0.0
C1253 C 0.699 0.29463 0.07721 0.0
C1254 C 0.69852 0.28385 0.06305 0.0
C1255 C 0.71724 0.29315 0.05336 0.0
C1256 C 0.73558 0.31365 0.05725 0.0
C1257 C 0.67783 0.26392 0.05764 0.0
C1258 C 0.67831 0.24452 0.0546 0.0
C1259 C 0.65771 0.26415 0.0553 0.0
C1260 C 0.65646 0.28446 0.05754 0.0
C1261 C 0.67036 0.30344 0.04902 0.0
C1262 C 0.6695 0.32268 0.05149 0.0
C1263 C 0.65463 0.32308 0.06231 0.0
C1264 C 0.64051 0.3042 0.07064 0.0
C1265 C 0.64135 0.28493 0.06826 0.0
H1266 H 0.654 0.338 0.06422 0.0
H1267 H 0.66327 0.15176 0.03992 0.0
H1268 H 0.49081 0.64776 0.18109 0.0
H1269 H 0.4852 0.67694 0.19198 0.0
H1270 H 0.42556 0.62862 0.2147 0.0
H1271 H 0.43129 0.59929 0.20401 0.0
H1272 H 0.41968 0.65897 0.19727 0.0
H1273 H 0.46935 0.65917 0.23691 0.0
H1274 H 0.50326 0.66013 0.2471 0.0
H1275 H 0.54368 0.72364 0.22704 0.0
H1276 H 0.51 0.72292 0.21652 0.0
H1277 H 0.4012 0.73471 0.24008 0.0
H1278 H 0.40877 0.70507 0.23417 0.0
H1279 H 0.47077 0.75119 0.21286 0.0
H1280 H 0.46344 0.7811 0.21887 0.0
H1281 H 0.47506 0.72117 0.23074 0.0
H1282 H 0.42615 0.72027 0.18986 0.0
H1283 H 0.39262 0.71947 0.17901 0.0
H1284 H 0.35119 0.65736 0.20069 0.0
H1285 H 0.3845 0.65794 0.21186 0.0
C1286 C 0.47663 0.64336 0.18854 0.0
C1287 C 0.46141 0.62123 0.19163 0.0
C1288 C 0.47347 0.66004 0.19477 0.0
C1289 C 0.455 0.65493 0.20417 0.0
C1290 C 0.43991 0.63288 0.20746 0.0
C1291 C 0.44319 0.61618 0.20136 0.0
C1292 C 0.451 0.67259 0.20995 0.0
C1293 C 0.43158 0.67236 0.20483 0.0
C1294 C 0.46685 0.69035 0.21944 0.0
C1295 C 0.48715 0.6909 0.22579 0.0
C1296 C 0.48548 0.67326 0.23455 0.0
C1297 C 0.50465 0.67378 0.24041 0.0
C1298 C 0.52561 0.69191 0.23769 0.0
C1299 C 0.52743 0.70959 0.22913 0.0
C1300 C 0.5083 0.70915 0.22322 0.0
C1301 C 0.41655 0.73864 0.23425 0.0
C1302 C 0.43164 0.76028 0.22983 0.0
C1303 C 0.42081 0.72164 0.23084 0.0
C1304 C 0.44018 0.72588 0.22287 0.0
C1305 C 0.4557 0.74756 0.21898 0.0
C1306 C 0.45144 0.76462 0.22238 0.0
C1307 C 0.44374 0.70754 0.21805 0.0
C1308 C 0.46308 0.70768 0.22329 0.0
C1309 C 0.42787 0.68972 0.20859 0.0
C1310 C 0.40781 0.68927 0.20184 0.0
C1311 C 0.40988 0.70653 0.19242 0.0
C1312 C 0.39092 0.7061 0.1862 0.0
C1313 C 0.36978 0.68841 0.1892 0.0
C1314 C 0.36757 0.67107 0.1984 0.0
C1315 C 0.38649 0.67144 0.20467 0.0
H1316 H 0.35512 0.6881 0.18436 0.0
H1317 H 0.54044 0.69228 0.24224 0.0
H1318 H 0.83687 0.4015 0.37764 0.0
H1319 H 0.80781 0.4059 0.39059 0.0
H1320 H 0.81694 0.45539 0.3571 0.0
H1321 H 0.84575 0.45084 0.34398 0.0
H1322 H 0.81133 0.46538 0.38912 0.0
H1323 H 0.77707 0.40625 0.35018 0.0
H1324 H 0.76942 0.37116 0.33792 0.0
H1325 H 0.74212 0.33807 0.38137 0.0
H1326 H 0.74998 0.37307 0.39397 0.0
H1327 H 0.71054 0.46719 0.39418 0.0
H1328 H 0.74394 0.46621 0.38678 0.0
H1329 H 0.7206 0.40565 0.4119 0.0
H1330 H 0.68646 0.40591 0.41843 0.0
H1331 H 0.73482 0.40117 0.38592 0.0
H1332 H 0.76655 0.45869 0.42503 0.0
H1333 H 0.77473 0.4934 0.43824 0.0
H1334 H 0.80722 0.52901 0.39666 0.0
H1335 H 0.79899 0.49449 0.38313 0.0
C1336 C 0.8328 0.41347 0.37317 0.0
C1337 C 0.8434 0.4257 0.35974 0.0
C1338 C 0.81626 0.41596 0.38056 0.0
C1339 C 0.81016 0.43084 0.3747 0.0
C1340 C 0.82145 0.44384 0.36179 0.0
C1341 C 0.83783 0.44118 0.35429 0.0
C1342 C 0.79098 0.4318 0.38133 0.0
C1343 C 0.79454 0.45144 0.38838 0.0
C1344 C 0.76924 0.41338 0.38069 0.0
C1345 C 0.76436 0.39232 0.37307 0.0
C1346 C 0.76963 0.39153 0.35716 0.0
C1347 C 0.76522 0.37165 0.35015 0.0
C1348 C 0.75535 0.35241 0.35888 0.0
C1349 C 0.74981 0.353 0.37463 0.0
C1350 C 0.75423 0.37285 0.38172 0.0
C1351 C 0.71268 0.45382 0.39828 0.0
C1352 C 0.69595 0.43666 0.40691 0.0
C1353 C 0.73188 0.45333 0.39413 0.0
C1354 C 0.73511 0.43606 0.399 0.0
C1355 C 0.71858 0.41917 0.40798 0.0
C1356 C 0.6991 0.41936 0.41176 0.0
C1357 C 0.75496 0.43485 0.39388 0.0
C1358 C 0.75156 0.41513 0.38697 0.0
C1359 C 0.77689 0.45314 0.39488 0.0
C1360 C 0.782 0.47396 0.40303 0.0
C1361 C 0.77532 0.47391 0.41867 0.0
C1362 C 0.77998 0.49356 0.42622 0.0
C1363 C 0.79145 0.51339 0.41828 0.0
C1364 C 0.79833 0.51363 0.40279 0.0
C1365 C 0.7937 0.49403 0.39518 0.0
H1366 H 0.79503 0.52858 0.42415 0.0
H1367 H 0.75194 0.33703 0.35343 0.0
H1368 H 0.12122 0.55595 0.41572 0.0
H1369 H 0.13731 0.56077 0.44238 0.0
H1370 H 0.09986 0.59127 0.45773 0.0
H1371 H 0.08426 0.58702 0.43104 0.0
H1372 H 0.14165 0.61451 0.46739 0.0
H1373 H 0.08534 0.5381 0.46802 0.0
H1374 H 0.06569 0.49977 0.45817 0.0
H1375 H 0.12554 0.49648 0.46395 0.0
H1376 H 0.14564 0.53491 0.47365 0.0
H1377 H 0.15454 0.61616 0.54904 0.0
H1378 H 0.13718 0.60479 0.5229 0.0
H1379 H 0.18243 0.58181 0.51093 0.0
H1380 H 0.19992 0.59299 0.5373 0.0
H1381 H 0.13864 0.55423 0.49918 0.0
H1382 H 0.19457 0.6305 0.49904 0.0
H1383 H 0.21394 0.66873 0.50908 0.0
H1384 H 0.15427 0.67209 0.50227 0.0
H1385 H 0.13444 0.63375 0.4924 0.0
C1386 C 0.11624 0.56341 0.42487 0.0
C1387 C 0.10112 0.57066 0.42142 0.0
C1388 C 0.12538 0.56611 0.44008 0.0
C1389 C 0.11952 0.57607 0.45211 0.0
C1390 C 0.10451 0.58342 0.44866 0.0
C1391 C 0.09549 0.58085 0.43344 0.0
C1392 C 0.12973 0.57978 0.46815 0.0
C1393 C 0.14072 0.60125 0.47439 0.0
C1394 C 0.12915 0.56261 0.47711 0.0
C1395 C 0.11705 0.53945 0.47141 0.0
C1396 C 0.09436 0.52925 0.46708 0.0
C1397 C 0.08313 0.5075 0.46155 0.0
C1398 C 0.09437 0.49572 0.4604 0.0
C1399 C 0.11686 0.50564 0.46483 0.0
C1400 C 0.12817 0.5274 0.47036 0.0
C1401 C 0.16071 0.60847 0.54095 0.0
C1402 C 0.17884 0.60576 0.54518 0.0
C1403 C 0.15074 0.60199 0.52601 0.0
C1404 C 0.15879 0.59284 0.51492 0.0
C1405 C 0.17606 0.58894 0.51934 0.0
C1406 C 0.18604 0.59538 0.53438 0.0
C1407 C 0.15008 0.58883 0.49845 0.0
C1408 C 0.13954 0.56741 0.49211 0.0
C1409 C 0.15102 0.60603 0.48936 0.0
C1410 C 0.16298 0.62919 0.4951 0.0
C1411 C 0.18554 0.63934 0.49978 0.0
C1412 C 0.1966 0.66104 0.50543 0.0
C1413 C 0.18533 0.67282 0.50634 0.0
C1414 C 0.16298 0.66294 0.50157 0.0
C1415 C 0.15182 0.64123 0.49593 0.0
H1416 H 0.19392 0.68961 0.51073 0.0
H1417 H 0.08566 0.47888 0.4561 0.0
H1418 H 0.53948 0.04319 0.61259 0.0
H1419 H 0.54252 0.0734 0.62905 0.0
H1420 H 0.61042 0.11437 0.61451 0.0
H1421 H 0.60739 0.08413 0.59793 0.0
H1422 H 0.60585 0.1138 0.64679 0.0
H1423 H 0.5716 0.12507 0.60135 0.0
H1424 H 0.54367 0.11425 0.57981 0.0
H1425 H 0.49194 0.09557 0.61378 0.0
H1426 H 0.51951 0.10594 0.63554 0.0
H1427 H 0.61619 0.20467 0.69098 0.0
H1428 H 0.61604 0.18211 0.66874 0.0
H1429 H 0.54572 0.13788 0.67468 0.0
H1430 H 0.54558 0.16069 0.69653 0.0
H1431 H 0.55429 0.14342 0.6445 0.0
H1432 H 0.5865 0.12705 0.68946 0.0
H1433 H 0.61324 0.13572 0.71157 0.0
H1434 H 0.66739 0.16189 0.67911 0.0
H1435 H 0.64098 0.1536 0.65682 0.0
C1436 C 0.55493 0.05875 0.61273 0.0
C1437 C 0.57317 0.06139 0.60396 0.0
C1438 C 0.55664 0.076 0.62209 0.0
C1439 C 0.57665 0.09616 0.6229 0.0
C1440 C 0.59482 0.09895 0.614 0.0
C1441 C 0.59306 0.08174 0.60453 0.0
C1442 C 0.57893 0.11376 0.63385 0.0
C1443 C 0.59489 0.12064 0.64611 0.0
C1444 C 0.56425 0.12221 0.63315 0.0
C1445 C 0.54763 0.11615 0.62009 0.0
C1446 C 0.55425 0.1185 0.60423 0.0
C1447 C 0.53848 0.11247 0.59198 0.0
C1448 C 0.51604 0.10419 0.59542 0.0
C1449 C 0.50933 0.10197 0.61113 0.0
C1450 C 0.52503 0.10795 0.62343 0.0
C1451 C 0.60067 0.1902 0.68749 0.0
C1452 C 0.58093 0.18438 0.6956 0.0
C1453 C 0.60062 0.17729 0.6748 0.0
C1454 C 0.58094 0.15809 0.67019 0.0
C1455 C 0.56111 0.1526 0.67801 0.0
C1456 C 0.56109 0.16563 0.69055 0.0
C1457 C 0.581 0.14324 0.65762 0.0
C1458 C 0.56547 0.13683 0.64506 0.0
C1459 C 0.59592 0.135 0.65813 0.0
C1460 C 0.6118 0.13995 0.6715 0.0
C1461 C 0.60413 0.1348 0.68706 0.0
C1462 C 0.61922 0.13962 0.69961 0.0
C1463 C 0.642 0.14941 0.69675 0.0
C1464 C 0.64974 0.15434 0.68131 0.0
C1465 C 0.63472 0.14958 0.66871 0.0
H1466 H 0.65366 0.15313 0.70649 0.0
H1467 H 0.50386 0.09952 0.58592 0.0
H1468 H 0.46703 0.58524 0.7339 0.0
H1469 H 0.46741 0.60283 0.76512 0.0
H1470 H 0.43844 0.52856 0.78892 0.0
H1471 H 0.43701 0.50922 0.75848 0.0
H1472 H 0.42198 0.54776 0.80094 0.0
H1473 H 0.50151 0.58775 0.79264 0.0
H1474 H 0.53571 0.61179 0.7781 0.0
H1475 H 0.51979 0.66343 0.77936 0.0
H1476 H 0.48535 0.63957 0.79374 0.0
H1477 H 0.43853 0.57398 0.8797 0.0
H1478 H 0.45108 0.57052 0.85358 0.0
H1479 H 0.44347 0.62431 0.83731 0.0
H1480 H 0.43133 0.62824 0.86376 0.0
H1481 H 0.48018 0.61989 0.82266 0.0
H1482 H 0.40065 0.57762 0.83277 0.0
H1483 H 0.3686 0.55272 0.84888 0.0
H1484 H 0.38761 0.5034 0.84529 0.0
H1485 H 0.41997 0.52815 0.82935 0.0
C1486 C 0.46117 0.57476 0.74406 0.0
C1487 C 0.45578 0.54599 0.74347 0.0
C1488 C 0.46257 0.58574 0.76368 0.0
C1489 C 0.45472 0.56809 0.78067 0.0
C1490 C 0.44384 0.53882 0.77863 0.0
C1491 C 0.44175 0.52634 0.75961 0.0
C1492 C 0.45365 0.57664 0.79651 0.0
C1493 C 0.43507 0.56334 0.80567 0.0
C1494 C 0.47007 0.59742 0.80263 0.0
C1495 C 0.49073 0.61178 0.79403 0.0
C1496 C 0.50524 0.60418 0.7897 0.0
C1497 C 0.52467 0.61778 0.78152 0.0
C1498 C 0.52987 0.63909 0.77775 0.0
C1499 C 0.51571 0.64689 0.78224 0.0
C1500 C 0.49624 0.63335 0.79042 0.0
C1501 C 0.44013 0.58549 0.8707 0.0
C1502 C 0.4336 0.60112 0.87362 0.0
C1503 C 0.4474 0.58356 0.85581 0.0
C1504 C 0.44781 0.59691 0.84349 0.0
C1505 C 0.44325 0.61388 0.84671 0.0
C1506 C 0.43626 0.61605 0.86177 0.0
C1507 C 0.44914 0.59049 0.82701 0.0
C1508 C 0.46743 0.60423 0.81776 0.0
C1509 C 0.43265 0.5699 0.8208 0.0
C1510 C 0.41278 0.55478 0.82995 0.0
C1511 C 0.39803 0.5615 0.83547 0.0
C1512 C 0.37982 0.54742 0.84457 0.0
C1513 C 0.37609 0.5265 0.84812 0.0
C1514 C 0.39052 0.5196 0.84253 0.0
C1515 C 0.40877 0.53363 0.83344 0.0
H1516 H 0.362 0.51564 0.85519 0.0
H1517 H 0.54492 0.64959 0.77141 0.0
H1518 H 0.91454 0.49951 0.91076 0.0
H1519 H 0.88843 0.46934 0.9272 0.0
H1520 H 0.93961 0.48863 0.96328 0.0
H1521 H 0.96596 0.51806 0.94656 0.0
H1522 H 0.91479 0.44595 0.963 0.0
H1523 H 0.90102 0.50713 0.96283 0.0
H1524 H 0.89213 0.53342 0.95036 0.0
H1525 H 0.83025 0.48008 0.93242 0.0
H1526 H 0.83896 0.45346 0.94463 0.0
H1527 H 0.86714 0.44374 0.03675 0.0
H1528 H 0.88635 0.45103 0.01157 0.0
H1529 H 0.82488 0.4044 0.98806 0.0
H1530 H 0.80564 0.39639 0.01351 0.0
H1531 H 0.84824 0.45092 0.97731 0.0
H1532 H 0.86027 0.39096 0.98524 0.0
H1533 H 0.87069 0.36734 2e-05 0.0
H1534 H 0.93749 0.4212 0.00601 0.0
H1535 H 0.92741 0.44527 0.99148 0.0
C1536 C 0.92036 0.49692 0.92201 0.0
C1537 C 0.94235 0.51104 0.92736 0.0
C1538 C 0.90539 0.47976 0.93145 0.0
C1539 C 0.91194 0.47689 0.94659 0.0
C1540 C 0.93415 0.49041 0.95163 0.0
C1541 C 0.94918 0.50729 0.94211 0.0
C1542 C 0.89543 0.46146 0.95792 0.0
C1543 C 0.90019 0.44697 0.96609 0.0
C1544 C 0.87605 0.46237 0.96173 0.0
C1545 C 0.87076 0.47833 0.95445 0.0
C1546 C 0.8856 0.50102 0.95613 0.0
C1547 C 0.88058 0.51597 0.94912 0.0
C1548 C 0.86067 0.50842 0.94055 0.0
C1549 C 0.8457 0.4859 0.93902 0.0
C1550 C 0.85066 0.47088 0.94598 0.0
C1551 C 0.85787 0.43462 0.02628 0.0
C1552 C 0.83496 0.41956 0.02699 0.0
C1553 C 0.86885 0.43872 0.01194 0.0
C1554 C 0.85702 0.42818 0.99801 0.0
C1555 C 0.83428 0.41251 0.99874 0.0
C1556 C 0.82336 0.40795 0.01323 0.0
C1557 C 0.86806 0.43605 0.9827 0.0
C1558 C 0.86237 0.44928 0.97383 0.0
C1559 C 0.88682 0.43434 0.97854 0.0
C1560 C 0.89303 0.41996 0.98732 0.0
C1561 C 0.87714 0.39783 0.98982 0.0
C1562 C 0.883 0.38435 0.99814 0.0
C1563 C 0.90473 0.39277 0.00397 0.0
C1564 C 0.92066 0.4147 0.00148 0.0
C1565 C 0.91489 0.42826 0.99318 0.0
H1566 H 0.90923 0.3823 0.0104 0.0
H1567 H 0.85681 0.52002 0.93514 0.0
H1568 H 0.47577 0.90072 0.07554 0.0
H1569 H 0.45713 0.88144 0.09951 0.0
H1570 H 0.50554 0.93621 0.12798 0.0
H1571 H 0.52472 0.95513 0.10405 0.0
H1572 H 0.49838 0.89992 0.14069 0.0
H1573 H 0.4516 0.92674 0.12105 0.0
H1574 H 0.42868 0.93238 0.10126 0.0
H1575 H 0.3844 0.86276 0.0974 0.0
H1576 H 0.40724 0.85668 0.11702 0.0
H1577 H 0.40223 0.86217 0.20077 0.0
H1578 H 0.42112 0.88144 0.177 0.0
H1579 H 0.44708 0.83753 0.17073 0.0
H1580 H 0.42859 0.8184 0.1948 0.0
H1581 H 0.41722 0.86951 0.14733 0.0
H1582 H 0.49817 0.86521 0.1539 0.0
H1583 H 0.52194 0.86334 0.17503 0.0
H1584 H 0.49925 0.89487 0.20757 0.0
H1585 H 0.4756 0.89719 0.1866 0.0
C1586 C 0.48226 0.9087 0.08692 0.0
C1587 C 0.5013 0.92967 0.0879 0.0
C1588 C 0.47161 0.89771 0.10061 0.0
C1589 C 0.47967 0.90755 0.11555 0.0
C1590 C 0.49892 0.92835 0.11658 0.0
C1591 C 0.50974 0.93924 0.10289 0.0
C1592 C 0.46818 0.89606 0.13012 0.0
C1593 C 0.48063 0.89327 0.14213 0.0
C1594 C 0.44508 0.88765 0.13214 0.0
C1595 C 0.43124 0.89125 0.1204 0.0
C1596 C 0.43706 0.91263 0.1159 0.0
C1597 C 0.42407 0.91591 0.10472 0.0
C1598 C 0.40513 0.89794 0.09805 0.0
C1599 C 0.39909 0.87666 0.10257 0.0
C1600 C 0.41204 0.87329 0.11373 0.0
C1601 C 0.41193 0.85656 0.19435 0.0
C1602 C 0.41395 0.83877 0.19973 0.0
C1603 C 0.42269 0.86758 0.18072 0.0
C1604 C 0.43568 0.86107 0.17215 0.0
C1605 C 0.43743 0.84307 0.1773 0.0
C1606 C 0.42677 0.83209 0.19102 0.0
C1607 C 0.44738 0.87326 0.15785 0.0
C1608 C 0.43496 0.87612 0.14587 0.0
C1609 C 0.4706 0.88225 0.15606 0.0
C1610 C 0.48493 0.88113 0.16872 0.0
C1611 C 0.49832 0.87179 0.16556 0.0
C1612 C 0.51176 0.87065 0.1775 0.0
C1613 C 0.51204 0.87891 0.19265 0.0
C1614 C 0.49895 0.8884 0.19586 0.0
C1615 C 0.4855 0.8896 0.18395 0.0
H1616 H 0.52245 0.878 0.20188 0.0
H1617 H 0.39509 0.90051 0.08939 0.0
H1618 H 0.58984 0.4643 0.24399 0.0
H1619 H 0.58403 0.44725 0.26983 0.0
H1620 H 0.58737 0.50456 0.29165 0.0
H1621 H 0.59444 0.5221 0.26603 0.0
H1622 H 0.61358 0.49538 0.30641 0.0
H1623 H 0.53767 0.45175 0.2888 0.0
H1624 H 0.50694 0.42727 0.27062 0.0
H1625 H 0.52595 0.37804 0.27466 0.0
H1626 H 0.55699 0.40235 0.29269 0.0
H1627 H 0.59558 0.45853 0.38268 0.0
H1628 H 0.58419 0.46574 0.35711 0.0
H1629 H 0.59243 0.4145 0.33554 0.0
H1630 H 0.60317 0.40667 0.36138 0.0
H1631 H 0.55807 0.41929 0.32097 0.0
H1632 H 0.6356 0.46463 0.33666 0.0
H1633 H 0.66595 0.48902 0.35514 0.0
H1634 H 0.64284 0.53537 0.35446 0.0
H1635 H 0.61215 0.51109 0.33615 0.0
C1636 C 0.58891 0.47305 0.25429 0.0
C1637 C 0.59243 0.49445 0.25292 0.0
C1638 C 0.58542 0.46324 0.26905 0.0
C1639 C 0.58497 0.47448 0.28272 0.0
C1640 C 0.5876 0.49552 0.28128 0.0
C1641 C 0.59152 0.50551 0.26658 0.0
C1642 C 0.58432 0.46547 0.29865 0.0
C1643 C 0.60109 0.47889 0.30963 0.0
C1644 C 0.56852 0.44367 0.30277 0.0
C1645 C 0.54978 0.42896 0.292 0.0
C1646 C 0.5354 0.43577 0.28572 0.0
C1647 C 0.51791 0.42191 0.27546 0.0
C1648 C 0.51453 0.40114 0.27146 0.0
C1649 C 0.5286 0.39415 0.27776 0.0
C1650 C 0.54612 0.40795 0.28802 0.0
C1651 C 0.59437 0.44839 0.37257 0.0
C1652 C 0.6006 0.4323 0.3739 0.0
C1653 C 0.58783 0.4525 0.35798 0.0
C1654 C 0.58799 0.44101 0.34439 0.0
C1655 C 0.59229 0.4236 0.3459 0.0
C1656 C 0.59847 0.41918 0.36063 0.0
C1657 C 0.58704 0.4494 0.32858 0.0
C1658 C 0.57024 0.43585 0.31767 0.0
C1659 C 0.60275 0.47114 0.32443 0.0
C1660 C 0.6215 0.48598 0.33515 0.0
C1661 C 0.63695 0.47998 0.34051 0.0
C1662 C 0.6542 0.49378 0.35096 0.0
C1663 C 0.6563 0.51371 0.356 0.0
C1664 C 0.64119 0.51992 0.35056 0.0
C1665 C 0.62387 0.50616 0.34014 0.0
H1666 H 0.66965 0.52436 0.3641 0.0
H1667 H 0.50098 0.39044 0.26351 0.0
H1668 H 0.4659 0.9095 0.40888 0.0
H1669 H 0.47079 0.89137 0.38564 0.0
H1670 H 0.44677 0.92457 0.35562 0.0
H1671 H 0.44211 0.94284 0.37875 0.0
H1672 H 0.43856 0.86309 0.367 0.0
H1673 H 0.46721 0.93146 0.31947 0.0
H1674 H 0.49308 0.97127 0.31775 0.0
H1675 H 0.53119 0.96874 0.35714 0.0
H1676 H 0.50578 0.92885 0.35895 0.0
H1677 H 0.38868 0.83685 0.29265 0.0
H1678 H 0.40682 0.85445 0.31769 0.0
H1679 H 0.46609 0.85363 0.3039 0.0
H1680 H 0.44762 0.83523 0.2787 0.0
H1681 H 0.4698 0.89719 0.31556 0.0
H1682 H 0.44725 0.82471 0.33088 0.0
H1683 H 0.42215 0.78477 0.33268 0.0
H1684 H 0.37515 0.79553 0.35819 0.0
H1685 H 0.3998 0.83555 0.35633 0.0
C1686 C 0.46223 0.91333 0.39726 0.0
C1687 C 0.45393 0.9278 0.39558 0.0
C1688 C 0.46498 0.90294 0.38402 0.0
C1689 C 0.45944 0.90682 0.36886 0.0
C1690 C 0.45169 0.92172 0.36714 0.0
C1691 C 0.44895 0.9321 0.38036 0.0
C1692 C 0.45905 0.89347 0.35505 0.0
C1693 C 0.44577 0.87055 0.35584 0.0
C1694 C 0.46893 0.90313 0.34056 0.0
C1695 C 0.4845 0.92712 0.33937 0.0
C1696 C 0.4812 0.93934 0.32769 0.0
C1697 C 0.49577 0.96194 0.32672 0.0
C1698 C 0.51375 0.97253 0.33735 0.0
C1699 C 0.51723 0.96053 0.34894 0.0
C1700 C 0.50273 0.93792 0.34996 0.0
C1701 C 0.40552 0.84024 0.29496 0.0
C1702 C 0.41679 0.83476 0.28374 0.0
C1703 C 0.41581 0.85022 0.30928 0.0
C1704 C 0.43771 0.85526 0.31259 0.0
C1705 C 0.44912 0.84976 0.3015 0.0
C1706 C 0.43857 0.83924 0.28721 0.0
C1707 C 0.44842 0.86716 0.32748 0.0
C1708 C 0.46339 0.88979 0.32689 0.0
C1709 C 0.44034 0.85725 0.3422 0.0
C1710 C 0.42537 0.83317 0.34341 0.0
C1711 C 0.43148 0.81857 0.33677 0.0
C1712 C 0.41734 0.79591 0.33782 0.0
C1713 C 0.39706 0.78761 0.34554 0.0
C1714 C 0.39088 0.80198 0.35223 0.0
C1715 C 0.40495 0.82466 0.3512 0.0
H1716 H 0.38613 0.77006 0.34634 0.0
H1717 H 0.52499 0.99004 0.33658 0.0
H1718 H 0.48449 0.4297 0.54627 0.0
H1719 H 0.50954 0.43561 0.52442 0.0
H1720 H 0.54575 0.41321 0.5532 0.0
H1721 H 0.52148 0.40846 0.57536 0.0
H1722 H 0.57385 0.44509 0.53627 0.0
H1723 H 0.50379 0.37911 0.52541 0.0
H1724 H 0.46303 0.35733 0.52153 0.0
H1725 H 0.46685 0.39788 0.48275 0.0
H1726 H 0.50762 0.42007 0.48653 0.0
H1727 H 0.58823 0.39582 0.45679 0.0
H1728 H 0.56755 0.39394 0.48047 0.0
H1729 H 0.60286 0.46464 0.4841 0.0
H1730 H 0.6239 0.46669 0.46059 0.0
H1731 H 0.53937 0.40834 0.48499 0.0
H1732 H 0.60724 0.48031 0.5229 0.0
H1733 H 0.64787 0.49899 0.52764 0.0
H1734 H 0.64834 0.44039 0.51366 0.0
H1735 H 0.6077 0.42129 0.50904 0.0
C1736 C 0.49806 0.42645 0.54805 0.0
C1737 C 0.50118 0.41879 0.5626 0.0
C1738 C 0.51225 0.42965 0.53549 0.0
C1739 C 0.52931 0.42449 0.53706 0.0
C1740 C 0.53275 0.41734 0.55169 0.0
C1741 C 0.51886 0.41456 0.56432 0.0
C1742 C 0.54299 0.42558 0.52333 0.0
C1743 C 0.5663 0.43711 0.52505 0.0
C1744 C 0.53319 0.41484 0.50874 0.0
C1745 C 0.50872 0.40136 0.50634 0.0
C1746 C 0.49592 0.38344 0.51611 0.0
C1747 C 0.47282 0.37102 0.51393 0.0
C1748 C 0.46235 0.37625 0.50192 0.0
C1749 C 0.47498 0.39386 0.49205 0.0
C1750 C 0.49808 0.40636 0.4942 0.0
C1751 C 0.59179 0.41098 0.46271 0.0
C1752 C 0.60772 0.43141 0.45678 0.0
C1753 C 0.57988 0.40987 0.47621 0.0
C1754 C 0.5837 0.42914 0.48409 0.0
C1755 C 0.59984 0.44955 0.47834 0.0
C1756 C 0.61181 0.45068 0.46486 0.0
C1757 C 0.5702 0.42786 0.49793 0.0
C1758 C 0.54692 0.41637 0.49621 0.0
C1759 C 0.58003 0.43818 0.51261 0.0
C1760 C 0.60446 0.44946 0.51546 0.0
C1761 C 0.61601 0.4714 0.52088 0.0
C1762 C 0.63904 0.48206 0.52354 0.0
C1763 C 0.65069 0.4709 0.5209 0.0
C1764 C 0.63932 0.44904 0.51564 0.0
C1765 C 0.61629 0.4383 0.51298 0.0
H1766 H 0.66852 0.47919 0.52296 0.0
H1767 H 0.44446 0.36662 0.50026 0.0
H1768 H 0.1079 0.53886 0.74735 0.0
H1769 H 0.12424 0.55822 0.72286 0.0
H1770 H 0.11702 0.49873 0.70213 0.0
H1771 H 0.09994 0.47904 0.72642 0.0
H1772 H 0.16161 0.53853 0.70054 0.0
H1773 H 0.08401 0.51244 0.689 0.0
H1774 H 0.04688 0.5073 0.69451 0.0
H1775 H 0.07422 0.57715 0.69627 0.0
H1776 H 0.11161 0.58271 0.69101 0.0
H1777 H 0.19313 0.57739 0.62271 0.0
H1778 H 0.17498 0.55622 0.64613 0.0
H1779 H 0.16259 0.60751 0.66219 0.0
H1780 H 0.17983 0.62827 0.63845 0.0
H1781 H 0.12729 0.57063 0.66615 0.0
H1782 H 0.20416 0.5982 0.67903 0.0
H1783 H 0.24243 0.60544 0.67516 0.0
H1784 H 0.21852 0.53617 0.67287 0.0
H1785 H 0.18004 0.52851 0.67653 0.0
C1786 C 0.10966 0.52987 0.73754 0.0
C1787 C 0.10302 0.50754 0.73889 0.0
C1788 C 0.11897 0.54094 0.72358 0.0
C1789 C 0.12194 0.52989 0.71079 0.0
C1790 C 0.11499 0.50752 0.71196 0.0
C1791 C 0.1053 0.49634 0.72582 0.0
C1792 C 0.13284 0.54193 0.69633 0.0
C1793 C 0.15403 0.5453 0.69284 0.0
C1794 C 0.12316 0.5513 0.68669 0.0
C1795 C 0.10066 0.54799 0.68977 0.0
C1796 C 0.08215 0.5267 0.69071 0.0
C1797 C 0.06105 0.52372 0.69376 0.0
C1798 C 0.0582 0.54189 0.69578 0.0
C1799 C 0.07645 0.56309 0.69472 0.0
C1800 C 0.0976 0.56617 0.69169 0.0
C1801 C 0.1867 0.58423 0.63131 0.0
C1802 C 0.18794 0.60451 0.62876 0.0
C1803 C 0.17638 0.57214 0.64473 0.0
C1804 C 0.16762 0.58036 0.65607 0.0
C1805 C 0.16914 0.60077 0.65362 0.0
C1806 C 0.17909 0.61267 0.64007 0.0
C1807 C 0.1563 0.56745 0.67026 0.0
C1808 C 0.13498 0.56389 0.67375 0.0
C1809 C 0.16607 0.55825 0.68009 0.0
C1810 C 0.18919 0.56279 0.67789 0.0
C1811 C 0.20704 0.58451 0.67758 0.0
C1812 C 0.22877 0.58869 0.67544 0.0
C1813 C 0.2329 0.57128 0.67372 0.0
C1814 C 0.2153 0.54964 0.67418 0.0
C1815 C 0.19352 0.54537 0.6763 0.0
H1816 H 0.24974 0.57455 0.67207 0.0
H1817 H 0.04184 0.53954 0.69814 0.0
H1818 H 0.53617 0.1094 0.90719 0.0
H1819 H 0.53775 0.12906 0.87696 0.0
H1820 H 0.61309 0.13882 0.86633 0.0
H1821 H 0.61353 0.11934 0.89617 0.0
H1822 H 0.60745 0.17263 0.85785 0.0
H1823 H 0.557 0.09599 0.84298 0.0
H1824 H 0.52444 0.05914 0.84673 0.0
H1825 H 0.48172 0.08697 0.84874 0.0
H1826 H 0.51409 0.12398 0.84504 0.0
H1827 H 0.61112 0.19719 0.77676 0.0
H1828 H 0.61015 0.18087 0.80227 0.0
H1829 H 0.5451 0.1726 0.81065 0.0
H1830 H 0.54558 0.188 0.78481 0.0
H1831 H 0.54483 0.13763 0.81895 0.0
H1832 H 0.59486 0.21401 0.82957 0.0
H1833 H 0.62742 0.25067 0.82549 0.0
H1834 H 0.67117 0.22459 0.83209 0.0
H1835 H 0.63884 0.1877 0.83601 0.0
C1836 C 0.55071 0.11555 0.89987 0.0
C1837 C 0.57306 0.10865 0.9035 0.0
C1838 C 0.55137 0.12673 0.8807 0.0
C1839 C 0.57478 0.13453 0.86789 0.0
C1840 C 0.599 0.13304 0.87406 0.0
C1841 C 0.59997 0.12204 0.89295 0.0
C1842 C 0.57528 0.14456 0.85259 0.0
C1843 C 0.59391 0.16487 0.84923 0.0
C1844 C 0.55734 0.13476 0.84161 0.0
C1845 C 0.53793 0.11269 0.84399 0.0
C1846 C 0.54065 0.09421 0.8443 0.0
C1847 C 0.52225 0.07332 0.84638 0.0
C1848 C 0.50103 0.07073 0.84804 0.0
C1849 C 0.49817 0.08901 0.84752 0.0
C1850 C 0.51652 0.10994 0.84541 0.0
C1851 C 0.59666 0.19198 0.78408 0.0
C1852 C 0.57845 0.19392 0.7788 0.0
C1853 C 0.59616 0.18276 0.79871 0.0
C1854 C 0.57771 0.17583 0.80855 0.0
C1855 C 0.55954 0.17783 0.80329 0.0
C1856 C 0.55984 0.18667 0.78853 0.0
C1857 C 0.57705 0.16591 0.8241 0.0
C1858 C 0.55839 0.14555 0.82755 0.0
C1859 C 0.59493 0.17586 0.83524 0.0
C1860 C 0.61441 0.19805 0.83293 0.0
C1861 C 0.61142 0.21606 0.83004 0.0
C1862 C 0.62983 0.23689 0.82777 0.0
C1863 C 0.65135 0.23995 0.82849 0.0
C1864 C 0.65449 0.22219 0.83152 0.0
C1865 C 0.63613 0.20132 0.83378 0.0
H1866 H 0.66558 0.25608 0.82674 0.0
H1867 H 0.48681 0.05455 0.84968 0.0
H1868 H 0.42206 0.51529 0.07295 0.0
H1869 H 0.42561 0.54619 0.05764 0.0
H1870 H 0.4636 0.53433 0.02281 0.0
H1871 H 0.46082 0.50407 0.03838 0.0
H1872 H 0.47846 0.57704 0.02521 0.0
H1873 H 0.40623 0.51056 0.01993 0.0
H1874 H 0.37099 0.48061 0.0301 0.0
H1875 H 0.35434 0.52769 0.04832 0.0
H1876 H 0.38969 0.55795 0.03844 0.0
H1877 H 0.43888 0.57674 0.94885 0.0
H1878 H 0.45008 0.57145 0.97515 0.0
H1879 H 0.42329 0.60952 0.99574 0.0
H1880 H 0.41271 0.61554 0.96914 0.0
H1881 H 0.40491 0.5642 0.00618 0.0
H1882 H 0.47434 0.62964 0.00251 0.0
H1883 H 0.50892 0.65702 0.98991 0.0
H1884 H 0.53028 0.60951 0.9858 0.0
H1885 H 0.49568 0.58172 0.99815 0.0
C1886 C 0.43173 0.51973 0.06227 0.0
C1887 C 0.44132 0.50739 0.05688 0.0
C1888 C 0.43366 0.53731 0.0535 0.0
C1889 C 0.44463 0.54241 0.03897 0.0
C1890 C 0.45516 0.53081 0.03401 0.0
C1891 C 0.45348 0.51345 0.04287 0.0
C1892 C 0.44292 0.55776 0.02792 0.0
C1893 C 0.4624 0.57436 0.02111 0.0
C1894 C 0.42198 0.55463 0.02282 0.0
C1895 C 0.40069 0.53649 0.02865 0.0
C1896 C 0.39511 0.51451 0.0262 0.0
C1897 C 0.37512 0.49749 0.0319 0.0
C1898 C 0.36047 0.50224 0.0399 0.0
C1899 C 0.36574 0.52404 0.04216 0.0
C1900 C 0.38575 0.54113 0.03652 0.0
C1901 C 0.43597 0.5845 0.95896 0.0
C1902 C 0.42496 0.5965 0.95708 0.0
C1903 C 0.44246 0.58157 0.97394 0.0
C1904 C 0.43761 0.5902 0.98734 0.0
C1905 C 0.42736 0.60295 0.98548 0.0
C1906 C 0.42137 0.60639 0.97036 0.0
C1907 C 0.44037 0.58286 0.00307 0.0
C1908 C 0.42103 0.56758 0.01072 0.0
C1909 C 0.46139 0.5869 0.00865 0.0
C1910 C 0.48233 0.60355 0.00124 0.0
C1911 C 0.48633 0.62497 0.99883 0.0
C1912 C 0.50596 0.64058 0.99174 0.0
C1913 C 0.52178 0.635 0.98705 0.0
C1914 C 0.51802 0.61381 0.98945 0.0
C1915 C 0.49841 0.59813 0.99653 0.0
H1916 H 0.53697 0.64711 0.98157 0.0
H1917 H 0.34499 0.48904 0.0443 0.0
H1918 H 0.8791 0.48115 0.23756 0.0
H1919 H 0.85535 0.45979 0.20877 0.0
H1920 H 0.87236 0.39893 0.21574 0.0
H1921 H 0.89683 0.41896 0.24491 0.0
H1922 H 0.87908 0.41377 0.18629 0.0
H1923 H 0.81583 0.39669 0.21569 0.0
H1924 H 0.79145 0.40155 0.23428 0.0
H1925 H 0.78987 0.44927 0.20393 0.0
H1926 H 0.81453 0.445 0.18526 0.0
H1927 H 0.81356 0.3781 0.11123 0.0
H1928 H 0.82362 0.37717 0.1391 0.0
H1929 H 0.84376 0.44561 0.14473 0.0
H1930 H 0.83431 0.44688 0.11719 0.0
H1931 H 0.81148 0.41464 0.16766 0.0
H1932 H 0.88241 0.43548 0.14184 0.0
H1933 H 0.90572 0.42848 0.12356 0.0
H1934 H 0.88961 0.36922 0.14788 0.0
H1935 H 0.86594 0.37575 0.16618 0.0
C1936 C 0.8767 0.46526 0.23408 0.0
C1937 C 0.89374 0.45426 0.24279 0.0
C1938 C 0.86264 0.4522 0.21583 0.0
C1939 C 0.86187 0.42746 0.20877 0.0
C1940 C 0.87368 0.41402 0.22015 0.0
C1941 C 0.88816 0.42585 0.23862 0.0
C1942 C 0.85189 0.41857 0.19305 0.0
C1943 C 0.86397 0.41341 0.18233 0.0
C1944 C 0.83211 0.41794 0.18791 0.0
C1945 C 0.81718 0.42059 0.19909 0.0
C1946 C 0.81043 0.40834 0.21301 0.0
C1947 C 0.79653 0.41098 0.22357 0.0
C1948 C 0.78914 0.42573 0.2203 0.0
C1949 C 0.79559 0.43784 0.20644 0.0
C1950 C 0.8095 0.43528 0.19585 0.0
C1951 C 0.82033 0.39297 0.1184 0.0
C1952 C 0.8231 0.41255 0.112 0.0
C1953 C 0.82604 0.39239 0.13427 0.0
C1954 C 0.83428 0.41131 0.1439 0.0
C1955 C 0.83731 0.43084 0.13747 0.0
C1956 C 0.83197 0.43152 0.12168 0.0
C1957 C 0.83935 0.41114 0.16086 0.0
C1958 C 0.82624 0.41446 0.17181 0.0
C1959 C 0.85797 0.4098 0.16622 0.0
C1960 C 0.87215 0.40592 0.15521 0.0
C1961 C 0.88363 0.42083 0.14317 0.0
C1962 C 0.89697 0.41699 0.13284 0.0
C1963 C 0.89907 0.39837 0.13451 0.0
C1964 C 0.88791 0.3836 0.14656 0.0
C1965 C 0.87455 0.38737 0.15692 0.0
H1966 H 0.90941 0.39543 0.12651 0.0
H1967 H 0.77839 0.42776 0.22849 0.0
loop_
_geom_bond_atom_site_label_1
_geom_bond_atom_site_label_2
_geom_bond_distance
_geom_bond_site_symmetry_2
_ccdc_geom_bond_type
C0 C1 1.560 . S
C0 H61 0.959 . S
C0 H62 0.959 . S
C0 H63 0.960 . S
C1 C0 1.560 . S
C1 O56 1.426 . S
C1 H60 0.980 . S
C2 C3 1.407 . S
C2 C7 1.418 . S
C2 O56 1.334 . S
C3 C2 1.407 . S
C3 C4 1.360 . S
C3 H64 0.929 . S
C4 C3 1.360 . S
C4 C5 1.401 . S
C4 C8 1.527 . S
C5 C4 1.401 . S
C5 C6 1.405 . S
C5 C38 1.587 . S
C6 C5 1.405 . S
C6 C7 1.332 . S
C6 C9 1.496 . S
C7 C2 1.418 . S
C7 C6 1.332 . S
C7 H65 0.929 . S
C8 C4 1.527 . S
C8 H66 0.959 . S
C8 H67 0.961 . S
C8 H68 0.961 . S
C9 C6 1.496 . S
C9 H69 0.960 . S
C9 H70 0.960 . S
C9 H71 0.961 . S
C10 C11 1.517 . S
C10 H73 0.961 . S
C10 H74 0.960 . S
C10 H75 0.959 . S
C11 C10 1.517 . S
C11 O59 1.468 . S
C11 H72 0.980 . S
C12 C13 1.349 . S
C12 C17 1.367 . S
C12 O59 1.408 . S
C13 C12 1.349 . S
C13 C14 1.407 . S
C13 H76 0.930 . S
C14 C13 1.407 . S
C14 C15 1.449 . S
C14 C18 1.535 . S
C15 C14 1.449 . S
C15 C16 1.384 . S
C15 C40 1.553 1_655 S
C16 C15 1.384 . S
C16 C17 1.364 . S
C16 C19 1.450 . S
C17 C12 1.367 . S
C17 C16 1.364 . S
C17 H77 0.931 . S
C18 C14 1.535 . S
C18 H78 0.959 1_655 S
C18 H79 0.960 1_655 S
C18 H80 0.959 . S
C19 C16 1.450 . S
C19 H81 0.960 . S
C19 H82 0.960 1_655 S
C19 H83 0.960 . S
C20 C21 1.309 . S
C20 C25 1.304 . S
C20 O58 1.435 . S
C21 C20 1.309 . S
C21 C22 1.476 . S
C21 H85 0.930 . S
C22 C21 1.476 . S
C22 C23 1.400 . S
C22 C26 1.567 . S
C23 C22 1.400 . S
C23 C24 1.373 . S
C23 C45 1.432 . S
C24 C23 1.373 . S
C24 C25 1.339 . S
C24 C27 1.530 . S
C25 C20 1.304 . S
C25 C24 1.339 . S
C25 H86 0.930 . S
C26 C22 1.567 . S
C26 H87 0.961 . S
C26 H88 0.960 . S
C26 H89 0.958 . S
C27 C24 1.530 . S
C27 H90 0.961 . S
C27 H91 0.960 . S
C27 H92 0.960 . S
C28 C29 1.530 . S
C28 H94 0.961 . S
C28 H95 0.961 . S
C28 H96 0.959 . S
C29 C28 1.530 . S
C29 O57 1.412 . S
C29 H93 0.980 . S
C30 C31 1.288 . S
C30 C35 1.377 . S
C30 O57 1.393 . S
C31 C30 1.288 . S
C31 C32 1.369 . S
C31 H97 0.932 . S
C32 C31 1.369 . S
C32 C33 1.398 . S
C32 C36 1.527 . S
C33 C32 1.398 . S
C33 C34 1.380 . S
C33 C47 1.497 . S
C34 C33 1.380 . S
C34 C35 1.383 . S
C34 C37 1.603 . S
C35 C30 1.377 . S
C35 C34 1.383 . S
C35 H98 0.929 . S
C36 C32 1.527 . S
C36 H99 0.961 . S
C36 H100 0.939 1_455 S
C36 H101 0.959 . S
C37 C34 1.603 . S
C37 H102 0.960 . S
C37 H103 0.962 . S
C37 H104 0.961 . S
C38 C5 1.587 . S
C38 C39 1.360 . S
C38 C51 1.412 . S
C39 C38 1.360 . S
C39 C40 1.365 . S
C39 H105 0.929 . S
C40 C15 1.553 1_455 S
C40 C39 1.365 . S
C40 C41 1.421 . S
C41 C40 1.421 . S
C41 C42 1.360 1_455 S
C41 C52 1.471 . S
C42 C41 1.360 1_655 S
C42 C43 1.322 . S
C42 H106 0.930 . S
C43 C42 1.322 . S
C43 C44 1.459 . S
C43 H107 0.929 . S
C44 C43 1.459 . S
C44 C45 1.445 . S
C44 C53 1.395 1_655 S
C45 C23 1.432 . S
C45 C44 1.445 . S
C45 C46 1.370 . S
C46 C45 1.370 . S
C46 C47 1.438 1_655 S
C46 H108 0.930 . S
C47 C33 1.497 . S
C47 C46 1.438 1_455 S
C47 C48 1.360 . S
C48 C47 1.360 . S
C48 C49 1.401 . S
C48 C53 1.446 . S
C49 C48 1.401 . S
C49 C50 1.347 . S
C49 H109 0.929 . S
C50 C49 1.347 . S
C50 C51 1.455 . S
C50 H110 0.930 . S
C51 C38 1.412 . S
C51 C50 1.455 . S
C51 C52 1.331 . S
C52 C41 1.471 . S
C52 C51 1.331 . S
C52 C53 1.497 . S
C53 C44 1.395 1_455 S
C53 C48 1.446 . S
C53 C52 1.497 . S
C54 C55 1.582 . S
C54 H111 0.962 . S
C54 H112 0.959 . S
C54 H113 0.958 . S
C55 C54 1.582 . S
C55 O58 1.458 . S
C55 H84 0.980 . S
O56 C1 1.426 . S
O56 C2 1.334 . S
O57 C29 1.412 . S
O57 C30 1.393 . S
O58 C20 1.435 . S
O58 C55 1.458 . S
O59 C11 1.468 . S
O59 C12 1.408 . S
H60 C1 0.980 . S
H61 C0 0.959 . S
H62 C0 0.959 . S
H63 C0 0.960 . S
H64 C3 0.929 . S
H65 C7 0.929 . S
H66 C8 0.959 . S
H67 C8 0.961 . S
H68 C8 0.961 . S
H69 C9 0.960 . S
H70 C9 0.960 . S
H71 C9 0.961 . S
H72 C11 0.980 . S
H73 C10 0.961 . S
H74 C10 0.960 . S
H75 C10 0.959 . S
H76 C13 0.930 . S
H77 C17 0.931 . S
H78 C18 0.959 1_455 S
H79 C18 0.960 1_455 S
H80 C18 0.959 . S
H81 C19 0.960 . S
H82 C19 0.960 1_455 S
H83 C19 0.960 . S
H84 C55 0.980 . S
H85 C21 0.930 . S
H86 C25 0.930 . S
H87 C26 0.961 . S
H88 C26 0.960 . S
H89 C26 0.958 . S
H90 C27 0.961 . S
H91 C27 0.960 . S
H92 C27 0.960 . S
H93 C29 0.980 . S
H94 C28 0.961 . S
H95 C28 0.961 . S
H96 C28 0.959 . S
H97 C31 0.932 . S
H98 C35 0.929 . S
H99 C36 0.961 . S
H100 C36 0.939 1_655 S
H101 C36 0.959 . S
H102 C37 0.960 . S
H103 C37 0.962 . S
H104 C37 0.961 . S
H105 C39 0.929 . S
H106 C42 0.930 . S
H107 C43 0.929 . S
H108 C46 0.930 . S
H109 C49 0.929 . S
H110 C50 0.930 . S
H111 C54 0.962 . S
H112 C54 0.959 . S
H113 C54 0.958 . S
C114 C115 1.560 . S
C114 H175 0.959 . S
C114 H176 0.959 . S
C114 H177 0.960 . S
C115 C114 1.560 . S
C115 O170 1.426 . S
C115 H174 0.980 . S
C116 C117 1.407 . S
C116 C121 1.418 . S
C116 O170 1.334 . S
C117 C116 1.407 . S
C117 C118 1.360 . S
C117 H178 0.929 . S
C118 C117 1.360 . S
C118 C119 1.401 . S
C118 C122 1.527 . S
C119 C118 1.401 . S
C119 C120 1.405 . S
C119 C152 1.587 . S
C120 C119 1.405 . S
C120 C121 1.332 . S
C120 C123 1.496 . S
C121 C116 1.418 . S
C121 C120 1.332 . S
C121 H179 0.929 . S
C122 C118 1.527 . S
C122 H180 0.959 . S
C122 H181 0.961 . S
C122 H182 0.961 . S
C123 C120 1.496 . S
C123 H183 0.960 . S
C123 H184 0.960 . S
C123 H185 0.961 . S
C124 C125 1.517 . S
C124 H187 0.961 . S
C124 H188 0.960 . S
C124 H189 0.959 . S
C125 C124 1.517 . S
C125 O173 1.468 . S
C125 H186 0.980 . S
C126 C127 1.349 . S
C126 C131 1.367 . S
C126 O173 1.408 . S
C127 C126 1.349 . S
C127 C128 1.407 . S
C127 H190 0.930 . S
C128 C127 1.407 . S
C128 C129 1.449 . S
C128 C132 1.535 . S
C129 C128 1.449 . S
C129 C130 1.384 . S
C129 C154 1.553 . S
C130 C129 1.384 . S
C130 C131 1.364 . S
C130 C133 1.450 . S
C131 C126 1.367 . S
C131 C130 1.364 . S
C131 H191 0.931 . S
C132 C128 1.535 . S
C132 H192 0.959 . S
C132 H193 0.961 . S
C132 H194 0.959 . S
C133 C130 1.450 . S
C133 H195 0.960 . S
C133 H196 0.960 . S
C133 H197 0.960 . S
C134 C135 1.309 . S
C134 C139 1.304 . S
C134 O172 1.435 . S
C135 C134 1.309 . S
C135 C136 1.476 . S
C135 H199 0.930 . S
C136 C135 1.476 . S
C136 C137 1.400 . S
C136 C140 1.567 . S
C137 C136 1.400 . S
C137 C138 1.373 . S
C137 C159 1.432 . S
C138 C137 1.373 . S
C138 C139 1.339 . S
C138 C141 1.530 . S
C139 C134 1.304 . S
C139 C138 1.339 . S
C139 H200 0.930 . S
C140 C136 1.567 . S
C140 H201 0.961 . S
C140 H202 0.960 . S
C140 H203 0.958 . S
C141 C138 1.530 . S
C141 H204 0.961 . S
C141 H205 0.960 . S
C141 H206 0.960 . S
C142 C143 1.530 . S
C142 H208 0.961 . S
C142 H209 0.961 . S
C142 H210 0.959 . S
C143 C142 1.530 . S
C143 O171 1.412 . S
C143 H207 0.980 . S
C144 C145 1.288 . S
C144 C149 1.377 . S
C144 O171 1.393 . S
C145 C144 1.288 . S
C145 C146 1.369 . S
C145 H211 0.932 . S
C146 C145 1.369 . S
C146 C147 1.398 . S
C146 C150 1.527 . S
C147 C146 1.398 . S
C147 C148 1.380 . S
C147 C161 1.497 1_565 S
C148 C147 1.380 . S
C148 C149 1.383 . S
C148 C151 1.603 . S
C149 C144 1.377 . S
C149 C148 1.383 . S
C149 H212 0.929 . S
C150 C146 1.527 . S
C150 H213 0.961 . S
C150 H214 0.959 1_565 S
C150 H215 0.959 . S
C151 C148 1.603 . S
C151 H216 0.960 . S
C151 H217 0.962 . S
C151 H218 0.961 . S
C152 C119 1.587 . S
C152 C153 1.360 . S
C152 C165 1.412 . S
C153 C152 1.360 . S
C153 C154 1.365 1_565 S
C153 H219 0.929 . S
C154 C129 1.553 . S
C154 C153 1.365 1_545 S
C154 C155 1.404 . S
C155 C154 1.404 . S
C155 C156 1.395 . S
C155 C166 1.451 1_545 S
C156 C155 1.395 . S
C156 C157 1.322 . S
C156 H220 0.930 . S
C157 C156 1.322 . S
C157 C158 1.459 . S
C157 H221 0.929 . S
C158 C157 1.459 . S
C158 C159 1.445 . S
C158 C167 1.395 . S
C159 C137 1.432 . S
C159 C158 1.445 . S
C159 C160 1.370 . S
C160 C159 1.370 . S
C160 C161 1.438 . S
C160 H222 0.930 . S
C161 C147 1.497 1_545 S
C161 C160 1.438 . S
C161 C162 1.360 1_545 S
C162 C161 1.360 1_565 S
C162 C163 1.401 . S
C162 C167 1.446 1_565 S
C163 C162 1.401 . S
C163 C164 1.347 . S
C163 H223 0.929 . S
C164 C163 1.347 . S
C164 C165 1.455 . S
C164 H224 0.930 . S
C165 C152 1.412 . S
C165 C164 1.455 . S
C165 C166 1.331 . S
C166 C155 1.451 1_565 S
C166 C165 1.331 . S
C166 C167 1.497 1_565 S
C167 C158 1.395 . S
C167 C162 1.446 1_545 S
C167 C166 1.497 1_545 S
C168 C169 1.582 . S
C168 H225 0.962 . S
C168 H226 0.959 . S
C168 H227 0.958 . S
C169 C168 1.582 . S
C169 O172 1.458 . S
C169 H198 0.980 . S
O170 C115 1.426 . S
O170 C116 1.334 . S
O171 C143 1.412 . S
O171 C144 1.393 . S
O172 C134 1.435 . S
O172 C169 1.458 . S
O173 C125 1.468 . S
O173 C126 1.408 . S
H174 C115 0.980 . S
H175 C114 0.959 . S
H176 C114 0.959 . S
H177 C114 0.960 . S
H178 C117 0.929 . S
H179 C121 0.929 . S
H180 C122 0.959 . S
H181 C122 0.961 . S
H182 C122 0.961 . S
H183 C123 0.960 . S
H184 C123 0.960 . S
H185 C123 0.961 . S
H186 C125 0.980 . S
H187 C124 0.961 . S
H188 C124 0.960 . S
H189 C124 0.959 . S
H190 C127 0.930 . S
H191 C131 0.931 . S
H192 C132 0.959 . S
H193 C132 0.961 . S
H194 C132 0.959 . S
H195 C133 0.960 . S
H196 C133 0.960 . S
H197 C133 0.960 . S
H198 C169 0.980 . S
H199 C135 0.930 . S
H200 C139 0.930 . S
H201 C140 0.961 . S
H202 C140 0.960 . S
H203 C140 0.958 . S
H204 C141 0.961 . S
H205 C141 0.960 . S
H206 C141 0.960 . S
H207 C143 0.980 . S
H208 C142 0.961 . S
H209 C142 0.961 . S
H210 C142 0.959 . S
H211 C145 0.932 . S
H212 C149 0.929 . S
H213 C150 0.961 . S
H214 C150 0.959 1_545 S
H215 C150 0.959 . S
H216 C151 0.960 . S
H217 C151 0.962 . S
H218 C151 0.961 . S
H219 C153 0.929 . S
H220 C156 0.930 . S
H221 C157 0.929 . S
H222 C160 0.930 . S
H223 C163 0.929 . S
H224 C164 0.930 . S
H225 C168 0.962 . S
H226 C168 0.959 . S
H227 C168 0.958 . S
C228 C229 1.560 . S
C228 H289 0.959 . S
C228 H290 0.959 . S
C228 H291 0.960 . S
C229 C228 1.560 . S
C229 O284 1.426 . S
C229 H288 0.980 . S
C230 C231 1.407 . S
C230 C235 1.418 . S
C230 O284 1.334 . S
C231 C230 1.407 . S
C231 C232 1.360 . S
C231 H292 0.929 . S
C232 C231 1.360 . S
C232 C233 1.401 . S
C232 C236 1.527 . S
C233 C232 1.401 . S
C233 C234 1.405 . S
C233 C266 1.587 . S
C234 C233 1.405 . S
C234 C235 1.332 . S
C234 C237 1.496 . S
C235 C230 1.418 . S
C235 C234 1.332 . S
C235 H293 0.929 . S
C236 C232 1.527 . S
C236 H294 0.959 . S
C236 H295 0.961 . S
C236 H296 0.961 . S
C237 C234 1.496 . S
C237 H297 0.960 . S
C237 H298 0.960 . S
C237 H299 0.961 . S
C238 C239 1.517 . S
C238 H301 0.961 . S
C238 H302 0.960 . S
C238 H303 0.959 . S
C239 C238 1.517 . S
C239 O287 1.468 . S
C239 H300 0.980 . S
C240 C241 1.349 . S
C240 C245 1.367 . S
C240 O287 1.408 . S
C241 C240 1.349 . S
C241 C242 1.407 . S
C241 H304 0.930 . S
C242 C241 1.407 . S
C242 C243 1.449 . S
C242 C246 1.535 . S
C243 C242 1.449 . S
C243 C244 1.384 . S
C243 C268 1.553 . S
C244 C243 1.384 . S
C244 C245 1.364 . S
C244 C247 1.450 . S
C245 C240 1.367 . S
C245 C244 1.364 . S
C245 H305 0.931 . S
C246 C242 1.535 . S
C246 H306 0.959 . S
C246 H307 0.961 . S
C246 H308 0.959 . S
C247 C244 1.450 . S
C247 H309 0.960 . S
C247 H310 0.960 . S
C247 H311 0.960 . S
C248 C249 1.309 . S
C248 C253 1.304 . S
C248 O286 1.435 . S
C249 C248 1.309 . S
C249 C250 1.476 . S
C249 H313 0.930 . S
C250 C249 1.476 . S
C250 C251 1.400 . S
C250 C254 1.567 . S
C251 C250 1.400 . S
C251 C252 1.373 . S
C251 C273 1.432 . S
C252 C251 1.373 . S
C252 C253 1.339 . S
C252 C255 1.530 . S
C253 C248 1.304 . S
C253 C252 1.339 . S
C253 H314 0.930 . S
C254 C250 1.567 . S
C254 H315 0.961 . S
C254 H316 0.960 . S
C254 H317 0.958 . S
C255 C252 1.530 . S
C255 H318 0.961 . S
C255 H319 0.960 . S
C255 H320 0.960 . S
C256 C257 1.530 . S
C256 H322 0.961 . S
C256 H323 0.961 . S
C256 H324 0.959 . S
C257 C256 1.530 . S
C257 O285 1.412 . S
C257 H321 0.980 . S
C258 C259 1.288 . S
C258 C263 1.377 . S
C258 O285 1.393 . S
C259 C258 1.288 . S
C259 C260 1.369 . S
C259 H325 0.932 . S
C260 C259 1.369 . S
C260 C261 1.398 . S
C260 C264 1.527 . S
C261 C260 1.398 . S
C261 C262 1.380 . S
C261 C275 1.497 . S
C262 C261 1.380 . S
C262 C263 1.383 . S
C262 C265 1.603 . S
C263 C258 1.377 . S
C263 C262 1.383 . S
C263 H326 0.929 . S
C264 C260 1.527 . S
C264 H327 0.961 . S
C264 H328 0.959 . S
C264 H329 0.959 . S
C265 C262 1.603 . S
C265 H330 0.960 . S
C265 H331 0.962 . S
C265 H332 0.961 . S
C266 C233 1.587 . S
C266 C267 1.360 . S
C266 C279 1.412 . S
C267 C266 1.360 . S
C267 C268 1.365 . S
C267 H333 0.929 . S
C268 C243 1.553 . S
C268 C267 1.365 . S
C268 C269 1.404 . S
C269 C268 1.404 . S
C269 C270 1.395 . S
C269 C280 1.451 . S
C270 C269 1.395 . S
C270 C271 1.322 . S
C270 H334 0.930 . S
C271 C270 1.322 . S
C271 C272 1.459 . S
C271 H335 0.929 . S
C272 C271 1.459 . S
C272 C273 1.445 . S
C272 C281 1.395 . S
C273 C251 1.432 . S
C273 C272 1.445 . S
C273 C274 1.370 . S
C274 C273 1.370 . S
C274 C275 1.438 . S
C274 H336 0.930 . S
C275 C261 1.497 . S
C275 C274 1.438 . S
C275 C276 1.360 . S
C276 C275 1.360 . S
C276 C277 1.401 . S
C276 C281 1.446 . S
C277 C276 1.401 . S
C277 C278 1.347 . S
C277 H337 0.929 . S
C278 C277 1.347 . S
C278 C279 1.455 . S
C278 H338 0.930 . S
C279 C266 1.412 . S
C279 C278 1.455 . S
C279 C280 1.331 . S
C280 C269 1.451 . S
C280 C279 1.331 . S
C280 C281 1.497 . S
C281 C272 1.395 . S
C281 C276 1.446 . S
C281 C280 1.497 . S
C282 C283 1.582 . S
C282 H339 0.962 . S
C282 H340 0.959 . S
C282 H341 0.958 . S
C283 C282 1.582 . S
C283 O286 1.458 . S
C283 H312 0.980 . S
O284 C229 1.426 . S
O284 C230 1.334 . S
O285 C257 1.412 . S
O285 C258 1.393 . S
O286 C248 1.435 . S
O286 C283 1.458 . S
O287 C239 1.468 . S
O287 C240 1.408 . S
H288 C229 0.980 . S
H289 C228 0.959 . S
H290 C228 0.959 . S
H291 C228 0.960 . S
H292 C231 0.929 . S
H293 C235 0.929 . S
H294 C236 0.959 . S
H295 C236 0.961 . S
H296 C236 0.961 . S
H297 C237 0.960 . S
H298 C237 0.960 . S
H299 C237 0.961 . S
H300 C239 0.980 . S
H301 C238 0.961 . S
H302 C238 0.960 . S
H303 C238 0.959 . S
H304 C241 0.930 . S
H305 C245 0.931 . S
H306 C246 0.959 . S
H307 C246 0.961 . S
H308 C246 0.959 . S
H309 C247 0.960 . S
H310 C247 0.960 . S
H311 C247 0.960 . S
H312 C283 0.980 . S
H313 C249 0.930 . S
H314 C253 0.930 . S
H315 C254 0.961 . S
H316 C254 0.960 . S
H317 C254 0.958 . S
H318 C255 0.961 . S
H319 C255 0.960 . S
H320 C255 0.960 . S
H321 C257 0.980 . S
H322 C256 0.961 . S
H323 C256 0.961 . S
H324 C256 0.959 . S
H325 C259 0.932 . S
H326 C263 0.929 . S
H327 C264 0.961 . S
H328 C264 0.959 . S
H329 C264 0.959 . S
H330 C265 0.960 . S
H331 C265 0.962 . S
H332 C265 0.961 . S
H333 C267 0.929 . S
H334 C270 0.930 . S
H335 C271 0.929 . S
H336 C274 0.930 . S
H337 C277 0.929 . S
H338 C278 0.930 . S
H339 C282 0.962 . S
H340 C282 0.959 . S
H341 C282 0.958 . S
C342 C343 1.560 . S
C342 H403 0.959 . S
C342 H404 0.959 . S
C342 H405 0.960 . S
C343 C342 1.560 . S
C343 O398 1.426 . S
C343 H402 0.980 . S
C344 C345 1.407 . S
C344 C349 1.418 . S
C344 O398 1.334 . S
C345 C344 1.407 . S
C345 C346 1.360 . S
C345 H406 0.929 . S
C346 C345 1.360 . S
C346 C347 1.401 . S
C346 C350 1.527 . S
C347 C346 1.401 . S
C347 C348 1.405 . S
C347 C380 1.587 . S
C348 C347 1.405 . S
C348 C349 1.332 . S
C348 C351 1.496 . S
C349 C344 1.418 . S
C349 C348 1.332 . S
C349 H407 0.929 . S
C350 C346 1.527 . S
C350 H408 0.959 . S
C350 H409 0.961 . S
C350 H410 0.961 . S
C351 C348 1.496 . S
C351 H411 0.960 . S
C351 H412 0.960 . S
C351 H413 0.961 . S
C352 C353 1.517 . S
C352 H415 0.961 . S
C352 H416 0.960 . S
C352 H417 0.959 . S
C353 C352 1.517 . S
C353 O401 1.468 . S
C353 H414 0.980 . S
C354 C355 1.349 . S
C354 C359 1.367 . S
C354 O401 1.408 . S
C355 C354 1.349 . S
C355 C356 1.407 . S
C355 H418 0.930 . S
C356 C355 1.407 . S
C356 C357 1.447 . S
C356 C360 1.535 1_655 S
C357 C356 1.447 . S
C357 C358 1.394 . S
C357 C382 1.546 1_655 S
C358 C357 1.394 . S
C358 C359 1.364 . S
C358 C361 1.445 . S
C359 C354 1.367 . S
C359 C358 1.364 . S
C359 H419 0.931 . S
C360 C356 1.535 1_455 S
C360 H420 0.959 . S
C360 H421 0.961 . S
C360 H422 0.959 1_455 S
C361 C358 1.445 . S
C361 H423 0.990 . S
C361 H424 0.917 1_655 S
C361 H425 0.980 . S
C362 C363 1.309 . S
C362 C367 1.304 . S
C362 O400 1.435 . S
C363 C362 1.309 . S
C363 C364 1.476 . S
C363 H427 0.930 . S
C364 C363 1.476 . S
C364 C365 1.400 . S
C364 C368 1.567 . S
C365 C364 1.400 . S
C365 C366 1.373 . S
C365 C387 1.432 . S
C366 C365 1.373 . S
C366 C367 1.339 . S
C366 C369 1.530 . S
C367 C362 1.304 . S
C367 C366 1.339 . S
C367 H428 0.930 . S
C368 C364 1.567 . S
C368 H429 0.961 . S
C368 H430 0.960 . S
C368 H431 0.958 . S
C369 C366 1.530 . S
C369 H432 0.961 . S
C369 H433 0.960 . S
C369 H434 0.960 . S
C370 C371 1.530 . S
C370 H436 0.961 . S
C370 H437 0.961 . S
C370 H438 0.959 . S
C371 C370 1.530 . S
C371 O399 1.412 . S
C371 H435 0.980 . S
C372 C373 1.288 . S
C372 C377 1.377 . S
C372 O399 1.393 . S
C373 C372 1.288 . S
C373 C374 1.369 . S
C373 H439 0.932 . S
C374 C373 1.369 . S
C374 C375 1.398 . S
C374 C378 1.527 . S
C375 C374 1.398 . S
C375 C376 1.380 . S
C375 C389 1.497 . S
C376 C375 1.380 . S
C376 C377 1.383 . S
C376 C379 1.603 . S
C377 C372 1.377 . S
C377 C376 1.383 . S
C377 H440 0.929 . S
C378 C374 1.527 . S
C378 H441 0.961 . S
C378 H442 0.959 . S
C378 H443 0.959 . S
C379 C376 1.603 . S
C379 H444 0.960 . S
C379 H445 0.962 . S
C379 H446 0.961 . S
C380 C347 1.587 . S
C380 C381 1.360 . S
C380 C393 1.412 . S
C381 C380 1.360 . S
C381 C382 1.365 . S
C381 H447 0.929 . S
C382 C357 1.546 1_455 S
C382 C381 1.365 . S
C382 C383 1.404 . S
C383 C382 1.404 . S
C383 C384 1.395 1_455 S
C383 C394 1.451 . S
C384 C383 1.395 1_655 S
C384 C385 1.322 . S
C384 H448 0.930 . S
C385 C384 1.322 . S
C385 C386 1.459 . S
C385 H449 0.929 . S
C386 C385 1.459 . S
C386 C387 1.445 . S
C386 C395 1.395 1_655 S
C387 C365 1.432 . S
C387 C386 1.445 . S
C387 C388 1.370 . S
C388 C387 1.370 . S
C388 C389 1.438 1_655 S
C388 H450 0.930 . S
C389 C375 1.497 . S
C389 C388 1.438 1_455 S
C389 C390 1.360 . S
C390 C389 1.360 . S
C390 C391 1.401 . S
C390 C395 1.446 . S
C391 C390 1.401 . S
C391 C392 1.347 . S
C391 H451 0.929 . S
C392 C391 1.347 . S
C392 C393 1.455 . S
C392 H452 0.930 . S
C393 C380 1.412 . S
C393 C392 1.455 . S
C393 C394 1.331 . S
C394 C383 1.451 . S
C394 C393 1.331 . S
C394 C395 1.497 . S
C395 C386 1.395 1_455 S
C395 C390 1.446 . S
C395 C394 1.497 . S
C396 C397 1.582 . S
C396 H453 0.962 . S
C396 H454 0.959 . S
C396 H455 0.958 . S
C397 C396 1.582 . S
C397 O400 1.458 . S
C397 H426 0.980 . S
O398 C343 1.426 . S
O398 C344 1.334 . S
O399 C371 1.412 . S
O399 C372 1.393 . S
O400 C362 1.435 . S
O400 C397 1.458 . S
O401 C353 1.468 . S
O401 C354 1.408 . S
H402 C343 0.980 . S
H403 C342 0.959 . S
H404 C342 0.959 . S
H405 C342 0.960 . S
H406 C345 0.929 . S
H407 C349 0.929 . S
H408 C350 0.959 . S
H409 C350 0.961 . S
H410 C350 0.961 . S
H411 C351 0.960 . S
H412 C351 0.960 . S
H413 C351 0.961 . S
H414 C353 0.980 . S
H415 C352 0.961 . S
H416 C352 0.960 . S
H417 C352 0.959 . S
H418 C355 0.930 . S
H419 C359 0.931 . S
H420 C360 0.959 . S
H421 C360 0.961 . S
H422 C360 0.959 1_655 S
H423 C361 0.990 . S
H424 C361 0.917 1_455 S
H425 C361 0.980 . S
H426 C397 0.980 . S
H427 C363 0.930 . S
H428 C367 0.930 . S
H429 C368 0.961 . S
H430 C368 0.960 . S
H431 C368 0.958 . S
H432 C369 0.961 . S
H433 C369 0.960 . S
H434 C369 0.960 . S
H435 C371 0.980 . S
H436 C370 0.961 . S
H437 C370 0.961 . S
H438 C370 0.959 . S
H439 C373 0.932 . S
H440 C377 0.929 . S
H441 C378 0.961 . S
H442 C378 0.959 . S
H443 C378 0.959 . S
H444 C379 0.960 . S
H445 C379 0.962 . S
H446 C379 0.961 . S
H447 C381 0.929 . S
H448 C384 0.930 . S
H449 C385 0.929 . S
H450 C388 0.930 . S
H451 C391 0.929 . S
H452 C392 0.930 . S
H453 C396 0.962 . S
H454 C396 0.959 . S
H455 C396 0.958 . S
C456 C457 1.560 . S
C456 H517 0.959 . S
C456 H518 0.959 . S
C456 H519 0.960 . S
C457 C456 1.560 . S
C457 O512 1.426 . S
C457 H516 0.980 . S
C458 C459 1.407 . S
C458 C463 1.418 . S
C458 O512 1.334 . S
C459 C458 1.407 . S
C459 C460 1.360 . S
C459 H520 0.929 . S
C460 C459 1.360 . S
C460 C461 1.401 . S
C460 C464 1.527 . S
C461 C460 1.401 . S
C461 C462 1.405 . S
C461 C494 1.587 . S
C462 C461 1.405 . S
C462 C463 1.332 . S
C462 C465 1.496 . S
C463 C458 1.418 . S
C463 C462 1.332 . S
C463 H521 0.929 . S
C464 C460 1.527 . S
C464 H522 0.959 . S
C464 H523 0.961 . S
C464 H524 0.961 . S
C465 C462 1.496 . S
C465 H525 0.960 . S
C465 H526 0.960 . S
C465 H527 0.961 . S
C466 C467 1.517 . S
C466 H529 0.961 . S
C466 H530 0.960 . S
C466 H531 0.959 . S
C467 C466 1.517 . S
C467 O515 1.468 . S
C467 H528 0.980 . S
C468 C469 1.349 . S
C468 C473 1.367 . S
C468 O515 1.408 . S
C469 C468 1.349 . S
C469 C470 1.407 . S
C469 H532 0.930 . S
C470 C469 1.407 . S
C470 C471 1.449 . S
C470 C474 1.535 . S
C471 C470 1.449 . S
C471 C472 1.384 . S
C471 C496 1.553 . S
C472 C471 1.384 . S
C472 C473 1.364 . S
C472 C475 1.450 . S
C473 C468 1.367 . S
C473 C472 1.364 . S
C473 H533 0.931 . S
C474 C470 1.535 . S
C474 H534 0.959 . S
C474 H535 0.961 . S
C474 H536 0.959 . S
C475 C472 1.450 . S
C475 H537 0.960 . S
C475 H538 0.960 . S
C475 H539 0.960 . S
C476 C477 1.309 . S
C476 C481 1.304 . S
C476 O514 1.435 . S
C477 C476 1.309 . S
C477 C478 1.476 . S
C477 H541 0.930 . S
C478 C477 1.476 . S
C478 C479 1.400 . S
C478 C482 1.567 . S
C479 C478 1.400 . S
C479 C480 1.373 . S
C479 C501 1.432 . S
C480 C479 1.373 . S
C480 C481 1.339 . S
C480 C483 1.530 . S
C481 C476 1.304 . S
C481 C480 1.339 . S
C481 H542 0.930 . S
C482 C478 1.567 . S
C482 H543 0.961 . S
C482 H544 0.960 . S
C482 H545 0.958 . S
C483 C480 1.530 . S
C483 H546 0.961 . S
C483 H547 0.960 . S
C483 H548 0.960 . S
C484 C485 1.530 . S
C484 H550 0.961 . S
C484 H551 0.961 . S
C484 H552 0.959 . S
C485 C484 1.530 . S
C485 O513 1.412 . S
C485 H549 0.980 . S
C486 C487 1.288 . S
C486 C491 1.377 . S
C486 O513 1.393 . S
C487 C486 1.288 . S
C487 C488 1.369 . S
C487 H553 0.932 . S
C488 C487 1.369 . S
C488 C489 1.398 . S
C488 C492 1.527 1_565 S
C489 C488 1.398 . S
C489 C490 1.380 . S
C489 C503 1.497 1_565 S
C490 C489 1.380 . S
C490 C491 1.383 . S
C490 C493 1.603 . S
C491 C486 1.377 . S
C491 C490 1.383 . S
C491 H554 0.929 . S
C492 C488 1.527 1_545 S
C492 H555 0.961 . S
C492 H556 0.959 . S
C492 H557 0.959 1_545 S
C493 C490 1.603 . S
C493 H558 0.960 . S
C493 H559 0.962 . S
C493 H560 0.961 . S
C494 C461 1.587 . S
C494 C495 1.360 . S
C494 C507 1.412 . S
C495 C494 1.360 . S
C495 C496 1.365 1_565 S
C495 H561 0.929 . S
C496 C471 1.553 . S
C496 C495 1.365 1_545 S
C496 C497 1.404 . S
C497 C496 1.404 . S
C497 C498 1.395 . S
C497 C508 1.451 . S
C498 C497 1.395 . S
C498 C499 1.322 . S
C498 H562 0.930 . S
C499 C498 1.322 . S
C499 C500 1.459 . S
C499 H563 0.929 . S
C500 C499 1.459 . S
C500 C501 1.445 1_556 S
C500 C509 1.395 . S
C501 C479 1.432 . S
C501 C500 1.445 1_554 S
C501 C502 1.370 . S
C502 C501 1.370 . S
C502 C503 1.438 . S
C502 H564 0.930 . S
C503 C489 1.497 1_545 S
C503 C502 1.438 . S
C503 C504 1.360 1_545 S
C504 C503 1.360 1_565 S
C504 C505 1.401 . S
C504 C509 1.446 1_564 S
C505 C504 1.401 . S
C505 C506 1.347 1_554 S
C505 H565 0.929 . S
C506 C505 1.347 1_556 S
C506 C507 1.455 . S
C506 H566 0.930 . S
C507 C494 1.412 . S
C507 C506 1.455 . S
C507 C508 1.331 1_565 S
C508 C497 1.451 . S
C508 C507 1.331 1_545 S
C508 C509 1.497 . S
C509 C500 1.395 . S
C509 C504 1.446 1_546 S
C509 C508 1.497 . S
C510 C511 1.582 . S
C510 H567 0.962 . S
C510 H568 0.959 . S
C510 H569 0.958 . S
C511 C510 1.582 . S
C511 O514 1.458 . S
C511 H540 0.980 . S
O512 C457 1.426 . S
O512 C458 1.334 . S
O513 C485 1.412 . S
O513 C486 1.393 . S
O514 C476 1.435 . S
O514 C511 1.458 . S
O515 C467 1.468 . S
O515 C468 1.408 . S
H516 C457 0.980 . S
H517 C456 0.959 . S
H518 C456 0.959 . S
H519 C456 0.960 . S
H520 C459 0.929 . S
H521 C463 0.929 . S
H522 C464 0.959 . S
H523 C464 0.961 . S
H524 C464 0.961 . S
H525 C465 0.960 . S
H526 C465 0.960 . S
H527 C465 0.961 . S
H528 C467 0.980 . S
H529 C466 0.961 . S
H530 C466 0.960 . S
H531 C466 0.959 . S
H532 C469 0.930 . S
H533 C473 0.931 . S
H534 C474 0.959 . S
H535 C474 0.961 . S
H536 C474 0.959 . S
H537 C475 0.960 . S
H538 C475 0.960 . S
H539 C475 0.960 . S
H540 C511 0.980 . S
H541 C477 0.930 . S
H542 C481 0.930 . S
H543 C482 0.961 . S
H544 C482 0.960 . S
H545 C482 0.958 . S
H546 C483 0.961 . S
H547 C483 0.960 . S
H548 C483 0.960 . S
H549 C485 0.980 . S
H550 C484 0.961 . S
H551 C484 0.961 . S
H552 C484 0.959 . S
H553 C487 0.932 . S
H554 C491 0.929 . S
H555 C492 0.961 . S
H556 C492 0.959 . S
H557 C492 0.959 1_565 S
H558 C493 0.960 . S
H559 C493 0.962 . S
H560 C493 0.961 . S
H561 C495 0.929 . S
H562 C498 0.930 . S
H563 C499 0.929 . S
H564 C502 0.930 . S
H565 C505 0.929 . S
H566 C506 0.930 . S
H567 C510 0.962 . S
H568 C510 0.959 . S
H569 C510 0.958 . S
C570 C571 1.560 . S
C570 H631 0.959 . S
C570 H632 0.959 . S
C570 H633 0.960 . S
C571 C570 1.560 . S
C571 O626 1.426 . S
C571 H630 0.980 . S
C572 C573 1.407 . S
C572 C577 1.418 . S
C572 O626 1.334 . S
C573 C572 1.407 . S
C573 C574 1.360 . S
C573 H634 0.929 . S
C574 C573 1.360 . S
C574 C575 1.401 . S
C574 C578 1.527 . S
C575 C574 1.401 . S
C575 C576 1.405 . S
C575 C608 1.587 . S
C576 C575 1.405 . S
C576 C577 1.332 . S
C576 C579 1.496 . S
C577 C572 1.418 . S
C577 C576 1.332 . S
C577 H635 0.929 . S
C578 C574 1.527 . S
C578 H636 0.959 . S
C578 H637 0.961 . S
C578 H638 0.961 . S
C579 C576 1.496 . S
C579 H639 0.960 . S
C579 H640 0.960 . S
C579 H641 0.961 . S
C580 C581 1.517 . S
C580 H643 0.961 . S
C580 H644 0.960 . S
C580 H645 0.959 . S
C581 C580 1.517 . S
C581 O629 1.468 . S
C581 H642 0.980 . S
C582 C583 1.349 . S
C582 C587 1.367 . S
C582 O629 1.408 . S
C583 C582 1.349 . S
C583 C584 1.407 . S
C583 H646 0.930 . S
C584 C583 1.407 . S
C584 C585 1.449 . S
C584 C588 1.535 . S
C585 C584 1.449 . S
C585 C586 1.384 . S
C585 C610 1.553 . S
C586 C585 1.384 . S
C586 C587 1.364 . S
C586 C589 1.450 . S
C587 C582 1.367 . S
C587 C586 1.364 . S
C587 H647 0.931 . S
C588 C584 1.535 . S
C588 H648 0.959 . S
C588 H649 0.961 . S
C588 H650 0.959 . S
C589 C586 1.450 . S
C589 H651 0.960 . S
C589 H652 0.960 . S
C589 H653 0.960 . S
C590 C591 1.309 . S
C590 C595 1.304 . S
C590 O628 1.435 . S
C591 C590 1.309 . S
C591 C592 1.476 . S
C591 H655 0.930 . S
C592 C591 1.476 . S
C592 C593 1.400 . S
C592 C596 1.567 . S
C593 C592 1.400 . S
C593 C594 1.373 . S
C593 C615 1.432 . S
C594 C593 1.373 . S
C594 C595 1.339 . S
C594 C597 1.530 . S
C595 C590 1.304 . S
C595 C594 1.339 . S
C595 H656 0.930 . S
C596 C592 1.567 . S
C596 H657 0.961 . S
C596 H658 0.960 . S
C596 H659 0.958 . S
C597 C594 1.530 . S
C597 H660 0.961 . S
C597 H661 0.960 . S
C597 H662 0.960 . S
C598 C599 1.530 . S
C598 H664 0.961 . S
C598 H665 0.961 . S
C598 H666 0.959 . S
C599 C598 1.530 . S
C599 O627 1.412 . S
C599 H663 0.980 . S
C600 C601 1.288 . S
C600 C605 1.377 . S
C600 O627 1.393 . S
C601 C600 1.288 . S
C601 C602 1.369 . S
C601 H667 0.932 . S
C602 C601 1.369 . S
C602 C603 1.398 . S
C602 C606 1.527 . S
C603 C602 1.398 . S
C603 C604 1.380 . S
C603 C617 1.497 . S
C604 C603 1.380 . S
C604 C605 1.383 . S
C604 C607 1.603 . S
C605 C600 1.377 . S
C605 C604 1.383 . S
C605 H668 0.929 . S
C606 C602 1.527 . S
C606 H669 0.961 . S
C606 H670 0.959 . S
C606 H671 0.959 . S
C607 C604 1.603 . S
C607 H672 0.960 . S
C607 H673 0.962 . S
C607 H674 0.961 . S
C608 C575 1.587 . S
C608 C609 1.360 . S
C608 C621 1.412 . S
C609 C608 1.360 . S
C609 C610 1.365 . S
C609 H675 0.929 . S
C610 C585 1.553 . S
C610 C609 1.365 . S
C610 C611 1.404 . S
C611 C610 1.404 . S
C611 C612 1.395 . S
C611 C622 1.451 . S
C612 C611 1.395 . S
C612 C613 1.322 . S
C612 H676 0.930 . S
C613 C612 1.322 . S
C613 C614 1.459 . S
C613 H677 0.929 . S
C614 C613 1.459 . S
C614 C615 1.445 . S
C614 C623 1.395 . S
C615 C593 1.432 . S
C615 C614 1.445 . S
C615 C616 1.370 . S
C616 C615 1.370 . S
C616 C617 1.438 . S
C616 H678 0.930 . S
C617 C603 1.497 . S
C617 C616 1.438 . S
C617 C618 1.360 . S
C618 C617 1.360 . S
C618 C619 1.401 . S
C618 C623 1.446 . S
C619 C618 1.401 . S
C619 C620 1.347 . S
C619 H679 0.929 . S
C620 C619 1.347 . S
C620 C621 1.455 . S
C620 H680 0.930 . S
C621 C608 1.412 . S
C621 C620 1.455 . S
C621 C622 1.331 . S
C622 C611 1.451 . S
C622 C621 1.331 . S
C622 C623 1.497 . S
C623 C614 1.395 . S
C623 C618 1.446 . S
C623 C622 1.497 . S
C624 C625 1.582 . S
C624 H681 0.962 . S
C624 H682 0.959 . S
C624 H683 0.958 . S
C625 C624 1.582 . S
C625 O628 1.458 . S
C625 H654 0.980 . S
O626 C571 1.426 . S
O626 C572 1.334 . S
O627 C599 1.412 . S
O627 C600 1.393 . S
O628 C590 1.435 . S
O628 C625 1.458 . S
O629 C581 1.468 . S
O629 C582 1.408 . S
H630 C571 0.980 . S
H631 C570 0.959 . S
H632 C570 0.959 . S
H633 C570 0.960 . S
H634 C573 0.929 . S
H635 C577 0.929 . S
H636 C578 0.959 . S
H637 C578 0.961 . S
H638 C578 0.961 . S
H639 C579 0.960 . S
H640 C579 0.960 . S
H641 C579 0.961 . S
H642 C581 0.980 . S
H643 C580 0.961 . S
H644 C580 0.960 . S
H645 C580 0.959 . S
H646 C583 0.930 . S
H647 C587 0.931 . S
H648 C588 0.959 . S
H649 C588 0.961 . S
H650 C588 0.959 . S
H651 C589 0.960 . S
H652 C589 0.960 . S
H653 C589 0.960 . S
H654 C625 0.980 . S
H655 C591 0.930 . S
H656 C595 0.930 . S
H657 C596 0.961 . S
H658 C596 0.960 . S
H659 C596 0.958 . S
H660 C597 0.961 . S
H661 C597 0.960 . S
H662 C597 0.960 . S
H663 C599 0.980 . S
H664 C598 0.961 . S
H665 C598 0.961 . S
H666 C598 0.959 . S
H667 C601 0.932 . S
H668 C605 0.929 . S
H669 C606 0.961 . S
H670 C606 0.959 . S
H671 C606 0.959 . S
H672 C607 0.960 . S
H673 C607 0.962 . S
H674 C607 0.961 . S
H675 C609 0.929 . S
H676 C612 0.930 . S
H677 C613 0.929 . S
H678 C616 0.930 . S
H679 C619 0.929 . S
H680 C620 0.930 . S
H681 C624 0.962 . S
H682 C624 0.959 . S
H683 C624 0.958 . S
Zn684 O687 2.031 . S
Zn684 O689 2.049 . S
Zn684 O694 2.067 . S
Zn685 O686 1.962 . S
Zn685 O688 1.986 . S
Zn685 O690 1.996 . S
Zn685 O693 1.943 . S
O686 Zn685 1.962 . S
O686 C691 1.254 . S
O687 Zn684 2.031 . S
O687 C691 1.269 . S
O688 Zn685 1.986 . S
O688 C695 1.262 . S
O689 Zn684 2.049 . S
O689 C697 1.260 . S
O690 Zn685 1.996 . S
O690 C697 1.257 . S
C691 O686 1.254 . S
C691 O687 1.269 . S
C692 O693 1.249 . S
C692 O694 1.270 . S
O693 Zn685 1.943 . S
O693 C692 1.249 . S
O694 Zn684 2.067 . S
O694 C692 1.270 . S
C695 O688 1.262 . S
C695 O696 1.232 . S
O696 C695 1.232 . S
C697 O689 1.260 . S
C697 O690 1.257 . S
Zn698 O701 2.031 . S
Zn698 O703 2.049 . S
Zn698 O708 2.067 . S
Zn699 O700 1.962 . S
Zn699 O702 1.986 . S
Zn699 O704 1.996 . S
Zn699 O707 1.943 . S
O700 Zn699 1.962 . S
O700 C705 1.254 . S
O701 Zn698 2.031 . S
O701 C705 1.269 . S
O702 Zn699 1.986 . S
O702 C709 1.262 . S
O703 Zn698 2.049 . S
O703 C711 1.260 . S
O704 Zn699 1.996 . S
O704 C711 1.257 . S
C705 O700 1.254 . S
C705 O701 1.269 . S
C706 O707 1.249 . S
C706 O708 1.270 . S
O707 Zn699 1.943 . S
O707 C706 1.249 . S
O708 Zn698 2.067 . S
O708 C706 1.270 . S
C709 O702 1.262 . S
C709 O710 1.232 . S
O710 C709 1.232 . S
C711 O703 1.260 . S
C711 O704 1.257 . S
Zn712 O715 2.031 . S
Zn712 O717 2.049 . S
Zn712 O722 2.067 . S
Zn713 O714 1.962 . S
Zn713 O716 1.986 . S
Zn713 O718 1.996 . S
Zn713 O721 1.943 . S
O714 Zn713 1.962 . S
O714 C719 1.254 . S
O715 Zn712 2.031 . S
O715 C719 1.269 . S
O716 Zn713 1.986 . S
O716 C723 1.262 . S
O717 Zn712 2.049 . S
O717 C725 1.260 . S
O718 Zn713 1.996 . S
O718 C725 1.257 . S
C719 O714 1.254 . S
C719 O715 1.269 . S
C720 O721 1.249 . S
C720 O722 1.270 . S
O721 Zn713 1.943 . S
O721 C720 1.249 . S
O722 Zn712 2.067 . S
O722 C720 1.270 . S
C723 O716 1.262 . S
C723 O724 1.232 . S
O724 C723 1.232 . S
C725 O717 1.260 . S
C725 O718 1.257 . S
Zn726 O729 2.031 . S
Zn726 O731 2.049 . S
Zn726 O736 2.067 . S
Zn727 O728 1.962 . S
Zn727 O730 1.986 . S
Zn727 O732 1.996 . S
Zn727 O735 1.943 . S
O728 Zn727 1.962 . S
O728 C733 1.254 . S
O729 Zn726 2.031 . S
O729 C733 1.269 . S
O730 Zn727 1.986 . S
O730 C737 1.262 . S
O731 Zn726 2.049 . S
O731 C739 1.260 . S
O732 Zn727 1.996 . S
O732 C739 1.257 . S
C733 O728 1.254 . S
C733 O729 1.269 . S
C734 O735 1.249 . S
C734 O736 1.270 . S
O735 Zn727 1.943 . S
O735 C734 1.249 . S
O736 Zn726 2.067 . S
O736 C734 1.270 . S
C737 O730 1.262 . S
C737 O738 1.232 . S
O738 C737 1.232 . S
C739 O731 1.260 . S
C739 O732 1.257 . S
Zn740 O743 2.031 . S
Zn740 O745 2.049 . S
Zn740 O750 2.067 . S
Zn741 O742 1.962 . S
Zn741 O744 1.986 . S
Zn741 O746 1.996 . S
Zn741 O749 1.943 . S
O742 Zn741 1.962 . S
O742 C747 1.254 . S
O743 Zn740 2.031 . S
O743 C747 1.269 . S
O744 Zn741 1.986 . S
O744 C751 1.262 . S
O745 Zn740 2.049 . S
O745 C753 1.260 . S
O746 Zn741 1.996 . S
O746 C753 1.257 . S
C747 O742 1.254 . S
C747 O743 1.269 . S
C748 O749 1.249 . S
C748 O750 1.270 . S
O749 Zn741 1.943 . S
O749 C748 1.249 . S
O750 Zn740 2.067 . S
O750 C748 1.270 . S
C751 O744 1.262 . S
C751 O752 1.232 . S
O752 C751 1.232 . S
C753 O745 1.260 . S
C753 O746 1.257 . S
Zn754 O757 2.031 . S
Zn754 O759 2.049 . S
Zn754 O764 2.067 . S
Zn755 O756 1.962 . S
Zn755 O758 1.986 . S
Zn755 O760 1.996 . S
Zn755 O763 1.943 . S
O756 Zn755 1.962 . S
O756 C761 1.254 . S
O757 Zn754 2.031 . S
O757 C761 1.269 . S
O758 Zn755 1.986 . S
O758 C765 1.262 . S
O759 Zn754 2.049 . S
O759 C767 1.260 . S
O760 Zn755 1.996 . S
O760 C767 1.257 . S
C761 O756 1.254 . S
C761 O757 1.269 . S
C762 O763 1.249 . S
C762 O764 1.270 . S
O763 Zn755 1.943 . S
O763 C762 1.249 . S
O764 Zn754 2.067 . S
O764 C762 1.270 . S
C765 O758 1.262 . S
C765 O766 1.232 . S
O766 C765 1.232 . S
C767 O759 1.260 . S
C767 O760 1.257 . S
H768 C786 0.951 . S
H769 C788 0.951 . S
H770 C790 0.950 . S
H771 C791 0.950 . S
H772 C793 0.950 . S
H773 C796 0.950 . S
H774 C797 0.950 . S
H775 C799 0.950 . S
H776 C800 0.950 . S
H777 C801 0.951 . S
H778 C803 0.951 . S
H779 C805 0.950 . S
H780 C806 0.950 . S
H781 C808 0.950 . S
H782 C811 0.950 . S
H783 C812 0.950 . S
H784 C814 0.950 . S
H785 C815 0.950 . S
C786 H768 0.951 . S
C786 C787 1.366 . S
C786 C788 1.388 . S
C787 C786 1.366 . S
C787 C791 1.385 . S
C788 H769 0.951 . S
C788 C786 1.388 . S
C788 C789 1.366 . S
C789 C788 1.366 . S
C789 C790 1.414 . S
C789 C792 1.499 . S
C790 H770 0.950 . S
C790 C789 1.414 . S
C790 C791 1.374 . S
C791 H771 0.950 . S
C791 C787 1.385 . S
C791 C790 1.374 . S
C792 C789 1.499 . S
C792 C793 1.373 . S
C792 C794 1.389 . S
C793 H772 0.950 . S
C793 C792 1.373 . S
C793 C809 1.377 . S
C794 C792 1.389 . S
C794 C795 1.524 . S
C794 C808 1.377 . S
C795 C794 1.524 . S
C795 C796 1.397 . S
C795 C800 1.363 . S
C796 H773 0.950 . S
C796 C795 1.397 . S
C796 C797 1.334 . S
C797 H774 0.950 . S
C797 C796 1.334 . S
C797 C798 1.287 . S
C798 C797 1.287 . S
C798 C799 1.524 . S
C798 H817 0.913 . S
C799 H775 0.950 . S
C799 C798 1.524 . S
C799 C800 1.415 . S
C800 H776 0.950 . S
C800 C795 1.363 . S
C800 C799 1.415 . S
C801 H777 0.951 . S
C801 C802 1.366 . S
C801 C803 1.388 . S
C802 C801 1.366 . S
C802 C806 1.385 . S
C803 H778 0.951 . S
C803 C801 1.388 . S
C803 C804 1.366 . S
C804 C803 1.366 . S
C804 C805 1.414 . S
C804 C807 1.499 . S
C805 H779 0.950 . S
C805 C804 1.414 . S
C805 C806 1.374 . S
C806 H780 0.950 . S
C806 C802 1.385 . S
C806 C805 1.374 . S
C807 C804 1.499 . S
C807 C808 1.373 . S
C807 C809 1.389 . S
C808 H781 0.950 . S
C808 C794 1.377 . S
C808 C807 1.373 . S
C809 C793 1.377 . S
C809 C807 1.389 . S
C809 C810 1.524 . S
C810 C809 1.524 . S
C810 C811 1.397 . S
C810 C815 1.363 . S
C811 H782 0.950 . S
C811 C810 1.397 . S
C811 C812 1.334 . S
C812 H783 0.950 . S
C812 C811 1.334 . S
C812 C813 1.287 . S
C813 C812 1.287 . S
C813 C814 1.524 . S
C813 H816 0.999 . S
C814 H784 0.950 . S
C814 C813 1.524 . S
C814 C815 1.415 . S
C815 H785 0.950 . S
C815 C810 1.363 . S
C815 C814 1.415 . S
H816 C813 0.999 . S
H817 C798 0.913 . S
H818 C836 0.951 . S
H819 C838 0.951 . S
H820 C840 0.950 . S
H821 C841 0.950 . S
H822 C843 0.950 . S
H823 C846 0.950 . S
H824 C847 0.950 . S
H825 C849 0.950 . S
H826 C850 0.950 . S
H827 C851 0.951 . S
H828 C853 0.951 . S
H829 C855 0.950 . S
H830 C856 0.950 . S
H831 C858 0.950 . S
H832 C861 0.950 . S
H833 C862 0.950 . S
H834 C864 0.950 . S
H835 C865 0.950 . S
C836 H818 0.951 . S
C836 C837 1.366 . S
C836 C838 1.388 . S
C837 C836 1.366 . S
C837 C841 1.385 . S
C838 H819 0.951 . S
C838 C836 1.388 . S
C838 C839 1.366 . S
C839 C838 1.366 . S
C839 C840 1.414 . S
C839 C842 1.499 . S
C840 H820 0.950 . S
C840 C839 1.414 . S
C840 C841 1.374 . S
C841 H821 0.950 . S
C841 C837 1.385 . S
C841 C840 1.374 . S
C842 C839 1.499 . S
C842 C843 1.373 . S
C842 C844 1.389 . S
C843 H822 0.950 . S
C843 C842 1.373 . S
C843 C859 1.377 . S
C844 C842 1.389 . S
C844 C845 1.524 . S
C844 C858 1.377 . S
C845 C844 1.524 . S
C845 C846 1.397 . S
C845 C850 1.363 . S
C846 H823 0.950 . S
C846 C845 1.397 . S
C846 C847 1.334 . S
C847 H824 0.950 . S
C847 C846 1.334 . S
C847 C848 1.287 . S
C848 C847 1.287 . S
C848 C849 1.524 . S
C848 H867 0.913 . S
C849 H825 0.950 . S
C849 C848 1.524 . S
C849 C850 1.415 . S
C850 H826 0.950 . S
C850 C845 1.363 . S
C850 C849 1.415 . S
C851 H827 0.951 . S
C851 C852 1.366 . S
C851 C853 1.388 . S
C852 C851 1.366 . S
C852 C856 1.385 . S
C853 H828 0.951 . S
C853 C851 1.388 . S
C853 C854 1.366 . S
C854 C853 1.366 . S
C854 C855 1.414 . S
C854 C857 1.499 . S
C855 H829 0.950 . S
C855 C854 1.414 . S
C855 C856 1.374 . S
C856 H830 0.950 . S
C856 C852 1.385 . S
C856 C855 1.374 . S
C857 C854 1.499 . S
C857 C858 1.373 . S
C857 C859 1.389 . S
C858 H831 0.950 . S
C858 C844 1.377 . S
C858 C857 1.373 . S
C859 C843 1.377 . S
C859 C857 1.389 . S
C859 C860 1.524 . S
C860 C859 1.524 . S
C860 C861 1.397 . S
C860 C865 1.363 . S
C861 H832 0.950 . S
C861 C860 1.397 . S
C861 C862 1.334 . S
C862 H833 0.950 . S
C862 C861 1.334 . S
C862 C863 1.287 . S
C863 C862 1.287 . S
C863 C864 1.524 . S
C863 H866 0.999 . S
C864 H834 0.950 . S
C864 C863 1.524 . S
C864 C865 1.415 . S
C865 H835 0.950 . S
C865 C860 1.363 . S
C865 C864 1.415 . S
H866 C863 0.999 . S
H867 C848 0.913 . S
H868 C886 0.951 . S
H869 C888 0.951 . S
H870 C890 0.950 . S
H871 C891 0.950 . S
H872 C893 0.950 . S
H873 C896 0.950 . S
H874 C897 0.950 . S
H875 C899 0.950 . S
H876 C900 0.950 . S
H877 C901 0.951 . S
H878 C903 0.951 . S
H879 C905 0.950 . S
H880 C906 0.950 . S
H881 C908 0.950 . S
H882 C911 0.950 . S
H883 C912 0.950 . S
H884 C914 0.950 . S
H885 C915 0.950 . S
C886 H868 0.951 . S
C886 C887 1.366 . S
C886 C888 1.388 . S
C887 C886 1.366 . S
C887 C891 1.385 . S
C888 H869 0.951 . S
C888 C886 1.388 . S
C888 C889 1.366 . S
C889 C888 1.366 . S
C889 C890 1.414 . S
C889 C892 1.499 . S
C890 H870 0.950 . S
C890 C889 1.414 . S
C890 C891 1.374 . S
C891 H871 0.950 . S
C891 C887 1.385 . S
C891 C890 1.374 . S
C892 C889 1.499 . S
C892 C893 1.373 . S
C892 C894 1.389 . S
C893 H872 0.950 . S
C893 C892 1.373 . S
C893 C909 1.377 . S
C894 C892 1.389 . S
C894 C895 1.524 . S
C894 C908 1.377 . S
C895 C894 1.524 . S
C895 C896 1.397 . S
C895 C900 1.363 . S
C896 H873 0.950 . S
C896 C895 1.397 . S
C896 C897 1.334 . S
C897 H874 0.950 . S
C897 C896 1.334 . S
C897 C898 1.287 . S
C898 C897 1.287 . S
C898 C899 1.524 . S
C898 H917 0.913 . S
C899 H875 0.950 . S
C899 C898 1.524 . S
C899 C900 1.415 . S
C900 H876 0.950 . S
C900 C895 1.363 . S
C900 C899 1.415 . S
C901 H877 0.951 . S
C901 C902 1.366 . S
C901 C903 1.388 . S
C902 C901 1.366 . S
C902 C906 1.385 . S
C903 H878 0.951 . S
C903 C901 1.388 . S
C903 C904 1.366 . S
C904 C903 1.366 . S
C904 C905 1.414 . S
C904 C907 1.499 . S
C905 H879 0.950 . S
C905 C904 1.414 . S
C905 C906 1.374 . S
C906 H880 0.950 . S
C906 C902 1.385 . S
C906 C905 1.374 . S
C907 C904 1.499 . S
C907 C908 1.373 . S
C907 C909 1.389 . S
C908 H881 0.950 . S
C908 C894 1.377 . S
C908 C907 1.373 . S
C909 C893 1.377 . S
C909 C907 1.389 . S
C909 C910 1.524 . S
C910 C909 1.524 . S
C910 C911 1.397 . S
C910 C915 1.363 . S
C911 H882 0.950 . S
C911 C910 1.397 . S
C911 C912 1.334 . S
C912 H883 0.950 . S
C912 C911 1.334 . S
C912 C913 1.287 . S
C913 C912 1.287 . S
C913 C914 1.524 . S
C913 H916 0.999 . S
C914 H884 0.950 . S
C914 C913 1.524 . S
C914 C915 1.415 . S
C915 H885 0.950 . S
C915 C910 1.363 . S
C915 C914 1.415 . S
H916 C913 0.999 . S
H917 C898 0.913 . S
H918 C936 0.951 . S
H919 C938 0.951 . S
H920 C940 0.950 . S
H921 C941 0.950 . S
H922 C943 0.950 . S
H923 C946 0.950 . S
H924 C947 0.950 . S
H925 C949 0.950 . S
H926 C950 0.950 . S
H927 C951 0.951 . S
H928 C953 0.951 . S
H929 C955 0.950 . S
H930 C956 0.950 . S
H931 C958 0.950 . S
H932 C961 0.950 . S
H933 C962 0.950 . S
H934 C964 0.950 . S
H935 C965 0.950 . S
C936 H918 0.951 . S
C936 C937 1.366 . S
C936 C938 1.388 . S
C937 C936 1.366 . S
C937 C941 1.385 . S
C938 H919 0.951 . S
C938 C936 1.388 . S
C938 C939 1.366 . S
C939 C938 1.366 . S
C939 C940 1.414 . S
C939 C942 1.499 . S
C940 H920 0.950 . S
C940 C939 1.414 . S
C940 C941 1.374 . S
C941 H921 0.950 . S
C941 C937 1.385 . S
C941 C940 1.374 . S
C942 C939 1.499 . S
C942 C943 1.373 . S
C942 C944 1.389 . S
C943 H922 0.950 . S
C943 C942 1.373 . S
C943 C959 1.377 . S
C944 C942 1.389 . S
C944 C945 1.524 . S
C944 C958 1.377 . S
C945 C944 1.524 . S
C945 C946 1.397 . S
C945 C950 1.363 . S
C946 H923 0.950 . S
C946 C945 1.397 . S
C946 C947 1.334 . S
C947 H924 0.950 . S
C947 C946 1.334 . S
C947 C948 1.287 . S
C948 C947 1.287 . S
C948 C949 1.524 . S
C948 H967 0.913 . S
C949 H925 0.950 . S
C949 C948 1.524 . S
C949 C950 1.415 . S
C950 H926 0.950 . S
C950 C945 1.363 . S
C950 C949 1.415 . S
C951 H927 0.951 . S
C951 C952 1.366 . S
C951 C953 1.388 . S
C952 C951 1.366 . S
C952 C956 1.385 . S
C953 H928 0.951 . S
C953 C951 1.388 . S
C953 C954 1.366 . S
C954 C953 1.366 . S
C954 C955 1.414 . S
C954 C957 1.499 . S
C955 H929 0.950 . S
C955 C954 1.414 . S
C955 C956 1.374 . S
C956 H930 0.950 . S
C956 C952 1.385 . S
C956 C955 1.374 . S
C957 C954 1.499 . S
C957 C958 1.373 . S
C957 C959 1.389 . S
C958 H931 0.950 . S
C958 C944 1.377 . S
C958 C957 1.373 . S
C959 C943 1.377 . S
C959 C957 1.389 . S
C959 C960 1.524 . S
C960 C959 1.524 . S
C960 C961 1.397 . S
C960 C965 1.363 . S
C961 H932 0.950 . S
C961 C960 1.397 . S
C961 C962 1.334 . S
C962 H933 0.950 . S
C962 C961 1.334 . S
C962 C963 1.287 . S
C963 C962 1.287 . S
C963 C964 1.524 . S
C963 H966 0.999 . S
C964 H934 0.950 . S
C964 C963 1.524 . S
C964 C965 1.415 . S
C965 H935 0.950 . S
C965 C960 1.363 . S
C965 C964 1.415 . S
H966 C963 0.999 . S
H967 C948 0.913 . S
H968 C986 0.951 . S
H969 C988 0.951 . S
H970 C990 0.950 . S
H971 C991 0.950 . S
H972 C993 0.950 . S
H973 C996 0.950 . S
H974 C997 0.950 . S
H975 C999 0.950 . S
H976 C1000 0.950 . S
H977 C1001 0.951 . S
H978 C1003 0.951 . S
H979 C1005 0.950 . S
H980 C1006 0.950 . S
H981 C1008 0.950 . S
H982 C1011 0.950 . S
H983 C1012 0.950 . S
H984 C1014 0.950 . S
H985 C1015 0.950 . S
C986 H968 0.951 . S
C986 C987 1.366 . S
C986 C988 1.388 . S
C987 C986 1.366 . S
C987 C991 1.385 . S
C988 H969 0.951 . S
C988 C986 1.388 . S
C988 C989 1.366 . S
C989 C988 1.366 . S
C989 C990 1.414 . S
C989 C992 1.499 . S
C990 H970 0.950 . S
C990 C989 1.414 . S
C990 C991 1.374 . S
C991 H971 0.950 . S
C991 C987 1.385 . S
C991 C990 1.374 . S
C992 C989 1.499 . S
C992 C993 1.373 . S
C992 C994 1.389 . S
C993 H972 0.950 . S
C993 C992 1.373 . S
C993 C1009 1.377 . S
C994 C992 1.389 . S
C994 C995 1.524 . S
C994 C1008 1.377 . S
C995 C994 1.524 . S
C995 C996 1.397 . S
C995 C1000 1.363 . S
C996 H973 0.950 . S
C996 C995 1.397 . S
C996 C997 1.334 . S
C997 H974 0.950 . S
C997 C996 1.334 . S
C997 C998 1.287 . S
C998 C997 1.287 . S
C998 C999 1.524 . S
C998 H1017 0.913 . S
C999 H975 0.950 . S
C999 C998 1.524 . S
C999 C1000 1.415 . S
C1000 H976 0.950 . S
C1000 C995 1.363 . S
C1000 C999 1.415 . S
C1001 H977 0.951 . S
C1001 C1002 1.366 . S
C1001 C1003 1.388 . S
C1002 C1001 1.366 . S
C1002 C1006 1.385 . S
C1003 H978 0.951 . S
C1003 C1001 1.388 . S
C1003 C1004 1.366 . S
C1004 C1003 1.366 . S
C1004 C1005 1.414 . S
C1004 C1007 1.499 . S
C1005 H979 0.950 . S
C1005 C1004 1.414 . S
C1005 C1006 1.374 . S
C1006 H980 0.950 . S
C1006 C1002 1.385 . S
C1006 C1005 1.374 . S
C1007 C1004 1.499 . S
C1007 C1008 1.373 . S
C1007 C1009 1.389 . S
C1008 H981 0.950 . S
C1008 C994 1.377 . S
C1008 C1007 1.373 . S
C1009 C993 1.377 . S
C1009 C1007 1.389 . S
C1009 C1010 1.524 . S
C1010 C1009 1.524 . S
C1010 C1011 1.397 . S
C1010 C1015 1.363 . S
C1011 H982 0.950 . S
C1011 C1010 1.397 . S
C1011 C1012 1.334 . S
C1012 H983 0.950 . S
C1012 C1011 1.334 . S
C1012 C1013 1.287 . S
C1013 C1012 1.287 . S
C1013 C1014 1.524 . S
C1013 H1016 0.999 . S
C1014 H984 0.950 . S
C1014 C1013 1.524 . S
C1014 C1015 1.415 . S
C1015 H985 0.950 . S
C1015 C1010 1.363 . S
C1015 C1014 1.415 . S
H1016 C1013 0.999 . S
H1017 C998 0.913 . S
H1018 C1036 0.951 . S
H1019 C1038 0.951 . S
H1020 C1040 0.950 . S
H1021 C1041 0.950 . S
H1022 C1043 0.950 . S
H1023 C1046 0.950 . S
H1024 C1047 0.950 . S
H1025 C1049 0.950 . S
H1026 C1050 0.950 . S
H1027 C1051 0.951 . S
H1028 C1053 0.951 . S
H1029 C1055 0.950 . S
H1030 C1056 0.950 . S
H1031 C1058 0.950 . S
H1032 C1061 0.950 . S
H1033 C1062 0.950 . S
H1034 C1064 0.950 . S
H1035 C1065 0.950 . S
C1036 H1018 0.951 . S
C1036 C1037 1.366 . S
C1036 C1038 1.388 . S
C1037 C1036 1.366 . S
C1037 C1041 1.385 . S
C1038 H1019 0.951 . S
C1038 C1036 1.388 . S
C1038 C1039 1.366 . S
C1039 C1038 1.366 . S
C1039 C1040 1.414 . S
C1039 C1042 1.499 . S
C1040 H1020 0.950 . S
C1040 C1039 1.414 . S
C1040 C1041 1.374 . S
C1041 H1021 0.950 . S
C1041 C1037 1.385 . S
C1041 C1040 1.374 . S
C1042 C1039 1.499 . S
C1042 C1043 1.373 . S
C1042 C1044 1.389 . S
C1043 H1022 0.950 . S
C1043 C1042 1.373 . S
C1043 C1059 1.377 . S
C1044 C1042 1.389 . S
C1044 C1045 1.524 . S
C1044 C1058 1.377 . S
C1045 C1044 1.524 . S
C1045 C1046 1.397 . S
C1045 C1050 1.363 . S
C1046 H1023 0.950 . S
C1046 C1045 1.397 . S
C1046 C1047 1.334 . S
C1047 H1024 0.950 . S
C1047 C1046 1.334 . S
C1047 C1048 1.287 . S
C1048 C1047 1.287 . S
C1048 C1049 1.524 . S
C1048 H1067 0.913 . S
C1049 H1025 0.950 . S
C1049 C1048 1.524 . S
C1049 C1050 1.415 . S
C1050 H1026 0.950 . S
C1050 C1045 1.363 . S
C1050 C1049 1.415 . S
C1051 H1027 0.951 . S
C1051 C1052 1.366 . S
C1051 C1053 1.388 . S
C1052 C1051 1.366 . S
C1052 C1056 1.385 . S
C1053 H1028 0.951 . S
C1053 C1051 1.388 . S
C1053 C1054 1.366 . S
C1054 C1053 1.366 . S
C1054 C1055 1.414 . S
C1054 C1057 1.499 . S
C1055 H1029 0.950 . S
C1055 C1054 1.414 . S
C1055 C1056 1.374 . S
C1056 H1030 0.950 . S
C1056 C1052 1.385 . S
C1056 C1055 1.374 . S
C1057 C1054 1.499 . S
C1057 C1058 1.373 . S
C1057 C1059 1.389 . S
C1058 H1031 0.950 . S
C1058 C1044 1.377 . S
C1058 C1057 1.373 . S
C1059 C1043 1.377 . S
C1059 C1057 1.389 . S
C1059 C1060 1.524 . S
C1060 C1059 1.524 . S
C1060 C1061 1.397 . S
C1060 C1065 1.363 . S
C1061 H1032 0.950 . S
C1061 C1060 1.397 . S
C1061 C1062 1.334 . S
C1062 H1033 0.950 . S
C1062 C1061 1.334 . S
C1062 C1063 1.287 . S
C1063 C1062 1.287 . S
C1063 C1064 1.524 . S
C1063 H1066 0.999 . S
C1064 H1034 0.950 . S
C1064 C1063 1.524 . S
C1064 C1065 1.415 . S
C1065 H1035 0.950 . S
C1065 C1060 1.363 . S
C1065 C1064 1.415 . S
H1066 C1063 0.999 . S
H1067 C1048 0.913 . S
H1068 C1086 0.951 . S
H1069 C1088 0.951 . S
H1070 C1090 0.950 . S
H1071 C1091 0.950 . S
H1072 C1093 0.950 . S
H1073 C1096 0.950 . S
H1074 C1097 0.950 . S
H1075 C1099 0.950 . S
H1076 C1100 0.950 . S
H1077 C1101 0.951 . S
H1078 C1103 0.951 . S
H1079 C1105 0.950 . S
H1080 C1106 0.950 . S
H1081 C1108 0.950 . S
H1082 C1111 0.950 . S
H1083 C1112 0.950 . S
H1084 C1114 0.950 . S
H1085 C1115 0.950 . S
C1086 H1068 0.951 . S
C1086 C1087 1.366 . S
C1086 C1088 1.388 . S
C1087 C1086 1.366 . S
C1087 C1091 1.385 . S
C1088 H1069 0.951 . S
C1088 C1086 1.388 . S
C1088 C1089 1.366 . S
C1089 C1088 1.366 . S
C1089 C1090 1.414 . S
C1089 C1092 1.499 . S
C1090 H1070 0.950 . S
C1090 C1089 1.414 . S
C1090 C1091 1.374 . S
C1091 H1071 0.950 . S
C1091 C1087 1.385 . S
C1091 C1090 1.374 . S
C1092 C1089 1.499 . S
C1092 C1093 1.373 . S
C1092 C1094 1.389 . S
C1093 H1072 0.950 . S
C1093 C1092 1.373 . S
C1093 C1109 1.377 . S
C1094 C1092 1.389 . S
C1094 C1095 1.524 . S
C1094 C1108 1.377 . S
C1095 C1094 1.524 . S
C1095 C1096 1.397 . S
C1095 C1100 1.363 . S
C1096 H1073 0.950 . S
C1096 C1095 1.397 . S
C1096 C1097 1.334 . S
C1097 H1074 0.950 . S
C1097 C1096 1.334 . S
C1097 C1098 1.287 . S
C1098 C1097 1.287 . S
C1098 C1099 1.524 . S
C1098 H1117 0.913 . S
C1099 H1075 0.950 . S
C1099 C1098 1.524 . S
C1099 C1100 1.415 . S
C1100 H1076 0.950 . S
C1100 C1095 1.363 . S
C1100 C1099 1.415 . S
C1101 H1077 0.951 . S
C1101 C1102 1.366 . S
C1101 C1103 1.388 . S
C1102 C1101 1.366 . S
C1102 C1106 1.385 . S
C1103 H1078 0.951 . S
C1103 C1101 1.388 . S
C1103 C1104 1.366 . S
C1104 C1103 1.366 . S
C1104 C1105 1.414 . S
C1104 C1107 1.499 . S
C1105 H1079 0.950 . S
C1105 C1104 1.414 . S
C1105 C1106 1.374 . S
C1106 H1080 0.950 . S
C1106 C1102 1.385 . S
C1106 C1105 1.374 . S
C1107 C1104 1.499 . S
C1107 C1108 1.373 . S
C1107 C1109 1.389 . S
C1108 H1081 0.950 . S
C1108 C1094 1.377 . S
C1108 C1107 1.373 . S
C1109 C1093 1.377 . S
C1109 C1107 1.389 . S
C1109 C1110 1.524 . S
C1110 C1109 1.524 . S
C1110 C1111 1.397 . S
C1110 C1115 1.363 . S
C1111 H1082 0.950 . S
C1111 C1110 1.397 . S
C1111 C1112 1.334 . S
C1112 H1083 0.950 . S
C1112 C1111 1.334 . S
C1112 C1113 1.287 . S
C1113 C1112 1.287 . S
C1113 C1114 1.524 . S
C1113 H1116 0.999 . S
C1114 H1084 0.950 . S
C1114 C1113 1.524 . S
C1114 C1115 1.415 . S
C1115 H1085 0.950 . S
C1115 C1110 1.363 . S
C1115 C1114 1.415 . S
H1116 C1113 0.999 . S
H1117 C1098 0.913 . S
H1118 C1136 0.951 . S
H1119 C1138 0.951 . S
H1120 C1140 0.950 . S
H1121 C1141 0.950 . S
H1122 C1143 0.950 . S
H1123 C1146 0.950 . S
H1124 C1147 0.950 . S
H1125 C1149 0.950 . S
H1126 C1150 0.950 . S
H1127 C1151 0.951 . S
H1128 C1153 0.951 . S
H1129 C1155 0.950 . S
H1130 C1156 0.950 . S
H1131 C1158 0.950 . S
H1132 C1161 0.950 . S
H1133 C1162 0.950 . S
H1134 C1164 0.950 . S
H1135 C1165 0.950 . S
C1136 H1118 0.951 . S
C1136 C1137 1.366 . S
C1136 C1138 1.388 . S
C1137 C1136 1.366 . S
C1137 C1141 1.385 . S
C1138 H1119 0.951 . S
C1138 C1136 1.388 . S
C1138 C1139 1.366 . S
C1139 C1138 1.366 . S
C1139 C1140 1.414 . S
C1139 C1142 1.499 . S
C1140 H1120 0.950 . S
C1140 C1139 1.414 . S
C1140 C1141 1.374 . S
C1141 H1121 0.950 . S
C1141 C1137 1.385 . S
C1141 C1140 1.374 . S
C1142 C1139 1.499 . S
C1142 C1143 1.373 . S
C1142 C1144 1.389 . S
C1143 H1122 0.950 . S
C1143 C1142 1.373 . S
C1143 C1159 1.377 . S
C1144 C1142 1.389 . S
C1144 C1145 1.524 . S
C1144 C1158 1.377 . S
C1145 C1144 1.524 . S
C1145 C1146 1.397 . S
C1145 C1150 1.363 . S
C1146 H1123 0.950 . S
C1146 C1145 1.397 . S
C1146 C1147 1.334 . S
C1147 H1124 0.950 . S
C1147 C1146 1.334 . S
C1147 C1148 1.287 . S
C1148 C1147 1.287 . S
C1148 C1149 1.524 . S
C1148 H1167 0.913 . S
C1149 H1125 0.950 . S
C1149 C1148 1.524 . S
C1149 C1150 1.415 . S
C1150 H1126 0.950 . S
C1150 C1145 1.363 . S
C1150 C1149 1.415 . S
C1151 H1127 0.951 . S
C1151 C1152 1.366 . S
C1151 C1153 1.388 . S
C1152 C1151 1.366 . S
C1152 C1156 1.385 . S
C1153 H1128 0.951 . S
C1153 C1151 1.388 . S
C1153 C1154 1.366 . S
C1154 C1153 1.366 . S
C1154 C1155 1.414 . S
C1154 C1157 1.499 . S
C1155 H1129 0.950 . S
C1155 C1154 1.414 . S
C1155 C1156 1.374 . S
C1156 H1130 0.950 . S
C1156 C1152 1.385 . S
C1156 C1155 1.374 . S
C1157 C1154 1.499 . S
C1157 C1158 1.373 . S
C1157 C1159 1.389 . S
C1158 H1131 0.950 . S
C1158 C1144 1.377 . S
C1158 C1157 1.373 . S
C1159 C1143 1.377 . S
C1159 C1157 1.389 . S
C1159 C1160 1.524 . S
C1160 C1159 1.524 . S
C1160 C1161 1.397 . S
C1160 C1165 1.363 . S
C1161 H1132 0.950 . S
C1161 C1160 1.397 . S
C1161 C1162 1.334 . S
C1162 H1133 0.950 . S
C1162 C1161 1.334 . S
C1162 C1163 1.287 . S
C1163 C1162 1.287 . S
C1163 C1164 1.524 . S
C1163 H1166 0.999 . S
C1164 H1134 0.950 . S
C1164 C1163 1.524 . S
C1164 C1165 1.415 . S
C1165 H1135 0.950 . S
C1165 C1160 1.363 . S
C1165 C1164 1.415 . S
H1166 C1163 0.999 . S
H1167 C1148 0.913 . S
H1168 C1186 0.951 . S
H1169 C1188 0.951 . S
H1170 C1190 0.950 . S
H1171 C1191 0.950 . S
H1172 C1193 0.950 . S
H1173 C1196 0.950 . S
H1174 C1197 0.950 . S
H1175 C1199 0.950 . S
H1176 C1200 0.950 . S
H1177 C1201 0.951 . S
H1178 C1203 0.951 . S
H1179 C1205 0.950 . S
H1180 C1206 0.950 . S
H1181 C1208 0.950 . S
H1182 C1211 0.950 . S
H1183 C1212 0.950 . S
H1184 C1214 0.950 . S
H1185 C1215 0.950 . S
C1186 H1168 0.951 . S
C1186 C1187 1.366 . S
C1186 C1188 1.388 . S
C1187 C1186 1.366 . S
C1187 C1191 1.385 . S
C1188 H1169 0.951 . S
C1188 C1186 1.388 . S
C1188 C1189 1.366 . S
C1189 C1188 1.366 . S
C1189 C1190 1.414 . S
C1189 C1192 1.499 . S
C1190 H1170 0.950 . S
C1190 C1189 1.414 . S
C1190 C1191 1.374 . S
C1191 H1171 0.950 . S
C1191 C1187 1.385 . S
C1191 C1190 1.374 . S
C1192 C1189 1.499 . S
C1192 C1193 1.373 . S
C1192 C1194 1.389 . S
C1193 H1172 0.950 . S
C1193 C1192 1.373 . S
C1193 C1209 1.377 . S
C1194 C1192 1.389 . S
C1194 C1195 1.524 . S
C1194 C1208 1.377 . S
C1195 C1194 1.524 . S
C1195 C1196 1.397 . S
C1195 C1200 1.363 . S
C1196 H1173 0.950 . S
C1196 C1195 1.397 . S
C1196 C1197 1.334 . S
C1197 H1174 0.950 . S
C1197 C1196 1.334 . S
C1197 C1198 1.287 . S
C1198 C1197 1.287 . S
C1198 C1199 1.524 . S
C1198 H1217 0.913 . S
C1199 H1175 0.950 . S
C1199 C1198 1.524 . S
C1199 C1200 1.415 . S
C1200 H1176 0.950 . S
C1200 C1195 1.363 . S
C1200 C1199 1.415 . S
C1201 H1177 0.951 . S
C1201 C1202 1.366 . S
C1201 C1203 1.388 . S
C1202 C1201 1.366 . S
C1202 C1206 1.385 . S
C1203 H1178 0.951 . S
C1203 C1201 1.388 . S
C1203 C1204 1.366 . S
C1204 C1203 1.366 . S
C1204 C1205 1.414 . S
C1204 C1207 1.499 . S
C1205 H1179 0.950 . S
C1205 C1204 1.414 . S
C1205 C1206 1.374 . S
C1206 H1180 0.950 . S
C1206 C1202 1.385 . S
C1206 C1205 1.374 . S
C1207 C1204 1.499 . S
C1207 C1208 1.373 . S
C1207 C1209 1.389 . S
C1208 H1181 0.950 . S
C1208 C1194 1.377 . S
C1208 C1207 1.373 . S
C1209 C1193 1.377 . S
C1209 C1207 1.389 . S
C1209 C1210 1.524 . S
C1210 C1209 1.524 . S
C1210 C1211 1.397 . S
C1210 C1215 1.363 . S
C1211 H1182 0.950 . S
C1211 C1210 1.397 . S
C1211 C1212 1.334 . S
C1212 H1183 0.950 . S
C1212 C1211 1.334 . S
C1212 C1213 1.287 . S
C1213 C1212 1.287 . S
C1213 C1214 1.524 . S
C1213 H1216 0.999 . S
C1214 H1184 0.950 . S
C1214 C1213 1.524 . S
C1214 C1215 1.415 . S
C1215 H1185 0.950 . S
C1215 C1210 1.363 . S
C1215 C1214 1.415 . S
H1216 C1213 0.999 . S
H1217 C1198 0.913 . S
H1218 C1236 0.951 . S
H1219 C1238 0.951 . S
H1220 C1240 0.950 . S
H1221 C1241 0.950 . S
H1222 C1243 0.950 . S
H1223 C1246 0.950 . S
H1224 C1247 0.950 . S
H1225 C1249 0.950 . S
H1226 C1250 0.950 . S
H1227 C1251 0.951 . S
H1228 C1253 0.951 . S
H1229 C1255 0.950 . S
H1230 C1256 0.950 . S
H1231 C1258 0.950 . S
H1232 C1261 0.950 . S
H1233 C1262 0.950 . S
H1234 C1264 0.950 . S
H1235 C1265 0.950 . S
C1236 H1218 0.951 . S
C1236 C1237 1.366 . S
C1236 C1238 1.388 . S
C1237 C1236 1.366 . S
C1237 C1241 1.385 . S
C1238 H1219 0.951 . S
C1238 C1236 1.388 . S
C1238 C1239 1.366 . S
C1239 C1238 1.366 . S
C1239 C1240 1.414 . S
C1239 C1242 1.499 . S
C1240 H1220 0.950 . S
C1240 C1239 1.414 . S
C1240 C1241 1.374 . S
C1241 H1221 0.950 . S
C1241 C1237 1.385 . S
C1241 C1240 1.374 . S
C1242 C1239 1.499 . S
C1242 C1243 1.373 . S
C1242 C1244 1.389 . S
C1243 H1222 0.950 . S
C1243 C1242 1.373 . S
C1243 C1259 1.377 . S
C1244 C1242 1.389 . S
C1244 C1245 1.524 . S
C1244 C1258 1.377 . S
C1245 C1244 1.524 . S
C1245 C1246 1.397 . S
C1245 C1250 1.363 . S
C1246 H1223 0.950 . S
C1246 C1245 1.397 . S
C1246 C1247 1.334 . S
C1247 H1224 0.950 . S
C1247 C1246 1.334 . S
C1247 C1248 1.287 . S
C1248 C1247 1.287 . S
C1248 C1249 1.524 . S
C1248 H1267 0.913 . S
C1249 H1225 0.950 . S
C1249 C1248 1.524 . S
C1249 C1250 1.415 . S
C1250 H1226 0.950 . S
C1250 C1245 1.363 . S
C1250 C1249 1.415 . S
C1251 H1227 0.951 . S
C1251 C1252 1.366 . S
C1251 C1253 1.388 . S
C1252 C1251 1.366 . S
C1252 C1256 1.385 . S
C1253 H1228 0.951 . S
C1253 C1251 1.388 . S
C1253 C1254 1.366 . S
C1254 C1253 1.366 . S
C1254 C1255 1.414 . S
C1254 C1257 1.499 . S
C1255 H1229 0.950 . S
C1255 C1254 1.414 . S
C1255 C1256 1.374 . S
C1256 H1230 0.950 . S
C1256 C1252 1.385 . S
C1256 C1255 1.374 . S
C1257 C1254 1.499 . S
C1257 C1258 1.373 . S
C1257 C1259 1.389 . S
C1258 H1231 0.950 . S
C1258 C1244 1.377 . S
C1258 C1257 1.373 . S
C1259 C1243 1.377 . S
C1259 C1257 1.389 . S
C1259 C1260 1.524 . S
C1260 C1259 1.524 . S
C1260 C1261 1.397 . S
C1260 C1265 1.363 . S
C1261 H1232 0.950 . S
C1261 C1260 1.397 . S
C1261 C1262 1.334 . S
C1262 H1233 0.950 . S
C1262 C1261 1.334 . S
C1262 C1263 1.287 . S
C1263 C1262 1.287 . S
C1263 C1264 1.524 . S
C1263 H1266 0.999 . S
C1264 H1234 0.950 . S
C1264 C1263 1.524 . S
C1264 C1265 1.415 . S
C1265 H1235 0.950 . S
C1265 C1260 1.363 . S
C1265 C1264 1.415 . S
H1266 C1263 0.999 . S
H1267 C1248 0.913 . S
H1268 C1286 0.951 . S
H1269 C1288 0.951 . S
H1270 C1290 0.950 . S
H1271 C1291 0.950 . S
H1272 C1293 0.950 . S
H1273 C1296 0.950 . S
H1274 C1297 0.950 . S
H1275 C1299 0.950 . S
H1276 C1300 0.950 . S
H1277 C1301 0.951 . S
H1278 C1303 0.951 . S
H1279 C1305 0.950 . S
H1280 C1306 0.950 . S
H1281 C1308 0.950 . S
H1282 C1311 0.950 . S
H1283 C1312 0.950 . S
H1284 C1314 0.950 . S
H1285 C1315 0.950 . S
C1286 H1268 0.951 . S
C1286 C1287 1.366 . S
C1286 C1288 1.388 . S
C1287 C1286 1.366 . S
C1287 C1291 1.385 . S
C1288 H1269 0.951 . S
C1288 C1286 1.388 . S
C1288 C1289 1.366 . S
C1289 C1288 1.366 . S
C1289 C1290 1.414 . S
C1289 C1292 1.499 . S
C1290 H1270 0.950 . S
C1290 C1289 1.414 . S
C1290 C1291 1.374 . S
C1291 H1271 0.950 . S
C1291 C1287 1.385 . S
C1291 C1290 1.374 . S
C1292 C1289 1.499 . S
C1292 C1293 1.373 . S
C1292 C1294 1.389 . S
C1293 H1272 0.950 . S
C1293 C1292 1.373 . S
C1293 C1309 1.377 . S
C1294 C1292 1.389 . S
C1294 C1295 1.524 . S
C1294 C1308 1.377 . S
C1295 C1294 1.524 . S
C1295 C1296 1.397 . S
C1295 C1300 1.363 . S
C1296 H1273 0.950 . S
C1296 C1295 1.397 . S
C1296 C1297 1.334 . S
C1297 H1274 0.950 . S
C1297 C1296 1.334 . S
C1297 C1298 1.287 . S
C1298 C1297 1.287 . S
C1298 C1299 1.524 . S
C1298 H1317 0.913 . S
C1299 H1275 0.950 . S
C1299 C1298 1.524 . S
C1299 C1300 1.415 . S
C1300 H1276 0.950 . S
C1300 C1295 1.363 . S
C1300 C1299 1.415 . S
C1301 H1277 0.951 . S
C1301 C1302 1.366 . S
C1301 C1303 1.388 . S
C1302 C1301 1.366 . S
C1302 C1306 1.385 . S
C1303 H1278 0.951 . S
C1303 C1301 1.388 . S
C1303 C1304 1.366 . S
C1304 C1303 1.366 . S
C1304 C1305 1.414 . S
C1304 C1307 1.499 . S
C1305 H1279 0.950 . S
C1305 C1304 1.414 . S
C1305 C1306 1.374 . S
C1306 H1280 0.950 . S
C1306 C1302 1.385 . S
C1306 C1305 1.374 . S
C1307 C1304 1.499 . S
C1307 C1308 1.373 . S
C1307 C1309 1.389 . S
C1308 H1281 0.950 . S
C1308 C1294 1.377 . S
C1308 C1307 1.373 . S
C1309 C1293 1.377 . S
C1309 C1307 1.389 . S
C1309 C1310 1.524 . S
C1310 C1309 1.524 . S
C1310 C1311 1.397 . S
C1310 C1315 1.363 . S
C1311 H1282 0.950 . S
C1311 C1310 1.397 . S
C1311 C1312 1.334 . S
C1312 H1283 0.950 . S
C1312 C1311 1.334 . S
C1312 C1313 1.287 . S
C1313 C1312 1.287 . S
C1313 C1314 1.524 . S
C1313 H1316 0.999 . S
C1314 H1284 0.950 . S
C1314 C1313 1.524 . S
C1314 C1315 1.415 . S
C1315 H1285 0.950 . S
C1315 C1310 1.363 . S
C1315 C1314 1.415 . S
H1316 C1313 0.999 . S
H1317 C1298 0.913 . S
H1318 C1336 0.951 . S
H1319 C1338 0.951 . S
H1320 C1340 0.950 . S
H1321 C1341 0.950 . S
H1322 C1343 0.950 . S
H1323 C1346 0.950 . S
H1324 C1347 0.950 . S
H1325 C1349 0.950 . S
H1326 C1350 0.950 . S
H1327 C1351 0.951 . S
H1328 C1353 0.951 . S
H1329 C1355 0.950 . S
H1330 C1356 0.950 . S
H1331 C1358 0.950 . S
H1332 C1361 0.950 . S
H1333 C1362 0.950 . S
H1334 C1364 0.950 . S
H1335 C1365 0.950 . S
C1336 H1318 0.951 . S
C1336 C1337 1.366 . S
C1336 C1338 1.388 . S
C1337 C1336 1.366 . S
C1337 C1341 1.385 . S
C1338 H1319 0.951 . S
C1338 C1336 1.388 . S
C1338 C1339 1.366 . S
C1339 C1338 1.366 . S
C1339 C1340 1.414 . S
C1339 C1342 1.499 . S
C1340 H1320 0.950 . S
C1340 C1339 1.414 . S
C1340 C1341 1.374 . S
C1341 H1321 0.950 . S
C1341 C1337 1.385 . S
C1341 C1340 1.374 . S
C1342 C1339 1.499 . S
C1342 C1343 1.373 . S
C1342 C1344 1.389 . S
C1343 H1322 0.950 . S
C1343 C1342 1.373 . S
C1343 C1359 1.377 . S
C1344 C1342 1.389 . S
C1344 C1345 1.524 . S
C1344 C1358 1.377 . S
C1345 C1344 1.524 . S
C1345 C1346 1.397 . S
C1345 C1350 1.363 . S
C1346 H1323 0.950 . S
C1346 C1345 1.397 . S
C1346 C1347 1.334 . S
C1347 H1324 0.950 . S
C1347 C1346 1.334 . S
C1347 C1348 1.287 . S
C1348 C1347 1.287 . S
C1348 C1349 1.524 . S
C1348 H1367 0.913 . S
C1349 H1325 0.950 . S
C1349 C1348 1.524 . S
C1349 C1350 1.415 . S
C1350 H1326 0.950 . S
C1350 C1345 1.363 . S
C1350 C1349 1.415 . S
C1351 H1327 0.951 . S
C1351 C1352 1.366 . S
C1351 C1353 1.388 . S
C1352 C1351 1.366 . S
C1352 C1356 1.385 . S
C1353 H1328 0.951 . S
C1353 C1351 1.388 . S
C1353 C1354 1.366 . S
C1354 C1353 1.366 . S
C1354 C1355 1.414 . S
C1354 C1357 1.499 . S
C1355 H1329 0.950 . S
C1355 C1354 1.414 . S
C1355 C1356 1.374 . S
C1356 H1330 0.950 . S
C1356 C1352 1.385 . S
C1356 C1355 1.374 . S
C1357 C1354 1.499 . S
C1357 C1358 1.373 . S
C1357 C1359 1.389 . S
C1358 H1331 0.950 . S
C1358 C1344 1.377 . S
C1358 C1357 1.373 . S
C1359 C1343 1.377 . S
C1359 C1357 1.389 . S
C1359 C1360 1.524 . S
C1360 C1359 1.524 . S
C1360 C1361 1.397 . S
C1360 C1365 1.363 . S
C1361 H1332 0.950 . S
C1361 C1360 1.397 . S
C1361 C1362 1.334 . S
C1362 H1333 0.950 . S
C1362 C1361 1.334 . S
C1362 C1363 1.287 . S
C1363 C1362 1.287 . S
C1363 C1364 1.524 . S
C1363 H1366 0.999 . S
C1364 H1334 0.950 . S
C1364 C1363 1.524 . S
C1364 C1365 1.415 . S
C1365 H1335 0.950 . S
C1365 C1360 1.363 . S
C1365 C1364 1.415 . S
H1366 C1363 0.999 . S
H1367 C1348 0.913 . S
H1368 C1386 0.951 . S
H1369 C1388 0.951 . S
H1370 C1390 0.950 . S
H1371 C1391 0.950 . S
H1372 C1393 0.950 . S
H1373 C1396 0.950 . S
H1374 C1397 0.950 . S
H1375 C1399 0.950 . S
H1376 C1400 0.950 . S
H1377 C1401 0.951 . S
H1378 C1403 0.951 . S
H1379 C1405 0.950 . S
H1380 C1406 0.950 . S
H1381 C1408 0.950 . S
H1382 C1411 0.950 . S
H1383 C1412 0.950 . S
H1384 C1414 0.950 . S
H1385 C1415 0.950 . S
C1386 H1368 0.951 . S
C1386 C1387 1.366 . S
C1386 C1388 1.388 . S
C1387 C1386 1.366 . S
C1387 C1391 1.385 . S
C1388 H1369 0.951 . S
C1388 C1386 1.388 . S
C1388 C1389 1.366 . S
C1389 C1388 1.366 . S
C1389 C1390 1.414 . S
C1389 C1392 1.499 . S
C1390 H1370 0.950 . S
C1390 C1389 1.414 . S
C1390 C1391 1.374 . S
C1391 H1371 0.950 . S
C1391 C1387 1.385 . S
C1391 C1390 1.374 . S
C1392 C1389 1.499 . S
C1392 C1393 1.373 . S
C1392 C1394 1.389 . S
C1393 H1372 0.950 . S
C1393 C1392 1.373 . S
C1393 C1409 1.377 . S
C1394 C1392 1.389 . S
C1394 C1395 1.524 . S
C1394 C1408 1.377 . S
C1395 C1394 1.524 . S
C1395 C1396 1.397 . S
C1395 C1400 1.363 . S
C1396 H1373 0.950 . S
C1396 C1395 1.397 . S
C1396 C1397 1.334 . S
C1397 H1374 0.950 . S
C1397 C1396 1.334 . S
C1397 C1398 1.287 . S
C1398 C1397 1.287 . S
C1398 C1399 1.524 . S
C1398 H1417 0.913 . S
C1399 H1375 0.950 . S
C1399 C1398 1.524 . S
C1399 C1400 1.415 . S
C1400 H1376 0.950 . S
C1400 C1395 1.363 . S
C1400 C1399 1.415 . S
C1401 H1377 0.951 . S
C1401 C1402 1.366 . S
C1401 C1403 1.388 . S
C1402 C1401 1.366 . S
C1402 C1406 1.385 . S
C1403 H1378 0.951 . S
C1403 C1401 1.388 . S
C1403 C1404 1.366 . S
C1404 C1403 1.366 . S
C1404 C1405 1.414 . S
C1404 C1407 1.499 . S
C1405 H1379 0.950 . S
C1405 C1404 1.414 . S
C1405 C1406 1.374 . S
C1406 H1380 0.950 . S
C1406 C1402 1.385 . S
C1406 C1405 1.374 . S
C1407 C1404 1.499 . S
C1407 C1408 1.373 . S
C1407 C1409 1.389 . S
C1408 H1381 0.950 . S
C1408 C1394 1.377 . S
C1408 C1407 1.373 . S
C1409 C1393 1.377 . S
C1409 C1407 1.389 . S
C1409 C1410 1.524 . S
C1410 C1409 1.524 . S
C1410 C1411 1.397 . S
C1410 C1415 1.363 . S
C1411 H1382 0.950 . S
C1411 C1410 1.397 . S
C1411 C1412 1.334 . S
C1412 H1383 0.950 . S
C1412 C1411 1.334 . S
C1412 C1413 1.287 . S
C1413 C1412 1.287 . S
C1413 C1414 1.524 . S
C1413 H1416 0.999 . S
C1414 H1384 0.950 . S
C1414 C1413 1.524 . S
C1414 C1415 1.415 . S
C1415 H1385 0.950 . S
C1415 C1410 1.363 . S
C1415 C1414 1.415 . S
H1416 C1413 0.999 . S
H1417 C1398 0.913 . S
H1418 C1436 0.951 . S
H1419 C1438 0.951 . S
H1420 C1440 0.950 . S
H1421 C1441 0.950 . S
H1422 C1443 0.950 . S
H1423 C1446 0.950 . S
H1424 C1447 0.950 . S
H1425 C1449 0.950 . S
H1426 C1450 0.950 . S
H1427 C1451 0.951 . S
H1428 C1453 0.951 . S
H1429 C1455 0.950 . S
H1430 C1456 0.950 . S
H1431 C1458 0.950 . S
H1432 C1461 0.950 . S
H1433 C1462 0.950 . S
H1434 C1464 0.950 . S
H1435 C1465 0.950 . S
C1436 H1418 0.951 . S
C1436 C1437 1.366 . S
C1436 C1438 1.388 . S
C1437 C1436 1.366 . S
C1437 C1441 1.385 . S
C1438 H1419 0.951 . S
C1438 C1436 1.388 . S
C1438 C1439 1.366 . S
C1439 C1438 1.366 . S
C1439 C1440 1.414 . S
C1439 C1442 1.499 . S
C1440 H1420 0.950 . S
C1440 C1439 1.414 . S
C1440 C1441 1.374 . S
C1441 H1421 0.950 . S
C1441 C1437 1.385 . S
C1441 C1440 1.374 . S
C1442 C1439 1.499 . S
C1442 C1443 1.373 . S
C1442 C1444 1.389 . S
C1443 H1422 0.950 . S
C1443 C1442 1.373 . S
C1443 C1459 1.377 . S
C1444 C1442 1.389 . S
C1444 C1445 1.524 . S
C1444 C1458 1.377 . S
C1445 C1444 1.524 . S
C1445 C1446 1.397 . S
C1445 C1450 1.363 . S
C1446 H1423 0.950 . S
C1446 C1445 1.397 . S
C1446 C1447 1.334 . S
C1447 H1424 0.950 . S
C1447 C1446 1.334 . S
C1447 C1448 1.287 . S
C1448 C1447 1.287 . S
C1448 C1449 1.524 . S
C1448 H1467 0.913 . S
C1449 H1425 0.950 . S
C1449 C1448 1.524 . S
C1449 C1450 1.415 . S
C1450 H1426 0.950 . S
C1450 C1445 1.363 . S
C1450 C1449 1.415 . S
C1451 H1427 0.951 . S
C1451 C1452 1.366 . S
C1451 C1453 1.388 . S
C1452 C1451 1.366 . S
C1452 C1456 1.385 . S
C1453 H1428 0.951 . S
C1453 C1451 1.388 . S
C1453 C1454 1.366 . S
C1454 C1453 1.366 . S
C1454 C1455 1.414 . S
C1454 C1457 1.499 . S
C1455 H1429 0.950 . S
C1455 C1454 1.414 . S
C1455 C1456 1.374 . S
C1456 H1430 0.950 . S
C1456 C1452 1.385 . S
C1456 C1455 1.374 . S
C1457 C1454 1.499 . S
C1457 C1458 1.373 . S
C1457 C1459 1.389 . S
C1458 H1431 0.950 . S
C1458 C1444 1.377 . S
C1458 C1457 1.373 . S
C1459 C1443 1.377 . S
C1459 C1457 1.389 . S
C1459 C1460 1.524 . S
C1460 C1459 1.524 . S
C1460 C1461 1.397 . S
C1460 C1465 1.363 . S
C1461 H1432 0.950 . S
C1461 C1460 1.397 . S
C1461 C1462 1.334 . S
C1462 H1433 0.950 . S
C1462 C1461 1.334 . S
C1462 C1463 1.287 . S
C1463 C1462 1.287 . S
C1463 C1464 1.524 . S
C1463 H1466 0.999 . S
C1464 H1434 0.950 . S
C1464 C1463 1.524 . S
C1464 C1465 1.415 . S
C1465 H1435 0.950 . S
C1465 C1460 1.363 . S
C1465 C1464 1.415 . S
H1466 C1463 0.999 . S
H1467 C1448 0.913 . S
H1468 C1486 0.951 . S
H1469 C1488 0.951 . S
H1470 C1490 0.950 . S
H1471 C1491 0.950 . S
H1472 C1493 0.950 . S
H1473 C1496 0.950 . S
H1474 C1497 0.950 . S
H1475 C1499 0.950 . S
H1476 C1500 0.950 . S
H1477 C1501 0.951 . S
H1478 C1503 0.951 . S
H1479 C1505 0.950 . S
H1480 C1506 0.950 . S
H1481 C1508 0.950 . S
H1482 C1511 0.950 . S
H1483 C1512 0.950 . S
H1484 C1514 0.950 . S
H1485 C1515 0.950 . S
C1486 H1468 0.951 . S
C1486 C1487 1.366 . S
C1486 C1488 1.388 . S
C1487 C1486 1.366 . S
C1487 C1491 1.385 . S
C1488 H1469 0.951 . S
C1488 C1486 1.388 . S
C1488 C1489 1.366 . S
C1489 C1488 1.366 . S
C1489 C1490 1.414 . S
C1489 C1492 1.499 . S
C1490 H1470 0.950 . S
C1490 C1489 1.414 . S
C1490 C1491 1.374 . S
C1491 H1471 0.950 . S
C1491 C1487 1.385 . S
C1491 C1490 1.374 . S
C1492 C1489 1.499 . S
C1492 C1493 1.373 . S
C1492 C1494 1.389 . S
C1493 H1472 0.950 . S
C1493 C1492 1.373 . S
C1493 C1509 1.377 . S
C1494 C1492 1.389 . S
C1494 C1495 1.524 . S
C1494 C1508 1.377 . S
C1495 C1494 1.524 . S
C1495 C1496 1.397 . S
C1495 C1500 1.363 . S
C1496 H1473 0.950 . S
C1496 C1495 1.397 . S
C1496 C1497 1.334 . S
C1497 H1474 0.950 . S
C1497 C1496 1.334 . S
C1497 C1498 1.287 . S
C1498 C1497 1.287 . S
C1498 C1499 1.524 . S
C1498 H1517 0.913 . S
C1499 H1475 0.950 . S
C1499 C1498 1.524 . S
C1499 C1500 1.415 . S
C1500 H1476 0.950 . S
C1500 C1495 1.363 . S
C1500 C1499 1.415 . S
C1501 H1477 0.951 . S
C1501 C1502 1.366 . S
C1501 C1503 1.388 . S
C1502 C1501 1.366 . S
C1502 C1506 1.385 . S
C1503 H1478 0.951 . S
C1503 C1501 1.388 . S
C1503 C1504 1.366 . S
C1504 C1503 1.366 . S
C1504 C1505 1.414 . S
C1504 C1507 1.499 . S
C1505 H1479 0.950 . S
C1505 C1504 1.414 . S
C1505 C1506 1.374 . S
C1506 H1480 0.950 . S
C1506 C1502 1.385 . S
C1506 C1505 1.374 . S
C1507 C1504 1.499 . S
C1507 C1508 1.373 . S
C1507 C1509 1.389 . S
C1508 H1481 0.950 . S
C1508 C1494 1.377 . S
C1508 C1507 1.373 . S
C1509 C1493 1.377 . S
C1509 C1507 1.389 . S
C1509 C1510 1.524 . S
C1510 C1509 1.524 . S
C1510 C1511 1.397 . S
C1510 C1515 1.363 . S
C1511 H1482 0.950 . S
C1511 C1510 1.397 . S
C1511 C1512 1.334 . S
C1512 H1483 0.950 . S
C1512 C1511 1.334 . S
C1512 C1513 1.287 . S
C1513 C1512 1.287 . S
C1513 C1514 1.524 . S
C1513 H1516 0.999 . S
C1514 H1484 0.950 . S
C1514 C1513 1.524 . S
C1514 C1515 1.415 . S
C1515 H1485 0.950 . S
C1515 C1510 1.363 . S
C1515 C1514 1.415 . S
H1516 C1513 0.999 . S
H1517 C1498 0.913 . S
H1518 C1536 0.951 . S
H1519 C1538 0.951 . S
H1520 C1540 0.950 . S
H1521 C1541 0.950 . S
H1522 C1543 0.950 . S
H1523 C1546 0.950 . S
H1524 C1547 0.950 . S
H1525 C1549 0.950 . S
H1526 C1550 0.950 . S
H1527 C1551 0.951 . S
H1528 C1553 0.951 . S
H1529 C1555 0.950 1_556 S
H1530 C1556 0.950 . S
H1531 C1558 0.950 . S
H1532 C1561 0.935 1_556 S
H1533 C1562 0.950 . S
H1534 C1564 0.950 . S
H1535 C1565 0.958 . S
C1536 H1518 0.951 . S
C1536 C1537 1.366 . S
C1536 C1538 1.388 . S
C1537 C1536 1.366 . S
C1537 C1541 1.385 . S
C1538 H1519 0.951 . S
C1538 C1536 1.388 . S
C1538 C1539 1.366 . S
C1539 C1538 1.366 . S
C1539 C1540 1.414 . S
C1539 C1542 1.499 . S
C1540 H1520 0.950 . S
C1540 C1539 1.414 . S
C1540 C1541 1.374 . S
C1541 H1521 0.950 . S
C1541 C1537 1.385 . S
C1541 C1540 1.374 . S
C1542 C1539 1.499 . S
C1542 C1543 1.373 . S
C1542 C1544 1.389 . S
C1543 H1522 0.950 . S
C1543 C1542 1.373 . S
C1543 C1559 1.377 . S
C1544 C1542 1.389 . S
C1544 C1545 1.524 . S
C1544 C1558 1.377 . S
C1545 C1544 1.524 . S
C1545 C1546 1.397 . S
C1545 C1550 1.363 . S
C1546 H1523 0.950 . S
C1546 C1545 1.397 . S
C1546 C1547 1.334 . S
C1547 H1524 0.950 . S
C1547 C1546 1.334 . S
C1547 C1548 1.287 . S
C1548 C1547 1.287 . S
C1548 C1549 1.524 . S
C1548 H1567 0.913 . S
C1549 H1525 0.950 . S
C1549 C1548 1.524 . S
C1549 C1550 1.415 . S
C1550 H1526 0.950 . S
C1550 C1545 1.363 . S
C1550 C1549 1.415 . S
C1551 H1527 0.951 . S
C1551 C1552 1.366 . S
C1551 C1553 1.388 . S
C1552 C1551 1.366 . S
C1552 C1556 1.385 . S
C1553 H1528 0.951 . S
C1553 C1551 1.388 . S
C1553 C1554 1.366 . S
C1554 C1553 1.366 . S
C1554 C1555 1.414 . S
C1554 C1557 1.499 1_554 S
C1555 H1529 0.950 1_554 S
C1555 C1554 1.414 . S
C1555 C1556 1.374 . S
C1556 H1530 0.950 . S
C1556 C1552 1.385 . S
C1556 C1555 1.374 . S
C1557 C1554 1.499 1_556 S
C1557 C1558 1.373 . S
C1557 C1559 1.389 . S
C1558 H1531 0.950 . S
C1558 C1544 1.377 . S
C1558 C1557 1.373 . S
C1559 C1543 1.377 . S
C1559 C1557 1.389 . S
C1559 C1560 1.524 . S
C1560 C1559 1.524 . S
C1560 C1561 1.390 1_556 S
C1560 C1565 1.363 1_556 S
C1561 H1532 0.935 1_554 S
C1561 C1560 1.390 1_554 S
C1561 C1562 1.357 . S
C1562 H1533 0.950 . S
C1562 C1561 1.357 . S
C1562 C1563 1.287 . S
C1563 C1562 1.287 . S
C1563 C1564 1.524 . S
C1563 H1566 0.999 . S
C1564 H1534 0.950 . S
C1564 C1563 1.524 . S
C1564 C1565 1.415 . S
C1565 H1535 0.958 . S
C1565 C1560 1.363 1_554 S
C1565 C1564 1.415 . S
H1566 C1563 0.999 . S
H1567 C1548 0.913 . S
H1568 C1586 0.951 . S
H1569 C1588 0.951 . S
H1570 C1590 0.950 . S
H1571 C1591 0.950 . S
H1572 C1593 0.950 . S
H1573 C1596 0.950 . S
H1574 C1597 0.950 . S
H1575 C1599 0.950 . S
H1576 C1600 0.950 . S
H1577 C1601 0.951 . S
H1578 C1603 0.951 . S
H1579 C1605 0.950 . S
H1580 C1606 0.950 . S
H1581 C1608 0.950 . S
H1582 C1611 0.950 . S
H1583 C1612 0.950 . S
H1584 C1614 0.950 . S
H1585 C1615 0.950 . S
C1586 H1568 0.951 . S
C1586 C1587 1.366 . S
C1586 C1588 1.388 . S
C1587 C1586 1.366 . S
C1587 C1591 1.385 . S
C1588 H1569 0.951 . S
C1588 C1586 1.388 . S
C1588 C1589 1.366 . S
C1589 C1588 1.366 . S
C1589 C1590 1.414 . S
C1589 C1592 1.499 . S
C1590 H1570 0.950 . S
C1590 C1589 1.414 . S
C1590 C1591 1.374 . S
C1591 H1571 0.950 . S
C1591 C1587 1.385 . S
C1591 C1590 1.374 . S
C1592 C1589 1.499 . S
C1592 C1593 1.373 . S
C1592 C1594 1.389 . S
C1593 H1572 0.950 . S
C1593 C1592 1.373 . S
C1593 C1609 1.377 . S
C1594 C1592 1.389 . S
C1594 C1595 1.524 . S
C1594 C1608 1.377 . S
C1595 C1594 1.524 . S
C1595 C1596 1.397 . S
C1595 C1600 1.363 . S
C1596 H1573 0.950 . S
C1596 C1595 1.397 . S
C1596 C1597 1.334 . S
C1597 H1574 0.950 . S
C1597 C1596 1.334 . S
C1597 C1598 1.287 . S
C1598 C1597 1.287 . S
C1598 C1599 1.524 . S
C1598 H1617 0.913 . S
C1599 H1575 0.950 . S
C1599 C1598 1.524 . S
C1599 C1600 1.415 . S
C1600 H1576 0.950 . S
C1600 C1595 1.363 . S
C1600 C1599 1.415 . S
C1601 H1577 0.951 . S
C1601 C1602 1.366 . S
C1601 C1603 1.388 . S
C1602 C1601 1.366 . S
C1602 C1606 1.385 . S
C1603 H1578 0.951 . S
C1603 C1601 1.388 . S
C1603 C1604 1.366 . S
C1604 C1603 1.366 . S
C1604 C1605 1.414 . S
C1604 C1607 1.499 . S
C1605 H1579 0.950 . S
C1605 C1604 1.414 . S
C1605 C1606 1.374 . S
C1606 H1580 0.950 . S
C1606 C1602 1.385 . S
C1606 C1605 1.374 . S
C1607 C1604 1.499 . S
C1607 C1608 1.373 . S
C1607 C1609 1.389 . S
C1608 H1581 0.950 . S
C1608 C1594 1.377 . S
C1608 C1607 1.373 . S
C1609 C1593 1.377 . S
C1609 C1607 1.389 . S
C1609 C1610 1.524 . S
C1610 C1609 1.524 . S
C1610 C1611 1.397 . S
C1610 C1615 1.363 . S
C1611 H1582 0.950 . S
C1611 C1610 1.397 . S
C1611 C1612 1.334 . S
C1612 H1583 0.950 . S
C1612 C1611 1.334 . S
C1612 C1613 1.287 . S
C1613 C1612 1.287 . S
C1613 C1614 1.524 . S
C1613 H1616 0.999 . S
C1614 H1584 0.950 . S
C1614 C1613 1.524 . S
C1614 C1615 1.415 . S
C1615 H1585 0.950 . S
C1615 C1610 1.363 . S
C1615 C1614 1.415 . S
H1616 C1613 0.999 . S
H1617 C1598 0.913 . S
H1618 C1636 0.951 . S
H1619 C1638 0.951 . S
H1620 C1640 0.950 . S
H1621 C1641 0.950 . S
H1622 C1643 0.950 . S
H1623 C1646 0.950 . S
H1624 C1647 0.950 . S
H1625 C1649 0.950 . S
H1626 C1650 0.950 . S
H1627 C1651 0.951 . S
H1628 C1653 0.951 . S
H1629 C1655 0.950 . S
H1630 C1656 0.950 . S
H1631 C1658 0.950 . S
H1632 C1661 0.950 . S
H1633 C1662 0.950 . S
H1634 C1664 0.950 . S
H1635 C1665 0.950 . S
C1636 H1618 0.951 . S
C1636 C1637 1.366 . S
C1636 C1638 1.388 . S
C1637 C1636 1.366 . S
C1637 C1641 1.385 . S
C1638 H1619 0.951 . S
C1638 C1636 1.388 . S
C1638 C1639 1.366 . S
C1639 C1638 1.366 . S
C1639 C1640 1.414 . S
C1639 C1642 1.499 . S
C1640 H1620 0.950 . S
C1640 C1639 1.414 . S
C1640 C1641 1.374 . S
C1641 H1621 0.950 . S
C1641 C1637 1.385 . S
C1641 C1640 1.374 . S
C1642 C1639 1.499 . S
C1642 C1643 1.373 . S
C1642 C1644 1.389 . S
C1643 H1622 0.950 . S
C1643 C1642 1.373 . S
C1643 C1659 1.377 . S
C1644 C1642 1.389 . S
C1644 C1645 1.524 . S
C1644 C1658 1.377 . S
C1645 C1644 1.524 . S
C1645 C1646 1.397 . S
C1645 C1650 1.363 . S
C1646 H1623 0.950 . S
C1646 C1645 1.397 . S
C1646 C1647 1.334 . S
C1647 H1624 0.950 . S
C1647 C1646 1.334 . S
C1647 C1648 1.287 . S
C1648 C1647 1.287 . S
C1648 C1649 1.524 . S
C1648 H1667 0.913 . S
C1649 H1625 0.950 . S
C1649 C1648 1.524 . S
C1649 C1650 1.415 . S
C1650 H1626 0.950 . S
C1650 C1645 1.363 . S
C1650 C1649 1.415 . S
C1651 H1627 0.951 . S
C1651 C1652 1.366 . S
C1651 C1653 1.388 . S
C1652 C1651 1.366 . S
C1652 C1656 1.385 . S
C1653 H1628 0.951 . S
C1653 C1651 1.388 . S
C1653 C1654 1.366 . S
C1654 C1653 1.366 . S
C1654 C1655 1.414 . S
C1654 C1657 1.499 . S
C1655 H1629 0.950 . S
C1655 C1654 1.414 . S
C1655 C1656 1.374 . S
C1656 H1630 0.950 . S
C1656 C1652 1.385 . S
C1656 C1655 1.374 . S
C1657 C1654 1.499 . S
C1657 C1658 1.373 . S
C1657 C1659 1.389 . S
C1658 H1631 0.950 . S
C1658 C1644 1.377 . S
C1658 C1657 1.373 . S
C1659 C1643 1.377 . S
C1659 C1657 1.389 . S
C1659 C1660 1.524 . S
C1660 C1659 1.524 . S
C1660 C1661 1.397 . S
C1660 C1665 1.363 . S
C1661 H1632 0.950 . S
C1661 C1660 1.397 . S
C1661 C1662 1.334 . S
C1662 H1633 0.950 . S
C1662 C1661 1.334 . S
C1662 C1663 1.287 . S
C1663 C1662 1.287 . S
C1663 C1664 1.524 . S
C1663 H1666 0.999 . S
C1664 H1634 0.950 . S
C1664 C1663 1.524 . S
C1664 C1665 1.415 . S
C1665 H1635 0.950 . S
C1665 C1660 1.363 . S
C1665 C1664 1.415 . S
H1666 C1663 0.999 . S
H1667 C1648 0.913 . S
H1668 C1686 0.951 . S
H1669 C1688 0.951 . S
H1670 C1690 0.950 . S
H1671 C1691 0.950 . S
H1672 C1693 0.950 . S
H1673 C1696 0.950 . S
H1674 C1697 0.950 . S
H1675 C1699 0.950 . S
H1676 C1700 0.950 . S
H1677 C1701 0.951 . S
H1678 C1703 0.951 . S
H1679 C1705 0.950 . S
H1680 C1706 0.950 . S
H1681 C1708 0.950 . S
H1682 C1711 0.950 . S
H1683 C1712 0.950 . S
H1684 C1714 0.950 . S
H1685 C1715 0.950 . S
C1686 H1668 0.951 . S
C1686 C1687 1.366 . S
C1686 C1688 1.388 . S
C1687 C1686 1.366 . S
C1687 C1691 1.385 . S
C1688 H1669 0.951 . S
C1688 C1686 1.388 . S
C1688 C1689 1.366 . S
C1689 C1688 1.366 . S
C1689 C1690 1.414 . S
C1689 C1692 1.499 . S
C1690 H1670 0.950 . S
C1690 C1689 1.414 . S
C1690 C1691 1.374 . S
C1691 H1671 0.950 . S
C1691 C1687 1.385 . S
C1691 C1690 1.374 . S
C1692 C1689 1.499 . S
C1692 C1693 1.373 . S
C1692 C1694 1.389 . S
C1693 H1672 0.950 . S
C1693 C1692 1.373 . S
C1693 C1709 1.377 . S
C1694 C1692 1.389 . S
C1694 C1695 1.524 . S
C1694 C1708 1.377 . S
C1695 C1694 1.524 . S
C1695 C1696 1.397 . S
C1695 C1700 1.363 . S
C1696 H1673 0.950 . S
C1696 C1695 1.397 . S
C1696 C1697 1.334 . S
C1697 H1674 0.950 . S
C1697 C1696 1.334 . S
C1697 C1698 1.287 . S
C1698 C1697 1.287 . S
C1698 C1699 1.524 . S
C1698 H1717 0.913 . S
C1699 H1675 0.950 . S
C1699 C1698 1.524 . S
C1699 C1700 1.415 . S
C1700 H1676 0.950 . S
C1700 C1695 1.363 . S
C1700 C1699 1.415 . S
C1701 H1677 0.951 . S
C1701 C1702 1.366 . S
C1701 C1703 1.388 . S
C1702 C1701 1.366 . S
C1702 C1706 1.385 . S
C1703 H1678 0.951 . S
C1703 C1701 1.388 . S
C1703 C1704 1.366 . S
C1704 C1703 1.366 . S
C1704 C1705 1.414 . S
C1704 C1707 1.499 . S
C1705 H1679 0.950 . S
C1705 C1704 1.414 . S
C1705 C1706 1.374 . S
C1706 H1680 0.950 . S
C1706 C1702 1.385 . S
C1706 C1705 1.374 . S
C1707 C1704 1.499 . S
C1707 C1708 1.373 . S
C1707 C1709 1.389 . S
C1708 H1681 0.950 . S
C1708 C1694 1.377 . S
C1708 C1707 1.373 . S
C1709 C1693 1.377 . S
C1709 C1707 1.389 . S
C1709 C1710 1.524 . S
C1710 C1709 1.524 . S
C1710 C1711 1.397 . S
C1710 C1715 1.363 . S
C1711 H1682 0.950 . S
C1711 C1710 1.397 . S
C1711 C1712 1.334 . S
C1712 H1683 0.950 . S
C1712 C1711 1.334 . S
C1712 C1713 1.287 . S
C1713 C1712 1.287 . S
C1713 C1714 1.524 . S
C1713 H1716 0.999 . S
C1714 H1684 0.950 . S
C1714 C1713 1.524 . S
C1714 C1715 1.415 . S
C1715 H1685 0.950 . S
C1715 C1710 1.363 . S
C1715 C1714 1.415 . S
H1716 C1713 0.999 . S
H1717 C1698 0.913 . S
H1718 C1736 0.951 . S
H1719 C1738 0.951 . S
H1720 C1740 0.950 . S
H1721 C1741 0.950 . S
H1722 C1743 0.950 . S
H1723 C1746 0.950 . S
H1724 C1747 0.950 . S
H1725 C1749 0.950 . S
H1726 C1750 0.950 . S
H1727 C1751 0.951 . S
H1728 C1753 0.951 . S
H1729 C1755 0.950 . S
H1730 C1756 0.950 . S
H1731 C1758 0.950 . S
H1732 C1761 0.950 . S
H1733 C1762 0.950 . S
H1734 C1764 0.950 . S
H1735 C1765 0.950 . S
C1736 H1718 0.951 . S
C1736 C1737 1.366 . S
C1736 C1738 1.388 . S
C1737 C1736 1.366 . S
C1737 C1741 1.385 . S
C1738 H1719 0.951 . S
C1738 C1736 1.388 . S
C1738 C1739 1.366 . S
C1739 C1738 1.366 . S
C1739 C1740 1.414 . S
C1739 C1742 1.499 . S
C1740 H1720 0.950 . S
C1740 C1739 1.414 . S
C1740 C1741 1.374 . S
C1741 H1721 0.950 . S
C1741 C1737 1.385 . S
C1741 C1740 1.374 . S
C1742 C1739 1.499 . S
C1742 C1743 1.373 . S
C1742 C1744 1.389 . S
C1743 H1722 0.950 . S
C1743 C1742 1.373 . S
C1743 C1759 1.377 . S
C1744 C1742 1.389 . S
C1744 C1745 1.524 . S
C1744 C1758 1.377 . S
C1745 C1744 1.524 . S
C1745 C1746 1.397 . S
C1745 C1750 1.363 . S
C1746 H1723 0.950 . S
C1746 C1745 1.397 . S
C1746 C1747 1.334 . S
C1747 H1724 0.950 . S
C1747 C1746 1.334 . S
C1747 C1748 1.287 . S
C1748 C1747 1.287 . S
C1748 C1749 1.524 . S
C1748 H1767 0.913 . S
C1749 H1725 0.950 . S
C1749 C1748 1.524 . S
C1749 C1750 1.415 . S
C1750 H1726 0.950 . S
C1750 C1745 1.363 . S
C1750 C1749 1.415 . S
C1751 H1727 0.951 . S
C1751 C1752 1.366 . S
C1751 C1753 1.388 . S
C1752 C1751 1.366 . S
C1752 C1756 1.385 . S
C1753 H1728 0.951 . S
C1753 C1751 1.388 . S
C1753 C1754 1.366 . S
C1754 C1753 1.366 . S
C1754 C1755 1.414 . S
C1754 C1757 1.499 . S
C1755 H1729 0.950 . S
C1755 C1754 1.414 . S
C1755 C1756 1.374 . S
C1756 H1730 0.950 . S
C1756 C1752 1.385 . S
C1756 C1755 1.374 . S
C1757 C1754 1.499 . S
C1757 C1758 1.373 . S
C1757 C1759 1.389 . S
C1758 H1731 0.950 . S
C1758 C1744 1.377 . S
C1758 C1757 1.373 . S
C1759 C1743 1.377 . S
C1759 C1757 1.389 . S
C1759 C1760 1.524 . S
C1760 C1759 1.524 . S
C1760 C1761 1.397 . S
C1760 C1765 1.363 . S
C1761 H1732 0.950 . S
C1761 C1760 1.397 . S
C1761 C1762 1.334 . S
C1762 H1733 0.950 . S
C1762 C1761 1.334 . S
C1762 C1763 1.287 . S
C1763 C1762 1.287 . S
C1763 C1764 1.524 . S
C1763 H1766 0.999 . S
C1764 H1734 0.950 . S
C1764 C1763 1.524 . S
C1764 C1765 1.415 . S
C1765 H1735 0.950 . S
C1765 C1760 1.363 . S
C1765 C1764 1.415 . S
H1766 C1763 0.999 . S
H1767 C1748 0.913 . S
H1768 C1786 0.951 . S
H1769 C1788 0.951 . S
H1770 C1790 0.950 . S
H1771 C1791 0.950 . S
H1772 C1793 0.950 . S
H1773 C1796 0.950 . S
H1774 C1797 0.950 . S
H1775 C1799 0.950 . S
H1776 C1800 0.950 . S
H1777 C1801 0.951 . S
H1778 C1803 0.951 . S
H1779 C1805 0.950 . S
H1780 C1806 0.950 . S
H1781 C1808 0.950 . S
H1782 C1811 0.950 . S
H1783 C1812 0.950 . S
H1784 C1814 0.950 . S
H1785 C1815 0.950 . S
C1786 H1768 0.951 . S
C1786 C1787 1.366 . S
C1786 C1788 1.388 . S
C1787 C1786 1.366 . S
C1787 C1791 1.385 . S
C1788 H1769 0.951 . S
C1788 C1786 1.388 . S
C1788 C1789 1.366 . S
C1789 C1788 1.366 . S
C1789 C1790 1.414 . S
C1789 C1792 1.499 . S
C1790 H1770 0.950 . S
C1790 C1789 1.414 . S
C1790 C1791 1.374 . S
C1791 H1771 0.950 . S
C1791 C1787 1.385 . S
C1791 C1790 1.374 . S
C1792 C1789 1.499 . S
C1792 C1793 1.373 . S
C1792 C1794 1.389 . S
C1793 H1772 0.950 . S
C1793 C1792 1.373 . S
C1793 C1809 1.377 . S
C1794 C1792 1.389 . S
C1794 C1795 1.524 . S
C1794 C1808 1.377 . S
C1795 C1794 1.524 . S
C1795 C1796 1.397 . S
C1795 C1800 1.363 . S
C1796 H1773 0.950 . S
C1796 C1795 1.397 . S
C1796 C1797 1.334 . S
C1797 H1774 0.950 . S
C1797 C1796 1.334 . S
C1797 C1798 1.287 . S
C1798 C1797 1.287 . S
C1798 C1799 1.524 . S
C1798 H1817 0.913 . S
C1799 H1775 0.950 . S
C1799 C1798 1.524 . S
C1799 C1800 1.415 . S
C1800 H1776 0.950 . S
C1800 C1795 1.363 . S
C1800 C1799 1.415 . S
C1801 H1777 0.951 . S
C1801 C1802 1.366 . S
C1801 C1803 1.388 . S
C1802 C1801 1.366 . S
C1802 C1806 1.385 . S
C1803 H1778 0.951 . S
C1803 C1801 1.388 . S
C1803 C1804 1.366 . S
C1804 C1803 1.366 . S
C1804 C1805 1.414 . S
C1804 C1807 1.499 . S
C1805 H1779 0.950 . S
C1805 C1804 1.414 . S
C1805 C1806 1.374 . S
C1806 H1780 0.950 . S
C1806 C1802 1.385 . S
C1806 C1805 1.374 . S
C1807 C1804 1.499 . S
C1807 C1808 1.373 . S
C1807 C1809 1.389 . S
C1808 H1781 0.950 . S
C1808 C1794 1.377 . S
C1808 C1807 1.373 . S
C1809 C1793 1.377 . S
C1809 C1807 1.389 . S
C1809 C1810 1.524 . S
C1810 C1809 1.524 . S
C1810 C1811 1.397 . S
C1810 C1815 1.363 . S
C1811 H1782 0.950 . S
C1811 C1810 1.397 . S
C1811 C1812 1.334 . S
C1812 H1783 0.950 . S
C1812 C1811 1.334 . S
C1812 C1813 1.287 . S
C1813 C1812 1.287 . S
C1813 C1814 1.524 . S
C1813 H1816 0.999 . S
C1814 H1784 0.950 . S
C1814 C1813 1.524 . S
C1814 C1815 1.415 . S
C1815 H1785 0.950 . S
C1815 C1810 1.363 . S
C1815 C1814 1.415 . S
H1816 C1813 0.999 . S
H1817 C1798 0.913 . S
H1818 C1836 0.951 . S
H1819 C1838 0.951 . S
H1820 C1840 0.950 . S
H1821 C1841 0.950 . S
H1822 C1843 0.950 . S
H1823 C1846 0.950 . S
H1824 C1847 0.950 . S
H1825 C1849 0.950 . S
H1826 C1850 0.950 . S
H1827 C1851 0.951 . S
H1828 C1853 0.951 . S
H1829 C1855 0.950 . S
H1830 C1856 0.950 . S
H1831 C1858 0.950 . S
H1832 C1861 0.950 . S
H1833 C1862 0.950 . S
H1834 C1864 0.950 . S
H1835 C1865 0.950 . S
C1836 H1818 0.951 . S
C1836 C1837 1.366 . S
C1836 C1838 1.388 . S
C1837 C1836 1.366 . S
C1837 C1841 1.385 . S
C1838 H1819 0.951 . S
C1838 C1836 1.388 . S
C1838 C1839 1.366 . S
C1839 C1838 1.366 . S
C1839 C1840 1.414 . S
C1839 C1842 1.499 . S
C1840 H1820 0.950 . S
C1840 C1839 1.414 . S
C1840 C1841 1.374 . S
C1841 H1821 0.950 . S
C1841 C1837 1.385 . S
C1841 C1840 1.374 . S
C1842 C1839 1.499 . S
C1842 C1843 1.373 . S
C1842 C1844 1.389 . S
C1843 H1822 0.950 . S
C1843 C1842 1.373 . S
C1843 C1859 1.377 . S
C1844 C1842 1.389 . S
C1844 C1845 1.524 . S
C1844 C1858 1.377 . S
C1845 C1844 1.524 . S
C1845 C1846 1.397 . S
C1845 C1850 1.363 . S
C1846 H1823 0.950 . S
C1846 C1845 1.397 . S
C1846 C1847 1.334 . S
C1847 H1824 0.950 . S
C1847 C1846 1.334 . S
C1847 C1848 1.287 . S
C1848 C1847 1.287 . S
C1848 C1849 1.524 . S
C1848 H1867 0.913 . S
C1849 H1825 0.950 . S
C1849 C1848 1.524 . S
C1849 C1850 1.415 . S
C1850 H1826 0.950 . S
C1850 C1845 1.363 . S
C1850 C1849 1.415 . S
C1851 H1827 0.951 . S
C1851 C1852 1.366 . S
C1851 C1853 1.388 . S
C1852 C1851 1.366 . S
C1852 C1856 1.385 . S
C1853 H1828 0.951 . S
C1853 C1851 1.388 . S
C1853 C1854 1.366 . S
C1854 C1853 1.366 . S
C1854 C1855 1.414 . S
C1854 C1857 1.499 . S
C1855 H1829 0.950 . S
C1855 C1854 1.414 . S
C1855 C1856 1.374 . S
C1856 H1830 0.950 . S
C1856 C1852 1.385 . S
C1856 C1855 1.374 . S
C1857 C1854 1.499 . S
C1857 C1858 1.373 . S
C1857 C1859 1.389 . S
C1858 H1831 0.950 . S
C1858 C1844 1.377 . S
C1858 C1857 1.373 . S
C1859 C1843 1.377 . S
C1859 C1857 1.389 . S
C1859 C1860 1.524 . S
C1860 C1859 1.524 . S
C1860 C1861 1.397 . S
C1860 C1865 1.363 . S
C1861 H1832 0.950 . S
C1861 C1860 1.397 . S
C1861 C1862 1.334 . S
C1862 H1833 0.950 . S
C1862 C1861 1.334 . S
C1862 C1863 1.287 . S
C1863 C1862 1.287 . S
C1863 C1864 1.524 . S
C1863 H1866 0.999 . S
C1864 H1834 0.950 . S
C1864 C1863 1.524 . S
C1864 C1865 1.415 . S
C1865 H1835 0.950 . S
C1865 C1860 1.363 . S
C1865 C1864 1.415 . S
H1866 C1863 0.999 . S
H1867 C1848 0.913 . S
H1868 C1886 0.951 . S
H1869 C1888 0.951 . S
H1870 C1890 0.950 . S
H1871 C1891 0.950 . S
H1872 C1893 0.950 . S
H1873 C1896 0.950 . S
H1874 C1897 0.950 . S
H1875 C1899 0.950 . S
H1876 C1900 0.950 . S
H1877 C1901 0.951 . S
H1878 C1903 0.951 . S
H1879 C1905 0.950 . S
H1880 C1906 0.950 . S
H1881 C1908 0.949 1_556 S
H1882 C1911 0.950 . S
H1883 C1912 0.950 . S
H1884 C1914 0.950 . S
H1885 C1915 0.950 . S
C1886 H1868 0.951 . S
C1886 C1887 1.366 . S
C1886 C1888 1.388 . S
C1887 C1886 1.366 . S
C1887 C1891 1.385 . S
C1888 H1869 0.951 . S
C1888 C1886 1.388 . S
C1888 C1889 1.366 . S
C1889 C1888 1.366 . S
C1889 C1890 1.414 . S
C1889 C1892 1.499 . S
C1890 H1870 0.950 . S
C1890 C1889 1.414 . S
C1890 C1891 1.374 . S
C1891 H1871 0.950 . S
C1891 C1887 1.385 . S
C1891 C1890 1.374 . S
C1892 C1889 1.499 . S
C1892 C1893 1.373 . S
C1892 C1894 1.389 . S
C1893 H1872 0.950 . S
C1893 C1892 1.373 . S
C1893 C1909 1.377 1_554 S
C1894 C1892 1.389 . S
C1894 C1895 1.524 . S
C1894 C1908 1.382 . S
C1895 C1894 1.524 . S
C1895 C1896 1.397 . S
C1895 C1900 1.363 . S
C1896 H1873 0.950 . S
C1896 C1895 1.397 . S
C1896 C1897 1.334 . S
C1897 H1874 0.950 . S
C1897 C1896 1.334 . S
C1897 C1898 1.287 . S
C1898 C1897 1.287 . S
C1898 C1899 1.524 . S
C1898 H1917 0.913 . S
C1899 H1875 0.950 . S
C1899 C1898 1.524 . S
C1899 C1900 1.415 . S
C1900 H1876 0.950 . S
C1900 C1895 1.363 . S
C1900 C1899 1.415 . S
C1901 H1877 0.951 . S
C1901 C1902 1.366 . S
C1901 C1903 1.388 . S
C1902 C1901 1.366 . S
C1902 C1906 1.385 . S
C1903 H1878 0.951 . S
C1903 C1901 1.388 . S
C1903 C1904 1.366 . S
C1904 C1903 1.366 . S
C1904 C1905 1.414 . S
C1904 C1907 1.499 . S
C1905 H1879 0.950 . S
C1905 C1904 1.414 . S
C1905 C1906 1.374 . S
C1906 H1880 0.950 . S
C1906 C1902 1.385 . S
C1906 C1905 1.374 . S
C1907 C1904 1.499 . S
C1907 C1908 1.370 1_556 S
C1907 C1909 1.389 . S
C1908 H1881 0.949 1_554 S
C1908 C1894 1.382 . S
C1908 C1907 1.370 1_554 S
C1909 C1893 1.377 1_556 S
C1909 C1907 1.389 . S
C1909 C1910 1.524 . S
C1910 C1909 1.524 . S
C1910 C1911 1.397 . S
C1910 C1915 1.363 . S
C1911 H1882 0.950 . S
C1911 C1910 1.397 . S
C1911 C1912 1.334 . S
C1912 H1883 0.950 . S
C1912 C1911 1.334 . S
C1912 C1913 1.287 . S
C1913 C1912 1.287 . S
C1913 C1914 1.524 . S
C1913 H1916 0.999 . S
C1914 H1884 0.950 . S
C1914 C1913 1.524 . S
C1914 C1915 1.415 . S
C1915 H1885 0.950 . S
C1915 C1910 1.363 . S
C1915 C1914 1.415 . S
H1916 C1913 0.999 . S
H1917 C1898 0.913 . S
H1918 C1936 0.951 . S
H1919 C1938 0.951 . S
H1920 C1940 0.950 . S
H1921 C1941 0.950 . S
H1922 C1943 0.950 . S
H1923 C1946 0.950 . S
H1924 C1947 0.950 . S
H1925 C1949 0.950 . S
H1926 C1950 0.950 . S
H1927 C1951 0.951 . S
H1928 C1953 0.951 . S
H1929 C1955 0.950 . S
H1930 C1956 0.950 . S
H1931 C1958 0.950 . S
H1932 C1961 0.950 . S
H1933 C1962 0.950 . S
H1934 C1964 0.950 . S
H1935 C1965 0.950 . S
C1936 H1918 0.951 . S
C1936 C1937 1.366 . S
C1936 C1938 1.388 . S
C1937 C1936 1.366 . S
C1937 C1941 1.385 . S
C1938 H1919 0.951 . S
C1938 C1936 1.388 . S
C1938 C1939 1.366 . S
C1939 C1938 1.366 . S
C1939 C1940 1.414 . S
C1939 C1942 1.499 . S
C1940 H1920 0.950 . S
C1940 C1939 1.414 . S
C1940 C1941 1.374 . S
C1941 H1921 0.950 . S
C1941 C1937 1.385 . S
C1941 C1940 1.374 . S
C1942 C1939 1.499 . S
C1942 C1943 1.373 . S
C1942 C1944 1.389 . S
C1943 H1922 0.950 . S
C1943 C1942 1.373 . S
C1943 C1959 1.377 . S
C1944 C1942 1.389 . S
C1944 C1945 1.524 . S
C1944 C1958 1.377 . S
C1945 C1944 1.524 . S
C1945 C1946 1.397 . S
C1945 C1950 1.363 . S
C1946 H1923 0.950 . S
C1946 C1945 1.397 . S
C1946 C1947 1.334 . S
C1947 H1924 0.950 . S
C1947 C1946 1.334 . S
C1947 C1948 1.287 . S
C1948 C1947 1.287 . S
C1948 C1949 1.524 . S
C1948 H1967 0.913 . S
C1949 H1925 0.950 . S
C1949 C1948 1.524 . S
C1949 C1950 1.415 . S
C1950 H1926 0.950 . S
C1950 C1945 1.363 . S
C1950 C1949 1.415 . S
C1951 H1927 0.951 . S
C1951 C1952 1.366 . S
C1951 C1953 1.388 . S
C1952 C1951 1.366 . S
C1952 C1956 1.385 . S
C1953 H1928 0.951 . S
C1953 C1951 1.388 . S
C1953 C1954 1.366 . S
C1954 C1953 1.366 . S
C1954 C1955 1.414 . S
C1954 C1957 1.499 . S
C1955 H1929 0.950 . S
C1955 C1954 1.414 . S
C1955 C1956 1.374 . S
C1956 H1930 0.950 . S
C1956 C1952 1.385 . S
C1956 C1955 1.374 . S
C1957 C1954 1.499 . S
C1957 C1958 1.373 . S
C1957 C1959 1.389 . S
C1958 H1931 0.950 . S
C1958 C1944 1.377 . S
C1958 C1957 1.373 . S
C1959 C1943 1.377 . S
C1959 C1957 1.389 . S
C1959 C1960 1.524 . S
C1960 C1959 1.524 . S
C1960 C1961 1.397 . S
C1960 C1965 1.363 . S
C1961 H1932 0.950 . S
C1961 C1960 1.397 . S
C1961 C1962 1.334 . S
C1962 H1933 0.950 . S
C1962 C1961 1.334 . S
C1962 C1963 1.287 . S
C1963 C1962 1.287 . S
C1963 C1964 1.524 . S
C1963 H1966 0.999 . S
C1964 H1934 0.950 . S
C1964 C1963 1.524 . S
C1964 C1965 1.415 . S
C1965 H1935 0.950 . S
C1965 C1960 1.363 . S
C1965 C1964 1.415 . S
H1966 C1963 0.999 . S
H1967 C1948 0.913 . S
C802 C761 1.570 . S
C787 C1 1.175 . S
C837 C169 1.309 . S
C852 C695 1.582 . S
C887 C283 1.247 . S
C902 C709 1.486 . S
C937 C397 1.186 . S
C952 C723 1.422 . S
C1002 C737 1.377 . S
C987 C457 1.033 . S
C1037 C571 1.010 . S
C1052 C747 1.381 . S
C1087 C115 1.170 . S
C1102 C705 1.584 . S
C1137 C229 1.160 . S
C1152 C719 1.570 . S
C1187 C343 1.055 . S
C1202 C733 1.427 . S
C1252 C751 1.498 . S
C1237 C511 1.280 . S
C1302 C765 1.621 . S
C1287 C625 1.342 . S
C1352 C691 1.700 . S
C1337 C55 1.373 . S
C1387 C29 1.139 . S
C1402 C706 1.350 . S
C1437 C125 1.002 . S
C1452 C720 1.577 . S
C1502 C734 1.509 . S
C1487 C239 0.959 . S
C1537 C353 0.890 . S
C1552 C753 1.352 . S
C1602 C767 1.231 . S
C1587 C485 1.020 . S
C1652 C692 1.307 . S
C1637 C599 1.087 . S
C1702 C762 1.329 . S
C1687 C143 1.116 . S
C1737 C257 1.004 . S
C1752 C697 1.193 . S
C1802 C711 1.121 . S
C1787 C371 0.951 . S
C1837 C467 0.898 . S
C1852 C725 1.335 . S
C1887 C581 0.888 . S
C1902 C739 1.377 . S
C1937 C11 0.912 . S
C1952 C748 1.474 . S
