# Generated by pormake.
# Topology anh, (6,3)-cn, num edge types: 1
# Building blocks:
#     Node 0, Type 0, BuildingBlock: INOVEN_clean_sbu_0, # of connection points: 6
#     Node 1, Type 0, BuildingBlock: INOVEN_clean_sbu_0, # of connection points: 6
#     Node 2, Type 0, BuildingBlock: INOVEN_clean_sbu_0, # of connection points: 6
#     Node 3, Type 1, BuildingBlock: MIDCAF_clean_linker_0, # of connection points: 3
#     Node 4, Type 1, BuildingBlock: MIDCAF_clean_linker_0, # of connection points: 3
#     Node 5, Type 1, BuildingBlock: MIDCAF_clean_linker_0, # of connection points: 3
#     Node 6, Type 1, BuildingBlock: MIDCAF_clean_linker_0, # of connection points: 3
#     Node 7, Type 1, BuildingBlock: MIDCAF_clean_linker_0, # of connection points: 3
#     Node 8, Type 1, BuildingBlock: MIDCAF_clean_linker_0, # of connection points: 3
#     Edge 9, Type (0, 1), BuildingBlock: TEMPAE_clean_linker_10, # of connection points: 2
#     Edge 10, Type (0, 1), BuildingBlock: TEMPAE_clean_linker_10, # of connection points: 2
#     Edge 11, Type (0, 1), BuildingBlock: TEMPAE_clean_linker_10, # of connection points: 2
#     Edge 12, Type (0, 1), BuildingBlock: TEMPAE_clean_linker_10, # of connection points: 2
#     Edge 13, Type (0, 1), BuildingBlock: TEMPAE_clean_linker_10, # of connection points: 2
#     Edge 14, Type (0, 1), BuildingBlock: TEMPAE_clean_linker_10, # of connection points: 2
#     Edge 15, Type (0, 1), BuildingBlock: TEMPAE_clean_linker_10, # of connection points: 2
#     Edge 16, Type (0, 1), BuildingBlock: TEMPAE_clean_linker_10, # of connection points: 2
#     Edge 17, Type (0, 1), BuildingBlock: TEMPAE_clean_linker_10, # of connection points: 2
#     Edge 18, Type (0, 1), BuildingBlock: TEMPAE_clean_linker_10, # of connection points: 2
#     Edge 19, Type (0, 1), BuildingBlock: TEMPAE_clean_linker_10, # of connection points: 2
#     Edge 20, Type (0, 1), BuildingBlock: TEMPAE_clean_linker_10, # of connection points: 2
#     Edge 21, Type (0, 1), BuildingBlock: TEMPAE_clean_linker_10, # of connection points: 2
#     Edge 22, Type (0, 1), BuildingBlock: TEMPAE_clean_linker_10, # of connection points: 2
#     Edge 23, Type (0, 1), BuildingBlock: TEMPAE_clean_linker_10, # of connection points: 2
#     Edge 24, Type (0, 1), BuildingBlock: TEMPAE_clean_linker_10, # of connection points: 2
#     Edge 25, Type (0, 1), BuildingBlock: TEMPAE_clean_linker_10, # of connection points: 2
#     Edge 26, Type (0, 1), BuildingBlock: TEMPAE_clean_linker_10, # of connection points: 2
# Relax obj value: 0.179
# Max RMSD: 0.212
# Mean RMSD: 0.157
data_MOF--net-anh--node1-INOVEN_clean_sbu_0--node2-MIDCAF_clean_linker_0--edge1-TEMPAE_clean_linker_10
_symmetry_space_group_name_H-M    P1
_symmetry_Int_Tables_number       1
_symmetry_cell_setting            triclinic
loop_
_symmetry_equiv_pos_as_xyz
'x, y, z'
_cell_length_a     37.504703
_cell_length_b     43.804864
_cell_length_c     66.752866
_cell_angle_alpha  92.769727
_cell_angle_beta   89.624272
_cell_angle_gamma 128.15751
loop_
_atom_site_label
_atom_site_type_symbol
_atom_site_fract_x
_atom_site_fract_y
_atom_site_fract_z
_atom_type_partial_charge
Gd0 Gd 0.14234 0.56245 0.14416 0.0
Gd1 Gd 0.0806 0.58072 0.1594 0.0
C2 C 0.18678 0.65128 0.15332 0.0
C3 C 0.18047 0.53857 0.12395 0.0
C4 C 0.18162 0.50568 0.12423 0.0
C5 C 0.18214 0.49105 0.14239 0.0
C6 C 0.18361 0.48945 0.10609 0.0
C7 C 0.19044 0.44632 0.12426 0.0
C8 C 0.18778 0.45991 0.10608 0.0
C9 C 0.18671 0.46172 0.14242 0.0
C10 C 0.13889 0.56709 0.18448 0.0
C11 C 1.03449 0.49087 0.15023 0.0
C12 C 1.03208 0.59443 0.17888 0.0
C13 C 0.98286 0.56635 0.18132 0.0
C14 C 0.95733 0.53425 0.16752 0.0
C15 C 0.96171 0.56879 0.19806 0.0
C16 C 0.89022 0.50672 0.18718 0.0
C17 C 0.91533 0.53926 0.20086 0.0
C18 C 0.91165 0.50476 0.17043 0.0
C19 C 0.0812 0.57141 0.11916 0.0
O20 O 0.18769 0.627 0.14121 0.0
O21 O 0.15072 0.6388 0.16409 0.0
O22 O 0.14192 0.53035 0.11824 0.0
O23 O 0.20025 0.56392 0.13929 0.0
O24 O 0.17489 0.57732 0.17515 0.0
O25 O 0.10619 0.55222 0.1722 0.0
O26 O 1.02998 0.51595 0.15892 0.0
O27 O 0.07364 0.50201 0.14292 0.0
O28 O 1.04486 0.60505 0.16052 0.0
O29 O 0.05544 0.58562 0.18773 0.0
O30 O 1.0451 0.5598 0.12887 0.0
O31 O 0.11519 0.58918 0.13096 0.0
H32 H 0.18015 0.50293 0.15659 0.0
H33 H 0.18273 0.5001 0.09192 0.0
H34 H 0.1896 0.44811 0.09182 0.0
H35 H 0.18896 0.45214 0.15668 0.0
H36 H 0.97283 0.53169 0.15449 0.0
H37 H 0.98107 0.59315 0.209 0.0
H38 H 0.89927 0.5415 0.21376 0.0
H39 H 0.89281 0.48057 0.15937 0.0
Gd40 Gd 0.62491 0.03182 0.48125 0.0
Gd41 Gd 0.56635 0.05533 0.47169 0.0
C42 C 0.51576 0.96521 0.47265 0.0
C43 C 0.65823 1.00075 0.49646 0.0
C44 C 0.64388 0.96156 0.50009 0.0
C45 C 0.63604 0.93563 0.48418 0.0
C46 C 0.63992 0.95052 0.51987 0.0
C47 C 0.6224 0.88903 0.50787 0.0
C48 C 0.62911 0.91463 0.52373 0.0
C49 C 0.62542 0.89976 0.48804 0.0
C50 C 0.62028 0.04209 0.4422 0.0
C51 C 0.67663 0.12222 0.47885 0.0
C52 C 0.53385 0.08804 0.45793 0.0
C53 C 0.54452 0.12604 0.46269 0.0
C54 C 0.57425 0.14997 0.47884 0.0
C55 C 0.52438 0.13827 0.4515 0.0
C56 C 0.56223 0.19757 0.47314 0.0
C57 C 0.53317 0.17376 0.45666 0.0
C58 C 0.58298 0.18534 0.48404 0.0
C59 C 0.57333 0.04724 0.51097 0.0
O60 O 0.55302 0.97528 0.48193 0.0
O61 O 0.51483 0.99135 0.46414 0.0
O62 O 0.66376 0.01063 0.47785 0.0
O63 O 0.63917 0.01263 0.50721 0.0
O64 O 0.65645 0.05101 0.45115 0.0
O65 O 0.58746 0.02586 0.4539 0.0
O66 O 0.63771 0.11254 0.47185 0.0
O67 O 0.67971 0.09614 0.48576 0.0
O68 O 0.51541 0.06392 0.47237 0.0
O69 O 0.56571 0.08894 0.44908 0.0
O70 O 0.53689 0.03842 0.50245 0.0
O71 O 0.60492 0.06241 0.49873 0.0
H72 H 0.63889 0.94324 0.46874 0.0
H73 H 0.64578 0.96992 0.53241 0.0
H74 H 0.62628 0.90703 0.53917 0.0
H75 H 0.62092 0.88096 0.47548 0.0
H76 H 0.59006 0.14092 0.48768 0.0
H77 H 0.50151 0.12019 0.43892 0.0
H78 H 0.51711 0.18251 0.44778 0.0
H79 H 0.605 0.20254 0.49697 0.0
Gd80 Gd 0.61309 0.56292 0.84892 0.0
Gd81 Gd 0.54812 0.47554 0.85103 0.0
C82 C 0.50241 0.51816 0.8513 0.0
C83 C 0.65495 0.63353 0.83868 0.0
C84 C 0.64485 0.66017 0.83411 0.0
C85 C 0.61998 0.66643 0.84707 0.0
C86 C 0.66128 0.68031 0.81646 0.0
C87 C 0.62976 0.71386 0.82505 0.0
C88 C 0.65368 0.70669 0.81193 0.0
C89 C 0.6126 0.69309 0.8426 0.0
C90 C 0.59783 0.53625 0.886 0.0
C91 C 0.65979 0.5211 0.84966 0.0
C92 C 0.50872 0.40479 0.86028 0.0
C93 C 0.51674 0.37631 0.8556 0.0
C94 C 0.53417 0.37557 0.83707 0.0
C95 C 0.50775 0.35004 0.86986 0.0
C96 C 0.53205 0.32156 0.84682 0.0
C97 C 0.51535 0.32291 0.86553 0.0
C98 C 0.54147 0.34836 0.83268 0.0
C99 C 0.56354 0.50086 0.81365 0.0
O100 O 0.5429 0.54892 0.84561 0.0
O101 O 0.49728 0.48701 0.85699 0.0
O102 O 0.65175 0.62425 0.85732 0.0
O103 O 0.63927 0.6042 0.82568 0.0
O104 O 0.63739 0.56618 0.88053 0.0
O105 O 0.56875 0.52361 0.87207 0.0
O106 O 0.61823 0.48894 0.85311 0.0
O107 O 0.66621 0.55359 0.84576 0.0
O108 O 0.49518 0.41382 0.84524 0.0
O109 O 0.53956 0.43505 0.87186 0.0
O110 O 0.52468 0.47041 0.8192 0.0
O111 O 0.59284 0.51455 0.82763 0.0
H112 H 0.60663 0.65107 0.86074 0.0
H113 H 0.68026 0.67574 0.80618 0.0
H114 H 0.66649 0.7214 0.79806 0.0
H115 H 0.59427 0.69799 0.85311 0.0
H116 H 0.54185 0.39587 0.82591 0.0
H117 H 0.49486 0.35054 0.88435 0.0
H118 H 0.50839 0.30317 0.87688 0.0
H119 H 0.55371 0.34789 0.81802 0.0
C120 C 0.47048 0.96288 0.17203 0.0
C121 C 0.47138 0.93117 0.17153 0.0
C122 C 0.51252 0.9383 0.17631 0.0
C123 C 0.55078 0.97556 0.18278 0.0
H124 H 0.65792 0.13765 0.16421 0.0
H125 H 0.72213 0.20078 0.15251 0.0
H126 H 0.80187 0.21829 0.20465 0.0
H127 H 0.73761 0.15674 0.2166 0.0
H128 H 0.6746 0.12781 0.25746 0.0
H129 H 0.67138 0.12317 0.29376 0.0
H130 H 0.54746 0.0052 0.28662 0.0
H131 H 0.55082 0.00941 0.25037 0.0
H132 H 0.50649 0.02364 0.18013 0.0
H133 H 0.43932 0.95842 0.16862 0.0
H134 H 0.51467 0.91473 0.17579 0.0
H135 H 0.5811 0.97969 0.18761 0.0
N136 N 0.61938 0.075 0.18798 0.0
N137 N 0.65038 0.10388 0.22024 0.0
N138 N 0.58268 0.0404 0.21671 0.0
C139 C 0.6528 0.10616 0.19996 0.0
C140 C 0.61536 0.07125 0.22875 0.0
C141 C 0.58431 0.042 0.19647 0.0
C142 C 0.69241 0.14239 0.19146 0.0
C143 C 0.68933 0.15502 0.17305 0.0
C144 C 0.72625 0.19118 0.16634 0.0
C145 C 0.76723 0.21521 0.17777 0.0
C146 C 0.77062 0.20144 0.1957 0.0
C147 C 0.73372 0.16584 0.20252 0.0
C148 C 0.61307 0.06895 0.2509 0.0
C149 C 0.64658 0.10087 0.26359 0.0
C150 C 0.64462 0.09832 0.28443 0.0
C151 C 0.60919 0.0638 0.29307 0.0
C152 C 0.5755 0.03204 0.28042 0.0
C153 C 0.57738 0.03458 0.2596 0.0
C154 C 0.54898 0.0066 0.18437 0.0
C155 C 0.50893 1.00026 0.17851 0.0
C156 C 0.61955 0.44347 0.55562 0.0
C157 C 0.60086 0.43122 0.53598 0.0
C158 C 0.58598 0.45018 0.52704 0.0
C159 C 0.58849 0.47982 0.53773 0.0
H160 H 0.59687 0.58156 0.53213 0.0
H161 H 0.59163 0.62877 0.51739 0.0
H162 H 0.58056 0.66614 0.57657 0.0
H163 H 0.58483 0.61896 0.59122 0.0
H164 H 0.57542 0.57335 0.62885 0.0
H165 H 0.57575 0.57138 0.66515 0.0
H166 H 0.64538 0.52135 0.66095 0.0
H167 H 0.64293 0.52156 0.62451 0.0
H168 H 0.63568 0.48088 0.58153 0.0
H169 H 0.63239 0.43025 0.56282 0.0
H170 H 0.57109 0.44132 0.512 0.0
H171 H 0.5757 0.49314 0.53059 0.0
N172 N 0.59885 0.54381 0.56089 0.0
N173 N 0.60018 0.57022 0.59258 0.0
N174 N 0.60877 0.52164 0.59009 0.0
C175 C 0.59674 0.56929 0.57227 0.0
C176 C 0.60629 0.54663 0.6016 0.0
C177 C 0.60487 0.51985 0.56976 0.0
C178 C 0.59144 0.59643 0.5629 0.0
C179 C 0.59291 0.59962 0.54198 0.0
C180 C 0.59012 0.62679 0.53352 0.0
C181 C 0.58556 0.65118 0.54579 0.0
C182 C 0.5833 0.64743 0.56663 0.0
C183 C 0.58617 0.62047 0.57506 0.0
C184 C 0.6089 0.54739 0.62377 0.0
C185 C 0.59099 0.56209 0.63567 0.0
C186 C 0.59148 0.5612 0.65656 0.0
C187 C 0.61056 0.54617 0.66611 0.0
C188 C 0.62956 0.53242 0.65417 0.0
C189 C 0.62838 0.53271 0.63325 0.0
C190 C 0.6056 0.49093 0.55764 0.0
C191 C 0.62167 0.47274 0.56633 0.0
C192 C 0.98047 0.55888 0.866 0.0
C193 C 0.94042 0.52624 0.85628 0.0
C194 C 0.94144 0.49587 0.8489 0.0
C195 C 0.97985 0.49718 0.8523 0.0
H196 H 0.11861 0.47704 0.84651 0.0
H197 H 0.18239 0.4754 0.8405 0.0
H198 H 0.26995 0.58106 0.87777 0.0
H199 H 0.20668 0.58201 0.8839 0.0
H200 H 0.13415 0.5221 0.93093 0.0
H201 H 0.13504 0.52834 0.96754 0.0
H202 H 1.03554 0.54769 0.96413 0.0
H203 H 1.03462 0.54173 0.92769 0.0
H204 H 1.04731 0.58506 0.87788 0.0
H205 H 0.98215 0.58334 0.87165 0.0
H206 H 0.91158 0.47001 0.84142 0.0
H207 H 0.97776 0.47203 0.84778 0.0
N208 N 0.08565 0.52615 0.86293 0.0
N209 N 0.11613 0.5285 0.89439 0.0
N210 N 0.05375 0.5282 0.89309 0.0
C211 C 0.11756 0.52711 0.87403 0.0
C212 C 0.08444 0.52878 0.90402 0.0
C213 C 0.0533 0.52671 0.87275 0.0
C214 C 0.15715 0.53006 0.86546 0.0
C215 C 0.15182 0.50055 0.85288 0.0
C216 C 0.18866 0.49949 0.8496 0.0
C217 C 0.23209 0.5277 0.85891 0.0
C218 C 0.23744 0.55804 0.87066 0.0
C219 C 0.20094 0.55901 0.87392 0.0
C220 C 0.0844 0.5315 0.92629 0.0
C221 C 0.1124 0.52764 0.93796 0.0
C222 C 0.11278 0.53102 0.95894 0.0
C223 C 0.08551 0.53868 0.96869 0.0
C224 C 0.05734 0.54226 0.95704 0.0
C225 C 0.05666 0.53859 0.93612 0.0
C226 C 1.01896 0.52923 0.86288 0.0
C227 C 1.01858 0.56024 0.86926 0.0
C228 C 0.19996 0.66542 0.45946 0.0
C229 C 0.24464 0.6796 0.45545 0.0
C230 C 0.25122 0.65388 0.44629 0.0
C231 C 0.21422 0.61617 0.43979 0.0
H232 H 1.02201 0.49039 0.463 0.0
H233 H 0.95628 0.42801 0.47475 0.0
H234 H 0.96409 0.36836 0.42347 0.0
H235 H 1.02747 0.43019 0.41143 0.0
H236 H 1.0465 0.47911 0.36994 0.0
H237 H 1.04997 0.48337 0.33356 0.0
H238 H 0.16767 0.60421 0.34076 0.0
H239 H 0.16406 0.60036 0.37698 0.0
H240 H 0.1287 0.61794 0.45506 0.0
H241 H 0.19359 0.68444 0.46638 0.0
H242 H 0.28507 0.66341 0.44338 0.0
H243 H 0.22035 0.59793 0.43158 0.0
N244 N 0.09819 0.53487 0.43945 0.0
N245 N 0.069 0.5043 0.40726 0.0
N246 N 0.13455 0.56887 0.41054 0.0
C247 C 0.06637 0.50265 0.42757 0.0
C248 C 0.10271 0.53738 0.39862 0.0
C249 C 0.13261 0.568 0.4308 0.0
C250 C 1.02953 0.46526 0.43616 0.0
C251 C 1.00963 0.46382 0.45436 0.0
C252 C 0.97202 0.42801 0.4611 0.0
C253 C 0.95405 0.3929 0.4499 0.0
C254 C 0.97566 0.39461 0.4322 0.0
C255 C 1.01242 0.4302 0.42534 0.0
C256 C 0.10494 0.53939 0.37647 0.0
C257 C 0.07314 0.50662 0.36379 0.0
C258 C 0.07521 0.50897 0.34294 0.0
C259 C 0.10899 0.54417 0.33431 0.0
C260 C 0.14083 0.57683 0.34696 0.0
C261 C 0.13888 0.57449 0.36776 0.0
C262 C 0.16974 0.60292 0.44265 0.0
C263 C 0.16277 0.62732 0.45309 0.0
C264 C 0.57094 0.12539 0.76935 0.0
C265 C 0.563 0.12194 0.79001 0.0
C266 C 0.56217 0.09373 0.79976 0.0
C267 C 0.56839 0.06911 0.78895 0.0
H268 H 0.57005 0.97248 0.79226 0.0
H269 H 0.57185 0.92316 0.80665 0.0
H270 H 0.61984 0.9087 0.75073 0.0
H271 H 0.61688 0.95678 0.73625 0.0
H272 H 0.61775 0.99544 0.69723 0.0
H273 H 0.62126 1.00022 0.66089 0.0
H274 H 0.56816 0.0641 0.66539 0.0
H275 H 0.56622 0.06059 0.70156 0.0
H276 H 0.58293 0.10471 0.7427 0.0
H277 H 0.57287 0.14736 0.76143 0.0
H278 H 0.55597 0.09024 0.81566 0.0
H279 H 0.56712 0.04743 0.79683 0.0
N280 N 0.58426 0.02032 0.76506 0.0
N281 N 0.59303 0.99991 0.73345 0.0
N282 N 0.5841 0.04822 0.73598 0.0
C283 C 0.59018 0.9971 0.7537 0.0
C284 C 0.58984 0.02529 0.72447 0.0
C285 C 0.58146 0.0462 0.75622 0.0
C286 C 0.59298 0.96848 0.76303 0.0
C287 C 0.58105 0.9588 0.78306 0.0
C288 C 0.58222 0.93059 0.79134 0.0
C289 C 0.59553 0.91159 0.7798 0.0
C290 C 0.60833 0.92196 0.75993 0.0
C291 C 0.6069 0.94984 0.75165 0.0
C292 C 0.59187 0.02775 0.70236 0.0
C293 C 0.60693 0.01058 0.69045 0.0
C294 C 0.60875 0.01317 0.66959 0.0
C295 C 0.59519 0.03271 0.66016 0.0
C296 C 0.57984 0.04958 0.67212 0.0
C297 C 0.57845 0.04733 0.69292 0.0
C298 C 0.57559 0.07228 0.76818 0.0
C299 C 0.57701 0.10093 0.75861 0.0
C300 C 0.57997 0.31587 0.11101 0.0
C301 C 0.58209 0.32772 0.13125 0.0
C302 C 0.54538 0.32527 0.13886 0.0
C303 C 0.50912 0.31399 0.12621 0.0
H304 H 0.38291 0.28642 0.12574 0.0
H305 H 0.32542 0.29081 0.13913 0.0
H306 H 0.28421 0.29044 0.07876 0.0
H307 H 0.34035 0.28503 0.06543 0.0
H308 H 0.41821 0.33222 0.03566 0.0
H309 H 0.44852 0.37053 0.00626 0.0
H310 H 0.56767 0.37693 0.01089 0.0
H311 H 0.53771 0.33864 0.04073 0.0
H312 H 0.54473 0.29839 0.08255 0.0
H313 H 0.60697 0.31627 0.10477 0.0
H314 H 0.54588 0.33441 0.15428 0.0
H315 H 0.48263 0.31446 0.13233 0.0
N316 N 0.43598 0.29154 0.09854 0.0
N317 N 0.41997 0.30372 0.06744 0.0
N318 N 0.48784 0.31308 0.07259 0.0
C319 C 0.40749 0.29206 0.0864 0.0
C320 C 0.45996 0.31428 0.06036 0.0
C321 C 0.47589 0.30146 0.09165 0.0
C322 C 0.36692 0.28621 0.0945 0.0
C323 C 0.36073 0.28618 0.11531 0.0
C324 C 0.32792 0.28888 0.12301 0.0
C325 C 0.30063 0.29151 0.11005 0.0
C326 C 0.30431 0.28816 0.08922 0.0
C327 C 0.33698 0.28547 0.08155 0.0
C328 C 0.4757 0.33259 0.04078 0.0
C329 C 0.45065 0.34126 0.03041 0.0
C330 C 0.46807 0.36344 0.01359 0.0
C331 C 0.51066 0.37712 0.00654 0.0
C332 C 0.53476 0.36678 0.01612 0.0
C333 C 0.51757 0.34489 0.03318 0.0
C334 C 0.50918 0.30557 0.10563 0.0
C335 C 0.54418 0.30538 0.09828 0.0
C336 C 0.17886 0.38815 0.13775 0.0
C337 C 0.19997 0.41805 0.12429 0.0
C338 C 0.18938 0.36246 0.13827 0.0
C339 C 0.22151 0.36672 0.12495 0.0
C340 C 0.24257 0.39662 0.11124 0.0
C341 C 0.23172 0.42196 0.11116 0.0
C342 C 0.16655 0.33108 0.15317 0.0
C343 C 0.27715 0.40224 0.09678 0.0
C344 C 0.29268 0.33417 0.13253 0.0
C345 C 0.27357 0.30359 0.1178 0.0
C346 C 0.27339 0.35279 0.13647 0.0
C347 C 0.23432 0.34074 0.12529 0.0
C348 C 0.21239 0.30751 0.11186 0.0
C349 C 0.2322 0.2892 0.10834 0.0
C350 C 0.29747 0.38778 0.15114 0.0
C351 C 0.17049 0.29356 0.09976 0.0
H352 H 0.15403 0.38477 0.14785 0.0
H353 H 0.24896 0.44548 0.10103 0.0
H354 H 0.14847 0.30209 0.1452 0.0
H355 H 0.19243 0.33492 0.16338 0.0
H356 H 0.14191 0.33136 0.16234 0.0
H357 H 0.28942 0.42622 0.08671 0.0
H358 H 0.30676 0.40885 0.10524 0.0
H359 H 0.26224 0.37508 0.08739 0.0
H360 H 0.32473 0.34568 0.13987 0.0
H361 H 0.21673 0.26504 0.09726 0.0
H362 H 0.27282 0.38761 0.16051 0.0
H363 H 0.31647 0.41467 0.14273 0.0
H364 H 0.32192 0.389 0.16116 0.0
H365 H 0.14599 0.29332 0.10928 0.0
H366 H 0.15337 0.26395 0.09267 0.0
H367 H 0.18019 0.31381 0.08771 0.0
C368 C 0.76097 0.17281 0.47732 0.0
C369 C 0.71784 0.16336 0.47825 0.0
C370 C 0.79973 0.2111 0.47441 0.0
C371 C 0.79542 0.24086 0.47283 0.0
C372 C 0.75222 0.2318 0.47482 0.0
C373 C 0.71393 0.19312 0.47726 0.0
C374 C 0.84493 0.21929 0.47201 0.0
C375 C 0.74614 0.26268 0.47368 0.0
C376 C 0.90408 0.34606 0.47646 0.0
C377 C 0.91248 0.35459 0.45614 0.0
C378 C 0.86567 0.30951 0.48219 0.0
C379 C 0.83525 0.2805 0.46728 0.0
C380 C 0.84322 0.28907 0.44681 0.0
C381 C 0.8812 0.32598 0.44154 0.0
C382 C 0.85788 0.30177 0.5042 0.0
C383 C 0.81189 0.259 0.43038 0.0
H384 H 0.76421 0.14994 0.47795 0.0
H385 H 0.68075 0.18612 0.47816 0.0
H386 H 0.85657 0.22786 0.45651 0.0
H387 H 0.87088 0.24393 0.48238 0.0
H388 H 0.84318 0.19363 0.47492 0.0
H389 H 0.71148 0.25185 0.47778 0.0
H390 H 0.77122 0.28829 0.48381 0.0
H391 H 0.75227 0.27274 0.4582 0.0
H392 H 0.92795 0.36765 0.48791 0.0
H393 H 0.88632 0.33237 0.42584 0.0
H394 H 0.85989 0.27833 0.5076 0.0
H395 H 0.82335 0.29153 0.508 0.0
H396 H 0.88309 0.32802 0.51397 0.0
H397 H 0.80992 0.23279 0.43145 0.0
H398 H 0.82326 0.27003 0.41516 0.0
H399 H 0.77711 0.24975 0.43217 0.0
C400 C 0.65841 0.77791 0.81185 0.0
C401 C 0.62334 0.74319 0.82042 0.0
C402 C 0.65246 0.8051 0.80647 0.0
C403 C 0.6106 0.79779 0.80996 0.0
C404 C 0.57549 0.76343 0.81916 0.0
C405 C 0.58218 0.73645 0.82418 0.0
C406 C 0.69072 0.84129 0.79662 0.0
C407 C 0.53052 0.75478 0.8233 0.0
C408 C 0.61214 0.88533 0.80795 0.0
C409 C 0.59624 0.88104 0.78823 0.0
C410 C 0.61552 0.85776 0.8155 0.0
C411 C 0.60308 0.8253 0.803 0.0
C412 C 0.58582 0.82025 0.7833 0.0
C413 C 0.58235 0.84798 0.77622 0.0
C414 C 0.63367 0.86396 0.83666 0.0
C415 C 0.57227 0.78612 0.76945 0.0
H416 H 0.6907 0.78388 0.80929 0.0
H417 H 0.55472 0.70962 0.83063 0.0
H418 H 0.67966 0.84171 0.78132 0.0
H419 H 0.69981 0.86759 0.80527 0.0
H420 H 0.72155 0.84312 0.79541 0.0
H421 H 0.50791 0.72822 0.83181 0.0
H422 H 0.53594 0.77969 0.83194 0.0
H423 H 0.513 0.7507 0.80893 0.0
H424 H 0.62324 0.91085 0.81731 0.0
H425 H 0.56903 0.84389 0.76114 0.0
H426 H 0.66692 0.86972 0.83631 0.0
H427 H 0.61038 0.83735 0.84501 0.0
H428 H 0.6382 0.88876 0.845 0.0
H429 H 0.60233 0.78739 0.76654 0.0
H430 H 0.55782 0.78558 0.75485 0.0
H431 H 0.54686 0.75843 0.77662 0.0
C432 C 0.82343 0.43661 0.18632 0.0
C433 C 0.84102 0.47561 0.18901 0.0
C434 C 0.77736 0.40735 0.18153 0.0
C435 C 0.74853 0.41762 0.17934 0.0
C436 C 0.76504 0.45613 0.18467 0.0
C437 C 0.81135 0.48483 0.18945 0.0
C438 C 0.76125 0.36661 0.17644 0.0
C439 C 0.73514 0.46808 0.18296 0.0
C440 C 0.66665 0.37263 0.1347 0.0
C441 C 0.62455 0.34703 0.1436 0.0
C442 C 0.7071 0.39453 0.14617 0.0
C443 C 0.70565 0.39139 0.16721 0.0
C444 C 0.6636 0.36477 0.17632 0.0
C445 C 0.62346 0.34277 0.16439 0.0
C446 C 0.75139 0.42211 0.13576 0.0
C447 C 0.6609 0.36037 0.19868 0.0
H448 H 0.84642 0.42944 0.1864 0.0
H449 H 0.82492 0.51498 0.19163 0.0
H450 H 0.72484 0.34444 0.17957 0.0
H451 H 0.76585 0.36364 0.16021 0.0
H452 H 0.78129 0.36046 0.18499 0.0
H453 H 0.75017 0.49642 0.19119 0.0
H454 H 0.73067 0.47091 0.16691 0.0
H455 H 0.70105 0.44575 0.18882 0.0
H456 H 0.66805 0.37688 0.11877 0.0
H457 H 0.59118 0.32268 0.17139 0.0
H458 H 0.77528 0.41611 0.13941 0.0
H459 H 0.76745 0.45252 0.14114 0.0
H460 H 0.74676 0.41977 0.11919 0.0
H461 H 0.68556 0.35616 0.20389 0.0
H462 H 0.6264 0.33551 0.20315 0.0
H463 H 0.67004 0.38733 0.20655 0.0
C464 C 0.47653 0.89516 0.47907 0.0
C465 C 0.47495 0.92356 0.47131 0.0
C466 C 0.43864 0.85558 0.47755 0.0
C467 C 0.39797 0.84394 0.4681 0.0
C468 C 0.39587 0.87249 0.46053 0.0
C469 C 0.43434 0.91189 0.4622 0.0
C470 C 0.44247 0.82612 0.48572 0.0
C471 C 0.35317 0.86133 0.45035 0.0
C472 C 0.31769 0.74089 0.44473 0.0
C473 C 0.284 0.72165 0.45911 0.0
C474 C 0.35483 0.78048 0.44753 0.0
C475 C 0.35851 0.80176 0.46511 0.0
C476 C 0.3246 0.78271 0.47968 0.0
C477 C 0.28773 0.74291 0.4765 0.0
C478 C 0.39007 0.79958 0.43157 0.0
C479 C 0.3273 0.80439 0.49862 0.0
H480 H 0.50764 0.90374 0.48617 0.0
H481 H 0.43261 0.93352 0.45622 0.0
H482 H 0.41532 0.80829 0.49654 0.0
H483 H 0.43774 0.80601 0.47331 0.0
H484 H 0.47586 0.83999 0.49334 0.0
H485 H 0.35629 0.8871 0.44614 0.0
H486 H 0.34521 0.84268 0.43659 0.0
H487 H 0.32405 0.84412 0.46038 0.0
H488 H 0.3147 0.72509 0.43101 0.0
H489 H 0.26206 0.72833 0.48773 0.0
H490 H 0.42399 0.81223 0.43816 0.0
H491 H 0.39207 0.8238 0.42563 0.0
H492 H 0.38251 0.77888 0.41886 0.0
H493 H 0.35914 0.81656 0.5072 0.0
H494 H 0.29813 0.78551 0.50842 0.0
H495 H 0.32824 0.82923 0.49478 0.0
C496 C 0.57547 0.30132 0.83034 0.0
C497 C 0.53855 0.2918 0.84172 0.0
C498 C 0.57978 0.27284 0.82378 0.0
C499 C 0.54672 0.23388 0.82894 0.0
C500 C 0.5106 0.22438 0.84124 0.0
C501 C 0.50679 0.25337 0.84738 0.0
C502 C 0.61876 0.28419 0.81064 0.0
C503 C 0.47495 0.18327 0.84724 0.0
C504 C 0.5296 0.15685 0.79209 0.0
C505 C 0.55577 0.14801 0.80104 0.0
C506 C 0.52564 0.18407 0.80125 0.0
C507 C 0.54794 0.20271 0.81999 0.0
C508 C 0.57288 0.1928 0.82955 0.0
C509 C 0.57661 0.16561 0.81993 0.0
C510 C 0.49866 0.19374 0.79053 0.0
C511 C 0.59671 0.21175 0.84964 0.0
H512 H 0.60078 0.33105 0.82628 0.0
H513 H 0.47794 0.24556 0.85602 0.0
H514 H 0.63736 0.27451 0.81694 0.0
H515 H 0.60545 0.26948 0.7955 0.0
H516 H 0.64306 0.31608 0.809 0.0
H517 H 0.45206 0.18147 0.85863 0.0
H518 H 0.45412 0.16452 0.83384 0.0
H519 H 0.49114 0.17127 0.85338 0.0
H520 H 0.51255 0.14276 0.77771 0.0
H521 H 0.59707 0.15911 0.82691 0.0
H522 H 0.52129 0.22484 0.787 0.0
H523 H 0.47201 0.18927 0.80036 0.0
H524 H 0.48221 0.17576 0.77633 0.0
H525 H 0.62442 0.24318 0.84808 0.0
H526 H 0.61146 0.19854 0.85585 0.0
H527 H 0.57277 0.20936 0.86056 0.0
C528 C 0.63813 0.85123 0.52778 0.0
C529 C 0.61406 0.85203 0.51208 0.0
C530 C 0.63118 0.81686 0.53195 0.0
C531 C 0.59961 0.78234 0.52003 0.0
C532 C 0.57534 0.78288 0.50408 0.0
C533 C 0.58276 0.8177 0.50032 0.0
C534 C 0.65771 0.81752 0.54913 0.0
C535 C 0.54147 0.74668 0.49104 0.0
C536 C 0.61605 0.70526 0.52256 0.0
C537 C 0.5852 0.68175 0.53723 0.0
C538 C 0.61968 0.73712 0.51611 0.0
C539 C 0.5919 0.74575 0.52458 0.0
C540 C 0.55924 0.72107 0.53869 0.0
C541 C 0.55621 0.68934 0.54479 0.0
C542 C 0.65473 0.76261 0.50093 0.0
C543 C 0.52888 0.72917 0.54804 0.0
H544 H 0.66301 0.87773 0.5367 0.0
H545 H 0.56367 0.81792 0.48829 0.0
H546 H 0.63407 0.79632 0.56016 0.0
H547 H 0.67818 0.80867 0.5435 0.0
H548 H 0.68083 0.84671 0.557 0.0
H549 H 0.52596 0.75209 0.47901 0.0
H550 H 0.55824 0.73523 0.48399 0.0
H551 H 0.51405 0.72369 0.50035 0.0
H552 H 0.63881 0.69981 0.51674 0.0
H553 H 0.53169 0.67087 0.55586 0.0
H554 H 0.68192 0.79148 0.50825 0.0
H555 H 0.63922 0.76744 0.48865 0.0
H556 H 0.67042 0.74983 0.49432 0.0
H557 H 0.54972 0.7567 0.55749 0.0
H558 H 0.50286 0.70551 0.55754 0.0
H559 H 0.51146 0.73297 0.53623 0.0
C560 C 0.74323 0.5523 0.84379 0.0
C561 C 0.70007 0.52052 0.84996 0.0
C562 C 0.78126 0.55243 0.84416 0.0
C563 C 0.77717 0.5202 0.8511 0.0
C564 C 0.73365 0.48797 0.8573 0.0
C565 C 0.69603 0.48842 0.85656 0.0
C566 C 0.82618 0.58742 0.83714 0.0
C567 C 0.72685 0.45296 0.86502 0.0
C568 C 0.86856 0.5072 0.83771 0.0
C569 C 0.89784 0.52371 0.85484 0.0
C570 C 0.82968 0.50586 0.83627 0.0
C571 C 0.81848 0.52079 0.85241 0.0
C572 C 0.84745 0.53684 0.86984 0.0
C573 C 0.88631 0.53826 0.87079 0.0
C574 C 0.80076 0.48882 0.81724 0.0
C575 C 0.83735 0.55262 0.88767 0.0
H576 H 0.74745 0.57736 0.83855 0.0
H577 H 0.66334 0.46356 0.86143 0.0
H578 H 0.8517 0.60115 0.84969 0.0
H579 H 0.83881 0.5783 0.82506 0.0
H580 H 0.82383 0.60952 0.8314 0.0
H581 H 0.69111 0.42992 0.86898 0.0
H582 H 0.73683 0.44052 0.85356 0.0
H583 H 0.749 0.46182 0.87853 0.0
H584 H 0.87655 0.49598 0.82515 0.0
H585 H 0.90751 0.55045 0.88433 0.0
H586 H 0.80001 0.51106 0.81046 0.0
H587 H 0.76531 0.46423 0.82067 0.0
H588 H 0.81344 0.47825 0.80603 0.0
H589 H 0.83779 0.57693 0.88324 0.0
H590 H 0.86219 0.5633 0.90033 0.0
H591 H 0.80286 0.52968 0.89299 0.0
C592 C 0.22717 0.72002 0.16722 0.0
C593 C 0.22695 0.6932 0.15472 0.0
C594 C 0.26573 0.75939 0.16923 0.0
C595 C 0.30516 0.77233 0.15852 0.0
C596 C 0.30482 0.74557 0.14556 0.0
C597 C 0.26582 0.70645 0.14381 0.0
C598 C 0.26462 0.78697 0.18316 0.0
C599 C 0.3461 0.75808 0.1339 0.0
C600 C 0.39714 0.88104 0.1527 0.0
C601 C 0.42894 0.89047 0.16776 0.0
C602 C 0.35667 0.84278 0.14951 0.0
C603 C 0.34762 0.81325 0.16172 0.0
C604 C 0.3795 0.82266 0.17699 0.0
C605 C 0.41961 0.86102 0.17981 0.0
C606 C 0.32364 0.83391 0.13302 0.0
C607 C 0.37118 0.79219 0.19043 0.0
H608 H 0.19736 0.71022 0.17568 0.0
H609 H 0.26614 0.68611 0.13406 0.0
H610 H 0.28973 0.79794 0.1957 0.0
H611 H 0.2743 0.81253 0.17507 0.0
H612 H 0.23063 0.77292 0.18954 0.0
H613 H 0.33962 0.73426 0.12366 0.0
H614 H 0.35732 0.78311 0.12489 0.0
H615 H 0.3745 0.76785 0.14445 0.0
H616 H 0.40412 0.90353 0.14327 0.0
H617 H 0.44343 0.86811 0.19178 0.0
H618 H 0.29009 0.8216 0.13938 0.0
H619 H 0.31865 0.81166 0.12203 0.0
H620 H 0.33541 0.86013 0.12496 0.0
H621 H 0.33926 0.77924 0.19855 0.0
H622 H 0.3993 0.80423 0.20163 0.0
H623 H 0.36703 0.76831 0.18126 0.0
C624 C 0.61221 0.26713 0.48675 0.0
C625 C 0.56942 0.23411 0.47958 0.0
C626 C 0.61848 0.30054 0.49459 0.0
C627 C 0.58117 0.30114 0.49513 0.0
C628 C 0.53835 0.26856 0.48716 0.0
C629 C 0.53294 0.23541 0.47957 0.0
C630 C 0.66467 0.33464 0.50296 0.0
C631 C 0.49777 0.26813 0.48734 0.0
C632 C 0.58238 0.36553 0.53575 0.0
C633 C 0.59567 0.39794 0.52526 0.0
C634 C 0.57777 0.33404 0.52612 0.0
C635 C 0.5861 0.3346 0.50538 0.0
C636 C 0.59901 0.36694 0.4946 0.0
C637 C 0.60377 0.39829 0.50468 0.0
C638 C 0.56396 0.30013 0.53818 0.0
C639 C 0.60789 0.36845 0.47244 0.0
H640 H 0.6408 0.26671 0.48648 0.0
H641 H 0.49964 0.20996 0.47429 0.0
H642 H 0.67569 0.36175 0.49616 0.0
H643 H 0.66288 0.33871 0.51937 0.0
H644 H 0.6908 0.33058 0.50027 0.0
H645 H 0.46796 0.24206 0.47899 0.0
H646 H 0.48814 0.26846 0.50306 0.0
H647 H 0.50627 0.29452 0.48066 0.0
H648 H 0.57507 0.36453 0.55154 0.0
H649 H 0.61444 0.42331 0.49648 0.0
H650 H 0.5901 0.29577 0.53722 0.0
H651 H 0.53173 0.27307 0.53189 0.0
H652 H 0.55932 0.30442 0.55424 0.0
H653 H 0.63597 0.36691 0.46973 0.0
H654 H 0.61694 0.39538 0.46615 0.0
H655 H 0.5774 0.34296 0.46416 0.0
C656 C 0.41925 0.48722 0.85794 0.0
C657 C 0.46237 0.51911 0.8518 0.0
C658 C 0.38172 0.4878 0.85865 0.0
C659 C 0.38641 0.52106 0.85308 0.0
C660 C 0.42981 0.55329 0.84677 0.0
C661 C 0.4668 0.55195 0.84621 0.0
C662 C 0.33681 0.45262 0.86556 0.0
C663 C 0.43737 0.58957 0.84068 0.0
C664 C 0.27845 0.51098 0.83956 0.0
C665 C 0.27123 0.52534 0.85722 0.0
C666 C 0.31537 0.50956 0.83797 0.0
C667 C 0.34654 0.5225 0.85441 0.0
C668 C 0.33919 0.53666 0.87229 0.0
C669 C 0.30221 0.53787 0.87346 0.0
C670 C 0.32118 0.49432 0.81851 0.0
C671 C 0.37053 0.55054 0.8904 0.0
H672 H 0.41469 0.46154 0.86233 0.0
H673 H 0.49948 0.57696 0.84142 0.0
H674 H 0.32665 0.46079 0.87916 0.0
H675 H 0.31008 0.44161 0.85379 0.0
H676 H 0.33801 0.42873 0.86906 0.0
H677 H 0.47259 0.612 0.83586 0.0
H678 H 0.41347 0.58223 0.82818 0.0
H679 H 0.43033 0.60219 0.85342 0.0
H680 H 0.25563 0.50138 0.82673 0.0
H681 H 0.29728 0.54826 0.88744 0.0
H682 H 0.32029 0.46906 0.8212 0.0
H683 H 0.35481 0.51706 0.81236 0.0
H684 H 0.29444 0.48523 0.80707 0.0
H685 H 0.37033 0.52661 0.89532 0.0
H686 H 0.3608 0.56095 0.90319 0.0
H687 H 0.40584 0.57458 0.88645 0.0
C688 C 0.95091 0.43759 0.15062 0.0
C689 C 0.99503 0.44897 0.15018 0.0
C690 C 0.91315 0.39864 0.15278 0.0
C691 C 0.91962 0.37037 0.15502 0.0
C692 C 0.96397 0.38143 0.15383 0.0
C693 C 1.00112 0.42056 0.15121 0.0
C694 C 0.86647 0.38805 0.1535 0.0
C695 C 0.9725 0.35238 0.15645 0.0
C696 C 0.83262 0.28553 0.18621 0.0
C697 C 0.806 0.25494 0.1716 0.0
C698 C 0.86993 0.3228 0.18099 0.0
C699 C 0.88069 0.33031 0.16056 0.0
C700 C 0.85362 0.29994 0.14564 0.0
C701 C 0.81682 0.26259 0.15133 0.0
C702 C 0.89776 0.35426 0.19742 0.0
C703 C 0.86345 0.30695 0.12367 0.0
H704 H 0.9459 0.45933 0.14958 0.0
H705 H 1.03515 0.42921 0.15096 0.0
H706 H 0.84259 0.36259 0.14306 0.0
H707 H 0.8533 0.37969 0.16881 0.0
H708 H 0.86655 0.41244 0.14956 0.0
H709 H 1.00815 0.36472 0.15345 0.0
H710 H 0.96501 0.34282 0.17205 0.0
H711 H 0.94958 0.32617 0.14629 0.0
H712 H 0.82408 0.28051 0.20186 0.0
H713 H 0.79689 0.2393 0.13988 0.0
H714 H 0.89542 0.37803 0.19568 0.0
H715 H 0.93404 0.36703 0.19631 0.0
H716 H 0.88638 0.34321 0.21264 0.0
H717 H 0.8622 0.33045 0.11939 0.0
H718 H 0.83894 0.28047 0.11388 0.0
H719 H 0.89818 0.31681 0.12077 0.0
C720 C 1.04222 0.54322 0.08562 0.0
C721 C 0.0825 0.56551 0.09729 0.0
C722 C 1.04293 0.53778 0.06476 0.0
C723 C 0.08499 0.5553 0.05538 0.0
C724 C 0.12574 0.57748 0.06717 0.0
C725 C 0.12398 0.58222 0.08802 0.0
C726 C 0.99873 0.51366 0.05274 0.0
C727 C 0.17123 0.59672 0.05773 0.0
C728 C 0.08445 0.51687 0.00293 0.0
C729 C 0.0866 0.54334 0.99092 0.0
C730 C 0.0841 0.52046 0.02395 0.0
C731 C 0.08637 0.55146 0.03316 0.0
C732 C 0.08927 0.5786 0.0211 0.0
C733 C 0.08918 0.57413 0.00015 0.0
C734 C 0.08059 0.49076 0.0363 0.0
C735 C 0.09225 0.6123 0.03035 0.0
H736 H 1.01008 0.53007 0.09279 0.0
H737 H 0.15518 0.59938 0.09704 0.0
H738 H 0.9984 0.53196 0.04193 0.0
H739 H 0.99529 0.48983 0.04388 0.0
H740 H 0.96884 0.50077 0.0624 0.0
H741 H 0.19963 0.61215 0.06905 0.0
H742 H 0.17166 0.57469 0.04906 0.0
H743 H 0.17717 0.61794 0.04702 0.0
H744 H 0.08205 0.49283 0.99585 0.0
H745 H 0.09148 0.59497 0.99093 0.0
H746 H 1.04925 0.47548 0.0451 0.0
H747 H 0.10968 0.5054 0.04719 0.0
H748 H 0.07993 0.4688 0.02687 0.0
H749 H 0.06157 0.60126 0.03911 0.0
H750 H 0.09537 0.63135 0.0189 0.0
H751 H 0.12195 0.6301 0.04092 0.0
C752 C 0.57598 0.03375 0.41171 0.0
C753 C 0.61712 0.04655 0.42067 0.0
C754 C 0.57268 0.03694 0.39108 0.0
C755 C 0.61144 0.05326 0.37921 0.0
C756 C 0.65321 0.06679 0.3883 0.0
C757 C 0.65553 0.0633 0.40893 0.0
C758 C 0.52763 0.02235 0.38192 0.0
C759 C 0.69532 0.0844 0.37618 0.0
C760 C 0.59763 0.02708 0.32326 0.0
C761 C 0.60793 0.06059 0.31517 0.0
C762 C 0.59768 0.024 0.34408 0.0
C763 C 0.60827 0.05517 0.35716 0.0
C764 C 0.61793 0.08881 0.34912 0.0
C765 C 0.61773 0.09114 0.32821 0.0
C766 C 0.58746 0.98774 0.35207 0.0
C767 C 0.62916 0.12256 0.3626 0.0
H768 H 0.54627 0.02091 0.4208 0.0
H769 H 0.68745 0.0734 0.41585 0.0
H770 H 0.53146 0.0458 0.37392 0.0
H771 H 0.51566 0.99811 0.37067 0.0
H772 H 0.50124 0.01192 0.39334 0.0
H773 H 0.7254 0.09442 0.38563 0.0
H774 H 0.68951 0.06268 0.36454 0.0
H775 H 0.70302 0.1095 0.3683 0.0
H776 H 0.59059 1.00356 0.31327 0.0
H777 H 0.62512 0.11689 0.32205 0.0
H778 H 0.55935 0.97483 0.36273 0.0
H779 H 0.61763 0.99528 0.36045 0.0
H780 H 0.57796 0.96545 0.33993 0.0
H781 H 0.60174 0.11239 0.3734 0.0
H782 H 0.63384 0.14585 0.35401 0.0
H783 H 0.66077 0.13519 0.37149 0.0
C784 C 0.53805 0.49892 0.77902 0.0
C785 C 0.57364 0.51244 0.79275 0.0
C786 C 0.54648 0.50754 0.75877 0.0
C787 C 0.59154 0.52961 0.75205 0.0
C788 C 0.62777 0.54405 0.76597 0.0
C789 C 0.61839 0.53559 0.78625 0.0
C790 C 0.50701 0.49229 0.74448 0.0
C791 C 0.67617 0.5672 0.75933 0.0
C792 C 0.60112 0.51121 0.69689 0.0
C793 C 0.609 0.54349 0.68834 0.0
C794 C 0.59716 0.50717 0.71768 0.0
C795 C 0.60019 0.53567 0.73027 0.0
C796 C 0.60891 0.56866 0.72187 0.0
C797 C 0.61364 0.57236 0.70105 0.0
C798 C 0.58843 0.47177 0.7261 0.0
C799 C 0.6119 0.59947 0.7348 0.0
H800 H 0.50346 0.4813 0.7841 0.0
H801 H 0.64595 0.54604 0.79689 0.0
H802 H 0.51328 0.51637 0.73609 0.0
H803 H 0.50339 0.47088 0.73331 0.0
H804 H 0.47451 0.47798 0.75235 0.0
H805 H 0.70063 0.57805 0.77217 0.0
H806 H 0.6797 0.54874 0.74892 0.0
H807 H 0.68539 0.59238 0.75101 0.0
H808 H 0.59673 0.48837 0.68729 0.0
H809 H 0.62062 0.59781 0.69471 0.0
H810 H 0.55411 0.45331 0.73245 0.0
H811 H 0.61322 0.48066 0.73849 0.0
H812 H 0.59068 0.45396 0.71454 0.0
H813 H 0.57887 0.58651 0.74192 0.0
H814 H 0.62076 0.62417 0.72608 0.0
H815 H 0.63769 0.61087 0.74708 0.0
C816 C 0.61996 0.05662 0.54071 0.0
C817 C 0.57836 0.04423 0.53253 0.0
C818 C 0.62498 0.05399 0.56124 0.0
C819 C 0.58774 0.03942 0.57389 0.0
C820 C 0.54566 0.02685 0.56565 0.0
C821 C 0.54141 0.02918 0.54503 0.0
C822 C 0.67018 0.06714 0.56943 0.0
C823 C 0.5053 0.01156 0.57868 0.0
C824 C 0.58346 1.00329 0.62517 0.0
C825 C 0.59633 0.0352 0.63795 0.0
C826 C 0.58197 0.00468 0.60423 0.0
C827 C 0.59302 0.03859 0.59588 0.0
C828 C 0.60702 0.07118 0.60865 0.0
C829 C 0.60886 0.0692 0.62948 0.0
C830 C 0.56742 0.96952 0.59106 0.0
C831 C 0.61889 0.10782 0.60034 0.0
H832 H 0.6487 0.06858 0.53109 0.0
H833 H 0.50921 0.0196 0.53873 0.0
H834 H 0.68475 0.09242 0.58029 0.0
H835 H 0.66563 0.04358 0.57764 0.0
H836 H 0.69488 0.07558 0.55741 0.0
H837 H 0.47483 1.0025 0.56989 0.0
H838 H 0.49682 0.98627 0.58664 0.0
H839 H 0.51372 0.03431 0.59027 0.0
H840 H 0.5733 0.97675 0.63152 0.0
H841 H 0.61985 0.09432 0.63918 0.0
H842 H 0.59258 0.97804 0.57928 0.0
H843 H 0.53456 0.95691 0.58333 0.0
H844 H 0.5635 0.94665 0.59975 0.0
H845 H 0.64612 0.11919 0.58931 0.0
H846 H 0.63036 0.13097 0.61226 0.0
H847 H 0.58886 0.10122 0.59229 0.0
C848 C 0.54452 0.48324 0.90832 0.0
C849 C 0.5889 0.51571 0.9045 0.0
C850 C 0.53512 0.46158 0.92508 0.0
C851 C 0.57087 0.47314 0.93861 0.0
C852 C 0.61574 0.50632 0.93502 0.0
C853 C 0.62428 0.5272 0.91791 0.0
C854 C 0.48686 0.42621 0.92825 0.0
C855 C 0.6546 0.51971 0.94925 0.0
C856 C 0.5316 0.43623 0.99056 0.0
C857 C 0.53025 0.4035 0.98978 0.0
C858 C 0.54687 0.46024 0.97434 0.0
C859 C 0.56056 0.45097 0.95681 0.0
C860 C 0.56065 0.41862 0.95617 0.0
C861 C 0.54579 0.39538 0.97278 0.0
C862 C 0.54676 0.4947 0.97571 0.0
C863 C 0.5745 0.40758 0.93762 0.0
H864 H 0.51705 0.47437 0.898 0.0
H865 H 0.65864 0.5523 0.91495 0.0
H866 H 0.48524 0.40016 0.92921 0.0
H867 H 0.47487 0.43016 0.94266 0.0
H868 H 0.46324 0.42052 0.91598 0.0
H869 H 0.68749 0.54603 0.94429 0.0
H870 H 0.648 0.52628 0.96445 0.0
H871 H 0.65751 0.49617 0.95053 0.0
H872 H 0.52017 0.4428 0.00384 0.0
H873 H 0.54463 0.37 0.97219 0.0
H874 H 0.52098 0.48972 0.96496 0.0
H875 H 0.58019 0.52135 0.97154 0.0
H876 H 0.53899 0.4999 0.99101 0.0
H877 H 0.54983 0.39838 0.92512 0.0
H878 H 0.57598 0.38347 0.94007 0.0
H879 H 0.60818 0.43302 0.93282 0.0
C880 C 0.09129 0.54607 0.21473 0.0
C881 C 0.13408 0.56469 0.20641 0.0
C882 C 0.08587 0.54258 0.23551 0.0
C883 C 0.12416 0.55786 0.24822 0.0
C884 C 0.16751 0.57686 0.23988 0.0
C885 C 0.17196 0.58009 0.21904 0.0
C886 C 1.03912 0.52224 0.24383 0.0
C887 C 0.20912 0.5935 0.25297 0.0
C888 C 0.11963 0.57933 0.30357 0.0
C889 C 0.11134 0.54697 0.31218 0.0
C890 C 0.12342 0.58306 0.28275 0.0
C891 C 0.11888 0.55374 0.27025 0.0
C892 C 0.10995 0.52076 0.27881 0.0
C893 C 0.10622 0.51775 0.29969 0.0
C894 C 0.13257 0.61848 0.27415 0.0
C895 C 0.10499 0.48894 0.26595 0.0
H896 H 0.06185 0.5338 0.20497 0.0
H897 H 0.20507 0.59447 0.21261 0.0
H898 H 1.02898 0.49614 0.2515 0.0
H899 H 1.03937 0.54172 0.25519 0.0
H900 H 1.01312 0.51306 0.23196 0.0
H901 H 0.24039 0.60761 0.24415 0.0
H902 H 0.21386 0.61529 0.26424 0.0
H903 H 0.20462 0.5701 0.26133 0.0
H904 H 0.12294 0.60172 0.31313 0.0
H905 H 0.10028 0.49288 0.30628 0.0
H906 H 0.10548 0.60949 0.26297 0.0
H907 H 0.16508 0.63485 0.26619 0.0
H908 H 0.1344 0.6383 0.28589 0.0
H909 H 0.07752 0.47688 0.25443 0.0
H910 H 0.09718 0.46484 0.2749 0.0
H911 H 0.1368 0.50107 0.2579 0.0
loop_
_geom_bond_atom_site_label_1
_geom_bond_atom_site_label_2
_geom_bond_distance
_geom_bond_site_symmetry_2
_ccdc_geom_bond_type
Gd0 C3 2.818 . S
Gd0 O20 2.377 . S
Gd0 O22 2.448 . S
Gd0 O23 2.506 . S
Gd0 O24 2.435 . S
Gd0 O25 2.717 . S
Gd0 O27 2.395 1_455 S
Gd0 O31 2.327 . S
Gd1 C12 2.818 1_455 S
Gd1 O21 2.395 . S
Gd1 O25 2.327 . S
Gd1 O26 2.377 1_455 S
Gd1 O28 2.448 1_455 S
Gd1 O29 2.506 1_455 S
Gd1 O30 2.435 . S
Gd1 O31 2.717 . S
C2 O20 1.240 . S
C2 O21 1.240 . S
C3 Gd0 2.818 . S
C3 C4 1.510 . S
C3 O22 1.249 . S
C3 O23 1.252 . S
C4 C3 1.510 . S
C4 C5 1.404 . S
C4 C6 1.352 . S
C5 C4 1.404 . S
C5 C9 1.389 . S
C5 H32 0.930 . S
C6 C4 1.352 . S
C6 C8 1.374 . S
C6 H33 0.931 . S
C7 C8 1.359 . S
C7 C9 1.364 . S
C8 C6 1.374 . S
C8 C7 1.359 . S
C8 H34 0.931 . S
C9 C5 1.389 . S
C9 C7 1.364 . S
C9 H35 0.931 . S
C10 O24 1.256 . S
C10 O25 1.257 . S
C11 O26 1.240 . S
C11 O27 1.240 . S
C12 Gd1 2.818 1_655 S
C12 C13 1.510 . S
C12 O28 1.249 . S
C12 O29 1.252 . S
C13 C12 1.510 . S
C13 C14 1.404 . S
C13 C15 1.352 . S
C14 C13 1.404 . S
C14 C18 1.389 . S
C14 H36 0.930 . S
C15 C13 1.352 . S
C15 C17 1.374 . S
C15 H37 0.931 . S
C16 C17 1.359 . S
C16 C18 1.364 . S
C17 C15 1.374 . S
C17 C16 1.359 . S
C17 H38 0.931 . S
C18 C14 1.389 . S
C18 C16 1.364 . S
C18 H39 0.931 . S
C19 O30 1.256 . S
C19 O31 1.257 . S
O20 Gd0 2.377 . S
O20 C2 1.240 . S
O21 Gd1 2.395 . S
O21 C2 1.240 . S
O22 Gd0 2.448 . S
O22 C3 1.249 . S
O23 Gd0 2.506 . S
O23 C3 1.252 . S
O24 Gd0 2.435 . S
O24 C10 1.256 . S
O25 Gd0 2.717 . S
O25 Gd1 2.327 . S
O25 C10 1.257 . S
O26 Gd1 2.377 1_655 S
O26 C11 1.240 . S
O27 Gd0 2.395 1_655 S
O27 C11 1.240 . S
O28 Gd1 2.448 1_655 S
O28 C12 1.249 . S
O29 Gd1 2.506 1_655 S
O29 C12 1.252 . S
O30 Gd1 2.435 . S
O30 C19 1.256 . S
O31 Gd0 2.327 . S
O31 Gd1 2.717 . S
O31 C19 1.257 . S
H32 C5 0.930 . S
H33 C6 0.931 . S
H34 C8 0.931 . S
H35 C9 0.931 . S
H36 C14 0.930 . S
H37 C15 0.931 . S
H38 C17 0.931 . S
H39 C18 0.931 . S
Gd40 C43 2.818 . S
Gd40 O60 2.377 . S
Gd40 O62 2.448 . S
Gd40 O63 2.506 . S
Gd40 O64 2.435 . S
Gd40 O65 2.717 1_565 S
Gd40 O67 2.395 1_565 S
Gd40 O71 2.327 1_565 S
Gd41 C52 2.818 . S
Gd41 O61 2.395 1_545 S
Gd41 O65 2.327 . S
Gd41 O66 2.377 . S
Gd41 O68 2.448 . S
Gd41 O69 2.506 . S
Gd41 O70 2.435 . S
Gd41 O71 2.717 . S
C42 O60 1.240 . S
C42 O61 1.240 . S
C43 Gd40 2.818 . S
C43 C44 1.510 . S
C43 O62 1.249 . S
C43 O63 1.252 . S
C44 C43 1.510 . S
C44 C45 1.404 . S
C44 C46 1.352 . S
C45 C44 1.404 . S
C45 C49 1.389 . S
C45 H72 0.930 . S
C46 C44 1.352 . S
C46 C48 1.374 . S
C46 H73 0.931 . S
C47 C48 1.359 . S
C47 C49 1.364 . S
C48 C46 1.374 . S
C48 C47 1.359 . S
C48 H74 0.931 . S
C49 C45 1.389 . S
C49 C47 1.364 . S
C49 H75 0.931 . S
C50 O64 1.256 1_545 S
C50 O65 1.257 . S
C51 O66 1.240 . S
C51 O67 1.240 . S
C52 Gd41 2.818 . S
C52 C53 1.510 . S
C52 O68 1.249 . S
C52 O69 1.252 . S
C53 C52 1.510 . S
C53 C54 1.404 . S
C53 C55 1.352 . S
C54 C53 1.404 . S
C54 C58 1.389 . S
C54 H76 0.930 . S
C55 C53 1.352 . S
C55 C57 1.374 . S
C55 H77 0.931 . S
C56 C57 1.359 . S
C56 C58 1.364 . S
C57 C55 1.374 . S
C57 C56 1.359 . S
C57 H78 0.931 . S
C58 C54 1.389 . S
C58 C56 1.364 . S
C58 H79 0.931 . S
C59 O70 1.256 . S
C59 O71 1.257 . S
O60 Gd40 2.377 . S
O60 C42 1.240 . S
O61 Gd41 2.395 1_565 S
O61 C42 1.240 . S
O62 Gd40 2.448 . S
O62 C43 1.249 . S
O63 Gd40 2.506 . S
O63 C43 1.252 . S
O64 Gd40 2.435 . S
O64 C50 1.256 1_565 S
O65 Gd40 2.717 1_545 S
O65 Gd41 2.327 . S
O65 C50 1.257 . S
O66 Gd41 2.377 . S
O66 C51 1.240 . S
O67 Gd40 2.395 1_545 S
O67 C51 1.240 . S
O68 Gd41 2.448 . S
O68 C52 1.249 . S
O69 Gd41 2.506 . S
O69 C52 1.252 . S
O70 Gd41 2.435 . S
O70 C59 1.256 . S
O71 Gd40 2.327 1_545 S
O71 Gd41 2.717 . S
O71 C59 1.257 . S
H72 C45 0.930 . S
H73 C46 0.931 . S
H74 C48 0.931 . S
H75 C49 0.931 . S
H76 C54 0.930 . S
H77 C55 0.931 . S
H78 C57 0.931 . S
H79 C58 0.931 . S
Gd80 C83 2.818 . S
Gd80 O100 2.377 . S
Gd80 O102 2.448 . S
Gd80 O103 2.506 . S
Gd80 O104 2.435 . S
Gd80 O105 2.717 . S
Gd80 O107 2.395 . S
Gd80 O111 2.327 . S
Gd81 C92 2.818 . S
Gd81 O101 2.395 . S
Gd81 O105 2.327 . S
Gd81 O106 2.377 . S
Gd81 O108 2.448 . S
Gd81 O109 2.506 . S
Gd81 O110 2.435 . S
Gd81 O111 2.717 . S
C82 O100 1.240 . S
C82 O101 1.240 . S
C83 Gd80 2.818 . S
C83 C84 1.510 . S
C83 O102 1.249 . S
C83 O103 1.252 . S
C84 C83 1.510 . S
C84 C85 1.404 . S
C84 C86 1.352 . S
C85 C84 1.404 . S
C85 C89 1.389 . S
C85 H112 0.930 . S
C86 C84 1.352 . S
C86 C88 1.374 . S
C86 H113 0.931 . S
C87 C88 1.359 . S
C87 C89 1.364 . S
C88 C86 1.374 . S
C88 C87 1.359 . S
C88 H114 0.931 . S
C89 C85 1.389 . S
C89 C87 1.364 . S
C89 H115 0.931 . S
C90 O104 1.256 . S
C90 O105 1.257 . S
C91 O106 1.240 . S
C91 O107 1.240 . S
C92 Gd81 2.818 . S
C92 C93 1.510 . S
C92 O108 1.249 . S
C92 O109 1.252 . S
C93 C92 1.510 . S
C93 C94 1.404 . S
C93 C95 1.352 . S
C94 C93 1.404 . S
C94 C98 1.389 . S
C94 H116 0.930 . S
C95 C93 1.352 . S
C95 C97 1.374 . S
C95 H117 0.931 . S
C96 C97 1.359 . S
C96 C98 1.364 . S
C97 C95 1.374 . S
C97 C96 1.359 . S
C97 H118 0.931 . S
C98 C94 1.389 . S
C98 C96 1.364 . S
C98 H119 0.931 . S
C99 O110 1.256 . S
C99 O111 1.257 . S
O100 Gd80 2.377 . S
O100 C82 1.240 . S
O101 Gd81 2.395 . S
O101 C82 1.240 . S
O102 Gd80 2.448 . S
O102 C83 1.249 . S
O103 Gd80 2.506 . S
O103 C83 1.252 . S
O104 Gd80 2.435 . S
O104 C90 1.256 . S
O105 Gd80 2.717 . S
O105 Gd81 2.327 . S
O105 C90 1.257 . S
O106 Gd81 2.377 . S
O106 C91 1.240 . S
O107 Gd80 2.395 . S
O107 C91 1.240 . S
O108 Gd81 2.448 . S
O108 C92 1.249 . S
O109 Gd81 2.506 . S
O109 C92 1.252 . S
O110 Gd81 2.435 . S
O110 C99 1.256 . S
O111 Gd80 2.327 . S
O111 Gd81 2.717 . S
O111 C99 1.257 . S
H112 C85 0.930 . S
H113 C86 0.931 . S
H114 C88 0.931 . S
H115 C89 0.931 . S
H116 C94 0.930 . S
H117 C95 0.931 . S
H118 C97 0.931 . S
H119 C98 0.931 . S
C120 C121 1.384 . S
C120 H133 0.947 . S
C120 C155 1.382 . S
C121 C120 1.384 . S
C121 C122 1.378 . S
C122 C121 1.378 . S
C122 C123 1.378 . S
C122 H134 0.952 . S
C123 C122 1.378 . S
C123 H135 0.950 . S
C123 C154 1.383 . S
H124 C143 0.947 . S
H125 C144 0.946 . S
H126 C146 0.953 . S
H127 C147 0.945 . S
H128 C149 0.952 . S
H129 C150 0.949 . S
H130 C152 0.950 . S
H131 C153 0.948 . S
H132 C155 0.951 . S
H133 C120 0.947 . S
H134 C122 0.952 . S
H135 C123 0.950 . S
N136 C139 1.382 . S
N136 C141 1.363 1_545 S
N137 C139 1.371 . S
N137 C140 1.372 . S
N138 C140 1.361 1_565 S
N138 C141 1.377 . S
C139 N136 1.382 . S
C139 N137 1.371 . S
C139 C142 1.480 . S
C140 N137 1.372 . S
C140 N138 1.361 1_545 S
C140 C148 1.457 . S
C141 N136 1.363 1_565 S
C141 N138 1.377 . S
C141 C154 1.479 . S
C142 C139 1.480 . S
C142 C143 1.383 . S
C142 C147 1.385 . S
C143 H124 0.947 . S
C143 C142 1.383 . S
C143 C144 1.388 . S
C144 H125 0.946 . S
C144 C143 1.388 . S
C144 C145 1.384 . S
C145 C144 1.384 . S
C145 C146 1.377 . S
C146 H126 0.953 . S
C146 C145 1.377 . S
C146 C147 1.369 . S
C147 H127 0.945 . S
C147 C142 1.385 . S
C147 C146 1.369 . S
C148 C140 1.457 . S
C148 C149 1.372 . S
C148 C153 1.364 1_545 S
C149 H128 0.952 . S
C149 C148 1.372 . S
C149 C150 1.389 . S
C150 H129 0.949 . S
C150 C149 1.389 . S
C150 C151 1.387 . S
C151 C150 1.387 . S
C151 C152 1.372 1_545 S
C152 H130 0.950 . S
C152 C151 1.372 1_565 S
C152 C153 1.379 . S
C153 H131 0.948 . S
C153 C148 1.364 1_565 S
C153 C152 1.379 . S
C154 C123 1.383 . S
C154 C141 1.479 . S
C154 C155 1.398 . S
C155 C120 1.382 . S
C155 H132 0.951 . S
C155 C154 1.398 . S
C156 C157 1.384 . S
C156 H169 0.947 . S
C156 C191 1.382 . S
C157 C156 1.384 . S
C157 C158 1.378 . S
C158 C157 1.378 . S
C158 C159 1.378 . S
C158 H170 0.952 . S
C159 C158 1.378 . S
C159 H171 0.950 . S
C159 C190 1.383 . S
H160 C179 0.947 . S
H161 C180 0.946 . S
H162 C182 0.953 . S
H163 C183 0.945 . S
H164 C185 0.952 . S
H165 C186 0.949 . S
H166 C188 0.950 . S
H167 C189 0.948 . S
H168 C191 0.951 . S
H169 C156 0.947 . S
H170 C158 0.952 . S
H171 C159 0.950 . S
N172 C175 1.382 . S
N172 C177 1.363 . S
N173 C175 1.371 . S
N173 C176 1.372 . S
N174 C176 1.361 . S
N174 C177 1.377 . S
C175 N172 1.382 . S
C175 N173 1.371 . S
C175 C178 1.480 . S
C176 N173 1.372 . S
C176 N174 1.361 . S
C176 C184 1.457 . S
C177 N172 1.363 . S
C177 N174 1.377 . S
C177 C190 1.479 . S
C178 C175 1.480 . S
C178 C179 1.383 . S
C178 C183 1.385 . S
C179 H160 0.947 . S
C179 C178 1.383 . S
C179 C180 1.388 . S
C180 H161 0.946 . S
C180 C179 1.388 . S
C180 C181 1.384 . S
C181 C180 1.384 . S
C181 C182 1.377 . S
C182 H162 0.953 . S
C182 C181 1.377 . S
C182 C183 1.369 . S
C183 H163 0.945 . S
C183 C178 1.385 . S
C183 C182 1.369 . S
C184 C176 1.457 . S
C184 C185 1.372 . S
C184 C189 1.364 . S
C185 H164 0.952 . S
C185 C184 1.372 . S
C185 C186 1.389 . S
C186 H165 0.949 . S
C186 C185 1.389 . S
C186 C187 1.387 . S
C187 C186 1.387 . S
C187 C188 1.372 . S
C188 H166 0.950 . S
C188 C187 1.372 . S
C188 C189 1.379 . S
C189 H167 0.948 . S
C189 C184 1.364 . S
C189 C188 1.379 . S
C190 C159 1.383 . S
C190 C177 1.479 . S
C190 C191 1.398 . S
C191 C156 1.382 . S
C191 H168 0.951 . S
C191 C190 1.398 . S
C192 C193 1.384 . S
C192 H205 0.947 . S
C192 C227 1.382 . S
C193 C192 1.384 . S
C193 C194 1.378 . S
C194 C193 1.378 . S
C194 C195 1.378 . S
C194 H206 0.952 . S
C195 C194 1.378 . S
C195 H207 0.950 1_655 S
C195 C226 1.383 1_655 S
H196 C215 0.947 . S
H197 C216 0.946 . S
H198 C218 0.953 . S
H199 C219 0.945 . S
H200 C221 0.952 . S
H201 C222 0.949 . S
H202 C224 0.950 1_655 S
H203 C225 0.948 1_655 S
H204 C227 0.951 . S
H205 C192 0.947 . S
H206 C194 0.952 . S
H207 C195 0.950 1_455 S
N208 C211 1.382 . S
N208 C213 1.363 . S
N209 C211 1.371 . S
N209 C212 1.372 . S
N210 C212 1.361 . S
N210 C213 1.377 . S
C211 N208 1.382 . S
C211 N209 1.371 . S
C211 C214 1.480 . S
C212 N209 1.372 . S
C212 N210 1.361 . S
C212 C220 1.457 . S
C213 N208 1.363 . S
C213 N210 1.377 . S
C213 C226 1.484 . S
C214 C211 1.480 . S
C214 C215 1.383 . S
C214 C219 1.385 . S
C215 H196 0.947 . S
C215 C214 1.383 . S
C215 C216 1.388 . S
C216 H197 0.946 . S
C216 C215 1.388 . S
C216 C217 1.384 . S
C217 C216 1.384 . S
C217 C218 1.377 . S
C218 H198 0.953 . S
C218 C217 1.377 . S
C218 C219 1.369 . S
C219 H199 0.945 . S
C219 C214 1.385 . S
C219 C218 1.369 . S
C220 C212 1.457 . S
C220 C221 1.372 . S
C220 C225 1.364 . S
C221 H200 0.952 . S
C221 C220 1.372 . S
C221 C222 1.389 . S
C222 H201 0.949 . S
C222 C221 1.389 . S
C222 C223 1.387 . S
C223 C222 1.387 . S
C223 C224 1.372 . S
C224 H202 0.950 1_455 S
C224 C223 1.372 . S
C224 C225 1.379 . S
C225 H203 0.948 1_455 S
C225 C220 1.364 . S
C225 C224 1.379 . S
C226 C195 1.383 1_455 S
C226 C213 1.484 . S
C226 C227 1.393 1_455 S
C227 C192 1.382 . S
C227 H204 0.951 . S
C227 C226 1.393 1_655 S
C228 C229 1.384 . S
C228 H241 0.947 . S
C228 C263 1.382 . S
C229 C228 1.384 . S
C229 C230 1.378 . S
C230 C229 1.378 . S
C230 C231 1.378 . S
C230 H242 0.952 . S
C231 C230 1.378 . S
C231 H243 0.950 . S
C231 C262 1.383 . S
H232 C251 0.947 . S
H233 C252 0.946 . S
H234 C254 0.953 . S
H235 C255 0.945 . S
H236 C257 0.952 . S
H237 C258 0.949 . S
H238 C260 0.950 . S
H239 C261 0.948 . S
H240 C263 0.951 . S
H241 C228 0.947 . S
H242 C230 0.952 . S
H243 C231 0.950 . S
N244 C247 1.382 1_455 S
N244 C249 1.363 . S
N245 C247 1.371 . S
N245 C248 1.372 1_655 S
N246 C248 1.361 . S
N246 C249 1.377 . S
C247 N244 1.382 1_655 S
C247 N245 1.371 . S
C247 C250 1.480 . S
C248 N245 1.372 1_455 S
C248 N246 1.361 . S
C248 C256 1.457 . S
C249 N244 1.363 . S
C249 N246 1.377 . S
C249 C262 1.479 . S
C250 C247 1.480 . S
C250 C251 1.383 . S
C250 C255 1.385 . S
C251 H232 0.947 . S
C251 C250 1.383 . S
C251 C252 1.388 . S
C252 H233 0.946 . S
C252 C251 1.388 . S
C252 C253 1.384 . S
C253 C252 1.384 . S
C253 C254 1.377 . S
C254 H234 0.953 . S
C254 C253 1.377 . S
C254 C255 1.369 . S
C255 H235 0.945 . S
C255 C250 1.385 . S
C255 C254 1.369 . S
C256 C248 1.457 . S
C256 C257 1.372 1_455 S
C256 C261 1.364 . S
C257 H236 0.952 . S
C257 C256 1.372 1_655 S
C257 C258 1.389 . S
C258 H237 0.949 . S
C258 C257 1.389 . S
C258 C259 1.373 1_655 S
C259 C258 1.373 1_455 S
C259 C260 1.387 . S
C260 H238 0.950 . S
C260 C259 1.387 . S
C260 C261 1.379 . S
C261 H239 0.948 . S
C261 C256 1.364 . S
C261 C260 1.379 . S
C262 C231 1.383 . S
C262 C249 1.479 . S
C262 C263 1.398 . S
C263 C228 1.382 . S
C263 H240 0.951 . S
C263 C262 1.398 . S
C264 C265 1.384 . S
C264 H277 0.947 . S
C264 C299 1.382 . S
C265 C264 1.384 . S
C265 C266 1.378 . S
C266 C265 1.378 . S
C266 C267 1.378 . S
C266 H278 0.952 . S
C267 C266 1.378 . S
C267 H279 0.950 . S
C267 C298 1.383 . S
H268 C287 0.947 . S
H269 C288 0.946 . S
H270 C290 0.953 . S
H271 C291 0.945 . S
H272 C293 0.952 . S
H273 C294 0.949 . S
H274 C296 0.950 . S
H275 C297 0.948 . S
H276 C299 0.951 . S
H277 C264 0.947 . S
H278 C266 0.952 . S
H279 C267 0.950 . S
N280 C283 1.382 1_545 S
N280 C285 1.363 . S
N281 C283 1.371 . S
N281 C284 1.372 1_565 S
N282 C284 1.361 . S
N282 C285 1.377 . S
C283 N280 1.382 1_565 S
C283 N281 1.371 . S
C283 C286 1.480 . S
C284 N281 1.372 1_545 S
C284 N282 1.361 . S
C284 C292 1.457 . S
C285 N280 1.363 . S
C285 N282 1.377 . S
C285 C298 1.479 . S
C286 C283 1.480 . S
C286 C287 1.383 . S
C286 C291 1.385 . S
C287 H268 0.947 . S
C287 C286 1.383 . S
C287 C288 1.388 . S
C288 H269 0.946 . S
C288 C287 1.388 . S
C288 C289 1.384 . S
C289 C288 1.384 . S
C289 C290 1.377 . S
C290 H270 0.953 . S
C290 C289 1.377 . S
C290 C291 1.369 . S
C291 H271 0.945 . S
C291 C286 1.385 . S
C291 C290 1.369 . S
C292 C284 1.457 . S
C292 C293 1.372 1_545 S
C292 C297 1.364 . S
C293 H272 0.952 . S
C293 C292 1.372 1_565 S
C293 C294 1.389 . S
C294 H273 0.949 . S
C294 C293 1.389 . S
C294 C295 1.387 . S
C295 C294 1.387 . S
C295 C296 1.372 1_565 S
C296 H274 0.950 . S
C296 C295 1.372 1_545 S
C296 C297 1.379 . S
C297 H275 0.948 . S
C297 C292 1.364 . S
C297 C296 1.379 . S
C298 C267 1.383 . S
C298 C285 1.479 . S
C298 C299 1.398 . S
C299 C264 1.382 . S
C299 H276 0.951 . S
C299 C298 1.398 . S
C300 C301 1.384 . S
C300 H313 0.947 . S
C300 C335 1.382 . S
C301 C300 1.384 . S
C301 C302 1.378 . S
C302 C301 1.378 . S
C302 C303 1.378 . S
C302 H314 0.952 . S
C303 C302 1.378 . S
C303 H315 0.950 . S
C303 C334 1.383 . S
H304 C323 0.947 . S
H305 C324 0.946 . S
H306 C326 0.953 . S
H307 C327 0.945 . S
H308 C329 0.952 . S
H309 C330 0.949 . S
H310 C332 0.950 . S
H311 C333 0.948 . S
H312 C335 0.951 . S
H313 C300 0.947 . S
H314 C302 0.952 . S
H315 C303 0.950 . S
N316 C319 1.382 . S
N316 C321 1.363 . S
N317 C319 1.371 . S
N317 C320 1.372 . S
N318 C320 1.361 . S
N318 C321 1.377 . S
C319 N316 1.382 . S
C319 N317 1.371 . S
C319 C322 1.480 . S
C320 N317 1.372 . S
C320 N318 1.361 . S
C320 C328 1.457 . S
C321 N316 1.363 . S
C321 N318 1.377 . S
C321 C334 1.479 . S
C322 C319 1.480 . S
C322 C323 1.383 . S
C322 C327 1.385 . S
C323 H304 0.947 . S
C323 C322 1.383 . S
C323 C324 1.388 . S
C324 H305 0.946 . S
C324 C323 1.388 . S
C324 C325 1.384 . S
C325 C324 1.384 . S
C325 C326 1.377 . S
C326 H306 0.953 . S
C326 C325 1.377 . S
C326 C327 1.369 . S
C327 H307 0.945 . S
C327 C322 1.385 . S
C327 C326 1.369 . S
C328 C320 1.457 . S
C328 C329 1.372 . S
C328 C333 1.364 . S
C329 H308 0.952 . S
C329 C328 1.372 . S
C329 C330 1.389 . S
C330 H309 0.949 . S
C330 C329 1.389 . S
C330 C331 1.387 . S
C331 C330 1.387 . S
C331 C332 1.372 . S
C332 H310 0.950 . S
C332 C331 1.372 . S
C332 C333 1.379 . S
C333 H311 0.948 . S
C333 C328 1.364 . S
C333 C332 1.379 . S
C334 C303 1.383 . S
C334 C321 1.479 . S
C334 C335 1.398 . S
C335 C300 1.382 . S
C335 H312 0.951 . S
C335 C334 1.398 . S
C336 C337 1.391 . S
C336 C338 1.394 . S
C336 H352 0.931 . S
C337 C336 1.391 . S
C337 C341 1.376 . S
C338 C336 1.394 . S
C338 C339 1.369 . S
C338 C342 1.531 . S
C339 C338 1.369 . S
C339 C340 1.410 . S
C339 C347 1.503 . S
C340 C339 1.410 . S
C340 C341 1.392 . S
C340 C343 1.511 . S
C341 C337 1.376 . S
C341 C340 1.392 . S
C341 H353 0.929 . S
C342 C338 1.531 . S
C342 H354 0.960 . S
C342 H355 0.962 . S
C342 H356 0.960 . S
C343 C340 1.511 . S
C343 H357 0.961 . S
C343 H358 0.961 . S
C343 H359 0.961 . S
C344 C345 1.370 . S
C344 C346 1.363 . S
C344 H360 0.931 . S
C345 C344 1.370 . S
C345 C349 1.408 . S
C346 C344 1.363 . S
C346 C347 1.370 . S
C346 C350 1.524 . S
C347 C339 1.503 . S
C347 C346 1.370 . S
C347 C348 1.403 . S
C348 C347 1.403 . S
C348 C349 1.404 . S
C348 C351 1.539 . S
C349 C345 1.408 . S
C349 C348 1.404 . S
C349 H361 0.930 . S
C350 C346 1.524 . S
C350 H362 0.956 . S
C350 H363 0.961 . S
C350 H364 0.961 . S
C351 C348 1.539 . S
C351 H365 0.958 . S
C351 H366 0.961 . S
C351 H367 0.960 . S
H352 C336 0.931 . S
H353 C341 0.929 . S
H354 C342 0.960 . S
H355 C342 0.962 . S
H356 C342 0.960 . S
H357 C343 0.961 . S
H358 C343 0.961 . S
H359 C343 0.961 . S
H360 C344 0.931 . S
H361 C349 0.930 . S
H362 C350 0.956 . S
H363 C350 0.961 . S
H364 C350 0.961 . S
H365 C351 0.958 . S
H366 C351 0.961 . S
H367 C351 0.960 . S
C368 C369 1.391 . S
C368 C370 1.394 . S
C368 H384 0.931 . S
C369 C368 1.391 . S
C369 C373 1.376 . S
C370 C368 1.394 . S
C370 C371 1.369 . S
C370 C374 1.531 . S
C371 C370 1.369 . S
C371 C372 1.410 . S
C371 C379 1.503 . S
C372 C371 1.410 . S
C372 C373 1.392 . S
C372 C375 1.511 . S
C373 C369 1.376 . S
C373 C372 1.392 . S
C373 H385 0.929 . S
C374 C370 1.531 . S
C374 H386 0.960 . S
C374 H387 0.962 . S
C374 H388 0.960 . S
C375 C372 1.511 . S
C375 H389 0.961 . S
C375 H390 0.961 . S
C375 H391 0.961 . S
C376 C377 1.370 . S
C376 C378 1.363 . S
C376 H392 0.931 . S
C377 C376 1.370 . S
C377 C381 1.408 . S
C378 C376 1.363 . S
C378 C379 1.370 . S
C378 C382 1.524 . S
C379 C371 1.503 . S
C379 C378 1.370 . S
C379 C380 1.403 . S
C380 C379 1.403 . S
C380 C381 1.404 . S
C380 C383 1.539 . S
C381 C377 1.408 . S
C381 C380 1.404 . S
C381 H393 0.930 . S
C382 C378 1.524 . S
C382 H394 0.956 . S
C382 H395 0.961 . S
C382 H396 0.961 . S
C383 C380 1.539 . S
C383 H397 0.958 . S
C383 H398 0.961 . S
C383 H399 0.960 . S
H384 C368 0.931 . S
H385 C373 0.929 . S
H386 C374 0.960 . S
H387 C374 0.962 . S
H388 C374 0.960 . S
H389 C375 0.961 . S
H390 C375 0.961 . S
H391 C375 0.961 . S
H392 C376 0.931 . S
H393 C381 0.930 . S
H394 C382 0.956 . S
H395 C382 0.961 . S
H396 C382 0.961 . S
H397 C383 0.958 . S
H398 C383 0.961 . S
H399 C383 0.960 . S
C400 C401 1.391 . S
C400 C402 1.394 . S
C400 H416 0.931 . S
C401 C400 1.391 . S
C401 C405 1.376 . S
C402 C400 1.394 . S
C402 C403 1.369 . S
C402 C406 1.531 . S
C403 C402 1.369 . S
C403 C404 1.410 . S
C403 C411 1.503 . S
C404 C403 1.410 . S
C404 C405 1.392 . S
C404 C407 1.511 . S
C405 C401 1.376 . S
C405 C404 1.392 . S
C405 H417 0.929 . S
C406 C402 1.531 . S
C406 H418 0.960 . S
C406 H419 0.962 . S
C406 H420 0.960 . S
C407 C404 1.511 . S
C407 H421 0.961 . S
C407 H422 0.961 . S
C407 H423 0.961 . S
C408 C409 1.370 . S
C408 C410 1.363 . S
C408 H424 0.931 . S
C409 C408 1.370 . S
C409 C413 1.408 . S
C410 C408 1.363 . S
C410 C411 1.370 . S
C410 C414 1.524 . S
C411 C403 1.503 . S
C411 C410 1.370 . S
C411 C412 1.403 . S
C412 C411 1.403 . S
C412 C413 1.404 . S
C412 C415 1.539 . S
C413 C409 1.408 . S
C413 C412 1.404 . S
C413 H425 0.930 . S
C414 C410 1.524 . S
C414 H426 0.956 . S
C414 H427 0.961 . S
C414 H428 0.961 . S
C415 C412 1.539 . S
C415 H429 0.958 . S
C415 H430 0.961 . S
C415 H431 0.960 . S
H416 C400 0.931 . S
H417 C405 0.929 . S
H418 C406 0.960 . S
H419 C406 0.962 . S
H420 C406 0.960 . S
H421 C407 0.961 . S
H422 C407 0.961 . S
H423 C407 0.961 . S
H424 C408 0.931 . S
H425 C413 0.930 . S
H426 C414 0.956 . S
H427 C414 0.961 . S
H428 C414 0.961 . S
H429 C415 0.958 . S
H430 C415 0.961 . S
H431 C415 0.960 . S
C432 C433 1.391 . S
C432 C434 1.394 . S
C432 H448 0.931 . S
C433 C432 1.391 . S
C433 C437 1.376 . S
C434 C432 1.394 . S
C434 C435 1.369 . S
C434 C438 1.531 . S
C435 C434 1.369 . S
C435 C436 1.410 . S
C435 C443 1.503 . S
C436 C435 1.410 . S
C436 C437 1.392 . S
C436 C439 1.511 . S
C437 C433 1.376 . S
C437 C436 1.392 . S
C437 H449 0.929 . S
C438 C434 1.531 . S
C438 H450 0.960 . S
C438 H451 0.962 . S
C438 H452 0.960 . S
C439 C436 1.511 . S
C439 H453 0.961 . S
C439 H454 0.961 . S
C439 H455 0.961 . S
C440 C441 1.370 . S
C440 C442 1.363 . S
C440 H456 0.931 . S
C441 C440 1.370 . S
C441 C445 1.408 . S
C442 C440 1.363 . S
C442 C443 1.370 . S
C442 C446 1.524 . S
C443 C435 1.503 . S
C443 C442 1.370 . S
C443 C444 1.403 . S
C444 C443 1.403 . S
C444 C445 1.404 . S
C444 C447 1.539 . S
C445 C441 1.408 . S
C445 C444 1.404 . S
C445 H457 0.930 . S
C446 C442 1.524 . S
C446 H458 0.956 . S
C446 H459 0.961 . S
C446 H460 0.961 . S
C447 C444 1.539 . S
C447 H461 0.958 . S
C447 H462 0.961 . S
C447 H463 0.960 . S
H448 C432 0.931 . S
H449 C437 0.929 . S
H450 C438 0.960 . S
H451 C438 0.962 . S
H452 C438 0.960 . S
H453 C439 0.961 . S
H454 C439 0.961 . S
H455 C439 0.961 . S
H456 C440 0.931 . S
H457 C445 0.930 . S
H458 C446 0.956 . S
H459 C446 0.961 . S
H460 C446 0.961 . S
H461 C447 0.958 . S
H462 C447 0.961 . S
H463 C447 0.960 . S
C464 C465 1.391 . S
C464 C466 1.394 . S
C464 H480 0.931 . S
C465 C464 1.391 . S
C465 C469 1.376 . S
C466 C464 1.394 . S
C466 C467 1.369 . S
C466 C470 1.531 . S
C467 C466 1.369 . S
C467 C468 1.410 . S
C467 C475 1.503 . S
C468 C467 1.410 . S
C468 C469 1.392 . S
C468 C471 1.511 . S
C469 C465 1.376 . S
C469 C468 1.392 . S
C469 H481 0.929 . S
C470 C466 1.531 . S
C470 H482 0.960 . S
C470 H483 0.962 . S
C470 H484 0.960 . S
C471 C468 1.511 . S
C471 H485 0.961 . S
C471 H486 0.961 . S
C471 H487 0.961 . S
C472 C473 1.370 . S
C472 C474 1.363 . S
C472 H488 0.931 . S
C473 C472 1.370 . S
C473 C477 1.408 . S
C474 C472 1.363 . S
C474 C475 1.370 . S
C474 C478 1.524 . S
C475 C467 1.503 . S
C475 C474 1.370 . S
C475 C476 1.403 . S
C476 C475 1.403 . S
C476 C477 1.404 . S
C476 C479 1.539 . S
C477 C473 1.408 . S
C477 C476 1.404 . S
C477 H489 0.930 . S
C478 C474 1.524 . S
C478 H490 0.956 . S
C478 H491 0.961 . S
C478 H492 0.961 . S
C479 C476 1.539 . S
C479 H493 0.958 . S
C479 H494 0.961 . S
C479 H495 0.960 . S
H480 C464 0.931 . S
H481 C469 0.929 . S
H482 C470 0.960 . S
H483 C470 0.962 . S
H484 C470 0.960 . S
H485 C471 0.961 . S
H486 C471 0.961 . S
H487 C471 0.961 . S
H488 C472 0.931 . S
H489 C477 0.930 . S
H490 C478 0.956 . S
H491 C478 0.961 . S
H492 C478 0.961 . S
H493 C479 0.958 . S
H494 C479 0.961 . S
H495 C479 0.960 . S
C496 C497 1.391 . S
C496 C498 1.394 . S
C496 H512 0.931 . S
C497 C496 1.391 . S
C497 C501 1.376 . S
C498 C496 1.394 . S
C498 C499 1.369 . S
C498 C502 1.531 . S
C499 C498 1.369 . S
C499 C500 1.410 . S
C499 C507 1.503 . S
C500 C499 1.410 . S
C500 C501 1.392 . S
C500 C503 1.511 . S
C501 C497 1.376 . S
C501 C500 1.392 . S
C501 H513 0.929 . S
C502 C498 1.531 . S
C502 H514 0.960 . S
C502 H515 0.962 . S
C502 H516 0.960 . S
C503 C500 1.511 . S
C503 H517 0.961 . S
C503 H518 0.961 . S
C503 H519 0.961 . S
C504 C505 1.370 . S
C504 C506 1.363 . S
C504 H520 0.931 . S
C505 C504 1.370 . S
C505 C509 1.408 . S
C506 C504 1.363 . S
C506 C507 1.370 . S
C506 C510 1.524 . S
C507 C499 1.503 . S
C507 C506 1.370 . S
C507 C508 1.403 . S
C508 C507 1.403 . S
C508 C509 1.404 . S
C508 C511 1.539 . S
C509 C505 1.408 . S
C509 C508 1.404 . S
C509 H521 0.930 . S
C510 C506 1.524 . S
C510 H522 0.956 . S
C510 H523 0.961 . S
C510 H524 0.961 . S
C511 C508 1.539 . S
C511 H525 0.958 . S
C511 H526 0.961 . S
C511 H527 0.960 . S
H512 C496 0.931 . S
H513 C501 0.929 . S
H514 C502 0.960 . S
H515 C502 0.962 . S
H516 C502 0.960 . S
H517 C503 0.961 . S
H518 C503 0.961 . S
H519 C503 0.961 . S
H520 C504 0.931 . S
H521 C509 0.930 . S
H522 C510 0.956 . S
H523 C510 0.961 . S
H524 C510 0.961 . S
H525 C511 0.958 . S
H526 C511 0.961 . S
H527 C511 0.960 . S
C528 C529 1.391 . S
C528 C530 1.394 . S
C528 H544 0.931 . S
C529 C528 1.391 . S
C529 C533 1.376 . S
C530 C528 1.394 . S
C530 C531 1.369 . S
C530 C534 1.531 . S
C531 C530 1.369 . S
C531 C532 1.410 . S
C531 C539 1.503 . S
C532 C531 1.410 . S
C532 C533 1.392 . S
C532 C535 1.511 . S
C533 C529 1.376 . S
C533 C532 1.392 . S
C533 H545 0.929 . S
C534 C530 1.531 . S
C534 H546 0.960 . S
C534 H547 0.962 . S
C534 H548 0.960 . S
C535 C532 1.511 . S
C535 H549 0.961 . S
C535 H550 0.961 . S
C535 H551 0.961 . S
C536 C537 1.370 . S
C536 C538 1.363 . S
C536 H552 0.931 . S
C537 C536 1.370 . S
C537 C541 1.408 . S
C538 C536 1.363 . S
C538 C539 1.370 . S
C538 C542 1.524 . S
C539 C531 1.503 . S
C539 C538 1.370 . S
C539 C540 1.403 . S
C540 C539 1.403 . S
C540 C541 1.404 . S
C540 C543 1.539 . S
C541 C537 1.408 . S
C541 C540 1.404 . S
C541 H553 0.930 . S
C542 C538 1.524 . S
C542 H554 0.956 . S
C542 H555 0.961 . S
C542 H556 0.961 . S
C543 C540 1.539 . S
C543 H557 0.958 . S
C543 H558 0.961 . S
C543 H559 0.960 . S
H544 C528 0.931 . S
H545 C533 0.929 . S
H546 C534 0.960 . S
H547 C534 0.962 . S
H548 C534 0.960 . S
H549 C535 0.961 . S
H550 C535 0.961 . S
H551 C535 0.961 . S
H552 C536 0.931 . S
H553 C541 0.930 . S
H554 C542 0.956 . S
H555 C542 0.961 . S
H556 C542 0.961 . S
H557 C543 0.958 . S
H558 C543 0.961 . S
H559 C543 0.960 . S
C560 C561 1.391 . S
C560 C562 1.394 . S
C560 H576 0.931 . S
C561 C560 1.391 . S
C561 C565 1.376 . S
C562 C560 1.394 . S
C562 C563 1.369 . S
C562 C566 1.531 . S
C563 C562 1.369 . S
C563 C564 1.410 . S
C563 C571 1.503 . S
C564 C563 1.410 . S
C564 C565 1.392 . S
C564 C567 1.511 . S
C565 C561 1.376 . S
C565 C564 1.392 . S
C565 H577 0.929 . S
C566 C562 1.531 . S
C566 H578 0.960 . S
C566 H579 0.962 . S
C566 H580 0.960 . S
C567 C564 1.511 . S
C567 H581 0.961 . S
C567 H582 0.961 . S
C567 H583 0.961 . S
C568 C569 1.370 . S
C568 C570 1.363 . S
C568 H584 0.931 . S
C569 C568 1.370 . S
C569 C573 1.408 . S
C570 C568 1.363 . S
C570 C571 1.370 . S
C570 C574 1.524 . S
C571 C563 1.503 . S
C571 C570 1.370 . S
C571 C572 1.403 . S
C572 C571 1.403 . S
C572 C573 1.404 . S
C572 C575 1.539 . S
C573 C569 1.408 . S
C573 C572 1.404 . S
C573 H585 0.930 . S
C574 C570 1.524 . S
C574 H586 0.956 . S
C574 H587 0.961 . S
C574 H588 0.961 . S
C575 C572 1.539 . S
C575 H589 0.958 . S
C575 H590 0.961 . S
C575 H591 0.960 . S
H576 C560 0.931 . S
H577 C565 0.929 . S
H578 C566 0.960 . S
H579 C566 0.962 . S
H580 C566 0.960 . S
H581 C567 0.961 . S
H582 C567 0.961 . S
H583 C567 0.961 . S
H584 C568 0.931 . S
H585 C573 0.930 . S
H586 C574 0.956 . S
H587 C574 0.961 . S
H588 C574 0.961 . S
H589 C575 0.958 . S
H590 C575 0.961 . S
H591 C575 0.960 . S
C592 C593 1.391 . S
C592 C594 1.394 . S
C592 H608 0.931 . S
C593 C592 1.391 . S
C593 C597 1.376 . S
C594 C592 1.394 . S
C594 C595 1.369 . S
C594 C598 1.531 . S
C595 C594 1.369 . S
C595 C596 1.410 . S
C595 C603 1.503 . S
C596 C595 1.410 . S
C596 C597 1.392 . S
C596 C599 1.511 . S
C597 C593 1.376 . S
C597 C596 1.392 . S
C597 H609 0.929 . S
C598 C594 1.531 . S
C598 H610 0.960 . S
C598 H611 0.962 . S
C598 H612 0.960 . S
C599 C596 1.511 . S
C599 H613 0.961 . S
C599 H614 0.961 . S
C599 H615 0.961 . S
C600 C601 1.370 . S
C600 C602 1.363 . S
C600 H616 0.931 . S
C601 C600 1.370 . S
C601 C605 1.408 . S
C602 C600 1.363 . S
C602 C603 1.370 . S
C602 C606 1.524 . S
C603 C595 1.503 . S
C603 C602 1.370 . S
C603 C604 1.403 . S
C604 C603 1.403 . S
C604 C605 1.404 . S
C604 C607 1.539 . S
C605 C601 1.408 . S
C605 C604 1.404 . S
C605 H617 0.930 . S
C606 C602 1.524 . S
C606 H618 0.956 . S
C606 H619 0.961 . S
C606 H620 0.961 . S
C607 C604 1.539 . S
C607 H621 0.958 . S
C607 H622 0.961 . S
C607 H623 0.960 . S
H608 C592 0.931 . S
H609 C597 0.929 . S
H610 C598 0.960 . S
H611 C598 0.962 . S
H612 C598 0.960 . S
H613 C599 0.961 . S
H614 C599 0.961 . S
H615 C599 0.961 . S
H616 C600 0.931 . S
H617 C605 0.930 . S
H618 C606 0.956 . S
H619 C606 0.961 . S
H620 C606 0.961 . S
H621 C607 0.958 . S
H622 C607 0.961 . S
H623 C607 0.960 . S
C624 C625 1.391 . S
C624 C626 1.394 . S
C624 H640 0.931 . S
C625 C624 1.391 . S
C625 C629 1.376 . S
C626 C624 1.394 . S
C626 C627 1.369 . S
C626 C630 1.531 . S
C627 C626 1.369 . S
C627 C628 1.410 . S
C627 C635 1.503 . S
C628 C627 1.410 . S
C628 C629 1.392 . S
C628 C631 1.511 . S
C629 C625 1.376 . S
C629 C628 1.392 . S
C629 H641 0.929 . S
C630 C626 1.531 . S
C630 H642 0.960 . S
C630 H643 0.962 . S
C630 H644 0.960 . S
C631 C628 1.511 . S
C631 H645 0.961 . S
C631 H646 0.961 . S
C631 H647 0.961 . S
C632 C633 1.370 . S
C632 C634 1.363 . S
C632 H648 0.931 . S
C633 C632 1.370 . S
C633 C637 1.408 . S
C634 C632 1.363 . S
C634 C635 1.370 . S
C634 C638 1.524 . S
C635 C627 1.503 . S
C635 C634 1.370 . S
C635 C636 1.403 . S
C636 C635 1.403 . S
C636 C637 1.404 . S
C636 C639 1.539 . S
C637 C633 1.408 . S
C637 C636 1.404 . S
C637 H649 0.930 . S
C638 C634 1.524 . S
C638 H650 0.956 . S
C638 H651 0.961 . S
C638 H652 0.961 . S
C639 C636 1.539 . S
C639 H653 0.958 . S
C639 H654 0.961 . S
C639 H655 0.960 . S
H640 C624 0.931 . S
H641 C629 0.929 . S
H642 C630 0.960 . S
H643 C630 0.962 . S
H644 C630 0.960 . S
H645 C631 0.961 . S
H646 C631 0.961 . S
H647 C631 0.961 . S
H648 C632 0.931 . S
H649 C637 0.930 . S
H650 C638 0.956 . S
H651 C638 0.961 . S
H652 C638 0.961 . S
H653 C639 0.958 . S
H654 C639 0.961 . S
H655 C639 0.960 . S
C656 C657 1.391 . S
C656 C658 1.394 . S
C656 H672 0.931 . S
C657 C656 1.391 . S
C657 C661 1.376 . S
C658 C656 1.394 . S
C658 C659 1.369 . S
C658 C662 1.531 . S
C659 C658 1.369 . S
C659 C660 1.410 . S
C659 C667 1.503 . S
C660 C659 1.410 . S
C660 C661 1.392 . S
C660 C663 1.511 . S
C661 C657 1.376 . S
C661 C660 1.392 . S
C661 H673 0.929 . S
C662 C658 1.531 . S
C662 H674 0.960 . S
C662 H675 0.962 . S
C662 H676 0.960 . S
C663 C660 1.511 . S
C663 H677 0.961 . S
C663 H678 0.961 . S
C663 H679 0.961 . S
C664 C665 1.370 . S
C664 C666 1.363 . S
C664 H680 0.931 . S
C665 C664 1.370 . S
C665 C669 1.408 . S
C666 C664 1.363 . S
C666 C667 1.370 . S
C666 C670 1.524 . S
C667 C659 1.503 . S
C667 C666 1.370 . S
C667 C668 1.403 . S
C668 C667 1.403 . S
C668 C669 1.404 . S
C668 C671 1.539 . S
C669 C665 1.408 . S
C669 C668 1.404 . S
C669 H681 0.930 . S
C670 C666 1.524 . S
C670 H682 0.956 . S
C670 H683 0.961 . S
C670 H684 0.961 . S
C671 C668 1.539 . S
C671 H685 0.958 . S
C671 H686 0.961 . S
C671 H687 0.960 . S
H672 C656 0.931 . S
H673 C661 0.929 . S
H674 C662 0.960 . S
H675 C662 0.962 . S
H676 C662 0.960 . S
H677 C663 0.961 . S
H678 C663 0.961 . S
H679 C663 0.961 . S
H680 C664 0.931 . S
H681 C669 0.930 . S
H682 C670 0.956 . S
H683 C670 0.961 . S
H684 C670 0.961 . S
H685 C671 0.958 . S
H686 C671 0.961 . S
H687 C671 0.960 . S
C688 C689 1.391 . S
C688 C690 1.394 . S
C688 H704 0.931 . S
C689 C688 1.391 . S
C689 C693 1.376 . S
C690 C688 1.394 . S
C690 C691 1.369 . S
C690 C694 1.531 . S
C691 C690 1.369 . S
C691 C692 1.410 . S
C691 C699 1.503 . S
C692 C691 1.410 . S
C692 C693 1.392 . S
C692 C695 1.511 . S
C693 C689 1.376 . S
C693 C692 1.392 . S
C693 H705 0.929 . S
C694 C690 1.531 . S
C694 H706 0.960 . S
C694 H707 0.962 . S
C694 H708 0.960 . S
C695 C692 1.511 . S
C695 H709 0.961 . S
C695 H710 0.961 . S
C695 H711 0.961 . S
C696 C697 1.370 . S
C696 C698 1.363 . S
C696 H712 0.931 . S
C697 C696 1.370 . S
C697 C701 1.408 . S
C698 C696 1.363 . S
C698 C699 1.370 . S
C698 C702 1.524 . S
C699 C691 1.503 . S
C699 C698 1.370 . S
C699 C700 1.403 . S
C700 C699 1.403 . S
C700 C701 1.404 . S
C700 C703 1.539 . S
C701 C697 1.408 . S
C701 C700 1.404 . S
C701 H713 0.930 . S
C702 C698 1.524 . S
C702 H714 0.956 . S
C702 H715 0.961 . S
C702 H716 0.961 . S
C703 C700 1.539 . S
C703 H717 0.958 . S
C703 H718 0.961 . S
C703 H719 0.960 . S
H704 C688 0.931 . S
H705 C693 0.929 . S
H706 C694 0.960 . S
H707 C694 0.962 . S
H708 C694 0.960 . S
H709 C695 0.961 . S
H710 C695 0.961 . S
H711 C695 0.961 . S
H712 C696 0.931 . S
H713 C701 0.930 . S
H714 C702 0.956 . S
H715 C702 0.961 . S
H716 C702 0.961 . S
H717 C703 0.958 . S
H718 C703 0.961 . S
H719 C703 0.960 . S
C720 C721 1.391 1_655 S
C720 C722 1.394 1_655 S
C720 H736 0.931 . S
C721 C720 1.391 1_455 S
C721 C725 1.376 . S
C722 C720 1.394 1_455 S
C722 C723 1.369 . S
C722 C726 1.531 1_455 S
C723 C722 1.369 . S
C723 C724 1.410 . S
C723 C731 1.503 . S
C724 C723 1.410 . S
C724 C725 1.392 . S
C724 C727 1.511 . S
C725 C721 1.376 . S
C725 C724 1.392 . S
C725 H737 0.929 . S
C726 C722 1.531 1_655 S
C726 H738 0.960 . S
C726 H739 0.962 . S
C726 H740 0.960 . S
C727 C724 1.511 . S
C727 H741 0.961 . S
C727 H742 0.961 . S
C727 H743 0.961 . S
C728 C729 1.384 . S
C728 C730 1.363 . S
C728 H744 0.931 . S
C729 C728 1.384 . S
C729 C733 1.420 . S
C730 C728 1.363 . S
C730 C731 1.370 . S
C730 C734 1.524 . S
C731 C723 1.503 . S
C731 C730 1.370 . S
C731 C732 1.403 . S
C732 C731 1.403 . S
C732 C733 1.404 . S
C732 C735 1.539 . S
C733 C729 1.420 . S
C733 C732 1.404 . S
C733 H745 0.930 . S
C734 C730 1.524 . S
C734 H746 0.956 . S
C734 H747 0.961 . S
C734 H748 0.961 . S
C735 C732 1.539 . S
C735 H749 0.958 . S
C735 H750 0.961 . S
C735 H751 0.960 . S
H736 C720 0.931 . S
H737 C725 0.929 . S
H738 C726 0.960 . S
H739 C726 0.962 . S
H740 C726 0.960 . S
H741 C727 0.961 . S
H742 C727 0.961 . S
H743 C727 0.961 . S
H744 C728 0.931 . S
H745 C733 0.930 . S
H746 C734 0.956 . S
H747 C734 0.961 . S
H748 C734 0.961 . S
H749 C735 0.958 . S
H750 C735 0.961 . S
H751 C735 0.960 . S
C752 C753 1.391 . S
C752 C754 1.394 . S
C752 H768 0.931 . S
C753 C752 1.391 . S
C753 C757 1.376 . S
C754 C752 1.394 . S
C754 C755 1.369 . S
C754 C758 1.531 . S
C755 C754 1.369 . S
C755 C756 1.410 . S
C755 C763 1.503 . S
C756 C755 1.410 . S
C756 C757 1.392 . S
C756 C759 1.511 . S
C757 C753 1.376 . S
C757 C756 1.392 . S
C757 H769 0.929 . S
C758 C754 1.531 . S
C758 H770 0.960 . S
C758 H771 0.962 . S
C758 H772 0.960 . S
C759 C756 1.511 . S
C759 H773 0.961 . S
C759 H774 0.961 . S
C759 H775 0.961 . S
C760 C761 1.370 1_565 S
C760 C762 1.363 . S
C760 H776 0.931 . S
C761 C760 1.370 1_545 S
C761 C765 1.408 . S
C762 C760 1.363 . S
C762 C763 1.370 1_565 S
C762 C766 1.524 . S
C763 C755 1.503 . S
C763 C762 1.370 1_545 S
C763 C764 1.403 . S
C764 C763 1.403 . S
C764 C765 1.404 . S
C764 C767 1.539 . S
C765 C761 1.408 . S
C765 C764 1.404 . S
C765 H777 0.930 . S
C766 C762 1.524 . S
C766 H778 0.956 . S
C766 H779 0.961 . S
C766 H780 0.961 . S
C767 C764 1.539 . S
C767 H781 0.958 . S
C767 H782 0.961 . S
C767 H783 0.960 . S
H768 C752 0.931 . S
H769 C757 0.929 . S
H770 C758 0.960 . S
H771 C758 0.962 . S
H772 C758 0.960 . S
H773 C759 0.961 . S
H774 C759 0.961 . S
H775 C759 0.961 . S
H776 C760 0.931 . S
H777 C765 0.930 . S
H778 C766 0.956 . S
H779 C766 0.961 . S
H780 C766 0.961 . S
H781 C767 0.958 . S
H782 C767 0.961 . S
H783 C767 0.960 . S
C784 C785 1.391 . S
C784 C786 1.394 . S
C784 H800 0.931 . S
C785 C784 1.391 . S
C785 C789 1.376 . S
C786 C784 1.394 . S
C786 C787 1.369 . S
C786 C790 1.531 . S
C787 C786 1.369 . S
C787 C788 1.410 . S
C787 C795 1.503 . S
C788 C787 1.410 . S
C788 C789 1.392 . S
C788 C791 1.511 . S
C789 C785 1.376 . S
C789 C788 1.392 . S
C789 H801 0.929 . S
C790 C786 1.531 . S
C790 H802 0.960 . S
C790 H803 0.962 . S
C790 H804 0.960 . S
C791 C788 1.511 . S
C791 H805 0.961 . S
C791 H806 0.961 . S
C791 H807 0.961 . S
C792 C793 1.370 . S
C792 C794 1.363 . S
C792 H808 0.931 . S
C793 C792 1.370 . S
C793 C797 1.408 . S
C794 C792 1.363 . S
C794 C795 1.370 . S
C794 C798 1.524 . S
C795 C787 1.503 . S
C795 C794 1.370 . S
C795 C796 1.403 . S
C796 C795 1.403 . S
C796 C797 1.404 . S
C796 C799 1.539 . S
C797 C793 1.408 . S
C797 C796 1.404 . S
C797 H809 0.930 . S
C798 C794 1.524 . S
C798 H810 0.956 . S
C798 H811 0.961 . S
C798 H812 0.961 . S
C799 C796 1.539 . S
C799 H813 0.958 . S
C799 H814 0.961 . S
C799 H815 0.960 . S
H800 C784 0.931 . S
H801 C789 0.929 . S
H802 C790 0.960 . S
H803 C790 0.962 . S
H804 C790 0.960 . S
H805 C791 0.961 . S
H806 C791 0.961 . S
H807 C791 0.961 . S
H808 C792 0.931 . S
H809 C797 0.930 . S
H810 C798 0.956 . S
H811 C798 0.961 . S
H812 C798 0.961 . S
H813 C799 0.958 . S
H814 C799 0.961 . S
H815 C799 0.960 . S
C816 C817 1.391 1_565 S
C816 C818 1.394 . S
C816 H832 0.931 . S
C817 C816 1.391 1_545 S
C817 C821 1.376 . S
C818 C816 1.394 . S
C818 C819 1.369 1_565 S
C818 C822 1.531 . S
C819 C818 1.369 1_545 S
C819 C820 1.410 . S
C819 C827 1.503 . S
C820 C819 1.410 . S
C820 C821 1.392 . S
C820 C823 1.511 . S
C821 C817 1.376 . S
C821 C820 1.392 . S
C821 H833 0.929 . S
C822 C818 1.531 . S
C822 H834 0.960 . S
C822 H835 0.962 . S
C822 H836 0.960 . S
C823 C820 1.511 . S
C823 H837 0.961 . S
C823 H838 0.961 . S
C823 H839 0.961 . S
C824 C825 1.370 . S
C824 C826 1.363 . S
C824 H840 0.931 . S
C825 C824 1.370 . S
C825 C829 1.408 1_565 S
C826 C824 1.363 . S
C826 C827 1.370 1_565 S
C826 C830 1.524 . S
C827 C819 1.503 . S
C827 C826 1.370 1_545 S
C827 C828 1.403 . S
C828 C827 1.403 . S
C828 C829 1.404 . S
C828 C831 1.539 . S
C829 C825 1.408 1_545 S
C829 C828 1.404 . S
C829 H841 0.930 . S
C830 C826 1.524 . S
C830 H842 0.956 . S
C830 H843 0.961 . S
C830 H844 0.961 . S
C831 C828 1.539 . S
C831 H845 0.958 . S
C831 H846 0.961 . S
C831 H847 0.960 . S
H832 C816 0.931 . S
H833 C821 0.929 . S
H834 C822 0.960 . S
H835 C822 0.962 . S
H836 C822 0.960 . S
H837 C823 0.961 . S
H838 C823 0.961 . S
H839 C823 0.961 . S
H840 C824 0.931 . S
H841 C829 0.930 . S
H842 C830 0.956 . S
H843 C830 0.961 . S
H844 C830 0.961 . S
H845 C831 0.958 . S
H846 C831 0.961 . S
H847 C831 0.960 . S
C848 C849 1.391 . S
C848 C850 1.394 . S
C848 H864 0.931 . S
C849 C848 1.391 . S
C849 C853 1.376 . S
C850 C848 1.394 . S
C850 C851 1.369 . S
C850 C854 1.531 . S
C851 C850 1.369 . S
C851 C852 1.410 . S
C851 C859 1.503 . S
C852 C851 1.410 . S
C852 C853 1.392 . S
C852 C855 1.511 . S
C853 C849 1.376 . S
C853 C852 1.392 . S
C853 H865 0.929 . S
C854 C850 1.531 . S
C854 H866 0.960 . S
C854 H867 0.962 . S
C854 H868 0.960 . S
C855 C852 1.511 . S
C855 H869 0.961 . S
C855 H870 0.961 . S
C855 H871 0.961 . S
C856 C857 1.370 . S
C856 C858 1.363 . S
C856 H872 0.931 . S
C857 C856 1.370 . S
C857 C861 1.408 . S
C858 C856 1.363 . S
C858 C859 1.370 . S
C858 C862 1.524 . S
C859 C851 1.503 . S
C859 C858 1.370 . S
C859 C860 1.403 . S
C860 C859 1.403 . S
C860 C861 1.404 . S
C860 C863 1.539 . S
C861 C857 1.408 . S
C861 C860 1.404 . S
C861 H873 0.930 . S
C862 C858 1.524 . S
C862 H874 0.956 . S
C862 H875 0.961 . S
C862 H876 0.961 . S
C863 C860 1.539 . S
C863 H877 0.958 . S
C863 H878 0.961 . S
C863 H879 0.960 . S
H864 C848 0.931 . S
H865 C853 0.929 . S
H866 C854 0.960 . S
H867 C854 0.962 . S
H868 C854 0.960 . S
H869 C855 0.961 . S
H870 C855 0.961 . S
H871 C855 0.961 . S
H872 C856 0.931 . S
H873 C861 0.930 . S
H874 C862 0.956 . S
H875 C862 0.961 . S
H876 C862 0.961 . S
H877 C863 0.958 . S
H878 C863 0.961 . S
H879 C863 0.960 . S
C880 C881 1.391 1_655 S
C880 C882 1.394 . S
C880 H896 0.931 . S
C881 C880 1.391 1_455 S
C881 C885 1.376 . S
C882 C880 1.394 . S
C882 C883 1.369 1_655 S
C882 C886 1.531 . S
C883 C882 1.369 1_455 S
C883 C884 1.410 . S
C883 C891 1.503 . S
C884 C883 1.410 . S
C884 C885 1.392 . S
C884 C887 1.511 . S
C885 C881 1.376 . S
C885 C884 1.392 . S
C885 H897 0.929 . S
C886 C882 1.531 . S
C886 H898 0.960 . S
C886 H899 0.962 . S
C886 H900 0.960 . S
C887 C884 1.511 . S
C887 H901 0.961 . S
C887 H902 0.961 . S
C887 H903 0.961 . S
C888 C889 1.370 1_655 S
C888 C890 1.358 1_655 S
C888 H904 0.931 . S
C889 C888 1.370 1_455 S
C889 C893 1.408 . S
C890 C888 1.358 1_455 S
C890 C891 1.396 . S
C890 C894 1.504 1_455 S
C891 C883 1.503 . S
C891 C890 1.396 . S
C891 C892 1.403 . S
C892 C891 1.403 . S
C892 C893 1.404 . S
C892 C895 1.539 . S
C893 C889 1.408 . S
C893 C892 1.404 . S
C893 H905 0.930 . S
C894 C890 1.504 1_655 S
C894 H906 0.956 . S
C894 H907 0.961 1_655 S
C894 H908 0.961 . S
C895 C892 1.539 . S
C895 H909 0.958 1_455 S
C895 H910 0.961 . S
C895 H911 0.960 . S
H896 C880 0.931 . S
H897 C885 0.929 . S
H898 C886 0.960 . S
H899 C886 0.962 . S
H900 C886 0.960 . S
H901 C887 0.961 . S
H902 C887 0.961 . S
H903 C887 0.961 . S
H904 C888 0.931 . S
H905 C893 0.930 . S
H906 C894 0.956 . S
H907 C894 0.961 1_455 S
H908 C894 0.961 . S
H909 C895 0.958 1_655 S
H910 C895 0.961 . S
H911 C895 0.960 . S
C337 C7 0.578 . S
C345 C325 0.632 . S
C369 C51 1.918 . S
C377 C253 1.839 . S
C401 C87 1.201 . S
C409 C289 1.228 . S
C433 C16 0.513 . S
C441 C301 0.329 . S
C473 C229 2.006 . S
C465 C42 2.042 . S
C505 C265 1.337 . S
C497 C96 1.342 . S
C529 C47 1.192 . S
C537 C181 1.200 . S
C561 C91 3.116 . S
C569 C193 3.065 . S
C593 C2 2.096 . S
C601 C121 2.045 . S
C633 C157 1.329 . S
C625 C56 1.335 . S
C665 C217 2.918 . S
C657 C82 2.981 . S
C689 C11 1.894 . S
C697 C145 1.852 . S
C729 C223 1.745 1_554 S
C721 C19 1.677 . S
C753 C50 1.345 . S
C761 C151 1.378 . S
C785 C99 1.490 . S
C793 C187 1.509 . S
C825 C295 1.477 . S
C817 C59 1.453 . S
C857 C331 1.122 1_556 S
C849 C90 1.133 . S
C881 C10 1.306 . S
C889 C259 1.360 . S
