# Generated by pormake.
# Topology pyr, (3,6)-cn, num edge types: 1
# Building blocks:
#     Node 0, Type 0, BuildingBlock: MIDCAF_clean_linker_0, # of connection points: 3
#     Node 1, Type 0, BuildingBlock: MIDCAF_clean_linker_0, # of connection points: 3
#     Node 2, Type 0, BuildingBlock: MIDCAF_clean_linker_0, # of connection points: 3
#     Node 3, Type 0, BuildingBlock: MIDCAF_clean_linker_0, # of connection points: 3
#     Node 4, Type 0, BuildingBlock: MIDCAF_clean_linker_0, # of connection points: 3
#     Node 5, Type 0, BuildingBlock: MIDCAF_clean_linker_0, # of connection points: 3
#     Node 6, Type 0, BuildingBlock: MIDCAF_clean_linker_0, # of connection points: 3
#     Node 7, Type 0, BuildingBlock: MIDCAF_clean_linker_0, # of connection points: 3
#     Node 8, Type 1, BuildingBlock: BETDAH_clean_sbu_0, # of connection points: 6
#     Node 9, Type 1, BuildingBlock: BETDAH_clean_sbu_0, # of connection points: 6
#     Node 10, Type 1, BuildingBlock: BETDAH_clean_sbu_0, # of connection points: 6
#     Node 11, Type 1, BuildingBlock: BETDAH_clean_sbu_0, # of connection points: 6
#     Edge 12, Type (0, 1), BuildingBlock: XUDNAN_clean_linker_2, # of connection points: 2
#     Edge 13, Type (0, 1), BuildingBlock: XUDNAN_clean_linker_2, # of connection points: 2
#     Edge 14, Type (0, 1), BuildingBlock: XUDNAN_clean_linker_2, # of connection points: 2
#     Edge 15, Type (0, 1), BuildingBlock: XUDNAN_clean_linker_2, # of connection points: 2
#     Edge 16, Type (0, 1), BuildingBlock: XUDNAN_clean_linker_2, # of connection points: 2
#     Edge 17, Type (0, 1), BuildingBlock: XUDNAN_clean_linker_2, # of connection points: 2
#     Edge 18, Type (0, 1), BuildingBlock: XUDNAN_clean_linker_2, # of connection points: 2
#     Edge 19, Type (0, 1), BuildingBlock: XUDNAN_clean_linker_2, # of connection points: 2
#     Edge 20, Type (0, 1), BuildingBlock: XUDNAN_clean_linker_2, # of connection points: 2
#     Edge 21, Type (0, 1), BuildingBlock: XUDNAN_clean_linker_2, # of connection points: 2
#     Edge 22, Type (0, 1), BuildingBlock: XUDNAN_clean_linker_2, # of connection points: 2
#     Edge 23, Type (0, 1), BuildingBlock: XUDNAN_clean_linker_2, # of connection points: 2
#     Edge 24, Type (0, 1), BuildingBlock: XUDNAN_clean_linker_2, # of connection points: 2
#     Edge 25, Type (0, 1), BuildingBlock: XUDNAN_clean_linker_2, # of connection points: 2
#     Edge 26, Type (0, 1), BuildingBlock: XUDNAN_clean_linker_2, # of connection points: 2
#     Edge 27, Type (0, 1), BuildingBlock: XUDNAN_clean_linker_2, # of connection points: 2
#     Edge 28, Type (0, 1), BuildingBlock: XUDNAN_clean_linker_2, # of connection points: 2
#     Edge 29, Type (0, 1), BuildingBlock: XUDNAN_clean_linker_2, # of connection points: 2
#     Edge 30, Type (0, 1), BuildingBlock: XUDNAN_clean_linker_2, # of connection points: 2
#     Edge 31, Type (0, 1), BuildingBlock: XUDNAN_clean_linker_2, # of connection points: 2
#     Edge 32, Type (0, 1), BuildingBlock: XUDNAN_clean_linker_2, # of connection points: 2
#     Edge 33, Type (0, 1), BuildingBlock: XUDNAN_clean_linker_2, # of connection points: 2
#     Edge 34, Type (0, 1), BuildingBlock: XUDNAN_clean_linker_2, # of connection points: 2
#     Edge 35, Type (0, 1), BuildingBlock: XUDNAN_clean_linker_2, # of connection points: 2
# Relax obj value: 0.096
# Max RMSD: 0.125
# Mean RMSD: 0.059
data_MOF--net-pyr--node1-BETDAH_clean_sbu_0--node2-MIDCAF_clean_linker_0--edge1-XUDNAN_clean_linker_2
_symmetry_space_group_name_H-M    P1
_symmetry_Int_Tables_number       1
_symmetry_cell_setting            triclinic
loop_
_symmetry_equiv_pos_as_xyz
'x, y, z'
_cell_length_a     45.85744
_cell_length_b     48.541443
_cell_length_c     43.768491
_cell_angle_alpha  90.77553
_cell_angle_beta   88.73921
_cell_angle_gamma 101.37944
loop_
_atom_site_label
_atom_site_type_symbol
_atom_site_fract_x
_atom_site_fract_y
_atom_site_fract_z
_atom_type_partial_charge
C0 C 0.26864 0.25939 0.28762 0.0
C1 C 0.28008 0.24031 0.30551 0.0
C2 C 0.31 0.23804 0.30107 0.0
C3 C 0.32717 0.25247 0.27741 0.0
H4 H 0.37906 0.22783 0.2129 0.0
H5 H 0.41196 0.19906 0.19132 0.0
H6 H 0.43194 0.25487 0.11451 0.0
H7 H 0.39834 0.28414 0.13604 0.0
H8 H 0.34504 0.32514 0.12481 0.0
H9 H 0.31836 0.3542 0.09482 0.0
H10 H 0.25939 0.35926 0.17227 0.0
H11 H 0.28636 0.33206 0.20208 0.0
H12 H 0.27578 0.28739 0.24981 0.0
H13 H 0.24567 0.26159 0.29018 0.0
H14 H 0.31977 0.22411 0.31501 0.0
H15 H 0.34961 0.24908 0.27354 0.0
N16 N 0.35233 0.26803 0.21745 0.0
N17 N 0.35367 0.29398 0.17231 0.0
N18 N 0.32044 0.29951 0.21248 0.0
C19 C 0.36412 0.27462 0.18912 0.0
C20 C 0.33183 0.30669 0.18414 0.0
C21 C 0.33057 0.28037 0.22932 0.0
C22 C 0.38585 0.2584 0.17616 0.0
C23 C 0.39045 0.23431 0.19147 0.0
C24 C 0.40922 0.2176 0.17905 0.0
C25 C 0.42425 0.2246 0.15117 0.0
C26 C 0.42055 0.24906 0.13611 0.0
C27 C 0.40129 0.26573 0.14838 0.0
C28 C 0.31793 0.3261 0.1659 0.0
C29 C 0.32669 0.33292 0.13548 0.0
C30 C 0.31126 0.34943 0.11823 0.0
C31 C 0.28674 0.35933 0.13107 0.0
C32 C 0.27856 0.35283 0.16164 0.0
C33 C 0.294 0.33676 0.17879 0.0
C34 C 0.3149 0.26979 0.25799 0.0
C35 C 0.28593 0.27412 0.26425 0.0
C36 C 0.20459 0.91683 0.62569 0.0
C37 C 0.2124 0.93043 0.59774 0.0
C38 C 0.23665 0.9244 0.58061 0.0
C39 C 0.25338 0.90573 0.59168 0.0
H40 H 0.30527 0.83538 0.57018 0.0
H41 H 0.34364 0.81601 0.54193 0.0
H42 H 0.40225 0.83554 0.6184 0.0
H43 H 0.36393 0.85408 0.64681 0.0
H44 H 0.32233 0.83376 0.71132 0.0
H45 H 0.32702 0.8351 0.76652 0.0
H46 H 0.25088 0.87488 0.77534 0.0
H47 H 0.24635 0.87406 0.71998 0.0
H48 H 0.21538 0.88884 0.65898 0.0
H49 H 0.18604 0.92122 0.63938 0.0
H50 H 0.24287 0.9344 0.5588 0.0
H51 H 0.27239 0.90207 0.57826 0.0
N52 N 0.2877 0.86753 0.61632 0.0
N53 N 0.3061 0.84962 0.65985 0.0
N54 N 0.26473 0.87104 0.66427 0.0
C55 C 0.30768 0.8543 0.6293 0.0
C56 C 0.28451 0.85769 0.67748 0.0
C57 C 0.26618 0.87604 0.63375 0.0
C58 C 0.3316 0.84581 0.61075 0.0
C59 C 0.32657 0.83595 0.58063 0.0
C60 C 0.34845 0.82501 0.56448 0.0
C61 C 0.37586 0.82462 0.57797 0.0
C62 C 0.38145 0.83605 0.60736 0.0
C63 C 0.35941 0.84631 0.62373 0.0
C64 C 0.28434 0.85435 0.71109 0.0
C65 C 0.30624 0.8424 0.72496 0.0
C66 C 0.30878 0.84291 0.75669 0.0
C67 C 0.28948 0.85534 0.77524 0.0
C68 C 0.26633 0.86552 0.76155 0.0
C69 C 0.26375 0.86501 0.72981 0.0
C70 C 0.24637 0.89302 0.6203 0.0
C71 C 0.22148 0.89839 0.63694 0.0
C72 C 0.64214 0.28028 0.92899 0.0
C73 C 0.62927 0.25876 0.90879 0.0
C74 C 0.62719 0.2653 0.87781 0.0
C75 C 0.6377 0.29274 0.86724 0.0
H76 H 0.62084 0.35144 0.80195 0.0
H77 H 0.59988 0.36915 0.75734 0.0
H78 H 0.65523 0.4509 0.7718 0.0
H79 H 0.67621 0.43325 0.81675 0.0
H80 H 0.72867 0.43928 0.86582 0.0
H81 H 0.77197 0.4673 0.89029 0.0
H82 H 0.77455 0.39934 0.95214 0.0
H83 H 0.73143 0.37104 0.92738 0.0
H84 H 0.66363 0.32352 0.93437 0.0
H85 H 0.64419 0.27581 0.95294 0.0
H86 H 0.61739 0.24913 0.86173 0.0
H87 H 0.63583 0.297 0.84321 0.0
N88 N 0.65231 0.35323 0.85088 0.0
N89 N 0.68741 0.39546 0.85471 0.0
N90 N 0.68753 0.35931 0.88983 0.0
C91 C 0.6637 0.37957 0.8403 0.0
C92 C 0.69962 0.38549 0.8794 0.0
C93 C 0.66393 0.34301 0.87575 0.0
C94 C 0.65047 0.39075 0.81313 0.0
C95 C 0.6286 0.37323 0.79581 0.0
C96 C 0.61661 0.3834 0.77001 0.0
C97 C 0.62591 0.4115 0.76068 0.0
C98 C 0.64733 0.42923 0.77832 0.0
C99 C 0.65954 0.41898 0.80405 0.0
C100 C 0.72621 0.40279 0.89456 0.0
C101 C 0.73837 0.4302 0.88462 0.0
C102 C 0.76325 0.44639 0.89882 0.0
C103 C 0.77686 0.43574 0.9234 0.0
C104 C 0.76495 0.40823 0.93313 0.0
C105 C 0.73997 0.39203 0.919 0.0
C106 C 0.65135 0.31416 0.88724 0.0
C107 C 0.6534 0.30755 0.91828 0.0
C108 C 0.77512 0.66021 0.44228 0.0
C109 C 0.75625 0.63824 0.42706 0.0
C110 C 0.76285 0.63236 0.39644 0.0
C111 C 0.78845 0.64762 0.38169 0.0
H112 H 0.84921 0.64598 0.30542 0.0
H113 H 0.87298 0.62595 0.26234 0.0
H114 H 0.9566 0.68052 0.28379 0.0
H115 H 0.93249 0.70138 0.32548 0.0
H116 H 0.92134 0.76426 0.35753 0.0
H117 H 0.94108 0.81171 0.37618 0.0
H118 H 0.87779 0.79944 0.45158 0.0
H119 H 0.8581 0.75184 0.43313 0.0
H120 H 0.81439 0.69235 0.44014 0.0
H121 H 0.77056 0.66516 0.46591 0.0
H122 H 0.74877 0.61538 0.38427 0.0
H123 H 0.79329 0.64225 0.35828 0.0
N124 N 0.8482 0.67432 0.35777 0.0
N125 N 0.88711 0.71401 0.35685 0.0
N126 N 0.84865 0.71083 0.39365 0.0
C127 C 0.87423 0.68838 0.34504 0.0
C128 C 0.87437 0.7255 0.3811 0.0
C129 C 0.83534 0.68533 0.3822 0.0
C130 C 0.88877 0.67562 0.31888 0.0
C131 C 0.87267 0.65378 0.30082 0.0
C132 C 0.88644 0.64208 0.27613 0.0
C133 C 0.91687 0.6516 0.26893 0.0
C134 C 0.933 0.67299 0.28763 0.0
C135 C 0.91915 0.68497 0.3119 0.0
C136 C 0.88785 0.75403 0.39353 0.0
C137 C 0.91169 0.77149 0.37821 0.0
C138 C 0.92296 0.79886 0.38888 0.0
C139 C 0.91091 0.80965 0.41533 0.0
C140 C 0.88779 0.79189 0.43128 0.0
C141 C 0.87634 0.76457 0.42048 0.0
C142 C 0.80759 0.66945 0.3971 0.0
C143 C 0.80025 0.67579 0.42744 0.0
C144 C 0.64107 0.85543 0.85375 0.0
C145 C 0.62304 0.84787 0.87979 0.0
C146 C 0.62459 0.8229 0.89496 0.0
C147 C 0.64441 0.80608 0.88463 0.0
H148 H 0.7097 0.76128 0.92073 0.0
H149 H 0.7407 0.74145 0.95583 0.0
H150 H 0.79272 0.71945 0.87897 0.0
H151 H 0.76132 0.73758 0.8444 0.0
H152 H 0.75808 0.75869 0.7829 0.0
H153 H 0.78683 0.77165 0.7367 0.0
H154 H 0.73038 0.83005 0.71523 0.0
H155 H 0.70212 0.81789 0.76266 0.0
H156 H 0.67411 0.8449 0.82298 0.0
H157 H 0.6402 0.87457 0.84166 0.0
H158 H 0.61097 0.81676 0.91522 0.0
H159 H 0.6455 0.78714 0.897 0.0
N160 N 0.69592 0.78052 0.86774 0.0
N161 N 0.72627 0.76798 0.82834 0.0
N162 N 0.69395 0.79821 0.81816 0.0
C163 C 0.71713 0.76616 0.85803 0.0
C164 C 0.71488 0.78375 0.80821 0.0
C165 C 0.68411 0.79647 0.84778 0.0
C166 C 0.73305 0.7513 0.87968 0.0
C167 C 0.7274 0.75168 0.91138 0.0
C168 C 0.74536 0.74053 0.93152 0.0
C169 C 0.76942 0.7289 0.92037 0.0
C170 C 0.77419 0.72765 0.88861 0.0
C171 C 0.75618 0.73844 0.86862 0.0
C172 C 0.72817 0.78774 0.77699 0.0
C173 C 0.75138 0.77402 0.76823 0.0
C174 C 0.76778 0.78126 0.74135 0.0
C175 C 0.76125 0.8022 0.72228 0.0
C176 C 0.73644 0.81426 0.72973 0.0
C177 C 0.72012 0.80718 0.75687 0.0
C178 C 0.66251 0.81365 0.85854 0.0
C179 C 0.66036 0.83835 0.84304 0.0
C180 C 0.74753 0.12973 0.34806 0.0
C181 C 0.7199 0.12913 0.33468 0.0
C182 C 0.70108 0.14631 0.34679 0.0
C183 C 0.70982 0.16391 0.37179 0.0
H184 H 0.67524 0.20278 0.44453 0.0
H185 H 0.63974 0.22705 0.46979 0.0
H186 H 0.70977 0.27387 0.52511 0.0
H187 H 0.74558 0.24987 0.49963 0.0
H188 H 0.80371 0.21469 0.50297 0.0
H189 H 0.85065 0.208 0.52258 0.0
H190 H 0.88266 0.19693 0.43033 0.0
H191 H 0.83462 0.20199 0.4109 0.0
H192 H 0.77798 0.14765 0.38254 0.0
H193 H 0.76253 0.11686 0.33894 0.0
H194 H 0.67956 0.14606 0.33694 0.0
H195 H 0.69484 0.17696 0.38055 0.0
N196 N 0.72703 0.19536 0.42746 0.0
N197 N 0.76429 0.21658 0.4609 0.0
N198 N 0.77591 0.18876 0.41997 0.0
C199 C 0.73544 0.21185 0.45232 0.0
C200 C 0.78466 0.20525 0.44467 0.0
C201 C 0.74715 0.18369 0.41124 0.0
C202 C 0.7134 0.22466 0.46969 0.0
C203 C 0.68312 0.21802 0.46228 0.0
C204 C 0.66265 0.23171 0.47701 0.0
C205 C 0.67202 0.25237 0.49938 0.0
C206 C 0.70201 0.25816 0.50776 0.0
C207 C 0.72249 0.24439 0.49313 0.0
C208 C 0.81529 0.20812 0.45552 0.0
C209 C 0.821 0.2115 0.48682 0.0
C210 C 0.84819 0.20788 0.49804 0.0
C211 C 0.87042 0.20132 0.47809 0.0
C212 C 0.86574 0.20108 0.44643 0.0
C213 C 0.83828 0.20409 0.43527 0.0
C214 C 0.7377 0.1649 0.38493 0.0
C215 C 0.75643 0.14756 0.37285 0.0
C216 C 0.29194 0.63386 0.18241 0.0
C217 C 0.2683 0.64632 0.17282 0.0
C218 C 0.27112 0.67555 0.17756 0.0
C219 C 0.29656 0.69159 0.19102 0.0
H220 H 0.35109 0.77159 0.18717 0.0
H221 H 0.36913 0.81577 0.16155 0.0
H222 H 0.45835 0.815 0.19056 0.0
H223 H 0.43984 0.7706 0.21739 0.0
H224 H 0.43199 0.72788 0.2864 0.0
H225 H 0.4529 0.70972 0.33092 0.0
H226 H 0.39309 0.62984 0.31932 0.0
H227 H 0.37243 0.6478 0.27459 0.0
H228 H 0.33448 0.63939 0.20371 0.0
H229 H 0.29162 0.61176 0.17854 0.0
H230 H 0.25357 0.68622 0.17132 0.0
H231 H 0.29792 0.71398 0.19413 0.0
N232 N 0.35746 0.72249 0.2051 0.0
N233 N 0.39673 0.72762 0.23967 0.0
N234 N 0.36113 0.6854 0.23761 0.0
C235 C 0.38254 0.73844 0.2169 0.0
C236 C 0.38596 0.70109 0.25042 0.0
C237 C 0.34672 0.69599 0.21504 0.0
C238 C 0.394 0.76712 0.2041 0.0
C239 C 0.37457 0.78078 0.18836 0.0
C240 C 0.38503 0.80622 0.17342 0.0
C241 C 0.41543 0.81888 0.17319 0.0
C242 C 0.4348 0.80599 0.19014 0.0
C243 C 0.42419 0.78044 0.20549 0.0
C244 C 0.40026 0.68951 0.2767 0.0
C245 C 0.42337 0.70637 0.29311 0.0
C246 C 0.43529 0.69594 0.31889 0.0
C247 C 0.42462 0.66826 0.32912 0.0
C248 C 0.40213 0.65115 0.31219 0.0
C249 C 0.3901 0.66161 0.2865 0.0
C250 C 0.31963 0.67886 0.20103 0.0
C251 C 0.3169 0.64978 0.19673 0.0
C252 C 0.1493 0.27808 0.68808 0.0
C253 C 0.11836 0.26914 0.69161 0.0
C254 C 0.10256 0.28571 0.70967 0.0
C255 C 0.11715 0.31097 0.72312 0.0
H256 H 0.11249 0.37034 0.79799 0.0
H257 H 0.08986 0.39745 0.83657 0.0
H258 H 0.16245 0.46788 0.82338 0.0
H259 H 0.18497 0.44135 0.7854 0.0
H260 H 0.23531 0.4407 0.73928 0.0
H261 H 0.281 0.46522 0.71493 0.0
H262 H 0.28013 0.39509 0.65304 0.0
H263 H 0.23382 0.37049 0.67718 0.0
H264 H 0.18756 0.31026 0.69705 0.0
H265 H 0.16206 0.26596 0.67411 0.0
H266 H 0.07869 0.27939 0.71285 0.0
H267 H 0.10408 0.32341 0.73627 0.0
N268 N 0.15049 0.36224 0.75313 0.0
N269 N 0.18987 0.40117 0.74902 0.0
N270 N 0.18897 0.36226 0.71654 0.0
C271 C 0.16398 0.38838 0.76298 0.0
C272 C 0.20257 0.38844 0.72581 0.0
C273 C 0.16297 0.34894 0.72999 0.0
C274 C 0.15051 0.40361 0.78805 0.0
C275 C 0.12378 0.39153 0.80351 0.0
C276 C 0.11087 0.40697 0.82582 0.0
C277 C 0.12424 0.43491 0.83296 0.0
C278 C 0.15138 0.44652 0.81828 0.0
C279 C 0.16431 0.43118 0.79633 0.0
C280 C 0.23071 0.40338 0.71048 0.0
C281 C 0.24469 0.43035 0.72049 0.0
C282 C 0.27112 0.44446 0.70654 0.0
C283 C 0.28457 0.43214 0.68208 0.0
C284 C 0.27039 0.40537 0.67164 0.0
C285 C 0.24387 0.39115 0.68569 0.0
C286 C 0.14789 0.32067 0.71839 0.0
C287 C 0.16383 0.30364 0.70105 0.0
Ho288 Ho 0.02313 0.06115 0.51278 0.0
Ho289 Ho 1.00918 1.02927 0.57281 0.0
C290 C 0.03842 0.09436 0.57558 0.0
C291 C 0.02976 0.08627 0.46088 0.0
C292 C 0.05716 0.10164 0.44606 0.0
C293 C 0.05658 0.1234 0.42547 0.0
C294 C 0.08296 0.13698 0.41086 0.0
C295 C 0.11012 0.12885 0.41674 0.0
C296 C 0.11055 0.10763 0.43806 0.0
C297 C 0.08441 0.09412 0.45239 0.0
C298 C 0.07013 0.04502 0.53855 0.0
C299 C 0.98555 0.99684 0.50987 0.0
C300 C 1.00132 0.99202 0.61524 0.0
C301 C 0.97772 0.96679 0.61773 0.0
C302 C 0.98217 0.94315 0.63365 0.0
C303 C 0.95899 0.91969 0.63662 0.0
C304 C 0.93114 0.91983 0.62386 0.0
C305 C 0.92718 0.94312 0.607 0.0
C306 C 0.95032 0.9663 0.60378 0.0
C307 C 0.96998 0.06163 0.55826 0.0
O308 O 0.02726 0.09542 0.54807 0.0
O309 O 0.03989 0.0698 0.58811 0.0
O310 O 0.02882 0.05934 0.4639 0.0
O311 O 0.02079 0.09782 0.48569 0.0
O312 O 0.072 0.06796 0.52352 0.0
O313 O 0.04406 1.0312 0.53746 0.0
O314 O 0.98586 0.99583 0.54009 0.0
O315 O 0.99766 1.01989 0.49483 0.0
O316 O 0.99222 1.01581 0.61772 0.0
O317 O 0.02033 0.99199 0.59261 0.0
O318 O 0.97678 0.05676 0.58595 0.0
O319 O 0.98249 0.04721 0.53996 0.0
H320 H 0.03576 0.12956 0.42038 0.0
H321 H 0.082 0.15325 0.39443 0.0
H322 H 0.13115 0.10124 0.44355 0.0
H323 H 0.08553 0.07734 0.46804 0.0
H324 H 1.0033 0.94305 0.6442 0.0
H325 H 0.96242 0.90195 0.64987 0.0
H326 H 0.90597 0.94357 0.59679 0.0
H327 H 0.94656 0.98416 0.59092 0.0
Ho328 Ho 0.55371 1.03221 0.03801 0.0
Ho329 Ho 0.49232 1.02987 1.01478 0.0
C330 C 0.51335 0.07033 0.07021 0.0
C331 C 0.6091 0.03683 0.05079 0.0
C332 C 0.62553 0.03904 0.07948 0.0
C333 C 0.64975 0.06132 0.08353 0.0
C334 C 0.66356 0.06571 0.11176 0.0
C335 C 0.65351 0.0477 0.13628 0.0
C336 C 0.63009 1.02467 0.13185 0.0
C337 C 0.61606 1.02047 0.10371 0.0
C338 C 0.51 0.9953 0.06823 0.0
C339 C 0.5342 0.99344 0.97955 0.0
C340 C 0.43764 1.01743 0.99813 0.0
C341 C 0.41737 0.9929 0.98574 0.0
C342 C 0.42785 0.96884 0.9763 0.0
C343 C 0.40892 0.94684 0.96155 0.0
C344 C 0.37919 0.94856 0.95618 0.0
C345 C 0.36845 0.9721 0.9673 0.0
C346 C 0.38746 0.99413 0.98186 0.0
C347 C 0.53243 0.07652 0.99734 0.0
O348 O 0.54082 0.06955 0.06125 0.0
O349 O 0.49075 0.05134 0.06036 0.0
O350 O 0.59142 1.01275 0.04513 0.0
O351 O 0.59709 0.0584 0.04461 0.0
O352 O 0.53276 1.01053 0.08137 0.0
O353 O 0.51234 0.99997 0.04005 0.0
O354 O 0.50654 0.99624 0.98538 0.0
O355 O 0.55679 1.00843 0.99429 0.0
O356 O 0.45966 1.02879 0.9799 0.0
O357 O 0.44582 1.01538 1.02636 0.0
O358 O 0.50491 0.07629 1.00458 0.0
O359 O 0.53706 0.05176 0.99834 0.0
H360 H 0.65737 0.07586 0.06514 0.0
H361 H 0.68172 0.08351 0.11463 0.0
H362 H 0.62177 1.01069 0.15052 0.0
H363 H 0.59724 1.00321 0.10129 0.0
H364 H 0.45086 0.9675 0.97941 0.0
H365 H 0.41799 0.92917 0.95304 0.0
H366 H 0.34556 0.97385 0.96395 0.0
H367 H 0.379 1.0125 0.98931 0.0
Ho368 Ho 0.51449 0.51421 0.52506 0.0
Ho369 Ho 0.52168 0.56027 0.57051 0.0
C370 C 0.5428 0.50587 0.59222 0.0
C371 C 0.52291 0.47278 0.49062 0.0
C372 C 0.53545 0.44783 0.49663 0.0
C373 C 0.56056 0.44979 0.51494 0.0
C374 C 0.57131 0.42576 0.522 0.0
C375 C 0.55724 0.39933 0.5108 0.0
C376 C 0.5321 0.39742 0.49245 0.0
C377 C 0.52129 0.42151 0.48546 0.0
C378 C 0.46548 0.51409 0.56123 0.0
C379 C 0.49536 0.56917 0.50221 0.0
C380 C 0.51251 0.60147 0.60476 0.0
C381 C 0.50115 0.62679 0.59731 0.0
C382 C 0.47831 0.62536 0.57616 0.0
C383 C 0.46966 0.64976 0.5666 0.0
C384 C 0.48336 0.67612 0.57832 0.0
C385 C 0.50584 0.67743 0.60001 0.0
C386 C 0.51476 0.65296 0.60929 0.0
C387 C 0.57201 0.55815 0.53861 0.0
O388 O 0.54018 0.49829 0.56297 0.0
O389 O 0.53374 0.52859 0.60233 0.0
O390 O 0.49761 0.47351 0.50454 0.0
O391 O 0.54145 0.49697 0.49165 0.0
O392 O 0.46449 0.50818 0.53222 0.0
O393 O 0.49219 0.51908 0.56936 0.0
O394 O 0.49881 0.57741 0.53116 0.0
O395 O 0.50215 0.54527 0.49284 0.0
O396 O 0.53852 0.60022 0.59265 0.0
O397 O 0.49351 0.57759 0.60259 0.0
O398 O 0.57085 0.56364 0.56763 0.0
O399 O 0.54629 0.55489 0.52732 0.0
H400 H 0.57176 0.46984 0.5241 0.0
H401 H 0.5905 0.42786 0.53647 0.0
H402 H 0.52107 0.37739 0.4831 0.0
H403 H 0.5018 0.41959 0.47143 0.0
H404 H 0.46746 0.60544 0.56645 0.0
H405 H 0.45257 0.64792 0.54959 0.0
H406 H 0.51643 0.69731 0.61003 0.0
H407 H 0.5325 0.65449 0.62555 0.0
Ho408 Ho 0.02052 0.5131 0.06017 0.0
Ho409 Ho 0.02127 0.57579 0.03995 0.0
C410 C 0.08052 0.5623 0.06901 0.0
C411 C 0.03503 0.46528 0.06963 0.0
C412 C 0.06365 0.45579 0.06907 0.0
C413 C 0.0857 0.46544 0.04675 0.0
C414 C 0.11292 0.45656 0.04681 0.0
C415 C 0.11883 0.43858 0.06971 0.0
C416 C 0.09698 0.42935 0.09232 0.0
C417 C 0.06953 0.43774 0.09186 0.0
C418 C 0.99743 0.54668 0.10042 0.0
C419 C 0.96383 0.52486 1.02526 0.0
C420 C 1.00777 0.62501 0.04185 0.0
C421 C 0.98606 0.63879 1.02712 0.0
C422 C 0.96185 0.62275 1.01183 0.0
C423 C 0.93835 0.63501 1.00274 0.0
C424 C 0.93885 0.66374 1.00834 0.0
C425 C 0.9641 0.68004 1.02212 0.0
C426 C 0.98736 0.6676 1.03165 0.0
C427 C 0.0393 0.54607 0.99204 0.0
O428 O 0.06853 0.53517 0.06577 0.0
O429 O 0.06586 0.58242 0.0625 0.0
O430 O 0.03148 0.48286 0.09167 0.0
O431 O 0.02559 0.47225 0.04332 0.0
O432 O 0.98681 0.51989 0.0974 0.0
O433 O 0.01986 0.55329 0.08301 0.0
O434 O 0.97468 0.55219 1.02898 0.0
O435 O 0.97862 0.50532 1.03321 0.0
O436 O 0.02967 0.61915 1.02478 0.0
O437 O 0.99586 0.60437 0.0599 0.0
O438 O 0.03736 0.57241 0.99111 0.0
O439 O 0.0314 0.5375 1.01866 0.0
H440 H 0.08199 0.47999 1.02941 0.0
H441 H 0.12957 0.46415 1.02935 0.0
H442 H 0.10107 0.41541 0.11016 0.0
H443 H 0.05296 0.4303 0.10945 0.0
H444 H 0.96053 0.60047 1.0081 0.0
H445 H 0.9193 0.62161 0.99251 0.0
H446 H 0.9657 0.70235 1.02612 0.0
H447 H 1.00591 0.68031 0.04345 0.0
H448 H 0.23314 0.2504 0.34185 0.0
H449 H 0.28027 0.18462 0.31357 0.0
H450 H 0.24321 0.14986 0.34114 0.0
H451 H 0.20751 0.22122 0.41749 0.0
H452 H 0.17189 0.23133 0.41479 0.0
H453 H 0.2042 0.25186 0.39603 0.0
H454 H 0.17657 0.24569 0.34463 0.0
H455 H 0.14435 0.22484 0.3631 0.0
H456 H 0.16158 0.21079 0.3306 0.0
H457 H 0.19903 0.12147 0.36666 0.0
H458 H 0.15138 0.1012 0.39207 0.0
H459 H 0.13169 0.18469 0.40362 0.0
C460 C 0.2359 0.22875 0.34178 0.0
C461 C 0.25989 0.22039 0.32571 0.0
C462 C 0.26262 0.19181 0.32627 0.0
C463 C 0.24148 0.17178 0.34164 0.0
C464 C 0.21771 0.1806 0.35638 0.0
C465 C 0.21487 0.2084 0.35689 0.0
C466 C 0.18626 0.21191 0.37312 0.0
C467 C 0.19287 0.23016 0.40208 0.0
C468 C 0.166 0.22402 0.35157 0.0
C469 C 0.17321 0.18163 0.38099 0.0
C470 C 0.19187 0.16401 0.37122 0.0
C471 C 0.18442 0.13506 0.37489 0.0
C472 C 0.15733 0.12377 0.3894 0.0
C473 C 0.138 0.1414 0.40016 0.0
C474 C 0.14599 0.17071 0.39561 0.0
H475 H 0.28955 0.90423 0.80616 0.0
H476 H 0.30614 0.82009 0.81748 0.0
H477 H 0.32509 0.83315 0.86928 0.0
H478 H 0.35363 0.93858 0.83741 0.0
H479 H 0.33834 0.96618 0.85577 0.0
H480 H 0.32104 0.94877 0.82245 0.0
H481 H 0.27081 0.9357 0.85226 0.0
H482 H 0.28796 0.95332 0.88575 0.0
H483 H 0.26914 0.91708 0.88781 0.0
H484 H 0.3487 0.85757 0.91654 0.0
H485 H 0.37469 0.89106 0.95486 0.0
H486 H 0.34274 0.95887 0.91123 0.0
C487 C 0.29597 0.88816 0.81999 0.0
C488 C 0.29602 0.86105 0.80799 0.0
C489 C 0.30583 0.84098 0.82634 0.0
C490 C 0.31647 0.84816 0.85581 0.0
C491 C 0.31695 0.87542 0.86657 0.0
C492 C 0.30671 0.89502 0.84925 0.0
C493 C 0.31267 0.92372 0.8643 0.0
C494 C 0.33261 0.94557 0.84376 0.0
C495 C 0.2834 0.93299 0.87305 0.0
C496 C 0.32884 0.91752 0.8923 0.0
C497 C 0.33075 0.8895 0.89355 0.0
C498 C 0.34687 0.87945 0.91609 0.0
C499 C 0.36172 0.89864 0.9376 0.0
C500 C 0.36051 0.92754 0.93622 0.0
C501 C 0.34338 0.93682 0.91353 0.0
H502 H 0.60876 0.46251 0.75038 0.0
H503 H 0.61626 0.38371 0.70582 0.0
H504 H 0.59628 0.39936 0.65868 0.0
H505 H 0.53987 0.46933 0.71571 0.0
H506 H 0.55001 0.50692 0.71158 0.0
H507 H 0.56538 0.4899 0.74194 0.0
H508 H 0.61864 0.51214 0.72311 0.0
H509 H 0.60342 0.52926 0.69272 0.0
H510 H 0.62955 0.50684 0.68398 0.0
H511 H 0.57555 0.42333 0.61599 0.0
H512 H 0.55463 0.45351 0.58124 0.0
H513 H 0.5598 0.51726 0.65249 0.0
C514 C 0.60639 0.44862 0.73064 0.0
C515 C 0.61404 0.4217 0.73208 0.0
C516 C 0.61023 0.40418 0.70567 0.0
C517 C 0.59903 0.41298 0.67862 0.0
C518 C 0.59154 0.43944 0.67806 0.0
C519 C 0.59499 0.45703 0.70335 0.0
C520 C 0.58472 0.48428 0.6966 0.0
C521 C 0.55843 0.48781 0.71771 0.0
C522 C 0.61063 0.50963 0.69926 0.0
C523 C 0.57502 0.47923 0.66361 0.0
C524 C 0.5793 0.45323 0.6534 0.0
C525 C 0.57216 0.44374 0.62378 0.0
C526 C 0.56035 0.46117 0.60407 0.0
C527 C 0.55559 0.48794 0.61383 0.0
C528 C 0.56306 0.49695 0.64418 0.0
H529 H 0.90515 0.59736 0.24307 0.0
H530 H 0.96221 0.67966 0.232 0.0
H531 H 0.98843 0.66132 0.18931 0.0
H532 H 0.95973 0.55584 0.22418 0.0
H533 H 0.93489 0.52958 0.20268 0.0
H534 H 0.92041 0.54865 0.23315 0.0
H535 H 0.88405 0.56439 0.19576 0.0
H536 H 0.89834 0.54527 0.16519 0.0
H537 H 0.89845 0.58219 0.16109 0.0
H538 H 1.01045 0.63419 0.1493 0.0
H539 H 0.02431 0.60078 0.11158 0.0
H540 H 0.95093 0.53638 0.14372 0.0
C541 C 0.92294 0.6117 0.23158 0.0
C542 C 0.93176 0.64006 0.24183 0.0
C543 C 0.95538 0.65773 0.22577 0.0
C544 C 0.97036 0.64755 0.2011 0.0
C545 C 0.9614 0.61962 0.19201 0.0
C546 C 0.93801 0.60196 0.20642 0.0
C547 C 0.93267 0.57291 0.19135 0.0
C548 C 0.9372 0.55042 0.21421 0.0
C549 C 0.90153 0.56578 0.17753 0.0
C550 C 0.95687 0.57705 0.16646 0.0
C551 C 0.97324 0.60418 0.16755 0.0
C552 C 0.99748 0.61304 0.1479 0.0
C553 C 1.0051 0.59385 0.12638 0.0
C554 C 0.98831 0.5661 0.12397 0.0
C555 C 0.96392 0.55757 0.14455 0.0
H556 H 0.40896 0.16788 0.14288 0.0
H557 H 0.4819 0.23881 0.12982 0.0
H558 H 0.51407 0.20641 0.11095 0.0
H559 H 0.45186 0.11847 0.16837 0.0
H560 H 0.43008 0.08908 0.14827 0.0
H561 H 0.41316 0.11776 0.16117 0.0
H562 H 0.39676 0.12485 0.10599 0.0
H563 H 0.41327 0.09597 0.09302 0.0
H564 H 0.4242 0.12988 0.07539 0.0
H565 H 0.53823 0.16581 0.09445 0.0
H566 H 0.55098 0.12132 0.076 0.0
H567 H 0.4614 0.07729 0.09877 0.0
C568 C 0.43175 0.17656 0.13611 0.0
C569 C 0.44312 0.20577 0.13795 0.0
C570 C 0.47283 0.21648 0.12843 0.0
C571 C 0.49126 0.19823 0.11796 0.0
C572 C 0.47946 0.16944 0.11693 0.0
C573 C 0.45025 0.15874 0.12535 0.0
C574 C 0.44251 0.12718 0.12091 0.0
C575 C 0.4339 0.11225 0.15151 0.0
C576 C 0.41773 0.119 0.09742 0.0
C577 C 0.47194 0.12169 0.10861 0.0
C578 C 0.49309 0.14626 0.10683 0.0
C579 C 0.52186 0.14645 0.09582 0.0
C580 C 0.52894 0.12099 0.08561 0.0
C581 C 0.50723 0.09575 0.08612 0.0
C582 C 0.47854 0.09616 0.09828 0.0
H583 H 0.15212 0.92597 0.59558 0.0
H584 H 0.23589 0.98286 0.57637 0.0
H585 H 0.20856 1.01923 0.56045 0.0
H586 H 0.11297 0.94595 0.53201 0.0
H587 H 0.07811 0.94264 0.55283 0.0
H588 H 0.10441 0.92142 0.56303 0.0
H589 H 0.10398 0.94028 0.61874 0.0
H590 H 0.07784 0.96172 0.60859 0.0
H591 H 0.11255 0.97766 0.62578 0.0
H592 H 0.17205 0.04952 0.54747 0.0
H593 H 0.12872 0.07047 0.53516 0.0
H594 H 0.06935 0.99308 0.56162 0.0
C595 C 0.16466 0.94614 0.58812 0.0
C596 C 0.19604 0.95172 0.58718 0.0
C597 C 0.21179 0.97816 0.57694 0.0
C598 C 0.1965 0.99896 0.56809 0.0
C599 C 0.16553 0.99286 0.5695 0.0
C600 C 0.14978 0.96701 0.57901 0.0
C601 C 0.11659 0.9655 0.57763 0.0
C602 C 0.10219 0.94252 0.55502 0.0
C603 C 0.10189 0.96103 0.60959 0.0
C604 C 0.11615 0.99453 0.56589 0.0
C605 C 0.14457 1.0101 0.56156 0.0
C606 C 0.14968 0.03754 0.55075 0.0
C607 C 0.12502 0.04926 0.54388 0.0
C608 C 0.09581 1.03339 0.54768 0.0
C609 C 0.09142 1.00579 0.55894 0.0
H610 H 0.82759 0.42011 0.94549 0.0
H611 H 0.78506 0.49199 0.93745 0.0
H612 H 0.82758 0.52194 0.96275 0.0
H613 H 0.85881 0.43849 1.02031 0.0
H614 H 0.89287 0.4265 1.01163 0.0
H615 H 0.85905 0.41047 0.9929 0.0
H616 H 0.88504 0.42169 0.94015 0.0
H617 H 0.91893 0.43775 0.95872 0.0
H618 H 0.90257 0.4574 0.93145 0.0
H619 H 0.87475 0.54444 0.98895 0.0
H620 H 0.92334 0.55792 1.01352 0.0
H621 H 0.93606 0.4718 1.0052 0.0
C622 C 0.82707 0.4421 0.94926 0.0
C623 C 0.80281 0.4536 0.93918 0.0
C624 C 0.80341 0.48262 0.94437 0.0
C625 C 0.82744 0.49984 0.95897 0.0
C626 C 0.85094 0.48788 0.96843 0.0
C627 C 0.85101 0.45968 0.9638 0.0
C628 C 0.87932 0.45228 0.97595 0.0
C629 C 0.87207 0.43065 1.00173 0.0
C630 C 0.89754 0.44165 0.95002 0.0
C631 C 0.8951 0.4807 0.98811 0.0
C632 C 0.87826 0.50091 0.98354 0.0
C633 C 0.88812 0.52877 0.99259 0.0
C634 C 0.91593 0.53626 1.0065 0.0
C635 C 0.93387 0.51607 1.01131 0.0
C636 C 0.92302 0.48783 1.00204 0.0
H637 H 0.69582 0.62876 0.41556 0.0
H638 H 0.76042 0.60825 0.47785 0.0
H639 H 0.71982 0.5809 0.50936 0.0
H640 H 0.64366 0.63987 0.47273 0.0
H641 H 0.61095 0.62509 0.45146 0.0
H642 H 0.64496 0.64025 0.43153 0.0
H643 H 0.64328 0.59361 0.4016 0.0
H644 H 0.60924 0.57828 0.42155 0.0
H645 H 0.64083 0.56133 0.42228 0.0
H646 H 0.67327 0.55945 0.53643 0.0
H647 H 0.62288 0.54652 0.55916 0.0
H648 H 0.58644 0.58041 0.48063 0.0
C649 C 0.70128 0.61797 0.43551 0.0
C650 C 0.73127 0.62036 0.44421 0.0
C651 C 0.73763 0.60658 0.47081 0.0
C652 C 0.71471 0.59091 0.48875 0.0
C653 C 0.6854 0.58923 0.47992 0.0
C654 C 0.67847 0.6024 0.45401 0.0
C655 C 0.64487 0.59899 0.45132 0.0
C656 C 0.63557 0.62776 0.4518 0.0
C657 C 0.63391 0.58204 0.42247 0.0
C658 C 0.63413 0.58244 0.48011 0.0
C659 C 0.65804 0.57681 0.49594 0.0
C660 C 0.65435 0.5634 0.52407 0.0
C661 C 0.62563 0.55613 0.5368 0.0
C662 C 0.60077 0.56213 0.52153 0.0
C663 C 0.60498 0.57495 0.49244 0.0
H664 H 0.2589 0.40185 0.15044 0.0
H665 H 0.27152 0.35123 0.0705 0.0
H666 H 0.23414 0.37138 0.0433 0.0
H667 H 0.18271 0.38796 0.1476 0.0
H668 H 0.17784 0.42203 0.16113 0.0
H669 H 0.21008 0.40881 0.17181 0.0
H670 H 0.24449 0.45328 0.14985 0.0
H671 H 0.21228 0.46681 0.13928 0.0
H672 H 0.24034 0.46314 0.11086 0.0
H673 H 0.19076 0.39275 1.02707 0.0
H674 H 0.1446 0.41192 1.0242 0.0
H675 H 0.1576 0.44428 0.11666 0.0
C676 C 0.2542 0.39518 0.12706 0.0
C677 C 0.26826 0.37484 0.11272 0.0
C678 C 0.26155 0.36711 0.08193 0.0
C679 C 0.24017 0.37835 0.06631 0.0
C680 C 0.22569 0.39727 0.08177 0.0
C681 C 0.23253 0.40565 0.11149 0.0
C682 C 0.21147 0.42342 0.12446 0.0
C683 C 0.19453 0.40972 0.15292 0.0
C684 C 0.22814 0.45345 0.13152 0.0
C685 C 0.19099 0.42296 0.09779 0.0
C686 C 0.19994 0.40839 0.07307 0.0
C687 C 0.18376 0.40442 0.04619 0.0
C688 C 0.15763 0.41533 0.04474 0.0
C689 C 0.1477 0.42942 0.07025 0.0
C690 C 0.1648 0.43352 0.0969 0.0
H691 H 0.58698 0.23886 0.95326 0.0
H692 H 0.64887 0.21216 0.8885 0.0
H693 H 0.6331 0.16309 0.90614 0.0
H694 H 0.5938 0.19043 1.01443 0.0
H695 H 0.55474 0.1838 1.02453 0.0
H696 H 0.57221 0.21708 1.00836 0.0
H697 H 0.53347 0.21017 0.96534 0.0
H698 H 0.51581 0.17699 0.9815 0.0
H699 H 0.5284 0.17868 0.94213 0.0
H700 H 0.61094 0.11669 0.93168 0.0
H701 H 0.58026 0.07613 0.95867 0.0
H702 H 0.52994 0.13221 1.00395 0.0
C703 C 0.59731 0.22266 0.94302 0.0
C704 C 0.61934 0.22931 0.91965 0.0
C705 C 0.632 0.20749 0.90641 0.0
C706 C 0.62327 0.1796 0.91641 0.0
C707 C 0.60148 0.17367 0.93944 0.0
C708 C 0.58837 0.19453 0.95232 0.0
C709 C 0.56412 0.18222 0.97532 0.0
C710 C 0.57168 0.19409 1.00757 0.0
C711 C 0.53365 0.18732 0.96547 0.0
C712 C 0.56558 0.15125 0.97329 0.0
C713 C 0.58764 0.1468 0.95287 0.0
C714 C 0.5935 0.11995 0.94756 0.0
C715 C 0.57604 0.09703 0.96306 0.0
C716 C 0.5526 0.10098 0.98318 0.0
C717 C 0.54758 0.12853 0.98849 0.0
H718 H 0.92192 0.83224 0.47397 0.0
H719 H 0.92304 0.85563 0.37849 0.0
H720 H 0.94002 0.90531 0.3929 0.0
H721 H 0.89627 0.89388 0.50508 0.0
H722 H 0.91958 0.89711 0.53809 0.0
H723 H 0.90663 0.86311 0.52079 0.0
H724 H 0.96098 0.85618 0.51445 0.0
H725 H 0.97399 0.89011 0.53181 0.0
H726 H 0.98786 0.88226 0.4945 0.0
H727 H 0.95728 0.95229 0.41678 0.0
H728 H 0.9759 0.9939 0.44848 0.0
H729 H 0.96459 0.94181 0.52952 0.0
C730 C 0.92555 0.84785 0.45613 0.0
C731 C 0.92125 0.83978 0.42493 0.0
C732 C 0.92657 0.86099 0.4024 0.0
C733 C 0.93601 0.88939 0.4104 0.0
C734 C 0.94017 0.89659 0.44115 0.0
C735 C 0.93524 0.87652 0.46375 0.0
C736 C 0.9424 0.89019 0.49501 0.0
C737 C 0.91456 0.88581 0.51598 0.0
C738 C 0.96782 0.87902 0.50981 0.0
C739 C 0.9522 0.92098 0.4863 0.0
C740 C 0.95049 0.92404 0.45509 0.0
C741 C 0.95867 0.95016 0.44125 0.0
C742 C 0.96927 0.97377 0.45959 0.0
C743 C 0.97182 0.97142 0.49167 0.0
C744 C 0.96279 0.94452 0.50516 0.0
H745 H 0.36333 0.76997 0.56146 0.0
H746 H 0.4355 0.84217 0.56676 0.0
H747 H 0.47184 0.81139 0.55716 0.0
H748 H 0.39405 0.72931 0.60499 0.0
H749 H 0.38113 0.69629 0.58562 0.0
H750 H 0.36065 0.724 0.58287 0.0
H751 H 0.36487 0.7224 0.52377 0.0
H752 H 0.38502 0.69416 0.52625 0.0
H753 H 0.40095 0.72551 0.50543 0.0
H754 H 0.49995 0.77242 0.5579 0.0
H755 H 0.5176 0.72875 0.56863 0.0
H756 H 0.42653 0.68215 0.56691 0.0
C757 C 0.3867 0.77939 0.55883 0.0
C758 C 0.39676 0.80835 0.56411 0.0
C759 C 0.42753 0.82001 0.56217 0.0
C760 C 0.44823 0.80269 0.55669 0.0
C761 C 0.4377 0.77385 0.55331 0.0
C762 C 0.40756 0.76231 0.55399 0.0
C763 C 0.40204 0.73057 0.55531 0.0
C764 C 0.3834 0.71943 0.58389 0.0
C765 C 0.38736 0.71739 0.52593 0.0
C766 C 0.43365 0.72616 0.55722 0.0
C767 C 0.45395 0.75123 0.55511 0.0
C768 C 0.48429 0.75259 0.55901 0.0
C769 C 0.49405 0.72773 0.56552 0.0
C770 C 0.47346 0.70196 0.56867 0.0
C771 C 0.44297 0.70129 0.56391 0.0
H772 H 0.77844 0.85729 0.70592 0.0
H773 H 0.79369 0.77383 0.68346 0.0
H774 H 0.8369 0.79484 0.65109 0.0
H775 H 0.80241 0.88897 0.62887 0.0
H776 H 0.81864 0.92205 0.64651 0.0
H777 H 0.78634 0.90009 0.66376 0.0
H778 H 0.81469 0.90088 0.71442 0.0
H779 H 0.84719 0.92231 0.6973 0.0
H780 H 0.84972 0.88931 0.71438 0.0
H781 H 0.88356 0.82537 0.62915 0.0
H782 H 0.92649 0.86305 0.61484 0.0
H783 H 0.87834 0.92574 0.64912 0.0
C784 C 0.78992 0.84325 0.69318 0.0
C785 C 0.78264 0.81387 0.69744 0.0
C786 C 0.79904 0.79644 0.68095 0.0
C787 C 0.82353 0.80816 0.66233 0.0
C788 C 0.83092 0.8373 0.65987 0.0
C789 C 0.81412 0.85456 0.67427 0.0
C790 C 0.8279 0.88525 0.66994 0.0
C791 C 0.80762 0.89995 0.65114 0.0
C792 C 0.83531 0.90029 0.70084 0.0
C793 C 0.85578 0.88258 0.65205 0.0
C794 C 0.85716 0.8548 0.64627 0.0
C795 C 0.88235 0.84721 0.63279 0.0
C796 C 0.90665 0.86863 0.62496 0.0
C797 C 0.90534 0.89712 0.63052 0.0
C798 C 0.87949 0.90408 0.64392 0.0
H799 H 0.69794 0.14497 0.28188 0.0
H800 H 0.72272 0.07371 0.32594 0.0
H801 H 0.70883 0.04463 0.27957 0.0
H802 H 0.63458 0.10644 0.24226 0.0
H803 H 0.64167 0.12805 0.2087 0.0
H804 H 0.65314 0.1427 0.24555 0.0
H805 H 0.70723 0.1578 0.22468 0.0
H806 H 0.69598 0.14304 0.18782 0.0
H807 H 0.72572 0.13182 0.2074 0.0
H808 H 0.69108 1.02334 0.22845 0.0
H809 H 0.67249 1.01206 0.17607 0.0
H810 H 0.66101 0.098 0.16597 0.0
C811 C 0.70016 0.12317 0.28185 0.0
C812 C 0.71118 0.11144 0.3074 0.0
C813 C 0.71437 0.08301 0.30643 0.0
C814 C 0.70647 0.06638 0.2803 0.0
C815 C 0.69571 0.07865 0.25541 0.0
C816 C 0.69267 0.10643 0.25597 0.0
C817 C 0.68113 0.11482 0.22615 0.0
C818 C 0.65083 0.1235 0.23096 0.0
C819 C 0.70388 0.13825 0.2106 0.0
C820 C 0.67808 0.08742 0.20865 0.0
C821 C 0.6864 0.06671 0.2259 0.0
C822 C 0.68468 0.03943 0.21467 0.0
C823 C 0.67409 1.0332 0.18502 0.0
C824 C 0.66574 0.05428 0.16703 0.0
C825 C 0.66785 0.08167 0.17906 0.0
H826 H 0.43628 0.61525 0.34158 0.0
H827 H 0.43825 0.69744 0.3828 0.0
H828 H 0.45615 0.68104 0.43065 0.0
H829 H 0.41077 0.57475 0.40934 0.0
H830 H 0.43339 0.54886 0.40193 0.0
H831 H 0.42087 0.56694 0.3706 0.0
H832 H 0.47534 0.58316 0.35162 0.0
H833 H 0.48803 0.56512 0.38288 0.0
H834 H 0.50255 0.60205 0.37738 0.0
H835 H 0.47347 0.65577 0.47466 0.0
H836 H 0.49017 0.62396 0.51083 0.0
H837 H 0.4771 0.5575 0.44226 0.0
C838 C 0.44034 0.6298 0.36069 0.0
C839 C 0.43592 0.65786 0.35804 0.0
C840 C 0.44186 0.67609 0.38374 0.0
C841 C 0.45187 0.66688 0.41124 0.0
C842 C 0.45601 0.63925 0.41301 0.0
C843 C 0.45054 0.62095 0.38841 0.0
C844 C 0.4571 0.59236 0.39645 0.0
C845 C 0.42885 0.56937 0.39446 0.0
C846 C 0.48225 0.58526 0.37585 0.0
C847 C 0.46703 0.59744 0.42938 0.0
C848 C 0.4661 0.62465 0.43844 0.0
C849 C 0.47417 0.63441 0.46777 0.0
C850 C 0.48348 0.61603 0.48834 0.0
C851 C 0.48474 0.58798 0.4798 0.0
C852 C 0.47639 0.57872 0.44972 0.0
H853 H 0.10027 0.42536 0.89234 0.0
H854 H 0.11422 0.48634 0.8192 0.0
H855 H 0.09257 0.51919 0.85161 0.0
H856 H 0.02939 0.44219 0.9219 0.0
H857 H 0.03784 0.43823 0.96144 0.0
H858 H 0.05286 0.41817 0.9322 0.0
H859 H 0.1064 0.438 0.95063 0.0
H860 H 0.09099 0.45731 0.98012 0.0
H861 H 0.11889 0.47553 0.95396 0.0
H862 H 0.07165 0.54621 0.89091 0.0
H863 H 0.05229 0.56728 0.93612 0.0
H864 H 0.05086 0.49082 0.98704 0.0
C865 C 0.09836 0.44551 0.88314 0.0
C866 C 0.10912 0.45329 0.8531 0.0
C867 C 0.10648 0.47996 0.84208 0.0
C868 C 0.09407 0.49876 0.86032 0.0
C869 C 0.08423 0.4908 0.88981 0.0
C870 C 0.08608 0.46489 0.90135 0.0
C871 C 0.07459 0.46255 0.93449 0.0
C872 C 0.04703 0.43887 0.93769 0.0
C873 C 0.09921 0.45811 0.95607 0.0
C874 C 0.06644 0.49134 0.93968 0.0
C875 C 0.07211 0.50696 0.91327 0.0
C876 C 0.06702 0.53418 0.9117 0.0
C877 C 0.05597 0.54599 0.93771 0.0
C878 C 0.05 0.53089 0.96539 0.0
C879 C 0.05516 0.50296 0.96632 0.0
H880 H 0.63914 0.90327 0.89508 0.0
H881 H 0.56313 0.83436 0.89169 0.0
H882 H 0.5306 0.8659 0.91187 0.0
H883 H 0.61908 0.93087 0.96584 0.0
H884 H 0.63294 0.96705 0.95582 0.0
H885 H 0.64921 0.93975 0.93833 0.0
H886 H 0.6385 0.95712 0.88472 0.0
H887 H 0.62197 0.98438 0.90212 0.0
H888 H 0.60106 0.95989 0.87552 0.0
H889 H 0.50687 0.90497 0.9338 0.0
H890 H 0.49488 0.94633 0.96114 0.0
H891 H 0.58722 0.98876 0.95222 0.0
C892 C 0.61555 0.895 0.89819 0.0
C893 C 0.60343 0.86658 0.89157 0.0
C894 C 0.57267 0.85616 0.8966 0.0
C895 C 0.55408 0.87394 0.90782 0.0
C896 C 0.56673 0.90195 0.91414 0.0
C897 C 0.59684 0.91231 0.90982 0.0
C898 C 0.60543 0.94246 0.9208 0.0
C899 C 0.62799 0.94518 0.94674 0.0
C900 C 0.61744 0.96212 0.8942 0.0
C901 C 0.57553 0.94741 0.93234 0.0
C902 C 0.55336 0.92401 0.92779 0.0
C903 C 0.52403 0.92344 0.93734 0.0
C904 C 0.51739 0.94711 0.9527 0.0
C905 C 0.54009 0.9708 0.95877 0.0
C906 C 0.56936 0.97103 0.94784 0.0
H907 H 0.89569 0.15883 0.45428 0.0
H908 H 0.90127 0.21733 0.53094 0.0
H909 H 0.93145 0.18934 0.55836 0.0
H910 H 0.88547 0.09973 0.49199 0.0
H911 H 0.90875 0.08124 0.46918 0.0
H912 H 0.89313 0.10845 0.45231 0.0
H913 H 0.94553 0.13544 0.43593 0.0
H914 H 0.9614 0.10772 0.45173 0.0
H915 H 0.97429 0.14357 0.46394 0.0
H916 H 0.94922 0.14949 0.58167 0.0
H917 H 0.96393 0.10525 0.59576 0.0
H918 H 0.95175 0.07504 0.50228 0.0
C919 C 0.90449 0.16677 0.47611 0.0
C920 C 0.89559 0.19011 0.4906 0.0
C921 C 0.90713 0.19916 0.51961 0.0
C922 C 0.9245 0.18351 0.5353 0.0
C923 C 0.93099 0.1595 0.5212 0.0
C924 C 0.9224 0.15177 0.49176 0.0
C925 C 0.93044 0.12392 0.48267 0.0
C926 C 0.90279 0.10207 0.47352 0.0
C927 C 0.95434 0.12791 0.45705 0.0
C928 C 0.9429 0.11627 0.51236 0.0
C929 C 0.9431 0.13713 0.53425 0.0
C930 C 0.95017 0.13344 0.56447 0.0
C931 C 0.95809 0.1081 0.57233 0.0
C932 C 0.95925 0.08702 0.54994 0.0
C933 C 0.95152 0.09113 0.51963 0.0
H934 H 0.22859 0.66273 0.13207 0.0
H935 H 0.24432 0.58983 0.18122 0.0
H936 H 0.2011 0.56085 0.15693 0.0
H937 H 0.1487 0.64535 0.1428 0.0
H938 H 0.14113 0.65852 0.1061 0.0
H939 H 0.17503 0.67351 0.12527 0.0
H940 H 0.20562 0.66296 0.07762 0.0
H941 H 0.17181 0.64773 0.0584 0.0
H942 H 0.20047 0.62755 0.06275 0.0
H943 H 0.15635 0.53901 0.12704 0.0
H944 H 0.10984 0.52705 0.09863 0.0
H945 H 0.11873 0.6145 0.07291 0.0
C946 C 0.22305 0.64078 0.13814 0.0
C947 C 0.24098 0.62886 0.1584 0.0
C948 C 0.23227 0.59976 0.16508 0.0
C949 C 0.20734 0.58296 0.15155 0.0
C950 C 0.19057 0.59538 0.13169 0.0
C951 C 0.1977 0.62372 0.12539 0.0
C952 C 0.17469 0.63205 0.10467 0.0
C953 C 0.15895 0.65363 0.12067 0.0
C954 C 0.18901 0.64323 0.07405 0.0
C955 C 0.15353 0.60395 0.10041 0.0
C956 C 0.1635 0.58305 0.11583 0.0
C957 C 0.14823 0.55525 0.11505 0.0
C958 C 0.12178 0.54865 0.09864 0.0
C959 C 0.11032 0.56978 0.08346 0.0
C960 C 0.12671 0.59782 0.08425 0.0
H961 H 0.30318 0.43575 0.62099 0.0
H962 H 0.33249 0.46182 0.71243 0.0
H963 H 0.38033 0.48698 0.69109 0.0
H964 H 0.37426 0.42399 0.59235 0.0
H965 H 0.3701 0.43715 0.5547 0.0
H966 H 0.33768 0.42155 0.57696 0.0
H967 H 0.31639 0.46677 0.57126 0.0
H968 H 0.34884 0.48257 0.54912 0.0
H969 H 0.33831 0.50012 0.58295 0.0
H970 H 0.42564 0.50838 0.66048 0.0
H971 H 0.46574 0.52415 0.62244 0.0
H972 H 0.4081 0.48521 0.55008 0.0
C973 C 0.3197 0.44665 0.63654 0.0
C974 C 0.31373 0.44692 0.66851 0.0
C975 C 0.33607 0.46165 0.6879 0.0
C976 C 0.36348 0.47593 0.67599 0.0
C977 C 0.3685 0.47546 0.6445 0.0
C978 C 0.34732 0.4612 0.62497 0.0
C979 C 0.35873 0.46391 0.592 0.0
C980 C 0.36028 0.43493 0.57819 0.0
C981 C 0.33941 0.47926 0.5727 0.0
C982 C 0.38967 0.48171 0.59614 0.0
C983 C 0.39474 0.48812 0.62667 0.0
C984 C 0.42184 0.50365 0.63649 0.0
C985 C 0.4445 0.5126 0.61467 0.0
C986 C 0.44006 0.50621 0.58323 0.0
C987 C 0.41209 0.49075 0.57389 0.0
H988 H 0.79909 0.68507 0.91244 0.0
H989 H 0.78943 0.75282 0.97539 0.0
H990 H 0.82962 0.74158 1.00652 0.0
H991 H 0.81983 0.63694 0.9679 0.0
H992 H 0.84667 0.62611 0.94205 0.0
H993 H 0.81436 0.63688 0.92723 0.0
H994 H 0.84847 0.67404 0.89364 0.0
H995 H 0.88085 0.66354 0.90848 0.0
H996 H 0.87702 0.69974 0.91142 0.0
H997 H 0.87347 0.72511 1.02877 0.0
H998 H 0.91688 0.70457 0.04061 0.0
H999 H 0.90087 0.65114 0.95981 0.0
C1000 C 0.8052 0.69753 0.93284 0.0
C1001 C 0.79088 0.71986 0.94135 0.0
C1002 C 0.7995 0.73526 0.96856 0.0
C1003 C 0.82254 0.72918 0.98631 0.0
C1004 C 0.83683 0.70772 0.97654 0.0
C1005 C 0.82842 0.6921 0.95047 0.0
C1006 C 0.84869 0.67156 0.94363 0.0
C1007 C 0.83135 0.64107 0.94532 0.0
C1008 C 0.8647 0.6776 0.91245 0.0
C1009 C 0.87016 0.67838 0.96967 0.0
C1010 C 0.86275 0.69904 0.98861 0.0
C1011 C 0.8795 0.70894 1.01405 0.0
C1012 C 0.90439 0.69734 1.02036 0.0
C1013 C 0.91265 0.67629 1.00106 0.0
C1014 C 0.89514 0.66686 0.97535 0.0
H1015 H 0.45991 0.86617 0.1851 0.0
H1016 H 0.39665 0.82924 0.11635 0.0
H1017 H 0.41235 0.87085 0.08429 0.0
H1018 H 0.45181 0.93837 0.1755 0.0
H1019 H 0.49075 0.95317 0.18004 0.0
H1020 H 0.47442 0.92065 0.19852 0.0
H1021 H 0.51369 0.89616 0.17219 0.0
H1022 H 0.53025 0.92864 0.1538 0.0
H1023 H 0.51815 0.89734 0.13117 0.0
H1024 H 0.43448 0.91598 0.05896 0.0
H1025 H 0.4637 0.96119 0.0409 0.0
H1026 H 0.51405 0.97018 0.12448 0.0
C1027 C 0.44945 0.86677 0.16326 0.0
C1028 C 0.4265 0.84433 0.15373 0.0
C1029 C 0.41358 0.84622 0.12483 0.0
C1030 C 0.4225 0.8698 0.10622 0.0
C1031 C 0.44466 0.89161 0.11646 0.0
C1032 C 0.45819 0.89035 0.14417 0.0
C1033 C 0.48192 0.91673 0.14918 0.0
C1034 C 0.47426 0.9332 0.1775 0.0
C1035 C 0.51284 0.90927 0.15174 0.0
C1036 C 0.47961 0.93282 0.11994 0.0
C1037 C 0.45782 0.91785 0.10153 0.0
C1038 C 0.45158 0.9279 0.07321 0.0
C1039 C 0.46829 0.95369 0.06315 0.0
C1040 C 0.49111 0.96937 0.08123 0.0
C1041 C 0.49659 0.95885 0.11022 0.0
H1042 H 0.12865 0.21437 0.68804 0.0
H1043 H 0.07156 0.26832 0.65465 0.0
H1044 H 0.04509 0.22926 0.62308 0.0
H1045 H 0.13454 0.1757 0.61828 0.0
H1046 H 0.13257 0.14217 0.63625 0.0
H1047 H 0.14731 0.17414 0.65677 0.0
H1048 H 0.10888 0.15931 0.70063 0.0
H1049 H 0.09404 0.12726 0.68025 0.0
H1050 H 0.06982 0.15064 0.69217 0.0
H1051 H 0.02746 0.18664 0.59228 0.0
H1052 H 1.01583 0.14086 0.56664 0.0
H1053 H 0.08006 0.11049 0.62209 0.0
C1054 C 0.11046 0.2178 0.67416 0.0
C1055 C 0.10209 0.24448 0.6739 0.0
C1056 C 0.07815 0.24811 0.65551 0.0
C1057 C 0.06306 0.22605 0.63738 0.0
C1058 C 0.07177 0.20014 0.63809 0.0
C1059 C 0.09459 0.19563 0.65624 0.0
C1060 C 0.09881 0.16529 0.65278 0.0
C1061 C 0.13017 0.16428 0.64027 0.0
C1062 C 0.09251 0.14971 0.68328 0.0
C1063 C 0.07515 0.15374 0.62945 0.0
C1064 C 0.06014 0.17451 0.62128 0.0
C1065 C 0.03863 0.17005 0.59893 0.0
C1066 C 0.03212 0.14375 0.58451 0.0
C1067 C 0.04639 0.12158 0.59271 0.0
C1068 C 0.06822 0.1267 0.61573 0.0
H1069 H 0.68296 0.30927 0.50471 0.0
H1070 H 0.61394 0.23521 0.51871 0.0
H1071 H 0.57748 0.26558 0.52979 0.0
H1072 H 0.65443 0.35583 0.56283 0.0
H1073 H 0.66494 0.38597 0.53849 0.0
H1074 H 0.68637 0.35856 0.53747 0.0
H1075 H 0.67878 0.35308 0.47902 0.0
H1076 H 0.6571 0.38013 0.47988 0.0
H1077 H 0.64153 0.34589 0.46448 0.0
H1078 H 0.54753 0.30368 0.53182 0.0
H1079 H 0.52667 0.34648 0.5256 0.0
H1080 H 0.61564 0.39501 0.50939 0.0
C1081 C 0.66046 0.29944 0.51136 0.0
C1082 C 0.65127 0.26995 0.51118 0.0
C1083 C 0.62137 0.25782 0.51879 0.0
C1084 C 0.60059 0.27488 0.52527 0.0
C1085 C 0.61019 0.30395 0.52419 0.0
C1086 C 0.63952 0.31613 0.51772 0.0
C1087 C 0.64361 0.34763 0.51456 0.0
C1088 C 0.66351 0.36289 0.53985 0.0
C1089 C 0.65596 0.35722 0.48259 0.0
C1090 C 0.61181 0.35119 0.51901 0.0
C1091 C 0.59289 0.32587 0.52503 0.0
C1092 C 0.56218 0.3237 0.52764 0.0
C1093 C 0.55052 0.34803 0.52378 0.0
C1094 C 0.56957 0.37406 0.51715 0.0
C1095 C 0.60059 0.37557 0.51517 0.0
loop_
_geom_bond_atom_site_label_1
_geom_bond_atom_site_label_2
_geom_bond_distance
_geom_bond_site_symmetry_2
_ccdc_geom_bond_type
C0 C1 1.384 . S
C0 H13 0.947 . S
C0 C35 1.382 . S
C1 C0 1.384 . S
C1 C2 1.378 . S
C2 C1 1.378 . S
C2 C3 1.378 . S
C2 H14 0.952 . S
C3 C2 1.378 . S
C3 H15 0.950 . S
C3 C34 1.383 . S
H4 C23 0.947 . S
H5 C24 0.946 . S
H6 C26 0.953 . S
H7 C27 0.945 . S
H8 C29 0.952 . S
H9 C30 0.949 . S
H10 C32 0.950 . S
H11 C33 0.948 . S
H12 C35 0.951 . S
H13 C0 0.947 . S
H14 C2 0.952 . S
H15 C3 0.950 . S
N16 C19 1.382 . S
N16 C21 1.363 . S
N17 C19 1.371 . S
N17 C20 1.372 . S
N18 C20 1.361 . S
N18 C21 1.377 . S
C19 N16 1.382 . S
C19 N17 1.371 . S
C19 C22 1.480 . S
C20 N17 1.372 . S
C20 N18 1.361 . S
C20 C28 1.457 . S
C21 N16 1.363 . S
C21 N18 1.377 . S
C21 C34 1.479 . S
C22 C19 1.480 . S
C22 C23 1.383 . S
C22 C27 1.385 . S
C23 H4 0.947 . S
C23 C22 1.383 . S
C23 C24 1.388 . S
C24 H5 0.946 . S
C24 C23 1.388 . S
C24 C25 1.384 . S
C25 C24 1.384 . S
C25 C26 1.377 . S
C26 H6 0.953 . S
C26 C25 1.377 . S
C26 C27 1.369 . S
C27 H7 0.945 . S
C27 C22 1.385 . S
C27 C26 1.369 . S
C28 C20 1.457 . S
C28 C29 1.372 . S
C28 C33 1.364 . S
C29 H8 0.952 . S
C29 C28 1.372 . S
C29 C30 1.389 . S
C30 H9 0.949 . S
C30 C29 1.389 . S
C30 C31 1.387 . S
C31 C30 1.387 . S
C31 C32 1.372 . S
C32 H10 0.950 . S
C32 C31 1.372 . S
C32 C33 1.379 . S
C33 H11 0.948 . S
C33 C28 1.364 . S
C33 C32 1.379 . S
C34 C3 1.383 . S
C34 C21 1.479 . S
C34 C35 1.398 . S
C35 C0 1.382 . S
C35 H12 0.951 . S
C35 C34 1.398 . S
C36 C37 1.384 . S
C36 H49 0.947 . S
C36 C71 1.382 . S
C37 C36 1.384 . S
C37 C38 1.378 . S
C38 C37 1.378 . S
C38 C39 1.378 . S
C38 H50 0.952 . S
C39 C38 1.378 . S
C39 H51 0.950 . S
C39 C70 1.383 . S
H40 C59 0.947 . S
H41 C60 0.946 . S
H42 C62 0.953 . S
H43 C63 0.945 . S
H44 C65 0.952 . S
H45 C66 0.949 . S
H46 C68 0.950 . S
H47 C69 0.948 . S
H48 C71 0.951 . S
H49 C36 0.947 . S
H50 C38 0.952 . S
H51 C39 0.950 . S
N52 C55 1.382 . S
N52 C57 1.363 . S
N53 C55 1.371 . S
N53 C56 1.372 . S
N54 C56 1.361 . S
N54 C57 1.377 . S
C55 N52 1.382 . S
C55 N53 1.371 . S
C55 C58 1.480 . S
C56 N53 1.372 . S
C56 N54 1.361 . S
C56 C64 1.457 . S
C57 N52 1.363 . S
C57 N54 1.377 . S
C57 C70 1.479 . S
C58 C55 1.480 . S
C58 C59 1.383 . S
C58 C63 1.385 . S
C59 H40 0.947 . S
C59 C58 1.383 . S
C59 C60 1.388 . S
C60 H41 0.946 . S
C60 C59 1.388 . S
C60 C61 1.384 . S
C61 C60 1.384 . S
C61 C62 1.377 . S
C62 H42 0.953 . S
C62 C61 1.377 . S
C62 C63 1.369 . S
C63 H43 0.945 . S
C63 C58 1.385 . S
C63 C62 1.369 . S
C64 C56 1.457 . S
C64 C65 1.372 . S
C64 C69 1.364 . S
C65 H44 0.952 . S
C65 C64 1.372 . S
C65 C66 1.389 . S
C66 H45 0.949 . S
C66 C65 1.389 . S
C66 C67 1.387 . S
C67 C66 1.387 . S
C67 C68 1.372 . S
C68 H46 0.950 . S
C68 C67 1.372 . S
C68 C69 1.379 . S
C69 H47 0.948 . S
C69 C64 1.364 . S
C69 C68 1.379 . S
C70 C39 1.383 . S
C70 C57 1.479 . S
C70 C71 1.398 . S
C71 C36 1.382 . S
C71 H48 0.951 . S
C71 C70 1.398 . S
C72 C73 1.384 . S
C72 H85 0.947 . S
C72 C107 1.382 . S
C73 C72 1.384 . S
C73 C74 1.378 . S
C74 C73 1.378 . S
C74 C75 1.378 . S
C74 H86 0.952 . S
C75 C74 1.378 . S
C75 H87 0.950 . S
C75 C106 1.383 . S
H76 C95 0.947 . S
H77 C96 0.946 . S
H78 C98 0.953 . S
H79 C99 0.945 . S
H80 C101 0.952 . S
H81 C102 0.949 . S
H82 C104 0.950 . S
H83 C105 0.948 . S
H84 C107 0.951 . S
H85 C72 0.947 . S
H86 C74 0.952 . S
H87 C75 0.950 . S
N88 C91 1.382 . S
N88 C93 1.363 . S
N89 C91 1.371 . S
N89 C92 1.372 . S
N90 C92 1.361 . S
N90 C93 1.377 . S
C91 N88 1.382 . S
C91 N89 1.371 . S
C91 C94 1.480 . S
C92 N89 1.372 . S
C92 N90 1.361 . S
C92 C100 1.457 . S
C93 N88 1.363 . S
C93 N90 1.377 . S
C93 C106 1.479 . S
C94 C91 1.480 . S
C94 C95 1.383 . S
C94 C99 1.385 . S
C95 H76 0.947 . S
C95 C94 1.383 . S
C95 C96 1.388 . S
C96 H77 0.946 . S
C96 C95 1.388 . S
C96 C97 1.384 . S
C97 C96 1.384 . S
C97 C98 1.377 . S
C98 H78 0.953 . S
C98 C97 1.377 . S
C98 C99 1.369 . S
C99 H79 0.945 . S
C99 C94 1.385 . S
C99 C98 1.369 . S
C100 C92 1.457 . S
C100 C101 1.372 . S
C100 C105 1.364 . S
C101 H80 0.952 . S
C101 C100 1.372 . S
C101 C102 1.389 . S
C102 H81 0.949 . S
C102 C101 1.389 . S
C102 C103 1.387 . S
C103 C102 1.387 . S
C103 C104 1.372 . S
C104 H82 0.950 . S
C104 C103 1.372 . S
C104 C105 1.379 . S
C105 H83 0.948 . S
C105 C100 1.364 . S
C105 C104 1.379 . S
C106 C75 1.383 . S
C106 C93 1.479 . S
C106 C107 1.398 . S
C107 C72 1.382 . S
C107 H84 0.951 . S
C107 C106 1.398 . S
C108 C109 1.384 . S
C108 H121 0.947 . S
C108 C143 1.382 . S
C109 C108 1.384 . S
C109 C110 1.378 . S
C110 C109 1.378 . S
C110 C111 1.378 . S
C110 H122 0.952 . S
C111 C110 1.378 . S
C111 H123 0.950 . S
C111 C142 1.383 . S
H112 C131 0.947 . S
H113 C132 0.946 . S
H114 C134 0.953 . S
H115 C135 0.945 . S
H116 C137 0.952 . S
H117 C138 0.949 . S
H118 C140 0.950 . S
H119 C141 0.948 . S
H120 C143 0.951 . S
H121 C108 0.947 . S
H122 C110 0.952 . S
H123 C111 0.950 . S
N124 C127 1.382 . S
N124 C129 1.363 . S
N125 C127 1.371 . S
N125 C128 1.372 . S
N126 C128 1.361 . S
N126 C129 1.377 . S
C127 N124 1.382 . S
C127 N125 1.371 . S
C127 C130 1.480 . S
C128 N125 1.372 . S
C128 N126 1.361 . S
C128 C136 1.457 . S
C129 N124 1.363 . S
C129 N126 1.377 . S
C129 C142 1.479 . S
C130 C127 1.480 . S
C130 C131 1.383 . S
C130 C135 1.385 . S
C131 H112 0.947 . S
C131 C130 1.383 . S
C131 C132 1.388 . S
C132 H113 0.946 . S
C132 C131 1.388 . S
C132 C133 1.384 . S
C133 C132 1.384 . S
C133 C134 1.377 . S
C134 H114 0.953 . S
C134 C133 1.377 . S
C134 C135 1.369 . S
C135 H115 0.945 . S
C135 C130 1.385 . S
C135 C134 1.369 . S
C136 C128 1.457 . S
C136 C137 1.372 . S
C136 C141 1.364 . S
C137 H116 0.952 . S
C137 C136 1.372 . S
C137 C138 1.389 . S
C138 H117 0.949 . S
C138 C137 1.389 . S
C138 C139 1.387 . S
C139 C138 1.387 . S
C139 C140 1.372 . S
C140 H118 0.950 . S
C140 C139 1.372 . S
C140 C141 1.379 . S
C141 H119 0.948 . S
C141 C136 1.364 . S
C141 C140 1.379 . S
C142 C111 1.383 . S
C142 C129 1.479 . S
C142 C143 1.398 . S
C143 C108 1.382 . S
C143 H120 0.951 . S
C143 C142 1.398 . S
C144 C145 1.384 . S
C144 H157 0.947 . S
C144 C179 1.382 . S
C145 C144 1.384 . S
C145 C146 1.378 . S
C146 C145 1.378 . S
C146 C147 1.378 . S
C146 H158 0.952 . S
C147 C146 1.378 . S
C147 H159 0.950 . S
C147 C178 1.383 . S
H148 C167 0.947 . S
H149 C168 0.946 . S
H150 C170 0.953 . S
H151 C171 0.945 . S
H152 C173 0.952 . S
H153 C174 0.949 . S
H154 C176 0.950 . S
H155 C177 0.948 . S
H156 C179 0.951 . S
H157 C144 0.947 . S
H158 C146 0.952 . S
H159 C147 0.950 . S
N160 C163 1.382 . S
N160 C165 1.363 . S
N161 C163 1.371 . S
N161 C164 1.372 . S
N162 C164 1.361 . S
N162 C165 1.377 . S
C163 N160 1.382 . S
C163 N161 1.371 . S
C163 C166 1.480 . S
C164 N161 1.372 . S
C164 N162 1.361 . S
C164 C172 1.457 . S
C165 N160 1.363 . S
C165 N162 1.377 . S
C165 C178 1.479 . S
C166 C163 1.480 . S
C166 C167 1.383 . S
C166 C171 1.385 . S
C167 H148 0.947 . S
C167 C166 1.383 . S
C167 C168 1.388 . S
C168 H149 0.946 . S
C168 C167 1.388 . S
C168 C169 1.384 . S
C169 C168 1.384 . S
C169 C170 1.377 . S
C170 H150 0.953 . S
C170 C169 1.377 . S
C170 C171 1.369 . S
C171 H151 0.945 . S
C171 C166 1.385 . S
C171 C170 1.369 . S
C172 C164 1.457 . S
C172 C173 1.372 . S
C172 C177 1.364 . S
C173 H152 0.952 . S
C173 C172 1.372 . S
C173 C174 1.389 . S
C174 H153 0.949 . S
C174 C173 1.389 . S
C174 C175 1.387 . S
C175 C174 1.387 . S
C175 C176 1.372 . S
C176 H154 0.950 . S
C176 C175 1.372 . S
C176 C177 1.379 . S
C177 H155 0.948 . S
C177 C172 1.364 . S
C177 C176 1.379 . S
C178 C147 1.383 . S
C178 C165 1.479 . S
C178 C179 1.398 . S
C179 C144 1.382 . S
C179 H156 0.951 . S
C179 C178 1.398 . S
C180 C181 1.384 . S
C180 H193 0.947 . S
C180 C215 1.382 . S
C181 C180 1.384 . S
C181 C182 1.378 . S
C182 C181 1.378 . S
C182 C183 1.378 . S
C182 H194 0.952 . S
C183 C182 1.378 . S
C183 H195 0.950 . S
C183 C214 1.383 . S
H184 C203 0.947 . S
H185 C204 0.946 . S
H186 C206 0.953 . S
H187 C207 0.945 . S
H188 C209 0.952 . S
H189 C210 0.949 . S
H190 C212 0.950 . S
H191 C213 0.948 . S
H192 C215 0.951 . S
H193 C180 0.947 . S
H194 C182 0.952 . S
H195 C183 0.950 . S
N196 C199 1.382 . S
N196 C201 1.363 . S
N197 C199 1.371 . S
N197 C200 1.372 . S
N198 C200 1.361 . S
N198 C201 1.377 . S
C199 N196 1.382 . S
C199 N197 1.371 . S
C199 C202 1.480 . S
C200 N197 1.372 . S
C200 N198 1.361 . S
C200 C208 1.457 . S
C201 N196 1.363 . S
C201 N198 1.377 . S
C201 C214 1.479 . S
C202 C199 1.480 . S
C202 C203 1.383 . S
C202 C207 1.385 . S
C203 H184 0.947 . S
C203 C202 1.383 . S
C203 C204 1.388 . S
C204 H185 0.946 . S
C204 C203 1.388 . S
C204 C205 1.384 . S
C205 C204 1.384 . S
C205 C206 1.377 . S
C206 H186 0.953 . S
C206 C205 1.377 . S
C206 C207 1.369 . S
C207 H187 0.945 . S
C207 C202 1.385 . S
C207 C206 1.369 . S
C208 C200 1.457 . S
C208 C209 1.372 . S
C208 C213 1.364 . S
C209 H188 0.952 . S
C209 C208 1.372 . S
C209 C210 1.389 . S
C210 H189 0.949 . S
C210 C209 1.389 . S
C210 C211 1.387 . S
C211 C210 1.387 . S
C211 C212 1.372 . S
C212 H190 0.950 . S
C212 C211 1.372 . S
C212 C213 1.379 . S
C213 H191 0.948 . S
C213 C208 1.364 . S
C213 C212 1.379 . S
C214 C183 1.383 . S
C214 C201 1.479 . S
C214 C215 1.398 . S
C215 C180 1.382 . S
C215 H192 0.951 . S
C215 C214 1.398 . S
C216 C217 1.384 . S
C216 H229 0.947 . S
C216 C251 1.382 . S
C217 C216 1.384 . S
C217 C218 1.378 . S
C218 C217 1.378 . S
C218 C219 1.378 . S
C218 H230 0.952 . S
C219 C218 1.378 . S
C219 H231 0.950 . S
C219 C250 1.383 . S
H220 C239 0.947 . S
H221 C240 0.946 . S
H222 C242 0.953 . S
H223 C243 0.945 . S
H224 C245 0.952 . S
H225 C246 0.949 . S
H226 C248 0.950 . S
H227 C249 0.948 . S
H228 C251 0.951 . S
H229 C216 0.947 . S
H230 C218 0.952 . S
H231 C219 0.950 . S
N232 C235 1.382 . S
N232 C237 1.363 . S
N233 C235 1.371 . S
N233 C236 1.372 . S
N234 C236 1.361 . S
N234 C237 1.377 . S
C235 N232 1.382 . S
C235 N233 1.371 . S
C235 C238 1.480 . S
C236 N233 1.372 . S
C236 N234 1.361 . S
C236 C244 1.457 . S
C237 N232 1.363 . S
C237 N234 1.377 . S
C237 C250 1.479 . S
C238 C235 1.480 . S
C238 C239 1.383 . S
C238 C243 1.385 . S
C239 H220 0.947 . S
C239 C238 1.383 . S
C239 C240 1.388 . S
C240 H221 0.946 . S
C240 C239 1.388 . S
C240 C241 1.384 . S
C241 C240 1.384 . S
C241 C242 1.377 . S
C242 H222 0.953 . S
C242 C241 1.377 . S
C242 C243 1.369 . S
C243 H223 0.945 . S
C243 C238 1.385 . S
C243 C242 1.369 . S
C244 C236 1.457 . S
C244 C245 1.372 . S
C244 C249 1.364 . S
C245 H224 0.952 . S
C245 C244 1.372 . S
C245 C246 1.389 . S
C246 H225 0.949 . S
C246 C245 1.389 . S
C246 C247 1.387 . S
C247 C246 1.387 . S
C247 C248 1.372 . S
C248 H226 0.950 . S
C248 C247 1.372 . S
C248 C249 1.379 . S
C249 H227 0.948 . S
C249 C244 1.364 . S
C249 C248 1.379 . S
C250 C219 1.383 . S
C250 C237 1.479 . S
C250 C251 1.398 . S
C251 C216 1.382 . S
C251 H228 0.951 . S
C251 C250 1.398 . S
C252 C253 1.384 . S
C252 H265 0.947 . S
C252 C287 1.382 . S
C253 C252 1.384 . S
C253 C254 1.378 . S
C254 C253 1.378 . S
C254 C255 1.378 . S
C254 H266 0.952 . S
C255 C254 1.378 . S
C255 H267 0.950 . S
C255 C286 1.383 . S
H256 C275 0.947 . S
H257 C276 0.946 . S
H258 C278 0.953 . S
H259 C279 0.945 . S
H260 C281 0.952 . S
H261 C282 0.949 . S
H262 C284 0.950 . S
H263 C285 0.948 . S
H264 C287 0.951 . S
H265 C252 0.947 . S
H266 C254 0.952 . S
H267 C255 0.950 . S
N268 C271 1.382 . S
N268 C273 1.363 . S
N269 C271 1.371 . S
N269 C272 1.372 . S
N270 C272 1.361 . S
N270 C273 1.377 . S
C271 N268 1.382 . S
C271 N269 1.371 . S
C271 C274 1.480 . S
C272 N269 1.372 . S
C272 N270 1.361 . S
C272 C280 1.457 . S
C273 N268 1.363 . S
C273 N270 1.377 . S
C273 C286 1.479 . S
C274 C271 1.480 . S
C274 C275 1.383 . S
C274 C279 1.385 . S
C275 H256 0.947 . S
C275 C274 1.383 . S
C275 C276 1.388 . S
C276 H257 0.946 . S
C276 C275 1.388 . S
C276 C277 1.384 . S
C277 C276 1.384 . S
C277 C278 1.377 . S
C278 H258 0.953 . S
C278 C277 1.377 . S
C278 C279 1.369 . S
C279 H259 0.945 . S
C279 C274 1.385 . S
C279 C278 1.369 . S
C280 C272 1.457 . S
C280 C281 1.372 . S
C280 C285 1.364 . S
C281 H260 0.952 . S
C281 C280 1.372 . S
C281 C282 1.389 . S
C282 H261 0.949 . S
C282 C281 1.389 . S
C282 C283 1.387 . S
C283 C282 1.387 . S
C283 C284 1.372 . S
C284 H262 0.950 . S
C284 C283 1.372 . S
C284 C285 1.379 . S
C285 H263 0.948 . S
C285 C280 1.364 . S
C285 C284 1.379 . S
C286 C255 1.383 . S
C286 C273 1.479 . S
C286 C287 1.398 . S
C287 C252 1.382 . S
C287 H264 0.951 . S
C287 C286 1.398 . S
Ho288 C291 2.811 . S
Ho288 O308 2.322 . S
Ho288 O310 2.378 . S
Ho288 O311 2.524 . S
Ho288 O312 2.381 1_545 S
Ho288 O313 2.669 1_545 S
Ho288 O315 2.346 1_445 S
Ho288 O319 2.305 1_455 S
Ho289 C300 2.811 . S
Ho289 O309 2.346 1_665 S
Ho289 O313 2.305 1_655 S
Ho289 O314 2.322 . S
Ho289 O316 2.378 . S
Ho289 O317 2.524 . S
Ho289 O318 2.381 1_565 S
Ho289 O319 2.669 1_565 S
C290 O308 1.259 . S
C290 O309 1.268 . S
C291 Ho288 2.811 . S
C291 C292 1.488 . S
C291 O310 1.215 . S
C291 O311 1.289 . S
C292 C291 1.488 . S
C292 C293 1.348 . S
C292 C297 1.413 . S
C293 C292 1.348 . S
C293 C294 1.442 . S
C293 H320 0.930 . S
C294 C293 1.442 . S
C294 C295 1.381 . S
C294 H321 0.931 . S
C295 C294 1.381 . S
C295 C296 1.321 . S
C296 C295 1.321 . S
C296 C297 1.403 . S
C296 H322 0.934 . S
C297 C292 1.413 . S
C297 C296 1.403 . S
C297 H323 0.930 . S
C298 O312 1.275 . S
C298 O313 1.256 . S
C299 O314 1.259 . S
C299 O315 1.268 . S
C300 Ho289 2.811 . S
C300 C301 1.488 . S
C300 O316 1.215 . S
C300 O317 1.289 . S
C301 C300 1.488 . S
C301 C302 1.348 . S
C301 C306 1.413 . S
C302 C301 1.348 . S
C302 C303 1.442 . S
C302 H324 0.930 . S
C303 C302 1.442 . S
C303 C304 1.381 . S
C303 H325 0.931 . S
C304 C303 1.381 . S
C304 C305 1.321 . S
C305 C304 1.321 . S
C305 C306 1.403 . S
C305 H326 0.934 . S
C306 C301 1.413 . S
C306 C305 1.403 . S
C306 H327 0.930 . S
C307 O318 1.275 . S
C307 O319 1.256 . S
O308 Ho288 2.322 . S
O308 C290 1.259 . S
O309 Ho289 2.346 1_445 S
O309 C290 1.268 . S
O310 Ho288 2.378 . S
O310 C291 1.215 . S
O311 Ho288 2.524 . S
O311 C291 1.289 . S
O312 Ho288 2.381 1_565 S
O312 C298 1.275 . S
O313 Ho288 2.669 1_565 S
O313 Ho289 2.305 1_455 S
O313 C298 1.256 . S
O314 Ho289 2.322 . S
O314 C299 1.259 . S
O315 Ho288 2.346 1_665 S
O315 C299 1.268 . S
O316 Ho289 2.378 . S
O316 C300 1.215 . S
O317 Ho289 2.524 . S
O317 C300 1.289 . S
O318 Ho289 2.381 1_545 S
O318 C307 1.275 . S
O319 Ho288 2.305 1_655 S
O319 Ho289 2.669 1_545 S
O319 C307 1.256 . S
H320 C293 0.930 . S
H321 C294 0.931 . S
H322 C296 0.934 . S
H323 C297 0.930 . S
H324 C302 0.930 . S
H325 C303 0.931 . S
H326 C305 0.934 . S
H327 C306 0.930 . S
Ho328 C331 2.807 1_565 S
Ho328 O348 2.318 1_565 S
Ho328 O350 2.377 1_565 S
Ho328 O351 2.518 1_565 S
Ho328 O352 2.386 . S
Ho328 O353 2.672 . S
Ho328 O355 2.350 1_554 S
Ho328 O359 2.300 1_564 S
Ho329 C340 2.811 1_545 S
Ho329 O349 2.346 1_556 S
Ho329 O353 2.305 1_546 S
Ho329 O354 2.322 1_545 S
Ho329 O356 2.378 1_545 S
Ho329 O357 2.524 1_545 S
Ho329 O358 2.381 . S
Ho329 O359 2.669 . S
C330 O348 1.259 . S
C330 O349 1.268 . S
C331 Ho328 2.807 1_545 S
C331 C332 1.488 . S
C331 O350 1.215 . S
C331 O351 1.289 . S
C332 C331 1.488 . S
C332 C333 1.348 . S
C332 C337 1.413 . S
C333 C332 1.348 . S
C333 C334 1.442 . S
C333 H360 0.930 . S
C334 C333 1.442 . S
C334 C335 1.381 . S
C334 H361 0.931 . S
C335 C334 1.381 . S
C335 C336 1.321 . S
C336 C335 1.321 . S
C336 C337 1.403 . S
C336 H362 0.934 . S
C337 C332 1.413 . S
C337 C336 1.403 . S
C337 H363 0.930 . S
C338 O352 1.275 . S
C338 O353 1.256 . S
C339 O354 1.259 . S
C339 O355 1.268 . S
C340 Ho329 2.811 1_565 S
C340 C341 1.488 . S
C340 O356 1.215 . S
C340 O357 1.289 . S
C341 C340 1.488 . S
C341 C342 1.348 . S
C341 C346 1.413 . S
C342 C341 1.348 . S
C342 C343 1.442 . S
C342 H364 0.930 . S
C343 C342 1.442 . S
C343 C344 1.381 . S
C343 H365 0.931 . S
C344 C343 1.381 . S
C344 C345 1.321 . S
C345 C344 1.321 . S
C345 C346 1.403 . S
C345 H366 0.934 . S
C346 C341 1.413 . S
C346 C345 1.403 . S
C346 H367 0.930 . S
C347 O358 1.275 . S
C347 O359 1.256 . S
O348 Ho328 2.318 1_545 S
O348 C330 1.259 . S
O349 Ho329 2.346 1_554 S
O349 C330 1.268 . S
O350 Ho328 2.377 1_545 S
O350 C331 1.215 . S
O351 Ho328 2.518 1_545 S
O351 C331 1.289 . S
O352 Ho328 2.386 . S
O352 C338 1.275 . S
O353 Ho328 2.672 . S
O353 Ho329 2.305 1_564 S
O353 C338 1.256 . S
O354 Ho329 2.322 1_565 S
O354 C339 1.259 . S
O355 Ho328 2.350 1_556 S
O355 C339 1.268 . S
O356 Ho329 2.378 1_565 S
O356 C340 1.215 . S
O357 Ho329 2.524 1_565 S
O357 C340 1.289 . S
O358 Ho329 2.381 . S
O358 C347 1.275 . S
O359 Ho328 2.300 1_546 S
O359 Ho329 2.669 . S
O359 C347 1.256 . S
H360 C333 0.930 . S
H361 C334 0.931 . S
H362 C336 0.934 . S
H363 C337 0.930 . S
H364 C342 0.930 . S
H365 C343 0.931 . S
H366 C345 0.934 . S
H367 C346 0.930 . S
Ho368 C371 2.811 . S
Ho368 O388 2.322 . S
Ho368 O390 2.378 . S
Ho368 O391 2.524 . S
Ho368 O392 2.381 . S
Ho368 O393 2.669 . S
Ho368 O395 2.346 . S
Ho368 O399 2.305 . S
Ho369 C380 2.811 . S
Ho369 O389 2.346 . S
Ho369 O393 2.305 . S
Ho369 O394 2.322 . S
Ho369 O396 2.378 . S
Ho369 O397 2.524 . S
Ho369 O398 2.381 . S
Ho369 O399 2.669 . S
C370 O388 1.259 . S
C370 O389 1.268 . S
C371 Ho368 2.811 . S
C371 C372 1.488 . S
C371 O390 1.215 . S
C371 O391 1.289 . S
C372 C371 1.488 . S
C372 C373 1.348 . S
C372 C377 1.413 . S
C373 C372 1.348 . S
C373 C374 1.442 . S
C373 H400 0.930 . S
C374 C373 1.442 . S
C374 C375 1.381 . S
C374 H401 0.931 . S
C375 C374 1.381 . S
C375 C376 1.321 . S
C376 C375 1.321 . S
C376 C377 1.403 . S
C376 H402 0.934 . S
C377 C372 1.413 . S
C377 C376 1.403 . S
C377 H403 0.930 . S
C378 O392 1.275 . S
C378 O393 1.256 . S
C379 O394 1.259 . S
C379 O395 1.268 . S
C380 Ho369 2.811 . S
C380 C381 1.488 . S
C380 O396 1.215 . S
C380 O397 1.289 . S
C381 C380 1.488 . S
C381 C382 1.348 . S
C381 C386 1.413 . S
C382 C381 1.348 . S
C382 C383 1.442 . S
C382 H404 0.930 . S
C383 C382 1.442 . S
C383 C384 1.381 . S
C383 H405 0.931 . S
C384 C383 1.381 . S
C384 C385 1.321 . S
C385 C384 1.321 . S
C385 C386 1.403 . S
C385 H406 0.934 . S
C386 C381 1.413 . S
C386 C385 1.403 . S
C386 H407 0.930 . S
C387 O398 1.275 . S
C387 O399 1.256 . S
O388 Ho368 2.322 . S
O388 C370 1.259 . S
O389 Ho369 2.346 . S
O389 C370 1.268 . S
O390 Ho368 2.378 . S
O390 C371 1.215 . S
O391 Ho368 2.524 . S
O391 C371 1.289 . S
O392 Ho368 2.381 . S
O392 C378 1.275 . S
O393 Ho368 2.669 . S
O393 Ho369 2.305 . S
O393 C378 1.256 . S
O394 Ho369 2.322 . S
O394 C379 1.259 . S
O395 Ho368 2.346 . S
O395 C379 1.268 . S
O396 Ho369 2.378 . S
O396 C380 1.215 . S
O397 Ho369 2.524 . S
O397 C380 1.289 . S
O398 Ho369 2.381 . S
O398 C387 1.275 . S
O399 Ho368 2.305 . S
O399 Ho369 2.669 . S
O399 C387 1.256 . S
H400 C373 0.930 . S
H401 C374 0.931 . S
H402 C376 0.934 . S
H403 C377 0.930 . S
H404 C382 0.930 . S
H405 C383 0.931 . S
H406 C385 0.934 . S
H407 C386 0.930 . S
Ho408 C411 2.811 . S
Ho408 O428 2.322 . S
Ho408 O430 2.378 . S
Ho408 O431 2.524 . S
Ho408 O432 2.381 1_455 S
Ho408 O433 2.669 1_455 S
Ho408 O435 2.340 1_454 S
Ho408 O439 2.305 1_554 S
Ho409 C420 2.812 . S
Ho409 O429 2.345 1_656 S
Ho409 O433 2.305 1_556 S
Ho409 O434 2.322 . S
Ho409 O436 2.379 . S
Ho409 O437 2.525 . S
Ho409 O438 2.380 1_655 S
Ho409 O439 2.669 1_655 S
C410 O428 1.259 . S
C410 O429 1.268 . S
C411 Ho408 2.811 . S
C411 C412 1.488 . S
C411 O430 1.215 . S
C411 O431 1.289 . S
C412 C411 1.488 . S
C412 C413 1.348 . S
C412 C417 1.413 . S
C413 C412 1.348 . S
C413 C414 1.442 . S
C413 H440 0.930 . S
C414 C413 1.442 . S
C414 C415 1.381 . S
C414 H441 0.931 . S
C415 C414 1.381 . S
C415 C416 1.321 . S
C416 C415 1.321 . S
C416 C417 1.403 . S
C416 H442 0.934 . S
C417 C412 1.413 . S
C417 C416 1.403 . S
C417 H443 0.930 . S
C418 O432 1.275 . S
C418 O433 1.256 . S
C419 O434 1.259 . S
C419 O435 1.276 . S
C420 Ho409 2.812 . S
C420 C421 1.488 . S
C420 O436 1.215 . S
C420 O437 1.289 . S
C421 C420 1.488 . S
C421 C422 1.348 . S
C421 C426 1.413 . S
C422 C421 1.348 . S
C422 C423 1.442 . S
C422 H444 0.930 . S
C423 C422 1.442 . S
C423 C424 1.381 . S
C423 H445 0.931 . S
C424 C423 1.381 . S
C424 C425 1.321 . S
C425 C424 1.321 . S
C425 C426 1.403 . S
C425 H446 0.934 . S
C426 C421 1.413 . S
C426 C425 1.403 . S
C426 H447 0.930 . S
C427 O438 1.275 . S
C427 O439 1.256 . S
O428 Ho408 2.322 . S
O428 C410 1.259 . S
O429 Ho409 2.345 1_454 S
O429 C410 1.268 . S
O430 Ho408 2.378 . S
O430 C411 1.215 . S
O431 Ho408 2.524 . S
O431 C411 1.289 . S
O432 Ho408 2.381 1_655 S
O432 C418 1.275 . S
O433 Ho408 2.669 1_655 S
O433 Ho409 2.305 1_554 S
O433 C418 1.256 . S
O434 Ho409 2.322 . S
O434 C419 1.259 . S
O435 Ho408 2.340 1_656 S
O435 C419 1.276 . S
O436 Ho409 2.379 . S
O436 C420 1.215 . S
O437 Ho409 2.525 . S
O437 C420 1.289 . S
O438 Ho409 2.380 1_455 S
O438 C427 1.275 . S
O439 Ho408 2.305 1_556 S
O439 Ho409 2.669 1_455 S
O439 C427 1.256 . S
H440 C413 0.930 . S
H441 C414 0.931 . S
H442 C416 0.934 . S
H443 C417 0.930 . S
H444 C422 0.930 . S
H445 C423 0.931 . S
H446 C425 0.934 . S
H447 C426 0.930 . S
H448 C460 0.930 . S
H449 C462 0.930 . S
H450 C463 0.930 . S
H451 C467 0.959 . S
H452 C467 0.959 . S
H453 C467 0.961 . S
H454 C468 0.960 . S
H455 C468 0.961 . S
H456 C468 0.959 . S
H457 C471 0.929 . S
H458 C472 0.931 . S
H459 C474 0.930 . S
C460 H448 0.930 . S
C460 C461 1.399 . S
C460 C465 1.399 . S
C461 C460 1.399 . S
C461 C462 1.376 . S
C462 H449 0.930 . S
C462 C461 1.376 . S
C462 C463 1.388 . S
C463 H450 0.930 . S
C463 C462 1.388 . S
C463 C464 1.390 . S
C464 C463 1.390 . S
C464 C465 1.394 . S
C464 C470 1.465 . S
C465 C460 1.399 . S
C465 C464 1.394 . S
C465 C466 1.516 . S
C466 C465 1.516 . S
C466 C467 1.502 . S
C466 C468 1.561 . S
C466 C469 1.526 . S
C467 H451 0.959 . S
C467 H452 0.959 . S
C467 H453 0.961 . S
C467 C466 1.502 . S
C468 H454 0.960 . S
C468 H455 0.961 . S
C468 H456 0.959 . S
C468 C466 1.561 . S
C469 C466 1.526 . S
C469 C470 1.396 . S
C469 C474 1.390 . S
C470 C464 1.465 . S
C470 C469 1.396 . S
C470 C471 1.399 . S
C471 H457 0.929 . S
C471 C470 1.399 . S
C471 C472 1.385 . S
C472 H458 0.931 . S
C472 C471 1.385 . S
C472 C473 1.389 . S
C473 C472 1.389 . S
C473 C474 1.387 . S
C474 H459 0.930 . S
C474 C469 1.390 . S
C474 C473 1.387 . S
H475 C487 0.930 . S
H476 C489 0.930 . S
H477 C490 0.930 . S
H478 C494 0.959 . S
H479 C494 0.959 . S
H480 C494 0.961 . S
H481 C495 0.960 . S
H482 C495 0.961 . S
H483 C495 0.959 . S
H484 C498 0.929 . S
H485 C499 0.931 . S
H486 C501 0.930 . S
C487 H475 0.930 . S
C487 C488 1.399 . S
C487 C492 1.399 . S
C488 C487 1.399 . S
C488 C489 1.376 . S
C489 H476 0.930 . S
C489 C488 1.376 . S
C489 C490 1.388 . S
C490 H477 0.930 . S
C490 C489 1.388 . S
C490 C491 1.390 . S
C491 C490 1.390 . S
C491 C492 1.394 . S
C491 C497 1.465 . S
C492 C487 1.399 . S
C492 C491 1.394 . S
C492 C493 1.516 . S
C493 C492 1.516 . S
C493 C494 1.502 . S
C493 C495 1.561 . S
C493 C496 1.526 . S
C494 H478 0.959 . S
C494 H479 0.959 . S
C494 H480 0.961 . S
C494 C493 1.502 . S
C495 H481 0.960 . S
C495 H482 0.961 . S
C495 H483 0.959 . S
C495 C493 1.561 . S
C496 C493 1.526 . S
C496 C497 1.396 . S
C496 C501 1.390 . S
C497 C491 1.465 . S
C497 C496 1.396 . S
C497 C498 1.399 . S
C498 H484 0.929 . S
C498 C497 1.399 . S
C498 C499 1.385 . S
C499 H485 0.931 . S
C499 C498 1.385 . S
C499 C500 1.389 . S
C500 C499 1.389 . S
C500 C501 1.387 . S
C501 H486 0.930 . S
C501 C496 1.390 . S
C501 C500 1.387 . S
H502 C514 0.930 . S
H503 C516 0.930 . S
H504 C517 0.930 . S
H505 C521 0.959 . S
H506 C521 0.959 . S
H507 C521 0.961 . S
H508 C522 0.960 . S
H509 C522 0.961 . S
H510 C522 0.959 . S
H511 C525 0.929 . S
H512 C526 0.931 . S
H513 C528 0.930 . S
C514 H502 0.930 . S
C514 C515 1.399 . S
C514 C519 1.399 . S
C515 C514 1.399 . S
C515 C516 1.376 . S
C516 H503 0.930 . S
C516 C515 1.376 . S
C516 C517 1.388 . S
C517 H504 0.930 . S
C517 C516 1.388 . S
C517 C518 1.390 . S
C518 C517 1.390 . S
C518 C519 1.394 . S
C518 C524 1.465 . S
C519 C514 1.399 . S
C519 C518 1.394 . S
C519 C520 1.516 . S
C520 C519 1.516 . S
C520 C521 1.502 . S
C520 C522 1.561 . S
C520 C523 1.526 . S
C521 H505 0.959 . S
C521 H506 0.959 . S
C521 H507 0.961 . S
C521 C520 1.502 . S
C522 H508 0.960 . S
C522 H509 0.961 . S
C522 H510 0.959 . S
C522 C520 1.561 . S
C523 C520 1.526 . S
C523 C524 1.396 . S
C523 C528 1.390 . S
C524 C518 1.465 . S
C524 C523 1.396 . S
C524 C525 1.399 . S
C525 H511 0.929 . S
C525 C524 1.399 . S
C525 C526 1.385 . S
C526 H512 0.931 . S
C526 C525 1.385 . S
C526 C527 1.389 . S
C527 C526 1.389 . S
C527 C528 1.387 . S
C528 H513 0.930 . S
C528 C523 1.390 . S
C528 C527 1.387 . S
H529 C541 0.930 . S
H530 C543 0.930 . S
H531 C544 0.930 . S
H532 C548 0.959 . S
H533 C548 0.959 . S
H534 C548 0.961 . S
H535 C549 0.960 . S
H536 C549 0.961 . S
H537 C549 0.959 . S
H538 C552 0.929 . S
H539 C553 0.931 . S
H540 C555 0.930 . S
C541 H529 0.930 . S
C541 C542 1.399 . S
C541 C546 1.399 . S
C542 C541 1.399 . S
C542 C543 1.376 . S
C543 H530 0.930 . S
C543 C542 1.376 . S
C543 C544 1.388 . S
C544 H531 0.930 . S
C544 C543 1.388 . S
C544 C545 1.390 . S
C545 C544 1.390 . S
C545 C546 1.394 . S
C545 C551 1.465 . S
C546 C541 1.399 . S
C546 C545 1.394 . S
C546 C547 1.516 . S
C547 C546 1.516 . S
C547 C548 1.502 . S
C547 C549 1.561 . S
C547 C550 1.526 . S
C548 H532 0.959 . S
C548 H533 0.959 . S
C548 H534 0.961 . S
C548 C547 1.502 . S
C549 H535 0.960 . S
C549 H536 0.961 . S
C549 H537 0.959 . S
C549 C547 1.561 . S
C550 C547 1.526 . S
C550 C551 1.396 . S
C550 C555 1.390 . S
C551 C545 1.465 . S
C551 C550 1.396 . S
C551 C552 1.399 . S
C552 H538 0.929 . S
C552 C551 1.399 . S
C552 C553 1.385 . S
C553 H539 0.931 . S
C553 C552 1.385 . S
C553 C554 1.389 . S
C554 C553 1.389 . S
C554 C555 1.387 . S
C555 H540 0.930 . S
C555 C550 1.390 . S
C555 C554 1.387 . S
H556 C568 0.930 . S
H557 C570 0.930 . S
H558 C571 0.930 . S
H559 C575 0.959 . S
H560 C575 0.959 . S
H561 C575 0.961 . S
H562 C576 0.960 . S
H563 C576 0.961 . S
H564 C576 0.959 . S
H565 C579 0.929 . S
H566 C580 0.931 . S
H567 C582 0.930 . S
C568 H556 0.930 . S
C568 C569 1.399 . S
C568 C573 1.399 . S
C569 C568 1.399 . S
C569 C570 1.376 . S
C570 H557 0.930 . S
C570 C569 1.376 . S
C570 C571 1.388 . S
C571 H558 0.930 . S
C571 C570 1.388 . S
C571 C572 1.390 . S
C572 C571 1.390 . S
C572 C573 1.394 . S
C572 C578 1.465 . S
C573 C568 1.399 . S
C573 C572 1.394 . S
C573 C574 1.516 . S
C574 C573 1.516 . S
C574 C575 1.502 . S
C574 C576 1.561 . S
C574 C577 1.526 . S
C575 H559 0.959 . S
C575 H560 0.959 . S
C575 H561 0.961 . S
C575 C574 1.502 . S
C576 H562 0.960 . S
C576 H563 0.961 . S
C576 H564 0.959 . S
C576 C574 1.561 . S
C577 C574 1.526 . S
C577 C578 1.396 . S
C577 C582 1.390 . S
C578 C572 1.465 . S
C578 C577 1.396 . S
C578 C579 1.399 . S
C579 H565 0.929 . S
C579 C578 1.399 . S
C579 C580 1.385 . S
C580 H566 0.931 . S
C580 C579 1.385 . S
C580 C581 1.389 . S
C581 C580 1.389 . S
C581 C582 1.387 . S
C582 H567 0.930 . S
C582 C577 1.390 . S
C582 C581 1.387 . S
H583 C595 0.930 . S
H584 C597 0.930 . S
H585 C598 0.930 . S
H586 C602 0.959 . S
H587 C602 0.959 . S
H588 C602 0.961 . S
H589 C603 0.960 . S
H590 C603 0.961 . S
H591 C603 0.959 . S
H592 C606 0.929 . S
H593 C607 0.931 . S
H594 C609 0.930 . S
C595 H583 0.930 . S
C595 C596 1.399 . S
C595 C600 1.399 . S
C596 C595 1.399 . S
C596 C597 1.376 . S
C597 H584 0.930 . S
C597 C596 1.376 . S
C597 C598 1.388 . S
C598 H585 0.930 . S
C598 C597 1.388 . S
C598 C599 1.390 . S
C599 C598 1.390 . S
C599 C600 1.394 . S
C599 C605 1.465 . S
C600 C595 1.399 . S
C600 C599 1.394 . S
C600 C601 1.516 . S
C601 C600 1.516 . S
C601 C602 1.502 . S
C601 C603 1.561 . S
C601 C604 1.526 . S
C602 H586 0.959 . S
C602 H587 0.959 . S
C602 H588 0.961 . S
C602 C601 1.502 . S
C603 H589 0.960 . S
C603 H590 0.961 . S
C603 H591 0.959 . S
C603 C601 1.561 . S
C604 C601 1.526 . S
C604 C605 1.396 . S
C604 C609 1.390 . S
C605 C599 1.465 . S
C605 C604 1.396 . S
C605 C606 1.399 . S
C606 H592 0.929 . S
C606 C605 1.399 . S
C606 C607 1.385 . S
C607 H593 0.931 . S
C607 C606 1.385 . S
C607 C608 1.389 . S
C608 C607 1.389 . S
C608 C609 1.387 . S
C609 H594 0.930 . S
C609 C604 1.390 . S
C609 C608 1.387 . S
H610 C622 0.930 . S
H611 C624 0.930 . S
H612 C625 0.930 . S
H613 C629 0.959 . S
H614 C629 0.959 . S
H615 C629 0.961 . S
H616 C630 0.960 . S
H617 C630 0.961 . S
H618 C630 0.959 . S
H619 C633 0.929 . S
H620 C634 0.931 . S
H621 C636 0.930 . S
C622 H610 0.930 . S
C622 C623 1.399 . S
C622 C627 1.399 . S
C623 C622 1.399 . S
C623 C624 1.376 . S
C624 H611 0.930 . S
C624 C623 1.376 . S
C624 C625 1.388 . S
C625 H612 0.930 . S
C625 C624 1.388 . S
C625 C626 1.390 . S
C626 C625 1.390 . S
C626 C627 1.394 . S
C626 C632 1.465 . S
C627 C622 1.399 . S
C627 C626 1.394 . S
C627 C628 1.516 . S
C628 C627 1.516 . S
C628 C629 1.502 . S
C628 C630 1.561 . S
C628 C631 1.526 . S
C629 H613 0.959 . S
C629 H614 0.959 . S
C629 H615 0.961 . S
C629 C628 1.502 . S
C630 H616 0.960 . S
C630 H617 0.961 . S
C630 H618 0.959 . S
C630 C628 1.561 . S
C631 C628 1.526 . S
C631 C632 1.396 . S
C631 C636 1.390 . S
C632 C626 1.465 . S
C632 C631 1.396 . S
C632 C633 1.399 . S
C633 H619 0.929 . S
C633 C632 1.399 . S
C633 C634 1.385 . S
C634 H620 0.931 . S
C634 C633 1.385 . S
C634 C635 1.389 . S
C635 C634 1.389 . S
C635 C636 1.387 . S
C636 H621 0.930 . S
C636 C631 1.390 . S
C636 C635 1.387 . S
H637 C649 0.930 . S
H638 C651 0.930 . S
H639 C652 0.930 . S
H640 C656 0.959 . S
H641 C656 0.959 . S
H642 C656 0.961 . S
H643 C657 0.960 . S
H644 C657 0.961 . S
H645 C657 0.959 . S
H646 C660 0.929 . S
H647 C661 0.931 . S
H648 C663 0.930 . S
C649 H637 0.930 . S
C649 C650 1.399 . S
C649 C654 1.399 . S
C650 C649 1.399 . S
C650 C651 1.376 . S
C651 H638 0.930 . S
C651 C650 1.376 . S
C651 C652 1.388 . S
C652 H639 0.930 . S
C652 C651 1.388 . S
C652 C653 1.390 . S
C653 C652 1.390 . S
C653 C654 1.394 . S
C653 C659 1.465 . S
C654 C649 1.399 . S
C654 C653 1.394 . S
C654 C655 1.516 . S
C655 C654 1.516 . S
C655 C656 1.502 . S
C655 C657 1.561 . S
C655 C658 1.526 . S
C656 H640 0.959 . S
C656 H641 0.959 . S
C656 H642 0.961 . S
C656 C655 1.502 . S
C657 H643 0.960 . S
C657 H644 0.961 . S
C657 H645 0.959 . S
C657 C655 1.561 . S
C658 C655 1.526 . S
C658 C659 1.396 . S
C658 C663 1.390 . S
C659 C653 1.465 . S
C659 C658 1.396 . S
C659 C660 1.399 . S
C660 H646 0.929 . S
C660 C659 1.399 . S
C660 C661 1.385 . S
C661 H647 0.931 . S
C661 C660 1.385 . S
C661 C662 1.389 . S
C662 C661 1.389 . S
C662 C663 1.387 . S
C663 H648 0.930 . S
C663 C658 1.390 . S
C663 C662 1.387 . S
H664 C676 0.930 . S
H665 C678 0.930 . S
H666 C679 0.930 . S
H667 C683 0.959 . S
H668 C683 0.959 . S
H669 C683 0.961 . S
H670 C684 0.960 . S
H671 C684 0.961 . S
H672 C684 0.959 . S
H673 C687 0.929 . S
H674 C688 0.931 . S
H675 C690 0.930 . S
C676 H664 0.930 . S
C676 C677 1.399 . S
C676 C681 1.399 . S
C677 C676 1.399 . S
C677 C678 1.376 . S
C678 H665 0.930 . S
C678 C677 1.376 . S
C678 C679 1.388 . S
C679 H666 0.930 . S
C679 C678 1.388 . S
C679 C680 1.390 . S
C680 C679 1.390 . S
C680 C681 1.394 . S
C680 C686 1.465 . S
C681 C676 1.399 . S
C681 C680 1.394 . S
C681 C682 1.516 . S
C682 C681 1.516 . S
C682 C683 1.502 . S
C682 C684 1.561 . S
C682 C685 1.526 . S
C683 H667 0.959 . S
C683 H668 0.959 . S
C683 H669 0.961 . S
C683 C682 1.502 . S
C684 H670 0.960 . S
C684 H671 0.961 . S
C684 H672 0.959 . S
C684 C682 1.561 . S
C685 C682 1.526 . S
C685 C686 1.396 . S
C685 C690 1.390 . S
C686 C680 1.465 . S
C686 C685 1.396 . S
C686 C687 1.399 . S
C687 H673 0.929 . S
C687 C686 1.399 . S
C687 C688 1.385 . S
C688 H674 0.931 . S
C688 C687 1.385 . S
C688 C689 1.389 . S
C689 C688 1.389 . S
C689 C690 1.387 . S
C690 H675 0.930 . S
C690 C685 1.390 . S
C690 C689 1.387 . S
H691 C703 0.930 . S
H692 C705 0.930 . S
H693 C706 0.930 . S
H694 C710 0.959 . S
H695 C710 0.959 . S
H696 C710 0.961 . S
H697 C711 0.960 . S
H698 C711 0.961 . S
H699 C711 0.959 . S
H700 C714 0.929 . S
H701 C715 0.931 . S
H702 C717 0.930 . S
C703 H691 0.930 . S
C703 C704 1.399 . S
C703 C708 1.399 . S
C704 C703 1.399 . S
C704 C705 1.376 . S
C705 H692 0.930 . S
C705 C704 1.376 . S
C705 C706 1.388 . S
C706 H693 0.930 . S
C706 C705 1.388 . S
C706 C707 1.390 . S
C707 C706 1.390 . S
C707 C708 1.394 . S
C707 C713 1.465 . S
C708 C703 1.399 . S
C708 C707 1.394 . S
C708 C709 1.516 . S
C709 C708 1.516 . S
C709 C710 1.502 . S
C709 C711 1.561 . S
C709 C712 1.526 . S
C710 H694 0.959 . S
C710 H695 0.959 . S
C710 H696 0.961 . S
C710 C709 1.502 . S
C711 H697 0.960 . S
C711 H698 0.961 . S
C711 H699 0.959 . S
C711 C709 1.561 . S
C712 C709 1.526 . S
C712 C713 1.396 . S
C712 C717 1.390 . S
C713 C707 1.465 . S
C713 C712 1.396 . S
C713 C714 1.399 . S
C714 H700 0.929 . S
C714 C713 1.399 . S
C714 C715 1.385 . S
C715 H701 0.931 . S
C715 C714 1.385 . S
C715 C716 1.389 . S
C716 C715 1.389 . S
C716 C717 1.387 . S
C717 H702 0.930 . S
C717 C712 1.390 . S
C717 C716 1.387 . S
H718 C730 0.930 . S
H719 C732 0.930 . S
H720 C733 0.930 . S
H721 C737 0.959 . S
H722 C737 0.959 . S
H723 C737 0.961 . S
H724 C738 0.960 . S
H725 C738 0.961 . S
H726 C738 0.959 . S
H727 C741 0.929 . S
H728 C742 0.931 . S
H729 C744 0.930 . S
C730 H718 0.930 . S
C730 C731 1.399 . S
C730 C735 1.399 . S
C731 C730 1.399 . S
C731 C732 1.376 . S
C732 H719 0.930 . S
C732 C731 1.376 . S
C732 C733 1.388 . S
C733 H720 0.930 . S
C733 C732 1.388 . S
C733 C734 1.390 . S
C734 C733 1.390 . S
C734 C735 1.394 . S
C734 C740 1.465 . S
C735 C730 1.399 . S
C735 C734 1.394 . S
C735 C736 1.516 . S
C736 C735 1.516 . S
C736 C737 1.502 . S
C736 C738 1.561 . S
C736 C739 1.526 . S
C737 H721 0.959 . S
C737 H722 0.959 . S
C737 H723 0.961 . S
C737 C736 1.502 . S
C738 H724 0.960 . S
C738 H725 0.961 . S
C738 H726 0.959 . S
C738 C736 1.561 . S
C739 C736 1.526 . S
C739 C740 1.396 . S
C739 C744 1.390 . S
C740 C734 1.465 . S
C740 C739 1.396 . S
C740 C741 1.399 . S
C741 H727 0.929 . S
C741 C740 1.399 . S
C741 C742 1.385 . S
C742 H728 0.931 . S
C742 C741 1.385 . S
C742 C743 1.389 . S
C743 C742 1.389 . S
C743 C744 1.387 . S
C744 H729 0.930 . S
C744 C739 1.390 . S
C744 C743 1.387 . S
H745 C757 0.930 . S
H746 C759 0.930 . S
H747 C760 0.930 . S
H748 C764 0.959 . S
H749 C764 0.959 . S
H750 C764 0.961 . S
H751 C765 0.960 . S
H752 C765 0.961 . S
H753 C765 0.959 . S
H754 C768 0.929 . S
H755 C769 0.931 . S
H756 C771 0.930 . S
C757 H745 0.930 . S
C757 C758 1.399 . S
C757 C762 1.399 . S
C758 C757 1.399 . S
C758 C759 1.376 . S
C759 H746 0.930 . S
C759 C758 1.376 . S
C759 C760 1.388 . S
C760 H747 0.930 . S
C760 C759 1.388 . S
C760 C761 1.390 . S
C761 C760 1.390 . S
C761 C762 1.394 . S
C761 C767 1.465 . S
C762 C757 1.399 . S
C762 C761 1.394 . S
C762 C763 1.516 . S
C763 C762 1.516 . S
C763 C764 1.502 . S
C763 C765 1.561 . S
C763 C766 1.526 . S
C764 H748 0.959 . S
C764 H749 0.959 . S
C764 H750 0.961 . S
C764 C763 1.502 . S
C765 H751 0.960 . S
C765 H752 0.961 . S
C765 H753 0.959 . S
C765 C763 1.561 . S
C766 C763 1.526 . S
C766 C767 1.396 . S
C766 C771 1.390 . S
C767 C761 1.465 . S
C767 C766 1.396 . S
C767 C768 1.399 . S
C768 H754 0.929 . S
C768 C767 1.399 . S
C768 C769 1.385 . S
C769 H755 0.931 . S
C769 C768 1.385 . S
C769 C770 1.389 . S
C770 C769 1.389 . S
C770 C771 1.387 . S
C771 H756 0.930 . S
C771 C766 1.390 . S
C771 C770 1.387 . S
H772 C784 0.930 . S
H773 C786 0.930 . S
H774 C787 0.930 . S
H775 C791 0.959 . S
H776 C791 0.959 . S
H777 C791 0.961 . S
H778 C792 0.960 . S
H779 C792 0.961 . S
H780 C792 0.959 . S
H781 C795 0.929 . S
H782 C796 0.931 . S
H783 C798 0.930 . S
C784 H772 0.930 . S
C784 C785 1.399 . S
C784 C789 1.399 . S
C785 C784 1.399 . S
C785 C786 1.376 . S
C786 H773 0.930 . S
C786 C785 1.376 . S
C786 C787 1.388 . S
C787 H774 0.930 . S
C787 C786 1.388 . S
C787 C788 1.390 . S
C788 C787 1.390 . S
C788 C789 1.394 . S
C788 C794 1.465 . S
C789 C784 1.399 . S
C789 C788 1.394 . S
C789 C790 1.516 . S
C790 C789 1.516 . S
C790 C791 1.502 . S
C790 C792 1.561 . S
C790 C793 1.526 . S
C791 H775 0.959 . S
C791 H776 0.959 . S
C791 H777 0.961 . S
C791 C790 1.502 . S
C792 H778 0.960 . S
C792 H779 0.961 . S
C792 H780 0.959 . S
C792 C790 1.561 . S
C793 C790 1.526 . S
C793 C794 1.396 . S
C793 C798 1.390 . S
C794 C788 1.465 . S
C794 C793 1.396 . S
C794 C795 1.399 . S
C795 H781 0.929 . S
C795 C794 1.399 . S
C795 C796 1.385 . S
C796 H782 0.931 . S
C796 C795 1.385 . S
C796 C797 1.389 . S
C797 C796 1.389 . S
C797 C798 1.387 . S
C798 H783 0.930 . S
C798 C793 1.390 . S
C798 C797 1.387 . S
H799 C811 0.930 . S
H800 C813 0.930 . S
H801 C814 0.930 . S
H802 C818 0.959 . S
H803 C818 0.959 . S
H804 C818 0.961 . S
H805 C819 0.960 . S
H806 C819 0.961 . S
H807 C819 0.959 . S
H808 C822 0.929 . S
H809 C823 0.931 . S
H810 C825 0.930 . S
C811 H799 0.930 . S
C811 C812 1.399 . S
C811 C816 1.399 . S
C812 C811 1.399 . S
C812 C813 1.376 . S
C813 H800 0.930 . S
C813 C812 1.376 . S
C813 C814 1.388 . S
C814 H801 0.930 . S
C814 C813 1.388 . S
C814 C815 1.390 . S
C815 C814 1.390 . S
C815 C816 1.394 . S
C815 C821 1.465 . S
C816 C811 1.399 . S
C816 C815 1.394 . S
C816 C817 1.516 . S
C817 C816 1.516 . S
C817 C818 1.502 . S
C817 C819 1.561 . S
C817 C820 1.526 . S
C818 H802 0.959 . S
C818 H803 0.959 . S
C818 H804 0.961 . S
C818 C817 1.502 . S
C819 H805 0.960 . S
C819 H806 0.961 . S
C819 H807 0.959 . S
C819 C817 1.561 . S
C820 C817 1.526 . S
C820 C821 1.396 . S
C820 C825 1.390 . S
C821 C815 1.465 . S
C821 C820 1.396 . S
C821 C822 1.399 . S
C822 H808 0.929 . S
C822 C821 1.399 . S
C822 C823 1.385 . S
C823 H809 0.931 . S
C823 C822 1.385 . S
C823 C824 1.389 . S
C824 C823 1.389 . S
C824 C825 1.387 . S
C825 H810 0.930 . S
C825 C820 1.390 . S
C825 C824 1.387 . S
H826 C838 0.930 . S
H827 C840 0.930 . S
H828 C841 0.930 . S
H829 C845 0.959 . S
H830 C845 0.959 . S
H831 C845 0.961 . S
H832 C846 0.960 . S
H833 C846 0.961 . S
H834 C846 0.959 . S
H835 C849 0.929 . S
H836 C850 0.931 . S
H837 C852 0.930 . S
C838 H826 0.930 . S
C838 C839 1.399 . S
C838 C843 1.399 . S
C839 C838 1.399 . S
C839 C840 1.376 . S
C840 H827 0.930 . S
C840 C839 1.376 . S
C840 C841 1.388 . S
C841 H828 0.930 . S
C841 C840 1.388 . S
C841 C842 1.390 . S
C842 C841 1.390 . S
C842 C843 1.394 . S
C842 C848 1.465 . S
C843 C838 1.399 . S
C843 C842 1.394 . S
C843 C844 1.516 . S
C844 C843 1.516 . S
C844 C845 1.502 . S
C844 C846 1.561 . S
C844 C847 1.526 . S
C845 H829 0.959 . S
C845 H830 0.959 . S
C845 H831 0.961 . S
C845 C844 1.502 . S
C846 H832 0.960 . S
C846 H833 0.961 . S
C846 H834 0.959 . S
C846 C844 1.561 . S
C847 C844 1.526 . S
C847 C848 1.396 . S
C847 C852 1.390 . S
C848 C842 1.465 . S
C848 C847 1.396 . S
C848 C849 1.399 . S
C849 H835 0.929 . S
C849 C848 1.399 . S
C849 C850 1.385 . S
C850 H836 0.931 . S
C850 C849 1.385 . S
C850 C851 1.389 . S
C851 C850 1.389 . S
C851 C852 1.387 . S
C852 H837 0.930 . S
C852 C847 1.390 . S
C852 C851 1.387 . S
H853 C865 0.930 . S
H854 C867 0.930 . S
H855 C868 0.930 . S
H856 C872 0.959 . S
H857 C872 0.959 . S
H858 C872 0.961 . S
H859 C873 0.960 . S
H860 C873 0.961 . S
H861 C873 0.959 . S
H862 C876 0.929 . S
H863 C877 0.931 . S
H864 C879 0.930 . S
C865 H853 0.930 . S
C865 C866 1.399 . S
C865 C870 1.399 . S
C866 C865 1.399 . S
C866 C867 1.376 . S
C867 H854 0.930 . S
C867 C866 1.376 . S
C867 C868 1.388 . S
C868 H855 0.930 . S
C868 C867 1.388 . S
C868 C869 1.390 . S
C869 C868 1.390 . S
C869 C870 1.394 . S
C869 C875 1.465 . S
C870 C865 1.399 . S
C870 C869 1.394 . S
C870 C871 1.516 . S
C871 C870 1.516 . S
C871 C872 1.502 . S
C871 C873 1.561 . S
C871 C874 1.526 . S
C872 H856 0.959 . S
C872 H857 0.959 . S
C872 H858 0.961 . S
C872 C871 1.502 . S
C873 H859 0.960 . S
C873 H860 0.961 . S
C873 H861 0.959 . S
C873 C871 1.561 . S
C874 C871 1.526 . S
C874 C875 1.396 . S
C874 C879 1.390 . S
C875 C869 1.465 . S
C875 C874 1.396 . S
C875 C876 1.399 . S
C876 H862 0.929 . S
C876 C875 1.399 . S
C876 C877 1.385 . S
C877 H863 0.931 . S
C877 C876 1.385 . S
C877 C878 1.389 . S
C878 C877 1.389 . S
C878 C879 1.387 . S
C879 H864 0.930 . S
C879 C874 1.390 . S
C879 C878 1.387 . S
H880 C892 0.930 . S
H881 C894 0.930 . S
H882 C895 0.930 . S
H883 C899 0.959 . S
H884 C899 0.959 . S
H885 C899 0.961 . S
H886 C900 0.960 . S
H887 C900 0.961 . S
H888 C900 0.959 . S
H889 C903 0.929 . S
H890 C904 0.931 . S
H891 C906 0.930 . S
C892 H880 0.930 . S
C892 C893 1.399 . S
C892 C897 1.399 . S
C893 C892 1.399 . S
C893 C894 1.376 . S
C894 H881 0.930 . S
C894 C893 1.376 . S
C894 C895 1.388 . S
C895 H882 0.930 . S
C895 C894 1.388 . S
C895 C896 1.390 . S
C896 C895 1.390 . S
C896 C897 1.394 . S
C896 C902 1.465 . S
C897 C892 1.399 . S
C897 C896 1.394 . S
C897 C898 1.516 . S
C898 C897 1.516 . S
C898 C899 1.502 . S
C898 C900 1.561 . S
C898 C901 1.526 . S
C899 H883 0.959 . S
C899 H884 0.959 . S
C899 H885 0.961 . S
C899 C898 1.502 . S
C900 H886 0.960 . S
C900 H887 0.961 . S
C900 H888 0.959 . S
C900 C898 1.561 . S
C901 C898 1.526 . S
C901 C902 1.396 . S
C901 C906 1.390 . S
C902 C896 1.465 . S
C902 C901 1.396 . S
C902 C903 1.399 . S
C903 H889 0.929 . S
C903 C902 1.399 . S
C903 C904 1.385 . S
C904 H890 0.931 . S
C904 C903 1.385 . S
C904 C905 1.389 . S
C905 C904 1.389 . S
C905 C906 1.387 . S
C906 H891 0.930 . S
C906 C901 1.390 . S
C906 C905 1.387 . S
H907 C919 0.930 . S
H908 C921 0.930 . S
H909 C922 0.930 . S
H910 C926 0.959 . S
H911 C926 0.959 . S
H912 C926 0.961 . S
H913 C927 0.960 . S
H914 C927 0.961 . S
H915 C927 0.959 . S
H916 C930 0.929 . S
H917 C931 0.931 . S
H918 C933 0.930 . S
C919 H907 0.930 . S
C919 C920 1.399 . S
C919 C924 1.399 . S
C920 C919 1.399 . S
C920 C921 1.376 . S
C921 H908 0.930 . S
C921 C920 1.376 . S
C921 C922 1.388 . S
C922 H909 0.930 . S
C922 C921 1.388 . S
C922 C923 1.390 . S
C923 C922 1.390 . S
C923 C924 1.394 . S
C923 C929 1.465 . S
C924 C919 1.399 . S
C924 C923 1.394 . S
C924 C925 1.516 . S
C925 C924 1.516 . S
C925 C926 1.502 . S
C925 C927 1.561 . S
C925 C928 1.526 . S
C926 H910 0.959 . S
C926 H911 0.959 . S
C926 H912 0.961 . S
C926 C925 1.502 . S
C927 H913 0.960 . S
C927 H914 0.961 . S
C927 H915 0.959 . S
C927 C925 1.561 . S
C928 C925 1.526 . S
C928 C929 1.396 . S
C928 C933 1.390 . S
C929 C923 1.465 . S
C929 C928 1.396 . S
C929 C930 1.399 . S
C930 H916 0.929 . S
C930 C929 1.399 . S
C930 C931 1.385 . S
C931 H917 0.931 . S
C931 C930 1.385 . S
C931 C932 1.389 . S
C932 C931 1.389 . S
C932 C933 1.387 . S
C933 H918 0.930 . S
C933 C928 1.390 . S
C933 C932 1.387 . S
H934 C946 0.930 . S
H935 C948 0.930 . S
H936 C949 0.930 . S
H937 C953 0.959 . S
H938 C953 0.959 . S
H939 C953 0.961 . S
H940 C954 0.960 . S
H941 C954 0.961 . S
H942 C954 0.959 . S
H943 C957 0.929 . S
H944 C958 0.931 . S
H945 C960 0.930 . S
C946 H934 0.930 . S
C946 C947 1.399 . S
C946 C951 1.399 . S
C947 C946 1.399 . S
C947 C948 1.376 . S
C948 H935 0.930 . S
C948 C947 1.376 . S
C948 C949 1.388 . S
C949 H936 0.930 . S
C949 C948 1.388 . S
C949 C950 1.390 . S
C950 C949 1.390 . S
C950 C951 1.394 . S
C950 C956 1.465 . S
C951 C946 1.399 . S
C951 C950 1.394 . S
C951 C952 1.516 . S
C952 C951 1.516 . S
C952 C953 1.502 . S
C952 C954 1.561 . S
C952 C955 1.526 . S
C953 H937 0.959 . S
C953 H938 0.959 . S
C953 H939 0.961 . S
C953 C952 1.502 . S
C954 H940 0.960 . S
C954 H941 0.961 . S
C954 H942 0.959 . S
C954 C952 1.561 . S
C955 C952 1.526 . S
C955 C956 1.396 . S
C955 C960 1.390 . S
C956 C950 1.465 . S
C956 C955 1.396 . S
C956 C957 1.399 . S
C957 H943 0.929 . S
C957 C956 1.399 . S
C957 C958 1.385 . S
C958 H944 0.931 . S
C958 C957 1.385 . S
C958 C959 1.389 . S
C959 C958 1.389 . S
C959 C960 1.387 . S
C960 H945 0.930 . S
C960 C955 1.390 . S
C960 C959 1.387 . S
H961 C973 0.930 . S
H962 C975 0.930 . S
H963 C976 0.930 . S
H964 C980 0.959 . S
H965 C980 0.959 . S
H966 C980 0.961 . S
H967 C981 0.960 . S
H968 C981 0.961 . S
H969 C981 0.959 . S
H970 C984 0.929 . S
H971 C985 0.931 . S
H972 C987 0.930 . S
C973 H961 0.930 . S
C973 C974 1.399 . S
C973 C978 1.399 . S
C974 C973 1.399 . S
C974 C975 1.376 . S
C975 H962 0.930 . S
C975 C974 1.376 . S
C975 C976 1.388 . S
C976 H963 0.930 . S
C976 C975 1.388 . S
C976 C977 1.390 . S
C977 C976 1.390 . S
C977 C978 1.394 . S
C977 C983 1.465 . S
C978 C973 1.399 . S
C978 C977 1.394 . S
C978 C979 1.516 . S
C979 C978 1.516 . S
C979 C980 1.502 . S
C979 C981 1.561 . S
C979 C982 1.526 . S
C980 H964 0.959 . S
C980 H965 0.959 . S
C980 H966 0.961 . S
C980 C979 1.502 . S
C981 H967 0.960 . S
C981 H968 0.961 . S
C981 H969 0.959 . S
C981 C979 1.561 . S
C982 C979 1.526 . S
C982 C983 1.396 . S
C982 C987 1.390 . S
C983 C977 1.465 . S
C983 C982 1.396 . S
C983 C984 1.399 . S
C984 H970 0.929 . S
C984 C983 1.399 . S
C984 C985 1.385 . S
C985 H971 0.931 . S
C985 C984 1.385 . S
C985 C986 1.389 . S
C986 C985 1.389 . S
C986 C987 1.387 . S
C987 H972 0.930 . S
C987 C982 1.390 . S
C987 C986 1.387 . S
H988 C1000 0.930 . S
H989 C1002 0.930 . S
H990 C1003 0.930 . S
H991 C1007 0.959 . S
H992 C1007 0.959 . S
H993 C1007 0.961 . S
H994 C1008 0.960 . S
H995 C1008 0.961 . S
H996 C1008 0.959 . S
H997 C1011 0.929 . S
H998 C1012 0.931 . S
H999 C1014 0.930 . S
C1000 H988 0.930 . S
C1000 C1001 1.399 . S
C1000 C1005 1.399 . S
C1001 C1000 1.399 . S
C1001 C1002 1.376 . S
C1002 H989 0.930 . S
C1002 C1001 1.376 . S
C1002 C1003 1.388 . S
C1003 H990 0.930 . S
C1003 C1002 1.388 . S
C1003 C1004 1.390 . S
C1004 C1003 1.390 . S
C1004 C1005 1.394 . S
C1004 C1010 1.465 . S
C1005 C1000 1.399 . S
C1005 C1004 1.394 . S
C1005 C1006 1.516 . S
C1006 C1005 1.516 . S
C1006 C1007 1.502 . S
C1006 C1008 1.561 . S
C1006 C1009 1.526 . S
C1007 H991 0.959 . S
C1007 H992 0.959 . S
C1007 H993 0.961 . S
C1007 C1006 1.502 . S
C1008 H994 0.960 . S
C1008 H995 0.961 . S
C1008 H996 0.959 . S
C1008 C1006 1.561 . S
C1009 C1006 1.526 . S
C1009 C1010 1.396 . S
C1009 C1014 1.390 . S
C1010 C1004 1.465 . S
C1010 C1009 1.396 . S
C1010 C1011 1.399 . S
C1011 H997 0.929 . S
C1011 C1010 1.399 . S
C1011 C1012 1.385 . S
C1012 H998 0.931 . S
C1012 C1011 1.385 . S
C1012 C1013 1.389 . S
C1013 C1012 1.389 . S
C1013 C1014 1.387 . S
C1014 H999 0.930 . S
C1014 C1009 1.390 . S
C1014 C1013 1.387 . S
H1015 C1027 0.930 . S
H1016 C1029 0.930 . S
H1017 C1030 0.930 . S
H1018 C1034 0.959 . S
H1019 C1034 0.959 . S
H1020 C1034 0.961 . S
H1021 C1035 0.960 . S
H1022 C1035 0.961 . S
H1023 C1035 0.959 . S
H1024 C1038 0.929 . S
H1025 C1039 0.931 . S
H1026 C1041 0.930 . S
C1027 H1015 0.930 . S
C1027 C1028 1.399 . S
C1027 C1032 1.399 . S
C1028 C1027 1.399 . S
C1028 C1029 1.376 . S
C1029 H1016 0.930 . S
C1029 C1028 1.376 . S
C1029 C1030 1.388 . S
C1030 H1017 0.930 . S
C1030 C1029 1.388 . S
C1030 C1031 1.390 . S
C1031 C1030 1.390 . S
C1031 C1032 1.394 . S
C1031 C1037 1.465 . S
C1032 C1027 1.399 . S
C1032 C1031 1.394 . S
C1032 C1033 1.516 . S
C1033 C1032 1.516 . S
C1033 C1034 1.502 . S
C1033 C1035 1.561 . S
C1033 C1036 1.526 . S
C1034 H1018 0.959 . S
C1034 H1019 0.959 . S
C1034 H1020 0.961 . S
C1034 C1033 1.502 . S
C1035 H1021 0.960 . S
C1035 H1022 0.961 . S
C1035 H1023 0.959 . S
C1035 C1033 1.561 . S
C1036 C1033 1.526 . S
C1036 C1037 1.396 . S
C1036 C1041 1.390 . S
C1037 C1031 1.465 . S
C1037 C1036 1.396 . S
C1037 C1038 1.399 . S
C1038 H1024 0.929 . S
C1038 C1037 1.399 . S
C1038 C1039 1.385 . S
C1039 H1025 0.931 . S
C1039 C1038 1.385 . S
C1039 C1040 1.389 . S
C1040 C1039 1.389 . S
C1040 C1041 1.387 . S
C1041 H1026 0.930 . S
C1041 C1036 1.390 . S
C1041 C1040 1.387 . S
H1042 C1054 0.930 . S
H1043 C1056 0.930 . S
H1044 C1057 0.930 . S
H1045 C1061 0.959 . S
H1046 C1061 0.959 . S
H1047 C1061 0.961 . S
H1048 C1062 0.960 . S
H1049 C1062 0.961 . S
H1050 C1062 0.959 . S
H1051 C1065 0.929 . S
H1052 C1066 0.931 . S
H1053 C1068 0.930 . S
C1054 H1042 0.930 . S
C1054 C1055 1.399 . S
C1054 C1059 1.399 . S
C1055 C1054 1.399 . S
C1055 C1056 1.376 . S
C1056 H1043 0.930 . S
C1056 C1055 1.376 . S
C1056 C1057 1.388 . S
C1057 H1044 0.930 . S
C1057 C1056 1.388 . S
C1057 C1058 1.390 . S
C1058 C1057 1.390 . S
C1058 C1059 1.394 . S
C1058 C1064 1.465 . S
C1059 C1054 1.399 . S
C1059 C1058 1.394 . S
C1059 C1060 1.516 . S
C1060 C1059 1.516 . S
C1060 C1061 1.502 . S
C1060 C1062 1.561 . S
C1060 C1063 1.526 . S
C1061 H1045 0.959 . S
C1061 H1046 0.959 . S
C1061 H1047 0.961 . S
C1061 C1060 1.502 . S
C1062 H1048 0.960 . S
C1062 H1049 0.961 . S
C1062 H1050 0.959 . S
C1062 C1060 1.561 . S
C1063 C1060 1.526 . S
C1063 C1064 1.396 . S
C1063 C1068 1.390 . S
C1064 C1058 1.465 . S
C1064 C1063 1.396 . S
C1064 C1065 1.399 . S
C1065 H1051 0.929 . S
C1065 C1064 1.399 . S
C1065 C1066 1.385 . S
C1066 H1052 0.931 . S
C1066 C1065 1.385 . S
C1066 C1067 1.389 . S
C1067 C1066 1.389 . S
C1067 C1068 1.387 . S
C1068 H1053 0.930 . S
C1068 C1063 1.390 . S
C1068 C1067 1.387 . S
H1069 C1081 0.930 . S
H1070 C1083 0.930 . S
H1071 C1084 0.930 . S
H1072 C1088 0.959 . S
H1073 C1088 0.959 . S
H1074 C1088 0.961 . S
H1075 C1089 0.960 . S
H1076 C1089 0.961 . S
H1077 C1089 0.959 . S
H1078 C1092 0.929 . S
H1079 C1093 0.931 . S
H1080 C1095 0.930 . S
C1081 H1069 0.930 . S
C1081 C1082 1.399 . S
C1081 C1086 1.399 . S
C1082 C1081 1.399 . S
C1082 C1083 1.376 . S
C1083 H1070 0.930 . S
C1083 C1082 1.376 . S
C1083 C1084 1.388 . S
C1084 H1071 0.930 . S
C1084 C1083 1.388 . S
C1084 C1085 1.390 . S
C1085 C1084 1.390 . S
C1085 C1086 1.394 . S
C1085 C1091 1.465 . S
C1086 C1081 1.399 . S
C1086 C1085 1.394 . S
C1086 C1087 1.516 . S
C1087 C1086 1.516 . S
C1087 C1088 1.502 . S
C1087 C1089 1.561 . S
C1087 C1090 1.526 . S
C1088 H1072 0.959 . S
C1088 H1073 0.959 . S
C1088 H1074 0.961 . S
C1088 C1087 1.502 . S
C1089 H1075 0.960 . S
C1089 H1076 0.961 . S
C1089 H1077 0.959 . S
C1089 C1087 1.561 . S
C1090 C1087 1.526 . S
C1090 C1091 1.396 . S
C1090 C1095 1.390 . S
C1091 C1085 1.465 . S
C1091 C1090 1.396 . S
C1091 C1092 1.399 . S
C1092 H1078 0.929 . S
C1092 C1091 1.399 . S
C1092 C1093 1.385 . S
C1093 H1079 0.931 . S
C1093 C1092 1.385 . S
C1093 C1094 1.389 . S
C1094 C1093 1.389 . S
C1094 C1095 1.387 . S
C1095 H1080 0.930 . S
C1095 C1090 1.390 . S
C1095 C1094 1.387 . S
C461 C1 1.218 . S
C473 C295 1.288 . S
C488 C67 0.960 . S
C500 C344 1.004 . S
C527 C370 2.439 . S
C515 C97 2.474 . S
C542 C133 2.392 . S
C554 C418 2.356 . S
C581 C330 2.501 . S
C569 C25 2.443 . S
C608 C298 0.777 . S
C596 C37 0.887 . S
C635 C419 1.902 . S
C623 C103 1.940 . S
C662 C387 1.591 . S
C650 C109 1.613 . S
C677 C31 1.711 . S
C689 C415 1.744 . S
C716 C347 2.288 . S
C704 C73 2.383 . S
C731 C139 2.355 . S
C743 C299 2.333 . S
C758 C61 0.867 . S
C770 C384 0.885 . S
C797 C304 1.304 . S
C785 C175 1.200 . S
C812 C181 1.003 . S
C824 C335 0.921 . S
C839 C247 2.503 . S
C851 C379 2.452 . S
C866 C277 2.371 . S
C878 C427 2.311 . S
C893 C145 2.353 . S
C905 C339 2.490 . S
C932 C307 0.881 . S
C920 C211 0.854 . S
C959 C410 1.861 . S
C947 C217 1.924 . S
C986 C378 1.597 . S
C974 C283 1.636 . S
C1001 C169 1.581 . S
C1013 C424 1.746 . S
C1040 C338 2.319 . S
C1028 C241 2.378 . S
C1067 C290 2.336 . S
C1055 C253 2.337 . S
C1082 C205 0.831 . S
C1094 C375 0.896 . S
