# Generated by pormake.
# Topology zzz, (3,6)-cn, num edge types: 1
# Building blocks:
#     Node 0, Type 0, BuildingBlock: MIDCAF_clean_linker_0, # of connection points: 3
#     Node 1, Type 0, BuildingBlock: MIDCAF_clean_linker_0, # of connection points: 3
#     Node 2, Type 0, BuildingBlock: MIDCAF_clean_linker_0, # of connection points: 3
#     Node 3, Type 0, BuildingBlock: MIDCAF_clean_linker_0, # of connection points: 3
#     Node 4, Type 0, BuildingBlock: MIDCAF_clean_linker_0, # of connection points: 3
#     Node 5, Type 0, BuildingBlock: MIDCAF_clean_linker_0, # of connection points: 3
#     Node 6, Type 0, BuildingBlock: MIDCAF_clean_linker_0, # of connection points: 3
#     Node 7, Type 0, BuildingBlock: MIDCAF_clean_linker_0, # of connection points: 3
#     Node 8, Type 1, BuildingBlock: BETFAJ_clean_sbu_0, # of connection points: 6
#     Node 9, Type 1, BuildingBlock: BETFAJ_clean_sbu_0, # of connection points: 6
#     Node 10, Type 1, BuildingBlock: BETFAJ_clean_sbu_0, # of connection points: 6
#     Node 11, Type 1, BuildingBlock: BETFAJ_clean_sbu_0, # of connection points: 6
#     Edge 12, Type (0, 1), BuildingBlock: XUDNAN_clean_linker_2, # of connection points: 2
#     Edge 13, Type (0, 1), BuildingBlock: XUDNAN_clean_linker_2, # of connection points: 2
#     Edge 14, Type (0, 1), BuildingBlock: XUDNAN_clean_linker_2, # of connection points: 2
#     Edge 15, Type (0, 1), BuildingBlock: XUDNAN_clean_linker_2, # of connection points: 2
#     Edge 16, Type (0, 1), BuildingBlock: XUDNAN_clean_linker_2, # of connection points: 2
#     Edge 17, Type (0, 1), BuildingBlock: XUDNAN_clean_linker_2, # of connection points: 2
#     Edge 18, Type (0, 1), BuildingBlock: XUDNAN_clean_linker_2, # of connection points: 2
#     Edge 19, Type (0, 1), BuildingBlock: XUDNAN_clean_linker_2, # of connection points: 2
#     Edge 20, Type (0, 1), BuildingBlock: XUDNAN_clean_linker_2, # of connection points: 2
#     Edge 21, Type (0, 1), BuildingBlock: XUDNAN_clean_linker_2, # of connection points: 2
#     Edge 22, Type (0, 1), BuildingBlock: XUDNAN_clean_linker_2, # of connection points: 2
#     Edge 23, Type (0, 1), BuildingBlock: XUDNAN_clean_linker_2, # of connection points: 2
#     Edge 24, Type (0, 1), BuildingBlock: XUDNAN_clean_linker_2, # of connection points: 2
#     Edge 25, Type (0, 1), BuildingBlock: XUDNAN_clean_linker_2, # of connection points: 2
#     Edge 26, Type (0, 1), BuildingBlock: XUDNAN_clean_linker_2, # of connection points: 2
#     Edge 27, Type (0, 1), BuildingBlock: XUDNAN_clean_linker_2, # of connection points: 2
#     Edge 28, Type (0, 1), BuildingBlock: XUDNAN_clean_linker_2, # of connection points: 2
#     Edge 29, Type (0, 1), BuildingBlock: XUDNAN_clean_linker_2, # of connection points: 2
#     Edge 30, Type (0, 1), BuildingBlock: XUDNAN_clean_linker_2, # of connection points: 2
#     Edge 31, Type (0, 1), BuildingBlock: XUDNAN_clean_linker_2, # of connection points: 2
#     Edge 32, Type (0, 1), BuildingBlock: XUDNAN_clean_linker_2, # of connection points: 2
#     Edge 33, Type (0, 1), BuildingBlock: XUDNAN_clean_linker_2, # of connection points: 2
#     Edge 34, Type (0, 1), BuildingBlock: XUDNAN_clean_linker_2, # of connection points: 2
#     Edge 35, Type (0, 1), BuildingBlock: XUDNAN_clean_linker_2, # of connection points: 2
# Relax obj value: 0.452
# Max RMSD: 0.273
# Mean RMSD: 0.255
data_MOF--net-zzz--node1-BETFAJ_clean_sbu_0--node2-MIDCAF_clean_linker_0--edge1-XUDNAN_clean_linker_2
_symmetry_space_group_name_H-M    P1
_symmetry_Int_Tables_number       1
_symmetry_cell_setting            triclinic
loop_
_symmetry_equiv_pos_as_xyz
'x, y, z'
_cell_length_a     59.406218
_cell_length_b     59.376387
_cell_length_c     18.276726
_cell_angle_alpha  89.748021
_cell_angle_beta   89.820942
_cell_angle_gamma 90.08373
loop_
_atom_site_label
_atom_site_type_symbol
_atom_site_fract_x
_atom_site_fract_y
_atom_site_fract_z
_atom_type_partial_charge
C0 C 0.78597 0.51499 0.39395 0.0
C1 C 0.78945 0.50456 0.46238 0.0
C2 C 0.77355 0.4886 0.48696 0.0
C3 C 0.75566 0.48204 0.44216 0.0
H4 H 0.69133 0.51501 0.21582 0.0
H5 H 0.65704 0.52418 0.1478 0.0
H6 H 0.63999 0.45342 0.14022 0.0
H7 H 0.67455 0.44441 0.20461 0.0
H8 H 0.72475 0.42015 0.12608 0.0
H9 H 0.74806 0.39606 0.04906 0.0
H10 H 0.80596 0.41264 0.18174 0.0
H11 H 0.78273 0.43512 0.25983 0.0
H12 H 0.7667 0.51545 0.29458 0.0
H13 H 0.79771 0.52752 0.37357 0.0
H14 H 0.77576 0.47995 0.5387 0.0
H15 H 0.74481 0.46838 0.46004 0.0
N16 N 0.7192 0.48534 0.29428 0.0
N17 N 0.71851 0.45424 0.21447 0.0
N18 N 0.7499 0.46049 0.28804 0.0
C19 C 0.70822 0.47268 0.24317 0.0
C20 C 0.7394 0.4481 0.23636 0.0
C21 C 0.74005 0.47889 0.31741 0.0
C22 C 0.68573 0.47899 0.21476 0.0
C23 C 0.68 0.50153 0.20056 0.0
C24 C 0.66032 0.50675 0.16155 0.0
C25 C 0.64586 0.48951 0.13686 0.0
C26 C 0.65099 0.46712 0.15591 0.0
C27 C 0.67073 0.46193 0.19357 0.0
C28 C 0.75194 0.43003 0.19821 0.0
C29 C 0.74235 0.41807 0.13977 0.0
C30 C 0.75577 0.40435 0.09531 0.0
C31 C 0.77909 0.40254 0.10787 0.0
C32 C 0.78812 0.41311 0.17007 0.0
C33 C 0.77472 0.42644 0.21486 0.0
C34 C 0.75305 0.49146 0.37223 0.0
C35 C 0.76798 0.50844 0.34924 0.0
C36 C 0.02399 0.8132 0.3784 0.0
C37 C 0.01279 0.80789 0.44407 0.0
C38 C 1.00792 0.78501 0.45899 0.0
C39 C 0.01513 0.7679 0.41111 0.0
H40 H 0.99875 0.70515 0.25512 0.0
H41 H 0.98234 0.67216 0.19558 0.0
H42 H 0.04583 0.65937 0.0876 0.0
H43 H 0.06226 0.69131 0.14845 0.0
H44 H 0.09093 0.73719 0.10265 0.0
H45 H 0.11861 0.75982 0.03575 0.0
H46 H 0.12868 0.80071 0.22793 0.0
H47 H 0.10153 0.77804 0.29445 0.0
H48 H 0.04062 0.8011 0.28281 0.0
H49 H 0.02838 0.83043 0.36497 0.0
H50 H 0.99909 0.78027 0.50864 0.0
H51 H 0.01214 0.75043 0.42556 0.0
N52 N 0.03015 0.73637 0.28217 0.0
N53 N 0.06279 0.72848 0.21311 0.0
N54 N 0.0606 0.76166 0.28033 0.0
C55 C 0.04188 0.72229 0.23653 0.0
C56 C 0.07234 0.74796 0.23548 0.0
C57 C 0.03965 0.75624 0.30398 0.0
C58 C 0.03182 0.70118 0.20648 0.0
C59 C 1.00927 0.69509 0.21952 0.0
C60 C 0.99982 0.67621 0.18484 0.0
C61 C 0.01267 0.66298 0.13615 0.0
C62 C 0.03538 0.66874 0.12533 0.0
C63 C 0.0448 0.6874 0.16004 0.0
C64 C 0.09361 0.7563 0.20307 0.0
C65 C 0.09977 0.75042 0.13138 0.0
C66 C 0.11558 0.76342 0.09298 0.0
C67 C 0.12548 0.78239 0.12591 0.0
C68 C 0.12146 0.78627 0.20063 0.0
C69 C 0.10564 0.77339 0.23873 0.0
C70 C 0.02752 0.77339 0.34793 0.0
C71 C 0.03121 0.79626 0.33129 0.0
C72 C 0.69594 0.99658 0.39326 0.0
C73 C 0.70049 0.99359 0.46813 0.0
C74 C 0.72319 0.99417 0.49099 0.0
C75 C 0.7406 0.99916 0.44098 0.0
H76 H 0.82395 0.04904 0.25954 0.0
H77 H 0.86155 0.04051 0.21454 0.0
H78 H 0.84352 0.97012 0.19928 0.0
H79 H 0.80609 0.97875 0.2483 0.0
H80 H 0.75743 0.08855 0.24008 0.0
H81 H 0.73095 0.11405 0.17876 0.0
H82 H 0.70717 0.05839 0.04782 0.0
H83 H 0.7338 0.03358 0.10771 0.0
H84 H 0.70874 1.00481 0.28734 0.0
H85 H 0.67885 0.99665 0.37293 0.0
H86 H 0.72745 0.99158 0.54796 0.0
H87 H 0.75767 1.00091 0.46078 0.0
N88 N 0.77424 1.00935 0.31432 0.0
N89 N 0.77981 0.03763 0.22455 0.0
N90 N 0.74397 0.03139 0.2734 0.0
C91 C 0.78823 0.02085 0.26749 0.0
C92 C 0.75769 0.04288 0.22763 0.0
C93 C 0.75192 0.01485 0.31745 0.0
C94 C 0.81213 0.01457 0.25728 0.0
C95 C 0.82827 0.03165 0.24856 0.0
C96 C 0.84975 0.02675 0.2218 0.0
C97 C 0.85551 1.00468 0.20109 0.0
C98 C 0.83981 0.9873 0.21468 0.0
C99 C 0.81834 0.9922 0.24294 0.0
C100 C 0.74761 0.05931 0.17771 0.0
C101 C 0.74718 0.08222 0.19572 0.0
C102 C 0.73189 0.09669 0.16117 0.0
C103 C 0.71675 0.0883 0.10869 0.0
C104 C 0.71872 0.06567 0.08687 0.0
C105 C 0.73394 0.05133 0.12128 0.0
C106 C 0.73557 1.00372 0.36736 0.0
C107 C 0.71318 1.00147 0.34383 0.0
C108 C 0.60809 0.70667 0.17226 0.0
C109 C 0.60676 0.70808 0.09561 0.0
C110 C 0.60084 0.72883 0.06353 0.0
C111 C 0.59184 0.74601 0.10673 0.0
H112 H 0.50132 0.79573 0.17727 0.0
H113 H 0.49193 0.83155 0.11635 0.0
H114 H 0.55929 0.85574 0.15624 0.0
H115 H 0.56877 0.82001 0.215 0.0
H116 H 0.5248 0.74852 0.43241 0.0
H117 H 0.51119 0.71622 0.50384 0.0
H118 H 0.50399 0.67792 0.30464 0.0
H119 H 0.51827 0.70996 0.23453 0.0
H120 H 0.59748 0.72095 0.27369 0.0
H121 H 0.61284 0.69109 0.19909 0.0
H122 H 0.60021 0.7306 1.00454 0.0
H123 H 0.58439 0.76047 0.07976 0.0
N124 N 0.56297 0.77443 0.20138 0.0
N125 N 0.52937 0.76914 0.26873 0.0
N126 N 0.55647 0.74046 0.26275 0.0
C127 C 0.54294 0.78255 0.22626 0.0
C128 C 0.53642 0.74803 0.2876 0.0
C129 C 0.5699 0.75345 0.22006 0.0
C130 C 0.53574 0.80516 0.20108 0.0
C131 C 0.51391 0.80892 0.17426 0.0
C132 C 0.50862 0.82928 0.13887 0.0
C133 C 0.5249 0.8464 0.13149 0.0
C134 C 0.54636 0.84295 0.16152 0.0
C135 C 0.55178 0.82249 0.19512 0.0
C136 C 0.52216 0.73182 0.32802 0.0
C137 C 0.5195 0.73344 0.40405 0.0
C138 C 0.51185 0.71481 0.44484 0.0
C139 C 0.50675 0.69421 0.41027 0.0
C140 C 0.5082 0.69323 0.33352 0.0
C141 C 0.51597 0.71173 0.29308 0.0
C142 C 0.58886 0.7425 0.18216 0.0
C143 C 0.59911 0.72379 0.2153 0.0
C144 C 0.1808 0.5237 0.05111 0.0
C145 C 0.18595 0.51703 0.97931 0.0
C146 C 0.20885 0.51551 0.95881 0.0
C147 C 0.22602 0.52166 0.00789 0.0
H148 H 0.28706 0.49982 0.18499 0.0
H149 H 0.32036 0.48469 0.2485 0.0
H150 H 0.33697 0.55148 0.32296 0.0
H151 H 0.30455 0.56657 0.25974 0.0
H152 H 0.25617 0.58898 0.33548 0.0
H153 H 0.23414 0.61464 0.41134 0.0
H154 H 0.18875 0.62601 0.2307 0.0
H155 H 0.2107 0.60071 0.15528 0.0
H156 H 0.19302 0.53602 0.1531 0.0
H157 H 0.1635 0.52546 0.06905 0.0
H158 H 0.21348 0.51021 0.90419 0.0
H159 H 0.24338 0.52151 0.98962 0.0
N160 N 0.25749 0.53246 0.14323 0.0
N161 N 0.26394 0.56358 0.2201 0.0
N162 N 0.23054 0.56125 0.15427 0.0
C163 C 0.27112 0.54377 0.19107 0.0
C164 C 0.24383 0.57251 0.20155 0.0
C165 C 0.23705 0.5414 0.1247 0.0
C166 C 0.29283 0.53437 0.21811 0.0
C167 C 0.29809 0.51129 0.2137 0.0
C168 C 0.31709 0.50262 0.25015 0.0
C169 C 0.33094 0.51689 0.29186 0.0
C170 C 0.32633 0.54003 0.29257 0.0
C171 C 0.30768 0.54864 0.25604 0.0
C172 C 0.23478 0.59239 0.24005 0.0
C173 C 0.24197 0.59762 0.31122 0.0
C174 C 0.22936 0.6123 0.35473 0.0
C175 C 0.20952 0.62209 0.32745 0.0
C176 C 0.20398 0.61888 0.2535 0.0
C177 C 0.21643 0.60412 0.21036 0.0
C178 C 0.22051 0.52961 0.07792 0.0
C179 C 0.19779 0.52989 0.09946 0.0
C180 C 0.97556 0.20369 0.97963 0.0
C181 C 0.99893 0.20025 0.97509 0.0
C182 C 0.01324 0.21665 0.00616 0.0
C183 C 1.00438 0.23478 0.04631 0.0
H184 H 0.98864 0.31827 0.12019 0.0
H185 H 0.99811 0.35556 0.17001 0.0
H186 H 0.98518 0.3306 0.38849 0.0
H187 H 0.97601 0.29389 0.33932 0.0
H188 H 0.92524 0.26716 0.34072 0.0
H189 H 0.90441 0.24432 0.42919 0.0
H190 H 0.90927 0.18723 0.28363 0.0
H191 H 0.92861 0.21011 0.19488 0.0
H192 H 0.94867 0.22289 0.02551 0.0
H193 H 0.96388 0.19156 0.95719 0.0
H194 H 0.03135 0.21491 1.00248 0.0
H195 H 0.01581 0.24607 0.07409 0.0
N196 N 0.98064 0.27094 0.13748 0.0
N197 N 0.95483 0.27206 0.23574 0.0
N198 N 0.95401 0.24203 0.15428 0.0
C199 C 0.97207 0.28167 0.19767 0.0
C200 C 0.94564 0.25231 0.21431 0.0
C201 C 0.97135 0.25098 0.11543 0.0
C202 C 0.98148 0.30317 0.22573 0.0
C203 C 0.98836 0.32072 0.17887 0.0
C204 C 0.99356 0.3421 0.20742 0.0
C205 C 0.99237 0.34615 0.28338 0.0
C206 C 0.98658 0.32815 0.32996 0.0
C207 C 0.98115 0.30707 0.30158 0.0
C208 C 0.9291 0.24034 0.26135 0.0
C209 C 0.92126 0.24988 0.32695 0.0
C210 C 0.90941 0.23674 0.37791 0.0
C211 C 0.90542 0.21373 0.36468 0.0
C212 C 0.91163 0.20486 0.29622 0.0
C213 C 0.92312 0.21803 0.24511 0.0
C214 C 0.98102 0.23686 0.05613 0.0
C215 C 0.96678 0.22172 0.01938 0.0
C216 C 0.29571 0.99984 1.00318 0.0
C217 C 0.29973 0.01074 0.93591 0.0
C218 C 0.28407 0.02676 0.91101 0.0
C219 C 0.26594 0.03318 0.9553 0.0
H220 H 0.18593 0.01941 0.12187 0.0
H221 H 0.15122 0.01007 0.1893 0.0
H222 H 0.18245 0.03122 0.39044 0.0
H223 H 0.21672 0.04109 0.32333 0.0
H224 H 0.26011 0.07561 0.30806 0.0
H225 H 0.2946 0.09202 0.35565 0.0
H226 H 0.31366 0.11293 0.13748 0.0
H227 H 0.27927 0.09621 0.08971 0.0
H228 H 0.27566 0.99869 0.10108 0.0
H229 H 0.30741 0.98733 0.02354 0.0
H230 H 0.28678 0.0356 0.85976 0.0
H231 H 0.25544 0.04711 0.93795 0.0
N232 N 0.23229 0.02794 0.11723 0.0
N233 N 0.23487 0.05805 0.20069 0.0
N234 N 0.26061 0.05527 0.10432 0.0
C235 C 0.22406 0.03923 0.17666 0.0
C236 C 0.25297 0.06632 0.16386 0.0
C237 C 0.25063 0.03618 0.08083 0.0
C238 C 0.20399 0.03104 0.2173 0.0
C239 C 0.18543 0.02176 0.18059 0.0
C240 C 0.16557 0.01655 0.21901 0.0
C241 C 0.1642 0.01993 0.29504 0.0
C242 C 0.1831 0.02831 0.33199 0.0
C243 C 0.20266 0.03404 0.29347 0.0
C244 C 0.2674 0.08406 0.19501 0.0
C245 C 0.27106 0.08474 0.27079 0.0
C246 C 0.29088 0.09419 0.29807 0.0
C247 C 0.30713 0.10316 0.24982 0.0
C248 C 0.30164 0.10569 0.17561 0.0
C249 C 0.28193 0.09615 0.14834 0.0
C250 C 0.26279 0.02335 0.02454 0.0
C251 C 0.2773 1.006 0.04689 0.0
C252 C 0.61309 0.28926 0.18129 0.0
C253 C 0.61535 0.28601 0.25714 0.0
C254 C 0.60784 0.26559 0.28813 0.0
C255 C 0.59555 0.25026 0.24617 0.0
H256 H 0.4994 0.20318 0.16613 0.0
H257 H 0.48732 0.17043 0.23902 0.0
H258 H 0.55624 0.14751 0.24902 0.0
H259 H 0.56818 0.18025 0.17893 0.0
H260 H 0.49429 0.25339 0.03905 0.0
H261 H 0.47594 0.28428 0.97265 0.0
H262 H 0.54097 0.30727 0.89584 0.0
H263 H 0.55881 0.27626 0.95872 0.0
H264 H 0.59767 0.27803 0.08257 0.0
H265 H 0.61864 0.30474 0.15537 0.0
H266 H 0.6097 0.26243 0.34622 0.0
H267 H 0.58817 0.23575 0.27324 0.0
N268 N 0.56302 0.22425 0.1615 0.0
N269 N 0.53136 0.22802 0.08475 0.0
N270 N 0.56009 0.25527 0.08361 0.0
C271 C 0.54321 0.21595 0.13579 0.0
C272 C 0.54017 0.24766 0.05745 0.0
C273 C 0.57154 0.2439 0.13575 0.0
C274 C 0.53476 0.19445 0.1676 0.0
C275 C 0.51183 0.19088 0.18292 0.0
C276 C 0.50495 0.17212 0.22478 0.0
C277 C 0.52087 0.15653 0.25151 0.0
C278 C 0.54356 0.15947 0.23161 0.0
C279 C 0.5504 0.17819 0.19078 0.0
C280 C 0.52802 0.26248 1.00493 0.0
C281 C 0.50448 0.26463 1.00588 0.0
C282 C 0.49404 0.28257 0.96856 0.0
C283 C 0.50694 0.29868 0.92953 0.0
C284 C 0.5303 0.29532 0.9244 0.0
C285 C 0.54063 0.2775 0.96125 0.0
C286 C 0.59058 0.25519 0.17269 0.0
C287 C 0.60081 0.27399 0.1395 0.0
Sm288 Sm 0.02964 0.99102 0.80603 0.0
Sm289 Sm 0.99586 1.00553 0.70117 0.0
C290 C 0.05785 0.98099 0.91335 0.0
C291 C 0.07497 0.96342 0.92208 0.0
C292 C 0.08041 0.9494 0.86306 0.0
C293 C 0.09554 0.93167 0.87229 0.0
C294 C 0.10539 0.92755 0.94089 0.0
C295 C 0.10047 0.94216 0.99927 0.0
C296 C 0.08534 0.95997 0.98986 0.0
C297 C 0.04678 0.99462 0.66565 0.0
C298 C 1.00851 0.95169 0.71002 0.0
C299 C 0.96725 0.01615 0.59613 0.0
C300 C 0.95071 0.03445 0.59062 0.0
C301 C 0.94646 0.0446 0.5228 0.0
C302 C 0.93335 0.06409 0.5188 0.0
C303 C 0.92437 0.07378 0.58275 0.0
C304 C 0.92783 0.06294 0.65021 0.0
C305 C 0.94092 0.04347 0.65412 0.0
C306 C 0.97888 1.0029 0.84173 0.0
C307 C 0.01714 0.04488 0.79792 0.0
O308 O 0.03701 0.9739 0.91164 0.0
O309 O 0.06213 0.99614 0.86323 0.0
O310 O 0.03357 1.00857 0.69504 0.0
O311 O 0.05165 0.97852 0.71078 0.0
O312 O 0.01712 0.95597 0.77471 0.0
O313 O 1.00217 0.96837 0.66664 0.0
O314 O 0.98832 0.02255 0.5955 0.0
O315 O 0.96308 1.00069 0.64552 0.0
O316 O 0.99163 0.98833 0.81298 0.0
O317 O 0.97494 0.01913 0.79627 0.0
O318 O 1.00766 0.04093 0.73418 0.0
O319 O 0.02398 0.02807 0.83979 0.0
H320 H 0.07255 0.95185 0.81025 0.0
H321 H 0.09911 0.92084 0.82616 0.0
H322 H 0.10749 0.93924 0.05309 0.0
H323 H 0.08128 0.97064 0.03597 0.0
H324 H 0.95405 0.03799 0.47337 0.0
H325 H 0.93132 0.07223 0.4661 0.0
H326 H 0.92101 0.0699 0.70026 0.0
H327 H 0.94401 0.03596 0.70718 0.0
Sm328 Sm 0.50738 0.02168 0.78068 0.0
Sm329 Sm 0.49723 0.99236 0.63833 0.0
C330 C 0.51296 0.04306 0.90562 0.0
C331 C 0.52932 0.06014 0.9289 0.0
C332 C 0.53531 0.06185 1.0027 0.0
C333 C 0.55312 0.07586 0.02352 0.0
C334 C 0.56524 0.08826 0.97062 0.0
C335 C 0.55836 0.08734 0.89719 0.0
C336 C 0.54062 0.07334 0.8765 0.0
C337 C 0.50712 0.04434 0.6487 0.0
C338 C 0.54996 1.00163 0.68793 0.0
C339 C 0.48657 0.98559 0.50111 0.0
C340 C 0.46912 0.99781 0.45962 0.0
C341 C 0.47501 0.01051 0.39731 0.0
C342 C 0.46019 0.02678 0.36963 0.0
C343 C 0.43957 0.03077 0.40502 0.0
C344 C 0.43307 0.01697 0.46381 0.0
C345 C 0.44761 1.00057 0.49053 0.0
C346 C 0.50397 0.96431 0.75814 0.0
C347 C 0.45518 1.00663 0.74397 0.0
O348 O 0.52141 0.02306 0.893 0.0
O349 O 0.4985 0.04952 0.85577 0.0
O350 O 0.49353 0.02907 0.66794 0.0
O351 O 0.52113 0.04868 0.70102 0.0
O352 O 0.54298 1.00912 0.75235 0.0
O353 O 0.53587 0.99648 0.63437 0.0
O354 O 0.50391 0.99797 0.52008 0.0
O355 O 0.47936 0.9724 0.55419 0.0
O356 O 0.50462 0.98543 0.75538 0.0
O357 O 0.49967 0.95666 0.69296 0.0
O358 O 0.46168 1.00159 0.6768 0.0
O359 O 0.46977 0.01197 0.79584 0.0
H360 H 0.52686 0.05166 0.04377 0.0
H361 H 0.55819 0.07594 0.08038 0.0
H362 H 0.56724 0.09681 0.85532 0.0
H363 H 0.53629 0.07221 0.81913 0.0
H364 H 0.49157 1.00886 0.373 0.0
H365 H 0.46544 0.03723 0.32393 0.0
H366 H 0.41704 0.0195 0.49103 0.0
H367 H 0.44247 0.99105 0.53839 0.0
Sm368 Sm 0.47916 0.50755 0.77165 0.0
Sm369 Sm 0.50462 0.49012 0.62769 0.0
C370 C 0.47595 0.52477 0.90315 0.0
C371 C 0.48885 0.54407 0.9315 0.0
C372 C 0.50123 0.54206 0.99645 0.0
C373 C 0.51714 0.55849 0.01508 0.0
C374 C 0.52113 0.57703 0.96842 0.0
C375 C 0.50803 0.57934 0.90498 0.0
C376 C 0.49201 0.56319 0.88708 0.0
C377 C 0.44827 0.49783 0.66271 0.0
C378 C 0.49222 0.54426 0.64461 0.0
C379 C 0.52225 0.47833 0.50105 0.0
C380 C 0.53852 0.46078 0.47854 0.0
C381 C 0.53073 0.44015 0.45118 0.0
C382 C 0.54579 0.42279 0.43575 0.0
C383 C 0.56903 0.42571 0.44682 0.0
C384 C 0.57696 0.44662 0.47141 0.0
C385 C 0.56186 0.46399 0.48722 0.0
C386 C 0.53027 0.4948 0.75176 0.0
C387 C 0.48562 0.45278 0.74602 0.0
O388 O 0.48804 0.50676 0.88961 0.0
O389 O 0.46138 0.52933 0.85127 0.0
O390 O 0.46928 0.49571 0.66091 0.0
O391 O 0.4424 0.50512 0.72713 0.0
O392 O 0.488 0.54077 0.7147 0.0
O393 O 0.49677 0.52754 0.59897 0.0
O394 O 0.50243 0.47124 0.52349 0.0
O395 O 0.53021 0.49488 0.54062 0.0
O396 O 0.51501 0.50806 0.73069 0.0
O397 O 0.53331 0.4789 0.70434 0.0
O398 O 0.49257 0.45632 0.6778 0.0
O399 O 0.48139 0.46937 0.79236 0.0
H400 H 0.49929 0.52732 0.03107 0.0
H401 H 0.52671 0.55636 0.06495 0.0
H402 H 0.51077 0.59314 0.86704 0.0
H403 H 0.48294 0.56518 0.83624 0.0
H404 H 0.51291 0.43725 0.44287 0.0
H405 H 0.53922 0.40703 0.41509 0.0
H406 H 0.59478 0.44935 0.48021 0.0
H407 H 0.56848 0.47976 0.50759 0.0
Sm408 Sm 0.98767 0.49371 0.75213 0.0
Sm409 Sm 0.99453 0.52658 0.64108 0.0
C410 C 0.97213 0.46695 0.85715 0.0
C411 C 0.952 0.45254 0.86332 0.0
C412 C 0.93119 0.45998 0.83641 0.0
C413 C 0.91228 0.44612 0.84049 0.0
C414 C 0.91374 0.42439 0.87108 0.0
C415 C 0.93469 0.41685 0.8972 0.0
C416 C 0.95367 0.43082 0.89324 0.0
C417 C 0.99822 0.47433 0.61867 0.0
C418 C 0.944 0.51104 0.65691 0.0
C419 C 0.0097 0.55306 0.53503 0.0
C420 C 0.02974 0.56768 0.5266 0.0
C421 C 0.05108 0.55832 0.51373 0.0
C422 C 0.07006 0.57209 0.50903 0.0
C423 C 0.06823 0.59556 0.51739 0.0
C424 C 0.04685 0.60498 0.5294 0.0
C425 C 0.02779 0.59116 0.53378 0.0
C426 C 0.98299 0.54585 0.77321 0.0
C427 C 0.03819 0.5101 0.73905 0.0
O428 O 0.96871 0.4887 0.85578 0.0
O429 O 0.98711 0.46054 0.80931 0.0
O430 O 0.98446 0.49023 0.62789 0.0
O431 O 1.00722 0.46856 0.68035 0.0
O432 O 0.95119 0.50427 0.72157 0.0
O433 O 0.95861 0.51742 0.60678 0.0
O434 O 0.01313 0.5313 0.53669 0.0
O435 O 0.99473 0.55952 0.58298 0.0
O436 O 0.99738 0.53038 0.76537 0.0
O437 O 0.97385 0.55098 0.71117 0.0
O438 O 0.03128 0.51758 0.67474 0.0
O439 O 0.02344 0.50257 0.78703 0.0
H440 H 0.92943 0.47659 0.81266 0.0
H441 H 0.89636 0.45276 0.82142 0.0
H442 H 0.93641 0.40017 0.92078 0.0
H443 H 0.96965 0.42467 0.9135 0.0
H444 H 0.05323 0.54032 0.50743 0.0
H445 H 0.08615 0.56429 0.49762 0.0
H446 H 0.04487 0.62298 0.53606 0.0
H447 H 0.01153 0.59885 0.54352 0.0
H448 H 0.15778 0.99454 0.41905 0.0
H449 H 0.12269 0.03717 0.26395 0.0
H450 H 0.08801 0.03427 0.33912 0.0
H451 H 0.10946 0.95733 0.45925 0.0
H452 H 0.11708 0.95423 0.55414 0.0
H453 H 0.1386 0.95886 0.48601 0.0
H454 H 0.15281 0.99358 0.55796 0.0
H455 H 0.13126 0.98914 0.62597 0.0
H456 H 0.13341 0.01592 0.57962 0.0
H457 H 0.05841 0.02999 0.43931 0.0
H458 H 0.03527 0.02133 0.54916 0.0
H459 H 0.08889 0.97917 0.63318 0.0
C460 C 0.14267 1.00299 0.40053 0.0
C461 C 0.14284 0.01606 0.33575 0.0
C462 C 0.1228 0.0269 0.31308 0.0
C463 C 0.10309 0.02543 0.35559 0.0
C464 C 0.10358 0.01271 0.41994 0.0
C465 C 0.12275 1.00132 0.44154 0.0
C466 C 0.11894 0.98888 0.51308 0.0
C467 C 0.12115 0.96331 0.50245 0.0
C468 C 0.13506 0.9974 0.57266 0.0
C469 C 0.09482 0.99548 0.52941 0.0
C470 C 0.08625 1.00935 0.47535 0.0
C471 C 0.06481 0.0188 0.48122 0.0
C472 C 0.05181 0.01387 0.54378 0.0
C473 C 0.06018 0.99938 0.59897 0.0
C474 C 0.08188 0.98998 0.59115 0.0
H475 H 0.54413 0.1416 0.37184 0.0
H476 H 0.4828 0.12958 0.24956 0.0
H477 H 0.47262 0.09898 0.33629 0.0
H478 H 0.55639 0.08341 0.41222 0.0
H479 H 0.56714 0.08946 0.50213 0.0
H480 H 0.56935 0.11027 0.43046 0.0
H481 H 0.54849 0.13918 0.51201 0.0
H482 H 0.54626 0.11848 0.58394 0.0
H483 H 0.52129 0.13206 0.54958 0.0
H484 H 0.46934 0.06965 0.43896 0.0
H485 H 0.47304 0.04441 0.54699 0.0
H486 H 0.53682 0.07599 0.59917 0.0
C487 C 0.52867 0.13239 0.36237 0.0
C488 C 0.51436 0.13798 0.30318 0.0
C489 C 0.494 0.12578 0.29454 0.0
C490 C 0.48814 0.10827 0.34335 0.0
C491 C 0.50279 0.10316 0.4007 0.0
C492 C 0.52263 0.11494 0.41026 0.0
C493 C 0.53543 0.10647 0.47644 0.0
C494 C 0.55844 0.09683 0.45394 0.0
C495 C 0.53801 0.12516 0.53388 0.0
C496 C 0.51971 0.08808 0.50303 0.0
C497 C 0.50099 0.08633 0.45872 0.0
C498 C 0.48403 0.07065 0.47347 0.0
C499 C 0.48628 0.05642 0.53487 0.0
C500 C 0.50525 0.05819 0.58126 0.0
C501 C 0.52215 0.07419 0.56461 0.0
H502 H 0.33738 0.52469 0.43672 0.0
H503 H 0.36643 0.48973 0.25165 0.0
H504 H 0.39931 0.47898 0.32801 0.0
H505 H 0.38732 0.54769 0.50487 0.0
H506 H 0.37977 0.54433 0.59989 0.0
H507 H 0.35813 0.54761 0.53207 0.0
H508 H 0.3396 0.51024 0.57489 0.0
H509 H 0.36114 0.5069 0.64323 0.0
H510 H 0.35617 0.48484 0.57776 0.0
H511 H 0.43092 0.47564 0.42352 0.0
H512 H 0.45654 0.4776 0.53035 0.0
H513 H 0.40537 0.51344 0.65246 0.0
C514 C 0.35055 0.51453 0.41252 0.0
C515 C 0.34947 0.50807 0.33831 0.0
C516 C 0.36693 0.49471 0.30856 0.0
C517 C 0.38566 0.48863 0.35147 0.0
C518 C 0.38643 0.49577 0.42422 0.0
C519 C 0.36911 0.50815 0.45462 0.0
C520 C 0.374 0.51427 0.53328 0.0
C521 C 0.37486 0.54 0.54305 0.0
C522 C 0.3567 0.50341 0.58536 0.0
C523 C 0.39702 0.50382 0.54241 0.0
C524 C 0.40403 0.49325 0.47904 0.0
C525 C 0.42539 0.48358 0.47363 0.0
C526 C 0.43987 0.48481 0.53441 0.0
C527 C 0.43284 0.49546 0.59974 0.0
C528 C 0.41107 0.50487 0.60363 0.0
H529 H 0.01452 0.35806 0.40966 0.0
H530 H 0.97618 0.38628 0.22977 0.0
H531 H 0.97634 0.42337 0.29084 0.0
H532 H 0.98593 0.38561 0.5492 0.0
H533 H 0.01025 0.39016 0.60602 0.0
H534 H 0.00963 0.36675 0.54391 0.0
H535 H 0.04673 0.3806 0.48373 0.0
H536 H 0.04754 0.40403 0.54606 0.0
H537 H 0.04851 0.40898 0.44873 0.0
H538 H 0.97673 0.45632 0.37962 0.0
H539 H 0.97897 0.48238 0.48493 0.0
H540 H 0.01735 0.43258 0.60566 0.0
C541 C 1.00645 0.37211 0.38244 0.0
C542 C 0.99538 0.36919 0.31462 0.0
C543 C 0.98509 0.3881 0.28101 0.0
C544 C 0.98497 0.40923 0.31559 0.0
C545 C 0.99545 0.41132 0.3835 0.0
C546 C 1.00625 0.39329 0.41606 0.0
C547 C 0.01519 0.39953 0.49092 0.0
C548 C 1.00461 0.38463 0.55103 0.0
C549 C 0.04103 0.39821 0.49241 0.0
C550 C 1.00717 0.42368 0.4965 0.0
C551 C 0.99592 0.43026 0.43386 0.0
C552 C 0.98583 0.45143 0.42836 0.0
C553 C 0.98714 0.46611 0.48846 0.0
C554 C 0.99847 0.45959 0.55324 0.0
C555 C 1.00883 0.43819 0.55656 0.0
H556 H 0.87535 0.03198 0.09802 0.0
H557 H 0.88371 0.96746 0.20707 0.0
H558 H 0.91761 0.96021 0.13149 0.0
H559 H 0.89101 0.01482 0.92247 0.0
H560 H 0.90545 0.04064 0.89966 0.0
H561 H 0.88268 0.0409 0.96476 0.0
H562 H 0.90881 0.05924 0.0611 0.0
H563 H 0.93167 0.0591 0.99612 0.0
H564 H 0.93505 0.0458 0.08423 0.0
H565 H 0.95021 0.95966 0.03702 0.0
H566 H 0.97726 0.96601 0.93483 0.0
H567 H 0.94733 0.03145 0.89478 0.0
C568 C 0.88452 0.01653 0.10778 0.0
C569 C 0.87682 1.00042 0.15941 0.0
C570 C 0.88909 0.98008 0.1678 0.0
C571 C 0.90849 0.97586 0.12535 0.0
C572 C 0.9155 0.99217 0.0749 0.0
C573 C 0.90386 0.01215 0.06648 0.0
C574 C 0.91417 0.02677 0.00728 0.0
C575 C 0.89733 0.03102 0.94487 0.0
C576 C 0.92295 0.04904 0.03911 0.0
C577 C 0.93332 0.01185 0.98271 0.0
C578 C 0.93399 0.99196 0.02216 0.0
C579 C 0.94988 0.97529 0.00637 0.0
C580 C 0.9652 0.97902 0.94837 0.0
C581 C 0.96443 0.99922 0.90701 0.0
C582 C 0.94846 0.01586 0.92552 0.0
H583 H 0.50791 0.85019 0.99253 0.0
H584 H 0.53233 0.88983 0.17446 0.0
H585 H 0.52811 0.92458 0.10053 0.0
H586 H 0.53681 0.88068 0.855 0.0
H587 H 0.51476 0.87863 0.78779 0.0
H588 H 0.51758 0.85716 0.85701 0.0
H589 H 0.47624 0.86352 0.89745 0.0
H590 H 0.47324 0.8849 0.8279 0.0
H591 H 0.46712 0.89142 0.92211 0.0
H592 H 0.5227 0.9549 1.00469 0.0
H593 H 0.51715 0.97825 0.89376 0.0
H594 H 0.49767 0.91877 0.77263 0.0
C595 C 0.51187 0.86626 0.01722 0.0
C596 C 0.5202 0.86739 0.0895 0.0
C597 C 0.52583 0.88864 0.11931 0.0
C598 C 0.52346 0.90845 0.07775 0.0
C599 C 0.51559 0.90673 0.00619 0.0
C600 C 0.50988 0.88618 0.97611 0.0
C601 C 0.50311 0.88882 0.89656 0.0
C602 C 0.51902 0.87554 0.84614 0.0
C603 C 0.47846 0.88175 0.88537 0.0
C604 C 0.5061 0.91401 0.88637 0.0
C605 C 0.5131 0.92407 0.95046 0.0
C606 C 0.51716 0.94719 0.95431 0.0
C607 C 0.51399 0.96033 0.89107 0.0
C608 C 0.50704 0.95034 0.82471 0.0
C609 C 0.50304 0.92687 0.82261 0.0
H610 H 0.63064 0.46434 0.02121 0.0
H611 H 0.61692 0.52606 0.13973 0.0
H612 H 0.5854 0.53418 0.05552 0.0
H613 H 0.61894 0.48478 0.8436 0.0
H614 H 0.60594 0.45905 0.81315 0.0
H615 H 0.62714 0.45818 0.88322 0.0
H616 H 0.59948 0.4372 0.96989 0.0
H617 H 0.57819 0.43794 0.89996 0.0
H618 H 0.57234 0.4494 0.98917 0.0
H619 H 0.55572 0.53582 0.95384 0.0
H620 H 0.53042 0.53036 0.84766 0.0
H621 H 0.56313 0.46677 0.80141 0.0
C622 C 0.62084 0.47941 0.03072 0.0
C623 C 0.62634 0.49448 0.08781 0.0
C624 C 0.61329 0.51431 0.09622 0.0
C625 C 0.59523 0.51901 0.04882 0.0
C626 C 0.59033 0.5037 0.99332 0.0
C627 C 0.60274 0.48425 0.9845 0.0
C628 C 0.5943 0.4705 0.9206 0.0
C629 C 0.61268 0.46799 0.86167 0.0
C630 C 0.58556 0.4474 0.94647 0.0
C631 C 0.57527 0.48531 0.89419 0.0
C632 C 0.57317 0.50441 0.93663 0.0
C633 C 0.55704 0.5208 0.921 0.0
C634 C 0.54273 0.51756 0.8607 0.0
C635 C 0.54467 0.49806 0.81684 0.0
C636 C 0.56114 0.48179 0.83422 0.0
H637 H 0.03198 0.6226 0.09284 0.0
H638 H 0.9701 0.66122 0.07775 0.0
H639 H 0.95439 0.63271 0.99485 0.0
H640 H 0.03483 0.60864 0.90738 0.0
H641 H 0.046 0.58073 0.92114 0.0
H642 H 0.05132 0.60236 0.98755 0.0
H643 H 0.03431 0.57701 0.0894 0.0
H644 H 0.02896 0.55528 0.02308 0.0
H645 H 1.00627 0.56587 0.07882 0.0
H646 H 0.94699 0.60282 0.9021 0.0
H647 H 0.94829 0.57338 0.80726 0.0
H648 H 0.01488 0.5538 0.87999 0.0
C649 C 0.01502 0.62502 0.07285 0.0
C650 C 1.0023 0.6443 0.0927 0.0
C651 C 0.98012 0.64652 0.06515 0.0
C652 C 0.97105 0.63042 0.01745 0.0
C653 C 0.98426 0.61202 0.99772 0.0
C654 C 1.00574 0.60914 0.02484 0.0
C655 C 0.017 0.58871 0.99074 0.0
C656 C 0.03855 0.59553 0.94924 0.0
C657 C 0.02192 0.57065 0.049 0.0
C658 C 0.99874 0.58097 0.93859 0.0
C659 C 0.97992 0.59457 0.94413 0.0
C660 C 0.96146 0.59185 0.89816 0.0
C661 C 0.96237 0.57509 0.84439 0.0
C662 C 0.98154 0.56116 0.83687 0.0
C663 C 0.99979 0.56387 0.8856 0.0
H664 H 0.88018 0.17492 0.35452 0.0
H665 H 0.91626 0.21634 0.5104 0.0
H666 H 0.91499 0.18552 0.59959 0.0
H667 H 0.84922 0.13636 0.49433 0.0
H668 H 0.8542 0.11239 0.4363 0.0
H669 H 0.84942 0.13979 0.39628 0.0
H670 H 0.88695 0.13638 0.32473 0.0
H671 H 0.89202 0.10931 0.36499 0.0
H672 H 0.91267 0.13138 0.37436 0.0
H673 H 0.92036 0.1485 0.65643 0.0
H674 H 0.93152 0.10906 0.67524 0.0
H675 H 0.89457 0.08987 0.48091 0.0
C676 C 0.88714 0.17779 0.40832 0.0
C677 C 0.89842 0.19813 0.42477 0.0
C678 C 0.90712 0.2012 0.49619 0.0
C679 C 0.90657 0.18364 0.54755 0.0
C680 C 0.89723 0.16308 0.52702 0.0
C681 C 0.88735 0.16015 0.45926 0.0
C682 C 0.88283 0.13546 0.44435 0.0
C683 C 0.8574 0.13073 0.44275 0.0
C684 C 0.89432 0.1277 0.37297 0.0
C685 C 0.89359 0.12488 0.51107 0.0
C686 C 0.90095 0.14112 0.55953 0.0
C687 C 0.914 0.1356 0.62027 0.0
C688 C 0.92026 0.11309 0.63055 0.0
C689 C 0.91376 0.09637 0.57972 0.0
C690 C 0.8996 0.1023 0.52085 0.0
H691 H 0.34278 0.0852 0.17864 0.0
H692 H 0.32466 0.12106 0.37616 0.0
H693 H 0.36212 0.11259 0.42779 0.0
H694 H 0.36462 0.04141 0.25906 0.0
H695 H 0.38745 0.03589 0.19645 0.0
H696 H 0.36296 0.05056 0.16499 0.0
H697 H 0.38748 0.08407 0.12127 0.0
H698 H 0.41231 0.06928 0.15125 0.0
H699 H 0.40669 0.09731 0.18404 0.0
H700 H 0.3964 0.09283 0.4686 0.0
H701 H 0.42515 0.06397 0.49495 0.0
H702 H 0.42116 0.04031 0.27158 0.0
C703 C 0.34718 0.09245 0.23095 0.0
C704 C 0.33099 0.10415 0.27297 0.0
C705 C 0.33694 0.11233 0.34283 0.0
C706 C 0.3582 0.10765 0.37235 0.0
C707 C 0.37331 0.09489 0.33109 0.0
C708 C 0.36818 0.08768 0.26127 0.0
C709 C 0.38546 0.07101 0.23324 0.0
C710 C 0.37445 0.0484 0.21231 0.0
C711 C 0.39878 0.08102 0.16863 0.0
C712 C 0.40017 0.06864 0.30023 0.0
C713 C 0.39325 0.08305 0.35529 0.0
C714 C 0.40237 0.08196 0.42532 0.0
C715 C 0.41852 0.06543 0.43996 0.0
C716 C 0.42529 0.05013 0.38499 0.0
C717 C 0.41655 0.05222 0.31377 0.0
H718 H 0.5926 0.29846 0.37911 0.0
H719 H 0.64745 0.31914 0.23698 0.0
H720 H 0.64628 0.35718 0.29097 0.0
H721 H 0.56123 0.34224 0.3541 0.0
H722 H 0.54998 0.34524 0.44523 0.0
H723 H 0.55955 0.31825 0.41478 0.0
H724 H 0.58706 0.31539 0.52397 0.0
H725 H 0.57713 0.34225 0.55639 0.0
H726 H 0.60677 0.33789 0.54067 0.0
H727 H 0.63278 0.39451 0.33645 0.0
H728 H 0.60944 0.42701 0.37351 0.0
H729 H 0.5636 0.38174 0.48634 0.0
C730 C 0.60533 0.31051 0.36247 0.0
C731 C 0.62022 0.30576 0.30418 0.0
C732 C 0.63593 0.3224 0.28174 0.0
C733 C 0.63543 0.34404 0.31232 0.0
C734 C 0.61935 0.34865 0.366 0.0
C735 C 0.6049 0.33214 0.39209 0.0
C736 C 0.58679 0.342 0.44075 0.0
C737 C 0.56301 0.33662 0.41191 0.0
C738 C 0.58962 0.33391 0.52017 0.0
C739 C 0.59222 0.36676 0.43345 0.0
C740 C 0.6114 0.37031 0.39186 0.0
C741 C 0.61815 0.39193 0.37091 0.0
C742 C 0.60478 0.41029 0.39204 0.0
C743 C 0.58472 0.40683 0.43265 0.0
C744 C 0.57884 0.38485 0.45519 0.0
H745 H 0.19624 0.60369 0.45624 0.0
H746 H 0.18223 0.65905 0.30835 0.0
H747 H 0.14537 0.66452 0.36802 0.0
H748 H 0.14932 0.57867 0.44114 0.0
H749 H 0.14502 0.56907 0.53387 0.0
H750 H 0.17294 0.57471 0.50164 0.0
H751 H 0.17951 0.60305 0.60656 0.0
H752 H 0.15161 0.59707 0.64084 0.0
H753 H 0.15982 0.62569 0.62092 0.0
H754 H 0.10711 0.6561 0.41352 0.0
H755 H 0.07204 0.6362 0.446 0.0
H756 H 0.11053 0.58698 0.56879 0.0
C757 C 0.18608 0.61794 0.43969 0.0
C758 C 0.1921 0.63099 0.37792 0.0
C759 C 0.17793 0.64889 0.35574 0.0
C760 C 0.15699 0.65215 0.38959 0.0
C761 C 0.15065 0.63765 0.44631 0.0
C762 C 0.16509 0.62123 0.47265 0.0
C763 C 0.153 0.60513 0.52399 0.0
C764 C 0.1552 0.58048 0.49853 0.0
C765 C 0.16149 0.60792 0.60276 0.0
C766 C 0.12914 0.61364 0.5165 0.0
C767 C 0.12818 0.63283 0.47345 0.0
C768 C 0.10769 0.64161 0.44958 0.0
C769 C 0.0878 0.63016 0.46828 0.0
C770 C 0.08856 0.61 0.50989 0.0
C771 C 0.10944 0.60233 0.5368 0.0
H772 H 0.10918 0.79821 0.9974 0.0
H773 H 0.16201 0.80952 0.15596 0.0
H774 H 0.1685 0.8474 0.10383 0.0
H775 H 0.13411 0.83611 0.84285 0.0
H776 H 0.10603 0.84499 0.81929 0.0
H777 H 0.1109 0.81668 0.85172 0.0
H778 H 0.08098 0.82272 0.953 0.0
H779 H 0.07637 0.85101 0.92246 0.0
H780 H 0.08431 0.84575 0.0161 0.0
H781 H 0.16172 0.88657 0.05979 0.0
H782 H 0.14411 0.92245 0.02188 0.0
H783 H 0.09563 0.88543 0.89256 0.0
C784 C 0.12311 0.80803 0.01815 0.0
C785 C 0.13513 0.80086 0.08054 0.0
C786 C 0.1526 0.81467 0.10807 0.0
C787 C 0.15645 0.8362 0.07857 0.0
C788 C 0.14297 0.84349 0.02078 0.0
C789 C 0.12699 0.82955 0.98959 0.0
C790 C 0.11205 0.84238 0.93706 0.0
C791 C 0.11602 0.83458 0.85803 0.0
C792 C 0.08698 0.84035 0.95855 0.0
C793 C 0.12082 0.86602 0.94822 0.0
C794 C 0.13905 0.86631 0.99508 0.0
C795 C 0.14794 0.8865 0.02121 0.0
C796 C 0.13769 0.90679 1.00001 0.0
C797 C 0.11863 0.90673 0.95368 0.0
C798 C 0.11061 0.88607 0.92604 0.0
H799 H 0.69615 0.08899 0.97452 0.0
H800 H 0.69068 0.11568 0.19431 0.0
H801 H 0.65184 0.12741 0.1693 0.0
H802 H 0.65347 0.12905 0.88211 0.0
H803 H 0.64303 0.10609 0.82756 0.0
H804 H 0.67237 0.10716 0.85244 0.0
H805 H 0.66905 0.06716 0.90866 0.0
H806 H 0.63984 0.06605 0.88488 0.0
H807 H 0.64823 0.06185 0.97867 0.0
H808 H 0.61153 0.12646 0.13488 0.0
H809 H 0.57411 0.11423 0.09162 0.0
H810 H 0.60499 0.08648 0.89669 0.0
C811 C 0.68707 0.09813 0.01634 0.0
C812 C 0.69655 0.10139 0.08628 0.0
C813 C 0.68407 0.11332 0.13974 0.0
C814 C 0.66185 0.11999 0.12611 0.0
C815 C 0.65236 0.11483 0.05856 0.0
C816 C 0.66474 0.1045 1.00392 0.0
C817 C 0.64978 0.09707 0.94156 0.0
C818 C 0.65497 0.11066 0.87179 0.0
C819 C 0.65185 0.07154 0.92776 0.0
C820 C 0.62692 0.10316 0.97228 0.0
C821 C 0.62875 0.11402 0.03878 0.0
C822 C 0.60988 0.11858 0.08188 0.0
C823 C 0.58871 0.11141 0.05724 0.0
C824 C 0.58663 0.0996 0.99047 0.0
C825 C 0.60594 0.09611 0.94674 0.0
H826 H 0.57338 0.69883 1.00026 0.0
H827 H 0.63173 0.66889 0.10393 0.0
H828 H 0.61786 0.63105 0.06993 0.0
H829 H 0.53623 0.66362 0.06973 0.0
H830 H 0.51766 0.66183 0.99217 0.0
H831 H 0.53475 0.68646 1.00457 0.0
H832 H 0.55261 0.68157 0.87619 0.0
H833 H 0.53494 0.6573 0.86181 0.0
H834 H 0.56503 0.65497 0.85158 0.0
H835 H 0.59361 0.59672 0.04725 0.0
H836 H 0.56321 0.56909 0.02673 0.0
H837 H 0.52028 0.62261 0.94504 0.0
C838 C 0.58404 0.6845 0.01197 0.0
C839 C 0.60381 0.68687 0.054 0.0
C840 C 0.61665 0.66746 0.07112 0.0
C841 C 0.60884 0.64592 0.05221 0.0
C842 C 0.58831 0.64415 0.01575 0.0
C843 C 0.57634 0.66302 0.99445 0.0
C844 C 0.55334 0.65687 0.96539 0.0
C845 C 0.53441 0.66784 0.0107 0.0
C846 C 0.55138 0.66303 0.88389 0.0
C847 C 0.55381 0.63168 0.97644 0.0
C848 C 0.57418 0.62454 1.00447 0.0
C849 C 0.57778 0.6021 0.02384 0.0
C850 C 0.56028 0.58656 0.01287 0.0
C851 C 0.53935 0.59356 0.98344 0.0
C852 C 0.53621 0.61651 0.96569 0.0
H853 H 0.81971 0.38126 0.12911 0.0
H854 H 0.77442 0.40388 0.95815 0.0
H855 H 0.80465 0.4 0.86802 0.0
H856 H 0.85902 0.41653 0.08591 0.0
H857 H 0.88329 0.39941 0.1061 0.0
H858 H 0.85706 0.39363 0.1508 0.0
H859 H 0.85799 0.35255 0.10367 0.0
H860 H 0.88454 0.35819 0.059 0.0
H861 H 0.86123 0.34724 0.00718 0.0
H862 H 0.84068 0.40513 0.80441 0.0
H863 H 0.87848 0.41972 0.77543 0.0
H864 H 0.90164 0.39904 0.99015 0.0
C865 C 0.81592 0.3847 0.0723 0.0
C866 C 0.79462 0.39312 0.05145 0.0
C867 C 0.79035 0.39706 0.9762 0.0
C868 C 0.80758 0.39496 0.92416 0.0
C869 C 0.82904 0.38895 0.94792 0.0
C870 C 0.83323 0.38363 0.02039 0.0
C871 C 0.85829 0.38297 0.03569 0.0
C872 C 0.86477 0.3991 0.09821 0.0
C873 C 0.86596 0.35879 0.05235 0.0
C874 C 0.86741 0.39094 0.96262 0.0
C875 C 0.85037 0.39319 0.91169 0.0
C876 C 0.85422 0.40294 0.84326 0.0
C877 C 0.87571 0.41144 0.8276 0.0
C878 C 0.89299 0.41068 0.88082 0.0
C879 C 0.88896 0.3994 0.94779 0.0
H880 H 0.98285 0.17405 0.8604 0.0
H881 H 0.03477 0.17598 0.02724 0.0
H882 H 0.04664 0.13783 0.99279 0.0
H883 H 0.96658 0.11786 0.89198 0.0
H884 H 0.96149 0.11109 0.79741 0.0
H885 H 0.95858 0.13968 0.82828 0.0
H886 H 0.98713 0.15301 0.72992 0.0
H887 H 0.98999 0.12442 0.69845 0.0
H888 H 0.01457 0.14012 0.72555 0.0
H889 H 0.05027 0.09803 0.95126 0.0
H890 H 0.04682 0.05987 0.89996 0.0
H891 H 0.9927 0.08278 0.7592 0.0
C892 C 0.99691 0.16661 0.88921 0.0
C893 C 1.00794 0.17838 0.94643 0.0
C894 C 0.0263 0.16781 0.98218 0.0
C895 C 0.03308 0.14595 0.96342 0.0
C896 C 0.02147 0.1347 0.90845 0.0
C897 C 1.0039 0.1447 0.87123 0.0
C898 C 0.99353 0.12837 0.81688 0.0
C899 C 0.96857 0.124 0.83475 0.0
C900 C 0.99649 0.137 0.73802 0.0
C901 C 1.00771 0.1075 0.83068 0.0
C902 C 0.02375 0.11161 0.88365 0.0
C903 C 0.038 0.09471 0.90899 0.0
C904 C 0.03584 0.07302 0.87968 0.0
C905 C 0.01963 0.06831 0.82513 0.0
C906 C 1.00552 0.08592 0.79991 0.0
H907 H 0.34284 0.01034 0.99031 0.0
H908 H 0.30503 1.00405 0.78873 0.0
H909 H 0.34067 1.00172 0.71896 0.0
H910 H 0.38595 0.04552 0.91836 0.0
H911 H 0.4084 0.033 0.97063 0.0
H912 H 0.38007 0.03264 1.00588 0.0
H913 H 0.38166 0.98925 0.0187 0.0
H914 H 0.41011 0.98945 0.98417 0.0
H915 H 0.38899 0.97241 0.94034 0.0
H916 H 0.38007 1.00145 0.6707 0.0
H917 H 0.42073 1.00278 0.64613 0.0
H918 H 0.43371 0.00977 0.87873 0.0
C919 C 0.34208 1.00799 0.93164 0.0
C920 C 0.32113 1.00716 0.89491 0.0
C921 C 0.32086 1.00469 0.8179 0.0
C922 C 0.34101 1.00334 0.77789 0.0
C923 C 0.36135 1.00458 0.81559 0.0
C924 C 0.36208 1.00679 0.89073 0.0
C925 C 0.38624 1.00858 0.91737 0.0
C926 C 0.3904 0.03129 0.95528 0.0
C927 C 0.39209 0.98874 0.96814 0.0
C928 C 0.39895 1.00712 0.84532 0.0
C929 C 0.38421 1.00473 0.7875 0.0
C930 C 0.39178 1.00319 0.71558 0.0
C931 C 0.41501 1.00394 0.70223 0.0
C932 C 0.4306 1.00627 0.76038 0.0
C933 C 0.42233 1.00798 0.83296 0.0
H934 H 0.5187 0.32341 0.80555 0.0
H935 H 0.47287 0.3235 0.9913 0.0
H936 H 0.45984 0.36129 0.95598 0.0
H937 H 0.53627 0.37924 0.82475 0.0
H938 H 0.53843 0.38527 0.72824 0.0
H939 H 0.54192 0.35686 0.76093 0.0
H940 H 0.51022 0.34336 0.67457 0.0
H941 H 0.50671 0.37176 0.64133 0.0
H942 H 0.48296 0.35662 0.6787 0.0
H943 H 0.45516 0.40077 0.91105 0.0
H944 H 0.45808 0.43869 0.8565 0.0
H945 H 0.50715 0.41399 0.69994 0.0
C946 C 0.5057 0.33118 0.83842 0.0
C947 C 0.49678 0.32013 0.90126 0.0
C948 C 0.4797 0.33112 0.9421 0.0
C949 C 0.47227 0.35277 0.92277 0.0
C950 C 0.48195 0.36337 0.86215 0.0
C951 C 0.49816 0.3529 0.8201 0.0
C952 C 0.50695 0.36867 0.76071 0.0
C953 C 0.5324 0.37275 0.76921 0.0
C954 C 0.50137 0.35955 0.68429 0.0
C955 C 0.49357 0.38983 0.77725 0.0
C956 C 0.47915 0.3863 0.83575 0.0
C957 C 0.46613 0.40363 0.86452 0.0
C958 C 0.46798 0.42517 0.83327 0.0
C959 C 0.4827 0.42934 0.77353 0.0
C960 C 0.49542 0.41127 0.74459 0.0
H961 H 0.14429 0.49763 1.00305 0.0
H962 H 0.18477 0.52985 0.83432 0.0
H963 H 0.15207 0.52941 0.75117 0.0
H964 H 0.10961 0.46266 0.88219 0.0
H965 H 0.08465 0.46676 0.9368 0.0
H966 H 0.11197 0.46719 0.97934 0.0
H967 H 0.1034 0.50669 0.03243 0.0
H968 H 0.07616 0.50645 0.98965 0.0
H969 H 0.09549 0.52923 0.97135 0.0
H970 H 0.11355 0.52868 0.69017 0.0
H971 H 0.07336 0.52643 0.65596 0.0
H972 H 0.05811 0.49582 0.86653 0.0
C973 C 0.14643 0.5044 0.94837 0.0
C974 C 0.16728 0.51373 0.92551 0.0
C975 C 0.16922 0.52222 0.85307 0.0
C976 C 0.15063 0.52222 0.8055 0.0
C977 C 0.13017 0.51359 0.83087 0.0
C978 C 0.12805 0.50467 0.90051 0.0
C979 C 0.10399 0.49758 0.91625 0.0
C980 C 0.10247 0.47203 0.9294 0.0
C981 C 0.09419 0.51078 0.98125 0.0
C982 C 0.09276 0.50425 0.8451 0.0
C983 C 0.10812 0.51333 0.79625 0.0
C984 C 0.10145 0.52137 0.72781 0.0
C985 C 0.07855 0.52005 0.70889 0.0
C986 C 0.0625 0.51087 0.75834 0.0
C987 C 0.06988 0.50282 0.82718 0.0
H988 H 0.99951 0.8519 0.41816 0.0
H989 H 0.01688 0.80568 0.5938 0.0
H990 H 0.01487 0.83695 0.682 0.0
H991 H 0.03322 0.89658 0.47811 0.0
H992 H 0.01395 0.91856 0.45176 0.0
H993 H 0.01387 0.89217 0.40371 0.0
H994 H 0.97139 0.88717 0.43173 0.0
H995 H 0.97128 0.91365 0.47952 0.0
H996 H 0.96162 0.88844 0.52512 0.0
H997 H 0.01501 0.874 0.74922 0.0
H998 H 0.01557 0.91344 0.79099 0.0
H999 H 0.99871 0.93592 0.57158 0.0
C1000 C 1.00265 0.84823 0.47528 0.0
C1001 C 1.00829 0.82612 0.49868 0.0
C1002 C 0.0121 0.82223 0.57425 0.0
C1003 C 0.01118 0.83998 0.62485 0.0
C1004 C 1.0063 0.86161 0.59942 0.0
C1005 C 1.00188 0.86576 0.52647 0.0
C1006 C 0.99828 0.89074 0.51256 0.0
C1007 C 0.01588 0.90005 0.45834 0.0
C1008 C 0.97421 0.89526 0.48565 0.0
C1009 C 1.00185 0.90008 0.58881 0.0
C1010 C 1.00634 0.88297 0.63817 0.0
C1011 C 0.01123 0.88748 0.71118 0.0
C1012 C 0.01157 0.91001 0.73435 0.0
C1013 C 1.00705 0.92789 0.68483 0.0
C1014 C 1.00197 0.9227 0.61114 0.0
H1015 H 0.6589 0.97336 0.44993 0.0
H1016 H 0.698 0.01167 0.6067 0.0
H1017 H 0.66453 0.01464 0.68615 0.0
H1018 H 0.61129 1.00716 0.46046 0.0
H1019 H 0.59127 0.98458 0.44995 0.0
H1020 H 0.61905 0.98203 0.41152 0.0
H1021 H 0.62516 0.94484 0.48344 0.0
H1022 H 0.59728 0.94718 0.52178 0.0
H1023 H 0.62127 0.94444 0.5813 0.0
H1024 H 0.62549 0.01693 0.74276 0.0
H1025 H 0.58478 0.01828 0.77066 0.0
H1026 H 0.57097 0.98065 0.57262 0.0
C1027 C 0.66062 0.98219 0.50128 0.0
C1028 C 0.68134 0.99222 0.52163 0.0
C1029 C 0.68262 1.00339 0.59001 0.0
C1030 C 0.66358 1.00534 0.63546 0.0
C1031 C 0.64327 0.99604 0.61207 0.0
C1032 C 0.64174 0.98458 0.54666 0.0
C1033 C 0.61763 0.97781 0.53077 0.0
C1034 C 0.60933 0.98854 0.45894 0.0
C1035 C 0.6152 0.95204 0.52925 0.0
C1036 C 0.60571 0.98774 0.59651 0.0
C1037 C 0.6208 0.9979 0.64342 0.0
C1038 C 0.61358 1.00883 0.70668 0.0
C1039 C 0.59038 1.00951 0.72208 0.0
C1040 C 0.57457 0.99957 0.67396 0.0
C1041 C 0.58253 0.98841 0.61071 0.0
H1042 H 0.51952 0.65018 0.38366 0.0
H1043 H 0.48149 0.69115 0.5366 0.0
H1044 H 0.47359 0.65731 0.61121 0.0
H1045 H 0.48257 0.60126 0.39207 0.0
H1046 H 0.50538 0.58136 0.38556 0.0
H1047 H 0.50802 0.60879 0.34377 0.0
H1048 H 0.54462 0.61587 0.41678 0.0
H1049 H 0.54207 0.58851 0.45897 0.0
H1050 H 0.54419 0.6133 0.5151 0.0
H1051 H 0.47063 0.61938 0.67109 0.0
H1052 H 0.47185 0.57983 0.71114 0.0
H1053 H 0.51058 0.56258 0.51745 0.0
C1054 C 0.5092 0.65207 0.43215 0.0
C1055 C 0.50114 0.67353 0.45397 0.0
C1056 C 0.48814 0.6751 0.51893 0.0
C1057 C 0.48343 0.6559 0.56152 0.0
C1058 C 0.49172 0.63513 0.5385 0.0
C1059 C 0.50423 0.63304 0.47516 0.0
C1060 C 0.51128 0.60873 0.46313 0.0
C1061 C 0.50121 0.59949 0.3919 0.0
C1062 C 0.53707 0.60648 0.46354 0.0
C1063 C 0.50082 0.59746 0.52981 0.0
C1064 C 0.4897 0.61308 0.57255 0.0
C1065 C 0.4792 0.607 0.63788 0.0
C1066 C 0.4801 0.58442 0.66031 0.0
C1067 C 0.49134 0.56796 0.61762 0.0
C1068 C 0.50171 0.57465 0.55109 0.0
H1069 H 0.83279 0.5098 0.4101 0.0
H1070 H 0.794 0.50787 0.61176 0.0
H1071 H 0.82918 0.51023 0.68284 0.0
H1072 H 0.87788 0.47623 0.47031 0.0
H1073 H 0.89948 0.49203 0.42326 0.0
H1074 H 0.87126 0.49153 0.38772 0.0
H1075 H 0.86984 0.53512 0.39046 0.0
H1076 H 0.89817 0.53577 0.42539 0.0
H1077 H 0.87584 0.54966 0.47458 0.0
H1078 H 0.86871 0.5101 0.73219 0.0
H1079 H 0.90955 0.50981 0.7563 0.0
H1080 H 0.92284 0.51317 0.52286 0.0
C1081 C 0.83159 0.51044 0.46917 0.0
C1082 C 0.81048 0.50864 0.50516 0.0
C1083 C 0.80988 0.50898 0.58273 0.0
C1084 C 0.8298 0.51041 0.62365 0.0
C1085 C 0.85028 0.51167 0.58642 0.0
C1086 C 0.85132 0.51195 0.51091 0.0
C1087 C 0.87556 0.51283 0.48438 0.0
C1088 C 0.88138 0.49191 0.43873 0.0
C1089 C 0.88012 0.53465 0.44116 0.0
C1090 C 0.888 0.51273 0.55676 0.0
C1091 C 0.87308 0.51201 0.61492 0.0
C1092 C 0.88053 0.51088 0.68707 0.0
C1093 C 0.9038 0.5106 0.7002 0.0
C1094 C 0.91945 0.51151 0.64156 0.0
C1095 C 0.91133 0.51269 0.56892 0.0
loop_
_geom_bond_atom_site_label_1
_geom_bond_atom_site_label_2
_geom_bond_distance
_geom_bond_site_symmetry_2
_ccdc_geom_bond_type
C0 C1 1.384 . S
C0 H13 0.947 . S
C0 C35 1.382 . S
C1 C0 1.384 . S
C1 C2 1.378 . S
C2 C1 1.378 . S
C2 C3 1.378 . S
C2 H14 0.952 . S
C3 C2 1.378 . S
C3 H15 0.950 . S
C3 C34 1.383 . S
H4 C23 0.947 . S
H5 C24 0.946 . S
H6 C26 0.953 . S
H7 C27 0.945 . S
H8 C29 0.952 . S
H9 C30 0.949 . S
H10 C32 0.950 . S
H11 C33 0.948 . S
H12 C35 0.951 . S
H13 C0 0.947 . S
H14 C2 0.952 . S
H15 C3 0.950 . S
N16 C19 1.382 . S
N16 C21 1.363 . S
N17 C19 1.371 . S
N17 C20 1.372 . S
N18 C20 1.361 . S
N18 C21 1.377 . S
C19 N16 1.382 . S
C19 N17 1.371 . S
C19 C22 1.480 . S
C20 N17 1.372 . S
C20 N18 1.361 . S
C20 C28 1.457 . S
C21 N16 1.363 . S
C21 N18 1.377 . S
C21 C34 1.479 . S
C22 C19 1.480 . S
C22 C23 1.383 . S
C22 C27 1.385 . S
C23 H4 0.947 . S
C23 C22 1.383 . S
C23 C24 1.388 . S
C24 H5 0.946 . S
C24 C23 1.388 . S
C24 C25 1.384 . S
C25 C24 1.384 . S
C25 C26 1.377 . S
C26 H6 0.953 . S
C26 C25 1.377 . S
C26 C27 1.369 . S
C27 H7 0.945 . S
C27 C22 1.385 . S
C27 C26 1.369 . S
C28 C20 1.457 . S
C28 C29 1.372 . S
C28 C33 1.364 . S
C29 H8 0.952 . S
C29 C28 1.372 . S
C29 C30 1.389 . S
C30 H9 0.949 . S
C30 C29 1.389 . S
C30 C31 1.387 . S
C31 C30 1.387 . S
C31 C32 1.372 . S
C32 H10 0.950 . S
C32 C31 1.372 . S
C32 C33 1.379 . S
C33 H11 0.948 . S
C33 C28 1.364 . S
C33 C32 1.379 . S
C34 C3 1.383 . S
C34 C21 1.479 . S
C34 C35 1.398 . S
C35 C0 1.382 . S
C35 H12 0.951 . S
C35 C34 1.398 . S
C36 C37 1.384 1_655 S
C36 H49 0.948 . S
C36 C71 1.382 1_655 S
C37 C36 1.384 1_455 S
C37 C38 1.378 . S
C38 C37 1.378 . S
C38 C39 1.378 . S
C38 H50 0.952 . S
C39 C38 1.378 . S
C39 H51 0.950 . S
C39 C70 1.383 . S
H40 C59 0.947 . S
H41 C60 0.952 . S
H42 C62 0.953 . S
H43 C63 0.945 . S
H44 C65 0.949 1_655 S
H45 C66 0.956 . S
H46 C68 0.950 . S
H47 C69 0.948 . S
H48 C71 0.951 1_655 S
H49 C36 0.948 . S
H50 C38 0.952 . S
H51 C39 0.950 . S
N52 C55 1.382 . S
N52 C57 1.363 . S
N53 C55 1.371 . S
N53 C56 1.372 . S
N54 C56 1.361 . S
N54 C57 1.377 . S
C55 N52 1.382 . S
C55 N53 1.371 . S
C55 C58 1.480 . S
C56 N53 1.372 . S
C56 N54 1.361 . S
C56 C64 1.457 . S
C57 N52 1.363 . S
C57 N54 1.377 . S
C57 C70 1.479 . S
C58 C55 1.480 . S
C58 C59 1.383 . S
C58 C63 1.385 . S
C59 H40 0.947 . S
C59 C58 1.383 . S
C59 C60 1.386 1_455 S
C60 H41 0.952 . S
C60 C59 1.386 1_655 S
C60 C61 1.381 1_655 S
C61 C60 1.381 1_455 S
C61 C62 1.377 . S
C62 H42 0.953 . S
C62 C61 1.377 . S
C62 C63 1.369 . S
C63 H43 0.945 . S
C63 C58 1.385 . S
C63 C62 1.369 . S
C64 C56 1.457 . S
C64 C65 1.376 . S
C64 C69 1.364 . S
C65 H44 0.949 1_455 S
C65 C64 1.376 . S
C65 C66 1.387 1_455 S
C66 H45 0.956 . S
C66 C65 1.387 1_655 S
C66 C67 1.383 1_655 S
C67 C66 1.383 1_455 S
C67 C68 1.372 . S
C68 H46 0.950 . S
C68 C67 1.372 . S
C68 C69 1.379 . S
C69 H47 0.948 . S
C69 C64 1.364 . S
C69 C68 1.379 . S
C70 C39 1.383 . S
C70 C57 1.479 . S
C70 C71 1.398 . S
C71 C36 1.382 1_455 S
C71 H48 0.951 1_455 S
C71 C70 1.398 . S
C72 C73 1.384 1_565 S
C72 H85 0.948 . S
C72 C107 1.382 1_565 S
C73 C72 1.384 1_545 S
C73 C74 1.378 . S
C74 C73 1.378 . S
C74 C75 1.378 . S
C74 H86 0.952 . S
C75 C74 1.378 . S
C75 H87 0.950 . S
C75 C106 1.383 . S
H76 C95 0.947 . S
H77 C96 0.952 . S
H78 C98 0.953 . S
H79 C99 0.945 . S
H80 C101 0.949 1_565 S
H81 C102 0.957 . S
H82 C104 0.950 . S
H83 C105 0.948 . S
H84 C107 0.951 1_565 S
H85 C72 0.948 . S
H86 C74 0.952 . S
H87 C75 0.950 . S
N88 C91 1.382 . S
N88 C93 1.363 . S
N89 C91 1.371 . S
N89 C92 1.372 . S
N90 C92 1.361 . S
N90 C93 1.377 . S
C91 N88 1.382 . S
C91 N89 1.371 . S
C91 C94 1.480 . S
C92 N89 1.372 . S
C92 N90 1.361 . S
C92 C100 1.457 . S
C93 N88 1.363 . S
C93 N90 1.377 . S
C93 C106 1.479 . S
C94 C91 1.480 . S
C94 C95 1.383 . S
C94 C99 1.385 . S
C95 H76 0.947 . S
C95 C94 1.383 . S
C95 C96 1.386 1_545 S
C96 H77 0.952 . S
C96 C95 1.386 1_565 S
C96 C97 1.382 1_565 S
C97 C96 1.382 1_545 S
C97 C98 1.377 . S
C98 H78 0.953 . S
C98 C97 1.377 . S
C98 C99 1.369 . S
C99 H79 0.945 . S
C99 C94 1.385 . S
C99 C98 1.369 . S
C100 C92 1.457 . S
C100 C101 1.376 . S
C100 C105 1.364 . S
C101 H80 0.949 1_545 S
C101 C100 1.376 . S
C101 C102 1.386 1_545 S
C102 H81 0.957 . S
C102 C101 1.386 1_565 S
C102 C103 1.383 1_565 S
C103 C102 1.383 1_545 S
C103 C104 1.372 . S
C104 H82 0.950 . S
C104 C103 1.372 . S
C104 C105 1.379 . S
C105 H83 0.948 . S
C105 C100 1.364 . S
C105 C104 1.379 . S
C106 C75 1.383 . S
C106 C93 1.479 . S
C106 C107 1.398 . S
C107 C72 1.382 1_545 S
C107 H84 0.951 1_545 S
C107 C106 1.398 . S
C108 C109 1.384 . S
C108 H121 0.947 . S
C108 C143 1.382 . S
C109 C108 1.384 . S
C109 C110 1.378 . S
C110 C109 1.378 . S
C110 C111 1.378 . S
C110 H122 0.952 . S
C111 C110 1.378 . S
C111 H123 0.950 . S
C111 C142 1.383 . S
H112 C131 0.947 . S
H113 C132 0.946 . S
H114 C134 0.953 . S
H115 C135 0.945 . S
H116 C137 0.952 . S
H117 C138 0.949 . S
H118 C140 0.950 . S
H119 C141 0.948 . S
H120 C143 0.951 . S
H121 C108 0.947 . S
H122 C110 0.952 . S
H123 C111 0.950 . S
N124 C127 1.382 . S
N124 C129 1.363 . S
N125 C127 1.371 . S
N125 C128 1.372 . S
N126 C128 1.361 . S
N126 C129 1.377 . S
C127 N124 1.382 . S
C127 N125 1.371 . S
C127 C130 1.480 . S
C128 N125 1.372 . S
C128 N126 1.361 . S
C128 C136 1.457 . S
C129 N124 1.363 . S
C129 N126 1.377 . S
C129 C142 1.479 . S
C130 C127 1.480 . S
C130 C131 1.383 . S
C130 C135 1.385 . S
C131 H112 0.947 . S
C131 C130 1.383 . S
C131 C132 1.388 . S
C132 H113 0.946 . S
C132 C131 1.388 . S
C132 C133 1.384 . S
C133 C132 1.384 . S
C133 C134 1.377 . S
C134 H114 0.953 . S
C134 C133 1.377 . S
C134 C135 1.369 . S
C135 H115 0.945 . S
C135 C130 1.385 . S
C135 C134 1.369 . S
C136 C128 1.457 . S
C136 C137 1.372 . S
C136 C141 1.364 . S
C137 H116 0.952 . S
C137 C136 1.372 . S
C137 C138 1.389 . S
C138 H117 0.949 . S
C138 C137 1.389 . S
C138 C139 1.387 . S
C139 C138 1.387 . S
C139 C140 1.372 . S
C140 H118 0.950 . S
C140 C139 1.372 . S
C140 C141 1.379 . S
C141 H119 0.948 . S
C141 C136 1.364 . S
C141 C140 1.379 . S
C142 C111 1.383 . S
C142 C129 1.479 . S
C142 C143 1.398 . S
C143 C108 1.382 . S
C143 H120 0.951 . S
C143 C142 1.398 . S
C144 C145 1.384 . S
C144 H157 0.947 . S
C144 C179 1.382 . S
C145 C144 1.384 . S
C145 C146 1.378 . S
C146 C145 1.378 . S
C146 C147 1.378 . S
C146 H158 0.952 . S
C147 C146 1.378 . S
C147 H159 0.950 . S
C147 C178 1.383 . S
H148 C167 0.947 1_556 S
H149 C168 0.946 . S
H150 C170 0.953 . S
H151 C171 0.945 . S
H152 C173 0.952 . S
H153 C174 0.949 . S
H154 C176 0.950 . S
H155 C177 0.948 . S
H156 C179 0.951 . S
H157 C144 0.947 . S
H158 C146 0.952 . S
H159 C147 0.950 . S
N160 C163 1.382 1_556 S
N160 C165 1.363 . S
N161 C163 1.371 . S
N161 C164 1.372 . S
N162 C164 1.361 . S
N162 C165 1.377 1_554 S
C163 N160 1.382 1_554 S
C163 N161 1.371 . S
C163 C166 1.480 . S
C164 N161 1.372 . S
C164 N162 1.361 . S
C164 C172 1.457 . S
C165 N160 1.363 . S
C165 N162 1.377 1_556 S
C165 C178 1.479 . S
C166 C163 1.480 . S
C166 C167 1.383 . S
C166 C171 1.385 . S
C167 H148 0.947 1_554 S
C167 C166 1.383 . S
C167 C168 1.388 . S
C168 H149 0.946 . S
C168 C167 1.388 . S
C168 C169 1.384 . S
C169 C168 1.384 . S
C169 C170 1.377 . S
C170 H150 0.953 . S
C170 C169 1.377 . S
C170 C171 1.369 . S
C171 H151 0.945 . S
C171 C166 1.385 . S
C171 C170 1.369 . S
C172 C164 1.457 . S
C172 C173 1.372 . S
C172 C177 1.364 . S
C173 H152 0.952 . S
C173 C172 1.372 . S
C173 C174 1.389 . S
C174 H153 0.949 . S
C174 C173 1.389 . S
C174 C175 1.387 . S
C175 C174 1.387 . S
C175 C176 1.372 . S
C176 H154 0.950 . S
C176 C175 1.372 . S
C176 C177 1.379 . S
C177 H155 0.948 . S
C177 C172 1.364 . S
C177 C176 1.379 . S
C178 C147 1.383 . S
C178 C165 1.479 . S
C178 C179 1.398 . S
C179 C144 1.382 . S
C179 H156 0.951 . S
C179 C178 1.398 . S
C180 C181 1.384 . S
C180 H193 0.948 1_455 S
C180 C215 1.382 . S
C181 C180 1.384 . S
C181 C182 1.378 . S
C182 C181 1.378 . S
C182 C183 1.378 . S
C182 H194 0.952 . S
C183 C182 1.378 . S
C183 H195 0.950 . S
C183 C214 1.383 . S
H184 C203 0.947 1_556 S
H185 C204 0.949 . S
H186 C206 0.953 . S
H187 C207 0.945 . S
H188 C209 0.947 1_655 S
H189 C210 0.954 . S
H190 C212 0.950 . S
H191 C213 0.948 . S
H192 C215 0.950 1_655 S
H193 C180 0.948 1_655 S
H194 C182 0.952 . S
H195 C183 0.950 . S
N196 C199 1.382 1_556 S
N196 C201 1.363 . S
N197 C199 1.371 . S
N197 C200 1.372 . S
N198 C200 1.361 . S
N198 C201 1.377 1_554 S
C199 N196 1.382 1_554 S
C199 N197 1.371 . S
C199 C202 1.480 . S
C200 N197 1.372 . S
C200 N198 1.361 . S
C200 C208 1.457 . S
C201 N196 1.363 . S
C201 N198 1.377 1_556 S
C201 C214 1.479 . S
C202 C199 1.480 . S
C202 C203 1.383 . S
C202 C207 1.385 . S
C203 H184 0.947 1_554 S
C203 C202 1.383 . S
C203 C204 1.387 1_455 S
C204 H185 0.949 . S
C204 C203 1.387 1_655 S
C204 C205 1.382 1_655 S
C205 C204 1.382 1_455 S
C205 C206 1.377 . S
C206 H186 0.953 . S
C206 C205 1.377 . S
C206 C207 1.369 . S
C207 H187 0.945 . S
C207 C202 1.385 . S
C207 C206 1.369 . S
C208 C200 1.457 . S
C208 C209 1.379 . S
C208 C213 1.364 . S
C209 H188 0.947 1_455 S
C209 C208 1.379 . S
C209 C210 1.387 1_455 S
C210 H189 0.954 . S
C210 C209 1.387 1_655 S
C210 C211 1.384 1_655 S
C211 C210 1.384 1_455 S
C211 C212 1.372 . S
C212 H190 0.950 . S
C212 C211 1.372 . S
C212 C213 1.379 . S
C213 H191 0.948 . S
C213 C208 1.364 . S
C213 C212 1.379 . S
C214 C183 1.383 . S
C214 C201 1.479 . S
C214 C215 1.399 . S
C215 C180 1.382 . S
C215 H192 0.950 1_455 S
C215 C214 1.399 . S
C216 C217 1.384 . S
C216 H229 0.948 1_545 S
C216 C251 1.382 . S
C217 C216 1.384 . S
C217 C218 1.378 . S
C218 C217 1.378 . S
C218 C219 1.378 . S
C218 H230 0.952 . S
C219 C218 1.378 . S
C219 H231 0.950 . S
C219 C250 1.383 . S
H220 C239 0.947 1_556 S
H221 C240 0.949 . S
H222 C242 0.953 . S
H223 C243 0.945 . S
H224 C245 0.947 1_565 S
H225 C246 0.954 . S
H226 C248 0.950 . S
H227 C249 0.948 . S
H228 C251 0.950 1_565 S
H229 C216 0.948 1_565 S
H230 C218 0.952 . S
H231 C219 0.950 . S
N232 C235 1.382 1_556 S
N232 C237 1.363 . S
N233 C235 1.371 . S
N233 C236 1.372 . S
N234 C236 1.361 . S
N234 C237 1.377 1_554 S
C235 N232 1.382 1_554 S
C235 N233 1.371 . S
C235 C238 1.480 . S
C236 N233 1.372 . S
C236 N234 1.361 . S
C236 C244 1.457 . S
C237 N232 1.363 . S
C237 N234 1.377 1_556 S
C237 C250 1.479 . S
C238 C235 1.480 . S
C238 C239 1.383 . S
C238 C243 1.385 . S
C239 H220 0.947 1_554 S
C239 C238 1.383 . S
C239 C240 1.387 1_545 S
C240 H221 0.949 . S
C240 C239 1.387 1_565 S
C240 C241 1.382 1_565 S
C241 C240 1.382 1_545 S
C241 C242 1.377 . S
C242 H222 0.953 . S
C242 C241 1.377 . S
C242 C243 1.369 . S
C243 H223 0.945 . S
C243 C238 1.385 . S
C243 C242 1.369 . S
C244 C236 1.457 . S
C244 C245 1.379 . S
C244 C249 1.364 . S
C245 H224 0.947 1_545 S
C245 C244 1.379 . S
C245 C246 1.387 1_545 S
C246 H225 0.954 . S
C246 C245 1.387 1_565 S
C246 C247 1.384 1_565 S
C247 C246 1.384 1_545 S
C247 C248 1.372 . S
C248 H226 0.950 . S
C248 C247 1.372 . S
C248 C249 1.379 . S
C249 H227 0.948 . S
C249 C244 1.364 . S
C249 C248 1.379 . S
C250 C219 1.383 . S
C250 C237 1.479 . S
C250 C251 1.399 . S
C251 C216 1.382 . S
C251 H228 0.950 1_545 S
C251 C250 1.399 . S
C252 C253 1.384 . S
C252 H265 0.947 . S
C252 C287 1.382 . S
C253 C252 1.384 . S
C253 C254 1.378 . S
C254 C253 1.378 . S
C254 C255 1.378 . S
C254 H266 0.952 . S
C255 C254 1.378 . S
C255 H267 0.950 . S
C255 C286 1.383 . S
H256 C275 0.947 . S
H257 C276 0.946 . S
H258 C278 0.953 1_556 S
H259 C279 0.945 1_556 S
H260 C281 0.952 . S
H261 C282 0.949 . S
H262 C284 0.950 . S
H263 C285 0.948 . S
H264 C287 0.951 . S
H265 C252 0.947 . S
H266 C254 0.952 . S
H267 C255 0.950 . S
N268 C271 1.382 . S
N268 C273 1.363 . S
N269 C271 1.371 1_556 S
N269 C272 1.372 . S
N270 C272 1.361 1_554 S
N270 C273 1.377 . S
C271 N268 1.382 . S
C271 N269 1.371 1_554 S
C271 C274 1.480 . S
C272 N269 1.372 . S
C272 N270 1.361 1_556 S
C272 C280 1.457 . S
C273 N268 1.363 . S
C273 N270 1.377 . S
C273 C286 1.479 . S
C274 C271 1.480 . S
C274 C275 1.383 . S
C274 C279 1.385 . S
C275 H256 0.947 . S
C275 C274 1.383 . S
C275 C276 1.388 . S
C276 H257 0.946 . S
C276 C275 1.388 . S
C276 C277 1.384 . S
C277 C276 1.384 . S
C277 C278 1.377 . S
C278 H258 0.953 1_554 S
C278 C277 1.377 . S
C278 C279 1.369 . S
C279 H259 0.945 1_554 S
C279 C274 1.385 . S
C279 C278 1.369 . S
C280 C272 1.457 . S
C280 C281 1.372 . S
C280 C285 1.364 . S
C281 H260 0.952 . S
C281 C280 1.372 . S
C281 C282 1.389 . S
C282 H261 0.949 . S
C282 C281 1.389 . S
C282 C283 1.387 . S
C283 C282 1.387 . S
C283 C284 1.372 . S
C284 H262 0.950 . S
C284 C283 1.372 . S
C284 C285 1.379 . S
C285 H263 0.948 . S
C285 C280 1.364 . S
C285 C284 1.379 . S
C286 C255 1.383 . S
C286 C273 1.479 . S
C286 C287 1.398 . S
C287 C252 1.382 . S
C287 H264 0.951 . S
C287 C286 1.398 . S
Sm288 C290 2.846 . S
Sm288 O308 2.543 . S
Sm288 O309 2.450 . S
Sm288 O310 2.681 1_565 S
Sm288 O311 2.464 . S
Sm288 O312 2.396 . S
Sm288 O316 2.386 1_455 S
Sm288 O319 2.408 1_565 S
Sm289 C299 2.846 . S
Sm289 O310 2.386 1_655 S
Sm289 O313 2.408 1_545 S
Sm289 O314 2.543 . S
Sm289 O315 2.450 . S
Sm289 O316 2.681 1_545 S
Sm289 O317 2.464 . S
Sm289 O318 2.396 . S
C290 Sm288 2.846 . S
C290 C291 1.506 . S
C290 O308 1.261 . S
C290 O309 1.242 . S
C291 C290 1.506 . S
C291 C292 1.358 . S
C291 C296 1.382 . S
C292 C291 1.358 . S
C292 C293 1.385 . S
C292 H320 0.930 1_455 S
C293 C292 1.385 . S
C293 C294 1.395 . S
C293 H321 0.896 1_455 S
C294 C293 1.395 . S
C294 C295 1.335 . S
C295 C294 1.335 . S
C295 C296 1.398 . S
C295 H322 0.930 . S
C296 C291 1.382 . S
C296 C295 1.398 . S
C296 H323 0.929 . S
C297 O310 1.271 1_565 S
C297 O311 1.251 . S
C298 O312 1.252 1_655 S
C298 O313 1.272 . S
C299 Sm289 2.846 . S
C299 C300 1.506 . S
C299 O314 1.261 . S
C299 O315 1.242 . S
C300 C299 1.506 . S
C300 C301 1.358 . S
C300 C305 1.382 . S
C301 C300 1.358 . S
C301 C302 1.385 . S
C301 H324 0.930 1_655 S
C302 C301 1.385 . S
C302 C303 1.395 . S
C302 H325 0.929 1_655 S
C303 C302 1.395 . S
C303 C304 1.335 . S
C304 C303 1.335 . S
C304 C305 1.398 . S
C304 H326 0.930 . S
C305 C300 1.382 . S
C305 C304 1.398 . S
C305 H327 0.929 . S
C306 O316 1.271 1_545 S
C306 O317 1.251 . S
C307 O318 1.252 1_455 S
C307 O319 1.272 . S
O308 Sm288 2.543 . S
O308 C290 1.261 . S
O309 Sm288 2.450 . S
O309 C290 1.242 . S
O310 Sm288 2.681 1_545 S
O310 Sm289 2.386 1_455 S
O310 C297 1.271 1_545 S
O311 Sm288 2.464 . S
O311 C297 1.251 . S
O312 Sm288 2.396 . S
O312 C298 1.252 1_455 S
O313 Sm289 2.408 1_565 S
O313 C298 1.272 . S
O314 Sm289 2.543 . S
O314 C299 1.261 . S
O315 Sm289 2.450 . S
O315 C299 1.242 . S
O316 Sm288 2.386 1_655 S
O316 Sm289 2.681 1_565 S
O316 C306 1.271 1_565 S
O317 Sm289 2.464 . S
O317 C306 1.251 . S
O318 Sm289 2.396 . S
O318 C307 1.252 1_655 S
O319 Sm288 2.408 1_545 S
O319 C307 1.272 . S
H320 C292 0.930 1_655 S
H321 C293 0.896 1_655 S
H322 C295 0.930 . S
H323 C296 0.929 . S
H324 C301 0.930 1_455 S
H325 C302 0.929 1_455 S
H326 C304 0.930 . S
H327 C305 0.929 . S
Sm328 C330 2.846 . S
Sm328 O348 2.543 . S
Sm328 O349 2.450 . S
Sm328 O350 2.681 . S
Sm328 O351 2.464 . S
Sm328 O352 2.396 . S
Sm328 O356 2.386 1_545 S
Sm328 O359 2.408 . S
Sm329 C339 2.846 . S
Sm329 O350 2.386 1_565 S
Sm329 O353 2.408 . S
Sm329 O354 2.543 . S
Sm329 O355 2.450 . S
Sm329 O356 2.681 . S
Sm329 O357 2.464 . S
Sm329 O358 2.396 . S
C330 Sm328 2.846 . S
C330 C331 1.506 . S
C330 O348 1.261 . S
C330 O349 1.242 . S
C331 C330 1.506 . S
C331 C332 1.358 . S
C331 C336 1.382 . S
C332 C331 1.358 . S
C332 C333 1.385 . S
C332 H360 0.930 1_545 S
C333 C332 1.385 . S
C333 C334 1.395 . S
C333 H361 0.929 1_545 S
C334 C333 1.395 . S
C334 C335 1.335 . S
C335 C334 1.335 . S
C335 C336 1.398 . S
C335 H362 0.930 . S
C336 C331 1.382 . S
C336 C335 1.398 . S
C336 H363 0.929 . S
C337 O350 1.271 . S
C337 O351 1.251 . S
C338 O352 1.252 1_565 S
C338 O353 1.272 . S
C339 Sm329 2.846 . S
C339 C340 1.506 . S
C339 O354 1.261 . S
C339 O355 1.242 . S
C340 C339 1.506 . S
C340 C341 1.358 . S
C340 C345 1.382 . S
C341 C340 1.358 . S
C341 C342 1.385 . S
C341 H364 0.930 1_565 S
C342 C341 1.385 . S
C342 C343 1.395 . S
C342 H365 0.929 1_565 S
C343 C342 1.395 . S
C343 C344 1.335 . S
C344 C343 1.335 . S
C344 C345 1.398 . S
C344 H366 0.930 . S
C345 C340 1.382 . S
C345 C344 1.398 . S
C345 H367 0.929 . S
C346 O356 1.271 . S
C346 O357 1.251 . S
C347 O358 1.252 1_545 S
C347 O359 1.272 . S
O348 Sm328 2.543 . S
O348 C330 1.261 . S
O349 Sm328 2.450 . S
O349 C330 1.242 . S
O350 Sm328 2.681 . S
O350 Sm329 2.386 1_545 S
O350 C337 1.271 . S
O351 Sm328 2.464 . S
O351 C337 1.251 . S
O352 Sm328 2.396 . S
O352 C338 1.252 1_545 S
O353 Sm329 2.408 . S
O353 C338 1.272 . S
O354 Sm329 2.543 . S
O354 C339 1.261 . S
O355 Sm329 2.450 . S
O355 C339 1.242 . S
O356 Sm328 2.386 1_565 S
O356 Sm329 2.681 . S
O356 C346 1.271 . S
O357 Sm329 2.464 . S
O357 C346 1.251 . S
O358 Sm329 2.396 . S
O358 C347 1.252 1_565 S
O359 Sm328 2.408 . S
O359 C347 1.272 . S
H360 C332 0.930 1_565 S
H361 C333 0.929 1_565 S
H362 C335 0.930 . S
H363 C336 0.929 . S
H364 C341 0.930 1_545 S
H365 C342 0.929 1_545 S
H366 C344 0.930 . S
H367 C345 0.929 . S
Sm368 C370 2.846 . S
Sm368 O388 2.543 . S
Sm368 O389 2.450 . S
Sm368 O390 2.681 . S
Sm368 O391 2.464 . S
Sm368 O392 2.396 . S
Sm368 O396 2.386 . S
Sm368 O399 2.408 . S
Sm369 C379 2.846 . S
Sm369 O390 2.386 . S
Sm369 O393 2.408 . S
Sm369 O394 2.543 . S
Sm369 O395 2.450 . S
Sm369 O396 2.681 . S
Sm369 O397 2.464 . S
Sm369 O398 2.396 . S
C370 Sm368 2.846 . S
C370 C371 1.506 . S
C370 O388 1.261 . S
C370 O389 1.242 . S
C371 C370 1.506 . S
C371 C372 1.358 . S
C371 C376 1.382 . S
C372 C371 1.358 . S
C372 C373 1.385 . S
C372 H400 0.930 . S
C373 C372 1.385 . S
C373 C374 1.395 . S
C373 H401 0.929 . S
C374 C373 1.395 . S
C374 C375 1.335 . S
C375 C374 1.335 . S
C375 C376 1.398 . S
C375 H402 0.930 . S
C376 C371 1.382 . S
C376 C375 1.398 . S
C376 H403 0.929 . S
C377 O390 1.271 . S
C377 O391 1.251 . S
C378 O392 1.252 . S
C378 O393 1.272 . S
C379 Sm369 2.846 . S
C379 C380 1.506 . S
C379 O394 1.261 . S
C379 O395 1.242 . S
C380 C379 1.506 . S
C380 C381 1.358 . S
C380 C385 1.382 . S
C381 C380 1.358 . S
C381 C382 1.385 . S
C381 H404 0.930 . S
C382 C381 1.385 . S
C382 C383 1.395 . S
C382 H405 0.929 . S
C383 C382 1.395 . S
C383 C384 1.335 . S
C384 C383 1.335 . S
C384 C385 1.398 . S
C384 H406 0.930 . S
C385 C380 1.382 . S
C385 C384 1.398 . S
C385 H407 0.929 . S
C386 O396 1.271 . S
C386 O397 1.251 . S
C387 O398 1.252 . S
C387 O399 1.272 . S
O388 Sm368 2.543 . S
O388 C370 1.261 . S
O389 Sm368 2.450 . S
O389 C370 1.242 . S
O390 Sm368 2.681 . S
O390 Sm369 2.386 . S
O390 C377 1.271 . S
O391 Sm368 2.464 . S
O391 C377 1.251 . S
O392 Sm368 2.396 . S
O392 C378 1.252 . S
O393 Sm369 2.408 . S
O393 C378 1.272 . S
O394 Sm369 2.543 . S
O394 C379 1.261 . S
O395 Sm369 2.450 . S
O395 C379 1.242 . S
O396 Sm368 2.386 . S
O396 Sm369 2.681 . S
O396 C386 1.271 . S
O397 Sm369 2.464 . S
O397 C386 1.251 . S
O398 Sm369 2.396 . S
O398 C387 1.252 . S
O399 Sm368 2.408 . S
O399 C387 1.272 . S
H400 C372 0.930 . S
H401 C373 0.929 . S
H402 C375 0.930 . S
H403 C376 0.929 . S
H404 C381 0.930 . S
H405 C382 0.929 . S
H406 C384 0.930 . S
H407 C385 0.929 . S
Sm408 C410 2.846 . S
Sm408 O428 2.543 . S
Sm408 O429 2.450 . S
Sm408 O430 2.681 1_655 S
Sm408 O431 2.464 . S
Sm408 O432 2.396 . S
Sm408 O436 2.386 . S
Sm408 O439 2.408 1_655 S
Sm409 C419 2.846 . S
Sm409 O430 2.386 . S
Sm409 O433 2.408 1_455 S
Sm409 O434 2.543 . S
Sm409 O435 2.450 . S
Sm409 O436 2.681 1_455 S
Sm409 O437 2.464 . S
Sm409 O438 2.396 . S
C410 Sm408 2.846 . S
C410 C411 1.506 . S
C410 O428 1.261 . S
C410 O429 1.242 . S
C411 C410 1.506 . S
C411 C412 1.358 . S
C411 C416 1.382 . S
C412 C411 1.358 . S
C412 C413 1.385 . S
C412 H440 0.930 . S
C413 C412 1.385 . S
C413 C414 1.395 . S
C413 H441 0.929 . S
C414 C413 1.395 . S
C414 C415 1.335 . S
C415 C414 1.335 . S
C415 C416 1.398 . S
C415 H442 0.930 . S
C416 C411 1.382 . S
C416 C415 1.398 . S
C416 H443 0.929 . S
C417 O430 1.261 1_655 S
C417 O431 1.269 . S
C418 O432 1.252 . S
C418 O433 1.272 . S
C419 Sm409 2.846 . S
C419 C420 1.506 . S
C419 O434 1.261 . S
C419 O435 1.242 . S
C420 C419 1.506 . S
C420 C421 1.358 . S
C420 C425 1.382 . S
C421 C420 1.358 . S
C421 C422 1.385 . S
C421 H444 0.930 . S
C422 C421 1.385 . S
C422 C423 1.395 . S
C422 H445 0.929 . S
C423 C422 1.395 . S
C423 C424 1.335 . S
C424 C423 1.335 . S
C424 C425 1.398 . S
C424 H446 0.930 . S
C425 C420 1.382 . S
C425 C424 1.398 . S
C425 H447 0.929 . S
C426 O436 1.258 1_455 S
C426 O437 1.275 . S
C427 O438 1.252 . S
C427 O439 1.272 . S
O428 Sm408 2.543 . S
O428 C410 1.261 . S
O429 Sm408 2.450 . S
O429 C410 1.242 . S
O430 Sm408 2.681 1_455 S
O430 Sm409 2.386 . S
O430 C417 1.261 1_455 S
O431 Sm408 2.464 . S
O431 C417 1.269 . S
O432 Sm408 2.396 . S
O432 C418 1.252 . S
O433 Sm409 2.408 1_655 S
O433 C418 1.272 . S
O434 Sm409 2.543 . S
O434 C419 1.261 . S
O435 Sm409 2.450 . S
O435 C419 1.242 . S
O436 Sm408 2.386 . S
O436 Sm409 2.681 1_655 S
O436 C426 1.258 1_655 S
O437 Sm409 2.464 . S
O437 C426 1.275 . S
O438 Sm409 2.396 . S
O438 C427 1.252 . S
O439 Sm408 2.408 1_455 S
O439 C427 1.272 . S
H440 C412 0.930 . S
H441 C413 0.929 . S
H442 C415 0.930 . S
H443 C416 0.929 . S
H444 C421 0.930 . S
H445 C422 0.929 . S
H446 C424 0.930 . S
H447 C425 0.929 . S
H448 C460 0.930 . S
H449 C462 0.930 . S
H450 C463 0.930 . S
H451 C467 0.959 . S
H452 C467 0.959 . S
H453 C467 0.961 . S
H454 C468 0.960 . S
H455 C468 0.961 . S
H456 C468 0.959 . S
H457 C471 0.929 . S
H458 C472 0.931 . S
H459 C474 0.930 . S
C460 H448 0.930 . S
C460 C461 1.399 1_565 S
C460 C465 1.399 . S
C461 C460 1.399 1_545 S
C461 C462 1.376 . S
C462 H449 0.930 . S
C462 C461 1.376 . S
C462 C463 1.388 . S
C463 H450 0.930 . S
C463 C462 1.388 . S
C463 C464 1.390 . S
C464 C463 1.390 . S
C464 C465 1.394 1_545 S
C464 C470 1.465 . S
C465 C460 1.399 . S
C465 C464 1.394 1_565 S
C465 C466 1.516 . S
C466 C465 1.516 . S
C466 C467 1.502 . S
C466 C468 1.561 . S
C466 C469 1.526 . S
C467 H451 0.959 . S
C467 H452 0.959 . S
C467 H453 0.961 . S
C467 C466 1.502 . S
C468 H454 0.960 . S
C468 H455 0.961 . S
C468 H456 0.959 . S
C468 C466 1.561 . S
C469 C466 1.526 . S
C469 C470 1.396 1_565 S
C469 C474 1.390 . S
C470 C464 1.465 . S
C470 C469 1.396 1_545 S
C470 C471 1.399 . S
C471 H457 0.929 . S
C471 C470 1.399 . S
C471 C472 1.385 . S
C472 H458 0.931 . S
C472 C471 1.385 . S
C472 C473 1.389 . S
C473 C472 1.389 . S
C473 C474 1.387 1_545 S
C474 H459 0.930 . S
C474 C469 1.390 . S
C474 C473 1.387 1_565 S
H475 C487 0.930 . S
H476 C489 0.930 . S
H477 C490 0.930 . S
H478 C494 0.959 . S
H479 C494 0.959 . S
H480 C494 0.961 . S
H481 C495 0.960 . S
H482 C495 0.961 . S
H483 C495 0.959 . S
H484 C498 0.929 . S
H485 C499 0.931 . S
H486 C501 0.930 . S
C487 H475 0.930 . S
C487 C488 1.399 . S
C487 C492 1.399 . S
C488 C487 1.399 . S
C488 C489 1.376 . S
C489 H476 0.930 . S
C489 C488 1.376 . S
C489 C490 1.388 . S
C490 H477 0.930 . S
C490 C489 1.388 . S
C490 C491 1.390 . S
C491 C490 1.390 . S
C491 C492 1.394 . S
C491 C497 1.465 . S
C492 C487 1.399 . S
C492 C491 1.394 . S
C492 C493 1.516 . S
C493 C492 1.516 . S
C493 C494 1.502 . S
C493 C495 1.561 . S
C493 C496 1.526 . S
C494 H478 0.959 . S
C494 H479 0.959 . S
C494 H480 0.961 . S
C494 C493 1.502 . S
C495 H481 0.960 . S
C495 H482 0.961 . S
C495 H483 0.959 . S
C495 C493 1.561 . S
C496 C493 1.526 . S
C496 C497 1.396 . S
C496 C501 1.390 . S
C497 C491 1.465 . S
C497 C496 1.396 . S
C497 C498 1.399 . S
C498 H484 0.929 . S
C498 C497 1.399 . S
C498 C499 1.385 . S
C499 H485 0.931 . S
C499 C498 1.385 . S
C499 C500 1.389 . S
C500 C499 1.389 . S
C500 C501 1.387 . S
C501 H486 0.930 . S
C501 C496 1.390 . S
C501 C500 1.387 . S
H502 C514 0.930 . S
H503 C516 0.930 . S
H504 C517 0.930 . S
H505 C521 0.959 . S
H506 C521 0.959 . S
H507 C521 0.961 . S
H508 C522 0.960 . S
H509 C522 0.961 . S
H510 C522 0.959 . S
H511 C525 0.929 . S
H512 C526 0.931 . S
H513 C528 0.930 . S
C514 H502 0.930 . S
C514 C515 1.399 . S
C514 C519 1.399 . S
C515 C514 1.399 . S
C515 C516 1.376 . S
C516 H503 0.930 . S
C516 C515 1.376 . S
C516 C517 1.388 . S
C517 H504 0.930 . S
C517 C516 1.388 . S
C517 C518 1.390 . S
C518 C517 1.390 . S
C518 C519 1.394 . S
C518 C524 1.465 . S
C519 C514 1.399 . S
C519 C518 1.394 . S
C519 C520 1.516 . S
C520 C519 1.516 . S
C520 C521 1.502 . S
C520 C522 1.561 . S
C520 C523 1.526 . S
C521 H505 0.959 . S
C521 H506 0.959 . S
C521 H507 0.961 . S
C521 C520 1.502 . S
C522 H508 0.960 . S
C522 H509 0.961 . S
C522 H510 0.959 . S
C522 C520 1.561 . S
C523 C520 1.526 . S
C523 C524 1.396 . S
C523 C528 1.390 . S
C524 C518 1.465 . S
C524 C523 1.396 . S
C524 C525 1.399 . S
C525 H511 0.929 . S
C525 C524 1.399 . S
C525 C526 1.385 . S
C526 H512 0.931 . S
C526 C525 1.385 . S
C526 C527 1.389 . S
C527 C526 1.389 . S
C527 C528 1.387 . S
C528 H513 0.930 . S
C528 C523 1.390 . S
C528 C527 1.387 . S
H529 C541 0.930 . S
H530 C543 0.930 . S
H531 C544 0.930 . S
H532 C548 0.959 . S
H533 C548 0.959 . S
H534 C548 0.961 . S
H535 C549 0.960 . S
H536 C549 0.961 . S
H537 C549 0.959 1_655 S
H538 C552 0.929 . S
H539 C553 0.931 . S
H540 C555 0.930 . S
C541 H529 0.930 . S
C541 C542 1.399 1_455 S
C541 C546 1.399 . S
C542 C541 1.399 1_655 S
C542 C543 1.376 . S
C543 H530 0.930 . S
C543 C542 1.376 . S
C543 C544 1.388 . S
C544 H531 0.930 . S
C544 C543 1.388 . S
C544 C545 1.390 . S
C545 C544 1.390 . S
C545 C546 1.394 1_655 S
C545 C551 1.465 . S
C546 C541 1.399 . S
C546 C545 1.394 1_455 S
C546 C547 1.516 . S
C547 C546 1.516 . S
C547 C548 1.502 . S
C547 C549 1.561 . S
C547 C550 1.526 . S
C548 H532 0.959 . S
C548 H533 0.959 . S
C548 H534 0.961 . S
C548 C547 1.502 . S
C549 H535 0.960 . S
C549 H536 0.961 . S
C549 H537 0.959 1_455 S
C549 C547 1.561 . S
C550 C547 1.526 . S
C550 C551 1.396 1_455 S
C550 C555 1.390 . S
C551 C545 1.465 . S
C551 C550 1.396 1_655 S
C551 C552 1.399 . S
C552 H538 0.929 . S
C552 C551 1.399 . S
C552 C553 1.385 . S
C553 H539 0.931 . S
C553 C552 1.385 . S
C553 C554 1.408 . S
C554 C553 1.408 . S
C554 C555 1.373 1_655 S
C555 H540 0.930 . S
C555 C550 1.390 . S
C555 C554 1.373 1_455 S
H556 C568 0.930 . S
H557 C570 0.930 . S
H558 C571 0.930 . S
H559 C575 0.943 1_565 S
H560 C575 0.959 . S
H561 C575 0.961 1_554 S
H562 C576 0.960 . S
H563 C576 0.961 1_556 S
H564 C576 0.959 . S
H565 C579 0.929 1_554 S
H566 C580 0.931 . S
H567 C582 0.930 . S
C568 H556 0.930 . S
C568 C569 1.384 1_545 S
C568 C573 1.399 . S
C569 C568 1.384 1_565 S
C569 C570 1.396 . S
C570 H557 0.930 . S
C570 C569 1.396 . S
C570 C571 1.388 . S
C571 H558 0.930 . S
C571 C570 1.388 . S
C571 C572 1.390 . S
C572 C571 1.390 . S
C572 C573 1.394 1_565 S
C572 C578 1.465 . S
C573 C568 1.399 . S
C573 C572 1.394 1_545 S
C573 C574 1.516 . S
C574 C573 1.516 . S
C574 C575 1.502 1_554 S
C574 C576 1.561 . S
C574 C577 1.526 1_554 S
C575 H559 0.943 1_545 S
C575 H560 0.959 . S
C575 H561 0.961 1_556 S
C575 C574 1.502 1_556 S
C576 H562 0.960 . S
C576 H563 0.961 1_554 S
C576 H564 0.959 . S
C576 C574 1.561 . S
C577 C574 1.526 1_556 S
C577 C578 1.396 1_546 S
C577 C582 1.390 . S
C578 C572 1.465 . S
C578 C577 1.396 1_564 S
C578 C579 1.399 1_554 S
C579 H565 0.929 1_556 S
C579 C578 1.399 1_556 S
C579 C580 1.385 . S
C580 H566 0.931 . S
C580 C579 1.385 . S
C580 C581 1.389 . S
C581 C580 1.389 . S
C581 C582 1.387 1_565 S
C582 H567 0.930 . S
C582 C577 1.390 . S
C582 C581 1.387 1_545 S
H583 C595 0.930 . S
H584 C597 0.930 . S
H585 C598 0.930 . S
H586 C602 0.959 . S
H587 C602 0.959 . S
H588 C602 0.961 1_554 S
H589 C603 0.960 1_554 S
H590 C603 0.961 . S
H591 C603 0.959 1_554 S
H592 C606 0.929 . S
H593 C607 0.931 . S
H594 C609 0.930 . S
C595 H583 0.930 . S
C595 C596 1.399 . S
C595 C600 1.399 . S
C596 C595 1.399 . S
C596 C597 1.376 . S
C597 H584 0.930 . S
C597 C596 1.376 . S
C597 C598 1.388 . S
C598 H585 0.930 . S
C598 C597 1.388 . S
C598 C599 1.390 . S
C599 C598 1.390 . S
C599 C600 1.394 . S
C599 C605 1.465 . S
C600 C595 1.399 . S
C600 C599 1.394 . S
C600 C601 1.516 . S
C601 C600 1.516 . S
C601 C602 1.502 1_554 S
C601 C603 1.561 1_554 S
C601 C604 1.526 1_554 S
C602 H586 0.959 . S
C602 H587 0.959 . S
C602 H588 0.961 1_556 S
C602 C601 1.502 1_556 S
C603 H589 0.960 1_556 S
C603 H590 0.961 . S
C603 H591 0.959 1_556 S
C603 C601 1.561 1_556 S
C604 C601 1.526 1_556 S
C604 C605 1.396 1_556 S
C604 C609 1.390 . S
C605 C599 1.465 . S
C605 C604 1.396 1_554 S
C605 C606 1.399 . S
C606 H592 0.929 . S
C606 C605 1.399 . S
C606 C607 1.386 1_554 S
C607 H593 0.931 . S
C607 C606 1.386 1_556 S
C607 C608 1.389 . S
C608 C607 1.389 . S
C608 C609 1.387 . S
C609 H594 0.930 . S
C609 C604 1.390 . S
C609 C608 1.387 . S
H610 C622 0.930 . S
H611 C624 0.930 . S
H612 C625 0.930 . S
H613 C629 0.959 . S
H614 C629 0.959 . S
H615 C629 0.961 1_554 S
H616 C630 0.960 . S
H617 C630 0.961 . S
H618 C630 0.959 . S
H619 C633 0.930 . S
H620 C634 0.931 . S
H621 C636 0.930 . S
C622 H610 0.930 . S
C622 C623 1.399 . S
C622 C627 1.399 . S
C623 C622 1.399 . S
C623 C624 1.376 . S
C624 H611 0.930 . S
C624 C623 1.376 . S
C624 C625 1.388 . S
C625 H612 0.930 . S
C625 C624 1.388 . S
C625 C626 1.390 . S
C626 C625 1.390 . S
C626 C627 1.394 . S
C626 C632 1.465 . S
C627 C622 1.399 . S
C627 C626 1.394 . S
C627 C628 1.516 . S
C628 C627 1.516 . S
C628 C629 1.502 1_554 S
C628 C630 1.561 . S
C628 C631 1.526 1_554 S
C629 H613 0.959 . S
C629 H614 0.959 . S
C629 H615 0.961 1_556 S
C629 C628 1.502 1_556 S
C630 H616 0.960 . S
C630 H617 0.961 . S
C630 H618 0.959 . S
C630 C628 1.561 . S
C631 C628 1.526 1_556 S
C631 C632 1.396 1_556 S
C631 C636 1.390 . S
C632 C626 1.465 . S
C632 C631 1.396 1_554 S
C632 C633 1.399 1_554 S
C633 H619 0.930 . S
C633 C632 1.399 1_556 S
C633 C634 1.385 . S
C634 H620 0.931 . S
C634 C633 1.385 . S
C634 C635 1.389 . S
C635 C634 1.389 . S
C635 C636 1.387 . S
C636 H621 0.930 . S
C636 C631 1.390 . S
C636 C635 1.387 . S
H637 C649 0.930 . S
H638 C651 0.930 . S
H639 C652 0.930 . S
H640 C656 0.959 . S
H641 C656 0.959 . S
H642 C656 0.961 . S
H643 C657 0.960 . S
H644 C657 0.961 . S
H645 C657 0.959 . S
H646 C660 0.929 . S
H647 C661 0.931 . S
H648 C663 0.930 . S
C649 H637 0.930 . S
C649 C650 1.399 1_455 S
C649 C654 1.399 . S
C650 C649 1.399 1_655 S
C650 C651 1.376 . S
C651 H638 0.930 . S
C651 C650 1.376 . S
C651 C652 1.388 . S
C652 H639 0.930 . S
C652 C651 1.388 . S
C652 C653 1.390 . S
C653 C652 1.390 . S
C653 C654 1.394 1_655 S
C653 C659 1.465 1_554 S
C654 C649 1.399 . S
C654 C653 1.394 1_455 S
C654 C655 1.516 . S
C655 C654 1.516 . S
C655 C656 1.502 . S
C655 C657 1.561 1_455 S
C655 C658 1.526 1_554 S
C656 H640 0.959 . S
C656 H641 0.959 . S
C656 H642 0.961 . S
C656 C655 1.502 . S
C657 H643 0.960 . S
C657 H644 0.961 . S
C657 H645 0.959 . S
C657 C655 1.561 1_655 S
C658 C655 1.526 1_556 S
C658 C659 1.396 1_455 S
C658 C663 1.390 . S
C659 C653 1.465 1_556 S
C659 C658 1.396 1_655 S
C659 C660 1.399 . S
C660 H646 0.929 . S
C660 C659 1.399 . S
C660 C661 1.385 . S
C661 H647 0.931 . S
C661 C660 1.385 . S
C661 C662 1.389 . S
C662 C661 1.389 . S
C662 C663 1.387 1_655 S
C663 H648 0.930 . S
C663 C658 1.390 . S
C663 C662 1.387 1_455 S
H664 C676 0.930 . S
H665 C678 0.930 . S
H666 C679 0.930 . S
H667 C683 0.959 . S
H668 C683 0.959 . S
H669 C683 0.961 . S
H670 C684 0.960 . S
H671 C684 0.961 . S
H672 C684 0.959 . S
H673 C687 0.929 1_455 S
H674 C688 0.931 . S
H675 C690 0.930 . S
C676 H664 0.930 . S
C676 C677 1.399 1_655 S
C676 C681 1.399 . S
C677 C676 1.399 1_455 S
C677 C678 1.376 . S
C678 H665 0.930 . S
C678 C677 1.376 . S
C678 C679 1.388 . S
C679 H666 0.930 . S
C679 C678 1.388 . S
C679 C680 1.390 1_455 S
C680 C679 1.390 1_655 S
C680 C681 1.394 . S
C680 C686 1.465 . S
C681 C676 1.399 . S
C681 C680 1.394 . S
C681 C682 1.516 . S
C682 C681 1.516 . S
C682 C683 1.502 . S
C682 C684 1.561 . S
C682 C685 1.526 . S
C683 H667 0.959 . S
C683 H668 0.959 . S
C683 H669 0.961 . S
C683 C682 1.502 . S
C684 H670 0.960 . S
C684 H671 0.961 . S
C684 H672 0.959 . S
C684 C682 1.561 . S
C685 C682 1.526 . S
C685 C686 1.396 . S
C685 C690 1.390 . S
C686 C680 1.465 . S
C686 C685 1.396 . S
C686 C687 1.399 . S
C687 H673 0.929 1_655 S
C687 C686 1.399 . S
C687 C688 1.385 . S
C688 H674 0.931 . S
C688 C687 1.385 . S
C688 C689 1.389 . S
C689 C688 1.389 . S
C689 C690 1.387 . S
C690 H675 0.930 . S
C690 C685 1.390 . S
C690 C689 1.387 . S
H691 C703 0.930 . S
H692 C705 0.930 . S
H693 C706 0.931 . S
H694 C710 0.959 . S
H695 C710 0.959 . S
H696 C710 0.961 . S
H697 C711 0.960 . S
H698 C711 0.961 1_565 S
H699 C711 0.959 . S
H700 C714 0.929 . S
H701 C715 0.931 . S
H702 C717 0.930 . S
C703 H691 0.930 . S
C703 C704 1.399 1_565 S
C703 C708 1.399 . S
C704 C703 1.399 1_545 S
C704 C705 1.376 . S
C705 H692 0.930 . S
C705 C704 1.376 . S
C705 C706 1.388 1_545 S
C706 H693 0.931 . S
C706 C705 1.388 1_565 S
C706 C707 1.390 . S
C707 C706 1.390 . S
C707 C708 1.394 . S
C707 C713 1.465 . S
C708 C703 1.399 . S
C708 C707 1.394 . S
C708 C709 1.516 . S
C709 C708 1.516 . S
C709 C710 1.502 . S
C709 C711 1.561 1_565 S
C709 C712 1.526 . S
C710 H694 0.959 . S
C710 H695 0.959 . S
C710 H696 0.961 . S
C710 C709 1.502 . S
C711 H697 0.960 . S
C711 H698 0.961 1_545 S
C711 H699 0.959 . S
C711 C709 1.561 1_545 S
C712 C709 1.526 . S
C712 C713 1.396 . S
C712 C717 1.390 . S
C713 C707 1.465 . S
C713 C712 1.396 . S
C713 C714 1.399 . S
C714 H700 0.929 . S
C714 C713 1.399 . S
C714 C715 1.385 . S
C715 H701 0.931 . S
C715 C714 1.385 . S
C715 C716 1.389 . S
C716 C715 1.389 . S
C716 C717 1.387 . S
C717 H702 0.930 . S
C717 C712 1.390 . S
C717 C716 1.387 . S
H718 C730 0.930 . S
H719 C732 0.930 . S
H720 C733 0.930 . S
H721 C737 0.959 . S
H722 C737 0.959 . S
H723 C737 0.961 . S
H724 C738 0.960 . S
H725 C738 0.961 . S
H726 C738 0.959 . S
H727 C741 0.929 . S
H728 C742 0.931 . S
H729 C744 0.930 . S
C730 H718 0.930 . S
C730 C731 1.399 . S
C730 C735 1.399 . S
C731 C730 1.399 . S
C731 C732 1.376 . S
C732 H719 0.930 . S
C732 C731 1.376 . S
C732 C733 1.388 . S
C733 H720 0.930 . S
C733 C732 1.388 . S
C733 C734 1.390 . S
C734 C733 1.390 . S
C734 C735 1.394 . S
C734 C740 1.465 . S
C735 C730 1.399 . S
C735 C734 1.394 . S
C735 C736 1.516 . S
C736 C735 1.516 . S
C736 C737 1.502 . S
C736 C738 1.561 . S
C736 C739 1.526 . S
C737 H721 0.959 . S
C737 H722 0.959 . S
C737 H723 0.961 . S
C737 C736 1.502 . S
C738 H724 0.960 . S
C738 H725 0.961 . S
C738 H726 0.959 . S
C738 C736 1.561 . S
C739 C736 1.526 . S
C739 C740 1.396 . S
C739 C744 1.390 . S
C740 C734 1.465 . S
C740 C739 1.396 . S
C740 C741 1.399 . S
C741 H727 0.929 . S
C741 C740 1.399 . S
C741 C742 1.385 . S
C742 H728 0.931 . S
C742 C741 1.385 . S
C742 C743 1.389 . S
C743 C742 1.389 . S
C743 C744 1.387 . S
C744 H729 0.930 . S
C744 C739 1.390 . S
C744 C743 1.387 . S
H745 C757 0.930 . S
H746 C759 0.930 . S
H747 C760 0.930 . S
H748 C764 0.959 . S
H749 C764 0.959 . S
H750 C764 0.961 . S
H751 C765 0.960 . S
H752 C765 0.961 . S
H753 C765 0.959 . S
H754 C768 0.929 . S
H755 C769 0.931 . S
H756 C771 0.930 . S
C757 H745 0.930 . S
C757 C758 1.399 . S
C757 C762 1.399 . S
C758 C757 1.399 . S
C758 C759 1.376 . S
C759 H746 0.930 . S
C759 C758 1.376 . S
C759 C760 1.388 . S
C760 H747 0.930 . S
C760 C759 1.388 . S
C760 C761 1.390 . S
C761 C760 1.390 . S
C761 C762 1.394 . S
C761 C767 1.465 . S
C762 C757 1.399 . S
C762 C761 1.394 . S
C762 C763 1.516 . S
C763 C762 1.516 . S
C763 C764 1.502 . S
C763 C765 1.561 . S
C763 C766 1.526 . S
C764 H748 0.959 . S
C764 H749 0.959 . S
C764 H750 0.961 . S
C764 C763 1.502 . S
C765 H751 0.960 . S
C765 H752 0.961 . S
C765 H753 0.959 . S
C765 C763 1.561 . S
C766 C763 1.526 . S
C766 C767 1.396 . S
C766 C771 1.390 . S
C767 C761 1.465 . S
C767 C766 1.396 . S
C767 C768 1.399 . S
C768 H754 0.929 . S
C768 C767 1.399 . S
C768 C769 1.385 . S
C769 H755 0.931 . S
C769 C768 1.385 . S
C769 C770 1.389 . S
C770 C769 1.389 . S
C770 C771 1.387 . S
C771 H756 0.930 . S
C771 C766 1.390 . S
C771 C770 1.387 . S
H772 C784 0.928 . S
H773 C786 0.930 . S
H774 C787 0.930 1_556 S
H775 C791 0.959 . S
H776 C791 0.959 . S
H777 C791 0.961 . S
H778 C792 0.960 . S
H779 C792 0.961 . S
H780 C792 0.959 . S
H781 C795 0.929 . S
H782 C796 0.931 . S
H783 C798 0.930 . S
C784 H772 0.928 . S
C784 C785 1.399 . S
C784 C789 1.400 1_655 S
C785 C784 1.399 . S
C785 C786 1.376 1_655 S
C786 H773 0.930 . S
C786 C785 1.376 1_455 S
C786 C787 1.388 . S
C787 H774 0.930 1_554 S
C787 C786 1.388 . S
C787 C788 1.390 . S
C788 C787 1.390 . S
C788 C789 1.394 . S
C788 C794 1.465 1_554 S
C789 C784 1.400 1_455 S
C789 C788 1.394 . S
C789 C790 1.516 . S
C790 C789 1.516 . S
C790 C791 1.502 1_455 S
C790 C792 1.561 . S
C790 C793 1.526 . S
C791 H775 0.959 . S
C791 H776 0.959 . S
C791 H777 0.961 . S
C791 C790 1.502 1_655 S
C792 H778 0.960 . S
C792 H779 0.961 . S
C792 H780 0.959 . S
C792 C790 1.561 . S
C793 C790 1.526 . S
C793 C794 1.396 1_554 S
C793 C798 1.390 . S
C794 C788 1.465 1_556 S
C794 C793 1.396 1_556 S
C794 C795 1.399 . S
C795 H781 0.929 . S
C795 C794 1.399 . S
C795 C796 1.385 . S
C796 H782 0.931 . S
C796 C795 1.385 . S
C796 C797 1.389 . S
C797 C796 1.389 . S
C797 C798 1.387 1_556 S
C798 H783 0.930 . S
C798 C793 1.390 . S
C798 C797 1.387 1_554 S
H799 C811 0.930 . S
H800 C813 0.930 . S
H801 C814 0.930 . S
H802 C818 0.959 1_545 S
H803 C818 0.959 . S
H804 C818 0.961 . S
H805 C819 0.960 . S
H806 C819 0.961 . S
H807 C819 0.959 1_554 S
H808 C822 0.929 . S
H809 C823 0.931 . S
H810 C825 0.930 . S
C811 H799 0.930 . S
C811 C812 1.399 . S
C811 C816 1.399 1_565 S
C812 C811 1.399 . S
C812 C813 1.376 1_565 S
C813 H800 0.930 . S
C813 C812 1.376 1_545 S
C813 C814 1.388 . S
C814 H801 0.930 . S
C814 C813 1.388 . S
C814 C815 1.390 . S
C815 C814 1.390 . S
C815 C816 1.394 . S
C815 C821 1.465 . S
C816 C811 1.399 1_545 S
C816 C815 1.394 . S
C816 C817 1.516 1_544 S
C817 C816 1.516 1_566 S
C817 C818 1.502 . S
C817 C819 1.561 . S
C817 C820 1.526 1_565 S
C818 H802 0.959 1_565 S
C818 H803 0.959 . S
C818 H804 0.961 . S
C818 C817 1.502 . S
C819 H805 0.960 . S
C819 H806 0.961 . S
C819 H807 0.959 1_556 S
C819 C817 1.561 . S
C820 C817 1.526 1_545 S
C820 C821 1.396 1_556 S
C820 C825 1.390 . S
C821 C815 1.465 . S
C821 C820 1.396 1_554 S
C821 C822 1.399 . S
C822 H808 0.929 . S
C822 C821 1.399 . S
C822 C823 1.385 . S
C823 H809 0.931 . S
C823 C822 1.385 . S
C823 C824 1.389 1_554 S
C824 C823 1.389 1_556 S
C824 C825 1.387 . S
C825 H810 0.930 . S
C825 C820 1.390 . S
C825 C824 1.387 . S
H826 C838 0.930 . S
H827 C840 0.930 . S
H828 C841 0.930 1_556 S
H829 C845 0.959 . S
H830 C845 0.959 . S
H831 C845 0.961 . S
H832 C846 0.960 . S
H833 C846 0.961 . S
H834 C846 0.959 . S
H835 C849 0.929 . S
H836 C850 0.931 . S
H837 C852 0.930 . S
C838 H826 0.930 . S
C838 C839 1.399 . S
C838 C843 1.399 . S
C839 C838 1.399 . S
C839 C840 1.376 . S
C840 H827 0.930 . S
C840 C839 1.376 . S
C840 C841 1.388 . S
C841 H828 0.930 1_554 S
C841 C840 1.388 . S
C841 C842 1.390 . S
C842 C841 1.390 . S
C842 C843 1.394 . S
C842 C848 1.465 1_554 S
C843 C838 1.399 . S
C843 C842 1.394 . S
C843 C844 1.516 . S
C844 C843 1.516 . S
C844 C845 1.502 . S
C844 C846 1.561 . S
C844 C847 1.526 . S
C845 H829 0.959 . S
C845 H830 0.959 . S
C845 H831 0.961 . S
C845 C844 1.502 . S
C846 H832 0.960 . S
C846 H833 0.961 . S
C846 H834 0.959 . S
C846 C844 1.561 . S
C847 C844 1.526 . S
C847 C848 1.396 1_554 S
C847 C852 1.390 . S
C848 C842 1.465 1_556 S
C848 C847 1.396 1_556 S
C848 C849 1.399 . S
C849 H835 0.929 . S
C849 C848 1.399 . S
C849 C850 1.385 . S
C850 H836 0.931 . S
C850 C849 1.385 . S
C850 C851 1.389 . S
C851 C850 1.389 . S
C851 C852 1.387 1_556 S
C852 H837 0.930 . S
C852 C847 1.390 . S
C852 C851 1.387 1_554 S
H853 C865 0.930 . S
H854 C867 0.930 . S
H855 C868 0.935 . S
H856 C872 0.959 . S
H857 C872 0.959 . S
H858 C872 0.961 . S
H859 C873 0.960 . S
H860 C873 0.961 . S
H861 C873 0.959 1_556 S
H862 C876 0.929 . S
H863 C877 0.931 . S
H864 C879 0.930 1_554 S
C865 H853 0.930 . S
C865 C866 1.399 . S
C865 C870 1.399 . S
C866 C865 1.399 . S
C866 C867 1.376 . S
C867 H854 0.930 . S
C867 C866 1.376 . S
C867 C868 1.388 . S
C868 H855 0.935 . S
C868 C867 1.388 . S
C868 C869 1.390 . S
C869 C868 1.390 . S
C869 C870 1.394 . S
C869 C875 1.459 1_554 S
C870 C865 1.399 . S
C870 C869 1.394 . S
C870 C871 1.516 . S
C871 C870 1.516 . S
C871 C872 1.502 . S
C871 C873 1.561 . S
C871 C874 1.526 . S
C872 H856 0.959 . S
C872 H857 0.959 . S
C872 H858 0.961 . S
C872 C871 1.502 . S
C873 H859 0.960 . S
C873 H860 0.961 . S
C873 H861 0.959 1_554 S
C873 C871 1.561 . S
C874 C871 1.526 . S
C874 C875 1.392 1_554 S
C874 C879 1.390 1_554 S
C875 C869 1.459 1_556 S
C875 C874 1.392 1_556 S
C875 C876 1.407 . S
C876 H862 0.929 . S
C876 C875 1.407 . S
C876 C877 1.385 . S
C877 H863 0.931 . S
C877 C876 1.385 . S
C877 C878 1.389 . S
C878 C877 1.389 . S
C878 C879 1.387 . S
C879 H864 0.930 1_556 S
C879 C874 1.390 1_556 S
C879 C878 1.387 . S
H880 C892 0.930 . S
H881 C894 0.930 . S
H882 C895 0.930 . S
H883 C899 0.959 . S
H884 C899 0.959 . S
H885 C899 0.961 . S
H886 C900 0.960 . S
H887 C900 0.961 . S
H888 C900 0.959 . S
H889 C903 0.929 . S
H890 C904 0.931 . S
H891 C906 0.930 1_655 S
C892 H880 0.930 . S
C892 C893 1.399 1_655 S
C892 C897 1.399 1_655 S
C893 C892 1.399 1_455 S
C893 C894 1.376 . S
C894 H881 0.930 . S
C894 C893 1.376 . S
C894 C895 1.388 . S
C895 H882 0.930 . S
C895 C894 1.388 . S
C895 C896 1.390 . S
C896 C895 1.390 . S
C896 C897 1.394 . S
C896 C902 1.465 . S
C897 C892 1.399 1_455 S
C897 C896 1.394 . S
C897 C898 1.516 1_455 S
C898 C897 1.516 1_655 S
C898 C899 1.502 . S
C898 C900 1.561 1_655 S
C898 C901 1.526 1_655 S
C899 H883 0.959 . S
C899 H884 0.959 . S
C899 H885 0.961 . S
C899 C898 1.502 . S
C900 H886 0.960 . S
C900 H887 0.961 . S
C900 H888 0.959 . S
C900 C898 1.561 1_455 S
C901 C898 1.526 1_455 S
C901 C902 1.396 . S
C901 C906 1.390 . S
C902 C896 1.465 . S
C902 C901 1.396 . S
C902 C903 1.399 . S
C903 H889 0.929 . S
C903 C902 1.399 . S
C903 C904 1.385 . S
C904 H890 0.931 . S
C904 C903 1.385 . S
C904 C905 1.389 . S
C905 C904 1.389 . S
C905 C906 1.387 . S
C906 H891 0.930 1_455 S
C906 C901 1.390 . S
C906 C905 1.387 . S
H907 C919 0.930 . S
H908 C921 0.930 . S
H909 C922 0.930 . S
H910 C926 0.959 . S
H911 C926 0.959 . S
H912 C926 0.961 . S
H913 C927 0.960 . S
H914 C927 0.961 . S
H915 C927 0.959 . S
H916 C930 0.929 . S
H917 C931 0.931 . S
H918 C933 0.930 . S
C919 H907 0.930 . S
C919 C920 1.399 . S
C919 C924 1.399 . S
C920 C919 1.399 . S
C920 C921 1.376 . S
C921 H908 0.930 . S
C921 C920 1.376 . S
C921 C922 1.388 . S
C922 H909 0.930 . S
C922 C921 1.388 . S
C922 C923 1.390 . S
C923 C922 1.390 . S
C923 C924 1.394 . S
C923 C929 1.465 . S
C924 C919 1.399 . S
C924 C923 1.394 . S
C924 C925 1.516 . S
C925 C924 1.516 . S
C925 C926 1.502 . S
C925 C927 1.561 1_545 S
C925 C928 1.526 . S
C926 H910 0.959 . S
C926 H911 0.959 . S
C926 H912 0.961 . S
C926 C925 1.502 . S
C927 H913 0.960 . S
C927 H914 0.961 . S
C927 H915 0.959 . S
C927 C925 1.561 1_565 S
C928 C925 1.526 . S
C928 C929 1.396 . S
C928 C933 1.390 . S
C929 C923 1.465 . S
C929 C928 1.396 . S
C929 C930 1.399 . S
C930 H916 0.929 . S
C930 C929 1.399 . S
C930 C931 1.385 . S
C931 H917 0.931 . S
C931 C930 1.385 . S
C931 C932 1.389 . S
C932 C931 1.389 . S
C932 C933 1.387 . S
C933 H918 0.930 . S
C933 C928 1.390 . S
C933 C932 1.387 . S
H934 C946 0.930 . S
H935 C948 0.930 . S
H936 C949 0.930 . S
H937 C953 0.959 . S
H938 C953 0.959 . S
H939 C953 0.961 . S
H940 C954 0.960 . S
H941 C954 0.961 . S
H942 C954 0.959 . S
H943 C957 0.929 . S
H944 C958 0.931 . S
H945 C960 0.930 . S
C946 H934 0.930 . S
C946 C947 1.399 . S
C946 C951 1.399 . S
C947 C946 1.399 . S
C947 C948 1.376 . S
C948 H935 0.930 . S
C948 C947 1.376 . S
C948 C949 1.388 . S
C949 H936 0.930 . S
C949 C948 1.388 . S
C949 C950 1.390 . S
C950 C949 1.390 . S
C950 C951 1.394 . S
C950 C956 1.465 . S
C951 C946 1.399 . S
C951 C950 1.394 . S
C951 C952 1.516 . S
C952 C951 1.516 . S
C952 C953 1.502 . S
C952 C954 1.561 . S
C952 C955 1.526 . S
C953 H937 0.959 . S
C953 H938 0.959 . S
C953 H939 0.961 . S
C953 C952 1.502 . S
C954 H940 0.960 . S
C954 H941 0.961 . S
C954 H942 0.959 . S
C954 C952 1.561 . S
C955 C952 1.526 . S
C955 C956 1.396 . S
C955 C960 1.390 . S
C956 C950 1.465 . S
C956 C955 1.396 . S
C956 C957 1.399 . S
C957 H943 0.929 . S
C957 C956 1.399 . S
C957 C958 1.385 . S
C958 H944 0.931 . S
C958 C957 1.385 . S
C958 C959 1.389 . S
C959 C958 1.389 . S
C959 C960 1.387 . S
C960 H945 0.930 . S
C960 C955 1.390 . S
C960 C959 1.387 . S
H961 C973 0.930 . S
H962 C975 0.930 . S
H963 C976 0.930 . S
H964 C980 0.959 . S
H965 C980 0.959 . S
H966 C980 0.961 . S
H967 C981 0.960 . S
H968 C981 0.961 . S
H969 C981 0.959 . S
H970 C984 0.929 . S
H971 C985 0.931 . S
H972 C987 0.930 . S
C973 H961 0.930 . S
C973 C974 1.399 . S
C973 C978 1.399 . S
C974 C973 1.399 . S
C974 C975 1.376 . S
C975 H962 0.930 . S
C975 C974 1.376 . S
C975 C976 1.388 . S
C976 H963 0.930 . S
C976 C975 1.388 . S
C976 C977 1.390 . S
C977 C976 1.390 . S
C977 C978 1.394 . S
C977 C983 1.465 . S
C978 C973 1.399 . S
C978 C977 1.394 . S
C978 C979 1.516 . S
C979 C978 1.516 . S
C979 C980 1.502 . S
C979 C981 1.561 . S
C979 C982 1.526 . S
C980 H964 0.959 . S
C980 H965 0.959 . S
C980 H966 0.961 . S
C980 C979 1.502 . S
C981 H967 0.960 . S
C981 H968 0.961 . S
C981 H969 0.959 . S
C981 C979 1.561 . S
C982 C979 1.526 . S
C982 C983 1.396 . S
C982 C987 1.390 . S
C983 C977 1.465 . S
C983 C982 1.396 . S
C983 C984 1.399 . S
C984 H970 0.929 . S
C984 C983 1.399 . S
C984 C985 1.385 . S
C985 H971 0.931 . S
C985 C984 1.385 . S
C985 C986 1.389 . S
C986 C985 1.389 . S
C986 C987 1.387 . S
C987 H972 0.930 . S
C987 C982 1.390 . S
C987 C986 1.387 . S
H988 C1000 0.930 . S
H989 C1002 0.930 . S
H990 C1003 0.930 . S
H991 C1007 0.959 . S
H992 C1007 0.959 . S
H993 C1007 0.961 . S
H994 C1008 0.960 . S
H995 C1008 0.961 . S
H996 C1008 0.959 . S
H997 C1011 0.929 . S
H998 C1012 0.931 . S
H999 C1014 0.930 . S
C1000 H988 0.930 . S
C1000 C1001 1.408 . S
C1000 C1005 1.399 . S
C1001 C1000 1.408 . S
C1001 C1002 1.366 1_655 S
C1002 H989 0.930 . S
C1002 C1001 1.366 1_455 S
C1002 C1003 1.388 . S
C1003 H990 0.930 . S
C1003 C1002 1.388 . S
C1003 C1004 1.390 . S
C1004 C1003 1.390 . S
C1004 C1005 1.394 1_455 S
C1004 C1010 1.465 . S
C1005 C1000 1.399 . S
C1005 C1004 1.394 1_655 S
C1005 C1006 1.516 . S
C1006 C1005 1.516 . S
C1006 C1007 1.502 . S
C1006 C1008 1.561 . S
C1006 C1009 1.526 . S
C1007 H991 0.959 . S
C1007 H992 0.959 . S
C1007 H993 0.961 . S
C1007 C1006 1.502 . S
C1008 H994 0.960 . S
C1008 H995 0.961 . S
C1008 H996 0.959 . S
C1008 C1006 1.561 . S
C1009 C1006 1.526 . S
C1009 C1010 1.396 1_655 S
C1009 C1014 1.390 . S
C1010 C1004 1.465 . S
C1010 C1009 1.396 1_455 S
C1010 C1011 1.399 . S
C1011 H997 0.929 . S
C1011 C1010 1.399 . S
C1011 C1012 1.385 . S
C1012 H998 0.931 . S
C1012 C1011 1.385 . S
C1012 C1013 1.389 1_455 S
C1013 C1012 1.389 1_655 S
C1013 C1014 1.387 . S
C1014 H999 0.930 . S
C1014 C1009 1.390 . S
C1014 C1013 1.387 . S
H1015 C1027 0.930 . S
H1016 C1029 0.930 . S
H1017 C1030 0.930 . S
H1018 C1034 0.959 . S
H1019 C1034 0.959 . S
H1020 C1034 0.961 . S
H1021 C1035 0.960 . S
H1022 C1035 0.961 . S
H1023 C1035 0.959 . S
H1024 C1038 0.929 . S
H1025 C1039 0.931 . S
H1026 C1041 0.930 . S
C1027 H1015 0.930 . S
C1027 C1028 1.401 . S
C1027 C1032 1.399 . S
C1028 C1027 1.401 . S
C1028 C1029 1.374 1_565 S
C1029 H1016 0.930 . S
C1029 C1028 1.374 1_545 S
C1029 C1030 1.388 . S
C1030 H1017 0.930 . S
C1030 C1029 1.388 . S
C1030 C1031 1.390 . S
C1031 C1030 1.390 . S
C1031 C1032 1.394 1_545 S
C1031 C1037 1.465 . S
C1032 C1027 1.399 . S
C1032 C1031 1.394 1_565 S
C1032 C1033 1.516 . S
C1033 C1032 1.516 . S
C1033 C1034 1.502 . S
C1033 C1035 1.561 . S
C1033 C1036 1.526 . S
C1034 H1018 0.959 . S
C1034 H1019 0.959 . S
C1034 H1020 0.961 . S
C1034 C1033 1.502 . S
C1035 H1021 0.960 . S
C1035 H1022 0.961 . S
C1035 H1023 0.959 . S
C1035 C1033 1.561 . S
C1036 C1033 1.526 . S
C1036 C1037 1.396 1_565 S
C1036 C1041 1.390 . S
C1037 C1031 1.465 . S
C1037 C1036 1.396 1_545 S
C1037 C1038 1.399 . S
C1038 H1024 0.929 . S
C1038 C1037 1.399 . S
C1038 C1039 1.385 . S
C1039 H1025 0.931 . S
C1039 C1038 1.385 . S
C1039 C1040 1.389 1_545 S
C1040 C1039 1.389 1_565 S
C1040 C1041 1.387 . S
C1041 H1026 0.930 . S
C1041 C1036 1.390 . S
C1041 C1040 1.387 . S
H1042 C1054 0.930 . S
H1043 C1056 0.930 . S
H1044 C1057 0.930 . S
H1045 C1061 0.959 . S
H1046 C1061 0.959 . S
H1047 C1061 0.961 . S
H1048 C1062 0.960 . S
H1049 C1062 0.961 . S
H1050 C1062 0.959 . S
H1051 C1065 0.929 . S
H1052 C1066 0.931 . S
H1053 C1068 0.930 . S
C1054 H1042 0.930 . S
C1054 C1055 1.399 . S
C1054 C1059 1.399 . S
C1055 C1054 1.399 . S
C1055 C1056 1.376 . S
C1056 H1043 0.930 . S
C1056 C1055 1.376 . S
C1056 C1057 1.388 . S
C1057 H1044 0.930 . S
C1057 C1056 1.388 . S
C1057 C1058 1.390 . S
C1058 C1057 1.390 . S
C1058 C1059 1.394 . S
C1058 C1064 1.465 . S
C1059 C1054 1.399 . S
C1059 C1058 1.394 . S
C1059 C1060 1.516 . S
C1060 C1059 1.516 . S
C1060 C1061 1.502 . S
C1060 C1062 1.561 . S
C1060 C1063 1.526 . S
C1061 H1045 0.959 . S
C1061 H1046 0.959 . S
C1061 H1047 0.961 . S
C1061 C1060 1.502 . S
C1062 H1048 0.960 . S
C1062 H1049 0.961 . S
C1062 H1050 0.959 . S
C1062 C1060 1.561 . S
C1063 C1060 1.526 . S
C1063 C1064 1.396 . S
C1063 C1068 1.390 . S
C1064 C1058 1.465 . S
C1064 C1063 1.396 . S
C1064 C1065 1.399 . S
C1065 H1051 0.929 . S
C1065 C1064 1.399 . S
C1065 C1066 1.385 . S
C1066 H1052 0.931 . S
C1066 C1065 1.385 . S
C1066 C1067 1.389 . S
C1067 C1066 1.389 . S
C1067 C1068 1.387 . S
C1068 H1053 0.930 . S
C1068 C1063 1.390 . S
C1068 C1067 1.387 . S
H1069 C1081 0.930 . S
H1070 C1083 0.930 . S
H1071 C1084 0.930 . S
H1072 C1088 0.959 . S
H1073 C1088 0.959 . S
H1074 C1088 0.961 . S
H1075 C1089 0.960 . S
H1076 C1089 0.961 . S
H1077 C1089 0.959 . S
H1078 C1092 0.929 . S
H1079 C1093 0.931 . S
H1080 C1095 0.930 . S
C1081 H1069 0.930 . S
C1081 C1082 1.399 . S
C1081 C1086 1.399 . S
C1082 C1081 1.399 . S
C1082 C1083 1.376 . S
C1083 H1070 0.930 . S
C1083 C1082 1.376 . S
C1083 C1084 1.388 . S
C1084 H1071 0.930 . S
C1084 C1083 1.388 . S
C1084 C1085 1.390 . S
C1085 C1084 1.390 . S
C1085 C1086 1.394 . S
C1085 C1091 1.465 . S
C1086 C1081 1.399 . S
C1086 C1085 1.394 . S
C1086 C1087 1.516 . S
C1087 C1086 1.516 . S
C1087 C1088 1.502 . S
C1087 C1089 1.561 . S
C1087 C1090 1.526 . S
C1088 H1072 0.959 . S
C1088 H1073 0.959 . S
C1088 H1074 0.961 . S
C1088 C1087 1.502 . S
C1089 H1075 0.960 . S
C1089 H1076 0.961 . S
C1089 H1077 0.959 . S
C1089 C1087 1.561 . S
C1090 C1087 1.526 . S
C1090 C1091 1.396 . S
C1090 C1095 1.390 . S
C1091 C1085 1.465 . S
C1091 C1090 1.396 . S
C1091 C1092 1.399 . S
C1092 H1078 0.929 . S
C1092 C1091 1.399 . S
C1092 C1093 1.385 . S
C1093 H1079 0.931 . S
C1093 C1092 1.385 . S
C1093 C1094 1.389 . S
C1094 C1093 1.389 . S
C1094 C1095 1.387 . S
C1095 H1080 0.930 . S
C1095 C1090 1.390 . S
C1095 C1094 1.387 . S
C461 C241 2.053 . S
C473 C297 2.333 1_545 S
C500 C337 2.346 . S
C488 C277 2.209 . S
C527 C377 2.340 . S
C515 C169 2.108 . S
C554 C417 2.332 . S
C542 C205 2.101 1_655 S
C581 C306 2.325 1_565 S
C569 C97 2.139 1_565 S
C596 C133 2.213 . S
C608 C346 2.347 . S
C623 C25 2.141 . S
C635 C386 2.341 . S
C650 C61 2.083 1_655 S
C662 C426 2.343 1_655 S
C689 C303 0.364 . S
C677 C211 0.516 . S
C716 C343 0.425 . S
C704 C247 0.540 . S
C743 C383 0.509 . S
C731 C253 0.324 . S
C758 C175 0.395 . S
C770 C423 0.556 . S
C785 C67 0.506 1_655 S
C797 C294 0.494 . S
C824 C334 0.535 . S
C812 C103 0.372 1_565 S
C851 C374 0.356 . S
C839 C109 0.491 . S
C866 C31 0.609 . S
C878 C414 0.344 . S
C893 C181 2.815 . S
C905 C307 3.210 . S
C920 C217 2.852 . S
C932 C347 3.174 . S
C959 C387 3.197 . S
C947 C283 2.750 . S
C986 C427 3.192 . S
C974 C145 2.853 . S
C1001 C37 2.855 1_655 S
C1013 C298 3.198 . S
C1040 C338 3.170 . S
C1028 C73 2.813 1_565 S
C1067 C378 3.179 . S
C1055 C139 2.718 . S
C1082 C1 2.870 . S
C1094 C418 3.183 . S
