# Generated by pormake.
# Topology ptr, (4,4)-cn, num edge types: 1
# Building blocks:
#     Node 0, Type 0, BuildingBlock: CEKHIL_clean_sbu_0, # of connection points: 4
#     Node 1, Type 0, BuildingBlock: CEKHIL_clean_sbu_0, # of connection points: 4
#     Node 2, Type 0, BuildingBlock: CEKHIL_clean_sbu_0, # of connection points: 4
#     Node 3, Type 0, BuildingBlock: CEKHIL_clean_sbu_0, # of connection points: 4
#     Node 4, Type 0, BuildingBlock: CEKHIL_clean_sbu_0, # of connection points: 4
#     Node 5, Type 0, BuildingBlock: CEKHIL_clean_sbu_0, # of connection points: 4
#     Node 6, Type 0, BuildingBlock: CEKHIL_clean_sbu_0, # of connection points: 4
#     Node 7, Type 0, BuildingBlock: CEKHIL_clean_sbu_0, # of connection points: 4
#     Node 8, Type 0, BuildingBlock: CEKHIL_clean_sbu_0, # of connection points: 4
#     Node 9, Type 0, BuildingBlock: CEKHIL_clean_sbu_0, # of connection points: 4
#     Node 10, Type 0, BuildingBlock: CEKHIL_clean_sbu_0, # of connection points: 4
#     Node 11, Type 0, BuildingBlock: CEKHIL_clean_sbu_0, # of connection points: 4
#     Node 12, Type 0, BuildingBlock: CEKHIL_clean_sbu_0, # of connection points: 4
#     Node 13, Type 0, BuildingBlock: CEKHIL_clean_sbu_0, # of connection points: 4
#     Node 14, Type 0, BuildingBlock: CEKHIL_clean_sbu_0, # of connection points: 4
#     Node 15, Type 0, BuildingBlock: CEKHIL_clean_sbu_0, # of connection points: 4
#     Node 16, Type 0, BuildingBlock: CEKHIL_clean_sbu_0, # of connection points: 4
#     Node 17, Type 0, BuildingBlock: CEKHIL_clean_sbu_0, # of connection points: 4
#     Node 18, Type 1, BuildingBlock: GIZVER_clean_linker_0, # of connection points: 4
#     Node 19, Type 1, BuildingBlock: GIZVER_clean_linker_0, # of connection points: 4
#     Node 20, Type 1, BuildingBlock: GIZVER_clean_linker_0, # of connection points: 4
#     Node 21, Type 1, BuildingBlock: GIZVER_clean_linker_0, # of connection points: 4
#     Node 22, Type 1, BuildingBlock: GIZVER_clean_linker_0, # of connection points: 4
#     Node 23, Type 1, BuildingBlock: GIZVER_clean_linker_0, # of connection points: 4
#     Node 24, Type 1, BuildingBlock: GIZVER_clean_linker_0, # of connection points: 4
#     Node 25, Type 1, BuildingBlock: GIZVER_clean_linker_0, # of connection points: 4
#     Node 26, Type 1, BuildingBlock: GIZVER_clean_linker_0, # of connection points: 4
#     Node 27, Type 1, BuildingBlock: GIZVER_clean_linker_0, # of connection points: 4
#     Node 28, Type 1, BuildingBlock: GIZVER_clean_linker_0, # of connection points: 4
#     Node 29, Type 1, BuildingBlock: GIZVER_clean_linker_0, # of connection points: 4
#     Node 30, Type 1, BuildingBlock: GIZVER_clean_linker_0, # of connection points: 4
#     Node 31, Type 1, BuildingBlock: GIZVER_clean_linker_0, # of connection points: 4
#     Node 32, Type 1, BuildingBlock: GIZVER_clean_linker_0, # of connection points: 4
#     Node 33, Type 1, BuildingBlock: GIZVER_clean_linker_0, # of connection points: 4
#     Node 34, Type 1, BuildingBlock: GIZVER_clean_linker_0, # of connection points: 4
#     Node 35, Type 1, BuildingBlock: GIZVER_clean_linker_0, # of connection points: 4
#     Edge 36, Type (0, 1), BuildingBlock: AJUNOK_clean_linker_0, # of connection points: 2
#     Edge 37, Type (0, 1), BuildingBlock: AJUNOK_clean_linker_0, # of connection points: 2
#     Edge 38, Type (0, 1), BuildingBlock: AJUNOK_clean_linker_0, # of connection points: 2
#     Edge 39, Type (0, 1), BuildingBlock: AJUNOK_clean_linker_0, # of connection points: 2
#     Edge 40, Type (0, 1), BuildingBlock: AJUNOK_clean_linker_0, # of connection points: 2
#     Edge 41, Type (0, 1), BuildingBlock: AJUNOK_clean_linker_0, # of connection points: 2
#     Edge 42, Type (0, 1), BuildingBlock: AJUNOK_clean_linker_0, # of connection points: 2
#     Edge 43, Type (0, 1), BuildingBlock: AJUNOK_clean_linker_0, # of connection points: 2
#     Edge 44, Type (0, 1), BuildingBlock: AJUNOK_clean_linker_0, # of connection points: 2
#     Edge 45, Type (0, 1), BuildingBlock: AJUNOK_clean_linker_0, # of connection points: 2
#     Edge 46, Type (0, 1), BuildingBlock: AJUNOK_clean_linker_0, # of connection points: 2
#     Edge 47, Type (0, 1), BuildingBlock: AJUNOK_clean_linker_0, # of connection points: 2
#     Edge 48, Type (0, 1), BuildingBlock: AJUNOK_clean_linker_0, # of connection points: 2
#     Edge 49, Type (0, 1), BuildingBlock: AJUNOK_clean_linker_0, # of connection points: 2
#     Edge 50, Type (0, 1), BuildingBlock: AJUNOK_clean_linker_0, # of connection points: 2
#     Edge 51, Type (0, 1), BuildingBlock: AJUNOK_clean_linker_0, # of connection points: 2
#     Edge 52, Type (0, 1), BuildingBlock: AJUNOK_clean_linker_0, # of connection points: 2
#     Edge 53, Type (0, 1), BuildingBlock: AJUNOK_clean_linker_0, # of connection points: 2
#     Edge 54, Type (0, 1), BuildingBlock: AJUNOK_clean_linker_0, # of connection points: 2
#     Edge 55, Type (0, 1), BuildingBlock: AJUNOK_clean_linker_0, # of connection points: 2
#     Edge 56, Type (0, 1), BuildingBlock: AJUNOK_clean_linker_0, # of connection points: 2
#     Edge 57, Type (0, 1), BuildingBlock: AJUNOK_clean_linker_0, # of connection points: 2
#     Edge 58, Type (0, 1), BuildingBlock: AJUNOK_clean_linker_0, # of connection points: 2
#     Edge 59, Type (0, 1), BuildingBlock: AJUNOK_clean_linker_0, # of connection points: 2
#     Edge 60, Type (0, 1), BuildingBlock: AJUNOK_clean_linker_0, # of connection points: 2
#     Edge 61, Type (0, 1), BuildingBlock: AJUNOK_clean_linker_0, # of connection points: 2
#     Edge 62, Type (0, 1), BuildingBlock: AJUNOK_clean_linker_0, # of connection points: 2
#     Edge 63, Type (0, 1), BuildingBlock: AJUNOK_clean_linker_0, # of connection points: 2
#     Edge 64, Type (0, 1), BuildingBlock: AJUNOK_clean_linker_0, # of connection points: 2
#     Edge 65, Type (0, 1), BuildingBlock: AJUNOK_clean_linker_0, # of connection points: 2
#     Edge 66, Type (0, 1), BuildingBlock: AJUNOK_clean_linker_0, # of connection points: 2
#     Edge 67, Type (0, 1), BuildingBlock: AJUNOK_clean_linker_0, # of connection points: 2
#     Edge 68, Type (0, 1), BuildingBlock: AJUNOK_clean_linker_0, # of connection points: 2
#     Edge 69, Type (0, 1), BuildingBlock: AJUNOK_clean_linker_0, # of connection points: 2
#     Edge 70, Type (0, 1), BuildingBlock: AJUNOK_clean_linker_0, # of connection points: 2
#     Edge 71, Type (0, 1), BuildingBlock: AJUNOK_clean_linker_0, # of connection points: 2
#     Edge 72, Type (0, 1), BuildingBlock: AJUNOK_clean_linker_0, # of connection points: 2
#     Edge 73, Type (0, 1), BuildingBlock: AJUNOK_clean_linker_0, # of connection points: 2
#     Edge 74, Type (0, 1), BuildingBlock: AJUNOK_clean_linker_0, # of connection points: 2
#     Edge 75, Type (0, 1), BuildingBlock: AJUNOK_clean_linker_0, # of connection points: 2
#     Edge 76, Type (0, 1), BuildingBlock: AJUNOK_clean_linker_0, # of connection points: 2
#     Edge 77, Type (0, 1), BuildingBlock: AJUNOK_clean_linker_0, # of connection points: 2
#     Edge 78, Type (0, 1), BuildingBlock: AJUNOK_clean_linker_0, # of connection points: 2
#     Edge 79, Type (0, 1), BuildingBlock: AJUNOK_clean_linker_0, # of connection points: 2
#     Edge 80, Type (0, 1), BuildingBlock: AJUNOK_clean_linker_0, # of connection points: 2
#     Edge 81, Type (0, 1), BuildingBlock: AJUNOK_clean_linker_0, # of connection points: 2
#     Edge 82, Type (0, 1), BuildingBlock: AJUNOK_clean_linker_0, # of connection points: 2
#     Edge 83, Type (0, 1), BuildingBlock: AJUNOK_clean_linker_0, # of connection points: 2
#     Edge 84, Type (0, 1), BuildingBlock: AJUNOK_clean_linker_0, # of connection points: 2
#     Edge 85, Type (0, 1), BuildingBlock: AJUNOK_clean_linker_0, # of connection points: 2
#     Edge 86, Type (0, 1), BuildingBlock: AJUNOK_clean_linker_0, # of connection points: 2
#     Edge 87, Type (0, 1), BuildingBlock: AJUNOK_clean_linker_0, # of connection points: 2
#     Edge 88, Type (0, 1), BuildingBlock: AJUNOK_clean_linker_0, # of connection points: 2
#     Edge 89, Type (0, 1), BuildingBlock: AJUNOK_clean_linker_0, # of connection points: 2
#     Edge 90, Type (0, 1), BuildingBlock: AJUNOK_clean_linker_0, # of connection points: 2
#     Edge 91, Type (0, 1), BuildingBlock: AJUNOK_clean_linker_0, # of connection points: 2
#     Edge 92, Type (0, 1), BuildingBlock: AJUNOK_clean_linker_0, # of connection points: 2
#     Edge 93, Type (0, 1), BuildingBlock: AJUNOK_clean_linker_0, # of connection points: 2
#     Edge 94, Type (0, 1), BuildingBlock: AJUNOK_clean_linker_0, # of connection points: 2
#     Edge 95, Type (0, 1), BuildingBlock: AJUNOK_clean_linker_0, # of connection points: 2
#     Edge 96, Type (0, 1), BuildingBlock: AJUNOK_clean_linker_0, # of connection points: 2
#     Edge 97, Type (0, 1), BuildingBlock: AJUNOK_clean_linker_0, # of connection points: 2
#     Edge 98, Type (0, 1), BuildingBlock: AJUNOK_clean_linker_0, # of connection points: 2
#     Edge 99, Type (0, 1), BuildingBlock: AJUNOK_clean_linker_0, # of connection points: 2
#     Edge 100, Type (0, 1), BuildingBlock: AJUNOK_clean_linker_0, # of connection points: 2
#     Edge 101, Type (0, 1), BuildingBlock: AJUNOK_clean_linker_0, # of connection points: 2
#     Edge 102, Type (0, 1), BuildingBlock: AJUNOK_clean_linker_0, # of connection points: 2
#     Edge 103, Type (0, 1), BuildingBlock: AJUNOK_clean_linker_0, # of connection points: 2
#     Edge 104, Type (0, 1), BuildingBlock: AJUNOK_clean_linker_0, # of connection points: 2
#     Edge 105, Type (0, 1), BuildingBlock: AJUNOK_clean_linker_0, # of connection points: 2
#     Edge 106, Type (0, 1), BuildingBlock: AJUNOK_clean_linker_0, # of connection points: 2
#     Edge 107, Type (0, 1), BuildingBlock: AJUNOK_clean_linker_0, # of connection points: 2
# Relax obj value: 0.048
# Max RMSD: 0.108
# Mean RMSD: 0.077
data_MOF--net-ptr--node1-CEKHIL_clean_sbu_0--node2-GIZVER_clean_linker_0--edge1-AJUNOK_clean_linker_0
_symmetry_space_group_name_H-M    P1
_symmetry_Int_Tables_number       1
_symmetry_cell_setting            triclinic
loop_
_symmetry_equiv_pos_as_xyz
'x, y, z'
_cell_length_a     59.500974
_cell_length_b     58.818999
_cell_length_c     36.950272
_cell_angle_alpha  91.157202
_cell_angle_beta   89.863337
_cell_angle_gamma 121.11781
loop_
_atom_site_label
_atom_site_type_symbol
_atom_site_fract_x
_atom_site_fract_y
_atom_site_fract_z
_atom_type_partial_charge
Co0 Co 0.0224 0.38012 -0.00328 0.0
O1 O 0.03703 0.3651 0.02793 0.0
O2 O 0.06007 0.39757 0.98974 0.0
C3 C 0.9878 0.34054 0.97854 0.0
O4 O 0.01438 0.40003 0.95897 0.0
Co5 Co 0.96711 0.37201 0.00913 0.0
O6 O 0.97273 0.39053 0.96305 0.0
C7 C 0.01187 0.41038 0.05482 0.0
C8 C 0.05961 0.38165 0.01403 0.0
C9 C 0.99506 0.40222 0.94787 0.0
O10 O 0.02786 0.40704 0.03526 0.0
O11 O 0.98694 0.39695 0.05039 0.0
O12 O 0.01055 0.35 0.96318 0.0
O13 O 0.98708 0.35447 0.00541 0.0
Co14 Co 0.64154 0.63786 0.00319 0.0
O15 O 0.6722 0.65376 0.97292 0.0
O16 O 0.66263 0.62195 0.01172 0.0
C17 C 0.64508 0.67655 0.02125 0.0
O18 O 0.61263 0.61717 0.04003 0.0
Co19 Co 0.59328 0.64287 0.98727 0.0
O20 O 0.57964 0.62488 0.03371 0.0
C21 C 0.60103 0.60457 0.9448 0.0
C22 C 0.6786 0.638 0.9876 0.0
C23 C 0.59043 0.61407 0.05 0.0
O24 O 0.62093 0.61006 0.96476 0.0
O25 O 0.58834 0.61663 0.94799 0.0
O26 O 0.65882 0.66802 0.03682 0.0
O27 O 0.63114 0.66263 0.9936 0.0
Co28 Co 0.36949 0.00366 0.00428 0.0
O29 O 0.35488 0.02099 0.97765 0.0
O30 O 0.3882 0.04147 0.01623 0.0
C31 C 0.33093 0.96842 0.0216 0.0
O32 O 0.38912 0.99273 0.03825 0.0
Co33 Co 0.35893 0.94764 0.98226 0.0
O34 O 0.37578 0.94969 0.02937 0.0
C35 C 0.39819 0.99469 0.94242 0.0
C36 C 0.37229 0.043 0.9937 0.0
C37 C 0.38903 0.97159 0.04699 0.0
O38 O 0.39514 0.01016 0.96429 0.0
O39 O 0.38434 0.96932 0.94376 0.0
O40 O 0.34117 0.99099 0.03929 0.0
O41 O 0.34287 0.96848 0.9924 0.0
Co42 Co 1.00032 0.63243 0.00945 0.0
O43 O 0.98376 0.64639 0.98009 0.0
O44 O 0.96261 0.61375 0.01848 0.0
C45 C 0.03439 0.67272 0.02706 0.0
O46 O 0.01144 0.61376 0.04566 0.0
Co47 Co 0.05615 0.64382 0.99056 0.0
O48 O 0.05415 0.62789 0.03788 0.0
C49 C 0.01017 0.60337 0.94818 0.0
C50 C 0.96174 0.62943 -0.00513 0.0
C51 C 0.03279 0.61457 0.05509 0.0
O52 O 0.99457 0.60567 0.97002 0.0
O53 O 0.03521 0.61806 0.95045 0.0
O54 O 0.012 0.66236 0.04354 0.0
O55 O 0.03487 0.65941 -0.0008 0.0
Co56 Co 0.37432 0.36532 0.01138 0.0
O57 O 0.34255 0.35171 0.03871 0.0
O58 O 0.35965 0.38778 0.00545 0.0
C59 C 0.36475 0.32588 0.98724 0.0
O60 O 0.40572 0.38469 0.97791 0.0
Co61 Co 0.41447 0.34767 0.0253 0.0
O62 O 0.43114 0.3669 0.98041 0.0
C63 C 0.41338 0.38755 0.07412 0.0
C64 C 0.34094 0.37135 0.02648 0.0
C65 C 0.42533 0.38295 0.96678 0.0
O66 O 0.39597 0.38787 0.05392 0.0
O67 O 0.42162 0.37154 0.06861 0.0
O68 O 0.35532 0.33923 0.97283 0.0
O69 O 0.37786 0.33563 0.01699 0.0
Co70 Co 0.64068 0.01371 0.01684 0.0
O71 O 0.65549 0.99792 0.04643 0.0
O72 O 0.6249 0.97619 0.00436 0.0
C73 C 0.67949 0.05035 0.00301 0.0
O74 O 0.62178 0.02321 0.97917 0.0
Co75 Co 0.64534 0.0668 0.03845 0.0
O76 O 0.63174 0.06522 0.98911 0.0
C77 C 0.60669 0.01846 0.07562 0.0
C78 C 0.64041 0.97583 0.02875 0.0
C79 C 0.62134 0.04399 0.96983 0.0
O80 O 0.61225 0.00479 0.05373 0.0
O81 O 0.61886 0.04386 0.07543 0.0
O82 O 0.67117 0.02795 0.98563 0.0
O83 O 0.66542 0.04954 0.03032 0.0
Co84 Co 0.68613 0.71439 0.3341 0.0
O85 O 0.70091 0.69993 0.36611 0.0
O86 O 0.72421 0.73444 0.33111 0.0
C87 C 0.65453 0.67428 0.31207 0.0
O88 O 0.67828 0.73432 0.29616 0.0
Co89 Co 0.62829 0.70081 0.33977 0.0
O90 O 0.63557 0.72152 0.29536 0.0
C91 C 0.66837 0.7382 0.39248 0.0
C92 C 0.72374 0.71797 0.35448 0.0
C93 C 0.65875 0.73533 0.28309 0.0
O94 O 0.68692 0.73869 0.3738 0.0
O95 O 0.64402 0.72284 0.38478 0.0
O96 O 0.67811 0.68589 0.29882 0.0
O97 O 0.65125 0.68664 0.33874 0.0
Co98 Co 0.29933 0.96929 0.33004 0.0
O99 O 0.329 0.98308 0.29798 0.0
O100 O 0.31779 0.95008 0.33519 0.0
C101 C 0.30827 0.00971 0.35055 0.0
O102 O 0.27113 0.95045 0.36853 0.0
Co103 Co 0.25504 0.98192 0.32112 0.0
O104 O 0.2423 0.96425 0.3679 0.0
C105 C 0.25518 0.94066 0.2743 0.0
C106 C 0.33433 0.96623 0.31163 0.0
C107 C 0.25099 0.95053 0.38147 0.0
O108 O 0.27512 0.94315 0.29171 0.0
O109 O 0.24565 0.95548 0.28051 0.0
O110 O 0.32023 0.99851 0.36405 0.0
O111 O 0.29263 0.99708 0.32366 0.0
Co112 Co 0.03288 0.3279 0.3304 0.0
O113 O 0.01919 0.34491 0.30115 0.0
O114 O 0.05117 0.36588 0.34151 0.0
C115 C 0.99319 0.29305 0.34632 0.0
O116 O 0.05144 0.31726 0.36711 0.0
Co117 Co 0.02263 0.27178 0.31081 0.0
O118 O 0.03941 0.27457 0.3581 0.0
C119 C 0.06264 0.31795 0.27079 0.0
C120 C 0.03571 0.36703 0.31778 0.0
C121 C 0.05184 0.29637 0.37606 0.0
O122 O 0.05975 0.3338 0.29223 0.0
O123 O 0.04808 0.29267 0.27208 0.0
O124 O 1.00318 0.31592 0.36312 0.0
O125 O 1.00628 0.29255 0.3187 0.0
Co126 Co 0.66315 0.96591 0.34293 0.0
O127 O 0.64578 0.98007 0.31581 0.0
O128 O 0.6253 0.94551 0.35136 0.0
C129 C 0.69588 0.00577 0.36389 0.0
O130 O 0.67528 0.94679 0.37675 0.0
Co131 Co 0.72021 0.98127 0.32375 0.0
O132 O 0.71871 0.96431 0.37007 0.0
C133 C 0.67555 0.94003 0.27996 0.0
C134 C 0.62393 0.96202 0.3298 0.0
C135 C 0.69729 0.94901 0.38619 0.0
O136 O 0.65899 0.94126 0.30116 0.0
O137 O 0.70042 0.95566 0.28305 0.0
O138 O 0.67336 0.99368 0.38007 0.0
O139 O 0.69725 0.99457 0.33432 0.0
Co140 Co 0.04093 0.69729 0.34635 0.0
O141 O 0.01053 0.68421 0.3766 0.0
O142 O 0.02343 0.71685 0.33782 0.0
C143 C 0.03251 0.65662 0.32844 0.0
O144 O 0.0701 0.71539 0.30907 0.0
Co145 Co 0.08511 0.68551 0.36013 0.0
O146 O 0.09924 0.70218 0.31307 0.0
C147 C 0.08215 0.72567 0.40555 0.0
C148 C 1.00635 0.7014 0.36138 0.0
C149 C 0.09059 0.71536 0.29771 0.0
O150 O 0.06379 0.72391 0.38512 0.0
O151 O 0.09144 0.71045 0.40166 0.0
O152 O 0.02087 0.66741 0.31275 0.0
O153 O 0.04747 0.66986 0.35566 0.0
Co154 Co 0.31024 0.34757 0.3441 0.0
O155 O 0.32486 0.33158 0.37369 0.0
O156 O 0.29389 0.30996 0.33208 0.0
C157 C 0.34924 0.38365 0.32966 0.0
O158 O 0.29126 0.35701 0.30655 0.0
Co159 Co 0.31609 0.40154 0.36388 0.0
O160 O 0.3015 0.39922 0.31502 0.0
C161 C 0.27685 0.35391 0.40209 0.0
C162 C 0.30938 0.30942 0.35635 0.0
C163 C 0.29044 0.37749 0.29678 0.0
O164 O 0.28224 0.33954 0.38133 0.0
O165 O 0.28931 0.37928 0.40094 0.0
O166 O 0.34046 0.3611 0.3125 0.0
O167 O 0.33542 0.3834 0.35694 0.0
Co168 Co 0.35687 0.0495 0.66421 0.0
O169 O 0.37031 0.03298 0.69468 0.0
O170 O 0.39478 0.0673 0.65987 0.0
C171 C 0.32305 0.01067 0.64218 0.0
O172 O 0.35033 0.07123 0.62774 0.0
Co173 Co 0.30095 0.04047 0.67345 0.0
O174 O 0.30865 0.06181 0.62951 0.0
C175 C 0.34327 0.07509 0.72524 0.0
C176 C 0.39339 0.05006 0.68263 0.0
C177 C 0.33159 0.07418 0.61613 0.0
O178 O 0.36047 0.07437 0.70491 0.0
O179 O 0.31855 0.06109 0.71888 0.0
O180 O 0.3463 0.02092 0.62813 0.0
O181 O 0.32137 0.02346 0.66972 0.0
Co182 Co 0.97429 0.30352 0.66968 0.0
O183 O 1.00389 0.31888 0.63745 0.0
O184 O 0.99571 0.28774 0.6767 0.0
C185 C 0.97883 0.34273 0.68731 0.0
O186 O 0.94663 0.28347 0.7084 0.0
Co187 Co 0.92574 0.30902 0.65774 0.0
O188 O 0.9138 0.29165 0.70488 0.0
C189 C 0.9314 0.26954 0.61441 0.0
C190 C 0.01092 0.3035 0.65176 0.0
C191 C 0.92489 0.28068 0.72001 0.0
O192 O 0.95223 0.27525 0.63237 0.0
O193 O 0.91906 0.28187 0.6189 0.0
O194 O 0.99285 0.33427 0.70221 0.0
O195 O 0.96374 0.32822 0.66087 0.0
Co196 Co 0.70189 0.66522 0.66721 0.0
O197 O 0.68832 0.68206 0.63731 0.0
O198 O 0.71999 0.7032 0.6781 0.0
C199 C 0.66213 0.6303 0.68229 0.0
O200 O 0.72031 0.65498 0.70456 0.0
Co201 Co 0.69203 0.60881 0.6496 0.0
O202 O 0.70867 0.61226 0.69728 0.0
C203 C 0.73196 0.65496 0.60875 0.0
C204 C 0.70477 0.70425 0.65387 0.0
C205 C 0.72096 0.63442 0.71449 0.0
O206 O 0.729 0.67102 0.62963 0.0
O207 O 0.71758 0.62968 0.61075 0.0
O208 O 0.67177 0.65308 0.69923 0.0
O209 O 0.67575 0.62983 0.6554 0.0
Co210 Co 0.334 0.3001 0.67128 0.0
O211 O 0.31759 0.31603 0.64595 0.0
O212 O 0.29623 0.28063 0.67989 0.0
C213 C 0.36798 0.33867 0.69368 0.0
O214 O 0.34498 0.27905 0.70291 0.0
Co215 Co 0.39002 0.31337 0.64954 0.0
O216 O 0.38769 0.29381 0.69361 0.0
C217 C 0.34411 0.27416 0.60605 0.0
C218 C 0.29547 0.29794 0.65928 0.0
C219 C 0.36635 0.27933 0.71039 0.0
O220 O 0.32847 0.27605 0.62827 0.0
O221 O 0.36914 0.2886 0.60865 0.0
O222 O 0.34546 0.3271 0.70989 0.0
O223 O 0.36861 0.32801 0.66316 0.0
Co224 Co 0.70508 0.03034 0.68294 0.0
O225 O 0.67377 0.01617 0.71145 0.0
O226 O 0.68751 0.0497 0.67394 0.0
C227 C 0.6984 0.9906 0.66359 0.0
O228 O 0.7354 0.04972 0.64774 0.0
Co229 Co 0.74945 0.01953 0.70061 0.0
O230 O 0.76519 0.03759 0.65481 0.0
C231 C 0.74383 0.05831 0.7451 0.0
C232 C 0.67009 0.03391 0.69691 0.0
C233 C 0.75664 0.05045 0.63834 0.0
O234 O 0.72619 0.05636 0.72312 0.0
O235 O 0.75393 0.04372 0.74232 0.0
O236 O 0.68665 1.00123 0.64776 0.0
O237 O 0.71203 1.00316 0.69213 0.0
Co238 Co 0.97545 0.67965 0.67839 0.0
O239 O 0.99077 0.66489 0.70907 0.0
O240 O 0.95984 0.64191 0.66793 0.0
C241 C 0.01375 0.71605 0.66281 0.0
O242 O 0.95585 0.68772 0.64015 0.0
Co243 Co 0.97992 0.73342 0.69611 0.0
O244 O 0.9637 0.7292 0.6479 0.0
C245 C 0.94184 0.6861 0.73588 0.0
C246 C 0.97552 0.64224 0.69266 0.0
C247 C 0.95344 0.70726 0.6302 0.0
O248 O 0.94744 0.67172 0.71551 0.0
O249 O 0.95386 0.71143 0.73405 0.0
O250 O 1.00561 0.69326 0.64661 0.0
O251 O 0.99985 0.71586 0.68992 0.0
H252 H 0.16189 0.34467 0.1641 0.0
H253 H 0.16413 0.36991 0.05493 0.0
H254 H 0.11376 0.37568 0.13296 0.0
H255 H 0.17401 0.32589 0.11047 0.0
H256 H 0.18131 0.3422 0.06836 0.0
H257 H 0.20436 0.35835 0.1674 0.0
H258 H 0.28457 0.38948 0.13844 0.0
H259 H 0.2258 0.36288 0.05501 0.0
C260 C 0.15671 0.35455 0.14436 0.0
C261 C 0.13743 0.36071 0.15311 0.0
C262 C 0.16719 0.35844 0.10927 0.0
C263 C 0.15798 0.36878 0.0828 0.0
C264 C 0.13907 0.3755 0.0916 0.0
C265 C 0.12959 0.37216 0.12698 0.0
C266 C 0.18297 0.3458 0.09818 0.0
C267 C 0.21172 0.36132 0.10962 0.0
C268 C 0.21905 0.36495 0.14657 0.0
C269 C 0.24539 0.37554 0.15692 0.0
C270 C 0.26451 0.38269 0.13034 0.0
C271 C 0.25754 0.37792 0.09367 0.0
C272 C 0.23124 0.36756 0.08335 0.0
H273 H 0.67567 0.82722 0.15835 0.0
H274 H 0.65429 0.79619 0.04872 0.0
H275 H 0.65125 0.74643 0.13419 0.0
H276 H 0.69117 0.85598 0.0991 0.0
H277 H 0.67226 0.84188 0.0589 0.0
H278 H 0.65423 0.84696 0.15736 0.0
H279 H 0.6331 0.90388 0.13154 0.0
H280 H 0.6548 0.86879 0.04645 0.0
C281 C 0.66691 0.81074 0.13916 0.0
C282 C 0.66186 0.78594 0.1506 0.0
C283 C 0.66246 0.8144 0.10264 0.0
C284 C 0.65539 0.79323 0.07736 0.0
C285 C 0.65222 0.76906 0.0887 0.0
C286 C 0.65413 0.76527 0.1254 0.0
C287 C 0.6709 0.84201 0.08893 0.0
C288 C 0.65439 0.85406 0.10007 0.0
C289 C 0.65001 0.85697 0.13694 0.0
C290 C 0.64338 0.87563 0.14858 0.0
C291 C 0.63739 0.88881 0.12279 0.0
C292 C 0.64091 0.88601 0.08592 0.0
C293 C 0.6498 0.86899 0.07463 0.0
H294 H 0.1797 0.78729 0.17275 0.0
H295 H 0.15592 0.77861 0.06049 0.0
H296 H 0.09846 0.74024 0.14361 0.0
H297 H 0.21155 0.79733 0.12079 0.0
H298 H 0.20176 0.79904 0.07567 0.0
H299 H 0.19715 0.83119 0.16465 0.0
H300 H 0.25014 0.90964 0.12958 0.0
H301 H 0.23566 0.8433 0.06136 0.0
C302 C 0.16447 0.78037 0.15219 0.0
C303 C 0.1381 0.76479 0.16236 0.0
C304 C 0.17117 0.78689 0.11555 0.0
C305 C 0.15104 0.77527 0.08892 0.0
C306 C 0.12471 0.75838 0.099 0.0
C307 C 0.11858 0.75391 0.13569 0.0
C308 C 0.19988 0.80341 0.10458 0.0
C309 C 0.21232 0.83331 0.11031 0.0
C310 C 0.20919 0.84388 0.14331 0.0
C311 C 0.22266 0.87131 0.14979 0.0
C312 C 0.23948 0.8884 0.12377 0.0
C313 C 0.24518 0.87868 0.09252 0.0
C314 C 0.23107 0.85105 0.08527 0.0
H315 H 0.39201 0.21182 0.83274 0.0
H316 H 0.38698 0.23141 0.94386 0.0
H317 H 0.34824 0.24858 0.86019 0.0
H318 H 0.42293 0.21431 0.88532 0.0
H319 H 0.41195 0.21179 0.93076 0.0
H320 H 0.38911 0.17453 0.84021 0.0
H321 H 0.36329 0.09918 0.88578 0.0
H322 H 0.39555 0.16859 0.95572 0.0
C323 C 0.38306 0.21774 0.85335 0.0
C324 C 0.3684 0.22906 0.84239 0.0
C325 C 0.38777 0.21611 0.89049 0.0
C326 C 0.38043 0.22928 0.91601 0.0
C327 C 0.36716 0.24207 0.90484 0.0
C328 C 0.35898 0.23926 0.86871 0.0
C329 C 0.40506 0.20535 0.90238 0.0
C330 C 0.39209 0.17528 0.89876 0.0
C331 C 0.38546 0.16305 0.86416 0.0
C332 C 0.37456 0.13572 0.85984 0.0
C333 C 0.37108 0.12031 0.88978 0.0
C334 C 0.37885 0.13187 0.92437 0.0
C335 C 0.38927 0.15948 0.92903 0.0
H336 H 0.85317 0.18998 0.84943 0.0
H337 H 0.87942 0.21841 0.95922 0.0
H338 H 0.91385 0.27018 0.86955 0.0
H339 H 0.85309 0.16089 0.91032 0.0
H340 H 0.84798 0.17349 0.95138 0.0
H341 H 0.82125 0.15098 0.85681 0.0
H342 H 0.74178 0.10833 0.89192 0.0
H343 H 0.8035 0.15519 0.96864 0.0
C344 C 0.86428 0.20565 0.86899 0.0
C345 C 0.88271 0.23076 0.85589 0.0
C346 C 0.86184 0.20097 0.90673 0.0
C347 C 0.87936 0.22187 0.93054 0.0
C348 C 0.89841 0.24658 0.91693 0.0
C349 C 0.89906 0.25107 0.88001 0.0
C350 C 0.84518 0.17302 0.92156 0.0
C351 C 0.8159 0.1583 0.9127 0.0
C352 C 0.8072 0.14782 0.87755 0.0
C353 C 0.7805 0.13046 0.86964 0.0
C354 C 0.76217 0.12333 0.89731 0.0
C355 C 0.77029 0.1318 0.93307 0.0
C356 C 0.79712 0.14968 0.94073 0.0
H357 H 0.8349 0.62856 0.83994 0.0
H358 H 0.84105 0.60992 0.95085 0.0
H359 H 0.90916 0.64709 0.88334 0.0
H360 H 0.79648 0.58655 0.8799 0.0
H361 H 0.79861 0.59423 0.92678 0.0
H362 H 0.79317 0.61688 0.83411 0.0
H363 H 0.74632 0.64791 0.87272 0.0
H364 H 0.78072 0.62009 0.94877 0.0
C365 C 0.84639 0.62936 0.86301 0.0
C366 C 0.87334 0.63946 0.85837 0.0
C367 C 0.8343 0.61884 0.89651 0.0
C368 C 0.84998 0.6187 0.92531 0.0
C369 C 0.87708 0.62914 0.92072 0.0
C370 C 0.88839 0.63949 0.88727 0.0
C371 C 0.80445 0.60346 0.89975 0.0
C372 C 0.79088 0.61898 0.89257 0.0
C373 C 0.78619 0.62346 0.85668 0.0
C374 C 0.77093 0.63484 0.84958 0.0
C375 C 0.75959 0.64091 0.87844 0.0
C376 C 0.7626 0.63535 0.91413 0.0
C377 C 0.77874 0.62489 0.92125 0.0
H378 H 0.82864 0.68022 0.49754 0.0
H379 H 0.82931 0.7069 0.38976 0.0
H380 H 0.78155 0.71337 0.4715 0.0
H381 H 0.83824 0.66113 0.44084 0.0
H382 H 0.84665 0.6793 0.40028 0.0
H383 H 0.86985 0.69185 0.49972 0.0
H384 H 0.94807 0.71458 0.46989 0.0
H385 H 0.89059 0.69604 0.38691 0.0
C386 C 0.82369 0.69086 0.4788 0.0
C387 C 0.80506 0.69756 0.48921 0.0
C388 C 0.83353 0.69502 0.44331 0.0
C389 C 0.82396 0.70582 0.418 0.0
C390 C 0.80551 0.71283 0.42837 0.0
C391 C 0.79702 0.70957 0.46425 0.0
C392 C 0.84829 0.68164 0.43029 0.0
C393 C 0.87703 0.69504 0.44181 0.0
C394 C 0.88427 0.69735 0.47875 0.0
C395 C 0.90987 0.7044 0.48883 0.0
C396 C 0.92854 0.70997 0.4621 0.0
C397 C 0.92174 0.70703 0.42548 0.0
C398 C 0.89608 0.69972 0.41532 0.0
H399 H 0.34952 0.16587 0.48876 0.0
H400 H 0.32597 0.13147 0.38092 0.0
H401 H 0.32494 0.08449 0.46897 0.0
H402 H 0.36331 0.19312 0.42882 0.0
H403 H 0.34469 0.17764 0.3887 0.0
H404 H 0.32513 0.18279 0.48605 0.0
H405 H 0.29992 0.23606 0.45742 0.0
H406 H 0.32705 0.20436 0.37476 0.0
C407 C 0.34078 0.14885 0.47043 0.0
C408 C 0.33608 0.12447 0.48315 0.0
C409 C 0.33559 0.15135 0.43375 0.0
C410 C 0.32797 0.12945 0.40963 0.0
C411 C 0.32521 0.1057 0.42216 0.0
C412 C 0.32797 0.10312 0.45905 0.0
C413 C 0.34325 0.17839 0.41868 0.0
C414 C 0.32575 0.18951 0.42857 0.0
C415 C 0.32017 0.19187 0.46507 0.0
C416 C 0.31137 0.20899 0.4758 0.0
C417 C 0.30537 0.22172 0.44934 0.0
C418 C 0.31058 0.21984 0.41288 0.0
C419 C 0.32101 0.20397 0.40254 0.0
H420 H 0.844 0.12241 0.51077 0.0
H421 H 0.81608 0.10487 0.40071 0.0
H422 H 0.76171 0.07965 0.48891 0.0
H423 H 0.87218 0.12498 0.45508 0.0
H424 H 0.86185 0.12818 0.4113 0.0
H425 H 0.8744 0.1625 0.50495 0.0
H426 H 0.92672 0.23893 0.46353 0.0
H427 H 0.88814 0.17189 0.38968 0.0
C428 C 0.82822 0.11595 0.49134 0.0
C429 C 0.80235 0.10222 0.50394 0.0
C430 C 0.83349 0.11944 0.45391 0.0
C431 C 0.81221 0.10542 0.42927 0.0
C432 C 0.78628 0.08994 0.44201 0.0
C433 C 0.78167 0.09091 0.479 0.0
C434 C 0.86171 0.13319 0.44046 0.0
C435 C 0.8776 0.16329 0.44626 0.0
C436 C 0.8827 0.17458 0.48157 0.0
C437 C 0.90011 0.20175 0.48746 0.0
C438 C 0.91277 0.21798 0.45831 0.0
C439 C 0.90863 0.20762 0.42296 0.0
C440 C 0.89094 0.18016 0.4169 0.0
H441 H 0.05538 0.54429 0.17475 0.0
H442 H 0.04127 0.54926 0.28828 0.0
H443 H 0.01646 0.58461 0.20924 0.0
H444 H 0.08467 0.54363 0.22755 0.0
H445 H 0.07172 0.53693 0.27204 0.0
H446 H 0.05445 0.50723 0.17684 0.0
H447 H 0.03401 0.43006 0.21073 0.0
H448 H 0.05534 0.4922 0.29075 0.0
C449 C 0.04604 0.54898 0.19627 0.0
C450 C 0.03319 0.5627 0.18772 0.0
C451 C 0.04836 0.54313 0.23261 0.0
C452 C 0.03854 0.55242 0.26024 0.0
C453 C 0.02784 0.56821 0.25212 0.0
C454 C 0.02401 0.57188 0.21582 0.0
C455 C 0.06609 0.53257 0.24292 0.0
C456 C 0.05478 0.50317 0.23494 0.0
C457 C 0.05075 0.49397 0.19878 0.0
C458 C 0.04317 0.46775 0.19026 0.0
C459 C 0.03983 0.45042 0.21771 0.0
C460 C 0.04396 0.45887 0.25397 0.0
C461 C 0.05156 0.48539 0.26274 0.0
H462 H 0.52068 0.52216 0.17992 0.0
H463 H 0.55221 0.55046 0.28799 0.0
H464 H 0.58309 0.60206 0.1975 0.0
H465 H 0.52549 0.49359 0.2419 0.0
H466 H 0.51886 0.50605 0.2818 0.0
H467 H 0.49433 0.48037 0.18739 0.0
H468 H 0.41393 0.43865 0.21915 0.0
H469 H 0.47395 0.48804 0.29684 0.0
C470 C 0.53327 0.53766 0.19893 0.0
C471 C 0.55137 0.56264 0.18521 0.0
C472 C 0.53269 0.53295 0.23652 0.0
C473 C 0.55118 0.55385 0.25949 0.0
C474 C 0.56962 0.5786 0.24528 0.0
C475 C 0.56895 0.5829 0.20851 0.0
C476 C 0.51659 0.50513 0.25184 0.0
C477 C 0.48754 0.48934 0.24188 0.0
C478 C 0.47972 0.47752 0.20715 0.0
C479 C 0.45321 0.4598 0.19866 0.0
C480 C 0.43425 0.45365 0.22512 0.0
C481 C 0.44158 0.46319 0.26069 0.0
C482 C 0.46818 0.48151 0.26899 0.0
H483 H 0.49715 0.95942 0.17569 0.0
H484 H 0.50208 0.94143 0.28745 0.0
H485 H 0.5709 0.97851 0.22133 0.0
H486 H 0.45809 0.91752 0.21598 0.0
H487 H 0.45989 0.92554 0.26269 0.0
H488 H 0.45679 0.94939 0.16944 0.0
H489 H 0.40722 0.978 0.20435 0.0
H490 H 0.43821 0.94821 0.28274 0.0
C491 C 0.50828 0.96044 0.19925 0.0
C492 C 0.53533 0.97066 0.19531 0.0
C493 C 0.49577 0.95012 0.23269 0.0
C494 C 0.51122 0.95014 0.26197 0.0
C495 C 0.53837 0.96058 0.25796 0.0
C496 C 0.55006 0.97086 0.22471 0.0
C497 C 0.4658 0.93457 0.23556 0.0
C498 C 0.45177 0.94959 0.22761 0.0
C499 C 0.44865 0.95507 0.19152 0.0
C500 C 0.43346 0.9663 0.18335 0.0
C501 C 0.42029 0.97094 0.21111 0.0
C502 C 0.42157 0.9643 0.24683 0.0
C503 C 0.43761 0.9539 0.25522 0.0
H504 H 0.49433 0.01529 0.83765 0.0
H505 H 0.49556 0.0343 0.72558 0.0
H506 H 0.44988 0.04921 0.80159 0.0
H507 H 0.5032 0.99173 0.78699 0.0
H508 H 0.51049 0.00536 0.74306 0.0
H509 H 0.53578 0.02432 0.84079 0.0
H510 H 0.61501 0.05241 0.80897 0.0
H511 H 0.55467 0.02517 0.72777 0.0
C512 C 0.4899 0.02499 0.81667 0.0
C513 C 0.4724 0.03373 0.8243 0.0
C514 C 0.49921 0.02587 0.78139 0.0
C515 C 0.49046 0.03556 0.75342 0.0
C516 C 0.47301 0.04446 0.7609 0.0
C517 C 0.46487 0.04428 0.7965 0.0
C518 C 0.51301 0.01082 0.77241 0.0
C519 C 0.54194 0.02539 0.78274 0.0
C520 C 0.55001 0.02985 0.81945 0.0
C521 C 0.57648 0.04019 0.82889 0.0
C522 C 0.59486 0.04584 0.80163 0.0
C523 C 0.58706 0.04025 0.76532 0.0
C524 C 0.56073 0.03038 0.75585 0.0
H525 H 0.01075 0.49269 0.8235 0.0
H526 H 0.98937 0.46372 0.71316 0.0
H527 H 0.98296 0.41141 0.79706 0.0
H528 H 0.02717 0.52244 0.7658 0.0
H529 H 0.00881 0.50955 0.7249 0.0
H530 H 0.99133 0.51462 0.82352 0.0
H531 H 0.96823 0.57015 0.79828 0.0
H532 H 0.99136 0.53656 0.71285 0.0
C533 C 1.00144 0.47649 0.80393 0.0
C534 C 0.99533 0.45118 0.8146 0.0
C535 C 0.99748 0.48102 0.76762 0.0
C536 C 0.98984 0.46011 0.74171 0.0
C537 C 0.98521 0.43522 0.75238 0.0
C538 C 0.98654 0.43065 0.78892 0.0
C539 C 1.00698 0.5091 0.75489 0.0
C540 C 0.99082 0.52148 0.76626 0.0
C541 C 0.98636 0.52412 0.80318 0.0
C542 C 0.9784 0.54172 0.81502 0.0
C543 C 0.9729 0.55538 0.78937 0.0
C544 C 0.97719 0.55336 0.75257 0.0
C545 C 0.98622 0.53651 0.74102 0.0
H546 H 0.51523 0.45647 0.84199 0.0
H547 H 0.48897 0.43714 0.73116 0.0
H548 H 0.43333 0.41143 0.81765 0.0
H549 H 0.5446 0.45909 0.78699 0.0
H550 H 0.53474 0.46225 0.74287 0.0
H551 H 0.54677 0.49588 0.83683 0.0
H552 H 0.596 0.57317 0.79592 0.0
H553 H 0.55962 0.50638 0.72143 0.0
C554 C 0.49976 0.44946 0.82199 0.0
C555 C 0.47369 0.43525 0.83386 0.0
C556 C 0.50558 0.45266 0.78465 0.0
C557 C 0.48475 0.43781 0.75958 0.0
C558 C 0.4588 0.42173 0.77183 0.0
C559 C 0.45343 0.42312 0.80837 0.0
C560 C 0.53404 0.46703 0.77198 0.0
C561 C 0.54934 0.49713 0.77805 0.0
C562 C 0.55437 0.50817 0.81351 0.0
C563 C 0.57081 0.53547 0.81954 0.0
C564 C 0.5827 0.55209 0.79055 0.0
C565 C 0.57871 0.54199 0.7551 0.0
C566 C 0.56208 0.51439 0.74877 0.0
H567 H 0.72284 0.87959 0.50462 0.0
H568 H 0.712 0.88678 0.61879 0.0
H569 H 0.68627 0.92205 0.54091 0.0
H570 H 0.75129 0.87589 0.55418 0.0
H571 H 0.74142 0.87294 0.60028 0.0
H572 H 0.71241 0.83813 0.50967 0.0
H573 H 0.68897 0.7615 0.54894 0.0
H574 H 0.72624 0.82921 0.62193 0.0
C575 C 0.71454 0.88526 0.52653 0.0
C576 C 0.702 0.8994 0.51854 0.0
C577 C 0.71747 0.8797 0.56276 0.0
C578 C 0.70883 0.88982 0.59089 0.0
C579 C 0.69812 0.90567 0.58321 0.0
C580 C 0.69382 0.90925 0.54707 0.0
C581 C 0.73382 0.86736 0.57201 0.0
C582 C 0.71944 0.83734 0.56705 0.0
C583 C 0.71026 0.82598 0.53241 0.0
C584 C 0.6989 0.79874 0.52639 0.0
C585 C 0.69706 0.78253 0.55455 0.0
C586 C 0.70688 0.79313 0.58908 0.0
C587 C 0.71815 0.82072 0.59544 0.0
H588 H 0.18023 0.86239 0.51465 0.0
H589 H 0.21631 0.88956 0.62088 0.0
H590 H 0.24729 0.93996 0.52927 0.0
H591 H 0.18762 0.83355 0.57959 0.0
H592 H 0.17926 0.84685 0.61676 0.0
H593 H 0.15831 0.82033 0.52122 0.0
H594 H 0.07727 0.77409 0.5492 0.0
H595 H 0.13407 0.82522 0.62927 0.0
C596 C 0.19438 0.87726 0.53306 0.0
C597 C 0.21346 0.90153 0.5185 0.0
C598 C 0.19475 0.87252 0.57049 0.0
C599 C 0.21472 0.89296 0.59253 0.0
C600 C 0.23378 0.91716 0.57762 0.0
C601 C 0.23257 0.92131 0.54092 0.0
C602 C 0.17804 0.845 0.5867 0.0
C603 C 0.14934 0.82817 0.57501 0.0
C604 C 0.1429 0.81645 0.54011 0.0
C605 C 0.11687 0.79766 0.53035 0.0
C606 C 0.09708 0.79 0.55598 0.0
C607 C 0.10319 0.7993 0.59183 0.0
C608 C 0.12921 0.81889 0.60117 0.0
H609 H 0.16869 0.29593 0.50444 0.0
H610 H 0.17436 0.27746 0.61564 0.0
H611 H 0.2428 0.31465 0.54888 0.0
H612 H 0.13025 0.25347 0.54474 0.0
H613 H 0.1321 0.2617 0.59135 0.0
H614 H 0.12648 0.28268 0.49786 0.0
H615 H 0.07724 0.3116 0.53403 0.0
H616 H 0.11412 0.28784 0.6121 0.0
C617 C 0.18007 0.29674 0.52765 0.0
C618 C 0.20707 0.30687 0.5233 0.0
C619 C 0.16781 0.28624 0.56109 0.0
C620 C 0.18338 0.28621 0.59012 0.0
C621 C 0.21049 0.29673 0.58583 0.0
C622 C 0.22198 0.30696 0.55246 0.0
C623 C 0.13796 0.27063 0.56414 0.0
C624 C 0.12401 0.28565 0.55608 0.0
C625 C 0.11894 0.28911 0.51991 0.0
C626 C 0.10251 0.29901 0.51192 0.0
C627 C 0.09106 0.3054 0.54033 0.0
C628 C 0.09477 0.30119 0.57642 0.0
C629 C 0.11166 0.29173 0.58429 0.0
C630 C 0.04427 0.43222 0.10501 0.0
C631 C 0.02249 0.42916 0.08577 0.0
C632 C 0.05186 0.44612 0.13815 0.0
C633 C 0.03823 0.45779 0.1526 0.0
H634 H 0.05453 0.42248 0.09556 0.0
H635 H 0.0678 0.44684 0.15332 0.0
S636 S 0.98238 0.45874 0.11038 0.0
N637 N 0.98913 0.44123 0.08168 0.0
N638 N 1.00375 0.46768 0.14401 0.0
C639 C 0.01773 0.45659 0.13244 0.0
C640 C 0.00974 0.44215 0.09895 0.0
C641 C 0.5858 0.58133 0.09639 0.0
C642 C 0.57681 0.59715 0.0816 0.0
C643 C 0.575 0.56722 0.12818 0.0
C644 C 0.55477 0.56829 0.14627 0.0
H645 H 0.60201 0.58064 0.08421 0.0
H646 H 0.58384 0.55698 0.14016 0.0
S647 S 0.52246 0.60452 0.11787 0.0
N648 N 0.54474 0.61113 0.08655 0.0
N649 N 0.52499 0.58476 0.14652 0.0
C650 C 0.54447 0.58255 0.13081 0.0
C651 C 0.55534 0.59693 0.09842 0.0
C652 C 0.40417 0.94909 0.08912 0.0
C653 C 0.40424 0.97222 0.07939 0.0
C654 C 0.41569 0.94798 0.12157 0.0
C655 C 0.42774 0.96993 0.14558 0.0
H656 H 0.39424 0.93124 0.07228 0.0
H657 H 0.4137 0.92928 0.12893 0.0
S658 S 0.43669 0.03632 0.1313 0.0
N659 N 0.42003 0.01856 0.09527 0.0
N660 N 0.44161 0.01624 0.15615 0.0
C661 C 0.42957 0.99369 0.13525 0.0
C662 C 0.41786 0.9949 0.10222 0.0
C663 C 0.42601 0.98971 0.89613 0.0
C664 C 0.41906 0.00633 0.91468 0.0
C665 C 0.44451 0.99928 0.86852 0.0
C666 C 0.45698 0.02593 0.85817 0.0
H667 H 0.41672 0.96886 0.90238 0.0
H668 H 0.44808 0.98528 0.85399 0.0
S669 S 0.44777 0.07843 0.89983 0.0
N670 N 0.42749 0.05137 0.92207 0.0
N671 N 0.46255 0.06935 0.87002 0.0
C672 C 0.45117 0.04314 0.87736 0.0
C673 C 0.43222 0.03337 0.90566 0.0
C674 C 0.98025 0.42701 0.90992 0.0
C675 C 0.99848 0.41891 0.91621 0.0
C676 C 0.98091 0.44006 0.87824 0.0
C677 C 0.99983 0.44554 0.85175 0.0
H678 H 0.96467 0.42237 0.929 0.0
H679 H 0.96552 0.44434 0.87339 0.0
S680 S 0.0534 0.43105 0.85581 0.0
N681 N 0.03732 0.41945 0.89399 0.0
N682 N 0.03826 0.44381 0.8344 0.0
C683 C 0.01911 0.43913 0.85849 0.0
C684 C 0.01855 0.4259 0.89076 0.0
C685 C 0.56682 0.5715 0.90183 0.0
C686 C 0.59247 0.58359 0.91632 0.0
C687 C 0.55902 0.55377 0.87219 0.0
C688 C 0.5766 0.54759 0.85607 0.0
H689 H 0.55289 0.57643 0.91268 0.0
H690 H 0.53967 0.5461 0.86046 0.0
S691 S 0.64508 0.57189 0.88483 0.0
N692 N 0.6348 0.58643 0.91349 0.0
N693 N 0.61999 0.55331 0.85737 0.0
C694 C 0.60174 0.55829 0.87127 0.0
C695 C 0.60971 0.57621 0.90158 0.0
C696 C 0.01529 0.57547 0.90118 0.0
C697 C 0.99912 0.58334 0.91817 0.0
C698 C 1.0073 0.5599 0.86945 0.0
C699 C 0.98278 0.55148 0.85327 0.0
H700 H 0.03484 0.58233 0.91156 0.0
H701 H 0.02133 0.55608 0.8562 0.0
S702 S 0.93135 0.56315 0.88976 0.0
N703 N 0.95612 0.579 0.91866 0.0
N704 N 0.94104 0.54941 0.85886 0.0
C705 C 0.96553 0.5574 0.87143 0.0
C706 C 0.97368 0.57334 0.90395 0.0
C707 C 0.43492 0.41731 0.92027 0.0
C708 C 0.44126 0.39973 0.9362 0.0
C709 C 0.44739 0.43092 0.88877 0.0
C710 C 0.46683 0.42767 0.87209 0.0
H711 H 0.41939 0.41978 0.93121 0.0
H712 H 0.44071 0.4429 0.87616 0.0
S713 S 0.49261 0.38613 0.9042 0.0
N714 N 0.47008 0.38167 0.93407 0.0
N715 N 0.49311 0.40707 0.87471 0.0
C716 C 0.47462 0.4116 0.88884 0.0
C717 C 0.46192 0.39765 0.92088 0.0
C718 C 0.58774 0.01963 0.92046 0.0
C719 C 0.60858 0.0436 0.93512 0.0
C720 C 0.57609 0.01893 0.88706 0.0
C721 C 0.58512 0.04211 0.86699 0.0
H722 H 0.58055 1.00123 0.93469 0.0
H723 H 0.56073 0.99996 0.8761 0.0
S724 S 0.63889 0.10983 0.89307 0.0
N725 N 0.63737 0.09118 0.92689 0.0
N726 N 0.61569 0.08958 0.8641 0.0
C727 C 0.60554 0.0662 0.88157 0.0
C728 C 0.6172 0.06702 0.91563 0.0
C729 C 0.57452 0.01764 0.12069 0.0
C730 C 0.58565 0.00435 0.10288 0.0
C731 C 0.55646 0.00577 0.14888 0.0
C732 C 0.54892 0.98021 0.16035 0.0
H733 H 0.58032 0.0377 0.11352 0.0
H734 H 0.54942 0.01717 0.16302 0.0
S735 S 0.57078 0.93616 0.12204 0.0
N736 N 0.58641 0.96336 0.09805 0.0
N737 N 0.55278 0.94143 0.1512 0.0
C738 C 0.55894 0.96624 0.14198 0.0
C739 C 0.57717 0.97818 0.11317 0.0
C740 C 0.00946 0.58228 0.10525 0.0
C741 C 0.03291 0.59934 0.08701 0.0
C742 C 0.00944 0.56892 0.13639 0.0
C743 C 0.03283 0.57194 0.15057 0.0
H744 H 0.99098 0.57964 0.09597 0.0
H745 H 0.99107 0.55686 0.15033 0.0
S746 S 0.0995 0.61343 0.11293 0.0
N747 N 0.08025 0.61759 0.08524 0.0
N748 N 0.07992 0.59273 0.14375 0.0
C749 C 0.05624 0.58808 0.13201 0.0
C750 C 0.05636 0.60173 0.10034 0.0
C751 C 0.41456 0.42316 0.11407 0.0
C752 C 0.42483 0.40694 0.1049 0.0
C753 C 0.42456 0.44109 0.14358 0.0
C754 C 0.44536 0.44366 0.16476 0.0
H755 H 0.39833 0.42173 0.09882 0.0
H756 H 0.41565 0.45268 0.15032 0.0
S757 S 0.47959 0.40635 0.15244 0.0
N758 N 0.45759 0.39528 0.11941 0.0
N759 N 0.47588 0.42864 0.17503 0.0
C760 C 0.45617 0.42803 0.15564 0.0
C761 C 0.44602 0.40975 0.1257 0.0
C762 C 0.70159 0.77593 0.43154 0.0
C763 C 0.67532 0.75567 0.42506 0.0
C764 C 0.70893 0.79127 0.4636 0.0
C765 C 0.69026 0.78671 0.49014 0.0
H766 H 0.71675 0.77956 0.41221 0.0
H767 H 0.72949 0.80585 0.46844 0.0
S768 S 0.61894 0.73781 0.4861 0.0
N769 N 0.63036 0.73322 0.44763 0.0
N770 N 0.64463 0.76208 0.50783 0.0
C771 C 0.66391 0.76748 0.4836 0.0
C772 C 0.65631 0.75194 0.45102 0.0
C773 C 0.24516 0.91713 0.42763 0.0
C774 C 0.23742 0.93418 0.41358 0.0
C775 C 0.23472 0.90374 0.46001 0.0
C776 C 0.21605 0.90675 0.47942 0.0
H777 H 0.26025 0.91497 0.41446 0.0
H778 H 0.24271 0.89251 0.47134 0.0
S779 S 0.18703 0.94655 0.45332 0.0
N780 N 0.2079 0.95126 0.42066 0.0
N781 N 0.18884 0.92621 0.48168 0.0
C782 C 0.20684 0.92219 0.46474 0.0
C783 C 0.21737 0.93587 0.43177 0.0
C784 C 0.08048 0.32086 0.43018 0.0
C785 C 0.0672 0.29746 0.40866 0.0
C786 C 0.0934 0.32174 0.46238 0.0
C787 C 0.09373 0.29934 0.47437 0.0
H788 H 0.0803 0.33848 0.42273 0.0
H789 H 0.10244 0.33986 0.47875 0.0
S790 S 0.06348 0.23363 0.42741 0.0
N791 N 0.05665 0.25163 0.40105 0.0
N792 N 0.08054 0.25343 0.46175 0.0
C793 C 0.08158 0.2762 0.45249 0.0
C794 C 0.0684 0.27522 0.41968 0.0
C795 C 0.09663 0.35636 0.23492 0.0
C796 C 0.0837 0.32919 0.24314 0.0
C797 C 0.11511 0.36682 0.20701 0.0
C798 C 0.12155 0.35059 0.18647 0.0
H799 H 0.09188 0.36954 0.24934 0.0
H800 H 0.12389 0.38762 0.20075 0.0
S801 S 0.0946 0.27851 0.19825 0.0
N802 N 0.08006 0.28664 0.2296 0.0
N803 N 0.11405 0.30618 0.17678 0.0
C804 C 0.10953 0.32365 0.19524 0.0
C805 C 0.0908 0.313 0.22361 0.0
C806 C 0.64373 0.75955 0.24432 0.0
C807 C 0.66289 0.75301 0.25232 0.0
C808 C 0.64507 0.77314 0.21288 0.0
C809 C 0.66562 0.78073 0.18834 0.0
H810 H 0.6269 0.75315 0.26167 0.0
H811 H 0.62896 0.77602 0.20644 0.0
S812 S 0.72213 0.77115 0.19782 0.0
N813 N 0.70437 0.75751 0.23421 0.0
N814 N 0.70654 0.7828 0.17496 0.0
C815 C 0.68581 0.77603 0.19705 0.0
C816 C 0.68456 0.76227 0.22911 0.0
C817 C 0.2492 0.90004 0.24181 0.0
C818 C 0.2427 0.91986 0.24534 0.0
C819 C 0.23983 0.8819 0.21252 0.0
C820 C 0.22374 0.88301 0.18576 0.0
H821 H 0.26245 0.89914 0.26097 0.0
H822 H 0.24687 0.86827 0.20929 0.0
S823 S 0.19855 0.92876 0.18376 0.0
N824 N 0.21691 0.93761 0.22077 0.0
N825 N 0.19991 0.90364 0.1656 0.0
C826 C 0.21563 0.90137 0.19007 0.0
C827 C 0.22498 0.91979 0.21989 0.0
C828 C 0.64036 0.90953 0.23544 0.0
C829 C 0.66574 0.91988 0.25004 0.0
C830 C 0.63227 0.89329 0.20403 0.0
C831 C 0.64918 0.88665 0.1863 0.0
H832 H 0.62713 0.91509 0.24721 0.0
H833 H 0.61313 0.88695 0.19252 0.0
S834 S 0.71641 0.90591 0.21645 0.0
N835 N 0.70655 0.91976 0.2468 0.0
N836 N 0.6918 0.89019 0.18743 0.0
C837 C 0.67393 0.89544 0.20212 0.0
C838 C 0.6821 0.91184 0.23402 0.0
C839 C 0.12541 0.72881 0.2504 0.0
C840 C 0.10477 0.73107 0.26544 0.0
C841 C 0.13778 0.74163 0.21838 0.0
C842 C 0.13004 0.75723 0.20026 0.0
H843 H 0.13149 0.71623 0.26263 0.0
H844 H 0.15242 0.73806 0.20664 0.0
S845 S 0.07972 0.77263 0.22998 0.0
N846 N 0.07911 0.7525 0.26099 0.0
N847 N 0.10242 0.7764 0.20086 0.0
C848 C 0.11065 0.76102 0.21595 0.0
C849 C 0.098 0.74799 0.24848 0.0
C850 C 0.28367 0.40007 0.24489 0.0
C851 C 0.27666 0.37633 0.26266 0.0
C852 C 0.27234 0.39977 0.21154 0.0
C853 C 0.25316 0.37579 0.19502 0.0
H854 H 0.29878 0.41907 0.25611 0.0
H855 H 0.27922 0.41838 0.19799 0.0
S856 S 0.22661 0.30827 0.23079 0.0
N857 N 0.24836 0.32817 0.26161 0.0
N858 N 0.22693 0.32778 0.19902 0.0
C859 C 0.24517 0.35199 0.21296 0.0
C860 C 0.25698 0.35221 0.24672 0.0
C861 C 0.24989 0.31567 0.4427 0.0
C862 C 0.25601 0.34055 0.42966 0.0
C863 C 0.23262 0.30406 0.47166 0.0
C864 C 0.22042 0.3166 0.48823 0.0
H865 H 0.25945 0.30565 0.43166 0.0
H866 H 0.22958 0.28562 0.48217 0.0
S867 S 0.22722 0.38023 0.46196 0.0
N868 N 0.2466 0.37622 0.43384 0.0
N869 N 0.21398 0.35405 0.48812 0.0
C870 C 0.22504 0.34058 0.4742 0.0
C871 C 0.24289 0.35265 0.44498 0.0
C872 C 0.67552 0.91752 0.43763 0.0
C873 C 0.69823 0.93363 0.41738 0.0
C874 C 0.67655 0.90486 0.4689 0.0
C875 C 0.70027 0.90764 0.48125 0.0
H876 H 0.65692 0.91532 0.43004 0.0
H877 H 0.65879 0.89365 0.48447 0.0
S878 S 0.76506 0.94591 0.4372 0.0
N879 N 0.74505 0.95008 0.41113 0.0
N880 N 0.7467 0.92665 0.47006 0.0
C881 C 0.72282 0.92254 0.46045 0.0
C882 C 0.72188 0.93547 0.42859 0.0
C883 C 0.0807 0.76034 0.44455 0.0
C884 C 0.09291 0.74592 0.43541 0.0
C885 C 0.08933 0.77805 0.47436 0.0
C886 C 0.1106 0.78216 0.49593 0.0
H887 H 0.06386 0.75743 0.42926 0.0
H888 H 0.07888 0.78811 0.48116 0.0
S889 S 0.15011 0.75034 0.48315 0.0
N890 N 0.12837 0.73812 0.44978 0.0
N891 N 0.14391 0.77079 0.50612 0.0
C892 C 0.1235 0.76856 0.48657 0.0
C893 C 0.11482 0.7506 0.45625 0.0
C894 C 0.33334 0.08836 0.78479 0.0
C895 C 0.35199 0.09231 0.75821 0.0
C896 C 0.3408 0.10318 0.81712 0.0
C897 C 0.36707 0.12271 0.82391 0.0
H898 H 0.31283 0.07323 0.78115 0.0
H899 H 0.32597 0.09902 0.8373 0.0
S900 S 0.42352 0.14182 0.76344 0.0
N901 N 0.39802 0.11795 0.74083 0.0
N902 N 0.41182 0.14593 0.80199 0.0
C903 C 0.38589 0.12752 0.79752 0.0
C904 C 0.37841 0.11225 0.76457 0.0
C905 C 0.8898 0.2636 0.7673 0.0
C906 C 0.91186 0.26407 0.75215 0.0
C907 C 0.87838 0.25013 0.7993 0.0
C908 C 0.88824 0.23624 0.81708 0.0
H909 H 0.88193 0.27473 0.75536 0.0
H910 H 0.8628 0.25201 0.81146 0.0
S911 S 0.94364 0.22872 0.78769 0.0
N912 N 0.94166 0.24736 0.75652 0.0
N913 N 0.92 0.22217 0.81672 0.0
C914 C 0.90913 0.23509 0.80133 0.0
C915 C 0.92098 0.24896 0.76887 0.0
C916 C 0.73697 0.61357 0.75819 0.0
C917 C 0.73656 0.63621 0.74716 0.0
C918 C 0.74987 0.61385 0.79005 0.0
C919 C 0.76292 0.63676 0.81226 0.0
H920 H 0.72657 0.59508 0.74272 0.0
H921 H 0.74839 0.59556 0.79834 0.0
S922 S 0.77071 0.70224 0.79415 0.0
N923 N 0.75261 0.68299 0.75995 0.0
N924 N 0.7768 0.68333 0.81977 0.0
C925 C 0.76397 0.65994 0.80074 0.0
C926 C 0.75083 0.65971 0.76828 0.0
C927 C 0.76631 0.69336 0.57326 0.0
C928 C 0.75272 0.66602 0.58064 0.0
C929 C 0.78441 0.70378 0.54491 0.0
C930 C 0.78978 0.68732 0.52301 0.0
H931 H 0.76239 0.70677 0.58871 0.0
H932 H 0.79369 0.72474 0.53935 0.0
S933 S 0.76075 0.61467 0.53194 0.0
N934 N 0.74729 0.62299 0.56467 0.0
N935 N 0.78059 0.64251 0.51106 0.0
C936 C 0.77713 0.66018 0.53088 0.0
C937 C 0.75878 0.64956 0.55972 0.0
C938 C 0.31767 0.09934 0.57724 0.0
C939 C 0.33635 0.09219 0.58549 0.0
C940 C 0.31943 0.113 0.54567 0.0
C941 C 0.33997 0.1201 0.52126 0.0
H942 H 0.30078 0.09325 0.59439 0.0
H943 H 0.30355 0.11616 0.53894 0.0
S944 S 0.39565 0.1093 0.53164 0.0
N945 N 0.37761 0.09594 0.5679 0.0
N946 N 0.38057 0.12136 0.50848 0.0
C947 C 0.35983 0.115 0.53036 0.0
C948 C 0.35813 0.10113 0.5625 0.0
C949 C 0.94001 0.24404 0.56736 0.0
C950 C 0.92195 0.2486 0.58582 0.0
C951 C 0.9323 0.2272 0.53677 0.0
C952 C 0.90622 0.21398 0.52406 0.0
H953 H 0.96054 0.2547 0.57529 0.0
H954 H 0.94709 0.22546 0.52189 0.0
S955 S 0.85063 0.21601 0.56557 0.0
N956 N 0.8762 0.23624 0.59136 0.0
N957 N 0.86186 0.20438 0.53381 0.0
C958 C 0.88759 0.21675 0.54368 0.0
C959 C 0.89544 0.23416 0.57459 0.0
C960 C 0.34934 0.24605 0.55965 0.0
C961 C 0.33313 0.25406 0.57617 0.0
C962 C 0.34103 0.22939 0.52901 0.0
C963 C 0.31611 0.21994 0.51344 0.0
H964 H 0.36907 0.25343 0.56968 0.0
H965 H 0.35506 0.22543 0.51607 0.0
S966 S 0.26463 0.23185 0.54906 0.0
N967 N 0.28984 0.24902 0.57691 0.0
N968 N 0.27413 0.21736 0.51907 0.0
C969 C 0.29892 0.22618 0.53111 0.0
C970 C 0.30742 0.24326 0.56254 0.0
C971 C 0.76494 0.08422 0.59156 0.0
C972 C 0.77157 0.06668 0.60687 0.0
C973 C 0.77688 0.09778 0.55982 0.0
C974 C 0.79596 0.09442 0.54219 0.0
H975 H 0.74975 0.08686 0.60341 0.0
H976 H 0.77011 0.10989 0.54786 0.0
S977 S 0.82183 0.05241 0.57201 0.0
N978 N 0.79996 0.04818 0.60286 0.0
N979 N 0.82198 0.07347 0.54304 0.0
C980 C 0.80391 0.07822 0.55817 0.0
C981 C 0.79179 0.06437 0.59051 0.0
C982 C 0.9369 0.68651 0.5688 0.0
C983 C 0.93912 0.70465 0.596 0.0
C984 C 0.92619 0.68574 0.53476 0.0
C985 C 0.91697 0.70282 0.52672 0.0
H986 H 0.94451 0.67356 0.57322 0.0
H987 H 0.92586 0.67222 0.5141 0.0
S988 S 0.91528 0.75173 0.58943 0.0
N989 N 0.92898 0.73858 0.61338 0.0
N990 N 0.90876 0.73683 0.54919 0.0
C991 C 0.9176 0.71993 0.55412 0.0
C992 C 0.92875 0.72096 0.58878 0.0
C993 C 0.91573 0.64823 0.77731 0.0
C994 C 0.92133 0.67284 0.76387 0.0
C995 C 0.89879 0.63672 0.80659 0.0
C996 C 0.88643 0.6491 0.82314 0.0
H997 H 0.92545 0.63835 0.76631 0.0
H998 H 0.89613 0.61848 0.81735 0.0
S999 S 0.89183 0.71192 0.79588 0.0
N1000 N 0.91121 0.70802 0.76762 0.0
N1001 N 0.87922 0.68605 0.82256 0.0
C1002 C 0.8905 0.67278 0.80873 0.0
C1003 C 0.90802 0.68475 0.77915 0.0
C1004 C 0.3434 0.24478 0.75805 0.0
C1005 C 0.36682 0.26321 0.74081 0.0
C1006 C 0.34379 0.2316 0.78913 0.0
C1007 C 0.36757 0.23628 0.80426 0.0
H1008 H 0.32466 0.24117 0.7483 0.0
H1009 H 0.32543 0.21876 0.80268 0.0
S1010 S 0.43429 0.28138 0.76886 0.0
N1011 N 0.41452 0.28414 0.74045 0.0
N1012 N 0.41496 0.2597 0.79894 0.0
C1013 C 0.39096 0.25348 0.78628 0.0
C1014 C 0.39066 0.26689 0.75463 0.0
C1015 C 0.77642 0.08443 0.79392 0.0
C1016 C 0.7535 0.07853 0.77485 0.0
C1017 C 0.78558 0.10221 0.82338 0.0
C1018 C 0.77234 0.11502 0.83504 0.0
H1019 H 0.78726 0.07488 0.78655 0.0
H1020 H 0.80263 0.10506 0.83805 0.0
S1021 S 0.71234 0.108 0.7935 0.0
N1022 N 0.71828 0.08791 0.769 0.0
N1023 N 0.73592 0.12176 0.82444 0.0
C1024 C 0.7499 0.1101 0.81566 0.0
C1025 C 0.74043 0.09184 0.78552 0.0
C1026 C 0.08369 0.35856 0.0272 0.0
C1027 C 0.08349 0.38233 0.02642 0.0
C1028 C 0.10384 0.35738 0.04501 0.0
C1029 C 0.1241 0.37977 0.0634 0.0
H1030 H 0.06752 0.34047 0.01535 0.0
H1031 H 0.10239 0.3383 0.04691 0.0
S1032 S 0.1329 0.44687 0.06837 0.0
N1033 N 0.10597 0.42909 0.04366 0.0
N1034 N 0.14327 0.42656 0.07864 0.0
C1035 C 0.12474 0.40392 0.06145 0.0
C1036 C 0.10455 0.40528 0.04253 0.0
C1037 C 0.67057 0.72164 0.0495 0.0
C1038 C 0.64711 0.70174 0.0331 0.0
C1039 C 0.67273 0.74481 0.06409 0.0
C1040 C 0.6514 0.74884 0.0634 0.0
H1041 H 0.68723 0.71903 0.05195 0.0
H1042 H 0.69076 0.759 0.07812 0.0
S1043 S 0.58614 0.70362 0.02194 0.0
N1044 N 0.60261 0.68837 0.0148 0.0
N1045 N 0.60652 0.73175 0.0437 0.0
C1046 C 0.62824 0.72979 0.04563 0.0
C1047 C 0.62613 0.70624 0.03011 0.0
C1048 C 0.31169 0.93882 0.07383 0.0
C1049 C 0.31 0.94354 0.03724 0.0
C1050 C 0.29149 0.91634 0.09035 0.0
C1051 C 0.2683 0.89812 0.07131 0.0
H1052 H 0.32866 0.95277 0.08997 0.0
H1053 H 0.2935 0.91387 0.11893 0.0
S1054 S 0.25537 0.90058 0.97388 0.0
N1055 N 0.28473 0.92717 0.98126 0.0
N1056 N 0.2458 0.88546 0.01304 0.0
C1057 C 0.26697 0.90188 0.03414 0.0
C1058 C 0.28802 0.92455 0.01697 0.0
C1059 C 0.35148 0.06842 0.97473 0.0
C1060 C 0.37427 0.06851 0.98499 0.0
C1061 C 0.35295 0.09083 0.95963 0.0
C1062 C 0.3773 0.11409 0.95355 0.0
H1063 H 0.33241 0.05043 0.97662 0.0
H1064 H 0.33504 0.08913 0.94956 0.0
S1065 S 0.4426 0.12541 0.9788 0.0
N1066 N 0.42177 0.09471 0.99139 0.0
N1067 N 0.42454 0.13656 0.96173 0.0
C1068 C 0.40008 0.11517 0.9663 0.0
C1069 C 0.39857 0.0924 0.98225 0.0
C1070 C 0.96776 0.2984 0.94223 0.0
C1071 C 0.96453 0.31499 0.9668 0.0
C1072 C 0.94614 0.2749 0.92877 0.0
C1073 C 0.92042 0.26718 0.93908 0.0
H1074 H 0.98709 0.30386 0.93257 0.0
H1075 H 0.94943 0.2633 0.9086 0.0
S1076 S 0.90124 0.30216 0.00495 0.0
N1077 N 0.93357 0.32083 0.00327 0.0
N1078 N 0.89284 0.27678 0.9768 0.0
C1079 C 0.91687 0.28269 0.96499 0.0
C1080 C 0.93897 0.30663 0.97909 0.0
C1081 C 0.72342 0.66105 0.96084 0.0
C1082 C 0.70252 0.63802 0.97594 0.0
C1083 C 0.74453 0.66079 0.94436 0.0
C1084 C 0.74547 0.63738 0.94187 0.0
H1085 H 0.72296 0.67923 0.96042 0.0
H1086 H 0.75935 0.67859 0.93121 0.0
S1087 S 0.6966 0.57216 0.97932 0.0
N1088 N 0.68506 0.59164 0.9898 0.0
N1089 N 0.72444 0.59097 0.95788 0.0
C1090 C 0.72559 0.61465 0.95891 0.0
C1091 C 0.70415 0.61499 0.9761 0.0
C1092 C 0.93863 0.65237 0.97568 0.0
C1093 C 0.93725 0.62849 0.98421 0.0
C1094 C 0.91762 0.65239 0.95869 0.0
C1095 C 0.89447 0.62851 0.94906 0.0
H1096 H 0.95661 0.67123 0.9806 0.0
H1097 H 0.92024 0.67122 0.95061 0.0
S1098 S 0.88022 0.56064 0.96766 0.0
N1099 N 0.91011 0.58036 0.98433 0.0
N1100 N 0.87075 0.58037 0.95137 0.0
C1101 C 0.89211 0.60452 0.95958 0.0
C1102 C 0.9135 0.60451 0.97738 0.0
C1103 C 0.37149 0.30694 0.93099 0.0
C1104 C 0.36476 0.30395 0.96757 0.0
C1105 C 0.37273 0.28703 0.91164 0.0
C1106 C 0.36629 0.26279 0.92767 0.0
H1107 H 0.37653 0.32513 0.9174 0.0
H1108 H 0.379 0.29087 0.88374 0.0
S1109 S 0.34705 0.24541 0.02327 0.0
N1110 N 0.35219 0.27571 0.01991 0.0
N1111 N 0.35284 0.23721 0.98276 0.0
C1112 C 0.35955 0.25963 0.96449 0.0
C1113 C 0.35908 0.28042 0.98457 0.0
C1114 C 0.7265 0.07145 0.98637 0.0
C1115 C 0.70481 0.07422 0.99358 0.0
C1116 C 0.7494 0.09206 0.97101 0.0
C1117 C 0.75123 0.11597 0.96145 0.0
H1118 H 0.72529 0.05273 0.99109 0.0
H1119 H 0.76489 0.08836 0.96359 0.0
S1120 S 0.70071 0.13388 0.97693 0.0
N1121 N 0.68752 0.10364 0.99304 0.0
N1122 N 0.73005 0.14184 0.96203 0.0
C1123 C 0.7303 0.11958 0.97032 0.0
C1124 C 0.70719 0.09881 0.98697 0.0
C1125 C 0.61757 0.92674 0.0389 0.0
C1126 C 0.64101 0.95154 0.0366 0.0
C1127 C 0.61768 0.90447 0.05197 0.0
C1128 C 0.64131 0.9061 0.06191 0.0
H1129 H 0.59891 0.92498 0.0329 0.0
H1130 H 0.59911 0.8863 0.05627 0.0
S1131 S 0.70807 0.96565 0.05716 0.0
N1132 N 0.68853 0.97586 0.04286 0.0
N1133 N 0.68872 0.9339 0.06627 0.0
C1134 C 0.66492 0.93028 0.05731 0.0
C1135 C 0.66478 0.95304 0.04494 0.0
C1136 C 0.08323 0.70196 0.03355 0.0
C1137 C 0.05797 0.69756 0.04008 0.0
C1138 C 0.10558 0.72368 0.04974 0.0
C1139 C 0.10339 0.74187 0.07251 0.0
H1140 H 0.08564 0.6877 0.01767 0.0
H1141 H 0.12435 0.72504 0.04664 0.0
S1142 S 0.04241 0.74223 0.09204 0.0
N1143 N 0.03254 0.71521 0.06667 0.0
N1144 N 0.07456 0.75633 0.09618 0.0
C1145 C 0.07855 0.73908 0.07622 0.0
C1146 C 0.05581 0.71678 0.06036 0.0
C1147 C 0.29366 0.35192 0.04035 0.0
C1148 C 0.31879 0.37461 0.03686 0.0
C1149 C 0.27298 0.35369 0.05541 0.0
C1150 C 0.27687 0.37814 0.06821 0.0
H1151 H 0.29022 0.33249 0.03264 0.0
H1152 H 0.25436 0.33552 0.05955 0.0
S1153 S 0.33848 0.44358 0.06339 0.0
N1154 N 0.34597 0.4225 0.045 0.0
N1155 N 0.30723 0.42568 0.07471 0.0
C1156 C 0.30154 0.40115 0.06328 0.0
C1157 C 0.32248 0.39943 0.04718 0.0
C1158 C 0.74813 0.69515 0.36745 0.0
C1159 C 0.74774 0.71883 0.36697 0.0
C1160 C 0.76882 0.69423 0.38399 0.0
C1161 C 0.78956 0.71682 0.40139 0.0
H1162 H 0.7318 0.67694 0.35611 0.0
H1163 H 0.76756 0.67522 0.38561 0.0
S1164 S 0.79818 0.78385 0.40664 0.0
N1165 N 0.77057 0.76576 0.38338 0.0
N1166 N 0.80892 0.76372 0.41611 0.0
C1167 C 0.78995 0.74087 0.39984 0.0
C1168 C 0.76917 0.74197 0.38216 0.0
C1169 C 0.33577 0.05173 0.38563 0.0
C1170 C 0.31312 0.03564 0.36464 0.0
C1171 C 0.34039 0.07551 0.40161 0.0
C1172 C 0.32237 0.08404 0.39777 0.0
H1173 H 0.3499 0.04571 0.3904 0.0
H1174 H 0.35772 0.08678 0.41858 0.0
S1175 S 0.26099 0.05036 0.34339 0.0
N1176 N 0.27337 0.031 0.33847 0.0
N1177 N 0.28182 0.07552 0.36982 0.0
C1178 C 0.30029 0.06895 0.37544 0.0
C1179 C 0.29569 0.04474 0.35863 0.0
C1180 C 0.94985 0.2728 0.37668 0.0
C1181 C 0.96878 0.26932 0.35889 0.0
C1182 C 0.92832 0.2516 0.39354 0.0
C1183 C 0.92525 0.22619 0.3943 0.0
H1184 H 0.95217 0.29231 0.37874 0.0
H1185 H 0.91503 0.25562 0.40856 0.0
S1186 S 0.9677 0.20589 0.34808 0.0
N1187 N 0.9813 0.23773 0.33915 0.0
N1188 N 0.94165 0.1982 0.3728 0.0
C1189 C 0.94291 0.22194 0.37428 0.0
C1190 C 0.96456 0.24347 0.35624 0.0
C1191 C 0.06095 0.4166 0.30958 0.0
C1192 C 0.03687 0.3922 0.30923 0.0
C1193 C 0.06286 0.43959 0.29529 0.0
C1194 C 0.04065 0.43899 0.28093 0.0
H1195 H 0.07872 0.41749 0.31851 0.0
H1196 H 0.08209 0.4573 0.29284 0.0
S1197 S 0.97246 0.38139 0.27961 0.0
N1198 N 0.98992 0.36984 0.29747 0.0
N1199 N 0.99352 0.41296 0.27137 0.0
C1200 C 0.01619 0.41538 0.28363 0.0
C1201 C 0.0143 0.39199 0.29752 0.0
C1202 C 0.63756 0.63513 0.26984 0.0
C1203 C 0.63281 0.64844 0.29802 0.0
C1204 C 0.61715 0.61138 0.25476 0.0
C1205 C 0.5912 0.60008 0.26715 0.0
H1206 H 0.65705 0.64337 0.25872 0.0
H1207 H 0.62151 0.60227 0.23218 0.0
S1208 S 0.56859 0.62564 0.34228 0.0
N1209 N 0.6004 0.64734 0.33969 0.0
N1210 N 0.56202 0.60289 0.31044 0.0
C1211 C 0.58633 0.61235 0.29642 0.0
C1212 C 0.60714 0.63655 0.312 0.0
C1213 C 0.3595 0.94293 0.30012 0.0
C1214 C 0.35869 0.96646 0.30145 0.0
C1215 C 0.38139 0.94266 0.2858 0.0
C1216 C 0.40336 0.96601 0.273 0.0
H1217 H 0.34251 0.92434 0.30809 0.0
H1218 H 0.38032 0.92379 0.28231 0.0
S1219 S 0.4129 0.03348 0.27653 0.0
N1220 N 0.38321 0.0142 0.29295 0.0
N1221 N 0.42418 0.01368 0.26683 0.0
C1222 C 0.40361 0.98994 0.27722 0.0
C1223 C 0.38132 0.99017 0.29115 0.0
C1224 C 0.57621 0.93667 0.31105 0.0
C1225 C 0.59909 0.96087 0.32059 0.0
C1226 C 0.55478 0.9363 0.29409 0.0
C1227 C 0.55549 0.96008 0.28678 0.0
H1228 H 0.5757 0.91812 0.314 0.0
H1229 H 0.53856 0.91751 0.28402 0.0
S1230 S 0.60893 0.02815 0.31206 0.0
N1231 N 0.61971 0.00884 0.32556 0.0
N1232 N 0.57951 0.00803 0.29435 0.0
C1233 C 0.57723 0.98408 0.29931 0.0
C1234 C 0.59902 0.98451 0.31602 0.0
C1235 C 1.00729 0.61363 0.29403 0.0
C1236 C 0.02941 0.63126 0.31508 0.0
C1237 C 1.00534 0.59112 0.27719 0.0
C1238 C 0.02583 0.58582 0.27981 0.0
H1239 H 0.99173 0.6177 0.28953 0.0
H1240 H 0.98848 0.57879 0.25988 0.0
S1241 S 0.08651 0.6242 0.33559 0.0
N1242 N 0.07054 0.64 0.34167 0.0
N1243 N 0.06788 0.5989 0.30802 0.0
C1244 C 0.04713 0.60223 0.30306 0.0
C1245 C 0.04873 0.62474 0.32104 0.0
C1246 C 0.39634 0.40381 0.31445 0.0
C1247 C 0.37483 0.40708 0.32029 0.0
C1248 C 0.41964 0.42402 0.29943 0.0
C1249 C 0.42204 0.44801 0.28883 0.0
H1250 H 0.39472 0.385 0.32001 0.0
H1251 H 0.43503 0.41994 0.29305 0.0
S1252 S 0.3721 0.46712 0.30063 0.0
N1253 N 0.35821 0.43701 0.31739 0.0
N1254 N 0.40156 0.47449 0.28702 0.0
C1255 C 0.40125 0.45212 0.29636 0.0
C1256 C 0.37772 0.43176 0.31266 0.0
C1257 C 0.33334 0.28718 0.37579 0.0
C1258 C 0.30978 0.28499 0.36416 0.0
C1259 C 0.33392 0.26497 0.38761 0.0
C1260 C 0.3109 0.23981 0.38877 0.0
H1261 H 0.35135 0.3064 0.37694 0.0
H1262 H 0.35215 0.26787 0.39847 0.0
S1263 S 0.24443 0.2231 0.35977 0.0
N1264 N 0.26314 0.25524 0.35238 0.0
N1265 N 0.26414 0.2137 0.3761 0.0
C1266 C 0.28745 0.23707 0.37574 0.0
C1267 C 0.28693 0.25962 0.36299 0.0
C1268 C 0.72609 0.02347 0.41642 0.0
C1269 C 0.71949 0.02746 0.38183 0.0
C1270 C 0.74831 0.0435 0.43454 0.0
C1271 C 0.76436 0.06881 0.41945 0.0
H1272 H 0.71416 0.00458 0.42945 0.0
H1273 H 0.75279 0.03909 0.46095 0.0
S1274 S 0.75536 0.08872 0.32859 0.0
N1275 N 0.73096 0.05761 0.33186 0.0
N1276 N 0.77214 0.09619 0.36701 0.0
C1277 C 0.75818 0.07283 0.38436 0.0
C1278 C 0.7358 0.05196 0.36538 0.0
C1279 C 0.98527 0.72768 0.37737 0.0
C1280 C 0.98304 0.70296 0.37071 0.0
C1281 C 0.96428 0.72915 0.39229 0.0
C1282 C 0.94022 0.70596 0.39973 0.0
H1283 H 1.00386 0.7459 0.37341 0.0
H1284 H 0.96734 0.74843 0.40001 0.0
S1285 S 0.92355 0.63664 0.38296 0.0
N1286 N 0.95435 0.65496 0.36986 0.0
N1287 N 0.91477 0.6578 0.39676 0.0
C1288 C 0.93721 0.68127 0.39057 0.0
C1289 C 0.95868 0.67975 0.37633 0.0
C1290 C 0.43878 0.07293 0.7092 0.0
C1291 C 0.41677 0.04971 0.6951 0.0
C1292 C 0.45869 0.0717 0.72792 0.0
C1293 C 0.45756 0.04738 0.73196 0.0
H1294 H 0.43963 0.09175 0.70817 0.0
H1295 H 0.47418 0.08954 0.74122 0.0
S1296 S 0.40547 0.98159 0.69636 0.0
N1297 N 0.39595 1.00219 0.68403 0.0
N1298 N 0.43371 1.00005 0.71802 0.0
C1299 C 0.43666 0.02447 0.71549 0.0
C1300 C 0.41614 0.0256 0.69736 0.0
C1301 C 0.9592 0.37112 0.69855 0.0
C1302 C 0.98125 0.36818 0.69855 0.0
C1303 C 0.96082 0.39427 0.71303 0.0
C1304 C 0.98474 0.41541 0.72668 0.0
H1305 H 0.94029 0.35486 0.68933 0.0
H1306 H 0.94306 0.395 0.71551 0.0
S1307 S 0.04867 0.41879 0.72877 0.0
N1308 N 0.02802 0.3892 0.71081 0.0
N1309 N 0.03118 0.43282 0.73672 0.0
C1310 C 1.0072 0.41337 0.72431 0.0
C1311 C 1.00544 0.38971 0.7106 0.0
C1312 C 0.6358 0.58125 0.69304 0.0
C1313 C 0.63789 0.60623 0.69425 0.0
C1314 C 0.61461 0.55907 0.70938 0.0
C1315 C 0.59463 0.56113 0.72669 0.0
H1316 H 0.65148 0.57922 0.68166 0.0
H1317 H 0.61499 0.5409 0.711 0.0
S1318 S 0.58835 0.62067 0.73046 0.0
N1319 N 0.61647 0.63074 0.70968 0.0
N1320 N 0.5763 0.589 0.73905 0.0
C1321 C 0.59523 0.5853 0.72456 0.0
C1322 C 0.61701 0.60792 0.70883 0.0
C1323 C 0.68234 0.72808 0.63504 0.0
C1324 C 0.70567 0.72924 0.64514 0.0
C1325 C 0.68267 0.75027 0.62123 0.0
C1326 C 0.70643 0.77442 0.6161 0.0
H1327 H 0.6637 0.70953 0.63642 0.0
H1328 H 0.66435 0.74789 0.61169 0.0
S1329 S 0.77275 0.78856 0.6415 0.0
N1330 N 0.75297 0.75725 0.65257 0.0
N1331 N 0.75371 0.79874 0.62504 0.0
C1332 C 0.72973 0.77644 0.62854 0.0
C1333 C 0.72933 0.75387 0.64333 0.0
C1334 C 0.30335 0.97139 0.59986 0.0
C1335 C 0.30012 0.98551 0.62846 0.0
C1336 C 0.28191 0.94815 0.58532 0.0
C1337 C 0.25637 0.93816 0.59869 0.0
H1338 H 0.32249 0.97857 0.58806 0.0
H1339 H 0.28516 0.9384 0.56245 0.0
S1340 S 0.23746 0.96637 0.67497 0.0
N1341 N 0.26947 0.98669 0.67133 0.0
N1342 N 0.22915 0.94317 0.64318 0.0
C1343 C 0.25296 0.95129 0.62828 0.0
C1344 C 0.27483 0.97499 0.64328 0.0
C1345 C 0.05454 0.32643 0.62148 0.0
C1346 C 0.03487 0.30389 0.63912 0.0
C1347 C 0.07559 0.32634 0.6045 0.0
C1348 C 0.07774 0.30359 0.60403 0.0
H1349 H 0.05318 0.34403 0.61954 0.0
H1350 H 0.08942 0.34367 0.58956 0.0
S1351 S 0.03271 0.24014 0.64899 0.0
N1352 N 0.02013 0.25895 0.65785 0.0
N1353 N 0.05934 0.25852 0.62496 0.0
C1354 C 0.0592 0.28151 0.62363 0.0
C1355 C 0.03782 0.2817 0.64134 0.0
C1356 C 0.24794 0.27287 0.63999 0.0
C1357 C 0.27086 0.29704 0.6495 0.0
C1358 C 0.22672 0.27255 0.62251 0.0
C1359 C 0.2277 0.29637 0.61457 0.0
H1360 H 0.24723 0.25426 0.64342 0.0
H1361 H 0.21043 0.25374 0.61263 0.0
S1362 S 0.28136 0.36446 0.63929 0.0
N1363 N 0.29182 0.34508 0.65363 0.0
N1364 N 0.25201 0.34437 0.62136 0.0
C1365 C 0.24949 0.32039 0.62692 0.0
C1366 C 0.27107 0.32076 0.64423 0.0
C1367 C 0.67495 0.94824 0.62761 0.0
C1368 C 0.69674 0.96617 0.64896 0.0
C1369 C 0.67419 0.92668 0.60957 0.0
C1370 C 0.69553 0.92264 0.61133 0.0
H1371 H 0.65868 0.95134 0.62387 0.0
H1372 H 0.65747 0.91406 0.59217 0.0
S1373 S 0.7562 0.96258 0.66653 0.0
N1374 N 0.73887 0.9768 0.67415 0.0
N1375 N 0.73826 0.93736 0.63846 0.0
C1376 C 0.71667 0.93941 0.63457 0.0
C1377 C 0.71712 0.961 0.6537 0.0
C1378 C 0.03859 0.76293 0.64122 0.0
C1379 C 0.03839 0.74003 0.65204 0.0
C1380 C 0.06082 0.78381 0.62449 0.0
C1381 C 0.08371 0.78274 0.61936 0.0
H1382 H 0.02093 0.76388 0.64334 0.0
H1383 H 0.05956 0.80008 0.61358 0.0
S1384 S 0.09376 0.72827 0.64635 0.0
N1385 N 0.06336 0.71826 0.65859 0.0
N1386 N 0.10529 0.75779 0.62862 0.0
C1387 C 0.08423 0.76079 0.63255 0.0
C1388 C 0.06151 0.73933 0.64851 0.0
C1389 C 0.99946 0.62109 0.71657 0.0
C1390 C 0.97622 0.61819 0.70215 0.0
C1391 C 1.0002 0.59922 0.72951 0.0
C1392 C 0.97766 0.57364 0.72888 0.0
H1393 H 0.01708 0.64057 0.7189 0.0
H1394 H 0.01811 0.60262 0.74221 0.0
S1395 S 0.91218 0.55502 0.69286 0.0
N1396 N 0.93042 0.58732 0.68633 0.0
N1397 N 0.93172 0.54638 0.71188 0.0
C1398 C 0.95459 0.5702 0.71333 0.0
C1399 C 0.9539 0.59244 0.69957 0.0
C1400 C 0.40768 0.38465 0.69704 0.0
C1401 C 0.3921 0.35936 0.71201 0.0
C1402 C 0.43004 0.40483 0.71561 0.0
C1403 C 0.43764 0.39997 0.74921 0.0
H1404 H 0.40203 0.3891 0.67151 0.0
H1405 H 0.44085 0.42446 0.70427 0.0
S1406 S 0.40569 0.3354 0.79626 0.0
N1407 N 0.3869 0.32989 0.76043 0.0
N1408 N 0.42976 0.36666 0.79382 0.0
C1409 C 0.42311 0.37403 0.76286 0.0
C1410 C 0.40006 0.35402 0.74469 0.0
C1411 C 0.62347 0.01321 0.71536 0.0
C1412 C 0.64745 0.03628 0.70743 0.0
C1413 C 0.60278 0.01479 0.73078 0.0
C1414 C 0.6056 0.03949 0.73945 0.0
H1415 H 0.62102 0.99379 0.71088 0.0
H1416 H 0.58517 0.99658 0.73838 0.0
S1417 S 0.66377 0.10571 0.7223 0.0
N1418 N 0.67218 0.08455 0.70701 0.0
N1419 N 0.63353 0.08745 0.73756 0.0
C1420 C 0.62898 0.06269 0.73018 0.0
C1421 C 0.64987 0.0611 0.71368 0.0
loop_
_geom_bond_atom_site_label_1
_geom_bond_atom_site_label_2
_geom_bond_distance
_geom_bond_site_symmetry_2
_ccdc_geom_bond_type
Co0 O1 2.216 . S
Co0 O2 2.091 . S
Co0 O4 2.004 1_554 S
Co0 O10 2.021 . S
Co0 O12 2.137 1_454 S
Co0 O13 2.244 1_455 S
O1 Co0 2.216 . S
O1 C8 1.247 . S
O2 Co0 2.091 . S
O2 C8 1.261 . S
C3 O12 1.247 . S
C3 O13 1.272 1_556 S
O4 Co0 2.004 1_556 S
O4 C9 1.259 1_455 S
Co5 O6 2.061 1_554 S
Co5 O11 2.052 . S
Co5 O13 2.135 . S
O6 Co5 2.061 1_556 S
O6 C9 1.235 . S
C7 O10 1.238 1_655 S
C7 O11 1.241 . S
C8 O1 1.247 . S
C8 O2 1.261 . S
C9 O4 1.259 1_655 S
C9 O6 1.235 . S
O10 Co0 2.021 . S
O10 C7 1.238 1_455 S
O11 Co5 2.052 . S
O11 C7 1.241 . S
O12 Co0 2.137 1_656 S
O12 C3 1.247 . S
O13 Co0 2.244 1_655 S
O13 C3 1.272 1_554 S
O13 Co5 2.135 . S
Co14 O15 2.216 1_554 S
Co14 O16 2.091 . S
Co14 O18 2.004 . S
Co14 O24 2.021 1_554 S
Co14 O26 2.137 . S
Co14 O27 2.244 . S
O15 Co14 2.216 1_556 S
O15 C22 1.247 . S
O16 Co14 2.091 . S
O16 C22 1.261 1_554 S
C17 O26 1.247 . S
C17 O27 1.272 . S
O18 Co14 2.004 . S
O18 C23 1.259 . S
Co19 O20 2.061 . S
Co19 O25 2.052 1_554 S
Co19 O27 2.135 . S
O20 Co19 2.061 . S
O20 C23 1.235 . S
C21 O24 1.238 . S
C21 O25 1.241 . S
C22 O15 1.247 . S
C22 O16 1.261 1_556 S
C23 O18 1.259 . S
C23 O20 1.235 . S
O24 Co14 2.021 1_556 S
O24 C21 1.238 . S
O25 Co19 2.052 1_556 S
O25 C21 1.241 . S
O26 Co14 2.137 . S
O26 C17 1.247 . S
O27 Co14 2.244 . S
O27 C17 1.272 . S
O27 Co19 2.135 . S
Co28 O29 2.216 1_554 S
Co28 O30 2.091 . S
Co28 O32 2.004 . S
Co28 O38 2.021 1_554 S
Co28 O40 2.137 1_545 S
Co28 O41 2.244 1_545 S
O29 Co28 2.216 1_556 S
O29 C36 1.247 . S
O30 Co28 2.091 . S
O30 C36 1.261 1_554 S
C31 O40 1.247 . S
C31 O41 1.272 . S
O32 Co28 2.004 . S
O32 C37 1.291 . S
Co33 O34 2.061 . S
Co33 O39 2.052 1_554 S
Co33 O41 2.135 . S
O34 Co33 2.061 . S
O34 C37 1.205 1_565 S
C35 O38 1.238 1_565 S
C35 O39 1.241 . S
C36 O29 1.247 . S
C36 O30 1.261 1_556 S
C37 O32 1.291 . S
C37 O34 1.205 1_545 S
O38 Co28 2.021 1_556 S
O38 C35 1.238 1_545 S
O39 Co33 2.052 1_556 S
O39 C35 1.241 . S
O40 Co28 2.137 1_565 S
O40 C31 1.247 . S
O41 Co28 2.244 1_565 S
O41 C31 1.272 . S
O41 Co33 2.135 . S
Co42 O43 2.216 1_554 S
Co42 O44 2.091 . S
Co42 O46 2.004 . S
Co42 O52 2.021 1_554 S
Co42 O54 2.137 1_655 S
Co42 O55 2.244 1_655 S
O43 Co42 2.216 1_556 S
O43 C50 1.247 . S
O44 Co42 2.091 . S
O44 C50 1.261 1_554 S
C45 O54 1.247 . S
C45 O55 1.272 . S
O46 Co42 2.004 . S
O46 C51 1.259 1_655 S
Co47 O48 2.061 . S
Co47 O53 2.052 1_554 S
Co47 O55 2.135 . S
O48 Co47 2.061 . S
O48 C51 1.235 . S
C49 O52 1.238 1_455 S
C49 O53 1.241 . S
C50 O43 1.247 . S
C50 O44 1.261 1_556 S
C51 O46 1.259 1_455 S
C51 O48 1.235 . S
O52 Co42 2.021 1_556 S
O52 C49 1.238 1_655 S
O53 Co47 2.052 1_556 S
O53 C49 1.241 . S
O54 Co42 2.137 1_455 S
O54 C45 1.247 . S
O55 Co42 2.244 1_455 S
O55 C45 1.272 . S
O55 Co47 2.135 . S
Co56 O57 2.216 . S
Co56 O58 2.091 . S
Co56 O60 2.004 1_554 S
Co56 O66 2.021 . S
Co56 O68 2.137 1_554 S
Co56 O69 2.243 1_554 S
O57 Co56 2.216 . S
O57 C64 1.247 . S
O58 Co56 2.091 . S
O58 C64 1.261 . S
C59 O68 1.247 . S
C59 O69 1.278 . S
O60 Co56 2.004 1_556 S
O60 C65 1.259 . S
Co61 O62 2.057 1_554 S
Co61 O67 2.058 . S
Co61 O69 2.135 1_554 S
O62 Co61 2.057 1_556 S
O62 C65 1.235 . S
C63 O66 1.238 . S
C63 O67 1.241 . S
C64 O57 1.247 . S
C64 O58 1.261 . S
C65 O60 1.259 . S
C65 O62 1.235 . S
O66 Co56 2.021 . S
O66 C63 1.238 . S
O67 Co61 2.058 . S
O67 C63 1.241 . S
O68 Co56 2.137 1_556 S
O68 C59 1.247 . S
O69 Co56 2.243 1_556 S
O69 C59 1.278 . S
O69 Co61 2.135 1_556 S
Co70 O71 2.216 . S
Co70 O72 2.091 . S
Co70 O74 2.004 1_554 S
Co70 O80 2.021 . S
Co70 O82 2.137 1_564 S
Co70 O83 2.244 1_565 S
O71 Co70 2.216 . S
O71 C78 1.247 . S
O72 Co70 2.091 . S
O72 C78 1.261 . S
C73 O82 1.247 . S
C73 O83 1.272 1_556 S
O74 Co70 2.004 1_556 S
O74 C79 1.259 1_565 S
Co75 O76 2.061 1_554 S
Co75 O81 2.052 . S
Co75 O83 2.135 . S
O76 Co75 2.061 1_556 S
O76 C79 1.235 . S
C77 O80 1.238 1_545 S
C77 O81 1.241 . S
C78 O71 1.247 . S
C78 O72 1.261 . S
C79 O74 1.259 1_545 S
C79 O76 1.235 . S
O80 Co70 2.021 . S
O80 C77 1.238 1_565 S
O81 Co75 2.052 . S
O81 C77 1.241 . S
O82 Co70 2.137 1_546 S
O82 C73 1.247 . S
O83 Co70 2.244 1_545 S
O83 C73 1.272 1_554 S
O83 Co75 2.135 . S
Co84 O85 2.216 . S
Co84 O86 2.091 . S
Co84 O88 2.004 . S
Co84 O94 2.021 . S
Co84 O96 2.137 . S
Co84 O97 2.244 . S
O85 Co84 2.216 . S
O85 C92 1.247 . S
O86 Co84 2.091 . S
O86 C92 1.261 . S
C87 O96 1.247 . S
C87 O97 1.272 . S
O88 Co84 2.004 . S
O88 C93 1.259 . S
Co89 O90 2.061 . S
Co89 O95 2.052 . S
Co89 O97 2.135 . S
O90 Co89 2.061 . S
O90 C93 1.235 . S
C91 O94 1.238 . S
C91 O95 1.241 . S
C92 O85 1.247 . S
C92 O86 1.261 . S
C93 O88 1.259 . S
C93 O90 1.235 . S
O94 Co84 2.021 . S
O94 C91 1.238 . S
O95 Co89 2.052 . S
O95 C91 1.241 . S
O96 Co84 2.137 . S
O96 C87 1.247 . S
O97 Co84 2.244 . S
O97 C87 1.272 . S
O97 Co89 2.135 . S
Co98 O99 2.216 1_565 S
Co98 O100 2.091 . S
Co98 O102 2.004 . S
Co98 O108 2.021 . S
Co98 O110 2.137 1_565 S
Co98 O111 2.244 1_565 S
O99 Co98 2.216 1_545 S
O99 C106 1.247 1_545 S
O100 Co98 2.091 . S
O100 C106 1.261 . S
C101 O110 1.247 . S
C101 O111 1.272 . S
O102 Co98 2.004 . S
O102 C107 1.259 . S
Co103 O104 2.061 . S
Co103 O109 2.052 . S
Co103 O111 2.135 1_565 S
O104 Co103 2.061 . S
O104 C107 1.235 . S
C105 O108 1.238 . S
C105 O109 1.241 . S
C106 O99 1.247 1_565 S
C106 O100 1.261 . S
C107 O102 1.259 . S
C107 O104 1.235 . S
O108 Co98 2.021 . S
O108 C105 1.238 . S
O109 Co103 2.052 . S
O109 C105 1.241 . S
O110 Co98 2.137 1_545 S
O110 C101 1.247 . S
O111 Co98 2.244 1_545 S
O111 C101 1.272 . S
O111 Co103 2.135 1_545 S
Co112 O113 2.216 1_455 S
Co112 O114 2.091 . S
Co112 O116 2.004 . S
Co112 O122 2.021 . S
Co112 O124 2.137 1_455 S
Co112 O125 2.244 1_455 S
O113 Co112 2.216 1_655 S
O113 C120 1.247 1_655 S
O114 Co112 2.091 . S
O114 C120 1.261 . S
C115 O124 1.247 . S
C115 O125 1.272 . S
O116 Co112 2.004 . S
O116 C121 1.259 . S
Co117 O118 2.061 . S
Co117 O123 2.052 . S
Co117 O125 2.135 1_455 S
O118 Co117 2.061 . S
O118 C121 1.235 . S
C119 O122 1.238 . S
C119 O123 1.241 . S
C120 O113 1.247 1_455 S
C120 O114 1.261 . S
C121 O116 1.259 . S
C121 O118 1.235 . S
O122 Co112 2.021 . S
O122 C119 1.238 . S
O123 Co117 2.052 . S
O123 C119 1.241 . S
O124 Co112 2.137 1_655 S
O124 C115 1.247 . S
O125 Co112 2.244 1_655 S
O125 C115 1.272 . S
O125 Co117 2.135 1_655 S
Co126 O127 2.216 1_565 S
Co126 O128 2.091 . S
Co126 O130 2.004 . S
Co126 O136 2.021 . S
Co126 O138 2.137 1_565 S
Co126 O139 2.244 1_565 S
O127 Co126 2.216 1_545 S
O127 C134 1.247 1_545 S
O128 Co126 2.091 . S
O128 C134 1.261 . S
C129 O138 1.247 . S
C129 O139 1.272 . S
O130 Co126 2.004 . S
O130 C135 1.259 . S
Co131 O132 2.061 . S
Co131 O137 2.052 . S
Co131 O139 2.135 1_565 S
O132 Co131 2.061 . S
O132 C135 1.235 . S
C133 O136 1.238 . S
C133 O137 1.241 . S
C134 O127 1.247 1_565 S
C134 O128 1.261 . S
C135 O130 1.259 . S
C135 O132 1.235 . S
O136 Co126 2.021 . S
O136 C133 1.238 . S
O137 Co131 2.052 . S
O137 C133 1.241 . S
O138 Co126 2.137 1_545 S
O138 C129 1.247 . S
O139 Co126 2.244 1_545 S
O139 C129 1.272 . S
O139 Co131 2.135 1_545 S
Co140 O141 2.216 1_455 S
Co140 O142 2.091 1_455 S
Co140 O144 2.004 . S
Co140 O150 2.021 . S
Co140 O152 2.137 1_455 S
Co140 O153 2.244 . S
O141 Co140 2.216 1_655 S
O141 C148 1.247 . S
O142 Co140 2.091 1_655 S
O142 C148 1.261 . S
C143 O152 1.247 1_455 S
C143 O153 1.272 . S
O144 Co140 2.004 . S
O144 C149 1.259 . S
Co145 O146 2.061 . S
Co145 O151 2.052 . S
Co145 O153 2.135 . S
O146 Co145 2.061 . S
O146 C149 1.235 . S
C147 O150 1.238 . S
C147 O151 1.241 . S
C148 O141 1.247 . S
C148 O142 1.261 . S
C149 O144 1.259 . S
C149 O146 1.235 . S
O150 Co140 2.021 . S
O150 C147 1.238 . S
O151 Co145 2.052 . S
O151 C147 1.241 . S
O152 Co140 2.137 1_655 S
O152 C143 1.247 1_655 S
O153 Co140 2.244 . S
O153 C143 1.272 . S
O153 Co145 2.135 . S
Co154 O155 2.216 . S
Co154 O156 2.091 . S
Co154 O158 2.004 . S
Co154 O164 2.021 . S
Co154 O166 2.137 . S
Co154 O167 2.244 . S
O155 Co154 2.216 . S
O155 C162 1.247 . S
O156 Co154 2.091 . S
O156 C162 1.261 . S
C157 O166 1.247 . S
C157 O167 1.272 . S
O158 Co154 2.004 . S
O158 C163 1.259 . S
Co159 O160 2.061 . S
Co159 O165 2.052 . S
Co159 O167 2.135 . S
O160 Co159 2.061 . S
O160 C163 1.235 . S
C161 O164 1.238 . S
C161 O165 1.241 . S
C162 O155 1.247 . S
C162 O156 1.261 . S
C163 O158 1.259 . S
C163 O160 1.235 . S
O164 Co154 2.021 . S
O164 C161 1.238 . S
O165 Co159 2.052 . S
O165 C161 1.241 . S
O166 Co154 2.137 . S
O166 C157 1.247 . S
O167 Co154 2.244 . S
O167 C157 1.272 . S
O167 Co159 2.135 . S
Co168 O169 2.216 1_545 S
Co168 O170 2.091 . S
Co168 O172 2.004 . S
Co168 O178 2.021 . S
Co168 O180 2.137 1_545 S
Co168 O181 2.244 1_545 S
O169 Co168 2.216 1_565 S
O169 C176 1.247 1_565 S
O170 Co168 2.091 . S
O170 C176 1.261 . S
C171 O180 1.247 . S
C171 O181 1.272 . S
O172 Co168 2.004 . S
O172 C177 1.259 . S
Co173 O174 2.061 . S
Co173 O179 2.052 . S
Co173 O181 2.135 1_545 S
O174 Co173 2.061 . S
O174 C177 1.235 . S
C175 O178 1.238 . S
C175 O179 1.241 . S
C176 O169 1.247 1_545 S
C176 O170 1.261 . S
C177 O172 1.259 . S
C177 O174 1.235 . S
O178 Co168 2.021 . S
O178 C175 1.238 . S
O179 Co173 2.052 . S
O179 C175 1.241 . S
O180 Co168 2.137 1_565 S
O180 C171 1.247 . S
O181 Co168 2.244 1_565 S
O181 C171 1.272 . S
O181 Co173 2.135 1_565 S
Co182 O183 2.216 1_655 S
Co182 O184 2.091 1_655 S
Co182 O186 2.004 . S
Co182 O192 2.021 . S
Co182 O194 2.137 1_655 S
Co182 O195 2.244 . S
O183 Co182 2.216 1_455 S
O183 C190 1.247 . S
O184 Co182 2.091 1_455 S
O184 C190 1.261 . S
C185 O194 1.247 1_655 S
C185 O195 1.272 . S
O186 Co182 2.004 . S
O186 C191 1.259 . S
Co187 O188 2.061 . S
Co187 O193 2.052 . S
Co187 O195 2.135 . S
O188 Co187 2.061 . S
O188 C191 1.235 . S
C189 O192 1.238 . S
C189 O193 1.241 . S
C190 O183 1.247 . S
C190 O184 1.261 . S
C191 O186 1.259 . S
C191 O188 1.235 . S
O192 Co182 2.021 . S
O192 C189 1.238 . S
O193 Co187 2.052 . S
O193 C189 1.241 . S
O194 Co182 2.137 1_455 S
O194 C185 1.247 1_455 S
O195 Co182 2.244 . S
O195 C185 1.272 . S
O195 Co187 2.135 . S
Co196 O197 2.216 . S
Co196 O198 2.091 . S
Co196 O200 2.004 . S
Co196 O206 2.021 . S
Co196 O208 2.137 . S
Co196 O209 2.244 . S
O197 Co196 2.216 . S
O197 C204 1.247 . S
O198 Co196 2.091 . S
O198 C204 1.261 . S
C199 O208 1.247 . S
C199 O209 1.272 . S
O200 Co196 2.004 . S
O200 C205 1.259 . S
Co201 O202 2.061 . S
Co201 O207 2.052 . S
Co201 O209 2.135 . S
O202 Co201 2.061 . S
O202 C205 1.235 . S
C203 O206 1.238 . S
C203 O207 1.241 . S
C204 O197 1.247 . S
C204 O198 1.261 . S
C205 O200 1.259 . S
C205 O202 1.235 . S
O206 Co196 2.021 . S
O206 C203 1.238 . S
O207 Co201 2.052 . S
O207 C203 1.241 . S
O208 Co196 2.137 . S
O208 C199 1.247 . S
O209 Co196 2.244 . S
O209 C199 1.272 . S
O209 Co201 2.135 . S
Co210 O211 2.216 . S
Co210 O212 2.091 . S
Co210 O214 2.004 . S
Co210 O220 2.021 . S
Co210 O222 2.137 . S
Co210 O223 2.244 . S
O211 Co210 2.216 . S
O211 C218 1.247 . S
O212 Co210 2.091 . S
O212 C218 1.261 . S
C213 O222 1.247 . S
C213 O223 1.272 . S
O214 Co210 2.004 . S
O214 C219 1.259 . S
Co215 O216 2.061 . S
Co215 O221 2.052 . S
Co215 O223 2.135 . S
O216 Co215 2.061 . S
O216 C219 1.235 . S
C217 O220 1.238 . S
C217 O221 1.241 . S
C218 O211 1.247 . S
C218 O212 1.261 . S
C219 O214 1.259 . S
C219 O216 1.235 . S
O220 Co210 2.021 . S
O220 C217 1.238 . S
O221 Co215 2.052 . S
O221 C217 1.241 . S
O222 Co210 2.137 . S
O222 C213 1.247 . S
O223 Co210 2.244 . S
O223 C213 1.272 . S
O223 Co215 2.135 . S
Co224 O225 2.216 1_545 S
Co224 O226 2.091 . S
Co224 O228 2.004 . S
Co224 O234 2.021 . S
Co224 O236 2.137 1_545 S
Co224 O237 2.244 1_545 S
O225 Co224 2.216 1_565 S
O225 C232 1.247 1_565 S
O226 Co224 2.091 . S
O226 C232 1.261 . S
C227 O236 1.247 . S
C227 O237 1.272 . S
O228 Co224 2.004 . S
O228 C233 1.259 . S
Co229 O230 2.061 . S
Co229 O235 2.052 . S
Co229 O237 2.135 1_545 S
O230 Co229 2.061 . S
O230 C233 1.235 . S
C231 O234 1.238 . S
C231 O235 1.241 . S
C232 O225 1.247 1_545 S
C232 O226 1.261 . S
C233 O228 1.259 . S
C233 O230 1.235 . S
O234 Co224 2.021 . S
O234 C231 1.238 . S
O235 Co229 2.052 . S
O235 C231 1.241 . S
O236 Co224 2.137 1_565 S
O236 C227 1.247 . S
O237 Co224 2.244 1_565 S
O237 C227 1.272 . S
O237 Co229 2.135 1_565 S
Co238 O239 2.216 1_655 S
Co238 O240 2.091 . S
Co238 O242 2.004 . S
Co238 O248 2.021 . S
Co238 O250 2.137 1_655 S
Co238 O251 2.244 1_655 S
O239 Co238 2.216 1_455 S
O239 C246 1.247 1_455 S
O240 Co238 2.091 . S
O240 C246 1.261 . S
C241 O250 1.247 . S
C241 O251 1.272 . S
O242 Co238 2.004 . S
O242 C247 1.259 . S
Co243 O244 2.061 . S
Co243 O249 2.052 . S
Co243 O251 2.135 1_655 S
O244 Co243 2.061 . S
O244 C247 1.235 . S
C245 O248 1.238 . S
C245 O249 1.241 . S
C246 O239 1.247 1_655 S
C246 O240 1.261 . S
C247 O242 1.259 . S
C247 O244 1.235 . S
O248 Co238 2.021 . S
O248 C245 1.238 . S
O249 Co243 2.052 . S
O249 C245 1.241 . S
O250 Co238 2.137 1_455 S
O250 C241 1.247 . S
O251 Co238 2.244 1_455 S
O251 C241 1.272 . S
O251 Co243 2.135 1_455 S
H252 C260 0.930 . S
H253 C263 0.930 . S
H254 C265 0.930 . S
H255 C266 0.970 . S
H256 C266 0.970 . S
H257 C268 0.930 . S
H258 C270 0.930 . S
H259 C272 0.930 . S
C260 H252 0.930 . S
C260 C261 1.382 . S
C260 C262 1.426 . S
C261 C260 1.382 . S
C261 C265 1.389 . S
C262 C260 1.426 . S
C262 C263 1.375 . S
C262 C266 1.532 . S
C263 H253 0.930 . S
C263 C262 1.375 . S
C263 C264 1.416 . S
C264 C263 1.416 . S
C264 C265 1.371 . S
C265 H254 0.930 . S
C265 C261 1.389 . S
C265 C264 1.371 . S
C266 H255 0.970 . S
C266 H256 0.970 . S
C266 C262 1.532 . S
C266 C267 1.499 . S
C267 C266 1.499 . S
C267 C268 1.370 . S
C267 C272 1.415 . S
C268 H257 0.930 . S
C268 C267 1.370 . S
C268 C269 1.407 . S
C269 C268 1.407 . S
C269 C270 1.365 . S
C270 H258 0.930 . S
C270 C269 1.365 . S
C270 C271 1.393 . S
C271 C270 1.393 . S
C271 C272 1.387 . S
C272 H259 0.930 . S
C272 C267 1.415 . S
C272 C271 1.387 . S
H273 C281 0.930 . S
H274 C284 0.930 . S
H275 C286 0.930 . S
H276 C287 0.970 . S
H277 C287 0.970 . S
H278 C289 0.930 . S
H279 C291 0.930 . S
H280 C293 0.930 . S
C281 H273 0.930 . S
C281 C282 1.382 . S
C281 C283 1.426 . S
C282 C281 1.382 . S
C282 C286 1.389 . S
C283 C281 1.426 . S
C283 C284 1.375 . S
C283 C287 1.532 . S
C284 H274 0.930 . S
C284 C283 1.375 . S
C284 C285 1.416 . S
C285 C284 1.416 . S
C285 C286 1.371 . S
C286 H275 0.930 . S
C286 C282 1.389 . S
C286 C285 1.371 . S
C287 H276 0.970 . S
C287 H277 0.970 . S
C287 C283 1.532 . S
C287 C288 1.499 . S
C288 C287 1.499 . S
C288 C289 1.370 . S
C288 C293 1.415 . S
C289 H278 0.930 . S
C289 C288 1.370 . S
C289 C290 1.407 . S
C290 C289 1.407 . S
C290 C291 1.365 . S
C291 H279 0.930 . S
C291 C290 1.365 . S
C291 C292 1.393 . S
C292 C291 1.393 . S
C292 C293 1.387 . S
C293 H280 0.930 . S
C293 C288 1.415 . S
C293 C292 1.387 . S
H294 C302 0.930 . S
H295 C305 0.930 . S
H296 C307 0.930 . S
H297 C308 0.970 . S
H298 C308 0.970 . S
H299 C310 0.930 . S
H300 C312 0.930 . S
H301 C314 0.930 . S
C302 H294 0.930 . S
C302 C303 1.382 . S
C302 C304 1.426 . S
C303 C302 1.382 . S
C303 C307 1.389 . S
C304 C302 1.426 . S
C304 C305 1.375 . S
C304 C308 1.532 . S
C305 H295 0.930 . S
C305 C304 1.375 . S
C305 C306 1.416 . S
C306 C305 1.416 . S
C306 C307 1.371 . S
C307 H296 0.930 . S
C307 C303 1.389 . S
C307 C306 1.371 . S
C308 H297 0.970 . S
C308 H298 0.970 . S
C308 C304 1.532 . S
C308 C309 1.499 . S
C309 C308 1.499 . S
C309 C310 1.370 . S
C309 C314 1.415 . S
C310 H299 0.930 . S
C310 C309 1.370 . S
C310 C311 1.407 . S
C311 C310 1.407 . S
C311 C312 1.365 . S
C312 H300 0.930 . S
C312 C311 1.365 . S
C312 C313 1.393 . S
C313 C312 1.393 . S
C313 C314 1.387 . S
C314 H301 0.930 . S
C314 C309 1.415 . S
C314 C313 1.387 . S
H315 C323 0.930 . S
H316 C326 0.930 . S
H317 C328 0.930 . S
H318 C329 0.970 . S
H319 C329 0.970 . S
H320 C331 0.930 . S
H321 C333 0.930 . S
H322 C335 0.930 . S
C323 H315 0.930 . S
C323 C324 1.382 . S
C323 C325 1.426 . S
C324 C323 1.382 . S
C324 C328 1.389 . S
C325 C323 1.426 . S
C325 C326 1.375 . S
C325 C329 1.532 . S
C326 H316 0.930 . S
C326 C325 1.375 . S
C326 C327 1.416 . S
C327 C326 1.416 . S
C327 C328 1.371 . S
C328 H317 0.930 . S
C328 C324 1.389 . S
C328 C327 1.371 . S
C329 H318 0.970 . S
C329 H319 0.970 . S
C329 C325 1.532 . S
C329 C330 1.499 . S
C330 C329 1.499 . S
C330 C331 1.370 . S
C330 C335 1.415 . S
C331 H320 0.930 . S
C331 C330 1.370 . S
C331 C332 1.407 . S
C332 C331 1.407 . S
C332 C333 1.365 . S
C333 H321 0.930 . S
C333 C332 1.365 . S
C333 C334 1.393 . S
C334 C333 1.393 . S
C334 C335 1.387 . S
C335 H322 0.930 . S
C335 C330 1.415 . S
C335 C334 1.387 . S
H336 C344 0.930 . S
H337 C347 0.930 . S
H338 C349 0.930 . S
H339 C350 0.970 . S
H340 C350 0.970 . S
H341 C352 0.930 . S
H342 C354 0.930 . S
H343 C356 0.930 . S
C344 H336 0.930 . S
C344 C345 1.382 . S
C344 C346 1.426 . S
C345 C344 1.382 . S
C345 C349 1.389 . S
C346 C344 1.426 . S
C346 C347 1.375 . S
C346 C350 1.532 . S
C347 H337 0.930 . S
C347 C346 1.375 . S
C347 C348 1.416 . S
C348 C347 1.416 . S
C348 C349 1.371 . S
C349 H338 0.930 . S
C349 C345 1.389 . S
C349 C348 1.371 . S
C350 H339 0.970 . S
C350 H340 0.970 . S
C350 C346 1.532 . S
C350 C351 1.499 . S
C351 C350 1.499 . S
C351 C352 1.370 . S
C351 C356 1.415 . S
C352 H341 0.930 . S
C352 C351 1.370 . S
C352 C353 1.407 . S
C353 C352 1.407 . S
C353 C354 1.365 . S
C354 H342 0.930 . S
C354 C353 1.365 . S
C354 C355 1.393 . S
C355 C354 1.393 . S
C355 C356 1.387 . S
C356 H343 0.930 . S
C356 C351 1.415 . S
C356 C355 1.387 . S
H357 C365 0.930 . S
H358 C368 0.930 . S
H359 C370 0.930 . S
H360 C371 0.970 . S
H361 C371 0.970 . S
H362 C373 0.930 . S
H363 C375 0.930 . S
H364 C377 0.930 . S
C365 H357 0.930 . S
C365 C366 1.382 . S
C365 C367 1.426 . S
C366 C365 1.382 . S
C366 C370 1.389 . S
C367 C365 1.426 . S
C367 C368 1.375 . S
C367 C371 1.532 . S
C368 H358 0.930 . S
C368 C367 1.375 . S
C368 C369 1.416 . S
C369 C368 1.416 . S
C369 C370 1.371 . S
C370 H359 0.930 . S
C370 C366 1.389 . S
C370 C369 1.371 . S
C371 H360 0.970 . S
C371 H361 0.970 . S
C371 C367 1.532 . S
C371 C372 1.499 . S
C372 C371 1.499 . S
C372 C373 1.370 . S
C372 C377 1.415 . S
C373 H362 0.930 . S
C373 C372 1.370 . S
C373 C374 1.407 . S
C374 C373 1.407 . S
C374 C375 1.365 . S
C375 H363 0.930 . S
C375 C374 1.365 . S
C375 C376 1.393 . S
C376 C375 1.393 . S
C376 C377 1.387 . S
C377 H364 0.930 . S
C377 C372 1.415 . S
C377 C376 1.387 . S
H378 C386 0.930 . S
H379 C389 0.930 . S
H380 C391 0.930 . S
H381 C392 0.970 . S
H382 C392 0.970 . S
H383 C394 0.930 . S
H384 C396 0.930 . S
H385 C398 0.930 . S
C386 H378 0.930 . S
C386 C387 1.382 . S
C386 C388 1.426 . S
C387 C386 1.382 . S
C387 C391 1.389 . S
C388 C386 1.426 . S
C388 C389 1.375 . S
C388 C392 1.532 . S
C389 H379 0.930 . S
C389 C388 1.375 . S
C389 C390 1.416 . S
C390 C389 1.416 . S
C390 C391 1.371 . S
C391 H380 0.930 . S
C391 C387 1.389 . S
C391 C390 1.371 . S
C392 H381 0.970 . S
C392 H382 0.970 . S
C392 C388 1.532 . S
C392 C393 1.499 . S
C393 C392 1.499 . S
C393 C394 1.370 . S
C393 C398 1.415 . S
C394 H383 0.930 . S
C394 C393 1.370 . S
C394 C395 1.407 . S
C395 C394 1.407 . S
C395 C396 1.365 . S
C396 H384 0.930 . S
C396 C395 1.365 . S
C396 C397 1.393 . S
C397 C396 1.393 . S
C397 C398 1.387 . S
C398 H385 0.930 . S
C398 C393 1.415 . S
C398 C397 1.387 . S
H399 C407 0.930 . S
H400 C410 0.930 . S
H401 C412 0.930 . S
H402 C413 0.970 . S
H403 C413 0.970 . S
H404 C415 0.930 . S
H405 C417 0.930 . S
H406 C419 0.930 . S
C407 H399 0.930 . S
C407 C408 1.382 . S
C407 C409 1.426 . S
C408 C407 1.382 . S
C408 C412 1.389 . S
C409 C407 1.426 . S
C409 C410 1.375 . S
C409 C413 1.532 . S
C410 H400 0.930 . S
C410 C409 1.375 . S
C410 C411 1.416 . S
C411 C410 1.416 . S
C411 C412 1.371 . S
C412 H401 0.930 . S
C412 C408 1.389 . S
C412 C411 1.371 . S
C413 H402 0.970 . S
C413 H403 0.970 . S
C413 C409 1.532 . S
C413 C414 1.499 . S
C414 C413 1.499 . S
C414 C415 1.370 . S
C414 C419 1.415 . S
C415 H404 0.930 . S
C415 C414 1.370 . S
C415 C416 1.407 . S
C416 C415 1.407 . S
C416 C417 1.365 . S
C417 H405 0.930 . S
C417 C416 1.365 . S
C417 C418 1.393 . S
C418 C417 1.393 . S
C418 C419 1.387 . S
C419 H406 0.930 . S
C419 C414 1.415 . S
C419 C418 1.387 . S
H420 C428 0.930 . S
H421 C431 0.930 . S
H422 C433 0.930 . S
H423 C434 0.970 . S
H424 C434 0.970 . S
H425 C436 0.930 . S
H426 C438 0.930 . S
H427 C440 0.930 . S
C428 H420 0.930 . S
C428 C429 1.382 . S
C428 C430 1.426 . S
C429 C428 1.382 . S
C429 C433 1.389 . S
C430 C428 1.426 . S
C430 C431 1.375 . S
C430 C434 1.532 . S
C431 H421 0.930 . S
C431 C430 1.375 . S
C431 C432 1.416 . S
C432 C431 1.416 . S
C432 C433 1.371 . S
C433 H422 0.930 . S
C433 C429 1.389 . S
C433 C432 1.371 . S
C434 H423 0.970 . S
C434 H424 0.970 . S
C434 C430 1.532 . S
C434 C435 1.499 . S
C435 C434 1.499 . S
C435 C436 1.370 . S
C435 C440 1.415 . S
C436 H425 0.930 . S
C436 C435 1.370 . S
C436 C437 1.407 . S
C437 C436 1.407 . S
C437 C438 1.365 . S
C438 H426 0.930 . S
C438 C437 1.365 . S
C438 C439 1.393 . S
C439 C438 1.393 . S
C439 C440 1.387 . S
C440 H427 0.930 . S
C440 C435 1.415 . S
C440 C439 1.387 . S
H441 C449 0.930 . S
H442 C452 0.930 . S
H443 C454 0.930 . S
H444 C455 0.970 . S
H445 C455 0.970 . S
H446 C457 0.930 . S
H447 C459 0.930 . S
H448 C461 0.930 . S
C449 H441 0.930 . S
C449 C450 1.382 . S
C449 C451 1.426 . S
C450 C449 1.382 . S
C450 C454 1.389 1_455 S
C451 C449 1.426 . S
C451 C452 1.375 . S
C451 C455 1.532 . S
C452 H442 0.930 . S
C452 C451 1.375 . S
C452 C453 1.416 . S
C453 C452 1.416 . S
C453 C454 1.371 1_455 S
C454 H443 0.930 . S
C454 C450 1.389 1_655 S
C454 C453 1.371 1_655 S
C455 H444 0.970 . S
C455 H445 0.970 . S
C455 C451 1.532 . S
C455 C456 1.499 . S
C456 C455 1.499 . S
C456 C457 1.370 . S
C456 C461 1.415 . S
C457 H446 0.930 . S
C457 C456 1.370 . S
C457 C458 1.407 . S
C458 C457 1.407 . S
C458 C459 1.365 1_455 S
C459 H447 0.930 . S
C459 C458 1.365 1_655 S
C459 C460 1.393 1_655 S
C460 C459 1.393 1_455 S
C460 C461 1.387 . S
C461 H448 0.930 . S
C461 C456 1.415 . S
C461 C460 1.387 . S
H462 C470 0.930 . S
H463 C473 0.930 . S
H464 C475 0.930 . S
H465 C476 0.970 . S
H466 C476 0.970 . S
H467 C478 0.930 . S
H468 C480 0.930 . S
H469 C482 0.930 . S
C470 H462 0.930 . S
C470 C471 1.382 . S
C470 C472 1.426 . S
C471 C470 1.382 . S
C471 C475 1.389 . S
C472 C470 1.426 . S
C472 C473 1.375 . S
C472 C476 1.532 . S
C473 H463 0.930 . S
C473 C472 1.375 . S
C473 C474 1.416 . S
C474 C473 1.416 . S
C474 C475 1.371 . S
C475 H464 0.930 . S
C475 C471 1.389 . S
C475 C474 1.371 . S
C476 H465 0.970 . S
C476 H466 0.970 . S
C476 C472 1.532 . S
C476 C477 1.499 . S
C477 C476 1.499 . S
C477 C478 1.370 . S
C477 C482 1.415 . S
C478 H467 0.930 . S
C478 C477 1.370 . S
C478 C479 1.407 . S
C479 C478 1.407 . S
C479 C480 1.365 . S
C480 H468 0.930 . S
C480 C479 1.365 . S
C480 C481 1.393 . S
C481 C480 1.393 . S
C481 C482 1.387 . S
C482 H469 0.930 . S
C482 C477 1.415 . S
C482 C481 1.387 . S
H483 C491 0.930 . S
H484 C494 0.930 . S
H485 C496 0.930 . S
H486 C497 0.970 . S
H487 C497 0.970 . S
H488 C499 0.930 . S
H489 C501 0.930 . S
H490 C503 0.930 . S
C491 H483 0.930 . S
C491 C492 1.382 . S
C491 C493 1.426 . S
C492 C491 1.382 . S
C492 C496 1.389 1_565 S
C493 C491 1.426 . S
C493 C494 1.375 . S
C493 C497 1.532 . S
C494 H484 0.930 . S
C494 C493 1.375 . S
C494 C495 1.416 . S
C495 C494 1.416 . S
C495 C496 1.371 1_565 S
C496 H485 0.930 . S
C496 C492 1.389 1_545 S
C496 C495 1.371 1_545 S
C497 H486 0.970 . S
C497 H487 0.970 . S
C497 C493 1.532 . S
C497 C498 1.499 . S
C498 C497 1.499 . S
C498 C499 1.370 . S
C498 C503 1.415 . S
C499 H488 0.930 . S
C499 C498 1.370 . S
C499 C500 1.439 . S
C500 C499 1.439 . S
C500 C501 1.353 1_565 S
C501 H489 0.930 . S
C501 C500 1.353 1_545 S
C501 C502 1.393 1_545 S
C502 C501 1.393 1_565 S
C502 C503 1.387 . S
C503 H490 0.930 . S
C503 C498 1.415 . S
C503 C502 1.387 . S
H504 C512 0.930 . S
H505 C515 0.930 . S
H506 C517 0.930 . S
H507 C518 0.970 . S
H508 C518 0.970 . S
H509 C520 0.930 . S
H510 C522 0.930 . S
H511 C524 0.930 . S
C512 H504 0.930 . S
C512 C513 1.382 . S
C512 C514 1.426 . S
C513 C512 1.382 . S
C513 C517 1.389 1_565 S
C514 C512 1.426 . S
C514 C515 1.375 . S
C514 C518 1.532 . S
C515 H505 0.930 . S
C515 C514 1.375 . S
C515 C516 1.416 . S
C516 C515 1.416 . S
C516 C517 1.371 1_565 S
C517 H506 0.930 . S
C517 C513 1.389 1_545 S
C517 C516 1.371 1_545 S
C518 H507 0.970 . S
C518 H508 0.970 . S
C518 C514 1.532 . S
C518 C519 1.499 . S
C519 C518 1.499 . S
C519 C520 1.370 . S
C519 C524 1.415 . S
C520 H509 0.930 . S
C520 C519 1.370 . S
C520 C521 1.407 . S
C521 C520 1.407 . S
C521 C522 1.365 1_565 S
C522 H510 0.930 . S
C522 C521 1.365 1_545 S
C522 C523 1.393 1_545 S
C523 C522 1.393 1_565 S
C523 C524 1.387 . S
C524 H511 0.930 . S
C524 C519 1.415 . S
C524 C523 1.387 . S
H525 C533 0.930 . S
H526 C536 0.930 . S
H527 C538 0.930 . S
H528 C539 0.970 . S
H529 C539 0.970 . S
H530 C541 0.930 . S
H531 C543 0.930 . S
H532 C545 0.930 . S
C533 H525 0.930 . S
C533 C534 1.382 . S
C533 C535 1.426 . S
C534 C533 1.382 . S
C534 C538 1.389 1_455 S
C535 C533 1.426 . S
C535 C536 1.375 . S
C535 C539 1.532 . S
C536 H526 0.930 . S
C536 C535 1.375 . S
C536 C537 1.416 . S
C537 C536 1.416 . S
C537 C538 1.371 1_455 S
C538 H527 0.930 . S
C538 C534 1.389 1_655 S
C538 C537 1.371 1_655 S
C539 H528 0.970 . S
C539 H529 0.970 . S
C539 C535 1.532 . S
C539 C540 1.499 . S
C540 C539 1.499 . S
C540 C541 1.370 . S
C540 C545 1.415 . S
C541 H530 0.930 . S
C541 C540 1.370 . S
C541 C542 1.407 . S
C542 C541 1.407 . S
C542 C543 1.365 1_455 S
C543 H531 0.930 . S
C543 C542 1.365 1_655 S
C543 C544 1.393 1_655 S
C544 C543 1.393 1_455 S
C544 C545 1.387 . S
C545 H532 0.930 . S
C545 C540 1.415 . S
C545 C544 1.387 . S
H546 C554 0.930 . S
H547 C557 0.930 . S
H548 C559 0.930 . S
H549 C560 0.970 . S
H550 C560 0.970 . S
H551 C562 0.930 . S
H552 C564 0.930 . S
H553 C566 0.930 . S
C554 H546 0.930 . S
C554 C555 1.382 . S
C554 C556 1.426 . S
C555 C554 1.382 . S
C555 C559 1.389 . S
C556 C554 1.426 . S
C556 C557 1.375 . S
C556 C560 1.532 . S
C557 H547 0.930 . S
C557 C556 1.375 . S
C557 C558 1.416 . S
C558 C557 1.416 . S
C558 C559 1.371 . S
C559 H548 0.930 . S
C559 C555 1.389 . S
C559 C558 1.371 . S
C560 H549 0.970 . S
C560 H550 0.970 . S
C560 C556 1.532 . S
C560 C561 1.499 . S
C561 C560 1.499 . S
C561 C562 1.370 . S
C561 C566 1.415 . S
C562 H551 0.930 . S
C562 C561 1.370 . S
C562 C563 1.407 . S
C563 C562 1.407 . S
C563 C564 1.365 . S
C564 H552 0.930 . S
C564 C563 1.365 . S
C564 C565 1.393 . S
C565 C564 1.393 . S
C565 C566 1.387 . S
C566 H553 0.930 . S
C566 C561 1.415 . S
C566 C565 1.387 . S
H567 C575 0.930 . S
H568 C578 0.930 . S
H569 C580 0.930 . S
H570 C581 0.970 . S
H571 C581 0.970 . S
H572 C583 0.930 . S
H573 C585 0.930 . S
H574 C587 0.930 . S
C575 H567 0.930 . S
C575 C576 1.382 . S
C575 C577 1.426 . S
C576 C575 1.382 . S
C576 C580 1.389 . S
C577 C575 1.426 . S
C577 C578 1.375 . S
C577 C581 1.532 . S
C578 H568 0.930 . S
C578 C577 1.375 . S
C578 C579 1.416 . S
C579 C578 1.416 . S
C579 C580 1.371 . S
C580 H569 0.930 . S
C580 C576 1.389 . S
C580 C579 1.371 . S
C581 H570 0.970 . S
C581 H571 0.970 . S
C581 C577 1.532 . S
C581 C582 1.499 . S
C582 C581 1.499 . S
C582 C583 1.370 . S
C582 C587 1.415 . S
C583 H572 0.930 . S
C583 C582 1.370 . S
C583 C584 1.407 . S
C584 C583 1.407 . S
C584 C585 1.365 . S
C585 H573 0.930 . S
C585 C584 1.365 . S
C585 C586 1.393 . S
C586 C585 1.393 . S
C586 C587 1.387 . S
C587 H574 0.930 . S
C587 C582 1.415 . S
C587 C586 1.387 . S
H588 C596 0.930 . S
H589 C599 0.930 . S
H590 C601 0.930 . S
H591 C602 0.970 . S
H592 C602 0.970 . S
H593 C604 0.930 . S
H594 C606 0.930 . S
H595 C608 0.930 . S
C596 H588 0.930 . S
C596 C597 1.382 . S
C596 C598 1.426 . S
C597 C596 1.382 . S
C597 C601 1.389 . S
C598 C596 1.426 . S
C598 C599 1.375 . S
C598 C602 1.532 . S
C599 H589 0.930 . S
C599 C598 1.375 . S
C599 C600 1.416 . S
C600 C599 1.416 . S
C600 C601 1.371 . S
C601 H590 0.930 . S
C601 C597 1.389 . S
C601 C600 1.371 . S
C602 H591 0.970 . S
C602 H592 0.970 . S
C602 C598 1.532 . S
C602 C603 1.499 . S
C603 C602 1.499 . S
C603 C604 1.370 . S
C603 C608 1.415 . S
C604 H593 0.930 . S
C604 C603 1.370 . S
C604 C605 1.407 . S
C605 C604 1.407 . S
C605 C606 1.365 . S
C606 H594 0.930 . S
C606 C605 1.365 . S
C606 C607 1.393 . S
C607 C606 1.393 . S
C607 C608 1.387 . S
C608 H595 0.930 . S
C608 C603 1.415 . S
C608 C607 1.387 . S
H609 C617 0.930 . S
H610 C620 0.930 . S
H611 C622 0.930 . S
H612 C623 0.970 . S
H613 C623 0.970 . S
H614 C625 0.930 . S
H615 C627 0.930 . S
H616 C629 0.930 . S
C617 H609 0.930 . S
C617 C618 1.382 . S
C617 C619 1.426 . S
C618 C617 1.382 . S
C618 C622 1.389 . S
C619 C617 1.426 . S
C619 C620 1.375 . S
C619 C623 1.532 . S
C620 H610 0.930 . S
C620 C619 1.375 . S
C620 C621 1.416 . S
C621 C620 1.416 . S
C621 C622 1.371 . S
C622 H611 0.930 . S
C622 C618 1.389 . S
C622 C621 1.371 . S
C623 H612 0.970 . S
C623 H613 0.970 . S
C623 C619 1.532 . S
C623 C624 1.499 . S
C624 C623 1.499 . S
C624 C625 1.370 . S
C624 C629 1.415 . S
C625 H614 0.930 . S
C625 C624 1.370 . S
C625 C626 1.407 . S
C626 C625 1.407 . S
C626 C627 1.365 . S
C627 H615 0.930 . S
C627 C626 1.365 . S
C627 C628 1.393 . S
C628 C627 1.393 . S
C628 C629 1.387 . S
C629 H616 0.930 . S
C629 C624 1.415 . S
C629 C628 1.387 . S
C630 C631 1.369 1_455 S
C630 C632 1.419 . S
C630 H634 0.930 . S
C631 C630 1.369 1_655 S
C631 C640 1.429 . S
C632 C630 1.419 . S
C632 C633 1.363 1_455 S
C632 H635 0.929 . S
C633 C632 1.363 1_655 S
C633 C639 1.428 . S
H634 C630 0.930 . S
H635 C632 0.929 . S
S636 N637 1.613 . S
S636 N638 1.610 . S
N637 S636 1.613 . S
N637 C640 1.350 . S
N638 S636 1.610 . S
N638 C639 1.351 . S
C639 C633 1.428 . S
C639 N638 1.351 . S
C639 C640 1.434 . S
C640 C631 1.429 . S
C640 N637 1.350 . S
C640 C639 1.434 . S
C641 C642 1.369 . S
C641 C643 1.419 . S
C641 H645 0.930 . S
C642 C641 1.369 . S
C642 C651 1.429 . S
C643 C641 1.419 . S
C643 C644 1.363 . S
C643 H646 0.929 . S
C644 C643 1.363 . S
C644 C650 1.428 . S
H645 C641 0.930 . S
H646 C643 0.929 . S
S647 N648 1.613 . S
S647 N649 1.610 . S
N648 S647 1.613 . S
N648 C651 1.350 . S
N649 S647 1.610 . S
N649 C650 1.351 . S
C650 C644 1.428 . S
C650 N649 1.351 . S
C650 C651 1.434 . S
C651 C642 1.429 . S
C651 N648 1.350 . S
C651 C650 1.434 . S
C652 C653 1.369 1_565 S
C652 C654 1.419 . S
C652 H656 0.930 . S
C653 C652 1.369 1_545 S
C653 C662 1.429 . S
C654 C652 1.419 . S
C654 C655 1.363 1_565 S
C654 H657 0.929 . S
C655 C654 1.363 1_545 S
C655 C661 1.428 . S
H656 C652 0.930 . S
H657 C654 0.929 . S
S658 N659 1.613 . S
S658 N660 1.610 . S
N659 S658 1.613 . S
N659 C662 1.350 . S
N660 S658 1.610 . S
N660 C661 1.351 . S
C661 C655 1.428 . S
C661 N660 1.351 . S
C661 C662 1.434 . S
C662 C653 1.429 . S
C662 N659 1.350 . S
C662 C661 1.434 . S
C663 C664 1.369 . S
C663 C665 1.419 . S
C663 H667 0.930 . S
C664 C663 1.369 . S
C664 C673 1.429 1_565 S
C665 C663 1.419 . S
C665 C666 1.363 . S
C665 H668 0.929 . S
C666 C665 1.363 . S
C666 C672 1.428 1_565 S
H667 C663 0.930 . S
H668 C665 0.929 . S
S669 N670 1.613 . S
S669 N671 1.610 . S
N670 S669 1.613 . S
N670 C673 1.350 . S
N671 S669 1.610 . S
N671 C672 1.351 . S
C672 C666 1.428 1_545 S
C672 N671 1.351 . S
C672 C673 1.434 . S
C673 C664 1.429 1_545 S
C673 N670 1.350 . S
C673 C672 1.434 . S
C674 C675 1.369 1_655 S
C674 C676 1.419 . S
C674 H678 0.930 . S
C675 C674 1.369 1_455 S
C675 C684 1.429 . S
C676 C674 1.419 . S
C676 C677 1.363 1_655 S
C676 H679 0.929 . S
C677 C676 1.363 1_455 S
C677 C683 1.428 . S
H678 C674 0.930 . S
H679 C676 0.929 . S
S680 N681 1.613 . S
S680 N682 1.610 . S
N681 S680 1.613 . S
N681 C684 1.350 . S
N682 S680 1.610 . S
N682 C683 1.351 . S
C683 C677 1.428 . S
C683 N682 1.351 . S
C683 C684 1.434 . S
C684 C675 1.429 . S
C684 N681 1.350 . S
C684 C683 1.434 . S
C685 C686 1.369 . S
C685 C687 1.419 . S
C685 H689 0.930 . S
C686 C685 1.369 . S
C686 C695 1.429 . S
C687 C685 1.419 . S
C687 C688 1.363 . S
C687 H690 0.929 . S
C688 C687 1.363 . S
C688 C694 1.428 . S
H689 C685 0.930 . S
H690 C687 0.929 . S
S691 N692 1.613 . S
S691 N693 1.610 . S
N692 S691 1.613 . S
N692 C695 1.350 . S
N693 S691 1.610 . S
N693 C694 1.351 . S
C694 C688 1.428 . S
C694 N693 1.351 . S
C694 C695 1.434 . S
C695 C686 1.429 . S
C695 N692 1.350 . S
C695 C694 1.434 . S
C696 C697 1.369 . S
C696 C698 1.419 . S
C696 H700 0.930 . S
C697 C696 1.369 . S
C697 C706 1.429 1_455 S
C698 C696 1.419 . S
C698 C699 1.380 . S
C698 H701 0.929 . S
C699 C698 1.380 . S
C699 C705 1.399 1_455 S
H700 C696 0.930 . S
H701 C698 0.929 . S
S702 N703 1.613 . S
S702 N704 1.610 . S
N703 S702 1.613 . S
N703 C706 1.350 . S
N704 S702 1.610 . S
N704 C705 1.351 . S
C705 C699 1.399 1_655 S
C705 N704 1.351 . S
C705 C706 1.434 . S
C706 C697 1.429 1_655 S
C706 N703 1.350 . S
C706 C705 1.434 . S
C707 C708 1.369 . S
C707 C709 1.419 . S
C707 H711 0.930 . S
C708 C707 1.369 . S
C708 C717 1.429 . S
C709 C707 1.419 . S
C709 C710 1.363 . S
C709 H712 0.929 . S
C710 C709 1.363 . S
C710 C716 1.428 . S
H711 C707 0.930 . S
H712 C709 0.929 . S
S713 N714 1.613 . S
S713 N715 1.610 . S
N714 S713 1.613 . S
N714 C717 1.350 . S
N715 S713 1.610 . S
N715 C716 1.351 . S
C716 C710 1.428 . S
C716 N715 1.351 . S
C716 C717 1.434 . S
C717 C708 1.429 . S
C717 N714 1.350 . S
C717 C716 1.434 . S
C718 C719 1.369 . S
C718 C720 1.419 . S
C718 H722 0.930 . S
C719 C718 1.369 . S
C719 C728 1.429 1_565 S
C720 C718 1.419 . S
C720 C721 1.387 . S
C720 H723 0.929 . S
C721 C720 1.387 . S
C721 C727 1.421 1_565 S
H722 C718 0.930 . S
H723 C720 0.929 . S
S724 N725 1.613 . S
S724 N726 1.610 . S
N725 S724 1.613 . S
N725 C728 1.350 . S
N726 S724 1.610 . S
N726 C727 1.351 . S
C727 C721 1.421 1_545 S
C727 N726 1.351 . S
C727 C728 1.434 . S
C728 C719 1.429 1_545 S
C728 N725 1.350 . S
C728 C727 1.434 . S
C729 C730 1.369 . S
C729 C731 1.419 . S
C729 H733 0.930 . S
C730 C729 1.369 . S
C730 C739 1.429 . S
C731 C729 1.419 . S
C731 C732 1.363 . S
C731 H734 0.913 . S
C732 C731 1.363 . S
C732 C738 1.428 . S
H733 C729 0.930 . S
H734 C731 0.913 . S
S735 N736 1.613 1_565 S
S735 N737 1.604 . S
N736 S735 1.613 1_545 S
N736 C739 1.350 . S
N737 S735 1.604 . S
N737 C738 1.351 1_565 S
C738 C732 1.428 . S
C738 N737 1.351 1_545 S
C738 C739 1.434 . S
C739 C730 1.429 . S
C739 N736 1.350 . S
C739 C738 1.434 . S
C740 C741 1.369 . S
C740 C742 1.419 . S
C740 H744 0.930 . S
C741 C740 1.369 . S
C741 C750 1.429 1_655 S
C742 C740 1.419 . S
C742 C743 1.362 . S
C742 H745 0.929 . S
C743 C742 1.362 . S
C743 C749 1.452 1_655 S
H744 C740 0.930 . S
H745 C742 0.929 . S
S746 N747 1.613 . S
S746 N748 1.610 . S
N747 S746 1.613 . S
N747 C750 1.351 . S
N748 S746 1.610 . S
N748 C749 1.351 . S
C749 C743 1.452 1_455 S
C749 N748 1.351 . S
C749 C750 1.433 . S
C750 C741 1.429 1_455 S
C750 N747 1.351 . S
C750 C749 1.433 . S
C751 C752 1.369 . S
C751 C753 1.419 . S
C751 H755 0.930 . S
C752 C751 1.369 . S
C752 C761 1.429 . S
C753 C751 1.419 . S
C753 C754 1.363 . S
C753 H756 0.929 . S
C754 C753 1.363 . S
C754 C760 1.428 . S
H755 C751 0.930 . S
H756 C753 0.929 . S
S757 N758 1.613 . S
S757 N759 1.610 . S
N758 S757 1.613 . S
N758 C761 1.350 . S
N759 S757 1.610 . S
N759 C760 1.351 . S
C760 C754 1.428 . S
C760 N759 1.351 . S
C760 C761 1.434 . S
C761 C752 1.429 . S
C761 N758 1.350 . S
C761 C760 1.434 . S
C762 C763 1.369 . S
C762 C764 1.419 . S
C762 H766 0.930 . S
C763 C762 1.369 . S
C763 C772 1.429 . S
C764 C762 1.419 . S
C764 C765 1.363 . S
C764 H767 0.929 . S
C765 C764 1.363 . S
C765 C771 1.428 . S
H766 C762 0.930 . S
H767 C764 0.929 . S
S768 N769 1.613 . S
S768 N770 1.610 . S
N769 S768 1.613 . S
N769 C772 1.350 . S
N770 S768 1.610 . S
N770 C771 1.351 . S
C771 C765 1.428 . S
C771 N770 1.351 . S
C771 C772 1.434 . S
C772 C763 1.429 . S
C772 N769 1.350 . S
C772 C771 1.434 . S
C773 C774 1.369 . S
C773 C775 1.419 . S
C773 H777 0.930 . S
C774 C773 1.369 . S
C774 C783 1.429 . S
C775 C773 1.419 . S
C775 C776 1.363 . S
C775 H778 0.929 . S
C776 C775 1.363 . S
C776 C782 1.428 . S
H777 C773 0.930 . S
H778 C775 0.929 . S
S779 N780 1.613 . S
S779 N781 1.610 . S
N780 S779 1.613 . S
N780 C783 1.350 . S
N781 S779 1.610 . S
N781 C782 1.351 . S
C782 C776 1.428 . S
C782 N781 1.351 . S
C782 C783 1.434 . S
C783 C774 1.429 . S
C783 N780 1.350 . S
C783 C782 1.434 . S
C784 C785 1.369 . S
C784 C786 1.419 . S
C784 H788 0.930 . S
C785 C784 1.369 . S
C785 C794 1.429 . S
C786 C784 1.419 . S
C786 C787 1.363 . S
C786 H789 0.929 . S
C787 C786 1.363 . S
C787 C793 1.428 . S
H788 C784 0.930 . S
H789 C786 0.929 . S
S790 N791 1.613 . S
S790 N792 1.610 . S
N791 S790 1.613 . S
N791 C794 1.350 . S
N792 S790 1.610 . S
N792 C793 1.351 . S
C793 C787 1.428 . S
C793 N792 1.351 . S
C793 C794 1.434 . S
C794 C785 1.429 . S
C794 N791 1.350 . S
C794 C793 1.434 . S
C795 C796 1.369 . S
C795 C797 1.419 . S
C795 H799 0.930 . S
C796 C795 1.369 . S
C796 C805 1.429 . S
C797 C795 1.419 . S
C797 C798 1.363 . S
C797 H800 0.929 . S
C798 C797 1.363 . S
C798 C804 1.428 . S
H799 C795 0.930 . S
H800 C797 0.929 . S
S801 N802 1.613 . S
S801 N803 1.610 . S
N802 S801 1.613 . S
N802 C805 1.350 . S
N803 S801 1.610 . S
N803 C804 1.351 . S
C804 C798 1.428 . S
C804 N803 1.351 . S
C804 C805 1.434 . S
C805 C796 1.429 . S
C805 N802 1.350 . S
C805 C804 1.434 . S
C806 C807 1.369 . S
C806 C808 1.419 . S
C806 H810 0.930 . S
C807 C806 1.369 . S
C807 C816 1.429 . S
C808 C806 1.419 . S
C808 C809 1.363 . S
C808 H811 0.929 . S
C809 C808 1.363 . S
C809 C815 1.428 . S
H810 C806 0.930 . S
H811 C808 0.929 . S
S812 N813 1.613 . S
S812 N814 1.610 . S
N813 S812 1.613 . S
N813 C816 1.350 . S
N814 S812 1.610 . S
N814 C815 1.351 . S
C815 C809 1.428 . S
C815 N814 1.351 . S
C815 C816 1.434 . S
C816 C807 1.429 . S
C816 N813 1.350 . S
C816 C815 1.434 . S
C817 C818 1.369 . S
C817 C819 1.419 . S
C817 H821 0.930 . S
C818 C817 1.369 . S
C818 C827 1.429 . S
C819 C817 1.419 . S
C819 C820 1.363 . S
C819 H822 0.929 . S
C820 C819 1.363 . S
C820 C826 1.428 . S
H821 C817 0.930 . S
H822 C819 0.929 . S
S823 N824 1.613 . S
S823 N825 1.610 . S
N824 S823 1.613 . S
N824 C827 1.350 . S
N825 S823 1.610 . S
N825 C826 1.351 . S
C826 C820 1.428 . S
C826 N825 1.351 . S
C826 C827 1.434 . S
C827 C818 1.429 . S
C827 N824 1.350 . S
C827 C826 1.434 . S
C828 C829 1.369 . S
C828 C830 1.419 . S
C828 H832 0.930 . S
C829 C828 1.369 . S
C829 C838 1.429 . S
C830 C828 1.419 . S
C830 C831 1.363 . S
C830 H833 0.929 . S
C831 C830 1.363 . S
C831 C837 1.428 . S
H832 C828 0.930 . S
H833 C830 0.929 . S
S834 N835 1.613 . S
S834 N836 1.610 . S
N835 S834 1.613 . S
N835 C838 1.350 . S
N836 S834 1.610 . S
N836 C837 1.351 . S
C837 C831 1.428 . S
C837 N836 1.351 . S
C837 C838 1.434 . S
C838 C829 1.429 . S
C838 N835 1.350 . S
C838 C837 1.434 . S
C839 C840 1.369 . S
C839 C841 1.419 . S
C839 H843 0.930 . S
C840 C839 1.369 . S
C840 C849 1.429 . S
C841 C839 1.419 . S
C841 C842 1.363 . S
C841 H844 0.929 . S
C842 C841 1.363 . S
C842 C848 1.428 . S
H843 C839 0.930 . S
H844 C841 0.929 . S
S845 N846 1.613 . S
S845 N847 1.610 . S
N846 S845 1.613 . S
N846 C849 1.350 . S
N847 S845 1.610 . S
N847 C848 1.351 . S
C848 C842 1.428 . S
C848 N847 1.351 . S
C848 C849 1.434 . S
C849 C840 1.429 . S
C849 N846 1.350 . S
C849 C848 1.434 . S
C850 C851 1.369 . S
C850 C852 1.419 . S
C850 H854 0.930 . S
C851 C850 1.369 . S
C851 C860 1.429 . S
C852 C850 1.419 . S
C852 C853 1.363 . S
C852 H855 0.929 . S
C853 C852 1.363 . S
C853 C859 1.428 . S
H854 C850 0.930 . S
H855 C852 0.929 . S
S856 N857 1.613 . S
S856 N858 1.610 . S
N857 S856 1.613 . S
N857 C860 1.350 . S
N858 S856 1.610 . S
N858 C859 1.351 . S
C859 C853 1.428 . S
C859 N858 1.351 . S
C859 C860 1.434 . S
C860 C851 1.429 . S
C860 N857 1.350 . S
C860 C859 1.434 . S
C861 C862 1.369 . S
C861 C863 1.419 . S
C861 H865 0.930 . S
C862 C861 1.369 . S
C862 C871 1.429 . S
C863 C861 1.419 . S
C863 C864 1.363 . S
C863 H866 0.929 . S
C864 C863 1.363 . S
C864 C870 1.428 . S
H865 C861 0.930 . S
H866 C863 0.929 . S
S867 N868 1.613 . S
S867 N869 1.610 . S
N868 S867 1.613 . S
N868 C871 1.350 . S
N869 S867 1.610 . S
N869 C870 1.351 . S
C870 C864 1.428 . S
C870 N869 1.351 . S
C870 C871 1.434 . S
C871 C862 1.429 . S
C871 N868 1.350 . S
C871 C870 1.434 . S
C872 C873 1.369 . S
C872 C874 1.419 . S
C872 H876 0.930 . S
C873 C872 1.369 . S
C873 C882 1.429 . S
C874 C872 1.419 . S
C874 C875 1.363 . S
C874 H877 0.929 . S
C875 C874 1.363 . S
C875 C881 1.428 . S
H876 C872 0.930 . S
H877 C874 0.929 . S
S878 N879 1.613 . S
S878 N880 1.610 . S
N879 S878 1.613 . S
N879 C882 1.350 . S
N880 S878 1.610 . S
N880 C881 1.351 . S
C881 C875 1.428 . S
C881 N880 1.351 . S
C881 C882 1.434 . S
C882 C873 1.429 . S
C882 N879 1.350 . S
C882 C881 1.434 . S
C883 C884 1.369 . S
C883 C885 1.419 . S
C883 H887 0.930 . S
C884 C883 1.369 . S
C884 C893 1.429 . S
C885 C883 1.419 . S
C885 C886 1.363 . S
C885 H888 0.929 . S
C886 C885 1.363 . S
C886 C892 1.428 . S
H887 C883 0.930 . S
H888 C885 0.929 . S
S889 N890 1.613 . S
S889 N891 1.610 . S
N890 S889 1.613 . S
N890 C893 1.350 . S
N891 S889 1.610 . S
N891 C892 1.351 . S
C892 C886 1.428 . S
C892 N891 1.351 . S
C892 C893 1.434 . S
C893 C884 1.429 . S
C893 N890 1.350 . S
C893 C892 1.434 . S
C894 C895 1.369 . S
C894 C896 1.419 . S
C894 H898 0.930 . S
C895 C894 1.369 . S
C895 C904 1.429 . S
C896 C894 1.419 . S
C896 C897 1.363 . S
C896 H899 0.929 . S
C897 C896 1.363 . S
C897 C903 1.428 . S
H898 C894 0.930 . S
H899 C896 0.929 . S
S900 N901 1.613 . S
S900 N902 1.610 . S
N901 S900 1.613 . S
N901 C904 1.350 . S
N902 S900 1.610 . S
N902 C903 1.351 . S
C903 C897 1.428 . S
C903 N902 1.351 . S
C903 C904 1.434 . S
C904 C895 1.429 . S
C904 N901 1.350 . S
C904 C903 1.434 . S
C905 C906 1.369 . S
C905 C907 1.419 . S
C905 H909 0.930 . S
C906 C905 1.369 . S
C906 C915 1.429 . S
C907 C905 1.419 . S
C907 C908 1.363 . S
C907 H910 0.929 . S
C908 C907 1.363 . S
C908 C914 1.428 . S
H909 C905 0.930 . S
H910 C907 0.929 . S
S911 N912 1.613 . S
S911 N913 1.610 . S
N912 S911 1.613 . S
N912 C915 1.350 . S
N913 S911 1.610 . S
N913 C914 1.351 . S
C914 C908 1.428 . S
C914 N913 1.351 . S
C914 C915 1.434 . S
C915 C906 1.429 . S
C915 N912 1.350 . S
C915 C914 1.434 . S
C916 C917 1.369 . S
C916 C918 1.419 . S
C916 H920 0.930 . S
C917 C916 1.369 . S
C917 C926 1.429 . S
C918 C916 1.419 . S
C918 C919 1.363 . S
C918 H921 0.929 . S
C919 C918 1.363 . S
C919 C925 1.428 . S
H920 C916 0.930 . S
H921 C918 0.929 . S
S922 N923 1.613 . S
S922 N924 1.610 . S
N923 S922 1.613 . S
N923 C926 1.350 . S
N924 S922 1.610 . S
N924 C925 1.351 . S
C925 C919 1.428 . S
C925 N924 1.351 . S
C925 C926 1.434 . S
C926 C917 1.429 . S
C926 N923 1.350 . S
C926 C925 1.434 . S
C927 C928 1.369 . S
C927 C929 1.419 . S
C927 H931 0.930 . S
C928 C927 1.369 . S
C928 C937 1.429 . S
C929 C927 1.419 . S
C929 C930 1.363 . S
C929 H932 0.929 . S
C930 C929 1.363 . S
C930 C936 1.428 . S
H931 C927 0.930 . S
H932 C929 0.929 . S
S933 N934 1.613 . S
S933 N935 1.610 . S
N934 S933 1.613 . S
N934 C937 1.350 . S
N935 S933 1.610 . S
N935 C936 1.351 . S
C936 C930 1.428 . S
C936 N935 1.351 . S
C936 C937 1.434 . S
C937 C928 1.429 . S
C937 N934 1.350 . S
C937 C936 1.434 . S
C938 C939 1.369 . S
C938 C940 1.419 . S
C938 H942 0.930 . S
C939 C938 1.369 . S
C939 C948 1.429 . S
C940 C938 1.419 . S
C940 C941 1.363 . S
C940 H943 0.929 . S
C941 C940 1.363 . S
C941 C947 1.428 . S
H942 C938 0.930 . S
H943 C940 0.929 . S
S944 N945 1.613 . S
S944 N946 1.610 . S
N945 S944 1.613 . S
N945 C948 1.350 . S
N946 S944 1.610 . S
N946 C947 1.351 . S
C947 C941 1.428 . S
C947 N946 1.351 . S
C947 C948 1.434 . S
C948 C939 1.429 . S
C948 N945 1.350 . S
C948 C947 1.434 . S
C949 C950 1.369 . S
C949 C951 1.419 . S
C949 H953 0.930 . S
C950 C949 1.369 . S
C950 C959 1.429 . S
C951 C949 1.419 . S
C951 C952 1.363 . S
C951 H954 0.929 . S
C952 C951 1.363 . S
C952 C958 1.428 . S
H953 C949 0.930 . S
H954 C951 0.929 . S
S955 N956 1.613 . S
S955 N957 1.610 . S
N956 S955 1.613 . S
N956 C959 1.350 . S
N957 S955 1.610 . S
N957 C958 1.351 . S
C958 C952 1.428 . S
C958 N957 1.351 . S
C958 C959 1.434 . S
C959 C950 1.429 . S
C959 N956 1.350 . S
C959 C958 1.434 . S
C960 C961 1.369 . S
C960 C962 1.419 . S
C960 H964 0.930 . S
C961 C960 1.369 . S
C961 C970 1.429 . S
C962 C960 1.419 . S
C962 C963 1.363 . S
C962 H965 0.929 . S
C963 C962 1.363 . S
C963 C969 1.428 . S
H964 C960 0.930 . S
H965 C962 0.929 . S
S966 N967 1.613 . S
S966 N968 1.610 . S
N967 S966 1.613 . S
N967 C970 1.350 . S
N968 S966 1.610 . S
N968 C969 1.351 . S
C969 C963 1.428 . S
C969 N968 1.351 . S
C969 C970 1.434 . S
C970 C961 1.429 . S
C970 N967 1.350 . S
C970 C969 1.434 . S
C971 C972 1.369 . S
C971 C973 1.419 . S
C971 H975 0.930 . S
C972 C971 1.369 . S
C972 C981 1.429 . S
C973 C971 1.419 . S
C973 C974 1.363 . S
C973 H976 0.929 . S
C974 C973 1.363 . S
C974 C980 1.428 . S
H975 C971 0.930 . S
H976 C973 0.929 . S
S977 N978 1.613 . S
S977 N979 1.610 . S
N978 S977 1.613 . S
N978 C981 1.350 . S
N979 S977 1.610 . S
N979 C980 1.351 . S
C980 C974 1.428 . S
C980 N979 1.351 . S
C980 C981 1.434 . S
C981 C972 1.429 . S
C981 N978 1.350 . S
C981 C980 1.434 . S
C982 C983 1.369 . S
C982 C984 1.419 . S
C982 H986 0.930 . S
C983 C982 1.369 . S
C983 C992 1.429 . S
C984 C982 1.419 . S
C984 C985 1.363 . S
C984 H987 0.929 . S
C985 C984 1.363 . S
C985 C991 1.428 . S
H986 C982 0.930 . S
H987 C984 0.929 . S
S988 N989 1.613 . S
S988 N990 1.610 . S
N989 S988 1.613 . S
N989 C992 1.350 . S
N990 S988 1.610 . S
N990 C991 1.351 . S
C991 C985 1.428 . S
C991 N990 1.351 . S
C991 C992 1.434 . S
C992 C983 1.429 . S
C992 N989 1.350 . S
C992 C991 1.434 . S
C993 C994 1.369 . S
C993 C995 1.419 . S
C993 H997 0.930 . S
C994 C993 1.369 . S
C994 C1003 1.429 . S
C995 C993 1.419 . S
C995 C996 1.363 . S
C995 H998 0.929 . S
C996 C995 1.363 . S
C996 C1002 1.428 . S
H997 C993 0.930 . S
H998 C995 0.929 . S
S999 N1000 1.613 . S
S999 N1001 1.610 . S
N1000 S999 1.613 . S
N1000 C1003 1.350 . S
N1001 S999 1.610 . S
N1001 C1002 1.351 . S
C1002 C996 1.428 . S
C1002 N1001 1.351 . S
C1002 C1003 1.434 . S
C1003 C994 1.429 . S
C1003 N1000 1.350 . S
C1003 C1002 1.434 . S
C1004 C1005 1.369 . S
C1004 C1006 1.419 . S
C1004 H1008 0.930 . S
C1005 C1004 1.369 . S
C1005 C1014 1.429 . S
C1006 C1004 1.419 . S
C1006 C1007 1.363 . S
C1006 H1009 0.929 . S
C1007 C1006 1.363 . S
C1007 C1013 1.428 . S
H1008 C1004 0.930 . S
H1009 C1006 0.929 . S
S1010 N1011 1.613 . S
S1010 N1012 1.610 . S
N1011 S1010 1.613 . S
N1011 C1014 1.350 . S
N1012 S1010 1.610 . S
N1012 C1013 1.351 . S
C1013 C1007 1.428 . S
C1013 N1012 1.351 . S
C1013 C1014 1.434 . S
C1014 C1005 1.429 . S
C1014 N1011 1.350 . S
C1014 C1013 1.434 . S
C1015 C1016 1.369 . S
C1015 C1017 1.419 . S
C1015 H1019 0.930 . S
C1016 C1015 1.369 . S
C1016 C1025 1.429 . S
C1017 C1015 1.419 . S
C1017 C1018 1.363 . S
C1017 H1020 0.929 . S
C1018 C1017 1.363 . S
C1018 C1024 1.428 . S
H1019 C1015 0.930 . S
H1020 C1017 0.929 . S
S1021 N1022 1.613 . S
S1021 N1023 1.610 . S
N1022 S1021 1.613 . S
N1022 C1025 1.350 . S
N1023 S1021 1.610 . S
N1023 C1024 1.351 . S
C1024 C1018 1.428 . S
C1024 N1023 1.351 . S
C1024 C1025 1.434 . S
C1025 C1016 1.429 . S
C1025 N1022 1.350 . S
C1025 C1024 1.434 . S
C1026 C1027 1.369 . S
C1026 C1028 1.419 . S
C1026 H1030 0.930 . S
C1027 C1026 1.369 . S
C1027 C1036 1.429 . S
C1028 C1026 1.419 . S
C1028 C1029 1.363 . S
C1028 H1031 0.929 . S
C1029 C1028 1.363 . S
C1029 C1035 1.428 . S
H1030 C1026 0.930 . S
H1031 C1028 0.929 . S
S1032 N1033 1.613 . S
S1032 N1034 1.610 . S
N1033 S1032 1.613 . S
N1033 C1036 1.350 . S
N1034 S1032 1.610 . S
N1034 C1035 1.351 . S
C1035 C1029 1.428 . S
C1035 N1034 1.351 . S
C1035 C1036 1.434 . S
C1036 C1027 1.429 . S
C1036 N1033 1.350 . S
C1036 C1035 1.434 . S
C1037 C1038 1.369 . S
C1037 C1039 1.419 . S
C1037 H1041 0.930 . S
C1038 C1037 1.369 . S
C1038 C1047 1.429 . S
C1039 C1037 1.419 . S
C1039 C1040 1.363 . S
C1039 H1042 0.929 . S
C1040 C1039 1.363 . S
C1040 C1046 1.428 . S
H1041 C1037 0.930 . S
H1042 C1039 0.929 . S
S1043 N1044 1.613 . S
S1043 N1045 1.610 . S
N1044 S1043 1.613 . S
N1044 C1047 1.350 . S
N1045 S1043 1.610 . S
N1045 C1046 1.351 . S
C1046 C1040 1.428 . S
C1046 N1045 1.351 . S
C1046 C1047 1.434 . S
C1047 C1038 1.429 . S
C1047 N1044 1.350 . S
C1047 C1046 1.434 . S
C1048 C1049 1.369 . S
C1048 C1050 1.419 . S
C1048 H1052 0.930 . S
C1049 C1048 1.369 . S
C1049 C1058 1.429 . S
C1050 C1048 1.419 . S
C1050 C1051 1.363 . S
C1050 H1053 0.929 . S
C1051 C1050 1.363 . S
C1051 C1057 1.428 . S
H1052 C1048 0.930 . S
H1053 C1050 0.929 . S
S1054 N1055 1.613 . S
S1054 N1056 1.610 1_556 S
N1055 S1054 1.613 . S
N1055 C1058 1.350 1_556 S
N1056 S1054 1.610 1_554 S
N1056 C1057 1.351 . S
C1057 C1051 1.428 . S
C1057 N1056 1.351 . S
C1057 C1058 1.434 . S
C1058 C1049 1.429 . S
C1058 N1055 1.350 1_554 S
C1058 C1057 1.434 . S
C1059 C1060 1.369 . S
C1059 C1061 1.419 . S
C1059 H1063 0.930 . S
C1060 C1059 1.369 . S
C1060 C1069 1.429 . S
C1061 C1059 1.419 . S
C1061 C1062 1.363 . S
C1061 H1064 0.929 . S
C1062 C1061 1.363 . S
C1062 C1068 1.428 . S
H1063 C1059 0.930 . S
H1064 C1061 0.929 . S
S1065 N1066 1.613 . S
S1065 N1067 1.610 . S
N1066 S1065 1.613 . S
N1066 C1069 1.350 . S
N1067 S1065 1.610 . S
N1067 C1068 1.351 . S
C1068 C1062 1.428 . S
C1068 N1067 1.351 . S
C1068 C1069 1.434 . S
C1069 C1060 1.429 . S
C1069 N1066 1.350 . S
C1069 C1068 1.434 . S
C1070 C1071 1.369 . S
C1070 C1072 1.419 . S
C1070 H1074 0.930 1_556 S
C1071 C1070 1.369 . S
C1071 C1080 1.429 . S
C1072 C1070 1.419 . S
C1072 C1073 1.363 . S
C1072 H1075 0.929 . S
C1073 C1072 1.363 . S
C1073 C1079 1.428 . S
H1074 C1070 0.930 1_554 S
H1075 C1072 0.929 . S
S1076 N1077 1.613 . S
S1076 N1078 1.610 . S
N1077 S1076 1.613 . S
N1077 C1080 1.350 . S
N1078 S1076 1.610 . S
N1078 C1079 1.351 . S
C1079 C1073 1.428 . S
C1079 N1078 1.351 . S
C1079 C1080 1.434 . S
C1080 C1071 1.429 . S
C1080 N1077 1.350 . S
C1080 C1079 1.434 . S
C1081 C1082 1.369 . S
C1081 C1083 1.419 . S
C1081 H1085 0.930 . S
C1082 C1081 1.369 . S
C1082 C1091 1.429 . S
C1083 C1081 1.419 . S
C1083 C1084 1.363 . S
C1083 H1086 0.929 . S
C1084 C1083 1.363 . S
C1084 C1090 1.428 . S
H1085 C1081 0.930 . S
H1086 C1083 0.929 . S
S1087 N1088 1.613 . S
S1087 N1089 1.610 1_554 S
N1088 S1087 1.613 . S
N1088 C1091 1.350 1_554 S
N1089 S1087 1.610 1_556 S
N1089 C1090 1.351 . S
C1090 C1084 1.428 . S
C1090 N1089 1.351 . S
C1090 C1091 1.434 . S
C1091 C1082 1.429 . S
C1091 N1088 1.350 1_556 S
C1091 C1090 1.434 . S
C1092 C1093 1.369 . S
C1092 C1094 1.419 . S
C1092 H1096 0.930 . S
C1093 C1092 1.369 . S
C1093 C1102 1.429 . S
C1094 C1092 1.419 . S
C1094 C1095 1.363 . S
C1094 H1097 0.929 . S
C1095 C1094 1.363 . S
C1095 C1101 1.428 . S
H1096 C1092 0.930 . S
H1097 C1094 0.929 . S
S1098 N1099 1.613 . S
S1098 N1100 1.610 . S
N1099 S1098 1.613 . S
N1099 C1102 1.350 . S
N1100 S1098 1.610 . S
N1100 C1101 1.351 . S
C1101 C1095 1.428 . S
C1101 N1100 1.351 . S
C1101 C1102 1.434 . S
C1102 C1093 1.429 . S
C1102 N1099 1.350 . S
C1102 C1101 1.434 . S
C1103 C1104 1.369 . S
C1103 C1105 1.419 . S
C1103 H1107 0.930 . S
C1104 C1103 1.369 . S
C1104 C1113 1.429 . S
C1105 C1103 1.419 . S
C1105 C1106 1.363 . S
C1105 H1108 0.929 . S
C1106 C1105 1.363 . S
C1106 C1112 1.428 . S
H1107 C1103 0.930 . S
H1108 C1105 0.929 . S
S1109 N1110 1.613 . S
S1109 N1111 1.610 . S
N1110 S1109 1.613 . S
N1110 C1113 1.350 1_554 S
N1111 S1109 1.610 . S
N1111 C1112 1.351 1_554 S
C1112 C1106 1.428 . S
C1112 N1111 1.351 1_556 S
C1112 C1113 1.434 . S
C1113 C1104 1.429 . S
C1113 N1110 1.350 1_556 S
C1113 C1112 1.434 . S
C1114 C1115 1.369 . S
C1114 C1116 1.419 . S
C1114 H1118 0.930 . S
C1115 C1114 1.369 . S
C1115 C1124 1.429 . S
C1116 C1114 1.419 . S
C1116 C1117 1.363 . S
C1116 H1119 0.929 . S
C1117 C1116 1.363 . S
C1117 C1123 1.428 . S
H1118 C1114 0.930 . S
H1119 C1116 0.929 . S
S1120 N1121 1.613 . S
S1120 N1122 1.610 . S
N1121 S1120 1.613 . S
N1121 C1124 1.350 . S
N1122 S1120 1.610 . S
N1122 C1123 1.351 . S
C1123 C1117 1.428 . S
C1123 N1122 1.351 . S
C1123 C1124 1.434 . S
C1124 C1115 1.429 . S
C1124 N1121 1.350 . S
C1124 C1123 1.434 . S
C1125 C1126 1.369 . S
C1125 C1127 1.419 . S
C1125 H1129 0.930 . S
C1126 C1125 1.369 . S
C1126 C1135 1.429 . S
C1127 C1125 1.419 . S
C1127 C1128 1.363 . S
C1127 H1130 0.929 . S
C1128 C1127 1.363 . S
C1128 C1134 1.428 . S
H1129 C1125 0.930 . S
H1130 C1127 0.929 . S
S1131 N1132 1.613 . S
S1131 N1133 1.610 . S
N1132 S1131 1.613 . S
N1132 C1135 1.350 . S
N1133 S1131 1.610 . S
N1133 C1134 1.351 . S
C1134 C1128 1.428 . S
C1134 N1133 1.351 . S
C1134 C1135 1.434 . S
C1135 C1126 1.429 . S
C1135 N1132 1.350 . S
C1135 C1134 1.434 . S
C1136 C1137 1.369 . S
C1136 C1138 1.419 . S
C1136 H1140 0.930 . S
C1137 C1136 1.369 . S
C1137 C1146 1.429 . S
C1138 C1136 1.419 . S
C1138 C1139 1.363 . S
C1138 H1141 0.929 . S
C1139 C1138 1.363 . S
C1139 C1145 1.428 . S
H1140 C1136 0.930 . S
H1141 C1138 0.929 . S
S1142 N1143 1.613 . S
S1142 N1144 1.610 . S
N1143 S1142 1.613 . S
N1143 C1146 1.350 . S
N1144 S1142 1.610 . S
N1144 C1145 1.351 . S
C1145 C1139 1.428 . S
C1145 N1144 1.351 . S
C1145 C1146 1.434 . S
C1146 C1137 1.429 . S
C1146 N1143 1.350 . S
C1146 C1145 1.434 . S
C1147 C1148 1.369 . S
C1147 C1149 1.419 . S
C1147 H1151 0.930 . S
C1148 C1147 1.369 . S
C1148 C1157 1.429 . S
C1149 C1147 1.419 . S
C1149 C1150 1.363 . S
C1149 H1152 0.929 . S
C1150 C1149 1.363 . S
C1150 C1156 1.428 . S
H1151 C1147 0.930 . S
H1152 C1149 0.929 . S
S1153 N1154 1.613 . S
S1153 N1155 1.610 1_556 S
N1154 S1153 1.613 . S
N1154 C1157 1.350 1_556 S
N1155 S1153 1.610 1_554 S
N1155 C1156 1.351 . S
C1156 C1150 1.428 . S
C1156 N1155 1.351 . S
C1156 C1157 1.434 . S
C1157 C1148 1.429 . S
C1157 N1154 1.350 1_554 S
C1157 C1156 1.434 . S
C1158 C1159 1.369 . S
C1158 C1160 1.419 . S
C1158 H1162 0.930 . S
C1159 C1158 1.369 . S
C1159 C1168 1.429 . S
C1160 C1158 1.419 . S
C1160 C1161 1.363 . S
C1160 H1163 0.929 . S
C1161 C1160 1.363 . S
C1161 C1167 1.428 . S
H1162 C1158 0.930 . S
H1163 C1160 0.929 . S
S1164 N1165 1.613 . S
S1164 N1166 1.610 . S
N1165 S1164 1.613 . S
N1165 C1168 1.350 . S
N1166 S1164 1.610 . S
N1166 C1167 1.351 . S
C1167 C1161 1.428 . S
C1167 N1166 1.351 . S
C1167 C1168 1.434 . S
C1168 C1159 1.429 . S
C1168 N1165 1.350 . S
C1168 C1167 1.434 . S
C1169 C1170 1.369 . S
C1169 C1171 1.419 . S
C1169 H1173 0.930 . S
C1170 C1169 1.369 . S
C1170 C1179 1.429 . S
C1171 C1169 1.419 . S
C1171 C1172 1.363 . S
C1171 H1174 0.929 . S
C1172 C1171 1.363 . S
C1172 C1178 1.428 . S
H1173 C1169 0.930 . S
H1174 C1171 0.929 . S
S1175 N1176 1.613 . S
S1175 N1177 1.610 . S
N1176 S1175 1.613 . S
N1176 C1179 1.350 . S
N1177 S1175 1.610 . S
N1177 C1178 1.351 . S
C1178 C1172 1.428 . S
C1178 N1177 1.351 . S
C1178 C1179 1.434 . S
C1179 C1170 1.429 . S
C1179 N1176 1.350 . S
C1179 C1178 1.434 . S
C1180 C1181 1.369 . S
C1180 C1182 1.419 . S
C1180 H1184 0.930 . S
C1181 C1180 1.369 . S
C1181 C1190 1.429 . S
C1182 C1180 1.419 . S
C1182 C1183 1.363 . S
C1182 H1185 0.929 . S
C1183 C1182 1.363 . S
C1183 C1189 1.428 . S
H1184 C1180 0.930 . S
H1185 C1182 0.929 . S
S1186 N1187 1.613 . S
S1186 N1188 1.610 . S
N1187 S1186 1.613 . S
N1187 C1190 1.350 . S
N1188 S1186 1.610 . S
N1188 C1189 1.351 . S
C1189 C1183 1.428 . S
C1189 N1188 1.351 . S
C1189 C1190 1.434 . S
C1190 C1181 1.429 . S
C1190 N1187 1.350 . S
C1190 C1189 1.434 . S
C1191 C1192 1.369 . S
C1191 C1193 1.419 . S
C1191 H1195 0.930 . S
C1192 C1191 1.369 . S
C1192 C1201 1.429 1_455 S
C1193 C1191 1.419 . S
C1193 C1194 1.363 . S
C1193 H1196 0.929 . S
C1194 C1193 1.363 . S
C1194 C1200 1.428 1_455 S
H1195 C1191 0.930 . S
H1196 C1193 0.929 . S
S1197 N1198 1.613 . S
S1197 N1199 1.610 . S
N1198 S1197 1.613 . S
N1198 C1201 1.350 . S
N1199 S1197 1.610 . S
N1199 C1200 1.351 . S
C1200 C1194 1.428 1_655 S
C1200 N1199 1.351 . S
C1200 C1201 1.434 . S
C1201 C1192 1.429 1_655 S
C1201 N1198 1.350 . S
C1201 C1200 1.434 . S
C1202 C1203 1.369 . S
C1202 C1204 1.419 . S
C1202 H1206 0.930 . S
C1203 C1202 1.369 . S
C1203 C1212 1.429 . S
C1204 C1202 1.419 . S
C1204 C1205 1.363 . S
C1204 H1207 0.929 . S
C1205 C1204 1.363 . S
C1205 C1211 1.428 . S
H1206 C1202 0.930 . S
H1207 C1204 0.929 . S
S1208 N1209 1.613 . S
S1208 N1210 1.610 . S
N1209 S1208 1.613 . S
N1209 C1212 1.350 . S
N1210 S1208 1.610 . S
N1210 C1211 1.351 . S
C1211 C1205 1.428 . S
C1211 N1210 1.351 . S
C1211 C1212 1.434 . S
C1212 C1203 1.429 . S
C1212 N1209 1.350 . S
C1212 C1211 1.434 . S
C1213 C1214 1.369 . S
C1213 C1215 1.419 . S
C1213 H1217 0.930 . S
C1214 C1213 1.369 . S
C1214 C1223 1.433 1_565 S
C1215 C1213 1.419 . S
C1215 C1216 1.363 . S
C1215 H1218 0.929 . S
C1216 C1215 1.363 . S
C1216 C1222 1.429 . S
H1217 C1213 0.930 . S
H1218 C1215 0.929 . S
S1219 N1220 1.613 . S
S1219 N1221 1.610 . S
N1220 S1219 1.613 . S
N1220 C1223 1.352 . S
N1221 S1219 1.610 . S
N1221 C1222 1.351 1_545 S
C1222 C1216 1.429 . S
C1222 N1221 1.351 1_565 S
C1222 C1223 1.427 1_565 S
C1223 C1214 1.433 1_545 S
C1223 N1220 1.352 . S
C1223 C1222 1.427 1_545 S
C1224 C1225 1.369 . S
C1224 C1226 1.419 . S
C1224 H1228 0.930 . S
C1225 C1224 1.369 . S
C1225 C1234 1.429 1_565 S
C1226 C1224 1.419 . S
C1226 C1227 1.363 . S
C1226 H1229 0.929 . S
C1227 C1226 1.363 . S
C1227 C1233 1.428 1_565 S
H1228 C1224 0.930 . S
H1229 C1226 0.929 . S
S1230 N1231 1.613 . S
S1230 N1232 1.610 . S
N1231 S1230 1.613 . S
N1231 C1234 1.350 . S
N1232 S1230 1.610 . S
N1232 C1233 1.351 . S
C1233 C1227 1.428 1_545 S
C1233 N1232 1.351 . S
C1233 C1234 1.434 . S
C1234 C1225 1.429 1_545 S
C1234 N1231 1.350 . S
C1234 C1233 1.434 . S
C1235 C1236 1.369 1_655 S
C1235 C1237 1.419 . S
C1235 H1239 0.930 . S
C1236 C1235 1.369 1_455 S
C1236 C1245 1.429 . S
C1237 C1235 1.419 . S
C1237 C1238 1.363 1_655 S
C1237 H1240 0.929 . S
C1238 C1237 1.363 1_455 S
C1238 C1244 1.428 . S
H1239 C1235 0.930 . S
H1240 C1237 0.929 . S
S1241 N1242 1.613 . S
S1241 N1243 1.610 . S
N1242 S1241 1.613 . S
N1242 C1245 1.350 . S
N1243 S1241 1.610 . S
N1243 C1244 1.351 . S
C1244 C1238 1.428 . S
C1244 N1243 1.351 . S
C1244 C1245 1.434 . S
C1245 C1236 1.429 . S
C1245 N1242 1.350 . S
C1245 C1244 1.434 . S
C1246 C1247 1.369 . S
C1246 C1248 1.419 . S
C1246 H1250 0.930 . S
C1247 C1246 1.369 . S
C1247 C1256 1.429 . S
C1248 C1246 1.419 . S
C1248 C1249 1.363 . S
C1248 H1251 0.929 . S
C1249 C1248 1.363 . S
C1249 C1255 1.428 . S
H1250 C1246 0.930 . S
H1251 C1248 0.929 . S
S1252 N1253 1.613 . S
S1252 N1254 1.610 . S
N1253 S1252 1.613 . S
N1253 C1256 1.350 . S
N1254 S1252 1.610 . S
N1254 C1255 1.351 . S
C1255 C1249 1.428 . S
C1255 N1254 1.351 . S
C1255 C1256 1.434 . S
C1256 C1247 1.429 . S
C1256 N1253 1.350 . S
C1256 C1255 1.434 . S
C1257 C1258 1.369 . S
C1257 C1259 1.419 . S
C1257 H1261 0.930 . S
C1258 C1257 1.369 . S
C1258 C1267 1.429 . S
C1259 C1257 1.419 . S
C1259 C1260 1.363 . S
C1259 H1262 0.929 . S
C1260 C1259 1.363 . S
C1260 C1266 1.428 . S
H1261 C1257 0.930 . S
H1262 C1259 0.929 . S
S1263 N1264 1.613 . S
S1263 N1265 1.610 . S
N1264 S1263 1.613 . S
N1264 C1267 1.350 . S
N1265 S1263 1.610 . S
N1265 C1266 1.351 . S
C1266 C1260 1.428 . S
C1266 N1265 1.351 . S
C1266 C1267 1.434 . S
C1267 C1258 1.429 . S
C1267 N1264 1.350 . S
C1267 C1266 1.434 . S
C1268 C1269 1.369 . S
C1268 C1270 1.419 . S
C1268 H1272 0.930 . S
C1269 C1268 1.369 . S
C1269 C1278 1.429 . S
C1270 C1268 1.419 . S
C1270 C1271 1.363 . S
C1270 H1273 0.929 . S
C1271 C1270 1.363 . S
C1271 C1277 1.428 . S
H1272 C1268 0.930 . S
H1273 C1270 0.929 . S
S1274 N1275 1.613 . S
S1274 N1276 1.610 . S
N1275 S1274 1.613 . S
N1275 C1278 1.350 . S
N1276 S1274 1.610 . S
N1276 C1277 1.351 . S
C1277 C1271 1.428 . S
C1277 N1276 1.351 . S
C1277 C1278 1.434 . S
C1278 C1269 1.429 . S
C1278 N1275 1.350 . S
C1278 C1277 1.434 . S
C1279 C1280 1.369 . S
C1279 C1281 1.419 . S
C1279 H1283 0.930 . S
C1280 C1279 1.369 . S
C1280 C1289 1.429 . S
C1281 C1279 1.419 . S
C1281 C1282 1.363 . S
C1281 H1284 0.929 . S
C1282 C1281 1.363 . S
C1282 C1288 1.428 . S
H1283 C1279 0.930 . S
H1284 C1281 0.929 . S
S1285 N1286 1.613 . S
S1285 N1287 1.610 . S
N1286 S1285 1.613 . S
N1286 C1289 1.350 . S
N1287 S1285 1.610 . S
N1287 C1288 1.351 . S
C1288 C1282 1.428 . S
C1288 N1287 1.351 . S
C1288 C1289 1.434 . S
C1289 C1280 1.429 . S
C1289 N1286 1.350 . S
C1289 C1288 1.434 . S
C1290 C1291 1.369 . S
C1290 C1292 1.419 . S
C1290 H1294 0.930 . S
C1291 C1290 1.369 . S
C1291 C1300 1.429 . S
C1292 C1290 1.419 . S
C1292 C1293 1.363 . S
C1292 H1295 0.929 . S
C1293 C1292 1.363 . S
C1293 C1299 1.428 . S
H1294 C1290 0.930 . S
H1295 C1292 0.929 . S
S1296 N1297 1.613 . S
S1296 N1298 1.610 . S
N1297 S1296 1.613 . S
N1297 C1300 1.350 . S
N1298 S1296 1.610 . S
N1298 C1299 1.351 . S
C1299 C1293 1.428 . S
C1299 N1298 1.351 . S
C1299 C1300 1.434 . S
C1300 C1291 1.429 . S
C1300 N1297 1.350 . S
C1300 C1299 1.434 . S
C1301 C1302 1.369 . S
C1301 C1303 1.419 . S
C1301 H1305 0.930 . S
C1302 C1301 1.369 . S
C1302 C1311 1.429 1_655 S
C1303 C1301 1.419 . S
C1303 C1304 1.363 . S
C1303 H1306 0.929 . S
C1304 C1303 1.363 . S
C1304 C1310 1.428 1_655 S
H1305 C1301 0.930 . S
H1306 C1303 0.929 . S
S1307 N1308 1.613 . S
S1307 N1309 1.610 . S
N1308 S1307 1.613 . S
N1308 C1311 1.350 . S
N1309 S1307 1.610 . S
N1309 C1310 1.351 . S
C1310 C1304 1.428 1_455 S
C1310 N1309 1.351 . S
C1310 C1311 1.434 . S
C1311 C1302 1.429 1_455 S
C1311 N1308 1.350 . S
C1311 C1310 1.434 . S
C1312 C1313 1.369 . S
C1312 C1314 1.419 . S
C1312 H1316 0.930 . S
C1313 C1312 1.369 . S
C1313 C1322 1.429 . S
C1314 C1312 1.419 . S
C1314 C1315 1.363 . S
C1314 H1317 0.929 . S
C1315 C1314 1.363 . S
C1315 C1321 1.428 . S
H1316 C1312 0.930 . S
H1317 C1314 0.929 . S
S1318 N1319 1.613 . S
S1318 N1320 1.610 . S
N1319 S1318 1.613 . S
N1319 C1322 1.350 . S
N1320 S1318 1.610 . S
N1320 C1321 1.351 . S
C1321 C1315 1.428 . S
C1321 N1320 1.351 . S
C1321 C1322 1.434 . S
C1322 C1313 1.429 . S
C1322 N1319 1.350 . S
C1322 C1321 1.434 . S
C1323 C1324 1.369 . S
C1323 C1325 1.419 . S
C1323 H1327 0.930 . S
C1324 C1323 1.369 . S
C1324 C1333 1.429 . S
C1325 C1323 1.419 . S
C1325 C1326 1.363 . S
C1325 H1328 0.929 . S
C1326 C1325 1.363 . S
C1326 C1332 1.428 . S
H1327 C1323 0.930 . S
H1328 C1325 0.929 . S
S1329 N1330 1.613 . S
S1329 N1331 1.610 . S
N1330 S1329 1.613 . S
N1330 C1333 1.350 . S
N1331 S1329 1.610 . S
N1331 C1332 1.351 . S
C1332 C1326 1.428 . S
C1332 N1331 1.351 . S
C1332 C1333 1.434 . S
C1333 C1324 1.429 . S
C1333 N1330 1.350 . S
C1333 C1332 1.434 . S
C1334 C1335 1.369 . S
C1334 C1336 1.419 . S
C1334 H1338 0.930 . S
C1335 C1334 1.369 . S
C1335 C1344 1.429 . S
C1336 C1334 1.419 . S
C1336 C1337 1.363 . S
C1336 H1339 0.929 . S
C1337 C1336 1.363 . S
C1337 C1343 1.428 . S
H1338 C1334 0.930 . S
H1339 C1336 0.929 . S
S1340 N1341 1.613 . S
S1340 N1342 1.610 . S
N1341 S1340 1.613 . S
N1341 C1344 1.350 . S
N1342 S1340 1.610 . S
N1342 C1343 1.351 . S
C1343 C1337 1.428 . S
C1343 N1342 1.351 . S
C1343 C1344 1.434 . S
C1344 C1335 1.429 . S
C1344 N1341 1.350 . S
C1344 C1343 1.434 . S
C1345 C1346 1.369 . S
C1345 C1347 1.419 . S
C1345 H1349 0.930 . S
C1346 C1345 1.369 . S
C1346 C1355 1.429 . S
C1347 C1345 1.419 . S
C1347 C1348 1.363 . S
C1347 H1350 0.929 . S
C1348 C1347 1.363 . S
C1348 C1354 1.428 . S
H1349 C1345 0.930 . S
H1350 C1347 0.929 . S
S1351 N1352 1.613 . S
S1351 N1353 1.610 . S
N1352 S1351 1.613 . S
N1352 C1355 1.350 . S
N1353 S1351 1.610 . S
N1353 C1354 1.351 . S
C1354 C1348 1.428 . S
C1354 N1353 1.351 . S
C1354 C1355 1.434 . S
C1355 C1346 1.429 . S
C1355 N1352 1.350 . S
C1355 C1354 1.434 . S
C1356 C1357 1.369 . S
C1356 C1358 1.419 . S
C1356 H1360 0.930 . S
C1357 C1356 1.369 . S
C1357 C1366 1.429 . S
C1358 C1356 1.419 . S
C1358 C1359 1.363 . S
C1358 H1361 0.929 . S
C1359 C1358 1.363 . S
C1359 C1365 1.428 . S
H1360 C1356 0.930 . S
H1361 C1358 0.929 . S
S1362 N1363 1.613 . S
S1362 N1364 1.610 . S
N1363 S1362 1.613 . S
N1363 C1366 1.350 . S
N1364 S1362 1.610 . S
N1364 C1365 1.351 . S
C1365 C1359 1.428 . S
C1365 N1364 1.351 . S
C1365 C1366 1.434 . S
C1366 C1357 1.429 . S
C1366 N1363 1.350 . S
C1366 C1365 1.434 . S
C1367 C1368 1.369 . S
C1367 C1369 1.419 . S
C1367 H1371 0.930 . S
C1368 C1367 1.369 . S
C1368 C1377 1.429 . S
C1369 C1367 1.419 . S
C1369 C1370 1.363 . S
C1369 H1372 0.929 . S
C1370 C1369 1.363 . S
C1370 C1376 1.428 . S
H1371 C1367 0.930 . S
H1372 C1369 0.929 . S
S1373 N1374 1.613 . S
S1373 N1375 1.610 . S
N1374 S1373 1.613 . S
N1374 C1377 1.350 . S
N1375 S1373 1.610 . S
N1375 C1376 1.351 . S
C1376 C1370 1.428 . S
C1376 N1375 1.351 . S
C1376 C1377 1.434 . S
C1377 C1368 1.429 . S
C1377 N1374 1.350 . S
C1377 C1376 1.434 . S
C1378 C1379 1.369 . S
C1378 C1380 1.419 . S
C1378 H1382 0.930 . S
C1379 C1378 1.369 . S
C1379 C1388 1.429 . S
C1380 C1378 1.419 . S
C1380 C1381 1.363 . S
C1380 H1383 0.929 . S
C1381 C1380 1.363 . S
C1381 C1387 1.428 . S
H1382 C1378 0.930 . S
H1383 C1380 0.929 . S
S1384 N1385 1.613 . S
S1384 N1386 1.610 . S
N1385 S1384 1.613 . S
N1385 C1388 1.350 . S
N1386 S1384 1.610 . S
N1386 C1387 1.351 . S
C1387 C1381 1.428 . S
C1387 N1386 1.351 . S
C1387 C1388 1.434 . S
C1388 C1379 1.429 . S
C1388 N1385 1.350 . S
C1388 C1387 1.434 . S
C1389 C1390 1.369 1_455 S
C1389 C1391 1.419 . S
C1389 H1393 0.930 . S
C1390 C1389 1.369 1_655 S
C1390 C1399 1.429 . S
C1391 C1389 1.419 . S
C1391 C1392 1.363 1_455 S
C1391 H1394 0.929 . S
C1392 C1391 1.363 1_655 S
C1392 C1398 1.428 . S
H1393 C1389 0.930 . S
H1394 C1391 0.929 . S
S1395 N1396 1.613 . S
S1395 N1397 1.610 . S
N1396 S1395 1.613 . S
N1396 C1399 1.350 . S
N1397 S1395 1.610 . S
N1397 C1398 1.351 . S
C1398 C1392 1.428 . S
C1398 N1397 1.351 . S
C1398 C1399 1.434 . S
C1399 C1390 1.429 . S
C1399 N1396 1.350 . S
C1399 C1398 1.434 . S
C1400 C1401 1.369 . S
C1400 C1402 1.419 . S
C1400 H1404 0.930 . S
C1401 C1400 1.369 . S
C1401 C1410 1.429 . S
C1402 C1400 1.419 . S
C1402 C1403 1.363 . S
C1402 H1405 0.929 . S
C1403 C1402 1.363 . S
C1403 C1409 1.428 . S
H1404 C1400 0.930 . S
H1405 C1402 0.929 . S
S1406 N1407 1.613 . S
S1406 N1408 1.610 . S
N1407 S1406 1.613 . S
N1407 C1410 1.350 . S
N1408 S1406 1.610 . S
N1408 C1409 1.351 . S
C1409 C1403 1.428 . S
C1409 N1408 1.351 . S
C1409 C1410 1.434 . S
C1410 C1401 1.429 . S
C1410 N1407 1.350 . S
C1410 C1409 1.434 . S
C1411 C1412 1.369 1_565 S
C1411 C1413 1.419 . S
C1411 H1415 0.930 . S
C1412 C1411 1.369 1_545 S
C1412 C1421 1.429 . S
C1413 C1411 1.419 . S
C1413 C1414 1.363 1_565 S
C1413 H1416 0.929 . S
C1414 C1413 1.363 1_545 S
C1414 C1420 1.428 . S
H1415 C1411 0.930 . S
H1416 C1413 0.929 . S
S1417 N1418 1.613 . S
S1417 N1419 1.610 . S
N1418 S1417 1.613 . S
N1418 C1421 1.350 . S
N1419 S1417 1.610 . S
N1419 C1420 1.351 . S
C1420 C1414 1.428 . S
C1420 N1419 1.351 . S
C1420 C1421 1.434 . S
C1421 C1412 1.429 . S
C1421 N1418 1.350 . S
C1421 C1420 1.434 . S
C631 C7 1.516 . S
C633 C458 1.498 1_655 S
C642 C23 1.580 . S
C644 C471 1.556 . S
C655 C500 1.467 1_545 S
C653 C37 1.521 . S
C664 C35 1.510 . S
C666 C513 1.510 . S
C675 C9 1.545 1_455 S
C677 C534 1.529 . S
C686 C21 1.545 . S
C688 C563 1.498 . S
C697 C49 1.523 . S
C699 C542 1.512 . S
C710 C555 1.499 . S
C708 C65 1.554 . S
C721 C521 1.487 . S
C719 C79 1.524 1_565 S
C730 C77 1.510 . S
C732 C492 1.485 1_545 S
C743 C450 1.478 1_655 S
C741 C51 1.537 1_655 S
C752 C63 1.527 . S
C754 C479 1.532 . S
C763 C91 1.572 . S
C765 C584 1.537 . S
C774 C107 1.611 . S
C776 C597 1.593 . S
C787 C626 1.507 . S
C785 C121 1.619 . S
C796 C119 1.557 . S
C798 C261 1.588 . S
C807 C93 1.626 . S
C809 C282 1.599 . S
C818 C105 1.564 . S
C820 C311 1.521 . S
C829 C133 1.533 . S
C831 C290 1.537 . S
C840 C149 1.576 . S
C842 C303 1.516 . S
C853 C269 1.550 . S
C851 C163 1.586 . S
C864 C618 1.536 . S
C862 C161 1.563 . S
C875 C576 1.517 . S
C873 C135 1.597 . S
C886 C605 1.570 . S
C884 C147 1.556 . S
C895 C175 1.550 . S
C897 C332 1.504 . S
C906 C191 1.598 . S
C908 C345 1.576 . S
C917 C205 1.608 . S
C919 C374 1.511 . S
C928 C203 1.580 . S
C930 C387 1.615 . S
C941 C408 1.601 . S
C939 C177 1.630 . S
C952 C437 1.536 . S
C950 C189 1.573 . S
C963 C416 1.573 . S
C961 C217 1.566 . S
C974 C429 1.526 . S
C972 C233 1.588 . S
C983 C247 1.586 . S
C985 C395 1.557 . S
C996 C366 1.507 . S
C994 C245 1.537 . S
C1005 C219 1.592 . S
C1007 C324 1.520 . S
C1018 C353 1.559 . S
C1016 C231 1.547 . S
C1029 C264 1.423 . S
C1027 C8 1.525 . S
C1038 C17 1.488 . S
C1040 C285 1.373 . S
C1051 C313 1.416 . S
C1049 C31 1.528 . S
C1062 C334 1.411 . S
C1060 C36 1.527 . S
C1073 C348 1.407 . S
C1071 C3 1.519 . S
C1084 C376 1.369 . S
C1082 C22 1.490 . S
C1093 C50 1.552 . S
C1095 C369 1.370 . S
C1104 C59 1.505 . S
C1106 C327 1.332 . S
C1115 C73 1.537 . S
C1117 C355 1.460 . S
C1126 C78 1.555 . S
C1128 C292 1.473 . S
C1139 C306 1.363 . S
C1137 C45 1.532 . S
C1148 C64 1.513 . S
C1150 C271 1.433 . S
C1161 C390 1.417 . S
C1159 C92 1.530 . S
C1170 C101 1.548 . S
C1172 C411 1.424 . S
C1181 C115 1.560 . S
C1183 C439 1.428 . S
C1194 C460 1.391 . S
C1192 C120 1.482 . S
C1203 C87 1.520 . S
C1205 C474 1.404 . S
C1214 C106 1.470 . S
C1216 C502 1.388 . S
C1225 C134 1.491 . S
C1227 C495 1.368 . S
C1236 C143 1.485 . S
C1238 C453 1.341 . S
C1249 C481 1.450 . S
C1247 C157 1.543 . S
C1258 C162 1.539 . S
C1260 C418 1.453 . S
C1269 C129 1.574 . S
C1271 C432 1.394 . S
C1282 C397 1.466 . S
C1280 C148 1.562 . S
C1293 C516 1.360 1_545 S
C1291 C176 1.491 . S
C1302 C185 1.483 . S
C1304 C537 1.344 1_655 S
C1313 C199 1.526 . S
C1315 C565 1.412 . S
C1326 C586 1.388 . S
C1324 C204 1.516 . S
C1337 C600 1.435 . S
C1335 C171 1.558 . S
C1346 C190 1.542 . S
C1348 C628 1.410 . S
C1357 C218 1.550 . S
C1359 C621 1.377 . S
C1368 C227 1.563 . S
C1370 C579 1.380 . S
C1381 C607 1.469 . S
C1379 C241 1.570 . S
C1392 C544 1.395 1_655 S
C1390 C246 1.480 . S
C1403 C558 1.361 . S
C1401 C213 1.535 . S
C1412 C232 1.475 . S
C1414 C523 1.381 1_545 S
