# Generated by pormake.
# Topology zzz, (3,6)-cn, num edge types: 1
# Building blocks:
#     Node 0, Type 0, BuildingBlock: BELTOD_clean_linker_0, # of connection points: 3
#     Node 1, Type 0, BuildingBlock: BELTOD_clean_linker_0, # of connection points: 3
#     Node 2, Type 0, BuildingBlock: BELTOD_clean_linker_0, # of connection points: 3
#     Node 3, Type 0, BuildingBlock: BELTOD_clean_linker_0, # of connection points: 3
#     Node 4, Type 0, BuildingBlock: BELTOD_clean_linker_0, # of connection points: 3
#     Node 5, Type 0, BuildingBlock: BELTOD_clean_linker_0, # of connection points: 3
#     Node 6, Type 0, BuildingBlock: BELTOD_clean_linker_0, # of connection points: 3
#     Node 7, Type 0, BuildingBlock: BELTOD_clean_linker_0, # of connection points: 3
#     Node 8, Type 1, BuildingBlock: KUMBOL_clean_sbu_0, # of connection points: 6
#     Node 9, Type 1, BuildingBlock: KUMBOL_clean_sbu_0, # of connection points: 6
#     Node 10, Type 1, BuildingBlock: KUMBOL_clean_sbu_0, # of connection points: 6
#     Node 11, Type 1, BuildingBlock: KUMBOL_clean_sbu_0, # of connection points: 6
#     Edge 12, Type (0, 1), BuildingBlock: OJICUG_clean_linker_0, # of connection points: 2
#     Edge 13, Type (0, 1), BuildingBlock: OJICUG_clean_linker_0, # of connection points: 2
#     Edge 14, Type (0, 1), BuildingBlock: OJICUG_clean_linker_0, # of connection points: 2
#     Edge 15, Type (0, 1), BuildingBlock: OJICUG_clean_linker_0, # of connection points: 2
#     Edge 16, Type (0, 1), BuildingBlock: OJICUG_clean_linker_0, # of connection points: 2
#     Edge 17, Type (0, 1), BuildingBlock: OJICUG_clean_linker_0, # of connection points: 2
#     Edge 18, Type (0, 1), BuildingBlock: OJICUG_clean_linker_0, # of connection points: 2
#     Edge 19, Type (0, 1), BuildingBlock: OJICUG_clean_linker_0, # of connection points: 2
#     Edge 20, Type (0, 1), BuildingBlock: OJICUG_clean_linker_0, # of connection points: 2
#     Edge 21, Type (0, 1), BuildingBlock: OJICUG_clean_linker_0, # of connection points: 2
#     Edge 22, Type (0, 1), BuildingBlock: OJICUG_clean_linker_0, # of connection points: 2
#     Edge 23, Type (0, 1), BuildingBlock: OJICUG_clean_linker_0, # of connection points: 2
#     Edge 24, Type (0, 1), BuildingBlock: OJICUG_clean_linker_0, # of connection points: 2
#     Edge 25, Type (0, 1), BuildingBlock: OJICUG_clean_linker_0, # of connection points: 2
#     Edge 26, Type (0, 1), BuildingBlock: OJICUG_clean_linker_0, # of connection points: 2
#     Edge 27, Type (0, 1), BuildingBlock: OJICUG_clean_linker_0, # of connection points: 2
#     Edge 28, Type (0, 1), BuildingBlock: OJICUG_clean_linker_0, # of connection points: 2
#     Edge 29, Type (0, 1), BuildingBlock: OJICUG_clean_linker_0, # of connection points: 2
#     Edge 30, Type (0, 1), BuildingBlock: OJICUG_clean_linker_0, # of connection points: 2
#     Edge 31, Type (0, 1), BuildingBlock: OJICUG_clean_linker_0, # of connection points: 2
#     Edge 32, Type (0, 1), BuildingBlock: OJICUG_clean_linker_0, # of connection points: 2
#     Edge 33, Type (0, 1), BuildingBlock: OJICUG_clean_linker_0, # of connection points: 2
#     Edge 34, Type (0, 1), BuildingBlock: OJICUG_clean_linker_0, # of connection points: 2
#     Edge 35, Type (0, 1), BuildingBlock: OJICUG_clean_linker_0, # of connection points: 2
# Relax obj value: 0.332
# Max RMSD: 0.213
# Mean RMSD: 0.205
data_MOF--net-zzz--node1-KUMBOL_clean_sbu_0--node2-BELTOD_clean_linker_0--edge1-OJICUG_clean_linker_0
_symmetry_space_group_name_H-M    P1
_symmetry_Int_Tables_number       1
_symmetry_cell_setting            triclinic
loop_
_symmetry_equiv_pos_as_xyz
'x, y, z'
_cell_length_a     40.456776
_cell_length_b     40.361352
_cell_length_c     14.057355
_cell_angle_alpha  91.274018
_cell_angle_beta   90.183139
_cell_angle_gamma 89.985515
loop_
_atom_site_label
_atom_site_type_symbol
_atom_site_fract_x
_atom_site_fract_y
_atom_site_fract_z
_atom_type_partial_charge
P0 P 0.7476 0.5222 0.199 0.0
H1 H 0.79786 0.47356 0.2454 0.0
H2 H 0.84245 0.47262 0.35869 0.0
H3 H 0.80256 0.55961 0.50129 0.0
H4 H 0.75728 0.5607 0.38377 0.0
H5 H 0.68985 0.48028 0.22669 0.0
H6 H 0.63555 0.48229 0.15414 0.0
H7 H 0.65234 0.58433 0.08003 0.0
H8 H 0.70763 0.58125 0.14858 0.0
H9 H 0.76803 0.52161 1.00014 0.0
H10 H 0.77351 0.5896 0.24015 0.0
O11 O 0.7507 0.4861 0.13915 0.0
H12 H 0.81275 0.5497 0.92508 0.0
H13 H 0.8183 0.61929 0.16394 0.0
C14 C 0.77324 0.51686 0.30567 0.0
C15 C 0.79761 0.49196 0.30251 0.0
C16 C 0.82365 0.49145 0.36838 0.0
C17 C 0.82671 0.51596 0.4407 0.0
C18 C 0.80157 0.54037 0.44649 0.0
C19 C 0.7752 0.5408 0.37984 0.0
C20 C 0.70332 0.53048 0.19355 0.0
C21 C 0.68146 0.50358 0.19834 0.0
C22 C 0.65005 0.5048 0.15566 0.0
C23 C 0.63908 0.53333 0.10827 0.0
C24 C 0.65985 0.56145 0.11246 0.0
C25 C 0.69155 0.55997 0.15398 0.0
C26 C 0.76936 0.55189 0.1289 0.0
C27 C 0.7784 0.54329 0.03581 0.0
C28 C 0.80408 0.56003 0.99207 0.0
C29 C 0.82134 0.58559 0.04141 0.0
C30 C 0.8073 0.59834 0.12633 0.0
C31 C 0.78164 0.5813 0.1704 0.0
P32 P 1.00044 0.76833 0.17689 0.0
H33 H 0.05947 0.80597 0.23572 0.0
H34 H 0.06766 0.85114 0.35042 0.0
H35 H 0.97206 0.83135 0.47223 0.0
H36 H 0.96431 0.78521 0.35735 0.0
H37 H 0.05777 0.72693 0.13078 0.0
H38 H 0.06169 0.67204 0.05676 0.0
H39 H 0.95854 0.65495 0.11599 0.0
H40 H 0.95482 0.71046 0.19075 0.0
H41 H 0.95656 0.82583 0.21459 0.0
H42 H 0.95755 0.74003 0.02534 0.0
O43 O 0.02638 0.78291 0.09563 0.0
H44 H 0.92417 0.85501 0.10296 0.0
H45 H 0.92355 0.76917 0.914 0.0
C46 C 0.01092 0.79214 0.28579 0.0
C47 C 0.04044 0.81058 0.2883 0.0
C48 C 0.04494 0.83704 0.35362 0.0
C49 C 0.02013 0.84603 0.41939 0.0
C50 C 0.99179 0.82556 0.42274 0.0
C51 C 0.98739 0.79879 0.35728 0.0
C52 C 1.00589 0.7234 0.16561 0.0
C53 C 0.03618 0.71108 0.13132 0.0
C54 C 0.03833 0.67948 0.08801 0.0
C55 C 0.01024 0.65903 0.07797 0.0
C56 C 0.98054 0.6702 0.12018 0.0
C57 C 0.97854 0.70182 0.16474 0.0
C58 C 0.96088 0.78068 0.12878 0.0
C59 C 0.94837 0.81222 0.15194 0.0
C60 C 0.92947 0.82929 0.08596 0.0
C61 C 0.92507 0.81594 0.99303 0.0
C62 C 0.9294 0.78147 0.98118 0.0
C63 C 0.94874 0.76436 0.04645 0.0
P64 P 0.76855 1.00017 0.27716 0.0
H65 H 0.75667 0.05636 0.407 0.0
H66 H 0.71163 0.06618 0.51843 0.0
H67 H 0.68963 0.96151 0.51395 0.0
H68 H 0.73601 0.9517 0.40502 0.0
H69 H 0.81744 0.05287 0.25919 0.0
H70 H 0.86934 0.05293 0.17234 0.0
H71 H 0.8714 0.9461 0.17358 0.0
H72 H 0.81898 0.94615 0.26181 0.0
H73 H 0.70098 0.97432 0.26999 0.0
H74 H 0.78996 0.96286 0.10347 0.0
O75 O 0.75732 0.03542 0.22598 0.0
H76 H 0.66887 0.95619 0.138 0.0
H77 H 0.75747 0.94369 0.96958 0.0
C78 C 0.74912 1.00342 0.39418 0.0
C79 C 0.74315 0.03523 0.43274 0.0
C80 C 0.71681 0.04092 0.49557 0.0
C81 C 0.69569 0.01491 0.52175 0.0
C82 C 0.70481 0.98234 0.49427 0.0
C83 C 0.73163 0.97663 0.4321 0.0
C84 C 0.8134 0.99946 0.26409 0.0
C85 C 0.82943 0.02935 0.24415 0.0
C86 C 0.85911 0.02939 0.19327 0.0
C87 C 0.87383 0.9995 0.16223 0.0
C88 C 0.86045 0.96959 0.19491 0.0
C89 C 0.83054 0.96961 0.24633 0.0
C90 C 0.74847 0.96988 0.19966 0.0
C91 C 0.71424 0.96553 0.2079 0.0
C92 C 0.69543 0.95513 0.12982 0.0
C93 C 0.71026 0.95051 0.03981 0.0
C94 C 0.74495 0.94866 0.03635 0.0
C95 C 0.76385 0.95932 0.11464 0.0
P96 P 0.51929 0.79986 0.3148 0.0
H97 H 0.46795 0.7631 0.41292 0.0
H98 H 0.47014 0.71451 0.50956 0.0
H99 H 0.57545 0.72716 0.54403 0.0
H100 H 0.57297 0.77717 0.44748 0.0
H101 H 0.48961 0.86545 0.34323 0.0
H102 H 0.49843 0.91504 0.25287 0.0
H103 H 0.59377 0.87754 0.16338 0.0
H104 H 0.5838 0.8271 0.25057 0.0
H105 H 0.49383 0.77701 0.12993 0.0
H106 H 0.58419 0.76691 0.29036 0.0
O107 O 0.4792 0.80378 0.28833 0.0
H108 H 0.50951 0.73057 0.02902 0.0
H109 H 0.60009 0.71965 0.18956 0.0
C110 C 0.52039 0.77416 0.42065 0.0
C111 C 0.49155 0.75657 0.44364 0.0
C112 C 0.49279 0.72825 0.49942 0.0
C113 C 0.52305 0.71615 0.53381 0.0
C114 C 0.55171 0.73519 0.51724 0.0
C115 C 0.55031 0.76406 0.46224 0.0
C116 C 0.53543 0.84166 0.30176 0.0
C117 C 0.51302 0.86825 0.30714 0.0
C118 C 0.51813 0.89692 0.25432 0.0
C119 C 0.54626 0.9001 0.19611 0.0
C120 C 0.57099 0.87555 0.20301 0.0
C121 C 0.56559 0.84667 0.25492 0.0
C122 C 0.53679 0.7741 0.22156 0.0
C123 C 0.51749 0.76533 0.14227 0.0
C124 C 0.52689 0.73887 0.08321 0.0
C125 C 0.5557 0.7206 0.10306 0.0
C126 C 0.57736 0.73267 0.17401 0.0
C127 C 0.56798 0.7594 0.23269 0.0
P128 P 0.29849 0.44328 0.06871 0.0
H129 H 0.28743 0.44629 0.86189 0.0
H130 H 0.24084 0.46722 0.77081 0.0
H131 H 0.2047 0.51858 0.0224 0.0
H132 H 0.2522 0.49856 0.11214 0.0
H133 H 0.34997 0.40641 0.16146 0.0
H134 H 0.39508 0.42111 0.26906 0.0
H135 H 0.37141 0.52472 0.24006 0.0
H136 H 0.32559 0.50953 0.13151 0.0
H137 H 0.24654 0.39308 0.05479 0.0
H138 H 0.28363 0.46318 0.26483 0.0
O139 O 0.31039 0.41094 1.00108 0.0
H140 H 0.19489 0.3889 0.14282 0.0
H141 H 0.23229 0.46073 0.34974 0.0
C142 C 0.27361 0.47052 0.99474 0.0
C143 C 0.27026 0.46307 0.89704 0.0
C144 C 0.24304 0.47467 0.84502 0.0
C145 C 0.21809 0.49394 0.88921 0.0
C146 C 0.22311 0.50385 0.98512 0.0
C147 C 0.25058 0.49242 0.03693 0.0
C148 C 0.33471 0.45685 0.13632 0.0
C149 C 0.35475 0.4324 0.17663 0.0
C150 C 0.3805 0.44083 0.2393 0.0
C151 C 0.38722 0.47412 0.26371 0.0
C152 C 0.36736 0.4988 0.2221 0.0
C153 C 0.34114 0.49023 0.1597 0.0
C154 C 0.26881 0.42864 0.15279 0.0
C155 C 0.24414 0.4065 0.122 0.0
C156 C 0.2144 0.40446 0.17199 0.0
C157 C 0.20863 0.4254 0.25173 0.0
C158 C 0.23532 0.44411 0.28894 0.0
C159 C 0.26508 0.44573 0.23975 0.0
P160 P 0.07887 0.28172 0.13563 0.0
H161 H 0.0991 0.26499 0.93875 0.0
H162 H 0.08401 0.21919 0.8315 0.0
H163 H 1.0039 0.194 0.01963 0.0
H164 H 0.01764 0.24148 0.12151 0.0
H165 H 0.11673 0.34137 0.18225 0.0
H166 H 0.10239 0.39149 0.27076 0.0
H167 H 0.99901 0.36619 0.24779 0.0
H168 H 0.01375 0.31531 0.15844 0.0
H169 H 0.08559 0.21169 0.17972 0.0
H170 H 0.05976 0.30183 0.33378 0.0
O171 O 0.11952 0.28159 0.11572 0.0
H172 H 0.06102 0.1793 0.30604 0.0
H173 H 0.03477 0.26967 0.45782 0.0
C174 C 0.05984 0.25682 0.03949 0.0
C175 C 0.0775 0.25038 0.95516 0.0
C176 C 0.06919 0.22339 0.89451 0.0
C177 C 0.04324 0.2015 0.91705 0.0
C178 C 0.02399 0.20978 0.998 0.0
C179 C 0.03184 0.2373 0.05718 0.0
C180 C 0.06637 0.32446 0.16138 0.0
C181 C 0.09081 0.34701 0.19242 0.0
C182 C 0.08257 0.37571 0.245 0.0
C183 C 0.04954 0.38305 0.26829 0.0
C184 C 0.02475 0.36168 0.23115 0.0
C185 C 0.03309 0.33265 0.17864 0.0
C186 C 0.07246 0.25918 0.24356 0.0
C187 C 0.07527 0.22456 0.24121 0.0
C188 C 0.06127 0.20608 0.31337 0.0
C189 C 0.04493 0.22211 0.38959 0.0
C190 C 0.04667 0.25671 0.39892 0.0
C191 C 0.06055 0.27516 0.3265 0.0
P192 P 0.24857 0.09887 0.09736 0.0
H193 H 0.26448 0.09387 0.8925 0.0
H194 H 0.3121 0.07045 0.80873 0.0
H195 H 0.34398 0.02473 0.06884 0.0
H196 H 0.29543 0.04654 0.14951 0.0
H197 H 0.18446 0.12719 0.14567 0.0
H198 H 0.14065 0.1102 0.25201 0.0
H199 H 0.18923 0.01585 0.28646 0.0
H200 H 0.23344 0.03344 0.17967 0.0
H201 H 0.30972 0.13675 0.09128 0.0
H202 H 0.2482 0.09487 0.30803 0.0
O203 O 0.23691 0.13046 0.03038 0.0
H204 H 0.35806 0.12915 0.19193 0.0
H205 H 0.29614 0.08672 0.4071 0.0
C206 C 0.27591 0.07187 0.02757 0.0
C207 C 0.28103 0.07773 0.93058 0.0
C208 C 0.30889 0.06479 0.883 0.0
C209 C 0.33277 0.04595 0.93148 0.0
C210 C 0.32636 0.03858 0.02746 0.0
C211 C 0.29821 0.05103 0.07429 0.0
C212 C 0.21208 0.08141 0.15261 0.0
C213 C 0.18524 0.10238 0.17339 0.0
C214 C 0.16007 0.09261 0.23503 0.0
C215 C 0.16125 0.06165 0.27918 0.0
C216 C 0.18758 0.04006 0.25516 0.0
C217 C 0.21271 0.04986 0.19268 0.0
C218 C 0.27563 0.1147 0.18977 0.0
C219 C 0.3062 0.12782 0.16266 0.0
C220 C 0.33396 0.12336 0.22033 0.0
C221 C 0.33111 0.10578 0.30522 0.0
C222 C 0.29937 0.09964 0.34106 0.0
C223 C 0.2717 0.10397 0.28326 0.0
P224 P 0.43141 0.2314 0.05852 0.0
H225 H 0.42839 0.24772 0.85497 0.0
H226 H 0.44966 0.29594 0.77191 0.0
H227 H 0.51103 0.3207 1.01456 0.0
H228 H 0.49041 0.27216 0.09631 0.0
H229 H 0.39997 0.17188 0.12858 0.0
H230 H 0.41841 0.12857 0.23504 0.0
H231 H 0.51736 0.1684 0.22892 0.0
H232 H 0.4987 0.21161 0.12113 0.0
H233 H 0.38719 0.28827 0.05505 0.0
H234 H 0.45221 0.24261 0.25736 0.0
O235 O 0.39732 0.22045 0.99861 0.0
H236 H 0.39105 0.34064 0.14448 0.0
H237 H 0.45745 0.29447 0.34371 0.0
C238 C 0.45775 0.25595 0.98232 0.0
C239 C 0.4476 0.26251 0.88877 0.0
C240 C 0.45965 0.29034 0.8413 0.0
C241 C 0.48166 0.31252 0.88713 0.0
C242 C 0.49388 0.3043 0.97748 0.0
C243 C 0.48235 0.27618 0.02399 0.0
C244 C 0.44796 0.19492 0.11555 0.0
C245 C 0.4259 0.17071 0.14743 0.0
C246 C 0.43647 0.14588 0.20871 0.0
C247 C 0.46932 0.14504 0.24151 0.0
C248 C 0.49178 0.16845 0.20597 0.0
C249 C 0.48122 0.19308 0.1435 0.0
C250 C 0.41983 0.26161 0.14843 0.0
C251 C 0.401 0.28901 0.12121 0.0
C252 C 0.40361 0.31912 0.17182 0.0
C253 C 0.42559 0.32227 0.24932 0.0
C254 C 0.44037 0.29336 0.28431 0.0
C255 C 0.43751 0.2633 0.23419 0.0
Gd256 Gd 0.9852 0.02338 0.63519 0.0
Gd257 Gd 0.05278 1.01067 0.80192 0.0
C258 C 0.0854 0.1003 0.98747 0.0
C259 C 0.14364 0.10473 0.94874 0.0
C260 C 0.1095 0.06212 0.87232 0.0
C261 C 0.08242 0.07322 0.92249 0.0
C262 C 0.14063 0.07739 0.88582 0.0
C263 C 0.11606 0.11616 0.99961 0.0
C264 C 0.05751 0.11063 0.03841 0.0
C265 C 0.02768 0.09401 0.02418 0.0
N266 N 0.05317 0.05741 0.9082 0.0
C267 C 0.02594 0.06741 0.95886 0.0
H268 H 1.00233 0.05581 0.94805 0.0
C269 C 0.13274 0.02146 0.76993 0.0
N270 N 0.1057 0.03555 0.81284 0.0
C271 C 0.16403 0.03586 0.77998 0.0
C272 C 0.16796 0.06419 0.83756 0.0
H273 H 0.13006 0.99897 0.72739 0.0
H274 H 0.11876 0.13706 0.04876 0.0
H275 H 0.99861 0.05873 0.42576 0.0
H276 H 0.05873 0.13138 0.08858 0.0
H277 H 1.00584 0.10188 0.06282 0.0
H278 H 0.16728 0.11687 0.95961 0.0
H279 H 0.94773 0.95826 0.74448 0.0
H280 H 0.98978 0.98463 0.20459 0.0
H281 H 1.00297 0.04214 0.25566 0.0
H282 H 0.94284 0.89263 0.36625 0.0
H283 H 0.18513 0.02487 0.7442 0.0
H284 H 0.19228 0.07513 0.84619 0.0
H285 H 0.96689 0.92884 0.24644 0.0
H286 H 0.92376 0.90473 0.70131 0.0
N287 N 0.98545 1.01055 0.47048 0.0
C288 C 0.98779 0.99182 0.27898 0.0
C289 C 0.99546 0.02424 0.30758 0.0
C290 C 0.97639 0.9695 0.34621 0.0
C291 C 0.97524 0.97987 0.44273 0.0
C292 C 0.99331 0.03343 0.40379 0.0
N293 N 0.96238 0.96998 0.60301 0.0
C294 C 0.96247 0.95929 0.51058 0.0
C295 C 0.93452 0.91984 0.64679 0.0
C296 C 0.93544 0.90825 0.55274 0.0
C297 C 0.94824 0.95073 0.67088 0.0
C298 C 0.94971 0.92788 0.48331 0.0
H299 H 0.92535 0.88405 0.53466 0.0
O300 O 0.94145 0.04427 0.70281 0.0
O301 O 0.01611 0.04703 0.74986 0.0
O302 O 1.00498 1.00115 0.88229 0.0
O303 O 0.96217 0.01316 0.77719 0.0
O304 O 1.00845 0.07441 0.62952 0.0
O305 O 0.94745 0.04825 0.55211 0.0
O306 O 0.08777 0.97266 0.84221 0.0
O307 O 0.01669 0.98526 0.70142 0.0
O308 O 0.03379 0.02977 0.55387 0.0
O309 O 0.07663 0.02988 0.66681 0.0
O310 O 0.06595 0.97136 0.69117 0.0
O311 O 0.04784 0.98578 0.93659 0.0
C312 C 0.02222 0.07472 0.71243 0.0
C313 C 0.9518 0.91695 0.38797 0.0
C314 C 0.9655 0.93757 0.31975 0.0
C315 C 0.93168 0.05907 0.62694 0.0
C316 C 0.9278 0.09524 0.63818 0.0
C317 C 0.90806 0.10882 0.71118 0.0
C318 C 0.94774 0.1163 0.58526 0.0
C319 C 0.94945 0.15027 0.60695 0.0
C320 C 0.90908 0.14289 0.73202 0.0
C321 C 0.93006 0.16355 0.68109 0.0
C322 C 0.97323 1.00487 0.86191 0.0
C323 C 0.0368 0.9662 0.65734 0.0
C324 C 0.07114 0.96456 0.9167 0.0
C325 C 0.06219 0.92947 0.91965 0.0
C326 C 0.0861 0.90611 0.94456 0.0
C327 C 0.03067 0.91887 0.88984 0.0
C328 C 0.02277 0.88506 0.88592 0.0
C329 C 0.07857 0.87239 0.94013 0.0
C330 C 0.04716 0.86187 0.91125 0.0
C331 C 0.06547 0.03287 0.57828 0.0
H332 H 0.89279 0.09295 0.754 0.0
H333 H 0.96351 0.10601 0.52989 0.0
H334 H 0.89414 0.15318 0.78916 0.0
H335 H 0.93102 0.18976 0.69913 0.0
H336 H 0.11066 0.91394 0.96626 0.0
H337 H 0.01236 0.93685 0.86867 0.0
H338 H 0.09704 0.85436 0.95978 0.0
H339 H 0.04173 0.8356 0.91167 0.0
Gd340 Gd 0.51263 0.98704 0.65801 0.0
Gd341 Gd 0.51461 0.06565 0.79689 0.0
C342 C 0.42233 0.1112 0.93917 0.0
C343 C 0.41448 0.16132 0.84962 0.0
C344 C 0.46072 0.12454 0.81468 0.0
C345 C 0.45026 0.10319 0.88313 0.0
C346 C 0.44369 0.1545 0.79938 0.0
C347 C 0.40386 0.13974 0.91984 0.0
C348 C 0.41422 0.09073 1.01431 0.0
C349 C 0.43421 0.06358 0.0335 0.0
N350 N 0.46852 0.07558 0.89875 0.0
C351 C 0.46145 0.0565 0.97542 0.0
H352 H 0.47608 0.03526 0.99212 0.0
C353 C 0.50416 0.141 0.71529 0.0
N354 N 0.48924 0.11738 0.76878 0.0
C355 C 0.48812 0.17086 0.69666 0.0
C356 C 0.45733 0.17736 0.73732 0.0
H357 H 0.52842 0.13646 0.68594 0.0
H358 H 0.38193 0.14584 0.96068 0.0
H359 H 0.55419 0.01541 0.46782 0.0
H360 H 0.39302 0.09613 0.05877 0.0
H361 H 0.42854 0.04788 0.09265 0.0
H362 H 0.40063 0.18378 0.83706 0.0
H363 H 0.4977 0.92196 0.79377 0.0
H364 H 0.63415 0.94923 0.40771 0.0
H365 H 0.60203 0.99936 0.37011 0.0
H366 H 0.62002 0.86357 0.63395 0.0
H367 H 0.49967 0.18894 0.65177 0.0
H368 H 0.44505 0.20065 0.72377 0.0
H369 H 0.64117 0.89914 0.50804 0.0
H370 H 0.52328 0.86801 0.83029 0.0
N371 N 0.55936 0.97534 0.56317 0.0
C372 C 0.61314 0.95618 0.45142 0.0
C373 C 0.59504 0.98446 0.42987 0.0
C374 C 0.6034 0.93674 0.52757 0.0
C375 C 0.57581 0.94687 0.58226 0.0
C376 C 0.56787 0.99351 0.48593 0.0
N377 N 0.53626 0.9363 0.70078 0.0
C378 C 0.56399 0.92684 0.65337 0.0
C379 C 0.53512 0.88441 0.78095 0.0
C380 C 0.56486 0.87525 0.73761 0.0
C381 C 0.52073 0.91493 0.76022 0.0
C382 C 0.57932 0.8962 0.67146 0.0
H383 H 0.57587 0.85151 0.7534 0.0
O384 O 0.47288 0.95196 0.62946 0.0
O385 O 0.48239 0.02677 0.73039 0.0
O386 O 0.51846 0.01973 0.8907 0.0
O387 O 0.54073 0.97787 0.79428 0.0
O388 O 0.46883 0.97822 0.75402 0.0
O389 O 0.50027 0.97325 0.51298 0.0
O390 O 0.54887 0.10512 0.8343 0.0
O391 O 0.5441 0.02735 0.71772 0.0
O392 O 0.50601 0.03043 0.55707 0.0
O393 O 0.49544 0.07816 0.65016 0.0
O394 O 0.55784 0.07585 0.69938 0.0
O395 O 0.5397 0.06615 0.93376 0.0
C396 C 0.46133 1.00878 0.77108 0.0
C397 C 0.60773 0.88686 0.62042 0.0
C398 C 0.61975 0.90709 0.54863 0.0
C399 C 0.47595 0.95408 0.53755 0.0
C400 C 0.44552 0.95771 0.48298 0.0
C401 C 0.43264 0.93008 0.43354 0.0
C402 C 0.43097 0.98895 0.47284 0.0
C403 C 0.40508 0.99299 0.40781 0.0
C404 C 0.40576 0.93374 0.37235 0.0
C405 C 0.39228 0.9651 0.35844 0.0
C406 C 0.53376 0.99071 0.87942 0.0
C407 C 0.565 0.04557 0.67744 0.0
C408 C 0.55857 0.09097 0.91141 0.0
C409 C 0.59428 0.08553 0.91698 0.0
C410 C 0.61533 0.11219 0.93825 0.0
C411 C 0.60761 0.05433 0.89343 0.0
C412 C 0.6419 0.0491 0.89484 0.0
C413 C 0.64948 0.10758 0.93736 0.0
C414 C 0.66273 0.07631 0.91659 0.0
C415 C 0.49785 0.06224 0.5668 0.0
H416 H 0.44379 0.90585 0.44084 0.0
H417 H 0.44091 1.01022 0.51165 0.0
H418 H 0.39591 0.91241 0.33379 0.0
H419 H 0.37203 0.96765 0.30851 0.0
H420 H 0.60536 0.13657 0.95461 0.0
H421 H 0.59116 0.0341 0.87443 0.0
H422 H 0.66574 0.12818 0.95436 0.0
H423 H 0.68927 0.07338 0.92139 0.0
Gd424 Gd 0.46806 0.52069 0.74977 0.0
Gd425 Gd 0.54876 0.50188 0.63895 0.0
C426 C 0.63953 0.49233 0.83621 0.0
C427 C 0.67529 0.53597 0.78047 0.0
C428 C 0.62135 0.52653 0.70684 0.0
C429 C 0.61538 0.50091 0.76783 0.0
C430 C 0.65172 0.54388 0.71116 0.0
C431 C 0.6692 0.51023 0.84289 0.0
C432 C 0.63311 0.46619 0.89672 0.0
C433 C 0.60338 0.44916 0.8882 0.0
N434 N 0.58599 0.48462 0.76121 0.0
C435 C 0.58019 0.45856 0.82003 0.0
H436 H 0.55747 0.44511 0.81884 0.0
C437 C 0.60539 0.55558 0.57063 0.0
N438 N 0.59808 0.53375 0.64088 0.0
C439 C 0.63489 0.57355 0.57234 0.0
C440 C 0.65797 0.56808 0.64397 0.0
H441 H 0.5882 0.55928 0.51273 0.0
H442 H 0.6877 0.50422 0.89573 0.0
H443 H 0.45697 0.58149 0.58454 0.0
H444 H 0.65087 0.45906 0.95041 0.0
H445 H 0.59805 0.42894 0.93508 0.0
H446 H 0.69854 0.54924 0.78534 0.0
H447 H 0.42903 0.45914 0.86568 0.0
H448 H 0.36928 0.56101 0.42797 0.0
H449 H 0.41797 0.59618 0.46165 0.0
H450 H 0.32622 0.46363 0.56859 0.0
H451 H 0.63993 0.59134 0.51774 0.0
H452 H 0.68096 0.58187 0.64488 0.0
H453 H 0.33584 0.51125 0.46654 0.0
H454 H 0.38039 0.42338 0.84585 0.0
N455 N 0.43167 0.53741 0.62564 0.0
C456 C 0.38637 0.55434 0.48392 0.0
C457 C 0.41378 0.57422 0.50274 0.0
C458 C 0.38117 0.52624 0.53797 0.0
C459 C 0.40429 0.51848 0.60994 0.0
C460 C 0.43611 0.56551 0.57399 0.0
N461 N 0.42112 0.48522 0.73673 0.0
C462 C 0.39911 0.49139 0.66631 0.0
C463 C 0.38561 0.44199 0.79371 0.0
C464 C 0.36427 0.44636 0.71717 0.0
C465 C 0.4135 0.46217 0.80372 0.0
C466 C 0.37041 0.47174 0.65357 0.0
H467 H 0.34247 0.43089 0.70997 0.0
O468 O 0.44125 0.5225 0.88297 0.0
O469 O 0.52315 0.52328 0.76644 0.0
O470 O 0.52564 0.45307 0.68589 0.0
O471 O 0.47733 0.46638 0.76891 0.0
O472 O 0.49652 0.50832 0.8832 0.0
O473 O 0.44855 0.56739 0.80425 0.0
O474 O 0.57342 0.49839 0.50273 0.0
O475 O 0.49371 0.49967 0.62203 0.0
O476 O 0.49198 0.56929 0.70609 0.0
O477 O 0.54317 0.55818 0.63544 0.0
O478 O 0.52021 0.51792 0.50906 0.0
O479 O 0.56408 0.45388 0.58114 0.0
C480 C 0.52563 0.51537 0.85291 0.0
C481 C 0.34811 0.47869 0.58001 0.0
C482 C 0.3535 0.50588 0.52227 0.0
C483 C 0.43968 0.55462 0.88477 0.0
C484 C 0.45298 0.57039 0.97147 0.0
C485 C 0.43549 0.56845 0.05697 0.0
C486 C 0.48395 0.58601 0.97024 0.0
C487 C 0.49675 0.6014 0.05277 0.0
C488 C 0.44855 0.58265 0.14023 0.0
C489 C 0.47886 0.59912 0.13837 0.0
C490 C 0.49967 0.44499 0.73812 0.0
C491 C 0.49121 0.50956 0.53754 0.0
C492 C 0.57421 0.46628 0.50138 0.0
C493 C 0.56253 0.45058 0.41243 0.0
C494 C 0.5834 0.45046 0.33311 0.0
C495 C 0.53054 0.43724 0.40425 0.0
C496 C 0.51965 0.42295 0.31739 0.0
C497 C 0.57271 0.43677 0.2466 0.0
C498 C 0.54119 0.42302 0.23861 0.0
C499 C 0.51938 0.57898 0.66271 0.0
H500 H 0.4118 0.55597 0.05925 0.0
H501 H 0.49776 0.58686 0.9044 0.0
H502 H 0.43476 0.58171 0.20595 0.0
H503 H 0.48734 0.61144 0.20314 0.0
H504 H 0.60798 0.46106 0.3381 0.0
H505 H 0.51432 0.43791 0.46545 0.0
H506 H 0.58904 0.4364 0.18574 0.0
H507 H 0.53425 0.41142 0.17129 0.0
Gd508 Gd 0.01684 0.47846 0.7454 0.0
Gd509 Gd 0.02679 0.55587 0.61735 0.0
C510 C 0.0116 0.65831 0.75857 0.0
C511 C 0.96118 0.67699 0.68255 0.0
C512 C 0.98514 0.62352 0.63851 0.0
C513 C 1.01004 0.62836 0.7047 0.0
C514 C 0.96113 0.64832 0.62413 0.0
C515 C 0.98638 0.68197 0.74979 0.0
C516 C 0.03916 0.66426 0.81657 0.0
C517 C 0.06495 0.64138 0.8164 0.0
N518 N 0.03419 0.60508 0.71071 0.0
C519 C 0.06232 0.61213 0.76165 0.0
H520 H 0.08307 0.59556 0.76149 0.0
C521 C 0.96594 0.59305 0.50401 0.0
N522 N 0.98616 0.59588 0.58222 0.0
C523 C 0.94174 0.61693 0.48679 0.0
C524 C 0.93881 0.64434 0.54846 0.0
H525 H 0.96787 0.57165 0.45667 0.0
H526 H 0.98689 0.70479 0.79189 0.0
H527 H 0.96653 0.43862 0.58527 0.0
H528 H 0.0413 0.68691 0.85899 0.0
H529 H 0.08695 0.64626 0.85844 0.0
H530 H 0.94264 0.69607 0.67361 0.0
H531 H 0.07848 0.46918 0.90273 0.0
H532 H 0.01049 0.3461 0.5077 0.0
H533 H 0.96534 0.38686 0.49216 0.0
H534 H 0.10564 0.3406 0.70967 0.0
H535 H 0.92523 0.61403 0.42644 0.0
H536 H 0.92009 0.66286 0.53494 0.0
H537 H 0.06293 0.32924 0.58837 0.0
H538 H 0.1225 0.42892 0.93866 0.0
N539 N 0.01245 0.42867 0.65367 0.0
C540 C 0.01116 0.36897 0.54954 0.0
C541 C 0.98563 0.39188 0.54073 0.0
C542 C 0.03689 0.37554 0.61379 0.0
C543 C 0.03674 0.40585 0.66606 0.0
C544 C 0.98644 0.42147 0.59437 0.0
N545 N 0.05935 0.44104 0.78495 0.0
C546 C 0.06091 0.41225 0.73371 0.0
C547 C 0.10546 0.42397 0.88053 0.0
C548 C 0.10839 0.39498 0.82525 0.0
C549 C 0.08046 0.44666 0.86009 0.0
C550 C 0.08572 0.38857 0.75168 0.0
H551 H 0.12777 0.3774 0.84126 0.0
O552 O 0.01142 0.45749 0.8847 0.0
O553 O 0.01173 0.53383 0.75369 0.0
O554 O 0.07336 0.54267 0.70446 0.0
O555 O 0.07061 0.48541 0.70832 0.0
O556 O 0.03274 0.51202 0.86985 0.0
O557 O 0.96809 0.46517 0.79686 0.0
O558 O 0.03483 0.58044 0.48382 0.0
O559 O 0.03037 0.50089 0.60854 0.0
O560 O 0.96906 0.48984 0.66367 0.0
O561 O 0.97152 0.54648 0.63532 0.0
O562 O 0.01073 0.52302 0.49133 0.0
O563 O 0.07661 0.56226 0.56328 0.0
C564 C 0.02295 0.5397 0.83628 0.0
C565 C 0.08663 0.35895 0.69747 0.0
C566 C 0.06229 0.35247 0.62851 0.0
C567 C 0.9794 0.45877 0.88171 0.0
C568 C 0.96453 0.47667 0.96273 0.0
C569 C 0.96552 0.46253 0.05269 0.0
C570 C 0.95183 0.50881 0.95257 0.0
C571 C 0.93816 0.52626 0.0309 0.0
C572 C 0.95332 0.47999 0.13155 0.0
C573 C 0.93946 0.51134 0.12095 0.0
C574 C 0.08742 0.51332 0.71814 0.0
C575 C 0.01936 0.49502 0.52572 0.0
C576 C 0.06622 0.57393 0.48285 0.0
C577 C 0.07834 0.55797 0.39473 0.0
C578 C 0.07653 0.57547 0.30996 0.0
C579 C 0.09076 0.52538 0.3934 0.0
C580 C 0.10249 0.5107 0.30814 0.0
C581 C 0.0874 0.56089 0.22507 0.0
C582 C 0.1004 0.52896 0.22389 0.0
C583 C 0.95497 0.51811 0.63793 0.0
H584 H 0.97599 0.43809 0.06199 0.0
H585 H 0.95236 0.51988 0.8832 0.0
H586 H 0.95387 0.46888 0.20089 0.0
H587 H 0.92849 0.52296 0.1833 0.0
H588 H 0.06679 0.60049 0.30955 0.0
H589 H 0.09165 0.51177 0.45885 0.0
H590 H 0.08669 0.57463 0.16015 0.0
H591 H 0.11015 0.51937 0.15718 0.0
C592 C 0.10305 0.06317 0.34648 0.0
C593 C 0.1363 0.05305 0.35395 0.0
H594 H 0.05528 0.06569 0.41118 0.0
C595 C 0.14582 0.03607 0.43617 0.0
H596 H 0.0945 0.07608 0.28433 0.0
C597 C 0.12298 0.02969 0.50859 0.0
C598 C 0.08987 0.04004 0.50143 0.0
H599 H 0.17118 0.02823 0.44578 0.0
H600 H 0.13132 0.01626 0.5697 0.0
C601 C 0.08028 0.0568 0.41907 0.0
C602 C 0.498 0.13432 0.39691 0.0
C603 C 0.47901 0.12226 0.31974 0.0
H604 H 0.51967 0.12456 0.53178 0.0
C605 C 0.46788 0.08916 0.32166 0.0
H606 H 0.50706 0.15957 0.39843 0.0
C607 C 0.47494 0.06909 0.3999 0.0
C608 C 0.49237 0.08193 0.47929 0.0
H609 H 0.45364 0.07882 0.26278 0.0
H610 H 0.46614 0.04384 0.39887 0.0
C611 C 0.50457 0.11444 0.47507 0.0
C612 C 0.42045 0.46307 0.41352 0.0
C613 C 0.41443 0.48269 0.33331 0.0
H614 H 0.44921 0.45604 0.54055 0.0
C615 C 0.43488 0.51037 0.31993 0.0
H616 H 0.4054 0.44149 0.42667 0.0
C617 C 0.45987 0.51876 0.38577 0.0
C618 C 0.46469 0.50011 0.46802 0.0
H619 H 0.43174 0.5254 0.2579 0.0
H620 H 0.47505 0.54034 0.37333 0.0
C621 C 0.44535 0.47158 0.47964 0.0
C622 C 0.06246 0.41984 0.41276 0.0
C623 C 0.04152 0.41171 0.33501 0.0
H624 H 0.07202 0.45209 0.53349 0.0
C625 C 0.01301 0.4312 0.3224 0.0
H626 H 0.08447 0.4054 0.42617 0.0
C627 C 1.00579 0.45789 0.38504 0.0
C628 C 0.02644 0.46548 0.46328 0.0
H629 H 0.9965 0.42619 0.26307 0.0
H630 H 0.98386 0.47259 0.37251 0.0
C631 C 0.0551 0.44638 0.4756 0.0
C632 C 0.92876 0.98057 0.09083 0.0
C633 C 0.89989 0.99997 0.08652 0.0
H634 H 0.97537 0.96769 0.0256 0.0
C635 C 0.89533 0.02001 1.00693 0.0
H636 H 0.93274 0.96456 0.15036 0.0
C637 C 0.91887 0.02092 0.93442 0.0
C638 C 0.9482 1.0023 0.93947 0.0
H639 H 0.87315 0.03482 0.99992 0.0
H640 H 0.91421 0.03687 0.87495 0.0
C641 C 0.95304 0.98228 0.01917 0.0
C642 C 0.56285 0.91926 0.03209 0.0
C643 C 0.54759 0.92614 0.12052 0.0
H644 H 0.57191 0.93459 0.88975 0.0
C645 C 0.53097 0.95675 0.13149 0.0
H646 H 0.57586 0.89619 0.01911 0.0
C647 C 0.52771 0.97842 0.05494 0.0
C648 C 0.54105 0.9703 0.96498 0.0
H649 H 0.51972 0.96378 0.1987 0.0
H650 H 0.51386 1.00106 0.06599 0.0
C651 C 0.55994 0.94112 0.9563 0.0
C652 C 0.60443 0.55154 0.96581 0.0
C653 C 0.60778 0.53248 0.04867 0.0
H654 H 0.5759 0.56157 0.83975 0.0
C655 C 0.5818 0.51055 0.06963 0.0
H656 H 0.62344 0.56888 0.94599 0.0
C657 C 0.55524 0.50561 1.0065 0.0
C658 C 0.55351 0.52256 0.92035 0.0
H659 H 0.58209 0.4966 0.13434 0.0
H660 H 0.53644 0.48765 0.02398 0.0
C661 C 0.5774 0.54695 0.90331 0.0
C662 C 0.98665 0.61783 0.95524 0.0
C663 C 0.01199 0.6272 0.01979 0.0
H664 H 0.97056 0.58358 0.84446 0.0
C665 C 0.04027 0.60696 0.0236 0.0
H666 H 0.96456 0.6328 0.94937 0.0
C667 C 0.04344 0.57861 0.96459 0.0
C668 C 0.019 0.57028 0.89692 0.0
H669 H 0.06022 0.61331 0.07191 0.0
H670 H 0.06558 0.56366 0.96996 0.0
C671 C 0.99024 0.58986 0.89407 0.0
C672 C 0.01925 0.20872 0.54705 0.0
C673 C 0.02132 0.20359 0.44799 0.0
H674 H 0.99456 0.19563 0.67595 0.0
C675 C 0.99845 0.18255 0.40192 0.0
H676 H 0.03645 0.22511 0.58392 0.0
C677 C 0.97433 0.16648 0.45362 0.0
C678 C 0.97265 0.17079 0.55281 0.0
H679 H 0.99878 0.17898 0.3253 0.0
H680 H 0.95705 0.1504 0.4159 0.0
C681 C 0.99512 0.19225 0.59931 0.0
C682 C 0.36295 0.07634 0.43231 0.0
C683 C 0.3585 0.08404 0.33593 0.0
H684 H 0.38165 0.041 0.53129 0.0
C685 C 0.37432 0.06434 0.26598 0.0
H686 H 0.35105 0.09108 0.48769 0.0
C687 C 0.39107 0.03573 0.2906 0.0
C688 C 0.39268 0.0263 0.38572 0.0
H689 H 0.37094 0.06899 0.19115 0.0
H690 H 0.40115 0.01989 0.23458 0.0
C691 C 0.38019 0.04767 0.45716 0.0
C692 C 0.45285 0.36066 0.3693 0.0
C693 C 0.43969 0.35516 0.27755 0.0
H694 H 0.48908 0.38604 0.45402 0.0
C695 C 0.44706 0.37809 0.20663 0.0
H696 H 0.44689 0.34418 0.42652 0.0
C697 C 0.47047 0.40291 0.22333 0.0
C698 C 0.48767 0.4048 0.3103 0.0
H699 H 0.43729 0.37516 0.13518 0.0
H700 H 0.47701 0.41881 0.16525 0.0
C701 C 0.47691 0.38501 0.38533 0.0
C702 C 0.14987 0.43794 0.20934 0.0
C703 C 0.1743 0.43469 0.28012 0.0
H704 H 0.10616 0.46296 0.16542 0.0
C705 C 0.16806 0.44865 0.37094 0.0
H706 H 0.1529 0.42703 0.13892 0.0
C707 C 0.14208 0.47105 0.38424 0.0
C708 C 0.12113 0.47882 0.30773 0.0
H709 H 0.18539 0.44532 0.42883 0.0
H710 H 0.14089 0.48464 0.45135 0.0
C711 C 0.12319 0.4593 0.22386 0.0
C712 C 0.95392 0.82559 0.84001 0.0
C713 C 0.93213 0.838 0.91066 0.0
H714 H 1.00209 0.83087 0.77977 0.0
C715 C 0.93249 0.87259 0.92716 0.0
H716 H 0.9527 0.80016 0.81447 0.0
C717 C 0.96149 0.8902 0.9091 0.0
C718 C 0.98844 0.87382 0.86608 0.0
H719 H 0.91387 0.88437 0.97153 0.0
H720 H 0.96412 0.91482 0.94001 0.0
C721 C 0.98274 0.84309 0.82048 0.0
C722 C 0.65639 0.96039 0.95704 0.0
C723 C 0.69115 0.96065 0.95394 0.0
H724 H 0.61318 0.99011 0.94768 0.0
C725 C 0.70627 0.9828 0.89113 0.0
H726 H 0.64342 0.94204 0.99782 0.0
C727 C 0.68858 1.00991 0.85821 0.0
C728 C 0.65578 0.01495 0.88749 0.0
H729 H 0.7327 0.98281 0.87996 0.0
H730 H 0.70173 0.02882 0.82005 0.0
C731 C 0.63886 0.98815 0.92749 0.0
C732 C 0.56138 0.66092 0.13838 0.0
C733 C 0.55729 0.68551 0.06986 0.0
H734 H 0.54576 0.6134 0.18509 0.0
C735 C 0.54373 0.67637 0.98103 0.0
H736 H 0.57252 0.66667 0.20692 0.0
C737 C 0.52731 0.64616 0.9699 0.0
C738 C 0.52519 0.62451 0.04686 0.0
H739 H 0.54142 0.69441 0.92543 0.0
H740 H 0.5128 0.64214 0.90585 0.0
C741 C 0.54548 0.63045 0.12665 0.0
C742 C 0.87954 0.59393 0.09823 0.0
C743 C 0.85734 0.59037 0.02112 0.0
H744 H 0.92488 0.57773 0.15961 0.0
C745 C 0.87037 0.57901 0.93361 0.0
H746 H 0.87197 0.60474 0.16576 0.0
C747 C 0.89993 0.56115 0.93221 0.0
C748 C 0.91784 0.5568 1.01726 0.0
H749 H 0.85538 0.57886 0.86966 0.0
H750 H 0.90589 0.54757 0.86739 0.0
C751 C 0.90993 0.57757 0.09558 0.0
C752 C 0.06365 0.15323 0.81135 0.0
C753 C 0.03751 0.1695 0.86026 0.0
H754 H 0.07935 0.111 0.7263 0.0
C755 C 1.00619 0.15397 0.85717 0.0
H756 H 0.08833 0.1635 0.81209 0.0
C757 C 1.00158 0.1231 0.8106 0.0
C758 C 0.02797 0.10672 0.76497 0.0
H759 H 0.98495 0.1656 0.89038 0.0
H760 H 0.97726 0.1119 0.81041 0.0
C761 C 0.05876 0.12264 0.76308 0.0
C762 C 0.38164 1.00671 0.91303 0.0
C763 C 0.36483 0.03548 0.88457 0.0
H764 H 0.42501 0.97634 0.90063 0.0
C765 C 0.3799 0.05483 0.81401 0.0
H766 H 0.37085 0.99036 0.96439 0.0
C767 C 0.41109 0.04633 0.77637 0.0
C768 C 0.42835 0.01864 0.80935 0.0
H769 H 0.36828 0.07729 0.78993 0.0
H770 H 0.42196 0.06178 0.72275 0.0
C771 C 0.41277 0.99844 0.87588 0.0
C772 C 0.48316 0.37444 0.90529 0.0
C773 C 0.48826 0.34604 0.84751 0.0
H774 H 0.48251 0.42741 0.91562 0.0
C775 C 0.49799 0.35034 0.75228 0.0
H776 H 0.47532 0.37215 0.97848 0.0
C777 C 0.50269 0.38237 0.71628 0.0
C778 C 0.49667 0.41064 0.77401 0.0
H779 H 0.50203 0.32895 0.70589 0.0
H780 H 0.51015 0.38503 0.64291 0.0
C781 C 0.48699 0.40618 0.86889 0.0
C782 C 0.16799 0.53057 0.85455 0.0
C783 C 0.18592 0.50095 0.83827 0.0
H784 H 0.12331 0.55803 0.82903 0.0
C785 C 0.1718 0.47688 0.77624 0.0
H786 H 0.17789 0.54987 0.90111 0.0
C787 C 0.1407 0.48177 0.73428 0.0
C788 C 0.12241 0.51086 0.75269 0.0
H789 H 0.18415 0.45346 0.76271 0.0
H790 H 0.13049 0.46215 0.68926 0.0
C791 C 0.13676 0.5355 0.81207 0.0
C792 C 0.01149 0.87901 0.57456 0.0
C793 C 0.02347 0.87725 0.48049 0.0
H794 H 1.00561 0.90859 0.70248 0.0
C795 C 0.03874 0.90592 0.44481 0.0
H796 H 0.99995 0.85765 0.60568 0.0
C797 C 0.04215 0.935 0.50123 0.0
C798 C 0.02955 0.9368 0.59418 0.0
H799 H 0.04796 0.90608 0.37262 0.0
H800 H 0.05455 0.95625 0.47191 0.0
C801 C 0.01469 0.90827 0.63046 0.0
C802 C 0.6444 0.05014 0.53623 0.0
C803 C 0.66262 0.02248 0.56632 0.0
H804 H 0.59973 0.07851 0.54696 0.0
C805 C 0.64809 1.00197 0.63467 0.0
H806 H 0.65412 0.06626 0.4825 0.0
C807 C 0.61633 1.00901 0.67125 0.0
C808 C 0.59812 0.03631 0.63886 0.0
H809 H 0.66128 0.98057 0.66022 0.0
H810 H 0.60601 0.99311 0.7246 0.0
C811 C 0.6129 0.05705 0.57244 0.0
C812 C 0.55002 0.66001 0.55489 0.0
C813 C 0.52453 0.68247 0.57828 0.0
H814 H 0.56856 0.61066 0.56219 0.0
C815 C 0.49883 0.67114 0.6369 0.0
H816 H 0.57009 0.66742 0.5092 0.0
C817 C 0.49792 0.63815 0.66731 0.0
C818 C 0.52259 0.61519 0.63991 0.0
H819 H 0.47893 0.68765 0.65795 0.0
H820 H 0.47724 0.63048 0.71029 0.0
C821 C 0.54902 0.62702 0.58506 0.0
C822 C 0.87347 0.48701 0.52835 0.0
C823 C 0.85713 0.51663 0.5043 0.0
H824 H 0.91601 0.46404 0.58947 0.0
C825 C 0.87169 0.54668 0.53604 0.0
H826 H 0.86285 0.46317 0.50904 0.0
C827 C 0.90231 0.54704 0.58444 0.0
C828 C 0.91986 0.51751 0.60113 0.0
H829 H 0.86016 0.57014 0.52038 0.0
H830 H 0.91251 0.57064 0.6073 0.0
C831 C 0.9042 0.48745 0.5756 0.0
loop_
_geom_bond_atom_site_label_1
_geom_bond_atom_site_label_2
_geom_bond_distance
_geom_bond_site_symmetry_2
_ccdc_geom_bond_type
P0 O11 1.490 . S
P0 C14 1.812 . S
P0 C20 1.803 . S
P0 C26 1.819 . S
H1 C15 0.941 . S
H2 C16 0.939 . S
H3 C18 0.940 . S
H4 C19 0.940 . S
H5 C21 0.939 . S
H6 C22 0.942 . S
H7 C24 0.940 . S
H8 C25 0.939 . S
H9 C27 0.941 . S
H10 C31 0.939 . S
O11 P0 1.490 . S
H12 C28 0.939 . S
H13 C30 0.940 . S
C14 P0 1.812 . S
C14 C15 1.389 . S
C14 C19 1.391 . S
C15 H1 0.941 . S
C15 C14 1.389 . S
C15 C16 1.397 . S
C16 H2 0.939 . S
C16 C15 1.397 . S
C16 C17 1.378 . S
C17 C16 1.378 . S
C17 C18 1.378 . S
C18 H3 0.940 . S
C18 C17 1.378 . S
C18 C19 1.396 . S
C19 H4 0.940 . S
C19 C14 1.391 . S
C19 C18 1.396 . S
C20 P0 1.803 . S
C20 C21 1.378 . S
C20 C25 1.400 . S
C21 H5 0.939 . S
C21 C20 1.378 . S
C21 C22 1.361 . S
C22 H6 0.942 . S
C22 C21 1.361 . S
C22 C23 1.369 . S
C23 C22 1.369 . S
C23 C24 1.404 . S
C24 H7 0.940 . S
C24 C23 1.404 . S
C24 C25 1.389 . S
C25 H8 0.939 . S
C25 C20 1.400 . S
C25 C24 1.389 . S
C26 P0 1.819 . S
C26 C27 1.391 . S
C26 C31 1.391 . S
C27 H9 0.941 . S
C27 C26 1.391 . S
C27 C28 1.396 . S
C28 H12 0.939 . S
C28 C27 1.396 . S
C28 C29 1.397 . S
C29 C28 1.397 . S
C29 C30 1.385 . S
C30 H13 0.940 . S
C30 C29 1.385 . S
C30 C31 1.388 . S
C31 H10 0.939 . S
C31 C26 1.391 . S
C31 C30 1.388 . S
P32 O43 1.490 1_655 S
P32 C46 1.812 . S
P32 C52 1.803 . S
P32 C58 1.819 . S
H33 C47 0.941 1_455 S
H34 C48 0.939 . S
H35 C50 0.940 . S
H36 C51 0.940 . S
H37 C53 0.939 1_455 S
H38 C54 0.942 . S
H39 C56 0.940 . S
H40 C57 0.939 . S
H41 C59 0.941 1_455 S
H42 C63 0.939 . S
O43 P32 1.490 1_455 S
H44 C60 0.939 . S
H45 C62 0.940 . S
C46 P32 1.812 . S
C46 C47 1.389 . S
C46 C51 1.391 . S
C47 H33 0.941 1_655 S
C47 C46 1.389 . S
C47 C48 1.397 . S
C48 H34 0.939 . S
C48 C47 1.397 . S
C48 C49 1.378 . S
C49 C48 1.378 . S
C49 C50 1.378 . S
C50 H35 0.940 . S
C50 C49 1.378 . S
C50 C51 1.396 . S
C51 H36 0.940 . S
C51 C46 1.391 . S
C51 C50 1.396 . S
C52 P32 1.803 . S
C52 C53 1.378 . S
C52 C57 1.400 . S
C53 H37 0.939 1_655 S
C53 C52 1.378 . S
C53 C54 1.361 . S
C54 H38 0.942 . S
C54 C53 1.361 . S
C54 C55 1.369 . S
C55 C54 1.369 . S
C55 C56 1.404 . S
C56 H39 0.940 . S
C56 C55 1.404 . S
C56 C57 1.389 . S
C57 H40 0.939 . S
C57 C52 1.400 . S
C57 C56 1.389 . S
C58 P32 1.819 . S
C58 C59 1.391 . S
C58 C63 1.391 . S
C59 H41 0.941 1_655 S
C59 C58 1.391 . S
C59 C60 1.396 . S
C60 H44 0.939 . S
C60 C59 1.396 . S
C60 C61 1.397 . S
C61 C60 1.397 . S
C61 C62 1.385 . S
C62 H45 0.940 . S
C62 C61 1.385 . S
C62 C63 1.388 . S
C63 H42 0.939 . S
C63 C58 1.391 . S
C63 C62 1.388 . S
P64 O75 1.490 . S
P64 C78 1.812 1_545 S
P64 C84 1.803 1_545 S
P64 C90 1.819 1_545 S
H65 C79 0.941 . S
H66 C80 0.939 1_545 S
H67 C82 0.940 . S
H68 C83 0.940 . S
H69 C85 0.939 . S
H70 C86 0.942 1_545 S
H71 C88 0.940 . S
H72 C89 0.939 . S
H73 C91 0.941 1_545 S
H74 C95 0.939 . S
O75 P64 1.490 . S
H76 C92 0.939 . S
H77 C94 0.940 . S
C78 P64 1.812 1_565 S
C78 C79 1.389 1_565 S
C78 C83 1.391 . S
C79 H65 0.941 . S
C79 C78 1.389 1_545 S
C79 C80 1.397 1_545 S
C80 H66 0.939 1_565 S
C80 C79 1.397 1_565 S
C80 C81 1.378 . S
C81 C80 1.378 . S
C81 C82 1.378 . S
C82 H67 0.940 . S
C82 C81 1.378 . S
C82 C83 1.396 . S
C83 H68 0.940 . S
C83 C78 1.391 . S
C83 C82 1.396 . S
C84 P64 1.803 1_565 S
C84 C85 1.378 1_565 S
C84 C89 1.400 . S
C85 H69 0.939 . S
C85 C84 1.378 1_545 S
C85 C86 1.361 1_545 S
C86 H70 0.942 1_565 S
C86 C85 1.361 1_565 S
C86 C87 1.369 . S
C87 C86 1.369 . S
C87 C88 1.404 . S
C88 H71 0.940 . S
C88 C87 1.404 . S
C88 C89 1.389 . S
C89 H72 0.939 . S
C89 C84 1.400 . S
C89 C88 1.389 . S
C90 P64 1.819 1_565 S
C90 C91 1.391 . S
C90 C95 1.391 . S
C91 H73 0.941 1_565 S
C91 C90 1.391 . S
C91 C92 1.396 . S
C92 H76 0.939 . S
C92 C91 1.396 . S
C92 C93 1.397 . S
C93 C92 1.397 . S
C93 C94 1.385 . S
C94 H77 0.940 . S
C94 C93 1.385 . S
C94 C95 1.388 . S
C95 H74 0.939 . S
C95 C90 1.391 . S
C95 C94 1.388 . S
P96 O107 1.490 . S
P96 C110 1.812 . S
P96 C116 1.803 . S
P96 C122 1.819 . S
H97 C111 0.941 . S
H98 C112 0.939 . S
H99 C114 0.940 . S
H100 C115 0.940 . S
H101 C117 0.939 . S
H102 C118 0.942 . S
H103 C120 0.940 . S
H104 C121 0.939 . S
H105 C123 0.941 . S
H106 C127 0.939 . S
O107 P96 1.490 . S
H108 C124 0.939 . S
H109 C126 0.940 . S
C110 P96 1.812 . S
C110 C111 1.389 . S
C110 C115 1.391 . S
C111 H97 0.941 . S
C111 C110 1.389 . S
C111 C112 1.397 . S
C112 H98 0.939 . S
C112 C111 1.397 . S
C112 C113 1.378 . S
C113 C112 1.378 . S
C113 C114 1.378 . S
C114 H99 0.940 . S
C114 C113 1.378 . S
C114 C115 1.396 . S
C115 H100 0.940 . S
C115 C110 1.391 . S
C115 C114 1.396 . S
C116 P96 1.803 . S
C116 C117 1.378 . S
C116 C121 1.400 . S
C117 H101 0.939 . S
C117 C116 1.378 . S
C117 C118 1.361 . S
C118 H102 0.942 . S
C118 C117 1.361 . S
C118 C119 1.369 . S
C119 C118 1.369 . S
C119 C120 1.404 . S
C120 H103 0.940 . S
C120 C119 1.404 . S
C120 C121 1.389 . S
C121 H104 0.939 . S
C121 C116 1.400 . S
C121 C120 1.389 . S
C122 P96 1.819 . S
C122 C123 1.391 . S
C122 C127 1.391 . S
C123 H105 0.941 . S
C123 C122 1.391 . S
C123 C124 1.396 . S
C124 H108 0.939 . S
C124 C123 1.396 . S
C124 C125 1.397 . S
C125 C124 1.397 . S
C125 C126 1.385 . S
C126 H109 0.940 . S
C126 C125 1.385 . S
C126 C127 1.388 . S
C127 H106 0.939 . S
C127 C122 1.391 . S
C127 C126 1.388 . S
P128 O139 1.490 . S
P128 C142 1.812 1_554 S
P128 C148 1.803 . S
P128 C154 1.819 . S
H129 C143 0.941 . S
H130 C144 0.939 . S
H131 C146 0.940 . S
H132 C147 0.940 . S
H133 C149 0.939 . S
H134 C150 0.942 . S
H135 C152 0.940 . S
H136 C153 0.939 1_556 S
H137 C155 0.941 . S
H138 C159 0.939 . S
O139 P128 1.490 . S
H140 C156 0.939 . S
H141 C158 0.940 . S
C142 P128 1.812 1_556 S
C142 C143 1.389 . S
C142 C147 1.391 . S
C143 H129 0.941 . S
C143 C142 1.389 . S
C143 C144 1.397 . S
C144 H130 0.939 . S
C144 C143 1.397 . S
C144 C145 1.378 . S
C145 C144 1.378 . S
C145 C146 1.378 . S
C146 H131 0.940 . S
C146 C145 1.378 . S
C146 C147 1.396 . S
C147 H132 0.940 . S
C147 C142 1.391 . S
C147 C146 1.396 . S
C148 P128 1.803 . S
C148 C149 1.378 . S
C148 C153 1.400 . S
C149 H133 0.939 . S
C149 C148 1.378 . S
C149 C150 1.361 . S
C150 H134 0.942 . S
C150 C149 1.361 . S
C150 C151 1.369 . S
C151 C150 1.369 . S
C151 C152 1.404 . S
C152 H135 0.940 . S
C152 C151 1.404 . S
C152 C153 1.389 . S
C153 H136 0.939 1_554 S
C153 C148 1.400 . S
C153 C152 1.389 . S
C154 P128 1.819 . S
C154 C155 1.391 . S
C154 C159 1.391 . S
C155 H137 0.941 . S
C155 C154 1.391 . S
C155 C156 1.396 . S
C156 H140 0.939 . S
C156 C155 1.396 . S
C156 C157 1.397 . S
C157 C156 1.397 . S
C157 C158 1.385 . S
C158 H141 0.940 . S
C158 C157 1.385 . S
C158 C159 1.388 . S
C159 H138 0.939 . S
C159 C154 1.391 . S
C159 C158 1.388 . S
P160 O171 1.490 . S
P160 C174 1.812 1_554 S
P160 C180 1.803 . S
P160 C186 1.819 . S
H161 C175 0.941 . S
H162 C176 0.939 . S
H163 C178 0.940 . S
H164 C179 0.940 . S
H165 C181 0.939 . S
H166 C182 0.942 . S
H167 C184 0.940 . S
H168 C185 0.939 1_556 S
H169 C187 0.941 . S
H170 C191 0.939 . S
O171 P160 1.490 . S
H172 C188 0.939 . S
H173 C190 0.940 . S
C174 P160 1.812 1_556 S
C174 C175 1.389 . S
C174 C179 1.391 . S
C175 H161 0.941 . S
C175 C174 1.389 . S
C175 C176 1.397 . S
C176 H162 0.939 . S
C176 C175 1.397 . S
C176 C177 1.378 . S
C177 C176 1.378 . S
C177 C178 1.378 . S
C178 H163 0.940 . S
C178 C177 1.378 . S
C178 C179 1.396 . S
C179 H164 0.940 . S
C179 C174 1.391 . S
C179 C178 1.396 . S
C180 P160 1.803 . S
C180 C181 1.378 . S
C180 C185 1.400 . S
C181 H165 0.939 . S
C181 C180 1.378 . S
C181 C182 1.361 . S
C182 H166 0.942 . S
C182 C181 1.361 . S
C182 C183 1.369 . S
C183 C182 1.369 . S
C183 C184 1.404 . S
C184 H167 0.940 . S
C184 C183 1.404 . S
C184 C185 1.389 . S
C185 H168 0.939 1_554 S
C185 C180 1.400 . S
C185 C184 1.389 . S
C186 P160 1.819 . S
C186 C187 1.391 . S
C186 C191 1.391 . S
C187 H169 0.941 . S
C187 C186 1.391 . S
C187 C188 1.396 . S
C188 H172 0.939 . S
C188 C187 1.396 . S
C188 C189 1.397 . S
C189 C188 1.397 . S
C189 C190 1.385 . S
C190 H173 0.940 . S
C190 C189 1.385 . S
C190 C191 1.388 . S
C191 H170 0.939 . S
C191 C186 1.391 . S
C191 C190 1.388 . S
P192 O203 1.490 . S
P192 C206 1.812 1_554 S
P192 C212 1.803 . S
P192 C218 1.819 . S
H193 C207 0.941 . S
H194 C208 0.939 . S
H195 C210 0.940 . S
H196 C211 0.940 . S
H197 C213 0.939 . S
H198 C214 0.942 . S
H199 C216 0.940 . S
H200 C217 0.939 1_556 S
H201 C219 0.941 . S
H202 C223 0.939 . S
O203 P192 1.490 . S
H204 C220 0.939 . S
H205 C222 0.940 . S
C206 P192 1.812 1_556 S
C206 C207 1.389 . S
C206 C211 1.391 . S
C207 H193 0.941 . S
C207 C206 1.389 . S
C207 C208 1.397 . S
C208 H194 0.939 . S
C208 C207 1.397 . S
C208 C209 1.378 . S
C209 C208 1.378 . S
C209 C210 1.378 . S
C210 H195 0.940 . S
C210 C209 1.378 . S
C210 C211 1.396 . S
C211 H196 0.940 . S
C211 C206 1.391 . S
C211 C210 1.396 . S
C212 P192 1.803 . S
C212 C213 1.378 . S
C212 C217 1.400 . S
C213 H197 0.939 . S
C213 C212 1.378 . S
C213 C214 1.361 . S
C214 H198 0.942 . S
C214 C213 1.361 . S
C214 C215 1.369 . S
C215 C214 1.369 . S
C215 C216 1.404 . S
C216 H199 0.940 . S
C216 C215 1.404 . S
C216 C217 1.389 . S
C217 H200 0.939 1_554 S
C217 C212 1.400 . S
C217 C216 1.389 . S
C218 P192 1.819 . S
C218 C219 1.391 . S
C218 C223 1.391 . S
C219 H201 0.941 . S
C219 C218 1.391 . S
C219 C220 1.396 . S
C220 H204 0.939 . S
C220 C219 1.396 . S
C220 C221 1.397 . S
C221 C220 1.397 . S
C221 C222 1.385 . S
C222 H205 0.940 . S
C222 C221 1.385 . S
C222 C223 1.388 . S
C223 H202 0.939 . S
C223 C218 1.391 . S
C223 C222 1.388 . S
P224 O235 1.490 . S
P224 C238 1.812 1_554 S
P224 C244 1.803 . S
P224 C250 1.819 . S
H225 C239 0.941 . S
H226 C240 0.939 . S
H227 C242 0.940 . S
H228 C243 0.940 . S
H229 C245 0.939 . S
H230 C246 0.942 . S
H231 C248 0.940 . S
H232 C249 0.939 1_556 S
H233 C251 0.941 . S
H234 C255 0.939 . S
O235 P224 1.490 . S
H236 C252 0.939 . S
H237 C254 0.940 . S
C238 P224 1.812 1_556 S
C238 C239 1.389 . S
C238 C243 1.391 . S
C239 H225 0.941 . S
C239 C238 1.389 . S
C239 C240 1.397 . S
C240 H226 0.939 . S
C240 C239 1.397 . S
C240 C241 1.378 . S
C241 C240 1.378 . S
C241 C242 1.378 . S
C242 H227 0.940 . S
C242 C241 1.378 . S
C242 C243 1.396 . S
C243 H228 0.940 . S
C243 C238 1.391 . S
C243 C242 1.396 . S
C244 P224 1.803 . S
C244 C245 1.378 . S
C244 C249 1.400 . S
C245 H229 0.939 . S
C245 C244 1.378 . S
C245 C246 1.361 . S
C246 H230 0.942 . S
C246 C245 1.361 . S
C246 C247 1.369 . S
C247 C246 1.369 . S
C247 C248 1.404 . S
C248 H231 0.940 . S
C248 C247 1.404 . S
C248 C249 1.389 . S
C249 H232 0.939 1_554 S
C249 C244 1.400 . S
C249 C248 1.389 . S
C250 P224 1.819 . S
C250 C251 1.391 . S
C250 C255 1.391 . S
C251 H233 0.941 . S
C251 C250 1.391 . S
C251 C252 1.396 . S
C252 H236 0.939 . S
C252 C251 1.396 . S
C252 C253 1.397 . S
C253 C252 1.397 . S
C253 C254 1.385 . S
C254 H237 0.940 . S
C254 C253 1.385 . S
C254 C255 1.388 . S
C255 H234 0.939 . S
C255 C250 1.391 . S
C255 C254 1.388 . S
Gd256 N287 2.661 1_545 S
Gd256 N293 2.601 . S
Gd256 O300 2.545 . S
Gd256 O301 2.606 1_655 S
Gd256 O303 2.429 . S
Gd256 O304 2.545 1_655 S
Gd256 O305 2.412 . S
Gd256 O307 2.362 1_545 S
Gd256 O308 2.324 1_655 S
Gd256 C315 2.828 . S
Gd257 N266 2.661 1_565 S
Gd257 N270 2.601 . S
Gd257 O301 2.362 1_565 S
Gd257 O302 2.324 1_455 S
Gd257 O306 2.545 . S
Gd257 O307 2.606 1_455 S
Gd257 O309 2.429 . S
Gd257 O310 2.545 . S
Gd257 O311 2.412 . S
Gd257 C324 2.828 . S
C258 C261 1.417 1_554 S
C258 C263 1.431 . S
C258 C264 1.412 . S
C259 C262 1.437 1_554 S
C259 C263 1.317 . S
C259 H278 0.929 . S
C260 C261 1.426 . S
C260 C262 1.413 . S
C260 N270 1.359 1_545 S
C261 C258 1.417 1_556 S
C261 C260 1.426 . S
C261 N266 1.350 . S
C262 C259 1.437 1_556 S
C262 C260 1.413 . S
C262 C272 1.391 . S
C263 C258 1.431 . S
C263 C259 1.317 . S
C263 H274 0.930 . S
C264 C258 1.412 . S
C264 C265 1.355 . S
C264 H276 0.930 . S
C265 C264 1.355 . S
C265 C267 1.402 1_554 S
C265 H277 0.930 1_455 S
N266 Gd257 2.661 1_545 S
N266 C261 1.350 . S
N266 C267 1.307 . S
C267 C265 1.402 1_556 S
C267 N266 1.307 . S
C267 H268 0.930 1_455 S
H268 C267 0.930 1_655 S
C269 N270 1.334 . S
C269 C271 1.394 . S
C269 H273 0.930 . S
N270 Gd257 2.601 . S
N270 C260 1.359 1_565 S
N270 C269 1.334 . S
C271 C269 1.394 . S
C271 C272 1.359 1_565 S
C271 H283 0.930 . S
C272 C262 1.391 . S
C272 C271 1.359 1_545 S
C272 H284 0.929 . S
H273 C269 0.930 . S
H274 C263 0.930 . S
H275 C292 0.930 1_455 S
H276 C264 0.930 . S
H277 C265 0.930 1_655 S
H278 C259 0.929 . S
H279 C297 0.930 . S
H280 C288 0.930 . S
H281 C289 0.930 1_455 S
H282 C313 0.929 . S
H283 C271 0.930 . S
H284 C272 0.929 . S
H285 C314 0.930 . S
H286 C295 0.930 . S
N287 Gd256 2.661 1_565 S
N287 C291 1.350 . S
N287 C292 1.307 . S
C288 H280 0.930 . S
C288 C289 1.355 . S
C288 C290 1.412 . S
C289 H281 0.930 1_655 S
C289 C288 1.355 . S
C289 C292 1.402 . S
C290 C288 1.412 . S
C290 C291 1.417 . S
C290 C314 1.431 . S
C291 N287 1.350 . S
C291 C290 1.417 . S
C291 C294 1.433 . S
C292 H275 0.930 1_655 S
C292 N287 1.307 . S
C292 C289 1.402 . S
N293 Gd256 2.601 . S
N293 C294 1.350 1_545 S
N293 C297 1.334 . S
C294 C291 1.433 . S
C294 N293 1.350 1_565 S
C294 C298 1.416 . S
C295 H286 0.930 . S
C295 C296 1.359 . S
C295 C297 1.394 . S
C296 C295 1.359 . S
C296 C298 1.391 1_545 S
C296 H299 0.929 . S
C297 H279 0.930 . S
C297 N293 1.334 . S
C297 C295 1.394 . S
C298 C294 1.416 . S
C298 C296 1.391 1_565 S
C298 C313 1.437 . S
H299 C296 0.929 . S
O300 Gd256 2.545 . S
O300 C315 1.258 . S
O301 Gd256 2.606 1_455 S
O301 Gd257 2.362 1_545 S
O301 C312 1.284 . S
O302 Gd257 2.324 1_655 S
O302 C322 1.254 1_565 S
O303 Gd256 2.429 . S
O303 C322 1.268 . S
O304 Gd256 2.545 1_455 S
O304 C312 1.249 . S
O305 Gd256 2.412 . S
O305 C315 1.252 . S
O306 Gd257 2.545 . S
O306 C324 1.258 . S
O307 Gd256 2.362 1_565 S
O307 Gd257 2.606 1_655 S
O307 C323 1.284 . S
O308 Gd256 2.324 1_455 S
O308 C331 1.254 . S
O309 Gd257 2.429 . S
O309 C331 1.268 1_565 S
O310 Gd257 2.545 . S
O310 C323 1.250 1_455 S
O311 Gd257 2.412 . S
O311 C324 1.252 . S
C312 O301 1.284 . S
C312 O304 1.249 . S
C313 H282 0.929 . S
C313 C298 1.437 . S
C313 C314 1.317 . S
C314 H285 0.930 . S
C314 C290 1.431 . S
C314 C313 1.317 . S
C315 Gd256 2.828 . S
C315 O300 1.258 . S
C315 O305 1.252 . S
C315 C316 1.497 . S
C316 C315 1.497 . S
C316 C317 1.395 . S
C316 C318 1.380 . S
C317 C316 1.395 . S
C317 C320 1.398 . S
C317 H332 0.930 . S
C318 C316 1.380 . S
C318 C319 1.391 . S
C318 H333 0.930 1_655 S
C319 C318 1.391 . S
C319 C321 1.387 . S
C320 C317 1.398 . S
C320 C321 1.380 . S
C320 H334 0.930 . S
C321 C319 1.387 . S
C321 C320 1.380 . S
C321 H335 0.930 . S
C322 O302 1.254 1_545 S
C322 O303 1.268 . S
C323 O307 1.284 . S
C323 O310 1.250 1_655 S
C324 Gd257 2.828 . S
C324 O306 1.258 . S
C324 O311 1.252 . S
C324 C325 1.497 . S
C325 C324 1.497 . S
C325 C326 1.395 . S
C325 C327 1.380 . S
C326 C325 1.395 . S
C326 C329 1.398 . S
C326 H336 0.930 . S
C327 C325 1.380 . S
C327 C328 1.391 1_556 S
C327 H337 0.930 . S
C328 C327 1.391 1_554 S
C328 C330 1.387 . S
C329 C326 1.398 . S
C329 C330 1.380 1_556 S
C329 H338 0.930 . S
C330 C328 1.387 . S
C330 C329 1.380 1_554 S
C330 H339 0.930 . S
C331 O308 1.254 . S
C331 O309 1.268 1_545 S
H332 C317 0.930 . S
H333 C318 0.930 1_455 S
H334 C320 0.930 . S
H335 C321 0.930 . S
H336 C326 0.930 . S
H337 C327 0.930 . S
H338 C329 0.930 . S
H339 C330 0.930 . S
Gd340 N371 2.661 . S
Gd340 N377 2.601 . S
Gd340 O384 2.545 . S
Gd340 O385 2.606 1_565 S
Gd340 O387 2.429 . S
Gd340 O388 2.538 1_565 S
Gd340 O389 2.412 . S
Gd340 O391 2.362 . S
Gd340 O392 2.324 1_565 S
Gd340 C399 2.828 . S
Gd341 N350 2.661 . S
Gd341 N354 2.601 . S
Gd341 O385 2.362 . S
Gd341 O386 2.324 1_545 S
Gd341 O390 2.545 . S
Gd341 O391 2.606 1_545 S
Gd341 O393 2.429 . S
Gd341 O394 2.545 . S
Gd341 O395 2.412 . S
Gd341 C408 2.828 . S
C342 C345 1.417 1_554 S
C342 C347 1.431 . S
C342 C348 1.412 . S
C343 C346 1.437 1_554 S
C343 C347 1.317 . S
C343 H362 0.929 . S
C344 C345 1.426 . S
C344 C346 1.413 . S
C344 N354 1.359 . S
C345 C342 1.417 1_556 S
C345 C344 1.426 . S
C345 N350 1.350 . S
C346 C343 1.437 1_556 S
C346 C344 1.413 . S
C346 C356 1.391 . S
C347 C342 1.431 . S
C347 C343 1.317 . S
C347 H358 0.930 . S
C348 C342 1.412 . S
C348 C349 1.355 . S
C348 H360 0.930 . S
C349 C348 1.355 . S
C349 C351 1.402 1_554 S
C349 H361 0.930 1_545 S
N350 Gd341 2.661 . S
N350 C345 1.350 . S
N350 C351 1.307 . S
C351 C349 1.402 1_556 S
C351 N350 1.307 . S
C351 H352 0.930 1_545 S
H352 C351 0.930 1_565 S
C353 N354 1.334 . S
C353 C355 1.394 . S
C353 H357 0.930 . S
N354 Gd341 2.601 . S
N354 C344 1.359 . S
N354 C353 1.334 . S
C355 C353 1.394 . S
C355 C356 1.359 . S
C355 H367 0.930 . S
C356 C346 1.391 . S
C356 C355 1.359 . S
C356 H368 0.929 . S
H357 C353 0.930 . S
H358 C347 0.930 . S
H359 C376 0.937 . S
H360 C348 0.930 . S
H361 C349 0.930 1_565 S
H362 C343 0.929 . S
H363 C381 0.930 . S
H364 C372 0.930 . S
H365 C373 0.930 1_545 S
H366 C397 0.929 . S
H367 C355 0.930 . S
H368 C356 0.929 . S
H369 C398 0.930 . S
H370 C379 0.930 . S
N371 Gd340 2.661 . S
N371 C375 1.350 . S
N371 C376 1.301 1_565 S
C372 H364 0.930 . S
C372 C373 1.355 . S
C372 C374 1.412 . S
C373 H365 0.930 1_565 S
C373 C372 1.355 . S
C373 C376 1.402 1_565 S
C374 C372 1.412 . S
C374 C375 1.417 . S
C374 C398 1.431 . S
C375 N371 1.350 . S
C375 C374 1.417 . S
C375 C378 1.426 . S
C376 H359 0.937 . S
C376 N371 1.301 1_545 S
C376 C373 1.402 1_545 S
N377 Gd340 2.601 . S
N377 C378 1.359 . S
N377 C381 1.334 . S
C378 C375 1.426 . S
C378 N377 1.359 . S
C378 C382 1.413 . S
C379 H370 0.930 . S
C379 C380 1.359 . S
C379 C381 1.394 . S
C380 C379 1.359 . S
C380 C382 1.391 . S
C380 H383 0.929 . S
C381 H363 0.930 . S
C381 N377 1.334 . S
C381 C379 1.394 . S
C382 C378 1.413 . S
C382 C380 1.391 . S
C382 C397 1.437 . S
H383 C380 0.929 . S
O384 Gd340 2.545 . S
O384 C399 1.258 . S
O385 Gd340 2.606 1_545 S
O385 Gd341 2.362 . S
O385 C396 1.284 . S
O386 Gd341 2.324 1_565 S
O386 C406 1.254 . S
O387 Gd340 2.429 . S
O387 C406 1.268 . S
O388 Gd340 2.538 1_545 S
O388 C396 1.263 . S
O389 Gd340 2.412 . S
O389 C399 1.252 . S
O390 Gd341 2.545 . S
O390 C408 1.258 . S
O391 Gd340 2.362 . S
O391 Gd341 2.606 1_565 S
O391 C407 1.284 . S
O392 Gd340 2.324 1_545 S
O392 C415 1.254 . S
O393 Gd341 2.429 . S
O393 C415 1.268 . S
O394 Gd341 2.545 . S
O394 C407 1.250 1_545 S
O395 Gd341 2.412 . S
O395 C408 1.252 . S
C396 O385 1.284 . S
C396 O388 1.263 . S
C397 H366 0.929 . S
C397 C382 1.437 . S
C397 C398 1.317 . S
C398 H369 0.930 . S
C398 C374 1.431 . S
C398 C397 1.317 . S
C399 Gd340 2.828 . S
C399 O384 1.258 . S
C399 O389 1.252 . S
C399 C400 1.497 . S
C400 C399 1.497 . S
C400 C401 1.395 . S
C400 C402 1.380 . S
C401 C400 1.395 . S
C401 C404 1.398 . S
C401 H416 0.930 . S
C402 C400 1.380 . S
C402 C403 1.391 . S
C402 H417 0.930 1_565 S
C403 C402 1.391 . S
C403 C405 1.387 . S
C404 C401 1.398 . S
C404 C405 1.380 . S
C404 H418 0.930 . S
C405 C403 1.387 . S
C405 C404 1.380 . S
C405 H419 0.930 . S
C406 O386 1.254 . S
C406 O387 1.268 . S
C407 O391 1.284 . S
C407 O394 1.250 1_565 S
C408 Gd341 2.828 . S
C408 O390 1.258 . S
C408 O395 1.252 . S
C408 C409 1.497 . S
C409 C408 1.497 . S
C409 C410 1.395 . S
C409 C411 1.380 . S
C410 C409 1.395 . S
C410 C413 1.398 . S
C410 H420 0.930 . S
C411 C409 1.380 . S
C411 C412 1.391 1_556 S
C411 H421 0.930 . S
C412 C411 1.391 1_554 S
C412 C414 1.387 . S
C413 C410 1.398 . S
C413 C414 1.380 1_556 S
C413 H422 0.930 . S
C414 C412 1.387 . S
C414 C413 1.380 1_554 S
C414 H423 0.930 . S
C415 O392 1.254 . S
C415 O393 1.268 . S
H416 C401 0.930 . S
H417 C402 0.930 1_545 S
H418 C404 0.930 . S
H419 C405 0.930 . S
H420 C410 0.930 . S
H421 C411 0.930 . S
H422 C413 0.930 . S
H423 C414 0.930 . S
Gd424 N455 2.661 . S
Gd424 N461 2.601 . S
Gd424 O468 2.545 . S
Gd424 O469 2.606 . S
Gd424 O471 2.429 . S
Gd424 O472 2.545 . S
Gd424 O473 2.412 . S
Gd424 O475 2.362 . S
Gd424 O476 2.324 . S
Gd424 C483 2.828 . S
Gd425 N434 2.661 . S
Gd425 N438 2.601 . S
Gd425 O469 2.362 . S
Gd425 O470 2.324 . S
Gd425 O474 2.545 . S
Gd425 O475 2.606 . S
Gd425 O477 2.429 . S
Gd425 O478 2.545 . S
Gd425 O479 2.412 . S
Gd425 C492 2.828 . S
C426 C429 1.417 . S
C426 C431 1.431 . S
C426 C432 1.412 . S
C427 C430 1.437 . S
C427 C431 1.317 . S
C427 H446 0.929 . S
C428 C429 1.426 . S
C428 C430 1.413 . S
C428 N438 1.359 . S
C429 C426 1.417 . S
C429 C428 1.426 . S
C429 N434 1.350 . S
C430 C427 1.437 . S
C430 C428 1.413 . S
C430 C440 1.391 . S
C431 C426 1.431 . S
C431 C427 1.317 . S
C431 H442 0.930 . S
C432 C426 1.412 . S
C432 C433 1.355 . S
C432 H444 0.930 . S
C433 C432 1.355 . S
C433 C435 1.402 . S
C433 H445 0.930 . S
N434 Gd425 2.661 . S
N434 C429 1.350 . S
N434 C435 1.307 . S
C435 C433 1.402 . S
C435 N434 1.307 . S
C435 H436 0.930 . S
H436 C435 0.930 . S
C437 N438 1.334 . S
C437 C439 1.394 . S
C437 H441 0.930 . S
N438 Gd425 2.601 . S
N438 C428 1.359 . S
N438 C437 1.334 . S
C439 C437 1.394 . S
C439 C440 1.359 . S
C439 H451 0.930 . S
C440 C430 1.391 . S
C440 C439 1.359 . S
C440 H452 0.929 . S
H441 C437 0.930 . S
H442 C431 0.930 . S
H443 C460 0.930 . S
H444 C432 0.930 . S
H445 C433 0.930 . S
H446 C427 0.929 . S
H447 C465 0.930 . S
H448 C456 0.930 . S
H449 C457 0.930 . S
H450 C481 0.929 . S
H451 C439 0.930 . S
H452 C440 0.929 . S
H453 C482 0.930 . S
H454 C463 0.930 . S
N455 Gd424 2.661 . S
N455 C459 1.350 . S
N455 C460 1.307 . S
C456 H448 0.930 . S
C456 C457 1.355 . S
C456 C458 1.412 . S
C457 H449 0.930 . S
C457 C456 1.355 . S
C457 C460 1.402 . S
C458 C456 1.412 . S
C458 C459 1.417 . S
C458 C482 1.431 . S
C459 N455 1.350 . S
C459 C458 1.417 . S
C459 C462 1.426 . S
C460 H443 0.930 . S
C460 N455 1.307 . S
C460 C457 1.402 . S
N461 Gd424 2.601 . S
N461 C462 1.359 . S
N461 C465 1.334 . S
C462 C459 1.426 . S
C462 N461 1.359 . S
C462 C466 1.413 . S
C463 H454 0.930 . S
C463 C464 1.359 . S
C463 C465 1.394 . S
C464 C463 1.359 . S
C464 C466 1.391 . S
C464 H467 0.929 . S
C465 H447 0.930 . S
C465 N461 1.334 . S
C465 C463 1.394 . S
C466 C462 1.413 . S
C466 C464 1.391 . S
C466 C481 1.437 . S
H467 C464 0.929 . S
O468 Gd424 2.545 . S
O468 C483 1.258 . S
O469 Gd424 2.606 . S
O469 Gd425 2.362 . S
O469 C480 1.284 . S
O470 Gd425 2.324 . S
O470 C490 1.254 . S
O471 Gd424 2.429 . S
O471 C490 1.268 . S
O472 Gd424 2.545 . S
O472 C480 1.250 . S
O473 Gd424 2.412 . S
O473 C483 1.252 . S
O474 Gd425 2.545 . S
O474 C492 1.258 . S
O475 Gd424 2.362 . S
O475 Gd425 2.606 . S
O475 C491 1.284 . S
O476 Gd424 2.324 . S
O476 C499 1.254 . S
O477 Gd425 2.429 . S
O477 C499 1.268 . S
O478 Gd425 2.545 . S
O478 C491 1.250 . S
O479 Gd425 2.412 . S
O479 C492 1.252 . S
C480 O469 1.284 . S
C480 O472 1.250 . S
C481 H450 0.929 . S
C481 C466 1.437 . S
C481 C482 1.317 . S
C482 H453 0.930 . S
C482 C458 1.431 . S
C482 C481 1.317 . S
C483 Gd424 2.828 . S
C483 O468 1.258 . S
C483 O473 1.252 . S
C483 C484 1.497 . S
C484 C483 1.497 . S
C484 C485 1.395 1_556 S
C484 C486 1.380 . S
C485 C484 1.395 1_554 S
C485 C488 1.398 . S
C485 H500 0.930 . S
C486 C484 1.380 . S
C486 C487 1.391 1_556 S
C486 H501 0.930 . S
C487 C486 1.391 1_554 S
C487 C489 1.387 . S
C488 C485 1.398 . S
C488 C489 1.380 . S
C488 H502 0.930 . S
C489 C487 1.387 . S
C489 C488 1.380 . S
C489 H503 0.930 . S
C490 O470 1.254 . S
C490 O471 1.268 . S
C491 O475 1.284 . S
C491 O478 1.250 . S
C492 Gd425 2.828 . S
C492 O474 1.258 . S
C492 O479 1.252 . S
C492 C493 1.497 . S
C493 C492 1.497 . S
C493 C494 1.395 . S
C493 C495 1.380 . S
C494 C493 1.395 . S
C494 C497 1.398 . S
C494 H504 0.930 . S
C495 C493 1.380 . S
C495 C496 1.391 . S
C495 H505 0.930 . S
C496 C495 1.391 . S
C496 C498 1.387 . S
C497 C494 1.398 . S
C497 C498 1.380 . S
C497 H506 0.930 . S
C498 C496 1.387 . S
C498 C497 1.380 . S
C498 H507 0.930 . S
C499 O476 1.254 . S
C499 O477 1.268 . S
H500 C485 0.930 . S
H501 C486 0.930 . S
H502 C488 0.930 . S
H503 C489 0.930 . S
H504 C494 0.930 . S
H505 C495 0.930 . S
H506 C497 0.930 . S
H507 C498 0.930 . S
Gd508 N539 2.661 . S
Gd508 N545 2.601 . S
Gd508 O552 2.545 . S
Gd508 O553 2.614 . S
Gd508 O555 2.429 1_655 S
Gd508 O556 2.545 . S
Gd508 O557 2.412 . S
Gd508 O559 2.362 1_655 S
Gd508 O560 2.324 . S
Gd508 C567 2.828 . S
Gd509 N518 2.661 . S
Gd509 N522 2.601 . S
Gd509 O553 2.348 1_455 S
Gd509 O554 2.324 . S
Gd509 O558 2.545 . S
Gd509 O559 2.606 . S
Gd509 O561 2.429 1_455 S
Gd509 O562 2.545 . S
Gd509 O563 2.412 . S
Gd509 C576 2.828 . S
C510 C513 1.417 . S
C510 C515 1.431 . S
C510 C516 1.412 . S
C511 C514 1.437 . S
C511 C515 1.317 . S
C511 H530 0.929 . S
C512 C513 1.426 . S
C512 C514 1.413 . S
C512 N522 1.359 . S
C513 C510 1.417 . S
C513 C512 1.426 . S
C513 N518 1.350 . S
C514 C511 1.437 . S
C514 C512 1.413 . S
C514 C524 1.391 . S
C515 C510 1.431 . S
C515 C511 1.317 . S
C515 H526 0.930 . S
C516 C510 1.412 . S
C516 C517 1.355 . S
C516 H528 0.930 . S
C517 C516 1.355 . S
C517 C519 1.402 . S
C517 H529 0.930 . S
N518 Gd509 2.661 . S
N518 C513 1.350 . S
N518 C519 1.307 . S
C519 C517 1.402 . S
C519 N518 1.307 . S
C519 H520 0.930 . S
H520 C519 0.930 . S
C521 N522 1.334 1_655 S
C521 C523 1.394 . S
C521 H525 0.930 . S
N522 Gd509 2.601 . S
N522 C512 1.359 . S
N522 C521 1.334 1_455 S
C523 C521 1.394 . S
C523 C524 1.359 1_655 S
C523 H535 0.930 . S
C524 C514 1.391 . S
C524 C523 1.359 1_455 S
C524 H536 0.929 . S
H525 C521 0.930 . S
H526 C515 0.930 . S
H527 C544 0.930 . S
H528 C516 0.930 . S
H529 C517 0.930 . S
H530 C511 0.929 . S
H531 C549 0.930 . S
H532 C540 0.930 . S
H533 C541 0.930 . S
H534 C565 0.929 . S
H535 C523 0.930 . S
H536 C524 0.929 . S
H537 C566 0.930 . S
H538 C547 0.930 . S
N539 Gd508 2.661 . S
N539 C543 1.350 . S
N539 C544 1.307 . S
C540 H532 0.930 . S
C540 C541 1.355 . S
C540 C542 1.412 . S
C541 H533 0.930 . S
C541 C540 1.355 . S
C541 C544 1.402 . S
C542 C540 1.412 . S
C542 C543 1.417 . S
C542 C566 1.431 . S
C543 N539 1.350 . S
C543 C542 1.417 . S
C543 C546 1.426 . S
C544 H527 0.930 . S
C544 N539 1.307 . S
C544 C541 1.402 . S
N545 Gd508 2.601 . S
N545 C546 1.359 . S
N545 C549 1.334 1_655 S
C546 C543 1.426 . S
C546 N545 1.359 . S
C546 C550 1.413 . S
C547 H538 0.930 . S
C547 C548 1.359 . S
C547 C549 1.394 . S
C548 C547 1.359 . S
C548 C550 1.391 1_455 S
C548 H551 0.929 . S
C549 H531 0.930 . S
C549 N545 1.334 1_455 S
C549 C547 1.394 . S
C550 C546 1.413 . S
C550 C548 1.391 1_655 S
C550 C565 1.437 . S
H551 C548 0.929 . S
O552 Gd508 2.545 . S
O552 C567 1.258 . S
O553 Gd508 2.614 . S
O553 Gd509 2.348 1_655 S
O553 C564 1.295 . S
O554 Gd509 2.324 . S
O554 C574 1.254 . S
O555 Gd508 2.429 1_455 S
O555 C574 1.268 . S
O556 Gd508 2.545 . S
O556 C564 1.250 . S
O557 Gd508 2.412 . S
O557 C567 1.252 . S
O558 Gd509 2.545 . S
O558 C576 1.258 . S
O559 Gd508 2.362 1_455 S
O559 Gd509 2.606 . S
O559 C575 1.284 . S
O560 Gd508 2.324 . S
O560 C583 1.254 . S
O561 Gd509 2.429 1_655 S
O561 C583 1.268 . S
O562 Gd509 2.545 . S
O562 C575 1.250 . S
O563 Gd509 2.412 . S
O563 C576 1.252 . S
C564 O553 1.295 . S
C564 O556 1.250 . S
C565 H534 0.929 . S
C565 C550 1.437 . S
C565 C566 1.317 . S
C566 H537 0.930 . S
C566 C542 1.431 . S
C566 C565 1.317 . S
C567 Gd508 2.828 . S
C567 O552 1.258 . S
C567 O557 1.252 . S
C567 C568 1.497 . S
C568 C567 1.497 . S
C568 C569 1.395 1_556 S
C568 C570 1.380 . S
C569 C568 1.395 1_554 S
C569 C572 1.398 . S
C569 H584 0.930 . S
C570 C568 1.380 . S
C570 C571 1.391 1_556 S
C570 H585 0.930 . S
C571 C570 1.391 1_554 S
C571 C573 1.387 . S
C572 C569 1.398 . S
C572 C573 1.380 . S
C572 H586 0.930 . S
C573 C571 1.387 . S
C573 C572 1.380 . S
C573 H587 0.930 . S
C574 O554 1.254 . S
C574 O555 1.268 . S
C575 O559 1.284 . S
C575 O562 1.250 . S
C576 Gd509 2.828 . S
C576 O558 1.258 . S
C576 O563 1.252 . S
C576 C577 1.497 . S
C577 C576 1.497 . S
C577 C578 1.395 . S
C577 C579 1.380 . S
C578 C577 1.395 . S
C578 C581 1.398 . S
C578 H588 0.930 . S
C579 C577 1.380 . S
C579 C580 1.391 . S
C579 H589 0.930 . S
C580 C579 1.391 . S
C580 C582 1.387 . S
C581 C578 1.398 . S
C581 C582 1.380 . S
C581 H590 0.930 . S
C582 C580 1.387 . S
C582 C581 1.380 . S
C582 H591 0.930 . S
C583 O560 1.254 . S
C583 O561 1.268 . S
H584 C569 0.930 . S
H585 C570 0.930 . S
H586 C572 0.930 . S
H587 C573 0.930 . S
H588 C578 0.930 . S
H589 C579 0.930 . S
H590 C581 0.930 . S
H591 C582 0.930 . S
C592 C593 1.387 . S
C592 H596 0.950 . S
C592 C601 1.390 . S
C593 C592 1.387 . S
C593 C595 1.387 . S
H594 C601 0.950 . S
C595 C593 1.387 . S
C595 C597 1.390 . S
C595 H599 0.950 . S
H596 C592 0.950 . S
C597 C595 1.390 . S
C597 C598 1.387 . S
C597 H600 0.950 . S
C598 C597 1.387 . S
C598 C601 1.387 . S
H599 C595 0.950 . S
H600 C597 0.950 . S
C601 C592 1.390 . S
C601 H594 0.950 . S
C601 C598 1.387 . S
C602 C603 1.387 . S
C602 H606 0.950 . S
C602 C611 1.390 . S
C603 C602 1.387 . S
C603 C605 1.387 . S
H604 C611 0.950 . S
C605 C603 1.387 . S
C605 C607 1.390 . S
C605 H609 0.950 . S
H606 C602 0.950 . S
C607 C605 1.390 . S
C607 C608 1.387 . S
C607 H610 0.950 . S
C608 C607 1.387 . S
C608 C611 1.387 . S
H609 C605 0.950 . S
H610 C607 0.950 . S
C611 C602 1.390 . S
C611 H604 0.950 . S
C611 C608 1.387 . S
C612 C613 1.387 . S
C612 H616 0.950 . S
C612 C621 1.390 . S
C613 C612 1.387 . S
C613 C615 1.387 . S
H614 C621 0.950 . S
C615 C613 1.387 . S
C615 C617 1.390 . S
C615 H619 0.950 . S
H616 C612 0.950 . S
C617 C615 1.390 . S
C617 C618 1.387 . S
C617 H620 0.950 . S
C618 C617 1.387 . S
C618 C621 1.387 . S
H619 C615 0.950 . S
H620 C617 0.950 . S
C621 C612 1.390 . S
C621 H614 0.950 . S
C621 C618 1.387 . S
C622 C623 1.387 . S
C622 H626 0.950 . S
C622 C631 1.390 . S
C623 C622 1.387 . S
C623 C625 1.387 . S
H624 C631 0.950 . S
C625 C623 1.387 . S
C625 C627 1.390 . S
C625 H629 0.950 . S
H626 C622 0.950 . S
C627 C625 1.390 . S
C627 C628 1.387 . S
C627 H630 0.950 1_455 S
C628 C627 1.387 . S
C628 C631 1.387 . S
H629 C625 0.950 . S
H630 C627 0.950 1_655 S
C631 C622 1.390 . S
C631 H624 0.950 . S
C631 C628 1.387 . S
C632 C633 1.387 . S
C632 H636 0.950 . S
C632 C641 1.390 1_554 S
C633 C632 1.387 . S
C633 C635 1.387 . S
H634 C641 0.950 . S
C635 C633 1.387 . S
C635 C637 1.390 1_564 S
C635 H639 0.950 1_565 S
H636 C632 0.950 . S
C637 C635 1.390 1_546 S
C637 C638 1.387 1_545 S
C637 H640 0.950 . S
C638 C637 1.387 1_565 S
C638 C641 1.387 . S
H639 C635 0.950 1_545 S
H640 C637 0.950 . S
C641 C632 1.390 1_556 S
C641 H634 0.950 . S
C641 C638 1.387 . S
C642 C643 1.387 . S
C642 H646 0.950 . S
C642 C651 1.390 1_554 S
C643 C642 1.387 . S
C643 C645 1.387 . S
H644 C651 0.950 . S
C645 C643 1.387 . S
C645 C647 1.390 1_554 S
C645 H649 0.950 . S
H646 C642 0.950 . S
C647 C645 1.390 1_556 S
C647 C648 1.387 . S
C647 H650 0.950 . S
C648 C647 1.387 . S
C648 C651 1.387 . S
H649 C645 0.950 . S
H650 C647 0.950 . S
C651 C642 1.390 1_556 S
C651 H644 0.950 . S
C651 C648 1.387 . S
C652 C653 1.387 . S
C652 H656 0.950 . S
C652 C661 1.390 1_554 S
C653 C652 1.387 . S
C653 C655 1.387 . S
H654 C661 0.950 . S
C655 C653 1.387 . S
C655 C657 1.390 1_554 S
C655 H659 0.950 . S
H656 C652 0.950 . S
C657 C655 1.390 1_556 S
C657 C658 1.387 . S
C657 H660 0.950 . S
C658 C657 1.387 . S
C658 C661 1.387 . S
H659 C655 0.950 . S
H660 C657 0.950 . S
C661 C652 1.390 1_556 S
C661 H654 0.950 . S
C661 C658 1.387 . S
C662 C663 1.387 . S
C662 H666 0.950 . S
C662 C671 1.390 1_554 S
C663 C662 1.387 . S
C663 C665 1.387 . S
H664 C671 0.950 . S
C665 C663 1.387 . S
C665 C667 1.390 1_554 S
C665 H669 0.950 . S
H666 C662 0.950 . S
C667 C665 1.390 1_556 S
C667 C668 1.387 . S
C667 H670 0.950 . S
C668 C667 1.387 . S
C668 C671 1.387 . S
H669 C665 0.950 . S
H670 C667 0.950 . S
C671 C662 1.390 1_556 S
C671 H664 0.950 . S
C671 C668 1.387 . S
C672 C673 1.387 . S
C672 H676 0.950 . S
C672 C681 1.390 . S
C673 C672 1.387 . S
C673 C675 1.387 . S
H674 C681 0.950 . S
C675 C673 1.387 . S
C675 C677 1.390 . S
C675 H679 0.950 . S
H676 C672 0.950 . S
C677 C675 1.390 . S
C677 C678 1.381 1_455 S
C677 H680 0.950 1_455 S
C678 C677 1.381 1_655 S
C678 C681 1.371 1_655 S
H679 C675 0.950 . S
H680 C677 0.950 1_655 S
C681 C672 1.390 . S
C681 H674 0.950 . S
C681 C678 1.371 1_455 S
C682 C683 1.387 . S
C682 H686 0.950 . S
C682 C691 1.390 . S
C683 C682 1.387 . S
C683 C685 1.387 . S
H684 C691 0.950 . S
C685 C683 1.387 . S
C685 C687 1.390 . S
C685 H689 0.950 . S
H686 C682 0.950 . S
C687 C685 1.390 . S
C687 C688 1.387 1_545 S
C687 H690 0.950 1_545 S
C688 C687 1.387 1_565 S
C688 C691 1.387 1_565 S
H689 C685 0.950 . S
H690 C687 0.950 1_565 S
C691 C682 1.390 . S
C691 H684 0.950 . S
C691 C688 1.387 1_545 S
C692 C693 1.387 . S
C692 H696 0.950 . S
C692 C701 1.390 . S
C693 C692 1.387 . S
C693 C695 1.387 . S
H694 C701 0.950 . S
C695 C693 1.387 . S
C695 C697 1.390 . S
C695 H699 0.950 . S
H696 C692 0.950 . S
C697 C695 1.390 . S
C697 C698 1.387 . S
C697 H700 0.950 . S
C698 C697 1.387 . S
C698 C701 1.387 . S
H699 C695 0.950 . S
H700 C697 0.950 . S
C701 C692 1.390 . S
C701 H694 0.950 . S
C701 C698 1.387 . S
C702 C703 1.387 . S
C702 H706 0.950 . S
C702 C711 1.390 . S
C703 C702 1.387 . S
C703 C705 1.387 . S
H704 C711 0.950 . S
C705 C703 1.387 . S
C705 C707 1.390 . S
C705 H709 0.950 . S
H706 C702 0.950 . S
C707 C705 1.390 . S
C707 C708 1.387 . S
C707 H710 0.950 . S
C708 C707 1.387 . S
C708 C711 1.387 . S
H709 C705 0.950 . S
H710 C707 0.950 . S
C711 C702 1.390 . S
C711 H704 0.950 . S
C711 C708 1.387 . S
C712 C713 1.387 1_556 S
C712 H716 0.950 . S
C712 C721 1.390 . S
C713 C712 1.387 1_554 S
C713 C715 1.387 . S
H714 C721 0.950 1_455 S
C715 C713 1.387 . S
C715 C717 1.390 . S
C715 H719 0.950 . S
H716 C712 0.950 . S
C717 C715 1.390 . S
C717 C718 1.387 1_655 S
C717 H720 0.950 1_655 S
C718 C717 1.387 1_455 S
C718 C721 1.387 1_454 S
H719 C715 0.950 . S
H720 C717 0.950 1_455 S
C721 C712 1.390 . S
C721 H714 0.950 1_655 S
C721 C718 1.387 1_656 S
C722 C723 1.387 . S
C722 H726 0.950 . S
C722 C731 1.390 1_565 S
C723 C722 1.387 . S
C723 C725 1.387 1_554 S
H724 C731 0.950 . S
C725 C723 1.387 1_556 S
C725 C727 1.419 . S
C725 H729 0.950 . S
H726 C722 0.950 . S
C727 C725 1.419 . S
C727 C728 1.370 1_566 S
C727 H730 0.939 1_565 S
C728 C727 1.370 1_544 S
C728 C731 1.387 . S
H729 C725 0.950 . S
H730 C727 0.939 1_545 S
C731 C722 1.390 1_545 S
C731 H724 0.950 . S
C731 C728 1.387 . S
C732 C733 1.387 . S
C732 H736 0.950 . S
C732 C741 1.390 . S
C733 C732 1.387 . S
C733 C735 1.387 1_554 S
H734 C741 0.950 . S
C735 C733 1.387 1_556 S
C735 C737 1.390 . S
C735 H739 0.950 . S
H736 C732 0.950 . S
C737 C735 1.390 . S
C737 C738 1.387 1_556 S
C737 H740 0.950 . S
C738 C737 1.387 1_554 S
C738 C741 1.387 . S
H739 C735 0.950 . S
H740 C737 0.950 . S
C741 C732 1.390 . S
C741 H734 0.950 . S
C741 C738 1.387 . S
C742 C743 1.387 . S
C742 H746 0.950 . S
C742 C751 1.390 . S
C743 C742 1.387 . S
C743 C745 1.387 1_554 S
H744 C751 0.950 . S
C745 C743 1.387 1_556 S
C745 C747 1.390 . S
C745 H749 0.950 . S
H746 C742 0.950 . S
C747 C745 1.390 . S
C747 C748 1.387 1_556 S
C747 H750 0.950 . S
C748 C747 1.387 1_554 S
C748 C751 1.387 . S
H749 C745 0.950 . S
H750 C747 0.950 . S
C751 C742 1.390 . S
C751 H744 0.950 . S
C751 C748 1.387 . S
C752 C753 1.387 . S
C752 H756 0.950 . S
C752 C761 1.390 . S
C753 C752 1.387 . S
C753 C755 1.387 . S
H754 C761 0.950 . S
C755 C753 1.387 . S
C755 C757 1.390 . S
C755 H759 0.950 . S
H756 C752 0.950 . S
C757 C755 1.390 . S
C757 C758 1.387 . S
C757 H760 0.950 . S
C758 C757 1.387 . S
C758 C761 1.387 . S
H759 C755 0.950 . S
H760 C757 0.950 . S
C761 C752 1.390 . S
C761 H754 0.950 . S
C761 C758 1.387 . S
C762 C763 1.387 . S
C762 H766 0.950 . S
C762 C771 1.390 . S
C763 C762 1.387 . S
C763 C765 1.387 . S
H764 C771 0.950 . S
C765 C763 1.387 . S
C765 C767 1.390 . S
C765 H769 0.950 . S
H766 C762 0.950 . S
C767 C765 1.390 . S
C767 C768 1.387 . S
C767 H770 0.950 . S
C768 C767 1.387 . S
C768 C771 1.387 . S
H769 C765 0.950 . S
H770 C767 0.950 . S
C771 C762 1.390 . S
C771 H764 0.950 . S
C771 C768 1.387 . S
C772 C773 1.387 . S
C772 H776 0.950 . S
C772 C781 1.390 . S
C773 C772 1.387 . S
C773 C775 1.387 . S
H774 C781 0.950 . S
C775 C773 1.387 . S
C775 C777 1.390 . S
C775 H779 0.950 . S
H776 C772 0.950 . S
C777 C775 1.390 . S
C777 C778 1.387 . S
C777 H780 0.950 . S
C778 C777 1.387 . S
C778 C781 1.387 . S
H779 C775 0.950 . S
H780 C777 0.950 . S
C781 C772 1.390 . S
C781 H774 0.950 . S
C781 C778 1.387 . S
C782 C783 1.387 . S
C782 H786 0.950 . S
C782 C791 1.390 . S
C783 C782 1.387 . S
C783 C785 1.387 . S
H784 C791 0.950 . S
C785 C783 1.387 . S
C785 C787 1.390 . S
C785 H789 0.950 . S
H786 C782 0.950 . S
C787 C785 1.390 . S
C787 C788 1.387 . S
C787 H790 0.950 . S
C788 C787 1.387 . S
C788 C791 1.387 . S
H789 C785 0.950 . S
H790 C787 0.950 . S
C791 C782 1.390 . S
C791 H784 0.950 . S
C791 C788 1.387 . S
C792 C793 1.387 . S
C792 H796 0.950 . S
C792 C801 1.390 . S
C793 C792 1.387 . S
C793 C795 1.387 . S
H794 C801 0.950 . S
C795 C793 1.387 . S
C795 C797 1.390 . S
C795 H799 0.950 . S
H796 C792 0.950 . S
C797 C795 1.390 . S
C797 C798 1.387 . S
C797 H800 0.950 . S
C798 C797 1.387 . S
C798 C801 1.387 . S
H799 C795 0.950 . S
H800 C797 0.950 . S
C801 C792 1.390 . S
C801 H794 0.950 . S
C801 C798 1.387 . S
C802 C803 1.387 . S
C802 H806 0.950 . S
C802 C811 1.390 . S
C803 C802 1.387 . S
C803 C805 1.387 . S
H804 C811 0.950 . S
C805 C803 1.387 . S
C805 C807 1.390 . S
C805 H809 0.950 . S
H806 C802 0.950 . S
C807 C805 1.390 . S
C807 C808 1.387 . S
C807 H810 0.950 . S
C808 C807 1.387 . S
C808 C811 1.387 . S
H809 C805 0.950 . S
H810 C807 0.950 . S
C811 C802 1.390 . S
C811 H804 0.950 . S
C811 C808 1.387 . S
C812 C813 1.387 . S
C812 H816 0.950 . S
C812 C821 1.390 . S
C813 C812 1.387 . S
C813 C815 1.387 . S
H814 C821 0.950 . S
C815 C813 1.387 . S
C815 C817 1.390 . S
C815 H819 0.950 . S
H816 C812 0.950 . S
C817 C815 1.390 . S
C817 C818 1.387 . S
C817 H820 0.950 . S
C818 C817 1.387 . S
C818 C821 1.387 . S
H819 C815 0.950 . S
H820 C817 0.950 . S
C821 C812 1.390 . S
C821 H814 0.950 . S
C821 C818 1.387 . S
C822 C823 1.387 . S
C822 H826 0.950 . S
C822 C831 1.390 . S
C823 C822 1.387 . S
C823 C825 1.387 . S
H824 C831 0.950 . S
C825 C823 1.387 . S
C825 C827 1.390 . S
C825 H829 0.950 . S
H826 C822 0.950 . S
C827 C825 1.390 . S
C827 C828 1.387 . S
C827 H830 0.950 . S
C828 C827 1.387 . S
C828 C831 1.387 . S
H829 C825 0.950 . S
H830 C827 0.950 . S
C831 C822 1.390 . S
C831 H824 0.950 . S
C831 C828 1.387 . S
C593 C215 2.414 . S
C598 C331 2.480 . S
C608 C415 2.488 . S
C603 C247 2.424 . S
C618 C491 2.309 . S
C613 C151 2.494 . S
C628 C575 2.307 . S
C623 C183 2.487 . S
C638 C322 2.481 1_565 S
C633 C87 2.313 . S
C643 C119 2.309 . S
C648 C406 2.486 . S
C653 C23 2.374 . S
C658 C480 2.313 . S
C663 C55 2.376 . S
C668 C564 2.308 . S
C678 C319 1.121 . S
C673 C189 1.056 . S
C688 C403 1.040 . S
C683 C221 1.007 . S
C698 C496 1.011 . S
C693 C253 0.986 . S
C703 C157 1.027 . S
C708 C580 1.059 . S
C713 C61 0.868 . S
C718 C328 1.097 . S
C728 C412 1.040 . S
C723 C93 0.855 . S
C738 C487 1.012 . S
C733 C125 0.839 . S
C743 C29 0.857 . S
C748 C571 1.062 . S
C753 C177 2.716 . S
C758 C312 2.825 . S
C763 C209 2.690 . S
C768 C396 2.804 . S
C778 C490 2.953 . S
C773 C241 2.610 . S
C788 C574 2.971 . S
C783 C145 2.631 . S
C793 C49 2.642 . S
C798 C323 2.824 . S
C808 C407 2.805 . S
C803 C81 2.626 . S
C818 C499 2.954 . S
C813 C113 2.534 . S
C823 C17 2.550 . S
C828 C583 2.971 . S
