# Generated by pormake.
# Topology nom, (4,4)-cn, num edge types: 1
# Building blocks:
#     Node 0, Type 0, BuildingBlock: AZAVOO_clean_linker_0, # of connection points: 4
#     Node 1, Type 0, BuildingBlock: AZAVOO_clean_linker_0, # of connection points: 4
#     Node 2, Type 0, BuildingBlock: AZAVOO_clean_linker_0, # of connection points: 4
#     Node 3, Type 0, BuildingBlock: AZAVOO_clean_linker_0, # of connection points: 4
#     Node 4, Type 0, BuildingBlock: AZAVOO_clean_linker_0, # of connection points: 4
#     Node 5, Type 0, BuildingBlock: AZAVOO_clean_linker_0, # of connection points: 4
#     Node 6, Type 1, BuildingBlock: CEKHIL_clean_sbu_0, # of connection points: 4
#     Node 7, Type 1, BuildingBlock: CEKHIL_clean_sbu_0, # of connection points: 4
#     Node 8, Type 1, BuildingBlock: CEKHIL_clean_sbu_0, # of connection points: 4
#     Node 9, Type 1, BuildingBlock: CEKHIL_clean_sbu_0, # of connection points: 4
#     Node 10, Type 1, BuildingBlock: CEKHIL_clean_sbu_0, # of connection points: 4
#     Node 11, Type 1, BuildingBlock: CEKHIL_clean_sbu_0, # of connection points: 4
#     Edge 12, Type (0, 1), BuildingBlock: KIFKEQ_clean_linker_1, # of connection points: 2
#     Edge 13, Type (0, 1), BuildingBlock: KIFKEQ_clean_linker_1, # of connection points: 2
#     Edge 14, Type (0, 1), BuildingBlock: KIFKEQ_clean_linker_1, # of connection points: 2
#     Edge 15, Type (0, 1), BuildingBlock: KIFKEQ_clean_linker_1, # of connection points: 2
#     Edge 16, Type (0, 1), BuildingBlock: KIFKEQ_clean_linker_1, # of connection points: 2
#     Edge 17, Type (0, 1), BuildingBlock: KIFKEQ_clean_linker_1, # of connection points: 2
#     Edge 18, Type (0, 1), BuildingBlock: KIFKEQ_clean_linker_1, # of connection points: 2
#     Edge 19, Type (0, 1), BuildingBlock: KIFKEQ_clean_linker_1, # of connection points: 2
#     Edge 20, Type (0, 1), BuildingBlock: KIFKEQ_clean_linker_1, # of connection points: 2
#     Edge 21, Type (0, 1), BuildingBlock: KIFKEQ_clean_linker_1, # of connection points: 2
#     Edge 22, Type (0, 1), BuildingBlock: KIFKEQ_clean_linker_1, # of connection points: 2
#     Edge 23, Type (0, 1), BuildingBlock: KIFKEQ_clean_linker_1, # of connection points: 2
#     Edge 24, Type (0, 1), BuildingBlock: KIFKEQ_clean_linker_1, # of connection points: 2
#     Edge 25, Type (0, 1), BuildingBlock: KIFKEQ_clean_linker_1, # of connection points: 2
#     Edge 26, Type (0, 1), BuildingBlock: KIFKEQ_clean_linker_1, # of connection points: 2
#     Edge 27, Type (0, 1), BuildingBlock: KIFKEQ_clean_linker_1, # of connection points: 2
#     Edge 28, Type (0, 1), BuildingBlock: KIFKEQ_clean_linker_1, # of connection points: 2
#     Edge 29, Type (0, 1), BuildingBlock: KIFKEQ_clean_linker_1, # of connection points: 2
#     Edge 30, Type (0, 1), BuildingBlock: KIFKEQ_clean_linker_1, # of connection points: 2
#     Edge 31, Type (0, 1), BuildingBlock: KIFKEQ_clean_linker_1, # of connection points: 2
#     Edge 32, Type (0, 1), BuildingBlock: KIFKEQ_clean_linker_1, # of connection points: 2
#     Edge 33, Type (0, 1), BuildingBlock: KIFKEQ_clean_linker_1, # of connection points: 2
#     Edge 34, Type (0, 1), BuildingBlock: KIFKEQ_clean_linker_1, # of connection points: 2
#     Edge 35, Type (0, 1), BuildingBlock: KIFKEQ_clean_linker_1, # of connection points: 2
# Relax obj value: 0.138
# Max RMSD: 0.225
# Mean RMSD: 0.146
data_MOF--net-nom--node1-CEKHIL_clean_sbu_0--node2-AZAVOO_clean_linker_0--edge1-KIFKEQ_clean_linker_1
_symmetry_space_group_name_H-M    P1
_symmetry_Int_Tables_number       1
_symmetry_cell_setting            triclinic
loop_
_symmetry_equiv_pos_as_xyz
'x, y, z'
_cell_length_a     49.794182
_cell_length_b     49.781542
_cell_length_c     60.606864
_cell_angle_alpha  90.041838
_cell_angle_beta   90.013867
_cell_angle_gamma 123.32838
loop_
_atom_site_label
_atom_site_type_symbol
_atom_site_fract_x
_atom_site_fract_y
_atom_site_fract_z
_atom_type_partial_charge
H0 H 0.07989 0.59117 0.17428 0.0
H1 H 0.20822 0.72305 0.41212 0.0
H2 H 0.99734 0.54158 0.2869 0.0
H3 H 0.95963 0.51358 0.25673 0.0
H4 H 0.94732 0.59266 0.25008 0.0
H5 H 0.98562 0.62076 0.28052 0.0
H6 H 0.07004 0.58049 0.27047 0.0
H7 H 0.07684 0.57854 0.23062 0.0
H8 H 0.05315 0.64928 0.22094 0.0
H9 H 0.04674 0.65119 0.26084 0.0
H10 H 0.11897 0.60889 0.30878 0.0
H11 H 0.17516 0.63696 0.29696 0.0
H12 H 0.17001 0.71563 0.27279 0.0
H13 H 0.11389 0.68762 0.28508 0.0
H14 H 0.0996 0.59917 0.35051 0.0
H15 H 0.14239 0.62137 0.37821 0.0
H16 H 0.15529 0.71423 0.37126 0.0
H17 H 0.11227 0.6916 0.34364 0.0
H18 H 0.03246 0.56365 0.36167 0.0
H19 H 0.05191 0.56635 0.3988 0.0
H20 H 0.06557 0.65941 0.40761 0.0
H21 H 0.04861 0.65739 0.36959 0.0
H22 H 0.9615 0.54168 0.32386 0.0
H23 H 0.90767 0.52653 0.33536 0.0
H24 H 0.94657 0.62379 0.35716 0.0
H25 H 4e-05 0.63926 0.34463 0.0
O26 O 0.07735 0.59251 0.19 0.0
O27 O 0.06498 0.62889 0.18591 0.0
O28 O 0.18487 0.66589 0.40324 0.0
O29 O 0.19193 0.71394 0.40071 0.0
C30 C 0.02152 0.60174 0.30123 0.0
C31 C 0.05297 0.61641 0.29261 0.0
C32 C 0.07963 0.63073 0.30695 0.0
C33 C 0.07488 0.62953 0.32991 0.0
C34 C 0.04349 0.61497 0.3386 0.0
C35 C 0.01682 0.60219 0.32425 0.0
C36 C 0.99395 0.58302 0.28599 0.0
C37 C 0.9858 0.55246 0.27935 0.0
C38 C 0.9642 0.53649 0.2621 0.0
C39 C 0.95043 0.55087 0.25097 0.0
C40 C 0.95769 0.58106 0.25824 0.0
C41 C 0.97925 0.59698 0.27572 0.0
C42 C 0.0579 0.61596 0.26848 0.0
C43 C 0.06653 0.59567 0.2597 0.0
C44 C 0.0703 0.59455 0.23694 0.0
C45 C 0.06548 0.61372 0.22258 0.0
C46 C 0.057 0.63418 0.23152 0.0
C47 C 0.05331 0.63531 0.25428 0.0
C48 C 0.11263 0.64647 0.29804 0.0
C49 C 0.13003 0.6322 0.30096 0.0
C50 C 0.16201 0.64822 0.29424 0.0
C51 C 0.1769 0.67854 0.28416 0.0
C52 C 0.15901 0.69223 0.28046 0.0
C53 C 0.12709 0.67634 0.28747 0.0
C54 C 0.10289 0.64381 0.34512 0.0
C55 C 0.11194 0.62437 0.35485 0.0
C56 C 0.13632 0.6371 0.3707 0.0
C57 C 0.15219 0.66957 0.37702 0.0
C58 C 0.14352 0.68913 0.36681 0.0
C59 C 0.11909 0.67634 0.35097 0.0
C60 C 0.03943 0.61044 0.36283 0.0
C61 C 0.03821 0.58394 0.37199 0.0
C62 C 0.04962 0.58569 0.39335 0.0
C63 C 0.06168 0.61374 0.40613 0.0
C64 C 0.05794 0.63804 0.39798 0.0
C65 C 0.04736 0.63661 0.37639 0.0
C66 C 0.9847 0.59168 0.33316 0.0
C67 C 0.95842 0.55977 0.33098 0.0
C68 C 0.92778 0.55114 0.33762 0.0
C69 C 0.92311 0.5741 0.34702 0.0
C70 C 0.94963 0.60568 0.35004 0.0
C71 C 0.98012 0.61445 0.34297 0.0
C72 C 0.06923 0.61227 0.19839 0.0
C73 C 0.17735 0.68291 0.3944 0.0
H74 H 0.6089 0.11798 0.34689 0.0
H75 H 0.56416 0.19252 0.58979 0.0
H76 H 0.57832 0.02661 0.44786 0.0
H77 H 0.57084 0.99385 0.4154 0.0
H78 H 0.4683 0.95018 0.41906 0.0
H79 H 0.47603 0.98361 0.4513 0.0
H80 H 0.60578 0.09602 0.44193 0.0
H81 H 0.61684 0.10991 0.40279 0.0
H82 H 0.51518 0.06522 0.39097 0.0
H83 H 0.50455 0.0518 0.43021 0.0
H84 H 0.61489 0.13906 0.47025 0.0
H85 H 0.63088 0.19411 0.46087 0.0
H86 H 0.53145 0.16405 0.46344 0.0
H87 H 0.51555 0.10904 0.47191 0.0
H88 H 0.6033 0.11153 0.52399 0.0
H89 H 0.61737 0.14997 0.55408 0.0
H90 H 0.52631 0.1406 0.54579 0.0
H91 H 0.51251 0.10206 0.51585 0.0
H92 H 0.5697 0.03971 0.53584 0.0
H93 H 0.57313 0.05067 0.57529 0.0
H94 H 0.48574 0.04936 0.5715 0.0
H95 H 0.48299 0.03906 0.53186 0.0
H96 H 0.53701 0.97539 0.4899 0.0
H97 H 0.49895 0.91764 0.49643 0.0
H98 H 0.42542 0.9353 0.51288 0.0
H99 H 0.46281 0.99215 0.50515 0.0
O100 O 0.60402 0.11251 0.36233 0.0
O101 O 0.55151 0.0891 0.35711 0.0
O102 O 0.60635 0.18251 0.58088 0.0
O103 O 0.55962 0.17813 0.57754 0.0
C104 C 0.53329 0.03154 0.4689 0.0
C105 C 0.54771 0.06402 0.4625 0.0
C106 C 0.55401 0.08744 0.47839 0.0
C107 C 0.5476 0.07893 0.50077 0.0
C108 C 0.53223 0.04641 0.50717 0.0
C109 C 0.52404 0.02244 0.49115 0.0
C110 C 0.52773 0.00752 0.45189 0.0
C111 C 0.55419 0.00954 0.44189 0.0
C112 C 0.54991 0.99094 0.42335 0.0
C113 C 0.51903 0.96965 0.4147 0.0
C114 C 0.49234 0.96623 0.42553 0.0
C115 C 0.49669 0.98524 0.44392 0.0
C116 C 0.55442 0.07314 0.43887 0.0
C117 C 0.586 0.08956 0.43088 0.0
C118 C 0.59221 0.09731 0.40851 0.0
C119 C 0.56689 0.08868 0.39375 0.0
C120 C 0.53523 0.07224 0.40189 0.0
C121 C 0.52909 0.06457 0.42427 0.0
C122 C 0.56409 0.1202 0.47155 0.0
C123 C 0.59661 0.14434 0.46841 0.0
C124 C 0.60567 0.17561 0.46319 0.0
C125 C 0.58231 0.18307 0.46164 0.0
C126 C 0.54981 0.15879 0.46475 0.0
C127 C 0.54075 0.12749 0.46946 0.0
C128 C 0.55699 0.10419 0.51773 0.0
C129 C 0.58661 0.11811 0.52857 0.0
C130 C 0.59452 0.13995 0.54578 0.0
C131 C 0.57292 0.14831 0.55237 0.0
C132 C 0.54349 0.13471 0.54114 0.0
C133 C 0.5356 0.11283 0.52396 0.0
C134 C 0.52618 0.03867 0.53099 0.0
C135 C 0.55037 0.04004 0.54374 0.0
C136 C 0.55235 0.04651 0.56633 0.0
C137 C 0.53007 0.05161 0.57645 0.0
C138 C 0.50359 0.04616 0.56409 0.0
C139 C 0.50167 0.03973 0.5415 0.0
C140 C 0.50272 0.98801 0.49717 0.0
C141 C 0.51268 0.96667 0.49499 0.0
C142 C 0.49094 0.93374 0.4988 0.0
C143 C 0.45897 0.92173 0.50494 0.0
C144 C 0.44956 0.94349 0.50768 0.0
C145 C 0.4711 0.97616 0.50366 0.0
C146 C 0.57354 0.09672 0.36996 0.0
C147 C 0.58079 0.17074 0.57108 0.0
H148 H 0.44605 0.43095 0.79093 0.0
H149 H 0.51667 0.36984 0.54485 0.0
H150 H 0.45002 0.50839 0.67653 0.0
H151 H 0.43364 0.52369 0.70968 0.0
H152 H 0.34728 0.42841 0.71318 0.0
H153 H 0.36297 0.4137 0.67909 0.0
H154 H 0.47742 0.46893 0.69846 0.0
H155 H 0.4734 0.46088 0.73846 0.0
H156 H 0.38279 0.3698 0.72977 0.0
H157 H 0.38708 0.37831 0.6898 0.0
H158 H 0.51246 0.44128 0.65792 0.0
H159 H 0.53332 0.40883 0.66938 0.0
H160 H 0.43642 0.32695 0.67879 0.0
H161 H 0.41551 0.35903 0.66615 0.0
H162 H 0.51697 0.47118 0.61712 0.0
H163 H 0.54501 0.45977 0.58932 0.0
H164 H 0.46098 0.36311 0.58252 0.0
H165 H 0.43309 0.37501 0.61023 0.0
H166 H 0.49027 0.51026 0.60967 0.0
H167 H 0.51702 0.52332 0.57373 0.0
H168 H 0.44168 0.42996 0.54934 0.0
H169 H 0.41507 0.41754 0.58505 0.0
H170 H 0.44903 0.52211 0.63748 0.0
H171 H 0.42057 0.54749 0.62708 0.0
H172 H 0.33953 0.45519 0.60547 0.0
H173 H 0.36767 0.42995 0.61718 0.0
O174 O 0.44757 0.43324 0.77504 0.0
O175 O 0.40163 0.3861 0.76967 0.0
O176 O 0.54878 0.42481 0.56024 0.0
O177 O 0.50646 0.37467 0.55635 0.0
C178 C 0.42178 0.44872 0.65937 0.0
C179 C 0.434 0.43071 0.66731 0.0
C180 C 0.44988 0.42165 0.65287 0.0
C181 C 0.45497 0.43207 0.63072 0.0
C182 C 0.44309 0.45046 0.62284 0.0
C183 C 0.42575 0.45806 0.637 0.0
C184 C 0.40754 0.46005 0.67531 0.0
C185 C 0.42672 0.49137 0.68369 0.0
C186 C 0.41746 0.49999 0.70271 0.0
C187 C 0.38929 0.47713 0.71389 0.0
C188 C 0.36905 0.44639 0.70473 0.0
C189 C 0.37792 0.43805 0.68531 0.0
C190 C 0.4327 0.42406 0.69129 0.0
C191 C 0.45695 0.44707 0.70524 0.0
C192 C 0.4545 0.44248 0.72807 0.0
C193 C 0.42774 0.41471 0.73732 0.0
C194 C 0.40373 0.39143 0.72319 0.0
C195 C 0.4062 0.39611 0.70036 0.0
C196 C 0.46246 0.4025 0.66113 0.0
C197 C 0.49571 0.41632 0.66234 0.0
C198 C 0.50757 0.39786 0.66893 0.0
C199 C 0.48638 0.36551 0.67492 0.0
C200 C 0.45314 0.35192 0.67435 0.0
C201 C 0.44125 0.3702 0.66723 0.0
C202 C 0.47298 0.42396 0.61557 0.0
C203 C 0.50475 0.4475 0.6097 0.0
C204 C 0.52068 0.44093 0.5938 0.0
C205 C 0.50514 0.41059 0.58356 0.0
C206 C 0.47359 0.38676 0.58999 0.0
C207 C 0.45766 0.39341 0.60589 0.0
C208 C 0.45087 0.46287 0.59995 0.0
C209 C 0.4787 0.49339 0.59617 0.0
C210 C 0.49421 0.5006 0.57574 0.0
C211 C 0.48189 0.47743 0.55883 0.0
C212 C 0.45182 0.44846 0.56192 0.0
C213 C 0.4364 0.4413 0.58233 0.0
C214 C 0.41024 0.47418 0.62832 0.0
C215 C 0.42514 0.50746 0.6305 0.0
C216 C 0.40886 0.52193 0.62433 0.0
C217 C 0.37751 0.50342 0.61553 0.0
C218 C 0.36326 0.47016 0.61262 0.0
C219 C 0.37943 0.4557 0.61907 0.0
C220 C 0.42477 0.41034 0.76162 0.0
C221 C 0.52156 0.40389 0.56607 0.0
H222 H 0.06808 0.60901 0.96455 0.0
H223 H 0.20855 0.60313 0.73785 0.0
H224 H 0.99788 0.58143 0.85833 0.0
H225 H 0.96316 0.564 0.8909 0.0
H226 H 0.93124 0.46558 0.87751 0.0
H227 H 0.96678 0.48324 0.84529 0.0
H228 H 0.07289 0.61629 0.86814 0.0
H229 H 0.07627 0.6231 0.90826 0.0
H230 H 0.02647 0.52011 0.91626 0.0
H231 H 0.02378 0.51371 0.87615 0.0
H232 H 0.12894 0.62975 0.83015 0.0
H233 H 0.18146 0.64224 0.84305 0.0
H234 H 0.13562 0.54619 0.8695 0.0
H235 H 0.0838 0.53361 0.85604 0.0
H236 H 0.09713 0.62142 0.78266 0.0
H237 H 0.14214 0.63999 0.7572 0.0
H238 H 0.14977 0.56113 0.77745 0.0
H239 H 0.10432 0.54249 0.80255 0.0
H240 H 0.02704 0.58667 0.76956 0.0
H241 H 0.04398 0.59607 0.7309 0.0
H242 H 0.0636 0.52177 0.73493 0.0
H243 H 0.0459 0.51207 0.77333 0.0
H244 H 0.96034 0.54891 0.81088 0.0
H245 H 0.90529 0.51064 0.79765 0.0
H246 H 0.93245 0.44554 0.77744 0.0
H247 H 0.98676 0.48304 0.79135 0.0
O248 O 0.06704 0.60584 0.94874 0.0
O249 O 0.04072 0.55268 0.95191 0.0
O250 O 0.18541 0.63612 0.73773 0.0
O251 O 0.19102 0.59659 0.74803 0.0
C252 C 0.01341 0.54529 0.835 0.0
C253 C 0.04423 0.56043 0.84487 0.0
C254 C 0.07159 0.57095 0.83169 0.0
C255 C 0.06854 0.56812 0.80855 0.0
C256 C 0.03773 0.55218 0.79867 0.0
C257 C 0.01 0.53992 0.81191 0.0
C258 C 0.98508 0.53364 0.84957 0.0
C259 C 0.98252 0.55598 0.86195 0.0
C260 C 0.9629 0.54607 0.8806 0.0
C261 C 0.94495 0.51356 0.88679 0.0
C262 C 0.94482 0.49078 0.873 0.0
C263 C 0.96493 0.50079 0.85454 0.0
C264 C 0.04783 0.56451 0.86925 0.0
C265 C 0.06297 0.59527 0.8786 0.0
C266 C 0.06476 0.59907 0.90152 0.0
C267 C 0.05146 0.57212 0.91547 0.0
C268 C 0.03684 0.54135 0.906 0.0
C269 C 0.03521 0.53762 0.8831 0.0
C270 C 0.1026 0.58079 0.84219 0.0
C271 C 0.13029 0.61163 0.839 0.0
C272 C 0.16014 0.61869 0.84632 0.0
C273 C 0.16244 0.59517 0.85729 0.0
C274 C 0.13442 0.56489 0.86137 0.0
C275 C 0.10483 0.5577 0.85373 0.0
C276 C 0.09752 0.58066 0.79445 0.0
C277 C 0.10868 0.60831 0.78165 0.0
C278 C 0.13436 0.61882 0.76711 0.0
C279 C 0.14951 0.60199 0.76525 0.0
C280 C 0.13863 0.57463 0.77845 0.0
C281 C 0.11279 0.56402 0.79288 0.0
C282 C 0.03554 0.54893 0.77427 0.0
C283 C 0.03344 0.57135 0.76176 0.0
C284 C 0.04359 0.57699 0.73978 0.0
C285 C 0.05593 0.56023 0.73007 0.0
C286 C 0.05424 0.53507 0.7419 0.0
C287 C 0.04401 0.52941 0.76384 0.0
C288 C 0.97764 0.51885 0.80198 0.0
C289 C 0.95441 0.52646 0.80347 0.0
C290 C 0.92308 0.50466 0.79596 0.0
C291 C 0.91479 0.47528 0.78648 0.0
C292 C 0.93836 0.46822 0.7844 0.0
C293 C 0.96939 0.48967 0.79227 0.0
C294 C 0.05272 0.57616 0.9398 0.0
C295 C 0.17639 0.61271 0.74951 0.0
H296 H 0.56237 0.95727 0.83197 0.0
H297 H 0.57554 0.84681 0.06213 0.0
H298 H 0.57831 0.0345 0.93555 0.0
H299 H 0.58505 0.07179 0.90682 0.0
H300 H 0.68743 0.12932 0.91955 0.0
H301 H 0.68051 0.09021 0.94718 0.0
H302 H 0.5564 0.96624 0.92785 0.0
H303 H 0.54914 0.95652 0.88808 0.0
H304 H 0.65219 0.01656 0.87915 0.0
H305 H 0.65913 0.02577 0.91901 0.0
H306 H 0.54328 0.92651 0.9694 0.0
H307 H 0.52122 0.87092 0.95885 0.0
H308 H 0.61291 0.89896 0.93066 0.0
H309 H 0.6352 0.95463 0.94228 0.0
H310 H 0.55701 0.95724 0.01581 0.0
H311 H 0.53933 0.91365 0.04237 0.0
H312 H 0.61636 0.90365 0.02121 0.0
H313 H 0.63418 0.94772 0.995 0.0
H314 H 0.59142 0.03574 0.02127 0.0
H315 H 0.58046 0.02696 0.06058 0.0
H316 H 0.64253 0.99147 0.06508 0.0
H317 H 0.6564 0.00435 0.02641 0.0
H318 H 0.60671 0.07859 0.98064 0.0
H319 H 0.63385 0.13458 0.99297 0.0
H320 H 0.71487 0.13188 0.01492 0.0
H321 H 0.688 0.0762 0.00207 0.0
O322 O 0.56581 0.96127 0.84768 0.0
O323 O 0.61894 0.99242 0.84396 0.0
O324 O 0.54309 0.87055 0.06223 0.0
O325 O 0.58191 0.86399 0.05167 0.0
C326 C 0.62451 0.034 0.95874 0.0
C327 C 0.61266 0.00279 0.95047 0.0
C328 C 0.60465 0.97749 0.96516 0.0
C329 C 0.60841 0.98321 0.98811 0.0
C330 C 0.62194 0.01476 0.99641 0.0
C331 C 0.63024 0.04023 0.98167 0.0
C332 C 0.62895 0.05934 0.94325 0.0
C333 C 0.60221 0.05521 0.93213 0.0
C334 C 0.60611 0.07688 0.91586 0.0
C335 C 0.63686 0.10367 0.91062 0.0
C336 C 0.66346 0.10864 0.9227 0.0
C337 C 0.65957 0.08651 0.9387 0.0
C338 C 0.60829 0.99653 0.92632 0.0
C339 C 0.57738 0.97703 0.9173 0.0
C340 C 0.5733 0.97164 0.89456 0.0
C341 C 0.60009 0.98574 0.88042 0.0
C342 C 0.63105 0.00531 0.88956 0.0
C343 C 0.63509 0.01062 0.91231 0.0
C344 C 0.59083 0.94445 0.95671 0.0
C345 C 0.55853 0.92063 0.96086 0.0
C346 C 0.54594 0.88893 0.95464 0.0
C347 C 0.56529 0.88046 0.94384 0.0
C348 C 0.5975 0.90463 0.93918 0.0
C349 C 0.61018 0.93642 0.94559 0.0
C350 C 0.59695 0.95572 0.00355 0.0
C351 C 0.57003 0.9456 0.01695 0.0
C352 C 0.55997 0.92068 0.03208 0.0
C353 C 0.57648 0.90518 0.03394 0.0
C354 C 0.60315 0.91509 0.02023 0.0
C355 C 0.61331 0.94016 0.00518 0.0
C356 C 0.62397 0.01976 0.02077 0.0
C357 C 0.60398 0.0277 0.03099 0.0
C358 C 0.59713 0.02185 0.05347 0.0
C359 C 0.60908 0.00669 0.06595 0.0
C360 C 0.63241 0.00276 0.05621 0.0
C361 C 0.6403 0.00994 0.03393 0.0
C362 C 0.64555 0.07346 0.99024 0.0
C363 C 0.63038 0.09015 0.98801 0.0
C364 C 0.64586 0.12204 0.99503 0.0
C365 C 0.67648 0.13749 0.00477 0.0
C366 C 0.6912 0.12043 0.00756 0.0
C367 C 0.67592 0.08871 0.00024 0.0
C368 C 0.59565 0.98009 0.85626 0.0
C369 C 0.56605 0.87888 0.05014 0.0
H370 H 0.43865 0.39612 0.02688 0.0
H371 H 0.65492 0.48908 0.23534 0.0
H372 H 0.43312 0.46557 0.12806 0.0
H373 H 0.40612 0.46969 0.09567 0.0
H374 H 0.48327 0.56933 0.08824 0.0
H375 H 0.51081 0.56476 0.11989 0.0
H376 H 0.46759 0.42707 0.12059 0.0
H377 H 0.45059 0.40471 0.0834 0.0
H378 H 0.50686 0.50069 0.0562 0.0
H379 H 0.52414 0.52265 0.09339 0.0
H380 H 0.5222 0.42894 0.15491 0.0
H381 H 0.56102 0.41585 0.14349 0.0
H382 H 0.60834 0.50012 0.10182 0.0
H383 H 0.57053 0.51365 0.11397 0.0
H384 H 0.5115 0.45409 0.20154 0.0
H385 H 0.54384 0.44555 0.22743 0.0
H386 H 0.6298 0.51497 0.19174 0.0
H387 H 0.59719 0.52364 0.16617 0.0
H388 H 0.48419 0.49407 0.2112 0.0
H389 H 0.50249 0.50128 0.24934 0.0
H390 H 0.59918 0.57343 0.2284 0.0
H391 H 0.58055 0.56549 0.19013 0.0
H392 H 0.45263 0.52227 0.17793 0.0
H393 H 0.45015 0.56884 0.18811 0.0
H394 H 0.54944 0.63279 0.16879 0.0
H395 H 0.55177 0.5865 0.15894 0.0
O396 O 0.4462 0.4054 0.04139 0.0
O397 O 0.47489 0.45532 0.02833 0.0
O398 O 0.59664 0.45659 0.24312 0.0
O399 O 0.64152 0.4916 0.22512 0.0
C400 C 0.49458 0.5092 0.14058 0.0
C401 C 0.5054 0.49 0.13242 0.0
C402 C 0.52547 0.48471 0.14554 0.0
C403 C 0.53245 0.49624 0.16743 0.0
C404 C 0.52247 0.51616 0.17525 0.0
C405 C 0.50495 0.52394 0.16149 0.0
C406 C 0.47395 0.51486 0.12634 0.0
C407 C 0.44356 0.48862 0.11995 0.0
C408 C 0.42826 0.49092 0.10145 0.0
C409 C 0.44278 0.51975 0.0895 0.0
C410 C 0.47146 0.54694 0.09735 0.0
C411 C 0.48712 0.54444 0.11556 0.0
C412 C 0.49681 0.47647 0.1097 0.0
C413 C 0.47643 0.44318 0.10655 0.0
C414 C 0.46667 0.4305 0.0853 0.0
C415 C 0.47719 0.45094 0.06683 0.0
C416 C 0.49819 0.48428 0.07005 0.0
C417 C 0.50803 0.49689 0.09129 0.0
C418 C 0.54369 0.47234 0.13536 0.0
C419 C 0.5406 0.44415 0.143 0.0
C420 C 0.56272 0.43671 0.13643 0.0
C421 C 0.58806 0.45732 0.12207 0.0
C422 C 0.58952 0.48419 0.11327 0.0
C423 C 0.56765 0.4917 0.11995 0.0
C424 C 0.552 0.48934 0.18195 0.0
C425 C 0.5373 0.46725 0.19927 0.0
C426 C 0.55583 0.46248 0.21405 0.0
C427 C 0.58943 0.47963 0.21167 0.0
C428 C 0.604 0.50139 0.19405 0.0
C429 C 0.58544 0.50626 0.17935 0.0
C430 C 0.53114 0.52898 0.19799 0.0
C431 C 0.509 0.51246 0.21499 0.0
C432 C 0.51959 0.51664 0.2368 0.0
C433 C 0.55246 0.53749 0.24182 0.0
C434 C 0.57384 0.55676 0.22496 0.0
C435 C 0.56322 0.55253 0.20316 0.0
C436 C 0.50231 0.55116 0.16762 0.0
C437 C 0.47373 0.54637 0.17593 0.0
C438 C 0.47243 0.57287 0.1818 0.0
C439 C 0.49959 0.60435 0.1791 0.0
C440 C 0.52809 0.60884 0.1708 0.0
C441 C 0.52948 0.58249 0.16525 0.0
C442 C 0.46614 0.43748 0.04433 0.0
C443 C 0.60928 0.47513 0.22761 0.0
Co444 Co 0.64414 0.44828 0.40634 0.0
O445 O 0.67489 0.45173 0.38576 0.0
O446 O 0.68366 0.49103 0.40796 0.0
C447 C 0.63121 0.40032 0.4196 0.0
O448 O 0.61726 0.452 0.43023 0.0
Co449 Co 0.57291 0.3918 0.40097 0.0
O450 O 0.56908 0.40501 0.43094 0.0
C451 C 0.59933 0.44896 0.3724 0.0
C452 C 0.69453 0.48073 0.39283 0.0
C453 C 0.58938 0.43268 0.43897 0.0
O454 O 0.62606 0.46298 0.38307 0.0
O455 O 0.57601 0.41999 0.37615 0.0
O456 O 0.65587 0.42675 0.42737 0.0
O457 O 0.61675 0.4036 0.40318 0.0
Co458 Co 0.25136 0.64973 0.567 0.0
O459 O 0.27823 0.64612 0.58796 0.0
O460 O 0.24278 0.60672 0.56621 0.0
C461 C 0.2914 0.69699 0.55282 0.0
O462 O 0.22051 0.64496 0.54264 0.0
Co463 Co 0.24236 0.70677 0.56833 0.0
O464 O 0.22714 0.69305 0.53765 0.0
C465 C 0.20628 0.65235 0.59959 0.0
C466 C 0.26537 0.61689 0.58096 0.0
C467 C 0.21609 0.66431 0.53156 0.0
O468 O 0.21719 0.63693 0.59023 0.0
O469 O 0.21499 0.68088 0.59405 0.0
O470 O 0.28715 0.67016 0.54606 0.0
O471 O 0.27303 0.69457 0.56876 0.0
Co472 Co 0.64094 0.25358 0.73503 0.0
O473 O 0.63347 0.27671 0.71336 0.0
O474 O 0.5981 0.24511 0.73869 0.0
C475 C 0.69011 0.29544 0.7448 0.0
O476 O 0.64161 0.2273 0.76076 0.0
Co477 Co 0.69721 0.24439 0.72768 0.0
O478 O 0.68691 0.2275 0.75814 0.0
C479 C 0.63722 0.20476 0.70242 0.0
C480 C 0.6055 0.26486 0.72226 0.0
C481 C 0.66139 0.22042 0.76828 0.0
O482 O 0.62386 0.21594 0.7141 0.0
O483 O 0.66697 0.21491 0.70418 0.0
O484 O 0.66451 0.29219 0.7532 0.0
O485 O 0.68512 0.27518 0.72944 0.0
Co486 Co 0.40465 0.59821 0.90083 0.0
O487 O 0.38884 0.61723 0.88157 0.0
O488 O 0.35859 0.57476 0.90292 0.0
C489 C 0.44411 0.64506 0.91548 0.0
O490 O 0.41137 0.57307 0.92403 0.0
Co491 Co 0.47168 0.61073 0.89677 0.0
O492 O 0.46361 0.59124 0.92646 0.0
C493 C 0.42225 0.56855 0.86446 0.0
C494 C 0.36047 0.59554 0.88895 0.0
C495 C 0.43503 0.5746 0.93386 0.0
O496 O 0.40131 0.56956 0.87613 0.0
O497 O 0.45224 0.58476 0.86916 0.0
O498 O 0.41489 0.63034 0.92291 0.0
O499 O 0.44851 0.63204 0.8985 0.0
Co500 Co 0.80127 0.41491 0.07188 0.0
O501 O 0.7669 0.40217 0.09249 0.0
O502 O 0.78813 0.44472 0.07056 0.0
C503 C 0.78086 0.36579 0.05743 0.0
O504 O 0.83479 0.43455 0.04745 0.0
Co505 Co 0.84528 0.38943 0.07472 0.0
O506 O 0.86057 0.40915 0.04518 0.0
C507 C 0.85105 0.43549 0.10795 0.0
C508 C 0.76677 0.42668 0.08532 0.0
C509 C 0.85409 0.42885 0.03765 0.0
O510 O 0.83372 0.44128 0.09567 0.0
O511 O 0.8562 0.41357 0.10339 0.0
O512 O 0.77088 0.38364 0.05072 0.0
O513 O 0.80082 0.377 0.07382 0.0
Co514 Co 0.46208 0.81877 0.23098 0.0
O515 O 0.45652 0.78816 0.20916 0.0
O516 O 0.49457 0.80916 0.23477 0.0
C517 C 0.41008 0.79229 0.24101 0.0
O518 O 0.47395 0.84962 0.25685 0.0
Co519 Co 0.42857 0.85571 0.22492 0.0
O520 O 0.44458 0.87147 0.25518 0.0
C521 C 0.48288 0.87026 0.19659 0.0
C522 C 0.48063 0.78927 0.21836 0.0
C523 C 0.46459 0.86711 0.26492 0.0
O524 O 0.49025 0.85513 0.2099 0.0
O525 O 0.45718 0.8701 0.19832 0.0
O526 O 0.42876 0.7842 0.24919 0.0
O527 O 0.42257 0.8139 0.22573 0.0
H528 H 0.20465 0.70821 0.24514 0.0
H529 H 0.22654 0.68881 0.30978 0.0
H530 H 0.26139 0.73655 0.23514 0.0
H531 H 0.28335 0.71794 0.30018 0.0
H532 H 0.3756 0.73981 0.26735 0.0
H533 H 0.31933 0.71284 0.27778 0.0
H534 H 0.3128 0.7842 0.24203 0.0
H535 H 0.36884 0.8104 0.23089 0.0
C536 C 0.22172 0.71034 0.25725 0.0
C537 C 0.2113 0.6962 0.27815 0.0
C538 C 0.25422 0.72668 0.2516 0.0
C539 C 0.27698 0.72951 0.26685 0.0
C540 C 0.26645 0.71569 0.28788 0.0
C541 C 0.23394 0.69908 0.29342 0.0
C542 C 0.36215 0.74978 0.2618 0.0
C543 C 0.37652 0.77713 0.24827 0.0
C544 C 0.32992 0.73443 0.26787 0.0
C545 C 0.31147 0.74631 0.26074 0.0
C546 C 0.32612 0.77407 0.2475 0.0
C547 C 0.35829 0.78923 0.24124 0.0
H548 H 0.57036 0.22067 0.48659 0.0
H549 H 0.61447 0.21918 0.42572 0.0
H550 H 0.58255 0.27431 0.47746 0.0
H551 H 0.62598 0.2725 0.41632 0.0
H552 H 0.59477 0.34328 0.39813 0.0
H553 H 0.58447 0.29119 0.40917 0.0
H554 H 0.63766 0.33327 0.46941 0.0
H555 H 0.64875 0.38577 0.45816 0.0
C556 C 0.58279 0.23199 0.47133 0.0
C557 C 0.59153 0.21607 0.4568 0.0
C558 C 0.58979 0.26253 0.46617 0.0
C559 C 0.60499 0.27721 0.44618 0.0
C560 C 0.61407 0.26144 0.43177 0.0
C561 C 0.60768 0.23118 0.43716 0.0
C562 C 0.60407 0.34138 0.4138 0.0
C563 C 0.62261 0.3685 0.42729 0.0
C564 C 0.59836 0.31169 0.42001 0.0
C565 C 0.61051 0.3085 0.44001 0.0
C566 C 0.62811 0.3353 0.45389 0.0
C567 C 0.63442 0.36521 0.44746 0.0
H568 H 0.40116 0.56339 0.59809 0.0
H569 H 0.31284 0.478 0.62037 0.0
H570 H 0.37224 0.58912 0.59088 0.0
H571 H 0.28385 0.50354 0.61229 0.0
H572 H 0.24329 0.55426 0.57044 0.0
H573 H 0.26921 0.52544 0.57883 0.0
H574 H 0.34361 0.60802 0.6148 0.0
H575 H 0.31783 0.63662 0.60669 0.0
C576 C 0.37565 0.55008 0.60154 0.0
C577 C 0.3595 0.51859 0.60997 0.0
C578 C 0.35905 0.56482 0.59731 0.0
C579 C 0.32581 0.54837 0.60113 0.0
C580 C 0.30942 0.51669 0.60903 0.0
C581 C 0.32609 0.50204 0.61355 0.0
C582 C 0.26493 0.56606 0.58038 0.0
C583 C 0.27853 0.59775 0.58784 0.0
C584 C 0.27975 0.54957 0.58518 0.0
C585 C 0.30863 0.56466 0.59724 0.0
C586 C 0.32165 0.59597 0.60519 0.0
C587 C 0.30669 0.61224 0.60066 0.0
H588 H 0.86035 0.45242 0.81066 0.0
H589 H 0.89418 0.44329 0.74734 0.0
H590 H 0.80583 0.40869 0.80106 0.0
H591 H 0.83955 0.40041 0.73723 0.0
H592 H 0.74685 0.30184 0.73523 0.0
H593 H 0.80079 0.34599 0.74541 0.0
H594 H 0.76074 0.39316 0.77871 0.0
H595 H 0.70683 0.34826 0.76935 0.0
C596 C 0.85591 0.44142 0.7945 0.0
C597 C 0.88135 0.4511 0.77974 0.0
C598 C 0.82469 0.41639 0.78896 0.0
C599 C 0.81823 0.40078 0.76841 0.0
C600 C 0.8437 0.4113 0.7534 0.0
C601 C 0.87494 0.43602 0.75908 0.0
C602 C 0.74964 0.32159 0.74482 0.0
C603 C 0.7227 0.32164 0.75151 0.0
C604 C 0.78057 0.34706 0.75051 0.0
C605 C 0.78524 0.37336 0.76275 0.0
C606 C 0.75812 0.37318 0.76954 0.0
C607 C 0.72719 0.3475 0.76409 0.0
H608 H 0.5946 0.84718 0.94695 0.0
H609 H 0.50543 0.83636 0.92789 0.0
H610 H 0.56991 0.78943 0.94102 0.0
H611 H 0.4808 0.77887 0.92297 0.0
H612 H 0.43843 0.67793 0.94884 0.0
H613 H 0.47202 0.73561 0.95545 0.0
H614 H 0.53787 0.74549 0.90494 0.0
H615 H 0.50387 0.68736 0.89791 0.0
C616 C 0.56997 0.83267 0.94123 0.0
C617 C 0.55183 0.84631 0.93818 0.0
C618 C 0.5559 0.79969 0.93797 0.0
C619 C 0.52346 0.77994 0.93191 0.0
C620 C 0.50576 0.7937 0.92803 0.0
C621 C 0.51983 0.82655 0.93095 0.0
C622 C 0.46036 0.69218 0.93939 0.0
C623 C 0.46823 0.67825 0.92256 0.0
C624 C 0.4795 0.72516 0.94318 0.0
C625 C 0.50709 0.74477 0.93044 0.0
C626 C 0.51659 0.73067 0.91489 0.0
C627 C 0.49717 0.69752 0.9109 0.0
H628 H 0.58338 0.40096 0.11265 0.0
H629 H 0.65226 0.50283 0.12177 0.0
H630 H 0.62738 0.39389 0.10493 0.0
H631 H 0.69597 0.49581 0.11404 0.0
H632 H 0.76029 0.47545 0.07283 0.0
H633 H 0.71688 0.48238 0.08228 0.0
H634 H 0.67372 0.39761 0.12334 0.0
H635 H 0.71693 0.39039 0.11363 0.0
C636 C 0.60788 0.42176 0.11312 0.0
C637 C 0.61435 0.45248 0.11752 0.0
C638 C 0.63305 0.41773 0.10875 0.0
C639 C 0.6651 0.44435 0.10876 0.0
C640 C 0.67151 0.47495 0.1135 0.0
C641 C 0.64644 0.47895 0.11787 0.0
C642 C 0.74168 0.45845 0.08401 0.0
C643 C 0.742 0.43238 0.09248 0.0
C644 C 0.71686 0.46245 0.08947 0.0
C645 C 0.69184 0.44046 0.10349 0.0
C646 C 0.69245 0.41469 0.11226 0.0
C647 C 0.71733 0.41073 0.10684 0.0
H648 H 0.39553 0.88633 0.49313 0.0
H649 H 0.46846 0.87773 0.52453 0.0
H650 H 0.35501 0.83068 0.50254 0.0
H651 H 0.42777 0.82147 0.5332 0.0
H652 H 0.34379 0.71239 0.52785 0.0
H653 H 0.38536 0.7657 0.51366 0.0
H654 H 0.33447 0.80526 0.5415 0.0
H655 H 0.29352 0.75254 0.55596 0.0
C656 C 0.40299 0.87259 0.50198 0.0
C657 C 0.4352 0.88676 0.50847 0.0
C658 C 0.37978 0.84066 0.50721 0.0
C659 C 0.38829 0.82197 0.51872 0.0
C660 C 0.42068 0.8354 0.52419 0.0
C661 C 0.44394 0.86758 0.51919 0.0
C662 C 0.34145 0.73249 0.53077 0.0
C663 C 0.31547 0.72838 0.543 0.0
C664 C 0.36525 0.76291 0.52276 0.0
C665 C 0.36298 0.78945 0.52647 0.0
C666 C 0.33661 0.78511 0.53826 0.0
C667 C 0.31325 0.75496 0.5466 0.0
H668 H 0.47883 0.33444 0.71382 0.0
H669 H 0.5226 0.35257 0.64957 0.0
H670 H 0.50477 0.30659 0.72485 0.0
H671 H 0.54703 0.32333 0.65985 0.0
H672 H 0.62131 0.31273 0.69338 0.0
H673 H 0.5898 0.33356 0.68187 0.0
H674 H 0.51013 0.26191 0.72153 0.0
H675 H 0.54282 0.24176 0.73399 0.0
C676 C 0.49356 0.33186 0.70198 0.0
C677 C 0.49922 0.34592 0.681 0.0
C678 C 0.50825 0.31576 0.70819 0.0
C679 C 0.52846 0.31306 0.69338 0.0
C680 C 0.53248 0.32573 0.67196 0.0
C681 C 0.51836 0.3423 0.66596 0.0
C682 C 0.59699 0.30114 0.69959 0.0
C683 C 0.58455 0.27549 0.71457 0.0
C684 C 0.57871 0.313 0.69281 0.0
C685 C 0.54715 0.29926 0.7005 0.0
C686 C 0.53444 0.27327 0.71537 0.0
C687 C 0.55304 0.26157 0.72242 0.0
H688 H 0.21454 0.61887 0.83051 0.0
H689 H 0.18081 0.58298 0.89631 0.0
H690 H 0.26333 0.61988 0.83765 0.0
H691 H 0.22986 0.58465 0.90374 0.0
H692 H 0.29796 0.55119 0.8995 0.0
H693 H 0.2515 0.554 0.89206 0.0
H694 H 0.31264 0.64465 0.8585 0.0
H695 H 0.35896 0.64132 0.86538 0.0
C696 C 0.21802 0.612 0.84669 0.0
C697 C 0.19398 0.60073 0.86285 0.0
C698 C 0.24589 0.6125 0.85078 0.0
C699 C 0.25025 0.60189 0.87116 0.0
C700 C 0.22685 0.59219 0.88768 0.0
C701 C 0.19892 0.59148 0.88353 0.0
C702 C 0.30141 0.57158 0.89039 0.0
C703 C 0.33205 0.59603 0.88303 0.0
C704 C 0.27487 0.57337 0.88632 0.0
C705 C 0.27845 0.59977 0.87494 0.0
C706 C 0.30904 0.6239 0.86719 0.0
C707 C 0.33557 0.622 0.87115 0.0
H708 H 0.70572 0.16346 0.0442 0.0
H709 H 0.68512 0.18799 0.98094 0.0
H710 H 0.73264 0.21938 0.05592 0.0
H711 H 0.71298 0.24417 0.99223 0.0
H712 H 0.73049 0.33246 0.0292 0.0
H713 H 0.70641 0.27773 0.01603 0.0
H714 H 0.77899 0.27197 0.05074 0.0
H715 H 0.80226 0.32645 0.06468 0.0
C716 C 0.70732 0.18098 0.03274 0.0
C717 C 0.69323 0.17148 0.01174 0.0
C718 C 0.72289 0.21305 0.03937 0.0
C719 C 0.72504 0.23637 0.02503 0.0
C720 C 0.7113 0.2268 0.00386 0.0
C721 C 0.69539 0.19467 0.99735 0.0
C722 C 0.74143 0.31957 0.0339 0.0
C723 C 0.76813 0.33362 0.04806 0.0
C724 C 0.72773 0.28821 0.02624 0.0
C725 C 0.74066 0.27031 0.03236 0.0
C726 C 0.76802 0.28481 0.04604 0.0
C727 C 0.78151 0.3161 0.0539 0.0
H728 H 0.5194 0.65714 0.15374 0.0
H729 H 0.47767 0.61551 0.2171 0.0
H730 H 0.51902 0.70471 0.16309 0.0
H731 H 0.4773 0.66324 0.22648 0.0
H732 H 0.51201 0.76828 0.24257 0.0
H733 H 0.51858 0.72429 0.23311 0.0
H734 H 0.47443 0.71446 0.16973 0.0
H735 H 0.46757 0.75797 0.1792 0.0
C736 C 0.51025 0.65827 0.1697 0.0
C737 C 0.4985 0.63268 0.1847 0.0
C738 C 0.50997 0.6854 0.175 0.0
C739 C 0.49831 0.68768 0.19553 0.0
C740 C 0.48677 0.66221 0.21063 0.0
C741 C 0.48663 0.63482 0.20519 0.0
C742 C 0.50427 0.75708 0.22648 0.0
C743 C 0.48926 0.76647 0.21162 0.0
C744 C 0.50774 0.73176 0.22117 0.0
C745 C 0.49681 0.7159 0.20075 0.0
C746 C 0.48319 0.72636 0.18553 0.0
C747 C 0.47924 0.75122 0.19097 0.0
H748 H 0.87089 0.54717 0.32034 0.0
H749 H 0.90204 0.5819 0.38667 0.0
H750 H 0.81632 0.53051 0.32987 0.0
H751 H 0.84693 0.56369 0.39677 0.0
H752 H 0.74531 0.5409 0.40581 0.0
H753 H 0.80142 0.56823 0.39355 0.0
H754 H 0.77483 0.48837 0.35008 0.0
H755 H 0.71966 0.46229 0.36143 0.0
C756 C 0.86587 0.55101 0.33703 0.0
C757 C 0.89041 0.56531 0.35287 0.0
C758 C 0.83462 0.54142 0.34256 0.0
C759 C 0.82696 0.54521 0.36423 0.0
C760 C 0.8519 0.56062 0.37989 0.0
C761 C 0.88339 0.5708 0.3742 0.0
C762 C 0.75156 0.52961 0.39337 0.0
C763 C 0.72803 0.49944 0.38463 0.0
C764 C 0.7837 0.54509 0.38647 0.0
C765 C 0.79277 0.5306 0.37074 0.0
C766 C 0.76889 0.50075 0.3618 0.0
C767 C 0.73707 0.48556 0.36852 0.0
H768 H 0.05739 0.56969 0.43627 0.0
H769 H 0.11374 0.67119 0.42075 0.0
H770 H 0.09585 0.57891 0.46475 0.0
H771 H 0.14978 0.6808 0.45061 0.0
H772 H 0.22887 0.69144 0.49105 0.0
H773 H 0.19144 0.67689 0.46057 0.0
H774 H 0.11647 0.59811 0.49931 0.0
H775 H 0.15511 0.61144 0.52892 0.0
C776 C 0.07764 0.59404 0.43904 0.0
C777 C 0.08217 0.61959 0.42594 0.0
C778 C 0.09962 0.59943 0.45568 0.0
C779 C 0.12643 0.63062 0.46003 0.0
C780 C 0.13012 0.65626 0.44752 0.0
C781 C 0.10867 0.6508 0.43061 0.0
C782 C 0.20453 0.67057 0.49271 0.0
C783 C 0.19479 0.65244 0.51217 0.0
C784 C 0.18281 0.66246 0.47541 0.0
C785 C 0.15042 0.63672 0.47751 0.0
C786 C 0.14112 0.61788 0.49683 0.0
C787 C 0.16322 0.62548 0.51388 0.0
H788 H 0.55428 0.04006 0.61335 0.0
H789 H 0.52413 0.10088 0.58861 0.0
H790 H 0.57618 0.07382 0.64625 0.0
H791 H 0.54601 0.13449 0.62129 0.0
H792 H 0.57514 0.18083 0.68922 0.0
H793 H 0.54369 0.13916 0.66163 0.0
H794 H 0.62326 0.12861 0.65132 0.0
H795 H 0.65442 0.16965 0.6789 0.0
C796 C 0.55188 0.0603 0.61509 0.0
C797 C 0.53761 0.06782 0.59829 0.0
C798 C 0.56449 0.07969 0.63388 0.0
C799 C 0.56315 0.10704 0.63626 0.0
C800 C 0.54714 0.11342 0.62011 0.0
C801 C 0.53451 0.09403 0.60135 0.0
C802 C 0.58582 0.16944 0.68119 0.0
C803 C 0.61742 0.17878 0.68623 0.0
C804 C 0.56782 0.14562 0.66534 0.0
C805 C 0.58093 0.13048 0.65434 0.0
C806 C 0.61223 0.13939 0.65973 0.0
C807 C 0.63025 0.16323 0.67543 0.0
H808 H 0.38431 0.44434 0.75089 0.0
H809 H 0.38478 0.52658 0.72781 0.0
H810 H 0.38698 0.46172 0.78911 0.0
H811 H 0.3868 0.54366 0.76607 0.0
H812 H 0.36916 0.55097 0.8398 0.0
H813 H 0.3543 0.52371 0.804 0.0
H814 H 0.43574 0.51494 0.80731 0.0
H815 H 0.45107 0.5427 0.84287 0.0
C816 C 0.3839 0.46553 0.75409 0.0
C817 C 0.38416 0.48412 0.73657 0.0
C818 C 0.38567 0.47556 0.77587 0.0
C819 C 0.38714 0.50399 0.78042 0.0
C820 C 0.3854 0.52149 0.76293 0.0
C821 C 0.38429 0.51181 0.74113 0.0
C822 C 0.38363 0.54281 0.83304 0.0
C823 C 0.41139 0.5491 0.84407 0.0
C824 C 0.37515 0.52734 0.81256 0.0
C825 C 0.39386 0.51726 0.80302 0.0
C826 C 0.42078 0.52227 0.81447 0.0
C827 C 0.42965 0.53831 0.83471 0.0
H828 H 0.88315 0.46613 0.89768 0.0
H829 H 0.97446 0.53916 0.92586 0.0
H830 H 0.86103 0.44812 0.93497 0.0
H831 H 0.95263 0.52084 0.96296 0.0
H832 H 0.91002 0.44186 0.01913 0.0
H833 H 0.93151 0.46483 0.98271 0.0
H834 H 0.85099 0.47333 0.97104 0.0
H835 H 0.82971 0.45099 0.00769 0.0
C836 C 0.89829 0.47846 0.91186 0.0
C837 C 0.93034 0.50414 0.90899 0.0
C838 C 0.88569 0.46828 0.9331 0.0
C839 C 0.90521 0.48314 0.95174 0.0
C840 C 0.93715 0.509 0.94884 0.0
C841 C 0.94952 0.51958 0.92766 0.0
C842 C 0.89706 0.44891 0.00889 0.0
C843 C 0.86824 0.44471 0.01628 0.0
C844 C 0.9094 0.46211 0.98811 0.0
C845 C 0.89281 0.47072 0.97414 0.0
C846 C 0.86411 0.46673 0.98152 0.0
C847 C 0.85211 0.45418 0.00251 0.0
H848 H 0.54654 0.98048 0.07845 0.0
H849 H 0.63569 0.99497 0.10203 0.0
H850 H 0.51935 0.94943 0.11073 0.0
H851 H 0.60716 0.96051 0.13354 0.0
H852 H 0.54725 0.91691 0.1979 0.0
H853 H 0.58011 0.95235 0.16749 0.0
H854 H 0.4993 0.89811 0.12321 0.0
H855 H 0.46645 0.8647 0.1538 0.0
C856 C 0.56068 0.97753 0.09058 0.0
C857 C 0.59363 0.9906 0.08734 0.0
C858 C 0.54466 0.95876 0.10899 0.0
C859 C 0.56069 0.95147 0.12453 0.0
C860 C 0.5939 0.96544 0.1219 0.0
C861 C 0.61022 0.98496 0.1036 0.0
C862 C 0.53686 0.91262 0.18155 0.0
C863 C 0.50438 0.88846 0.17809 0.0
C864 C 0.55561 0.93282 0.16412 0.0
C865 C 0.54222 0.92871 0.14291 0.0
C866 C 0.51019 0.90298 0.13941 0.0
C867 C 0.49139 0.8835 0.15686 0.0
H868 H 0.52684 0.53185 0.28297 0.0
H869 H 0.60518 0.53532 0.24926 0.0
H870 H 0.54083 0.51563 0.31688 0.0
H871 H 0.6193 0.51968 0.28307 0.0
H872 H 0.6455 0.50486 0.35205 0.0
H873 H 0.63763 0.5337 0.32274 0.0
H874 H 0.5353 0.46322 0.3248 0.0
H875 H 0.54295 0.43451 0.35393 0.0
C876 C 0.54742 0.52984 0.28292 0.0
C877 C 0.56479 0.53475 0.26341 0.0
C878 C 0.5554 0.52055 0.30229 0.0
C879 C 0.58097 0.51616 0.30252 0.0
C880 C 0.5997 0.52324 0.28345 0.0
C881 C 0.59164 0.53234 0.26408 0.0
C882 C 0.62131 0.49568 0.34635 0.0
C883 C 0.59488 0.46723 0.35518 0.0
C884 C 0.61685 0.51218 0.32959 0.0
C885 C 0.58586 0.50078 0.32161 0.0
C886 C 0.55942 0.47284 0.33086 0.0
C887 C 0.56387 0.45619 0.34738 0.0
H888 H 0.55142 0.99714 0.37668 0.0
H889 H 0.47711 0.90606 0.40437 0.0
H890 H 0.54184 0.97212 0.34033 0.0
H891 H 0.46773 0.8809 0.36787 0.0
H892 H 0.48322 0.84597 0.29979 0.0
H893 H 0.49936 0.8701 0.33674 0.0
H894 H 0.49006 0.9474 0.31565 0.0
H895 H 0.4734 0.92319 0.27909 0.0
C896 C 0.53347 0.97163 0.37504 0.0
C897 C 0.51499 0.95348 0.39329 0.0
C898 C 0.52791 0.9574 0.35426 0.0
C899 C 0.50408 0.92465 0.35137 0.0
C900 C 0.48641 0.90616 0.36975 0.0
C901 C 0.49161 0.92054 0.39053 0.0
C902 C 0.48498 0.86829 0.30304 0.0
C903 C 0.47701 0.8827 0.28661 0.0
C904 C 0.494 0.88193 0.32415 0.0
C905 C 0.49594 0.91057 0.32895 0.0
C906 C 0.48895 0.92543 0.31231 0.0
C907 C 0.47929 0.91149 0.29144 0.0
H908 H 0.46345 0.46083 0.51577 0.0
H909 H 0.54602 0.50038 0.55882 0.0
H910 H 0.49349 0.45438 0.48675 0.0
H911 H 0.57615 0.49451 0.52952 0.0
H912 H 0.53434 0.39634 0.46262 0.0
H913 H 0.51211 0.41395 0.49022 0.0
H914 H 0.59662 0.51038 0.48663 0.0
H915 H 0.61928 0.4929 0.45829 0.0
C916 C 0.48819 0.4688 0.51888 0.0
C917 C 0.50216 0.48075 0.53969 0.0
C918 C 0.50537 0.46516 0.50228 0.0
C919 C 0.53695 0.47362 0.50607 0.0
C920 C 0.5519 0.48798 0.52619 0.0
C921 C 0.53461 0.49143 0.5429 0.0
C922 C 0.54847 0.42134 0.46761 0.0
C923 C 0.57851 0.4433 0.45792 0.0
C924 C 0.53554 0.43141 0.48338 0.0
C925 C 0.55233 0.46362 0.49012 0.0
C926 C 0.58312 0.48544 0.48147 0.0
C927 C 0.59607 0.47539 0.46536 0.0
H928 H 0.10028 0.62228 0.71913 0.0
H929 H 0.05593 0.52521 0.69485 0.0
H930 H 0.13505 0.64261 0.68705 0.0
H931 H 0.09094 0.54574 0.66235 0.0
H932 H 0.18661 0.59597 0.62165 0.0
H933 H 0.14824 0.57213 0.65218 0.0
H934 H 0.13231 0.64895 0.64788 0.0
H935 H 0.17076 0.673 0.61801 0.0
C936 C 0.0974 0.6053 0.70664 0.0
C937 C 0.07491 0.57215 0.70936 0.0
C938 C 0.11749 0.61696 0.68826 0.0
C939 C 0.11564 0.59583 0.67202 0.0
C940 C 0.09312 0.56262 0.67465 0.0
C941 C 0.07297 0.55089 0.69317 0.0
C942 C 0.17483 0.60769 0.6272 0.0
C943 C 0.18215 0.63664 0.61752 0.0
C944 C 0.15271 0.59392 0.6446 0.0
C945 C 0.13745 0.60881 0.6526 0.0
C946 C 0.14412 0.6372 0.64246 0.0
C947 C 0.16619 0.65096 0.62523 0.0
H948 H 0.59643 0.12177 0.89607 0.0
H949 H 0.68721 0.13324 0.88151 0.0
H950 H 0.60045 0.1496 0.86197 0.0
H951 H 0.69246 0.16329 0.84867 0.0
H952 H 0.67618 0.17726 0.77856 0.0
H953 H 0.66968 0.15088 0.81353 0.0
H954 H 0.62622 0.19836 0.84123 0.0
H955 H 0.63149 0.22381 0.80541 0.0
C956 C 0.61741 0.13045 0.88578 0.0
C957 C 0.64125 0.12469 0.89153 0.0
C958 C 0.61991 0.14686 0.86632 0.0
C959 C 0.6465 0.15824 0.85226 0.0
C960 C 0.67115 0.15409 0.85871 0.0
C961 C 0.66843 0.13731 0.8779 0.0
C962 C 0.66509 0.18199 0.79208 0.0
C963 C 0.6546 0.20281 0.78932 0.0
C964 C 0.66163 0.16708 0.81226 0.0
C965 C 0.64816 0.17304 0.83049 0.0
C966 C 0.63668 0.19316 0.82757 0.0
C967 C 0.63969 0.20776 0.80709 0.0
H968 H 0.4292 0.56188 0.07273 0.0
H969 H 0.43279 0.47969 0.05569 0.0
H970 H 0.42054 0.56843 0.03382 0.0
H971 H 0.42469 0.48655 0.0168 0.0
H972 H 0.47123 0.55583 0.95401 0.0
H973 H 0.46537 0.53581 0.99166 0.0
H974 H 0.38059 0.53803 0.00033 0.0
H975 H 0.38598 0.55752 0.96253 0.0
C976 C 0.42734 0.54482 0.0607 0.0
C977 C 0.43149 0.52025 0.0671 0.0
C978 C 0.42233 0.54847 0.03853 0.0
C979 C 0.42207 0.52801 0.02242 0.0
C980 C 0.42482 0.50259 0.02896 0.0
C981 C 0.42921 0.49857 0.05116 0.0
C982 C 0.451 0.55147 0.9638 0.0
C983 C 0.42917 0.55838 0.95537 0.0
C984 C 0.44756 0.53986 0.98527 0.0
C985 C 0.42257 0.53551 0.9988 0.0
C986 C 0.40006 0.54128 0.99016 0.0
C987 C 0.40312 0.55229 0.96854 0.0
H988 H 0.95277 0.57907 0.21156 0.0
H989 H 0.9041 0.48721 0.24471 0.0
H990 H 0.92671 0.55208 0.17689 0.0
H991 H 0.87849 0.46033 0.21006 0.0
H992 H 0.88113 0.42442 0.14096 0.0
H993 H 0.90172 0.45304 0.17568 0.0
H994 H 0.87281 0.51731 0.15717 0.0
H995 H 0.852 0.48857 0.12212 0.0
C996 C 0.93595 0.55322 0.21158 0.0
C997 C 0.93076 0.53524 0.23085 0.0
C998 C 0.92113 0.53778 0.1917 0.0
C999 C 0.90099 0.50407 0.19071 0.0
C1000 C 0.89444 0.48629 0.21023 0.0
C1001 C 0.90907 0.50169 0.23007 0.0
C1002 C 0.87918 0.44469 0.14414 0.0
C1003 C 0.86484 0.45412 0.12867 0.0
C1004 C 0.89076 0.46093 0.16418 0.0
C1005 C 0.88856 0.4872 0.16925 0.0
C1006 C 0.87484 0.49715 0.15368 0.0
C1007 C 0.86289 0.48064 0.13364 0.0
loop_
_geom_bond_atom_site_label_1
_geom_bond_atom_site_label_2
_geom_bond_distance
_geom_bond_site_symmetry_2
_ccdc_geom_bond_type
H0 O26 0.856 . S
H1 O29 0.854 . S
H2 C37 0.945 . S
H3 C38 0.930 . S
H4 C40 0.930 . S
H5 C41 0.930 . S
H6 C43 0.931 . S
H7 C44 0.930 . S
H8 C46 0.930 . S
H9 C47 0.929 . S
H10 C49 0.930 . S
H11 C50 0.931 . S
H12 C52 0.930 . S
H13 C53 0.929 . S
H14 C55 0.931 . S
H15 C56 0.930 . S
H16 C58 0.930 . S
H17 C59 0.932 . S
H18 C61 0.930 . S
H19 C62 0.929 . S
H20 C64 0.931 . S
H21 C65 0.930 . S
H22 C67 0.929 . S
H23 C68 0.931 . S
H24 C70 0.930 . S
H25 C71 0.929 1_455 S
O26 H0 0.856 . S
O26 C72 1.300 . S
O27 C72 1.209 . S
O28 C73 1.199 . S
O29 H1 0.854 . S
O29 C73 1.297 . S
C30 C31 1.404 . S
C30 C35 1.397 . S
C30 C36 1.492 . S
C31 C30 1.404 . S
C31 C32 1.396 . S
C31 C42 1.492 . S
C32 C31 1.396 . S
C32 C33 1.397 . S
C32 C48 1.509 . S
C33 C32 1.397 . S
C33 C34 1.412 . S
C33 C54 1.485 . S
C34 C33 1.412 . S
C34 C35 1.388 . S
C34 C60 1.490 . S
C35 C30 1.397 . S
C35 C34 1.388 . S
C35 C66 1.540 . S
C36 C30 1.492 . S
C36 C37 1.359 . S
C36 C41 1.390 1_455 S
C37 H2 0.945 . S
C37 C36 1.359 . S
C37 C38 1.362 1_455 S
C38 H3 0.930 . S
C38 C37 1.362 1_655 S
C38 C39 1.383 . S
C39 C38 1.383 . S
C39 C40 1.395 . S
C40 H4 0.930 . S
C40 C39 1.395 . S
C40 C41 1.362 . S
C41 H5 0.930 . S
C41 C36 1.390 1_655 S
C41 C40 1.362 . S
C42 C31 1.492 . S
C42 C43 1.377 . S
C42 C47 1.397 . S
C43 H6 0.931 . S
C43 C42 1.377 . S
C43 C44 1.376 . S
C44 H7 0.930 . S
C44 C43 1.376 . S
C44 C45 1.376 . S
C45 C44 1.376 . S
C45 C46 1.378 . S
C45 C72 1.486 . S
C46 H8 0.930 . S
C46 C45 1.378 . S
C46 C47 1.376 . S
C47 H9 0.929 . S
C47 C42 1.397 . S
C47 C46 1.376 . S
C48 C32 1.509 . S
C48 C49 1.391 . S
C48 C53 1.386 . S
C49 H10 0.930 . S
C49 C48 1.391 . S
C49 C50 1.375 . S
C50 H11 0.931 . S
C50 C49 1.375 . S
C50 C51 1.375 . S
C51 C50 1.375 . S
C51 C52 1.361 . S
C52 H12 0.930 . S
C52 C51 1.361 . S
C52 C53 1.399 . S
C53 H13 0.929 . S
C53 C48 1.386 . S
C53 C52 1.399 . S
C54 C33 1.485 . S
C54 C55 1.394 . S
C54 C59 1.360 . S
C55 H14 0.931 . S
C55 C54 1.394 . S
C55 C56 1.372 . S
C56 H15 0.930 . S
C56 C55 1.372 . S
C56 C57 1.397 . S
C57 C56 1.397 . S
C57 C58 1.390 . S
C57 C73 1.476 . S
C58 H16 0.930 . S
C58 C57 1.390 . S
C58 C59 1.366 . S
C59 H17 0.932 . S
C59 C54 1.360 . S
C59 C58 1.366 . S
C60 C34 1.490 . S
C60 C61 1.380 . S
C60 C65 1.386 . S
C61 H18 0.930 . S
C61 C60 1.380 . S
C61 C62 1.381 . S
C62 H19 0.929 . S
C62 C61 1.381 . S
C62 C63 1.371 . S
C63 C62 1.371 . S
C63 C64 1.380 . S
C64 H20 0.931 . S
C64 C63 1.380 . S
C64 C65 1.387 . S
C65 H21 0.930 . S
C65 C60 1.386 . S
C65 C64 1.387 . S
C66 C35 1.540 . S
C66 C67 1.372 1_455 S
C66 C71 1.345 1_455 S
C67 H22 0.929 . S
C67 C66 1.372 1_655 S
C67 C68 1.386 . S
C68 H23 0.931 . S
C68 C67 1.386 . S
C68 C69 1.363 . S
C69 C68 1.363 . S
C69 C70 1.385 . S
C70 H24 0.930 . S
C70 C69 1.385 . S
C70 C71 1.396 . S
C71 H25 0.929 1_655 S
C71 C66 1.345 1_655 S
C71 C70 1.396 . S
C72 O26 1.300 . S
C72 O27 1.209 . S
C72 C45 1.486 . S
C73 O28 1.199 . S
C73 O29 1.297 . S
C73 C57 1.476 . S
H74 O100 0.856 . S
H75 O103 0.854 . S
H76 C111 0.930 . S
H77 C112 0.930 . S
H78 C114 0.930 . S
H79 C115 0.930 . S
H80 C117 0.931 . S
H81 C118 0.930 . S
H82 C120 0.930 . S
H83 C121 0.929 . S
H84 C123 0.930 . S
H85 C124 0.931 . S
H86 C126 0.930 . S
H87 C127 0.929 . S
H88 C129 0.931 . S
H89 C130 0.930 . S
H90 C132 0.930 . S
H91 C133 0.932 . S
H92 C135 0.930 . S
H93 C136 0.929 . S
H94 C138 0.931 . S
H95 C139 0.930 . S
H96 C141 0.929 . S
H97 C142 0.931 . S
H98 C144 0.930 . S
H99 C145 0.929 . S
O100 H74 0.856 . S
O100 C146 1.300 . S
O101 C146 1.209 . S
O102 C147 1.199 . S
O103 H75 0.854 . S
O103 C147 1.297 . S
C104 C105 1.404 . S
C104 C109 1.397 . S
C104 C110 1.492 . S
C105 C104 1.404 . S
C105 C106 1.396 . S
C105 C116 1.492 . S
C106 C105 1.396 . S
C106 C107 1.397 . S
C106 C122 1.509 . S
C107 C106 1.397 . S
C107 C108 1.412 . S
C107 C128 1.485 . S
C108 C107 1.412 . S
C108 C109 1.388 . S
C108 C134 1.490 . S
C109 C104 1.397 . S
C109 C108 1.388 . S
C109 C140 1.519 . S
C110 C104 1.492 . S
C110 C111 1.363 . S
C110 C115 1.390 . S
C111 H76 0.930 . S
C111 C110 1.363 . S
C111 C112 1.372 . S
C112 H77 0.930 . S
C112 C111 1.372 . S
C112 C113 1.383 1_545 S
C113 C112 1.383 1_565 S
C113 C114 1.395 . S
C114 H78 0.930 . S
C114 C113 1.395 . S
C114 C115 1.362 1_565 S
C115 H79 0.930 . S
C115 C110 1.390 . S
C115 C114 1.362 1_545 S
C116 C105 1.492 . S
C116 C117 1.377 . S
C116 C121 1.397 . S
C117 H80 0.931 . S
C117 C116 1.377 . S
C117 C118 1.376 . S
C118 H81 0.930 . S
C118 C117 1.376 . S
C118 C119 1.376 . S
C119 C118 1.376 . S
C119 C120 1.378 . S
C119 C146 1.486 . S
C120 H82 0.930 . S
C120 C119 1.378 . S
C120 C121 1.376 . S
C121 H83 0.929 . S
C121 C116 1.397 . S
C121 C120 1.376 . S
C122 C106 1.509 . S
C122 C123 1.391 . S
C122 C127 1.386 . S
C123 H84 0.930 . S
C123 C122 1.391 . S
C123 C124 1.375 . S
C124 H85 0.931 . S
C124 C123 1.375 . S
C124 C125 1.375 . S
C125 C124 1.375 . S
C125 C126 1.361 . S
C126 H86 0.930 . S
C126 C125 1.361 . S
C126 C127 1.399 . S
C127 H87 0.929 . S
C127 C122 1.386 . S
C127 C126 1.399 . S
C128 C107 1.485 . S
C128 C129 1.394 . S
C128 C133 1.360 . S
C129 H88 0.931 . S
C129 C128 1.394 . S
C129 C130 1.372 . S
C130 H89 0.930 . S
C130 C129 1.372 . S
C130 C131 1.397 . S
C131 C130 1.397 . S
C131 C132 1.390 . S
C131 C147 1.476 . S
C132 H90 0.930 . S
C132 C131 1.390 . S
C132 C133 1.366 . S
C133 H91 0.932 . S
C133 C128 1.360 . S
C133 C132 1.366 . S
C134 C108 1.490 . S
C134 C135 1.380 . S
C134 C139 1.386 . S
C135 H92 0.930 . S
C135 C134 1.380 . S
C135 C136 1.381 . S
C136 H93 0.929 . S
C136 C135 1.381 . S
C136 C137 1.371 . S
C137 C136 1.371 . S
C137 C138 1.380 . S
C138 H94 0.931 . S
C138 C137 1.380 . S
C138 C139 1.387 . S
C139 H95 0.930 . S
C139 C134 1.386 . S
C139 C138 1.387 . S
C140 C109 1.519 . S
C140 C141 1.377 . S
C140 C145 1.361 . S
C141 H96 0.929 . S
C141 C140 1.377 . S
C141 C142 1.386 1_545 S
C142 H97 0.931 . S
C142 C141 1.386 1_565 S
C142 C143 1.363 . S
C143 C142 1.363 . S
C143 C144 1.385 . S
C144 H98 0.930 . S
C144 C143 1.385 . S
C144 C145 1.396 1_565 S
C145 H99 0.929 . S
C145 C140 1.361 . S
C145 C144 1.396 1_545 S
C146 O100 1.300 . S
C146 O101 1.209 . S
C146 C119 1.486 . S
C147 O102 1.199 . S
C147 O103 1.297 . S
C147 C131 1.476 . S
H148 O174 0.856 . S
H149 O177 0.854 . S
H150 C185 0.930 . S
H151 C186 0.930 . S
H152 C188 0.930 . S
H153 C189 0.930 . S
H154 C191 0.931 . S
H155 C192 0.930 . S
H156 C194 0.930 . S
H157 C195 0.929 . S
H158 C197 0.930 . S
H159 C198 0.931 . S
H160 C200 0.930 . S
H161 C201 0.929 . S
H162 C203 0.931 . S
H163 C204 0.930 . S
H164 C206 0.930 . S
H165 C207 0.932 . S
H166 C209 0.930 . S
H167 C210 0.929 . S
H168 C212 0.931 . S
H169 C213 0.930 . S
H170 C215 0.929 . S
H171 C216 0.931 . S
H172 C218 0.930 . S
H173 C219 0.929 . S
O174 H148 0.856 . S
O174 C220 1.300 . S
O175 C220 1.209 . S
O176 C221 1.199 . S
O177 H149 0.854 . S
O177 C221 1.297 . S
C178 C179 1.404 . S
C178 C183 1.397 . S
C178 C184 1.492 . S
C179 C178 1.404 . S
C179 C180 1.396 . S
C179 C190 1.492 . S
C180 C179 1.396 . S
C180 C181 1.397 . S
C180 C196 1.509 . S
C181 C180 1.397 . S
C181 C182 1.412 . S
C181 C202 1.485 . S
C182 C181 1.412 . S
C182 C183 1.388 . S
C182 C208 1.490 . S
C183 C178 1.397 . S
C183 C182 1.388 . S
C183 C214 1.519 . S
C184 C178 1.492 . S
C184 C185 1.363 . S
C184 C189 1.390 . S
C185 H150 0.930 . S
C185 C184 1.363 . S
C185 C186 1.372 . S
C186 H151 0.930 . S
C186 C185 1.372 . S
C186 C187 1.383 . S
C187 C186 1.383 . S
C187 C188 1.395 . S
C188 H152 0.930 . S
C188 C187 1.395 . S
C188 C189 1.362 . S
C189 H153 0.930 . S
C189 C184 1.390 . S
C189 C188 1.362 . S
C190 C179 1.492 . S
C190 C191 1.377 . S
C190 C195 1.397 . S
C191 H154 0.931 . S
C191 C190 1.377 . S
C191 C192 1.376 . S
C192 H155 0.930 . S
C192 C191 1.376 . S
C192 C193 1.376 . S
C193 C192 1.376 . S
C193 C194 1.378 . S
C193 C220 1.486 . S
C194 H156 0.930 . S
C194 C193 1.378 . S
C194 C195 1.376 . S
C195 H157 0.929 . S
C195 C190 1.397 . S
C195 C194 1.376 . S
C196 C180 1.509 . S
C196 C197 1.391 . S
C196 C201 1.386 . S
C197 H158 0.930 . S
C197 C196 1.391 . S
C197 C198 1.375 . S
C198 H159 0.931 . S
C198 C197 1.375 . S
C198 C199 1.375 . S
C199 C198 1.375 . S
C199 C200 1.361 . S
C200 H160 0.930 . S
C200 C199 1.361 . S
C200 C201 1.399 . S
C201 H161 0.929 . S
C201 C196 1.386 . S
C201 C200 1.399 . S
C202 C181 1.485 . S
C202 C203 1.394 . S
C202 C207 1.360 . S
C203 H162 0.931 . S
C203 C202 1.394 . S
C203 C204 1.372 . S
C204 H163 0.930 . S
C204 C203 1.372 . S
C204 C205 1.397 . S
C205 C204 1.397 . S
C205 C206 1.390 . S
C205 C221 1.476 . S
C206 H164 0.930 . S
C206 C205 1.390 . S
C206 C207 1.366 . S
C207 H165 0.932 . S
C207 C202 1.360 . S
C207 C206 1.366 . S
C208 C182 1.490 . S
C208 C209 1.380 . S
C208 C213 1.386 . S
C209 H166 0.930 . S
C209 C208 1.380 . S
C209 C210 1.381 . S
C210 H167 0.929 . S
C210 C209 1.381 . S
C210 C211 1.371 . S
C211 C210 1.371 . S
C211 C212 1.380 . S
C212 H168 0.931 . S
C212 C211 1.380 . S
C212 C213 1.387 . S
C213 H169 0.930 . S
C213 C208 1.386 . S
C213 C212 1.387 . S
C214 C183 1.519 . S
C214 C215 1.377 . S
C214 C219 1.361 . S
C215 H170 0.929 . S
C215 C214 1.377 . S
C215 C216 1.386 . S
C216 H171 0.931 . S
C216 C215 1.386 . S
C216 C217 1.363 . S
C217 C216 1.363 . S
C217 C218 1.385 . S
C218 H172 0.930 . S
C218 C217 1.385 . S
C218 C219 1.396 . S
C219 H173 0.929 . S
C219 C214 1.361 . S
C219 C218 1.396 . S
C220 O174 1.300 . S
C220 O175 1.209 . S
C220 C193 1.486 . S
C221 O176 1.199 . S
C221 O177 1.297 . S
C221 C205 1.476 . S
H222 O248 0.856 . S
H223 O251 0.854 . S
H224 C259 0.930 1_455 S
H225 C260 0.930 . S
H226 C262 0.930 . S
H227 C263 0.930 . S
H228 C265 0.931 . S
H229 C266 0.930 . S
H230 C268 0.930 . S
H231 C269 0.929 . S
H232 C271 0.930 . S
H233 C272 0.931 . S
H234 C274 0.930 . S
H235 C275 0.929 . S
H236 C277 0.931 . S
H237 C278 0.930 . S
H238 C280 0.930 . S
H239 C281 0.932 . S
H240 C283 0.930 . S
H241 C284 0.929 . S
H242 C286 0.931 . S
H243 C287 0.930 . S
H244 C289 0.929 . S
H245 C290 0.931 . S
H246 C292 0.930 . S
H247 C293 0.929 . S
O248 H222 0.856 . S
O248 C294 1.300 . S
O249 C294 1.209 . S
O250 C295 1.199 . S
O251 H223 0.854 . S
O251 C295 1.297 . S
C252 C253 1.404 . S
C252 C257 1.397 . S
C252 C258 1.492 1_455 S
C253 C252 1.404 . S
C253 C254 1.396 . S
C253 C264 1.492 . S
C254 C253 1.396 . S
C254 C255 1.397 . S
C254 C270 1.509 . S
C255 C254 1.397 . S
C255 C256 1.412 . S
C255 C276 1.485 . S
C256 C255 1.412 . S
C256 C257 1.388 . S
C256 C282 1.490 . S
C257 C252 1.397 . S
C257 C256 1.388 . S
C257 C288 1.519 1_455 S
C258 C252 1.492 1_655 S
C258 C259 1.363 . S
C258 C263 1.390 . S
C259 H224 0.930 1_655 S
C259 C258 1.363 . S
C259 C260 1.372 . S
C260 H225 0.930 . S
C260 C259 1.372 . S
C260 C261 1.383 . S
C261 C260 1.383 . S
C261 C262 1.395 . S
C262 H226 0.930 . S
C262 C261 1.395 . S
C262 C263 1.362 . S
C263 H227 0.930 . S
C263 C258 1.390 . S
C263 C262 1.362 . S
C264 C253 1.492 . S
C264 C265 1.377 . S
C264 C269 1.397 . S
C265 H228 0.931 . S
C265 C264 1.377 . S
C265 C266 1.376 . S
C266 H229 0.930 . S
C266 C265 1.376 . S
C266 C267 1.376 . S
C267 C266 1.376 . S
C267 C268 1.378 . S
C267 C294 1.486 . S
C268 H230 0.930 . S
C268 C267 1.378 . S
C268 C269 1.376 . S
C269 H231 0.929 . S
C269 C264 1.397 . S
C269 C268 1.376 . S
C270 C254 1.509 . S
C270 C271 1.391 . S
C270 C275 1.386 . S
C271 H232 0.930 . S
C271 C270 1.391 . S
C271 C272 1.375 . S
C272 H233 0.931 . S
C272 C271 1.375 . S
C272 C273 1.375 . S
C273 C272 1.375 . S
C273 C274 1.361 . S
C274 H234 0.930 . S
C274 C273 1.361 . S
C274 C275 1.399 . S
C275 H235 0.929 . S
C275 C270 1.386 . S
C275 C274 1.399 . S
C276 C255 1.485 . S
C276 C277 1.394 . S
C276 C281 1.360 . S
C277 H236 0.931 . S
C277 C276 1.394 . S
C277 C278 1.372 . S
C278 H237 0.930 . S
C278 C277 1.372 . S
C278 C279 1.397 . S
C279 C278 1.397 . S
C279 C280 1.390 . S
C279 C295 1.476 . S
C280 H238 0.930 . S
C280 C279 1.390 . S
C280 C281 1.366 . S
C281 H239 0.932 . S
C281 C276 1.360 . S
C281 C280 1.366 . S
C282 C256 1.490 . S
C282 C283 1.380 . S
C282 C287 1.386 . S
C283 H240 0.930 . S
C283 C282 1.380 . S
C283 C284 1.381 . S
C284 H241 0.929 . S
C284 C283 1.381 . S
C284 C285 1.371 . S
C285 C284 1.371 . S
C285 C286 1.380 . S
C286 H242 0.931 . S
C286 C285 1.380 . S
C286 C287 1.387 . S
C287 H243 0.930 . S
C287 C282 1.386 . S
C287 C286 1.387 . S
C288 C257 1.519 1_655 S
C288 C289 1.377 . S
C288 C293 1.361 . S
C289 H244 0.929 . S
C289 C288 1.377 . S
C289 C290 1.386 . S
C290 H245 0.931 . S
C290 C289 1.386 . S
C290 C291 1.363 . S
C291 C290 1.363 . S
C291 C292 1.385 . S
C292 H246 0.930 . S
C292 C291 1.385 . S
C292 C293 1.396 . S
C293 H247 0.929 . S
C293 C288 1.361 . S
C293 C292 1.396 . S
C294 O248 1.300 . S
C294 O249 1.209 . S
C294 C267 1.486 . S
C295 O250 1.199 . S
C295 O251 1.297 . S
C295 C279 1.476 . S
H296 O322 0.856 . S
H297 O325 0.854 . S
H298 C333 0.930 . S
H299 C334 0.930 . S
H300 C336 0.930 . S
H301 C337 0.930 . S
H302 C339 0.931 . S
H303 C340 0.930 . S
H304 C342 0.930 1_545 S
H305 C343 0.929 1_545 S
H306 C345 0.930 . S
H307 C346 0.931 . S
H308 C348 0.930 . S
H309 C349 0.929 . S
H310 C351 0.931 . S
H311 C352 0.930 . S
H312 C354 0.930 . S
H313 C355 0.959 . S
H314 C357 0.930 . S
H315 C358 0.929 . S
H316 C360 0.931 . S
H317 C361 0.930 . S
H318 C363 0.929 . S
H319 C364 0.931 . S
H320 C366 0.930 . S
H321 C367 0.929 . S
O322 H296 0.856 . S
O322 C368 1.300 . S
O323 C368 1.209 . S
O324 C369 1.199 . S
O325 H297 0.854 . S
O325 C369 1.297 . S
C326 C327 1.404 1_545 S
C326 C331 1.397 . S
C326 C332 1.492 . S
C327 C326 1.404 1_565 S
C327 C328 1.396 . S
C327 C338 1.492 . S
C328 C327 1.396 . S
C328 C329 1.397 . S
C328 C344 1.509 . S
C329 C328 1.397 . S
C329 C330 1.412 1_556 S
C329 C350 1.485 1_556 S
C330 C329 1.412 1_554 S
C330 C331 1.388 1_564 S
C330 C356 1.490 . S
C331 C326 1.397 . S
C331 C330 1.388 1_546 S
C331 C362 1.519 . S
C332 C326 1.492 . S
C332 C333 1.363 . S
C332 C337 1.390 . S
C333 H298 0.930 . S
C333 C332 1.363 . S
C333 C334 1.372 . S
C334 H299 0.930 . S
C334 C333 1.372 . S
C334 C335 1.383 . S
C335 C334 1.383 . S
C335 C336 1.395 . S
C336 H300 0.930 . S
C336 C335 1.395 . S
C336 C337 1.362 . S
C337 H301 0.930 . S
C337 C332 1.390 . S
C337 C336 1.362 . S
C338 C327 1.492 . S
C338 C339 1.377 . S
C338 C343 1.397 . S
C339 H302 0.931 . S
C339 C338 1.377 . S
C339 C340 1.376 . S
C340 H303 0.930 . S
C340 C339 1.376 . S
C340 C341 1.376 . S
C341 C340 1.376 . S
C341 C342 1.378 . S
C341 C368 1.486 . S
C342 H304 0.930 1_565 S
C342 C341 1.378 . S
C342 C343 1.376 . S
C343 H305 0.929 1_565 S
C343 C338 1.397 . S
C343 C342 1.376 . S
C344 C328 1.509 . S
C344 C345 1.391 . S
C344 C349 1.386 . S
C345 H306 0.930 . S
C345 C344 1.391 . S
C345 C346 1.375 . S
C346 H307 0.931 . S
C346 C345 1.375 . S
C346 C347 1.375 . S
C347 C346 1.375 . S
C347 C348 1.361 . S
C348 H308 0.930 . S
C348 C347 1.361 . S
C348 C349 1.399 . S
C349 H309 0.929 . S
C349 C344 1.386 . S
C349 C348 1.399 . S
C350 C329 1.485 1_554 S
C350 C351 1.394 . S
C350 C355 1.360 . S
C351 H310 0.931 . S
C351 C350 1.394 . S
C351 C352 1.372 . S
C352 H311 0.930 . S
C352 C351 1.372 . S
C352 C353 1.397 . S
C353 C352 1.397 . S
C353 C354 1.390 . S
C353 C369 1.476 . S
C354 H312 0.930 . S
C354 C353 1.390 . S
C354 C355 1.366 . S
C355 H313 0.959 . S
C355 C350 1.360 . S
C355 C354 1.366 . S
C356 C330 1.490 . S
C356 C357 1.380 1_565 S
C356 C361 1.386 . S
C357 H314 0.930 . S
C357 C356 1.380 1_545 S
C357 C358 1.381 . S
C358 H315 0.929 . S
C358 C357 1.381 . S
C358 C359 1.371 . S
C359 C358 1.371 . S
C359 C360 1.380 1_545 S
C360 H316 0.931 . S
C360 C359 1.380 1_565 S
C360 C361 1.387 . S
C361 H317 0.930 . S
C361 C356 1.386 . S
C361 C360 1.387 . S
C362 C331 1.519 . S
C362 C363 1.377 . S
C362 C367 1.361 1_556 S
C363 H318 0.929 . S
C363 C362 1.377 . S
C363 C364 1.386 1_556 S
C364 H319 0.931 . S
C364 C363 1.386 1_554 S
C364 C365 1.363 . S
C365 C364 1.363 . S
C365 C366 1.385 . S
C366 H320 0.930 . S
C366 C365 1.385 . S
C366 C367 1.396 . S
C367 H321 0.929 . S
C367 C362 1.361 1_554 S
C367 C366 1.396 . S
C368 O322 1.300 . S
C368 O323 1.209 . S
C368 C341 1.486 . S
C369 O324 1.199 . S
C369 O325 1.297 . S
C369 C353 1.476 . S
H370 O396 0.856 . S
H371 O399 0.854 . S
H372 C407 0.930 . S
H373 C408 0.930 . S
H374 C410 0.930 . S
H375 C411 0.930 . S
H376 C413 0.931 . S
H377 C414 0.930 . S
H378 C416 0.930 . S
H379 C417 0.929 . S
H380 C419 0.930 . S
H381 C420 0.931 . S
H382 C422 0.930 . S
H383 C423 0.929 . S
H384 C425 0.931 . S
H385 C426 0.930 . S
H386 C428 0.930 . S
H387 C429 0.932 . S
H388 C431 0.930 . S
H389 C432 0.929 . S
H390 C434 0.931 . S
H391 C435 0.930 . S
H392 C437 0.929 . S
H393 C438 0.931 . S
H394 C440 0.930 . S
H395 C441 0.929 . S
O396 H370 0.856 . S
O396 C442 1.300 . S
O397 C442 1.209 . S
O398 C443 1.199 . S
O399 H371 0.854 . S
O399 C443 1.297 . S
C400 C401 1.404 . S
C400 C405 1.397 . S
C400 C406 1.492 . S
C401 C400 1.404 . S
C401 C402 1.396 . S
C401 C412 1.492 . S
C402 C401 1.396 . S
C402 C403 1.397 . S
C402 C418 1.509 . S
C403 C402 1.397 . S
C403 C404 1.412 . S
C403 C424 1.485 . S
C404 C403 1.412 . S
C404 C405 1.388 . S
C404 C430 1.490 . S
C405 C400 1.397 . S
C405 C404 1.388 . S
C405 C436 1.519 . S
C406 C400 1.492 . S
C406 C407 1.363 . S
C406 C411 1.390 . S
C407 H372 0.930 . S
C407 C406 1.363 . S
C407 C408 1.372 . S
C408 H373 0.930 . S
C408 C407 1.372 . S
C408 C409 1.383 . S
C409 C408 1.383 . S
C409 C410 1.395 . S
C410 H374 0.930 . S
C410 C409 1.395 . S
C410 C411 1.362 . S
C411 H375 0.930 . S
C411 C406 1.390 . S
C411 C410 1.362 . S
C412 C401 1.492 . S
C412 C413 1.377 . S
C412 C417 1.397 . S
C413 H376 0.931 . S
C413 C412 1.377 . S
C413 C414 1.376 . S
C414 H377 0.930 . S
C414 C413 1.376 . S
C414 C415 1.376 . S
C415 C414 1.376 . S
C415 C416 1.378 . S
C415 C442 1.486 . S
C416 H378 0.930 . S
C416 C415 1.378 . S
C416 C417 1.376 . S
C417 H379 0.929 . S
C417 C412 1.397 . S
C417 C416 1.376 . S
C418 C402 1.509 . S
C418 C419 1.391 . S
C418 C423 1.386 . S
C419 H380 0.930 . S
C419 C418 1.391 . S
C419 C420 1.375 . S
C420 H381 0.931 . S
C420 C419 1.375 . S
C420 C421 1.375 . S
C421 C420 1.375 . S
C421 C422 1.361 . S
C422 H382 0.930 . S
C422 C421 1.361 . S
C422 C423 1.399 . S
C423 H383 0.929 . S
C423 C418 1.386 . S
C423 C422 1.399 . S
C424 C403 1.485 . S
C424 C425 1.394 . S
C424 C429 1.360 . S
C425 H384 0.931 . S
C425 C424 1.394 . S
C425 C426 1.372 . S
C426 H385 0.930 . S
C426 C425 1.372 . S
C426 C427 1.397 . S
C427 C426 1.397 . S
C427 C428 1.390 . S
C427 C443 1.476 . S
C428 H386 0.930 . S
C428 C427 1.390 . S
C428 C429 1.366 . S
C429 H387 0.932 . S
C429 C424 1.360 . S
C429 C428 1.366 . S
C430 C404 1.490 . S
C430 C431 1.380 . S
C430 C435 1.386 . S
C431 H388 0.930 . S
C431 C430 1.380 . S
C431 C432 1.381 . S
C432 H389 0.929 . S
C432 C431 1.381 . S
C432 C433 1.371 . S
C433 C432 1.371 . S
C433 C434 1.380 . S
C434 H390 0.931 . S
C434 C433 1.380 . S
C434 C435 1.387 . S
C435 H391 0.930 . S
C435 C430 1.386 . S
C435 C434 1.387 . S
C436 C405 1.519 . S
C436 C437 1.377 . S
C436 C441 1.361 . S
C437 H392 0.929 . S
C437 C436 1.377 . S
C437 C438 1.386 . S
C438 H393 0.931 . S
C438 C437 1.386 . S
C438 C439 1.363 . S
C439 C438 1.363 . S
C439 C440 1.385 . S
C440 H394 0.930 . S
C440 C439 1.385 . S
C440 C441 1.396 . S
C441 H395 0.929 . S
C441 C436 1.361 . S
C441 C440 1.396 . S
C442 O396 1.300 . S
C442 O397 1.209 . S
C442 C415 1.486 . S
C443 O398 1.199 . S
C443 O399 1.297 . S
C443 C427 1.476 . S
Co444 O445 2.216 . S
Co444 O446 2.091 . S
Co444 O448 2.004 . S
Co444 O454 2.021 . S
Co444 O456 2.137 . S
Co444 O457 2.244 . S
O445 Co444 2.216 . S
O445 C452 1.247 . S
O446 Co444 2.091 . S
O446 C452 1.261 . S
C447 O456 1.247 . S
C447 O457 1.272 . S
O448 Co444 2.004 . S
O448 C453 1.259 . S
Co449 O450 2.061 . S
Co449 O455 2.052 . S
Co449 O457 2.135 . S
O450 Co449 2.061 . S
O450 C453 1.235 . S
C451 O454 1.238 . S
C451 O455 1.241 . S
C452 O445 1.247 . S
C452 O446 1.261 . S
C453 O448 1.259 . S
C453 O450 1.235 . S
O454 Co444 2.021 . S
O454 C451 1.238 . S
O455 Co449 2.052 . S
O455 C451 1.241 . S
O456 Co444 2.137 . S
O456 C447 1.247 . S
O457 Co444 2.244 . S
O457 C447 1.272 . S
O457 Co449 2.135 . S
Co458 O459 2.216 . S
Co458 O460 2.091 . S
Co458 O462 2.004 . S
Co458 O468 2.021 . S
Co458 O470 2.137 . S
Co458 O471 2.244 . S
O459 Co458 2.216 . S
O459 C466 1.247 . S
O460 Co458 2.091 . S
O460 C466 1.261 . S
C461 O470 1.247 . S
C461 O471 1.272 . S
O462 Co458 2.004 . S
O462 C467 1.259 . S
Co463 O464 2.061 . S
Co463 O469 2.052 . S
Co463 O471 2.135 . S
O464 Co463 2.061 . S
O464 C467 1.235 . S
C465 O468 1.238 . S
C465 O469 1.241 . S
C466 O459 1.247 . S
C466 O460 1.261 . S
C467 O462 1.259 . S
C467 O464 1.235 . S
O468 Co458 2.021 . S
O468 C465 1.238 . S
O469 Co463 2.052 . S
O469 C465 1.241 . S
O470 Co458 2.137 . S
O470 C461 1.247 . S
O471 Co458 2.244 . S
O471 C461 1.272 . S
O471 Co463 2.135 . S
Co472 O473 2.216 . S
Co472 O474 2.091 . S
Co472 O476 2.004 . S
Co472 O482 2.021 . S
Co472 O484 2.137 . S
Co472 O485 2.244 . S
O473 Co472 2.216 . S
O473 C480 1.247 . S
O474 Co472 2.091 . S
O474 C480 1.261 . S
C475 O484 1.247 . S
C475 O485 1.272 . S
O476 Co472 2.004 . S
O476 C481 1.259 . S
Co477 O478 2.061 . S
Co477 O483 2.052 . S
Co477 O485 2.135 . S
O478 Co477 2.061 . S
O478 C481 1.235 . S
C479 O482 1.238 . S
C479 O483 1.241 . S
C480 O473 1.247 . S
C480 O474 1.261 . S
C481 O476 1.259 . S
C481 O478 1.235 . S
O482 Co472 2.021 . S
O482 C479 1.238 . S
O483 Co477 2.052 . S
O483 C479 1.241 . S
O484 Co472 2.137 . S
O484 C475 1.247 . S
O485 Co472 2.244 . S
O485 C475 1.272 . S
O485 Co477 2.135 . S
Co486 O487 2.216 . S
Co486 O488 2.091 . S
Co486 O490 2.004 . S
Co486 O496 2.021 . S
Co486 O498 2.137 . S
Co486 O499 2.244 . S
O487 Co486 2.216 . S
O487 C494 1.247 . S
O488 Co486 2.091 . S
O488 C494 1.261 . S
C489 O498 1.247 . S
C489 O499 1.272 . S
O490 Co486 2.004 . S
O490 C495 1.259 . S
Co491 O492 2.061 . S
Co491 O497 2.052 . S
Co491 O499 2.135 . S
O492 Co491 2.061 . S
O492 C495 1.235 . S
C493 O496 1.238 . S
C493 O497 1.241 . S
C494 O487 1.247 . S
C494 O488 1.261 . S
C495 O490 1.259 . S
C495 O492 1.235 . S
O496 Co486 2.021 . S
O496 C493 1.238 . S
O497 Co491 2.052 . S
O497 C493 1.241 . S
O498 Co486 2.137 . S
O498 C489 1.247 . S
O499 Co486 2.244 . S
O499 C489 1.272 . S
O499 Co491 2.135 . S
Co500 O501 2.216 . S
Co500 O502 2.091 . S
Co500 O504 2.004 . S
Co500 O510 2.021 . S
Co500 O512 2.137 . S
Co500 O513 2.244 . S
O501 Co500 2.216 . S
O501 C508 1.247 . S
O502 Co500 2.091 . S
O502 C508 1.261 . S
C503 O512 1.247 . S
C503 O513 1.272 . S
O504 Co500 2.004 . S
O504 C509 1.259 . S
Co505 O506 2.061 . S
Co505 O511 2.052 . S
Co505 O513 2.135 . S
O506 Co505 2.061 . S
O506 C509 1.235 . S
C507 O510 1.238 . S
C507 O511 1.241 . S
C508 O501 1.247 . S
C508 O502 1.261 . S
C509 O504 1.259 . S
C509 O506 1.235 . S
O510 Co500 2.021 . S
O510 C507 1.238 . S
O511 Co505 2.052 . S
O511 C507 1.241 . S
O512 Co500 2.137 . S
O512 C503 1.247 . S
O513 Co500 2.244 . S
O513 C503 1.272 . S
O513 Co505 2.135 . S
Co514 O515 2.216 . S
Co514 O516 2.091 . S
Co514 O518 2.004 . S
Co514 O524 2.021 . S
Co514 O526 2.137 . S
Co514 O527 2.244 . S
O515 Co514 2.216 . S
O515 C522 1.247 . S
O516 Co514 2.091 . S
O516 C522 1.261 . S
C517 O526 1.247 . S
C517 O527 1.272 . S
O518 Co514 2.004 . S
O518 C523 1.259 . S
Co519 O520 2.061 . S
Co519 O525 2.052 . S
Co519 O527 2.135 . S
O520 Co519 2.061 . S
O520 C523 1.235 . S
C521 O524 1.238 . S
C521 O525 1.241 . S
C522 O515 1.247 . S
C522 O516 1.261 . S
C523 O518 1.259 . S
C523 O520 1.235 . S
O524 Co514 2.021 . S
O524 C521 1.238 . S
O525 Co519 2.052 . S
O525 C521 1.241 . S
O526 Co514 2.137 . S
O526 C517 1.247 . S
O527 Co514 2.244 . S
O527 C517 1.272 . S
O527 Co519 2.135 . S
H528 C536 0.950 . S
H529 C541 0.950 . S
H530 C538 0.950 . S
H531 C540 0.950 . S
H532 C542 0.950 . S
H533 C544 0.950 . S
H534 C546 0.950 . S
H535 C547 0.950 . S
C536 H528 0.950 . S
C536 C537 1.386 . S
C536 C538 1.391 . S
C537 C536 1.386 . S
C537 C541 1.393 . S
C538 H530 0.950 . S
C538 C536 1.391 . S
C538 C539 1.400 . S
C539 C538 1.400 . S
C539 C540 1.398 . S
C539 C545 1.491 . S
C540 H531 0.950 . S
C540 C539 1.398 . S
C540 C541 1.391 . S
C541 H529 0.950 . S
C541 C537 1.393 . S
C541 C540 1.391 . S
C542 H532 0.950 . S
C542 C543 1.386 . S
C542 C544 1.391 . S
C543 C542 1.386 . S
C543 C547 1.393 . S
C544 H533 0.950 . S
C544 C542 1.391 . S
C544 C545 1.400 . S
C545 C539 1.491 . S
C545 C544 1.400 . S
C545 C546 1.398 . S
C546 H534 0.950 . S
C546 C545 1.398 . S
C546 C547 1.391 . S
C547 H535 0.950 . S
C547 C543 1.393 . S
C547 C546 1.391 . S
H548 C556 0.950 . S
H549 C561 0.950 . S
H550 C558 0.950 . S
H551 C560 0.950 . S
H552 C562 0.950 . S
H553 C564 0.950 . S
H554 C566 0.950 . S
H555 C567 0.950 . S
C556 H548 0.950 . S
C556 C557 1.386 . S
C556 C558 1.391 . S
C557 C556 1.386 . S
C557 C561 1.393 . S
C558 H550 0.950 . S
C558 C556 1.391 . S
C558 C559 1.400 . S
C559 C558 1.400 . S
C559 C560 1.398 . S
C559 C565 1.491 . S
C560 H551 0.950 . S
C560 C559 1.398 . S
C560 C561 1.391 . S
C561 H549 0.950 . S
C561 C557 1.393 . S
C561 C560 1.391 . S
C562 H552 0.950 . S
C562 C563 1.386 . S
C562 C564 1.391 . S
C563 C562 1.386 . S
C563 C567 1.393 . S
C564 H553 0.950 . S
C564 C562 1.391 . S
C564 C565 1.400 . S
C565 C559 1.491 . S
C565 C564 1.400 . S
C565 C566 1.398 . S
C566 H554 0.950 . S
C566 C565 1.398 . S
C566 C567 1.391 . S
C567 H555 0.950 . S
C567 C563 1.393 . S
C567 C566 1.391 . S
H568 C576 0.950 . S
H569 C581 0.950 . S
H570 C578 0.950 . S
H571 C580 0.950 . S
H572 C582 0.950 . S
H573 C584 0.950 . S
H574 C586 0.950 . S
H575 C587 0.950 . S
C576 H568 0.950 . S
C576 C577 1.386 . S
C576 C578 1.391 . S
C577 C576 1.386 . S
C577 C581 1.393 . S
C578 H570 0.950 . S
C578 C576 1.391 . S
C578 C579 1.400 . S
C579 C578 1.400 . S
C579 C580 1.398 . S
C579 C585 1.491 . S
C580 H571 0.950 . S
C580 C579 1.398 . S
C580 C581 1.391 . S
C581 H569 0.950 . S
C581 C577 1.393 . S
C581 C580 1.391 . S
C582 H572 0.950 . S
C582 C583 1.386 . S
C582 C584 1.391 . S
C583 C582 1.386 . S
C583 C587 1.393 . S
C584 H573 0.950 . S
C584 C582 1.391 . S
C584 C585 1.400 . S
C585 C579 1.491 . S
C585 C584 1.400 . S
C585 C586 1.398 . S
C586 H574 0.950 . S
C586 C585 1.398 . S
C586 C587 1.391 . S
C587 H575 0.950 . S
C587 C583 1.393 . S
C587 C586 1.391 . S
H588 C596 0.950 . S
H589 C601 0.950 . S
H590 C598 0.950 . S
H591 C600 0.950 . S
H592 C602 0.950 . S
H593 C604 0.950 . S
H594 C606 0.950 . S
H595 C607 0.950 . S
C596 H588 0.950 . S
C596 C597 1.386 . S
C596 C598 1.391 . S
C597 C596 1.386 . S
C597 C601 1.393 . S
C598 H590 0.950 . S
C598 C596 1.391 . S
C598 C599 1.400 . S
C599 C598 1.400 . S
C599 C600 1.398 . S
C599 C605 1.491 . S
C600 H591 0.950 . S
C600 C599 1.398 . S
C600 C601 1.391 . S
C601 H589 0.950 . S
C601 C597 1.393 . S
C601 C600 1.391 . S
C602 H592 0.950 . S
C602 C603 1.386 . S
C602 C604 1.391 . S
C603 C602 1.386 . S
C603 C607 1.393 . S
C604 H593 0.950 . S
C604 C602 1.391 . S
C604 C605 1.400 . S
C605 C599 1.491 . S
C605 C604 1.400 . S
C605 C606 1.398 . S
C606 H594 0.950 . S
C606 C605 1.398 . S
C606 C607 1.391 . S
C607 H595 0.950 . S
C607 C603 1.393 . S
C607 C606 1.391 . S
H608 C616 0.950 . S
H609 C621 0.950 . S
H610 C618 0.950 . S
H611 C620 0.950 . S
H612 C622 0.950 . S
H613 C624 0.950 . S
H614 C626 0.950 . S
H615 C627 0.950 . S
C616 H608 0.950 . S
C616 C617 1.386 . S
C616 C618 1.391 . S
C617 C616 1.386 . S
C617 C621 1.393 . S
C618 H610 0.950 . S
C618 C616 1.391 . S
C618 C619 1.400 . S
C619 C618 1.400 . S
C619 C620 1.398 . S
C619 C625 1.491 . S
C620 H611 0.950 . S
C620 C619 1.398 . S
C620 C621 1.391 . S
C621 H609 0.950 . S
C621 C617 1.393 . S
C621 C620 1.391 . S
C622 H612 0.950 . S
C622 C623 1.386 . S
C622 C624 1.391 . S
C623 C622 1.386 . S
C623 C627 1.393 . S
C624 H613 0.950 . S
C624 C622 1.391 . S
C624 C625 1.400 . S
C625 C619 1.491 . S
C625 C624 1.400 . S
C625 C626 1.398 . S
C626 H614 0.950 . S
C626 C625 1.398 . S
C626 C627 1.391 . S
C627 H615 0.950 . S
C627 C623 1.393 . S
C627 C626 1.391 . S
H628 C636 0.950 . S
H629 C641 0.950 . S
H630 C638 0.950 . S
H631 C640 0.950 . S
H632 C642 0.950 . S
H633 C644 0.950 . S
H634 C646 0.950 . S
H635 C647 0.950 . S
C636 H628 0.950 . S
C636 C637 1.386 . S
C636 C638 1.391 . S
C637 C636 1.386 . S
C637 C641 1.393 . S
C638 H630 0.950 . S
C638 C636 1.391 . S
C638 C639 1.400 . S
C639 C638 1.400 . S
C639 C640 1.398 . S
C639 C645 1.491 . S
C640 H631 0.950 . S
C640 C639 1.398 . S
C640 C641 1.391 . S
C641 H629 0.950 . S
C641 C637 1.393 . S
C641 C640 1.391 . S
C642 H632 0.950 . S
C642 C643 1.386 . S
C642 C644 1.391 . S
C643 C642 1.386 . S
C643 C647 1.393 . S
C644 H633 0.950 . S
C644 C642 1.391 . S
C644 C645 1.400 . S
C645 C639 1.491 . S
C645 C644 1.400 . S
C645 C646 1.398 . S
C646 H634 0.950 . S
C646 C645 1.398 . S
C646 C647 1.391 . S
C647 H635 0.950 . S
C647 C643 1.393 . S
C647 C646 1.391 . S
H648 C656 0.950 . S
H649 C661 0.950 . S
H650 C658 0.950 . S
H651 C660 0.950 . S
H652 C662 0.950 . S
H653 C664 0.950 . S
H654 C666 0.950 . S
H655 C667 0.950 . S
C656 H648 0.950 . S
C656 C657 1.386 . S
C656 C658 1.391 . S
C657 C656 1.386 . S
C657 C661 1.393 . S
C658 H650 0.950 . S
C658 C656 1.391 . S
C658 C659 1.400 . S
C659 C658 1.400 . S
C659 C660 1.398 . S
C659 C665 1.491 . S
C660 H651 0.950 . S
C660 C659 1.398 . S
C660 C661 1.391 . S
C661 H649 0.950 . S
C661 C657 1.393 . S
C661 C660 1.391 . S
C662 H652 0.950 . S
C662 C663 1.386 . S
C662 C664 1.391 . S
C663 C662 1.386 . S
C663 C667 1.393 . S
C664 H653 0.950 . S
C664 C662 1.391 . S
C664 C665 1.400 . S
C665 C659 1.491 . S
C665 C664 1.400 . S
C665 C666 1.398 . S
C666 H654 0.950 . S
C666 C665 1.398 . S
C666 C667 1.391 . S
C667 H655 0.950 . S
C667 C663 1.393 . S
C667 C666 1.391 . S
H668 C676 0.950 . S
H669 C681 0.950 . S
H670 C678 0.950 . S
H671 C680 0.950 . S
H672 C682 0.950 . S
H673 C684 0.950 . S
H674 C686 0.950 . S
H675 C687 0.950 . S
C676 H668 0.950 . S
C676 C677 1.386 . S
C676 C678 1.391 . S
C677 C676 1.386 . S
C677 C681 1.393 . S
C678 H670 0.950 . S
C678 C676 1.391 . S
C678 C679 1.400 . S
C679 C678 1.400 . S
C679 C680 1.398 . S
C679 C685 1.491 . S
C680 H671 0.950 . S
C680 C679 1.398 . S
C680 C681 1.391 . S
C681 H669 0.950 . S
C681 C677 1.393 . S
C681 C680 1.391 . S
C682 H672 0.950 . S
C682 C683 1.386 . S
C682 C684 1.391 . S
C683 C682 1.386 . S
C683 C687 1.393 . S
C684 H673 0.950 . S
C684 C682 1.391 . S
C684 C685 1.400 . S
C685 C679 1.491 . S
C685 C684 1.400 . S
C685 C686 1.398 . S
C686 H674 0.950 . S
C686 C685 1.398 . S
C686 C687 1.391 . S
C687 H675 0.950 . S
C687 C683 1.393 . S
C687 C686 1.391 . S
H688 C696 0.950 . S
H689 C701 0.950 . S
H690 C698 0.950 . S
H691 C700 0.950 . S
H692 C702 0.950 . S
H693 C704 0.950 . S
H694 C706 0.950 . S
H695 C707 0.950 . S
C696 H688 0.950 . S
C696 C697 1.386 . S
C696 C698 1.391 . S
C697 C696 1.386 . S
C697 C701 1.393 . S
C698 H690 0.950 . S
C698 C696 1.391 . S
C698 C699 1.400 . S
C699 C698 1.400 . S
C699 C700 1.398 . S
C699 C705 1.491 . S
C700 H691 0.950 . S
C700 C699 1.398 . S
C700 C701 1.391 . S
C701 H689 0.950 . S
C701 C697 1.393 . S
C701 C700 1.391 . S
C702 H692 0.950 . S
C702 C703 1.386 . S
C702 C704 1.391 . S
C703 C702 1.386 . S
C703 C707 1.393 . S
C704 H693 0.950 . S
C704 C702 1.391 . S
C704 C705 1.400 . S
C705 C699 1.491 . S
C705 C704 1.400 . S
C705 C706 1.398 . S
C706 H694 0.950 . S
C706 C705 1.398 . S
C706 C707 1.391 . S
C707 H695 0.950 . S
C707 C703 1.393 . S
C707 C706 1.391 . S
H708 C716 0.950 . S
H709 C721 0.950 . S
H710 C718 0.950 . S
H711 C720 0.950 . S
H712 C722 0.950 . S
H713 C724 0.950 . S
H714 C726 0.950 . S
H715 C727 0.950 . S
C716 H708 0.950 . S
C716 C717 1.386 . S
C716 C718 1.391 . S
C717 C716 1.386 . S
C717 C721 1.393 . S
C718 H710 0.950 . S
C718 C716 1.391 . S
C718 C719 1.400 . S
C719 C718 1.400 . S
C719 C720 1.398 . S
C719 C725 1.491 . S
C720 H711 0.950 . S
C720 C719 1.398 . S
C720 C721 1.391 . S
C721 H709 0.950 . S
C721 C717 1.393 . S
C721 C720 1.391 . S
C722 H712 0.950 . S
C722 C723 1.386 . S
C722 C724 1.391 . S
C723 C722 1.386 . S
C723 C727 1.393 . S
C724 H713 0.950 . S
C724 C722 1.391 . S
C724 C725 1.400 . S
C725 C719 1.491 . S
C725 C724 1.400 . S
C725 C726 1.398 . S
C726 H714 0.950 . S
C726 C725 1.398 . S
C726 C727 1.391 . S
C727 H715 0.950 . S
C727 C723 1.393 . S
C727 C726 1.391 . S
H728 C736 0.950 . S
H729 C741 0.950 . S
H730 C738 0.950 . S
H731 C740 0.950 . S
H732 C742 0.950 . S
H733 C744 0.950 . S
H734 C746 0.950 . S
H735 C747 0.950 . S
C736 H728 0.950 . S
C736 C737 1.386 . S
C736 C738 1.391 . S
C737 C736 1.386 . S
C737 C741 1.393 . S
C738 H730 0.950 . S
C738 C736 1.391 . S
C738 C739 1.400 . S
C739 C738 1.400 . S
C739 C740 1.398 . S
C739 C745 1.491 . S
C740 H731 0.950 . S
C740 C739 1.398 . S
C740 C741 1.391 . S
C741 H729 0.950 . S
C741 C737 1.393 . S
C741 C740 1.391 . S
C742 H732 0.950 . S
C742 C743 1.386 . S
C742 C744 1.391 . S
C743 C742 1.386 . S
C743 C747 1.393 . S
C744 H733 0.950 . S
C744 C742 1.391 . S
C744 C745 1.400 . S
C745 C739 1.491 . S
C745 C744 1.400 . S
C745 C746 1.398 . S
C746 H734 0.950 . S
C746 C745 1.398 . S
C746 C747 1.391 . S
C747 H735 0.950 . S
C747 C743 1.393 . S
C747 C746 1.391 . S
H748 C756 0.950 . S
H749 C761 0.950 . S
H750 C758 0.950 . S
H751 C760 0.950 . S
H752 C762 0.950 . S
H753 C764 0.950 . S
H754 C766 0.950 . S
H755 C767 0.950 . S
C756 H748 0.950 . S
C756 C757 1.386 . S
C756 C758 1.391 . S
C757 C756 1.386 . S
C757 C761 1.393 . S
C758 H750 0.950 . S
C758 C756 1.391 . S
C758 C759 1.400 . S
C759 C758 1.400 . S
C759 C760 1.398 . S
C759 C765 1.491 . S
C760 H751 0.950 . S
C760 C759 1.398 . S
C760 C761 1.391 . S
C761 H749 0.950 . S
C761 C757 1.393 . S
C761 C760 1.391 . S
C762 H752 0.950 . S
C762 C763 1.386 . S
C762 C764 1.391 . S
C763 C762 1.386 . S
C763 C767 1.393 . S
C764 H753 0.950 . S
C764 C762 1.391 . S
C764 C765 1.400 . S
C765 C759 1.491 . S
C765 C764 1.400 . S
C765 C766 1.398 . S
C766 H754 0.950 . S
C766 C765 1.398 . S
C766 C767 1.391 . S
C767 H755 0.950 . S
C767 C763 1.393 . S
C767 C766 1.391 . S
H768 C776 0.950 . S
H769 C781 0.950 . S
H770 C778 0.950 . S
H771 C780 0.950 . S
H772 C782 0.950 . S
H773 C784 0.950 . S
H774 C786 0.950 . S
H775 C787 0.950 . S
C776 H768 0.950 . S
C776 C777 1.386 . S
C776 C778 1.391 . S
C777 C776 1.386 . S
C777 C781 1.393 . S
C778 H770 0.950 . S
C778 C776 1.391 . S
C778 C779 1.400 . S
C779 C778 1.400 . S
C779 C780 1.398 . S
C779 C785 1.491 . S
C780 H771 0.950 . S
C780 C779 1.398 . S
C780 C781 1.391 . S
C781 H769 0.950 . S
C781 C777 1.393 . S
C781 C780 1.391 . S
C782 H772 0.950 . S
C782 C783 1.386 . S
C782 C784 1.391 . S
C783 C782 1.386 . S
C783 C787 1.393 . S
C784 H773 0.950 . S
C784 C782 1.391 . S
C784 C785 1.400 . S
C785 C779 1.491 . S
C785 C784 1.400 . S
C785 C786 1.398 . S
C786 H774 0.950 . S
C786 C785 1.398 . S
C786 C787 1.391 . S
C787 H775 0.950 . S
C787 C783 1.393 . S
C787 C786 1.391 . S
H788 C796 0.950 . S
H789 C801 0.950 . S
H790 C798 0.950 . S
H791 C800 0.950 . S
H792 C802 0.950 . S
H793 C804 0.950 . S
H794 C806 0.950 . S
H795 C807 0.950 . S
C796 H788 0.950 . S
C796 C797 1.386 . S
C796 C798 1.391 . S
C797 C796 1.386 . S
C797 C801 1.393 . S
C798 H790 0.950 . S
C798 C796 1.391 . S
C798 C799 1.400 . S
C799 C798 1.400 . S
C799 C800 1.398 . S
C799 C805 1.491 . S
C800 H791 0.950 . S
C800 C799 1.398 . S
C800 C801 1.391 . S
C801 H789 0.950 . S
C801 C797 1.393 . S
C801 C800 1.391 . S
C802 H792 0.950 . S
C802 C803 1.386 . S
C802 C804 1.391 . S
C803 C802 1.386 . S
C803 C807 1.393 . S
C804 H793 0.950 . S
C804 C802 1.391 . S
C804 C805 1.400 . S
C805 C799 1.491 . S
C805 C804 1.400 . S
C805 C806 1.398 . S
C806 H794 0.950 . S
C806 C805 1.398 . S
C806 C807 1.391 . S
C807 H795 0.950 . S
C807 C803 1.393 . S
C807 C806 1.391 . S
H808 C816 0.950 . S
H809 C821 0.950 . S
H810 C818 0.950 . S
H811 C820 0.950 . S
H812 C822 0.950 . S
H813 C824 0.950 . S
H814 C826 0.950 . S
H815 C827 0.950 . S
C816 H808 0.950 . S
C816 C817 1.386 . S
C816 C818 1.391 . S
C817 C816 1.386 . S
C817 C821 1.393 . S
C818 H810 0.950 . S
C818 C816 1.391 . S
C818 C819 1.400 . S
C819 C818 1.400 . S
C819 C820 1.398 . S
C819 C825 1.491 . S
C820 H811 0.950 . S
C820 C819 1.398 . S
C820 C821 1.391 . S
C821 H809 0.950 . S
C821 C817 1.393 . S
C821 C820 1.391 . S
C822 H812 0.950 . S
C822 C823 1.386 . S
C822 C824 1.391 . S
C823 C822 1.386 . S
C823 C827 1.393 . S
C824 H813 0.950 . S
C824 C822 1.391 . S
C824 C825 1.400 . S
C825 C819 1.491 . S
C825 C824 1.400 . S
C825 C826 1.398 . S
C826 H814 0.950 . S
C826 C825 1.398 . S
C826 C827 1.391 . S
C827 H815 0.950 . S
C827 C823 1.393 . S
C827 C826 1.391 . S
H828 C836 0.950 . S
H829 C841 0.950 . S
H830 C838 0.950 . S
H831 C840 0.950 . S
H832 C842 0.950 . S
H833 C844 0.950 . S
H834 C846 0.950 . S
H835 C847 0.950 . S
C836 H828 0.950 . S
C836 C837 1.386 . S
C836 C838 1.391 . S
C837 C836 1.386 . S
C837 C841 1.393 . S
C838 H830 0.950 . S
C838 C836 1.391 . S
C838 C839 1.400 . S
C839 C838 1.400 . S
C839 C840 1.398 . S
C839 C845 1.491 . S
C840 H831 0.950 . S
C840 C839 1.398 . S
C840 C841 1.391 . S
C841 H829 0.950 . S
C841 C837 1.393 . S
C841 C840 1.391 . S
C842 H832 0.950 . S
C842 C843 1.386 . S
C842 C844 1.391 1_554 S
C843 C842 1.386 . S
C843 C847 1.393 1_554 S
C844 H833 0.950 . S
C844 C842 1.391 1_556 S
C844 C845 1.400 . S
C845 C839 1.491 . S
C845 C844 1.400 . S
C845 C846 1.398 . S
C846 H834 0.950 . S
C846 C845 1.398 . S
C846 C847 1.391 . S
C847 H835 0.950 . S
C847 C843 1.393 1_556 S
C847 C846 1.391 . S
H848 C856 0.950 . S
H849 C861 0.956 1_545 S
H850 C858 0.950 . S
H851 C860 0.950 . S
H852 C862 0.950 . S
H853 C864 0.950 . S
H854 C866 0.950 . S
H855 C867 0.950 . S
C856 H848 0.950 . S
C856 C857 1.386 . S
C856 C858 1.391 . S
C857 C856 1.386 . S
C857 C861 1.393 . S
C858 H850 0.950 . S
C858 C856 1.391 . S
C858 C859 1.400 . S
C859 C858 1.400 . S
C859 C860 1.398 . S
C859 C865 1.491 . S
C860 H851 0.950 . S
C860 C859 1.398 . S
C860 C861 1.391 . S
C861 H849 0.956 1_565 S
C861 C857 1.393 . S
C861 C860 1.391 . S
C862 H852 0.950 . S
C862 C863 1.386 . S
C862 C864 1.391 . S
C863 C862 1.386 . S
C863 C867 1.393 . S
C864 H853 0.950 . S
C864 C862 1.391 . S
C864 C865 1.400 . S
C865 C859 1.491 . S
C865 C864 1.400 . S
C865 C866 1.398 . S
C866 H854 0.950 . S
C866 C865 1.398 . S
C866 C867 1.391 . S
C867 H855 0.950 . S
C867 C863 1.393 . S
C867 C866 1.391 . S
H868 C876 0.950 . S
H869 C881 0.950 . S
H870 C878 0.950 . S
H871 C880 0.950 . S
H872 C882 0.950 . S
H873 C884 0.950 . S
H874 C886 0.950 . S
H875 C887 0.950 . S
C876 H868 0.950 . S
C876 C877 1.386 . S
C876 C878 1.391 . S
C877 C876 1.386 . S
C877 C881 1.393 . S
C878 H870 0.950 . S
C878 C876 1.391 . S
C878 C879 1.400 . S
C879 C878 1.400 . S
C879 C880 1.398 . S
C879 C885 1.491 . S
C880 H871 0.950 . S
C880 C879 1.398 . S
C880 C881 1.391 . S
C881 H869 0.950 . S
C881 C877 1.393 . S
C881 C880 1.391 . S
C882 H872 0.950 . S
C882 C883 1.386 . S
C882 C884 1.391 . S
C883 C882 1.386 . S
C883 C887 1.393 . S
C884 H873 0.950 . S
C884 C882 1.391 . S
C884 C885 1.400 . S
C885 C879 1.491 . S
C885 C884 1.400 . S
C885 C886 1.398 . S
C886 H874 0.950 . S
C886 C885 1.398 . S
C886 C887 1.391 . S
C887 H875 0.950 . S
C887 C883 1.393 . S
C887 C886 1.391 . S
H888 C896 0.950 1_545 S
H889 C901 0.950 . S
H890 C898 0.950 . S
H891 C900 0.950 . S
H892 C902 0.950 . S
H893 C904 0.950 . S
H894 C906 0.950 . S
H895 C907 0.950 . S
C896 H888 0.950 1_565 S
C896 C897 1.386 . S
C896 C898 1.391 . S
C897 C896 1.386 . S
C897 C901 1.393 . S
C898 H890 0.950 . S
C898 C896 1.391 . S
C898 C899 1.400 . S
C899 C898 1.400 . S
C899 C900 1.398 . S
C899 C905 1.491 . S
C900 H891 0.950 . S
C900 C899 1.398 . S
C900 C901 1.391 . S
C901 H889 0.950 . S
C901 C897 1.393 . S
C901 C900 1.391 . S
C902 H892 0.950 . S
C902 C903 1.386 . S
C902 C904 1.391 . S
C903 C902 1.386 . S
C903 C907 1.393 . S
C904 H893 0.950 . S
C904 C902 1.391 . S
C904 C905 1.400 . S
C905 C899 1.491 . S
C905 C904 1.400 . S
C905 C906 1.398 . S
C906 H894 0.950 . S
C906 C905 1.398 . S
C906 C907 1.391 . S
C907 H895 0.950 . S
C907 C903 1.393 . S
C907 C906 1.391 . S
H908 C916 0.950 . S
H909 C921 0.950 . S
H910 C918 0.950 . S
H911 C920 0.950 . S
H912 C922 0.950 . S
H913 C924 0.950 . S
H914 C926 0.950 . S
H915 C927 0.950 . S
C916 H908 0.950 . S
C916 C917 1.386 . S
C916 C918 1.391 . S
C917 C916 1.386 . S
C917 C921 1.393 . S
C918 H910 0.950 . S
C918 C916 1.391 . S
C918 C919 1.400 . S
C919 C918 1.400 . S
C919 C920 1.398 . S
C919 C925 1.491 . S
C920 H911 0.950 . S
C920 C919 1.398 . S
C920 C921 1.391 . S
C921 H909 0.950 . S
C921 C917 1.393 . S
C921 C920 1.391 . S
C922 H912 0.950 . S
C922 C923 1.386 . S
C922 C924 1.391 . S
C923 C922 1.386 . S
C923 C927 1.393 . S
C924 H913 0.950 . S
C924 C922 1.391 . S
C924 C925 1.400 . S
C925 C919 1.491 . S
C925 C924 1.400 . S
C925 C926 1.398 . S
C926 H914 0.950 . S
C926 C925 1.398 . S
C926 C927 1.391 . S
C927 H915 0.950 . S
C927 C923 1.393 . S
C927 C926 1.391 . S
H928 C936 0.950 . S
H929 C941 0.950 . S
H930 C938 0.950 . S
H931 C940 0.950 . S
H932 C942 0.950 . S
H933 C944 0.950 . S
H934 C946 0.950 . S
H935 C947 0.950 . S
C936 H928 0.950 . S
C936 C937 1.386 . S
C936 C938 1.391 . S
C937 C936 1.386 . S
C937 C941 1.393 . S
C938 H930 0.950 . S
C938 C936 1.391 . S
C938 C939 1.400 . S
C939 C938 1.400 . S
C939 C940 1.398 . S
C939 C945 1.491 . S
C940 H931 0.950 . S
C940 C939 1.398 . S
C940 C941 1.391 . S
C941 H929 0.950 . S
C941 C937 1.393 . S
C941 C940 1.391 . S
C942 H932 0.950 . S
C942 C943 1.386 . S
C942 C944 1.391 . S
C943 C942 1.386 . S
C943 C947 1.393 . S
C944 H933 0.950 . S
C944 C942 1.391 . S
C944 C945 1.400 . S
C945 C939 1.491 . S
C945 C944 1.400 . S
C945 C946 1.398 . S
C946 H934 0.950 . S
C946 C945 1.398 . S
C946 C947 1.391 . S
C947 H935 0.950 . S
C947 C943 1.393 . S
C947 C946 1.391 . S
H948 C956 0.950 . S
H949 C961 0.950 . S
H950 C958 0.950 . S
H951 C960 0.950 . S
H952 C962 0.950 . S
H953 C964 0.950 . S
H954 C966 0.950 . S
H955 C967 0.950 . S
C956 H948 0.950 . S
C956 C957 1.386 . S
C956 C958 1.391 . S
C957 C956 1.386 . S
C957 C961 1.393 . S
C958 H950 0.950 . S
C958 C956 1.391 . S
C958 C959 1.400 . S
C959 C958 1.400 . S
C959 C960 1.398 . S
C959 C965 1.491 . S
C960 H951 0.950 . S
C960 C959 1.398 . S
C960 C961 1.391 . S
C961 H949 0.950 . S
C961 C957 1.393 . S
C961 C960 1.391 . S
C962 H952 0.950 . S
C962 C963 1.386 . S
C962 C964 1.391 . S
C963 C962 1.386 . S
C963 C967 1.393 . S
C964 H953 0.950 . S
C964 C962 1.391 . S
C964 C965 1.400 . S
C965 C959 1.491 . S
C965 C964 1.400 . S
C965 C966 1.398 . S
C966 H954 0.950 . S
C966 C965 1.398 . S
C966 C967 1.391 . S
C967 H955 0.950 . S
C967 C963 1.393 . S
C967 C966 1.391 . S
H968 C976 0.950 . S
H969 C981 0.950 . S
H970 C978 0.950 . S
H971 C980 0.950 . S
H972 C982 0.950 . S
H973 C984 0.950 . S
H974 C986 0.950 1_554 S
H975 C987 0.950 . S
C976 H968 0.950 . S
C976 C977 1.386 . S
C976 C978 1.391 . S
C977 C976 1.386 . S
C977 C981 1.393 . S
C978 H970 0.950 . S
C978 C976 1.391 . S
C978 C979 1.400 . S
C979 C978 1.400 . S
C979 C980 1.398 . S
C979 C985 1.491 . S
C980 H971 0.950 . S
C980 C979 1.398 . S
C980 C981 1.391 . S
C981 H969 0.950 . S
C981 C977 1.393 . S
C981 C980 1.391 . S
C982 H972 0.950 . S
C982 C983 1.386 . S
C982 C984 1.391 . S
C983 C982 1.386 . S
C983 C987 1.393 . S
C984 H973 0.950 . S
C984 C982 1.391 . S
C984 C985 1.400 1_556 S
C985 C979 1.491 . S
C985 C984 1.400 1_554 S
C985 C986 1.398 1_554 S
C986 H974 0.950 1_556 S
C986 C985 1.398 1_556 S
C986 C987 1.391 . S
C987 H975 0.950 . S
C987 C983 1.393 . S
C987 C986 1.391 . S
H988 C996 0.950 . S
H989 C1001 0.950 . S
H990 C998 0.950 . S
H991 C1000 0.950 . S
H992 C1002 0.950 . S
H993 C1004 0.950 . S
H994 C1006 0.950 . S
H995 C1007 0.950 . S
C996 H988 0.950 . S
C996 C997 1.386 . S
C996 C998 1.391 . S
C997 C996 1.386 . S
C997 C1001 1.393 . S
C998 H990 0.950 . S
C998 C996 1.391 . S
C998 C999 1.400 . S
C999 C998 1.400 . S
C999 C1000 1.398 . S
C999 C1005 1.491 . S
C1000 H991 0.950 . S
C1000 C999 1.398 . S
C1000 C1001 1.391 . S
C1001 H989 0.950 . S
C1001 C997 1.393 . S
C1001 C1000 1.391 . S
C1002 H992 0.950 . S
C1002 C1003 1.386 . S
C1002 C1004 1.391 . S
C1003 C1002 1.386 . S
C1003 C1007 1.393 . S
C1004 H993 0.950 . S
C1004 C1002 1.391 . S
C1004 C1005 1.400 . S
C1005 C999 1.491 . S
C1005 C1004 1.400 . S
C1005 C1006 1.398 . S
C1006 H994 0.950 . S
C1006 C1005 1.398 . S
C1006 C1007 1.391 . S
C1007 H995 0.950 . S
C1007 C1003 1.393 . S
C1007 C1006 1.391 . S
C543 C517 1.080 . S
C537 C51 1.061 . S
C557 C125 1.791 . S
C563 C447 1.809 . S
C577 C217 2.328 . S
C583 C466 2.324 . S
C597 C291 2.023 . S
C603 C475 2.058 . S
C623 C489 0.592 . S
C617 C347 0.588 . S
C637 C421 1.184 . S
C643 C508 1.209 . S
C657 C143 2.616 . S
C663 C461 2.646 . S
C677 C199 1.176 . S
C683 C480 1.175 . S
C697 C273 1.002 . S
C703 C494 1.009 . S
C723 C503 1.298 . S
C717 C365 1.291 . S
C743 C522 2.255 . S
C737 C439 2.232 . S
C763 C452 2.033 . S
C757 C69 2.051 . S
C777 C63 1.525 . S
C783 C467 1.599 . S
C797 C137 1.400 . S
C803 C479 1.473 . S
C823 C493 1.440 . S
C817 C187 1.388 . S
C837 C261 1.495 . S
C843 C509 1.580 . S
C863 C521 1.359 . S
C857 C359 1.292 1_565 S
C883 C451 1.322 . S
C877 C433 1.262 . S
C903 C523 1.530 . S
C897 C113 1.524 . S
C917 C211 1.480 . S
C923 C453 1.500 . S
C943 C465 1.573 . S
C937 C285 1.469 . S
C957 C335 1.341 . S
C963 C481 1.350 . S
C977 C409 1.458 . S
C983 C495 1.544 . S
C997 C39 1.728 . S
C1003 C507 1.789 . S
