# Generated by pormake.
# Topology ptr, (4,4)-cn, num edge types: 1
# Building blocks:
#     Node 0, Type 0, BuildingBlock: KUFVIS_clean_sbu_0, # of connection points: 4
#     Node 1, Type 0, BuildingBlock: KUFVIS_clean_sbu_0, # of connection points: 4
#     Node 2, Type 0, BuildingBlock: KUFVIS_clean_sbu_0, # of connection points: 4
#     Node 3, Type 0, BuildingBlock: KUFVIS_clean_sbu_0, # of connection points: 4
#     Node 4, Type 0, BuildingBlock: KUFVIS_clean_sbu_0, # of connection points: 4
#     Node 5, Type 0, BuildingBlock: KUFVIS_clean_sbu_0, # of connection points: 4
#     Node 6, Type 0, BuildingBlock: KUFVIS_clean_sbu_0, # of connection points: 4
#     Node 7, Type 0, BuildingBlock: KUFVIS_clean_sbu_0, # of connection points: 4
#     Node 8, Type 0, BuildingBlock: KUFVIS_clean_sbu_0, # of connection points: 4
#     Node 9, Type 0, BuildingBlock: KUFVIS_clean_sbu_0, # of connection points: 4
#     Node 10, Type 0, BuildingBlock: KUFVIS_clean_sbu_0, # of connection points: 4
#     Node 11, Type 0, BuildingBlock: KUFVIS_clean_sbu_0, # of connection points: 4
#     Node 12, Type 0, BuildingBlock: KUFVIS_clean_sbu_0, # of connection points: 4
#     Node 13, Type 0, BuildingBlock: KUFVIS_clean_sbu_0, # of connection points: 4
#     Node 14, Type 0, BuildingBlock: KUFVIS_clean_sbu_0, # of connection points: 4
#     Node 15, Type 0, BuildingBlock: KUFVIS_clean_sbu_0, # of connection points: 4
#     Node 16, Type 0, BuildingBlock: KUFVIS_clean_sbu_0, # of connection points: 4
#     Node 17, Type 0, BuildingBlock: KUFVIS_clean_sbu_0, # of connection points: 4
#     Node 18, Type 1, BuildingBlock: MUDLON_clean_linker_0, # of connection points: 4
#     Node 19, Type 1, BuildingBlock: MUDLON_clean_linker_0, # of connection points: 4
#     Node 20, Type 1, BuildingBlock: MUDLON_clean_linker_0, # of connection points: 4
#     Node 21, Type 1, BuildingBlock: MUDLON_clean_linker_0, # of connection points: 4
#     Node 22, Type 1, BuildingBlock: MUDLON_clean_linker_0, # of connection points: 4
#     Node 23, Type 1, BuildingBlock: MUDLON_clean_linker_0, # of connection points: 4
#     Node 24, Type 1, BuildingBlock: MUDLON_clean_linker_0, # of connection points: 4
#     Node 25, Type 1, BuildingBlock: MUDLON_clean_linker_0, # of connection points: 4
#     Node 26, Type 1, BuildingBlock: MUDLON_clean_linker_0, # of connection points: 4
#     Node 27, Type 1, BuildingBlock: MUDLON_clean_linker_0, # of connection points: 4
#     Node 28, Type 1, BuildingBlock: MUDLON_clean_linker_0, # of connection points: 4
#     Node 29, Type 1, BuildingBlock: MUDLON_clean_linker_0, # of connection points: 4
#     Node 30, Type 1, BuildingBlock: MUDLON_clean_linker_0, # of connection points: 4
#     Node 31, Type 1, BuildingBlock: MUDLON_clean_linker_0, # of connection points: 4
#     Node 32, Type 1, BuildingBlock: MUDLON_clean_linker_0, # of connection points: 4
#     Node 33, Type 1, BuildingBlock: MUDLON_clean_linker_0, # of connection points: 4
#     Node 34, Type 1, BuildingBlock: MUDLON_clean_linker_0, # of connection points: 4
#     Node 35, Type 1, BuildingBlock: MUDLON_clean_linker_0, # of connection points: 4
#     Edge 36, Type (0, 1), BuildingBlock: KIFKEQ_clean_linker_1, # of connection points: 2
#     Edge 37, Type (0, 1), BuildingBlock: KIFKEQ_clean_linker_1, # of connection points: 2
#     Edge 38, Type (0, 1), BuildingBlock: KIFKEQ_clean_linker_1, # of connection points: 2
#     Edge 39, Type (0, 1), BuildingBlock: KIFKEQ_clean_linker_1, # of connection points: 2
#     Edge 40, Type (0, 1), BuildingBlock: KIFKEQ_clean_linker_1, # of connection points: 2
#     Edge 41, Type (0, 1), BuildingBlock: KIFKEQ_clean_linker_1, # of connection points: 2
#     Edge 42, Type (0, 1), BuildingBlock: KIFKEQ_clean_linker_1, # of connection points: 2
#     Edge 43, Type (0, 1), BuildingBlock: KIFKEQ_clean_linker_1, # of connection points: 2
#     Edge 44, Type (0, 1), BuildingBlock: KIFKEQ_clean_linker_1, # of connection points: 2
#     Edge 45, Type (0, 1), BuildingBlock: KIFKEQ_clean_linker_1, # of connection points: 2
#     Edge 46, Type (0, 1), BuildingBlock: KIFKEQ_clean_linker_1, # of connection points: 2
#     Edge 47, Type (0, 1), BuildingBlock: KIFKEQ_clean_linker_1, # of connection points: 2
#     Edge 48, Type (0, 1), BuildingBlock: KIFKEQ_clean_linker_1, # of connection points: 2
#     Edge 49, Type (0, 1), BuildingBlock: KIFKEQ_clean_linker_1, # of connection points: 2
#     Edge 50, Type (0, 1), BuildingBlock: KIFKEQ_clean_linker_1, # of connection points: 2
#     Edge 51, Type (0, 1), BuildingBlock: KIFKEQ_clean_linker_1, # of connection points: 2
#     Edge 52, Type (0, 1), BuildingBlock: KIFKEQ_clean_linker_1, # of connection points: 2
#     Edge 53, Type (0, 1), BuildingBlock: KIFKEQ_clean_linker_1, # of connection points: 2
#     Edge 54, Type (0, 1), BuildingBlock: KIFKEQ_clean_linker_1, # of connection points: 2
#     Edge 55, Type (0, 1), BuildingBlock: KIFKEQ_clean_linker_1, # of connection points: 2
#     Edge 56, Type (0, 1), BuildingBlock: KIFKEQ_clean_linker_1, # of connection points: 2
#     Edge 57, Type (0, 1), BuildingBlock: KIFKEQ_clean_linker_1, # of connection points: 2
#     Edge 58, Type (0, 1), BuildingBlock: KIFKEQ_clean_linker_1, # of connection points: 2
#     Edge 59, Type (0, 1), BuildingBlock: KIFKEQ_clean_linker_1, # of connection points: 2
#     Edge 60, Type (0, 1), BuildingBlock: KIFKEQ_clean_linker_1, # of connection points: 2
#     Edge 61, Type (0, 1), BuildingBlock: KIFKEQ_clean_linker_1, # of connection points: 2
#     Edge 62, Type (0, 1), BuildingBlock: KIFKEQ_clean_linker_1, # of connection points: 2
#     Edge 63, Type (0, 1), BuildingBlock: KIFKEQ_clean_linker_1, # of connection points: 2
#     Edge 64, Type (0, 1), BuildingBlock: KIFKEQ_clean_linker_1, # of connection points: 2
#     Edge 65, Type (0, 1), BuildingBlock: KIFKEQ_clean_linker_1, # of connection points: 2
#     Edge 66, Type (0, 1), BuildingBlock: KIFKEQ_clean_linker_1, # of connection points: 2
#     Edge 67, Type (0, 1), BuildingBlock: KIFKEQ_clean_linker_1, # of connection points: 2
#     Edge 68, Type (0, 1), BuildingBlock: KIFKEQ_clean_linker_1, # of connection points: 2
#     Edge 69, Type (0, 1), BuildingBlock: KIFKEQ_clean_linker_1, # of connection points: 2
#     Edge 70, Type (0, 1), BuildingBlock: KIFKEQ_clean_linker_1, # of connection points: 2
#     Edge 71, Type (0, 1), BuildingBlock: KIFKEQ_clean_linker_1, # of connection points: 2
#     Edge 72, Type (0, 1), BuildingBlock: KIFKEQ_clean_linker_1, # of connection points: 2
#     Edge 73, Type (0, 1), BuildingBlock: KIFKEQ_clean_linker_1, # of connection points: 2
#     Edge 74, Type (0, 1), BuildingBlock: KIFKEQ_clean_linker_1, # of connection points: 2
#     Edge 75, Type (0, 1), BuildingBlock: KIFKEQ_clean_linker_1, # of connection points: 2
#     Edge 76, Type (0, 1), BuildingBlock: KIFKEQ_clean_linker_1, # of connection points: 2
#     Edge 77, Type (0, 1), BuildingBlock: KIFKEQ_clean_linker_1, # of connection points: 2
#     Edge 78, Type (0, 1), BuildingBlock: KIFKEQ_clean_linker_1, # of connection points: 2
#     Edge 79, Type (0, 1), BuildingBlock: KIFKEQ_clean_linker_1, # of connection points: 2
#     Edge 80, Type (0, 1), BuildingBlock: KIFKEQ_clean_linker_1, # of connection points: 2
#     Edge 81, Type (0, 1), BuildingBlock: KIFKEQ_clean_linker_1, # of connection points: 2
#     Edge 82, Type (0, 1), BuildingBlock: KIFKEQ_clean_linker_1, # of connection points: 2
#     Edge 83, Type (0, 1), BuildingBlock: KIFKEQ_clean_linker_1, # of connection points: 2
#     Edge 84, Type (0, 1), BuildingBlock: KIFKEQ_clean_linker_1, # of connection points: 2
#     Edge 85, Type (0, 1), BuildingBlock: KIFKEQ_clean_linker_1, # of connection points: 2
#     Edge 86, Type (0, 1), BuildingBlock: KIFKEQ_clean_linker_1, # of connection points: 2
#     Edge 87, Type (0, 1), BuildingBlock: KIFKEQ_clean_linker_1, # of connection points: 2
#     Edge 88, Type (0, 1), BuildingBlock: KIFKEQ_clean_linker_1, # of connection points: 2
#     Edge 89, Type (0, 1), BuildingBlock: KIFKEQ_clean_linker_1, # of connection points: 2
#     Edge 90, Type (0, 1), BuildingBlock: KIFKEQ_clean_linker_1, # of connection points: 2
#     Edge 91, Type (0, 1), BuildingBlock: KIFKEQ_clean_linker_1, # of connection points: 2
#     Edge 92, Type (0, 1), BuildingBlock: KIFKEQ_clean_linker_1, # of connection points: 2
#     Edge 93, Type (0, 1), BuildingBlock: KIFKEQ_clean_linker_1, # of connection points: 2
#     Edge 94, Type (0, 1), BuildingBlock: KIFKEQ_clean_linker_1, # of connection points: 2
#     Edge 95, Type (0, 1), BuildingBlock: KIFKEQ_clean_linker_1, # of connection points: 2
#     Edge 96, Type (0, 1), BuildingBlock: KIFKEQ_clean_linker_1, # of connection points: 2
#     Edge 97, Type (0, 1), BuildingBlock: KIFKEQ_clean_linker_1, # of connection points: 2
#     Edge 98, Type (0, 1), BuildingBlock: KIFKEQ_clean_linker_1, # of connection points: 2
#     Edge 99, Type (0, 1), BuildingBlock: KIFKEQ_clean_linker_1, # of connection points: 2
#     Edge 100, Type (0, 1), BuildingBlock: KIFKEQ_clean_linker_1, # of connection points: 2
#     Edge 101, Type (0, 1), BuildingBlock: KIFKEQ_clean_linker_1, # of connection points: 2
#     Edge 102, Type (0, 1), BuildingBlock: KIFKEQ_clean_linker_1, # of connection points: 2
#     Edge 103, Type (0, 1), BuildingBlock: KIFKEQ_clean_linker_1, # of connection points: 2
#     Edge 104, Type (0, 1), BuildingBlock: KIFKEQ_clean_linker_1, # of connection points: 2
#     Edge 105, Type (0, 1), BuildingBlock: KIFKEQ_clean_linker_1, # of connection points: 2
#     Edge 106, Type (0, 1), BuildingBlock: KIFKEQ_clean_linker_1, # of connection points: 2
#     Edge 107, Type (0, 1), BuildingBlock: KIFKEQ_clean_linker_1, # of connection points: 2
# Relax obj value: 0.037
# Max RMSD: 0.125
# Mean RMSD: 0.072
data_MOF--net-ptr--node1-KUFVIS_clean_sbu_0--node2-MUDLON_clean_linker_0--edge1-KIFKEQ_clean_linker_1
_symmetry_space_group_name_H-M    P1
_symmetry_Int_Tables_number       1
_symmetry_cell_setting            triclinic
loop_
_symmetry_equiv_pos_as_xyz
'x, y, z'
_cell_length_a     105.82604
_cell_length_b     105.39549
_cell_length_c     64.43014
_cell_angle_alpha  89.679379
_cell_angle_beta   90.679038
_cell_angle_gamma 119.53676
loop_
_atom_site_label
_atom_site_type_symbol
_atom_site_fract_x
_atom_site_fract_y
_atom_site_fract_z
_atom_type_partial_charge
Mn0 Mn 0.00448 0.36454 0.00379 0.0
Mn1 Mn 0.0369 0.39559 0.0014 0.0
C2 C 0.00754 0.38298 0.98138 0.0
C3 C 0.9885 0.34065 0.9932 0.0
C4 C 0.01539 0.38942 0.03573 0.0
O5 O 0.01826 0.35866 0.01753 0.0
O6 O 0.0393 0.37995 0.01516 0.0
C7 C 0.051 0.38518 0.97183 0.0
N8 N 0.0467 0.39497 0.97703 0.0
C9 C 0.05661 0.40861 0.94563 0.0
C10 C 0.06124 0.39873 0.94 0.0
C11 C 0.05838 0.38694 0.95313 0.0
C12 C 0.0493 0.40629 0.96444 0.0
H13 H 0.0488 0.3761 0.98186 0.0
C14 C 0.03191 0.36656 0.02061 0.0
O15 O 0.98725 0.34547 0.01112 0.0
O16 O 0.99928 0.34956 0.98174 0.0
N17 N 0.03641 0.41173 0.98846 0.0
C18 C 0.03079 0.41998 0.99583 0.0
C19 C 0.03247 0.43207 0.98432 0.0
C20 C 0.04006 0.43565 0.96553 0.0
C21 C 0.04597 0.42714 0.95845 0.0
C22 C 0.04398 0.41525 0.9706 0.0
H23 H 0.025 0.41732 0.01031 0.0
O24 O 0.99465 0.37335 0.98738 0.0
O25 O 0.01828 0.38149 0.98854 0.0
O26 O 0.00579 0.37687 0.02917 0.0
O27 O 0.02744 0.39732 0.02658 0.0
C28 C 0.0536 0.42989 0.9397 0.0
C29 C 0.05884 0.42058 0.93323 0.0
H30 H 0.06692 0.40004 0.92558 0.0
H31 H 0.06185 0.37923 0.94884 0.0
H32 H 0.0279 0.43859 0.98991 0.0
H33 H 0.04124 0.44491 0.95662 0.0
H34 H 0.05535 0.43904 0.93002 0.0
H35 H 0.0645 0.42269 0.91863 0.0
Mn36 Mn 0.64287 0.6404 0.01701 0.0
Mn37 Mn 0.64333 0.60859 0.02057 0.0
C38 C 0.62795 0.62272 0.0404 0.0
C39 C 0.65161 0.66472 0.02653 0.0
C40 C 0.62725 0.61478 0.98649 0.0
O41 O 0.66177 0.64525 0.00269 0.0
O42 O 0.66069 0.62345 0.00542 0.0
C43 C 0.6691 0.61905 0.04822 0.0
N44 N 0.65488 0.60941 0.04409 0.0
C45 C 0.653 0.59567 0.07496 0.0
C46 C 0.66765 0.60539 0.07949 0.0
C47 C 0.67572 0.61717 0.06611 0.0
C48 C 0.64698 0.59813 0.05696 0.0
H49 H 0.67536 0.62808 0.03794 0.0
C50 C 0.66696 0.63679 0.9995 0.0
O51 O 0.64487 0.65962 0.00898 0.0
O52 O 0.65356 0.65578 0.03828 0.0
N53 N 0.62747 0.59306 0.03491 0.0
C54 C 0.61326 0.58521 0.029 0.0
C55 C 0.60359 0.57328 0.04108 0.0
C56 C 0.60868 0.5694 0.0589 0.0
C57 C 0.62339 0.57756 0.06456 0.0
C58 C 0.6325 0.58936 0.05196 0.0
H59 H 0.6093 0.58812 0.0153 0.0
O60 O 0.62492 0.6326 0.03392 0.0
O61 O 0.63976 0.62349 0.03317 0.0
O62 O 0.63113 0.62782 0.99206 0.0
O63 O 0.63097 0.60655 0.99626 0.0
C64 C 0.62934 0.57459 0.08239 0.0
C65 C 0.6441 0.5837 0.08767 0.0
H66 H 0.6728 0.60397 0.09326 0.0
H67 H 0.68702 0.62476 0.06954 0.0
H68 H 0.59224 0.56708 0.03664 0.0
H69 H 0.60118 0.56022 0.06821 0.0
H70 H 0.62262 0.56543 0.09231 0.0
H71 H 0.64847 0.58145 0.10161 0.0
Mn72 Mn 0.35801 0.99726 0.01608 0.0
Mn73 Mn 0.39032 0.02831 0.02001 0.0
C74 C 0.37577 0.99822 0.0382 0.0
C75 C 0.33394 0.98282 0.02643 0.0
C76 C 0.38226 0.00714 0.98415 0.0
O77 O 0.35389 0.01252 0.00287 0.0
O78 O 0.37551 0.03275 0.00807 0.0
C79 C 0.38241 0.04297 0.05226 0.0
N80 N 0.39111 0.03769 0.04566 0.0
C81 C 0.4052 0.0452 0.07732 0.0
C82 C 0.39645 0.0508 0.0844 0.0
C83 C 0.38499 0.04965 0.07183 0.0
C84 C 0.40212 0.03868 0.05767 0.0
H85 H 0.37355 0.04205 0.04268 0.0
C86 C 0.36229 0.02629 0.00164 0.0
O87 O 0.33823 0.98116 0.00835 0.0
O88 O 0.34349 0.99319 0.03809 0.0
N89 N 0.40572 0.02577 0.03139 0.0
C90 C 0.41288 0.01945 0.02252 0.0
C91 C 0.42454 0.01948 0.03322 0.0
C92 C 0.42879 0.02612 0.05282 0.0
C93 C 0.42142 0.03278 0.06147 0.0
C94 C 0.40996 0.0325 0.05002 0.0
H95 H 0.40968 0.01434 0.00745 0.0
O96 O 0.36526 0.98576 0.03188 0.0
O97 O 0.37541 0.00976 0.03174 0.0
O98 O 0.3698 0.99767 0.99081 0.0
O99 O 0.39059 0.01914 0.99344 0.0
C100 C 0.42486 0.0395 0.08114 0.0
C101 C 0.41672 0.04565 0.0891 0.0
H102 H 0.39837 0.05592 0.09951 0.0
H103 H 0.37814 0.05389 0.07723 0.0
H104 H 0.43019 0.01435 0.02642 0.0
H105 H 0.4377 0.026 0.06112 0.0
H106 H 0.43364 0.03984 0.09038 0.0
H107 H 0.41935 0.05062 0.10435 0.0
Mn108 Mn 1.00033 0.64377 0.0044 0.0
Mn109 Mn 0.03185 0.64327 0.99961 0.0
C110 C 1.00152 0.62733 0.98212 0.0
C111 C 0.98541 0.65338 0.99475 0.0
C112 C 0.01151 0.62962 0.03589 0.0
O113 O 0.01524 0.66302 0.0175 0.0
O114 O 0.03578 0.66221 0.01177 0.0
C115 C 0.04515 0.66608 0.96733 0.0
N116 N 0.04057 0.65218 0.97385 0.0
C117 C 0.04811 0.64625 0.94197 0.0
C118 C 0.05299 0.66053 0.93497 0.0
C119 C 0.05147 0.67047 0.94769 0.0
C120 C 0.04189 0.6425 0.96169 0.0
H121 H 0.04395 0.67373 0.97704 0.0
C122 C 0.02902 0.66863 0.01846 0.0
O123 O 0.98404 0.64707 0.01261 0.0
O124 O 0.99559 0.65431 0.98275 0.0
N125 N 0.02994 0.62572 0.988 0.0
C126 C 0.02443 0.61229 0.99691 0.0
C127 C 0.02498 0.60103 0.98611 0.0
C128 C 0.03133 0.60374 0.96639 0.0
C129 C 0.03719 0.61772 0.95774 0.0
C130 C 0.03642 0.62853 0.96929 0.0
H131 H 0.01959 0.61015 0.01209 0.0
O132 O 0.98908 0.6252 0.98866 0.0
O133 O 0.01291 0.63927 0.98835 0.0
O134 O 1.00168 0.63246 0.02956 0.0
O135 O 0.02334 0.63352 0.02619 0.0
C136 C 0.04363 0.62132 0.93801 0.0
C137 C 0.04901 0.63555 0.93008 0.0
H138 H 0.05785 0.66396 0.91981 0.0
H139 H 0.05515 0.68149 0.94235 0.0
H140 H 0.02047 0.59028 0.99293 0.0
H141 H 0.03161 0.595 0.95803 0.0
H142 H 0.04436 0.61318 0.9287 0.0
H143 H 0.05378 0.63813 0.91478 0.0
Mn144 Mn 0.36264 0.36211 0.01891 0.0
Mn145 Mn 0.39489 0.36302 0.02404 0.0
C146 C 0.37971 0.3778 0.04261 0.0
C147 C 0.33828 0.35232 0.02797 0.0
C148 C 0.38759 0.37718 0.98821 0.0
O149 O 0.35897 0.34326 0.00487 0.0
O150 O 0.3804 0.34417 0.01124 0.0
C151 C 0.38673 0.33964 0.0553 0.0
N152 N 0.39539 0.35374 0.04936 0.0
C153 C 0.40922 0.35933 0.08121 0.0
C154 C 0.40051 0.34483 0.08761 0.0
C155 C 0.3892 0.33496 0.07462 0.0
C156 C 0.4063 0.36334 0.06175 0.0
H157 H 0.378 0.33203 0.04538 0.0
C158 C 0.36735 0.33775 0.00406 0.0
O159 O 0.34306 0.35885 0.01031 0.0
O160 O 0.34753 0.35105 0.03997 0.0
N161 N 0.40988 0.38057 0.03639 0.0
C162 C 0.41673 0.39434 0.02845 0.0
C163 C 0.42803 0.40564 0.03985 0.0
C164 C 0.43225 0.40266 0.05919 0.0
C165 C 0.42515 0.38837 0.06694 0.0
C166 C 0.41403 0.37753 0.05483 0.0
H167 H 0.41353 0.39672 0.0136 0.0
O168 O 0.3695 0.38022 0.03585 0.0
O169 O 0.37956 0.36621 0.03541 0.0
O170 O 0.37501 0.37418 0.99441 0.0
O171 O 0.39565 0.37314 0.99778 0.0
C172 C 0.42846 0.38452 0.08641 0.0
C173 C 0.42049 0.37001 0.09355 0.0
H174 H 0.40232 0.3412 0.10255 0.0
H175 H 0.38238 0.32378 0.0795 0.0
H176 H 0.43344 0.41665 0.03377 0.0
H177 H 0.44087 0.41143 0.06803 0.0
H178 H 0.43696 0.39269 0.09617 0.0
H179 H 0.42299 0.36724 0.10869 0.0
Mn180 Mn 0.64438 0.00471 0.00534 0.0
Mn181 Mn 0.61272 0.97282 0.00382 0.0
C182 C 0.62609 1.00178 0.98241 0.0
C183 C 0.66834 0.01944 0.99457 0.0
C184 C 0.62045 0.99541 0.03771 0.0
O185 O 0.64944 0.99058 0.02021 0.0
O186 O 0.62816 0.9697 0.01649 0.0
C187 C 0.62067 0.95687 0.97374 0.0
N188 N 0.61174 0.96206 0.97953 0.0
C189 C 0.59608 0.95097 0.94993 0.0
C190 C 0.60508 0.94543 0.94369 0.0
C191 C 0.61747 0.94846 0.9556 0.0
C192 C 0.59987 0.95933 0.96809 0.0
H193 H 0.63015 0.95911 0.98292 0.0
C194 C 0.64145 0.97681 0.02251 0.0
O195 O 0.66385 0.02165 0.01214 0.0
O196 O 0.659 0.00848 0.98353 0.0
N197 N 0.59678 0.97412 0.99182 0.0
C198 C 0.58979 0.98105 0.99925 0.0
C199 C 0.57747 0.97962 0.98868 0.0
C200 C 0.57234 0.97089 0.97079 0.0
C201 C 0.57962 0.96372 0.96359 0.0
C202 C 0.59189 0.96564 0.97468 0.0
H203 H 0.59361 0.98767 0.0131 0.0
O204 O 0.63616 0.01472 0.98788 0.0
O205 O 0.62708 0.99093 0.99037 0.0
O206 O 0.63267 0.00492 0.03042 0.0
O207 O 0.61241 0.98304 0.02919 0.0
C208 C 0.57528 0.95488 0.94571 0.0
C209 C 0.58358 0.94861 0.93877 0.0
H210 H 0.60263 0.93893 0.92972 0.0
H211 H 0.62449 0.94427 0.95084 0.0
H212 H 0.57191 0.98518 0.99434 0.0
H213 H 0.56284 0.96982 0.96266 0.0
H214 H 0.56571 0.95302 0.93698 0.0
H215 H 0.5803 0.94209 0.92476 0.0
Mn216 Mn 0.66868 0.69518 0.33517 0.0
Mn217 Mn 0.70039 0.72686 0.33166 0.0
C218 C 0.67119 0.71239 0.31074 0.0
C219 C 0.65378 0.67072 0.3262 0.0
C220 C 0.67844 0.72052 0.36564 0.0
O221 O 0.683 0.69088 0.35095 0.0
O222 O 0.70383 0.71188 0.34541 0.0
C223 C 0.71568 0.71773 0.30226 0.0
N224 N 0.71054 0.72686 0.30733 0.0
C225 C 0.71998 0.74071 0.27595 0.0
C226 C 0.72546 0.7315 0.27045 0.0
C227 C 0.72326 0.71994 0.28364 0.0
C228 C 0.71257 0.73801 0.29474 0.0
H229 H 0.71399 0.70881 0.31234 0.0
C230 C 0.6968 0.69886 0.35259 0.0
O231 O 0.65188 0.67604 0.34325 0.0
O232 O 0.66461 0.6795 0.31472 0.0
N233 N 0.6987 0.74229 0.31849 0.0
C234 C 0.69199 0.74962 0.32546 0.0
C235 C 0.69274 0.76124 0.31373 0.0
C236 C 0.70047 0.76527 0.29505 0.0
C237 C 0.70742 0.75766 0.2883 0.0
C238 C 0.70637 0.74624 0.30072 0.0
H239 H 0.68603 0.74658 0.33981 0.0
O240 O 0.65838 0.70253 0.3167 0.0
O241 O 0.68213 0.71181 0.31913 0.0
O242 O 0.66882 0.70805 0.35896 0.0
O243 O 0.69072 0.72817 0.35696 0.0
C244 C 0.71507 0.76076 0.26952 0.0
C245 C 0.72134 0.75227 0.26333 0.0
H246 H 0.73124 0.73312 0.25605 0.0
H247 H 0.72739 0.71274 0.27944 0.0
H248 H 0.68733 0.76705 0.31902 0.0
H249 H 0.7009 0.77414 0.28593 0.0
H250 H 0.716 0.76948 0.25954 0.0
H251 H 0.727 0.75461 0.24871 0.0
Mn252 Mn 0.30714 0.97707 0.34959 0.0
Mn253 Mn 0.30541 0.94437 0.35545 0.0
C254 C 0.29169 0.96058 0.37385 0.0
C255 C 0.31738 1.00175 0.35793 0.0
C256 C 0.29111 0.95149 0.31956 0.0
O257 O 0.32559 0.98008 0.33531 0.0
O258 O 0.32407 0.95839 0.34228 0.0
C259 C 0.32914 0.95263 0.38632 0.0
N260 N 0.31496 0.94408 0.38067 0.0
C261 C 0.30969 0.93066 0.41272 0.0
C262 C 0.32426 0.93927 0.41883 0.0
C263 C 0.33401 0.95032 0.40559 0.0
C264 C 0.30547 0.93343 0.3933 0.0
H265 H 0.33666 0.96116 0.37621 0.0
C266 C 0.33072 0.97135 0.3348 0.0
O267 O 0.31046 0.9966 0.34052 0.0
O268 O 0.31879 0.99267 0.37011 0.0
N269 N 0.28799 0.9298 0.36823 0.0
C270 C 0.27415 0.92302 0.36053 0.0
C271 C 0.26297 0.91196 0.37217 0.0
C272 C 0.26614 0.9079 0.3915 0.0
C273 C 0.28049 0.91492 0.399 0.0
C274 C 0.2912 0.9258 0.38665 0.0
H275 H 0.27163 0.92608 0.34568 0.0
O276 O 0.28944 0.97087 0.36687 0.0
O277 O 0.30295 0.9603 0.36655 0.0
O278 O 0.29458 0.96434 0.32548 0.0
O279 O 0.29497 0.94334 0.32931 0.0
C280 C 0.28454 0.91177 0.41844 0.0
C281 C 0.29912 0.91965 0.4253 0.0
H282 H 0.32805 0.93758 0.43373 0.0
H283 H 0.34526 0.95706 0.41024 0.0
H284 H 0.25192 0.9066 0.36629 0.0
H285 H 0.25747 0.89947 0.40053 0.0
H286 H 0.27648 0.90347 0.42838 0.0
H287 H 0.30206 0.91727 0.44041 0.0
Mn288 Mn 0.02493 0.32897 0.34746 0.0
Mn289 Mn 0.05644 0.36087 0.3521 0.0
C290 C 0.04242 0.33107 0.37113 0.0
C291 C 1.00065 0.31385 0.35632 0.0
C292 C 0.05035 0.33941 0.31719 0.0
O293 O 0.02029 0.34347 0.33295 0.0
O294 O 0.04154 0.36424 0.33799 0.0
C295 C 0.04634 0.37511 0.38197 0.0
N296 N 0.05582 0.37044 0.37686 0.0
C297 C 0.06879 0.37913 0.40924 0.0
C298 C 0.05923 0.38413 0.4148 0.0
C299 C 0.04793 0.38207 0.40112 0.0
C300 C 0.06665 0.37226 0.38997 0.0
H301 H 0.03761 0.37351 0.37153 0.0
C302 C 0.02845 0.35724 0.33114 0.0
O303 O 0.0058 0.31213 0.33903 0.0
O304 O 0.00949 0.32453 0.3682 0.0
N305 N 0.07197 0.3595 0.36544 0.0
C306 C 0.08015 0.35388 0.35784 0.0
C307 C 0.09194 0.35507 0.36961 0.0
C308 C 0.09529 0.36214 0.38894 0.0
C309 C 0.08685 0.36801 0.39631 0.0
C310 C 0.07533 0.36664 0.38379 0.0
H311 H 0.07769 0.34852 0.34293 0.0
O312 O 0.03248 0.31833 0.36474 0.0
O313 O 0.04167 0.34222 0.36382 0.0
O314 O 0.03773 0.32978 0.32319 0.0
O315 O 0.0581 0.35151 0.32662 0.0
C316 C 0.08932 0.37505 0.41567 0.0
C317 C 0.08026 0.38055 0.42217 0.0
H318 H 0.0604 0.38948 0.42957 0.0
H319 H 0.04046 0.38584 0.40535 0.0
H320 H 0.09843 0.35055 0.36379 0.0
H321 H 0.10438 0.36302 0.39798 0.0
H322 H 0.09807 0.37616 0.42576 0.0
H323 H 0.08217 0.3858 0.43717 0.0
Mn324 Mn 0.66885 0.97482 0.33494 0.0
Mn325 Mn 0.70037 0.97444 0.32913 0.0
C326 C 0.67016 0.9588 0.31184 0.0
C327 C 0.65313 0.98358 0.32567 0.0
C328 C 0.68035 0.96032 0.3655 0.0
O329 O 0.68371 0.99422 0.34764 0.0
O330 O 0.70409 0.99288 0.34289 0.0
C331 C 0.71396 0.99849 0.29866 0.0
N332 N 0.70938 0.98438 0.30404 0.0
C333 C 0.71764 0.97985 0.27172 0.0
C334 C 0.72254 0.99437 0.2659 0.0
C335 C 0.72066 0.00371 0.27941 0.0
C336 C 0.71109 0.97528 0.29113 0.0
H337 H 0.71251 0.0057 0.30897 0.0
C338 C 0.69743 0.99949 0.34933 0.0
O339 O 0.65237 0.97768 0.34371 0.0
O340 O 0.66333 0.98483 0.31343 0.0
N341 N 0.69859 0.95739 0.31592 0.0
C342 C 0.69251 0.9435 0.32335 0.0
C343 C 0.69315 0.9327 0.31148 0.0
C344 C 0.7001 0.9363 0.29218 0.0
C345 C 0.70637 0.95069 0.28493 0.0
C346 C 0.7055 0.96102 0.29752 0.0
H347 H 0.68708 0.94065 0.3381 0.0
O348 O 0.65774 0.95614 0.31922 0.0
O349 O 0.68146 0.97075 0.3182 0.0
O350 O 0.67086 0.9639 0.36018 0.0
O351 O 0.69171 0.96365 0.35495 0.0
C352 C 0.71315 0.95511 0.2655 0.0
C353 C 0.71875 0.96967 0.25888 0.0
H354 H 0.72765 0.99842 0.25102 0.0
H355 H 0.72435 0.01491 0.27497 0.0
H356 H 0.68823 0.9216 0.31715 0.0
H357 H 0.70042 0.9279 0.28296 0.0
H358 H 0.7139 0.94734 0.25537 0.0
H359 H 0.72375 0.97289 0.24378 0.0
Mn360 Mn 0.03139 0.69748 0.35223 0.0
Mn361 Mn 0.06297 0.69668 0.3542 0.0
C362 C 0.04956 0.71239 0.37525 0.0
C363 C 0.00737 0.6891 0.36216 0.0
C364 C 0.05628 0.71291 0.321 0.0
O365 O 0.02605 0.67835 0.33768 0.0
O366 O 0.04777 0.67925 0.33919 0.0
C367 C 0.05304 0.67096 0.38168 0.0
N368 N 0.0626 0.68521 0.37749 0.0
C369 C 0.07673 0.68731 0.40812 0.0
C370 C 0.06709 0.67263 0.41269 0.0
C371 C 0.05517 0.66444 0.39945 0.0
C372 C 0.07403 0.69322 0.39022 0.0
H373 H 0.04389 0.66462 0.37152 0.0
C374 C 0.03435 0.67309 0.33384 0.0
O375 O 0.0123 0.69577 0.34465 0.0
O376 O 0.0163 0.68697 0.3737 0.0
N377 N 0.07881 0.71264 0.36823 0.0
C378 C 0.08666 0.72684 0.36216 0.0
C379 C 0.09873 0.73662 0.3741 0.0
C380 C 0.10276 0.73165 0.3919 0.0
C381 C 0.09466 0.71694 0.39764 0.0
C382 C 0.08272 0.70771 0.38519 0.0
H383 H 0.08368 0.73068 0.34839 0.0
O384 O 0.03968 0.71555 0.36933 0.0
O385 O 0.04851 0.70045 0.3677 0.0
O386 O 0.04352 0.70922 0.32725 0.0
O387 O 0.06455 0.70894 0.33008 0.0
C388 C 0.09783 0.71112 0.41541 0.0
C389 C 0.08882 0.69634 0.42072 0.0
H390 H 0.0687 0.66756 0.42639 0.0
H391 H 0.04765 0.65312 0.40292 0.0
H392 H 0.10493 0.74795 0.36955 0.0
H393 H 0.11204 0.73925 0.40112 0.0
H394 H 0.10708 0.71794 0.42523 0.0
H395 H 0.09124 0.69205 0.4346 0.0
Mn396 Mn 0.30959 0.34098 0.33841 0.0
Mn397 Mn 0.27789 0.3094 0.33325 0.0
C398 C 0.29224 0.33929 0.31473 0.0
C399 C 0.33394 0.35582 0.32955 0.0
C400 C 0.2843 0.33054 0.36882 0.0
O401 O 0.31391 0.32616 0.35259 0.0
O402 O 0.29268 0.30558 0.34676 0.0
C403 C 0.28751 0.29521 0.30257 0.0
N404 N 0.27825 0.30006 0.3081 0.0
C405 C 0.26514 0.29197 0.27571 0.0
C406 C 0.27449 0.28681 0.26972 0.0
C407 C 0.28574 0.28847 0.28319 0.0
C408 C 0.26745 0.29862 0.2952 0.0
H409 H 0.29621 0.29651 0.31285 0.0
C410 C 0.30574 0.31236 0.35384 0.0
O411 O 0.32891 0.3575 0.347 0.0
O412 O 0.3249 0.34536 0.31754 0.0
N413 N 0.26251 0.31128 0.32035 0.0
C414 C 0.25458 0.31705 0.32836 0.0
C415 C 0.24284 0.31622 0.31687 0.0
C416 C 0.2393 0.30936 0.29737 0.0
C417 C 0.24754 0.3034 0.28953 0.0
C418 C 0.259 0.30439 0.3018 0.0
H419 H 0.25718 0.32225 0.3434 0.0
O420 O 0.30223 0.35194 0.32134 0.0
O421 O 0.29283 0.32805 0.32193 0.0
O422 O 0.29693 0.34013 0.36285 0.0
O423 O 0.27646 0.31856 0.35915 0.0
C424 C 0.24488 0.29659 0.26997 0.0
C425 C 0.25373 0.29094 0.26302 0.0
H426 H 0.27317 0.28162 0.25477 0.0
H427 H 0.29304 0.28457 0.27863 0.0
H428 H 0.23651 0.32083 0.32304 0.0
H429 H 0.23022 0.30872 0.28859 0.0
H430 H 0.23617 0.29576 0.26007 0.0
H431 H 0.25168 0.28587 0.24787 0.0
Mn432 Mn 0.33852 0.03261 0.66897 0.0
Mn433 Mn 0.37047 0.06421 0.66648 0.0
C434 C 0.34137 0.05035 0.64521 0.0
C435 C 0.32327 0.00828 0.65943 0.0
C436 C 0.34812 0.05811 0.69956 0.0
O437 O 0.35243 0.02762 0.6844 0.0
O438 O 0.37307 0.04914 0.68159 0.0
C439 C 0.38592 0.05393 0.63921 0.0
N440 N 0.3812 0.06357 0.64326 0.0
C441 C 0.39288 0.0776 0.61282 0.0
C442 C 0.39795 0.06788 0.60838 0.0
C443 C 0.39438 0.05595 0.62158 0.0
C444 C 0.38443 0.07498 0.63055 0.0
H445 H 0.38326 0.04479 0.64938 0.0
C446 C 0.36601 0.03588 0.68771 0.0
O447 O 0.32148 0.01351 0.67665 0.0
O448 O 0.33413 0.01709 0.64801 0.0
N449 N 0.36994 0.07992 0.65224 0.0
C450 C 0.36354 0.0878 0.6581 0.0
C451 C 0.36561 0.09984 0.64612 0.0
C452 C 0.37446 0.10382 0.62851 0.0
C453 C 0.38113 0.09568 0.62298 0.0
C454 C 0.37859 0.08373 0.63543 0.0
H455 H 0.35685 0.08487 0.67175 0.0
O456 O 0.32853 0.04052 0.65107 0.0
O457 O 0.35228 0.04946 0.65321 0.0
O458 O 0.33894 0.04529 0.69337 0.0
O459 O 0.3602 0.0661 0.69057 0.0
C460 C 0.39004 0.09882 0.60546 0.0
C461 C 0.39581 0.08972 0.60028 0.0
H462 H 0.4045 0.06942 0.59481 0.0
H463 H 0.3982 0.04837 0.61821 0.0
H464 H 0.36044 0.10607 0.6505 0.0
H465 H 0.37601 0.11309 0.61929 0.0
H466 H 0.3924 0.10812 0.59572 0.0
H467 H 0.40243 0.0921 0.58657 0.0
Mn468 Mn 0.97484 0.30824 0.68239 0.0
Mn469 Mn 0.97665 0.27713 0.6861 0.0
C470 C 0.96038 0.2904 0.70581 0.0
C471 C 0.98309 0.3325 0.69157 0.0
C472 C 0.96044 0.28279 0.65149 0.0
O473 O 0.99383 0.31351 0.66783 0.0
O474 O 0.99431 0.2925 0.67221 0.0
C475 C 1.00127 0.2877 0.7159 0.0
N476 N 0.98727 0.27794 0.71071 0.0
C477 C 0.98399 0.26472 0.74259 0.0
C478 C 0.99841 0.27457 0.74822 0.0
C479 C 0.00707 0.28614 0.73484 0.0
C480 C 0.97881 0.26685 0.72354 0.0
H481 H 0.00795 0.29662 0.70567 0.0
C482 C 0.99983 0.30565 0.6657 0.0
O483 O 0.97613 0.32712 0.67426 0.0
O484 O 0.98553 0.32389 0.70335 0.0
N485 N 0.96037 0.26122 0.69921 0.0
C486 C 0.9466 0.25286 0.69168 0.0
C487 C 0.93649 0.24091 0.70331 0.0
C488 C 0.94069 0.23757 0.72242 0.0
C489 C 0.955 0.24616 0.72965 0.0
C490 C 0.96461 0.25789 0.71734 0.0
H491 H 0.94333 0.25533 0.67695 0.0
O492 O 0.95699 0.30009 0.69967 0.0
O493 O 0.97229 0.29157 0.69837 0.0
O494 O 0.96299 0.2953 0.65787 0.0
O495 O 0.96523 0.27522 0.66068 0.0
C496 C 0.96006 0.24364 0.7487 0.0
C497 C 0.97452 0.25296 0.75522 0.0
H498 H 1.00292 0.27341 0.76282 0.0
H499 H 0.01819 0.29382 0.73911 0.0
H500 H 0.92549 0.2343 0.69759 0.0
H501 H 0.93284 0.22842 0.73143 0.0
H502 H 0.95288 0.23465 0.75855 0.0
H503 H 0.97823 0.25102 0.77003 0.0
Mn504 Mn 0.69393 0.66885 0.68035 0.0
Mn505 Mn 0.72621 0.69988 0.68511 0.0
C506 C 0.71087 0.67025 0.7046 0.0
C507 C 0.66948 0.6547 0.68921 0.0
C508 C 0.71907 0.67815 0.65009 0.0
O509 O 0.69038 0.68396 0.66541 0.0
O510 O 0.71177 0.70425 0.67174 0.0
C511 C 0.71795 0.71544 0.71544 0.0
N512 N 0.72666 0.7099 0.70997 0.0
C513 C 0.74062 0.71858 0.74161 0.0
C514 C 0.73185 0.72446 0.74753 0.0
C515 C 0.72045 0.72284 0.73441 0.0
C516 C 0.73764 0.71136 0.72249 0.0
H517 H 0.70916 0.7142 0.70541 0.0
C518 C 0.69877 0.69775 0.6644 0.0
O519 O 0.67438 0.65267 0.67188 0.0
O520 O 0.67868 0.66522 0.70101 0.0
N521 N 0.7412 0.69732 0.69799 0.0
C522 C 0.74811 0.6903 0.69055 0.0
C523 C 0.75953 0.69049 0.70212 0.0
C524 C 0.76382 0.698 0.72111 0.0
C525 C 0.75666 0.70528 0.72834 0.0
C526 C 0.74541 0.70478 0.71608 0.0
H527 H 0.74488 0.68453 0.67594 0.0
O528 O 0.70065 0.65766 0.69816 0.0
O529 O 0.71079 0.68162 0.69682 0.0
O530 O 0.70644 0.66876 0.6563 0.0
O531 O 0.72705 0.69025 0.65936 0.0
C532 C 0.76004 0.71273 0.74746 0.0
C533 C 0.752 0.71936 0.7541 0.0
H534 H 0.7337 0.73011 0.7622 0.0
H535 H 0.71359 0.72728 0.73893 0.0
H536 H 0.76499 0.68483 0.69644 0.0
H537 H 0.77255 0.69801 0.73008 0.0
H538 H 0.76863 0.71322 0.75733 0.0
H539 H 0.75455 0.72486 0.76897 0.0
Mn540 Mn 0.33683 0.31113 0.67152 0.0
Mn541 Mn 0.36907 0.3117 0.67101 0.0
C542 C 0.3402 0.29596 0.64924 0.0
C543 C 0.32136 0.31972 0.66019 0.0
C544 C 0.34643 0.29586 0.7038 0.0
O545 O 0.35036 0.3303 0.68611 0.0
O546 O 0.37113 0.32929 0.68536 0.0
C547 C 0.38449 0.33712 0.64315 0.0
N548 N 0.37996 0.3229 0.64774 0.0
C549 C 0.39197 0.32041 0.61784 0.0
C550 C 0.39684 0.33506 0.61286 0.0
C551 C 0.39303 0.34343 0.62553 0.0
C552 C 0.38345 0.31471 0.63555 0.0
H553 H 0.38162 0.3436 0.65289 0.0
C554 C 0.36383 0.33553 0.69029 0.0
O555 O 0.31953 0.31319 0.67795 0.0
O556 O 0.3324 0.32161 0.64932 0.0
N557 N 0.36906 0.29553 0.65765 0.0
C558 C 0.36284 0.28138 0.664 0.0
C559 C 0.36519 0.27142 0.65261 0.0
C560 C 0.37411 0.27617 0.63506 0.0
C561 C 0.38059 0.29084 0.62903 0.0
C562 C 0.3778 0.30025 0.64093 0.0
H563 H 0.35607 0.27772 0.67759 0.0
O564 O 0.32723 0.29296 0.6546 0.0
O565 O 0.35092 0.3079 0.65689 0.0
O566 O 0.33723 0.29942 0.69696 0.0
O567 O 0.3586 0.29977 0.69516 0.0
C568 C 0.38953 0.29647 0.61151 0.0
C569 C 0.39512 0.31121 0.60582 0.0
H570 H 0.40344 0.33997 0.59929 0.0
H571 H 0.3967 0.35473 0.62174 0.0
H572 H 0.36016 0.26012 0.65737 0.0
H573 H 0.37586 0.26845 0.62627 0.0
H574 H 0.39204 0.28952 0.60215 0.0
H575 H 0.40178 0.31534 0.59212 0.0
Mn576 Mn 0.69607 0.03311 0.68471 0.0
Mn577 Mn 0.72739 0.03231 0.69098 0.0
C578 C 0.71398 0.04948 0.70693 0.0
C579 C 0.67203 0.02489 0.69431 0.0
C580 C 0.72083 0.04565 0.65333 0.0
O581 O 0.69112 0.0133 0.67267 0.0
O582 O 0.71201 0.01331 0.67978 0.0
C583 C 0.71801 0.01036 0.72461 0.0
N584 N 0.72733 0.02397 0.71742 0.0
C585 C 0.74099 0.03043 0.74947 0.0
C586 C 0.73159 0.01645 0.75718 0.0
C587 C 0.72003 0.00638 0.7447 0.0
C588 C 0.73844 0.03377 0.72933 0.0
H589 H 0.70908 0.00261 0.7151 0.0
C590 C 0.69891 0.00713 0.67284 0.0
O591 O 0.67671 0.03053 0.67612 0.0
O592 O 0.68119 0.02366 0.70654 0.0
N593 N 0.74323 0.04991 0.70189 0.0
C594 C 0.75117 0.06302 0.69227 0.0
C595 C 0.76317 0.0743 0.70263 0.0
C596 C 0.76693 0.07196 0.7227 0.0
C597 C 0.75869 0.05834 0.73221 0.0
C598 C 0.74696 0.04745 0.72102 0.0
H599 H 0.74838 0.06488 0.67681 0.0
O600 O 0.70405 0.05216 0.69971 0.0
O601 O 0.71298 0.03722 0.70121 0.0
O602 O 0.70844 0.04346 0.65929 0.0
O603 O 0.72853 0.04151 0.6637 0.0
C604 C 0.76157 0.05517 0.75241 0.0
C605 C 0.75269 0.04125 0.76107 0.0
H606 H 0.73308 0.01335 0.77268 0.0
H607 H 0.71268 0.99559 0.75058 0.0
H608 H 0.76949 0.08478 0.69518 0.0
H609 H 0.77618 0.08069 0.73064 0.0
H610 H 0.7705 0.06341 0.7615 0.0
H611 H 0.75493 0.03899 0.7767 0.0
Mn612 Mn 0.97744 0.67534 0.67124 0.0
Mn613 Mn 0.94521 0.64411 0.66906 0.0
C614 C 0.95974 0.67294 0.64744 0.0
C615 C 1.00166 0.68962 0.66129 0.0
C616 C 0.95343 0.66672 0.70302 0.0
O617 O 0.98156 0.66069 0.6869 0.0
O618 O 0.9602 0.64021 0.68117 0.0
C619 C 0.95199 0.62755 0.63845 0.0
N620 N 0.9436 0.63331 0.64454 0.0
C621 C 0.92741 0.62258 0.61536 0.0
C622 C 0.93584 0.61648 0.6088 0.0
C623 C 0.94823 0.61904 0.62034 0.0
C624 C 0.93176 0.63105 0.63344 0.0
H625 H 0.96145 0.6294 0.64739 0.0
C626 C 0.97331 0.64684 0.68801 0.0
O627 O 0.99695 0.69196 0.67856 0.0
O628 O 0.99241 0.67866 0.65015 0.0
N629 N 0.92973 0.64638 0.65738 0.0
C630 C 0.92341 0.65392 0.66499 0.0
C631 C 0.91124 0.65307 0.65472 0.0
C632 C 0.90556 0.64429 0.63696 0.0
C633 C 0.91218 0.63653 0.62955 0.0
C634 C 0.92437 0.63793 0.64029 0.0
H635 H 0.92764 0.66055 0.67877 0.0
O636 O 0.97003 0.68577 0.65293 0.0
O637 O 0.96019 0.66195 0.65586 0.0
O638 O 0.96556 0.67619 0.69552 0.0
O639 O 0.94537 0.65424 0.69485 0.0
C640 C 0.90725 0.62757 0.61181 0.0
C641 C 0.91492 0.62069 0.60461 0.0
H642 H 0.93295 0.60988 0.59487 0.0
H643 H 0.95482 0.6144 0.61534 0.0
H644 H 0.9062 0.6591 0.66053 0.0
H645 H 0.89616 0.64364 0.62909 0.0
H646 H 0.89773 0.62612 0.60333 0.0
H647 H 0.91121 0.6141 0.59067 0.0
H648 H 0.22792 0.34446 0.14487 0.0
N649 N 0.20812 0.31713 0.13103 0.0
H650 H 0.24164 0.35026 0.17752 0.0
H651 H 0.20394 0.29918 0.16259 0.0
H652 H 0.21732 0.30507 0.19578 0.0
H653 H 0.21539 0.2987 0.11438 0.0
H654 H 0.23533 0.30457 0.09037 0.0
H655 H 0.22285 0.34264 0.10899 0.0
H656 H 0.243 0.34867 0.0855 0.0
H657 H 0.20461 0.34122 0.13009 0.0
H658 H 0.18182 0.29434 0.12687 0.0
H659 H 0.18155 0.34123 0.12821 0.0
H660 H 0.15866 0.29405 0.12637 0.0
H661 H 0.11781 0.33909 0.15317 0.0
H662 H 0.1087 0.343 0.18587 0.0
H663 H 0.08791 0.29683 0.19862 0.0
H664 H 0.09733 0.29304 0.16596 0.0
H665 H 0.08405 0.29855 0.12544 0.0
H666 H 0.07131 0.30691 0.10252 0.0
H667 H 0.11225 0.34509 0.08748 0.0
H668 H 0.12461 0.33714 0.1121 0.0
H669 H 0.13803 0.33467 0.1521 0.0
H670 H 0.16152 0.33627 0.14834 0.0
H671 H 0.14212 0.29837 0.10835 0.0
N672 N 0.11174 0.31279 0.13684 0.0
H673 H 0.11834 0.29627 0.11346 0.0
C674 C 0.21506 0.32127 0.15113 0.0
C675 C 0.22547 0.33578 0.15582 0.0
C676 C 0.2333 0.33911 0.17451 0.0
C677 C 0.23056 0.32809 0.18903 0.0
C678 C 0.21958 0.31375 0.18484 0.0
C679 C 0.21197 0.31038 0.16596 0.0
C680 C 0.21768 0.3202 0.11367 0.0
C681 C 0.22107 0.30949 0.10758 0.0
C682 C 0.23246 0.31287 0.0939 0.0
C683 C 0.2408 0.32712 0.08626 0.0
C684 C 0.23683 0.33763 0.09134 0.0
C685 C 0.22527 0.33417 0.10477 0.0
C686 C 0.19491 0.31773 0.12822 0.0
C687 C 0.19465 0.33093 0.12865 0.0
C688 C 0.18138 0.33088 0.12792 0.0
C689 C 0.1681 0.31763 0.12716 0.0
C690 C 0.16854 0.3045 0.12646 0.0
C691 C 0.18179 0.3046 0.12687 0.0
C692 C 0.10841 0.31575 0.15731 0.0
C693 C 0.11167 0.32988 0.16329 0.0
C694 C 0.10641 0.33209 0.18193 0.0
C695 C 0.09756 0.3202 0.19473 0.0
C696 C 0.09464 0.30616 0.18899 0.0
C697 C 0.10009 0.30399 0.17049 0.0
C698 C 0.10524 0.31711 0.12042 0.0
C699 C 0.09026 0.30863 0.11694 0.0
C700 C 0.08301 0.31344 0.10363 0.0
C701 C 0.09063 0.32677 0.09294 0.0
C702 C 0.10585 0.33494 0.0957 0.0
C703 C 0.11305 0.33029 0.10956 0.0
C704 C 0.1262 0.31505 0.13345 0.0
C705 C 0.1387 0.32662 0.1426 0.0
C706 C 0.15231 0.32765 0.14019 0.0
C707 C 0.15384 0.31735 0.12822 0.0
C708 C 0.1414 0.30628 0.11818 0.0
C709 C 0.12778 0.30512 0.12092 0.0
H710 H 0.70954 0.78946 0.14466 0.0
N711 N 0.69199 0.79812 0.12811 0.0
H712 H 0.70596 0.7755 0.17676 0.0
H713 H 0.67063 0.79155 0.15684 0.0
H714 H 0.6673 0.77804 0.18916 0.0
H715 H 0.66424 0.77609 0.1216 0.0
H716 H 0.65712 0.75528 0.09843 0.0
H717 H 0.70759 0.79662 0.09729 0.0
H718 H 0.70052 0.7761 0.07357 0.0
H719 H 0.71455 0.82479 0.12734 0.0
H720 H 0.66782 0.80128 0.12486 0.0
H721 H 0.71445 0.84788 0.12703 0.0
H722 H 0.66745 0.8243 0.12603 0.0
H723 H 0.7091 0.91911 0.15197 0.0
H724 H 0.70325 0.92812 0.18338 0.0
H725 H 0.66445 0.88649 0.19096 0.0
H726 H 0.67014 0.87762 0.15906 0.0
H727 H 0.66492 0.88643 0.12373 0.0
H728 H 0.65732 0.89971 0.10014 0.0
H729 H 0.70194 0.92752 0.08234 0.0
H730 H 0.70944 0.914 0.10589 0.0
H731 H 0.7108 0.88591 0.15067 0.0
H732 H 0.70996 0.86245 0.14897 0.0
H733 H 0.67184 0.84594 0.10934 0.0
N734 N 0.69293 0.89374 0.13318 0.0
H735 H 0.67227 0.86913 0.11218 0.0
C736 C 0.69051 0.79172 0.1484 0.0
C737 C 0.70044 0.78721 0.15449 0.0
C738 C 0.69834 0.77919 0.1727 0.0
C739 C 0.68636 0.77574 0.18534 0.0
C740 C 0.67669 0.78071 0.17971 0.0
C741 C 0.67863 0.78848 0.16124 0.0
C742 C 0.6865 0.78786 0.1112 0.0
C743 C 0.67207 0.77636 0.11071 0.0
C744 C 0.66803 0.76445 0.09744 0.0
C745 C 0.67833 0.76388 0.0844 0.0
C746 C 0.69241 0.77603 0.08373 0.0
C747 C 0.69643 0.78785 0.09705 0.0
C748 C 0.69126 0.81138 0.12644 0.0
C749 C 0.70425 0.82467 0.12682 0.0
C750 C 0.70413 0.83785 0.1269 0.0
C751 C 0.69093 0.83807 0.12698 0.0
C752 C 0.67784 0.82465 0.12591 0.0
C753 C 0.67801 0.81142 0.12545 0.0
C754 C 0.69015 0.89772 0.15329 0.0
C755 C 0.69948 0.91186 0.16061 0.0
C756 C 0.6961 0.91699 0.17841 0.0
C757 C 0.68341 0.90798 0.18943 0.0
C758 C 0.67433 0.89358 0.18271 0.0
C759 C 0.67759 0.88851 0.16458 0.0
C760 C 0.68777 0.8991 0.11632 0.0
C761 C 0.673 0.89502 0.11421 0.0
C762 C 0.66868 0.90268 0.10078 0.0
C763 C 0.67906 0.91471 0.0895 0.0
C764 C 0.69372 0.91836 0.09095 0.0
C765 C 0.698 0.91056 0.10418 0.0
C766 C 0.69175 0.87949 0.13153 0.0
C767 C 0.70223 0.8772 0.14168 0.0
C768 C 0.70179 0.86377 0.14048 0.0
C769 C 0.69095 0.85224 0.12871 0.0
C770 C 0.6803 0.85447 0.11869 0.0
C771 C 0.68061 0.86789 0.1202 0.0
H772 H 0.12449 0.79004 0.16112 0.0
N773 N 0.10945 0.79913 0.13607 0.0
H774 H 0.11594 0.77656 0.19375 0.0
H775 H 0.08566 0.79349 0.15655 0.0
H776 H 0.07711 0.78029 0.18936 0.0
H777 H 0.08936 0.79593 0.10831 0.0
H778 H 0.07648 0.77572 0.08372 0.0
H779 H 0.11655 0.77802 0.12716 0.0
H780 H 0.10404 0.7581 0.10242 0.0
H781 H 0.13546 0.80155 0.12369 0.0
H782 H 0.11526 0.82599 0.14465 0.0
H783 H 0.15868 0.82395 0.12125 0.0
H784 H 0.13861 0.84842 0.14336 0.0
H785 H 0.22135 0.88289 0.15582 0.0
H786 H 0.23417 0.89233 0.18859 0.0
H787 H 0.2168 0.9217 0.19234 0.0
H788 H 0.20372 0.91197 0.15938 0.0
H789 H 0.21077 0.91563 0.11223 0.0
H790 H 0.23083 0.92819 0.08792 0.0
H791 H 0.24171 0.89395 0.09553 0.0
H792 H 0.22143 0.88133 0.11951 0.0
H793 H 0.20092 0.8648 0.14139 0.0
H794 H 0.1779 0.84206 0.14085 0.0
H795 H 0.15598 0.86563 0.12129 0.0
N796 N 0.20477 0.89231 0.13489 0.0
H797 H 0.17904 0.88846 0.12319 0.0
C798 C 0.10566 0.79274 0.15645 0.0
C799 C 0.11423 0.78809 0.16732 0.0
C800 C 0.10934 0.78043 0.18601 0.0
C801 C 0.09578 0.77725 0.19408 0.0
C802 C 0.08749 0.78235 0.18342 0.0
C803 C 0.09239 0.78999 0.16481 0.0
C804 C 0.10406 0.78869 0.11932 0.0
C805 C 0.09283 0.7879 0.10668 0.0
C806 C 0.08543 0.77631 0.09281 0.0
C807 C 0.08926 0.76534 0.09119 0.0
C808 C 0.10098 0.76649 0.10315 0.0
C809 C 0.10821 0.77796 0.11725 0.0
C810 C 0.12346 0.81208 0.13409 0.0
C811 C 0.13595 0.8117 0.12775 0.0
C812 C 0.14935 0.8246 0.12656 0.0
C813 C 0.15063 0.83813 0.13198 0.0
C814 C 0.13809 0.83835 0.13853 0.0
C815 C 0.12471 0.82551 0.13946 0.0
C816 C 0.21132 0.89656 0.15523 0.0
C817 C 0.21992 0.89106 0.16382 0.0
C818 C 0.22733 0.89652 0.18261 0.0
C819 C 0.22649 0.90775 0.19304 0.0
C820 C 0.21772 0.9131 0.18458 0.0
C821 C 0.21017 0.9075 0.16589 0.0
C822 C 0.2147 0.89768 0.11781 0.0
C823 C 0.21724 0.91065 0.10815 0.0
C824 C 0.22869 0.91779 0.09428 0.0
C825 C 0.23793 0.91212 0.08998 0.0
C826 C 0.23486 0.89865 0.09876 0.0
C827 C 0.22326 0.89142 0.11245 0.0
C828 C 0.19167 0.87844 0.13273 0.0
C829 C 0.1912 0.86513 0.1371 0.0
C830 C 0.17796 0.85203 0.13655 0.0
C831 C 0.16493 0.85192 0.13128 0.0
C832 C 0.16565 0.86524 0.12598 0.0
C833 C 0.17884 0.87831 0.12684 0.0
H834 H 0.34338 0.2256 0.86938 0.0
N835 N 0.31684 0.2071 0.88614 0.0
H836 H 0.34784 0.23922 0.83722 0.0
H837 H 0.29724 0.20492 0.85811 0.0
H838 H 0.30153 0.21919 0.82625 0.0
H839 H 0.30114 0.21738 0.9034 0.0
H840 H 0.3095 0.23784 0.92745 0.0
H841 H 0.34303 0.22001 0.90679 0.0
H842 H 0.35148 0.24032 0.93128 0.0
H843 H 0.33998 0.20293 0.87731 0.0
H844 H 0.29622 0.18173 0.90035 0.0
H845 H 0.34003 0.17988 0.8784 0.0
H846 H 0.29639 0.15864 0.90249 0.0
H847 H 0.34049 0.12693 0.86135 0.0
H848 H 0.34571 0.1192 0.82833 0.0
H849 H 0.3035 0.08036 0.82947 0.0
H850 H 0.29832 0.08839 0.86224 0.0
H851 H 0.29858 0.09072 0.91033 0.0
H852 H 0.30522 0.07694 0.93471 0.0
H853 H 0.35044 0.10489 0.92013 0.0
H854 H 0.34374 0.11835 0.89563 0.0
H855 H 0.3396 0.13783 0.89629 0.0
H856 H 0.34025 0.16122 0.899 0.0
H857 H 0.29515 0.1406 0.87982 0.0
N858 N 0.31603 0.11163 0.88456 0.0
H859 H 0.2945 0.11716 0.878 0.0
C860 C 0.31991 0.21401 0.86602 0.0
C861 C 0.33418 0.22376 0.8598 0.0
C862 C 0.33671 0.23178 0.8415 0.0
C863 C 0.32505 0.23048 0.82918 0.0
C864 C 0.3108 0.22039 0.83516 0.0
C865 C 0.3083 0.21223 0.85337 0.0
C866 C 0.32139 0.21715 0.90332 0.0
C867 C 0.31202 0.22213 0.90986 0.0
C868 C 0.31684 0.23383 0.92364 0.0
C869 C 0.33122 0.24085 0.93122 0.0
C870 C 0.34041 0.23534 0.92547 0.0
C871 C 0.33555 0.22362 0.91162 0.0
C872 C 0.31794 0.19404 0.88844 0.0
C873 C 0.33041 0.19338 0.88282 0.0
C874 C 0.33047 0.18012 0.88365 0.0
C875 C 0.31815 0.16727 0.89032 0.0
C876 C 0.30596 0.16818 0.89679 0.0
C877 C 0.30587 0.18139 0.89576 0.0
C878 C 0.31895 0.10822 0.86417 0.0
C879 C 0.3323 0.11687 0.85434 0.0
C880 C 0.33531 0.11236 0.83552 0.0
C881 C 0.32505 0.09912 0.82625 0.0
C882 C 0.31158 0.09071 0.83596 0.0
C883 C 0.3086 0.09523 0.85471 0.0
C884 C 0.32061 0.1057 0.9014 0.0
C885 C 0.30994 0.09408 0.91284 0.0
C886 C 0.31374 0.08616 0.92657 0.0
C887 C 0.32834 0.08981 0.92927 0.0
C888 C 0.33911 0.10192 0.91857 0.0
C889 C 0.33528 0.10972 0.90462 0.0
C890 C 0.31688 0.12562 0.88716 0.0
C891 C 0.3298 0.13826 0.89294 0.0
C892 C 0.33019 0.15173 0.8943 0.0
C893 C 0.31774 0.15288 0.88971 0.0
C894 C 0.30488 0.14017 0.88393 0.0
C895 C 0.30449 0.12674 0.88274 0.0
H896 H 0.77903 0.12539 0.87108 0.0
N897 N 0.79735 0.11685 0.8883 0.0
H898 H 0.76572 0.11671 0.83814 0.0
H899 H 0.80134 0.1013 0.85943 0.0
H900 H 0.78847 0.09303 0.826 0.0
H901 H 0.79441 0.09322 0.90747 0.0
H902 H 0.77522 0.07747 0.9314 0.0
H903 H 0.7783 0.12359 0.90695 0.0
H904 H 0.75858 0.10762 0.92976 0.0
H905 H 0.79964 0.14367 0.89336 0.0
H906 H 0.8241 0.12108 0.88991 0.0
H907 H 0.82227 0.16699 0.89674 0.0
H908 H 0.84674 0.14419 0.89228 0.0
H909 H 0.88775 0.23012 0.87001 0.0
H910 H 0.89775 0.24185 0.83703 0.0
H911 H 0.91536 0.21298 0.82802 0.0
H912 H 0.90584 0.20176 0.86179 0.0
H913 H 0.91689 0.21637 0.90911 0.0
H914 H 0.93064 0.23713 0.9324 0.0
H915 H 0.89604 0.24761 0.9288 0.0
H916 H 0.88216 0.2265 0.90593 0.0
H917 H 0.86613 0.20611 0.87528 0.0
H918 H 0.84258 0.18392 0.87729 0.0
H919 H 0.86214 0.16348 0.91389 0.0
N920 N 0.89223 0.2094 0.88928 0.0
H921 H 0.88578 0.18545 0.91063 0.0
C922 C 0.79099 0.11375 0.86782 0.0
C923 C 0.7812 0.11838 0.86135 0.0
C924 C 0.77364 0.11346 0.84252 0.0
C925 C 0.77605 0.10416 0.82966 0.0
C926 C 0.78648 0.10025 0.83561 0.0
C927 C 0.7938 0.10493 0.85463 0.0
C928 C 0.78772 0.10946 0.90525 0.0
C929 C 0.78684 0.09657 0.9128 0.0
C930 C 0.77572 0.08751 0.92624 0.0
C931 C 0.76508 0.09105 0.93221 0.0
C932 C 0.76656 0.10449 0.92563 0.0
C933 C 0.77782 0.11365 0.91239 0.0
C934 C 0.81026 0.13064 0.89168 0.0
C935 C 0.80989 0.14373 0.89355 0.0
C936 C 0.82287 0.15707 0.89524 0.0
C937 C 0.83643 0.15757 0.89489 0.0
C938 C 0.8366 0.14434 0.89314 0.0
C939 C 0.82367 0.13108 0.89165 0.0
C940 C 0.8962 0.21512 0.86852 0.0
C941 C 0.89367 0.22622 0.86095 0.0
C942 C 0.89932 0.23287 0.84188 0.0
C943 C 0.90751 0.22848 0.82983 0.0
C944 C 0.90939 0.21687 0.83704 0.0
C945 C 0.90384 0.21032 0.85622 0.0
C946 C 0.89864 0.22002 0.90566 0.0
C947 C 0.91213 0.22292 0.91384 0.0
C948 C 0.91994 0.23476 0.92712 0.0
C949 C 0.91446 0.24405 0.93226 0.0
C950 C 0.90057 0.2407 0.92491 0.0
C951 C 0.89264 0.22867 0.91187 0.0
C952 C 0.87782 0.19731 0.89243 0.0
C953 C 0.86536 0.19688 0.88375 0.0
C954 C 0.85181 0.18416 0.8851 0.0
C955 C 0.85041 0.17172 0.89544 0.0
C956 C 0.8628 0.17263 0.90525 0.0
C957 C 0.87632 0.18522 0.9036 0.0
H958 H 0.79061 0.70821 0.86808 0.0
N959 N 0.79822 0.69006 0.88534 0.0
H960 H 0.77628 0.70438 0.83616 0.0
H961 H 0.79075 0.66796 0.85712 0.0
H962 H 0.7769 0.66437 0.82496 0.0
H963 H 0.77908 0.6615 0.89373 0.0
H964 H 0.75828 0.65267 0.91699 0.0
H965 H 0.7935 0.70561 0.9132 0.0
H966 H 0.77271 0.69691 0.93647 0.0
H967 H 0.82401 0.71353 0.89006 0.0
H968 H 0.80308 0.66674 0.88595 0.0
H969 H 0.84768 0.71491 0.89207 0.0
H970 H 0.82669 0.66796 0.8862 0.0
H971 H 0.9228 0.71166 0.87157 0.0
H972 H 0.93223 0.70701 0.84004 0.0
H973 H 0.8891 0.67209 0.82442 0.0
H974 H 0.88017 0.67605 0.85705 0.0
H975 H 0.89151 0.66901 0.89282 0.0
H976 H 0.90457 0.66194 0.91766 0.0
H977 H 0.92539 0.70538 0.94368 0.0
H978 H 0.91246 0.7124 0.9184 0.0
H979 H 0.88837 0.71527 0.87172 0.0
H980 H 0.86442 0.71318 0.87171 0.0
H981 H 0.84743 0.67211 0.9044 0.0
N982 N 0.89616 0.69663 0.88659 0.0
H983 H 0.8712 0.67384 0.90295 0.0
C984 C 0.79193 0.68853 0.86493 0.0
C985 C 0.78789 0.69877 0.85852 0.0
C986 C 0.77967 0.69654 0.84042 0.0
C987 C 0.77553 0.68408 0.82822 0.0
C988 C 0.7801 0.67412 0.83407 0.0
C989 C 0.78808 0.67621 0.85245 0.0
C990 C 0.78791 0.68424 0.90192 0.0
C991 C 0.77805 0.66923 0.90355 0.0
C992 C 0.76612 0.66421 0.91678 0.0
C993 C 0.76378 0.67413 0.92838 0.0
C994 C 0.77412 0.68904 0.92754 0.0
C995 C 0.78608 0.69401 0.91447 0.0
C996 C 0.81182 0.69013 0.88745 0.0
C997 C 0.82457 0.70356 0.8894 0.0
C998 C 0.83811 0.7043 0.8903 0.0
C999 C 0.83927 0.69157 0.88886 0.0
C1000 C 0.82635 0.67802 0.88746 0.0
C1001 C 0.81276 0.67729 0.88701 0.0
C1002 C 0.9008 0.69438 0.86661 0.0
C1003 C 0.9154 0.70307 0.86122 0.0
C1004 C 0.92073 0.70043 0.843 0.0
C1005 C 0.91149 0.68919 0.82933 0.0
C1006 C 0.8967 0.68067 0.83458 0.0
C1007 C 0.89147 0.68307 0.85316 0.0
C1008 C 0.90109 0.69128 0.90376 0.0
C1009 C 0.89858 0.67688 0.90424 0.0
C1010 C 0.90606 0.67286 0.9185 0.0
C1011 C 0.91618 0.68316 0.9325 0.0
C1012 C 0.91786 0.69726 0.93288 0.0
C1013 C 0.91039 0.70125 0.91862 0.0
C1014 C 0.88174 0.6949 0.88752 0.0
C1015 C 0.87945 0.70582 0.87886 0.0
C1016 C 0.86572 0.70464 0.87908 0.0
C1017 C 0.85387 0.69256 0.88835 0.0
C1018 C 0.85617 0.68152 0.89694 0.0
C1019 C 0.8699 0.68258 0.89633 0.0
H1020 H 0.76393 0.62984 0.49823 0.0
N1021 N 0.77996 0.65001 0.47053 0.0
H1022 H 0.75444 0.6335 0.5309 0.0
H1023 H 0.78753 0.67632 0.48853 0.0
H1024 H 0.77837 0.68007 0.52114 0.0
H1025 H 0.79039 0.67626 0.45074 0.0
H1026 H 0.77645 0.68331 0.42742 0.0
H1027 H 0.75412 0.63259 0.45382 0.0
H1028 H 0.74016 0.63941 0.43022 0.0
H1029 H 0.78503 0.63007 0.4539 0.0
H1030 H 0.80692 0.67372 0.47864 0.0
H1031 H 0.80841 0.6312 0.44897 0.0
H1032 H 0.83029 0.67472 0.47481 0.0
H1033 H 0.88604 0.63628 0.47822 0.0
H1034 H 0.89977 0.64043 0.51036 0.0
H1035 H 0.89351 0.67713 0.52399 0.0
H1036 H 0.88074 0.67347 0.49081 0.0
H1037 H 0.89738 0.67995 0.45498 0.0
H1038 H 0.91803 0.68645 0.43221 0.0
H1039 H 0.89681 0.64242 0.40829 0.0
H1040 H 0.87643 0.63599 0.43158 0.0
H1041 H 0.84924 0.63017 0.46927 0.0
H1042 H 0.82626 0.63026 0.46988 0.0
H1043 H 0.84854 0.67576 0.45218 0.0
N1044 N 0.87544 0.65229 0.46208 0.0
H1045 H 0.87165 0.67559 0.45243 0.0
C1046 C 0.77661 0.65275 0.49109 0.0
C1047 C 0.76736 0.64083 0.50343 0.0
C1048 C 0.76187 0.64294 0.52194 0.0
C1049 C 0.76565 0.65707 0.52854 0.0
C1050 C 0.77541 0.66906 0.51659 0.0
C1051 C 0.78074 0.66692 0.49795 0.0
C1052 C 0.77323 0.65387 0.454 0.0
C1053 C 0.77955 0.66811 0.44601 0.0
C1054 C 0.77156 0.6721 0.43265 0.0
C1055 C 0.75712 0.66195 0.42716 0.0
C1056 C 0.75115 0.64755 0.43441 0.0
C1057 C 0.75914 0.64359 0.44769 0.0
C1058 C 0.79412 0.65163 0.46695 0.0
C1059 C 0.79491 0.63989 0.45831 0.0
C1060 C 0.8083 0.64054 0.45567 0.0
C1061 C 0.82131 0.65297 0.46182 0.0
C1062 C 0.82055 0.66499 0.46979 0.0
C1063 C 0.8071 0.66437 0.47222 0.0
C1064 C 0.88218 0.65436 0.48227 0.0
C1065 C 0.88754 0.64513 0.48828 0.0
C1066 C 0.89532 0.6475 0.50681 0.0
C1067 C 0.89768 0.65904 0.52012 0.0
C1068 C 0.89209 0.66823 0.51414 0.0
C1069 C 0.88458 0.66603 0.49527 0.0
C1070 C 0.88539 0.65744 0.44498 0.0
C1071 C 0.89697 0.67186 0.44431 0.0
C1072 C 0.9088 0.67554 0.43129 0.0
C1073 C 0.90922 0.66487 0.41871 0.0
C1074 C 0.89699 0.65081 0.41812 0.0
C1075 C 0.88523 0.64716 0.43117 0.0
C1076 C 0.86208 0.65277 0.46063 0.0
C1077 C 0.84911 0.64011 0.46533 0.0
C1078 C 0.83596 0.64019 0.46554 0.0
C1079 C 0.83544 0.65299 0.4609 0.0
C1080 C 0.84851 0.66573 0.45599 0.0
C1081 C 0.86174 0.66563 0.45592 0.0
H1082 H 0.37356 0.12678 0.47933 0.0
N1083 N 0.35458 0.13326 0.4621 0.0
H1084 H 0.37119 0.11384 0.51179 0.0
H1085 H 0.33265 0.12502 0.4902 0.0
H1086 H 0.33057 0.11297 0.52334 0.0
H1087 H 0.3273 0.11083 0.45451 0.0
H1088 H 0.3211 0.09052 0.43067 0.0
H1089 H 0.37114 0.13267 0.43198 0.0
H1090 H 0.36501 0.11271 0.40756 0.0
H1091 H 0.37724 0.15976 0.459 0.0
H1092 H 0.33053 0.1366 0.46046 0.0
H1093 H 0.37736 0.18295 0.45828 0.0
H1094 H 0.33043 0.15976 0.46148 0.0
H1095 H 0.37448 0.25431 0.48541 0.0
H1096 H 0.37136 0.26351 0.51843 0.0
H1097 H 0.33157 0.22288 0.5283 0.0
H1098 H 0.33454 0.21413 0.49451 0.0
H1099 H 0.3284 0.22242 0.45982 0.0
H1100 H 0.3203 0.23544 0.4364 0.0
H1101 H 0.36437 0.2623 0.41563 0.0
H1102 H 0.37234 0.24904 0.43891 0.0
H1103 H 0.37524 0.22173 0.48221 0.0
H1104 H 0.37416 0.19818 0.48034 0.0
H1105 H 0.33413 0.18107 0.44485 0.0
N1106 N 0.35653 0.22926 0.46714 0.0
H1107 H 0.33483 0.2044 0.44805 0.0
C1108 C 0.35345 0.12706 0.48243 0.0
C1109 C 0.36424 0.12391 0.48904 0.0
C1110 C 0.36288 0.11657 0.5077 0.0
C1111 C 0.3507 0.11236 0.52041 0.0
C1112 C 0.34 0.11583 0.51391 0.0
C1113 C 0.34128 0.12295 0.49501 0.0
C1114 C 0.34973 0.12317 0.44504 0.0
C1115 C 0.33544 0.11146 0.4439 0.0
C1116 C 0.33193 0.09987 0.43023 0.0
C1117 C 0.34264 0.09985 0.41745 0.0
C1118 C 0.35659 0.1122 0.41751 0.0
C1119 C 0.36009 0.1237 0.43123 0.0
C1120 C 0.35396 0.14654 0.46021 0.0
C1121 C 0.367 0.15975 0.4593 0.0
C1122 C 0.36701 0.17299 0.45916 0.0
C1123 C 0.35391 0.17337 0.46037 0.0
C1124 C 0.34075 0.16 0.46051 0.0
C1125 C 0.34077 0.1467 0.4602 0.0
C1126 C 0.35485 0.23357 0.48764 0.0
C1127 C 0.36518 0.24737 0.49485 0.0
C1128 C 0.36339 0.25254 0.51383 0.0
C1129 C 0.35125 0.24392 0.52625 0.0
C1130 C 0.34097 0.2299 0.51911 0.0
C1131 C 0.3427 0.2248 0.4999 0.0
C1132 C 0.35098 0.23465 0.45084 0.0
C1133 C 0.33622 0.23077 0.44972 0.0
C1134 C 0.33162 0.23825 0.43639 0.0
C1135 C 0.34173 0.24993 0.42429 0.0
C1136 C 0.35637 0.25341 0.42488 0.0
C1137 C 0.36091 0.24577 0.43797 0.0
C1138 C 0.35527 0.21502 0.46521 0.0
C1139 C 0.36621 0.21287 0.47408 0.0
C1140 C 0.36563 0.19938 0.47277 0.0
C1141 C 0.35416 0.18764 0.46211 0.0
C1142 C 0.34308 0.18976 0.45332 0.0
C1143 C 0.34354 0.20325 0.45501 0.0
H1144 H 0.79356 0.11987 0.49253 0.0
N1145 N 0.77899 0.12959 0.46766 0.0
H1146 H 0.78493 0.10668 0.52537 0.0
H1147 H 0.75545 0.1246 0.48825 0.0
H1148 H 0.74658 0.11126 0.52084 0.0
H1149 H 0.7585 0.12622 0.44053 0.0
H1150 H 0.74548 0.10598 0.41607 0.0
H1151 H 0.78642 0.10886 0.45795 0.0
H1152 H 0.7737 0.08885 0.43338 0.0
H1153 H 0.80552 0.13242 0.45766 0.0
H1154 H 0.78383 0.15642 0.47374 0.0
H1155 H 0.82853 0.15516 0.45519 0.0
H1156 H 0.80687 0.17919 0.47233 0.0
H1157 H 0.89262 0.21727 0.48269 0.0
H1158 H 0.90623 0.22547 0.51524 0.0
H1159 H 0.88337 0.24881 0.52971 0.0
H1160 H 0.86923 0.23977 0.49758 0.0
H1161 H 0.88248 0.25127 0.45409 0.0
H1162 H 0.90191 0.26452 0.42952 0.0
H1163 H 0.90409 0.22523 0.41795 0.0
H1164 H 0.88509 0.21233 0.44366 0.0
H1165 H 0.86947 0.19735 0.47643 0.0
H1166 H 0.8469 0.17414 0.47513 0.0
H1167 H 0.82462 0.19604 0.45019 0.0
N1168 N 0.87262 0.22439 0.46785 0.0
H1169 H 0.84715 0.21935 0.45273 0.0
C1170 C 0.77512 0.12324 0.48804 0.0
C1171 C 0.78341 0.11819 0.49878 0.0
C1172 C 0.7784 0.11056 0.51747 0.0
C1173 C 0.76503 0.10786 0.52573 0.0
C1174 C 0.757 0.1133 0.51513 0.0
C1175 C 0.76202 0.12089 0.4965 0.0
C1176 C 0.77357 0.11924 0.45083 0.0
C1177 C 0.7621 0.1183 0.4386 0.0
C1178 C 0.7546 0.10668 0.42482 0.0
C1179 C 0.75855 0.09582 0.42288 0.0
C1180 C 0.77053 0.09715 0.43437 0.0
C1181 C 0.77789 0.10868 0.44836 0.0
C1182 C 0.79283 0.14272 0.46562 0.0
C1183 C 0.80565 0.14256 0.46061 0.0
C1184 C 0.8189 0.15564 0.45939 0.0
C1185 C 0.81966 0.16913 0.46342 0.0
C1186 C 0.80677 0.16914 0.46859 0.0
C1187 C 0.79356 0.15611 0.46958 0.0
C1188 C 0.87971 0.22773 0.48789 0.0
C1189 C 0.89024 0.22379 0.49315 0.0
C1190 C 0.89821 0.22873 0.51167 0.0
C1191 C 0.89603 0.23795 0.52514 0.0
C1192 C 0.88523 0.24157 0.51997 0.0
C1193 C 0.87714 0.23646 0.50159 0.0
C1194 C 0.88228 0.23085 0.4506 0.0
C1195 C 0.88698 0.24548 0.44591 0.0
C1196 C 0.89809 0.25301 0.43172 0.0
C1197 C 0.90471 0.24603 0.42157 0.0
C1198 C 0.89949 0.23109 0.42565 0.0
C1199 C 0.88847 0.22361 0.44016 0.0
C1200 C 0.85995 0.21021 0.46505 0.0
C1201 C 0.85976 0.19721 0.4707 0.0
C1202 C 0.8468 0.18384 0.46975 0.0
C1203 C 0.83378 0.18314 0.46283 0.0
C1204 C 0.83426 0.19612 0.45616 0.0
C1205 C 0.84717 0.20946 0.45738 0.0
H1206 H 0.01144 0.56107 0.20317 0.0
N1207 N 0.98475 0.54128 0.21783 0.0
H1208 H 0.01641 0.57489 0.17095 0.0
H1209 H 0.96583 0.53772 0.18779 0.0
H1210 H 0.97049 0.55205 0.156 0.0
H1211 H 0.96962 0.55386 0.22925 0.0
H1212 H 0.97731 0.57459 0.25219 0.0
H1213 H 0.00877 0.55246 0.24332 0.0
H1214 H 0.01617 0.57252 0.26792 0.0
H1215 H 0.00609 0.53602 0.2026 0.0
H1216 H 0.96786 0.51805 0.24064 0.0
H1217 H 0.00653 0.51332 0.20486 0.0
H1218 H 0.96883 0.49548 0.24433 0.0
H1219 H 0.01136 0.45402 0.20342 0.0
H1220 H 0.01685 0.4459 0.17086 0.0
H1221 H 0.97122 0.42339 0.15466 0.0
H1222 H 0.96588 0.43179 0.18712 0.0
H1223 H 0.96855 0.41807 0.22598 0.0
H1224 H 0.97489 0.40346 0.24841 0.0
H1225 H 0.01267 0.44279 0.27032 0.0
H1226 H 0.00683 0.45707 0.24639 0.0
H1227 H 0.00914 0.47297 0.2193 0.0
H1228 H 0.01043 0.49658 0.22295 0.0
H1229 H 0.96351 0.47494 0.22538 0.0
N1230 N 0.98433 0.44622 0.21775 0.0
H1231 H 0.96253 0.4514 0.22316 0.0
C1232 C 0.98825 0.54818 0.19769 0.0
C1233 C 1.00252 0.55876 0.19264 0.0
C1234 C 0.0053 0.56683 0.17433 0.0
C1235 C 0.99385 0.56475 0.16087 0.0
C1236 C 0.97963 0.55385 0.16575 0.0
C1237 C 0.97691 0.54564 0.18393 0.0
C1238 C 0.98852 0.55154 0.23466 0.0
C1239 C 0.97967 0.55775 0.23798 0.0
C1240 C 0.98411 0.56962 0.25128 0.0
C1241 C 0.99746 0.57547 0.26211 0.0
C1242 C 0.00599 0.56866 0.25959 0.0
C1243 C 1.00167 0.55697 0.24577 0.0
C1244 C 0.98666 0.52873 0.2211 0.0
C1245 C 0.99788 0.52732 0.21175 0.0
C1246 C 0.99822 0.51423 0.21327 0.0
C1247 C 0.98759 0.50232 0.22455 0.0
C1248 C 0.97696 0.50416 0.23496 0.0
C1249 C 0.97647 0.51714 0.23309 0.0
C1250 C 0.98819 0.44362 0.1975 0.0
C1251 C 1.00262 0.44776 0.19255 0.0
C1252 C 0.00572 0.44303 0.17401 0.0
C1253 C 0.99444 0.43393 0.16033 0.0
C1254 C 0.9801 0.43028 0.16501 0.0
C1255 C 0.97705 0.43515 0.18339 0.0
C1256 C 0.98711 0.43866 0.2344 0.0
C1257 C 0.97808 0.42353 0.2359 0.0
C1258 C 0.98173 0.41518 0.24893 0.0
C1259 C 0.99442 0.4218 0.26131 0.0
C1260 C 0.00303 0.43714 0.2607 0.0
C1261 C 0.99956 0.44545 0.24715 0.0
C1262 C 0.98569 0.46034 0.22132 0.0
C1263 C 0.99917 0.47328 0.22115 0.0
C1264 C 0.99986 0.48686 0.22295 0.0
C1265 C 0.98708 0.48784 0.22445 0.0
C1266 C 0.97365 0.47478 0.22477 0.0
C1267 C 0.97301 0.46125 0.22335 0.0
H1268 H 0.58303 0.54515 0.20467 0.0
N1269 N 0.55818 0.53979 0.2216 0.0
H1270 H 0.59345 0.55794 0.17232 0.0
H1271 H 0.54457 0.54838 0.19296 0.0
H1272 H 0.55438 0.5603 0.15988 0.0
H1273 H 0.55382 0.56275 0.2287 0.0
H1274 H 0.5683 0.58313 0.25225 0.0
H1275 H 0.57572 0.54021 0.25167 0.0
H1276 H 0.58993 0.56023 0.27583 0.0
H1277 H 0.55446 0.51326 0.22686 0.0
H1278 H 0.53106 0.53694 0.22233 0.0
H1279 H 0.53164 0.49037 0.22945 0.0
H1280 H 0.50799 0.51399 0.22315 0.0
H1281 H 0.45516 0.41814 0.20902 0.0
H1282 H 0.44069 0.40816 0.17722 0.0
H1283 H 0.44388 0.44987 0.16435 0.0
H1284 H 0.45805 0.45971 0.1966 0.0
H1285 H 0.44287 0.45038 0.23182 0.0
H1286 H 0.42302 0.43745 0.2562 0.0
H1287 H 0.44484 0.41516 0.2813 0.0
H1288 H 0.46445 0.42789 0.25637 0.0
H1289 H 0.49039 0.45078 0.2096 0.0
H1290 H 0.51266 0.4742 0.20901 0.0
H1291 H 0.49105 0.49373 0.24175 0.0
N1292 N 0.46491 0.44453 0.22494 0.0
H1293 H 0.46852 0.47039 0.24088 0.0
C1294 C 0.56299 0.54562 0.20114 0.0
C1295 C 0.57668 0.54828 0.19477 0.0
C1296 C 0.58256 0.55554 0.17616 0.0
C1297 C 0.57477 0.56018 0.16327 0.0
C1298 C 0.56082 0.55713 0.16947 0.0
C1299 C 0.55506 0.55007 0.18832 0.0
C1300 C 0.56383 0.55007 0.23842 0.0
C1301 C 0.56142 0.56201 0.23933 0.0
C1302 C 0.56971 0.57363 0.25284 0.0
C1303 C 0.58048 0.57344 0.26569 0.0
C1304 C 0.58198 0.56089 0.26582 0.0
C1305 C 0.57376 0.54936 0.25225 0.0
C1306 C 0.54443 0.52669 0.22394 0.0
C1307 C 0.54431 0.51344 0.22621 0.0
C1308 C 0.53121 0.50035 0.22744 0.0
C1309 C 0.51782 0.50016 0.226 0.0
C1310 C 0.518 0.51361 0.22435 0.0
C1311 C 0.5312 0.52677 0.22357 0.0
C1312 C 0.45776 0.43964 0.20506 0.0
C1313 C 0.45287 0.42516 0.1992 0.0
C1314 C 0.44458 0.41948 0.18116 0.0
C1315 C 0.44119 0.42827 0.16844 0.0
C1316 C 0.44646 0.44293 0.17389 0.0
C1317 C 0.45455 0.44855 0.19223 0.0
C1318 C 0.45511 0.44 0.24224 0.0
C1319 C 0.44357 0.44302 0.24296 0.0
C1320 C 0.43222 0.43561 0.25697 0.0
C1321 C 0.43221 0.42507 0.27051 0.0
C1322 C 0.44436 0.42298 0.27081 0.0
C1323 C 0.45566 0.43036 0.25677 0.0
C1324 C 0.47783 0.45869 0.22549 0.0
C1325 C 0.49049 0.46014 0.21663 0.0
C1326 C 0.50328 0.47356 0.21652 0.0
C1327 C 0.50387 0.48595 0.22569 0.0
C1328 C 0.49107 0.48453 0.23441 0.0
C1329 C 0.47814 0.47108 0.23413 0.0
H1330 H 0.55357 0.99156 0.20319 0.0
N1331 N 0.55584 0.01662 0.21958 0.0
H1332 H 0.56504 0.98952 0.17209 0.0
H1333 H 0.57108 0.03757 0.19213 0.0
H1334 H 0.58334 0.03576 0.16113 0.0
H1335 H 0.5799 0.03486 0.24007 0.0
H1336 H 0.59363 0.0285 0.26481 0.0
H1337 H 0.54579 0.99001 0.23835 0.0
H1338 H 0.55958 0.98349 0.26281 0.0
H1339 H 0.53235 0.99312 0.20054 0.0
H1340 H 0.54435 0.02968 0.24143 0.0
H1341 H 0.50728 0.98712 0.20191 0.0
H1342 H 0.5188 0.02311 0.24398 0.0
H1343 H 0.42845 0.9684 0.19834 0.0
H1344 H 0.41773 0.97038 0.16554 0.0
H1345 H 0.45127 0.01554 0.16063 0.0
H1346 H 0.46143 0.01358 0.1938 0.0
H1347 H 0.44869 0.01393 0.22719 0.0
H1348 H 0.43178 0.01541 0.25144 0.0
H1349 H 0.41859 0.97169 0.27254 0.0
H1350 H 0.4354 0.9703 0.24817 0.0
H1351 H 0.46116 0.97135 0.21923 0.0
H1352 H 0.48655 0.97736 0.22159 0.0
H1353 H 0.49943 0.02312 0.22628 0.0
N1354 N 0.4506 0.98947 0.21902 0.0
H1355 H 0.47388 0.01674 0.22548 0.0
C1356 C 0.56128 0.01476 0.19998 0.0
C1357 C 0.55979 1.00126 0.194 0.0
C1358 C 0.56658 1.00013 0.17623 0.0
C1359 C 0.57534 0.01251 0.16417 0.0
C1360 C 0.57659 0.02596 0.1699 0.0
C1361 C 0.5696 0.02704 0.18762 0.0
C1362 C 0.56194 0.01295 0.23722 0.0
C1363 C 0.57521 0.02372 0.2455 0.0
C1364 C 0.58302 0.02006 0.25962 0.0
C1365 C 0.57774 0.00547 0.26557 0.0
C1366 C 0.56398 0.9948 0.25831 0.0
C1367 C 0.55608 0.99852 0.24437 0.0
C1368 C 0.54052 0.0121 0.22072 0.0
C1369 C 0.52971 0.99986 0.21003 0.0
C1370 C 0.51513 0.99628 0.21102 0.0
C1371 C 0.51083 0.00457 0.22309 0.0
C1372 C 0.52162 0.01659 0.23419 0.0
C1373 C 0.53625 0.02031 0.2329 0.0
C1374 C 0.44577 0.99073 0.19849 0.0
C1375 C 0.43357 0.97865 0.18998 0.0
C1376 C 0.42751 0.97981 0.17118 0.0
C1377 C 0.43362 0.99314 0.16036 0.0
C1378 C 0.44614 0.00516 0.16865 0.0
C1379 C 0.4521 0.00401 0.18758 0.0
C1380 C 0.44322 0.99192 0.23585 0.0
C1381 C 0.4424 0.0048 0.23737 0.0
C1382 C 0.43266 0.0056 0.25113 0.0
C1383 C 0.42375 0.99363 0.2638 0.0
C1384 C 0.42536 0.98116 0.26316 0.0
C1385 C 0.43496 0.98033 0.24927 0.0
C1386 C 0.46566 0.99356 0.22183 0.0
C1387 C 0.46951 0.98265 0.22101 0.0
C1388 C 0.48407 0.98616 0.22212 0.0
C1389 C 0.49521 1.00079 0.22371 0.0
C1390 C 0.49125 0.01172 0.22518 0.0
C1391 C 0.4766 0.00813 0.22446 0.0
H1392 H 0.41829 0.96622 0.81646 0.0
N1393 N 0.44535 0.98205 0.80346 0.0
H1394 H 0.40769 0.96956 0.84774 0.0
H1395 H 0.46054 1.0003 0.8362 0.0
H1396 H 0.45036 0.00282 0.86834 0.0
H1397 H 0.45216 0.01048 0.79893 0.0
H1398 H 0.44014 0.01954 0.77523 0.0
H1399 H 0.42746 0.96756 0.77235 0.0
H1400 H 0.41516 0.97647 0.74879 0.0
H1401 H 0.45027 0.95995 0.79862 0.0
H1402 H 0.4722 0.00676 0.80345 0.0
H1403 H 0.47358 0.96072 0.79567 0.0
H1404 H 0.49564 0.00768 0.80214 0.0
H1405 H 0.5524 0.96833 0.81321 0.0
H1406 H 0.56593 0.97166 0.84543 0.0
H1407 H 0.55901 0.00755 0.86175 0.0
H1408 H 0.54627 0.00461 0.82864 0.0
H1409 H 0.56161 0.01306 0.79375 0.0
H1410 H 0.58231 0.02253 0.7703 0.0
H1411 H 0.56528 0.97963 0.7434 0.0
H1412 H 0.54451 0.97038 0.76668 0.0
H1413 H 0.51628 0.96402 0.81365 0.0
H1414 H 0.49329 0.96395 0.8149 0.0
H1415 H 0.51283 0.00544 0.78292 0.0
N1416 N 0.54133 0.98435 0.79861 0.0
H1417 H 0.53604 0.00586 0.78317 0.0
C1418 C 0.4402 0.98289 0.82381 0.0
C1419 C 0.42536 0.97412 0.82788 0.0
C1420 C 0.41933 0.97601 0.84595 0.0
C1421 C 0.42808 0.98654 0.86082 0.0
C1422 C 0.44312 0.99487 0.85714 0.0
C1423 C 0.44907 0.99325 0.83872 0.0
C1424 C 0.4408 0.98836 0.78716 0.0
C1425 C 0.44455 0.00314 0.78748 0.0
C1426 C 0.43758 0.00827 0.77403 0.0
C1427 C 0.42663 0.99866 0.76031 0.0
C1428 C 0.42346 0.98407 0.75934 0.0
C1429 C 0.43055 0.97901 0.77259 0.0
C1430 C 0.45945 0.9832 0.80163 0.0
C1431 C 0.46018 0.97039 0.7993 0.0
C1432 C 0.47357 0.97089 0.79782 0.0
C1433 C 0.48667 0.98426 0.79904 0.0
C1434 C 0.48588 0.99717 0.80096 0.0
C1435 C 0.47242 0.99666 0.80197 0.0
C1436 C 0.54817 0.98604 0.81867 0.0
C1437 C 0.55373 0.97682 0.82387 0.0
C1438 C 0.56138 0.97872 0.84241 0.0
C1439 C 0.56349 0.9898 0.85648 0.0
C1440 C 0.55777 0.999 0.85129 0.0
C1441 C 0.55031 0.99723 0.83247 0.0
C1442 C 0.55151 0.99097 0.78192 0.0
C1443 C 0.56209 0.00583 0.78232 0.0
C1444 C 0.574 0.01119 0.76904 0.0
C1445 C 0.57558 1.00179 0.75517 0.0
C1446 C 0.56438 0.98721 0.75374 0.0
C1447 C 0.55248 0.98188 0.76702 0.0
C1448 C 0.52789 0.9848 0.79819 0.0
C1449 C 0.51557 0.9731 0.80693 0.0
C1450 C 0.50236 0.97304 0.80742 0.0
C1451 C 0.50099 0.9846 0.79875 0.0
C1452 C 0.51341 0.99639 0.78998 0.0
C1453 C 0.52675 0.99658 0.7899 0.0
H1454 H 0.97253 0.54311 0.82606 0.0
N1455 N 0.99407 0.54387 0.80447 0.0
H1456 H 0.97432 0.55539 0.85887 0.0
H1457 H 0.01823 0.5572 0.82945 0.0
H1458 H 0.02007 0.56892 0.86269 0.0
H1459 H 0.0174 0.57057 0.79637 0.0
H1460 H 0.01697 0.58941 0.77435 0.0
H1461 H 0.97396 0.53979 0.77631 0.0
H1462 H 0.97362 0.55822 0.7535 0.0
H1463 H 0.97516 0.51585 0.79907 0.0
H1464 H 0.02093 0.54667 0.79981 0.0
H1465 H 0.98024 0.49593 0.79348 0.0
H1466 H 0.02634 0.5268 0.79621 0.0
H1467 H 0.99493 0.43976 0.81221 0.0
H1468 H 0.9932 0.42799 0.84551 0.0
H1469 H 0.03677 0.46167 0.86125 0.0
H1470 H 0.0385 0.47327 0.82749 0.0
H1471 H 0.03647 0.45484 0.78339 0.0
H1472 H 0.03065 0.43445 0.76041 0.0
H1473 H 0.98795 0.42934 0.74946 0.0
H1474 H 0.99368 0.44923 0.77369 0.0
H1475 H 0.99341 0.46221 0.81047 0.0
H1476 H 0.9877 0.48177 0.81055 0.0
H1477 H 0.02697 0.50903 0.77642 0.0
N1478 N 0.01877 0.46388 0.79697 0.0
H1479 H 0.03317 0.48956 0.77802 0.0
C1480 C 0.99516 0.54911 0.82537 0.0
C1481 C 0.98286 0.54849 0.83425 0.0
C1482 C 0.98393 0.5555 0.85305 0.0
C1483 C 0.99738 0.56324 0.86348 0.0
C1484 C 0.00959 0.56328 0.85496 0.0
C1485 C 0.00852 0.55638 0.83602 0.0
C1486 C 0.99557 0.55387 0.78815 0.0
C1487 C 0.00794 0.56776 0.78674 0.0
C1488 C 0.00768 0.57851 0.7741 0.0
C1489 C 0.9951 0.57544 0.76257 0.0
C1490 C 0.98331 0.56109 0.76266 0.0
C1491 C 0.98353 0.55048 0.77544 0.0
C1492 C 0.99764 0.53262 0.80038 0.0
C1493 C 0.98634 0.51824 0.79825 0.0
C1494 C 0.98932 0.50686 0.79527 0.0
C1495 C 0.00375 0.50957 0.79479 0.0
C1496 C 0.01508 0.52416 0.79633 0.0
C1497 C 0.01204 0.53559 0.7988 0.0
C1498 C 0.01693 0.45742 0.81732 0.0
C1499 C 0.00407 0.44471 0.82286 0.0
C1500 C 0.00306 0.43802 0.84201 0.0
C1501 C 0.01487 0.44386 0.85603 0.0
C1502 C 0.02755 0.45679 0.85069 0.0
C1503 C 0.02854 0.46349 0.83151 0.0
C1504 C 0.01563 0.45366 0.78022 0.0
C1505 C 0.02597 0.44949 0.77567 0.0
C1506 C 0.02258 0.4378 0.76239 0.0
C1507 C 0.00876 0.43007 0.75295 0.0
C1508 C 0.99861 0.43478 0.75669 0.0
C1509 C 1.00194 0.44635 0.77035 0.0
C1510 C 0.01396 0.47449 0.79461 0.0
C1511 C 1.00085 0.47236 0.80303 0.0
C1512 C 0.99748 0.48363 0.80282 0.0
C1513 C 0.00691 0.49721 0.79365 0.0
C1514 C 0.0196 0.49896 0.78416 0.0
C1515 C 0.0231 0.48776 0.7848 0.0
H1516 H 0.45215 0.4437 0.82053 0.0
N1517 N 0.44809 0.46613 0.80718 0.0
H1518 H 0.44306 0.42977 0.85237 0.0
H1519 H 0.43477 0.47139 0.83803 0.0
H1520 H 0.42469 0.45688 0.86945 0.0
H1521 H 0.42046 0.45474 0.79589 0.0
H1522 H 0.4067 0.43433 0.77263 0.0
H1523 H 0.45982 0.45438 0.7807 0.0
H1524 H 0.44645 0.43483 0.75584 0.0
H1525 H 0.47327 0.46677 0.82119 0.0
H1526 H 0.45707 0.49098 0.78648 0.0
H1527 H 0.49778 0.48657 0.81759 0.0
H1528 H 0.48198 0.51073 0.78156 0.0
H1529 H 0.57367 0.54762 0.81793 0.0
H1530 H 0.58564 0.56034 0.85023 0.0
H1531 H 0.55396 0.57452 0.85658 0.0
H1532 H 0.5424 0.56229 0.82392 0.0
H1533 H 0.5489 0.57068 0.78505 0.0
H1534 H 0.5645 0.58869 0.75943 0.0
H1535 H 0.58591 0.56338 0.74887 0.0
H1536 H 0.5698 0.54526 0.77368 0.0
H1537 H 0.54221 0.51909 0.79632 0.0
H1538 H 0.51723 0.49896 0.79588 0.0
H1539 H 0.50173 0.53001 0.79814 0.0
N1540 N 0.55127 0.54739 0.79866 0.0
H1541 H 0.52673 0.54996 0.79694 0.0
C1542 C 0.44438 0.45882 0.82707 0.0
C1543 C 0.44656 0.44693 0.83142 0.0
C1544 C 0.44109 0.43878 0.84953 0.0
C1545 C 0.43293 0.44202 0.8635 0.0
C1546 C 0.43106 0.45413 0.8593 0.0
C1547 C 0.43679 0.46245 0.84132 0.0
C1548 C 0.44114 0.45617 0.79007 0.0
C1549 C 0.42621 0.45057 0.78689 0.0
C1550 C 0.41836 0.43888 0.7734 0.0
C1551 C 0.42532 0.43265 0.76226 0.0
C1552 C 0.44053 0.43895 0.76449 0.0
C1553 C 0.44831 0.45039 0.77849 0.0
C1554 C 0.46307 0.47738 0.80439 0.0
C1555 C 0.47488 0.47626 0.81261 0.0
C1556 C 0.48911 0.48767 0.81028 0.0
C1557 C 0.49204 0.5004 0.79926 0.0
C1558 C 0.48024 0.5013 0.79052 0.0
C1559 C 0.46596 0.48995 0.79316 0.0
C1560 C 0.55702 0.55377 0.81867 0.0
C1561 C 0.56925 0.55336 0.82641 0.0
C1562 C 0.5761 0.56068 0.84472 0.0
C1563 C 0.57069 0.56838 0.8558 0.0
C1564 C 0.55825 0.56855 0.84834 0.0
C1565 C 0.55158 0.56148 0.82974 0.0
C1566 C 0.55815 0.55658 0.78106 0.0
C1567 C 0.55661 0.5688 0.77663 0.0
C1568 C 0.56572 0.5792 0.76218 0.0
C1569 C 0.57665 0.57765 0.75212 0.0
C1570 C 0.57754 0.56494 0.75592 0.0
C1571 C 0.56836 0.55453 0.77017 0.0
C1572 C 0.53636 0.53598 0.79705 0.0
C1573 C 0.53337 0.52149 0.79647 0.0
C1574 C 0.51905 0.51 0.79646 0.0
C1575 C 0.5073 0.51273 0.7974 0.0
C1576 C 0.51038 0.52737 0.7973 0.0
C1577 C 0.52475 0.53887 0.79691 0.0
H1578 H 0.69695 0.91165 0.53859 0.0
N1579 N 0.67625 0.88719 0.55513 0.0
H1580 H 0.69581 0.92335 0.50613 0.0
H1581 H 0.65366 0.87619 0.52691 0.0
H1582 H 0.65266 0.8876 0.49424 0.0
H1583 H 0.65202 0.8894 0.56225 0.0
H1584 H 0.65018 0.90558 0.58782 0.0
H1585 H 0.69417 0.90021 0.58681 0.0
H1586 H 0.69243 0.91625 0.61247 0.0
H1587 H 0.69475 0.87714 0.55464 0.0
H1588 H 0.64923 0.86332 0.55902 0.0
H1589 H 0.68925 0.85177 0.55477 0.0
H1590 H 0.64338 0.83778 0.55768 0.0
H1591 H 0.67792 0.78637 0.53233 0.0
H1592 H 0.68173 0.77644 0.5007 0.0
H1593 H 0.63596 0.75691 0.48574 0.0
H1594 H 0.63243 0.76774 0.51716 0.0
H1595 H 0.63516 0.7562 0.56277 0.0
H1596 H 0.64243 0.74279 0.5866 0.0
H1597 H 0.68479 0.78103 0.59336 0.0
H1598 H 0.67752 0.79418 0.56905 0.0
H1599 H 0.67501 0.80707 0.52941 0.0
H1600 H 0.68017 0.83188 0.53283 0.0
H1601 H 0.64369 0.81793 0.57397 0.0
N1602 N 0.65197 0.78247 0.5468 0.0
H1603 H 0.63798 0.7926 0.56942 0.0
C1604 C 0.67555 0.89298 0.53508 0.0
C1605 C 0.68731 0.9063 0.52887 0.0
C1606 C 0.6866 0.91299 0.51047 0.0
C1607 C 0.67414 0.90636 0.49776 0.0
C1608 C 0.66242 0.89287 0.50373 0.0
C1609 C 0.66303 0.88631 0.52238 0.0
C1610 C 0.67332 0.89374 0.57262 0.0
C1611 C 0.66069 0.89494 0.57353 0.0
C1612 C 0.6597 0.90426 0.58804 0.0
C1613 C 0.67121 0.91231 0.60205 0.0
C1614 C 0.68331 0.91014 0.60206 0.0
C1615 C 0.68434 0.90098 0.58743 0.0
C1616 C 0.67243 0.87208 0.55646 0.0
C1617 C 0.68354 0.86855 0.55552 0.0
C1618 C 0.68032 0.85401 0.55537 0.0
C1619 C 0.66582 0.84259 0.55579 0.0
C1620 C 0.65468 0.8462 0.55742 0.0
C1621 C 0.65797 0.86082 0.55796 0.0
C1622 C 0.65485 0.77799 0.52704 0.0
C1623 C 0.66873 0.78024 0.52208 0.0
C1624 C 0.67086 0.77433 0.50403 0.0
C1625 C 0.65913 0.76566 0.49069 0.0
C1626 C 0.6453 0.76365 0.49547 0.0
C1627 C 0.64323 0.7698 0.51343 0.0
C1628 C 0.65573 0.77615 0.5641 0.0
C1629 C 0.64588 0.76177 0.56984 0.0
C1630 C 0.65008 0.75414 0.58348 0.0
C1631 C 0.66427 0.76076 0.59174 0.0
C1632 C 0.67387 0.7755 0.58697 0.0
C1633 C 0.66967 0.78311 0.57324 0.0
C1634 C 0.65588 0.79767 0.54901 0.0
C1635 C 0.66797 0.8091 0.53913 0.0
C1636 C 0.67107 0.82353 0.54131 0.0
C1637 C 0.66242 0.82708 0.55378 0.0
C1638 C 0.65049 0.81568 0.56396 0.0
C1639 C 0.64726 0.80118 0.56151 0.0
H1640 H 0.25375 0.88513 0.5388 0.0
N1641 N 0.22825 0.87632 0.55642 0.0
H1642 H 0.26295 0.8995 0.50695 0.0
H1643 H 0.21256 0.88343 0.52936 0.0
H1644 H 0.22159 0.89748 0.49703 0.0
H1645 H 0.22326 0.89889 0.56439 0.0
H1646 H 0.23768 0.91928 0.5878 0.0
H1647 H 0.24612 0.87701 0.58625 0.0
H1648 H 0.26037 0.89716 0.61022 0.0
H1649 H 0.22133 0.85015 0.54235 0.0
H1650 H 0.2031 0.87357 0.57303 0.0
H1651 H 0.19788 0.82794 0.54323 0.0
H1652 H 0.17971 0.85113 0.57529 0.0
H1653 H 0.12758 0.75819 0.5403 0.0
H1654 H 0.11498 0.74753 0.50768 0.0
H1655 H 0.11266 0.78668 0.49476 0.0
H1656 H 0.12437 0.79672 0.52806 0.0
H1657 H 0.11041 0.78842 0.56379 0.0
H1658 H 0.08973 0.7741 0.58653 0.0
H1659 H 0.11117 0.75101 0.61005 0.0
H1660 H 0.13152 0.76511 0.58679 0.0
H1661 H 0.15916 0.78682 0.56293 0.0
H1662 H 0.18214 0.80964 0.56481 0.0
H1663 H 0.15896 0.83367 0.55753 0.0
N1664 N 0.13281 0.78325 0.55711 0.0
H1665 H 0.13595 0.81063 0.55737 0.0
C1666 C 0.23249 0.88313 0.53632 0.0
C1667 C 0.24662 0.88762 0.52959 0.0
C1668 C 0.25186 0.89586 0.51153 0.0
C1669 C 0.24296 0.89958 0.49966 0.0
C1670 C 0.2286 0.89465 0.50592 0.0
C1671 C 0.22344 0.88661 0.52429 0.0
C1672 C 0.23368 0.88644 0.57356 0.0
C1673 C 0.23103 0.89824 0.57479 0.0
C1674 C 0.23932 0.90991 0.58821 0.0
C1675 C 0.25038 0.90999 0.60067 0.0
C1676 C 0.25216 0.89761 0.60054 0.0
C1677 C 0.2439 0.88599 0.58708 0.0
C1678 C 0.2141 0.86347 0.55783 0.0
C1679 C 0.21226 0.85041 0.54956 0.0
C1680 C 0.19883 0.83766 0.5503 0.0
C1681 C 0.18681 0.83753 0.5597 0.0
C1682 C 0.18862 0.85074 0.56783 0.0
C1683 C 0.20209 0.86362 0.56674 0.0
C1684 C 0.1271 0.77828 0.53654 0.0
C1685 C 0.1245 0.76451 0.53024 0.0
C1686 C 0.11734 0.75848 0.51148 0.0
C1687 C 0.11276 0.76621 0.49838 0.0
C1688 C 0.11578 0.78026 0.50451 0.0
C1689 C 0.12272 0.78616 0.52349 0.0
C1690 C 0.12244 0.77774 0.57362 0.0
C1691 C 0.11079 0.78056 0.57427 0.0
C1692 C 0.09898 0.77234 0.58729 0.0
C1693 C 0.09866 0.7612 0.59987 0.0
C1694 C 0.1109 0.75926 0.60025 0.0
C1695 C 0.12263 0.76742 0.5872 0.0
C1696 C 0.14593 0.79702 0.55957 0.0
C1697 C 0.15909 0.79705 0.56198 0.0
C1698 C 0.17223 0.81015 0.56279 0.0
C1699 C 0.17257 0.82364 0.56078 0.0
C1700 C 0.15923 0.82358 0.55914 0.0
C1701 C 0.14602 0.81038 0.55876 0.0
H1702 H 0.21141 0.33361 0.52656 0.0
N1703 N 0.22579 0.35648 0.55342 0.0
H1704 H 0.22089 0.32997 0.49401 0.0
H1705 H 0.24992 0.37542 0.53439 0.0
H1706 H 0.25938 0.37207 0.50162 0.0
H1707 H 0.24424 0.37211 0.58348 0.0
H1708 H 0.25801 0.36458 0.60632 0.0
H1709 H 0.21994 0.32835 0.55949 0.0
H1710 H 0.23349 0.3207 0.58234 0.0
H1711 H 0.19979 0.33222 0.56334 0.0
H1712 H 0.21976 0.37774 0.54729 0.0
H1713 H 0.17618 0.331 0.56559 0.0
H1714 H 0.19619 0.37654 0.54851 0.0
H1715 H 0.10847 0.32746 0.53984 0.0
H1716 H 0.09422 0.32087 0.50755 0.0
H1717 H 0.12241 0.36398 0.48334 0.0
H1718 H 0.13645 0.37061 0.51594 0.0
H1719 H 0.11622 0.36892 0.5577 0.0
H1720 H 0.09586 0.36189 0.58072 0.0
H1721 H 0.10181 0.32667 0.6046 0.0
H1722 H 0.1214 0.33314 0.58 0.0
H1723 H 0.13442 0.3312 0.54292 0.0
H1724 H 0.15741 0.3311 0.54532 0.0
H1725 H 0.17804 0.3748 0.57057 0.0
N1726 N 0.13041 0.35464 0.55034 0.0
H1727 H 0.15517 0.37504 0.56689 0.0
C1728 C 0.23002 0.35483 0.53288 0.0
C1729 C 0.22179 0.34213 0.52106 0.0
C1730 C 0.22722 0.34008 0.50242 0.0
C1731 C 0.24097 0.35068 0.49529 0.0
C1732 C 0.24888 0.36359 0.50682 0.0
C1733 C 0.24345 0.3656 0.52541 0.0
C1734 C 0.23109 0.35087 0.56978 0.0
C1735 C 0.24155 0.36078 0.58367 0.0
C1736 C 0.24941 0.35644 0.59668 0.0
C1737 C 0.24697 0.34207 0.59594 0.0
C1738 C 0.23577 0.3319 0.58303 0.0
C1739 C 0.22789 0.33624 0.57009 0.0
C1740 C 0.21163 0.35519 0.5554 0.0
C1741 C 0.19914 0.34198 0.56036 0.0
C1742 C 0.18557 0.34127 0.56146 0.0
C1743 C 0.18419 0.3537 0.5574 0.0
C1744 C 0.19677 0.36682 0.55229 0.0
C1745 C 0.21028 0.36753 0.55141 0.0
C1746 C 0.12344 0.34964 0.53034 0.0
C1747 C 0.11172 0.33542 0.52749 0.0
C1748 C 0.10357 0.33168 0.50907 0.0
C1749 C 0.10716 0.34197 0.49306 0.0
C1750 C 0.11946 0.35583 0.49541 0.0
C1751 C 0.12747 0.35963 0.51396 0.0
C1752 C 0.12041 0.35167 0.56714 0.0
C1753 C 0.11326 0.35983 0.56819 0.0
C1754 C 0.1016 0.35579 0.58155 0.0
C1755 C 0.09695 0.3436 0.5947 0.0
C1756 C 0.10473 0.3359 0.59445 0.0
C1757 C 0.11618 0.33974 0.5806 0.0
C1758 C 0.14317 0.35331 0.55432 0.0
C1759 C 0.14388 0.34074 0.54901 0.0
C1760 C 0.15707 0.34066 0.55058 0.0
C1761 C 0.16975 0.35305 0.55779 0.0
C1762 C 0.16868 0.36521 0.56434 0.0
C1763 C 0.15557 0.36534 0.56249 0.0
H1764 H 0.989 0.38108 0.05331 0.0
H1765 H 0.03483 0.41158 0.06054 0.0
H1766 H 0.98389 0.39202 0.08291 0.0
H1767 H 0.02982 0.42211 0.09068 0.0
H1768 H 0.01528 0.44777 0.13089 0.0
H1769 H 0.02018 0.43693 0.1008 0.0
H1770 H 0.98564 0.39443 0.11909 0.0
H1771 H 0.98046 0.40543 0.14855 0.0
C1772 C 0.99801 0.38998 0.06141 0.0
C1773 C 0.01232 0.39545 0.05452 0.0
C1774 C 0.99509 0.39625 0.07847 0.0
C1775 C 0.00643 0.40801 0.08927 0.0
C1776 C 0.02077 0.41329 0.08255 0.0
C1777 C 0.02366 0.40716 0.06533 0.0
C1778 C 0.00875 0.43612 0.12837 0.0
C1779 C 0.99744 0.42746 0.14194 0.0
C1780 C 0.01159 0.42986 0.11122 0.0
C1781 C 0.00332 0.41475 0.10742 0.0
C1782 C 0.99206 0.40612 0.12118 0.0
C1783 C 0.9891 0.41241 0.13813 0.0
H1784 H 0.6388 0.6174 0.07571 0.0
H1785 H 0.59863 0.60765 0.04487 0.0
H1786 H 0.62515 0.60157 0.10469 0.0
H1787 H 0.58492 0.59222 0.07426 0.0
H1788 H 0.57166 0.5825 0.14601 0.0
H1789 H 0.58377 0.59716 0.11553 0.0
H1790 H 0.60588 0.57254 0.10696 0.0
H1791 H 0.59324 0.55724 0.13653 0.0
C1792 C 0.62704 0.61167 0.07505 0.0
C1793 C 0.61971 0.61314 0.05773 0.0
C1794 C 0.61925 0.60276 0.09165 0.0
C1795 C 0.604 0.59557 0.09152 0.0
C1796 C 0.59668 0.59759 0.07463 0.0
C1797 C 0.60448 0.60634 0.05786 0.0
C1798 C 0.57881 0.57992 0.1374 0.0
C1799 C 0.58148 0.56866 0.14396 0.0
C1800 C 0.58582 0.58841 0.12001 0.0
C1801 C 0.59584 0.58602 0.10907 0.0
C1802 C 0.59835 0.57469 0.11532 0.0
C1803 C 0.59115 0.566 0.13239 0.0
H1804 H 0.37947 0.01048 0.07612 0.0
H1805 H 0.39287 0.98573 0.03828 0.0
H1806 H 0.39416 0.00961 0.10501 0.0
H1807 H 0.40815 0.98531 0.06676 0.0
H1808 H 0.42023 0.97308 0.12916 0.0
H1809 H 0.40674 0.97469 0.09945 0.0
H1810 H 0.41806 0.01851 0.11747 0.0
H1811 H 0.43072 0.01653 0.14793 0.0
C1812 C 0.38586 0.00513 0.07394 0.0
C1813 C 0.38548 0.99856 0.05492 0.0
C1814 C 0.3943 0.00463 0.09043 0.0
C1815 C 0.4025 0.9975 0.08823 0.0
C1816 C 0.40191 0.99078 0.06914 0.0
C1817 C 0.39328 0.99111 0.05276 0.0
C1818 C 0.41977 0.98303 0.12688 0.0
C1819 C 0.42651 0.99462 0.1411 0.0
C1820 C 0.41218 0.98404 0.10962 0.0
C1821 C 0.41124 0.99673 0.106 0.0
C1822 C 0.41835 0.00849 0.11988 0.0
C1823 C 0.42583 0.00743 0.13724 0.0
H1824 H 0.37987 0.98112 0.97358 0.0
H1825 H 0.3976 0.02559 0.95287 0.0
H1826 H 0.39127 0.97603 0.94468 0.0
H1827 H 0.40804 0.02036 0.92288 0.0
H1828 H 0.43716 0.01233 0.88197 0.0
H1829 H 0.42626 0.01679 0.91171 0.0
H1830 H 0.39179 0.97183 0.91036 0.0
H1831 H 0.40371 0.96694 0.88231 0.0
C1832 C 0.38594 0.98971 0.96247 0.0
C1833 C 0.38786 0.00373 0.96538 0.0
C1834 C 0.39245 0.9868 0.94577 0.0
C1835 C 0.40072 0.99776 0.93123 0.0
C1836 C 0.40217 0.01169 0.93392 0.0
C1837 C 0.39602 0.01469 0.95098 0.0
C1838 C 0.42748 0.00324 0.8883 0.0
C1839 C 0.42143 0.98923 0.87948 0.0
C1840 C 0.42097 0.00591 0.90521 0.0
C1841 C 0.40793 0.99476 0.91353 0.0
C1842 C 0.40189 0.98074 0.90474 0.0
C1843 C 0.40863 0.97797 0.88822 0.0
H1844 H 0.02103 0.38533 0.94508 0.0
H1845 H 0.99662 0.40147 0.97802 0.0
H1846 H 0.0229 0.40055 0.91528 0.0
H1847 H 0.99878 0.41712 0.94847 0.0
H1848 H 0.99207 0.43044 0.88288 0.0
H1849 H 0.99037 0.41598 0.91346 0.0
H1850 H 0.03452 0.42535 0.9042 0.0
H1851 H 0.03603 0.43936 0.87331 0.0
C1852 C 0.0163 0.39239 0.94599 0.0
C1853 C 0.00912 0.39268 0.96396 0.0
C1854 C 0.01736 0.4011 0.92898 0.0
C1855 C 0.01114 0.41022 0.92954 0.0
C1856 C 0.00363 0.41019 0.94745 0.0
C1857 C 1.00247 0.40135 0.96441 0.0
C1858 C 1.00141 0.4294 0.8874 0.0
C1859 C 0.01418 0.43604 0.87562 0.0
C1860 C 1.00049 0.42124 0.90507 0.0
C1861 C 0.01232 0.41949 0.91135 0.0
C1862 C 0.02517 0.42637 0.89977 0.0
C1863 C 0.02609 0.43454 0.88215 0.0
H1864 H 0.60873 0.58617 0.97743 0.0
H1865 H 0.62489 0.62967 0.95297 0.0
H1866 H 0.59413 0.57598 0.94604 0.0
H1867 H 0.61049 0.61931 0.92116 0.0
H1868 H 0.59907 0.58913 0.86018 0.0
H1869 H 0.61197 0.60146 0.89217 0.0
H1870 H 0.57226 0.5776 0.92652 0.0
H1871 H 0.55927 0.56552 0.89438 0.0
C1872 C 0.60913 0.59357 0.96541 0.0
C1873 C 0.61797 0.60875 0.96772 0.0
C1874 C 0.60071 0.58772 0.94749 0.0
C1875 C 0.60119 0.59688 0.93127 0.0
C1876 C 0.60996 0.61204 0.9335 0.0
C1877 C 0.61814 0.61795 0.95169 0.0
C1878 C 0.5931 0.58666 0.87455 0.0
C1879 C 0.57822 0.57638 0.87492 0.0
C1880 C 0.60044 0.59375 0.89277 0.0
C1881 C 0.59308 0.59045 0.91173 0.0
C1882 C 0.57815 0.5803 0.91206 0.0
C1883 C 0.57074 0.57344 0.89374 0.0
H1884 H 0.99013 0.59801 0.98352 0.0
H1885 H 0.01278 0.63535 0.94368 0.0
H1886 H 0.98992 0.58207 0.95594 0.0
H1887 H 0.01205 0.61953 0.91563 0.0
H1888 H 0.01999 0.59004 0.87452 0.0
H1889 H 0.02169 0.60502 0.90402 0.0
H1890 H 0.97914 0.57189 0.92388 0.0
H1891 H 0.97789 0.55647 0.89515 0.0
C1892 C 0.99508 0.60275 0.96878 0.0
C1893 C 1.00192 0.61787 0.96582 0.0
C1894 C 0.99486 0.59365 0.95291 0.0
C1895 C 1.00106 0.59947 0.9335 0.0
C1896 C 0.00751 0.61465 0.93047 0.0
C1897 C 0.00792 0.62374 0.94648 0.0
C1898 C 0.01114 0.58576 0.88543 0.0
C1899 C 0.99879 0.57199 0.88235 0.0
C1900 C 0.01201 0.59449 0.90224 0.0
C1901 C 1.00051 0.58978 0.91634 0.0
C1902 C 0.9883 0.57587 0.91352 0.0
C1903 C 0.98748 0.56708 0.89682 0.0
H1904 H 0.37995 0.39632 0.97102 0.0
H1905 H 0.40875 0.37865 0.96288 0.0
H1906 H 0.39072 0.41213 0.94082 0.0
H1907 H 0.4193 0.39428 0.93263 0.0
H1908 H 0.42115 0.4123 0.86616 0.0
H1909 H 0.41002 0.39663 0.89603 0.0
H1910 H 0.41669 0.43387 0.93199 0.0
H1911 H 0.42852 0.44981 0.90242 0.0
C1912 C 0.38847 0.39571 0.96269 0.0
C1913 C 0.39348 0.38621 0.96932 0.0
C1914 C 0.39469 0.40483 0.94553 0.0
C1915 C 0.40584 0.40441 0.93445 0.0
C1916 C 0.41066 0.39475 0.94084 0.0
C1917 C 0.40465 0.38585 0.95819 0.0
C1918 C 0.42054 0.41727 0.88049 0.0
C1919 C 0.42593 0.43243 0.88181 0.0
C1920 C 0.41404 0.40823 0.89756 0.0
C1921 C 0.4125 0.41404 0.91628 0.0
C1922 C 0.41762 0.4291 0.91763 0.0
C1923 C 0.42436 0.43821 0.90064 0.0
H1924 H 0.60974 0.01499 0.97658 0.0
H1925 H 0.62164 0.98557 0.9479 0.0
H1926 H 0.59412 0.01242 0.94656 0.0
H1927 H 0.606 0.98282 0.9181 0.0
H1928 H 0.56417 0.9687 0.88086 0.0
H1929 H 0.57944 0.97197 0.91092 0.0
H1930 H 0.59651 0.01849 0.90812 0.0
H1931 H 0.58191 0.01542 0.87698 0.0
C1932 C 0.6089 0.0079 0.96388 0.0
C1933 C 0.61637 1.00001 0.96479 0.0
C1934 C 0.60005 0.00649 0.94672 0.0
C1935 C 0.59869 0.99728 0.9301 0.0
C1936 C 0.60657 0.98976 0.93084 0.0
C1937 C 0.61545 0.99125 0.94791 0.0
C1938 C 0.57128 0.97968 0.88638 0.0
C1939 C 0.57187 0.9918 0.87616 0.0
C1940 C 0.57994 0.98152 0.90383 0.0
C1941 C 0.58914 0.99546 0.91197 0.0
C1942 C 0.5894 0.00758 0.90232 0.0
C1943 C 0.58096 0.00578 0.88451 0.0
H1944 H 0.60018 0.97609 0.06425 0.0
H1945 H 0.62827 0.02228 0.05439 0.0
H1946 H 0.5904 0.98129 0.09504 0.0
H1947 H 0.61828 0.02746 0.08535 0.0
H1948 H 0.58068 0.02665 0.12645 0.0
H1949 H 0.59292 0.0236 0.09646 0.0
H1950 H 0.60014 0.99244 0.13078 0.0
H1951 H 0.58844 0.99578 0.1609 0.0
C1952 C 0.6043 0.98737 0.06867 0.0
C1953 C 0.61503 0.99877 0.05686 0.0
C1954 C 0.59873 0.99033 0.08637 0.0
C1955 C 0.6036 0.00477 0.09259 0.0
C1956 C 0.6143 0.01623 0.08083 0.0
C1957 C 0.62007 0.01325 0.06322 0.0
C1958 C 0.58509 0.01933 0.12775 0.0
C1959 C 0.58335 0.01131 0.14607 0.0
C1960 C 0.59208 0.01759 0.11055 0.0
C1961 C 0.59735 0.00768 0.11126 0.0
C1962 C 0.59597 0.99997 0.1297 0.0
C1963 C 0.58916 1.00183 0.14691 0.0
H1964 H 0.03162 0.6274 0.06029 0.0
H1965 H 0.98551 0.61166 0.05451 0.0
H1966 H 0.0273 0.61183 0.09056 0.0
H1967 H 0.98123 0.59599 0.08477 0.0
H1968 H 0.98035 0.55753 0.12254 0.0
H1969 H 0.98432 0.57363 0.09301 0.0
H1970 H 0.01778 0.60979 0.12754 0.0
H1971 H 0.0135 0.59395 0.15738 0.0
C1972 C 0.02057 0.62067 0.06552 0.0
C1973 C 0.00891 0.6208 0.05499 0.0
C1974 C 0.01811 0.6118 0.0829 0.0
C1975 C 0.00393 0.60268 0.08995 0.0
C1976 C 0.99227 0.60284 0.07954 0.0
C1977 C 0.99474 0.61189 0.06233 0.0
C1978 C 0.98844 0.56894 0.12399 0.0
C1979 C 0.99661 0.57437 0.14243 0.0
C1980 C 0.99072 0.57814 0.10703 0.0
C1981 C 1.00135 0.59294 0.10801 0.0
C1982 C 0.00962 0.59838 0.12629 0.0
C1983 C 0.00721 0.58924 0.14334 0.0
H1984 H 0.38224 0.36613 0.07869 0.0
H1985 H 0.3957 0.40721 0.04808 0.0
H1986 H 0.39682 0.37882 0.10905 0.0
H1987 H 0.4099 0.4202 0.0789 0.0
H1988 H 0.44664 0.43744 0.12812 0.0
H1989 H 0.43139 0.42557 0.09762 0.0
H1990 H 0.39868 0.39311 0.13747 0.0
H1991 H 0.41429 0.40457 0.16754 0.0
C1992 C 0.38842 0.37794 0.07854 0.0
C1993 C 0.38842 0.38573 0.06087 0.0
C1994 C 0.39658 0.38526 0.09606 0.0
C1995 C 0.40468 0.4006 0.09648 0.0
C1996 C 0.4041 0.4084 0.07899 0.0
C1997 C 0.39593 0.40101 0.0614 0.0
C1998 C 0.43615 0.4278 0.13022 0.0
C1999 C 0.43165 0.42182 0.15007 0.0
C2000 C 0.42736 0.42103 0.11281 0.0
C2001 C 0.41379 0.40829 0.11499 0.0
C2002 C 0.40918 0.40266 0.13505 0.0
C2003 C 0.41806 0.40926 0.15233 0.0
H2004 H 0.6518 0.71292 0.38187 0.0
H2005 H 0.69777 0.74208 0.39125 0.0
H2006 H 0.64662 0.72354 0.41208 0.0
H2007 H 0.69254 0.75251 0.42145 0.0
H2008 H 0.67711 0.75394 0.48767 0.0
H2009 H 0.6815 0.74295 0.45748 0.0
H2010 H 0.65005 0.74908 0.42212 0.0
H2011 H 0.64601 0.76071 0.4521 0.0
C2012 C 0.66079 0.72152 0.39042 0.0
C2013 C 0.6752 0.72663 0.38418 0.0
C2014 C 0.65781 0.72765 0.4076 0.0
C2015 C 0.66918 0.73882 0.41907 0.0
C2016 C 0.68357 0.74384 0.41295 0.0
C2017 C 0.68655 0.73789 0.39561 0.0
C2018 C 0.67127 0.7532 0.47341 0.0
C2019 C 0.66133 0.75843 0.47233 0.0
C2020 C 0.67373 0.7468 0.45616 0.0
C2021 C 0.66616 0.74523 0.43748 0.0
C2022 C 0.65596 0.75008 0.43642 0.0
C2023 C 0.65363 0.7567 0.45362 0.0
H2024 H 0.26244 0.9451 0.37982 0.0
H2025 H 0.30367 0.95835 0.40988 0.0
H2026 H 0.24981 0.93121 0.41077 0.0
H2027 H 0.29133 0.94409 0.44036 0.0
H2028 H 0.26657 0.92655 0.49895 0.0
H2029 H 0.27755 0.94229 0.46906 0.0
H2030 H 0.24447 0.90964 0.42915 0.0
H2031 H 0.23308 0.89428 0.4595 0.0
C2032 C 0.26875 0.94491 0.39306 0.0
C2033 C 0.28396 0.95225 0.39232 0.0
C2034 C 0.26157 0.93691 0.41073 0.0
C2035 C 0.2695 0.93633 0.42808 0.0
C2036 C 0.28478 0.94433 0.42749 0.0
C2037 C 0.2919 0.95231 0.4099 0.0
C2038 C 0.26163 0.92284 0.48376 0.0
C2039 C 0.24905 0.90923 0.48143 0.0
C2040 C 0.26796 0.93179 0.46658 0.0
C2041 C 0.26202 0.92723 0.44655 0.0
C2042 C 0.24924 0.91365 0.44432 0.0
C2043 C 0.24275 0.90479 0.46164 0.0
H2044 H 0.06079 0.32002 0.37348 0.0
H2045 H 0.04453 0.3436 0.40844 0.0
H2046 H 0.07635 0.32152 0.40305 0.0
H2047 H 0.05989 0.34501 0.43805 0.0
H2048 H 0.07791 0.33094 0.4931 0.0
H2049 H 0.06191 0.32742 0.46342 0.0
H2050 H 0.09837 0.3423 0.42219 0.0
H2051 H 0.11445 0.34603 0.45199 0.0
C2052 C 0.06062 0.32555 0.38751 0.0
C2053 C 0.05193 0.33214 0.38861 0.0
C2054 C 0.06948 0.32642 0.40436 0.0
C2055 C 0.06937 0.33345 0.42277 0.0
C2056 C 0.06016 0.33949 0.42407 0.0
C2057 C 0.05151 0.33883 0.40712 0.0
C2058 C 0.08246 0.33329 0.47767 0.0
C2059 C 0.0974 0.33873 0.4748 0.0
C2060 C 0.07334 0.33139 0.46073 0.0
C2061 C 0.07893 0.33469 0.44055 0.0
C2062 C 0.09379 0.33969 0.43759 0.0
C2063 C 0.10298 0.34185 0.45459 0.0
H2064 H 0.07254 0.35897 0.29312 0.0
H2065 H 0.04263 0.31287 0.29977 0.0
H2066 H 0.08368 0.35402 0.26381 0.0
H2067 H 0.0542 0.3078 0.27097 0.0
H2068 H 0.06909 0.30491 0.20569 0.0
H2069 H 0.05736 0.3094 0.23485 0.0
H2070 H 0.09897 0.34472 0.25515 0.0
H2071 H 0.11049 0.34052 0.22543 0.0
C2072 C 0.06838 0.34775 0.28838 0.0
C2073 C 0.05667 0.33632 0.29879 0.0
C2074 C 0.07487 0.34489 0.27164 0.0
C2075 C 0.06998 0.33049 0.26503 0.0
C2076 C 0.05817 0.31905 0.27537 0.0
C2077 C 0.05154 0.32194 0.29197 0.0
C2078 C 0.07571 0.31355 0.21652 0.0
C2079 C 0.09069 0.32238 0.21331 0.0
C2080 C 0.06901 0.31611 0.23329 0.0
C2081 C 0.07716 0.32748 0.24742 0.0
C2082 C 0.09224 0.33609 0.24439 0.0
C2083 C 0.0989 0.33364 0.22744 0.0
H2084 H 0.68612 0.71451 0.27604 0.0
H2085 H 0.65869 0.72923 0.30352 0.0
H2086 H 0.68947 0.72968 0.24573 0.0
H2087 H 0.66132 0.74398 0.27268 0.0
H2088 H 0.68229 0.78111 0.22543 0.0
H2089 H 0.67813 0.76544 0.25566 0.0
H2090 H 0.67891 0.73284 0.21601 0.0
H2091 H 0.68389 0.74891 0.18626 0.0
C2092 C 0.68083 0.72108 0.2755 0.0
C2093 C 0.6727 0.72129 0.29234 0.0
C2094 C 0.68252 0.72959 0.25798 0.0
C2095 C 0.6758 0.73825 0.25673 0.0
C2096 C 0.667 0.7378 0.27329 0.0
C2097 C 0.66539 0.7293 0.29088 0.0
C2098 C 0.68159 0.77059 0.22333 0.0
C2099 C 0.68352 0.76622 0.20365 0.0
C2100 C 0.67908 0.76154 0.24057 0.0
C2101 C 0.67817 0.74782 0.23837 0.0
C2102 C 0.67986 0.74343 0.21848 0.0
C2103 C 0.68264 0.75258 0.20138 0.0
H2104 H 0.27561 0.96225 0.29882 0.0
H2105 H 0.28533 0.92695 0.29783 0.0
H2106 H 0.25946 0.95166 0.26896 0.0
H2107 H 0.26964 0.91668 0.26758 0.0
H2108 H 0.22962 0.89358 0.22666 0.0
H2109 H 0.24491 0.90427 0.25733 0.0
H2110 H 0.25897 0.94741 0.23277 0.0
H2111 H 0.24333 0.93665 0.20243 0.0
C2112 C 0.27444 0.95232 0.29211 0.0
C2113 C 0.28178 0.94546 0.30078 0.0
C2114 C 0.2652 0.94626 0.27491 0.0
C2115 C 0.26316 0.93326 0.26583 0.0
C2116 C 0.27068 0.92653 0.27437 0.0
C2117 C 0.27979 0.9325 0.29166 0.0
C2118 C 0.23596 0.90534 0.22788 0.0
C2119 C 0.23528 0.91427 0.21216 0.0
C2120 C 0.2448 0.91149 0.2454 0.0
C2121 C 0.2533 0.92673 0.24753 0.0
C2122 C 0.25244 0.93565 0.23186 0.0
C2123 C 0.24349 0.92949 0.21443 0.0
H2124 H 0.68294 0.96994 0.27518 0.0
H2125 H 0.65745 0.92931 0.30736 0.0
H2126 H 0.68479 0.95689 0.24541 0.0
H2127 H 0.65863 0.91593 0.27712 0.0
H2128 H 0.67968 0.89914 0.22993 0.0
H2129 H 0.67517 0.91089 0.25941 0.0
H2130 H 0.6728 0.94185 0.21743 0.0
H2131 H 0.67812 0.93057 0.18843 0.0
C2132 C 0.67774 0.95815 0.27578 0.0
C2133 C 0.67062 0.95061 0.29375 0.0
C2134 C 0.67855 0.95061 0.25859 0.0
C2135 C 0.67197 0.93529 0.25883 0.0
C2136 C 0.66414 0.92772 0.27654 0.0
C2137 C 0.66337 0.93533 0.2938 0.0
C2138 C 0.67809 0.9084 0.22716 0.0
C2139 C 0.67934 0.91407 0.20707 0.0
C2140 C 0.67542 0.9151 0.24397 0.0
C2141 C 0.67372 0.92743 0.24089 0.0
C2142 C 0.67441 0.93264 0.22054 0.0
C2143 C 0.67734 0.92613 0.20388 0.0
H2144 H 0.08271 0.72289 0.30257 0.0
H2145 H 0.04287 0.72473 0.29741 0.0
H2146 H 0.09214 0.73853 0.2723 0.0
H2147 H 0.0525 0.74069 0.26735 0.0
H2148 H 0.0681 0.75524 0.20079 0.0
H2149 H 0.05857 0.74 0.2315 0.0
H2150 H 0.10082 0.76334 0.26105 0.0
H2151 H 0.11038 0.77856 0.23019 0.0
C2152 C 0.07595 0.72665 0.29505 0.0
C2153 C 0.06197 0.72246 0.30247 0.0
C2154 C 0.08143 0.73574 0.27775 0.0
C2155 C 0.0731 0.74091 0.26739 0.0
C2156 C 0.05914 0.73676 0.2748 0.0
C2157 C 0.05364 0.72765 0.29211 0.0
C2158 C 0.07532 0.75724 0.21393 0.0
C2159 C 0.09 0.76816 0.21305 0.0
C2160 C 0.06985 0.74849 0.23156 0.0
C2161 C 0.07891 0.75044 0.24878 0.0
C2162 C 0.09358 0.7614 0.24795 0.0
C2163 C 0.09907 0.77014 0.23028 0.0
H2164 H 0.29135 0.32723 0.27754 0.0
H2165 H 0.27363 0.35008 0.31108 0.0
H2166 H 0.27673 0.32585 0.247 0.0
H2167 H 0.2587 0.34847 0.28058 0.0
H2168 H 0.22189 0.32226 0.22937 0.0
H2169 H 0.23725 0.32633 0.2602 0.0
H2170 H 0.27526 0.34456 0.22159 0.0
H2171 H 0.25996 0.34089 0.19089 0.0
C2172 C 0.28422 0.33186 0.27834 0.0
C2173 C 0.28322 0.33838 0.29669 0.0
C2174 C 0.27599 0.3312 0.26087 0.0
C2175 C 0.26656 0.337 0.26152 0.0
C2176 C 0.26579 0.34381 0.27979 0.0
C2177 C 0.27429 0.34473 0.29715 0.0
C2178 C 0.23354 0.32727 0.22759 0.0
C2179 C 0.23978 0.3313 0.20785 0.0
C2180 C 0.24231 0.32961 0.24517 0.0
C2181 C 0.2574 0.33566 0.24321 0.0
C2182 C 0.26364 0.33982 0.22348 0.0
C2183 C 0.25492 0.33779 0.20598 0.0
H2184 H 0.25771 0.31315 0.38628 0.0
H2185 H 0.29684 0.35479 0.39387 0.0
H2186 H 0.24739 0.31818 0.41655 0.0
H2187 H 0.28632 0.35991 0.42394 0.0
H2188 H 0.26897 0.35668 0.48985 0.0
H2189 H 0.27947 0.35198 0.45944 0.0
H2190 H 0.23798 0.33384 0.42772 0.0
H2191 H 0.22744 0.33852 0.45824 0.0
C2192 C 0.26413 0.32339 0.39436 0.0
C2193 C 0.27816 0.33354 0.38758 0.0
C2194 C 0.25814 0.32632 0.41165 0.0
C2195 C 0.26599 0.33947 0.42265 0.0
C2196 C 0.28003 0.3496 0.41597 0.0
C2197 C 0.28604 0.34668 0.39865 0.0
C2198 C 0.26211 0.35186 0.4763 0.0
C2199 C 0.24736 0.34803 0.47647 0.0
C2200 C 0.26815 0.34915 0.45885 0.0
C2201 C 0.25959 0.34254 0.44111 0.0
C2202 C 0.24484 0.33875 0.44123 0.0
C2203 C 0.23879 0.34145 0.45871 0.0
H2204 H 0.66342 0.95786 0.39891 0.0
H2205 H 0.69242 0.94344 0.37575 0.0
H2206 H 0.66059 0.94419 0.43107 0.0
H2207 H 0.68929 0.92962 0.40754 0.0
H2208 H 0.66739 0.89484 0.45877 0.0
H2209 H 0.66762 0.90736 0.42644 0.0
H2210 H 0.67929 0.94665 0.46099 0.0
H2211 H 0.67928 0.93421 0.49325 0.0
C2212 C 0.66907 0.95169 0.40057 0.0
C2213 C 0.67815 0.95175 0.38475 0.0
C2214 C 0.66748 0.94392 0.41897 0.0
C2215 C 0.67467 0.93582 0.42167 0.0
C2216 C 0.68351 0.93566 0.40574 0.0
C2217 C 0.68534 0.94364 0.38758 0.0
C2218 C 0.66987 0.9061 0.45941 0.0
C2219 C 0.67339 0.91361 0.47841 0.0
C2220 C 0.67005 0.91326 0.44098 0.0
C2221 C 0.67347 0.92795 0.4413 0.0
C2222 C 0.67653 0.9353 0.46038 0.0
C2223 C 0.67662 0.92823 0.47875 0.0
H2224 H 0.05532 0.70156 0.4102 0.0
H2225 H 0.06506 0.74183 0.37967 0.0
H2226 H 0.07149 0.71532 0.43912 0.0
H2227 H 0.08083 0.75565 0.40899 0.0
H2228 H 0.09058 0.76928 0.48065 0.0
H2229 H 0.07601 0.757 0.44996 0.0
H2230 H 0.10039 0.73457 0.44202 0.0
H2231 H 0.11561 0.74739 0.47187 0.0
C2232 C 0.06114 0.71336 0.40957 0.0
C2233 C 0.05953 0.72068 0.39238 0.0
C2234 C 0.07026 0.72121 0.42614 0.0
C2235 C 0.07751 0.73653 0.4261 0.0
C2236 C 0.07542 0.74385 0.40928 0.0
C2237 C 0.06647 0.73598 0.39256 0.0
C2238 C 0.09315 0.76203 0.47214 0.0
C2239 C 0.10432 0.75934 0.47896 0.0
C2240 C 0.0847 0.75492 0.45463 0.0
C2241 C 0.08704 0.74478 0.44378 0.0
C2242 C 0.09828 0.74222 0.45029 0.0
C2243 C 0.10692 0.74952 0.46752 0.0
H2244 H 0.36506 0.08464 0.71805 0.0
H2245 H 0.32324 0.04552 0.7228 0.0
H2246 H 0.35943 0.09481 0.74802 0.0
H2247 H 0.31773 0.05571 0.75303 0.0
H2248 H 0.3072 0.0853 0.79289 0.0
H2249 H 0.31264 0.07541 0.76226 0.0
H2250 H 0.35624 0.09077 0.7855 0.0
H2251 H 0.35079 0.10054 0.81618 0.0
C2252 C 0.35468 0.07816 0.7255 0.0
C2253 C 0.34463 0.06421 0.71797 0.0
C2254 C 0.35149 0.08399 0.74277 0.0
C2255 C 0.33815 0.07607 0.75294 0.0
C2256 C 0.32805 0.06216 0.7454 0.0
C2257 C 0.33126 0.05628 0.72814 0.0
C2258 C 0.31793 0.08651 0.79152 0.0
C2259 C 0.32856 0.09373 0.80703 0.0
C2260 C 0.32104 0.08083 0.77397 0.0
C2261 C 0.33486 0.08227 0.77146 0.0
C2262 C 0.34554 0.08964 0.78682 0.0
C2263 C 0.34242 0.09529 0.8044 0.0
H2264 H 0.97155 0.2884 0.74287 0.0
H2265 H 0.93143 0.27147 0.70819 0.0
H2266 H 0.9585 0.27324 0.77247 0.0
H2267 H 0.91828 0.25564 0.7373 0.0
H2268 H 0.89713 0.24022 0.80052 0.0
H2269 H 0.90982 0.25518 0.77076 0.0
H2270 H 0.94668 0.24936 0.78491 0.0
H2271 H 0.93439 0.23525 0.81536 0.0
C2272 C 0.95993 0.28118 0.74154 0.0
C2273 C 0.9525 0.28068 0.72316 0.0
C2274 C 0.95242 0.27244 0.75845 0.0
C2275 C 0.9373 0.263 0.75731 0.0
C2276 C 0.92987 0.26282 0.73891 0.0
C2277 C 0.93738 0.27177 0.72215 0.0
C2278 C 0.90798 0.24221 0.79738 0.0
C2279 C 0.91471 0.23654 0.81049 0.0
C2280 C 0.91521 0.25065 0.78008 0.0
C2281 C 0.92934 0.25355 0.7753 0.0
C2282 C 0.93591 0.24757 0.78815 0.0
C2283 C 0.92873 0.23924 0.80552 0.0
H2284 H 0.72687 0.65673 0.71083 0.0
H2285 H 0.71359 0.68486 0.74008 0.0
H2286 H 0.74172 0.65866 0.74137 0.0
H2287 H 0.72883 0.6875 0.7701 0.0
H2288 H 0.74894 0.68184 0.82839 0.0
H2289 H 0.73227 0.67675 0.79924 0.0
H2290 H 0.76352 0.67508 0.75824 0.0
H2291 H 0.77977 0.67932 0.7879 0.0
C2292 C 0.72726 0.6634 0.72381 0.0
C2293 C 0.71965 0.67114 0.72293 0.0
C2294 C 0.73581 0.66461 0.74124 0.0
C2295 C 0.73672 0.67343 0.75819 0.0
C2296 C 0.72839 0.68052 0.75754 0.0
C2297 C 0.71983 0.67924 0.74019 0.0
C2298 C 0.75217 0.68035 0.81311 0.0
C2299 C 0.76561 0.68104 0.81028 0.0
C2300 C 0.74268 0.67751 0.79635 0.0
C2301 C 0.74653 0.67559 0.77624 0.0
C2302 C 0.76003 0.67623 0.7735 0.0
C2303 C 0.76941 0.67878 0.79041 0.0
H2304 H 0.74198 0.69713 0.62654 0.0
H2305 H 0.71021 0.65145 0.63222 0.0
H2306 H 0.75291 0.69161 0.59752 0.0
H2307 H 0.72153 0.64581 0.60363 0.0
H2308 H 0.77883 0.67652 0.56021 0.0
H2309 H 0.76735 0.68109 0.58964 0.0
H2310 H 0.7253 0.64772 0.56742 0.0
H2311 H 0.73691 0.64286 0.53845 0.0
C2312 C 0.73735 0.68587 0.62164 0.0
C2313 C 0.7252 0.67473 0.63173 0.0
C2314 C 0.74371 0.68268 0.60507 0.0
C2315 C 0.73824 0.66823 0.59827 0.0
C2316 C 0.72597 0.65709 0.60822 0.0
C2317 C 0.71948 0.66031 0.62468 0.0
C2318 C 0.76714 0.67013 0.56172 0.0
C2319 C 0.75878 0.65933 0.54706 0.0
C2320 C 0.76052 0.6728 0.57851 0.0
C2321 C 0.74534 0.66487 0.5809 0.0
C2322 C 0.73701 0.65391 0.56633 0.0
C2323 C 0.74366 0.65113 0.54967 0.0
H2324 H 0.35762 0.05536 0.61073 0.0
H2325 H 0.32736 0.06587 0.63951 0.0
H2326 H 0.35987 0.07113 0.58127 0.0
H2327 H 0.32916 0.08125 0.60963 0.0
H2328 H 0.32553 0.09061 0.53761 0.0
H2329 H 0.32309 0.07619 0.56862 0.0
H2330 H 0.36949 0.09993 0.57779 0.0
H2331 H 0.37205 0.11499 0.54766 0.0
C2332 C 0.35165 0.06125 0.61084 0.0
C2333 C 0.34285 0.06 0.62771 0.0
C2334 C 0.35282 0.07014 0.59397 0.0
C2335 C 0.34481 0.07751 0.59336 0.0
C2336 C 0.3355 0.07574 0.60983 0.0
C2337 C 0.33451 0.06702 0.62687 0.0
C2338 C 0.33522 0.09305 0.54646 0.0
C2339 C 0.34902 0.10399 0.53992 0.0
C2340 C 0.3338 0.0847 0.56415 0.0
C2341 C 0.34614 0.08692 0.57545 0.0
C2342 C 0.35985 0.09792 0.56919 0.0
C2343 C 0.36128 0.10647 0.55179 0.0
H2344 H 0.94183 0.29074 0.63324 0.0
H2345 H 0.95803 0.26047 0.6273 0.0
H2346 H 0.92613 0.27976 0.60285 0.0
H2347 H 0.94242 0.24963 0.59694 0.0
H2348 H 0.92507 0.24691 0.5297 0.0
H2349 H 0.94052 0.25764 0.56015 0.0
H2350 H 0.90413 0.2549 0.59348 0.0
H2351 H 0.88842 0.24361 0.5633 0.0
C2352 C 0.94211 0.28182 0.62541 0.0
C2353 C 0.95121 0.27651 0.6327 0.0
C2354 C 0.93305 0.27547 0.60811 0.0
C2355 C 0.93306 0.26384 0.59756 0.0
C2356 C 0.94226 0.25865 0.60469 0.0
C2357 C 0.95116 0.26483 0.62214 0.0
C2358 C 0.92023 0.24831 0.54359 0.0
C2359 C 0.90542 0.24428 0.54396 0.0
C2360 C 0.92914 0.25456 0.56101 0.0
C2361 C 0.92353 0.25714 0.57915 0.0
C2362 C 0.90878 0.2532 0.57959 0.0
C2363 C 0.8998 0.24676 0.56226 0.0
H2364 H 0.32657 0.2665 0.64478 0.0
H2365 H 0.35663 0.30674 0.61482 0.0
H2366 H 0.3287 0.25264 0.61574 0.0
H2367 H 0.35921 0.29297 0.58625 0.0
H2368 H 0.37213 0.2617 0.55435 0.0
H2369 H 0.36913 0.27377 0.58445 0.0
H2370 H 0.32282 0.25137 0.57426 0.0
H2371 H 0.32571 0.23974 0.54332 0.0
C2372 C 0.33377 0.27233 0.63209 0.0
C2373 C 0.34195 0.28762 0.63236 0.0
C2374 C 0.33494 0.26444 0.61552 0.0
C2375 C 0.34428 0.27177 0.59898 0.0
C2376 C 0.35214 0.28708 0.59903 0.0
C2377 C 0.35079 0.29494 0.61541 0.0
C2378 C 0.36129 0.25939 0.55831 0.0
C2379 C 0.34919 0.24988 0.54609 0.0
C2380 C 0.35961 0.26626 0.57566 0.0
C2381 C 0.34579 0.26357 0.58152 0.0
C2382 C 0.33359 0.25356 0.57005 0.0
C2383 C 0.33528 0.24686 0.5524 0.0
H2384 H 0.70901 0.05793 0.62743 0.0
H2385 H 0.7468 0.05264 0.6353 0.0
H2386 H 0.71983 0.07279 0.59668 0.0
H2387 H 0.75764 0.06768 0.60479 0.0
H2388 H 0.76561 0.083 0.53676 0.0
H2389 H 0.75479 0.06763 0.56711 0.0
H2390 H 0.74003 0.09692 0.5881 0.0
H2391 H 0.75089 0.11233 0.55782 0.0
C2392 C 0.71959 0.05987 0.62261 0.0
C2393 C 0.727 0.05405 0.63392 0.0
C2394 C 0.72584 0.0685 0.60505 0.0
C2395 C 0.73964 0.07149 0.59833 0.0
C2396 C 0.74694 0.06547 0.60941 0.0
C2397 C 0.74072 0.05688 0.62699 0.0
C2398 C 0.76024 0.08628 0.54799 0.0
C2399 C 0.75911 0.0989 0.54482 0.0
C2400 C 0.754 0.07744 0.56537 0.0
C2401 C 0.74646 0.08099 0.57998 0.0
C2402 C 0.74551 0.09372 0.57695 0.0
C2403 C 0.75176 0.10257 0.5596 0.0
H2404 H 0.94384 0.68653 0.64013 0.0
H2405 H 0.9557 0.65651 0.61341 0.0
H2406 H 0.92854 0.68368 0.60957 0.0
H2407 H 0.94046 0.65354 0.58305 0.0
H2408 H 0.89869 0.63857 0.54555 0.0
H2409 H 0.91421 0.64257 0.57543 0.0
H2410 H 0.93074 0.68894 0.57098 0.0
H2411 H 0.91605 0.68516 0.5397 0.0
C2412 C 0.9431 0.67929 0.62772 0.0
C2413 C 0.95044 0.67129 0.62934 0.0
C2414 C 0.93444 0.67771 0.61023 0.0
C2415 C 0.93315 0.66824 0.59403 0.0
C2416 C 0.94097 0.66067 0.59545 0.0
C2417 C 0.94963 0.66231 0.61284 0.0
C2418 C 0.90575 0.64968 0.5506 0.0
C2419 C 0.90617 0.66153 0.53982 0.0
C2420 C 0.91453 0.65193 0.56803 0.0
C2421 C 0.92361 0.66604 0.57573 0.0
C2422 C 0.92371 0.67791 0.56554 0.0
C2423 C 0.9152 0.6757 0.54766 0.0
H2424 H 0.95483 0.69256 0.71228 0.0
H2425 H 0.93969 0.64909 0.73573 0.0
H2426 H 0.94415 0.69802 0.74179 0.0
H2427 H 0.93003 0.65474 0.76619 0.0
H2428 H 0.90221 0.66282 0.80963 0.0
H2429 H 0.9119 0.65787 0.77892 0.0
H2430 H 0.94512 0.70329 0.776 0.0
H2431 H 0.9343 0.70855 0.80511 0.0
C2432 C 0.94947 0.68429 0.72406 0.0
C2433 C 0.94806 0.67043 0.72178 0.0
C2434 C 0.94338 0.6874 0.74111 0.0
C2435 C 0.93609 0.67684 0.75661 0.0
C2436 C 0.93512 0.66308 0.75445 0.0
C2437 C 0.94082 0.65985 0.73709 0.0
C2438 C 0.91134 0.67187 0.80219 0.0
C2439 C 0.91739 0.68612 0.81015 0.0
C2440 C 0.91717 0.66895 0.78469 0.0
C2441 C 0.92951 0.6801 0.77487 0.0
C2442 C 0.93553 0.69436 0.78278 0.0
C2443 C 0.92945 0.69735 0.79992 0.0
H2444 H 0.31975 0.27897 0.72162 0.0
H2445 H 0.36512 0.2915 0.72836 0.0
H2446 H 0.31414 0.26308 0.752 0.0
H2447 H 0.35948 0.27573 0.75856 0.0
H2448 H 0.34578 0.2592 0.82499 0.0
H2449 H 0.35054 0.27495 0.79496 0.0
H2450 H 0.31492 0.23979 0.76183 0.0
H2451 H 0.31035 0.22375 0.79171 0.0
C2452 C 0.32852 0.27841 0.72961 0.0
C2453 C 0.34289 0.28653 0.72255 0.0
C2454 C 0.32529 0.26924 0.7469 0.0
C2455 C 0.33638 0.26819 0.75764 0.0
C2456 C 0.35073 0.27641 0.75071 0.0
C2457 C 0.35394 0.2854 0.73333 0.0
C2458 C 0.33907 0.25469 0.81124 0.0
C2459 C 0.32777 0.2401 0.81077 0.0
C2460 C 0.34176 0.26378 0.79407 0.0
C2461 C 0.33312 0.25859 0.77605 0.0
C2462 C 0.32166 0.24412 0.77561 0.0
C2463 C 0.31905 0.23495 0.79274 0.0
H2464 H 0.71491 0.03989 0.74552 0.0
H2465 H 0.73325 0.07862 0.70759 0.0
H2466 H 0.72981 0.0542 0.77506 0.0
H2467 H 0.74851 0.09298 0.73709 0.0
H2468 H 0.78505 0.10421 0.79005 0.0
H2469 H 0.76979 0.0918 0.75964 0.0
H2470 H 0.73142 0.07639 0.79702 0.0
H2471 H 0.74661 0.0891 0.82724 0.0
C2472 C 0.72225 0.05147 0.74354 0.0
C2473 C 0.72332 0.05816 0.72428 0.0
C2474 C 0.73066 0.05965 0.76041 0.0
C2475 C 0.74032 0.07465 0.75826 0.0
C2476 C 0.74121 0.0814 0.73904 0.0
C2477 C 0.73254 0.07324 0.72225 0.0
C2478 C 0.77334 0.0983 0.79163 0.0
C2479 C 0.76696 0.09762 0.8109 0.0
C2480 C 0.76465 0.09125 0.77429 0.0
C2481 C 0.74948 0.08312 0.77609 0.0
C2482 C 0.74311 0.08257 0.7953 0.0
C2483 C 0.75177 0.08988 0.8125 0.0
H2484 H 0.05116 0.37813 0.05236 0.0
H2485 H 0.03073 0.34068 0.01205 0.0
H2486 H 0.06513 0.36827 0.06912 0.0
H2487 H 0.04561 0.33122 0.0274 0.0
H2488 H 0.0649 0.3112 0.07092 0.0
H2489 H 0.05036 0.32031 0.0544 0.0
H2490 H 0.08427 0.36454 0.06677 0.0
H2491 H 0.09789 0.35539 0.08568 0.0
C2492 C 0.04981 0.3678 0.047 0.0
C2493 C 0.03987 0.36011 0.03105 0.0
C2494 C 0.05797 0.36219 0.05639 0.0
C2495 C 0.05679 0.34896 0.04956 0.0
C2496 C 0.04674 0.34128 0.03348 0.0
C2497 C 0.03823 0.3467 0.02454 0.0
C2498 C 0.06919 0.32288 0.07056 0.0
C2499 C 0.08258 0.33246 0.08015 0.0
C2500 C 0.06089 0.32817 0.0606 0.0
C2501 C 0.06592 0.34325 0.05932 0.0
C2502 C 0.07968 0.35284 0.06791 0.0
C2503 C 0.08776 0.34755 0.07842 0.0
H2504 H 0.66724 0.67853 0.06127 0.0
H2505 H 0.6464 0.68503 0.0074 0.0
H2506 H 0.6739 0.70285 0.07362 0.0
H2507 H 0.65323 0.70953 0.01971 0.0
H2508 H 0.65318 0.74478 0.0636 0.0
H2509 H 0.64715 0.7212 0.0484 0.0
H2510 H 0.68987 0.72846 0.06497 0.0
H2511 H 0.69572 0.75166 0.08065 0.0
C2512 C 0.66418 0.6852 0.05196 0.0
C2513 C 0.6563 0.67983 0.03334 0.0
C2514 C 0.66806 0.69918 0.059 0.0
C2515 C 0.66412 0.70816 0.04763 0.0
C2516 C 0.65632 0.70284 0.02891 0.0
C2517 C 0.6525 0.68885 0.0218 0.0
C2518 C 0.66128 0.74134 0.06393 0.0
C2519 C 0.67494 0.75015 0.07333 0.0
C2520 C 0.65788 0.72789 0.05507 0.0
C2521 C 0.66801 0.7229 0.05557 0.0
C2522 C 0.68176 0.73188 0.06453 0.0
C2523 C 0.68517 0.7453 0.07329 0.0
H2524 H 0.31036 0.96215 0.00462 0.0
H2525 H 0.3243 0.98043 0.06599 0.0
H2526 H 0.28665 0.94425 0.01853 0.0
H2527 H 0.30081 0.96253 0.07977 0.0
H2528 H 0.26519 0.91776 0.10053 0.0
H2529 H 0.28801 0.93466 0.08387 0.0
H2530 H 0.26443 0.94396 0.03669 0.0
H2531 H 0.24147 0.92697 0.05342 0.0
C2532 C 0.30834 0.96241 0.02101 0.0
C2533 C 0.31921 0.97269 0.03421 0.0
C2534 C 0.29479 0.95219 0.02894 0.0
C2535 C 0.29198 0.95192 0.05025 0.0
C2536 C 0.30276 0.96237 0.06333 0.0
C2537 C 0.31617 0.97268 0.05539 0.0
C2538 C 0.26483 0.92319 0.08638 0.0
C2539 C 0.25153 0.92103 0.07827 0.0
C2540 C 0.27791 0.93297 0.07698 0.0
C2541 C 0.27798 0.94071 0.05911 0.0
C2542 C 0.26467 0.93812 0.05043 0.0
C2543 C 0.25156 0.92846 0.06004 0.0
H2544 H 0.33391 0.01908 0.99382 0.0
H2545 H 0.37803 0.05432 0.98782 0.0
H2546 H 0.32501 0.03441 0.97833 0.0
H2547 H 0.36924 0.06936 0.97164 0.0
H2548 H 0.35004 0.09824 0.9584 0.0
H2549 H 0.35746 0.08285 0.97738 0.0
H2550 H 0.32334 0.04477 0.94662 0.0
H2551 H 0.31568 0.06016 0.92833 0.0
C2552 C 0.34172 0.03005 0.98908 0.0
C2553 C 0.35669 0.03545 0.99211 0.0
C2554 C 0.33662 0.03885 0.9801 0.0
C2555 C 0.34638 0.0532 0.97372 0.0
C2556 C 0.36134 0.05852 0.97673 0.0
C2557 C 0.36641 0.04981 0.98591 0.0
C2558 C 0.34409 0.08656 0.95586 0.0
C2559 C 0.33228 0.08041 0.9419 0.0
C2560 C 0.34837 0.07772 0.96663 0.0
C2561 C 0.3411 0.06251 0.96346 0.0
C2562 C 0.32909 0.05636 0.94976 0.0
C2563 C 0.3247 0.0652 0.93921 0.0
H2564 H 0.98455 0.33058 0.9535 0.0
H2565 H 0.9678 0.31772 0.01548 0.0
H2566 H 0.96575 0.30706 0.94021 0.0
H2567 H 0.94906 0.29401 0.0021 0.0
H2568 H 0.93047 0.24804 0.96783 0.0
H2569 H 0.94814 0.27129 0.98376 0.0
H2570 H 0.93767 0.29448 0.93742 0.0
H2571 H 0.91999 0.27132 0.92161 0.0
C2572 C 0.97693 0.32268 0.96432 0.0
C2573 C 0.97765 0.32601 0.98554 0.0
C2574 C 0.96611 0.30926 0.95667 0.0
C2575 C 0.9559 0.29877 0.97011 0.0
C2576 C 0.95681 0.30191 0.99142 0.0
C2577 C 0.96751 0.31547 0.99905 0.0
C2578 C 0.93183 0.25812 0.96125 0.0
C2579 C 0.92385 0.25788 0.94351 0.0
C2580 C 0.94189 0.27139 0.97039 0.0
C2581 C 0.94433 0.28466 0.96171 0.0
C2582 C 0.93608 0.2844 0.94431 0.0
C2583 C 0.92587 0.27115 0.93539 0.0
H2584 H 0.67856 0.62128 0.98214 0.0
H2585 H 0.68755 0.66539 0.99301 0.0
H2586 H 0.70194 0.63053 0.96553 0.0
H2587 H 0.71128 0.6747 0.97707 0.0
H2588 H 0.74618 0.6862 0.92796 0.0
H2589 H 0.72296 0.67744 0.94506 0.0
H2590 H 0.72713 0.64204 0.97217 0.0
H2591 H 0.7502 0.65064 0.95443 0.0
C2592 C 0.68557 0.63298 0.9811 0.0
C2593 C 0.68113 0.64259 0.98891 0.0
C2594 C 0.69908 0.6383 0.97171 0.0
C2595 C 0.70863 0.65339 0.97004 0.0
C2596 C 0.70417 0.66301 0.97779 0.0
C2597 C 0.69056 0.65768 0.98701 0.0
C2598 C 0.7422 0.67664 0.93777 0.0
C2599 C 0.75004 0.66913 0.9399 0.0
C2600 C 0.72888 0.67162 0.94763 0.0
C2601 C 0.72308 0.659 0.96004 0.0
C2602 C 0.73108 0.65163 0.96243 0.0
C2603 C 0.74435 0.65658 0.95237 0.0
H2604 H 0.98787 0.66955 0.96037 0.0
H2605 H 0.96051 0.64931 0.01338 0.0
H2606 H 0.97103 0.67733 0.94768 0.0
H2607 H 0.9436 0.65722 0.00064 0.0
H2608 H 0.94531 0.70046 0.93911 0.0
H2609 H 0.96202 0.69415 0.95645 0.0
H2610 H 0.92631 0.65144 0.97063 0.0
H2611 H 0.90943 0.6579 0.9537 0.0
C2612 C 0.97831 0.66686 0.96942 0.0
C2613 C 0.97553 0.6588 0.98788 0.0
C2614 C 0.96869 0.6714 0.96219 0.0
C2615 C 0.95598 0.66792 0.97317 0.0
C2616 C 0.95324 0.65998 0.99177 0.0
C2617 C 0.96297 0.65553 0.99911 0.0
C2618 C 0.94094 0.68983 0.94633 0.0
C2619 C 0.92601 0.67968 0.945 0.0
C2620 C 0.95056 0.68616 0.95606 0.0
C2621 C 0.94551 0.67225 0.96475 0.0
C2622 C 0.93052 0.66227 0.96417 0.0
C2623 C 0.92088 0.66593 0.95432 0.0
H2624 H 0.38222 0.32299 0.99785 0.0
H2625 H 0.34002 0.31932 0.9883 0.0
H2626 H 0.37353 0.2993 0.98173 0.0
H2627 H 0.3314 0.29558 0.97189 0.0
H2628 H 0.3578 0.26554 0.92872 0.0
H2629 H 0.36634 0.2885 0.94707 0.0
H2630 H 0.32577 0.27034 0.97994 0.0
H2631 H 0.31725 0.24722 0.96175 0.0
C2632 C 0.37109 0.31717 0.99231 0.0
C2633 C 0.36186 0.32317 0.99434 0.0
C2634 C 0.36613 0.30357 0.98296 0.0
C2635 C 0.35179 0.29555 0.97545 0.0
C2636 C 0.34248 0.30142 0.9777 0.0
C2637 C 0.34746 0.31508 0.98699 0.0
C2638 C 0.35079 0.2663 0.94016 0.0
C2639 C 0.33683 0.25447 0.94374 0.0
C2640 C 0.35567 0.27951 0.95063 0.0
C2641 C 0.34672 0.28128 0.96492 0.0
C2642 C 0.33285 0.26941 0.96879 0.0
C2643 C 0.32798 0.25615 0.95837 0.0
H2644 H 0.6909 0.04214 0.01518 0.0
H2645 H 0.67932 0.01926 0.95658 0.0
H2646 H 0.71499 0.05904 0.00185 0.0
H2647 H 0.70309 0.03636 0.94302 0.0
H2648 H 0.75026 0.06129 0.92813 0.0
H2649 H 0.72804 0.04377 0.94495 0.0
H2650 H 0.72687 0.07875 0.97795 0.0
H2651 H 0.74974 0.09627 0.96212 0.0
C2652 C 0.6935 0.04071 0.99946 0.0
C2653 C 0.6832 0.02934 0.98695 0.0
C2654 C 0.70729 0.05047 0.99176 0.0
C2655 C 0.71105 0.04912 0.97133 0.0
C2656 C 0.70073 0.03763 0.95895 0.0
C2657 C 0.68703 0.02784 0.96668 0.0
C2658 C 0.74553 0.06528 0.93936 0.0
C2659 C 0.75191 0.08028 0.94371 0.0
C2660 C 0.73258 0.0552 0.94877 0.0
C2661 C 0.72549 0.05981 0.96266 0.0
C2662 C 0.73204 0.07476 0.96746 0.0
C2663 C 0.74509 0.08485 0.95815 0.0
H2664 H 0.67025 0.98475 0.02816 0.0
H2665 H 0.62673 0.94952 0.039 0.0
H2666 H 0.6801 0.9699 0.04263 0.0
H2667 H 0.63649 0.93499 0.05404 0.0
H2668 H 0.65626 0.90625 0.06233 0.0
H2669 H 0.648 0.92159 0.04519 0.0
H2670 H 0.68341 0.95975 0.07389 0.0
H2671 H 0.69188 0.94439 0.09041 0.0
C2672 C 0.66279 0.97392 0.03382 0.0
C2673 C 0.6477 0.96832 0.03231 0.0
C2674 C 0.66844 0.9654 0.04216 0.0
C2675 C 0.65911 0.95115 0.04935 0.0
C2676 C 0.64403 0.94573 0.04818 0.0
C2677 C 0.63842 0.95415 0.03969 0.0
C2678 C 0.66232 0.91793 0.06481 0.0
C2679 C 0.6747 0.92411 0.0777 0.0
C2680 C 0.65755 0.92674 0.05511 0.0
C2681 C 0.66493 0.94194 0.05831 0.0
C2682 C 0.67755 0.94814 0.07082 0.0
C2683 C 0.6824 0.93933 0.08032 0.0
H2684 H 0.02109 0.68946 0.02501 0.0
H2685 H 0.05684 0.68101 0.03332 0.0
H2686 H 0.03569 0.71354 0.04045 0.0
H2687 H 0.07117 0.7047 0.04955 0.0
H2688 H 0.09872 0.75247 0.06331 0.0
H2689 H 0.08418 0.72984 0.04411 0.0
H2690 H 0.04526 0.72542 0.07214 0.0
H2691 H 0.05981 0.74833 0.09052 0.0
C2692 C 0.03203 0.69269 0.03027 0.0
C2693 C 0.03778 0.68329 0.02791 0.0
C2694 C 0.0404 0.7065 0.03923 0.0
C2695 C 0.05468 0.71117 0.0463 0.0
C2696 C 0.06038 0.7017 0.04392 0.0
C2697 C 0.05209 0.68801 0.03473 0.0
C2698 C 0.08704 0.74668 0.06517 0.0
C2699 C 0.08039 0.75215 0.07837 0.0
C2700 C 0.07868 0.73365 0.05429 0.0
C2701 C 0.06349 0.72564 0.05664 0.0
C2702 C 0.05686 0.73133 0.0696 0.0
C2703 C 0.06521 0.74446 0.08022 0.0
H2704 H 0.31479 0.34844 0.00456 0.0
H2705 H 0.32805 0.34566 0.06733 0.0
H2706 H 0.29057 0.34223 0.01708 0.0
H2707 H 0.30408 0.33981 0.07972 0.0
H2708 H 0.26751 0.35005 0.09481 0.0
H2709 H 0.29068 0.35566 0.0794 0.0
H2710 H 0.26844 0.31928 0.03746 0.0
H2711 H 0.24513 0.31347 0.05314 0.0
C2712 C 0.31252 0.34643 0.02096 0.0
C2713 C 0.32332 0.34754 0.03496 0.0
C2714 C 0.29868 0.34286 0.02808 0.0
C2715 C 0.29555 0.34068 0.04936 0.0
C2716 C 0.30628 0.34158 0.06326 0.0
C2717 C 0.31996 0.34484 0.05613 0.0
C2718 C 0.26752 0.34339 0.08207 0.0
C2719 C 0.25452 0.33135 0.07512 0.0
C2720 C 0.28078 0.34653 0.07339 0.0
C2721 C 0.28132 0.33785 0.05735 0.0
C2722 C 0.26829 0.32615 0.04979 0.0
C2723 C 0.255 0.32282 0.05877 0.0
H2724 H 0.68724 0.67099 0.36706 0.0
H2725 H 0.72584 0.71322 0.36187 0.0
H2726 H 0.70161 0.66141 0.38378 0.0
H2727 H 0.74001 0.70377 0.37898 0.0
H2728 H 0.76461 0.67962 0.39283 0.0
H2729 H 0.74978 0.68782 0.37401 0.0
H2730 H 0.71426 0.66312 0.41582 0.0
H2731 H 0.729 0.65481 0.43438 0.0
C2732 C 0.69874 0.67826 0.36956 0.0
C2733 C 0.70533 0.69289 0.36309 0.0
C2734 C 0.70699 0.67278 0.37923 0.0
C2735 C 0.72201 0.6818 0.3827 0.0
C2736 C 0.72855 0.69642 0.37624 0.0
C2737 C 0.72035 0.70188 0.36654 0.0
C2738 C 0.75363 0.67595 0.39796 0.0
C2739 C 0.74799 0.66654 0.41507 0.0
C2740 C 0.74513 0.68066 0.38722 0.0
C2741 C 0.73081 0.67617 0.39341 0.0
C2742 C 0.72513 0.66661 0.41037 0.0
C2743 C 0.7336 0.66185 0.42104 0.0
H2744 H 0.33329 0.0156 0.39244 0.0
H2745 H 0.31279 0.02229 0.33833 0.0
H2746 H 0.33989 0.03988 0.40488 0.0
H2747 H 0.31956 0.04675 0.35072 0.0
H2748 H 0.36064 0.08835 0.41359 0.0
H2749 H 0.35558 0.06564 0.39704 0.0
H2750 H 0.3128 0.05775 0.37947 0.0
H2751 H 0.31805 0.08085 0.39549 0.0
C2752 C 0.33035 0.02233 0.38306 0.0
C2753 C 0.32251 0.01701 0.3644 0.0
C2754 C 0.33419 0.03628 0.39015 0.0
C2755 C 0.33025 0.04526 0.3788 0.0
C2756 C 0.32263 0.04005 0.35993 0.0
C2757 C 0.31885 0.02608 0.35276 0.0
C2758 C 0.35026 0.08197 0.40581 0.0
C2759 C 0.33976 0.08648 0.40584 0.0
C2760 C 0.3473 0.06883 0.39654 0.0
C2761 C 0.33376 0.05981 0.38707 0.0
C2762 C 0.32338 0.06449 0.38652 0.0
C2763 C 0.32634 0.07766 0.39587 0.0
H2764 H 0.98419 0.3192 0.38327 0.0
H2765 H 0.98328 0.28554 0.34432 0.0
H2766 H 0.95994 0.30195 0.39596 0.0
H2767 H 0.95915 0.26815 0.35757 0.0
H2768 H 0.92865 0.24255 0.41649 0.0
H2769 H 0.95083 0.25834 0.39763 0.0
H2770 H 0.93291 0.28549 0.37839 0.0
H2771 H 0.9103 0.26928 0.39606 0.0
C2772 C 0.97877 0.30814 0.37734 0.0
C2773 C 0.9856 0.3037 0.3628 0.0
C2774 C 0.9649 0.29831 0.38455 0.0
C2775 C 0.95774 0.28376 0.37772 0.0
C2776 C 0.96448 0.27932 0.36305 0.0
C2777 C 0.97823 0.28927 0.35544 0.0
C2778 C 0.92916 0.25159 0.40774 0.0
C2779 C 0.91761 0.25464 0.40809 0.0
C2780 C 0.94194 0.26068 0.39704 0.0
C2781 C 0.94357 0.27317 0.38676 0.0
C2782 C 0.93194 0.276 0.38642 0.0
C2783 C 0.91904 0.26674 0.39671 0.0
H2784 H 1.00239 0.35605 0.33721 0.0
H2785 H 0.04174 0.37794 0.30177 0.0
H2786 H 0.99414 0.37208 0.32228 0.0
H2787 H 0.03317 0.39314 0.28539 0.0
H2788 H 0.02226 0.42777 0.27125 0.0
H2789 H 0.02986 0.41254 0.28927 0.0
H2790 H 0.98499 0.37878 0.295 0.0
H2791 H 0.97731 0.39479 0.27936 0.0
C2792 C 0.00911 0.36411 0.32584 0.0
C2793 C 0.02269 0.36582 0.32064 0.0
C2794 C 0.00439 0.37331 0.31716 0.0
C2795 C 0.01298 0.38415 0.30262 0.0
C2796 C 0.02637 0.38537 0.29698 0.0
C2797 C 0.03125 0.3765 0.30614 0.0
C2798 C 0.01392 0.4173 0.27686 0.0
C2799 C 0.99909 0.41264 0.27356 0.0
C2800 C 0.01834 0.40831 0.28684 0.0
C2801 C 0.00812 0.39414 0.29333 0.0
C2802 C 0.99328 0.38958 0.29045 0.0
C2803 C 0.98884 0.39875 0.28101 0.0
H2804 H 0.65555 0.65673 0.2918 0.0
H2805 H 0.62866 0.65069 0.34499 0.0
H2806 H 0.63777 0.6327 0.27897 0.0
H2807 H 0.6109 0.62647 0.33225 0.0
H2808 H 0.60974 0.58435 0.26987 0.0
H2809 H 0.62749 0.60689 0.28652 0.0
H2810 H 0.59326 0.61583 0.30335 0.0
H2811 H 0.57533 0.59288 0.28728 0.0
C2812 C 0.64592 0.6502 0.30089 0.0
C2813 C 0.64352 0.65563 0.31941 0.0
C2814 C 0.63574 0.63638 0.29358 0.0
C2815 C 0.62289 0.62765 0.30457 0.0
C2816 C 0.62061 0.63298 0.3233 0.0
C2817 C 0.63084 0.64681 0.33067 0.0
C2818 C 0.60591 0.59093 0.27751 0.0
C2819 C 0.59106 0.58675 0.27727 0.0
C2820 C 0.61614 0.60398 0.28682 0.0
C2821 C 0.61182 0.61323 0.29613 0.0
C2822 C 0.59694 0.6089 0.29644 0.0
C2823 C 0.58668 0.59582 0.28705 0.0
H2824 H 0.34878 0.99746 0.31531 0.0
H2825 H 0.34557 0.95633 0.33297 0.0
H2826 H 0.3725 0.00501 0.29992 0.0
H2827 H 0.36887 0.96372 0.31739 0.0
H2828 H 0.41593 0.98381 0.30356 0.0
H2829 H 0.39442 0.98024 0.322 0.0
H2830 H 0.38298 0.99906 0.27037 0.0
H2831 H 0.40461 0.00279 0.25206 0.0
C2832 C 0.35309 0.99003 0.31593 0.0
C2833 C 0.34518 0.97626 0.32538 0.0
C2834 C 0.36667 0.99434 0.30704 0.0
C2835 C 0.37267 0.98502 0.30753 0.0
C2836 C 0.36477 0.97132 0.31707 0.0
C2837 C 0.35126 0.96702 0.32586 0.0
C2838 C 0.4089 0.98733 0.29625 0.0
C2839 C 0.41192 0.99347 0.27628 0.0
C2840 C 0.39654 0.98524 0.30678 0.0
C2841 C 0.38682 0.98915 0.29754 0.0
C2842 C 0.39026 0.99601 0.27802 0.0
C2843 C 0.40268 0.99816 0.26752 0.0
H2844 H 0.64862 0.98993 0.28628 0.0
H2845 H 0.63288 0.98616 0.34884 0.0
H2846 H 0.62955 0.99466 0.27364 0.0
H2847 H 0.61382 0.99118 0.33606 0.0
H2848 H 0.5942 0.01819 0.30055 0.0
H2849 H 0.61227 0.01296 0.31674 0.0
H2850 H 0.60132 0.97846 0.27237 0.0
H2851 H 0.58329 0.98358 0.25633 0.0
C2852 C 0.64119 0.99027 0.29739 0.0
C2853 C 0.64224 0.98764 0.31857 0.0
C2854 C 0.63021 0.99288 0.2901 0.0
C2855 C 0.62015 0.99315 0.30385 0.0
C2856 C 0.62145 0.99102 0.32515 0.0
C2857 C 0.63233 0.98814 0.33243 0.0
C2858 C 0.59554 0.00936 0.29449 0.0
C2859 C 0.58732 1.00127 0.2772 0.0
C2860 C 0.60582 0.00635 0.30377 0.0
C2861 C 0.60824 0.9954 0.29567 0.0
C2862 C 0.59973 0.98705 0.27881 0.0
C2863 C 0.58932 0.98988 0.26976 0.0
H2864 H 0.04633 0.666 0.30218 0.0
H2865 H 0.00893 0.64824 0.3418 0.0
H2866 H 0.0372 0.64244 0.28546 0.0
H2867 H 1.00024 0.62421 0.32652 0.0
H2868 H 0.98139 0.58515 0.28366 0.0
H2869 H 0.98976 0.60862 0.29972 0.0
H2870 H 0.03422 0.61978 0.28785 0.0
H2871 H 0.02573 0.59712 0.26939 0.0
C2872 C 0.03616 0.65694 0.30737 0.0
C2873 C 0.02827 0.65891 0.32313 0.0
C2874 C 0.03097 0.64331 0.29801 0.0
C2875 C 0.01799 0.63113 0.30468 0.0
C2876 C 0.01011 0.63323 0.32054 0.0
C2877 C 0.01509 0.64701 0.32943 0.0
C2878 C 0.99295 0.59268 0.28403 0.0
C2879 C 1.00278 0.58912 0.2747 0.0
C2880 C 0.99783 0.60617 0.29373 0.0
C2881 C 0.01275 0.61641 0.29505 0.0
C2882 C 0.02262 0.61252 0.2867 0.0
C2883 C 0.01772 0.59921 0.27644 0.0
H2884 H 0.3476 0.35325 0.29559 0.0
H2885 H 0.35451 0.38082 0.34874 0.0
H2886 H 0.37197 0.3701 0.28358 0.0
H2887 H 0.37909 0.39771 0.33674 0.0
H2888 H 0.41389 0.43197 0.29154 0.0
H2889 H 0.3907 0.41511 0.30756 0.0
H2890 H 0.39746 0.37901 0.29267 0.0
H2891 H 0.42028 0.39569 0.27614 0.0
C2892 C 0.35437 0.36286 0.30482 0.0
C2893 C 0.34911 0.3657 0.32311 0.0
C2894 C 0.36839 0.37249 0.29799 0.0
C2895 C 0.3775 0.38524 0.30922 0.0
C2896 C 0.3723 0.38803 0.32765 0.0
C2897 C 0.35826 0.37832 0.33458 0.0
C2898 C 0.41045 0.42045 0.29179 0.0
C2899 C 0.41896 0.41521 0.2825 0.0
C2900 C 0.39722 0.4108 0.30113 0.0
C2901 C 0.39218 0.3957 0.30125 0.0
C2902 C 0.40094 0.39055 0.29261 0.0
C2903 C 0.41413 0.40017 0.28336 0.0
H2904 H 0.33421 0.31965 0.36041 0.0
H2905 H 0.29023 0.28497 0.36987 0.0
H2906 H 0.34341 0.30454 0.3758 0.0
H2907 H 0.29933 0.27017 0.38605 0.0
H2908 H 0.31859 0.24109 0.39767 0.0
H2909 H 0.31051 0.25627 0.3796 0.0
H2910 H 0.34624 0.29477 0.40718 0.0
H2911 H 0.35456 0.27956 0.42444 0.0
C2912 C 0.32651 0.30886 0.36597 0.0
C2913 C 0.31149 0.30351 0.36385 0.0
C2914 C 0.33177 0.30019 0.37488 0.0
C2915 C 0.32214 0.28604 0.38214 0.0
C2916 C 0.30712 0.28083 0.38022 0.0
C2917 C 0.30188 0.28939 0.37107 0.0
C2918 C 0.32473 0.25281 0.3997 0.0
C2919 C 0.33721 0.25915 0.4124 0.0
C2920 C 0.32007 0.26154 0.38947 0.0
C2921 C 0.32763 0.27681 0.392 0.0
C2922 C 0.34025 0.28311 0.40453 0.0
C2923 C 0.34501 0.27439 0.4145 0.0
H2924 H 0.68983 0.02051 0.35646 0.0
H2925 H 0.72513 0.01135 0.36462 0.0
H2926 H 0.70463 0.0444 0.37235 0.0
H2927 H 0.73965 0.03486 0.38126 0.0
H2928 H 0.76771 0.08271 0.39488 0.0
H2929 H 0.75293 0.06008 0.37579 0.0
H2930 H 0.7143 0.05598 0.40432 0.0
H2931 H 0.72907 0.07885 0.42269 0.0
C2932 C 0.7007 0.02354 0.36178 0.0
C2933 C 0.70627 0.01399 0.35923 0.0
C2934 C 0.70919 0.03724 0.371 0.0
C2935 C 0.72341 0.04166 0.37812 0.0
C2936 C 0.72891 0.03204 0.3756 0.0
C2937 C 0.7205 0.01845 0.36617 0.0
C2938 C 0.75604 0.07699 0.39691 0.0
C2939 C 0.74955 0.08256 0.41023 0.0
C2940 C 0.74755 0.06396 0.38608 0.0
C2941 C 0.73237 0.05606 0.38857 0.0
C2942 C 0.72589 0.06181 0.40168 0.0
C2943 C 0.73437 0.07493 0.41228 0.0
H2944 H 0.98722 0.69433 0.34281 0.0
H2945 H 0.99384 0.67418 0.39731 0.0
H2946 H 0.96307 0.6881 0.35503 0.0
H2947 H 0.9698 0.6681 0.40961 0.0
H2948 H 0.92107 0.64705 0.41633 0.0
H2949 H 0.94412 0.65229 0.40131 0.0
H2950 H 0.95192 0.69503 0.38309 0.0
H2951 H 0.92853 0.6896 0.39762 0.0
C2952 C 0.98351 0.68852 0.35735 0.0
C2953 C 0.99245 0.68473 0.36908 0.0
C2954 C 0.9697 0.68504 0.36442 0.0
C2955 C 0.96449 0.67761 0.3833 0.0
C2956 C 0.97339 0.67367 0.39487 0.0
C2957 C 0.98721 0.67721 0.38787 0.0
C2958 C 0.92753 0.65747 0.40876 0.0
C2959 C 0.92288 0.66788 0.40811 0.0
C2960 C 0.94087 0.66054 0.40039 0.0
C2961 C 0.94993 0.67411 0.39112 0.0
C2962 C 0.94516 0.68443 0.39 0.0
C2963 C 0.93181 0.68137 0.39847 0.0
H2964 H 0.39191 0.05114 0.70806 0.0
H2965 H 0.35907 0.00724 0.69208 0.0
H2966 H 0.40627 0.04183 0.725 0.0
H2967 H 0.37379 0.99787 0.70829 0.0
H2968 H 0.39714 0.98515 0.75751 0.0
H2969 H 0.38224 0.99378 0.74014 0.0
H2970 H 0.42112 0.03168 0.71843 0.0
H2971 H 0.43596 0.02322 0.7366 0.0
C2972 C 0.38779 0.03947 0.70805 0.0
C2973 C 0.37434 0.02993 0.69871 0.0
C2974 C 0.39612 0.03412 0.71763 0.0
C2975 C 0.39133 0.01908 0.71788 0.0
C2976 C 0.37778 0.00951 0.70866 0.0
C2977 C 0.36934 0.01487 0.6993 0.0
C2978 C 0.40247 0.99525 0.74883 0.0
C2979 C 0.41771 0.00352 0.74839 0.0
C2980 C 0.39393 1.0002 0.73881 0.0
C2981 C 0.40042 0.01349 0.72789 0.0
C2982 C 0.4157 0.02157 0.72705 0.0
C2983 C 0.42424 0.0167 0.73733 0.0
H2984 H 0.97122 0.3492 0.67926 0.0
H2985 H 0.00465 0.34965 0.71886 0.0
H2986 H 0.9773 0.37347 0.69205 0.0
H2987 H 0.01099 0.37408 0.73109 0.0
H2988 H 0.02629 0.42414 0.72808 0.0
H2989 H 0.02043 0.40097 0.71194 0.0
H2990 H 0.97618 0.38234 0.73237 0.0
H2991 H 0.98208 0.4051 0.7498 0.0
C2992 C 0.97999 0.35457 0.69045 0.0
C2993 C 0.98746 0.34755 0.6981 0.0
C2994 C 0.98341 0.3684 0.69779 0.0
C2995 C 0.99462 0.37559 0.71248 0.0
C2996 C 1.00237 0.36877 0.71966 0.0
C2997 C 0.9987 0.3548 0.71272 0.0
C2998 C 0.01532 0.41513 0.72937 0.0
C2999 C 0.00474 0.41659 0.74059 0.0
C3000 C 0.01197 0.40189 0.71995 0.0
C3001 C 0.99789 0.38992 0.72101 0.0
C3002 C 0.98711 0.39148 0.73124 0.0
C3003 C 0.99051 0.40461 0.74109 0.0
H3004 H 0.65812 0.65354 0.72732 0.0
H3005 H 0.64686 0.63333 0.6668 0.0
H3006 H 0.63445 0.6357 0.74013 0.0
H3007 H 0.62276 0.61575 0.67934 0.0
H3008 H 0.59041 0.57565 0.71727 0.0
H3009 H 0.61171 0.59503 0.70066 0.0
H3010 H 0.60942 0.62669 0.7405 0.0
H3011 H 0.58887 0.60719 0.75823 0.0
C3012 C 0.65045 0.64545 0.71661 0.0
C3013 C 0.65442 0.64481 0.69608 0.0
C3014 C 0.63677 0.63523 0.72392 0.0
C3015 C 0.62657 0.62417 0.71083 0.0
C3016 C 0.63037 0.62391 0.69001 0.0
C3017 C 0.64416 0.63406 0.68275 0.0
C3018 C 0.59445 0.58673 0.72256 0.0
C3019 C 0.58798 0.58973 0.73942 0.0
C3020 C 0.6066 0.59794 0.71277 0.0
C3021 C 0.61251 0.6125 0.71936 0.0
C3022 C 0.60544 0.61559 0.73529 0.0
C3023 C 0.59342 0.60438 0.74526 0.0
H3024 H 0.71359 0.72729 0.65867 0.0
H3025 H 0.67166 0.68918 0.64764 0.0
H3026 H 0.70505 0.74252 0.64236 0.0
H3027 H 0.66319 0.70457 0.63099 0.0
H3028 H 0.69055 0.76183 0.58948 0.0
H3029 H 0.6985 0.74663 0.6075 0.0
H3030 H 0.65736 0.72417 0.6389 0.0
H3031 H 0.64939 0.73954 0.62098 0.0
C3032 C 0.70255 0.72211 0.65272 0.0
C3033 C 0.69335 0.70694 0.65441 0.0
C3034 C 0.69768 0.73089 0.64328 0.0
C3035 C 0.68347 0.72477 0.63528 0.0
C3036 C 0.67417 0.70964 0.63716 0.0
C3037 C 0.67906 0.70081 0.64658 0.0
C3038 C 0.68327 0.75386 0.60052 0.0
C3039 C 0.66935 0.752 0.60385 0.0
C3040 C 0.68782 0.74508 0.61079 0.0
C3041 C 0.67857 0.73417 0.62464 0.0
C3042 C 0.66467 0.73235 0.62812 0.0
C3043 C 0.66013 0.74118 0.61787 0.0
H3044 H 0.2984 0.98808 0.67858 0.0
H3045 H 0.32475 0.9944 0.62467 0.0
H3046 H 0.28081 0.96369 0.66622 0.0
H3047 H 0.30713 0.97017 0.61221 0.0
H3048 H 0.2798 0.92155 0.60393 0.0
H3049 H 0.29745 0.94445 0.61992 0.0
H3050 H 0.26282 0.95242 0.63803 0.0
H3051 H 0.24502 0.92916 0.62262 0.0
C3052 C 0.30048 0.98424 0.66415 0.0
C3053 C 0.31298 0.99318 0.65261 0.0
C3054 C 0.29035 0.9703 0.657 0.0
C3055 C 0.29254 0.96496 0.63822 0.0
C3056 C 0.30518 0.97384 0.62688 0.0
C3057 C 0.31526 0.98778 0.63398 0.0
C3058 C 0.27588 0.928 0.61171 0.0
C3059 C 0.26095 0.92345 0.61201 0.0
C3060 C 0.28604 0.94126 0.62064 0.0
C3061 C 0.28158 0.95035 0.63011 0.0
C3062 C 0.26663 0.94564 0.63097 0.0
C3063 C 0.25643 0.93236 0.62198 0.0
H3064 H 0.02345 0.33275 0.67083 0.0
H3065 H 0.00811 0.29242 0.63733 0.0
H3066 H 0.04748 0.342 0.65582 0.0
H3067 H 0.03157 0.3019 0.62089 0.0
H3068 H 0.07724 0.31547 0.60631 0.0
H3069 H 0.05481 0.30696 0.62479 0.0
H3070 H 0.06239 0.35116 0.62812 0.0
H3071 H 0.08574 0.35988 0.61202 0.0
C3072 C 0.02519 0.326 0.65989 0.0
C3073 C 0.01399 0.31188 0.65525 0.0
C3074 C 0.03896 0.3313 0.65116 0.0
C3075 C 0.04172 0.32273 0.63713 0.0
C3076 C 0.03021 0.30874 0.63208 0.0
C3077 C 0.01663 0.30332 0.64128 0.0
C3078 C 0.07443 0.3235 0.6115 0.0
C3079 C 0.08348 0.33844 0.60735 0.0
C3080 C 0.06125 0.31853 0.62174 0.0
C3081 C 0.0564 0.32825 0.62767 0.0
C3082 C 0.06561 0.34323 0.62401 0.0
C3083 C 0.07901 0.34825 0.6143 0.0
H3084 H 0.29785 0.31822 0.67994 0.0
H3085 H 0.32099 0.33078 0.62197 0.0
H3086 H 0.27951 0.32354 0.66534 0.0
H3087 H 0.30275 0.33613 0.6075 0.0
H3088 H 0.25894 0.32638 0.58063 0.0
H3089 H 0.27682 0.32136 0.5971 0.0
H3090 H 0.27633 0.34437 0.65205 0.0
H3091 H 0.25812 0.34921 0.63563 0.0
C3092 C 0.29909 0.32223 0.66416 0.0
C3093 C 0.31084 0.32401 0.65208 0.0
C3094 C 0.28861 0.32532 0.65584 0.0
C3095 C 0.28961 0.33012 0.63521 0.0
C3096 C 0.30155 0.33222 0.62333 0.0
C3097 C 0.31206 0.32925 0.63168 0.0
C3098 C 0.26243 0.33017 0.59636 0.0
C3099 C 0.25705 0.33815 0.60684 0.0
C3100 C 0.27284 0.32745 0.60569 0.0
C3101 C 0.2781 0.33258 0.6258 0.0
C3102 C 0.27246 0.34024 0.63655 0.0
C3103 C 0.2621 0.34308 0.62712 0.0
H3104 H 0.71133 0.98974 0.67364 0.0
H3105 H 0.67253 0.99028 0.65317 0.0
H3106 H 0.70218 0.96575 0.65861 0.0
H3107 H 0.66318 0.9659 0.6384 0.0
H3108 H 0.66389 0.93283 0.59038 0.0
H3109 H 0.66855 0.95468 0.60936 0.0
H3110 H 0.68414 0.94049 0.66191 0.0
H3111 H 0.67964 0.91871 0.64277 0.0
C3112 C 0.70076 0.98471 0.66608 0.0
C3113 C 0.69274 0.99207 0.66451 0.0
C3114 C 0.69544 0.97082 0.65762 0.0
C3115 C 0.6819 0.96382 0.64735 0.0
C3116 C 0.67371 0.97102 0.64607 0.0
C3117 C 0.67905 0.98498 0.6546 0.0
C3118 C 0.66795 0.93418 0.60618 0.0
C3119 C 0.67152 0.9241 0.615 0.0
C3120 C 0.67064 0.94673 0.61708 0.0
C3121 C 0.67693 0.94947 0.63706 0.0
C3122 C 0.6796 0.93889 0.64636 0.0
C3123 C 0.67698 0.92639 0.63544 0.0
H3124 H 0.01451 0.68717 0.62616 0.0
H3125 H 0.0225 0.71477 0.67962 0.0
H3126 H 0.03833 0.70449 0.61267 0.0
H3127 H 0.04645 0.73205 0.66621 0.0
H3128 H 0.07983 0.76706 0.62149 0.0
H3129 H 0.05685 0.74954 0.63737 0.0
H3130 H 0.06416 0.71428 0.61943 0.0
H3131 H 0.08678 0.73165 0.60303 0.0
C3132 C 0.02141 0.69685 0.63516 0.0
C3133 C 0.01659 0.69958 0.65396 0.0
C3134 C 0.03511 0.70677 0.62746 0.0
C3135 C 0.04431 0.71969 0.63834 0.0
C3136 C 0.03957 0.7223 0.65732 0.0
C3137 C 0.02588 0.71234 0.66508 0.0
C3138 C 0.07652 0.75557 0.62096 0.0
C3139 C 0.08519 0.7508 0.611 0.0
C3140 C 0.06342 0.74553 0.63022 0.0
C3141 C 0.05864 0.73048 0.62962 0.0
C3142 C 0.06743 0.72576 0.61999 0.0
C3143 C 0.08052 0.73577 0.61081 0.0
H3144 H 0.96035 0.6173 0.68665 0.0
H3145 H 0.99846 0.65511 0.71118 0.0
H3146 H 0.9673 0.60146 0.70457 0.0
H3147 H 0.00547 0.63884 0.72934 0.0
H3148 H 0.0155 0.59883 0.73989 0.0
H3149 H 0.01208 0.61754 0.72173 0.0
H3150 H 0.96802 0.59739 0.7437 0.0
H3151 H 0.97141 0.57909 0.76198 0.0
C3152 C 0.97026 0.6223 0.69584 0.0
C3153 C 0.9787 0.63756 0.69775 0.0
C3154 C 0.97424 0.61315 0.70612 0.0
C3155 C 0.98678 0.61891 0.7186 0.0
C3156 C 0.99571 0.63414 0.71982 0.0
C3157 C 0.99168 0.64342 0.70949 0.0
C3158 C 0.00514 0.59851 0.74097 0.0
C3159 C 0.99361 0.58724 0.75197 0.0
C3160 C 0.00322 0.60922 0.73064 0.0
C3161 C 0.98972 0.60876 0.7311 0.0
C3162 C 0.97845 0.59784 0.74274 0.0
C3163 C 0.98037 0.58728 0.75308 0.0
H3164 H 0.38258 0.34216 0.72257 0.0
H3165 H 0.36309 0.36062 0.68221 0.0
H3166 H 0.39697 0.36561 0.73948 0.0
H3167 H 0.37837 0.38456 0.69784 0.0
H3168 H 0.3993 0.42362 0.74121 0.0
H3169 H 0.38383 0.40023 0.72504 0.0
H3170 H 0.41673 0.38793 0.7363 0.0
H3171 H 0.43132 0.41045 0.75473 0.0
C3172 C 0.38149 0.35135 0.71727 0.0
C3173 C 0.37173 0.34963 0.70119 0.0
C3174 C 0.3899 0.3649 0.72675 0.0
C3175 C 0.38916 0.37726 0.7199 0.0
C3176 C 0.37919 0.37539 0.70385 0.0
C3177 C 0.37044 0.36168 0.69479 0.0
C3178 C 0.40317 0.41585 0.74064 0.0
C3179 C 0.41661 0.41905 0.74973 0.0
C3180 C 0.39433 0.40242 0.73093 0.0
C3181 C 0.39881 0.39191 0.72946 0.0
C3182 C 0.41257 0.39543 0.7376 0.0
C3183 C 0.42121 0.40866 0.74782 0.0
H3184 H 0.65025 0.02651 0.67289 0.0
H3185 H 0.6605 0.01432 0.73223 0.0
H3186 H 0.62667 0.02162 0.68627 0.0
H3187 H 0.63709 0.0094 0.74542 0.0
H3188 H 0.60301 0.01857 0.77062 0.0
H3189 H 0.62588 0.02431 0.75454 0.0
H3190 H 0.60285 1.00108 0.69923 0.0
H3191 H 0.57981 0.99562 0.71518 0.0
C3192 C 0.64743 0.02267 0.68869 0.0
C3193 C 0.65728 0.02087 0.70152 0.0
C3194 C 0.63393 0.01986 0.69633 0.0
C3195 C 0.6301 0.01531 0.71699 0.0
C3196 C 0.63983 0.01317 0.72957 0.0
C3197 C 0.65322 0.01589 0.72194 0.0
C3198 C 0.60279 0.01495 0.75485 0.0
C3199 C 0.58954 0.00663 0.7442 0.0
C3200 C 0.61591 0.01808 0.74574 0.0
C3201 C 0.61617 0.01298 0.72573 0.0
C3202 C 0.603 0.00517 0.71467 0.0
C3203 C 0.58981 1.00197 0.72386 0.0
loop_
_geom_bond_atom_site_label_1
_geom_bond_atom_site_label_2
_geom_bond_distance
_geom_bond_site_symmetry_2
_ccdc_geom_bond_type
Mn0 O5 2.095 1_655 S
Mn0 O15 2.162 . S
Mn0 O16 2.297 1_554 S
Mn0 O24 2.385 1_554 S
Mn0 O25 2.209 1_654 S
Mn0 O26 2.094 . S
Mn1 O6 2.121 . S
Mn1 N8 2.257 1_554 S
Mn1 N17 2.282 . S
Mn1 O25 2.215 1_554 S
Mn1 O27 2.117 . S
C2 O24 1.234 1_455 S
C2 O25 1.283 . S
C3 O15 1.281 1_556 S
C3 O16 1.236 . S
C4 O26 1.231 1_455 S
C4 O27 1.286 . S
O5 Mn0 2.095 1_455 S
O5 C14 1.250 . S
O6 Mn1 2.121 . S
O6 C14 1.258 . S
C7 N8 1.326 . S
C7 C11 1.460 . S
C7 H13 0.929 . S
N8 Mn1 2.257 1_556 S
N8 C7 1.326 . S
N8 C12 1.362 . S
C9 C10 1.258 . S
C9 C12 1.431 . S
C9 C29 1.449 . S
C10 C9 1.258 . S
C10 C11 1.477 . S
C10 H30 0.931 . S
C11 C7 1.460 . S
C11 C10 1.477 . S
C11 H31 0.930 . S
C12 N8 1.362 . S
C12 C9 1.431 . S
C12 C22 1.476 . S
H13 C7 0.929 . S
C14 O5 1.250 . S
C14 O6 1.258 . S
O15 Mn0 2.162 . S
O15 C3 1.281 1_554 S
O16 Mn0 2.297 1_556 S
O16 C3 1.236 . S
N17 Mn1 2.282 . S
N17 C18 1.328 . S
N17 C22 1.318 1_554 S
C18 N17 1.328 . S
C18 C19 1.457 1_554 S
C18 H23 0.929 . S
C19 C18 1.457 1_556 S
C19 C20 1.291 . S
C19 H32 0.921 1_556 S
C20 C19 1.291 . S
C20 C21 1.373 . S
C20 H33 0.929 . S
C21 C20 1.373 . S
C21 C22 1.396 . S
C21 C28 1.403 . S
C22 C12 1.476 . S
C22 N17 1.318 1_556 S
C22 C21 1.396 . S
H23 C18 0.929 . S
O24 Mn0 2.385 1_556 S
O24 C2 1.234 1_655 S
O25 Mn0 2.209 1_456 S
O25 Mn1 2.215 1_556 S
O25 C2 1.283 . S
O26 Mn0 2.094 . S
O26 C4 1.231 1_655 S
O27 Mn1 2.117 . S
O27 C4 1.286 . S
C28 C21 1.403 . S
C28 C29 1.399 . S
C28 H34 0.929 . S
C29 C9 1.449 . S
C29 C28 1.399 . S
C29 H35 0.930 . S
H30 C10 0.931 . S
H31 C11 0.930 . S
H32 C19 0.921 1_554 S
H33 C20 0.929 . S
H34 C28 0.929 . S
H35 C29 0.930 . S
Mn36 O41 2.095 1_554 S
Mn36 O51 2.162 . S
Mn36 O52 2.297 . S
Mn36 O60 2.385 . S
Mn36 O61 2.209 . S
Mn36 O62 2.094 1_554 S
Mn37 O42 2.121 1_554 S
Mn37 N44 2.257 . S
Mn37 N53 2.282 . S
Mn37 O61 2.215 . S
Mn37 O63 2.117 1_554 S
C38 O60 1.234 . S
C38 O61 1.283 . S
C39 O51 1.281 . S
C39 O52 1.236 . S
C40 O62 1.240 . S
C40 O63 1.264 . S
O41 Mn36 2.095 1_556 S
O41 C50 1.250 . S
O42 Mn37 2.121 1_556 S
O42 C50 1.258 . S
C43 N44 1.326 . S
C43 C47 1.460 . S
C43 H49 0.929 . S
N44 Mn37 2.257 . S
N44 C43 1.326 . S
N44 C48 1.362 . S
C45 C46 1.258 . S
C45 C48 1.431 . S
C45 C65 1.449 . S
C46 C45 1.258 . S
C46 C47 1.477 . S
C46 H66 0.931 . S
C47 C43 1.460 . S
C47 C46 1.477 . S
C47 H67 0.930 . S
C48 N44 1.362 . S
C48 C45 1.431 . S
C48 C58 1.476 . S
H49 C43 0.929 . S
C50 O41 1.250 . S
C50 O42 1.258 . S
O51 Mn36 2.162 . S
O51 C39 1.281 . S
O52 Mn36 2.297 . S
O52 C39 1.236 . S
N53 Mn37 2.282 . S
N53 C54 1.328 . S
N53 C58 1.318 . S
C54 N53 1.328 . S
C54 C55 1.457 . S
C54 H59 0.954 . S
C55 C54 1.457 . S
C55 C56 1.291 . S
C55 H68 0.931 . S
C56 C55 1.291 . S
C56 C57 1.373 . S
C56 H69 0.929 . S
C57 C56 1.373 . S
C57 C58 1.396 . S
C57 C64 1.403 . S
C58 C48 1.476 . S
C58 N53 1.318 . S
C58 C57 1.396 . S
H59 C54 0.954 . S
O60 Mn36 2.385 . S
O60 C38 1.234 . S
O61 Mn36 2.209 . S
O61 Mn37 2.215 . S
O61 C38 1.283 . S
O62 Mn36 2.094 1_556 S
O62 C40 1.240 . S
O63 Mn37 2.117 1_556 S
O63 C40 1.264 . S
C64 C57 1.403 . S
C64 C65 1.399 . S
C64 H70 0.929 . S
C65 C45 1.449 . S
C65 C64 1.399 . S
C65 H71 0.930 . S
H66 C46 0.931 . S
H67 C47 0.930 . S
H68 C55 0.931 . S
H69 C56 0.929 . S
H70 C64 0.929 . S
H71 C65 0.930 . S
Mn72 O77 2.095 1_564 S
Mn72 O87 2.162 . S
Mn72 O88 2.297 . S
Mn72 O96 2.385 . S
Mn72 O97 2.209 1_565 S
Mn72 O98 2.094 1_554 S
Mn73 O78 2.121 . S
Mn73 N80 2.257 . S
Mn73 N89 2.282 . S
Mn73 O97 2.215 . S
Mn73 O99 2.117 1_554 S
C74 O96 1.212 1_545 S
C74 O97 1.306 . S
C75 O87 1.281 . S
C75 O88 1.236 . S
C76 O98 1.243 . S
C76 O99 1.257 1_565 S
O77 Mn72 2.095 1_546 S
O77 C86 1.250 . S
O78 Mn73 2.121 . S
O78 C86 1.258 1_554 S
C79 N80 1.326 . S
C79 C83 1.460 . S
C79 H85 0.929 . S
N80 Mn73 2.257 . S
N80 C79 1.326 . S
N80 C84 1.362 . S
C81 C82 1.258 . S
C81 C84 1.431 . S
C81 C101 1.449 . S
C82 C81 1.258 . S
C82 C83 1.477 . S
C82 H102 0.931 . S
C83 C79 1.460 . S
C83 C82 1.477 . S
C83 H103 0.930 . S
C84 N80 1.362 . S
C84 C81 1.431 . S
C84 C94 1.476 . S
H85 C79 0.929 . S
C86 O77 1.250 . S
C86 O78 1.258 1_556 S
O87 Mn72 2.162 . S
O87 C75 1.281 . S
O88 Mn72 2.297 . S
O88 C75 1.236 . S
N89 Mn73 2.282 . S
N89 C90 1.328 . S
N89 C94 1.318 . S
C90 N89 1.328 . S
C90 C91 1.457 . S
C90 H95 0.929 . S
C91 C90 1.457 . S
C91 C92 1.291 . S
C91 H104 0.931 . S
C92 C91 1.291 . S
C92 C93 1.373 . S
C92 H105 0.929 . S
C93 C92 1.373 . S
C93 C94 1.396 . S
C93 C100 1.403 . S
C94 C84 1.476 . S
C94 N89 1.318 . S
C94 C93 1.396 . S
H95 C90 0.929 . S
O96 Mn72 2.385 . S
O96 C74 1.212 1_565 S
O97 Mn72 2.209 1_545 S
O97 Mn73 2.215 . S
O97 C74 1.306 . S
O98 Mn72 2.094 1_556 S
O98 C76 1.243 . S
O99 Mn73 2.117 1_556 S
O99 C76 1.257 1_545 S
C100 C93 1.403 . S
C100 C101 1.399 . S
C100 H106 0.929 . S
C101 C81 1.449 . S
C101 C100 1.399 . S
C101 H107 0.930 . S
H102 C82 0.931 . S
H103 C83 0.930 . S
H104 C91 0.931 . S
H105 C92 0.929 . S
H106 C100 0.929 . S
H107 C101 0.930 . S
Mn108 O113 2.095 1_655 S
Mn108 O123 2.162 . S
Mn108 O124 2.297 1_554 S
Mn108 O132 2.385 1_554 S
Mn108 O133 2.209 1_654 S
Mn108 O134 2.094 . S
Mn109 O114 2.121 . S
Mn109 N116 2.257 1_554 S
Mn109 N125 2.282 . S
Mn109 O133 2.215 1_554 S
Mn109 O135 2.117 . S
C110 O132 1.185 1_455 S
C110 O133 1.305 . S
C111 O123 1.281 1_556 S
C111 O124 1.236 . S
C112 O134 1.229 1_455 S
C112 O135 1.274 . S
O113 Mn108 2.095 1_455 S
O113 C122 1.250 . S
O114 Mn109 2.121 . S
O114 C122 1.258 . S
C115 N116 1.326 . S
C115 C119 1.460 . S
C115 H121 0.929 . S
N116 Mn109 2.257 1_556 S
N116 C115 1.326 . S
N116 C120 1.362 . S
C117 C118 1.258 . S
C117 C120 1.431 . S
C117 C137 1.449 . S
C118 C117 1.258 . S
C118 C119 1.477 . S
C118 H138 0.931 . S
C119 C115 1.460 . S
C119 C118 1.477 . S
C119 H139 0.930 . S
C120 N116 1.362 . S
C120 C117 1.431 . S
C120 C130 1.476 . S
H121 C115 0.929 . S
C122 O113 1.250 . S
C122 O114 1.258 . S
O123 Mn108 2.162 . S
O123 C111 1.281 1_554 S
O124 Mn108 2.297 1_556 S
O124 C111 1.236 . S
N125 Mn109 2.282 . S
N125 C126 1.328 . S
N125 C130 1.318 1_554 S
C126 N125 1.328 . S
C126 C127 1.457 1_554 S
C126 H131 0.929 . S
C127 C126 1.457 1_556 S
C127 C128 1.291 . S
C127 H140 0.931 1_556 S
C128 C127 1.291 . S
C128 C129 1.373 . S
C128 H141 0.929 . S
C129 C128 1.373 . S
C129 C130 1.396 . S
C129 C136 1.403 . S
C130 C120 1.476 . S
C130 N125 1.318 1_556 S
C130 C129 1.396 . S
H131 C126 0.929 . S
O132 Mn108 2.385 1_556 S
O132 C110 1.185 1_655 S
O133 Mn108 2.209 1_456 S
O133 Mn109 2.215 1_556 S
O133 C110 1.305 . S
O134 Mn108 2.094 . S
O134 C112 1.229 1_655 S
O135 Mn109 2.117 . S
O135 C112 1.274 . S
C136 C129 1.403 . S
C136 C137 1.399 . S
C136 H142 0.929 . S
C137 C117 1.449 . S
C137 C136 1.399 . S
C137 H143 0.930 . S
H138 C118 0.931 . S
H139 C119 0.930 . S
H140 C127 0.931 1_554 S
H141 C128 0.929 . S
H142 C136 0.929 . S
H143 C137 0.930 . S
Mn144 O149 2.095 1_554 S
Mn144 O159 2.162 . S
Mn144 O160 2.297 . S
Mn144 O168 2.385 . S
Mn144 O169 2.209 . S
Mn144 O170 2.094 1_554 S
Mn145 O150 2.123 . S
Mn145 N152 2.257 . S
Mn145 N161 2.282 . S
Mn145 O169 2.215 . S
Mn145 O171 2.117 1_554 S
C146 O168 1.234 . S
C146 O169 1.283 . S
C147 O159 1.281 . S
C147 O160 1.236 . S
C148 O170 1.240 . S
C148 O171 1.264 . S
O149 Mn144 2.095 1_556 S
O149 C158 1.250 . S
O150 Mn145 2.123 . S
O150 C158 1.255 1_554 S
C151 N152 1.326 . S
C151 C155 1.460 . S
C151 H157 0.929 . S
N152 Mn145 2.257 . S
N152 C151 1.326 . S
N152 C156 1.362 . S
C153 C154 1.258 . S
C153 C156 1.431 . S
C153 C173 1.449 . S
C154 C153 1.258 . S
C154 C155 1.477 . S
C154 H174 0.931 . S
C155 C151 1.460 . S
C155 C154 1.477 . S
C155 H175 0.930 . S
C156 N152 1.362 . S
C156 C153 1.431 . S
C156 C166 1.476 . S
H157 C151 0.929 . S
C158 O149 1.250 . S
C158 O150 1.255 1_556 S
O159 Mn144 2.162 . S
O159 C147 1.281 . S
O160 Mn144 2.297 . S
O160 C147 1.236 . S
N161 Mn145 2.282 . S
N161 C162 1.328 . S
N161 C166 1.318 . S
C162 N161 1.328 . S
C162 C163 1.457 . S
C162 H167 0.929 . S
C163 C162 1.457 . S
C163 C164 1.291 . S
C163 H176 0.931 . S
C164 C163 1.291 . S
C164 C165 1.373 . S
C164 H177 0.929 . S
C165 C164 1.373 . S
C165 C166 1.396 . S
C165 C172 1.403 . S
C166 C156 1.476 . S
C166 N161 1.318 . S
C166 C165 1.396 . S
H167 C162 0.929 . S
O168 Mn144 2.385 . S
O168 C146 1.234 . S
O169 Mn144 2.209 . S
O169 Mn145 2.215 . S
O169 C146 1.283 . S
O170 Mn144 2.094 1_556 S
O170 C148 1.240 . S
O171 Mn145 2.117 1_556 S
O171 C148 1.264 . S
C172 C165 1.403 . S
C172 C173 1.399 . S
C172 H178 0.929 . S
C173 C153 1.449 . S
C173 C172 1.399 . S
C173 H179 0.930 . S
H174 C154 0.931 . S
H175 C155 0.930 . S
H176 C163 0.931 . S
H177 C164 0.929 . S
H178 C172 0.929 . S
H179 C173 0.930 . S
Mn180 O185 2.095 1_545 S
Mn180 O195 2.162 . S
Mn180 O196 2.297 1_554 S
Mn180 O204 2.385 1_554 S
Mn180 O205 2.209 1_544 S
Mn180 O206 2.094 . S
Mn181 O186 2.121 . S
Mn181 N188 2.257 1_554 S
Mn181 N197 2.282 . S
Mn181 O205 2.215 1_554 S
Mn181 O207 2.117 . S
C182 O204 1.234 . S
C182 O205 1.283 1_545 S
C183 O195 1.281 1_556 S
C183 O196 1.236 . S
C184 O206 1.240 . S
C184 O207 1.264 1_545 S
O185 Mn180 2.095 1_565 S
O185 C194 1.250 . S
O186 Mn181 2.121 . S
O186 C194 1.258 . S
C187 N188 1.326 . S
C187 C191 1.460 . S
C187 H193 0.929 . S
N188 Mn181 2.257 1_556 S
N188 C187 1.326 . S
N188 C192 1.362 . S
C189 C190 1.258 . S
C189 C192 1.431 . S
C189 C209 1.449 . S
C190 C189 1.258 . S
C190 C191 1.477 . S
C190 H210 0.931 . S
C191 C187 1.460 . S
C191 C190 1.477 . S
C191 H211 0.930 . S
C192 N188 1.362 . S
C192 C189 1.431 . S
C192 C202 1.476 . S
H193 C187 0.929 . S
C194 O185 1.250 . S
C194 O186 1.258 . S
O195 Mn180 2.162 . S
O195 C183 1.281 1_554 S
O196 Mn180 2.297 1_556 S
O196 C183 1.236 . S
N197 Mn181 2.282 . S
N197 C198 1.328 . S
N197 C202 1.318 1_554 S
C198 N197 1.328 . S
C198 C199 1.457 1_554 S
C198 H203 0.929 . S
C199 C198 1.457 1_556 S
C199 C200 1.291 . S
C199 H212 0.924 1_556 S
C200 C199 1.291 . S
C200 C201 1.373 . S
C200 H213 0.929 . S
C201 C200 1.373 . S
C201 C202 1.396 . S
C201 C208 1.403 . S
C202 C192 1.476 . S
C202 N197 1.318 1_556 S
C202 C201 1.396 . S
H203 C198 0.929 . S
O204 Mn180 2.385 1_556 S
O204 C182 1.234 . S
O205 Mn180 2.209 1_566 S
O205 Mn181 2.215 1_556 S
O205 C182 1.283 1_565 S
O206 Mn180 2.094 . S
O206 C184 1.240 . S
O207 Mn181 2.117 . S
O207 C184 1.264 1_565 S
C208 C201 1.403 . S
C208 C209 1.399 . S
C208 H214 0.929 . S
C209 C189 1.449 . S
C209 C208 1.399 . S
C209 H215 0.930 . S
H210 C190 0.931 . S
H211 C191 0.930 . S
H212 C199 0.924 1_554 S
H213 C200 0.929 . S
H214 C208 0.929 . S
H215 C209 0.930 . S
Mn216 O221 2.095 . S
Mn216 O231 2.162 . S
Mn216 O232 2.297 . S
Mn216 O240 2.385 . S
Mn216 O241 2.209 . S
Mn216 O242 2.094 . S
Mn217 O222 2.121 . S
Mn217 N224 2.257 . S
Mn217 N233 2.282 . S
Mn217 O241 2.215 . S
Mn217 O243 2.117 . S
C218 O240 1.234 . S
C218 O241 1.283 . S
C219 O231 1.281 . S
C219 O232 1.236 . S
C220 O242 1.240 . S
C220 O243 1.264 . S
O221 Mn216 2.095 . S
O221 C230 1.250 . S
O222 Mn217 2.121 . S
O222 C230 1.258 . S
C223 N224 1.326 . S
C223 C227 1.460 . S
C223 H229 0.929 . S
N224 Mn217 2.257 . S
N224 C223 1.326 . S
N224 C228 1.362 . S
C225 C226 1.258 . S
C225 C228 1.431 . S
C225 C245 1.449 . S
C226 C225 1.258 . S
C226 C227 1.477 . S
C226 H246 0.931 . S
C227 C223 1.460 . S
C227 C226 1.477 . S
C227 H247 0.930 . S
C228 N224 1.362 . S
C228 C225 1.431 . S
C228 C238 1.476 . S
H229 C223 0.929 . S
C230 O221 1.250 . S
C230 O222 1.258 . S
O231 Mn216 2.162 . S
O231 C219 1.281 . S
O232 Mn216 2.297 . S
O232 C219 1.236 . S
N233 Mn217 2.282 . S
N233 C234 1.328 . S
N233 C238 1.318 . S
C234 N233 1.328 . S
C234 C235 1.457 . S
C234 H239 0.929 . S
C235 C234 1.457 . S
C235 C236 1.291 . S
C235 H248 0.931 . S
C236 C235 1.291 . S
C236 C237 1.373 . S
C236 H249 0.929 . S
C237 C236 1.373 . S
C237 C238 1.396 . S
C237 C244 1.403 . S
C238 C228 1.476 . S
C238 N233 1.318 . S
C238 C237 1.396 . S
H239 C234 0.929 . S
O240 Mn216 2.385 . S
O240 C218 1.234 . S
O241 Mn216 2.209 . S
O241 Mn217 2.215 . S
O241 C218 1.283 . S
O242 Mn216 2.094 . S
O242 C220 1.240 . S
O243 Mn217 2.117 . S
O243 C220 1.264 . S
C244 C237 1.403 . S
C244 C245 1.399 . S
C244 H250 0.929 . S
C245 C225 1.449 . S
C245 C244 1.399 . S
C245 H251 0.930 . S
H246 C226 0.931 . S
H247 C227 0.930 . S
H248 C235 0.931 . S
H249 C236 0.929 . S
H250 C244 0.929 . S
H251 C245 0.930 . S
Mn252 O257 2.095 . S
Mn252 O267 2.163 1_565 S
Mn252 O268 2.297 . S
Mn252 O276 2.385 . S
Mn252 O277 2.209 . S
Mn252 O278 2.094 . S
Mn253 O258 2.121 . S
Mn253 N260 2.257 . S
Mn253 N269 2.282 . S
Mn253 O277 2.215 . S
Mn253 O279 2.117 . S
C254 O276 1.234 . S
C254 O277 1.283 . S
C255 O267 1.281 . S
C255 O268 1.236 1_545 S
C256 O278 1.240 . S
C256 O279 1.264 . S
O257 Mn252 2.095 . S
O257 C266 1.250 . S
O258 Mn253 2.121 . S
O258 C266 1.258 . S
C259 N260 1.326 . S
C259 C263 1.460 . S
C259 H265 0.929 . S
N260 Mn253 2.257 . S
N260 C259 1.326 . S
N260 C264 1.362 . S
C261 C262 1.258 . S
C261 C264 1.431 . S
C261 C281 1.449 . S
C262 C261 1.258 . S
C262 C263 1.477 . S
C262 H282 0.931 . S
C263 C259 1.460 . S
C263 C262 1.477 . S
C263 H283 0.930 . S
C264 N260 1.362 . S
C264 C261 1.431 . S
C264 C274 1.476 . S
H265 C259 0.929 . S
C266 O257 1.250 . S
C266 O258 1.258 . S
O267 Mn252 2.163 1_545 S
O267 C255 1.281 . S
O268 Mn252 2.297 . S
O268 C255 1.236 1_565 S
N269 Mn253 2.282 . S
N269 C270 1.328 . S
N269 C274 1.318 . S
C270 N269 1.328 . S
C270 C271 1.457 . S
C270 H275 0.929 . S
C271 C270 1.457 . S
C271 C272 1.291 . S
C271 H284 0.931 . S
C272 C271 1.291 . S
C272 C273 1.373 . S
C272 H285 0.929 . S
C273 C272 1.373 . S
C273 C274 1.396 . S
C273 C280 1.403 . S
C274 C264 1.476 . S
C274 N269 1.318 . S
C274 C273 1.396 . S
H275 C270 0.929 . S
O276 Mn252 2.385 . S
O276 C254 1.234 . S
O277 Mn252 2.209 . S
O277 Mn253 2.215 . S
O277 C254 1.283 . S
O278 Mn252 2.094 . S
O278 C256 1.240 . S
O279 Mn253 2.117 . S
O279 C256 1.264 . S
C280 C273 1.403 . S
C280 C281 1.399 . S
C280 H286 0.929 . S
C281 C261 1.449 . S
C281 C280 1.399 . S
C281 H287 0.930 . S
H282 C262 0.931 . S
H283 C263 0.930 . S
H284 C271 0.931 . S
H285 C272 0.929 . S
H286 C280 0.929 . S
H287 C281 0.930 . S
Mn288 O293 2.095 . S
Mn288 O303 2.146 1_455 S
Mn288 O304 2.297 . S
Mn288 O312 2.385 . S
Mn288 O313 2.209 . S
Mn288 O314 2.094 . S
Mn289 O294 2.121 . S
Mn289 N296 2.257 . S
Mn289 N305 2.282 . S
Mn289 O313 2.215 . S
Mn289 O315 2.117 . S
C290 O312 1.234 . S
C290 O313 1.283 . S
C291 O303 1.296 . S
C291 O304 1.236 1_655 S
C292 O314 1.240 . S
C292 O315 1.264 . S
O293 Mn288 2.095 . S
O293 C302 1.250 . S
O294 Mn289 2.121 . S
O294 C302 1.258 . S
C295 N296 1.326 . S
C295 C299 1.460 . S
C295 H301 0.929 . S
N296 Mn289 2.257 . S
N296 C295 1.326 . S
N296 C300 1.362 . S
C297 C298 1.258 . S
C297 C300 1.431 . S
C297 C317 1.449 . S
C298 C297 1.258 . S
C298 C299 1.477 . S
C298 H318 0.931 . S
C299 C295 1.460 . S
C299 C298 1.477 . S
C299 H319 0.930 . S
C300 N296 1.362 . S
C300 C297 1.431 . S
C300 C310 1.476 . S
H301 C295 0.929 . S
C302 O293 1.250 . S
C302 O294 1.258 . S
O303 Mn288 2.146 1_655 S
O303 C291 1.296 . S
O304 Mn288 2.297 . S
O304 C291 1.236 1_455 S
N305 Mn289 2.282 . S
N305 C306 1.328 . S
N305 C310 1.318 . S
C306 N305 1.328 . S
C306 C307 1.457 . S
C306 H311 0.929 . S
C307 C306 1.457 . S
C307 C308 1.291 . S
C307 H320 0.931 . S
C308 C307 1.291 . S
C308 C309 1.373 . S
C308 H321 0.929 . S
C309 C308 1.373 . S
C309 C310 1.396 . S
C309 C316 1.403 . S
C310 C300 1.476 . S
C310 N305 1.318 . S
C310 C309 1.396 . S
H311 C306 0.929 . S
O312 Mn288 2.385 . S
O312 C290 1.234 . S
O313 Mn288 2.209 . S
O313 Mn289 2.215 . S
O313 C290 1.283 . S
O314 Mn288 2.094 . S
O314 C292 1.240 . S
O315 Mn289 2.117 . S
O315 C292 1.264 . S
C316 C309 1.403 . S
C316 C317 1.399 . S
C316 H322 0.929 . S
C317 C297 1.449 . S
C317 C316 1.399 . S
C317 H323 0.930 . S
H318 C298 0.931 . S
H319 C299 0.930 . S
H320 C307 0.931 . S
H321 C308 0.929 . S
H322 C316 0.929 . S
H323 C317 0.930 . S
Mn324 O329 2.095 . S
Mn324 O339 2.162 . S
Mn324 O340 2.297 . S
Mn324 O348 2.385 . S
Mn324 O349 2.209 . S
Mn324 O350 2.094 . S
Mn325 O330 2.121 . S
Mn325 N332 2.257 . S
Mn325 N341 2.282 . S
Mn325 O349 2.215 . S
Mn325 O351 2.117 . S
C326 O348 1.234 . S
C326 O349 1.283 . S
C327 O339 1.281 . S
C327 O340 1.236 . S
C328 O350 1.240 . S
C328 O351 1.264 . S
O329 Mn324 2.095 . S
O329 C338 1.250 . S
O330 Mn325 2.121 . S
O330 C338 1.258 . S
C331 N332 1.326 . S
C331 C335 1.460 . S
C331 H337 0.929 1_565 S
N332 Mn325 2.257 . S
N332 C331 1.326 . S
N332 C336 1.362 . S
C333 C334 1.258 . S
C333 C336 1.431 . S
C333 C353 1.449 . S
C334 C333 1.258 . S
C334 C335 1.477 . S
C334 H354 0.931 . S
C335 C331 1.460 . S
C335 C334 1.477 . S
C335 H355 0.930 1_565 S
C336 N332 1.362 . S
C336 C333 1.431 . S
C336 C346 1.476 . S
H337 C331 0.929 1_545 S
C338 O329 1.250 . S
C338 O330 1.258 . S
O339 Mn324 2.162 . S
O339 C327 1.281 . S
O340 Mn324 2.297 . S
O340 C327 1.236 . S
N341 Mn325 2.282 . S
N341 C342 1.328 . S
N341 C346 1.318 . S
C342 N341 1.328 . S
C342 C343 1.457 . S
C342 H347 0.929 . S
C343 C342 1.457 . S
C343 C344 1.291 . S
C343 H356 0.931 . S
C344 C343 1.291 . S
C344 C345 1.373 . S
C344 H357 0.929 . S
C345 C344 1.373 . S
C345 C346 1.396 . S
C345 C352 1.403 . S
C346 C336 1.476 . S
C346 N341 1.318 . S
C346 C345 1.396 . S
H347 C342 0.929 . S
O348 Mn324 2.385 . S
O348 C326 1.234 . S
O349 Mn324 2.209 . S
O349 Mn325 2.215 . S
O349 C326 1.283 . S
O350 Mn324 2.094 . S
O350 C328 1.240 . S
O351 Mn325 2.117 . S
O351 C328 1.264 . S
C352 C345 1.403 . S
C352 C353 1.399 . S
C352 H358 0.929 . S
C353 C333 1.449 . S
C353 C352 1.399 . S
C353 H359 0.930 . S
H354 C334 0.931 . S
H355 C335 0.930 1_545 S
H356 C343 0.931 . S
H357 C344 0.929 . S
H358 C352 0.929 . S
H359 C353 0.930 . S
Mn360 O365 2.095 . S
Mn360 O375 2.162 . S
Mn360 O376 2.297 . S
Mn360 O384 2.385 . S
Mn360 O385 2.209 . S
Mn360 O386 2.094 . S
Mn361 O366 2.121 . S
Mn361 N368 2.257 . S
Mn361 N377 2.282 . S
Mn361 O385 2.215 . S
Mn361 O387 2.117 . S
C362 O384 1.234 . S
C362 O385 1.283 . S
C363 O375 1.283 1_655 S
C363 O376 1.189 1_655 S
C364 O386 1.240 . S
C364 O387 1.264 . S
O365 Mn360 2.095 . S
O365 C374 1.250 . S
O366 Mn361 2.121 . S
O366 C374 1.258 . S
C367 N368 1.326 . S
C367 C371 1.460 . S
C367 H373 0.929 . S
N368 Mn361 2.257 . S
N368 C367 1.326 . S
N368 C372 1.362 . S
C369 C370 1.258 . S
C369 C372 1.431 . S
C369 C389 1.449 . S
C370 C369 1.258 . S
C370 C371 1.477 . S
C370 H390 0.931 . S
C371 C367 1.460 . S
C371 C370 1.477 . S
C371 H391 0.930 . S
C372 N368 1.362 . S
C372 C369 1.431 . S
C372 C382 1.476 . S
H373 C367 0.929 . S
C374 O365 1.250 . S
C374 O366 1.258 . S
O375 Mn360 2.162 . S
O375 C363 1.283 1_455 S
O376 Mn360 2.297 . S
O376 C363 1.189 1_455 S
N377 Mn361 2.282 . S
N377 C378 1.328 . S
N377 C382 1.318 . S
C378 N377 1.328 . S
C378 C379 1.457 . S
C378 H383 0.929 . S
C379 C378 1.457 . S
C379 C380 1.291 . S
C379 H392 0.931 . S
C380 C379 1.291 . S
C380 C381 1.373 . S
C380 H393 0.929 . S
C381 C380 1.373 . S
C381 C382 1.396 . S
C381 C388 1.403 . S
C382 C372 1.476 . S
C382 N377 1.318 . S
C382 C381 1.396 . S
H383 C378 0.929 . S
O384 Mn360 2.385 . S
O384 C362 1.234 . S
O385 Mn360 2.209 . S
O385 Mn361 2.215 . S
O385 C362 1.283 . S
O386 Mn360 2.094 . S
O386 C364 1.240 . S
O387 Mn361 2.117 . S
O387 C364 1.264 . S
C388 C381 1.403 . S
C388 C389 1.399 . S
C388 H394 0.929 . S
C389 C369 1.449 . S
C389 C388 1.399 . S
C389 H395 0.930 . S
H390 C370 0.931 . S
H391 C371 0.930 . S
H392 C379 0.931 . S
H393 C380 0.929 . S
H394 C388 0.929 . S
H395 C389 0.930 . S
Mn396 O401 2.095 . S
Mn396 O411 2.162 . S
Mn396 O412 2.297 . S
Mn396 O420 2.385 . S
Mn396 O421 2.209 . S
Mn396 O422 2.094 . S
Mn397 O402 2.121 . S
Mn397 N404 2.257 . S
Mn397 N413 2.282 . S
Mn397 O421 2.215 . S
Mn397 O423 2.117 . S
C398 O420 1.234 . S
C398 O421 1.283 . S
C399 O411 1.281 . S
C399 O412 1.236 . S
C400 O422 1.240 . S
C400 O423 1.264 . S
O401 Mn396 2.095 . S
O401 C410 1.250 . S
O402 Mn397 2.121 . S
O402 C410 1.258 . S
C403 N404 1.326 . S
C403 C407 1.460 . S
C403 H409 0.929 . S
N404 Mn397 2.257 . S
N404 C403 1.326 . S
N404 C408 1.362 . S
C405 C406 1.258 . S
C405 C408 1.431 . S
C405 C425 1.449 . S
C406 C405 1.258 . S
C406 C407 1.477 . S
C406 H426 0.931 . S
C407 C403 1.460 . S
C407 C406 1.477 . S
C407 H427 0.930 . S
C408 N404 1.362 . S
C408 C405 1.431 . S
C408 C418 1.476 . S
H409 C403 0.929 . S
C410 O401 1.250 . S
C410 O402 1.258 . S
O411 Mn396 2.162 . S
O411 C399 1.281 . S
O412 Mn396 2.297 . S
O412 C399 1.236 . S
N413 Mn397 2.282 . S
N413 C414 1.328 . S
N413 C418 1.318 . S
C414 N413 1.328 . S
C414 C415 1.457 . S
C414 H419 0.929 . S
C415 C414 1.457 . S
C415 C416 1.291 . S
C415 H428 0.931 . S
C416 C415 1.291 . S
C416 C417 1.373 . S
C416 H429 0.929 . S
C417 C416 1.373 . S
C417 C418 1.396 . S
C417 C424 1.403 . S
C418 C408 1.476 . S
C418 N413 1.318 . S
C418 C417 1.396 . S
H419 C414 0.929 . S
O420 Mn396 2.385 . S
O420 C398 1.234 . S
O421 Mn396 2.209 . S
O421 Mn397 2.215 . S
O421 C398 1.283 . S
O422 Mn396 2.094 . S
O422 C400 1.240 . S
O423 Mn397 2.117 . S
O423 C400 1.264 . S
C424 C417 1.403 . S
C424 C425 1.399 . S
C424 H430 0.929 . S
C425 C405 1.449 . S
C425 C424 1.399 . S
C425 H431 0.930 . S
H426 C406 0.931 . S
H427 C407 0.930 . S
H428 C415 0.931 . S
H429 C416 0.929 . S
H430 C424 0.929 . S
H431 C425 0.930 . S
Mn432 O437 2.095 . S
Mn432 O447 2.162 . S
Mn432 O448 2.297 . S
Mn432 O456 2.385 . S
Mn432 O457 2.209 . S
Mn432 O458 2.094 . S
Mn433 O438 2.121 . S
Mn433 N440 2.257 . S
Mn433 N449 2.282 . S
Mn433 O457 2.215 . S
Mn433 O459 2.117 . S
C434 O456 1.234 . S
C434 O457 1.283 . S
C435 O447 1.252 1_565 S
C435 O448 1.227 1_565 S
C436 O458 1.240 . S
C436 O459 1.264 . S
O437 Mn432 2.095 . S
O437 C446 1.250 . S
O438 Mn433 2.121 . S
O438 C446 1.258 . S
C439 N440 1.326 . S
C439 C443 1.460 . S
C439 H445 0.929 . S
N440 Mn433 2.257 . S
N440 C439 1.326 . S
N440 C444 1.362 . S
C441 C442 1.258 . S
C441 C444 1.431 . S
C441 C461 1.449 . S
C442 C441 1.258 . S
C442 C443 1.477 . S
C442 H462 0.931 . S
C443 C439 1.460 . S
C443 C442 1.477 . S
C443 H463 0.930 . S
C444 N440 1.362 . S
C444 C441 1.431 . S
C444 C454 1.476 . S
H445 C439 0.929 . S
C446 O437 1.250 . S
C446 O438 1.258 . S
O447 Mn432 2.162 . S
O447 C435 1.252 1_545 S
O448 Mn432 2.297 . S
O448 C435 1.227 1_545 S
N449 Mn433 2.282 . S
N449 C450 1.328 . S
N449 C454 1.318 . S
C450 N449 1.328 . S
C450 C451 1.457 . S
C450 H455 0.929 . S
C451 C450 1.457 . S
C451 C452 1.291 . S
C451 H464 0.931 . S
C452 C451 1.291 . S
C452 C453 1.373 . S
C452 H465 0.929 . S
C453 C452 1.373 . S
C453 C454 1.396 . S
C453 C460 1.403 . S
C454 C444 1.476 . S
C454 N449 1.318 . S
C454 C453 1.396 . S
H455 C450 0.929 . S
O456 Mn432 2.385 . S
O456 C434 1.234 . S
O457 Mn432 2.209 . S
O457 Mn433 2.215 . S
O457 C434 1.283 . S
O458 Mn432 2.094 . S
O458 C436 1.240 . S
O459 Mn433 2.117 . S
O459 C436 1.264 . S
C460 C453 1.403 . S
C460 C461 1.399 . S
C460 H466 0.929 . S
C461 C441 1.449 . S
C461 C460 1.399 . S
C461 H467 0.930 . S
H462 C442 0.931 . S
H463 C443 0.930 . S
H464 C451 0.931 . S
H465 C452 0.929 . S
H466 C460 0.929 . S
H467 C461 0.930 . S
Mn468 O473 2.095 . S
Mn468 O483 2.162 . S
Mn468 O484 2.297 . S
Mn468 O492 2.385 . S
Mn468 O493 2.209 . S
Mn468 O494 2.094 . S
Mn469 O474 2.121 . S
Mn469 N476 2.257 . S
Mn469 N485 2.282 . S
Mn469 O493 2.215 . S
Mn469 O495 2.117 . S
C470 O492 1.234 . S
C470 O493 1.283 . S
C471 O483 1.281 . S
C471 O484 1.236 . S
C472 O494 1.240 . S
C472 O495 1.264 . S
O473 Mn468 2.095 . S
O473 C482 1.250 . S
O474 Mn469 2.121 . S
O474 C482 1.258 . S
C475 N476 1.326 . S
C475 C479 1.460 . S
C475 H481 0.927 . S
N476 Mn469 2.257 . S
N476 C475 1.326 . S
N476 C480 1.362 . S
C477 C478 1.258 . S
C477 C480 1.431 . S
C477 C497 1.449 . S
C478 C477 1.258 . S
C478 C479 1.477 . S
C478 H498 0.931 . S
C479 C475 1.460 . S
C479 C478 1.477 . S
C479 H499 0.930 1_655 S
C480 N476 1.362 . S
C480 C477 1.431 . S
C480 C490 1.476 . S
H481 C475 0.927 . S
C482 O473 1.250 . S
C482 O474 1.258 . S
O483 Mn468 2.162 . S
O483 C471 1.281 . S
O484 Mn468 2.297 . S
O484 C471 1.236 . S
N485 Mn469 2.282 . S
N485 C486 1.328 . S
N485 C490 1.318 . S
C486 N485 1.328 . S
C486 C487 1.457 . S
C486 H491 0.929 . S
C487 C486 1.457 . S
C487 C488 1.291 . S
C487 H500 0.931 . S
C488 C487 1.291 . S
C488 C489 1.373 . S
C488 H501 0.929 . S
C489 C488 1.373 . S
C489 C490 1.396 . S
C489 C496 1.403 . S
C490 C480 1.476 . S
C490 N485 1.318 . S
C490 C489 1.396 . S
H491 C486 0.929 . S
O492 Mn468 2.385 . S
O492 C470 1.234 . S
O493 Mn468 2.209 . S
O493 Mn469 2.215 . S
O493 C470 1.283 . S
O494 Mn468 2.094 . S
O494 C472 1.240 . S
O495 Mn469 2.117 . S
O495 C472 1.264 . S
C496 C489 1.403 . S
C496 C497 1.399 . S
C496 H502 0.929 . S
C497 C477 1.449 . S
C497 C496 1.399 . S
C497 H503 0.930 . S
H498 C478 0.931 . S
H499 C479 0.930 1_455 S
H500 C487 0.931 . S
H501 C488 0.929 . S
H502 C496 0.929 . S
H503 C497 0.930 . S
Mn504 O509 2.095 . S
Mn504 O519 2.162 . S
Mn504 O520 2.297 . S
Mn504 O528 2.385 . S
Mn504 O529 2.209 . S
Mn504 O530 2.094 . S
Mn505 O510 2.121 . S
Mn505 N512 2.257 . S
Mn505 N521 2.282 . S
Mn505 O529 2.215 . S
Mn505 O531 2.117 . S
C506 O528 1.234 . S
C506 O529 1.283 . S
C507 O519 1.281 . S
C507 O520 1.236 . S
C508 O530 1.240 . S
C508 O531 1.264 . S
O509 Mn504 2.095 . S
O509 C518 1.250 . S
O510 Mn505 2.121 . S
O510 C518 1.258 . S
C511 N512 1.326 . S
C511 C515 1.460 . S
C511 H517 0.929 . S
N512 Mn505 2.257 . S
N512 C511 1.326 . S
N512 C516 1.362 . S
C513 C514 1.258 . S
C513 C516 1.431 . S
C513 C533 1.449 . S
C514 C513 1.258 . S
C514 C515 1.477 . S
C514 H534 0.931 . S
C515 C511 1.460 . S
C515 C514 1.477 . S
C515 H535 0.930 . S
C516 N512 1.362 . S
C516 C513 1.431 . S
C516 C526 1.476 . S
H517 C511 0.929 . S
C518 O509 1.250 . S
C518 O510 1.258 . S
O519 Mn504 2.162 . S
O519 C507 1.281 . S
O520 Mn504 2.297 . S
O520 C507 1.236 . S
N521 Mn505 2.282 . S
N521 C522 1.328 . S
N521 C526 1.318 . S
C522 N521 1.328 . S
C522 C523 1.457 . S
C522 H527 0.929 . S
C523 C522 1.457 . S
C523 C524 1.291 . S
C523 H536 0.931 . S
C524 C523 1.291 . S
C524 C525 1.373 . S
C524 H537 0.929 . S
C525 C524 1.373 . S
C525 C526 1.396 . S
C525 C532 1.403 . S
C526 C516 1.476 . S
C526 N521 1.318 . S
C526 C525 1.396 . S
H527 C522 0.929 . S
O528 Mn504 2.385 . S
O528 C506 1.234 . S
O529 Mn504 2.209 . S
O529 Mn505 2.215 . S
O529 C506 1.283 . S
O530 Mn504 2.094 . S
O530 C508 1.240 . S
O531 Mn505 2.117 . S
O531 C508 1.264 . S
C532 C525 1.403 . S
C532 C533 1.399 . S
C532 H538 0.929 . S
C533 C513 1.449 . S
C533 C532 1.399 . S
C533 H539 0.930 . S
H534 C514 0.931 . S
H535 C515 0.930 . S
H536 C523 0.931 . S
H537 C524 0.929 . S
H538 C532 0.929 . S
H539 C533 0.930 . S
Mn540 O545 2.095 . S
Mn540 O555 2.162 . S
Mn540 O556 2.297 . S
Mn540 O564 2.385 . S
Mn540 O565 2.209 . S
Mn540 O566 2.094 . S
Mn541 O546 2.121 . S
Mn541 N548 2.257 . S
Mn541 N557 2.282 . S
Mn541 O565 2.215 . S
Mn541 O567 2.117 . S
C542 O564 1.234 . S
C542 O565 1.283 . S
C543 O555 1.281 . S
C543 O556 1.236 . S
C544 O566 1.240 . S
C544 O567 1.264 . S
O545 Mn540 2.095 . S
O545 C554 1.250 . S
O546 Mn541 2.121 . S
O546 C554 1.258 . S
C547 N548 1.326 . S
C547 C551 1.460 . S
C547 H553 0.929 . S
N548 Mn541 2.257 . S
N548 C547 1.326 . S
N548 C552 1.362 . S
C549 C550 1.258 . S
C549 C552 1.431 . S
C549 C569 1.449 . S
C550 C549 1.258 . S
C550 C551 1.477 . S
C550 H570 0.931 . S
C551 C547 1.460 . S
C551 C550 1.477 . S
C551 H571 0.930 . S
C552 N548 1.362 . S
C552 C549 1.431 . S
C552 C562 1.476 . S
H553 C547 0.929 . S
C554 O545 1.250 . S
C554 O546 1.258 . S
O555 Mn540 2.162 . S
O555 C543 1.281 . S
O556 Mn540 2.297 . S
O556 C543 1.236 . S
N557 Mn541 2.282 . S
N557 C558 1.328 . S
N557 C562 1.318 . S
C558 N557 1.328 . S
C558 C559 1.457 . S
C558 H563 0.929 . S
C559 C558 1.457 . S
C559 C560 1.291 . S
C559 H572 0.931 . S
C560 C559 1.291 . S
C560 C561 1.373 . S
C560 H573 0.929 . S
C561 C560 1.373 . S
C561 C562 1.396 . S
C561 C568 1.403 . S
C562 C552 1.476 . S
C562 N557 1.318 . S
C562 C561 1.396 . S
H563 C558 0.929 . S
O564 Mn540 2.385 . S
O564 C542 1.234 . S
O565 Mn540 2.209 . S
O565 Mn541 2.215 . S
O565 C542 1.283 . S
O566 Mn540 2.094 . S
O566 C544 1.240 . S
O567 Mn541 2.117 . S
O567 C544 1.264 . S
C568 C561 1.403 . S
C568 C569 1.399 . S
C568 H574 0.929 . S
C569 C549 1.449 . S
C569 C568 1.399 . S
C569 H575 0.930 . S
H570 C550 0.931 . S
H571 C551 0.930 . S
H572 C559 0.931 . S
H573 C560 0.929 . S
H574 C568 0.929 . S
H575 C569 0.930 . S
Mn576 O581 2.095 . S
Mn576 O591 2.162 . S
Mn576 O592 2.297 . S
Mn576 O600 2.385 . S
Mn576 O601 2.209 . S
Mn576 O602 2.094 . S
Mn577 O582 2.121 . S
Mn577 N584 2.257 . S
Mn577 N593 2.282 . S
Mn577 O601 2.215 . S
Mn577 O603 2.117 . S
C578 O600 1.234 . S
C578 O601 1.283 . S
C579 O591 1.281 . S
C579 O592 1.236 . S
C580 O602 1.240 . S
C580 O603 1.264 . S
O581 Mn576 2.095 . S
O581 C590 1.250 . S
O582 Mn577 2.121 . S
O582 C590 1.258 . S
C583 N584 1.326 . S
C583 C587 1.460 . S
C583 H589 0.929 1_545 S
N584 Mn577 2.257 . S
N584 C583 1.326 . S
N584 C588 1.362 . S
C585 C586 1.258 . S
C585 C588 1.431 . S
C585 C605 1.449 . S
C586 C585 1.258 . S
C586 C587 1.477 . S
C586 H606 0.931 . S
C587 C583 1.460 . S
C587 C586 1.477 . S
C587 H607 0.930 1_545 S
C588 N584 1.362 . S
C588 C585 1.431 . S
C588 C598 1.476 . S
H589 C583 0.929 1_565 S
C590 O581 1.250 . S
C590 O582 1.258 . S
O591 Mn576 2.162 . S
O591 C579 1.281 . S
O592 Mn576 2.297 . S
O592 C579 1.236 . S
N593 Mn577 2.282 . S
N593 C594 1.328 . S
N593 C598 1.318 . S
C594 N593 1.328 . S
C594 C595 1.457 . S
C594 H599 0.929 . S
C595 C594 1.457 . S
C595 C596 1.291 . S
C595 H608 0.931 . S
C596 C595 1.291 . S
C596 C597 1.373 . S
C596 H609 0.929 . S
C597 C596 1.373 . S
C597 C598 1.396 . S
C597 C604 1.403 . S
C598 C588 1.476 . S
C598 N593 1.318 . S
C598 C597 1.396 . S
H599 C594 0.929 . S
O600 Mn576 2.385 . S
O600 C578 1.234 . S
O601 Mn576 2.209 . S
O601 Mn577 2.215 . S
O601 C578 1.283 . S
O602 Mn576 2.094 . S
O602 C580 1.240 . S
O603 Mn577 2.117 . S
O603 C580 1.264 . S
C604 C597 1.403 . S
C604 C605 1.399 . S
C604 H610 0.929 . S
C605 C585 1.449 . S
C605 C604 1.399 . S
C605 H611 0.930 . S
H606 C586 0.931 . S
H607 C587 0.930 1_565 S
H608 C595 0.931 . S
H609 C596 0.929 . S
H610 C604 0.929 . S
H611 C605 0.930 . S
Mn612 O617 2.095 . S
Mn612 O627 2.170 . S
Mn612 O628 2.297 . S
Mn612 O636 2.385 . S
Mn612 O637 2.209 . S
Mn612 O638 2.094 . S
Mn613 O618 2.121 . S
Mn613 N620 2.257 . S
Mn613 N629 2.282 . S
Mn613 O637 2.215 . S
Mn613 O639 2.117 . S
C614 O636 1.234 . S
C614 O637 1.283 . S
C615 O627 1.273 1_455 S
C615 O628 1.236 1_455 S
C616 O638 1.240 . S
C616 O639 1.264 . S
O617 Mn612 2.095 . S
O617 C626 1.250 . S
O618 Mn613 2.121 . S
O618 C626 1.258 . S
C619 N620 1.326 . S
C619 C623 1.460 . S
C619 H625 0.929 . S
N620 Mn613 2.257 . S
N620 C619 1.326 . S
N620 C624 1.362 . S
C621 C622 1.258 . S
C621 C624 1.431 . S
C621 C641 1.449 . S
C622 C621 1.258 . S
C622 C623 1.477 . S
C622 H642 0.931 . S
C623 C619 1.460 . S
C623 C622 1.477 . S
C623 H643 0.930 . S
C624 N620 1.362 . S
C624 C621 1.431 . S
C624 C634 1.476 . S
H625 C619 0.929 . S
C626 O617 1.250 . S
C626 O618 1.258 . S
O627 Mn612 2.170 . S
O627 C615 1.273 1_655 S
O628 Mn612 2.297 . S
O628 C615 1.236 1_655 S
N629 Mn613 2.282 . S
N629 C630 1.328 . S
N629 C634 1.318 . S
C630 N629 1.328 . S
C630 C631 1.457 . S
C630 H635 0.929 . S
C631 C630 1.457 . S
C631 C632 1.291 . S
C631 H644 0.931 . S
C632 C631 1.291 . S
C632 C633 1.373 . S
C632 H645 0.929 . S
C633 C632 1.373 . S
C633 C634 1.396 . S
C633 C640 1.403 . S
C634 C624 1.476 . S
C634 N629 1.318 . S
C634 C633 1.396 . S
H635 C630 0.929 . S
O636 Mn612 2.385 . S
O636 C614 1.234 . S
O637 Mn612 2.209 . S
O637 Mn613 2.215 . S
O637 C614 1.283 . S
O638 Mn612 2.094 . S
O638 C616 1.240 . S
O639 Mn613 2.117 . S
O639 C616 1.264 . S
C640 C633 1.403 . S
C640 C641 1.399 . S
C640 H646 0.929 . S
C641 C621 1.449 . S
C641 C640 1.399 . S
C641 H647 0.930 . S
H642 C622 0.931 . S
H643 C623 0.930 . S
H644 C631 0.931 . S
H645 C632 0.929 . S
H646 C640 0.929 . S
H647 C641 0.930 . S
H648 C675 0.929 . S
N649 C674 1.433 . S
N649 C680 1.435 . S
N649 C686 1.423 . S
H650 C676 0.930 . S
H651 C679 0.931 . S
H652 C678 0.929 . S
H653 C681 0.930 . S
H654 C682 0.932 . S
H655 C685 0.929 . S
H656 C684 0.931 . S
H657 C687 0.929 . S
H658 C691 0.932 . S
H659 C688 0.931 . S
H660 C690 0.929 . S
H661 C693 0.929 . S
H662 C694 0.930 . S
H663 C696 0.929 . S
H664 C697 0.931 . S
H665 C699 0.930 . S
H666 C700 0.932 . S
H667 C702 0.931 . S
H668 C703 0.929 . S
H669 C705 0.929 . S
H670 C706 0.931 . S
H671 C708 0.929 . S
N672 C692 1.433 . S
N672 C698 1.435 . S
N672 C704 1.423 . S
H673 C709 0.932 . S
C674 N649 1.433 . S
C674 C675 1.363 . S
C674 C679 1.370 . S
C675 H648 0.929 . S
C675 C674 1.363 . S
C675 C676 1.385 . S
C676 H650 0.930 . S
C676 C675 1.385 . S
C676 C677 1.357 . S
C677 C676 1.357 . S
C677 C678 1.406 . S
C678 H652 0.929 . S
C678 C677 1.406 . S
C678 C679 1.391 . S
C679 H651 0.931 . S
C679 C674 1.370 . S
C679 C678 1.391 . S
C680 N649 1.435 . S
C680 C681 1.358 . S
C680 C685 1.371 . S
C681 H653 0.930 . S
C681 C680 1.358 . S
C681 C682 1.405 . S
C682 H654 0.932 . S
C682 C681 1.405 . S
C682 C683 1.383 . S
C683 C682 1.383 . S
C683 C684 1.393 . S
C684 H656 0.931 . S
C684 C683 1.393 . S
C684 C685 1.382 . S
C685 H655 0.929 . S
C685 C680 1.371 . S
C685 C684 1.382 . S
C686 N649 1.423 . S
C686 C687 1.362 . S
C686 C691 1.388 . S
C687 H657 0.929 . S
C687 C686 1.362 . S
C687 C688 1.376 . S
C688 H659 0.931 . S
C688 C687 1.376 . S
C688 C689 1.396 . S
C689 C688 1.396 . S
C689 C690 1.348 . S
C689 C707 1.472 . S
C690 H660 0.929 . S
C690 C689 1.348 . S
C690 C691 1.443 . S
C691 H658 0.932 . S
C691 C686 1.388 . S
C691 C690 1.443 . S
C692 N672 1.433 . S
C692 C693 1.363 . S
C692 C697 1.370 . S
C693 H661 0.929 . S
C693 C692 1.363 . S
C693 C694 1.385 . S
C694 H662 0.930 . S
C694 C693 1.385 . S
C694 C695 1.357 . S
C695 C694 1.357 . S
C695 C696 1.406 . S
C696 H663 0.929 . S
C696 C695 1.406 . S
C696 C697 1.391 . S
C697 H664 0.931 . S
C697 C692 1.370 . S
C697 C696 1.391 . S
C698 N672 1.435 . S
C698 C699 1.358 . S
C698 C703 1.371 . S
C699 H665 0.930 . S
C699 C698 1.358 . S
C699 C700 1.405 . S
C700 H666 0.932 . S
C700 C699 1.405 . S
C700 C701 1.383 . S
C701 C700 1.383 . S
C701 C702 1.393 . S
C702 H667 0.931 . S
C702 C701 1.393 . S
C702 C703 1.382 . S
C703 H668 0.929 . S
C703 C698 1.371 . S
C703 C702 1.382 . S
C704 N672 1.423 . S
C704 C705 1.362 . S
C704 C709 1.388 . S
C705 H669 0.929 . S
C705 C704 1.362 . S
C705 C706 1.376 . S
C706 H670 0.931 . S
C706 C705 1.376 . S
C706 C707 1.396 . S
C707 C689 1.472 . S
C707 C706 1.396 . S
C707 C708 1.348 . S
C708 H671 0.929 . S
C708 C707 1.348 . S
C708 C709 1.443 . S
C709 H673 0.932 . S
C709 C704 1.388 . S
C709 C708 1.443 . S
H710 C737 0.929 . S
N711 C736 1.433 . S
N711 C742 1.435 . S
N711 C748 1.423 . S
H712 C738 0.930 . S
H713 C741 0.931 . S
H714 C740 0.929 . S
H715 C743 0.930 . S
H716 C744 0.932 . S
H717 C747 0.929 . S
H718 C746 0.931 . S
H719 C749 0.929 . S
H720 C753 0.932 . S
H721 C750 0.931 . S
H722 C752 0.929 . S
H723 C755 0.929 . S
H724 C756 0.930 . S
H725 C758 0.929 . S
H726 C759 0.931 . S
H727 C761 0.930 . S
H728 C762 0.932 . S
H729 C764 0.931 . S
H730 C765 0.929 . S
H731 C767 0.929 . S
H732 C768 0.931 . S
H733 C770 0.929 . S
N734 C754 1.433 . S
N734 C760 1.435 . S
N734 C766 1.423 . S
H735 C771 0.932 . S
C736 N711 1.433 . S
C736 C737 1.363 . S
C736 C741 1.370 . S
C737 H710 0.929 . S
C737 C736 1.363 . S
C737 C738 1.385 . S
C738 H712 0.930 . S
C738 C737 1.385 . S
C738 C739 1.357 . S
C739 C738 1.357 . S
C739 C740 1.406 . S
C740 H714 0.929 . S
C740 C739 1.406 . S
C740 C741 1.391 . S
C741 H713 0.931 . S
C741 C736 1.370 . S
C741 C740 1.391 . S
C742 N711 1.435 . S
C742 C743 1.358 . S
C742 C747 1.371 . S
C743 H715 0.930 . S
C743 C742 1.358 . S
C743 C744 1.405 . S
C744 H716 0.932 . S
C744 C743 1.405 . S
C744 C745 1.383 . S
C745 C744 1.383 . S
C745 C746 1.393 . S
C746 H718 0.931 . S
C746 C745 1.393 . S
C746 C747 1.382 . S
C747 H717 0.929 . S
C747 C742 1.371 . S
C747 C746 1.382 . S
C748 N711 1.423 . S
C748 C749 1.362 . S
C748 C753 1.388 . S
C749 H719 0.929 . S
C749 C748 1.362 . S
C749 C750 1.376 . S
C750 H721 0.931 . S
C750 C749 1.376 . S
C750 C751 1.396 . S
C751 C750 1.396 . S
C751 C752 1.348 . S
C751 C769 1.472 . S
C752 H722 0.929 . S
C752 C751 1.348 . S
C752 C753 1.443 . S
C753 H720 0.932 . S
C753 C748 1.388 . S
C753 C752 1.443 . S
C754 N734 1.433 . S
C754 C755 1.363 . S
C754 C759 1.370 . S
C755 H723 0.929 . S
C755 C754 1.363 . S
C755 C756 1.385 . S
C756 H724 0.930 . S
C756 C755 1.385 . S
C756 C757 1.357 . S
C757 C756 1.357 . S
C757 C758 1.406 . S
C758 H725 0.929 . S
C758 C757 1.406 . S
C758 C759 1.391 . S
C759 H726 0.931 . S
C759 C754 1.370 . S
C759 C758 1.391 . S
C760 N734 1.435 . S
C760 C761 1.358 . S
C760 C765 1.371 . S
C761 H727 0.930 . S
C761 C760 1.358 . S
C761 C762 1.405 . S
C762 H728 0.932 . S
C762 C761 1.405 . S
C762 C763 1.383 . S
C763 C762 1.383 . S
C763 C764 1.393 . S
C764 H729 0.931 . S
C764 C763 1.393 . S
C764 C765 1.382 . S
C765 H730 0.929 . S
C765 C760 1.371 . S
C765 C764 1.382 . S
C766 N734 1.423 . S
C766 C767 1.362 . S
C766 C771 1.388 . S
C767 H731 0.929 . S
C767 C766 1.362 . S
C767 C768 1.376 . S
C768 H732 0.931 . S
C768 C767 1.376 . S
C768 C769 1.396 . S
C769 C751 1.472 . S
C769 C768 1.396 . S
C769 C770 1.348 . S
C770 H733 0.929 . S
C770 C769 1.348 . S
C770 C771 1.443 . S
C771 H735 0.932 . S
C771 C766 1.388 . S
C771 C770 1.443 . S
H772 C799 0.929 . S
N773 C798 1.433 . S
N773 C804 1.435 . S
N773 C810 1.423 . S
H774 C800 0.930 . S
H775 C803 0.931 . S
H776 C802 0.929 . S
H777 C805 0.930 . S
H778 C806 0.932 . S
H779 C809 0.929 . S
H780 C808 0.931 . S
H781 C811 0.929 . S
H782 C815 0.932 . S
H783 C812 0.931 . S
H784 C814 0.929 . S
H785 C817 0.929 . S
H786 C818 0.930 . S
H787 C820 0.929 . S
H788 C821 0.931 . S
H789 C823 0.930 . S
H790 C824 0.932 . S
H791 C826 0.931 . S
H792 C827 0.929 . S
H793 C829 0.929 . S
H794 C830 0.931 . S
H795 C832 0.929 . S
N796 C816 1.433 . S
N796 C822 1.435 . S
N796 C828 1.423 . S
H797 C833 0.932 . S
C798 N773 1.433 . S
C798 C799 1.363 . S
C798 C803 1.370 . S
C799 H772 0.929 . S
C799 C798 1.363 . S
C799 C800 1.385 . S
C800 H774 0.930 . S
C800 C799 1.385 . S
C800 C801 1.357 . S
C801 C800 1.357 . S
C801 C802 1.406 . S
C802 H776 0.929 . S
C802 C801 1.406 . S
C802 C803 1.391 . S
C803 H775 0.931 . S
C803 C798 1.370 . S
C803 C802 1.391 . S
C804 N773 1.435 . S
C804 C805 1.358 . S
C804 C809 1.371 . S
C805 H777 0.930 . S
C805 C804 1.358 . S
C805 C806 1.405 . S
C806 H778 0.932 . S
C806 C805 1.405 . S
C806 C807 1.383 . S
C807 C806 1.383 . S
C807 C808 1.393 . S
C808 H780 0.931 . S
C808 C807 1.393 . S
C808 C809 1.382 . S
C809 H779 0.929 . S
C809 C804 1.371 . S
C809 C808 1.382 . S
C810 N773 1.423 . S
C810 C811 1.362 . S
C810 C815 1.388 . S
C811 H781 0.929 . S
C811 C810 1.362 . S
C811 C812 1.376 . S
C812 H783 0.931 . S
C812 C811 1.376 . S
C812 C813 1.396 . S
C813 C812 1.396 . S
C813 C814 1.348 . S
C813 C831 1.472 . S
C814 H784 0.929 . S
C814 C813 1.348 . S
C814 C815 1.443 . S
C815 H782 0.932 . S
C815 C810 1.388 . S
C815 C814 1.443 . S
C816 N796 1.433 . S
C816 C817 1.363 . S
C816 C821 1.370 . S
C817 H785 0.929 . S
C817 C816 1.363 . S
C817 C818 1.385 . S
C818 H786 0.930 . S
C818 C817 1.385 . S
C818 C819 1.357 . S
C819 C818 1.357 . S
C819 C820 1.406 . S
C820 H787 0.929 . S
C820 C819 1.406 . S
C820 C821 1.391 . S
C821 H788 0.931 . S
C821 C816 1.370 . S
C821 C820 1.391 . S
C822 N796 1.435 . S
C822 C823 1.358 . S
C822 C827 1.371 . S
C823 H789 0.930 . S
C823 C822 1.358 . S
C823 C824 1.405 . S
C824 H790 0.932 . S
C824 C823 1.405 . S
C824 C825 1.383 . S
C825 C824 1.383 . S
C825 C826 1.393 . S
C826 H791 0.931 . S
C826 C825 1.393 . S
C826 C827 1.382 . S
C827 H792 0.929 . S
C827 C822 1.371 . S
C827 C826 1.382 . S
C828 N796 1.423 . S
C828 C829 1.362 . S
C828 C833 1.388 . S
C829 H793 0.929 . S
C829 C828 1.362 . S
C829 C830 1.376 . S
C830 H794 0.931 . S
C830 C829 1.376 . S
C830 C831 1.396 . S
C831 C813 1.472 . S
C831 C830 1.396 . S
C831 C832 1.348 . S
C832 H795 0.929 . S
C832 C831 1.348 . S
C832 C833 1.443 . S
C833 H797 0.932 . S
C833 C828 1.388 . S
C833 C832 1.443 . S
H834 C861 0.929 . S
N835 C860 1.433 . S
N835 C866 1.435 . S
N835 C872 1.423 . S
H836 C862 0.930 . S
H837 C865 0.931 . S
H838 C864 0.929 . S
H839 C867 0.930 . S
H840 C868 0.932 . S
H841 C871 0.929 . S
H842 C870 0.931 . S
H843 C873 0.929 . S
H844 C877 0.932 . S
H845 C874 0.931 . S
H846 C876 0.929 . S
H847 C879 0.929 . S
H848 C880 0.930 . S
H849 C882 0.929 . S
H850 C883 0.931 . S
H851 C885 0.930 . S
H852 C886 0.932 . S
H853 C888 0.931 . S
H854 C889 0.929 . S
H855 C891 0.929 . S
H856 C892 0.931 . S
H857 C894 0.929 . S
N858 C878 1.433 . S
N858 C884 1.435 . S
N858 C890 1.423 . S
H859 C895 0.932 . S
C860 N835 1.433 . S
C860 C861 1.363 . S
C860 C865 1.370 . S
C861 H834 0.929 . S
C861 C860 1.363 . S
C861 C862 1.385 . S
C862 H836 0.930 . S
C862 C861 1.385 . S
C862 C863 1.357 . S
C863 C862 1.357 . S
C863 C864 1.406 . S
C864 H838 0.929 . S
C864 C863 1.406 . S
C864 C865 1.391 . S
C865 H837 0.931 . S
C865 C860 1.370 . S
C865 C864 1.391 . S
C866 N835 1.435 . S
C866 C867 1.358 . S
C866 C871 1.371 . S
C867 H839 0.930 . S
C867 C866 1.358 . S
C867 C868 1.405 . S
C868 H840 0.932 . S
C868 C867 1.405 . S
C868 C869 1.383 . S
C869 C868 1.383 . S
C869 C870 1.393 . S
C870 H842 0.931 . S
C870 C869 1.393 . S
C870 C871 1.382 . S
C871 H841 0.929 . S
C871 C866 1.371 . S
C871 C870 1.382 . S
C872 N835 1.423 . S
C872 C873 1.362 . S
C872 C877 1.388 . S
C873 H843 0.929 . S
C873 C872 1.362 . S
C873 C874 1.376 . S
C874 H845 0.931 . S
C874 C873 1.376 . S
C874 C875 1.396 . S
C875 C874 1.396 . S
C875 C876 1.348 . S
C875 C893 1.472 . S
C876 H846 0.929 . S
C876 C875 1.348 . S
C876 C877 1.443 . S
C877 H844 0.932 . S
C877 C872 1.388 . S
C877 C876 1.443 . S
C878 N858 1.433 . S
C878 C879 1.363 . S
C878 C883 1.370 . S
C879 H847 0.929 . S
C879 C878 1.363 . S
C879 C880 1.385 . S
C880 H848 0.930 . S
C880 C879 1.385 . S
C880 C881 1.357 . S
C881 C880 1.357 . S
C881 C882 1.406 . S
C882 H849 0.929 . S
C882 C881 1.406 . S
C882 C883 1.391 . S
C883 H850 0.931 . S
C883 C878 1.370 . S
C883 C882 1.391 . S
C884 N858 1.435 . S
C884 C885 1.358 . S
C884 C889 1.371 . S
C885 H851 0.930 . S
C885 C884 1.358 . S
C885 C886 1.405 . S
C886 H852 0.932 . S
C886 C885 1.405 . S
C886 C887 1.383 . S
C887 C886 1.383 . S
C887 C888 1.393 . S
C888 H853 0.931 . S
C888 C887 1.393 . S
C888 C889 1.382 . S
C889 H854 0.929 . S
C889 C884 1.371 . S
C889 C888 1.382 . S
C890 N858 1.423 . S
C890 C891 1.362 . S
C890 C895 1.388 . S
C891 H855 0.929 . S
C891 C890 1.362 . S
C891 C892 1.376 . S
C892 H856 0.931 . S
C892 C891 1.376 . S
C892 C893 1.396 . S
C893 C875 1.472 . S
C893 C892 1.396 . S
C893 C894 1.348 . S
C894 H857 0.929 . S
C894 C893 1.348 . S
C894 C895 1.443 . S
C895 H859 0.932 . S
C895 C890 1.388 . S
C895 C894 1.443 . S
H896 C923 0.929 . S
N897 C922 1.433 . S
N897 C928 1.435 . S
N897 C934 1.423 . S
H898 C924 0.930 . S
H899 C927 0.931 . S
H900 C926 0.929 . S
H901 C929 0.930 . S
H902 C930 0.932 . S
H903 C933 0.929 . S
H904 C932 0.931 . S
H905 C935 0.929 . S
H906 C939 0.932 . S
H907 C936 0.931 . S
H908 C938 0.929 . S
H909 C941 0.929 . S
H910 C942 0.930 . S
H911 C944 0.929 . S
H912 C945 0.931 . S
H913 C947 0.930 . S
H914 C948 0.932 . S
H915 C950 0.931 . S
H916 C951 0.929 . S
H917 C953 0.929 . S
H918 C954 0.931 . S
H919 C956 0.929 . S
N920 C940 1.433 . S
N920 C946 1.435 . S
N920 C952 1.423 . S
H921 C957 0.932 . S
C922 N897 1.433 . S
C922 C923 1.363 . S
C922 C927 1.370 . S
C923 H896 0.929 . S
C923 C922 1.363 . S
C923 C924 1.385 . S
C924 H898 0.930 . S
C924 C923 1.385 . S
C924 C925 1.357 . S
C925 C924 1.357 . S
C925 C926 1.406 . S
C926 H900 0.929 . S
C926 C925 1.406 . S
C926 C927 1.391 . S
C927 H899 0.931 . S
C927 C922 1.370 . S
C927 C926 1.391 . S
C928 N897 1.435 . S
C928 C929 1.358 . S
C928 C933 1.371 . S
C929 H901 0.930 . S
C929 C928 1.358 . S
C929 C930 1.405 . S
C930 H902 0.932 . S
C930 C929 1.405 . S
C930 C931 1.383 . S
C931 C930 1.383 . S
C931 C932 1.393 . S
C932 H904 0.931 . S
C932 C931 1.393 . S
C932 C933 1.382 . S
C933 H903 0.929 . S
C933 C928 1.371 . S
C933 C932 1.382 . S
C934 N897 1.423 . S
C934 C935 1.362 . S
C934 C939 1.388 . S
C935 H905 0.929 . S
C935 C934 1.362 . S
C935 C936 1.376 . S
C936 H907 0.931 . S
C936 C935 1.376 . S
C936 C937 1.396 . S
C937 C936 1.396 . S
C937 C938 1.348 . S
C937 C955 1.472 . S
C938 H908 0.929 . S
C938 C937 1.348 . S
C938 C939 1.443 . S
C939 H906 0.932 . S
C939 C934 1.388 . S
C939 C938 1.443 . S
C940 N920 1.433 . S
C940 C941 1.363 . S
C940 C945 1.370 . S
C941 H909 0.929 . S
C941 C940 1.363 . S
C941 C942 1.385 . S
C942 H910 0.930 . S
C942 C941 1.385 . S
C942 C943 1.357 . S
C943 C942 1.357 . S
C943 C944 1.406 . S
C944 H911 0.929 . S
C944 C943 1.406 . S
C944 C945 1.391 . S
C945 H912 0.931 . S
C945 C940 1.370 . S
C945 C944 1.391 . S
C946 N920 1.435 . S
C946 C947 1.358 . S
C946 C951 1.371 . S
C947 H913 0.930 . S
C947 C946 1.358 . S
C947 C948 1.405 . S
C948 H914 0.932 . S
C948 C947 1.405 . S
C948 C949 1.383 . S
C949 C948 1.383 . S
C949 C950 1.393 . S
C950 H915 0.931 . S
C950 C949 1.393 . S
C950 C951 1.382 . S
C951 H916 0.929 . S
C951 C946 1.371 . S
C951 C950 1.382 . S
C952 N920 1.423 . S
C952 C953 1.362 . S
C952 C957 1.388 . S
C953 H917 0.929 . S
C953 C952 1.362 . S
C953 C954 1.376 . S
C954 H918 0.931 . S
C954 C953 1.376 . S
C954 C955 1.396 . S
C955 C937 1.472 . S
C955 C954 1.396 . S
C955 C956 1.348 . S
C956 H919 0.929 . S
C956 C955 1.348 . S
C956 C957 1.443 . S
C957 H921 0.932 . S
C957 C952 1.388 . S
C957 C956 1.443 . S
H958 C985 0.929 . S
N959 C984 1.433 . S
N959 C990 1.435 . S
N959 C996 1.423 . S
H960 C986 0.930 . S
H961 C989 0.931 . S
H962 C988 0.929 . S
H963 C991 0.930 . S
H964 C992 0.932 . S
H965 C995 0.929 . S
H966 C994 0.931 . S
H967 C997 0.929 . S
H968 C1001 0.932 . S
H969 C998 0.931 . S
H970 C1000 0.929 . S
H971 C1003 0.929 . S
H972 C1004 0.930 . S
H973 C1006 0.929 . S
H974 C1007 0.931 . S
H975 C1009 0.930 . S
H976 C1010 0.932 . S
H977 C1012 0.931 . S
H978 C1013 0.929 . S
H979 C1015 0.929 . S
H980 C1016 0.931 . S
H981 C1018 0.929 . S
N982 C1002 1.433 . S
N982 C1008 1.435 . S
N982 C1014 1.423 . S
H983 C1019 0.932 . S
C984 N959 1.433 . S
C984 C985 1.363 . S
C984 C989 1.370 . S
C985 H958 0.929 . S
C985 C984 1.363 . S
C985 C986 1.385 . S
C986 H960 0.930 . S
C986 C985 1.385 . S
C986 C987 1.357 . S
C987 C986 1.357 . S
C987 C988 1.406 . S
C988 H962 0.929 . S
C988 C987 1.406 . S
C988 C989 1.391 . S
C989 H961 0.931 . S
C989 C984 1.370 . S
C989 C988 1.391 . S
C990 N959 1.435 . S
C990 C991 1.358 . S
C990 C995 1.371 . S
C991 H963 0.930 . S
C991 C990 1.358 . S
C991 C992 1.405 . S
C992 H964 0.932 . S
C992 C991 1.405 . S
C992 C993 1.383 . S
C993 C992 1.383 . S
C993 C994 1.393 . S
C994 H966 0.931 . S
C994 C993 1.393 . S
C994 C995 1.382 . S
C995 H965 0.929 . S
C995 C990 1.371 . S
C995 C994 1.382 . S
C996 N959 1.423 . S
C996 C997 1.362 . S
C996 C1001 1.388 . S
C997 H967 0.929 . S
C997 C996 1.362 . S
C997 C998 1.376 . S
C998 H969 0.931 . S
C998 C997 1.376 . S
C998 C999 1.396 . S
C999 C998 1.396 . S
C999 C1000 1.348 . S
C999 C1017 1.472 . S
C1000 H970 0.929 . S
C1000 C999 1.348 . S
C1000 C1001 1.443 . S
C1001 H968 0.932 . S
C1001 C996 1.388 . S
C1001 C1000 1.443 . S
C1002 N982 1.433 . S
C1002 C1003 1.363 . S
C1002 C1007 1.370 . S
C1003 H971 0.929 . S
C1003 C1002 1.363 . S
C1003 C1004 1.385 . S
C1004 H972 0.930 . S
C1004 C1003 1.385 . S
C1004 C1005 1.357 . S
C1005 C1004 1.357 . S
C1005 C1006 1.406 . S
C1006 H973 0.929 . S
C1006 C1005 1.406 . S
C1006 C1007 1.391 . S
C1007 H974 0.931 . S
C1007 C1002 1.370 . S
C1007 C1006 1.391 . S
C1008 N982 1.435 . S
C1008 C1009 1.358 . S
C1008 C1013 1.371 . S
C1009 H975 0.930 . S
C1009 C1008 1.358 . S
C1009 C1010 1.405 . S
C1010 H976 0.932 . S
C1010 C1009 1.405 . S
C1010 C1011 1.383 . S
C1011 C1010 1.383 . S
C1011 C1012 1.393 . S
C1012 H977 0.931 . S
C1012 C1011 1.393 . S
C1012 C1013 1.382 . S
C1013 H978 0.929 . S
C1013 C1008 1.371 . S
C1013 C1012 1.382 . S
C1014 N982 1.423 . S
C1014 C1015 1.362 . S
C1014 C1019 1.388 . S
C1015 H979 0.929 . S
C1015 C1014 1.362 . S
C1015 C1016 1.376 . S
C1016 H980 0.931 . S
C1016 C1015 1.376 . S
C1016 C1017 1.396 . S
C1017 C999 1.472 . S
C1017 C1016 1.396 . S
C1017 C1018 1.348 . S
C1018 H981 0.929 . S
C1018 C1017 1.348 . S
C1018 C1019 1.443 . S
C1019 H983 0.932 . S
C1019 C1014 1.388 . S
C1019 C1018 1.443 . S
H1020 C1047 0.929 . S
N1021 C1046 1.433 . S
N1021 C1052 1.435 . S
N1021 C1058 1.423 . S
H1022 C1048 0.930 . S
H1023 C1051 0.931 . S
H1024 C1050 0.929 . S
H1025 C1053 0.930 . S
H1026 C1054 0.932 . S
H1027 C1057 0.929 . S
H1028 C1056 0.931 . S
H1029 C1059 0.929 . S
H1030 C1063 0.932 . S
H1031 C1060 0.931 . S
H1032 C1062 0.929 . S
H1033 C1065 0.929 . S
H1034 C1066 0.930 . S
H1035 C1068 0.929 . S
H1036 C1069 0.931 . S
H1037 C1071 0.930 . S
H1038 C1072 0.932 . S
H1039 C1074 0.931 . S
H1040 C1075 0.929 . S
H1041 C1077 0.929 . S
H1042 C1078 0.931 . S
H1043 C1080 0.929 . S
N1044 C1064 1.433 . S
N1044 C1070 1.435 . S
N1044 C1076 1.423 . S
H1045 C1081 0.932 . S
C1046 N1021 1.433 . S
C1046 C1047 1.363 . S
C1046 C1051 1.370 . S
C1047 H1020 0.929 . S
C1047 C1046 1.363 . S
C1047 C1048 1.385 . S
C1048 H1022 0.930 . S
C1048 C1047 1.385 . S
C1048 C1049 1.357 . S
C1049 C1048 1.357 . S
C1049 C1050 1.406 . S
C1050 H1024 0.929 . S
C1050 C1049 1.406 . S
C1050 C1051 1.391 . S
C1051 H1023 0.931 . S
C1051 C1046 1.370 . S
C1051 C1050 1.391 . S
C1052 N1021 1.435 . S
C1052 C1053 1.358 . S
C1052 C1057 1.371 . S
C1053 H1025 0.930 . S
C1053 C1052 1.358 . S
C1053 C1054 1.405 . S
C1054 H1026 0.932 . S
C1054 C1053 1.405 . S
C1054 C1055 1.383 . S
C1055 C1054 1.383 . S
C1055 C1056 1.393 . S
C1056 H1028 0.931 . S
C1056 C1055 1.393 . S
C1056 C1057 1.382 . S
C1057 H1027 0.929 . S
C1057 C1052 1.371 . S
C1057 C1056 1.382 . S
C1058 N1021 1.423 . S
C1058 C1059 1.362 . S
C1058 C1063 1.388 . S
C1059 H1029 0.929 . S
C1059 C1058 1.362 . S
C1059 C1060 1.376 . S
C1060 H1031 0.931 . S
C1060 C1059 1.376 . S
C1060 C1061 1.396 . S
C1061 C1060 1.396 . S
C1061 C1062 1.348 . S
C1061 C1079 1.472 . S
C1062 H1032 0.929 . S
C1062 C1061 1.348 . S
C1062 C1063 1.443 . S
C1063 H1030 0.932 . S
C1063 C1058 1.388 . S
C1063 C1062 1.443 . S
C1064 N1044 1.433 . S
C1064 C1065 1.363 . S
C1064 C1069 1.370 . S
C1065 H1033 0.929 . S
C1065 C1064 1.363 . S
C1065 C1066 1.385 . S
C1066 H1034 0.930 . S
C1066 C1065 1.385 . S
C1066 C1067 1.357 . S
C1067 C1066 1.357 . S
C1067 C1068 1.406 . S
C1068 H1035 0.929 . S
C1068 C1067 1.406 . S
C1068 C1069 1.391 . S
C1069 H1036 0.931 . S
C1069 C1064 1.370 . S
C1069 C1068 1.391 . S
C1070 N1044 1.435 . S
C1070 C1071 1.358 . S
C1070 C1075 1.371 . S
C1071 H1037 0.930 . S
C1071 C1070 1.358 . S
C1071 C1072 1.405 . S
C1072 H1038 0.932 . S
C1072 C1071 1.405 . S
C1072 C1073 1.383 . S
C1073 C1072 1.383 . S
C1073 C1074 1.393 . S
C1074 H1039 0.931 . S
C1074 C1073 1.393 . S
C1074 C1075 1.382 . S
C1075 H1040 0.929 . S
C1075 C1070 1.371 . S
C1075 C1074 1.382 . S
C1076 N1044 1.423 . S
C1076 C1077 1.362 . S
C1076 C1081 1.388 . S
C1077 H1041 0.929 . S
C1077 C1076 1.362 . S
C1077 C1078 1.376 . S
C1078 H1042 0.931 . S
C1078 C1077 1.376 . S
C1078 C1079 1.396 . S
C1079 C1061 1.472 . S
C1079 C1078 1.396 . S
C1079 C1080 1.348 . S
C1080 H1043 0.929 . S
C1080 C1079 1.348 . S
C1080 C1081 1.443 . S
C1081 H1045 0.932 . S
C1081 C1076 1.388 . S
C1081 C1080 1.443 . S
H1082 C1109 0.929 . S
N1083 C1108 1.433 . S
N1083 C1114 1.435 . S
N1083 C1120 1.423 . S
H1084 C1110 0.930 . S
H1085 C1113 0.931 . S
H1086 C1112 0.929 . S
H1087 C1115 0.930 . S
H1088 C1116 0.932 . S
H1089 C1119 0.929 . S
H1090 C1118 0.931 . S
H1091 C1121 0.929 . S
H1092 C1125 0.932 . S
H1093 C1122 0.931 . S
H1094 C1124 0.929 . S
H1095 C1127 0.929 . S
H1096 C1128 0.930 . S
H1097 C1130 0.929 . S
H1098 C1131 0.931 . S
H1099 C1133 0.930 . S
H1100 C1134 0.932 . S
H1101 C1136 0.931 . S
H1102 C1137 0.929 . S
H1103 C1139 0.929 . S
H1104 C1140 0.931 . S
H1105 C1142 0.929 . S
N1106 C1126 1.433 . S
N1106 C1132 1.435 . S
N1106 C1138 1.423 . S
H1107 C1143 0.932 . S
C1108 N1083 1.433 . S
C1108 C1109 1.363 . S
C1108 C1113 1.370 . S
C1109 H1082 0.929 . S
C1109 C1108 1.363 . S
C1109 C1110 1.385 . S
C1110 H1084 0.930 . S
C1110 C1109 1.385 . S
C1110 C1111 1.357 . S
C1111 C1110 1.357 . S
C1111 C1112 1.406 . S
C1112 H1086 0.929 . S
C1112 C1111 1.406 . S
C1112 C1113 1.391 . S
C1113 H1085 0.931 . S
C1113 C1108 1.370 . S
C1113 C1112 1.391 . S
C1114 N1083 1.435 . S
C1114 C1115 1.358 . S
C1114 C1119 1.371 . S
C1115 H1087 0.930 . S
C1115 C1114 1.358 . S
C1115 C1116 1.405 . S
C1116 H1088 0.932 . S
C1116 C1115 1.405 . S
C1116 C1117 1.383 . S
C1117 C1116 1.383 . S
C1117 C1118 1.393 . S
C1118 H1090 0.931 . S
C1118 C1117 1.393 . S
C1118 C1119 1.382 . S
C1119 H1089 0.929 . S
C1119 C1114 1.371 . S
C1119 C1118 1.382 . S
C1120 N1083 1.423 . S
C1120 C1121 1.362 . S
C1120 C1125 1.388 . S
C1121 H1091 0.929 . S
C1121 C1120 1.362 . S
C1121 C1122 1.376 . S
C1122 H1093 0.931 . S
C1122 C1121 1.376 . S
C1122 C1123 1.396 . S
C1123 C1122 1.396 . S
C1123 C1124 1.348 . S
C1123 C1141 1.472 . S
C1124 H1094 0.929 . S
C1124 C1123 1.348 . S
C1124 C1125 1.443 . S
C1125 H1092 0.932 . S
C1125 C1120 1.388 . S
C1125 C1124 1.443 . S
C1126 N1106 1.433 . S
C1126 C1127 1.363 . S
C1126 C1131 1.370 . S
C1127 H1095 0.929 . S
C1127 C1126 1.363 . S
C1127 C1128 1.385 . S
C1128 H1096 0.930 . S
C1128 C1127 1.385 . S
C1128 C1129 1.357 . S
C1129 C1128 1.357 . S
C1129 C1130 1.406 . S
C1130 H1097 0.929 . S
C1130 C1129 1.406 . S
C1130 C1131 1.391 . S
C1131 H1098 0.931 . S
C1131 C1126 1.370 . S
C1131 C1130 1.391 . S
C1132 N1106 1.435 . S
C1132 C1133 1.358 . S
C1132 C1137 1.371 . S
C1133 H1099 0.930 . S
C1133 C1132 1.358 . S
C1133 C1134 1.405 . S
C1134 H1100 0.932 . S
C1134 C1133 1.405 . S
C1134 C1135 1.383 . S
C1135 C1134 1.383 . S
C1135 C1136 1.393 . S
C1136 H1101 0.931 . S
C1136 C1135 1.393 . S
C1136 C1137 1.382 . S
C1137 H1102 0.929 . S
C1137 C1132 1.371 . S
C1137 C1136 1.382 . S
C1138 N1106 1.423 . S
C1138 C1139 1.362 . S
C1138 C1143 1.388 . S
C1139 H1103 0.929 . S
C1139 C1138 1.362 . S
C1139 C1140 1.376 . S
C1140 H1104 0.931 . S
C1140 C1139 1.376 . S
C1140 C1141 1.396 . S
C1141 C1123 1.472 . S
C1141 C1140 1.396 . S
C1141 C1142 1.348 . S
C1142 H1105 0.929 . S
C1142 C1141 1.348 . S
C1142 C1143 1.443 . S
C1143 H1107 0.932 . S
C1143 C1138 1.388 . S
C1143 C1142 1.443 . S
H1144 C1171 0.929 . S
N1145 C1170 1.433 . S
N1145 C1176 1.435 . S
N1145 C1182 1.423 . S
H1146 C1172 0.930 . S
H1147 C1175 0.931 . S
H1148 C1174 0.929 . S
H1149 C1177 0.930 . S
H1150 C1178 0.932 . S
H1151 C1181 0.929 . S
H1152 C1180 0.931 . S
H1153 C1183 0.929 . S
H1154 C1187 0.932 . S
H1155 C1184 0.931 . S
H1156 C1186 0.929 . S
H1157 C1189 0.929 . S
H1158 C1190 0.930 . S
H1159 C1192 0.929 . S
H1160 C1193 0.931 . S
H1161 C1195 0.930 . S
H1162 C1196 0.932 . S
H1163 C1198 0.931 . S
H1164 C1199 0.929 . S
H1165 C1201 0.929 . S
H1166 C1202 0.931 . S
H1167 C1204 0.929 . S
N1168 C1188 1.433 . S
N1168 C1194 1.435 . S
N1168 C1200 1.423 . S
H1169 C1205 0.932 . S
C1170 N1145 1.433 . S
C1170 C1171 1.363 . S
C1170 C1175 1.370 . S
C1171 H1144 0.929 . S
C1171 C1170 1.363 . S
C1171 C1172 1.385 . S
C1172 H1146 0.930 . S
C1172 C1171 1.385 . S
C1172 C1173 1.357 . S
C1173 C1172 1.357 . S
C1173 C1174 1.406 . S
C1174 H1148 0.929 . S
C1174 C1173 1.406 . S
C1174 C1175 1.391 . S
C1175 H1147 0.931 . S
C1175 C1170 1.370 . S
C1175 C1174 1.391 . S
C1176 N1145 1.435 . S
C1176 C1177 1.358 . S
C1176 C1181 1.371 . S
C1177 H1149 0.930 . S
C1177 C1176 1.358 . S
C1177 C1178 1.405 . S
C1178 H1150 0.932 . S
C1178 C1177 1.405 . S
C1178 C1179 1.383 . S
C1179 C1178 1.383 . S
C1179 C1180 1.393 . S
C1180 H1152 0.931 . S
C1180 C1179 1.393 . S
C1180 C1181 1.382 . S
C1181 H1151 0.929 . S
C1181 C1176 1.371 . S
C1181 C1180 1.382 . S
C1182 N1145 1.423 . S
C1182 C1183 1.362 . S
C1182 C1187 1.388 . S
C1183 H1153 0.929 . S
C1183 C1182 1.362 . S
C1183 C1184 1.376 . S
C1184 H1155 0.931 . S
C1184 C1183 1.376 . S
C1184 C1185 1.396 . S
C1185 C1184 1.396 . S
C1185 C1186 1.348 . S
C1185 C1203 1.472 . S
C1186 H1156 0.929 . S
C1186 C1185 1.348 . S
C1186 C1187 1.443 . S
C1187 H1154 0.932 . S
C1187 C1182 1.388 . S
C1187 C1186 1.443 . S
C1188 N1168 1.433 . S
C1188 C1189 1.363 . S
C1188 C1193 1.370 . S
C1189 H1157 0.929 . S
C1189 C1188 1.363 . S
C1189 C1190 1.385 . S
C1190 H1158 0.930 . S
C1190 C1189 1.385 . S
C1190 C1191 1.357 . S
C1191 C1190 1.357 . S
C1191 C1192 1.406 . S
C1192 H1159 0.929 . S
C1192 C1191 1.406 . S
C1192 C1193 1.391 . S
C1193 H1160 0.931 . S
C1193 C1188 1.370 . S
C1193 C1192 1.391 . S
C1194 N1168 1.435 . S
C1194 C1195 1.358 . S
C1194 C1199 1.371 . S
C1195 H1161 0.930 . S
C1195 C1194 1.358 . S
C1195 C1196 1.405 . S
C1196 H1162 0.932 . S
C1196 C1195 1.405 . S
C1196 C1197 1.383 . S
C1197 C1196 1.383 . S
C1197 C1198 1.393 . S
C1198 H1163 0.931 . S
C1198 C1197 1.393 . S
C1198 C1199 1.382 . S
C1199 H1164 0.929 . S
C1199 C1194 1.371 . S
C1199 C1198 1.382 . S
C1200 N1168 1.423 . S
C1200 C1201 1.362 . S
C1200 C1205 1.388 . S
C1201 H1165 0.929 . S
C1201 C1200 1.362 . S
C1201 C1202 1.376 . S
C1202 H1166 0.931 . S
C1202 C1201 1.376 . S
C1202 C1203 1.396 . S
C1203 C1185 1.472 . S
C1203 C1202 1.396 . S
C1203 C1204 1.348 . S
C1204 H1167 0.929 . S
C1204 C1203 1.348 . S
C1204 C1205 1.443 . S
C1205 H1169 0.932 . S
C1205 C1200 1.388 . S
C1205 C1204 1.443 . S
H1206 C1233 0.929 . S
N1207 C1232 1.433 . S
N1207 C1238 1.435 . S
N1207 C1244 1.423 . S
H1208 C1234 0.930 . S
H1209 C1237 0.931 . S
H1210 C1236 0.929 . S
H1211 C1239 0.930 . S
H1212 C1240 0.932 . S
H1213 C1243 0.929 . S
H1214 C1242 0.931 . S
H1215 C1245 0.929 . S
H1216 C1249 0.932 1_655 S
H1217 C1246 0.931 . S
H1218 C1248 0.941 . S
H1219 C1251 0.929 . S
H1220 C1252 0.930 . S
H1221 C1254 0.929 . S
H1222 C1255 0.931 . S
H1223 C1257 0.930 . S
H1224 C1258 0.932 . S
H1225 C1260 0.931 . S
H1226 C1261 0.929 . S
H1227 C1263 0.929 . S
H1228 C1264 0.931 . S
H1229 C1266 0.972 . S
N1230 C1250 1.433 . S
N1230 C1256 1.435 . S
N1230 C1262 1.423 . S
H1231 C1267 0.932 1_655 S
C1232 N1207 1.433 . S
C1232 C1233 1.363 . S
C1232 C1237 1.370 1_455 S
C1233 H1206 0.929 . S
C1233 C1232 1.363 . S
C1233 C1234 1.385 . S
C1234 H1208 0.930 . S
C1234 C1233 1.385 . S
C1234 C1235 1.357 1_455 S
C1235 C1234 1.357 1_655 S
C1235 C1236 1.406 . S
C1236 H1210 0.929 . S
C1236 C1235 1.406 . S
C1236 C1237 1.391 . S
C1237 H1209 0.931 . S
C1237 C1232 1.370 1_655 S
C1237 C1236 1.391 . S
C1238 N1207 1.435 . S
C1238 C1239 1.358 1_455 S
C1238 C1243 1.371 . S
C1239 H1211 0.930 . S
C1239 C1238 1.358 1_655 S
C1239 C1240 1.405 . S
C1240 H1212 0.932 . S
C1240 C1239 1.405 . S
C1240 C1241 1.383 1_655 S
C1241 C1240 1.383 1_455 S
C1241 C1242 1.393 . S
C1242 H1214 0.931 . S
C1242 C1241 1.393 . S
C1242 C1243 1.382 . S
C1243 H1213 0.929 . S
C1243 C1238 1.371 . S
C1243 C1242 1.382 . S
C1244 N1207 1.423 . S
C1244 C1245 1.362 . S
C1244 C1249 1.388 . S
C1245 H1215 0.929 . S
C1245 C1244 1.362 . S
C1245 C1246 1.376 . S
C1246 H1217 0.931 . S
C1246 C1245 1.376 . S
C1246 C1247 1.396 . S
C1247 C1246 1.396 . S
C1247 C1248 1.348 . S
C1247 C1265 1.472 . S
C1248 H1218 0.941 . S
C1248 C1247 1.348 . S
C1248 C1249 1.443 . S
C1249 H1216 0.932 1_455 S
C1249 C1244 1.388 . S
C1249 C1248 1.443 . S
C1250 N1230 1.433 . S
C1250 C1251 1.363 . S
C1250 C1255 1.370 1_455 S
C1251 H1219 0.929 . S
C1251 C1250 1.363 . S
C1251 C1252 1.385 . S
C1252 H1220 0.930 . S
C1252 C1251 1.385 . S
C1252 C1253 1.357 1_455 S
C1253 C1252 1.357 1_655 S
C1253 C1254 1.406 . S
C1254 H1221 0.929 . S
C1254 C1253 1.406 . S
C1254 C1255 1.391 . S
C1255 H1222 0.931 . S
C1255 C1250 1.370 1_655 S
C1255 C1254 1.391 . S
C1256 N1230 1.435 . S
C1256 C1257 1.358 1_455 S
C1256 C1261 1.371 . S
C1257 H1223 0.930 . S
C1257 C1256 1.358 1_655 S
C1257 C1258 1.405 . S
C1258 H1224 0.932 . S
C1258 C1257 1.405 . S
C1258 C1259 1.383 1_655 S
C1259 C1258 1.383 1_455 S
C1259 C1260 1.393 . S
C1260 H1225 0.931 . S
C1260 C1259 1.393 . S
C1260 C1261 1.382 . S
C1261 H1226 0.929 . S
C1261 C1256 1.371 . S
C1261 C1260 1.382 . S
C1262 N1230 1.423 . S
C1262 C1263 1.362 . S
C1262 C1267 1.388 . S
C1263 H1227 0.929 . S
C1263 C1262 1.362 . S
C1263 C1264 1.376 . S
C1264 H1228 0.931 . S
C1264 C1263 1.376 . S
C1264 C1265 1.396 . S
C1265 C1247 1.472 . S
C1265 C1264 1.396 . S
C1265 C1266 1.348 . S
C1266 H1229 0.972 . S
C1266 C1265 1.348 . S
C1266 C1267 1.443 . S
C1267 H1231 0.932 1_455 S
C1267 C1262 1.388 . S
C1267 C1266 1.443 . S
H1268 C1295 0.929 . S
N1269 C1294 1.433 . S
N1269 C1300 1.435 . S
N1269 C1306 1.423 . S
H1270 C1296 0.930 . S
H1271 C1299 0.931 . S
H1272 C1298 0.929 . S
H1273 C1301 0.930 . S
H1274 C1302 0.932 . S
H1275 C1305 0.929 . S
H1276 C1304 0.931 . S
H1277 C1307 0.929 . S
H1278 C1311 0.932 . S
H1279 C1308 0.931 . S
H1280 C1310 0.929 . S
H1281 C1313 0.929 . S
H1282 C1314 0.930 . S
H1283 C1316 0.929 . S
H1284 C1317 0.931 . S
H1285 C1319 0.930 . S
H1286 C1320 0.932 . S
H1287 C1322 0.931 . S
H1288 C1323 0.929 . S
H1289 C1325 0.929 . S
H1290 C1326 0.931 . S
H1291 C1328 0.929 . S
N1292 C1312 1.433 . S
N1292 C1318 1.435 . S
N1292 C1324 1.423 . S
H1293 C1329 0.932 . S
C1294 N1269 1.433 . S
C1294 C1295 1.363 . S
C1294 C1299 1.370 . S
C1295 H1268 0.929 . S
C1295 C1294 1.363 . S
C1295 C1296 1.385 . S
C1296 H1270 0.930 . S
C1296 C1295 1.385 . S
C1296 C1297 1.357 . S
C1297 C1296 1.357 . S
C1297 C1298 1.406 . S
C1298 H1272 0.929 . S
C1298 C1297 1.406 . S
C1298 C1299 1.391 . S
C1299 H1271 0.931 . S
C1299 C1294 1.370 . S
C1299 C1298 1.391 . S
C1300 N1269 1.435 . S
C1300 C1301 1.358 . S
C1300 C1305 1.371 . S
C1301 H1273 0.930 . S
C1301 C1300 1.358 . S
C1301 C1302 1.405 . S
C1302 H1274 0.932 . S
C1302 C1301 1.405 . S
C1302 C1303 1.383 . S
C1303 C1302 1.383 . S
C1303 C1304 1.393 . S
C1304 H1276 0.931 . S
C1304 C1303 1.393 . S
C1304 C1305 1.382 . S
C1305 H1275 0.929 . S
C1305 C1300 1.371 . S
C1305 C1304 1.382 . S
C1306 N1269 1.423 . S
C1306 C1307 1.362 . S
C1306 C1311 1.388 . S
C1307 H1277 0.929 . S
C1307 C1306 1.362 . S
C1307 C1308 1.376 . S
C1308 H1279 0.931 . S
C1308 C1307 1.376 . S
C1308 C1309 1.396 . S
C1309 C1308 1.396 . S
C1309 C1310 1.348 . S
C1309 C1327 1.472 . S
C1310 H1280 0.929 . S
C1310 C1309 1.348 . S
C1310 C1311 1.443 . S
C1311 H1278 0.932 . S
C1311 C1306 1.388 . S
C1311 C1310 1.443 . S
C1312 N1292 1.433 . S
C1312 C1313 1.363 . S
C1312 C1317 1.370 . S
C1313 H1281 0.929 . S
C1313 C1312 1.363 . S
C1313 C1314 1.385 . S
C1314 H1282 0.930 . S
C1314 C1313 1.385 . S
C1314 C1315 1.357 . S
C1315 C1314 1.357 . S
C1315 C1316 1.406 . S
C1316 H1283 0.929 . S
C1316 C1315 1.406 . S
C1316 C1317 1.391 . S
C1317 H1284 0.931 . S
C1317 C1312 1.370 . S
C1317 C1316 1.391 . S
C1318 N1292 1.435 . S
C1318 C1319 1.358 . S
C1318 C1323 1.371 . S
C1319 H1285 0.930 . S
C1319 C1318 1.358 . S
C1319 C1320 1.405 . S
C1320 H1286 0.932 . S
C1320 C1319 1.405 . S
C1320 C1321 1.383 . S
C1321 C1320 1.383 . S
C1321 C1322 1.393 . S
C1322 H1287 0.931 . S
C1322 C1321 1.393 . S
C1322 C1323 1.382 . S
C1323 H1288 0.929 . S
C1323 C1318 1.371 . S
C1323 C1322 1.382 . S
C1324 N1292 1.423 . S
C1324 C1325 1.362 . S
C1324 C1329 1.388 . S
C1325 H1289 0.929 . S
C1325 C1324 1.362 . S
C1325 C1326 1.376 . S
C1326 H1290 0.931 . S
C1326 C1325 1.376 . S
C1326 C1327 1.396 . S
C1327 C1309 1.472 . S
C1327 C1326 1.396 . S
C1327 C1328 1.348 . S
C1328 H1291 0.929 . S
C1328 C1327 1.348 . S
C1328 C1329 1.443 . S
C1329 H1293 0.932 . S
C1329 C1324 1.388 . S
C1329 C1328 1.443 . S
H1330 C1357 0.929 . S
N1331 C1356 1.433 . S
N1331 C1362 1.435 . S
N1331 C1368 1.423 . S
H1332 C1358 0.930 . S
H1333 C1361 0.931 . S
H1334 C1360 0.929 . S
H1335 C1363 0.930 . S
H1336 C1364 0.932 . S
H1337 C1367 0.929 . S
H1338 C1366 0.931 . S
H1339 C1369 0.929 . S
H1340 C1373 0.932 1_545 S
H1341 C1370 0.931 . S
H1342 C1372 0.982 . S
H1343 C1375 0.929 . S
H1344 C1376 0.930 . S
H1345 C1378 0.929 . S
H1346 C1379 0.931 . S
H1347 C1381 0.930 . S
H1348 C1382 0.932 . S
H1349 C1384 0.931 . S
H1350 C1385 0.929 . S
H1351 C1387 0.929 . S
H1352 C1388 0.931 . S
H1353 C1390 0.942 . S
N1354 C1374 1.433 . S
N1354 C1380 1.435 . S
N1354 C1386 1.423 . S
H1355 C1391 0.932 1_545 S
C1356 N1331 1.433 . S
C1356 C1357 1.363 . S
C1356 C1361 1.370 1_565 S
C1357 H1330 0.929 . S
C1357 C1356 1.363 . S
C1357 C1358 1.385 . S
C1358 H1332 0.930 . S
C1358 C1357 1.385 . S
C1358 C1359 1.357 1_565 S
C1359 C1358 1.357 1_545 S
C1359 C1360 1.406 . S
C1360 H1334 0.929 . S
C1360 C1359 1.406 . S
C1360 C1361 1.391 . S
C1361 H1333 0.931 . S
C1361 C1356 1.370 1_545 S
C1361 C1360 1.391 . S
C1362 N1331 1.435 . S
C1362 C1363 1.358 1_565 S
C1362 C1367 1.371 . S
C1363 H1335 0.930 . S
C1363 C1362 1.358 1_545 S
C1363 C1364 1.405 . S
C1364 H1336 0.932 . S
C1364 C1363 1.405 . S
C1364 C1365 1.383 1_545 S
C1365 C1364 1.383 1_565 S
C1365 C1366 1.393 . S
C1366 H1338 0.931 . S
C1366 C1365 1.393 . S
C1366 C1367 1.382 . S
C1367 H1337 0.929 . S
C1367 C1362 1.371 . S
C1367 C1366 1.382 . S
C1368 N1331 1.423 . S
C1368 C1369 1.362 . S
C1368 C1373 1.388 . S
C1369 H1339 0.929 . S
C1369 C1368 1.362 . S
C1369 C1370 1.376 . S
C1370 H1341 0.931 . S
C1370 C1369 1.376 . S
C1370 C1371 1.396 . S
C1371 C1370 1.396 . S
C1371 C1372 1.348 . S
C1371 C1389 1.472 . S
C1372 H1342 0.982 . S
C1372 C1371 1.348 . S
C1372 C1373 1.443 . S
C1373 H1340 0.932 1_565 S
C1373 C1368 1.388 . S
C1373 C1372 1.443 . S
C1374 N1354 1.433 . S
C1374 C1375 1.363 . S
C1374 C1379 1.370 1_565 S
C1375 H1343 0.929 . S
C1375 C1374 1.363 . S
C1375 C1376 1.385 . S
C1376 H1344 0.930 . S
C1376 C1375 1.385 . S
C1376 C1377 1.357 1_565 S
C1377 C1376 1.357 1_545 S
C1377 C1378 1.406 . S
C1378 H1345 0.929 . S
C1378 C1377 1.406 . S
C1378 C1379 1.391 . S
C1379 H1346 0.931 . S
C1379 C1374 1.370 1_545 S
C1379 C1378 1.391 . S
C1380 N1354 1.435 . S
C1380 C1381 1.358 1_565 S
C1380 C1385 1.371 . S
C1381 H1347 0.930 . S
C1381 C1380 1.358 1_545 S
C1381 C1382 1.405 . S
C1382 H1348 0.932 . S
C1382 C1381 1.405 . S
C1382 C1383 1.383 1_545 S
C1383 C1382 1.383 1_565 S
C1383 C1384 1.393 . S
C1384 H1349 0.931 . S
C1384 C1383 1.393 . S
C1384 C1385 1.382 . S
C1385 H1350 0.929 . S
C1385 C1380 1.371 . S
C1385 C1384 1.382 . S
C1386 N1354 1.423 . S
C1386 C1387 1.362 . S
C1386 C1391 1.388 . S
C1387 H1351 0.929 . S
C1387 C1386 1.362 . S
C1387 C1388 1.376 . S
C1388 H1352 0.931 . S
C1388 C1387 1.376 . S
C1388 C1389 1.396 . S
C1389 C1371 1.472 . S
C1389 C1388 1.396 . S
C1389 C1390 1.348 . S
C1390 H1353 0.942 . S
C1390 C1389 1.348 . S
C1390 C1391 1.443 . S
C1391 H1355 0.932 1_565 S
C1391 C1386 1.388 . S
C1391 C1390 1.443 . S
H1392 C1419 0.929 . S
N1393 C1418 1.433 . S
N1393 C1424 1.435 . S
N1393 C1430 1.423 . S
H1394 C1420 0.930 . S
H1395 C1423 0.931 . S
H1396 C1422 0.929 . S
H1397 C1425 0.930 . S
H1398 C1426 0.932 . S
H1399 C1429 0.929 . S
H1400 C1428 0.931 . S
H1401 C1431 0.929 . S
H1402 C1435 0.997 . S
H1403 C1432 0.931 . S
H1404 C1434 0.916 1_545 S
H1405 C1437 0.929 . S
H1406 C1438 0.930 . S
H1407 C1440 0.929 . S
H1408 C1441 0.931 . S
H1409 C1443 0.930 . S
H1410 C1444 0.932 . S
H1411 C1446 0.931 . S
H1412 C1447 0.929 . S
H1413 C1449 0.929 . S
H1414 C1450 0.931 . S
H1415 C1452 0.887 1_545 S
N1416 C1436 1.433 . S
N1416 C1442 1.435 . S
N1416 C1448 1.423 . S
H1417 C1453 0.967 . S
C1418 N1393 1.433 . S
C1418 C1419 1.363 . S
C1418 C1423 1.360 1_565 S
C1419 H1392 0.929 . S
C1419 C1418 1.363 . S
C1419 C1420 1.385 . S
C1420 H1394 0.930 . S
C1420 C1419 1.385 . S
C1420 C1421 1.357 . S
C1421 C1420 1.357 . S
C1421 C1422 1.406 1_565 S
C1422 H1396 0.929 . S
C1422 C1421 1.406 1_545 S
C1422 C1423 1.409 . S
C1423 H1395 0.931 . S
C1423 C1418 1.360 1_545 S
C1423 C1422 1.409 . S
C1424 N1393 1.435 . S
C1424 C1425 1.358 1_565 S
C1424 C1429 1.371 . S
C1425 H1397 0.930 . S
C1425 C1424 1.358 1_545 S
C1425 C1426 1.405 . S
C1426 H1398 0.932 . S
C1426 C1425 1.405 . S
C1426 C1427 1.383 . S
C1427 C1426 1.383 . S
C1427 C1428 1.393 1_545 S
C1428 H1400 0.931 . S
C1428 C1427 1.393 1_565 S
C1428 C1429 1.382 . S
C1429 H1399 0.929 . S
C1429 C1424 1.371 . S
C1429 C1428 1.382 . S
C1430 N1393 1.423 . S
C1430 C1431 1.362 . S
C1430 C1435 1.369 1_565 S
C1431 H1401 0.929 . S
C1431 C1430 1.362 . S
C1431 C1432 1.376 . S
C1432 H1403 0.931 . S
C1432 C1431 1.376 . S
C1432 C1433 1.396 . S
C1433 C1432 1.396 . S
C1433 C1434 1.403 . S
C1433 C1451 1.472 . S
C1434 H1404 0.916 1_565 S
C1434 C1433 1.403 . S
C1434 C1435 1.364 1_565 S
C1435 H1402 0.997 . S
C1435 C1430 1.369 1_545 S
C1435 C1434 1.364 1_545 S
C1436 N1416 1.433 . S
C1436 C1437 1.363 . S
C1436 C1441 1.370 1_565 S
C1437 H1405 0.929 . S
C1437 C1436 1.363 . S
C1437 C1438 1.385 . S
C1438 H1406 0.930 . S
C1438 C1437 1.385 . S
C1438 C1439 1.357 . S
C1439 C1438 1.357 . S
C1439 C1440 1.406 1_565 S
C1440 H1407 0.929 . S
C1440 C1439 1.406 1_545 S
C1440 C1441 1.391 . S
C1441 H1408 0.931 . S
C1441 C1436 1.370 1_545 S
C1441 C1440 1.391 . S
C1442 N1416 1.435 . S
C1442 C1443 1.358 1_565 S
C1442 C1447 1.371 . S
C1443 H1409 0.930 . S
C1443 C1442 1.358 1_545 S
C1443 C1444 1.405 . S
C1444 H1410 0.932 . S
C1444 C1443 1.405 . S
C1444 C1445 1.383 . S
C1445 C1444 1.383 . S
C1445 C1446 1.393 1_545 S
C1446 H1411 0.931 . S
C1446 C1445 1.393 1_565 S
C1446 C1447 1.382 . S
C1447 H1412 0.929 . S
C1447 C1442 1.371 . S
C1447 C1446 1.382 . S
C1448 N1416 1.423 . S
C1448 C1449 1.362 . S
C1448 C1453 1.321 1_565 S
C1449 H1413 0.929 . S
C1449 C1448 1.362 . S
C1449 C1450 1.376 . S
C1450 H1414 0.931 . S
C1450 C1449 1.376 . S
C1450 C1451 1.396 . S
C1451 C1433 1.472 . S
C1451 C1450 1.396 . S
C1451 C1452 1.366 . S
C1452 H1415 0.887 1_565 S
C1452 C1451 1.366 . S
C1452 C1453 1.510 1_565 S
C1453 H1417 0.967 . S
C1453 C1448 1.321 1_545 S
C1453 C1452 1.510 1_545 S
H1454 C1481 0.929 . S
N1455 C1480 1.433 . S
N1455 C1486 1.435 . S
N1455 C1492 1.423 . S
H1456 C1482 0.930 . S
H1457 C1485 0.931 . S
H1458 C1484 0.929 . S
H1459 C1487 0.930 . S
H1460 C1488 0.932 . S
H1461 C1491 0.929 . S
H1462 C1490 0.931 . S
H1463 C1493 0.929 . S
H1464 C1497 0.932 1_455 S
H1465 C1494 0.931 . S
H1466 C1496 0.981 . S
H1467 C1499 0.929 . S
H1468 C1500 0.930 . S
H1469 C1502 0.929 . S
H1470 C1503 0.931 . S
H1471 C1505 0.930 . S
H1472 C1506 0.932 . S
H1473 C1508 0.931 . S
H1474 C1509 0.929 . S
H1475 C1511 0.929 . S
H1476 C1512 0.931 . S
H1477 C1514 0.943 . S
N1478 C1498 1.433 . S
N1478 C1504 1.435 . S
N1478 C1510 1.423 . S
H1479 C1515 0.932 1_455 S
C1480 N1455 1.433 . S
C1480 C1481 1.363 . S
C1480 C1485 1.370 1_655 S
C1481 H1454 0.929 . S
C1481 C1480 1.363 . S
C1481 C1482 1.385 . S
C1482 H1456 0.930 . S
C1482 C1481 1.385 . S
C1482 C1483 1.357 1_655 S
C1483 C1482 1.357 1_455 S
C1483 C1484 1.406 . S
C1484 H1458 0.929 . S
C1484 C1483 1.406 . S
C1484 C1485 1.391 . S
C1485 H1457 0.931 . S
C1485 C1480 1.370 1_455 S
C1485 C1484 1.391 . S
C1486 N1455 1.435 . S
C1486 C1487 1.358 1_655 S
C1486 C1491 1.371 . S
C1487 H1459 0.930 . S
C1487 C1486 1.358 1_455 S
C1487 C1488 1.405 . S
C1488 H1460 0.932 . S
C1488 C1487 1.405 . S
C1488 C1489 1.383 1_455 S
C1489 C1488 1.383 1_655 S
C1489 C1490 1.393 . S
C1490 H1462 0.931 . S
C1490 C1489 1.393 . S
C1490 C1491 1.382 . S
C1491 H1461 0.929 . S
C1491 C1486 1.371 . S
C1491 C1490 1.382 . S
C1492 N1455 1.423 . S
C1492 C1493 1.362 . S
C1492 C1497 1.388 . S
C1493 H1463 0.929 . S
C1493 C1492 1.362 . S
C1493 C1494 1.376 . S
C1494 H1465 0.931 . S
C1494 C1493 1.376 . S
C1494 C1495 1.396 . S
C1495 C1494 1.396 . S
C1495 C1496 1.348 . S
C1495 C1513 1.472 . S
C1496 H1466 0.981 . S
C1496 C1495 1.348 . S
C1496 C1497 1.443 . S
C1497 H1464 0.932 1_655 S
C1497 C1492 1.388 . S
C1497 C1496 1.443 . S
C1498 N1478 1.433 . S
C1498 C1499 1.363 . S
C1498 C1503 1.370 1_655 S
C1499 H1467 0.929 . S
C1499 C1498 1.363 . S
C1499 C1500 1.385 . S
C1500 H1468 0.930 . S
C1500 C1499 1.385 . S
C1500 C1501 1.357 1_655 S
C1501 C1500 1.357 1_455 S
C1501 C1502 1.406 . S
C1502 H1469 0.929 . S
C1502 C1501 1.406 . S
C1502 C1503 1.391 . S
C1503 H1470 0.931 . S
C1503 C1498 1.370 1_455 S
C1503 C1502 1.391 . S
C1504 N1478 1.435 . S
C1504 C1505 1.358 1_655 S
C1504 C1509 1.371 . S
C1505 H1471 0.930 . S
C1505 C1504 1.358 1_455 S
C1505 C1506 1.405 . S
C1506 H1472 0.932 . S
C1506 C1505 1.405 . S
C1506 C1507 1.383 1_455 S
C1507 C1506 1.383 1_655 S
C1507 C1508 1.393 . S
C1508 H1473 0.931 . S
C1508 C1507 1.393 . S
C1508 C1509 1.382 . S
C1509 H1474 0.929 . S
C1509 C1504 1.371 . S
C1509 C1508 1.382 . S
C1510 N1478 1.423 . S
C1510 C1511 1.362 . S
C1510 C1515 1.388 . S
C1511 H1475 0.929 . S
C1511 C1510 1.362 . S
C1511 C1512 1.376 . S
C1512 H1476 0.931 . S
C1512 C1511 1.376 . S
C1512 C1513 1.396 . S
C1513 C1495 1.472 . S
C1513 C1512 1.396 . S
C1513 C1514 1.348 . S
C1514 H1477 0.943 . S
C1514 C1513 1.348 . S
C1514 C1515 1.443 . S
C1515 H1479 0.932 1_655 S
C1515 C1510 1.388 . S
C1515 C1514 1.443 . S
H1516 C1543 0.929 . S
N1517 C1542 1.433 . S
N1517 C1548 1.435 . S
N1517 C1554 1.423 . S
H1518 C1544 0.930 . S
H1519 C1547 0.931 . S
H1520 C1546 0.929 . S
H1521 C1549 0.930 . S
H1522 C1550 0.932 . S
H1523 C1553 0.929 . S
H1524 C1552 0.931 . S
H1525 C1555 0.929 . S
H1526 C1559 0.932 . S
H1527 C1556 0.931 . S
H1528 C1558 0.929 . S
H1529 C1561 0.929 . S
H1530 C1562 0.930 . S
H1531 C1564 0.929 . S
H1532 C1565 0.931 . S
H1533 C1567 0.930 . S
H1534 C1568 0.932 . S
H1535 C1570 0.931 . S
H1536 C1571 0.929 . S
H1537 C1573 0.929 . S
H1538 C1574 0.931 . S
H1539 C1576 0.929 . S
N1540 C1560 1.433 . S
N1540 C1566 1.435 . S
N1540 C1572 1.423 . S
H1541 C1577 0.932 . S
C1542 N1517 1.433 . S
C1542 C1543 1.363 . S
C1542 C1547 1.370 . S
C1543 H1516 0.929 . S
C1543 C1542 1.363 . S
C1543 C1544 1.385 . S
C1544 H1518 0.930 . S
C1544 C1543 1.385 . S
C1544 C1545 1.357 . S
C1545 C1544 1.357 . S
C1545 C1546 1.406 . S
C1546 H1520 0.929 . S
C1546 C1545 1.406 . S
C1546 C1547 1.391 . S
C1547 H1519 0.931 . S
C1547 C1542 1.370 . S
C1547 C1546 1.391 . S
C1548 N1517 1.435 . S
C1548 C1549 1.358 . S
C1548 C1553 1.371 . S
C1549 H1521 0.930 . S
C1549 C1548 1.358 . S
C1549 C1550 1.405 . S
C1550 H1522 0.932 . S
C1550 C1549 1.405 . S
C1550 C1551 1.383 . S
C1551 C1550 1.383 . S
C1551 C1552 1.393 . S
C1552 H1524 0.931 . S
C1552 C1551 1.393 . S
C1552 C1553 1.382 . S
C1553 H1523 0.929 . S
C1553 C1548 1.371 . S
C1553 C1552 1.382 . S
C1554 N1517 1.423 . S
C1554 C1555 1.362 . S
C1554 C1559 1.388 . S
C1555 H1525 0.929 . S
C1555 C1554 1.362 . S
C1555 C1556 1.376 . S
C1556 H1527 0.931 . S
C1556 C1555 1.376 . S
C1556 C1557 1.396 . S
C1557 C1556 1.396 . S
C1557 C1558 1.348 . S
C1557 C1575 1.472 . S
C1558 H1528 0.929 . S
C1558 C1557 1.348 . S
C1558 C1559 1.443 . S
C1559 H1526 0.932 . S
C1559 C1554 1.388 . S
C1559 C1558 1.443 . S
C1560 N1540 1.433 . S
C1560 C1561 1.363 . S
C1560 C1565 1.370 . S
C1561 H1529 0.929 . S
C1561 C1560 1.363 . S
C1561 C1562 1.385 . S
C1562 H1530 0.930 . S
C1562 C1561 1.385 . S
C1562 C1563 1.357 . S
C1563 C1562 1.357 . S
C1563 C1564 1.406 . S
C1564 H1531 0.929 . S
C1564 C1563 1.406 . S
C1564 C1565 1.391 . S
C1565 H1532 0.931 . S
C1565 C1560 1.370 . S
C1565 C1564 1.391 . S
C1566 N1540 1.435 . S
C1566 C1567 1.358 . S
C1566 C1571 1.371 . S
C1567 H1533 0.930 . S
C1567 C1566 1.358 . S
C1567 C1568 1.405 . S
C1568 H1534 0.932 . S
C1568 C1567 1.405 . S
C1568 C1569 1.383 . S
C1569 C1568 1.383 . S
C1569 C1570 1.393 . S
C1570 H1535 0.931 . S
C1570 C1569 1.393 . S
C1570 C1571 1.382 . S
C1571 H1536 0.929 . S
C1571 C1566 1.371 . S
C1571 C1570 1.382 . S
C1572 N1540 1.423 . S
C1572 C1573 1.362 . S
C1572 C1577 1.388 . S
C1573 H1537 0.929 . S
C1573 C1572 1.362 . S
C1573 C1574 1.376 . S
C1574 H1538 0.931 . S
C1574 C1573 1.376 . S
C1574 C1575 1.396 . S
C1575 C1557 1.472 . S
C1575 C1574 1.396 . S
C1575 C1576 1.348 . S
C1576 H1539 0.929 . S
C1576 C1575 1.348 . S
C1576 C1577 1.443 . S
C1577 H1541 0.932 . S
C1577 C1572 1.388 . S
C1577 C1576 1.443 . S
H1578 C1605 0.929 . S
N1579 C1604 1.433 . S
N1579 C1610 1.435 . S
N1579 C1616 1.423 . S
H1580 C1606 0.930 . S
H1581 C1609 0.931 . S
H1582 C1608 0.929 . S
H1583 C1611 0.930 . S
H1584 C1612 0.932 . S
H1585 C1615 0.929 . S
H1586 C1614 0.931 . S
H1587 C1617 0.929 . S
H1588 C1621 0.932 . S
H1589 C1618 0.931 . S
H1590 C1620 0.929 . S
H1591 C1623 0.929 . S
H1592 C1624 0.930 . S
H1593 C1626 0.929 . S
H1594 C1627 0.931 . S
H1595 C1629 0.930 . S
H1596 C1630 0.932 . S
H1597 C1632 0.931 . S
H1598 C1633 0.929 . S
H1599 C1635 0.929 . S
H1600 C1636 0.931 . S
H1601 C1638 0.929 . S
N1602 C1622 1.433 . S
N1602 C1628 1.435 . S
N1602 C1634 1.423 . S
H1603 C1639 0.932 . S
C1604 N1579 1.433 . S
C1604 C1605 1.363 . S
C1604 C1609 1.370 . S
C1605 H1578 0.929 . S
C1605 C1604 1.363 . S
C1605 C1606 1.385 . S
C1606 H1580 0.930 . S
C1606 C1605 1.385 . S
C1606 C1607 1.357 . S
C1607 C1606 1.357 . S
C1607 C1608 1.406 . S
C1608 H1582 0.929 . S
C1608 C1607 1.406 . S
C1608 C1609 1.391 . S
C1609 H1581 0.931 . S
C1609 C1604 1.370 . S
C1609 C1608 1.391 . S
C1610 N1579 1.435 . S
C1610 C1611 1.358 . S
C1610 C1615 1.371 . S
C1611 H1583 0.930 . S
C1611 C1610 1.358 . S
C1611 C1612 1.405 . S
C1612 H1584 0.932 . S
C1612 C1611 1.405 . S
C1612 C1613 1.383 . S
C1613 C1612 1.383 . S
C1613 C1614 1.393 . S
C1614 H1586 0.931 . S
C1614 C1613 1.393 . S
C1614 C1615 1.382 . S
C1615 H1585 0.929 . S
C1615 C1610 1.371 . S
C1615 C1614 1.382 . S
C1616 N1579 1.423 . S
C1616 C1617 1.362 . S
C1616 C1621 1.388 . S
C1617 H1587 0.929 . S
C1617 C1616 1.362 . S
C1617 C1618 1.376 . S
C1618 H1589 0.931 . S
C1618 C1617 1.376 . S
C1618 C1619 1.396 . S
C1619 C1618 1.396 . S
C1619 C1620 1.348 . S
C1619 C1637 1.472 . S
C1620 H1590 0.929 . S
C1620 C1619 1.348 . S
C1620 C1621 1.443 . S
C1621 H1588 0.932 . S
C1621 C1616 1.388 . S
C1621 C1620 1.443 . S
C1622 N1602 1.433 . S
C1622 C1623 1.363 . S
C1622 C1627 1.370 . S
C1623 H1591 0.929 . S
C1623 C1622 1.363 . S
C1623 C1624 1.385 . S
C1624 H1592 0.930 . S
C1624 C1623 1.385 . S
C1624 C1625 1.357 . S
C1625 C1624 1.357 . S
C1625 C1626 1.406 . S
C1626 H1593 0.929 . S
C1626 C1625 1.406 . S
C1626 C1627 1.391 . S
C1627 H1594 0.931 . S
C1627 C1622 1.370 . S
C1627 C1626 1.391 . S
C1628 N1602 1.435 . S
C1628 C1629 1.358 . S
C1628 C1633 1.371 . S
C1629 H1595 0.930 . S
C1629 C1628 1.358 . S
C1629 C1630 1.405 . S
C1630 H1596 0.932 . S
C1630 C1629 1.405 . S
C1630 C1631 1.383 . S
C1631 C1630 1.383 . S
C1631 C1632 1.393 . S
C1632 H1597 0.931 . S
C1632 C1631 1.393 . S
C1632 C1633 1.382 . S
C1633 H1598 0.929 . S
C1633 C1628 1.371 . S
C1633 C1632 1.382 . S
C1634 N1602 1.423 . S
C1634 C1635 1.362 . S
C1634 C1639 1.388 . S
C1635 H1599 0.929 . S
C1635 C1634 1.362 . S
C1635 C1636 1.376 . S
C1636 H1600 0.931 . S
C1636 C1635 1.376 . S
C1636 C1637 1.396 . S
C1637 C1619 1.472 . S
C1637 C1636 1.396 . S
C1637 C1638 1.348 . S
C1638 H1601 0.929 . S
C1638 C1637 1.348 . S
C1638 C1639 1.443 . S
C1639 H1603 0.932 . S
C1639 C1634 1.388 . S
C1639 C1638 1.443 . S
H1640 C1667 0.929 . S
N1641 C1666 1.433 . S
N1641 C1672 1.435 . S
N1641 C1678 1.423 . S
H1642 C1668 0.930 . S
H1643 C1671 0.931 . S
H1644 C1670 0.929 . S
H1645 C1673 0.930 . S
H1646 C1674 0.932 . S
H1647 C1677 0.929 . S
H1648 C1676 0.931 . S
H1649 C1679 0.929 . S
H1650 C1683 0.932 . S
H1651 C1680 0.931 . S
H1652 C1682 0.929 . S
H1653 C1685 0.929 . S
H1654 C1686 0.930 . S
H1655 C1688 0.929 . S
H1656 C1689 0.931 . S
H1657 C1691 0.930 . S
H1658 C1692 0.932 . S
H1659 C1694 0.931 . S
H1660 C1695 0.929 . S
H1661 C1697 0.929 . S
H1662 C1698 0.931 . S
H1663 C1700 0.929 . S
N1664 C1684 1.433 . S
N1664 C1690 1.435 . S
N1664 C1696 1.423 . S
H1665 C1701 0.932 . S
C1666 N1641 1.433 . S
C1666 C1667 1.363 . S
C1666 C1671 1.370 . S
C1667 H1640 0.929 . S
C1667 C1666 1.363 . S
C1667 C1668 1.385 . S
C1668 H1642 0.930 . S
C1668 C1667 1.385 . S
C1668 C1669 1.357 . S
C1669 C1668 1.357 . S
C1669 C1670 1.406 . S
C1670 H1644 0.929 . S
C1670 C1669 1.406 . S
C1670 C1671 1.391 . S
C1671 H1643 0.931 . S
C1671 C1666 1.370 . S
C1671 C1670 1.391 . S
C1672 N1641 1.435 . S
C1672 C1673 1.358 . S
C1672 C1677 1.371 . S
C1673 H1645 0.930 . S
C1673 C1672 1.358 . S
C1673 C1674 1.405 . S
C1674 H1646 0.932 . S
C1674 C1673 1.405 . S
C1674 C1675 1.383 . S
C1675 C1674 1.383 . S
C1675 C1676 1.393 . S
C1676 H1648 0.931 . S
C1676 C1675 1.393 . S
C1676 C1677 1.382 . S
C1677 H1647 0.929 . S
C1677 C1672 1.371 . S
C1677 C1676 1.382 . S
C1678 N1641 1.423 . S
C1678 C1679 1.362 . S
C1678 C1683 1.388 . S
C1679 H1649 0.929 . S
C1679 C1678 1.362 . S
C1679 C1680 1.376 . S
C1680 H1651 0.931 . S
C1680 C1679 1.376 . S
C1680 C1681 1.396 . S
C1681 C1680 1.396 . S
C1681 C1682 1.348 . S
C1681 C1699 1.472 . S
C1682 H1652 0.929 . S
C1682 C1681 1.348 . S
C1682 C1683 1.443 . S
C1683 H1650 0.932 . S
C1683 C1678 1.388 . S
C1683 C1682 1.443 . S
C1684 N1664 1.433 . S
C1684 C1685 1.363 . S
C1684 C1689 1.370 . S
C1685 H1653 0.929 . S
C1685 C1684 1.363 . S
C1685 C1686 1.385 . S
C1686 H1654 0.930 . S
C1686 C1685 1.385 . S
C1686 C1687 1.357 . S
C1687 C1686 1.357 . S
C1687 C1688 1.406 . S
C1688 H1655 0.929 . S
C1688 C1687 1.406 . S
C1688 C1689 1.391 . S
C1689 H1656 0.931 . S
C1689 C1684 1.370 . S
C1689 C1688 1.391 . S
C1690 N1664 1.435 . S
C1690 C1691 1.358 . S
C1690 C1695 1.371 . S
C1691 H1657 0.930 . S
C1691 C1690 1.358 . S
C1691 C1692 1.405 . S
C1692 H1658 0.932 . S
C1692 C1691 1.405 . S
C1692 C1693 1.383 . S
C1693 C1692 1.383 . S
C1693 C1694 1.393 . S
C1694 H1659 0.931 . S
C1694 C1693 1.393 . S
C1694 C1695 1.382 . S
C1695 H1660 0.929 . S
C1695 C1690 1.371 . S
C1695 C1694 1.382 . S
C1696 N1664 1.423 . S
C1696 C1697 1.362 . S
C1696 C1701 1.388 . S
C1697 H1661 0.929 . S
C1697 C1696 1.362 . S
C1697 C1698 1.376 . S
C1698 H1662 0.931 . S
C1698 C1697 1.376 . S
C1698 C1699 1.396 . S
C1699 C1681 1.472 . S
C1699 C1698 1.396 . S
C1699 C1700 1.348 . S
C1700 H1663 0.929 . S
C1700 C1699 1.348 . S
C1700 C1701 1.443 . S
C1701 H1665 0.932 . S
C1701 C1696 1.388 . S
C1701 C1700 1.443 . S
H1702 C1729 0.929 . S
N1703 C1728 1.433 . S
N1703 C1734 1.435 . S
N1703 C1740 1.423 . S
H1704 C1730 0.930 . S
H1705 C1733 0.931 . S
H1706 C1732 0.929 . S
H1707 C1735 0.930 . S
H1708 C1736 0.932 . S
H1709 C1739 0.929 . S
H1710 C1738 0.931 . S
H1711 C1741 0.929 . S
H1712 C1745 0.932 . S
H1713 C1742 0.931 . S
H1714 C1744 0.929 . S
H1715 C1747 0.929 . S
H1716 C1748 0.930 . S
H1717 C1750 0.929 . S
H1718 C1751 0.931 . S
H1719 C1753 0.930 . S
H1720 C1754 0.932 . S
H1721 C1756 0.931 . S
H1722 C1757 0.929 . S
H1723 C1759 0.929 . S
H1724 C1760 0.931 . S
H1725 C1762 0.929 . S
N1726 C1746 1.433 . S
N1726 C1752 1.435 . S
N1726 C1758 1.423 . S
H1727 C1763 0.932 . S
C1728 N1703 1.433 . S
C1728 C1729 1.363 . S
C1728 C1733 1.370 . S
C1729 H1702 0.929 . S
C1729 C1728 1.363 . S
C1729 C1730 1.385 . S
C1730 H1704 0.930 . S
C1730 C1729 1.385 . S
C1730 C1731 1.357 . S
C1731 C1730 1.357 . S
C1731 C1732 1.406 . S
C1732 H1706 0.929 . S
C1732 C1731 1.406 . S
C1732 C1733 1.391 . S
C1733 H1705 0.931 . S
C1733 C1728 1.370 . S
C1733 C1732 1.391 . S
C1734 N1703 1.435 . S
C1734 C1735 1.358 . S
C1734 C1739 1.371 . S
C1735 H1707 0.930 . S
C1735 C1734 1.358 . S
C1735 C1736 1.405 . S
C1736 H1708 0.932 . S
C1736 C1735 1.405 . S
C1736 C1737 1.383 . S
C1737 C1736 1.383 . S
C1737 C1738 1.393 . S
C1738 H1710 0.931 . S
C1738 C1737 1.393 . S
C1738 C1739 1.382 . S
C1739 H1709 0.929 . S
C1739 C1734 1.371 . S
C1739 C1738 1.382 . S
C1740 N1703 1.423 . S
C1740 C1741 1.362 . S
C1740 C1745 1.388 . S
C1741 H1711 0.929 . S
C1741 C1740 1.362 . S
C1741 C1742 1.376 . S
C1742 H1713 0.931 . S
C1742 C1741 1.376 . S
C1742 C1743 1.396 . S
C1743 C1742 1.396 . S
C1743 C1744 1.348 . S
C1743 C1761 1.472 . S
C1744 H1714 0.929 . S
C1744 C1743 1.348 . S
C1744 C1745 1.443 . S
C1745 H1712 0.932 . S
C1745 C1740 1.388 . S
C1745 C1744 1.443 . S
C1746 N1726 1.433 . S
C1746 C1747 1.363 . S
C1746 C1751 1.370 . S
C1747 H1715 0.929 . S
C1747 C1746 1.363 . S
C1747 C1748 1.385 . S
C1748 H1716 0.930 . S
C1748 C1747 1.385 . S
C1748 C1749 1.357 . S
C1749 C1748 1.357 . S
C1749 C1750 1.406 . S
C1750 H1717 0.929 . S
C1750 C1749 1.406 . S
C1750 C1751 1.391 . S
C1751 H1718 0.931 . S
C1751 C1746 1.370 . S
C1751 C1750 1.391 . S
C1752 N1726 1.435 . S
C1752 C1753 1.358 . S
C1752 C1757 1.371 . S
C1753 H1719 0.930 . S
C1753 C1752 1.358 . S
C1753 C1754 1.405 . S
C1754 H1720 0.932 . S
C1754 C1753 1.405 . S
C1754 C1755 1.383 . S
C1755 C1754 1.383 . S
C1755 C1756 1.393 . S
C1756 H1721 0.931 . S
C1756 C1755 1.393 . S
C1756 C1757 1.382 . S
C1757 H1722 0.929 . S
C1757 C1752 1.371 . S
C1757 C1756 1.382 . S
C1758 N1726 1.423 . S
C1758 C1759 1.362 . S
C1758 C1763 1.388 . S
C1759 H1723 0.929 . S
C1759 C1758 1.362 . S
C1759 C1760 1.376 . S
C1760 H1724 0.931 . S
C1760 C1759 1.376 . S
C1760 C1761 1.396 . S
C1761 C1743 1.472 . S
C1761 C1760 1.396 . S
C1761 C1762 1.348 . S
C1762 H1725 0.929 . S
C1762 C1761 1.348 . S
C1762 C1763 1.443 . S
C1763 H1727 0.932 . S
C1763 C1758 1.388 . S
C1763 C1762 1.443 . S
H1764 C1772 0.950 . S
H1765 C1777 0.950 . S
H1766 C1774 0.950 . S
H1767 C1776 0.950 . S
H1768 C1778 0.950 . S
H1769 C1780 0.950 . S
H1770 C1782 0.950 . S
H1771 C1783 0.950 . S
C1772 H1764 0.950 . S
C1772 C1773 1.386 . S
C1772 C1774 1.391 . S
C1773 C1772 1.386 . S
C1773 C1777 1.393 1_655 S
C1774 H1766 0.950 . S
C1774 C1772 1.391 . S
C1774 C1775 1.400 . S
C1775 C1774 1.400 . S
C1775 C1776 1.398 1_655 S
C1775 C1781 1.491 . S
C1776 H1767 0.950 . S
C1776 C1775 1.398 1_455 S
C1776 C1777 1.391 . S
C1777 H1765 0.950 . S
C1777 C1773 1.393 1_455 S
C1777 C1776 1.391 . S
C1778 H1768 0.950 . S
C1778 C1779 1.386 1_455 S
C1778 C1780 1.391 . S
C1779 C1778 1.386 1_655 S
C1779 C1783 1.393 . S
C1780 H1769 0.950 . S
C1780 C1778 1.391 . S
C1780 C1781 1.400 1_455 S
C1781 C1775 1.491 . S
C1781 C1780 1.400 1_655 S
C1781 C1782 1.398 . S
C1782 H1770 0.950 . S
C1782 C1781 1.398 . S
C1782 C1783 1.391 . S
C1783 H1771 0.950 . S
C1783 C1779 1.393 . S
C1783 C1782 1.391 . S
H1784 C1792 0.950 . S
H1785 C1797 0.950 . S
H1786 C1794 0.950 . S
H1787 C1796 0.950 . S
H1788 C1798 0.950 . S
H1789 C1800 0.950 . S
H1790 C1802 0.950 . S
H1791 C1803 0.950 . S
C1792 H1784 0.950 . S
C1792 C1793 1.386 . S
C1792 C1794 1.391 . S
C1793 C1792 1.386 . S
C1793 C1797 1.393 . S
C1794 H1786 0.950 . S
C1794 C1792 1.391 . S
C1794 C1795 1.400 . S
C1795 C1794 1.400 . S
C1795 C1796 1.398 . S
C1795 C1801 1.491 . S
C1796 H1787 0.950 . S
C1796 C1795 1.398 . S
C1796 C1797 1.391 . S
C1797 H1785 0.950 . S
C1797 C1793 1.393 . S
C1797 C1796 1.391 . S
C1798 H1788 0.950 . S
C1798 C1799 1.386 . S
C1798 C1800 1.391 . S
C1799 C1798 1.386 . S
C1799 C1803 1.393 . S
C1800 H1789 0.950 . S
C1800 C1798 1.391 . S
C1800 C1801 1.400 . S
C1801 C1795 1.491 . S
C1801 C1800 1.400 . S
C1801 C1802 1.398 . S
C1802 H1790 0.950 . S
C1802 C1801 1.398 . S
C1802 C1803 1.391 . S
C1803 H1791 0.950 . S
C1803 C1799 1.393 . S
C1803 C1802 1.391 . S
H1804 C1812 0.950 . S
H1805 C1817 0.950 . S
H1806 C1814 0.950 . S
H1807 C1816 0.950 . S
H1808 C1818 0.950 . S
H1809 C1820 0.950 . S
H1810 C1822 0.950 . S
H1811 C1823 0.950 . S
C1812 H1804 0.950 . S
C1812 C1813 1.386 . S
C1812 C1814 1.391 . S
C1813 C1812 1.386 . S
C1813 C1817 1.393 1_545 S
C1814 H1806 0.950 . S
C1814 C1812 1.391 . S
C1814 C1815 1.400 . S
C1815 C1814 1.400 . S
C1815 C1816 1.398 1_545 S
C1815 C1821 1.491 . S
C1816 H1807 0.950 . S
C1816 C1815 1.398 1_565 S
C1816 C1817 1.391 . S
C1817 H1805 0.950 . S
C1817 C1813 1.393 1_565 S
C1817 C1816 1.391 . S
C1818 H1808 0.950 . S
C1818 C1819 1.386 1_565 S
C1818 C1820 1.391 . S
C1819 C1818 1.386 1_545 S
C1819 C1823 1.393 . S
C1820 H1809 0.950 . S
C1820 C1818 1.391 . S
C1820 C1821 1.400 1_565 S
C1821 C1815 1.491 . S
C1821 C1820 1.400 1_545 S
C1821 C1822 1.398 . S
C1822 H1810 0.950 . S
C1822 C1821 1.398 . S
C1822 C1823 1.391 . S
C1823 H1811 0.950 . S
C1823 C1819 1.393 . S
C1823 C1822 1.391 . S
H1824 C1832 0.950 . S
H1825 C1837 0.950 . S
H1826 C1834 0.950 . S
H1827 C1836 0.950 . S
H1828 C1838 0.950 . S
H1829 C1840 0.950 . S
H1830 C1842 0.950 . S
H1831 C1843 0.950 . S
C1832 H1824 0.950 . S
C1832 C1833 1.386 . S
C1832 C1834 1.391 . S
C1833 C1832 1.386 . S
C1833 C1837 1.393 1_565 S
C1834 H1826 0.950 . S
C1834 C1832 1.391 . S
C1834 C1835 1.400 . S
C1835 C1834 1.400 . S
C1835 C1836 1.398 1_565 S
C1835 C1841 1.491 . S
C1836 H1827 0.950 . S
C1836 C1835 1.398 1_545 S
C1836 C1837 1.391 . S
C1837 H1825 0.950 . S
C1837 C1833 1.393 1_545 S
C1837 C1836 1.391 . S
C1838 H1828 0.950 . S
C1838 C1839 1.386 1_545 S
C1838 C1840 1.391 . S
C1839 C1838 1.386 1_565 S
C1839 C1843 1.393 . S
C1840 H1829 0.950 . S
C1840 C1838 1.391 . S
C1840 C1841 1.400 1_545 S
C1841 C1835 1.491 . S
C1841 C1840 1.400 1_565 S
C1841 C1842 1.398 . S
C1842 H1830 0.950 . S
C1842 C1841 1.398 . S
C1842 C1843 1.391 . S
C1843 H1831 0.950 . S
C1843 C1839 1.393 . S
C1843 C1842 1.391 . S
H1844 C1852 0.950 . S
H1845 C1857 0.950 . S
H1846 C1854 0.950 . S
H1847 C1856 0.950 . S
H1848 C1858 0.950 . S
H1849 C1860 0.950 . S
H1850 C1862 0.950 . S
H1851 C1863 0.950 . S
C1852 H1844 0.950 . S
C1852 C1853 1.386 . S
C1852 C1854 1.391 . S
C1853 C1852 1.386 . S
C1853 C1857 1.393 1_455 S
C1854 H1846 0.950 . S
C1854 C1852 1.391 . S
C1854 C1855 1.400 . S
C1855 C1854 1.400 . S
C1855 C1856 1.398 1_455 S
C1855 C1861 1.491 . S
C1856 H1847 0.950 . S
C1856 C1855 1.398 1_655 S
C1856 C1857 1.391 . S
C1857 H1845 0.950 . S
C1857 C1853 1.393 1_655 S
C1857 C1856 1.391 . S
C1858 H1848 0.950 . S
C1858 C1859 1.386 1_655 S
C1858 C1860 1.391 . S
C1859 C1858 1.386 1_455 S
C1859 C1863 1.393 . S
C1860 H1849 0.950 . S
C1860 C1858 1.391 . S
C1860 C1861 1.400 1_655 S
C1861 C1855 1.491 . S
C1861 C1860 1.400 1_455 S
C1861 C1862 1.398 . S
C1862 H1850 0.950 . S
C1862 C1861 1.398 . S
C1862 C1863 1.391 . S
C1863 H1851 0.950 . S
C1863 C1859 1.393 . S
C1863 C1862 1.391 . S
H1864 C1872 0.950 . S
H1865 C1877 0.950 . S
H1866 C1874 0.950 . S
H1867 C1876 0.950 . S
H1868 C1878 0.950 . S
H1869 C1880 0.950 . S
H1870 C1882 0.950 . S
H1871 C1883 0.950 . S
C1872 H1864 0.950 . S
C1872 C1873 1.386 . S
C1872 C1874 1.391 . S
C1873 C1872 1.386 . S
C1873 C1877 1.393 . S
C1874 H1866 0.950 . S
C1874 C1872 1.391 . S
C1874 C1875 1.400 . S
C1875 C1874 1.400 . S
C1875 C1876 1.398 . S
C1875 C1881 1.491 . S
C1876 H1867 0.950 . S
C1876 C1875 1.398 . S
C1876 C1877 1.391 . S
C1877 H1865 0.950 . S
C1877 C1873 1.393 . S
C1877 C1876 1.391 . S
C1878 H1868 0.950 . S
C1878 C1879 1.386 . S
C1878 C1880 1.391 . S
C1879 C1878 1.386 . S
C1879 C1883 1.393 . S
C1880 H1869 0.950 . S
C1880 C1878 1.391 . S
C1880 C1881 1.400 . S
C1881 C1875 1.491 . S
C1881 C1880 1.400 . S
C1881 C1882 1.398 . S
C1882 H1870 0.950 . S
C1882 C1881 1.398 . S
C1882 C1883 1.391 . S
C1883 H1871 0.950 . S
C1883 C1879 1.393 . S
C1883 C1882 1.391 . S
H1884 C1892 0.950 . S
H1885 C1897 0.950 . S
H1886 C1894 0.950 . S
H1887 C1896 0.950 . S
H1888 C1898 0.950 . S
H1889 C1900 0.950 . S
H1890 C1902 0.950 . S
H1891 C1903 0.950 . S
C1892 H1884 0.950 . S
C1892 C1893 1.386 1_655 S
C1892 C1894 1.391 . S
C1893 C1892 1.386 1_455 S
C1893 C1897 1.393 . S
C1894 H1886 0.950 . S
C1894 C1892 1.391 . S
C1894 C1895 1.400 1_655 S
C1895 C1894 1.400 1_455 S
C1895 C1896 1.398 . S
C1895 C1901 1.491 . S
C1896 H1887 0.950 . S
C1896 C1895 1.398 . S
C1896 C1897 1.391 . S
C1897 H1885 0.950 . S
C1897 C1893 1.393 . S
C1897 C1896 1.391 . S
C1898 H1888 0.950 . S
C1898 C1899 1.386 . S
C1898 C1900 1.391 . S
C1899 C1898 1.386 . S
C1899 C1903 1.393 1_455 S
C1900 H1889 0.950 . S
C1900 C1898 1.391 . S
C1900 C1901 1.400 . S
C1901 C1895 1.491 . S
C1901 C1900 1.400 . S
C1901 C1902 1.398 1_455 S
C1902 H1890 0.950 . S
C1902 C1901 1.398 1_655 S
C1902 C1903 1.391 . S
C1903 H1891 0.950 . S
C1903 C1899 1.393 1_655 S
C1903 C1902 1.391 . S
H1904 C1912 0.950 . S
H1905 C1917 0.950 . S
H1906 C1914 0.950 . S
H1907 C1916 0.950 . S
H1908 C1918 0.950 . S
H1909 C1920 0.950 . S
H1910 C1922 0.950 . S
H1911 C1923 0.950 . S
C1912 H1904 0.950 . S
C1912 C1913 1.386 . S
C1912 C1914 1.391 . S
C1913 C1912 1.386 . S
C1913 C1917 1.393 . S
C1914 H1906 0.950 . S
C1914 C1912 1.391 . S
C1914 C1915 1.400 . S
C1915 C1914 1.400 . S
C1915 C1916 1.398 . S
C1915 C1921 1.491 . S
C1916 H1907 0.950 . S
C1916 C1915 1.398 . S
C1916 C1917 1.391 . S
C1917 H1905 0.950 . S
C1917 C1913 1.393 . S
C1917 C1916 1.391 . S
C1918 H1908 0.950 . S
C1918 C1919 1.386 . S
C1918 C1920 1.391 . S
C1919 C1918 1.386 . S
C1919 C1923 1.393 . S
C1920 H1909 0.950 . S
C1920 C1918 1.391 . S
C1920 C1921 1.400 . S
C1921 C1915 1.491 . S
C1921 C1920 1.400 . S
C1921 C1922 1.398 . S
C1922 H1910 0.950 . S
C1922 C1921 1.398 . S
C1922 C1923 1.391 . S
C1923 H1911 0.950 . S
C1923 C1919 1.393 . S
C1923 C1922 1.391 . S
H1924 C1932 0.950 . S
H1925 C1937 0.950 . S
H1926 C1934 0.950 . S
H1927 C1936 0.950 . S
H1928 C1938 0.950 . S
H1929 C1940 0.950 . S
H1930 C1942 0.950 . S
H1931 C1943 0.950 . S
C1932 H1924 0.950 . S
C1932 C1933 1.386 1_545 S
C1932 C1934 1.391 . S
C1933 C1932 1.386 1_565 S
C1933 C1937 1.393 . S
C1934 H1926 0.950 . S
C1934 C1932 1.391 . S
C1934 C1935 1.400 1_545 S
C1935 C1934 1.400 1_565 S
C1935 C1936 1.398 . S
C1935 C1941 1.491 . S
C1936 H1927 0.950 . S
C1936 C1935 1.398 . S
C1936 C1937 1.391 . S
C1937 H1925 0.950 . S
C1937 C1933 1.393 . S
C1937 C1936 1.391 . S
C1938 H1928 0.950 . S
C1938 C1939 1.386 . S
C1938 C1940 1.391 . S
C1939 C1938 1.386 . S
C1939 C1943 1.393 1_565 S
C1940 H1929 0.950 . S
C1940 C1938 1.391 . S
C1940 C1941 1.400 . S
C1941 C1935 1.491 . S
C1941 C1940 1.400 . S
C1941 C1942 1.398 1_565 S
C1942 H1930 0.950 . S
C1942 C1941 1.398 1_545 S
C1942 C1943 1.391 . S
C1943 H1931 0.950 . S
C1943 C1939 1.393 1_545 S
C1943 C1942 1.391 . S
H1944 C1952 0.950 . S
H1945 C1957 0.950 . S
H1946 C1954 0.950 . S
H1947 C1956 0.950 . S
H1948 C1958 0.950 . S
H1949 C1960 0.950 . S
H1950 C1962 0.950 . S
H1951 C1963 0.950 . S
C1952 H1944 0.950 . S
C1952 C1953 1.386 . S
C1952 C1954 1.391 . S
C1953 C1952 1.386 . S
C1953 C1957 1.393 . S
C1954 H1946 0.950 . S
C1954 C1952 1.391 . S
C1954 C1955 1.400 . S
C1955 C1954 1.400 . S
C1955 C1956 1.398 . S
C1955 C1961 1.491 . S
C1956 H1947 0.950 . S
C1956 C1955 1.398 . S
C1956 C1957 1.391 . S
C1957 H1945 0.950 . S
C1957 C1953 1.393 . S
C1957 C1956 1.391 . S
C1958 H1948 0.950 . S
C1958 C1959 1.386 . S
C1958 C1960 1.391 . S
C1959 C1958 1.386 . S
C1959 C1963 1.393 . S
C1960 H1949 0.950 . S
C1960 C1958 1.391 . S
C1960 C1961 1.400 . S
C1961 C1955 1.491 . S
C1961 C1960 1.400 . S
C1961 C1962 1.398 . S
C1962 H1950 0.950 . S
C1962 C1961 1.398 . S
C1962 C1963 1.391 . S
C1963 H1951 0.950 . S
C1963 C1959 1.393 . S
C1963 C1962 1.391 . S
H1964 C1972 0.960 1_455 S
H1965 C1977 0.950 . S
H1966 C1974 0.961 1_455 S
H1967 C1976 0.950 . S
H1968 C1978 0.950 . S
H1969 C1980 0.950 . S
H1970 C1982 0.970 1_455 S
H1971 C1983 0.950 . S
C1972 H1964 0.960 1_655 S
C1972 C1973 1.385 . S
C1972 C1974 1.403 . S
C1973 C1972 1.385 . S
C1973 C1977 1.393 . S
C1974 H1966 0.961 1_655 S
C1974 C1972 1.403 . S
C1974 C1975 1.378 . S
C1975 C1974 1.378 . S
C1975 C1976 1.398 . S
C1975 C1981 1.491 . S
C1976 H1967 0.950 . S
C1976 C1975 1.398 . S
C1976 C1977 1.391 . S
C1977 H1965 0.950 . S
C1977 C1973 1.393 . S
C1977 C1976 1.391 . S
C1978 H1968 0.950 . S
C1978 C1979 1.386 . S
C1978 C1980 1.391 . S
C1979 C1978 1.386 . S
C1979 C1983 1.393 . S
C1980 H1969 0.950 . S
C1980 C1978 1.391 . S
C1980 C1981 1.400 . S
C1981 C1975 1.491 . S
C1981 C1980 1.400 . S
C1981 C1982 1.400 . S
C1982 H1970 0.970 1_655 S
C1982 C1981 1.400 . S
C1982 C1983 1.373 . S
C1983 H1971 0.950 . S
C1983 C1979 1.393 . S
C1983 C1982 1.373 . S
H1984 C1992 0.950 . S
H1985 C1997 0.950 . S
H1986 C1994 0.950 . S
H1987 C1996 0.950 . S
H1988 C1998 0.950 . S
H1989 C2000 0.950 . S
H1990 C2002 0.950 . S
H1991 C2003 0.950 . S
C1992 H1984 0.950 . S
C1992 C1993 1.386 . S
C1992 C1994 1.391 . S
C1993 C1992 1.386 . S
C1993 C1997 1.393 . S
C1994 H1986 0.950 . S
C1994 C1992 1.391 . S
C1994 C1995 1.400 . S
C1995 C1994 1.400 . S
C1995 C1996 1.398 . S
C1995 C2001 1.491 . S
C1996 H1987 0.950 . S
C1996 C1995 1.398 . S
C1996 C1997 1.391 . S
C1997 H1985 0.950 . S
C1997 C1993 1.393 . S
C1997 C1996 1.391 . S
C1998 H1988 0.950 . S
C1998 C1999 1.386 . S
C1998 C2000 1.391 . S
C1999 C1998 1.386 . S
C1999 C2003 1.393 . S
C2000 H1989 0.950 . S
C2000 C1998 1.391 . S
C2000 C2001 1.400 . S
C2001 C1995 1.491 . S
C2001 C2000 1.400 . S
C2001 C2002 1.398 . S
C2002 H1990 0.950 . S
C2002 C2001 1.398 . S
C2002 C2003 1.391 . S
C2003 H1991 0.950 . S
C2003 C1999 1.393 . S
C2003 C2002 1.391 . S
H2004 C2012 0.950 . S
H2005 C2017 0.950 . S
H2006 C2014 0.950 . S
H2007 C2016 0.950 . S
H2008 C2018 0.950 . S
H2009 C2020 0.950 . S
H2010 C2022 0.950 . S
H2011 C2023 0.950 . S
C2012 H2004 0.950 . S
C2012 C2013 1.386 . S
C2012 C2014 1.391 . S
C2013 C2012 1.386 . S
C2013 C2017 1.393 . S
C2014 H2006 0.950 . S
C2014 C2012 1.391 . S
C2014 C2015 1.400 . S
C2015 C2014 1.400 . S
C2015 C2016 1.398 . S
C2015 C2021 1.491 . S
C2016 H2007 0.950 . S
C2016 C2015 1.398 . S
C2016 C2017 1.391 . S
C2017 H2005 0.950 . S
C2017 C2013 1.393 . S
C2017 C2016 1.391 . S
C2018 H2008 0.950 . S
C2018 C2019 1.386 . S
C2018 C2020 1.391 . S
C2019 C2018 1.386 . S
C2019 C2023 1.393 . S
C2020 H2009 0.950 . S
C2020 C2018 1.391 . S
C2020 C2021 1.400 . S
C2021 C2015 1.491 . S
C2021 C2020 1.400 . S
C2021 C2022 1.398 . S
C2022 H2010 0.950 . S
C2022 C2021 1.398 . S
C2022 C2023 1.391 . S
C2023 H2011 0.950 . S
C2023 C2019 1.393 . S
C2023 C2022 1.391 . S
H2024 C2032 0.950 . S
H2025 C2037 0.950 . S
H2026 C2034 0.950 . S
H2027 C2036 0.950 . S
H2028 C2038 0.950 . S
H2029 C2040 0.950 . S
H2030 C2042 0.950 . S
H2031 C2043 0.950 . S
C2032 H2024 0.950 . S
C2032 C2033 1.386 . S
C2032 C2034 1.391 . S
C2033 C2032 1.386 . S
C2033 C2037 1.393 . S
C2034 H2026 0.950 . S
C2034 C2032 1.391 . S
C2034 C2035 1.400 . S
C2035 C2034 1.400 . S
C2035 C2036 1.398 . S
C2035 C2041 1.491 . S
C2036 H2027 0.950 . S
C2036 C2035 1.398 . S
C2036 C2037 1.391 . S
C2037 H2025 0.950 . S
C2037 C2033 1.393 . S
C2037 C2036 1.391 . S
C2038 H2028 0.950 . S
C2038 C2039 1.386 . S
C2038 C2040 1.391 . S
C2039 C2038 1.386 . S
C2039 C2043 1.393 . S
C2040 H2029 0.950 . S
C2040 C2038 1.391 . S
C2040 C2041 1.400 . S
C2041 C2035 1.491 . S
C2041 C2040 1.400 . S
C2041 C2042 1.398 . S
C2042 H2030 0.950 . S
C2042 C2041 1.398 . S
C2042 C2043 1.391 . S
C2043 H2031 0.950 . S
C2043 C2039 1.393 . S
C2043 C2042 1.391 . S
H2044 C2052 0.950 . S
H2045 C2057 0.950 . S
H2046 C2054 0.950 . S
H2047 C2056 0.950 . S
H2048 C2058 0.950 . S
H2049 C2060 0.950 . S
H2050 C2062 0.950 . S
H2051 C2063 0.950 . S
C2052 H2044 0.950 . S
C2052 C2053 1.386 . S
C2052 C2054 1.391 . S
C2053 C2052 1.386 . S
C2053 C2057 1.393 . S
C2054 H2046 0.950 . S
C2054 C2052 1.391 . S
C2054 C2055 1.400 . S
C2055 C2054 1.400 . S
C2055 C2056 1.398 . S
C2055 C2061 1.491 . S
C2056 H2047 0.950 . S
C2056 C2055 1.398 . S
C2056 C2057 1.391 . S
C2057 H2045 0.950 . S
C2057 C2053 1.393 . S
C2057 C2056 1.391 . S
C2058 H2048 0.950 . S
C2058 C2059 1.386 . S
C2058 C2060 1.391 . S
C2059 C2058 1.386 . S
C2059 C2063 1.393 . S
C2060 H2049 0.950 . S
C2060 C2058 1.391 . S
C2060 C2061 1.400 . S
C2061 C2055 1.491 . S
C2061 C2060 1.400 . S
C2061 C2062 1.398 . S
C2062 H2050 0.950 . S
C2062 C2061 1.398 . S
C2062 C2063 1.391 . S
C2063 H2051 0.950 . S
C2063 C2059 1.393 . S
C2063 C2062 1.391 . S
H2064 C2072 0.950 . S
H2065 C2077 0.950 . S
H2066 C2074 0.950 . S
H2067 C2076 0.950 . S
H2068 C2078 0.950 . S
H2069 C2080 0.950 . S
H2070 C2082 0.950 . S
H2071 C2083 0.950 . S
C2072 H2064 0.950 . S
C2072 C2073 1.386 . S
C2072 C2074 1.391 . S
C2073 C2072 1.386 . S
C2073 C2077 1.393 . S
C2074 H2066 0.950 . S
C2074 C2072 1.391 . S
C2074 C2075 1.400 . S
C2075 C2074 1.400 . S
C2075 C2076 1.398 . S
C2075 C2081 1.491 . S
C2076 H2067 0.950 . S
C2076 C2075 1.398 . S
C2076 C2077 1.391 . S
C2077 H2065 0.950 . S
C2077 C2073 1.393 . S
C2077 C2076 1.391 . S
C2078 H2068 0.950 . S
C2078 C2079 1.386 . S
C2078 C2080 1.391 . S
C2079 C2078 1.386 . S
C2079 C2083 1.393 . S
C2080 H2069 0.950 . S
C2080 C2078 1.391 . S
C2080 C2081 1.400 . S
C2081 C2075 1.491 . S
C2081 C2080 1.400 . S
C2081 C2082 1.398 . S
C2082 H2070 0.950 . S
C2082 C2081 1.398 . S
C2082 C2083 1.391 . S
C2083 H2071 0.950 . S
C2083 C2079 1.393 . S
C2083 C2082 1.391 . S
H2084 C2092 0.950 . S
H2085 C2097 0.950 . S
H2086 C2094 0.950 . S
H2087 C2096 0.950 . S
H2088 C2098 0.950 . S
H2089 C2100 0.950 . S
H2090 C2102 0.950 . S
H2091 C2103 0.950 . S
C2092 H2084 0.950 . S
C2092 C2093 1.386 . S
C2092 C2094 1.391 . S
C2093 C2092 1.386 . S
C2093 C2097 1.393 . S
C2094 H2086 0.950 . S
C2094 C2092 1.391 . S
C2094 C2095 1.400 . S
C2095 C2094 1.400 . S
C2095 C2096 1.398 . S
C2095 C2101 1.491 . S
C2096 H2087 0.950 . S
C2096 C2095 1.398 . S
C2096 C2097 1.391 . S
C2097 H2085 0.950 . S
C2097 C2093 1.393 . S
C2097 C2096 1.391 . S
C2098 H2088 0.950 . S
C2098 C2099 1.386 . S
C2098 C2100 1.391 . S
C2099 C2098 1.386 . S
C2099 C2103 1.393 . S
C2100 H2089 0.950 . S
C2100 C2098 1.391 . S
C2100 C2101 1.400 . S
C2101 C2095 1.491 . S
C2101 C2100 1.400 . S
C2101 C2102 1.398 . S
C2102 H2090 0.950 . S
C2102 C2101 1.398 . S
C2102 C2103 1.391 . S
C2103 H2091 0.950 . S
C2103 C2099 1.393 . S
C2103 C2102 1.391 . S
H2104 C2112 0.950 . S
H2105 C2117 0.950 . S
H2106 C2114 0.950 . S
H2107 C2116 0.950 . S
H2108 C2118 0.950 . S
H2109 C2120 0.950 . S
H2110 C2122 0.950 . S
H2111 C2123 0.950 . S
C2112 H2104 0.950 . S
C2112 C2113 1.386 . S
C2112 C2114 1.391 . S
C2113 C2112 1.386 . S
C2113 C2117 1.393 . S
C2114 H2106 0.950 . S
C2114 C2112 1.391 . S
C2114 C2115 1.400 . S
C2115 C2114 1.400 . S
C2115 C2116 1.398 . S
C2115 C2121 1.491 . S
C2116 H2107 0.950 . S
C2116 C2115 1.398 . S
C2116 C2117 1.391 . S
C2117 H2105 0.950 . S
C2117 C2113 1.393 . S
C2117 C2116 1.391 . S
C2118 H2108 0.950 . S
C2118 C2119 1.386 . S
C2118 C2120 1.391 . S
C2119 C2118 1.386 . S
C2119 C2123 1.393 . S
C2120 H2109 0.950 . S
C2120 C2118 1.391 . S
C2120 C2121 1.400 . S
C2121 C2115 1.491 . S
C2121 C2120 1.400 . S
C2121 C2122 1.398 . S
C2122 H2110 0.950 . S
C2122 C2121 1.398 . S
C2122 C2123 1.391 . S
C2123 H2111 0.950 . S
C2123 C2119 1.393 . S
C2123 C2122 1.391 . S
H2124 C2132 0.950 . S
H2125 C2137 0.950 . S
H2126 C2134 0.950 . S
H2127 C2136 0.950 . S
H2128 C2138 0.950 . S
H2129 C2140 0.950 . S
H2130 C2142 0.950 . S
H2131 C2143 0.950 . S
C2132 H2124 0.950 . S
C2132 C2133 1.386 . S
C2132 C2134 1.391 . S
C2133 C2132 1.386 . S
C2133 C2137 1.393 . S
C2134 H2126 0.950 . S
C2134 C2132 1.391 . S
C2134 C2135 1.400 . S
C2135 C2134 1.400 . S
C2135 C2136 1.398 . S
C2135 C2141 1.491 . S
C2136 H2127 0.950 . S
C2136 C2135 1.398 . S
C2136 C2137 1.391 . S
C2137 H2125 0.950 . S
C2137 C2133 1.393 . S
C2137 C2136 1.391 . S
C2138 H2128 0.950 . S
C2138 C2139 1.386 . S
C2138 C2140 1.391 . S
C2139 C2138 1.386 . S
C2139 C2143 1.393 . S
C2140 H2129 0.950 . S
C2140 C2138 1.391 . S
C2140 C2141 1.400 . S
C2141 C2135 1.491 . S
C2141 C2140 1.400 . S
C2141 C2142 1.398 . S
C2142 H2130 0.950 . S
C2142 C2141 1.398 . S
C2142 C2143 1.391 . S
C2143 H2131 0.950 . S
C2143 C2139 1.393 . S
C2143 C2142 1.391 . S
H2144 C2152 0.950 . S
H2145 C2157 0.950 . S
H2146 C2154 0.950 . S
H2147 C2156 0.950 . S
H2148 C2158 0.950 . S
H2149 C2160 0.950 . S
H2150 C2162 0.950 . S
H2151 C2163 0.950 . S
C2152 H2144 0.950 . S
C2152 C2153 1.386 . S
C2152 C2154 1.391 . S
C2153 C2152 1.386 . S
C2153 C2157 1.393 . S
C2154 H2146 0.950 . S
C2154 C2152 1.391 . S
C2154 C2155 1.400 . S
C2155 C2154 1.400 . S
C2155 C2156 1.398 . S
C2155 C2161 1.491 . S
C2156 H2147 0.950 . S
C2156 C2155 1.398 . S
C2156 C2157 1.391 . S
C2157 H2145 0.950 . S
C2157 C2153 1.393 . S
C2157 C2156 1.391 . S
C2158 H2148 0.950 . S
C2158 C2159 1.386 . S
C2158 C2160 1.391 . S
C2159 C2158 1.386 . S
C2159 C2163 1.393 . S
C2160 H2149 0.950 . S
C2160 C2158 1.391 . S
C2160 C2161 1.400 . S
C2161 C2155 1.491 . S
C2161 C2160 1.400 . S
C2161 C2162 1.398 . S
C2162 H2150 0.950 . S
C2162 C2161 1.398 . S
C2162 C2163 1.391 . S
C2163 H2151 0.950 . S
C2163 C2159 1.393 . S
C2163 C2162 1.391 . S
H2164 C2172 0.950 . S
H2165 C2177 0.950 . S
H2166 C2174 0.950 . S
H2167 C2176 0.950 . S
H2168 C2178 0.950 . S
H2169 C2180 0.950 . S
H2170 C2182 0.950 . S
H2171 C2183 0.950 . S
C2172 H2164 0.950 . S
C2172 C2173 1.386 . S
C2172 C2174 1.391 . S
C2173 C2172 1.386 . S
C2173 C2177 1.393 . S
C2174 H2166 0.950 . S
C2174 C2172 1.391 . S
C2174 C2175 1.400 . S
C2175 C2174 1.400 . S
C2175 C2176 1.398 . S
C2175 C2181 1.491 . S
C2176 H2167 0.950 . S
C2176 C2175 1.398 . S
C2176 C2177 1.391 . S
C2177 H2165 0.950 . S
C2177 C2173 1.393 . S
C2177 C2176 1.391 . S
C2178 H2168 0.950 . S
C2178 C2179 1.386 . S
C2178 C2180 1.391 . S
C2179 C2178 1.386 . S
C2179 C2183 1.393 . S
C2180 H2169 0.950 . S
C2180 C2178 1.391 . S
C2180 C2181 1.400 . S
C2181 C2175 1.491 . S
C2181 C2180 1.400 . S
C2181 C2182 1.398 . S
C2182 H2170 0.950 . S
C2182 C2181 1.398 . S
C2182 C2183 1.391 . S
C2183 H2171 0.950 . S
C2183 C2179 1.393 . S
C2183 C2182 1.391 . S
H2184 C2192 0.950 . S
H2185 C2197 0.950 . S
H2186 C2194 0.950 . S
H2187 C2196 0.950 . S
H2188 C2198 0.950 . S
H2189 C2200 0.950 . S
H2190 C2202 0.950 . S
H2191 C2203 0.950 . S
C2192 H2184 0.950 . S
C2192 C2193 1.386 . S
C2192 C2194 1.391 . S
C2193 C2192 1.386 . S
C2193 C2197 1.393 . S
C2194 H2186 0.950 . S
C2194 C2192 1.391 . S
C2194 C2195 1.400 . S
C2195 C2194 1.400 . S
C2195 C2196 1.398 . S
C2195 C2201 1.491 . S
C2196 H2187 0.950 . S
C2196 C2195 1.398 . S
C2196 C2197 1.391 . S
C2197 H2185 0.950 . S
C2197 C2193 1.393 . S
C2197 C2196 1.391 . S
C2198 H2188 0.950 . S
C2198 C2199 1.386 . S
C2198 C2200 1.391 . S
C2199 C2198 1.386 . S
C2199 C2203 1.393 . S
C2200 H2189 0.950 . S
C2200 C2198 1.391 . S
C2200 C2201 1.400 . S
C2201 C2195 1.491 . S
C2201 C2200 1.400 . S
C2201 C2202 1.398 . S
C2202 H2190 0.950 . S
C2202 C2201 1.398 . S
C2202 C2203 1.391 . S
C2203 H2191 0.950 . S
C2203 C2199 1.393 . S
C2203 C2202 1.391 . S
H2204 C2212 0.950 . S
H2205 C2217 0.950 . S
H2206 C2214 0.950 . S
H2207 C2216 0.950 . S
H2208 C2218 0.950 . S
H2209 C2220 0.950 . S
H2210 C2222 0.950 . S
H2211 C2223 0.950 . S
C2212 H2204 0.950 . S
C2212 C2213 1.386 . S
C2212 C2214 1.391 . S
C2213 C2212 1.386 . S
C2213 C2217 1.393 . S
C2214 H2206 0.950 . S
C2214 C2212 1.391 . S
C2214 C2215 1.400 . S
C2215 C2214 1.400 . S
C2215 C2216 1.398 . S
C2215 C2221 1.491 . S
C2216 H2207 0.950 . S
C2216 C2215 1.398 . S
C2216 C2217 1.391 . S
C2217 H2205 0.950 . S
C2217 C2213 1.393 . S
C2217 C2216 1.391 . S
C2218 H2208 0.950 . S
C2218 C2219 1.386 . S
C2218 C2220 1.391 . S
C2219 C2218 1.386 . S
C2219 C2223 1.393 . S
C2220 H2209 0.950 . S
C2220 C2218 1.391 . S
C2220 C2221 1.400 . S
C2221 C2215 1.491 . S
C2221 C2220 1.400 . S
C2221 C2222 1.398 . S
C2222 H2210 0.950 . S
C2222 C2221 1.398 . S
C2222 C2223 1.391 . S
C2223 H2211 0.950 . S
C2223 C2219 1.393 . S
C2223 C2222 1.391 . S
H2224 C2232 0.950 . S
H2225 C2237 0.950 . S
H2226 C2234 0.950 . S
H2227 C2236 0.950 . S
H2228 C2238 0.950 . S
H2229 C2240 0.950 . S
H2230 C2242 0.950 . S
H2231 C2243 0.950 . S
C2232 H2224 0.950 . S
C2232 C2233 1.386 . S
C2232 C2234 1.391 . S
C2233 C2232 1.386 . S
C2233 C2237 1.393 . S
C2234 H2226 0.950 . S
C2234 C2232 1.391 . S
C2234 C2235 1.400 . S
C2235 C2234 1.400 . S
C2235 C2236 1.398 . S
C2235 C2241 1.491 . S
C2236 H2227 0.950 . S
C2236 C2235 1.398 . S
C2236 C2237 1.391 . S
C2237 H2225 0.950 . S
C2237 C2233 1.393 . S
C2237 C2236 1.391 . S
C2238 H2228 0.950 . S
C2238 C2239 1.386 . S
C2238 C2240 1.391 . S
C2239 C2238 1.386 . S
C2239 C2243 1.393 . S
C2240 H2229 0.950 . S
C2240 C2238 1.391 . S
C2240 C2241 1.400 . S
C2241 C2235 1.491 . S
C2241 C2240 1.400 . S
C2241 C2242 1.398 . S
C2242 H2230 0.950 . S
C2242 C2241 1.398 . S
C2242 C2243 1.391 . S
C2243 H2231 0.950 . S
C2243 C2239 1.393 . S
C2243 C2242 1.391 . S
H2244 C2252 0.950 . S
H2245 C2257 0.950 . S
H2246 C2254 0.950 . S
H2247 C2256 0.950 . S
H2248 C2258 0.950 . S
H2249 C2260 0.950 . S
H2250 C2262 0.950 . S
H2251 C2263 0.950 . S
C2252 H2244 0.950 . S
C2252 C2253 1.386 . S
C2252 C2254 1.391 . S
C2253 C2252 1.386 . S
C2253 C2257 1.393 . S
C2254 H2246 0.950 . S
C2254 C2252 1.391 . S
C2254 C2255 1.400 . S
C2255 C2254 1.400 . S
C2255 C2256 1.398 . S
C2255 C2261 1.491 . S
C2256 H2247 0.950 . S
C2256 C2255 1.398 . S
C2256 C2257 1.391 . S
C2257 H2245 0.950 . S
C2257 C2253 1.393 . S
C2257 C2256 1.391 . S
C2258 H2248 0.950 . S
C2258 C2259 1.386 . S
C2258 C2260 1.391 . S
C2259 C2258 1.386 . S
C2259 C2263 1.393 . S
C2260 H2249 0.950 . S
C2260 C2258 1.391 . S
C2260 C2261 1.400 . S
C2261 C2255 1.491 . S
C2261 C2260 1.400 . S
C2261 C2262 1.398 . S
C2262 H2250 0.950 . S
C2262 C2261 1.398 . S
C2262 C2263 1.391 . S
C2263 H2251 0.950 . S
C2263 C2259 1.393 . S
C2263 C2262 1.391 . S
H2264 C2272 0.950 . S
H2265 C2277 0.950 . S
H2266 C2274 0.950 . S
H2267 C2276 0.950 . S
H2268 C2278 0.950 . S
H2269 C2280 0.950 . S
H2270 C2282 0.950 . S
H2271 C2283 0.950 . S
C2272 H2264 0.950 . S
C2272 C2273 1.386 . S
C2272 C2274 1.391 . S
C2273 C2272 1.386 . S
C2273 C2277 1.393 . S
C2274 H2266 0.950 . S
C2274 C2272 1.391 . S
C2274 C2275 1.400 . S
C2275 C2274 1.400 . S
C2275 C2276 1.398 . S
C2275 C2281 1.491 . S
C2276 H2267 0.950 . S
C2276 C2275 1.398 . S
C2276 C2277 1.391 . S
C2277 H2265 0.950 . S
C2277 C2273 1.393 . S
C2277 C2276 1.391 . S
C2278 H2268 0.950 . S
C2278 C2279 1.386 . S
C2278 C2280 1.391 . S
C2279 C2278 1.386 . S
C2279 C2283 1.393 . S
C2280 H2269 0.950 . S
C2280 C2278 1.391 . S
C2280 C2281 1.400 . S
C2281 C2275 1.491 . S
C2281 C2280 1.400 . S
C2281 C2282 1.398 . S
C2282 H2270 0.950 . S
C2282 C2281 1.398 . S
C2282 C2283 1.391 . S
C2283 H2271 0.950 . S
C2283 C2279 1.393 . S
C2283 C2282 1.391 . S
H2284 C2292 0.950 . S
H2285 C2297 0.950 . S
H2286 C2294 0.950 . S
H2287 C2296 0.950 . S
H2288 C2298 0.950 . S
H2289 C2300 0.950 . S
H2290 C2302 0.950 . S
H2291 C2303 0.950 . S
C2292 H2284 0.950 . S
C2292 C2293 1.386 . S
C2292 C2294 1.391 . S
C2293 C2292 1.386 . S
C2293 C2297 1.393 . S
C2294 H2286 0.950 . S
C2294 C2292 1.391 . S
C2294 C2295 1.400 . S
C2295 C2294 1.400 . S
C2295 C2296 1.398 . S
C2295 C2301 1.491 . S
C2296 H2287 0.950 . S
C2296 C2295 1.398 . S
C2296 C2297 1.391 . S
C2297 H2285 0.950 . S
C2297 C2293 1.393 . S
C2297 C2296 1.391 . S
C2298 H2288 0.950 . S
C2298 C2299 1.386 . S
C2298 C2300 1.391 . S
C2299 C2298 1.386 . S
C2299 C2303 1.393 . S
C2300 H2289 0.950 . S
C2300 C2298 1.391 . S
C2300 C2301 1.400 . S
C2301 C2295 1.491 . S
C2301 C2300 1.400 . S
C2301 C2302 1.398 . S
C2302 H2290 0.950 . S
C2302 C2301 1.398 . S
C2302 C2303 1.391 . S
C2303 H2291 0.950 . S
C2303 C2299 1.393 . S
C2303 C2302 1.391 . S
H2304 C2312 0.950 . S
H2305 C2317 0.950 . S
H2306 C2314 0.950 . S
H2307 C2316 0.950 . S
H2308 C2318 0.950 . S
H2309 C2320 0.950 . S
H2310 C2322 0.950 . S
H2311 C2323 0.950 . S
C2312 H2304 0.950 . S
C2312 C2313 1.386 . S
C2312 C2314 1.391 . S
C2313 C2312 1.386 . S
C2313 C2317 1.393 . S
C2314 H2306 0.950 . S
C2314 C2312 1.391 . S
C2314 C2315 1.400 . S
C2315 C2314 1.400 . S
C2315 C2316 1.398 . S
C2315 C2321 1.491 . S
C2316 H2307 0.950 . S
C2316 C2315 1.398 . S
C2316 C2317 1.391 . S
C2317 H2305 0.950 . S
C2317 C2313 1.393 . S
C2317 C2316 1.391 . S
C2318 H2308 0.950 . S
C2318 C2319 1.386 . S
C2318 C2320 1.391 . S
C2319 C2318 1.386 . S
C2319 C2323 1.393 . S
C2320 H2309 0.950 . S
C2320 C2318 1.391 . S
C2320 C2321 1.400 . S
C2321 C2315 1.491 . S
C2321 C2320 1.400 . S
C2321 C2322 1.398 . S
C2322 H2310 0.950 . S
C2322 C2321 1.398 . S
C2322 C2323 1.391 . S
C2323 H2311 0.950 . S
C2323 C2319 1.393 . S
C2323 C2322 1.391 . S
H2324 C2332 0.950 . S
H2325 C2337 0.950 . S
H2326 C2334 0.950 . S
H2327 C2336 0.950 . S
H2328 C2338 0.950 . S
H2329 C2340 0.950 . S
H2330 C2342 0.950 . S
H2331 C2343 0.950 . S
C2332 H2324 0.950 . S
C2332 C2333 1.386 . S
C2332 C2334 1.391 . S
C2333 C2332 1.386 . S
C2333 C2337 1.393 . S
C2334 H2326 0.950 . S
C2334 C2332 1.391 . S
C2334 C2335 1.400 . S
C2335 C2334 1.400 . S
C2335 C2336 1.398 . S
C2335 C2341 1.491 . S
C2336 H2327 0.950 . S
C2336 C2335 1.398 . S
C2336 C2337 1.391 . S
C2337 H2325 0.950 . S
C2337 C2333 1.393 . S
C2337 C2336 1.391 . S
C2338 H2328 0.950 . S
C2338 C2339 1.386 . S
C2338 C2340 1.391 . S
C2339 C2338 1.386 . S
C2339 C2343 1.393 . S
C2340 H2329 0.950 . S
C2340 C2338 1.391 . S
C2340 C2341 1.400 . S
C2341 C2335 1.491 . S
C2341 C2340 1.400 . S
C2341 C2342 1.398 . S
C2342 H2330 0.950 . S
C2342 C2341 1.398 . S
C2342 C2343 1.391 . S
C2343 H2331 0.950 . S
C2343 C2339 1.393 . S
C2343 C2342 1.391 . S
H2344 C2352 0.950 . S
H2345 C2357 0.950 . S
H2346 C2354 0.950 . S
H2347 C2356 0.950 . S
H2348 C2358 0.950 . S
H2349 C2360 0.950 . S
H2350 C2362 0.950 . S
H2351 C2363 0.950 . S
C2352 H2344 0.950 . S
C2352 C2353 1.386 . S
C2352 C2354 1.391 . S
C2353 C2352 1.386 . S
C2353 C2357 1.393 . S
C2354 H2346 0.950 . S
C2354 C2352 1.391 . S
C2354 C2355 1.400 . S
C2355 C2354 1.400 . S
C2355 C2356 1.398 . S
C2355 C2361 1.491 . S
C2356 H2347 0.950 . S
C2356 C2355 1.398 . S
C2356 C2357 1.391 . S
C2357 H2345 0.950 . S
C2357 C2353 1.393 . S
C2357 C2356 1.391 . S
C2358 H2348 0.950 . S
C2358 C2359 1.386 . S
C2358 C2360 1.391 . S
C2359 C2358 1.386 . S
C2359 C2363 1.393 . S
C2360 H2349 0.950 . S
C2360 C2358 1.391 . S
C2360 C2361 1.400 . S
C2361 C2355 1.491 . S
C2361 C2360 1.400 . S
C2361 C2362 1.398 . S
C2362 H2350 0.950 . S
C2362 C2361 1.398 . S
C2362 C2363 1.391 . S
C2363 H2351 0.950 . S
C2363 C2359 1.393 . S
C2363 C2362 1.391 . S
H2364 C2372 0.950 . S
H2365 C2377 0.950 . S
H2366 C2374 0.950 . S
H2367 C2376 0.950 . S
H2368 C2378 0.950 . S
H2369 C2380 0.950 . S
H2370 C2382 0.950 . S
H2371 C2383 0.950 . S
C2372 H2364 0.950 . S
C2372 C2373 1.386 . S
C2372 C2374 1.391 . S
C2373 C2372 1.386 . S
C2373 C2377 1.393 . S
C2374 H2366 0.950 . S
C2374 C2372 1.391 . S
C2374 C2375 1.400 . S
C2375 C2374 1.400 . S
C2375 C2376 1.398 . S
C2375 C2381 1.491 . S
C2376 H2367 0.950 . S
C2376 C2375 1.398 . S
C2376 C2377 1.391 . S
C2377 H2365 0.950 . S
C2377 C2373 1.393 . S
C2377 C2376 1.391 . S
C2378 H2368 0.950 . S
C2378 C2379 1.386 . S
C2378 C2380 1.391 . S
C2379 C2378 1.386 . S
C2379 C2383 1.393 . S
C2380 H2369 0.950 . S
C2380 C2378 1.391 . S
C2380 C2381 1.400 . S
C2381 C2375 1.491 . S
C2381 C2380 1.400 . S
C2381 C2382 1.398 . S
C2382 H2370 0.950 . S
C2382 C2381 1.398 . S
C2382 C2383 1.391 . S
C2383 H2371 0.950 . S
C2383 C2379 1.393 . S
C2383 C2382 1.391 . S
H2384 C2392 0.950 . S
H2385 C2397 0.950 . S
H2386 C2394 0.950 . S
H2387 C2396 0.950 . S
H2388 C2398 0.950 . S
H2389 C2400 0.950 . S
H2390 C2402 0.950 . S
H2391 C2403 0.950 . S
C2392 H2384 0.950 . S
C2392 C2393 1.386 . S
C2392 C2394 1.391 . S
C2393 C2392 1.386 . S
C2393 C2397 1.393 . S
C2394 H2386 0.950 . S
C2394 C2392 1.391 . S
C2394 C2395 1.400 . S
C2395 C2394 1.400 . S
C2395 C2396 1.398 . S
C2395 C2401 1.491 . S
C2396 H2387 0.950 . S
C2396 C2395 1.398 . S
C2396 C2397 1.391 . S
C2397 H2385 0.950 . S
C2397 C2393 1.393 . S
C2397 C2396 1.391 . S
C2398 H2388 0.950 . S
C2398 C2399 1.386 . S
C2398 C2400 1.391 . S
C2399 C2398 1.386 . S
C2399 C2403 1.393 . S
C2400 H2389 0.950 . S
C2400 C2398 1.391 . S
C2400 C2401 1.400 . S
C2401 C2395 1.491 . S
C2401 C2400 1.400 . S
C2401 C2402 1.398 . S
C2402 H2390 0.950 . S
C2402 C2401 1.398 . S
C2402 C2403 1.391 . S
C2403 H2391 0.950 . S
C2403 C2399 1.393 . S
C2403 C2402 1.391 . S
H2404 C2412 0.950 . S
H2405 C2417 0.950 . S
H2406 C2414 0.950 . S
H2407 C2416 0.950 . S
H2408 C2418 0.950 . S
H2409 C2420 0.950 . S
H2410 C2422 0.950 . S
H2411 C2423 0.950 . S
C2412 H2404 0.950 . S
C2412 C2413 1.386 . S
C2412 C2414 1.391 . S
C2413 C2412 1.386 . S
C2413 C2417 1.393 . S
C2414 H2406 0.950 . S
C2414 C2412 1.391 . S
C2414 C2415 1.400 . S
C2415 C2414 1.400 . S
C2415 C2416 1.398 . S
C2415 C2421 1.491 . S
C2416 H2407 0.950 . S
C2416 C2415 1.398 . S
C2416 C2417 1.391 . S
C2417 H2405 0.950 . S
C2417 C2413 1.393 . S
C2417 C2416 1.391 . S
C2418 H2408 0.950 . S
C2418 C2419 1.386 . S
C2418 C2420 1.391 . S
C2419 C2418 1.386 . S
C2419 C2423 1.393 . S
C2420 H2409 0.950 . S
C2420 C2418 1.391 . S
C2420 C2421 1.400 . S
C2421 C2415 1.491 . S
C2421 C2420 1.400 . S
C2421 C2422 1.398 . S
C2422 H2410 0.950 . S
C2422 C2421 1.398 . S
C2422 C2423 1.391 . S
C2423 H2411 0.950 . S
C2423 C2419 1.393 . S
C2423 C2422 1.391 . S
H2424 C2432 0.950 . S
H2425 C2437 0.950 . S
H2426 C2434 0.950 . S
H2427 C2436 0.950 . S
H2428 C2438 0.950 . S
H2429 C2440 0.950 . S
H2430 C2442 0.950 . S
H2431 C2443 0.950 . S
C2432 H2424 0.950 . S
C2432 C2433 1.386 . S
C2432 C2434 1.391 . S
C2433 C2432 1.386 . S
C2433 C2437 1.393 . S
C2434 H2426 0.950 . S
C2434 C2432 1.391 . S
C2434 C2435 1.400 . S
C2435 C2434 1.400 . S
C2435 C2436 1.398 . S
C2435 C2441 1.491 . S
C2436 H2427 0.950 . S
C2436 C2435 1.398 . S
C2436 C2437 1.391 . S
C2437 H2425 0.950 . S
C2437 C2433 1.393 . S
C2437 C2436 1.391 . S
C2438 H2428 0.950 . S
C2438 C2439 1.386 . S
C2438 C2440 1.391 . S
C2439 C2438 1.386 . S
C2439 C2443 1.393 . S
C2440 H2429 0.950 . S
C2440 C2438 1.391 . S
C2440 C2441 1.400 . S
C2441 C2435 1.491 . S
C2441 C2440 1.400 . S
C2441 C2442 1.398 . S
C2442 H2430 0.950 . S
C2442 C2441 1.398 . S
C2442 C2443 1.391 . S
C2443 H2431 0.950 . S
C2443 C2439 1.393 . S
C2443 C2442 1.391 . S
H2444 C2452 0.950 . S
H2445 C2457 0.950 . S
H2446 C2454 0.950 . S
H2447 C2456 0.950 . S
H2448 C2458 0.950 . S
H2449 C2460 0.950 . S
H2450 C2462 0.950 . S
H2451 C2463 0.950 . S
C2452 H2444 0.950 . S
C2452 C2453 1.386 . S
C2452 C2454 1.391 . S
C2453 C2452 1.386 . S
C2453 C2457 1.393 . S
C2454 H2446 0.950 . S
C2454 C2452 1.391 . S
C2454 C2455 1.400 . S
C2455 C2454 1.400 . S
C2455 C2456 1.398 . S
C2455 C2461 1.491 . S
C2456 H2447 0.950 . S
C2456 C2455 1.398 . S
C2456 C2457 1.391 . S
C2457 H2445 0.950 . S
C2457 C2453 1.393 . S
C2457 C2456 1.391 . S
C2458 H2448 0.950 . S
C2458 C2459 1.386 . S
C2458 C2460 1.391 . S
C2459 C2458 1.386 . S
C2459 C2463 1.393 . S
C2460 H2449 0.950 . S
C2460 C2458 1.391 . S
C2460 C2461 1.400 . S
C2461 C2455 1.491 . S
C2461 C2460 1.400 . S
C2461 C2462 1.398 . S
C2462 H2450 0.950 . S
C2462 C2461 1.398 . S
C2462 C2463 1.391 . S
C2463 H2451 0.950 . S
C2463 C2459 1.393 . S
C2463 C2462 1.391 . S
H2464 C2472 0.950 . S
H2465 C2477 0.950 . S
H2466 C2474 0.950 . S
H2467 C2476 0.950 . S
H2468 C2478 0.950 . S
H2469 C2480 0.950 . S
H2470 C2482 0.950 . S
H2471 C2483 0.950 . S
C2472 H2464 0.950 . S
C2472 C2473 1.386 . S
C2472 C2474 1.391 . S
C2473 C2472 1.386 . S
C2473 C2477 1.393 . S
C2474 H2466 0.950 . S
C2474 C2472 1.391 . S
C2474 C2475 1.400 . S
C2475 C2474 1.400 . S
C2475 C2476 1.398 . S
C2475 C2481 1.491 . S
C2476 H2467 0.950 . S
C2476 C2475 1.398 . S
C2476 C2477 1.391 . S
C2477 H2465 0.950 . S
C2477 C2473 1.393 . S
C2477 C2476 1.391 . S
C2478 H2468 0.950 . S
C2478 C2479 1.386 . S
C2478 C2480 1.391 . S
C2479 C2478 1.386 . S
C2479 C2483 1.393 . S
C2480 H2469 0.950 . S
C2480 C2478 1.391 . S
C2480 C2481 1.400 . S
C2481 C2475 1.491 . S
C2481 C2480 1.400 . S
C2481 C2482 1.398 . S
C2482 H2470 0.950 . S
C2482 C2481 1.398 . S
C2482 C2483 1.391 . S
C2483 H2471 0.950 . S
C2483 C2479 1.393 . S
C2483 C2482 1.391 . S
H2484 C2492 0.950 . S
H2485 C2497 0.950 . S
H2486 C2494 0.950 . S
H2487 C2496 0.950 . S
H2488 C2498 0.950 . S
H2489 C2500 0.950 . S
H2490 C2502 0.950 . S
H2491 C2503 0.950 . S
C2492 H2484 0.950 . S
C2492 C2493 1.386 . S
C2492 C2494 1.391 . S
C2493 C2492 1.386 . S
C2493 C2497 1.393 . S
C2494 H2486 0.950 . S
C2494 C2492 1.391 . S
C2494 C2495 1.400 . S
C2495 C2494 1.400 . S
C2495 C2496 1.398 . S
C2495 C2501 1.491 . S
C2496 H2487 0.950 . S
C2496 C2495 1.398 . S
C2496 C2497 1.391 . S
C2497 H2485 0.950 . S
C2497 C2493 1.393 . S
C2497 C2496 1.391 . S
C2498 H2488 0.950 . S
C2498 C2499 1.386 . S
C2498 C2500 1.391 . S
C2499 C2498 1.386 . S
C2499 C2503 1.393 . S
C2500 H2489 0.950 . S
C2500 C2498 1.391 . S
C2500 C2501 1.400 . S
C2501 C2495 1.491 . S
C2501 C2500 1.400 . S
C2501 C2502 1.398 . S
C2502 H2490 0.950 . S
C2502 C2501 1.398 . S
C2502 C2503 1.391 . S
C2503 H2491 0.950 . S
C2503 C2499 1.393 . S
C2503 C2502 1.391 . S
H2504 C2512 0.950 . S
H2505 C2517 0.950 . S
H2506 C2514 0.950 . S
H2507 C2516 0.950 . S
H2508 C2518 0.950 . S
H2509 C2520 0.950 . S
H2510 C2522 0.950 . S
H2511 C2523 0.950 . S
C2512 H2504 0.950 . S
C2512 C2513 1.386 . S
C2512 C2514 1.391 . S
C2513 C2512 1.386 . S
C2513 C2517 1.393 . S
C2514 H2506 0.950 . S
C2514 C2512 1.391 . S
C2514 C2515 1.400 . S
C2515 C2514 1.400 . S
C2515 C2516 1.398 . S
C2515 C2521 1.491 . S
C2516 H2507 0.950 . S
C2516 C2515 1.398 . S
C2516 C2517 1.391 . S
C2517 H2505 0.950 . S
C2517 C2513 1.393 . S
C2517 C2516 1.391 . S
C2518 H2508 0.950 . S
C2518 C2519 1.386 . S
C2518 C2520 1.391 . S
C2519 C2518 1.386 . S
C2519 C2523 1.393 . S
C2520 H2509 0.950 . S
C2520 C2518 1.391 . S
C2520 C2521 1.400 . S
C2521 C2515 1.491 . S
C2521 C2520 1.400 . S
C2521 C2522 1.398 . S
C2522 H2510 0.950 . S
C2522 C2521 1.398 . S
C2522 C2523 1.391 . S
C2523 H2511 0.950 . S
C2523 C2519 1.393 . S
C2523 C2522 1.391 . S
H2524 C2532 0.950 . S
H2525 C2537 0.950 . S
H2526 C2534 0.950 . S
H2527 C2536 0.950 . S
H2528 C2538 0.950 . S
H2529 C2540 0.950 . S
H2530 C2542 0.950 . S
H2531 C2543 0.950 . S
C2532 H2524 0.950 . S
C2532 C2533 1.386 . S
C2532 C2534 1.391 . S
C2533 C2532 1.386 . S
C2533 C2537 1.393 . S
C2534 H2526 0.950 . S
C2534 C2532 1.391 . S
C2534 C2535 1.400 . S
C2535 C2534 1.400 . S
C2535 C2536 1.398 . S
C2535 C2541 1.491 . S
C2536 H2527 0.950 . S
C2536 C2535 1.398 . S
C2536 C2537 1.391 . S
C2537 H2525 0.950 . S
C2537 C2533 1.393 . S
C2537 C2536 1.391 . S
C2538 H2528 0.950 . S
C2538 C2539 1.386 . S
C2538 C2540 1.391 . S
C2539 C2538 1.386 . S
C2539 C2543 1.393 . S
C2540 H2529 0.950 . S
C2540 C2538 1.391 . S
C2540 C2541 1.400 . S
C2541 C2535 1.491 . S
C2541 C2540 1.400 . S
C2541 C2542 1.398 . S
C2542 H2530 0.950 . S
C2542 C2541 1.398 . S
C2542 C2543 1.391 . S
C2543 H2531 0.950 . S
C2543 C2539 1.393 . S
C2543 C2542 1.391 . S
H2544 C2552 0.950 . S
H2545 C2557 0.950 1_554 S
H2546 C2554 0.950 . S
H2547 C2556 0.950 . S
H2548 C2558 0.950 . S
H2549 C2560 0.950 . S
H2550 C2562 0.950 . S
H2551 C2563 0.950 . S
C2552 H2544 0.950 . S
C2552 C2553 1.386 . S
C2552 C2554 1.391 . S
C2553 C2552 1.386 . S
C2553 C2557 1.393 . S
C2554 H2546 0.950 . S
C2554 C2552 1.391 . S
C2554 C2555 1.400 . S
C2555 C2554 1.400 . S
C2555 C2556 1.398 . S
C2555 C2561 1.491 . S
C2556 H2547 0.950 . S
C2556 C2555 1.398 . S
C2556 C2557 1.391 . S
C2557 H2545 0.950 1_556 S
C2557 C2553 1.393 . S
C2557 C2556 1.391 . S
C2558 H2548 0.950 . S
C2558 C2559 1.386 . S
C2558 C2560 1.391 . S
C2559 C2558 1.386 . S
C2559 C2563 1.393 . S
C2560 H2549 0.950 . S
C2560 C2558 1.391 . S
C2560 C2561 1.400 . S
C2561 C2555 1.491 . S
C2561 C2560 1.400 . S
C2561 C2562 1.398 . S
C2562 H2550 0.950 . S
C2562 C2561 1.398 . S
C2562 C2563 1.391 . S
C2563 H2551 0.950 . S
C2563 C2559 1.393 . S
C2563 C2562 1.391 . S
H2564 C2572 0.950 . S
H2565 C2577 0.950 . S
H2566 C2574 0.950 . S
H2567 C2576 0.950 . S
H2568 C2578 0.950 . S
H2569 C2580 0.950 . S
H2570 C2582 0.950 . S
H2571 C2583 0.950 . S
C2572 H2564 0.950 . S
C2572 C2573 1.386 . S
C2572 C2574 1.391 . S
C2573 C2572 1.386 . S
C2573 C2577 1.393 . S
C2574 H2566 0.950 . S
C2574 C2572 1.391 . S
C2574 C2575 1.400 . S
C2575 C2574 1.400 . S
C2575 C2576 1.398 . S
C2575 C2581 1.491 . S
C2576 H2567 0.950 . S
C2576 C2575 1.398 . S
C2576 C2577 1.391 . S
C2577 H2565 0.950 . S
C2577 C2573 1.393 . S
C2577 C2576 1.391 . S
C2578 H2568 0.950 . S
C2578 C2579 1.386 . S
C2578 C2580 1.391 . S
C2579 C2578 1.386 . S
C2579 C2583 1.393 . S
C2580 H2569 0.950 . S
C2580 C2578 1.391 . S
C2580 C2581 1.400 . S
C2581 C2575 1.491 . S
C2581 C2580 1.400 . S
C2581 C2582 1.398 . S
C2582 H2570 0.950 . S
C2582 C2581 1.398 . S
C2582 C2583 1.391 . S
C2583 H2571 0.950 . S
C2583 C2579 1.393 . S
C2583 C2582 1.391 . S
H2584 C2592 0.950 1_554 S
H2585 C2597 0.950 . S
H2586 C2594 0.950 . S
H2587 C2596 0.950 . S
H2588 C2598 0.950 . S
H2589 C2600 0.950 . S
H2590 C2602 0.950 . S
H2591 C2603 0.950 . S
C2592 H2584 0.950 1_556 S
C2592 C2593 1.386 . S
C2592 C2594 1.391 . S
C2593 C2592 1.386 . S
C2593 C2597 1.393 . S
C2594 H2586 0.950 . S
C2594 C2592 1.391 . S
C2594 C2595 1.400 . S
C2595 C2594 1.400 . S
C2595 C2596 1.398 . S
C2595 C2601 1.491 . S
C2596 H2587 0.950 . S
C2596 C2595 1.398 . S
C2596 C2597 1.391 . S
C2597 H2585 0.950 . S
C2597 C2593 1.393 . S
C2597 C2596 1.391 . S
C2598 H2588 0.950 . S
C2598 C2599 1.386 . S
C2598 C2600 1.391 . S
C2599 C2598 1.386 . S
C2599 C2603 1.393 . S
C2600 H2589 0.950 . S
C2600 C2598 1.391 . S
C2600 C2601 1.400 . S
C2601 C2595 1.491 . S
C2601 C2600 1.400 . S
C2601 C2602 1.398 . S
C2602 H2590 0.950 . S
C2602 C2601 1.398 . S
C2602 C2603 1.391 . S
C2603 H2591 0.950 . S
C2603 C2599 1.393 . S
C2603 C2602 1.391 . S
H2604 C2612 0.950 . S
H2605 C2617 0.950 1_554 S
H2606 C2614 0.950 . S
H2607 C2616 0.950 . S
H2608 C2618 0.950 . S
H2609 C2620 0.950 . S
H2610 C2622 0.950 . S
H2611 C2623 0.950 . S
C2612 H2604 0.950 . S
C2612 C2613 1.386 . S
C2612 C2614 1.391 . S
C2613 C2612 1.386 . S
C2613 C2617 1.393 . S
C2614 H2606 0.950 . S
C2614 C2612 1.391 . S
C2614 C2615 1.400 . S
C2615 C2614 1.400 . S
C2615 C2616 1.398 . S
C2615 C2621 1.491 . S
C2616 H2607 0.950 . S
C2616 C2615 1.398 . S
C2616 C2617 1.391 . S
C2617 H2605 0.950 1_556 S
C2617 C2613 1.393 . S
C2617 C2616 1.391 . S
C2618 H2608 0.950 . S
C2618 C2619 1.386 . S
C2618 C2620 1.391 . S
C2619 C2618 1.386 . S
C2619 C2623 1.393 . S
C2620 H2609 0.950 . S
C2620 C2618 1.391 . S
C2620 C2621 1.400 . S
C2621 C2615 1.491 . S
C2621 C2620 1.400 . S
C2621 C2622 1.398 . S
C2622 H2610 0.950 . S
C2622 C2621 1.398 . S
C2622 C2623 1.391 . S
C2623 H2611 0.950 . S
C2623 C2619 1.393 . S
C2623 C2622 1.391 . S
H2624 C2632 0.950 . S
H2625 C2637 0.950 . S
H2626 C2634 0.950 1_554 S
H2627 C2636 0.950 . S
H2628 C2638 0.950 . S
H2629 C2640 0.950 . S
H2630 C2642 0.950 . S
H2631 C2643 0.950 . S
C2632 H2624 0.950 . S
C2632 C2633 1.386 1_554 S
C2632 C2634 1.391 1_554 S
C2633 C2632 1.386 1_556 S
C2633 C2637 1.393 . S
C2634 H2626 0.950 1_556 S
C2634 C2632 1.391 1_556 S
C2634 C2635 1.400 . S
C2635 C2634 1.400 . S
C2635 C2636 1.398 . S
C2635 C2641 1.491 . S
C2636 H2627 0.950 . S
C2636 C2635 1.398 . S
C2636 C2637 1.391 . S
C2637 H2625 0.950 . S
C2637 C2633 1.393 . S
C2637 C2636 1.391 . S
C2638 H2628 0.950 . S
C2638 C2639 1.386 . S
C2638 C2640 1.391 . S
C2639 C2638 1.386 . S
C2639 C2643 1.393 . S
C2640 H2629 0.950 . S
C2640 C2638 1.391 . S
C2640 C2641 1.400 . S
C2641 C2635 1.491 . S
C2641 C2640 1.400 . S
C2641 C2642 1.398 . S
C2642 H2630 0.950 . S
C2642 C2641 1.398 . S
C2642 C2643 1.391 . S
C2643 H2631 0.950 . S
C2643 C2639 1.393 . S
C2643 C2642 1.391 . S
H2644 C2652 0.950 1_554 S
H2645 C2657 0.950 . S
H2646 C2654 0.950 . S
H2647 C2656 0.950 . S
H2648 C2658 0.950 . S
H2649 C2660 0.950 . S
H2650 C2662 0.950 . S
H2651 C2663 0.950 . S
C2652 H2644 0.950 1_556 S
C2652 C2653 1.386 . S
C2652 C2654 1.391 . S
C2653 C2652 1.386 . S
C2653 C2657 1.393 . S
C2654 H2646 0.950 . S
C2654 C2652 1.391 . S
C2654 C2655 1.400 . S
C2655 C2654 1.400 . S
C2655 C2656 1.398 . S
C2655 C2661 1.491 . S
C2656 H2647 0.950 . S
C2656 C2655 1.398 . S
C2656 C2657 1.391 . S
C2657 H2645 0.950 . S
C2657 C2653 1.393 . S
C2657 C2656 1.391 . S
C2658 H2648 0.950 . S
C2658 C2659 1.386 . S
C2658 C2660 1.391 . S
C2659 C2658 1.386 . S
C2659 C2663 1.393 . S
C2660 H2649 0.950 . S
C2660 C2658 1.391 . S
C2660 C2661 1.400 . S
C2661 C2655 1.491 . S
C2661 C2660 1.400 . S
C2661 C2662 1.398 . S
C2662 H2650 0.950 . S
C2662 C2661 1.398 . S
C2662 C2663 1.391 . S
C2663 H2651 0.950 . S
C2663 C2659 1.393 . S
C2663 C2662 1.391 . S
H2664 C2672 0.950 . S
H2665 C2677 0.950 . S
H2666 C2674 0.950 . S
H2667 C2676 0.950 . S
H2668 C2678 0.950 . S
H2669 C2680 0.950 . S
H2670 C2682 0.950 . S
H2671 C2683 0.950 . S
C2672 H2664 0.950 . S
C2672 C2673 1.386 . S
C2672 C2674 1.391 . S
C2673 C2672 1.386 . S
C2673 C2677 1.393 . S
C2674 H2666 0.950 . S
C2674 C2672 1.391 . S
C2674 C2675 1.400 . S
C2675 C2674 1.400 . S
C2675 C2676 1.398 . S
C2675 C2681 1.491 . S
C2676 H2667 0.950 . S
C2676 C2675 1.398 . S
C2676 C2677 1.391 . S
C2677 H2665 0.950 . S
C2677 C2673 1.393 . S
C2677 C2676 1.391 . S
C2678 H2668 0.950 . S
C2678 C2679 1.386 . S
C2678 C2680 1.391 . S
C2679 C2678 1.386 . S
C2679 C2683 1.393 . S
C2680 H2669 0.950 . S
C2680 C2678 1.391 . S
C2680 C2681 1.400 . S
C2681 C2675 1.491 . S
C2681 C2680 1.400 . S
C2681 C2682 1.398 . S
C2682 H2670 0.950 . S
C2682 C2681 1.398 . S
C2682 C2683 1.391 . S
C2683 H2671 0.950 . S
C2683 C2679 1.393 . S
C2683 C2682 1.391 . S
H2684 C2692 0.950 . S
H2685 C2697 0.950 . S
H2686 C2694 0.950 . S
H2687 C2696 0.950 . S
H2688 C2698 0.950 . S
H2689 C2700 0.950 . S
H2690 C2702 0.950 . S
H2691 C2703 0.950 . S
C2692 H2684 0.950 . S
C2692 C2693 1.386 . S
C2692 C2694 1.391 . S
C2693 C2692 1.386 . S
C2693 C2697 1.393 . S
C2694 H2686 0.950 . S
C2694 C2692 1.391 . S
C2694 C2695 1.400 . S
C2695 C2694 1.400 . S
C2695 C2696 1.398 . S
C2695 C2701 1.491 . S
C2696 H2687 0.950 . S
C2696 C2695 1.398 . S
C2696 C2697 1.391 . S
C2697 H2685 0.950 . S
C2697 C2693 1.393 . S
C2697 C2696 1.391 . S
C2698 H2688 0.950 . S
C2698 C2699 1.386 . S
C2698 C2700 1.391 . S
C2699 C2698 1.386 . S
C2699 C2703 1.393 . S
C2700 H2689 0.950 . S
C2700 C2698 1.391 . S
C2700 C2701 1.400 . S
C2701 C2695 1.491 . S
C2701 C2700 1.400 . S
C2701 C2702 1.398 . S
C2702 H2690 0.950 . S
C2702 C2701 1.398 . S
C2702 C2703 1.391 . S
C2703 H2691 0.950 . S
C2703 C2699 1.393 . S
C2703 C2702 1.391 . S
H2704 C2712 0.950 . S
H2705 C2717 0.950 . S
H2706 C2714 0.950 . S
H2707 C2716 0.950 . S
H2708 C2718 0.950 . S
H2709 C2720 0.950 . S
H2710 C2722 0.950 . S
H2711 C2723 0.950 . S
C2712 H2704 0.950 . S
C2712 C2713 1.386 . S
C2712 C2714 1.391 . S
C2713 C2712 1.386 . S
C2713 C2717 1.393 . S
C2714 H2706 0.950 . S
C2714 C2712 1.391 . S
C2714 C2715 1.400 . S
C2715 C2714 1.400 . S
C2715 C2716 1.398 . S
C2715 C2721 1.491 . S
C2716 H2707 0.950 . S
C2716 C2715 1.398 . S
C2716 C2717 1.391 . S
C2717 H2705 0.950 . S
C2717 C2713 1.393 . S
C2717 C2716 1.391 . S
C2718 H2708 0.950 . S
C2718 C2719 1.386 . S
C2718 C2720 1.391 . S
C2719 C2718 1.386 . S
C2719 C2723 1.393 . S
C2720 H2709 0.950 . S
C2720 C2718 1.391 . S
C2720 C2721 1.400 . S
C2721 C2715 1.491 . S
C2721 C2720 1.400 . S
C2721 C2722 1.398 . S
C2722 H2710 0.950 . S
C2722 C2721 1.398 . S
C2722 C2723 1.391 . S
C2723 H2711 0.950 . S
C2723 C2719 1.393 . S
C2723 C2722 1.391 . S
H2724 C2732 0.950 . S
H2725 C2737 0.950 . S
H2726 C2734 0.950 . S
H2727 C2736 0.950 . S
H2728 C2738 0.950 . S
H2729 C2740 0.950 . S
H2730 C2742 0.950 . S
H2731 C2743 0.950 . S
C2732 H2724 0.950 . S
C2732 C2733 1.386 . S
C2732 C2734 1.391 . S
C2733 C2732 1.386 . S
C2733 C2737 1.393 . S
C2734 H2726 0.950 . S
C2734 C2732 1.391 . S
C2734 C2735 1.400 . S
C2735 C2734 1.400 . S
C2735 C2736 1.398 . S
C2735 C2741 1.491 . S
C2736 H2727 0.950 . S
C2736 C2735 1.398 . S
C2736 C2737 1.391 . S
C2737 H2725 0.950 . S
C2737 C2733 1.393 . S
C2737 C2736 1.391 . S
C2738 H2728 0.950 . S
C2738 C2739 1.386 . S
C2738 C2740 1.391 . S
C2739 C2738 1.386 . S
C2739 C2743 1.393 . S
C2740 H2729 0.950 . S
C2740 C2738 1.391 . S
C2740 C2741 1.400 . S
C2741 C2735 1.491 . S
C2741 C2740 1.400 . S
C2741 C2742 1.398 . S
C2742 H2730 0.950 . S
C2742 C2741 1.398 . S
C2742 C2743 1.391 . S
C2743 H2731 0.950 . S
C2743 C2739 1.393 . S
C2743 C2742 1.391 . S
H2744 C2752 0.950 . S
H2745 C2757 0.950 . S
H2746 C2754 0.950 . S
H2747 C2756 0.950 . S
H2748 C2758 0.950 . S
H2749 C2760 0.950 . S
H2750 C2762 0.950 . S
H2751 C2763 0.950 . S
C2752 H2744 0.950 . S
C2752 C2753 1.386 . S
C2752 C2754 1.391 . S
C2753 C2752 1.386 . S
C2753 C2757 1.393 . S
C2754 H2746 0.950 . S
C2754 C2752 1.391 . S
C2754 C2755 1.400 . S
C2755 C2754 1.400 . S
C2755 C2756 1.398 . S
C2755 C2761 1.491 . S
C2756 H2747 0.950 . S
C2756 C2755 1.398 . S
C2756 C2757 1.391 . S
C2757 H2745 0.950 . S
C2757 C2753 1.393 . S
C2757 C2756 1.391 . S
C2758 H2748 0.950 . S
C2758 C2759 1.386 . S
C2758 C2760 1.391 . S
C2759 C2758 1.386 . S
C2759 C2763 1.393 . S
C2760 H2749 0.950 . S
C2760 C2758 1.391 . S
C2760 C2761 1.400 . S
C2761 C2755 1.491 . S
C2761 C2760 1.400 . S
C2761 C2762 1.398 . S
C2762 H2750 0.950 . S
C2762 C2761 1.398 . S
C2762 C2763 1.391 . S
C2763 H2751 0.950 . S
C2763 C2759 1.393 . S
C2763 C2762 1.391 . S
H2764 C2772 0.950 . S
H2765 C2777 0.950 . S
H2766 C2774 0.950 . S
H2767 C2776 0.950 . S
H2768 C2778 0.950 . S
H2769 C2780 0.950 . S
H2770 C2782 0.950 . S
H2771 C2783 0.950 . S
C2772 H2764 0.950 . S
C2772 C2773 1.386 . S
C2772 C2774 1.391 . S
C2773 C2772 1.386 . S
C2773 C2777 1.393 . S
C2774 H2766 0.950 . S
C2774 C2772 1.391 . S
C2774 C2775 1.400 . S
C2775 C2774 1.400 . S
C2775 C2776 1.398 . S
C2775 C2781 1.491 . S
C2776 H2767 0.950 . S
C2776 C2775 1.398 . S
C2776 C2777 1.391 . S
C2777 H2765 0.950 . S
C2777 C2773 1.393 . S
C2777 C2776 1.391 . S
C2778 H2768 0.950 . S
C2778 C2779 1.386 . S
C2778 C2780 1.391 . S
C2779 C2778 1.386 . S
C2779 C2783 1.393 . S
C2780 H2769 0.950 . S
C2780 C2778 1.391 . S
C2780 C2781 1.400 . S
C2781 C2775 1.491 . S
C2781 C2780 1.400 . S
C2781 C2782 1.398 . S
C2782 H2770 0.950 . S
C2782 C2781 1.398 . S
C2782 C2783 1.391 . S
C2783 H2771 0.950 . S
C2783 C2779 1.393 . S
C2783 C2782 1.391 . S
H2784 C2792 0.950 1_655 S
H2785 C2797 0.950 . S
H2786 C2794 0.950 1_655 S
H2787 C2796 0.950 . S
H2788 C2798 0.950 . S
H2789 C2800 0.950 . S
H2790 C2802 0.950 . S
H2791 C2803 0.950 . S
C2792 H2784 0.950 1_455 S
C2792 C2793 1.386 . S
C2792 C2794 1.391 . S
C2793 C2792 1.386 . S
C2793 C2797 1.393 . S
C2794 H2786 0.950 1_455 S
C2794 C2792 1.391 . S
C2794 C2795 1.400 . S
C2795 C2794 1.400 . S
C2795 C2796 1.398 . S
C2795 C2801 1.491 . S
C2796 H2787 0.950 . S
C2796 C2795 1.398 . S
C2796 C2797 1.391 . S
C2797 H2785 0.950 . S
C2797 C2793 1.393 . S
C2797 C2796 1.391 . S
C2798 H2788 0.950 . S
C2798 C2799 1.386 . S
C2798 C2800 1.391 . S
C2799 C2798 1.386 . S
C2799 C2803 1.393 1_455 S
C2800 H2789 0.950 . S
C2800 C2798 1.391 . S
C2800 C2801 1.400 . S
C2801 C2795 1.491 . S
C2801 C2800 1.400 . S
C2801 C2802 1.398 1_455 S
C2802 H2790 0.950 . S
C2802 C2801 1.398 1_655 S
C2802 C2803 1.391 . S
C2803 H2791 0.950 . S
C2803 C2799 1.393 1_655 S
C2803 C2802 1.391 . S
H2804 C2812 0.950 . S
H2805 C2817 0.950 . S
H2806 C2814 0.950 . S
H2807 C2816 0.950 . S
H2808 C2818 0.950 . S
H2809 C2820 0.950 . S
H2810 C2822 0.950 . S
H2811 C2823 0.950 . S
C2812 H2804 0.950 . S
C2812 C2813 1.386 . S
C2812 C2814 1.391 . S
C2813 C2812 1.386 . S
C2813 C2817 1.393 . S
C2814 H2806 0.950 . S
C2814 C2812 1.391 . S
C2814 C2815 1.400 . S
C2815 C2814 1.400 . S
C2815 C2816 1.398 . S
C2815 C2821 1.491 . S
C2816 H2807 0.950 . S
C2816 C2815 1.398 . S
C2816 C2817 1.391 . S
C2817 H2805 0.950 . S
C2817 C2813 1.393 . S
C2817 C2816 1.391 . S
C2818 H2808 0.950 . S
C2818 C2819 1.386 . S
C2818 C2820 1.391 . S
C2819 C2818 1.386 . S
C2819 C2823 1.393 . S
C2820 H2809 0.950 . S
C2820 C2818 1.391 . S
C2820 C2821 1.400 . S
C2821 C2815 1.491 . S
C2821 C2820 1.400 . S
C2821 C2822 1.398 . S
C2822 H2810 0.950 . S
C2822 C2821 1.398 . S
C2822 C2823 1.391 . S
C2823 H2811 0.950 . S
C2823 C2819 1.393 . S
C2823 C2822 1.391 . S
H2824 C2832 0.950 . S
H2825 C2837 0.950 . S
H2826 C2834 0.950 . S
H2827 C2836 0.950 . S
H2828 C2838 0.950 . S
H2829 C2840 0.950 . S
H2830 C2842 0.950 . S
H2831 C2843 0.950 . S
C2832 H2824 0.950 . S
C2832 C2833 1.386 . S
C2832 C2834 1.391 . S
C2833 C2832 1.386 . S
C2833 C2837 1.393 . S
C2834 H2826 0.950 . S
C2834 C2832 1.391 . S
C2834 C2835 1.400 . S
C2835 C2834 1.400 . S
C2835 C2836 1.398 . S
C2835 C2841 1.491 . S
C2836 H2827 0.950 . S
C2836 C2835 1.398 . S
C2836 C2837 1.391 . S
C2837 H2825 0.950 . S
C2837 C2833 1.393 . S
C2837 C2836 1.391 . S
C2838 H2828 0.950 . S
C2838 C2839 1.386 . S
C2838 C2840 1.391 . S
C2839 C2838 1.386 . S
C2839 C2843 1.393 . S
C2840 H2829 0.950 . S
C2840 C2838 1.391 . S
C2840 C2841 1.400 . S
C2841 C2835 1.491 . S
C2841 C2840 1.400 . S
C2841 C2842 1.398 . S
C2842 H2830 0.950 . S
C2842 C2841 1.398 . S
C2842 C2843 1.391 . S
C2843 H2831 0.950 . S
C2843 C2839 1.393 . S
C2843 C2842 1.391 . S
H2844 C2852 0.950 . S
H2845 C2857 0.950 1_545 S
H2846 C2854 0.950 . S
H2847 C2856 0.950 1_545 S
H2848 C2858 0.950 . S
H2849 C2860 0.950 . S
H2850 C2862 0.950 . S
H2851 C2863 0.950 . S
C2852 H2844 0.950 . S
C2852 C2853 1.386 . S
C2852 C2854 1.391 . S
C2853 C2852 1.386 . S
C2853 C2857 1.393 . S
C2854 H2846 0.950 . S
C2854 C2852 1.391 . S
C2854 C2855 1.400 . S
C2855 C2854 1.400 . S
C2855 C2856 1.398 . S
C2855 C2861 1.491 . S
C2856 H2847 0.950 1_565 S
C2856 C2855 1.398 . S
C2856 C2857 1.391 . S
C2857 H2845 0.950 1_565 S
C2857 C2853 1.393 . S
C2857 C2856 1.391 . S
C2858 H2848 0.950 . S
C2858 C2859 1.386 1_545 S
C2858 C2860 1.391 . S
C2859 C2858 1.386 1_565 S
C2859 C2863 1.393 . S
C2860 H2849 0.950 . S
C2860 C2858 1.391 . S
C2860 C2861 1.400 1_545 S
C2861 C2855 1.491 . S
C2861 C2860 1.400 1_565 S
C2861 C2862 1.398 . S
C2862 H2850 0.950 . S
C2862 C2861 1.398 . S
C2862 C2863 1.391 . S
C2863 H2851 0.950 . S
C2863 C2859 1.393 . S
C2863 C2862 1.391 . S
H2864 C2872 0.950 . S
H2865 C2877 0.950 1_655 S
H2866 C2874 0.950 . S
H2867 C2876 0.950 1_655 S
H2868 C2878 0.950 . S
H2869 C2880 0.950 . S
H2870 C2882 0.950 . S
H2871 C2883 0.950 . S
C2872 H2864 0.950 . S
C2872 C2873 1.386 . S
C2872 C2874 1.391 . S
C2873 C2872 1.386 . S
C2873 C2877 1.393 . S
C2874 H2866 0.950 . S
C2874 C2872 1.391 . S
C2874 C2875 1.400 . S
C2875 C2874 1.400 . S
C2875 C2876 1.398 . S
C2875 C2881 1.491 . S
C2876 H2867 0.950 1_455 S
C2876 C2875 1.398 . S
C2876 C2877 1.391 . S
C2877 H2865 0.950 1_455 S
C2877 C2873 1.393 . S
C2877 C2876 1.391 . S
C2878 H2868 0.950 . S
C2878 C2879 1.386 1_655 S
C2878 C2880 1.391 . S
C2879 C2878 1.386 1_455 S
C2879 C2883 1.393 . S
C2880 H2869 0.950 . S
C2880 C2878 1.391 . S
C2880 C2881 1.400 1_655 S
C2881 C2875 1.491 . S
C2881 C2880 1.400 1_455 S
C2881 C2882 1.398 . S
C2882 H2870 0.950 . S
C2882 C2881 1.398 . S
C2882 C2883 1.391 . S
C2883 H2871 0.950 . S
C2883 C2879 1.393 . S
C2883 C2882 1.391 . S
H2884 C2892 0.950 . S
H2885 C2897 0.950 . S
H2886 C2894 0.950 . S
H2887 C2896 0.950 . S
H2888 C2898 0.950 . S
H2889 C2900 0.950 . S
H2890 C2902 0.950 . S
H2891 C2903 0.950 . S
C2892 H2884 0.950 . S
C2892 C2893 1.386 . S
C2892 C2894 1.391 . S
C2893 C2892 1.386 . S
C2893 C2897 1.393 . S
C2894 H2886 0.950 . S
C2894 C2892 1.391 . S
C2894 C2895 1.400 . S
C2895 C2894 1.400 . S
C2895 C2896 1.398 . S
C2895 C2901 1.491 . S
C2896 H2887 0.950 . S
C2896 C2895 1.398 . S
C2896 C2897 1.391 . S
C2897 H2885 0.950 . S
C2897 C2893 1.393 . S
C2897 C2896 1.391 . S
C2898 H2888 0.950 . S
C2898 C2899 1.386 . S
C2898 C2900 1.391 . S
C2899 C2898 1.386 . S
C2899 C2903 1.393 . S
C2900 H2889 0.950 . S
C2900 C2898 1.391 . S
C2900 C2901 1.400 . S
C2901 C2895 1.491 . S
C2901 C2900 1.400 . S
C2901 C2902 1.398 . S
C2902 H2890 0.950 . S
C2902 C2901 1.398 . S
C2902 C2903 1.391 . S
C2903 H2891 0.950 . S
C2903 C2899 1.393 . S
C2903 C2902 1.391 . S
H2904 C2912 0.950 . S
H2905 C2917 0.950 . S
H2906 C2914 0.950 . S
H2907 C2916 0.950 . S
H2908 C2918 0.950 . S
H2909 C2920 0.950 . S
H2910 C2922 0.950 . S
H2911 C2923 0.950 . S
C2912 H2904 0.950 . S
C2912 C2913 1.386 . S
C2912 C2914 1.391 . S
C2913 C2912 1.386 . S
C2913 C2917 1.393 . S
C2914 H2906 0.950 . S
C2914 C2912 1.391 . S
C2914 C2915 1.400 . S
C2915 C2914 1.400 . S
C2915 C2916 1.398 . S
C2915 C2921 1.491 . S
C2916 H2907 0.950 . S
C2916 C2915 1.398 . S
C2916 C2917 1.391 . S
C2917 H2905 0.950 . S
C2917 C2913 1.393 . S
C2917 C2916 1.391 . S
C2918 H2908 0.950 . S
C2918 C2919 1.386 . S
C2918 C2920 1.391 . S
C2919 C2918 1.386 . S
C2919 C2923 1.393 . S
C2920 H2909 0.950 . S
C2920 C2918 1.391 . S
C2920 C2921 1.400 . S
C2921 C2915 1.491 . S
C2921 C2920 1.400 . S
C2921 C2922 1.398 . S
C2922 H2910 0.950 . S
C2922 C2921 1.398 . S
C2922 C2923 1.391 . S
C2923 H2911 0.950 . S
C2923 C2919 1.393 . S
C2923 C2922 1.391 . S
H2924 C2932 0.950 . S
H2925 C2937 0.950 . S
H2926 C2934 0.950 . S
H2927 C2936 0.950 . S
H2928 C2938 0.950 . S
H2929 C2940 0.950 . S
H2930 C2942 0.950 . S
H2931 C2943 0.950 . S
C2932 H2924 0.950 . S
C2932 C2933 1.386 . S
C2932 C2934 1.391 . S
C2933 C2932 1.386 . S
C2933 C2937 1.393 . S
C2934 H2926 0.950 . S
C2934 C2932 1.391 . S
C2934 C2935 1.400 . S
C2935 C2934 1.400 . S
C2935 C2936 1.398 . S
C2935 C2941 1.491 . S
C2936 H2927 0.950 . S
C2936 C2935 1.398 . S
C2936 C2937 1.391 . S
C2937 H2925 0.950 . S
C2937 C2933 1.393 . S
C2937 C2936 1.391 . S
C2938 H2928 0.950 . S
C2938 C2939 1.386 . S
C2938 C2940 1.391 . S
C2939 C2938 1.386 . S
C2939 C2943 1.393 . S
C2940 H2929 0.950 . S
C2940 C2938 1.391 . S
C2940 C2941 1.400 . S
C2941 C2935 1.491 . S
C2941 C2940 1.400 . S
C2941 C2942 1.398 . S
C2942 H2930 0.950 . S
C2942 C2941 1.398 . S
C2942 C2943 1.391 . S
C2943 H2931 0.950 . S
C2943 C2939 1.393 . S
C2943 C2942 1.391 . S
H2944 C2952 0.950 . S
H2945 C2957 0.950 . S
H2946 C2954 0.950 . S
H2947 C2956 0.950 . S
H2948 C2958 0.950 . S
H2949 C2960 0.950 . S
H2950 C2962 0.950 . S
H2951 C2963 0.950 . S
C2952 H2944 0.950 . S
C2952 C2953 1.386 . S
C2952 C2954 1.391 . S
C2953 C2952 1.386 . S
C2953 C2957 1.393 . S
C2954 H2946 0.950 . S
C2954 C2952 1.391 . S
C2954 C2955 1.400 . S
C2955 C2954 1.400 . S
C2955 C2956 1.398 . S
C2955 C2961 1.491 . S
C2956 H2947 0.950 . S
C2956 C2955 1.398 . S
C2956 C2957 1.391 . S
C2957 H2945 0.950 . S
C2957 C2953 1.393 . S
C2957 C2956 1.391 . S
C2958 H2948 0.950 . S
C2958 C2959 1.386 . S
C2958 C2960 1.391 . S
C2959 C2958 1.386 . S
C2959 C2963 1.393 . S
C2960 H2949 0.950 . S
C2960 C2958 1.391 . S
C2960 C2961 1.400 . S
C2961 C2955 1.491 . S
C2961 C2960 1.400 . S
C2961 C2962 1.398 . S
C2962 H2950 0.950 . S
C2962 C2961 1.398 . S
C2962 C2963 1.391 . S
C2963 H2951 0.950 . S
C2963 C2959 1.393 . S
C2963 C2962 1.391 . S
H2964 C2972 0.950 . S
H2965 C2977 0.950 . S
H2966 C2974 0.950 . S
H2967 C2976 0.922 1_565 S
H2968 C2978 0.950 . S
H2969 C2980 0.946 1_565 S
H2970 C2982 0.950 . S
H2971 C2983 0.950 . S
C2972 H2964 0.950 . S
C2972 C2973 1.386 . S
C2972 C2974 1.391 . S
C2973 C2972 1.386 . S
C2973 C2977 1.393 . S
C2974 H2966 0.950 . S
C2974 C2972 1.391 . S
C2974 C2975 1.400 . S
C2975 C2974 1.400 . S
C2975 C2976 1.398 . S
C2975 C2981 1.491 . S
C2976 H2967 0.922 1_545 S
C2976 C2975 1.398 . S
C2976 C2977 1.391 . S
C2977 H2965 0.950 . S
C2977 C2973 1.393 . S
C2977 C2976 1.391 . S
C2978 H2968 0.950 . S
C2978 C2979 1.386 1_565 S
C2978 C2980 1.369 1_565 S
C2979 C2978 1.386 1_545 S
C2979 C2983 1.393 . S
C2980 H2969 0.946 1_545 S
C2980 C2978 1.369 1_545 S
C2980 C2981 1.427 . S
C2981 C2975 1.491 . S
C2981 C2980 1.427 . S
C2981 C2982 1.398 . S
C2982 H2970 0.950 . S
C2982 C2981 1.398 . S
C2982 C2983 1.391 . S
C2983 H2971 0.950 . S
C2983 C2979 1.393 . S
C2983 C2982 1.391 . S
H2984 C2992 0.950 . S
H2985 C2997 0.950 1_455 S
H2986 C2994 0.950 . S
H2987 C2996 0.950 1_455 S
H2988 C2998 0.950 . S
H2989 C3000 0.950 . S
H2990 C3002 0.950 . S
H2991 C3003 0.950 . S
C2992 H2984 0.950 . S
C2992 C2993 1.386 . S
C2992 C2994 1.391 . S
C2993 C2992 1.386 . S
C2993 C2997 1.393 . S
C2994 H2986 0.950 . S
C2994 C2992 1.391 . S
C2994 C2995 1.400 . S
C2995 C2994 1.400 . S
C2995 C2996 1.398 . S
C2995 C3001 1.491 . S
C2996 H2987 0.950 1_655 S
C2996 C2995 1.398 . S
C2996 C2997 1.391 . S
C2997 H2985 0.950 1_655 S
C2997 C2993 1.393 . S
C2997 C2996 1.391 . S
C2998 H2988 0.950 . S
C2998 C2999 1.386 1_455 S
C2998 C3000 1.391 . S
C2999 C2998 1.386 1_655 S
C2999 C3003 1.393 . S
C3000 H2989 0.950 . S
C3000 C2998 1.391 . S
C3000 C3001 1.400 1_455 S
C3001 C2995 1.491 . S
C3001 C3000 1.400 1_655 S
C3001 C3002 1.398 . S
C3002 H2990 0.950 . S
C3002 C3001 1.398 . S
C3002 C3003 1.391 . S
C3003 H2991 0.950 . S
C3003 C2999 1.393 . S
C3003 C3002 1.391 . S
H3004 C3012 0.950 . S
H3005 C3017 0.950 . S
H3006 C3014 0.950 . S
H3007 C3016 0.950 . S
H3008 C3018 0.950 . S
H3009 C3020 0.950 . S
H3010 C3022 0.950 . S
H3011 C3023 0.950 . S
C3012 H3004 0.950 . S
C3012 C3013 1.386 . S
C3012 C3014 1.391 . S
C3013 C3012 1.386 . S
C3013 C3017 1.393 . S
C3014 H3006 0.950 . S
C3014 C3012 1.391 . S
C3014 C3015 1.400 . S
C3015 C3014 1.400 . S
C3015 C3016 1.398 . S
C3015 C3021 1.491 . S
C3016 H3007 0.950 . S
C3016 C3015 1.398 . S
C3016 C3017 1.391 . S
C3017 H3005 0.950 . S
C3017 C3013 1.393 . S
C3017 C3016 1.391 . S
C3018 H3008 0.950 . S
C3018 C3019 1.386 . S
C3018 C3020 1.391 . S
C3019 C3018 1.386 . S
C3019 C3023 1.393 . S
C3020 H3009 0.950 . S
C3020 C3018 1.391 . S
C3020 C3021 1.400 . S
C3021 C3015 1.491 . S
C3021 C3020 1.400 . S
C3021 C3022 1.398 . S
C3022 H3010 0.950 . S
C3022 C3021 1.398 . S
C3022 C3023 1.391 . S
C3023 H3011 0.950 . S
C3023 C3019 1.393 . S
C3023 C3022 1.391 . S
H3024 C3032 0.950 . S
H3025 C3037 0.950 . S
H3026 C3034 0.950 . S
H3027 C3036 0.950 . S
H3028 C3038 0.950 . S
H3029 C3040 0.950 . S
H3030 C3042 0.950 . S
H3031 C3043 0.950 . S
C3032 H3024 0.950 . S
C3032 C3033 1.386 . S
C3032 C3034 1.391 . S
C3033 C3032 1.386 . S
C3033 C3037 1.393 . S
C3034 H3026 0.950 . S
C3034 C3032 1.391 . S
C3034 C3035 1.400 . S
C3035 C3034 1.400 . S
C3035 C3036 1.398 . S
C3035 C3041 1.491 . S
C3036 H3027 0.950 . S
C3036 C3035 1.398 . S
C3036 C3037 1.391 . S
C3037 H3025 0.950 . S
C3037 C3033 1.393 . S
C3037 C3036 1.391 . S
C3038 H3028 0.950 . S
C3038 C3039 1.386 . S
C3038 C3040 1.391 . S
C3039 C3038 1.386 . S
C3039 C3043 1.393 . S
C3040 H3029 0.950 . S
C3040 C3038 1.391 . S
C3040 C3041 1.400 . S
C3041 C3035 1.491 . S
C3041 C3040 1.400 . S
C3041 C3042 1.398 . S
C3042 H3030 0.950 . S
C3042 C3041 1.398 . S
C3042 C3043 1.391 . S
C3043 H3031 0.950 . S
C3043 C3039 1.393 . S
C3043 C3042 1.391 . S
H3044 C3052 0.950 . S
H3045 C3057 0.950 . S
H3046 C3054 0.950 . S
H3047 C3056 0.950 . S
H3048 C3058 0.950 . S
H3049 C3060 0.950 . S
H3050 C3062 0.950 . S
H3051 C3063 0.950 . S
C3052 H3044 0.950 . S
C3052 C3053 1.386 . S
C3052 C3054 1.391 . S
C3053 C3052 1.386 . S
C3053 C3057 1.393 . S
C3054 H3046 0.950 . S
C3054 C3052 1.391 . S
C3054 C3055 1.400 . S
C3055 C3054 1.400 . S
C3055 C3056 1.398 . S
C3055 C3061 1.491 . S
C3056 H3047 0.950 . S
C3056 C3055 1.398 . S
C3056 C3057 1.391 . S
C3057 H3045 0.950 . S
C3057 C3053 1.393 . S
C3057 C3056 1.391 . S
C3058 H3048 0.950 . S
C3058 C3059 1.386 . S
C3058 C3060 1.391 . S
C3059 C3058 1.386 . S
C3059 C3063 1.393 . S
C3060 H3049 0.950 . S
C3060 C3058 1.391 . S
C3060 C3061 1.400 . S
C3061 C3055 1.491 . S
C3061 C3060 1.400 . S
C3061 C3062 1.398 . S
C3062 H3050 0.950 . S
C3062 C3061 1.398 . S
C3062 C3063 1.391 . S
C3063 H3051 0.950 . S
C3063 C3059 1.393 . S
C3063 C3062 1.391 . S
H3064 C3072 0.950 . S
H3065 C3077 0.950 . S
H3066 C3074 0.950 . S
H3067 C3076 0.950 . S
H3068 C3078 0.950 . S
H3069 C3080 0.950 . S
H3070 C3082 0.950 . S
H3071 C3083 0.950 . S
C3072 H3064 0.950 . S
C3072 C3073 1.386 . S
C3072 C3074 1.391 . S
C3073 C3072 1.386 . S
C3073 C3077 1.393 . S
C3074 H3066 0.950 . S
C3074 C3072 1.391 . S
C3074 C3075 1.400 . S
C3075 C3074 1.400 . S
C3075 C3076 1.398 . S
C3075 C3081 1.491 . S
C3076 H3067 0.950 . S
C3076 C3075 1.398 . S
C3076 C3077 1.391 . S
C3077 H3065 0.950 . S
C3077 C3073 1.393 . S
C3077 C3076 1.391 . S
C3078 H3068 0.950 . S
C3078 C3079 1.386 . S
C3078 C3080 1.391 . S
C3079 C3078 1.386 . S
C3079 C3083 1.393 . S
C3080 H3069 0.950 . S
C3080 C3078 1.391 . S
C3080 C3081 1.400 . S
C3081 C3075 1.491 . S
C3081 C3080 1.400 . S
C3081 C3082 1.398 . S
C3082 H3070 0.950 . S
C3082 C3081 1.398 . S
C3082 C3083 1.391 . S
C3083 H3071 0.950 . S
C3083 C3079 1.393 . S
C3083 C3082 1.391 . S
H3084 C3092 0.950 . S
H3085 C3097 0.950 . S
H3086 C3094 0.950 . S
H3087 C3096 0.950 . S
H3088 C3098 0.950 . S
H3089 C3100 0.950 . S
H3090 C3102 0.950 . S
H3091 C3103 0.950 . S
C3092 H3084 0.950 . S
C3092 C3093 1.386 . S
C3092 C3094 1.391 . S
C3093 C3092 1.386 . S
C3093 C3097 1.393 . S
C3094 H3086 0.950 . S
C3094 C3092 1.391 . S
C3094 C3095 1.400 . S
C3095 C3094 1.400 . S
C3095 C3096 1.398 . S
C3095 C3101 1.491 . S
C3096 H3087 0.950 . S
C3096 C3095 1.398 . S
C3096 C3097 1.391 . S
C3097 H3085 0.950 . S
C3097 C3093 1.393 . S
C3097 C3096 1.391 . S
C3098 H3088 0.950 . S
C3098 C3099 1.386 . S
C3098 C3100 1.391 . S
C3099 C3098 1.386 . S
C3099 C3103 1.393 . S
C3100 H3089 0.950 . S
C3100 C3098 1.391 . S
C3100 C3101 1.400 . S
C3101 C3095 1.491 . S
C3101 C3100 1.400 . S
C3101 C3102 1.398 . S
C3102 H3090 0.950 . S
C3102 C3101 1.398 . S
C3102 C3103 1.391 . S
C3103 H3091 0.950 . S
C3103 C3099 1.393 . S
C3103 C3102 1.391 . S
H3104 C3112 0.950 . S
H3105 C3117 0.950 . S
H3106 C3114 0.950 . S
H3107 C3116 0.950 . S
H3108 C3118 0.950 . S
H3109 C3120 0.950 . S
H3110 C3122 0.950 . S
H3111 C3123 0.950 . S
C3112 H3104 0.950 . S
C3112 C3113 1.386 . S
C3112 C3114 1.391 . S
C3113 C3112 1.386 . S
C3113 C3117 1.393 . S
C3114 H3106 0.950 . S
C3114 C3112 1.391 . S
C3114 C3115 1.400 . S
C3115 C3114 1.400 . S
C3115 C3116 1.398 . S
C3115 C3121 1.491 . S
C3116 H3107 0.950 . S
C3116 C3115 1.398 . S
C3116 C3117 1.391 . S
C3117 H3105 0.950 . S
C3117 C3113 1.393 . S
C3117 C3116 1.391 . S
C3118 H3108 0.950 . S
C3118 C3119 1.386 . S
C3118 C3120 1.391 . S
C3119 C3118 1.386 . S
C3119 C3123 1.393 . S
C3120 H3109 0.950 . S
C3120 C3118 1.391 . S
C3120 C3121 1.400 . S
C3121 C3115 1.491 . S
C3121 C3120 1.400 . S
C3121 C3122 1.398 . S
C3122 H3110 0.950 . S
C3122 C3121 1.398 . S
C3122 C3123 1.391 . S
C3123 H3111 0.950 . S
C3123 C3119 1.393 . S
C3123 C3122 1.391 . S
H3124 C3132 0.950 . S
H3125 C3137 0.950 . S
H3126 C3134 0.950 . S
H3127 C3136 0.950 . S
H3128 C3138 0.950 . S
H3129 C3140 0.950 . S
H3130 C3142 0.950 . S
H3131 C3143 0.950 . S
C3132 H3124 0.950 . S
C3132 C3133 1.386 . S
C3132 C3134 1.391 . S
C3133 C3132 1.386 . S
C3133 C3137 1.393 . S
C3134 H3126 0.950 . S
C3134 C3132 1.391 . S
C3134 C3135 1.400 . S
C3135 C3134 1.400 . S
C3135 C3136 1.398 . S
C3135 C3141 1.491 . S
C3136 H3127 0.950 . S
C3136 C3135 1.398 . S
C3136 C3137 1.391 . S
C3137 H3125 0.950 . S
C3137 C3133 1.393 . S
C3137 C3136 1.391 . S
C3138 H3128 0.950 . S
C3138 C3139 1.386 . S
C3138 C3140 1.391 . S
C3139 C3138 1.386 . S
C3139 C3143 1.393 . S
C3140 H3129 0.950 . S
C3140 C3138 1.391 . S
C3140 C3141 1.400 . S
C3141 C3135 1.491 . S
C3141 C3140 1.400 . S
C3141 C3142 1.398 . S
C3142 H3130 0.950 . S
C3142 C3141 1.398 . S
C3142 C3143 1.391 . S
C3143 H3131 0.950 . S
C3143 C3139 1.393 . S
C3143 C3142 1.391 . S
H3144 C3152 0.950 . S
H3145 C3157 0.950 1_455 S
H3146 C3154 0.950 . S
H3147 C3156 0.950 1_455 S
H3148 C3158 0.950 . S
H3149 C3160 0.950 . S
H3150 C3162 0.950 . S
H3151 C3163 0.950 . S
C3152 H3144 0.950 . S
C3152 C3153 1.386 . S
C3152 C3154 1.391 . S
C3153 C3152 1.386 . S
C3153 C3157 1.393 . S
C3154 H3146 0.950 . S
C3154 C3152 1.391 . S
C3154 C3155 1.400 . S
C3155 C3154 1.400 . S
C3155 C3156 1.398 . S
C3155 C3161 1.491 . S
C3156 H3147 0.950 1_655 S
C3156 C3155 1.398 . S
C3156 C3157 1.391 . S
C3157 H3145 0.950 1_655 S
C3157 C3153 1.393 . S
C3157 C3156 1.391 . S
C3158 H3148 0.950 . S
C3158 C3159 1.386 1_455 S
C3158 C3160 1.391 . S
C3159 C3158 1.386 1_655 S
C3159 C3163 1.393 . S
C3160 H3149 0.950 . S
C3160 C3158 1.391 . S
C3160 C3161 1.400 1_455 S
C3161 C3155 1.491 . S
C3161 C3160 1.400 1_655 S
C3161 C3162 1.398 . S
C3162 H3150 0.950 . S
C3162 C3161 1.398 . S
C3162 C3163 1.391 . S
C3163 H3151 0.950 . S
C3163 C3159 1.393 . S
C3163 C3162 1.391 . S
H3164 C3172 0.950 . S
H3165 C3177 0.950 . S
H3166 C3174 0.950 . S
H3167 C3176 0.950 . S
H3168 C3178 0.950 . S
H3169 C3180 0.950 . S
H3170 C3182 0.950 . S
H3171 C3183 0.950 . S
C3172 H3164 0.950 . S
C3172 C3173 1.386 . S
C3172 C3174 1.391 . S
C3173 C3172 1.386 . S
C3173 C3177 1.393 . S
C3174 H3166 0.950 . S
C3174 C3172 1.391 . S
C3174 C3175 1.400 . S
C3175 C3174 1.400 . S
C3175 C3176 1.398 . S
C3175 C3181 1.491 . S
C3176 H3167 0.950 . S
C3176 C3175 1.398 . S
C3176 C3177 1.391 . S
C3177 H3165 0.950 . S
C3177 C3173 1.393 . S
C3177 C3176 1.391 . S
C3178 H3168 0.950 . S
C3178 C3179 1.386 . S
C3178 C3180 1.391 . S
C3179 C3178 1.386 . S
C3179 C3183 1.393 . S
C3180 H3169 0.950 . S
C3180 C3178 1.391 . S
C3180 C3181 1.400 . S
C3181 C3175 1.491 . S
C3181 C3180 1.400 . S
C3181 C3182 1.398 . S
C3182 H3170 0.950 . S
C3182 C3181 1.398 . S
C3182 C3183 1.391 . S
C3183 H3171 0.950 . S
C3183 C3179 1.393 . S
C3183 C3182 1.391 . S
H3184 C3192 0.950 . S
H3185 C3197 0.950 . S
H3186 C3194 0.950 . S
H3187 C3196 0.950 . S
H3188 C3198 0.950 . S
H3189 C3200 0.950 . S
H3190 C3202 0.950 . S
H3191 C3203 0.950 . S
C3192 H3184 0.950 . S
C3192 C3193 1.386 . S
C3192 C3194 1.391 . S
C3193 C3192 1.386 . S
C3193 C3197 1.393 . S
C3194 H3186 0.950 . S
C3194 C3192 1.391 . S
C3194 C3195 1.400 . S
C3195 C3194 1.400 . S
C3195 C3196 1.398 . S
C3195 C3201 1.491 . S
C3196 H3187 0.950 . S
C3196 C3195 1.398 . S
C3196 C3197 1.391 . S
C3197 H3185 0.950 . S
C3197 C3193 1.393 . S
C3197 C3196 1.391 . S
C3198 H3188 0.950 . S
C3198 C3199 1.386 . S
C3198 C3200 1.391 . S
C3199 C3198 1.386 . S
C3199 C3203 1.393 . S
C3200 H3189 0.950 . S
C3200 C3198 1.391 . S
C3200 C3201 1.400 . S
C3201 C3195 1.491 . S
C3201 C3200 1.400 . S
C3201 C3202 1.398 . S
C3202 H3190 0.950 . S
C3202 C3201 1.398 . S
C3202 C3203 1.391 . S
C3203 H3191 0.950 . S
C3203 C3199 1.393 . S
C3203 C3202 1.391 . S
C1773 C4 1.547 1_655 S
C1779 C1253 1.519 . S
C1793 C38 1.745 . S
C1799 C1297 1.710 . S
C1819 C1377 1.520 . S
C1813 C74 1.554 . S
C1833 C76 1.536 . S
C1839 C1421 1.498 . S
C1853 C2 1.648 . S
C1859 C1501 1.613 . S
C1873 C40 1.581 . S
C1879 C1563 1.504 . S
C1893 C110 1.641 . S
C1899 C1483 1.578 . S
C1919 C1545 1.522 . S
C1913 C148 1.578 . S
C1939 C1439 1.612 . S
C1933 C182 1.636 1_565 S
C1953 C184 1.579 . S
C1959 C1359 1.520 . S
C1979 C1235 1.476 . S
C1973 C112 1.534 1_655 S
C1993 C146 1.675 . S
C1999 C1315 1.630 . S
C2013 C220 1.652 . S
C2019 C1625 1.579 . S
C2033 C254 1.792 . S
C2039 C1669 1.746 . S
C2059 C1749 1.593 . S
C2053 C290 1.675 . S
C2073 C292 1.574 . S
C2079 C695 1.496 . S
C2093 C218 1.711 . S
C2099 C739 1.678 . S
C2113 C256 1.599 . S
C2119 C819 1.535 . S
C2133 C326 1.718 . S
C2139 C757 1.674 . S
C2153 C364 1.632 . S
C2159 C801 1.556 . S
C2179 C677 1.643 . S
C2173 C398 1.725 . S
C2199 C1731 1.616 . S
C2193 C400 1.674 . S
C2219 C1607 1.483 . S
C2213 C328 1.556 . S
C2239 C1687 1.678 . S
C2233 C362 1.717 . S
C2253 C436 1.616 . S
C2259 C881 1.561 . S
C2273 C470 1.780 . S
C2279 C943 1.708 . S
C2293 C506 1.677 . S
C2299 C987 1.643 . S
C2313 C508 1.605 . S
C2319 C1049 1.569 . S
C2339 C1111 1.695 . S
C2333 C434 1.723 . S
C2359 C1191 1.544 . S
C2353 C472 1.618 . S
C2379 C1129 1.725 . S
C2373 C542 1.762 . S
C2399 C1173 1.564 . S
C2393 C580 1.627 . S
C2413 C614 1.716 . S
C2419 C1067 1.690 . S
C2439 C1005 1.582 . S
C2433 C616 1.622 . S
C2453 C544 1.560 . S
C2459 C863 1.512 . S
C2479 C925 1.614 . S
C2473 C578 1.701 . S
C2499 C701 1.521 . S
C2493 C14 1.565 . S
C2513 C39 1.540 . S
C2519 C745 1.482 . S
C2539 C825 1.448 . S
C2533 C75 1.540 . S
C2559 C887 1.348 . S
C2553 C86 1.415 . S
C2579 C949 1.499 . S
C2573 C3 1.564 . S
C2599 C993 1.492 . S
C2593 C50 1.503 . S
C2613 C111 1.561 . S
C2619 C1011 1.492 . S
C2633 C158 1.479 . S
C2639 C869 1.410 . S
C2653 C183 1.632 . S
C2659 C931 1.546 . S
C2673 C194 1.529 . S
C2679 C763 1.522 . S
C2699 C807 1.425 . S
C2693 C122 1.459 . S
C2713 C147 1.467 . S
C2719 C683 1.404 . S
C2739 C1055 1.499 . S
C2733 C230 1.549 . S
C2753 C255 1.603 . S
C2759 C1117 1.549 . S
C2773 C291 1.552 . S
C2779 C1197 1.452 . S
C2799 C1259 1.317 . S
C2793 C302 1.348 . S
C2813 C219 1.551 . S
C2819 C1303 1.503 . S
C2833 C266 1.429 . S
C2839 C1383 1.404 . S
C2853 C327 1.409 . S
C2859 C1365 1.328 . S
C2873 C374 1.409 . S
C2879 C1241 1.361 . S
C2899 C1321 1.568 . S
C2893 C399 1.622 . S
C2913 C410 1.537 . S
C2919 C1135 1.527 . S
C2933 C338 1.514 1_545 S
C2939 C1179 1.481 . S
C2959 C1073 1.454 . S
C2953 C363 1.568 . S
C2979 C1427 1.439 . S
C2973 C446 1.429 . S
C2993 C471 1.466 . S
C2999 C1507 1.420 . S
C3013 C507 1.502 . S
C3019 C1569 1.408 . S
C3039 C1631 1.380 . S
C3033 C518 1.419 . S
C3059 C1675 1.554 . S
C3053 C435 1.652 . S
C3073 C482 1.555 1_455 S
C3079 C1755 1.507 . S
C3093 C543 1.528 . S
C3099 C1737 1.448 . S
C3113 C590 1.533 1_565 S
C3119 C1613 1.459 . S
C3139 C1693 1.605 . S
C3133 C615 1.661 . S
C3159 C1489 1.399 . S
C3153 C626 1.425 . S
C3179 C1551 1.420 . S
C3173 C554 1.489 . S
C3193 C579 1.412 . S
C3199 C1445 1.365 . S
