# Generated by pormake.
# Topology nom, (4,4)-cn, num edge types: 1
# Building blocks:
#     Node 0, Type 0, BuildingBlock: GIZVER_clean_linker_0, # of connection points: 4
#     Node 1, Type 0, BuildingBlock: GIZVER_clean_linker_0, # of connection points: 4
#     Node 2, Type 0, BuildingBlock: GIZVER_clean_linker_0, # of connection points: 4
#     Node 3, Type 0, BuildingBlock: GIZVER_clean_linker_0, # of connection points: 4
#     Node 4, Type 0, BuildingBlock: GIZVER_clean_linker_0, # of connection points: 4
#     Node 5, Type 0, BuildingBlock: GIZVER_clean_linker_0, # of connection points: 4
#     Node 6, Type 1, BuildingBlock: QUQFOY_clean_sbu_3, # of connection points: 4
#     Node 7, Type 1, BuildingBlock: QUQFOY_clean_sbu_3, # of connection points: 4
#     Node 8, Type 1, BuildingBlock: QUQFOY_clean_sbu_3, # of connection points: 4
#     Node 9, Type 1, BuildingBlock: QUQFOY_clean_sbu_3, # of connection points: 4
#     Node 10, Type 1, BuildingBlock: QUQFOY_clean_sbu_3, # of connection points: 4
#     Node 11, Type 1, BuildingBlock: QUQFOY_clean_sbu_3, # of connection points: 4
#     Edge 12, Type (0, 1), BuildingBlock: UVAHIK_clean_linker_0, # of connection points: 2
#     Edge 13, Type (0, 1), BuildingBlock: UVAHIK_clean_linker_0, # of connection points: 2
#     Edge 14, Type (0, 1), BuildingBlock: UVAHIK_clean_linker_0, # of connection points: 2
#     Edge 15, Type (0, 1), BuildingBlock: UVAHIK_clean_linker_0, # of connection points: 2
#     Edge 16, Type (0, 1), BuildingBlock: UVAHIK_clean_linker_0, # of connection points: 2
#     Edge 17, Type (0, 1), BuildingBlock: UVAHIK_clean_linker_0, # of connection points: 2
#     Edge 18, Type (0, 1), BuildingBlock: UVAHIK_clean_linker_0, # of connection points: 2
#     Edge 19, Type (0, 1), BuildingBlock: UVAHIK_clean_linker_0, # of connection points: 2
#     Edge 20, Type (0, 1), BuildingBlock: UVAHIK_clean_linker_0, # of connection points: 2
#     Edge 21, Type (0, 1), BuildingBlock: UVAHIK_clean_linker_0, # of connection points: 2
#     Edge 22, Type (0, 1), BuildingBlock: UVAHIK_clean_linker_0, # of connection points: 2
#     Edge 23, Type (0, 1), BuildingBlock: UVAHIK_clean_linker_0, # of connection points: 2
#     Edge 24, Type (0, 1), BuildingBlock: UVAHIK_clean_linker_0, # of connection points: 2
#     Edge 25, Type (0, 1), BuildingBlock: UVAHIK_clean_linker_0, # of connection points: 2
#     Edge 26, Type (0, 1), BuildingBlock: UVAHIK_clean_linker_0, # of connection points: 2
#     Edge 27, Type (0, 1), BuildingBlock: UVAHIK_clean_linker_0, # of connection points: 2
#     Edge 28, Type (0, 1), BuildingBlock: UVAHIK_clean_linker_0, # of connection points: 2
#     Edge 29, Type (0, 1), BuildingBlock: UVAHIK_clean_linker_0, # of connection points: 2
#     Edge 30, Type (0, 1), BuildingBlock: UVAHIK_clean_linker_0, # of connection points: 2
#     Edge 31, Type (0, 1), BuildingBlock: UVAHIK_clean_linker_0, # of connection points: 2
#     Edge 32, Type (0, 1), BuildingBlock: UVAHIK_clean_linker_0, # of connection points: 2
#     Edge 33, Type (0, 1), BuildingBlock: UVAHIK_clean_linker_0, # of connection points: 2
#     Edge 34, Type (0, 1), BuildingBlock: UVAHIK_clean_linker_0, # of connection points: 2
#     Edge 35, Type (0, 1), BuildingBlock: UVAHIK_clean_linker_0, # of connection points: 2
# Relax obj value: 0.004
# Max RMSD: 0.067
# Mean RMSD: 0.046
data_MOF--net-nom--node1-QUQFOY_clean_sbu_3--node2-GIZVER_clean_linker_0--edge1-UVAHIK_clean_linker_0
_symmetry_space_group_name_H-M    P1
_symmetry_Int_Tables_number       1
_symmetry_cell_setting            triclinic
loop_
_symmetry_equiv_pos_as_xyz
'x, y, z'
_cell_length_a     60.077228
_cell_length_b     61.332035
_cell_length_c     59.576759
_cell_angle_alpha  90.035955
_cell_angle_beta   89.999888
_cell_angle_gamma 120.0237
loop_
_atom_site_label
_atom_site_type_symbol
_atom_site_fract_x
_atom_site_fract_y
_atom_site_fract_z
_atom_type_partial_charge
H0 H 0.96994 0.54083 0.34539 0.0
H1 H 0.98327 0.54517 0.27396 0.0
H2 H 0.91289 0.4857 0.30145 0.0
H3 H 0.00357 0.58007 0.3277 0.0
H4 H 0.00939 0.5814 0.29818 0.0
H5 H 0.01417 0.55088 0.35164 0.0
H6 H 0.08444 0.55454 0.33159 0.0
H7 H 0.04644 0.58048 0.28675 0.0
C8 C 0.96398 0.53299 0.32871 0.0
C9 C 0.93997 0.51122 0.3257 0.0
C10 C 0.98002 0.54503 0.31014 0.0
C11 C 0.97152 0.5354 0.28841 0.0
C12 C 0.9471 0.51422 0.28525 0.0
C13 C 0.9319 0.5019 0.30397 0.0
C14 C 0.0051 0.56931 0.31331 0.0
C15 C 0.02686 0.56433 0.31791 0.0
C16 C 0.02853 0.55474 0.33888 0.0
C17 C 0.04935 0.5513 0.34387 0.0
C18 C 0.06832 0.55711 0.32756 0.0
C19 C 0.0682 0.56862 0.30722 0.0
C20 C 0.04686 0.57143 0.30221 0.0
H21 H 0.4336 0.96749 0.50961 0.0
H22 H 0.4544 0.98763 0.44044 0.0
H23 H 0.44434 0.9177 0.46629 0.0
H24 H 0.42802 0.00038 0.49218 0.0
H25 H 0.43341 0.00651 0.46282 0.0
H26 H 0.46459 0.01967 0.51905 0.0
H27 H 0.52965 0.08914 0.49725 0.0
H28 H 0.47469 0.03934 0.44889 0.0
C29 C 0.43913 0.96365 0.49341 0.0
C30 C 0.43969 0.94129 0.49016 0.0
C31 C 0.44474 0.98059 0.47553 0.0
C32 C 0.45071 0.97483 0.45431 0.0
C33 C 0.4506 0.95211 0.45069 0.0
C34 C 0.44567 0.93581 0.46893 0.0
C35 C 0.44174 0.00343 0.47836 0.0
C36 C 0.4672 0.02661 0.48336 0.0
C37 C 0.47593 0.03233 0.50566 0.0
C38 C 0.49862 0.0548 0.51078 0.0
C39 C 0.51288 0.07114 0.49328 0.0
C40 C 0.50447 0.06582 0.47095 0.0
C41 C 0.48162 0.04339 0.46604 0.0
H42 H 0.44479 0.47762 0.62618 0.0
H43 H 0.44903 0.47932 0.69815 0.0
H44 H 0.45246 0.54167 0.66235 0.0
H45 H 0.42959 0.43889 0.64826 0.0
H46 H 0.4326 0.44001 0.67802 0.0
H47 H 0.4657 0.44632 0.62392 0.0
H48 H 0.52446 0.43617 0.65479 0.0
H49 H 0.47212 0.44674 0.69611 0.0
C50 C 0.44762 0.48777 0.64179 0.0
C51 C 0.44863 0.51119 0.6417 0.0
C52 C 0.44832 0.47646 0.66212 0.0
C53 C 0.45025 0.48885 0.68251 0.0
C54 C 0.45138 0.5123 0.68275 0.0
C55 C 0.45186 0.52374 0.66221 0.0
C56 C 0.4428 0.44961 0.6623 0.0
C57 C 0.46705 0.44818 0.66022 0.0
C58 C 0.47588 0.44609 0.63885 0.0
C59 C 0.49635 0.44136 0.6369 0.0
C60 C 0.50899 0.44038 0.65627 0.0
C61 C 0.50046 0.44235 0.6776 0.0
C62 C 0.47946 0.44628 0.6796 0.0
H63 H 0.97683 0.44506 0.77727 0.0
H64 H 0.99707 0.46391 0.84679 0.0
H65 H 0.92345 0.44902 0.82279 0.0
H66 H 0.01326 0.44375 0.79266 0.0
H67 H 0.01832 0.44601 0.82231 0.0
H68 H 0.0256 0.48522 0.7712 0.0
H69 H 0.09759 0.54678 0.79389 0.0
H70 H 0.05499 0.48205 0.83614 0.0
C71 C 0.97224 0.44911 0.79379 0.0
C72 C 0.94814 0.44699 0.79767 0.0
C73 C 0.99008 0.45545 0.81141 0.0
C74 C 0.98376 0.45984 0.83302 0.0
C75 C 0.95991 0.45806 0.83702 0.0
C76 C 0.94246 0.45195 0.81927 0.0
C77 C 0.01477 0.45517 0.80771 0.0
C78 C 0.0372 0.48147 0.80456 0.0
C79 C 0.04002 0.49415 0.7842 0.0
C80 C 0.06195 0.51765 0.78013 0.0
C81 C 0.0806 0.52873 0.79705 0.0
C82 C 0.07873 0.51597 0.81717 0.0
C83 C 0.05658 0.49248 0.82098 0.0
H84 H 0.57352 0.04856 0.01063 0.0
H85 H 0.5594 0.03083 0.94033 0.0
H86 H 0.56394 0.09838 0.96632 0.0
H87 H 0.58265 0.01771 -0.00612 0.0
H88 H 0.5806 0.0131 0.9642 0.0
H89 H 0.54249 0.99695 0.0173 0.0
H90 H 0.48327 0.92597 0.99122 0.0
H91 H 0.54305 0.97816 0.94768 0.0
C92 C 0.56925 0.05283 -0.00592 0.0
C93 C 0.56784 0.07477 0.99076 0.0
C94 C 0.5661 0.03687 0.9759 0.0
C95 C 0.56137 0.04294 0.95435 0.0
C96 C 0.56041 0.0651 0.95068 0.0
C97 C 0.56325 0.08058 0.96909 0.0
C98 C 0.57025 0.01477 0.979 0.0
C99 C 0.54504 0.99066 0.982 0.0
C100 C 0.53347 0.9842 0.00331 0.0
C101 C 0.5111 0.96087 0.00683 0.0
C102 C 0.49983 0.94452 0.98855 0.0
C103 C 0.5112 0.95061 0.96726 0.0
C104 C 0.53381 0.97373 0.96399 0.0
H105 H 0.58251 0.54338 0.13178 0.0
H106 H 0.5594 0.53948 0.20071 0.0
H107 H 0.5666 0.479 0.17192 0.0
H108 H 0.58853 0.58101 0.15101 0.0
H109 H 0.58153 0.5801 0.18026 0.0
H110 H 0.55211 0.56341 0.12288 0.0
H111 H 0.48733 0.57074 0.14242 0.0
H112 H 0.54119 0.57557 0.1923 0.0
C113 C 0.57592 0.53303 0.14741 0.0
C114 C 0.5743 0.50947 0.14947 0.0
C115 C 0.57015 0.54377 0.16575 0.0
C116 C 0.56291 0.53082 0.18629 0.0
C117 C 0.56142 0.50734 0.18858 0.0
C118 C 0.56647 0.49652 0.16993 0.0
C119 C 0.57397 0.56996 0.16408 0.0
C120 C 0.54908 0.569 0.15829 0.0
C121 C 0.54074 0.56562 0.13585 0.0
C122 C 0.51826 0.56592 0.13003 0.0
C123 C 0.50394 0.56915 0.14696 0.0
C124 C 0.51203 0.57272 0.16941 0.0
C125 C 0.5346 0.57247 0.17504 0.0
C126 C 0.69277 0.41515 0.41504 0.0
O127 O 0.68771 0.43086 0.42425 0.0
Cd128 Cd 0.6456 0.42238 0.43458 0.0
O129 O 0.67475 0.39302 0.41015 0.0
Cd130 Cd 0.62697 0.36769 0.41346 0.0
C131 C 0.61587 0.40778 0.38308 0.0
O132 O 0.625 0.38176 0.45122 0.0
O133 O 0.58859 0.36091 0.43453 0.0
O134 O 0.63296 0.3316 0.41989 0.0
C135 C 0.60085 0.37212 0.45211 0.0
O136 O 0.62276 0.42165 0.40053 0.0
C137 C 0.61476 0.31653 0.40717 0.0
O138 O 0.61798 0.38812 0.38207 0.0
O139 O 0.60246 0.32535 0.39691 0.0
C140 C 0.28523 0.59053 0.55298 0.0
O141 O 0.26365 0.57352 0.54547 0.0
Cd142 Cd 0.2268 0.57667 0.53603 0.0
O143 O 0.28937 0.6128 0.55669 0.0
Cd144 Cd 0.26492 0.63604 0.55256 0.0
C145 C 0.21475 0.59685 0.58643 0.0
O146 O 0.24468 0.61596 0.51779 0.0
O147 O 0.23122 0.63963 0.53148 0.0
O148 O 0.3026 0.67418 0.53904 0.0
C149 C 0.22966 0.6247 0.51605 0.0
O150 O 0.20805 0.5802 0.57112 0.0
C151 C 0.30262 0.68853 0.55443 0.0
O152 O 0.23536 0.61811 0.58465 0.0
O153 O 0.28539 0.67835 0.56944 0.0
C154 C 0.69607 0.28568 0.71608 0.0
O155 O 0.69099 0.26507 0.70673 0.0
Cd156 Cd 0.64954 0.22958 0.69944 0.0
O157 O 0.67801 0.28951 0.72251 0.0
Cd158 Cd 0.62968 0.26665 0.72197 0.0
C159 C 0.62458 0.21775 0.75332 0.0
O160 O 0.62495 0.24708 0.68584 0.0
O161 O 0.58956 0.2341 0.70383 0.0
O162 O 0.62884 0.30463 0.71145 0.0
C163 C 0.60085 0.23257 0.68643 0.0
O164 O 0.63266 0.21136 0.73616 0.0
C165 C 0.61596 0.30478 0.7283 0.0
O166 O 0.62284 0.23766 0.75321 0.0
O167 O 0.60979 0.28736 0.74266 0.0
C168 C 0.32053 0.59997 0.92068 0.0
O169 O 0.32443 0.58378 0.93046 0.0
Cd170 Cd 0.366 0.58851 0.93781 0.0
O171 O 0.33934 0.62119 0.91466 0.0
Cd172 Cd 0.38716 0.64507 0.91691 0.0
C173 C 0.39212 0.60218 0.88449 0.0
O174 O 0.39149 0.6294 0.95297 0.0
O175 O 0.42666 0.65009 0.93434 0.0
O176 O 0.3873 0.68318 0.92851 0.0
C177 C 0.41551 0.63795 0.95196 0.0
O178 O 0.38461 0.58766 0.90153 0.0
C179 C 0.40129 0.6969 0.91253 0.0
O180 O 0.39289 0.62334 0.88483 0.0
O181 O 0.40842 0.68637 0.8981 0.0
C182 C 0.72709 0.4187 0.05154 0.0
O183 O 0.74642 0.43459 0.04031 0.0
Cd184 Cd 0.78317 0.43087 0.03127 0.0
O185 O 0.72517 0.39799 0.05803 0.0
Cd186 Cd 0.74861 0.37405 0.05372 0.0
C187 C 0.79902 0.41828 0.08389 0.0
O188 O 0.76476 0.38957 0.01664 0.0
O189 O 0.7801 0.36807 0.03162 0.0
O190 O 0.70625 0.33729 0.04788 0.0
C191 C 0.77979 0.38081 0.01502 0.0
O192 O 0.80432 0.43285 0.06703 0.0
C193 C 0.70989 0.32261 0.0604 0.0
O194 O 0.7791 0.39639 0.08398 0.0
O195 O 0.73151 0.33193 0.07025 0.0
C196 C 0.31604 0.72984 0.21752 0.0
O197 O 0.31931 0.74926 0.20703 0.0
Cd198 Cd 0.36012 0.78579 0.19979 0.0
O199 O 0.33524 0.72804 0.22424 0.0
Cd200 Cd 0.3833 0.75192 0.22189 0.0
C201 C 0.38682 0.79973 0.25327 0.0
O202 O 0.38533 0.76937 0.18501 0.0
O203 O 0.42167 0.78423 0.20181 0.0
O204 O 0.37982 0.71119 0.21462 0.0
C205 C 0.40933 0.78444 0.18465 0.0
O206 O 0.37771 0.80522 0.23625 0.0
C207 C 0.39769 0.71429 0.22791 0.0
O208 O 0.38956 0.7804 0.25317 0.0
O209 O 0.40875 0.73485 0.23883 0.0
C210 C 0.11626 0.5914 0.30326 0.0
C211 C 0.09186 0.58051 0.29298 0.0
C212 C 0.13865 0.60325 0.29054 0.0
C213 C 0.16701 0.64218 0.24379 0.0
H214 H 0.21982 0.62371 0.24904 0.0
C215 C 0.26895 0.70677 0.20891 0.0
C216 C 0.28956 0.70921 0.22197 0.0
C217 C 0.24377 0.68791 0.21356 0.0
C218 C 0.20542 0.6293 0.24752 0.0
H219 H 0.07234 0.57414 0.26092 0.0
H220 H 0.11202 0.59641 0.23873 0.0
H221 H 0.17703 0.59597 0.2643 0.0
H222 H 0.29998 0.69363 0.24999 0.0
H223 H 0.25607 0.66152 0.25883 0.0
H224 H 0.19559 0.67637 0.22868 0.0
C225 C 0.11331 0.59487 0.25674 0.0
C226 C 0.18084 0.61322 0.25601 0.0
C227 C 0.09068 0.58232 0.26947 0.0
C228 C 0.28451 0.69215 0.23956 0.0
C229 C 0.25927 0.67357 0.24449 0.0
C230 C 0.19173 0.65853 0.23566 0.0
C231 C 0.13742 0.60528 0.26725 0.0
C232 C 0.16162 0.61979 0.25461 0.0
C233 C 0.23849 0.67129 0.23166 0.0
C234 C 0.21147 0.65259 0.23791 0.0
H235 H 0.11829 0.59151 0.32132 0.0
H236 H 0.15706 0.61167 0.29905 0.0
H237 H 0.15254 0.64777 0.24284 0.0
H238 H 0.27227 0.71945 0.19503 0.0
H239 H 0.22844 0.68648 0.20298 0.0
C240 C 0.54509 0.09892 0.45306 0.0
C241 C 0.51809 0.08568 0.45379 0.0
C242 C 0.5583 0.12174 0.44155 0.0
C243 C 0.55177 0.16604 0.40311 0.0
H244 H 0.6009 0.21635 0.44395 0.0
C245 C 0.58281 0.27168 0.39774 0.0
C246 C 0.60725 0.28963 0.40568 0.0
C247 C 0.57452 0.24595 0.39902 0.0
C248 C 0.58776 0.20265 0.43199 0.0
H249 H 0.48375 0.0848 0.44141 0.0
H250 H 0.50681 0.12471 0.42125 0.0
H251 H 0.58202 0.17216 0.45308 0.0
H252 H 0.6429 0.29483 0.41964 0.0
H253 H 0.62891 0.25012 0.42112 0.0
H254 H 0.55725 0.19677 0.38219 0.0
C255 C 0.5178 0.11742 0.42949 0.0
C256 C 0.57686 0.17719 0.43728 0.0
C257 C 0.50456 0.09451 0.44101 0.0
C258 C 0.62381 0.28142 0.41368 0.0
C259 C 0.6157 0.25575 0.41465 0.0
C260 C 0.56288 0.19163 0.39768 0.0
C261 C 0.54478 0.13185 0.43056 0.0
C262 C 0.55843 0.15858 0.42312 0.0
C263 C 0.59065 0.23761 0.40801 0.0
C264 C 0.5807 0.2103 0.41228 0.0
H265 H 0.55598 0.09237 0.46258 0.0
H266 H 0.57911 0.13217 0.44228 0.0
H267 H 0.53774 0.15212 0.3918 0.0
H268 H 0.5696 0.27745 0.39151 0.0
H269 H 0.55504 0.23263 0.39395 0.0
C270 C 0.41929 0.50294 0.60896 0.0
C271 C 0.44067 0.52017 0.62163 0.0
C272 C 0.40618 0.51132 0.59532 0.0
C273 C 0.40505 0.56846 0.57439 0.0
H274 H 0.33234 0.52678 0.58731 0.0
C275 C 0.32967 0.60166 0.56607 0.0
C276 C 0.30556 0.58402 0.55719 0.0
C277 C 0.34827 0.59477 0.57044 0.0
C278 C 0.35253 0.5385 0.58325 0.0
H279 H 0.46734 0.55993 0.62704 0.0
H280 H 0.44381 0.57446 0.60415 0.0
H281 H 0.36179 0.51279 0.59876 0.0
H282 H 0.28255 0.54554 0.54522 0.0
H283 H 0.31475 0.53372 0.55276 0.0
H284 H 0.39543 0.59461 0.55956 0.0
C285 C 0.43707 0.55447 0.60471 0.0
C286 C 0.36948 0.53038 0.58968 0.0
C287 C 0.45048 0.5461 0.61805 0.0
C288 C 0.30074 0.55959 0.55229 0.0
C289 C 0.31922 0.55275 0.55666 0.0
C290 C 0.38798 0.57668 0.56803 0.0
C291 C 0.41387 0.53706 0.59431 0.0
C292 C 0.39599 0.54521 0.58539 0.0
C293 C 0.34304 0.57009 0.56608 0.0
C294 C 0.36152 0.56175 0.57243 0.0
H295 H 0.41114 0.48284 0.6111 0.0
H296 H 0.3889 0.49742 0.58685 0.0
H297 H 0.42532 0.58033 0.57076 0.0
H298 H 0.33405 0.62067 0.56994 0.0
H299 H 0.36641 0.60849 0.57784 0.0
C300 C 0.90951 0.44473 0.77906 0.0
C301 C 0.92728 0.4362 0.78056 0.0
C302 C 0.88647 0.43084 0.7673 0.0
C303 C 0.84299 0.36484 0.75105 0.0
H304 H 0.80328 0.39179 0.72361 0.0
C305 C 0.74301 0.3 0.71377 0.0
C306 C 0.72339 0.30502 0.71989 0.0
C307 C 0.76872 0.31744 0.71817 0.0
C308 C 0.81415 0.38404 0.73133 0.0
H309 H 0.93579 0.40762 0.76899 0.0
H310 H 0.89622 0.38408 0.74761 0.0
H311 H 0.8479 0.42036 0.73466 0.0
H312 H 0.71564 0.3328 0.73488 0.0
H313 H 0.76079 0.36335 0.74263 0.0
H314 H 0.80931 0.32863 0.74788 0.0
C315 C 0.89965 0.40103 0.75624 0.0
C316 C 0.8397 0.40037 0.73764 0.0
C317 C 0.92259 0.41479 0.7682 0.0
C318 C 0.73024 0.32829 0.73 0.0
C319 C 0.7561 0.34585 0.73432 0.0
C320 C 0.81761 0.34858 0.7446 0.0
C321 C 0.88077 0.40823 0.75652 0.0
C322 C 0.8544 0.39099 0.74777 0.0
C323 C 0.77557 0.34042 0.72873 0.0
C324 C 0.80282 0.35797 0.73483 0.0
H325 H 0.91276 0.46142 0.78807 0.0
H326 H 0.87248 0.43705 0.76792 0.0
H327 H 0.85336 0.35691 0.75933 0.0
H328 H 0.73853 0.28238 0.70582 0.0
H329 H 0.7833 0.31285 0.71338 0.0
C330 C 0.51545 0.91902 0.94439 0.0
C331 C 0.50126 0.93073 0.94993 0.0
C332 C 0.50368 0.89584 0.93325 0.0
C333 C 0.43825 0.84085 0.92698 0.0
H334 H 0.47536 0.81356 0.89553 0.0
C335 C 0.42369 0.7389 0.89307 0.0
C336 C 0.40977 0.72408 0.91153 0.0
C337 C 0.43286 0.76488 0.89295 0.0
C338 C 0.46447 0.82086 0.90393 0.0
H339 H 0.46449 0.92881 0.94669 0.0
H340 H 0.44422 0.88912 0.92594 0.0
H341 H 0.49553 0.8588 0.90121 0.0
H342 H 0.39432 0.72486 0.94423 0.0
H343 H 0.41083 0.76989 0.94438 0.0
H344 H 0.40703 0.80307 0.92931 0.0
C345 C 0.46413 0.89715 0.93092 0.0
C346 C 0.47622 0.84687 0.90749 0.0
C347 C 0.47578 0.92007 0.94249 0.0
C348 C 0.40485 0.73568 0.92967 0.0
C349 C 0.41418 0.76159 0.92966 0.0
C350 C 0.4264 0.81496 0.92312 0.0
C351 C 0.47751 0.88406 0.92716 0.0
C352 C 0.46361 0.85716 0.91975 0.0
C353 C 0.42846 0.77661 0.91137 0.0
C354 C 0.43966 0.80449 0.91229 0.0
H355 H 0.53503 0.92675 0.95031 0.0
H356 H 0.51467 0.88641 0.93097 0.0
H357 H 0.42784 0.84777 0.93668 0.0
H358 H 0.42771 0.73047 0.87879 0.0
H359 H 0.44349 0.77575 0.87846 0.0
C360 C 0.5708 0.47487 0.12466 0.0
C361 C 0.58468 0.50003 0.13182 0.0
C362 C 0.58251 0.46481 0.11116 0.0
C363 C 0.64301 0.48237 0.07897 0.0
H364 H 0.62596 0.41438 0.09438 0.0
C365 C 0.70203 0.44012 0.04299 0.0
C366 C 0.70674 0.42461 0.05718 0.0
C367 C 0.68379 0.44692 0.04875 0.0
C368 C 0.6312 0.43348 0.09002 0.0
H369 H 0.62133 0.5346 0.13008 0.0
H370 H 0.64208 0.51707 0.10735 0.0
H371 H 0.60085 0.43167 0.11 0.0
H372 H 0.69589 0.40373 0.08837 0.0
H373 H 0.66514 0.41669 0.09919 0.0
H374 H 0.67465 0.48499 0.06055 0.0
C375 C 0.62194 0.50511 0.11135 0.0
C376 C 0.61639 0.4433 0.09865 0.0
C377 C 0.61007 0.51525 0.12447 0.0
C378 C 0.69253 0.41562 0.07707 0.0
C379 C 0.67473 0.42294 0.08315 0.0
C380 C 0.65815 0.47276 0.07074 0.0
C381 C 0.60854 0.47956 0.10496 0.0
C382 C 0.62237 0.46807 0.09359 0.0
C383 C 0.67028 0.43894 0.06918 0.0
C384 C 0.65275 0.44831 0.07643 0.0
H385 H 0.55114 0.46279 0.13011 0.0
H386 H 0.57133 0.44526 0.10614 0.0
H387 H 0.64793 0.5013 0.07423 0.0
H388 H 0.71247 0.44701 0.02736 0.0
H389 H 0.68049 0.45863 0.0372 0.0
C390 C 0.44609 0.91213 0.51499 0.0
C391 C 0.43035 0.92149 0.50754 0.0
C392 C 0.4356 0.8896 0.52707 0.0
C393 C 0.37413 0.83844 0.55257 0.0
H394 H 0.40111 0.79627 0.53197 0.0
C395 C 0.33679 0.72704 0.53532 0.0
C396 C 0.321 0.71598 0.55411 0.0
C397 C 0.3528 0.75311 0.53405 0.0
C398 C 0.3932 0.8077 0.53783 0.0
H399 H 0.39172 0.91555 0.50758 0.0
H400 H 0.37307 0.87581 0.52782 0.0
H401 H 0.42365 0.84059 0.52272 0.0
H402 H 0.31026 0.72355 0.5867 0.0
H403 H 0.33882 0.76912 0.58479 0.0
H404 H 0.34256 0.80495 0.56615 0.0
C405 C 0.39364 0.88601 0.52514 0.0
C406 C 0.40646 0.83339 0.53287 0.0
C407 C 0.40428 0.90883 0.51348 0.0
C408 C 0.32213 0.73153 0.57194 0.0
C409 C 0.33839 0.75768 0.57077 0.0
C410 C 0.36064 0.81261 0.55724 0.0
C411 C 0.40898 0.87558 0.53136 0.0
C412 C 0.39681 0.84907 0.53968 0.0
C413 C 0.35372 0.76885 0.55166 0.0
C414 C 0.36965 0.79677 0.54938 0.0
H415 H 0.46628 0.92164 0.51052 0.0
H416 H 0.44821 0.88262 0.53211 0.0
H417 H 0.36632 0.84992 0.55853 0.0
H418 H 0.33627 0.71563 0.52122 0.0
H419 H 0.36384 0.76092 0.51884 0.0
C420 C 0.53665 0.4509 0.70322 0.0
C421 C 0.51092 0.43536 0.69691 0.0
C422 C 0.54953 0.44099 0.71531 0.0
C423 C 0.57699 0.41152 0.7187 0.0
H424 H 0.54347 0.34904 0.75219 0.0
C425 C 0.61091 0.33971 0.71233 0.0
C426 C 0.60757 0.32366 0.73039 0.0
C427 C 0.60155 0.35642 0.71345 0.0
C428 C 0.55342 0.36672 0.74321 0.0
H429 H 0.47791 0.39795 0.69934 0.0
H430 H 0.50026 0.38033 0.71966 0.0
H431 H 0.52233 0.37381 0.74817 0.0
H432 H 0.59246 0.31313 0.76414 0.0
H433 H 0.57669 0.34288 0.76638 0.0
H434 H 0.60825 0.40473 0.71409 0.0
C435 C 0.51061 0.4003 0.7161 0.0
C436 C 0.54108 0.38082 0.74062 0.0
C437 C 0.49764 0.41038 0.70445 0.0
C438 C 0.59523 0.32519 0.74989 0.0
C439 C 0.58606 0.34215 0.75111 0.0
C440 C 0.58946 0.39768 0.7216 0.0
C441 C 0.53711 0.41514 0.72066 0.0
C442 C 0.55224 0.40292 0.72756 0.0
C443 C 0.58884 0.35781 0.73278 0.0
C444 C 0.57742 0.37455 0.73308 0.0
H445 H 0.54731 0.47018 0.69734 0.0
H446 H 0.56969 0.45326 0.71912 0.0
H447 H 0.58631 0.42824 0.70835 0.0
H448 H 0.62018 0.33892 0.69699 0.0
H449 H 0.6036 0.36767 0.69876 0.0
C450 C 0.09804 0.52259 0.85617 0.0
C451 C 0.10121 0.52604 0.83275 0.0
C452 C 0.11951 0.53156 0.87034 0.0
C453 C 0.18526 0.57945 0.8768 0.0
H454 H 0.20204 0.53098 0.90146 0.0
C455 C 0.28906 0.60682 0.89866 0.0
C456 C 0.29387 0.59369 0.91548 0.0
C457 C 0.26386 0.5997 0.89257 0.0
C458 C 0.19751 0.54489 0.89527 0.0
H459 H 0.12983 0.5409 0.80608 0.0
H460 H 0.16675 0.55758 0.83085 0.0
H461 H 0.15998 0.51638 0.88443 0.0
H462 H 0.27601 0.56354 0.93989 0.0
H463 H 0.23206 0.55172 0.9299 0.0
H464 H 0.22257 0.60805 0.8874 0.0
C465 C 0.14765 0.54805 0.83813 0.0
C466 C 0.17339 0.53644 0.88548 0.0
C467 C 0.12638 0.53866 0.82399 0.0
C468 C 0.27292 0.57386 0.92667 0.0
C469 C 0.2477 0.567 0.92084 0.0
C470 C 0.20918 0.58798 0.88695 0.0
C471 C 0.14442 0.54451 0.86134 0.0
C472 C 0.16742 0.55362 0.87563 0.0
C473 C 0.24279 0.57952 0.90342 0.0
C474 C 0.216 0.57076 0.89563 0.0
H475 H 0.07903 0.51308 0.86356 0.0
H476 H 0.11671 0.52855 0.88827 0.0
H477 H 0.18096 0.59299 0.86923 0.0
H478 H 0.30477 0.62208 0.88962 0.0
H479 H 0.26102 0.60953 0.87878 0.0
C480 C 0.56015 0.10584 0.01154 0.0
C481 C 0.57458 0.09372 0.00882 0.0
C482 C 0.56986 0.12794 0.02414 0.0
C483 C 0.62252 0.17185 0.06216 0.0
H484 H 0.62085 0.22271 0.02477 0.0
C485 C 0.69752 0.27791 0.06869 0.0
C486 C 0.69043 0.29558 0.06211 0.0
C487 C 0.67986 0.25209 0.06732 0.0
C488 C 0.6211 0.20883 0.03582 0.0
H489 H 0.60937 0.09394 0.01877 0.0
H490 H 0.6264 0.13261 0.04079 0.0
H491 H 0.59532 0.17881 0.01447 0.0
H492 H 0.65883 0.30024 0.05066 0.0
H493 H 0.62776 0.25536 0.04913 0.0
H494 H 0.64883 0.20214 0.08329 0.0
C495 C 0.60753 0.12499 0.03329 0.0
C496 C 0.60639 0.18352 0.02986 0.0
C497 C 0.59777 0.1028 0.02069 0.0
C498 C 0.66494 0.28703 0.05552 0.0
C499 C 0.64718 0.26127 0.05452 0.0
C500 C 0.63713 0.19727 0.06829 0.0
C501 C 0.59423 0.13842 0.03423 0.0
C502 C 0.60727 0.16475 0.04269 0.0
C503 C 0.65463 0.24341 0.05964 0.0
C504 C 0.63699 0.21614 0.05492 0.0
H505 H 0.54206 0.09904 0.00278 0.0
H506 H 0.55892 0.13759 0.02495 0.0
H507 H 0.62346 0.15778 0.07245 0.0
H508 H 0.71707 0.28397 0.07382 0.0
H509 H 0.68644 0.239 0.07121 0.0
C510 C 0.47126 0.56666 0.18637 0.0
C511 C 0.49827 0.57982 0.18591 0.0
C512 C 0.45797 0.57691 0.19716 0.0
C513 C 0.46387 0.62836 0.23418 0.0
H514 H 0.4154 0.62957 0.19196 0.0
C515 C 0.43054 0.70209 0.23784 0.0
C516 C 0.40607 0.69541 0.2295 0.0
C517 C 0.43956 0.68502 0.23682 0.0
C518 C 0.42836 0.62904 0.20428 0.0
H519 H 0.53251 0.61289 0.19805 0.0
H520 H 0.50927 0.63085 0.21698 0.0
H521 H 0.43481 0.6041 0.18391 0.0
H522 H 0.37115 0.6651 0.21503 0.0
H523 H 0.38637 0.63506 0.21404 0.0
H524 H 0.4576 0.6537 0.25441 0.0
C525 C 0.49836 0.61257 0.20906 0.0
C526 C 0.43956 0.61438 0.19961 0.0
C527 C 0.5117 0.60226 0.19826 0.0
C528 C 0.39025 0.67091 0.2213 0.0
C529 C 0.39907 0.65374 0.22061 0.0
C530 C 0.45243 0.64292 0.23898 0.0
C531 C 0.4714 0.60056 0.20769 0.0
C532 C 0.45769 0.61409 0.21432 0.0
C533 C 0.42414 0.66079 0.22771 0.0
C534 C 0.43478 0.64372 0.22391 0.0
H535 H 0.46045 0.54917 0.17718 0.0
H536 H 0.43717 0.56696 0.19623 0.0
H537 H 0.4777 0.62842 0.24587 0.0
H538 H 0.44319 0.72088 0.24424 0.0
H539 H 0.45904 0.69128 0.24225 0.0
C540 C 0.9073 0.47335 0.34657 0.0
C541 C 0.92139 0.49968 0.34436 0.0
C542 C 0.88509 0.46189 0.3597 0.0
C543 C 0.84485 0.47336 0.40019 0.0
H544 H 0.7887 0.42247 0.36471 0.0
C545 C 0.73955 0.44773 0.41354 0.0
C546 C 0.71989 0.42267 0.41024 0.0
C547 C 0.76512 0.45501 0.40889 0.0
C548 C 0.80411 0.43625 0.37512 0.0
H549 H 0.92467 0.53474 0.35561 0.0
H550 H 0.88583 0.51478 0.37856 0.0
H551 H 0.83267 0.43869 0.35231 0.0
H552 H 0.71185 0.38549 0.39994 0.0
H553 H 0.75655 0.39815 0.39207 0.0
H554 H 0.81608 0.47128 0.42274 0.0
C555 C 0.89196 0.50294 0.37028 0.0
C556 C 0.82941 0.44556 0.36801 0.0
C557 C 0.91426 0.51442 0.35718 0.0
C558 C 0.72648 0.40499 0.40248 0.0
C559 C 0.75211 0.41227 0.39793 0.0
C560 C 0.81949 0.46395 0.40738 0.0
C561 C 0.87649 0.47654 0.37081 0.0
C562 C 0.85006 0.46455 0.38023 0.0
C563 C 0.77173 0.43742 0.40092 0.0
C564 C 0.79879 0.44564 0.39467 0.0
H565 H 0.91257 0.46159 0.337 0.0
H566 H 0.87389 0.44152 0.36018 0.0
H567 H 0.86036 0.48782 0.41007 0.0
H568 H 0.73518 0.46187 0.41946 0.0
H569 H 0.77962 0.47462 0.41101 0.0
C570 C 0.06427 0.53043 0.37125 0.0
C571 C 0.05465 0.54674 0.36715 0.0
C572 C 0.07747 0.53242 0.39112 0.0
C573 C 0.09804 0.56517 0.44638 0.0
H574 H 0.16398 0.57332 0.42894 0.0
C575 C 0.19049 0.62259 0.49894 0.0
C576 C 0.20787 0.61362 0.50015 0.0
C577 C 0.16915 0.61106 0.48468 0.0
C578 C 0.14558 0.57071 0.4343 0.0
H579 H 0.04872 0.57588 0.38159 0.0
H580 H 0.07173 0.57937 0.41622 0.0
H581 H 0.12875 0.55604 0.40233 0.0
H582 H 0.21641 0.5854 0.48755 0.0
H583 H 0.17916 0.56516 0.46301 0.0
H584 H 0.11529 0.58049 0.47829 0.0
C585 C 0.06908 0.56501 0.4042 0.0
C586 C 0.12528 0.56068 0.41903 0.0
C587 C 0.05579 0.56295 0.38435 0.0
C588 C 0.20352 0.59294 0.48683 0.0
C589 C 0.18216 0.58134 0.47273 0.0
C590 C 0.1184 0.57515 0.46176 0.0
C591 C 0.08136 0.55081 0.40718 0.0
C592 C 0.10138 0.5581 0.42475 0.0
C593 C 0.16472 0.59026 0.47143 0.0
C594 C 0.14252 0.57837 0.45575 0.0
H595 H 0.06338 0.51758 0.35832 0.0
H596 H 0.0862 0.52079 0.39321 0.0
H597 H 0.07982 0.56332 0.4513 0.0
H598 H 0.19333 0.63848 0.50903 0.0
H599 H 0.15633 0.61866 0.48381 0.0
C600 C 0.48766 0.06228 0.54956 0.0
C601 C 0.50602 0.0633 0.53433 0.0
C602 C 0.49541 0.07545 0.56987 0.0
C603 C 0.55221 0.11262 0.60712 0.0
H604 H 0.51973 0.15277 0.61735 0.0
C605 C 0.60223 0.20672 0.65463 0.0
C606 C 0.58778 0.21145 0.67042 0.0
C607 C 0.59033 0.18575 0.64055 0.0
C608 C 0.52875 0.14144 0.61495 0.0
H609 H 0.5466 0.07685 0.52934 0.0
H610 H 0.56018 0.10019 0.56441 0.0
H611 H 0.50193 0.11929 0.58941 0.0
H612 H 0.54945 0.19817 0.68356 0.0
H613 H 0.52855 0.16161 0.65861 0.0
H614 H 0.57969 0.13563 0.63204 0.0
C615 C 0.5398 0.08921 0.56087 0.0
C616 C 0.51849 0.12214 0.59901 0.0
C617 C 0.53205 0.07599 0.54064 0.0
C618 C 0.56107 0.19503 0.67152 0.0
C619 C 0.54912 0.17413 0.65726 0.0
C620 C 0.56258 0.13205 0.62293 0.0
C621 C 0.52166 0.08992 0.57533 0.0
C622 C 0.53041 0.10783 0.59454 0.0
C623 C 0.56369 0.16914 0.64181 0.0
C624 C 0.55126 0.147 0.62666 0.0
H625 H 0.46746 0.05275 0.54515 0.0
H626 H 0.4809 0.07518 0.58084 0.0
H627 H 0.56162 0.1017 0.6044 0.0
H628 H 0.62284 0.219 0.65336 0.0
H629 H 0.60199 0.18263 0.62853 0.0
C630 C 0.43293 0.5347 0.70432 0.0
C631 C 0.44811 0.52314 0.70409 0.0
C632 C 0.42869 0.54407 0.72413 0.0
C633 C 0.45088 0.56104 0.7832 0.0
H634 H 0.3843 0.5563 0.78948 0.0
C635 C 0.40904 0.5769 0.86582 0.0
C636 C 0.40034 0.59429 0.86417 0.0
C637 C 0.41656 0.56913 0.84665 0.0
C638 C 0.40301 0.55787 0.78785 0.0
H639 H 0.47064 0.51238 0.72493 0.0
H640 H 0.46199 0.52753 0.75995 0.0
H641 H 0.39368 0.53978 0.75594 0.0
H642 H 0.3928 0.61726 0.84121 0.0
H643 H 0.40516 0.60293 0.80753 0.0
H644 H 0.45947 0.57821 0.81586 0.0
C645 C 0.45407 0.53005 0.7445 0.0
C646 C 0.40853 0.54855 0.76858 0.0
C647 C 0.45879 0.52107 0.72444 0.0
C648 C 0.39943 0.60386 0.84298 0.0
C649 C 0.40643 0.59566 0.82375 0.0
C650 C 0.44511 0.56992 0.80274 0.0
C651 C 0.43875 0.54149 0.74459 0.0
C652 C 0.43268 0.55035 0.76579 0.0
C653 C 0.41501 0.5782 0.82546 0.0
C654 C 0.42125 0.56866 0.80505 0.0
H655 H 0.42365 0.53608 0.68925 0.0
H656 H 0.41729 0.55323 0.72332 0.0
H657 H 0.46975 0.56301 0.78159 0.0
H658 H 0.41012 0.56935 0.88196 0.0
H659 H 0.42298 0.55555 0.84831 0.0
C660 C 0.9508 0.4424 0.87653 0.0
C661 C 0.95104 0.45886 0.86002 0.0
C662 C 0.93597 0.43771 0.89593 0.0
C663 C 0.8763 0.43565 0.91116 0.0
H664 H 0.89027 0.42137 0.97125 0.0
C665 C 0.80232 0.40827 0.98214 0.0
C666 C 0.79973 0.38969 -0.0026 0.0
C667 C 0.82228 0.41816 0.96651 0.0
C668 C 0.88601 0.42504 0.95447 0.0
H669 H 0.93838 0.48531 0.85179 0.0
H670 H 0.91285 0.47749 0.88583 0.0
H671 H 0.92468 0.43846 0.94323 0.0
H672 H 0.81575 0.36658 0.00799 0.0
H673 H 0.8503 0.38341 0.98022 0.0
H674 H 0.83763 0.42167 0.92195 0.0
C675 C 0.92356 0.46775 0.88358 0.0
C676 C 0.90576 0.43496 0.9385 0.0
C677 C 0.93829 0.47237 0.86421 0.0
C678 C 0.81728 0.3809 -0.00355 0.0
C679 C 0.83721 0.39072 0.98069 0.0
C680 C 0.85661 0.42564 0.92701 0.0
C681 C 0.92121 0.44945 0.89908 0.0
C682 C 0.90108 0.4404 0.91669 0.0
C683 C 0.84002 0.40958 0.96562 0.0
C684 C 0.86118 0.4202 0.94886 0.0
H685 H 0.9603 0.4316 0.87359 0.0
H686 H 0.93452 0.42348 0.90756 0.0
H687 H 0.87189 0.439 0.89432 0.0
H688 H 0.78925 0.4156 0.98256 0.0
H689 H 0.82407 0.43292 0.95539 0.0
C690 C 0.51887 0.95419 0.04688 0.0
C691 C 0.50153 0.95156 0.02982 0.0
C692 C 0.50995 0.94056 0.06683 0.0
C693 C 0.45101 0.89903 0.09998 0.0
H694 H 0.48849 0.86468 0.11491 0.0
C695 C 0.40595 0.80715 0.15116 0.0
C696 C 0.42119 0.80469 0.16772 0.0
C697 C 0.4167 0.82738 0.13621 0.0
C698 C 0.478 0.87436 0.1112 0.0
H699 H 0.46117 0.93454 0.02121 0.0
H700 H 0.44562 0.91037 0.05575 0.0
H701 H 0.50566 0.89785 0.0868 0.0
H702 H 0.45976 0.82127 0.18137 0.0
H703 H 0.47857 0.85657 0.15515 0.0
H704 H 0.42294 0.87488 0.12398 0.0
C705 C 0.4661 0.92297 0.05383 0.0
C706 C 0.4879 0.89349 0.09514 0.0
C707 C 0.47501 0.93668 0.03393 0.0
C708 C 0.44753 0.82261 0.16875 0.0
C709 C 0.45831 0.84281 0.15373 0.0
C710 C 0.44107 0.87982 0.116 0.0
C711 C 0.48353 0.92397 0.07012 0.0
C712 C 0.47435 0.90581 0.08909 0.0
C713 C 0.44295 0.84554 0.13743 0.0
C714 C 0.45427 0.86702 0.12152 0.0
H715 H 0.53943 0.96539 0.04424 0.0
H716 H 0.52385 0.94214 0.07926 0.0
H717 H 0.44027 0.90837 0.09592 0.0
H718 H 0.38559 0.79365 0.14993 0.0
H719 H 0.40447 0.82872 0.12358 0.0
C720 C 0.54259 0.46998 0.21433 0.0
C721 C 0.55887 0.49593 0.211 0.0
C722 C 0.54352 0.45866 0.23441 0.0
C723 C 0.56314 0.43712 0.26989 0.0
H724 H 0.58447 0.47423 0.32582 0.0
C725 C 0.60785 0.40867 0.34189 0.0
C726 C 0.60489 0.41462 0.36402 0.0
C727 C 0.59858 0.41656 0.32393 0.0
C728 C 0.57805 0.46325 0.31053 0.0
H729 H 0.58844 0.53048 0.22612 0.0
H730 H 0.59067 0.51088 0.26072 0.0
H731 H 0.57259 0.49132 0.29448 0.0
H732 H 0.5887 0.43215 0.3849 0.0
H733 H 0.57138 0.44471 0.35387 0.0
H734 H 0.56767 0.40857 0.28626 0.0
C735 C 0.57656 0.49919 0.2483 0.0
C736 C 0.57163 0.47334 0.29233 0.0
C737 C 0.57534 0.51051 0.2284 0.0
C738 C 0.59164 0.42769 0.36795 0.0
C739 C 0.58185 0.43503 0.3501 0.0
C740 C 0.5691 0.42678 0.28825 0.0
C741 C 0.56108 0.47301 0.25142 0.0
C742 C 0.56471 0.46074 0.27158 0.0
C743 C 0.58564 0.43007 0.32778 0.0
C744 C 0.57719 0.43996 0.3087 0.0
H745 H 0.52967 0.45836 0.20114 0.0
H746 H 0.5309 0.43857 0.23637 0.0
H747 H 0.55817 0.4269 0.25416 0.0
H748 H 0.61807 0.39866 0.33841 0.0
H749 H 0.60228 0.41268 0.30704 0.0
C750 C 0.43823 0.94691 0.40999 0.0
C751 C 0.45166 0.94335 0.42761 0.0
C752 C 0.43468 0.93446 0.38954 0.0
C753 C 0.45382 0.89517 0.3558 0.0
H754 H 0.384 0.86599 0.3335 0.0
C755 C 0.40936 0.81403 0.29048 0.0
C756 C 0.39508 0.81667 0.27305 0.0
C757 C 0.41793 0.83078 0.30863 0.0
C758 C 0.40364 0.8742 0.33937 0.0
H759 H 0.47391 0.92567 0.43671 0.0
H760 H 0.46692 0.90324 0.40136 0.0
H761 H 0.39744 0.89441 0.36544 0.0
H762 H 0.37853 0.83893 0.26114 0.0
H763 H 0.39329 0.86788 0.2928 0.0
H764 H 0.4596 0.87421 0.32988 0.0
C765 C 0.45925 0.91578 0.40326 0.0
C766 C 0.41144 0.89064 0.35762 0.0
C767 C 0.46304 0.92846 0.42365 0.0
C768 C 0.38942 0.83628 0.27428 0.0
C769 C 0.3978 0.85285 0.29246 0.0
C770 C 0.44592 0.87852 0.33758 0.0
C771 C 0.44422 0.91791 0.38626 0.0
C772 C 0.43663 0.90139 0.36608 0.0
C773 C 0.41218 0.85033 0.3098 0.0
C774 C 0.42075 0.86789 0.32918 0.0
H775 H 0.42905 0.95809 0.41238 0.0
H776 H 0.42357 0.93706 0.37659 0.0
H777 H 0.47341 0.90325 0.36175 0.0
H778 H 0.41413 0.79919 0.29001 0.0
H779 H 0.42877 0.82825 0.32188 0.0
C780 C 0.51057 0.44924 0.59652 0.0
C781 C 0.50233 0.43344 0.61538 0.0
C782 C 0.51934 0.44243 0.57739 0.0
C783 C 0.54855 0.40416 0.56293 0.0
H784 H 0.53356 0.41187 0.50112 0.0
C785 C 0.60312 0.39209 0.48921 0.0
C786 C 0.58851 0.37822 0.47062 0.0
C787 C 0.59199 0.39921 0.50615 0.0
C788 C 0.53778 0.40951 0.51832 0.0
H789 H 0.49473 0.39746 0.62863 0.0
H790 H 0.50963 0.38549 0.5954 0.0
H791 H 0.51403 0.42343 0.53165 0.0
H792 H 0.55073 0.36083 0.45523 0.0
H793 H 0.53119 0.3731 0.48503 0.0
H794 H 0.57198 0.39001 0.54987 0.0
C795 C 0.51008 0.40337 0.59543 0.0
C796 C 0.52682 0.41634 0.53574 0.0
C797 C 0.50147 0.41017 0.6144 0.0
C798 C 0.56246 0.37146 0.46939 0.0
C799 C 0.55134 0.37868 0.48632 0.0
C800 C 0.55956 0.39748 0.54561 0.0
C801 C 0.51986 0.41973 0.57699 0.0
C802 C 0.53193 0.41349 0.55823 0.0
C803 C 0.56601 0.39265 0.50487 0.0
C804 C 0.55425 0.39998 0.52312 0.0
H805 H 0.5113 0.46725 0.59695 0.0
H806 H 0.52676 0.45538 0.56338 0.0
H807 H 0.55316 0.40209 0.58009 0.0
H808 H 0.62327 0.39771 0.49059 0.0
H809 H 0.60386 0.41018 0.52012 0.0
C810 C 0.06487 0.51345 0.73862 0.0
C811 C 0.068 0.52881 0.75725 0.0
C812 C 0.07658 0.52415 0.71816 0.0
C813 C 0.13489 0.57921 0.69914 0.0
H814 H 0.10953 0.55168 0.63996 0.0
C815 C 0.20093 0.61094 0.62073 0.0
C816 C 0.1974 0.59166 0.60586 0.0
C817 C 0.18337 0.60611 0.63812 0.0
C818 C 0.11694 0.55949 0.6564 0.0
H819 H 0.08341 0.56744 0.76827 0.0
H820 H 0.10413 0.58613 0.73253 0.0
H821 H 0.07976 0.53841 0.67159 0.0
H822 H 0.17292 0.55203 0.59793 0.0
H823 H 0.14289 0.54352 0.62842 0.0
H824 H 0.17223 0.5994 0.68426 0.0
C825 C 0.09296 0.56581 0.73392 0.0
C826 C 0.09985 0.55199 0.67446 0.0
C827 C 0.08107 0.5551 0.75434 0.0
C828 C 0.17618 0.56739 0.60898 0.0
C829 C 0.15877 0.56255 0.62636 0.0
C830 C 0.15201 0.58659 0.68111 0.0
C831 C 0.09174 0.55042 0.71593 0.0
C832 C 0.10874 0.56132 0.69612 0.0
C833 C 0.16197 0.58186 0.64103 0.0
C834 C 0.14336 0.57632 0.65963 0.0
H835 H 0.05518 0.49315 0.74028 0.0
H836 H 0.07539 0.51177 0.70466 0.0
H837 H 0.14241 0.58647 0.71569 0.0
H838 H 0.21697 0.62989 0.61871 0.0
H839 H 0.18634 0.62145 0.64905 0.0
C840 C 0.54759 0.0879 0.9231 0.0
C841 C 0.56013 0.07419 0.92757 0.0
C842 C 0.55172 0.10091 0.90287 0.0
C843 C 0.60146 0.12911 0.85891 0.0
H844 H 0.55203 0.14249 0.82935 0.0
C845 C 0.62292 0.18214 0.77505 0.0
C846 C 0.61656 0.20123 0.77333 0.0
C847 C 0.61481 0.16588 0.79342 0.0
C848 C 0.56605 0.13904 0.83758 0.0
H849 H 0.58527 0.06184 0.9134 0.0
H850 H 0.59137 0.08336 0.8778 0.0
H851 H 0.53835 0.11319 0.86098 0.0
H852 H 0.59653 0.21813 0.78958 0.0
H853 H 0.5822 0.18947 0.82178 0.0
H854 H 0.62906 0.15475 0.83542 0.0
C855 C 0.57907 0.08485 0.89027 0.0
C856 C 0.55824 0.12225 0.85567 0.0
C857 C 0.57519 0.0721 0.91058 0.0
C858 C 0.60185 0.20369 0.79046 0.0
C859 C 0.59347 0.18719 0.80879 0.0
C860 C 0.60916 0.14565 0.84076 0.0
C861 C 0.56826 0.10026 0.88652 0.0
C862 C 0.57589 0.11709 0.86657 0.0
C863 C 0.59994 0.16816 0.81044 0.0
C864 C 0.59157 0.15082 0.82991 0.0
H865 H 0.53545 0.08952 0.93565 0.0
H866 H 0.54303 0.11254 0.90061 0.0
H867 H 0.61579 0.12619 0.86723 0.0
H868 H 0.63421 0.17968 0.76217 0.0
H869 H 0.61989 0.15125 0.79415 0.0
C870 C 0.52943 0.58237 0.09072 0.0
C871 C 0.511 0.56608 0.10625 0.0
C872 C 0.52175 0.58704 0.06997 0.0
C873 C 0.46492 0.56725 0.0324 0.0
H874 H 0.49721 0.63891 0.02058 0.0
C875 C 0.41434 0.61115 0.98403 0.0
C876 C 0.42864 0.62973 0.96796 0.0
C877 C 0.42638 0.60206 -0.00183 0.0
C878 C 0.48825 0.61881 0.02342 0.0
H879 H 0.47042 0.54003 0.11141 0.0
H880 H 0.45696 0.5485 0.07558 0.0
H881 H 0.51527 0.62375 0.04901 0.0
H882 H 0.46681 0.65362 0.95433 0.0
H883 H 0.48793 0.63793 0.97937 0.0
H884 H 0.4372 0.56257 0.00744 0.0
C885 C 0.47733 0.55765 0.0792 0.0
C886 C 0.49867 0.61006 0.03964 0.0
C887 C 0.48501 0.55292 0.09986 0.0
C888 C 0.4553 0.63933 0.96658 0.0
C889 C 0.46739 0.63037 0.98089 0.0
C890 C 0.4544 0.57603 0.0163 0.0
C891 C 0.49551 0.57554 0.06439 0.0
C892 C 0.48678 0.58422 0.04471 0.0
C893 C 0.45299 0.61147 -0.00332 0.0
C894 C 0.46563 0.60195 0.01202 0.0
H895 H 0.54961 0.59283 0.09518 0.0
H896 H 0.53629 0.60054 0.05874 0.0
H897 H 0.45554 0.5472 0.0356 0.0
H898 H 0.39376 0.60334 0.98548 0.0
H899 H 0.41486 0.58779 0.01044 0.0
C900 C 0.94775 0.50008 0.24567 0.0
C901 C 0.93568 0.50631 0.26264 0.0
C902 C 0.93504 0.49004 0.22526 0.0
C903 C 0.86912 0.45612 0.20235 0.0
H904 H 0.90177 0.47605 0.14404 0.0
C905 C 0.81276 0.41047 0.12138 0.0
C906 C 0.81649 0.42693 0.10354 0.0
C907 C 0.82915 0.41877 0.13997 0.0
C908 C 0.89238 0.47034 0.16023 0.0
H909 H 0.90194 0.50876 0.27118 0.0
H910 H 0.88007 0.49175 0.23574 0.0
H911 H 0.92734 0.49428 0.17803 0.0
H912 H 0.84066 0.46498 0.09115 0.0
H913 H 0.86881 0.4796 0.12374 0.0
H914 H 0.83405 0.43298 0.1848 0.0
C915 C 0.89885 0.49373 0.23827 0.0
C916 C 0.90709 0.48059 0.17966 0.0
C917 C 0.91142 0.50359 0.25852 0.0
C918 C 0.83721 0.4518 0.10457 0.0
C919 C 0.85352 0.46012 0.1232 0.0
C920 C 0.85446 0.44593 0.18301 0.0
C921 C 0.91017 0.48623 0.22162 0.0
C922 C 0.89546 0.47394 0.20092 0.0
C923 C 0.84958 0.44378 0.1412 0.0
C924 C 0.8658 0.45319 0.16169 0.0
H925 H 0.96649 0.50207 0.24851 0.0
H926 H 0.94426 0.48447 0.21269 0.0
H927 H 0.85968 0.45026 0.21851 0.0
H928 H 0.79714 0.39111 0.12104 0.0
H929 H 0.82579 0.40559 0.1534 0.0
loop_
_geom_bond_atom_site_label_1
_geom_bond_atom_site_label_2
_geom_bond_distance
_geom_bond_site_symmetry_2
_ccdc_geom_bond_type
H0 C8 0.930 . S
H1 C11 0.930 . S
H2 C13 0.930 . S
H3 C14 0.970 . S
H4 C14 0.970 . S
H5 C16 0.930 . S
H6 C18 0.930 . S
H7 C20 0.930 . S
C8 H0 0.930 . S
C8 C9 1.382 . S
C8 C10 1.426 . S
C9 C8 1.382 . S
C9 C13 1.389 . S
C10 C8 1.426 . S
C10 C11 1.375 . S
C10 C14 1.532 1_655 S
C11 H1 0.930 . S
C11 C10 1.375 . S
C11 C12 1.416 . S
C12 C11 1.416 . S
C12 C13 1.371 . S
C13 H2 0.930 . S
C13 C9 1.389 . S
C13 C12 1.371 . S
C14 H3 0.970 . S
C14 H4 0.970 . S
C14 C10 1.532 1_455 S
C14 C15 1.499 . S
C15 C14 1.499 . S
C15 C16 1.370 . S
C15 C20 1.415 . S
C16 H5 0.930 . S
C16 C15 1.370 . S
C16 C17 1.407 . S
C17 C16 1.407 . S
C17 C18 1.365 . S
C18 H6 0.930 . S
C18 C17 1.365 . S
C18 C19 1.393 . S
C19 C18 1.393 . S
C19 C20 1.387 . S
C20 H7 0.930 . S
C20 C15 1.415 . S
C20 C19 1.387 . S
H21 C29 0.930 . S
H22 C32 0.930 . S
H23 C34 0.930 . S
H24 C35 0.970 . S
H25 C35 0.970 . S
H26 C37 0.930 . S
H27 C39 0.930 . S
H28 C41 0.930 . S
C29 H21 0.930 . S
C29 C30 1.382 . S
C29 C31 1.426 . S
C30 C29 1.382 . S
C30 C34 1.389 . S
C31 C29 1.426 . S
C31 C32 1.375 . S
C31 C35 1.532 1_565 S
C32 H22 0.930 . S
C32 C31 1.375 . S
C32 C33 1.416 . S
C33 C32 1.416 . S
C33 C34 1.371 . S
C34 H23 0.930 . S
C34 C30 1.389 . S
C34 C33 1.371 . S
C35 H24 0.970 . S
C35 H25 0.970 . S
C35 C31 1.532 1_545 S
C35 C36 1.499 . S
C36 C35 1.499 . S
C36 C37 1.370 . S
C36 C41 1.415 . S
C37 H26 0.930 . S
C37 C36 1.370 . S
C37 C38 1.407 . S
C38 C37 1.407 . S
C38 C39 1.365 . S
C39 H27 0.930 . S
C39 C38 1.365 . S
C39 C40 1.393 . S
C40 C39 1.393 . S
C40 C41 1.387 . S
C41 H28 0.930 . S
C41 C36 1.415 . S
C41 C40 1.387 . S
H42 C50 0.930 . S
H43 C53 0.930 . S
H44 C55 0.930 . S
H45 C56 0.970 . S
H46 C56 0.970 . S
H47 C58 0.930 . S
H48 C60 0.930 . S
H49 C62 0.930 . S
C50 H42 0.930 . S
C50 C51 1.382 . S
C50 C52 1.426 . S
C51 C50 1.382 . S
C51 C55 1.389 . S
C52 C50 1.426 . S
C52 C53 1.375 . S
C52 C56 1.532 . S
C53 H43 0.930 . S
C53 C52 1.375 . S
C53 C54 1.416 . S
C54 C53 1.416 . S
C54 C55 1.371 . S
C55 H44 0.930 . S
C55 C51 1.389 . S
C55 C54 1.371 . S
C56 H45 0.970 . S
C56 H46 0.970 . S
C56 C52 1.532 . S
C56 C57 1.499 . S
C57 C56 1.499 . S
C57 C58 1.370 . S
C57 C62 1.415 . S
C58 H47 0.930 . S
C58 C57 1.370 . S
C58 C59 1.407 . S
C59 C58 1.407 . S
C59 C60 1.365 . S
C60 H48 0.930 . S
C60 C59 1.365 . S
C60 C61 1.393 . S
C61 C60 1.393 . S
C61 C62 1.387 . S
C62 H49 0.930 . S
C62 C57 1.415 . S
C62 C61 1.387 . S
H63 C71 0.930 . S
H64 C74 0.930 . S
H65 C76 0.930 . S
H66 C77 0.970 . S
H67 C77 0.970 . S
H68 C79 0.930 . S
H69 C81 0.930 . S
H70 C83 0.930 . S
C71 H63 0.930 . S
C71 C72 1.382 . S
C71 C73 1.426 . S
C72 C71 1.382 . S
C72 C76 1.389 . S
C73 C71 1.426 . S
C73 C74 1.375 . S
C73 C77 1.532 1_655 S
C74 H64 0.930 . S
C74 C73 1.375 . S
C74 C75 1.416 . S
C75 C74 1.416 . S
C75 C76 1.371 . S
C76 H65 0.930 . S
C76 C72 1.389 . S
C76 C75 1.371 . S
C77 H66 0.970 . S
C77 H67 0.970 . S
C77 C73 1.532 1_455 S
C77 C78 1.499 . S
C78 C77 1.499 . S
C78 C79 1.370 . S
C78 C83 1.415 . S
C79 H68 0.930 . S
C79 C78 1.370 . S
C79 C80 1.407 . S
C80 C79 1.407 . S
C80 C81 1.365 . S
C81 H69 0.930 . S
C81 C80 1.365 . S
C81 C82 1.393 . S
C82 C81 1.393 . S
C82 C83 1.387 . S
C83 H70 0.930 . S
C83 C78 1.415 . S
C83 C82 1.387 . S
H84 C92 0.930 . S
H85 C95 0.930 . S
H86 C97 0.930 . S
H87 C98 0.970 1_554 S
H88 C98 0.970 . S
H89 C100 0.930 . S
H90 C102 0.930 . S
H91 C104 0.930 . S
C92 H84 0.930 . S
C92 C93 1.382 1_554 S
C92 C94 1.426 1_554 S
C93 C92 1.382 1_556 S
C93 C97 1.389 . S
C94 C92 1.426 1_556 S
C94 C95 1.375 . S
C94 C98 1.532 . S
C95 H85 0.930 . S
C95 C94 1.375 . S
C95 C96 1.416 . S
C96 C95 1.416 . S
C96 C97 1.371 . S
C97 H86 0.930 . S
C97 C93 1.389 . S
C97 C96 1.371 . S
C98 H87 0.970 1_556 S
C98 H88 0.970 . S
C98 C94 1.532 . S
C98 C99 1.499 1_545 S
C99 C98 1.499 1_565 S
C99 C100 1.370 1_556 S
C99 C104 1.415 . S
C100 H89 0.930 . S
C100 C99 1.370 1_554 S
C100 C101 1.407 . S
C101 C100 1.407 . S
C101 C102 1.365 . S
C102 H90 0.930 . S
C102 C101 1.365 . S
C102 C103 1.393 1_554 S
C103 C102 1.393 1_556 S
C103 C104 1.387 . S
C104 H91 0.930 . S
C104 C99 1.415 . S
C104 C103 1.387 . S
H105 C113 0.930 . S
H106 C116 0.930 . S
H107 C118 0.930 . S
H108 C119 0.970 . S
H109 C119 0.970 . S
H110 C121 0.930 . S
H111 C123 0.930 . S
H112 C125 0.930 . S
C113 H105 0.930 . S
C113 C114 1.382 . S
C113 C115 1.426 . S
C114 C113 1.382 . S
C114 C118 1.389 . S
C115 C113 1.426 . S
C115 C116 1.375 . S
C115 C119 1.532 . S
C116 H106 0.930 . S
C116 C115 1.375 . S
C116 C117 1.416 . S
C117 C116 1.416 . S
C117 C118 1.371 . S
C118 H107 0.930 . S
C118 C114 1.389 . S
C118 C117 1.371 . S
C119 H108 0.970 . S
C119 H109 0.970 . S
C119 C115 1.532 . S
C119 C120 1.499 . S
C120 C119 1.499 . S
C120 C121 1.370 . S
C120 C125 1.415 . S
C121 H110 0.930 . S
C121 C120 1.370 . S
C121 C122 1.407 . S
C122 C121 1.407 . S
C122 C123 1.365 . S
C123 H111 0.930 . S
C123 C122 1.365 . S
C123 C124 1.393 . S
C124 C123 1.393 . S
C124 C125 1.387 . S
C125 H112 0.930 . S
C125 C120 1.415 . S
C125 C124 1.387 . S
C126 O127 1.306 . S
C126 O129 1.160 . S
O127 C126 1.306 . S
O127 Cd128 2.228 . S
Cd128 O127 2.228 . S
Cd128 O132 2.273 . S
Cd128 O136 2.277 . S
O129 C126 1.160 . S
O129 Cd130 2.203 . S
Cd130 O129 2.203 . S
Cd130 O132 2.411 . S
Cd130 O133 2.333 . S
Cd130 O134 2.352 . S
Cd130 O138 2.277 . S
Cd130 O139 2.356 . S
C131 O136 1.209 . S
C131 O138 1.226 . S
O132 Cd128 2.273 . S
O132 Cd130 2.411 . S
O132 C135 1.320 . S
O133 Cd130 2.333 . S
O133 C135 1.214 . S
O134 Cd130 2.352 . S
O134 C137 1.258 . S
C135 O132 1.320 . S
C135 O133 1.214 . S
O136 Cd128 2.277 . S
O136 C131 1.209 . S
C137 O134 1.258 . S
C137 O139 1.282 . S
O138 Cd130 2.277 . S
O138 C131 1.226 . S
O139 Cd130 2.356 . S
O139 C137 1.282 . S
C140 O141 1.306 . S
C140 O143 1.160 . S
O141 C140 1.306 . S
O141 Cd142 2.228 . S
Cd142 O141 2.228 . S
Cd142 O146 2.273 . S
Cd142 O150 2.277 . S
O143 C140 1.160 . S
O143 Cd144 2.203 . S
Cd144 O143 2.203 . S
Cd144 O146 2.411 . S
Cd144 O147 2.333 . S
Cd144 O148 2.352 . S
Cd144 O152 2.277 . S
Cd144 O153 2.356 . S
C145 O150 1.209 . S
C145 O152 1.226 . S
O146 Cd142 2.273 . S
O146 Cd144 2.411 . S
O146 C149 1.320 . S
O147 Cd144 2.333 . S
O147 C149 1.214 . S
O148 Cd144 2.352 . S
O148 C151 1.258 . S
C149 O146 1.320 . S
C149 O147 1.214 . S
O150 Cd142 2.277 . S
O150 C145 1.209 . S
C151 O148 1.258 . S
C151 O153 1.282 . S
O152 Cd144 2.277 . S
O152 C145 1.226 . S
O153 Cd144 2.356 . S
O153 C151 1.282 . S
C154 O155 1.306 . S
C154 O157 1.160 . S
O155 C154 1.306 . S
O155 Cd156 2.228 . S
Cd156 O155 2.228 . S
Cd156 O160 2.273 . S
Cd156 O164 2.277 . S
O157 C154 1.160 . S
O157 Cd158 2.203 . S
Cd158 O157 2.203 . S
Cd158 O160 2.411 . S
Cd158 O161 2.333 . S
Cd158 O162 2.352 . S
Cd158 O166 2.277 . S
Cd158 O167 2.356 . S
C159 O164 1.209 . S
C159 O166 1.226 . S
O160 Cd156 2.273 . S
O160 Cd158 2.411 . S
O160 C163 1.320 . S
O161 Cd158 2.333 . S
O161 C163 1.214 . S
O162 Cd158 2.352 . S
O162 C165 1.258 . S
C163 O160 1.320 . S
C163 O161 1.214 . S
O164 Cd156 2.277 . S
O164 C159 1.209 . S
C165 O162 1.258 . S
C165 O167 1.282 . S
O166 Cd158 2.277 . S
O166 C159 1.226 . S
O167 Cd158 2.356 . S
O167 C165 1.282 . S
C168 O169 1.306 . S
C168 O171 1.160 . S
O169 C168 1.306 . S
O169 Cd170 2.228 . S
Cd170 O169 2.228 . S
Cd170 O174 2.273 . S
Cd170 O178 2.277 . S
O171 C168 1.160 . S
O171 Cd172 2.203 . S
Cd172 O171 2.203 . S
Cd172 O174 2.411 . S
Cd172 O175 2.333 . S
Cd172 O176 2.352 . S
Cd172 O180 2.277 . S
Cd172 O181 2.356 . S
C173 O178 1.209 . S
C173 O180 1.226 . S
O174 Cd170 2.273 . S
O174 Cd172 2.411 . S
O174 C177 1.320 . S
O175 Cd172 2.333 . S
O175 C177 1.214 . S
O176 Cd172 2.352 . S
O176 C179 1.258 . S
C177 O174 1.320 . S
C177 O175 1.214 . S
O178 Cd170 2.277 . S
O178 C173 1.209 . S
C179 O176 1.258 . S
C179 O181 1.282 . S
O180 Cd172 2.277 . S
O180 C173 1.226 . S
O181 Cd172 2.356 . S
O181 C179 1.282 . S
C182 O183 1.306 . S
C182 O185 1.160 . S
O183 C182 1.306 . S
O183 Cd184 2.228 . S
Cd184 O183 2.228 . S
Cd184 O188 2.273 . S
Cd184 O192 2.277 . S
O185 C182 1.160 . S
O185 Cd186 2.203 . S
Cd186 O185 2.203 . S
Cd186 O188 2.411 . S
Cd186 O189 2.333 . S
Cd186 O190 2.352 . S
Cd186 O194 2.277 . S
Cd186 O195 2.356 . S
C187 O192 1.209 . S
C187 O194 1.226 . S
O188 Cd184 2.273 . S
O188 Cd186 2.411 . S
O188 C191 1.320 . S
O189 Cd186 2.333 . S
O189 C191 1.214 . S
O190 Cd186 2.352 . S
O190 C193 1.258 . S
C191 O188 1.320 . S
C191 O189 1.214 . S
O192 Cd184 2.277 . S
O192 C187 1.209 . S
C193 O190 1.258 . S
C193 O195 1.282 . S
O194 Cd186 2.277 . S
O194 C187 1.226 . S
O195 Cd186 2.356 . S
O195 C193 1.282 . S
C196 O197 1.306 . S
C196 O199 1.160 . S
O197 C196 1.306 . S
O197 Cd198 2.228 . S
Cd198 O197 2.228 . S
Cd198 O202 2.273 . S
Cd198 O206 2.277 . S
O199 C196 1.160 . S
O199 Cd200 2.203 . S
Cd200 O199 2.203 . S
Cd200 O202 2.411 . S
Cd200 O203 2.333 . S
Cd200 O204 2.352 . S
Cd200 O208 2.277 . S
Cd200 O209 2.356 . S
C201 O206 1.209 . S
C201 O208 1.226 . S
O202 Cd198 2.273 . S
O202 Cd200 2.411 . S
O202 C205 1.320 . S
O203 Cd200 2.333 . S
O203 C205 1.214 . S
O204 Cd200 2.352 . S
O204 C207 1.258 . S
C205 O202 1.320 . S
C205 O203 1.214 . S
O206 Cd198 2.277 . S
O206 C201 1.209 . S
C207 O204 1.258 . S
C207 O209 1.282 . S
O208 Cd200 2.277 . S
O208 C201 1.226 . S
O209 Cd200 2.356 . S
O209 C207 1.282 . S
C210 C211 1.349 . S
C210 C212 1.327 . S
C210 H235 0.950 . S
C211 C210 1.349 . S
C211 C227 1.349 . S
C212 C210 1.327 . S
C212 C231 1.429 . S
C212 H236 0.950 . S
C213 C230 1.574 . S
C213 C232 1.368 . S
C213 H237 0.949 . S
H214 C218 0.949 . S
C215 C216 1.349 . S
C215 C217 1.327 . S
C215 H238 0.950 . S
C216 C215 1.349 . S
C216 C228 1.349 . S
C217 C215 1.327 . S
C217 C233 1.429 . S
C217 H239 0.950 . S
C218 H214 0.949 . S
C218 C226 1.574 . S
C218 C234 1.368 . S
H219 C227 0.950 . S
H220 C225 0.950 . S
H221 C226 0.949 . S
H222 C228 0.950 . S
H223 C229 0.950 . S
H224 C230 0.949 . S
C225 H220 0.950 . S
C225 C227 1.327 . S
C225 C231 1.429 . S
C226 C218 1.574 . S
C226 H221 0.949 . S
C226 C232 1.368 . S
C227 C211 1.349 . S
C227 H219 0.950 . S
C227 C225 1.327 . S
C228 C216 1.349 . S
C228 H222 0.950 . S
C228 C229 1.327 . S
C229 H223 0.950 . S
C229 C228 1.327 . S
C229 C233 1.429 . S
C230 C213 1.574 . S
C230 H224 0.949 . S
C230 C234 1.368 . S
C231 C212 1.429 . S
C231 C225 1.429 . S
C231 C232 1.523 . S
C232 C213 1.368 . S
C232 C226 1.368 . S
C232 C231 1.523 . S
C233 C217 1.429 . S
C233 C229 1.429 . S
C233 C234 1.523 . S
C234 C218 1.368 . S
C234 C230 1.368 . S
C234 C233 1.523 . S
H235 C210 0.950 . S
H236 C212 0.950 . S
H237 C213 0.949 . S
H238 C215 0.950 . S
H239 C217 0.950 . S
C240 C241 1.349 . S
C240 C242 1.327 . S
C240 H265 0.950 . S
C241 C240 1.349 . S
C241 C257 1.349 . S
C242 C240 1.327 . S
C242 C261 1.429 . S
C242 H266 0.950 . S
C243 C260 1.574 . S
C243 C262 1.368 . S
C243 H267 0.949 . S
H244 C248 0.949 . S
C245 C246 1.349 . S
C245 C247 1.327 . S
C245 H268 0.950 . S
C246 C245 1.349 . S
C246 C258 1.349 . S
C247 C245 1.327 . S
C247 C263 1.429 . S
C247 H269 0.950 . S
C248 H244 0.949 . S
C248 C256 1.574 . S
C248 C264 1.368 . S
H249 C257 0.950 . S
H250 C255 0.950 . S
H251 C256 0.949 . S
H252 C258 0.950 . S
H253 C259 0.950 . S
H254 C260 0.949 . S
C255 H250 0.950 . S
C255 C257 1.327 . S
C255 C261 1.429 . S
C256 C248 1.574 . S
C256 H251 0.949 . S
C256 C262 1.368 . S
C257 C241 1.349 . S
C257 H249 0.950 . S
C257 C255 1.327 . S
C258 C246 1.349 . S
C258 H252 0.950 . S
C258 C259 1.327 . S
C259 H253 0.950 . S
C259 C258 1.327 . S
C259 C263 1.429 . S
C260 C243 1.574 . S
C260 H254 0.949 . S
C260 C264 1.368 . S
C261 C242 1.429 . S
C261 C255 1.429 . S
C261 C262 1.523 . S
C262 C243 1.368 . S
C262 C256 1.368 . S
C262 C261 1.523 . S
C263 C247 1.429 . S
C263 C259 1.429 . S
C263 C264 1.523 . S
C264 C248 1.368 . S
C264 C260 1.368 . S
C264 C263 1.523 . S
H265 C240 0.950 . S
H266 C242 0.950 . S
H267 C243 0.949 . S
H268 C245 0.950 . S
H269 C247 0.950 . S
C270 C271 1.349 . S
C270 C272 1.327 . S
C270 H295 0.950 . S
C271 C270 1.349 . S
C271 C287 1.349 . S
C272 C270 1.327 . S
C272 C291 1.429 . S
C272 H296 0.950 . S
C273 C290 1.574 . S
C273 C292 1.368 . S
C273 H297 0.949 . S
H274 C278 0.949 . S
C275 C276 1.349 . S
C275 C277 1.327 . S
C275 H298 0.950 . S
C276 C275 1.349 . S
C276 C288 1.349 . S
C277 C275 1.327 . S
C277 C293 1.429 . S
C277 H299 0.950 . S
C278 H274 0.949 . S
C278 C286 1.574 . S
C278 C294 1.368 . S
H279 C287 0.950 . S
H280 C285 0.950 . S
H281 C286 0.949 . S
H282 C288 0.950 . S
H283 C289 0.950 . S
H284 C290 0.949 . S
C285 H280 0.950 . S
C285 C287 1.327 . S
C285 C291 1.429 . S
C286 C278 1.574 . S
C286 H281 0.949 . S
C286 C292 1.368 . S
C287 C271 1.349 . S
C287 H279 0.950 . S
C287 C285 1.327 . S
C288 C276 1.349 . S
C288 H282 0.950 . S
C288 C289 1.327 . S
C289 H283 0.950 . S
C289 C288 1.327 . S
C289 C293 1.429 . S
C290 C273 1.574 . S
C290 H284 0.949 . S
C290 C294 1.368 . S
C291 C272 1.429 . S
C291 C285 1.429 . S
C291 C292 1.523 . S
C292 C273 1.368 . S
C292 C286 1.368 . S
C292 C291 1.523 . S
C293 C277 1.429 . S
C293 C289 1.429 . S
C293 C294 1.523 . S
C294 C278 1.368 . S
C294 C290 1.368 . S
C294 C293 1.523 . S
H295 C270 0.950 . S
H296 C272 0.950 . S
H297 C273 0.949 . S
H298 C275 0.950 . S
H299 C277 0.950 . S
C300 C301 1.349 . S
C300 C302 1.327 . S
C300 H325 0.950 . S
C301 C300 1.349 . S
C301 C317 1.349 . S
C302 C300 1.327 . S
C302 C321 1.429 . S
C302 H326 0.950 . S
C303 C320 1.574 . S
C303 C322 1.368 . S
C303 H327 0.949 . S
H304 C308 0.949 . S
C305 C306 1.349 . S
C305 C307 1.327 . S
C305 H328 0.950 . S
C306 C305 1.349 . S
C306 C318 1.349 . S
C307 C305 1.327 . S
C307 C323 1.429 . S
C307 H329 0.950 . S
C308 H304 0.949 . S
C308 C316 1.574 . S
C308 C324 1.368 . S
H309 C317 0.950 . S
H310 C315 0.950 . S
H311 C316 0.949 . S
H312 C318 0.950 . S
H313 C319 0.950 . S
H314 C320 0.949 . S
C315 H310 0.950 . S
C315 C317 1.327 . S
C315 C321 1.429 . S
C316 C308 1.574 . S
C316 H311 0.949 . S
C316 C322 1.368 . S
C317 C301 1.349 . S
C317 H309 0.950 . S
C317 C315 1.327 . S
C318 C306 1.349 . S
C318 H312 0.950 . S
C318 C319 1.327 . S
C319 H313 0.950 . S
C319 C318 1.327 . S
C319 C323 1.429 . S
C320 C303 1.574 . S
C320 H314 0.949 . S
C320 C324 1.368 . S
C321 C302 1.429 . S
C321 C315 1.429 . S
C321 C322 1.523 . S
C322 C303 1.368 . S
C322 C316 1.368 . S
C322 C321 1.523 . S
C323 C307 1.429 . S
C323 C319 1.429 . S
C323 C324 1.523 . S
C324 C308 1.368 . S
C324 C320 1.368 . S
C324 C323 1.523 . S
H325 C300 0.950 . S
H326 C302 0.950 . S
H327 C303 0.949 . S
H328 C305 0.950 . S
H329 C307 0.950 . S
C330 C331 1.349 . S
C330 C332 1.327 . S
C330 H355 0.950 1_556 S
C331 C330 1.349 . S
C331 C347 1.349 . S
C332 C330 1.327 . S
C332 C351 1.429 . S
C332 H356 0.950 . S
C333 C350 1.574 . S
C333 C352 1.368 . S
C333 H357 0.949 . S
H334 C338 0.949 . S
C335 C336 1.349 . S
C335 C337 1.327 . S
C335 H358 0.950 . S
C336 C335 1.349 . S
C336 C348 1.349 . S
C337 C335 1.327 . S
C337 C353 1.429 . S
C337 H359 0.950 . S
C338 H334 0.949 . S
C338 C346 1.574 . S
C338 C354 1.368 . S
H339 C347 0.950 . S
H340 C345 0.950 . S
H341 C346 0.949 . S
H342 C348 0.950 . S
H343 C349 0.950 . S
H344 C350 0.949 . S
C345 H340 0.950 . S
C345 C347 1.327 . S
C345 C351 1.429 . S
C346 C338 1.574 . S
C346 H341 0.949 . S
C346 C352 1.368 . S
C347 C331 1.349 . S
C347 H339 0.950 . S
C347 C345 1.327 . S
C348 C336 1.349 . S
C348 H342 0.950 . S
C348 C349 1.327 . S
C349 H343 0.950 . S
C349 C348 1.327 . S
C349 C353 1.429 . S
C350 C333 1.574 . S
C350 H344 0.949 . S
C350 C354 1.368 . S
C351 C332 1.429 . S
C351 C345 1.429 . S
C351 C352 1.523 . S
C352 C333 1.368 . S
C352 C346 1.368 . S
C352 C351 1.523 . S
C353 C337 1.429 . S
C353 C349 1.429 . S
C353 C354 1.523 . S
C354 C338 1.368 . S
C354 C350 1.368 . S
C354 C353 1.523 . S
H355 C330 0.950 1_554 S
H356 C332 0.950 . S
H357 C333 0.949 . S
H358 C335 0.950 . S
H359 C337 0.950 . S
C360 C361 1.349 . S
C360 C362 1.327 . S
C360 H385 0.950 . S
C361 C360 1.349 . S
C361 C377 1.349 . S
C362 C360 1.327 . S
C362 C381 1.429 . S
C362 H386 0.950 . S
C363 C380 1.574 . S
C363 C382 1.368 . S
C363 H387 0.949 . S
H364 C368 0.949 . S
C365 C366 1.349 . S
C365 C367 1.327 . S
C365 H388 0.950 . S
C366 C365 1.349 . S
C366 C378 1.349 . S
C367 C365 1.327 . S
C367 C383 1.429 . S
C367 H389 0.950 . S
C368 H364 0.949 . S
C368 C376 1.574 . S
C368 C384 1.368 . S
H369 C377 0.950 . S
H370 C375 0.950 . S
H371 C376 0.949 . S
H372 C378 0.950 . S
H373 C379 0.950 . S
H374 C380 0.949 . S
C375 H370 0.950 . S
C375 C377 1.327 . S
C375 C381 1.429 . S
C376 C368 1.574 . S
C376 H371 0.949 . S
C376 C382 1.368 . S
C377 C361 1.349 . S
C377 H369 0.950 . S
C377 C375 1.327 . S
C378 C366 1.349 . S
C378 H372 0.950 . S
C378 C379 1.327 . S
C379 H373 0.950 . S
C379 C378 1.327 . S
C379 C383 1.429 . S
C380 C363 1.574 . S
C380 H374 0.949 . S
C380 C384 1.368 . S
C381 C362 1.429 . S
C381 C375 1.429 . S
C381 C382 1.523 . S
C382 C363 1.368 . S
C382 C376 1.368 . S
C382 C381 1.523 . S
C383 C367 1.429 . S
C383 C379 1.429 . S
C383 C384 1.523 . S
C384 C368 1.368 . S
C384 C380 1.368 . S
C384 C383 1.523 . S
H385 C360 0.950 . S
H386 C362 0.950 . S
H387 C363 0.949 . S
H388 C365 0.950 . S
H389 C367 0.950 . S
C390 C391 1.349 . S
C390 C392 1.327 . S
C390 H415 0.950 . S
C391 C390 1.349 . S
C391 C407 1.349 . S
C392 C390 1.327 . S
C392 C411 1.429 . S
C392 H416 0.950 . S
C393 C410 1.574 . S
C393 C412 1.368 . S
C393 H417 0.949 . S
H394 C398 0.949 . S
C395 C396 1.349 . S
C395 C397 1.327 . S
C395 H418 0.950 . S
C396 C395 1.349 . S
C396 C408 1.349 . S
C397 C395 1.327 . S
C397 C413 1.429 . S
C397 H419 0.950 . S
C398 H394 0.949 . S
C398 C406 1.574 . S
C398 C414 1.368 . S
H399 C407 0.950 . S
H400 C405 0.950 . S
H401 C406 0.949 . S
H402 C408 0.950 . S
H403 C409 0.950 . S
H404 C410 0.949 . S
C405 H400 0.950 . S
C405 C407 1.327 . S
C405 C411 1.429 . S
C406 C398 1.574 . S
C406 H401 0.949 . S
C406 C412 1.368 . S
C407 C391 1.349 . S
C407 H399 0.950 . S
C407 C405 1.327 . S
C408 C396 1.349 . S
C408 H402 0.950 . S
C408 C409 1.327 . S
C409 H403 0.950 . S
C409 C408 1.327 . S
C409 C413 1.429 . S
C410 C393 1.574 . S
C410 H404 0.949 . S
C410 C414 1.368 . S
C411 C392 1.429 . S
C411 C405 1.429 . S
C411 C412 1.523 . S
C412 C393 1.368 . S
C412 C406 1.368 . S
C412 C411 1.523 . S
C413 C397 1.429 . S
C413 C409 1.429 . S
C413 C414 1.523 . S
C414 C398 1.368 . S
C414 C410 1.368 . S
C414 C413 1.523 . S
H415 C390 0.950 . S
H416 C392 0.950 . S
H417 C393 0.949 . S
H418 C395 0.950 . S
H419 C397 0.950 . S
C420 C421 1.349 . S
C420 C422 1.327 . S
C420 H445 0.950 . S
C421 C420 1.349 . S
C421 C437 1.349 . S
C422 C420 1.327 . S
C422 C441 1.429 . S
C422 H446 0.950 . S
C423 C440 1.574 . S
C423 C442 1.368 . S
C423 H447 0.949 . S
H424 C428 0.949 . S
C425 C426 1.349 . S
C425 C427 1.327 . S
C425 H448 0.950 . S
C426 C425 1.349 . S
C426 C438 1.349 . S
C427 C425 1.327 . S
C427 C443 1.429 . S
C427 H449 0.950 . S
C428 H424 0.949 . S
C428 C436 1.574 . S
C428 C444 1.368 . S
H429 C437 0.950 . S
H430 C435 0.950 . S
H431 C436 0.949 . S
H432 C438 0.950 . S
H433 C439 0.950 . S
H434 C440 0.949 . S
C435 H430 0.950 . S
C435 C437 1.327 . S
C435 C441 1.429 . S
C436 C428 1.574 . S
C436 H431 0.949 . S
C436 C442 1.368 . S
C437 C421 1.349 . S
C437 H429 0.950 . S
C437 C435 1.327 . S
C438 C426 1.349 . S
C438 H432 0.950 . S
C438 C439 1.327 . S
C439 H433 0.950 . S
C439 C438 1.327 . S
C439 C443 1.429 . S
C440 C423 1.574 . S
C440 H434 0.949 . S
C440 C444 1.368 . S
C441 C422 1.429 . S
C441 C435 1.429 . S
C441 C442 1.523 . S
C442 C423 1.368 . S
C442 C436 1.368 . S
C442 C441 1.523 . S
C443 C427 1.429 . S
C443 C439 1.429 . S
C443 C444 1.523 . S
C444 C428 1.368 . S
C444 C440 1.368 . S
C444 C443 1.523 . S
H445 C420 0.950 . S
H446 C422 0.950 . S
H447 C423 0.949 . S
H448 C425 0.950 . S
H449 C427 0.950 . S
C450 C451 1.349 . S
C450 C452 1.327 . S
C450 H475 0.950 . S
C451 C450 1.349 . S
C451 C467 1.349 . S
C452 C450 1.327 . S
C452 C471 1.429 . S
C452 H476 0.950 . S
C453 C470 1.574 . S
C453 C472 1.368 . S
C453 H477 0.949 . S
H454 C458 0.949 . S
C455 C456 1.349 . S
C455 C457 1.327 . S
C455 H478 0.950 . S
C456 C455 1.349 . S
C456 C468 1.349 . S
C457 C455 1.327 . S
C457 C473 1.429 . S
C457 H479 0.950 . S
C458 H454 0.949 . S
C458 C466 1.574 . S
C458 C474 1.368 . S
H459 C467 0.950 . S
H460 C465 0.950 . S
H461 C466 0.949 . S
H462 C468 0.950 . S
H463 C469 0.950 . S
H464 C470 0.949 . S
C465 H460 0.950 . S
C465 C467 1.327 . S
C465 C471 1.429 . S
C466 C458 1.574 . S
C466 H461 0.949 . S
C466 C472 1.368 . S
C467 C451 1.349 . S
C467 H459 0.950 . S
C467 C465 1.327 . S
C468 C456 1.349 . S
C468 H462 0.950 . S
C468 C469 1.327 . S
C469 H463 0.950 . S
C469 C468 1.327 . S
C469 C473 1.429 . S
C470 C453 1.574 . S
C470 H464 0.949 . S
C470 C474 1.368 . S
C471 C452 1.429 . S
C471 C465 1.429 . S
C471 C472 1.523 . S
C472 C453 1.368 . S
C472 C466 1.368 . S
C472 C471 1.523 . S
C473 C457 1.429 . S
C473 C469 1.429 . S
C473 C474 1.523 . S
C474 C458 1.368 . S
C474 C470 1.368 . S
C474 C473 1.523 . S
H475 C450 0.950 . S
H476 C452 0.950 . S
H477 C453 0.949 . S
H478 C455 0.950 . S
H479 C457 0.950 . S
C480 C481 1.349 1_556 S
C480 C482 1.327 1_556 S
C480 H505 0.950 . S
C481 C480 1.349 1_554 S
C481 C497 1.349 . S
C482 C480 1.327 1_554 S
C482 C501 1.429 . S
C482 H506 0.950 1_554 S
C483 C500 1.574 . S
C483 C502 1.368 . S
C483 H507 0.949 . S
H484 C488 0.949 . S
C485 C486 1.349 . S
C485 C487 1.327 . S
C485 H508 0.950 . S
C486 C485 1.349 . S
C486 C498 1.349 . S
C487 C485 1.327 . S
C487 C503 1.429 . S
C487 H509 0.950 . S
C488 H484 0.949 . S
C488 C496 1.574 . S
C488 C504 1.368 . S
H489 C497 0.950 . S
H490 C495 0.950 . S
H491 C496 0.949 1_556 S
H492 C498 0.950 . S
H493 C499 0.950 . S
H494 C500 0.949 . S
C495 H490 0.950 . S
C495 C497 1.327 . S
C495 C501 1.429 . S
C496 C488 1.574 . S
C496 H491 0.949 1_554 S
C496 C502 1.368 . S
C497 C481 1.349 . S
C497 H489 0.950 . S
C497 C495 1.327 . S
C498 C486 1.349 . S
C498 H492 0.950 . S
C498 C499 1.327 . S
C499 H493 0.950 . S
C499 C498 1.327 . S
C499 C503 1.429 . S
C500 C483 1.574 . S
C500 H494 0.949 . S
C500 C504 1.368 . S
C501 C482 1.429 . S
C501 C495 1.429 . S
C501 C502 1.523 . S
C502 C483 1.368 . S
C502 C496 1.368 . S
C502 C501 1.523 . S
C503 C487 1.429 . S
C503 C499 1.429 . S
C503 C504 1.523 . S
C504 C488 1.368 . S
C504 C500 1.368 . S
C504 C503 1.523 . S
H505 C480 0.950 . S
H506 C482 0.950 1_556 S
H507 C483 0.949 . S
H508 C485 0.950 . S
H509 C487 0.950 . S
C510 C511 1.349 . S
C510 C512 1.327 . S
C510 H535 0.950 . S
C511 C510 1.349 . S
C511 C527 1.349 . S
C512 C510 1.327 . S
C512 C531 1.429 . S
C512 H536 0.950 . S
C513 C530 1.574 . S
C513 C532 1.368 . S
C513 H537 0.949 . S
H514 C518 0.949 . S
C515 C516 1.349 . S
C515 C517 1.327 . S
C515 H538 0.950 . S
C516 C515 1.349 . S
C516 C528 1.349 . S
C517 C515 1.327 . S
C517 C533 1.429 . S
C517 H539 0.950 . S
C518 H514 0.949 . S
C518 C526 1.574 . S
C518 C534 1.368 . S
H519 C527 0.950 . S
H520 C525 0.950 . S
H521 C526 0.949 . S
H522 C528 0.950 . S
H523 C529 0.950 . S
H524 C530 0.949 . S
C525 H520 0.950 . S
C525 C527 1.327 . S
C525 C531 1.429 . S
C526 C518 1.574 . S
C526 H521 0.949 . S
C526 C532 1.368 . S
C527 C511 1.349 . S
C527 H519 0.950 . S
C527 C525 1.327 . S
C528 C516 1.349 . S
C528 H522 0.950 . S
C528 C529 1.327 . S
C529 H523 0.950 . S
C529 C528 1.327 . S
C529 C533 1.429 . S
C530 C513 1.574 . S
C530 H524 0.949 . S
C530 C534 1.368 . S
C531 C512 1.429 . S
C531 C525 1.429 . S
C531 C532 1.523 . S
C532 C513 1.368 . S
C532 C526 1.368 . S
C532 C531 1.523 . S
C533 C517 1.429 . S
C533 C529 1.429 . S
C533 C534 1.523 . S
C534 C518 1.368 . S
C534 C530 1.368 . S
C534 C533 1.523 . S
H535 C510 0.950 . S
H536 C512 0.950 . S
H537 C513 0.949 . S
H538 C515 0.950 . S
H539 C517 0.950 . S
C540 C541 1.349 . S
C540 C542 1.327 . S
C540 H565 0.950 . S
C541 C540 1.349 . S
C541 C557 1.349 . S
C542 C540 1.327 . S
C542 C561 1.429 . S
C542 H566 0.950 . S
C543 C560 1.574 . S
C543 C562 1.368 . S
C543 H567 0.949 . S
H544 C548 0.949 . S
C545 C546 1.349 . S
C545 C547 1.327 . S
C545 H568 0.950 . S
C546 C545 1.349 . S
C546 C558 1.349 . S
C547 C545 1.327 . S
C547 C563 1.429 . S
C547 H569 0.950 . S
C548 H544 0.949 . S
C548 C556 1.574 . S
C548 C564 1.368 . S
H549 C557 0.950 . S
H550 C555 0.950 . S
H551 C556 0.949 . S
H552 C558 0.950 . S
H553 C559 0.950 . S
H554 C560 0.949 . S
C555 H550 0.950 . S
C555 C557 1.327 . S
C555 C561 1.429 . S
C556 C548 1.574 . S
C556 H551 0.949 . S
C556 C562 1.368 . S
C557 C541 1.349 . S
C557 H549 0.950 . S
C557 C555 1.327 . S
C558 C546 1.349 . S
C558 H552 0.950 . S
C558 C559 1.327 . S
C559 H553 0.950 . S
C559 C558 1.327 . S
C559 C563 1.429 . S
C560 C543 1.574 . S
C560 H554 0.949 . S
C560 C564 1.368 . S
C561 C542 1.429 . S
C561 C555 1.429 . S
C561 C562 1.523 . S
C562 C543 1.368 . S
C562 C556 1.368 . S
C562 C561 1.523 . S
C563 C547 1.429 . S
C563 C559 1.429 . S
C563 C564 1.523 . S
C564 C548 1.368 . S
C564 C560 1.368 . S
C564 C563 1.523 . S
H565 C540 0.950 . S
H566 C542 0.950 . S
H567 C543 0.949 . S
H568 C545 0.950 . S
H569 C547 0.950 . S
C570 C571 1.349 . S
C570 C572 1.327 . S
C570 H595 0.950 . S
C571 C570 1.349 . S
C571 C587 1.349 . S
C572 C570 1.327 . S
C572 C591 1.429 . S
C572 H596 0.950 . S
C573 C590 1.574 . S
C573 C592 1.368 . S
C573 H597 0.949 . S
H574 C578 0.949 . S
C575 C576 1.349 . S
C575 C577 1.327 . S
C575 H598 0.950 . S
C576 C575 1.349 . S
C576 C588 1.349 . S
C577 C575 1.327 . S
C577 C593 1.429 . S
C577 H599 0.950 . S
C578 H574 0.949 . S
C578 C586 1.574 . S
C578 C594 1.368 . S
H579 C587 0.950 . S
H580 C585 0.950 . S
H581 C586 0.949 . S
H582 C588 0.950 . S
H583 C589 0.950 . S
H584 C590 0.949 . S
C585 H580 0.950 . S
C585 C587 1.327 . S
C585 C591 1.429 . S
C586 C578 1.574 . S
C586 H581 0.949 . S
C586 C592 1.368 . S
C587 C571 1.349 . S
C587 H579 0.950 . S
C587 C585 1.327 . S
C588 C576 1.349 . S
C588 H582 0.950 . S
C588 C589 1.327 . S
C589 H583 0.950 . S
C589 C588 1.327 . S
C589 C593 1.429 . S
C590 C573 1.574 . S
C590 H584 0.949 . S
C590 C594 1.368 . S
C591 C572 1.429 . S
C591 C585 1.429 . S
C591 C592 1.523 . S
C592 C573 1.368 . S
C592 C586 1.368 . S
C592 C591 1.523 . S
C593 C577 1.429 . S
C593 C589 1.429 . S
C593 C594 1.523 . S
C594 C578 1.368 . S
C594 C590 1.368 . S
C594 C593 1.523 . S
H595 C570 0.950 . S
H596 C572 0.950 . S
H597 C573 0.949 . S
H598 C575 0.950 . S
H599 C577 0.950 . S
C600 C601 1.349 . S
C600 C602 1.327 . S
C600 H625 0.950 . S
C601 C600 1.349 . S
C601 C617 1.349 . S
C602 C600 1.327 . S
C602 C621 1.429 . S
C602 H626 0.950 . S
C603 C620 1.574 . S
C603 C622 1.368 . S
C603 H627 0.949 . S
H604 C608 0.949 . S
C605 C606 1.349 . S
C605 C607 1.327 . S
C605 H628 0.950 . S
C606 C605 1.349 . S
C606 C618 1.349 . S
C607 C605 1.327 . S
C607 C623 1.429 . S
C607 H629 0.950 . S
C608 H604 0.949 . S
C608 C616 1.574 . S
C608 C624 1.368 . S
H609 C617 0.950 . S
H610 C615 0.950 . S
H611 C616 0.949 . S
H612 C618 0.950 . S
H613 C619 0.950 . S
H614 C620 0.949 . S
C615 H610 0.950 . S
C615 C617 1.327 . S
C615 C621 1.429 . S
C616 C608 1.574 . S
C616 H611 0.949 . S
C616 C622 1.368 . S
C617 C601 1.349 . S
C617 H609 0.950 . S
C617 C615 1.327 . S
C618 C606 1.349 . S
C618 H612 0.950 . S
C618 C619 1.327 . S
C619 H613 0.950 . S
C619 C618 1.327 . S
C619 C623 1.429 . S
C620 C603 1.574 . S
C620 H614 0.949 . S
C620 C624 1.368 . S
C621 C602 1.429 . S
C621 C615 1.429 . S
C621 C622 1.523 . S
C622 C603 1.368 . S
C622 C616 1.368 . S
C622 C621 1.523 . S
C623 C607 1.429 . S
C623 C619 1.429 . S
C623 C624 1.523 . S
C624 C608 1.368 . S
C624 C620 1.368 . S
C624 C623 1.523 . S
H625 C600 0.950 . S
H626 C602 0.950 . S
H627 C603 0.949 . S
H628 C605 0.950 . S
H629 C607 0.950 . S
C630 C631 1.349 . S
C630 C632 1.327 . S
C630 H655 0.950 . S
C631 C630 1.349 . S
C631 C647 1.349 . S
C632 C630 1.327 . S
C632 C651 1.429 . S
C632 H656 0.950 . S
C633 C650 1.574 . S
C633 C652 1.368 . S
C633 H657 0.949 . S
H634 C638 0.949 . S
C635 C636 1.349 . S
C635 C637 1.327 . S
C635 H658 0.950 . S
C636 C635 1.349 . S
C636 C648 1.349 . S
C637 C635 1.327 . S
C637 C653 1.429 . S
C637 H659 0.950 . S
C638 H634 0.949 . S
C638 C646 1.574 . S
C638 C654 1.368 . S
H639 C647 0.950 . S
H640 C645 0.950 . S
H641 C646 0.949 . S
H642 C648 0.950 . S
H643 C649 0.950 . S
H644 C650 0.949 . S
C645 H640 0.950 . S
C645 C647 1.327 . S
C645 C651 1.429 . S
C646 C638 1.574 . S
C646 H641 0.949 . S
C646 C652 1.368 . S
C647 C631 1.349 . S
C647 H639 0.950 . S
C647 C645 1.327 . S
C648 C636 1.349 . S
C648 H642 0.950 . S
C648 C649 1.327 . S
C649 H643 0.950 . S
C649 C648 1.327 . S
C649 C653 1.429 . S
C650 C633 1.574 . S
C650 H644 0.949 . S
C650 C654 1.368 . S
C651 C632 1.429 . S
C651 C645 1.429 . S
C651 C652 1.523 . S
C652 C633 1.368 . S
C652 C646 1.368 . S
C652 C651 1.523 . S
C653 C637 1.429 . S
C653 C649 1.429 . S
C653 C654 1.523 . S
C654 C638 1.368 . S
C654 C650 1.368 . S
C654 C653 1.523 . S
H655 C630 0.950 . S
H656 C632 0.950 . S
H657 C633 0.949 . S
H658 C635 0.950 . S
H659 C637 0.950 . S
C660 C661 1.349 . S
C660 C662 1.327 . S
C660 H685 0.950 . S
C661 C660 1.349 . S
C661 C677 1.349 . S
C662 C660 1.327 . S
C662 C681 1.429 . S
C662 H686 0.950 . S
C663 C680 1.574 . S
C663 C682 1.368 . S
C663 H687 0.949 . S
H664 C668 0.949 . S
C665 C666 1.334 1_556 S
C665 C667 1.339 . S
C665 H688 0.953 . S
C666 C665 1.334 1_554 S
C666 C678 1.349 . S
C667 C665 1.339 . S
C667 C683 1.429 . S
C667 H689 0.950 . S
C668 H664 0.949 . S
C668 C676 1.574 . S
C668 C684 1.368 . S
H669 C677 0.950 . S
H670 C675 0.950 . S
H671 C676 0.949 . S
H672 C678 0.950 . S
H673 C679 0.950 . S
H674 C680 0.949 . S
C675 H670 0.950 . S
C675 C677 1.327 . S
C675 C681 1.429 . S
C676 C668 1.574 . S
C676 H671 0.949 . S
C676 C682 1.368 . S
C677 C661 1.349 . S
C677 H669 0.950 . S
C677 C675 1.327 . S
C678 C666 1.349 . S
C678 H672 0.950 . S
C678 C679 1.327 . S
C679 H673 0.950 . S
C679 C678 1.327 . S
C679 C683 1.429 1_554 S
C680 C663 1.574 . S
C680 H674 0.949 . S
C680 C684 1.368 . S
C681 C662 1.429 . S
C681 C675 1.429 . S
C681 C682 1.523 . S
C682 C663 1.368 . S
C682 C676 1.368 . S
C682 C681 1.523 . S
C683 C667 1.429 . S
C683 C679 1.429 1_556 S
C683 C684 1.523 . S
C684 C668 1.368 . S
C684 C680 1.368 . S
C684 C683 1.523 . S
H685 C660 0.950 . S
H686 C662 0.950 . S
H687 C663 0.949 . S
H688 C665 0.953 . S
H689 C667 0.950 . S
C690 C691 1.349 . S
C690 C692 1.327 . S
C690 H715 0.950 . S
C691 C690 1.349 . S
C691 C707 1.349 . S
C692 C690 1.327 . S
C692 C711 1.429 . S
C692 H716 0.950 . S
C693 C710 1.574 . S
C693 C712 1.368 . S
C693 H717 0.949 . S
H694 C698 0.949 . S
C695 C696 1.349 . S
C695 C697 1.327 . S
C695 H718 0.950 . S
C696 C695 1.349 . S
C696 C708 1.349 . S
C697 C695 1.327 . S
C697 C713 1.429 . S
C697 H719 0.950 . S
C698 H694 0.949 . S
C698 C706 1.574 . S
C698 C714 1.368 . S
H699 C707 0.950 . S
H700 C705 0.950 . S
H701 C706 0.949 . S
H702 C708 0.950 . S
H703 C709 0.950 . S
H704 C710 0.949 . S
C705 H700 0.950 . S
C705 C707 1.327 . S
C705 C711 1.429 . S
C706 C698 1.574 . S
C706 H701 0.949 . S
C706 C712 1.368 . S
C707 C691 1.349 . S
C707 H699 0.950 . S
C707 C705 1.327 . S
C708 C696 1.349 . S
C708 H702 0.950 . S
C708 C709 1.327 . S
C709 H703 0.950 . S
C709 C708 1.327 . S
C709 C713 1.429 . S
C710 C693 1.574 . S
C710 H704 0.949 . S
C710 C714 1.368 . S
C711 C692 1.429 . S
C711 C705 1.429 . S
C711 C712 1.523 . S
C712 C693 1.368 . S
C712 C706 1.368 . S
C712 C711 1.523 . S
C713 C697 1.429 . S
C713 C709 1.429 . S
C713 C714 1.523 . S
C714 C698 1.368 . S
C714 C710 1.368 . S
C714 C713 1.523 . S
H715 C690 0.950 . S
H716 C692 0.950 . S
H717 C693 0.949 . S
H718 C695 0.950 . S
H719 C697 0.950 . S
C720 C721 1.349 . S
C720 C722 1.327 . S
C720 H745 0.950 . S
C721 C720 1.349 . S
C721 C737 1.349 . S
C722 C720 1.327 . S
C722 C741 1.429 . S
C722 H746 0.950 . S
C723 C740 1.574 . S
C723 C742 1.368 . S
C723 H747 0.949 . S
H724 C728 0.949 . S
C725 C726 1.349 . S
C725 C727 1.327 . S
C725 H748 0.950 . S
C726 C725 1.349 . S
C726 C738 1.349 . S
C727 C725 1.327 . S
C727 C743 1.429 . S
C727 H749 0.950 . S
C728 H724 0.949 . S
C728 C736 1.574 . S
C728 C744 1.368 . S
H729 C737 0.950 . S
H730 C735 0.950 . S
H731 C736 0.949 . S
H732 C738 0.950 . S
H733 C739 0.950 . S
H734 C740 0.949 . S
C735 H730 0.950 . S
C735 C737 1.327 . S
C735 C741 1.429 . S
C736 C728 1.574 . S
C736 H731 0.949 . S
C736 C742 1.368 . S
C737 C721 1.349 . S
C737 H729 0.950 . S
C737 C735 1.327 . S
C738 C726 1.349 . S
C738 H732 0.950 . S
C738 C739 1.327 . S
C739 H733 0.950 . S
C739 C738 1.327 . S
C739 C743 1.429 . S
C740 C723 1.574 . S
C740 H734 0.949 . S
C740 C744 1.368 . S
C741 C722 1.429 . S
C741 C735 1.429 . S
C741 C742 1.523 . S
C742 C723 1.368 . S
C742 C736 1.368 . S
C742 C741 1.523 . S
C743 C727 1.429 . S
C743 C739 1.429 . S
C743 C744 1.523 . S
C744 C728 1.368 . S
C744 C740 1.368 . S
C744 C743 1.523 . S
H745 C720 0.950 . S
H746 C722 0.950 . S
H747 C723 0.949 . S
H748 C725 0.950 . S
H749 C727 0.950 . S
C750 C751 1.349 . S
C750 C752 1.327 . S
C750 H775 0.950 . S
C751 C750 1.349 . S
C751 C767 1.349 . S
C752 C750 1.327 . S
C752 C771 1.429 . S
C752 H776 0.950 . S
C753 C770 1.574 . S
C753 C772 1.368 . S
C753 H777 0.949 . S
H754 C758 0.949 . S
C755 C756 1.349 . S
C755 C757 1.327 . S
C755 H778 0.950 . S
C756 C755 1.349 . S
C756 C768 1.349 . S
C757 C755 1.327 . S
C757 C773 1.429 . S
C757 H779 0.950 . S
C758 H754 0.949 . S
C758 C766 1.574 . S
C758 C774 1.368 . S
H759 C767 0.950 . S
H760 C765 0.950 . S
H761 C766 0.949 . S
H762 C768 0.950 . S
H763 C769 0.950 . S
H764 C770 0.949 . S
C765 H760 0.950 . S
C765 C767 1.327 . S
C765 C771 1.429 . S
C766 C758 1.574 . S
C766 H761 0.949 . S
C766 C772 1.368 . S
C767 C751 1.349 . S
C767 H759 0.950 . S
C767 C765 1.327 . S
C768 C756 1.349 . S
C768 H762 0.950 . S
C768 C769 1.327 . S
C769 H763 0.950 . S
C769 C768 1.327 . S
C769 C773 1.429 . S
C770 C753 1.574 . S
C770 H764 0.949 . S
C770 C774 1.368 . S
C771 C752 1.429 . S
C771 C765 1.429 . S
C771 C772 1.523 . S
C772 C753 1.368 . S
C772 C766 1.368 . S
C772 C771 1.523 . S
C773 C757 1.429 . S
C773 C769 1.429 . S
C773 C774 1.523 . S
C774 C758 1.368 . S
C774 C770 1.368 . S
C774 C773 1.523 . S
H775 C750 0.950 . S
H776 C752 0.950 . S
H777 C753 0.949 . S
H778 C755 0.950 . S
H779 C757 0.950 . S
C780 C781 1.349 . S
C780 C782 1.327 . S
C780 H805 0.950 . S
C781 C780 1.349 . S
C781 C797 1.349 . S
C782 C780 1.327 . S
C782 C801 1.429 . S
C782 H806 0.950 . S
C783 C800 1.574 . S
C783 C802 1.368 . S
C783 H807 0.949 . S
H784 C788 0.949 . S
C785 C786 1.349 . S
C785 C787 1.327 . S
C785 H808 0.950 . S
C786 C785 1.349 . S
C786 C798 1.349 . S
C787 C785 1.327 . S
C787 C803 1.429 . S
C787 H809 0.950 . S
C788 H784 0.949 . S
C788 C796 1.574 . S
C788 C804 1.368 . S
H789 C797 0.950 . S
H790 C795 0.950 . S
H791 C796 0.949 . S
H792 C798 0.950 . S
H793 C799 0.950 . S
H794 C800 0.949 . S
C795 H790 0.950 . S
C795 C797 1.327 . S
C795 C801 1.429 . S
C796 C788 1.574 . S
C796 H791 0.949 . S
C796 C802 1.368 . S
C797 C781 1.349 . S
C797 H789 0.950 . S
C797 C795 1.327 . S
C798 C786 1.349 . S
C798 H792 0.950 . S
C798 C799 1.327 . S
C799 H793 0.950 . S
C799 C798 1.327 . S
C799 C803 1.429 . S
C800 C783 1.574 . S
C800 H794 0.949 . S
C800 C804 1.368 . S
C801 C782 1.429 . S
C801 C795 1.429 . S
C801 C802 1.523 . S
C802 C783 1.368 . S
C802 C796 1.368 . S
C802 C801 1.523 . S
C803 C787 1.429 . S
C803 C799 1.429 . S
C803 C804 1.523 . S
C804 C788 1.368 . S
C804 C800 1.368 . S
C804 C803 1.523 . S
H805 C780 0.950 . S
H806 C782 0.950 . S
H807 C783 0.949 . S
H808 C785 0.950 . S
H809 C787 0.950 . S
C810 C811 1.349 . S
C810 C812 1.327 . S
C810 H835 0.950 . S
C811 C810 1.349 . S
C811 C827 1.349 . S
C812 C810 1.327 . S
C812 C831 1.429 . S
C812 H836 0.950 . S
C813 C830 1.574 . S
C813 C832 1.368 . S
C813 H837 0.949 . S
H814 C818 0.949 . S
C815 C816 1.349 . S
C815 C817 1.327 . S
C815 H838 0.950 . S
C816 C815 1.349 . S
C816 C828 1.349 . S
C817 C815 1.327 . S
C817 C833 1.429 . S
C817 H839 0.950 . S
C818 H814 0.949 . S
C818 C826 1.574 . S
C818 C834 1.368 . S
H819 C827 0.950 . S
H820 C825 0.950 . S
H821 C826 0.949 . S
H822 C828 0.950 . S
H823 C829 0.950 . S
H824 C830 0.949 . S
C825 H820 0.950 . S
C825 C827 1.327 . S
C825 C831 1.429 . S
C826 C818 1.574 . S
C826 H821 0.949 . S
C826 C832 1.368 . S
C827 C811 1.349 . S
C827 H819 0.950 . S
C827 C825 1.327 . S
C828 C816 1.349 . S
C828 H822 0.950 . S
C828 C829 1.327 . S
C829 H823 0.950 . S
C829 C828 1.327 . S
C829 C833 1.429 . S
C830 C813 1.574 . S
C830 H824 0.949 . S
C830 C834 1.368 . S
C831 C812 1.429 . S
C831 C825 1.429 . S
C831 C832 1.523 . S
C832 C813 1.368 . S
C832 C826 1.368 . S
C832 C831 1.523 . S
C833 C817 1.429 . S
C833 C829 1.429 . S
C833 C834 1.523 . S
C834 C818 1.368 . S
C834 C830 1.368 . S
C834 C833 1.523 . S
H835 C810 0.950 . S
H836 C812 0.950 . S
H837 C813 0.949 . S
H838 C815 0.950 . S
H839 C817 0.950 . S
C840 C841 1.349 . S
C840 C842 1.327 . S
C840 H865 0.950 . S
C841 C840 1.349 . S
C841 C857 1.349 . S
C842 C840 1.327 . S
C842 C861 1.429 . S
C842 H866 0.950 . S
C843 C860 1.574 . S
C843 C862 1.368 . S
C843 H867 0.949 . S
H844 C848 0.949 . S
C845 C846 1.349 . S
C845 C847 1.327 . S
C845 H868 0.950 . S
C846 C845 1.349 . S
C846 C858 1.349 . S
C847 C845 1.327 . S
C847 C863 1.429 . S
C847 H869 0.950 . S
C848 H844 0.949 . S
C848 C856 1.574 . S
C848 C864 1.368 . S
H849 C857 0.950 . S
H850 C855 0.950 . S
H851 C856 0.949 . S
H852 C858 0.950 . S
H853 C859 0.950 . S
H854 C860 0.949 . S
C855 H850 0.950 . S
C855 C857 1.327 . S
C855 C861 1.429 . S
C856 C848 1.574 . S
C856 H851 0.949 . S
C856 C862 1.368 . S
C857 C841 1.349 . S
C857 H849 0.950 . S
C857 C855 1.327 . S
C858 C846 1.349 . S
C858 H852 0.950 . S
C858 C859 1.327 . S
C859 H853 0.950 . S
C859 C858 1.327 . S
C859 C863 1.429 . S
C860 C843 1.574 . S
C860 H854 0.949 . S
C860 C864 1.368 . S
C861 C842 1.429 . S
C861 C855 1.429 . S
C861 C862 1.523 . S
C862 C843 1.368 . S
C862 C856 1.368 . S
C862 C861 1.523 . S
C863 C847 1.429 . S
C863 C859 1.429 . S
C863 C864 1.523 . S
C864 C848 1.368 . S
C864 C860 1.368 . S
C864 C863 1.523 . S
H865 C840 0.950 . S
H866 C842 0.950 . S
H867 C843 0.949 . S
H868 C845 0.950 . S
H869 C847 0.950 . S
C870 C871 1.349 . S
C870 C872 1.327 . S
C870 H895 0.950 . S
C871 C870 1.349 . S
C871 C887 1.349 . S
C872 C870 1.327 . S
C872 C891 1.429 . S
C872 H896 0.950 . S
C873 C890 1.574 . S
C873 C892 1.368 . S
C873 H897 0.949 . S
H874 C878 0.949 . S
C875 C876 1.349 . S
C875 C877 1.327 . S
C875 H898 0.950 . S
C876 C875 1.349 . S
C876 C888 1.349 . S
C877 C875 1.327 . S
C877 C893 1.429 . S
C877 H899 0.950 . S
C878 H874 0.949 . S
C878 C886 1.574 . S
C878 C894 1.368 . S
H879 C887 0.950 . S
H880 C885 0.950 . S
H881 C886 0.949 . S
H882 C888 0.950 . S
H883 C889 0.951 . S
H884 C890 0.949 . S
C885 H880 0.950 . S
C885 C887 1.327 . S
C885 C891 1.429 . S
C886 C878 1.574 . S
C886 H881 0.949 . S
C886 C892 1.368 . S
C887 C871 1.349 . S
C887 H879 0.950 . S
C887 C885 1.327 . S
C888 C876 1.349 . S
C888 H882 0.950 . S
C888 C889 1.327 . S
C889 H883 0.951 . S
C889 C888 1.327 . S
C889 C893 1.429 . S
C890 C873 1.574 . S
C890 H884 0.949 . S
C890 C894 1.368 . S
C891 C872 1.429 . S
C891 C885 1.429 . S
C891 C892 1.523 . S
C892 C873 1.368 . S
C892 C886 1.368 . S
C892 C891 1.523 . S
C893 C877 1.429 . S
C893 C889 1.429 . S
C893 C894 1.523 1_556 S
C894 C878 1.368 . S
C894 C890 1.368 . S
C894 C893 1.523 1_554 S
H895 C870 0.950 . S
H896 C872 0.950 . S
H897 C873 0.949 . S
H898 C875 0.950 . S
H899 C877 0.950 . S
C900 C901 1.349 . S
C900 C902 1.327 . S
C900 H925 0.950 . S
C901 C900 1.349 . S
C901 C917 1.349 . S
C902 C900 1.327 . S
C902 C921 1.429 . S
C902 H926 0.950 . S
C903 C920 1.574 . S
C903 C922 1.368 . S
C903 H927 0.949 . S
H904 C908 0.949 . S
C905 C906 1.349 . S
C905 C907 1.327 . S
C905 H928 0.950 . S
C906 C905 1.349 . S
C906 C918 1.349 . S
C907 C905 1.327 . S
C907 C923 1.429 . S
C907 H929 0.950 . S
C908 H904 0.949 . S
C908 C916 1.574 . S
C908 C924 1.368 . S
H909 C917 0.950 . S
H910 C915 0.950 . S
H911 C916 0.949 . S
H912 C918 0.950 . S
H913 C919 0.950 . S
H914 C920 0.949 . S
C915 H910 0.950 . S
C915 C917 1.327 . S
C915 C921 1.429 . S
C916 C908 1.574 . S
C916 H911 0.949 . S
C916 C922 1.368 . S
C917 C901 1.349 . S
C917 H909 0.950 . S
C917 C915 1.327 . S
C918 C906 1.349 . S
C918 H912 0.950 . S
C918 C919 1.327 . S
C919 H913 0.950 . S
C919 C918 1.327 . S
C919 C923 1.429 . S
C920 C903 1.574 . S
C920 H914 0.949 . S
C920 C924 1.368 . S
C921 C902 1.429 . S
C921 C915 1.429 . S
C921 C922 1.523 . S
C922 C903 1.368 . S
C922 C916 1.368 . S
C922 C921 1.523 . S
C923 C907 1.429 . S
C923 C919 1.429 . S
C923 C924 1.523 . S
C924 C908 1.368 . S
C924 C920 1.368 . S
C924 C923 1.523 . S
H925 C900 0.950 . S
H926 C902 0.950 . S
H927 C903 0.949 . S
H928 C905 0.950 . S
H929 C907 0.950 . S
C216 C196 1.617 . S
C211 C19 1.534 . S
C241 C40 1.523 . S
C246 C137 1.614 . S
C271 C51 1.508 . S
C276 C140 1.611 . S
C301 C72 1.523 . S
C306 C154 1.622 . S
C336 C179 1.612 . S
C331 C103 1.521 . S
C361 C114 1.500 . S
C366 C182 1.603 . S
C391 C30 1.489 . S
C396 C151 1.596 . S
C421 C61 1.515 . S
C426 C165 1.602 . S
C451 C82 1.503 . S
C456 C168 1.584 . S
C486 C193 1.588 . S
C481 C93 1.482 1_554 S
C516 C207 1.600 . S
C511 C124 1.513 . S
C546 C126 1.590 . S
C541 C9 1.492 . S
C571 C17 1.429 . S
C576 C149 1.509 . S
C601 C38 1.434 . S
C606 C163 1.522 . S
C636 C173 1.521 . S
C631 C54 1.428 . S
C661 C75 1.422 . S
C666 C191 1.508 . S
C696 C205 1.520 . S
C691 C101 1.432 . S
C726 C131 1.522 . S
C721 C117 1.429 . S
C756 C201 1.549 . S
C751 C33 1.449 . S
C781 C59 1.443 . S
C786 C135 1.531 . S
C816 C145 1.541 . S
C811 C80 1.453 . S
C841 C96 1.450 . S
C846 C159 1.551 . S
C871 C122 1.442 . S
C876 C177 1.530 . S
C901 C12 1.447 . S
C906 C187 1.540 . S
