# Generated by pormake.
# Topology tsx, (6,3)-cn, num edge types: 1
# Building blocks:
#     Node 0, Type 0, BuildingBlock: MIDCAF_clean_sbu_0, # of connection points: 6
#     Node 1, Type 0, BuildingBlock: MIDCAF_clean_sbu_0, # of connection points: 6
#     Node 2, Type 1, BuildingBlock: INOVEN_clean_linker_0, # of connection points: 3
#     Node 3, Type 1, BuildingBlock: INOVEN_clean_linker_0, # of connection points: 3
#     Node 4, Type 1, BuildingBlock: INOVEN_clean_linker_0, # of connection points: 3
#     Node 5, Type 1, BuildingBlock: INOVEN_clean_linker_0, # of connection points: 3
#     Edge 6, Type (0, 1), BuildingBlock: EZIPEK_clean_linker_0, # of connection points: 2
#     Edge 7, Type (0, 1), BuildingBlock: EZIPEK_clean_linker_0, # of connection points: 2
#     Edge 8, Type (0, 1), BuildingBlock: EZIPEK_clean_linker_0, # of connection points: 2
#     Edge 9, Type (0, 1), BuildingBlock: EZIPEK_clean_linker_0, # of connection points: 2
#     Edge 10, Type (0, 1), BuildingBlock: EZIPEK_clean_linker_0, # of connection points: 2
#     Edge 11, Type (0, 1), BuildingBlock: EZIPEK_clean_linker_0, # of connection points: 2
#     Edge 12, Type (0, 1), BuildingBlock: EZIPEK_clean_linker_0, # of connection points: 2
#     Edge 13, Type (0, 1), BuildingBlock: EZIPEK_clean_linker_0, # of connection points: 2
#     Edge 14, Type (0, 1), BuildingBlock: EZIPEK_clean_linker_0, # of connection points: 2
#     Edge 15, Type (0, 1), BuildingBlock: EZIPEK_clean_linker_0, # of connection points: 2
#     Edge 16, Type (0, 1), BuildingBlock: EZIPEK_clean_linker_0, # of connection points: 2
#     Edge 17, Type (0, 1), BuildingBlock: EZIPEK_clean_linker_0, # of connection points: 2
# Relax obj value: 0.074
# Max RMSD: 0.146
# Mean RMSD: 0.101
data_MOF--net-tsx--node1-MIDCAF_clean_sbu_0--node2-INOVEN_clean_linker_0--edge1-EZIPEK_clean_linker_0
_symmetry_space_group_name_H-M    P1
_symmetry_Int_Tables_number       1
_symmetry_cell_setting            triclinic
loop_
_symmetry_equiv_pos_as_xyz
'x, y, z'
_cell_length_a     14.707483
_cell_length_b     15.258743
_cell_length_c     26.282566
_cell_angle_alpha  89.943179
_cell_angle_beta   106.37453
_cell_angle_gamma 88.851891
loop_
_atom_site_label
_atom_site_type_symbol
_atom_site_fract_x
_atom_site_fract_y
_atom_site_fract_z
_atom_type_partial_charge
Zn0 Zn 0.90399 0.93117 0.92408 0.0
Zn1 Zn 0.20237 0.91363 0.06691 0.0
Zn2 Zn 0.04804 0.94268 -0.00284 0.0
C3 C 0.1861 0.09177 0.03169 0.0
C4 C 0.21219 0.80839 -0.01184 0.0
O5 O 0.94468 0.86146 0.02117 0.0
O6 O 0.85363 0.82108 0.94272 0.0
C7 C 0.91178 0.09937 0.96933 0.0
O8 O 0.09755 0.075 0.0142 0.0
O9 O 0.24561 0.03083 0.05082 0.0
O10 O 0.24703 0.80736 0.03782 0.0
O11 O 0.14402 0.86215 0.96575 0.0
O12 O 0.85416 0.04285 0.94488 0.0
O13 O 0.99978 0.07847 -0.01139 0.0
O14 O 0.0856 0.90637 0.92327 0.0
O15 O 0.95203 0.93901 0.86219 0.0
C16 C 0.0395 0.92143 0.87442 0.0
O17 O 0.01319 0.88759 0.06723 0.0
O18 O 0.1504 0.90562 0.12749 0.0
C19 C 0.87825 0.81385 -0.00744 0.0
C20 C 0.06303 0.89081 0.11613 0.0
Zn21 Zn 0.73608 0.55413 0.54736 0.0
Zn22 Zn 0.39219 0.58375 0.43774 0.0
Zn23 Zn 0.5622 0.57146 0.49395 0.0
C24 C 0.49324 0.5193 0.37248 0.0
C25 C 0.4396 0.75181 0.46937 0.0
O26 O 0.56041 0.51117 0.56854 0.0
O27 O 0.70995 0.52885 0.61498 0.0
C28 C 0.72227 0.44228 0.46653 0.0
O29 O 0.55795 0.51496 0.4171 0.0
O30 O 0.41258 0.55211 0.36951 0.0
O31 O 0.36761 0.70694 0.44908 0.0
O32 O 0.52229 0.71451 0.48593 0.0
O33 O 0.77947 0.45664 0.51122 0.0
O34 O 0.64178 0.48412 0.45172 0.0
O35 O 0.62033 0.70639 0.50673 0.0
O36 O 0.77353 0.6735 0.53553 0.0
C37 C 0.70758 0.73009 0.52058 0.0
O38 O 0.47116 0.49468 0.53376 0.0
O39 O 0.33289 0.49824 0.47243 0.0
C40 C 0.6267 0.50677 0.61252 0.0
C41 C 0.38443 0.46977 0.51634 0.0
H42 H 0.14791 0.09632 0.45829 0.0
H43 H 0.19085 0.91688 0.34047 0.0
H44 H 0.92857 0.06173 0.31201 0.0
N45 N 0.97301 0.14743 0.40523 0.0
N46 N 0.8985 0.17846 0.37433 0.0
C47 C 0.12188 0.06375 0.42059 0.0
C48 C 0.17893 -0.0003 0.40512 0.0
C49 C 0.03055 0.0849 0.3879 0.0
C50 C 0.998 0.04479 0.33812 0.0
C51 C 0.0574 0.98754 0.31999 0.0
C52 C 0.14613 0.96314 0.35418 0.0
H53 H 0.98281 0.07792 0.52593 0.0
H54 H 0.95295 0.92726 0.65852 0.0
H55 H 0.18418 0.10417 0.67964 0.0
N56 N 0.13669 0.1612 0.57802 0.0
N57 N 0.1813 0.22248 0.60457 0.0
C58 C 0.00759 0.0594 0.56743 0.0
C59 C 0.95886 0.9962 0.58796 0.0
C60 C 0.0889 0.0984 0.60024 0.0
C61 C 0.12146 0.07447 0.65412 0.0
C62 C 0.07118 0.01412 0.67549 0.0
C63 C 0.99112 0.97464 0.64208 0.0
H64 H 0.61624 0.43823 0.97229 0.0
H65 H 0.72135 0.35881 0.84176 0.0
H66 H 0.47829 0.53024 0.81378 0.0
N67 N 0.47439 0.53886 0.91536 0.0
N68 N 0.40866 0.58196 0.88463 0.0
C69 C 0.61157 0.44039 0.93047 0.0
C70 C 0.67569 0.3908 0.91098 0.0
C71 C 0.5389 0.48928 0.8955 0.0
C72 C 0.53267 0.49093 0.84126 0.0
C73 C 0.59971 0.44596 0.8223 0.0
C74 C 0.67038 0.39496 0.8569 0.0
H75 H 0.46241 0.42647 0.01013 0.0
H76 H 0.39667 0.35327 0.15407 0.0
H77 H 0.62395 0.52723 0.16095 0.0
N78 N 0.60261 0.53337 0.05594 0.0
N79 N 0.666 0.58192 0.0819 0.0
C80 C 0.47662 0.42999 0.05281 0.0
C81 C 0.42271 0.38103 0.07882 0.0
C82 C 0.55055 0.48172 0.08225 0.0
C83 C 0.56887 0.48573 0.13759 0.0
C84 C 0.51147 0.44203 0.16299 0.0
C85 C 0.44011 0.38818 0.1339 0.0
C86 C 0.19699 0.25507 0.04929 0.0
C87 C 0.22404 0.17906 0.02574 0.0
C88 C 0.37344 0.24455 0.02536 0.0
C89 C 0.34839 0.32025 0.04999 0.0
N90 N 0.22436 0.40954 0.06829 0.0
N91 N 0.3161 0.11875 0.97105 0.0
C92 C 0.25535 0.3298 0.05561 0.0
C93 C 0.30437 0.1806 0.00628 0.0
N94 N 0.12059 0.25422 0.06908 0.0
N95 N 0.46483 0.22839 0.02488 0.0
H96 H 0.26538 0.07143 0.95616 0.0
H97 H 0.37039 0.12083 0.95273 0.0
H98 H 0.52014 0.27095 0.04027 0.0
H99 H 0.48716 0.16779 0.01401 0.0
H100 H 0.10445 0.30478 0.09191 0.0
H101 H 0.07625 0.20083 0.06533 0.0
H102 H 0.15472 0.42218 0.06877 0.0
H103 H 0.2663 0.46502 0.07299 0.0
C104 C 0.29934 0.78352 0.92057 0.0
C105 C 0.25163 0.74872 0.95582 0.0
C106 C 0.29579 0.59935 0.93727 0.0
C107 C 0.34629 0.63502 0.90394 0.0
N108 N 0.37458 0.75378 0.85112 0.0
N109 N 0.18556 0.62542 -0.01056 0.0
C110 C 0.34001 0.72494 0.89111 0.0
C111 C 0.24419 0.65688 0.96179 0.0
N112 N 0.31088 0.87194 0.91777 0.0
N113 N 0.29656 0.51065 0.94448 0.0
H114 H 0.14595 0.66631 0.00723 0.0
H115 H 0.17037 0.55953 -0.00826 0.0
H116 H 0.32571 0.46717 0.92245 0.0
H117 H 0.26984 0.47991 0.97237 0.0
H118 H 0.35333 0.90034 0.89685 0.0
H119 H 0.28369 0.9172 0.93959 0.0
H120 H 0.3642 0.81748 0.83605 0.0
H121 H 0.4065 0.71131 0.82981 0.0
C122 C 0.8701 0.68165 0.04734 0.0
C123 C 0.82446 0.75527 0.01726 0.0
C124 C 0.67049 0.70821 0.02487 0.0
C125 C 0.71726 0.6376 0.05751 0.0
N126 N 0.86031 0.56397 0.10749 0.0
N127 N 0.68553 0.84884 0.9854 0.0
C128 C 0.81688 0.62671 0.07116 0.0
C129 C 0.72556 0.77116 0.00785 0.0
N130 N 0.96289 0.66209 0.0511 0.0
N131 N 0.57386 0.7162 0.01123 0.0
H132 H 0.72433 0.89814 0.97425 0.0
H133 H 0.61588 0.86829 0.98212 0.0
H134 H 0.53164 0.67692 0.02728 0.0
H135 H 0.5348 0.75911 0.982 0.0
H136 H 0.9971 0.60402 0.06756 0.0
H137 H 0.00426 0.70128 0.03435 0.0
H138 H 0.93348 0.55862 0.12373 0.0
H139 H 0.8223 0.52073 0.12411 0.0
C140 C 0.78395 0.18748 -0.01168 0.0
C141 C 0.87198 0.18669 0.97637 0.0
C142 C 0.84339 0.33996 0.9488 0.0
C143 C 0.74627 0.33016 0.94554 0.0
N144 N 0.62195 0.23793 0.95806 0.0
N145 N 0.98712 0.26461 0.94448 0.0
C146 C 0.71599 0.2533 0.96564 0.0
C147 C 0.90401 0.26444 0.95792 0.0
N148 N 0.76344 0.12225 0.01866 0.0
N149 N 0.87603 0.42058 0.94111 0.0
H150 H 0.03278 0.21041 0.94938 0.0
H151 H 0.00783 0.31715 0.9253 0.0
H152 H 0.8319 0.47642 0.93428 0.0
H153 H 0.94765 0.43298 0.94689 0.0
H154 H 0.7026 0.12356 0.03163 0.0
H155 H 0.8118 0.07173 0.03482 0.0
H156 H 0.59756 0.17655 0.96477 0.0
H157 H 0.56779 0.28258 0.94044 0.0
C158 C 0.80439 0.83686 0.49071 0.0
C159 C 0.73633 0.82219 0.51821 0.0
C160 C 0.78855 0.95409 0.57005 0.0
C161 C 0.87352 0.95098 0.55437 0.0
N162 N 0.96252 0.88565 0.49881 0.0
N163 N 0.65596 0.87167 0.58128 0.0
C164 C 0.88046 0.89336 0.51307 0.0
C165 C 0.72408 0.88383 0.55603 0.0
N166 N 0.79878 0.79212 0.44504 0.0
N167 N 0.77121 0.02315 0.59918 0.0
H168 H 0.6068 0.8219 0.57084 0.0
H169 H 0.65085 0.90851 0.61374 0.0
H170 H 0.81735 0.07557 0.6091 0.0
H171 H 0.70756 0.03244 0.60867 0.0
H172 H 0.84246 0.8043 0.42084 0.0
H173 H 0.74341 0.74947 0.42903 0.0
H174 H 0.97415 0.8381 0.47279 0.0
H175 H 0.02222 0.92139 0.51654 0.0
C176 C 0.77349 0.38869 0.38832 0.0
C177 C 0.74621 0.37 0.43476 0.0
C178 C 0.80302 0.21753 0.43449 0.0
C179 C 0.83998 0.2395 0.39205 0.0
N180 N 0.83779 0.33307 0.3185 0.0
N181 N 0.72302 0.26642 0.49907 0.0
C182 C 0.81712 0.32107 0.36551 0.0
C183 C 0.75645 0.28375 0.45657 0.0
N184 N 0.76298 0.47212 0.36818 0.0
N185 N 0.80873 0.13231 0.45144 0.0
H186 H 0.68218 0.31174 0.51331 0.0
H187 H 0.73579 0.20824 0.52077 0.0
H188 H 0.83764 0.08228 0.43343 0.0
H189 H 0.77971 0.10919 0.48051 0.0
H190 H 0.78975 0.49272 0.33762 0.0
H191 H 0.72991 0.52252 0.38354 0.0
H192 H 0.81605 0.38776 0.29411 0.0
H193 H 0.87122 0.28436 0.30193 0.0
C194 C 0.29203 0.33419 0.51092 0.0
C195 C 0.34368 0.40124 0.54317 0.0
C196 C 0.29122 0.34494 0.61746 0.0
C197 C 0.23002 0.28628 0.58267 0.0
N198 N 0.14334 0.26161 0.49068 0.0
N199 N 0.37458 0.48217 0.62496 0.0
C200 C 0.22195 0.29039 0.52765 0.0
C201 C 0.33914 0.40989 0.59619 0.0
N202 N 0.30873 0.31275 0.46388 0.0
N203 N 0.3024 0.33913 0.67068 0.0
H204 H 0.40632 0.53253 0.60979 0.0
H205 H 0.36556 0.4954 0.66212 0.0
H206 H 0.26588 0.29399 0.68696 0.0
H207 H 0.35191 0.37526 0.69855 0.0
H208 H 0.27586 0.26015 0.44106 0.0
H209 H 0.36273 0.34079 0.45113 0.0
H210 H 0.13393 0.26945 0.45007 0.0
H211 H 0.08181 0.2441 0.49997 0.0
C212 C 0.42361 0.90312 0.43328 0.0
C213 C 0.42224 0.8463 0.47534 0.0
C214 C 0.28362 0.92326 0.48817 0.0
C215 C 0.27434 0.97005 0.43991 0.0
N216 N 0.35543 0.03271 0.38134 0.0
N217 N 0.38261 0.82689 0.55649 0.0
C218 C 0.35237 0.97027 0.41797 0.0
C219 C 0.36399 0.86692 0.5081 0.0
N220 N 0.48805 0.88775 0.40565 0.0
N221 N 0.21298 0.92606 0.51242 0.0
H222 H 0.4401 0.78316 0.56977 0.0
H223 H 0.34747 0.84279 0.58465 0.0
H224 H 0.15462 0.96812 0.50067 0.0
H225 H 0.2107 0.88453 0.54347 0.0
H226 H 0.48703 0.92033 0.37067 0.0
H227 H 0.54161 0.83988 0.41793 0.0
H228 H 0.41255 0.03976 0.36572 0.0
H229 H 0.30353 0.08234 0.3704 0.0
C230 C 0.02768 0.84212 0.19917 0.0
C231 C 0.01838 0.90629 0.1591 0.0
C232 C 0.02004 0.02323 0.22254 0.0
C233 C 0.03118 0.95944 0.26349 0.0
N234 N 0.01836 0.80881 0.28796 0.0
N235 N 0.97365 0.0536 0.12822 0.0
C236 C 0.02547 0.86879 0.25075 0.0
C237 C 1.00135 0.99513 0.16933 0.0
N238 N 0.04329 0.75661 0.18835 0.0
N239 N 0.03673 0.10977 0.23448 0.0
H240 H 0.96352 0.03499 0.08892 0.0
H241 H 0.952 0.11787 0.13271 0.0
H242 H 0.05782 0.13375 0.27301 0.0
H243 H 0.03954 0.15697 0.20634 0.0
H244 H 0.06142 0.70743 0.21715 0.0
H245 H 0.04146 0.73619 0.15018 0.0
H246 H 0.00695 0.74248 0.27991 0.0
H247 H 0.01531 0.82704 0.32572 0.0
C248 C 0.09309 0.03293 0.82273 0.0
C249 C 0.0891 0.94296 0.83464 0.0
C250 C 0.11861 0.90515 0.75041 0.0
C251 C 0.09757 0.99363 0.73332 0.0
N252 N 0.05996 0.14272 0.75351 0.0
N253 N 0.10422 0.79188 0.81274 0.0
C254 C 0.08626 0.05856 0.76994 0.0
C255 C 0.10586 0.87835 0.7998 0.0
N256 N 0.09853 0.09373 0.86156 0.0
N257 N 0.14921 0.84723 0.71893 0.0
H258 H 0.09745 0.77174 0.84946 0.0
H259 H 0.106 0.7409 0.78672 0.0
H260 H 0.15975 0.86614 0.68286 0.0
H261 H 0.1723 0.78348 0.73071 0.0
H262 H 0.11001 0.15998 0.8567 0.0
H263 H 0.10099 0.07598 0.90029 0.0
H264 H 0.03996 0.18949 0.77735 0.0
H265 H 0.0502 0.16473 0.71482 0.0
C266 C 0.61466 0.56191 0.69823 0.0
C267 C 0.60448 0.49105 0.66259 0.0
C268 C 0.57663 0.39181 0.72934 0.0
C269 C 0.6009 0.46025 0.76703 0.0
N270 N 0.65959 0.60625 0.78979 0.0
N271 N 0.58008 0.33773 0.64298 0.0
C272 C 0.62407 0.5444 0.75214 0.0
C273 C 0.58602 0.40558 0.67758 0.0
N274 N 0.61399 0.64615 0.68022 0.0
N275 N 0.54287 0.31494 0.74274 0.0
H276 H 0.58357 0.34669 0.60421 0.0
H277 H 0.5767 0.2723 0.65341 0.0
H278 H 0.5351 0.30307 0.78037 0.0
H279 H 0.51535 0.26592 0.71556 0.0
H280 H 0.61183 0.70085 0.70359 0.0
H281 H 0.60552 0.6615 0.64041 0.0
H282 H 0.68679 0.66531 0.78135 0.0
H283 H 0.67088 0.5954 0.8303 0.0
C284 C 0.53516 0.41241 0.3096 0.0
C285 C 0.51577 0.49941 0.32279 0.0
C286 C 0.49378 0.54784 0.2319 0.0
C287 C 0.51811 0.46202 0.21882 0.0
N288 N 0.58368 0.31806 0.24735 0.0
N289 N 0.50734 0.65377 0.30163 0.0
C290 C 0.54597 0.3958 0.25844 0.0
C291 C 0.50547 0.56844 0.28555 0.0
N292 N 0.5388 0.34553 0.34475 0.0
N293 N 0.45409 0.60823 0.19307 0.0
H294 H 0.51798 0.67125 0.34125 0.0
H295 H 0.50872 0.70654 0.27667 0.0
H296 H 0.43943 0.5951 0.15268 0.0
H297 H 0.42649 0.66856 0.20083 0.0
H298 H 0.54327 0.27967 0.33518 0.0
H299 H 0.53134 0.35573 0.38262 0.0
H300 H 0.61361 0.2708 0.27616 0.0
H301 H 0.59282 0.30438 0.21019 0.0
loop_
_geom_bond_atom_site_label_1
_geom_bond_atom_site_label_2
_geom_bond_distance
_geom_bond_site_symmetry_2
_ccdc_geom_bond_type
Zn0 O6 1.920 1_545 S
Zn0 O12 1.898 . S
Zn0 O15 1.905 1_545 S
Zn1 O9 1.905 . S
Zn1 O10 1.898 1_545 S
Zn1 O18 1.920 1_545 S
Zn2 O5 2.080 1_444 S
Zn2 O8 2.114 . S
Zn2 O11 2.120 1_545 S
Zn2 O13 2.120 1_455 S
Zn2 O14 2.114 1_554 S
Zn2 O17 2.080 . S
C3 O8 1.166 . S
C3 O9 1.182 . S
C4 O10 1.167 . S
C4 O11 1.299 . S
O5 Zn2 2.080 1_666 S
O5 C19 1.305 . S
O6 Zn0 1.920 1_565 S
O6 C19 1.234 . S
C7 O12 1.167 . S
C7 O13 1.299 1_556 S
O8 Zn2 2.114 . S
O8 C3 1.166 . S
O9 Zn1 1.905 . S
O9 C3 1.182 . S
O10 Zn1 1.898 1_565 S
O10 C4 1.167 . S
O11 Zn2 2.120 1_565 S
O11 C4 1.299 . S
O12 Zn0 1.898 . S
O12 C7 1.167 . S
O13 Zn2 2.120 1_655 S
O13 C7 1.299 1_554 S
O14 Zn2 2.114 1_556 S
O14 C16 1.166 1_445 S
O15 Zn0 1.905 1_565 S
O15 C16 1.182 . S
C16 O14 1.166 1_665 S
C16 O15 1.182 . S
O17 Zn2 2.080 . S
O17 C20 1.305 1_545 S
O18 Zn1 1.920 1_565 S
O18 C20 1.234 . S
C19 O5 1.305 . S
C19 O6 1.234 . S
C20 O17 1.305 1_565 S
C20 O18 1.234 . S
Zn21 O27 1.920 . S
Zn21 O33 1.898 . S
Zn21 O36 1.905 . S
Zn22 O30 1.905 . S
Zn22 O31 1.898 . S
Zn22 O39 1.920 . S
Zn23 O26 2.080 . S
Zn23 O29 2.114 . S
Zn23 O32 2.120 . S
Zn23 O34 2.120 . S
Zn23 O35 2.114 . S
Zn23 O38 2.080 . S
C24 O29 1.166 . S
C24 O30 1.182 . S
C25 O31 1.167 . S
C25 O32 1.299 . S
O26 Zn23 2.080 . S
O26 C40 1.305 . S
O27 Zn21 1.920 . S
O27 C40 1.234 . S
C28 O33 1.167 . S
C28 O34 1.299 . S
O29 Zn23 2.114 . S
O29 C24 1.166 . S
O30 Zn22 1.905 . S
O30 C24 1.182 . S
O31 Zn22 1.898 . S
O31 C25 1.167 . S
O32 Zn23 2.120 . S
O32 C25 1.299 . S
O33 Zn21 1.898 . S
O33 C28 1.167 . S
O34 Zn23 2.120 . S
O34 C28 1.299 . S
O35 Zn23 2.114 . S
O35 C37 1.166 . S
O36 Zn21 1.905 . S
O36 C37 1.182 . S
C37 O35 1.166 . S
C37 O36 1.182 . S
O38 Zn23 2.080 . S
O38 C41 1.305 . S
O39 Zn22 1.920 . S
O39 C41 1.234 . S
C40 O26 1.305 . S
C40 O27 1.234 . S
C41 O38 1.305 . S
C41 O39 1.234 . S
H42 C47 0.929 . S
H43 C52 0.931 . S
H44 C50 0.930 . S
N45 N46 1.234 1_455 S
N45 C49 1.453 . S
N46 N45 1.234 1_655 S
C47 H42 0.929 . S
C47 C48 1.373 . S
C47 C49 1.368 1_565 S
C48 C47 1.373 . S
C48 C52 1.397 . S
C49 N45 1.453 . S
C49 C47 1.368 1_545 S
C49 C50 1.373 . S
C50 H44 0.930 . S
C50 C49 1.373 . S
C50 C51 1.371 . S
C51 C50 1.371 . S
C51 C52 1.383 1_545 S
C52 H43 0.931 . S
C52 C48 1.397 . S
C52 C51 1.383 1_565 S
H53 C58 0.929 . S
H54 C63 0.931 . S
H55 C61 0.930 . S
N56 N57 1.234 . S
N56 C60 1.453 . S
N57 N56 1.234 . S
C58 H53 0.929 . S
C58 C59 1.373 . S
C58 C60 1.368 1_665 S
C59 C58 1.373 . S
C59 C63 1.397 . S
C60 N56 1.453 . S
C60 C58 1.368 1_445 S
C60 C61 1.373 . S
C61 H55 0.930 . S
C61 C60 1.373 . S
C61 C62 1.371 1_455 S
C62 C61 1.371 1_655 S
C62 C63 1.383 1_545 S
C63 H54 0.931 . S
C63 C59 1.397 . S
C63 C62 1.383 1_565 S
H64 C69 0.929 . S
H65 C74 0.931 . S
H66 C72 0.930 . S
N67 N68 1.234 . S
N67 C71 1.453 . S
N68 N67 1.234 . S
C69 H64 0.929 . S
C69 C70 1.373 . S
C69 C71 1.368 . S
C70 C69 1.373 . S
C70 C74 1.397 . S
C71 N67 1.453 . S
C71 C69 1.368 . S
C71 C72 1.373 . S
C72 H66 0.930 . S
C72 C71 1.373 . S
C72 C73 1.371 . S
C73 C72 1.371 . S
C73 C74 1.383 . S
C74 H65 0.931 . S
C74 C70 1.397 . S
C74 C73 1.383 . S
H75 C80 0.929 . S
H76 C85 0.931 . S
H77 C83 0.930 . S
N78 N79 1.234 . S
N78 C82 1.453 . S
N79 N78 1.234 . S
C80 H75 0.929 . S
C80 C81 1.373 . S
C80 C82 1.368 . S
C81 C80 1.373 . S
C81 C85 1.397 . S
C82 N78 1.453 . S
C82 C80 1.368 . S
C82 C83 1.373 . S
C83 H77 0.930 . S
C83 C82 1.373 . S
C83 C84 1.371 . S
C84 C83 1.371 . S
C84 C85 1.383 . S
C85 H76 0.931 . S
C85 C81 1.397 . S
C85 C84 1.383 . S
C86 C87 1.363 . S
C86 C92 1.379 . S
C86 N94 1.356 . S
C87 C86 1.363 . S
C87 C93 1.363 . S
C88 C89 1.363 . S
C88 C93 1.379 . S
C88 N95 1.356 1_554 S
C89 C88 1.363 . S
C89 C92 1.363 . S
N90 C92 1.356 . S
N90 H102 0.984 . S
N90 H103 0.985 . S
N91 C93 1.356 1_556 S
N91 H96 0.984 . S
N91 H97 0.985 . S
C92 C86 1.379 . S
C92 C89 1.363 . S
C92 N90 1.356 . S
C93 C87 1.363 . S
C93 C88 1.379 . S
C93 N91 1.356 1_554 S
N94 C86 1.356 . S
N94 H100 0.984 . S
N94 H101 0.984 . S
N95 C88 1.356 1_556 S
N95 H98 0.984 1_556 S
N95 H99 0.985 . S
H96 N91 0.984 . S
H97 N91 0.985 . S
H98 N95 0.984 1_554 S
H99 N95 0.985 . S
H100 N94 0.984 . S
H101 N94 0.984 . S
H102 N90 0.984 . S
H103 N90 0.985 . S
C104 C105 1.363 1_554 S
C104 C110 1.379 . S
C104 N112 1.356 . S
C105 C104 1.363 1_556 S
C105 C111 1.363 . S
C106 C107 1.363 . S
C106 C111 1.379 . S
C106 N113 1.356 . S
C107 C106 1.363 . S
C107 C110 1.363 1_556 S
N108 C110 1.356 . S
N108 H120 0.984 . S
N108 H121 0.985 . S
N109 C111 1.356 . S
N109 H114 0.984 . S
N109 H115 0.985 . S
C110 C104 1.379 . S
C110 C107 1.363 1_554 S
C110 N108 1.356 . S
C111 C105 1.363 . S
C111 C106 1.379 . S
C111 N109 1.356 . S
N112 C104 1.356 . S
N112 H118 0.984 . S
N112 H119 0.984 . S
N113 C106 1.356 . S
N113 H116 0.984 . S
N113 H117 0.985 . S
H114 N109 0.984 . S
H115 N109 0.985 . S
H116 N113 0.984 . S
H117 N113 0.985 . S
H118 N112 0.984 . S
H119 N112 0.984 . S
H120 N108 0.984 . S
H121 N108 0.985 . S
C122 C123 1.363 . S
C122 C128 1.379 . S
C122 N130 1.356 . S
C123 C122 1.363 . S
C123 C129 1.363 1_554 S
C124 C125 1.363 1_556 S
C124 C129 1.379 . S
C124 N131 1.356 . S
C125 C124 1.363 1_554 S
C125 C128 1.363 . S
N126 C128 1.356 . S
N126 H138 0.984 . S
N126 H139 0.985 . S
N127 C129 1.356 . S
N127 H132 0.984 . S
N127 H133 0.985 . S
C128 C122 1.379 . S
C128 C125 1.363 . S
C128 N126 1.356 . S
C129 C123 1.363 1_556 S
C129 C124 1.379 . S
C129 N127 1.356 . S
N130 C122 1.356 . S
N130 H136 0.984 . S
N130 H137 0.984 . S
N131 C124 1.356 . S
N131 H134 0.984 . S
N131 H135 0.985 . S
H132 N127 0.984 . S
H133 N127 0.985 . S
H134 N131 0.984 . S
H135 N131 0.985 . S
H136 N130 0.984 . S
H137 N130 0.984 . S
H138 N126 0.984 . S
H139 N126 0.985 . S
C140 C141 1.363 1_554 S
C140 C146 1.379 1_554 S
C140 N148 1.356 . S
C141 C140 1.363 1_556 S
C141 C147 1.363 . S
C142 C143 1.363 . S
C142 C147 1.379 . S
C142 N149 1.356 . S
C143 C142 1.363 . S
C143 C146 1.363 . S
N144 C146 1.356 1_554 S
N144 H156 0.984 . S
N144 H157 0.985 1_554 S
N145 C147 1.356 . S
N145 H150 0.984 . S
N145 H151 0.985 . S
C146 C140 1.379 1_556 S
C146 C143 1.363 . S
C146 N144 1.356 1_556 S
C147 C141 1.363 . S
C147 C142 1.379 . S
C147 N145 1.356 . S
N148 C140 1.356 . S
N148 H154 0.984 . S
N148 H155 0.984 . S
N149 C142 1.356 . S
N149 H152 0.984 . S
N149 H153 0.985 . S
H150 N145 0.984 . S
H151 N145 0.985 . S
H152 N149 0.984 . S
H153 N149 0.985 . S
H154 N148 0.984 . S
H155 N148 0.984 . S
H156 N144 0.984 . S
H157 N144 0.985 1_556 S
C158 C159 1.363 . S
C158 C164 1.379 . S
C158 N166 1.356 . S
C159 C158 1.363 . S
C159 C165 1.363 . S
C160 C161 1.363 . S
C160 C165 1.379 . S
C160 N167 1.356 . S
C161 C160 1.363 . S
C161 C164 1.363 . S
N162 C164 1.356 . S
N162 H174 0.984 . S
N162 H175 0.985 . S
N163 C165 1.356 . S
N163 H168 0.984 . S
N163 H169 0.985 . S
C164 C158 1.379 . S
C164 C161 1.363 . S
C164 N162 1.356 . S
C165 C159 1.363 . S
C165 C160 1.379 . S
C165 N163 1.356 . S
N166 C158 1.356 . S
N166 H172 0.984 . S
N166 H173 0.984 . S
N167 C160 1.356 . S
N167 H170 0.984 . S
N167 H171 0.985 . S
H168 N163 0.984 . S
H169 N163 0.985 . S
H170 N167 0.984 . S
H171 N167 0.985 . S
H172 N166 0.984 . S
H173 N166 0.984 . S
H174 N162 0.984 . S
H175 N162 0.985 . S
C176 C177 1.363 . S
C176 C182 1.379 . S
C176 N184 1.356 . S
C177 C176 1.363 . S
C177 C183 1.363 . S
C178 C179 1.363 . S
C178 C183 1.379 . S
C178 N185 1.356 . S
C179 C178 1.363 . S
C179 C182 1.363 . S
N180 C182 1.356 . S
N180 H192 0.984 . S
N180 H193 0.985 1_655 S
N181 C183 1.356 . S
N181 H186 0.984 . S
N181 H187 0.985 . S
C182 C176 1.379 . S
C182 C179 1.363 . S
C182 N180 1.356 . S
C183 C177 1.363 . S
C183 C178 1.379 . S
C183 N181 1.356 . S
N184 C176 1.356 . S
N184 H190 0.984 . S
N184 H191 0.984 . S
N185 C178 1.356 . S
N185 H188 0.984 . S
N185 H189 0.985 . S
H186 N181 0.984 . S
H187 N181 0.985 . S
H188 N185 0.984 . S
H189 N185 0.985 . S
H190 N184 0.984 . S
H191 N184 0.984 . S
H192 N180 0.984 . S
H193 N180 0.985 1_455 S
C194 C195 1.363 . S
C194 C200 1.379 . S
C194 N202 1.356 . S
C195 C194 1.363 . S
C195 C201 1.363 . S
C196 C197 1.363 . S
C196 C201 1.379 . S
C196 N203 1.356 . S
C197 C196 1.363 . S
C197 C200 1.363 . S
N198 C200 1.356 . S
N198 H210 0.984 . S
N198 H211 0.985 . S
N199 C201 1.356 . S
N199 H204 0.984 . S
N199 H205 0.985 . S
C200 C194 1.379 . S
C200 C197 1.363 . S
C200 N198 1.356 . S
C201 C195 1.363 . S
C201 C196 1.379 . S
C201 N199 1.356 . S
N202 C194 1.356 . S
N202 H208 0.984 . S
N202 H209 0.984 . S
N203 C196 1.356 . S
N203 H206 0.984 . S
N203 H207 0.985 . S
H204 N199 0.984 . S
H205 N199 0.985 . S
H206 N203 0.984 . S
H207 N203 0.985 . S
H208 N202 0.984 . S
H209 N202 0.984 . S
H210 N198 0.984 . S
H211 N198 0.985 . S
C212 C213 1.363 . S
C212 C218 1.379 . S
C212 N220 1.356 . S
C213 C212 1.363 . S
C213 C219 1.363 . S
C214 C215 1.363 . S
C214 C219 1.379 . S
C214 N221 1.356 . S
C215 C214 1.363 . S
C215 C218 1.363 . S
N216 C218 1.356 . S
N216 H228 0.984 . S
N216 H229 0.985 . S
N217 C219 1.356 . S
N217 H222 0.984 . S
N217 H223 0.985 . S
C218 C212 1.379 . S
C218 C215 1.363 . S
C218 N216 1.356 . S
C219 C213 1.363 . S
C219 C214 1.379 . S
C219 N217 1.356 . S
N220 C212 1.356 . S
N220 H226 0.984 . S
N220 H227 0.984 . S
N221 C214 1.356 . S
N221 H224 0.984 . S
N221 H225 0.985 . S
H222 N217 0.984 . S
H223 N217 0.985 . S
H224 N221 0.984 . S
H225 N221 0.985 . S
H226 N220 0.984 . S
H227 N220 0.984 . S
H228 N216 0.984 . S
H229 N216 0.985 . S
C230 C231 1.363 . S
C230 C236 1.379 . S
C230 N238 1.356 . S
C231 C230 1.363 . S
C231 C237 1.363 1_565 S
C232 C233 1.363 . S
C232 C237 1.379 . S
C232 N239 1.356 . S
C233 C232 1.363 . S
C233 C236 1.363 1_545 S
N234 C236 1.356 . S
N234 H246 0.984 1_455 S
N234 H247 0.985 . S
N235 C237 1.356 . S
N235 H240 0.984 . S
N235 H241 0.985 . S
C236 C230 1.379 . S
C236 C233 1.363 1_565 S
C236 N234 1.356 . S
C237 C231 1.363 1_545 S
C237 C232 1.379 . S
C237 N235 1.356 . S
N238 C230 1.356 . S
N238 H244 0.984 1_455 S
N238 H245 0.984 . S
N239 C232 1.356 . S
N239 H242 0.984 . S
N239 H243 0.985 . S
H240 N235 0.984 . S
H241 N235 0.985 . S
H242 N239 0.984 . S
H243 N239 0.985 . S
H244 N238 0.984 1_655 S
H245 N238 0.984 . S
H246 N234 0.984 1_655 S
H247 N234 0.985 . S
C248 C249 1.363 1_645 S
C248 C254 1.379 . S
C248 N256 1.356 . S
C249 C248 1.363 1_465 S
C249 C255 1.363 . S
C250 C251 1.363 1_465 S
C250 C255 1.379 . S
C250 N257 1.356 . S
C251 C250 1.363 1_645 S
C251 C254 1.363 . S
N252 C254 1.356 . S
N252 H264 0.984 . S
N252 H265 0.985 . S
N253 C255 1.356 . S
N253 H258 0.984 . S
N253 H259 0.985 . S
C254 C248 1.379 . S
C254 C251 1.363 . S
C254 N252 1.356 . S
C255 C249 1.363 . S
C255 C250 1.379 . S
C255 N253 1.356 . S
N256 C248 1.356 . S
N256 H262 0.984 . S
N256 H263 0.984 . S
N257 C250 1.356 . S
N257 H260 0.984 . S
N257 H261 0.985 . S
H258 N253 0.984 . S
H259 N253 0.985 . S
H260 N257 0.984 . S
H261 N257 0.985 . S
H262 N256 0.984 . S
H263 N256 0.984 . S
H264 N252 0.984 . S
H265 N252 0.985 . S
C266 C267 1.363 . S
C266 C272 1.379 . S
C266 N274 1.356 . S
C267 C266 1.363 . S
C267 C273 1.363 . S
C268 C269 1.363 . S
C268 C273 1.379 . S
C268 N275 1.356 . S
C269 C268 1.363 . S
C269 C272 1.363 . S
N270 C272 1.356 . S
N270 H282 0.984 . S
N270 H283 0.985 . S
N271 C273 1.356 . S
N271 H276 0.984 . S
N271 H277 0.985 . S
C272 C266 1.379 . S
C272 C269 1.363 . S
C272 N270 1.356 . S
C273 C267 1.363 . S
C273 C268 1.379 . S
C273 N271 1.356 . S
N274 C266 1.356 . S
N274 H280 0.984 . S
N274 H281 0.984 . S
N275 C268 1.356 . S
N275 H278 0.984 . S
N275 H279 0.985 . S
H276 N271 0.984 . S
H277 N271 0.985 . S
H278 N275 0.984 . S
H279 N275 0.985 . S
H280 N274 0.984 . S
H281 N274 0.984 . S
H282 N270 0.984 . S
H283 N270 0.985 . S
C284 C285 1.363 . S
C284 C290 1.379 . S
C284 N292 1.356 . S
C285 C284 1.363 . S
C285 C291 1.363 . S
C286 C287 1.363 . S
C286 C291 1.379 . S
C286 N293 1.356 . S
C287 C286 1.363 . S
C287 C290 1.363 . S
N288 C290 1.356 . S
N288 H300 0.984 . S
N288 H301 0.985 . S
N289 C291 1.356 . S
N289 H294 0.984 . S
N289 H295 0.985 . S
C290 C284 1.379 . S
C290 C287 1.363 . S
C290 N288 1.356 . S
C291 C285 1.363 . S
C291 C286 1.379 . S
C291 N289 1.356 . S
N292 C284 1.356 . S
N292 H298 0.984 . S
N292 H299 0.984 . S
N293 C286 1.356 . S
N293 H296 0.984 . S
N293 H297 0.985 . S
H294 N289 0.984 . S
H295 N289 0.985 . S
H296 N293 0.984 . S
H297 N293 0.985 . S
H298 N292 0.984 . S
H299 N292 0.984 . S
H300 N288 0.984 . S
H301 N288 0.985 . S
C89 C81 1.378 . S
C87 C3 1.265 . S
C105 C4 1.431 1_556 S
C107 N68 1.511 . S
C123 C19 1.452 1_554 S
C125 N79 1.525 . S
C141 C7 1.265 . S
C143 C70 1.381 . S
C159 C37 1.265 . S
C161 C59 1.378 . S
C177 C28 1.431 . S
C179 N46 1.511 . S
C197 N57 1.525 . S
C195 C41 1.452 . S
C215 C48 1.381 . S
C213 C25 1.265 . S
C231 C20 1.370 . S
C233 C51 1.510 . S
C249 C16 1.408 1_455 S
C251 C62 1.545 . S
C269 C73 1.510 . S
C267 C40 1.370 . S
C285 C24 1.408 . S
C287 C84 1.545 . S
