# Generated by pormake.
# Topology zzz, (3,6)-cn, num edge types: 1
# Building blocks:
#     Node 0, Type 0, BuildingBlock: BETDIP_clean_linker_0, # of connection points: 3
#     Node 1, Type 0, BuildingBlock: BETDIP_clean_linker_0, # of connection points: 3
#     Node 2, Type 0, BuildingBlock: BETDIP_clean_linker_0, # of connection points: 3
#     Node 3, Type 0, BuildingBlock: BETDIP_clean_linker_0, # of connection points: 3
#     Node 4, Type 0, BuildingBlock: BETDIP_clean_linker_0, # of connection points: 3
#     Node 5, Type 0, BuildingBlock: BETDIP_clean_linker_0, # of connection points: 3
#     Node 6, Type 0, BuildingBlock: BETDIP_clean_linker_0, # of connection points: 3
#     Node 7, Type 0, BuildingBlock: BETDIP_clean_linker_0, # of connection points: 3
#     Node 8, Type 1, BuildingBlock: FUNLAD_clean_sbu_0, # of connection points: 6
#     Node 9, Type 1, BuildingBlock: FUNLAD_clean_sbu_0, # of connection points: 6
#     Node 10, Type 1, BuildingBlock: FUNLAD_clean_sbu_0, # of connection points: 6
#     Node 11, Type 1, BuildingBlock: FUNLAD_clean_sbu_0, # of connection points: 6
#     Edge 12, Type (0, 1), BuildingBlock: OJICUG_clean_linker_0, # of connection points: 2
#     Edge 13, Type (0, 1), BuildingBlock: OJICUG_clean_linker_0, # of connection points: 2
#     Edge 14, Type (0, 1), BuildingBlock: OJICUG_clean_linker_0, # of connection points: 2
#     Edge 15, Type (0, 1), BuildingBlock: OJICUG_clean_linker_0, # of connection points: 2
#     Edge 16, Type (0, 1), BuildingBlock: OJICUG_clean_linker_0, # of connection points: 2
#     Edge 17, Type (0, 1), BuildingBlock: OJICUG_clean_linker_0, # of connection points: 2
#     Edge 18, Type (0, 1), BuildingBlock: OJICUG_clean_linker_0, # of connection points: 2
#     Edge 19, Type (0, 1), BuildingBlock: OJICUG_clean_linker_0, # of connection points: 2
#     Edge 20, Type (0, 1), BuildingBlock: OJICUG_clean_linker_0, # of connection points: 2
#     Edge 21, Type (0, 1), BuildingBlock: OJICUG_clean_linker_0, # of connection points: 2
#     Edge 22, Type (0, 1), BuildingBlock: OJICUG_clean_linker_0, # of connection points: 2
#     Edge 23, Type (0, 1), BuildingBlock: OJICUG_clean_linker_0, # of connection points: 2
#     Edge 24, Type (0, 1), BuildingBlock: OJICUG_clean_linker_0, # of connection points: 2
#     Edge 25, Type (0, 1), BuildingBlock: OJICUG_clean_linker_0, # of connection points: 2
#     Edge 26, Type (0, 1), BuildingBlock: OJICUG_clean_linker_0, # of connection points: 2
#     Edge 27, Type (0, 1), BuildingBlock: OJICUG_clean_linker_0, # of connection points: 2
#     Edge 28, Type (0, 1), BuildingBlock: OJICUG_clean_linker_0, # of connection points: 2
#     Edge 29, Type (0, 1), BuildingBlock: OJICUG_clean_linker_0, # of connection points: 2
#     Edge 30, Type (0, 1), BuildingBlock: OJICUG_clean_linker_0, # of connection points: 2
#     Edge 31, Type (0, 1), BuildingBlock: OJICUG_clean_linker_0, # of connection points: 2
#     Edge 32, Type (0, 1), BuildingBlock: OJICUG_clean_linker_0, # of connection points: 2
#     Edge 33, Type (0, 1), BuildingBlock: OJICUG_clean_linker_0, # of connection points: 2
#     Edge 34, Type (0, 1), BuildingBlock: OJICUG_clean_linker_0, # of connection points: 2
#     Edge 35, Type (0, 1), BuildingBlock: OJICUG_clean_linker_0, # of connection points: 2
# Relax obj value: 0.112
# Max RMSD: 0.175
# Mean RMSD: 0.094
data_MOF--net-zzz--node1-FUNLAD_clean_sbu_0--node2-BETDIP_clean_linker_0--edge1-OJICUG_clean_linker_0
_symmetry_space_group_name_H-M    P1
_symmetry_Int_Tables_number       1
_symmetry_cell_setting            triclinic
loop_
_symmetry_equiv_pos_as_xyz
'x, y, z'
_cell_length_a     37.418414
_cell_length_b     43.348509
_cell_length_c     13.193607
_cell_angle_alpha  83.202457
_cell_angle_beta   82.877802
_cell_angle_gamma 89.993527
loop_
_atom_site_label
_atom_site_type_symbol
_atom_site_fract_x
_atom_site_fract_y
_atom_site_fract_z
_atom_type_partial_charge
H0 H 0.81788 0.49951 0.48968 0.0
H1 H 0.83582 0.47799 0.17727 0.0
H2 H 0.92002 0.46442 0.36957 0.0
H3 H 0.80573 0.53774 0.19548 0.0
C4 C 0.78436 0.5207 0.22331 0.0
C5 C 0.83469 0.48987 0.42859 0.0
C6 C 0.86996 0.48045 0.44228 0.0
C7 C 0.82216 0.48854 0.33287 0.0
C8 C 0.84496 0.47786 0.25216 0.0
C9 C 0.88033 0.4693 0.26488 0.0
C10 C 0.89206 0.46947 0.36103 0.0
N11 N 0.78788 0.50025 0.31408 0.0
H12 H 0.98681 0.77862 0.2773 0.0
H13 H 0.06104 0.80915 0.00654 0.0
H14 H 0.02843 0.87195 0.22742 0.0
H15 H 0.02989 0.77522 0.93634 0.0
C16 C 0.02399 0.75583 -0.00379 0.0
C17 C 1.004 0.79643 0.23104 0.0
C18 C 1.00636 0.82593 0.26319 0.0
C19 C 0.02281 0.79043 0.1365 0.0
C20 C 0.04545 0.81381 0.07755 0.0
C21 C 0.04765 0.84353 0.10937 0.0
C22 C 0.02815 0.84899 0.20264 0.0
N23 N 1.01782 0.76111 0.10141 0.0
H24 H 0.77334 1.00344 0.32615 0.0
H25 H 0.76245 0.01615 0.00101 0.0
H26 H 0.67057 0.02464 0.22304 0.0
H27 H 0.80748 0.97854 0.00796 0.0
C28 C 0.82544 0.991 0.04824 0.0
C29 C 0.75714 1.00886 0.26396 0.0
C30 C 0.72 0.01429 0.28602 0.0
C31 C 0.77303 0.00964 0.16063 0.0
C32 C 0.75113 0.01576 0.08077 0.0
C33 C 0.71437 0.02162 0.10374 0.0
C34 C 0.69936 0.02125 0.20564 0.0
N35 N 0.81071 1.00432 0.13787 0.0
H36 H 0.57232 0.70339 0.31247 0.0
H37 H 0.53589 0.67879 0.03337 0.0
H38 H 0.55194 0.60809 0.27838 0.0
H39 H 0.51655 0.72702 0.01588 0.0
C40 C 0.53485 0.74113 0.04937 0.0
C41 C 0.5639 0.68612 0.26696 0.0
C42 C 0.56452 0.65443 0.30436 0.0
C43 C 0.55235 0.69548 0.17024 0.0
C44 C 0.54242 0.67249 0.11059 0.0
C45 C 0.54283 0.64082 0.14873 0.0
C46 C 0.55272 0.6324 0.24671 0.0
N47 N 0.55255 0.72785 0.13355 0.0
H48 H 0.27053 0.5291 0.03603 0.0
H49 H 0.24487 0.55231 0.34592 0.0
H50 H 0.16015 0.53534 0.16929 0.0
H51 H 0.298 0.58511 0.28174 0.0
C52 C 0.31259 0.56398 0.26819 0.0
C53 C 0.25094 0.53402 0.09946 0.0
C54 C 0.21383 0.53179 0.09202 0.0
C55 C 0.26243 0.54273 0.19005 0.0
C56 C 0.23657 0.54772 0.27325 0.0
C57 C 0.19985 0.54527 0.26538 0.0
C58 C 0.18872 0.53804 0.17424 0.0
N59 N 0.29974 0.5445 0.20047 0.0
H60 H 0.10501 0.2434 0.21125 0.0
H61 H 0.05265 0.20234 0.50489 0.0
H62 H 0.0393 0.1618 0.22934 0.0
H63 H 0.09437 0.23583 0.56125 0.0
C64 C 0.08796 0.2562 0.5108 0.0
C65 C 0.08706 0.22593 0.25641 0.0
C66 C 0.07412 0.20152 0.21016 0.0
C67 C 0.0773 0.22736 0.362 0.0
C68 C 0.0575 0.20248 0.42242 0.0
C69 C 0.04492 0.17757 0.37585 0.0
C70 C 0.05032 0.17954 0.26836 0.0
N71 N 0.08707 0.25431 0.40437 0.0
H72 H 0.31408 0.0136 0.17572 0.0
H73 H 0.32433 1.00088 0.50125 0.0
H74 H 0.41648 0.9919 0.28039 0.0
H75 H 0.27926 0.03848 0.49377 0.0
C76 C 0.2614 0.02627 0.45247 0.0
C77 C 0.33013 1.00811 0.23821 0.0
C78 C 0.36724 1.00251 0.2167 0.0
C79 C 0.31407 1.00741 0.34133 0.0
C80 C 0.33579 1.0012 0.42163 0.0
C81 C 0.37255 0.99512 0.39921 0.0
C82 C 0.3877 0.99543 0.29743 0.0
N83 N 0.27639 0.01288 0.36325 0.0
H84 H 0.52208 0.31179 0.17497 0.0
H85 H 0.55864 0.33542 0.45491 0.0
H86 H 0.54613 0.40656 0.20691 0.0
H87 H 0.52276 0.29175 0.51983 0.0
C88 C 0.53208 0.27593 0.46446 0.0
C89 C 0.53092 0.32891 0.2204 0.0
C90 C 0.53193 0.36053 0.18176 0.0
C91 C 0.54043 0.31953 0.31947 0.0
C92 C 0.55158 0.34219 0.37839 0.0
C93 C 0.55302 0.37381 0.33874 0.0
C94 C 0.54416 0.38233 0.23957 0.0
N95 N 0.53855 0.28734 0.35793 0.0
C96 C 0.06579 0.95978 0.8651 0.0
N97 N 1.01929 0.96436 0.59815 0.0
C98 C 0.04376 0.94223 0.57557 0.0
C99 C 0.03314 0.9151 0.54031 0.0
C100 C 0.99678 0.91021 0.52906 0.0
C101 C 0.97226 0.93401 0.54867 0.0
C102 C 0.98418 0.96108 0.58319 0.0
Zn103 Zn 0.03496 0.9968 0.68503 0.0
C104 C 0.97421 1.00378 0.85782 0.0
N105 N 0.06535 0.05675 0.89356 0.0
C106 C 0.1005 0.06331 0.90086 0.0
C107 C 0.03893 0.0768 0.92108 0.0
C108 C 0.04731 0.105 0.95334 0.0
C109 C 0.08343 0.11342 0.95552 0.0
C110 C 0.1102 0.09172 0.93156 0.0
Zn111 Zn 0.05068 0.02359 0.80674 0.0
O112 O 0.0523 0.96016 0.78157 0.0
C113 C 0.11148 0.01628 0.63417 0.0
O114 O 0.06949 0.98521 0.90261 0.0
H115 H 1.01127 0.07201 0.91208 0.0
H116 H 0.07136 0.94481 0.58979 0.0
H117 H 0.1213 0.04738 0.87756 0.0
O118 O 0.08782 1.00098 0.59878 0.0
O119 O 0.10269 0.02815 0.71725 0.0
H120 H 0.96499 0.97877 0.60247 0.0
O121 O 0.03196 0.06097 0.70936 0.0
O122 O 1.0182 0.03417 0.58806 0.0
O123 O 0.99824 0.01805 0.89502 0.0
O124 O 0.98256 0.99309 0.7725 0.0
C125 C 0.02047 0.06007 0.62322 0.0
H126 H 0.0534 0.89806 0.52252 0.0
H127 H 0.94405 0.93144 0.54014 0.0
H128 H 0.02546 0.12023 0.97492 0.0
H129 H 0.13839 0.09698 0.93304 0.0
C130 C 0.49223 0.99872 0.62659 0.0
N131 N 0.54002 0.08122 0.68796 0.0
C132 C 0.53828 0.09017 0.58627 0.0
C133 C 0.53703 0.12162 0.54856 0.0
C134 C 0.53817 0.14448 0.61545 0.0
C135 C 0.54029 0.1345 0.72016 0.0
C136 C 0.54098 0.1027 0.75492 0.0
Zn137 Zn 0.54202 0.03417 0.73635 0.0
C138 C 0.48501 0.0113 0.89953 0.0
N139 N 0.54707 0.9352 0.81464 0.0
C140 C 0.54883 0.91377 0.74673 0.0
C141 C 0.54555 0.92621 0.91757 0.0
C142 C 0.54541 0.89472 0.9559 0.0
C143 C 0.54669 0.872 0.88799 0.0
C144 C 0.54863 0.88195 0.78187 0.0
Zn145 Zn 0.54518 0.98221 0.76607 0.0
O146 O 0.5034 0.02548 0.63953 0.0
C147 C 0.6022 1.00519 0.60285 0.0
O148 O 0.50705 0.97462 0.66626 0.0
H149 H 0.54395 0.94352 0.97055 0.0
H150 H 0.53783 0.07285 0.5338 0.0
H151 H 0.55008 0.92134 0.66523 0.0
O152 O 0.58622 0.03028 0.6206 0.0
O153 O 0.58938 0.97944 0.64972 0.0
H154 H 0.54252 0.0952 0.8354 0.0
O155 O 0.58348 0.99078 0.86396 0.0
O156 O 0.58032 0.04166 0.83538 0.0
O157 O 0.50073 0.98616 0.88106 0.0
O158 O 0.49806 0.03704 0.85332 0.0
C159 C 0.59483 0.01756 0.87614 0.0
H160 H 0.53474 0.12782 0.46774 0.0
H161 H 0.54189 0.15103 0.77488 0.0
H162 H 0.54336 0.88827 0.03827 0.0
H163 H 0.55006 0.86533 0.72643 0.0
C164 C 0.57054 0.47058 0.59243 0.0
N165 N 0.47397 0.51595 0.66074 0.0
C166 C 0.48072 0.52092 0.55614 0.0
C167 C 0.4528 0.52565 0.49604 0.0
C168 C 0.41727 0.52611 0.54326 0.0
C169 C 0.41066 0.52137 0.6514 0.0
C170 C 0.43965 0.51601 0.7092 0.0
Zn171 Zn 0.51975 0.51034 0.73291 0.0
C172 C 0.52534 0.45247 0.85948 0.0
N173 N 0.62386 0.50011 0.82492 0.0
C174 C 0.65767 0.50843 0.77929 0.0
C175 C 0.61726 0.49178 0.92844 0.0
C176 C 0.6446 0.4924 -0.0094 0.0
C177 C 0.67952 0.50174 0.94687 0.0
C178 C 0.68609 0.50936 0.83921 0.0
Zn179 Zn 0.57809 0.50449 0.75216 0.0
O180 O 0.54015 0.48214 0.61951 0.0
C181 C 0.57221 0.56236 0.62502 0.0
O182 O 0.59754 0.47665 0.6369 0.0
H183 H 0.59019 0.48609 0.96457 0.0
H184 H 0.50806 0.52182 0.51832 0.0
H185 H 0.66236 0.51538 0.6972 0.0
O186 O 0.54023 0.55159 0.64329 0.0
O187 O 0.59774 0.54639 0.65866 0.0
H188 H 0.4348 0.51233 0.79231 0.0
O189 O 0.55774 0.53213 0.86691 0.0
O190 O 0.50066 0.53841 0.84756 0.0
O191 O 0.55746 0.46295 0.84028 0.0
O192 O 0.4998 0.46874 0.82705 0.0
C193 C 0.52748 0.54401 0.89328 0.0
H194 H 0.4591 0.52995 0.41314 0.0
H195 H 0.38348 0.52181 0.69048 0.0
H196 H 0.63784 0.48704 0.07303 0.0
H197 H 0.71271 0.5165 0.80193 0.0
C198 C 0.08581 0.52483 0.59517 0.0
N199 N 0.05763 0.43437 0.72997 0.0
C200 C 0.05885 0.43112 0.62834 0.0
C201 C 0.06447 0.40219 0.59382 0.0
C202 C 0.0677 0.37572 0.6645 0.0
C203 C 0.06621 0.37968 0.76943 0.0
C204 C 0.06139 0.40939 0.80052 0.0
Zn205 Zn 0.04852 0.47837 0.76941 0.0
C206 C 0.10534 0.50412 0.86132 0.0
N207 N 0.02866 0.57279 0.81162 0.0
C208 C 1.01816 0.59635 0.74464 0.0
C209 C 0.03516 0.57772 0.90767 0.0
C210 C 0.03201 0.60728 0.939 0.0
C211 C 0.02169 0.63224 0.87144 0.0
C212 C 1.01439 0.62639 0.77321 0.0
Zn213 Zn 0.03706 0.52878 0.77279 0.0
O214 O 0.08181 0.49675 0.63526 0.0
C215 C 0.98065 0.50284 0.679 0.0
O216 O 0.06727 0.54591 0.63433 0.0
H217 H 0.04344 0.55872 0.95996 0.0
H218 H 0.05525 0.45103 0.57325 0.0
H219 H 1.01306 0.59191 0.66872 0.0
O220 O 1.00146 0.47997 0.69369 0.0
O221 O 0.98922 0.5292 0.7027 0.0
H222 H 0.06017 0.41241 0.88108 0.0
O223 O 1.00613 0.5112 0.91038 0.0
O224 O 1.01555 0.46133 0.90469 0.0
O225 O 0.08579 0.52746 0.84073 0.0
O226 O 0.09503 0.4773 0.84599 0.0
C227 C 0.99935 0.48309 0.94699 0.0
H228 H 0.06632 0.40081 0.51198 0.0
H229 H 0.06806 0.36007 0.82735 0.0
H230 H 0.03858 0.61059 0.01466 0.0
H231 H 1.00591 0.6448 0.7189 0.0
C232 C 0.19723 1.00743 0.44985 0.0
C233 C 0.22241 0.02439 0.49276 0.0
H234 H 0.14227 0.99153 0.46058 0.0
C235 C 0.21052 0.03928 0.57943 0.0
H236 H 0.20558 0.99563 0.38313 0.0
C237 C 0.17455 0.037 0.62355 0.0
C238 C 0.14927 0.01966 0.58238 0.0
H239 H 0.22928 0.05251 0.61424 0.0
H240 H 0.16669 0.04861 0.69103 0.0
C241 C 0.16097 1.00509 0.4943 0.0
C242 C 0.55074 0.22124 0.43855 0.0
C243 C 0.53379 0.24231 0.50127 0.0
H244 H 0.56659 0.17432 0.4259 0.0
C245 C 0.5186 0.23122 0.60163 0.0
H246 H 0.56308 0.22915 0.36118 0.0
C247 C 0.51988 0.19965 0.6384 0.0
C248 C 0.53694 0.17833 0.5762 0.0
H249 H 0.5053 0.24699 0.65156 0.0
H250 H 0.50695 0.19197 0.71525 0.0
C251 C 0.55253 0.18969 0.47577 0.0
C252 C 0.34037 0.56781 0.42808 0.0
C253 C 0.33854 0.55293 0.33979 0.0
H254 H 0.36616 0.57041 0.56327 0.0
C255 C 0.36108 0.52773 0.32243 0.0
H256 H 0.32303 0.58717 0.44345 0.0
C257 C 0.38587 0.51828 0.39071 0.0
C258 C 0.38808 0.53351 0.47831 0.0
H259 H 0.3601 0.51578 0.25522 0.0
H260 H 0.4037 0.49931 0.37441 0.0
C261 C 0.36469 0.55803 0.49719 0.0
C262 C 0.06208 0.30931 0.50246 0.0
C263 C 0.08253 0.28637 0.55153 0.0
H264 H 0.03969 0.35444 0.50228 0.0
C265 C 0.09712 0.29226 0.64038 0.0
H266 H 0.04981 0.30511 0.43509 0.0
C267 C 0.09237 0.32115 0.67758 0.0
C268 C 0.07214 0.34443 0.6279 0.0
H269 H 0.11287 0.27477 0.6797 0.0
H270 H 0.10516 0.32533 0.74399 0.0
C271 C 0.05653 0.33777 0.54091 0.0
C272 C 0.87551 0.97989 0.91589 0.0
C273 C 0.86413 0.99375 0.00512 0.0
H274 H 0.91867 0.97206 0.80019 0.0
C275 C 0.8895 0.01048 0.04808 0.0
H276 H 0.85658 0.96688 0.88097 0.0
C277 C 0.92546 0.01351 0.00145 0.0
C278 C 0.93665 0.99993 0.91098 0.0
H279 H 0.88154 0.02148 0.11675 0.0
H280 H 0.94435 0.02679 0.0355 0.0
C281 C 0.91118 0.98292 0.86946 0.0
C282 C 0.52099 0.78608 0.92481 0.0
C283 C 0.53895 0.77455 0.00845 0.0
H284 H 0.50909 0.82562 0.82178 0.0
C285 C 0.56021 0.79509 0.05122 0.0
H286 H 0.50439 0.77077 0.89036 0.0
C287 C 0.56306 0.82661 0.0116 0.0
C288 C 0.54484 0.83825 0.92812 0.0
H289 H 0.57452 0.78691 0.11548 0.0
H290 H 0.57973 0.84183 0.04605 0.0
C291 C 0.52391 0.81749 0.88501 0.0
C292 C 0.75634 0.53582 0.06346 0.0
C293 C 0.75729 0.51542 0.15405 0.0
H294 H 0.73114 0.54768 0.92735 0.0
C295 C 0.73368 0.48968 0.17413 0.0
H296 H 0.77448 0.55575 0.04592 0.0
C297 C 0.7093 0.48467 0.1052 0.0
C298 C 0.7078 0.50541 0.01508 0.0
H299 H 0.73414 0.47329 0.24259 0.0
H300 H 0.69156 0.4645 0.1227 0.0
C301 C 0.73184 0.53095 -0.00516 0.0
C302 C 1.00943 0.69874 0.03618 0.0
C303 C 0.02171 0.72431 0.96499 0.0
H304 H 0.99858 0.64983 0.06188 0.0
C305 C 0.03236 0.71975 0.86212 0.0
H306 H 1.00066 0.7016 0.11584 0.0
C307 C 0.03169 0.69003 0.83126 0.0
C308 C 1.02003 0.6642 0.90259 0.0
H309 H 0.04192 0.73916 0.80577 0.0
H310 H 0.04132 0.68724 0.75208 0.0
C311 C 1.00841 0.66903 0.00518 0.0
C312 C 0.03751 0.11933 0.39376 0.0
C313 C 0.0314 0.14756 0.43671 0.0
H314 H 0.03693 0.06982 0.41789 0.0
C315 C 1.01592 0.14602 0.54012 0.0
H316 H 0.05067 0.11861 0.31641 0.0
C317 C 1.00964 0.11722 0.60025 0.0
C318 C 1.01751 0.08947 0.5572 0.0
H319 H 1.00998 0.16689 0.57616 0.0
H320 H 1.00014 0.11666 0.68146 0.0
C321 C 0.02986 0.09081 0.45251 0.0
C322 C 0.42024 0.96713 0.48756 0.0
C323 C 0.39744 0.99281 0.47762 0.0
H324 H 0.4685 0.94883 0.54252 0.0
C325 C 0.40477 0.01947 0.52221 0.0
H326 H 0.41532 0.94656 0.4517 0.0
C327 C 0.43566 0.02121 0.57055 0.0
C328 C 0.4595 0.99612 0.57635 0.0
H329 H 0.38798 0.03975 0.51338 0.0
H330 H 0.44117 0.04247 0.60184 0.0
C331 C 0.45087 0.96863 0.5377 0.0
C332 C 0.53901 0.4256 0.39533 0.0
C333 C 0.56032 0.39891 0.40129 0.0
H334 H 0.52717 0.46959 0.446 0.0
C335 C 0.58802 0.39721 0.46481 0.0
H336 H 0.51695 0.42757 0.34907 0.0
C337 C 0.59364 0.42165 0.52262 0.0
C338 C 0.57154 0.4479 0.51739 0.0
H339 H 0.60501 0.377 0.47036 0.0
H340 H 0.61399 0.41939 0.57461 0.0
C341 C 0.54484 0.44981 0.45125 0.0
C342 C 0.14172 0.56234 0.35486 0.0
C343 C 0.17301 0.54444 0.35662 0.0
H344 H 0.08901 0.57036 0.43141 0.0
C345 C 0.17606 0.52171 0.43957 0.0
H346 H 0.13892 0.5798 0.29055 0.0
C347 C 0.14749 0.51572 0.51712 0.0
C348 C 0.11567 0.53274 0.51389 0.0
H349 H 0.19975 0.50736 0.44148 0.0
H350 H 0.15014 0.49743 0.57919 0.0
C351 C 0.11328 0.55682 0.43432 0.0
C352 C 0.06088 0.87335 0.93481 0.0
C353 C 0.06467 0.87058 0.03989 0.0
H354 H 0.0594 0.90367 0.79666 0.0
C355 C 0.07767 0.89657 0.0804 0.0
H356 H 0.05122 0.85408 0.89997 0.0
C357 C 0.08087 0.92575 0.02169 0.0
C358 C 0.07236 0.92905 0.92058 0.0
H359 H 0.08248 0.89496 0.16011 0.0
H360 H 0.08753 0.94586 0.05754 0.0
C361 C 0.06507 0.90218 0.87565 0.0
C362 C 0.6821 0.99697 -0.01841 0.0
C363 C 0.68938 0.02374 0.02568 0.0
H364 H 0.64578 0.9738 0.90214 0.0
C365 C 0.66656 0.04938 0.01537 0.0
H366 H 0.69892 0.97672 -0.00924 0.0
C367 C 0.63599 0.04776 0.96511 0.0
C368 C 0.62744 0.0202 0.9268 0.0
H369 H 0.67145 0.07002 0.05088 0.0
H370 H 0.61835 0.06756 0.95985 0.0
C371 C 0.65126 0.99512 0.93316 0.0
C372 C 0.50806 0.61657 0.02424 0.0
C373 C 0.53639 0.61571 0.08543 0.0
H374 H 0.4821 0.59374 0.91599 0.0
C375 C 0.55907 0.58988 0.08845 0.0
H376 H 0.49002 0.6361 0.02105 0.0
C377 C 0.55392 0.56565 0.03195 0.0
C378 C 0.52648 0.56672 0.96826 0.0
H379 H 0.5816 0.58861 0.13297 0.0
H380 H 0.57257 0.54652 0.03507 0.0
C381 C 0.50309 0.59213 0.96592 0.0
C382 C 0.93545 0.44654 0.17423 0.0
C383 C 0.90758 0.46839 0.17456 0.0
H384 H 0.98702 0.43389 0.10026 0.0
C385 C 0.90937 0.49336 0.09627 0.0
H386 H 0.93465 0.42718 0.23451 0.0
C387 C 0.93927 0.49756 0.02269 0.0
C388 C 0.96794 0.47672 0.02477 0.0
H389 H 0.88869 0.51087 0.09543 0.0
H390 H 0.94014 0.51758 0.96476 0.0
C391 C 0.96539 0.45048 0.09858 0.0
C392 C 0.1179 0.17096 0.11417 0.0
C393 C 0.09041 0.19301 0.11023 0.0
H394 H 0.13631 0.12715 0.07132 0.0
C395 C 0.06865 0.19393 0.03093 0.0
H396 H 0.13497 0.1698 0.17514 0.0
C397 C 0.06972 0.16966 0.96983 0.0
C398 C 0.09198 0.14392 -0.01081 0.0
H399 H 0.04733 0.21076 0.02619 0.0
H400 H 0.05035 0.16948 0.91531 0.0
C401 C 0.11828 0.14615 0.05539 0.0
C402 C 0.40224 0.97907 0.07503 0.0
C403 C 0.38752 1.00586 0.11265 0.0
H404 H 0.44482 0.95973 0.98014 0.0
C405 C 0.40294 0.03497 0.07199 0.0
H406 H 0.39148 0.95633 0.10744 0.0
C407 C 0.43409 0.03702 0.00031 0.0
C408 C 0.45052 0.00993 0.96909 0.0
H409 H 0.39277 0.05586 0.10236 0.0
H410 H 0.44629 0.05965 0.97358 0.0
C411 C 0.43338 0.98105 0.00414 0.0
C412 C 0.49113 0.39234 0.07933 0.0
C413 C 0.52122 0.37281 0.08098 0.0
H414 H 0.46854 0.43342 0.00588 0.0
C415 C 0.54774 0.37539 -0.00437 0.0
H416 H 0.4707 0.39109 0.14556 0.0
C417 C 0.54685 0.39987 0.91707 0.0
C418 C 0.51929 0.42196 0.92238 0.0
H419 H 0.57143 0.36102 -0.00405 0.0
H420 H 0.56949 0.40314 0.8569 0.0
C421 C 0.49007 0.41678 7e-05 0.0
C422 C 0.18566 0.49154 0.00895 0.0
C423 C 0.19885 0.52218 0.00261 0.0
H424 H 0.14519 0.4616 0.96916 0.0
C425 C 0.18502 0.54543 0.93589 0.0
H426 H 0.19535 0.47343 0.06222 0.0
C427 C 0.15575 0.53896 0.88553 0.0
C428 C 0.13998 0.50904 0.9004 0.0
H429 H 0.1942 0.56931 0.93174 0.0
H430 H 0.14411 0.55789 0.83985 0.0
C431 C 0.15651 0.48493 0.9575 0.0
C432 C 1.00446 0.83017 0.44712 0.0
C433 C 0.98686 0.83479 0.359 0.0
H434 H 0.02067 0.85077 0.57384 0.0
C435 C 0.96263 0.85944 0.34924 0.0
H436 H 0.02306 0.81119 0.45671 0.0
C437 C 0.96259 0.88298 0.41291 0.0
C438 C 0.98589 0.8814 0.48905 0.0
H439 H 0.9487 0.86334 0.28166 0.0
H440 H 0.94786 0.90392 0.39372 0.0
C441 C 1.00383 0.85335 0.51234 0.0
C442 C 0.68449 0.98173 0.43078 0.0
C443 C 0.69985 0.01087 0.39027 0.0
H444 H 0.64115 0.95694 0.52889 0.0
C445 C 0.68505 0.03761 0.42803 0.0
H446 H 0.69474 0.96086 0.40032 0.0
C447 C 0.65385 0.03555 0.49873 0.0
C448 C 0.63675 1.00664 0.53352 0.0
H449 H 0.69575 0.06039 0.39575 0.0
H450 H 0.64233 0.05684 0.52279 0.0
C451 C 0.6533 0.9796 0.50231 0.0
C452 C 0.54941 0.63958 0.4906 0.0
C453 C 0.57573 0.6423 0.40473 0.0
H454 H 0.52795 0.61157 0.62913 0.0
C455 C 0.60591 0.62284 0.40562 0.0
H456 H 0.52566 0.65388 0.49093 0.0
C457 C 0.60717 0.5983 0.48446 0.0
C458 C 0.5781 0.59294 0.56251 0.0
H459 H 0.6262 0.62419 0.33903 0.0
H460 H 0.62874 0.5817 0.47803 0.0
C461 C 0.55049 0.61497 0.56867 0.0
C462 C 0.90439 0.46193 0.585 0.0
C463 C 0.88773 0.48667 0.53161 0.0
H464 H 0.94713 0.44773 0.67233 0.0
C465 C 0.89828 0.51729 0.53995 0.0
H466 H 0.89704 0.43814 0.57828 0.0
C467 C 0.92746 0.52292 0.59274 0.0
C468 C 0.94654 0.49793 0.63684 0.0
H469 H 0.88629 0.5367 0.49748 0.0
H470 H 0.93655 0.54663 0.59285 0.0
C471 C 0.93357 0.46748 0.63683 0.0
loop_
_geom_bond_atom_site_label_1
_geom_bond_atom_site_label_2
_geom_bond_distance
_geom_bond_site_symmetry_2
_ccdc_geom_bond_type
H0 C5 0.930 . S
H1 C8 0.930 . S
H2 C10 0.930 . S
H3 C4 1.016 . S
C4 H3 1.016 . S
C4 N11 1.286 . S
C5 H0 0.930 . S
C5 C6 1.397 . S
C5 C7 1.361 . S
C6 C5 1.397 . S
C6 C10 1.390 . S
C7 C5 1.361 . S
C7 C8 1.393 . S
C7 N11 1.413 . S
C8 H1 0.930 . S
C8 C7 1.393 . S
C8 C9 1.399 . S
C9 C8 1.399 . S
C9 C10 1.381 . S
C10 H2 0.930 . S
C10 C6 1.390 . S
C10 C9 1.381 . S
N11 C4 1.286 . S
N11 C7 1.413 . S
H12 C17 0.930 . S
H13 C20 0.930 . S
H14 C22 0.930 . S
H15 C16 1.016 . S
C16 H15 1.016 . S
C16 N23 1.286 1_556 S
C17 H12 0.930 . S
C17 C18 1.397 . S
C17 C19 1.361 . S
C18 C17 1.397 . S
C18 C22 1.390 . S
C19 C17 1.361 . S
C19 C20 1.393 1_554 S
C19 N23 1.413 . S
C20 H13 0.930 . S
C20 C19 1.393 1_556 S
C20 C21 1.399 . S
C21 C20 1.399 . S
C21 C22 1.381 1_556 S
C22 H14 0.930 . S
C22 C18 1.390 . S
C22 C21 1.381 1_554 S
N23 C16 1.286 1_554 S
N23 C19 1.413 . S
H24 C29 0.930 . S
H25 C32 0.930 1_556 S
H26 C34 0.930 . S
H27 C28 1.016 1_556 S
C28 H27 1.016 1_554 S
C28 N35 1.286 1_565 S
C29 H24 0.930 . S
C29 C30 1.397 . S
C29 C31 1.361 . S
C30 C29 1.397 . S
C30 C34 1.390 1_545 S
C31 C29 1.361 . S
C31 C32 1.393 . S
C31 N35 1.413 . S
C32 H25 0.930 1_554 S
C32 C31 1.393 . S
C32 C33 1.402 . S
C33 C32 1.402 . S
C33 C34 1.381 1_545 S
C34 H26 0.930 . S
C34 C30 1.390 1_565 S
C34 C33 1.381 1_565 S
N35 C28 1.286 1_545 S
N35 C31 1.413 . S
H36 C41 0.930 . S
H37 C44 0.930 1_556 S
H38 C46 0.930 . S
H39 C40 1.016 1_556 S
C40 H39 1.016 1_554 S
C40 N47 1.286 . S
C41 H36 0.930 . S
C41 C42 1.397 . S
C41 C43 1.361 . S
C42 C41 1.397 . S
C42 C46 1.390 . S
C43 C41 1.361 . S
C43 C44 1.393 . S
C43 N47 1.413 . S
C44 H37 0.930 1_554 S
C44 C43 1.393 . S
C44 C45 1.399 . S
C45 C44 1.399 . S
C45 C46 1.381 . S
C46 H38 0.930 . S
C46 C42 1.390 . S
C46 C45 1.381 . S
N47 C40 1.286 . S
N47 C43 1.413 . S
H48 C53 0.930 . S
H49 C56 0.930 . S
H50 C58 0.930 . S
H51 C52 1.016 . S
C52 H51 1.016 . S
C52 N59 1.286 . S
C53 H48 0.930 . S
C53 C54 1.397 . S
C53 C55 1.361 . S
C54 C53 1.397 . S
C54 C58 1.390 . S
C55 C53 1.361 . S
C55 C56 1.393 . S
C55 N59 1.413 . S
C56 H49 0.930 . S
C56 C55 1.393 . S
C56 C57 1.399 . S
C57 C56 1.399 . S
C57 C58 1.381 . S
C58 H50 0.930 . S
C58 C54 1.390 . S
C58 C57 1.381 . S
N59 C52 1.286 . S
N59 C55 1.413 . S
H60 C65 0.930 . S
H61 C68 0.930 . S
H62 C70 0.930 . S
H63 C64 1.016 . S
C64 H63 1.016 . S
C64 N71 1.286 . S
C65 H60 0.930 . S
C65 C66 1.397 . S
C65 C67 1.361 . S
C66 C65 1.397 . S
C66 C70 1.390 . S
C67 C65 1.361 . S
C67 C68 1.393 . S
C67 N71 1.413 . S
C68 H61 0.930 . S
C68 C67 1.393 . S
C68 C69 1.399 . S
C69 C68 1.399 . S
C69 C70 1.381 . S
C70 H62 0.930 . S
C70 C66 1.390 . S
C70 C69 1.381 . S
N71 C64 1.286 . S
N71 C67 1.413 . S
H72 C77 0.930 . S
H73 C80 0.930 . S
H74 C82 0.930 . S
H75 C76 1.023 . S
C76 H75 1.023 . S
C76 N83 1.275 1_565 S
C77 H72 0.930 . S
C77 C78 1.397 . S
C77 C79 1.361 . S
C78 C77 1.397 . S
C78 C82 1.390 1_545 S
C79 C77 1.361 . S
C79 C80 1.393 . S
C79 N83 1.413 . S
C80 H73 0.930 . S
C80 C79 1.393 . S
C80 C81 1.405 . S
C81 C80 1.405 . S
C81 C82 1.375 1_545 S
C82 H74 0.930 . S
C82 C78 1.390 1_565 S
C82 C81 1.375 1_565 S
N83 C76 1.275 1_545 S
N83 C79 1.413 . S
H84 C89 0.930 . S
H85 C92 0.930 . S
H86 C94 0.930 . S
H87 C88 1.016 . S
C88 H87 1.016 . S
C88 N95 1.286 . S
C89 H84 0.930 . S
C89 C90 1.397 . S
C89 C91 1.361 . S
C90 C89 1.397 . S
C90 C94 1.390 . S
C91 C89 1.361 . S
C91 C92 1.393 . S
C91 N95 1.413 . S
C92 H85 0.930 . S
C92 C91 1.393 . S
C92 C93 1.399 . S
C93 C92 1.399 . S
C93 C94 1.381 . S
C94 H86 0.930 . S
C94 C90 1.390 . S
C94 C93 1.381 . S
N95 C88 1.286 . S
N95 C91 1.413 . S
C96 O112 1.251 . S
C96 O114 1.254 . S
N97 C98 1.333 . S
N97 C102 1.307 1_455 S
N97 Zn103 2.020 . S
C98 N97 1.333 . S
C98 C99 1.379 . S
C98 H116 0.952 . S
C99 C98 1.379 . S
C99 C100 1.390 1_455 S
C99 H126 0.949 . S
C100 C99 1.390 1_655 S
C100 C101 1.357 . S
C101 C100 1.357 . S
C101 C102 1.370 . S
C101 H127 0.950 . S
C102 N97 1.307 1_655 S
C102 C101 1.370 . S
C102 H120 0.948 1_565 S
Zn103 N97 2.020 . S
Zn103 O112 2.039 . S
Zn103 O118 2.034 . S
Zn103 O122 2.025 1_565 S
Zn103 O124 2.024 1_455 S
C104 O123 1.246 . S
C104 O124 1.249 1_545 S
N105 C106 1.307 . S
N105 C107 1.333 . S
N105 Zn111 2.020 1_554 S
C106 N105 1.307 . S
C106 C110 1.370 . S
C106 H117 0.948 1_545 S
C107 N105 1.333 . S
C107 C108 1.379 . S
C107 H115 0.952 1_554 S
C108 C107 1.379 . S
C108 C109 1.390 . S
C108 H128 0.949 . S
C109 C108 1.390 . S
C109 C110 1.357 . S
C110 C106 1.370 . S
C110 C109 1.357 . S
C110 H129 0.950 . S
Zn111 N105 2.020 1_556 S
Zn111 O114 2.025 1_545 S
Zn111 O119 2.024 . S
Zn111 O121 2.039 . S
Zn111 O123 2.034 1_455 S
O112 C96 1.251 . S
O112 Zn103 2.039 . S
C113 O118 1.246 . S
C113 O119 1.249 1_565 S
O114 C96 1.254 . S
O114 Zn111 2.025 1_565 S
H115 C107 0.952 1_556 S
H116 C98 0.952 . S
H117 C106 0.948 1_565 S
O118 Zn103 2.034 . S
O118 C113 1.246 . S
O119 Zn111 2.024 . S
O119 C113 1.249 1_545 S
H120 C102 0.948 1_545 S
O121 Zn111 2.039 . S
O121 C125 1.251 . S
O122 Zn103 2.025 1_545 S
O122 C125 1.254 . S
O123 C104 1.246 . S
O123 Zn111 2.034 1_655 S
O124 Zn103 2.024 1_655 S
O124 C104 1.249 1_565 S
C125 O121 1.251 . S
C125 O122 1.254 . S
H126 C99 0.949 . S
H127 C101 0.950 . S
H128 C108 0.949 . S
H129 C110 0.950 . S
C130 O146 1.251 1_565 S
C130 O148 1.254 . S
N131 C132 1.333 . S
N131 C136 1.307 . S
N131 Zn137 2.020 . S
C132 N131 1.333 . S
C132 C133 1.379 . S
C132 H150 0.952 . S
C133 C132 1.379 . S
C133 C134 1.390 . S
C133 H160 0.949 . S
C134 C133 1.390 . S
C134 C135 1.357 . S
C135 C134 1.357 . S
C135 C136 1.370 . S
C135 H161 0.950 . S
C136 N131 1.307 . S
C136 C135 1.370 . S
C136 H154 0.948 . S
Zn137 N131 2.020 . S
Zn137 O146 2.039 . S
Zn137 O152 2.034 . S
Zn137 O156 2.025 . S
Zn137 O158 2.024 . S
C138 O157 1.246 1_545 S
C138 O158 1.249 . S
N139 C140 1.307 . S
N139 C141 1.333 . S
N139 Zn145 2.020 . S
C140 N139 1.307 . S
C140 C144 1.370 . S
C140 H151 0.948 . S
C141 N139 1.333 . S
C141 C142 1.379 . S
C141 H149 0.952 . S
C142 C141 1.379 . S
C142 C143 1.390 . S
C142 H162 0.949 1_556 S
C143 C142 1.390 . S
C143 C144 1.357 . S
C144 C140 1.370 . S
C144 C143 1.357 . S
C144 H163 0.950 . S
Zn145 N139 2.020 . S
Zn145 O148 2.025 . S
Zn145 O153 2.024 . S
Zn145 O155 2.039 . S
Zn145 O157 2.034 . S
O146 C130 1.251 1_545 S
O146 Zn137 2.039 . S
C147 O152 1.246 1_565 S
C147 O153 1.249 . S
O148 C130 1.254 . S
O148 Zn145 2.025 . S
H149 C141 0.952 . S
H150 C132 0.952 . S
H151 C140 0.948 . S
O152 Zn137 2.034 . S
O152 C147 1.246 1_545 S
O153 Zn145 2.024 . S
O153 C147 1.249 . S
H154 C136 0.948 . S
O155 Zn145 2.039 . S
O155 C159 1.251 1_565 S
O156 Zn137 2.025 . S
O156 C159 1.254 . S
O157 C138 1.246 1_565 S
O157 Zn145 2.034 . S
O158 Zn137 2.024 . S
O158 C138 1.249 . S
C159 O155 1.251 1_545 S
C159 O156 1.254 . S
H160 C133 0.949 . S
H161 C135 0.950 . S
H162 C142 0.949 1_554 S
H163 C144 0.950 . S
C164 O180 1.251 . S
C164 O182 1.254 . S
N165 C166 1.333 . S
N165 C170 1.307 . S
N165 Zn171 2.020 . S
C166 N165 1.333 . S
C166 C167 1.379 . S
C166 H184 0.952 . S
C167 C166 1.379 . S
C167 C168 1.390 . S
C167 H194 0.949 . S
C168 C167 1.390 . S
C168 C169 1.357 . S
C169 C168 1.357 . S
C169 C170 1.370 . S
C169 H195 0.950 . S
C170 N165 1.307 . S
C170 C169 1.370 . S
C170 H188 0.948 . S
Zn171 N165 2.020 . S
Zn171 O180 2.039 . S
Zn171 O186 2.034 . S
Zn171 O190 2.025 . S
Zn171 O192 2.024 . S
C172 O191 1.246 . S
C172 O192 1.249 . S
N173 C174 1.307 . S
N173 C175 1.333 . S
N173 Zn179 2.020 . S
C174 N173 1.307 . S
C174 C178 1.370 . S
C174 H185 0.948 . S
C175 N173 1.333 . S
C175 C176 1.379 . S
C175 H183 0.952 . S
C176 C175 1.379 . S
C176 C177 1.390 . S
C176 H196 0.949 . S
C177 C176 1.390 . S
C177 C178 1.357 . S
C178 C174 1.370 . S
C178 C177 1.357 . S
C178 H197 0.950 . S
Zn179 N173 2.020 . S
Zn179 O182 2.025 . S
Zn179 O187 2.024 . S
Zn179 O189 2.039 . S
Zn179 O191 2.034 . S
O180 C164 1.251 . S
O180 Zn171 2.039 . S
C181 O186 1.246 . S
C181 O187 1.249 . S
O182 C164 1.254 . S
O182 Zn179 2.025 . S
H183 C175 0.952 . S
H184 C166 0.952 . S
H185 C174 0.948 . S
O186 Zn171 2.034 . S
O186 C181 1.246 . S
O187 Zn179 2.024 . S
O187 C181 1.249 . S
H188 C170 0.948 . S
O189 Zn179 2.039 . S
O189 C193 1.251 . S
O190 Zn171 2.025 . S
O190 C193 1.254 . S
O191 C172 1.246 . S
O191 Zn179 2.034 . S
O192 Zn171 2.024 . S
O192 C172 1.249 . S
C193 O189 1.251 . S
C193 O190 1.254 . S
H194 C167 0.949 . S
H195 C169 0.950 . S
H196 C176 0.949 . S
H197 C178 0.950 . S
C198 O214 1.251 . S
C198 O216 1.254 . S
N199 C200 1.333 . S
N199 C204 1.307 . S
N199 Zn205 2.020 . S
C200 N199 1.333 . S
C200 C201 1.379 . S
C200 H218 0.952 . S
C201 C200 1.379 . S
C201 C202 1.390 . S
C201 H228 0.949 . S
C202 C201 1.390 . S
C202 C203 1.357 . S
C203 C202 1.357 . S
C203 C204 1.370 . S
C203 H229 0.950 . S
C204 N199 1.307 . S
C204 C203 1.370 . S
C204 H222 0.948 . S
Zn205 N199 2.020 . S
Zn205 O214 2.039 . S
Zn205 O220 2.034 1_455 S
Zn205 O224 2.025 1_455 S
Zn205 O226 2.024 . S
C206 O225 1.246 . S
C206 O226 1.249 . S
N207 C208 1.307 . S
N207 C209 1.333 . S
N207 Zn213 2.020 . S
C208 N207 1.307 . S
C208 C212 1.370 . S
C208 H219 0.948 . S
C209 N207 1.333 . S
C209 C210 1.380 1_455 S
C209 H217 0.952 1_455 S
C210 C209 1.380 1_655 S
C210 C211 1.391 1_655 S
C210 H230 0.948 . S
C211 C210 1.391 1_455 S
C211 C212 1.357 . S
C212 C208 1.370 . S
C212 C211 1.357 . S
C212 H231 0.950 . S
Zn213 N207 2.020 . S
Zn213 O216 2.025 . S
Zn213 O221 2.024 1_455 S
Zn213 O223 2.039 1_455 S
Zn213 O225 2.034 . S
O214 C198 1.251 . S
O214 Zn205 2.039 . S
C215 O220 1.246 . S
C215 O221 1.249 . S
O216 C198 1.254 . S
O216 Zn213 2.025 . S
H217 C209 0.952 1_655 S
H218 C200 0.952 . S
H219 C208 0.948 . S
O220 Zn205 2.034 1_655 S
O220 C215 1.246 . S
O221 Zn213 2.024 1_655 S
O221 C215 1.249 . S
H222 C204 0.948 . S
O223 Zn213 2.039 1_655 S
O223 C227 1.251 . S
O224 Zn205 2.025 1_655 S
O224 C227 1.254 . S
O225 C206 1.246 . S
O225 Zn213 2.034 . S
O226 Zn205 2.024 . S
O226 C206 1.249 . S
C227 O223 1.251 . S
C227 O224 1.254 . S
H228 C201 0.949 . S
H229 C203 0.950 . S
H230 C210 0.948 . S
H231 C212 0.950 . S
C232 C233 1.419 . S
C232 H236 0.950 . S
C232 C241 1.390 . S
C233 C232 1.419 . S
C233 C235 1.356 1_565 S
H234 C241 0.950 . S
C235 C233 1.356 1_545 S
C235 C237 1.390 . S
C235 H239 0.950 . S
H236 C232 0.950 . S
C237 C235 1.390 . S
C237 C238 1.387 1_545 S
C237 H240 0.950 . S
C238 C237 1.387 1_565 S
C238 C241 1.387 . S
H239 C235 0.950 . S
H240 C237 0.950 . S
C241 C232 1.390 . S
C241 H234 0.950 . S
C241 C238 1.387 . S
C242 C243 1.387 . S
C242 H246 0.950 . S
C242 C251 1.390 . S
C243 C242 1.387 . S
C243 C245 1.387 . S
H244 C251 0.950 . S
C245 C243 1.387 . S
C245 C247 1.390 . S
C245 H249 0.950 . S
H246 C242 0.950 . S
C247 C245 1.390 . S
C247 C248 1.387 . S
C247 H250 0.950 . S
C248 C247 1.387 . S
C248 C251 1.387 . S
H249 C245 0.950 . S
H250 C247 0.950 . S
C251 C242 1.390 . S
C251 H244 0.950 . S
C251 C248 1.387 . S
C252 C253 1.387 . S
C252 H256 0.950 . S
C252 C261 1.390 . S
C253 C252 1.387 . S
C253 C255 1.387 . S
H254 C261 0.950 . S
C255 C253 1.387 . S
C255 C257 1.390 . S
C255 H259 0.950 . S
H256 C252 0.950 . S
C257 C255 1.390 . S
C257 C258 1.387 . S
C257 H260 0.950 . S
C258 C257 1.387 . S
C258 C261 1.387 . S
H259 C255 0.950 . S
H260 C257 0.950 . S
C261 C252 1.390 . S
C261 H254 0.950 . S
C261 C258 1.387 . S
C262 C263 1.387 . S
C262 H266 0.950 . S
C262 C271 1.390 . S
C263 C262 1.387 . S
C263 C265 1.387 . S
H264 C271 0.950 . S
C265 C263 1.387 . S
C265 C267 1.390 . S
C265 H269 0.950 . S
H266 C262 0.950 . S
C267 C265 1.390 . S
C267 C268 1.387 . S
C267 H270 0.950 . S
C268 C267 1.387 . S
C268 C271 1.387 . S
H269 C265 0.950 . S
H270 C267 0.950 . S
C271 C262 1.390 . S
C271 H264 0.950 . S
C271 C268 1.387 . S
C272 C273 1.387 1_565 S
C272 H276 0.950 . S
C272 C281 1.390 . S
C273 C272 1.387 1_545 S
C273 C275 1.387 . S
H274 C281 0.950 . S
C275 C273 1.387 . S
C275 C277 1.390 . S
C275 H279 0.950 . S
H276 C272 0.950 . S
C277 C275 1.390 . S
C277 C278 1.387 . S
C277 H280 0.950 . S
C278 C277 1.387 . S
C278 C281 1.387 1_545 S
H279 C275 0.950 . S
H280 C277 0.950 . S
C281 C272 1.390 . S
C281 H274 0.950 . S
C281 C278 1.387 1_565 S
C282 C283 1.387 1_556 S
C282 H286 0.950 . S
C282 C291 1.390 . S
C283 C282 1.387 1_554 S
C283 C285 1.387 . S
H284 C291 0.950 . S
C285 C283 1.387 . S
C285 C287 1.390 1_554 S
C285 H289 0.950 . S
H286 C282 0.950 . S
C287 C285 1.390 1_556 S
C287 C288 1.387 . S
C287 H290 0.950 1_556 S
C288 C287 1.387 . S
C288 C291 1.387 . S
H289 C285 0.950 . S
H290 C287 0.950 1_554 S
C291 C282 1.390 . S
C291 H284 0.950 . S
C291 C288 1.387 . S
C292 C293 1.387 . S
C292 H296 0.950 . S
C292 C301 1.390 1_554 S
C293 C292 1.387 . S
C293 C295 1.387 . S
H294 C301 0.950 . S
C295 C293 1.387 . S
C295 C297 1.390 1_554 S
C295 H299 0.950 . S
H296 C292 0.950 . S
C297 C295 1.390 1_556 S
C297 C298 1.387 . S
C297 H300 0.950 . S
C298 C297 1.387 . S
C298 C301 1.387 . S
H299 C295 0.950 . S
H300 C297 0.950 . S
C301 C292 1.390 1_556 S
C301 H294 0.950 . S
C301 C298 1.387 . S
C302 C303 1.387 . S
C302 H306 0.950 1_556 S
C302 C311 1.390 . S
C303 C302 1.387 . S
C303 C305 1.387 1_655 S
H304 C311 0.950 . S
C305 C303 1.387 1_455 S
C305 C307 1.390 . S
C305 H309 0.950 . S
H306 C302 0.950 1_554 S
C307 C305 1.390 . S
C307 C308 1.387 . S
C307 H310 0.950 . S
C308 C307 1.387 . S
C308 C311 1.387 1_455 S
H309 C305 0.950 . S
H310 C307 0.950 . S
C311 C302 1.390 . S
C311 H304 0.950 . S
C311 C308 1.387 1_655 S
C312 C313 1.387 . S
C312 H316 0.950 . S
C312 C321 1.390 . S
C313 C312 1.387 . S
C313 C315 1.387 . S
H314 C321 0.950 . S
C315 C313 1.387 . S
C315 C317 1.390 . S
C315 H319 0.950 . S
H316 C312 0.950 . S
C317 C315 1.390 . S
C317 C318 1.387 . S
C317 H320 0.950 . S
C318 C317 1.387 . S
C318 C321 1.387 . S
H319 C315 0.950 . S
H320 C317 0.950 . S
C321 C312 1.390 . S
C321 H314 0.950 . S
C321 C318 1.387 . S
C322 C323 1.405 . S
C322 H326 0.950 . S
C322 C331 1.390 . S
C323 C322 1.405 . S
C323 C325 1.370 1_565 S
H324 C331 0.950 . S
C325 C323 1.370 1_545 S
C325 C327 1.390 . S
C325 H329 0.950 . S
H326 C322 0.950 . S
C327 C325 1.390 . S
C327 C328 1.387 1_545 S
C327 H330 0.950 . S
C328 C327 1.387 1_565 S
C328 C331 1.387 . S
H329 C325 0.950 . S
H330 C327 0.950 . S
C331 C322 1.390 . S
C331 H324 0.950 . S
C331 C328 1.387 . S
C332 C333 1.387 . S
C332 H336 0.950 . S
C332 C341 1.390 . S
C333 C332 1.387 . S
C333 C335 1.387 . S
H334 C341 0.950 . S
C335 C333 1.387 . S
C335 C337 1.390 . S
C335 H339 0.950 . S
H336 C332 0.950 . S
C337 C335 1.390 . S
C337 C338 1.387 . S
C337 H340 0.950 . S
C338 C337 1.387 . S
C338 C341 1.387 . S
H339 C335 0.950 . S
H340 C337 0.950 . S
C341 C332 1.390 . S
C341 H334 0.950 . S
C341 C338 1.387 . S
C342 C343 1.387 . S
C342 H346 0.950 . S
C342 C351 1.390 . S
C343 C342 1.387 . S
C343 C345 1.387 . S
H344 C351 0.950 . S
C345 C343 1.387 . S
C345 C347 1.390 . S
C345 H349 0.950 . S
H346 C342 0.950 . S
C347 C345 1.390 . S
C347 C348 1.387 . S
C347 H350 0.950 . S
C348 C347 1.387 . S
C348 C351 1.387 . S
H349 C345 0.950 . S
H350 C347 0.950 . S
C351 C342 1.390 . S
C351 H344 0.950 . S
C351 C348 1.387 . S
C352 C353 1.387 . S
C352 H356 0.950 . S
C352 C361 1.390 1_655 S
C353 C352 1.387 . S
C353 C355 1.387 . S
H354 C361 0.950 . S
C355 C353 1.387 . S
C355 C357 1.390 1_655 S
C355 H359 0.950 1_556 S
H356 C352 0.950 . S
C357 C355 1.390 1_455 S
C357 C358 1.387 . S
C357 H360 0.950 1_556 S
C358 C357 1.387 . S
C358 C361 1.387 . S
H359 C355 0.950 1_554 S
H360 C357 0.950 1_554 S
C361 C352 1.390 1_455 S
C361 H354 0.950 . S
C361 C358 1.387 . S
C362 C363 1.362 1_566 S
C362 H366 0.950 . S
C362 C371 1.390 . S
C363 C362 1.362 1_544 S
C363 C365 1.413 1_554 S
H364 C371 0.950 . S
C365 C363 1.413 1_556 S
C365 C367 1.390 . S
C365 H369 0.950 1_556 S
H366 C362 0.950 . S
C367 C365 1.390 . S
C367 C368 1.387 . S
C367 H370 0.950 . S
C368 C367 1.387 . S
C368 C371 1.387 1_545 S
H369 C365 0.950 1_554 S
H370 C367 0.950 . S
C371 C362 1.390 . S
C371 H364 0.950 . S
C371 C368 1.387 1_565 S
C372 C373 1.387 1_556 S
C372 H376 0.950 . S
C372 C381 1.390 . S
C373 C372 1.387 1_554 S
C373 C375 1.387 . S
H374 C381 0.950 . S
C375 C373 1.387 . S
C375 C377 1.390 1_554 S
C375 H379 0.950 . S
H376 C372 0.950 . S
C377 C375 1.390 1_556 S
C377 C378 1.387 . S
C377 H380 0.950 1_556 S
C378 C377 1.387 . S
C378 C381 1.387 . S
H379 C375 0.950 . S
H380 C377 0.950 1_554 S
C381 C372 1.390 . S
C381 H374 0.950 . S
C381 C378 1.387 . S
C382 C383 1.387 . S
C382 H386 0.950 . S
C382 C391 1.390 . S
C383 C382 1.387 . S
C383 C385 1.387 . S
H384 C391 0.950 1_556 S
C385 C383 1.387 . S
C385 C387 1.390 1_554 S
C385 H389 0.950 . S
H386 C382 0.950 . S
C387 C385 1.390 1_556 S
C387 C388 1.387 . S
C387 H390 0.950 . S
C388 C387 1.387 . S
C388 C391 1.387 1_556 S
H389 C385 0.950 . S
H390 C387 0.950 . S
C391 C382 1.390 . S
C391 H384 0.950 1_554 S
C391 C388 1.387 1_554 S
C392 C393 1.387 . S
C392 H396 0.950 . S
C392 C401 1.390 . S
C393 C392 1.387 . S
C393 C395 1.387 . S
H394 C401 0.950 . S
C395 C393 1.387 . S
C395 C397 1.390 . S
C395 H399 0.950 . S
H396 C392 0.950 . S
C397 C395 1.390 . S
C397 C398 1.387 . S
C397 H400 0.950 . S
C398 C397 1.387 . S
C398 C401 1.387 . S
H399 C395 0.950 . S
H400 C397 0.950 . S
C401 C392 1.390 . S
C401 H394 0.950 . S
C401 C398 1.387 . S
C402 C403 1.357 1_565 S
C402 H406 0.950 . S
C402 C411 1.390 . S
C403 C402 1.357 1_545 S
C403 C405 1.417 . S
H404 C411 0.950 . S
C405 C403 1.417 . S
C405 C407 1.390 . S
C405 H409 0.950 . S
H406 C402 0.950 . S
C407 C405 1.390 . S
C407 C408 1.387 . S
C407 H410 0.950 . S
C408 C407 1.387 . S
C408 C411 1.387 1_545 S
H409 C405 0.950 . S
H410 C407 0.950 . S
C411 C402 1.390 . S
C411 H404 0.950 . S
C411 C408 1.387 1_565 S
C412 C413 1.387 . S
C412 H416 0.950 . S
C412 C421 1.390 . S
C413 C412 1.387 . S
C413 C415 1.387 . S
H414 C421 0.950 . S
C415 C413 1.387 . S
C415 C417 1.390 . S
C415 H419 0.950 . S
H416 C412 0.950 . S
C417 C415 1.390 . S
C417 C418 1.387 . S
C417 H420 0.950 . S
C418 C417 1.387 . S
C418 C421 1.387 . S
H419 C415 0.950 . S
H420 C417 0.950 . S
C421 C412 1.390 . S
C421 H414 0.950 . S
C421 C418 1.387 . S
C422 C423 1.387 . S
C422 H426 0.950 . S
C422 C431 1.390 . S
C423 C422 1.387 . S
C423 C425 1.387 . S
H424 C431 0.950 . S
C425 C423 1.387 . S
C425 C427 1.390 1_554 S
C425 H429 0.950 . S
H426 C422 0.950 . S
C427 C425 1.390 1_556 S
C427 C428 1.387 . S
C427 H430 0.950 . S
C428 C427 1.387 . S
C428 C431 1.387 1_556 S
H429 C425 0.950 . S
H430 C427 0.950 . S
C431 C422 1.390 . S
C431 H424 0.950 . S
C431 C428 1.387 1_554 S
C432 C433 1.387 . S
C432 H436 0.950 . S
C432 C441 1.390 . S
C433 C432 1.387 . S
C433 C435 1.387 . S
H434 C441 0.950 . S
C435 C433 1.387 . S
C435 C437 1.390 . S
C435 H439 0.950 . S
H436 C432 0.950 . S
C437 C435 1.390 . S
C437 C438 1.387 . S
C437 H440 0.950 . S
C438 C437 1.387 . S
C438 C441 1.387 . S
H439 C435 0.950 . S
H440 C437 0.950 . S
C441 C432 1.390 . S
C441 H434 0.950 . S
C441 C438 1.387 . S
C442 C443 1.409 . S
C442 H446 0.950 . S
C442 C451 1.390 . S
C443 C442 1.409 . S
C443 C445 1.365 1_565 S
H444 C451 0.950 . S
C445 C443 1.365 1_545 S
C445 C447 1.390 . S
C445 H449 0.950 . S
H446 C442 0.950 . S
C447 C445 1.390 . S
C447 C448 1.387 1_545 S
C447 H450 0.950 . S
C448 C447 1.387 1_565 S
C448 C451 1.387 . S
H449 C445 0.950 . S
H450 C447 0.950 . S
C451 C442 1.390 . S
C451 H444 0.950 . S
C451 C448 1.387 . S
C452 C453 1.387 . S
C452 H456 0.950 . S
C452 C461 1.390 . S
C453 C452 1.387 . S
C453 C455 1.387 . S
H454 C461 0.950 . S
C455 C453 1.387 . S
C455 C457 1.390 . S
C455 H459 0.950 . S
H456 C452 0.950 . S
C457 C455 1.390 . S
C457 C458 1.387 . S
C457 H460 0.950 . S
C458 C457 1.387 . S
C458 C461 1.387 . S
H459 C455 0.950 . S
H460 C457 0.950 . S
C461 C452 1.390 . S
C461 H454 0.950 . S
C461 C458 1.387 . S
C462 C463 1.387 . S
C462 H466 0.950 . S
C462 C471 1.390 . S
C463 C462 1.387 . S
C463 C465 1.387 . S
H464 C471 0.950 . S
C465 C463 1.387 . S
C465 C467 1.390 . S
C465 H469 0.950 . S
H466 C462 0.950 . S
C467 C465 1.390 . S
C467 C468 1.387 . S
C467 H470 0.950 . S
C468 C467 1.387 . S
C468 C471 1.387 . S
H469 C465 0.950 . S
H470 C467 0.950 . S
C471 C462 1.390 . S
C471 H464 0.950 . S
C471 C468 1.387 . S
C233 C76 1.845 . S
C238 C113 1.880 . S
C248 C134 1.536 . S
C243 C88 1.501 . S
C258 C168 1.483 . S
C253 C52 1.420 . S
C268 C202 1.554 . S
C263 C64 1.525 . S
C278 C104 1.880 . S
C273 C28 1.846 1_546 S
C283 C40 1.509 . S
C288 C143 1.539 . S
C293 C4 1.421 . S
C298 C177 1.483 . S
C303 C16 1.535 . S
C308 C211 1.555 . S
C318 C125 0.880 . S
C313 C69 0.830 . S
C328 C130 1.276 . S
C323 C81 1.246 1_565 S
C338 C164 1.182 . S
C333 C93 1.169 . S
C343 C57 0.623 . S
C348 C198 0.623 . S
C353 C21 0.827 . S
C358 C96 0.885 . S
C368 C159 1.275 . S
C363 C33 1.242 . S
C378 C193 1.183 . S
C373 C45 1.161 . S
C383 C9 0.622 . S
C388 C227 0.625 . S
C393 C66 1.356 . S
C398 C109 1.394 . S
C403 C78 1.719 . S
C408 C138 1.768 1_554 S
C418 C172 1.549 1_554 S
C413 C90 1.520 . S
C428 C206 1.612 . S
C423 C54 1.562 . S
C433 C18 1.348 . S
C438 C100 1.398 . S
C448 C147 1.769 . S
C443 C30 1.719 1_565 S
C458 C181 1.549 . S
C453 C42 1.519 . S
C463 C6 1.567 . S
C468 C215 1.612 . S
