# Generated by pormake.
# Topology pyr, (3,6)-cn, num edge types: 1
# Building blocks:
#     Node 0, Type 0, BuildingBlock: KAKCAD_clean_linker_0, # of connection points: 3
#     Node 1, Type 0, BuildingBlock: KAKCAD_clean_linker_0, # of connection points: 3
#     Node 2, Type 0, BuildingBlock: KAKCAD_clean_linker_0, # of connection points: 3
#     Node 3, Type 0, BuildingBlock: KAKCAD_clean_linker_0, # of connection points: 3
#     Node 4, Type 0, BuildingBlock: KAKCAD_clean_linker_0, # of connection points: 3
#     Node 5, Type 0, BuildingBlock: KAKCAD_clean_linker_0, # of connection points: 3
#     Node 6, Type 0, BuildingBlock: KAKCAD_clean_linker_0, # of connection points: 3
#     Node 7, Type 0, BuildingBlock: KAKCAD_clean_linker_0, # of connection points: 3
#     Node 8, Type 1, BuildingBlock: PAMTUU_clean_sbu_0, # of connection points: 6
#     Node 9, Type 1, BuildingBlock: PAMTUU_clean_sbu_0, # of connection points: 6
#     Node 10, Type 1, BuildingBlock: PAMTUU_clean_sbu_0, # of connection points: 6
#     Node 11, Type 1, BuildingBlock: PAMTUU_clean_sbu_0, # of connection points: 6
#     Edge 12, Type (0, 1), BuildingBlock: AJUNOK_clean_linker_0, # of connection points: 2
#     Edge 13, Type (0, 1), BuildingBlock: AJUNOK_clean_linker_0, # of connection points: 2
#     Edge 14, Type (0, 1), BuildingBlock: AJUNOK_clean_linker_0, # of connection points: 2
#     Edge 15, Type (0, 1), BuildingBlock: AJUNOK_clean_linker_0, # of connection points: 2
#     Edge 16, Type (0, 1), BuildingBlock: AJUNOK_clean_linker_0, # of connection points: 2
#     Edge 17, Type (0, 1), BuildingBlock: AJUNOK_clean_linker_0, # of connection points: 2
#     Edge 18, Type (0, 1), BuildingBlock: AJUNOK_clean_linker_0, # of connection points: 2
#     Edge 19, Type (0, 1), BuildingBlock: AJUNOK_clean_linker_0, # of connection points: 2
#     Edge 20, Type (0, 1), BuildingBlock: AJUNOK_clean_linker_0, # of connection points: 2
#     Edge 21, Type (0, 1), BuildingBlock: AJUNOK_clean_linker_0, # of connection points: 2
#     Edge 22, Type (0, 1), BuildingBlock: AJUNOK_clean_linker_0, # of connection points: 2
#     Edge 23, Type (0, 1), BuildingBlock: AJUNOK_clean_linker_0, # of connection points: 2
#     Edge 24, Type (0, 1), BuildingBlock: AJUNOK_clean_linker_0, # of connection points: 2
#     Edge 25, Type (0, 1), BuildingBlock: AJUNOK_clean_linker_0, # of connection points: 2
#     Edge 26, Type (0, 1), BuildingBlock: AJUNOK_clean_linker_0, # of connection points: 2
#     Edge 27, Type (0, 1), BuildingBlock: AJUNOK_clean_linker_0, # of connection points: 2
#     Edge 28, Type (0, 1), BuildingBlock: AJUNOK_clean_linker_0, # of connection points: 2
#     Edge 29, Type (0, 1), BuildingBlock: AJUNOK_clean_linker_0, # of connection points: 2
#     Edge 30, Type (0, 1), BuildingBlock: AJUNOK_clean_linker_0, # of connection points: 2
#     Edge 31, Type (0, 1), BuildingBlock: AJUNOK_clean_linker_0, # of connection points: 2
#     Edge 32, Type (0, 1), BuildingBlock: AJUNOK_clean_linker_0, # of connection points: 2
#     Edge 33, Type (0, 1), BuildingBlock: AJUNOK_clean_linker_0, # of connection points: 2
#     Edge 34, Type (0, 1), BuildingBlock: AJUNOK_clean_linker_0, # of connection points: 2
#     Edge 35, Type (0, 1), BuildingBlock: AJUNOK_clean_linker_0, # of connection points: 2
# Relax obj value: 0.122
# Max RMSD: 0.139
# Mean RMSD: 0.057
data_MOF--net-pyr--node1-PAMTUU_clean_sbu_0--node2-KAKCAD_clean_linker_0--edge1-AJUNOK_clean_linker_0
_symmetry_space_group_name_H-M    P1
_symmetry_Int_Tables_number       1
_symmetry_cell_setting            triclinic
loop_
_symmetry_equiv_pos_as_xyz
'x, y, z'
_cell_length_a     36.665462
_cell_length_b     37.538361
_cell_length_c     35.517337
_cell_angle_alpha  90.038626
_cell_angle_beta   89.290487
_cell_angle_gamma 102.0238
loop_
_atom_site_label
_atom_site_type_symbol
_atom_site_fract_x
_atom_site_fract_y
_atom_site_fract_z
_atom_type_partial_charge
C0 C 0.29206 0.25951 0.36397 0.0
C1 C 0.31561 0.24405 0.3866 0.0
C2 C 0.30584 0.27848 0.33147 0.0
C3 C 0.34382 0.28313 0.32122 0.0
C4 C 0.36806 0.27071 0.34621 0.0
C5 C 0.35393 0.25079 0.37838 0.0
C6 C 0.35605 0.29504 0.28216 0.0
C7 C 0.33679 0.31729 0.26199 0.0
C8 C 0.33825 0.31838 0.22254 0.0
C9 C 0.36356 0.3014 0.20328 0.0
C10 C 0.38531 0.28113 0.22318 0.0
C11 C 0.38117 0.27797 0.2625 0.0
C12 C 0.40753 0.25808 0.20304 0.0
C13 C 0.39247 0.23728 0.1719 0.0
C14 C 0.44218 0.25388 0.21695 0.0
C15 C 0.46088 0.22872 0.20063 0.0
C16 C 0.44522 0.20735 0.17012 0.0
C17 C 0.30782 0.33024 0.20217 0.0
C18 C 0.2708 0.31655 0.21387 0.0
C19 C 0.31474 0.3538 0.171 0.0
C20 C 0.28497 0.36424 0.15257 0.0
C21 C 0.24801 0.35056 0.16464 0.0
C22 C 0.24131 0.32667 0.19544 0.0
C23 C 0.41114 0.21226 0.15561 0.0
H24 H 0.26229 0.2542 0.36964 0.0
H25 H 0.28578 0.28666 0.31305 0.0
H26 H 0.39757 0.27448 0.33985 0.0
H27 H 0.37252 0.23905 0.39572 0.0
H28 H 0.31765 0.33112 0.2766 0.0
H29 H 0.39493 0.25925 0.27712 0.0
H30 H 0.36443 0.30188 0.17277 0.0
H31 H 0.36547 0.23918 0.16102 0.0
H32 H 0.45455 0.2697 0.24082 0.0
H33 H 0.48744 0.22588 0.2119 0.0
H34 H 0.26455 0.29778 0.23737 0.0
H35 H 0.34304 0.3645 0.16135 0.0
H36 H 0.39832 0.19591 0.13226 0.0
H37 H 0.21319 0.31631 0.20581 0.0
H38 H 0.29075 0.3829 0.12897 0.0
C39 C 0.18999 0.83117 0.88378 0.0
C40 C 0.22441 0.82419 0.89501 0.0
C41 C 0.17039 0.81134 0.8543 0.0
C42 C 0.18572 0.78538 0.83407 0.0
C43 C 0.21802 0.77578 0.84887 0.0
C44 C 0.23657 0.79447 0.87919 0.0
C45 C 0.17292 0.7736 0.79491 0.0
C46 C 0.15293 0.79433 0.7732 0.0
C47 C 0.15046 0.79032 0.73387 0.0
C48 C 0.17015 0.76678 0.71561 0.0
C49 C 0.18992 0.74576 0.73676 0.0
C50 C 0.18735 0.74641 0.77619 0.0
C51 C 0.21962 0.72961 0.71903 0.0
C52 C 0.21449 0.7102 0.68495 0.0
C53 C 0.25487 0.73589 0.73593 0.0
C54 C 0.28401 0.72258 0.71985 0.0
C55 C 0.27898 0.70278 0.68621 0.0
C56 C 0.13147 0.81469 0.7121 0.0
C57 C 0.09654 0.82057 0.7242 0.0
C58 C 0.14948 0.83468 0.68128 0.0
C59 C 0.13351 0.86099 0.66386 0.0
C60 C 0.09917 0.86763 0.67677 0.0
C61 C 0.08053 0.84678 0.70669 0.0
C62 C 0.24402 0.69675 0.66866 0.0
H63 H 0.1795 0.8537 0.89563 0.0
H64 H 0.14452 0.81841 0.84613 0.0
H65 H 0.23157 0.75602 0.83575 0.0
H66 H 0.26243 0.78763 0.88812 0.0
H67 H 0.14148 0.81582 0.78588 0.0
H68 H 0.2004 0.72783 0.79173 0.0
H69 H 0.17163 0.76626 0.68513 0.0
H70 H 0.18774 0.70525 0.67115 0.0
H71 H 0.26032 0.75188 0.76143 0.0
H72 H 0.31085 0.72831 0.73353 0.0
H73 H 0.08205 0.80547 0.74786 0.0
H74 H 0.17664 0.83113 0.67166 0.0
H75 H 0.2395 0.68144 0.64268 0.0
H76 H 0.05426 0.85169 0.71748 0.0
H77 H 0.14837 0.87673 0.64077 0.0
C78 C 0.78807 0.47034 0.9341 0.0
C79 C 0.81438 0.45054 0.9467 0.0
C80 C 0.75585 0.45303 0.91481 0.0
C81 C 0.74866 0.41527 0.90777 0.0
C82 C 0.77504 0.39556 0.92039 0.0
C83 C 0.80722 0.41286 0.93954 0.0
C84 C 0.71335 0.3961 0.88875 0.0
C85 C 0.69827 0.41179 0.85792 0.0
C86 C 0.66506 0.39367 0.84008 0.0
C87 C 0.64715 0.35884 0.85411 0.0
C88 C 0.66186 0.34233 0.88472 0.0
C89 C 0.69463 0.36161 0.90175 0.0
C90 C 0.64366 0.30501 0.89957 0.0
C91 C 0.60464 0.29391 0.90372 0.0
C92 C 0.6657 0.2806 0.91158 0.0
C93 C 0.64955 0.24691 0.92807 0.0
C94 C 0.61066 0.23607 0.93297 0.0
C95 C 0.64947 0.41111 0.80685 0.0
C96 C 0.65374 0.44931 0.80399 0.0
C97 C 0.63047 0.39002 0.77732 0.0
C98 C 0.61622 0.40641 0.74652 0.0
C99 C 0.62027 0.44455 0.74396 0.0
C100 C 0.63969 0.46564 0.77315 0.0
C101 C 0.58841 0.26003 0.92026 0.0
H102 H 0.79199 0.49921 0.93973 0.0
H103 H 0.7361 0.46915 0.9062 0.0
H104 H 0.771 0.36659 0.91517 0.0
H105 H 0.82686 0.39666 0.94838 0.0
H106 H 0.71317 0.4378 0.84717 0.0
H107 H 0.70527 0.34994 0.92612 0.0
H108 H 0.62173 0.34442 0.84122 0.0
H109 H 0.58664 0.31191 0.89532 0.0
H110 H 0.69576 0.28756 0.90833 0.0
H111 H 0.66766 0.2292 0.93698 0.0
H112 H 0.66768 0.46691 0.82589 0.0
H113 H 0.62692 0.36068 0.77759 0.0
H114 H 0.55842 0.25309 0.92408 0.0
H115 H 0.64445 0.49507 0.77211 0.0
H116 H 0.60157 0.38903 0.7248 0.0
C117 C 0.9092 0.61987 0.27342 0.0
C118 C 0.9274 0.64142 0.24353 0.0
C119 C 0.89613 0.63574 0.30543 0.0
C120 C 0.90055 0.67389 0.30886 0.0
C121 C 0.91922 0.6955 0.27912 0.0
C122 C 0.93254 0.67958 0.24718 0.0
C123 C 0.88527 0.6907 0.34291 0.0
C124 C 0.8519 0.67238 0.36094 0.0
C125 C 0.83704 0.68735 0.39262 0.0
C126 C 0.85615 0.72106 0.40652 0.0
C127 C 0.88884 0.7408 0.38904 0.0
C128 C 0.90338 0.72511 0.35737 0.0
C129 C 0.90703 0.77762 0.40467 0.0
C130 C 0.88501 0.80063 0.42055 0.0
C131 C 0.94607 0.78961 0.40566 0.0
C132 C 0.9624 0.82279 0.42307 0.0
C133 C 0.94023 0.84487 0.44045 0.0
C134 C 0.8013 0.6685 0.41148 0.0
C135 C 0.79341 0.6307 0.41838 0.0
C136 C 0.7752 0.68875 0.42407 0.0
C137 C 0.7428 0.67205 0.44378 0.0
C138 C 0.73542 0.63452 0.45174 0.0
C139 C 0.76089 0.61394 0.43823 0.0
C140 C 0.90126 0.83339 0.4383 0.0
H141 H 0.90464 0.59046 0.27198 0.0
H142 H 0.88275 0.61785 0.3277 0.0
H143 H 0.92316 0.72486 0.28011 0.0
H144 H 0.94727 0.69737 0.22549 0.0
H145 H 0.83668 0.64684 0.3497 0.0
H146 H 0.92877 0.73974 0.34398 0.0
H147 H 0.84563 0.73173 0.43184 0.0
H148 H 0.85488 0.79326 0.41959 0.0
H149 H 0.96417 0.77299 0.39382 0.0
H150 H 0.99249 0.83106 0.42288 0.0
H151 H 0.81284 0.61421 0.4093 0.0
H152 H 0.77974 0.71773 0.41857 0.0
H153 H 0.88305 0.8494 0.4511 0.0
H154 H 0.75604 0.58494 0.44368 0.0
H155 H 0.7233 0.68859 0.45252 0.0
C156 C 0.72334 0.79051 0.71903 0.0
C157 C 0.72399 0.82686 0.7092 0.0
C158 C 0.70523 0.77572 0.75214 0.0
C159 C 0.68815 0.79734 0.77631 0.0
C160 C 0.68626 0.8327 0.76452 0.0
C161 C 0.70384 0.84719 0.73136 0.0
C162 C 0.67846 0.7863 0.81609 0.0
C163 C 0.70201 0.76879 0.83671 0.0
C164 C 0.69947 0.76659 0.87615 0.0
C165 C 0.67356 0.78311 0.89523 0.0
C166 C 0.64929 0.80039 0.87499 0.0
C167 C 0.65053 0.79964 0.83541 0.0
C168 C 0.62646 0.82352 0.89453 0.0
C169 C 0.61081 0.81448 0.93056 0.0
C170 C 0.62232 0.85655 0.87793 0.0
C171 C 0.60328 0.87983 0.89671 0.0
C172 C 0.58863 0.87114 0.93286 0.0
C173 C 0.72741 0.75088 0.89671 0.0
C174 C 0.73671 0.71847 0.88381 0.0
C175 C 0.74815 0.77023 0.92605 0.0
C176 C 0.77914 0.75862 0.94036 0.0
C177 C 0.78986 0.72768 0.92537 0.0
C178 C 0.76765 0.70701 0.89797 0.0
C179 C 0.59238 0.83833 0.94974 0.0
H180 H 0.73867 0.77428 0.70231 0.0
H181 H 0.7066 0.74815 0.75991 0.0
H182 H 0.67411 0.85062 0.7824 0.0
H183 H 0.70452 0.87554 0.72498 0.0
H184 H 0.72456 0.75943 0.82246 0.0
H185 H 0.6313 0.81187 0.81948 0.0
H186 H 0.6735 0.78377 0.92571 0.0
H187 H 0.61316 0.78927 0.94415 0.0
H188 H 0.63499 0.86534 0.8509 0.0
H189 H 0.60134 0.90543 0.88362 0.0
H190 H 0.7209 0.70278 0.86159 0.0
H191 H 0.74183 0.79546 0.93633 0.0
H192 H 0.5814 0.83139 0.97785 0.0
H193 H 0.77508 0.68268 0.88652 0.0
H194 H 0.79592 0.77489 0.96158 0.0
C195 C 0.83499 0.21626 0.26132 0.0
C196 C 0.81177 0.23349 0.24006 0.0
C197 C 0.85745 0.23529 0.28897 0.0
C198 C 0.85766 0.27231 0.29569 0.0
C199 C 0.83754 0.29053 0.27131 0.0
C200 C 0.81447 0.27114 0.24383 0.0
C201 C 0.87275 0.28897 0.33186 0.0
C202 C 0.90193 0.27681 0.34946 0.0
C203 C 0.90724 0.28079 0.38839 0.0
C204 C 0.88634 0.30169 0.40914 0.0
C205 C 0.85929 0.31712 0.39114 0.0
C206 C 0.85257 0.31031 0.35267 0.0
C207 C 0.83365 0.33571 0.41251 0.0
C208 C 0.81407 0.31917 0.44436 0.0
C209 C 0.82427 0.36722 0.39757 0.0
C210 C 0.79451 0.38066 0.41263 0.0
C211 C 0.77359 0.36306 0.44321 0.0
C212 C 0.92934 0.25737 0.40747 0.0
C213 C 0.92324 0.2202 0.39811 0.0
C214 C 0.95554 0.271 0.43517 0.0
C215 C 0.97527 0.24773 0.4531 0.0
C216 C 0.9686 0.2104 0.444 0.0
C217 C 0.94262 0.19707 0.41608 0.0
C218 C 0.7842 0.33267 0.45949 0.0
H219 H 0.83361 0.18725 0.25851 0.0
H220 H 0.87194 0.21983 0.30708 0.0
H221 H 0.83767 0.31918 0.27507 0.0
H222 H 0.79682 0.28499 0.22754 0.0
H223 H 0.91836 0.26099 0.33355 0.0
H224 H 0.82903 0.31882 0.34002 0.0
H225 H 0.8897 0.30433 0.43936 0.0
H226 H 0.82034 0.29455 0.45614 0.0
H227 H 0.83884 0.38043 0.37295 0.0
H228 H 0.78664 0.40368 0.39898 0.0
H229 H 0.90264 0.20869 0.37742 0.0
H230 H 0.96082 0.29955 0.44278 0.0
H231 H 0.76857 0.31863 0.48312 0.0
H232 H 0.93635 0.1684 0.40893 0.0
H233 H 0.99552 0.25885 0.47422 0.0
C234 C 0.25528 0.60836 0.17477 0.0
C235 C 0.22824 0.62912 0.16715 0.0
C236 C 0.28804 0.62352 0.19443 0.0
C237 C 0.29477 0.65992 0.20683 0.0
C238 C 0.26707 0.68011 0.20055 0.0
C239 C 0.23427 0.66489 0.18139 0.0
C240 C 0.33153 0.67802 0.2234 0.0
C241 C 0.34795 0.66219 0.25312 0.0
C242 C 0.38272 0.67965 0.2686 0.0
C243 C 0.40086 0.71376 0.25267 0.0
C244 C 0.38494 0.73001 0.22262 0.0
C245 C 0.3502 0.71179 0.20885 0.0
C246 C 0.40366 0.76596 0.2049 0.0
C247 C 0.4214 0.7959 0.22663 0.0
C248 C 0.4016 0.77131 0.16569 0.0
C249 C 0.41513 0.80553 0.14907 0.0
C250 C 0.43144 0.83582 0.1709 0.0
C251 C 0.39952 0.66242 0.30138 0.0
C252 C 0.39135 0.6243 0.30759 0.0
C253 C 0.4236 0.68376 0.32737 0.0
C254 C 0.4384 0.66787 0.35812 0.0
C255 C 0.42911 0.62996 0.365 0.0
C256 C 0.4056 0.60851 0.33877 0.0
C257 C 0.43517 0.83029 0.20986 0.0
H258 H 0.25168 0.58069 0.16451 0.0
H259 H 0.3088 0.60721 0.19862 0.0
H260 H 0.27094 0.708 0.21023 0.0
H261 H 0.21362 0.68138 0.1776 0.0
H262 H 0.33273 0.63675 0.26485 0.0
H263 H 0.33735 0.72403 0.18631 0.0
H264 H 0.42788 0.72737 0.2628 0.0
H265 H 0.42352 0.79314 0.25683 0.0
H266 H 0.38919 0.74893 0.14761 0.0
H267 H 0.41285 0.80823 0.11888 0.0
H268 H 0.37397 0.6062 0.28825 0.0
H269 H 0.43084 0.71307 0.32453 0.0
H270 H 0.44782 0.85286 0.2276 0.0
H271 H 0.39768 0.57928 0.3425 0.0
H272 H 0.45746 0.68562 0.37639 0.0
C273 C 0.15149 0.24775 0.69339 0.0
C274 C 0.11318 0.23792 0.68558 0.0
C275 C 0.16707 0.28184 0.70881 0.0
C276 C 0.14496 0.30748 0.71693 0.0
C277 C 0.1064 0.29738 0.71017 0.0
C278 C 0.09074 0.26313 0.69456 0.0
C279 C 0.16289 0.34511 0.73017 0.0
C280 C 0.19664 0.36312 0.7133 0.0
C281 C 0.2148 0.39806 0.72477 0.0
C282 C 0.19893 0.41518 0.75427 0.0
C283 C 0.1649 0.39818 0.77214 0.0
C284 C 0.14697 0.3631 0.75916 0.0
C285 C 0.14876 0.41683 0.80451 0.0
C286 C 0.15636 0.45518 0.80792 0.0
C287 C 0.12624 0.39667 0.83297 0.0
C288 C 0.11185 0.41406 0.86321 0.0
C289 C 0.11981 0.45234 0.86669 0.0
C290 C 0.25039 0.41637 0.70548 0.0
C291 C 0.27917 0.39741 0.69897 0.0
C292 C 0.25516 0.45219 0.6917 0.0
C293 C 0.28755 0.46835 0.67138 0.0
C294 C 0.31654 0.44945 0.66497 0.0
C295 C 0.31178 0.41374 0.67925 0.0
C296 C 0.14272 0.47248 0.8386 0.0
H297 H 0.16963 0.22902 0.68737 0.0
H298 H 0.19674 0.28823 0.71416 0.0
H299 H 0.0885 0.31644 0.71564 0.0
H300 H 0.06126 0.25692 0.68838 0.0
H301 H 0.20853 0.35018 0.69025 0.0
H302 H 0.1207 0.34948 0.77164 0.0
H303 H 0.21403 0.44144 0.76385 0.0
H304 H 0.17286 0.47231 0.7868 0.0
H305 H 0.12 0.36722 0.83249 0.0
H306 H 0.09429 0.39728 0.88391 0.0
H307 H 0.27652 0.36984 0.70933 0.0
H308 H 0.2333 0.46735 0.69564 0.0
H309 H 0.15079 0.50183 0.84042 0.0
H310 H 0.33344 0.39833 0.67535 0.0
H311 H 0.2894 0.49539 0.65997 0.0
Tb312 Tb 0.06991 0.0427 0.5454 0.0
Tb313 Tb 0.98854 1.03388 0.58639 0.0
C314 C 1.00229 0.98051 0.52213 0.0
C315 C 0.16282 0.07629 0.50043 0.0
C316 C 0.22016 0.13177 0.47233 0.0
C317 C 0.22839 0.09959 0.48685 0.0
C318 C 0.19984 0.07196 0.50066 0.0
C319 C 0.15454 0.10876 0.48699 0.0
C320 C 0.18302 0.13626 0.47288 0.0
C321 C 0.13342 0.04718 0.51545 0.0
O322 O 0.03982 0.07563 0.51158 0.0
O323 O 0.99592 0.08422 0.55549 0.0
O324 O 0.0269 0.07484 0.6196 0.0
O325 O 0.07431 0.09342 0.57639 0.0
O326 O 0.93172 1.03455 0.5824 0.0
O327 O 0.95563 1.02349 0.63545 0.0
O328 O 1.01077 0.98724 0.60343 0.0
O329 O 0.07152 1.01613 0.59935 0.0
O330 O 0.0381 0.98912 0.52923 0.0
O331 O 0.97958 1.00069 0.53507 0.0
C332 C 1.01489 0.0935 0.52431 0.0
O333 O 0.12761 0.04842 0.5516 0.0
O334 O 0.1023 0.03992 0.4968 0.0
C335 C 0.05667 0.09868 0.60775 0.0
C336 C 0.89479 0.99211 0.62254 0.0
C337 C 0.8367 0.93118 0.63429 0.0
C338 C 0.8318 0.96634 0.64355 0.0
C339 C 0.86063 0.99658 0.63762 0.0
C340 C 0.89975 0.9572 0.61267 0.0
C341 C 0.87091 0.92687 0.61869 0.0
C342 C 0.92503 1.02398 0.61721 0.0
C343 C 0.0458 0.98881 0.61131 0.0
H344 H 0.25685 0.09575 0.48741 0.0
H345 H 0.20665 0.04721 0.51153 0.0
H346 H 0.12609 0.1127 0.48713 0.0
H347 H 0.17589 0.16072 0.46165 0.0
H348 H 0.8061 0.97035 0.65659 0.0
H349 H 0.85647 1.02339 0.64538 0.0
H350 H 0.92605 0.95342 0.60079 0.0
H351 H 0.87545 0.90003 0.61161 0.0
Tb352 Tb 0.55643 0.04202 0.07743 0.0
Tb353 Tb 0.47866 1.03394 1.03136 0.0
C354 C 0.5366 0.98708 1.01031 0.0
C355 C 0.64467 0.0776 0.128 0.0
C356 C 0.69775 0.13304 0.16078 0.0
C357 C 0.70003 0.09638 0.1652 0.0
C358 C 0.67367 0.06885 0.14885 0.0
C359 C 0.64232 0.11416 0.12317 0.0
C360 C 0.66886 0.14184 0.13947 0.0
C361 C 0.61744 0.0482 0.1112 0.0
O362 O 0.56287 0.09279 1.04542 0.0
O363 O 0.52024 0.07343 0.9991 0.0
O364 O 0.48501 0.08373 0.06309 0.0
O365 O 0.52181 0.07126 0.1108 0.0
O366 O 0.44856 1.02756 0.9812 0.0
O367 O 0.42175 1.03507 1.03442 0.0
O368 O 0.46586 0.99611 0.07934 0.0
O369 O 0.5245 0.98828 0.09347 0.0
O370 O 0.56229 1.01149 1.02666 0.0
O371 O 0.50115 0.98781 1.01312 0.0
C372 C 0.5486 0.0976 1.0124 0.0
O373 O 0.58496 0.04003 0.12801 0.0
O374 O 0.61457 0.04978 0.07477 0.0
C375 C 0.499 0.0903 0.09667 0.0
C376 C 0.38692 0.99582 0.99081 0.0
C377 C 0.33023 0.93645 0.97148 0.0
C378 C 0.32317 0.9718 0.97216 0.0
C379 C 0.35146 1.00137 0.98174 0.0
C380 C 0.39355 0.96036 0.99179 0.0
C381 C 0.36542 0.93087 0.98196 0.0
C382 C 0.41699 1.02703 0.99886 0.0
C383 C 0.48808 0.97746 0.09571 0.0
H384 H 0.7222 0.08906 0.18144 0.0
H385 H 0.67583 0.04072 0.1526 0.0
H386 H 0.61992 0.12119 0.10703 0.0
H387 H 0.66639 0.16992 0.13615 0.0
H388 H 0.29638 0.9767 0.96362 0.0
H389 H 0.34593 1.02862 0.98116 0.0
H390 H 0.42072 0.9556 0.99924 0.0
H391 H 0.37141 0.90379 0.98153 0.0
Tb392 Tb 0.52516 0.50102 0.53212 0.0
Tb393 Tb 0.5256 0.57566 0.57847 0.0
C394 C 0.49117 0.56414 0.49585 0.0
C395 C 0.56605 0.42882 0.493 0.0
C396 C 0.63354 0.40577 0.48003 0.0
C397 C 0.60247 0.39314 0.45712 0.0
C398 C 0.56895 0.40471 0.4635 0.0
C399 C 0.59679 0.44072 0.51636 0.0
C400 C 0.63007 0.4291 0.51015 0.0
C401 C 0.53224 0.44372 0.49816 0.0
O402 O 0.57334 0.54062 0.5112 0.0
O403 O 0.5836 0.58083 0.56032 0.0
O404 O 0.53883 0.53707 0.61975 0.0
O405 O 0.56279 0.50017 0.57982 0.0
O406 O 0.53279 0.63272 0.58037 0.0
O407 O 0.51695 0.60011 0.63004 0.0
O408 O 0.46773 0.54654 0.57934 0.0
O409 O 0.47574 0.48851 0.569 0.0
O410 O 0.48906 0.52863 0.4984 0.0
O411 O 0.50902 0.58656 0.52125 0.0
C412 C 0.59481 0.5677 0.52888 0.0
O413 O 0.52001 0.44421 0.53271 0.0
O414 O 0.53302 0.47463 0.48129 0.0
C415 C 0.55813 0.51169 0.6142 0.0
C416 C 0.48574 0.64694 0.61958 0.0
C417 C 0.41701 0.66602 0.63534 0.0
C418 C 0.44783 0.67817 0.65868 0.0
C419 C 0.48204 0.66874 0.65079 0.0
C420 C 0.45519 0.63543 0.59584 0.0
C421 C 0.42115 0.64513 0.60346 0.0
C422 C 0.51929 0.63188 0.61454 0.0
C423 C 0.45572 0.51119 0.5821 0.0
H424 H 0.60444 0.37515 0.43367 0.0
H425 H 0.54562 0.39544 0.44501 0.0
H426 H 0.59533 0.45949 0.53914 0.0
H427 H 0.65323 0.43864 0.52877 0.0
H428 H 0.44515 0.69429 0.68348 0.0
H429 H 0.50512 0.67729 0.66975 0.0
H430 H 0.45719 0.61751 0.57239 0.0
H431 H 0.39763 0.63486 0.58552 0.0
Tb432 Tb 0.02398 0.58291 1.03236 0.0
Tb433 Tb 1.01876 0.50711 0.07803 0.0
C434 C 0.05833 0.51975 0.99714 0.0
C435 C 0.99077 0.65743 0.98586 0.0
C436 C 0.92751 0.68459 0.96562 0.0
C437 C 0.93768 0.65607 0.94516 0.0
C438 C 0.96907 0.64279 0.95497 0.0
C439 C 0.98083 0.68623 1.00613 0.0
C440 C 0.94939 0.69959 0.9962 0.0
C441 C 0.02225 0.64144 0.99831 0.0
O442 O 0.97683 0.5448 1.0084 0.0
O443 O 0.96213 0.50374 0.05669 0.0
O444 O 1.00302 0.54515 0.11894 0.0
O445 O 0.98307 0.5833 0.07773 0.0
O446 O 1.0059 0.44986 0.07891 0.0
O447 O 0.02685 0.48034 0.12818 0.0
O448 O 0.07714 0.53534 0.08258 0.0
O449 O 0.07096 0.59376 0.07089 0.0
O450 O 0.06143 0.55519 1.00055 0.0
O451 O 0.03921 0.4969 1.02177 0.0
C452 C 0.95353 0.51771 1.02473 0.0
O453 O 0.02633 0.63933 1.03457 0.0
O454 O 0.02648 0.6117 0.98147 0.0
C455 C 0.9855 0.57165 0.11232 0.0
C456 C 0.05194 0.42992 0.11331 0.0
C457 C 0.11568 0.39997 0.12051 0.0
C458 C 0.08344 0.38646 0.1423 0.0
C459 C 0.05174 0.40144 0.13878 0.0
C460 C 0.08375 0.44274 0.09083 0.0
C461 C 0.1154 0.42799 0.09449 0.0
C462 C 1.02064 0.44861 0.11192 0.0
C463 C 0.09006 0.5707 0.08432 0.0
H464 H 0.92091 0.64348 0.92193 0.0
H465 H 0.97583 0.62056 0.93872 0.0
H466 H 0.99705 0.69806 1.03004 0.0
H467 H 0.94218 0.72167 1.01238 0.0
H468 H 0.08324 0.36526 0.16303 0.0
H469 H 0.02755 0.39152 0.15657 0.0
H470 H 0.08443 0.46485 0.07109 0.0
H471 H 0.13989 0.43883 0.07741 0.0
C472 C 0.27541 0.22456 0.44297 0.0
C473 C 0.29845 0.21593 0.41399 0.0
C474 C 0.25157 0.19705 0.46328 0.0
C475 C 0.24969 0.16007 0.45488 0.0
H476 H 0.27453 0.25273 0.44868 0.0
H477 H 0.23341 0.20478 0.4847 0.0
S478 S 0.30463 0.1236 0.38134 0.0
N479 N 0.31881 0.16824 0.37836 0.0
N480 N 0.27343 0.1164 0.41591 0.0
C481 C 0.27376 0.15116 0.42692 0.0
C482 C 0.29829 0.17917 0.40658 0.0
C483 C 0.28811 0.86135 0.90506 0.0
C484 C 0.25079 0.85099 0.91765 0.0
C485 C 0.31364 0.88822 0.92349 0.0
C486 C 0.30287 0.90626 0.95497 0.0
H487 H 0.29757 0.84941 0.87994 0.0
H488 H 0.3418 0.89579 0.91221 0.0
S489 S 0.20953 0.88845 1.00081 0.0
N490 N 0.20495 0.85981 0.96498 0.0
N491 N 0.25316 0.91145 0.99913 0.0
C492 C 0.26595 0.89615 0.96834 0.0
C493 C 0.23985 0.86828 0.94977 0.0
C494 C 0.60775 0.45023 0.67376 0.0
C495 C 0.60435 0.46216 0.71117 0.0
C496 C 0.59328 0.46645 0.64283 0.0
C497 C 0.57438 0.49539 0.64757 0.0
H498 H 0.62215 0.42833 0.66818 0.0
H499 H 0.59688 0.45598 0.61491 0.0
S500 S 0.55612 0.53596 0.73981 0.0
N501 N 0.57912 0.50413 0.75092 0.0
N502 N 0.55264 0.53465 0.69353 0.0
C503 C 0.5706 0.50742 0.6849 0.0
C504 C 0.58535 0.49092 0.71633 0.0
C505 C 0.95907 0.59419 0.21343 0.0
C506 C 0.94142 0.62396 0.20929 0.0
C507 C 0.9726 0.57738 0.18217 0.0
C508 C 0.96917 0.5893 0.14492 0.0
H509 H 0.9631 0.58402 0.24127 0.0
H510 H 0.98623 0.55494 0.18746 0.0
S511 S 0.92366 0.66517 0.11789 0.0
N512 N 0.92 0.66365 0.16427 0.0
N513 N 0.94577 0.63271 0.10593 0.0
C514 C 0.95122 0.61885 0.14025 0.0
C515 C 0.9374 0.63597 0.17218 0.0
C516 C 0.46778 0.1786 0.11379 0.0
C517 C 0.46374 0.17962 0.15309 0.0
C518 C 0.48059 0.15021 0.09619 0.0
C519 C 0.48998 0.12168 0.11716 0.0
H520 H 0.46011 0.19951 0.09638 0.0
H521 H 0.48244 0.15034 0.06571 0.0
S522 S 0.48627 0.1126 0.22109 0.0
N523 N 0.4715 0.1505 0.21279 0.0
N524 N 0.4962 0.09709 0.17947 0.0
C525 C 0.48785 0.12319 0.15661 0.0
C526 C 0.47455 0.15218 0.17465 0.0
C527 C 0.10728 0.93289 0.6583 0.0
C528 C 0.08423 0.89801 0.66075 0.0
C529 C 0.09416 0.96224 0.64335 0.0
C530 C 0.05743 0.9579 0.63022 0.0
H531 H 0.13573 0.93757 0.66817 0.0
H532 H 0.11318 0.9885 0.64179 0.0
S533 S 0.98624 0.87154 0.6294 0.0
N534 N 0.02322 0.86037 0.64836 0.0
N535 N 0.99827 0.91558 0.62026 0.0
C536 C 0.03391 0.92312 0.63282 0.0
C537 C 0.04738 0.89318 0.64807 0.0
C538 C 0.86108 0.45298 0.9995 0.0
C539 C 0.84925 0.46887 0.96699 0.0
C540 C 0.89413 0.46919 1.01834 0.0
C541 C 0.91723 0.5019 1.00553 0.0
H542 H 0.84461 0.42787 1.01057 0.0
H543 H 0.90186 0.45547 1.04303 0.0
S544 S 0.89923 0.55443 0.9213 0.0
N545 N 0.86384 0.51916 0.92265 0.0
N546 N 0.92515 0.54965 0.95785 0.0
C547 C 0.9055 0.51818 0.97314 0.0
C548 C 0.87183 0.50171 0.95406 0.0
C549 C 0.67803 0.58455 0.46022 0.0
C550 C 0.70087 0.61694 0.47333 0.0
C551 C 0.6444 0.56871 0.47873 0.0
C552 C 0.63199 0.58433 0.51144 0.0
H553 H 0.6857 0.57176 0.43482 0.0
H554 H 0.62779 0.54411 0.46685 0.0
S555 S 0.68332 0.66753 0.55934 0.0
N556 N 0.70994 0.66279 0.52262 0.0
N557 N 0.64685 0.63337 0.55716 0.0
C558 C 0.65521 0.61617 0.52552 0.0
C559 C 0.68946 0.63236 0.50656 0.0
C560 C 0.21594 0.39997 0.14514 0.0
C561 C 0.21614 0.36263 0.14726 0.0
C562 C 0.18361 0.41186 0.13507 0.0
C563 C 0.15043 0.38679 0.12688 0.0
H564 H 0.24032 0.42005 0.15316 0.0
H565 H 0.18411 0.44082 0.13533 0.0
S566 S 0.13821 0.28639 0.12281 0.0
N567 N 0.18175 0.30085 0.13626 0.0
N568 N 0.12088 0.32329 0.11754 0.0
C569 C 0.1509 0.34952 0.12683 0.0
C570 C 0.18381 0.33742 0.13691 0.0
C571 C 0.60996 0.19035 0.98561 0.0
C572 C 0.594 0.20046 0.95236 0.0
C573 C 0.59531 0.15726 1.00437 0.0
C574 C 0.56401 0.13223 0.9908 0.0
H575 H 0.63386 0.20846 0.99765 0.0
H576 H 0.60878 0.1514 1.02993 0.0
S577 S 0.51235 0.1448 0.90398 0.0
N578 N 0.54547 0.182 0.90613 0.0
N579 N 0.51789 0.12018 0.94117 0.0
C580 C 0.5479 0.14187 0.95736 0.0
C581 C 0.56278 0.17576 0.93833 0.0
C582 C 0.94142 0.91076 0.45808 0.0
C583 C 0.95716 0.87953 0.461 0.0
C584 C 0.95584 0.94308 0.47797 0.0
C585 C 0.98711 0.94601 0.50126 0.0
H586 H 0.91776 0.91038 0.44002 0.0
H587 H 0.94267 0.96616 0.47465 0.0
S588 S 0.0368 0.87172 0.52204 0.0
N589 N 1.00432 0.85333 0.49193 0.0
N590 N 0.03205 0.91414 0.52789 0.0
C591 C 1.00298 0.91506 0.50477 0.0
C592 C 0.98796 0.88196 0.48502 0.0
C593 C 0.33158 0.67099 0.69402 0.0
C594 C 0.311 0.68919 0.67025 0.0
C595 C 0.36549 0.66309 0.68216 0.0
C596 C 0.38 0.67288 0.64598 0.0
H597 H 0.32187 0.66373 0.72249 0.0
H598 H 0.38075 0.64962 0.70162 0.0
S599 S 0.33634 0.71938 0.57227 0.0
N600 N 0.30696 0.7157 0.6084 0.0
N601 N 0.37074 0.70025 0.58581 0.0
C602 C 0.35902 0.68961 0.62127 0.0
C603 C 0.32446 0.69787 0.63346 0.0
C604 C 0.78919 0.84573 0.68543 0.0
C605 C 0.7512 0.84622 0.68115 0.0
C606 C 0.8169 0.87176 0.6676 0.0
C607 C 0.80751 0.89911 0.64493 0.0
H608 H 0.7977 0.82714 0.70519 0.0
H609 H 0.8458 0.87215 0.674 0.0
S610 S 0.71213 0.90721 0.61828 0.0
N611 N 0.70557 0.8725 0.64793 0.0
N612 N 0.75778 0.92148 0.6142 0.0
C613 C 0.76967 0.89763 0.63745 0.0
C614 C 0.74147 0.87112 0.65559 0.0
C615 C 0.75758 0.18177 0.23803 0.0
C616 C 0.7811 0.21071 0.21901 0.0
C617 C 0.72995 0.15755 0.21903 0.0
C618 C 0.7247 0.16145 0.18031 0.0
H619 H 0.76095 0.17748 0.26786 0.0
H620 H 0.71291 0.13523 0.23465 0.0
S621 S 0.77765 0.23368 0.11793 0.0
N622 N 0.7965 0.24296 0.15977 0.0
N623 N 0.74411 0.19707 0.12367 0.0
C624 C 0.74696 0.19107 0.16113 0.0
C625 C 0.77529 0.21585 0.1806 0.0
C626 C 0.45446 0.57876 0.39661 0.0
C627 C 0.44382 0.61289 0.39909 0.0
C628 C 0.46877 0.56276 0.42785 0.0
C629 C 0.47369 0.58019 0.4632 0.0
H630 H 0.45241 0.56442 0.37001 0.0
H631 H 0.47692 0.53687 0.42394 0.0
S632 S 0.44659 0.66781 0.4867 0.0
N633 N 0.43617 0.66159 0.44179 0.0
N634 N 0.4644 0.63274 0.49914 0.0
C635 C 0.46252 0.61392 0.4663 0.0
C636 C 0.44737 0.62988 0.43477 0.0
C637 C 0.10214 0.45503 0.93606 0.0
C638 C 0.10481 0.47084 0.89974 0.0
C639 C 0.08767 0.47119 0.96722 0.0
C640 C 0.07572 0.5044 0.96398 0.0
H641 H 0.11151 0.42989 0.94067 0.0
H642 H 0.086 0.45752 0.99424 0.0
S643 S 0.07418 0.55646 0.87543 0.0
N644 N 0.09176 0.52117 0.86258 0.0
N645 N 0.06642 0.55201 0.92124 0.0
C646 C 0.07838 0.52075 0.9281 0.0
C647 C 0.09242 0.50395 0.89612 0.0
C648 C 0.59203 0.9159 0.98478 0.0
C649 C 0.57271 0.89823 0.95391 0.0
C650 C 0.58016 0.94481 1.00261 0.0
C651 C 0.54821 0.95662 0.99053 0.0
H652 H 0.61712 0.90801 0.99449 0.0
H653 H 0.5961 0.95789 1.02616 0.0
S654 S 0.48733 0.91814 0.91151 0.0
N655 N 0.5201 0.89388 0.91209 0.0
N656 N 0.49694 0.94768 0.94634 0.0
C657 C 0.52809 0.93847 0.96023 0.0
C658 C 0.54062 0.90943 0.94166 0.0
C659 C 1.00047 0.15733 0.44563 0.0
C660 C 0.98613 0.1843 0.46507 0.0
C661 C 1.01159 0.12881 0.46495 0.0
C662 C 1.00832 0.12611 0.50432 0.0
H663 H 1.00202 0.15766 0.41515 0.0
H664 H 0.02113 0.10791 0.44884 0.0
S665 S 0.97639 0.19183 0.5687 0.0
N666 N 0.97184 0.20774 0.5261 0.0
N667 N 0.99342 0.15486 0.56241 0.0
C668 C 0.9961 0.15407 0.52419 0.0
C669 C 0.98487 0.18302 0.50458 0.0
C670 C 0.17357 0.57808 0.15025 0.0
C671 C 0.19408 0.61389 0.14427 0.0
C672 C 0.14068 0.56402 0.13017 0.0
C673 C 0.12658 0.58517 0.10328 0.0
H674 H 0.18248 0.56097 0.1713 0.0
H675 H 0.12567 0.53662 0.13655 0.0
S676 S 0.17208 0.67885 0.0733 0.0
N677 N 0.19951 0.66875 0.10639 0.0
N678 N 0.13768 0.64289 0.06973 0.0
C679 C 0.14745 0.62056 0.09617 0.0
C680 C 0.18106 0.63473 0.11632 0.0
C681 C 0.36741 0.44548 0.61707 0.0
C682 C 0.35139 0.46638 0.64315 0.0
C683 C 0.40062 0.46019 0.59715 0.0
C684 C 0.41929 0.49666 0.60196 0.0
H685 H 0.35412 0.41738 0.61186 0.0
H686 H 0.41172 0.44271 0.57777 0.0
S687 S 0.39033 0.56297 0.6679 0.0
N688 N 0.35805 0.52545 0.67354 0.0
N689 N 0.41945 0.55322 0.63559 0.0
C690 C 0.40348 0.51803 0.6277 0.0
C691 C 0.36988 0.50293 0.64831 0.0
C692 C 0.83341 0.71176 0.97345 0.0
C693 C 0.82573 0.71849 0.93576 0.0
C694 C 0.86681 0.70152 0.98311 0.0
C695 C 0.89363 0.69795 0.95538 0.0
H696 H 0.81311 0.71356 0.99541 0.0
H697 H 0.87125 0.69544 1.0123 0.0
S698 S 0.8886 0.71736 0.8534 0.0
N699 N 0.8487 0.72395 0.87114 0.0
N700 N 0.91161 0.7053 0.88926 0.0
C701 C 0.88678 0.70609 0.91784 0.0
C702 C 0.85281 0.71624 0.90804 0.0
C703 C 0.48054 0.89356 0.15977 0.0
C704 C 0.44457 0.87279 0.15286 0.0
C705 C 0.49405 0.9273 0.14161 0.0
C706 C 0.47206 0.94234 0.1161 0.0
H707 H 0.49885 0.88324 0.17871 0.0
H708 H 0.52219 0.94165 0.14759 0.0
S709 S 0.37506 0.89979 0.0894 0.0
N710 N 0.38668 0.87058 0.11941 0.0
N711 N 0.41178 0.93362 0.08572 0.0
C712 C 0.43568 0.92221 0.10962 0.0
C713 C 0.42209 0.88765 0.12777 0.0
C714 C 0.11676 0.19082 0.63568 0.0
C715 C 0.09759 0.20219 0.66658 0.0
C716 C 0.10344 0.1575 0.61735 0.0
C717 C 0.07026 0.13353 0.62902 0.0
H718 H 0.14226 0.20809 0.62515 0.0
H719 H 0.1195 0.15062 0.59365 0.0
S720 S 1.0095 0.14993 0.709 0.0
N721 N 0.04372 0.18634 0.70843 0.0
N722 N 1.01848 0.12397 0.67397 0.0
C723 C 0.05072 0.14451 0.65998 0.0
C724 C 0.06433 0.17867 0.67862 0.0
C725 C 0.70525 0.34831 0.4586 0.0
C726 C 0.73885 0.37441 0.45557 0.0
C727 C 0.67133 0.35861 0.46658 0.0
C728 C 0.66979 0.39536 0.47211 0.0
H729 H 0.70498 0.31977 0.4537 0.0
H730 H 0.64611 0.33765 0.4684 0.0
S731 S 0.74993 0.47421 0.46808 0.0
N732 N 0.76858 0.43849 0.45985 0.0
N733 N 0.7048 0.45795 0.47405 0.0
C734 C 0.70325 0.42169 0.4697 0.0
C735 C 0.73775 0.4112 0.46159 0.0
loop_
_geom_bond_atom_site_label_1
_geom_bond_atom_site_label_2
_geom_bond_distance
_geom_bond_site_symmetry_2
_ccdc_geom_bond_type
C0 C1 1.386 . S
C0 C2 1.397 . S
C0 H24 0.931 . S
C1 C0 1.386 . S
C1 C5 1.397 . S
C2 C0 1.397 . S
C2 C3 1.384 . S
C2 H25 0.930 . S
C3 C2 1.384 . S
C3 C4 1.377 . S
C3 C6 1.481 . S
C4 C3 1.377 . S
C4 C5 1.389 . S
C4 H26 0.929 . S
C5 C1 1.397 . S
C5 C4 1.389 . S
C5 H27 0.931 . S
C6 C3 1.481 . S
C6 C7 1.387 . S
C6 C11 1.390 . S
C7 C6 1.387 . S
C7 C8 1.401 . S
C7 H28 0.930 . S
C8 C7 1.401 . S
C8 C9 1.376 . S
C8 C17 1.511 . S
C9 C8 1.376 . S
C9 C10 1.392 . S
C9 H30 0.931 . S
C10 C9 1.392 . S
C10 C11 1.361 . S
C10 C12 1.500 . S
C11 C6 1.390 . S
C11 C10 1.361 . S
C11 H29 0.931 . S
C12 C10 1.500 . S
C12 C13 1.371 . S
C12 C14 1.365 . S
C13 C12 1.371 . S
C13 C23 1.386 . S
C13 H31 0.931 . S
C14 C12 1.365 . S
C14 C15 1.409 . S
C14 H32 0.929 . S
C15 C14 1.409 . S
C15 C16 1.380 . S
C15 H33 0.930 . S
C16 C15 1.380 . S
C16 C23 1.357 . S
C17 C8 1.511 . S
C17 C18 1.341 . S
C17 C19 1.371 . S
C18 C17 1.341 . S
C18 C22 1.394 . S
C18 H34 0.930 . S
C19 C17 1.371 . S
C19 C20 1.392 . S
C19 H35 0.931 . S
C20 C19 1.392 . S
C20 C21 1.331 . S
C20 H38 0.932 . S
C21 C20 1.331 . S
C21 C22 1.336 . S
C22 C18 1.394 . S
C22 C21 1.336 . S
C22 H37 0.929 . S
C23 C13 1.386 . S
C23 C16 1.357 . S
C23 H36 0.928 . S
H24 C0 0.931 . S
H25 C2 0.930 . S
H26 C4 0.929 . S
H27 C5 0.931 . S
H28 C7 0.930 . S
H29 C11 0.931 . S
H30 C9 0.931 . S
H31 C13 0.931 . S
H32 C14 0.929 . S
H33 C15 0.930 . S
H34 C18 0.930 . S
H35 C19 0.931 . S
H36 C23 0.928 . S
H37 C22 0.929 . S
H38 C20 0.932 . S
C39 C40 1.386 . S
C39 C41 1.397 . S
C39 H63 0.931 . S
C40 C39 1.386 . S
C40 C44 1.397 . S
C41 C39 1.397 . S
C41 C42 1.384 . S
C41 H64 0.930 . S
C42 C41 1.384 . S
C42 C43 1.377 . S
C42 C45 1.481 . S
C43 C42 1.377 . S
C43 C44 1.389 . S
C43 H65 0.929 . S
C44 C40 1.397 . S
C44 C43 1.389 . S
C44 H66 0.931 . S
C45 C42 1.481 . S
C45 C46 1.387 . S
C45 C50 1.390 . S
C46 C45 1.387 . S
C46 C47 1.401 . S
C46 H67 0.930 . S
C47 C46 1.401 . S
C47 C48 1.376 . S
C47 C56 1.511 . S
C48 C47 1.376 . S
C48 C49 1.392 . S
C48 H69 0.931 . S
C49 C48 1.392 . S
C49 C50 1.361 . S
C49 C51 1.500 . S
C50 C45 1.390 . S
C50 C49 1.361 . S
C50 H68 0.931 . S
C51 C49 1.500 . S
C51 C52 1.371 . S
C51 C53 1.365 . S
C52 C51 1.371 . S
C52 C62 1.386 . S
C52 H70 0.931 . S
C53 C51 1.365 . S
C53 C54 1.409 . S
C53 H71 0.929 . S
C54 C53 1.409 . S
C54 C55 1.380 . S
C54 H72 0.930 . S
C55 C54 1.380 . S
C55 C62 1.357 . S
C56 C47 1.511 . S
C56 C57 1.341 . S
C56 C58 1.371 . S
C57 C56 1.341 . S
C57 C61 1.394 . S
C57 H73 0.930 . S
C58 C56 1.371 . S
C58 C59 1.392 . S
C58 H74 0.931 . S
C59 C58 1.392 . S
C59 C60 1.331 . S
C59 H77 0.932 . S
C60 C59 1.331 . S
C60 C61 1.336 . S
C61 C57 1.394 . S
C61 C60 1.336 . S
C61 H76 0.929 . S
C62 C52 1.386 . S
C62 C55 1.357 . S
C62 H75 0.928 . S
H63 C39 0.931 . S
H64 C41 0.930 . S
H65 C43 0.929 . S
H66 C44 0.931 . S
H67 C46 0.930 . S
H68 C50 0.931 . S
H69 C48 0.931 . S
H70 C52 0.931 . S
H71 C53 0.929 . S
H72 C54 0.930 . S
H73 C57 0.930 . S
H74 C58 0.931 . S
H75 C62 0.928 . S
H76 C61 0.929 . S
H77 C59 0.932 . S
C78 C79 1.386 . S
C78 C80 1.397 . S
C78 H102 0.931 . S
C79 C78 1.386 . S
C79 C83 1.397 . S
C80 C78 1.397 . S
C80 C81 1.384 . S
C80 H103 0.930 . S
C81 C80 1.384 . S
C81 C82 1.377 . S
C81 C84 1.481 . S
C82 C81 1.377 . S
C82 C83 1.389 . S
C82 H104 0.929 . S
C83 C79 1.397 . S
C83 C82 1.389 . S
C83 H105 0.931 . S
C84 C81 1.481 . S
C84 C85 1.387 . S
C84 C89 1.390 . S
C85 C84 1.387 . S
C85 C86 1.401 . S
C85 H106 0.930 . S
C86 C85 1.401 . S
C86 C87 1.376 . S
C86 C95 1.511 . S
C87 C86 1.376 . S
C87 C88 1.392 . S
C87 H108 0.931 . S
C88 C87 1.392 . S
C88 C89 1.361 . S
C88 C90 1.500 . S
C89 C84 1.390 . S
C89 C88 1.361 . S
C89 H107 0.931 . S
C90 C88 1.500 . S
C90 C91 1.371 . S
C90 C92 1.365 . S
C91 C90 1.371 . S
C91 C101 1.386 . S
C91 H109 0.931 . S
C92 C90 1.365 . S
C92 C93 1.409 . S
C92 H110 0.929 . S
C93 C92 1.409 . S
C93 C94 1.380 . S
C93 H111 0.930 . S
C94 C93 1.380 . S
C94 C101 1.357 . S
C95 C86 1.511 . S
C95 C96 1.341 . S
C95 C97 1.371 . S
C96 C95 1.341 . S
C96 C100 1.394 . S
C96 H112 0.930 . S
C97 C95 1.371 . S
C97 C98 1.392 . S
C97 H113 0.931 . S
C98 C97 1.392 . S
C98 C99 1.331 . S
C98 H116 0.932 . S
C99 C98 1.331 . S
C99 C100 1.336 . S
C100 C96 1.394 . S
C100 C99 1.336 . S
C100 H115 0.929 . S
C101 C91 1.386 . S
C101 C94 1.357 . S
C101 H114 0.928 . S
H102 C78 0.931 . S
H103 C80 0.930 . S
H104 C82 0.929 . S
H105 C83 0.931 . S
H106 C85 0.930 . S
H107 C89 0.931 . S
H108 C87 0.931 . S
H109 C91 0.931 . S
H110 C92 0.929 . S
H111 C93 0.930 . S
H112 C96 0.930 . S
H113 C97 0.931 . S
H114 C101 0.928 . S
H115 C100 0.929 . S
H116 C98 0.932 . S
C117 C118 1.386 . S
C117 C119 1.397 . S
C117 H141 0.931 . S
C118 C117 1.386 . S
C118 C122 1.397 . S
C119 C117 1.397 . S
C119 C120 1.384 . S
C119 H142 0.930 . S
C120 C119 1.384 . S
C120 C121 1.377 . S
C120 C123 1.481 . S
C121 C120 1.377 . S
C121 C122 1.389 . S
C121 H143 0.929 . S
C122 C118 1.397 . S
C122 C121 1.389 . S
C122 H144 0.931 . S
C123 C120 1.481 . S
C123 C124 1.387 . S
C123 C128 1.390 . S
C124 C123 1.387 . S
C124 C125 1.401 . S
C124 H145 0.930 . S
C125 C124 1.401 . S
C125 C126 1.376 . S
C125 C134 1.511 . S
C126 C125 1.376 . S
C126 C127 1.392 . S
C126 H147 0.931 . S
C127 C126 1.392 . S
C127 C128 1.361 . S
C127 C129 1.500 . S
C128 C123 1.390 . S
C128 C127 1.361 . S
C128 H146 0.931 . S
C129 C127 1.500 . S
C129 C130 1.371 . S
C129 C131 1.365 . S
C130 C129 1.371 . S
C130 C140 1.386 . S
C130 H148 0.931 . S
C131 C129 1.365 . S
C131 C132 1.409 . S
C131 H149 0.929 . S
C132 C131 1.409 . S
C132 C133 1.380 . S
C132 H150 0.930 . S
C133 C132 1.380 . S
C133 C140 1.357 . S
C134 C125 1.511 . S
C134 C135 1.341 . S
C134 C136 1.371 . S
C135 C134 1.341 . S
C135 C139 1.394 . S
C135 H151 0.930 . S
C136 C134 1.371 . S
C136 C137 1.392 . S
C136 H152 0.931 . S
C137 C136 1.392 . S
C137 C138 1.331 . S
C137 H155 0.932 . S
C138 C137 1.331 . S
C138 C139 1.336 . S
C139 C135 1.394 . S
C139 C138 1.336 . S
C139 H154 0.929 . S
C140 C130 1.386 . S
C140 C133 1.357 . S
C140 H153 0.928 . S
H141 C117 0.931 . S
H142 C119 0.930 . S
H143 C121 0.929 . S
H144 C122 0.931 . S
H145 C124 0.930 . S
H146 C128 0.931 . S
H147 C126 0.931 . S
H148 C130 0.931 . S
H149 C131 0.929 . S
H150 C132 0.930 . S
H151 C135 0.930 . S
H152 C136 0.931 . S
H153 C140 0.928 . S
H154 C139 0.929 . S
H155 C137 0.932 . S
C156 C157 1.386 . S
C156 C158 1.397 . S
C156 H180 0.931 . S
C157 C156 1.386 . S
C157 C161 1.397 . S
C158 C156 1.397 . S
C158 C159 1.384 . S
C158 H181 0.930 . S
C159 C158 1.384 . S
C159 C160 1.377 . S
C159 C162 1.481 . S
C160 C159 1.377 . S
C160 C161 1.389 . S
C160 H182 0.929 . S
C161 C157 1.397 . S
C161 C160 1.389 . S
C161 H183 0.931 . S
C162 C159 1.481 . S
C162 C163 1.387 . S
C162 C167 1.390 . S
C163 C162 1.387 . S
C163 C164 1.401 . S
C163 H184 0.930 . S
C164 C163 1.401 . S
C164 C165 1.376 . S
C164 C173 1.511 . S
C165 C164 1.376 . S
C165 C166 1.392 . S
C165 H186 0.931 . S
C166 C165 1.392 . S
C166 C167 1.361 . S
C166 C168 1.500 . S
C167 C162 1.390 . S
C167 C166 1.361 . S
C167 H185 0.931 . S
C168 C166 1.500 . S
C168 C169 1.371 . S
C168 C170 1.365 . S
C169 C168 1.371 . S
C169 C179 1.386 . S
C169 H187 0.931 . S
C170 C168 1.365 . S
C170 C171 1.409 . S
C170 H188 0.929 . S
C171 C170 1.409 . S
C171 C172 1.380 . S
C171 H189 0.930 . S
C172 C171 1.380 . S
C172 C179 1.357 . S
C173 C164 1.511 . S
C173 C174 1.341 . S
C173 C175 1.371 . S
C174 C173 1.341 . S
C174 C178 1.394 . S
C174 H190 0.930 . S
C175 C173 1.371 . S
C175 C176 1.392 . S
C175 H191 0.931 . S
C176 C175 1.392 . S
C176 C177 1.331 . S
C176 H194 0.932 . S
C177 C176 1.331 . S
C177 C178 1.336 . S
C178 C174 1.394 . S
C178 C177 1.336 . S
C178 H193 0.929 . S
C179 C169 1.386 . S
C179 C172 1.357 . S
C179 H192 0.928 . S
H180 C156 0.931 . S
H181 C158 0.930 . S
H182 C160 0.929 . S
H183 C161 0.931 . S
H184 C163 0.930 . S
H185 C167 0.931 . S
H186 C165 0.931 . S
H187 C169 0.931 . S
H188 C170 0.929 . S
H189 C171 0.930 . S
H190 C174 0.930 . S
H191 C175 0.931 . S
H192 C179 0.928 . S
H193 C178 0.929 . S
H194 C176 0.932 . S
C195 C196 1.386 . S
C195 C197 1.397 . S
C195 H219 0.931 . S
C196 C195 1.386 . S
C196 C200 1.397 . S
C197 C195 1.397 . S
C197 C198 1.384 . S
C197 H220 0.930 . S
C198 C197 1.384 . S
C198 C199 1.377 . S
C198 C201 1.481 . S
C199 C198 1.377 . S
C199 C200 1.389 . S
C199 H221 0.929 . S
C200 C196 1.397 . S
C200 C199 1.389 . S
C200 H222 0.931 . S
C201 C198 1.481 . S
C201 C202 1.387 . S
C201 C206 1.390 . S
C202 C201 1.387 . S
C202 C203 1.401 . S
C202 H223 0.930 . S
C203 C202 1.401 . S
C203 C204 1.376 . S
C203 C212 1.511 . S
C204 C203 1.376 . S
C204 C205 1.392 . S
C204 H225 0.931 . S
C205 C204 1.392 . S
C205 C206 1.361 . S
C205 C207 1.500 . S
C206 C201 1.390 . S
C206 C205 1.361 . S
C206 H224 0.931 . S
C207 C205 1.500 . S
C207 C208 1.371 . S
C207 C209 1.365 . S
C208 C207 1.371 . S
C208 C218 1.386 . S
C208 H226 0.931 . S
C209 C207 1.365 . S
C209 C210 1.409 . S
C209 H227 0.929 . S
C210 C209 1.409 . S
C210 C211 1.380 . S
C210 H228 0.930 . S
C211 C210 1.380 . S
C211 C218 1.357 . S
C212 C203 1.511 . S
C212 C213 1.341 . S
C212 C214 1.371 . S
C213 C212 1.341 . S
C213 C217 1.394 . S
C213 H229 0.930 . S
C214 C212 1.371 . S
C214 C215 1.392 . S
C214 H230 0.931 . S
C215 C214 1.392 . S
C215 C216 1.331 . S
C215 H233 0.932 . S
C216 C215 1.331 . S
C216 C217 1.336 . S
C217 C213 1.394 . S
C217 C216 1.336 . S
C217 H232 0.929 . S
C218 C208 1.386 . S
C218 C211 1.357 . S
C218 H231 0.928 . S
H219 C195 0.931 . S
H220 C197 0.930 . S
H221 C199 0.929 . S
H222 C200 0.931 . S
H223 C202 0.930 . S
H224 C206 0.931 . S
H225 C204 0.931 . S
H226 C208 0.931 . S
H227 C209 0.929 . S
H228 C210 0.930 . S
H229 C213 0.930 . S
H230 C214 0.931 . S
H231 C218 0.928 . S
H232 C217 0.929 . S
H233 C215 0.932 . S
C234 C235 1.386 . S
C234 C236 1.397 . S
C234 H258 0.931 . S
C235 C234 1.386 . S
C235 C239 1.397 . S
C236 C234 1.397 . S
C236 C237 1.384 . S
C236 H259 0.930 . S
C237 C236 1.384 . S
C237 C238 1.377 . S
C237 C240 1.481 . S
C238 C237 1.377 . S
C238 C239 1.389 . S
C238 H260 0.929 . S
C239 C235 1.397 . S
C239 C238 1.389 . S
C239 H261 0.931 . S
C240 C237 1.481 . S
C240 C241 1.387 . S
C240 C245 1.390 . S
C241 C240 1.387 . S
C241 C242 1.401 . S
C241 H262 0.930 . S
C242 C241 1.401 . S
C242 C243 1.376 . S
C242 C251 1.511 . S
C243 C242 1.376 . S
C243 C244 1.392 . S
C243 H264 0.931 . S
C244 C243 1.392 . S
C244 C245 1.361 . S
C244 C246 1.500 . S
C245 C240 1.390 . S
C245 C244 1.361 . S
C245 H263 0.931 . S
C246 C244 1.500 . S
C246 C247 1.371 . S
C246 C248 1.365 . S
C247 C246 1.371 . S
C247 C257 1.386 . S
C247 H265 0.931 . S
C248 C246 1.365 . S
C248 C249 1.409 . S
C248 H266 0.929 . S
C249 C248 1.409 . S
C249 C250 1.380 . S
C249 H267 0.930 . S
C250 C249 1.380 . S
C250 C257 1.357 . S
C251 C242 1.511 . S
C251 C252 1.341 . S
C251 C253 1.371 . S
C252 C251 1.341 . S
C252 C256 1.394 . S
C252 H268 0.930 . S
C253 C251 1.371 . S
C253 C254 1.392 . S
C253 H269 0.931 . S
C254 C253 1.392 . S
C254 C255 1.331 . S
C254 H272 0.932 . S
C255 C254 1.331 . S
C255 C256 1.336 . S
C256 C252 1.394 . S
C256 C255 1.336 . S
C256 H271 0.929 . S
C257 C247 1.386 . S
C257 C250 1.357 . S
C257 H270 0.928 . S
H258 C234 0.931 . S
H259 C236 0.930 . S
H260 C238 0.929 . S
H261 C239 0.931 . S
H262 C241 0.930 . S
H263 C245 0.931 . S
H264 C243 0.931 . S
H265 C247 0.931 . S
H266 C248 0.929 . S
H267 C249 0.930 . S
H268 C252 0.930 . S
H269 C253 0.931 . S
H270 C257 0.928 . S
H271 C256 0.929 . S
H272 C254 0.932 . S
C273 C274 1.386 . S
C273 C275 1.397 . S
C273 H297 0.931 . S
C274 C273 1.386 . S
C274 C278 1.397 . S
C275 C273 1.397 . S
C275 C276 1.384 . S
C275 H298 0.930 . S
C276 C275 1.384 . S
C276 C277 1.377 . S
C276 C279 1.481 . S
C277 C276 1.377 . S
C277 C278 1.389 . S
C277 H299 0.929 . S
C278 C274 1.397 . S
C278 C277 1.389 . S
C278 H300 0.931 . S
C279 C276 1.481 . S
C279 C280 1.387 . S
C279 C284 1.390 . S
C280 C279 1.387 . S
C280 C281 1.401 . S
C280 H301 0.930 . S
C281 C280 1.401 . S
C281 C282 1.376 . S
C281 C290 1.511 . S
C282 C281 1.376 . S
C282 C283 1.392 . S
C282 H303 0.931 . S
C283 C282 1.392 . S
C283 C284 1.361 . S
C283 C285 1.500 . S
C284 C279 1.390 . S
C284 C283 1.361 . S
C284 H302 0.931 . S
C285 C283 1.500 . S
C285 C286 1.371 . S
C285 C287 1.365 . S
C286 C285 1.371 . S
C286 C296 1.386 . S
C286 H304 0.931 . S
C287 C285 1.365 . S
C287 C288 1.409 . S
C287 H305 0.929 . S
C288 C287 1.409 . S
C288 C289 1.380 . S
C288 H306 0.930 . S
C289 C288 1.380 . S
C289 C296 1.357 . S
C290 C281 1.511 . S
C290 C291 1.341 . S
C290 C292 1.371 . S
C291 C290 1.341 . S
C291 C295 1.394 . S
C291 H307 0.930 . S
C292 C290 1.371 . S
C292 C293 1.392 . S
C292 H308 0.931 . S
C293 C292 1.392 . S
C293 C294 1.331 . S
C293 H311 0.932 . S
C294 C293 1.331 . S
C294 C295 1.336 . S
C295 C291 1.394 . S
C295 C294 1.336 . S
C295 H310 0.929 . S
C296 C286 1.386 . S
C296 C289 1.357 . S
C296 H309 0.928 . S
H297 C273 0.931 . S
H298 C275 0.930 . S
H299 C277 0.929 . S
H300 C278 0.931 . S
H301 C280 0.930 . S
H302 C284 0.931 . S
H303 C282 0.931 . S
H304 C286 0.931 . S
H305 C287 0.929 . S
H306 C288 0.930 . S
H307 C291 0.930 . S
H308 C292 0.931 . S
H309 C296 0.928 . S
H310 C295 0.929 . S
H311 C293 0.932 . S
Tb312 C321 2.764 . S
Tb312 O322 2.307 1_455 S
Tb312 O325 2.303 . S
Tb312 O329 2.322 1_545 S
Tb312 O330 2.349 1_545 S
Tb312 O333 2.415 . S
Tb312 O334 2.399 . S
Tb313 O323 2.332 . S
Tb313 O324 2.361 . S
Tb313 O326 2.403 1_545 S
Tb313 O327 2.398 1_545 S
Tb313 O328 2.316 1_645 S
Tb313 O331 2.294 1_545 S
Tb313 C342 2.756 1_545 S
C314 O330 1.261 1_655 S
C314 O331 1.257 . S
C315 C318 1.358 . S
C315 C319 1.332 . S
C315 C321 1.504 . S
C316 C317 1.373 . S
C316 C320 1.308 . S
C317 C316 1.373 . S
C317 C318 1.429 . S
C317 H344 0.932 . S
C318 C315 1.358 . S
C318 C317 1.429 . S
C318 H345 0.930 . S
C319 C315 1.332 . S
C319 C320 1.394 . S
C319 H346 0.932 . S
C320 C316 1.308 . S
C320 C319 1.394 . S
C320 H347 0.929 . S
C321 Tb312 2.764 . S
C321 C315 1.504 . S
C321 O333 1.239 . S
C321 O334 1.263 . S
O322 Tb312 2.307 1_655 S
O322 C332 1.255 . S
O323 Tb313 2.332 . S
O323 C332 1.257 . S
O324 Tb313 2.361 . S
O324 C335 1.261 1_655 S
O325 Tb312 2.303 . S
O325 C335 1.257 . S
O326 Tb313 2.403 1_565 S
O326 C342 1.239 . S
O327 Tb313 2.398 1_565 S
O327 C342 1.263 . S
O328 Tb313 2.316 1_465 S
O328 C343 1.236 . S
O329 Tb312 2.322 1_565 S
O329 C343 1.257 . S
O330 Tb312 2.349 1_565 S
O330 C314 1.261 1_455 S
O331 Tb313 2.294 1_565 S
O331 C314 1.257 . S
C332 O322 1.255 . S
C332 O323 1.257 . S
O333 Tb312 2.415 . S
O333 C321 1.239 . S
O334 Tb312 2.399 . S
O334 C321 1.263 . S
C335 O324 1.261 1_455 S
C335 O325 1.257 . S
C336 C339 1.358 . S
C336 C340 1.332 . S
C336 C342 1.504 . S
C337 C338 1.373 . S
C337 C341 1.308 . S
C338 C337 1.373 . S
C338 C339 1.429 . S
C338 H348 0.932 . S
C339 C336 1.358 . S
C339 C338 1.429 . S
C339 H349 0.930 . S
C340 C336 1.332 . S
C340 C341 1.394 . S
C340 H350 0.932 . S
C341 C337 1.308 . S
C341 C340 1.394 . S
C341 H351 0.929 . S
C342 Tb313 2.756 1_565 S
C342 O326 1.239 . S
C342 O327 1.263 . S
C342 C336 1.504 . S
C343 O328 1.236 . S
C343 O329 1.257 . S
H344 C317 0.932 . S
H345 C318 0.930 . S
H346 C319 0.932 . S
H347 C320 0.929 . S
H348 C338 0.932 . S
H349 C339 0.930 . S
H350 C340 0.932 . S
H351 C341 0.929 . S
Tb352 C361 2.764 . S
Tb352 O362 2.325 1_554 S
Tb352 O365 2.303 . S
Tb352 O369 2.322 1_545 S
Tb352 O370 2.349 1_544 S
Tb352 O373 2.415 . S
Tb352 O374 2.399 . S
Tb353 O363 2.322 1_565 S
Tb353 O364 2.349 1_566 S
Tb353 O366 2.415 . S
Tb353 O367 2.399 . S
Tb353 O368 2.325 1_556 S
Tb353 O371 2.303 . S
Tb353 C382 2.764 . S
C354 O370 1.261 . S
C354 O371 1.257 . S
C355 C358 1.358 . S
C355 C359 1.332 . S
C355 C361 1.504 . S
C356 C357 1.373 . S
C356 C360 1.308 . S
C357 C356 1.373 . S
C357 C358 1.429 . S
C357 H384 0.932 . S
C358 C355 1.358 . S
C358 C357 1.429 . S
C358 H385 0.930 . S
C359 C355 1.332 . S
C359 C360 1.394 . S
C359 H386 0.932 . S
C360 C356 1.308 . S
C360 C359 1.394 . S
C360 H387 0.929 . S
C361 Tb352 2.764 . S
C361 C355 1.504 . S
C361 O373 1.239 . S
C361 O374 1.263 . S
O362 Tb352 2.325 1_556 S
O362 C372 1.236 . S
O363 Tb353 2.322 1_545 S
O363 C372 1.257 . S
O364 Tb353 2.349 1_544 S
O364 C375 1.261 . S
O365 Tb352 2.303 . S
O365 C375 1.257 . S
O366 Tb353 2.415 . S
O366 C382 1.239 . S
O367 Tb353 2.399 . S
O367 C382 1.263 . S
O368 Tb353 2.325 1_554 S
O368 C383 1.236 . S
O369 Tb352 2.322 1_565 S
O369 C383 1.257 . S
O370 Tb352 2.349 1_566 S
O370 C354 1.261 . S
O371 Tb353 2.303 . S
O371 C354 1.257 . S
C372 O362 1.236 . S
C372 O363 1.257 . S
O373 Tb352 2.415 . S
O373 C361 1.239 . S
O374 Tb352 2.399 . S
O374 C361 1.263 . S
C375 O364 1.261 . S
C375 O365 1.257 . S
C376 C379 1.358 . S
C376 C380 1.332 . S
C376 C382 1.504 . S
C377 C378 1.373 . S
C377 C381 1.308 . S
C378 C377 1.373 . S
C378 C379 1.429 . S
C378 H388 0.932 . S
C379 C376 1.358 . S
C379 C378 1.429 . S
C379 H389 0.930 . S
C380 C376 1.332 . S
C380 C381 1.394 . S
C380 H390 0.932 . S
C381 C377 1.308 . S
C381 C380 1.394 . S
C381 H391 0.929 . S
C382 Tb353 2.764 . S
C382 O366 1.239 . S
C382 O367 1.263 . S
C382 C376 1.504 . S
C383 O368 1.236 . S
C383 O369 1.257 . S
H384 C357 0.932 . S
H385 C358 0.930 . S
H386 C359 0.932 . S
H387 C360 0.929 . S
H388 C378 0.932 . S
H389 C379 0.930 . S
H390 C380 0.932 . S
H391 C381 0.929 . S
Tb392 C401 2.764 . S
Tb392 O402 2.325 . S
Tb392 O405 2.303 . S
Tb392 O409 2.322 . S
Tb392 O410 2.349 . S
Tb392 O413 2.415 . S
Tb392 O414 2.399 . S
Tb393 O403 2.322 . S
Tb393 O404 2.349 . S
Tb393 O406 2.415 . S
Tb393 O407 2.399 . S
Tb393 O408 2.325 . S
Tb393 O411 2.303 . S
Tb393 C422 2.764 . S
C394 O410 1.261 . S
C394 O411 1.257 . S
C395 C398 1.358 . S
C395 C399 1.332 . S
C395 C401 1.504 . S
C396 C397 1.373 . S
C396 C400 1.308 . S
C397 C396 1.373 . S
C397 C398 1.429 . S
C397 H424 0.932 . S
C398 C395 1.358 . S
C398 C397 1.429 . S
C398 H425 0.930 . S
C399 C395 1.332 . S
C399 C400 1.394 . S
C399 H426 0.932 . S
C400 C396 1.308 . S
C400 C399 1.394 . S
C400 H427 0.929 . S
C401 Tb392 2.764 . S
C401 C395 1.504 . S
C401 O413 1.239 . S
C401 O414 1.263 . S
O402 Tb392 2.325 . S
O402 C412 1.236 . S
O403 Tb393 2.322 . S
O403 C412 1.257 . S
O404 Tb393 2.349 . S
O404 C415 1.261 . S
O405 Tb392 2.303 . S
O405 C415 1.257 . S
O406 Tb393 2.415 . S
O406 C422 1.239 . S
O407 Tb393 2.399 . S
O407 C422 1.263 . S
O408 Tb393 2.325 . S
O408 C423 1.236 . S
O409 Tb392 2.322 . S
O409 C423 1.257 . S
O410 Tb392 2.349 . S
O410 C394 1.261 . S
O411 Tb393 2.303 . S
O411 C394 1.257 . S
C412 O402 1.236 . S
C412 O403 1.257 . S
O413 Tb392 2.415 . S
O413 C401 1.239 . S
O414 Tb392 2.399 . S
O414 C401 1.263 . S
C415 O404 1.261 . S
C415 O405 1.257 . S
C416 C419 1.358 . S
C416 C420 1.332 . S
C416 C422 1.504 . S
C417 C418 1.373 . S
C417 C421 1.308 . S
C418 C417 1.373 . S
C418 C419 1.429 . S
C418 H428 0.932 . S
C419 C416 1.358 . S
C419 C418 1.429 . S
C419 H429 0.930 . S
C420 C416 1.332 . S
C420 C421 1.394 . S
C420 H430 0.932 . S
C421 C417 1.308 . S
C421 C420 1.394 . S
C421 H431 0.929 . S
C422 Tb393 2.764 . S
C422 O406 1.239 . S
C422 O407 1.263 . S
C422 C416 1.504 . S
C423 O408 1.236 . S
C423 O409 1.257 . S
H424 C397 0.932 . S
H425 C398 0.930 . S
H426 C399 0.932 . S
H427 C400 0.929 . S
H428 C418 0.932 . S
H429 C419 0.930 . S
H430 C420 0.932 . S
H431 C421 0.929 . S
Tb432 C441 2.764 . S
Tb432 O442 2.325 . S
Tb432 O445 2.303 1_556 S
Tb432 O449 2.329 1_655 S
Tb432 O450 2.349 1_655 S
Tb432 O453 2.415 . S
Tb432 O454 2.399 . S
Tb433 O443 2.322 1_455 S
Tb433 O444 2.349 1_455 S
Tb433 O446 2.415 . S
Tb433 O447 2.399 . S
Tb433 O448 2.325 . S
Tb433 O451 2.303 1_554 S
Tb433 C462 2.764 . S
C434 O450 1.261 . S
C434 O451 1.257 . S
C435 C438 1.358 . S
C435 C439 1.332 . S
C435 C441 1.504 . S
C436 C437 1.373 . S
C436 C440 1.308 . S
C437 C436 1.373 . S
C437 C438 1.429 . S
C437 H464 0.932 . S
C438 C435 1.358 . S
C438 C437 1.429 . S
C438 H465 0.930 . S
C439 C435 1.332 . S
C439 C440 1.394 . S
C439 H466 0.932 . S
C440 C436 1.308 . S
C440 C439 1.394 . S
C440 H467 0.929 . S
C441 Tb432 2.764 . S
C441 C435 1.504 . S
C441 O453 1.239 . S
C441 O454 1.263 . S
O442 Tb432 2.325 . S
O442 C452 1.236 . S
O443 Tb433 2.322 1_655 S
O443 C452 1.257 1_554 S
O444 Tb433 2.349 1_655 S
O444 C455 1.261 . S
O445 Tb432 2.303 1_554 S
O445 C455 1.257 . S
O446 Tb433 2.415 . S
O446 C462 1.239 . S
O447 Tb433 2.399 . S
O447 C462 1.263 . S
O448 Tb433 2.325 . S
O448 C463 1.236 . S
O449 Tb432 2.329 1_455 S
O449 C463 1.247 1_556 S
O450 Tb432 2.349 1_455 S
O450 C434 1.261 . S
O451 Tb433 2.303 1_556 S
O451 C434 1.257 . S
C452 O442 1.236 . S
C452 O443 1.257 1_556 S
O453 Tb432 2.415 . S
O453 C441 1.239 . S
O454 Tb432 2.399 . S
O454 C441 1.263 . S
C455 O444 1.261 . S
C455 O445 1.257 . S
C456 C459 1.358 . S
C456 C460 1.332 . S
C456 C462 1.504 . S
C457 C458 1.373 . S
C457 C461 1.308 . S
C458 C457 1.373 . S
C458 C459 1.429 . S
C458 H468 0.932 . S
C459 C456 1.358 . S
C459 C458 1.429 . S
C459 H469 0.930 . S
C460 C456 1.332 . S
C460 C461 1.394 . S
C460 H470 0.932 . S
C461 C457 1.308 . S
C461 C460 1.394 . S
C461 H471 0.929 . S
C462 Tb433 2.764 . S
C462 O446 1.239 . S
C462 O447 1.263 . S
C462 C456 1.504 . S
C463 O448 1.236 . S
C463 O449 1.247 1_554 S
H464 C437 0.932 . S
H465 C438 0.930 . S
H466 C439 0.932 . S
H467 C440 0.929 . S
H468 C458 0.932 . S
H469 C459 0.930 . S
H470 C460 0.932 . S
H471 C461 0.929 . S
C472 C473 1.369 . S
C472 C474 1.419 . S
C472 H476 0.930 . S
C473 C472 1.369 . S
C473 C482 1.429 . S
C474 C472 1.419 . S
C474 C475 1.363 . S
C474 H477 0.929 . S
C475 C474 1.363 . S
C475 C481 1.428 . S
H476 C472 0.930 . S
H477 C474 0.929 . S
S478 N479 1.613 . S
S478 N480 1.610 . S
N479 S478 1.613 . S
N479 C482 1.350 . S
N480 S478 1.610 . S
N480 C481 1.351 . S
C481 C475 1.428 . S
C481 N480 1.351 . S
C481 C482 1.434 . S
C482 C473 1.429 . S
C482 N479 1.350 . S
C482 C481 1.434 . S
C483 C484 1.369 . S
C483 C485 1.419 . S
C483 H487 0.930 . S
C484 C483 1.369 . S
C484 C493 1.429 . S
C485 C483 1.419 . S
C485 C486 1.363 . S
C485 H488 0.929 . S
C486 C485 1.363 . S
C486 C492 1.428 . S
H487 C483 0.930 . S
H488 C485 0.929 . S
S489 N490 1.613 . S
S489 N491 1.610 . S
N490 S489 1.613 . S
N490 C493 1.350 . S
N491 S489 1.610 . S
N491 C492 1.351 . S
C492 C486 1.428 . S
C492 N491 1.351 . S
C492 C493 1.434 . S
C493 C484 1.429 . S
C493 N490 1.350 . S
C493 C492 1.434 . S
C494 C495 1.369 . S
C494 C496 1.419 . S
C494 H498 0.930 . S
C495 C494 1.369 . S
C495 C504 1.429 . S
C496 C494 1.419 . S
C496 C497 1.363 . S
C496 H499 0.929 . S
C497 C496 1.363 . S
C497 C503 1.428 . S
H498 C494 0.930 . S
H499 C496 0.929 . S
S500 N501 1.613 . S
S500 N502 1.610 . S
N501 S500 1.613 . S
N501 C504 1.350 . S
N502 S500 1.610 . S
N502 C503 1.351 . S
C503 C497 1.428 . S
C503 N502 1.351 . S
C503 C504 1.434 . S
C504 C495 1.429 . S
C504 N501 1.350 . S
C504 C503 1.434 . S
C505 C506 1.369 . S
C505 C507 1.419 . S
C505 H509 0.930 . S
C506 C505 1.369 . S
C506 C515 1.429 . S
C507 C505 1.419 . S
C507 C508 1.363 . S
C507 H510 0.929 . S
C508 C507 1.363 . S
C508 C514 1.428 . S
H509 C505 0.930 . S
H510 C507 0.929 . S
S511 N512 1.613 . S
S511 N513 1.610 . S
N512 S511 1.613 . S
N512 C515 1.350 . S
N513 S511 1.610 . S
N513 C514 1.351 . S
C514 C508 1.428 . S
C514 N513 1.351 . S
C514 C515 1.434 . S
C515 C506 1.429 . S
C515 N512 1.350 . S
C515 C514 1.434 . S
C516 C517 1.369 . S
C516 C518 1.419 . S
C516 H520 0.930 . S
C517 C516 1.369 . S
C517 C526 1.429 . S
C518 C516 1.419 . S
C518 C519 1.363 . S
C518 H521 0.929 . S
C519 C518 1.363 . S
C519 C525 1.428 . S
H520 C516 0.930 . S
H521 C518 0.929 . S
S522 N523 1.613 . S
S522 N524 1.610 . S
N523 S522 1.613 . S
N523 C526 1.350 . S
N524 S522 1.610 . S
N524 C525 1.351 . S
C525 C519 1.428 . S
C525 N524 1.351 . S
C525 C526 1.434 . S
C526 C517 1.429 . S
C526 N523 1.350 . S
C526 C525 1.434 . S
C527 C528 1.369 . S
C527 C529 1.419 . S
C527 H531 0.930 . S
C528 C527 1.369 . S
C528 C537 1.429 . S
C529 C527 1.419 . S
C529 C530 1.363 . S
C529 H532 0.929 . S
C530 C529 1.363 . S
C530 C536 1.428 . S
H531 C527 0.930 . S
H532 C529 0.929 . S
S533 N534 1.613 . S
S533 N535 1.610 . S
N534 S533 1.613 . S
N534 C537 1.350 1_655 S
N535 S533 1.610 . S
N535 C536 1.351 1_655 S
C536 C530 1.428 . S
C536 N535 1.351 1_455 S
C536 C537 1.434 . S
C537 C528 1.429 . S
C537 N534 1.350 1_455 S
C537 C536 1.434 . S
C538 C539 1.369 . S
C538 C540 1.419 . S
C538 H542 0.930 . S
C539 C538 1.369 . S
C539 C548 1.429 . S
C540 C538 1.419 . S
C540 C541 1.363 . S
C540 H543 0.906 1_556 S
C541 C540 1.363 . S
C541 C547 1.428 . S
H542 C538 0.930 . S
H543 C540 0.906 1_554 S
S544 N545 1.613 . S
S544 N546 1.610 . S
N545 S544 1.613 . S
N545 C548 1.350 . S
N546 S544 1.610 . S
N546 C547 1.351 . S
C547 C541 1.428 . S
C547 N546 1.351 . S
C547 C548 1.434 . S
C548 C539 1.429 . S
C548 N545 1.350 . S
C548 C547 1.434 . S
C549 C550 1.369 . S
C549 C551 1.419 . S
C549 H553 0.930 . S
C550 C549 1.369 . S
C550 C559 1.429 . S
C551 C549 1.419 . S
C551 C552 1.363 . S
C551 H554 0.929 . S
C552 C551 1.363 . S
C552 C558 1.428 . S
H553 C549 0.930 . S
H554 C551 0.929 . S
S555 N556 1.613 . S
S555 N557 1.610 . S
N556 S555 1.613 . S
N556 C559 1.350 . S
N557 S555 1.610 . S
N557 C558 1.351 . S
C558 C552 1.428 . S
C558 N557 1.351 . S
C558 C559 1.434 . S
C559 C550 1.429 . S
C559 N556 1.350 . S
C559 C558 1.434 . S
C560 C561 1.369 . S
C560 C562 1.419 . S
C560 H564 0.930 . S
C561 C560 1.369 . S
C561 C570 1.429 . S
C562 C560 1.419 . S
C562 C563 1.363 . S
C562 H565 0.929 . S
C563 C562 1.363 . S
C563 C569 1.428 . S
H564 C560 0.930 . S
H565 C562 0.929 . S
S566 N567 1.613 . S
S566 N568 1.610 . S
N567 S566 1.613 . S
N567 C570 1.350 . S
N568 S566 1.610 . S
N568 C569 1.351 . S
C569 C563 1.428 . S
C569 N568 1.351 . S
C569 C570 1.434 . S
C570 C561 1.429 . S
C570 N567 1.350 . S
C570 C569 1.434 . S
C571 C572 1.369 . S
C571 C573 1.419 . S
C571 H575 0.930 . S
C572 C571 1.369 . S
C572 C581 1.429 . S
C573 C571 1.419 . S
C573 C574 1.363 . S
C573 H576 0.929 . S
C574 C573 1.363 . S
C574 C580 1.428 . S
H575 C571 0.930 . S
H576 C573 0.929 . S
S577 N578 1.613 . S
S577 N579 1.610 . S
N578 S577 1.613 . S
N578 C581 1.350 . S
N579 S577 1.610 . S
N579 C580 1.351 . S
C580 C574 1.428 . S
C580 N579 1.351 . S
C580 C581 1.434 . S
C581 C572 1.429 . S
C581 N578 1.350 . S
C581 C580 1.434 . S
C582 C583 1.369 . S
C582 C584 1.419 . S
C582 H586 0.930 . S
C583 C582 1.369 . S
C583 C592 1.429 . S
C584 C582 1.419 . S
C584 C585 1.363 . S
C584 H587 0.929 . S
C585 C584 1.363 . S
C585 C591 1.428 . S
H586 C582 0.930 . S
H587 C584 0.929 . S
S588 N589 1.613 . S
S588 N590 1.610 . S
N589 S588 1.613 . S
N589 C592 1.350 1_455 S
N590 S588 1.610 . S
N590 C591 1.351 1_455 S
C591 C585 1.428 . S
C591 N590 1.351 1_655 S
C591 C592 1.434 . S
C592 C583 1.429 . S
C592 N589 1.350 1_655 S
C592 C591 1.434 . S
C593 C594 1.369 . S
C593 C595 1.419 . S
C593 H597 0.930 . S
C594 C593 1.369 . S
C594 C603 1.429 . S
C595 C593 1.419 . S
C595 C596 1.363 . S
C595 H598 0.929 . S
C596 C595 1.363 . S
C596 C602 1.428 . S
H597 C593 0.930 . S
H598 C595 0.929 . S
S599 N600 1.613 . S
S599 N601 1.610 . S
N600 S599 1.613 . S
N600 C603 1.350 . S
N601 S599 1.610 . S
N601 C602 1.351 . S
C602 C596 1.428 . S
C602 N601 1.351 . S
C602 C603 1.434 . S
C603 C594 1.429 . S
C603 N600 1.350 . S
C603 C602 1.434 . S
C604 C605 1.369 . S
C604 C606 1.419 . S
C604 H608 0.930 . S
C605 C604 1.369 . S
C605 C614 1.429 . S
C606 C604 1.419 . S
C606 C607 1.363 . S
C606 H609 0.929 . S
C607 C606 1.363 . S
C607 C613 1.428 . S
H608 C604 0.930 . S
H609 C606 0.929 . S
S610 N611 1.613 . S
S610 N612 1.610 . S
N611 S610 1.613 . S
N611 C614 1.350 . S
N612 S610 1.610 . S
N612 C613 1.351 . S
C613 C607 1.428 . S
C613 N612 1.351 . S
C613 C614 1.434 . S
C614 C605 1.429 . S
C614 N611 1.350 . S
C614 C613 1.434 . S
C615 C616 1.369 . S
C615 C617 1.419 . S
C615 H619 0.930 . S
C616 C615 1.369 . S
C616 C625 1.429 . S
C617 C615 1.419 . S
C617 C618 1.363 . S
C617 H620 0.929 . S
C618 C617 1.363 . S
C618 C624 1.428 . S
H619 C615 0.930 . S
H620 C617 0.929 . S
S621 N622 1.613 . S
S621 N623 1.610 . S
N622 S621 1.613 . S
N622 C625 1.350 . S
N623 S621 1.610 . S
N623 C624 1.351 . S
C624 C618 1.428 . S
C624 N623 1.351 . S
C624 C625 1.434 . S
C625 C616 1.429 . S
C625 N622 1.350 . S
C625 C624 1.434 . S
C626 C627 1.369 . S
C626 C628 1.419 . S
C626 H630 0.930 . S
C627 C626 1.369 . S
C627 C636 1.429 . S
C628 C626 1.419 . S
C628 C629 1.363 . S
C628 H631 0.929 . S
C629 C628 1.363 . S
C629 C635 1.428 . S
H630 C626 0.930 . S
H631 C628 0.929 . S
S632 N633 1.613 . S
S632 N634 1.610 . S
N633 S632 1.613 . S
N633 C636 1.350 . S
N634 S632 1.610 . S
N634 C635 1.351 . S
C635 C629 1.428 . S
C635 N634 1.351 . S
C635 C636 1.434 . S
C636 C627 1.429 . S
C636 N633 1.350 . S
C636 C635 1.434 . S
C637 C638 1.369 . S
C637 C639 1.419 . S
C637 H641 0.930 . S
C638 C637 1.369 . S
C638 C647 1.429 . S
C639 C637 1.419 . S
C639 C640 1.363 . S
C639 H642 0.929 . S
C640 C639 1.363 . S
C640 C646 1.428 . S
H641 C637 0.930 . S
H642 C639 0.929 . S
S643 N644 1.613 . S
S643 N645 1.610 . S
N644 S643 1.613 . S
N644 C647 1.350 . S
N645 S643 1.610 . S
N645 C646 1.351 . S
C646 C640 1.428 . S
C646 N645 1.351 . S
C646 C647 1.434 . S
C647 C638 1.429 . S
C647 N644 1.350 . S
C647 C646 1.434 . S
C648 C649 1.369 . S
C648 C650 1.419 . S
C648 H652 0.930 . S
C649 C648 1.369 . S
C649 C658 1.429 . S
C650 C648 1.419 . S
C650 C651 1.363 . S
C650 H653 0.929 . S
C651 C650 1.363 . S
C651 C657 1.428 . S
H652 C648 0.930 . S
H653 C650 0.929 . S
S654 N655 1.613 . S
S654 N656 1.610 . S
N655 S654 1.613 . S
N655 C658 1.350 . S
N656 S654 1.610 . S
N656 C657 1.351 . S
C657 C651 1.428 . S
C657 N656 1.351 . S
C657 C658 1.434 . S
C658 C649 1.429 . S
C658 N655 1.350 . S
C658 C657 1.434 . S
C659 C660 1.369 . S
C659 C661 1.419 . S
C659 H663 0.930 1_655 S
C660 C659 1.369 . S
C660 C669 1.429 . S
C661 C659 1.419 . S
C661 C662 1.363 . S
C661 H664 0.929 1_655 S
C662 C661 1.363 . S
C662 C668 1.428 . S
H663 C659 0.930 1_455 S
H664 C661 0.929 1_455 S
S665 N666 1.613 . S
S665 N667 1.610 . S
N666 S665 1.613 . S
N666 C669 1.350 . S
N667 S665 1.610 . S
N667 C668 1.351 . S
C668 C662 1.428 . S
C668 N667 1.351 . S
C668 C669 1.434 . S
C669 C660 1.429 . S
C669 N666 1.350 . S
C669 C668 1.434 . S
C670 C671 1.369 . S
C670 C672 1.419 . S
C670 H674 0.930 . S
C671 C670 1.369 . S
C671 C680 1.429 . S
C672 C670 1.419 . S
C672 C673 1.363 . S
C672 H675 0.929 . S
C673 C672 1.363 . S
C673 C679 1.428 . S
H674 C670 0.930 . S
H675 C672 0.929 . S
S676 N677 1.613 1_556 S
S676 N678 1.610 . S
N677 S676 1.613 1_554 S
N677 C680 1.350 . S
N678 S676 1.610 . S
N678 C679 1.351 1_556 S
C679 C673 1.428 . S
C679 N678 1.351 1_554 S
C679 C680 1.434 . S
C680 C671 1.429 . S
C680 N677 1.350 . S
C680 C679 1.434 . S
C681 C682 1.369 . S
C681 C683 1.419 . S
C681 H685 0.930 . S
C682 C681 1.369 . S
C682 C691 1.429 . S
C683 C681 1.419 . S
C683 C684 1.363 . S
C683 H686 0.929 . S
C684 C683 1.363 . S
C684 C690 1.428 . S
H685 C681 0.930 . S
H686 C683 0.929 . S
S687 N688 1.613 . S
S687 N689 1.610 . S
N688 S687 1.613 . S
N688 C691 1.350 . S
N689 S687 1.610 . S
N689 C690 1.351 . S
C690 C684 1.428 . S
C690 N689 1.351 . S
C690 C691 1.434 . S
C691 C682 1.429 . S
C691 N688 1.350 . S
C691 C690 1.434 . S
C692 C693 1.369 . S
C692 C694 1.419 . S
C692 H696 0.930 . S
C693 C692 1.369 . S
C693 C702 1.429 . S
C694 C692 1.419 . S
C694 C695 1.363 . S
C694 H697 0.929 . S
C695 C694 1.363 . S
C695 C701 1.428 . S
H696 C692 0.930 . S
H697 C694 0.929 . S
S698 N699 1.613 . S
S698 N700 1.610 . S
N699 S698 1.613 . S
N699 C702 1.350 . S
N700 S698 1.610 . S
N700 C701 1.351 . S
C701 C695 1.428 . S
C701 N700 1.351 . S
C701 C702 1.434 . S
C702 C693 1.429 . S
C702 N699 1.350 . S
C702 C701 1.434 . S
C703 C704 1.369 . S
C703 C705 1.419 . S
C703 H707 0.930 . S
C704 C703 1.369 . S
C704 C713 1.429 . S
C705 C703 1.419 . S
C705 C706 1.363 . S
C705 H708 0.929 . S
C706 C705 1.363 . S
C706 C712 1.428 . S
H707 C703 0.930 . S
H708 C705 0.929 . S
S709 N710 1.613 1_556 S
S709 N711 1.610 . S
N710 S709 1.613 1_554 S
N710 C713 1.350 . S
N711 S709 1.610 . S
N711 C712 1.351 1_556 S
C712 C706 1.428 . S
C712 N711 1.351 1_554 S
C712 C713 1.434 . S
C713 C704 1.429 . S
C713 N710 1.350 . S
C713 C712 1.434 . S
C714 C715 1.369 . S
C714 C716 1.419 . S
C714 H718 0.930 . S
C715 C714 1.369 . S
C715 C724 1.429 . S
C716 C714 1.419 . S
C716 C717 1.363 . S
C716 H719 0.929 . S
C717 C716 1.363 . S
C717 C723 1.428 . S
H718 C714 0.930 . S
H719 C716 0.929 . S
S720 N721 1.613 . S
S720 N722 1.610 . S
N721 S720 1.613 . S
N721 C724 1.350 . S
N722 S720 1.610 . S
N722 C723 1.351 . S
C723 C717 1.428 . S
C723 N722 1.351 . S
C723 C724 1.434 . S
C724 C715 1.429 . S
C724 N721 1.350 . S
C724 C723 1.434 . S
C725 C726 1.369 . S
C725 C727 1.419 . S
C725 H729 0.930 . S
C726 C725 1.369 . S
C726 C735 1.429 . S
C727 C725 1.419 . S
C727 C728 1.363 . S
C727 H730 0.929 . S
C728 C727 1.363 . S
C728 C734 1.428 . S
H729 C725 0.930 . S
H730 C727 0.929 . S
S731 N732 1.613 . S
S731 N733 1.610 . S
N732 S731 1.613 . S
N732 C735 1.350 . S
N733 S731 1.610 . S
N733 C734 1.351 . S
C734 C728 1.428 . S
C734 N733 1.351 . S
C734 C735 1.434 . S
C735 C726 1.429 . S
C735 N732 1.350 . S
C735 C734 1.434 . S
C473 C1 1.069 . S
C475 C316 1.132 . S
C484 C40 1.247 . S
C486 C377 1.311 . S
C497 C415 2.524 . S
C495 C99 2.598 . S
C506 C118 2.406 . S
C508 C455 2.358 . S
C519 C375 1.506 . S
C517 C16 1.393 . S
C530 C343 2.285 . S
C528 C60 2.126 . S
C541 C452 1.812 . S
C539 C79 1.833 . S
C552 C412 1.887 . S
C550 C138 1.902 . S
C561 C21 1.324 . S
C563 C457 1.386 . S
C574 C372 2.411 . S
C572 C94 2.409 . S
C583 C133 2.234 . S
C585 C314 2.186 . S
C594 C55 1.657 . S
C596 C417 1.761 . S
C607 C337 1.130 . S
C605 C157 1.091 . S
C616 C196 1.235 . S
C618 C356 1.315 . S
C627 C255 2.591 . S
C629 C394 2.523 . S
C638 C289 2.403 . S
C640 C434 2.353 . S
C649 C172 1.387 . S
C651 C354 1.502 . S
C662 C332 2.286 . S
C660 C216 2.089 . S
C673 C463 1.816 . S
C671 C235 1.832 . S
C684 C423 1.881 . S
C682 C294 1.906 . S
C693 C177 1.338 . S
C695 C436 1.383 . S
C706 C383 2.412 . S
C704 C250 2.412 . S
C717 C335 2.189 . S
C715 C274 2.234 . S
C726 C211 1.672 . S
C728 C396 1.758 . S
