# Generated by pormake.
# Topology tsx, (6,3)-cn, num edge types: 1
# Building blocks:
#     Node 0, Type 0, BuildingBlock: FUNLAD_clean_sbu_0, # of connection points: 6
#     Node 1, Type 0, BuildingBlock: FUNLAD_clean_sbu_0, # of connection points: 6
#     Node 2, Type 1, BuildingBlock: BELTOD_clean_linker_0, # of connection points: 3
#     Node 3, Type 1, BuildingBlock: BELTOD_clean_linker_0, # of connection points: 3
#     Node 4, Type 1, BuildingBlock: BELTOD_clean_linker_0, # of connection points: 3
#     Node 5, Type 1, BuildingBlock: BELTOD_clean_linker_0, # of connection points: 3
#     Edge 6, Type (0, 1), BuildingBlock: OJICUG_clean_linker_0, # of connection points: 2
#     Edge 7, Type (0, 1), BuildingBlock: OJICUG_clean_linker_0, # of connection points: 2
#     Edge 8, Type (0, 1), BuildingBlock: OJICUG_clean_linker_0, # of connection points: 2
#     Edge 9, Type (0, 1), BuildingBlock: OJICUG_clean_linker_0, # of connection points: 2
#     Edge 10, Type (0, 1), BuildingBlock: OJICUG_clean_linker_0, # of connection points: 2
#     Edge 11, Type (0, 1), BuildingBlock: OJICUG_clean_linker_0, # of connection points: 2
#     Edge 12, Type (0, 1), BuildingBlock: OJICUG_clean_linker_0, # of connection points: 2
#     Edge 13, Type (0, 1), BuildingBlock: OJICUG_clean_linker_0, # of connection points: 2
#     Edge 14, Type (0, 1), BuildingBlock: OJICUG_clean_linker_0, # of connection points: 2
#     Edge 15, Type (0, 1), BuildingBlock: OJICUG_clean_linker_0, # of connection points: 2
#     Edge 16, Type (0, 1), BuildingBlock: OJICUG_clean_linker_0, # of connection points: 2
#     Edge 17, Type (0, 1), BuildingBlock: OJICUG_clean_linker_0, # of connection points: 2
# Relax obj value: 0.151
# Max RMSD: 0.147
# Mean RMSD: 0.068
data_MOF--net-tsx--node1-FUNLAD_clean_sbu_0--node2-BELTOD_clean_linker_0--edge1-OJICUG_clean_linker_0
_symmetry_space_group_name_H-M    P1
_symmetry_Int_Tables_number       1
_symmetry_cell_setting            triclinic
loop_
_symmetry_equiv_pos_as_xyz
'x, y, z'
_cell_length_a     16.409617
_cell_length_b     18.021048
_cell_length_c     37.342693
_cell_angle_alpha  91.796358
_cell_angle_beta   92.062325
_cell_angle_gamma 90.221545
loop_
_atom_site_label
_atom_site_type_symbol
_atom_site_fract_x
_atom_site_fract_y
_atom_site_fract_z
_atom_type_partial_charge
C0 C 0.83814 0.90166 -0.0052 0.0
N1 N 0.95454 0.02069 0.07996 0.0
C2 C 0.8833 0.03104 0.09698 0.0
C3 C 0.88305 0.03606 0.13443 0.0
C4 C 0.95673 0.02955 0.15438 0.0
C5 C 0.02915 0.01899 0.13605 0.0
C6 C 0.02671 0.01498 0.09872 0.0
Zn7 Zn 0.95647 0.01384 0.02533 0.0
C8 C 0.07174 0.89911 -0.0013 0.0
N9 N 0.96314 -0.00041 0.91137 0.0
C10 C 0.89475 0.99177 0.88983 0.0
C11 C 0.03842 0.00311 0.89739 0.0
C12 C 0.04716 -0.00032 0.86046 0.0
C13 C 0.97789 0.99177 0.83754 0.0
C14 C 0.90083 0.98724 0.85254 0.0
Zn15 Zn 0.95738 0.00625 0.96585 0.0
O16 O 0.86167 0.93485 0.02386 0.0
C17 C 0.84421 0.12227 0.99015 0.0
O18 O 0.86763 0.92044 0.96533 0.0
H19 H 0.09213 0.0083 0.91493 0.0
H20 H 0.82662 0.03536 0.0815 0.0
H21 H 0.83554 0.98907 0.90155 0.0
O22 O 0.87158 0.1033 0.02085 0.0
O23 O 0.86748 0.08818 0.96212 0.0
H24 H 0.08277 0.00759 0.08471 0.0
O25 O 0.05074 0.09112 0.96817 0.0
O26 O 0.05022 0.09144 0.02684 0.0
O27 O 0.04566 0.92494 0.96933 0.0
O28 O 0.04487 0.92522 0.02803 0.0
C29 C 0.07901 0.11573 -0.00157 0.0
H30 H 0.8259 0.04397 0.14763 0.0
H31 H 0.08741 0.01498 0.15043 0.0
H32 H 0.10775 0.00199 0.84993 0.0
H33 H 0.84602 0.98119 0.83565 0.0
C34 C 0.37261 0.3932 0.49514 0.0
N35 N 0.48766 0.52595 0.57573 0.0
C36 C 0.41533 0.538 0.59164 0.0
C37 C 0.41328 0.54929 0.62881 0.0
C38 C 0.48626 0.54718 0.64954 0.0
C39 C 0.55988 0.53568 0.63232 0.0
C40 C 0.55923 0.52545 0.59524 0.0
Zn41 Zn 0.49308 0.50671 0.52193 0.0
C42 C 0.60466 0.38188 0.50397 0.0
N43 N 0.51001 0.46565 0.40992 0.0
C44 C 0.44297 0.465 0.3874 0.0
C45 C 0.58602 0.45509 0.39739 0.0
C46 C 0.59711 0.44451 0.36083 0.0
C47 C 0.52938 0.44501 0.33684 0.0
C48 C 0.45131 0.45461 0.35049 0.0
Zn49 Zn 0.5004 0.4849 0.46345 0.0
O50 O 0.39931 0.42775 0.52334 0.0
C51 C 0.38924 0.60932 0.4796 0.0
O52 O 0.40188 0.40782 0.46504 0.0
H53 H 0.63847 0.45552 0.41577 0.0
H54 H 0.35921 0.53815 0.57554 0.0
H55 H 0.38317 0.47356 0.39804 0.0
O56 O 0.40655 0.59213 0.51178 0.0
O57 O 0.42051 0.57282 0.45397 0.0
H58 H 0.6161 0.51662 0.58204 0.0
O59 O 0.60135 0.56079 0.46308 0.0
O60 O 0.5864 0.5857 0.52029 0.0
O61 O 0.57879 0.39801 0.47287 0.0
O62 O 0.58155 0.42 0.53093 0.0
C63 C 0.62299 0.59688 0.49164 0.0
H64 H 0.35533 0.55783 0.64127 0.0
H65 H 0.61751 0.53485 0.64739 0.0
H66 H 0.65819 0.43605 0.35146 0.0
H67 H 0.39759 0.4559 0.33281 0.0
P68 P 0.08643 0.09915 0.42555 0.0
H69 H 0.06909 0.22604 0.47533 0.0
H70 H 0.95181 0.27627 0.50562 0.0
H71 H 0.81129 0.08123 0.47174 0.0
H72 H 0.927 0.0346 0.43894 0.0
H73 H 0.25029 0.04578 0.41439 0.0
H74 H 0.31792 0.92819 0.42655 0.0
H75 H 0.09994 0.84843 0.47433 0.0
H76 H 0.03436 0.96723 0.46417 0.0
H77 H 0.0524 0.20175 0.36827 0.0
H78 H 0.02597 0.96704 0.38441 0.0
O79 O 0.15489 0.16766 0.42478 0.0
H80 H 0.00884 0.18297 0.30533 0.0
H81 H 0.98164 0.94794 0.32166 0.0
C82 C 0.00655 0.12686 0.45466 0.0
C83 C 0.01342 0.19355 0.47485 0.0
C84 C 0.94635 0.22179 0.49268 0.0
C85 C 0.87139 0.18339 0.49074 0.0
C86 C 0.86745 0.11311 0.47316 0.0
C87 C 0.93393 0.08588 0.45466 0.0
C88 C 0.13779 0.01603 0.43892 0.0
C89 C 0.21763 0.0036 0.42822 0.0
C90 C 0.2558 0.93605 0.43472 0.0
C91 C 0.21407 0.87927 0.45151 0.0
C92 C 0.13399 0.89184 0.46211 0.0
C93 C 0.09629 0.95982 0.45607 0.0
C94 C 0.04474 0.08555 0.38066 0.0
C95 C 0.03652 0.14627 0.35833 0.0
C96 C 0.01093 0.13554 0.32245 0.0
C97 C 0.99276 0.0638 0.30844 0.0
C98 C -0.00327 0.00364 0.33153 0.0
C99 C 0.0221 0.01453 0.36742 0.0
P100 P 0.12185 0.90266 0.57177 0.0
H101 H 0.09414 0.74654 0.55154 0.0
H102 H 0.97715 0.68071 0.5231 0.0
H103 H 0.85602 0.88975 0.50668 0.0
H104 H 0.9736 0.95557 0.53452 0.0
H105 H 0.26155 0.94126 0.52957 0.0
H106 H 0.3088 0.05837 0.50668 0.0
H107 H 0.09387 0.16729 0.54619 0.0
H108 H 0.04876 0.05024 0.57013 0.0
H109 H 0.96147 0.89793 0.60574 0.0
H110 H 0.21078 0.95452 0.63599 0.0
O111 O 0.20272 0.84726 0.57572 0.0
H112 H 0.92103 0.92565 0.66687 0.0
H113 H 0.17131 0.98012 0.69749 0.0
C114 C 0.04271 0.85596 0.54511 0.0
C115 C 0.04345 0.77841 0.54097 0.0
C116 C 0.97682 0.74084 0.52454 0.0
C117 C 0.90783 0.78031 0.51274 0.0
C118 C 0.90865 0.8582 0.51555 0.0
C119 C 0.97583 0.89577 0.53148 0.0
C120 C 0.15213 0.98734 0.55181 0.0
C121 C 0.22442 0.99028 0.53312 0.0
C122 C 0.25095 0.05733 0.51971 0.0
C123 C 0.20525 0.12258 0.52461 0.0
C124 C 0.13111 0.11846 0.54227 0.0
C125 C 0.10493 0.05144 0.5558 0.0
C126 C 0.08945 0.9237 0.61639 0.0
C127 C 0.00768 0.9162 0.62546 0.0
C128 C 0.98457 0.93171 0.66056 0.0
C129 C 0.04287 0.95505 0.68712 0.0
C130 C 0.12454 0.96336 0.67764 0.0
C131 C 0.14742 0.94812 0.64257 0.0
P132 P 0.57753 0.62154 0.92346 0.0
H133 H 0.55048 0.74836 0.97245 0.0
H134 H 0.42739 0.79975 -0.00197 0.0
H135 H 0.28795 0.61367 0.9524 0.0
H136 H 0.41046 0.56468 0.92544 0.0
H137 H 0.7444 0.56763 0.92815 0.0
H138 H 0.80429 0.44999 0.94619 0.0
H139 H 0.56404 0.36613 0.96603 0.0
H140 H 0.50554 0.48536 0.95123 0.0
H141 H 0.56528 0.72437 0.86483 0.0
H142 H 0.52115 0.49138 0.87983 0.0
O143 O 0.64889 0.68784 0.92688 0.0
H144 H 0.53274 0.70664 0.80059 0.0
H145 H 0.48829 0.47356 0.81605 0.0
C146 C 0.48982 0.65237 0.94722 0.0
C147 C 0.49368 0.71799 0.9684 0.0
C148 C 0.42329 0.74695 0.9834 0.0
C149 C 0.34767 0.71092 0.97721 0.0
C150 C 0.34507 0.64313 0.95744 0.0
C151 C 0.41533 0.6146 0.94227 0.0
C152 C 0.62083 0.53663 0.93961 0.0
C153 C 0.70495 0.52491 0.93773 0.0
C154 C 0.73902 0.45736 0.9477 0.0
C155 C 0.68896 0.39919 0.95834 0.0
C156 C 0.60437 0.41027 0.95889 0.0
C157 C 0.57077 0.47876 0.95029 0.0
C158 C 0.54823 0.60882 0.87688 0.0
C159 C 0.54841 0.66952 0.85434 0.0
C160 C 0.52906 0.65948 0.81776 0.0
C161 C 0.50894 0.58852 0.80332 0.0
C162 C 0.50508 0.52858 0.82637 0.0
C163 C 0.52411 0.53875 0.86288 0.0
P164 P 0.61505 0.3918 0.06319 0.0
H165 H 0.57306 0.26342 0.01587 0.0
H166 H 0.44246 0.20902 -0.00485 0.0
H167 H 0.31636 0.38821 0.04885 0.0
H168 H 0.4468 0.44056 0.07054 0.0
H169 H 0.77406 0.45267 0.04787 0.0
H170 H 0.81852 0.5728 0.02695 0.0
H171 H 0.56887 0.64727 0.02386 0.0
H172 H 0.52428 0.52575 0.04205 0.0
H173 H 0.57827 0.28472 0.11659 0.0
H174 H 0.62384 0.52054 0.11409 0.0
O175 O 0.68752 0.3288 0.05637 0.0
H176 H 0.55734 0.29605 0.18109 0.0
H177 H 0.60152 0.53235 0.17805 0.0
C178 C 0.51975 0.35703 0.04405 0.0
C179 C 0.51737 0.2917 0.02265 0.0
C180 C 0.44264 0.26094 0.01057 0.0
C181 C 0.36907 0.29452 0.02023 0.0
C182 C 0.37197 0.361 0.04099 0.0
C183 C 0.44661 0.39153 0.05304 0.0
C184 C 0.64558 0.47872 0.04506 0.0
C185 C 0.72855 0.49376 0.04126 0.0
C186 C 0.75395 0.56273 0.02962 0.0
C187 C 0.69687 0.61901 0.02294 0.0
C188 C 0.61398 0.60459 0.02794 0.0
C189 C 0.58844 0.53478 0.03844 0.0
C190 C 0.60305 0.40153 0.11063 0.0
C191 C 0.58388 0.33883 0.12995 0.0
C192 C 0.57129 0.34547 0.16667 0.0
C193 C 0.57778 0.41511 0.18458 0.0
C194 C 0.59714 0.47783 0.16505 0.0
C195 C 0.60961 0.47111 0.12835 0.0
C196 C 0.20169 0.17691 0.97352 0.0
C197 C 0.14766 0.16893 0.0015 0.0
H198 H 0.31487 0.22344 0.95744 0.0
C199 C 0.16364 0.20753 0.03428 0.0
H200 H 0.19089 0.1476 0.94801 0.0
C201 C 0.23385 0.25058 0.03962 0.0
C202 C 0.29013 0.25597 0.01237 0.0
H203 H 0.12298 0.20273 0.05633 0.0
H204 H 0.2458 0.27686 0.06578 0.0
C205 C 0.27276 0.21978 0.979 0.0
C206 C 0.1389 0.79552 0.96648 0.0
C207 C 0.13492 0.8413 -0.00253 0.0
H208 H 0.20872 0.719 0.93588 0.0
C209 C 0.19686 0.83709 0.02424 0.0
H210 H 0.09167 0.79735 0.94547 0.0
C211 C 0.26479 0.79163 0.01872 0.0
C212 C 0.27093 0.74921 0.98659 0.0
H213 H 0.19518 0.87205 0.04833 0.0
H214 H 0.3137 0.79163 0.03898 0.0
C215 C 0.20587 0.75 0.96112 0.0
C216 C 0.72986 0.82716 0.02242 0.0
C217 C 0.78991 0.83303 -0.0032 0.0
H218 H 0.65192 0.75461 0.05026 0.0
C219 C 0.81433 0.76904 0.97778 0.0
H220 H 0.71103 0.87573 0.03778 0.0
C221 C 0.78312 0.69962 0.9859 0.0
C222 C 0.72457 0.69321 0.0122 0.0
H223 H 0.86181 0.77193 0.95843 0.0
H224 H 0.80623 0.65077 0.97217 0.0
C225 C 0.69644 0.75793 0.02964 0.0
C226 C 0.83019 0.25782 0.00041 0.0
C227 C 0.79736 0.19089 0.98612 0.0
H228 H 0.82382 0.3763 0.00141 0.0
C229 C 0.72737 0.19217 0.96346 0.0
H230 H 0.88547 0.25808 0.0172 0.0
C231 C 0.69051 0.25974 0.95527 0.0
C232 C 0.72497 0.32715 0.96855 0.0
H233 H 0.7022 0.14106 0.95159 0.0
H234 H 0.63691 0.25941 0.93746 0.0
C235 C 0.79532 0.3254 -0.00889 0.0
C236 C 0.69204 0.71074 0.51675 0.0
C237 C 0.69181 0.64958 0.49254 0.0
H238 H 0.76049 0.80101 0.54137 0.0
C239 C 0.76059 0.63593 0.47205 0.0
H240 H 0.63959 0.72249 0.53278 0.0
C241 C 0.83054 0.68024 0.47745 0.0
C242 C 0.83154 0.73983 0.50267 0.0
H243 H 0.76184 0.58878 0.45335 0.0
H244 H 0.8845 0.66684 0.46271 0.0
C245 C 0.76093 0.7559 0.52149 0.0
C246 C 0.66125 0.26413 0.48066 0.0
C247 C 0.66357 0.32097 0.50719 0.0
H248 H 0.7245 0.17661 0.45466 0.0
C249 C 0.7286 0.32406 0.53265 0.0
H250 H 0.61124 0.26009 0.46091 0.0
C251 C 0.79433 0.27511 0.52929 0.0
C252 C 0.79533 0.22245 0.50057 0.0
H253 H 0.73147 0.36743 0.55342 0.0
H254 H 0.84612 0.28111 0.54797 0.0
C255 C 0.72619 0.21553 0.47735 0.0
C256 C 0.32151 0.26764 0.47495 0.0
C257 C 0.31737 0.32936 0.49868 0.0
H258 H 0.2906 0.15334 0.46481 0.0
C259 C 0.26968 0.32485 0.529 0.0
H260 H 0.3586 0.26931 0.45156 0.0
C261 C 0.23003 0.25874 0.53642 0.0
C262 C 0.2381 0.19532 0.51392 0.0
H263 H 0.26584 0.37156 0.54784 0.0
H264 H 0.19699 0.25634 0.56094 0.0
C265 C 0.28316 0.20098 0.48276 0.0
C266 C 0.34115 0.70671 0.43794 0.0
C267 C 0.33875 0.6748 0.47178 0.0
H268 H 0.30374 0.79649 0.40507 0.0
C269 C 0.29154 0.70849 0.4983 0.0
H270 H 0.37695 0.68203 0.4169 0.0
C271 C 0.249 0.77374 0.49126 0.0
C272 C 0.25424 0.80729 0.45798 0.0
H273 H 0.28819 0.68496 0.52455 0.0
H274 H 0.21378 0.79915 0.51213 0.0
C275 C 0.29979 0.77256 0.43121 0.0
C276 C 0.91769 0.09136 0.21242 0.0
C277 C 0.95916 0.03456 0.19409 0.0
H278 H 0.89536 0.14504 0.26317 0.0
C279 C 0.00682 0.98461 0.21386 0.0
H280 H 0.88082 0.13083 0.19782 0.0
C281 C 0.01518 0.99271 0.25108 0.0
C282 C 0.97633 0.05117 0.26939 0.0
H283 H 0.03875 0.93981 0.20046 0.0
H284 H 0.05463 0.95476 0.26538 0.0
C285 C 0.92653 0.09982 0.24974 0.0
C286 C 0.03984 0.03615 0.78189 0.0
C287 C 0.98734 0.98686 0.79828 0.0
H288 H 0.09675 0.06605 0.7338 0.0
C289 C 0.94838 0.93022 0.77733 0.0
H290 H 0.06963 0.08105 0.79734 0.0
C291 C 0.9646 0.92103 0.74096 0.0
C292 C 0.01964 0.96866 0.72484 0.0
H293 H 0.90812 0.89113 0.7894 0.0
H294 H 0.93649 0.87483 0.72586 0.0
C295 C 0.05557 0.02735 0.74556 0.0
C296 C 0.53173 0.50602 0.71008 0.0
C297 C 0.48659 0.55553 0.68903 0.0
H298 H 0.57409 0.4779 0.76265 0.0
C299 C 0.44516 0.61428 0.70587 0.0
H300 H 0.56362 0.45989 0.69774 0.0
C301 C 0.45118 0.62469 0.74315 0.0
C302 C 0.49776 0.57587 0.76411 0.0
H303 H 0.41023 0.65332 0.69014 0.0
H304 H 0.41988 0.67106 0.75557 0.0
C305 C 0.53709 0.51596 0.74722 0.0
C306 C 0.60526 0.47497 0.28223 0.0
C307 C 0.54091 0.43735 0.29777 0.0
H308 H 0.66788 0.49662 0.23444 0.0
C309 C 0.48842 0.39239 0.27581 0.0
H310 H 0.64614 0.51074 0.2984 0.0
C311 C 0.50045 0.38488 0.23903 0.0
C312 C 0.56495 0.42247 0.22356 0.0
H313 H 0.43869 0.36232 0.28711 0.0
H314 H 0.45876 0.35029 0.22266 0.0
C315 C 0.61718 0.46756 0.24554 0.0
loop_
_geom_bond_atom_site_label_1
_geom_bond_atom_site_label_2
_geom_bond_distance
_geom_bond_site_symmetry_2
_ccdc_geom_bond_type
C0 O16 1.251 . S
C0 O18 1.254 1_554 S
N1 C2 1.333 1_445 S
N1 C6 1.307 . S
N1 Zn7 2.020 . S
C2 N1 1.333 1_665 S
C2 C3 1.379 . S
C2 H20 0.952 . S
C3 C2 1.379 . S
C3 C4 1.390 1_665 S
C3 H30 0.949 . S
C4 C3 1.390 1_445 S
C4 C5 1.357 . S
C5 C4 1.357 . S
C5 C6 1.370 . S
C5 H31 0.950 . S
C6 N1 1.307 . S
C6 C5 1.370 . S
C6 H24 0.948 . S
Zn7 N1 2.020 . S
Zn7 O16 2.039 1_445 S
Zn7 O22 2.034 1_455 S
Zn7 O26 2.025 . S
Zn7 O28 2.024 1_545 S
C8 O27 1.246 1_554 S
C8 O28 1.249 . S
N9 C10 1.306 1_445 S
N9 C11 1.334 . S
N9 Zn15 2.020 . S
C10 N9 1.306 1_665 S
C10 C14 1.370 . S
C10 H21 0.948 . S
C11 N9 1.334 . S
C11 C12 1.379 . S
C11 H19 0.952 . S
C12 C11 1.379 . S
C12 C13 1.390 . S
C12 H32 0.949 . S
C13 C12 1.390 . S
C13 C14 1.357 1_445 S
C14 C10 1.370 . S
C14 C13 1.357 1_665 S
C14 H33 0.950 . S
Zn15 N9 2.020 . S
Zn15 O18 2.025 1_445 S
Zn15 O23 2.024 1_455 S
Zn15 O25 2.039 . S
Zn15 O27 2.034 1_545 S
O16 C0 1.251 . S
O16 Zn7 2.039 1_665 S
C17 O22 1.246 . S
C17 O23 1.249 1_554 S
O18 C0 1.254 1_556 S
O18 Zn15 2.025 1_665 S
H19 C11 0.952 . S
H20 C2 0.952 . S
H21 C10 0.948 . S
O22 Zn7 2.034 1_655 S
O22 C17 1.246 . S
O23 Zn15 2.024 1_655 S
O23 C17 1.249 1_556 S
H24 C6 0.948 . S
O25 Zn15 2.039 . S
O25 C29 1.251 1_556 S
O26 Zn7 2.025 . S
O26 C29 1.254 . S
O27 C8 1.246 1_556 S
O27 Zn15 2.034 1_565 S
O28 Zn7 2.024 1_565 S
O28 C8 1.249 . S
C29 O25 1.251 1_554 S
C29 O26 1.254 . S
H30 C3 0.949 . S
H31 C5 0.950 . S
H32 C12 0.949 . S
H33 C14 0.950 . S
C34 O50 1.251 . S
C34 O52 1.254 . S
N35 C36 1.333 . S
N35 C40 1.307 . S
N35 Zn41 2.020 . S
C36 N35 1.333 . S
C36 C37 1.379 . S
C36 H54 0.952 . S
C37 C36 1.379 . S
C37 C38 1.390 . S
C37 H64 0.949 . S
C38 C37 1.390 . S
C38 C39 1.357 . S
C39 C38 1.357 . S
C39 C40 1.370 . S
C39 H65 0.950 . S
C40 N35 1.307 . S
C40 C39 1.370 . S
C40 H58 0.948 . S
Zn41 N35 2.020 . S
Zn41 O50 2.039 . S
Zn41 O56 2.034 . S
Zn41 O60 2.025 . S
Zn41 O62 2.024 . S
C42 O61 1.246 . S
C42 O62 1.249 . S
N43 C44 1.307 . S
N43 C45 1.333 . S
N43 Zn49 2.020 . S
C44 N43 1.307 . S
C44 C48 1.370 . S
C44 H55 0.948 . S
C45 N43 1.333 . S
C45 C46 1.379 . S
C45 H53 0.952 . S
C46 C45 1.379 . S
C46 C47 1.390 . S
C46 H66 0.949 . S
C47 C46 1.390 . S
C47 C48 1.357 . S
C48 C44 1.370 . S
C48 C47 1.357 . S
C48 H67 0.950 . S
Zn49 N43 2.020 . S
Zn49 O52 2.025 . S
Zn49 O57 2.024 . S
Zn49 O59 2.039 . S
Zn49 O61 2.034 . S
O50 C34 1.251 . S
O50 Zn41 2.039 . S
C51 O56 1.246 . S
C51 O57 1.249 . S
O52 C34 1.254 . S
O52 Zn49 2.025 . S
H53 C45 0.952 . S
H54 C36 0.952 . S
H55 C44 0.948 . S
O56 Zn41 2.034 . S
O56 C51 1.246 . S
O57 Zn49 2.024 . S
O57 C51 1.249 . S
H58 C40 0.948 . S
O59 Zn49 2.039 . S
O59 C63 1.251 . S
O60 Zn41 2.025 . S
O60 C63 1.254 . S
O61 C42 1.246 . S
O61 Zn49 2.034 . S
O62 Zn41 2.024 . S
O62 C42 1.249 . S
C63 O59 1.251 . S
C63 O60 1.254 . S
H64 C37 0.949 . S
H65 C39 0.950 . S
H66 C46 0.949 . S
H67 C48 0.950 . S
P68 O79 1.490 . S
P68 C82 1.812 1_455 S
P68 C88 1.803 1_545 S
P68 C94 1.819 . S
H69 C83 0.941 . S
H70 C84 0.939 . S
H71 C86 0.940 . S
H72 C87 0.940 . S
H73 C89 0.939 . S
H74 C90 0.942 . S
H75 C92 0.940 . S
H76 C93 0.939 . S
H77 C95 0.941 . S
H78 C99 0.939 . S
O79 P68 1.490 . S
H80 C96 0.939 . S
H81 C98 0.940 . S
C82 P68 1.812 1_655 S
C82 C83 1.389 1_655 S
C82 C87 1.391 . S
C83 H69 0.941 . S
C83 C82 1.389 1_455 S
C83 C84 1.397 1_455 S
C84 H70 0.939 . S
C84 C83 1.397 1_655 S
C84 C85 1.378 . S
C85 C84 1.378 . S
C85 C86 1.378 . S
C86 H71 0.940 . S
C86 C85 1.378 . S
C86 C87 1.396 . S
C87 H72 0.940 . S
C87 C82 1.391 . S
C87 C86 1.396 . S
C88 P68 1.803 1_565 S
C88 C89 1.378 . S
C88 C93 1.400 . S
C89 H73 0.939 . S
C89 C88 1.378 . S
C89 C90 1.361 . S
C90 H74 0.942 . S
C90 C89 1.361 . S
C90 C91 1.369 . S
C91 C90 1.369 . S
C91 C92 1.404 . S
C92 H75 0.940 . S
C92 C91 1.404 . S
C92 C93 1.389 . S
C93 H76 0.939 . S
C93 C88 1.400 . S
C93 C92 1.389 . S
C94 P68 1.819 . S
C94 C95 1.391 . S
C94 C99 1.391 1_545 S
C95 H77 0.941 . S
C95 C94 1.391 . S
C95 C96 1.396 . S
C96 H80 0.939 . S
C96 C95 1.396 . S
C96 C97 1.397 . S
C97 C96 1.397 . S
C97 C98 1.385 1_545 S
C98 H81 0.940 . S
C98 C97 1.385 1_565 S
C98 C99 1.388 . S
C99 H78 0.939 . S
C99 C94 1.391 1_565 S
C99 C98 1.388 . S
P100 O111 1.490 . S
P100 C114 1.812 . S
P100 C120 1.803 1_565 S
P100 C126 1.819 . S
H101 C115 0.941 . S
H102 C116 0.939 . S
H103 C118 0.940 . S
H104 C119 0.940 . S
H105 C121 0.939 . S
H106 C122 0.942 . S
H107 C124 0.940 . S
H108 C125 0.939 . S
H109 C127 0.941 . S
H110 C131 0.939 . S
O111 P100 1.490 . S
H112 C128 0.939 . S
H113 C130 0.940 . S
C114 P100 1.812 . S
C114 C115 1.389 . S
C114 C119 1.391 1_455 S
C115 H101 0.941 . S
C115 C114 1.389 . S
C115 C116 1.397 1_455 S
C116 H102 0.939 . S
C116 C115 1.397 1_655 S
C116 C117 1.378 . S
C117 C116 1.378 . S
C117 C118 1.378 . S
C118 H103 0.940 . S
C118 C117 1.378 . S
C118 C119 1.396 . S
C119 H104 0.940 . S
C119 C114 1.391 1_655 S
C119 C118 1.396 . S
C120 P100 1.803 1_545 S
C120 C121 1.378 . S
C120 C125 1.400 . S
C121 H105 0.939 . S
C121 C120 1.378 . S
C121 C122 1.361 . S
C122 H106 0.942 . S
C122 C121 1.361 . S
C122 C123 1.369 . S
C123 C122 1.369 . S
C123 C124 1.404 . S
C124 H107 0.940 . S
C124 C123 1.404 . S
C124 C125 1.389 . S
C125 H108 0.939 . S
C125 C120 1.400 . S
C125 C124 1.389 . S
C126 P100 1.819 . S
C126 C127 1.391 . S
C126 C131 1.391 1_565 S
C127 H109 0.941 . S
C127 C126 1.391 . S
C127 C128 1.396 . S
C128 H112 0.939 . S
C128 C127 1.396 . S
C128 C129 1.397 . S
C129 C128 1.397 . S
C129 C130 1.385 1_565 S
C130 H113 0.940 . S
C130 C129 1.385 1_545 S
C130 C131 1.388 . S
C131 H110 0.939 . S
C131 C126 1.391 1_545 S
C131 C130 1.388 . S
P132 O143 1.490 . S
P132 C146 1.812 . S
P132 C152 1.803 . S
P132 C158 1.819 . S
H133 C147 0.941 1_554 S
H134 C148 0.939 . S
H135 C150 0.940 . S
H136 C151 0.940 . S
H137 C153 0.939 . S
H138 C154 0.942 . S
H139 C156 0.940 . S
H140 C157 0.939 . S
H141 C159 0.941 . S
H142 C163 0.939 . S
O143 P132 1.490 . S
H144 C160 0.939 . S
H145 C162 0.940 . S
C146 P132 1.812 . S
C146 C147 1.389 . S
C146 C151 1.391 . S
C147 H133 0.941 1_556 S
C147 C146 1.389 . S
C147 C148 1.397 1_556 S
C148 H134 0.939 . S
C148 C147 1.397 1_554 S
C148 C149 1.378 . S
C149 C148 1.378 . S
C149 C150 1.378 1_554 S
C150 H135 0.940 . S
C150 C149 1.378 1_556 S
C150 C151 1.396 . S
C151 H136 0.940 . S
C151 C146 1.391 . S
C151 C150 1.396 . S
C152 P132 1.803 . S
C152 C153 1.378 . S
C152 C157 1.400 . S
C153 H137 0.939 . S
C153 C152 1.378 . S
C153 C154 1.361 . S
C154 H138 0.942 . S
C154 C153 1.361 . S
C154 C155 1.369 1_556 S
C155 C154 1.369 1_554 S
C155 C156 1.404 . S
C156 H139 0.940 . S
C156 C155 1.404 . S
C156 C157 1.389 1_554 S
C157 H140 0.939 . S
C157 C152 1.400 . S
C157 C156 1.389 1_556 S
C158 P132 1.819 . S
C158 C159 1.391 . S
C158 C163 1.391 . S
C159 H141 0.941 . S
C159 C158 1.391 . S
C159 C160 1.396 . S
C160 H144 0.939 . S
C160 C159 1.396 . S
C160 C161 1.397 . S
C161 C160 1.397 . S
C161 C162 1.385 . S
C162 H145 0.940 . S
C162 C161 1.385 . S
C162 C163 1.388 . S
C163 H142 0.939 . S
C163 C158 1.391 . S
C163 C162 1.388 . S
P164 O175 1.490 . S
P164 C178 1.812 . S
P164 C184 1.803 . S
P164 C190 1.819 . S
H165 C179 0.941 . S
H166 C180 0.939 . S
H167 C182 0.940 . S
H168 C183 0.940 . S
H169 C185 0.939 . S
H170 C186 0.942 . S
H171 C188 0.940 1_556 S
H172 C189 0.939 . S
H173 C191 0.941 . S
H174 C195 0.939 . S
O175 P164 1.490 . S
H176 C192 0.939 . S
H177 C194 0.940 . S
C178 P164 1.812 . S
C178 C179 1.389 . S
C178 C183 1.391 . S
C179 H165 0.941 . S
C179 C178 1.389 . S
C179 C180 1.397 1_554 S
C180 H166 0.939 . S
C180 C179 1.397 1_556 S
C180 C181 1.378 1_556 S
C181 C180 1.378 1_554 S
C181 C182 1.378 . S
C182 H167 0.940 . S
C182 C181 1.378 . S
C182 C183 1.396 . S
C183 H168 0.940 . S
C183 C178 1.391 . S
C183 C182 1.396 . S
C184 P164 1.803 . S
C184 C185 1.378 . S
C184 C189 1.400 . S
C185 H169 0.939 . S
C185 C184 1.378 . S
C185 C186 1.361 . S
C186 H170 0.942 . S
C186 C185 1.361 . S
C186 C187 1.369 . S
C187 C186 1.369 . S
C187 C188 1.404 . S
C188 H171 0.940 1_554 S
C188 C187 1.404 . S
C188 C189 1.389 . S
C189 H172 0.939 . S
C189 C184 1.400 . S
C189 C188 1.389 . S
C190 P164 1.819 . S
C190 C191 1.391 . S
C190 C195 1.391 . S
C191 H173 0.941 . S
C191 C190 1.391 . S
C191 C192 1.396 . S
C192 H176 0.939 . S
C192 C191 1.396 . S
C192 C193 1.397 . S
C193 C192 1.397 . S
C193 C194 1.385 . S
C194 H177 0.940 . S
C194 C193 1.385 . S
C194 C195 1.388 . S
C195 H174 0.939 . S
C195 C190 1.391 . S
C195 C194 1.388 . S
C196 C197 1.387 1_556 S
C196 H200 0.950 . S
C196 C205 1.390 . S
C197 C196 1.387 1_554 S
C197 C199 1.387 . S
H198 C205 0.950 . S
C199 C197 1.387 . S
C199 C201 1.390 . S
C199 H203 0.950 . S
H200 C196 0.950 . S
C201 C199 1.390 . S
C201 C202 1.387 1_554 S
C201 H204 0.950 . S
C202 C201 1.387 1_556 S
C202 C205 1.387 . S
H203 C199 0.950 . S
H204 C201 0.950 . S
C205 C196 1.390 . S
C205 H198 0.950 . S
C205 C202 1.387 . S
C206 C207 1.387 1_556 S
C206 H210 0.950 . S
C206 C215 1.390 . S
C207 C206 1.387 1_554 S
C207 C209 1.387 . S
H208 C215 0.950 . S
C209 C207 1.387 . S
C209 C211 1.390 . S
C209 H213 0.950 . S
H210 C206 0.950 . S
C211 C209 1.390 . S
C211 C212 1.387 . S
C211 H214 0.950 . S
C212 C211 1.387 . S
C212 C215 1.387 1_554 S
H213 C209 0.950 . S
H214 C211 0.950 . S
C215 C206 1.390 . S
C215 H208 0.950 . S
C215 C212 1.387 1_556 S
C216 C217 1.387 . S
C216 H220 0.950 . S
C216 C225 1.390 . S
C217 C216 1.387 . S
C217 C219 1.387 1_554 S
H218 C225 0.950 . S
C219 C217 1.387 1_556 S
C219 C221 1.390 . S
C219 H223 0.950 . S
H220 C216 0.950 . S
C221 C219 1.390 . S
C221 C222 1.385 1_556 S
C221 H224 0.950 . S
C222 C221 1.385 1_554 S
C222 C225 1.390 . S
H223 C219 0.950 . S
H224 C221 0.950 . S
C225 C216 1.390 . S
C225 H218 0.950 . S
C225 C222 1.390 . S
C226 C227 1.387 . S
C226 H230 0.950 . S
C226 C235 1.390 . S
C227 C226 1.387 . S
C227 C229 1.387 1_554 S
H228 C235 0.950 . S
C229 C227 1.387 1_556 S
C229 C231 1.390 . S
C229 H233 0.950 . S
H230 C226 0.950 . S
C231 C229 1.390 . S
C231 C232 1.387 1_556 S
C231 H234 0.950 . S
C232 C231 1.387 1_554 S
C232 C235 1.387 . S
H233 C229 0.950 . S
H234 C231 0.950 . S
C235 C226 1.390 . S
C235 H228 0.950 . S
C235 C232 1.387 . S
C236 C237 1.387 . S
C236 H240 0.950 . S
C236 C245 1.390 . S
C237 C236 1.387 . S
C237 C239 1.387 . S
H238 C245 0.950 . S
C239 C237 1.387 . S
C239 C241 1.390 . S
C239 H243 0.950 . S
H240 C236 0.950 . S
C241 C239 1.390 . S
C241 C242 1.387 . S
C241 H244 0.950 . S
C242 C241 1.387 . S
C242 C245 1.387 . S
H243 C239 0.950 . S
H244 C241 0.950 . S
C245 C236 1.390 . S
C245 H238 0.950 . S
C245 C242 1.387 . S
C246 C247 1.387 . S
C246 H250 0.950 . S
C246 C255 1.390 . S
C247 C246 1.387 . S
C247 C249 1.387 . S
H248 C255 0.950 . S
C249 C247 1.387 . S
C249 C251 1.390 . S
C249 H253 0.950 . S
H250 C246 0.950 . S
C251 C249 1.390 . S
C251 C252 1.387 . S
C251 H254 0.950 . S
C252 C251 1.387 . S
C252 C255 1.387 . S
H253 C249 0.950 . S
H254 C251 0.950 . S
C255 C246 1.390 . S
C255 H248 0.950 . S
C255 C252 1.387 . S
C256 C257 1.387 . S
C256 H260 0.950 . S
C256 C265 1.390 . S
C257 C256 1.387 . S
C257 C259 1.387 . S
H258 C265 0.950 . S
C259 C257 1.387 . S
C259 C261 1.390 . S
C259 H263 0.950 . S
H260 C256 0.950 . S
C261 C259 1.390 . S
C261 C262 1.387 . S
C261 H264 0.950 . S
C262 C261 1.387 . S
C262 C265 1.387 . S
H263 C259 0.950 . S
H264 C261 0.950 . S
C265 C256 1.390 . S
C265 H258 0.950 . S
C265 C262 1.387 . S
C266 C267 1.387 . S
C266 H270 0.950 . S
C266 C275 1.390 . S
C267 C266 1.387 . S
C267 C269 1.387 . S
H268 C275 0.950 . S
C269 C267 1.387 . S
C269 C271 1.390 . S
C269 H273 0.950 . S
H270 C266 0.950 . S
C271 C269 1.390 . S
C271 C272 1.387 . S
C271 H274 0.950 . S
C272 C271 1.387 . S
C272 C275 1.387 . S
H273 C269 0.950 . S
H274 C271 0.950 . S
C275 C266 1.390 . S
C275 H268 0.950 . S
C275 C272 1.387 . S
C276 C277 1.387 1_655 S
C276 H280 0.950 . S
C276 C285 1.390 . S
C277 C276 1.387 1_455 S
C277 C279 1.387 1_545 S
H278 C285 0.950 . S
C279 C277 1.387 1_565 S
C279 C281 1.390 . S
C279 H283 0.950 . S
H280 C276 0.950 . S
C281 C279 1.390 . S
C281 C282 1.387 1_465 S
C281 H284 0.950 . S
C282 C281 1.387 1_645 S
C282 C285 1.387 . S
H283 C279 0.950 . S
H284 C281 0.950 . S
C285 C276 1.390 . S
C285 H278 0.950 . S
C285 C282 1.387 . S
C286 C287 1.387 . S
C286 H290 0.950 . S
C286 C295 1.390 . S
C287 C286 1.387 . S
C287 C289 1.387 1_545 S
H288 C295 0.950 . S
C289 C287 1.387 1_565 S
C289 C291 1.390 . S
C289 H293 0.950 . S
H290 C286 0.950 . S
C291 C289 1.390 . S
C291 C292 1.387 1_565 S
C291 H294 0.950 . S
C292 C291 1.387 1_545 S
C292 C295 1.387 . S
H293 C289 0.950 . S
H294 C291 0.950 . S
C295 C286 1.390 . S
C295 H288 0.950 . S
C295 C292 1.387 . S
C296 C297 1.387 . S
C296 H300 0.950 . S
C296 C305 1.390 . S
C297 C296 1.387 . S
C297 C299 1.387 . S
H298 C305 0.950 . S
C299 C297 1.387 . S
C299 C301 1.390 . S
C299 H303 0.950 . S
H300 C296 0.950 . S
C301 C299 1.390 . S
C301 C302 1.387 . S
C301 H304 0.950 . S
C302 C301 1.387 . S
C302 C305 1.387 . S
H303 C299 0.950 . S
H304 C301 0.950 . S
C305 C296 1.390 . S
C305 H298 0.950 . S
C305 C302 1.387 . S
C306 C307 1.387 . S
C306 H310 0.950 . S
C306 C315 1.390 . S
C307 C306 1.387 . S
C307 C309 1.387 . S
H308 C315 0.950 . S
C309 C307 1.387 . S
C309 C311 1.390 . S
C309 H313 0.950 . S
H310 C306 0.950 . S
C311 C309 1.390 . S
C311 C312 1.387 . S
C311 H314 0.950 . S
C312 C311 1.387 . S
C312 C315 1.387 . S
H313 C309 0.950 . S
H314 C311 0.950 . S
C315 C306 1.390 . S
C315 H308 0.950 . S
C315 C312 1.387 . S
C202 C181 1.482 1_556 S
C197 C29 1.541 . S
C207 C8 1.524 . S
C212 C149 1.460 . S
C217 C0 1.523 . S
C222 C187 1.464 . S
C227 C17 1.538 . S
C232 C155 1.462 . S
C237 C63 1.542 . S
C242 C117 1.480 . S
C247 C42 1.524 . S
C252 C85 1.461 . S
C262 C123 1.462 . S
C257 C34 1.523 . S
C272 C91 1.464 . S
C267 C51 1.538 . S
C277 C4 1.493 . S
C282 C97 1.459 1_655 S
C287 C13 1.490 . S
C292 C129 1.461 1_545 S
C302 C161 1.456 . S
C297 C38 1.493 . S
C307 C47 1.490 . S
C312 C193 1.461 . S
