# Generated by pormake.
# Topology ssb, (4,4)-cn, num edge types: 1
# Building blocks:
#     Node 0, Type 0, BuildingBlock: MUDLON_clean_linker_0, # of connection points: 4
#     Node 1, Type 0, BuildingBlock: MUDLON_clean_linker_0, # of connection points: 4
#     Node 2, Type 0, BuildingBlock: MUDLON_clean_linker_0, # of connection points: 4
#     Node 3, Type 0, BuildingBlock: MUDLON_clean_linker_0, # of connection points: 4
#     Node 4, Type 0, BuildingBlock: MUDLON_clean_linker_0, # of connection points: 4
#     Node 5, Type 0, BuildingBlock: MUDLON_clean_linker_0, # of connection points: 4
#     Node 6, Type 0, BuildingBlock: MUDLON_clean_linker_0, # of connection points: 4
#     Node 7, Type 0, BuildingBlock: MUDLON_clean_linker_0, # of connection points: 4
#     Node 8, Type 1, BuildingBlock: KOZSID_clean_sbu_0, # of connection points: 4
#     Node 9, Type 1, BuildingBlock: KOZSID_clean_sbu_0, # of connection points: 4
#     Node 10, Type 1, BuildingBlock: KOZSID_clean_sbu_0, # of connection points: 4
#     Node 11, Type 1, BuildingBlock: KOZSID_clean_sbu_0, # of connection points: 4
#     Node 12, Type 1, BuildingBlock: KOZSID_clean_sbu_0, # of connection points: 4
#     Node 13, Type 1, BuildingBlock: KOZSID_clean_sbu_0, # of connection points: 4
#     Node 14, Type 1, BuildingBlock: KOZSID_clean_sbu_0, # of connection points: 4
#     Node 15, Type 1, BuildingBlock: KOZSID_clean_sbu_0, # of connection points: 4
#     Edge 16, Type (0, 1), BuildingBlock: EZIPEK_clean_linker_0, # of connection points: 2
#     Edge 17, Type (0, 1), BuildingBlock: EZIPEK_clean_linker_0, # of connection points: 2
#     Edge 18, Type (0, 1), BuildingBlock: EZIPEK_clean_linker_0, # of connection points: 2
#     Edge 19, Type (0, 1), BuildingBlock: EZIPEK_clean_linker_0, # of connection points: 2
#     Edge 20, Type (0, 1), BuildingBlock: EZIPEK_clean_linker_0, # of connection points: 2
#     Edge 21, Type (0, 1), BuildingBlock: EZIPEK_clean_linker_0, # of connection points: 2
#     Edge 22, Type (0, 1), BuildingBlock: EZIPEK_clean_linker_0, # of connection points: 2
#     Edge 23, Type (0, 1), BuildingBlock: EZIPEK_clean_linker_0, # of connection points: 2
#     Edge 24, Type (0, 1), BuildingBlock: EZIPEK_clean_linker_0, # of connection points: 2
#     Edge 25, Type (0, 1), BuildingBlock: EZIPEK_clean_linker_0, # of connection points: 2
#     Edge 26, Type (0, 1), BuildingBlock: EZIPEK_clean_linker_0, # of connection points: 2
#     Edge 27, Type (0, 1), BuildingBlock: EZIPEK_clean_linker_0, # of connection points: 2
#     Edge 28, Type (0, 1), BuildingBlock: EZIPEK_clean_linker_0, # of connection points: 2
#     Edge 29, Type (0, 1), BuildingBlock: EZIPEK_clean_linker_0, # of connection points: 2
#     Edge 30, Type (0, 1), BuildingBlock: EZIPEK_clean_linker_0, # of connection points: 2
#     Edge 31, Type (0, 1), BuildingBlock: EZIPEK_clean_linker_0, # of connection points: 2
#     Edge 32, Type (0, 1), BuildingBlock: EZIPEK_clean_linker_0, # of connection points: 2
#     Edge 33, Type (0, 1), BuildingBlock: EZIPEK_clean_linker_0, # of connection points: 2
#     Edge 34, Type (0, 1), BuildingBlock: EZIPEK_clean_linker_0, # of connection points: 2
#     Edge 35, Type (0, 1), BuildingBlock: EZIPEK_clean_linker_0, # of connection points: 2
#     Edge 36, Type (0, 1), BuildingBlock: EZIPEK_clean_linker_0, # of connection points: 2
#     Edge 37, Type (0, 1), BuildingBlock: EZIPEK_clean_linker_0, # of connection points: 2
#     Edge 38, Type (0, 1), BuildingBlock: EZIPEK_clean_linker_0, # of connection points: 2
#     Edge 39, Type (0, 1), BuildingBlock: EZIPEK_clean_linker_0, # of connection points: 2
#     Edge 40, Type (0, 1), BuildingBlock: EZIPEK_clean_linker_0, # of connection points: 2
#     Edge 41, Type (0, 1), BuildingBlock: EZIPEK_clean_linker_0, # of connection points: 2
#     Edge 42, Type (0, 1), BuildingBlock: EZIPEK_clean_linker_0, # of connection points: 2
#     Edge 43, Type (0, 1), BuildingBlock: EZIPEK_clean_linker_0, # of connection points: 2
#     Edge 44, Type (0, 1), BuildingBlock: EZIPEK_clean_linker_0, # of connection points: 2
#     Edge 45, Type (0, 1), BuildingBlock: EZIPEK_clean_linker_0, # of connection points: 2
#     Edge 46, Type (0, 1), BuildingBlock: EZIPEK_clean_linker_0, # of connection points: 2
#     Edge 47, Type (0, 1), BuildingBlock: EZIPEK_clean_linker_0, # of connection points: 2
# Relax obj value: 0.004
# Max RMSD: 0.064
# Mean RMSD: 0.026
data_MOF--net-ssb--node1-KOZSID_clean_sbu_0--node2-MUDLON_clean_linker_0--edge1-EZIPEK_clean_linker_0
_symmetry_space_group_name_H-M    P1
_symmetry_Int_Tables_number       1
_symmetry_cell_setting            triclinic
loop_
_symmetry_equiv_pos_as_xyz
'x, y, z'
_cell_length_a     57.034668
_cell_length_b     56.941795
_cell_length_c     42.073063
_cell_angle_alpha  92.635552
_cell_angle_beta   95.210348
_cell_angle_gamma 89.991562
loop_
_atom_site_label
_atom_site_type_symbol
_atom_site_fract_x
_atom_site_fract_y
_atom_site_fract_z
_atom_type_partial_charge
H0 H 0.29903 0.32222 0.13104 0.0
N1 N 0.30765 0.31012 0.19102 0.0
H2 H 0.29288 0.36171 0.11139 0.0
H3 H 0.30154 0.35042 0.22814 0.0
H4 H 0.29361 0.38997 0.20839 0.0
H5 H 0.34792 0.33388 0.21279 0.0
H6 H 0.38685 0.32782 0.19311 0.0
H7 H 0.32085 0.27405 0.15437 0.0
H8 H 0.35979 0.26804 0.13453 0.0
H9 H 0.26533 0.2915 0.19522 0.0
H10 H 0.33023 0.30936 0.25164 0.0
H11 H 0.25021 0.27427 0.24143 0.0
H12 H 0.31614 0.2908 0.29718 0.0
H13 H 0.20763 0.2139 0.35668 0.0
H14 H 0.16739 0.21928 0.37224 0.0
H15 H 0.18963 0.28207 0.42804 0.0
H16 H 0.22993 0.27642 0.41291 0.0
H17 H 0.23881 0.22336 0.43915 0.0
H18 H 0.24392 0.18366 0.45795 0.0
H19 H 0.27525 0.16247 0.37173 0.0
H20 H 0.26871 0.20176 0.35166 0.0
H21 H 0.23677 0.22472 0.31912 0.0
H22 H 0.2522 0.24226 0.2733 0.0
H23 H 0.29157 0.29259 0.33747 0.0
N24 N 0.24624 0.23893 0.38207 0.0
H25 H 0.27713 0.27381 0.3829 0.0
C26 C 0.3005 0.33321 0.18097 0.0
C27 C 0.29763 0.33687 0.14809 0.0
C28 C 0.29423 0.35942 0.13692 0.0
C29 C 0.29292 0.37891 0.15836 0.0
C30 C 0.29474 0.37524 0.19138 0.0
C31 C 0.29901 0.35263 0.20265 0.0
C32 C 0.33153 0.30427 0.18506 0.0
C33 C 0.35056 0.31901 0.19654 0.0
C34 C 0.37271 0.31561 0.18528 0.0
C35 C 0.37609 0.2975 0.16242 0.0
C36 C 0.35749 0.28201 0.15233 0.0
C37 C 0.33538 0.28538 0.16365 0.0
C38 C 0.29894 0.30155 0.21963 0.0
C39 C 0.27634 0.29162 0.2176 0.0
C40 C 0.26787 0.28147 0.24404 0.0
C41 C 0.28197 0.28069 0.27328 0.0
C42 C 0.30452 0.29117 0.2754 0.0
C43 C 0.31279 0.30171 0.24907 0.0
C44 C 0.22176 0.24475 0.38392 0.0
C45 C 0.20366 0.22926 0.37133 0.0
C46 C 0.18076 0.23226 0.38029 0.0
C47 C 0.17567 0.25096 0.40147 0.0
C48 C 0.19327 0.26755 0.41168 0.0
C49 C 0.21617 0.26441 0.403 0.0
C50 C 0.25259 0.21581 0.39348 0.0
C51 C 0.24671 0.21023 0.42406 0.0
C52 C 0.24966 0.18754 0.43489 0.0
C53 C 0.25965 0.16992 0.4161 0.0
C54 C 0.26713 0.17569 0.38643 0.0
C55 C 0.26334 0.1983 0.37497 0.0
C56 C 0.25624 0.24767 0.35452 0.0
C57 C 0.24906 0.23925 0.32322 0.0
C58 C 0.25771 0.2496 0.29698 0.0
C59 C 0.27323 0.26905 0.30132 0.0
C60 C 0.28016 0.2774 0.33284 0.0
C61 C 0.27186 0.26674 0.35898 0.0
H62 H 0.67458 0.36963 0.21309 0.0
N63 N 0.69794 0.33788 0.25149 0.0
H64 H 0.6911 0.40377 0.1907 0.0
H65 H 0.73969 0.3608 0.27253 0.0
H66 H 0.75542 0.39607 0.25126 0.0
H67 H 0.70036 0.33072 0.18683 0.0
H68 H 0.66832 0.31651 0.1482 0.0
H69 H 0.65857 0.31626 0.26413 0.0
H70 H 0.6277 0.29896 0.22558 0.0
H71 H 0.69819 0.31617 0.30597 0.0
H72 H 0.73676 0.32202 0.22334 0.0
H73 H 0.72672 0.28794 0.32759 0.0
H74 H 0.7668 0.29558 0.24596 0.0
H75 H 0.82976 0.26527 0.38806 0.0
H76 H 0.86797 0.27676 0.41465 0.0
H77 H 0.90138 0.22326 0.35883 0.0
H78 H 0.86295 0.21215 0.33109 0.0
H79 H 0.81796 0.18372 0.32146 0.0
H80 H 0.80938 0.14883 0.35081 0.0
H81 H 0.79787 0.19339 0.4336 0.0
H82 H 0.80784 0.22795 0.40501 0.0
H83 H 0.79163 0.25718 0.37609 0.0
H84 H 0.76298 0.28392 0.35275 0.0
H85 H 0.77829 0.25856 0.25826 0.0
N86 N 0.82102 0.228 0.34398 0.0
H87 H 0.80905 0.23348 0.28241 0.0
C88 C 0.70678 0.36036 0.24166 0.0
C89 C 0.69258 0.37449 0.22096 0.0
C90 C 0.70184 0.39439 0.20848 0.0
C91 C 0.72493 0.40175 0.21812 0.0
C92 C 0.73792 0.39001 0.24244 0.0
C93 C 0.72891 0.36961 0.25425 0.0
C94 C 0.68125 0.32576 0.22837 0.0
C95 C 0.68449 0.32403 0.19553 0.0
C96 C 0.66626 0.31572 0.17347 0.0
C97 C 0.64526 0.3072 0.18391 0.0
C98 C 0.64343 0.30604 0.21691 0.0
C99 C 0.661 0.31583 0.23888 0.0
C100 C 0.71561 0.32156 0.26355 0.0
C101 C 0.71313 0.3116 0.29281 0.0
C102 C 0.72969 0.29562 0.30524 0.0
C103 C 0.74957 0.28963 0.289 0.0
C104 C 0.75174 0.29939 0.25919 0.0
C105 C 0.7347 0.3148 0.24628 0.0
C106 C 0.84335 0.23781 0.35711 0.0
C107 C 0.84511 0.25632 0.38062 0.0
C108 C 0.86703 0.26292 0.39602 0.0
C109 C 0.88742 0.25076 0.38882 0.0
C110 C 0.88582 0.23288 0.36466 0.0
C111 C 0.86398 0.22658 0.34886 0.0
C112 C 0.81309 0.20843 0.36071 0.0
C113 C 0.81324 0.18593 0.34578 0.0
C114 C 0.80838 0.16612 0.36247 0.0
C115 C 0.8029 0.16857 0.39431 0.0
C116 C 0.8019 0.19117 0.40897 0.0
C117 C 0.80733 0.21094 0.3925 0.0
C118 C 0.80316 0.24369 0.33098 0.0
C119 C 0.7894 0.25767 0.35041 0.0
C120 C 0.77243 0.27277 0.33681 0.0
C121 C 0.768 0.27361 0.30338 0.0
C122 C 0.78141 0.25903 0.28403 0.0
C123 C 0.79891 0.24446 0.29775 0.0
H124 H 0.82252 0.81719 0.4434 0.0
N125 N 0.79903 0.81158 0.38574 0.0
H126 H 0.86412 0.80957 0.4586 0.0
H127 H 0.8312 0.79102 0.34706 0.0
H128 H 0.87213 0.7816 0.36323 0.0
H129 H 0.82409 0.85 0.37103 0.0
H130 H 0.81914 0.89051 0.3919 0.0
H131 H 0.76303 0.82852 0.41584 0.0
H132 H 0.75754 0.86927 0.43576 0.0
H133 H 0.77674 0.7704 0.37861 0.0
H134 H 0.79636 0.82935 0.32601 0.0
H135 H 0.75896 0.75097 0.32922 0.0
H136 H 0.77749 0.81087 0.27688 0.0
H137 H 0.71897 0.69261 0.20619 0.0
H138 H 0.72822 0.65397 0.18243 0.0
H139 H 0.76405 0.68756 0.11063 0.0
H140 H 0.75293 0.72626 0.1329 0.0
H141 H 0.68582 0.71419 0.19758 0.0
H142 H 0.64602 0.7191 0.17222 0.0
H143 H 0.67129 0.77191 0.11339 0.0
H144 H 0.71155 0.76655 0.13834 0.0
H145 H 0.71055 0.73105 0.23982 0.0
H146 H 0.72737 0.75052 0.28955 0.0
H147 H 0.78194 0.7806 0.23882 0.0
N148 N 0.72603 0.73502 0.18039 0.0
H149 H 0.76403 0.76207 0.18898 0.0
C150 C 0.82341 0.80509 0.39403 0.0
C151 C 0.83321 0.80959 0.42561 0.0
C152 C 0.85695 0.80519 0.43431 0.0
C153 C 0.87133 0.7952 0.41198 0.0
C154 C 0.86143 0.78958 0.38075 0.0
C155 C 0.83787 0.79492 0.37161 0.0
C156 C 0.79404 0.83616 0.39232 0.0
C157 C 0.80929 0.85412 0.38467 0.0
C158 C 0.80648 0.87721 0.39656 0.0
C159 C 0.78812 0.88282 0.41565 0.0
C160 C 0.77188 0.86526 0.42122 0.0
C161 C 0.77494 0.84209 0.40981 0.0
C162 C 0.7876 0.80139 0.3562 0.0
C163 C 0.77683 0.7793 0.35642 0.0
C164 C 0.76654 0.7683 0.32812 0.0
C165 C 0.76663 0.77928 0.29882 0.0
C166 C 0.77733 0.80162 0.29876 0.0
C167 C 0.7879 0.81244 0.32703 0.0
C168 C 0.73467 0.7123 0.17062 0.0
C169 C 0.72856 0.69171 0.18516 0.0
C170 C 0.73403 0.66966 0.17177 0.0
C171 C 0.7465 0.66787 0.14442 0.0
C172 C 0.75416 0.68852 0.13145 0.0
C173 C 0.74796 0.71053 0.14419 0.0
C174 C 0.70186 0.73996 0.16968 0.0
C175 C 0.68299 0.72704 0.17959 0.0
C176 C 0.66016 0.72985 0.16514 0.0
C177 C 0.65577 0.74578 0.14087 0.0
C178 C 0.67436 0.75953 0.13209 0.0
C179 C 0.69723 0.75654 0.14633 0.0
C180 C 0.73587 0.74543 0.21052 0.0
C181 C 0.72597 0.74198 0.23933 0.0
C182 C 0.73583 0.75301 0.26793 0.0
C183 C 0.75602 0.76739 0.26842 0.0
C184 C 0.7661 0.77024 0.23949 0.0
C185 C 0.75604 0.75948 0.21095 0.0
H186 H 0.32866 0.71298 0.15798 0.0
N187 N 0.32927 0.71319 0.22346 0.0
H188 H 0.36049 0.72585 0.12763 0.0
H189 H 0.3685 0.73628 0.24589 0.0
H190 H 0.40001 0.75034 0.21511 0.0
H191 H 0.35304 0.67294 0.22684 0.0
H192 H 0.34284 0.63549 0.19745 0.0
H193 H 0.28618 0.70154 0.19082 0.0
H194 H 0.27583 0.66411 0.16301 0.0
H195 H 0.30484 0.74601 0.18779 0.0
H196 H 0.31319 0.71686 0.2809 0.0
H197 H 0.27468 0.77252 0.20548 0.0
H198 H 0.28218 0.7428 0.29856 0.0
H199 H 0.18119 0.8566 0.32686 0.0
H200 H 0.19693 0.89375 0.34952 0.0
H201 H 0.25812 0.88478 0.29736 0.0
H202 H 0.24332 0.8465 0.27584 0.0
H203 H 0.20946 0.81722 0.35565 0.0
H204 H 0.17852 0.80675 0.38915 0.0
H205 H 0.13047 0.79393 0.30489 0.0
H206 H 0.16117 0.80586 0.27138 0.0
H207 H 0.2048 0.79964 0.2354 0.0
H208 H 0.23502 0.77232 0.21896 0.0
H209 H 0.2736 0.78308 0.31181 0.0
N210 N 0.20366 0.82334 0.29111 0.0
H211 H 0.24296 0.80982 0.32817 0.0
C212 C 0.34645 0.72312 0.2045 0.0
C213 C 0.34412 0.72105 0.17081 0.0
C214 C 0.36223 0.72852 0.1534 0.0
C215 C 0.38273 0.73877 0.16914 0.0
C216 C 0.38442 0.74226 0.20255 0.0
C217 C 0.36651 0.73429 0.22006 0.0
C218 C 0.3206 0.69026 0.21122 0.0
C219 C 0.33591 0.67095 0.21361 0.0
C220 C 0.3301 0.6496 0.19695 0.0
C221 C 0.30859 0.64708 0.17812 0.0
C222 C 0.29247 0.66572 0.17758 0.0
C223 C 0.29848 0.6872 0.19358 0.0
C224 C 0.3116 0.72956 0.23326 0.0
C225 C 0.3003 0.74537 0.21214 0.0
C226 C 0.28275 0.76036 0.22221 0.0
C227 C 0.27588 0.7598 0.25347 0.0
C228 C 0.28722 0.74398 0.27448 0.0
C229 C 0.30487 0.72906 0.26443 0.0
C230 C 0.21212 0.84685 0.30225 0.0
C231 C 0.19846 0.8618 0.32097 0.0
C232 C 0.20722 0.88343 0.33358 0.0
C233 C 0.22917 0.89154 0.32625 0.0
C234 C 0.24154 0.87836 0.30431 0.0
C235 C 0.23309 0.85629 0.29234 0.0
C236 C 0.18742 0.8128 0.31092 0.0
C237 C 0.19246 0.81172 0.34426 0.0
C238 C 0.17476 0.80586 0.36341 0.0
C239 C 0.15206 0.79998 0.34956 0.0
C240 C 0.14776 0.79876 0.31609 0.0
C241 C 0.16523 0.80544 0.29699 0.0
C242 C 0.2216 0.80679 0.28284 0.0
C243 C 0.21974 0.79594 0.25218 0.0
C244 C 0.23714 0.78049 0.2428 0.0
C245 C 0.25691 0.77561 0.26395 0.0
C246 C 0.25852 0.78618 0.295 0.0
C247 C 0.241 0.80152 0.30443 0.0
H248 H 0.21208 0.86506 0.6744 0.0
N249 N 0.23721 0.82569 0.6591 0.0
H250 H 0.2182 0.90454 0.65504 0.0
H251 H 0.2758 0.84134 0.63567 0.0
H252 H 0.28261 0.881 0.61784 0.0
H253 H 0.21325 0.8368 0.60382 0.0
H254 H 0.17299 0.82595 0.58402 0.0
H255 H 0.20626 0.7977 0.68835 0.0
H256 H 0.16692 0.78537 0.66688 0.0
H257 H 0.23609 0.84046 0.72167 0.0
H258 H 0.26177 0.78608 0.65954 0.0
H259 H 0.25251 0.81983 0.76839 0.0
H260 H 0.27723 0.76461 0.7058 0.0
H261 H 0.31709 0.77595 0.89402 0.0
H262 H 0.35763 0.78241 0.9184 0.0
H263 H 0.38117 0.72371 0.86132 0.0
H264 H 0.34101 0.71763 0.83652 0.0
H265 H 0.30206 0.70226 0.81194 0.0
H266 H 0.2956 0.66148 0.82637 0.0
H267 H 0.27848 0.68655 0.91967 0.0
H268 H 0.28497 0.72719 0.9053 0.0
H269 H 0.26206 0.76587 0.84493 0.0
H270 H 0.24659 0.78673 0.79806 0.0
H271 H 0.30618 0.76313 0.74862 0.0
N272 N 0.30163 0.7414 0.85261 0.0
H273 H 0.32068 0.74141 0.79493 0.0
C274 C 0.24329 0.85011 0.65579 0.0
C275 C 0.2278 0.86856 0.66277 0.0
C276 C 0.23131 0.89109 0.65181 0.0
C277 C 0.25075 0.89567 0.63471 0.0
C278 C 0.26747 0.87786 0.63088 0.0
C279 C 0.26364 0.85526 0.64107 0.0
C280 C 0.21306 0.81891 0.64819 0.0
C281 C 0.20319 0.82603 0.61828 0.0
C282 C 0.18023 0.81968 0.60678 0.0
C283 C 0.16683 0.80501 0.62409 0.0
C284 C 0.17682 0.79697 0.65333 0.0
C285 C 0.19949 0.80411 0.66554 0.0
C286 C 0.24809 0.81493 0.68715 0.0
C287 C 0.24547 0.82416 0.71815 0.0
C288 C 0.25461 0.8121 0.74483 0.0
C289 C 0.26623 0.79038 0.74108 0.0
C290 C 0.26885 0.7814 0.70986 0.0
C291 C 0.25996 0.79359 0.68331 0.0
C292 C 0.32592 0.74628 0.86369 0.0
C293 C 0.33108 0.76477 0.88641 0.0
C294 C 0.3541 0.7684 0.90031 0.0
C295 C 0.37227 0.75339 0.89182 0.0
C296 C 0.36734 0.73541 0.86823 0.0
C297 C 0.34438 0.73194 0.85412 0.0
C298 C 0.29394 0.71781 0.85766 0.0
C299 C 0.29638 0.69904 0.8352 0.0
C300 C 0.29276 0.6758 0.84343 0.0
C301 C 0.28673 0.67107 0.87416 0.0
C302 C 0.28314 0.68986 0.89587 0.0
C303 C 0.28673 0.71299 0.88767 0.0
C304 C 0.29252 0.75219 0.82365 0.0
C305 C 0.27159 0.76505 0.82379 0.0
C306 C 0.26296 0.77722 0.79705 0.0
C307 C 0.27522 0.77697 0.76945 0.0
C308 C 0.29606 0.76364 0.76919 0.0
C309 C 0.30452 0.75125 0.79587 0.0
H310 H 0.32388 0.3209 0.96019 0.0
N311 N 0.29738 0.30711 0.90707 0.0
H312 H 0.36608 0.315 0.97306 0.0
H313 H 0.32785 0.28164 0.87029 0.0
H314 H 0.36958 0.27503 0.88414 0.0
H315 H 0.31738 0.3441 0.88013 0.0
H316 H 0.31088 0.38594 0.89356 0.0
H317 H 0.26356 0.32526 0.94003 0.0
H318 H 0.25662 0.3671 0.95285 0.0
H319 H 0.26807 0.27185 0.91326 0.0
H320 H 0.29754 0.31264 0.84288 0.0
H321 H 0.24576 0.24825 0.87098 0.0
H322 H 0.27642 0.28836 0.80011 0.0
H323 H 0.19756 0.16185 0.72979 0.0
H324 H 0.21512 0.13213 0.69516 0.0
H325 H 0.2621 0.18463 0.66569 0.0
H326 H 0.24426 0.21449 0.70026 0.0
H327 H 0.20672 0.23488 0.68307 0.0
H328 H 0.17205 0.24739 0.64949 0.0
H329 H 0.12711 0.21138 0.70869 0.0
H330 H 0.16185 0.20028 0.74365 0.0
H331 H 0.22665 0.19476 0.79082 0.0
H332 H 0.24964 0.21882 0.83183 0.0
H333 H 0.23987 0.279 0.773 0.0
N334 N 0.20676 0.20753 0.73495 0.0
H335 H 0.21838 0.25462 0.73161 0.0
C336 C 0.32233 0.30237 0.91395 0.0
C337 C 0.3337 0.31109 0.94319 0.0
C338 C 0.35776 0.30771 0.95058 0.0
C339 C 0.37098 0.29486 0.92934 0.0
C340 C 0.35971 0.28532 0.9006 0.0
C341 C 0.33569 0.28919 0.89277 0.0
C342 C 0.29107 0.33163 0.90948 0.0
C343 C 0.30373 0.349 0.89542 0.0
C344 C 0.30004 0.37281 0.90307 0.0
C345 C 0.28339 0.37952 0.92436 0.0
C346 C 0.26955 0.36223 0.93642 0.0
C347 C 0.27346 0.33846 0.92912 0.0
C348 C 0.2845 0.29378 0.88122 0.0
C349 C 0.26982 0.27552 0.88855 0.0
C350 C 0.25728 0.26193 0.86427 0.0
C351 C 0.25942 0.2661 0.83191 0.0
C352 C 0.27403 0.28472 0.82464 0.0
C353 C 0.28626 0.29859 0.84905 0.0
C354 C 0.21958 0.19025 0.71752 0.0
C355 C 0.21191 0.16683 0.71627 0.0
C356 C 0.2219 0.14996 0.69659 0.0
C357 C 0.2398 0.15626 0.67786 0.0
C358 C 0.24829 0.1795 0.68005 0.0
C359 C 0.23813 0.19648 0.69966 0.0
C360 C 0.18679 0.21717 0.71649 0.0
C361 C 0.18942 0.23039 0.68957 0.0
C362 C 0.16965 0.23734 0.67022 0.0
C363 C 0.147 0.23029 0.67658 0.0
C364 C 0.14439 0.21715 0.70348 0.0
C365 C 0.16413 0.21087 0.72341 0.0
C366 C 0.22046 0.22266 0.75815 0.0
C367 C 0.22962 0.21313 0.78676 0.0
C368 C 0.24259 0.22703 0.81032 0.0
C369 C 0.24645 0.25106 0.80607 0.0
C370 C 0.23754 0.26055 0.77712 0.0
C371 C 0.2249 0.2465 0.7533 0.0
H372 H 0.80834 0.24017 0.61327 0.0
N373 N 0.79844 0.23829 0.67349 0.0
H374 H 0.84691 0.24653 0.59357 0.0
H375 H 0.83923 0.25267 0.71011 0.0
H376 H 0.87731 0.26006 0.69027 0.0
H377 H 0.82722 0.20324 0.69628 0.0
H378 H 0.82373 0.16137 0.67958 0.0
H379 H 0.76151 0.21697 0.64144 0.0
H380 H 0.75776 0.17499 0.62523 0.0
H381 H 0.7659 0.27162 0.67302 0.0
H382 H 0.81117 0.23088 0.73659 0.0
H383 H 0.74972 0.29165 0.71865 0.0
H384 H 0.79673 0.252 0.78248 0.0
H385 H 0.709 0.35945 0.85016 0.0
H386 H 0.71446 0.3994 0.87454 0.0
H387 H 0.78268 0.37977 0.91772 0.0
H388 H 0.77677 0.33966 0.89442 0.0
H389 H 0.72487 0.32324 0.92454 0.0
H390 H 0.68657 0.31392 0.94281 0.0
H391 H 0.66042 0.29302 0.84622 0.0
H392 H 0.69819 0.30429 0.82747 0.0
H393 H 0.73945 0.33935 0.80559 0.0
H394 H 0.75518 0.31933 0.75973 0.0
H395 H 0.76658 0.25693 0.81406 0.0
N396 N 0.73702 0.32181 0.86491 0.0
H397 H 0.75266 0.27794 0.86043 0.0
C398 C 0.82058 0.24599 0.66309 0.0
C399 C 0.82323 0.24487 0.63021 0.0
C400 C 0.84521 0.24841 0.619 0.0
C401 C 0.86499 0.25361 0.64048 0.0
C402 C 0.86226 0.25595 0.67332 0.0
C403 C 0.84035 0.25182 0.68462 0.0
C404 C 0.7946 0.21323 0.66987 0.0
C405 C 0.81171 0.19715 0.68148 0.0
C406 C 0.80976 0.17329 0.67191 0.0
C407 C 0.79057 0.16518 0.65103 0.0
C408 C 0.77269 0.18095 0.64135 0.0
C409 C 0.77476 0.2048 0.65064 0.0
C410 C 0.7899 0.25003 0.70131 0.0
C411 C 0.77259 0.2673 0.69695 0.0
C412 C 0.76353 0.27889 0.7232 0.0
C413 C 0.77191 0.27375 0.75466 0.0
C414 C 0.78939 0.25632 0.75886 0.0
C415 C 0.798 0.24435 0.73253 0.0
C416 C 0.74238 0.3465 0.87106 0.0
C417 C 0.72542 0.36396 0.86409 0.0
C418 C 0.72855 0.38675 0.87789 0.0
C419 C 0.7489 0.39247 0.89812 0.0
C420 C 0.76687 0.3757 0.90216 0.0
C421 C 0.76354 0.35286 0.88889 0.0
C422 C 0.71459 0.31441 0.87474 0.0
C423 C 0.71088 0.3167 0.90726 0.0
C424 C 0.68906 0.31138 0.91766 0.0
C425 C 0.67057 0.3028 0.89591 0.0
C426 C 0.67439 0.29974 0.8634 0.0
C427 C 0.69602 0.30602 0.85275 0.0
C428 C 0.74529 0.31024 0.83674 0.0
C429 C 0.74561 0.32146 0.80771 0.0
C430 C 0.75439 0.30978 0.78125 0.0
C431 C 0.76243 0.28636 0.78286 0.0
C432 C 0.76132 0.27508 0.81181 0.0
C433 C 0.7531 0.28697 0.83839 0.0
H434 H 0.78542 0.80892 0.61551 0.0
N435 N 0.80352 0.7912 0.66946 0.0
H436 H 0.78106 0.85065 0.60388 0.0
H437 H 0.80991 0.82813 0.71312 0.0
H438 H 0.8063 0.87005 0.70131 0.0
H439 H 0.84446 0.80601 0.70351 0.0
H440 H 0.88391 0.80247 0.68506 0.0
H441 H 0.81619 0.76272 0.6223 0.0
H442 H 0.85583 0.75876 0.60413 0.0
H443 H 0.75831 0.78009 0.66352 0.0
H444 H 0.82089 0.77674 0.7287 0.0
H445 H 0.73588 0.76051 0.70115 0.0
H446 H 0.79899 0.75562 0.76578 0.0
H447 H 0.66738 0.68697 0.81684 0.0
H448 H 0.63422 0.70308 0.84416 0.0
H449 H 0.67544 0.76482 0.87484 0.0
H450 H 0.70872 0.74852 0.84835 0.0
H451 H 0.71723 0.70686 0.88424 0.0
H452 H 0.73013 0.67458 0.9177 0.0
H453 H 0.74599 0.63308 0.83405 0.0
H454 H 0.73117 0.66481 0.80008 0.0
H455 H 0.70661 0.70309 0.75535 0.0
H456 H 0.73025 0.72382 0.72009 0.0
H457 H 0.77024 0.75679 0.80258 0.0
N458 N 0.71059 0.70461 0.81852 0.0
H459 H 0.74727 0.73447 0.83756 0.0
C460 C 0.79812 0.81556 0.66496 0.0
C461 C 0.78946 0.82219 0.63449 0.0
C462 C 0.78703 0.84588 0.62791 0.0
C463 C 0.79345 0.86334 0.65173 0.0
C464 C 0.80123 0.85678 0.68269 0.0
C465 C 0.80337 0.83296 0.68937 0.0
C466 C 0.82731 0.78464 0.66412 0.0
C467 C 0.84681 0.79513 0.6823 0.0
C468 C 0.86934 0.79313 0.6718 0.0
C469 C 0.8727 0.78048 0.64316 0.0
C470 C 0.85355 0.76855 0.62632 0.0
C471 C 0.83103 0.7707 0.63672 0.0
C472 C 0.79128 0.77964 0.69292 0.0
C473 C 0.76725 0.77488 0.6859 0.0
C474 C 0.75452 0.76344 0.70741 0.0
C475 C 0.76562 0.75596 0.73644 0.0
C476 C 0.78974 0.76117 0.74381 0.0
C477 C 0.80241 0.7731 0.72239 0.0
C478 C 0.69048 0.71648 0.83028 0.0
C479 C 0.66908 0.7042 0.82887 0.0
C480 C 0.65025 0.71334 0.84446 0.0
C481 C 0.65247 0.73507 0.8616 0.0
C482 C 0.67342 0.74803 0.86168 0.0
C483 C 0.69239 0.73873 0.8464 0.0
C484 C 0.72261 0.68806 0.83933 0.0
C485 C 0.72349 0.69094 0.87287 0.0
C486 C 0.73098 0.67251 0.8921 0.0
C487 C 0.73861 0.65124 0.87834 0.0
C488 C 0.73985 0.64921 0.84512 0.0
C489 C 0.73153 0.66731 0.82579 0.0
C490 C 0.72491 0.71757 0.79887 0.0
C491 C 0.7205 0.71482 0.7657 0.0
C492 C 0.73396 0.72689 0.74563 0.0
C493 C 0.75201 0.74244 0.75832 0.0
C494 C 0.75662 0.74494 0.79182 0.0
C495 C 0.74333 0.73244 0.81192 0.0
C496 C 0.05763 0.27132 0.57949 0.0
C497 C 0.06813 0.29179 0.59328 0.0
C498 C 0.05738 0.31004 0.57796 0.0
C499 C 0.04118 0.29974 0.55557 0.0
N500 N 0.04065 0.276 0.55594 0.0
Co501 Co 0.02196 0.25398 0.52472 0.0
N502 N 0.00683 0.2808 0.50132 0.0
C503 C 0.00996 0.304 0.50883 0.0
C504 C 0.99557 0.3182 0.49023 0.0
C505 C 0.98205 0.30314 0.47006 0.0
C506 C 0.98914 0.2806 0.47748 0.0
N507 N 0.00433 0.23193 0.49257 0.0
C508 C 0.98808 0.23652 0.46819 0.0
C509 C 0.98031 0.21614 0.45114 0.0
C510 C 0.99172 0.19792 0.46573 0.0
C511 C 0.00583 0.20821 0.49064 0.0
N512 N 0.03597 0.22715 0.54904 0.0
C513 C 0.03118 0.20402 0.54312 0.0
C514 C 0.04267 0.18979 0.56481 0.0
C515 C 0.05574 0.20471 0.58568 0.0
C516 C 0.0516 0.22724 0.57526 0.0
N517 N 0.9952 0.25435 0.55188 0.0
C518 C 0.95461 0.25599 0.58536 0.0
C519 C 0.96083 0.23541 0.56896 0.0
C520 C 0.9812 0.23486 0.5529 0.0
C521 C 0.96955 0.27545 0.58598 0.0
C522 C 0.98951 0.27434 0.56895 0.0
N523 N 0.04871 0.25364 0.49746 0.0
C524 C 0.07903 0.23239 0.4716 0.0
C525 C 0.08836 0.25332 0.46222 0.0
C526 C 0.07732 0.27437 0.46993 0.0
C527 C 0.05759 0.27413 0.48737 0.0
C528 C 0.05929 0.23293 0.48901 0.0
H529 H 0.0501 0.2908 0.49283 0.0
H530 H 0.0532 0.21638 0.49582 0.0
H531 H 0.98494 0.21862 0.54086 0.0
H532 H 0.99984 0.28998 0.56952 0.0
C533 C 0.02629 0.31182 0.53379 0.0
C534 C 0.06457 0.24785 0.58928 0.0
C535 C 0.97786 0.25951 0.46229 0.0
C536 C 0.01781 0.1961 0.51523 0.0
H537 H 0.08224 0.29339 0.61227 0.0
H538 H 0.06118 0.32859 0.58231 0.0
H539 H 0.99466 0.3372 0.49164 0.0
H540 H 0.96825 0.30813 0.4523 0.0
H541 H 0.96701 0.21457 0.43108 0.0
H542 H 0.98908 0.17933 0.45993 0.0
H543 H 0.04226 0.17078 0.56478 0.0
H544 H 0.06764 0.19953 0.60564 0.0
H545 H 0.94982 0.21985 0.56826 0.0
H546 H 0.96546 0.29164 0.59884 0.0
H547 H 0.08725 0.21572 0.46607 0.0
H548 H 0.08418 0.29096 0.46309 0.0
C549 C 0.76699 0.05883 0.58218 0.0
C550 C 0.74553 0.06642 0.59182 0.0
C551 C 0.72863 0.05276 0.57492 0.0
C552 C 0.74069 0.03763 0.55607 0.0
N553 N 0.76429 0.04066 0.56015 0.0
Co554 Co 0.78836 0.02246 0.53744 0.0
N555 N 0.76341 0.00526 0.50869 0.0
C556 C 0.73995 0.00899 0.50744 0.0
C557 C 0.72716 0.99454 0.48533 0.0
C558 C 0.74342 0.98064 0.47181 0.0
C559 C 0.76526 0.9874 0.4866 0.0
N560 N 0.81242 0.00307 0.5163 0.0
C561 C 0.80957 0.98458 0.49478 0.0
C562 C 0.831 0.9748 0.48824 0.0
C563 C 0.848 0.98731 0.50668 0.0
C564 C 0.83602 0.00389 0.52341 0.0
N565 N 0.81333 0.0409 0.56455 0.0
C566 C 0.83688 0.03881 0.56372 0.0
C567 C 0.84963 0.05506 0.58322 0.0
C568 C 0.83321 0.06871 0.59681 0.0
C569 C 0.81135 0.05987 0.58482 0.0
N570 N 0.78788 0.99798 0.56958 0.0
C571 C 0.79006 0.95754 0.60552 0.0
C572 C 0.80913 0.97299 0.60716 0.0
C573 C 0.80777 0.99288 0.58887 0.0
C574 C 0.76913 0.96381 0.5883 0.0
C575 C 0.76828 0.98427 0.57114 0.0
N576 N 0.789 0.04683 0.50529 0.0
C577 C 0.81092 0.06998 0.4713 0.0
C578 C 0.79185 0.08505 0.46579 0.0
C579 C 0.77089 0.07995 0.4788 0.0
C580 C 0.7697 0.06056 0.49781 0.0
C581 C 0.80924 0.05129 0.49129 0.0
H582 H 0.75316 0.05746 0.50692 0.0
H583 H 0.82477 0.04108 0.49564 0.0
H584 H 0.82335 0.0033 0.58994 0.0
H585 H 0.75182 0.98807 0.55834 0.0
C586 C 0.7304 0.02342 0.53066 0.0
C587 C 0.78925 0.07061 0.59255 0.0
C588 C 0.787 0.97512 0.48076 0.0
C589 C 0.84639 0.02104 0.54495 0.0
H590 H 0.74239 0.08095 0.60838 0.0
H591 H 0.70974 0.05457 0.57501 0.0
H592 H 0.7082 0.99341 0.48076 0.0
H593 H 0.73959 0.96653 0.45398 0.0
H594 H 0.83397 0.95999 0.47206 0.0
H595 H 0.86683 0.98458 0.50787 0.0
H596 H 0.86858 0.0569 0.58687 0.0
H597 H 0.83685 0.08366 0.61335 0.0
H598 H 0.82549 0.96896 0.62097 0.0
H599 H 0.75374 0.95254 0.58717 0.0
H600 H 0.82738 0.07321 0.46124 0.0
H601 H 0.75561 0.09109 0.47469 0.0
C602 C 0.05968 0.81085 0.55941 0.0
C603 C 0.06814 0.83265 0.57159 0.0
C604 C 0.05334 0.8491 0.55853 0.0
C605 C 0.03686 0.83653 0.53908 0.0
N606 N 0.03994 0.81296 0.53926 0.0
Co607 Co 0.0211 0.7883 0.51234 0.0
N608 N 0.00089 0.81273 0.4906 0.0
C609 C 0.00297 0.83633 0.49522 0.0
C610 C 0.98531 0.84858 0.47924 0.0
C611 C 0.97081 0.83186 0.46389 0.0
C612 C 0.98063 0.8102 0.47114 0.0
N613 N 0.00216 0.76369 0.48551 0.0
C614 C 0.98258 0.76593 0.46508 0.0
C615 C 0.97464 0.74433 0.45166 0.0
C616 C 0.98931 0.72775 0.46484 0.0
C617 C 0.00534 0.74013 0.48535 0.0
N618 N 0.04128 0.76389 0.53406 0.0
C619 C 0.03945 0.74029 0.52913 0.0
C620 C 0.05629 0.72808 0.54687 0.0
C621 C 0.06996 0.74488 0.56373 0.0
C622 C 0.06066 0.76644 0.55519 0.0
N623 N 0.99838 0.78677 0.54537 0.0
C624 C 0.96035 0.78514 0.58341 0.0
C625 C 0.96994 0.7645 0.57108 0.0
C626 C 0.98912 0.76568 0.55274 0.0
C627 C 0.97123 0.80646 0.57859 0.0
C628 C 0.98996 0.8069 0.5594 0.0
N629 N 0.04378 0.78978 0.47911 0.0
C630 C 0.06718 0.7703 0.4405 0.0
C631 C 0.07806 0.79145 0.43489 0.0
C632 C 0.07114 0.81184 0.45118 0.0
C633 C 0.05375 0.81069 0.47242 0.0
C634 C 0.05062 0.76978 0.46299 0.0
H635 H 0.04883 0.82697 0.48328 0.0
H636 H 0.04385 0.75293 0.46711 0.0
H637 H 0.99558 0.74937 0.54382 0.0
H638 H 0.99677 0.82379 0.55538 0.0
C639 C 0.01972 0.84637 0.518 0.0
C640 C 0.07181 0.78881 0.56608 0.0
C641 C 0.96952 0.78772 0.46035 0.0
C642 C 0.02272 0.73021 0.50617 0.0
H643 H 0.08382 0.83645 0.58741 0.0
H644 H 0.05502 0.86802 0.56171 0.0
H645 H 0.98258 0.86741 0.48011 0.0
H646 H 0.95444 0.83537 0.44992 0.0
H647 H 0.95924 0.7409 0.4351 0.0
H648 H 0.98792 0.70886 0.46084 0.0
H649 H 0.05879 0.70924 0.54676 0.0
H650 H 0.08546 0.7417 0.57975 0.0
H651 H 0.96223 0.74757 0.57482 0.0
H652 H 0.9645 0.82282 0.58826 0.0
H653 H 0.07191 0.75411 0.42815 0.0
H654 H 0.07898 0.82867 0.44726 0.0
C655 C 0.28038 0.98683 0.54963 0.0
C656 C 0.3018 0.9765 0.55897 0.0
C657 C 0.31801 0.98559 0.5408 0.0
C658 C 0.30569 0.00102 0.52157 0.0
N659 N 0.28275 0.0025 0.52671 0.0
Co660 Co 0.25893 0.0227 0.5036 0.0
N661 N 0.28373 0.04158 0.48613 0.0
C662 C 0.30634 0.03523 0.48448 0.0
C663 C 0.31925 0.05145 0.47028 0.0
C664 C 0.30378 0.0691 0.46234 0.0
C665 C 0.28226 0.06263 0.47234 0.0
N666 N 0.23524 0.04288 0.48055 0.0
C667 C 0.23783 0.0644 0.46869 0.0
C668 C 0.21627 0.07299 0.45633 0.0
C669 C 0.19984 0.05596 0.45979 0.0
C670 C 0.21212 0.03809 0.4744 0.0
N671 N 0.23408 0.00359 0.52099 0.0
C672 C 0.21114 0.00293 0.50998 0.0
C673 C 0.19816 0.9876 0.52558 0.0
C674 C 0.21394 0.97765 0.54746 0.0
C675 C 0.23577 0.98748 0.54397 0.0
N676 N 0.25942 0.04453 0.54093 0.0
C677 C 0.25876 0.08038 0.58846 0.0
C678 C 0.23787 0.06963 0.57534 0.0
C679 C 0.23856 0.05191 0.55154 0.0
C680 C 0.28017 0.0722 0.57844 0.0
C681 C 0.28012 0.05398 0.55487 0.0
N682 N 0.25808 0.00118 0.46576 0.0
C683 C 0.25255 0.96198 0.44262 0.0
C684 C 0.25379 0.97013 0.41204 0.0
C685 C 0.25785 0.99411 0.40873 0.0
C686 C 0.25954 0.00941 0.4359 0.0
C687 C 0.25493 0.9777 0.46898 0.0
H688 H 0.26162 0.02791 0.4326 0.0
H689 H 0.25353 0.97093 0.49191 0.0
H690 H 0.22206 0.04483 0.54096 0.0
H691 H 0.29675 0.04813 0.54717 0.0
C692 C 0.31547 0.01602 0.50091 0.0
C693 C 0.25791 0.9789 0.56003 0.0
C694 C 0.26057 0.07623 0.46668 0.0
C695 C 0.20207 0.01891 0.48782 0.0
H696 H 0.30516 0.96318 0.57634 0.0
H697 H 0.33661 0.98161 0.54176 0.0
H698 H 0.33786 0.05092 0.46706 0.0
H699 H 0.30785 0.08486 0.45048 0.0
H700 H 0.21271 0.08975 0.44583 0.0
H701 H 0.18102 0.057 0.45374 0.0
H702 H 0.1794 0.98428 0.52184 0.0
H703 H 0.20994 0.96421 0.56356 0.0
H704 H 0.22103 0.07556 0.58259 0.0
H705 H 0.29666 0.08016 0.58822 0.0
H706 H 0.24951 0.94353 0.44611 0.0
H707 H 0.25902 0.00098 0.38535 0.0
C708 C 0.55449 0.77395 0.06111 0.0
C709 C 0.56464 0.79505 0.07324 0.0
C710 C 0.55182 0.81254 0.05904 0.0
C711 C 0.53477 0.8012 0.03898 0.0
N712 N 0.53564 0.7775 0.03984 0.0
Co713 Co 0.51569 0.75423 0.01209 0.0
N714 N 0.49761 0.77999 0.99002 0.0
C715 C 0.50047 0.80341 0.99596 0.0
C716 C 0.48433 0.81673 0.97871 0.0
C717 C 0.46997 0.80088 0.96114 0.0
C718 C 0.47831 0.77874 0.96867 0.0
N719 N 0.49641 0.73095 0.98352 0.0
C720 C 0.47789 0.73447 0.96178 0.0
C721 C 0.46939 0.71349 0.94703 0.0
C722 C 0.48274 0.696 0.96043 0.0
C723 C 0.49862 0.70727 0.9824 0.0
N724 N 0.53303 0.72844 0.03503 0.0
C725 C 0.52909 0.70504 0.03047 0.0
C726 C 0.54353 0.69169 0.05022 0.0
C727 C 0.55769 0.70748 0.06825 0.0
C728 C 0.55113 0.72962 0.05827 0.0
N729 N 0.49188 0.75406 0.04379 0.0
C730 C 0.45727 0.75345 0.0874 0.0
C731 C 0.46286 0.73309 0.07011 0.0
C732 C 0.48018 0.73373 0.04885 0.0
C733 C 0.46933 0.77418 0.08281 0.0
C734 C 0.48634 0.77414 0.06079 0.0
N735 N 0.53955 0.7543 0.98039 0.0
C736 C 0.56733 0.73315 0.94974 0.0
C737 C 0.57556 0.75404 0.93886 0.0
C738 C 0.56526 0.77512 0.94836 0.0
C739 C 0.54732 0.77485 0.96901 0.0
C740 C 0.5494 0.73365 0.97018 0.0
H741 H 0.54028 0.79148 0.97578 0.0
H742 H 0.54413 0.71708 0.97779 0.0
H743 H 0.48367 0.71751 0.03668 0.0
H744 H 0.49473 0.79054 0.05786 0.0
C745 C 0.51801 0.81228 0.01859 0.0
C746 C 0.56382 0.75103 0.0698 0.0
C747 C 0.46666 0.75706 0.95612 0.0
C748 C 0.51349 0.6961 0.00525 0.0
H749 H 0.57994 0.79756 0.09023 0.0
H750 H 0.55486 0.83129 0.06245 0.0
H751 H 0.48282 0.8357 0.97944 0.0
H752 H 0.45478 0.80509 0.94513 0.0
H753 H 0.45451 0.71107 0.92929 0.0
H754 H 0.48038 0.67725 0.95585 0.0
H755 H 0.54427 0.67271 0.05061 0.0
H756 H 0.57179 0.70319 0.08601 0.0
H757 H 0.45394 0.71666 0.07317 0.0
H758 H 0.46551 0.79031 0.09599 0.0
H759 H 0.57497 0.71646 0.94283 0.0
H760 H 0.5713 0.79169 0.94034 0.0
C761 C 0.26785 0.56231 0.07022 0.0
C762 C 0.24721 0.57288 0.07862 0.0
C763 C 0.22966 0.56522 0.05615 0.0
C764 C 0.24047 0.55039 0.03544 0.0
N765 N 0.26371 0.54794 0.0437 0.0
Co766 Co 0.28577 0.52823 0.02 0.0
N767 N 0.25941 0.51052 0.99572 0.0
C768 C 0.23666 0.51693 0.99264 0.0
C769 C 0.22245 0.50053 0.97537 0.0
C770 C 0.23724 0.48272 0.96702 0.0
C771 C 0.25969 0.48939 0.9796 0.0
N772 N 0.30765 0.50899 0.99566 0.0
C773 C 0.30374 0.48844 0.97862 0.0
C774 C 0.32379 0.48093 0.96486 0.0
C775 C 0.34088 0.4975 0.97373 0.0
C776 C 0.33029 0.51411 0.9923 0.0
N777 N 0.31227 0.54561 0.04461 0.0
C778 C 0.33468 0.5462 0.03691 0.0
C779 C 0.34908 0.56019 0.05774 0.0
C780 C 0.3348 0.56928 0.07968 0.0
C781 C 0.31236 0.56035 0.07091 0.0
N782 N 0.28678 0.50489 0.05302 0.0
C783 C 0.28707 0.46758 0.09446 0.0
C784 C 0.30778 0.47467 0.08196 0.0
C785 C 0.30736 0.49363 0.06189 0.0
C786 C 0.26662 0.48075 0.08761 0.0
C787 C 0.26669 0.49886 0.06623 0.0
N788 N 0.28476 0.55148 0.98675 0.0
C789 C 0.28793 0.59185 0.97296 0.0
C790 C 0.28383 0.58545 0.94056 0.0
C791 C 0.28028 0.56166 0.93142 0.0
C792 C 0.28089 0.54489 0.95496 0.0
C793 C 0.28835 0.57467 0.99549 0.0
H794 H 0.27842 0.52663 0.94741 0.0
H795 H 0.29193 0.58015 0.02 0.0
H796 H 0.32354 0.49853 0.05254 0.0
H797 H 0.25026 0.50747 0.05973 0.0
C798 C 0.22894 0.53602 0.01098 0.0
C799 C 0.29126 0.56879 0.08549 0.0
C800 C 0.28111 0.47614 0.97426 0.0
C801 C 0.3419 0.5319 0.01168 0.0
H802 H 0.24521 0.58535 0.09838 0.0
H803 H 0.21115 0.56957 0.05543 0.0
H804 H 0.20349 0.50093 0.97064 0.0
H805 H 0.23212 0.46675 0.95322 0.0
H806 H 0.32584 0.4651 0.95014 0.0
H807 H 0.35912 0.49689 0.96854 0.0
H808 H 0.36775 0.56332 0.05717 0.0
H809 H 0.34013 0.58169 0.09925 0.0
H810 H 0.32408 0.46521 0.08697 0.0
H811 H 0.25035 0.47618 0.09731 0.0
H812 H 0.29096 0.61008 0.98083 0.0
H813 H 0.27727 0.55612 0.90641 0.0
C814 C 0.48167 0.3121 0.98183 0.0
C815 C 0.47212 0.3336 0.97329 0.0
C816 C 0.48698 0.35053 0.98743 0.0
C817 C 0.50455 0.33853 0.00402 0.0
N818 N 0.50214 0.31488 0.00079 0.0
Co819 Co 0.52156 0.29083 0.02465 0.0
N820 N 0.54082 0.31589 0.04997 0.0
C821 C 0.53931 0.3394 0.04663 0.0
C822 C 0.55611 0.35211 0.06534 0.0
C823 C 0.56921 0.33579 0.08162 0.0
C824 C 0.55941 0.31395 0.07214 0.0
N825 N 0.54039 0.26674 0.04909 0.0
C826 C 0.55756 0.26952 0.07348 0.0
C827 C 0.565 0.24806 0.08506 0.0
C828 C 0.55246 0.2311 0.0669 0.0
C829 C 0.53796 0.2431 0.04558 0.0
N830 N 0.5026 0.26584 0.99876 0.0
C831 C 0.50573 0.24232 0.99937 0.0
C832 C 0.48979 0.22968 0.97901 0.0
C833 C 0.47529 0.24609 0.96506 0.0
C834 C 0.48323 0.26782 0.97792 0.0
N835 N 0.545 0.29032 0.99216 0.0
C836 C 0.58323 0.29037 0.95403 0.0
C837 C 0.57314 0.26927 0.96175 0.0
C838 C 0.55439 0.26964 0.98109 0.0
C839 C 0.57285 0.31134 0.96379 0.0
C840 C 0.55358 0.31088 0.98194 0.0
N841 N 0.49841 0.29146 0.05716 0.0
C842 C 0.46951 0.27162 0.08511 0.0
C843 C 0.46132 0.29313 0.09684 0.0
C844 C 0.47299 0.31362 0.09031 0.0
C845 C 0.49132 0.31241 0.07047 0.0
C846 C 0.48819 0.27117 0.06569 0.0
H847 H 0.49903 0.32871 0.06548 0.0
H848 H 0.49346 0.25431 0.0568 0.0
H849 H 0.54824 0.253 0.98732 0.0
H850 H 0.54634 0.32747 0.98794 0.0
C851 C 0.52205 0.34899 0.02541 0.0
C852 C 0.47019 0.28953 0.97266 0.0
C853 C 0.56805 0.29198 0.0855 0.0
C854 C 0.52198 0.23267 0.02195 0.0
H855 H 0.45576 0.33687 0.95918 0.0
H856 H 0.48461 0.36938 0.98699 0.0
H857 H 0.55866 0.37098 0.06675 0.0
H858 H 0.5843 0.33962 0.09855 0.0
H859 H 0.57837 0.24495 0.10432 0.0
H860 H 0.55381 0.21226 0.06894 0.0
H861 H 0.48815 0.21075 0.97592 0.0
H862 H 0.45991 0.24247 0.94853 0.0
H863 H 0.58037 0.25258 0.95405 0.0
H864 H 0.57978 0.32811 0.95772 0.0
H865 H 0.46102 0.25533 0.09002 0.0
H866 H 0.4673 0.33059 0.0994 0.0
C867 C 0.73523 0.56083 0.08161 0.0
C868 C 0.71442 0.56779 0.09395 0.0
C869 C 0.69853 0.5499 0.08631 0.0
C870 C 0.7105 0.5331 0.06989 0.0
N871 N 0.73288 0.53934 0.0666 0.0
Co872 Co 0.75651 0.51976 0.04596 0.0
N873 N 0.73159 0.49928 0.02286 0.0
C874 C 0.70906 0.49789 0.02988 0.0
C875 C 0.69596 0.48183 0.01046 0.0
C876 C 0.71124 0.47225 0.99019 0.0
C877 C 0.73293 0.48298 0.99849 0.0
N878 N 0.78022 0.49965 0.02598 0.0
C879 C 0.77749 0.4833 0.00141 0.0
C880 C 0.7989 0.47317 0.99552 0.0
C881 C 0.81552 0.48329 0.01746 0.0
C882 C 0.80342 0.49901 0.03544 0.0
N883 N 0.78133 0.54051 0.06845 0.0
C884 C 0.80446 0.53571 0.07285 0.0
C885 C 0.81743 0.55399 0.08789 0.0
C886 C 0.80142 0.57133 0.09346 0.0
C887 C 0.7795 0.56251 0.08169 0.0
N888 N 0.75797 0.49954 0.08257 0.0
C889 C 0.75357 0.4711 0.13416 0.0
C890 C 0.7588 0.49505 0.13938 0.0
C891 C 0.76056 0.50904 0.1132 0.0
C892 C 0.75191 0.46147 0.10289 0.0
C893 C 0.75446 0.47591 0.07762 0.0
N894 N 0.7548 0.54031 0.00988 0.0
C895 C 0.774 0.5638 0.97368 0.0
C896 C 0.75248 0.57411 0.96356 0.0
C897 C 0.73205 0.56639 0.97599 0.0
C898 C 0.73354 0.54922 0.99867 0.0
C899 C 0.77483 0.54717 0.9972 0.0
H900 H 0.7175 0.54367 0.0078 0.0
H901 H 0.79174 0.54034 0.00567 0.0
H902 H 0.76319 0.52765 0.1178 0.0
H903 H 0.75255 0.46812 0.05397 0.0
C904 C 0.70043 0.51341 0.05276 0.0
C905 C 0.75713 0.57448 0.08598 0.0
C906 C 0.75482 0.47508 0.98547 0.0
C907 C 0.81363 0.51579 0.05781 0.0
H908 H 0.7111 0.58404 0.10712 0.0
H909 H 0.68021 0.54961 0.09112 0.0
H910 H 0.67746 0.47772 0.01078 0.0
H911 H 0.70707 0.45843 0.97203 0.0
H912 H 0.80208 0.45956 0.97762 0.0
H913 H 0.83428 0.48002 0.01947 0.0
H914 H 0.83635 0.55499 0.09304 0.0
H915 H 0.80541 0.58836 0.10515 0.0
H916 H 0.76046 0.50303 0.16335 0.0
H917 H 0.7481 0.44295 0.09795 0.0
H918 H 0.79012 0.56916 0.96425 0.0
H919 H 0.71506 0.57378 0.96844 0.0
C920 C 0.15295 0.24554 0.44884 0.0
C921 C 0.15302 0.25145 0.41643 0.0
C922 C 0.11019 0.25693 0.41311 0.0
C923 C 0.1106 0.25324 0.4463 0.0
N924 N 0.13296 0.24889 0.49715 0.0
N925 N 0.13253 0.26585 0.36865 0.0
C926 C 0.13217 0.24893 0.46457 0.0
C927 C 0.13184 0.258 0.39876 0.0
N928 N 0.17251 0.23588 0.46431 0.0
N929 N 0.08911 0.25874 0.39518 0.0
H930 H 0.14806 0.26667 0.3574 0.0
H931 H 0.11813 0.27323 0.35578 0.0
H932 H 0.07296 0.25822 0.40496 0.0
H933 H 0.08751 0.25894 0.37034 0.0
H934 H 0.1726 0.2289 0.48677 0.0
H935 H 0.18805 0.23273 0.45355 0.0
H936 H 0.1486 0.24828 0.51194 0.0
H937 H 0.11817 0.25183 0.50961 0.0
C938 C 0.8158 0.14278 0.43955 0.0
C939 C 0.79966 0.14737 0.41287 0.0
C940 C 0.77989 0.10979 0.41876 0.0
C941 C 0.79427 0.10662 0.4476 0.0
N942 N 0.82239 0.1231 0.48918 0.0
N943 N 0.76338 0.1375 0.38096 0.0
C944 C 0.8112 0.12401 0.45913 0.0
C945 C 0.7808 0.13152 0.40358 0.0
N946 N 0.83609 0.15565 0.44547 0.0
N947 N 0.7661 0.09176 0.4051 0.0
H948 H 0.76318 0.15349 0.36978 0.0
H949 H 0.74803 0.12764 0.3756 0.0
H950 H 0.76548 0.07531 0.41492 0.0
H951 H 0.7571 0.09237 0.38247 0.0
H952 H 0.84953 0.15139 0.46269 0.0
H953 H 0.84066 0.16904 0.43108 0.0
H954 H 0.83295 0.13672 0.49989 0.0
H955 H 0.81933 0.1099 0.50467 0.0
C956 C 0.90299 0.77666 0.44814 0.0
C957 C 0.89673 0.79077 0.42174 0.0
C958 C 0.93863 0.7968 0.4158 0.0
C959 C 0.9445 0.78699 0.44582 0.0
N960 N 0.93169 0.76931 0.49246 0.0
N961 N 0.9091 0.81771 0.38355 0.0
C962 C 0.92652 0.77725 0.46249 0.0
C963 C 0.91468 0.80162 0.40611 0.0
N964 N 0.8866 0.76226 0.45901 0.0
N965 N 0.95594 0.80169 0.39667 0.0
H966 H 0.89189 0.82288 0.3769 0.0
H967 H 0.92174 0.82774 0.37388 0.0
H968 H 0.97368 0.79829 0.40313 0.0
H969 H 0.95242 0.80695 0.37332 0.0
H970 H 0.89074 0.75002 0.47629 0.0
H971 H 0.86942 0.76073 0.44827 0.0
H972 H 0.91886 0.76412 0.50683 0.0
H973 H 0.94859 0.76987 0.50416 0.0
C974 C 0.25926 0.91308 0.36473 0.0
C975 C 0.23898 0.91365 0.34251 0.0
C976 C 0.23016 0.95351 0.36232 0.0
C977 C 0.25064 0.95303 0.38415 0.0
N978 N 0.2884 0.93575 0.39871 0.0
N979 N 0.20971 0.93683 0.31344 0.0
C980 C 0.26651 0.93395 0.38265 0.0
C981 C 0.22603 0.93478 0.33899 0.0
N982 N 0.27061 0.89237 0.37063 0.0
N983 N 0.21381 0.97085 0.36513 0.0
H984 H 0.2066 0.92343 0.29577 0.0
H985 H 0.20117 0.95253 0.30812 0.0
H986 H 0.21579 0.98471 0.3822 0.0
H987 H 0.19736 0.97044 0.35214 0.0
H988 H 0.28381 0.89068 0.38919 0.0
H989 H 0.26557 0.87638 0.35901 0.0
H990 H 0.30146 0.92317 0.39627 0.0
H991 H 0.29421 0.951 0.41179 0.0
C992 C 0.12278 0.80377 0.62822 0.0
C993 C 0.14249 0.79794 0.61103 0.0
C994 C 0.11583 0.78496 0.56453 0.0
C995 C 0.09627 0.78949 0.58239 0.0
N996 N 0.08139 0.797 0.63362 0.0
N997 N 0.15748 0.77643 0.56643 0.0
C998 C 0.09989 0.79665 0.61516 0.0
C999 C 0.13891 0.78644 0.58028 0.0
N1000 N 0.12558 0.81745 0.65585 0.0
N1001 N 0.11251 0.78023 0.5323 0.0
H1002 H 0.17451 0.77639 0.57781 0.0
H1003 H 0.1555 0.76602 0.54533 0.0
H1004 H 0.0959 0.77903 0.51973 0.0
H1005 H 0.12634 0.77949 0.51773 0.0
H1006 H 0.11146 0.82413 0.66745 0.0
H1007 H 0.14181 0.82417 0.66552 0.0
H1008 H 0.08339 0.80006 0.65833 0.0
H1009 H 0.06438 0.79201 0.62457 0.0
C1010 C 0.26175 0.11925 0.66525 0.0
C1011 C 0.24816 0.13863 0.65431 0.0
C1012 C 0.2472 0.12219 0.59937 0.0
C1013 C 0.25758 0.10121 0.61095 0.0
N1014 N 0.27299 0.07868 0.65528 0.0
N1015 N 0.22548 0.15749 0.61141 0.0
C1016 C 0.26466 0.0995 0.64398 0.0
C1017 C 0.24044 0.13998 0.62141 0.0
N1018 N 0.27201 0.11987 0.69592 0.0
N1019 N 0.24395 0.12514 0.56721 0.0
H1020 H 0.21993 0.17089 0.62667 0.0
H1021 H 0.21703 0.15772 0.58842 0.0
H1022 H 0.24833 0.11231 0.55031 0.0
H1023 H 0.2389 0.14103 0.55737 0.0
H1024 H 0.28397 0.10734 0.70453 0.0
H1025 H 0.27019 0.13413 0.71199 0.0
H1026 H 0.27589 0.07554 0.6795 0.0
H1027 H 0.27539 0.06385 0.64048 0.0
C1028 C 0.90648 0.23892 0.63694 0.0
C1029 C 0.88868 0.25554 0.62843 0.0
C1030 C 0.91384 0.27222 0.59081 0.0
C1031 C 0.93238 0.25699 0.60147 0.0
N1032 N 0.94812 0.23003 0.6405 0.0
N1033 N 0.87765 0.2915 0.60294 0.0
C1034 C 0.92924 0.24164 0.62639 0.0
C1035 C 0.89307 0.2733 0.6071 0.0
N1036 N 0.90141 0.21981 0.65365 0.0
N1037 N 0.91549 0.28482 0.56422 0.0
H1038 H 0.86249 0.29313 0.61499 0.0
H1039 H 0.88111 0.30613 0.59009 0.0
H1040 H 0.93013 0.28425 0.55108 0.0
H1041 H 0.90143 0.29413 0.55346 0.0
H1042 H 0.91311 0.20596 0.65751 0.0
H1043 H 0.88477 0.21657 0.6609 0.0
H1044 H 0.94722 0.2204 0.66083 0.0
H1045 H 0.96518 0.23204 0.63394 0.0
C1046 C 0.77723 0.90459 0.65351 0.0
C1047 C 0.79403 0.88831 0.64301 0.0
C1048 C 0.80821 0.91727 0.60796 0.0
C1049 C 0.7924 0.93413 0.61986 0.0
N1050 N 0.76577 0.94548 0.65916 0.0
N1051 N 0.82946 0.88105 0.61691 0.0
C1052 C 0.77807 0.92828 0.64427 0.0
C1053 C 0.81079 0.89529 0.62235 0.0
N1054 N 0.75993 0.89724 0.67123 0.0
N1055 N 0.81988 0.92167 0.58186 0.0
H1056 H 0.83214 0.86489 0.62739 0.0
H1057 H 0.8435 0.8863 0.60467 0.0
H1058 H 0.81833 0.93731 0.56996 0.0
H1059 H 0.82938 0.90889 0.57004 0.0
H1060 H 0.74567 0.90766 0.67655 0.0
H1061 H 0.75881 0.88005 0.67855 0.0
H1062 H 0.75683 0.94271 0.67919 0.0
H1063 H 0.76637 0.96308 0.65339 0.0
C1064 C 0.91564 0.77008 0.64183 0.0
C1065 C 0.89548 0.78208 0.62873 0.0
C1066 C 0.91741 0.7949 0.5851 0.0
C1067 C 0.93816 0.78454 0.59956 0.0
N1068 N 0.95813 0.76623 0.64495 0.0
N1069 N 0.87862 0.81034 0.59223 0.0
C1070 C 0.93759 0.77322 0.62889 0.0
C1071 C 0.89679 0.7958 0.60162 0.0
N1072 N 0.91366 0.75518 0.666 0.0
N1073 N 0.91702 0.80309 0.55501 0.0
H1074 H 0.86327 0.8118 0.6039 0.0
H1075 H 0.87969 0.82264 0.57483 0.0
H1076 H 0.93163 0.80284 0.54183 0.0
H1077 H 0.90163 0.80817 0.54189 0.0
H1078 H 0.9271 0.74401 0.67423 0.0
H1079 H 0.89788 0.75259 0.67614 0.0
H1080 H 0.95912 0.76005 0.66794 0.0
H1081 H 0.97456 0.76865 0.63651 0.0
C1082 C 0.25003 0.91544 0.58265 0.0
C1083 C 0.25193 0.91753 0.61649 0.0
C1084 C 0.25641 0.9604 0.61372 0.0
C1085 C 0.25732 0.95768 0.58012 0.0
N1086 N 0.26184 0.93126 0.53449 0.0
N1087 N 0.26004 0.94172 0.66478 0.0
C1088 C 0.25613 0.93481 0.56512 0.0
C1089 C 0.25592 0.93999 0.63226 0.0
N1090 N 0.2417 0.89511 0.56705 0.0
N1091 N 0.25582 0.98246 0.62784 0.0
H1092 H 0.25985 0.92716 0.67893 0.0
H1093 H 0.2654 0.95721 0.67747 0.0
H1094 H 0.25699 0.99766 0.61511 0.0
H1095 H 0.25264 0.98568 0.65163 0.0
H1096 H 0.2378 0.89358 0.54235 0.0
H1097 H 0.23618 0.88069 0.5789 0.0
H1098 H 0.26308 0.91461 0.52342 0.0
H1099 H 0.26861 0.94451 0.52186 0.0
C1100 C 0.12491 0.22656 0.62192 0.0
C1101 C 0.12613 0.23554 0.65411 0.0
C1102 C 0.08612 0.25106 0.64459 0.0
C1103 C 0.08612 0.24451 0.61166 0.0
N1104 N 0.1075 0.23029 0.56778 0.0
N1105 N 0.10975 0.26071 0.69419 0.0
C1106 C 0.1062 0.23364 0.59994 0.0
C1107 C 0.10724 0.24907 0.66494 0.0
N1108 N 0.14087 0.21029 0.61266 0.0
N1109 N 0.0658 0.25857 0.6566 0.0
H1110 H 0.12523 0.26027 0.7094 0.0
H1111 H 0.09738 0.27262 0.70195 0.0
H1112 H 0.04996 0.26019 0.6424 0.0
H1113 H 0.06423 0.26125 0.68098 0.0
H1114 H 0.13932 0.20147 0.59032 0.0
H1115 H 0.15425 0.20372 0.62831 0.0
H1116 H 0.12269 0.22447 0.5579 0.0
H1117 H 0.09418 0.23542 0.55089 0.0
C1118 C 0.7861 0.1213 0.65508 0.0
C1119 C 0.79037 0.14081 0.63653 0.0
C1120 C 0.79161 0.1145 0.5889 0.0
C1121 C 0.78935 0.09485 0.60792 0.0
N1122 N 0.78773 0.07895 0.65973 0.0
N1123 N 0.80196 0.1556 0.58737 0.0
C1124 C 0.78757 0.09808 0.64126 0.0
C1125 C 0.79442 0.1373 0.60384 0.0
N1126 N 0.77989 0.12502 0.68552 0.0
N1127 N 0.79052 0.11143 0.5564 0.0
H1128 H 0.80468 0.17255 0.59751 0.0
H1129 H 0.80767 0.15352 0.56458 0.0
H1130 H 0.78923 0.09493 0.5446 0.0
H1131 H 0.78894 0.12531 0.54108 0.0
H1132 H 0.77415 0.11172 0.69914 0.0
H1133 H 0.7787 0.14177 0.69636 0.0
H1134 H 0.78902 0.08012 0.68459 0.0
H1135 H 0.78831 0.06172 0.65023 0.0
C1136 C 0.91271 0.24924 0.44077 0.0
C1137 C 0.91015 0.25536 0.40828 0.0
C1138 C 0.95209 0.26561 0.41133 0.0
C1139 C 0.95418 0.26076 0.4442 0.0
N1140 N 0.93557 0.25379 0.49204 0.0
N1141 N 0.92598 0.27393 0.36445 0.0
C1142 C 0.93413 0.25451 0.45951 0.0
C1143 C 0.92944 0.26497 0.39408 0.0
N1144 N 0.89521 0.23722 0.45328 0.0
N1145 N 0.97182 0.27006 0.39641 0.0
H1146 H 0.90955 0.27394 0.35134 0.0
H1147 H 0.93883 0.28321 0.35411 0.0
H1148 H 0.98859 0.27123 0.40855 0.0
H1149 H 0.97177 0.27107 0.37175 0.0
H1150 H 0.89722 0.23012 0.47574 0.0
H1151 H 0.87943 0.23231 0.44019 0.0
H1152 H 0.92102 0.25139 0.50483 0.0
H1153 H 0.95096 0.25807 0.50644 0.0
C1154 C 0.79134 0.90884 0.46584 0.0
C1155 C 0.78708 0.90654 0.43203 0.0
C1156 C 0.78391 0.94948 0.42978 0.0
C1157 C 0.78609 0.95144 0.46366 0.0
N1158 N 0.78685 0.93271 0.51393 0.0
N1159 N 0.7752 0.92421 0.38213 0.0
C1160 C 0.78823 0.93101 0.48167 0.0
C1161 C 0.78221 0.92677 0.41404 0.0
N1162 N 0.79955 0.89014 0.48279 0.0
N1163 N 0.78396 0.96932 0.41271 0.0
H1164 H 0.77349 0.90785 0.36994 0.0
H1165 H 0.76913 0.93808 0.36836 0.0
H1166 H 0.78469 0.98621 0.4235 0.0
H1167 H 0.78501 0.96903 0.38811 0.0
H1168 H 0.8053 0.89155 0.50703 0.0
H1169 H 0.80286 0.87372 0.47214 0.0
H1170 H 0.78534 0.91812 0.52768 0.0
H1171 H 0.78503 0.94872 0.52648 0.0
C1172 C 0.11267 0.8119 0.36798 0.0
C1173 C 0.13249 0.79673 0.37024 0.0
C1174 C 0.11754 0.77911 0.41656 0.0
C1175 C 0.09649 0.79241 0.41191 0.0
N1176 N 0.07173 0.81669 0.3773 0.0
N1177 N 0.15081 0.76208 0.39212 0.0
C1178 C 0.09334 0.80734 0.38578 0.0
C1179 C 0.13402 0.77913 0.39315 0.0
N1180 N 0.1127 0.83139 0.3502 0.0
N1181 N 0.12244 0.76735 0.44394 0.0
H1182 H 0.16276 0.76113 0.37475 0.0
H1183 H 0.15127 0.74757 0.4064 0.0
H1184 H 0.1113 0.76746 0.46224 0.0
H1185 H 0.13863 0.75945 0.44985 0.0
H1186 H 0.09957 0.84412 0.35039 0.0
H1187 H 0.12697 0.83623 0.33809 0.0
H1188 H 0.0681 0.82593 0.35662 0.0
H1189 H 0.05684 0.813 0.38891 0.0
C1190 C 0.25015 0.12636 0.40972 0.0
C1191 C 0.26173 0.14545 0.42766 0.0
C1192 C 0.27201 0.11932 0.47172 0.0
C1193 C 0.26174 0.10004 0.45284 0.0
N1194 N 0.24829 0.08416 0.40017 0.0
N1195 N 0.28913 0.1583 0.47216 0.0
C1196 C 0.25316 0.10322 0.42061 0.0
C1197 C 0.27431 0.14139 0.45765 0.0
N1198 N 0.23519 0.13031 0.38328 0.0
N1199 N 0.27922 0.11671 0.50322 0.0
H1200 H 0.29199 0.17428 0.46193 0.0
H1201 H 0.30041 0.15553 0.49252 0.0
H1202 H 0.27822 0.10075 0.51423 0.0
H1203 H 0.28443 0.13078 0.51899 0.0
H1204 H 0.22463 0.11714 0.37137 0.0
H1205 H 0.23141 0.14704 0.37522 0.0
H1206 H 0.24405 0.08559 0.37571 0.0
H1207 H 0.25084 0.06692 0.40708 0.0
C1208 C 0.63703 0.74271 0.91525 0.0
C1209 C 0.63345 0.74319 0.88142 0.0
C1210 C 0.59187 0.7532 0.88511 0.0
C1211 C 0.59577 0.75345 0.9189 0.0
N1212 N 0.62301 0.75485 0.96611 0.0
N1213 N 0.60913 0.75383 0.83447 0.0
C1214 C 0.61872 0.75032 0.93394 0.0
C1215 C 0.61134 0.75002 0.86643 0.0
N1216 N 0.65737 0.73371 0.92953 0.0
N1217 N 0.56949 0.75515 0.8709 0.0
H1218 H 0.62311 0.75179 0.82023 0.0
H1219 H 0.59415 0.76098 0.82266 0.0
H1220 H 0.55495 0.7582 0.88388 0.0
H1221 H 0.56511 0.75235 0.84646 0.0
H1222 H 0.65977 0.7305 0.95378 0.0
H1223 H 0.67112 0.72745 0.91683 0.0
H1224 H 0.63984 0.75505 0.97804 0.0
H1225 H 0.60997 0.7608 0.98033 0.0
C1226 C 0.30707 0.63495 0.8952 0.0
C1227 C 0.28583 0.64656 0.88499 0.0
C1228 C 0.26279 0.6155 0.90645 0.0
C1229 C 0.28403 0.60407 0.91688 0.0
N1230 N 0.32578 0.5994 0.91466 0.0
N1231 N 0.24369 0.64559 0.87416 0.0
C1232 C 0.30598 0.61265 0.90894 0.0
C1233 C 0.26372 0.636 0.88839 0.0
N1234 N 0.32825 0.64586 0.89345 0.0
N1235 N 0.24184 0.60734 0.91506 0.0
H1236 H 0.24393 0.66062 0.86087 0.0
H1237 H 0.22717 0.63768 0.87315 0.0
H1238 H 0.24047 0.59193 0.92725 0.0
H1239 H 0.22602 0.61639 0.91164 0.0
H1240 H 0.34414 0.63968 0.90402 0.0
H1241 H 0.32989 0.66204 0.88321 0.0
H1242 H 0.34197 0.60348 0.90668 0.0
H1243 H 0.32549 0.58307 0.92494 0.0
C1244 C 0.40367 0.27852 0.96564 0.0
C1245 C 0.39654 0.29097 0.938 0.0
C1246 C 0.43795 0.29686 0.92904 0.0
C1247 C 0.4448 0.28855 0.95974 0.0
N1248 N 0.43385 0.27292 0.00874 0.0
N1249 N 0.40702 0.31475 0.89525 0.0
C1250 C 0.42757 0.27962 0.97841 0.0
C1251 C 0.4137 0.30073 0.91995 0.0
N1252 N 0.38768 0.26522 0.97927 0.0
N1253 N 0.4546 0.30095 0.90856 0.0
H1254 H 0.38949 0.31862 0.88829 0.0
H1255 H 0.41897 0.32427 0.88357 0.0
H1256 H 0.47252 0.29818 0.91453 0.0
H1257 H 0.45043 0.30492 0.88479 0.0
H1258 H 0.3923 0.25393 0.99758 0.0
H1259 H 0.37012 0.26357 0.97003 0.0
H1260 H 0.45107 0.27389 0.0192 0.0
H1261 H 0.42173 0.26838 0.02453 0.0
C1262 C 0.74838 0.41161 0.9527 0.0
C1263 C 0.74974 0.41411 0.91956 0.0
C1264 C 0.7528 0.45701 0.929 0.0
C1265 C 0.75414 0.45404 0.96245 0.0
N1266 N 0.75935 0.42766 0.0059 0.0
N1267 N 0.75595 0.43882 0.87611 0.0
C1268 C 0.75372 0.43109 0.97424 0.0
C1269 C 0.75264 0.43675 0.9076 0.0
N1270 N 0.74125 0.39076 0.96365 0.0
N1271 N 0.75142 0.47914 0.91775 0.0
H1272 H 0.75578 0.42436 0.85992 0.0
H1273 H 0.76055 0.45453 0.86652 0.0
H1274 H 0.75227 0.49426 0.93281 0.0
H1275 H 0.74793 0.48249 0.89366 0.0
H1276 H 0.73759 0.3888 0.98721 0.0
H1277 H 0.73651 0.37612 0.94863 0.0
H1278 H 0.76144 0.41105 0.01517 0.0
H1279 H 0.76489 0.4412 0.02216 0.0
C1280 C 0.60248 0.31171 0.16323 0.0
C1281 C 0.62479 0.30102 0.16027 0.0
C1282 C 0.61004 0.28421 0.10756 0.0
C1283 C 0.58724 0.2929 0.11226 0.0
N1284 N 0.56052 0.30898 0.14877 0.0
N1285 N 0.64717 0.2714 0.13333 0.0
C1286 C 0.58303 0.30446 0.14169 0.0
C1287 C 0.62777 0.28545 0.13356 0.0
N1288 N 0.60008 0.33009 0.18474 0.0
N1289 N 0.61508 0.27561 0.07812 0.0
H1290 H 0.65994 0.27098 0.15268 0.0
H1291 H 0.64914 0.25841 0.11551 0.0
H1292 H 0.60269 0.27482 0.05827 0.0
H1293 H 0.6321 0.27123 0.07288 0.0
H1294 H 0.58453 0.33963 0.18555 0.0
H1295 H 0.61421 0.3377 0.199 0.0
H1296 H 0.55656 0.31572 0.17111 0.0
H1297 H 0.54583 0.30377 0.13345 0.0
C1298 C 0.7635 0.62702 0.1462 0.0
C1299 C 0.75074 0.64438 0.12877 0.0
C1300 C 0.74668 0.61712 0.08164 0.0
C1301 C 0.75656 0.59895 0.1004 0.0
N1302 N 0.76972 0.58544 0.15262 0.0
N1303 N 0.72577 0.65405 0.0816 0.0
C1304 C 0.7637 0.60354 0.13331 0.0
C1305 C 0.74121 0.63899 0.09682 0.0
N1306 N 0.776 0.63304 0.17467 0.0
N1307 N 0.74249 0.61347 0.04929 0.0
H1308 H 0.72025 0.66971 0.09232 0.0
H1309 H 0.71655 0.64986 0.05955 0.0
H1310 H 0.74613 0.59756 0.03745 0.0
H1311 H 0.73751 0.62684 0.034 0.0
H1312 H 0.78737 0.62148 0.18683 0.0
H1313 H 0.77691 0.65022 0.18443 0.0
H1314 H 0.77266 0.58764 0.17738 0.0
H1315 H 0.76969 0.56791 0.14428 0.0
C1316 C 0.42433 0.73221 0.15497 0.0
C1317 C 0.40279 0.74467 0.1505 0.0
C1318 C 0.41709 0.76372 0.10475 0.0
C1319 C 0.43917 0.75247 0.11069 0.0
N1320 N 0.46574 0.731 0.14649 0.0
N1321 N 0.38085 0.77638 0.1261 0.0
C1322 C 0.4434 0.73834 0.13749 0.0
C1323 C 0.39986 0.76175 0.12692 0.0
N1324 N 0.42624 0.7136 0.17444 0.0
N1325 N 0.41208 0.77529 0.07722 0.0
H1326 H 0.36812 0.77568 0.14234 0.0
H1327 H 0.37895 0.79063 0.11143 0.0
H1328 H 0.42409 0.77697 0.06018 0.0
H1329 H 0.39535 0.78152 0.07 0.0
H1330 H 0.44072 0.70241 0.17578 0.0
H1331 H 0.4125 0.70784 0.18687 0.0
H1332 H 0.47022 0.72257 0.16764 0.0
H1333 H 0.48022 0.73549 0.1345 0.0
C1334 C 0.27036 0.40726 0.12306 0.0
C1335 C 0.28978 0.40295 0.14554 0.0
C1336 C 0.30346 0.44336 0.14029 0.0
C1337 C 0.28678 0.44591 0.11346 0.0
N1338 N 0.25692 0.42741 0.07568 0.0
N1339 N 0.32744 0.41613 0.17134 0.0
C1340 C 0.27078 0.42714 0.10392 0.0
C1341 C 0.30702 0.42084 0.15323 0.0
N1342 N 0.25133 0.39251 0.12021 0.0
N1343 N 0.31555 0.46251 0.15393 0.0
H1344 H 0.33138 0.39966 0.18019 0.0
H1345 H 0.34147 0.42797 0.17482 0.0
H1346 H 0.31267 0.47945 0.14598 0.0
H1347 H 0.32639 0.46193 0.17521 0.0
H1348 H 0.23582 0.39606 0.1062 0.0
H1349 H 0.2501 0.37817 0.13456 0.0
H1350 H 0.2469 0.41297 0.06637 0.0
H1351 H 0.25725 0.44087 0.05982 0.0
C1352 C 0.41843 0.28532 0.16035 0.0
C1353 C 0.39814 0.2965 0.14612 0.0
C1354 C 0.41876 0.30405 0.09892 0.0
C1355 C 0.43964 0.29441 0.11409 0.0
N1356 N 0.46062 0.27933 0.16113 0.0
N1357 N 0.37992 0.32005 0.10456 0.0
C1358 C 0.43983 0.28594 0.14535 0.0
C1359 C 0.39858 0.30688 0.11616 0.0
N1360 N 0.41705 0.27367 0.18781 0.0
N1361 N 0.41793 0.30979 0.06762 0.0
H1362 H 0.36462 0.3223 0.11616 0.0
H1363 H 0.3803 0.33035 0.08479 0.0
H1364 H 0.43238 0.30851 0.05418 0.0
H1365 H 0.40243 0.31402 0.05409 0.0
H1366 H 0.4304 0.26298 0.19756 0.0
H1367 H 0.40179 0.2733 0.1997 0.0
H1368 H 0.46241 0.27533 0.18512 0.0
H1369 H 0.47663 0.27973 0.15098 0.0
C1370 C 0.72425 0.44357 0.20166 0.0
C1371 C 0.73538 0.4213 0.20165 0.0
C1372 C 0.76318 0.43564 0.16583 0.0
C1373 C 0.74904 0.45583 0.16075 0.0
N1374 N 0.71379 0.47751 0.1711 0.0
N1375 N 0.76374 0.39495 0.17961 0.0
C1376 C 0.72908 0.45962 0.17823 0.0
C1377 C 0.75463 0.41704 0.18297 0.0
N1378 N 0.70907 0.44934 0.22407 0.0
N1379 N 0.78475 0.43423 0.15417 0.0
H1380 H 0.75748 0.38044 0.19049 0.0
H1381 H 0.77604 0.39057 0.16349 0.0
H1382 H 0.79163 0.4478 0.14193 0.0
H1383 H 0.79667 0.42081 0.15959 0.0
H1384 H 0.70206 0.46613 0.22693 0.0
H1385 H 0.70552 0.43805 0.2419 0.0
H1386 H 0.6977 0.47936 0.18084 0.0
H1387 H 0.71601 0.48925 0.15333 0.0
C1388 C 0.6127 0.75628 0.13825 0.0
C1389 C 0.63206 0.74683 0.12303 0.0
C1390 C 0.60709 0.7416 0.0726 0.0
C1391 C 0.58736 0.74935 0.0884 0.0
N1392 N 0.57025 0.75968 0.13743 0.0
N1393 N 0.64652 0.72559 0.07785 0.0
C1394 C 0.58982 0.75534 0.12164 0.0
C1395 C 0.62892 0.73807 0.09077 0.0
N1396 N 0.61629 0.76689 0.1681 0.0
N1397 N 0.60511 0.73814 0.0401 0.0
H1398 H 0.66265 0.72225 0.09053 0.0
H1399 H 0.64435 0.71661 0.05565 0.0
H1400 H 0.58946 0.74066 0.02586 0.0
H1401 H 0.61944 0.73464 0.02699 0.0
H1402 H 0.60332 0.77627 0.17904 0.0
H1403 H 0.63283 0.76806 0.1809 0.0
H1404 H 0.57069 0.76175 0.1622 0.0
H1405 H 0.55324 0.75926 0.12594 0.0
C1406 C 0.30031 0.6037 0.16588 0.0
C1407 C 0.30427 0.62654 0.15517 0.0
C1408 C 0.29481 0.61221 0.09991 0.0
C1409 C 0.29375 0.58882 0.11002 0.0
N1410 N 0.29769 0.56173 0.15246 0.0
N1411 N 0.31135 0.65097 0.11155 0.0
C1412 C 0.29717 0.58437 0.14303 0.0
C1413 C 0.30335 0.63032 0.12204 0.0
N1414 N 0.29883 0.60061 0.19764 0.0
N1415 N 0.28684 0.61744 0.06951 0.0
H1416 H 0.31853 0.66453 0.12694 0.0
H1417 H 0.31326 0.65358 0.08756 0.0
H1418 H 0.27847 0.60515 0.05338 0.0
H1419 H 0.28549 0.63457 0.06185 0.0
H1420 H 0.29365 0.58486 0.20658 0.0
H1421 H 0.30102 0.61438 0.21488 0.0
H1422 H 0.30265 0.55719 0.17581 0.0
H1423 H 0.29454 0.5473 0.13643 0.0
C1424 C 0.41529 0.76334 0.89213 0.0
C1425 C 0.3963 0.75567 0.9087 0.0
C1426 C 0.42295 0.75267 0.95748 0.0
C1427 C 0.44228 0.75769 0.93992 0.0
N1428 N 0.45761 0.76511 0.88981 0.0
N1429 N 0.38256 0.73927 0.95564 0.0
C1430 C 0.43867 0.76231 0.907 0.0
C1431 C 0.40023 0.7494 0.94105 0.0
N1432 N 0.41089 0.77226 0.86257 0.0
N1433 N 0.42628 0.75142 0.98995 0.0
H1434 H 0.36573 0.7362 0.94435 0.0
H1435 H 0.38513 0.73199 0.97794 0.0
H1436 H 0.44272 0.75366 0.00277 0.0
H1437 H 0.41251 0.75026 0.00447 0.0
H1438 H 0.42368 0.78034 0.85064 0.0
H1439 H 0.39396 0.77345 0.85109 0.0
H1440 H 0.45625 0.7659 0.86504 0.0
H1441 H 0.47496 0.76494 0.90011 0.0
C1442 C 0.27289 0.42207 0.91676 0.0
C1443 C 0.28222 0.40432 0.93682 0.0
C1444 C 0.28732 0.43312 0.98201 0.0
C1445 C 0.28011 0.45124 0.96135 0.0
N1446 N 0.27006 0.4638 0.90787 0.0
N1447 N 0.30293 0.3938 0.98679 0.0
C1448 C 0.27399 0.44596 0.92833 0.0
C1449 C 0.29072 0.41008 0.96901 0.0
N1450 N 0.26242 0.41602 0.887 0.0
N1451 N 0.29054 0.4379 0.0142 0.0
H1452 H 0.3063 0.37684 0.97799 0.0
H1453 H 0.3117 0.39777 0.00919 0.0
H1454 H 0.28768 0.45454 0.02439 0.0
H1455 H 0.29374 0.42506 0.03087 0.0
H1456 H 0.25313 0.42788 0.87256 0.0
H1457 H 0.26131 0.39869 0.87779 0.0
H1458 H 0.26804 0.46114 0.88312 0.0
H1459 H 0.27066 0.4815 0.91551 0.0
C1460 C 0.64644 0.28123 0.93251 0.0
C1461 C 0.64736 0.29721 0.90772 0.0
C1462 C 0.6048 0.30318 0.90804 0.0
C1463 C 0.60493 0.29089 0.93667 0.0
N1464 N 0.62775 0.27204 0.97966 0.0
N1465 N 0.62758 0.32687 0.87581 0.0
C1466 C 0.62622 0.28077 0.94982 0.0
C1467 C 0.62655 0.30905 0.89631 0.0
N1468 N 0.66473 0.26625 0.93928 0.0
N1469 N 0.58394 0.30897 0.89179 0.0
H1470 H 0.64323 0.33267 0.86779 0.0
H1471 H 0.61319 0.3375 0.86942 0.0
H1472 H 0.56767 0.30428 0.89916 0.0
H1473 H 0.58289 0.31611 0.86933 0.0
H1474 H 0.664 0.25288 0.95529 0.0
H1475 H 0.6795 0.26553 0.92634 0.0
H1476 H 0.6436 0.26666 0.99135 0.0
H1477 H 0.61387 0.27249 0.99415 0.0
C1478 C 0.76138 0.63256 0.92478 0.0
C1479 C 0.74382 0.63071 0.89862 0.0
C1480 C 0.73648 0.58991 0.9112 0.0
C1481 C 0.75104 0.59312 0.94023 0.0
N1482 N 0.77414 0.61954 0.97743 0.0
N1483 N 0.71096 0.60883 0.87129 0.0
C1484 C 0.76275 0.61498 0.94779 0.0
C1485 C 0.73039 0.60966 0.89286 0.0
N1486 N 0.77706 0.65083 0.92735 0.0
N1487 N 0.72874 0.56792 0.90081 0.0
H1488 H 0.70491 0.62324 0.85854 0.0
H1489 H 0.69937 0.59458 0.86865 0.0
H1490 H 0.73343 0.5529 0.91316 0.0
H1491 H 0.71984 0.56439 0.87835 0.0
H1492 H 0.79154 0.6518 0.94436 0.0
H1493 H 0.777 0.66368 0.91045 0.0
H1494 H 0.78076 0.6361 0.98509 0.0
H1495 H 0.77498 0.60755 0.99546 0.0
loop_
_geom_bond_atom_site_label_1
_geom_bond_atom_site_label_2
_geom_bond_distance
_geom_bond_site_symmetry_2
_ccdc_geom_bond_type
H0 C27 0.929 . S
N1 C26 1.433 . S
N1 C32 1.435 . S
N1 C38 1.423 . S
H2 C28 0.930 . S
H3 C31 0.931 . S
H4 C30 0.929 . S
H5 C33 0.930 . S
H6 C34 0.932 . S
H7 C37 0.929 . S
H8 C36 0.931 . S
H9 C39 0.929 . S
H10 C43 0.932 . S
H11 C40 0.931 . S
H12 C42 0.929 . S
H13 C45 0.929 . S
H14 C46 0.930 . S
H15 C48 0.929 . S
H16 C49 0.931 . S
H17 C51 0.930 . S
H18 C52 0.932 . S
H19 C54 0.931 . S
H20 C55 0.929 . S
H21 C57 0.929 . S
H22 C58 0.931 . S
H23 C60 0.929 . S
N24 C44 1.433 . S
N24 C50 1.435 . S
N24 C56 1.423 . S
H25 C61 0.932 . S
C26 N1 1.433 . S
C26 C27 1.363 . S
C26 C31 1.370 . S
C27 H0 0.929 . S
C27 C26 1.363 . S
C27 C28 1.385 . S
C28 H2 0.930 . S
C28 C27 1.385 . S
C28 C29 1.357 . S
C29 C28 1.357 . S
C29 C30 1.406 . S
C30 H4 0.929 . S
C30 C29 1.406 . S
C30 C31 1.391 . S
C31 H3 0.931 . S
C31 C26 1.370 . S
C31 C30 1.391 . S
C32 N1 1.435 . S
C32 C33 1.358 . S
C32 C37 1.371 . S
C33 H5 0.930 . S
C33 C32 1.358 . S
C33 C34 1.405 . S
C34 H6 0.932 . S
C34 C33 1.405 . S
C34 C35 1.383 . S
C35 C34 1.383 . S
C35 C36 1.393 . S
C36 H8 0.931 . S
C36 C35 1.393 . S
C36 C37 1.382 . S
C37 H7 0.929 . S
C37 C32 1.371 . S
C37 C36 1.382 . S
C38 N1 1.423 . S
C38 C39 1.362 . S
C38 C43 1.388 . S
C39 H9 0.929 . S
C39 C38 1.362 . S
C39 C40 1.376 . S
C40 H11 0.931 . S
C40 C39 1.376 . S
C40 C41 1.396 . S
C41 C40 1.396 . S
C41 C42 1.348 . S
C41 C59 1.472 . S
C42 H12 0.929 . S
C42 C41 1.348 . S
C42 C43 1.443 . S
C43 H10 0.932 . S
C43 C38 1.388 . S
C43 C42 1.443 . S
C44 N24 1.433 . S
C44 C45 1.363 . S
C44 C49 1.370 . S
C45 H13 0.929 . S
C45 C44 1.363 . S
C45 C46 1.385 . S
C46 H14 0.930 . S
C46 C45 1.385 . S
C46 C47 1.357 . S
C47 C46 1.357 . S
C47 C48 1.406 . S
C48 H15 0.929 . S
C48 C47 1.406 . S
C48 C49 1.391 . S
C49 H16 0.931 . S
C49 C44 1.370 . S
C49 C48 1.391 . S
C50 N24 1.435 . S
C50 C51 1.358 . S
C50 C55 1.371 . S
C51 H17 0.930 . S
C51 C50 1.358 . S
C51 C52 1.405 . S
C52 H18 0.932 . S
C52 C51 1.405 . S
C52 C53 1.383 . S
C53 C52 1.383 . S
C53 C54 1.393 . S
C54 H19 0.931 . S
C54 C53 1.393 . S
C54 C55 1.382 . S
C55 H20 0.929 . S
C55 C50 1.371 . S
C55 C54 1.382 . S
C56 N24 1.423 . S
C56 C57 1.362 . S
C56 C61 1.388 . S
C57 H21 0.929 . S
C57 C56 1.362 . S
C57 C58 1.376 . S
C58 H22 0.931 . S
C58 C57 1.376 . S
C58 C59 1.396 . S
C59 C41 1.472 . S
C59 C58 1.396 . S
C59 C60 1.348 . S
C60 H23 0.929 . S
C60 C59 1.348 . S
C60 C61 1.443 . S
C61 H25 0.932 . S
C61 C56 1.388 . S
C61 C60 1.443 . S
H62 C89 0.929 . S
N63 C88 1.433 . S
N63 C94 1.435 . S
N63 C100 1.423 . S
H64 C90 0.930 . S
H65 C93 0.931 . S
H66 C92 0.929 . S
H67 C95 0.930 . S
H68 C96 0.932 . S
H69 C99 0.929 . S
H70 C98 0.931 . S
H71 C101 0.929 . S
H72 C105 0.932 . S
H73 C102 0.931 . S
H74 C104 0.929 . S
H75 C107 0.929 . S
H76 C108 0.930 . S
H77 C110 0.929 . S
H78 C111 0.931 . S
H79 C113 0.930 . S
H80 C114 0.932 . S
H81 C116 0.931 . S
H82 C117 0.929 . S
H83 C119 0.929 . S
H84 C120 0.931 . S
H85 C122 0.929 . S
N86 C106 1.433 . S
N86 C112 1.435 . S
N86 C118 1.423 . S
H87 C123 0.932 . S
C88 N63 1.433 . S
C88 C89 1.363 . S
C88 C93 1.370 . S
C89 H62 0.929 . S
C89 C88 1.363 . S
C89 C90 1.385 . S
C90 H64 0.930 . S
C90 C89 1.385 . S
C90 C91 1.357 . S
C91 C90 1.357 . S
C91 C92 1.406 . S
C92 H66 0.929 . S
C92 C91 1.406 . S
C92 C93 1.391 . S
C93 H65 0.931 . S
C93 C88 1.370 . S
C93 C92 1.391 . S
C94 N63 1.435 . S
C94 C95 1.358 . S
C94 C99 1.371 . S
C95 H67 0.930 . S
C95 C94 1.358 . S
C95 C96 1.405 . S
C96 H68 0.932 . S
C96 C95 1.405 . S
C96 C97 1.383 . S
C97 C96 1.383 . S
C97 C98 1.393 . S
C98 H70 0.931 . S
C98 C97 1.393 . S
C98 C99 1.382 . S
C99 H69 0.929 . S
C99 C94 1.371 . S
C99 C98 1.382 . S
C100 N63 1.423 . S
C100 C101 1.362 . S
C100 C105 1.388 . S
C101 H71 0.929 . S
C101 C100 1.362 . S
C101 C102 1.376 . S
C102 H73 0.931 . S
C102 C101 1.376 . S
C102 C103 1.396 . S
C103 C102 1.396 . S
C103 C104 1.348 . S
C103 C121 1.472 . S
C104 H74 0.929 . S
C104 C103 1.348 . S
C104 C105 1.443 . S
C105 H72 0.932 . S
C105 C100 1.388 . S
C105 C104 1.443 . S
C106 N86 1.433 . S
C106 C107 1.363 . S
C106 C111 1.370 . S
C107 H75 0.929 . S
C107 C106 1.363 . S
C107 C108 1.385 . S
C108 H76 0.930 . S
C108 C107 1.385 . S
C108 C109 1.357 . S
C109 C108 1.357 . S
C109 C110 1.406 . S
C110 H77 0.929 . S
C110 C109 1.406 . S
C110 C111 1.391 . S
C111 H78 0.931 . S
C111 C106 1.370 . S
C111 C110 1.391 . S
C112 N86 1.435 . S
C112 C113 1.358 . S
C112 C117 1.371 . S
C113 H79 0.930 . S
C113 C112 1.358 . S
C113 C114 1.405 . S
C114 H80 0.932 . S
C114 C113 1.405 . S
C114 C115 1.383 . S
C115 C114 1.383 . S
C115 C116 1.393 . S
C116 H81 0.931 . S
C116 C115 1.393 . S
C116 C117 1.382 . S
C117 H82 0.929 . S
C117 C112 1.371 . S
C117 C116 1.382 . S
C118 N86 1.423 . S
C118 C119 1.362 . S
C118 C123 1.388 . S
C119 H83 0.929 . S
C119 C118 1.362 . S
C119 C120 1.376 . S
C120 H84 0.931 . S
C120 C119 1.376 . S
C120 C121 1.396 . S
C121 C103 1.472 . S
C121 C120 1.396 . S
C121 C122 1.348 . S
C122 H85 0.929 . S
C122 C121 1.348 . S
C122 C123 1.443 . S
C123 H87 0.932 . S
C123 C118 1.388 . S
C123 C122 1.443 . S
H124 C151 0.929 . S
N125 C150 1.433 . S
N125 C156 1.435 . S
N125 C162 1.423 . S
H126 C152 0.930 . S
H127 C155 0.931 . S
H128 C154 0.929 . S
H129 C157 0.930 . S
H130 C158 0.932 . S
H131 C161 0.929 . S
H132 C160 0.931 . S
H133 C163 0.929 . S
H134 C167 0.932 . S
H135 C164 0.931 . S
H136 C166 0.929 . S
H137 C169 0.929 . S
H138 C170 0.930 . S
H139 C172 0.929 . S
H140 C173 0.931 . S
H141 C175 0.930 . S
H142 C176 0.932 . S
H143 C178 0.931 . S
H144 C179 0.929 . S
H145 C181 0.929 . S
H146 C182 0.931 . S
H147 C184 0.929 . S
N148 C168 1.433 . S
N148 C174 1.435 . S
N148 C180 1.423 . S
H149 C185 0.932 . S
C150 N125 1.433 . S
C150 C151 1.363 . S
C150 C155 1.370 . S
C151 H124 0.929 . S
C151 C150 1.363 . S
C151 C152 1.385 . S
C152 H126 0.930 . S
C152 C151 1.385 . S
C152 C153 1.357 . S
C153 C152 1.357 . S
C153 C154 1.406 . S
C154 H128 0.929 . S
C154 C153 1.406 . S
C154 C155 1.391 . S
C155 H127 0.931 . S
C155 C150 1.370 . S
C155 C154 1.391 . S
C156 N125 1.435 . S
C156 C157 1.358 . S
C156 C161 1.371 . S
C157 H129 0.930 . S
C157 C156 1.358 . S
C157 C158 1.405 . S
C158 H130 0.932 . S
C158 C157 1.405 . S
C158 C159 1.383 . S
C159 C158 1.383 . S
C159 C160 1.393 . S
C160 H132 0.931 . S
C160 C159 1.393 . S
C160 C161 1.382 . S
C161 H131 0.929 . S
C161 C156 1.371 . S
C161 C160 1.382 . S
C162 N125 1.423 . S
C162 C163 1.362 . S
C162 C167 1.388 . S
C163 H133 0.929 . S
C163 C162 1.362 . S
C163 C164 1.376 . S
C164 H135 0.931 . S
C164 C163 1.376 . S
C164 C165 1.396 . S
C165 C164 1.396 . S
C165 C166 1.348 . S
C165 C183 1.472 . S
C166 H136 0.929 . S
C166 C165 1.348 . S
C166 C167 1.443 . S
C167 H134 0.932 . S
C167 C162 1.388 . S
C167 C166 1.443 . S
C168 N148 1.433 . S
C168 C169 1.363 . S
C168 C173 1.370 . S
C169 H137 0.929 . S
C169 C168 1.363 . S
C169 C170 1.385 . S
C170 H138 0.930 . S
C170 C169 1.385 . S
C170 C171 1.357 . S
C171 C170 1.357 . S
C171 C172 1.406 . S
C172 H139 0.929 . S
C172 C171 1.406 . S
C172 C173 1.391 . S
C173 H140 0.931 . S
C173 C168 1.370 . S
C173 C172 1.391 . S
C174 N148 1.435 . S
C174 C175 1.358 . S
C174 C179 1.371 . S
C175 H141 0.930 . S
C175 C174 1.358 . S
C175 C176 1.405 . S
C176 H142 0.932 . S
C176 C175 1.405 . S
C176 C177 1.383 . S
C177 C176 1.383 . S
C177 C178 1.393 . S
C178 H143 0.931 . S
C178 C177 1.393 . S
C178 C179 1.382 . S
C179 H144 0.929 . S
C179 C174 1.371 . S
C179 C178 1.382 . S
C180 N148 1.423 . S
C180 C181 1.362 . S
C180 C185 1.388 . S
C181 H145 0.929 . S
C181 C180 1.362 . S
C181 C182 1.376 . S
C182 H146 0.931 . S
C182 C181 1.376 . S
C182 C183 1.396 . S
C183 C165 1.472 . S
C183 C182 1.396 . S
C183 C184 1.348 . S
C184 H147 0.929 . S
C184 C183 1.348 . S
C184 C185 1.443 . S
C185 H149 0.932 . S
C185 C180 1.388 . S
C185 C184 1.443 . S
H186 C213 0.929 . S
N187 C212 1.433 . S
N187 C218 1.435 . S
N187 C224 1.423 . S
H188 C214 0.930 . S
H189 C217 0.931 . S
H190 C216 0.929 . S
H191 C219 0.930 . S
H192 C220 0.932 . S
H193 C223 0.929 . S
H194 C222 0.931 . S
H195 C225 0.929 . S
H196 C229 0.932 . S
H197 C226 0.931 . S
H198 C228 0.929 . S
H199 C231 0.929 . S
H200 C232 0.930 . S
H201 C234 0.929 . S
H202 C235 0.931 . S
H203 C237 0.930 . S
H204 C238 0.932 . S
H205 C240 0.931 . S
H206 C241 0.929 . S
H207 C243 0.929 . S
H208 C244 0.931 . S
H209 C246 0.929 . S
N210 C230 1.433 . S
N210 C236 1.435 . S
N210 C242 1.423 . S
H211 C247 0.932 . S
C212 N187 1.433 . S
C212 C213 1.363 . S
C212 C217 1.370 . S
C213 H186 0.929 . S
C213 C212 1.363 . S
C213 C214 1.385 . S
C214 H188 0.930 . S
C214 C213 1.385 . S
C214 C215 1.357 . S
C215 C214 1.357 . S
C215 C216 1.406 . S
C216 H190 0.929 . S
C216 C215 1.406 . S
C216 C217 1.391 . S
C217 H189 0.931 . S
C217 C212 1.370 . S
C217 C216 1.391 . S
C218 N187 1.435 . S
C218 C219 1.358 . S
C218 C223 1.371 . S
C219 H191 0.930 . S
C219 C218 1.358 . S
C219 C220 1.405 . S
C220 H192 0.932 . S
C220 C219 1.405 . S
C220 C221 1.383 . S
C221 C220 1.383 . S
C221 C222 1.393 . S
C222 H194 0.931 . S
C222 C221 1.393 . S
C222 C223 1.382 . S
C223 H193 0.929 . S
C223 C218 1.371 . S
C223 C222 1.382 . S
C224 N187 1.423 . S
C224 C225 1.362 . S
C224 C229 1.388 . S
C225 H195 0.929 . S
C225 C224 1.362 . S
C225 C226 1.376 . S
C226 H197 0.931 . S
C226 C225 1.376 . S
C226 C227 1.396 . S
C227 C226 1.396 . S
C227 C228 1.348 . S
C227 C245 1.472 . S
C228 H198 0.929 . S
C228 C227 1.348 . S
C228 C229 1.443 . S
C229 H196 0.932 . S
C229 C224 1.388 . S
C229 C228 1.443 . S
C230 N210 1.433 . S
C230 C231 1.363 . S
C230 C235 1.370 . S
C231 H199 0.929 . S
C231 C230 1.363 . S
C231 C232 1.385 . S
C232 H200 0.930 . S
C232 C231 1.385 . S
C232 C233 1.357 . S
C233 C232 1.357 . S
C233 C234 1.406 . S
C234 H201 0.929 . S
C234 C233 1.406 . S
C234 C235 1.391 . S
C235 H202 0.931 . S
C235 C230 1.370 . S
C235 C234 1.391 . S
C236 N210 1.435 . S
C236 C237 1.358 . S
C236 C241 1.371 . S
C237 H203 0.930 . S
C237 C236 1.358 . S
C237 C238 1.405 . S
C238 H204 0.932 . S
C238 C237 1.405 . S
C238 C239 1.383 . S
C239 C238 1.383 . S
C239 C240 1.393 . S
C240 H205 0.931 . S
C240 C239 1.393 . S
C240 C241 1.382 . S
C241 H206 0.929 . S
C241 C236 1.371 . S
C241 C240 1.382 . S
C242 N210 1.423 . S
C242 C243 1.362 . S
C242 C247 1.388 . S
C243 H207 0.929 . S
C243 C242 1.362 . S
C243 C244 1.376 . S
C244 H208 0.931 . S
C244 C243 1.376 . S
C244 C245 1.396 . S
C245 C227 1.472 . S
C245 C244 1.396 . S
C245 C246 1.348 . S
C246 H209 0.929 . S
C246 C245 1.348 . S
C246 C247 1.443 . S
C247 H211 0.932 . S
C247 C242 1.388 . S
C247 C246 1.443 . S
H248 C275 0.929 . S
N249 C274 1.433 . S
N249 C280 1.435 . S
N249 C286 1.423 . S
H250 C276 0.930 . S
H251 C279 0.931 . S
H252 C278 0.929 . S
H253 C281 0.930 . S
H254 C282 0.932 . S
H255 C285 0.929 . S
H256 C284 0.931 . S
H257 C287 0.929 . S
H258 C291 0.932 . S
H259 C288 0.931 . S
H260 C290 0.929 . S
H261 C293 0.929 . S
H262 C294 0.930 . S
H263 C296 0.929 . S
H264 C297 0.931 . S
H265 C299 0.930 . S
H266 C300 0.932 . S
H267 C302 0.931 . S
H268 C303 0.929 . S
H269 C305 0.929 . S
H270 C306 0.931 . S
H271 C308 0.929 . S
N272 C292 1.433 . S
N272 C298 1.435 . S
N272 C304 1.423 . S
H273 C309 0.932 . S
C274 N249 1.433 . S
C274 C275 1.363 . S
C274 C279 1.370 . S
C275 H248 0.929 . S
C275 C274 1.363 . S
C275 C276 1.385 . S
C276 H250 0.930 . S
C276 C275 1.385 . S
C276 C277 1.357 . S
C277 C276 1.357 . S
C277 C278 1.406 . S
C278 H252 0.929 . S
C278 C277 1.406 . S
C278 C279 1.391 . S
C279 H251 0.931 . S
C279 C274 1.370 . S
C279 C278 1.391 . S
C280 N249 1.435 . S
C280 C281 1.358 . S
C280 C285 1.371 . S
C281 H253 0.930 . S
C281 C280 1.358 . S
C281 C282 1.405 . S
C282 H254 0.932 . S
C282 C281 1.405 . S
C282 C283 1.383 . S
C283 C282 1.383 . S
C283 C284 1.393 . S
C284 H256 0.931 . S
C284 C283 1.393 . S
C284 C285 1.382 . S
C285 H255 0.929 . S
C285 C280 1.371 . S
C285 C284 1.382 . S
C286 N249 1.423 . S
C286 C287 1.362 . S
C286 C291 1.388 . S
C287 H257 0.929 . S
C287 C286 1.362 . S
C287 C288 1.376 . S
C288 H259 0.931 . S
C288 C287 1.376 . S
C288 C289 1.396 . S
C289 C288 1.396 . S
C289 C290 1.348 . S
C289 C307 1.472 . S
C290 H260 0.929 . S
C290 C289 1.348 . S
C290 C291 1.443 . S
C291 H258 0.932 . S
C291 C286 1.388 . S
C291 C290 1.443 . S
C292 N272 1.433 . S
C292 C293 1.363 . S
C292 C297 1.370 . S
C293 H261 0.929 . S
C293 C292 1.363 . S
C293 C294 1.385 . S
C294 H262 0.930 . S
C294 C293 1.385 . S
C294 C295 1.357 . S
C295 C294 1.357 . S
C295 C296 1.406 . S
C296 H263 0.929 . S
C296 C295 1.406 . S
C296 C297 1.391 . S
C297 H264 0.931 . S
C297 C292 1.370 . S
C297 C296 1.391 . S
C298 N272 1.435 . S
C298 C299 1.358 . S
C298 C303 1.371 . S
C299 H265 0.930 . S
C299 C298 1.358 . S
C299 C300 1.405 . S
C300 H266 0.932 . S
C300 C299 1.405 . S
C300 C301 1.383 . S
C301 C300 1.383 . S
C301 C302 1.393 . S
C302 H267 0.931 . S
C302 C301 1.393 . S
C302 C303 1.382 . S
C303 H268 0.929 . S
C303 C298 1.371 . S
C303 C302 1.382 . S
C304 N272 1.423 . S
C304 C305 1.362 . S
C304 C309 1.388 . S
C305 H269 0.929 . S
C305 C304 1.362 . S
C305 C306 1.376 . S
C306 H270 0.931 . S
C306 C305 1.376 . S
C306 C307 1.396 . S
C307 C289 1.472 . S
C307 C306 1.396 . S
C307 C308 1.348 . S
C308 H271 0.929 . S
C308 C307 1.348 . S
C308 C309 1.443 . S
C309 H273 0.932 . S
C309 C304 1.388 . S
C309 C308 1.443 . S
H310 C337 0.929 . S
N311 C336 1.433 . S
N311 C342 1.435 . S
N311 C348 1.423 . S
H312 C338 0.930 . S
H313 C341 0.931 . S
H314 C340 0.929 . S
H315 C343 0.930 . S
H316 C344 0.932 . S
H317 C347 0.929 . S
H318 C346 0.931 . S
H319 C349 0.929 . S
H320 C353 0.932 . S
H321 C350 0.931 . S
H322 C352 0.929 . S
H323 C355 0.929 . S
H324 C356 0.930 . S
H325 C358 0.929 . S
H326 C359 0.931 . S
H327 C361 0.930 . S
H328 C362 0.932 . S
H329 C364 0.931 . S
H330 C365 0.929 . S
H331 C367 0.929 . S
H332 C368 0.931 . S
H333 C370 0.929 . S
N334 C354 1.433 . S
N334 C360 1.435 . S
N334 C366 1.423 . S
H335 C371 0.932 . S
C336 N311 1.433 . S
C336 C337 1.363 . S
C336 C341 1.370 . S
C337 H310 0.929 . S
C337 C336 1.363 . S
C337 C338 1.385 . S
C338 H312 0.930 . S
C338 C337 1.385 . S
C338 C339 1.357 . S
C339 C338 1.357 . S
C339 C340 1.406 . S
C340 H314 0.929 . S
C340 C339 1.406 . S
C340 C341 1.391 . S
C341 H313 0.931 . S
C341 C336 1.370 . S
C341 C340 1.391 . S
C342 N311 1.435 . S
C342 C343 1.358 . S
C342 C347 1.371 . S
C343 H315 0.930 . S
C343 C342 1.358 . S
C343 C344 1.405 . S
C344 H316 0.932 . S
C344 C343 1.405 . S
C344 C345 1.383 . S
C345 C344 1.383 . S
C345 C346 1.393 . S
C346 H318 0.931 . S
C346 C345 1.393 . S
C346 C347 1.382 . S
C347 H317 0.929 . S
C347 C342 1.371 . S
C347 C346 1.382 . S
C348 N311 1.423 . S
C348 C349 1.362 . S
C348 C353 1.388 . S
C349 H319 0.929 . S
C349 C348 1.362 . S
C349 C350 1.376 . S
C350 H321 0.931 . S
C350 C349 1.376 . S
C350 C351 1.396 . S
C351 C350 1.396 . S
C351 C352 1.348 . S
C351 C369 1.472 . S
C352 H322 0.929 . S
C352 C351 1.348 . S
C352 C353 1.443 . S
C353 H320 0.932 . S
C353 C348 1.388 . S
C353 C352 1.443 . S
C354 N334 1.433 . S
C354 C355 1.363 . S
C354 C359 1.370 . S
C355 H323 0.929 . S
C355 C354 1.363 . S
C355 C356 1.385 . S
C356 H324 0.930 . S
C356 C355 1.385 . S
C356 C357 1.357 . S
C357 C356 1.357 . S
C357 C358 1.406 . S
C358 H325 0.929 . S
C358 C357 1.406 . S
C358 C359 1.391 . S
C359 H326 0.931 . S
C359 C354 1.370 . S
C359 C358 1.391 . S
C360 N334 1.435 . S
C360 C361 1.358 . S
C360 C365 1.371 . S
C361 H327 0.930 . S
C361 C360 1.358 . S
C361 C362 1.405 . S
C362 H328 0.932 . S
C362 C361 1.405 . S
C362 C363 1.383 . S
C363 C362 1.383 . S
C363 C364 1.393 . S
C364 H329 0.931 . S
C364 C363 1.393 . S
C364 C365 1.382 . S
C365 H330 0.929 . S
C365 C360 1.371 . S
C365 C364 1.382 . S
C366 N334 1.423 . S
C366 C367 1.362 . S
C366 C371 1.388 . S
C367 H331 0.929 . S
C367 C366 1.362 . S
C367 C368 1.376 . S
C368 H332 0.931 . S
C368 C367 1.376 . S
C368 C369 1.396 . S
C369 C351 1.472 . S
C369 C368 1.396 . S
C369 C370 1.348 . S
C370 H333 0.929 . S
C370 C369 1.348 . S
C370 C371 1.443 . S
C371 H335 0.932 . S
C371 C366 1.388 . S
C371 C370 1.443 . S
H372 C399 0.929 . S
N373 C398 1.433 . S
N373 C404 1.435 . S
N373 C410 1.423 . S
H374 C400 0.930 . S
H375 C403 0.931 . S
H376 C402 0.929 . S
H377 C405 0.930 . S
H378 C406 0.932 . S
H379 C409 0.929 . S
H380 C408 0.931 . S
H381 C411 0.929 . S
H382 C415 0.932 . S
H383 C412 0.931 . S
H384 C414 0.929 . S
H385 C417 0.929 . S
H386 C418 0.930 . S
H387 C420 0.929 . S
H388 C421 0.931 . S
H389 C423 0.930 . S
H390 C424 0.932 . S
H391 C426 0.931 . S
H392 C427 0.929 . S
H393 C429 0.929 . S
H394 C430 0.931 . S
H395 C432 0.929 . S
N396 C416 1.433 . S
N396 C422 1.435 . S
N396 C428 1.423 . S
H397 C433 0.932 . S
C398 N373 1.433 . S
C398 C399 1.363 . S
C398 C403 1.370 . S
C399 H372 0.929 . S
C399 C398 1.363 . S
C399 C400 1.385 . S
C400 H374 0.930 . S
C400 C399 1.385 . S
C400 C401 1.357 . S
C401 C400 1.357 . S
C401 C402 1.406 . S
C402 H376 0.929 . S
C402 C401 1.406 . S
C402 C403 1.391 . S
C403 H375 0.931 . S
C403 C398 1.370 . S
C403 C402 1.391 . S
C404 N373 1.435 . S
C404 C405 1.358 . S
C404 C409 1.371 . S
C405 H377 0.930 . S
C405 C404 1.358 . S
C405 C406 1.405 . S
C406 H378 0.932 . S
C406 C405 1.405 . S
C406 C407 1.383 . S
C407 C406 1.383 . S
C407 C408 1.393 . S
C408 H380 0.931 . S
C408 C407 1.393 . S
C408 C409 1.382 . S
C409 H379 0.929 . S
C409 C404 1.371 . S
C409 C408 1.382 . S
C410 N373 1.423 . S
C410 C411 1.362 . S
C410 C415 1.388 . S
C411 H381 0.929 . S
C411 C410 1.362 . S
C411 C412 1.376 . S
C412 H383 0.931 . S
C412 C411 1.376 . S
C412 C413 1.396 . S
C413 C412 1.396 . S
C413 C414 1.348 . S
C413 C431 1.472 . S
C414 H384 0.929 . S
C414 C413 1.348 . S
C414 C415 1.443 . S
C415 H382 0.932 . S
C415 C410 1.388 . S
C415 C414 1.443 . S
C416 N396 1.433 . S
C416 C417 1.363 . S
C416 C421 1.370 . S
C417 H385 0.929 . S
C417 C416 1.363 . S
C417 C418 1.385 . S
C418 H386 0.930 . S
C418 C417 1.385 . S
C418 C419 1.357 . S
C419 C418 1.357 . S
C419 C420 1.406 . S
C420 H387 0.929 . S
C420 C419 1.406 . S
C420 C421 1.391 . S
C421 H388 0.931 . S
C421 C416 1.370 . S
C421 C420 1.391 . S
C422 N396 1.435 . S
C422 C423 1.358 . S
C422 C427 1.371 . S
C423 H389 0.930 . S
C423 C422 1.358 . S
C423 C424 1.405 . S
C424 H390 0.932 . S
C424 C423 1.405 . S
C424 C425 1.383 . S
C425 C424 1.383 . S
C425 C426 1.393 . S
C426 H391 0.931 . S
C426 C425 1.393 . S
C426 C427 1.382 . S
C427 H392 0.929 . S
C427 C422 1.371 . S
C427 C426 1.382 . S
C428 N396 1.423 . S
C428 C429 1.362 . S
C428 C433 1.388 . S
C429 H393 0.929 . S
C429 C428 1.362 . S
C429 C430 1.376 . S
C430 H394 0.931 . S
C430 C429 1.376 . S
C430 C431 1.396 . S
C431 C413 1.472 . S
C431 C430 1.396 . S
C431 C432 1.348 . S
C432 H395 0.929 . S
C432 C431 1.348 . S
C432 C433 1.443 . S
C433 H397 0.932 . S
C433 C428 1.388 . S
C433 C432 1.443 . S
H434 C461 0.929 . S
N435 C460 1.433 . S
N435 C466 1.435 . S
N435 C472 1.423 . S
H436 C462 0.930 . S
H437 C465 0.931 . S
H438 C464 0.929 . S
H439 C467 0.930 . S
H440 C468 0.932 . S
H441 C471 0.929 . S
H442 C470 0.931 . S
H443 C473 0.929 . S
H444 C477 0.932 . S
H445 C474 0.931 . S
H446 C476 0.929 . S
H447 C479 0.929 . S
H448 C480 0.930 . S
H449 C482 0.929 . S
H450 C483 0.931 . S
H451 C485 0.930 . S
H452 C486 0.932 . S
H453 C488 0.931 . S
H454 C489 0.929 . S
H455 C491 0.929 . S
H456 C492 0.931 . S
H457 C494 0.929 . S
N458 C478 1.433 . S
N458 C484 1.435 . S
N458 C490 1.423 . S
H459 C495 0.932 . S
C460 N435 1.433 . S
C460 C461 1.363 . S
C460 C465 1.370 . S
C461 H434 0.929 . S
C461 C460 1.363 . S
C461 C462 1.385 . S
C462 H436 0.930 . S
C462 C461 1.385 . S
C462 C463 1.357 . S
C463 C462 1.357 . S
C463 C464 1.406 . S
C464 H438 0.929 . S
C464 C463 1.406 . S
C464 C465 1.391 . S
C465 H437 0.931 . S
C465 C460 1.370 . S
C465 C464 1.391 . S
C466 N435 1.435 . S
C466 C467 1.358 . S
C466 C471 1.371 . S
C467 H439 0.930 . S
C467 C466 1.358 . S
C467 C468 1.405 . S
C468 H440 0.932 . S
C468 C467 1.405 . S
C468 C469 1.383 . S
C469 C468 1.383 . S
C469 C470 1.393 . S
C470 H442 0.931 . S
C470 C469 1.393 . S
C470 C471 1.382 . S
C471 H441 0.929 . S
C471 C466 1.371 . S
C471 C470 1.382 . S
C472 N435 1.423 . S
C472 C473 1.362 . S
C472 C477 1.388 . S
C473 H443 0.929 . S
C473 C472 1.362 . S
C473 C474 1.376 . S
C474 H445 0.931 . S
C474 C473 1.376 . S
C474 C475 1.396 . S
C475 C474 1.396 . S
C475 C476 1.348 . S
C475 C493 1.472 . S
C476 H446 0.929 . S
C476 C475 1.348 . S
C476 C477 1.443 . S
C477 H444 0.932 . S
C477 C472 1.388 . S
C477 C476 1.443 . S
C478 N458 1.433 . S
C478 C479 1.363 . S
C478 C483 1.370 . S
C479 H447 0.929 . S
C479 C478 1.363 . S
C479 C480 1.385 . S
C480 H448 0.930 . S
C480 C479 1.385 . S
C480 C481 1.357 . S
C481 C480 1.357 . S
C481 C482 1.406 . S
C482 H449 0.929 . S
C482 C481 1.406 . S
C482 C483 1.391 . S
C483 H450 0.931 . S
C483 C478 1.370 . S
C483 C482 1.391 . S
C484 N458 1.435 . S
C484 C485 1.358 . S
C484 C489 1.371 . S
C485 H451 0.930 . S
C485 C484 1.358 . S
C485 C486 1.405 . S
C486 H452 0.932 . S
C486 C485 1.405 . S
C486 C487 1.383 . S
C487 C486 1.383 . S
C487 C488 1.393 . S
C488 H453 0.931 . S
C488 C487 1.393 . S
C488 C489 1.382 . S
C489 H454 0.929 . S
C489 C484 1.371 . S
C489 C488 1.382 . S
C490 N458 1.423 . S
C490 C491 1.362 . S
C490 C495 1.388 . S
C491 H455 0.929 . S
C491 C490 1.362 . S
C491 C492 1.376 . S
C492 H456 0.931 . S
C492 C491 1.376 . S
C492 C493 1.396 . S
C493 C475 1.472 . S
C493 C492 1.396 . S
C493 C494 1.348 . S
C494 H457 0.929 . S
C494 C493 1.348 . S
C494 C495 1.443 . S
C495 H459 0.932 . S
C495 C490 1.388 . S
C495 C494 1.443 . S
C496 C497 1.443 . S
C496 N500 1.376 . S
C496 C534 1.389 . S
C497 C496 1.443 . S
C497 C498 1.340 . S
C497 H537 0.951 . S
C498 C497 1.340 . S
C498 C499 1.439 . S
C498 H538 0.950 . S
C499 C498 1.439 . S
C499 N500 1.374 . S
C499 C533 1.395 . S
N500 C496 1.376 . S
N500 C499 1.374 . S
N500 Co501 2.008 . S
Co501 N500 2.008 . S
Co501 N502 1.995 1_455 S
Co501 N507 2.008 1_455 S
Co501 N512 1.995 . S
Co501 N517 2.282 1_455 S
Co501 N523 2.282 . S
N502 Co501 1.995 1_655 S
N502 C503 1.375 . S
N502 C506 1.383 . S
C503 N502 1.375 . S
C503 C504 1.443 . S
C503 C533 1.394 1_655 S
C504 C503 1.443 . S
C504 C505 1.339 . S
C504 H539 0.949 . S
C505 C504 1.339 . S
C505 C506 1.439 . S
C505 H540 0.950 . S
C506 N502 1.383 . S
C506 C505 1.439 . S
C506 C535 1.392 . S
N507 Co501 2.008 1_655 S
N507 C508 1.376 . S
N507 C511 1.374 . S
C508 N507 1.376 . S
C508 C509 1.443 . S
C508 C535 1.389 . S
C509 C508 1.443 . S
C509 C510 1.340 . S
C509 H541 0.951 . S
C510 C509 1.340 . S
C510 C511 1.439 . S
C510 H542 0.950 . S
C511 N507 1.374 . S
C511 C510 1.439 . S
C511 C536 1.395 1_655 S
N512 Co501 1.995 . S
N512 C513 1.376 . S
N512 C516 1.383 . S
C513 N512 1.376 . S
C513 C514 1.446 . S
C513 C536 1.391 . S
C514 C513 1.446 . S
C514 C515 1.339 . S
C514 H543 0.949 . S
C515 C514 1.339 . S
C515 C516 1.439 . S
C515 H544 0.950 . S
C516 N512 1.383 . S
C516 C515 1.439 . S
C516 C534 1.392 . S
N517 Co501 2.282 1_655 S
N517 C520 1.332 . S
N517 C522 1.332 . S
C518 C519 1.386 . S
C518 C521 1.388 . S
C519 C518 1.386 . S
C519 C520 1.382 . S
C519 H545 0.950 . S
C520 N517 1.332 . S
C520 C519 1.382 . S
C520 H531 0.952 . S
C521 C518 1.388 . S
C521 C522 1.382 . S
C521 H546 0.950 . S
C522 N517 1.332 . S
C522 C521 1.382 . S
C522 H532 0.948 . S
N523 Co501 2.282 . S
N523 C527 1.332 . S
N523 C528 1.332 . S
C524 C525 1.388 . S
C524 C528 1.382 . S
C524 H547 0.950 . S
C525 C524 1.388 . S
C525 C526 1.386 . S
C526 C525 1.386 . S
C526 C527 1.382 . S
C526 H548 0.950 . S
C527 N523 1.332 . S
C527 C526 1.382 . S
C527 H529 0.952 . S
C528 N523 1.332 . S
C528 C524 1.382 . S
C528 H530 0.948 . S
H529 C527 0.952 . S
H530 C528 0.948 . S
H531 C520 0.952 . S
H532 C522 0.948 . S
C533 C499 1.395 . S
C533 C503 1.394 1_455 S
C534 C496 1.389 . S
C534 C516 1.392 . S
C535 C506 1.392 . S
C535 C508 1.389 . S
C536 C511 1.395 1_455 S
C536 C513 1.391 . S
H537 C497 0.951 . S
H538 C498 0.950 . S
H539 C504 0.949 . S
H540 C505 0.950 . S
H541 C509 0.951 . S
H542 C510 0.950 . S
H543 C514 0.949 . S
H544 C515 0.950 . S
H545 C519 0.950 . S
H546 C521 0.950 . S
H547 C524 0.950 . S
H548 C526 0.950 . S
C549 C550 1.443 . S
C549 N553 1.376 . S
C549 C587 1.389 . S
C550 C549 1.443 . S
C550 C551 1.340 . S
C550 H590 0.951 . S
C551 C550 1.340 . S
C551 C552 1.439 . S
C551 H591 0.950 . S
C552 C551 1.439 . S
C552 N553 1.374 . S
C552 C586 1.395 . S
N553 C549 1.376 . S
N553 C552 1.374 . S
N553 Co554 2.008 . S
Co554 N553 2.008 . S
Co554 N555 1.995 1_545 S
Co554 N560 2.008 1_545 S
Co554 N565 1.995 . S
Co554 N570 2.282 1_545 S
Co554 N576 2.282 . S
N555 Co554 1.995 1_565 S
N555 C556 1.376 1_565 S
N555 C559 1.383 . S
C556 N555 1.376 1_545 S
C556 C557 1.446 1_545 S
C556 C586 1.391 . S
C557 C556 1.446 1_565 S
C557 C558 1.339 . S
C557 H592 0.949 . S
C558 C557 1.339 . S
C558 C559 1.439 . S
C558 H593 0.950 . S
C559 N555 1.383 . S
C559 C558 1.439 . S
C559 C588 1.392 . S
N560 Co554 2.008 1_565 S
N560 C561 1.376 . S
N560 C564 1.374 . S
C561 N560 1.376 . S
C561 C562 1.443 . S
C561 C588 1.389 . S
C562 C561 1.443 . S
C562 C563 1.340 . S
C562 H594 0.951 . S
C563 C562 1.340 . S
C563 C564 1.439 . S
C563 H595 0.950 . S
C564 N560 1.374 . S
C564 C563 1.439 . S
C564 C589 1.395 1_565 S
N565 Co554 1.995 . S
N565 C566 1.376 . S
N565 C569 1.383 . S
C566 N565 1.376 . S
C566 C567 1.446 . S
C566 C589 1.391 . S
C567 C566 1.446 . S
C567 C568 1.339 . S
C567 H596 0.949 . S
C568 C567 1.339 . S
C568 C569 1.439 . S
C568 H597 0.950 . S
C569 N565 1.383 . S
C569 C568 1.439 . S
C569 C587 1.392 . S
N570 Co554 2.282 1_565 S
N570 C573 1.332 . S
N570 C575 1.332 . S
C571 C572 1.386 . S
C571 C574 1.388 . S
C572 C571 1.386 . S
C572 C573 1.382 . S
C572 H598 0.950 . S
C573 N570 1.332 . S
C573 C572 1.382 . S
C573 H584 0.952 . S
C574 C571 1.388 . S
C574 C575 1.382 . S
C574 H599 0.950 . S
C575 N570 1.332 . S
C575 C574 1.382 . S
C575 H585 0.948 . S
N576 Co554 2.282 . S
N576 C580 1.332 . S
N576 C581 1.332 . S
C577 C578 1.388 . S
C577 C581 1.382 . S
C577 H600 0.950 . S
C578 C577 1.388 . S
C578 C579 1.386 . S
C579 C578 1.386 . S
C579 C580 1.382 . S
C579 H601 0.950 . S
C580 N576 1.332 . S
C580 C579 1.382 . S
C580 H582 0.952 . S
C581 N576 1.332 . S
C581 C577 1.382 . S
C581 H583 0.948 . S
H582 C580 0.952 . S
H583 C581 0.948 . S
H584 C573 0.952 . S
H585 C575 0.948 . S
C586 C552 1.395 . S
C586 C556 1.391 . S
C587 C549 1.389 . S
C587 C569 1.392 . S
C588 C559 1.392 . S
C588 C561 1.389 . S
C589 C564 1.395 1_545 S
C589 C566 1.391 . S
H590 C550 0.951 . S
H591 C551 0.950 . S
H592 C557 0.949 . S
H593 C558 0.950 . S
H594 C562 0.951 . S
H595 C563 0.950 . S
H596 C567 0.949 . S
H597 C568 0.950 . S
H598 C572 0.950 . S
H599 C574 0.950 . S
H600 C577 0.950 . S
H601 C579 0.950 . S
C602 C603 1.443 . S
C602 N606 1.376 . S
C602 C640 1.389 . S
C603 C602 1.443 . S
C603 C604 1.340 . S
C603 H643 0.951 . S
C604 C603 1.340 . S
C604 C605 1.439 . S
C604 H644 0.950 . S
C605 C604 1.439 . S
C605 N606 1.374 . S
C605 C639 1.395 . S
N606 C602 1.376 . S
N606 C605 1.374 . S
N606 Co607 2.008 . S
Co607 N606 2.008 . S
Co607 N608 1.995 1_455 S
Co607 N613 2.008 1_455 S
Co607 N618 1.995 . S
Co607 N623 2.282 1_455 S
Co607 N629 2.282 . S
N608 Co607 1.995 1_655 S
N608 C609 1.376 . S
N608 C612 1.383 . S
C609 N608 1.376 . S
C609 C610 1.446 . S
C609 C639 1.391 1_655 S
C610 C609 1.446 . S
C610 C611 1.339 . S
C610 H645 0.949 . S
C611 C610 1.339 . S
C611 C612 1.439 . S
C611 H646 0.950 . S
C612 N608 1.383 . S
C612 C611 1.439 . S
C612 C641 1.392 . S
N613 Co607 2.008 1_655 S
N613 C614 1.376 . S
N613 C617 1.374 . S
C614 N613 1.376 . S
C614 C615 1.443 . S
C614 C641 1.389 . S
C615 C614 1.443 . S
C615 C616 1.340 . S
C615 H647 0.951 . S
C616 C615 1.340 . S
C616 C617 1.439 . S
C616 H648 0.950 . S
C617 N613 1.374 . S
C617 C616 1.439 . S
C617 C642 1.395 1_655 S
N618 Co607 1.995 . S
N618 C619 1.376 . S
N618 C622 1.383 . S
C619 N618 1.376 . S
C619 C620 1.446 . S
C619 C642 1.391 . S
C620 C619 1.446 . S
C620 C621 1.339 . S
C620 H649 0.949 . S
C621 C620 1.339 . S
C621 C622 1.439 . S
C621 H650 0.950 . S
C622 N618 1.383 . S
C622 C621 1.439 . S
C622 C640 1.392 . S
N623 Co607 2.282 1_655 S
N623 C626 1.332 . S
N623 C628 1.332 . S
C624 C625 1.386 . S
C624 C627 1.388 . S
C625 C624 1.386 . S
C625 C626 1.382 . S
C625 H651 0.950 . S
C626 N623 1.332 . S
C626 C625 1.382 . S
C626 H637 0.952 . S
C627 C624 1.388 . S
C627 C628 1.382 . S
C627 H652 0.950 . S
C628 N623 1.332 . S
C628 C627 1.382 . S
C628 H638 0.948 . S
N629 Co607 2.282 . S
N629 C633 1.332 . S
N629 C634 1.332 . S
C630 C631 1.388 . S
C630 C634 1.382 . S
C630 H653 0.950 . S
C631 C630 1.388 . S
C631 C632 1.386 . S
C632 C631 1.386 . S
C632 C633 1.382 . S
C632 H654 0.950 . S
C633 N629 1.332 . S
C633 C632 1.382 . S
C633 H635 0.952 . S
C634 N629 1.332 . S
C634 C630 1.382 . S
C634 H636 0.948 . S
H635 C633 0.952 . S
H636 C634 0.948 . S
H637 C626 0.952 . S
H638 C628 0.948 . S
C639 C605 1.395 . S
C639 C609 1.391 1_455 S
C640 C602 1.389 . S
C640 C622 1.392 . S
C641 C612 1.392 . S
C641 C614 1.389 . S
C642 C617 1.395 1_455 S
C642 C619 1.391 . S
H643 C603 0.951 . S
H644 C604 0.950 . S
H645 C610 0.949 . S
H646 C611 0.950 . S
H647 C615 0.951 . S
H648 C616 0.950 . S
H649 C620 0.949 . S
H650 C621 0.950 . S
H651 C625 0.950 . S
H652 C627 0.950 . S
H653 C630 0.950 . S
H654 C632 0.950 . S
C655 C656 1.443 . S
C655 N659 1.376 . S
C655 C693 1.389 . S
C656 C655 1.443 . S
C656 C657 1.340 . S
C656 H696 0.951 . S
C657 C656 1.340 . S
C657 C658 1.439 . S
C657 H697 0.950 . S
C658 C657 1.439 . S
C658 N659 1.374 . S
C658 C692 1.395 1_565 S
N659 C655 1.376 . S
N659 C658 1.374 . S
N659 Co660 2.008 1_565 S
Co660 N659 2.008 1_545 S
Co660 N661 1.995 . S
Co660 N666 2.008 . S
Co660 N671 1.995 1_545 S
Co660 N676 2.282 . S
Co660 N682 2.282 1_545 S
N661 Co660 1.995 . S
N661 C662 1.376 . S
N661 C665 1.383 . S
C662 N661 1.376 . S
C662 C663 1.446 . S
C662 C692 1.391 . S
C663 C662 1.446 . S
C663 C664 1.339 . S
C663 H698 0.949 . S
C664 C663 1.339 . S
C664 C665 1.439 . S
C664 H699 0.950 . S
C665 N661 1.383 . S
C665 C664 1.439 . S
C665 C694 1.392 . S
N666 Co660 2.008 . S
N666 C667 1.376 . S
N666 C670 1.374 . S
C667 N666 1.376 . S
C667 C668 1.443 . S
C667 C694 1.389 . S
C668 C667 1.443 . S
C668 C669 1.340 . S
C668 H700 0.951 . S
C669 C668 1.340 . S
C669 C670 1.439 . S
C669 H701 0.950 . S
C670 N666 1.374 . S
C670 C669 1.439 . S
C670 C695 1.395 . S
N671 Co660 1.995 1_565 S
N671 C672 1.376 1_565 S
N671 C675 1.383 . S
C672 N671 1.376 1_545 S
C672 C673 1.446 1_545 S
C672 C695 1.391 . S
C673 C672 1.446 1_565 S
C673 C674 1.339 . S
C673 H702 0.949 . S
C674 C673 1.339 . S
C674 C675 1.439 . S
C674 H703 0.950 . S
C675 N671 1.383 . S
C675 C674 1.439 . S
C675 C693 1.392 . S
N676 Co660 2.282 . S
N676 C679 1.332 . S
N676 C681 1.332 . S
C677 C678 1.386 . S
C677 C680 1.388 . S
C678 C677 1.386 . S
C678 C679 1.382 . S
C678 H704 0.950 . S
C679 N676 1.332 . S
C679 C678 1.382 . S
C679 H690 0.952 . S
C680 C677 1.388 . S
C680 C681 1.382 . S
C680 H705 0.950 . S
C681 N676 1.332 . S
C681 C680 1.382 . S
C681 H691 0.948 . S
N682 Co660 2.282 1_565 S
N682 C686 1.332 . S
N682 C687 1.332 . S
C683 C684 1.388 . S
C683 C687 1.382 . S
C683 H706 0.950 . S
C684 C683 1.388 . S
C684 C685 1.386 . S
C685 C684 1.386 . S
C685 C686 1.382 . S
C685 H707 0.950 . S
C686 N682 1.332 . S
C686 C685 1.382 . S
C686 H688 0.952 . S
C687 N682 1.332 . S
C687 C683 1.382 . S
C687 H689 0.948 . S
H688 C686 0.952 . S
H689 C687 0.948 . S
H690 C679 0.952 . S
H691 C681 0.948 . S
C692 C658 1.395 1_545 S
C692 C662 1.391 . S
C693 C655 1.389 . S
C693 C675 1.392 . S
C694 C665 1.392 . S
C694 C667 1.389 . S
C695 C670 1.395 . S
C695 C672 1.391 . S
H696 C656 0.951 . S
H697 C657 0.950 . S
H698 C663 0.949 . S
H699 C664 0.950 . S
H700 C668 0.951 . S
H701 C669 0.950 . S
H702 C673 0.949 . S
H703 C674 0.950 . S
H704 C678 0.950 . S
H705 C680 0.950 . S
H706 C683 0.950 . S
H707 C685 0.950 . S
C708 C709 1.443 . S
C708 N712 1.376 . S
C708 C746 1.389 . S
C709 C708 1.443 . S
C709 C710 1.340 . S
C709 H749 0.951 . S
C710 C709 1.340 . S
C710 C711 1.439 . S
C710 H750 0.950 . S
C711 C710 1.439 . S
C711 N712 1.374 . S
C711 C745 1.383 1_554 S
N712 C708 1.376 . S
N712 C711 1.374 . S
N712 Co713 2.008 . S
Co713 N712 2.008 . S
Co713 N714 1.995 1_554 S
Co713 N719 2.008 1_554 S
Co713 N724 1.995 . S
Co713 N729 2.282 . S
Co713 N735 2.282 1_554 S
N714 Co713 1.995 1_556 S
N714 C715 1.376 . S
N714 C718 1.383 . S
C715 N714 1.376 . S
C715 C716 1.446 . S
C715 C745 1.402 . S
C716 C715 1.446 . S
C716 C717 1.339 . S
C716 H751 0.949 . S
C717 C716 1.339 . S
C717 C718 1.439 . S
C717 H752 0.950 . S
C718 N714 1.383 . S
C718 C717 1.439 . S
C718 C747 1.392 . S
N719 Co713 2.008 1_556 S
N719 C720 1.376 . S
N719 C723 1.374 . S
C720 N719 1.376 . S
C720 C721 1.443 . S
C720 C747 1.389 . S
C721 C720 1.443 . S
C721 C722 1.340 . S
C721 H753 0.951 . S
C722 C721 1.340 . S
C722 C723 1.439 . S
C722 H754 0.950 . S
C723 N719 1.374 . S
C723 C722 1.439 . S
C723 C748 1.379 1_556 S
N724 Co713 1.995 . S
N724 C725 1.376 . S
N724 C728 1.383 . S
C725 N724 1.376 . S
C725 C726 1.446 . S
C725 C748 1.406 . S
C726 C725 1.446 . S
C726 C727 1.339 . S
C726 H755 0.949 . S
C727 C726 1.339 . S
C727 C728 1.439 . S
C727 H756 0.950 . S
C728 N724 1.383 . S
C728 C727 1.439 . S
C728 C746 1.392 . S
N729 Co713 2.282 . S
N729 C732 1.332 . S
N729 C734 1.332 . S
C730 C731 1.386 . S
C730 C733 1.388 . S
C731 C730 1.386 . S
C731 C732 1.382 . S
C731 H757 0.950 . S
C732 N729 1.332 . S
C732 C731 1.382 . S
C732 H743 0.952 . S
C733 C730 1.388 . S
C733 C734 1.382 . S
C733 H758 0.950 . S
C734 N729 1.332 . S
C734 C733 1.382 . S
C734 H744 0.948 . S
N735 Co713 2.282 1_556 S
N735 C739 1.332 . S
N735 C740 1.332 . S
C736 C737 1.388 . S
C736 C740 1.382 . S
C736 H759 0.950 . S
C737 C736 1.388 . S
C737 C738 1.386 . S
C738 C737 1.386 . S
C738 C739 1.382 . S
C738 H760 0.950 . S
C739 N735 1.332 . S
C739 C738 1.382 . S
C739 H741 0.952 . S
C740 N735 1.332 . S
C740 C736 1.382 . S
C740 H742 0.948 . S
H741 C739 0.952 . S
H742 C740 0.948 . S
H743 C732 0.952 . S
H744 C734 0.948 . S
C745 C711 1.383 1_556 S
C745 C715 1.402 . S
C746 C708 1.389 . S
C746 C728 1.392 . S
C747 C718 1.392 . S
C747 C720 1.389 . S
C748 C723 1.379 1_554 S
C748 C725 1.406 . S
H749 C709 0.951 . S
H750 C710 0.950 . S
H751 C716 0.949 . S
H752 C717 0.950 . S
H753 C721 0.951 . S
H754 C722 0.950 . S
H755 C726 0.949 . S
H756 C727 0.950 . S
H757 C731 0.950 . S
H758 C733 0.950 . S
H759 C736 0.950 . S
H760 C738 0.950 . S
C761 C762 1.443 . S
C761 N765 1.376 . S
C761 C799 1.389 . S
C762 C761 1.443 . S
C762 C763 1.340 . S
C762 H802 0.951 . S
C763 C762 1.340 . S
C763 C764 1.439 . S
C763 H803 0.950 . S
C764 C763 1.439 . S
C764 N765 1.374 . S
C764 C798 1.395 . S
N765 C761 1.376 . S
N765 C764 1.374 . S
N765 Co766 2.008 . S
Co766 N765 2.008 . S
Co766 N767 1.995 . S
Co766 N772 2.008 . S
Co766 N777 1.995 . S
Co766 N782 2.282 . S
Co766 N788 2.282 . S
N767 Co766 1.995 . S
N767 C768 1.376 . S
N767 C771 1.383 1_554 S
C768 N767 1.376 . S
C768 C769 1.446 1_554 S
C768 C798 1.391 . S
C769 C768 1.446 1_556 S
C769 C770 1.339 . S
C769 H804 0.949 . S
C770 C769 1.339 . S
C770 C771 1.439 . S
C770 H805 0.950 . S
C771 N767 1.383 1_556 S
C771 C770 1.439 . S
C771 C800 1.392 . S
N772 Co766 2.008 . S
N772 C773 1.376 . S
N772 C776 1.374 . S
C773 N772 1.376 . S
C773 C774 1.443 . S
C773 C800 1.389 1_554 S
C774 C773 1.443 . S
C774 C775 1.340 . S
C774 H806 0.951 1_554 S
C775 C774 1.340 . S
C775 C776 1.439 . S
C775 H807 0.950 . S
C776 N772 1.374 . S
C776 C775 1.439 . S
C776 C801 1.395 . S
N777 Co766 1.995 . S
N777 C778 1.376 . S
N777 C781 1.383 . S
C778 N777 1.376 . S
C778 C779 1.446 . S
C778 C801 1.391 . S
C779 C778 1.446 . S
C779 C780 1.339 . S
C779 H808 0.949 . S
C780 C779 1.339 . S
C780 C781 1.439 . S
C780 H809 0.950 . S
C781 N777 1.383 . S
C781 C780 1.439 . S
C781 C799 1.392 . S
N782 Co766 2.282 . S
N782 C785 1.332 . S
N782 C787 1.332 . S
C783 C784 1.386 . S
C783 C786 1.388 . S
C784 C783 1.386 . S
C784 C785 1.382 . S
C784 H810 0.950 . S
C785 N782 1.332 . S
C785 C784 1.382 . S
C785 H796 0.952 . S
C786 C783 1.388 . S
C786 C787 1.382 . S
C786 H811 0.950 . S
C787 N782 1.332 . S
C787 C786 1.382 . S
C787 H797 0.948 . S
N788 Co766 2.282 . S
N788 C792 1.332 1_554 S
N788 C793 1.332 . S
C789 C790 1.388 . S
C789 C793 1.382 1_556 S
C789 H812 0.950 . S
C790 C789 1.388 . S
C790 C791 1.386 . S
C791 C790 1.386 . S
C791 C792 1.382 . S
C791 H813 0.950 . S
C792 N788 1.332 1_556 S
C792 C791 1.382 . S
C792 H794 0.952 . S
C793 N788 1.332 . S
C793 C789 1.382 1_554 S
C793 H795 0.948 . S
H794 C792 0.952 . S
H795 C793 0.948 . S
H796 C785 0.952 . S
H797 C787 0.948 . S
C798 C764 1.395 . S
C798 C768 1.391 . S
C799 C761 1.389 . S
C799 C781 1.392 . S
C800 C771 1.392 . S
C800 C773 1.389 1_556 S
C801 C776 1.395 . S
C801 C778 1.391 . S
H802 C762 0.951 . S
H803 C763 0.950 . S
H804 C769 0.949 . S
H805 C770 0.950 . S
H806 C774 0.951 1_556 S
H807 C775 0.950 . S
H808 C779 0.949 . S
H809 C780 0.950 . S
H810 C784 0.950 . S
H811 C786 0.950 . S
H812 C789 0.950 . S
H813 C791 0.950 . S
C814 C815 1.443 . S
C814 N818 1.376 1_556 S
C814 C852 1.389 . S
C815 C814 1.443 . S
C815 C816 1.340 1_556 S
C815 H855 0.951 . S
C816 C815 1.340 1_554 S
C816 C817 1.439 . S
C816 H856 0.950 . S
C817 C816 1.439 . S
C817 N818 1.374 . S
C817 C851 1.395 . S
N818 C814 1.376 1_554 S
N818 C817 1.374 . S
N818 Co819 2.008 . S
Co819 N818 2.008 . S
Co819 N820 1.995 . S
Co819 N825 2.008 . S
Co819 N830 1.995 . S
Co819 N835 2.282 1_554 S
Co819 N841 2.282 . S
N820 Co819 1.995 . S
N820 C821 1.376 . S
N820 C824 1.383 . S
C821 N820 1.376 . S
C821 C822 1.446 . S
C821 C851 1.391 . S
C822 C821 1.446 . S
C822 C823 1.339 . S
C822 H857 0.949 . S
C823 C822 1.339 . S
C823 C824 1.439 . S
C823 H858 0.950 . S
C824 N820 1.383 . S
C824 C823 1.439 . S
C824 C853 1.392 . S
N825 Co819 2.008 . S
N825 C826 1.376 . S
N825 C829 1.374 . S
C826 N825 1.376 . S
C826 C827 1.443 . S
C826 C853 1.389 . S
C827 C826 1.443 . S
C827 C828 1.340 . S
C827 H859 0.951 . S
C828 C827 1.340 . S
C828 C829 1.439 . S
C828 H860 0.950 . S
C829 N825 1.374 . S
C829 C828 1.439 . S
C829 C854 1.395 . S
N830 Co819 1.995 . S
N830 C831 1.376 . S
N830 C834 1.383 1_554 S
C831 N830 1.376 . S
C831 C832 1.446 1_554 S
C831 C854 1.391 . S
C832 C831 1.446 1_556 S
C832 C833 1.339 . S
C832 H861 0.949 . S
C833 C832 1.339 . S
C833 C834 1.439 . S
C833 H862 0.950 . S
C834 N830 1.383 1_556 S
C834 C833 1.439 . S
C834 C852 1.392 . S
N835 Co819 2.282 1_556 S
N835 C838 1.332 . S
N835 C840 1.332 . S
C836 C837 1.386 . S
C836 C839 1.388 . S
C837 C836 1.386 . S
C837 C838 1.382 . S
C837 H863 0.950 . S
C838 N835 1.332 . S
C838 C837 1.382 . S
C838 H849 0.952 . S
C839 C836 1.388 . S
C839 C840 1.382 . S
C839 H864 0.950 . S
C840 N835 1.332 . S
C840 C839 1.382 . S
C840 H850 0.948 1_556 S
N841 Co819 2.282 . S
N841 C845 1.332 . S
N841 C846 1.332 . S
C842 C843 1.388 . S
C842 C846 1.382 . S
C842 H865 0.950 . S
C843 C842 1.388 . S
C843 C844 1.386 . S
C844 C843 1.386 . S
C844 C845 1.382 . S
C844 H866 0.950 . S
C845 N841 1.332 . S
C845 C844 1.382 . S
C845 H847 0.952 . S
C846 N841 1.332 . S
C846 C842 1.382 . S
C846 H848 0.948 . S
H847 C845 0.952 . S
H848 C846 0.948 . S
H849 C838 0.952 . S
H850 C840 0.948 1_554 S
C851 C817 1.395 . S
C851 C821 1.391 . S
C852 C814 1.389 . S
C852 C834 1.392 . S
C853 C824 1.392 . S
C853 C826 1.389 . S
C854 C829 1.395 . S
C854 C831 1.391 . S
H855 C815 0.951 . S
H856 C816 0.950 . S
H857 C822 0.949 . S
H858 C823 0.950 . S
H859 C827 0.951 . S
H860 C828 0.950 . S
H861 C832 0.949 . S
H862 C833 0.950 . S
H863 C837 0.950 . S
H864 C839 0.950 . S
H865 C842 0.950 . S
H866 C844 0.950 . S
C867 C868 1.443 . S
C867 N871 1.376 . S
C867 C905 1.389 . S
C868 C867 1.443 . S
C868 C869 1.340 . S
C868 H908 0.951 . S
C869 C868 1.340 . S
C869 C870 1.439 . S
C869 H909 0.950 . S
C870 C869 1.439 . S
C870 N871 1.374 . S
C870 C904 1.395 . S
N871 C867 1.376 . S
N871 C870 1.374 . S
N871 Co872 2.008 . S
Co872 N871 2.008 . S
Co872 N873 1.995 . S
Co872 N878 2.008 . S
Co872 N883 1.995 . S
Co872 N888 2.282 . S
Co872 N894 2.282 1_554 S
N873 Co872 1.995 . S
N873 C874 1.376 1_554 S
N873 C877 1.383 1_554 S
C874 N873 1.376 1_556 S
C874 C875 1.446 . S
C874 C904 1.391 1_556 S
C875 C874 1.446 . S
C875 C876 1.339 . S
C875 H910 0.949 . S
C876 C875 1.339 . S
C876 C877 1.439 . S
C876 H911 0.950 . S
C877 N873 1.383 1_556 S
C877 C876 1.439 . S
C877 C906 1.392 . S
N878 Co872 2.008 . S
N878 C879 1.376 1_554 S
N878 C882 1.374 . S
C879 N878 1.376 1_556 S
C879 C880 1.443 . S
C879 C906 1.389 . S
C880 C879 1.443 . S
C880 C881 1.340 1_556 S
C880 H912 0.951 . S
C881 C880 1.340 1_554 S
C881 C882 1.439 . S
C881 H913 0.950 . S
C882 N878 1.374 . S
C882 C881 1.439 . S
C882 C907 1.395 . S
N883 Co872 1.995 . S
N883 C884 1.376 . S
N883 C887 1.383 . S
C884 N883 1.376 . S
C884 C885 1.446 . S
C884 C907 1.391 . S
C885 C884 1.446 . S
C885 C886 1.339 . S
C885 H914 0.949 . S
C886 C885 1.339 . S
C886 C887 1.439 . S
C886 H915 0.950 . S
C887 N883 1.383 . S
C887 C886 1.439 . S
C887 C905 1.392 . S
N888 Co872 2.282 . S
N888 C891 1.332 . S
N888 C893 1.332 . S
C889 C890 1.386 . S
C889 C892 1.388 . S
C890 C889 1.386 . S
C890 C891 1.382 . S
C890 H916 0.950 . S
C891 N888 1.332 . S
C891 C890 1.382 . S
C891 H902 0.952 . S
C892 C889 1.388 . S
C892 C893 1.382 . S
C892 H917 0.950 . S
C893 N888 1.332 . S
C893 C892 1.382 . S
C893 H903 0.948 . S
N894 Co872 2.282 1_556 S
N894 C898 1.332 . S
N894 C899 1.332 . S
C895 C896 1.388 . S
C895 C899 1.382 . S
C895 H918 0.950 . S
C896 C895 1.388 . S
C896 C897 1.386 . S
C897 C896 1.386 . S
C897 C898 1.382 . S
C897 H919 0.950 . S
C898 N894 1.332 . S
C898 C897 1.382 . S
C898 H900 0.952 . S
C899 N894 1.332 . S
C899 C895 1.382 . S
C899 H901 0.948 1_556 S
H900 C898 0.952 . S
H901 C899 0.948 1_554 S
H902 C891 0.952 . S
H903 C893 0.948 . S
C904 C870 1.395 . S
C904 C874 1.391 1_554 S
C905 C867 1.389 . S
C905 C887 1.392 . S
C906 C877 1.392 . S
C906 C879 1.389 . S
C907 C882 1.395 . S
C907 C884 1.391 . S
H908 C868 0.951 . S
H909 C869 0.950 . S
H910 C875 0.949 . S
H911 C876 0.950 . S
H912 C880 0.951 . S
H913 C881 0.950 . S
H914 C885 0.949 . S
H915 C886 0.950 . S
H916 C890 0.950 . S
H917 C892 0.950 . S
H918 C895 0.950 . S
H919 C897 0.950 . S
C920 C921 1.363 . S
C920 C926 1.379 . S
C920 N928 1.356 . S
C921 C920 1.363 . S
C921 C927 1.363 . S
C922 C923 1.363 . S
C922 C927 1.379 . S
C922 N929 1.356 . S
C923 C922 1.363 . S
C923 C926 1.363 . S
N924 C926 1.356 . S
N924 H936 0.984 . S
N924 H937 0.985 . S
N925 C927 1.356 . S
N925 H930 0.984 . S
N925 H931 0.985 . S
C926 C920 1.379 . S
C926 C923 1.363 . S
C926 N924 1.356 . S
C927 C921 1.363 . S
C927 C922 1.379 . S
C927 N925 1.356 . S
N928 C920 1.356 . S
N928 H934 0.984 . S
N928 H935 0.984 . S
N929 C922 1.356 . S
N929 H932 0.984 . S
N929 H933 0.985 . S
H930 N925 0.984 . S
H931 N925 0.985 . S
H932 N929 0.984 . S
H933 N929 0.985 . S
H934 N928 0.984 . S
H935 N928 0.984 . S
H936 N924 0.984 . S
H937 N924 0.985 . S
C938 C939 1.363 . S
C938 C944 1.379 . S
C938 N946 1.356 . S
C939 C938 1.363 . S
C939 C945 1.363 . S
C940 C941 1.363 . S
C940 C945 1.379 . S
C940 N947 1.356 . S
C941 C940 1.363 . S
C941 C944 1.363 . S
N942 C944 1.356 . S
N942 H954 0.984 . S
N942 H955 0.985 . S
N943 C945 1.356 . S
N943 H948 0.984 . S
N943 H949 0.985 . S
C944 C938 1.379 . S
C944 C941 1.363 . S
C944 N942 1.356 . S
C945 C939 1.363 . S
C945 C940 1.379 . S
C945 N943 1.356 . S
N946 C938 1.356 . S
N946 H952 0.984 . S
N946 H953 0.984 . S
N947 C940 1.356 . S
N947 H950 0.984 . S
N947 H951 0.985 . S
H948 N943 0.984 . S
H949 N943 0.985 . S
H950 N947 0.984 . S
H951 N947 0.985 . S
H952 N946 0.984 . S
H953 N946 0.984 . S
H954 N942 0.984 . S
H955 N942 0.985 . S
C956 C957 1.363 . S
C956 C962 1.379 . S
C956 N964 1.356 . S
C957 C956 1.363 . S
C957 C963 1.363 . S
C958 C959 1.363 . S
C958 C963 1.379 . S
C958 N965 1.356 . S
C959 C958 1.363 . S
C959 C962 1.363 . S
N960 C962 1.356 . S
N960 H972 0.984 . S
N960 H973 0.985 . S
N961 C963 1.356 . S
N961 H966 0.984 . S
N961 H967 0.985 . S
C962 C956 1.379 . S
C962 C959 1.363 . S
C962 N960 1.356 . S
C963 C957 1.363 . S
C963 C958 1.379 . S
C963 N961 1.356 . S
N964 C956 1.356 . S
N964 H970 0.984 . S
N964 H971 0.984 . S
N965 C958 1.356 . S
N965 H968 0.984 . S
N965 H969 0.985 . S
H966 N961 0.984 . S
H967 N961 0.985 . S
H968 N965 0.984 . S
H969 N965 0.985 . S
H970 N964 0.984 . S
H971 N964 0.984 . S
H972 N960 0.984 . S
H973 N960 0.985 . S
C974 C975 1.363 . S
C974 C980 1.379 . S
C974 N982 1.356 . S
C975 C974 1.363 . S
C975 C981 1.363 . S
C976 C977 1.363 . S
C976 C981 1.379 . S
C976 N983 1.356 . S
C977 C976 1.363 . S
C977 C980 1.363 . S
N978 C980 1.356 . S
N978 H990 0.984 . S
N978 H991 0.985 . S
N979 C981 1.356 . S
N979 H984 0.984 . S
N979 H985 0.985 . S
C980 C974 1.379 . S
C980 C977 1.363 . S
C980 N978 1.356 . S
C981 C975 1.363 . S
C981 C976 1.379 . S
C981 N979 1.356 . S
N982 C974 1.356 . S
N982 H988 0.984 . S
N982 H989 0.984 . S
N983 C976 1.356 . S
N983 H986 0.984 . S
N983 H987 0.985 . S
H984 N979 0.984 . S
H985 N979 0.985 . S
H986 N983 0.984 . S
H987 N983 0.985 . S
H988 N982 0.984 . S
H989 N982 0.984 . S
H990 N978 0.984 . S
H991 N978 0.985 . S
C992 C993 1.363 . S
C992 C998 1.379 . S
C992 N1000 1.356 . S
C993 C992 1.363 . S
C993 C999 1.363 . S
C994 C995 1.363 . S
C994 C999 1.379 . S
C994 N1001 1.356 . S
C995 C994 1.363 . S
C995 C998 1.363 . S
N996 C998 1.356 . S
N996 H1008 0.984 . S
N996 H1009 0.985 . S
N997 C999 1.356 . S
N997 H1002 0.984 . S
N997 H1003 0.985 . S
C998 C992 1.379 . S
C998 C995 1.363 . S
C998 N996 1.356 . S
C999 C993 1.363 . S
C999 C994 1.379 . S
C999 N997 1.356 . S
N1000 C992 1.356 . S
N1000 H1006 0.984 . S
N1000 H1007 0.984 . S
N1001 C994 1.356 . S
N1001 H1004 0.984 . S
N1001 H1005 0.985 . S
H1002 N997 0.984 . S
H1003 N997 0.985 . S
H1004 N1001 0.984 . S
H1005 N1001 0.985 . S
H1006 N1000 0.984 . S
H1007 N1000 0.984 . S
H1008 N996 0.984 . S
H1009 N996 0.985 . S
C1010 C1011 1.363 . S
C1010 C1016 1.379 . S
C1010 N1018 1.356 . S
C1011 C1010 1.363 . S
C1011 C1017 1.363 . S
C1012 C1013 1.363 . S
C1012 C1017 1.379 . S
C1012 N1019 1.356 . S
C1013 C1012 1.363 . S
C1013 C1016 1.363 . S
N1014 C1016 1.356 . S
N1014 H1026 0.984 . S
N1014 H1027 0.985 . S
N1015 C1017 1.356 . S
N1015 H1020 0.984 . S
N1015 H1021 0.985 . S
C1016 C1010 1.379 . S
C1016 C1013 1.363 . S
C1016 N1014 1.356 . S
C1017 C1011 1.363 . S
C1017 C1012 1.379 . S
C1017 N1015 1.356 . S
N1018 C1010 1.356 . S
N1018 H1024 0.984 . S
N1018 H1025 0.984 . S
N1019 C1012 1.356 . S
N1019 H1022 0.984 . S
N1019 H1023 0.985 . S
H1020 N1015 0.984 . S
H1021 N1015 0.985 . S
H1022 N1019 0.984 . S
H1023 N1019 0.985 . S
H1024 N1018 0.984 . S
H1025 N1018 0.984 . S
H1026 N1014 0.984 . S
H1027 N1014 0.985 . S
C1028 C1029 1.363 . S
C1028 C1034 1.379 . S
C1028 N1036 1.356 . S
C1029 C1028 1.363 . S
C1029 C1035 1.363 . S
C1030 C1031 1.363 . S
C1030 C1035 1.379 . S
C1030 N1037 1.356 . S
C1031 C1030 1.363 . S
C1031 C1034 1.363 . S
N1032 C1034 1.356 . S
N1032 H1044 0.984 . S
N1032 H1045 0.985 . S
N1033 C1035 1.356 . S
N1033 H1038 0.984 . S
N1033 H1039 0.985 . S
C1034 C1028 1.379 . S
C1034 C1031 1.363 . S
C1034 N1032 1.356 . S
C1035 C1029 1.363 . S
C1035 C1030 1.379 . S
C1035 N1033 1.356 . S
N1036 C1028 1.356 . S
N1036 H1042 0.984 . S
N1036 H1043 0.984 . S
N1037 C1030 1.356 . S
N1037 H1040 0.984 . S
N1037 H1041 0.985 . S
H1038 N1033 0.984 . S
H1039 N1033 0.985 . S
H1040 N1037 0.984 . S
H1041 N1037 0.985 . S
H1042 N1036 0.984 . S
H1043 N1036 0.984 . S
H1044 N1032 0.984 . S
H1045 N1032 0.985 . S
C1046 C1047 1.363 . S
C1046 C1052 1.379 . S
C1046 N1054 1.356 . S
C1047 C1046 1.363 . S
C1047 C1053 1.363 . S
C1048 C1049 1.363 . S
C1048 C1053 1.379 . S
C1048 N1055 1.356 . S
C1049 C1048 1.363 . S
C1049 C1052 1.363 . S
N1050 C1052 1.356 . S
N1050 H1062 0.984 . S
N1050 H1063 0.985 . S
N1051 C1053 1.356 . S
N1051 H1056 0.984 . S
N1051 H1057 0.985 . S
C1052 C1046 1.379 . S
C1052 C1049 1.363 . S
C1052 N1050 1.356 . S
C1053 C1047 1.363 . S
C1053 C1048 1.379 . S
C1053 N1051 1.356 . S
N1054 C1046 1.356 . S
N1054 H1060 0.984 . S
N1054 H1061 0.984 . S
N1055 C1048 1.356 . S
N1055 H1058 0.984 . S
N1055 H1059 0.985 . S
H1056 N1051 0.984 . S
H1057 N1051 0.985 . S
H1058 N1055 0.984 . S
H1059 N1055 0.985 . S
H1060 N1054 0.984 . S
H1061 N1054 0.984 . S
H1062 N1050 0.984 . S
H1063 N1050 0.985 . S
C1064 C1065 1.363 . S
C1064 C1070 1.379 . S
C1064 N1072 1.356 . S
C1065 C1064 1.363 . S
C1065 C1071 1.363 . S
C1066 C1067 1.363 . S
C1066 C1071 1.379 . S
C1066 N1073 1.356 . S
C1067 C1066 1.363 . S
C1067 C1070 1.363 . S
N1068 C1070 1.356 . S
N1068 H1080 0.984 . S
N1068 H1081 0.985 . S
N1069 C1071 1.356 . S
N1069 H1074 0.984 . S
N1069 H1075 0.985 . S
C1070 C1064 1.379 . S
C1070 C1067 1.363 . S
C1070 N1068 1.356 . S
C1071 C1065 1.363 . S
C1071 C1066 1.379 . S
C1071 N1069 1.356 . S
N1072 C1064 1.356 . S
N1072 H1078 0.984 . S
N1072 H1079 0.984 . S
N1073 C1066 1.356 . S
N1073 H1076 0.984 . S
N1073 H1077 0.985 . S
H1074 N1069 0.984 . S
H1075 N1069 0.985 . S
H1076 N1073 0.984 . S
H1077 N1073 0.985 . S
H1078 N1072 0.984 . S
H1079 N1072 0.984 . S
H1080 N1068 0.984 . S
H1081 N1068 0.985 . S
C1082 C1083 1.363 . S
C1082 C1088 1.379 . S
C1082 N1090 1.356 . S
C1083 C1082 1.363 . S
C1083 C1089 1.363 . S
C1084 C1085 1.363 . S
C1084 C1089 1.379 . S
C1084 N1091 1.356 . S
C1085 C1084 1.363 . S
C1085 C1088 1.363 . S
N1086 C1088 1.356 . S
N1086 H1098 0.984 . S
N1086 H1099 0.985 . S
N1087 C1089 1.356 . S
N1087 H1092 0.984 . S
N1087 H1093 0.985 . S
C1088 C1082 1.379 . S
C1088 C1085 1.363 . S
C1088 N1086 1.356 . S
C1089 C1083 1.363 . S
C1089 C1084 1.379 . S
C1089 N1087 1.356 . S
N1090 C1082 1.356 . S
N1090 H1096 0.984 . S
N1090 H1097 0.984 . S
N1091 C1084 1.356 . S
N1091 H1094 0.984 . S
N1091 H1095 0.985 . S
H1092 N1087 0.984 . S
H1093 N1087 0.985 . S
H1094 N1091 0.984 . S
H1095 N1091 0.985 . S
H1096 N1090 0.984 . S
H1097 N1090 0.984 . S
H1098 N1086 0.984 . S
H1099 N1086 0.985 . S
C1100 C1101 1.363 . S
C1100 C1106 1.379 . S
C1100 N1108 1.356 . S
C1101 C1100 1.363 . S
C1101 C1107 1.363 . S
C1102 C1103 1.363 . S
C1102 C1107 1.379 . S
C1102 N1109 1.356 . S
C1103 C1102 1.363 . S
C1103 C1106 1.363 . S
N1104 C1106 1.356 . S
N1104 H1116 0.984 . S
N1104 H1117 0.985 . S
N1105 C1107 1.356 . S
N1105 H1110 0.984 . S
N1105 H1111 0.985 . S
C1106 C1100 1.379 . S
C1106 C1103 1.363 . S
C1106 N1104 1.356 . S
C1107 C1101 1.363 . S
C1107 C1102 1.379 . S
C1107 N1105 1.356 . S
N1108 C1100 1.356 . S
N1108 H1114 0.984 . S
N1108 H1115 0.984 . S
N1109 C1102 1.356 . S
N1109 H1112 0.984 . S
N1109 H1113 0.985 . S
H1110 N1105 0.984 . S
H1111 N1105 0.985 . S
H1112 N1109 0.984 . S
H1113 N1109 0.985 . S
H1114 N1108 0.984 . S
H1115 N1108 0.984 . S
H1116 N1104 0.984 . S
H1117 N1104 0.985 . S
C1118 C1119 1.363 . S
C1118 C1124 1.379 . S
C1118 N1126 1.356 . S
C1119 C1118 1.363 . S
C1119 C1125 1.363 . S
C1120 C1121 1.363 . S
C1120 C1125 1.379 . S
C1120 N1127 1.356 . S
C1121 C1120 1.363 . S
C1121 C1124 1.363 . S
N1122 C1124 1.356 . S
N1122 H1134 0.984 . S
N1122 H1135 0.985 . S
N1123 C1125 1.356 . S
N1123 H1128 0.984 . S
N1123 H1129 0.985 . S
C1124 C1118 1.379 . S
C1124 C1121 1.363 . S
C1124 N1122 1.356 . S
C1125 C1119 1.363 . S
C1125 C1120 1.379 . S
C1125 N1123 1.356 . S
N1126 C1118 1.356 . S
N1126 H1132 0.984 . S
N1126 H1133 0.984 . S
N1127 C1120 1.356 . S
N1127 H1130 0.984 . S
N1127 H1131 0.985 . S
H1128 N1123 0.984 . S
H1129 N1123 0.985 . S
H1130 N1127 0.984 . S
H1131 N1127 0.985 . S
H1132 N1126 0.984 . S
H1133 N1126 0.984 . S
H1134 N1122 0.984 . S
H1135 N1122 0.985 . S
C1136 C1137 1.363 . S
C1136 C1142 1.379 . S
C1136 N1144 1.356 . S
C1137 C1136 1.363 . S
C1137 C1143 1.363 . S
C1138 C1139 1.363 . S
C1138 C1143 1.379 . S
C1138 N1145 1.356 . S
C1139 C1138 1.363 . S
C1139 C1142 1.363 . S
N1140 C1142 1.356 . S
N1140 H1152 0.984 . S
N1140 H1153 0.985 . S
N1141 C1143 1.356 . S
N1141 H1146 0.984 . S
N1141 H1147 0.985 . S
C1142 C1136 1.379 . S
C1142 C1139 1.363 . S
C1142 N1140 1.356 . S
C1143 C1137 1.363 . S
C1143 C1138 1.379 . S
C1143 N1141 1.356 . S
N1144 C1136 1.356 . S
N1144 H1150 0.984 . S
N1144 H1151 0.984 . S
N1145 C1138 1.356 . S
N1145 H1148 0.984 . S
N1145 H1149 0.985 . S
H1146 N1141 0.984 . S
H1147 N1141 0.985 . S
H1148 N1145 0.984 . S
H1149 N1145 0.985 . S
H1150 N1144 0.984 . S
H1151 N1144 0.984 . S
H1152 N1140 0.984 . S
H1153 N1140 0.985 . S
C1154 C1155 1.363 . S
C1154 C1160 1.379 . S
C1154 N1162 1.356 . S
C1155 C1154 1.363 . S
C1155 C1161 1.363 . S
C1156 C1157 1.363 . S
C1156 C1161 1.379 . S
C1156 N1163 1.356 . S
C1157 C1156 1.363 . S
C1157 C1160 1.363 . S
N1158 C1160 1.356 . S
N1158 H1170 0.984 . S
N1158 H1171 0.985 . S
N1159 C1161 1.356 . S
N1159 H1164 0.984 . S
N1159 H1165 0.985 . S
C1160 C1154 1.379 . S
C1160 C1157 1.363 . S
C1160 N1158 1.356 . S
C1161 C1155 1.363 . S
C1161 C1156 1.379 . S
C1161 N1159 1.356 . S
N1162 C1154 1.356 . S
N1162 H1168 0.984 . S
N1162 H1169 0.984 . S
N1163 C1156 1.356 . S
N1163 H1166 0.984 . S
N1163 H1167 0.985 . S
H1164 N1159 0.984 . S
H1165 N1159 0.985 . S
H1166 N1163 0.984 . S
H1167 N1163 0.985 . S
H1168 N1162 0.984 . S
H1169 N1162 0.984 . S
H1170 N1158 0.984 . S
H1171 N1158 0.985 . S
C1172 C1173 1.363 . S
C1172 C1178 1.379 . S
C1172 N1180 1.356 . S
C1173 C1172 1.363 . S
C1173 C1179 1.363 . S
C1174 C1175 1.363 . S
C1174 C1179 1.379 . S
C1174 N1181 1.356 . S
C1175 C1174 1.363 . S
C1175 C1178 1.363 . S
N1176 C1178 1.356 . S
N1176 H1188 0.984 . S
N1176 H1189 0.985 . S
N1177 C1179 1.356 . S
N1177 H1182 0.984 . S
N1177 H1183 0.985 . S
C1178 C1172 1.379 . S
C1178 C1175 1.363 . S
C1178 N1176 1.356 . S
C1179 C1173 1.363 . S
C1179 C1174 1.379 . S
C1179 N1177 1.356 . S
N1180 C1172 1.356 . S
N1180 H1186 0.984 . S
N1180 H1187 0.984 . S
N1181 C1174 1.356 . S
N1181 H1184 0.984 . S
N1181 H1185 0.985 . S
H1182 N1177 0.984 . S
H1183 N1177 0.985 . S
H1184 N1181 0.984 . S
H1185 N1181 0.985 . S
H1186 N1180 0.984 . S
H1187 N1180 0.984 . S
H1188 N1176 0.984 . S
H1189 N1176 0.985 . S
C1190 C1191 1.363 . S
C1190 C1196 1.379 . S
C1190 N1198 1.356 . S
C1191 C1190 1.363 . S
C1191 C1197 1.363 . S
C1192 C1193 1.363 . S
C1192 C1197 1.379 . S
C1192 N1199 1.356 . S
C1193 C1192 1.363 . S
C1193 C1196 1.363 . S
N1194 C1196 1.356 . S
N1194 H1206 0.984 . S
N1194 H1207 0.985 . S
N1195 C1197 1.356 . S
N1195 H1200 0.984 . S
N1195 H1201 0.985 . S
C1196 C1190 1.379 . S
C1196 C1193 1.363 . S
C1196 N1194 1.356 . S
C1197 C1191 1.363 . S
C1197 C1192 1.379 . S
C1197 N1195 1.356 . S
N1198 C1190 1.356 . S
N1198 H1204 0.984 . S
N1198 H1205 0.984 . S
N1199 C1192 1.356 . S
N1199 H1202 0.984 . S
N1199 H1203 0.985 . S
H1200 N1195 0.984 . S
H1201 N1195 0.985 . S
H1202 N1199 0.984 . S
H1203 N1199 0.985 . S
H1204 N1198 0.984 . S
H1205 N1198 0.984 . S
H1206 N1194 0.984 . S
H1207 N1194 0.985 . S
C1208 C1209 1.363 . S
C1208 C1214 1.379 . S
C1208 N1216 1.356 . S
C1209 C1208 1.363 . S
C1209 C1215 1.363 . S
C1210 C1211 1.363 . S
C1210 C1215 1.379 . S
C1210 N1217 1.356 . S
C1211 C1210 1.363 . S
C1211 C1214 1.363 . S
N1212 C1214 1.356 . S
N1212 H1224 0.984 . S
N1212 H1225 0.985 . S
N1213 C1215 1.356 . S
N1213 H1218 0.984 . S
N1213 H1219 0.985 . S
C1214 C1208 1.379 . S
C1214 C1211 1.363 . S
C1214 N1212 1.356 . S
C1215 C1209 1.363 . S
C1215 C1210 1.379 . S
C1215 N1213 1.356 . S
N1216 C1208 1.356 . S
N1216 H1222 0.984 . S
N1216 H1223 0.984 . S
N1217 C1210 1.356 . S
N1217 H1220 0.984 . S
N1217 H1221 0.985 . S
H1218 N1213 0.984 . S
H1219 N1213 0.985 . S
H1220 N1217 0.984 . S
H1221 N1217 0.985 . S
H1222 N1216 0.984 . S
H1223 N1216 0.984 . S
H1224 N1212 0.984 . S
H1225 N1212 0.985 . S
C1226 C1227 1.363 . S
C1226 C1232 1.379 . S
C1226 N1234 1.356 . S
C1227 C1226 1.363 . S
C1227 C1233 1.363 . S
C1228 C1229 1.363 . S
C1228 C1233 1.379 . S
C1228 N1235 1.356 . S
C1229 C1228 1.363 . S
C1229 C1232 1.363 . S
N1230 C1232 1.356 . S
N1230 H1242 0.984 . S
N1230 H1243 0.985 . S
N1231 C1233 1.356 . S
N1231 H1236 0.984 . S
N1231 H1237 0.985 . S
C1232 C1226 1.379 . S
C1232 C1229 1.363 . S
C1232 N1230 1.356 . S
C1233 C1227 1.363 . S
C1233 C1228 1.379 . S
C1233 N1231 1.356 . S
N1234 C1226 1.356 . S
N1234 H1240 0.984 . S
N1234 H1241 0.984 . S
N1235 C1228 1.356 . S
N1235 H1238 0.984 . S
N1235 H1239 0.985 . S
H1236 N1231 0.984 . S
H1237 N1231 0.985 . S
H1238 N1235 0.984 . S
H1239 N1235 0.985 . S
H1240 N1234 0.984 . S
H1241 N1234 0.984 . S
H1242 N1230 0.984 . S
H1243 N1230 0.985 . S
C1244 C1245 1.363 . S
C1244 C1250 1.379 . S
C1244 N1252 1.356 . S
C1245 C1244 1.363 . S
C1245 C1251 1.363 . S
C1246 C1247 1.363 . S
C1246 C1251 1.379 . S
C1246 N1253 1.356 . S
C1247 C1246 1.363 . S
C1247 C1250 1.363 . S
N1248 C1250 1.356 . S
N1248 H1260 0.984 . S
N1248 H1261 0.985 . S
N1249 C1251 1.356 . S
N1249 H1254 0.984 . S
N1249 H1255 0.985 . S
C1250 C1244 1.379 . S
C1250 C1247 1.363 . S
C1250 N1248 1.356 . S
C1251 C1245 1.363 . S
C1251 C1246 1.379 . S
C1251 N1249 1.356 . S
N1252 C1244 1.356 . S
N1252 H1258 0.984 . S
N1252 H1259 0.984 . S
N1253 C1246 1.356 . S
N1253 H1256 0.984 . S
N1253 H1257 0.985 . S
H1254 N1249 0.984 . S
H1255 N1249 0.985 . S
H1256 N1253 0.984 . S
H1257 N1253 0.985 . S
H1258 N1252 0.984 . S
H1259 N1252 0.984 . S
H1260 N1248 0.984 . S
H1261 N1248 0.985 . S
C1262 C1263 1.363 . S
C1262 C1268 1.379 . S
C1262 N1270 1.356 . S
C1263 C1262 1.363 . S
C1263 C1269 1.363 . S
C1264 C1265 1.363 . S
C1264 C1269 1.379 . S
C1264 N1271 1.356 . S
C1265 C1264 1.363 . S
C1265 C1268 1.363 . S
N1266 C1268 1.356 . S
N1266 H1278 0.984 . S
N1266 H1279 0.985 . S
N1267 C1269 1.356 . S
N1267 H1272 0.984 . S
N1267 H1273 0.985 . S
C1268 C1262 1.379 . S
C1268 C1265 1.363 . S
C1268 N1266 1.356 . S
C1269 C1263 1.363 . S
C1269 C1264 1.379 . S
C1269 N1267 1.356 . S
N1270 C1262 1.356 . S
N1270 H1276 0.984 . S
N1270 H1277 0.984 . S
N1271 C1264 1.356 . S
N1271 H1274 0.984 . S
N1271 H1275 0.985 . S
H1272 N1267 0.984 . S
H1273 N1267 0.985 . S
H1274 N1271 0.984 . S
H1275 N1271 0.985 . S
H1276 N1270 0.984 . S
H1277 N1270 0.984 . S
H1278 N1266 0.984 . S
H1279 N1266 0.985 . S
C1280 C1281 1.363 . S
C1280 C1286 1.379 . S
C1280 N1288 1.356 . S
C1281 C1280 1.363 . S
C1281 C1287 1.363 . S
C1282 C1283 1.363 . S
C1282 C1287 1.379 . S
C1282 N1289 1.356 . S
C1283 C1282 1.363 . S
C1283 C1286 1.363 . S
N1284 C1286 1.356 . S
N1284 H1296 0.984 . S
N1284 H1297 0.985 . S
N1285 C1287 1.356 . S
N1285 H1290 0.984 . S
N1285 H1291 0.985 . S
C1286 C1280 1.379 . S
C1286 C1283 1.363 . S
C1286 N1284 1.356 . S
C1287 C1281 1.363 . S
C1287 C1282 1.379 . S
C1287 N1285 1.356 . S
N1288 C1280 1.356 . S
N1288 H1294 0.984 . S
N1288 H1295 0.984 . S
N1289 C1282 1.356 . S
N1289 H1292 0.984 . S
N1289 H1293 0.985 . S
H1290 N1285 0.984 . S
H1291 N1285 0.985 . S
H1292 N1289 0.984 . S
H1293 N1289 0.985 . S
H1294 N1288 0.984 . S
H1295 N1288 0.984 . S
H1296 N1284 0.984 . S
H1297 N1284 0.985 . S
C1298 C1299 1.363 . S
C1298 C1304 1.379 . S
C1298 N1306 1.356 . S
C1299 C1298 1.363 . S
C1299 C1305 1.363 . S
C1300 C1301 1.363 . S
C1300 C1305 1.379 . S
C1300 N1307 1.356 . S
C1301 C1300 1.363 . S
C1301 C1304 1.363 . S
N1302 C1304 1.356 . S
N1302 H1314 0.984 . S
N1302 H1315 0.985 . S
N1303 C1305 1.356 . S
N1303 H1308 0.984 . S
N1303 H1309 0.985 . S
C1304 C1298 1.379 . S
C1304 C1301 1.363 . S
C1304 N1302 1.356 . S
C1305 C1299 1.363 . S
C1305 C1300 1.379 . S
C1305 N1303 1.356 . S
N1306 C1298 1.356 . S
N1306 H1312 0.984 . S
N1306 H1313 0.984 . S
N1307 C1300 1.356 . S
N1307 H1310 0.984 . S
N1307 H1311 0.985 . S
H1308 N1303 0.984 . S
H1309 N1303 0.985 . S
H1310 N1307 0.984 . S
H1311 N1307 0.985 . S
H1312 N1306 0.984 . S
H1313 N1306 0.984 . S
H1314 N1302 0.984 . S
H1315 N1302 0.985 . S
C1316 C1317 1.363 . S
C1316 C1322 1.379 . S
C1316 N1324 1.356 . S
C1317 C1316 1.363 . S
C1317 C1323 1.363 . S
C1318 C1319 1.363 . S
C1318 C1323 1.379 . S
C1318 N1325 1.356 . S
C1319 C1318 1.363 . S
C1319 C1322 1.363 . S
N1320 C1322 1.356 . S
N1320 H1332 0.984 . S
N1320 H1333 0.985 . S
N1321 C1323 1.356 . S
N1321 H1326 0.984 . S
N1321 H1327 0.985 . S
C1322 C1316 1.379 . S
C1322 C1319 1.363 . S
C1322 N1320 1.356 . S
C1323 C1317 1.363 . S
C1323 C1318 1.379 . S
C1323 N1321 1.356 . S
N1324 C1316 1.356 . S
N1324 H1330 0.984 . S
N1324 H1331 0.984 . S
N1325 C1318 1.356 . S
N1325 H1328 0.984 . S
N1325 H1329 0.985 . S
H1326 N1321 0.984 . S
H1327 N1321 0.985 . S
H1328 N1325 0.984 . S
H1329 N1325 0.985 . S
H1330 N1324 0.984 . S
H1331 N1324 0.984 . S
H1332 N1320 0.984 . S
H1333 N1320 0.985 . S
C1334 C1335 1.363 . S
C1334 C1340 1.379 . S
C1334 N1342 1.356 . S
C1335 C1334 1.363 . S
C1335 C1341 1.363 . S
C1336 C1337 1.363 . S
C1336 C1341 1.379 . S
C1336 N1343 1.356 . S
C1337 C1336 1.363 . S
C1337 C1340 1.363 . S
N1338 C1340 1.356 . S
N1338 H1350 0.984 . S
N1338 H1351 0.985 . S
N1339 C1341 1.356 . S
N1339 H1344 0.984 . S
N1339 H1345 0.985 . S
C1340 C1334 1.379 . S
C1340 C1337 1.363 . S
C1340 N1338 1.356 . S
C1341 C1335 1.363 . S
C1341 C1336 1.379 . S
C1341 N1339 1.356 . S
N1342 C1334 1.356 . S
N1342 H1348 0.984 . S
N1342 H1349 0.984 . S
N1343 C1336 1.356 . S
N1343 H1346 0.984 . S
N1343 H1347 0.985 . S
H1344 N1339 0.984 . S
H1345 N1339 0.985 . S
H1346 N1343 0.984 . S
H1347 N1343 0.985 . S
H1348 N1342 0.984 . S
H1349 N1342 0.984 . S
H1350 N1338 0.984 . S
H1351 N1338 0.985 . S
C1352 C1353 1.363 . S
C1352 C1358 1.379 . S
C1352 N1360 1.356 . S
C1353 C1352 1.363 . S
C1353 C1359 1.363 . S
C1354 C1355 1.363 . S
C1354 C1359 1.379 . S
C1354 N1361 1.356 . S
C1355 C1354 1.363 . S
C1355 C1358 1.363 . S
N1356 C1358 1.356 . S
N1356 H1368 0.984 . S
N1356 H1369 0.985 . S
N1357 C1359 1.356 . S
N1357 H1362 0.984 . S
N1357 H1363 0.985 . S
C1358 C1352 1.379 . S
C1358 C1355 1.363 . S
C1358 N1356 1.356 . S
C1359 C1353 1.363 . S
C1359 C1354 1.379 . S
C1359 N1357 1.356 . S
N1360 C1352 1.356 . S
N1360 H1366 0.984 . S
N1360 H1367 0.984 . S
N1361 C1354 1.356 . S
N1361 H1364 0.984 . S
N1361 H1365 0.985 . S
H1362 N1357 0.984 . S
H1363 N1357 0.985 . S
H1364 N1361 0.984 . S
H1365 N1361 0.985 . S
H1366 N1360 0.984 . S
H1367 N1360 0.984 . S
H1368 N1356 0.984 . S
H1369 N1356 0.985 . S
C1370 C1371 1.363 . S
C1370 C1376 1.379 . S
C1370 N1378 1.356 . S
C1371 C1370 1.363 . S
C1371 C1377 1.363 . S
C1372 C1373 1.363 . S
C1372 C1377 1.379 . S
C1372 N1379 1.356 . S
C1373 C1372 1.363 . S
C1373 C1376 1.363 . S
N1374 C1376 1.356 . S
N1374 H1386 0.984 . S
N1374 H1387 0.985 . S
N1375 C1377 1.356 . S
N1375 H1380 0.984 . S
N1375 H1381 0.985 . S
C1376 C1370 1.379 . S
C1376 C1373 1.363 . S
C1376 N1374 1.356 . S
C1377 C1371 1.363 . S
C1377 C1372 1.379 . S
C1377 N1375 1.356 . S
N1378 C1370 1.356 . S
N1378 H1384 0.984 . S
N1378 H1385 0.984 . S
N1379 C1372 1.356 . S
N1379 H1382 0.984 . S
N1379 H1383 0.985 . S
H1380 N1375 0.984 . S
H1381 N1375 0.985 . S
H1382 N1379 0.984 . S
H1383 N1379 0.985 . S
H1384 N1378 0.984 . S
H1385 N1378 0.984 . S
H1386 N1374 0.984 . S
H1387 N1374 0.985 . S
C1388 C1389 1.363 . S
C1388 C1394 1.379 . S
C1388 N1396 1.356 . S
C1389 C1388 1.363 . S
C1389 C1395 1.363 . S
C1390 C1391 1.363 . S
C1390 C1395 1.379 . S
C1390 N1397 1.356 . S
C1391 C1390 1.363 . S
C1391 C1394 1.363 . S
N1392 C1394 1.356 . S
N1392 H1404 0.984 . S
N1392 H1405 0.985 . S
N1393 C1395 1.356 . S
N1393 H1398 0.984 . S
N1393 H1399 0.985 . S
C1394 C1388 1.379 . S
C1394 C1391 1.363 . S
C1394 N1392 1.356 . S
C1395 C1389 1.363 . S
C1395 C1390 1.379 . S
C1395 N1393 1.356 . S
N1396 C1388 1.356 . S
N1396 H1402 0.984 . S
N1396 H1403 0.984 . S
N1397 C1390 1.356 . S
N1397 H1400 0.984 . S
N1397 H1401 0.985 . S
H1398 N1393 0.984 . S
H1399 N1393 0.985 . S
H1400 N1397 0.984 . S
H1401 N1397 0.985 . S
H1402 N1396 0.984 . S
H1403 N1396 0.984 . S
H1404 N1392 0.984 . S
H1405 N1392 0.985 . S
C1406 C1407 1.363 . S
C1406 C1412 1.379 . S
C1406 N1414 1.356 . S
C1407 C1406 1.363 . S
C1407 C1413 1.363 . S
C1408 C1409 1.363 . S
C1408 C1413 1.379 . S
C1408 N1415 1.356 . S
C1409 C1408 1.363 . S
C1409 C1412 1.363 . S
N1410 C1412 1.356 . S
N1410 H1422 0.984 . S
N1410 H1423 0.985 . S
N1411 C1413 1.356 . S
N1411 H1416 0.984 . S
N1411 H1417 0.985 . S
C1412 C1406 1.379 . S
C1412 C1409 1.363 . S
C1412 N1410 1.356 . S
C1413 C1407 1.363 . S
C1413 C1408 1.379 . S
C1413 N1411 1.356 . S
N1414 C1406 1.356 . S
N1414 H1420 0.984 . S
N1414 H1421 0.984 . S
N1415 C1408 1.356 . S
N1415 H1418 0.984 . S
N1415 H1419 0.985 . S
H1416 N1411 0.984 . S
H1417 N1411 0.985 . S
H1418 N1415 0.984 . S
H1419 N1415 0.985 . S
H1420 N1414 0.984 . S
H1421 N1414 0.984 . S
H1422 N1410 0.984 . S
H1423 N1410 0.985 . S
C1424 C1425 1.363 . S
C1424 C1430 1.379 . S
C1424 N1432 1.356 . S
C1425 C1424 1.363 . S
C1425 C1431 1.363 . S
C1426 C1427 1.363 . S
C1426 C1431 1.379 . S
C1426 N1433 1.356 . S
C1427 C1426 1.363 . S
C1427 C1430 1.363 . S
N1428 C1430 1.356 . S
N1428 H1440 0.984 . S
N1428 H1441 0.985 . S
N1429 C1431 1.356 . S
N1429 H1434 0.984 . S
N1429 H1435 0.985 . S
C1430 C1424 1.379 . S
C1430 C1427 1.363 . S
C1430 N1428 1.356 . S
C1431 C1425 1.363 . S
C1431 C1426 1.379 . S
C1431 N1429 1.356 . S
N1432 C1424 1.356 . S
N1432 H1438 0.984 . S
N1432 H1439 0.984 . S
N1433 C1426 1.356 . S
N1433 H1436 0.984 . S
N1433 H1437 0.985 . S
H1434 N1429 0.984 . S
H1435 N1429 0.985 . S
H1436 N1433 0.984 . S
H1437 N1433 0.985 . S
H1438 N1432 0.984 . S
H1439 N1432 0.984 . S
H1440 N1428 0.984 . S
H1441 N1428 0.985 . S
C1442 C1443 1.363 . S
C1442 C1448 1.379 . S
C1442 N1450 1.356 . S
C1443 C1442 1.363 . S
C1443 C1449 1.363 . S
C1444 C1445 1.363 . S
C1444 C1449 1.379 . S
C1444 N1451 1.356 1_556 S
C1445 C1444 1.363 . S
C1445 C1448 1.363 . S
N1446 C1448 1.356 . S
N1446 H1458 0.984 . S
N1446 H1459 0.985 . S
N1447 C1449 1.356 . S
N1447 H1452 0.984 . S
N1447 H1453 0.985 . S
C1448 C1442 1.379 . S
C1448 C1445 1.363 . S
C1448 N1446 1.356 . S
C1449 C1443 1.363 . S
C1449 C1444 1.379 . S
C1449 N1447 1.356 . S
N1450 C1442 1.356 . S
N1450 H1456 0.984 . S
N1450 H1457 0.984 . S
N1451 C1444 1.356 1_554 S
N1451 H1454 0.984 . S
N1451 H1455 0.985 . S
H1452 N1447 0.984 . S
H1453 N1447 0.985 . S
H1454 N1451 0.984 . S
H1455 N1451 0.985 . S
H1456 N1450 0.984 . S
H1457 N1450 0.984 . S
H1458 N1446 0.984 . S
H1459 N1446 0.985 . S
C1460 C1461 1.363 . S
C1460 C1466 1.379 . S
C1460 N1468 1.356 . S
C1461 C1460 1.363 . S
C1461 C1467 1.363 . S
C1462 C1463 1.363 . S
C1462 C1467 1.379 . S
C1462 N1469 1.356 . S
C1463 C1462 1.363 . S
C1463 C1466 1.363 . S
N1464 C1466 1.356 . S
N1464 H1476 0.984 1_556 S
N1464 H1477 0.985 . S
N1465 C1467 1.356 . S
N1465 H1470 0.984 . S
N1465 H1471 0.985 . S
C1466 C1460 1.379 . S
C1466 C1463 1.363 . S
C1466 N1464 1.356 . S
C1467 C1461 1.363 . S
C1467 C1462 1.379 . S
C1467 N1465 1.356 . S
N1468 C1460 1.356 . S
N1468 H1474 0.984 . S
N1468 H1475 0.984 . S
N1469 C1462 1.356 . S
N1469 H1472 0.984 . S
N1469 H1473 0.985 . S
H1470 N1465 0.984 . S
H1471 N1465 0.985 . S
H1472 N1469 0.984 . S
H1473 N1469 0.985 . S
H1474 N1468 0.984 . S
H1475 N1468 0.984 . S
H1476 N1464 0.984 1_554 S
H1477 N1464 0.985 . S
C1478 C1479 1.363 . S
C1478 C1484 1.379 . S
C1478 N1486 1.356 . S
C1479 C1478 1.363 . S
C1479 C1485 1.363 . S
C1480 C1481 1.363 . S
C1480 C1485 1.379 . S
C1480 N1487 1.356 . S
C1481 C1480 1.363 . S
C1481 C1484 1.363 . S
N1482 C1484 1.356 . S
N1482 H1494 0.984 . S
N1482 H1495 0.985 . S
N1483 C1485 1.356 . S
N1483 H1488 0.984 . S
N1483 H1489 0.985 . S
C1484 C1478 1.379 . S
C1484 C1481 1.363 . S
C1484 N1482 1.356 . S
C1485 C1479 1.363 . S
C1485 C1480 1.379 . S
C1485 N1483 1.356 . S
N1486 C1478 1.356 . S
N1486 H1492 0.984 . S
N1486 H1493 0.984 . S
N1487 C1480 1.356 . S
N1487 H1490 0.984 . S
N1487 H1491 0.985 . S
H1488 N1483 0.984 . S
H1489 N1483 0.985 . S
H1490 N1487 0.984 . S
H1491 N1487 0.985 . S
H1492 N1486 0.984 . S
H1493 N1486 0.984 . S
H1494 N1482 0.984 . S
H1495 N1482 0.985 . S
C923 C525 1.583 . S
C921 C47 1.460 . S
C941 C578 1.335 . S
C939 C115 1.303 . S
C959 C641 1.599 . S
C957 C153 1.453 . S
C977 C684 1.452 . S
C975 C233 1.316 . S
C993 C283 1.518 . S
C995 C640 1.553 . S
C1013 C677 1.419 . S
C1011 C357 1.322 . S
C1031 C518 1.629 . S
C1029 C401 1.479 . S
C1049 C571 1.400 . S
C1047 C463 1.238 . S
C1067 C624 1.450 . S
C1065 C469 1.389 . S
C1085 C693 1.816 . S
C1083 C277 1.685 . S
C1103 C534 1.587 . S
C1101 C363 1.575 . S
C1121 C587 1.632 . S
C1119 C407 1.606 . S
C1139 C535 1.572 . S
C1137 C109 1.444 . S
C1157 C588 1.693 . S
C1155 C159 1.647 . S
C1175 C631 1.425 . S
C1173 C239 1.376 . S
C1193 C694 1.736 . S
C1191 C53 1.716 . S
C1211 C737 1.566 . S
C1209 C481 1.436 . S
C1227 C301 1.637 . S
C1229 C790 1.686 . S
C1245 C339 1.474 . S
C1247 C852 1.616 . S
C1263 C419 1.689 . S
C1265 C906 1.838 . S
C1281 C97 1.480 . S
C1283 C853 1.516 . S
C1299 C171 1.739 . S
C1301 C905 1.855 . S
C1317 C215 1.495 . S
C1319 C730 1.636 . S
C1337 C783 1.758 . S
C1335 C29 1.556 . S
C1355 C843 1.422 . S
C1353 C35 1.363 . S
C1371 C91 1.249 . S
C1373 C889 1.363 . S
C1389 C177 1.624 . S
C1391 C746 1.630 . S
C1407 C221 1.285 . S
C1409 C799 1.300 . S
C1427 C747 1.558 . S
C1425 C295 1.425 . S
C1445 C800 1.321 . S
C1443 C345 1.292 . S
C1461 C425 1.394 . S
C1463 C836 1.442 . S
C1481 C896 1.311 . S
C1479 C487 1.294 . S
