# Generated by pormake.
# Topology ctn, (3,4)-cn, num edge types: 1
# Building blocks:
#     Node 0, Type 0, BuildingBlock: QEWDON_clean_linker_0, # of connection points: 3
#     Node 1, Type 0, BuildingBlock: QEWDON_clean_linker_0, # of connection points: 3
#     Node 2, Type 0, BuildingBlock: QEWDON_clean_linker_0, # of connection points: 3
#     Node 3, Type 0, BuildingBlock: QEWDON_clean_linker_0, # of connection points: 3
#     Node 4, Type 0, BuildingBlock: QEWDON_clean_linker_0, # of connection points: 3
#     Node 5, Type 0, BuildingBlock: QEWDON_clean_linker_0, # of connection points: 3
#     Node 6, Type 0, BuildingBlock: QEWDON_clean_linker_0, # of connection points: 3
#     Node 7, Type 0, BuildingBlock: QEWDON_clean_linker_0, # of connection points: 3
#     Node 8, Type 0, BuildingBlock: QEWDON_clean_linker_0, # of connection points: 3
#     Node 9, Type 0, BuildingBlock: QEWDON_clean_linker_0, # of connection points: 3
#     Node 10, Type 0, BuildingBlock: QEWDON_clean_linker_0, # of connection points: 3
#     Node 11, Type 0, BuildingBlock: QEWDON_clean_linker_0, # of connection points: 3
#     Node 12, Type 0, BuildingBlock: QEWDON_clean_linker_0, # of connection points: 3
#     Node 13, Type 0, BuildingBlock: QEWDON_clean_linker_0, # of connection points: 3
#     Node 14, Type 0, BuildingBlock: QEWDON_clean_linker_0, # of connection points: 3
#     Node 15, Type 0, BuildingBlock: QEWDON_clean_linker_0, # of connection points: 3
#     Node 16, Type 1, BuildingBlock: NAHDIM_clean_sbu_0, # of connection points: 4
#     Node 17, Type 1, BuildingBlock: NAHDIM_clean_sbu_0, # of connection points: 4
#     Node 18, Type 1, BuildingBlock: NAHDIM_clean_sbu_0, # of connection points: 4
#     Node 19, Type 1, BuildingBlock: NAHDIM_clean_sbu_0, # of connection points: 4
#     Node 20, Type 1, BuildingBlock: NAHDIM_clean_sbu_0, # of connection points: 4
#     Node 21, Type 1, BuildingBlock: NAHDIM_clean_sbu_0, # of connection points: 4
#     Node 22, Type 1, BuildingBlock: NAHDIM_clean_sbu_0, # of connection points: 4
#     Node 23, Type 1, BuildingBlock: NAHDIM_clean_sbu_0, # of connection points: 4
#     Node 24, Type 1, BuildingBlock: NAHDIM_clean_sbu_0, # of connection points: 4
#     Node 25, Type 1, BuildingBlock: NAHDIM_clean_sbu_0, # of connection points: 4
#     Node 26, Type 1, BuildingBlock: NAHDIM_clean_sbu_0, # of connection points: 4
#     Node 27, Type 1, BuildingBlock: NAHDIM_clean_sbu_0, # of connection points: 4
#     Edge 28, Type (0, 1), BuildingBlock: XIVTED_clean_linker_0, # of connection points: 2
#     Edge 29, Type (0, 1), BuildingBlock: XIVTED_clean_linker_0, # of connection points: 2
#     Edge 30, Type (0, 1), BuildingBlock: XIVTED_clean_linker_0, # of connection points: 2
#     Edge 31, Type (0, 1), BuildingBlock: XIVTED_clean_linker_0, # of connection points: 2
#     Edge 32, Type (0, 1), BuildingBlock: XIVTED_clean_linker_0, # of connection points: 2
#     Edge 33, Type (0, 1), BuildingBlock: XIVTED_clean_linker_0, # of connection points: 2
#     Edge 34, Type (0, 1), BuildingBlock: XIVTED_clean_linker_0, # of connection points: 2
#     Edge 35, Type (0, 1), BuildingBlock: XIVTED_clean_linker_0, # of connection points: 2
#     Edge 36, Type (0, 1), BuildingBlock: XIVTED_clean_linker_0, # of connection points: 2
#     Edge 37, Type (0, 1), BuildingBlock: XIVTED_clean_linker_0, # of connection points: 2
#     Edge 38, Type (0, 1), BuildingBlock: XIVTED_clean_linker_0, # of connection points: 2
#     Edge 39, Type (0, 1), BuildingBlock: XIVTED_clean_linker_0, # of connection points: 2
#     Edge 40, Type (0, 1), BuildingBlock: XIVTED_clean_linker_0, # of connection points: 2
#     Edge 41, Type (0, 1), BuildingBlock: XIVTED_clean_linker_0, # of connection points: 2
#     Edge 42, Type (0, 1), BuildingBlock: XIVTED_clean_linker_0, # of connection points: 2
#     Edge 43, Type (0, 1), BuildingBlock: XIVTED_clean_linker_0, # of connection points: 2
#     Edge 44, Type (0, 1), BuildingBlock: XIVTED_clean_linker_0, # of connection points: 2
#     Edge 45, Type (0, 1), BuildingBlock: XIVTED_clean_linker_0, # of connection points: 2
#     Edge 46, Type (0, 1), BuildingBlock: XIVTED_clean_linker_0, # of connection points: 2
#     Edge 47, Type (0, 1), BuildingBlock: XIVTED_clean_linker_0, # of connection points: 2
#     Edge 48, Type (0, 1), BuildingBlock: XIVTED_clean_linker_0, # of connection points: 2
#     Edge 49, Type (0, 1), BuildingBlock: XIVTED_clean_linker_0, # of connection points: 2
#     Edge 50, Type (0, 1), BuildingBlock: XIVTED_clean_linker_0, # of connection points: 2
#     Edge 51, Type (0, 1), BuildingBlock: XIVTED_clean_linker_0, # of connection points: 2
#     Edge 52, Type (0, 1), BuildingBlock: XIVTED_clean_linker_0, # of connection points: 2
#     Edge 53, Type (0, 1), BuildingBlock: XIVTED_clean_linker_0, # of connection points: 2
#     Edge 54, Type (0, 1), BuildingBlock: XIVTED_clean_linker_0, # of connection points: 2
#     Edge 55, Type (0, 1), BuildingBlock: XIVTED_clean_linker_0, # of connection points: 2
#     Edge 56, Type (0, 1), BuildingBlock: XIVTED_clean_linker_0, # of connection points: 2
#     Edge 57, Type (0, 1), BuildingBlock: XIVTED_clean_linker_0, # of connection points: 2
#     Edge 58, Type (0, 1), BuildingBlock: XIVTED_clean_linker_0, # of connection points: 2
#     Edge 59, Type (0, 1), BuildingBlock: XIVTED_clean_linker_0, # of connection points: 2
#     Edge 60, Type (0, 1), BuildingBlock: XIVTED_clean_linker_0, # of connection points: 2
#     Edge 61, Type (0, 1), BuildingBlock: XIVTED_clean_linker_0, # of connection points: 2
#     Edge 62, Type (0, 1), BuildingBlock: XIVTED_clean_linker_0, # of connection points: 2
#     Edge 63, Type (0, 1), BuildingBlock: XIVTED_clean_linker_0, # of connection points: 2
#     Edge 64, Type (0, 1), BuildingBlock: XIVTED_clean_linker_0, # of connection points: 2
#     Edge 65, Type (0, 1), BuildingBlock: XIVTED_clean_linker_0, # of connection points: 2
#     Edge 66, Type (0, 1), BuildingBlock: XIVTED_clean_linker_0, # of connection points: 2
#     Edge 67, Type (0, 1), BuildingBlock: XIVTED_clean_linker_0, # of connection points: 2
#     Edge 68, Type (0, 1), BuildingBlock: XIVTED_clean_linker_0, # of connection points: 2
#     Edge 69, Type (0, 1), BuildingBlock: XIVTED_clean_linker_0, # of connection points: 2
#     Edge 70, Type (0, 1), BuildingBlock: XIVTED_clean_linker_0, # of connection points: 2
#     Edge 71, Type (0, 1), BuildingBlock: XIVTED_clean_linker_0, # of connection points: 2
#     Edge 72, Type (0, 1), BuildingBlock: XIVTED_clean_linker_0, # of connection points: 2
#     Edge 73, Type (0, 1), BuildingBlock: XIVTED_clean_linker_0, # of connection points: 2
#     Edge 74, Type (0, 1), BuildingBlock: XIVTED_clean_linker_0, # of connection points: 2
#     Edge 75, Type (0, 1), BuildingBlock: XIVTED_clean_linker_0, # of connection points: 2
# Relax obj value: 0.115
# Max RMSD: 0.275
# Mean RMSD: 0.157
data_MOF--net-ctn--node1-NAHDIM_clean_sbu_0--node2-QEWDON_clean_linker_0--edge1-XIVTED_clean_linker_0
_symmetry_space_group_name_H-M    P1
_symmetry_Int_Tables_number       1
_symmetry_cell_setting            triclinic
loop_
_symmetry_equiv_pos_as_xyz
'x, y, z'
_cell_length_a     52.883586
_cell_length_b     55.480682
_cell_length_c     58.659108
_cell_angle_alpha  99.664134
_cell_angle_beta   92.078887
_cell_angle_gamma 97.87936
loop_
_atom_site_label
_atom_site_type_symbol
_atom_site_fract_x
_atom_site_fract_y
_atom_site_fract_z
_atom_type_partial_charge
H0 H 0.10201 0.04388 0.06461 0.0
C1 C 0.08879 0.03976 0.07759 0.0
C2 C 0.08702 0.01686 0.08524 0.0
C3 C 0.07501 0.05817 0.0879 0.0
H4 H 0.06937 0.99505 0.10916 0.0
C5 C 0.07066 0.0125 0.10302 0.0
C6 C 0.05659 0.03074 0.11345 0.0
C7 C 0.05882 0.05345 0.10555 0.0
C8 C 0.07972 0.08343 0.0824 0.0
H9 H 0.04816 0.06775 0.11329 0.0
C10 C 0.07525 0.08801 0.05979 0.0
C11 C 0.07984 0.11234 0.05518 0.0
C12 C 0.08882 0.10327 0.10027 0.0
H13 H 0.09245 0.10012 0.11776 0.0
C14 C 0.09358 0.12727 0.09574 0.0
H15 H 0.06815 0.07278 0.04595 0.0
C16 C 0.08914 0.13183 0.0734 0.0
H17 H 0.09254 0.15073 0.07046 0.0
H18 H 0.10061 0.14243 0.10963 0.0
H19 H 0.34564 0.74887 0.26534 0.0
C20 C 0.33141 0.73252 0.26096 0.0
C21 C 0.3359 0.71049 0.26807 0.0
C22 C 0.30855 0.73381 0.24852 0.0
H23 H 0.32035 0.67266 0.26854 0.0
C24 C 0.3172 0.68956 0.26263 0.0
C25 C 0.29397 0.69058 0.25059 0.0
C26 C 0.29002 0.71267 0.24307 0.0
C27 C 0.30328 0.75806 0.2436 0.0
H28 H 0.27195 0.7139 0.23433 0.0
C29 C 0.29709 0.76159 0.22092 0.0
C30 C 0.29415 0.78537 0.21664 0.0
C31 C 0.30545 0.77822 0.26196 0.0
H32 H 0.30996 0.77588 0.27955 0.0
C33 C 0.30185 0.80155 0.25784 0.0
H34 H 0.29568 0.74621 0.20662 0.0
C35 C 0.29642 0.80518 0.23536 0.0
H36 H 0.29391 0.82355 0.23258 0.0
H37 H 0.30352 0.81694 0.27211 0.0
H38 H 0.0496 0.48146 0.03398 0.0
C39 C 0.03379 0.49121 0.03071 0.0
C40 C 0.02023 0.50162 0.0492 0.0
C41 C 0.02809 0.49454 0.00804 0.0
H42 H 0.98937 0.52267 0.05834 0.0
C43 C 1.00019 0.51473 0.04438 0.0
C44 C 0.99446 0.51829 0.02168 0.0
C45 C 0.00865 0.50821 0.00365 0.0
C46 C 0.04325 0.48482 0.9889 0.0
H47 H 0.00441 0.51076 0.98606 0.0
C48 C 0.04115 0.45927 0.98082 0.0
C49 C 0.05435 0.45019 0.96153 0.0
C50 C 0.05901 0.50129 0.97799 0.0
H51 H 0.06074 0.52105 0.98399 0.0
C52 C 0.07266 0.49238 0.95927 0.0
H53 H 0.02846 0.44665 0.98896 0.0
C54 C 0.07032 0.46702 0.95101 0.0
H55 H 0.08102 0.46057 0.93637 0.0
H56 H 0.08492 0.50516 0.951 0.0
H57 H 0.78758 0.79094 0.24151 0.0
C58 C 0.78677 0.78254 0.22339 0.0
C59 C 0.79631 0.79647 0.20676 0.0
C60 C 0.77766 0.75725 0.21697 0.0
H61 H 0.80326 0.79512 0.17055 0.0
C62 C 0.79597 0.78466 0.18349 0.0
C63 C 0.78713 0.75926 0.17687 0.0
C64 C 0.77776 0.74581 0.1938 0.0
C65 C 0.77007 0.742 0.23462 0.0
H66 H 0.77062 0.72627 0.18908 0.0
C67 C 0.74852 0.74559 0.24745 0.0
C68 C 0.74062 0.72987 0.26322 0.0
C69 C 0.78401 0.72297 0.23792 0.0
H70 H 0.80063 0.71993 0.22814 0.0
C71 C 0.7766 0.70767 0.25378 0.0
H72 H 0.7378 0.76031 0.24483 0.0
C73 C 0.75502 0.71096 0.26626 0.0
H74 H 0.74929 0.69825 0.27789 0.0
H75 H 0.7874 0.69297 0.25617 0.0
H76 H 0.12568 0.95409 0.48011 0.0
C77 C 0.10937 0.95739 0.46994 0.0
C78 C 0.10982 0.97988 0.46186 0.0
C79 C 0.08866 0.93845 0.46383 0.0
H80 H 0.08954 1.00035 0.44099 0.0
C81 C 0.08904 0.98324 0.44766 0.0
C82 C 0.06813 0.96434 0.44127 0.0
C83 C 0.06805 0.94199 0.44967 0.0
C84 C 0.09043 0.91386 0.46956 0.0
H85 H 0.05233 0.92705 0.44473 0.0
C86 C 0.07994 0.90669 0.48951 0.0
C87 C 0.0834 0.88369 0.49536 0.0
C88 C 0.10389 0.89783 0.45528 0.0
H89 H 0.11212 0.90316 0.43989 0.0
C90 C 0.10704 0.87493 0.46084 0.0
H91 H 0.06977 0.9192 0.50069 0.0
C92 C 0.09699 0.86791 0.48079 0.0
H93 H 0.09967 0.85001 0.48476 0.0
H94 H 0.11744 0.86263 0.44974 0.0
H95 H 0.27706 0.68934 0.7837 0.0
C96 C 0.27232 0.69906 0.80025 0.0
C97 C 0.28032 0.69179 0.82081 0.0
C98 C 0.25803 0.71863 0.80072 0.0
H99 H 0.28099 0.69962 0.85803 0.0
C100 C 0.27386 0.70449 0.84212 0.0
C101 C 0.2595 0.72422 0.84301 0.0
C102 C 0.2513 0.73086 0.82208 0.0
C103 C 0.2516 0.72707 0.77883 0.0
H104 H 0.24023 0.74594 0.82234 0.0
C105 C 0.22635 0.72996 0.77261 0.0
C106 C 0.22046 0.73676 0.75114 0.0
C107 C 0.27099 0.73175 0.76372 0.0
H108 H 0.2906 0.72989 0.76823 0.0
C109 C 0.26535 0.73904 0.74274 0.0
H110 H 0.21124 0.72599 0.78402 0.0
C111 C 0.24028 0.74144 0.73641 0.0
H112 H 0.23641 0.74711 0.71999 0.0
H113 H 0.28044 0.74271 0.73127 0.0
H114 H 0.96159 0.58743 0.46358 0.0
C115 C 0.94989 0.57244 0.46963 0.0
C116 C 0.94514 0.57428 0.49327 0.0
C117 C 0.93788 0.55213 0.45347 0.0
H118 H 0.92581 0.55607 0.51882 0.0
C119 C 0.92904 0.55505 0.50057 0.0
C120 C 0.91668 0.53476 0.48459 0.0
C121 C 0.92133 0.53342 0.46102 0.0
C122 C 0.93939 0.55213 0.42839 0.0
H123 H 0.91122 0.5184 0.44833 0.0
C124 C 0.96142 0.54699 0.41681 0.0
C125 C 0.96174 0.5458 0.39259 0.0
C126 C 0.91797 0.55661 0.41581 0.0
H127 H 0.90088 0.56058 0.42448 0.0
C128 C 0.91842 0.55604 0.392 0.0
H129 H 0.97781 0.54314 0.42648 0.0
C130 C 0.94007 0.55063 0.38043 0.0
H131 H 0.93988 0.55035 0.36192 0.0
H132 H 0.90187 0.55967 0.38245 0.0
H133 H 0.83408 0.82433 0.79245 0.0
C134 C 0.83131 0.81097 0.80398 0.0
C135 C 0.84343 0.78966 0.8003 0.0
C136 C 0.81624 0.81551 0.82299 0.0
H137 H 0.8502 0.75706 0.81376 0.0
C138 C 0.83998 0.77284 0.81588 0.0
C139 C 0.82456 0.77691 0.83481 0.0
C140 C 0.81256 0.79823 0.83794 0.0
C141 C 0.80611 0.83925 0.82889 0.0
H142 H 0.80034 0.80167 0.8522 0.0
C143 C 0.78936 0.84722 0.8134 0.0
C144 C 0.77838 0.86885 0.82047 0.0
C145 C 0.81251 0.85358 0.85099 0.0
H146 H 0.82549 0.84788 0.8631 0.0
C147 C 0.80223 0.87529 0.85773 0.0
H148 H 0.78406 0.83614 0.79643 0.0
C149 C 0.78514 0.88281 0.84269 0.0
H150 H 0.77719 0.89965 0.8484 0.0
H151 H 0.80732 0.8862 0.87479 0.0
H152 H 0.33432 0.32708 0.29042 0.0
C153 C 0.33058 0.31345 0.3016 0.0
C154 C 0.34137 0.29144 0.29733 0.0
C155 C 0.31666 0.31884 0.32129 0.0
H156 H 0.34525 0.25725 0.30912 0.0
C157 C 0.33728 0.27439 0.31255 0.0
C158 C 0.32282 0.27923 0.33202 0.0
C159 C 0.31273 0.3016 0.33627 0.0
C160 C 0.30871 0.34356 0.3277 0.0
H161 H 0.30237 0.30602 0.35168 0.0
C162 C 0.29366 0.35337 0.31221 0.0
C163 C 0.28715 0.37728 0.31852 0.0
C164 C 0.31692 0.35778 0.34951 0.0
H165 H 0.32864 0.35068 0.36164 0.0
C166 C 0.31059 0.38149 0.3557 0.0
H167 H 0.28713 0.34252 0.29538 0.0
C168 C 0.2959 0.39125 0.3403 0.0
H169 H 0.29104 0.40965 0.34552 0.0
H170 H 0.31714 0.39235 0.37249 0.0
H171 H 0.54755 0.97649 0.52564 0.0
C172 C 0.53129 0.98609 0.52368 0.0
C173 C 0.51956 0.99653 0.54337 0.0
C174 C 0.52247 0.98822 0.5014 0.0
H175 H 0.48887 0.01662 0.55536 0.0
C176 C 0.49817 0.00858 0.54037 0.0
C177 C 0.48878 0.01034 0.51802 0.0
C178 C 0.5013 1.00036 0.49871 0.0
C179 C 0.53563 0.97817 0.48087 0.0
H180 H 0.49459 0.00204 0.48143 0.0
C181 C 0.53949 0.95328 0.47685 0.0
C182 C 0.55167 0.94362 0.45711 0.0
C183 C 0.54419 0.99346 0.46508 0.0
H184 H 0.54145 0.01271 0.46789 0.0
C185 C 0.55663 0.9841 0.44569 0.0
H186 H 0.5328 0.94141 0.48897 0.0
C187 C 0.56037 0.95936 0.44168 0.0
H188 H 0.56956 0.9524 0.42622 0.0
H189 H 0.56323 0.99601 0.43362 0.0
H190 H 0.27278 0.29631 0.74365 0.0
C191 C 0.27545 0.28873 0.72578 0.0
C192 C 0.28528 0.30441 0.71064 0.0
C193 C 0.26999 0.26309 0.71819 0.0
H194 H 0.29665 0.30589 0.67582 0.0
C195 C 0.28882 0.29408 0.68757 0.0
C196 C 0.28304 0.2685 0.67968 0.0
C197 C 0.27371 0.25316 0.69516 0.0
C198 C 0.26228 0.24629 0.73461 0.0
H199 H 0.2699 0.23331 0.68948 0.0
C200 C 0.24027 0.24844 0.74714 0.0
C201 C 0.2328 0.2318 0.76221 0.0
C202 C 0.27695 0.22762 0.73743 0.0
H203 H 0.29401 0.22571 0.728 0.0
C204 C 0.26985 0.21135 0.75255 0.0
H205 H 0.22892 0.26283 0.74495 0.0
C206 C 0.24792 0.21334 0.76482 0.0
H207 H 0.24251 0.20006 0.77601 0.0
H208 H 0.28126 0.19699 0.75461 0.0
H209 H 0.84075 0.25169 0.76725 0.0
C210 C 0.82719 0.23504 0.76157 0.0
C211 C 0.83159 0.2128 0.76831 0.0
C212 C 0.80522 0.23616 0.74787 0.0
H213 H 0.81636 0.17468 0.7675 0.0
C214 C 0.81359 0.19151 0.76127 0.0
C215 C 0.79116 0.19234 0.74786 0.0
C216 C 0.78745 0.21474 0.74079 0.0
C217 C 0.79964 0.26043 0.74344 0.0
H218 H 0.77027 0.21582 0.7306 0.0
C219 C 0.79717 0.26548 0.72077 0.0
C220 C 0.79353 0.28934 0.71723 0.0
C221 C 0.79756 0.27905 0.7624 0.0
H222 H 0.79928 0.27547 0.77995 0.0
C223 C 0.79319 0.3024 0.75894 0.0
H224 H 0.79915 0.25128 0.70609 0.0
C225 C 0.79131 0.30759 0.73656 0.0
H226 H 0.78809 0.32595 0.73434 0.0
H227 H 0.7915 0.3166 0.77366 0.0
H228 H 0.6007 0.53613 0.56016 0.0
C229 C 0.58723 0.53182 0.5729 0.0
C230 C 0.58448 0.5084 0.57954 0.0
C231 C 0.57416 0.55045 0.58394 0.0
H232 H 0.56482 0.48549 0.60163 0.0
C233 C 0.56758 0.50364 0.59683 0.0
C234 C 0.55431 0.52213 0.60803 0.0
C235 C 0.55783 0.5455 0.60143 0.0
C236 C 0.57956 0.57594 0.57912 0.0
H237 H 0.54849 0.56024 0.61041 0.0
C238 C 0.57502 0.58122 0.55679 0.0
C239 C 0.58004 0.60573 0.55274 0.0
C240 C 0.58924 0.59525 0.59729 0.0
H241 H 0.59292 0.59155 0.61457 0.0
C242 C 0.59446 0.61944 0.5933 0.0
H243 H 0.56749 0.56637 0.54275 0.0
C244 C 0.58989 0.6247 0.57123 0.0
H245 H 0.59362 0.64374 0.56874 0.0
H246 H 0.60192 0.6342 0.60741 0.0
H247 H 0.61229 0.44911 0.97828 0.0
C248 C 0.59656 0.45307 0.96782 0.0
C249 C 0.59837 0.47562 0.95965 0.0
C250 C 0.57539 0.43475 0.96108 0.0
H251 H 0.57982 0.497 0.93843 0.0
C252 C 0.57831 0.47981 0.94507 0.0
C253 C 0.55696 0.46159 0.93811 0.0
C254 C 0.55566 0.43908 0.94636 0.0
C255 C 0.5759 0.40974 0.96631 0.0
H256 H 0.53961 0.42459 0.94092 0.0
C257 C 0.56913 0.4038 0.98789 0.0
C258 C 0.57072 0.37995 0.99264 0.0
C259 C 0.58396 0.39177 0.94948 0.0
H260 H 0.58924 0.39611 0.93279 0.0
C261 C 0.58556 0.36819 0.95413 0.0
H262 H 0.56293 0.41768 1.00092 0.0
C263 C 0.57908 0.3623 0.97557 0.0
H264 H 0.58023 0.34377 0.97869 0.0
H265 H 0.59184 0.35443 0.94107 0.0
H266 H 0.77427 0.1804 0.27849 0.0
C267 C 0.76945 0.18981 0.29516 0.0
C268 C 0.77639 0.18139 0.31543 0.0
C269 C 0.75676 0.21049 0.29613 0.0
H270 H 0.77678 0.18814 0.35268 0.0
C271 C 0.77082 0.19424 0.33699 0.0
C272 C 0.75785 0.21498 0.33834 0.0
C273 C 0.75057 0.22272 0.31767 0.0
C274 C 0.75136 0.21994 0.27458 0.0
H275 H 0.74055 0.23857 0.31828 0.0
C276 C 0.72641 0.22329 0.26791 0.0
C277 C 0.72141 0.23089 0.24663 0.0
C278 C 0.77136 0.22492 0.26016 0.0
H279 H 0.79073 0.22261 0.26504 0.0
C280 C 0.7666 0.23303 0.2394 0.0
H281 H 0.71085 0.21903 0.27878 0.0
C282 C 0.74182 0.23592 0.2326 0.0
H283 H 0.73864 0.24219 0.21635 0.0
H284 H 0.78216 0.23694 0.22846 0.0
H285 H 0.46517 0.08782 0.96026 0.0
C286 C 0.45448 0.07159 0.96522 0.0
C287 C 0.45009 0.0711 0.98866 0.0
C288 C 0.44374 0.05185 0.94793 0.0
H289 H 0.43208 0.04956 0.01259 0.0
C290 C 0.43518 0.05028 0.99454 0.0
C291 C 0.42413 0.03042 0.97737 0.0
C292 C 0.42864 0.03136 0.95403 0.0
C293 C 0.44522 0.05417 0.92332 0.0
H294 H 0.41952 0.01667 0.94048 0.0
C295 C 0.46609 0.04758 0.91069 0.0
C296 C 0.46684 0.04959 0.88704 0.0
C297 C 0.42525 0.06299 0.9124 0.0
H298 H 0.40907 0.06815 0.92194 0.0
C299 C 0.42602 0.06531 0.88914 0.0
H300 H 0.48135 0.04049 0.91914 0.0
C301 C 0.44661 0.05869 0.87652 0.0
H302 H 0.44681 0.06094 0.85854 0.0
H303 H 0.4106 0.07228 0.88085 0.0
C304 C 0.21104 0.90118 0.02862 0.0
O305 O 0.22148 0.90299 0.00888 0.0
O306 O 0.24355 0.84629 0.00316 0.0
Zn307 Zn 0.25066 0.87084 0.03335 0.0
O308 O 0.27935 0.89736 0.02866 0.0
C309 C 0.24593 0.83861 0.068 0.0
O310 O 0.2227 0.83183 0.05827 0.0
O311 O 0.21982 0.88777 0.0417 0.0
C312 C 0.29746 0.89268 0.01569 0.0
O313 O 0.29804 0.86981 0.0055 0.0
C314 C 0.24914 0.82444 1.00062 0.0
O315 O 0.25894 0.81667 0.01847 0.0
O316 O 0.26111 0.85464 0.0601 0.0
C317 C 0.1721 0.47387 0.24483 0.0
O318 O 0.18122 0.49172 0.23395 0.0
O319 O 0.10175 0.50251 0.27021 0.0
Zn320 Zn 0.12803 0.49957 0.24597 0.0
O321 O 0.15158 0.53226 0.24873 0.0
C322 C 0.09327 0.50624 0.21054 0.0
O323 O 0.09001 0.52441 0.22717 0.0
O324 O 0.14925 0.47283 0.25113 0.0
C325 C 0.159 0.54117 0.23106 0.0
O326 O 0.15104 0.52906 0.21028 0.0
C327 C 0.10642 0.5154 0.29039 0.0
O328 O 0.12958 0.52725 0.29635 0.0
O329 O 0.10908 0.49181 0.21435 0.0
C330 C 0.85769 0.61634 0.98229 0.0
O331 O 0.86359 0.63841 0.97696 0.0
O332 O 0.81166 0.64812 0.95419 0.0
Zn333 Zn 0.80562 0.62761 0.97959 0.0
O334 O 0.77263 0.60412 0.9721 0.0
C335 C 0.8106 0.67199 0.01636 0.0
O336 O 0.82259 0.68409 1.00157 0.0
O337 O 0.83432 0.60789 0.98369 0.0
C338 C 0.76335 0.59308 0.98792 0.0
O339 O 0.77576 0.5971 0.00832 0.0
C340 C 0.79706 0.6641 0.95199 0.0
O341 O 0.7785 0.66667 0.9661 0.0
O342 O 0.80242 0.64906 0.01044 0.0
C343 C 0.87349 0.03714 0.28577 0.0
O344 O 0.86316 0.01701 0.27162 0.0
O345 O 0.93901 0.00645 0.31259 0.0
Zn346 Zn 0.91697 0.0104 0.28478 0.0
O347 O 0.89294 0.97832 0.27397 0.0
C348 C 0.95135 1.00053 0.24822 0.0
O349 O 0.94814 0.97861 0.25425 0.0
O350 O 0.89648 0.0387 0.29373 0.0
C351 C 0.88609 0.97035 0.25273 0.0
O352 O 0.89387 0.9837 0.23713 0.0
C353 C 0.94356 0.98507 0.31509 0.0
O354 O 0.93361 0.96585 0.29961 0.0
O355 O 0.94007 0.01748 0.25898 0.0
C356 C 0.34379 0.10024 0.48182 0.0
O357 O 0.32599 0.08907 0.46588 0.0
O358 O 0.31871 0.15855 0.45886 0.0
Zn359 Zn 0.31198 0.13893 0.4847 0.0
O360 O 0.28046 0.11354 0.47611 0.0
C361 C 0.32037 0.17981 0.52379 0.0
O362 O 0.34276 0.18486 0.51531 0.0
O363 O 0.3422 0.12206 0.49198 0.0
C364 C 0.27095 0.1026 0.49189 0.0
O365 O 0.28235 0.10778 0.51277 0.0
C366 C 0.30066 0.169 0.45187 0.0
O367 O 0.27868 0.16646 0.4616 0.0
O368 O 0.30463 0.16154 0.51347 0.0
C369 C 0.37825 0.54735 0.80186 0.0
O370 O 0.37205 0.52904 0.81314 0.0
O371 O 0.43535 0.51178 0.80743 0.0
Zn372 Zn 0.41258 0.51513 0.77981 0.0
O373 O 0.38606 0.48472 0.77251 0.0
C374 C 0.45034 0.50401 0.74608 0.0
O375 O 0.45477 0.48765 0.75896 0.0
O376 O 0.39517 0.54551 0.78705 0.0
C377 C 0.37181 0.47891 0.75394 0.0
O378 O 0.37343 0.49378 0.73866 0.0
C379 C 0.43768 0.49026 0.81127 0.0
O380 O 0.42544 0.47093 0.79719 0.0
O381 O 0.43342 0.51778 0.75173 0.0
C382 C 0.70809 0.39279 0.52188 0.0
O383 O 0.71753 0.39354 0.50156 0.0
O384 O 0.74075 0.33847 0.49712 0.0
Zn385 Zn 0.74806 0.36251 0.52738 0.0
O386 O 0.77803 0.3875 0.52205 0.0
C387 C 0.7746 0.35447 0.56912 0.0
O388 O 0.78817 0.37561 0.56717 0.0
O389 O 0.71769 0.38029 0.5354 0.0
C390 C 0.78067 0.41023 0.53123 0.0
O391 O 0.76386 0.41801 0.54562 0.0
C392 C 0.7411 0.31531 0.49483 0.0
O393 O 0.74485 0.30548 0.51332 0.0
O394 O 0.7566 0.34499 0.55394 0.0
C395 C 0.66772 0.96182 0.73746 0.0
O396 O 0.67699 0.97328 0.72105 0.0
O397 O 0.60436 0.00409 0.76233 0.0
Zn398 Zn 0.63121 0.99684 0.7394 0.0
O399 O 0.65844 0.02656 0.74167 0.0
C400 C 0.59074 0.987 0.70252 0.0
O401 O 0.5757 0.98644 0.71982 0.0
O402 O 0.6479 0.96821 0.74706 0.0
C403 C 0.65249 0.04735 0.73888 0.0
O404 O 0.62827 0.04941 0.73529 0.0
C405 C 0.60945 0.01272 0.78375 0.0
O406 O 0.63344 0.01759 0.79183 0.0
O407 O 0.61487 0.99009 0.70669 0.0
C408 C 0.03006 0.17945 0.91467 0.0
O409 O 0.00798 0.1722 0.90283 0.0
O410 O 0.00629 0.20814 0.86627 0.0
Zn411 Zn 0.03959 0.21902 0.88587 0.0
O412 O 0.04025 0.25434 0.90196 0.0
C413 C 0.06963 0.22159 0.84488 0.0
O414 O 0.04796 0.22383 0.83432 0.0
O415 O 0.04486 0.19789 0.91013 0.0
C416 C 0.03622 0.27057 0.88986 0.0
O417 O 0.03131 0.26378 0.86741 0.0
C418 C 0.98612 0.21582 0.87398 0.0
O419 O 0.98726 0.22881 0.89499 0.0
O420 O 0.06995 0.21879 0.86596 0.0
C421 C 0.53458 0.67626 0.41287 0.0
O422 O 0.5117 0.67043 0.40227 0.0
O423 O 0.51153 0.70438 0.36373 0.0
Zn424 Zn 0.54507 0.71466 0.38303 0.0
O425 O 0.54568 0.74988 0.39911 0.0
C426 C 0.57738 0.72527 0.34571 0.0
O427 O 0.55898 0.73723 0.34003 0.0
O428 O 0.55022 0.69351 0.40726 0.0
C429 C 0.56622 0.76496 0.40438 0.0
O430 O 0.58825 0.75741 0.39974 0.0
C431 C 0.49203 0.71323 0.3717 0.0
O432 O 0.49416 0.72669 0.39255 0.0
O433 O 0.57501 0.71386 0.36276 0.0
C434 C 0.00891 0.79931 0.62011 0.0
O435 O 0.98443 0.79047 0.61828 0.0
O436 O 0.98467 0.77221 0.67288 0.0
Zn437 Zn 0.0117 0.76336 0.65054 0.0
O438 O 0.99761 0.7336 0.62648 0.0
C439 C 0.04965 0.76391 0.68848 0.0
O440 O 0.03651 0.77946 0.70058 0.0
O441 O 0.02379 0.79118 0.63356 0.0
C442 C 0.0119 0.72569 0.61077 0.0
O443 O 0.03533 0.73719 0.61069 0.0
C444 C 0.97 0.75483 0.6794 0.0
O445 O 0.97283 0.73185 0.67132 0.0
O446 O 0.04235 0.75498 0.66749 0.0
C447 C 0.50658 0.29735 0.1219 0.0
O448 O 0.48179 0.29182 0.12331 0.0
O449 O 0.48518 0.26687 0.17379 0.0
Zn450 Zn 0.51072 0.25842 0.14982 0.0
O451 O 0.49611 0.22821 0.12648 0.0
C452 C 0.54967 0.25929 0.18674 0.0
O453 O 0.53583 0.27378 0.19931 0.0
O454 O 0.52167 0.28623 0.13231 0.0
C455 C 0.5102 0.22069 0.11045 0.0
O456 O 0.53324 0.23286 0.10985 0.0
C457 C 0.46114 0.2641 0.16931 0.0
O458 O 0.45189 0.25603 0.14788 0.0
O459 O 0.54247 0.25072 0.16567 0.0
H460 H 0.25926 0.77437 0.85453 0.0
H461 H 0.25256 0.77509 0.98991 0.0
H462 H 0.24857 0.70747 0.88373 0.0
H463 H 0.24097 0.83794 0.95837 0.0
H464 H 0.25219 0.75013 0.95132 0.0
H465 H 0.25336 0.79808 0.89239 0.0
C466 C 0.25531 0.76455 0.86877 0.0
C467 C 0.25446 0.73876 0.86578 0.0
C468 C 0.24951 0.76933 0.95284 0.0
C469 C 0.24831 0.76608 0.90951 0.0
C470 C 0.24977 0.78362 0.97487 0.0
C471 C 0.24689 0.80869 0.97739 0.0
C472 C 0.2467 0.78025 0.93314 0.0
C473 C 0.24325 0.81869 0.95726 0.0
C474 C 0.25211 0.77818 0.89047 0.0
C475 C 0.24986 0.72731 0.88518 0.0
N476 N 0.24351 0.80451 0.93599 0.0
N477 N 0.24716 0.74104 0.90621 0.0
H478 H 0.01294 0.56218 0.40402 0.0
H479 H 0.05649 0.49338 0.28354 0.0
H480 H 0.96159 0.51416 0.35151 0.0
H481 H 0.10891 0.54285 0.33424 0.0
H482 H 0.02212 0.49881 0.30969 0.0
H483 H 0.049 0.55313 0.38039 0.0
C484 C 0.00928 0.54955 0.38765 0.0
C485 C 0.98417 0.53915 0.37961 0.0
C486 C 0.04115 0.50843 0.31518 0.0
C487 C 0.02524 0.52884 0.35244 0.0
C488 C 0.06083 0.50533 0.30022 0.0
C489 C 0.08565 0.51777 0.30662 0.0
C490 C 0.0462 0.52415 0.33676 0.0
C491 C 0.09006 0.53295 0.32853 0.0
C492 C 0.02984 0.5445 0.37411 0.0
C493 C 0.98055 0.523 0.3582 0.0
N494 N 0.07051 0.5358 0.34277 0.0
N495 N 1.00078 0.51846 0.34537 0.0
H496 H 0.82276 0.72608 0.82685 0.0
H497 H 0.7815 0.709 0.95241 0.0
H498 H 0.81995 0.78794 0.88191 0.0
H499 H 0.82263 0.6565 0.91202 0.0
H500 H 0.78902 0.73618 0.92381 0.0
H501 H 0.81723 0.69831 0.85523 0.0
C502 C 0.82114 0.73393 0.84483 0.0
C503 C 0.82161 0.75954 0.8518 0.0
C504 C 0.79642 0.71872 0.92123 0.0
C505 C 0.81458 0.72764 0.88419 0.0
C506 C 0.79203 0.70314 0.93746 0.0
C507 C 0.80148 0.68046 0.93459 0.0
C508 C 0.80991 0.71139 0.90169 0.0
C509 C 0.81512 0.67388 0.91493 0.0
C510 C 0.81786 0.718 0.86097 0.0
C511 C 0.81899 0.76838 0.87541 0.0
N512 N 0.81876 0.6892 0.89909 0.0
N513 N 0.81536 0.75247 0.89064 0.0
H514 H 0.04531 0.00561 0.43864 0.0
H515 H 0.95856 0.94215 0.32384 0.0
H516 H 0.04417 0.92995 0.40512 0.0
H517 H 0.96679 0.02025 0.35122 0.0
H518 H 0.98705 0.93681 0.35562 0.0
H519 H 0.01386 0.01076 0.40885 0.0
C520 C 0.03843 0.99006 0.42507 0.0
C521 C 0.04751 0.96731 0.42442 0.0
C522 C 0.98261 0.95513 0.35474 0.0
C523 C 0.01132 0.97306 0.39034 0.0
C524 C 0.96629 0.95821 0.33658 0.0
C525 C 0.96032 0.98172 0.33477 0.0
C526 C 0.99308 0.97569 0.37135 0.0
C527 C 0.97093 1.0018 0.35186 0.0
C528 C 0.02041 0.993 0.40811 0.0
C529 C 0.03754 0.94772 0.40659 0.0
N530 N 0.98683 0.99833 0.36942 0.0
N531 N 0.0201 0.95108 0.39027 0.0
H532 H 0.32472 0.27982 0.65484 0.0
H533 H 0.27594 0.17373 0.54597 0.0
H534 H 0.2524 0.23201 0.64979 0.0
H535 H 0.34976 0.21923 0.55158 0.0
H536 H 0.26601 0.19678 0.58291 0.0
H537 H 0.33311 0.25993 0.61595 0.0
C538 C 0.31047 0.26533 0.64545 0.0
C539 C 0.28784 0.25752 0.65562 0.0
C540 C 0.28435 0.2018 0.57605 0.0
C541 C 0.29747 0.23446 0.6112 0.0
C542 C 0.29006 0.18864 0.55492 0.0
C543 C 0.3138 0.19446 0.54569 0.0
C544 C 0.30251 0.22096 0.58814 0.0
C545 C 0.33126 0.21404 0.55807 0.0
C546 C 0.31536 0.25386 0.62331 0.0
C547 C 0.27025 0.23839 0.64276 0.0
N548 N 0.3253 0.22653 0.57871 0.0
N549 N 0.27546 0.22749 0.62128 0.0
H550 H 0.56306 0.49589 0.64263 0.0
H551 H 0.44319 0.53263 0.71315 0.0
H552 H 0.50847 0.53841 0.61824 0.0
H553 H 0.49063 0.48049 0.73138 0.0
H554 H 0.46759 0.536 0.6789 0.0
H555 H 0.53719 0.49058 0.67554 0.0
C556 C 0.54548 0.50388 0.644 0.0
C557 C 0.53799 0.51764 0.62754 0.0
C558 C 0.47262 0.52378 0.69037 0.0
C559 C 0.50848 0.51202 0.6656 0.0
C560 C 0.45874 0.52189 0.70997 0.0
C561 C 0.46488 0.50627 0.72521 0.0
C562 C 0.49293 0.51008 0.686 0.0
C563 C 0.48519 0.49276 0.72014 0.0
C564 C 0.5308 0.50098 0.66293 0.0
C565 C 0.51525 0.52796 0.63062 0.0
N566 N 0.49851 0.49504 0.70103 0.0
N567 N 0.50138 0.52502 0.64929 0.0
H568 H 0.76617 0.26404 0.67748 0.0
H569 H 0.8109 0.37084 0.60465 0.0
H570 H 0.8195 0.3298 0.70356 0.0
H571 H 0.74949 0.31136 0.5801 0.0
H572 H 0.81743 0.35295 0.63915 0.0
H573 H 0.76303 0.2779 0.63989 0.0
C574 C 0.77741 0.28122 0.6752 0.0
C575 C 0.7929 0.29594 0.69371 0.0
C576 C 0.80256 0.3437 0.62622 0.0
C577 C 0.7894 0.31188 0.65097 0.0
C578 C 0.79882 0.35392 0.60644 0.0
C579 C 0.77947 0.34271 0.58946 0.0
C580 C 0.78687 0.32203 0.62921 0.0
C581 C 0.76455 0.32071 0.59278 0.0
C582 C 0.7755 0.28919 0.65383 0.0
C583 C 0.80699 0.31808 0.68988 0.0
N584 N 0.76848 0.31113 0.61233 0.0
N585 N 0.80484 0.32538 0.66903 0.0
H586 H 0.56984 0.0025 0.55907 0.0
H587 H 0.54015 0.98103 0.68764 0.0
H588 H 0.49333 0.9872 0.58144 0.0
H589 H 0.61623 0.99185 0.66325 0.0
H590 H 0.52251 0.9829 0.64898 0.0
H591 H 0.58697 0.99865 0.59722 0.0
C592 C 0.5566 0.99818 0.57197 0.0
C593 C 0.53005 0.99502 0.56692 0.0
C594 C 0.54305 0.98476 0.65206 0.0
C595 C 0.54966 0.99087 0.61094 0.0
C596 C 0.55316 0.98365 0.67414 0.0
C597 C 0.57975 0.98634 0.67876 0.0
C598 C 0.55962 0.98868 0.63443 0.0
C599 C 0.59563 0.98969 0.66053 0.0
C600 C 0.56642 0.99609 0.59382 0.0
C601 C 0.5139 0.99 0.58457 0.0
N602 N 0.58532 0.99086 0.63924 0.0
N603 N 0.52395 0.98805 0.60577 0.0
H604 H 0.84823 0.24506 0.8081 0.0
H605 H 0.97526 0.18764 0.83052 0.0
H606 H 0.86566 0.17933 0.76472 0.0
H607 H 0.94319 0.23728 0.88264 0.0
H608 H 0.93704 0.18562 0.80485 0.0
H609 H 0.88511 0.24431 0.83415 0.0
C610 C 0.85995 0.23054 0.80401 0.0
C611 C 0.85399 0.21232 0.78416 0.0
C612 C 0.93835 0.19679 0.82198 0.0
C613 C 0.89623 0.21125 0.81397 0.0
C614 C 0.96014 0.19796 0.83663 0.0
C615 C 0.96247 0.21269 0.85877 0.0
C616 C 0.91896 0.21071 0.82941 0.0
C617 C 0.94227 0.22567 0.86576 0.0
C618 C 0.88088 0.23 0.81897 0.0
C619 C 0.86958 0.19368 0.77989 0.0
N620 N 0.92152 0.22453 0.85108 0.0
N621 N 0.89013 0.19371 0.79459 0.0
H622 H 0.51608 0.90382 0.46054 0.0
H623 H 0.60557 0.80357 0.41262 0.0
H624 H 0.59359 0.9229 0.44203 0.0
H625 H 0.52439 0.78584 0.41925 0.0
H626 H 0.60285 0.84694 0.42763 0.0
H627 H 0.52024 0.86005 0.44996 0.0
C628 C 0.53407 0.89879 0.4545 0.0
C629 C 0.55449 0.91703 0.45209 0.0
C630 C 0.58566 0.83354 0.42587 0.0
C631 C 0.55931 0.86698 0.43974 0.0
C632 C 0.5872 0.80876 0.41735 0.0
C633 C 0.56515 0.79105 0.41456 0.0
C634 C 0.56192 0.84066 0.43177 0.0
C635 C 0.54186 0.79887 0.421 0.0
C636 C 0.53638 0.87381 0.4483 0.0
C637 C 0.57726 0.90944 0.44388 0.0
N638 N 0.54086 0.82309 0.42926 0.0
N639 N 0.57904 0.885 0.43797 0.0
H640 H 0.18576 0.23924 0.7456 0.0
H641 H 0.11762 0.2182 0.86192 0.0
H642 H 0.22534 0.22666 0.80719 0.0
H643 H 0.07679 0.22964 0.80046 0.0
H644 H 0.15739 0.22242 0.84227 0.0
H645 H 0.14596 0.23775 0.76574 0.0
C646 C 0.18615 0.23646 0.76344 0.0
C647 C 0.20891 0.23294 0.77468 0.0
C648 C 0.13975 0.22402 0.83304 0.0
C649 C 0.16337 0.23086 0.79772 0.0
C650 C 0.11698 0.22155 0.84425 0.0
C651 C 0.09376 0.22351 0.83282 0.0
C652 C 0.13943 0.22849 0.81017 0.0
C653 C 0.09421 0.22793 0.80994 0.0
C654 C 0.16338 0.23541 0.77486 0.0
C655 C 0.20818 0.22908 0.79772 0.0
N656 N 0.11668 0.23027 0.79936 0.0
N657 N 0.18581 0.22807 0.80842 0.0
H658 H 0.53706 0.58976 0.52342 0.0
H659 H 0.58093 0.68296 0.43697 0.0
H660 H 0.61011 0.63645 0.5296 0.0
H661 H 0.5057 0.64015 0.43169 0.0
H662 H 0.59294 0.66301 0.46884 0.0
H663 H 0.52645 0.6045 0.48756 0.0
C664 C 0.55101 0.60282 0.51705 0.0
C665 C 0.57441 0.61207 0.52962 0.0
C666 C 0.57381 0.65787 0.4607 0.0
C667 C 0.56233 0.62918 0.48882 0.0
C668 C 0.56691 0.6693 0.44246 0.0
C669 C 0.54217 0.66338 0.43169 0.0
C670 C 0.55589 0.64035 0.4684 0.0
C671 C 0.52494 0.64538 0.43954 0.0
C672 C 0.54487 0.61136 0.49669 0.0
C673 C 0.59168 0.62913 0.52067 0.0
N674 N 0.53208 0.63459 0.4575 0.0
N675 N 0.58524 0.6372 0.50094 0.0
H676 H 0.87842 0.82363 0.78457 0.0
H677 H 0.9341 0.7218 0.6946 0.0
H678 H 0.84817 0.74596 0.77206 0.0
H679 H 0.96089 0.79998 0.70241 0.0
H680 H 0.90232 0.73057 0.72275 0.0
H681 H 0.90816 0.81571 0.75415 0.0
C682 C 0.8778 0.80495 0.77527 0.0
C683 C 0.86074 0.78542 0.78098 0.0
C684 C 0.91507 0.74585 0.71829 0.0
C685 C 0.89511 0.77617 0.74632 0.0
C686 C 0.93329 0.74085 0.7022 0.0
C687 C 0.95028 0.76018 0.69613 0.0
C688 C 0.9138 0.77038 0.72855 0.0
C689 C 0.94821 0.78449 0.70656 0.0
C690 C 0.89493 0.80042 0.75799 0.0
C691 C 0.8612 0.76154 0.76854 0.0
N692 N 0.93037 0.78889 0.72232 0.0
N693 N 0.87813 0.7576 0.7519 0.0
H694 H 0.10868 0.86515 0.52825 0.0
H695 H 0.98292 0.82111 0.58967 0.0
H696 H 0.03497 0.88423 0.51065 0.0
H697 H 0.05925 0.81601 0.61521 0.0
H698 H 1.00125 0.84552 0.56157 0.0
H699 H 0.09081 0.84828 0.56103 0.0
C700 C 0.08872 0.86589 0.53141 0.0
C701 C 0.0732 0.87588 0.51663 0.0
C702 C 0.01397 0.83927 0.5735 0.0
C703 C 0.0525 0.85645 0.55408 0.0
C704 C 0.00352 0.82531 0.58954 0.0
C705 C 0.01956 0.8163 0.60472 0.0
C706 C 0.04065 0.84406 0.57247 0.0
C707 C 0.04611 0.82244 0.6038 0.0
C708 C 0.07853 0.85635 0.55018 0.0
C709 C 0.04756 0.8767 0.52167 0.0
N710 N 0.05579 0.83569 0.58781 0.0
N711 N 0.0379 0.86681 0.53983 0.0
H712 H 0.18421 0.75867 0.77632 0.0
H713 H 0.08173 0.73331 0.66777 0.0
H714 H 0.19594 0.71877 0.70873 0.0
H715 H 0.07187 0.7802 0.73246 0.0
H716 H 0.12187 0.72469 0.68407 0.0
H717 H 0.14123 0.76352 0.76219 0.0
C718 C 0.17765 0.75075 0.75859 0.0
C719 C 0.19376 0.73853 0.7436 0.0
C720 C 0.11093 0.73682 0.69477 0.0
C721 C 0.14478 0.74405 0.72733 0.0
C722 C 0.08794 0.74174 0.68546 0.0
C723 C 0.07343 0.75765 0.6987 0.0
C724 C 0.11961 0.74785 0.71754 0.0
C725 C 0.08247 0.76792 0.72157 0.0
C726 C 0.1532 0.75363 0.7505 0.0
C727 C 0.18434 0.72871 0.72077 0.0
N728 N 0.10504 0.76292 0.73024 0.0
N729 N 0.16057 0.73175 0.71334 0.0
H730 H 0.91959 0.59865 0.52747 0.0
H731 H 0.03774 0.70367 0.5752 0.0
H732 H 0.99303 0.60212 0.49745 0.0
H733 H 0.9645 0.69765 0.60561 0.0
H734 H 0.0218 0.66721 0.54612 0.0
H735 H 0.93582 0.6354 0.55569 0.0
C736 C 0.93925 0.60703 0.52693 0.0
C737 C 0.95507 0.59703 0.51021 0.0
C738 C 0.00923 0.67388 0.55914 0.0
C739 C 0.97374 0.63961 0.54243 0.0
C740 C 0.0183 0.69472 0.57577 0.0
C741 C 0.00244 0.70376 0.59292 0.0
C742 C 0.9841 0.66197 0.55963 0.0
C743 C 0.97743 0.69137 0.59275 0.0
C744 C 0.94847 0.62817 0.54299 0.0
C745 C 0.98015 0.60918 0.51 0.0
N746 N 0.96907 0.67114 0.5764 0.0
N747 N 0.98875 0.6298 0.52592 0.0
H748 H 0.78239 0.83223 0.24085 0.0
H749 H 0.88097 0.94188 0.20969 0.0
H750 H 0.83766 0.82116 0.18897 0.0
H751 H 0.85677 0.94259 0.27926 0.0
H752 H 0.85779 0.90002 0.19836 0.0
H753 H 0.80302 0.87515 0.25223 0.0
C754 C 0.79879 0.83868 0.23184 0.0
C755 C 0.80808 0.82287 0.21375 0.0
C756 C 0.85749 0.90941 0.21608 0.0
C757 C 0.83122 0.87214 0.22635 0.0
C758 C 0.87059 0.93332 0.22254 0.0
C759 C 0.87088 0.94566 0.24548 0.0
C760 C 0.84422 0.8979 0.23257 0.0
C761 C 0.85716 0.93363 0.26143 0.0
C762 C 0.81044 0.86322 0.2383 0.0
C763 C 0.82922 0.8326 0.20254 0.0
N764 N 0.84428 0.91039 0.25465 0.0
N765 N 0.83993 0.85657 0.20893 0.0
H766 H 0.81956 0.1757 0.34038 0.0
H767 H 0.8247 0.03951 0.27045 0.0
H768 H 0.76381 0.13712 0.28644 0.0
H769 H 0.88785 0.08168 0.31506 0.0
H770 H 0.80031 0.07369 0.27958 0.0
H771 H 0.84287 0.13998 0.33491 0.0
C772 C 0.8121 0.15961 0.32758 0.0
C773 C 0.78981 0.1594 0.31374 0.0
C774 C 0.81949 0.07552 0.28742 0.0
C775 C 0.81635 0.11864 0.30733 0.0
C776 C 0.83347 0.05596 0.28222 0.0
C777 C 0.85847 0.05774 0.29188 0.0
C778 C 0.83048 0.09714 0.30247 0.0
C779 C 0.86869 0.07953 0.30712 0.0
C780 C 0.82548 0.13932 0.32436 0.0
C781 C 0.78109 0.13818 0.29728 0.0
N782 N 0.85467 0.09842 0.31191 0.0
N783 N 0.79437 0.11872 0.29452 0.0
H784 H 0.42079 0.9808 0.95994 0.0
H785 H 0.30232 0.942 0.03418 0.0
H786 H 0.3873 0.03242 0.00905 0.0
H787 H 0.33721 0.88957 0.98709 0.0
H788 H 0.33388 0.97523 0.02563 0.0
H789 H 0.39075 0.94702 0.96987 0.0
C790 C 0.40713 0.98504 0.9728 0.0
C791 C 0.40664 0.00951 0.9837 0.0
C792 C 0.3347 0.95645 0.01721 0.0
C793 C 0.37223 0.9709 0.99523 0.0
C794 C 0.31666 0.93744 0.0221 0.0
C795 C 0.31705 0.91292 0.01131 0.0
C796 C 0.35327 0.95099 1.00135 0.0
C797 C 0.33614 0.90818 0.99581 0.0
C798 C 0.39005 0.96573 0.97855 0.0
C799 C 0.38867 0.01384 1.00043 0.0
N800 N 0.35342 0.92703 0.99124 0.0
N801 N 0.37218 0.99477 0.00561 0.0
H802 H 0.2388 0.35874 0.29984 0.0
H803 H 0.22384 0.4771 0.24177 0.0
H804 H 0.29859 0.42046 0.30242 0.0
H805 H 0.15925 0.43172 0.26337 0.0
H806 H 0.25226 0.45101 0.25598 0.0
H807 H 0.21032 0.37996 0.2785 0.0
C808 C 0.24602 0.37653 0.29549 0.0
C809 C 0.27097 0.38797 0.30287 0.0
C810 C 0.23185 0.44666 0.25746 0.0
C811 C 0.23876 0.41219 0.27863 0.0
C812 C 0.21556 0.4615 0.24928 0.0
C813 C 0.18909 0.45675 0.25157 0.0
C814 C 0.22165 0.42671 0.2678 0.0
C815 C 0.17955 0.43619 0.26144 0.0
C816 C 0.22977 0.38868 0.28352 0.0
C817 C 0.27942 0.41112 0.29708 0.0
N818 N 0.19583 0.42195 0.26926 0.0
N819 N 0.26335 0.42248 0.28532 0.0
H820 H 0.13832 0.99566 0.503 0.0
H821 H 0.24161 0.08824 0.45104 0.0
H822 H 0.13395 0.00754 0.43221 0.0
H823 H 0.24573 0.07638 0.52188 0.0
H824 H 0.20187 0.05912 0.44388 0.0
H825 H 0.17737 0.02568 0.5104 0.0
C826 C 0.14556 0.0046 0.48902 0.0
C827 C 0.1328 0.99907 0.46696 0.0
C828 C 0.21147 0.06289 0.46099 0.0
C829 C 0.17751 0.03353 0.4753 0.0
C830 C 0.2342 0.07949 0.46508 0.0
C831 C 0.24707 0.08475 0.48709 0.0
C832 C 0.20152 0.05143 0.47903 0.0
C833 C 0.23651 0.07289 0.50463 0.0
C834 C 0.16782 0.0218 0.49326 0.0
C835 C 0.14292 0.01145 0.44956 0.0
N836 N 0.21438 0.0568 0.50022 0.0
N837 N 0.1647 0.02802 0.45408 0.0
H838 H 0.79627 0.14306 0.73701 0.0
H839 H 0.64634 0.09532 0.73755 0.0
H840 H 0.73919 0.19173 0.7489 0.0
H841 H 0.70451 0.0482 0.74028 0.0
H842 H 0.67982 0.13038 0.73752 0.0
H843 H 0.76253 0.10759 0.73375 0.0
C844 C 0.77667 0.14633 0.73884 0.0
C845 C 0.77067 0.17051 0.74334 0.0
C846 C 0.68526 0.11237 0.73812 0.0
C847 C 0.73188 0.12989 0.73945 0.0
C848 C 0.66614 0.09233 0.73814 0.0
C849 C 0.67261 0.06878 0.73902 0.0
C850 C 0.71106 0.10886 0.73883 0.0
C851 C 0.69863 0.06603 0.73971 0.0
C852 C 0.7574 0.12604 0.73694 0.0
C853 C 0.7448 0.17351 0.74513 0.0
N854 N 0.71688 0.08581 0.73958 0.0
N855 N 0.72642 0.15347 0.74327 0.0
H856 H 0.44825 0.99403 0.4865 0.0
H857 H 0.38293 0.1168 0.51532 0.0
H858 H 0.47755 0.05463 0.54125 0.0
H859 H 0.35286 0.05389 0.46308 0.0
H860 H 0.41738 0.09452 0.52563 0.0
H861 H 0.41267 0.01565 0.47846 0.0
C862 C 0.44716 0.01192 0.49686 0.0
C863 C 0.46603 0.02263 0.51445 0.0
C864 C 0.40321 0.0856 0.51195 0.0
C865 C 0.42519 0.04759 0.50535 0.0
C866 C 0.38356 0.09833 0.506 0.0
C867 C 0.36498 0.08724 0.48824 0.0
C868 C 0.40432 0.06162 0.50002 0.0
C869 C 0.36675 0.06323 0.47684 0.0
C870 C 0.42679 0.02425 0.49231 0.0
C871 C 0.46338 0.04566 0.5276 0.0
N872 N 0.38605 0.05129 0.48289 0.0
N873 N 0.44344 0.05747 0.52267 0.0
H874 H 0.59851 0.49685 0.53462 0.0
H875 H 0.68645 0.39785 0.56387 0.0
H876 H 0.60779 0.47725 0.6023 0.0
H877 H 0.68364 0.42214 0.49777 0.0
H878 H 0.65486 0.42445 0.57715 0.0
H879 H 0.62714 0.46749 0.51984 0.0
C880 C 0.6065 0.48638 0.54638 0.0
C881 C 0.60063 0.48959 0.56977 0.0
C882 C 0.66107 0.42391 0.5597 0.0
C883 C 0.63333 0.45577 0.55289 0.0
C884 C 0.6791 0.40867 0.55208 0.0
C885 C 0.68783 0.4078 0.52968 0.0
C886 C 0.65159 0.43845 0.54486 0.0
C887 C 0.67754 0.42226 0.5152 0.0
C888 C 0.62278 0.46954 0.53789 0.0
C889 C 0.61135 0.4752 0.58408 0.0
N890 N 0.66004 0.43703 0.52306 0.0
N891 N 0.62718 0.45903 0.57543 0.0
H892 H 0.74366 0.19702 0.37777 0.0
H893 H 0.73983 0.3309 0.45295 0.0
H894 H 0.76061 0.26526 0.35144 0.0
H895 H 0.74008 0.26512 0.48316 0.0
H896 H 0.74167 0.30615 0.41465 0.0
H897 H 0.73723 0.22086 0.41561 0.0
C898 C 0.74609 0.21698 0.37989 0.0
C899 C 0.75278 0.22908 0.36128 0.0
C900 C 0.74121 0.2971 0.42964 0.0
C901 C 0.74501 0.25646 0.40455 0.0
C902 C 0.74006 0.31121 0.45155 0.0
C903 C 0.73996 0.30011 0.47137 0.0
C904 C 0.74214 0.27165 0.42745 0.0
C905 C 0.74025 0.27449 0.4684 0.0
C906 C 0.74227 0.23057 0.40149 0.0
C907 C 0.75512 0.25501 0.36507 0.0
N908 N 0.74141 0.26114 0.44686 0.0
N909 N 0.75128 0.26779 0.38623 0.0
H910 H 0.51843 0.05811 0.89965 0.0
H911 H 0.55788 0.00278 0.7729 0.0
H912 H 0.46442 0.02433 0.84254 0.0
H913 H 0.61308 0.0325 0.83017 0.0
H914 H 0.52352 0.01022 0.79862 0.0
H915 H 0.55347 0.04805 0.87518 0.0
C916 C 0.51391 0.04839 0.88206 0.0
C917 C 0.48841 0.04228 0.8731 0.0
C918 C 0.54314 0.01508 0.80562 0.0
C919 C 0.52841 0.03095 0.84491 0.0
C920 C 0.56281 0.01087 0.7909 0.0
C921 C 0.58846 0.01707 0.79934 0.0
C922 C 0.54904 0.02567 0.82903 0.0
C923 C 0.5936 0.02745 0.82289 0.0
C924 C 0.53393 0.04278 0.86805 0.0
C925 C 0.48376 0.02987 0.85008 0.0
N926 N 0.57408 0.03149 0.83689 0.0
N927 N 0.50351 0.02473 0.83682 0.0
H928 H 0.27916 0.26531 0.35321 0.0
H929 H 0.34379 0.17925 0.42832 0.0
H930 H 0.35769 0.25276 0.34845 0.0
H931 H 0.26567 0.19322 0.43307 0.0
H932 H 0.34909 0.20493 0.3982 0.0
H933 H 0.27368 0.23782 0.38164 0.0
C934 C 0.29528 0.25679 0.35816 0.0
C935 C 0.31896 0.26148 0.34846 0.0
C936 C 0.33078 0.20232 0.40581 0.0
C937 C 0.31277 0.22974 0.38101 0.0
C938 C 0.32774 0.18766 0.42302 0.0
C939 C 0.30426 0.1841 0.43331 0.0
C940 C 0.3102 0.21351 0.39883 0.0
C941 C 0.28414 0.19546 0.4257 0.0
C942 C 0.29211 0.24099 0.37435 0.0
C943 C 0.33903 0.24954 0.35528 0.0
N944 N 0.28759 0.20965 0.40899 0.0
N945 N 0.33551 0.23432 0.3712 0.0
H946 H 0.53285 0.42782 0.90156 0.0
H947 H 0.46345 0.5255 0.8461 0.0
H948 H 0.53654 0.50402 0.93451 0.0
H949 H 0.44969 0.44677 0.82136 0.0
H950 H 0.49112 0.51858 0.87812 0.0
H951 H 0.50274 0.4348 0.87181 0.0
C952 C 0.52708 0.44596 0.90278 0.0
C953 C 0.53729 0.46533 0.9207 0.0
C954 C 0.48195 0.50284 0.8657 0.0
C955 C 0.50313 0.47364 0.88615 0.0
C956 C 0.46621 0.50678 0.8474 0.0
C957 C 0.45426 0.4867 0.83098 0.0
C958 C 0.4859 0.47866 0.86749 0.0
C959 C 0.45848 0.46284 0.83357 0.0
C960 C 0.51 0.44999 0.88562 0.0
C961 C 0.52947 0.4886 0.92089 0.0
N962 N 0.474 0.45951 0.85138 0.0
N963 N 0.51296 0.49213 0.90383 0.0
H964 H 0.78017 0.77666 0.13597 0.0
H965 H 0.79833 0.65118 0.05422 0.0
H966 H 0.79917 0.71274 0.16232 0.0
H967 H 0.81342 0.72181 0.03195 0.0
H968 H 0.79167 0.67243 0.09304 0.0
H969 H 0.78582 0.75578 0.09669 0.0
C970 C 0.78556 0.75831 0.1336 0.0
C971 C 0.78918 0.74651 0.15266 0.0
C972 C 0.79646 0.68326 0.07965 0.0
C973 C 0.79508 0.72239 0.10764 0.0
C974 C 0.80019 0.67117 0.05748 0.0
C975 C 0.80653 0.68477 0.03986 0.0
C976 C 0.79868 0.70914 0.08418 0.0
C977 C 0.80872 0.71064 0.04509 0.0
C978 C 0.78868 0.7464 0.11114 0.0
C979 C 0.79564 0.72248 0.14829 0.0
N980 N 0.80466 0.72201 0.06679 0.0
N981 N 0.79829 0.71122 0.12628 0.0
H982 H 0.04986 0.06416 0.1523 0.0
H983 H 0.96846 0.9661 0.21575 0.0
H984 H 0.02702 0.98786 0.12033 0.0
H985 H 0.96945 0.04478 0.23533 0.0
H986 H 0.99364 0.97339 0.18279 0.0
H987 H 0.02384 0.05711 0.18468 0.0
C988 C 0.03921 0.04597 0.15189 0.0
C989 C 0.04062 0.02662 0.13331 0.0
C990 C 0.98831 0.98905 0.19428 0.0
C991 C 0.01124 0.01832 0.17088 0.0
C992 C 0.97404 0.98493 0.21317 0.0
C993 C 0.96684 0.00488 0.22836 0.0
C994 C 0.99578 0.01332 0.19066 0.0
C995 C 0.97452 0.02886 0.22405 0.0
C996 C 0.02447 0.04195 0.17052 0.0
C997 C 0.02687 0.00329 0.1343 0.0
N998 N 0.98869 0.03242 0.20567 0.0
N999 N 0.01285 0.99979 0.15277 0.0
H1000 H 0.31991 0.8212 0.19632 0.0
H1001 H 0.21994 0.80141 0.08726 0.0
H1002 H 0.25765 0.76082 0.18302 0.0
H1003 H 0.29066 0.85196 0.09501 0.0
H1004 H 0.23317 0.78585 0.12183 0.0
H1005 H 0.30953 0.83218 0.15885 0.0
C1006 C 0.30411 0.81016 0.18538 0.0
C1007 C 0.28948 0.79019 0.19283 0.0
C1008 C 0.24585 0.80022 0.11586 0.0
C1009 C 0.2773 0.80277 0.14988 0.0
C1010 C 0.23829 0.80918 0.09616 0.0
C1011 C 0.25414 0.82815 0.08826 0.0
C1012 C 0.26935 0.81044 0.12791 0.0
C1013 C 0.27776 0.8374 0.10046 0.0
C1014 C 0.29821 0.81639 0.16396 0.0
C1015 C 0.26941 0.77632 0.17788 0.0
N1016 N 0.28453 0.82859 0.11972 0.0
N1017 N 0.2637 0.78305 0.1572 0.0
H1018 H 0.03733 0.46286 0.06619 0.0
H1019 H 0.06216 0.53692 0.19625 0.0
H1020 H 0.02177 0.53742 0.08794 0.0
H1021 H 0.09427 0.47045 0.17201 0.0
H1022 H 0.04222 0.53441 0.15764 0.0
H1023 H 0.05353 0.46261 0.10575 0.0
C1024 C 0.03725 0.47917 0.07922 0.0
C1025 C 0.02819 0.50024 0.07356 0.0
C1026 C 0.05356 0.52031 0.16075 0.0
C1027 C 0.04644 0.49988 0.11901 0.0
C1028 C 0.06493 0.52169 0.18284 0.0
C1029 C 0.08006 0.50394 0.18739 0.0
C1030 C 0.05717 0.50096 0.14298 0.0
C1031 C 0.08287 0.48461 0.16927 0.0
C1032 C 0.04643 0.47895 0.10184 0.0
C1033 C 0.02815 0.5206 0.0914 0.0
N1034 N 0.07157 0.48366 0.14783 0.0
N1035 N 0.03717 0.51992 0.11323 0.0
H1036 H 0.36865 0.67578 0.26348 0.0
H1037 H 0.45047 0.73651 0.38129 0.0
H1038 H 0.35579 0.74362 0.30636 0.0
H1039 H 0.47907 0.68476 0.32858 0.0
H1040 H 0.41246 0.73505 0.35606 0.0
H1041 H 0.40637 0.67494 0.28894 0.0
C1042 C 0.37379 0.69048 0.27824 0.0
C1043 C 0.3592 0.70989 0.28276 0.0
C1044 C 0.42701 0.72396 0.35001 0.0
C1045 C 0.40197 0.70889 0.31198 0.0
C1046 C 0.4487 0.72466 0.36446 0.0
C1047 C 0.4681 0.7108 0.35702 0.0
C1048 C 0.42445 0.7091 0.32796 0.0
C1049 C 0.46464 0.69581 0.33499 0.0
C1050 C 0.39531 0.69003 0.29268 0.0
C1051 C 0.3667 0.7285 0.30206 0.0
N1052 N 0.44322 0.69535 0.32121 0.0
N1053 N 0.38745 0.72747 0.316 0.0
H1054 H 0.0527 0.4109 0.98475 0.0
H1055 H 0.03083 0.30975 0.86838 0.0
H1056 H 0.04757 0.42842 0.91594 0.0
H1057 H 0.04471 0.29135 0.93594 0.0
H1058 H 0.03425 0.35315 0.88609 0.0
H1059 H 0.04711 0.36685 0.96778 0.0
C1060 C 0.0503 0.40548 0.9661 0.0
C1061 C 0.05078 0.42338 0.95173 0.0
C1062 C 0.03654 0.33965 0.89708 0.0
C1063 C 0.04444 0.37311 0.93222 0.0
C1064 C 0.03455 0.31482 0.88697 0.0
C1065 C 0.03758 0.29686 0.90067 0.0
C1066 C 0.04154 0.3467 0.92113 0.0
C1067 C 0.04232 0.30458 0.9247 0.0
C1068 C 0.04723 0.38036 0.95642 0.0
C1069 C 0.04776 0.41531 0.92767 0.0
N1070 N 0.04418 0.32894 0.93417 0.0
N1071 N 0.04471 0.39082 0.9187 0.0
H1072 H 0.69459 0.7405 0.24709 0.0
H1073 H 0.62197 0.70968 0.35794 0.0
H1074 H 0.73238 0.72439 0.3081 0.0
H1075 H 0.58773 0.74365 0.30584 0.0
H1076 H 0.6619 0.71272 0.33842 0.0
H1077 H 0.65487 0.74061 0.26724 0.0
C1078 C 0.69467 0.7373 0.2648 0.0
C1079 C 0.7169 0.73223 0.27582 0.0
C1080 C 0.64568 0.71956 0.33125 0.0
C1081 C 0.67132 0.73182 0.29878 0.0
C1082 C 0.6228 0.7177 0.34233 0.0
C1083 C 0.60142 0.72639 0.3335 0.0
C1084 C 0.64725 0.72998 0.31104 0.0
C1085 C 0.60373 0.73672 0.31326 0.0
C1086 C 0.67192 0.7372 0.27623 0.0
C1087 C 0.71566 0.72788 0.29869 0.0
N1088 N 0.62622 0.73815 0.30264 0.0
N1089 N 0.69326 0.7276 0.30931 0.0
H1090 H 0.11025 0.14209 0.03151 0.0
H1091 H 0.00234 0.14139 0.93184 0.0
H1092 H 0.03694 0.09595 0.02584 0.0
H1093 H 0.07552 0.18821 0.94043 0.0
H1094 H 0.01546 0.12181 0.96399 0.0
H1095 H 0.09894 0.15602 0.99571 0.0
C1096 C 0.0918 0.13475 0.02259 0.0
C1097 C 0.0744 0.11803 0.03179 0.0
C1098 C 0.02866 0.13628 0.95873 0.0
C1099 C 0.06116 0.13405 0.99073 0.0
C1100 C 0.02118 0.14749 0.94039 0.0
C1101 C 0.03777 0.16662 0.93349 0.0
C1102 C 0.05291 0.14424 0.97022 0.0
C1103 C 0.06198 0.17368 0.94519 0.0
C1104 C 0.08533 0.14271 0.00213 0.0
C1105 C 0.05093 0.10882 0.01931 0.0
N1106 N 0.06874 0.16257 0.96296 0.0
N1107 N 0.04486 0.11716 0.99953 0.0
H1108 H 0.33309 0.29695 0.25213 0.0
H1109 H 0.47254 0.27129 0.21608 0.0
H1110 H 0.38838 0.27631 0.29837 0.0
H1111 H 0.40997 0.26771 0.16571 0.0
H1112 H 0.44319 0.27784 0.24704 0.0
H1113 H 0.3622 0.29072 0.22069 0.0
C1114 C 0.35135 0.2911 0.25564 0.0
C1115 C 0.3583 0.28702 0.27784 0.0
C1116 C 0.43589 0.27562 0.22921 0.0
C1117 C 0.3917 0.2801 0.24211 0.0
C1118 C 0.45265 0.27199 0.21152 0.0
C1119 C 0.4437 0.26889 0.18824 0.0
C1120 C 0.41 0.27647 0.22366 0.0
C1121 C 0.41769 0.26991 0.1834 0.0
C1122 C 0.36788 0.28747 0.2377 0.0
C1123 C 0.38213 0.27936 0.28144 0.0
N1124 N 0.40177 0.2737 0.20096 0.0
N1125 N 0.39802 0.27629 0.26382 0.0
H1126 H 0.59776 0.35711 0.02092 0.0
H1127 H 0.48028 0.32482 0.0971 0.0
H1128 H 0.52683 0.38637 0.01503 0.0
H1129 H 0.5562 0.30821 0.11075 0.0
H1130 H 0.49708 0.3491 0.06833 0.0
H1131 H 0.58327 0.3408 0.05514 0.0
C1132 C 0.57919 0.36027 0.02701 0.0
C1133 C 0.56337 0.37292 0.01506 0.0
C1134 C 0.5101 0.34036 0.07781 0.0
C1135 C 0.54648 0.35408 0.05412 0.0
C1136 C 0.50051 0.32646 0.09423 0.0
C1137 C 0.51679 0.31424 0.10624 0.0
C1138 C 0.5361 0.34188 0.07321 0.0
C1139 C 0.54287 0.31715 0.10185 0.0
C1140 C 0.57093 0.35101 0.04657 0.0
C1141 C 0.53961 0.37675 0.0238 0.0
N1142 N 0.55163 0.33044 0.08556 0.0
N1143 N 0.53172 0.36706 0.04264 0.0
H1144 H 0.69828 0.21455 0.2034 0.0
H1145 H 0.57086 0.27407 0.23119 0.0
H1146 H 0.68438 0.25193 0.27141 0.0
H1147 H 0.58375 0.23167 0.16499 0.0
H1148 H 0.61173 0.26565 0.24668 0.0
H1149 H 0.65584 0.22011 0.18947 0.0
C1150 C 0.68627 0.22399 0.21541 0.0
C1151 C 0.69499 0.23302 0.23855 0.0
C1152 C 0.60555 0.25811 0.2288 0.0
C1153 C 0.64616 0.23937 0.22272 0.0
C1154 C 0.58222 0.26293 0.21992 0.0
C1155 C 0.57388 0.25366 0.1967 0.0
C1156 C 0.6207 0.24399 0.21434 0.0
C1157 C 0.58939 0.23928 0.18296 0.0
C1158 C 0.66196 0.22706 0.20747 0.0
C1159 C 0.67839 0.24464 0.25345 0.0
N1160 N 0.61205 0.23499 0.19196 0.0
N1161 N 0.65482 0.24765 0.24524 0.0
H1162 H 0.49688 0.10057 0.99314 0.0
H1163 H 0.46381 0.19079 0.10644 0.0
H1164 H 0.42498 0.09155 0.0255 0.0
H1165 H 0.53575 0.19998 0.07415 0.0
H1166 H 0.44936 0.15419 0.07706 0.0
H1167 H 0.51158 0.13695 0.02273 0.0
C1168 C 0.48417 0.10624 0.00644 0.0
C1169 C 0.45969 0.09289 0.00684 0.0
C1170 C 0.46831 0.16421 0.0764 0.0
C1171 C 0.47643 0.13449 0.04087 0.0
C1172 C 0.47657 0.18513 0.09318 0.0
C1173 C 0.50103 0.1985 0.09278 0.0
C1174 C 0.48461 0.15658 0.05906 0.0
C1175 C 0.51673 0.19027 0.07516 0.0
C1176 C 0.49261 0.12696 0.02339 0.0
C1177 C 0.44416 0.10099 0.02467 0.0
N1178 N 0.50826 0.16987 0.05903 0.0
N1179 N 0.45277 0.12125 0.04091 0.0
H1180 H 0.31065 0.32645 0.7521 0.0
H1181 H 0.33975 0.45944 0.71547 0.0
H1182 H 0.27974 0.34353 0.68854 0.0
H1183 H 0.36615 0.44297 0.78087 0.0
H1184 H 0.31521 0.41796 0.70634 0.0
H1185 H 0.32826 0.36991 0.76416 0.0
C1186 C 0.30718 0.33938 0.74082 0.0
C1187 C 0.29378 0.33122 0.71918 0.0
C1188 C 0.32622 0.4235 0.72276 0.0
C1189 C 0.31445 0.38109 0.73273 0.0
C1190 C 0.34024 0.44719 0.72799 0.0
C1191 C 0.3552 0.45466 0.74889 0.0
C1192 C 0.32724 0.4071 0.73851 0.0
C1193 C 0.35502 0.438 0.76449 0.0
C1194 C 0.31744 0.36421 0.74765 0.0
C1195 C 0.29032 0.34887 0.70518 0.0
N1196 N 0.34143 0.41498 0.7589 0.0
N1197 N 0.30075 0.37291 0.71211 0.0
H1198 H 0.27617 0.65399 0.84596 0.0
H1199 H 0.38594 0.58816 0.78099 0.0
H1200 H 0.32019 0.68297 0.79351 0.0
H1201 H 0.34071 0.55721 0.83173 0.0
H1202 H 0.36333 0.624 0.78685 0.0
H1203 H 0.30104 0.61955 0.84271 0.0
C1204 C 0.29118 0.65321 0.83389 0.0
C1205 C 0.29595 0.67131 0.81986 0.0
C1206 C 0.35837 0.60941 0.79676 0.0
C1207 C 0.32436 0.63185 0.81592 0.0
C1208 C 0.3713 0.58891 0.79342 0.0
C1209 C 0.36518 0.56956 0.80582 0.0
C1210 C 0.3391 0.61067 0.81262 0.0
C1211 C 0.34603 0.57164 0.82174 0.0
C1212 C 0.30528 0.63348 0.83195 0.0
C1213 C 0.31551 0.66923 0.80438 0.0
N1214 N 0.33364 0.59178 0.82464 0.0
N1215 N 0.32892 0.64986 0.8028 0.0
H1216 H 0.88065 0.54281 0.51628 0.0
H1217 H 0.8183 0.40072 0.50135 0.0
H1218 H 0.90852 0.48425 0.47041 0.0
H1219 H 0.79145 0.46004 0.54709 0.0
H1220 H 0.85221 0.43058 0.49053 0.0
H1221 H 0.84877 0.51235 0.52854 0.0
C1222 C 0.88027 0.52349 0.50895 0.0
C1223 C 0.89748 0.5161 0.49238 0.0
C1224 C 0.83894 0.43704 0.50298 0.0
C1225 C 0.86052 0.48101 0.50611 0.0
C1226 C 0.81957 0.42 0.50919 0.0
C1227 C 0.80193 0.42788 0.52513 0.0
C1228 C 0.8407 0.46217 0.51275 0.0
C1229 C 0.80456 0.45309 0.53472 0.0
C1230 C 0.86189 0.50609 0.51585 0.0
C1231 C 0.89556 0.49082 0.4831 0.0
N1232 N 0.82351 0.46931 0.52834 0.0
N1233 N 0.87742 0.47419 0.49009 0.0
H1234 H 0.73125 0.8797 0.83133 0.0
H1235 H 0.71138 0.94452 0.72188 0.0
H1236 H 0.78233 0.87687 0.77565 0.0
H1237 H 0.65605 0.93755 0.77358 0.0
H1238 H 0.73631 0.9176 0.7395 0.0
H1239 H 0.70212 0.89841 0.80877 0.0
C1240 C 0.73617 0.88284 0.81419 0.0
C1241 C 0.75929 0.87696 0.80539 0.0
C1242 C 0.71858 0.92176 0.74683 0.0
C1243 C 0.72616 0.89869 0.77947 0.0
C1244 C 0.70432 0.93716 0.73679 0.0
C1245 C 0.68167 0.94354 0.74639 0.0
C1246 C 0.71022 0.91279 0.7667 0.0
C1247 C 0.67345 0.93331 0.76565 0.0
C1248 C 0.71953 0.8935 0.80129 0.0
C1249 C 0.76466 0.88115 0.78302 0.0
N1250 N 0.68782 0.91868 0.77527 0.0
N1251 N 0.74837 0.8921 0.77092 0.0
H1252 H 0.62738 0.49051 1.00074 0.0
H1253 H 0.73261 0.5804 0.94783 0.0
H1254 H 0.62383 0.50196 0.92977 0.0
H1255 H 0.73803 0.5673 0.01822 0.0
H1256 H 0.69208 0.55251 0.94126 0.0
H1257 H 0.66738 0.51935 0.00788 0.0
C1258 C 0.63498 0.4991 0.98667 0.0
C1259 C 0.62212 0.49387 0.96466 0.0
C1260 C 0.70212 0.55573 0.95815 0.0
C1261 C 0.66787 0.52695 0.97271 0.0
C1262 C 0.72529 0.57166 0.96191 0.0
C1263 C 0.73879 0.57618 0.9836 0.0
C1264 C 0.69232 0.54421 0.97621 0.0
C1265 C 0.72833 0.56434 1.0012 0.0
C1266 C 0.65778 0.51562 0.99077 0.0
C1267 C 0.63278 0.50573 0.94713 0.0
N1268 N 0.70574 0.54891 0.99712 0.0
N1269 N 0.65501 0.52164 0.95153 0.0
H1270 H 0.27792 0.66296 0.28308 0.0
H1271 H 0.17612 0.56686 0.19725 0.0
H1272 H 0.2624 0.66977 0.21191 0.0
H1273 H 0.1842 0.56795 0.27093 0.0
H1274 H 0.20804 0.60392 0.20182 0.0
H1275 H 0.24432 0.62743 0.27845 0.0
C1276 C 0.26752 0.65685 0.2664 0.0
C1277 C 0.27318 0.66919 0.24776 0.0
C1278 C 0.20274 0.59612 0.21699 0.0
C1279 C 0.23436 0.62854 0.2424 0.0
C1280 C 0.18453 0.57492 0.21441 0.0
C1281 C 0.1775 0.56421 0.23374 0.0
C1282 C 0.21416 0.60661 0.23904 0.0
C1283 C 0.18901 0.57554 0.25554 0.0
C1284 C 0.24819 0.63666 0.26382 0.0
C1285 C 0.25865 0.6608 0.22672 0.0
N1286 N 0.20684 0.59602 0.25757 0.0
N1287 N 0.24 0.64089 0.22455 0.0
H1288 H 0.94576 0.51541 0.03666 0.0
H1289 H 0.90891 0.62571 0.97578 0.0
H1290 H 0.99705 0.55478 0.99542 0.0
H1291 H 0.85289 0.57424 1.0014 0.0
H1292 H 0.94231 0.60219 0.98582 0.0
H1293 H 0.91231 0.53933 0.0272 0.0
C1294 C 0.95 0.52918 0.02573 0.0
C1295 C 0.97416 0.53305 0.01673 0.0
C1296 C 0.92269 0.59602 0.98919 0.0
C1297 C 0.93608 0.56043 0.00582 0.0
C1298 C 0.90361 0.60945 0.98348 0.0
C1299 C 0.87804 0.60192 0.9877 0.0
C1300 C 0.91623 0.57502 0.99942 0.0
C1301 C 0.87233 0.58068 0.99774 0.0
C1302 C 0.93089 0.54271 0.02022 0.0
C1303 C 0.97859 0.551 0.0025 0.0
N1304 N 0.89128 0.56804 0.00335 0.0
N1305 N 0.95977 0.56405 0.99754 0.0
H1306 H 0.10017 0.00394 0.04024 0.0
H1307 H 0.18874 0.90579 0.07034 0.0
H1308 H 0.11203 0.98741 0.10885 0.0
H1309 H 0.18697 0.93075 0.00453 0.0
H1310 H 0.15717 0.93253 0.08351 0.0
H1311 H 0.12887 0.97454 0.02578 0.0
C1312 C 0.10876 0.99416 0.05228 0.0
C1313 C 0.10355 0.99822 0.07583 0.0
C1314 C 0.16362 0.9321 0.06616 0.0
C1315 C 0.13627 0.96428 0.05929 0.0
C1316 C 0.18161 0.91676 0.05859 0.0
C1317 C 0.19065 0.91608 0.03631 0.0
C1318 C 0.15446 0.94685 0.05134 0.0
C1319 C 0.18065 0.93073 0.02187 0.0
C1320 C 0.12507 0.97729 0.04397 0.0
C1321 C 0.11503 0.98467 0.0905 0.0
N1322 N 0.16316 0.94555 0.02965 0.0
N1323 N 0.13082 0.96839 0.082 0.0
loop_
_geom_bond_atom_site_label_1
_geom_bond_atom_site_label_2
_geom_bond_distance
_geom_bond_site_symmetry_2
_ccdc_geom_bond_type
H0 C1 0.949 . S
C1 H0 0.949 . S
C1 C2 1.395 . S
C1 C3 1.391 . S
C2 C1 1.395 . S
C2 C5 1.390 . S
C3 C1 1.391 . S
C3 C7 1.387 . S
C3 C8 1.491 . S
H4 C5 0.933 1_565 S
C5 C2 1.390 . S
C5 H4 0.933 1_545 S
C5 C6 1.378 . S
C6 C5 1.378 . S
C6 C7 1.409 . S
C7 C3 1.387 . S
C7 C6 1.409 . S
C7 H9 0.951 . S
C8 C3 1.491 . S
C8 C10 1.382 . S
C8 C12 1.404 . S
H9 C7 0.951 . S
C10 C8 1.382 . S
C10 C11 1.390 . S
C10 H15 0.949 . S
C11 C10 1.390 . S
C11 C16 1.399 . S
C12 C8 1.404 . S
C12 H13 0.950 . S
C12 C14 1.375 . S
H13 C12 0.950 . S
C14 C12 1.375 . S
C14 C16 1.382 . S
C14 H18 0.950 . S
H15 C10 0.949 . S
C16 C11 1.399 . S
C16 C14 1.382 . S
C16 H17 0.952 . S
H17 C16 0.952 . S
H18 C14 0.950 . S
H19 C20 0.949 . S
C20 H19 0.949 . S
C20 C21 1.395 . S
C20 C22 1.391 . S
C21 C20 1.395 . S
C21 C24 1.390 . S
C22 C20 1.391 . S
C22 C26 1.387 . S
C22 C27 1.491 . S
H23 C24 0.950 . S
C24 C21 1.390 . S
C24 H23 0.950 . S
C24 C25 1.378 . S
C25 C24 1.378 . S
C25 C26 1.409 . S
C26 C22 1.387 . S
C26 C25 1.409 . S
C26 H28 0.951 . S
C27 C22 1.491 . S
C27 C29 1.382 . S
C27 C31 1.404 . S
H28 C26 0.951 . S
C29 C27 1.382 . S
C29 C30 1.390 . S
C29 H34 0.949 . S
C30 C29 1.390 . S
C30 C35 1.399 . S
C31 C27 1.404 . S
C31 H32 0.950 . S
C31 C33 1.375 . S
H32 C31 0.950 . S
C33 C31 1.375 . S
C33 C35 1.382 . S
C33 H37 0.950 . S
H34 C29 0.949 . S
C35 C30 1.399 . S
C35 C33 1.382 . S
C35 H36 0.952 . S
H36 C35 0.952 . S
H37 C33 0.950 . S
H38 C39 0.949 . S
C39 H38 0.949 . S
C39 C40 1.395 . S
C39 C41 1.391 1_455 S
C40 C39 1.395 . S
C40 C43 1.390 1_455 S
C41 C39 1.391 1_655 S
C41 C45 1.387 . S
C41 C46 1.487 1_654 S
H42 C43 0.950 . S
C43 C40 1.390 1_655 S
C43 H42 0.950 . S
C43 C44 1.378 . S
C44 C43 1.378 . S
C44 C45 1.409 . S
C45 C41 1.387 . S
C45 C44 1.409 . S
C45 H47 0.951 1_554 S
C46 C41 1.487 1_456 S
C46 C48 1.386 . S
C46 C50 1.404 . S
H47 C45 0.951 1_556 S
C48 C46 1.386 . S
C48 C49 1.390 . S
C48 H53 0.949 1_556 S
C49 C48 1.390 . S
C49 C54 1.399 . S
C50 C46 1.404 . S
C50 H51 0.948 1_455 S
C50 C52 1.375 . S
H51 C50 0.948 1_655 S
C52 C50 1.375 . S
C52 C54 1.382 . S
C52 H56 0.950 . S
H53 C48 0.949 1_554 S
C54 C49 1.399 . S
C54 C52 1.382 . S
C54 H55 0.952 . S
H55 C54 0.952 . S
H56 C52 0.950 . S
H57 C58 0.949 . S
C58 H57 0.949 . S
C58 C59 1.395 . S
C58 C60 1.391 . S
C59 C58 1.395 . S
C59 C62 1.390 . S
C60 C58 1.391 . S
C60 C64 1.387 . S
C60 C65 1.491 . S
H61 C62 0.950 . S
C62 C59 1.390 . S
C62 H61 0.950 . S
C62 C63 1.378 . S
C63 C62 1.378 . S
C63 C64 1.409 . S
C64 C60 1.387 . S
C64 C63 1.409 . S
C64 H66 0.951 . S
C65 C60 1.491 . S
C65 C67 1.382 . S
C65 C69 1.404 . S
H66 C64 0.951 . S
C67 C65 1.382 . S
C67 C68 1.390 . S
C67 H72 0.949 . S
C68 C67 1.390 . S
C68 C73 1.399 . S
C69 C65 1.404 . S
C69 H70 0.950 . S
C69 C71 1.375 . S
H70 C69 0.950 . S
C71 C69 1.375 . S
C71 C73 1.382 . S
C71 H75 0.950 . S
H72 C67 0.949 . S
C73 C68 1.399 . S
C73 C71 1.382 . S
C73 H74 0.952 . S
H74 C73 0.952 . S
H75 C71 0.950 . S
H76 C77 0.949 . S
C77 H76 0.949 . S
C77 C78 1.395 . S
C77 C79 1.391 . S
C78 C77 1.395 . S
C78 C81 1.390 . S
C79 C77 1.391 . S
C79 C83 1.387 . S
C79 C84 1.491 . S
H80 C81 0.950 1_545 S
C81 C78 1.390 . S
C81 H80 0.950 1_565 S
C81 C82 1.378 . S
C82 C81 1.378 . S
C82 C83 1.409 . S
C83 C79 1.387 . S
C83 C82 1.409 . S
C83 H85 0.951 . S
C84 C79 1.491 . S
C84 C86 1.382 . S
C84 C88 1.404 . S
H85 C83 0.951 . S
C86 C84 1.382 . S
C86 C87 1.390 . S
C86 H91 0.949 . S
C87 C86 1.390 . S
C87 C92 1.399 . S
C88 C84 1.404 . S
C88 H89 0.950 . S
C88 C90 1.375 . S
H89 C88 0.950 . S
C90 C88 1.375 . S
C90 C92 1.382 . S
C90 H94 0.950 . S
H91 C86 0.949 . S
C92 C87 1.399 . S
C92 C90 1.382 . S
C92 H93 0.952 . S
H93 C92 0.952 . S
H94 C90 0.950 . S
H95 C96 0.949 . S
C96 H95 0.949 . S
C96 C97 1.395 . S
C96 C98 1.391 . S
C97 C96 1.395 . S
C97 C100 1.390 . S
C98 C96 1.391 . S
C98 C102 1.387 . S
C98 C103 1.491 . S
H99 C100 0.950 . S
C100 C97 1.390 . S
C100 H99 0.950 . S
C100 C101 1.378 . S
C101 C100 1.378 . S
C101 C102 1.409 . S
C102 C98 1.387 . S
C102 C101 1.409 . S
C102 H104 0.951 . S
C103 C98 1.491 . S
C103 C105 1.382 . S
C103 C107 1.404 . S
H104 C102 0.951 . S
C105 C103 1.382 . S
C105 C106 1.390 . S
C105 H110 0.949 . S
C106 C105 1.390 . S
C106 C111 1.399 . S
C107 C103 1.404 . S
C107 H108 0.950 . S
C107 C109 1.375 . S
H108 C107 0.950 . S
C109 C107 1.375 . S
C109 C111 1.382 . S
C109 H113 0.950 . S
H110 C105 0.949 . S
C111 C106 1.399 . S
C111 C109 1.382 . S
C111 H112 0.952 . S
H112 C111 0.952 . S
H113 C109 0.950 . S
H114 C115 0.949 . S
C115 H114 0.949 . S
C115 C116 1.395 . S
C115 C117 1.391 . S
C116 C115 1.395 . S
C116 C119 1.390 . S
C117 C115 1.391 . S
C117 C121 1.387 . S
C117 C122 1.491 . S
H118 C119 0.950 . S
C119 C116 1.390 . S
C119 H118 0.950 . S
C119 C120 1.378 . S
C120 C119 1.378 . S
C120 C121 1.409 . S
C121 C117 1.387 . S
C121 C120 1.409 . S
C121 H123 0.951 . S
C122 C117 1.491 . S
C122 C124 1.422 . S
C122 C126 1.404 . S
H123 C121 0.951 . S
C124 C122 1.422 . S
C124 C125 1.375 1_655 S
C124 H129 0.924 1_655 S
C125 C124 1.375 1_455 S
C125 C130 1.399 1_455 S
C126 C122 1.404 . S
C126 H127 0.950 . S
C126 C128 1.375 . S
H127 C126 0.950 . S
C128 C126 1.375 . S
C128 C130 1.382 . S
C128 H132 0.950 . S
H129 C124 0.924 1_455 S
C130 C125 1.399 1_655 S
C130 C128 1.382 . S
C130 H131 0.952 . S
H131 C130 0.952 . S
H132 C128 0.950 . S
H133 C134 0.949 . S
C134 H133 0.949 . S
C134 C135 1.395 . S
C134 C136 1.391 . S
C135 C134 1.395 . S
C135 C138 1.390 . S
C136 C134 1.391 . S
C136 C140 1.387 . S
C136 C141 1.491 . S
H137 C138 0.950 . S
C138 C135 1.390 . S
C138 H137 0.950 . S
C138 C139 1.378 . S
C139 C138 1.378 . S
C139 C140 1.409 . S
C140 C136 1.387 . S
C140 C139 1.409 . S
C140 H142 0.951 . S
C141 C136 1.491 . S
C141 C143 1.382 . S
C141 C145 1.404 . S
H142 C140 0.951 . S
C143 C141 1.382 . S
C143 C144 1.390 . S
C143 H148 0.949 . S
C144 C143 1.390 . S
C144 C149 1.399 . S
C145 C141 1.404 . S
C145 H146 0.950 . S
C145 C147 1.375 . S
H146 C145 0.950 . S
C147 C145 1.375 . S
C147 C149 1.382 . S
C147 H151 0.950 . S
H148 C143 0.949 . S
C149 C144 1.399 . S
C149 C147 1.382 . S
C149 H150 0.952 . S
H150 C149 0.952 . S
H151 C147 0.950 . S
H152 C153 0.949 . S
C153 H152 0.949 . S
C153 C154 1.395 . S
C153 C155 1.391 . S
C154 C153 1.395 . S
C154 C157 1.390 . S
C155 C153 1.391 . S
C155 C159 1.387 . S
C155 C160 1.491 . S
H156 C157 0.950 . S
C157 C154 1.390 . S
C157 H156 0.950 . S
C157 C158 1.378 . S
C158 C157 1.378 . S
C158 C159 1.409 . S
C159 C155 1.387 . S
C159 C158 1.409 . S
C159 H161 0.951 . S
C160 C155 1.491 . S
C160 C162 1.382 . S
C160 C164 1.404 . S
H161 C159 0.951 . S
C162 C160 1.382 . S
C162 C163 1.390 . S
C162 H167 0.949 . S
C163 C162 1.390 . S
C163 C168 1.399 . S
C164 C160 1.404 . S
C164 H165 0.950 . S
C164 C166 1.375 . S
H165 C164 0.950 . S
C166 C164 1.375 . S
C166 C168 1.382 . S
C166 H170 0.950 . S
H167 C162 0.949 . S
C168 C163 1.399 . S
C168 C166 1.382 . S
C168 H169 0.952 . S
H169 C168 0.952 . S
H170 C166 0.950 . S
H171 C172 0.949 . S
C172 H171 0.949 . S
C172 C173 1.395 . S
C172 C174 1.391 . S
C173 C172 1.395 . S
C173 C176 1.390 . S
C174 C172 1.391 . S
C174 C178 1.387 . S
C174 C179 1.491 . S
H175 C176 0.950 1_545 S
C176 C173 1.390 . S
C176 H175 0.950 1_565 S
C176 C177 1.378 . S
C177 C176 1.378 . S
C177 C178 1.409 . S
C178 C174 1.387 . S
C178 C177 1.409 . S
C178 H180 0.951 . S
C179 C174 1.491 . S
C179 C181 1.382 . S
C179 C183 1.404 . S
H180 C178 0.951 . S
C181 C179 1.382 . S
C181 C182 1.390 . S
C181 H186 0.949 . S
C182 C181 1.390 . S
C182 C187 1.399 . S
C183 C179 1.404 . S
C183 H184 0.950 . S
C183 C185 1.375 . S
H184 C183 0.950 . S
C185 C183 1.375 . S
C185 C187 1.382 . S
C185 H189 0.950 . S
H186 C181 0.949 . S
C187 C182 1.399 . S
C187 C185 1.382 . S
C187 H188 0.952 . S
H188 C187 0.952 . S
H189 C185 0.950 . S
H190 C191 0.949 . S
C191 H190 0.949 . S
C191 C192 1.395 . S
C191 C193 1.391 . S
C192 C191 1.395 . S
C192 C195 1.390 . S
C193 C191 1.391 . S
C193 C197 1.387 . S
C193 C198 1.491 . S
H194 C195 0.950 . S
C195 C192 1.390 . S
C195 H194 0.950 . S
C195 C196 1.378 . S
C196 C195 1.378 . S
C196 C197 1.409 . S
C197 C193 1.387 . S
C197 C196 1.409 . S
C197 H199 0.951 . S
C198 C193 1.491 . S
C198 C200 1.382 . S
C198 C202 1.404 . S
H199 C197 0.951 . S
C200 C198 1.382 . S
C200 C201 1.390 . S
C200 H205 0.949 . S
C201 C200 1.390 . S
C201 C206 1.399 . S
C202 C198 1.404 . S
C202 H203 0.950 . S
C202 C204 1.375 . S
H203 C202 0.950 . S
C204 C202 1.375 . S
C204 C206 1.382 . S
C204 H208 0.950 . S
H205 C200 0.949 . S
C206 C201 1.399 . S
C206 C204 1.382 . S
C206 H207 0.952 . S
H207 C206 0.952 . S
H208 C204 0.950 . S
H209 C210 0.949 . S
C210 H209 0.949 . S
C210 C211 1.395 . S
C210 C212 1.391 . S
C211 C210 1.395 . S
C211 C214 1.390 . S
C212 C210 1.391 . S
C212 C216 1.387 . S
C212 C217 1.491 . S
H213 C214 0.950 . S
C214 C211 1.390 . S
C214 H213 0.950 . S
C214 C215 1.378 . S
C215 C214 1.378 . S
C215 C216 1.409 . S
C216 C212 1.387 . S
C216 C215 1.409 . S
C216 H218 0.951 . S
C217 C212 1.491 . S
C217 C219 1.382 . S
C217 C221 1.404 . S
H218 C216 0.951 . S
C219 C217 1.382 . S
C219 C220 1.390 . S
C219 H224 0.949 . S
C220 C219 1.390 . S
C220 C225 1.399 . S
C221 C217 1.404 . S
C221 H222 0.950 . S
C221 C223 1.375 . S
H222 C221 0.950 . S
C223 C221 1.375 . S
C223 C225 1.382 . S
C223 H227 0.950 . S
H224 C219 0.949 . S
C225 C220 1.399 . S
C225 C223 1.382 . S
C225 H226 0.952 . S
H226 C225 0.952 . S
H227 C223 0.950 . S
H228 C229 0.949 . S
C229 H228 0.949 . S
C229 C230 1.395 . S
C229 C231 1.391 . S
C230 C229 1.395 . S
C230 C233 1.390 . S
C231 C229 1.391 . S
C231 C235 1.387 . S
C231 C236 1.491 . S
H232 C233 0.950 . S
C233 C230 1.390 . S
C233 H232 0.950 . S
C233 C234 1.378 . S
C234 C233 1.378 . S
C234 C235 1.409 . S
C235 C231 1.387 . S
C235 C234 1.409 . S
C235 H237 0.951 . S
C236 C231 1.491 . S
C236 C238 1.382 . S
C236 C240 1.404 . S
H237 C235 0.951 . S
C238 C236 1.382 . S
C238 C239 1.390 . S
C238 H243 0.949 . S
C239 C238 1.390 . S
C239 C244 1.399 . S
C240 C236 1.404 . S
C240 H241 0.950 . S
C240 C242 1.375 . S
H241 C240 0.950 . S
C242 C240 1.375 . S
C242 C244 1.382 . S
C242 H246 0.950 . S
H243 C238 0.949 . S
C244 C239 1.399 . S
C244 C242 1.382 . S
C244 H245 0.952 . S
H245 C244 0.952 . S
H246 C242 0.950 . S
H247 C248 0.949 1_554 S
C248 H247 0.949 1_556 S
C248 C249 1.395 . S
C248 C250 1.391 . S
C249 C248 1.395 . S
C249 C252 1.390 . S
C250 C248 1.391 . S
C250 C254 1.387 . S
C250 C255 1.491 . S
H251 C252 0.950 . S
C252 C249 1.390 . S
C252 H251 0.950 . S
C252 C253 1.378 . S
C253 C252 1.378 . S
C253 C254 1.409 . S
C254 C250 1.387 . S
C254 C253 1.409 . S
C254 H256 0.951 . S
C255 C250 1.491 . S
C255 C257 1.382 1_556 S
C255 C259 1.404 . S
H256 C254 0.951 . S
C257 C255 1.382 1_554 S
C257 C258 1.390 . S
C257 H262 0.949 . S
C258 C257 1.390 . S
C258 C263 1.399 . S
C259 C255 1.404 . S
C259 H260 0.950 . S
C259 C261 1.375 . S
H260 C259 0.950 . S
C261 C259 1.375 . S
C261 C263 1.382 1_556 S
C261 H265 0.950 . S
H262 C257 0.949 . S
C263 C258 1.399 . S
C263 C261 1.382 1_554 S
C263 H264 0.952 . S
H264 C263 0.952 . S
H265 C261 0.950 . S
H266 C267 0.949 . S
C267 H266 0.949 . S
C267 C268 1.395 . S
C267 C269 1.391 . S
C268 C267 1.395 . S
C268 C271 1.390 . S
C269 C267 1.391 . S
C269 C273 1.387 . S
C269 C274 1.491 . S
H270 C271 0.950 . S
C271 C268 1.390 . S
C271 H270 0.950 . S
C271 C272 1.378 . S
C272 C271 1.378 . S
C272 C273 1.409 . S
C273 C269 1.387 . S
C273 C272 1.409 . S
C273 H275 0.951 . S
C274 C269 1.491 . S
C274 C276 1.382 . S
C274 C278 1.404 . S
H275 C273 0.951 . S
C276 C274 1.382 . S
C276 C277 1.390 . S
C276 H281 0.949 . S
C277 C276 1.390 . S
C277 C282 1.399 . S
C278 C274 1.404 . S
C278 H279 0.950 . S
C278 C280 1.375 . S
H279 C278 0.950 . S
C280 C278 1.375 . S
C280 C282 1.382 . S
C280 H284 0.950 . S
H281 C276 0.949 . S
C282 C277 1.399 . S
C282 C280 1.382 . S
C282 H283 0.952 . S
H283 C282 0.952 . S
H284 C280 0.950 . S
H285 C286 0.949 . S
C286 H285 0.949 . S
C286 C287 1.395 . S
C286 C288 1.391 . S
C287 C286 1.395 . S
C287 C290 1.390 . S
C288 C286 1.391 . S
C288 C292 1.387 . S
C288 C293 1.491 . S
H289 C290 0.950 1_554 S
C290 C287 1.390 . S
C290 H289 0.950 1_556 S
C290 C291 1.378 . S
C291 C290 1.378 . S
C291 C292 1.409 . S
C292 C288 1.387 . S
C292 C291 1.409 . S
C292 H294 0.951 . S
C293 C288 1.491 . S
C293 C295 1.382 . S
C293 C297 1.404 . S
H294 C292 0.951 . S
C295 C293 1.382 . S
C295 C296 1.390 . S
C295 H300 0.949 . S
C296 C295 1.390 . S
C296 C301 1.399 . S
C297 C293 1.404 . S
C297 H298 0.950 . S
C297 C299 1.375 . S
H298 C297 0.950 . S
C299 C297 1.375 . S
C299 C301 1.382 . S
C299 H303 0.950 . S
H300 C295 0.949 . S
C301 C296 1.399 . S
C301 C299 1.382 . S
C301 H302 0.952 . S
H302 C301 0.952 . S
H303 C299 0.950 . S
C304 O305 1.160 . S
C304 O311 1.185 . S
O305 C304 1.160 . S
O306 Zn307 1.899 . S
O306 C314 1.284 . S
Zn307 O306 1.899 . S
Zn307 O308 2.032 . S
Zn307 O311 2.086 . S
Zn307 O316 1.977 . S
O308 Zn307 2.032 . S
O308 C312 1.278 . S
C309 O310 1.203 . S
C309 O316 1.267 . S
O310 C309 1.203 . S
O311 C304 1.185 . S
O311 Zn307 2.086 . S
C312 O308 1.278 . S
C312 O313 1.211 . S
O313 C312 1.211 . S
C314 O306 1.284 . S
C314 O315 1.273 . S
O315 C314 1.273 . S
O316 Zn307 1.977 . S
O316 C309 1.267 . S
C317 O318 1.160 . S
C317 O324 1.185 . S
O318 C317 1.160 . S
O319 Zn320 1.899 . S
O319 C327 1.284 . S
Zn320 O319 1.899 . S
Zn320 O321 2.032 . S
Zn320 O324 2.086 . S
Zn320 O329 1.977 . S
O321 Zn320 2.032 . S
O321 C325 1.278 . S
C322 O323 1.203 . S
C322 O329 1.267 . S
O323 C322 1.203 . S
O324 C317 1.185 . S
O324 Zn320 2.086 . S
C325 O321 1.278 . S
C325 O326 1.211 . S
O326 C325 1.211 . S
C327 O319 1.284 . S
C327 O328 1.273 . S
O328 C327 1.273 . S
O329 Zn320 1.977 . S
O329 C322 1.267 . S
C330 O331 1.160 . S
C330 O337 1.185 1_556 S
O331 C330 1.160 . S
O332 Zn333 1.899 1_556 S
O332 C340 1.284 . S
Zn333 O332 1.899 1_554 S
Zn333 O334 2.032 1_554 S
Zn333 O337 2.086 . S
Zn333 O342 1.977 . S
O334 Zn333 2.032 1_556 S
O334 C338 1.278 . S
C335 O336 1.203 . S
C335 O342 1.267 . S
O336 C335 1.203 . S
O337 C330 1.185 1_554 S
O337 Zn333 2.086 . S
C338 O334 1.278 . S
C338 O339 1.211 1_556 S
O339 C338 1.211 1_554 S
C340 O332 1.284 . S
C340 O341 1.273 . S
O341 C340 1.273 . S
O342 Zn333 1.977 . S
O342 C335 1.267 . S
C343 O344 1.160 . S
C343 O350 1.185 . S
O344 C343 1.160 . S
O345 Zn346 1.899 . S
O345 C353 1.284 . S
Zn346 O345 1.899 . S
Zn346 O347 2.032 . S
Zn346 O350 2.086 . S
Zn346 O355 1.977 . S
O347 Zn346 2.032 . S
O347 C351 1.278 1_545 S
C348 O349 1.203 . S
C348 O355 1.267 . S
O349 C348 1.203 . S
O350 C343 1.185 . S
O350 Zn346 2.086 . S
C351 O347 1.278 1_565 S
C351 O352 1.211 . S
O352 C351 1.211 . S
C353 O345 1.284 . S
C353 O354 1.273 1_545 S
O354 C353 1.273 1_565 S
O355 Zn346 1.977 . S
O355 C348 1.267 . S
C356 O357 1.160 . S
C356 O363 1.185 . S
O357 C356 1.160 . S
O358 Zn359 1.899 . S
O358 C366 1.284 . S
Zn359 O358 1.899 . S
Zn359 O360 2.032 . S
Zn359 O363 2.086 . S
Zn359 O368 1.977 . S
O360 Zn359 2.032 . S
O360 C364 1.278 . S
C361 O362 1.203 . S
C361 O368 1.267 . S
O362 C361 1.203 . S
O363 C356 1.185 . S
O363 Zn359 2.086 . S
C364 O360 1.278 . S
C364 O365 1.211 . S
O365 C364 1.211 . S
C366 O358 1.284 . S
C366 O367 1.273 . S
O367 C366 1.273 . S
O368 Zn359 1.977 . S
O368 C361 1.267 . S
C369 O370 1.160 . S
C369 O376 1.185 . S
O370 C369 1.160 . S
O371 Zn372 1.899 . S
O371 C379 1.284 . S
Zn372 O371 1.899 . S
Zn372 O373 2.032 . S
Zn372 O376 2.086 . S
Zn372 O381 1.977 . S
O373 Zn372 2.032 . S
O373 C377 1.278 . S
C374 O375 1.203 . S
C374 O381 1.267 . S
O375 C374 1.203 . S
O376 C369 1.185 . S
O376 Zn372 2.086 . S
C377 O373 1.278 . S
C377 O378 1.211 . S
O378 C377 1.211 . S
C379 O371 1.284 . S
C379 O380 1.273 . S
O380 C379 1.273 . S
O381 Zn372 1.977 . S
O381 C374 1.267 . S
C382 O383 1.160 . S
C382 O389 1.185 . S
O383 C382 1.160 . S
O384 Zn385 1.899 . S
O384 C392 1.284 . S
Zn385 O384 1.899 . S
Zn385 O386 2.032 . S
Zn385 O389 2.086 . S
Zn385 O394 1.977 . S
O386 Zn385 2.032 . S
O386 C390 1.278 . S
C387 O388 1.203 . S
C387 O394 1.267 . S
O388 C387 1.203 . S
O389 C382 1.185 . S
O389 Zn385 2.086 . S
C390 O386 1.278 . S
C390 O391 1.211 . S
O391 C390 1.211 . S
C392 O384 1.284 . S
C392 O393 1.273 . S
O393 C392 1.273 . S
O394 Zn385 1.977 . S
O394 C387 1.267 . S
C395 O396 1.160 . S
C395 O402 1.185 . S
O396 C395 1.160 . S
O397 Zn398 1.899 . S
O397 C405 1.284 . S
Zn398 O397 1.899 . S
Zn398 O399 2.032 . S
Zn398 O402 2.086 1_545 S
Zn398 O407 1.977 1_545 S
O399 Zn398 2.032 . S
O399 C403 1.278 . S
C400 O401 1.203 . S
C400 O407 1.267 1_545 S
O401 C400 1.203 . S
O402 C395 1.185 . S
O402 Zn398 2.086 1_565 S
C403 O399 1.278 . S
C403 O404 1.211 . S
O404 C403 1.211 . S
C405 O397 1.284 . S
C405 O406 1.273 . S
O406 C405 1.273 . S
O407 Zn398 1.977 1_565 S
O407 C400 1.267 1_565 S
C408 O409 1.160 1_455 S
C408 O415 1.185 . S
O409 C408 1.160 1_655 S
O410 Zn411 1.899 1_655 S
O410 C418 1.284 . S
Zn411 O410 1.899 1_455 S
Zn411 O412 2.032 . S
Zn411 O415 2.086 . S
Zn411 O420 1.977 . S
O412 Zn411 2.032 . S
O412 C416 1.278 . S
C413 O414 1.203 . S
C413 O420 1.267 . S
O414 C413 1.203 . S
O415 C408 1.185 . S
O415 Zn411 2.086 . S
C416 O412 1.278 . S
C416 O417 1.211 . S
O417 C416 1.211 . S
C418 O410 1.284 . S
C418 O419 1.273 . S
O419 C418 1.273 . S
O420 Zn411 1.977 . S
O420 C413 1.267 . S
C421 O422 1.160 . S
C421 O428 1.185 . S
O422 C421 1.160 . S
O423 Zn424 1.899 . S
O423 C431 1.284 . S
Zn424 O423 1.899 . S
Zn424 O425 2.032 . S
Zn424 O428 2.086 . S
Zn424 O433 1.977 . S
O425 Zn424 2.032 . S
O425 C429 1.278 . S
C426 O427 1.203 . S
C426 O433 1.267 . S
O427 C426 1.203 . S
O428 C421 1.185 . S
O428 Zn424 2.086 . S
C429 O425 1.278 . S
C429 O430 1.211 . S
O430 C429 1.211 . S
C431 O423 1.284 . S
C431 O432 1.273 . S
O432 C431 1.273 . S
O433 Zn424 1.977 . S
O433 C426 1.267 . S
C434 O435 1.160 1_455 S
C434 O441 1.185 . S
O435 C434 1.160 1_655 S
O436 Zn437 1.899 1_655 S
O436 C444 1.284 . S
Zn437 O436 1.899 1_455 S
Zn437 O438 2.032 1_455 S
Zn437 O441 2.086 . S
Zn437 O446 1.977 . S
O438 Zn437 2.032 1_655 S
O438 C442 1.278 . S
C439 O440 1.203 . S
C439 O446 1.267 . S
O440 C439 1.203 . S
O441 C434 1.185 . S
O441 Zn437 2.086 . S
C442 O438 1.278 . S
C442 O443 1.211 1_655 S
O443 C442 1.211 1_455 S
C444 O436 1.284 . S
C444 O445 1.273 . S
O445 C444 1.273 . S
O446 Zn437 1.977 . S
O446 C439 1.267 . S
C447 O448 1.160 . S
C447 O454 1.185 . S
O448 C447 1.160 . S
O449 Zn450 1.899 . S
O449 C457 1.284 . S
Zn450 O449 1.899 . S
Zn450 O451 2.032 . S
Zn450 O454 2.086 . S
Zn450 O459 1.977 . S
O451 Zn450 2.032 . S
O451 C455 1.278 . S
C452 O453 1.203 . S
C452 O459 1.267 . S
O453 C452 1.203 . S
O454 C447 1.185 . S
O454 Zn450 2.086 . S
C455 O451 1.278 . S
C455 O456 1.211 . S
O456 C455 1.211 . S
C457 O449 1.284 . S
C457 O458 1.273 . S
O458 C457 1.273 . S
O459 Zn450 1.977 . S
O459 C452 1.267 . S
H460 C466 0.930 . S
H461 C470 0.930 . S
H462 C475 0.929 . S
H463 C473 0.929 . S
H464 C468 0.929 . S
H465 C474 0.929 . S
C466 H460 0.930 . S
C466 C467 1.367 . S
C466 C474 1.378 . S
C467 C466 1.367 . S
C467 C475 1.433 . S
C468 H464 0.929 . S
C468 C470 1.378 . S
C468 C472 1.350 . S
C469 C472 1.463 . S
C469 C474 1.350 . S
C469 N477 1.427 . S
C470 H461 0.930 . S
C470 C468 1.378 . S
C470 C471 1.367 . S
C471 C470 1.367 . S
C471 C473 1.433 . S
C472 C468 1.350 . S
C472 C469 1.463 . S
C472 N476 1.427 . S
C473 H463 0.929 . S
C473 C471 1.433 . S
C473 N476 1.384 . S
C474 H465 0.929 . S
C474 C466 1.378 . S
C474 C469 1.350 . S
C475 H462 0.929 . S
C475 C467 1.433 . S
C475 N477 1.384 . S
N476 C472 1.427 . S
N476 C473 1.384 . S
N477 C469 1.427 . S
N477 C475 1.384 . S
H478 C484 0.930 . S
H479 C488 0.930 . S
H480 C493 0.929 1_655 S
H481 C491 0.929 . S
H482 C486 0.929 . S
H483 C492 0.929 . S
C484 H478 0.930 . S
C484 C485 1.367 . S
C484 C492 1.378 . S
C485 C484 1.367 . S
C485 C493 1.433 . S
C486 H482 0.929 . S
C486 C488 1.378 . S
C486 C490 1.350 . S
C487 C490 1.463 . S
C487 C492 1.350 . S
C487 N495 1.427 . S
C488 H479 0.930 . S
C488 C486 1.378 . S
C488 C489 1.367 . S
C489 C488 1.367 . S
C489 C491 1.433 . S
C490 C486 1.350 . S
C490 C487 1.463 . S
C490 N494 1.427 . S
C491 H481 0.929 . S
C491 C489 1.433 . S
C491 N494 1.384 . S
C492 H483 0.929 . S
C492 C484 1.378 . S
C492 C487 1.350 . S
C493 H480 0.929 1_455 S
C493 C485 1.433 . S
C493 N495 1.384 . S
N494 C490 1.427 . S
N494 C491 1.384 . S
N495 C487 1.427 . S
N495 C493 1.384 . S
H496 C502 0.930 . S
H497 C506 0.930 . S
H498 C511 0.929 . S
H499 C509 0.929 . S
H500 C504 0.929 . S
H501 C510 0.929 . S
C502 H496 0.930 . S
C502 C503 1.367 . S
C502 C510 1.378 . S
C503 C502 1.367 . S
C503 C511 1.433 . S
C504 H500 0.929 . S
C504 C506 1.378 . S
C504 C508 1.350 . S
C505 C508 1.463 . S
C505 C510 1.350 . S
C505 N513 1.427 . S
C506 H497 0.930 . S
C506 C504 1.378 . S
C506 C507 1.367 . S
C507 C506 1.367 . S
C507 C509 1.433 . S
C508 C504 1.350 . S
C508 C505 1.463 . S
C508 N512 1.427 . S
C509 H499 0.929 . S
C509 C507 1.433 . S
C509 N512 1.384 . S
C510 H501 0.929 . S
C510 C502 1.378 . S
C510 C505 1.350 . S
C511 H498 0.929 . S
C511 C503 1.433 . S
C511 N513 1.384 . S
N512 C508 1.427 . S
N512 C509 1.384 . S
N513 C505 1.427 . S
N513 C511 1.384 . S
H514 C520 0.930 . S
H515 C524 0.930 . S
H516 C529 0.929 . S
H517 C527 0.929 . S
H518 C522 0.929 . S
H519 C528 0.929 . S
C520 H514 0.930 . S
C520 C521 1.367 1_545 S
C520 C528 1.378 . S
C521 C520 1.367 1_565 S
C521 C529 1.433 . S
C522 H518 0.929 . S
C522 C524 1.378 . S
C522 C526 1.350 1_665 S
C523 C526 1.463 . S
C523 C528 1.350 . S
C523 N531 1.427 1_545 S
C524 H515 0.930 . S
C524 C522 1.378 . S
C524 C525 1.367 1_565 S
C525 C524 1.367 1_545 S
C525 C527 1.433 1_655 S
C526 C522 1.350 1_445 S
C526 C523 1.463 . S
C526 N530 1.427 . S
C527 H517 0.929 . S
C527 C525 1.433 1_455 S
C527 N530 1.384 . S
C528 H519 0.929 . S
C528 C520 1.378 . S
C528 C523 1.350 . S
C529 H516 0.929 . S
C529 C521 1.433 . S
C529 N531 1.384 . S
N530 C526 1.427 . S
N530 C527 1.384 . S
N531 C523 1.427 1_565 S
N531 C529 1.384 . S
H532 C538 0.930 . S
H533 C542 0.930 . S
H534 C547 0.929 . S
H535 C545 0.929 . S
H536 C540 0.929 . S
H537 C546 0.929 . S
C538 H532 0.930 . S
C538 C539 1.367 . S
C538 C546 1.378 . S
C539 C538 1.367 . S
C539 C547 1.433 . S
C540 H536 0.929 . S
C540 C542 1.378 . S
C540 C544 1.350 . S
C541 C544 1.463 . S
C541 C546 1.350 . S
C541 N549 1.427 . S
C542 H533 0.930 . S
C542 C540 1.378 . S
C542 C543 1.367 . S
C543 C542 1.367 . S
C543 C545 1.433 . S
C544 C540 1.350 . S
C544 C541 1.463 . S
C544 N548 1.427 . S
C545 H535 0.929 . S
C545 C543 1.433 . S
C545 N548 1.384 . S
C546 H537 0.929 . S
C546 C538 1.378 . S
C546 C541 1.350 . S
C547 H534 0.929 . S
C547 C539 1.433 . S
C547 N549 1.384 . S
N548 C544 1.427 . S
N548 C545 1.384 . S
N549 C541 1.427 . S
N549 C547 1.384 . S
H550 C556 0.930 . S
H551 C560 0.930 . S
H552 C565 0.929 . S
H553 C563 0.929 . S
H554 C558 0.929 . S
H555 C564 0.929 . S
C556 H550 0.930 . S
C556 C557 1.367 . S
C556 C564 1.378 . S
C557 C556 1.367 . S
C557 C565 1.433 . S
C558 H554 0.929 . S
C558 C560 1.378 . S
C558 C562 1.350 . S
C559 C562 1.463 . S
C559 C564 1.350 . S
C559 N567 1.427 . S
C560 H551 0.930 . S
C560 C558 1.378 . S
C560 C561 1.367 . S
C561 C560 1.367 . S
C561 C563 1.433 . S
C562 C558 1.350 . S
C562 C559 1.463 . S
C562 N566 1.427 . S
C563 H553 0.929 . S
C563 C561 1.433 . S
C563 N566 1.384 . S
C564 H555 0.929 . S
C564 C556 1.378 . S
C564 C559 1.350 . S
C565 H552 0.929 . S
C565 C557 1.433 . S
C565 N567 1.384 . S
N566 C562 1.427 . S
N566 C563 1.384 . S
N567 C559 1.427 . S
N567 C565 1.384 . S
H568 C574 0.930 . S
H569 C578 0.930 . S
H570 C583 0.929 . S
H571 C581 0.929 . S
H572 C576 0.929 . S
H573 C582 0.929 . S
C574 H568 0.930 . S
C574 C575 1.367 . S
C574 C582 1.378 . S
C575 C574 1.367 . S
C575 C583 1.433 . S
C576 H572 0.929 . S
C576 C578 1.378 . S
C576 C580 1.350 . S
C577 C580 1.463 . S
C577 C582 1.350 . S
C577 N585 1.427 . S
C578 H569 0.930 . S
C578 C576 1.378 . S
C578 C579 1.367 . S
C579 C578 1.367 . S
C579 C581 1.433 . S
C580 C576 1.350 . S
C580 C577 1.463 . S
C580 N584 1.427 . S
C581 H571 0.929 . S
C581 C579 1.433 . S
C581 N584 1.384 . S
C582 H573 0.929 . S
C582 C574 1.378 . S
C582 C577 1.350 . S
C583 H570 0.929 . S
C583 C575 1.433 . S
C583 N585 1.384 . S
N584 C580 1.427 . S
N584 C581 1.384 . S
N585 C577 1.427 . S
N585 C583 1.384 . S
H586 C592 0.930 1_545 S
H587 C596 0.930 . S
H588 C601 0.929 . S
H589 C599 0.929 . S
H590 C594 0.929 . S
H591 C600 0.948 . S
C592 H586 0.930 1_565 S
C592 C593 1.367 . S
C592 C600 1.381 1_565 S
C593 C592 1.367 . S
C593 C601 1.433 . S
C594 H590 0.929 . S
C594 C596 1.378 . S
C594 C598 1.350 . S
C595 C598 1.463 . S
C595 C600 1.328 1_565 S
C595 N603 1.427 . S
C596 H587 0.930 . S
C596 C594 1.378 . S
C596 C597 1.367 . S
C597 C596 1.367 . S
C597 C599 1.433 1_565 S
C598 C594 1.350 . S
C598 C595 1.463 . S
C598 N602 1.427 1_565 S
C599 H589 0.929 . S
C599 C597 1.433 1_545 S
C599 N602 1.384 . S
C600 H591 0.948 . S
C600 C592 1.381 1_545 S
C600 C595 1.328 1_545 S
C601 H588 0.929 . S
C601 C593 1.433 . S
C601 N603 1.384 . S
N602 C598 1.427 1_545 S
N602 C599 1.384 . S
N603 C595 1.427 . S
N603 C601 1.384 . S
H604 C610 0.930 . S
H605 C614 0.930 . S
H606 C619 0.929 . S
H607 C617 0.929 . S
H608 C612 0.929 . S
H609 C618 0.929 . S
C610 H604 0.930 . S
C610 C611 1.367 . S
C610 C618 1.378 . S
C611 C610 1.367 . S
C611 C619 1.433 . S
C612 H608 0.929 . S
C612 C614 1.378 . S
C612 C616 1.350 . S
C613 C616 1.463 . S
C613 C618 1.350 . S
C613 N621 1.427 . S
C614 H605 0.930 . S
C614 C612 1.378 . S
C614 C615 1.367 . S
C615 C614 1.367 . S
C615 C617 1.433 . S
C616 C612 1.350 . S
C616 C613 1.463 . S
C616 N620 1.427 . S
C617 H607 0.929 . S
C617 C615 1.433 . S
C617 N620 1.384 . S
C618 H609 0.929 . S
C618 C610 1.378 . S
C618 C613 1.350 . S
C619 H606 0.929 . S
C619 C611 1.433 . S
C619 N621 1.384 . S
N620 C616 1.427 . S
N620 C617 1.384 . S
N621 C613 1.427 . S
N621 C619 1.384 . S
H622 C628 0.930 . S
H623 C632 0.930 . S
H624 C637 0.929 . S
H625 C635 0.929 . S
H626 C630 0.929 . S
H627 C636 0.929 . S
C628 H622 0.930 . S
C628 C629 1.367 . S
C628 C636 1.378 . S
C629 C628 1.367 . S
C629 C637 1.433 . S
C630 H626 0.929 . S
C630 C632 1.378 . S
C630 C634 1.350 . S
C631 C634 1.463 . S
C631 C636 1.350 . S
C631 N639 1.427 . S
C632 H623 0.930 . S
C632 C630 1.378 . S
C632 C633 1.367 . S
C633 C632 1.367 . S
C633 C635 1.433 . S
C634 C630 1.350 . S
C634 C631 1.463 . S
C634 N638 1.427 . S
C635 H625 0.929 . S
C635 C633 1.433 . S
C635 N638 1.384 . S
C636 H627 0.929 . S
C636 C628 1.378 . S
C636 C631 1.350 . S
C637 H624 0.929 . S
C637 C629 1.433 . S
C637 N639 1.384 . S
N638 C634 1.427 . S
N638 C635 1.384 . S
N639 C631 1.427 . S
N639 C637 1.384 . S
H640 C646 0.930 . S
H641 C650 0.930 . S
H642 C655 0.929 . S
H643 C653 0.929 . S
H644 C648 0.929 . S
H645 C654 0.929 . S
C646 H640 0.930 . S
C646 C647 1.367 . S
C646 C654 1.378 . S
C647 C646 1.367 . S
C647 C655 1.433 . S
C648 H644 0.929 . S
C648 C650 1.378 . S
C648 C652 1.350 . S
C649 C652 1.463 . S
C649 C654 1.350 . S
C649 N657 1.427 . S
C650 H641 0.930 . S
C650 C648 1.378 . S
C650 C651 1.367 . S
C651 C650 1.367 . S
C651 C653 1.433 . S
C652 C648 1.350 . S
C652 C649 1.463 . S
C652 N656 1.427 . S
C653 H643 0.929 . S
C653 C651 1.433 . S
C653 N656 1.384 . S
C654 H645 0.929 . S
C654 C646 1.378 . S
C654 C649 1.350 . S
C655 H642 0.929 . S
C655 C647 1.433 . S
C655 N657 1.384 . S
N656 C652 1.427 . S
N656 C653 1.384 . S
N657 C649 1.427 . S
N657 C655 1.384 . S
H658 C664 0.930 . S
H659 C668 0.930 . S
H660 C673 0.929 . S
H661 C671 0.929 . S
H662 C666 0.929 . S
H663 C672 0.929 . S
C664 H658 0.930 . S
C664 C665 1.367 . S
C664 C672 1.378 . S
C665 C664 1.367 . S
C665 C673 1.433 . S
C666 H662 0.929 . S
C666 C668 1.378 . S
C666 C670 1.350 . S
C667 C670 1.463 . S
C667 C672 1.350 . S
C667 N675 1.427 . S
C668 H659 0.930 . S
C668 C666 1.378 . S
C668 C669 1.367 . S
C669 C668 1.367 . S
C669 C671 1.433 . S
C670 C666 1.350 . S
C670 C667 1.463 . S
C670 N674 1.427 . S
C671 H661 0.929 . S
C671 C669 1.433 . S
C671 N674 1.384 . S
C672 H663 0.929 . S
C672 C664 1.378 . S
C672 C667 1.350 . S
C673 H660 0.929 . S
C673 C665 1.433 . S
C673 N675 1.384 . S
N674 C670 1.427 . S
N674 C671 1.384 . S
N675 C667 1.427 . S
N675 C673 1.384 . S
H676 C682 0.930 . S
H677 C686 0.930 . S
H678 C691 0.929 . S
H679 C689 0.929 . S
H680 C684 0.929 . S
H681 C690 0.929 . S
C682 H676 0.930 . S
C682 C683 1.367 . S
C682 C690 1.378 . S
C683 C682 1.367 . S
C683 C691 1.433 . S
C684 H680 0.929 . S
C684 C686 1.378 . S
C684 C688 1.350 . S
C685 C688 1.463 . S
C685 C690 1.350 . S
C685 N693 1.427 . S
C686 H677 0.930 . S
C686 C684 1.378 . S
C686 C687 1.367 . S
C687 C686 1.367 . S
C687 C689 1.433 . S
C688 C684 1.350 . S
C688 C685 1.463 . S
C688 N692 1.427 . S
C689 H679 0.929 . S
C689 C687 1.433 . S
C689 N692 1.384 . S
C690 H681 0.929 . S
C690 C682 1.378 . S
C690 C685 1.350 . S
C691 H678 0.929 . S
C691 C683 1.433 . S
C691 N693 1.384 . S
N692 C688 1.427 . S
N692 C689 1.384 . S
N693 C685 1.427 . S
N693 C691 1.384 . S
H694 C700 0.930 . S
H695 C704 0.930 . S
H696 C709 0.929 . S
H697 C707 0.929 . S
H698 C702 0.929 . S
H699 C708 0.929 . S
C700 H694 0.930 . S
C700 C701 1.367 . S
C700 C708 1.378 . S
C701 C700 1.367 . S
C701 C709 1.433 . S
C702 H698 0.929 . S
C702 C704 1.378 . S
C702 C706 1.350 . S
C703 C706 1.463 . S
C703 C708 1.350 . S
C703 N711 1.427 . S
C704 H695 0.930 . S
C704 C702 1.378 . S
C704 C705 1.367 . S
C705 C704 1.367 . S
C705 C707 1.433 . S
C706 C702 1.350 . S
C706 C703 1.463 . S
C706 N710 1.427 . S
C707 H697 0.929 . S
C707 C705 1.433 . S
C707 N710 1.384 . S
C708 H699 0.929 . S
C708 C700 1.378 . S
C708 C703 1.350 . S
C709 H696 0.929 . S
C709 C701 1.433 . S
C709 N711 1.384 . S
N710 C706 1.427 . S
N710 C707 1.384 . S
N711 C703 1.427 . S
N711 C709 1.384 . S
H712 C718 0.930 . S
H713 C722 0.930 . S
H714 C727 0.929 . S
H715 C725 0.929 . S
H716 C720 0.929 . S
H717 C726 0.929 . S
C718 H712 0.930 . S
C718 C719 1.367 . S
C718 C726 1.378 . S
C719 C718 1.367 . S
C719 C727 1.433 . S
C720 H716 0.929 . S
C720 C722 1.378 . S
C720 C724 1.350 . S
C721 C724 1.463 . S
C721 C726 1.350 . S
C721 N729 1.427 . S
C722 H713 0.930 . S
C722 C720 1.378 . S
C722 C723 1.367 . S
C723 C722 1.367 . S
C723 C725 1.433 . S
C724 C720 1.350 . S
C724 C721 1.463 . S
C724 N728 1.427 . S
C725 H715 0.929 . S
C725 C723 1.433 . S
C725 N728 1.384 . S
C726 H717 0.929 . S
C726 C718 1.378 . S
C726 C721 1.350 . S
C727 H714 0.929 . S
C727 C719 1.433 . S
C727 N729 1.384 . S
N728 C724 1.427 . S
N728 C725 1.384 . S
N729 C721 1.427 . S
N729 C727 1.384 . S
H730 C736 0.930 . S
H731 C740 0.930 . S
H732 C745 0.929 1_455 S
H733 C743 0.929 . S
H734 C738 0.929 . S
H735 C744 0.929 . S
C736 H730 0.930 . S
C736 C737 1.367 . S
C736 C744 1.378 . S
C737 C736 1.367 . S
C737 C745 1.433 . S
C738 H734 0.929 . S
C738 C740 1.378 . S
C738 C742 1.350 1_455 S
C739 C742 1.463 . S
C739 C744 1.350 . S
C739 N747 1.427 1_655 S
C740 H731 0.930 . S
C740 C738 1.378 . S
C740 C741 1.367 1_455 S
C741 C740 1.367 1_655 S
C741 C743 1.433 . S
C742 C738 1.350 1_655 S
C742 C739 1.463 . S
C742 N746 1.427 . S
C743 H733 0.929 . S
C743 C741 1.433 . S
C743 N746 1.384 . S
C744 H735 0.929 . S
C744 C736 1.378 . S
C744 C739 1.350 . S
C745 H732 0.929 1_655 S
C745 C737 1.433 . S
C745 N747 1.384 1_655 S
N746 C742 1.427 . S
N746 C743 1.384 . S
N747 C739 1.427 1_455 S
N747 C745 1.384 1_455 S
H748 C754 0.930 . S
H749 C758 0.930 . S
H750 C763 0.929 . S
H751 C761 0.929 . S
H752 C756 0.929 . S
H753 C762 0.929 . S
C754 H748 0.930 . S
C754 C755 1.367 . S
C754 C762 1.378 . S
C755 C754 1.367 . S
C755 C763 1.433 . S
C756 H752 0.929 . S
C756 C758 1.378 . S
C756 C760 1.350 . S
C757 C760 1.463 . S
C757 C762 1.350 . S
C757 N765 1.427 . S
C758 H749 0.930 . S
C758 C756 1.378 . S
C758 C759 1.367 . S
C759 C758 1.367 . S
C759 C761 1.433 . S
C760 C756 1.350 . S
C760 C757 1.463 . S
C760 N764 1.427 . S
C761 H751 0.929 . S
C761 C759 1.433 . S
C761 N764 1.384 . S
C762 H753 0.929 . S
C762 C754 1.378 . S
C762 C757 1.350 . S
C763 H750 0.929 . S
C763 C755 1.433 . S
C763 N765 1.384 . S
N764 C760 1.427 . S
N764 C761 1.384 . S
N765 C757 1.427 . S
N765 C763 1.384 . S
H766 C772 0.930 . S
H767 C776 0.930 . S
H768 C781 0.929 . S
H769 C779 0.929 . S
H770 C774 0.929 . S
H771 C780 0.929 . S
C772 H766 0.930 . S
C772 C773 1.367 . S
C772 C780 1.378 . S
C773 C772 1.367 . S
C773 C781 1.433 . S
C774 H770 0.929 . S
C774 C776 1.378 . S
C774 C778 1.350 . S
C775 C778 1.463 . S
C775 C780 1.350 . S
C775 N783 1.427 . S
C776 H767 0.930 . S
C776 C774 1.378 . S
C776 C777 1.367 . S
C777 C776 1.367 . S
C777 C779 1.433 . S
C778 C774 1.350 . S
C778 C775 1.463 . S
C778 N782 1.427 . S
C779 H769 0.929 . S
C779 C777 1.433 . S
C779 N782 1.384 . S
C780 H771 0.929 . S
C780 C772 1.378 . S
C780 C775 1.350 . S
C781 H768 0.929 . S
C781 C773 1.433 . S
C781 N783 1.384 . S
N782 C778 1.427 . S
N782 C779 1.384 . S
N783 C775 1.427 . S
N783 C781 1.384 . S
H784 C790 0.930 . S
H785 C794 0.930 . S
H786 C799 0.933 . S
H787 C797 0.929 . S
H788 C792 0.929 . S
H789 C798 0.929 . S
C790 H784 0.930 . S
C790 C791 1.367 1_565 S
C790 C798 1.378 . S
C791 C790 1.367 1_545 S
C791 C799 1.413 1_556 S
C792 H788 0.929 . S
C792 C794 1.378 . S
C792 C796 1.350 . S
C793 C796 1.463 . S
C793 C798 1.350 1_554 S
C793 N801 1.427 1_565 S
C794 H785 0.930 . S
C794 C792 1.378 . S
C794 C795 1.367 . S
C795 C794 1.367 . S
C795 C797 1.433 . S
C796 C792 1.350 . S
C796 C793 1.463 . S
C796 N800 1.427 . S
C797 H787 0.929 . S
C797 C795 1.433 . S
C797 N800 1.384 . S
C798 H789 0.929 . S
C798 C790 1.378 . S
C798 C793 1.350 1_556 S
C799 H786 0.933 . S
C799 C791 1.413 1_554 S
C799 N801 1.402 . S
N800 C796 1.427 . S
N800 C797 1.384 . S
N801 C793 1.427 1_545 S
N801 C799 1.402 . S
H802 C808 0.930 . S
H803 C812 0.930 . S
H804 C817 0.929 . S
H805 C815 0.929 . S
H806 C810 0.929 . S
H807 C816 0.929 . S
C808 H802 0.930 . S
C808 C809 1.367 . S
C808 C816 1.378 . S
C809 C808 1.367 . S
C809 C817 1.433 . S
C810 H806 0.929 . S
C810 C812 1.378 . S
C810 C814 1.350 . S
C811 C814 1.463 . S
C811 C816 1.350 . S
C811 N819 1.427 . S
C812 H803 0.930 . S
C812 C810 1.378 . S
C812 C813 1.367 . S
C813 C812 1.367 . S
C813 C815 1.433 . S
C814 C810 1.350 . S
C814 C811 1.463 . S
C814 N818 1.427 . S
C815 H805 0.929 . S
C815 C813 1.433 . S
C815 N818 1.384 . S
C816 H807 0.929 . S
C816 C808 1.378 . S
C816 C811 1.350 . S
C817 H804 0.929 . S
C817 C809 1.433 . S
C817 N819 1.384 . S
N818 C814 1.427 . S
N818 C815 1.384 . S
N819 C811 1.427 . S
N819 C817 1.384 . S
H820 C826 0.930 . S
H821 C830 0.930 . S
H822 C835 0.929 . S
H823 C833 0.929 . S
H824 C828 0.929 . S
H825 C834 0.929 . S
C826 H820 0.930 . S
C826 C827 1.367 . S
C826 C834 1.378 . S
C827 C826 1.367 . S
C827 C835 1.433 . S
C828 H824 0.929 . S
C828 C830 1.378 . S
C828 C832 1.350 . S
C829 C832 1.463 . S
C829 C834 1.350 . S
C829 N837 1.427 . S
C830 H821 0.930 . S
C830 C828 1.378 . S
C830 C831 1.367 . S
C831 C830 1.367 . S
C831 C833 1.433 . S
C832 C828 1.350 . S
C832 C829 1.463 . S
C832 N836 1.427 . S
C833 H823 0.929 . S
C833 C831 1.433 . S
C833 N836 1.384 . S
C834 H825 0.929 . S
C834 C826 1.378 . S
C834 C829 1.350 . S
C835 H822 0.929 . S
C835 C827 1.433 . S
C835 N837 1.384 . S
N836 C832 1.427 . S
N836 C833 1.384 . S
N837 C829 1.427 . S
N837 C835 1.384 . S
H838 C844 0.930 . S
H839 C848 0.930 . S
H840 C853 0.929 . S
H841 C851 0.929 . S
H842 C846 0.929 . S
H843 C852 0.929 . S
C844 H838 0.930 . S
C844 C845 1.367 . S
C844 C852 1.378 . S
C845 C844 1.367 . S
C845 C853 1.433 . S
C846 H842 0.929 . S
C846 C848 1.378 . S
C846 C850 1.350 . S
C847 C850 1.463 . S
C847 C852 1.350 . S
C847 N855 1.427 . S
C848 H839 0.930 . S
C848 C846 1.378 . S
C848 C849 1.367 . S
C849 C848 1.367 . S
C849 C851 1.433 . S
C850 C846 1.350 . S
C850 C847 1.463 . S
C850 N854 1.427 . S
C851 H841 0.929 . S
C851 C849 1.433 . S
C851 N854 1.384 . S
C852 H843 0.929 . S
C852 C844 1.378 . S
C852 C847 1.350 . S
C853 H840 0.929 . S
C853 C845 1.433 . S
C853 N855 1.384 . S
N854 C850 1.427 . S
N854 C851 1.384 . S
N855 C847 1.427 . S
N855 C853 1.384 . S
H856 C862 0.930 1_565 S
H857 C866 0.930 . S
H858 C871 0.929 . S
H859 C869 0.929 . S
H860 C864 0.929 . S
H861 C870 0.929 . S
C862 H856 0.930 1_545 S
C862 C863 1.367 . S
C862 C870 1.378 . S
C863 C862 1.367 . S
C863 C871 1.433 . S
C864 H860 0.929 . S
C864 C866 1.378 . S
C864 C868 1.350 . S
C865 C868 1.463 . S
C865 C870 1.350 . S
C865 N873 1.427 . S
C866 H857 0.930 . S
C866 C864 1.378 . S
C866 C867 1.367 . S
C867 C866 1.367 . S
C867 C869 1.433 . S
C868 C864 1.350 . S
C868 C865 1.463 . S
C868 N872 1.427 . S
C869 H859 0.929 . S
C869 C867 1.433 . S
C869 N872 1.384 . S
C870 H861 0.929 . S
C870 C862 1.378 . S
C870 C865 1.350 . S
C871 H858 0.929 . S
C871 C863 1.433 . S
C871 N873 1.384 . S
N872 C868 1.427 . S
N872 C869 1.384 . S
N873 C865 1.427 . S
N873 C871 1.384 . S
H874 C880 0.930 . S
H875 C884 0.930 . S
H876 C889 0.929 . S
H877 C887 0.929 . S
H878 C882 0.929 . S
H879 C888 0.929 . S
C880 H874 0.930 . S
C880 C881 1.367 . S
C880 C888 1.378 . S
C881 C880 1.367 . S
C881 C889 1.433 . S
C882 H878 0.929 . S
C882 C884 1.378 . S
C882 C886 1.350 . S
C883 C886 1.463 . S
C883 C888 1.350 . S
C883 N891 1.427 . S
C884 H875 0.930 . S
C884 C882 1.378 . S
C884 C885 1.367 . S
C885 C884 1.367 . S
C885 C887 1.433 . S
C886 C882 1.350 . S
C886 C883 1.463 . S
C886 N890 1.427 . S
C887 H877 0.929 . S
C887 C885 1.433 . S
C887 N890 1.384 . S
C888 H879 0.929 . S
C888 C880 1.378 . S
C888 C883 1.350 . S
C889 H876 0.929 . S
C889 C881 1.433 . S
C889 N891 1.384 . S
N890 C886 1.427 . S
N890 C887 1.384 . S
N891 C883 1.427 . S
N891 C889 1.384 . S
H892 C898 0.930 . S
H893 C902 0.930 . S
H894 C907 0.929 . S
H895 C905 0.929 . S
H896 C900 0.929 . S
H897 C906 0.929 . S
C898 H892 0.930 . S
C898 C899 1.367 . S
C898 C906 1.378 . S
C899 C898 1.367 . S
C899 C907 1.433 . S
C900 H896 0.929 . S
C900 C902 1.378 . S
C900 C904 1.350 . S
C901 C904 1.463 . S
C901 C906 1.350 . S
C901 N909 1.427 . S
C902 H893 0.930 . S
C902 C900 1.378 . S
C902 C903 1.367 . S
C903 C902 1.367 . S
C903 C905 1.433 . S
C904 C900 1.350 . S
C904 C901 1.463 . S
C904 N908 1.427 . S
C905 H895 0.929 . S
C905 C903 1.433 . S
C905 N908 1.384 . S
C906 H897 0.929 . S
C906 C898 1.378 . S
C906 C901 1.350 . S
C907 H894 0.929 . S
C907 C899 1.433 . S
C907 N909 1.384 . S
N908 C904 1.427 . S
N908 C905 1.384 . S
N909 C901 1.427 . S
N909 C907 1.384 . S
H910 C916 0.930 . S
H911 C920 0.930 1_565 S
H912 C925 0.929 . S
H913 C923 0.929 . S
H914 C918 0.929 1_565 S
H915 C924 0.929 . S
C916 H910 0.930 . S
C916 C917 1.367 . S
C916 C924 1.378 . S
C917 C916 1.367 . S
C917 C925 1.433 . S
C918 H914 0.929 1_545 S
C918 C920 1.378 . S
C918 C922 1.350 . S
C919 C922 1.463 . S
C919 C924 1.350 . S
C919 N927 1.427 . S
C920 H911 0.930 1_545 S
C920 C918 1.378 . S
C920 C921 1.367 . S
C921 C920 1.367 . S
C921 C923 1.433 . S
C922 C918 1.350 . S
C922 C919 1.463 . S
C922 N926 1.427 . S
C923 H913 0.929 . S
C923 C921 1.433 . S
C923 N926 1.384 . S
C924 H915 0.929 . S
C924 C916 1.378 . S
C924 C919 1.350 . S
C925 H912 0.929 . S
C925 C917 1.433 . S
C925 N927 1.384 . S
N926 C922 1.427 . S
N926 C923 1.384 . S
N927 C919 1.427 . S
N927 C925 1.384 . S
H928 C934 0.930 . S
H929 C938 0.930 . S
H930 C943 0.929 . S
H931 C941 0.929 . S
H932 C936 0.929 . S
H933 C942 0.929 . S
C934 H928 0.930 . S
C934 C935 1.367 . S
C934 C942 1.378 . S
C935 C934 1.367 . S
C935 C943 1.433 . S
C936 H932 0.929 . S
C936 C938 1.378 . S
C936 C940 1.350 . S
C937 C940 1.463 . S
C937 C942 1.350 . S
C937 N945 1.427 . S
C938 H929 0.930 . S
C938 C936 1.378 . S
C938 C939 1.367 . S
C939 C938 1.367 . S
C939 C941 1.433 . S
C940 C936 1.350 . S
C940 C937 1.463 . S
C940 N944 1.427 . S
C941 H931 0.929 . S
C941 C939 1.433 . S
C941 N944 1.384 . S
C942 H933 0.929 . S
C942 C934 1.378 . S
C942 C937 1.350 . S
C943 H930 0.929 . S
C943 C935 1.433 . S
C943 N945 1.384 . S
N944 C940 1.427 . S
N944 C941 1.384 . S
N945 C937 1.427 . S
N945 C943 1.384 . S
H946 C952 0.930 . S
H947 C956 0.930 . S
H948 C961 0.929 . S
H949 C959 0.929 . S
H950 C954 0.929 . S
H951 C960 0.929 . S
C952 H946 0.930 . S
C952 C953 1.367 . S
C952 C960 1.378 . S
C953 C952 1.367 . S
C953 C961 1.433 . S
C954 H950 0.929 . S
C954 C956 1.378 . S
C954 C958 1.350 . S
C955 C958 1.463 . S
C955 C960 1.350 . S
C955 N963 1.427 . S
C956 H947 0.930 . S
C956 C954 1.378 . S
C956 C957 1.367 . S
C957 C956 1.367 . S
C957 C959 1.433 . S
C958 C954 1.350 . S
C958 C955 1.463 . S
C958 N962 1.427 . S
C959 H949 0.929 . S
C959 C957 1.433 . S
C959 N962 1.384 . S
C960 H951 0.929 . S
C960 C952 1.378 . S
C960 C955 1.350 . S
C961 H948 0.929 . S
C961 C953 1.433 . S
C961 N963 1.384 . S
N962 C958 1.427 . S
N962 C959 1.384 . S
N963 C955 1.427 . S
N963 C961 1.384 . S
H964 C970 0.930 . S
H965 C974 0.930 . S
H966 C979 0.929 . S
H967 C977 0.929 . S
H968 C972 0.929 . S
H969 C978 0.929 . S
C970 H964 0.930 . S
C970 C971 1.367 . S
C970 C978 1.378 . S
C971 C970 1.367 . S
C971 C979 1.433 . S
C972 H968 0.929 . S
C972 C974 1.378 . S
C972 C976 1.350 . S
C973 C976 1.463 . S
C973 C978 1.350 . S
C973 N981 1.427 . S
C974 H965 0.930 . S
C974 C972 1.378 . S
C974 C975 1.367 . S
C975 C974 1.367 . S
C975 C977 1.433 . S
C976 C972 1.350 . S
C976 C973 1.463 . S
C976 N980 1.427 . S
C977 H967 0.929 . S
C977 C975 1.433 . S
C977 N980 1.384 . S
C978 H969 0.929 . S
C978 C970 1.378 . S
C978 C973 1.350 . S
C979 H966 0.929 . S
C979 C971 1.433 . S
C979 N981 1.384 . S
N980 C976 1.427 . S
N980 C977 1.384 . S
N981 C973 1.427 . S
N981 C979 1.384 . S
H982 C988 0.930 . S
H983 C992 0.930 1_565 S
H984 C997 0.929 1_565 S
H985 C995 0.929 . S
H986 C990 0.929 1_565 S
H987 C996 0.929 . S
C988 H982 0.930 . S
C988 C989 1.367 . S
C988 C996 1.378 . S
C989 C988 1.367 . S
C989 C997 1.433 . S
C990 H986 0.929 1_545 S
C990 C992 1.378 1_455 S
C990 C994 1.350 . S
C991 C994 1.463 . S
C991 C996 1.350 . S
C991 N999 1.427 . S
C992 H983 0.930 1_545 S
C992 C990 1.378 1_655 S
C992 C993 1.367 . S
C993 C992 1.367 . S
C993 C995 1.433 . S
C994 C990 1.350 . S
C994 C991 1.463 . S
C994 N998 1.427 1_455 S
C995 H985 0.929 . S
C995 C993 1.433 . S
C995 N998 1.384 . S
C996 H987 0.929 . S
C996 C988 1.378 . S
C996 C991 1.350 . S
C997 H984 0.929 1_545 S
C997 C989 1.433 . S
C997 N999 1.384 . S
N998 C994 1.427 1_655 S
N998 C995 1.384 . S
N999 C991 1.427 . S
N999 C997 1.384 . S
H1000 C1006 0.930 . S
H1001 C1010 0.930 . S
H1002 C1015 0.929 . S
H1003 C1013 0.929 . S
H1004 C1008 0.929 . S
H1005 C1014 0.929 . S
C1006 H1000 0.930 . S
C1006 C1007 1.367 . S
C1006 C1014 1.378 . S
C1007 C1006 1.367 . S
C1007 C1015 1.433 . S
C1008 H1004 0.929 . S
C1008 C1010 1.378 . S
C1008 C1012 1.350 . S
C1009 C1012 1.463 . S
C1009 C1014 1.350 . S
C1009 N1017 1.427 . S
C1010 H1001 0.930 . S
C1010 C1008 1.378 . S
C1010 C1011 1.367 . S
C1011 C1010 1.367 . S
C1011 C1013 1.433 . S
C1012 C1008 1.350 . S
C1012 C1009 1.463 . S
C1012 N1016 1.427 . S
C1013 H1003 0.929 . S
C1013 C1011 1.433 . S
C1013 N1016 1.384 . S
C1014 H1005 0.929 . S
C1014 C1006 1.378 . S
C1014 C1009 1.350 . S
C1015 H1002 0.929 . S
C1015 C1007 1.433 . S
C1015 N1017 1.384 . S
N1016 C1012 1.427 . S
N1016 C1013 1.384 . S
N1017 C1009 1.427 . S
N1017 C1015 1.384 . S
H1018 C1024 0.930 . S
H1019 C1028 0.930 . S
H1020 C1033 0.929 . S
H1021 C1031 0.929 . S
H1022 C1026 0.929 . S
H1023 C1032 0.929 . S
C1024 H1018 0.930 . S
C1024 C1025 1.367 . S
C1024 C1032 1.378 . S
C1025 C1024 1.367 . S
C1025 C1033 1.433 . S
C1026 H1022 0.929 . S
C1026 C1028 1.378 . S
C1026 C1030 1.350 . S
C1027 C1030 1.463 . S
C1027 C1032 1.350 . S
C1027 N1035 1.427 . S
C1028 H1019 0.930 . S
C1028 C1026 1.378 . S
C1028 C1029 1.367 . S
C1029 C1028 1.367 . S
C1029 C1031 1.433 . S
C1030 C1026 1.350 . S
C1030 C1027 1.463 . S
C1030 N1034 1.427 . S
C1031 H1021 0.929 . S
C1031 C1029 1.433 . S
C1031 N1034 1.384 . S
C1032 H1023 0.929 . S
C1032 C1024 1.378 . S
C1032 C1027 1.350 . S
C1033 H1020 0.929 . S
C1033 C1025 1.433 . S
C1033 N1035 1.384 . S
N1034 C1030 1.427 . S
N1034 C1031 1.384 . S
N1035 C1027 1.427 . S
N1035 C1033 1.384 . S
H1036 C1042 0.930 . S
H1037 C1046 0.930 . S
H1038 C1051 0.929 . S
H1039 C1049 0.929 . S
H1040 C1044 0.929 . S
H1041 C1050 0.929 . S
C1042 H1036 0.930 . S
C1042 C1043 1.367 . S
C1042 C1050 1.378 . S
C1043 C1042 1.367 . S
C1043 C1051 1.433 . S
C1044 H1040 0.929 . S
C1044 C1046 1.378 . S
C1044 C1048 1.350 . S
C1045 C1048 1.463 . S
C1045 C1050 1.350 . S
C1045 N1053 1.427 . S
C1046 H1037 0.930 . S
C1046 C1044 1.378 . S
C1046 C1047 1.367 . S
C1047 C1046 1.367 . S
C1047 C1049 1.433 . S
C1048 C1044 1.350 . S
C1048 C1045 1.463 . S
C1048 N1052 1.427 . S
C1049 H1039 0.929 . S
C1049 C1047 1.433 . S
C1049 N1052 1.384 . S
C1050 H1041 0.929 . S
C1050 C1042 1.378 . S
C1050 C1045 1.350 . S
C1051 H1038 0.929 . S
C1051 C1043 1.433 . S
C1051 N1053 1.384 . S
N1052 C1048 1.427 . S
N1052 C1049 1.384 . S
N1053 C1045 1.427 . S
N1053 C1051 1.384 . S
H1054 C1060 0.930 . S
H1055 C1064 0.930 . S
H1056 C1069 0.929 . S
H1057 C1067 0.929 . S
H1058 C1062 0.929 . S
H1059 C1068 0.929 . S
C1060 H1054 0.930 . S
C1060 C1061 1.367 . S
C1060 C1068 1.378 . S
C1061 C1060 1.367 . S
C1061 C1069 1.433 1_455 S
C1062 H1058 0.929 . S
C1062 C1064 1.378 . S
C1062 C1066 1.350 1_655 S
C1063 C1066 1.463 . S
C1063 C1068 1.350 . S
C1063 N1071 1.427 1_455 S
C1064 H1055 0.930 . S
C1064 C1062 1.378 . S
C1064 C1065 1.367 1_655 S
C1065 C1064 1.367 1_455 S
C1065 C1067 1.433 . S
C1066 C1062 1.350 1_455 S
C1066 C1063 1.463 . S
C1066 N1070 1.427 . S
C1067 H1057 0.929 . S
C1067 C1065 1.433 . S
C1067 N1070 1.384 . S
C1068 H1059 0.929 . S
C1068 C1060 1.378 . S
C1068 C1063 1.350 . S
C1069 H1056 0.929 . S
C1069 C1061 1.433 1_655 S
C1069 N1071 1.384 . S
N1070 C1066 1.427 . S
N1070 C1067 1.384 . S
N1071 C1063 1.427 1_655 S
N1071 C1069 1.384 . S
H1072 C1078 0.930 . S
H1073 C1082 0.930 . S
H1074 C1087 0.929 . S
H1075 C1085 0.929 . S
H1076 C1080 0.929 . S
H1077 C1086 0.929 . S
C1078 H1072 0.930 . S
C1078 C1079 1.367 . S
C1078 C1086 1.378 . S
C1079 C1078 1.367 . S
C1079 C1087 1.433 . S
C1080 H1076 0.929 . S
C1080 C1082 1.378 . S
C1080 C1084 1.350 . S
C1081 C1084 1.463 . S
C1081 C1086 1.350 . S
C1081 N1089 1.427 . S
C1082 H1073 0.930 . S
C1082 C1080 1.378 . S
C1082 C1083 1.367 . S
C1083 C1082 1.367 . S
C1083 C1085 1.433 . S
C1084 C1080 1.350 . S
C1084 C1081 1.463 . S
C1084 N1088 1.427 . S
C1085 H1075 0.929 . S
C1085 C1083 1.433 . S
C1085 N1088 1.384 . S
C1086 H1077 0.929 . S
C1086 C1078 1.378 . S
C1086 C1081 1.350 . S
C1087 H1074 0.929 . S
C1087 C1079 1.433 . S
C1087 N1089 1.384 . S
N1088 C1084 1.427 . S
N1088 C1085 1.384 . S
N1089 C1081 1.427 . S
N1089 C1087 1.384 . S
H1090 C1096 0.930 1_554 S
H1091 C1100 0.928 1_655 S
H1092 C1105 0.929 . S
H1093 C1103 0.929 . S
H1094 C1098 0.929 . S
H1095 C1104 0.929 . S
C1096 H1090 0.930 1_556 S
C1096 C1097 1.367 . S
C1096 C1104 1.378 . S
C1097 C1096 1.367 . S
C1097 C1105 1.433 . S
C1098 H1094 0.929 . S
C1098 C1100 1.378 . S
C1098 C1102 1.350 . S
C1099 C1102 1.463 . S
C1099 C1104 1.350 . S
C1099 N1107 1.427 . S
C1100 H1091 0.928 1_455 S
C1100 C1098 1.378 . S
C1100 C1101 1.367 . S
C1101 C1100 1.367 . S
C1101 C1103 1.433 . S
C1102 C1098 1.350 . S
C1102 C1099 1.463 . S
C1102 N1106 1.427 . S
C1103 H1093 0.929 . S
C1103 C1101 1.433 . S
C1103 N1106 1.384 . S
C1104 H1095 0.929 . S
C1104 C1096 1.378 . S
C1104 C1099 1.350 . S
C1105 H1092 0.929 . S
C1105 C1097 1.433 . S
C1105 N1107 1.384 . S
N1106 C1102 1.427 . S
N1106 C1103 1.384 . S
N1107 C1099 1.427 . S
N1107 C1105 1.384 . S
H1108 C1114 0.930 . S
H1109 C1118 0.930 . S
H1110 C1123 0.929 . S
H1111 C1121 0.929 . S
H1112 C1116 0.929 . S
H1113 C1122 0.929 . S
C1114 H1108 0.930 . S
C1114 C1115 1.367 . S
C1114 C1122 1.378 . S
C1115 C1114 1.367 . S
C1115 C1123 1.433 . S
C1116 H1112 0.929 . S
C1116 C1118 1.378 . S
C1116 C1120 1.350 . S
C1117 C1120 1.463 . S
C1117 C1122 1.350 . S
C1117 N1125 1.427 . S
C1118 H1109 0.930 . S
C1118 C1116 1.378 . S
C1118 C1119 1.367 . S
C1119 C1118 1.367 . S
C1119 C1121 1.433 . S
C1120 C1116 1.350 . S
C1120 C1117 1.463 . S
C1120 N1124 1.427 . S
C1121 H1111 0.929 . S
C1121 C1119 1.433 . S
C1121 N1124 1.384 . S
C1122 H1113 0.929 . S
C1122 C1114 1.378 . S
C1122 C1117 1.350 . S
C1123 H1110 0.929 . S
C1123 C1115 1.433 . S
C1123 N1125 1.384 . S
N1124 C1120 1.427 . S
N1124 C1121 1.384 . S
N1125 C1117 1.427 . S
N1125 C1123 1.384 . S
H1126 C1132 0.930 . S
H1127 C1136 0.930 . S
H1128 C1141 0.929 . S
H1129 C1139 0.929 . S
H1130 C1134 0.929 . S
H1131 C1140 0.929 . S
C1132 H1126 0.930 . S
C1132 C1133 1.367 . S
C1132 C1140 1.378 . S
C1133 C1132 1.367 . S
C1133 C1141 1.433 . S
C1134 H1130 0.929 . S
C1134 C1136 1.378 . S
C1134 C1138 1.350 . S
C1135 C1138 1.463 . S
C1135 C1140 1.350 . S
C1135 N1143 1.427 . S
C1136 H1127 0.930 . S
C1136 C1134 1.378 . S
C1136 C1137 1.367 . S
C1137 C1136 1.367 . S
C1137 C1139 1.433 . S
C1138 C1134 1.350 . S
C1138 C1135 1.463 . S
C1138 N1142 1.427 . S
C1139 H1129 0.929 . S
C1139 C1137 1.433 . S
C1139 N1142 1.384 . S
C1140 H1131 0.929 . S
C1140 C1132 1.378 . S
C1140 C1135 1.350 . S
C1141 H1128 0.929 . S
C1141 C1133 1.433 . S
C1141 N1143 1.384 . S
N1142 C1138 1.427 . S
N1142 C1139 1.384 . S
N1143 C1135 1.427 . S
N1143 C1141 1.384 . S
H1144 C1150 0.930 . S
H1145 C1154 0.930 . S
H1146 C1159 0.929 . S
H1147 C1157 0.929 . S
H1148 C1152 0.929 . S
H1149 C1158 0.929 . S
C1150 H1144 0.930 . S
C1150 C1151 1.367 . S
C1150 C1158 1.378 . S
C1151 C1150 1.367 . S
C1151 C1159 1.433 . S
C1152 H1148 0.929 . S
C1152 C1154 1.378 . S
C1152 C1156 1.350 . S
C1153 C1156 1.463 . S
C1153 C1158 1.350 . S
C1153 N1161 1.427 . S
C1154 H1145 0.930 . S
C1154 C1152 1.378 . S
C1154 C1155 1.367 . S
C1155 C1154 1.367 . S
C1155 C1157 1.433 . S
C1156 C1152 1.350 . S
C1156 C1153 1.463 . S
C1156 N1160 1.427 . S
C1157 H1147 0.929 . S
C1157 C1155 1.433 . S
C1157 N1160 1.384 . S
C1158 H1149 0.929 . S
C1158 C1150 1.378 . S
C1158 C1153 1.350 . S
C1159 H1146 0.929 . S
C1159 C1151 1.433 . S
C1159 N1161 1.384 . S
N1160 C1156 1.427 . S
N1160 C1157 1.384 . S
N1161 C1153 1.427 . S
N1161 C1159 1.384 . S
H1162 C1168 0.930 . S
H1163 C1172 0.930 . S
H1164 C1177 0.929 1_556 S
H1165 C1175 0.929 . S
H1166 C1170 0.929 . S
H1167 C1176 0.929 . S
C1168 H1162 0.930 . S
C1168 C1169 1.368 . S
C1168 C1176 1.378 . S
C1169 C1168 1.368 . S
C1169 C1177 1.434 . S
C1170 H1166 0.929 . S
C1170 C1172 1.378 . S
C1170 C1174 1.350 . S
C1171 C1174 1.463 . S
C1171 C1176 1.350 . S
C1171 N1179 1.427 . S
C1172 H1163 0.930 . S
C1172 C1170 1.378 . S
C1172 C1173 1.367 . S
C1173 C1172 1.367 . S
C1173 C1175 1.433 . S
C1174 C1170 1.350 . S
C1174 C1171 1.463 . S
C1174 N1178 1.427 . S
C1175 H1165 0.929 . S
C1175 C1173 1.433 . S
C1175 N1178 1.384 . S
C1176 H1167 0.929 . S
C1176 C1168 1.378 . S
C1176 C1171 1.350 . S
C1177 H1164 0.929 1_554 S
C1177 C1169 1.434 . S
C1177 N1179 1.384 . S
N1178 C1174 1.427 . S
N1178 C1175 1.384 . S
N1179 C1171 1.427 . S
N1179 C1177 1.384 . S
H1180 C1186 0.930 . S
H1181 C1190 0.930 . S
H1182 C1195 0.929 . S
H1183 C1193 0.929 . S
H1184 C1188 0.929 . S
H1185 C1194 0.929 . S
C1186 H1180 0.930 . S
C1186 C1187 1.367 . S
C1186 C1194 1.378 . S
C1187 C1186 1.367 . S
C1187 C1195 1.433 . S
C1188 H1184 0.929 . S
C1188 C1190 1.378 . S
C1188 C1192 1.350 . S
C1189 C1192 1.463 . S
C1189 C1194 1.350 . S
C1189 N1197 1.427 . S
C1190 H1181 0.930 . S
C1190 C1188 1.378 . S
C1190 C1191 1.367 . S
C1191 C1190 1.367 . S
C1191 C1193 1.433 . S
C1192 C1188 1.350 . S
C1192 C1189 1.463 . S
C1192 N1196 1.427 . S
C1193 H1183 0.929 . S
C1193 C1191 1.433 . S
C1193 N1196 1.384 . S
C1194 H1185 0.929 . S
C1194 C1186 1.378 . S
C1194 C1189 1.350 . S
C1195 H1182 0.929 . S
C1195 C1187 1.433 . S
C1195 N1197 1.384 . S
N1196 C1192 1.427 . S
N1196 C1193 1.384 . S
N1197 C1189 1.427 . S
N1197 C1195 1.384 . S
H1198 C1204 0.930 . S
H1199 C1208 0.930 . S
H1200 C1213 0.929 . S
H1201 C1211 0.929 . S
H1202 C1206 0.929 . S
H1203 C1212 0.929 . S
C1204 H1198 0.930 . S
C1204 C1205 1.367 . S
C1204 C1212 1.378 . S
C1205 C1204 1.367 . S
C1205 C1213 1.433 . S
C1206 H1202 0.929 . S
C1206 C1208 1.378 . S
C1206 C1210 1.350 . S
C1207 C1210 1.463 . S
C1207 C1212 1.350 . S
C1207 N1215 1.427 . S
C1208 H1199 0.930 . S
C1208 C1206 1.378 . S
C1208 C1209 1.367 . S
C1209 C1208 1.367 . S
C1209 C1211 1.433 . S
C1210 C1206 1.350 . S
C1210 C1207 1.463 . S
C1210 N1214 1.427 . S
C1211 H1201 0.929 . S
C1211 C1209 1.433 . S
C1211 N1214 1.384 . S
C1212 H1203 0.929 . S
C1212 C1204 1.378 . S
C1212 C1207 1.350 . S
C1213 H1200 0.929 . S
C1213 C1205 1.433 . S
C1213 N1215 1.384 . S
N1214 C1210 1.427 . S
N1214 C1211 1.384 . S
N1215 C1207 1.427 . S
N1215 C1213 1.384 . S
H1216 C1222 0.930 . S
H1217 C1226 0.930 . S
H1218 C1231 0.929 . S
H1219 C1229 0.929 . S
H1220 C1224 0.929 . S
H1221 C1230 0.929 . S
C1222 H1216 0.930 . S
C1222 C1223 1.367 . S
C1222 C1230 1.378 . S
C1223 C1222 1.367 . S
C1223 C1231 1.433 . S
C1224 H1220 0.929 . S
C1224 C1226 1.378 . S
C1224 C1228 1.350 . S
C1225 C1228 1.463 . S
C1225 C1230 1.350 . S
C1225 N1233 1.427 . S
C1226 H1217 0.930 . S
C1226 C1224 1.378 . S
C1226 C1227 1.367 . S
C1227 C1226 1.367 . S
C1227 C1229 1.433 . S
C1228 C1224 1.350 . S
C1228 C1225 1.463 . S
C1228 N1232 1.427 . S
C1229 H1219 0.929 . S
C1229 C1227 1.433 . S
C1229 N1232 1.384 . S
C1230 H1221 0.929 . S
C1230 C1222 1.378 . S
C1230 C1225 1.350 . S
C1231 H1218 0.929 . S
C1231 C1223 1.433 . S
C1231 N1233 1.384 . S
N1232 C1228 1.427 . S
N1232 C1229 1.384 . S
N1233 C1225 1.427 . S
N1233 C1231 1.384 . S
H1234 C1240 0.930 . S
H1235 C1244 0.930 . S
H1236 C1249 0.929 . S
H1237 C1247 0.929 . S
H1238 C1242 0.929 . S
H1239 C1248 0.929 . S
C1240 H1234 0.930 . S
C1240 C1241 1.367 . S
C1240 C1248 1.378 . S
C1241 C1240 1.367 . S
C1241 C1249 1.433 . S
C1242 H1238 0.929 . S
C1242 C1244 1.378 . S
C1242 C1246 1.350 . S
C1243 C1246 1.463 . S
C1243 C1248 1.350 . S
C1243 N1251 1.427 . S
C1244 H1235 0.930 . S
C1244 C1242 1.378 . S
C1244 C1245 1.367 . S
C1245 C1244 1.367 . S
C1245 C1247 1.433 . S
C1246 C1242 1.350 . S
C1246 C1243 1.463 . S
C1246 N1250 1.427 . S
C1247 H1237 0.929 . S
C1247 C1245 1.433 . S
C1247 N1250 1.384 . S
C1248 H1239 0.929 . S
C1248 C1240 1.378 . S
C1248 C1243 1.350 . S
C1249 H1236 0.929 . S
C1249 C1241 1.433 . S
C1249 N1251 1.384 . S
N1250 C1246 1.427 . S
N1250 C1247 1.384 . S
N1251 C1243 1.427 . S
N1251 C1249 1.384 . S
H1252 C1258 0.930 . S
H1253 C1262 0.930 . S
H1254 C1267 0.929 . S
H1255 C1265 0.929 . S
H1256 C1260 0.929 . S
H1257 C1266 0.929 . S
C1258 H1252 0.930 . S
C1258 C1259 1.367 1_554 S
C1258 C1266 1.378 . S
C1259 C1258 1.367 1_556 S
C1259 C1267 1.433 . S
C1260 H1256 0.929 . S
C1260 C1262 1.378 . S
C1260 C1264 1.350 . S
C1261 C1264 1.463 . S
C1261 C1266 1.350 1_556 S
C1261 N1269 1.427 . S
C1262 H1253 0.930 . S
C1262 C1260 1.378 . S
C1262 C1263 1.367 . S
C1263 C1262 1.367 . S
C1263 C1265 1.433 1_556 S
C1264 C1260 1.350 . S
C1264 C1261 1.463 . S
C1264 N1268 1.427 1_556 S
C1265 H1255 0.929 . S
C1265 C1263 1.433 1_554 S
C1265 N1268 1.384 . S
C1266 H1257 0.929 . S
C1266 C1258 1.378 . S
C1266 C1261 1.350 1_554 S
C1267 H1254 0.929 . S
C1267 C1259 1.433 . S
C1267 N1269 1.384 . S
N1268 C1264 1.427 1_554 S
N1268 C1265 1.384 . S
N1269 C1261 1.427 . S
N1269 C1267 1.384 . S
H1270 C1276 0.930 . S
H1271 C1280 0.930 . S
H1272 C1285 0.929 . S
H1273 C1283 0.929 . S
H1274 C1278 0.929 . S
H1275 C1284 0.929 . S
C1276 H1270 0.930 . S
C1276 C1277 1.367 . S
C1276 C1284 1.378 . S
C1277 C1276 1.367 . S
C1277 C1285 1.433 . S
C1278 H1274 0.929 . S
C1278 C1280 1.378 . S
C1278 C1282 1.350 . S
C1279 C1282 1.463 . S
C1279 C1284 1.350 . S
C1279 N1287 1.427 . S
C1280 H1271 0.930 . S
C1280 C1278 1.378 . S
C1280 C1281 1.367 . S
C1281 C1280 1.367 . S
C1281 C1283 1.433 . S
C1282 C1278 1.350 . S
C1282 C1279 1.463 . S
C1282 N1286 1.427 . S
C1283 H1273 0.929 . S
C1283 C1281 1.433 . S
C1283 N1286 1.384 . S
C1284 H1275 0.929 . S
C1284 C1276 1.378 . S
C1284 C1279 1.350 . S
C1285 H1272 0.929 . S
C1285 C1277 1.433 . S
C1285 N1287 1.384 . S
N1286 C1282 1.427 . S
N1286 C1283 1.384 . S
N1287 C1279 1.427 . S
N1287 C1285 1.384 . S
H1288 C1294 0.930 . S
H1289 C1298 0.930 . S
H1290 C1303 0.929 1_556 S
H1291 C1301 0.929 . S
H1292 C1296 0.929 . S
H1293 C1302 0.929 . S
C1294 H1288 0.930 . S
C1294 C1295 1.367 . S
C1294 C1302 1.378 . S
C1295 C1294 1.367 . S
C1295 C1303 1.433 . S
C1296 H1292 0.929 . S
C1296 C1298 1.378 . S
C1296 C1300 1.350 1_556 S
C1297 C1300 1.463 . S
C1297 C1302 1.350 . S
C1297 N1305 1.417 1_554 S
C1298 H1289 0.930 . S
C1298 C1296 1.378 . S
C1298 C1299 1.367 1_556 S
C1299 C1298 1.367 1_554 S
C1299 C1301 1.433 . S
C1300 C1296 1.350 1_554 S
C1300 C1297 1.463 . S
C1300 N1304 1.427 . S
C1301 H1291 0.929 . S
C1301 C1299 1.433 . S
C1301 N1304 1.384 . S
C1302 H1293 0.929 . S
C1302 C1294 1.378 . S
C1302 C1297 1.350 . S
C1303 H1290 0.929 1_554 S
C1303 C1295 1.433 . S
C1303 N1305 1.380 1_554 S
N1304 C1300 1.427 . S
N1304 C1301 1.384 . S
N1305 C1297 1.417 1_556 S
N1305 C1303 1.380 1_556 S
H1306 C1312 0.930 . S
H1307 C1316 0.930 . S
H1308 C1321 0.925 1_545 S
H1309 C1319 0.929 . S
H1310 C1314 0.929 . S
H1311 C1320 0.929 . S
C1312 H1306 0.930 . S
C1312 C1313 1.375 . S
C1312 C1320 1.378 . S
C1313 C1312 1.375 . S
C1313 C1321 1.447 . S
C1314 H1310 0.929 . S
C1314 C1316 1.378 . S
C1314 C1318 1.350 . S
C1315 C1318 1.463 . S
C1315 C1320 1.350 . S
C1315 N1323 1.427 . S
C1316 H1307 0.930 . S
C1316 C1314 1.378 . S
C1316 C1317 1.367 . S
C1317 C1316 1.367 . S
C1317 C1319 1.433 . S
C1318 C1314 1.350 . S
C1318 C1315 1.463 . S
C1318 N1322 1.427 . S
C1319 H1309 0.929 . S
C1319 C1317 1.433 . S
C1319 N1322 1.384 . S
C1320 H1311 0.929 . S
C1320 C1312 1.378 . S
C1320 C1315 1.350 . S
C1321 H1308 0.925 1_565 S
C1321 C1313 1.447 . S
C1321 N1323 1.384 . S
N1322 C1318 1.427 . S
N1322 C1319 1.384 . S
N1323 C1315 1.427 . S
N1323 C1321 1.384 . S
C471 C314 1.824 1_556 S
C467 C101 1.828 . S
C489 C327 1.195 . S
C485 C125 1.131 . S
C503 C139 1.971 . S
C507 C340 1.929 . S
C525 C353 1.755 . S
C521 C82 1.809 . S
C543 C361 1.521 . S
C539 C196 1.553 . S
C561 C374 1.756 . S
C557 C234 1.774 . S
C575 C220 0.866 . S
C579 C387 0.912 . S
C597 C400 1.663 1_565 S
C593 C173 1.674 . S
C611 C211 1.080 . S
C615 C418 1.065 . S
C633 C429 1.073 . S
C629 C182 1.064 . S
C647 C201 1.251 . S
C651 C413 1.361 . S
C669 C421 1.346 . S
C665 C239 1.243 . S
C683 C135 1.648 . S
C687 C444 1.649 . S
C701 C87 1.757 . S
C705 C434 1.896 . S
C719 C106 1.199 . S
C723 C439 1.331 . S
C737 C116 1.275 . S
C741 C442 1.276 . S
C755 C59 1.837 . S
C759 C351 1.813 . S
C773 C268 2.146 . S
C777 C343 2.150 . S
C795 C312 1.291 . S
C791 C291 1.292 . S
C813 C317 1.431 . S
C809 C163 1.364 . S
C827 C78 2.069 1_545 S
C831 C364 2.044 . S
C849 C403 1.192 . S
C845 C215 1.216 . S
C867 C356 1.617 . S
C863 C177 1.615 1_545 S
C885 C382 1.733 . S
C881 C230 1.776 . S
C903 C392 1.826 . S
C899 C272 1.835 . S
C917 C296 1.128 . S
C921 C405 1.194 . S
C935 C158 1.970 . S
C939 C366 1.931 . S
C957 C379 1.764 . S
C953 C253 1.808 . S
C971 C63 1.553 . S
C975 C335 1.521 . S
C993 C348 1.748 . S
C989 C6 1.772 . S
C1011 C309 0.894 . S
C1007 C30 0.879 . S
C1029 C322 1.658 . S
C1025 C40 1.678 . S
C1043 C21 1.080 . S
C1047 C431 1.050 . S
C1061 C49 1.065 . S
C1065 C416 1.085 . S
C1079 C68 1.233 . S
C1083 C426 1.352 . S
C1097 C11 1.238 1_556 S
C1101 C408 1.343 . S
C1119 C457 1.651 . S
C1115 C154 1.650 . S
C1137 C447 1.896 . S
C1133 C258 1.762 . S
C1155 C452 1.322 . S
C1151 C277 1.171 . S
C1169 C287 1.279 1_554 S
C1173 C455 1.287 . S
C1187 C192 1.838 . S
C1191 C377 1.811 . S
C1209 C369 2.153 . S
C1205 C97 2.149 . S
C1227 C390 1.285 . S
C1223 C120 1.291 . S
C1245 C395 1.437 . S
C1241 C144 1.353 . S
C1259 C249 2.068 . S
C1263 C338 2.046 . S
C1281 C325 1.189 . S
C1277 C25 1.216 . S
C1295 C44 1.618 . S
C1299 C330 1.611 1_554 S
C1317 C304 1.735 . S
C1313 C2 1.756 1_565 S
