# Generated by pormake.
# Topology anh, (6,3)-cn, num edge types: 1
# Building blocks:
#     Node 0, Type 0, BuildingBlock: INOVEN_clean_sbu_0, # of connection points: 6
#     Node 1, Type 0, BuildingBlock: INOVEN_clean_sbu_0, # of connection points: 6
#     Node 2, Type 0, BuildingBlock: INOVEN_clean_sbu_0, # of connection points: 6
#     Node 3, Type 1, BuildingBlock: CUQRIR_clean_linker_1, # of connection points: 3
#     Node 4, Type 1, BuildingBlock: CUQRIR_clean_linker_1, # of connection points: 3
#     Node 5, Type 1, BuildingBlock: CUQRIR_clean_linker_1, # of connection points: 3
#     Node 6, Type 1, BuildingBlock: CUQRIR_clean_linker_1, # of connection points: 3
#     Node 7, Type 1, BuildingBlock: CUQRIR_clean_linker_1, # of connection points: 3
#     Node 8, Type 1, BuildingBlock: CUQRIR_clean_linker_1, # of connection points: 3
#     Edge 9, Type (0, 1), BuildingBlock: XUDNAN_clean_linker_2, # of connection points: 2
#     Edge 10, Type (0, 1), BuildingBlock: XUDNAN_clean_linker_2, # of connection points: 2
#     Edge 11, Type (0, 1), BuildingBlock: XUDNAN_clean_linker_2, # of connection points: 2
#     Edge 12, Type (0, 1), BuildingBlock: XUDNAN_clean_linker_2, # of connection points: 2
#     Edge 13, Type (0, 1), BuildingBlock: XUDNAN_clean_linker_2, # of connection points: 2
#     Edge 14, Type (0, 1), BuildingBlock: XUDNAN_clean_linker_2, # of connection points: 2
#     Edge 15, Type (0, 1), BuildingBlock: XUDNAN_clean_linker_2, # of connection points: 2
#     Edge 16, Type (0, 1), BuildingBlock: XUDNAN_clean_linker_2, # of connection points: 2
#     Edge 17, Type (0, 1), BuildingBlock: XUDNAN_clean_linker_2, # of connection points: 2
#     Edge 18, Type (0, 1), BuildingBlock: XUDNAN_clean_linker_2, # of connection points: 2
#     Edge 19, Type (0, 1), BuildingBlock: XUDNAN_clean_linker_2, # of connection points: 2
#     Edge 20, Type (0, 1), BuildingBlock: XUDNAN_clean_linker_2, # of connection points: 2
#     Edge 21, Type (0, 1), BuildingBlock: XUDNAN_clean_linker_2, # of connection points: 2
#     Edge 22, Type (0, 1), BuildingBlock: XUDNAN_clean_linker_2, # of connection points: 2
#     Edge 23, Type (0, 1), BuildingBlock: XUDNAN_clean_linker_2, # of connection points: 2
#     Edge 24, Type (0, 1), BuildingBlock: XUDNAN_clean_linker_2, # of connection points: 2
#     Edge 25, Type (0, 1), BuildingBlock: XUDNAN_clean_linker_2, # of connection points: 2
#     Edge 26, Type (0, 1), BuildingBlock: XUDNAN_clean_linker_2, # of connection points: 2
# Relax obj value: 0.202
# Max RMSD: 0.219
# Mean RMSD: 0.168
data_MOF--net-anh--node1-INOVEN_clean_sbu_0--node2-CUQRIR_clean_linker_1--edge1-XUDNAN_clean_linker_2
_symmetry_space_group_name_H-M    P1
_symmetry_Int_Tables_number       1
_symmetry_cell_setting            triclinic
loop_
_symmetry_equiv_pos_as_xyz
'x, y, z'
_cell_length_a     29.08642
_cell_length_b     35.744392
_cell_length_c     46.259784
_cell_angle_alpha  88.444123
_cell_angle_beta   90.755123
_cell_angle_gamma 131.19606
loop_
_atom_site_label
_atom_site_type_symbol
_atom_site_fract_x
_atom_site_fract_y
_atom_site_fract_z
_atom_type_partial_charge
Gd0 Gd 0.13523 0.47446 0.14974 0.0
Gd1 Gd 1.04775 0.49555 0.1524 0.0
C2 C 0.18955 0.58903 0.1572 0.0
C3 C 0.22075 0.47854 0.13138 0.0
C4 C 0.28572 0.51408 0.13977 0.0
C5 C 0.30795 0.49978 0.16021 0.0
C6 C 0.32446 0.5639 0.12973 0.0
C7 C 0.40643 0.58423 0.16027 0.0
C8 C 0.38396 0.59868 0.14006 0.0
C9 C 0.36761 0.53443 0.17034 0.0
C10 C 0.11967 0.48511 0.20592 0.0
C11 C 0.99236 0.37914 0.1533 0.0
C12 C 0.95392 0.48693 0.16029 0.0
C13 C 0.88838 0.44358 0.156 0.0
C14 C 0.86066 0.43897 0.12969 0.0
C15 C 0.85358 0.40554 0.17729 0.0
C16 C 0.76379 0.36089 0.14654 0.0
C17 C 0.79177 0.36466 0.17263 0.0
C18 C 0.79939 0.39808 0.12496 0.0
C19 C 0.09131 0.50177 0.09946 0.0
O20 O 0.19688 0.55859 0.14754 0.0
O21 O 0.13476 0.57222 0.16474 0.0
O22 O 0.18216 0.44632 0.1516 0.0
O23 O 0.20128 0.49752 0.11654 0.0
O24 O 0.15341 0.47549 0.19796 0.0
O25 O 0.09734 0.48839 0.18364 0.0
O26 O 0.98281 0.41044 0.15639 0.0
O27 O 1.04752 0.39519 0.14797 0.0
O28 O 0.9874 0.50698 0.13677 0.0
O29 O 0.98119 0.4836 0.1816 0.0
O30 O 0.08485 0.5322 0.1083 0.0
O31 O 1.07291 0.46876 0.11874 0.0
H32 H 0.2792 0.46174 0.16839 0.0
H33 H 0.30887 0.57624 0.11392 0.0
H34 H 0.41291 0.63662 0.13171 0.0
H35 H 0.38401 0.52158 0.18518 0.0
H36 H 0.88607 0.4675 0.11283 0.0
H37 H 0.87372 0.40768 0.19773 0.0
H38 H 0.76529 0.3369 0.18978 0.0
H39 H 0.77904 0.39734 0.10495 0.0
Gd40 Gd 0.70171 0.04769 0.47245 0.0
Gd41 Gd 0.62844 0.07877 0.46735 0.0
C42 C 0.55372 0.96251 0.46604 0.0
C43 C 0.74659 1.00812 0.48988 0.0
C44 C 0.72463 0.95843 0.49783 0.0
C45 C 0.68354 0.91719 0.48036 0.0
C46 C 0.7456 0.95232 0.52342 0.0
C47 C 0.68647 0.86466 0.51365 0.0
C48 C 0.72658 0.90595 0.53134 0.0
C49 C 0.66487 0.87083 0.48813 0.0
C50 C 0.68791 0.0671 0.41759 0.0
C51 C 0.77855 0.16473 0.4684 0.0
C52 C 0.5822 0.11896 0.45472 0.0
C53 C 0.58503 0.15824 0.4668 0.0
C54 C 0.56799 0.15523 0.49564 0.0
C55 C 0.60406 0.19895 0.44922 0.0
C56 C 0.58676 0.23199 0.48878 0.0
C57 C 0.60527 0.23571 0.46016 0.0
C58 C 0.56863 0.19163 0.50645 0.0
C59 C 0.64061 0.05875 0.52227 0.0
O60 O 0.60386 0.97328 0.47635 0.0
O61 O 0.55491 0.99818 0.45605 0.0
O62 O 0.74358 0.01705 0.46262 0.0
O63 O 0.73122 0.02638 0.50748 0.0
O64 O 0.737 0.07649 0.42666 0.0
O65 O 0.64753 0.0448 0.43709 0.0
O66 O 0.72595 0.15328 0.46233 0.0
O67 O 0.78044 0.12986 0.47609 0.0
O68 O 0.55387 0.07806 0.4703 0.0
O69 O 0.63216 0.13335 0.44263 0.0
O70 O 0.59222 0.04925 0.51246 0.0
O71 O 0.68238 0.08206 0.50336 0.0
H72 H 0.66626 0.92081 0.46058 0.0
H73 H 0.77691 0.98357 0.53733 0.0
H74 H 0.74318 0.9025 0.55143 0.0
H75 H 0.63449 0.84013 0.47378 0.0
H76 H 0.5537 0.1246 0.50986 0.0
H77 H 0.61745 0.20206 0.42694 0.0
H78 H 0.61919 0.26635 0.44605 0.0
H79 H 0.55503 0.18825 0.52873 0.0
Gd80 Gd 0.67769 0.6189 0.84253 0.0
Gd81 Gd 0.58569 0.50871 0.84732 0.0
C82 C 0.52667 0.56143 0.8515 0.0
C83 C 0.73327 0.70997 0.82591 0.0
C84 C 0.71605 0.73995 0.81783 0.0
C85 C 0.67039 0.73458 0.83301 0.0
C86 C 0.74604 0.77488 0.79477 0.0
C87 C 0.68492 0.79853 0.80211 0.0
C88 C 0.73078 0.80383 0.78701 0.0
C89 C 0.65515 0.76349 0.82531 0.0
C90 C 0.66657 0.58241 0.89565 0.0
C91 C 0.73718 0.56575 0.84281 0.0
C92 C 0.53124 0.41602 0.85791 0.0
C93 C 0.54398 0.38308 0.85132 0.0
C94 C 0.57484 0.38967 0.82586 0.0
C95 C 0.5232 0.34335 0.87026 0.0
C96 C 0.55979 0.31495 0.83748 0.0
C97 C 0.53115 0.30988 0.86351 0.0
C98 C 0.58258 0.356 0.819 0.0
C99 C 0.60126 0.54658 0.79368 0.0
O100 O 0.58383 0.60151 0.84322 0.0
O101 O 0.51617 0.51951 0.85798 0.0
O102 O 0.726 0.69556 0.85305 0.0
O103 O 0.71715 0.67531 0.80806 0.0
O104 O 0.71819 0.62142 0.88454 0.0
O105 O 0.62233 0.56642 0.87905 0.0
O106 O 0.67816 0.52419 0.84556 0.0
O107 O 0.74995 0.60921 0.83955 0.0
O108 O 0.51824 0.43125 0.83589 0.0
O109 O 0.56705 0.45109 0.87655 0.0
O110 O 0.54862 0.50905 0.80456 0.0
O111 O 0.64356 0.56111 0.8111 0.0
H112 H 0.64647 0.7081 0.85094 0.0
H113 H 0.78136 0.77975 0.78266 0.0
H114 H 0.75429 0.82978 0.76883 0.0
H115 H 0.62032 0.75863 0.83786 0.0
H116 H 0.59188 0.42029 0.81094 0.0
H117 H 0.49987 0.3377 0.89015 0.0
H118 H 0.51429 0.27968 0.87874 0.0
H119 H 0.60463 0.36129 0.79874 0.0
C120 C 0.58007 0.98987 0.17319 0.0
N121 N 0.61471 0.02978 0.19073 0.0
N122 N 0.52973 0.94903 0.18739 0.0
C123 C 0.59408 0.99138 0.14182 0.0
C124 C 0.5355 0.96581 0.21431 0.0
N125 N 0.58639 0.0146 0.21623 0.0
C126 C 0.4953 0.93313 0.23969 0.0
H127 H 0.55161 0.96316 0.12965 0.0
H128 H 0.6248 0.98334 0.13993 0.0
H129 H 0.61774 0.02886 0.13209 0.0
H130 H 0.47847 0.89502 0.23776 0.0
H131 H 0.45528 0.9307 0.24018 0.0
H132 H 0.51986 0.94835 0.26049 0.0
C133 C 0.65136 0.55071 0.54645 0.0
N134 N 0.65686 0.58216 0.56492 0.0
N135 N 0.65593 0.5198 0.56074 0.0
C136 C 0.6364 0.54717 0.51488 0.0
C137 C 0.66449 0.53364 0.58862 0.0
N138 N 0.66565 0.57194 0.5912 0.0
C139 C 0.66372 0.50553 0.61378 0.0
H140 H 0.58604 0.51969 0.51231 0.0
H141 H 0.65593 0.53422 0.50256 0.0
H142 H 0.65411 0.58364 0.50583 0.0
H143 H 0.65892 0.47372 0.60672 0.0
H144 H 0.6256 0.49182 0.6287 0.0
H145 H 0.70695 0.53085 0.62599 0.0
C146 C 0.13093 0.56116 0.85028 0.0
N147 N 0.16338 0.55385 0.86859 0.0
N148 N 0.08459 0.55614 0.86425 0.0
C149 C 0.14481 0.57372 0.8187 0.0
C150 C 0.09017 0.54483 0.8916 0.0
N151 N 0.13634 0.54381 0.89429 0.0
C152 C 1.04833 0.53298 0.91611 0.0
H153 H 0.10346 0.56054 0.80665 0.0
H154 H 0.16303 0.55718 0.80979 0.0
H155 H 0.17999 0.61472 0.81579 0.0
H156 H 1.00203 0.51535 0.9081 0.0
H157 H 1.0674 0.56807 0.92671 0.0
H158 H 1.0441 0.50769 0.93257 0.0
C159 C 0.16331 0.56302 0.45484 0.0
N160 N 0.12499 0.52504 0.43636 0.0
N161 N 0.20222 0.60739 0.44021 0.0
C162 C 0.16282 0.55696 0.4871 0.0
C163 C 0.18565 0.59518 0.41229 0.0
N164 N 0.13916 0.54558 0.40994 0.0
C165 C 0.21538 0.63172 0.38713 0.0
H166 H 0.17869 0.59099 0.49793 0.0
H167 H 0.19447 0.55073 0.49293 0.0
H168 H 0.11635 0.52443 0.49498 0.0
H169 H 0.25052 0.63217 0.37755 0.0
H170 H 0.23793 0.66987 0.39402 0.0
H171 H 0.1813 0.6204 0.37016 0.0
C172 C 0.63796 0.06841 0.77552 0.0
N173 N 0.6472 0.0479 0.75471 0.0
N174 N 0.63849 0.10418 0.76422 0.0
C175 C 0.62759 0.0529 0.80695 0.0
C176 C 0.64829 0.10449 0.73555 0.0
N177 N 0.654 0.07057 0.72973 0.0
C178 C 0.64401 0.13305 0.71279 0.0
H179 H 0.57848 0.02018 0.81054 0.0
H180 H 0.64057 0.08341 0.8208 0.0
H181 H 0.65431 0.04195 0.8133 0.0
H182 H 0.69082 0.1677 0.70695 0.0
H183 H 0.61777 0.14327 0.72063 0.0
H184 H 0.62184 0.11106 0.69296 0.0
C185 C 0.59409 0.48851 0.13135 0.0
N186 N 0.59386 0.46194 0.11086 0.0
N187 N 0.64205 0.53786 0.12762 0.0
C188 C 0.542 0.46681 0.15212 0.0
C189 C 0.67009 0.54061 0.10361 0.0
N190 N 0.64088 0.49482 0.09326 0.0
C191 C 0.7234 0.5884 0.08877 0.0
H192 H 0.52781 0.48903 0.15112 0.0
H193 H 0.55716 0.46834 0.17451 0.0
H194 H 0.50208 0.42767 0.14704 0.0
H195 H 0.74672 0.62037 0.10337 0.0
H196 H 0.70693 0.5954 0.06937 0.0
H197 H 0.75685 0.58525 0.08143 0.0
H198 H 0.49877 0.64253 0.12211 0.0
H199 H 0.4617 0.59764 0.21234 0.0
H200 H 0.56083 0.61924 0.21675 0.0
H201 H 0.52715 0.58382 0.10195 0.0
H202 H 0.59159 0.62427 0.07769 0.0
H203 H 0.54413 0.63783 0.08487 0.0
H204 H 0.63722 0.72527 0.10193 0.0
H205 H 0.68582 0.71196 0.09435 0.0
H206 H 0.68645 0.73242 0.12964 0.0
H207 H 0.627 0.60321 0.20682 0.0
H208 H 0.65087 0.55581 0.18461 0.0
H209 H 0.64411 0.60527 0.09996 0.0
C210 C 0.51386 0.64085 0.1432 0.0
C211 C 0.47256 0.61754 0.16665 0.0
C212 C 0.49262 0.61486 0.19396 0.0
C213 C 0.54932 0.62749 0.19665 0.0
C214 C 0.58545 0.64304 0.17189 0.0
C215 C 0.56961 0.65187 0.14571 0.0
C216 C 0.60546 0.65491 0.12085 0.0
C217 C 0.56453 0.62318 0.09494 0.0
C218 C 0.6568 0.70938 0.11114 0.0
C219 C 0.63192 0.63482 0.13599 0.0
C220 C 0.62481 0.63258 0.16576 0.0
C221 C 0.63482 0.60649 0.18374 0.0
C222 C 0.64768 0.57916 0.17102 0.0
C223 C 0.64917 0.57737 0.14068 0.0
C224 C 0.6451 0.60785 0.12321 0.0
H225 H 0.79878 0.24716 0.44496 0.0
H226 H 0.8919 0.20342 0.48707 0.0
H227 H 0.98929 0.2901 0.48338 0.0
H228 H 0.92067 0.33609 0.39441 0.0
H229 H 0.90914 0.37973 0.39602 0.0
H230 H 0.84584 0.31431 0.40231 0.0
H231 H 0.82527 0.33282 0.45192 0.0
H232 H 0.88831 0.3983 0.44573 0.0
H233 H 0.88615 0.36756 0.4779 0.0
H234 H 1.0776 0.38207 0.47542 0.0
H235 H 0.14997 0.4722 0.46295 0.0
H236 H 1.00217 0.45797 0.42539 0.0
C237 C 0.83958 0.2558 0.45353 0.0
C238 C 0.8371 0.21794 0.46643 0.0
C239 C 0.89203 0.23125 0.4771 0.0
C240 C 0.94783 0.2806 0.47512 0.0
C241 C 0.94872 0.31681 0.46222 0.0
C242 C 0.89611 0.30511 0.45152 0.0
C243 C 0.91016 0.35125 0.43832 0.0
C244 C 0.89557 0.34495 0.40584 0.0
C245 C 0.87541 0.36318 0.45443 0.0
C246 C 0.97871 0.39062 0.44338 0.0
C247 C 0.9999 0.36984 0.45728 0.0
C248 C 1.06139 0.39862 0.46454 0.0
C249 C 0.1022 0.4498 0.45749 0.0
C250 C 0.08183 0.47206 0.44323 0.0
C251 C 1.01916 0.44186 0.43602 0.0
H252 H 0.75927 0.89708 0.78215 0.0
H253 H 0.57015 0.76831 0.80241 0.0
H254 H 0.54046 0.81737 0.79046 0.0
H255 H 0.75877 0.98843 0.8105 0.0
H256 H 0.80647 0.03452 0.7824 0.0
H257 H 0.81331 0.98914 0.79176 0.0
H258 H 0.79363 0.9621 0.73846 0.0
H259 H 0.78666 1.00742 0.72895 0.0
H260 H 0.72569 0.94292 0.72073 0.0
H261 H 0.53111 0.88107 0.77884 0.0
H262 H 0.54332 0.95536 0.76744 0.0
H263 H 0.73649 0.04263 0.7521 0.0
C264 C 0.71145 0.87887 0.7837 0.0
C265 C 0.66728 0.82855 0.79358 0.0
C266 C 0.60534 0.80683 0.79557 0.0
C267 C 0.5878 0.83436 0.78855 0.0
C268 C 0.63241 0.88374 0.77922 0.0
C269 C 0.69295 0.90585 0.77659 0.0
C270 C 0.73183 0.95996 0.76652 0.0
C271 C 0.78046 0.99507 0.78915 0.0
C272 C 0.76119 0.96859 0.7369 0.0
C273 C 0.6838 0.96492 0.76428 0.0
C274 C 0.62673 0.92035 0.7717 0.0
C275 C 0.57542 0.91593 0.77265 0.0
C276 C 0.58263 0.95814 0.76615 0.0
C277 C 0.64043 1.00416 0.75848 0.0
C278 C 0.69162 1.00749 0.75729 0.0
H279 H 0.68414 0.3422 0.18619 0.0
H280 H 0.69358 0.30499 0.09989 0.0
H281 H 0.60144 0.29093 0.08672 0.0
H282 H 0.49934 0.27161 0.18085 0.0
H283 H 0.51768 0.32149 0.20197 0.0
H284 H 0.55175 0.29488 0.2106 0.0
H285 H 0.65851 0.38239 0.20722 0.0
H286 H 0.62521 0.40865 0.19858 0.0
H287 H 0.6812 0.41936 0.1743 0.0
H288 H 0.55165 0.32315 0.07581 0.0
H289 H 0.55162 0.3914 0.06977 0.0
H290 H 0.58205 0.41767 0.16145 0.0
C291 C 0.66358 0.32727 0.1653 0.0
C292 C 0.69636 0.32603 0.14385 0.0
C293 C 0.66931 0.3068 0.11655 0.0
C294 C 0.61662 0.29862 0.10894 0.0
C295 C 0.59129 0.30926 0.129 0.0
C296 C 0.6123 0.32101 0.15732 0.0
C297 C 0.59054 0.3442 0.17227 0.0
C298 C 0.53661 0.30574 0.1926 0.0
C299 C 0.64203 0.39148 0.18892 0.0
C300 C 0.5686 0.35518 0.14627 0.0
C301 C 0.56345 0.33048 0.12219 0.0
C302 C 0.55435 0.34173 0.09468 0.0
C303 C 0.5559 0.38165 0.0913 0.0
C304 C 0.56891 0.41125 0.11508 0.0
C305 C 0.57063 0.39521 0.143 0.0
H306 H 0.53389 0.87696 0.45481 0.0
H307 H 0.44026 0.92922 0.47656 0.0
H308 H 0.34146 0.84277 0.47678 0.0
H309 H 0.41932 0.78601 0.40483 0.0
H310 H 0.42736 0.74115 0.41364 0.0
H311 H 0.49132 0.80649 0.41776 0.0
H312 H 0.50108 0.78995 0.47136 0.0
H313 H 0.43682 0.72456 0.46746 0.0
H314 H 0.43595 0.75855 0.49519 0.0
H315 H 0.25209 0.75056 0.4743 0.0
H316 H 0.17773 0.66069 0.46338 0.0
H317 H 0.32623 0.66742 0.43937 0.0
C318 C 0.49256 0.87 0.4599 0.0
C319 C 0.49488 0.90991 0.46596 0.0
C320 C 0.43966 0.89937 0.47188 0.0
C321 C 0.3833 0.85028 0.47221 0.0
C322 C 0.38236 0.81179 0.46608 0.0
C323 C 0.4354 0.82107 0.45954 0.0
C324 C 0.42082 0.77327 0.45134 0.0
C325 C 0.44089 0.77697 0.42003 0.0
C326 C 0.45044 0.76086 0.47261 0.0
C327 C 0.35146 0.73578 0.45432 0.0
C328 C 0.33042 0.75877 0.46335 0.0
C329 C 0.26813 0.7322 0.46734 0.0
C330 C 0.2262 0.68119 0.46132 0.0
C331 C 0.24638 0.65718 0.45114 0.0
C332 C 0.30989 0.68484 0.44777 0.0
H333 H 0.65239 0.32708 0.80813 0.0
H334 H 0.47322 0.21402 0.84726 0.0
H335 H 0.47622 0.14947 0.83414 0.0
H336 H 0.62707 0.25384 0.74739 0.0
H337 H 0.70399 0.27709 0.74683 0.0
H338 H 0.6893 0.31534 0.76003 0.0
H339 H 0.74194 0.3253 0.80834 0.0
H340 H 0.75671 0.28701 0.79532 0.0
H341 H 0.71566 0.27064 0.82882 0.0
H342 H 0.49651 0.09608 0.81602 0.0
H343 H 0.53304 0.05777 0.79348 0.0
H344 H 0.69852 0.20341 0.76537 0.0
C345 C 0.61363 0.28877 0.81387 0.0
C346 C 0.56283 0.27617 0.82919 0.0
C347 C 0.51341 0.2253 0.83626 0.0
C348 C 0.51441 0.18807 0.82868 0.0
C349 C 0.56504 0.20178 0.81381 0.0
C350 C 0.61376 0.25084 0.80637 0.0
C351 C 0.66214 0.2551 0.78994 0.0
C352 C 0.67114 0.27662 0.75923 0.0
C353 C 0.7227 0.28637 0.80661 0.0
C354 C 0.63282 0.2008 0.78928 0.0
C355 C 0.57682 0.17079 0.80326 0.0
C356 C 0.5405 0.11928 0.80523 0.0
C357 C 0.56174 0.09782 0.79256 0.0
C358 C 0.61891 0.12758 0.77812 0.0
C359 C 0.65484 0.17985 0.77648 0.0
H360 H 0.75718 0.84709 0.53892 0.0
H361 H 0.57463 0.77114 0.50616 0.0
H362 H 0.54629 0.69032 0.51733 0.0
H363 H 0.77371 0.76489 0.51298 0.0
H364 H 0.81334 0.76784 0.54435 0.0
H365 H 0.8189 0.81979 0.53458 0.0
H366 H 0.78026 0.8163 0.5856 0.0
H367 H 0.77472 0.76435 0.59556 0.0
H368 H 0.7089 0.75897 0.59895 0.0
H369 H 0.53937 0.61781 0.52976 0.0
H370 H 0.55425 0.55896 0.5438 0.0
H371 H 0.73866 0.68163 0.57086 0.0
C372 C 0.71082 0.81359 0.53457 0.0
C373 C 0.66827 0.81574 0.52153 0.0
C374 C 0.6085 0.7707 0.51567 0.0
C375 C 0.59175 0.72454 0.52217 0.0
C376 C 0.63498 0.72392 0.53484 0.0
C377 C 0.69313 0.76725 0.5412 0.0
C378 C 0.73135 0.75636 0.55438 0.0
C379 C 0.78763 0.77853 0.53543 0.0
C380 C 0.74988 0.77511 0.58547 0.0
C381 C 0.68592 0.70012 0.55398 0.0
C382 C 0.63056 0.68213 0.54263 0.0
C383 C 0.58232 0.63146 0.53888 0.0
C384 C 0.59112 0.59842 0.54673 0.0
C385 C 0.64751 0.61622 0.55824 0.0
C386 C 0.69511 0.66752 0.56228 0.0
H387 H 0.85863 0.62294 0.86918 0.0
H388 H 0.7331 0.49601 0.81505 0.0
H389 H 0.80694 0.48344 0.81226 0.0
H390 H 1.00324 0.66814 0.83636 0.0
H391 H 1.04308 0.68333 0.87014 0.0
H392 H 0.98244 0.68481 0.86683 0.0
H393 H 0.92661 0.62374 0.91043 0.0
H394 H 0.98724 0.62229 0.91393 0.0
H395 H 0.90936 0.5652 0.91003 0.0
H396 H 0.90092 0.4851 0.81421 0.0
H397 H 0.99202 0.49484 0.82536 0.0
H398 H 1.05744 0.61531 0.88199 0.0
C399 C 0.8466 0.59275 0.85636 0.0
C400 C 0.78806 0.56125 0.84169 0.0
C401 C 0.77614 0.52159 0.82626 0.0
C402 C 0.81872 0.51404 0.82453 0.0
C403 C 0.87522 0.54541 0.83892 0.0
C404 C 0.88873 0.58363 0.85507 0.0
C405 C 0.95123 0.6099 0.87006 0.0
C406 C 0.99777 0.66483 0.86028 0.0
C407 C 0.94314 0.60502 0.90308 0.0
C408 C 0.97121 0.5814 0.85963 0.0
C409 C 0.92675 0.5446 0.8413 0.0
C410 C 0.93531 0.51403 0.82861 0.0
C411 C 0.98848 0.5202 0.83486 0.0
C412 C 1.03507 0.5566 0.85413 0.0
C413 C 1.0248 0.58748 0.86666 0.0
H414 H 0.20427 0.66978 0.17831 0.0
H415 H 0.3042 0.63247 0.13925 0.0
H416 H 0.39865 0.71934 0.14117 0.0
H417 H 0.28952 0.79135 0.14156 0.0
H418 H 0.29021 0.82135 0.17248 0.0
H419 H 0.2284 0.75564 0.16784 0.0
H420 H 0.24933 0.73752 0.21858 0.0
H421 H 0.31115 0.80316 0.22336 0.0
H422 H 0.32481 0.76087 0.22704 0.0
H423 H 0.48453 0.80965 0.1485 0.0
H424 H 0.55605 0.89818 0.16129 0.0
H425 H 0.40474 0.88221 0.19384 0.0
C426 C 0.24593 0.67994 0.17005 0.0
C427 C 0.24585 0.64333 0.15862 0.0
C428 C 0.302 0.65886 0.1482 0.0
C429 C 0.35645 0.70858 0.14911 0.0
C430 C 0.35512 0.74345 0.16047 0.0
C431 C 0.30152 0.73012 0.17077 0.0
C432 C 0.31406 0.7757 0.18228 0.0
C433 C 0.27842 0.78665 0.16501 0.0
C434 C 0.29893 0.76889 0.21475 0.0
C435 C 0.38274 0.8162 0.17689 0.0
C436 C 0.40522 0.79649 0.16426 0.0
C437 C 0.46731 0.82567 0.15804 0.0
C438 C 0.50769 0.87619 0.1651 0.0
C439 C 0.4863 0.8977 0.17808 0.0
C440 C 0.42261 0.86705 0.1838 0.0
H441 H 0.67515 0.33389 0.48427 0.0
H442 H 0.49399 0.21396 0.51911 0.0
H443 H 0.49101 0.27534 0.53967 0.0
H444 H 0.72941 0.41283 0.54445 0.0
H445 H 0.77309 0.46982 0.52315 0.0
H446 H 0.75993 0.41665 0.50974 0.0
H447 H 0.71265 0.42033 0.46307 0.0
H448 H 0.72574 0.47359 0.47632 0.0
H449 H 0.64998 0.41921 0.46586 0.0
H450 H 0.50822 0.34875 0.55749 0.0
H451 H 0.54635 0.43096 0.57254 0.0
H452 H 0.71638 0.50368 0.52694 0.0
C453 C 0.63461 0.32068 0.49592 0.0
C454 C 0.58476 0.26924 0.50014 0.0
C455 C 0.53285 0.25323 0.51588 0.0
C456 C 0.53059 0.28777 0.52747 0.0
C457 C 0.58065 0.33817 0.52317 0.0
C458 C 0.63175 0.35471 0.50782 0.0
C459 C 0.68023 0.41102 0.50737 0.0
C460 C 0.73913 0.42859 0.52206 0.0
C461 C 0.69287 0.43228 0.47631 0.0
C462 C 0.64854 0.42343 0.52507 0.0
C463 C 0.59094 0.38077 0.53378 0.0
C464 C 0.55311 0.38241 0.55074 0.0
C465 C 0.57491 0.42892 0.55919 0.0
C466 C 0.63391 0.47284 0.55082 0.0
C467 C 0.67104 0.47024 0.5334 0.0
H468 H 0.39881 0.49458 0.8734 0.0
H469 H 0.53386 0.63878 0.83126 0.0
H470 H 0.46016 0.65127 0.83058 0.0
H471 H 0.26409 0.46184 0.83517 0.0
H472 H 0.21375 0.43255 0.86615 0.0
H473 H 0.27647 0.43369 0.86348 0.0
H474 H 0.31606 0.47533 0.91298 0.0
H475 H 0.25352 0.47441 0.91575 0.0
H476 H 0.33113 0.53223 0.9187 0.0
H477 H 0.36648 0.64903 0.83356 0.0
H478 H 0.27095 0.63329 0.84173 0.0
H479 H 0.1906 0.49119 0.88232 0.0
C480 C 0.41339 0.52895 0.86395 0.0
C481 C 0.47521 0.56563 0.85231 0.0
C482 C 0.48905 0.60952 0.84052 0.0
C483 C 0.44642 0.61711 0.83995 0.0
C484 C 0.38704 0.58088 0.85141 0.0
C485 C 0.37049 0.53751 0.8634 0.0
C486 C 0.30345 0.50494 0.87461 0.0
C487 C 0.26197 0.45528 0.85893 0.0
C488 C 0.30088 0.49617 0.90747 0.0
C489 C 0.28498 0.53627 0.86708 0.0
C490 C 0.33423 0.58002 0.85352 0.0
C491 C 0.32833 0.61464 0.84424 0.0
C492 C 0.27264 0.60514 0.84886 0.0
C493 C 0.22038 0.56105 0.86299 0.0
C494 C 0.22812 0.52613 0.87207 0.0
H495 H 0.87199 0.32773 0.17115 0.0
H496 H 0.99341 0.30473 0.14281 0.0
H497 H 0.91062 0.2144 0.14959 0.0
H498 H 0.7942 0.23108 0.22642 0.0
H499 H 0.71996 0.21146 0.21978 0.0
H500 H 0.78786 0.27488 0.21193 0.0
H501 H 0.75286 0.26702 0.15892 0.0
H502 H 0.68437 0.20402 0.16699 0.0
H503 H 0.73346 0.21699 0.13758 0.0
H504 H 0.81579 0.12621 0.15979 0.0
H505 H 0.71394 0.0457 0.17238 0.0
H506 H 0.65129 0.12249 0.19495 0.0
C507 C 0.88109 0.3037 0.16617 0.0
C508 C 0.9399 0.32401 0.15635 0.0
C509 C 0.94936 0.29078 0.15033 0.0
C510 C 0.90239 0.2391 0.15414 0.0
C511 C 0.84552 0.22045 0.16407 0.0
C512 C 0.8344 0.25157 0.16997 0.0
C513 C 0.76883 0.22129 0.18067 0.0
C514 C 0.76767 0.23554 0.21154 0.0
C515 C 0.73274 0.22771 0.1598 0.0
C516 C 0.74525 0.16851 0.18005 0.0
C517 C 0.79043 0.16912 0.17023 0.0
C518 C 0.78005 0.12532 0.16739 0.0
C519 C 0.72203 0.07971 0.17447 0.0
C520 C 0.67464 0.07773 0.18437 0.0
C521 C 0.68675 0.12294 0.18748 0.0
H522 H 0.14864 0.57834 0.05969 0.0
H523 H 1.07501 0.42695 0.07147 0.0
H524 H 0.09626 0.42612 0.01985 0.0
H525 H 0.08762 0.5652 0.99229 0.0
H526 H 0.15259 0.62584 0.97834 0.0
H527 H 0.13807 0.61568 0.0166 0.0
H528 H 0.24725 0.64788 0.02494 0.0
H529 H 0.26162 0.65748 0.9865 0.0
H530 H 0.27097 0.61905 0.00668 0.0
H531 H 0.10716 0.43706 0.9651 0.0
H532 H 0.11027 0.45983 0.91376 0.0
H533 H 0.18892 0.60711 0.93804 0.0
C534 C 0.1382 0.54537 0.05153 0.0
C535 C 0.11007 0.50263 0.06955 0.0
C536 C 0.09678 0.46014 0.05807 0.0
C537 C 0.10883 0.45943 0.02878 0.0
C538 C 0.13558 0.50195 0.01139 0.0
C539 C 0.15097 0.54442 0.02253 0.0
C540 C 0.17564 0.58411 0.99908 0.0
C541 C 0.13611 0.59851 0.99643 0.0
C542 C 0.24287 0.62984 0.00464 0.0
C543 C 0.16942 0.55678 0.97272 0.0
C544 C 0.1464 0.50943 0.98021 0.0
C545 C 0.12787 0.47476 0.9591 0.0
C546 C 0.1309 0.48823 0.92984 0.0
C547 C 0.15372 0.53629 0.92176 0.0
C548 C 0.17505 0.57128 0.94357 0.0
H549 H 0.74225 0.07122 0.36791 0.0
H550 H 0.60379 0.07281 0.39919 0.0
H551 H 0.57711 0.07634 0.34896 0.0
H552 H 0.78524 0.14823 0.29998 0.0
H553 H 0.79142 0.10966 0.27933 0.0
H554 H 0.80868 0.11746 0.31742 0.0
H555 H 0.72948 0.02182 0.32582 0.0
H556 H 0.7126 0.01388 0.28783 0.0
H557 H 0.65195 0.98724 0.31386 0.0
H558 H 0.55688 0.06989 0.2963 0.0
H559 H 0.53654 0.04403 0.24532 0.0
H560 H 0.68328 0.04184 0.2472 0.0
C561 C 0.70764 0.07384 0.36406 0.0
C562 C 0.67599 0.07297 0.38738 0.0
C563 C 0.62929 0.0744 0.38163 0.0
C564 C 0.61401 0.0766 0.35315 0.0
C565 C 0.64536 0.07674 0.33056 0.0
C566 C 0.6908 0.07487 0.33563 0.0
C567 C 0.71104 0.06811 0.30762 0.0
C568 C 0.77809 0.11359 0.30068 0.0
C569 C 0.70061 0.0199 0.30887 0.0
C570 C 0.6684 0.06468 0.28625 0.0
C571 C 0.63211 0.07117 0.29988 0.0
C572 C 0.58581 0.06571 0.28528 0.0
C573 C 0.57471 0.05136 0.25637 0.0
C574 C 0.60928 0.04221 0.24247 0.0
C575 C 0.65785 0.05038 0.25727 0.0
H576 H 0.70185 0.59235 0.75871 0.0
H577 H 0.51798 0.53865 0.76066 0.0
H578 H 0.52464 0.55757 0.70844 0.0
H579 H 0.76421 0.69067 0.69884 0.0
H580 H 0.8076 0.67645 0.68339 0.0
H581 H 0.79448 0.66998 0.72191 0.0
H582 H 0.74736 0.57823 0.72048 0.0
H583 H 0.76048 0.58456 0.68214 0.0
H584 H 0.68458 0.53619 0.69643 0.0
H585 H 0.5423 0.56627 0.65588 0.0
H586 H 0.56836 0.56093 0.60656 0.0
H587 H 0.742 0.61126 0.6369 0.0
C588 C 0.66404 0.58639 0.74822 0.0
C589 C 0.60962 0.56455 0.76357 0.0
C590 C 0.56012 0.55559 0.74917 0.0
C591 C 0.56368 0.56657 0.71958 0.0
C592 C 0.61713 0.58653 0.70469 0.0
C593 C 0.66662 0.59654 0.71849 0.0
C594 C 0.71488 0.61097 0.69678 0.0
C595 C 0.77379 0.66526 0.70045 0.0
C596 C 0.7275 0.57535 0.6991 0.0
C597 C 0.68328 0.60475 0.66867 0.0
C598 C 0.62759 0.59184 0.67378 0.0
C599 C 0.58663 0.57796 0.6515 0.0
C600 C 0.60194 0.57542 0.62349 0.0
C601 C 0.65764 0.58671 0.61799 0.0
C602 C 0.69969 0.60338 0.64065 0.0
H603 H 0.72843 0.12276 0.56236 0.0
H604 H 0.56077 0.97099 0.55069 0.0
H605 H 0.55603 0.95372 0.60312 0.0
H606 H 0.78991 0.09784 0.62563 0.0
H607 H 0.81768 0.15369 0.64325 0.0
H608 H 0.81542 0.15156 0.60431 0.0
H609 H 0.75042 0.17732 0.60324 0.0
H610 H 0.75231 0.17934 0.64206 0.0
H611 H 0.67999 0.14077 0.62365 0.0
H612 H 0.55983 0.95606 0.65679 0.0
H613 H 0.57036 0.97883 0.70784 0.0
H614 H 0.73511 0.12902 0.68643 0.0
C615 C 0.69233 0.08545 0.57084 0.0
C616 C 0.64572 0.04771 0.55254 0.0
C617 C 0.59739 0.99998 0.5644 0.0
C618 C 0.59441 0.98985 0.59413 0.0
C619 C 0.63989 0.02806 0.61189 0.0
C620 C 0.68808 0.07498 0.60075 0.0
C621 C 0.72616 0.111 0.625 0.0
C622 C 0.79116 0.12962 0.62451 0.0
C623 C 0.72724 0.15466 0.62338 0.0
C624 C 0.69064 0.0775 0.65133 0.0
C625 C 0.6417 0.02958 0.64326 0.0
C626 C 0.59897 0.99309 0.66346 0.0
C627 C 0.60556 1.00615 0.69251 0.0
C628 C 0.65444 0.05523 0.70121 0.0
C629 C 0.69819 0.09094 0.68038 0.0
H630 H 0.57499 0.5298 0.93612 0.0
H631 H 0.75161 0.57809 0.91414 0.0
H632 H 0.75241 0.54215 0.96023 0.0
H633 H 0.61104 0.56662 0.00592 0.0
H634 H 0.53701 0.51649 0.02141 0.0
H635 H 0.54324 0.53473 0.98414 0.0
H636 H 0.4862 0.44419 0.96907 0.0
H637 H 0.48039 0.42585 0.00648 0.0
H638 H 0.51508 0.41439 0.98037 0.0
H639 H 0.74267 0.51394 0.01113 0.0
H640 H 0.72696 0.50265 0.06431 0.0
H641 H 0.55968 0.47599 0.05452 0.0
C642 C 0.61267 0.53116 0.94075 0.0
C643 C 0.66292 0.55611 0.92171 0.0
C644 C 0.71262 0.55891 0.9286 0.0
C645 C 0.71319 0.53819 0.95457 0.0
C646 C 0.66382 0.51503 0.97347 0.0
C647 C 0.61451 0.51157 0.96696 0.0
C648 C 0.57229 0.49228 0.99281 0.0
C649 C 0.56558 0.52978 0.00158 0.0
C650 C 0.50978 0.44113 0.98681 0.0
C651 C 0.60723 0.48806 0.0152 0.0
C652 C 0.65888 0.49976 0.0034 0.0
C653 C 0.70162 0.50348 0.02051 0.0
C654 C 0.69249 0.49695 0.05056 0.0
C655 C 0.64162 0.48752 0.063 0.0
C656 C 0.59767 0.48149 0.04508 0.0
H657 H 0.17838 0.48946 0.25367 0.0
H658 H 1.0336 0.48744 0.2268 0.0
H659 H 1.01302 0.49097 0.27797 0.0
H660 H 0.1075 0.41626 0.32083 0.0
H661 H 0.17871 0.4535 0.3402 0.0
H662 H 0.17824 0.44639 0.30174 0.0
H663 H 0.25458 0.54225 0.29393 0.0
H664 H 0.25596 0.54951 0.33233 0.0
H665 H 0.23638 0.57759 0.30825 0.0
H666 H 1.01303 0.49998 0.33212 0.0
H667 H 1.04049 0.52204 0.38364 0.0
H668 H 0.18539 0.51877 0.37491 0.0
C669 C 0.14189 0.48924 0.25859 0.0
C670 C 0.10715 0.48782 0.23631 0.0
C671 C 1.06053 0.48839 0.24353 0.0
C672 C 1.04834 0.49004 0.27256 0.0
C673 C 0.08333 0.49119 0.29408 0.0
C674 C 0.12957 0.49127 0.28737 0.0
C675 C 0.16387 0.49674 0.31416 0.0
C676 C 0.15662 0.45046 0.31954 0.0
C677 C 0.23169 0.54435 0.31204 0.0
C678 C 0.13051 0.50062 0.33702 0.0
C679 C 0.08351 0.49653 0.32511 0.0
C680 C 1.04893 0.5023 0.34173 0.0
C681 C 1.06425 0.51427 0.37095 0.0
C682 C 0.11347 0.52026 0.38313 0.0
C683 C 0.14607 0.51235 0.36613 0.0
loop_
_geom_bond_atom_site_label_1
_geom_bond_atom_site_label_2
_geom_bond_distance
_geom_bond_site_symmetry_2
_ccdc_geom_bond_type
Gd0 C3 2.818 . S
Gd0 O20 2.377 . S
Gd0 O22 2.448 . S
Gd0 O23 2.506 . S
Gd0 O24 2.435 . S
Gd0 O25 2.717 1_455 S
Gd0 O27 2.395 1_455 S
Gd0 O31 2.327 . S
Gd1 C12 2.818 . S
Gd1 O21 2.395 1_655 S
Gd1 O25 2.327 . S
Gd1 O26 2.377 . S
Gd1 O28 2.448 . S
Gd1 O29 2.506 . S
Gd1 O30 2.435 . S
Gd1 O31 2.717 1_655 S
C2 O20 1.240 . S
C2 O21 1.240 . S
C3 Gd0 2.818 . S
C3 C4 1.510 . S
C3 O22 1.249 . S
C3 O23 1.252 . S
C4 C3 1.510 . S
C4 C5 1.404 . S
C4 C6 1.352 . S
C5 C4 1.404 . S
C5 C9 1.389 . S
C5 H32 0.930 . S
C6 C4 1.352 . S
C6 C8 1.374 . S
C6 H33 0.931 . S
C7 C8 1.359 . S
C7 C9 1.364 . S
C8 C6 1.374 . S
C8 C7 1.359 . S
C8 H34 0.931 . S
C9 C5 1.389 . S
C9 C7 1.364 . S
C9 H35 0.931 . S
C10 O24 1.256 . S
C10 O25 1.257 1_455 S
C11 O26 1.240 . S
C11 O27 1.240 . S
C12 Gd1 2.818 . S
C12 C13 1.510 . S
C12 O28 1.249 . S
C12 O29 1.252 . S
C13 C12 1.510 . S
C13 C14 1.404 . S
C13 C15 1.352 . S
C14 C13 1.404 . S
C14 C18 1.389 . S
C14 H36 0.930 . S
C15 C13 1.352 . S
C15 C17 1.374 . S
C15 H37 0.931 . S
C16 C17 1.359 . S
C16 C18 1.364 . S
C17 C15 1.374 . S
C17 C16 1.359 . S
C17 H38 0.931 . S
C18 C14 1.389 . S
C18 C16 1.364 . S
C18 H39 0.931 . S
C19 O30 1.256 1_455 S
C19 O31 1.257 . S
O20 Gd0 2.377 . S
O20 C2 1.240 . S
O21 Gd1 2.395 1_455 S
O21 C2 1.240 . S
O22 Gd0 2.448 . S
O22 C3 1.249 . S
O23 Gd0 2.506 . S
O23 C3 1.252 . S
O24 Gd0 2.435 . S
O24 C10 1.256 . S
O25 Gd0 2.717 1_655 S
O25 Gd1 2.327 . S
O25 C10 1.257 1_655 S
O26 Gd1 2.377 . S
O26 C11 1.240 . S
O27 Gd0 2.395 1_655 S
O27 C11 1.240 . S
O28 Gd1 2.448 . S
O28 C12 1.249 . S
O29 Gd1 2.506 . S
O29 C12 1.252 . S
O30 Gd1 2.435 . S
O30 C19 1.256 1_655 S
O31 Gd0 2.327 . S
O31 Gd1 2.717 1_455 S
O31 C19 1.257 . S
H32 C5 0.930 . S
H33 C6 0.931 . S
H34 C8 0.931 . S
H35 C9 0.931 . S
H36 C14 0.930 . S
H37 C15 0.931 . S
H38 C17 0.931 . S
H39 C18 0.931 . S
Gd40 C43 2.818 1_545 S
Gd40 O60 2.377 1_545 S
Gd40 O62 2.448 1_545 S
Gd40 O63 2.506 1_545 S
Gd40 O64 2.435 . S
Gd40 O65 2.717 . S
Gd40 O67 2.395 . S
Gd40 O71 2.327 . S
Gd41 C52 2.818 . S
Gd41 O61 2.395 1_545 S
Gd41 O65 2.327 . S
Gd41 O66 2.377 . S
Gd41 O68 2.448 . S
Gd41 O69 2.506 . S
Gd41 O70 2.435 . S
Gd41 O71 2.717 . S
C42 O60 1.240 . S
C42 O61 1.240 . S
C43 Gd40 2.818 1_565 S
C43 C44 1.510 . S
C43 O62 1.249 . S
C43 O63 1.252 . S
C44 C43 1.510 . S
C44 C45 1.404 . S
C44 C46 1.352 . S
C45 C44 1.404 . S
C45 C49 1.389 . S
C45 H72 0.930 . S
C46 C44 1.352 . S
C46 C48 1.374 . S
C46 H73 0.931 . S
C47 C48 1.359 . S
C47 C49 1.364 . S
C48 C46 1.374 . S
C48 C47 1.359 . S
C48 H74 0.931 . S
C49 C45 1.389 . S
C49 C47 1.364 . S
C49 H75 0.931 . S
C50 O64 1.256 . S
C50 O65 1.257 . S
C51 O66 1.240 . S
C51 O67 1.240 . S
C52 Gd41 2.818 . S
C52 C53 1.510 . S
C52 O68 1.249 . S
C52 O69 1.252 . S
C53 C52 1.510 . S
C53 C54 1.404 . S
C53 C55 1.352 . S
C54 C53 1.404 . S
C54 C58 1.389 . S
C54 H76 0.930 . S
C55 C53 1.352 . S
C55 C57 1.374 . S
C55 H77 0.931 . S
C56 C57 1.359 . S
C56 C58 1.364 . S
C57 C55 1.374 . S
C57 C56 1.359 . S
C57 H78 0.931 . S
C58 C54 1.389 . S
C58 C56 1.364 . S
C58 H79 0.931 . S
C59 O70 1.256 . S
C59 O71 1.257 . S
O60 Gd40 2.377 1_565 S
O60 C42 1.240 . S
O61 Gd41 2.395 1_565 S
O61 C42 1.240 . S
O62 Gd40 2.448 1_565 S
O62 C43 1.249 . S
O63 Gd40 2.506 1_565 S
O63 C43 1.252 . S
O64 Gd40 2.435 . S
O64 C50 1.256 . S
O65 Gd40 2.717 . S
O65 Gd41 2.327 . S
O65 C50 1.257 . S
O66 Gd41 2.377 . S
O66 C51 1.240 . S
O67 Gd40 2.395 . S
O67 C51 1.240 . S
O68 Gd41 2.448 . S
O68 C52 1.249 . S
O69 Gd41 2.506 . S
O69 C52 1.252 . S
O70 Gd41 2.435 . S
O70 C59 1.256 . S
O71 Gd40 2.327 . S
O71 Gd41 2.717 . S
O71 C59 1.257 . S
H72 C45 0.930 . S
H73 C46 0.931 . S
H74 C48 0.931 . S
H75 C49 0.931 . S
H76 C54 0.930 . S
H77 C55 0.931 . S
H78 C57 0.931 . S
H79 C58 0.931 . S
Gd80 C83 2.818 . S
Gd80 O100 2.377 . S
Gd80 O102 2.448 . S
Gd80 O103 2.506 . S
Gd80 O104 2.435 . S
Gd80 O105 2.717 . S
Gd80 O107 2.395 . S
Gd80 O111 2.327 . S
Gd81 C92 2.818 . S
Gd81 O101 2.395 . S
Gd81 O105 2.327 . S
Gd81 O106 2.377 . S
Gd81 O108 2.448 . S
Gd81 O109 2.506 . S
Gd81 O110 2.435 . S
Gd81 O111 2.717 . S
C82 O100 1.240 . S
C82 O101 1.240 . S
C83 Gd80 2.818 . S
C83 C84 1.510 . S
C83 O102 1.249 . S
C83 O103 1.252 . S
C84 C83 1.510 . S
C84 C85 1.404 . S
C84 C86 1.352 . S
C85 C84 1.404 . S
C85 C89 1.389 . S
C85 H112 0.930 . S
C86 C84 1.352 . S
C86 C88 1.374 . S
C86 H113 0.931 . S
C87 C88 1.359 . S
C87 C89 1.364 . S
C88 C86 1.374 . S
C88 C87 1.359 . S
C88 H114 0.931 . S
C89 C85 1.389 . S
C89 C87 1.364 . S
C89 H115 0.931 . S
C90 O104 1.256 . S
C90 O105 1.257 . S
C91 O106 1.240 . S
C91 O107 1.240 . S
C92 Gd81 2.818 . S
C92 C93 1.510 . S
C92 O108 1.249 . S
C92 O109 1.252 . S
C93 C92 1.510 . S
C93 C94 1.404 . S
C93 C95 1.352 . S
C94 C93 1.404 . S
C94 C98 1.389 . S
C94 H116 0.930 . S
C95 C93 1.352 . S
C95 C97 1.374 . S
C95 H117 0.931 . S
C96 C97 1.359 . S
C96 C98 1.364 . S
C97 C95 1.374 . S
C97 C96 1.359 . S
C97 H118 0.931 . S
C98 C94 1.389 . S
C98 C96 1.364 . S
C98 H119 0.931 . S
C99 O110 1.256 . S
C99 O111 1.257 . S
O100 Gd80 2.377 . S
O100 C82 1.240 . S
O101 Gd81 2.395 . S
O101 C82 1.240 . S
O102 Gd80 2.448 . S
O102 C83 1.249 . S
O103 Gd80 2.506 . S
O103 C83 1.252 . S
O104 Gd80 2.435 . S
O104 C90 1.256 . S
O105 Gd80 2.717 . S
O105 Gd81 2.327 . S
O105 C90 1.257 . S
O106 Gd81 2.377 . S
O106 C91 1.240 . S
O107 Gd80 2.395 . S
O107 C91 1.240 . S
O108 Gd81 2.448 . S
O108 C92 1.249 . S
O109 Gd81 2.506 . S
O109 C92 1.252 . S
O110 Gd81 2.435 . S
O110 C99 1.256 . S
O111 Gd80 2.327 . S
O111 Gd81 2.717 . S
O111 C99 1.257 . S
H112 C85 0.930 . S
H113 C86 0.931 . S
H114 C88 0.931 . S
H115 C89 0.931 . S
H116 C94 0.930 . S
H117 C95 0.931 . S
H118 C97 0.931 . S
H119 C98 0.931 . S
C120 N121 1.317 1_565 S
C120 N122 1.348 . S
C120 C123 1.485 1_565 S
N121 C120 1.317 1_545 S
N121 N125 1.370 . S
N122 C120 1.348 . S
N122 C124 1.346 . S
C123 C120 1.485 1_545 S
C123 H127 0.960 . S
C123 H128 0.961 1_545 S
C123 H129 0.960 . S
C124 N122 1.346 . S
C124 N125 1.307 1_565 S
C124 C126 1.486 . S
N125 N121 1.370 . S
N125 C124 1.307 1_545 S
C126 C124 1.486 . S
C126 H130 0.960 . S
C126 H131 0.960 . S
C126 H132 0.959 . S
H127 C123 0.960 . S
H128 C123 0.961 1_565 S
H129 C123 0.960 . S
H130 C126 0.960 . S
H131 C126 0.960 . S
H132 C126 0.959 . S
C133 N134 1.317 . S
C133 N135 1.348 . S
C133 C136 1.485 . S
N134 C133 1.317 . S
N134 N138 1.370 . S
N135 C133 1.348 . S
N135 C137 1.346 . S
C136 C133 1.485 . S
C136 H140 0.960 . S
C136 H141 0.961 . S
C136 H142 0.960 . S
C137 N135 1.346 . S
C137 N138 1.307 . S
C137 C139 1.486 . S
N138 N134 1.370 . S
N138 C137 1.307 . S
C139 C137 1.486 . S
C139 H143 0.960 . S
C139 H144 0.960 . S
C139 H145 0.959 . S
H140 C136 0.960 . S
H141 C136 0.961 . S
H142 C136 0.960 . S
H143 C139 0.960 . S
H144 C139 0.960 . S
H145 C139 0.959 . S
C146 N147 1.317 . S
C146 N148 1.348 . S
C146 C149 1.485 . S
N147 C146 1.317 . S
N147 N151 1.370 . S
N148 C146 1.348 . S
N148 C150 1.346 . S
C149 C146 1.485 . S
C149 H153 0.960 . S
C149 H154 0.961 . S
C149 H155 0.960 . S
C150 N148 1.346 . S
C150 N151 1.307 . S
C150 C152 1.486 1_455 S
N151 N147 1.370 . S
N151 C150 1.307 . S
C152 C150 1.486 1_655 S
C152 H156 0.960 . S
C152 H157 0.960 . S
C152 H158 0.959 1_655 S
H153 C149 0.960 . S
H154 C149 0.961 . S
H155 C149 0.960 . S
H156 C152 0.960 . S
H157 C152 0.960 . S
H158 C152 0.959 1_455 S
C159 N160 1.317 . S
C159 N161 1.348 . S
C159 C162 1.485 . S
N160 C159 1.317 . S
N160 N164 1.370 . S
N161 C159 1.348 . S
N161 C163 1.346 . S
C162 C159 1.485 . S
C162 H166 0.960 . S
C162 H167 0.961 . S
C162 H168 0.960 . S
C163 N161 1.346 . S
C163 N164 1.307 . S
C163 C165 1.486 . S
N164 N160 1.370 . S
N164 C163 1.307 . S
C165 C163 1.486 . S
C165 H169 0.960 . S
C165 H170 0.960 . S
C165 H171 0.959 . S
H166 C162 0.960 . S
H167 C162 0.961 . S
H168 C162 0.960 . S
H169 C165 0.960 . S
H170 C165 0.960 . S
H171 C165 0.959 . S
C172 N173 1.317 . S
C172 N174 1.348 . S
C172 C175 1.485 . S
N173 C172 1.317 . S
N173 N177 1.370 . S
N174 C172 1.348 . S
N174 C176 1.346 . S
C175 C172 1.485 . S
C175 H179 0.960 . S
C175 H180 0.961 . S
C175 H181 0.960 . S
C176 N174 1.346 . S
C176 N177 1.307 . S
C176 C178 1.486 . S
N177 N173 1.370 . S
N177 C176 1.307 . S
C178 C176 1.486 . S
C178 H182 0.960 . S
C178 H183 0.960 . S
C178 H184 0.959 . S
H179 C175 0.960 . S
H180 C175 0.961 . S
H181 C175 0.960 . S
H182 C178 0.960 . S
H183 C178 0.960 . S
H184 C178 0.959 . S
C185 N186 1.317 . S
C185 N187 1.348 . S
C185 C188 1.485 . S
N186 C185 1.317 . S
N186 N190 1.370 . S
N187 C185 1.348 . S
N187 C189 1.346 . S
C188 C185 1.485 . S
C188 H192 0.960 . S
C188 H193 0.961 . S
C188 H194 0.960 . S
C189 N187 1.346 . S
C189 N190 1.307 . S
C189 C191 1.486 . S
N190 N186 1.370 . S
N190 C189 1.307 . S
C191 C189 1.486 . S
C191 H195 0.960 . S
C191 H196 0.960 . S
C191 H197 0.959 . S
H192 C188 0.960 . S
H193 C188 0.961 . S
H194 C188 0.960 . S
H195 C191 0.960 . S
H196 C191 0.960 . S
H197 C191 0.959 . S
H198 C210 0.930 . S
H199 C212 0.930 . S
H200 C213 0.930 . S
H201 C217 0.959 . S
H202 C217 0.959 . S
H203 C217 0.961 . S
H204 C218 0.960 . S
H205 C218 0.961 . S
H206 C218 0.959 . S
H207 C221 0.929 . S
H208 C222 0.931 . S
H209 C224 0.930 . S
C210 H198 0.930 . S
C210 C211 1.399 . S
C210 C215 1.399 . S
C211 C210 1.399 . S
C211 C212 1.376 . S
C212 H199 0.930 . S
C212 C211 1.376 . S
C212 C213 1.388 . S
C213 H200 0.930 . S
C213 C212 1.388 . S
C213 C214 1.390 . S
C214 C213 1.390 . S
C214 C215 1.394 . S
C214 C220 1.465 . S
C215 C210 1.399 . S
C215 C214 1.394 . S
C215 C216 1.516 . S
C216 C215 1.516 . S
C216 C217 1.502 . S
C216 C218 1.561 . S
C216 C219 1.526 . S
C217 H201 0.959 . S
C217 H202 0.959 . S
C217 H203 0.961 . S
C217 C216 1.502 . S
C218 H204 0.960 . S
C218 H205 0.961 . S
C218 H206 0.959 . S
C218 C216 1.561 . S
C219 C216 1.526 . S
C219 C220 1.396 . S
C219 C224 1.390 . S
C220 C214 1.465 . S
C220 C219 1.396 . S
C220 C221 1.399 . S
C221 H207 0.929 . S
C221 C220 1.399 . S
C221 C222 1.385 . S
C222 H208 0.931 . S
C222 C221 1.385 . S
C222 C223 1.389 . S
C223 C222 1.389 . S
C223 C224 1.387 . S
C224 H209 0.930 . S
C224 C219 1.390 . S
C224 C223 1.387 . S
H225 C237 0.930 . S
H226 C239 0.930 . S
H227 C240 0.930 . S
H228 C244 0.959 . S
H229 C244 0.959 . S
H230 C244 0.961 . S
H231 C245 0.960 . S
H232 C245 0.961 . S
H233 C245 0.959 . S
H234 C248 0.929 . S
H235 C249 0.931 . S
H236 C251 0.930 . S
C237 H225 0.930 . S
C237 C238 1.399 . S
C237 C242 1.399 . S
C238 C237 1.399 . S
C238 C239 1.376 . S
C239 H226 0.930 . S
C239 C238 1.376 . S
C239 C240 1.388 . S
C240 H227 0.930 . S
C240 C239 1.388 . S
C240 C241 1.390 . S
C241 C240 1.390 . S
C241 C242 1.394 . S
C241 C247 1.465 . S
C242 C237 1.399 . S
C242 C241 1.394 . S
C242 C243 1.516 . S
C243 C242 1.516 . S
C243 C244 1.502 . S
C243 C245 1.561 . S
C243 C246 1.526 . S
C244 H228 0.959 . S
C244 H229 0.959 . S
C244 H230 0.961 . S
C244 C243 1.502 . S
C245 H231 0.960 . S
C245 H232 0.961 . S
C245 H233 0.959 . S
C245 C243 1.561 . S
C246 C243 1.526 . S
C246 C247 1.396 . S
C246 C251 1.390 . S
C247 C241 1.465 . S
C247 C246 1.396 . S
C247 C248 1.399 . S
C248 H234 0.929 . S
C248 C247 1.399 . S
C248 C249 1.385 . S
C249 H235 0.931 . S
C249 C248 1.385 . S
C249 C250 1.389 . S
C250 C249 1.389 . S
C250 C251 1.387 . S
C251 H236 0.930 . S
C251 C246 1.390 . S
C251 C250 1.387 . S
H252 C264 0.930 . S
H253 C266 0.930 . S
H254 C267 0.930 . S
H255 C271 0.959 1_545 S
H256 C271 0.959 1_545 S
H257 C271 0.961 . S
H258 C272 0.960 . S
H259 C272 0.961 . S
H260 C272 0.959 . S
H261 C275 0.929 . S
H262 C276 0.931 . S
H263 C278 0.930 1_545 S
C264 H252 0.930 . S
C264 C265 1.399 . S
C264 C269 1.399 . S
C265 C264 1.399 . S
C265 C266 1.376 . S
C266 H253 0.930 . S
C266 C265 1.376 . S
C266 C267 1.388 . S
C267 H254 0.930 . S
C267 C266 1.388 . S
C267 C268 1.390 . S
C268 C267 1.390 . S
C268 C269 1.394 . S
C268 C274 1.465 . S
C269 C264 1.399 . S
C269 C268 1.394 . S
C269 C270 1.516 . S
C270 C269 1.516 . S
C270 C271 1.502 . S
C270 C272 1.561 . S
C270 C273 1.526 . S
C271 H255 0.959 1_565 S
C271 H256 0.959 1_565 S
C271 H257 0.961 . S
C271 C270 1.502 . S
C272 H258 0.960 . S
C272 H259 0.961 . S
C272 H260 0.959 . S
C272 C270 1.561 . S
C273 C270 1.526 . S
C273 C274 1.396 . S
C273 C278 1.390 . S
C274 C268 1.465 . S
C274 C273 1.396 . S
C274 C275 1.399 . S
C275 H261 0.929 . S
C275 C274 1.399 . S
C275 C276 1.385 . S
C276 H262 0.931 . S
C276 C275 1.385 . S
C276 C277 1.389 . S
C277 C276 1.389 . S
C277 C278 1.387 . S
C278 H263 0.930 1_565 S
C278 C273 1.390 . S
C278 C277 1.387 . S
H279 C291 0.930 . S
H280 C293 0.930 . S
H281 C294 0.930 . S
H282 C298 0.959 . S
H283 C298 0.959 . S
H284 C298 0.961 . S
H285 C299 0.960 . S
H286 C299 0.961 . S
H287 C299 0.959 . S
H288 C302 0.929 . S
H289 C303 0.931 . S
H290 C305 0.930 . S
C291 H279 0.930 . S
C291 C292 1.399 . S
C291 C296 1.399 . S
C292 C291 1.399 . S
C292 C293 1.376 . S
C293 H280 0.930 . S
C293 C292 1.376 . S
C293 C294 1.388 . S
C294 H281 0.930 . S
C294 C293 1.388 . S
C294 C295 1.390 . S
C295 C294 1.390 . S
C295 C296 1.394 . S
C295 C301 1.465 . S
C296 C291 1.399 . S
C296 C295 1.394 . S
C296 C297 1.516 . S
C297 C296 1.516 . S
C297 C298 1.502 . S
C297 C299 1.561 . S
C297 C300 1.526 . S
C298 H282 0.959 . S
C298 H283 0.959 . S
C298 H284 0.961 . S
C298 C297 1.502 . S
C299 H285 0.960 . S
C299 H286 0.961 . S
C299 H287 0.959 . S
C299 C297 1.561 . S
C300 C297 1.526 . S
C300 C301 1.396 . S
C300 C305 1.390 . S
C301 C295 1.465 . S
C301 C300 1.396 . S
C301 C302 1.399 . S
C302 H288 0.929 . S
C302 C301 1.399 . S
C302 C303 1.385 . S
C303 H289 0.931 . S
C303 C302 1.385 . S
C303 C304 1.389 . S
C304 C303 1.389 . S
C304 C305 1.387 . S
C305 H290 0.930 . S
C305 C300 1.390 . S
C305 C304 1.387 . S
H306 C318 0.930 . S
H307 C320 0.930 . S
H308 C321 0.930 . S
H309 C325 0.959 . S
H310 C325 0.959 . S
H311 C325 0.961 . S
H312 C326 0.960 . S
H313 C326 0.961 . S
H314 C326 0.959 . S
H315 C329 0.929 . S
H316 C330 0.931 . S
H317 C332 0.930 . S
C318 H306 0.930 . S
C318 C319 1.399 . S
C318 C323 1.399 . S
C319 C318 1.399 . S
C319 C320 1.376 . S
C320 H307 0.930 . S
C320 C319 1.376 . S
C320 C321 1.388 . S
C321 H308 0.930 . S
C321 C320 1.388 . S
C321 C322 1.390 . S
C322 C321 1.390 . S
C322 C323 1.394 . S
C322 C328 1.465 . S
C323 C318 1.399 . S
C323 C322 1.394 . S
C323 C324 1.516 . S
C324 C323 1.516 . S
C324 C325 1.502 . S
C324 C326 1.561 . S
C324 C327 1.526 . S
C325 H309 0.959 . S
C325 H310 0.959 . S
C325 H311 0.961 . S
C325 C324 1.502 . S
C326 H312 0.960 . S
C326 H313 0.961 . S
C326 H314 0.959 . S
C326 C324 1.561 . S
C327 C324 1.526 . S
C327 C328 1.396 . S
C327 C332 1.390 . S
C328 C322 1.465 . S
C328 C327 1.396 . S
C328 C329 1.399 . S
C329 H315 0.929 . S
C329 C328 1.399 . S
C329 C330 1.385 . S
C330 H316 0.931 . S
C330 C329 1.385 . S
C330 C331 1.389 . S
C331 C330 1.389 . S
C331 C332 1.387 . S
C332 H317 0.930 . S
C332 C327 1.390 . S
C332 C331 1.387 . S
H333 C345 0.930 . S
H334 C347 0.930 . S
H335 C348 0.930 . S
H336 C352 0.959 . S
H337 C352 0.959 . S
H338 C352 0.961 . S
H339 C353 0.960 . S
H340 C353 0.961 . S
H341 C353 0.959 . S
H342 C356 0.929 . S
H343 C357 0.931 . S
H344 C359 0.930 . S
C345 H333 0.930 . S
C345 C346 1.399 . S
C345 C350 1.399 . S
C346 C345 1.399 . S
C346 C347 1.376 . S
C347 H334 0.930 . S
C347 C346 1.376 . S
C347 C348 1.388 . S
C348 H335 0.930 . S
C348 C347 1.388 . S
C348 C349 1.390 . S
C349 C348 1.390 . S
C349 C350 1.394 . S
C349 C355 1.465 . S
C350 C345 1.399 . S
C350 C349 1.394 . S
C350 C351 1.516 . S
C351 C350 1.516 . S
C351 C352 1.502 . S
C351 C353 1.561 . S
C351 C354 1.526 . S
C352 H336 0.959 . S
C352 H337 0.959 . S
C352 H338 0.961 . S
C352 C351 1.502 . S
C353 H339 0.960 . S
C353 H340 0.961 . S
C353 H341 0.959 . S
C353 C351 1.561 . S
C354 C351 1.526 . S
C354 C355 1.396 . S
C354 C359 1.390 . S
C355 C349 1.465 . S
C355 C354 1.396 . S
C355 C356 1.399 . S
C356 H342 0.929 . S
C356 C355 1.399 . S
C356 C357 1.385 . S
C357 H343 0.931 . S
C357 C356 1.385 . S
C357 C358 1.389 . S
C358 C357 1.389 . S
C358 C359 1.387 . S
C359 H344 0.930 . S
C359 C354 1.390 . S
C359 C358 1.387 . S
H360 C372 0.930 . S
H361 C374 0.930 . S
H362 C375 0.930 . S
H363 C379 0.959 . S
H364 C379 0.959 . S
H365 C379 0.961 . S
H366 C380 0.960 . S
H367 C380 0.961 . S
H368 C380 0.959 . S
H369 C383 0.929 . S
H370 C384 0.931 . S
H371 C386 0.930 . S
C372 H360 0.930 . S
C372 C373 1.399 . S
C372 C377 1.399 . S
C373 C372 1.399 . S
C373 C374 1.376 . S
C374 H361 0.930 . S
C374 C373 1.376 . S
C374 C375 1.388 . S
C375 H362 0.930 . S
C375 C374 1.388 . S
C375 C376 1.390 . S
C376 C375 1.390 . S
C376 C377 1.394 . S
C376 C382 1.465 . S
C377 C372 1.399 . S
C377 C376 1.394 . S
C377 C378 1.516 . S
C378 C377 1.516 . S
C378 C379 1.502 . S
C378 C380 1.561 . S
C378 C381 1.526 . S
C379 H363 0.959 . S
C379 H364 0.959 . S
C379 H365 0.961 . S
C379 C378 1.502 . S
C380 H366 0.960 . S
C380 H367 0.961 . S
C380 H368 0.959 . S
C380 C378 1.561 . S
C381 C378 1.526 . S
C381 C382 1.396 . S
C381 C386 1.390 . S
C382 C376 1.465 . S
C382 C381 1.396 . S
C382 C383 1.399 . S
C383 H369 0.929 . S
C383 C382 1.399 . S
C383 C384 1.385 . S
C384 H370 0.931 . S
C384 C383 1.385 . S
C384 C385 1.389 . S
C385 C384 1.389 . S
C385 C386 1.387 . S
C386 H371 0.930 . S
C386 C381 1.390 . S
C386 C385 1.387 . S
H387 C399 0.930 . S
H388 C401 0.930 . S
H389 C402 0.930 . S
H390 C406 0.959 . S
H391 C406 0.959 . S
H392 C406 0.961 . S
H393 C407 0.960 . S
H394 C407 0.961 . S
H395 C407 0.959 . S
H396 C410 0.929 . S
H397 C411 0.931 . S
H398 C413 0.930 . S
C399 H387 0.930 . S
C399 C400 1.399 . S
C399 C404 1.399 . S
C400 C399 1.399 . S
C400 C401 1.376 . S
C401 H388 0.930 . S
C401 C400 1.376 . S
C401 C402 1.388 . S
C402 H389 0.930 . S
C402 C401 1.388 . S
C402 C403 1.390 . S
C403 C402 1.390 . S
C403 C404 1.394 . S
C403 C409 1.465 . S
C404 C399 1.399 . S
C404 C403 1.394 . S
C404 C405 1.516 . S
C405 C404 1.516 . S
C405 C406 1.502 . S
C405 C407 1.561 . S
C405 C408 1.526 . S
C406 H390 0.959 . S
C406 H391 0.959 . S
C406 H392 0.961 . S
C406 C405 1.502 . S
C407 H393 0.960 . S
C407 H394 0.961 . S
C407 H395 0.959 . S
C407 C405 1.561 . S
C408 C405 1.526 . S
C408 C409 1.396 . S
C408 C413 1.390 . S
C409 C403 1.465 . S
C409 C408 1.396 . S
C409 C410 1.399 . S
C410 H396 0.929 . S
C410 C409 1.399 . S
C410 C411 1.385 . S
C411 H397 0.931 . S
C411 C410 1.385 . S
C411 C412 1.389 . S
C412 C411 1.389 . S
C412 C413 1.387 . S
C413 H398 0.930 . S
C413 C408 1.390 . S
C413 C412 1.387 . S
H414 C426 0.930 . S
H415 C428 0.930 . S
H416 C429 0.930 . S
H417 C433 0.959 . S
H418 C433 0.959 . S
H419 C433 0.961 . S
H420 C434 0.960 . S
H421 C434 0.961 . S
H422 C434 0.959 . S
H423 C437 0.929 . S
H424 C438 0.931 . S
H425 C440 0.930 . S
C426 H414 0.930 . S
C426 C427 1.399 . S
C426 C431 1.399 . S
C427 C426 1.399 . S
C427 C428 1.376 . S
C428 H415 0.930 . S
C428 C427 1.376 . S
C428 C429 1.388 . S
C429 H416 0.930 . S
C429 C428 1.388 . S
C429 C430 1.390 . S
C430 C429 1.390 . S
C430 C431 1.394 . S
C430 C436 1.465 . S
C431 C426 1.399 . S
C431 C430 1.394 . S
C431 C432 1.516 . S
C432 C431 1.516 . S
C432 C433 1.502 . S
C432 C434 1.561 . S
C432 C435 1.526 . S
C433 H417 0.959 . S
C433 H418 0.959 . S
C433 H419 0.961 . S
C433 C432 1.502 . S
C434 H420 0.960 . S
C434 H421 0.961 . S
C434 H422 0.959 . S
C434 C432 1.561 . S
C435 C432 1.526 . S
C435 C436 1.396 . S
C435 C440 1.390 . S
C436 C430 1.465 . S
C436 C435 1.396 . S
C436 C437 1.399 . S
C437 H423 0.929 . S
C437 C436 1.399 . S
C437 C438 1.385 . S
C438 H424 0.931 . S
C438 C437 1.385 . S
C438 C439 1.389 . S
C439 C438 1.389 . S
C439 C440 1.387 . S
C440 H425 0.930 . S
C440 C435 1.390 . S
C440 C439 1.387 . S
H441 C453 0.930 . S
H442 C455 0.930 . S
H443 C456 0.930 . S
H444 C460 0.959 . S
H445 C460 0.959 . S
H446 C460 0.961 . S
H447 C461 0.960 . S
H448 C461 0.961 . S
H449 C461 0.959 . S
H450 C464 0.929 . S
H451 C465 0.931 . S
H452 C467 0.930 . S
C453 H441 0.930 . S
C453 C454 1.399 . S
C453 C458 1.399 . S
C454 C453 1.399 . S
C454 C455 1.376 . S
C455 H442 0.930 . S
C455 C454 1.376 . S
C455 C456 1.388 . S
C456 H443 0.930 . S
C456 C455 1.388 . S
C456 C457 1.390 . S
C457 C456 1.390 . S
C457 C458 1.394 . S
C457 C463 1.465 . S
C458 C453 1.399 . S
C458 C457 1.394 . S
C458 C459 1.516 . S
C459 C458 1.516 . S
C459 C460 1.502 . S
C459 C461 1.561 . S
C459 C462 1.526 . S
C460 H444 0.959 . S
C460 H445 0.959 . S
C460 H446 0.961 . S
C460 C459 1.502 . S
C461 H447 0.960 . S
C461 H448 0.961 . S
C461 H449 0.959 . S
C461 C459 1.561 . S
C462 C459 1.526 . S
C462 C463 1.396 . S
C462 C467 1.390 . S
C463 C457 1.465 . S
C463 C462 1.396 . S
C463 C464 1.399 . S
C464 H450 0.929 . S
C464 C463 1.399 . S
C464 C465 1.385 . S
C465 H451 0.931 . S
C465 C464 1.385 . S
C465 C466 1.389 . S
C466 C465 1.389 . S
C466 C467 1.387 . S
C467 H452 0.930 . S
C467 C462 1.390 . S
C467 C466 1.387 . S
H468 C480 0.930 . S
H469 C482 0.930 . S
H470 C483 0.930 . S
H471 C487 0.959 . S
H472 C487 0.959 . S
H473 C487 0.961 . S
H474 C488 0.960 . S
H475 C488 0.961 . S
H476 C488 0.959 . S
H477 C491 0.929 . S
H478 C492 0.931 . S
H479 C494 0.930 . S
C480 H468 0.930 . S
C480 C481 1.399 . S
C480 C485 1.399 . S
C481 C480 1.399 . S
C481 C482 1.376 . S
C482 H469 0.930 . S
C482 C481 1.376 . S
C482 C483 1.388 . S
C483 H470 0.930 . S
C483 C482 1.388 . S
C483 C484 1.390 . S
C484 C483 1.390 . S
C484 C485 1.394 . S
C484 C490 1.465 . S
C485 C480 1.399 . S
C485 C484 1.394 . S
C485 C486 1.516 . S
C486 C485 1.516 . S
C486 C487 1.502 . S
C486 C488 1.561 . S
C486 C489 1.526 . S
C487 H471 0.959 . S
C487 H472 0.959 . S
C487 H473 0.961 . S
C487 C486 1.502 . S
C488 H474 0.960 . S
C488 H475 0.961 . S
C488 H476 0.959 . S
C488 C486 1.561 . S
C489 C486 1.526 . S
C489 C490 1.396 . S
C489 C494 1.390 . S
C490 C484 1.465 . S
C490 C489 1.396 . S
C490 C491 1.399 . S
C491 H477 0.929 . S
C491 C490 1.399 . S
C491 C492 1.385 . S
C492 H478 0.931 . S
C492 C491 1.385 . S
C492 C493 1.389 . S
C493 C492 1.389 . S
C493 C494 1.387 . S
C494 H479 0.930 . S
C494 C489 1.390 . S
C494 C493 1.387 . S
H495 C507 0.930 . S
H496 C509 0.930 . S
H497 C510 0.930 . S
H498 C514 0.959 . S
H499 C514 0.959 . S
H500 C514 0.961 . S
H501 C515 0.960 . S
H502 C515 0.961 . S
H503 C515 0.959 . S
H504 C518 0.929 . S
H505 C519 0.931 . S
H506 C521 0.930 . S
C507 H495 0.930 . S
C507 C508 1.399 . S
C507 C512 1.399 . S
C508 C507 1.399 . S
C508 C509 1.376 . S
C509 H496 0.930 . S
C509 C508 1.376 . S
C509 C510 1.388 . S
C510 H497 0.930 . S
C510 C509 1.388 . S
C510 C511 1.390 . S
C511 C510 1.390 . S
C511 C512 1.394 . S
C511 C517 1.465 . S
C512 C507 1.399 . S
C512 C511 1.394 . S
C512 C513 1.516 . S
C513 C512 1.516 . S
C513 C514 1.502 . S
C513 C515 1.561 . S
C513 C516 1.526 . S
C514 H498 0.959 . S
C514 H499 0.959 . S
C514 H500 0.961 . S
C514 C513 1.502 . S
C515 H501 0.960 . S
C515 H502 0.961 . S
C515 H503 0.959 . S
C515 C513 1.561 . S
C516 C513 1.526 . S
C516 C517 1.396 . S
C516 C521 1.390 . S
C517 C511 1.465 . S
C517 C516 1.396 . S
C517 C518 1.399 . S
C518 H504 0.929 . S
C518 C517 1.399 . S
C518 C519 1.385 . S
C519 H505 0.931 . S
C519 C518 1.385 . S
C519 C520 1.389 . S
C520 C519 1.389 . S
C520 C521 1.387 . S
C521 H506 0.930 . S
C521 C516 1.390 . S
C521 C520 1.387 . S
H522 C534 0.930 . S
H523 C536 0.930 . S
H524 C537 0.930 . S
H525 C541 0.959 . S
H526 C541 0.959 1_556 S
H527 C541 0.961 . S
H528 C542 0.960 . S
H529 C542 0.961 1_556 S
H530 C542 0.959 . S
H531 C545 0.929 . S
H532 C546 0.931 1_655 S
H533 C548 0.930 . S
C534 H522 0.930 . S
C534 C535 1.399 . S
C534 C539 1.399 . S
C535 C534 1.399 . S
C535 C536 1.376 1_455 S
C536 H523 0.930 . S
C536 C535 1.376 1_655 S
C536 C537 1.388 . S
C537 H524 0.930 . S
C537 C536 1.388 . S
C537 C538 1.390 1_655 S
C538 C537 1.390 1_455 S
C538 C539 1.394 . S
C538 C544 1.465 1_554 S
C539 C534 1.399 . S
C539 C538 1.394 . S
C539 C540 1.516 . S
C540 C539 1.516 . S
C540 C541 1.502 . S
C540 C542 1.561 . S
C540 C543 1.526 1_554 S
C541 H525 0.959 . S
C541 H526 0.959 1_554 S
C541 H527 0.961 . S
C541 C540 1.502 . S
C542 H528 0.960 . S
C542 H529 0.961 1_554 S
C542 H530 0.959 . S
C542 C540 1.561 . S
C543 C540 1.526 1_556 S
C543 C544 1.396 . S
C543 C548 1.390 . S
C544 C538 1.465 1_556 S
C544 C543 1.396 . S
C544 C545 1.399 1_455 S
C545 H531 0.929 . S
C545 C544 1.399 1_655 S
C545 C546 1.385 1_655 S
C546 H532 0.931 1_455 S
C546 C545 1.385 1_455 S
C546 C547 1.389 . S
C547 C546 1.389 . S
C547 C548 1.387 . S
C548 H533 0.930 . S
C548 C543 1.390 . S
C548 C547 1.387 . S
H549 C561 0.930 1_565 S
H550 C563 0.930 . S
H551 C564 0.930 . S
H552 C568 0.959 . S
H553 C568 0.959 . S
H554 C568 0.961 . S
H555 C569 0.960 . S
H556 C569 0.961 . S
H557 C569 0.959 . S
H558 C572 0.929 . S
H559 C573 0.931 . S
H560 C575 0.930 . S
C561 H549 0.930 1_545 S
C561 C562 1.399 . S
C561 C566 1.399 . S
C562 C561 1.399 . S
C562 C563 1.376 . S
C563 H550 0.930 . S
C563 C562 1.376 . S
C563 C564 1.388 . S
C564 H551 0.930 . S
C564 C563 1.388 . S
C564 C565 1.390 . S
C565 C564 1.390 . S
C565 C566 1.394 . S
C565 C571 1.465 . S
C566 C561 1.399 . S
C566 C565 1.394 . S
C566 C567 1.516 1_545 S
C567 C566 1.516 1_565 S
C567 C568 1.502 . S
C567 C569 1.561 . S
C567 C570 1.526 1_565 S
C568 H552 0.959 . S
C568 H553 0.959 . S
C568 H554 0.961 . S
C568 C567 1.502 . S
C569 H555 0.960 . S
C569 H556 0.961 . S
C569 H557 0.959 . S
C569 C567 1.561 . S
C570 C567 1.526 1_545 S
C570 C571 1.396 . S
C570 C575 1.390 1_545 S
C571 C565 1.465 . S
C571 C570 1.396 . S
C571 C572 1.399 . S
C572 H558 0.929 . S
C572 C571 1.399 . S
C572 C573 1.385 . S
C573 H559 0.931 . S
C573 C572 1.385 . S
C573 C574 1.389 . S
C574 C573 1.389 . S
C574 C575 1.387 1_545 S
C575 H560 0.930 . S
C575 C570 1.390 1_565 S
C575 C574 1.387 1_565 S
H576 C588 0.930 . S
H577 C590 0.930 . S
H578 C591 0.930 . S
H579 C595 0.959 . S
H580 C595 0.959 . S
H581 C595 0.961 . S
H582 C596 0.960 . S
H583 C596 0.961 . S
H584 C596 0.959 . S
H585 C599 0.929 . S
H586 C600 0.931 . S
H587 C602 0.930 . S
C588 H576 0.930 . S
C588 C589 1.399 . S
C588 C593 1.399 . S
C589 C588 1.399 . S
C589 C590 1.376 . S
C590 H577 0.930 . S
C590 C589 1.376 . S
C590 C591 1.388 . S
C591 H578 0.930 . S
C591 C590 1.388 . S
C591 C592 1.390 . S
C592 C591 1.390 . S
C592 C593 1.394 . S
C592 C598 1.465 . S
C593 C588 1.399 . S
C593 C592 1.394 . S
C593 C594 1.516 . S
C594 C593 1.516 . S
C594 C595 1.502 . S
C594 C596 1.561 . S
C594 C597 1.526 . S
C595 H579 0.959 . S
C595 H580 0.959 . S
C595 H581 0.961 . S
C595 C594 1.502 . S
C596 H582 0.960 . S
C596 H583 0.961 . S
C596 H584 0.959 . S
C596 C594 1.561 . S
C597 C594 1.526 . S
C597 C598 1.396 . S
C597 C602 1.390 . S
C598 C592 1.465 . S
C598 C597 1.396 . S
C598 C599 1.399 . S
C599 H585 0.929 . S
C599 C598 1.399 . S
C599 C600 1.385 . S
C600 H586 0.931 . S
C600 C599 1.385 . S
C600 C601 1.389 . S
C601 C600 1.389 . S
C601 C602 1.387 . S
C602 H587 0.930 . S
C602 C597 1.390 . S
C602 C601 1.387 . S
H603 C615 0.930 . S
H604 C617 0.930 . S
H605 C618 0.930 . S
H606 C622 0.959 . S
H607 C622 0.959 . S
H608 C622 0.961 . S
H609 C623 0.960 . S
H610 C623 0.961 . S
H611 C623 0.959 . S
H612 C626 0.929 . S
H613 C627 0.931 . S
H614 C629 0.930 . S
C615 H603 0.930 . S
C615 C616 1.399 . S
C615 C620 1.399 . S
C616 C615 1.399 . S
C616 C617 1.376 1_545 S
C617 H604 0.930 . S
C617 C616 1.376 1_565 S
C617 C618 1.388 . S
C618 H605 0.930 . S
C618 C617 1.388 . S
C618 C619 1.390 1_565 S
C619 C618 1.390 1_545 S
C619 C620 1.394 . S
C619 C625 1.465 . S
C620 C615 1.399 . S
C620 C619 1.394 . S
C620 C621 1.516 . S
C621 C620 1.516 . S
C621 C622 1.502 . S
C621 C623 1.561 . S
C621 C624 1.526 . S
C622 H606 0.959 . S
C622 H607 0.959 . S
C622 H608 0.961 . S
C622 C621 1.502 . S
C623 H609 0.960 . S
C623 H610 0.961 . S
C623 H611 0.959 . S
C623 C621 1.561 . S
C624 C621 1.526 . S
C624 C625 1.396 . S
C624 C629 1.390 . S
C625 C619 1.465 . S
C625 C624 1.396 . S
C625 C626 1.399 1_545 S
C626 H612 0.929 . S
C626 C625 1.399 1_565 S
C626 C627 1.385 . S
C627 H613 0.931 . S
C627 C626 1.385 . S
C627 C628 1.389 1_565 S
C628 C627 1.389 1_545 S
C628 C629 1.387 . S
C629 H614 0.930 . S
C629 C624 1.390 . S
C629 C628 1.387 . S
H630 C642 0.930 . S
H631 C644 0.930 . S
H632 C645 0.930 . S
H633 C649 0.959 . S
H634 C649 0.959 . S
H635 C649 0.961 . S
H636 C650 0.960 . S
H637 C650 0.961 . S
H638 C650 0.959 . S
H639 C653 0.929 . S
H640 C654 0.931 . S
H641 C656 0.930 . S
C642 H630 0.930 . S
C642 C643 1.399 . S
C642 C647 1.399 . S
C643 C642 1.399 . S
C643 C644 1.376 . S
C644 H631 0.930 . S
C644 C643 1.376 . S
C644 C645 1.388 . S
C645 H632 0.930 . S
C645 C644 1.388 . S
C645 C646 1.390 . S
C646 C645 1.390 . S
C646 C647 1.394 . S
C646 C652 1.465 1_556 S
C647 C642 1.399 . S
C647 C646 1.394 . S
C647 C648 1.516 . S
C648 C647 1.516 . S
C648 C649 1.502 . S
C648 C650 1.561 . S
C648 C651 1.526 1_556 S
C649 H633 0.959 . S
C649 H634 0.959 . S
C649 H635 0.961 . S
C649 C648 1.502 . S
C650 H636 0.960 . S
C650 H637 0.961 . S
C650 H638 0.959 . S
C650 C648 1.561 . S
C651 C648 1.526 1_554 S
C651 C652 1.396 . S
C651 C656 1.390 . S
C652 C646 1.465 1_554 S
C652 C651 1.396 . S
C652 C653 1.399 . S
C653 H639 0.929 . S
C653 C652 1.399 . S
C653 C654 1.385 . S
C654 H640 0.931 . S
C654 C653 1.385 . S
C654 C655 1.389 . S
C655 C654 1.389 . S
C655 C656 1.387 . S
C656 H641 0.930 . S
C656 C651 1.390 . S
C656 C655 1.387 . S
H657 C669 0.930 . S
H658 C671 0.930 . S
H659 C672 0.930 . S
H660 C676 0.959 . S
H661 C676 0.959 . S
H662 C676 0.961 . S
H663 C677 0.960 . S
H664 C677 0.961 . S
H665 C677 0.959 . S
H666 C680 0.929 . S
H667 C681 0.931 . S
H668 C683 0.930 . S
C669 H657 0.930 . S
C669 C670 1.399 1_455 S
C669 C674 1.399 . S
C670 C669 1.399 1_655 S
C670 C671 1.376 . S
C671 H658 0.930 . S
C671 C670 1.376 . S
C671 C672 1.388 . S
C672 H659 0.930 . S
C672 C671 1.388 . S
C672 C673 1.390 . S
C673 C672 1.390 . S
C673 C674 1.394 1_655 S
C673 C679 1.465 . S
C674 C669 1.399 . S
C674 C673 1.394 1_455 S
C674 C675 1.516 . S
C675 C674 1.516 . S
C675 C676 1.502 . S
C675 C677 1.561 . S
C675 C678 1.526 . S
C676 H660 0.959 . S
C676 H661 0.959 . S
C676 H662 0.961 . S
C676 C675 1.502 . S
C677 H663 0.960 . S
C677 H664 0.961 . S
C677 H665 0.959 . S
C677 C675 1.561 . S
C678 C675 1.526 . S
C678 C679 1.396 1_455 S
C678 C683 1.390 . S
C679 C673 1.465 . S
C679 C678 1.396 1_655 S
C679 C680 1.399 . S
C680 H666 0.929 . S
C680 C679 1.399 . S
C680 C681 1.385 . S
C681 H667 0.931 . S
C681 C680 1.385 . S
C681 C682 1.389 1_655 S
C682 C681 1.389 1_455 S
C682 C683 1.387 . S
C683 H668 0.930 . S
C683 C678 1.390 . S
C683 C682 1.387 . S
C211 C7 0.535 . S
C223 N187 0.439 . S
C238 C51 1.800 . S
C250 N160 1.784 1_655 S
C265 C87 1.157 . S
C277 N173 1.184 1_565 S
C292 C16 0.695 . S
C304 N186 0.765 . S
C331 N161 2.001 . S
C319 C42 2.013 . S
C358 N174 1.381 . S
C346 C96 1.384 . S
C373 C47 1.093 . S
C385 N134 1.074 . S
C400 C91 2.829 . S
C412 N148 2.793 1_655 S
C427 C2 2.036 . S
C439 N122 2.032 . S
C466 N135 1.437 . S
C454 C56 1.374 . S
C493 N147 3.256 . S
C481 C82 3.215 . S
C508 C11 1.787 . S
C520 N121 1.797 . S
C547 N151 1.723 . S
C535 C19 1.736 . S
C562 C50 1.488 . S
C574 N125 1.486 . S
C589 C99 1.461 . S
C601 N138 1.564 . S
C628 N177 1.543 . S
C616 C59 1.442 . S
C655 N190 1.270 . S
C643 C90 1.265 . S
C670 C10 1.459 1_655 S
C682 N164 1.479 . S
