# Generated by pormake.
# Topology rtl, (3,6)-cn, num edge types: 1
# Building blocks:
#     Node 0, Type 0, BuildingBlock: KAKCAD_clean_linker_0, # of connection points: 3
#     Node 1, Type 0, BuildingBlock: KAKCAD_clean_linker_0, # of connection points: 3
#     Node 2, Type 0, BuildingBlock: KAKCAD_clean_linker_0, # of connection points: 3
#     Node 3, Type 0, BuildingBlock: KAKCAD_clean_linker_0, # of connection points: 3
#     Node 4, Type 1, BuildingBlock: KUMBOL_clean_sbu_1, # of connection points: 6
#     Node 5, Type 1, BuildingBlock: KUMBOL_clean_sbu_1, # of connection points: 6
#     Edge 6, Type (0, 1), BuildingBlock: CIFDUS_clean_linker_0, # of connection points: 2
#     Edge 7, Type (0, 1), BuildingBlock: CIFDUS_clean_linker_0, # of connection points: 2
#     Edge 8, Type (0, 1), BuildingBlock: CIFDUS_clean_linker_0, # of connection points: 2
#     Edge 9, Type (0, 1), BuildingBlock: CIFDUS_clean_linker_0, # of connection points: 2
#     Edge 10, Type (0, 1), BuildingBlock: CIFDUS_clean_linker_0, # of connection points: 2
#     Edge 11, Type (0, 1), BuildingBlock: CIFDUS_clean_linker_0, # of connection points: 2
#     Edge 12, Type (0, 1), BuildingBlock: CIFDUS_clean_linker_0, # of connection points: 2
#     Edge 13, Type (0, 1), BuildingBlock: CIFDUS_clean_linker_0, # of connection points: 2
#     Edge 14, Type (0, 1), BuildingBlock: CIFDUS_clean_linker_0, # of connection points: 2
#     Edge 15, Type (0, 1), BuildingBlock: CIFDUS_clean_linker_0, # of connection points: 2
#     Edge 16, Type (0, 1), BuildingBlock: CIFDUS_clean_linker_0, # of connection points: 2
#     Edge 17, Type (0, 1), BuildingBlock: CIFDUS_clean_linker_0, # of connection points: 2
# Relax obj value: 0.018
# Max RMSD: 0.103
# Mean RMSD: 0.062
data_MOF--net-rtl--node1-KUMBOL_clean_sbu_1--node2-KAKCAD_clean_linker_0--edge1-CIFDUS_clean_linker_0
_symmetry_space_group_name_H-M    P1
_symmetry_Int_Tables_number       1
_symmetry_cell_setting            triclinic
loop_
_symmetry_equiv_pos_as_xyz
'x, y, z'
_cell_length_a     35.918906
_cell_length_b     36.590238
_cell_length_c     32.061517
_cell_angle_alpha  78.889496
_cell_angle_beta   99.366222
_cell_angle_gamma 90.852192
loop_
_atom_site_label
_atom_site_type_symbol
_atom_site_fract_x
_atom_site_fract_y
_atom_site_fract_z
_atom_type_partial_charge
C0 C 0.10508 0.83908 0.87657 0.0
C1 C 0.09906 0.87782 0.86496 0.0
C2 C 0.12324 0.82288 0.91771 0.0
C3 C 0.13601 0.84496 0.94836 0.0
C4 C 0.12883 0.88356 0.93745 0.0
C5 C 0.11064 0.89985 0.89609 0.0
C6 C 0.159 0.82774 0.99025 0.0
C7 C 0.18768 0.80197 0.99075 0.0
C8 C 0.20931 0.78408 0.02951 0.0
C9 C 0.20273 0.79319 0.06831 0.0
C10 C 0.1741 0.81901 0.0689 0.0
C11 C 0.15242 0.83629 0.02942 0.0
C12 C 0.16668 0.82708 0.11086 0.0
C13 C 0.17146 0.79887 0.14814 0.0
C14 C 0.15555 0.86299 0.11447 0.0
C15 C 0.15012 0.87052 0.15435 0.0
C16 C 0.15635 0.84251 0.19152 0.0
C17 C 0.23785 0.75504 0.02919 0.0
C18 C 0.23005 0.72976 1.00107 0.0
C19 C 0.27285 0.75214 0.05675 0.0
C20 C 0.29934 0.72465 0.05612 0.0
C21 C 0.29152 0.69951 0.02779 0.0
C22 C 0.25656 0.70256 1.00019 0.0
C23 C 0.16682 0.80662 0.18798 0.0
H24 H 0.09687 0.82127 0.85339 0.0
H25 H 0.12794 0.79298 0.92531 0.0
H26 H 0.13842 0.90129 0.96035 0.0
H27 H 0.10597 0.92974 0.88836 0.0
H28 H 0.19349 0.79613 0.96053 0.0
H29 H 0.12964 0.85546 0.02912 0.0
H30 H 0.21976 0.77973 0.09821 0.0
H31 H 0.17879 0.7706 0.14673 0.0
H32 H 0.15192 0.88557 0.08675 0.0
H33 H 0.14214 0.89847 0.15639 0.0
H34 H 0.20319 0.73073 0.97983 0.0
H35 H 0.27996 0.77133 0.07855 0.0
H36 H 0.17126 0.78443 0.21614 0.0
H37 H 0.2497 0.68409 0.9775 0.0
H38 H 0.32579 0.72289 0.07817 0.0
C39 C 0.61834 0.68966 0.7458 0.0
C40 C 0.61419 0.65112 0.75944 0.0
C41 C 0.6351 0.70336 0.70946 0.0
C42 C 0.64743 0.67883 0.68554 0.0
C43 C 0.64346 0.6403 0.69936 0.0
C44 C 0.6273 0.6266 0.73605 0.0
C45 C 0.66332 0.69327 0.64557 0.0
C46 C 0.69212 0.71997 0.64525 0.0
C47 C 0.70781 0.73267 0.60765 0.0
C48 C 0.69305 0.71973 0.56995 0.0
C49 C 0.66444 0.69327 0.56953 0.0
C50 C 0.65 0.67978 0.60762 0.0
C51 C 0.65151 0.67898 0.5293 0.0
C52 C 0.64493 0.70389 0.48949 0.0
C53 C 0.64985 0.64049 0.5297 0.0
C54 C 0.64438 0.62726 0.49094 0.0
C55 C 0.64051 0.65231 0.45119 0.0
C56 C 0.74076 0.75798 0.60716 0.0
C57 C 0.74272 0.78955 0.62642 0.0
C58 C 0.77001 0.75129 0.58516 0.0
C59 C 0.79966 0.77603 0.58106 0.0
C60 C 0.8015 0.80804 0.59947 0.0
C61 C 0.77276 0.81439 0.62253 0.0
C62 C 0.63953 0.69072 0.45093 0.0
H63 H 0.60869 0.70921 0.76334 0.0
H64 H 0.63764 0.73318 0.69945 0.0
H65 H 0.65293 0.62072 0.68174 0.0
H66 H 0.62428 0.5968 0.7456 0.0
H67 H 0.70333 0.72959 0.67465 0.0
H68 H 0.62785 0.65934 0.60749 0.0
H69 H 0.70461 0.72973 0.5407 0.0
H70 H 0.64536 0.7337 0.48818 0.0
H71 H 0.65499 0.62065 0.55989 0.0
H72 H 0.64535 0.59749 0.49217 0.0
H73 H 0.72061 0.79553 0.64353 0.0
H74 H 0.76985 0.72693 0.57055 0.0
H75 H 0.6358 0.7107 0.42081 0.0
H76 H 0.77346 0.83851 0.6376 0.0
H77 H 0.82079 0.7703 0.56253 0.0
C78 C 0.8155 0.08644 0.22471 0.0
C79 C 0.85474 0.0884 0.23672 0.0
C80 C 0.79827 0.10234 0.18292 0.0
C81 C 0.82019 0.11956 0.15242 0.0
C82 C 0.85948 0.12098 0.16432 0.0
C83 C 0.87657 0.10586 0.20629 0.0
C84 C 0.80228 0.13615 0.10814 0.0
C85 C 0.77482 0.16443 0.10097 0.0
C86 C 0.75854 0.18148 0.05879 0.0
C87 C 0.77032 0.16915 0.02381 0.0
C88 C 0.7987 0.14153 0.03067 0.0
C89 C 0.81413 0.12493 0.07305 0.0
C90 C 0.81387 0.13124 0.99391 0.0
C91 C 0.78994 0.12734 0.95571 0.0
C92 C 0.85292 0.12553 0.99689 0.0
C93 C 0.86767 0.11568 0.9629 0.0
C94 C 0.84382 0.11153 0.92487 0.0
C95 C 0.73117 0.21346 0.05157 0.0
C96 C 0.70789 0.21658 0.08213 0.0
C97 C 0.72921 0.24214 0.015 0.0
C98 C 0.70517 0.27297 0.00943 0.0
C99 C 0.68327 0.27698 0.041 0.0
C100 C 0.6849 0.24809 0.07735 0.0
C101 C 0.8048 0.11769 0.92145 0.0
H102 H 0.7982 0.07322 0.24785 0.0
H103 H 0.76792 0.10089 0.17426 0.0
H104 H 0.87685 0.13428 0.14129 0.0
H105 H 0.9069 0.10757 0.21496 0.0
H106 H 0.76759 0.17405 0.12857 0.0
H107 H 0.83548 0.10308 0.07893 0.0
H108 H 0.75821 0.1816 0.9911 0.0
H109 H 0.75971 0.13126 0.9525 0.0
H110 H 0.87231 0.12922 0.02534 0.0
H111 H 0.89793 0.11195 0.96613 0.0
H112 H 0.70755 0.19488 0.11024 0.0
H113 H 0.74686 0.24154 0.99084 0.0
H114 H 0.78575 0.11454 0.89254 0.0
H115 H 0.66911 0.24989 0.10289 0.0
H116 H 0.70416 0.29378 0.98028 0.0
C117 C 0.342 0.37894 0.28604 0.0
C118 C 0.37976 0.39035 0.2908 0.0
C119 C 0.32635 0.36185 0.32212 0.0
C120 C 0.34834 0.35562 0.36345 0.0
C121 C 0.38667 0.36527 0.36752 0.0
C122 C 0.40207 0.38269 0.33174 0.0
C123 C 0.33131 0.34163 0.40276 0.0
C124 C 0.30465 0.31298 0.40432 0.0
C125 C 0.28986 0.29972 0.44243 0.0
C126 C 0.30148 0.31583 0.47882 0.0
C127 C 0.32763 0.34471 0.4775 0.0
C128 C 0.3421 0.35748 0.43939 0.0
C129 C 0.33995 0.36215 0.51549 0.0
C130 C 0.31346 0.37361 0.53832 0.0
C131 C 0.37833 0.36934 0.52762 0.0
C132 C 0.38992 0.38848 0.56105 0.0
C133 C 0.36337 0.401 0.58305 0.0
C134 C 0.26262 0.26876 0.44493 0.0
C135 C 0.22999 0.26993 0.41385 0.0
C136 C 0.26839 0.2385 0.47975 0.0
C137 C 0.24167 0.21049 0.48411 0.0
C138 C 0.20811 0.21227 0.45412 0.0
C139 C 0.2029 0.24209 0.4185 0.0
C140 C 0.32504 0.39301 0.57166 0.0
H141 H 0.32424 0.38453 0.25472 0.0
H142 H 0.29674 0.3549 0.31786 0.0
H143 H 0.40474 0.35995 0.39866 0.0
H144 H 0.43146 0.39048 0.33613 0.0
H145 H 0.29627 0.30023 0.37647 0.0
H146 H 0.36137 0.38061 0.43802 0.0
H147 H 0.29018 0.30582 0.50824 0.0
H148 H 0.28368 0.36861 0.52951 0.0
H149 H 0.39942 0.36053 0.51083 0.0
H150 H 0.4196 0.39441 0.56884 0.0
H151 H 0.22479 0.29307 0.38678 0.0
H152 H 0.29361 0.23658 0.50381 0.0
H153 H 0.30399 0.40195 0.58838 0.0
H154 H 0.17735 0.24465 0.39493 0.0
H155 H 0.24728 0.1875 0.51128 0.0
C156 C 0.97824 0.14136 0.53541 0.0
C157 C 0.91899 0.15299 0.48604 0.0
C158 C 0.94473 0.12833 0.51582 0.0
C159 C 0.92809 0.19075 0.47521 0.0
C160 C 0.98688 0.17945 0.52587 0.0
C161 C 0.96195 0.20394 0.49508 0.0
N162 N 1.00151 0.11709 0.56537 0.0
C163 C 0.03261 0.12923 0.58896 0.0
C164 C 0.0199 0.19186 0.54832 0.0
C165 C 0.04262 0.1667 0.58039 0.0
Gd166 Gd 0.03641 0.97575 0.52768 0.0
Gd167 Gd 0.98447 0.0545 0.5744 0.0
N168 N 0.93688 0.09163 0.52681 0.0
C169 C 0.88463 0.13905 0.46863 0.0
C170 C 0.9026 0.07826 0.51181 0.0
C171 C 0.87623 0.10162 0.48198 0.0
H172 H 0.89617 0.04932 0.52171 0.0
H173 H 0.8495 0.09074 0.46922 0.0
H174 H 0.11269 0.02473 0.49928 0.0
H175 H 0.04973 0.10985 0.61428 0.0
H176 H 0.17742 0.03599 0.53287 0.0
H177 H 0.86414 0.15707 0.44553 0.0
H178 H 0.90882 0.21009 0.45211 0.0
H179 H 0.01477 0.89063 0.57544 0.0
H180 H 0.0276 0.2209 0.54187 0.0
H181 H 0.06773 0.17616 0.59858 0.0
H182 H 0.19773 0.94393 0.66329 0.0
H183 H 0.96824 0.23327 0.48703 0.0
H184 H 0.10278 0.85129 0.6814 0.0
H185 H 0.04065 0.84237 0.63852 0.0
N186 N 0.06146 0.92628 0.58316 0.0
C187 C 0.09634 0.93082 0.60493 0.0
C188 C 0.04199 0.89442 0.59384 0.0
C189 C 0.09161 0.87235 0.65368 0.0
C190 C 0.05655 0.86719 0.62952 0.0
C191 C 0.11225 0.90419 0.64111 0.0
H192 H 0.16094 0.89003 0.6912 0.0
N193 N 0.10073 0.98546 0.55358 0.0
C194 C 0.11648 0.96166 0.58991 0.0
C195 C 0.17539 0.99434 0.58994 0.0
C196 C 0.1539 0.96597 0.60972 0.0
C197 C 0.12323 0.00967 0.53135 0.0
C198 C 0.16033 0.01553 0.54985 0.0
O199 O 0.97427 0.06037 0.50224 0.0
O200 O 0.9859 0.00407 0.48235 0.0
O201 O 0.0631 0.97074 0.47266 0.0
O202 O 0.02667 0.92761 0.49695 0.0
O203 O 0.9482 0.00461 0.56455 0.0
O204 O 0.97816 0.95808 0.53989 0.0
O205 O 0.02535 0.96695 0.59664 0.0
O206 O 0.03789 0.02479 0.60995 0.0
O207 O 0.96036 0.0258 0.62948 0.0
O208 O 0.96728 0.08559 0.61931 0.0
O209 O 0.04852 0.03768 0.50777 0.0
O210 O 0.0463 0.05639 0.57111 0.0
C211 C 0.97098 0.03783 0.47455 0.0
C212 C 0.94945 0.9716 0.5537 0.0
C213 C 0.07554 0.91013 0.46301 0.0
C214 C 0.10402 0.88047 0.41322 0.0
C215 C 0.11965 0.8584 0.4909 0.0
C216 C 0.09578 0.88551 0.49801 0.0
C217 C 0.1236 0.85566 0.44896 0.0
C218 C 0.08003 0.90781 0.42085 0.0
C219 C 0.04933 0.93827 0.46949 0.0
C220 C 0.16926 0.94068 0.6472 0.0
C221 C 0.1484 0.90988 0.66295 0.0
H222 H 0.20426 0.9986 0.60403 0.0
C223 C 0.03776 0.98879 0.62356 0.0
C224 C 0.05806 0.06121 0.53389 0.0
C225 C 0.97628 0.05318 0.69063 0.0
C226 C 0.97013 0.05237 0.76544 0.0
C227 C 0.03225 0.04979 0.74498 0.0
C228 C 0.01566 0.05186 0.70213 0.0
C229 C 0.00972 0.05005 0.77651 0.0
C230 C 0.95358 0.0535 0.72224 0.0
C231 C 0.95893 0.05591 0.64542 0.0
H232 H 0.13494 0.8392 0.51802 0.0
H233 H 0.09299 0.88705 0.53071 0.0
H234 H 0.14161 0.83368 0.44464 0.0
H235 H 0.06492 0.92756 0.39409 0.0
H236 H 0.06268 0.04871 0.75366 0.0
H237 H 0.03353 0.053 0.67787 0.0
H238 H 0.02337 0.04962 0.80931 0.0
H239 H 0.92314 0.05494 0.7131 0.0
C240 C 0.62839 0.52807 0.05151 0.0
C241 C 0.63573 0.59237 0.01704 0.0
C242 C 0.61361 0.56402 0.03666 0.0
C243 C 0.67286 0.5842 0.01285 0.0
C244 C 0.66599 0.52004 0.04825 0.0
C245 C 0.68797 0.54818 0.02852 0.0
N246 N 0.60627 0.50115 0.06981 0.0
C247 C 0.62114 0.46673 0.08905 0.0
C248 C 0.68058 0.48406 0.06548 0.0
C249 C 0.65821 0.45747 0.08651 0.0
Gd250 Gd 0.46799 0.48938 0.97604 0.0
Gd251 Gd 0.54431 0.51968 0.07161 0.0
N252 N 0.57733 0.57103 0.04051 0.0
C253 C 0.61979 0.62808 1.00196 0.0
C254 C 0.56193 0.60593 0.02656 0.0
C255 C 0.58279 0.6349 0.00691 0.0
H256 H 0.53354 0.61152 0.0301 0.0
H257 H 0.57027 0.66247 0.99551 0.0
H258 H 0.48078 0.39698 1.00225 0.0
H259 H 0.60473 0.44634 0.10693 0.0
H260 H 0.44265 0.34113 0.02145 0.0
H261 H 0.63582 0.65057 0.98657 0.0
H262 H 0.6902 0.60561 0.99774 0.0
H263 H 0.40547 0.55784 0.92543 0.0
H264 H 0.70932 0.47681 0.06364 0.0
H265 H 0.66959 0.4299 0.10108 0.0
H266 H 0.31696 0.39013 0.00757 0.0
H267 H 0.71682 0.54244 0.02549 0.0
H268 H 0.29521 0.51932 0.94485 0.0
H269 H 0.3366 0.56928 0.91606 0.0
N270 N 0.40306 0.50304 0.96204 0.0
C271 C 0.38065 0.47443 0.97571 0.0
C272 C 0.3876 0.53616 0.93888 0.0
C273 C 0.32541 0.51435 0.94966 0.0
C274 C 0.34866 0.54261 0.93323 0.0
C275 C 0.34116 0.47941 0.9701 0.0
H276 H 0.28822 0.45245 0.9796 0.0
N277 N 0.43477 0.43482 0.99444 0.0
C278 C 0.39689 0.43921 0.99181 0.0
C279 C 0.39094 0.37267 0.01397 0.0
C280 C 0.37401 0.40822 1.00223 0.0
C281 C 0.45107 0.40013 1.00299 0.0
C282 C 0.42953 0.36857 0.01362 0.0
O283 O 0.55441 0.52249 1.00297 0.0
O284 O 0.4983 0.54333 0.96209 0.0
O285 O 0.49882 0.47972 0.92591 0.0
O286 O 0.4379 0.48029 0.91475 0.0
O287 O 0.49402 0.55946 0.0519 0.0
O288 O 0.45278 0.54403 0.9932 0.0
O289 O 0.46611 0.45919 0.04414 0.0
O290 O 0.48516 0.50423 0.08372 0.0
O291 O 0.55607 0.55539 0.11882 0.0
O292 O 0.56508 0.49587 0.13884 0.0
O293 O 0.52348 0.45764 0.99922 0.0
O294 O 0.53952 0.45804 0.07201 0.0
C295 C 0.53521 0.54324 0.96836 0.0
C296 C 0.46326 0.56493 0.02237 0.0
C297 C 0.46719 0.49856 0.85428 0.0
C298 C 0.45484 0.49835 0.77735 0.0
C299 C 0.46606 0.55666 0.80276 0.0
C300 C 0.47009 0.53743 0.84541 0.0
C301 C 0.45813 0.53731 0.76879 0.0
C302 C 0.4599 0.47916 0.82029 0.0
C303 C 0.46826 0.47784 0.89836 0.0
C304 C 0.33493 0.41352 0.99911 0.0
C305 C 0.31856 0.44905 0.98319 0.0
H306 H 0.3743 0.34816 0.0221 0.0
C307 C 0.46635 0.47392 0.07847 0.0
C308 C 0.53961 0.44236 0.03839 0.0
C309 C 0.60203 0.53481 0.18007 0.0
C310 C 0.63041 0.55517 0.24621 0.0
C311 C 0.67011 0.53783 0.19823 0.0
C312 C 0.63814 0.53023 0.17035 0.0
C313 C 0.66636 0.55033 0.23585 0.0
C314 C 0.59829 0.54708 0.21815 0.0
C315 C 0.56783 0.52811 0.15057 0.0
H316 H 0.46836 0.58668 0.796 0.0
H317 H 0.47459 0.5528 0.87137 0.0
H318 H 0.45442 0.55271 0.73592 0.0
H319 H 0.45659 0.44919 0.82731 0.0
H320 H 0.6979 0.53418 0.19055 0.0
H321 H 0.64176 0.52097 0.14132 0.0
H322 H 0.6916 0.55598 0.25702 0.0
H323 H 0.57036 0.55114 0.2254 0.0
H324 H 0.18717 0.17959 0.53029 0.0
H325 H 0.16128 0.18123 0.39366 0.0
H326 H 0.11195 0.13546 0.40582 0.0
H327 H 0.07633 0.09425 0.45582 0.0
H328 H 0.10658 0.09034 0.5925 0.0
H329 H 0.15415 0.13728 0.57971 0.0
C330 C 0.17126 0.16961 0.50308 0.0
C331 C 0.17825 0.18391 0.46111 0.0
C332 C 0.14345 0.14287 0.51032 0.0
C333 C 0.15639 0.17115 0.42631 0.0
C334 C 0.12827 0.14474 0.43326 0.0
C335 C 0.09339 0.10375 0.48269 0.0
C336 C 0.08721 0.08946 0.52498 0.0
C337 C 0.12153 0.13036 0.47517 0.0
C338 C 0.10982 0.1017 0.55955 0.0
C339 C 0.13737 0.12832 0.55232 0.0
H340 H 0.36825 0.70502 0.03534 0.0
H341 H 0.2777 0.62754 0.01834 0.0
H342 H 0.32279 0.57993 0.01383 0.0
H343 H 0.38793 0.55975 0.01624 0.0
H344 H 0.47879 0.63583 0.03632 0.0
H345 H 0.4338 0.68406 0.0397 0.0
C346 C 0.35836 0.67761 0.03119 0.0
C347 C 0.31948 0.67013 0.02683 0.0
C348 C 0.38453 0.65004 0.0293 0.0
C349 C 0.30729 0.63446 0.02092 0.0
C350 C 0.33309 0.60705 0.01864 0.0
C351 C 0.39776 0.58721 0.02018 0.0
C352 C 0.43653 0.5946 0.02436 0.0
C353 C 0.37172 0.6146 0.02258 0.0
C354 C 0.44913 0.62955 0.03216 0.0
C355 C 0.42334 0.65717 0.03416 0.0
H356 H 0.79946 0.88461 0.5859 0.0
H357 H 0.87556 0.79099 0.60061 0.0
H358 H 0.92654 0.83316 0.58478 0.0
H359 H 0.94972 0.89615 0.56627 0.0
H360 H 0.87637 0.99046 0.55766 0.0
H361 H 0.82427 0.94851 0.57164 0.0
C362 C 0.82729 0.87339 0.58627 0.0
C363 C 0.83324 0.83447 0.59379 0.0
C364 C 0.857 0.89793 0.57785 0.0
C365 C 0.86965 0.82067 0.59385 0.0
C366 C 0.89901 0.8448 0.585 0.0
C367 C 0.92237 0.9077 0.56714 0.0
C368 C 0.91705 0.94655 0.56025 0.0
C369 C 0.89292 0.88342 0.57652 0.0
C370 C 0.88135 0.96075 0.56237 0.0
C371 C 0.85151 0.93672 0.57057 0.0
H372 H 0.61737 0.28439 0.07258 0.0
H373 H 0.69607 0.34833 0.99991 0.0
H374 H 0.6572 0.40383 0.99047 0.0
H375 H 0.60117 0.435 1.00326 0.0
H376 H 0.52829 0.37421 0.08528 0.0
H377 H 0.56517 0.3168 0.09167 0.0
C378 C 0.6267 0.31041 0.05533 0.0
C379 C 0.65966 0.31139 0.03642 0.0
C380 C 0.60522 0.34297 0.05182 0.0
C381 C 0.67034 0.34581 0.01361 0.0
C382 C 0.64833 0.37794 0.00858 0.0
C383 C 0.59358 0.40906 0.02255 0.0
C384 C 0.56224 0.40831 0.04362 0.0
C385 C 0.61571 0.37682 0.02739 0.0
C386 C 0.55255 0.37506 0.069 0.0
C387 C 0.57353 0.34239 0.07251 0.0
H388 H 0.09504 0.86962 0.21637 0.0
H389 H 0.21034 0.83273 0.26254 0.0
H390 H 0.20504 0.84302 0.33454 0.0
H391 H 0.16734 0.86115 0.38456 0.0
H392 H 0.05008 0.89275 0.3402 0.0
H393 H 0.05669 0.88677 0.26735 0.0
C394 C 0.11898 0.86416 0.24224 0.0
C395 C 0.15304 0.85054 0.23435 0.0
C396 C 0.11542 0.86927 0.28385 0.0
C397 C 0.18383 0.84313 0.26807 0.0
C398 C 0.1808 0.84902 0.30916 0.0
C399 C 0.143 0.86632 0.35923 0.0
C400 C 0.10825 0.87742 0.36833 0.0
C401 C 0.14662 0.8617 0.31754 0.0
C402 C 0.07741 0.8848 0.33441 0.0
C403 C 0.08104 0.88107 0.29263 0.0
H404 H 0.63878 0.59489 0.82689 0.0
H405 H 0.54744 0.67442 0.77673 0.0
H406 H 0.51501 0.64858 0.83712 0.0
H407 H 0.51206 0.60238 0.90368 0.0
H408 H 0.60414 0.52358 0.95399 0.0
H409 H 0.63699 0.5504 0.89468 0.0
C410 C 0.61177 0.60653 0.82922 0.0
C411 C 0.59548 0.63643 0.79729 0.0
C412 C 0.59343 0.59171 0.86418 0.0
C413 C 0.56069 0.65157 0.80104 0.0
C414 C 0.54207 0.63671 0.83547 0.0
C415 C 0.53921 0.591 0.90144 0.0
C416 C 0.55532 0.56069 0.93286 0.0
C417 C 0.55805 0.60661 0.86711 0.0
C418 C 0.59096 0.5468 0.93016 0.0
C419 C 0.60977 0.56205 0.89614 0.0
H420 H 0.89589 0.1258 0.2922 0.0
H421 H 0.8541 0.01675 0.28019 0.0
H422 H 0.88709 0.99083 0.35294 0.0
H423 H 0.92884 0.99943 0.4195 0.0
H424 H 0.96721 0.10967 0.43223 0.0
H425 H 0.93442 0.13503 0.35985 0.0
C426 C 0.89407 0.09639 0.30571 0.0
C427 C 0.87304 0.07304 0.28116 0.0
C428 C 0.91248 0.08199 0.34756 0.0
C429 C 0.87025 0.03509 0.29882 0.0
C430 C 0.88915 0.02033 0.34022 0.0
C431 C 0.93005 0.02895 0.40625 0.0
C432 C 0.95057 0.05261 0.43092 0.0
C433 C 0.91056 0.0435 0.3648 0.0
C434 C 0.95148 0.09092 0.41382 0.0
C435 C 0.93285 0.10545 0.37241 0.0
H436 H 0.42401 0.38793 0.64726 0.0
H437 H 0.33036 0.46437 0.59431 0.0
H438 H 0.35136 0.5022 0.6485 0.0
H439 H 0.39617 0.51332 0.7114 0.0
H440 H 0.48905 0.43624 0.76507 0.0
H441 H 0.46894 0.39919 0.70974 0.0
C442 C 0.40835 0.413 0.64743 0.0
C443 C 0.37566 0.42329 0.61683 0.0
C444 C 0.4206 0.43461 0.67863 0.0
C445 C 0.35534 0.45557 0.61786 0.0
C446 C 0.36749 0.47737 0.64862 0.0
C447 C 0.41222 0.48867 0.71053 0.0
C448 C 0.44414 0.47759 0.74196 0.0
C449 C 0.40009 0.46718 0.67914 0.0
C450 C 0.46435 0.44523 0.74113 0.0
C451 C 0.45285 0.42405 0.70959 0.0
H452 H 0.60127 0.59472 0.42236 0.0
H453 H 0.68179 0.67954 0.38864 0.0
H454 H 0.6852 0.65746 0.32236 0.0
H455 H 0.66638 0.61361 0.27435 0.0
H456 H 0.58569 0.52874 0.3066 0.0
H457 H 0.58111 0.5513 0.3728 0.0
C458 C 0.61954 0.60828 0.40046 0.0
C459 C 0.64108 0.63886 0.41037 0.0
C460 C 0.62136 0.59544 0.36213 0.0
C461 C 0.66446 0.65633 0.38152 0.0
C462 C 0.66663 0.64359 0.34369 0.0
C463 C 0.64794 0.59993 0.296 0.0
C464 C 0.62664 0.56939 0.28577 0.0
C465 C 0.64537 0.61311 0.33376 0.0
C466 C 0.60228 0.55241 0.31369 0.0
C467 C 0.59978 0.5652 0.35161 0.0
H468 H 0.89642 0.05783 0.92976 0.0
H469 H 0.82785 0.14293 0.83926 0.0
H470 H 0.85912 0.13026 0.78108 0.0
H471 H 0.90947 0.09848 0.75738 0.0
H472 H 0.97808 0.01349 0.84827 0.0
H473 H 0.9436 0.02303 0.90504 0.0
C474 C 0.88829 0.07354 0.89726 0.0
C475 C 0.86014 0.1015 0.88887 0.0
C476 C 0.90662 0.06638 0.86418 0.0
C477 C 0.84934 0.12116 0.84648 0.0
C478 C 0.86737 0.11409 0.81329 0.0
C479 C 0.91641 0.08153 0.78939 0.0
C480 C 0.94654 0.05552 0.79863 0.0
C481 C 0.89649 0.08719 0.82192 0.0
C482 C 0.95545 0.03414 0.84047 0.0
C483 C 0.93566 0.03947 0.87291 0.0
H484 H 0.37844 0.37219 0.21217 0.0
H485 H 0.41746 0.4555 0.28684 0.0
H486 H 0.44656 0.48948 0.22734 0.0
H487 H 0.46229 0.49466 0.15489 0.0
H488 H 0.42661 0.4093 0.08194 0.0
H489 H 0.39454 0.37735 0.13939 0.0
C490 C 0.39305 0.39796 0.21513 0.0
C491 C 0.39587 0.41134 0.25372 0.0
C492 C 0.41028 0.41703 0.18104 0.0
C493 C 0.41522 0.44454 0.25748 0.0
C494 C 0.43178 0.464 0.22347 0.0
C495 C 0.4474 0.46916 0.15138 0.0
C496 C 0.44649 0.45479 0.11354 0.0
C497 C 0.42976 0.45035 0.18522 0.0
C498 C 0.42726 0.42148 0.11005 0.0
C499 C 0.40906 0.40298 0.14318 0.0
H500 H 0.12054 0.94118 0.81527 0.0
H501 H 0.03986 0.85267 0.81326 0.0
H502 H 0.01471 0.87844 0.73805 0.0
H503 H 0.01544 0.92625 0.67268 0.0
H504 H 0.09518 0.01531 0.6751 0.0
H505 H 0.12064 0.98945 0.75037 0.0
C506 C 0.09707 0.92782 0.79863 0.0
C507 C 0.08216 0.895 0.82001 0.0
C508 C 0.0826 0.94287 0.75539 0.0
C509 C 0.05219 0.87772 0.79754 0.0
C510 C 0.03768 0.89249 0.75454 0.0
C511 C 0.03843 0.93987 0.6898 0.0
C512 C 0.05327 0.97272 0.66872 0.0
C513 C 0.05274 0.92496 0.73309 0.0
C514 C 0.08305 0.9902 0.691 0.0
C515 C 0.09766 0.97538 0.73394 0.0
loop_
_geom_bond_atom_site_label_1
_geom_bond_atom_site_label_2
_geom_bond_distance
_geom_bond_site_symmetry_2
_ccdc_geom_bond_type
C0 C1 1.386 . S
C0 C2 1.397 . S
C0 H24 0.931 . S
C1 C0 1.386 . S
C1 C5 1.397 . S
C2 C0 1.397 . S
C2 C3 1.384 . S
C2 H25 0.930 . S
C3 C2 1.384 . S
C3 C4 1.377 . S
C3 C6 1.481 . S
C4 C3 1.377 . S
C4 C5 1.389 . S
C4 H26 0.929 . S
C5 C1 1.397 . S
C5 C4 1.389 . S
C5 H27 0.931 . S
C6 C3 1.481 . S
C6 C7 1.387 . S
C6 C11 1.390 1_556 S
C7 C6 1.387 . S
C7 C8 1.401 1_556 S
C7 H28 0.930 . S
C8 C7 1.401 1_554 S
C8 C9 1.376 . S
C8 C17 1.511 . S
C9 C8 1.376 . S
C9 C10 1.392 . S
C9 H30 0.931 . S
C10 C9 1.392 . S
C10 C11 1.361 . S
C10 C12 1.500 . S
C11 C6 1.390 1_554 S
C11 C10 1.361 . S
C11 H29 0.931 . S
C12 C10 1.500 . S
C12 C13 1.371 . S
C12 C14 1.365 . S
C13 C12 1.371 . S
C13 C23 1.386 . S
C13 H31 0.931 . S
C14 C12 1.365 . S
C14 C15 1.409 . S
C14 H32 0.929 . S
C15 C14 1.409 . S
C15 C16 1.380 . S
C15 H33 0.930 . S
C16 C15 1.380 . S
C16 C23 1.357 . S
C17 C8 1.511 . S
C17 C18 1.341 1_554 S
C17 C19 1.371 . S
C18 C17 1.341 1_556 S
C18 C22 1.394 1_556 S
C18 H34 0.930 . S
C19 C17 1.371 . S
C19 C20 1.392 . S
C19 H35 0.931 . S
C20 C19 1.392 . S
C20 C21 1.331 . S
C20 H38 0.932 . S
C21 C20 1.331 . S
C21 C22 1.336 . S
C22 C18 1.394 1_554 S
C22 C21 1.336 . S
C22 H37 0.929 1_554 S
C23 C13 1.386 . S
C23 C16 1.357 . S
C23 H36 0.928 . S
H24 C0 0.931 . S
H25 C2 0.930 . S
H26 C4 0.929 . S
H27 C5 0.931 . S
H28 C7 0.930 . S
H29 C11 0.931 . S
H30 C9 0.931 . S
H31 C13 0.931 . S
H32 C14 0.929 . S
H33 C15 0.930 . S
H34 C18 0.930 . S
H35 C19 0.931 . S
H36 C23 0.928 . S
H37 C22 0.929 1_556 S
H38 C20 0.932 . S
C39 C40 1.386 . S
C39 C41 1.397 . S
C39 H63 0.931 . S
C40 C39 1.386 . S
C40 C44 1.397 . S
C41 C39 1.397 . S
C41 C42 1.384 . S
C41 H64 0.930 . S
C42 C41 1.384 . S
C42 C43 1.377 . S
C42 C45 1.481 . S
C43 C42 1.377 . S
C43 C44 1.389 . S
C43 H65 0.929 . S
C44 C40 1.397 . S
C44 C43 1.389 . S
C44 H66 0.931 . S
C45 C42 1.481 . S
C45 C46 1.387 . S
C45 C50 1.390 . S
C46 C45 1.387 . S
C46 C47 1.401 . S
C46 H67 0.930 . S
C47 C46 1.401 . S
C47 C48 1.376 . S
C47 C56 1.511 . S
C48 C47 1.376 . S
C48 C49 1.392 . S
C48 H69 0.931 . S
C49 C48 1.392 . S
C49 C50 1.361 . S
C49 C51 1.500 . S
C50 C45 1.390 . S
C50 C49 1.361 . S
C50 H68 0.931 . S
C51 C49 1.500 . S
C51 C52 1.371 . S
C51 C53 1.365 . S
C52 C51 1.371 . S
C52 C62 1.386 . S
C52 H70 0.931 . S
C53 C51 1.365 . S
C53 C54 1.409 . S
C53 H71 0.929 . S
C54 C53 1.409 . S
C54 C55 1.380 . S
C54 H72 0.930 . S
C55 C54 1.380 . S
C55 C62 1.357 . S
C56 C47 1.511 . S
C56 C57 1.341 . S
C56 C58 1.371 . S
C57 C56 1.341 . S
C57 C61 1.394 . S
C57 H73 0.930 . S
C58 C56 1.371 . S
C58 C59 1.392 . S
C58 H74 0.931 . S
C59 C58 1.392 . S
C59 C60 1.331 . S
C59 H77 0.932 . S
C60 C59 1.331 . S
C60 C61 1.336 . S
C61 C57 1.394 . S
C61 C60 1.336 . S
C61 H76 0.929 . S
C62 C52 1.386 . S
C62 C55 1.357 . S
C62 H75 0.928 . S
H63 C39 0.931 . S
H64 C41 0.930 . S
H65 C43 0.929 . S
H66 C44 0.931 . S
H67 C46 0.930 . S
H68 C50 0.931 . S
H69 C48 0.931 . S
H70 C52 0.931 . S
H71 C53 0.929 . S
H72 C54 0.930 . S
H73 C57 0.930 . S
H74 C58 0.931 . S
H75 C62 0.928 . S
H76 C61 0.929 . S
H77 C59 0.932 . S
C78 C79 1.386 . S
C78 C80 1.397 . S
C78 H102 0.931 . S
C79 C78 1.386 . S
C79 C83 1.397 . S
C80 C78 1.397 . S
C80 C81 1.384 . S
C80 H103 0.930 . S
C81 C80 1.384 . S
C81 C82 1.377 . S
C81 C84 1.481 . S
C82 C81 1.377 . S
C82 C83 1.389 . S
C82 H104 0.929 . S
C83 C79 1.397 . S
C83 C82 1.389 . S
C83 H105 0.931 . S
C84 C81 1.481 . S
C84 C85 1.387 . S
C84 C89 1.390 . S
C85 C84 1.387 . S
C85 C86 1.401 . S
C85 H106 0.930 . S
C86 C85 1.401 . S
C86 C87 1.376 . S
C86 C95 1.511 . S
C87 C86 1.376 . S
C87 C88 1.392 . S
C87 H108 0.931 1_554 S
C88 C87 1.392 . S
C88 C89 1.361 . S
C88 C90 1.500 1_554 S
C89 C84 1.390 . S
C89 C88 1.361 . S
C89 H107 0.931 . S
C90 C88 1.500 1_556 S
C90 C91 1.371 . S
C90 C92 1.365 . S
C91 C90 1.371 . S
C91 C101 1.386 . S
C91 H109 0.931 . S
C92 C90 1.365 . S
C92 C93 1.409 . S
C92 H110 0.929 1_556 S
C93 C92 1.409 . S
C93 C94 1.380 . S
C93 H111 0.930 . S
C94 C93 1.380 . S
C94 C101 1.357 . S
C95 C86 1.511 . S
C95 C96 1.341 . S
C95 C97 1.373 . S
C96 C95 1.341 . S
C96 C100 1.394 . S
C96 H112 0.930 . S
C97 C95 1.373 . S
C97 C98 1.393 1_554 S
C97 H113 0.929 1_554 S
C98 C97 1.393 1_556 S
C98 C99 1.331 1_556 S
C98 H116 0.932 . S
C99 C98 1.331 1_554 S
C99 C100 1.336 . S
C100 C96 1.394 . S
C100 C99 1.336 . S
C100 H115 0.929 . S
C101 C91 1.386 . S
C101 C94 1.357 . S
C101 H114 0.928 . S
H102 C78 0.931 . S
H103 C80 0.930 . S
H104 C82 0.929 . S
H105 C83 0.931 . S
H106 C85 0.930 . S
H107 C89 0.931 . S
H108 C87 0.931 1_556 S
H109 C91 0.931 . S
H110 C92 0.929 1_554 S
H111 C93 0.930 . S
H112 C96 0.930 . S
H113 C97 0.929 1_556 S
H114 C101 0.928 . S
H115 C100 0.929 . S
H116 C98 0.932 . S
C117 C118 1.386 . S
C117 C119 1.397 . S
C117 H141 0.931 . S
C118 C117 1.386 . S
C118 C122 1.397 . S
C119 C117 1.397 . S
C119 C120 1.384 . S
C119 H142 0.930 . S
C120 C119 1.384 . S
C120 C121 1.377 . S
C120 C123 1.481 . S
C121 C120 1.377 . S
C121 C122 1.389 . S
C121 H143 0.929 . S
C122 C118 1.397 . S
C122 C121 1.389 . S
C122 H144 0.931 . S
C123 C120 1.481 . S
C123 C124 1.387 . S
C123 C128 1.390 . S
C124 C123 1.387 . S
C124 C125 1.401 . S
C124 H145 0.930 . S
C125 C124 1.401 . S
C125 C126 1.376 . S
C125 C134 1.511 . S
C126 C125 1.376 . S
C126 C127 1.392 . S
C126 H147 0.931 . S
C127 C126 1.392 . S
C127 C128 1.361 . S
C127 C129 1.500 . S
C128 C123 1.390 . S
C128 C127 1.361 . S
C128 H146 0.931 . S
C129 C127 1.500 . S
C129 C130 1.371 . S
C129 C131 1.365 . S
C130 C129 1.371 . S
C130 C140 1.386 . S
C130 H148 0.931 . S
C131 C129 1.365 . S
C131 C132 1.409 . S
C131 H149 0.929 . S
C132 C131 1.409 . S
C132 C133 1.380 . S
C132 H150 0.930 . S
C133 C132 1.380 . S
C133 C140 1.357 . S
C134 C125 1.511 . S
C134 C135 1.341 . S
C134 C136 1.371 . S
C135 C134 1.341 . S
C135 C139 1.394 . S
C135 H151 0.930 . S
C136 C134 1.371 . S
C136 C137 1.392 . S
C136 H152 0.931 . S
C137 C136 1.392 . S
C137 C138 1.331 . S
C137 H155 0.932 . S
C138 C137 1.331 . S
C138 C139 1.336 . S
C139 C135 1.394 . S
C139 C138 1.336 . S
C139 H154 0.929 . S
C140 C130 1.386 . S
C140 C133 1.357 . S
C140 H153 0.928 . S
H141 C117 0.931 . S
H142 C119 0.930 . S
H143 C121 0.929 . S
H144 C122 0.931 . S
H145 C124 0.930 . S
H146 C128 0.931 . S
H147 C126 0.931 . S
H148 C130 0.931 . S
H149 C131 0.929 . S
H150 C132 0.930 . S
H151 C135 0.930 . S
H152 C136 0.931 . S
H153 C140 0.928 . S
H154 C139 0.929 . S
H155 C137 0.932 . S
C156 C158 1.422 . S
C156 C160 1.415 . S
C156 N162 1.369 . S
C157 C158 1.421 . S
C157 C159 1.417 . S
C157 C169 1.422 . S
C158 C156 1.422 . S
C158 C157 1.421 . S
C158 N168 1.359 . S
C159 C157 1.417 . S
C159 C161 1.329 . S
C159 H178 0.930 . S
C160 C156 1.415 . S
C160 C161 1.437 . S
C160 C164 1.413 . S
C161 C159 1.329 . S
C161 C160 1.437 . S
C161 H183 0.929 . S
N162 C156 1.369 . S
N162 C163 1.333 1_655 S
N162 Gd167 2.622 . S
C163 N162 1.333 1_455 S
C163 C165 1.378 1_455 S
C163 H175 0.934 . S
C164 C160 1.413 . S
C164 C165 1.348 . S
C164 H180 0.931 . S
C165 C163 1.378 1_655 S
C165 C164 1.348 . S
C165 H181 0.930 1_655 S
Gd166 N186 2.622 . S
Gd166 N193 2.570 . S
Gd166 O200 2.351 1_455 S
Gd166 O201 2.468 . S
Gd166 O202 2.427 . S
Gd166 O204 2.388 1_455 S
Gd166 O205 2.386 . S
Gd166 O209 2.307 1_565 S
Gd166 C219 2.805 . S
Gd167 N162 2.622 . S
Gd167 N168 2.570 . S
Gd167 O199 2.386 . S
Gd167 O203 2.307 1_545 S
Gd167 O206 2.353 1_655 S
Gd167 O207 2.468 . S
Gd167 O208 2.427 . S
Gd167 O210 2.388 1_655 S
Gd167 C231 2.805 . S
N168 C158 1.359 . S
N168 Gd167 2.570 . S
N168 C170 1.343 . S
C169 C157 1.422 . S
C169 C171 1.321 . S
C169 H177 0.931 . S
C170 N168 1.343 . S
C170 C171 1.390 . S
C170 H172 0.931 . S
C171 C169 1.321 . S
C171 C170 1.390 . S
C171 H173 0.930 . S
H172 C170 0.931 . S
H173 C171 0.930 . S
H174 C197 0.931 . S
H175 C163 0.934 . S
H176 C198 0.930 . S
H177 C169 0.931 . S
H178 C159 0.930 . S
H179 C188 0.929 1_655 S
H180 C164 0.931 . S
H181 C165 0.930 1_455 S
H182 C220 0.930 . S
H183 C161 0.929 . S
H184 C189 0.931 . S
H185 C190 0.930 1_655 S
N186 Gd166 2.622 . S
N186 C187 1.369 . S
N186 C188 1.338 . S
C187 N186 1.369 . S
C187 C191 1.415 . S
C187 C194 1.422 . S
C188 H179 0.929 1_455 S
C188 N186 1.338 . S
C188 C190 1.378 . S
C189 H184 0.931 . S
C189 C190 1.348 . S
C189 C191 1.413 . S
C190 H185 0.930 1_455 S
C190 C188 1.378 . S
C190 C189 1.348 . S
C191 C187 1.415 . S
C191 C189 1.413 . S
C191 C221 1.437 . S
H192 C221 0.929 . S
N193 Gd166 2.570 . S
N193 C194 1.359 . S
N193 C197 1.343 . S
C194 C187 1.422 . S
C194 N193 1.359 . S
C194 C196 1.421 . S
C195 C196 1.422 . S
C195 C198 1.321 . S
C195 H222 0.931 . S
C196 C194 1.421 . S
C196 C195 1.422 . S
C196 C220 1.417 . S
C197 H174 0.931 . S
C197 N193 1.343 . S
C197 C198 1.390 . S
C198 H176 0.930 . S
C198 C195 1.321 . S
C198 C197 1.390 . S
O199 Gd167 2.386 . S
O199 C211 1.265 . S
O200 Gd166 2.351 1_655 S
O200 C211 1.244 1_565 S
O201 Gd166 2.468 . S
O201 C219 1.263 . S
O202 Gd166 2.427 . S
O202 C219 1.252 . S
O203 Gd167 2.307 1_565 S
O203 C212 1.261 . S
O204 Gd166 2.388 1_655 S
O204 C212 1.252 . S
O205 Gd166 2.386 . S
O205 C223 1.265 . S
O206 Gd167 2.353 1_455 S
O206 C223 1.242 1_545 S
O207 Gd167 2.468 . S
O207 C231 1.263 . S
O208 Gd167 2.427 . S
O208 C231 1.252 . S
O209 Gd166 2.307 1_545 S
O209 C224 1.261 . S
O210 Gd167 2.388 1_455 S
O210 C224 1.252 . S
C211 O199 1.265 . S
C211 O200 1.244 1_545 S
C212 O203 1.261 . S
C212 O204 1.252 . S
C213 C216 1.394 . S
C213 C218 1.370 . S
C213 C219 1.500 . S
C214 C217 1.383 . S
C214 C218 1.395 . S
C215 C216 1.396 . S
C215 C217 1.365 . S
C215 H232 0.929 . S
C216 C213 1.394 . S
C216 C215 1.396 . S
C216 H233 0.930 . S
C217 C214 1.383 . S
C217 C215 1.365 . S
C217 H234 0.931 . S
C218 C213 1.370 . S
C218 C214 1.395 . S
C218 H235 0.930 . S
C219 Gd166 2.805 . S
C219 O201 1.263 . S
C219 O202 1.252 . S
C219 C213 1.500 . S
C220 H182 0.930 . S
C220 C196 1.417 . S
C220 C221 1.329 . S
C221 C191 1.437 . S
C221 H192 0.929 . S
C221 C220 1.329 . S
H222 C195 0.931 . S
C223 O205 1.265 . S
C223 O206 1.242 1_565 S
C224 O209 1.261 . S
C224 O210 1.252 . S
C225 C228 1.394 . S
C225 C230 1.370 . S
C225 C231 1.500 . S
C226 C229 1.383 . S
C226 C230 1.395 . S
C227 C228 1.396 . S
C227 C229 1.365 . S
C227 H236 0.929 . S
C228 C225 1.394 . S
C228 C227 1.396 . S
C228 H237 0.930 . S
C229 C226 1.383 . S
C229 C227 1.365 . S
C229 H238 0.931 . S
C230 C225 1.370 . S
C230 C226 1.395 . S
C230 H239 0.930 . S
C231 Gd167 2.805 . S
C231 O207 1.263 . S
C231 O208 1.252 . S
C231 C225 1.500 . S
H232 C215 0.929 . S
H233 C216 0.930 . S
H234 C217 0.931 . S
H235 C218 0.930 . S
H236 C227 0.929 . S
H237 C228 0.930 . S
H238 C229 0.931 . S
H239 C230 0.930 . S
C240 C242 1.422 . S
C240 C244 1.415 . S
C240 N246 1.369 . S
C241 C242 1.421 . S
C241 C243 1.417 . S
C241 C253 1.422 . S
C242 C240 1.422 . S
C242 C241 1.421 . S
C242 N252 1.359 . S
C243 C241 1.417 . S
C243 C245 1.329 . S
C243 H262 0.930 . S
C244 C240 1.415 . S
C244 C245 1.437 . S
C244 C248 1.413 . S
C245 C243 1.329 . S
C245 C244 1.437 . S
C245 H267 0.929 . S
N246 C240 1.369 . S
N246 C247 1.338 . S
N246 Gd251 2.622 . S
C247 N246 1.338 . S
C247 C249 1.378 . S
C247 H259 0.929 . S
C248 C244 1.413 . S
C248 C249 1.348 . S
C248 H264 0.931 . S
C249 C247 1.378 . S
C249 C248 1.348 . S
C249 H265 0.930 . S
Gd250 N270 2.622 . S
Gd250 N277 2.570 1_556 S
Gd250 O284 2.353 . S
Gd250 O285 2.468 . S
Gd250 O286 2.427 . S
Gd250 O288 2.388 1_556 S
Gd250 O289 2.386 1_556 S
Gd250 O293 2.307 1_556 S
Gd250 C303 2.805 . S
Gd251 N246 2.622 . S
Gd251 N252 2.570 . S
Gd251 O283 2.372 1_554 S
Gd251 O287 2.307 . S
Gd251 O290 2.353 . S
Gd251 O291 2.468 . S
Gd251 O292 2.427 . S
Gd251 O294 2.388 . S
Gd251 C315 2.805 . S
N252 C242 1.359 . S
N252 Gd251 2.570 . S
N252 C254 1.343 . S
C253 C241 1.422 . S
C253 C255 1.321 . S
C253 H261 0.931 . S
C254 N252 1.343 . S
C254 C255 1.390 . S
C254 H256 0.931 . S
C255 C253 1.321 . S
C255 C254 1.390 . S
C255 H257 0.930 . S
H256 C254 0.931 . S
H257 C255 0.930 . S
H258 C281 0.931 . S
H259 C247 0.929 . S
H260 C282 0.930 . S
H261 C253 0.931 . S
H262 C243 0.930 . S
H263 C272 0.929 . S
H264 C248 0.931 . S
H265 C249 0.930 . S
H266 C304 0.930 . S
H267 C245 0.929 . S
H268 C273 0.931 . S
H269 C274 0.930 . S
N270 Gd250 2.622 . S
N270 C271 1.369 1_556 S
N270 C272 1.338 . S
C271 N270 1.369 1_554 S
C271 C275 1.415 . S
C271 C278 1.422 . S
C272 H263 0.929 . S
C272 N270 1.338 . S
C272 C274 1.378 . S
C273 H268 0.931 . S
C273 C274 1.348 1_554 S
C273 C275 1.413 . S
C274 H269 0.930 . S
C274 C272 1.378 . S
C274 C273 1.348 1_556 S
C275 C271 1.415 . S
C275 C273 1.413 . S
C275 C305 1.437 . S
H276 C305 0.929 . S
N277 Gd250 2.570 1_554 S
N277 C278 1.359 . S
N277 C281 1.343 . S
C278 C271 1.422 . S
C278 N277 1.359 . S
C278 C280 1.421 . S
C279 C280 1.422 . S
C279 C282 1.321 . S
C279 H306 0.931 . S
C280 C278 1.421 . S
C280 C279 1.422 . S
C280 C304 1.417 . S
C281 H258 0.931 . S
C281 N277 1.343 . S
C281 C282 1.390 . S
C282 H260 0.930 . S
C282 C279 1.321 . S
C282 C281 1.390 . S
O283 Gd251 2.372 1_556 S
O283 C295 1.276 . S
O284 Gd250 2.353 . S
O284 C295 1.242 . S
O285 Gd250 2.468 . S
O285 C303 1.263 . S
O286 Gd250 2.427 . S
O286 C303 1.252 . S
O287 Gd251 2.307 . S
O287 C296 1.261 . S
O288 Gd250 2.388 1_554 S
O288 C296 1.250 . S
O289 Gd250 2.386 1_554 S
O289 C307 1.265 . S
O290 Gd251 2.353 . S
O290 C307 1.242 . S
O291 Gd251 2.468 . S
O291 C315 1.263 . S
O292 Gd251 2.427 . S
O292 C315 1.252 . S
O293 Gd250 2.307 1_554 S
O293 C308 1.261 . S
O294 Gd251 2.388 . S
O294 C308 1.252 . S
C295 O283 1.276 . S
C295 O284 1.242 . S
C296 O287 1.261 . S
C296 O288 1.250 . S
C297 C300 1.394 . S
C297 C302 1.370 . S
C297 C303 1.500 . S
C298 C301 1.383 . S
C298 C302 1.395 . S
C299 C300 1.396 . S
C299 C301 1.365 . S
C299 H316 0.929 . S
C300 C297 1.394 . S
C300 C299 1.396 . S
C300 H317 0.930 . S
C301 C298 1.383 . S
C301 C299 1.365 . S
C301 H318 0.931 . S
C302 C297 1.370 . S
C302 C298 1.395 . S
C302 H319 0.930 . S
C303 Gd250 2.805 . S
C303 O285 1.263 . S
C303 O286 1.252 . S
C303 C297 1.500 . S
C304 H266 0.930 . S
C304 C280 1.417 . S
C304 C305 1.329 . S
C305 C275 1.437 . S
C305 H276 0.929 . S
C305 C304 1.329 . S
H306 C279 0.931 . S
C307 O289 1.265 . S
C307 O290 1.242 . S
C308 O293 1.261 . S
C308 O294 1.252 . S
C309 C312 1.394 . S
C309 C314 1.370 . S
C309 C315 1.500 . S
C310 C313 1.383 . S
C310 C314 1.395 . S
C311 C312 1.396 . S
C311 C313 1.365 . S
C311 H320 0.929 . S
C312 C309 1.394 . S
C312 C311 1.396 . S
C312 H321 0.930 . S
C313 C310 1.383 . S
C313 C311 1.365 . S
C313 H322 0.931 . S
C314 C309 1.370 . S
C314 C310 1.395 . S
C314 H323 0.930 . S
C315 Gd251 2.805 . S
C315 O291 1.263 . S
C315 O292 1.252 . S
C315 C309 1.500 . S
H316 C299 0.929 . S
H317 C300 0.930 . S
H318 C301 0.931 . S
H319 C302 0.930 . S
H320 C311 0.929 . S
H321 C312 0.930 . S
H322 C313 0.931 . S
H323 C314 0.930 . S
H324 C330 0.930 . S
H325 C333 0.930 . S
H326 C334 0.930 . S
H327 C335 0.930 . S
H328 C338 0.930 . S
H329 C339 0.930 . S
C330 H324 0.930 . S
C330 C331 1.355 . S
C330 C332 1.415 . S
C331 C330 1.355 . S
C331 C333 1.419 . S
C332 C330 1.415 . S
C332 C337 1.425 . S
C332 C339 1.409 . S
C333 H325 0.930 . S
C333 C331 1.419 . S
C333 C334 1.362 . S
C334 H326 0.930 . S
C334 C333 1.362 . S
C334 C337 1.409 . S
C335 H327 0.930 . S
C335 C336 1.355 . S
C335 C337 1.415 . S
C336 C335 1.355 . S
C336 C338 1.419 . S
C337 C332 1.425 . S
C337 C334 1.409 . S
C337 C335 1.415 . S
C338 H328 0.930 . S
C338 C336 1.419 . S
C338 C339 1.362 . S
C339 H329 0.930 . S
C339 C332 1.409 . S
C339 C338 1.362 . S
H340 C346 0.930 . S
H341 C349 0.930 . S
H342 C350 0.930 . S
H343 C351 0.930 . S
H344 C354 0.930 . S
H345 C355 0.930 . S
C346 H340 0.930 . S
C346 C347 1.355 . S
C346 C348 1.415 . S
C347 C346 1.355 . S
C347 C349 1.419 . S
C348 C346 1.415 . S
C348 C353 1.425 . S
C348 C355 1.409 . S
C349 H341 0.930 . S
C349 C347 1.419 . S
C349 C350 1.362 . S
C350 H342 0.930 . S
C350 C349 1.362 . S
C350 C353 1.409 . S
C351 H343 0.930 . S
C351 C352 1.355 . S
C351 C353 1.415 . S
C352 C351 1.355 . S
C352 C354 1.419 . S
C353 C348 1.425 . S
C353 C350 1.409 . S
C353 C351 1.415 . S
C354 H344 0.930 . S
C354 C352 1.419 . S
C354 C355 1.362 . S
C355 H345 0.930 . S
C355 C348 1.409 . S
C355 C354 1.362 . S
H356 C362 0.930 . S
H357 C365 0.930 . S
H358 C366 0.930 . S
H359 C367 0.930 . S
H360 C370 0.930 . S
H361 C371 0.930 . S
C362 H356 0.930 . S
C362 C363 1.355 . S
C362 C364 1.415 . S
C363 C362 1.355 . S
C363 C365 1.419 . S
C364 C362 1.415 . S
C364 C369 1.425 . S
C364 C371 1.409 . S
C365 H357 0.930 . S
C365 C363 1.419 . S
C365 C366 1.362 . S
C366 H358 0.930 . S
C366 C365 1.362 . S
C366 C369 1.409 . S
C367 H359 0.930 . S
C367 C368 1.355 . S
C367 C369 1.415 . S
C368 C367 1.355 . S
C368 C370 1.419 . S
C369 C364 1.425 . S
C369 C366 1.409 . S
C369 C367 1.415 . S
C370 H360 0.930 . S
C370 C368 1.419 . S
C370 C371 1.362 . S
C371 H361 0.930 . S
C371 C364 1.409 . S
C371 C370 1.362 . S
H372 C378 0.930 . S
H373 C381 0.930 . S
H374 C382 0.930 . S
H375 C383 0.930 . S
H376 C386 0.930 . S
H377 C387 0.930 . S
C378 H372 0.930 . S
C378 C379 1.355 . S
C378 C380 1.415 . S
C379 C378 1.355 . S
C379 C381 1.419 . S
C380 C378 1.415 . S
C380 C385 1.425 . S
C380 C387 1.409 . S
C381 H373 0.930 . S
C381 C379 1.419 . S
C381 C382 1.362 . S
C382 H374 0.930 . S
C382 C381 1.362 . S
C382 C385 1.409 . S
C383 H375 0.930 . S
C383 C384 1.355 . S
C383 C385 1.415 . S
C384 C383 1.355 . S
C384 C386 1.419 . S
C385 C380 1.425 . S
C385 C382 1.409 . S
C385 C383 1.415 . S
C386 H376 0.930 . S
C386 C384 1.419 . S
C386 C387 1.362 . S
C387 H377 0.930 . S
C387 C380 1.409 . S
C387 C386 1.362 . S
H388 C394 0.930 . S
H389 C397 0.930 . S
H390 C398 0.930 . S
H391 C399 0.930 . S
H392 C402 0.930 . S
H393 C403 0.930 . S
C394 H388 0.930 . S
C394 C395 1.355 . S
C394 C396 1.415 . S
C395 C394 1.355 . S
C395 C397 1.419 . S
C396 C394 1.415 . S
C396 C401 1.425 . S
C396 C403 1.409 . S
C397 H389 0.930 . S
C397 C395 1.419 . S
C397 C398 1.362 . S
C398 H390 0.930 . S
C398 C397 1.362 . S
C398 C401 1.409 . S
C399 H391 0.930 . S
C399 C400 1.355 . S
C399 C401 1.415 . S
C400 C399 1.355 . S
C400 C402 1.419 . S
C401 C396 1.425 . S
C401 C398 1.409 . S
C401 C399 1.415 . S
C402 H392 0.930 . S
C402 C400 1.419 . S
C402 C403 1.362 . S
C403 H393 0.930 . S
C403 C396 1.409 . S
C403 C402 1.362 . S
H404 C410 0.930 . S
H405 C413 0.930 . S
H406 C414 0.930 . S
H407 C415 0.930 . S
H408 C418 0.930 . S
H409 C419 0.930 . S
C410 H404 0.930 . S
C410 C411 1.355 . S
C410 C412 1.415 . S
C411 C410 1.355 . S
C411 C413 1.419 . S
C412 C410 1.415 . S
C412 C417 1.425 . S
C412 C419 1.409 . S
C413 H405 0.930 . S
C413 C411 1.419 . S
C413 C414 1.362 . S
C414 H406 0.930 . S
C414 C413 1.362 . S
C414 C417 1.409 . S
C415 H407 0.930 . S
C415 C416 1.355 . S
C415 C417 1.415 . S
C416 C415 1.355 . S
C416 C418 1.419 . S
C417 C412 1.425 . S
C417 C414 1.409 . S
C417 C415 1.415 . S
C418 H408 0.930 . S
C418 C416 1.419 . S
C418 C419 1.362 . S
C419 H409 0.930 . S
C419 C412 1.409 . S
C419 C418 1.362 . S
H420 C426 0.930 . S
H421 C429 0.930 . S
H422 C430 0.930 . S
H423 C431 0.930 . S
H424 C434 0.930 . S
H425 C435 0.930 . S
C426 H420 0.930 . S
C426 C427 1.355 . S
C426 C428 1.415 . S
C427 C426 1.355 . S
C427 C429 1.419 . S
C428 C426 1.415 . S
C428 C433 1.425 . S
C428 C435 1.409 . S
C429 H421 0.930 . S
C429 C427 1.419 . S
C429 C430 1.362 . S
C430 H422 0.930 . S
C430 C429 1.362 . S
C430 C433 1.409 . S
C431 H423 0.930 . S
C431 C432 1.355 . S
C431 C433 1.415 . S
C432 C431 1.355 . S
C432 C434 1.419 . S
C433 C428 1.425 . S
C433 C430 1.409 . S
C433 C431 1.415 . S
C434 H424 0.930 . S
C434 C432 1.419 . S
C434 C435 1.362 . S
C435 H425 0.930 . S
C435 C428 1.409 . S
C435 C434 1.362 . S
H436 C442 0.930 . S
H437 C445 0.930 . S
H438 C446 0.930 . S
H439 C447 0.930 . S
H440 C450 0.930 . S
H441 C451 0.930 . S
C442 H436 0.930 . S
C442 C443 1.355 . S
C442 C444 1.415 . S
C443 C442 1.355 . S
C443 C445 1.419 . S
C444 C442 1.415 . S
C444 C449 1.425 . S
C444 C451 1.409 . S
C445 H437 0.930 . S
C445 C443 1.419 . S
C445 C446 1.362 . S
C446 H438 0.930 . S
C446 C445 1.362 . S
C446 C449 1.409 . S
C447 H439 0.930 . S
C447 C448 1.355 . S
C447 C449 1.415 . S
C448 C447 1.355 . S
C448 C450 1.419 . S
C449 C444 1.425 . S
C449 C446 1.409 . S
C449 C447 1.415 . S
C450 H440 0.930 . S
C450 C448 1.419 . S
C450 C451 1.362 . S
C451 H441 0.930 . S
C451 C444 1.409 . S
C451 C450 1.362 . S
H452 C458 0.930 . S
H453 C461 0.930 . S
H454 C462 0.930 . S
H455 C463 0.930 . S
H456 C466 0.930 . S
H457 C467 0.930 . S
C458 H452 0.930 . S
C458 C459 1.355 . S
C458 C460 1.415 . S
C459 C458 1.355 . S
C459 C461 1.419 . S
C460 C458 1.415 . S
C460 C465 1.425 . S
C460 C467 1.409 . S
C461 H453 0.930 . S
C461 C459 1.419 . S
C461 C462 1.362 . S
C462 H454 0.930 . S
C462 C461 1.362 . S
C462 C465 1.409 . S
C463 H455 0.930 . S
C463 C464 1.355 . S
C463 C465 1.415 . S
C464 C463 1.355 . S
C464 C466 1.419 . S
C465 C460 1.425 . S
C465 C462 1.409 . S
C465 C463 1.415 . S
C466 H456 0.930 . S
C466 C464 1.419 . S
C466 C467 1.362 . S
C467 H457 0.930 . S
C467 C460 1.409 . S
C467 C466 1.362 . S
H468 C474 0.930 . S
H469 C477 0.930 . S
H470 C478 0.930 . S
H471 C479 0.930 . S
H472 C482 0.930 1_565 S
H473 C483 0.930 1_565 S
C474 H468 0.930 . S
C474 C475 1.355 . S
C474 C476 1.415 . S
C475 C474 1.355 . S
C475 C477 1.419 . S
C476 C474 1.415 . S
C476 C481 1.425 . S
C476 C483 1.409 . S
C477 H469 0.930 . S
C477 C475 1.419 . S
C477 C478 1.362 . S
C478 H470 0.930 . S
C478 C477 1.362 . S
C478 C481 1.409 . S
C479 H471 0.930 . S
C479 C480 1.355 . S
C479 C481 1.415 . S
C480 C479 1.355 . S
C480 C482 1.419 . S
C481 C476 1.425 . S
C481 C478 1.409 . S
C481 C479 1.415 . S
C482 H472 0.930 1_545 S
C482 C480 1.419 . S
C482 C483 1.362 . S
C483 H473 0.930 1_545 S
C483 C476 1.409 . S
C483 C482 1.362 . S
H484 C490 0.930 . S
H485 C493 0.930 . S
H486 C494 0.930 . S
H487 C495 0.930 . S
H488 C498 0.930 . S
H489 C499 0.930 . S
C490 H484 0.930 . S
C490 C491 1.355 . S
C490 C492 1.415 . S
C491 C490 1.355 . S
C491 C493 1.419 . S
C492 C490 1.415 . S
C492 C497 1.425 . S
C492 C499 1.409 . S
C493 H485 0.930 . S
C493 C491 1.419 . S
C493 C494 1.362 . S
C494 H486 0.930 . S
C494 C493 1.362 . S
C494 C497 1.409 . S
C495 H487 0.930 . S
C495 C496 1.355 . S
C495 C497 1.415 . S
C496 C495 1.355 . S
C496 C498 1.419 . S
C497 C492 1.425 . S
C497 C494 1.409 . S
C497 C495 1.415 . S
C498 H488 0.930 . S
C498 C496 1.419 . S
C498 C499 1.362 . S
C499 H489 0.930 . S
C499 C492 1.409 . S
C499 C498 1.362 . S
H500 C506 0.930 . S
H501 C509 0.930 . S
H502 C510 0.930 . S
H503 C511 0.930 . S
H504 C514 0.930 . S
H505 C515 0.930 . S
C506 H500 0.930 . S
C506 C507 1.355 . S
C506 C508 1.415 . S
C507 C506 1.355 . S
C507 C509 1.419 . S
C508 C506 1.415 . S
C508 C513 1.425 . S
C508 C515 1.409 . S
C509 H501 0.930 . S
C509 C507 1.419 . S
C509 C510 1.362 . S
C510 H502 0.930 . S
C510 C509 1.362 . S
C510 C513 1.409 . S
C511 H503 0.930 . S
C511 C512 1.355 . S
C511 C513 1.415 . S
C512 C511 1.355 . S
C512 C514 1.419 . S
C513 C508 1.425 . S
C513 C510 1.409 . S
C513 C511 1.415 . S
C514 H504 0.930 . S
C514 C512 1.419 . S
C514 C515 1.362 . S
C515 H505 0.930 . S
C515 C508 1.409 . S
C515 C514 1.362 . S
C336 C224 1.642 . S
C331 C138 1.646 . S
C347 C21 1.591 . S
C352 C296 1.633 . S
C363 C60 1.611 . S
C368 C212 1.658 . S
C379 C99 1.610 . S
C384 C308 1.619 . S
C400 C214 1.375 . S
C395 C16 1.559 . S
C416 C295 1.611 . S
C411 C40 1.589 . S
C427 C79 1.624 . S
C432 C211 1.633 . S
C443 C133 1.521 . S
C448 C298 1.423 . S
C464 C310 1.377 . S
C459 C55 1.527 . S
C480 C226 1.463 . S
C475 C94 1.535 . S
C496 C307 1.611 . S
C491 C118 1.590 . S
C507 C1 1.590 . S
C512 C223 1.630 . S
