# Generated by pormake.
# Topology pth, (4,4)-cn, num edge types: 1
# Building blocks:
#     Node 0, Type 0, BuildingBlock: AZAVOO_clean_sbu_0, # of connection points: 4
#     Node 1, Type 0, BuildingBlock: AZAVOO_clean_sbu_0, # of connection points: 4
#     Node 2, Type 0, BuildingBlock: AZAVOO_clean_sbu_0, # of connection points: 4
#     Node 3, Type 1, BuildingBlock: MIFKUJ_clean_linker_1, # of connection points: 4
#     Node 4, Type 1, BuildingBlock: MIFKUJ_clean_linker_1, # of connection points: 4
#     Node 5, Type 1, BuildingBlock: MIFKUJ_clean_linker_1, # of connection points: 4
#     Edge 6, Type (0, 1), BuildingBlock: CIFDUS_clean_linker_0, # of connection points: 2
#     Edge 7, Type (0, 1), BuildingBlock: CIFDUS_clean_linker_0, # of connection points: 2
#     Edge 8, Type (0, 1), BuildingBlock: CIFDUS_clean_linker_0, # of connection points: 2
#     Edge 9, Type (0, 1), BuildingBlock: CIFDUS_clean_linker_0, # of connection points: 2
#     Edge 10, Type (0, 1), BuildingBlock: CIFDUS_clean_linker_0, # of connection points: 2
#     Edge 11, Type (0, 1), BuildingBlock: CIFDUS_clean_linker_0, # of connection points: 2
#     Edge 12, Type (0, 1), BuildingBlock: CIFDUS_clean_linker_0, # of connection points: 2
#     Edge 13, Type (0, 1), BuildingBlock: CIFDUS_clean_linker_0, # of connection points: 2
#     Edge 14, Type (0, 1), BuildingBlock: CIFDUS_clean_linker_0, # of connection points: 2
#     Edge 15, Type (0, 1), BuildingBlock: CIFDUS_clean_linker_0, # of connection points: 2
#     Edge 16, Type (0, 1), BuildingBlock: CIFDUS_clean_linker_0, # of connection points: 2
#     Edge 17, Type (0, 1), BuildingBlock: CIFDUS_clean_linker_0, # of connection points: 2
# Relax obj value: 0.066
# Max RMSD: 0.213
# Mean RMSD: 0.113
data_MOF--net-pth--node1-AZAVOO_clean_sbu_0--node2-MIFKUJ_clean_linker_1--edge1-CIFDUS_clean_linker_0
_symmetry_space_group_name_H-M    P1
_symmetry_Int_Tables_number       1
_symmetry_cell_setting            triclinic
loop_
_symmetry_equiv_pos_as_xyz
'x, y, z'
_cell_length_a     26.423
_cell_length_b     26.966826
_cell_length_c     56.354388
_cell_angle_alpha  91.08709
_cell_angle_beta   92.79094
_cell_angle_gamma 122.07416
loop_
_atom_site_label
_atom_site_type_symbol
_atom_site_fract_x
_atom_site_fract_y
_atom_site_fract_z
_atom_type_partial_charge
Mg0 Mg 0.08608 0.08037 0.041 0.0
O1 O 0.01216 0.01088 0.01469 0.0
O2 O 0.99195 0.05611 0.98654 0.0
Mg3 Mg 0.05478 0.15487 0.99427 0.0
C4 C 0.98288 0.00941 0.99573 0.0
C5 C 0.06374 0.96415 0.06038 0.0
O6 O 0.07481 0.95906 0.03829 0.0
O7 O 0.02204 0.10163 0.05725 0.0
O8 O 0.01078 0.15221 0.02877 0.0
O9 O 0.15633 0.08441 0.01893 0.0
O10 O 0.11891 0.14016 0.01446 0.0
C11 C 0.00135 0.13212 0.04953 0.0
C12 C 0.1543 0.12456 0.00746 0.0
O13 O 0.06494 0.0099 0.0673 0.0
Mg14 Mg 0.95364 0.0149 0.353 0.0
O15 O 0.02899 0.02823 0.37962 0.0
O16 O 0.0547 0.10563 0.40387 0.0
Mg17 Mg 0.99322 0.1388 0.39435 0.0
C18 C 0.06135 0.06421 0.39696 0.0
C19 C 0.92567 0.91486 0.31628 0.0
O20 O 0.87281 0.90835 0.31686 0.0
O21 O 0.01853 0.09543 0.33309 0.0
O22 O 0.03374 0.16743 0.35848 0.0
O23 O 0.88315 0.95664 0.37765 0.0
O24 O 0.92575 0.05242 0.37754 0.0
C25 C 0.04109 0.14977 0.3385 0.0
C26 C 0.8885 0.00391 0.38663 0.0
O27 O 0.96919 0.95535 0.32939 0.0
Mg28 Mg 0.97736 1e-05 0.69043 0.0
O29 O 0.05132 0.0756 0.71479 0.0
O30 O 0.008 0.09172 0.74449 0.0
Mg31 Mg 0.90689 0.02614 0.73953 0.0
C32 C 0.05455 0.10354 0.73393 0.0
C33 C 0.0918 0.0257 0.66739 0.0
O34 O 0.10229 0.01633 0.68936 0.0
O35 O 0.94786 0.05903 0.67532 0.0
O36 O 0.89934 0.06693 0.70508 0.0
O37 O 0.98284 0.93384 0.71203 0.0
O38 O 0.92425 0.96715 0.71906 0.0
C39 C 0.91594 0.07677 0.68385 0.0
C40 C 0.94486 0.93519 0.72527 0.0
O41 O 0.043 0.02255 0.66177 0.0
H42 H 0.07966 0.48009 0.14744 0.0
H43 H 0.0583 0.39122 0.12556 0.0
H44 H 0.93539 0.28523 0.1773 0.0
H45 H 0.95416 0.37428 0.19868 0.0
H46 H 0.01799 0.52189 0.15386 0.0
H47 H 0.1186 0.46448 0.2058 0.0
H48 H 0.14072 0.406 0.23221 0.0
H49 H 0.0146 0.39752 0.28034 0.0
H50 H 0.99008 0.45304 0.25354 0.0
H51 H 0.94978 0.57124 0.23822 0.0
H52 H 0.94076 0.64591 0.25913 0.0
H53 H 0.09811 0.78138 0.22738 0.0
H54 H 0.10761 0.70592 0.20676 0.0
H55 H 0.04625 0.55506 0.24154 0.0
H56 H 0.95176 0.6187 0.18038 0.0
H57 H 0.95405 0.68902 0.15269 0.0
H58 H 0.1085 0.70447 0.12232 0.0
H59 H 0.10663 0.63532 0.15007 0.0
C60 C 0.01877 0.43419 0.17481 0.0
C61 C 0.04782 0.43789 0.15409 0.0
C62 C 0.03572 0.3872 0.14161 0.0
C63 C 0.99505 0.3318 0.14978 0.0
C64 C 0.96698 0.32768 0.17077 0.0
C65 C 0.97811 0.37853 0.18303 0.0
C66 C 0.02861 0.4884 0.18695 0.0
C67 C 0.025 0.52925 0.17306 0.0
C68 C 0.0392 0.49921 0.21193 0.0
C69 C 0.05213 0.46281 0.22752 0.0
C70 C 0.0948 0.44911 0.2218 0.0
C71 C 0.10782 0.41616 0.23691 0.0
C72 C 0.07968 0.39796 0.25827 0.0
C73 C 0.03734 0.41179 0.26404 0.0
C74 C 0.0234 0.44353 0.24875 0.0
C75 C 0.02908 0.63303 0.22082 0.0
C76 C 0.98241 0.61703 0.23577 0.0
C77 C 0.97702 0.65976 0.24755 0.0
C78 C 0.01841 0.71955 0.24474 0.0
C79 C 0.06566 0.73565 0.22995 0.0
C80 C 0.07094 0.69268 0.21806 0.0
C81 C 0.03314 0.58641 0.20848 0.0
C82 C 0.03957 0.54719 0.22236 0.0
C83 C 0.02857 0.57882 0.18343 0.0
C84 C 0.02933 0.62211 0.1674 0.0
C85 C 0.98649 0.63782 0.16795 0.0
C86 C 0.98775 0.67782 0.15212 0.0
C87 C 0.03121 0.70182 0.13527 0.0
C88 C 0.07395 0.68601 0.13486 0.0
C89 C 0.07302 0.64665 0.15075 0.0
H90 H 0.62512 0.13952 0.4766 0.0
H91 H 0.69735 0.13297 0.45357 0.0
H92 H 0.67173 0.98764 0.49404 0.0
H93 H 0.59728 0.99269 0.51628 0.0
H94 H 0.512 0.07135 0.48141 0.0
H95 H 0.68686 0.15481 0.5326 0.0
H96 H 0.77333 0.1688 0.5571 0.0
H97 H 0.65425 0.02764 0.6 0.0
H98 H 0.56821 0.01149 0.57494 0.0
H99 H 0.40923 0.98288 0.56818 0.0
H100 H 0.33801 0.97648 0.59582 0.0
H101 H 0.35598 0.13381 0.56918 0.0
H102 H 0.42838 0.14062 0.54159 0.0
H103 H 0.52482 0.07286 0.56948 0.0
H104 H 0.35008 0.98701 0.50907 0.0
H105 H 0.27055 0.99296 0.48746 0.0
H106 H 0.40264 0.16512 0.46577 0.0
H107 H 0.48168 0.15888 0.48725 0.0
C108 C 0.60632 0.06713 0.49837 0.0
C109 C 0.63467 0.10595 0.48039 0.0
C110 C 0.67646 0.10251 0.46741 0.0
C111 C 0.6909 0.06021 0.47217 0.0
C112 C 0.6615 0.02055 0.48986 0.0
C113 C 0.61939 0.0238 0.50275 0.0
C114 C 0.56314 0.0719 0.51259 0.0
C115 C 0.51515 0.07196 0.50069 0.0
C116 C 0.56782 0.0743 0.53776 0.0
C117 C 0.62081 0.08167 0.55175 0.0
C118 C 0.67932 0.12597 0.54694 0.0
C119 C 0.72866 0.13432 0.561 0.0
C120 C 0.72003 0.09961 0.58045 0.0
C121 C 0.66176 0.05533 0.58521 0.0
C122 C 0.61268 0.04616 0.57091 0.0
C123 C 0.42407 0.06215 0.5528 0.0
C124 C 0.39755 0.0158 0.56812 0.0
C125 C 0.35706 0.01229 0.58396 0.0
C126 C 0.34207 0.05501 0.58479 0.0
C127 C 0.36669 0.10021 0.5688 0.0
C128 C 0.40782 0.10402 0.55301 0.0
C129 C 0.47219 0.06835 0.53827 0.0
C130 C 0.52171 0.07147 0.55018 0.0
C131 C 0.4699 0.07068 0.51326 0.0
C132 C 0.42158 0.07267 0.49982 0.0
C133 C 0.36175 0.02589 0.4996 0.0
C134 C 0.31653 0.02922 0.4872 0.0
C135 C 0.33055 0.07962 0.47507 0.0
C136 C 0.39058 0.12605 0.47517 0.0
C137 C 0.43572 0.12241 0.4873 0.0
H138 H 0.49402 0.37648 0.82041 0.0
H139 H 0.39803 0.30393 0.79916 0.0
H140 H 0.31694 0.39243 0.82872 0.0
H141 H 0.41195 0.4634 0.85007 0.0
H142 H 0.56624 0.50121 0.8204 0.0
H143 H 0.46463 0.35457 0.87493 0.0
H144 H 0.38032 0.28303 0.89666 0.0
H145 H 0.37281 0.42373 0.93077 0.0
H146 H 0.45508 0.49458 0.90821 0.0
H147 H 0.59406 0.64649 0.89405 0.0
H148 H 0.66622 0.7404 0.91503 0.0
H149 H 0.80523 0.70307 0.90911 0.0
H150 H 0.73255 0.60889 0.8878 0.0
H151 H 0.5648 0.52938 0.90763 0.0
H152 H 0.63273 0.65838 0.83817 0.0
H153 H 0.71113 0.72977 0.81426 0.0
H154 H 0.7882 0.62278 0.81232 0.0
H155 H 0.70759 0.55032 0.8355 0.0
C156 C 0.4597 0.42457 0.83711 0.0
C157 C 0.4555 0.38019 0.82214 0.0
C158 C 0.40073 0.33898 0.80998 0.0
C159 C 0.3496 0.34195 0.81251 0.0
C160 C 0.35494 0.38794 0.82684 0.0
C161 C 0.40931 0.42872 0.83898 0.0
C162 C 0.5159 0.46665 0.85134 0.0
C163 C 0.56659 0.5062 0.83957 0.0
C164 C 0.5165 0.47331 0.87634 0.0
C165 C 0.46601 0.42996 0.88984 0.0
C166 C 0.44435 0.3699 0.8869 0.0
C167 C 0.3965 0.32909 0.89948 0.0
C168 C 0.3697 0.34763 0.91539 0.0
C169 C 0.39175 0.40785 0.91836 0.0
C170 C 0.43933 0.44854 0.90571 0.0
C171 C 0.6581 0.62093 0.88945 0.0
C172 C 0.64007 0.65851 0.89731 0.0
C173 C 0.68131 0.71218 0.90914 0.0
C174 C 0.74121 0.72891 0.91363 0.0
C175 C 0.75918 0.69095 0.90596 0.0
C176 C 0.71793 0.63743 0.89377 0.0
C177 C 0.61355 0.56487 0.87653 0.0
C178 C 0.56515 0.52276 0.8886 0.0
C179 C 0.61541 0.55532 0.85198 0.0
C180 C 0.66459 0.59933 0.83845 0.0
C181 C 0.66674 0.65061 0.83263 0.0
C182 C 0.71201 0.6916 0.81916 0.0
C183 C 0.75638 0.6823 0.81142 0.0
C184 C 0.75445 0.63106 0.81771 0.0
C185 C 0.70866 0.58974 0.83101 0.0
H186 H 0.00671 0.13145 0.09803 0.0
H187 H 0.94006 0.1852 0.03881 0.0
H188 H 0.92477 0.24706 0.06574 0.0
H189 H 0.94724 0.29891 0.10478 0.0
H190 H 0.01568 0.24773 0.16397 0.0
H191 H 0.01305 0.17149 0.13847 0.0
C192 C 0.98718 0.1553 0.09107 0.0
C193 C 0.97586 0.15467 0.06634 0.0
C194 C 0.97994 0.19215 0.10661 0.0
C195 C 0.95015 0.1856 0.05771 0.0
C196 C 0.94166 0.2213 0.07308 0.0
C197 C 0.96031 0.27008 0.11211 0.0
C198 C 0.98236 0.27897 0.13596 0.0
C199 C 0.9592 0.22708 0.09734 0.0
C200 C -0.00128 0.24141 0.14555 0.0
C201 C -0.00254 0.19815 0.13097 0.0
H202 H 0.89823 0.09731 0.41014 0.0
H203 H 0.7932 0.90831 0.40521 0.0
H204 H 0.72367 0.90861 0.43237 0.0
H205 H 0.68879 0.9635 0.45478 0.0
H206 H 0.7971 0.1527 0.45972 0.0
H207 H 0.86946 0.15124 0.43509 0.0
C208 C 0.86095 0.056 0.41525 0.0
C209 C 0.85107 0.0029 0.40557 0.0
C210 C 0.82125 0.0566 0.43062 0.0
C211 C 0.80199 0.94988 0.41243 0.0
C212 C 0.76205 0.95005 0.42786 0.0
C213 C 0.72869 0.00436 0.45078 0.0
C214 C 0.73688 0.05819 0.45876 0.0
C215 C 0.77061 0.00328 0.43667 0.0
C216 C 0.78879 0.11072 0.45331 0.0
C217 C 0.83048 0.10996 0.43937 0.0
H218 H 0.91856 0.82444 0.72904 0.0
H219 H 0.92132 0.96525 0.76779 0.0
H220 H 0.86894 0.9003 0.79952 0.0
H221 H 0.81371 0.80143 0.81415 0.0
H222 H 0.80211 0.65813 0.77336 0.0
H223 H 0.86805 0.72617 0.74501 0.0
C224 C 0.90871 0.84101 0.7447 0.0
C225 C 0.92307 0.89917 0.74607 0.0
C226 C 0.87674 0.80283 0.76246 0.0
C227 C 0.90972 0.92029 0.76624 0.0
C228 C 0.87988 0.88321 0.78438 0.0
C229 C 0.82546 0.78496 0.79905 0.0
C230 C 0.80222 0.72454 0.79581 0.0
C231 C 0.86147 0.82395 0.78229 0.0
C232 C 0.81951 0.70437 0.77648 0.0
C233 C 0.85687 0.74323 0.76009 0.0
H234 H 0.05985 0.86311 0.05102 0.0
H235 H 0.04114 0.96173 0.10739 0.0
H236 H 0.02599 0.88751 0.13531 0.0
H237 H 0.02277 0.79669 0.14412 0.0
H238 H 0.04291 0.6995 0.08765 0.0
H239 H 0.05278 0.77109 0.05938 0.0
C240 C 0.05224 0.86836 0.06939 0.0
C241 C 0.052 0.9181 0.07711 0.0
C242 C 0.04399 0.82582 0.08536 0.0
C243 C 0.0418 0.92398 0.10097 0.0
C244 C 0.03313 0.88155 0.11697 0.0
C245 C 0.02853 0.7909 0.12556 0.0
C246 C 0.03248 0.74316 0.118 0.0
C247 C 0.03471 0.83257 0.10941 0.0
C248 C 0.04052 0.73637 0.09394 0.0
C249 C 0.04602 0.77717 0.07776 0.0
H250 H 0.14994 0.1417 0.42914 0.0
H251 H 0.07728 0.9719 0.39339 0.0
H252 H 0.15305 0.9609 0.41487 0.0
H253 H 0.24066 -4e-05 0.44373 0.0
H254 H 0.31412 0.17071 0.47846 0.0
H255 H 0.23725 0.18084 0.45746 0.0
C256 C 0.15047 0.10216 0.42603 0.0
C257 C 0.10778 0.05767 0.40969 0.0
C258 C 0.19437 0.09629 0.43828 0.0
C259 C 0.10962 0.00697 0.40581 0.0
C260 C 0.15288 0.00055 0.41813 0.0
C261 C 0.23942 0.03912 0.44677 0.0
C262 C 0.28285 0.08452 0.46259 0.0
C263 C 0.19547 0.04492 0.43442 0.0
C264 C 0.28138 0.13542 0.46621 0.0
C265 C 0.23739 0.14115 0.45427 0.0
H266 H 0.08072 0.15618 0.7782 0.0
H267 H 0.16305 0.15315 0.7143 0.0
H268 H 0.26162 0.22628 0.73292 0.0
H269 H 0.32454 0.29132 0.76747 0.0
H270 H 0.2412 0.29054 0.83161 0.0
H271 H 0.14304 0.21903 0.81265 0.0
C272 C 0.12009 0.17166 0.76823 0.0
C273 C 0.11428 0.1493 0.74483 0.0
C274 C 0.17661 0.21312 0.7791 0.0
C275 C 0.16607 0.16959 0.73234 0.0
C276 C 0.22253 0.2114 0.74298 0.0
C277 C 0.28495 0.27508 0.77735 0.0
C278 C 0.29033 0.29676 0.80087 0.0
C279 C 0.22838 0.23334 0.7664 0.0
C280 C 0.23839 0.27556 0.81334 0.0
C281 C 0.18217 0.23436 0.80257 0.0
H282 H 0.92467 0.08821 0.63587 0.0
H283 H 0.84523 0.11812 0.69537 0.0
H284 H 0.7815 0.13415 0.66817 0.0
H285 H 0.73786 0.12504 0.62767 0.0
H286 H 0.81565 0.09457 0.56806 0.0
H287 H 0.89086 0.09378 0.59509 0.0
C288 C 0.89443 0.09953 0.64295 0.0
C289 C 0.88893 0.10059 0.66767 0.0
C290 C 0.85695 0.10772 0.62716 0.0
C291 C 0.84991 0.11607 0.67644 0.0
C292 C 0.81313 0.12502 0.66089 0.0
C293 C 0.77201 0.11921 0.62067 0.0
C294 C 0.77111 0.10903 0.59611 0.0
C295 C 0.81454 0.11849 0.63627 0.0
C296 C 0.81572 0.10229 0.587 0.0
C297 C 0.8584 0.1016 0.60244 0.0
H298 H 0.90582 0.98769 0.95738 0.0
H299 H 0.96173 0.90148 0.00623 0.0
H300 H 0.89337 0.80758 0.98475 0.0
H301 H 0.81782 0.74966 0.95187 0.0
H302 H 0.7606 0.83573 0.90376 0.0
H303 H 0.82951 0.92995 0.92513 0.0
C304 C 0.90306 0.94842 0.96341 0.0
C305 C 0.93911 0.9519 0.98339 0.0
C306 C 0.86355 0.89447 0.95103 0.0
C307 C 0.93455 0.90029 0.99094 0.0
C308 C 0.89556 0.84649 0.97862 0.0
C309 C 0.82092 0.78921 0.94602 0.0
C310 C 0.78448 0.78597 0.92627 0.0
C311 C 0.86006 0.84309 0.95857 0.0
C312 C 0.7881 0.83725 0.91901 0.0
C313 C 0.82748 0.89106 0.93119 0.0
H314 H 0.02998 0.92112 0.30852 0.0
H315 H 0.83991 0.8189 0.28925 0.0
H316 H 0.85242 0.75121 0.26469 0.0
H317 H 0.91659 0.71941 0.24949 0.0
H318 H 0.10639 0.82047 0.26886 0.0
H319 H 0.09484 0.89084 0.29221 0.0
C320 C 0.99128 0.8841 0.29892 0.0
C321 C 0.93403 0.87497 0.30087 0.0
C322 C -0.00125 0.84526 0.28476 0.0
C323 C 0.88448 0.82697 0.28816 0.0
C324 C 0.89155 0.78817 0.27409 0.0
C325 C 0.95542 0.75676 0.25888 0.0
C326 C 0.01219 0.76447 0.25757 0.0
C327 C 0.94835 0.79662 0.27242 0.0
C328 C 0.06225 0.81374 0.26944 0.0
C329 C 0.05561 0.85375 0.28293 0.0
H330 H 0.19503 0.02745 0.6735 0.0
H331 H 0.08561 0.04935 0.62061 0.0
H332 H 0.1551 0.06348 0.59051 0.0
H333 H 0.245 0.06523 0.57884 0.0
H334 H 0.3521 0.04099 0.63195 0.0
H335 H 0.28549 0.0322 0.66232 0.0
C336 C 0.18641 0.03558 0.65542 0.0
C337 C 0.13505 0.03704 0.64932 0.0
C338 C 0.22607 0.04302 0.6382 0.0
C339 C 0.12472 0.04775 0.62579 0.0
C340 C 0.16442 0.05583 0.60855 0.0
C341 C 0.25389 0.0586 0.59712 0.0
C342 C 0.30298 0.05326 0.60314 0.0
C343 C 0.21496 0.05296 0.61449 0.0
C344 C 0.31401 0.04436 0.62685 0.0
C345 C 0.2761 0.03952 0.64423 0.0
H346 H 0.15495 0.20593 0.97978 0.0
H347 H 0.24226 0.11038 0.99142 0.0
H348 H 0.31487 0.16877 0.96262 0.0
H349 H 0.3584 0.25278 0.93693 0.0
H350 H 0.26886 0.3463 0.92514 0.0
H351 H 0.19205 0.28262 0.95137 0.0
C352 C 0.18907 0.19697 0.97578 0.0
C353 C 0.19321 0.15396 0.98784 0.0
C354 C 0.23071 0.23084 0.9594 0.0
C355 C 0.23807 0.14328 0.98241 0.0
C356 C 0.27975 0.17681 0.96602 0.0
C357 C 0.32147 0.25852 0.93973 0.0
C358 C 0.31992 0.30485 0.92935 0.0
C359 C 0.27722 0.22156 0.95479 0.0
C360 C 0.27193 0.3119 0.93333 0.0
C361 C 0.22778 0.2753 0.94822 0.0
H362 H 0.10029 0.26782 0.34477 0.0
H363 H 0.03856 0.1293 0.29032 0.0
H364 H 0.05476 0.19825 0.25964 0.0
H365 H 0.06833 0.29318 0.24913 0.0
H366 H 0.12075 0.42751 0.30443 0.0
H367 H 0.1263 0.36508 0.33396 0.0
C368 C 0.09148 0.25278 0.32617 0.0
C369 C 0.0669 0.19314 0.31993 0.0
C370 C 0.09822 0.29186 0.30879 0.0
C371 C 0.057 0.17484 0.29569 0.0
C372 C 0.06571 0.21416 0.27813 0.0
C373 C 0.08236 0.30901 0.26757 0.0
C374 C 0.09354 0.36432 0.2748 0.0
C375 C 0.08345 0.27203 0.28457 0.0
C376 C 0.11141 0.3847 0.29866 0.0
C377 C 0.11453 0.34907 0.31549 0.0
loop_
_geom_bond_atom_site_label_1
_geom_bond_atom_site_label_2
_geom_bond_distance
_geom_bond_site_symmetry_2
_ccdc_geom_bond_type
Mg0 O1 2.035 . S
Mg0 O7 1.986 . S
Mg0 O9 2.114 . S
Mg0 O10 2.251 . S
Mg0 O13 2.010 . S
O1 Mg0 2.035 . S
O1 C4 1.256 1_455 S
O2 Mg3 2.028 1_656 S
O2 C4 1.251 1_556 S
Mg3 O2 2.028 1_454 S
Mg3 O8 2.032 . S
Mg3 O10 2.079 . S
C4 O1 1.256 1_655 S
C4 O2 1.251 1_554 S
C5 O6 1.264 . S
C5 O13 1.249 1_565 S
O6 C5 1.264 . S
O7 Mg0 1.986 . S
O7 C11 1.246 . S
O8 Mg3 2.032 . S
O8 C11 1.259 . S
O9 Mg0 2.114 . S
O9 C12 1.252 . S
O10 Mg0 2.251 . S
O10 Mg3 2.079 . S
O10 C12 1.273 . S
C11 O7 1.246 . S
C11 O8 1.259 . S
C12 O9 1.252 . S
C12 O10 1.273 . S
O13 Mg0 2.010 . S
O13 C5 1.249 1_545 S
Mg14 O15 2.028 1_655 S
Mg14 O21 1.986 1_655 S
Mg14 O23 2.114 1_545 S
Mg14 O24 2.251 . S
Mg14 O27 2.010 1_545 S
O15 Mg14 2.028 1_455 S
O15 C18 1.250 . S
O16 Mg17 2.028 . S
O16 C18 1.248 . S
Mg17 O16 2.028 . S
Mg17 O22 2.032 . S
Mg17 O24 2.079 1_455 S
C18 O15 1.250 . S
C18 O16 1.248 . S
C19 O20 1.264 . S
C19 O27 1.249 . S
O20 C19 1.264 . S
O21 Mg14 1.986 1_455 S
O21 C25 1.246 . S
O22 Mg17 2.032 . S
O22 C25 1.259 . S
O23 Mg14 2.114 1_565 S
O23 C26 1.252 1_565 S
O24 Mg14 2.251 . S
O24 Mg17 2.079 1_655 S
O24 C26 1.273 . S
C25 O21 1.246 . S
C25 O22 1.259 . S
C26 O23 1.252 1_545 S
C26 O24 1.273 . S
O27 Mg14 2.010 1_565 S
O27 C19 1.249 . S
Mg28 O29 2.028 . S
Mg28 O35 1.986 1_455 S
Mg28 O37 2.114 1_545 S
Mg28 O38 2.251 1_445 S
Mg28 O41 2.010 1_545 S
O29 Mg28 2.028 . S
O29 C32 1.250 . S
O30 Mg31 2.028 1_455 S
O30 C32 1.248 . S
Mg31 O30 2.028 1_655 S
Mg31 O36 2.032 . S
Mg31 O38 2.079 1_545 S
C32 O29 1.250 . S
C32 O30 1.248 . S
C33 O34 1.264 . S
C33 O41 1.249 . S
O34 C33 1.264 . S
O35 Mg28 1.986 1_655 S
O35 C39 1.246 . S
O36 Mg31 2.032 . S
O36 C39 1.259 . S
O37 Mg28 2.114 1_565 S
O37 C40 1.252 1_455 S
O38 Mg28 2.251 1_665 S
O38 Mg31 2.079 1_565 S
O38 C40 1.273 . S
C39 O35 1.246 . S
C39 O36 1.259 . S
C40 O37 1.252 1_655 S
C40 O38 1.273 . S
O41 Mg28 2.010 1_565 S
O41 C33 1.249 . S
H42 C61 0.949 . S
H43 C62 0.950 . S
H44 C64 0.950 . S
H45 C65 0.950 . S
H46 C67 0.950 . S
H47 C70 0.950 . S
H48 C71 0.950 . S
H49 C73 0.951 . S
H50 C74 0.949 . S
H51 C76 0.949 . S
H52 C77 0.950 . S
H53 C79 0.950 . S
H54 C80 0.950 . S
H55 C82 0.950 . S
H56 C85 0.954 . S
H57 C86 0.950 1_655 S
H58 C88 0.951 . S
H59 C89 0.949 . S
C60 C61 1.376 . S
C60 C65 1.386 1_455 S
C60 C66 1.483 . S
C61 H42 0.949 . S
C61 C60 1.376 . S
C61 C62 1.397 . S
C62 H43 0.950 . S
C62 C61 1.397 . S
C62 C63 1.391 . S
C63 C62 1.391 . S
C63 C64 1.405 1_455 S
C64 H44 0.950 . S
C64 C63 1.405 1_655 S
C64 C65 1.367 . S
C65 H45 0.950 . S
C65 C60 1.386 1_655 S
C65 C64 1.367 . S
C66 C60 1.483 . S
C66 C67 1.382 . S
C66 C68 1.403 . S
C67 H46 0.950 . S
C67 C66 1.382 . S
C67 C83 1.411 . S
C68 C66 1.403 . S
C68 C69 1.489 . S
C68 C82 1.411 . S
C69 C68 1.489 . S
C69 C70 1.383 . S
C69 C74 1.382 1_455 S
C70 H47 0.950 . S
C70 C69 1.383 . S
C70 C71 1.395 . S
C71 H48 0.950 . S
C71 C70 1.395 . S
C71 C72 1.288 . S
C72 C71 1.288 . S
C72 C73 1.392 1_455 S
C73 H49 0.951 . S
C73 C72 1.392 1_655 S
C73 C74 1.392 . S
C74 H50 0.949 . S
C74 C69 1.382 1_655 S
C74 C73 1.392 . S
C75 C76 1.376 1_455 S
C75 C80 1.386 . S
C75 C81 1.483 . S
C76 H51 0.949 . S
C76 C75 1.376 1_655 S
C76 C77 1.397 . S
C77 H52 0.950 . S
C77 C76 1.397 . S
C77 C78 1.391 1_655 S
C78 C77 1.391 1_455 S
C78 C79 1.405 . S
C79 H53 0.950 . S
C79 C78 1.405 . S
C79 C80 1.367 . S
C80 H54 0.950 . S
C80 C75 1.386 . S
C80 C79 1.367 . S
C81 C75 1.483 . S
C81 C82 1.382 . S
C81 C83 1.403 . S
C82 H55 0.950 . S
C82 C68 1.411 . S
C82 C81 1.382 . S
C83 C67 1.411 . S
C83 C81 1.403 . S
C83 C84 1.489 . S
C84 C83 1.489 . S
C84 C85 1.375 1_455 S
C84 C89 1.382 . S
C85 H56 0.954 . S
C85 C84 1.375 1_655 S
C85 C86 1.398 1_655 S
C86 H57 0.950 1_455 S
C86 C85 1.398 1_455 S
C86 C87 1.288 . S
C87 C86 1.288 . S
C87 C88 1.392 . S
C88 H58 0.951 . S
C88 C87 1.392 . S
C88 C89 1.392 . S
C89 H59 0.949 . S
C89 C84 1.382 . S
C89 C88 1.392 . S
H90 C109 0.949 . S
H91 C110 0.950 . S
H92 C112 0.950 1_565 S
H93 C113 0.950 1_565 S
H94 C115 0.950 . S
H95 C118 0.950 . S
H96 C119 0.950 . S
H97 C121 0.951 1_565 S
H98 C122 0.949 1_565 S
H99 C124 0.949 1_565 S
H100 C125 0.950 1_565 S
H101 C127 0.950 . S
H102 C128 0.950 . S
H103 C130 0.950 . S
H104 C133 0.947 1_565 S
H105 C134 0.950 . S
H106 C136 0.951 . S
H107 C137 0.949 . S
C108 C109 1.376 . S
C108 C113 1.386 . S
C108 C114 1.483 . S
C109 H90 0.949 . S
C109 C108 1.376 . S
C109 C110 1.397 . S
C110 H91 0.950 . S
C110 C109 1.397 . S
C110 C111 1.391 . S
C111 C110 1.391 . S
C111 C112 1.405 . S
C112 H92 0.950 1_545 S
C112 C111 1.405 . S
C112 C113 1.367 . S
C113 H93 0.950 1_545 S
C113 C108 1.386 . S
C113 C112 1.367 . S
C114 C108 1.483 . S
C114 C115 1.382 . S
C114 C116 1.403 . S
C115 H94 0.950 . S
C115 C114 1.382 . S
C115 C131 1.411 . S
C116 C114 1.403 . S
C116 C117 1.489 . S
C116 C130 1.411 . S
C117 C116 1.489 . S
C117 C118 1.383 . S
C117 C122 1.382 . S
C118 H95 0.950 . S
C118 C117 1.383 . S
C118 C119 1.395 . S
C119 H96 0.950 . S
C119 C118 1.395 . S
C119 C120 1.288 . S
C120 C119 1.288 . S
C120 C121 1.392 . S
C121 H97 0.951 1_545 S
C121 C120 1.392 . S
C121 C122 1.392 . S
C122 H98 0.949 1_545 S
C122 C117 1.382 . S
C122 C121 1.392 . S
C123 C124 1.376 . S
C123 C128 1.386 . S
C123 C129 1.483 . S
C124 H99 0.949 1_545 S
C124 C123 1.376 . S
C124 C125 1.397 . S
C125 H100 0.950 1_545 S
C125 C124 1.397 . S
C125 C126 1.391 . S
C126 C125 1.391 . S
C126 C127 1.405 . S
C127 H101 0.950 . S
C127 C126 1.405 . S
C127 C128 1.367 . S
C128 H102 0.950 . S
C128 C123 1.386 . S
C128 C127 1.367 . S
C129 C123 1.483 . S
C129 C130 1.382 . S
C129 C131 1.403 . S
C130 H103 0.950 . S
C130 C116 1.411 . S
C130 C129 1.382 . S
C131 C115 1.411 . S
C131 C129 1.403 . S
C131 C132 1.489 . S
C132 C131 1.489 . S
C132 C133 1.383 . S
C132 C137 1.382 . S
C133 H104 0.947 1_545 S
C133 C132 1.383 . S
C133 C134 1.395 . S
C134 H105 0.950 . S
C134 C133 1.395 . S
C134 C135 1.288 . S
C135 C134 1.288 . S
C135 C136 1.392 . S
C136 H106 0.951 . S
C136 C135 1.392 . S
C136 C137 1.392 . S
C137 H107 0.949 . S
C137 C132 1.382 . S
C137 C136 1.392 . S
H138 C157 0.949 . S
H139 C158 0.950 . S
H140 C160 0.950 . S
H141 C161 0.950 . S
H142 C163 0.950 . S
H143 C166 0.950 . S
H144 C167 0.950 . S
H145 C169 0.951 . S
H146 C170 0.949 . S
H147 C172 0.949 . S
H148 C173 0.950 . S
H149 C175 0.950 . S
H150 C176 0.950 . S
H151 C178 0.950 . S
H152 C181 0.950 . S
H153 C182 0.950 . S
H154 C184 0.951 . S
H155 C185 0.949 . S
C156 C157 1.376 . S
C156 C161 1.386 . S
C156 C162 1.483 . S
C157 H138 0.949 . S
C157 C156 1.376 . S
C157 C158 1.397 . S
C158 H139 0.950 . S
C158 C157 1.397 . S
C158 C159 1.391 . S
C159 C158 1.391 . S
C159 C160 1.405 . S
C160 H140 0.950 . S
C160 C159 1.405 . S
C160 C161 1.367 . S
C161 H141 0.950 . S
C161 C156 1.386 . S
C161 C160 1.367 . S
C162 C156 1.483 . S
C162 C163 1.382 . S
C162 C164 1.403 . S
C163 H142 0.950 . S
C163 C162 1.382 . S
C163 C179 1.411 . S
C164 C162 1.403 . S
C164 C165 1.489 . S
C164 C178 1.411 . S
C165 C164 1.489 . S
C165 C166 1.383 . S
C165 C170 1.382 . S
C166 H143 0.950 . S
C166 C165 1.383 . S
C166 C167 1.395 . S
C167 H144 0.950 . S
C167 C166 1.395 . S
C167 C168 1.288 . S
C168 C167 1.288 . S
C168 C169 1.392 . S
C169 H145 0.951 . S
C169 C168 1.392 . S
C169 C170 1.392 . S
C170 H146 0.949 . S
C170 C165 1.382 . S
C170 C169 1.392 . S
C171 C172 1.376 . S
C171 C176 1.386 . S
C171 C177 1.483 . S
C172 H147 0.949 . S
C172 C171 1.376 . S
C172 C173 1.397 . S
C173 H148 0.950 . S
C173 C172 1.397 . S
C173 C174 1.391 . S
C174 C173 1.391 . S
C174 C175 1.405 . S
C175 H149 0.950 . S
C175 C174 1.405 . S
C175 C176 1.367 . S
C176 H150 0.950 . S
C176 C171 1.386 . S
C176 C175 1.367 . S
C177 C171 1.483 . S
C177 C178 1.382 . S
C177 C179 1.403 . S
C178 H151 0.950 . S
C178 C164 1.411 . S
C178 C177 1.382 . S
C179 C163 1.411 . S
C179 C177 1.403 . S
C179 C180 1.489 . S
C180 C179 1.489 . S
C180 C181 1.383 . S
C180 C185 1.382 . S
C181 H152 0.950 . S
C181 C180 1.383 . S
C181 C182 1.395 . S
C182 H153 0.950 . S
C182 C181 1.395 . S
C182 C183 1.288 . S
C183 C182 1.288 . S
C183 C184 1.392 . S
C184 H154 0.951 . S
C184 C183 1.392 . S
C184 C185 1.392 . S
C185 H155 0.949 . S
C185 C180 1.382 . S
C185 C184 1.392 . S
H186 C192 0.930 . S
H187 C195 0.930 . S
H188 C196 0.930 . S
H189 C197 0.930 . S
H190 C200 0.930 . S
H191 C201 0.930 . S
C192 H186 0.930 . S
C192 C193 1.355 1_655 S
C192 C194 1.415 1_655 S
C193 C192 1.355 1_455 S
C193 C195 1.419 . S
C194 C192 1.415 1_455 S
C194 C199 1.425 . S
C194 C201 1.409 1_455 S
C195 H187 0.930 . S
C195 C193 1.419 . S
C195 C196 1.362 . S
C196 H188 0.930 . S
C196 C195 1.362 . S
C196 C199 1.409 . S
C197 H189 0.930 . S
C197 C198 1.355 . S
C197 C199 1.415 . S
C198 C197 1.355 . S
C198 C200 1.419 1_455 S
C199 C194 1.425 . S
C199 C196 1.409 . S
C199 C197 1.415 . S
C200 H190 0.930 . S
C200 C198 1.419 1_655 S
C200 C201 1.362 . S
C201 H191 0.930 . S
C201 C194 1.409 1_655 S
C201 C200 1.362 . S
H202 C208 0.930 . S
H203 C211 0.930 . S
H204 C212 0.930 . S
H205 C213 0.930 . S
H206 C216 0.930 . S
H207 C217 0.930 . S
C208 H202 0.930 . S
C208 C209 1.355 . S
C208 C210 1.415 . S
C209 C208 1.355 . S
C209 C211 1.419 . S
C210 C208 1.415 . S
C210 C215 1.425 . S
C210 C217 1.409 . S
C211 H203 0.930 . S
C211 C209 1.419 . S
C211 C212 1.362 . S
C212 H204 0.930 . S
C212 C211 1.362 . S
C212 C215 1.409 . S
C213 H205 0.930 . S
C213 C214 1.355 . S
C213 C215 1.415 . S
C214 C213 1.355 . S
C214 C216 1.419 . S
C215 C210 1.425 . S
C215 C212 1.409 . S
C215 C213 1.415 . S
C216 H206 0.930 . S
C216 C214 1.419 . S
C216 C217 1.362 . S
C217 H207 0.930 . S
C217 C210 1.409 . S
C217 C216 1.362 . S
H218 C224 0.930 . S
H219 C227 0.930 . S
H220 C228 0.930 . S
H221 C229 0.930 . S
H222 C232 0.930 . S
H223 C233 0.930 . S
C224 H218 0.930 . S
C224 C225 1.355 . S
C224 C226 1.415 . S
C225 C224 1.355 . S
C225 C227 1.419 . S
C226 C224 1.415 . S
C226 C231 1.425 . S
C226 C233 1.409 . S
C227 H219 0.930 . S
C227 C225 1.419 . S
C227 C228 1.362 . S
C228 H220 0.930 . S
C228 C227 1.362 . S
C228 C231 1.409 . S
C229 H221 0.930 . S
C229 C230 1.355 . S
C229 C231 1.415 . S
C230 C229 1.355 . S
C230 C232 1.419 . S
C231 C226 1.425 . S
C231 C228 1.409 . S
C231 C229 1.415 . S
C232 H222 0.930 . S
C232 C230 1.419 . S
C232 C233 1.362 . S
C233 H223 0.930 . S
C233 C226 1.409 . S
C233 C232 1.362 . S
H234 C240 0.930 . S
H235 C243 0.930 . S
H236 C244 0.930 1_655 S
H237 C245 0.930 1_655 S
H238 C248 0.930 . S
H239 C249 0.930 . S
C240 H234 0.930 . S
C240 C241 1.355 . S
C240 C242 1.415 . S
C241 C240 1.355 . S
C241 C243 1.419 . S
C242 C240 1.415 . S
C242 C247 1.425 . S
C242 C249 1.409 . S
C243 H235 0.930 . S
C243 C241 1.419 . S
C243 C244 1.362 . S
C244 H236 0.930 1_455 S
C244 C243 1.362 . S
C244 C247 1.409 . S
C245 H237 0.930 1_455 S
C245 C246 1.355 . S
C245 C247 1.415 . S
C246 C245 1.355 . S
C246 C248 1.419 . S
C247 C242 1.425 . S
C247 C244 1.409 . S
C247 C245 1.415 . S
C248 H238 0.930 . S
C248 C246 1.419 . S
C248 C249 1.362 . S
C249 H239 0.930 . S
C249 C242 1.409 . S
C249 C248 1.362 . S
H250 C256 0.930 . S
H251 C259 0.930 1_565 S
H252 C260 0.930 . S
H253 C261 0.930 1_565 S
H254 C264 0.930 . S
H255 C265 0.930 . S
C256 H250 0.930 . S
C256 C257 1.355 . S
C256 C258 1.415 . S
C257 C256 1.355 . S
C257 C259 1.419 . S
C258 C256 1.415 . S
C258 C263 1.425 . S
C258 C265 1.409 . S
C259 H251 0.930 1_545 S
C259 C257 1.419 . S
C259 C260 1.362 1_545 S
C260 H252 0.930 . S
C260 C259 1.362 1_565 S
C260 C263 1.409 1_565 S
C261 H253 0.930 1_545 S
C261 C262 1.355 . S
C261 C263 1.415 . S
C262 C261 1.355 . S
C262 C264 1.419 . S
C263 C258 1.425 . S
C263 C260 1.409 1_545 S
C263 C261 1.415 . S
C264 H254 0.930 . S
C264 C262 1.419 . S
C264 C265 1.362 . S
C265 H255 0.930 . S
C265 C258 1.409 . S
C265 C264 1.362 . S
H266 C272 0.930 . S
H267 C275 0.930 . S
H268 C276 0.930 . S
H269 C277 0.930 . S
H270 C280 0.930 . S
H271 C281 0.930 . S
C272 H266 0.930 . S
C272 C273 1.355 . S
C272 C274 1.415 . S
C273 C272 1.355 . S
C273 C275 1.419 . S
C274 C272 1.415 . S
C274 C279 1.425 . S
C274 C281 1.409 . S
C275 H267 0.930 . S
C275 C273 1.419 . S
C275 C276 1.362 . S
C276 H268 0.930 . S
C276 C275 1.362 . S
C276 C279 1.409 . S
C277 H269 0.930 . S
C277 C278 1.355 . S
C277 C279 1.415 . S
C278 C277 1.355 . S
C278 C280 1.419 . S
C279 C274 1.425 . S
C279 C276 1.409 . S
C279 C277 1.415 . S
C280 H270 0.930 . S
C280 C278 1.419 . S
C280 C281 1.362 . S
C281 H271 0.930 . S
C281 C274 1.409 . S
C281 C280 1.362 . S
H282 C288 0.930 . S
H283 C291 0.930 . S
H284 C292 0.930 . S
H285 C293 0.930 . S
H286 C296 0.930 . S
H287 C297 0.930 . S
C288 H282 0.930 . S
C288 C289 1.355 . S
C288 C290 1.415 . S
C289 C288 1.355 . S
C289 C291 1.419 . S
C290 C288 1.415 . S
C290 C295 1.425 . S
C290 C297 1.409 . S
C291 H283 0.930 . S
C291 C289 1.419 . S
C291 C292 1.362 . S
C292 H284 0.930 . S
C292 C291 1.362 . S
C292 C295 1.409 . S
C293 H285 0.930 . S
C293 C294 1.355 . S
C293 C295 1.415 . S
C294 C293 1.355 . S
C294 C296 1.419 . S
C295 C290 1.425 . S
C295 C292 1.409 . S
C295 C293 1.415 . S
C296 H286 0.930 . S
C296 C294 1.419 . S
C296 C297 1.362 . S
C297 H287 0.930 . S
C297 C290 1.409 . S
C297 C296 1.362 . S
H298 C304 0.930 . S
H299 C307 0.930 . S
H300 C308 0.930 1_554 S
H301 C309 0.930 . S
H302 C312 0.930 . S
H303 C313 0.930 . S
C304 H298 0.930 . S
C304 C305 1.355 . S
C304 C306 1.415 . S
C305 C304 1.355 . S
C305 C307 1.419 1_556 S
C306 C304 1.415 . S
C306 C311 1.425 . S
C306 C313 1.409 . S
C307 H299 0.930 . S
C307 C305 1.419 1_554 S
C307 C308 1.362 1_554 S
C308 H300 0.930 1_556 S
C308 C307 1.362 1_556 S
C308 C311 1.409 . S
C309 H301 0.930 . S
C309 C310 1.355 . S
C309 C311 1.415 . S
C310 C309 1.355 . S
C310 C312 1.419 . S
C311 C306 1.425 . S
C311 C308 1.409 . S
C311 C309 1.415 . S
C312 H302 0.930 . S
C312 C310 1.419 . S
C312 C313 1.362 . S
C313 H303 0.930 . S
C313 C306 1.409 . S
C313 C312 1.362 . S
H314 C320 0.930 . S
H315 C323 0.930 . S
H316 C324 0.930 . S
H317 C325 0.930 . S
H318 C328 0.930 . S
H319 C329 0.930 . S
C320 H314 0.930 . S
C320 C321 1.355 1_455 S
C320 C322 1.415 . S
C321 C320 1.355 1_655 S
C321 C323 1.419 . S
C322 C320 1.415 . S
C322 C327 1.425 1_455 S
C322 C329 1.409 . S
C323 H315 0.930 . S
C323 C321 1.419 . S
C323 C324 1.362 . S
C324 H316 0.930 . S
C324 C323 1.362 . S
C324 C327 1.409 . S
C325 H317 0.930 . S
C325 C326 1.355 1_655 S
C325 C327 1.415 . S
C326 C325 1.355 1_455 S
C326 C328 1.419 . S
C327 C322 1.425 1_655 S
C327 C324 1.409 . S
C327 C325 1.415 . S
C328 H318 0.930 . S
C328 C326 1.419 . S
C328 C329 1.362 . S
C329 H319 0.930 . S
C329 C322 1.409 . S
C329 C328 1.362 . S
H330 C336 0.930 . S
H331 C339 0.930 . S
H332 C340 0.930 . S
H333 C341 0.930 . S
H334 C344 0.930 . S
H335 C345 0.930 . S
C336 H330 0.930 . S
C336 C337 1.355 . S
C336 C338 1.415 . S
C337 C336 1.355 . S
C337 C339 1.419 . S
C338 C336 1.415 . S
C338 C343 1.425 . S
C338 C345 1.409 . S
C339 H331 0.930 . S
C339 C337 1.419 . S
C339 C340 1.362 . S
C340 H332 0.930 . S
C340 C339 1.362 . S
C340 C343 1.409 . S
C341 H333 0.930 . S
C341 C342 1.355 . S
C341 C343 1.415 . S
C342 C341 1.355 . S
C342 C344 1.419 . S
C343 C338 1.425 . S
C343 C340 1.409 . S
C343 C341 1.415 . S
C344 H334 0.930 . S
C344 C342 1.419 . S
C344 C345 1.362 . S
C345 H335 0.930 . S
C345 C338 1.409 . S
C345 C344 1.362 . S
H346 C352 0.930 . S
H347 C355 0.930 . S
H348 C356 0.930 1_554 S
H349 C357 0.930 . S
H350 C360 0.930 . S
H351 C361 0.930 . S
C352 H346 0.930 . S
C352 C353 1.355 . S
C352 C354 1.415 . S
C353 C352 1.355 . S
C353 C355 1.419 1_556 S
C354 C352 1.415 . S
C354 C359 1.425 . S
C354 C361 1.409 . S
C355 H347 0.930 . S
C355 C353 1.419 1_554 S
C355 C356 1.362 1_554 S
C356 H348 0.930 1_556 S
C356 C355 1.362 1_556 S
C356 C359 1.409 . S
C357 H349 0.930 . S
C357 C358 1.355 . S
C357 C359 1.415 . S
C358 C357 1.355 . S
C358 C360 1.419 . S
C359 C354 1.425 . S
C359 C356 1.409 . S
C359 C357 1.415 . S
C360 H350 0.930 . S
C360 C358 1.419 . S
C360 C361 1.362 . S
C361 H351 0.930 . S
C361 C354 1.409 . S
C361 C360 1.362 . S
H362 C368 0.930 . S
H363 C371 0.930 . S
H364 C372 0.930 . S
H365 C373 0.930 . S
H366 C376 0.930 . S
H367 C377 0.930 . S
C368 H362 0.930 . S
C368 C369 1.355 . S
C368 C370 1.415 . S
C369 C368 1.355 . S
C369 C371 1.419 1_455 S
C370 C368 1.415 . S
C370 C375 1.425 . S
C370 C377 1.409 . S
C371 H363 0.930 . S
C371 C369 1.419 1_655 S
C371 C372 1.362 . S
C372 H364 0.930 . S
C372 C371 1.362 . S
C372 C375 1.409 1_655 S
C373 H365 0.930 . S
C373 C374 1.355 1_655 S
C373 C375 1.415 1_655 S
C374 C373 1.355 1_455 S
C374 C376 1.419 . S
C375 C370 1.425 . S
C375 C372 1.409 1_455 S
C375 C373 1.415 1_455 S
C376 H366 0.930 . S
C376 C374 1.419 . S
C376 C377 1.362 . S
C377 H367 0.930 . S
C377 C370 1.409 . S
C377 C376 1.362 . S
C198 C63 1.408 . S
C193 C11 1.359 . S
C209 C26 1.548 . S
C214 C111 1.568 . S
C225 C40 1.424 . S
C230 C183 1.415 . S
C241 C5 1.287 . S
C246 C87 1.378 . S
C262 C135 1.530 . S
C257 C18 1.545 . S
C273 C32 1.434 . S
C278 C159 1.430 . S
C294 C120 1.304 . S
C289 C39 1.260 . S
C305 C4 1.443 1_566 S
C310 C174 1.435 . S
C326 C78 1.423 . S
C321 C19 1.222 . S
C342 C126 1.330 . S
C337 C33 1.175 1_545 S
C358 C168 1.466 . S
C353 C12 1.454 1_556 S
C369 C25 1.373 . S
C374 C72 1.425 . S
