# Generated by pormake.
# Topology pyr, (3,6)-cn, num edge types: 1
# Building blocks:
#     Node 0, Type 0, BuildingBlock: KAKCAD_clean_linker_0, # of connection points: 3
#     Node 1, Type 0, BuildingBlock: KAKCAD_clean_linker_0, # of connection points: 3
#     Node 2, Type 0, BuildingBlock: KAKCAD_clean_linker_0, # of connection points: 3
#     Node 3, Type 0, BuildingBlock: KAKCAD_clean_linker_0, # of connection points: 3
#     Node 4, Type 0, BuildingBlock: KAKCAD_clean_linker_0, # of connection points: 3
#     Node 5, Type 0, BuildingBlock: KAKCAD_clean_linker_0, # of connection points: 3
#     Node 6, Type 0, BuildingBlock: KAKCAD_clean_linker_0, # of connection points: 3
#     Node 7, Type 0, BuildingBlock: KAKCAD_clean_linker_0, # of connection points: 3
#     Node 8, Type 1, BuildingBlock: FUNLAD_clean_sbu_0, # of connection points: 6
#     Node 9, Type 1, BuildingBlock: FUNLAD_clean_sbu_0, # of connection points: 6
#     Node 10, Type 1, BuildingBlock: FUNLAD_clean_sbu_0, # of connection points: 6
#     Node 11, Type 1, BuildingBlock: FUNLAD_clean_sbu_0, # of connection points: 6
#     Edge 12, Type (0, 1), BuildingBlock: UVAHIK_clean_linker_0, # of connection points: 2
#     Edge 13, Type (0, 1), BuildingBlock: UVAHIK_clean_linker_0, # of connection points: 2
#     Edge 14, Type (0, 1), BuildingBlock: UVAHIK_clean_linker_0, # of connection points: 2
#     Edge 15, Type (0, 1), BuildingBlock: UVAHIK_clean_linker_0, # of connection points: 2
#     Edge 16, Type (0, 1), BuildingBlock: UVAHIK_clean_linker_0, # of connection points: 2
#     Edge 17, Type (0, 1), BuildingBlock: UVAHIK_clean_linker_0, # of connection points: 2
#     Edge 18, Type (0, 1), BuildingBlock: UVAHIK_clean_linker_0, # of connection points: 2
#     Edge 19, Type (0, 1), BuildingBlock: UVAHIK_clean_linker_0, # of connection points: 2
#     Edge 20, Type (0, 1), BuildingBlock: UVAHIK_clean_linker_0, # of connection points: 2
#     Edge 21, Type (0, 1), BuildingBlock: UVAHIK_clean_linker_0, # of connection points: 2
#     Edge 22, Type (0, 1), BuildingBlock: UVAHIK_clean_linker_0, # of connection points: 2
#     Edge 23, Type (0, 1), BuildingBlock: UVAHIK_clean_linker_0, # of connection points: 2
#     Edge 24, Type (0, 1), BuildingBlock: UVAHIK_clean_linker_0, # of connection points: 2
#     Edge 25, Type (0, 1), BuildingBlock: UVAHIK_clean_linker_0, # of connection points: 2
#     Edge 26, Type (0, 1), BuildingBlock: UVAHIK_clean_linker_0, # of connection points: 2
#     Edge 27, Type (0, 1), BuildingBlock: UVAHIK_clean_linker_0, # of connection points: 2
#     Edge 28, Type (0, 1), BuildingBlock: UVAHIK_clean_linker_0, # of connection points: 2
#     Edge 29, Type (0, 1), BuildingBlock: UVAHIK_clean_linker_0, # of connection points: 2
#     Edge 30, Type (0, 1), BuildingBlock: UVAHIK_clean_linker_0, # of connection points: 2
#     Edge 31, Type (0, 1), BuildingBlock: UVAHIK_clean_linker_0, # of connection points: 2
#     Edge 32, Type (0, 1), BuildingBlock: UVAHIK_clean_linker_0, # of connection points: 2
#     Edge 33, Type (0, 1), BuildingBlock: UVAHIK_clean_linker_0, # of connection points: 2
#     Edge 34, Type (0, 1), BuildingBlock: UVAHIK_clean_linker_0, # of connection points: 2
#     Edge 35, Type (0, 1), BuildingBlock: UVAHIK_clean_linker_0, # of connection points: 2
# Relax obj value: 0.039
# Max RMSD: 0.055
# Mean RMSD: 0.025
data_MOF--net-pry--node1-FUNLAD_clean_sbu_0--node2-KAKCAD_clean_linker_0--edge1-UVAHIK_clean_linker_0
_symmetry_space_group_name_H-M    P1
_symmetry_Int_Tables_number       1
_symmetry_cell_setting            triclinic
loop_
_symmetry_equiv_pos_as_xyz
'x, y, z'
_cell_length_a     54.988205
_cell_length_b     57.417681
_cell_length_c     57.809774
_cell_angle_alpha  90.373596
_cell_angle_beta   89.9555
_cell_angle_gamma 86.731514
loop_
_atom_site_label
_atom_site_type_symbol
_atom_site_fract_x
_atom_site_fract_y
_atom_site_fract_z
_atom_type_partial_charge
C0 C 0.09944 0.14092 0.24113 0.0
C1 C 0.11498 0.12801 0.2562 0.0
C2 C 0.10867 0.15109 0.22119 0.0
C3 C 0.13376 0.14893 0.21602 0.0
C4 C 0.14929 0.13643 0.23154 0.0
C5 C 0.14 0.12594 0.25119 0.0
C6 C 0.14373 0.15923 0.19444 0.0
C7 C 0.13365 0.18044 0.1854 0.0
C8 C 0.14319 0.19013 0.16519 0.0
C9 C 0.16318 0.17838 0.15413 0.0
C10 C 0.17366 0.15736 0.16287 0.0
C11 C 0.16361 0.14782 0.18281 0.0
C12 C 0.19543 0.14559 0.15142 0.0
C13 C 0.1972 0.14428 0.12716 0.0
C14 C 0.21489 0.136 0.16472 0.0
C15 C 0.23568 0.12563 0.15406 0.0
C16 C 0.23758 0.12453 0.1298 0.0
C17 C 0.1325 0.21255 0.15554 0.0
C18 C 0.10713 0.21732 0.1548 0.0
C19 C 0.14766 0.22911 0.14628 0.0
C20 C 0.13777 0.24959 0.13616 0.0
C21 C 0.11239 0.25424 0.13509 0.0
C22 C 0.0972 0.23787 0.14471 0.0
C23 C 0.218 0.13388 0.11649 0.0
H24 H 0.08004 0.14269 0.24448 0.0
H25 H 0.096 0.16023 0.20962 0.0
H26 H 0.16877 0.13483 0.22865 0.0
H27 H 0.15248 0.11641 0.26268 0.0
H28 H 0.1188 0.18979 0.19441 0.0
H29 H 0.17109 0.13116 0.189 0.0
H30 H 0.17074 0.18571 0.13867 0.0
H31 H 0.18247 0.15125 0.11637 0.0
H32 H 0.21427 0.13689 0.18343 0.0
H33 H 0.25026 0.11837 0.16487 0.0
H34 H 0.09487 0.20493 0.16161 0.0
H35 H 0.16729 0.22626 0.14682 0.0
H36 H 0.21889 0.13354 0.09778 0.0
H37 H 0.0776 0.24095 0.14451 0.0
H38 H 0.15009 0.26157 0.12876 0.0
C39 C 0.36729 0.89031 0.7509 0.0
C40 C 0.39246 0.89259 0.75375 0.0
C41 C 0.35821 0.88014 0.73087 0.0
C42 C 0.37404 0.87184 0.71317 0.0
C43 C 0.39923 0.87373 0.71611 0.0
C44 C 0.40832 0.88404 0.73612 0.0
C45 C 0.36415 0.86171 0.69155 0.0
C46 C 0.34358 0.8726 0.68083 0.0
C47 C 0.3338 0.86329 0.66056 0.0
C48 C 0.34487 0.84275 0.65101 0.0
C49 C 0.36538 0.83142 0.66145 0.0
C50 C 0.37501 0.84118 0.68166 0.0
C51 C 0.37631 0.80922 0.65132 0.0
C52 C 0.3613 0.79234 0.64227 0.0
C53 C 0.40173 0.80483 0.65023 0.0
C54 C 0.41182 0.78423 0.64011 0.0
C55 C 0.39676 0.76748 0.63084 0.0
C56 C 0.31184 0.87483 0.64946 0.0
C57 C 0.29214 0.88378 0.66298 0.0
C58 C 0.31024 0.87666 0.62525 0.0
C59 C 0.28938 0.88697 0.61482 0.0
C60 C 0.26958 0.89572 0.62832 0.0
C61 C 0.27128 0.89409 0.65255 0.0
C62 C 0.37136 0.77183 0.63212 0.0
H63 H 0.35452 0.89619 0.76427 0.0
H64 H 0.33873 0.8786 0.72933 0.0
H65 H 0.41189 0.86772 0.7027 0.0
H66 H 0.42777 0.88574 0.73752 0.0
H67 H 0.33547 0.8887 0.68804 0.0
H68 H 0.39049 0.83239 0.69013 0.0
H69 H 0.33737 0.83546 0.63541 0.0
H70 H 0.34165 0.79491 0.6431 0.0
H71 H 0.41386 0.81749 0.65686 0.0
H72 H 0.43145 0.78138 0.63971 0.0
H73 H 0.29265 0.88248 0.68165 0.0
H74 H 0.32517 0.8702 0.61431 0.0
H75 H 0.35915 0.75952 0.62496 0.0
H76 H 0.25652 0.90089 0.6635 0.0
H77 H 0.28864 0.88771 0.59612 0.0
C78 C 0.68916 0.46496 0.96303 0.0
C79 C 0.70624 0.44698 0.96929 0.0
C80 C 0.6654 0.45988 0.95703 0.0
C81 C 0.65826 0.43678 0.95754 0.0
C82 C 0.67515 0.41894 0.96454 0.0
C83 C 0.69893 0.42398 0.97025 0.0
C84 C 0.63387 0.43088 0.94924 0.0
C85 C 0.6254 0.43908 0.9277 0.0
C86 C 0.60395 0.43105 0.91809 0.0
C87 C 0.59055 0.41534 0.93069 0.0
C88 C 0.59884 0.40678 0.95215 0.0
C89 C 0.62039 0.41492 0.96146 0.0
C90 C 0.5868 0.38702 0.9629 0.0
C91 C 0.56132 0.38589 0.96212 0.0
C92 C 0.60094 0.3677 0.97125 0.0
C93 C 0.59004 0.34719 0.97713 0.0
C94 C 0.56479 0.34551 0.97465 0.0
C95 C 0.59706 0.43681 0.89386 0.0
C96 C 0.59908 0.4594 0.8851 0.0
C97 C 0.58924 0.41926 0.879 0.0
C98 C 0.5836 0.42412 0.85599 0.0
C99 C 0.58588 0.4466 0.8471 0.0
C100 C 0.59352 0.46426 0.86195 0.0
C101 C 0.55044 0.36529 0.96782 0.0
H102 H 0.6944 0.48283 0.96204 0.0
H103 H 0.65268 0.47394 0.95172 0.0
H104 H 0.67023 0.40093 0.96481 0.0
H105 H 0.71172 0.40983 0.9752 0.0
H106 H 0.63644 0.4504 0.9177 0.0
H107 H 0.62707 0.40833 0.97793 0.0
H108 H 0.57428 0.40874 0.92311 0.0
H109 H 0.54988 0.40061 0.95616 0.0
H110 H 0.62062 0.36781 0.97179 0.0
H111 H 0.6016 0.33216 0.98214 0.0
H112 H 0.60498 0.47331 0.89614 0.0
H113 H 0.58793 0.40154 0.88499 0.0
H114 H 0.53088 0.36454 0.96609 0.0
H115 H 0.59564 0.48173 0.85558 0.0
H116 H 0.57741 0.41019 0.84515 0.0
C117 C 0.91559 0.55393 0.35185 0.0
C118 C 0.94011 0.55722 0.34685 0.0
C119 C 0.90617 0.55926 0.37379 0.0
C120 C 0.92119 0.5676 0.39135 0.0
C121 C 0.94607 0.56979 0.38652 0.0
C122 C 0.95537 0.56491 0.3644 0.0
C123 C 0.91051 0.5758 0.41386 0.0
C124 C 0.89057 0.56507 0.42352 0.0
C125 C 0.87841 0.57472 0.443 0.0
C126 C 0.88706 0.59466 0.45364 0.0
C127 C 0.90701 0.60563 0.4443 0.0
C128 C 0.91859 0.59603 0.42448 0.0
C129 C 0.91395 0.62867 0.45316 0.0
C130 C 0.8959 0.64614 0.45872 0.0
C131 C 0.93853 0.63419 0.45372 0.0
C132 C 0.94482 0.65698 0.45828 0.0
C133 C 0.92667 0.67474 0.46253 0.0
C134 C 0.85481 0.56594 0.45021 0.0
C135 C 0.83657 0.56324 0.4336 0.0
C136 C 0.84969 0.56174 0.47355 0.0
C137 C 0.82661 0.55507 0.48016 0.0
C138 C 0.8081 0.55287 0.46358 0.0
C139 C 0.81348 0.55696 0.4402 0.0
C140 C 0.90221 0.66889 0.46344 0.0
H141 H 0.90344 0.54825 0.33846 0.0
H142 H 0.88685 0.55779 0.37657 0.0
H143 H 0.9583 0.57572 0.3997 0.0
H144 H 0.97441 0.56738 0.36092 0.0
H145 H 0.88392 0.54955 0.41552 0.0
H146 H 0.93289 0.60531 0.41636 0.0
H147 H 0.87745 0.60232 0.46847 0.0
H148 H 0.87678 0.64258 0.45826 0.0
H149 H 0.95287 0.62103 0.4498 0.0
H150 H 0.96384 0.66087 0.45735 0.0
H151 H 0.83989 0.56685 0.41553 0.0
H152 H 0.86351 0.56369 0.48666 0.0
H153 H 0.88782 0.68206 0.46711 0.0
H154 H 0.79965 0.55607 0.42697 0.0
H155 H 0.82328 0.55174 0.49827 0.0
C156 C 0.89555 0.86687 0.7588 0.0
C157 C 0.89375 0.89122 0.75573 0.0
C158 C 0.88636 0.85678 0.77879 0.0
C159 C 0.87513 0.87077 0.79629 0.0
C160 C 0.87358 0.89512 0.79331 0.0
C161 C 0.88268 0.90518 0.77332 0.0
C162 C 0.86477 0.86012 0.81743 0.0
C163 C 0.87683 0.84078 0.82823 0.0
C164 C 0.86723 0.83092 0.8483 0.0
C165 C 0.84535 0.84092 0.85764 0.0
C166 C 0.8329 0.86021 0.84722 0.0
C167 C 0.8427 0.86946 0.82697 0.0
C168 C 0.80982 0.8708 0.85762 0.0
C169 C 0.79323 0.85685 0.86882 0.0
C170 C 0.80434 0.89504 0.8568 0.0
C171 C 0.78301 0.90499 0.86689 0.0
C172 C 0.76664 0.89109 0.87849 0.0
C173 C 0.87976 0.8101 0.85956 0.0
C174 C 0.89105 0.79193 0.8462 0.0
C175 C 0.87975 0.80779 0.88381 0.0
C176 C 0.88993 0.78763 0.89432 0.0
C177 C 0.90076 0.76934 0.88094 0.0
C178 C 0.90153 0.77186 0.85677 0.0
C179 C 0.77213 0.86685 0.87928 0.0
H180 H 0.90421 0.85553 0.74581 0.0
H181 H 0.88773 0.83797 0.78034 0.0
H182 H 0.86539 0.90653 0.8065 0.0
H183 H 0.88065 0.92395 0.77155 0.0
H184 H 0.89406 0.83376 0.82133 0.0
H185 H 0.83284 0.88372 0.81827 0.0
H186 H 0.83795 0.83359 0.87315 0.0
H187 H 0.79641 0.83809 0.86952 0.0
H188 H 0.8167 0.9065 0.84865 0.0
H189 H 0.77938 0.92365 0.86545 0.0
H190 H 0.8912 0.79287 0.8275 0.0
H191 H 0.87185 0.82158 0.89478 0.0
H192 H 0.76032 0.85546 0.88827 0.0
H193 H 0.9096 0.758 0.84597 0.0
H194 H 0.88942 0.78639 0.913 0.0
C195 C 0.62151 0.1084 0.27739 0.0
C196 C 0.61098 0.1224 0.25974 0.0
C197 C 0.63062 0.11847 0.29747 0.0
C198 C 0.62963 0.14285 0.30047 0.0
C199 C 0.61878 0.15686 0.28299 0.0
C200 C 0.60956 0.14678 0.26293 0.0
C201 C 0.64055 0.15357 0.32138 0.0
C202 C 0.6626 0.14395 0.33054 0.0
C203 C 0.67338 0.15393 0.34996 0.0
C204 C 0.66197 0.17391 0.36023 0.0
C205 C 0.63975 0.18376 0.3517 0.0
C206 C 0.62922 0.17346 0.33218 0.0
C207 C 0.62776 0.20474 0.36336 0.0
C208 C 0.62888 0.20732 0.38759 0.0
C209 C 0.61576 0.22267 0.35048 0.0
C210 C 0.60564 0.2428 0.36149 0.0
C211 C 0.60751 0.24557 0.3856 0.0
C212 C 0.69643 0.14336 0.3598 0.0
C213 C 0.69948 0.11914 0.36306 0.0
C214 C 0.71526 0.15747 0.36661 0.0
C215 C 0.73652 0.14763 0.3767 0.0
C216 C 0.73945 0.12342 0.38036 0.0
C217 C 0.72069 0.10929 0.37327 0.0
C218 C 0.61907 0.22752 0.39852 0.0
H219 H 0.6232 0.0896 0.27553 0.0
H220 H 0.6385 0.10707 0.31066 0.0
H221 H 0.61785 0.1757 0.28457 0.0
H222 H 0.60129 0.15814 0.24991 0.0
H223 H 0.67181 0.12896 0.32219 0.0
H224 H 0.61187 0.18055 0.32573 0.0
H225 H 0.67045 0.18173 0.37505 0.0
H226 H 0.63735 0.19369 0.39822 0.0
H227 H 0.61473 0.22149 0.33181 0.0
H228 H 0.59696 0.25649 0.35107 0.0
H229 H 0.68518 0.10783 0.35825 0.0
H230 H 0.71361 0.17616 0.36402 0.0
H231 H 0.62042 0.22898 0.41716 0.0
H232 H 0.7221 0.09064 0.3761 0.0
H233 H 0.75074 0.15902 0.38149 0.0
C234 C 0.30905 0.559 0.07079 0.0
C235 C 0.30339 0.56255 0.04738 0.0
C236 C 0.33193 0.56383 0.07932 0.0
C237 C 0.34987 0.57205 0.06457 0.0
C238 C 0.34425 0.5754 0.04104 0.0
C239 C 0.32116 0.57082 0.03255 0.0
C240 C 0.37388 0.578 0.07414 0.0
C241 C 0.38457 0.56476 0.09225 0.0
C242 C 0.40541 0.57195 0.10358 0.0
C243 C 0.41632 0.59198 0.09597 0.0
C244 C 0.40603 0.60543 0.07792 0.0
C245 C 0.38496 0.59822 0.06688 0.0
C246 C 0.41578 0.62832 0.07256 0.0
C247 C 0.42138 0.64352 0.09068 0.0
C248 C 0.41915 0.63535 0.04961 0.0
C249 C 0.42827 0.65709 0.04492 0.0
C250 C 0.43403 0.67223 0.06312 0.0
C251 C 0.41362 0.56096 0.12555 0.0
C252 C 0.39652 0.5574 0.14306 0.0
C253 C 0.43856 0.55694 0.13035 0.0
C254 C 0.44628 0.55079 0.15264 0.0
C255 C 0.42918 0.54884 0.17048 0.0
C256 C 0.40424 0.55149 0.16534 0.0
C257 C 0.43037 0.66519 0.08602 0.0
H258 H 0.29553 0.55306 0.0827 0.0
H259 H 0.33526 0.56168 0.09766 0.0
H260 H 0.35769 0.58152 0.02916 0.0
H261 H 0.31725 0.57359 0.01438 0.0
H262 H 0.37626 0.54918 0.09812 0.0
H263 H 0.37633 0.60922 0.05374 0.0
H264 H 0.43213 0.59789 0.105 0.0
H265 H 0.4184 0.63883 0.10854 0.0
H266 H 0.41501 0.62392 0.03533 0.0
H267 H 0.43103 0.66196 0.02708 0.0
H268 H 0.3772 0.56061 0.13995 0.0
H269 H 0.45208 0.55948 0.11711 0.0
H270 H 0.434 0.67663 0.10043 0.0
H271 H 0.39072 0.54984 0.17878 0.0
H272 H 0.46562 0.54888 0.1562 0.0
C273 C 0.09344 0.35011 0.53746 0.0
C274 C 0.06839 0.34764 0.54069 0.0
C275 C 0.10395 0.37076 0.54377 0.0
C276 C 0.08962 0.38946 0.55338 0.0
C277 C 0.06431 0.38751 0.55521 0.0
C278 C 0.05381 0.36677 0.54901 0.0
C279 C 0.10152 0.40947 0.56407 0.0
C280 C 0.12222 0.41848 0.55394 0.0
C281 C 0.13596 0.43457 0.56598 0.0
C282 C 0.12821 0.44215 0.58811 0.0
C283 C 0.10726 0.43375 0.5982 0.0
C284 C 0.09396 0.41756 0.58604 0.0
C285 C 0.10046 0.43999 0.62233 0.0
C286 C 0.11811 0.43862 0.6399 0.0
C287 C 0.07607 0.44587 0.62818 0.0
C288 C 0.06939 0.4499 0.65124 0.0
C289 C 0.08693 0.44788 0.66887 0.0
C290 C 0.15959 0.44178 0.5566 0.0
C291 C 0.17543 0.42554 0.54492 0.0
C292 C 0.16736 0.46435 0.56081 0.0
C293 C 0.19081 0.47013 0.55463 0.0
C294 C 0.20684 0.45359 0.54374 0.0
C295 C 0.19875 0.43145 0.53843 0.0
C296 C 0.11139 0.44245 0.66296 0.0
H297 H 0.10522 0.33559 0.53136 0.0
H298 H 0.12354 0.37148 0.54244 0.0
H299 H 0.05272 0.40175 0.56221 0.0
H300 H 0.03439 0.36546 0.55136 0.0
H301 H 0.12794 0.41251 0.53686 0.0
H302 H 0.07866 0.41004 0.59446 0.0
H303 H 0.13894 0.45398 0.59795 0.0
H304 H 0.137 0.43386 0.6359 0.0
H305 H 0.06214 0.44708 0.61494 0.0
H306 H 0.05038 0.45392 0.65533 0.0
H307 H 0.17031 0.40788 0.54171 0.0
H308 H 0.15549 0.47745 0.56933 0.0
H309 H 0.12532 0.44101 0.6762 0.0
H310 H 0.21087 0.41833 0.53024 0.0
H311 H 0.19658 0.48742 0.55866 0.0
C312 C 0.02479 0.02344 0.46433 0.0
N313 N 0.01186 0.05839 0.52708 0.0
C314 C 0.03422 0.06665 0.52339 0.0
C315 C 0.03822 0.09002 0.52749 0.0
C316 C 0.01896 0.1052 0.53522 0.0
C317 C 0.99648 0.09596 0.54033 0.0
C318 C 0.99329 0.07231 0.53609 0.0
Zn319 Zn 0.00602 0.0261 0.51403 0.0
C320 C 0.95888 0.02586 0.48857 0.0
N321 N 0.99568 0.96008 0.48297 0.0
C322 C 0.01425 0.94661 0.47337 0.0
C323 C 0.97311 0.95191 0.48559 0.0
C324 C 0.96866 0.92918 0.47901 0.0
C325 C 0.98768 0.91458 0.46987 0.0
C326 C 0.01065 0.9236 0.46677 0.0
Zn327 Zn 1.00154 0.99214 0.49648 0.0
O328 O 0.02163 0.03647 0.48207 0.0
C329 C 0.0487 0.99229 0.52185 0.0
O330 O 0.01846 1.0025 0.46518 0.0
H331 H 0.9587 0.96278 0.49355 0.0
H332 H 0.04869 0.0554 0.51603 0.0
H333 H 0.03204 0.95348 0.47146 0.0
O334 O 0.0408 0.01309 0.52625 0.0
O335 O 0.03581 0.97934 0.50956 0.0
H336 H 0.97564 0.06539 0.53881 0.0
O337 O 0.98472 0.98214 0.52809 0.0
O338 O 0.99018 0.01542 0.54563 0.0
O339 O 0.96732 1.00541 0.48343 0.0
O340 O 0.9712 0.03853 0.5017 0.0
C341 C 0.98255 0.99491 0.54614 0.0
H342 H 0.05598 0.09634 0.52376 0.0
H343 H 0.98113 0.10709 0.54625 0.0
H344 H 0.95079 0.92277 0.48202 0.0
H345 H 0.02573 0.91288 0.45966 0.0
C346 C 0.54775 0.99113 0.98836 0.0
N347 N 0.51132 0.05742 0.98493 0.0
C348 C 0.53306 0.06704 0.98848 0.0
C349 C 0.53581 0.09043 0.98325 0.0
C350 C 0.51592 0.10404 0.97451 0.0
C351 C 0.49405 0.09339 0.97002 0.0
C352 C 0.49217 0.06989 0.9753 0.0
Zn353 Zn 0.50617 0.02511 0.99772 0.0
C354 C 0.4814 0.99461 0.96499 0.0
N355 N 0.49433 0.95884 0.02673 0.0
C356 C 0.5131 0.94511 0.03538 0.0
C357 C 0.47179 0.95063 0.02396 0.0
C358 C 0.46769 0.92751 0.02905 0.0
C359 C 0.48702 0.91253 0.0368 0.0
C360 C 0.50985 0.92174 0.04053 0.0
Zn361 Zn 0.50008 0.99113 0.01412 0.0
O362 O 0.54077 0.01232 0.98489 0.0
C363 C 0.52485 0.02158 0.0469 0.0
O364 O 0.53424 0.97831 1.00003 0.0
H365 H 0.45714 0.96177 0.01693 0.0
H366 H 0.54796 0.05686 0.99634 0.0
H367 H 0.53088 0.952 0.03739 0.0
O368 O 0.52247 0.03496 0.0295 0.0
O369 O 0.51728 1.00107 0.04551 0.0
H370 H 0.47507 0.06186 0.9726 0.0
O371 O 0.46604 1.00431 0.02784 0.0
O372 O 0.47143 0.0376 0.01087 0.0
O373 O 0.48293 0.98163 0.98271 0.0
O374 O 0.48985 0.01476 0.96601 0.0
C375 C 0.45842 0.0251 0.02339 0.0
H376 H 0.5529 0.09807 0.98716 0.0
H377 H 0.4784 0.10329 0.96307 0.0
H378 H 0.44967 0.92129 0.02638 0.0
H379 H 0.52531 0.9108 0.04633 0.0
C380 C 0.5226 0.46342 0.49377 0.0
N381 N 0.51916 0.49312 0.56053 0.0
C382 C 0.51233 0.47274 0.56973 0.0
C383 C 0.51687 0.46778 0.59303 0.0
C384 C 0.5283 0.48408 0.60691 0.0
C385 C 0.53542 0.50478 0.59684 0.0
C386 C 0.53074 0.50893 0.57353 0.0
Zn387 Zn 0.51148 0.50165 0.52708 0.0
C388 C 0.55457 0.52101 0.50403 0.0
N389 N 0.49609 0.52235 0.45789 0.0
C390 C 0.48564 0.50595 0.44469 0.0
C391 C 0.50264 0.54282 0.44865 0.0
C392 C 0.49924 0.54715 0.42506 0.0
C393 C 0.4894 0.53005 0.41099 0.0
C394 C 0.48227 0.5094 0.42109 0.0
Zn395 Zn 0.50354 0.51397 0.49141 0.0
O396 O 0.52252 0.4671 0.5155 0.0
C397 C 0.46046 0.49444 0.51436 0.0
O398 O 0.51572 0.47993 0.48036 0.0
H399 H 0.51099 0.55556 0.45948 0.0
H400 H 0.5031 0.46047 0.55907 0.0
H401 H 0.48038 0.48988 0.45238 0.0
O402 O 0.47523 0.49181 0.53116 0.0
O403 O 0.46767 0.50305 0.49554 0.0
H404 H 0.53617 0.52495 0.56586 0.0
O405 O 0.49154 0.54817 0.50302 0.0
O406 O 0.50028 0.53604 0.53808 0.0
O407 O 0.53953 0.52446 0.48757 0.0
O408 O 0.54761 0.51178 0.52262 0.0
C409 C 0.49251 0.55225 0.52466 0.0
H410 H 0.51102 0.45165 0.60024 0.0
H411 H 0.54462 0.51762 0.60688 0.0
H412 H 0.50494 0.5633 0.41777 0.0
H413 H 0.47429 0.49598 0.41078 0.0
C414 C 0.98994 0.55353 0.98847 0.0
N415 N 0.99422 0.52723 0.05626 0.0
C416 C 0.00508 0.54548 0.06627 0.0
C417 C 1.00235 0.54988 0.09001 0.0
C418 C 0.98816 0.53545 0.10344 0.0
C419 C 0.97631 0.51747 0.09232 0.0
C420 C 0.97984 0.51349 0.06878 0.0
Zn421 Zn 1.00119 0.51723 0.02283 0.0
C422 C 0.95743 0.49677 1.00129 0.0
N423 N 0.01538 0.49194 0.95462 0.0
C424 C 0.0258 0.50752 0.94063 0.0
C425 C 0.00933 0.47073 0.9465 0.0
C426 C 0.01344 0.46468 0.92329 0.0
C427 C 0.02354 0.48078 0.90841 0.0
C428 C 0.02994 0.50233 0.91737 0.0
Zn429 Zn 0.00833 0.50226 0.98784 0.0
O430 O 0.99099 0.5512 0.01032 0.0
C431 C 0.05211 0.52277 0.00889 0.0
O432 O 0.99578 0.53603 0.97559 0.0
H433 H 1.00103 0.45864 0.95796 0.0
H434 H 0.01652 0.55615 0.05603 0.0
H435 H 0.03071 0.52419 0.94745 0.0
O436 O 0.03781 0.5265 0.02596 0.0
O437 O 0.04424 0.51322 0.99072 0.0
H438 H 0.9716 0.49887 0.06067 0.0
O439 O 0.02053 0.4688 1.0007 0.0
O440 O 0.0116 0.48305 0.03512 0.0
O441 O 0.97248 0.49126 0.98522 0.0
O442 O 0.96455 0.50797 0.01882 0.0
C443 C 0.01937 0.466 0.02248 0.0
H444 H 0.01195 0.56386 0.09782 0.0
H445 H 0.96469 0.50625 0.10176 0.0
H446 H 0.00826 0.44789 0.91691 0.0
H447 H 0.03812 0.51504 0.90649 0.0
C448 C 0.11173 0.09312 0.2818 0.0
C449 C 0.10522 0.11662 0.27704 0.0
C450 C 0.10275 0.08237 0.30148 0.0
C451 C 0.05499 0.09032 0.34779 0.0
H452 H 0.09519 0.0423 0.37863 0.0
C453 C 0.03478 0.05748 0.43986 0.0
C454 C 0.0347 0.03316 0.44274 0.0
C455 C 0.04317 0.06696 0.41932 0.0
C456 C 0.08369 0.05556 0.37008 0.0
H457 H 0.08447 0.14738 0.28935 0.0
H458 H 0.06957 0.12909 0.32414 0.0
H459 H 0.11033 0.06054 0.34389 0.0
H460 H 0.04384 0.99975 0.42633 0.0
H461 H 0.05921 0.01642 0.39054 0.0
H462 H 0.02882 0.08583 0.3747 0.0
C463 C 0.08094 0.11856 0.31236 0.0
C464 C 0.09229 0.066 0.35004 0.0
C465 C 0.08959 0.12917 0.29244 0.0
C466 C 0.04363 0.01854 0.42466 0.0
C467 C 0.05249 0.02807 0.40422 0.0
C468 C 0.04662 0.08017 0.36804 0.0
C469 C 0.08732 0.09495 0.3172 0.0
C470 C 0.07808 0.08358 0.33855 0.0
C471 C 0.05212 0.05239 0.40126 0.0
C472 C 0.06087 0.06269 0.37942 0.0
H473 H 0.12354 0.08292 0.27009 0.0
H474 H 0.10774 0.06408 0.30416 0.0
H475 H 0.04316 0.10332 0.3393 0.0
H476 H 0.02798 0.06928 0.45339 0.0
H477 H 0.04286 0.08575 0.41762 0.0
C478 C 0.38917 0.92323 0.78526 0.0
C479 C 0.40202 0.90393 0.77498 0.0
C480 C 0.39784 0.93363 0.80537 0.0
C481 C 0.43972 0.92199 0.8549 0.0
H482 H 0.43134 0.98891 0.86412 0.0
C483 C 0.45953 0.96435 0.94306 0.0
C484 C 0.47086 0.9857 0.94322 0.0
C485 C 0.45084 0.95507 0.92244 0.0
C486 C 0.43404 0.97022 0.86178 0.0
H487 H 0.43426 0.88056 0.77802 0.0
H488 H 0.44973 0.89909 0.81259 0.0
H489 H 0.41788 0.97156 0.82809 0.0
H490 H 0.48161 0.01419 0.92177 0.0
H491 H 0.46682 0.99781 0.88567 0.0
H492 H 0.45649 0.92067 0.88826 0.0
C493 C 0.43268 0.90597 0.80532 0.0
C494 C 0.42602 0.9602 0.84119 0.0
C495 C 0.42395 0.8955 0.78526 0.0
C496 C 0.47289 0.99776 0.92228 0.0
C497 C 0.46431 0.98838 0.90158 0.0
C498 C 0.44782 0.932 0.87542 0.0
C499 C 0.41968 0.92511 0.81574 0.0
C500 C 0.42866 0.93592 0.83749 0.0
C501 C 0.45338 0.96678 0.90134 0.0
C502 C 0.44499 0.95624 0.87923 0.0
H503 H 0.3724 0.93046 0.77771 0.0
H504 H 0.38715 0.94815 0.81298 0.0
H505 H 0.44183 0.90322 0.85287 0.0
H506 H 0.45749 0.95465 0.95889 0.0
H507 H 0.44207 0.93868 0.92309 0.0
C508 C 0.58744 0.43465 0.80532 0.0
C509 C 0.58046 0.45132 0.82235 0.0
C510 C 0.58143 0.43844 0.78216 0.0
C511 C 0.56499 0.48415 0.74019 0.0
H512 H 0.538 0.43372 0.7054 0.0
C513 C 0.52749 0.49769 0.64808 0.0
C514 C 0.5327 0.47981 0.63182 0.0
C515 C 0.53254 0.49415 0.67148 0.0
C516 C 0.54579 0.44789 0.71477 0.0
H517 H 0.56197 0.48522 0.8283 0.0
H518 H 0.5518 0.49199 0.78766 0.0
H519 H 0.54889 0.428 0.74592 0.0
H520 H 0.54711 0.44418 0.62724 0.0
H521 H 0.55635 0.43804 0.66812 0.0
H522 H 0.56231 0.50395 0.70903 0.0
C523 C 0.56196 0.476 0.79235 0.0
C524 C 0.55197 0.44462 0.73799 0.0
C525 C 0.56784 0.47215 0.81559 0.0
C526 C 0.54271 0.45818 0.63945 0.0
C527 C 0.54795 0.45468 0.66287 0.0
C528 C 0.55897 0.48738 0.71693 0.0
C529 C 0.56848 0.45906 0.77546 0.0
C530 C 0.56166 0.4627 0.75092 0.0
C531 C 0.54309 0.47269 0.67913 0.0
C532 C 0.5493 0.46928 0.70393 0.0
H533 H 0.59766 0.41865 0.80985 0.0
H534 H 0.58709 0.42528 0.76945 0.0
H535 H 0.57271 0.49829 0.74968 0.0
H536 H 0.5194 0.51443 0.6427 0.0
H537 H 0.52808 0.50823 0.68358 0.0
C538 C 0.95988 0.57247 0.31162 0.0
C539 C 0.94916 0.55409 0.32292 0.0
C540 C 0.96603 0.57054 0.28821 0.0
C541 C 0.95141 0.53624 0.23584 0.0
H542 H 0.00615 0.56657 0.20941 0.0
C543 C 0.98518 0.51862 0.14318 0.0
C544 C 0.98623 0.53836 0.12898 0.0
C545 C 0.98201 0.52106 0.16699 0.0
C546 C 0.99074 0.55816 0.21663 0.0
H547 H 0.93748 0.51892 0.31921 0.0
H548 H 0.94927 0.51495 0.27864 0.0
H549 H 0.999 0.56874 0.25115 0.0
H550 H 0.98565 0.57621 0.12902 0.0
H551 H 0.98088 0.58035 0.17101 0.0
H552 H 0.94372 0.52507 0.20135 0.0
C553 C 0.95212 0.53125 0.28746 0.0
C554 C 0.98656 0.55943 0.24049 0.0
C555 C 0.94556 0.53338 0.31074 0.0
C556 C 0.98506 0.56063 0.1394 0.0
C557 C 0.98226 0.56304 0.16339 0.0
C558 C 0.95586 0.53465 0.21213 0.0
C559 C 0.96191 0.55001 0.27573 0.0
C560 C 0.96682 0.54846 0.25041 0.0
C561 C 0.98029 0.54326 0.17727 0.0
C562 C 0.97554 0.54556 0.20234 0.0
H563 H 0.96256 0.58872 0.32066 0.0
H564 H 0.9732 0.58546 0.27976 0.0
H565 H 0.93565 0.52811 0.24266 0.0
H566 H 0.9868 0.50116 0.13593 0.0
H567 H 0.9809 0.50555 0.17744 0.0
C568 C 0.25849 0.09995 0.09852 0.0
C569 C 0.26002 0.11398 0.11845 0.0
C570 C 0.27959 0.0902 0.08783 0.0
C571 C 0.34607 0.09707 0.08324 0.0
H572 H 0.34758 0.03377 0.0593 0.0
C573 C 0.42682 0.05808 0.02864 0.0
C574 C 0.43498 0.03489 0.03315 0.0
C575 C 0.40516 0.06757 0.03846 0.0
C576 C 0.34753 0.05142 0.06601 0.0
H577 H 0.28512 0.1289 0.14258 0.0
H578 H 0.32179 0.11157 0.12424 0.0
H579 H 0.31074 0.05043 0.07802 0.0
H580 H 0.42654 1.00345 0.05138 0.0
H581 H 0.3889 0.02006 0.06864 0.0
H582 H 0.383 0.09792 0.07169 0.0
C583 C 0.30428 0.10827 0.11672 0.0
C584 C 0.32629 0.06108 0.07652 0.0
C585 C 0.2832 0.11798 0.12741 0.0
C586 C 0.42079 0.02135 0.0475 0.0
C587 C 0.39911 0.03085 0.0573 0.0
C588 C 0.36728 0.08743 0.0727 0.0
C589 C 0.30278 0.09427 0.09677 0.0
C590 C 0.3253 0.08402 0.08533 0.0
C591 C 0.39107 0.05413 0.05303 0.0
C592 C 0.36832 0.06446 0.06398 0.0
H593 H 0.24095 0.0963 0.09126 0.0
H594 H 0.27772 0.07969 0.07238 0.0
H595 H 0.3459 0.11487 0.08957 0.0
H596 H 0.43724 0.069 0.01761 0.0
H597 H 0.39937 0.08544 0.0345 0.0
C598 C 0.24868 0.92065 0.5977 0.0
C599 C 0.24714 0.90623 0.61717 0.0
C600 C 0.22758 0.93023 0.58706 0.0
C601 C 0.16146 0.92216 0.58147 0.0
H602 H 0.15913 0.98567 0.55884 0.0
C603 C 0.08096 0.95997 0.52666 0.0
C604 C 0.07226 0.98299 0.53152 0.0
C605 C 0.10267 0.95086 0.53651 0.0
C606 C 0.1594 0.96795 0.56519 0.0
H607 H 0.22204 0.89051 0.64059 0.0
H608 H 0.18534 0.9076 0.62239 0.0
H609 H 0.19589 0.96953 0.57779 0.0
H610 H 0.07979 0.01457 0.55037 0.0
H611 H 0.1175 0.99859 0.56773 0.0
H612 H 0.1248 0.92073 0.56938 0.0
C613 C 0.20287 0.9113 0.61515 0.0
C614 C 0.1806 0.9586 0.57583 0.0
C615 C 0.22395 0.90173 0.62578 0.0
C616 C 0.08598 0.99678 0.54621 0.0
C617 C 0.10769 0.98765 0.55608 0.0
C618 C 0.14028 0.9315 0.57084 0.0
C619 C 0.20439 0.92562 0.59561 0.0
C620 C 0.18189 0.93559 0.58415 0.0
C621 C 0.11624 0.96451 0.55149 0.0
C622 C 0.13895 0.95453 0.56258 0.0
H623 H 0.26622 0.92469 0.59074 0.0
H624 H 0.22946 0.94099 0.57192 0.0
H625 H 0.16187 0.90429 0.58741 0.0
H626 H 0.07093 0.94888 0.51534 0.0
H627 H 0.10889 0.9331 0.53229 0.0
C628 C 0.75081 0.43833 0.96312 0.0
C629 C 0.73193 0.45195 0.9738 0.0
C630 C 0.77508 0.44302 0.96702 0.0
C631 C 0.81403 0.48932 0.98821 0.0
H632 H 0.86302 0.43805 0.99099 0.0
C633 C 0.91403 0.50117 0.01436 0.0
C634 C 0.93173 0.49079 0.9994 0.0
C635 C 0.88958 0.4962 0.01206 0.0
C636 C 0.84952 0.45252 0.99013 0.0
H637 H 0.72352 0.48097 0.99711 0.0
H638 H 0.76602 0.48885 1.00451 0.0
H639 H 0.82031 0.42986 0.98599 0.0
H640 H 0.93778 0.46674 0.97059 0.0
H641 H 0.89503 0.45781 0.96684 0.0
H642 H 0.84338 0.51189 0.9928 0.0
C643 C 0.76211 0.47487 0.99267 0.0
C644 C 0.82506 0.44788 0.98718 0.0
C645 C 0.73777 0.47033 0.98853 0.0
C646 C 0.92455 0.47504 0.98235 0.0
C647 C 0.90013 0.46984 0.98026 0.0
C648 C 0.83846 0.49393 0.99146 0.0
C649 C 0.78108 0.46129 0.98191 0.0
C650 C 0.80701 0.46623 0.98596 0.0
C651 C 0.88241 0.48052 0.99497 0.0
C652 C 0.85644 0.47558 0.99226 0.0
H653 H 0.74677 0.42428 0.95138 0.0
H654 H 0.78913 0.43253 0.95802 0.0
H655 H 0.80073 0.5039 0.98698 0.0
H656 H 0.91899 0.5134 0.02765 0.0
H657 H 0.87627 0.50452 0.02373 0.0
C658 C 0.76873 0.53406 0.45576 0.0
C659 C 0.78299 0.5473 0.47048 0.0
C660 C 0.74442 0.53074 0.461 0.0
C661 C 0.69326 0.55571 0.49728 0.0
H662 H 0.66238 0.50035 0.47617 0.0
C663 C 0.5951 0.52961 0.52057 0.0
C664 C 0.58033 0.52624 0.50113 0.0
C665 C 0.61993 0.53289 0.51786 0.0
C666 C 0.67085 0.5159 0.4821 0.0
H667 H 0.78283 0.56667 0.50287 0.0
H668 H 0.74095 0.55962 0.51274 0.0
H669 H 0.70613 0.503 0.471 0.0
H670 H 0.57979 0.52385 0.46368 0.0
H671 H 0.62345 0.52886 0.45906 0.0
H672 H 0.65778 0.56803 0.50911 0.0
C673 C 0.74831 0.55252 0.49664 0.0
C674 C 0.69587 0.51754 0.47904 0.0
C675 C 0.77255 0.55622 0.49116 0.0
C676 C 0.59074 0.52653 0.47895 0.0
C677 C 0.61565 0.52926 0.47629 0.0
C678 C 0.6683 0.5538 0.50079 0.0
C679 C 0.73375 0.54012 0.4814 0.0
C680 C 0.70739 0.53763 0.48624 0.0
C681 C 0.63042 0.5323 0.49573 0.0
C682 C 0.6569 0.53404 0.49291 0.0
H683 H 0.77622 0.52647 0.43991 0.0
H684 H 0.73386 0.52133 0.44864 0.0
H685 H 0.70129 0.57163 0.50271 0.0
H686 H 0.5875 0.52951 0.53787 0.0
H687 H 0.63108 0.53518 0.53307 0.0
C688 C 0.11336 0.29713 0.12603 0.0
C689 C 0.10193 0.27591 0.12374 0.0
C690 C 0.10401 0.31729 0.11491 0.0
C691 C 0.06284 0.33743 0.06701 0.0
H692 H 0.06587 0.39728 0.09794 0.0
C693 C 0.03933 0.42536 0.02038 0.0
C694 C 0.0275 0.44347 0.03336 0.0
C695 C 0.04788 0.40462 0.0311 0.0
C696 C 0.06462 0.38072 0.08908 0.0
H697 H 0.07154 0.25951 0.10773 0.0
H698 H 0.05484 0.29477 0.08894 0.0
H699 H 0.081 0.36203 0.11749 0.0
H700 H 0.01482 0.45359 0.06773 0.0
H701 H 0.02917 0.41747 0.0862 0.0
H702 H 0.04585 0.35615 0.03883 0.0
C703 C 0.07131 0.29574 0.09907 0.0
C704 C 0.07365 0.36046 0.10021 0.0
C705 C 0.08072 0.27553 0.11015 0.0
C706 C 0.02402 0.44013 0.05719 0.0
C707 C 0.03243 0.41941 0.06785 0.0
C708 C 0.05373 0.35773 0.05589 0.0
C709 C 0.08286 0.31691 0.10123 0.0
C710 C 0.07295 0.3385 0.08935 0.0
C711 C 0.04472 0.40142 0.05505 0.0
C712 C 0.05447 0.37968 0.06677 0.0
H713 H 0.12953 0.29825 0.13655 0.0
H714 H 0.11361 0.33313 0.11681 0.0
H715 H 0.06222 0.32092 0.05795 0.0
H716 H 0.04239 0.42736 1.00201 0.0
H717 H 0.05746 0.39131 0.02068 0.0
C718 C 0.53879 0.31486 0.95892 0.0
C719 C 0.5541 0.3225 0.97653 0.0
C720 C 0.53142 0.29201 0.9587 0.0
C721 C 0.52516 0.23983 0.99419 0.0
H722 H 0.53638 0.20615 0.93637 0.0
C723 C 0.49888 0.14483 0.98108 0.0
C724 C 0.51742 0.12956 0.97201 0.0
C725 C 0.5012 0.16891 0.98078 0.0
C726 C 0.53314 0.21537 0.9526 0.0
H727 H 0.57269 0.31264 0.00833 0.0
H728 H 0.55962 0.27262 0.00805 0.0
H729 H 0.54363 0.24771 0.93857 0.0
H730 H 0.55252 0.12746 0.95482 0.0
H731 H 0.55651 0.16967 0.95411 0.0
H732 H 0.51501 0.20738 0.00829 0.0
C733 C 0.55339 0.28434 0.99441 0.0
C734 C 0.53707 0.23915 0.95381 0.0
C735 C 0.56097 0.30716 0.99451 0.0
C736 C 0.53801 0.13885 0.962 0.0
C737 C 0.54021 0.16296 0.96148 0.0
C738 C 0.52096 0.21609 0.9929 0.0
C739 C 0.53904 0.2764 0.9762 0.0
C740 C 0.53335 0.25155 0.97468 0.0
C741 C 0.522 0.17818 0.9712 0.0
C742 C 0.52516 0.2036 0.97216 0.0
H743 H 0.53343 0.32621 0.94469 0.0
H744 H 0.52017 0.28637 0.94458 0.0
H745 H 0.52207 0.24902 0.01044 0.0
H746 H 0.48293 0.13814 0.98913 0.0
H747 H 0.48682 0.18028 0.98823 0.0
C748 C 0.95434 0.70574 0.47552 0.0
C749 C 0.93304 0.69949 0.46415 0.0
C750 C 0.96095 0.72889 0.47564 0.0
C751 C 0.9359 0.78912 0.4682 0.0
H752 H 1.00264 0.80274 0.45443 0.0
C753 C 0.96235 0.88314 0.45442 0.0
C754 C 0.98375 0.88967 0.46531 0.0
C755 C 0.95716 0.85969 0.45275 0.0
C756 C 0.98399 0.79921 0.45851 0.0
H757 H 0.90215 0.71274 0.4438 0.0
H758 H 0.91346 0.75305 0.44439 0.0
H759 H 0.99135 0.76224 0.45593 0.0
H760 H 0.01688 0.87679 0.48238 0.0
H761 H 0.00774 0.8358 0.47969 0.0
H762 H 0.92849 0.82594 0.47108 0.0
C763 C 0.9249 0.74009 0.45341 0.0
C764 C 0.97754 0.77603 0.4594 0.0
C765 C 0.91837 0.71698 0.45318 0.0
C766 C 1.00036 0.87223 0.47366 0.0
C767 C 0.99511 0.84875 0.47212 0.0
C768 C 0.94234 0.81225 0.46742 0.0
C769 C 0.94633 0.74627 0.46451 0.0
C770 C 0.95341 0.77078 0.46417 0.0
C771 C 0.97319 0.84226 0.4621 0.0
C772 C 0.96644 0.81759 0.46247 0.0
H773 H 0.9659 0.69274 0.48435 0.0
H774 H 0.97741 0.73323 0.48458 0.0
H775 H 0.91723 0.78558 0.47224 0.0
H776 H 0.94938 0.89624 0.44755 0.0
H777 H 0.94038 0.85523 0.44444 0.0
C778 C 0.39627 0.72432 0.62273 0.0
C779 C 0.40736 0.74559 0.61978 0.0
C780 C 0.40582 0.70388 0.61201 0.0
C781 C 0.44686 0.68234 0.56434 0.0
H782 H 0.4455 0.62395 0.59745 0.0
C783 C 0.47177 0.59237 0.52095 0.0
C784 C 0.48418 0.57529 0.53453 0.0
C785 C 0.46292 0.61355 0.53087 0.0
C786 C 0.44628 0.6401 0.58799 0.0
H787 H 0.43731 0.76186 0.60302 0.0
H788 H 0.45437 0.72609 0.5849 0.0
H789 H 0.42981 0.65984 0.61592 0.0
H790 H 0.49768 0.56748 0.56904 0.0
H791 H 0.48282 0.60436 0.58609 0.0
H792 H 0.46397 0.66257 0.53662 0.0
C793 C 0.43801 0.7253 0.59524 0.0
C794 C 0.43693 0.66071 0.5985 0.0
C795 C 0.4284 0.74579 0.60592 0.0
C796 C 0.48801 0.58012 0.55808 0.0
C797 C 0.47931 0.60127 0.56793 0.0
C798 C 0.45631 0.66168 0.55383 0.0
C799 C 0.42683 0.70406 0.59812 0.0
C800 C 0.43704 0.68213 0.58684 0.0
C801 C 0.46637 0.61818 0.55457 0.0
C802 C 0.45618 0.64028 0.56554 0.0
H803 H 0.38024 0.72337 0.63349 0.0
H804 H 0.3965 0.68797 0.61443 0.0
H805 H 0.44702 0.69843 0.5547 0.0
H806 H 0.46846 0.58919 0.50276 0.0
H807 H 0.45286 0.62605 0.52006 0.0
C808 C 0.90064 0.89126 0.7125 0.0
C809 C 0.90311 0.90206 0.73423 0.0
C810 C 0.90895 0.90166 0.69233 0.0
C811 C 0.95003 0.94666 0.67161 0.0
H812 H 0.91261 0.94227 0.6151 0.0
C813 C 0.97264 0.99783 0.58869 0.0
C814 C 0.97204 0.98546 0.56763 0.0
C815 C 0.96377 0.98824 0.60907 0.0
C816 C 0.9234 0.94351 0.63068 0.0
H817 H 0.91684 0.93225 0.75159 0.0
H818 H 0.93062 0.95064 0.7165 0.0
H819 H 0.89838 0.92435 0.65034 0.0
H820 H 0.96125 0.95341 0.55153 0.0
H821 H 0.94579 0.93682 0.58693 0.0
H822 H 0.97495 0.96599 0.65189 0.0
C823 C 0.92252 0.93395 0.71502 0.0
C824 C 0.91527 0.93315 0.65093 0.0
C825 C 0.91429 0.92351 0.73519 0.0
C826 C 0.96199 0.96346 0.5674 0.0
C827 C 0.95299 0.95397 0.58772 0.0
C828 C 0.95809 0.95712 0.65137 0.0
C829 C 0.91992 0.92322 0.69327 0.0
C830 C 0.92851 0.93448 0.67169 0.0
C831 C 0.95391 0.96614 0.60887 0.0
C832 C 0.94494 0.9556 0.63061 0.0
H833 H 0.89191 0.87489 0.71096 0.0
H834 H 0.9069 0.89266 0.67599 0.0
H835 H 0.96097 0.94778 0.6871 0.0
H836 H 0.98025 0.0148 0.58951 0.0
H837 H 0.96452 0.99821 0.625 0.0
C838 C 0.59046 0.09033 0.23849 0.0
C839 C 0.60198 0.1116 0.23798 0.0
C840 C 0.58265 0.07991 0.21804 0.0
C841 C 0.59176 0.08037 0.15418 0.0
H842 H 0.53133 0.04872 0.15323 0.0
C843 C 0.54586 0.05216 0.06928 0.0
C844 C 0.53544 0.03034 0.06872 0.0
C845 C 0.55479 0.06111 0.08996 0.0
C846 C 0.5484 0.05725 0.15326 0.0
H847 H 0.61427 0.13846 0.21524 0.0
H848 H 0.59997 0.12076 0.17979 0.0
H849 H 0.54475 0.06657 0.18906 0.0
H850 H 0.52653 1.00072 0.08954 0.0
H851 H 0.54212 0.01641 0.12572 0.0
H852 H 0.59515 0.07136 0.11825 0.0
C853 C 0.59734 0.11187 0.19599 0.0
C854 C 0.55613 0.06749 0.17385 0.0
C855 C 0.60524 0.12224 0.21642 0.0
C856 C 0.53445 0.01756 0.08934 0.0
C857 C 0.54323 0.02662 0.11011 0.0
C858 C 0.58395 0.07025 0.13358 0.0
C859 C 0.58603 0.09049 0.19647 0.0
C860 C 0.57789 0.07929 0.17459 0.0
C861 C 0.55341 0.04857 0.11069 0.0
C862 C 0.56213 0.05864 0.13283 0.0
H863 H 0.58734 0.08172 0.25474 0.0
H864 H 0.57426 0.06334 0.21915 0.0
H865 H 0.60884 0.08886 0.15412 0.0
H866 H 0.54692 0.0625 0.05374 0.0
H867 H 0.56226 0.07815 0.08981 0.0
C868 C 0.45547 0.52939 0.20103 0.0
C869 C 0.43727 0.54631 0.19476 0.0
C870 C 0.46329 0.52766 0.224 0.0
C871 C 0.46731 0.56153 0.27753 0.0
H872 H 0.46786 0.50184 0.3085 0.0
C873 C 0.47486 0.55332 0.37672 0.0
C874 C 0.48695 0.53324 0.38576 0.0
C875 C 0.47096 0.5553 0.35291 0.0
C876 C 0.4683 0.51858 0.30005 0.0
H877 H 0.41337 0.57501 0.20729 0.0
H878 H 0.42714 0.57207 0.24733 0.0
H879 H 0.45747 0.50423 0.2676 0.0
H880 H 0.50561 0.50006 0.37719 0.0
H881 H 0.49961 0.5038 0.3356 0.0
H882 H 0.47836 0.57593 0.30979 0.0
C883 C 0.43525 0.56009 0.23457 0.0
C884 C 0.46225 0.51992 0.27663 0.0
C885 C 0.42721 0.5616 0.21175 0.0
C886 C 0.4959 0.51558 0.3706 0.0
C887 C 0.49233 0.51769 0.34681 0.0
C888 C 0.47367 0.56016 0.30088 0.0
C889 C 0.45334 0.54312 0.24091 0.0
C890 C 0.4614 0.54144 0.26526 0.0
C891 C 0.4794 0.53736 0.33768 0.0
C892 C 0.47395 0.53872 0.31252 0.0
H893 H 0.4635 0.51744 0.18821 0.0
H894 H 0.47733 0.51447 0.22851 0.0
H895 H 0.46703 0.5783 0.26903 0.0
H896 H 0.46768 0.56709 0.38814 0.0
H897 H 0.46065 0.57057 0.34656 0.0
C898 C 0.08843 0.43462 0.71003 0.0
C899 C 0.07965 0.45076 0.69342 0.0
C900 C 0.08132 0.43709 0.73314 0.0
C901 C 0.05882 0.4807 0.77548 0.0
H902 H 0.03839 0.42758 0.81015 0.0
C903 C 0.01976 0.49218 0.86697 0.0
C904 C 0.02728 0.47555 0.88356 0.0
C905 C 0.02484 0.48826 0.8436 0.0
C906 C 0.04431 0.44253 0.80079 0.0
H907 H 0.05671 0.4822 0.68794 0.0
H908 H 0.04434 0.48659 0.72844 0.0
H909 H 0.05031 0.42261 0.76962 0.0
H910 H 0.04547 0.44155 0.88879 0.0
H911 H 0.0549 0.4348 0.84786 0.0
H912 H 0.0534 0.50058 0.80658 0.0
C913 C 0.05673 0.47204 0.72353 0.0
C914 C 0.05108 0.43968 0.77759 0.0
C915 C 0.06366 0.46945 0.70037 0.0
C916 C 0.03936 0.45457 0.87629 0.0
C917 C 0.04469 0.45073 0.85286 0.0
C918 C 0.05226 0.48352 0.79868 0.0
C919 C 0.06547 0.45587 0.74013 0.0
C920 C 0.05831 0.45877 0.76471 0.0
C921 C 0.03782 0.46772 0.8363 0.0
C922 C 0.0448 0.4645 0.8116 0.0
H923 H 0.10058 0.41992 0.70508 0.0
H924 H 0.08848 0.42449 0.74562 0.0
H925 H 0.0647 0.49564 0.76606 0.0
H926 H 0.01005 0.50834 0.87213 0.0
H927 H 0.01873 0.50145 0.83127 0.0
C928 C 0.74383 0.92427 0.89974 0.0
C929 C 0.7441 0.90179 0.88981 0.0
C930 C 0.72278 0.93424 0.91033 0.0
C931 C 0.65558 0.92717 0.91553 0.0
H932 H 0.66143 0.96931 0.96768 0.0
C933 C 0.57471 0.95693 0.97513 0.0
C934 C 0.57086 0.98119 0.97816 0.0
C935 C 0.59595 0.94751 0.96448 0.0
C936 C 0.65956 0.95766 0.95305 0.0
H937 H 0.72181 0.87241 0.88325 0.0
H938 H 0.68592 0.88904 0.90287 0.0
H939 H 0.6981 0.95202 0.94918 0.0
H940 H 0.58659 0.01453 0.97288 0.0
H941 H 0.62412 0.99792 0.95488 0.0
H942 H 0.61693 0.93225 0.92019 0.0
C943 C 0.70175 0.89937 0.90192 0.0
C944 C 0.68058 0.94782 0.94229 0.0
C945 C 0.72265 0.88957 0.89096 0.0
C946 C 0.589 0.99578 0.97075 0.0
C947 C 0.61049 0.98629 0.96053 0.0
C948 C 0.63461 0.93665 0.9266 0.0
C949 C 0.70141 0.92191 0.91171 0.0
C950 C 0.67895 0.93245 0.9233 0.0
C951 C 0.61404 0.96209 0.95706 0.0
C952 C 0.63638 0.95203 0.94542 0.0
H953 H 0.75998 0.9342 0.89963 0.0
H954 H 0.72331 0.95176 0.91726 0.0
H955 H 0.65336 0.91591 0.90069 0.0
H956 H 0.56107 0.94522 0.98057 0.0
H957 H 0.59831 0.92878 0.96214 0.0
C958 C 0.77237 0.0913 0.38447 0.0
C959 C 0.76181 0.11302 0.39177 0.0
C960 C 0.79324 0.0815 0.39531 0.0
C961 C 0.82975 0.085 0.44924 0.0
H962 H 0.87986 0.05227 0.41229 0.0
C963 C 0.92541 0.05729 0.48509 0.0
C964 C 0.9354 0.03508 0.47868 0.0
C965 C 0.90377 0.06634 0.47503 0.0
C966 C 0.86592 0.06114 0.42289 0.0
H967 H 0.76498 0.14126 0.41652 0.0
H968 H 0.80172 0.12458 0.43487 0.0
H969 H 0.84331 0.06907 0.39357 0.0
H970 H 0.93025 1.00488 0.45685 0.0
H971 H 0.89255 0.0207 0.43933 0.0
H972 H 0.85264 0.0773 0.47852 0.0
C973 C 0.79366 0.11492 0.42097 0.0
C974 C 0.84491 0.07075 0.41216 0.0
C975 C 0.77274 0.12467 0.41019 0.0
C976 C 0.9231 0.02205 0.46216 0.0
C977 C 0.90156 0.03118 0.452 0.0
C978 C 0.85084 0.07549 0.45995 0.0
C979 C 0.80419 0.09319 0.4137 0.0
C980 C 0.82653 0.08282 0.42518 0.0
C981 C 0.89171 0.05348 0.45821 0.0
C982 C 0.86917 0.06344 0.4469 0.0
H983 H 0.76465 0.08192 0.37019 0.0
H984 H 0.80063 0.06462 0.3894 0.0
H985 H 0.81584 0.0938 0.4599 0.0
H986 H 0.93442 0.0678 0.49774 0.0
H987 H 0.89678 0.08366 0.48004 0.0
C988 C 0.2654 0.57518 0.02587 0.0
C989 C 0.27866 0.55823 0.03888 0.0
C990 C 0.24118 0.57201 0.01985 0.0
C991 C 0.19603 0.52748 0.01337 0.0
H992 H 0.14854 0.57823 0.02728 0.0
C993 C 0.09411 0.52225 0.99223 0.0
C994 C 0.07785 0.52882 0.01021 0.0
C995 C 0.11867 0.52696 0.9938 0.0
C996 C 0.16161 0.56393 0.02332 0.0
H997 H 0.27749 0.52431 0.05492 0.0
H998 H 0.23527 0.51869 0.04429 0.0
H999 H 0.19192 0.58379 0.03279 0.0
H1000 H 0.0745 0.546 0.04369 0.0
H1001 H 0.1175 0.55429 0.04638 0.0
H1002 H 0.16575 0.50745 1.00435 0.0
C1003 C 0.24352 0.53442 0.03879 0.0
C1004 C 0.18642 0.56718 0.02624 0.0
C1005 C 0.2676 0.5377 0.04501 0.0
C1006 C 0.08658 0.54068 0.02957 0.0
C1007 C 0.11115 0.54555 0.03105 0.0
C1008 C 0.17126 0.52429 0.01026 0.0
C1009 C 0.22994 0.5517 0.02648 0.0
C1010 C 0.20384 0.54888 0.02158 0.0
C1011 C 0.12748 0.53849 0.0133 0.0
C1012 C 0.15379 0.54239 0.01547 0.0
H1013 H 0.27348 0.59123 0.02107 0.0
H1014 H 0.23117 0.58551 0.0102 0.0
H1015 H 0.20908 0.51313 0.00952 0.0
H1016 H 0.08797 0.51315 0.97703 0.0
H1017 H 0.1308 0.52156 0.97975 0.0
C1018 C 0.24342 0.45396 0.51786 0.0
C1019 C 0.23248 0.45878 0.53947 0.0
C1020 C 0.26806 0.4577 0.51441 0.0
C1021 C 0.32548 0.4589 0.54515 0.0
H1022 H 0.34732 0.49583 0.49408 0.0
C1023 C 0.42448 0.48622 0.53885 0.0
C1024 C 0.43487 0.48836 0.51683 0.0
C1025 C 0.39986 0.48188 0.54116 0.0
C1026 C 0.34165 0.48509 0.5082 0.0
H1027 H 0.23856 0.47111 0.57438 0.0
H1028 H 0.28176 0.47729 0.56842 0.0
H1029 H 0.30404 0.48974 0.49854 0.0
H1030 H 0.42794 0.4868 0.47996 0.0
H1031 H 0.38529 0.47824 0.48393 0.0
H1032 H 0.36292 0.4536 0.55458 0.0
C1033 C 0.27123 0.47083 0.55416 0.0
C1034 C 0.31682 0.48176 0.51079 0.0
C1035 C 0.24653 0.46749 0.5575 0.0
C1036 C 0.42035 0.48546 0.49717 0.0
C1037 C 0.39584 0.48072 0.49947 0.0
C1038 C 0.35033 0.46189 0.54237 0.0
C1039 C 0.28222 0.46586 0.53264 0.0
C1040 C 0.30853 0.46883 0.52942 0.0
C1041 C 0.38516 0.47917 0.5215 0.0
C1042 C 0.35875 0.47522 0.52397 0.0
H1043 H 0.23292 0.44725 0.50371 0.0
H1044 H 0.2762 0.45368 0.49768 0.0
H1045 H 0.3195 0.4486 0.5595 0.0
H1046 H 0.4352 0.48856 0.55432 0.0
H1047 H 0.39227 0.48122 0.55841 0.0
C1048 C 0.89717 0.73668 0.90925 0.0
C1049 C 0.9107 0.74754 0.89219 0.0
C1050 C 0.9063 0.71612 0.91979 0.0
C1051 C 0.95361 0.66717 0.91267 0.0
H1052 H 0.9373 0.65542 0.97661 0.0
C1053 C 0.97559 0.5772 0.95428 0.0
C1054 C 0.98165 0.57614 0.97789 0.0
C1055 C 0.96747 0.59831 0.94417 0.0
C1056 C 0.94236 0.65846 0.95883 0.0
H1057 H 0.94463 0.7455 0.87307 0.0
H1058 H 0.96098 0.71007 0.89189 0.0
H1059 H 0.92309 0.69187 0.9588 0.0
H1060 H 0.98422 0.59661 0.00932 0.0
H1061 H 0.97087 0.6336 0.99157 0.0
H1062 H 0.97374 0.63421 0.91298 0.0
C1063 C 0.94297 0.71699 0.89675 0.0
C1064 C 0.93381 0.67932 0.94843 0.0
C1065 C 0.93366 0.73741 0.88599 0.0
C1066 C 0.97957 0.59678 0.99111 0.0
C1067 C 0.97173 0.618 0.98092 0.0
C1068 C 0.9624 0.64644 0.92314 0.0
C1069 C 0.9294 0.70597 0.91379 0.0
C1070 C 0.93913 0.68394 0.92511 0.0
C1071 C 0.96548 0.61909 0.95728 0.0
C1072 C 0.95674 0.64164 0.94634 0.0
H1073 H 0.87926 0.74387 0.91417 0.0
H1074 H 0.89499 0.708 0.93239 0.0
H1075 H 0.95792 0.66981 0.89463 0.0
H1076 H 0.97679 0.56161 0.94359 0.0
H1077 H 0.96238 0.59817 0.92609 0.0
C1078 C 0.43316 0.70956 0.04065 0.0
C1079 C 0.44322 0.69556 0.05848 0.0
C1080 C 0.44048 0.73224 0.03756 0.0
C1081 C 0.4655 0.78024 0.06995 0.0
H1082 H 0.4766 0.80602 0.00929 0.0
C1083 C 0.49484 0.87452 0.05773 0.0
C1084 C 0.48367 0.88721 0.03953 0.0
C1085 C 0.49184 0.8506 0.05984 0.0
C1086 C 0.47334 0.79915 0.02635 0.0
H1087 H 0.4698 0.69398 0.08625 0.0
H1088 H 0.48231 0.73367 0.08101 0.0
H1089 H 0.46799 0.76499 0.01285 0.0
H1090 H 0.46101 0.88455 0.00898 0.0
H1091 H 0.45509 0.84324 0.01315 0.0
H1092 H 0.4702 0.81445 0.08345 0.0
C1093 C 0.46852 0.72718 0.06966 0.0
C1094 C 0.46847 0.77564 0.02836 0.0
C1095 C 0.46132 0.70449 0.07266 0.0
C1096 C 0.46953 0.87543 0.02347 0.0
C1097 C 0.46646 0.85161 0.02563 0.0
C1098 C 0.47021 0.80378 0.06794 0.0
C1099 C 0.45794 0.7414 0.05229 0.0
C1100 C 0.46431 0.76601 0.05016 0.0
C1101 C 0.4776 0.83888 0.04379 0.0
C1102 C 0.47395 0.81357 0.04609 0.0
H1103 H 0.41899 0.70332 0.0296 0.0
H1104 H 0.43185 0.7429 0.02416 0.0
H1105 H 0.46206 0.77334 0.08697 0.0
H1106 H 0.50575 0.88309 0.07046 0.0
H1107 H 0.50086 0.84125 0.07393 0.0
C1108 C 0.06548 0.31009 0.51875 0.0
C1109 C 0.05821 0.32447 0.53755 0.0
C1110 C 0.0587 0.28705 0.51761 0.0
C1111 C 0.01719 0.24491 0.54216 0.0
H1112 H 0.06988 0.2 0.52588 0.0
C1113 C 0.01219 0.14477 0.55402 0.0
C1114 C 0.02191 0.13072 0.53587 0.0
C1115 C 0.01522 0.16883 0.55424 0.0
C1116 C 0.05489 0.21231 0.53023 0.0
H1117 H 0.03735 0.32625 0.56944 0.0
H1118 H 0.02553 0.28601 0.56745 0.0
H1119 H 0.07671 0.24143 0.5251 0.0
H1120 H 0.04136 0.13104 0.5032 0.0
H1121 H 0.0467 0.17271 0.50365 0.0
H1122 H 0.99545 0.21556 0.54745 0.0
C1123 C 0.03626 0.29261 0.55347 0.0
C1124 C 0.05878 0.23607 0.52971 0.0
C1125 C 0.043 0.31568 0.55459 0.0
C1126 C 0.03425 0.14125 0.51777 0.0
C1127 C 0.03727 0.16517 0.51799 0.0
C1128 C 0.01329 0.22104 0.54269 0.0
C1129 C 0.04457 0.27787 0.53529 0.0
C1130 C 0.03996 0.25266 0.53552 0.0
C1131 C 0.02799 0.17921 0.53629 0.0
C1132 C 0.03207 0.20452 0.53658 0.0
H1133 H 0.07691 0.3165 0.5052 0.0
H1134 H 0.06495 0.27626 0.50311 0.0
H1135 H 1.00231 0.25728 0.54663 0.0
H1136 H 1.00262 0.13713 0.56821 0.0
H1137 H 0.00801 0.17921 0.56865 0.0
C1138 C 0.57447 0.27703 0.39236 0.0
C1139 C 0.59792 0.26736 0.39729 0.0
C1140 C 0.56547 0.29743 0.40358 0.0
C1141 C 0.57708 0.33622 0.45433 0.0
H1142 H 0.53503 0.38029 0.4204 0.0
C1143 C 0.53355 0.42035 0.49751 0.0
C1144 C 0.53085 0.44043 0.48377 0.0
C1145 C 0.54093 0.39872 0.48757 0.0
C1146 C 0.54698 0.36835 0.43013 0.0
H1147 H 0.63051 0.27178 0.41748 0.0
H1148 H 0.61528 0.30769 0.43645 0.0
H1149 H 0.54995 0.34432 0.40177 0.0
H1150 H 0.53437 0.4536 0.4489 0.0
H1151 H 0.548 0.41643 0.43188 0.0
H1152 H 0.57508 0.36086 0.4823 0.0
C1153 C 0.60339 0.29921 0.42453 0.0
C1154 C 0.55524 0.34741 0.41951 0.0
C1155 C 0.61224 0.27865 0.41355 0.0
C1156 C 0.53601 0.43845 0.45999 0.0
C1157 C 0.54367 0.41699 0.45015 0.0
C1158 C 0.56905 0.35732 0.46487 0.0
C1159 C 0.57984 0.30891 0.41978 0.0
C1160 C 0.57051 0.33104 0.4314 0.0
C1161 C 0.54607 0.39673 0.46371 0.0
C1162 C 0.55399 0.37379 0.45287 0.0
H1163 H 0.56292 0.26857 0.38009 0.0
H1164 H 0.54709 0.30402 0.39972 0.0
H1165 H 0.58845 0.32396 0.46427 0.0
H1166 H 0.52962 0.42127 0.51586 0.0
H1167 H 0.54225 0.38352 0.49858 0.0
loop_
_geom_bond_atom_site_label_1
_geom_bond_atom_site_label_2
_geom_bond_distance
_geom_bond_site_symmetry_2
_ccdc_geom_bond_type
C0 C1 1.386 . S
C0 C2 1.397 . S
C0 H24 0.931 . S
C1 C0 1.386 . S
C1 C5 1.397 . S
C2 C0 1.397 . S
C2 C3 1.384 . S
C2 H25 0.930 . S
C3 C2 1.384 . S
C3 C4 1.377 . S
C3 C6 1.481 . S
C4 C3 1.377 . S
C4 C5 1.389 . S
C4 H26 0.929 . S
C5 C1 1.397 . S
C5 C4 1.389 . S
C5 H27 0.931 . S
C6 C3 1.481 . S
C6 C7 1.387 . S
C6 C11 1.390 . S
C7 C6 1.387 . S
C7 C8 1.401 . S
C7 H28 0.930 . S
C8 C7 1.401 . S
C8 C9 1.376 . S
C8 C17 1.511 . S
C9 C8 1.376 . S
C9 C10 1.392 . S
C9 H30 0.931 . S
C10 C9 1.392 . S
C10 C11 1.361 . S
C10 C12 1.500 . S
C11 C6 1.390 . S
C11 C10 1.361 . S
C11 H29 0.931 . S
C12 C10 1.500 . S
C12 C13 1.371 . S
C12 C14 1.365 . S
C13 C12 1.371 . S
C13 C23 1.386 . S
C13 H31 0.931 . S
C14 C12 1.365 . S
C14 C15 1.409 . S
C14 H32 0.929 . S
C15 C14 1.409 . S
C15 C16 1.380 . S
C15 H33 0.930 . S
C16 C15 1.380 . S
C16 C23 1.357 . S
C17 C8 1.511 . S
C17 C18 1.341 . S
C17 C19 1.371 . S
C18 C17 1.341 . S
C18 C22 1.394 . S
C18 H34 0.930 . S
C19 C17 1.371 . S
C19 C20 1.392 . S
C19 H35 0.931 . S
C20 C19 1.392 . S
C20 C21 1.331 . S
C20 H38 0.932 . S
C21 C20 1.331 . S
C21 C22 1.336 . S
C22 C18 1.394 . S
C22 C21 1.336 . S
C22 H37 0.929 . S
C23 C13 1.386 . S
C23 C16 1.357 . S
C23 H36 0.928 . S
H24 C0 0.931 . S
H25 C2 0.930 . S
H26 C4 0.929 . S
H27 C5 0.931 . S
H28 C7 0.930 . S
H29 C11 0.931 . S
H30 C9 0.931 . S
H31 C13 0.931 . S
H32 C14 0.929 . S
H33 C15 0.930 . S
H34 C18 0.930 . S
H35 C19 0.931 . S
H36 C23 0.928 . S
H37 C22 0.929 . S
H38 C20 0.932 . S
C39 C40 1.386 . S
C39 C41 1.397 . S
C39 H63 0.931 . S
C40 C39 1.386 . S
C40 C44 1.397 . S
C41 C39 1.397 . S
C41 C42 1.384 . S
C41 H64 0.930 . S
C42 C41 1.384 . S
C42 C43 1.377 . S
C42 C45 1.481 . S
C43 C42 1.377 . S
C43 C44 1.389 . S
C43 H65 0.929 . S
C44 C40 1.397 . S
C44 C43 1.389 . S
C44 H66 0.931 . S
C45 C42 1.481 . S
C45 C46 1.387 . S
C45 C50 1.390 . S
C46 C45 1.387 . S
C46 C47 1.401 . S
C46 H67 0.930 . S
C47 C46 1.401 . S
C47 C48 1.376 . S
C47 C56 1.511 . S
C48 C47 1.376 . S
C48 C49 1.392 . S
C48 H69 0.931 . S
C49 C48 1.392 . S
C49 C50 1.361 . S
C49 C51 1.500 . S
C50 C45 1.390 . S
C50 C49 1.361 . S
C50 H68 0.931 . S
C51 C49 1.500 . S
C51 C52 1.371 . S
C51 C53 1.365 . S
C52 C51 1.371 . S
C52 C62 1.386 . S
C52 H70 0.931 . S
C53 C51 1.365 . S
C53 C54 1.409 . S
C53 H71 0.929 . S
C54 C53 1.409 . S
C54 C55 1.380 . S
C54 H72 0.930 . S
C55 C54 1.380 . S
C55 C62 1.357 . S
C56 C47 1.511 . S
C56 C57 1.341 . S
C56 C58 1.371 . S
C57 C56 1.341 . S
C57 C61 1.394 . S
C57 H73 0.930 . S
C58 C56 1.371 . S
C58 C59 1.392 . S
C58 H74 0.931 . S
C59 C58 1.392 . S
C59 C60 1.331 . S
C59 H77 0.932 . S
C60 C59 1.331 . S
C60 C61 1.336 . S
C61 C57 1.394 . S
C61 C60 1.336 . S
C61 H76 0.929 . S
C62 C52 1.386 . S
C62 C55 1.357 . S
C62 H75 0.928 . S
H63 C39 0.931 . S
H64 C41 0.930 . S
H65 C43 0.929 . S
H66 C44 0.931 . S
H67 C46 0.930 . S
H68 C50 0.931 . S
H69 C48 0.931 . S
H70 C52 0.931 . S
H71 C53 0.929 . S
H72 C54 0.930 . S
H73 C57 0.930 . S
H74 C58 0.931 . S
H75 C62 0.928 . S
H76 C61 0.929 . S
H77 C59 0.932 . S
C78 C79 1.386 . S
C78 C80 1.397 . S
C78 H102 0.931 . S
C79 C78 1.386 . S
C79 C83 1.397 . S
C80 C78 1.397 . S
C80 C81 1.384 . S
C80 H103 0.930 . S
C81 C80 1.384 . S
C81 C82 1.377 . S
C81 C84 1.481 . S
C82 C81 1.377 . S
C82 C83 1.389 . S
C82 H104 0.929 . S
C83 C79 1.397 . S
C83 C82 1.389 . S
C83 H105 0.931 . S
C84 C81 1.481 . S
C84 C85 1.387 . S
C84 C89 1.390 . S
C85 C84 1.387 . S
C85 C86 1.401 . S
C85 H106 0.930 . S
C86 C85 1.401 . S
C86 C87 1.376 . S
C86 C95 1.511 . S
C87 C86 1.376 . S
C87 C88 1.392 . S
C87 H108 0.931 . S
C88 C87 1.392 . S
C88 C89 1.361 . S
C88 C90 1.500 . S
C89 C84 1.390 . S
C89 C88 1.361 . S
C89 H107 0.931 . S
C90 C88 1.500 . S
C90 C91 1.371 . S
C90 C92 1.365 . S
C91 C90 1.371 . S
C91 C101 1.386 . S
C91 H109 0.931 . S
C92 C90 1.365 . S
C92 C93 1.409 . S
C92 H110 0.929 . S
C93 C92 1.409 . S
C93 C94 1.380 . S
C93 H111 0.930 . S
C94 C93 1.380 . S
C94 C101 1.357 . S
C95 C86 1.511 . S
C95 C96 1.341 . S
C95 C97 1.371 . S
C96 C95 1.341 . S
C96 C100 1.394 . S
C96 H112 0.930 . S
C97 C95 1.371 . S
C97 C98 1.392 . S
C97 H113 0.931 . S
C98 C97 1.392 . S
C98 C99 1.331 . S
C98 H116 0.932 . S
C99 C98 1.331 . S
C99 C100 1.336 . S
C100 C96 1.394 . S
C100 C99 1.336 . S
C100 H115 0.929 . S
C101 C91 1.386 . S
C101 C94 1.357 . S
C101 H114 0.928 . S
H102 C78 0.931 . S
H103 C80 0.930 . S
H104 C82 0.929 . S
H105 C83 0.931 . S
H106 C85 0.930 . S
H107 C89 0.931 . S
H108 C87 0.931 . S
H109 C91 0.931 . S
H110 C92 0.929 . S
H111 C93 0.930 . S
H112 C96 0.930 . S
H113 C97 0.931 . S
H114 C101 0.928 . S
H115 C100 0.929 . S
H116 C98 0.932 . S
C117 C118 1.386 . S
C117 C119 1.397 . S
C117 H141 0.931 . S
C118 C117 1.386 . S
C118 C122 1.397 . S
C119 C117 1.397 . S
C119 C120 1.384 . S
C119 H142 0.930 . S
C120 C119 1.384 . S
C120 C121 1.377 . S
C120 C123 1.481 . S
C121 C120 1.377 . S
C121 C122 1.389 . S
C121 H143 0.929 . S
C122 C118 1.397 . S
C122 C121 1.389 . S
C122 H144 0.931 . S
C123 C120 1.481 . S
C123 C124 1.387 . S
C123 C128 1.390 . S
C124 C123 1.387 . S
C124 C125 1.401 . S
C124 H145 0.930 . S
C125 C124 1.401 . S
C125 C126 1.376 . S
C125 C134 1.511 . S
C126 C125 1.376 . S
C126 C127 1.392 . S
C126 H147 0.931 . S
C127 C126 1.392 . S
C127 C128 1.361 . S
C127 C129 1.500 . S
C128 C123 1.390 . S
C128 C127 1.361 . S
C128 H146 0.931 . S
C129 C127 1.500 . S
C129 C130 1.371 . S
C129 C131 1.365 . S
C130 C129 1.371 . S
C130 C140 1.386 . S
C130 H148 0.931 . S
C131 C129 1.365 . S
C131 C132 1.409 . S
C131 H149 0.929 . S
C132 C131 1.409 . S
C132 C133 1.380 . S
C132 H150 0.930 . S
C133 C132 1.380 . S
C133 C140 1.357 . S
C134 C125 1.511 . S
C134 C135 1.341 . S
C134 C136 1.371 . S
C135 C134 1.341 . S
C135 C139 1.394 . S
C135 H151 0.930 . S
C136 C134 1.371 . S
C136 C137 1.392 . S
C136 H152 0.931 . S
C137 C136 1.392 . S
C137 C138 1.331 . S
C137 H155 0.932 . S
C138 C137 1.331 . S
C138 C139 1.336 . S
C139 C135 1.394 . S
C139 C138 1.336 . S
C139 H154 0.929 . S
C140 C130 1.386 . S
C140 C133 1.357 . S
C140 H153 0.928 . S
H141 C117 0.931 . S
H142 C119 0.930 . S
H143 C121 0.929 . S
H144 C122 0.931 . S
H145 C124 0.930 . S
H146 C128 0.931 . S
H147 C126 0.931 . S
H148 C130 0.931 . S
H149 C131 0.929 . S
H150 C132 0.930 . S
H151 C135 0.930 . S
H152 C136 0.931 . S
H153 C140 0.928 . S
H154 C139 0.929 . S
H155 C137 0.932 . S
C156 C157 1.386 . S
C156 C158 1.397 . S
C156 H180 0.931 . S
C157 C156 1.386 . S
C157 C161 1.397 . S
C158 C156 1.397 . S
C158 C159 1.384 . S
C158 H181 0.930 . S
C159 C158 1.384 . S
C159 C160 1.377 . S
C159 C162 1.481 . S
C160 C159 1.377 . S
C160 C161 1.389 . S
C160 H182 0.929 . S
C161 C157 1.397 . S
C161 C160 1.389 . S
C161 H183 0.931 . S
C162 C159 1.481 . S
C162 C163 1.387 . S
C162 C167 1.390 . S
C163 C162 1.387 . S
C163 C164 1.401 . S
C163 H184 0.930 . S
C164 C163 1.401 . S
C164 C165 1.376 . S
C164 C173 1.511 . S
C165 C164 1.376 . S
C165 C166 1.392 . S
C165 H186 0.931 . S
C166 C165 1.392 . S
C166 C167 1.361 . S
C166 C168 1.500 . S
C167 C162 1.390 . S
C167 C166 1.361 . S
C167 H185 0.931 . S
C168 C166 1.500 . S
C168 C169 1.371 . S
C168 C170 1.365 . S
C169 C168 1.371 . S
C169 C179 1.386 . S
C169 H187 0.931 . S
C170 C168 1.365 . S
C170 C171 1.409 . S
C170 H188 0.929 . S
C171 C170 1.409 . S
C171 C172 1.380 . S
C171 H189 0.930 . S
C172 C171 1.380 . S
C172 C179 1.357 . S
C173 C164 1.511 . S
C173 C174 1.341 . S
C173 C175 1.371 . S
C174 C173 1.341 . S
C174 C178 1.394 . S
C174 H190 0.930 . S
C175 C173 1.371 . S
C175 C176 1.392 . S
C175 H191 0.931 . S
C176 C175 1.392 . S
C176 C177 1.331 . S
C176 H194 0.932 . S
C177 C176 1.331 . S
C177 C178 1.336 . S
C178 C174 1.394 . S
C178 C177 1.336 . S
C178 H193 0.929 . S
C179 C169 1.386 . S
C179 C172 1.357 . S
C179 H192 0.928 . S
H180 C156 0.931 . S
H181 C158 0.930 . S
H182 C160 0.929 . S
H183 C161 0.931 . S
H184 C163 0.930 . S
H185 C167 0.931 . S
H186 C165 0.931 . S
H187 C169 0.931 . S
H188 C170 0.929 . S
H189 C171 0.930 . S
H190 C174 0.930 . S
H191 C175 0.931 . S
H192 C179 0.928 . S
H193 C178 0.929 . S
H194 C176 0.932 . S
C195 C196 1.386 . S
C195 C197 1.397 . S
C195 H219 0.931 . S
C196 C195 1.386 . S
C196 C200 1.397 . S
C197 C195 1.397 . S
C197 C198 1.384 . S
C197 H220 0.930 . S
C198 C197 1.384 . S
C198 C199 1.377 . S
C198 C201 1.481 . S
C199 C198 1.377 . S
C199 C200 1.389 . S
C199 H221 0.929 . S
C200 C196 1.397 . S
C200 C199 1.389 . S
C200 H222 0.931 . S
C201 C198 1.481 . S
C201 C202 1.387 . S
C201 C206 1.390 . S
C202 C201 1.387 . S
C202 C203 1.401 . S
C202 H223 0.930 . S
C203 C202 1.401 . S
C203 C204 1.376 . S
C203 C212 1.511 . S
C204 C203 1.376 . S
C204 C205 1.392 . S
C204 H225 0.931 . S
C205 C204 1.392 . S
C205 C206 1.361 . S
C205 C207 1.500 . S
C206 C201 1.390 . S
C206 C205 1.361 . S
C206 H224 0.931 . S
C207 C205 1.500 . S
C207 C208 1.371 . S
C207 C209 1.365 . S
C208 C207 1.371 . S
C208 C218 1.386 . S
C208 H226 0.931 . S
C209 C207 1.365 . S
C209 C210 1.409 . S
C209 H227 0.929 . S
C210 C209 1.409 . S
C210 C211 1.380 . S
C210 H228 0.930 . S
C211 C210 1.380 . S
C211 C218 1.357 . S
C212 C203 1.511 . S
C212 C213 1.341 . S
C212 C214 1.371 . S
C213 C212 1.341 . S
C213 C217 1.394 . S
C213 H229 0.930 . S
C214 C212 1.371 . S
C214 C215 1.392 . S
C214 H230 0.931 . S
C215 C214 1.392 . S
C215 C216 1.331 . S
C215 H233 0.932 . S
C216 C215 1.331 . S
C216 C217 1.336 . S
C217 C213 1.394 . S
C217 C216 1.336 . S
C217 H232 0.929 . S
C218 C208 1.386 . S
C218 C211 1.357 . S
C218 H231 0.928 . S
H219 C195 0.931 . S
H220 C197 0.930 . S
H221 C199 0.929 . S
H222 C200 0.931 . S
H223 C202 0.930 . S
H224 C206 0.931 . S
H225 C204 0.931 . S
H226 C208 0.931 . S
H227 C209 0.929 . S
H228 C210 0.930 . S
H229 C213 0.930 . S
H230 C214 0.931 . S
H231 C218 0.928 . S
H232 C217 0.929 . S
H233 C215 0.932 . S
C234 C235 1.386 . S
C234 C236 1.397 . S
C234 H258 0.931 . S
C235 C234 1.386 . S
C235 C239 1.397 . S
C236 C234 1.397 . S
C236 C237 1.384 . S
C236 H259 0.930 . S
C237 C236 1.384 . S
C237 C238 1.377 . S
C237 C240 1.481 . S
C238 C237 1.377 . S
C238 C239 1.389 . S
C238 H260 0.929 . S
C239 C235 1.397 . S
C239 C238 1.389 . S
C239 H261 0.931 . S
C240 C237 1.481 . S
C240 C241 1.387 . S
C240 C245 1.390 . S
C241 C240 1.387 . S
C241 C242 1.401 . S
C241 H262 0.930 . S
C242 C241 1.401 . S
C242 C243 1.376 . S
C242 C251 1.511 . S
C243 C242 1.376 . S
C243 C244 1.392 . S
C243 H264 0.931 . S
C244 C243 1.392 . S
C244 C245 1.361 . S
C244 C246 1.500 . S
C245 C240 1.390 . S
C245 C244 1.361 . S
C245 H263 0.931 . S
C246 C244 1.500 . S
C246 C247 1.371 . S
C246 C248 1.365 . S
C247 C246 1.371 . S
C247 C257 1.386 . S
C247 H265 0.931 . S
C248 C246 1.365 . S
C248 C249 1.409 . S
C248 H266 0.929 . S
C249 C248 1.409 . S
C249 C250 1.380 . S
C249 H267 0.930 . S
C250 C249 1.380 . S
C250 C257 1.357 . S
C251 C242 1.511 . S
C251 C252 1.341 . S
C251 C253 1.371 . S
C252 C251 1.341 . S
C252 C256 1.394 . S
C252 H268 0.930 . S
C253 C251 1.371 . S
C253 C254 1.392 . S
C253 H269 0.931 . S
C254 C253 1.392 . S
C254 C255 1.331 . S
C254 H272 0.932 . S
C255 C254 1.331 . S
C255 C256 1.336 . S
C256 C252 1.394 . S
C256 C255 1.336 . S
C256 H271 0.929 . S
C257 C247 1.386 . S
C257 C250 1.357 . S
C257 H270 0.928 . S
H258 C234 0.931 . S
H259 C236 0.930 . S
H260 C238 0.929 . S
H261 C239 0.931 . S
H262 C241 0.930 . S
H263 C245 0.931 . S
H264 C243 0.931 . S
H265 C247 0.931 . S
H266 C248 0.929 . S
H267 C249 0.930 . S
H268 C252 0.930 . S
H269 C253 0.931 . S
H270 C257 0.928 . S
H271 C256 0.929 . S
H272 C254 0.932 . S
C273 C274 1.386 . S
C273 C275 1.397 . S
C273 H297 0.931 . S
C274 C273 1.386 . S
C274 C278 1.397 . S
C275 C273 1.397 . S
C275 C276 1.384 . S
C275 H298 0.930 . S
C276 C275 1.384 . S
C276 C277 1.377 . S
C276 C279 1.481 . S
C277 C276 1.377 . S
C277 C278 1.389 . S
C277 H299 0.929 . S
C278 C274 1.397 . S
C278 C277 1.389 . S
C278 H300 0.931 . S
C279 C276 1.481 . S
C279 C280 1.387 . S
C279 C284 1.390 . S
C280 C279 1.387 . S
C280 C281 1.401 . S
C280 H301 0.930 . S
C281 C280 1.401 . S
C281 C282 1.376 . S
C281 C290 1.511 . S
C282 C281 1.376 . S
C282 C283 1.392 . S
C282 H303 0.931 . S
C283 C282 1.392 . S
C283 C284 1.361 . S
C283 C285 1.500 . S
C284 C279 1.390 . S
C284 C283 1.361 . S
C284 H302 0.931 . S
C285 C283 1.500 . S
C285 C286 1.371 . S
C285 C287 1.365 . S
C286 C285 1.371 . S
C286 C296 1.386 . S
C286 H304 0.931 . S
C287 C285 1.365 . S
C287 C288 1.409 . S
C287 H305 0.929 . S
C288 C287 1.409 . S
C288 C289 1.380 . S
C288 H306 0.930 . S
C289 C288 1.380 . S
C289 C296 1.357 . S
C290 C281 1.511 . S
C290 C291 1.341 . S
C290 C292 1.371 . S
C291 C290 1.341 . S
C291 C295 1.394 . S
C291 H307 0.930 . S
C292 C290 1.371 . S
C292 C293 1.392 . S
C292 H308 0.931 . S
C293 C292 1.392 . S
C293 C294 1.331 . S
C293 H311 0.932 . S
C294 C293 1.331 . S
C294 C295 1.336 . S
C295 C291 1.394 . S
C295 C294 1.336 . S
C295 H310 0.929 . S
C296 C286 1.386 . S
C296 C289 1.357 . S
C296 H309 0.928 . S
H297 C273 0.931 . S
H298 C275 0.930 . S
H299 C277 0.929 . S
H300 C278 0.931 . S
H301 C280 0.930 . S
H302 C284 0.931 . S
H303 C282 0.931 . S
H304 C286 0.931 . S
H305 C287 0.929 . S
H306 C288 0.930 . S
H307 C291 0.930 . S
H308 C292 0.931 . S
H309 C296 0.928 . S
H310 C295 0.929 . S
H311 C293 0.932 . S
C312 O328 1.251 . S
C312 O330 1.254 1_545 S
N313 C314 1.333 . S
N313 C318 1.307 . S
N313 Zn319 2.020 . S
C314 N313 1.333 . S
C314 C315 1.379 . S
C314 H332 0.952 . S
C315 C314 1.379 . S
C315 C316 1.390 . S
C315 H342 0.949 . S
C316 C315 1.390 . S
C316 C317 1.357 . S
C317 C316 1.357 . S
C317 C318 1.370 . S
C317 H343 0.950 . S
C318 N313 1.307 . S
C318 C317 1.370 . S
C318 H336 0.948 1_455 S
Zn319 N313 2.020 . S
Zn319 O328 2.039 . S
Zn319 O334 2.034 . S
Zn319 O338 2.025 1_455 S
Zn319 O340 2.024 1_455 S
C320 O339 1.246 1_545 S
C320 O340 1.249 . S
N321 C322 1.307 . S
N321 C323 1.333 . S
N321 Zn327 2.020 . S
C322 N321 1.307 . S
C322 C326 1.370 . S
C322 H333 0.948 1_655 S
C323 N321 1.333 . S
C323 C324 1.379 . S
C323 H331 0.952 . S
C324 C323 1.379 . S
C324 C325 1.390 . S
C324 H344 0.949 . S
C325 C324 1.390 . S
C325 C326 1.357 . S
C326 C322 1.370 . S
C326 C325 1.357 . S
C326 H345 0.952 . S
Zn327 N321 2.020 . S
Zn327 O330 2.025 1_655 S
Zn327 O335 2.024 1_655 S
Zn327 O337 2.039 . S
Zn327 O339 2.034 . S
O328 C312 1.251 . S
O328 Zn319 2.039 . S
C329 O334 1.246 1_565 S
C329 O335 1.249 . S
O330 C312 1.254 1_565 S
O330 Zn327 2.025 1_455 S
H331 C323 0.952 . S
H332 C314 0.952 . S
H333 C322 0.948 1_455 S
O334 Zn319 2.034 . S
O334 C329 1.246 1_545 S
O335 Zn327 2.024 1_455 S
O335 C329 1.249 . S
H336 C318 0.948 1_655 S
O337 Zn327 2.039 . S
O337 C341 1.251 . S
O338 Zn319 2.025 1_655 S
O338 C341 1.254 1_545 S
O339 C320 1.246 1_565 S
O339 Zn327 2.034 . S
O340 Zn319 2.024 1_655 S
O340 C320 1.249 . S
C341 O337 1.251 . S
C341 O338 1.254 1_565 S
H342 C315 0.949 . S
H343 C317 0.950 . S
H344 C324 0.949 . S
H345 C326 0.952 . S
C346 O362 1.251 1_565 S
C346 O364 1.254 . S
N347 C348 1.333 . S
N347 C352 1.307 . S
N347 Zn353 2.020 . S
C348 N347 1.333 . S
C348 C349 1.379 . S
C348 H366 0.952 . S
C349 C348 1.379 . S
C349 C350 1.390 . S
C349 H376 0.949 . S
C350 C349 1.390 . S
C350 C351 1.357 . S
C351 C350 1.357 . S
C351 C352 1.370 . S
C351 H377 0.950 . S
C352 N347 1.307 . S
C352 C351 1.370 . S
C352 H370 0.948 . S
Zn353 N347 2.020 . S
Zn353 O362 2.039 . S
Zn353 O368 2.034 1_556 S
Zn353 O372 2.025 1_556 S
Zn353 O374 2.024 . S
C354 O373 1.246 . S
C354 O374 1.249 1_565 S
N355 C356 1.307 . S
N355 C357 1.333 . S
N355 Zn361 2.020 . S
C356 N355 1.307 . S
C356 C360 1.370 . S
C356 H367 0.948 . S
C357 N355 1.333 . S
C357 C358 1.379 . S
C357 H365 0.952 . S
C358 C357 1.379 . S
C358 C359 1.390 . S
C358 H378 0.949 . S
C359 C358 1.390 . S
C359 C360 1.357 . S
C360 C356 1.370 . S
C360 C359 1.357 . S
C360 H379 0.950 . S
Zn361 N355 2.020 . S
Zn361 O364 2.025 1_554 S
Zn361 O369 2.024 . S
Zn361 O371 2.039 . S
Zn361 O373 2.034 1_554 S
O362 C346 1.251 1_545 S
O362 Zn353 2.039 . S
C363 O368 1.246 . S
C363 O369 1.249 1_545 S
O364 C346 1.254 . S
O364 Zn361 2.025 1_556 S
H365 C357 0.952 . S
H366 C348 0.952 . S
H367 C356 0.948 . S
O368 Zn353 2.034 1_554 S
O368 C363 1.246 . S
O369 Zn361 2.024 . S
O369 C363 1.249 1_565 S
H370 C352 0.948 . S
O371 Zn361 2.039 . S
O371 C375 1.251 1_565 S
O372 Zn353 2.025 1_554 S
O372 C375 1.254 . S
O373 C354 1.246 . S
O373 Zn361 2.034 1_556 S
O374 Zn353 2.024 . S
O374 C354 1.249 1_545 S
C375 O371 1.251 1_545 S
C375 O372 1.254 . S
H376 C349 0.949 . S
H377 C351 0.950 . S
H378 C358 0.949 . S
H379 C360 0.950 . S
C380 O396 1.251 . S
C380 O398 1.254 . S
N381 C382 1.333 . S
N381 C386 1.307 . S
N381 Zn387 2.020 . S
C382 N381 1.333 . S
C382 C383 1.379 . S
C382 H400 0.952 . S
C383 C382 1.379 . S
C383 C384 1.390 . S
C383 H410 0.949 . S
C384 C383 1.390 . S
C384 C385 1.357 . S
C385 C384 1.357 . S
C385 C386 1.370 . S
C385 H411 0.950 . S
C386 N381 1.307 . S
C386 C385 1.370 . S
C386 H404 0.948 . S
Zn387 N381 2.020 . S
Zn387 O396 2.039 . S
Zn387 O402 2.034 . S
Zn387 O406 2.025 . S
Zn387 O408 2.024 . S
C388 O407 1.246 . S
C388 O408 1.249 . S
N389 C390 1.307 . S
N389 C391 1.333 . S
N389 Zn395 2.020 . S
C390 N389 1.307 . S
C390 C394 1.370 . S
C390 H401 0.948 . S
C391 N389 1.333 . S
C391 C392 1.379 . S
C391 H399 0.952 . S
C392 C391 1.379 . S
C392 C393 1.390 . S
C392 H412 0.949 . S
C393 C392 1.390 . S
C393 C394 1.357 . S
C394 C390 1.370 . S
C394 C393 1.357 . S
C394 H413 0.950 . S
Zn395 N389 2.020 . S
Zn395 O398 2.025 . S
Zn395 O403 2.024 . S
Zn395 O405 2.039 . S
Zn395 O407 2.034 . S
O396 C380 1.251 . S
O396 Zn387 2.039 . S
C397 O402 1.246 . S
C397 O403 1.249 . S
O398 C380 1.254 . S
O398 Zn395 2.025 . S
H399 C391 0.952 . S
H400 C382 0.952 . S
H401 C390 0.948 . S
O402 Zn387 2.034 . S
O402 C397 1.246 . S
O403 Zn395 2.024 . S
O403 C397 1.249 . S
H404 C386 0.948 . S
O405 Zn395 2.039 . S
O405 C409 1.251 . S
O406 Zn387 2.025 . S
O406 C409 1.254 . S
O407 C388 1.246 . S
O407 Zn395 2.034 . S
O408 Zn387 2.024 . S
O408 C388 1.249 . S
C409 O405 1.251 . S
C409 O406 1.254 . S
H410 C383 0.949 . S
H411 C385 0.950 . S
H412 C392 0.949 . S
H413 C394 0.950 . S
C414 O430 1.251 1_556 S
C414 O432 1.254 . S
N415 C416 1.333 . S
N415 C420 1.307 . S
N415 Zn421 2.020 . S
C416 N415 1.333 . S
C416 C417 1.379 . S
C416 H434 0.952 . S
C417 C416 1.379 . S
C417 C418 1.390 . S
C417 H444 0.949 . S
C418 C417 1.390 . S
C418 C419 1.357 . S
C419 C418 1.357 . S
C419 C420 1.370 . S
C419 H445 0.950 . S
C420 N415 1.307 . S
C420 C419 1.370 . S
C420 H438 0.948 . S
Zn421 N415 2.020 . S
Zn421 O430 2.039 . S
Zn421 O436 2.034 1_655 S
Zn421 O440 2.025 1_655 S
Zn421 O442 2.024 . S
C422 O441 1.246 . S
C422 O442 1.249 1_556 S
N423 C424 1.307 . S
N423 C425 1.333 . S
N423 Zn429 2.020 . S
C424 N423 1.307 . S
C424 C428 1.370 . S
C424 H435 0.948 . S
C425 N423 1.333 . S
C425 C426 1.379 . S
C425 H433 0.952 . S
C426 C425 1.379 . S
C426 C427 1.390 . S
C426 H446 0.949 . S
C427 C426 1.390 . S
C427 C428 1.357 . S
C428 C424 1.370 . S
C428 C427 1.357 . S
C428 H447 0.950 . S
Zn429 N423 2.020 . S
Zn429 O432 2.025 1_455 S
Zn429 O437 2.024 . S
Zn429 O439 2.039 . S
Zn429 O441 2.034 1_455 S
O430 C414 1.251 1_554 S
O430 Zn421 2.039 . S
C431 O436 1.246 . S
C431 O437 1.249 1_554 S
O432 C414 1.254 . S
O432 Zn429 2.025 1_655 S
H433 C425 0.952 . S
H434 C416 0.952 . S
H435 C424 0.948 . S
O436 Zn421 2.034 1_455 S
O436 C431 1.246 . S
O437 Zn429 2.024 . S
O437 C431 1.249 1_556 S
H438 C420 0.948 . S
O439 Zn429 2.039 . S
O439 C443 1.251 1_556 S
O440 Zn421 2.025 1_455 S
O440 C443 1.254 . S
O441 C422 1.246 . S
O441 Zn429 2.034 1_655 S
O442 Zn421 2.024 . S
O442 C422 1.249 1_554 S
C443 O439 1.251 1_554 S
C443 O440 1.254 . S
H444 C417 0.949 . S
H445 C419 0.950 . S
H446 C426 0.949 . S
H447 C428 0.950 . S
C448 C449 1.349 . S
C448 C450 1.327 . S
C448 H473 0.950 . S
C449 C448 1.349 . S
C449 C465 1.349 . S
C450 C448 1.327 . S
C450 C469 1.429 . S
C450 H474 0.950 . S
C451 C468 1.574 . S
C451 C470 1.368 . S
C451 H475 0.949 . S
H452 C456 0.949 . S
C453 C454 1.349 . S
C453 C455 1.327 . S
C453 H476 0.923 1_455 S
C454 C453 1.349 . S
C454 C466 1.349 . S
C455 C453 1.327 . S
C455 C471 1.429 . S
C455 H477 0.950 . S
C456 H452 0.949 . S
C456 C464 1.574 . S
C456 C472 1.368 . S
H457 C465 0.950 . S
H458 C463 0.950 . S
H459 C464 0.949 . S
H460 C466 0.950 . S
H461 C467 0.950 . S
H462 C468 0.949 . S
C463 H458 0.950 . S
C463 C465 1.327 . S
C463 C469 1.429 . S
C464 C456 1.574 . S
C464 H459 0.949 . S
C464 C470 1.368 . S
C465 C449 1.349 . S
C465 H457 0.950 . S
C465 C463 1.327 . S
C466 C454 1.349 . S
C466 H460 0.950 . S
C466 C467 1.327 . S
C467 H461 0.950 . S
C467 C466 1.327 . S
C467 C471 1.429 . S
C468 C451 1.574 . S
C468 H462 0.949 . S
C468 C472 1.368 . S
C469 C450 1.429 . S
C469 C463 1.429 . S
C469 C470 1.523 . S
C470 C451 1.368 . S
C470 C464 1.368 . S
C470 C469 1.523 . S
C471 C455 1.429 . S
C471 C467 1.429 . S
C471 C472 1.523 . S
C472 C456 1.368 . S
C472 C468 1.368 . S
C472 C471 1.523 . S
H473 C448 0.950 . S
H474 C450 0.950 . S
H475 C451 0.949 . S
H476 C453 0.923 1_655 S
H477 C455 0.950 . S
C478 C479 1.349 . S
C478 C480 1.327 . S
C478 H503 0.950 . S
C479 C478 1.349 . S
C479 C495 1.349 . S
C480 C478 1.327 . S
C480 C499 1.429 . S
C480 H504 0.950 . S
C481 C498 1.574 . S
C481 C500 1.368 . S
C481 H505 0.949 . S
H482 C486 0.949 . S
C483 C484 1.349 . S
C483 C485 1.327 . S
C483 H506 0.950 . S
C484 C483 1.349 . S
C484 C496 1.349 . S
C485 C483 1.327 . S
C485 C501 1.429 . S
C485 H507 0.950 . S
C486 H482 0.949 . S
C486 C494 1.574 . S
C486 C502 1.368 . S
H487 C495 0.950 . S
H488 C493 0.950 . S
H489 C494 0.949 . S
H490 C496 0.950 1_545 S
H491 C497 0.950 1_545 S
H492 C498 0.949 . S
C493 H488 0.950 . S
C493 C495 1.327 . S
C493 C499 1.429 . S
C494 C486 1.574 . S
C494 H489 0.949 . S
C494 C500 1.368 . S
C495 C479 1.349 . S
C495 H487 0.950 . S
C495 C493 1.327 . S
C496 C484 1.349 . S
C496 H490 0.950 1_565 S
C496 C497 1.327 . S
C497 H491 0.950 1_565 S
C497 C496 1.327 . S
C497 C501 1.429 . S
C498 C481 1.574 . S
C498 H492 0.949 . S
C498 C502 1.368 . S
C499 C480 1.429 . S
C499 C493 1.429 . S
C499 C500 1.523 . S
C500 C481 1.368 . S
C500 C494 1.368 . S
C500 C499 1.523 . S
C501 C485 1.429 . S
C501 C497 1.429 . S
C501 C502 1.523 . S
C502 C486 1.368 . S
C502 C498 1.368 . S
C502 C501 1.523 . S
H503 C478 0.950 . S
H504 C480 0.950 . S
H505 C481 0.949 . S
H506 C483 0.950 . S
H507 C485 0.950 . S
C508 C509 1.349 . S
C508 C510 1.327 . S
C508 H533 0.950 . S
C509 C508 1.349 . S
C509 C525 1.349 . S
C510 C508 1.327 . S
C510 C529 1.429 . S
C510 H534 0.950 . S
C511 C528 1.574 . S
C511 C530 1.368 . S
C511 H535 0.949 . S
H512 C516 0.949 . S
C513 C514 1.349 . S
C513 C515 1.327 . S
C513 H536 0.950 . S
C514 C513 1.349 . S
C514 C526 1.349 . S
C515 C513 1.327 . S
C515 C531 1.429 . S
C515 H537 0.950 . S
C516 H512 0.949 . S
C516 C524 1.574 . S
C516 C532 1.368 . S
H517 C525 0.950 . S
H518 C523 0.950 . S
H519 C524 0.949 . S
H520 C526 0.950 . S
H521 C527 0.950 . S
H522 C528 0.949 . S
C523 H518 0.950 . S
C523 C525 1.327 . S
C523 C529 1.429 . S
C524 C516 1.574 . S
C524 H519 0.949 . S
C524 C530 1.368 . S
C525 C509 1.349 . S
C525 H517 0.950 . S
C525 C523 1.327 . S
C526 C514 1.349 . S
C526 H520 0.950 . S
C526 C527 1.327 . S
C527 H521 0.950 . S
C527 C526 1.327 . S
C527 C531 1.429 . S
C528 C511 1.574 . S
C528 H522 0.949 . S
C528 C532 1.368 . S
C529 C510 1.429 . S
C529 C523 1.429 . S
C529 C530 1.523 . S
C530 C511 1.368 . S
C530 C524 1.368 . S
C530 C529 1.523 . S
C531 C515 1.429 . S
C531 C527 1.429 . S
C531 C532 1.523 . S
C532 C516 1.368 . S
C532 C528 1.368 . S
C532 C531 1.523 . S
H533 C508 0.950 . S
H534 C510 0.950 . S
H535 C511 0.949 . S
H536 C513 0.950 . S
H537 C515 0.950 . S
C538 C539 1.349 . S
C538 C540 1.327 . S
C538 H563 0.950 . S
C539 C538 1.349 . S
C539 C555 1.349 . S
C540 C538 1.327 . S
C540 C559 1.429 . S
C540 H564 0.950 . S
C541 C558 1.574 . S
C541 C560 1.368 . S
C541 H565 0.949 . S
H542 C546 0.949 . S
C543 C544 1.349 . S
C543 C545 1.327 . S
C543 H566 0.950 . S
C544 C543 1.349 . S
C544 C556 1.349 . S
C545 C543 1.327 . S
C545 C561 1.429 . S
C545 H567 0.950 . S
C546 H542 0.949 . S
C546 C554 1.574 . S
C546 C562 1.368 . S
H547 C555 0.950 . S
H548 C553 0.950 . S
H549 C554 0.949 . S
H550 C556 0.950 . S
H551 C557 0.950 . S
H552 C558 0.949 . S
C553 H548 0.950 . S
C553 C555 1.327 . S
C553 C559 1.429 . S
C554 C546 1.574 . S
C554 H549 0.949 . S
C554 C560 1.368 . S
C555 C539 1.349 . S
C555 H547 0.950 . S
C555 C553 1.327 . S
C556 C544 1.349 . S
C556 H550 0.950 . S
C556 C557 1.327 . S
C557 H551 0.950 . S
C557 C556 1.327 . S
C557 C561 1.429 . S
C558 C541 1.574 . S
C558 H552 0.949 . S
C558 C562 1.368 . S
C559 C540 1.429 . S
C559 C553 1.429 . S
C559 C560 1.523 . S
C560 C541 1.368 . S
C560 C554 1.368 . S
C560 C559 1.523 . S
C561 C545 1.429 . S
C561 C557 1.429 . S
C561 C562 1.523 . S
C562 C546 1.368 . S
C562 C558 1.368 . S
C562 C561 1.523 . S
H563 C538 0.950 . S
H564 C540 0.950 . S
H565 C541 0.949 . S
H566 C543 0.950 . S
H567 C545 0.950 . S
C568 C569 1.349 . S
C568 C570 1.327 . S
C568 H593 0.950 . S
C569 C568 1.349 . S
C569 C585 1.349 . S
C570 C568 1.327 . S
C570 C589 1.429 . S
C570 H594 0.950 . S
C571 C588 1.574 . S
C571 C590 1.368 . S
C571 H595 0.949 . S
H572 C576 0.949 . S
C573 C574 1.349 . S
C573 C575 1.327 . S
C573 H596 0.950 . S
C574 C573 1.349 . S
C574 C586 1.349 . S
C575 C573 1.327 . S
C575 C591 1.429 . S
C575 H597 0.950 . S
C576 H572 0.949 . S
C576 C584 1.574 . S
C576 C592 1.368 . S
H577 C585 0.950 . S
H578 C583 0.950 . S
H579 C584 0.949 . S
H580 C586 0.950 . S
H581 C587 0.950 . S
H582 C588 0.949 . S
C583 H578 0.950 . S
C583 C585 1.327 . S
C583 C589 1.429 . S
C584 C576 1.574 . S
C584 H579 0.949 . S
C584 C590 1.368 . S
C585 C569 1.349 . S
C585 H577 0.950 . S
C585 C583 1.327 . S
C586 C574 1.349 . S
C586 H580 0.950 . S
C586 C587 1.327 . S
C587 H581 0.950 . S
C587 C586 1.327 . S
C587 C591 1.429 . S
C588 C571 1.574 . S
C588 H582 0.949 . S
C588 C592 1.368 . S
C589 C570 1.429 . S
C589 C583 1.429 . S
C589 C590 1.523 . S
C590 C571 1.368 . S
C590 C584 1.368 . S
C590 C589 1.523 . S
C591 C575 1.429 . S
C591 C587 1.429 . S
C591 C592 1.523 . S
C592 C576 1.368 . S
C592 C588 1.368 . S
C592 C591 1.523 . S
H593 C568 0.950 . S
H594 C570 0.950 . S
H595 C571 0.949 . S
H596 C573 0.950 . S
H597 C575 0.950 . S
C598 C599 1.349 . S
C598 C600 1.327 . S
C598 H623 0.950 . S
C599 C598 1.349 . S
C599 C615 1.349 . S
C600 C598 1.327 . S
C600 C619 1.429 . S
C600 H624 0.950 . S
C601 C618 1.574 . S
C601 C620 1.368 . S
C601 H625 0.949 . S
H602 C606 0.949 . S
C603 C604 1.349 . S
C603 C605 1.327 . S
C603 H626 0.950 . S
C604 C603 1.349 . S
C604 C616 1.349 . S
C605 C603 1.327 . S
C605 C621 1.429 . S
C605 H627 0.950 . S
C606 H602 0.949 . S
C606 C614 1.574 . S
C606 C622 1.368 . S
H607 C615 0.950 . S
H608 C613 0.950 . S
H609 C614 0.949 . S
H610 C616 0.950 . S
H611 C617 0.950 . S
H612 C618 0.949 . S
C613 H608 0.950 . S
C613 C615 1.327 . S
C613 C619 1.429 . S
C614 C606 1.574 . S
C614 H609 0.949 . S
C614 C620 1.368 . S
C615 C599 1.349 . S
C615 H607 0.950 . S
C615 C613 1.327 . S
C616 C604 1.349 . S
C616 H610 0.950 . S
C616 C617 1.327 . S
C617 H611 0.950 . S
C617 C616 1.327 . S
C617 C621 1.429 . S
C618 C601 1.574 . S
C618 H612 0.949 . S
C618 C622 1.368 . S
C619 C600 1.429 . S
C619 C613 1.429 . S
C619 C620 1.523 . S
C620 C601 1.368 . S
C620 C614 1.368 . S
C620 C619 1.523 . S
C621 C605 1.429 . S
C621 C617 1.429 . S
C621 C622 1.523 . S
C622 C606 1.368 . S
C622 C618 1.368 . S
C622 C621 1.523 . S
H623 C598 0.950 . S
H624 C600 0.950 . S
H625 C601 0.949 . S
H626 C603 0.950 . S
H627 C605 0.950 . S
C628 C629 1.349 . S
C628 C630 1.327 . S
C628 H653 0.950 . S
C629 C628 1.349 . S
C629 C645 1.349 . S
C630 C628 1.327 . S
C630 C649 1.429 . S
C630 H654 0.950 . S
C631 C648 1.574 . S
C631 C650 1.368 . S
C631 H655 0.949 . S
H632 C636 0.949 . S
C633 C634 1.349 . S
C633 C635 1.327 . S
C633 H656 0.950 1_556 S
C634 C633 1.349 . S
C634 C646 1.349 . S
C635 C633 1.327 . S
C635 C651 1.429 . S
C635 H657 0.950 1_556 S
C636 H632 0.949 . S
C636 C644 1.574 . S
C636 C652 1.368 . S
H637 C645 0.950 . S
H638 C643 0.950 . S
H639 C644 0.949 . S
H640 C646 0.950 . S
H641 C647 0.950 . S
H642 C648 0.949 . S
C643 H638 0.950 . S
C643 C645 1.327 . S
C643 C649 1.429 . S
C644 C636 1.574 . S
C644 H639 0.949 . S
C644 C650 1.368 . S
C645 C629 1.349 . S
C645 H637 0.950 . S
C645 C643 1.327 . S
C646 C634 1.349 . S
C646 H640 0.950 . S
C646 C647 1.327 . S
C647 H641 0.950 . S
C647 C646 1.327 . S
C647 C651 1.429 . S
C648 C631 1.574 . S
C648 H642 0.949 . S
C648 C652 1.368 . S
C649 C630 1.429 . S
C649 C643 1.429 . S
C649 C650 1.523 . S
C650 C631 1.368 . S
C650 C644 1.368 . S
C650 C649 1.523 . S
C651 C635 1.429 . S
C651 C647 1.429 . S
C651 C652 1.523 . S
C652 C636 1.368 . S
C652 C648 1.368 . S
C652 C651 1.523 . S
H653 C628 0.950 . S
H654 C630 0.950 . S
H655 C631 0.949 . S
H656 C633 0.950 1_554 S
H657 C635 0.950 1_554 S
C658 C659 1.349 . S
C658 C660 1.327 . S
C658 H683 0.950 . S
C659 C658 1.349 . S
C659 C675 1.349 . S
C660 C658 1.327 . S
C660 C679 1.429 . S
C660 H684 0.950 . S
C661 C678 1.574 . S
C661 C680 1.368 . S
C661 H685 0.949 . S
H662 C666 0.949 . S
C663 C664 1.349 . S
C663 C665 1.327 . S
C663 H686 0.950 . S
C664 C663 1.349 . S
C664 C676 1.349 . S
C665 C663 1.327 . S
C665 C681 1.429 . S
C665 H687 0.950 . S
C666 H662 0.949 . S
C666 C674 1.574 . S
C666 C682 1.368 . S
H667 C675 0.950 . S
H668 C673 0.950 . S
H669 C674 0.949 . S
H670 C676 0.950 . S
H671 C677 0.950 . S
H672 C678 0.949 . S
C673 H668 0.950 . S
C673 C675 1.327 . S
C673 C679 1.429 . S
C674 C666 1.574 . S
C674 H669 0.949 . S
C674 C680 1.368 . S
C675 C659 1.349 . S
C675 H667 0.950 . S
C675 C673 1.327 . S
C676 C664 1.349 . S
C676 H670 0.950 . S
C676 C677 1.327 . S
C677 H671 0.950 . S
C677 C676 1.327 . S
C677 C681 1.429 . S
C678 C661 1.574 . S
C678 H672 0.949 . S
C678 C682 1.368 . S
C679 C660 1.429 . S
C679 C673 1.429 . S
C679 C680 1.523 . S
C680 C661 1.368 . S
C680 C674 1.368 . S
C680 C679 1.523 . S
C681 C665 1.429 . S
C681 C677 1.429 . S
C681 C682 1.523 . S
C682 C666 1.368 . S
C682 C678 1.368 . S
C682 C681 1.523 . S
H683 C658 0.950 . S
H684 C660 0.950 . S
H685 C661 0.949 . S
H686 C663 0.950 . S
H687 C665 0.950 . S
C688 C689 1.349 . S
C688 C690 1.327 . S
C688 H713 0.950 . S
C689 C688 1.349 . S
C689 C705 1.349 . S
C690 C688 1.327 . S
C690 C709 1.429 . S
C690 H714 0.950 . S
C691 C708 1.574 . S
C691 C710 1.368 . S
C691 H715 0.949 . S
H692 C696 0.949 . S
C693 C694 1.349 . S
C693 C695 1.327 . S
C693 H716 0.942 1_455 S
C694 C693 1.349 . S
C694 C706 1.349 . S
C695 C693 1.327 . S
C695 C711 1.429 . S
C695 H717 0.950 . S
C696 H692 0.949 . S
C696 C704 1.574 . S
C696 C712 1.368 . S
H697 C705 0.950 . S
H698 C703 0.950 . S
H699 C704 0.949 . S
H700 C706 0.950 . S
H701 C707 0.950 . S
H702 C708 0.949 . S
C703 H698 0.950 . S
C703 C705 1.327 . S
C703 C709 1.429 . S
C704 C696 1.574 . S
C704 H699 0.949 . S
C704 C710 1.368 . S
C705 C689 1.349 . S
C705 H697 0.950 . S
C705 C703 1.327 . S
C706 C694 1.349 . S
C706 H700 0.950 . S
C706 C707 1.327 . S
C707 H701 0.950 . S
C707 C706 1.327 . S
C707 C711 1.429 . S
C708 C691 1.574 . S
C708 H702 0.949 . S
C708 C712 1.368 . S
C709 C690 1.429 . S
C709 C703 1.429 . S
C709 C710 1.523 . S
C710 C691 1.368 . S
C710 C704 1.368 . S
C710 C709 1.523 . S
C711 C695 1.429 . S
C711 C707 1.429 . S
C711 C712 1.523 . S
C712 C696 1.368 . S
C712 C708 1.368 . S
C712 C711 1.523 . S
H713 C688 0.950 . S
H714 C690 0.950 . S
H715 C691 0.949 . S
H716 C693 0.942 1_655 S
H717 C695 0.950 . S
C718 C719 1.349 . S
C718 C720 1.327 . S
C718 H743 0.950 . S
C719 C718 1.349 . S
C719 C735 1.349 . S
C720 C718 1.327 . S
C720 C739 1.429 . S
C720 H744 0.950 . S
C721 C738 1.574 . S
C721 C740 1.368 . S
C721 H745 0.949 . S
H722 C726 0.949 . S
C723 C724 1.349 . S
C723 C725 1.327 . S
C723 H746 0.950 . S
C724 C723 1.349 . S
C724 C736 1.349 . S
C725 C723 1.327 . S
C725 C741 1.429 . S
C725 H747 0.950 . S
C726 H722 0.949 . S
C726 C734 1.574 . S
C726 C742 1.368 . S
H727 C735 0.950 . S
H728 C733 0.950 . S
H729 C734 0.949 . S
H730 C736 0.950 . S
H731 C737 0.950 . S
H732 C738 0.949 . S
C733 H728 0.950 . S
C733 C735 1.327 . S
C733 C739 1.429 . S
C734 C726 1.574 . S
C734 H729 0.949 . S
C734 C740 1.368 . S
C735 C719 1.349 . S
C735 H727 0.950 . S
C735 C733 1.327 . S
C736 C724 1.349 . S
C736 H730 0.950 . S
C736 C737 1.327 . S
C737 H731 0.950 . S
C737 C736 1.327 . S
C737 C741 1.429 . S
C738 C721 1.574 . S
C738 H732 0.949 . S
C738 C742 1.368 . S
C739 C720 1.429 . S
C739 C733 1.429 . S
C739 C740 1.523 . S
C740 C721 1.368 . S
C740 C734 1.368 . S
C740 C739 1.523 . S
C741 C725 1.429 . S
C741 C737 1.429 . S
C741 C742 1.523 . S
C742 C726 1.368 . S
C742 C738 1.368 . S
C742 C741 1.523 . S
H743 C718 0.950 . S
H744 C720 0.950 . S
H745 C721 0.949 . S
H746 C723 0.950 . S
H747 C725 0.950 . S
C748 C749 1.349 . S
C748 C750 1.327 . S
C748 H773 0.950 . S
C749 C748 1.349 . S
C749 C765 1.349 . S
C750 C748 1.327 . S
C750 C769 1.429 . S
C750 H774 0.950 . S
C751 C768 1.574 . S
C751 C770 1.368 . S
C751 H775 0.949 . S
H752 C756 0.949 . S
C753 C754 1.349 . S
C753 C755 1.327 . S
C753 H776 0.950 . S
C754 C753 1.349 . S
C754 C766 1.349 . S
C755 C753 1.327 . S
C755 C771 1.429 . S
C755 H777 0.950 . S
C756 H752 0.949 . S
C756 C764 1.574 . S
C756 C772 1.368 . S
H757 C765 0.950 . S
H758 C763 0.950 . S
H759 C764 0.949 . S
H760 C766 0.950 . S
H761 C767 0.950 . S
H762 C768 0.949 . S
C763 H758 0.950 . S
C763 C765 1.327 . S
C763 C769 1.429 . S
C764 C756 1.574 . S
C764 H759 0.949 . S
C764 C770 1.368 . S
C765 C749 1.349 . S
C765 H757 0.950 . S
C765 C763 1.327 . S
C766 C754 1.349 . S
C766 H760 0.950 . S
C766 C767 1.327 . S
C767 H761 0.950 . S
C767 C766 1.327 . S
C767 C771 1.429 . S
C768 C751 1.574 . S
C768 H762 0.949 . S
C768 C772 1.368 . S
C769 C750 1.429 . S
C769 C763 1.429 . S
C769 C770 1.523 . S
C770 C751 1.368 . S
C770 C764 1.368 . S
C770 C769 1.523 . S
C771 C755 1.429 . S
C771 C767 1.429 . S
C771 C772 1.523 . S
C772 C756 1.368 . S
C772 C768 1.368 . S
C772 C771 1.523 . S
H773 C748 0.950 . S
H774 C750 0.950 . S
H775 C751 0.949 . S
H776 C753 0.950 . S
H777 C755 0.950 . S
C778 C779 1.349 . S
C778 C780 1.327 . S
C778 H803 0.950 . S
C779 C778 1.349 . S
C779 C795 1.349 . S
C780 C778 1.327 . S
C780 C799 1.429 . S
C780 H804 0.950 . S
C781 C798 1.574 . S
C781 C800 1.368 . S
C781 H805 0.949 . S
H782 C786 0.949 . S
C783 C784 1.349 . S
C783 C785 1.327 . S
C783 H806 0.950 . S
C784 C783 1.349 . S
C784 C796 1.349 . S
C785 C783 1.327 . S
C785 C801 1.429 . S
C785 H807 0.950 . S
C786 H782 0.949 . S
C786 C794 1.574 . S
C786 C802 1.368 . S
H787 C795 0.950 . S
H788 C793 0.950 . S
H789 C794 0.949 . S
H790 C796 0.950 . S
H791 C797 0.950 . S
H792 C798 0.949 . S
C793 H788 0.950 . S
C793 C795 1.327 . S
C793 C799 1.429 . S
C794 C786 1.574 . S
C794 H789 0.949 . S
C794 C800 1.368 . S
C795 C779 1.349 . S
C795 H787 0.950 . S
C795 C793 1.327 . S
C796 C784 1.349 . S
C796 H790 0.950 . S
C796 C797 1.327 . S
C797 H791 0.950 . S
C797 C796 1.327 . S
C797 C801 1.429 . S
C798 C781 1.574 . S
C798 H792 0.949 . S
C798 C802 1.368 . S
C799 C780 1.429 . S
C799 C793 1.429 . S
C799 C800 1.523 . S
C800 C781 1.368 . S
C800 C794 1.368 . S
C800 C799 1.523 . S
C801 C785 1.429 . S
C801 C797 1.429 . S
C801 C802 1.523 . S
C802 C786 1.368 . S
C802 C798 1.368 . S
C802 C801 1.523 . S
H803 C778 0.950 . S
H804 C780 0.950 . S
H805 C781 0.949 . S
H806 C783 0.950 . S
H807 C785 0.950 . S
C808 C809 1.349 . S
C808 C810 1.327 . S
C808 H833 0.950 . S
C809 C808 1.349 . S
C809 C825 1.349 . S
C810 C808 1.327 . S
C810 C829 1.429 . S
C810 H834 0.950 . S
C811 C828 1.574 . S
C811 C830 1.368 . S
C811 H835 0.949 . S
H812 C816 0.949 . S
C813 C814 1.349 . S
C813 C815 1.327 . S
C813 H836 0.950 1_655 S
C814 C813 1.349 . S
C814 C826 1.349 . S
C815 C813 1.327 . S
C815 C831 1.429 . S
C815 H837 0.950 . S
C816 H812 0.949 . S
C816 C824 1.574 . S
C816 C832 1.368 . S
H817 C825 0.950 . S
H818 C823 0.950 . S
H819 C824 0.949 . S
H820 C826 0.950 . S
H821 C827 0.950 . S
H822 C828 0.949 . S
C823 H818 0.950 . S
C823 C825 1.327 . S
C823 C829 1.429 . S
C824 C816 1.574 . S
C824 H819 0.949 . S
C824 C830 1.368 . S
C825 C809 1.349 . S
C825 H817 0.950 . S
C825 C823 1.327 . S
C826 C814 1.349 . S
C826 H820 0.950 . S
C826 C827 1.327 . S
C827 H821 0.950 . S
C827 C826 1.327 . S
C827 C831 1.429 . S
C828 C811 1.574 . S
C828 H822 0.949 . S
C828 C832 1.368 . S
C829 C810 1.429 . S
C829 C823 1.429 . S
C829 C830 1.523 . S
C830 C811 1.368 . S
C830 C824 1.368 . S
C830 C829 1.523 . S
C831 C815 1.429 . S
C831 C827 1.429 . S
C831 C832 1.523 . S
C832 C816 1.368 . S
C832 C828 1.368 . S
C832 C831 1.523 . S
H833 C808 0.950 . S
H834 C810 0.950 . S
H835 C811 0.949 . S
H836 C813 0.950 1_455 S
H837 C815 0.950 . S
C838 C839 1.349 . S
C838 C840 1.327 . S
C838 H863 0.950 . S
C839 C838 1.349 . S
C839 C855 1.349 . S
C840 C838 1.327 . S
C840 C859 1.429 . S
C840 H864 0.950 . S
C841 C858 1.574 . S
C841 C860 1.368 . S
C841 H865 0.949 . S
H842 C846 0.949 . S
C843 C844 1.349 . S
C843 C845 1.327 . S
C843 H866 0.950 . S
C844 C843 1.349 . S
C844 C856 1.349 . S
C845 C843 1.327 . S
C845 C861 1.429 . S
C845 H867 0.950 . S
C846 H842 0.949 . S
C846 C854 1.574 . S
C846 C862 1.368 . S
H847 C855 0.950 . S
H848 C853 0.950 . S
H849 C854 0.949 . S
H850 C856 0.950 . S
H851 C857 0.950 . S
H852 C858 0.949 . S
C853 H848 0.950 . S
C853 C855 1.327 . S
C853 C859 1.429 . S
C854 C846 1.574 . S
C854 H849 0.949 . S
C854 C860 1.368 . S
C855 C839 1.349 . S
C855 H847 0.950 . S
C855 C853 1.327 . S
C856 C844 1.349 . S
C856 H850 0.950 . S
C856 C857 1.327 . S
C857 H851 0.950 . S
C857 C856 1.327 . S
C857 C861 1.429 . S
C858 C841 1.574 . S
C858 H852 0.949 . S
C858 C862 1.368 . S
C859 C840 1.429 . S
C859 C853 1.429 . S
C859 C860 1.523 . S
C860 C841 1.368 . S
C860 C854 1.368 . S
C860 C859 1.523 . S
C861 C845 1.429 . S
C861 C857 1.429 . S
C861 C862 1.523 . S
C862 C846 1.368 . S
C862 C858 1.368 . S
C862 C861 1.523 . S
H863 C838 0.950 . S
H864 C840 0.950 . S
H865 C841 0.949 . S
H866 C843 0.950 . S
H867 C845 0.950 . S
C868 C869 1.349 . S
C868 C870 1.327 . S
C868 H893 0.950 . S
C869 C868 1.349 . S
C869 C885 1.349 . S
C870 C868 1.327 . S
C870 C889 1.429 . S
C870 H894 0.950 . S
C871 C888 1.574 . S
C871 C890 1.368 . S
C871 H895 0.949 . S
H872 C876 0.949 . S
C873 C874 1.349 . S
C873 C875 1.327 . S
C873 H896 0.950 . S
C874 C873 1.349 . S
C874 C886 1.349 . S
C875 C873 1.327 . S
C875 C891 1.429 . S
C875 H897 0.950 . S
C876 H872 0.949 . S
C876 C884 1.574 . S
C876 C892 1.368 . S
H877 C885 0.950 . S
H878 C883 0.950 . S
H879 C884 0.949 . S
H880 C886 0.950 . S
H881 C887 0.950 . S
H882 C888 0.949 . S
C883 H878 0.950 . S
C883 C885 1.327 . S
C883 C889 1.429 . S
C884 C876 1.574 . S
C884 H879 0.949 . S
C884 C890 1.368 . S
C885 C869 1.349 . S
C885 H877 0.950 . S
C885 C883 1.327 . S
C886 C874 1.349 . S
C886 H880 0.950 . S
C886 C887 1.327 . S
C887 H881 0.950 . S
C887 C886 1.327 . S
C887 C891 1.429 . S
C888 C871 1.574 . S
C888 H882 0.949 . S
C888 C892 1.368 . S
C889 C870 1.429 . S
C889 C883 1.429 . S
C889 C890 1.523 . S
C890 C871 1.368 . S
C890 C884 1.368 . S
C890 C889 1.523 . S
C891 C875 1.429 . S
C891 C887 1.429 . S
C891 C892 1.523 . S
C892 C876 1.368 . S
C892 C888 1.368 . S
C892 C891 1.523 . S
H893 C868 0.950 . S
H894 C870 0.950 . S
H895 C871 0.949 . S
H896 C873 0.950 . S
H897 C875 0.950 . S
C898 C899 1.349 . S
C898 C900 1.327 . S
C898 H923 0.950 . S
C899 C898 1.349 . S
C899 C915 1.349 . S
C900 C898 1.327 . S
C900 C919 1.429 . S
C900 H924 0.950 . S
C901 C918 1.574 . S
C901 C920 1.368 . S
C901 H925 0.949 . S
H902 C906 0.949 . S
C903 C904 1.349 . S
C903 C905 1.327 . S
C903 H926 0.950 . S
C904 C903 1.349 . S
C904 C916 1.349 . S
C905 C903 1.327 . S
C905 C921 1.429 . S
C905 H927 0.950 . S
C906 H902 0.949 . S
C906 C914 1.574 . S
C906 C922 1.368 . S
H907 C915 0.950 . S
H908 C913 0.950 . S
H909 C914 0.949 . S
H910 C916 0.950 . S
H911 C917 0.950 . S
H912 C918 0.949 . S
C913 H908 0.950 . S
C913 C915 1.327 . S
C913 C919 1.429 . S
C914 C906 1.574 . S
C914 H909 0.949 . S
C914 C920 1.368 . S
C915 C899 1.349 . S
C915 H907 0.950 . S
C915 C913 1.327 . S
C916 C904 1.349 . S
C916 H910 0.950 . S
C916 C917 1.327 . S
C917 H911 0.950 . S
C917 C916 1.327 . S
C917 C921 1.429 . S
C918 C901 1.574 . S
C918 H912 0.949 . S
C918 C922 1.368 . S
C919 C900 1.429 . S
C919 C913 1.429 . S
C919 C920 1.523 . S
C920 C901 1.368 . S
C920 C914 1.368 . S
C920 C919 1.523 . S
C921 C905 1.429 . S
C921 C917 1.429 . S
C921 C922 1.523 . S
C922 C906 1.368 . S
C922 C918 1.368 . S
C922 C921 1.523 . S
H923 C898 0.950 . S
H924 C900 0.950 . S
H925 C901 0.949 . S
H926 C903 0.950 . S
H927 C905 0.950 . S
C928 C929 1.349 . S
C928 C930 1.327 . S
C928 H953 0.950 . S
C929 C928 1.349 . S
C929 C945 1.349 . S
C930 C928 1.327 . S
C930 C949 1.429 . S
C930 H954 0.950 . S
C931 C948 1.574 . S
C931 C950 1.368 . S
C931 H955 0.949 . S
H932 C936 0.949 . S
C933 C934 1.349 . S
C933 C935 1.327 . S
C933 H956 0.950 . S
C934 C933 1.349 . S
C934 C946 1.349 . S
C935 C933 1.327 . S
C935 C951 1.429 . S
C935 H957 0.950 . S
C936 H932 0.949 . S
C936 C944 1.574 . S
C936 C952 1.368 . S
H937 C945 0.950 . S
H938 C943 0.950 . S
H939 C944 0.949 . S
H940 C946 0.950 1_545 S
H941 C947 0.950 . S
H942 C948 0.949 . S
C943 H938 0.950 . S
C943 C945 1.327 . S
C943 C949 1.429 . S
C944 C936 1.574 . S
C944 H939 0.949 . S
C944 C950 1.368 . S
C945 C929 1.349 . S
C945 H937 0.950 . S
C945 C943 1.327 . S
C946 C934 1.349 . S
C946 H940 0.950 1_565 S
C946 C947 1.327 . S
C947 H941 0.950 . S
C947 C946 1.327 . S
C947 C951 1.429 . S
C948 C931 1.574 . S
C948 H942 0.949 . S
C948 C952 1.368 . S
C949 C930 1.429 . S
C949 C943 1.429 . S
C949 C950 1.523 . S
C950 C931 1.368 . S
C950 C944 1.368 . S
C950 C949 1.523 . S
C951 C935 1.429 . S
C951 C947 1.429 . S
C951 C952 1.523 . S
C952 C936 1.368 . S
C952 C948 1.368 . S
C952 C951 1.523 . S
H953 C928 0.950 . S
H954 C930 0.950 . S
H955 C931 0.949 . S
H956 C933 0.950 . S
H957 C935 0.950 . S
C958 C959 1.349 . S
C958 C960 1.327 . S
C958 H983 0.950 . S
C959 C958 1.349 . S
C959 C975 1.349 . S
C960 C958 1.327 . S
C960 C979 1.429 . S
C960 H984 0.950 . S
C961 C978 1.574 . S
C961 C980 1.368 . S
C961 H985 0.949 . S
H962 C966 0.949 . S
C963 C964 1.349 . S
C963 C965 1.327 . S
C963 H986 0.950 . S
C964 C963 1.349 . S
C964 C976 1.349 . S
C965 C963 1.327 . S
C965 C981 1.429 . S
C965 H987 0.950 . S
C966 H962 0.949 . S
C966 C974 1.574 . S
C966 C982 1.368 . S
H967 C975 0.950 . S
H968 C973 0.950 . S
H969 C974 0.949 . S
H970 C976 0.950 . S
H971 C977 0.950 . S
H972 C978 0.949 . S
C973 H968 0.950 . S
C973 C975 1.327 . S
C973 C979 1.429 . S
C974 C966 1.574 . S
C974 H969 0.949 . S
C974 C980 1.368 . S
C975 C959 1.349 . S
C975 H967 0.950 . S
C975 C973 1.327 . S
C976 C964 1.349 . S
C976 H970 0.950 . S
C976 C977 1.327 . S
C977 H971 0.950 . S
C977 C976 1.327 . S
C977 C981 1.429 . S
C978 C961 1.574 . S
C978 H972 0.949 . S
C978 C982 1.368 . S
C979 C960 1.429 . S
C979 C973 1.429 . S
C979 C980 1.523 . S
C980 C961 1.368 . S
C980 C974 1.368 . S
C980 C979 1.523 . S
C981 C965 1.429 . S
C981 C977 1.429 . S
C981 C982 1.523 . S
C982 C966 1.368 . S
C982 C978 1.368 . S
C982 C981 1.523 . S
H983 C958 0.950 . S
H984 C960 0.950 . S
H985 C961 0.949 . S
H986 C963 0.950 . S
H987 C965 0.950 . S
C988 C989 1.349 . S
C988 C990 1.327 . S
C988 H1013 0.950 . S
C989 C988 1.349 . S
C989 C1005 1.349 . S
C990 C988 1.327 . S
C990 C1009 1.429 . S
C990 H1014 0.950 . S
C991 C1008 1.574 . S
C991 C1010 1.368 . S
C991 H1015 0.949 . S
H992 C996 0.949 . S
C993 C994 1.349 . S
C993 C995 1.327 . S
C993 H1016 0.950 . S
C994 C993 1.349 . S
C994 C1006 1.349 . S
C995 C993 1.327 . S
C995 C1011 1.429 . S
C995 H1017 0.950 . S
C996 H992 0.949 . S
C996 C1004 1.574 . S
C996 C1012 1.368 . S
H997 C1005 0.950 . S
H998 C1003 0.950 . S
H999 C1004 0.949 . S
H1000 C1006 0.950 . S
H1001 C1007 0.950 . S
H1002 C1008 0.949 . S
C1003 H998 0.950 . S
C1003 C1005 1.327 . S
C1003 C1009 1.429 . S
C1004 C996 1.574 . S
C1004 H999 0.949 . S
C1004 C1010 1.368 . S
C1005 C989 1.349 . S
C1005 H997 0.950 . S
C1005 C1003 1.327 . S
C1006 C994 1.349 . S
C1006 H1000 0.950 . S
C1006 C1007 1.327 . S
C1007 H1001 0.950 . S
C1007 C1006 1.327 . S
C1007 C1011 1.429 . S
C1008 C991 1.574 . S
C1008 H1002 0.949 . S
C1008 C1012 1.368 . S
C1009 C990 1.429 . S
C1009 C1003 1.429 . S
C1009 C1010 1.523 . S
C1010 C991 1.368 . S
C1010 C1004 1.368 . S
C1010 C1009 1.523 . S
C1011 C995 1.429 . S
C1011 C1007 1.429 . S
C1011 C1012 1.523 . S
C1012 C996 1.368 . S
C1012 C1008 1.368 . S
C1012 C1011 1.523 . S
H1013 C988 0.950 . S
H1014 C990 0.950 . S
H1015 C991 0.949 . S
H1016 C993 0.950 . S
H1017 C995 0.950 . S
C1018 C1019 1.349 . S
C1018 C1020 1.327 . S
C1018 H1043 0.950 . S
C1019 C1018 1.349 . S
C1019 C1035 1.349 . S
C1020 C1018 1.327 . S
C1020 C1039 1.429 . S
C1020 H1044 0.950 . S
C1021 C1038 1.574 . S
C1021 C1040 1.368 . S
C1021 H1045 0.949 . S
H1022 C1026 0.949 . S
C1023 C1024 1.349 . S
C1023 C1025 1.327 . S
C1023 H1046 0.950 . S
C1024 C1023 1.349 . S
C1024 C1036 1.349 . S
C1025 C1023 1.327 . S
C1025 C1041 1.429 . S
C1025 H1047 0.950 . S
C1026 H1022 0.949 . S
C1026 C1034 1.574 . S
C1026 C1042 1.368 . S
H1027 C1035 0.950 . S
H1028 C1033 0.950 . S
H1029 C1034 0.949 . S
H1030 C1036 0.950 . S
H1031 C1037 0.950 . S
H1032 C1038 0.949 . S
C1033 H1028 0.950 . S
C1033 C1035 1.327 . S
C1033 C1039 1.429 . S
C1034 C1026 1.574 . S
C1034 H1029 0.949 . S
C1034 C1040 1.368 . S
C1035 C1019 1.349 . S
C1035 H1027 0.950 . S
C1035 C1033 1.327 . S
C1036 C1024 1.349 . S
C1036 H1030 0.950 . S
C1036 C1037 1.327 . S
C1037 H1031 0.950 . S
C1037 C1036 1.327 . S
C1037 C1041 1.429 . S
C1038 C1021 1.574 . S
C1038 H1032 0.949 . S
C1038 C1042 1.368 . S
C1039 C1020 1.429 . S
C1039 C1033 1.429 . S
C1039 C1040 1.523 . S
C1040 C1021 1.368 . S
C1040 C1034 1.368 . S
C1040 C1039 1.523 . S
C1041 C1025 1.429 . S
C1041 C1037 1.429 . S
C1041 C1042 1.523 . S
C1042 C1026 1.368 . S
C1042 C1038 1.368 . S
C1042 C1041 1.523 . S
H1043 C1018 0.950 . S
H1044 C1020 0.950 . S
H1045 C1021 0.949 . S
H1046 C1023 0.950 . S
H1047 C1025 0.950 . S
C1048 C1049 1.349 . S
C1048 C1050 1.327 . S
C1048 H1073 0.950 . S
C1049 C1048 1.349 . S
C1049 C1065 1.349 . S
C1050 C1048 1.327 . S
C1050 C1069 1.429 . S
C1050 H1074 0.950 . S
C1051 C1068 1.574 . S
C1051 C1070 1.368 . S
C1051 H1075 0.949 . S
H1052 C1056 0.949 . S
C1053 C1054 1.349 . S
C1053 C1055 1.327 . S
C1053 H1076 0.950 . S
C1054 C1053 1.349 . S
C1054 C1066 1.349 . S
C1055 C1053 1.327 . S
C1055 C1071 1.429 . S
C1055 H1077 0.950 . S
C1056 H1052 0.949 . S
C1056 C1064 1.574 . S
C1056 C1072 1.368 . S
H1057 C1065 0.950 . S
H1058 C1063 0.950 . S
H1059 C1064 0.949 . S
H1060 C1066 0.950 1_554 S
H1061 C1067 0.950 . S
H1062 C1068 0.949 . S
C1063 H1058 0.950 . S
C1063 C1065 1.327 . S
C1063 C1069 1.429 . S
C1064 C1056 1.574 . S
C1064 H1059 0.949 . S
C1064 C1070 1.368 . S
C1065 C1049 1.349 . S
C1065 H1057 0.950 . S
C1065 C1063 1.327 . S
C1066 C1054 1.349 . S
C1066 H1060 0.950 1_556 S
C1066 C1067 1.327 . S
C1067 H1061 0.950 . S
C1067 C1066 1.327 . S
C1067 C1071 1.429 . S
C1068 C1051 1.574 . S
C1068 H1062 0.949 . S
C1068 C1072 1.368 . S
C1069 C1050 1.429 . S
C1069 C1063 1.429 . S
C1069 C1070 1.523 . S
C1070 C1051 1.368 . S
C1070 C1064 1.368 . S
C1070 C1069 1.523 . S
C1071 C1055 1.429 . S
C1071 C1067 1.429 . S
C1071 C1072 1.523 . S
C1072 C1056 1.368 . S
C1072 C1068 1.368 . S
C1072 C1071 1.523 . S
H1073 C1048 0.950 . S
H1074 C1050 0.950 . S
H1075 C1051 0.949 . S
H1076 C1053 0.950 . S
H1077 C1055 0.950 . S
C1078 C1079 1.349 . S
C1078 C1080 1.327 . S
C1078 H1103 0.950 . S
C1079 C1078 1.349 . S
C1079 C1095 1.349 . S
C1080 C1078 1.327 . S
C1080 C1099 1.429 . S
C1080 H1104 0.950 . S
C1081 C1098 1.574 . S
C1081 C1100 1.368 . S
C1081 H1105 0.949 . S
H1082 C1086 0.949 . S
C1083 C1084 1.349 . S
C1083 C1085 1.327 . S
C1083 H1106 0.950 . S
C1084 C1083 1.349 . S
C1084 C1096 1.349 . S
C1085 C1083 1.327 . S
C1085 C1101 1.429 . S
C1085 H1107 0.950 . S
C1086 H1082 0.949 . S
C1086 C1094 1.574 . S
C1086 C1102 1.368 . S
H1087 C1095 0.950 . S
H1088 C1093 0.950 . S
H1089 C1094 0.949 . S
H1090 C1096 0.950 . S
H1091 C1097 0.950 . S
H1092 C1098 0.949 . S
C1093 H1088 0.950 . S
C1093 C1095 1.327 . S
C1093 C1099 1.429 . S
C1094 C1086 1.574 . S
C1094 H1089 0.949 . S
C1094 C1100 1.368 . S
C1095 C1079 1.349 . S
C1095 H1087 0.950 . S
C1095 C1093 1.327 . S
C1096 C1084 1.349 . S
C1096 H1090 0.950 . S
C1096 C1097 1.327 . S
C1097 H1091 0.950 . S
C1097 C1096 1.327 . S
C1097 C1101 1.429 . S
C1098 C1081 1.574 . S
C1098 H1092 0.949 . S
C1098 C1102 1.368 . S
C1099 C1080 1.429 . S
C1099 C1093 1.429 . S
C1099 C1100 1.523 . S
C1100 C1081 1.368 . S
C1100 C1094 1.368 . S
C1100 C1099 1.523 . S
C1101 C1085 1.429 . S
C1101 C1097 1.429 . S
C1101 C1102 1.523 . S
C1102 C1086 1.368 . S
C1102 C1098 1.368 . S
C1102 C1101 1.523 . S
H1103 C1078 0.950 . S
H1104 C1080 0.950 . S
H1105 C1081 0.949 . S
H1106 C1083 0.950 . S
H1107 C1085 0.950 . S
C1108 C1109 1.349 . S
C1108 C1110 1.327 . S
C1108 H1133 0.950 . S
C1109 C1108 1.349 . S
C1109 C1125 1.349 . S
C1110 C1108 1.327 . S
C1110 C1129 1.429 . S
C1110 H1134 0.950 . S
C1111 C1128 1.574 . S
C1111 C1130 1.368 . S
C1111 H1135 0.949 . S
H1112 C1116 0.949 . S
C1113 C1114 1.349 . S
C1113 C1115 1.327 . S
C1113 H1136 0.950 . S
C1114 C1113 1.349 . S
C1114 C1126 1.349 . S
C1115 C1113 1.327 . S
C1115 C1131 1.429 . S
C1115 H1137 0.950 . S
C1116 H1112 0.949 . S
C1116 C1124 1.574 . S
C1116 C1132 1.368 . S
H1117 C1125 0.950 . S
H1118 C1123 0.950 . S
H1119 C1124 0.949 . S
H1120 C1126 0.950 . S
H1121 C1127 0.950 . S
H1122 C1128 0.949 . S
C1123 H1118 0.950 . S
C1123 C1125 1.327 . S
C1123 C1129 1.429 . S
C1124 C1116 1.574 . S
C1124 H1119 0.949 . S
C1124 C1130 1.368 . S
C1125 C1109 1.349 . S
C1125 H1117 0.950 . S
C1125 C1123 1.327 . S
C1126 C1114 1.349 . S
C1126 H1120 0.950 . S
C1126 C1127 1.327 . S
C1127 H1121 0.950 . S
C1127 C1126 1.327 . S
C1127 C1131 1.429 . S
C1128 C1111 1.574 . S
C1128 H1122 0.949 . S
C1128 C1132 1.368 . S
C1129 C1110 1.429 . S
C1129 C1123 1.429 . S
C1129 C1130 1.523 . S
C1130 C1111 1.368 . S
C1130 C1124 1.368 . S
C1130 C1129 1.523 . S
C1131 C1115 1.429 . S
C1131 C1127 1.429 . S
C1131 C1132 1.523 . S
C1132 C1116 1.368 . S
C1132 C1128 1.368 . S
C1132 C1131 1.523 . S
H1133 C1108 0.950 . S
H1134 C1110 0.950 . S
H1135 C1111 0.949 . S
H1136 C1113 0.950 . S
H1137 C1115 0.950 . S
C1138 C1139 1.349 . S
C1138 C1140 1.327 . S
C1138 H1163 0.950 . S
C1139 C1138 1.349 . S
C1139 C1155 1.349 . S
C1140 C1138 1.327 . S
C1140 C1159 1.429 . S
C1140 H1164 0.950 . S
C1141 C1158 1.574 . S
C1141 C1160 1.368 . S
C1141 H1165 0.949 . S
H1142 C1146 0.949 . S
C1143 C1144 1.349 . S
C1143 C1145 1.327 . S
C1143 H1166 0.950 . S
C1144 C1143 1.349 . S
C1144 C1156 1.349 . S
C1145 C1143 1.327 . S
C1145 C1161 1.429 . S
C1145 H1167 0.950 . S
C1146 H1142 0.949 . S
C1146 C1154 1.574 . S
C1146 C1162 1.368 . S
H1147 C1155 0.950 . S
H1148 C1153 0.950 . S
H1149 C1154 0.949 . S
H1150 C1156 0.950 . S
H1151 C1157 0.950 . S
H1152 C1158 0.949 . S
C1153 H1148 0.950 . S
C1153 C1155 1.327 . S
C1153 C1159 1.429 . S
C1154 C1146 1.574 . S
C1154 H1149 0.949 . S
C1154 C1160 1.368 . S
C1155 C1139 1.349 . S
C1155 H1147 0.950 . S
C1155 C1153 1.327 . S
C1156 C1144 1.349 . S
C1156 H1150 0.950 . S
C1156 C1157 1.327 . S
C1157 H1151 0.950 . S
C1157 C1156 1.327 . S
C1157 C1161 1.429 . S
C1158 C1141 1.574 . S
C1158 H1152 0.949 . S
C1158 C1162 1.368 . S
C1159 C1140 1.429 . S
C1159 C1153 1.429 . S
C1159 C1160 1.523 . S
C1160 C1141 1.368 . S
C1160 C1154 1.368 . S
C1160 C1159 1.523 . S
C1161 C1145 1.429 . S
C1161 C1157 1.429 . S
C1161 C1162 1.523 . S
C1162 C1146 1.368 . S
C1162 C1158 1.368 . S
C1162 C1161 1.523 . S
H1163 C1138 0.950 . S
H1164 C1140 0.950 . S
H1165 C1141 0.949 . S
H1166 C1143 0.950 . S
H1167 C1145 0.950 . S
C449 C1 2.338 . S
C454 C312 2.349 . S
C479 C40 2.275 . S
C484 C354 2.291 . S
C514 C384 0.975 . S
C509 C99 0.973 . S
C539 C118 1.029 . S
C544 C418 1.034 . S
C574 C375 1.894 . S
C569 C16 1.879 . S
C604 C329 1.875 . S
C599 C60 1.860 . S
C634 C422 1.375 . S
C629 C79 1.363 . S
C664 C388 1.389 . S
C659 C138 1.367 . S
C689 C21 2.219 . S
C694 C443 2.228 . S
C724 C350 1.129 . S
C719 C94 1.122 . S
C749 C133 1.095 . S
C754 C325 1.106 . S
C779 C55 2.181 . S
C784 C409 2.192 . S
C814 C341 2.354 . S
C809 C157 2.338 . S
C839 C196 2.279 . S
C844 C363 2.290 . S
C869 C255 0.966 . S
C874 C393 0.973 . S
C899 C289 1.026 . S
C904 C427 1.030 . S
C929 C172 1.880 . S
C934 C346 1.892 . S
C964 C320 1.877 . S
C959 C216 1.871 . S
C994 C431 1.377 . S
C989 C235 1.360 . S
C1024 C397 1.389 . S
C1019 C294 1.367 . S
C1049 C177 2.210 . S
C1054 C414 2.228 . S
C1084 C359 1.131 . S
C1079 C250 1.125 . S
C1114 C316 1.111 . S
C1109 C274 1.098 . S
C1139 C211 2.172 . S
C1144 C380 2.187 . S
