# Generated by pormake.
# Topology pyr, (3,6)-cn, num edge types: 1
# Building blocks:
#     Node 0, Type 0, BuildingBlock: QEWDON_clean_linker_0, # of connection points: 3
#     Node 1, Type 0, BuildingBlock: QEWDON_clean_linker_0, # of connection points: 3
#     Node 2, Type 0, BuildingBlock: QEWDON_clean_linker_0, # of connection points: 3
#     Node 3, Type 0, BuildingBlock: QEWDON_clean_linker_0, # of connection points: 3
#     Node 4, Type 0, BuildingBlock: QEWDON_clean_linker_0, # of connection points: 3
#     Node 5, Type 0, BuildingBlock: QEWDON_clean_linker_0, # of connection points: 3
#     Node 6, Type 0, BuildingBlock: QEWDON_clean_linker_0, # of connection points: 3
#     Node 7, Type 0, BuildingBlock: QEWDON_clean_linker_0, # of connection points: 3
#     Node 8, Type 1, BuildingBlock: BETFAJ_clean_sbu_0, # of connection points: 6
#     Node 9, Type 1, BuildingBlock: BETFAJ_clean_sbu_0, # of connection points: 6
#     Node 10, Type 1, BuildingBlock: BETFAJ_clean_sbu_0, # of connection points: 6
#     Node 11, Type 1, BuildingBlock: BETFAJ_clean_sbu_0, # of connection points: 6
#     Edge 12, Type (0, 1), BuildingBlock: EZIPEK_clean_linker_0, # of connection points: 2
#     Edge 13, Type (0, 1), BuildingBlock: EZIPEK_clean_linker_0, # of connection points: 2
#     Edge 14, Type (0, 1), BuildingBlock: EZIPEK_clean_linker_0, # of connection points: 2
#     Edge 15, Type (0, 1), BuildingBlock: EZIPEK_clean_linker_0, # of connection points: 2
#     Edge 16, Type (0, 1), BuildingBlock: EZIPEK_clean_linker_0, # of connection points: 2
#     Edge 17, Type (0, 1), BuildingBlock: EZIPEK_clean_linker_0, # of connection points: 2
#     Edge 18, Type (0, 1), BuildingBlock: EZIPEK_clean_linker_0, # of connection points: 2
#     Edge 19, Type (0, 1), BuildingBlock: EZIPEK_clean_linker_0, # of connection points: 2
#     Edge 20, Type (0, 1), BuildingBlock: EZIPEK_clean_linker_0, # of connection points: 2
#     Edge 21, Type (0, 1), BuildingBlock: EZIPEK_clean_linker_0, # of connection points: 2
#     Edge 22, Type (0, 1), BuildingBlock: EZIPEK_clean_linker_0, # of connection points: 2
#     Edge 23, Type (0, 1), BuildingBlock: EZIPEK_clean_linker_0, # of connection points: 2
#     Edge 24, Type (0, 1), BuildingBlock: EZIPEK_clean_linker_0, # of connection points: 2
#     Edge 25, Type (0, 1), BuildingBlock: EZIPEK_clean_linker_0, # of connection points: 2
#     Edge 26, Type (0, 1), BuildingBlock: EZIPEK_clean_linker_0, # of connection points: 2
#     Edge 27, Type (0, 1), BuildingBlock: EZIPEK_clean_linker_0, # of connection points: 2
#     Edge 28, Type (0, 1), BuildingBlock: EZIPEK_clean_linker_0, # of connection points: 2
#     Edge 29, Type (0, 1), BuildingBlock: EZIPEK_clean_linker_0, # of connection points: 2
#     Edge 30, Type (0, 1), BuildingBlock: EZIPEK_clean_linker_0, # of connection points: 2
#     Edge 31, Type (0, 1), BuildingBlock: EZIPEK_clean_linker_0, # of connection points: 2
#     Edge 32, Type (0, 1), BuildingBlock: EZIPEK_clean_linker_0, # of connection points: 2
#     Edge 33, Type (0, 1), BuildingBlock: EZIPEK_clean_linker_0, # of connection points: 2
#     Edge 34, Type (0, 1), BuildingBlock: EZIPEK_clean_linker_0, # of connection points: 2
#     Edge 35, Type (0, 1), BuildingBlock: EZIPEK_clean_linker_0, # of connection points: 2
# Relax obj value: 0.227
# Max RMSD: 0.266
# Mean RMSD: 0.197
data_MOF--net-pyr--node1-BETFAJ_clean_sbu_0--node2-QEWDON_clean_linker_0--edge1-EZIPEK_clean_linker_0
_symmetry_space_group_name_H-M    P1
_symmetry_Int_Tables_number       1
_symmetry_cell_setting            triclinic
loop_
_symmetry_equiv_pos_as_xyz
'x, y, z'
_cell_length_a     28.339552
_cell_length_b     31.383532
_cell_length_c     30.575957
_cell_angle_alpha  91.43404
_cell_angle_beta   89.852456
_cell_angle_gamma 110.51803
loop_
_atom_site_label
_atom_site_type_symbol
_atom_site_fract_x
_atom_site_fract_y
_atom_site_fract_z
_atom_type_partial_charge
H0 H 0.4883 0.3655 0.2098 0.0
C1 C 0.46549 0.35158 0.23807 0.0
C2 C 0.4591 0.30717 0.2514 0.0
C3 C 0.43929 0.37648 0.25991 0.0
H4 H 0.42334 0.25486 0.29745 0.0
C5 C 0.4293 0.28936 0.28762 0.0
C6 C 0.40278 0.31383 0.30839 0.0
C7 C 0.40772 0.35712 0.2947 0.0
C8 C 0.44309 0.42253 0.2474 0.0
H9 H 0.38626 0.37554 0.31088 0.0
C10 C 0.39944 0.4308 0.23473 0.0
C11 C 0.40017 0.47555 0.23176 0.0
C12 C 0.48763 0.4593 0.25623 0.0
H13 H 0.52107 0.45349 0.2674 0.0
C14 C 0.48834 0.50388 0.25329 0.0
H15 H 0.36454 0.40251 0.22874 0.0
C16 C 0.44474 0.51206 0.24138 0.0
H17 H 0.44567 0.54678 0.23976 0.0
H18 H 0.5225 0.53217 0.26114 0.0
H19 H 0.20702 0.90815 0.76168 0.0
C20 C 0.23323 0.89564 0.74439 0.0
C21 C 0.27856 0.89872 0.76424 0.0
C22 C 0.22287 0.87834 0.70148 0.0
H23 H 0.348 0.88624 0.75774 0.0
C24 C 0.31284 0.88368 0.74189 0.0
C25 C 0.30371 0.86829 0.69839 0.0
C26 C 0.25878 0.86608 0.67788 0.0
C27 C 0.17803 0.87986 0.67941 0.0
H28 H 0.25218 0.85551 0.64372 0.0
C29 C 0.17543 0.92232 0.67078 0.0
C30 C 0.13447 0.92543 0.64794 0.0
C31 C 0.13895 0.84005 0.66591 0.0
H32 H 0.14089 0.80693 0.67243 0.0
C33 C 0.09703 0.84313 0.64399 0.0
H34 H 0.20627 0.95309 0.68046 0.0
C35 C 0.0948 0.88583 0.63472 0.0
H36 H 0.06292 0.88805 0.6167 0.0
H37 H 0.06671 0.81249 0.6336 0.0
H38 H 0.7404 0.48774 0.93585 0.0
C39 C 0.72409 0.45269 0.9457 0.0
C40 C 0.75101 0.43559 0.97563 0.0
C41 C 0.67491 0.42616 0.93105 0.0
H42 H 0.74896 0.37699 1.01245 0.0
C43 C 0.72844 0.39013 0.98973 0.0
C44 C 0.67882 0.36232 0.97702 0.0
C45 C 0.65288 0.38118 0.94761 0.0
C46 C 0.64208 0.44806 0.90714 0.0
H47 H 0.61438 0.3611 0.93862 0.0
C48 C 0.65385 0.47237 0.86654 0.0
C49 C 0.61943 0.49196 0.8478 0.0
C50 C 0.59657 0.44482 0.92764 0.0
H51 H 0.58622 0.4275 0.95834 0.0
C52 C 0.56398 0.46431 0.90999 0.0
H53 H 0.68823 0.47502 0.84947 0.0
C54 C 0.5752 0.4875 0.87097 0.0
H55 H 0.54826 0.50152 0.85818 0.0
H56 H 0.52929 0.46123 0.92677 0.0
H57 H 0.93574 0.8274 0.40518 0.0
C58 C 0.90359 0.80893 0.42483 0.0
C59 C 0.89015 0.83129 0.46206 0.0
C60 C 0.87371 0.76324 0.41183 0.0
H61 H 0.83261 0.82369 0.5111 0.0
C62 C 0.8456 0.80676 0.48487 0.0
C63 C 0.81798 0.76055 0.4759 0.0
C64 C 0.83342 0.73915 0.44011 0.0
C65 C 0.87425 0.74251 0.36552 0.0
H66 H 0.81114 0.70399 0.43212 0.0
C67 C 0.91624 0.73621 0.34232 0.0
C68 C 0.90858 0.7123 0.30001 0.0
C69 C 0.82699 0.72617 0.34424 0.0
H70 H 0.79441 0.73097 0.35904 0.0
C71 C 0.81974 0.7029 0.30417 0.0
H72 H 0.95346 0.74874 0.35697 0.0
C73 C 0.85954 0.69567 0.28272 0.0
H74 H 0.85196 0.67723 0.25155 0.0
H75 H 0.78252 0.6902 0.2895 0.0
H76 H 0.66664 0.79524 0.95298 0.0
C77 C 0.67563 0.80516 0.91942 0.0
C78 C 0.72069 0.80402 0.90061 0.0
C79 C 0.64263 0.81974 0.89437 0.0
H80 H 0.77 0.82246 0.84528 0.0
C81 C 0.73377 0.82046 0.85864 0.0
C82 C 0.70151 0.83582 0.83432 0.0
C83 C 0.65435 0.83193 0.85088 0.0
C84 C 0.59875 0.82808 0.91336 0.0
H85 H 0.62925 0.84346 0.83158 0.0
C86 C 0.60588 0.86829 0.93811 0.0
C87 C 0.56474 0.88221 0.94732 0.0
C88 C 0.55017 0.80157 0.89876 0.0
H89 H 0.54432 0.77141 0.87835 0.0
C90 C 0.50918 0.81488 0.90879 0.0
H91 H 0.64351 0.88982 0.94828 0.0
C92 C 0.51641 0.85518 0.93268 0.0
H93 H 0.48436 0.8654 0.93974 0.0
H94 H 0.47188 0.79444 0.89715 0.0
H95 H 0.82955 0.24589 0.58061 0.0
C96 C 0.82775 0.25104 0.5458 0.0
C97 C 0.85312 0.23203 0.51609 0.0
C98 C 0.79725 0.27385 0.53019 0.0
H99 H 0.86292 0.21688 0.4483 0.0
C100 C 0.84691 0.23508 0.47108 0.0
C101 C 0.8138 0.25545 0.45595 0.0
C102 C 0.79276 0.27843 0.48528 0.0
C103 C 0.76165 0.28479 0.55881 0.0
H104 H 0.76627 0.29348 0.47329 0.0
C105 C 0.777 0.32612 0.58227 0.0
C106 C 0.74083 0.34407 0.59701 0.0
C107 C 0.71033 0.25826 0.55514 0.0
H108 H 0.69812 0.22617 0.53696 0.0
C109 C 0.67427 0.27421 0.5728 0.0
H110 H 0.81679 0.34489 0.5866 0.0
C111 C 0.68924 0.31735 0.59256 0.0
H112 H 0.6603 0.33045 0.6031 0.0
H113 H 0.63463 0.2542 0.56909 0.0
H114 H 0.45052 0.8478 0.28619 0.0
C115 C 0.41291 0.83135 0.27297 0.0
C116 C 0.39526 0.85353 0.23937 0.0
C117 C 0.38344 0.7865 0.28699 0.0
H118 H 0.33495 0.84524 0.19332 0.0
C119 C 0.34808 0.82961 0.21965 0.0
C120 C 0.31897 0.78492 0.23068 0.0
C121 C 0.33613 0.76452 0.26531 0.0
C122 C 0.40645 0.75621 0.31203 0.0
H123 H 0.31432 0.72961 0.27299 0.0
C124 C 0.41663 0.75648 0.35878 0.0
C125 C 0.43417 0.72225 0.3774 0.0
C126 C 0.41488 0.72204 0.28607 0.0
H127 H 0.40783 0.72009 0.25112 0.0
C128 C 0.43139 0.68936 0.30391 0.0
H129 H 0.41022 0.78192 0.38011 0.0
C130 C 0.44074 0.6894 0.34853 0.0
H131 H 0.45344 0.66309 0.36075 0.0
H132 H 0.43679 0.66331 0.28274 0.0
H133 H 0.248 0.49818 0.77255 0.0
C134 C 0.23094 0.46825 0.75228 0.0
C135 C 0.25583 0.45942 0.71338 0.0
C136 C 0.18374 0.43689 0.76675 0.0
H137 H 0.2585 0.40183 0.67279 0.0
C138 C 0.23726 0.41345 0.69673 0.0
C139 C 0.19023 0.38204 0.70888 0.0
C140 C 0.16285 0.3958 0.74106 0.0
C141 C 0.15453 0.44395 0.80798 0.0
H142 H 0.1248 0.37283 0.74604 0.0
C143 C 0.16019 0.48633 0.83172 0.0
C144 C 0.12568 0.48759 0.86682 0.0
C145 C 0.11775 0.40439 0.82448 0.0
H146 H 0.11516 0.37055 0.81397 0.0
C147 C 0.08228 0.40636 0.85487 0.0
H148 H 0.1906 0.5172 0.82352 0.0
C149 C 0.08489 0.44733 0.8742 0.0
H150 H 0.05636 0.44674 0.89812 0.0
H151 H 0.05286 0.37532 0.86439 0.0
Sm152 Sm 0.06603 0.12621 0.54133 0.0
Sm153 Sm 1.01589 0.08634 0.63185 0.0
C154 C 0.09546 0.16 0.46538 0.0
C155 C 0.14606 0.1894 0.45413 0.0
C156 C 0.15277 0.22772 0.42917 0.0
C157 C 0.20091 0.25405 0.41602 0.0
C158 C 0.24213 0.24182 0.42777 0.0
C159 C 0.23621 0.20651 0.45657 0.0
C160 C 0.18815 0.18031 0.46982 0.0
C161 C 0.12003 0.09086 0.595 0.0
C162 C 0.09405 0.19582 0.62837 0.0
C163 C 0.98793 0.0369 0.70131 0.0
C164 C 0.94044 0.99937 0.70634 0.0
C165 C 0.93441 0.96855 0.73983 0.0
C166 C 0.88729 0.93552 0.74659 0.0
C167 C 0.84632 0.93317 0.71968 0.0
C168 C 0.85355 0.96109 0.68352 0.0
C169 C 0.90044 0.99454 0.67725 0.0
C170 C 0.9542 0.12033 0.58658 0.0
C171 C 0.98618 1.01943 0.54032 0.0
O172 O 0.07182 0.17853 0.49252 0.0
O173 O 0.09085 0.11804 0.47438 0.0
O174 O 0.07388 0.077 0.58831 0.0
O175 O 0.14196 0.12452 0.56956 0.0
O176 O 0.09344 0.19159 0.58509 0.0
O177 O 0.07315 0.15942 0.65321 0.0
O178 O 1.01798 1.02937 0.67213 0.0
O179 O 0.98381 0.07702 0.69847 0.0
O180 O 0.99572 0.11859 0.57545 0.0
O181 O 0.94157 0.10147 0.62403 0.0
O182 O 0.98831 1.02248 0.58393 0.0
O183 O 1.00646 0.05674 0.51726 0.0
H184 H 0.12072 0.23598 0.41828 0.0
H185 H 0.20554 0.28144 0.39364 0.0
H186 H 0.26796 0.19676 0.46543 0.0
H187 H 0.18384 0.15167 0.49047 0.0
H188 H 0.96534 0.97138 0.76182 0.0
H189 H 0.88188 0.91389 0.77462 0.0
H190 H 0.82208 0.95968 0.66276 0.0
H191 H 0.9049 1.01786 0.65079 0.0
Sm192 Sm 0.57644 0.1084 0.12291 0.0
Sm193 Sm 0.49741 0.09968 0.08085 0.0
C194 C 0.66013 0.13394 0.16944 0.0
C195 C 0.67467 0.15449 0.21282 0.0
C196 C 0.68743 0.20165 0.21993 0.0
C197 C 0.70536 0.22114 0.26059 0.0
C198 C 0.71064 0.19353 0.29396 0.0
C199 C 0.69488 0.14631 0.28795 0.0
C200 C 0.67709 0.12681 0.24742 0.0
C201 C 0.50257 1.02818 0.15213 0.0
C202 C 0.50586 0.16316 0.16087 0.0
C203 C 0.41412 0.07976 0.03356 0.0
C204 C 0.38814 0.04678 0.99997 0.0
C205 C 0.40149 1.00839 0.99134 0.0
C206 C 0.38089 0.98027 0.95522 0.0
C207 C 0.34706 0.99072 0.92798 0.0
C208 C 0.33247 1.02813 0.93754 0.0
C209 C 0.35309 0.05621 0.97354 0.0
C210 C 0.5724 0.18227 0.05714 0.0
C211 C 0.56443 0.04106 0.0453 0.0
O212 O 0.65088 0.15932 0.1401 0.0
O213 O 0.62801 0.0925 0.16834 0.0
O214 O 0.49556 0.0658 0.14705 0.0
O215 O 0.5473 1.03252 0.13988 0.0
O216 O 0.55258 0.16442 0.15785 0.0
O217 O 0.47123 0.13152 0.13892 0.0
O218 O 0.41522 0.06398 0.07233 0.0
O219 O 0.45736 0.10871 1.02186 0.0
O220 O 0.57797 0.14367 0.05817 0.0
O221 O 0.52827 0.17795 0.07144 0.0
O222 O 0.51799 0.03992 0.0502 0.0
O223 O 0.60046 0.07334 0.06541 0.0
H224 H 0.68515 0.22363 0.19389 0.0
H225 H 0.71727 0.25772 0.26549 0.0
H226 H 0.69859 0.1249 0.31404 0.0
H227 H 0.66678 0.09032 0.2428 0.0
H228 H 0.42891 1.00111 1.01155 0.0
H229 H 0.39259 0.95157 0.94758 0.0
H230 H 0.30667 0.03646 0.91619 0.0
H231 H 0.34314 0.08613 0.97985 0.0
Sm232 Sm 0.54338 0.58871 0.59226 0.0
Sm233 Sm 0.55159 0.66215 0.63832 0.0
C234 C 0.56118 0.52732 0.54257 0.0
C235 C 0.59938 0.50877 0.55663 0.0
C236 C 0.64085 0.5368 0.58174 0.0
C237 C 0.67401 0.51885 0.6009 0.0
C238 C 0.66682 0.47283 0.59437 0.0
C239 C 0.62524 0.4445 0.56992 0.0
C240 C 0.59132 0.46233 0.55145 0.0
C241 C 0.45672 0.56757 0.64363 0.0
C242 C 0.58591 0.58547 0.69055 0.0
C243 C 0.55144 0.72789 0.69398 0.0
C244 C 0.5298 0.76355 0.69006 0.0
C245 C 0.49652 0.76763 0.72242 0.0
C246 C 0.46513 0.7921 0.71439 0.0
C247 C 0.46707 0.81291 0.67406 0.0
C248 C 0.50273 0.81173 0.64282 0.0
C249 C 0.53396 0.78691 0.6507 0.0
C250 C 0.63412 0.68033 0.58257 0.0
C251 C 0.50172 0.66291 0.5424 0.0
O252 O 0.57844 0.57033 0.53298 0.0
O253 O 0.5217 0.517 0.56762 0.0
O254 O 0.47605 0.60455 0.6229 0.0
O255 O 0.48362 0.54238 0.63722 0.0
O256 O 0.58236 0.56742 0.65094 0.0
O257 O 0.57345 0.62214 0.69536 0.0
O258 O 0.51813 0.68691 0.6945 0.0
O259 O 0.58967 0.73067 0.669 0.0
O260 O 0.61768 0.64601 0.60714 0.0
O261 O 0.60586 0.7047 0.58628 0.0
O262 O 0.50883 0.68302 0.58162 0.0
O263 O 0.51289 0.62533 0.53742 0.0
H264 H 0.64745 0.57268 0.587 0.0
H265 H 0.70623 0.54106 0.61935 0.0
H266 H 0.61972 0.40882 0.56445 0.0
H267 H 0.55889 0.44001 0.53337 0.0
H268 H 0.49228 0.74922 0.75257 0.0
H269 H 0.43736 0.79273 0.73861 0.0
H270 H 0.50422 0.82761 0.61155 0.0
H271 H 0.55886 0.78361 0.62494 0.0
Sm272 Sm 0.04754 0.58492 0.11135 0.0
Sm273 Sm 0.03846 0.6582 0.05888 0.0
C274 C 0.08006 0.52369 0.14672 0.0
C275 C 0.12832 0.5205 0.16037 0.0
C276 C 0.17448 0.55368 0.14899 0.0
C277 C 0.21998 0.54863 0.16054 0.0
C278 C 0.21966 0.51002 0.18301 0.0
C279 C 0.17348 0.47711 0.19441 0.0
C280 C 0.12816 0.48241 0.18327 0.0
C281 C 1.00096 0.63715 0.15907 0.0
C282 C 0.14125 0.68457 0.11963 0.0
C283 C 0.99411 0.71688 0.03916 0.0
C284 C 0.95294 0.72327 1.01318 0.0
C285 C 0.90515 0.71313 0.03253 0.0
C286 C 0.86699 0.72354 1.01183 0.0
C287 C 0.87553 0.74457 0.97139 0.0
C288 C 0.92244 0.75354 0.9509 0.0
C289 C 0.96105 0.74308 0.97177 0.0
C290 C 0.07859 0.60918 0.99951 0.0
C291 C 0.94644 0.55589 0.0515 0.0
O292 O 0.07435 0.52677 0.10483 0.0
O293 O 0.06309 0.55067 0.1698 0.0
O294 O 0.0389 0.65188 0.13381 0.0
O295 O 0.98459 0.59276 0.1567 0.0
O296 O 0.12505 0.64056 0.12733 0.0
O297 O 0.11493 0.70142 0.09348 0.0
O298 O 0.97896 0.68633 0.06932 0.0
O299 O 0.03671 0.7183 1.02083 0.0
O300 O 0.06743 0.60039 0.03977 0.0
O301 O 0.06918 0.64575 0.99073 0.0
O302 O 0.96171 0.59975 0.04331 0.0
O303 O 0.97399 0.53995 0.07638 0.0
H304 H 0.17528 0.58302 0.13078 0.0
H305 H 0.2553 0.5744 0.15153 0.0
H306 H 0.17259 0.44719 0.21181 0.0
H307 H 0.0929 0.45642 0.19203 0.0
H308 H 0.89752 0.69845 0.06462 0.0
H309 H 0.83115 0.71654 0.02812 0.0
H310 H 0.92959 0.76991 0.91958 0.0
H311 H 0.99743 0.75162 0.95616 0.0
C312 C 0.32039 0.2561 0.32735 0.0
C313 C 0.36468 0.29202 0.34103 0.0
C314 C 0.32992 0.29397 0.41381 0.0
C315 C 0.28688 0.25683 0.40041 0.0
N316 N 0.24609 0.19472 0.34929 0.0
N317 N 0.41667 0.33962 0.39842 0.0
C318 C 0.28392 0.23517 0.3588 0.0
C319 C 0.37112 0.30925 0.38478 0.0
N320 N 0.31151 0.24397 0.284 0.0
N321 N 0.33062 0.3152 0.4535 0.0
H322 H 0.44773 0.3511 0.37778 0.0
H323 H 0.42497 0.35054 0.43084 0.0
H324 H 0.30133 0.30366 0.47594 0.0
H325 H 0.35866 0.3456 0.46314 0.0
H326 H 0.27715 0.22154 0.27207 0.0
H327 H 0.33638 0.25942 0.25914 0.0
H328 H 0.24561 0.17514 0.32115 0.0
H329 H 0.21756 0.1784 0.37116 0.0
C330 C 0.27296 0.90048 0.8457 0.0
C331 C 0.29355 0.92254 0.80657 0.0
C332 C 0.35412 0.98524 0.84773 0.0
C333 C 0.33045 0.96542 0.88675 0.0
N334 N 0.26445 0.90764 0.92418 0.0
N335 N 0.34596 0.98967 0.76958 0.0
C336 C 0.28899 0.92392 0.88621 0.0
C337 C 0.33195 0.96609 0.80733 0.0
N338 N 0.2394 0.8568 0.8441 0.0
N339 N 0.39831 1.02169 0.84937 0.0
H340 H 0.32939 0.97713 0.73929 0.0
H341 H 0.37031 1.02338 0.76892 0.0
H342 H 0.41587 0.03671 0.87867 0.0
H343 H 0.41995 0.03437 0.82186 0.0
H344 H 0.22725 0.8372 0.87167 0.0
H345 H 0.22618 0.83887 0.81481 0.0
H346 H 0.23059 0.88025 0.92524 0.0
H347 H 0.27623 0.92342 0.95468 0.0
C348 C 0.65013 0.56144 0.79705 0.0
C349 C 0.62324 0.51409 0.8029 0.0
C350 C 0.57134 0.51495 0.7379 0.0
C351 C 0.5996 0.56163 0.72988 0.0
N352 N 0.67235 0.62706 0.74938 0.0
N353 N 0.56753 0.44412 0.77075 0.0
C354 C 0.64102 0.58418 0.75881 0.0
C355 C 0.58739 0.49052 0.77027 0.0
N356 N 0.68345 0.58506 0.82879 0.0
N357 N 0.52606 0.49451 0.71747 0.0
H358 H 0.57842 0.4254 0.79389 0.0
H359 H 0.54475 0.42441 0.74567 0.0
H360 H 0.51055 0.51206 0.69718 0.0
H361 H 0.50104 0.46241 0.72532 0.0
H362 H 0.70087 0.62027 0.82947 0.0
H363 H 0.69208 0.56912 0.85561 0.0
H364 H 0.70584 0.64405 0.7662 0.0
H365 H 0.66667 0.64436 0.72234 0.0
C366 C 0.96196 0.66392 0.27672 0.0
C367 C 0.94826 0.70293 0.27041 0.0
C368 C 0.98289 0.70662 0.19452 0.0
C369 C 0.98966 0.6639 0.19881 0.0
N370 N 1.00615 0.6142 0.25047 0.0
N371 N 0.94601 0.7615 0.22221 0.0
C372 C 0.98493 0.64605 0.24187 0.0
C373 C 0.9597 0.72456 0.2291 0.0
N374 N 0.9505 0.64226 0.31558 0.0
N375 N 1.00124 0.7316 0.15841 0.0
H376 H 0.93279 0.77742 0.24732 0.0
H377 H 0.94535 0.775 0.19156 0.0
H378 H 1.02304 0.72215 0.13547 0.0
H379 H 1.00094 0.76426 0.15395 0.0
H380 H 0.95264 0.61036 0.32094 0.0
H381 H 0.93637 0.65551 0.34209 0.0
H382 H 1.00883 0.60263 0.28164 0.0
H383 H 0.02695 0.60351 0.22731 0.0
C384 C 0.45007 0.2558 0.18578 0.0
C385 C 0.47632 0.27535 0.22485 0.0
C386 C 0.51537 0.21693 0.22519 0.0
C387 C 0.4939 0.20067 0.18343 0.0
N388 N 0.44808 0.21211 0.1199 0.0
N389 N 0.53972 0.27935 0.27859 0.0
C390 C 0.4634 0.22217 0.16247 0.0
C391 C 0.51106 0.25751 0.24338 0.0
N392 N 0.41018 0.26716 0.17202 0.0
N393 N 0.5372 0.19218 0.24871 0.0
H394 H 0.53733 0.30921 0.29256 0.0
H395 H 0.56895 0.27035 0.29119 0.0
H396 H 0.53858 0.16094 0.23765 0.0
H397 H 0.54898 0.20005 0.2811 0.0
H398 H 0.3857 0.24938 0.14703 0.0
H399 H 0.39844 0.29146 0.18786 0.0
H400 H 0.4325 0.23187 0.10206 0.0
H401 H 0.45384 0.18667 0.10083 0.0
C402 C 0.15326 0.98561 0.59246 0.0
C403 C 0.13638 0.97073 0.63494 0.0
C404 C 0.1334 0.04554 0.65447 0.0
C405 C 0.14178 0.05774 0.6101 0.0
N406 N 0.15506 0.03765 0.5353 0.0
N407 N 0.10732 0.98448 0.70626 0.0
C408 C 0.15149 1.02773 0.57874 0.0
C409 C 0.1261 1.0003 0.6662 0.0
N410 N 0.17145 0.95972 0.56535 0.0
N411 N 0.13116 0.07724 0.685 0.0
H412 H 0.10144 0.95132 0.71579 0.0
H413 H 0.09393 1.00289 0.72876 0.0
H414 H 0.1358 0.11038 0.67651 0.0
H415 H 0.129 0.07199 0.71854 0.0
H416 H 0.18947 0.97137 0.53596 0.0
H417 H 0.1724 0.92803 0.57378 0.0
H418 H 0.15402 1.01385 0.5106 0.0
H419 H 0.15639 0.06885 0.5235 0.0
C420 C 0.80681 0.47708 0.04068 0.0
C421 C 0.8016 0.4664 0.99489 0.0
C422 C 0.89062 0.51694 0.98579 0.0
C423 C 0.8969 0.52409 0.03203 0.0
N424 N 0.8619 0.50474 0.10388 0.0
N425 N 0.84214 0.47056 0.92503 0.0
C426 C 0.85538 0.50184 0.0595 0.0
C427 C 0.84453 0.48503 0.96777 0.0
N428 N 0.76465 0.46636 0.06598 0.0
N429 N 0.92883 0.54056 0.95879 0.0
H430 H 0.80983 0.44675 0.91099 0.0
H431 H 0.8733 0.47885 0.90455 0.0
H432 H 0.9642 0.56139 0.97029 0.0
H433 H 0.92452 0.54167 0.92507 0.0
H434 H 0.76503 0.47663 0.09866 0.0
H435 H 0.72844 0.45183 0.05298 0.0
H436 H 0.83527 0.48458 0.12536 0.0
H437 H 0.89533 0.52493 0.11922 0.0
C438 C 0.77468 0.73458 0.54979 0.0
C439 C 0.77125 0.73582 0.50322 0.0
C440 C 0.67955 0.69238 0.50929 0.0
C441 C 0.68232 0.69537 0.55585 0.0
N442 N 0.73218 0.72844 0.61986 0.0
N443 N 0.71655 0.72357 0.4402 0.0
C444 C 0.72986 0.71904 0.57591 0.0
C445 C 0.72264 0.71633 0.48337 0.0
N446 N 0.821 0.74666 0.56921 0.0
N447 N 0.63527 0.66676 0.48945 0.0
H448 H 0.74584 0.74344 0.42077 0.0
H449 H 0.68154 0.71424 0.42478 0.0
H450 H 0.60243 0.65125 0.50692 0.0
H451 H 0.63217 0.65802 0.45622 0.0
H452 H 0.82621 0.74345 0.60251 0.0
H453 H 0.85412 0.75489 0.55121 0.0
H454 H 0.76439 0.75053 0.6355 0.0
H455 H 0.70074 0.71705 0.64008 0.0
C456 C 0.32174 0.4912 0.25193 0.0
C457 C 0.35395 0.48434 0.21908 0.0
C458 C 0.29725 0.49266 0.1621 0.0
C459 C 0.26747 0.50351 0.19498 0.0
N460 N 0.25665 0.52193 0.27052 0.0
N461 N 0.37677 0.48424 0.14311 0.0
C462 C 0.28123 0.50528 0.23976 0.0
C463 C 0.34302 0.48684 0.17417 0.0
N464 N 0.32905 0.48308 0.29465 0.0
N465 N 0.28074 0.48599 0.11963 0.0
H466 H 0.40987 0.47843 0.1506 0.0
H467 H 0.3739 0.4911 0.11028 0.0
H468 H 0.24738 0.48975 0.10943 0.0
H469 H 0.2979 0.47315 0.09504 0.0
H470 H 0.30339 0.48241 0.31931 0.0
H471 H 0.35868 0.47318 0.30486 0.0
H472 H 0.26826 0.52835 0.30307 0.0
H473 H 0.22746 0.53349 0.2627 0.0
C474 C 0.63108 0.2747 0.97007 0.0
C475 C 0.65322 0.3148 0.99693 0.0
C476 C 0.63281 0.26475 0.06167 0.0
C477 C 0.6058 0.22583 0.03531 0.0
N478 N 0.57225 0.19647 0.96417 0.0
N479 N 0.66268 0.34693 0.07036 0.0
C480 C 0.60308 0.23167 0.98942 0.0
C481 C 0.65107 0.30935 0.04332 0.0
N482 N 0.63838 0.277 0.92592 0.0
N483 N 0.641 0.25928 0.10479 0.0
H484 H 0.67097 0.37956 0.05863 0.0
H485 H 0.65778 0.34536 0.10413 0.0
H486 H 0.62711 0.22777 0.1195 0.0
H487 H 0.66538 0.285 0.1247 0.0
H488 H 0.6273 0.24845 0.90502 0.0
H489 H 0.66004 0.30679 0.91068 0.0
H490 H 0.56319 0.20007 0.9318 0.0
H491 H 0.55284 0.16442 0.9766 0.0
C492 C 0.92526 0.8889 0.52529 0.0
C493 C 0.92036 0.87998 0.47928 0.0
C494 C 0.96827 0.96262 0.47175 0.0
C495 C 0.962 0.9721 0.51738 0.0
N496 N 0.91201 0.93886 0.58069 0.0
N497 N 0.92803 0.91517 0.40878 0.0
C498 C 0.93404 0.93368 0.54227 0.0
C499 C 0.93918 0.91881 0.45236 0.0
N500 N 0.92213 0.85494 0.55327 0.0
N501 N 1.00329 0.99337 0.4468 0.0
H502 H 0.90392 0.88528 0.39392 0.0
H503 H 0.93794 0.94344 0.38886 0.0
H504 H 0.03026 1.02287 0.45939 0.0
H505 H 1.01034 0.98591 0.41453 0.0
H506 H 0.92747 0.86089 0.58696 0.0
H507 H 0.92091 0.82293 0.542 0.0
H508 H 0.89007 0.91108 0.59865 0.0
H509 H 0.90796 0.96952 0.58991 0.0
C510 C 0.33627 0.81113 0.66339 0.0
C511 C 0.34354 0.857 0.67506 0.0
C512 C 0.43485 0.87725 0.67273 0.0
C513 C 0.42735 0.83103 0.66355 0.0
N514 N 0.37402 0.75809 0.63453 0.0
N515 N 0.39746 0.93586 0.6756 0.0
C516 C 0.37894 0.79952 0.653 0.0
C517 C 0.39231 0.89092 0.674 0.0
N518 N 0.28973 0.77803 0.66612 0.0
N519 N 0.48191 0.90717 0.68289 0.0
H520 H 0.3663 0.9463 0.67593 0.0
H521 H 0.43189 0.96225 0.67232 0.0
H522 H 0.51398 0.89815 0.681 0.0
H523 H 0.48873 0.94004 0.69521 0.0
H524 H 0.28383 0.7434 0.66317 0.0
H525 H 0.25723 0.78457 0.67433 0.0
H526 H 0.33988 0.73522 0.62262 0.0
H527 H 0.40508 0.74873 0.62714 0.0
C528 C 0.7354 0.83653 0.75932 0.0
C529 C 0.72099 0.86031 0.79379 0.0
C530 C 0.77427 0.93323 0.76519 0.0
C531 C 0.79521 0.90905 0.7358 0.0
N532 N 0.7943 0.83958 0.70049 0.0
N533 N 0.71505 0.93084 0.82287 0.0
C534 C 0.77427 0.86117 0.73064 0.0
C535 C 0.73597 0.90852 0.79411 0.0
N536 N 0.71214 0.79043 0.755 0.0
N537 N 0.79504 0.97973 0.76866 0.0
H538 H 0.69068 0.9153 0.84782 0.0
H539 H 0.71907 0.96494 0.8205 0.0
H540 H 0.82185 0.99942 0.74706 0.0
H541 H 0.78766 0.99927 0.79391 0.0
H542 H 0.71852 0.7707 0.7294 0.0
H543 H 0.68314 0.77229 0.7758 0.0
H544 H 0.78535 0.80451 0.69833 0.0
H545 H 0.82143 0.85744 0.67804 0.0
C546 C 0.81618 0.25061 0.37394 0.0
C547 C 0.78879 0.24048 0.41341 0.0
C548 C 0.70983 0.20792 0.37328 0.0
C549 C 0.73735 0.21384 0.33414 0.0
N550 N 0.81713 0.23119 0.29699 0.0
N551 N 0.71271 0.19374 0.44975 0.0
C552 C 0.79078 0.23255 0.33421 0.0
C553 C 0.73637 0.21466 0.41298 0.0
N554 N 0.86586 0.27768 0.37434 0.0
N555 N 0.65853 0.19536 0.37253 0.0
H556 H 0.73208 0.19338 0.47859 0.0
H557 H 0.67529 0.17183 0.44981 0.0
H558 H 0.63781 0.19016 0.34346 0.0
H559 H 0.63747 0.1946 0.40071 0.0
H560 H 0.8863 0.28928 0.34598 0.0
H561 H 0.88558 0.29153 0.40311 0.0
H562 H 0.85608 0.23949 0.29666 0.0
H563 H 0.79986 0.21817 0.26705 0.0
C564 C 0.41378 0.679 0.44947 0.0
C565 C 0.44645 0.71663 0.42591 0.0
C566 C 0.51203 0.72417 0.48334 0.0
C567 C 0.48165 0.68281 0.50345 0.0
N568 N 0.40295 0.61999 0.50329 0.0
N569 N 0.52891 0.77314 0.41989 0.0
C570 C 0.43225 0.66023 0.48581 0.0
C571 C 0.49597 0.73893 0.4432 0.0
N572 N 0.3643 0.66136 0.43708 0.0
N573 N 0.55672 0.74977 0.50254 0.0
H574 H 0.5179 0.78612 0.39218 0.0
H575 H 0.5674 0.78699 0.42648 0.0
H576 H 0.57044 0.73985 0.5305 0.0
H577 H 0.57828 0.78238 0.49293 0.0
H578 H 0.33666 0.63692 0.45448 0.0
H579 H 0.3501 0.6746 0.41132 0.0
H580 H 0.36925 0.59864 0.48933 0.0
H581 H 0.41385 0.60648 0.5307 0.0
C582 C 0.12482 0.56864 0.8892 0.0
C583 C 0.12932 0.52646 0.90032 0.0
C584 C 0.09854 0.53709 0.97445 0.0
C585 C 0.09851 0.58154 0.96564 0.0
N586 N 0.1308 0.64402 0.91531 0.0
N587 N 0.13929 0.48198 0.96032 0.0
C588 C 0.1174 0.59874 0.9232 0.0
C589 C 0.12341 0.51532 0.94544 0.0
N590 N 0.12624 0.5799 0.84633 0.0
N591 N 0.07083 0.51293 1.0079 0.0
H592 H 0.13847 0.4743 0.99338 0.0
H593 H 0.1581 0.46588 0.94014 0.0
H594 H 0.04481 0.52319 0.02505 0.0
H595 H 0.06755 0.47936 1.01353 0.0
H596 H 0.11783 0.60783 0.83593 0.0
H597 H 0.13231 0.55944 0.82115 0.0
H598 H 0.14764 0.65822 0.88621 0.0
H599 H 0.13227 0.66826 0.93958 0.0
C600 C 0.58621 0.96739 0.95186 0.0
C601 C 0.57155 0.92481 0.97294 0.0
C602 C 0.5698 0.96309 0.04298 0.0
C603 C 0.5748 1.00367 1.02107 0.0
N604 N 0.59087 0.04645 0.95521 0.0
N605 N 0.54485 0.88118 0.03822 0.0
C606 C 0.58436 1.00654 0.9756 0.0
C607 C 0.56177 0.92235 1.01841 0.0
N608 N 0.60185 0.97023 0.90938 0.0
N609 N 0.57707 0.96432 0.08708 0.0
H610 H 0.54103 0.85056 1.02189 0.0
H611 H 0.53124 0.87723 0.07013 0.0
H612 H 0.59389 0.99515 0.10384 0.0
H613 H 0.5756 0.93609 0.10499 0.0
H614 H 0.61762 1.00081 0.89334 0.0
H615 H 0.60224 0.94199 0.89086 0.0
H616 H 0.59313 0.04997 0.92145 0.0
H617 H 0.59215 0.07605 0.9723 0.0
C618 C 0.86544 0.15695 0.51941 0.0
C619 C 0.88077 0.20374 0.53222 0.0
C620 C 0.94117 0.19406 0.5836 0.0
C621 C 0.93033 0.14923 0.56669 0.0
N622 N 0.88992 0.09063 0.51256 0.0
N623 N 0.94165 0.26927 0.56845 0.0
C624 C 0.89524 0.13159 0.53235 0.0
C625 C 0.92127 0.22315 0.56192 0.0
N626 N 0.8209 0.13593 0.49765 0.0
N627 N 0.96916 0.20852 0.62097 0.0
H628 H 0.92909 0.29194 0.55181 0.0
H629 H 0.97423 0.28505 0.58696 0.0
H630 H 0.98568 0.18862 0.63751 0.0
H631 H 0.97318 0.23931 0.63702 0.0
H632 H 0.80638 0.10097 0.49113 0.0
H633 H 0.79563 0.15224 0.4905 0.0
H634 H 0.86823 0.07858 0.48438 0.0
H635 H 0.9106 0.07066 0.52212 0.0
C636 C 0.22944 0.77237 0.20294 0.0
C637 C 0.27278 0.7591 0.20237 0.0
C638 C 0.23274 0.70294 0.14253 0.0
C639 C 0.18841 0.71449 0.14442 0.0
N640 N 0.14591 0.76308 0.1742 0.0
N641 N 0.31435 0.70963 0.17305 0.0
C642 C 0.18739 0.75034 0.1738 0.0
C643 C 0.27385 0.72372 0.17258 0.0
N644 N 0.22758 0.8046 0.23324 0.0
N645 N 0.23683 0.67397 0.10975 0.0
H646 H 0.34717 0.72647 0.19085 0.0
H647 H 0.31475 0.67983 0.15763 0.0
H648 H 0.20885 0.65995 0.08608 0.0
H649 H 0.26935 0.66683 0.10317 0.0
H650 H 0.19698 0.81505 0.23815 0.0
H651 H 0.25645 0.81994 0.2558 0.0
H652 H 0.1435 0.79141 0.19099 0.0
H653 H 0.11332 0.74601 0.15633 0.0
C654 C 0.31757 0.48619 0.64751 0.0
C655 C 0.30255 0.49479 0.69069 0.0
C656 C 0.38351 0.56023 0.69649 0.0
C657 C 0.40184 0.54614 0.65738 0.0
N658 N 0.38442 0.4938 0.59529 0.0
N659 N 0.30883 0.56254 0.73281 0.0
C660 C 0.36826 0.50856 0.6329 0.0
C661 C 0.33203 0.53809 0.7095 0.0
N662 N 0.28149 0.46242 0.61775 0.0
N663 N 0.41532 0.5943 0.72213 0.0
H664 H 0.26988 0.55422 0.7311 0.0
H665 H 0.32781 0.59536 0.74518 0.0
H666 H 0.4529 0.61101 0.71399 0.0
H667 H 0.4052 0.60294 0.75302 0.0
H668 H 0.28895 0.45813 0.58487 0.0
H669 H 0.24313 0.45302 0.62447 0.0
H670 H 0.36462 0.46258 0.57998 0.0
H671 H 0.4185 0.51174 0.58038 0.0
C672 C 0.75521 0.74218 0.91387 0.0
C673 C 0.75636 0.78699 0.92377 0.0
C674 C 0.83666 0.80455 0.96314 0.0
C675 C 0.83586 0.75989 0.95277 0.0
N676 N 0.79801 0.68713 0.91596 0.0
N677 N 0.79375 0.8595 0.96097 0.0
C678 C 0.79589 0.7288 0.92767 0.0
C679 C 0.7959 0.81782 0.94938 0.0
N680 N 0.71454 0.71241 0.89181 0.0
N681 N 0.87729 0.83455 0.98508 0.0
H682 H 0.76462 0.8702 0.951 0.0
H683 H 0.81873 0.88272 0.98243 0.0
H684 H 0.90725 0.82576 0.9964 0.0
H685 H 0.88321 0.86888 0.99041 0.0
H686 H 0.70863 0.67817 0.88608 0.0
H687 H 0.6843 0.7213 0.88132 0.0
H688 H 0.77257 0.66366 0.89499 0.0
H689 H 0.82733 0.67651 0.9256 0.0
C690 C 0.43941 0.94168 0.24341 0.0
C691 C 0.42649 0.89942 0.21944 0.0
C692 C 0.45203 0.94355 0.15153 0.0
C693 C 0.46966 0.98557 0.1756 0.0
N694 N 0.48683 1.02344 0.24625 0.0
N695 N 0.43311 0.86192 0.15111 0.0
C696 C 0.46513 0.98425 0.22211 0.0
C697 C 0.43657 0.90108 0.17362 0.0
N698 N 0.42567 0.94151 0.28623 0.0
N699 N 0.4485 0.94408 0.10704 0.0
H700 H 0.42427 0.83065 0.16622 0.0
H701 H 0.44447 0.86133 0.11874 0.0
H702 H 0.45724 0.97426 0.09015 0.0
H703 H 0.43147 0.91496 0.08763 0.0
H704 H 0.42902 0.97098 0.30435 0.0
H705 H 0.40749 0.91157 0.30277 0.0
H706 H 0.49038 1.02423 0.28019 0.0
H707 H 0.50428 0.05489 0.23194 0.0
C708 C 0.13303 0.32724 0.65147 0.0
C709 C 0.16784 0.33476 0.68679 0.0
C710 C 0.15569 0.25215 0.68348 0.0
C711 C 0.11913 0.24384 0.64912 0.0
N712 N 0.07817 0.27646 0.59677 0.0
N713 N 0.20735 0.30326 0.74025 0.0
C714 C 0.10936 0.28231 0.63221 0.0
C715 C 0.1777 0.29681 0.70373 0.0
N716 N 0.12058 0.3631 0.63764 0.0
N717 N 0.17271 0.21814 0.69452 0.0
H718 H 0.22573 0.33529 0.75468 0.0
H719 H 0.21109 0.27683 0.75814 0.0
H720 H 0.16058 0.18647 0.67865 0.0
H721 H 0.20267 0.22248 0.71585 0.0
H722 H 0.09047 0.36 0.6169 0.0
H723 H 0.1388 0.39648 0.64899 0.0
H724 H 0.07595 0.30294 0.5781 0.0
H725 H 0.05528 0.24493 0.58432 0.0
C726 C 0.72829 0.39981 0.64899 0.0
C727 C 0.75437 0.39226 0.61195 0.0
C728 C 0.74367 0.4562 0.57551 0.0
C729 C 0.70656 0.45531 0.60693 0.0
N730 N 0.67041 0.4351 0.67814 0.0
N731 N 0.8103 0.42874 0.55369 0.0
C732 C 0.70214 0.43085 0.646 0.0
C733 C 0.77033 0.42597 0.57985 0.0
N734 N 0.72519 0.3737 0.68463 0.0
N735 N 0.75054 0.48343 0.54008 0.0
H736 H 0.83241 0.40891 0.55816 0.0
H737 H 0.82558 0.45435 0.53133 0.0
H738 H 0.73308 0.50743 0.53691 0.0
H739 H 0.77197 0.48125 0.513 0.0
H740 H 0.70683 0.37647 0.71346 0.0
H741 H 0.74394 0.35035 0.68533 0.0
H742 H 0.66276 0.4162 0.70642 0.0
H743 H 0.65163 0.4583 0.67626 0.0
loop_
_geom_bond_atom_site_label_1
_geom_bond_atom_site_label_2
_geom_bond_distance
_geom_bond_site_symmetry_2
_ccdc_geom_bond_type
H0 C1 0.949 . S
C1 H0 0.949 . S
C1 C2 1.395 . S
C1 C3 1.391 . S
C2 C1 1.395 . S
C2 C5 1.390 . S
C3 C1 1.391 . S
C3 C7 1.387 . S
C3 C8 1.491 . S
H4 C5 0.950 . S
C5 C2 1.390 . S
C5 H4 0.950 . S
C5 C6 1.378 . S
C6 C5 1.378 . S
C6 C7 1.409 . S
C7 C3 1.387 . S
C7 C6 1.409 . S
C7 H9 0.951 . S
C8 C3 1.491 . S
C8 C10 1.382 . S
C8 C12 1.404 . S
H9 C7 0.951 . S
C10 C8 1.382 . S
C10 C11 1.390 . S
C10 H15 0.949 . S
C11 C10 1.390 . S
C11 C16 1.399 . S
C12 C8 1.404 . S
C12 H13 0.950 . S
C12 C14 1.375 . S
H13 C12 0.950 . S
C14 C12 1.375 . S
C14 C16 1.382 . S
C14 H18 0.950 . S
H15 C10 0.949 . S
C16 C11 1.399 . S
C16 C14 1.382 . S
C16 H17 0.952 . S
H17 C16 0.952 . S
H18 C14 0.950 . S
H19 C20 0.949 . S
C20 H19 0.949 . S
C20 C21 1.395 . S
C20 C22 1.391 . S
C21 C20 1.395 . S
C21 C24 1.390 . S
C22 C20 1.391 . S
C22 C26 1.387 . S
C22 C27 1.491 . S
H23 C24 0.950 . S
C24 C21 1.390 . S
C24 H23 0.950 . S
C24 C25 1.378 . S
C25 C24 1.378 . S
C25 C26 1.409 . S
C26 C22 1.387 . S
C26 C25 1.409 . S
C26 H28 0.951 . S
C27 C22 1.491 . S
C27 C29 1.382 . S
C27 C31 1.404 . S
H28 C26 0.951 . S
C29 C27 1.382 . S
C29 C30 1.390 . S
C29 H34 0.949 . S
C30 C29 1.390 . S
C30 C35 1.399 . S
C31 C27 1.404 . S
C31 H32 0.950 . S
C31 C33 1.375 . S
H32 C31 0.950 . S
C33 C31 1.375 . S
C33 C35 1.382 . S
C33 H37 0.950 . S
H34 C29 0.949 . S
C35 C30 1.399 . S
C35 C33 1.382 . S
C35 H36 0.952 . S
H36 C35 0.952 . S
H37 C33 0.950 . S
H38 C39 0.949 . S
C39 H38 0.949 . S
C39 C40 1.395 . S
C39 C41 1.391 . S
C40 C39 1.395 . S
C40 C43 1.390 . S
C41 C39 1.391 . S
C41 C45 1.387 . S
C41 C46 1.491 . S
H42 C43 0.950 . S
C43 C40 1.390 . S
C43 H42 0.950 . S
C43 C44 1.378 . S
C44 C43 1.378 . S
C44 C45 1.409 . S
C45 C41 1.387 . S
C45 C44 1.409 . S
C45 H47 0.951 . S
C46 C41 1.491 . S
C46 C48 1.382 . S
C46 C50 1.404 . S
H47 C45 0.951 . S
C48 C46 1.382 . S
C48 C49 1.390 . S
C48 H53 0.949 . S
C49 C48 1.390 . S
C49 C54 1.399 . S
C50 C46 1.404 . S
C50 H51 0.950 . S
C50 C52 1.375 . S
H51 C50 0.950 . S
C52 C50 1.375 . S
C52 C54 1.382 . S
C52 H56 0.950 . S
H53 C48 0.949 . S
C54 C49 1.399 . S
C54 C52 1.382 . S
C54 H55 0.952 . S
H55 C54 0.952 . S
H56 C52 0.950 . S
H57 C58 0.949 . S
C58 H57 0.949 . S
C58 C59 1.395 . S
C58 C60 1.391 . S
C59 C58 1.395 . S
C59 C62 1.390 . S
C60 C58 1.391 . S
C60 C64 1.387 . S
C60 C65 1.491 . S
H61 C62 0.950 . S
C62 C59 1.390 . S
C62 H61 0.950 . S
C62 C63 1.378 . S
C63 C62 1.378 . S
C63 C64 1.409 . S
C64 C60 1.387 . S
C64 C63 1.409 . S
C64 H66 0.951 . S
C65 C60 1.491 . S
C65 C67 1.382 . S
C65 C69 1.404 . S
H66 C64 0.951 . S
C67 C65 1.382 . S
C67 C68 1.390 . S
C67 H72 0.949 . S
C68 C67 1.390 . S
C68 C73 1.399 . S
C69 C65 1.404 . S
C69 H70 0.950 . S
C69 C71 1.375 . S
H70 C69 0.950 . S
C71 C69 1.375 . S
C71 C73 1.382 . S
C71 H75 0.950 . S
H72 C67 0.949 . S
C73 C68 1.399 . S
C73 C71 1.382 . S
C73 H74 0.952 . S
H74 C73 0.952 . S
H75 C71 0.950 . S
H76 C77 0.949 . S
C77 H76 0.949 . S
C77 C78 1.395 . S
C77 C79 1.391 . S
C78 C77 1.395 . S
C78 C81 1.390 . S
C79 C77 1.391 . S
C79 C83 1.387 . S
C79 C84 1.491 . S
H80 C81 0.950 . S
C81 C78 1.390 . S
C81 H80 0.950 . S
C81 C82 1.378 . S
C82 C81 1.378 . S
C82 C83 1.409 . S
C83 C79 1.387 . S
C83 C82 1.409 . S
C83 H85 0.951 . S
C84 C79 1.491 . S
C84 C86 1.382 . S
C84 C88 1.404 . S
H85 C83 0.951 . S
C86 C84 1.382 . S
C86 C87 1.390 . S
C86 H91 0.949 . S
C87 C86 1.390 . S
C87 C92 1.399 . S
C88 C84 1.404 . S
C88 H89 0.950 . S
C88 C90 1.375 . S
H89 C88 0.950 . S
C90 C88 1.375 . S
C90 C92 1.382 . S
C90 H94 0.950 . S
H91 C86 0.949 . S
C92 C87 1.399 . S
C92 C90 1.382 . S
C92 H93 0.952 . S
H93 C92 0.952 . S
H94 C90 0.950 . S
H95 C96 0.949 . S
C96 H95 0.949 . S
C96 C97 1.395 . S
C96 C98 1.391 . S
C97 C96 1.395 . S
C97 C100 1.390 . S
C98 C96 1.391 . S
C98 C102 1.387 . S
C98 C103 1.491 . S
H99 C100 0.950 . S
C100 C97 1.390 . S
C100 H99 0.950 . S
C100 C101 1.378 . S
C101 C100 1.378 . S
C101 C102 1.409 . S
C102 C98 1.387 . S
C102 C101 1.409 . S
C102 H104 0.951 . S
C103 C98 1.491 . S
C103 C105 1.382 . S
C103 C107 1.404 . S
H104 C102 0.951 . S
C105 C103 1.382 . S
C105 C106 1.390 . S
C105 H110 0.949 . S
C106 C105 1.390 . S
C106 C111 1.399 . S
C107 C103 1.404 . S
C107 H108 0.950 . S
C107 C109 1.375 . S
H108 C107 0.950 . S
C109 C107 1.375 . S
C109 C111 1.382 . S
C109 H113 0.950 . S
H110 C105 0.949 . S
C111 C106 1.399 . S
C111 C109 1.382 . S
C111 H112 0.952 . S
H112 C111 0.952 . S
H113 C109 0.950 . S
H114 C115 0.949 . S
C115 H114 0.949 . S
C115 C116 1.395 . S
C115 C117 1.391 . S
C116 C115 1.395 . S
C116 C119 1.390 . S
C117 C115 1.391 . S
C117 C121 1.387 . S
C117 C122 1.491 . S
H118 C119 0.950 . S
C119 C116 1.390 . S
C119 H118 0.950 . S
C119 C120 1.378 . S
C120 C119 1.378 . S
C120 C121 1.409 . S
C121 C117 1.387 . S
C121 C120 1.409 . S
C121 H123 0.951 . S
C122 C117 1.491 . S
C122 C124 1.382 . S
C122 C126 1.404 . S
H123 C121 0.951 . S
C124 C122 1.382 . S
C124 C125 1.390 . S
C124 H129 0.949 . S
C125 C124 1.390 . S
C125 C130 1.399 . S
C126 C122 1.404 . S
C126 H127 0.950 . S
C126 C128 1.375 . S
H127 C126 0.950 . S
C128 C126 1.375 . S
C128 C130 1.382 . S
C128 H132 0.950 . S
H129 C124 0.949 . S
C130 C125 1.399 . S
C130 C128 1.382 . S
C130 H131 0.952 . S
H131 C130 0.952 . S
H132 C128 0.950 . S
H133 C134 0.949 . S
C134 H133 0.949 . S
C134 C135 1.395 . S
C134 C136 1.391 . S
C135 C134 1.395 . S
C135 C138 1.390 . S
C136 C134 1.391 . S
C136 C140 1.387 . S
C136 C141 1.491 . S
H137 C138 0.950 . S
C138 C135 1.390 . S
C138 H137 0.950 . S
C138 C139 1.378 . S
C139 C138 1.378 . S
C139 C140 1.409 . S
C140 C136 1.387 . S
C140 C139 1.409 . S
C140 H142 0.951 . S
C141 C136 1.491 . S
C141 C143 1.382 . S
C141 C145 1.404 . S
H142 C140 0.951 . S
C143 C141 1.382 . S
C143 C144 1.390 . S
C143 H148 0.949 . S
C144 C143 1.390 . S
C144 C149 1.399 . S
C145 C141 1.404 . S
C145 H146 0.950 . S
C145 C147 1.375 . S
H146 C145 0.950 . S
C147 C145 1.375 . S
C147 C149 1.382 . S
C147 H151 0.950 . S
H148 C143 0.949 . S
C149 C144 1.399 . S
C149 C147 1.382 . S
C149 H150 0.952 . S
H150 C149 0.952 . S
H151 C147 0.950 . S
Sm152 C154 2.846 . S
Sm152 O172 2.543 . S
Sm152 O173 2.450 . S
Sm152 O174 2.681 . S
Sm152 O175 2.464 . S
Sm152 O176 2.396 . S
Sm152 O180 2.386 1_455 S
Sm152 O183 2.408 1_445 S
Sm153 C163 2.846 1_545 S
Sm153 O174 2.386 1_655 S
Sm153 O177 2.408 1_655 S
Sm153 O178 2.543 1_545 S
Sm153 O179 2.450 1_545 S
Sm153 O180 2.681 . S
Sm153 O181 2.464 . S
Sm153 O182 2.396 1_545 S
C154 Sm152 2.846 . S
C154 C155 1.506 . S
C154 O172 1.261 . S
C154 O173 1.242 . S
C155 C154 1.506 . S
C155 C156 1.358 . S
C155 C160 1.382 . S
C156 C155 1.358 . S
C156 C157 1.385 . S
C156 H184 0.930 . S
C157 C156 1.385 . S
C157 C158 1.395 . S
C157 H185 0.929 . S
C158 C157 1.395 . S
C158 C159 1.335 . S
C159 C158 1.335 . S
C159 C160 1.398 . S
C159 H186 0.930 . S
C160 C155 1.382 . S
C160 C159 1.398 . S
C160 H187 0.929 . S
C161 O174 1.271 . S
C161 O175 1.251 . S
C162 O176 1.252 . S
C162 O177 1.272 . S
C163 Sm153 2.846 1_565 S
C163 C164 1.506 . S
C163 O178 1.261 . S
C163 O179 1.242 . S
C164 C163 1.506 . S
C164 C165 1.358 . S
C164 C169 1.382 . S
C165 C164 1.358 . S
C165 C166 1.385 . S
C165 H188 0.930 . S
C166 C165 1.385 . S
C166 C167 1.395 . S
C166 H189 0.929 . S
C167 C166 1.395 . S
C167 C168 1.335 . S
C168 C167 1.335 . S
C168 C169 1.398 . S
C168 H190 0.930 . S
C169 C164 1.382 . S
C169 C168 1.398 . S
C169 H191 0.929 . S
C170 O180 1.271 . S
C170 O181 1.251 . S
C171 O182 1.252 . S
C171 O183 1.272 . S
O172 Sm152 2.543 . S
O172 C154 1.261 . S
O173 Sm152 2.450 . S
O173 C154 1.242 . S
O174 Sm152 2.681 . S
O174 Sm153 2.386 1_455 S
O174 C161 1.271 . S
O175 Sm152 2.464 . S
O175 C161 1.251 . S
O176 Sm152 2.396 . S
O176 C162 1.252 . S
O177 Sm153 2.408 1_455 S
O177 C162 1.272 . S
O178 Sm153 2.543 1_565 S
O178 C163 1.261 . S
O179 Sm153 2.450 1_565 S
O179 C163 1.242 . S
O180 Sm152 2.386 1_655 S
O180 Sm153 2.681 . S
O180 C170 1.271 . S
O181 Sm153 2.464 . S
O181 C170 1.251 . S
O182 Sm153 2.396 1_565 S
O182 C171 1.252 . S
O183 Sm152 2.408 1_665 S
O183 C171 1.272 . S
H184 C156 0.930 . S
H185 C157 0.929 . S
H186 C159 0.930 . S
H187 C160 0.929 . S
H188 C165 0.930 . S
H189 C166 0.929 . S
H190 C168 0.930 . S
H191 C169 0.929 . S
Sm192 C194 2.846 . S
Sm192 O212 2.543 . S
Sm192 O213 2.450 . S
Sm192 O214 2.682 1_545 S
Sm192 O215 2.464 1_545 S
Sm192 O216 2.396 . S
Sm192 O220 2.386 . S
Sm192 O223 2.408 . S
Sm193 C203 2.846 1_544 S
Sm193 O214 2.388 1_545 S
Sm193 O217 2.408 . S
Sm193 O218 2.543 1_545 S
Sm193 O219 2.450 1_554 S
Sm193 O220 2.681 . S
Sm193 O221 2.464 . S
Sm193 O222 2.396 . S
C194 Sm192 2.846 . S
C194 C195 1.506 . S
C194 O212 1.261 . S
C194 O213 1.242 . S
C195 C194 1.506 . S
C195 C196 1.358 . S
C195 C200 1.382 . S
C196 C195 1.358 . S
C196 C197 1.385 . S
C196 H224 0.930 . S
C197 C196 1.385 . S
C197 C198 1.395 . S
C197 H225 0.929 . S
C198 C197 1.395 . S
C198 C199 1.335 . S
C199 C198 1.335 . S
C199 C200 1.398 . S
C199 H226 0.930 . S
C200 C195 1.382 . S
C200 C199 1.398 . S
C200 H227 0.929 . S
C201 O214 1.270 . S
C201 O215 1.251 . S
C202 O216 1.252 . S
C202 O217 1.272 . S
C203 Sm193 2.846 1_566 S
C203 C204 1.506 . S
C203 O218 1.261 1_556 S
C203 O219 1.242 1_565 S
C204 C203 1.506 . S
C204 C205 1.358 . S
C204 C209 1.382 . S
C205 C204 1.358 . S
C205 C206 1.385 . S
C205 H228 0.930 . S
C206 C205 1.385 . S
C206 C207 1.395 . S
C206 H229 0.929 . S
C207 C206 1.395 . S
C207 C208 1.335 . S
C208 C207 1.335 . S
C208 C209 1.398 . S
C208 H230 0.930 . S
C209 C204 1.382 . S
C209 C208 1.398 . S
C209 H231 0.929 1_565 S
C210 O220 1.271 . S
C210 O221 1.251 . S
C211 O222 1.252 1_565 S
C211 O223 1.272 1_565 S
O212 Sm192 2.543 . S
O212 C194 1.261 . S
O213 Sm192 2.450 . S
O213 C194 1.242 . S
O214 Sm192 2.682 1_565 S
O214 Sm193 2.388 1_565 S
O214 C201 1.270 . S
O215 Sm192 2.464 1_565 S
O215 C201 1.251 . S
O216 Sm192 2.396 . S
O216 C202 1.252 . S
O217 Sm193 2.408 . S
O217 C202 1.272 . S
O218 Sm193 2.543 1_565 S
O218 C203 1.261 1_554 S
O219 Sm193 2.450 1_556 S
O219 C203 1.242 1_545 S
O220 Sm192 2.386 . S
O220 Sm193 2.681 . S
O220 C210 1.271 . S
O221 Sm193 2.464 . S
O221 C210 1.251 . S
O222 Sm193 2.396 . S
O222 C211 1.252 1_545 S
O223 Sm192 2.408 . S
O223 C211 1.272 1_545 S
H224 C196 0.930 . S
H225 C197 0.929 . S
H226 C199 0.930 . S
H227 C200 0.929 . S
H228 C205 0.930 . S
H229 C206 0.929 . S
H230 C208 0.930 . S
H231 C209 0.929 1_545 S
Sm232 C234 2.846 . S
Sm232 O252 2.543 . S
Sm232 O253 2.450 . S
Sm232 O254 2.681 . S
Sm232 O255 2.464 . S
Sm232 O256 2.396 . S
Sm232 O260 2.386 . S
Sm232 O263 2.408 . S
Sm233 C243 2.846 . S
Sm233 O254 2.386 . S
Sm233 O257 2.408 . S
Sm233 O258 2.543 . S
Sm233 O259 2.450 . S
Sm233 O260 2.681 . S
Sm233 O261 2.464 . S
Sm233 O262 2.396 . S
C234 Sm232 2.846 . S
C234 C235 1.506 . S
C234 O252 1.261 . S
C234 O253 1.242 . S
C235 C234 1.506 . S
C235 C236 1.358 . S
C235 C240 1.382 . S
C236 C235 1.358 . S
C236 C237 1.385 . S
C236 H264 0.930 . S
C237 C236 1.385 . S
C237 C238 1.395 . S
C237 H265 0.929 . S
C238 C237 1.395 . S
C238 C239 1.335 . S
C239 C238 1.335 . S
C239 C240 1.398 . S
C239 H266 0.930 . S
C240 C235 1.382 . S
C240 C239 1.398 . S
C240 H267 0.929 . S
C241 O254 1.271 . S
C241 O255 1.251 . S
C242 O256 1.252 . S
C242 O257 1.272 . S
C243 Sm233 2.846 . S
C243 C244 1.506 . S
C243 O258 1.261 . S
C243 O259 1.242 . S
C244 C243 1.506 . S
C244 C245 1.358 . S
C244 C249 1.382 . S
C245 C244 1.358 . S
C245 C246 1.385 . S
C245 H268 0.930 . S
C246 C245 1.385 . S
C246 C247 1.395 . S
C246 H269 0.929 . S
C247 C246 1.395 . S
C247 C248 1.335 . S
C248 C247 1.335 . S
C248 C249 1.398 . S
C248 H270 0.930 . S
C249 C244 1.382 . S
C249 C248 1.398 . S
C249 H271 0.929 . S
C250 O260 1.271 . S
C250 O261 1.251 . S
C251 O262 1.252 . S
C251 O263 1.272 . S
O252 Sm232 2.543 . S
O252 C234 1.261 . S
O253 Sm232 2.450 . S
O253 C234 1.242 . S
O254 Sm232 2.681 . S
O254 Sm233 2.386 . S
O254 C241 1.271 . S
O255 Sm232 2.464 . S
O255 C241 1.251 . S
O256 Sm232 2.396 . S
O256 C242 1.252 . S
O257 Sm233 2.408 . S
O257 C242 1.272 . S
O258 Sm233 2.543 . S
O258 C243 1.261 . S
O259 Sm233 2.450 . S
O259 C243 1.242 . S
O260 Sm232 2.386 . S
O260 Sm233 2.681 . S
O260 C250 1.271 . S
O261 Sm233 2.464 . S
O261 C250 1.251 . S
O262 Sm233 2.396 . S
O262 C251 1.252 . S
O263 Sm232 2.408 . S
O263 C251 1.272 . S
H264 C236 0.930 . S
H265 C237 0.929 . S
H266 C239 0.930 . S
H267 C240 0.929 . S
H268 C245 0.930 . S
H269 C246 0.929 . S
H270 C248 0.930 . S
H271 C249 0.929 . S
Sm272 C274 2.846 . S
Sm272 O292 2.543 . S
Sm272 O293 2.450 . S
Sm272 O294 2.681 . S
Sm272 O295 2.464 . S
Sm272 O296 2.396 . S
Sm272 O300 2.390 . S
Sm272 O303 2.408 1_455 S
Sm273 C283 2.846 1_454 S
Sm273 O294 2.386 . S
Sm273 O297 2.408 . S
Sm273 O298 2.543 1_455 S
Sm273 O299 2.450 1_554 S
Sm273 O300 2.681 . S
Sm273 O301 2.464 1_554 S
Sm273 O302 2.396 1_454 S
C274 Sm272 2.846 . S
C274 C275 1.506 . S
C274 O292 1.261 . S
C274 O293 1.242 . S
C275 C274 1.506 . S
C275 C276 1.358 . S
C275 C280 1.382 . S
C276 C275 1.358 . S
C276 C277 1.385 . S
C276 H304 0.930 . S
C277 C276 1.385 . S
C277 C278 1.395 . S
C277 H305 0.929 . S
C278 C277 1.395 . S
C278 C279 1.335 . S
C279 C278 1.335 . S
C279 C280 1.398 . S
C279 H306 0.930 . S
C280 C275 1.382 . S
C280 C279 1.398 . S
C280 H307 0.929 . S
C281 O294 1.271 1_655 S
C281 O295 1.251 1_655 S
C282 O296 1.252 . S
C282 O297 1.272 . S
C283 Sm273 2.846 1_656 S
C283 C284 1.506 . S
C283 O298 1.261 1_556 S
C283 O299 1.242 1_655 S
C284 C283 1.506 . S
C284 C285 1.358 . S
C284 C289 1.382 . S
C285 C284 1.358 . S
C285 C286 1.385 . S
C285 H308 0.930 . S
C286 C285 1.385 . S
C286 C287 1.395 . S
C286 H309 0.929 . S
C287 C286 1.395 . S
C287 C288 1.335 . S
C288 C287 1.335 . S
C288 C289 1.398 . S
C288 H310 0.930 . S
C289 C284 1.382 . S
C289 C288 1.398 . S
C289 H311 0.929 . S
C290 O300 1.267 1_556 S
C290 O301 1.251 . S
C291 O302 1.252 . S
C291 O303 1.272 1_556 S
O292 Sm272 2.543 . S
O292 C274 1.261 . S
O293 Sm272 2.450 . S
O293 C274 1.242 . S
O294 Sm272 2.681 . S
O294 Sm273 2.386 . S
O294 C281 1.271 1_455 S
O295 Sm272 2.464 . S
O295 C281 1.251 1_455 S
O296 Sm272 2.396 . S
O296 C282 1.252 . S
O297 Sm273 2.408 . S
O297 C282 1.272 . S
O298 Sm273 2.543 1_655 S
O298 C283 1.261 1_554 S
O299 Sm273 2.450 1_556 S
O299 C283 1.242 1_455 S
O300 Sm272 2.390 . S
O300 Sm273 2.681 . S
O300 C290 1.267 1_554 S
O301 Sm273 2.464 1_556 S
O301 C290 1.251 . S
O302 Sm273 2.396 1_656 S
O302 C291 1.252 . S
O303 Sm272 2.408 1_655 S
O303 C291 1.272 1_554 S
H304 C276 0.930 . S
H305 C277 0.929 . S
H306 C279 0.930 . S
H307 C280 0.929 . S
H308 C285 0.930 . S
H309 C286 0.929 . S
H310 C288 0.930 . S
H311 C289 0.929 . S
C312 C313 1.363 . S
C312 C318 1.379 . S
C312 N320 1.356 . S
C313 C312 1.363 . S
C313 C319 1.363 . S
C314 C315 1.363 . S
C314 C319 1.379 . S
C314 N321 1.356 . S
C315 C314 1.363 . S
C315 C318 1.363 . S
N316 C318 1.356 . S
N316 H328 0.984 . S
N316 H329 0.985 . S
N317 C319 1.356 . S
N317 H322 0.984 . S
N317 H323 0.985 . S
C318 C312 1.379 . S
C318 C315 1.363 . S
C318 N316 1.356 . S
C319 C313 1.363 . S
C319 C314 1.379 . S
C319 N317 1.356 . S
N320 C312 1.356 . S
N320 H326 0.984 . S
N320 H327 0.984 . S
N321 C314 1.356 . S
N321 H324 0.984 . S
N321 H325 0.985 . S
H322 N317 0.984 . S
H323 N317 0.985 . S
H324 N321 0.984 . S
H325 N321 0.985 . S
H326 N320 0.984 . S
H327 N320 0.984 . S
H328 N316 0.984 . S
H329 N316 0.985 . S
C330 C331 1.363 . S
C330 C336 1.379 . S
C330 N338 1.356 . S
C331 C330 1.363 . S
C331 C337 1.363 . S
C332 C333 1.363 . S
C332 C337 1.379 . S
C332 N339 1.356 . S
C333 C332 1.363 . S
C333 C336 1.363 . S
N334 C336 1.356 . S
N334 H346 0.984 . S
N334 H347 0.985 . S
N335 C337 1.356 . S
N335 H340 0.984 . S
N335 H341 0.985 . S
C336 C330 1.379 . S
C336 C333 1.363 . S
C336 N334 1.356 . S
C337 C331 1.363 . S
C337 C332 1.379 . S
C337 N335 1.356 . S
N338 C330 1.356 . S
N338 H344 0.984 . S
N338 H345 0.984 . S
N339 C332 1.356 . S
N339 H342 0.984 . S
N339 H343 0.985 . S
H340 N335 0.984 . S
H341 N335 0.985 . S
H342 N339 0.984 . S
H343 N339 0.985 . S
H344 N338 0.984 . S
H345 N338 0.984 . S
H346 N334 0.984 . S
H347 N334 0.985 . S
C348 C349 1.363 . S
C348 C354 1.379 . S
C348 N356 1.356 . S
C349 C348 1.363 . S
C349 C355 1.363 . S
C350 C351 1.363 . S
C350 C355 1.379 . S
C350 N357 1.356 . S
C351 C350 1.363 . S
C351 C354 1.363 . S
N352 C354 1.356 . S
N352 H364 0.984 . S
N352 H365 0.985 . S
N353 C355 1.356 . S
N353 H358 0.984 . S
N353 H359 0.985 . S
C354 C348 1.379 . S
C354 C351 1.363 . S
C354 N352 1.356 . S
C355 C349 1.363 . S
C355 C350 1.379 . S
C355 N353 1.356 . S
N356 C348 1.356 . S
N356 H362 0.984 . S
N356 H363 0.984 . S
N357 C350 1.356 . S
N357 H360 0.984 . S
N357 H361 0.985 . S
H358 N353 0.984 . S
H359 N353 0.985 . S
H360 N357 0.984 . S
H361 N357 0.985 . S
H362 N356 0.984 . S
H363 N356 0.984 . S
H364 N352 0.984 . S
H365 N352 0.985 . S
C366 C367 1.363 . S
C366 C372 1.379 . S
C366 N374 1.356 . S
C367 C366 1.363 . S
C367 C373 1.363 . S
C368 C369 1.363 . S
C368 C373 1.379 . S
C368 N375 1.356 . S
C369 C368 1.363 . S
C369 C372 1.363 . S
N370 C372 1.356 . S
N370 H382 0.984 . S
N370 H383 0.985 . S
N371 C373 1.356 . S
N371 H376 0.984 . S
N371 H377 0.985 . S
C372 C366 1.379 . S
C372 C369 1.363 . S
C372 N370 1.356 . S
C373 C367 1.363 . S
C373 C368 1.379 . S
C373 N371 1.356 . S
N374 C366 1.356 . S
N374 H380 0.984 . S
N374 H381 0.984 . S
N375 C368 1.356 . S
N375 H378 0.984 . S
N375 H379 0.985 . S
H376 N371 0.984 . S
H377 N371 0.985 . S
H378 N375 0.984 . S
H379 N375 0.985 . S
H380 N374 0.984 . S
H381 N374 0.984 . S
H382 N370 0.984 . S
H383 N370 0.985 . S
C384 C385 1.363 . S
C384 C390 1.379 . S
C384 N392 1.356 . S
C385 C384 1.363 . S
C385 C391 1.363 . S
C386 C387 1.363 . S
C386 C391 1.379 . S
C386 N393 1.356 . S
C387 C386 1.363 . S
C387 C390 1.363 . S
N388 C390 1.356 . S
N388 H400 0.984 . S
N388 H401 0.985 . S
N389 C391 1.356 . S
N389 H394 0.984 . S
N389 H395 0.985 . S
C390 C384 1.379 . S
C390 C387 1.363 . S
C390 N388 1.356 . S
C391 C385 1.363 . S
C391 C386 1.379 . S
C391 N389 1.356 . S
N392 C384 1.356 . S
N392 H398 0.984 . S
N392 H399 0.984 . S
N393 C386 1.356 . S
N393 H396 0.984 . S
N393 H397 0.985 . S
H394 N389 0.984 . S
H395 N389 0.985 . S
H396 N393 0.984 . S
H397 N393 0.985 . S
H398 N392 0.984 . S
H399 N392 0.984 . S
H400 N388 0.984 . S
H401 N388 0.985 . S
C402 C403 1.363 . S
C402 C408 1.379 . S
C402 N410 1.356 . S
C403 C402 1.363 . S
C403 C409 1.363 . S
C404 C405 1.358 1_565 S
C404 C409 1.399 . S
C404 N411 1.336 1_565 S
C405 C404 1.358 1_545 S
C405 C408 1.363 1_545 S
N406 C408 1.365 . S
N406 H418 0.994 . S
N406 H419 0.967 1_565 S
N407 C409 1.356 . S
N407 H412 0.984 . S
N407 H413 0.985 . S
C408 C402 1.379 . S
C408 C405 1.363 1_565 S
C408 N406 1.365 . S
C409 C403 1.363 . S
C409 C404 1.399 . S
C409 N407 1.356 . S
N410 C402 1.356 . S
N410 H416 0.984 . S
N410 H417 0.984 . S
N411 C404 1.336 1_545 S
N411 H414 0.984 . S
N411 H415 0.985 . S
H412 N407 0.984 . S
H413 N407 0.985 . S
H414 N411 0.984 . S
H415 N411 0.985 . S
H416 N410 0.984 . S
H417 N410 0.984 . S
H418 N406 0.994 . S
H419 N406 0.967 1_545 S
C420 C421 1.363 . S
C420 C426 1.379 1_556 S
C420 N428 1.356 1_556 S
C421 C420 1.363 . S
C421 C427 1.363 . S
C422 C423 1.363 . S
C422 C427 1.379 . S
C422 N429 1.356 . S
C423 C422 1.363 . S
C423 C426 1.363 1_556 S
N424 C426 1.356 . S
N424 H436 0.984 . S
N424 H437 0.985 . S
N425 C427 1.356 . S
N425 H430 0.984 . S
N425 H431 0.985 . S
C426 C420 1.379 1_554 S
C426 C423 1.363 1_554 S
C426 N424 1.356 . S
C427 C421 1.363 . S
C427 C422 1.379 . S
C427 N425 1.356 . S
N428 C420 1.356 1_554 S
N428 H434 0.984 . S
N428 H435 0.984 1_554 S
N429 C422 1.356 . S
N429 H432 0.984 . S
N429 H433 0.985 . S
H430 N425 0.984 . S
H431 N425 0.985 . S
H432 N429 0.984 . S
H433 N429 0.985 . S
H434 N428 0.984 . S
H435 N428 0.984 1_556 S
H436 N424 0.984 . S
H437 N424 0.985 . S
C438 C439 1.363 . S
C438 C444 1.379 . S
C438 N446 1.356 . S
C439 C438 1.363 . S
C439 C445 1.363 . S
C440 C441 1.363 . S
C440 C445 1.379 . S
C440 N447 1.356 . S
C441 C440 1.363 . S
C441 C444 1.363 . S
N442 C444 1.356 . S
N442 H454 0.984 . S
N442 H455 0.985 . S
N443 C445 1.356 . S
N443 H448 0.984 . S
N443 H449 0.985 . S
C444 C438 1.379 . S
C444 C441 1.363 . S
C444 N442 1.356 . S
C445 C439 1.363 . S
C445 C440 1.379 . S
C445 N443 1.356 . S
N446 C438 1.356 . S
N446 H452 0.984 . S
N446 H453 0.984 . S
N447 C440 1.356 . S
N447 H450 0.984 . S
N447 H451 0.985 . S
H448 N443 0.984 . S
H449 N443 0.985 . S
H450 N447 0.984 . S
H451 N447 0.985 . S
H452 N446 0.984 . S
H453 N446 0.984 . S
H454 N442 0.984 . S
H455 N442 0.985 . S
C456 C457 1.363 . S
C456 C462 1.379 . S
C456 N464 1.356 . S
C457 C456 1.363 . S
C457 C463 1.363 . S
C458 C459 1.363 . S
C458 C463 1.379 . S
C458 N465 1.356 . S
C459 C458 1.363 . S
C459 C462 1.363 . S
N460 C462 1.356 . S
N460 H472 0.984 . S
N460 H473 0.985 . S
N461 C463 1.356 . S
N461 H466 0.984 . S
N461 H467 0.985 . S
C462 C456 1.379 . S
C462 C459 1.363 . S
C462 N460 1.356 . S
C463 C457 1.363 . S
C463 C458 1.379 . S
C463 N461 1.356 . S
N464 C456 1.356 . S
N464 H470 0.984 . S
N464 H471 0.984 . S
N465 C458 1.356 . S
N465 H468 0.984 . S
N465 H469 0.985 . S
H466 N461 0.984 . S
H467 N461 0.985 . S
H468 N465 0.984 . S
H469 N465 0.985 . S
H470 N464 0.984 . S
H471 N464 0.984 . S
H472 N460 0.984 . S
H473 N460 0.985 . S
C474 C475 1.363 . S
C474 C480 1.379 . S
C474 N482 1.356 . S
C475 C474 1.363 . S
C475 C481 1.363 1_556 S
C476 C477 1.363 . S
C476 C481 1.379 . S
C476 N483 1.356 . S
C477 C476 1.363 . S
C477 C480 1.363 1_554 S
N478 C480 1.356 . S
N478 H490 0.984 . S
N478 H491 0.985 . S
N479 C481 1.356 . S
N479 H484 0.984 . S
N479 H485 0.985 . S
C480 C474 1.379 . S
C480 C477 1.363 1_556 S
C480 N478 1.356 . S
C481 C475 1.363 1_554 S
C481 C476 1.379 . S
C481 N479 1.356 . S
N482 C474 1.356 . S
N482 H488 0.984 . S
N482 H489 0.984 . S
N483 C476 1.356 . S
N483 H486 0.984 . S
N483 H487 0.985 . S
H484 N479 0.984 . S
H485 N479 0.985 . S
H486 N483 0.984 . S
H487 N483 0.985 . S
H488 N482 0.984 . S
H489 N482 0.984 . S
H490 N478 0.984 . S
H491 N478 0.985 . S
C492 C493 1.363 . S
C492 C498 1.379 . S
C492 N500 1.356 . S
C493 C492 1.363 . S
C493 C499 1.363 . S
C494 C495 1.363 . S
C494 C499 1.379 . S
C494 N501 1.356 . S
C495 C494 1.363 . S
C495 C498 1.363 . S
N496 C498 1.356 . S
N496 H508 0.984 . S
N496 H509 0.985 . S
N497 C499 1.356 . S
N497 H502 0.984 . S
N497 H503 0.985 . S
C498 C492 1.379 . S
C498 C495 1.363 . S
C498 N496 1.356 . S
C499 C493 1.363 . S
C499 C494 1.379 . S
C499 N497 1.356 . S
N500 C492 1.356 . S
N500 H506 0.984 . S
N500 H507 0.984 . S
N501 C494 1.356 . S
N501 H504 0.984 . S
N501 H505 0.985 . S
H502 N497 0.984 . S
H503 N497 0.985 . S
H504 N501 0.984 . S
H505 N501 0.985 . S
H506 N500 0.984 . S
H507 N500 0.984 . S
H508 N496 0.984 . S
H509 N496 0.985 . S
C510 C511 1.363 . S
C510 C516 1.379 . S
C510 N518 1.356 . S
C511 C510 1.363 . S
C511 C517 1.363 . S
C512 C513 1.363 . S
C512 C517 1.379 . S
C512 N519 1.356 . S
C513 C512 1.363 . S
C513 C516 1.363 . S
N514 C516 1.356 . S
N514 H526 0.984 . S
N514 H527 0.985 . S
N515 C517 1.356 . S
N515 H520 0.984 . S
N515 H521 0.985 . S
C516 C510 1.379 . S
C516 C513 1.363 . S
C516 N514 1.356 . S
C517 C511 1.363 . S
C517 C512 1.379 . S
C517 N515 1.356 . S
N518 C510 1.356 . S
N518 H524 0.984 . S
N518 H525 0.984 . S
N519 C512 1.356 . S
N519 H522 0.984 . S
N519 H523 0.985 . S
H520 N515 0.984 . S
H521 N515 0.985 . S
H522 N519 0.984 . S
H523 N519 0.985 . S
H524 N518 0.984 . S
H525 N518 0.984 . S
H526 N514 0.984 . S
H527 N514 0.985 . S
C528 C529 1.363 . S
C528 C534 1.379 . S
C528 N536 1.356 . S
C529 C528 1.363 . S
C529 C535 1.363 . S
C530 C531 1.363 . S
C530 C535 1.379 . S
C530 N537 1.356 . S
C531 C530 1.363 . S
C531 C534 1.363 . S
N532 C534 1.356 . S
N532 H544 0.984 . S
N532 H545 0.985 . S
N533 C535 1.356 . S
N533 H538 0.984 . S
N533 H539 0.985 . S
C534 C528 1.379 . S
C534 C531 1.363 . S
C534 N532 1.356 . S
C535 C529 1.363 . S
C535 C530 1.379 . S
C535 N533 1.356 . S
N536 C528 1.356 . S
N536 H542 0.984 . S
N536 H543 0.984 . S
N537 C530 1.356 . S
N537 H540 0.984 . S
N537 H541 0.985 . S
H538 N533 0.984 . S
H539 N533 0.985 . S
H540 N537 0.984 . S
H541 N537 0.985 . S
H542 N536 0.984 . S
H543 N536 0.984 . S
H544 N532 0.984 . S
H545 N532 0.985 . S
C546 C547 1.363 . S
C546 C552 1.379 . S
C546 N554 1.356 . S
C547 C546 1.363 . S
C547 C553 1.363 . S
C548 C549 1.363 . S
C548 C553 1.379 . S
C548 N555 1.356 . S
C549 C548 1.363 . S
C549 C552 1.363 . S
N550 C552 1.356 . S
N550 H562 0.984 . S
N550 H563 0.985 . S
N551 C553 1.356 . S
N551 H556 0.984 . S
N551 H557 0.985 . S
C552 C546 1.379 . S
C552 C549 1.363 . S
C552 N550 1.356 . S
C553 C547 1.363 . S
C553 C548 1.379 . S
C553 N551 1.356 . S
N554 C546 1.356 . S
N554 H560 0.984 . S
N554 H561 0.984 . S
N555 C548 1.356 . S
N555 H558 0.984 . S
N555 H559 0.985 . S
H556 N551 0.984 . S
H557 N551 0.985 . S
H558 N555 0.984 . S
H559 N555 0.985 . S
H560 N554 0.984 . S
H561 N554 0.984 . S
H562 N550 0.984 . S
H563 N550 0.985 . S
C564 C565 1.363 . S
C564 C570 1.379 . S
C564 N572 1.356 . S
C565 C564 1.363 . S
C565 C571 1.363 . S
C566 C567 1.363 . S
C566 C571 1.379 . S
C566 N573 1.356 . S
C567 C566 1.363 . S
C567 C570 1.363 . S
N568 C570 1.356 . S
N568 H580 0.984 . S
N568 H581 0.985 . S
N569 C571 1.356 . S
N569 H574 0.984 . S
N569 H575 0.985 . S
C570 C564 1.379 . S
C570 C567 1.363 . S
C570 N568 1.356 . S
C571 C565 1.363 . S
C571 C566 1.379 . S
C571 N569 1.356 . S
N572 C564 1.356 . S
N572 H578 0.984 . S
N572 H579 0.984 . S
N573 C566 1.356 . S
N573 H576 0.984 . S
N573 H577 0.985 . S
H574 N569 0.984 . S
H575 N569 0.985 . S
H576 N573 0.984 . S
H577 N573 0.985 . S
H578 N572 0.984 . S
H579 N572 0.984 . S
H580 N568 0.984 . S
H581 N568 0.985 . S
C582 C583 1.363 . S
C582 C588 1.379 . S
C582 N590 1.356 . S
C583 C582 1.363 . S
C583 C589 1.363 . S
C584 C585 1.363 . S
C584 C589 1.379 . S
C584 N591 1.356 . S
C585 C584 1.363 . S
C585 C588 1.363 . S
N586 C588 1.356 . S
N586 H598 0.984 . S
N586 H599 0.985 . S
N587 C589 1.356 . S
N587 H592 0.984 . S
N587 H593 0.985 . S
C588 C582 1.379 . S
C588 C585 1.363 . S
C588 N586 1.356 . S
C589 C583 1.363 . S
C589 C584 1.379 . S
C589 N587 1.356 . S
N590 C582 1.356 . S
N590 H596 0.984 . S
N590 H597 0.984 . S
N591 C584 1.356 . S
N591 H594 0.984 . S
N591 H595 0.985 . S
H592 N587 0.984 . S
H593 N587 0.985 . S
H594 N591 0.984 . S
H595 N591 0.985 . S
H596 N590 0.984 . S
H597 N590 0.984 . S
H598 N586 0.984 . S
H599 N586 0.985 . S
C600 C601 1.363 . S
C600 C606 1.379 . S
C600 N608 1.356 . S
C601 C600 1.363 . S
C601 C607 1.351 1_556 S
C602 C603 1.362 . S
C602 C607 1.384 . S
C602 N609 1.356 . S
C603 C602 1.362 . S
C603 C606 1.364 1_554 S
N604 C606 1.356 . S
N604 H616 0.984 . S
N604 H617 0.985 . S
N605 C607 1.360 . S
N605 H610 0.984 1_554 S
N605 H611 0.985 . S
C606 C600 1.379 . S
C606 C603 1.364 1_556 S
C606 N604 1.356 . S
C607 C601 1.351 1_554 S
C607 C602 1.384 . S
C607 N605 1.360 . S
N608 C600 1.356 . S
N608 H614 0.984 . S
N608 H615 0.984 . S
N609 C602 1.356 . S
N609 H612 0.984 . S
N609 H613 0.985 . S
H610 N605 0.984 1_556 S
H611 N605 0.985 . S
H612 N609 0.984 . S
H613 N609 0.985 . S
H614 N608 0.984 . S
H615 N608 0.984 . S
H616 N604 0.984 . S
H617 N604 0.985 . S
C618 C619 1.363 . S
C618 C624 1.379 . S
C618 N626 1.356 . S
C619 C618 1.363 . S
C619 C625 1.363 . S
C620 C621 1.363 . S
C620 C625 1.379 . S
C620 N627 1.356 . S
C621 C620 1.363 . S
C621 C624 1.363 . S
N622 C624 1.356 . S
N622 H634 0.984 . S
N622 H635 0.985 . S
N623 C625 1.356 . S
N623 H628 0.984 . S
N623 H629 0.985 . S
C624 C618 1.379 . S
C624 C621 1.363 . S
C624 N622 1.356 . S
C625 C619 1.363 . S
C625 C620 1.379 . S
C625 N623 1.356 . S
N626 C618 1.356 . S
N626 H632 0.984 . S
N626 H633 0.984 . S
N627 C620 1.356 . S
N627 H630 0.984 . S
N627 H631 0.985 . S
H628 N623 0.984 . S
H629 N623 0.985 . S
H630 N627 0.984 . S
H631 N627 0.985 . S
H632 N626 0.984 . S
H633 N626 0.984 . S
H634 N622 0.984 . S
H635 N622 0.985 . S
C636 C637 1.363 . S
C636 C642 1.379 . S
C636 N644 1.356 . S
C637 C636 1.363 . S
C637 C643 1.363 . S
C638 C639 1.363 . S
C638 C643 1.379 . S
C638 N645 1.356 . S
C639 C638 1.363 . S
C639 C642 1.363 . S
N640 C642 1.356 . S
N640 H652 0.984 . S
N640 H653 0.985 . S
N641 C643 1.356 . S
N641 H646 0.984 . S
N641 H647 0.985 . S
C642 C636 1.379 . S
C642 C639 1.363 . S
C642 N640 1.356 . S
C643 C637 1.363 . S
C643 C638 1.379 . S
C643 N641 1.356 . S
N644 C636 1.356 . S
N644 H650 0.984 . S
N644 H651 0.984 . S
N645 C638 1.356 . S
N645 H648 0.984 . S
N645 H649 0.985 . S
H646 N641 0.984 . S
H647 N641 0.985 . S
H648 N645 0.984 . S
H649 N645 0.985 . S
H650 N644 0.984 . S
H651 N644 0.984 . S
H652 N640 0.984 . S
H653 N640 0.985 . S
C654 C655 1.363 . S
C654 C660 1.379 . S
C654 N662 1.356 . S
C655 C654 1.363 . S
C655 C661 1.363 . S
C656 C657 1.363 . S
C656 C661 1.379 . S
C656 N663 1.356 . S
C657 C656 1.363 . S
C657 C660 1.363 . S
N658 C660 1.356 . S
N658 H670 0.984 . S
N658 H671 0.985 . S
N659 C661 1.356 . S
N659 H664 0.984 . S
N659 H665 0.985 . S
C660 C654 1.379 . S
C660 C657 1.363 . S
C660 N658 1.356 . S
C661 C655 1.363 . S
C661 C656 1.379 . S
C661 N659 1.356 . S
N662 C654 1.356 . S
N662 H668 0.984 . S
N662 H669 0.984 . S
N663 C656 1.356 . S
N663 H666 0.984 . S
N663 H667 0.985 . S
H664 N659 0.984 . S
H665 N659 0.985 . S
H666 N663 0.984 . S
H667 N663 0.985 . S
H668 N662 0.984 . S
H669 N662 0.984 . S
H670 N658 0.984 . S
H671 N658 0.985 . S
C672 C673 1.363 . S
C672 C678 1.379 . S
C672 N680 1.356 . S
C673 C672 1.363 . S
C673 C679 1.363 . S
C674 C675 1.363 . S
C674 C679 1.379 . S
C674 N681 1.356 . S
C675 C674 1.363 . S
C675 C678 1.363 . S
N676 C678 1.356 . S
N676 H688 0.984 . S
N676 H689 0.985 . S
N677 C679 1.356 . S
N677 H682 0.984 . S
N677 H683 0.985 . S
C678 C672 1.379 . S
C678 C675 1.363 . S
C678 N676 1.356 . S
C679 C673 1.363 . S
C679 C674 1.379 . S
C679 N677 1.356 . S
N680 C672 1.356 . S
N680 H686 0.984 . S
N680 H687 0.984 . S
N681 C674 1.356 . S
N681 H684 0.984 . S
N681 H685 0.985 . S
H682 N677 0.984 . S
H683 N677 0.985 . S
H684 N681 0.984 . S
H685 N681 0.985 . S
H686 N680 0.984 . S
H687 N680 0.984 . S
H688 N676 0.984 . S
H689 N676 0.985 . S
C690 C691 1.363 . S
C690 C696 1.379 . S
C690 N698 1.356 . S
C691 C690 1.363 . S
C691 C697 1.363 . S
C692 C693 1.363 . S
C692 C697 1.379 . S
C692 N699 1.356 . S
C693 C692 1.363 . S
C693 C696 1.363 . S
N694 C696 1.356 . S
N694 H706 0.984 . S
N694 H707 0.985 . S
N695 C697 1.356 . S
N695 H700 0.984 . S
N695 H701 0.985 . S
C696 C690 1.379 . S
C696 C693 1.363 . S
C696 N694 1.356 . S
C697 C691 1.363 . S
C697 C692 1.379 . S
C697 N695 1.356 . S
N698 C690 1.356 . S
N698 H704 0.984 . S
N698 H705 0.984 . S
N699 C692 1.356 . S
N699 H702 0.984 . S
N699 H703 0.985 . S
H700 N695 0.984 . S
H701 N695 0.985 . S
H702 N699 0.984 . S
H703 N699 0.985 . S
H704 N698 0.984 . S
H705 N698 0.984 . S
H706 N694 0.984 . S
H707 N694 0.985 . S
C708 C709 1.363 . S
C708 C714 1.379 . S
C708 N716 1.356 . S
C709 C708 1.363 . S
C709 C715 1.363 . S
C710 C711 1.363 . S
C710 C715 1.379 . S
C710 N717 1.356 . S
C711 C710 1.363 . S
C711 C714 1.363 . S
N712 C714 1.356 . S
N712 H724 0.984 . S
N712 H725 0.985 . S
N713 C715 1.356 . S
N713 H718 0.984 . S
N713 H719 0.985 . S
C714 C708 1.379 . S
C714 C711 1.363 . S
C714 N712 1.356 . S
C715 C709 1.363 . S
C715 C710 1.379 . S
C715 N713 1.356 . S
N716 C708 1.356 . S
N716 H722 0.984 . S
N716 H723 0.984 . S
N717 C710 1.356 . S
N717 H720 0.984 . S
N717 H721 0.985 . S
H718 N713 0.984 . S
H719 N713 0.985 . S
H720 N717 0.984 . S
H721 N717 0.985 . S
H722 N716 0.984 . S
H723 N716 0.984 . S
H724 N712 0.984 . S
H725 N712 0.985 . S
C726 C727 1.363 . S
C726 C732 1.379 . S
C726 N734 1.356 . S
C727 C726 1.363 . S
C727 C733 1.363 . S
C728 C729 1.363 . S
C728 C733 1.379 . S
C728 N735 1.356 . S
C729 C728 1.363 . S
C729 C732 1.363 . S
N730 C732 1.356 . S
N730 H742 0.984 . S
N730 H743 0.985 . S
N731 C733 1.356 . S
N731 H736 0.984 . S
N731 H737 0.985 . S
C732 C726 1.379 . S
C732 C729 1.363 . S
C732 N730 1.356 . S
C733 C727 1.363 . S
C733 C728 1.379 . S
C733 N731 1.356 . S
N734 C726 1.356 . S
N734 H740 0.984 . S
N734 H741 0.984 . S
N735 C728 1.356 . S
N735 H738 0.984 . S
N735 H739 0.985 . S
H736 N731 0.984 . S
H737 N731 0.985 . S
H738 N735 0.984 . S
H739 N735 0.985 . S
H740 N734 0.984 . S
H741 N734 0.984 . S
H742 N730 0.984 . S
H743 N730 0.985 . S
C313 C6 1.238 . S
C315 C158 1.268 . S
C331 C21 1.447 . S
C333 C207 1.471 . S
C351 C242 2.020 . S
C349 C49 2.054 . S
C367 C68 2.190 . S
C369 C281 2.240 . S
C387 C202 2.840 . S
C385 C2 2.676 . S
C405 C161 0.497 . S
C403 C30 0.444 . S
C423 C291 2.022 . S
C421 C40 2.086 . S
C441 C250 1.747 . S
C439 C63 1.738 . S
C457 C11 1.356 . S
C459 C278 1.574 . S
C477 C210 2.610 . S
C475 C44 2.694 . S
C493 C59 2.036 . S
C495 C171 2.043 . S
C511 C25 1.587 . S
C513 C247 1.558 . S
C531 C167 1.362 . S
C529 C82 1.363 . S
C547 C101 1.365 . S
C549 C198 1.376 . S
C565 C125 2.305 . S
C567 C251 2.409 . S
C583 C144 2.008 . S
C585 C290 2.080 . S
C601 C87 1.975 . S
C603 C211 2.151 . S
C621 C170 1.598 . S
C619 C97 1.635 . S
C639 C282 1.775 . S
C637 C120 1.870 . S
C657 C241 1.753 . S
C655 C135 1.874 . S
C673 C78 1.888 . S
C675 C287 2.052 . S
C693 C201 1.961 . S
C691 C116 2.023 . S
C711 C162 2.643 . S
C709 C139 2.638 . S
C727 C106 0.879 . S
C729 C238 1.138 . S
