# Generated by pormake.
# Topology pyr, (3,6)-cn, num edge types: 1
# Building blocks:
#     Node 0, Type 0, BuildingBlock: BETDIP_clean_linker_0, # of connection points: 3
#     Node 1, Type 0, BuildingBlock: BETDIP_clean_linker_0, # of connection points: 3
#     Node 2, Type 0, BuildingBlock: BETDIP_clean_linker_0, # of connection points: 3
#     Node 3, Type 0, BuildingBlock: BETDIP_clean_linker_0, # of connection points: 3
#     Node 4, Type 0, BuildingBlock: BETDIP_clean_linker_0, # of connection points: 3
#     Node 5, Type 0, BuildingBlock: BETDIP_clean_linker_0, # of connection points: 3
#     Node 6, Type 0, BuildingBlock: BETDIP_clean_linker_0, # of connection points: 3
#     Node 7, Type 0, BuildingBlock: BETDIP_clean_linker_0, # of connection points: 3
#     Node 8, Type 1, BuildingBlock: JUFBIX_clean_sbu_0, # of connection points: 6
#     Node 9, Type 1, BuildingBlock: JUFBIX_clean_sbu_0, # of connection points: 6
#     Node 10, Type 1, BuildingBlock: JUFBIX_clean_sbu_0, # of connection points: 6
#     Node 11, Type 1, BuildingBlock: JUFBIX_clean_sbu_0, # of connection points: 6
#     Edge 12, Type (0, 1), BuildingBlock: XIVTED_clean_linker_0, # of connection points: 2
#     Edge 13, Type (0, 1), BuildingBlock: XIVTED_clean_linker_0, # of connection points: 2
#     Edge 14, Type (0, 1), BuildingBlock: XIVTED_clean_linker_0, # of connection points: 2
#     Edge 15, Type (0, 1), BuildingBlock: XIVTED_clean_linker_0, # of connection points: 2
#     Edge 16, Type (0, 1), BuildingBlock: XIVTED_clean_linker_0, # of connection points: 2
#     Edge 17, Type (0, 1), BuildingBlock: XIVTED_clean_linker_0, # of connection points: 2
#     Edge 18, Type (0, 1), BuildingBlock: XIVTED_clean_linker_0, # of connection points: 2
#     Edge 19, Type (0, 1), BuildingBlock: XIVTED_clean_linker_0, # of connection points: 2
#     Edge 20, Type (0, 1), BuildingBlock: XIVTED_clean_linker_0, # of connection points: 2
#     Edge 21, Type (0, 1), BuildingBlock: XIVTED_clean_linker_0, # of connection points: 2
#     Edge 22, Type (0, 1), BuildingBlock: XIVTED_clean_linker_0, # of connection points: 2
#     Edge 23, Type (0, 1), BuildingBlock: XIVTED_clean_linker_0, # of connection points: 2
#     Edge 24, Type (0, 1), BuildingBlock: XIVTED_clean_linker_0, # of connection points: 2
#     Edge 25, Type (0, 1), BuildingBlock: XIVTED_clean_linker_0, # of connection points: 2
#     Edge 26, Type (0, 1), BuildingBlock: XIVTED_clean_linker_0, # of connection points: 2
#     Edge 27, Type (0, 1), BuildingBlock: XIVTED_clean_linker_0, # of connection points: 2
#     Edge 28, Type (0, 1), BuildingBlock: XIVTED_clean_linker_0, # of connection points: 2
#     Edge 29, Type (0, 1), BuildingBlock: XIVTED_clean_linker_0, # of connection points: 2
#     Edge 30, Type (0, 1), BuildingBlock: XIVTED_clean_linker_0, # of connection points: 2
#     Edge 31, Type (0, 1), BuildingBlock: XIVTED_clean_linker_0, # of connection points: 2
#     Edge 32, Type (0, 1), BuildingBlock: XIVTED_clean_linker_0, # of connection points: 2
#     Edge 33, Type (0, 1), BuildingBlock: XIVTED_clean_linker_0, # of connection points: 2
#     Edge 34, Type (0, 1), BuildingBlock: XIVTED_clean_linker_0, # of connection points: 2
#     Edge 35, Type (0, 1), BuildingBlock: XIVTED_clean_linker_0, # of connection points: 2
# Relax obj value: 0.161
# Max RMSD: 0.200
# Mean RMSD: 0.129
data_MOF--net-pry--node1-JUFBIX_clean_sbu_0--node2-BETDIP_clean_linker_0--edge1-XIVTED_clean_linker_0
_symmetry_space_group_name_H-M    P1
_symmetry_Int_Tables_number       1
_symmetry_cell_setting            triclinic
loop_
_symmetry_equiv_pos_as_xyz
'x, y, z'
_cell_length_a     36.946629
_cell_length_b     34.316555
_cell_length_c     38.188275
_cell_angle_alpha  86.121575
_cell_angle_beta   84.567444
_cell_angle_gamma 96.671443
loop_
_atom_site_label
_atom_site_type_symbol
_atom_site_fract_x
_atom_site_fract_y
_atom_site_fract_z
_atom_type_partial_charge
H0 H 0.15398 0.18038 0.2364 0.0
H1 H 0.2377 0.18586 0.14974 0.0
H2 H 0.23765 0.10301 0.2396 0.0
H3 H 0.20229 0.22103 0.12061 0.0
C4 C 0.1825 0.23237 0.13882 0.0
C5 C 0.17819 0.16951 0.2243 0.0
C6 C 0.19376 0.1395 0.24227 0.0
C7 C 0.19323 0.18604 0.19086 0.0
C8 C 0.22507 0.17267 0.17511 0.0
C9 C 0.24155 0.14275 0.19249 0.0
C10 C 0.22578 0.12657 0.22629 0.0
N11 N 0.17546 0.21618 0.1745 0.0
H12 H 0.42888 0.93412 0.6776 0.0
H13 H 0.43226 0.84786 0.60157 0.0
H14 H 0.48206 0.83073 0.69775 0.0
H15 H 0.38589 0.87419 0.58162 0.0
C16 C 0.3835 0.90257 0.59191 0.0
C17 C 0.43787 0.90688 0.66936 0.0
C18 C 0.45727 0.8845 0.69151 0.0
C19 C 0.428 0.89369 0.63741 0.0
C20 C 0.43896 0.85822 0.62656 0.0
C21 C 0.45837 0.8354 0.6483 0.0
C22 C 0.46704 0.84833 0.681 0.0
N23 N 0.4057 0.9163 0.61802 0.0
H24 H 0.74635 0.43891 0.85663 0.0
H25 H 0.65104 0.35289 0.86352 0.0
H26 H 0.73183 0.34155 0.93603 0.0
H27 H 0.62639 0.40925 0.84611 0.0
C28 C 0.64657 0.41964 0.82387 0.0
C29 C 0.73064 0.41209 0.86908 0.0
C30 C 0.74291 0.39222 0.89836 0.0
C31 C 0.69714 0.39853 0.85683 0.0
C32 C 0.6766 0.36386 0.87315 0.0
C33 C 0.68871 0.34325 0.90195 0.0
C34 C 0.72189 0.35768 0.91428 0.0
N35 N 0.68449 0.4199 0.82805 0.0
H36 H 0.92439 0.57161 0.46819 0.0
H37 H 0.02032 0.65683 0.45192 0.0
H38 H 0.93138 0.67391 0.52762 0.0
H39 H 0.03605 0.62498 0.40556 0.0
C40 C 1.01392 0.60243 0.4019 0.0
C41 C 0.93994 0.59771 0.47614 0.0
C42 C 0.92356 0.62085 0.50055 0.0
C43 C 0.9746 0.61026 0.45833 0.0
C44 C 0.99396 0.64589 0.46605 0.0
C45 C 0.97865 0.66855 0.49153 0.0
C46 C 0.94383 0.65548 0.50915 0.0
N47 N 0.9864 0.5886 0.4299 0.0
H48 H 0.80649 0.85628 0.93063 0.0
H49 H 0.89316 0.86456 0.84627 0.0
H50 H 0.80936 0.94096 0.84125 0.0
H51 H 0.89905 0.80459 0.86569 0.0
C52 C 0.89175 0.80186 0.89402 0.0
C53 C 0.81937 0.86994 0.90541 0.0
C54 C 0.80377 0.90044 0.88795 0.0
C55 C 0.85109 0.8561 0.89044 0.0
C56 C 0.86811 0.87397 0.85779 0.0
C57 C 0.85318 0.90438 0.83961 0.0
C58 C 0.82067 0.91708 0.85472 0.0
N59 N 0.86555 0.82491 0.90923 0.0
H60 H 0.59827 0.0763 0.41574 0.0
H61 H 0.60331 0.16391 0.4911 0.0
H62 H 0.55389 0.18515 0.39556 0.0
H63 H 0.63701 0.12686 0.51912 0.0
C64 C 0.64368 0.10282 0.50367 0.0
C65 C 0.59127 0.10424 0.42426 0.0
C66 C 0.57432 0.129 0.40191 0.0
C67 C 0.60231 0.11651 0.45623 0.0
C68 C 0.5951 0.15367 0.46657 0.0
C69 C 0.57715 0.17828 0.44498 0.0
C70 C 0.56673 0.16571 0.41278 0.0
N71 N 0.62349 0.09205 0.4752 0.0
H72 H 0.30342 0.59807 0.21557 0.0
H73 H 0.39727 0.68529 0.2136 0.0
H74 H 0.32032 0.69639 0.13713 0.0
H75 H 0.42186 0.62955 0.23222 0.0
C76 C 0.40071 0.61778 0.25322 0.0
C77 C 0.31929 0.62517 0.20394 0.0
C78 C 0.30823 0.64524 0.17412 0.0
C79 C 0.3518 0.63895 0.21788 0.0
C80 C 0.37253 0.67407 0.20266 0.0
C81 C 0.3616 0.69485 0.1733 0.0
C82 C 0.32943 0.68013 0.15929 0.0
N83 N 0.36321 0.61725 0.24717 0.0
H84 H 1.01619 0.3934 0.61212 0.0
H85 H 0.10756 0.48393 0.60688 0.0
H86 H 0.11995 0.37591 0.55857 0.0
H87 H 0.99681 0.4227 0.66227 0.0
C88 C 1.01668 0.44816 0.66429 0.0
C89 C 0.04427 0.40464 0.60269 0.0
C90 C 0.0658 0.38128 0.58275 0.0
C91 C 0.05928 0.44206 0.61081 0.0
C92 C 0.0958 0.45574 0.59916 0.0
C93 C 0.1182 0.4318 0.58101 0.0
C94 C 0.10267 0.39513 0.5717 0.0
N95 N 0.04008 0.46481 0.63409 0.0
Co96 Co 0.99692 0.02367 0.52851 0.0
C97 C 0.02477 0.95156 0.5298 0.0
Co98 Co 0.04836 0.02316 0.55323 0.0
C99 C 0.92195 0.03409 0.51996 0.0
C100 C 0.9475 0.0076 0.47647 0.0
N101 N 0.95393 0.02229 0.50745 0.0
N102 N 0.89566 0.02715 0.49809 0.0
C103 C 0.91174 0.01055 0.47063 0.0
H104 H 0.91789 0.04671 0.54504 0.0
H105 H 0.96747 0.99521 0.45938 0.0
C106 C 0.02064 0.09529 0.55182 0.0
N107 N 0.09134 0.02433 0.57418 0.0
C108 C 0.12187 0.00883 0.56298 0.0
C109 C 0.09911 0.04115 0.60391 0.0
N110 N 0.1485 0.01533 0.58451 0.0
C111 C 0.13426 0.03572 0.61032 0.0
C112 C 0.05919 0.04405 0.48065 0.0
O113 O 0.99525 0.07759 0.53645 0.0
O114 O 0.04636 0.07679 0.56129 0.0
O115 O 0.07582 0.03865 0.50795 0.0
O116 O 0.02436 0.03913 0.48392 0.0
O117 O 0.04995 0.9693 0.54535 0.0
H118 H 0.08034 0.05626 0.61995 0.0
H119 H 0.12456 0.99343 0.53924 0.0
O120 O 0.99901 0.97001 0.52029 0.0
O121 O 0.96958 0.00803 0.57371 0.0
O122 O 0.02092 0.00779 0.59798 0.0
C123 C 0.98608 1.00269 0.6011 0.0
H124 H 0.89875 1.00143 0.44778 0.0
H125 H 0.14796 0.04536 0.63261 0.0
Co126 Co 0.50842 0.01727 1.01728 0.0
C127 C 0.49669 0.95286 0.06684 0.0
Co128 Co 0.53772 0.02584 0.06441 0.0
C129 C 0.48677 0.98509 0.95314 0.0
C130 C 0.45994 0.03506 0.96609 0.0
N131 N 0.48304 0.01081 0.97811 0.0
N132 N 0.46743 0.99286 0.92578 0.0
C133 C 0.45034 0.02414 0.93396 0.0
H134 H 0.50507 0.96267 0.95392 0.0
H135 H 0.45199 0.06032 0.97899 0.0
C136 C 0.54954 0.09022 1.01473 0.0
N137 N 0.56385 0.03385 0.10289 0.0
C138 C 0.5513 0.03576 0.13705 0.0
C139 C 0.60028 0.04492 0.10123 0.0
N140 N 0.57839 0.04827 0.15648 0.0
C141 C 0.60926 0.05384 0.13407 0.0
C142 C 0.57825 0.99415 1.00964 0.0
O143 O 0.52765 0.06883 0.99824 0.0
O144 O 0.55759 0.07703 0.04451 0.0
O145 O 0.57827 0.00428 0.04104 0.0
O146 O 0.54993 0.99741 0.9937 0.0
O147 O 0.51762 0.97472 0.08406 0.0
H148 H 0.61889 0.0484 0.0773 0.0
H149 H 0.52259 0.03062 0.14701 0.0
O150 O 0.48946 0.96562 0.03651 0.0
O151 O 0.46712 0.03727 0.04133 0.0
O152 O 0.49688 0.04718 0.08743 0.0
C153 C 0.46789 0.0489 0.07221 0.0
H154 H 0.43312 0.0389 0.91734 0.0
H155 H 0.63618 0.06502 0.14068 0.0
Co156 Co 0.54969 0.52548 0.52601 0.0
C157 C 0.49543 0.52925 0.48004 0.0
Co158 Co 0.49476 0.4985 0.54913 0.0
C159 C 0.62855 0.54582 0.51539 0.0
C160 C 0.60002 0.58348 0.48379 0.0
N161 N 0.59478 0.55108 0.50661 0.0
N162 N 0.65446 0.57407 0.49941 0.0
C163 C 0.6366 0.59761 0.47929 0.0
H164 H 0.63379 0.52313 0.53469 0.0
H165 H 0.57843 0.59717 0.47245 0.0
C166 C 0.54926 0.49498 0.59497 0.0
N167 N 0.44957 0.47353 0.56859 0.0
C168 C 0.41604 0.48235 0.5621 0.0
C169 C 0.44313 0.44178 0.59218 0.0
N170 N 0.38907 0.4575 0.58083 0.0
C171 C 0.40594 0.43203 0.59994 0.0
C172 C 0.53706 0.44726 0.51502 0.0
O173 O 0.56957 0.5135 0.56905 0.0
O174 O 0.51553 0.4853 0.59179 0.0
O175 O 0.50615 0.45081 0.53133 0.0
O176 O 0.56153 0.47694 0.5097 0.0
O177 O 0.47449 0.51212 0.50625 0.0
H178 H 0.46411 0.42642 0.60283 0.0
H179 H 0.41144 0.50672 0.54423 0.0
O180 O 0.52937 0.53716 0.48308 0.0
O181 O 0.53754 0.57376 0.54261 0.0
O182 O 0.48365 0.5463 0.56696 0.0
C183 C 0.5073 0.57651 0.56054 0.0
H184 H 0.64893 0.62385 0.46323 0.0
H185 H 0.39233 0.40765 0.61765 0.0
Co186 Co 0.0446 0.51958 1.0065 0.0
C187 C 0.97141 0.48603 1.00772 0.0
Co188 Co 1.01161 0.51884 0.05786 0.0
C189 C 0.06206 0.49824 0.93611 0.0
C190 C 0.09389 0.55173 0.94599 0.0
N191 N 0.06981 0.52184 0.96195 0.0
N192 N 0.07918 0.51283 0.90431 0.0
C193 C 0.09971 0.54628 0.91061 0.0
H194 H 0.04246 0.472 0.94028 0.0
H195 H 0.10422 0.57742 0.95863 0.0
C196 C 0.08465 0.55239 0.05684 0.0
N197 N 0.98614 0.51646 0.10233 0.0
C198 C 0.99309 0.53972 0.12863 0.0
C199 C 0.96065 0.48723 0.11722 0.0
N200 N 0.97361 0.52577 0.15954 0.0
C201 C 0.95284 0.49291 0.1523 0.0
C202 C 0.04967 0.45297 0.04913 0.0
O203 O 0.08703 0.54442 0.02474 0.0
O204 O 0.05398 0.54441 0.07542 0.0
O205 O 0.02802 0.46904 0.07003 0.0
O206 O 0.0599 0.46978 1.01849 0.0
O207 O 0.96958 0.49325 0.03995 0.0
H208 H 0.95009 0.46206 0.10404 0.0
H209 H 1.01322 0.56555 0.12546 0.0
O210 O 1.00172 0.49481 0.98871 0.0
O211 O 0.0293 0.5693 0.99478 0.0
O212 O 0.99543 0.5688 0.04519 0.0
C213 C 1.00707 0.58561 1.01477 0.0
H214 H 0.11546 0.56711 0.89076 0.0
H215 H 0.93513 0.47287 0.17142 0.0
H216 H 0.22537 0.11962 0.3028 0.0
H217 H 0.03115 0.05668 0.4177 0.0
H218 H 0.12049 0.11839 0.26166 0.0
H219 H 0.13405 0.05865 0.46282 0.0
H220 H 0.06443 0.07699 0.36002 0.0
H221 H 0.19367 0.09441 0.36087 0.0
C222 C 0.19575 0.11376 0.30586 0.0
C223 C 0.17561 0.12158 0.27728 0.0
C224 C 0.07988 0.07298 0.38244 0.0
C225 C 0.13913 0.09297 0.34373 0.0
C226 C 0.06081 0.06135 0.41553 0.0
C227 C 0.07973 0.05602 0.44536 0.0
C228 C 0.11837 0.07946 0.37879 0.0
C229 C 0.11826 0.06248 0.44064 0.0
C230 C 0.17766 0.09959 0.33907 0.0
C231 C 0.13723 0.11359 0.28296 0.0
N232 N 0.13629 0.07393 0.40804 0.0
N233 N 0.12037 0.09993 0.31537 0.0
H234 H 0.48243 0.95935 0.70505 0.0
H235 H 0.47321 0.91649 0.91434 0.0
H236 H 0.45166 0.84262 0.75632 0.0
H237 H 0.46617 0.02995 0.86137 0.0
H238 H 0.47593 0.88803 0.85678 0.0
H239 H 0.48843 0.9848 0.76252 0.0
C240 C 0.47708 0.93902 0.72843 0.0
C241 C 0.46588 0.89891 0.72592 0.0
C242 C 0.47381 0.91914 0.8579 0.0
C243 C 0.47297 0.92787 0.7919 0.0
C244 C 0.47235 0.93533 0.8906 0.0
C245 C 0.46906 0.97548 0.89254 0.0
C246 C 0.47264 0.94354 0.82708 0.0
C247 C 0.468 0.99874 0.86111 0.0
C248 C 0.48055 0.95357 0.76123 0.0
C249 C 0.46031 0.87376 0.75706 0.0
N250 N 0.46988 0.98246 0.82973 0.0
N251 N 0.46361 0.88872 0.78889 0.0
H252 H 0.57614 0.41785 0.81025 0.0
H253 H 0.62102 0.50671 0.60926 0.0
H254 H 0.68639 0.44986 0.76078 0.0
H255 H 0.51271 0.45985 0.65689 0.0
H256 H 0.64565 0.48935 0.66478 0.0
H257 H 0.5526 0.43661 0.75474 0.0
C258 C 0.59539 0.42899 0.78763 0.0
C259 C 0.6332 0.43231 0.79009 0.0
C260 C 0.61651 0.48287 0.66305 0.0
C261 C 0.60652 0.45386 0.72626 0.0
C262 C 0.60239 0.49282 0.63138 0.0
C263 C 0.56468 0.48475 0.62837 0.0
C264 C 0.59276 0.4649 0.69203 0.0
C265 C 0.54193 0.46664 0.65792 0.0
C266 C 0.58196 0.43961 0.75591 0.0
C267 C 0.657 0.44684 0.76001 0.0
N268 N 0.5563 0.45742 0.68844 0.0
N269 N 0.64324 0.45711 0.72928 0.0
H270 H 0.05897 0.62533 0.34158 0.0
H271 H 0.9248 0.51289 0.21812 0.0
H272 H 0.95838 0.55208 0.38063 0.0
H273 H 0.0335 0.56887 0.18021 0.0
H274 H 0.93513 0.53111 0.27734 0.0
H275 H 0.04912 0.60821 0.28155 0.0
C276 C 0.035 0.60546 0.33751 0.0
C277 C 1.00954 0.5901 0.36604 0.0
C278 C 0.9567 0.53949 0.25602 0.0
C279 C 0.9978 0.57081 0.29773 0.0
C280 C 0.95081 0.52903 0.22217 0.0
C281 C 0.97831 0.53916 0.19402 0.0
C282 C 0.99032 0.56035 0.26186 0.0
C283 C 1.01129 0.56074 0.20086 0.0
C284 C 0.02932 0.59579 0.30332 0.0
C285 C 0.9788 0.56463 0.35944 0.0
N286 N 1.01639 0.57051 0.23409 0.0
N287 N 0.97375 0.55592 0.32597 0.0
H288 H 0.25538 0.12788 0.12301 0.0
H289 H 0.45753 0.06948 0.14056 0.0
H290 H 0.30368 0.12412 0.22151 0.0
H291 H 0.40322 0.0611 0.04568 0.0
H292 H 0.40274 0.09176 0.17022 0.0
H293 H 0.31028 0.10575 0.09403 0.0
C294 C 0.2776 0.12259 0.13858 0.0
C295 C 0.27479 0.12815 0.17484 0.0
C296 C 0.40281 0.08506 0.14291 0.0
C297 C 0.3381 0.10235 0.1416 0.0
C298 C 0.43417 0.07242 0.12588 0.0
C299 C 0.43513 0.06336 0.09047 0.0
C300 C 0.3721 0.08893 0.12443 0.0
C301 C 0.40386 0.06768 0.07296 0.0
C302 C 0.30895 0.1097 0.12199 0.0
C303 C 0.30439 0.12002 0.19361 0.0
N304 N 0.37377 0.08015 0.09006 0.0
N305 N 0.33478 0.10772 0.17679 0.0
H306 H 0.32735 0.87679 0.55474 0.0
H307 H 0.21014 0.04928 0.60895 0.0
H308 H 0.36709 0.97417 0.61229 0.0
H309 H 0.16864 0.95167 0.55253 0.0
H310 H 0.26968 0.02489 0.60593 0.0
H311 H 0.27105 0.90687 0.54836 0.0
C312 C 0.32436 0.90471 0.56564 0.0
C313 C 0.35163 0.92279 0.58436 0.0
C314 C 0.24762 0.00889 0.59402 0.0
C315 C 0.28752 0.9572 0.57747 0.0
C316 C 0.21353 0.02269 0.59595 0.0
C317 C 0.18425 1.00233 0.58125 0.0
C318 C 0.2525 0.97431 0.57741 0.0
C319 C 0.19048 0.96845 0.56404 0.0
C320 C 0.29224 0.9218 0.56212 0.0
C321 C 0.34657 0.95896 0.59797 0.0
N322 N 0.22385 0.95534 0.56283 0.0
N323 N 0.315 0.9748 0.59448 0.0
H324 H 0.81023 0.4214 0.86322 0.0
H325 H 0.90294 0.46131 0.04124 0.0
H326 H 0.75323 0.39792 0.9678 0.0
H327 H 0.96394 0.47512 0.9381 0.0
H328 H 0.84762 0.43915 1.01428 0.0
H329 H 0.86646 0.44352 0.88948 0.0
C330 C 0.80949 0.42115 0.89165 0.0
C331 C 0.77703 0.40754 0.91334 0.0
C332 C 0.87311 0.44688 0.99751 0.0
C333 C 0.8412 0.43252 0.94357 0.0
C334 C 0.90476 0.45947 1.01293 0.0
C335 C 0.93819 0.47008 0.99194 0.0
C336 C 0.8747 0.44502 0.96074 0.0
C337 C 0.93881 0.46714 0.95534 0.0
C338 C 0.84162 0.4335 0.90664 0.0
C339 C 0.77773 0.40757 0.95006 0.0
N340 N 0.90753 0.45504 0.9409 0.0
N341 N 0.80921 0.41981 0.96395 0.0
H342 H 0.88117 0.54942 0.51911 0.0
H343 H 0.6964 0.64422 0.49832 0.0
H344 H 0.87419 0.67415 0.50484 0.0
H345 H 0.69891 0.5191 0.51549 0.0
H346 H 0.76111 0.65527 0.50665 0.0
H347 H 0.8141 0.53718 0.52469 0.0
C348 C 0.86559 0.57424 0.51774 0.0
C349 C 0.88348 0.61287 0.51128 0.0
C350 C 0.74762 0.62533 0.50876 0.0
C351 C 0.80688 0.59906 0.51746 0.0
C352 C 0.71068 0.61901 0.50367 0.0
C353 C 0.69241 0.58065 0.50562 0.0
C354 C 0.76673 0.59304 0.51559 0.0
C355 C 0.71206 0.54913 0.51368 0.0
C356 C 0.82733 0.56723 0.52094 0.0
C357 C 0.86185 0.6439 0.51018 0.0
N358 N 0.74833 0.55598 0.51801 0.0
N359 N 0.82483 0.63627 0.51281 0.0
H360 H 0.18899 0.26766 0.07223 0.0
H361 H 0.0369 0.41189 0.11426 0.0
H362 H 0.12821 0.26804 0.1743 0.0
H363 H 0.09925 0.41288 1.01268 0.0
H364 H 0.06773 0.35709 0.13589 0.0
H365 H 0.15474 0.31913 0.04935 0.0
C366 C 0.16839 0.27859 0.08981 0.0
C367 C 0.16152 0.26356 0.12519 0.0
C368 C 0.07453 0.36912 0.10881 0.0
C369 C 0.12204 0.32249 0.09923 0.0
C370 C 0.0568 0.40037 0.09636 0.0
C371 C 0.06546 0.41717 0.06154 0.0
C372 C 0.10124 0.35444 0.08637 0.0
C373 C 0.09163 0.40095 0.03969 0.0
C374 C 0.14881 0.30794 0.07674 0.0
C375 C 0.1345 0.27874 0.14684 0.0
N376 N 0.10865 0.37069 0.05249 0.0
N377 N 0.1158 0.30736 0.13353 0.0
H378 H 0.67628 0.32005 0.97274 0.0
H379 H 0.54612 0.12282 0.94785 0.0
H380 H 0.65043 0.2835 0.87104 0.0
H381 H 0.59302 0.14604 0.04482 0.0
H382 H 0.57838 0.18537 0.92064 0.0
H383 H 0.64075 0.25968 1.00076 0.0
C384 C 0.66332 0.29927 0.95624 0.0
C385 C 0.66658 0.30689 0.91939 0.0
C386 C 0.58151 0.17681 0.9479 0.0
C387 C 0.62522 0.23796 0.95148 0.0
C388 C 0.56299 0.14119 0.96351 0.0
C389 C 0.56697 0.12911 0.99865 0.0
C390 C 0.604 0.20069 0.96761 0.0
C391 C 0.58925 0.1541 1.01762 0.0
C392 C 0.64284 0.26491 0.97231 0.0
C393 C 0.6484 0.2792 0.89953 0.0
N394 N 0.60694 0.18869 1.00186 0.0
N395 N 0.62854 0.24599 0.91581 0.0
H396 H 0.99989 0.72739 0.43996 0.0
H397 H 0.05373 0.89431 0.56772 0.0
H398 H 0.99442 0.70153 0.55255 0.0
H399 H 0.99632 0.91431 0.47614 0.0
H400 H 0.0498 0.82397 0.55734 0.0
H401 H 1.01772 0.79704 0.44783 0.0
C402 C 1.0034 0.73629 0.46623 0.0
C403 C 0.99572 0.70889 0.49569 0.0
C404 C 0.03843 0.84399 0.53945 0.0
C405 C 1.01587 0.78812 0.5048 0.0
C406 C 0.04072 0.88395 0.54524 0.0
C407 C 0.02502 0.90989 0.52288 0.0
C408 C 0.02124 0.83037 0.51059 0.0
C409 C 1.00841 0.89512 0.49418 0.0
C410 C 1.01323 0.77596 0.4707 0.0
C411 C 1.00007 0.72194 0.52925 0.0
N412 N 1.00705 0.85632 0.48877 0.0
N413 N 1.0098 0.76079 0.53296 0.0
H414 H 0.49612 0.82271 0.58624 0.0
H415 H 0.45538 0.58959 0.61306 0.0
H416 H 0.44348 0.76262 0.68386 0.0
H417 H 0.54344 0.64949 0.53948 0.0
H418 H 0.4453 0.65282 0.63612 0.0
H419 H 0.50906 0.75931 0.56541 0.0
C420 C 0.4875 0.79608 0.6033 0.0
C421 C 0.46878 0.79766 0.63675 0.0
C422 C 0.46687 0.652 0.615 0.0
C423 C 0.48293 0.72528 0.61304 0.0
C424 C 0.47248 0.61604 0.60168 0.0
C425 C 0.50025 0.61436 0.5743 0.0
C426 C 0.48879 0.6865 0.6004 0.0
C427 C 0.52177 0.64947 0.56066 0.0
C428 C 0.49493 0.76002 0.59149 0.0
C429 C 0.45821 0.76248 0.65798 0.0
N430 N 0.51543 0.68416 0.5737 0.0
N431 N 0.46511 0.72756 0.64562 0.0
H432 H 0.92676 0.92638 0.82214 0.0
H433 H 0.91125 0.98816 0.618 0.0
H434 H 0.82327 0.92444 0.77825 0.0
H435 H 1.01332 0.98922 0.66452 0.0
H436 H 0.87809 0.96694 0.67617 0.0
H437 H 0.95827 0.95167 0.76471 0.0
C438 C 0.9106 0.93122 0.80038 0.0
C439 C 0.87223 0.92279 0.8051 0.0
C440 C 0.90773 0.97191 0.67363 0.0
C441 C 0.90841 0.95221 0.73877 0.0
C442 C 0.92672 0.98401 0.6404 0.0
C443 C 0.96523 0.99043 0.63621 0.0
C444 C 0.92733 0.96613 0.703 0.0
C445 C 0.9837 0.9846 0.6663 0.0
C446 C 0.92866 0.94585 0.76752 0.0
C447 C 0.85284 0.93059 0.77595 0.0
N448 N 0.96464 0.97277 0.69823 0.0
N449 N 0.87112 0.94459 0.74401 0.0
H450 H 0.59256 0.17571 0.34084 0.0
H451 H 0.53218 0.01207 0.21156 0.0
H452 H 0.54483 0.05837 0.38034 0.0
H453 H 0.61524 0.11081 0.18208 0.0
H454 H 0.52651 0.03252 0.27225 0.0
H455 H 0.58987 0.15664 0.28069 0.0
C456 C 0.58089 0.14609 0.33684 0.0
C457 C 0.56888 0.11855 0.3656 0.0
C458 C 0.54594 0.0496 0.2524 0.0
C459 C 0.56624 0.09639 0.29678 0.0
C460 C 0.54908 0.03804 0.21792 0.0
C461 C 0.57449 0.05958 0.19205 0.0
C462 C 0.56784 0.08333 0.26063 0.0
C463 C 0.59582 0.09302 0.20142 0.0
C464 C 0.57971 0.13513 0.3025 0.0
C465 C 0.55461 0.08037 0.35883 0.0
N466 N 0.59192 0.10394 0.23489 0.0
N467 N 0.55372 0.07033 0.32503 0.0
H468 H 0.35813 0.58446 0.314 0.0
H469 H 0.53391 0.56291 0.41879 0.0
H470 H 0.47008 0.61653 0.26921 0.0
H471 H 0.42363 0.52171 0.4646 0.0
H472 H 0.51003 0.58287 0.36402 0.0
H473 H 0.38042 0.56137 0.3695 0.0
C474 C 0.38735 0.58652 0.31581 0.0
C475 C 0.41238 0.60241 0.28701 0.0
C476 C 0.49094 0.56939 0.38595 0.0
C477 C 0.43798 0.57629 0.35022 0.0
C478 C 0.50461 0.55796 0.41734 0.0
C479 C 0.48077 0.54056 0.44644 0.0
C480 C 0.45303 0.56362 0.38339 0.0
C481 C 0.44303 0.53497 0.44284 0.0
C482 C 0.40006 0.57336 0.34746 0.0
C483 C 0.44989 0.60446 0.29079 0.0
N484 N 0.4303 0.54655 0.41191 0.0
N485 N 0.46151 0.59167 0.32173 0.0
H486 H 0.07184 0.50248 0.68086 0.0
H487 H 1.01875 0.46597 0.88873 0.0
H488 H 0.98163 0.41826 0.72804 0.0
H489 H 0.12072 0.53113 0.84131 0.0
H490 H 1.00356 0.44982 0.83052 0.0
H491 H 0.08796 0.5163 0.73956 0.0
C492 C 0.05522 0.48704 0.70359 0.0
C493 C 0.02524 0.45913 0.69963 0.0
C494 C 0.02936 0.46746 0.83288 0.0
C495 C 0.04379 0.47477 0.767 0.0
C496 C 0.03831 0.47652 0.86629 0.0
C497 C 0.07121 0.50016 0.87024 0.0
C498 C 0.05325 0.48229 0.80301 0.0
C499 C 0.09487 0.51336 0.83969 0.0
C500 C 0.06461 0.49483 0.73714 0.0
C501 C 1.00486 0.44004 0.73005 0.0
N502 N 0.08533 0.50444 0.8074 0.0
N503 N 1.01449 0.44822 0.76251 0.0
H504 H 0.74311 0.92054 0.85722 0.0
H505 H 0.64173 0.98059 0.03755 0.0
H506 H 0.78782 0.91389 0.95749 0.0
H507 H 0.5903 0.97511 0.94085 0.0
H508 H 0.69619 0.9584 1.00778 0.0
H509 H 0.68812 0.94327 0.88624 0.0
C510 C 0.7415 0.92404 0.88527 0.0
C511 C 0.77023 0.91506 0.90489 0.0
C512 C 0.67301 0.96195 0.99302 0.0
C513 C 0.70711 0.94095 0.93839 0.0
C514 C 0.6418 0.97465 1.01005 0.0
C515 C 0.6112 0.97972 0.99177 0.0
C516 C 0.67398 0.95434 0.95725 0.0
C517 C 0.61313 0.97156 0.95608 0.0
C518 C 0.70996 0.93679 0.90188 0.0
C519 C 0.76628 0.91983 0.94129 0.0
N520 N 0.64396 0.95939 0.94 0.0
N521 N 0.73547 0.93243 0.95676 0.0
H522 H 0.66905 0.03988 0.47295 0.0
H523 H 0.86833 0.08244 0.5373 0.0
H524 H 0.69709 0.12854 0.54403 0.0
H525 H 0.83711 0.99039 0.47043 0.0
H526 H 0.80499 0.09707 0.54353 0.0
H527 H 0.7294 0.01839 0.47535 0.0
C528 C 0.68784 0.05464 0.48933 0.0
C529 C 0.67828 0.08631 0.50809 0.0
C530 C 0.812 0.07353 0.52764 0.0
C531 C 0.74761 0.06205 0.51074 0.0
C532 C 0.84816 0.06506 0.52417 0.0
C533 C 0.85821 0.03532 0.50305 0.0
C534 C 0.78568 0.05215 0.50985 0.0
C535 C 0.83087 0.01407 0.48638 0.0
C536 C 0.72235 0.04236 0.49068 0.0
C537 C 0.70356 0.10408 0.5291 0.0
N538 N 0.79596 0.02301 0.49003 0.0
N539 N 0.73728 0.09196 0.5296 0.0
H540 H 0.23998 0.61559 0.20667 0.0
H541 H 0.15444 0.57516 0.0251 0.0
H542 H 0.30096 0.64009 0.10394 0.0
H543 H 0.08989 0.56485 0.12637 0.0
H544 H 0.20885 0.59703 0.0538 0.0
H545 H 0.18522 0.59365 0.17816 0.0
C546 C 0.24191 0.61608 0.17816 0.0
C547 C 0.27504 0.62991 0.15767 0.0
C548 C 0.18275 0.59013 0.06973 0.0
C549 C 0.21252 0.60513 0.12484 0.0
C550 C 0.15164 0.57771 0.05332 0.0
C551 C 0.1175 0.56817 0.0733 0.0
C552 C 0.17982 0.59282 0.10645 0.0
C553 C 0.1156 0.57197 0.10985 0.0
C554 C 0.2106 0.60384 0.16188 0.0
C555 C 0.27587 0.63021 0.12078 0.0
N556 N 0.14631 0.58382 0.12524 0.0
N557 N 0.24515 0.61804 0.1056 0.0
H558 H 0.16821 0.42899 0.5232 0.0
H559 H 0.33735 0.44174 0.6362 0.0
H560 H 0.15981 0.45543 0.63233 0.0
H561 H 0.35269 0.47296 0.52411 0.0
H562 H 0.27108 0.43958 0.63473 0.0
H563 H 0.23545 0.43895 0.52186 0.0
C564 C 0.18053 0.43735 0.54666 0.0
C565 C 0.15853 0.44173 0.57782 0.0
C566 C 0.28894 0.44715 0.61046 0.0
C567 C 0.23475 0.45223 0.5767 0.0
C568 C 0.32663 0.44812 0.6113 0.0
C569 C 0.35028 0.45753 0.58026 0.0
C570 C 0.27477 0.45485 0.57821 0.0
C571 C 0.33519 0.4659 0.54862 0.0
C572 C 0.21873 0.44307 0.54587 0.0
C573 C 0.17574 0.45236 0.6076 0.0
N574 N 0.29823 0.46395 0.54829 0.0
N575 N 0.21278 0.45681 0.60641 0.0
H576 H 0.87649 0.77572 0.96505 0.0
H577 H 0.0314 0.63006 0.95347 0.0
H578 H 0.94631 0.76127 0.87098 0.0
H579 H 0.9503 0.62352 0.04347 0.0
H580 H 1.00449 0.68449 0.92659 0.0
H581 H 0.9062 0.72567 0.99732 0.0
C582 C 0.89812 0.76217 0.95125 0.0
C583 C 0.90896 0.77257 0.91523 0.0
C584 C 0.99255 0.67141 0.9523 0.0
C585 C 0.9431 0.71575 0.95192 0.0
C586 C 1.00805 0.64027 0.96782 0.0
C587 C 0.99301 0.62185 1.00079 0.0
C588 C 0.96156 0.68459 0.96966 0.0
C589 C 0.9628 0.63677 1.01802 0.0
C590 C 0.91501 0.73361 0.96965 0.0
C591 C 0.93706 0.75406 0.89867 0.0
N592 N 0.9479 0.66714 1.00216 0.0
N593 N 0.95309 0.72673 0.91707 0.0
H594 H 0.37717 0.71906 0.10295 0.0
H595 H 0.49724 0.92081 0.1345 0.0
H596 H 0.39674 0.75493 0.20643 0.0
H597 H 0.45726 0.89547 0.03482 0.0
H598 H 0.4663 0.85703 0.16039 0.0
H599 H 0.41173 0.78073 0.07676 0.0
C600 C 0.38858 0.73994 0.12022 0.0
C601 C 0.38374 0.73179 0.15703 0.0
C602 C 0.4644 0.86541 0.13283 0.0
C603 C 0.42398 0.80236 0.12705 0.0
C604 C 0.48216 0.90175 0.11799 0.0
C605 C 0.47974 0.91357 0.08245 0.0
C606 C 0.44428 0.84056 0.11194 0.0
C607 C 0.45974 0.88767 0.06236 0.0
C608 C 0.4085 0.77509 0.1052 0.0
C609 C 0.4 0.75968 0.17794 0.0
N610 N 0.44279 0.85242 0.07739 0.0
N611 N 0.41932 0.79372 0.16267 0.0
H612 H 0.061 0.34668 0.52068 0.0
H613 H 0.04653 0.13202 0.60679 0.0
H614 H 0.04 0.32285 0.6335 0.0
H615 H 0.99643 0.15354 0.51094 0.0
H616 H 0.05137 0.20253 0.61509 0.0
H617 H 0.04377 0.27632 0.51373 0.0
C618 C 0.05227 0.32662 0.54387 0.0
C619 C 0.05165 0.34026 0.57766 0.0
C620 C 0.03898 0.19171 0.59245 0.0
C621 C 0.03307 0.26042 0.57006 0.0
C622 C 0.03638 0.15165 0.58762 0.0
C623 C 0.02108 0.13717 0.55816 0.0
C624 C 0.02721 0.21755 0.56708 0.0
C625 C 1.00823 0.16369 0.53409 0.0
C626 C 0.04242 0.28673 0.53992 0.0
C627 C 0.04047 0.31333 0.60701 0.0
N628 N 1.01215 0.20288 0.53874 0.0
N629 N 0.03218 0.27449 0.60258 0.0
H630 H 0.51395 0.21231 0.44502 0.0
H631 H 0.60317 0.42228 0.49431 0.0
H632 H 0.6265 0.23466 0.46713 0.0
H633 H 0.48679 0.38433 0.50824 0.0
H634 H 0.61347 0.35673 0.47648 0.0
H635 H 0.50459 0.27876 0.46053 0.0
C636 C 0.53665 0.23129 0.45314 0.0
C637 C 0.57095 0.21805 0.45503 0.0
C638 C 0.58572 0.36289 0.48344 0.0
C639 C 0.56062 0.29396 0.4725 0.0
C640 C 0.57983 0.40026 0.49343 0.0
C641 C 0.5441 0.40866 0.50287 0.0
C642 C 0.55563 0.33406 0.48243 0.0
C643 C 0.51481 0.37905 0.50138 0.0
C644 C 0.53131 0.26908 0.46207 0.0
C645 C 0.59951 0.24368 0.46578 0.0
N646 N 0.52122 0.34312 0.49126 0.0
N647 N 0.59376 0.28054 0.47397 0.0
loop_
_geom_bond_atom_site_label_1
_geom_bond_atom_site_label_2
_geom_bond_distance
_geom_bond_site_symmetry_2
_ccdc_geom_bond_type
H0 C5 0.930 . S
H1 C8 0.930 . S
H2 C10 0.930 . S
H3 C4 1.016 . S
C4 H3 1.016 . S
C4 N11 1.286 . S
C5 H0 0.930 . S
C5 C6 1.397 . S
C5 C7 1.361 . S
C6 C5 1.397 . S
C6 C10 1.390 . S
C7 C5 1.361 . S
C7 C8 1.393 . S
C7 N11 1.413 . S
C8 H1 0.930 . S
C8 C7 1.393 . S
C8 C9 1.399 . S
C9 C8 1.399 . S
C9 C10 1.381 . S
C10 H2 0.930 . S
C10 C6 1.390 . S
C10 C9 1.381 . S
N11 C4 1.286 . S
N11 C7 1.413 . S
H12 C17 0.930 . S
H13 C20 0.930 . S
H14 C22 0.930 . S
H15 C16 1.016 . S
C16 H15 1.016 . S
C16 N23 1.286 . S
C17 H12 0.930 . S
C17 C18 1.397 . S
C17 C19 1.361 . S
C18 C17 1.397 . S
C18 C22 1.390 . S
C19 C17 1.361 . S
C19 C20 1.393 . S
C19 N23 1.413 . S
C20 H13 0.930 . S
C20 C19 1.393 . S
C20 C21 1.399 . S
C21 C20 1.399 . S
C21 C22 1.381 . S
C22 H14 0.930 . S
C22 C18 1.390 . S
C22 C21 1.381 . S
N23 C16 1.286 . S
N23 C19 1.413 . S
H24 C29 0.930 . S
H25 C32 0.930 . S
H26 C34 0.930 . S
H27 C28 1.016 . S
C28 H27 1.016 . S
C28 N35 1.286 . S
C29 H24 0.930 . S
C29 C30 1.397 . S
C29 C31 1.361 . S
C30 C29 1.397 . S
C30 C34 1.390 . S
C31 C29 1.361 . S
C31 C32 1.393 . S
C31 N35 1.413 . S
C32 H25 0.930 . S
C32 C31 1.393 . S
C32 C33 1.399 . S
C33 C32 1.399 . S
C33 C34 1.381 . S
C34 H26 0.930 . S
C34 C30 1.390 . S
C34 C33 1.381 . S
N35 C28 1.286 . S
N35 C31 1.413 . S
H36 C41 0.930 . S
H37 C44 0.930 . S
H38 C46 0.930 . S
H39 C40 1.016 . S
C40 H39 1.016 . S
C40 N47 1.286 . S
C41 H36 0.930 . S
C41 C42 1.397 . S
C41 C43 1.361 . S
C42 C41 1.397 . S
C42 C46 1.390 . S
C43 C41 1.361 . S
C43 C44 1.393 . S
C43 N47 1.413 . S
C44 H37 0.930 . S
C44 C43 1.393 . S
C44 C45 1.399 . S
C45 C44 1.399 . S
C45 C46 1.381 . S
C46 H38 0.930 . S
C46 C42 1.390 . S
C46 C45 1.381 . S
N47 C40 1.286 . S
N47 C43 1.413 . S
H48 C53 0.930 . S
H49 C56 0.930 . S
H50 C58 0.930 . S
H51 C52 1.016 . S
C52 H51 1.016 . S
C52 N59 1.286 . S
C53 H48 0.930 . S
C53 C54 1.397 . S
C53 C55 1.361 . S
C54 C53 1.397 . S
C54 C58 1.390 . S
C55 C53 1.361 . S
C55 C56 1.393 . S
C55 N59 1.413 . S
C56 H49 0.930 . S
C56 C55 1.393 . S
C56 C57 1.399 . S
C57 C56 1.399 . S
C57 C58 1.381 . S
C58 H50 0.930 . S
C58 C54 1.390 . S
C58 C57 1.381 . S
N59 C52 1.286 . S
N59 C55 1.413 . S
H60 C65 0.930 . S
H61 C68 0.930 . S
H62 C70 0.930 . S
H63 C64 1.016 . S
C64 H63 1.016 . S
C64 N71 1.286 . S
C65 H60 0.930 . S
C65 C66 1.397 . S
C65 C67 1.361 . S
C66 C65 1.397 . S
C66 C70 1.390 . S
C67 C65 1.361 . S
C67 C68 1.393 . S
C67 N71 1.413 . S
C68 H61 0.930 . S
C68 C67 1.393 . S
C68 C69 1.399 . S
C69 C68 1.399 . S
C69 C70 1.381 . S
C70 H62 0.930 . S
C70 C66 1.390 . S
C70 C69 1.381 . S
N71 C64 1.286 . S
N71 C67 1.413 . S
H72 C77 0.930 . S
H73 C80 0.930 . S
H74 C82 0.930 . S
H75 C76 1.016 . S
C76 H75 1.016 . S
C76 N83 1.286 . S
C77 H72 0.930 . S
C77 C78 1.397 . S
C77 C79 1.361 . S
C78 C77 1.397 . S
C78 C82 1.390 . S
C79 C77 1.361 . S
C79 C80 1.393 . S
C79 N83 1.413 . S
C80 H73 0.930 . S
C80 C79 1.393 . S
C80 C81 1.399 . S
C81 C80 1.399 . S
C81 C82 1.381 . S
C82 H74 0.930 . S
C82 C78 1.390 . S
C82 C81 1.381 . S
N83 C76 1.286 . S
N83 C79 1.413 . S
H84 C89 0.930 . S
H85 C92 0.930 . S
H86 C94 0.930 . S
H87 C88 1.016 . S
C88 H87 1.016 . S
C88 N95 1.286 . S
C89 H84 0.930 . S
C89 C90 1.397 . S
C89 C91 1.361 . S
C90 C89 1.397 . S
C90 C94 1.390 . S
C91 C89 1.361 . S
C91 C92 1.393 . S
C91 N95 1.413 . S
C92 H85 0.930 . S
C92 C91 1.393 . S
C92 C93 1.399 . S
C93 C92 1.399 . S
C93 C94 1.381 . S
C94 H86 0.930 . S
C94 C90 1.390 . S
C94 C93 1.381 . S
N95 C88 1.286 . S
N95 C91 1.413 . S
Co96 N101 2.057 . S
Co96 O113 2.021 . S
Co96 O116 2.062 . S
Co96 O120 2.117 1_545 S
Co96 O121 2.015 1_545 S
C97 O117 1.259 1_655 S
C97 O120 1.258 . S
Co98 N107 2.057 . S
Co98 O114 2.117 1_565 S
Co98 O115 2.020 1_565 S
Co98 O117 2.021 . S
Co98 O122 2.062 . S
C99 N101 1.316 . S
C99 N102 1.347 . S
C99 H104 0.931 . S
C100 N101 1.375 1_565 S
C100 C103 1.350 1_565 S
C100 H105 0.930 . S
N101 Co96 2.057 . S
N101 C99 1.316 . S
N101 C100 1.375 1_545 S
N102 C99 1.347 . S
N102 C103 1.373 . S
C103 C100 1.350 1_545 S
C103 N102 1.373 . S
C103 H124 0.931 1_545 S
H104 C99 0.931 . S
H105 C100 0.930 . S
C106 O113 1.259 1_455 S
C106 O114 1.258 . S
N107 Co98 2.057 . S
N107 C108 1.316 . S
N107 C109 1.375 1_565 S
C108 N107 1.316 . S
C108 N110 1.347 . S
C108 H119 0.931 . S
C109 N107 1.375 1_545 S
C109 C111 1.350 . S
C109 H118 0.930 . S
N110 C108 1.347 . S
N110 C111 1.373 1_565 S
C111 C109 1.350 . S
C111 N110 1.373 1_545 S
C111 H125 0.931 . S
C112 O115 1.256 . S
C112 O116 1.255 1_455 S
O113 Co96 2.021 . S
O113 C106 1.259 1_655 S
O114 Co98 2.117 1_545 S
O114 C106 1.258 . S
O115 Co98 2.020 1_545 S
O115 C112 1.256 . S
O116 Co96 2.062 . S
O116 C112 1.255 1_655 S
O117 C97 1.259 1_455 S
O117 Co98 2.021 . S
H118 C109 0.930 . S
H119 C108 0.931 . S
O120 Co96 2.117 1_565 S
O120 C97 1.258 . S
O121 Co96 2.015 1_565 S
O121 C123 1.262 . S
O122 Co98 2.062 . S
O122 C123 1.255 1_455 S
C123 O121 1.262 . S
C123 O122 1.255 1_655 S
H124 C103 0.931 1_565 S
H125 C111 0.931 . S
Co126 N131 2.057 1_545 S
Co126 O143 2.021 . S
Co126 O146 2.057 1_545 S
Co126 O150 2.117 1_546 S
Co126 O151 2.020 1_556 S
C127 O147 1.259 . S
C127 O150 1.258 . S
Co128 N137 2.057 . S
Co128 O144 2.117 . S
Co128 O145 2.020 . S
Co128 O147 2.021 1_545 S
Co128 O152 2.062 . S
C129 N131 1.316 . S
C129 N132 1.347 . S
C129 H134 0.931 1_565 S
C130 N131 1.375 . S
C130 C133 1.350 . S
C130 H135 0.930 . S
N131 Co126 2.057 1_565 S
N131 C129 1.316 . S
N131 C130 1.375 . S
N132 C129 1.347 . S
N132 C133 1.373 . S
C133 C130 1.350 . S
C133 N132 1.373 . S
C133 H154 0.931 . S
H134 C129 0.931 1_545 S
H135 C130 0.930 . S
C136 O143 1.259 . S
C136 O144 1.258 1_556 S
N137 Co128 2.057 . S
N137 C138 1.316 . S
N137 C139 1.375 . S
C138 N137 1.316 . S
C138 N140 1.347 . S
C138 H149 0.931 . S
C139 N137 1.375 . S
C139 C141 1.350 . S
C139 H148 0.930 . S
N140 C138 1.347 . S
N140 C141 1.373 . S
C141 C139 1.350 . S
C141 N140 1.373 . S
C141 H155 0.931 . S
C142 O145 1.260 1_556 S
C142 O146 1.258 1_545 S
O143 Co126 2.021 . S
O143 C136 1.259 . S
O144 Co128 2.117 . S
O144 C136 1.258 1_554 S
O145 Co128 2.020 . S
O145 C142 1.260 1_554 S
O146 Co126 2.057 1_565 S
O146 C142 1.258 1_565 S
O147 C127 1.259 . S
O147 Co128 2.021 1_565 S
H148 C139 0.930 . S
H149 C138 0.931 . S
O150 Co126 2.117 1_564 S
O150 C127 1.258 . S
O151 Co126 2.020 1_554 S
O151 C153 1.256 . S
O152 Co128 2.062 . S
O152 C153 1.255 . S
C153 O151 1.256 . S
C153 O152 1.255 . S
H154 C133 0.931 . S
H155 C141 0.931 . S
Co156 N161 2.057 . S
Co156 O173 2.021 . S
Co156 O176 2.062 . S
Co156 O180 2.117 . S
Co156 O181 2.020 . S
C157 O177 1.259 . S
C157 O180 1.258 . S
Co158 N167 2.057 . S
Co158 O174 2.117 . S
Co158 O175 2.020 . S
Co158 O177 2.021 . S
Co158 O182 2.062 . S
C159 N161 1.316 . S
C159 N162 1.347 . S
C159 H164 0.931 . S
C160 N161 1.375 . S
C160 C163 1.350 . S
C160 H165 0.930 . S
N161 Co156 2.057 . S
N161 C159 1.316 . S
N161 C160 1.375 . S
N162 C159 1.347 . S
N162 C163 1.373 . S
C163 C160 1.350 . S
C163 N162 1.373 . S
C163 H184 0.931 . S
H164 C159 0.931 . S
H165 C160 0.930 . S
C166 O173 1.259 . S
C166 O174 1.258 . S
N167 Co158 2.057 . S
N167 C168 1.316 . S
N167 C169 1.375 . S
C168 N167 1.316 . S
C168 N170 1.347 . S
C168 H179 0.931 . S
C169 N167 1.375 . S
C169 C171 1.350 . S
C169 H178 0.930 . S
N170 C168 1.347 . S
N170 C171 1.373 . S
C171 C169 1.350 . S
C171 N170 1.373 . S
C171 H185 0.931 . S
C172 O175 1.256 . S
C172 O176 1.255 . S
O173 Co156 2.021 . S
O173 C166 1.259 . S
O174 Co158 2.117 . S
O174 C166 1.258 . S
O175 Co158 2.020 . S
O175 C172 1.256 . S
O176 Co156 2.062 . S
O176 C172 1.255 . S
O177 C157 1.259 . S
O177 Co158 2.021 . S
H178 C169 0.930 . S
H179 C168 0.931 . S
O180 Co156 2.117 . S
O180 C157 1.258 . S
O181 Co156 2.020 . S
O181 C183 1.256 . S
O182 Co158 2.062 . S
O182 C183 1.255 . S
C183 O181 1.256 . S
C183 O182 1.255 . S
H184 C163 0.931 . S
H185 C171 0.931 . S
Co186 N191 2.057 . S
Co186 O203 2.021 . S
Co186 O206 2.049 1_556 S
Co186 O210 2.117 1_455 S
Co186 O211 2.020 . S
C187 O207 1.259 . S
C187 O210 1.258 1_554 S
Co188 N197 2.057 . S
Co188 O204 2.117 1_655 S
Co188 O205 2.020 1_655 S
Co188 O207 2.021 . S
Co188 O212 2.062 . S
C189 N191 1.316 . S
C189 N192 1.347 . S
C189 H194 0.931 . S
C190 N191 1.375 . S
C190 C193 1.350 . S
C190 H195 0.930 1_455 S
N191 Co186 2.057 . S
N191 C189 1.316 . S
N191 C190 1.375 . S
N192 C189 1.347 . S
N192 C193 1.373 . S
C193 C190 1.350 . S
C193 N192 1.373 . S
C193 H214 0.931 . S
H194 C189 0.931 . S
H195 C190 0.930 1_655 S
C196 O203 1.259 1_554 S
C196 O204 1.258 . S
N197 Co188 2.057 . S
N197 C198 1.316 . S
N197 C199 1.375 1_655 S
C198 N197 1.316 . S
C198 N200 1.347 . S
C198 H209 0.931 . S
C199 N197 1.375 1_455 S
C199 C201 1.350 . S
C199 H208 0.930 . S
N200 C198 1.347 . S
N200 C201 1.373 1_655 S
C201 C199 1.350 . S
C201 N200 1.373 1_455 S
C201 H215 0.931 . S
C202 O205 1.256 . S
C202 O206 1.284 . S
O203 Co186 2.021 . S
O203 C196 1.259 1_556 S
O204 Co188 2.117 1_455 S
O204 C196 1.258 . S
O205 Co188 2.020 1_455 S
O205 C202 1.256 . S
O206 Co186 2.049 1_554 S
O206 C202 1.284 . S
O207 C187 1.259 . S
O207 Co188 2.021 . S
H208 C199 0.930 . S
H209 C198 0.931 . S
O210 Co186 2.117 1_655 S
O210 C187 1.258 1_556 S
O211 Co186 2.020 . S
O211 C213 1.256 1_455 S
O212 Co188 2.062 . S
O212 C213 1.255 1_554 S
C213 O211 1.256 1_655 S
C213 O212 1.255 1_556 S
H214 C193 0.931 . S
H215 C201 0.931 . S
H216 C222 0.930 . S
H217 C226 0.919 1_565 S
H218 C231 0.929 . S
H219 C229 0.929 . S
H220 C224 0.929 . S
H221 C230 0.929 . S
C222 H216 0.930 . S
C222 C223 1.367 . S
C222 C230 1.378 . S
C223 C222 1.367 . S
C223 C231 1.433 . S
C224 H220 0.929 . S
C224 C226 1.378 . S
C224 C228 1.350 . S
C225 C228 1.463 . S
C225 C230 1.350 . S
C225 N233 1.427 . S
C226 H217 0.919 1_545 S
C226 C224 1.378 . S
C226 C227 1.367 . S
C227 C226 1.367 . S
C227 C229 1.433 . S
C228 C224 1.350 . S
C228 C225 1.463 . S
C228 N232 1.427 . S
C229 H219 0.929 . S
C229 C227 1.433 . S
C229 N232 1.384 . S
C230 H221 0.929 . S
C230 C222 1.378 . S
C230 C225 1.350 . S
C231 H218 0.929 . S
C231 C223 1.433 . S
C231 N233 1.384 . S
N232 C228 1.427 . S
N232 C229 1.384 . S
N233 C225 1.427 . S
N233 C231 1.384 . S
H234 C240 0.930 . S
H235 C244 0.930 . S
H236 C249 0.929 . S
H237 C247 0.931 . S
H238 C242 0.929 . S
H239 C248 0.929 . S
C240 H234 0.930 . S
C240 C241 1.367 . S
C240 C248 1.378 . S
C241 C240 1.367 . S
C241 C249 1.433 . S
C242 H238 0.929 . S
C242 C244 1.378 . S
C242 C246 1.350 . S
C243 C246 1.463 . S
C243 C248 1.350 . S
C243 N251 1.427 . S
C244 H235 0.930 . S
C244 C242 1.378 . S
C244 C245 1.367 . S
C245 C244 1.367 . S
C245 C247 1.433 . S
C246 C242 1.350 . S
C246 C243 1.463 . S
C246 N250 1.427 . S
C247 H237 0.931 . S
C247 C245 1.433 . S
C247 N250 1.384 . S
C248 H239 0.929 . S
C248 C240 1.378 . S
C248 C243 1.350 . S
C249 H236 0.929 . S
C249 C241 1.433 . S
C249 N251 1.384 . S
N250 C246 1.427 . S
N250 C247 1.384 . S
N251 C243 1.427 . S
N251 C249 1.384 . S
H252 C258 0.930 . S
H253 C262 0.930 . S
H254 C267 0.929 . S
H255 C265 0.929 . S
H256 C260 0.929 . S
H257 C266 0.929 . S
C258 H252 0.930 . S
C258 C259 1.367 . S
C258 C266 1.378 . S
C259 C258 1.367 . S
C259 C267 1.433 . S
C260 H256 0.929 . S
C260 C262 1.378 . S
C260 C264 1.350 . S
C261 C264 1.463 . S
C261 C266 1.350 . S
C261 N269 1.427 . S
C262 H253 0.930 . S
C262 C260 1.378 . S
C262 C263 1.367 . S
C263 C262 1.367 . S
C263 C265 1.433 . S
C264 C260 1.350 . S
C264 C261 1.463 . S
C264 N268 1.427 . S
C265 H255 0.929 . S
C265 C263 1.433 . S
C265 N268 1.384 . S
C266 H257 0.929 . S
C266 C258 1.378 . S
C266 C261 1.350 . S
C267 H254 0.929 . S
C267 C259 1.433 . S
C267 N269 1.384 . S
N268 C264 1.427 . S
N268 C265 1.384 . S
N269 C261 1.427 . S
N269 C267 1.384 . S
H270 C276 0.930 . S
H271 C280 0.930 . S
H272 C285 0.929 . S
H273 C283 0.929 . S
H274 C278 0.929 . S
H275 C284 0.929 . S
C276 H270 0.930 . S
C276 C277 1.367 . S
C276 C284 1.378 . S
C277 C276 1.367 . S
C277 C285 1.433 . S
C278 H274 0.929 . S
C278 C280 1.378 . S
C278 C282 1.350 . S
C279 C282 1.463 . S
C279 C284 1.350 . S
C279 N287 1.427 . S
C280 H271 0.930 . S
C280 C278 1.378 . S
C280 C281 1.367 . S
C281 C280 1.367 . S
C281 C283 1.433 . S
C282 C278 1.350 . S
C282 C279 1.463 . S
C282 N286 1.427 . S
C283 H273 0.929 . S
C283 C281 1.433 . S
C283 N286 1.384 . S
C284 H275 0.929 . S
C284 C276 1.378 . S
C284 C279 1.350 . S
C285 H272 0.929 . S
C285 C277 1.433 . S
C285 N287 1.384 . S
N286 C282 1.427 . S
N286 C283 1.384 . S
N287 C279 1.427 . S
N287 C285 1.384 . S
H288 C294 0.930 . S
H289 C298 0.930 . S
H290 C303 0.929 . S
H291 C301 0.929 . S
H292 C296 0.929 . S
H293 C302 0.929 . S
C294 H288 0.930 . S
C294 C295 1.367 . S
C294 C302 1.378 . S
C295 C294 1.367 . S
C295 C303 1.433 . S
C296 H292 0.929 . S
C296 C298 1.378 . S
C296 C300 1.350 . S
C297 C300 1.463 . S
C297 C302 1.350 . S
C297 N305 1.427 . S
C298 H289 0.930 . S
C298 C296 1.378 . S
C298 C299 1.367 . S
C299 C298 1.367 . S
C299 C301 1.433 . S
C300 C296 1.350 . S
C300 C297 1.463 . S
C300 N304 1.427 . S
C301 H291 0.929 . S
C301 C299 1.433 . S
C301 N304 1.384 . S
C302 H293 0.929 . S
C302 C294 1.378 . S
C302 C297 1.350 . S
C303 H290 0.929 . S
C303 C295 1.433 . S
C303 N305 1.384 . S
N304 C300 1.427 . S
N304 C301 1.384 . S
N305 C297 1.427 . S
N305 C303 1.384 . S
H306 C312 0.930 . S
H307 C316 0.930 1_545 S
H308 C321 0.929 . S
H309 C319 0.929 . S
H310 C314 0.929 . S
H311 C320 0.929 . S
C312 H306 0.930 . S
C312 C313 1.367 . S
C312 C320 1.378 . S
C313 C312 1.367 . S
C313 C321 1.433 . S
C314 H310 0.929 . S
C314 C316 1.378 . S
C314 C318 1.350 . S
C315 C318 1.463 . S
C315 C320 1.350 . S
C315 N323 1.427 . S
C316 H307 0.930 1_565 S
C316 C314 1.378 . S
C316 C317 1.367 . S
C317 C316 1.367 . S
C317 C319 1.433 . S
C318 C314 1.350 . S
C318 C315 1.463 . S
C318 N322 1.427 . S
C319 H309 0.929 . S
C319 C317 1.433 . S
C319 N322 1.384 . S
C320 H311 0.929 . S
C320 C312 1.378 . S
C320 C315 1.350 . S
C321 H308 0.929 . S
C321 C313 1.433 . S
C321 N323 1.384 . S
N322 C318 1.427 . S
N322 C319 1.384 . S
N323 C315 1.427 . S
N323 C321 1.384 . S
H324 C330 0.930 . S
H325 C334 0.930 1_554 S
H326 C339 0.929 . S
H327 C337 0.929 . S
H328 C332 0.929 . S
H329 C338 0.929 . S
C330 H324 0.930 . S
C330 C331 1.367 . S
C330 C338 1.378 . S
C331 C330 1.367 . S
C331 C339 1.433 . S
C332 H328 0.929 . S
C332 C334 1.378 . S
C332 C336 1.350 . S
C333 C336 1.463 . S
C333 C338 1.350 . S
C333 N341 1.427 . S
C334 H325 0.930 1_556 S
C334 C332 1.378 . S
C334 C335 1.367 . S
C335 C334 1.367 . S
C335 C337 1.433 . S
C336 C332 1.350 . S
C336 C333 1.463 . S
C336 N340 1.427 . S
C337 H327 0.929 . S
C337 C335 1.433 . S
C337 N340 1.384 . S
C338 H329 0.929 . S
C338 C330 1.378 . S
C338 C333 1.350 . S
C339 H326 0.929 . S
C339 C331 1.433 . S
C339 N341 1.384 . S
N340 C336 1.427 . S
N340 C337 1.384 . S
N341 C333 1.427 . S
N341 C339 1.384 . S
H342 C348 0.930 . S
H343 C352 0.930 . S
H344 C357 0.929 . S
H345 C355 0.929 . S
H346 C350 0.929 . S
H347 C356 0.929 . S
C348 H342 0.930 . S
C348 C349 1.367 . S
C348 C356 1.378 . S
C349 C348 1.367 . S
C349 C357 1.433 . S
C350 H346 0.929 . S
C350 C352 1.378 . S
C350 C354 1.350 . S
C351 C354 1.463 . S
C351 C356 1.350 . S
C351 N359 1.427 . S
C352 H343 0.930 . S
C352 C350 1.378 . S
C352 C353 1.367 . S
C353 C352 1.367 . S
C353 C355 1.433 . S
C354 C350 1.350 . S
C354 C351 1.463 . S
C354 N358 1.427 . S
C355 H345 0.929 . S
C355 C353 1.433 . S
C355 N358 1.384 . S
C356 H347 0.929 . S
C356 C348 1.378 . S
C356 C351 1.350 . S
C357 H344 0.929 . S
C357 C349 1.433 . S
C357 N359 1.384 . S
N358 C354 1.427 . S
N358 C355 1.384 . S
N359 C351 1.427 . S
N359 C357 1.384 . S
H360 C366 0.930 . S
H361 C370 0.930 . S
H362 C375 0.929 . S
H363 C373 0.929 1_556 S
H364 C368 0.929 . S
H365 C374 0.929 . S
C366 H360 0.930 . S
C366 C367 1.367 . S
C366 C374 1.378 . S
C367 C366 1.367 . S
C367 C375 1.433 . S
C368 H364 0.929 . S
C368 C370 1.378 . S
C368 C372 1.350 . S
C369 C372 1.463 . S
C369 C374 1.350 . S
C369 N377 1.427 . S
C370 H361 0.930 . S
C370 C368 1.378 . S
C370 C371 1.367 . S
C371 C370 1.367 . S
C371 C373 1.433 . S
C372 C368 1.350 . S
C372 C369 1.463 . S
C372 N376 1.427 . S
C373 H363 0.929 1_554 S
C373 C371 1.433 . S
C373 N376 1.384 . S
C374 H365 0.929 . S
C374 C366 1.378 . S
C374 C369 1.350 . S
C375 H362 0.929 . S
C375 C367 1.433 . S
C375 N377 1.384 . S
N376 C372 1.427 . S
N376 C373 1.384 . S
N377 C369 1.427 . S
N377 C375 1.384 . S
H378 C384 0.930 . S
H379 C388 0.930 . S
H380 C393 0.929 . S
H381 C391 0.950 . S
H382 C386 0.929 . S
H383 C392 0.929 . S
C384 H378 0.930 . S
C384 C385 1.367 . S
C384 C392 1.378 . S
C385 C384 1.367 . S
C385 C393 1.433 . S
C386 H382 0.929 . S
C386 C388 1.378 . S
C386 C390 1.350 . S
C387 C390 1.463 . S
C387 C392 1.350 . S
C387 N395 1.427 . S
C388 H379 0.930 . S
C388 C386 1.378 . S
C388 C389 1.367 . S
C389 C388 1.367 . S
C389 C391 1.419 1_556 S
C390 C386 1.350 . S
C390 C387 1.463 . S
C390 N394 1.427 . S
C391 H381 0.950 . S
C391 C389 1.419 1_554 S
C391 N394 1.377 1_554 S
C392 H383 0.929 . S
C392 C384 1.378 . S
C392 C387 1.350 . S
C393 H380 0.929 . S
C393 C385 1.433 . S
C393 N395 1.384 . S
N394 C390 1.427 . S
N394 C391 1.377 1_556 S
N395 C387 1.427 . S
N395 C393 1.384 . S
H396 C402 0.930 . S
H397 C406 0.930 1_455 S
H398 C411 0.929 . S
H399 C409 0.929 . S
H400 C404 0.929 . S
H401 C410 0.929 . S
C402 H396 0.930 . S
C402 C403 1.367 . S
C402 C410 1.378 . S
C403 C402 1.367 . S
C403 C411 1.433 . S
C404 H400 0.929 . S
C404 C406 1.378 . S
C404 C408 1.350 . S
C405 C408 1.463 . S
C405 C410 1.350 . S
C405 N413 1.427 . S
C406 H397 0.930 1_655 S
C406 C404 1.378 . S
C406 C407 1.367 . S
C407 C406 1.367 . S
C407 C409 1.433 . S
C408 C404 1.350 . S
C408 C405 1.463 . S
C408 N412 1.427 . S
C409 H399 0.929 . S
C409 C407 1.433 . S
C409 N412 1.384 . S
C410 H401 0.929 . S
C410 C402 1.378 . S
C410 C405 1.350 . S
C411 H398 0.929 . S
C411 C403 1.433 . S
C411 N413 1.384 . S
N412 C408 1.427 . S
N412 C409 1.384 . S
N413 C405 1.427 . S
N413 C411 1.384 . S
H414 C420 0.930 . S
H415 C424 0.930 . S
H416 C429 0.929 . S
H417 C427 0.929 . S
H418 C422 0.929 . S
H419 C428 0.929 . S
C420 H414 0.930 . S
C420 C421 1.367 . S
C420 C428 1.378 . S
C421 C420 1.367 . S
C421 C429 1.433 . S
C422 H418 0.929 . S
C422 C424 1.378 . S
C422 C426 1.350 . S
C423 C426 1.463 . S
C423 C428 1.350 . S
C423 N431 1.427 . S
C424 H415 0.930 . S
C424 C422 1.378 . S
C424 C425 1.367 . S
C425 C424 1.367 . S
C425 C427 1.433 . S
C426 C422 1.350 . S
C426 C423 1.463 . S
C426 N430 1.427 . S
C427 H417 0.929 . S
C427 C425 1.433 . S
C427 N430 1.384 . S
C428 H419 0.929 . S
C428 C420 1.378 . S
C428 C423 1.350 . S
C429 H416 0.929 . S
C429 C421 1.433 . S
C429 N431 1.384 . S
N430 C426 1.427 . S
N430 C427 1.384 . S
N431 C423 1.427 . S
N431 C429 1.384 . S
H432 C438 0.930 . S
H433 C442 0.930 . S
H434 C447 0.929 . S
H435 C445 0.927 . S
H436 C440 0.929 . S
H437 C446 0.929 1_545 S
C438 H432 0.930 . S
C438 C439 1.367 . S
C438 C446 1.378 . S
C439 C438 1.367 . S
C439 C447 1.433 . S
C440 H436 0.929 . S
C440 C442 1.378 . S
C440 C444 1.350 . S
C441 C444 1.463 . S
C441 C446 1.350 . S
C441 N449 1.427 . S
C442 H433 0.930 . S
C442 C440 1.378 . S
C442 C443 1.367 . S
C443 C442 1.367 . S
C443 C445 1.435 1_565 S
C444 C440 1.350 . S
C444 C441 1.463 . S
C444 N448 1.427 . S
C445 H435 0.927 . S
C445 C443 1.435 1_545 S
C445 N448 1.384 1_545 S
C446 H437 0.929 1_565 S
C446 C438 1.378 . S
C446 C441 1.350 . S
C447 H434 0.929 . S
C447 C439 1.433 . S
C447 N449 1.384 . S
N448 C444 1.427 . S
N448 C445 1.384 1_565 S
N449 C441 1.427 . S
N449 C447 1.384 . S
H450 C456 0.930 . S
H451 C460 0.930 . S
H452 C465 0.929 . S
H453 C463 0.929 . S
H454 C458 0.929 . S
H455 C464 0.929 . S
C456 H450 0.930 . S
C456 C457 1.367 . S
C456 C464 1.378 . S
C457 C456 1.367 . S
C457 C465 1.433 . S
C458 H454 0.929 . S
C458 C460 1.378 . S
C458 C462 1.350 . S
C459 C462 1.463 . S
C459 C464 1.350 . S
C459 N467 1.427 . S
C460 H451 0.930 . S
C460 C458 1.378 . S
C460 C461 1.367 . S
C461 C460 1.367 . S
C461 C463 1.433 . S
C462 C458 1.350 . S
C462 C459 1.463 . S
C462 N466 1.427 . S
C463 H453 0.929 . S
C463 C461 1.433 . S
C463 N466 1.384 . S
C464 H455 0.929 . S
C464 C456 1.378 . S
C464 C459 1.350 . S
C465 H452 0.929 . S
C465 C457 1.433 . S
C465 N467 1.384 . S
N466 C462 1.427 . S
N466 C463 1.384 . S
N467 C459 1.427 . S
N467 C465 1.384 . S
H468 C474 0.930 . S
H469 C478 0.930 . S
H470 C483 0.929 . S
H471 C481 0.929 . S
H472 C476 0.929 . S
H473 C482 0.929 . S
C474 H468 0.930 . S
C474 C475 1.367 . S
C474 C482 1.378 . S
C475 C474 1.367 . S
C475 C483 1.433 . S
C476 H472 0.929 . S
C476 C478 1.378 . S
C476 C480 1.350 . S
C477 C480 1.463 . S
C477 C482 1.350 . S
C477 N485 1.427 . S
C478 H469 0.930 . S
C478 C476 1.378 . S
C478 C479 1.367 . S
C479 C478 1.367 . S
C479 C481 1.433 . S
C480 C476 1.350 . S
C480 C477 1.463 . S
C480 N484 1.427 . S
C481 H471 0.929 . S
C481 C479 1.433 . S
C481 N484 1.384 . S
C482 H473 0.929 . S
C482 C474 1.378 . S
C482 C477 1.350 . S
C483 H470 0.929 . S
C483 C475 1.433 . S
C483 N485 1.384 . S
N484 C480 1.427 . S
N484 C481 1.384 . S
N485 C477 1.427 . S
N485 C483 1.384 . S
H486 C492 0.930 . S
H487 C496 0.930 . S
H488 C501 0.929 . S
H489 C499 0.929 . S
H490 C494 0.929 . S
H491 C500 0.929 . S
C492 H486 0.930 . S
C492 C493 1.367 . S
C492 C500 1.378 . S
C493 C492 1.367 . S
C493 C501 1.433 . S
C494 H490 0.929 . S
C494 C496 1.378 . S
C494 C498 1.350 . S
C495 C498 1.463 . S
C495 C500 1.350 . S
C495 N503 1.427 . S
C496 H487 0.930 . S
C496 C494 1.378 . S
C496 C497 1.367 . S
C497 C496 1.367 . S
C497 C499 1.433 . S
C498 C494 1.350 . S
C498 C495 1.463 . S
C498 N502 1.427 . S
C499 H489 0.929 . S
C499 C497 1.433 . S
C499 N502 1.384 . S
C500 H491 0.929 . S
C500 C492 1.378 . S
C500 C495 1.350 . S
C501 H488 0.929 . S
C501 C493 1.433 . S
C501 N503 1.384 . S
N502 C498 1.427 . S
N502 C499 1.384 . S
N503 C495 1.427 . S
N503 C501 1.384 . S
H504 C510 0.930 . S
H505 C514 0.930 . S
H506 C519 0.929 1_545 S
H507 C517 0.929 . S
H508 C512 0.929 . S
H509 C518 0.929 . S
C510 H504 0.930 . S
C510 C511 1.367 . S
C510 C518 1.378 . S
C511 C510 1.367 . S
C511 C519 1.433 . S
C512 H508 0.929 . S
C512 C514 1.378 . S
C512 C516 1.350 1_545 S
C513 C516 1.463 . S
C513 C518 1.350 . S
C513 N521 1.427 . S
C514 H505 0.930 . S
C514 C512 1.378 . S
C514 C515 1.367 1_545 S
C515 C514 1.367 1_565 S
C515 C517 1.433 . S
C516 C512 1.350 1_565 S
C516 C513 1.463 . S
C516 N520 1.427 . S
C517 H507 0.929 . S
C517 C515 1.433 . S
C517 N520 1.384 . S
C518 H509 0.929 . S
C518 C510 1.378 . S
C518 C513 1.350 . S
C519 H506 0.929 1_565 S
C519 C511 1.433 . S
C519 N521 1.384 . S
N520 C516 1.427 . S
N520 C517 1.384 . S
N521 C513 1.427 . S
N521 C519 1.384 . S
H522 C528 0.930 . S
H523 C532 0.930 . S
H524 C537 0.929 . S
H525 C535 0.929 . S
H526 C530 0.929 . S
H527 C536 0.929 . S
C528 H522 0.930 . S
C528 C529 1.367 . S
C528 C536 1.378 . S
C529 C528 1.367 . S
C529 C537 1.433 . S
C530 H526 0.929 . S
C530 C532 1.378 . S
C530 C534 1.350 . S
C531 C534 1.463 . S
C531 C536 1.350 . S
C531 N539 1.427 . S
C532 H523 0.930 . S
C532 C530 1.378 . S
C532 C533 1.367 . S
C533 C532 1.367 . S
C533 C535 1.433 . S
C534 C530 1.350 . S
C534 C531 1.463 . S
C534 N538 1.427 . S
C535 H525 0.929 . S
C535 C533 1.433 . S
C535 N538 1.384 . S
C536 H527 0.929 . S
C536 C528 1.378 . S
C536 C531 1.350 . S
C537 H524 0.929 . S
C537 C529 1.433 . S
C537 N539 1.384 . S
N538 C534 1.427 . S
N538 C535 1.384 . S
N539 C531 1.427 . S
N539 C537 1.384 . S
H540 C546 0.930 . S
H541 C550 0.930 . S
H542 C555 0.929 . S
H543 C553 0.929 . S
H544 C548 0.929 . S
H545 C554 0.929 . S
C546 H540 0.930 . S
C546 C547 1.367 . S
C546 C554 1.378 . S
C547 C546 1.367 . S
C547 C555 1.433 . S
C548 H544 0.929 . S
C548 C550 1.378 . S
C548 C552 1.350 . S
C549 C552 1.463 . S
C549 C554 1.350 . S
C549 N557 1.427 . S
C550 H541 0.930 . S
C550 C548 1.378 . S
C550 C551 1.367 . S
C551 C550 1.367 . S
C551 C553 1.433 . S
C552 C548 1.350 . S
C552 C549 1.463 . S
C552 N556 1.427 . S
C553 H543 0.929 . S
C553 C551 1.433 . S
C553 N556 1.384 . S
C554 H545 0.929 . S
C554 C546 1.378 . S
C554 C549 1.350 . S
C555 H542 0.929 . S
C555 C547 1.433 . S
C555 N557 1.384 . S
N556 C552 1.427 . S
N556 C553 1.384 . S
N557 C549 1.427 . S
N557 C555 1.384 . S
H558 C564 0.930 . S
H559 C568 0.930 . S
H560 C573 0.929 . S
H561 C571 0.929 . S
H562 C566 0.929 . S
H563 C572 0.929 . S
C564 H558 0.930 . S
C564 C565 1.367 . S
C564 C572 1.378 . S
C565 C564 1.367 . S
C565 C573 1.433 . S
C566 H562 0.929 . S
C566 C568 1.378 . S
C566 C570 1.350 . S
C567 C570 1.463 . S
C567 C572 1.350 . S
C567 N575 1.427 . S
C568 H559 0.930 . S
C568 C566 1.378 . S
C568 C569 1.367 . S
C569 C568 1.367 . S
C569 C571 1.433 . S
C570 C566 1.350 . S
C570 C567 1.463 . S
C570 N574 1.427 . S
C571 H561 0.929 . S
C571 C569 1.433 . S
C571 N574 1.384 . S
C572 H563 0.929 . S
C572 C564 1.378 . S
C572 C567 1.350 . S
C573 H560 0.929 . S
C573 C565 1.433 . S
C573 N575 1.384 . S
N574 C570 1.427 . S
N574 C571 1.384 . S
N575 C567 1.427 . S
N575 C573 1.384 . S
H576 C582 0.930 . S
H577 C586 0.930 . S
H578 C591 0.929 . S
H579 C589 0.929 . S
H580 C584 0.929 . S
H581 C590 0.929 . S
C582 H576 0.930 . S
C582 C583 1.367 . S
C582 C590 1.378 . S
C583 C582 1.367 . S
C583 C591 1.433 . S
C584 H580 0.929 . S
C584 C586 1.378 . S
C584 C588 1.350 1_455 S
C585 C588 1.463 . S
C585 C590 1.350 . S
C585 N593 1.427 . S
C586 H577 0.930 . S
C586 C584 1.378 . S
C586 C587 1.367 1_455 S
C587 C586 1.367 1_655 S
C587 C589 1.433 . S
C588 C584 1.350 1_655 S
C588 C585 1.463 . S
C588 N592 1.427 . S
C589 H579 0.929 . S
C589 C587 1.433 . S
C589 N592 1.384 . S
C590 H581 0.929 . S
C590 C582 1.378 . S
C590 C585 1.350 . S
C591 H578 0.929 . S
C591 C583 1.433 . S
C591 N593 1.384 . S
N592 C588 1.427 . S
N592 C589 1.384 . S
N593 C585 1.427 . S
N593 C591 1.384 . S
H594 C600 0.930 . S
H595 C604 0.930 . S
H596 C609 0.929 . S
H597 C607 0.929 . S
H598 C602 0.929 . S
H599 C608 0.929 . S
C600 H594 0.930 . S
C600 C601 1.367 . S
C600 C608 1.378 . S
C601 C600 1.367 . S
C601 C609 1.433 . S
C602 H598 0.929 . S
C602 C604 1.378 . S
C602 C606 1.350 . S
C603 C606 1.463 . S
C603 C608 1.350 . S
C603 N611 1.427 . S
C604 H595 0.930 . S
C604 C602 1.378 . S
C604 C605 1.367 . S
C605 C604 1.367 . S
C605 C607 1.433 . S
C606 C602 1.350 . S
C606 C603 1.463 . S
C606 N610 1.427 . S
C607 H597 0.929 . S
C607 C605 1.433 . S
C607 N610 1.384 . S
C608 H599 0.929 . S
C608 C600 1.378 . S
C608 C603 1.350 . S
C609 H596 0.929 . S
C609 C601 1.433 . S
C609 N611 1.384 . S
N610 C606 1.427 . S
N610 C607 1.384 . S
N611 C603 1.427 . S
N611 C609 1.384 . S
H612 C618 0.930 . S
H613 C622 0.930 . S
H614 C627 0.929 . S
H615 C625 0.929 . S
H616 C620 0.929 . S
H617 C626 0.929 . S
C618 H612 0.930 . S
C618 C619 1.367 . S
C618 C626 1.378 . S
C619 C618 1.367 . S
C619 C627 1.433 . S
C620 H616 0.929 . S
C620 C622 1.378 . S
C620 C624 1.350 . S
C621 C624 1.463 . S
C621 C626 1.350 . S
C621 N629 1.427 . S
C622 H613 0.930 . S
C622 C620 1.378 . S
C622 C623 1.367 . S
C623 C622 1.367 . S
C623 C625 1.433 . S
C624 C620 1.350 . S
C624 C621 1.463 . S
C624 N628 1.427 . S
C625 H615 0.929 . S
C625 C623 1.433 . S
C625 N628 1.384 . S
C626 H617 0.929 . S
C626 C618 1.378 . S
C626 C621 1.350 . S
C627 H614 0.929 . S
C627 C619 1.433 . S
C627 N629 1.384 . S
N628 C624 1.427 . S
N628 C625 1.384 . S
N629 C621 1.427 . S
N629 C627 1.384 . S
H630 C636 0.930 . S
H631 C640 0.930 . S
H632 C645 0.929 . S
H633 C643 0.929 . S
H634 C638 0.929 . S
H635 C644 0.929 . S
C636 H630 0.930 . S
C636 C637 1.367 . S
C636 C644 1.378 . S
C637 C636 1.367 . S
C637 C645 1.433 . S
C638 H634 0.929 . S
C638 C640 1.378 . S
C638 C642 1.350 . S
C639 C642 1.463 . S
C639 C644 1.350 . S
C639 N647 1.427 . S
C640 H631 0.930 . S
C640 C638 1.378 . S
C640 C641 1.367 . S
C641 C640 1.367 . S
C641 C643 1.433 . S
C642 C638 1.350 . S
C642 C639 1.463 . S
C642 N646 1.427 . S
C643 H633 0.929 . S
C643 C641 1.433 . S
C643 N646 1.384 . S
C644 H635 0.929 . S
C644 C636 1.378 . S
C644 C639 1.350 . S
C645 H632 0.929 . S
C645 C637 1.433 . S
C645 N647 1.384 . S
N646 C642 1.427 . S
N646 C643 1.384 . S
N647 C639 1.427 . S
N647 C645 1.384 . S
C223 C6 2.318 . S
C227 C112 2.329 . S
C241 C18 1.356 . S
C245 N132 1.353 . S
C263 C166 2.011 . S
C259 C28 1.984 . S
C277 C40 0.865 . S
C281 N200 0.847 . S
C299 C153 2.569 . S
C295 C9 2.560 . S
C317 N110 1.091 . S
C313 C16 1.124 . S
C335 C187 2.015 1_556 S
C331 C30 2.012 . S
C353 N162 0.805 . S
C349 C42 0.812 . S
C367 C4 1.777 . S
C371 C202 1.787 . S
C389 C136 1.723 . S
C385 C33 1.716 . S
C403 C45 1.113 . S
C407 C97 1.126 . S
C421 C21 1.679 . S
C425 C183 1.698 . S
C443 C123 2.377 . S
C439 C57 2.372 . S
C457 C66 1.349 . S
C461 N140 1.344 . S
C475 C76 2.038 . S
C479 C157 2.054 . S
C493 C88 0.833 . S
C497 N192 0.826 . S
C511 C54 2.526 . S
C515 C142 2.527 1_565 S
C533 N102 1.144 . S
C529 C64 1.162 . S
C551 C196 1.912 . S
C547 C78 1.892 . S
C569 N170 0.826 . S
C565 C93 0.838 . S
C583 C52 1.714 . S
C587 C213 1.740 . S
C605 C127 1.730 . S
C601 C81 1.715 . S
C623 C106 1.127 . S
C619 C90 1.125 . S
C637 C69 1.727 . S
C641 C172 1.740 . S
