# Generated by pormake.
# Topology pyr, (3,6)-cn, num edge types: 1
# Building blocks:
#     Node 0, Type 0, BuildingBlock: BELTOD_clean_linker_0, # of connection points: 3
#     Node 1, Type 0, BuildingBlock: BELTOD_clean_linker_0, # of connection points: 3
#     Node 2, Type 0, BuildingBlock: BELTOD_clean_linker_0, # of connection points: 3
#     Node 3, Type 0, BuildingBlock: BELTOD_clean_linker_0, # of connection points: 3
#     Node 4, Type 0, BuildingBlock: BELTOD_clean_linker_0, # of connection points: 3
#     Node 5, Type 0, BuildingBlock: BELTOD_clean_linker_0, # of connection points: 3
#     Node 6, Type 0, BuildingBlock: BELTOD_clean_linker_0, # of connection points: 3
#     Node 7, Type 0, BuildingBlock: BELTOD_clean_linker_0, # of connection points: 3
#     Node 8, Type 1, BuildingBlock: JUFBIX_clean_sbu_0, # of connection points: 6
#     Node 9, Type 1, BuildingBlock: JUFBIX_clean_sbu_0, # of connection points: 6
#     Node 10, Type 1, BuildingBlock: JUFBIX_clean_sbu_0, # of connection points: 6
#     Node 11, Type 1, BuildingBlock: JUFBIX_clean_sbu_0, # of connection points: 6
#     Edge 12, Type (0, 1), BuildingBlock: CIFDUS_clean_linker_0, # of connection points: 2
#     Edge 13, Type (0, 1), BuildingBlock: CIFDUS_clean_linker_0, # of connection points: 2
#     Edge 14, Type (0, 1), BuildingBlock: CIFDUS_clean_linker_0, # of connection points: 2
#     Edge 15, Type (0, 1), BuildingBlock: CIFDUS_clean_linker_0, # of connection points: 2
#     Edge 16, Type (0, 1), BuildingBlock: CIFDUS_clean_linker_0, # of connection points: 2
#     Edge 17, Type (0, 1), BuildingBlock: CIFDUS_clean_linker_0, # of connection points: 2
#     Edge 18, Type (0, 1), BuildingBlock: CIFDUS_clean_linker_0, # of connection points: 2
#     Edge 19, Type (0, 1), BuildingBlock: CIFDUS_clean_linker_0, # of connection points: 2
#     Edge 20, Type (0, 1), BuildingBlock: CIFDUS_clean_linker_0, # of connection points: 2
#     Edge 21, Type (0, 1), BuildingBlock: CIFDUS_clean_linker_0, # of connection points: 2
#     Edge 22, Type (0, 1), BuildingBlock: CIFDUS_clean_linker_0, # of connection points: 2
#     Edge 23, Type (0, 1), BuildingBlock: CIFDUS_clean_linker_0, # of connection points: 2
#     Edge 24, Type (0, 1), BuildingBlock: CIFDUS_clean_linker_0, # of connection points: 2
#     Edge 25, Type (0, 1), BuildingBlock: CIFDUS_clean_linker_0, # of connection points: 2
#     Edge 26, Type (0, 1), BuildingBlock: CIFDUS_clean_linker_0, # of connection points: 2
#     Edge 27, Type (0, 1), BuildingBlock: CIFDUS_clean_linker_0, # of connection points: 2
#     Edge 28, Type (0, 1), BuildingBlock: CIFDUS_clean_linker_0, # of connection points: 2
#     Edge 29, Type (0, 1), BuildingBlock: CIFDUS_clean_linker_0, # of connection points: 2
#     Edge 30, Type (0, 1), BuildingBlock: CIFDUS_clean_linker_0, # of connection points: 2
#     Edge 31, Type (0, 1), BuildingBlock: CIFDUS_clean_linker_0, # of connection points: 2
#     Edge 32, Type (0, 1), BuildingBlock: CIFDUS_clean_linker_0, # of connection points: 2
#     Edge 33, Type (0, 1), BuildingBlock: CIFDUS_clean_linker_0, # of connection points: 2
#     Edge 34, Type (0, 1), BuildingBlock: CIFDUS_clean_linker_0, # of connection points: 2
#     Edge 35, Type (0, 1), BuildingBlock: CIFDUS_clean_linker_0, # of connection points: 2
# Relax obj value: 0.062
# Max RMSD: 0.096
# Mean RMSD: 0.042
data_MOF--net-pyr--node1-JUFBIX_clean_sbu_0--node2-BELTOD_clean_linker_0--edge1-CIFDUS_clean_linker_0
_symmetry_space_group_name_H-M    P1
_symmetry_Int_Tables_number       1
_symmetry_cell_setting            triclinic
loop_
_symmetry_equiv_pos_as_xyz
'x, y, z'
_cell_length_a     38.190535
_cell_length_b     36.455178
_cell_length_c     37.878066
_cell_angle_alpha  83.571149
_cell_angle_beta   90.119795
_cell_angle_gamma 91.310731
loop_
_atom_site_label
_atom_site_type_symbol
_atom_site_fract_x
_atom_site_fract_y
_atom_site_fract_z
_atom_type_partial_charge
P0 P 0.2211 0.18538 0.20371 0.0
H1 H 0.28629 0.2114 0.16893 0.0
H2 H 0.33227 0.18084 0.13935 0.0
H3 H 0.26963 0.08024 0.14796 0.0
H4 H 0.22342 0.11108 0.17833 0.0
H5 H 0.15593 0.21838 0.22371 0.0
H6 H 0.11927 0.26573 0.19466 0.0
H7 H 0.18664 0.27444 0.1023 0.0
H8 H 0.22117 0.22365 0.13056 0.0
H9 H 0.24943 0.1448 0.26744 0.0
H10 H 0.14889 0.15315 0.21587 0.0
O11 O 0.24554 0.2137 0.22584 0.0
H12 H 0.22249 0.11079 0.31975 0.0
H13 H 0.12098 0.1222 0.26929 0.0
C14 C 0.25159 0.16343 0.17643 0.0
C15 C 0.28214 0.18287 0.16424 0.0
C16 C 0.3085 0.16534 0.14733 0.0
C17 C 0.3048 0.12799 0.14166 0.0
C18 C 0.27323 0.10905 0.15192 0.0
C19 C 0.24685 0.12662 0.16933 0.0
C20 C 0.1905 0.21581 0.17888 0.0
C21 C 0.1619 0.22893 0.19651 0.0
C22 C 0.1414 0.25717 0.18004 0.0
C23 C 0.15001 0.2749 0.14606 0.0
C24 C 0.17858 0.26142 0.12817 0.0
C25 C 0.19853 0.23221 0.14441 0.0
C26 C 0.2011 0.1529 0.23816 0.0
C27 C 0.22144 0.1393 0.26737 0.0
C28 C 0.20577 0.12025 0.29764 0.0
C29 C 0.16911 0.11477 0.29981 0.0
C30 C 0.14916 0.1259 0.26919 0.0
C31 C 0.1651 0.14418 0.23851 0.0
P32 P 0.44585 0.91452 0.58075 0.0
H33 H 0.50205 0.9429 0.62439 0.0
H34 H 0.50643 0.94793 0.68836 0.0
H35 H 0.39937 0.9078 0.70184 0.0
H36 H 0.39576 0.90147 0.63908 0.0
H37 H 0.42532 0.86628 0.52702 0.0
H38 H 0.42957 0.79956 0.52495 0.0
H39 H 0.48573 0.79016 0.6245 0.0
H40 H 0.48115 0.85649 0.62671 0.0
H41 H 0.41849 0.98462 0.54775 0.0
H42 H 0.37848 0.87474 0.58191 0.0
O43 O 0.4766 0.93942 0.55703 0.0
H44 H 0.35831 0.00556 0.53673 0.0
H45 H 0.31886 0.89553 0.57118 0.0
C46 C 0.44836 0.92251 0.62676 0.0
C47 C 0.47947 0.93562 0.64117 0.0
C48 C 0.48192 0.93851 0.67769 0.0
C49 C 0.45332 0.92803 0.70025 0.0
C50 C 0.42212 0.91549 0.68541 0.0
C51 C 0.41983 0.91238 0.6492 0.0
C52 C 0.45202 0.8662 0.57749 0.0
C53 C 0.43844 0.84982 0.54844 0.0
C54 C 0.44072 0.81175 0.54735 0.0
C55 C 0.45751 0.78973 0.57484 0.0
C56 C 0.47251 0.80651 0.60306 0.0
C57 C 0.4698 0.84445 0.60435 0.0
C58 C 0.40301 0.92801 0.56506 0.0
C59 C 0.39692 0.9648 0.55186 0.0
C60 C 0.36265 0.97673 0.54561 0.0
C61 C 0.33418 0.95209 0.55325 0.0
C62 C 0.34046 0.915 0.56513 0.0
C63 C 0.37457 0.90306 0.57095 0.0
P64 P 0.71029 0.32736 0.86136 0.0
H65 H 0.7407 0.30756 0.93207 0.0
H66 H 0.78615 0.33698 0.96551 0.0
H67 H 0.79038 0.4298 0.88409 0.0
H68 H 0.74435 0.40058 0.85106 0.0
H69 H 0.68512 0.25538 0.84489 0.0
H70 H 0.6496 0.20637 0.87719 0.0
H71 H 0.6362 0.27411 0.96256 0.0
H72 H 0.67223 0.32329 0.92985 0.0
H73 H 0.72243 0.35872 0.7879 0.0
H74 H 0.64193 0.36241 0.86691 0.0
O75 O 0.73764 0.305 0.83741 0.0
H76 H 0.68632 0.3942 0.74404 0.0
H77 H 0.60573 0.39908 0.82325 0.0
C78 C 0.73807 0.3524 0.88959 0.0
C79 C 0.75038 0.33485 0.92199 0.0
C80 C 0.77661 0.35159 0.94102 0.0
C81 C 0.79186 0.38574 0.92747 0.0
C82 C 0.77922 0.40345 0.89519 0.0
C83 C 0.75261 0.38692 0.87646 0.0
C84 C 0.68216 0.2926 0.88538 0.0
C85 C 0.6746 0.25977 0.87057 0.0
C86 C 0.65397 0.23182 0.88898 0.0
C87 C 0.64014 0.23614 0.92262 0.0
C88 C 0.64689 0.26964 0.93697 0.0
C89 C 0.66743 0.29778 0.91831 0.0
C90 C 0.68465 0.35731 0.83055 0.0
C91 C 0.69705 0.36751 0.79595 0.0
C92 C 0.6764 0.38818 0.77087 0.0
C93 C 0.64288 0.39949 0.77988 0.0
C94 C 0.6311 0.39036 0.81511 0.0
C95 C 0.65185 0.36955 0.84021 0.0
P96 P 0.91335 0.66904 0.41745 0.0
H97 H 0.96696 0.72323 0.39317 0.0
H98 H 0.99832 0.76828 0.42508 0.0
H99 H 0.96617 0.70805 0.52488 0.0
H100 H 0.93504 0.66292 0.4928 0.0
H101 H 0.8847 0.66641 0.3469 0.0
H102 H 0.90102 0.63334 0.29735 0.0
H103 H 0.99075 0.58987 0.35638 0.0
H104 H 0.97396 0.62333 0.40644 0.0
H105 H 0.8682 0.67933 0.47677 0.0
H106 H 0.89816 0.58888 0.41974 0.0
O107 O 0.88737 0.70337 0.40193 0.0
H108 H 0.8221 0.64048 0.50704 0.0
H109 H 0.85175 0.55008 0.44967 0.0
C110 C 0.94804 0.69028 0.44057 0.0
C111 C 0.96801 0.71876 0.42192 0.0
C112 C 0.98602 0.74449 0.44024 0.0
C113 C 0.98402 0.74208 0.47748 0.0
C114 C 0.96762 0.71086 0.49614 0.0
C115 C 0.94973 0.68507 0.47776 0.0
C116 C 0.92861 0.64794 0.37994 0.0
C117 C 0.9083 0.65042 0.349 0.0
C118 C 0.91767 0.63148 0.32064 0.0
C119 C 0.94734 0.60928 0.32286 0.0
C120 C 0.96774 0.60679 0.35399 0.0
C121 C 0.9584 0.62606 0.3824 0.0
C122 C 0.88641 0.63717 0.44582 0.0
C123 C 0.86558 0.65077 0.4716 0.0
C124 C 0.83938 0.62845 0.48906 0.0
C125 C 0.8333 0.59231 0.48055 0.0
C126 C 0.85588 0.57789 0.45659 0.0
C127 C 0.88236 0.60016 0.4394 0.0
P128 P 0.84998 0.86814 0.87945 0.0
H129 H 0.80741 0.84262 0.94138 0.0
H130 H 0.74803 0.85574 0.95924 0.0
H131 H 0.7313 0.91748 0.85666 0.0
H132 H 0.79022 0.90291 0.83859 0.0
H133 H 0.90386 0.8438 0.93187 0.0
H134 H 0.92908 0.78393 0.95087 0.0
H135 H 0.85786 0.73234 0.88175 0.0
H136 H 0.83205 0.79269 0.86317 0.0
H137 H 0.8459 0.93739 0.83204 0.0
H138 H 0.88853 0.82952 0.82707 0.0
O139 O 0.86945 0.89869 0.90317 0.0
H140 H 0.87336 0.95901 0.77481 0.0
H141 H 0.91618 0.85111 0.77058 0.0
C142 C 0.80348 0.8714 0.88848 0.0
C143 C 0.79068 0.85819 0.92236 0.0
C144 C 0.75674 0.86626 0.93277 0.0
C145 C 0.73468 0.8882 0.90968 0.0
C146 C 0.7472 0.9003 0.87521 0.0
C147 C 0.78119 0.89207 0.86479 0.0
C148 C 0.86597 0.82287 0.89601 0.0
C149 C 0.89319 0.81967 0.92108 0.0
C150 C 0.90764 0.7853 0.93204 0.0
C151 C 0.89559 0.75334 0.91778 0.0
C152 C 0.8679 0.75649 0.89305 0.0
C153 C 0.85299 0.79088 0.88257 0.0
C154 C 0.86419 0.88147 0.83387 0.0
C155 C 0.86017 0.91797 0.81826 0.0
C156 C 0.8761 0.93042 0.78557 0.0
C157 C 0.89713 0.90684 0.76815 0.0
C158 C 0.90039 0.87008 0.78339 0.0
C159 C 0.88414 0.85756 0.81578 0.0
P160 P 0.66406 0.24516 0.34525 0.0
H161 H 0.68432 0.30928 0.3785 0.0
H162 H 0.65958 0.33962 0.42634 0.0
H163 H 0.57422 0.25916 0.43651 0.0
H164 H 0.5991 0.22908 0.38764 0.0
H165 H 0.73575 0.23826 0.32015 0.0
H166 H 0.78571 0.20331 0.34546 0.0
H167 H 0.72354 0.16317 0.43733 0.0
H168 H 0.67403 0.19919 0.41266 0.0
H169 H 0.63181 0.24724 0.27511 0.0
H170 H 0.63641 0.171 0.37063 0.0
O171 O 0.67804 0.27804 0.31388 0.0
H172 H 0.60571 0.19888 0.24338 0.0
H173 H 0.61013 0.12245 0.33901 0.0
C174 C 0.64326 0.2674 0.37922 0.0
C175 C 0.66014 0.29828 0.39082 0.0
C176 C 0.64619 0.31528 0.41853 0.0
C177 C 0.61516 0.30148 0.43554 0.0
C178 C 0.59813 0.27041 0.42383 0.0
C179 C 0.61227 0.25328 0.39591 0.0
C180 C 0.70132 0.22144 0.36465 0.0
C181 C 0.73301 0.2224 0.34596 0.0
C182 C 0.76147 0.20249 0.36037 0.0
C183 C 0.75824 0.18071 0.39324 0.0
C184 C 0.72648 0.17975 0.41189 0.0
C185 C 0.6983 0.20028 0.39782 0.0
C186 C 0.63679 0.21252 0.32502 0.0
C187 C 0.62651 0.22034 0.28951 0.0
C188 C 0.61138 0.19267 0.27141 0.0
C189 C 0.60635 0.15672 0.2886 0.0
C190 C 0.61429 0.14975 0.32494 0.0
C191 C 0.62929 0.17752 0.34305 0.0
P192 P 0.35569 0.62565 0.19312 0.0
H193 H 0.32876 0.6075 0.12548 0.0
H194 H 0.27043 0.59472 0.10372 0.0
H195 H 0.22622 0.62114 0.2026 0.0
H196 H 0.28553 0.63231 0.22483 0.0
H197 H 0.42069 0.65188 0.15729 0.0
H198 H 0.44426 0.71314 0.1364 0.0
H199 H 0.35402 0.76247 0.17864 0.0
H200 H 0.32976 0.70049 0.19886 0.0
H201 H 0.36788 0.5547 0.23384 0.0
H202 H 0.35318 0.66661 0.25662 0.0
O203 O 0.37982 0.59632 0.17319 0.0
H204 H 0.3822 0.53647 0.29608 0.0
H205 H 0.36716 0.64825 0.31936 0.0
C206 C 0.31156 0.62013 0.17702 0.0
C207 C 0.30654 0.61058 0.14254 0.0
C208 C 0.27292 0.60366 0.12993 0.0
C209 C 0.24324 0.60679 0.15129 0.0
C210 C 0.24836 0.61778 0.18555 0.0
C211 C 0.28225 0.62442 0.19828 0.0
C212 C 0.37326 0.6715 0.17945 0.0
C213 C 0.40574 0.6757 0.16205 0.0
C214 C 0.41927 0.71079 0.15004 0.0
C215 C 0.40091 0.74254 0.15573 0.0
C216 C 0.36876 0.73843 0.174 0.0
C217 C 0.35488 0.70311 0.18551 0.0
C218 C 0.36026 0.61222 0.2403 0.0
C219 C 0.36738 0.57534 0.25227 0.0
C220 C 0.3756 0.5649 0.28788 0.0
C221 C 0.37628 0.59103 0.31249 0.0
C222 C 0.36688 0.62753 0.30096 0.0
C223 C 0.35902 0.63808 0.26507 0.0
P224 P 0.09305 0.35722 0.63616 0.0
H225 H 0.11336 0.33389 0.56803 0.0
H226 H 0.08396 0.29131 0.53187 0.0
H227 H 0.98914 0.29777 0.59241 0.0
H228 H 0.01851 0.34089 0.62826 0.0
H229 H 0.1602 0.35993 0.67093 0.0
H230 H 0.21516 0.39241 0.65552 0.0
H231 H 0.16965 0.44197 0.55748 0.0
H232 H 0.11418 0.40833 0.57307 0.0
H233 H 0.04796 0.33847 0.69763 0.0
H234 H 0.08459 0.4375 0.63425 0.0
O235 O 0.10385 0.3191 0.66214 0.0
H236 H 0.02641 0.37528 0.74242 0.0
H237 H 0.06248 0.4748 0.67883 0.0
C238 C 0.06804 0.34104 0.60058 0.0
C239 C 0.08568 0.32795 0.57224 0.0
C240 C 0.06884 0.30346 0.55156 0.0
C241 C 0.03436 0.29108 0.55954 0.0
C242 C 0.01574 0.30693 0.58574 0.0
C243 C 0.03251 0.33172 0.60614 0.0
C244 C 0.13346 0.381 0.62273 0.0
C245 C 0.16201 0.37749 0.64594 0.0
C246 C 0.19335 0.39654 0.63729 0.0
C247 C 0.19672 0.42008 0.60539 0.0
C248 C 0.1679 0.42386 0.58214 0.0
C249 C 0.1363 0.40465 0.59094 0.0
C250 C 0.06873 0.3852 0.66318 0.0
C251 C 0.05054 0.36827 0.69292 0.0
C252 C 0.03795 0.38944 0.71843 0.0
C253 C 0.04325 0.428 0.7145 0.0
C254 C 0.05862 0.44511 0.68294 0.0
C255 C 0.0712 0.42382 0.6574 0.0
Co256 Co 0.99128 0.01503 0.50998 0.0
C257 C 0.02333 0.94657 0.51654 0.0
Co258 Co 0.04067 0.01269 0.53979 0.0
C259 C 0.92414 0.03979 0.48287 0.0
C260 C 0.9398 0.99112 0.46097 0.0
N261 N 0.95004 0.01511 0.48391 0.0
N262 N 0.89837 0.03216 0.4603 0.0
C263 C 0.90792 1.00143 0.44658 0.0
H264 H 0.92413 0.06314 0.49816 0.0
H265 H 0.95483 0.96804 0.45439 0.0
C266 C 1.00891 0.08096 0.53436 0.0
N267 N 0.08142 0.01242 0.56594 0.0
C268 C 0.11343 1.00195 0.55664 0.0
C269 C 0.08525 0.02181 0.5992 0.0
N270 N 0.137 0.00414 0.58291 0.0
C271 C 0.1194 0.01653 0.6098 0.0
C272 C 0.05006 0.03336 0.46733 0.0
O273 O 0.98751 0.0665 0.51401 0.0
O274 O 0.0333 0.06182 0.54913 0.0
O275 O 0.06604 0.03061 0.49704 0.0
O276 O 0.01727 0.02641 0.46701 0.0
O277 O 0.04816 0.96336 0.53069 0.0
H278 H 0.06445 0.03152 0.61487 0.0
H279 H 0.1191 0.99191 0.53147 0.0
O280 O 0.99581 0.96376 0.50676 0.0
O281 O 0.96528 1.0035 0.55295 0.0
O282 O 0.01455 0.99464 0.58205 0.0
C283 C 0.98118 0.99389 0.58194 0.0
H284 H 0.89355 0.9883 0.42657 0.0
H285 H 0.13045 0.02139 0.63525 0.0
Co286 Co 0.49503 0.98602 0.99917 0.0
C287 C 0.48433 0.92712 0.05162 0.0
Co288 Co 0.52086 0.99422 0.04965 0.0
C289 C 0.48504 0.98172 0.92392 0.0
C290 C 0.43922 0.96563 0.95493 0.0
N291 N 0.47237 0.97865 0.9574 0.0
N292 N 0.46117 0.97056 0.90085 0.0
C293 C 0.43231 0.96051 0.92023 0.0
H294 H 0.51166 0.99042 0.91688 0.0
H295 H 0.42155 0.95921 0.97716 0.0
C296 C 0.53149 0.05293 0.9965 0.0
N297 N 0.54251 1.00084 0.09203 0.0
C298 C 0.54138 0.03099 0.10952 0.0
C299 C 0.5595 0.97558 0.11396 0.0
N300 N 0.55656 0.02557 0.14188 0.0
C301 C 0.56815 0.99065 0.14462 0.0
C302 C 0.56353 0.96038 1.00326 0.0
O303 O 0.51153 0.03319 0.979 0.0
O304 O 0.5393 0.0411 0.02841 0.0
O305 O 0.56158 0.97088 0.03413 0.0
O306 O 0.53697 0.9643 0.98288 0.0
O307 O 0.5021 0.94738 0.07057 0.0
H308 H 0.56424 0.94762 0.10849 0.0
H309 H 0.52907 0.05622 0.09869 0.0
O310 O 0.47881 0.93864 0.01929 0.0
O311 O 0.45325 0.00805 0.01591 0.0
O312 O 0.48042 0.01763 0.06497 0.0
C313 C 0.453 0.02053 0.04599 0.0
H314 H 0.40813 0.9497 0.91007 0.0
H315 H 0.58095 0.97637 0.16749 0.0
Co316 Co 0.53985 0.52432 0.53658 0.0
C317 C 0.47987 0.52825 0.49222 0.0
Co318 Co 0.48986 0.50577 0.56268 0.0
C319 C 0.6126 0.52952 0.51441 0.0
C320 C 0.57994 0.56754 0.48305 0.0
N321 N 0.57931 0.54114 0.51106 0.0
N322 N 0.63357 0.54722 0.48914 0.0
C323 C 0.61322 0.57113 0.46937 0.0
H324 H 0.62118 0.50815 0.53453 0.0
H325 H 0.55758 0.58317 0.47306 0.0
C326 C 0.55102 0.501 0.60636 0.0
N327 N 0.45003 0.48857 0.58795 0.0
C328 C 0.41612 0.49743 0.58231 0.0
C329 C 0.44948 0.46344 0.61701 0.0
N330 N 0.39485 0.47924 0.60709 0.0
C331 C 0.4157 0.45793 0.62896 0.0
C332 C 0.52562 0.45043 0.53446 0.0
O333 O 0.56654 0.51564 0.57854 0.0
O334 O 0.51812 0.49469 0.60509 0.0
O335 O 0.49727 0.45707 0.54988 0.0
O336 O 0.54804 0.47623 0.52663 0.0
O337 O 0.46271 0.51696 0.52019 0.0
H338 H 0.4721 0.44944 0.62863 0.0
H339 H 0.40714 0.51686 0.56066 0.0
O340 O 0.51285 0.53248 0.49421 0.0
O341 O 0.53174 0.57245 0.54701 0.0
O342 O 0.48269 0.55468 0.57473 0.0
C343 C 0.50508 0.58004 0.5645 0.0
H344 H 0.62203 0.59027 0.44707 0.0
H345 H 0.40691 0.43892 0.65138 0.0
Co346 Co 0.03548 0.51101 0.99531 0.0
C347 C 0.97063 0.47471 0.99515 0.0
Co348 Co 1.00874 0.50696 0.04706 0.0
C349 C 0.04496 0.51377 0.91922 0.0
C350 C 0.09362 0.51384 0.94734 0.0
N351 N 0.05865 0.51382 0.95213 0.0
N352 N 0.07002 0.51353 0.89414 0.0
C353 C 0.10068 0.51376 0.91181 0.0
H354 H 0.01713 0.51311 0.91386 0.0
H355 H 0.11281 0.51258 0.96845 0.0
C356 C 0.07358 0.54356 0.04688 0.0
N357 N 0.98644 0.50413 0.09038 0.0
C358 C 0.98464 0.53138 0.11152 0.0
C359 C 0.97145 0.47431 0.10923 0.0
N360 N 0.96951 0.51976 0.14301 0.0
C361 C 0.96112 0.48382 0.14177 0.0
C362 C 0.05226 0.448 0.04114 0.0
O363 O 0.07306 0.53799 0.01439 0.0
O364 O 0.04779 0.53204 0.06651 0.0
O365 O 0.03043 0.46127 0.06125 0.0
O366 O 0.05846 0.46517 1.01055 0.0
O367 O 0.96964 0.48165 0.02735 0.0
H368 H 0.96906 0.44721 0.10026 0.0
H369 H 0.99558 0.55888 0.10448 0.0
O370 O 0.99776 0.4844 0.97676 0.0
O371 O 1.01233 0.55649 0.98035 0.0
O372 O 0.98736 0.55313 0.03273 0.0
C373 C 0.99206 0.57017 1.00186 0.0
H374 H 0.12636 0.51192 0.90019 0.0
H375 H 0.94869 0.46572 0.16292 0.0
H376 H 0.10794 0.07292 0.31069 0.0
H377 H 0.19083 0.12336 0.36784 0.0
H378 H 0.16308 0.10074 0.42391 0.0
H379 H 0.1139 0.06879 0.45752 0.0
H380 H 0.02851 0.02325 0.40035 0.0
H381 H 0.05816 0.04246 0.34404 0.0
C382 C 0.11994 0.07939 0.33525 0.0
C383 C 0.15193 0.09972 0.33437 0.0
C384 C 0.10314 0.06733 0.36781 0.0
C385 C 0.16689 0.10703 0.36705 0.0
C386 C 0.15076 0.09442 0.39943 0.0
C387 C 0.10186 0.06292 0.43275 0.0
C388 C 0.06898 0.04454 0.43332 0.0
C389 C 0.11877 0.07474 0.4002 0.0
C390 C 0.0537 0.03746 0.40084 0.0
C391 C 0.07069 0.04842 0.36853 0.0
H392 H 0.48417 0.98146 0.73607 0.0
H393 H 0.42808 0.8767 0.75223 0.0
H394 H 0.42617 0.88056 0.81589 0.0
H395 H 0.43789 0.91473 0.86668 0.0
H396 H 0.49575 0.01803 0.85233 0.0
H397 H 0.50029 0.01344 0.78828 0.0
C398 C 0.47201 0.95924 0.75359 0.0
C399 C 0.45566 0.92921 0.73926 0.0
C400 C 0.47128 0.96141 0.79042 0.0
C401 C 0.44001 0.90064 0.76239 0.0
C402 C 0.43907 0.90267 0.79885 0.0
C403 C 0.45143 0.93622 0.84943 0.0
C404 C 0.466 0.96691 0.86383 0.0
C405 C 0.45403 0.9332 0.81304 0.0
C406 C 0.48431 0.9942 0.84159 0.0
C407 C 0.48676 0.9916 0.80507 0.0
H408 H 0.6618 0.45239 0.72572 0.0
H409 H 0.57196 0.39043 0.77113 0.0
H410 H 0.5351 0.4186 0.72333 0.0
H411 H 0.52903 0.45752 0.66617 0.0
H412 H 0.61967 0.51696 0.61943 0.0
H413 H 0.65537 0.49286 0.66988 0.0
C414 C 0.63419 0.44489 0.72518 0.0
C415 C 0.6199 0.41906 0.75212 0.0
C416 C 0.61318 0.46064 0.69714 0.0
C417 C 0.58379 0.41046 0.75116 0.0
C418 C 0.56266 0.42636 0.72359 0.0
C419 C 0.5565 0.46554 0.66718 0.0
C420 C 0.57157 0.48899 0.63887 0.0
C421 C 0.57715 0.45107 0.69612 0.0
C422 C 0.6073 0.49891 0.6407 0.0
C423 C 0.62781 0.48507 0.66957 0.0
H424 H 0.94761 0.63359 0.25263 0.0
H425 H 0.96556 0.53689 0.32642 0.0
H426 H 0.9741 0.50028 0.27692 0.0
H427 H 0.97422 0.49543 0.21253 0.0
H428 H 0.95578 0.59223 0.13915 0.0
H429 H 0.94928 0.62917 0.18863 0.0
C430 C 0.95338 0.60448 0.25784 0.0
C431 C 0.95577 0.5879 0.29307 0.0
C432 C 0.95785 0.58362 0.22936 0.0
C433 C 0.96389 0.55034 0.29951 0.0
C434 C 0.96846 0.52934 0.27124 0.0
C435 C 0.96849 0.52453 0.20749 0.0
C436 C 0.96523 0.54109 0.17234 0.0
C437 C 0.96504 0.5456 0.23607 0.0
C438 C 0.95855 0.57899 0.16602 0.0
C439 C 0.95478 0.60006 0.19426 0.0
H440 H 0.30655 0.08524 0.08612 0.0
H441 H 0.37143 0.12753 0.16635 0.0
H442 H 0.4224 0.09801 0.14428 0.0
H443 H 0.44904 0.06081 0.10204 0.0
H444 H 0.38578 0.02003 0.01975 0.0
H445 H 0.334 0.04825 0.04255 0.0
C446 C 0.33185 0.08777 0.09879 0.0
C447 C 0.33513 0.10868 0.12785 0.0
C448 C 0.36145 0.0711 0.08548 0.0
C449 C 0.36819 0.11193 0.1438 0.0
C450 C 0.39738 0.09497 0.13123 0.0
C451 C 0.42394 0.05799 0.08903 0.0
C452 C 0.42142 0.03816 0.05921 0.0
C453 C 0.3944 0.07463 0.10202 0.0
C454 C 0.38861 0.03516 0.04267 0.0
C455 C 0.35892 0.05125 0.05577 0.0
H456 H 0.28835 0.94433 0.60726 0.0
H457 H 0.29963 0.9902 0.49791 0.0
H458 H 0.2387 0.0105 0.49724 0.0
H459 H 0.18202 0.01411 0.52805 0.0
H460 H 0.17244 0.9701 0.63813 0.0
H461 H 0.23307 0.95012 0.63847 0.0
C462 C 0.27732 0.95866 0.58328 0.0
C463 C 0.29798 0.96543 0.55254 0.0
C464 C 0.24275 0.97054 0.58334 0.0
C465 C 0.28393 0.98467 0.52179 0.0
C466 C 0.24921 0.99615 0.52142 0.0
C467 C 0.19332 1.00004 0.55198 0.0
C468 C 0.17293 0.99339 0.58299 0.0
C469 C 0.22832 0.98903 0.55203 0.0
C470 C 0.18782 0.97571 0.61408 0.0
C471 C 0.22236 0.96416 0.61422 0.0
H472 H 0.85334 0.41263 0.89811 0.0
H473 H 0.79882 0.39386 0.99824 0.0
H474 H 0.84925 0.41912 0.0284 0.0
H475 H 0.90903 0.44716 0.0261 0.0
H476 H 0.96344 0.46386 0.92552 0.0
H477 H 0.91309 0.43889 0.896 0.0
C478 C 0.85238 0.41438 0.92649 0.0
C479 C 0.82222 0.4017 0.94583 0.0
C480 C 0.88161 0.42846 0.94368 0.0
C481 C 0.82172 0.40341 0.98274 0.0
C482 C 0.85055 0.4179 0.99998 0.0
C483 C 0.9099 0.4452 0.99776 0.0
C484 C 0.94012 0.45753 0.97818 0.0
C485 C 0.8807 0.43053 0.98073 0.0
C486 C 0.9407 0.45463 0.94143 0.0
C487 C 0.91181 0.4404 0.92438 0.0
H488 H 0.78745 0.56216 0.4377 0.0
H489 H 0.80357 0.58131 0.54686 0.0
H490 H 0.74265 0.56254 0.56075 0.0
H491 H 0.68274 0.55026 0.53923 0.0
H492 H 0.66654 0.53779 0.42873 0.0
H493 H 0.72967 0.5436 0.4178 0.0
C494 C 0.77797 0.56102 0.46479 0.0
C495 C 0.79985 0.57302 0.49125 0.0
C496 C 0.74275 0.55181 0.4721 0.0
C497 C 0.78705 0.57223 0.52609 0.0
C498 C 0.75225 0.56168 0.53395 0.0
C499 C 0.69339 0.54783 0.5131 0.0
C500 C 0.6705 0.5437 0.48472 0.0
C501 C 0.72951 0.55284 0.50684 0.0
C502 C 0.68404 0.54112 0.45074 0.0
C503 C 0.71997 0.54454 0.44455 0.0
H504 H 0.13635 0.29987 0.0755 0.0
H505 H 0.12072 0.32771 0.18231 0.0
H506 H 0.08789 0.38118 0.15942 0.0
H507 H 0.06401 0.4213 0.10961 0.0
H508 H 0.08394 0.39864 1.00229 0.0
H509 H 0.11514 0.34269 0.02484 0.0
C510 C 0.12612 0.3177 0.09387 0.0
C511 C 0.13062 0.3086 0.13089 0.0
C512 C 0.10801 0.34972 0.08042 0.0
C513 C 0.11683 0.33255 0.15388 0.0
C514 C 0.09826 0.3637 0.14079 0.0
C515 C 0.07502 0.40405 0.09108 0.0
C516 C 0.07129 0.41399 0.0543 0.0
C517 C 0.09358 0.37251 0.10419 0.0
C518 C 0.08633 0.39161 0.03073 0.0
C519 C 0.10416 0.35958 0.04365 0.0
H520 H 0.59013 0.19147 0.89717 0.0
H521 H 0.64443 0.2111 0.99347 0.0
H522 H 0.61449 0.15735 0.02542 0.0
H523 H 0.57528 0.10246 0.02515 0.0
H524 H 0.52193 0.08301 0.9281 0.0
H525 H 0.54927 0.13862 0.89747 0.0
C526 C 0.59548 0.18399 0.92515 0.0
C527 C 0.61973 0.20524 0.94276 0.0
C528 C 0.57845 0.15283 0.94327 0.0
C529 C 0.62574 0.19549 0.97924 0.0
C530 C 0.60879 0.16455 0.9975 0.0
C531 C 0.56946 0.11051 0.99736 0.0
C532 C 0.54665 0.08831 0.97901 0.0
C533 C 0.58543 0.14268 0.97967 0.0
C534 C 0.53938 0.09936 0.94299 0.0
C535 C 0.55506 0.13122 0.92535 0.0
H536 H 0.04186 0.78812 0.47012 0.0
H537 H 0.94225 0.77163 0.52392 0.0
H538 H 0.94704 0.83302 0.54303 0.0
H539 H 0.97551 0.89418 0.53782 0.0
H540 H 0.07583 0.9115 0.48627 0.0
H541 H 0.07487 0.84711 0.47267 0.0
C542 C 0.02165 0.79778 0.48666 0.0
C543 C 0.99172 0.77541 0.49545 0.0
C544 C 0.02437 0.83344 0.49735 0.0
C545 C 0.96577 0.78807 0.51712 0.0
C546 C 0.96823 0.82339 0.52772 0.0
C547 C 0.99732 0.88355 0.52403 0.0
C548 C 0.02539 0.90719 0.51246 0.0
C549 C 0.99676 0.8467 0.51693 0.0
C550 C 0.0539 0.89345 0.49518 0.0
C551 C 0.05328 0.85681 0.48737 0.0
H552 H 0.51533 0.74853 0.58466 0.0
H553 H 0.40475 0.74082 0.56288 0.0
H554 H 0.40886 0.67408 0.56098 0.0
H555 H 0.44472 0.61821 0.56329 0.0
H556 H 0.55596 0.6277 0.58101 0.0
H557 H 0.55078 0.69325 0.58747 0.0
C558 C 0.49211 0.73212 0.57983 0.0
C559 C 0.45982 0.74938 0.57396 0.0
C560 C 0.4948 0.69408 0.57825 0.0
C561 C 0.42996 0.72803 0.56718 0.0
C562 C 0.43227 0.68992 0.56627 0.0
C563 C 0.46762 0.63465 0.56912 0.0
C564 C 0.5006 0.61836 0.57194 0.0
C565 C 0.46462 0.67266 0.57154 0.0
C566 C 0.53031 0.63985 0.57878 0.0
C567 C 0.52739 0.67728 0.58238 0.0
H568 H 0.8743 0.9493 0.70854 0.0
H569 H 0.96604 0.89628 0.75468 0.0
H570 H 1.0003 0.91922 0.7021 0.0
H571 H 1.00439 0.9541 0.64259 0.0
H572 H 0.91214 0.00497 0.59515 0.0
H573 H 0.8782 0.98348 0.64841 0.0
C574 C 0.90182 0.94291 0.70709 0.0
C575 C 0.91748 0.92096 0.73556 0.0
C576 C 0.92139 0.9559 0.67645 0.0
C577 C 0.95315 0.91269 0.73305 0.0
C578 C 0.97285 0.92598 0.70302 0.0
C579 C 0.9769 0.96064 0.64396 0.0
C580 C 0.96096 0.9813 0.61485 0.0
C581 C 0.95728 0.94756 0.6745 0.0
C582 C 0.92516 0.98912 0.61705 0.0
C583 C 0.90568 0.97683 0.64756 0.0
H584 H 0.55599 0.1555 0.23767 0.0
H585 H 0.63615 0.08935 0.29199 0.0
H586 H 0.62667 0.04193 0.25219 0.0
H587 H 0.59958 0.02206 0.19893 0.0
H588 H 0.51846 0.08749 0.14501 0.0
H589 H 0.52512 0.13273 0.18714 0.0
C590 C 0.57117 0.13055 0.2409 0.0
C591 C 0.59681 0.12603 0.26762 0.0
C592 C 0.56596 0.1036 0.2176 0.0
C593 C 0.61598 0.09336 0.27187 0.0
C594 C 0.61084 0.06638 0.24889 0.0
C595 C 0.58291 0.04582 0.19651 0.0
C596 C 0.559 0.05134 0.16818 0.0
C597 C 0.58644 0.0716 0.2212 0.0
C598 C 0.53784 0.08269 0.16575 0.0
C599 C 0.54136 0.10857 0.19011 0.0
H600 H 0.4359 0.55563 0.33123 0.0
H601 H 0.34647 0.60364 0.37591 0.0
H602 H 0.36911 0.58625 0.43609 0.0
H603 H 0.41567 0.55829 0.47603 0.0
H604 H 0.50657 0.51468 0.42938 0.0
H605 H 0.48192 0.52888 0.37017 0.0
C606 C 0.42119 0.56198 0.35417 0.0
C607 C 0.38942 0.58057 0.34918 0.0
C608 C 0.43468 0.55256 0.38841 0.0
C609 C 0.37102 0.58935 0.37911 0.0
C610 C 0.38393 0.57931 0.41348 0.0
C611 C 0.42977 0.55163 0.45285 0.0
C612 C 0.4628 0.53527 0.45706 0.0
C613 C 0.41585 0.56097 0.4185 0.0
C614 C 0.48114 0.5273 0.42681 0.0
C615 C 0.46708 0.53543 0.39292 0.0
H616 H 0.08625 0.48054 0.73735 0.0
H617 H 0.9884 0.42173 0.76177 0.0
H618 H 0.98615 0.44664 0.81902 0.0
H619 H 0.01606 0.4784 0.86491 0.0
H620 H 0.11418 0.53649 0.8402 0.0
H621 H 0.11198 0.51894 0.77993 0.0
C622 C 0.06382 0.47404 0.75463 0.0
C623 C 0.03769 0.44902 0.74538 0.0
C624 C 0.06302 0.48792 0.78767 0.0
C625 C 1.00913 0.44051 0.76847 0.0
C626 C 1.00784 0.45473 0.80121 0.0
C627 C 0.03651 0.48801 0.84611 0.0
C628 C 0.06556 0.50824 0.85725 0.0
C629 C 0.03528 0.47743 0.81158 0.0
C630 C 0.09195 0.52023 0.83252 0.0
C631 C 0.09065 0.5103 0.79803 0.0
H632 H 0.71667 0.90654 0.97542 0.0
H633 H 0.67308 0.89613 0.87171 0.0
H634 H 0.61661 0.9169 0.89119 0.0
H635 H 0.57936 0.93895 0.93771 0.0
H636 H 0.62355 0.94802 0.04148 0.0
H637 H 0.67938 0.92626 0.02207 0.0
C638 C 0.69477 0.90818 0.9571 0.0
C639 C 0.69952 0.89962 0.922 0.0
C640 C 0.66217 0.91996 0.96855 0.0
C641 C 0.67067 0.90289 0.8987 0.0
C642 C 0.63816 0.91461 0.90991 0.0
C643 C 0.60113 0.93596 0.95616 0.0
C644 C 0.59696 0.94524 0.99111 0.0
C645 C 0.63358 0.92341 0.94476 0.0
C646 C 0.6257 0.9412 0.01447 0.0
C647 C 0.65781 0.92875 1.00337 0.0
H648 H 0.75776 0.1069 0.41082 0.0
H649 H 0.82435 0.20431 0.40686 0.0
H650 H 0.87367 0.16671 0.42944 0.0
H651 H 0.89802 0.10585 0.44854 0.0
H652 H 0.8327 0.00801 0.4485 0.0
H653 H 0.78242 0.04586 0.42921 0.0
C654 C 0.78307 0.11975 0.4152 0.0
C655 C 0.78765 0.15813 0.40752 0.0
C656 C 0.81134 0.0979 0.42731 0.0
C657 C 0.8205 0.17471 0.41265 0.0
C658 C 0.84856 0.15328 0.42555 0.0
C659 C 0.87262 0.093 0.44466 0.0
C660 C 0.86874 0.0544 0.45012 0.0
C661 C 0.84431 0.11485 0.43277 0.0
C662 C 0.83605 0.03775 0.44432 0.0
C663 C 0.80743 0.05934 0.43338 0.0
H664 H 0.21755 0.61898 0.0835 0.0
H665 H 0.18821 0.57211 0.18935 0.0
H666 H 0.13201 0.55142 0.167 0.0
H667 H 0.09282 0.54227 0.11659 0.0
H668 H 0.12473 0.58496 1.01037 0.0
H669 H 0.17834 0.61092 0.03362 0.0
C670 C 0.19907 0.60402 0.10178 0.0
C671 C 0.20757 0.597 0.13814 0.0
C672 C 0.16718 0.59109 0.08859 0.0
C673 C 0.18255 0.57842 0.16134 0.0
C674 C 0.1504 0.5662 0.14851 0.0
C675 C 0.11134 0.55759 0.09859 0.0
C676 C 0.10471 0.56159 0.06175 0.0
C677 C 0.14265 0.57182 0.11208 0.0
C678 C 0.12917 0.5813 0.0388 0.0
C679 C 0.15988 0.59618 0.05208 0.0
H680 H 0.23858 0.45463 0.6497 0.0
H681 H 0.23144 0.42877 0.54153 0.0
H682 H 0.29186 0.45101 0.53062 0.0
H683 H 0.34938 0.46906 0.55478 0.0
H684 H 0.35698 0.48849 0.66454 0.0
H685 H 0.29386 0.4775 0.67215 0.0
C686 C 0.25017 0.45405 0.62365 0.0
C687 C 0.23079 0.43943 0.59668 0.0
C688 C 0.28516 0.46547 0.61804 0.0
C689 C 0.24581 0.43986 0.56277 0.0
C690 C 0.28046 0.45228 0.55661 0.0
C691 C 0.33683 0.47177 0.57997 0.0
C692 C 0.3574 0.47951 0.60914 0.0
C693 C 0.30077 0.46393 0.58442 0.0
C694 C 0.34134 0.48247 0.64192 0.0
C695 C 0.30542 0.47607 0.64624 0.0
H696 H 0.91215 0.72156 0.98421 0.0
H697 H 0.91816 0.70428 0.87368 0.0
H698 H 0.94934 0.64682 0.88949 0.0
H699 H 0.97576 0.60159 0.93492 0.0
H700 H 0.96688 0.61771 0.04563 0.0
H701 H 0.9364 0.67536 0.02962 0.0
C702 C 0.92031 0.7052 0.9636 0.0
C703 C 0.91287 0.71731 0.92779 0.0
C704 C 0.93795 0.67197 0.97293 0.0
C705 C 0.92325 0.6955 0.90145 0.0
C706 C 0.9413 0.66272 0.91047 0.0
C707 C 0.96727 0.61783 0.95549 0.0
C708 C 0.97388 0.60541 0.99143 0.0
C709 C 0.94897 0.65072 0.94613 0.0
C710 C 0.9622 0.62655 0.01778 0.0
C711 C 0.94474 0.65959 1.00865 0.0
H712 H 0.42292 0.76512 0.08877 0.0
H713 H 0.41104 0.80294 0.19174 0.0
H714 H 0.4373 0.86309 0.16929 0.0
H715 H 0.46405 0.90489 0.12 0.0
H716 H 0.47193 0.86751 0.01627 0.0
H717 H 0.44723 0.80724 0.03935 0.0
C718 C 0.42615 0.78656 0.10627 0.0
C719 C 0.41529 0.7796 0.14189 0.0
C720 C 0.44074 0.8211 0.09304 0.0
C721 C 0.41911 0.80775 0.16418 0.0
C722 C 0.43426 0.84204 0.15139 0.0
C723 C 0.46051 0.88341 0.10259 0.0
C724 C 0.47006 0.89053 0.06654 0.0
C725 C 0.44532 0.84901 0.11585 0.0
C726 C 0.4648 0.8627 0.0441 0.0
C727 C 0.45067 0.82823 0.05727 0.0
H728 H 1.01071 0.23063 0.5999 0.0
H729 H 0.03131 0.27316 0.491 0.0
H730 H 0.02036 0.21148 0.47248 0.0
H731 H 1.01183 0.14398 0.48882 0.0
H732 H 0.99831 0.10206 0.59899 0.0
H733 H 0.99902 0.16495 0.61566 0.0
C734 C 1.01176 0.22662 0.57197 0.0
C735 C 0.02136 0.25635 0.54675 0.0
C736 C 1.00706 0.19104 0.56193 0.0
C737 C 0.02371 0.25062 0.51078 0.0
C738 C 0.01765 0.21538 0.50028 0.0
C739 C 1.00836 0.14894 0.51629 0.0
C740 C 1.00484 0.11889 0.54276 0.0
C741 C 1.01033 0.18516 0.52579 0.0
C742 C 1.00098 0.12509 0.57837 0.0
C743 C 1.00146 0.16092 0.58785 0.0
H744 H 0.54705 0.31902 0.44575 0.0
H745 H 0.65071 0.32745 0.49023 0.0
H746 H 0.63022 0.37119 0.52925 0.0
H747 H 0.58557 0.41427 0.54335 0.0
H748 H 0.48161 0.40623 0.50025 0.0
H749 H 0.49911 0.35428 0.46869 0.0
C750 C 0.56487 0.3296 0.46472 0.0
C751 C 0.60057 0.32086 0.46439 0.0
C752 C 0.55291 0.35495 0.48708 0.0
C753 C 0.62333 0.33464 0.48925 0.0
C754 C 0.61164 0.35956 0.51164 0.0
C755 C 0.56656 0.40037 0.5278 0.0
C756 C 0.5326 0.41393 0.52364 0.0
C757 C 0.57693 0.37109 0.50962 0.0
C758 C 0.50791 0.3959 0.50378 0.0
C759 C 0.51803 0.36653 0.48551 0.0
loop_
_geom_bond_atom_site_label_1
_geom_bond_atom_site_label_2
_geom_bond_distance
_geom_bond_site_symmetry_2
_ccdc_geom_bond_type
P0 O11 1.490 . S
P0 C14 1.812 . S
P0 C20 1.803 . S
P0 C26 1.819 . S
H1 C15 0.941 . S
H2 C16 0.939 . S
H3 C18 0.940 . S
H4 C19 0.940 . S
H5 C21 0.939 . S
H6 C22 0.942 . S
H7 C24 0.940 . S
H8 C25 0.939 . S
H9 C27 0.941 . S
H10 C31 0.939 . S
O11 P0 1.490 . S
H12 C28 0.939 . S
H13 C30 0.940 . S
C14 P0 1.812 . S
C14 C15 1.389 . S
C14 C19 1.391 . S
C15 H1 0.941 . S
C15 C14 1.389 . S
C15 C16 1.397 . S
C16 H2 0.939 . S
C16 C15 1.397 . S
C16 C17 1.378 . S
C17 C16 1.378 . S
C17 C18 1.378 . S
C18 H3 0.940 . S
C18 C17 1.378 . S
C18 C19 1.396 . S
C19 H4 0.940 . S
C19 C14 1.391 . S
C19 C18 1.396 . S
C20 P0 1.803 . S
C20 C21 1.378 . S
C20 C25 1.400 . S
C21 H5 0.939 . S
C21 C20 1.378 . S
C21 C22 1.361 . S
C22 H6 0.942 . S
C22 C21 1.361 . S
C22 C23 1.369 . S
C23 C22 1.369 . S
C23 C24 1.404 . S
C24 H7 0.940 . S
C24 C23 1.404 . S
C24 C25 1.389 . S
C25 H8 0.939 . S
C25 C20 1.400 . S
C25 C24 1.389 . S
C26 P0 1.819 . S
C26 C27 1.391 . S
C26 C31 1.391 . S
C27 H9 0.941 . S
C27 C26 1.391 . S
C27 C28 1.396 . S
C28 H12 0.939 . S
C28 C27 1.396 . S
C28 C29 1.397 . S
C29 C28 1.397 . S
C29 C30 1.385 . S
C30 H13 0.940 . S
C30 C29 1.385 . S
C30 C31 1.388 . S
C31 H10 0.939 . S
C31 C26 1.391 . S
C31 C30 1.388 . S
P32 O43 1.490 . S
P32 C46 1.812 . S
P32 C52 1.803 . S
P32 C58 1.819 . S
H33 C47 0.941 . S
H34 C48 0.939 . S
H35 C50 0.940 . S
H36 C51 0.940 . S
H37 C53 0.939 . S
H38 C54 0.942 . S
H39 C56 0.940 . S
H40 C57 0.939 . S
H41 C59 0.941 . S
H42 C63 0.939 . S
O43 P32 1.490 . S
H44 C60 0.939 . S
H45 C62 0.940 . S
C46 P32 1.812 . S
C46 C47 1.389 . S
C46 C51 1.391 . S
C47 H33 0.941 . S
C47 C46 1.389 . S
C47 C48 1.397 . S
C48 H34 0.939 . S
C48 C47 1.397 . S
C48 C49 1.378 . S
C49 C48 1.378 . S
C49 C50 1.378 . S
C50 H35 0.940 . S
C50 C49 1.378 . S
C50 C51 1.396 . S
C51 H36 0.940 . S
C51 C46 1.391 . S
C51 C50 1.396 . S
C52 P32 1.803 . S
C52 C53 1.378 . S
C52 C57 1.400 . S
C53 H37 0.939 . S
C53 C52 1.378 . S
C53 C54 1.361 . S
C54 H38 0.942 . S
C54 C53 1.361 . S
C54 C55 1.369 . S
C55 C54 1.369 . S
C55 C56 1.404 . S
C56 H39 0.940 . S
C56 C55 1.404 . S
C56 C57 1.389 . S
C57 H40 0.939 . S
C57 C52 1.400 . S
C57 C56 1.389 . S
C58 P32 1.819 . S
C58 C59 1.391 . S
C58 C63 1.391 . S
C59 H41 0.941 . S
C59 C58 1.391 . S
C59 C60 1.396 . S
C60 H44 0.939 . S
C60 C59 1.396 . S
C60 C61 1.397 . S
C61 C60 1.397 . S
C61 C62 1.385 . S
C62 H45 0.940 . S
C62 C61 1.385 . S
C62 C63 1.388 . S
C63 H42 0.939 . S
C63 C58 1.391 . S
C63 C62 1.388 . S
P64 O75 1.490 . S
P64 C78 1.812 . S
P64 C84 1.803 . S
P64 C90 1.819 . S
H65 C79 0.941 . S
H66 C80 0.939 . S
H67 C82 0.940 . S
H68 C83 0.940 . S
H69 C85 0.939 . S
H70 C86 0.942 . S
H71 C88 0.940 . S
H72 C89 0.939 . S
H73 C91 0.941 . S
H74 C95 0.939 . S
O75 P64 1.490 . S
H76 C92 0.939 . S
H77 C94 0.940 . S
C78 P64 1.812 . S
C78 C79 1.389 . S
C78 C83 1.391 . S
C79 H65 0.941 . S
C79 C78 1.389 . S
C79 C80 1.397 . S
C80 H66 0.939 . S
C80 C79 1.397 . S
C80 C81 1.378 . S
C81 C80 1.378 . S
C81 C82 1.378 . S
C82 H67 0.940 . S
C82 C81 1.378 . S
C82 C83 1.396 . S
C83 H68 0.940 . S
C83 C78 1.391 . S
C83 C82 1.396 . S
C84 P64 1.803 . S
C84 C85 1.378 . S
C84 C89 1.400 . S
C85 H69 0.939 . S
C85 C84 1.378 . S
C85 C86 1.361 . S
C86 H70 0.942 . S
C86 C85 1.361 . S
C86 C87 1.369 . S
C87 C86 1.369 . S
C87 C88 1.404 . S
C88 H71 0.940 . S
C88 C87 1.404 . S
C88 C89 1.389 . S
C89 H72 0.939 . S
C89 C84 1.400 . S
C89 C88 1.389 . S
C90 P64 1.819 . S
C90 C91 1.391 . S
C90 C95 1.391 . S
C91 H73 0.941 . S
C91 C90 1.391 . S
C91 C92 1.396 . S
C92 H76 0.939 . S
C92 C91 1.396 . S
C92 C93 1.397 . S
C93 C92 1.397 . S
C93 C94 1.385 . S
C94 H77 0.940 . S
C94 C93 1.385 . S
C94 C95 1.388 . S
C95 H74 0.939 . S
C95 C90 1.391 . S
C95 C94 1.388 . S
P96 O107 1.490 . S
P96 C110 1.812 . S
P96 C116 1.803 . S
P96 C122 1.819 . S
H97 C111 0.941 . S
H98 C112 0.939 . S
H99 C114 0.940 . S
H100 C115 0.940 . S
H101 C117 0.939 . S
H102 C118 0.942 . S
H103 C120 0.940 . S
H104 C121 0.939 . S
H105 C123 0.941 . S
H106 C127 0.939 . S
O107 P96 1.490 . S
H108 C124 0.939 . S
H109 C126 0.940 . S
C110 P96 1.812 . S
C110 C111 1.389 . S
C110 C115 1.391 . S
C111 H97 0.941 . S
C111 C110 1.389 . S
C111 C112 1.397 . S
C112 H98 0.939 . S
C112 C111 1.397 . S
C112 C113 1.378 . S
C113 C112 1.378 . S
C113 C114 1.378 . S
C114 H99 0.940 . S
C114 C113 1.378 . S
C114 C115 1.396 . S
C115 H100 0.940 . S
C115 C110 1.391 . S
C115 C114 1.396 . S
C116 P96 1.803 . S
C116 C117 1.378 . S
C116 C121 1.400 . S
C117 H101 0.939 . S
C117 C116 1.378 . S
C117 C118 1.361 . S
C118 H102 0.942 . S
C118 C117 1.361 . S
C118 C119 1.369 . S
C119 C118 1.369 . S
C119 C120 1.404 . S
C120 H103 0.940 . S
C120 C119 1.404 . S
C120 C121 1.389 . S
C121 H104 0.939 . S
C121 C116 1.400 . S
C121 C120 1.389 . S
C122 P96 1.819 . S
C122 C123 1.391 . S
C122 C127 1.391 . S
C123 H105 0.941 . S
C123 C122 1.391 . S
C123 C124 1.396 . S
C124 H108 0.939 . S
C124 C123 1.396 . S
C124 C125 1.397 . S
C125 C124 1.397 . S
C125 C126 1.385 . S
C126 H109 0.940 . S
C126 C125 1.385 . S
C126 C127 1.388 . S
C127 H106 0.939 . S
C127 C122 1.391 . S
C127 C126 1.388 . S
P128 O139 1.490 . S
P128 C142 1.812 . S
P128 C148 1.803 . S
P128 C154 1.819 . S
H129 C143 0.941 . S
H130 C144 0.939 . S
H131 C146 0.940 . S
H132 C147 0.940 . S
H133 C149 0.939 . S
H134 C150 0.942 . S
H135 C152 0.940 . S
H136 C153 0.939 . S
H137 C155 0.941 . S
H138 C159 0.939 . S
O139 P128 1.490 . S
H140 C156 0.939 . S
H141 C158 0.940 . S
C142 P128 1.812 . S
C142 C143 1.389 . S
C142 C147 1.391 . S
C143 H129 0.941 . S
C143 C142 1.389 . S
C143 C144 1.397 . S
C144 H130 0.939 . S
C144 C143 1.397 . S
C144 C145 1.378 . S
C145 C144 1.378 . S
C145 C146 1.378 . S
C146 H131 0.940 . S
C146 C145 1.378 . S
C146 C147 1.396 . S
C147 H132 0.940 . S
C147 C142 1.391 . S
C147 C146 1.396 . S
C148 P128 1.803 . S
C148 C149 1.378 . S
C148 C153 1.400 . S
C149 H133 0.939 . S
C149 C148 1.378 . S
C149 C150 1.361 . S
C150 H134 0.942 . S
C150 C149 1.361 . S
C150 C151 1.369 . S
C151 C150 1.369 . S
C151 C152 1.404 . S
C152 H135 0.940 . S
C152 C151 1.404 . S
C152 C153 1.389 . S
C153 H136 0.939 . S
C153 C148 1.400 . S
C153 C152 1.389 . S
C154 P128 1.819 . S
C154 C155 1.391 . S
C154 C159 1.391 . S
C155 H137 0.941 . S
C155 C154 1.391 . S
C155 C156 1.396 . S
C156 H140 0.939 . S
C156 C155 1.396 . S
C156 C157 1.397 . S
C157 C156 1.397 . S
C157 C158 1.385 . S
C158 H141 0.940 . S
C158 C157 1.385 . S
C158 C159 1.388 . S
C159 H138 0.939 . S
C159 C154 1.391 . S
C159 C158 1.388 . S
P160 O171 1.490 . S
P160 C174 1.812 . S
P160 C180 1.803 . S
P160 C186 1.819 . S
H161 C175 0.941 . S
H162 C176 0.939 . S
H163 C178 0.940 . S
H164 C179 0.940 . S
H165 C181 0.939 . S
H166 C182 0.942 . S
H167 C184 0.940 . S
H168 C185 0.939 . S
H169 C187 0.941 . S
H170 C191 0.939 . S
O171 P160 1.490 . S
H172 C188 0.939 . S
H173 C190 0.940 . S
C174 P160 1.812 . S
C174 C175 1.389 . S
C174 C179 1.391 . S
C175 H161 0.941 . S
C175 C174 1.389 . S
C175 C176 1.397 . S
C176 H162 0.939 . S
C176 C175 1.397 . S
C176 C177 1.378 . S
C177 C176 1.378 . S
C177 C178 1.378 . S
C178 H163 0.940 . S
C178 C177 1.378 . S
C178 C179 1.396 . S
C179 H164 0.940 . S
C179 C174 1.391 . S
C179 C178 1.396 . S
C180 P160 1.803 . S
C180 C181 1.378 . S
C180 C185 1.400 . S
C181 H165 0.939 . S
C181 C180 1.378 . S
C181 C182 1.361 . S
C182 H166 0.942 . S
C182 C181 1.361 . S
C182 C183 1.369 . S
C183 C182 1.369 . S
C183 C184 1.404 . S
C184 H167 0.940 . S
C184 C183 1.404 . S
C184 C185 1.389 . S
C185 H168 0.939 . S
C185 C180 1.400 . S
C185 C184 1.389 . S
C186 P160 1.819 . S
C186 C187 1.391 . S
C186 C191 1.391 . S
C187 H169 0.941 . S
C187 C186 1.391 . S
C187 C188 1.396 . S
C188 H172 0.939 . S
C188 C187 1.396 . S
C188 C189 1.397 . S
C189 C188 1.397 . S
C189 C190 1.385 . S
C190 H173 0.940 . S
C190 C189 1.385 . S
C190 C191 1.388 . S
C191 H170 0.939 . S
C191 C186 1.391 . S
C191 C190 1.388 . S
P192 O203 1.490 . S
P192 C206 1.812 . S
P192 C212 1.803 . S
P192 C218 1.819 . S
H193 C207 0.941 . S
H194 C208 0.939 . S
H195 C210 0.940 . S
H196 C211 0.940 . S
H197 C213 0.939 . S
H198 C214 0.942 . S
H199 C216 0.940 . S
H200 C217 0.939 . S
H201 C219 0.941 . S
H202 C223 0.939 . S
O203 P192 1.490 . S
H204 C220 0.939 . S
H205 C222 0.940 . S
C206 P192 1.812 . S
C206 C207 1.389 . S
C206 C211 1.391 . S
C207 H193 0.941 . S
C207 C206 1.389 . S
C207 C208 1.397 . S
C208 H194 0.939 . S
C208 C207 1.397 . S
C208 C209 1.378 . S
C209 C208 1.378 . S
C209 C210 1.378 . S
C210 H195 0.940 . S
C210 C209 1.378 . S
C210 C211 1.396 . S
C211 H196 0.940 . S
C211 C206 1.391 . S
C211 C210 1.396 . S
C212 P192 1.803 . S
C212 C213 1.378 . S
C212 C217 1.400 . S
C213 H197 0.939 . S
C213 C212 1.378 . S
C213 C214 1.361 . S
C214 H198 0.942 . S
C214 C213 1.361 . S
C214 C215 1.369 . S
C215 C214 1.369 . S
C215 C216 1.404 . S
C216 H199 0.940 . S
C216 C215 1.404 . S
C216 C217 1.389 . S
C217 H200 0.939 . S
C217 C212 1.400 . S
C217 C216 1.389 . S
C218 P192 1.819 . S
C218 C219 1.391 . S
C218 C223 1.391 . S
C219 H201 0.941 . S
C219 C218 1.391 . S
C219 C220 1.396 . S
C220 H204 0.939 . S
C220 C219 1.396 . S
C220 C221 1.397 . S
C221 C220 1.397 . S
C221 C222 1.385 . S
C222 H205 0.940 . S
C222 C221 1.385 . S
C222 C223 1.388 . S
C223 H202 0.939 . S
C223 C218 1.391 . S
C223 C222 1.388 . S
P224 O235 1.490 . S
P224 C238 1.812 . S
P224 C244 1.803 . S
P224 C250 1.819 . S
H225 C239 0.941 . S
H226 C240 0.939 . S
H227 C242 0.940 . S
H228 C243 0.940 . S
H229 C245 0.939 . S
H230 C246 0.942 . S
H231 C248 0.940 . S
H232 C249 0.939 . S
H233 C251 0.941 . S
H234 C255 0.939 . S
O235 P224 1.490 . S
H236 C252 0.939 . S
H237 C254 0.940 . S
C238 P224 1.812 . S
C238 C239 1.389 . S
C238 C243 1.391 . S
C239 H225 0.941 . S
C239 C238 1.389 . S
C239 C240 1.397 . S
C240 H226 0.939 . S
C240 C239 1.397 . S
C240 C241 1.378 . S
C241 C240 1.378 . S
C241 C242 1.378 . S
C242 H227 0.940 . S
C242 C241 1.378 . S
C242 C243 1.396 . S
C243 H228 0.940 . S
C243 C238 1.391 . S
C243 C242 1.396 . S
C244 P224 1.803 . S
C244 C245 1.378 . S
C244 C249 1.400 . S
C245 H229 0.939 . S
C245 C244 1.378 . S
C245 C246 1.361 . S
C246 H230 0.942 . S
C246 C245 1.361 . S
C246 C247 1.369 . S
C247 C246 1.369 . S
C247 C248 1.404 . S
C248 H231 0.940 . S
C248 C247 1.404 . S
C248 C249 1.389 . S
C249 H232 0.939 . S
C249 C244 1.400 . S
C249 C248 1.389 . S
C250 P224 1.819 . S
C250 C251 1.391 . S
C250 C255 1.391 . S
C251 H233 0.941 . S
C251 C250 1.391 . S
C251 C252 1.396 . S
C252 H236 0.939 . S
C252 C251 1.396 . S
C252 C253 1.397 . S
C253 C252 1.397 . S
C253 C254 1.385 . S
C254 H237 0.940 . S
C254 C253 1.385 . S
C254 C255 1.388 . S
C255 H234 0.939 . S
C255 C250 1.391 . S
C255 C254 1.388 . S
Co256 N261 2.057 . S
Co256 O273 2.021 . S
Co256 O276 2.062 . S
Co256 O280 2.117 1_545 S
Co256 O281 2.020 . S
C257 O277 1.259 1_655 S
C257 O280 1.258 . S
Co258 N267 2.057 . S
Co258 O274 2.117 1_565 S
Co258 O275 2.020 1_565 S
Co258 O277 2.021 . S
Co258 O282 2.062 . S
C259 N261 1.316 . S
C259 N262 1.347 . S
C259 H264 0.931 . S
C260 N261 1.397 . S
C260 C263 1.365 . S
C260 H265 0.898 1_545 S
N261 Co256 2.057 . S
N261 C259 1.316 . S
N261 C260 1.397 . S
N262 C259 1.347 . S
N262 C263 1.373 . S
C263 C260 1.365 . S
C263 N262 1.373 . S
C263 H284 0.931 . S
H264 C259 0.931 . S
H265 C260 0.898 1_565 S
C266 O273 1.259 1_455 S
C266 O274 1.258 . S
N267 Co258 2.057 . S
N267 C268 1.316 . S
N267 C269 1.375 1_565 S
C268 N267 1.316 . S
C268 N270 1.347 . S
C268 H279 0.931 . S
C269 N267 1.375 1_545 S
C269 C271 1.350 1_545 S
C269 H278 0.930 . S
N270 C268 1.347 . S
N270 C271 1.373 . S
C271 C269 1.350 1_565 S
C271 N270 1.373 . S
C271 H285 0.931 1_565 S
C272 O275 1.256 . S
C272 O276 1.255 1_455 S
O273 Co256 2.021 . S
O273 C266 1.259 1_655 S
O274 Co258 2.117 1_545 S
O274 C266 1.258 . S
O275 Co258 2.020 1_545 S
O275 C272 1.256 . S
O276 Co256 2.062 . S
O276 C272 1.255 1_655 S
O277 C257 1.259 1_455 S
O277 Co258 2.021 . S
H278 C269 0.930 . S
H279 C268 0.931 . S
O280 Co256 2.117 1_565 S
O280 C257 1.258 . S
O281 Co256 2.020 . S
O281 C283 1.256 1_545 S
O282 Co258 2.062 . S
O282 C283 1.255 1_455 S
C283 O281 1.256 1_565 S
C283 O282 1.255 1_655 S
H284 C263 0.931 . S
H285 C271 0.931 1_545 S
Co286 N291 2.057 1_545 S
Co286 O303 2.021 . S
Co286 O306 2.062 1_545 S
Co286 O310 2.117 1_546 S
Co286 O311 2.020 1_556 S
C287 O307 1.259 . S
C287 O310 1.258 . S
Co288 N297 2.057 . S
Co288 O304 2.117 . S
Co288 O305 2.020 1_545 S
Co288 O307 2.021 1_545 S
Co288 O312 2.062 . S
C289 N291 1.316 . S
C289 N292 1.347 . S
C289 H294 0.931 1_565 S
C290 N291 1.375 . S
C290 C293 1.350 . S
C290 H295 0.930 . S
N291 Co286 2.057 1_565 S
N291 C289 1.316 . S
N291 C290 1.375 . S
N292 C289 1.347 . S
N292 C293 1.373 . S
C293 C290 1.350 . S
C293 N292 1.373 . S
C293 H314 0.931 . S
H294 C289 0.931 1_545 S
H295 C290 0.930 . S
C296 O303 1.259 . S
C296 O304 1.258 1_556 S
N297 Co288 2.057 . S
N297 C298 1.316 . S
N297 C299 1.375 . S
C298 N297 1.316 . S
C298 N300 1.347 . S
C298 H309 0.931 . S
C299 N297 1.375 . S
C299 C301 1.350 . S
C299 H308 0.930 . S
N300 C298 1.347 . S
N300 C301 1.373 . S
C301 C299 1.350 . S
C301 N300 1.373 . S
C301 H315 0.931 . S
C302 O305 1.256 1_556 S
C302 O306 1.255 . S
O303 Co286 2.021 . S
O303 C296 1.259 . S
O304 Co288 2.117 . S
O304 C296 1.258 1_554 S
O305 Co288 2.020 1_565 S
O305 C302 1.256 1_554 S
O306 Co286 2.062 1_565 S
O306 C302 1.255 . S
O307 C287 1.259 . S
O307 Co288 2.021 1_565 S
H308 C299 0.930 . S
H309 C298 0.931 . S
O310 Co286 2.117 1_564 S
O310 C287 1.258 . S
O311 Co286 2.020 1_554 S
O311 C313 1.256 . S
O312 Co288 2.062 . S
O312 C313 1.255 . S
C313 O311 1.256 . S
C313 O312 1.255 . S
H314 C293 0.931 . S
H315 C301 0.931 . S
Co316 N321 2.057 . S
Co316 O333 2.021 . S
Co316 O336 2.062 . S
Co316 O340 2.117 . S
Co316 O341 2.020 . S
C317 O337 1.259 . S
C317 O340 1.258 . S
Co318 N327 2.057 . S
Co318 O334 2.117 . S
Co318 O335 2.020 . S
Co318 O337 2.021 . S
Co318 O342 2.062 . S
C319 N321 1.316 . S
C319 N322 1.347 . S
C319 H324 0.931 . S
C320 N321 1.375 . S
C320 C323 1.350 . S
C320 H325 0.930 . S
N321 Co316 2.057 . S
N321 C319 1.316 . S
N321 C320 1.375 . S
N322 C319 1.347 . S
N322 C323 1.373 . S
C323 C320 1.350 . S
C323 N322 1.373 . S
C323 H344 0.931 . S
H324 C319 0.931 . S
H325 C320 0.930 . S
C326 O333 1.259 . S
C326 O334 1.258 . S
N327 Co318 2.057 . S
N327 C328 1.316 . S
N327 C329 1.375 . S
C328 N327 1.316 . S
C328 N330 1.347 . S
C328 H339 0.931 . S
C329 N327 1.375 . S
C329 C331 1.350 . S
C329 H338 0.930 . S
N330 C328 1.347 . S
N330 C331 1.373 . S
C331 C329 1.350 . S
C331 N330 1.373 . S
C331 H345 0.931 . S
C332 O335 1.256 . S
C332 O336 1.255 . S
O333 Co316 2.021 . S
O333 C326 1.259 . S
O334 Co318 2.117 . S
O334 C326 1.258 . S
O335 Co318 2.020 . S
O335 C332 1.256 . S
O336 Co316 2.062 . S
O336 C332 1.255 . S
O337 C317 1.259 . S
O337 Co318 2.021 . S
H338 C329 0.930 . S
H339 C328 0.931 . S
O340 Co316 2.117 . S
O340 C317 1.258 . S
O341 Co316 2.020 . S
O341 C343 1.256 . S
O342 Co318 2.062 . S
O342 C343 1.255 . S
C343 O341 1.256 . S
C343 O342 1.255 . S
H344 C323 0.931 . S
H345 C331 0.931 . S
Co346 N351 2.057 . S
Co346 O363 2.021 . S
Co346 O366 2.050 1_556 S
Co346 O370 2.117 1_455 S
Co346 O371 2.020 1_455 S
C347 O367 1.284 . S
C347 O370 1.242 1_554 S
Co348 N357 2.057 . S
Co348 O364 2.117 1_655 S
Co348 O365 2.020 1_655 S
Co348 O367 2.021 . S
Co348 O372 2.062 . S
C349 N351 1.316 . S
C349 N352 1.347 . S
C349 H354 0.931 . S
C350 N351 1.375 1_655 S
C350 C353 1.350 1_655 S
C350 H355 0.930 . S
N351 Co346 2.057 . S
N351 C349 1.316 . S
N351 C350 1.375 1_455 S
N352 C349 1.347 . S
N352 C353 1.373 . S
C353 C350 1.350 1_455 S
C353 N352 1.373 . S
C353 H374 0.931 1_455 S
H354 C349 0.931 . S
H355 C350 0.930 . S
C356 O363 1.259 1_554 S
C356 O364 1.258 . S
N357 Co348 2.057 . S
N357 C358 1.316 . S
N357 C359 1.375 1_655 S
C358 N357 1.316 . S
C358 N360 1.347 . S
C358 H369 0.931 . S
C359 N357 1.375 1_455 S
C359 C361 1.350 1_455 S
C359 H368 0.930 . S
N360 C358 1.347 . S
N360 C361 1.373 . S
C361 C359 1.350 1_655 S
C361 N360 1.373 . S
C361 H375 0.931 1_655 S
C362 O365 1.256 . S
C362 O366 1.282 . S
O363 Co346 2.021 . S
O363 C356 1.259 1_556 S
O364 Co348 2.117 1_455 S
O364 C356 1.258 . S
O365 Co348 2.020 1_455 S
O365 C362 1.256 . S
O366 Co346 2.050 1_554 S
O366 C362 1.282 . S
O367 C347 1.284 . S
O367 Co348 2.021 . S
H368 C359 0.930 . S
H369 C358 0.931 . S
O370 Co346 2.117 1_655 S
O370 C347 1.242 1_556 S
O371 Co346 2.020 1_655 S
O371 C373 1.256 . S
O372 Co348 2.062 . S
O372 C373 1.255 1_554 S
C373 O371 1.256 . S
C373 O372 1.255 1_556 S
H374 C353 0.931 1_655 S
H375 C361 0.931 1_455 S
H376 C382 0.930 . S
H377 C385 0.930 . S
H378 C386 0.930 . S
H379 C387 0.930 . S
H380 C390 0.930 1_655 S
H381 C391 0.930 1_655 S
C382 H376 0.930 . S
C382 C383 1.355 . S
C382 C384 1.415 . S
C383 C382 1.355 . S
C383 C385 1.419 . S
C384 C382 1.415 . S
C384 C389 1.425 . S
C384 C391 1.409 . S
C385 H377 0.930 . S
C385 C383 1.419 . S
C385 C386 1.362 . S
C386 H378 0.930 . S
C386 C385 1.362 . S
C386 C389 1.409 . S
C387 H379 0.930 . S
C387 C388 1.355 . S
C387 C389 1.415 . S
C388 C387 1.355 . S
C388 C390 1.419 . S
C389 C384 1.425 . S
C389 C386 1.409 . S
C389 C387 1.415 . S
C390 H380 0.930 1_455 S
C390 C388 1.419 . S
C390 C391 1.362 . S
C391 H381 0.930 1_455 S
C391 C384 1.409 . S
C391 C390 1.362 . S
H392 C398 0.930 . S
H393 C401 0.930 . S
H394 C402 0.930 . S
H395 C403 0.930 . S
H396 C406 0.930 1_545 S
H397 C407 0.930 1_545 S
C398 H392 0.930 . S
C398 C399 1.355 . S
C398 C400 1.415 . S
C399 C398 1.355 . S
C399 C401 1.419 . S
C400 C398 1.415 . S
C400 C405 1.425 . S
C400 C407 1.409 . S
C401 H393 0.930 . S
C401 C399 1.419 . S
C401 C402 1.362 . S
C402 H394 0.930 . S
C402 C401 1.362 . S
C402 C405 1.409 . S
C403 H395 0.930 . S
C403 C404 1.355 . S
C403 C405 1.415 . S
C404 C403 1.355 . S
C404 C406 1.419 . S
C405 C400 1.425 . S
C405 C402 1.409 . S
C405 C403 1.415 . S
C406 H396 0.930 1_565 S
C406 C404 1.419 . S
C406 C407 1.362 . S
C407 H397 0.930 1_565 S
C407 C400 1.409 . S
C407 C406 1.362 . S
H408 C414 0.930 . S
H409 C417 0.930 . S
H410 C418 0.930 . S
H411 C419 0.930 . S
H412 C422 0.930 . S
H413 C423 0.930 . S
C414 H408 0.930 . S
C414 C415 1.355 . S
C414 C416 1.415 . S
C415 C414 1.355 . S
C415 C417 1.419 . S
C416 C414 1.415 . S
C416 C421 1.425 . S
C416 C423 1.409 . S
C417 H409 0.930 . S
C417 C415 1.419 . S
C417 C418 1.362 . S
C418 H410 0.930 . S
C418 C417 1.362 . S
C418 C421 1.409 . S
C419 H411 0.930 . S
C419 C420 1.355 . S
C419 C421 1.415 . S
C420 C419 1.355 . S
C420 C422 1.419 . S
C421 C416 1.425 . S
C421 C418 1.409 . S
C421 C419 1.415 . S
C422 H412 0.930 . S
C422 C420 1.419 . S
C422 C423 1.362 . S
C423 H413 0.930 . S
C423 C416 1.409 . S
C423 C422 1.362 . S
H424 C430 0.930 . S
H425 C433 0.930 . S
H426 C434 0.930 . S
H427 C435 0.930 . S
H428 C438 0.930 . S
H429 C439 0.930 . S
C430 H424 0.930 . S
C430 C431 1.355 . S
C430 C432 1.415 . S
C431 C430 1.355 . S
C431 C433 1.419 . S
C432 C430 1.415 . S
C432 C437 1.425 . S
C432 C439 1.409 . S
C433 H425 0.930 . S
C433 C431 1.419 . S
C433 C434 1.362 . S
C434 H426 0.930 . S
C434 C433 1.362 . S
C434 C437 1.409 . S
C435 H427 0.930 . S
C435 C436 1.355 . S
C435 C437 1.415 . S
C436 C435 1.355 . S
C436 C438 1.419 . S
C437 C432 1.425 . S
C437 C434 1.409 . S
C437 C435 1.415 . S
C438 H428 0.930 . S
C438 C436 1.419 . S
C438 C439 1.362 . S
C439 H429 0.930 . S
C439 C432 1.409 . S
C439 C438 1.362 . S
H440 C446 0.930 . S
H441 C449 0.930 . S
H442 C450 0.930 . S
H443 C451 0.930 . S
H444 C454 0.930 . S
H445 C455 0.930 . S
C446 H440 0.930 . S
C446 C447 1.355 . S
C446 C448 1.415 . S
C447 C446 1.355 . S
C447 C449 1.419 . S
C448 C446 1.415 . S
C448 C453 1.425 . S
C448 C455 1.409 . S
C449 H441 0.930 . S
C449 C447 1.419 . S
C449 C450 1.362 . S
C450 H442 0.930 . S
C450 C449 1.362 . S
C450 C453 1.409 . S
C451 H443 0.930 . S
C451 C452 1.355 . S
C451 C453 1.415 . S
C452 C451 1.355 . S
C452 C454 1.419 . S
C453 C448 1.425 . S
C453 C450 1.409 . S
C453 C451 1.415 . S
C454 H444 0.930 . S
C454 C452 1.419 . S
C454 C455 1.362 . S
C455 H445 0.930 . S
C455 C448 1.409 . S
C455 C454 1.362 . S
H456 C462 0.930 . S
H457 C465 0.930 . S
H458 C466 0.930 . S
H459 C467 0.930 . S
H460 C470 0.930 . S
H461 C471 0.930 . S
C462 H456 0.930 . S
C462 C463 1.355 . S
C462 C464 1.415 . S
C463 C462 1.355 . S
C463 C465 1.419 . S
C464 C462 1.415 . S
C464 C469 1.425 . S
C464 C471 1.409 . S
C465 H457 0.930 . S
C465 C463 1.419 . S
C465 C466 1.362 . S
C466 H458 0.930 . S
C466 C465 1.362 . S
C466 C469 1.409 . S
C467 H459 0.930 . S
C467 C468 1.355 . S
C467 C469 1.415 . S
C468 C467 1.355 . S
C468 C470 1.419 . S
C469 C464 1.425 . S
C469 C466 1.409 . S
C469 C467 1.415 . S
C470 H460 0.930 . S
C470 C468 1.419 . S
C470 C471 1.362 . S
C471 H461 0.930 . S
C471 C464 1.409 . S
C471 C470 1.362 . S
H472 C478 0.930 . S
H473 C481 0.930 . S
H474 C482 0.930 1_554 S
H475 C483 0.930 1_554 S
H476 C486 0.930 . S
H477 C487 0.930 . S
C478 H472 0.930 . S
C478 C479 1.355 . S
C478 C480 1.415 . S
C479 C478 1.355 . S
C479 C481 1.419 . S
C480 C478 1.415 . S
C480 C485 1.425 . S
C480 C487 1.409 . S
C481 H473 0.930 . S
C481 C479 1.419 . S
C481 C482 1.362 . S
C482 H474 0.930 1_556 S
C482 C481 1.362 . S
C482 C485 1.409 . S
C483 H475 0.930 1_556 S
C483 C484 1.355 . S
C483 C485 1.415 . S
C484 C483 1.355 . S
C484 C486 1.419 . S
C485 C480 1.425 . S
C485 C482 1.409 . S
C485 C483 1.415 . S
C486 H476 0.930 . S
C486 C484 1.419 . S
C486 C487 1.362 . S
C487 H477 0.930 . S
C487 C480 1.409 . S
C487 C486 1.362 . S
H488 C494 0.930 . S
H489 C497 0.930 . S
H490 C498 0.930 . S
H491 C499 0.930 . S
H492 C502 0.930 . S
H493 C503 0.930 . S
C494 H488 0.930 . S
C494 C495 1.355 . S
C494 C496 1.415 . S
C495 C494 1.355 . S
C495 C497 1.419 . S
C496 C494 1.415 . S
C496 C501 1.425 . S
C496 C503 1.409 . S
C497 H489 0.930 . S
C497 C495 1.419 . S
C497 C498 1.362 . S
C498 H490 0.930 . S
C498 C497 1.362 . S
C498 C501 1.409 . S
C499 H491 0.930 . S
C499 C500 1.355 . S
C499 C501 1.415 . S
C500 C499 1.355 . S
C500 C502 1.419 . S
C501 C496 1.425 . S
C501 C498 1.409 . S
C501 C499 1.415 . S
C502 H492 0.930 . S
C502 C500 1.419 . S
C502 C503 1.362 . S
C503 H493 0.930 . S
C503 C496 1.409 . S
C503 C502 1.362 . S
H504 C510 0.930 . S
H505 C513 0.930 . S
H506 C514 0.930 . S
H507 C515 0.930 . S
H508 C518 0.930 1_655 S
H509 C519 0.916 1_655 S
C510 H504 0.930 . S
C510 C511 1.355 . S
C510 C512 1.415 . S
C511 C510 1.355 . S
C511 C513 1.419 . S
C512 C510 1.415 . S
C512 C517 1.425 . S
C512 C519 1.409 . S
C513 H505 0.930 . S
C513 C511 1.419 . S
C513 C514 1.362 . S
C514 H506 0.930 . S
C514 C513 1.362 . S
C514 C517 1.409 . S
C515 H507 0.930 . S
C515 C516 1.355 . S
C515 C517 1.415 . S
C516 C515 1.355 . S
C516 C518 1.419 . S
C517 C512 1.425 . S
C517 C514 1.409 . S
C517 C515 1.415 . S
C518 H508 0.930 1_455 S
C518 C516 1.419 . S
C518 C519 1.362 . S
C519 H509 0.916 1_455 S
C519 C512 1.409 . S
C519 C518 1.362 . S
H520 C526 0.930 . S
H521 C529 0.930 . S
H522 C530 0.930 . S
H523 C531 0.930 . S
H524 C534 0.930 . S
H525 C535 0.930 . S
C526 H520 0.930 . S
C526 C527 1.355 . S
C526 C528 1.415 . S
C527 C526 1.355 . S
C527 C529 1.419 . S
C528 C526 1.415 . S
C528 C533 1.425 . S
C528 C535 1.409 . S
C529 H521 0.930 . S
C529 C527 1.419 . S
C529 C530 1.362 . S
C530 H522 0.930 . S
C530 C529 1.362 . S
C530 C533 1.409 . S
C531 H523 0.930 . S
C531 C532 1.355 . S
C531 C533 1.415 . S
C532 C531 1.355 . S
C532 C534 1.419 . S
C533 C528 1.425 . S
C533 C530 1.409 . S
C533 C531 1.415 . S
C534 H524 0.930 . S
C534 C532 1.419 . S
C534 C535 1.362 . S
C535 H525 0.930 . S
C535 C528 1.409 . S
C535 C534 1.362 . S
H536 C542 0.929 . S
H537 C545 0.930 . S
H538 C546 0.930 . S
H539 C547 0.930 . S
H540 C550 0.930 . S
H541 C551 0.930 . S
C542 H536 0.929 . S
C542 C543 1.355 . S
C542 C544 1.415 . S
C543 C542 1.355 . S
C543 C545 1.419 . S
C544 C542 1.415 . S
C544 C549 1.425 . S
C544 C551 1.409 1_655 S
C545 H537 0.930 . S
C545 C543 1.419 . S
C545 C546 1.362 . S
C546 H538 0.930 . S
C546 C545 1.362 . S
C546 C549 1.409 . S
C547 H539 0.930 . S
C547 C548 1.355 . S
C547 C549 1.415 . S
C548 C547 1.355 . S
C548 C550 1.419 1_655 S
C549 C544 1.425 . S
C549 C546 1.409 . S
C549 C547 1.415 . S
C550 H540 0.930 . S
C550 C548 1.419 1_455 S
C550 C551 1.362 . S
C551 H541 0.930 . S
C551 C544 1.409 1_455 S
C551 C550 1.362 . S
H552 C558 0.930 . S
H553 C561 0.930 . S
H554 C562 0.930 . S
H555 C563 0.930 . S
H556 C566 0.930 . S
H557 C567 0.930 . S
C558 H552 0.930 . S
C558 C559 1.355 . S
C558 C560 1.415 . S
C559 C558 1.355 . S
C559 C561 1.419 . S
C560 C558 1.415 . S
C560 C565 1.425 . S
C560 C567 1.409 . S
C561 H553 0.930 . S
C561 C559 1.419 . S
C561 C562 1.362 . S
C562 H554 0.930 . S
C562 C561 1.362 . S
C562 C565 1.409 . S
C563 H555 0.930 . S
C563 C564 1.355 . S
C563 C565 1.415 . S
C564 C563 1.355 . S
C564 C566 1.419 . S
C565 C560 1.425 . S
C565 C562 1.409 . S
C565 C563 1.415 . S
C566 H556 0.930 . S
C566 C564 1.419 . S
C566 C567 1.362 . S
C567 H557 0.930 . S
C567 C560 1.409 . S
C567 C566 1.362 . S
H568 C574 0.930 . S
H569 C577 0.930 . S
H570 C578 0.930 1_455 S
H571 C579 0.930 1_455 S
H572 C582 0.930 . S
H573 C583 0.930 . S
C574 H568 0.930 . S
C574 C575 1.355 . S
C574 C576 1.415 . S
C575 C574 1.355 . S
C575 C577 1.419 . S
C576 C574 1.415 . S
C576 C581 1.425 . S
C576 C583 1.409 . S
C577 H569 0.930 . S
C577 C575 1.419 . S
C577 C578 1.362 . S
C578 H570 0.930 1_655 S
C578 C577 1.362 . S
C578 C581 1.409 . S
C579 H571 0.930 1_655 S
C579 C580 1.355 . S
C579 C581 1.415 . S
C580 C579 1.355 . S
C580 C582 1.419 . S
C581 C576 1.425 . S
C581 C578 1.409 . S
C581 C579 1.415 . S
C582 H572 0.930 . S
C582 C580 1.419 . S
C582 C583 1.362 . S
C583 H573 0.930 . S
C583 C576 1.409 . S
C583 C582 1.362 . S
H584 C590 0.930 . S
H585 C593 0.930 . S
H586 C594 0.930 . S
H587 C595 0.930 . S
H588 C598 0.930 . S
H589 C599 0.930 . S
C590 H584 0.930 . S
C590 C591 1.355 . S
C590 C592 1.415 . S
C591 C590 1.355 . S
C591 C593 1.419 . S
C592 C590 1.415 . S
C592 C597 1.425 . S
C592 C599 1.409 . S
C593 H585 0.930 . S
C593 C591 1.419 . S
C593 C594 1.362 . S
C594 H586 0.930 . S
C594 C593 1.362 . S
C594 C597 1.409 . S
C595 H587 0.930 . S
C595 C596 1.355 . S
C595 C597 1.415 . S
C596 C595 1.355 . S
C596 C598 1.419 . S
C597 C592 1.425 . S
C597 C594 1.409 . S
C597 C595 1.415 . S
C598 H588 0.930 . S
C598 C596 1.419 . S
C598 C599 1.362 . S
C599 H589 0.930 . S
C599 C592 1.409 . S
C599 C598 1.362 . S
H600 C606 0.930 . S
H601 C609 0.930 . S
H602 C610 0.930 . S
H603 C611 0.930 . S
H604 C614 0.930 . S
H605 C615 0.930 . S
C606 H600 0.930 . S
C606 C607 1.355 . S
C606 C608 1.415 . S
C607 C606 1.355 . S
C607 C609 1.419 . S
C608 C606 1.415 . S
C608 C613 1.425 . S
C608 C615 1.409 . S
C609 H601 0.930 . S
C609 C607 1.419 . S
C609 C610 1.362 . S
C610 H602 0.930 . S
C610 C609 1.362 . S
C610 C613 1.409 . S
C611 H603 0.930 . S
C611 C612 1.355 . S
C611 C613 1.415 . S
C612 C611 1.355 . S
C612 C614 1.419 . S
C613 C608 1.425 . S
C613 C610 1.409 . S
C613 C611 1.415 . S
C614 H604 0.930 . S
C614 C612 1.419 . S
C614 C615 1.362 . S
C615 H605 0.930 . S
C615 C608 1.409 . S
C615 C614 1.362 . S
H616 C622 0.930 . S
H617 C625 0.930 1_655 S
H618 C626 0.930 1_655 S
H619 C627 0.930 . S
H620 C630 0.930 . S
H621 C631 0.930 . S
C622 H616 0.930 . S
C622 C623 1.355 . S
C622 C624 1.415 . S
C623 C622 1.355 . S
C623 C625 1.419 . S
C624 C622 1.415 . S
C624 C629 1.425 . S
C624 C631 1.409 . S
C625 H617 0.930 1_455 S
C625 C623 1.419 . S
C625 C626 1.362 . S
C626 H618 0.930 1_455 S
C626 C625 1.362 . S
C626 C629 1.409 . S
C627 H619 0.930 . S
C627 C628 1.355 . S
C627 C629 1.415 . S
C628 C627 1.355 . S
C628 C630 1.419 . S
C629 C624 1.425 . S
C629 C626 1.409 . S
C629 C627 1.415 . S
C630 H620 0.930 . S
C630 C628 1.419 . S
C630 C631 1.362 . S
C631 H621 0.930 . S
C631 C624 1.409 . S
C631 C630 1.362 . S
H632 C638 0.930 . S
H633 C641 0.930 . S
H634 C642 0.930 . S
H635 C643 0.930 . S
H636 C646 0.930 . S
H637 C647 0.930 . S
C638 H632 0.930 . S
C638 C639 1.355 . S
C638 C640 1.415 . S
C639 C638 1.355 . S
C639 C641 1.419 . S
C640 C638 1.415 . S
C640 C645 1.425 . S
C640 C647 1.409 1_565 S
C641 H633 0.930 . S
C641 C639 1.419 . S
C641 C642 1.362 . S
C642 H634 0.930 . S
C642 C641 1.362 . S
C642 C645 1.409 . S
C643 H635 0.930 . S
C643 C644 1.355 . S
C643 C645 1.415 . S
C644 C643 1.355 . S
C644 C646 1.419 1_565 S
C645 C640 1.425 . S
C645 C642 1.409 . S
C645 C643 1.415 . S
C646 H636 0.930 . S
C646 C644 1.419 1_545 S
C646 C647 1.362 . S
C647 H637 0.930 . S
C647 C640 1.409 1_545 S
C647 C646 1.362 . S
H648 C654 0.930 . S
H649 C657 0.930 . S
H650 C658 0.930 . S
H651 C659 0.930 . S
H652 C662 0.930 . S
H653 C663 0.930 . S
C654 H648 0.930 . S
C654 C655 1.355 . S
C654 C656 1.415 . S
C655 C654 1.355 . S
C655 C657 1.419 . S
C656 C654 1.415 . S
C656 C661 1.425 . S
C656 C663 1.409 . S
C657 H649 0.930 . S
C657 C655 1.419 . S
C657 C658 1.362 . S
C658 H650 0.930 . S
C658 C657 1.362 . S
C658 C661 1.409 . S
C659 H651 0.930 . S
C659 C660 1.355 . S
C659 C661 1.415 . S
C660 C659 1.355 . S
C660 C662 1.419 . S
C661 C656 1.425 . S
C661 C658 1.409 . S
C661 C659 1.415 . S
C662 H652 0.930 . S
C662 C660 1.419 . S
C662 C663 1.362 . S
C663 H653 0.930 . S
C663 C656 1.409 . S
C663 C662 1.362 . S
H664 C670 0.930 . S
H665 C673 0.930 . S
H666 C674 0.930 . S
H667 C675 0.930 . S
H668 C678 0.930 1_556 S
H669 C679 0.930 1_556 S
C670 H664 0.930 . S
C670 C671 1.355 . S
C670 C672 1.415 . S
C671 C670 1.355 . S
C671 C673 1.419 . S
C672 C670 1.415 . S
C672 C677 1.425 . S
C672 C679 1.409 . S
C673 H665 0.930 . S
C673 C671 1.419 . S
C673 C674 1.362 . S
C674 H666 0.930 . S
C674 C673 1.362 . S
C674 C677 1.409 . S
C675 H667 0.930 . S
C675 C676 1.355 . S
C675 C677 1.415 . S
C676 C675 1.355 . S
C676 C678 1.419 . S
C677 C672 1.425 . S
C677 C674 1.409 . S
C677 C675 1.415 . S
C678 H668 0.930 1_554 S
C678 C676 1.419 . S
C678 C679 1.362 . S
C679 H669 0.930 1_554 S
C679 C672 1.409 . S
C679 C678 1.362 . S
H680 C686 0.930 . S
H681 C689 0.930 . S
H682 C690 0.930 . S
H683 C691 0.930 . S
H684 C694 0.930 . S
H685 C695 0.930 . S
C686 H680 0.930 . S
C686 C687 1.355 . S
C686 C688 1.415 . S
C687 C686 1.355 . S
C687 C689 1.419 . S
C688 C686 1.415 . S
C688 C693 1.425 . S
C688 C695 1.409 . S
C689 H681 0.930 . S
C689 C687 1.419 . S
C689 C690 1.362 . S
C690 H682 0.930 . S
C690 C689 1.362 . S
C690 C693 1.409 . S
C691 H683 0.930 . S
C691 C692 1.355 . S
C691 C693 1.415 . S
C692 C691 1.355 . S
C692 C694 1.419 . S
C693 C688 1.425 . S
C693 C690 1.409 . S
C693 C691 1.415 . S
C694 H684 0.930 . S
C694 C692 1.419 . S
C694 C695 1.362 . S
C695 H685 0.930 . S
C695 C688 1.409 . S
C695 C694 1.362 . S
H696 C702 0.930 . S
H697 C705 0.930 . S
H698 C706 0.930 . S
H699 C707 0.930 . S
H700 C710 0.930 1_455 S
H701 C711 0.930 . S
C702 H696 0.930 . S
C702 C703 1.355 . S
C702 C704 1.415 . S
C703 C702 1.355 . S
C703 C705 1.419 . S
C704 C702 1.415 . S
C704 C709 1.425 . S
C704 C711 1.409 1_556 S
C705 H697 0.930 . S
C705 C703 1.419 . S
C705 C706 1.362 . S
C706 H698 0.930 . S
C706 C705 1.362 . S
C706 C709 1.409 . S
C707 H699 0.930 . S
C707 C708 1.355 . S
C707 C709 1.415 . S
C708 C707 1.355 . S
C708 C710 1.419 1_556 S
C709 C704 1.425 . S
C709 C706 1.409 . S
C709 C707 1.415 . S
C710 H700 0.930 1_655 S
C710 C708 1.419 1_554 S
C710 C711 1.362 . S
C711 H701 0.930 . S
C711 C704 1.409 1_554 S
C711 C710 1.362 . S
H712 C718 0.930 . S
H713 C721 0.930 . S
H714 C722 0.930 . S
H715 C723 0.930 . S
H716 C726 0.930 . S
H717 C727 0.930 . S
C718 H712 0.930 . S
C718 C719 1.355 . S
C718 C720 1.415 . S
C719 C718 1.355 . S
C719 C721 1.419 . S
C720 C718 1.415 . S
C720 C725 1.425 . S
C720 C727 1.409 . S
C721 H713 0.930 . S
C721 C719 1.419 . S
C721 C722 1.362 . S
C722 H714 0.930 . S
C722 C721 1.362 . S
C722 C725 1.409 . S
C723 H715 0.930 . S
C723 C724 1.355 . S
C723 C725 1.415 . S
C724 C723 1.355 . S
C724 C726 1.419 . S
C725 C720 1.425 . S
C725 C722 1.409 . S
C725 C723 1.415 . S
C726 H716 0.930 . S
C726 C724 1.419 . S
C726 C727 1.362 . S
C727 H717 0.930 . S
C727 C720 1.409 . S
C727 C726 1.362 . S
H728 C734 0.930 . S
H729 C737 0.930 . S
H730 C738 0.938 . S
H731 C739 0.930 . S
H732 C742 0.930 . S
H733 C743 0.930 . S
C734 H728 0.930 . S
C734 C735 1.355 . S
C734 C736 1.415 . S
C735 C734 1.355 . S
C735 C737 1.419 . S
C736 C734 1.415 . S
C736 C741 1.425 . S
C736 C743 1.409 . S
C737 H729 0.930 . S
C737 C735 1.419 . S
C737 C738 1.362 . S
C738 H730 0.938 . S
C738 C737 1.362 . S
C738 C741 1.409 . S
C739 H731 0.930 . S
C739 C740 1.355 . S
C739 C741 1.415 . S
C740 C739 1.355 . S
C740 C742 1.419 . S
C741 C736 1.425 . S
C741 C738 1.409 . S
C741 C739 1.415 . S
C742 H732 0.930 . S
C742 C740 1.419 . S
C742 C743 1.362 . S
C743 H733 0.930 . S
C743 C736 1.409 . S
C743 C742 1.362 . S
H744 C750 0.930 . S
H745 C753 0.930 . S
H746 C754 0.930 . S
H747 C755 0.930 . S
H748 C758 0.930 . S
H749 C759 0.930 . S
C750 H744 0.930 . S
C750 C751 1.355 . S
C750 C752 1.415 . S
C751 C750 1.355 . S
C751 C753 1.419 . S
C752 C750 1.415 . S
C752 C757 1.425 . S
C752 C759 1.409 . S
C753 H745 0.930 . S
C753 C751 1.419 . S
C753 C754 1.362 . S
C754 H746 0.930 . S
C754 C753 1.362 . S
C754 C757 1.409 . S
C755 H747 0.930 . S
C755 C756 1.355 . S
C755 C757 1.415 . S
C756 C755 1.355 . S
C756 C758 1.419 . S
C757 C752 1.425 . S
C757 C754 1.409 . S
C757 C755 1.415 . S
C758 H748 0.930 . S
C758 C756 1.419 . S
C758 C759 1.362 . S
C759 H749 0.930 . S
C759 C752 1.409 . S
C759 C758 1.362 . S
C383 C29 2.046 . S
C388 C272 2.190 . S
C399 C49 1.116 . S
C404 N292 1.122 . S
C420 C326 2.008 . S
C415 C93 1.882 . S
C431 C119 1.249 . S
C436 N360 1.227 . S
C452 C313 2.281 . S
C447 C17 2.163 . S
C468 N270 1.238 . S
C463 C61 1.252 . S
C484 C347 1.983 1_556 S
C479 C81 1.886 . S
C500 N322 1.084 . S
C495 C125 1.022 . S
C511 C23 1.659 . S
C516 C362 1.789 . S
C532 C296 1.682 . S
C527 C87 1.571 . S
C543 C113 1.396 . S
C548 C257 1.471 . S
C559 C55 1.436 . S
C564 C343 1.435 . S
C580 C283 2.121 . S
C575 C157 2.108 . S
C591 C189 1.027 . S
C596 N300 1.156 . S
C607 C221 1.989 . S
C612 C317 1.979 . S
C623 C253 1.273 . S
C628 N352 1.309 . S
C639 C145 2.323 . S
C644 C302 2.321 . S
C660 N262 1.065 . S
C655 C183 1.039 . S
C676 C356 2.019 . S
C671 C209 2.020 . S
C692 N330 1.054 . S
C687 C247 0.919 . S
C703 C151 1.808 . S
C708 C373 1.801 . S
C724 C287 1.686 . S
C719 C215 1.702 . S
C740 C266 1.483 . S
C735 C241 1.408 . S
C751 C177 1.327 . S
C756 C332 1.449 . S
