# Generated by pormake.
# Topology tsx, (6,3)-cn, num edge types: 1
# Building blocks:
#     Node 0, Type 0, BuildingBlock: MIDCAF_clean_sbu_0, # of connection points: 6
#     Node 1, Type 0, BuildingBlock: MIDCAF_clean_sbu_0, # of connection points: 6
#     Node 2, Type 1, BuildingBlock: BETDAH_clean_linker_0, # of connection points: 3
#     Node 3, Type 1, BuildingBlock: BETDAH_clean_linker_0, # of connection points: 3
#     Node 4, Type 1, BuildingBlock: BETDAH_clean_linker_0, # of connection points: 3
#     Node 5, Type 1, BuildingBlock: BETDAH_clean_linker_0, # of connection points: 3
#     Edge 6, Type (0, 1), BuildingBlock: EZIPEK_clean_linker_0, # of connection points: 2
#     Edge 7, Type (0, 1), BuildingBlock: EZIPEK_clean_linker_0, # of connection points: 2
#     Edge 8, Type (0, 1), BuildingBlock: EZIPEK_clean_linker_0, # of connection points: 2
#     Edge 9, Type (0, 1), BuildingBlock: EZIPEK_clean_linker_0, # of connection points: 2
#     Edge 10, Type (0, 1), BuildingBlock: EZIPEK_clean_linker_0, # of connection points: 2
#     Edge 11, Type (0, 1), BuildingBlock: EZIPEK_clean_linker_0, # of connection points: 2
#     Edge 12, Type (0, 1), BuildingBlock: EZIPEK_clean_linker_0, # of connection points: 2
#     Edge 13, Type (0, 1), BuildingBlock: EZIPEK_clean_linker_0, # of connection points: 2
#     Edge 14, Type (0, 1), BuildingBlock: EZIPEK_clean_linker_0, # of connection points: 2
#     Edge 15, Type (0, 1), BuildingBlock: EZIPEK_clean_linker_0, # of connection points: 2
#     Edge 16, Type (0, 1), BuildingBlock: EZIPEK_clean_linker_0, # of connection points: 2
#     Edge 17, Type (0, 1), BuildingBlock: EZIPEK_clean_linker_0, # of connection points: 2
# Relax obj value: 0.077
# Max RMSD: 0.147
# Mean RMSD: 0.105
data_MOF--net-tsx--node1-MIDCAF_clean_sbu_0--node2-BETDAH_clean_linker_0--edge1-EZIPEK_clean_linker_0
_symmetry_space_group_name_H-M    P1
_symmetry_Int_Tables_number       1
_symmetry_cell_setting            triclinic
loop_
_symmetry_equiv_pos_as_xyz
'x, y, z'
_cell_length_a     14.808682
_cell_length_b     15.372542
_cell_length_c     26.290793
_cell_angle_alpha  91.11494
_cell_angle_beta   105.01335
_cell_angle_gamma 90.37197
loop_
_atom_site_label
_atom_site_type_symbol
_atom_site_fract_x
_atom_site_fract_y
_atom_site_fract_z
_atom_type_partial_charge
Zn0 Zn 0.9021 0.98864 0.93525 0.0
Zn1 Zn 0.2175 0.05153 0.05718 0.0
Zn2 Zn 0.05784 0.03193 -0.00562 0.0
C3 C 0.16425 0.21431 0.01919 0.0
C4 C 0.24093 0.93222 0.98266 0.0
O5 O 0.98171 0.93876 0.03409 0.0
O6 O 0.87002 0.88338 0.96834 0.0
C7 C 0.8988 0.16719 0.96333 0.0
O8 O 0.08441 0.17553 0.00177 0.0
O9 O 0.23559 0.17177 0.04134 0.0
O10 O 0.28378 0.96212 0.02751 0.0
O11 O 0.15776 0.95839 0.96038 0.0
O12 O 0.8466 0.10133 0.94783 0.0
O13 O 0.98797 0.15807 0.97919 0.0
O14 O 0.08168 0.98126 0.91948 0.0
O15 O 0.93718 0.97766 0.86868 0.0
C16 C 0.02389 0.97358 0.87355 0.0
O17 O 0.05158 0.98051 0.07068 0.0
O18 O 0.18387 0.03088 0.12353 0.0
C19 C 0.91518 0.88275 0.01604 0.0
C20 C 0.10532 -0.00584 0.1172 0.0
Zn21 Zn 0.73463 0.4862 0.55567 0.0
Zn22 Zn 0.41559 0.45974 0.41824 0.0
Zn23 Zn 0.56893 0.48718 0.48753 0.0
C24 C 0.54718 0.43133 0.36574 0.0
C25 C 0.43304 0.6368 0.45551 0.0
O26 O 0.54494 0.43589 0.5589 0.0
O27 O 0.67861 0.47266 0.61583 0.0
C28 C 0.74131 0.36891 0.47739 0.0
O29 O 0.59648 0.43568 0.4139 0.0
O30 O 0.46024 0.44309 0.35471 0.0
O31 O 0.37535 0.57828 0.43296 0.0
O32 O 0.51914 0.61853 0.47531 0.0
O33 O 0.7855 0.38534 0.52449 0.0
O34 O 0.66495 0.40842 0.45616 0.0
O35 O 0.61301 0.62438 0.5016 0.0
O36 O 0.76364 0.60703 0.53931 0.0
C37 C 0.69591 0.65622 0.51987 0.0
O38 O 0.46909 0.40898 0.51943 0.0
O39 O 0.3616 0.36235 0.44887 0.0
C40 C 0.59493 0.44627 0.60645 0.0
C41 C 0.39553 0.3627 0.49812 0.0
H42 H 0.19655 0.87356 0.33027 0.0
H43 H 0.94312 0.00863 0.32933 0.0
H44 H 0.12121 0.92227 0.4755 0.0
C45 C 0.14902 0.90059 0.35147 0.0
C46 C 0.16812 0.89192 0.40618 0.0
C47 C 0.06914 0.94426 0.32388 0.0
C48 C 0.00606 0.97665 0.35087 0.0
C49 C 0.02555 0.96885 0.40568 0.0
C50 C 0.10694 0.92811 0.43315 0.0
N51 N 0.96375 0.00013 0.43422 0.0
C52 C 0.91023 0.07329 0.41998 0.0
H53 H 0.90586 0.90978 0.65452 0.0
H54 H 0.0951 0.12175 0.6504 0.0
H55 H 0.87533 0.05185 0.51291 0.0
C56 C 0.92955 0.96126 0.63327 0.0
C57 C 0.8864 0.97148 0.5798 0.0
C58 C 0.00301 0.017 0.65944 0.0
C59 C 0.03696 0.07985 0.63063 0.0
C60 C 0.98966 0.09369 0.57772 0.0
C61 C 0.91236 0.04141 0.55335 0.0
N62 N 0.01688 0.16032 0.5482 0.0
C63 C 0.1081 0.1909 0.55713 0.0
H64 H 0.6621 0.39283 0.82091 0.0
H65 H 0.40954 0.53736 0.80763 0.0
H66 H 0.576 0.46361 0.95964 0.0
C67 C 0.61406 0.42579 0.83951 0.0
C68 C 0.62983 0.42484 0.89432 0.0
C69 C 0.53545 0.46683 0.80826 0.0
C70 C 0.47174 0.50763 0.83181 0.0
C71 C 0.48746 0.50825 0.88658 0.0
C72 C 0.56623 0.46682 0.91766 0.0
N73 N 0.41839 0.54007 0.91008 0.0
C74 C 0.39769 0.62777 0.91256 0.0
H75 H 0.43067 0.39717 0.15344 0.0
H76 H 0.692 0.51934 0.15125 0.0
H77 H 0.46925 0.49665 0.00941 0.0
C78 C 0.47389 0.4298 0.13191 0.0
C79 C 0.43904 0.44245 0.0777 0.0
C80 C 0.56393 0.45947 0.15878 0.0
C81 C 0.62165 0.49868 0.1308 0.0
C82 C 0.58715 0.51248 0.07673 0.0
C83 C 0.49583 0.48574 0.051 0.0
N84 N 0.64255 0.55059 0.04634 0.0
C85 C 0.71793 0.60686 0.0655 0.0
C86 C 0.24365 0.31795 0.97897 0.0
C87 C 0.18124 0.30667 0.01043 0.0
C88 C 0.2655 0.42222 0.06929 0.0
C89 C 0.34459 0.40726 0.04892 0.0
N90 N 0.4079 0.3268 0.98559 0.0
N91 N 0.12004 0.36026 0.08037 0.0
C92 C 0.33309 0.35355 0.00284 0.0
C93 C 0.18656 0.36504 0.05313 0.0
N94 N 0.22211 0.28283 0.92937 0.0
N95 N 0.26629 0.48986 0.10377 0.0
H96 H 0.06175 0.3191 0.06756 0.0
H97 H 0.12464 0.39411 0.11569 0.0
H98 H 0.322 0.53422 0.11445 0.0
H99 H 0.20838 0.50658 0.11731 0.0
H100 H 0.2639 0.29185 0.90344 0.0
H101 H 0.15749 0.25255 0.9136 0.0
H102 H 0.40141 0.28157 0.95476 0.0
H103 H 0.47692 0.33991 0.00597 0.0
C104 C 0.31837 0.78867 -0.00333 0.0
C105 C 0.28179 0.85633 0.96153 0.0
C106 C 0.32635 0.77473 0.89076 0.0
C107 C 0.37024 0.71266 0.92799 0.0
N108 N 0.44083 0.6835 0.01891 0.0
N109 N 0.27267 0.9237 0.8782 0.0
C110 C 0.37669 0.72692 0.98181 0.0
C111 C 0.29166 0.85249 0.90916 0.0
N112 N 0.29453 0.78056 0.04325 0.0
N113 N 0.31781 0.75956 0.83843 0.0
H114 H 0.25083 0.98233 0.89144 0.0
H115 H 0.28632 0.9267 0.84134 0.0
H116 H 0.34598 0.70467 0.82456 0.0
H117 H 0.2789 0.79899 0.80912 0.0
H118 H 0.31526 0.72781 0.06778 0.0
H119 H 0.2451 0.81981 0.0541 0.0
H120 H 0.45175 0.69547 0.05926 0.0
H121 H 0.4917 0.64602 0.00839 0.0
C122 C 0.82576 0.82852 0.07791 0.0
C123 C 0.89289 0.81331 0.04907 0.0
C124 C 0.86742 0.65608 0.05027 0.0
C125 C 0.79151 0.67214 0.0725 0.0
N126 N 0.71394 0.76621 0.12118 0.0
N127 N 0.99928 0.71606 0.02263 0.0
C128 C 0.77663 0.75621 0.0915 0.0
C129 C 0.92145 0.72772 0.04066 0.0
N130 N 0.8061 0.91217 0.08948 0.0
N131 N 0.88377 0.57301 0.03563 0.0
H132 H 0.03957 0.76847 0.01587 0.0
H133 H 0.02832 0.65572 0.01853 0.0
H134 H 0.84729 0.51933 0.04433 0.0
H135 H 0.93126 0.55705 0.014 0.0
H136 H 0.75222 0.92954 0.1062 0.0
H137 H 0.84431 0.96519 0.08152 0.0
H138 H 0.70195 0.82478 0.13864 0.0
H139 H 0.6781 0.7133 0.13136 0.0
C140 C 0.76871 0.25032 0.98119 0.0
C141 C 0.8515 0.252 0.9639 0.0
C142 C 0.80158 0.39042 0.9217 0.0
C143 C 0.7093 0.37349 0.92584 0.0
N144 N 0.60344 0.27501 0.95329 0.0
N145 N 0.9479 0.3263 0.91656 0.0
C146 C 0.69241 0.30129 0.95504 0.0
C147 C 0.86981 0.32399 0.9349 0.0
N148 N 0.7615 0.19595 0.02041 0.0
N149 N 0.82327 0.46914 0.90453 0.0
H150 H 0.99924 0.27912 0.92515 0.0
H151 H 0.95867 0.37244 0.89014 0.0
H152 H 0.77464 0.51908 0.89544 0.0
H153 H 0.89123 0.48747 0.90471 0.0
H154 H 0.70429 0.19625 0.03666 0.0
H155 H 0.81746 0.1579 0.04007 0.0
H156 H 0.58856 0.21794 0.97048 0.0
H157 H 0.54454 0.30395 0.92953 0.0
C158 C 0.7913 0.77187 0.49565 0.0
C159 C 0.71689 0.74997 0.51761 0.0
C160 C 0.73222 0.89274 0.56206 0.0
C161 C 0.82022 0.9037 0.5509 0.0
N162 N 0.93744 0.85009 0.5092 0.0
N163 N 0.6099 0.79139 0.56888 0.0
C164 C 0.84999 0.84355 0.51711 0.0
C165 C 0.68356 0.81188 0.54892 0.0
N166 N 0.80724 0.72183 0.45545 0.0
N167 N 0.69634 0.95926 0.58564 0.0
H168 H 0.57059 0.73444 0.55835 0.0
H169 H 0.58984 0.82924 0.59726 0.0
H170 H 0.73126 0.01889 0.59549 0.0
H171 H 0.62908 0.95828 0.59097 0.0
H172 H 0.85582 0.7385 0.43473 0.0
H173 H 0.76451 0.66852 0.43952 0.0
H174 H 0.9659 0.80207 0.48979 0.0
H175 H 0.98498 0.8996 0.52571 0.0
C176 C 0.86247 0.30837 0.43707 0.0
C177 C 0.77431 0.29894 0.44813 0.0
C178 C 0.76382 0.14739 0.41726 0.0
C179 C 0.85862 0.15276 0.41668 0.0
N180 N -0.00063 0.23596 0.42283 0.0
N181 N 0.6403 0.20975 0.45053 0.0
C182 C 0.90792 0.23304 0.42458 0.0
C183 C 0.72348 0.21907 0.43754 0.0
N184 N 0.902 0.38927 0.43857 0.0
N185 N 0.71362 0.07293 0.3996 0.0
H186 H 0.60787 0.26058 0.46546 0.0
H187 H 0.60587 0.15025 0.4496 0.0
H188 H 0.74289 0.01947 0.38492 0.0
H189 H 0.64178 0.06718 0.39481 0.0
H190 H 0.96286 0.40163 0.42698 0.0
H191 H 0.86909 0.44547 0.44718 0.0
H192 H 0.04308 0.28994 0.43475 0.0
H193 H 0.03277 0.18223 0.41136 0.0
C194 C 0.33241 0.2213 0.51832 0.0
C195 C 0.3466 0.31142 0.53015 0.0
C196 C 0.22772 0.30762 0.57987 0.0
C197 C 0.20004 0.22417 0.55771 0.0
N198 N 0.22927 0.09562 0.51114 0.0
N199 N 0.31327 0.44085 0.5753 0.0
C200 C 0.25459 0.17844 0.52934 0.0
C201 C 0.29776 0.35431 0.56318 0.0
N202 N 0.39357 0.17765 0.49635 0.0
N203 N 0.18604 0.34207 0.61626 0.0
H204 H 0.36555 0.47657 0.56507 0.0
H205 H 0.27209 0.47838 0.59363 0.0
H206 H 0.13437 0.30837 0.62866 0.0
H207 H 0.20823 0.39956 0.63753 0.0
H208 H 0.39173 0.11059 0.48984 0.0
H209 H 0.45185 0.20834 0.48896 0.0
H210 H 0.25918 0.06177 0.48509 0.0
H211 H 0.17548 0.06151 0.52123 0.0
C212 C 0.31745 0.71812 0.48686 0.0
C213 C 0.39434 0.72161 0.46479 0.0
C214 C 0.34013 0.86094 0.42687 0.0
C215 C 0.25032 0.84135 0.43427 0.0
N216 N 0.15205 0.74067 0.46701 0.0
N217 N 0.48645 0.80063 0.41775 0.0
C218 C 0.23862 0.76841 0.46448 0.0
C219 C 0.40952 0.79555 0.43702 0.0
N220 N 0.31769 0.66139 0.52611 0.0
N221 N 0.35815 0.94096 0.40988 0.0
H222 H 0.53901 0.75421 0.42604 0.0
H223 H 0.49589 0.8487 0.39215 0.0
H224 H 0.30877 0.99043 0.40348 0.0
H225 H 0.42431 0.96055 0.40735 0.0
H226 H 0.26495 0.65929 0.54577 0.0
H227 H 0.37632 0.62395 0.54228 0.0
H228 H 0.14137 0.68333 0.48527 0.0
H229 H 0.09004 0.76814 0.44575 0.0
C230 C 0.06202 0.89478 0.18192 0.0
C231 C 0.07097 0.97972 0.16399 0.0
C232 C 0.06352 0.04317 0.24843 0.0
C233 C 0.05485 0.95814 0.26686 0.0
N234 N 0.01741 0.8063 0.24701 0.0
N235 N 0.04783 0.13374 0.17244 0.0
C236 C 0.04417 0.88488 0.23199 0.0
C237 C 0.06025 0.05361 0.1947 0.0
N238 N 0.07626 0.8241 0.1528 0.0
N239 N 0.08194 0.11315 0.28262 0.0
H240 H 0.0443 0.14305 0.13274 0.0
H241 H 0.03125 0.1888 0.19179 0.0
H242 H 0.08816 0.10888 0.32286 0.0
H243 H 0.09926 0.17462 0.27178 0.0
H244 H 0.08011 0.76073 0.16644 0.0
H245 H 0.09027 0.82959 0.1161 0.0
H246 H 0.00072 0.75237 0.2216 0.0
H247 H 0.00308 0.79781 0.28345 0.0
C248 C 0.04355 0.0726 0.80517 0.0
C249 C 0.05502 0.98775 0.8255 0.0
C250 C 0.07104 0.93189 0.74077 0.0
C251 C 0.0377 0.01236 0.7177 0.0
N252 N 0.98065 0.15753 0.72837 0.0
N253 N 0.07992 0.83529 0.81399 0.0
C254 C 0.02307 0.08327 0.75007 0.0
C255 C 0.07036 0.91692 0.7939 0.0
N256 N 0.04692 0.14247 0.83853 0.0
N257 N 0.10212 0.87007 0.71158 0.0
H258 H 0.08284 0.82394 0.85341 0.0
H259 H 0.08125 0.77927 0.79129 0.0
H260 H 0.10452 0.88051 0.67283 0.0
H261 H 0.13323 0.81251 0.72716 0.0
H262 H 0.0473 0.20669 0.8266 0.0
H263 H 0.05845 0.13581 0.87912 0.0
H264 H 0.95888 0.20647 0.7503 0.0
H265 H 0.95819 0.1675 0.68806 0.0
C266 C 0.54223 0.53468 0.67199 0.0
C267 C 0.54938 0.45131 0.64974 0.0
C268 C 0.50523 0.38376 0.7229 0.0
C269 C 0.52122 0.46509 0.75056 0.0
N270 N 0.55634 0.61919 0.75204 0.0
N271 N 0.52954 0.29608 0.64969 0.0
C272 C 0.53778 0.54153 0.72493 0.0
C273 C 0.5265 0.37549 0.67336 0.0
N274 N 0.5408 0.60702 0.64239 0.0
N275 N 0.47061 0.31511 0.74449 0.0
H276 H 0.54224 0.28932 0.61258 0.0
H277 H 0.52305 0.23723 0.66741 0.0
H278 H 0.4539 0.32049 0.78063 0.0
H279 H 0.45079 0.25585 0.72479 0.0
H280 H 0.5274 0.66922 0.65487 0.0
H281 H 0.5432 0.60313 0.60309 0.0
H282 H 0.58007 0.67433 0.7368 0.0
H283 H 0.55451 0.62748 0.79117 0.0
C284 C 0.58941 0.35685 0.2901 0.0
C285 C 0.59234 0.4321 0.32215 0.0
C286 C 0.60357 0.52567 0.25023 0.0
C287 C 0.59462 0.45067 0.21676 0.0
N288 N 0.61039 0.29564 0.20813 0.0
N289 N 0.63632 0.58272 0.33983 0.0
C290 C 0.59895 0.3662 0.23811 0.0
C291 C 0.61271 0.51452 0.30466 0.0
N292 N 0.57257 0.27762 0.30856 0.0
N293 N 0.59452 0.6072 0.22972 0.0
H294 H 0.64148 0.57617 0.37989 0.0
H295 H 0.65979 0.64275 0.33029 0.0
H296 H 0.58487 0.61924 0.18987 0.0
H297 H 0.58923 0.66311 0.25173 0.0
H298 H 0.55956 0.22098 0.28534 0.0
H299 H 0.56801 0.26986 0.34716 0.0
H300 H 0.62055 0.23285 0.22252 0.0
H301 H 0.61829 0.30172 0.17002 0.0
loop_
_geom_bond_atom_site_label_1
_geom_bond_atom_site_label_2
_geom_bond_distance
_geom_bond_site_symmetry_2
_ccdc_geom_bond_type
Zn0 O6 1.920 1_545 S
Zn0 O12 1.898 . S
Zn0 O15 1.905 1_545 S
Zn1 O9 1.905 . S
Zn1 O10 1.898 1_545 S
Zn1 O18 1.920 1_545 S
Zn2 O5 2.080 1_444 S
Zn2 O8 2.114 . S
Zn2 O11 2.120 1_545 S
Zn2 O13 2.120 1_455 S
Zn2 O14 2.114 1_554 S
Zn2 O17 2.080 . S
C3 O8 1.166 . S
C3 O9 1.182 . S
C4 O10 1.167 . S
C4 O11 1.299 . S
O5 Zn2 2.080 1_666 S
O5 C19 1.305 . S
O6 Zn0 1.920 1_565 S
O6 C19 1.234 . S
C7 O12 1.167 . S
C7 O13 1.299 1_556 S
O8 Zn2 2.114 . S
O8 C3 1.166 . S
O9 Zn1 1.905 . S
O9 C3 1.182 . S
O10 Zn1 1.898 1_565 S
O10 C4 1.167 . S
O11 Zn2 2.120 1_565 S
O11 C4 1.299 . S
O12 Zn0 1.898 . S
O12 C7 1.167 . S
O13 Zn2 2.120 1_655 S
O13 C7 1.299 1_554 S
O14 Zn2 2.114 1_556 S
O14 C16 1.166 1_445 S
O15 Zn0 1.905 1_565 S
O15 C16 1.182 . S
C16 O14 1.166 1_665 S
C16 O15 1.182 . S
O17 Zn2 2.080 . S
O17 C20 1.305 1_545 S
O18 Zn1 1.920 1_565 S
O18 C20 1.234 . S
C19 O5 1.305 . S
C19 O6 1.234 . S
C20 O17 1.305 1_565 S
C20 O18 1.234 . S
Zn21 O27 1.920 . S
Zn21 O33 1.898 . S
Zn21 O36 1.905 . S
Zn22 O30 1.905 . S
Zn22 O31 1.898 . S
Zn22 O39 1.920 . S
Zn23 O26 2.080 . S
Zn23 O29 2.114 . S
Zn23 O32 2.120 . S
Zn23 O34 2.120 . S
Zn23 O35 2.114 . S
Zn23 O38 2.080 . S
C24 O29 1.166 . S
C24 O30 1.182 . S
C25 O31 1.167 . S
C25 O32 1.299 . S
O26 Zn23 2.080 . S
O26 C40 1.305 . S
O27 Zn21 1.920 . S
O27 C40 1.234 . S
C28 O33 1.167 . S
C28 O34 1.299 . S
O29 Zn23 2.114 . S
O29 C24 1.166 . S
O30 Zn22 1.905 . S
O30 C24 1.182 . S
O31 Zn22 1.898 . S
O31 C25 1.167 . S
O32 Zn23 2.120 . S
O32 C25 1.299 . S
O33 Zn21 1.898 . S
O33 C28 1.167 . S
O34 Zn23 2.120 . S
O34 C28 1.299 . S
O35 Zn23 2.114 . S
O35 C37 1.166 . S
O36 Zn21 1.905 . S
O36 C37 1.182 . S
C37 O35 1.166 . S
C37 O36 1.182 . S
O38 Zn23 2.080 . S
O38 C41 1.305 . S
O39 Zn22 1.920 . S
O39 C41 1.234 . S
C40 O26 1.305 . S
C40 O27 1.234 . S
C41 O38 1.305 . S
C41 O39 1.234 . S
H42 C45 0.929 . S
H43 C48 0.929 . S
H44 C50 0.930 . S
C45 H42 0.929 . S
C45 C46 1.398 . S
C45 C47 1.396 1_565 S
C46 C45 1.398 . S
C46 C50 1.407 . S
C47 C45 1.396 1_545 S
C47 C48 1.394 . S
C48 H43 0.929 . S
C48 C47 1.394 . S
C48 C49 1.382 . S
C49 C48 1.382 . S
C49 C50 1.392 1_545 S
C49 N51 1.420 . S
C50 H44 0.930 . S
C50 C46 1.407 . S
C50 C49 1.392 1_565 S
N51 C49 1.420 . S
N51 C52 1.244 1_455 S
C52 N51 1.244 1_655 S
H53 C56 0.929 . S
H54 C59 0.929 . S
H55 C61 0.930 . S
C56 H53 0.929 . S
C56 C57 1.398 . S
C56 C58 1.396 1_565 S
C57 C56 1.398 . S
C57 C61 1.407 . S
C58 C56 1.396 1_545 S
C58 C59 1.394 1_655 S
C59 H54 0.929 . S
C59 C58 1.394 1_455 S
C59 C60 1.382 . S
C60 C59 1.382 . S
C60 C61 1.392 1_445 S
C60 N62 1.420 . S
C61 H55 0.930 . S
C61 C57 1.407 . S
C61 C60 1.392 1_665 S
N62 C60 1.420 . S
N62 C63 1.244 . S
C63 N62 1.244 . S
H64 C67 0.929 . S
H65 C70 0.929 . S
H66 C72 0.930 . S
C67 H64 0.929 . S
C67 C68 1.398 . S
C67 C69 1.396 . S
C68 C67 1.398 . S
C68 C72 1.407 . S
C69 C67 1.396 . S
C69 C70 1.394 . S
C70 H65 0.929 . S
C70 C69 1.394 . S
C70 C71 1.382 . S
C71 C70 1.382 . S
C71 C72 1.392 . S
C71 N73 1.420 . S
C72 H66 0.930 . S
C72 C68 1.407 . S
C72 C71 1.392 . S
N73 C71 1.420 . S
N73 C74 1.244 . S
C74 N73 1.244 . S
H75 C78 0.929 . S
H76 C81 0.929 . S
H77 C83 0.930 . S
C78 H75 0.929 . S
C78 C79 1.398 . S
C78 C80 1.396 . S
C79 C78 1.398 . S
C79 C83 1.407 . S
C80 C78 1.396 . S
C80 C81 1.394 . S
C81 H76 0.929 . S
C81 C80 1.394 . S
C81 C82 1.382 . S
C82 C81 1.382 . S
C82 C83 1.392 . S
C82 N84 1.420 . S
C83 H77 0.930 . S
C83 C79 1.407 . S
C83 C82 1.392 . S
N84 C82 1.420 . S
N84 C85 1.244 . S
C85 N84 1.244 . S
C86 C87 1.363 . S
C86 C92 1.379 . S
C86 N94 1.356 1_554 S
C87 C86 1.363 . S
C87 C93 1.363 . S
C88 C89 1.363 . S
C88 C93 1.379 . S
C88 N95 1.356 . S
C89 C88 1.363 . S
C89 C92 1.363 . S
N90 C92 1.356 1_556 S
N90 H102 0.984 . S
N90 H103 0.985 1_556 S
N91 C93 1.356 . S
N91 H96 0.984 . S
N91 H97 0.985 . S
C92 C86 1.379 . S
C92 C89 1.363 . S
C92 N90 1.356 1_554 S
C93 C87 1.363 . S
C93 C88 1.379 . S
C93 N91 1.356 . S
N94 C86 1.356 1_556 S
N94 H100 0.984 . S
N94 H101 0.984 . S
N95 C88 1.356 . S
N95 H98 0.984 . S
N95 H99 0.985 . S
H96 N91 0.984 . S
H97 N91 0.985 . S
H98 N95 0.984 . S
H99 N95 0.985 . S
H100 N94 0.984 . S
H101 N94 0.984 . S
H102 N90 0.984 . S
H103 N90 0.985 1_554 S
C104 C105 1.363 1_554 S
C104 C110 1.379 . S
C104 N112 1.356 . S
C105 C104 1.363 1_556 S
C105 C111 1.363 . S
C106 C107 1.363 . S
C106 C111 1.379 . S
C106 N113 1.356 . S
C107 C106 1.363 . S
C107 C110 1.363 1_556 S
N108 C110 1.356 . S
N108 H120 0.984 . S
N108 H121 0.985 . S
N109 C111 1.356 . S
N109 H114 0.984 . S
N109 H115 0.985 . S
C110 C104 1.379 . S
C110 C107 1.363 1_554 S
C110 N108 1.356 . S
C111 C105 1.363 . S
C111 C106 1.379 . S
C111 N109 1.356 . S
N112 C104 1.356 . S
N112 H118 0.984 . S
N112 H119 0.984 . S
N113 C106 1.356 . S
N113 H116 0.984 . S
N113 H117 0.985 . S
H114 N109 0.984 . S
H115 N109 0.985 . S
H116 N113 0.984 . S
H117 N113 0.985 . S
H118 N112 0.984 . S
H119 N112 0.984 . S
H120 N108 0.984 . S
H121 N108 0.985 . S
C122 C123 1.363 . S
C122 C128 1.379 . S
C122 N130 1.356 . S
C123 C122 1.363 . S
C123 C129 1.363 1_554 S
C124 C125 1.363 1_556 S
C124 C129 1.379 . S
C124 N131 1.356 . S
C125 C124 1.363 1_554 S
C125 C128 1.363 . S
N126 C128 1.356 . S
N126 H138 0.984 . S
N126 H139 0.985 . S
N127 C129 1.356 . S
N127 H132 0.984 . S
N127 H133 0.985 . S
C128 C122 1.379 . S
C128 C125 1.363 . S
C128 N126 1.356 . S
C129 C123 1.363 1_556 S
C129 C124 1.379 . S
C129 N127 1.356 . S
N130 C122 1.356 . S
N130 H136 0.984 . S
N130 H137 0.984 . S
N131 C124 1.356 . S
N131 H134 0.984 . S
N131 H135 0.985 . S
H132 N127 0.984 . S
H133 N127 0.985 . S
H134 N131 0.984 . S
H135 N131 0.985 . S
H136 N130 0.984 . S
H137 N130 0.984 . S
H138 N126 0.984 . S
H139 N126 0.985 . S
C140 C141 1.363 . S
C140 C146 1.379 . S
C140 N148 1.356 1_556 S
C141 C140 1.363 . S
C141 C147 1.363 . S
C142 C143 1.363 . S
C142 C147 1.379 . S
C142 N149 1.356 . S
C143 C142 1.363 . S
C143 C146 1.363 . S
N144 C146 1.356 1_554 S
N144 H156 0.984 . S
N144 H157 0.985 1_554 S
N145 C147 1.356 . S
N145 H150 0.984 . S
N145 H151 0.985 . S
C146 C140 1.379 . S
C146 C143 1.363 . S
C146 N144 1.356 1_556 S
C147 C141 1.363 . S
C147 C142 1.379 . S
C147 N145 1.356 . S
N148 C140 1.356 1_554 S
N148 H154 0.984 . S
N148 H155 0.984 . S
N149 C142 1.356 . S
N149 H152 0.984 . S
N149 H153 0.985 . S
H150 N145 0.984 . S
H151 N145 0.985 . S
H152 N149 0.984 . S
H153 N149 0.985 . S
H154 N148 0.984 . S
H155 N148 0.984 . S
H156 N144 0.984 . S
H157 N144 0.985 1_556 S
C158 C159 1.363 . S
C158 C164 1.379 . S
C158 N166 1.356 . S
C159 C158 1.363 . S
C159 C165 1.363 . S
C160 C161 1.363 . S
C160 C165 1.379 . S
C160 N167 1.356 . S
C161 C160 1.363 . S
C161 C164 1.363 . S
N162 C164 1.356 . S
N162 H174 0.984 . S
N162 H175 0.985 . S
N163 C165 1.356 . S
N163 H168 0.984 . S
N163 H169 0.985 . S
C164 C158 1.379 . S
C164 C161 1.363 . S
C164 N162 1.356 . S
C165 C159 1.363 . S
C165 C160 1.379 . S
C165 N163 1.356 . S
N166 C158 1.356 . S
N166 H172 0.984 . S
N166 H173 0.984 . S
N167 C160 1.356 . S
N167 H170 0.984 . S
N167 H171 0.985 . S
H168 N163 0.984 . S
H169 N163 0.985 . S
H170 N167 0.984 . S
H171 N167 0.985 . S
H172 N166 0.984 . S
H173 N166 0.984 . S
H174 N162 0.984 . S
H175 N162 0.985 . S
C176 C177 1.363 . S
C176 C182 1.379 . S
C176 N184 1.356 . S
C177 C176 1.363 . S
C177 C183 1.363 . S
C178 C179 1.363 . S
C178 C183 1.379 . S
C178 N185 1.356 . S
C179 C178 1.363 . S
C179 C182 1.363 . S
N180 C182 1.356 1_455 S
N180 H192 0.984 . S
N180 H193 0.985 . S
N181 C183 1.356 . S
N181 H186 0.984 . S
N181 H187 0.985 . S
C182 C176 1.379 . S
C182 C179 1.363 . S
C182 N180 1.356 1_655 S
C183 C177 1.363 . S
C183 C178 1.379 . S
C183 N181 1.356 . S
N184 C176 1.356 . S
N184 H190 0.984 . S
N184 H191 0.984 . S
N185 C178 1.356 . S
N185 H188 0.984 . S
N185 H189 0.985 . S
H186 N181 0.984 . S
H187 N181 0.985 . S
H188 N185 0.984 . S
H189 N185 0.985 . S
H190 N184 0.984 . S
H191 N184 0.984 . S
H192 N180 0.984 . S
H193 N180 0.985 . S
C194 C195 1.363 . S
C194 C200 1.379 . S
C194 N202 1.356 . S
C195 C194 1.363 . S
C195 C201 1.363 . S
C196 C197 1.363 . S
C196 C201 1.379 . S
C196 N203 1.356 . S
C197 C196 1.363 . S
C197 C200 1.363 . S
N198 C200 1.356 . S
N198 H210 0.984 . S
N198 H211 0.985 . S
N199 C201 1.356 . S
N199 H204 0.984 . S
N199 H205 0.985 . S
C200 C194 1.379 . S
C200 C197 1.363 . S
C200 N198 1.356 . S
C201 C195 1.363 . S
C201 C196 1.379 . S
C201 N199 1.356 . S
N202 C194 1.356 . S
N202 H208 0.984 . S
N202 H209 0.984 . S
N203 C196 1.356 . S
N203 H206 0.984 . S
N203 H207 0.985 . S
H204 N199 0.984 . S
H205 N199 0.985 . S
H206 N203 0.984 . S
H207 N203 0.985 . S
H208 N202 0.984 . S
H209 N202 0.984 . S
H210 N198 0.984 . S
H211 N198 0.985 . S
C212 C213 1.363 . S
C212 C218 1.379 . S
C212 N220 1.356 . S
C213 C212 1.363 . S
C213 C219 1.363 . S
C214 C215 1.363 . S
C214 C219 1.379 . S
C214 N221 1.356 . S
C215 C214 1.363 . S
C215 C218 1.363 . S
N216 C218 1.356 . S
N216 H228 0.984 . S
N216 H229 0.985 . S
N217 C219 1.356 . S
N217 H222 0.984 . S
N217 H223 0.985 . S
C218 C212 1.379 . S
C218 C215 1.363 . S
C218 N216 1.356 . S
C219 C213 1.363 . S
C219 C214 1.379 . S
C219 N217 1.356 . S
N220 C212 1.356 . S
N220 H226 0.984 . S
N220 H227 0.984 . S
N221 C214 1.356 . S
N221 H224 0.984 . S
N221 H225 0.985 . S
H222 N217 0.984 . S
H223 N217 0.985 . S
H224 N221 0.984 . S
H225 N221 0.985 . S
H226 N220 0.984 . S
H227 N220 0.984 . S
H228 N216 0.984 . S
H229 N216 0.985 . S
C230 C231 1.363 . S
C230 C236 1.379 . S
C230 N238 1.356 . S
C231 C230 1.363 . S
C231 C237 1.363 1_565 S
C232 C233 1.363 . S
C232 C237 1.379 . S
C232 N239 1.356 . S
C233 C232 1.363 . S
C233 C236 1.363 1_545 S
N234 C236 1.356 . S
N234 H246 0.984 . S
N234 H247 0.985 . S
N235 C237 1.356 . S
N235 H240 0.984 . S
N235 H241 0.985 . S
C236 C230 1.379 . S
C236 C233 1.363 1_565 S
C236 N234 1.356 . S
C237 C231 1.363 1_545 S
C237 C232 1.379 . S
C237 N235 1.356 . S
N238 C230 1.356 . S
N238 H244 0.984 . S
N238 H245 0.984 . S
N239 C232 1.356 . S
N239 H242 0.984 . S
N239 H243 0.985 . S
H240 N235 0.984 . S
H241 N235 0.985 . S
H242 N239 0.984 . S
H243 N239 0.985 . S
H244 N238 0.984 . S
H245 N238 0.984 . S
H246 N234 0.984 . S
H247 N234 0.985 . S
C248 C249 1.363 1_645 S
C248 C254 1.379 . S
C248 N256 1.356 . S
C249 C248 1.363 1_465 S
C249 C255 1.363 . S
C250 C251 1.363 1_465 S
C250 C255 1.379 . S
C250 N257 1.356 . S
C251 C250 1.363 1_645 S
C251 C254 1.363 . S
N252 C254 1.356 . S
N252 H264 0.984 . S
N252 H265 0.985 . S
N253 C255 1.356 . S
N253 H258 0.984 . S
N253 H259 0.985 . S
C254 C248 1.379 . S
C254 C251 1.363 . S
C254 N252 1.356 . S
C255 C249 1.363 . S
C255 C250 1.379 . S
C255 N253 1.356 . S
N256 C248 1.356 . S
N256 H262 0.984 . S
N256 H263 0.984 . S
N257 C250 1.356 . S
N257 H260 0.984 . S
N257 H261 0.985 . S
H258 N253 0.984 . S
H259 N253 0.985 . S
H260 N257 0.984 . S
H261 N257 0.985 . S
H262 N256 0.984 . S
H263 N256 0.984 . S
H264 N252 0.984 . S
H265 N252 0.985 . S
C266 C267 1.363 . S
C266 C272 1.379 . S
C266 N274 1.356 . S
C267 C266 1.363 . S
C267 C273 1.363 . S
C268 C269 1.363 . S
C268 C273 1.379 . S
C268 N275 1.356 . S
C269 C268 1.363 . S
C269 C272 1.363 . S
N270 C272 1.356 . S
N270 H282 0.984 . S
N270 H283 0.985 . S
N271 C273 1.356 . S
N271 H276 0.984 . S
N271 H277 0.985 . S
C272 C266 1.379 . S
C272 C269 1.363 . S
C272 N270 1.356 . S
C273 C267 1.363 . S
C273 C268 1.379 . S
C273 N271 1.356 . S
N274 C266 1.356 . S
N274 H280 0.984 . S
N274 H281 0.984 . S
N275 C268 1.356 . S
N275 H278 0.984 . S
N275 H279 0.985 . S
H276 N271 0.984 . S
H277 N271 0.985 . S
H278 N275 0.984 . S
H279 N275 0.985 . S
H280 N274 0.984 . S
H281 N274 0.984 . S
H282 N270 0.984 . S
H283 N270 0.985 . S
C284 C285 1.363 . S
C284 C290 1.379 . S
C284 N292 1.356 . S
C285 C284 1.363 . S
C285 C291 1.363 . S
C286 C287 1.363 . S
C286 C291 1.379 . S
C286 N293 1.356 . S
C287 C286 1.363 . S
C287 C290 1.363 . S
N288 C290 1.356 . S
N288 H300 0.984 . S
N288 H301 0.985 . S
N289 C291 1.356 . S
N289 H294 0.984 . S
N289 H295 0.985 . S
C290 C284 1.379 . S
C290 C287 1.363 . S
C290 N288 1.356 . S
C291 C285 1.363 . S
C291 C286 1.379 . S
C291 N289 1.356 . S
N292 C284 1.356 . S
N292 H298 0.984 . S
N292 H299 0.984 . S
N293 C286 1.356 . S
N293 H296 0.984 . S
N293 H297 0.985 . S
H294 N289 0.984 . S
H295 N289 0.985 . S
H296 N293 0.984 . S
H297 N293 0.985 . S
H298 N292 0.984 . S
H299 N292 0.984 . S
H300 N288 0.984 . S
H301 N288 0.985 . S
C89 C79 1.376 . S
C87 C3 1.268 . S
C105 C4 1.430 1_556 S
C107 C74 1.518 . S
C123 C19 1.451 1_554 S
C125 C85 1.532 . S
C141 C7 1.268 . S
C143 C68 1.380 . S
C159 C37 1.268 . S
C161 C57 1.376 . S
C177 C28 1.430 . S
C179 C52 1.518 . S
C197 C63 1.532 . S
C195 C41 1.451 . S
C215 C46 1.380 . S
C213 C25 1.268 . S
C231 C20 1.372 . S
C233 C47 1.513 . S
C249 C16 1.410 1_455 S
C251 C58 1.548 . S
C269 C69 1.513 . S
C267 C40 1.372 . S
C285 C24 1.410 . S
C287 C80 1.548 . S
