# Generated by pormake.
# Topology anh, (6,3)-cn, num edge types: 1
# Building blocks:
#     Node 0, Type 0, BuildingBlock: INOVEN_clean_sbu_0, # of connection points: 6
#     Node 1, Type 0, BuildingBlock: INOVEN_clean_sbu_0, # of connection points: 6
#     Node 2, Type 0, BuildingBlock: INOVEN_clean_sbu_0, # of connection points: 6
#     Node 3, Type 1, BuildingBlock: VETTIZ_charged_linker_0, # of connection points: 3
#     Node 4, Type 1, BuildingBlock: VETTIZ_charged_linker_0, # of connection points: 3
#     Node 5, Type 1, BuildingBlock: VETTIZ_charged_linker_0, # of connection points: 3
#     Node 6, Type 1, BuildingBlock: VETTIZ_charged_linker_0, # of connection points: 3
#     Node 7, Type 1, BuildingBlock: VETTIZ_charged_linker_0, # of connection points: 3
#     Node 8, Type 1, BuildingBlock: VETTIZ_charged_linker_0, # of connection points: 3
#     Edge 9, Type (0, 1), BuildingBlock: XUDNAN_clean_linker_2, # of connection points: 2
#     Edge 10, Type (0, 1), BuildingBlock: XUDNAN_clean_linker_2, # of connection points: 2
#     Edge 11, Type (0, 1), BuildingBlock: XUDNAN_clean_linker_2, # of connection points: 2
#     Edge 12, Type (0, 1), BuildingBlock: XUDNAN_clean_linker_2, # of connection points: 2
#     Edge 13, Type (0, 1), BuildingBlock: XUDNAN_clean_linker_2, # of connection points: 2
#     Edge 14, Type (0, 1), BuildingBlock: XUDNAN_clean_linker_2, # of connection points: 2
#     Edge 15, Type (0, 1), BuildingBlock: XUDNAN_clean_linker_2, # of connection points: 2
#     Edge 16, Type (0, 1), BuildingBlock: XUDNAN_clean_linker_2, # of connection points: 2
#     Edge 17, Type (0, 1), BuildingBlock: XUDNAN_clean_linker_2, # of connection points: 2
#     Edge 18, Type (0, 1), BuildingBlock: XUDNAN_clean_linker_2, # of connection points: 2
#     Edge 19, Type (0, 1), BuildingBlock: XUDNAN_clean_linker_2, # of connection points: 2
#     Edge 20, Type (0, 1), BuildingBlock: XUDNAN_clean_linker_2, # of connection points: 2
#     Edge 21, Type (0, 1), BuildingBlock: XUDNAN_clean_linker_2, # of connection points: 2
#     Edge 22, Type (0, 1), BuildingBlock: XUDNAN_clean_linker_2, # of connection points: 2
#     Edge 23, Type (0, 1), BuildingBlock: XUDNAN_clean_linker_2, # of connection points: 2
#     Edge 24, Type (0, 1), BuildingBlock: XUDNAN_clean_linker_2, # of connection points: 2
#     Edge 25, Type (0, 1), BuildingBlock: XUDNAN_clean_linker_2, # of connection points: 2
#     Edge 26, Type (0, 1), BuildingBlock: XUDNAN_clean_linker_2, # of connection points: 2
# Relax obj value: 0.183
# Max RMSD: 0.214
# Mean RMSD: 0.160
data_MOF--net-anh--node1-INOVEN_clean_sbu_0--node2-VETTIZ_charged_linker_0--edge1-XUDNAN_clean_linker_2
_symmetry_space_group_name_H-M    P1
_symmetry_Int_Tables_number       1
_symmetry_cell_setting            triclinic
loop_
_symmetry_equiv_pos_as_xyz
'x, y, z'
_cell_length_a     38.028207
_cell_length_b     43.701629
_cell_length_c     66.566416
_cell_angle_alpha  93.072227
_cell_angle_beta   89.43476
_cell_angle_gamma 129.23503
loop_
_atom_site_label
_atom_site_type_symbol
_atom_site_fract_x
_atom_site_fract_y
_atom_site_fract_z
_atom_type_partial_charge
Gd0 Gd 0.09484 0.49743 0.15776 0.0
Gd1 Gd 0.05092 0.53273 0.16109 0.0
C2 C 0.15889 0.59419 0.15911 0.0
C3 C 0.14853 0.48214 0.15174 0.0
C4 C 0.19647 0.50887 0.15824 0.0
C5 C 0.20945 0.50124 0.17561 0.0
C6 C 0.22804 0.54489 0.1492 0.0
C7 C 0.28692 0.56217 0.173 0.0
C8 C 0.27264 0.57159 0.15673 0.0
C9 C 0.25386 0.52766 0.18304 0.0
C10 C 0.07486 0.50563 0.19612 0.0
C11 C 0.98877 0.43669 0.1562 0.0
C12 C 1.01547 0.56038 0.17896 0.0
C13 C 0.96926 0.53902 0.18563 0.0
C14 C 0.94226 0.54593 0.17639 0.0
C15 C 0.94921 0.50586 0.19725 0.0
C16 C 0.87548 0.48329 0.18713 0.0
C17 C 0.90219 0.47783 0.19786 0.0
C18 C 0.89547 0.518 0.17701 0.0
C19 C 0.05703 0.52356 0.12046 0.0
O20 O 0.15717 0.56291 0.15786 0.0
O21 O 0.12175 0.59024 0.1606 0.0
O22 O 0.12009 0.46747 0.16642 0.0
O23 O 0.13711 0.49397 0.13743 0.0
O24 O 0.0664 0.47359 0.1886 0.0
O25 O 0.09242 0.53073 0.18284 0.0
O26 O 0.99127 0.46656 0.1642 0.0
O27 O 1.0249 0.44339 0.14851 0.0
O28 O 1.019 0.5594 0.15942 0.0
O29 O 1.03975 0.55382 0.18846 0.0
O30 O 1.03898 0.53791 0.12886 0.0
O31 O 0.07093 0.51397 0.13414 0.0
H32 H 0.18532 0.47443 0.18335 0.0
H33 H 0.21854 0.55242 0.13622 0.0
H34 H 0.29656 0.59832 0.14894 0.0
H35 H 0.26247 0.5188 0.19571 0.0
H36 H 0.95716 0.57101 0.16719 0.0
H37 H 0.9695 0.49989 0.20453 0.0
H38 H 0.88679 0.45113 0.20572 0.0
H39 H 0.87479 0.52218 0.16848 0.0
Gd40 Gd 0.57592 1.0017 0.47897 0.0
Gd41 Gd 0.53045 0.03568 0.48198 0.0
C42 C 0.46476 0.94185 0.4785 0.0
C43 C 0.60147 0.95963 0.48091 0.0
C44 C 0.57948 0.91728 0.48009 0.0
C45 C 0.59462 0.90279 0.46626 0.0
C46 C 0.54639 0.89182 0.49383 0.0
C47 C 0.55324 0.84181 0.48332 0.0
C48 C 0.53334 0.85419 0.49543 0.0
C49 C 0.58129 0.86507 0.46777 0.0
C50 C 0.56676 0.02315 0.44353 0.0
C51 C 0.64205 0.09602 0.48294 0.0
C52 C 0.50429 0.07674 0.4771 0.0
C53 C 0.52604 0.11916 0.4788 0.0
C54 C 0.53517 0.139 0.49773 0.0
C55 C 0.53648 0.13991 0.46135 0.0
C56 C 0.56021 0.19823 0.48173 0.0
C57 C 0.55355 0.17919 0.4628 0.0
C58 C 0.55231 0.17818 0.49917 0.0
C59 C 0.53949 0.01431 0.51746 0.0
O60 O 0.50193 0.94649 0.48257 0.0
O61 O 0.46787 0.97282 0.47468 0.0
O62 O 0.59988 0.97298 0.46419 0.0
O63 O 0.59551 0.97452 0.49692 0.0
O64 O 0.60247 0.028 0.44918 0.0
O65 O 0.5363 1.00544 0.45644 0.0
O66 O 0.60456 0.09176 0.4809 0.0
O67 O 0.63996 0.06486 0.48455 0.0
O68 O 0.49897 0.05992 0.49379 0.0
O69 O 0.51711 0.06528 0.46229 0.0
O70 O 0.50339 0.00881 0.51163 0.0
O71 O 0.57026 0.03218 0.50466 0.0
H72 H 0.61946 0.92175 0.45528 0.0
H73 H 0.53319 0.90192 0.50431 0.0
H74 H 0.5117 0.8366 0.50757 0.0
H75 H 0.59726 0.85617 0.4584 0.0
H76 H 0.52806 0.12407 0.51148 0.0
H77 H 0.53011 0.12539 0.44656 0.0
H78 H 0.55926 0.19388 0.44911 0.0
H79 H 0.55806 0.19242 0.51398 0.0
Gd80 Gd 0.63731 0.59166 0.83241 0.0
Gd81 Gd 0.57659 0.50564 0.83385 0.0
C82 C 0.52409 0.54439 0.83663 0.0
C83 C 0.6717 0.66369 0.82742 0.0
C84 C 0.65169 0.68377 0.82803 0.0
C85 C 0.66636 0.71375 0.84308 0.0
C86 C 0.61852 0.67384 0.8137 0.0
C87 C 0.62187 0.72848 0.82718 0.0
C88 C 0.6038 0.6961 0.81328 0.0
C89 C 0.65148 0.73592 0.84268 0.0
C90 C 0.62953 0.56719 0.86876 0.0
C91 C 0.69133 0.55479 0.83315 0.0
C92 C 0.54263 0.43498 0.84335 0.0
C93 C 0.55009 0.40592 0.83814 0.0
C94 C 0.52461 0.37738 0.82226 0.0
C95 C 0.58131 0.40538 0.84911 0.0
C96 C 0.56334 0.3501 0.82729 0.0
C97 C 0.58795 0.37776 0.84371 0.0
C98 C 0.53084 0.34984 0.81706 0.0
C99 C 0.58661 0.52935 0.79608 0.0
O100 O 0.56552 0.57626 0.83151 0.0
O101 O 0.51997 0.51234 0.84055 0.0
O102 O 0.67385 0.65187 0.84459 0.0
O103 O 0.65971 0.63803 0.81232 0.0
O104 O 0.66754 0.5971 0.86188 0.0
O105 O 0.59653 0.55214 0.85649 0.0
O106 O 0.64885 0.52086 0.83509 0.0
O107 O 0.69589 0.5874 0.83042 0.0
O108 O 0.52521 0.44193 0.8292 0.0
O109 O 0.57454 0.46712 0.85405 0.0
O110 O 0.54989 0.49702 0.80232 0.0
O111 O 0.6183 0.54555 0.80927 0.0
H112 H 0.69116 0.7214 0.85457 0.0
H113 H 0.60555 0.65021 0.80221 0.0
H114 H 0.58126 0.69019 0.80105 0.0
H115 H 0.66629 0.76111 0.85336 0.0
H116 H 0.49961 0.37619 0.81374 0.0
H117 H 0.6009 0.4265 0.86174 0.0
H118 H 0.61294 0.37869 0.85205 0.0
H119 H 0.50984 0.32817 0.80481 0.0
C120 C 0.67358 0.13042 0.16848 0.0
C121 C 0.70668 0.16833 0.17842 0.0
C122 C 0.7009 0.17427 0.19871 0.0
C123 C 0.63465 0.10527 0.20003 0.0
C124 C 0.6369 0.09926 0.17962 0.0
C125 C 0.59688 0.05672 0.17242 0.0
H126 H 0.41519 0.87089 0.20222 0.0
C127 C 0.59694 0.06729 0.20824 0.0
C128 C 0.57336 0.03808 0.19221 0.0
H129 H 0.45055 0.90186 0.14059 0.0
H130 H 0.51417 0.96992 0.15229 0.0
H131 H 0.5088 0.91208 0.21826 0.0
H132 H 0.42584 0.94671 0.21672 0.0
H133 H 0.45263 0.96312 0.24066 0.0
H134 H 0.41649 0.91107 0.23313 0.0
H135 H 0.4667 0.89712 0.23663 0.0
H136 H 0.52472 0.94205 0.24041 0.0
C137 C 0.61485 0.03673 0.16226 0.0
C138 C 0.56617 0.05794 0.15817 0.0
C139 C 0.58496 0.06036 0.28456 0.0
C140 C 0.55579 0.02891 0.29698 0.0
C141 C 0.52186 0.99085 0.28808 0.0
C142 C 0.51661 0.98417 0.26716 0.0
C143 C 0.54596 0.01577 0.25483 0.0
C144 C 0.57963 0.053 0.26357 0.0
C145 C 0.60784 0.08278 0.24807 0.0
C146 C 0.58533 0.05715 0.22855 0.0
C147 C 0.54932 0.01816 0.23271 0.0
C148 C 0.65716 0.09819 0.25095 0.0
C149 C 0.60256 0.11525 0.25059 0.0
C150 C 0.43535 0.89204 0.19095 0.0
C151 C 0.4266 0.88029 0.17041 0.0
C152 C 0.45603 0.90953 0.15662 0.0
C153 C 0.49288 0.94921 0.16338 0.0
C154 C 0.50063 0.96009 0.18418 0.0
C155 C 0.47147 0.93118 0.19734 0.0
C156 C 0.48334 0.946 0.21884 0.0
C157 C 0.52386 0.98889 0.21683 0.0
C158 C 0.53504 0.99805 0.19653 0.0
C159 C 0.49631 0.92316 0.22923 0.0
C160 C 0.44256 0.94136 0.228 0.0
H161 H 0.66471 0.15 0.22504 0.0
H162 H 0.67694 0.12503 0.15279 0.0
H163 H 0.55744 0.07583 0.16538 0.0
H164 H 0.53383 0.02824 0.15429 0.0
H165 H 0.58372 0.07158 0.14399 0.0
H166 H 0.63999 0.03961 0.17239 0.0
H167 H 0.63175 0.05068 0.14804 0.0
H168 H 0.58737 1.00483 0.15869 0.0
H169 H 0.61145 0.08995 0.29103 0.0
H170 H 0.49864 0.96629 0.29736 0.0
H171 H 0.48952 0.95457 0.26148 0.0
H172 H 0.65732 0.07319 0.25305 0.0
H173 H 0.67405 0.11901 0.26446 0.0
H174 H 0.67846 0.11307 0.2379 0.0
H175 H 0.57222 0.10535 0.25931 0.0
H176 H 0.59712 0.12285 0.23594 0.0
H177 H 0.63261 0.14255 0.25862 0.0
H178 H 0.72558 0.20286 0.20664 0.0
C179 C 0.66554 0.14325 0.20947 0.0
C180 C 0.56588 0.61466 0.52003 0.0
C181 C 0.56264 0.64198 0.5299 0.0
C182 C 0.54992 0.63742 0.55016 0.0
C183 C 0.55451 0.58529 0.55191 0.0
C184 C 0.56111 0.58609 0.5314 0.0
C185 C 0.5645 0.55488 0.52406 0.0
H186 H 0.58051 0.41485 0.54637 0.0
C187 C 0.55817 0.55689 0.56011 0.0
C188 C 0.56316 0.53828 0.54387 0.0
H189 H 0.5726 0.44787 0.48753 0.0
H190 H 0.56823 0.49669 0.5029 0.0
H191 H 0.64907 0.49939 0.56503 0.0
H192 H 0.50335 0.41797 0.56777 0.0
H193 H 0.52705 0.43881 0.59222 0.0
H194 H 0.54016 0.41048 0.57878 0.0
H195 H 0.62083 0.46204 0.58299 0.0
H196 H 0.63623 0.51021 0.58837 0.0
C197 C 0.61041 0.57531 0.5136 0.0
C198 C 0.52212 0.52381 0.51033 0.0
C199 C 0.57322 0.5565 0.63602 0.0
C200 C 0.58237 0.5368 0.64832 0.0
C201 C 0.58729 0.50998 0.63884 0.0
C202 C 0.58251 0.50252 0.61787 0.0
C203 C 0.57371 0.52266 0.60594 0.0
C204 C 0.56971 0.54943 0.61503 0.0
C205 C 0.56207 0.56926 0.59991 0.0
C206 C 0.56194 0.54972 0.58024 0.0
C207 C 0.56876 0.5225 0.58389 0.0
C208 C 0.60308 0.61411 0.60183 0.0
C209 C 0.51545 0.55912 0.60365 0.0
C210 C 0.57721 0.43226 0.53682 0.0
C211 C 0.57656 0.42745 0.51574 0.0
C212 C 0.57339 0.45129 0.5038 0.0
C213 C 0.57047 0.47933 0.51276 0.0
C214 C 0.57098 0.48366 0.53386 0.0
C215 C 0.5744 0.4604 0.54552 0.0
C216 C 0.57588 0.46992 0.5677 0.0
C217 C 0.57102 0.50174 0.56745 0.0
C218 C 0.56827 0.50966 0.54758 0.0
C219 C 0.62267 0.486 0.57665 0.0
C220 C 0.53465 0.43238 0.57728 0.0
H221 H 0.53857 0.60874 0.5768 0.0
H222 H 0.57439 0.6169 0.50431 0.0
H223 H 0.4921 0.52082 0.51529 0.0
H224 H 0.51125 0.4937 0.51086 0.0
H225 H 0.52811 0.53232 0.49447 0.0
H226 H 0.63788 0.60378 0.52189 0.0
H227 H 0.60843 0.58188 0.49795 0.0
H228 H 0.62207 0.55772 0.51323 0.0
H229 H 0.5684 0.57682 0.64246 0.0
H230 H 0.59554 0.49494 0.64753 0.0
H231 H 0.58621 0.48153 0.61173 0.0
H232 H 0.63556 0.61898 0.60201 0.0
H233 H 0.60199 0.62802 0.61603 0.0
H234 H 0.60502 0.63045 0.58925 0.0
H235 H 0.49334 0.53293 0.61282 0.0
H236 H 0.49555 0.55093 0.58945 0.0
H237 H 0.51967 0.58421 0.61175 0.0
H238 H 0.5455 0.65727 0.55781 0.0
C239 C 0.54614 0.60943 0.56123 0.0
C240 C 0.21716 0.54777 0.84466 0.0
C241 C 0.24694 0.5427 0.85547 0.0
C242 C 0.23788 0.53671 0.87604 0.0
C243 C 0.1757 0.54104 0.87524 0.0
C244 C 0.18081 0.54592 0.85485 0.0
C245 C 0.14302 0.54842 0.84735 0.0
H246 H 0.95839 0.54602 0.88404 0.0
C247 C 0.1378 0.5413 0.88271 0.0
C248 C 0.11611 0.54506 0.8666 0.0
H249 H 0.98553 0.55428 0.82096 0.0
H250 H 0.04804 0.55109 0.82781 0.0
H251 H 0.96331 0.481 0.89072 0.0
H252 H 0.05862 0.60742 0.89852 0.0
H253 H 0.06872 0.59132 0.91953 0.0
H254 H 1.01335 0.57754 0.91545 0.0
H255 H 0.96115 0.50791 0.9113 0.0
H256 H 0.99283 0.49019 0.91318 0.0
C257 C 0.11061 0.51392 0.83192 0.0
C258 C 0.16573 0.58813 0.83798 0.0
C259 C 0.11731 0.53469 0.95936 0.0
C260 C 0.08798 0.53519 0.97228 0.0
C261 C 0.05516 0.53613 0.96353 0.0
C262 C 0.05173 0.53702 0.9426 0.0
C263 C 0.08172 0.53733 0.92972 0.0
C264 C 0.11346 0.53578 0.93825 0.0
C265 C 0.14234 0.53626 0.9224 0.0
C266 C 0.12342 0.53898 0.90292 0.0
C267 C 0.08787 0.53967 0.90728 0.0
C268 C 0.13357 0.49637 0.92278 0.0
C269 C 0.19223 0.574 0.92706 0.0
C270 C 0.97721 0.54794 0.8712 0.0
C271 C 0.96472 0.55125 0.8519 0.0
C272 C 0.99206 0.55183 0.83633 0.0
C273 C 1.02911 0.55022 0.84032 0.0
C274 C 1.04098 0.54776 0.86026 0.0
C275 C 1.01344 0.54653 0.87483 0.0
C276 C 1.02601 0.54357 0.89527 0.0
C277 C 0.06491 0.54271 0.89162 0.0
C278 C 0.07686 0.54537 0.87091 0.0
C279 C 0.98381 0.50391 0.90323 0.0
C280 C 1.04222 0.5816 0.90802 0.0
H281 H 0.20277 0.53287 0.90139 0.0
H282 H 0.22164 0.55256 0.82875 0.0
H283 H 0.18931 0.61309 0.84914 0.0
H284 H 0.13976 0.59052 0.83303 0.0
H285 H 0.18545 0.59104 0.82473 0.0
H286 H 0.09429 0.48518 0.8387 0.0
H287 H 0.12934 0.51547 0.81856 0.0
H288 H 0.08347 0.51472 0.82683 0.0
H289 H 0.14358 0.53475 0.96556 0.0
H290 H 1.03261 0.53717 0.97305 0.0
H291 H 1.02603 0.53812 0.93741 0.0
H292 H 0.09985 0.47273 0.92893 0.0
H293 H 0.15965 0.49944 0.93224 0.0
H294 H 0.13223 0.48419 0.90751 0.0
H295 H 0.1937 0.59889 0.93341 0.0
H296 H 0.21295 0.58559 0.91351 0.0
H297 H 0.20907 0.56864 0.9382 0.0
H298 H 0.25838 0.53341 0.88535 0.0
C299 C 0.20435 0.5364 0.88561 0.0
C300 C 0.93946 0.40928 0.47136 0.0
C301 C 0.9009 0.37473 0.46077 0.0
C302 C 0.8918 0.37803 0.44091 0.0
C303 C 0.96245 0.44519 0.44071 0.0
C304 C 0.96941 0.44482 0.46102 0.0
C305 C 1.01131 0.48589 0.46905 0.0
H306 H 0.20328 0.671 0.44281 0.0
C307 C 1.00204 0.48308 0.43303 0.0
C308 C 1.03126 0.50813 0.44962 0.0
H309 H 0.15757 0.64036 0.50328 0.0
H310 H 0.09404 0.57211 0.49083 0.0
H311 H 0.18632 0.5936 0.42876 0.0
H312 H 0.11063 0.63491 0.42431 0.0
H313 H 0.10383 0.61173 0.40069 0.0
H314 H 0.16002 0.65302 0.41003 0.0
H315 H 0.19555 0.62407 0.40905 0.0
H316 H 0.15518 0.5706 0.40602 0.0
C317 C 0.04432 0.48289 0.48006 0.0
C318 C 0.99485 0.50373 0.48288 0.0
C319 C 1.02128 0.49619 0.35619 0.0
C320 C 0.05769 0.52633 0.34471 0.0
C321 C 0.09793 0.5583 0.35519 0.0
C322 C 0.10114 0.56216 0.37616 0.0
C323 C 0.06424 0.5333 0.38743 0.0
C324 C 1.02559 0.50029 0.37757 0.0
C325 C 0.99126 0.47183 0.39259 0.0
C326 C 1.0156 0.4941 0.41283 0.0
C327 C 0.05798 0.53015 0.40949 0.0
C328 C 0.98491 0.43326 0.38941 0.0
C329 C 0.94701 0.46614 0.3895 0.0
C330 C 0.18006 0.64957 0.4535 0.0
C331 C 0.18593 0.66098 0.47396 0.0
C332 C 0.15418 0.63221 0.48734 0.0
C333 C 0.1169 0.5929 0.48007 0.0
C334 C 0.11055 0.5826 0.45916 0.0
C335 C 0.14257 0.61127 0.44652 0.0
C336 C 0.1314 0.59772 0.42484 0.0
C337 C 0.08633 0.5567 0.42597 0.0
C338 C 0.07357 0.54667 0.44607 0.0
C339 C 0.169 0.5966 0.41658 0.0
C340 C 0.12644 0.62574 0.41423 0.0
H341 H 0.9135 0.41243 0.41562 0.0
H342 H 0.94687 0.40817 0.48684 0.0
H343 H 0.9677 0.50184 0.47512 0.0
H344 H 1.02216 0.53523 0.48721 0.0
H345 H 0.98073 0.4874 0.49683 0.0
H346 H 0.05295 0.46739 0.47009 0.0
H347 H 1.02893 0.46614 0.4938 0.0
H348 H 0.07638 0.51248 0.48466 0.0
H349 H 0.98999 0.47078 0.34882 0.0
H350 H 0.12739 0.58119 0.34711 0.0
H351 H 0.13237 0.58822 0.38271 0.0
H352 H 1.01847 0.44006 0.38926 0.0
H353 H 0.96692 0.41749 0.37479 0.0
H354 H 0.9659 0.41255 0.40135 0.0
H355 H 0.95321 0.49076 0.38147 0.0
H356 H 0.93251 0.46634 0.40399 0.0
H357 H 0.92092 0.43815 0.38055 0.0
H358 H 0.86218 0.35256 0.43258 0.0
C359 C 0.92208 0.41269 0.43092 0.0
C360 C 0.56877 0.9344 0.7942 0.0
C361 C 0.56604 0.90325 0.78486 0.0
C362 C 0.54956 0.89042 0.7648 0.0
C363 C 0.54895 0.94479 0.7621 0.0
C364 C 0.55945 0.95459 0.78248 0.0
C365 C 0.56084 0.98895 0.78919 0.0
H366 H 0.58423 0.14717 0.76013 0.0
C367 C 0.54898 0.9749 0.75324 0.0
C368 C 0.55543 1.00091 0.76905 0.0
H369 H 0.55656 0.10693 0.82054 0.0
H370 H 0.55712 0.05313 0.80889 0.0
H371 H 0.64329 0.12673 0.74324 0.0
H372 H 0.4992 0.062 0.74447 0.0
H373 H 0.50941 0.04997 0.72081 0.0
H374 H 0.53478 0.10078 0.72774 0.0
H375 H 0.61432 0.13669 0.72722 0.0
H376 H 0.62126 0.10058 0.71971 0.0
C377 C 0.60707 0.022 0.79985 0.0
C378 C 0.51981 0.97301 0.80266 0.0
C379 C 0.54907 0.98 0.6767 0.0
C380 C 0.55203 1.00618 0.66383 0.0
C381 C 0.55642 0.03861 0.67263 0.0
C382 C 0.55809 0.04497 0.69359 0.0
C383 C 0.55497 0.01853 0.70616 0.0
C384 C 0.55034 0.98661 0.69768 0.0
C385 C 0.54676 0.96129 0.71344 0.0
C386 C 0.54937 0.98312 0.73278 0.0
C387 C 0.55496 0.01686 0.72836 0.0
C388 C 0.5884 0.96273 0.71152 0.0
C389 C 0.50024 0.9191 0.71043 0.0
C390 C 0.57732 0.12667 0.77108 0.0
C391 C 0.56867 0.13088 0.7912 0.0
C392 C 0.5626 0.10428 0.80485 0.0
C393 C 0.56205 0.07266 0.79798 0.0
C394 C 0.56604 0.06698 0.77722 0.0
C395 C 0.57276 0.09374 0.76428 0.0
C396 C 0.56855 0.08089 0.74255 0.0
C397 C 0.56073 0.0428 0.74422 0.0
C398 C 0.56002 0.03473 0.76451 0.0
C399 C 0.61394 0.11279 0.73248 0.0
C400 C 0.52611 0.07323 0.73321 0.0
H401 H 0.53094 0.901 0.73792 0.0
H402 H 0.5805 0.9442 0.80974 0.0
H403 H 0.48953 0.94287 0.79702 0.0
H404 H 0.50887 0.99113 0.8027 0.0
H405 H 0.52751 0.97104 0.81837 0.0
H406 H 0.63537 0.02922 0.79033 0.0
H407 H 0.61016 0.01262 0.81446 0.0
H408 H 0.61216 0.04964 0.80286 0.0
H409 H 0.54603 0.95492 0.67063 0.0
H410 H 0.55778 0.05888 0.66332 0.0
H411 H 0.56168 0.07033 0.69917 0.0
H412 H 0.62012 0.99381 0.71061 0.0
H413 H 0.58512 0.94564 0.69767 0.0
H414 H 0.59376 0.95125 0.72444 0.0
H415 H 0.47544 0.91896 0.7016 0.0
H416 H 0.4836 0.90684 0.72489 0.0
H417 H 0.50383 0.89839 0.70229 0.0
H418 H 0.54641 0.86597 0.7575 0.0
C419 C 0.54118 0.91108 0.75337 0.0
C420 C 0.64546 0.48374 0.12952 0.0
C421 C 0.6814 0.48797 0.12028 0.0
C422 C 0.69206 0.49966 0.10041 0.0
C423 C 0.62358 0.49171 0.09768 0.0
C424 C 0.61663 0.4852 0.11788 0.0
C425 C 0.57211 0.47362 0.1244 0.0
H426 H 0.38259 0.44551 0.10186 0.0
C427 C 0.58251 0.48259 0.089 0.0
C428 C 0.55265 0.47272 0.10451 0.0
H429 H 0.43667 0.44899 0.15978 0.0
H430 H 0.49265 0.44948 0.14369 0.0
H431 H 0.47571 0.51395 0.08588 0.0
H432 H 0.40321 0.38835 0.07593 0.0
H433 H 0.42571 0.41107 0.05307 0.0
H434 H 0.38423 0.41261 0.06508 0.0
H435 H 0.42492 0.48266 0.07027 0.0
H436 H 0.47985 0.50357 0.06044 0.0
C437 C 0.58228 0.5069 0.13945 0.0
C438 C 0.54366 0.4318 0.13286 0.0
C439 C 0.56294 0.47044 0.01409 0.0
C440 C 0.53567 0.47271 0.00156 0.0
C441 C 0.49832 0.46844 0.00925 0.0
C442 C 0.49014 0.46438 0.02991 0.0
C443 C 0.52047 0.46568 0.04262 0.0
C444 C 0.55654 0.46939 0.03457 0.0
C445 C 0.59118 0.47953 0.05 0.0
C446 C 0.56818 0.47811 0.06889 0.0
C447 C 0.52626 0.46885 0.06458 0.0
C448 C 0.63603 0.52196 0.04682 0.0
C449 C 0.59577 0.44672 0.0483 0.0
C450 C 0.40579 0.44525 0.111 0.0
C451 C 0.40605 0.44876 0.1322 0.0
C452 C 0.43554 0.44669 0.14349 0.0
C453 C 0.46915 0.44801 0.13409 0.0
C454 C 0.47313 0.45121 0.11325 0.0
C455 C 0.44059 0.44772 0.10182 0.0
C456 C 0.45202 0.45336 0.07988 0.0
C457 C 0.49702 0.46127 0.08038 0.0
C458 C 0.50954 0.46135 0.10007 0.0
C459 C 0.4582 0.49011 0.0736 0.0
C460 C 0.4144 0.41452 0.06769 0.0
H461 H 0.67141 0.50857 0.07362 0.0
H462 H 0.63653 0.47473 0.14482 0.0
H463 H 0.55354 0.41437 0.12624 0.0
H464 H 0.50698 0.41321 0.12898 0.0
H465 H 0.54834 0.43382 0.14946 0.0
H466 H 0.61331 0.53646 0.13534 0.0
H467 H 0.58809 0.50246 0.15497 0.0
H468 H 0.5552 0.50947 0.13955 0.0
H469 H 0.59293 0.4754 0.0084 0.0
H470 H 0.47785 0.4713 -0.00038 0.0
H471 H 0.46252 0.46297 0.03537 0.0
H472 H 0.63062 0.53889 0.03729 0.0
H473 H 0.66161 0.52098 0.03937 0.0
H474 H 0.65096 0.54038 0.06115 0.0
H475 H 0.56169 0.41692 0.04787 0.0
H476 H 0.61472 0.44771 0.06107 0.0
H477 H 0.6131 0.44874 0.0343 0.0
H478 H 0.72068 0.50422 0.0933 0.0
C479 C 0.66328 0.5019 0.08903 0.0
H480 H 0.3511 0.59245 0.14393 0.0
H481 H 0.33479 0.57182 0.20745 0.0
H482 H 0.37006 0.54041 0.20385 0.0
H483 H 0.31708 0.51285 0.12577 0.0
H484 H 0.35718 0.52449 0.10669 0.0
H485 H 0.35011 0.56007 0.11457 0.0
H486 H 0.43526 0.61306 0.12455 0.0
H487 H 0.44378 0.57873 0.11523 0.0
H488 H 0.46229 0.60081 0.14051 0.0
H489 H 0.36773 0.48492 0.18996 0.0
H490 H 0.37206 0.43788 0.17039 0.0
H491 H 0.40028 0.50227 0.11692 0.0
C492 C 0.35789 0.58423 0.15749 0.0
C493 C 0.33534 0.57979 0.17546 0.0
C494 C 0.34854 0.5721 0.19307 0.0
C495 C 0.36823 0.55387 0.19116 0.0
C496 C 0.37964 0.54911 0.17198 0.0
C497 C 0.37871 0.5671 0.15572 0.0
C498 C 0.38855 0.55433 0.13636 0.0
C499 C 0.35095 0.53691 0.11993 0.0
C500 C 0.43526 0.58877 0.12872 0.0
C501 C 0.38906 0.5228 0.14396 0.0
C502 C 0.38372 0.52002 0.16448 0.0
C503 C 0.37534 0.48859 0.17414 0.0
C504 C 0.37704 0.46164 0.16284 0.0
C505 C 0.38803 0.46699 0.14224 0.0
C506 C 0.39215 0.49708 0.13262 0.0
H507 H 0.67706 0.17016 0.50101 0.0
H508 H 0.70891 0.1121 0.45896 0.0
H509 H 0.78165 0.17685 0.45205 0.0
H510 H 0.7223 0.25618 0.47636 0.0
H511 H 0.74859 0.29046 0.49817 0.0
H512 H 0.7003 0.23945 0.501 0.0
H513 H 0.74654 0.23422 0.52669 0.0
H514 H 0.79525 0.28526 0.52379 0.0
H515 H 0.80005 0.24698 0.51966 0.0
H516 H 0.84859 0.24684 0.44809 0.0
H517 H 0.90431 0.31886 0.44547 0.0
H518 H 0.83307 0.33574 0.48998 0.0
C519 C 0.69977 0.17122 0.49056 0.0
C520 C 0.68733 0.13578 0.48062 0.0
C521 C 0.71791 0.13849 0.46703 0.0
C522 C 0.75938 0.17526 0.46298 0.0
C523 C 0.77089 0.20949 0.47304 0.0
C524 C 0.74237 0.208 0.48673 0.0
C525 C 0.76381 0.24981 0.49535 0.0
C526 C 0.73183 0.25954 0.49252 0.0
C527 C 0.77718 0.25434 0.5177 0.0
C528 C 0.80632 0.2751 0.48279 0.0
C529 C 0.8103 0.25075 0.47069 0.0
C530 C 0.84607 0.26616 0.45765 0.0
C531 C 0.87786 0.3073 0.45637 0.0
C532 C 0.87384 0.33333 0.46767 0.0
C533 C 0.83785 0.31689 0.48144 0.0
H534 H 0.57673 0.75469 0.84404 0.0
H535 H 0.66851 0.77469 0.79733 0.0
H536 H 0.67322 0.82967 0.78604 0.0
H537 H 0.51227 0.76851 0.81552 0.0
H538 H 0.5058 0.79539 0.8346 0.0
H539 H 0.51495 0.76178 0.8418 0.0
H540 H 0.58468 0.81808 0.86389 0.0
H541 H 0.57583 0.85201 0.85665 0.0
H542 H 0.62989 0.86343 0.85283 0.0
H543 H 0.6659 0.87791 0.77805 0.0
H544 H 0.63686 0.9123 0.76959 0.0
H545 H 0.54477 0.86116 0.81922 0.0
C546 C 0.59815 0.77123 0.83164 0.0
C547 C 0.62249 0.76087 0.82147 0.0
C548 C 0.64979 0.78247 0.8052 0.0
C549 C 0.65308 0.81395 0.79885 0.0
C550 C 0.62888 0.82364 0.80897 0.0
C551 C 0.60148 0.80296 0.82486 0.0
C552 C 0.57573 0.81772 0.83139 0.0
C553 C 0.52412 0.78381 0.83076 0.0
C554 C 0.59252 0.83906 0.85244 0.0
C555 C 0.59 0.84709 0.81543 0.0
C556 C 0.62254 0.85121 0.80347 0.0
C557 C 0.6407 0.8753 0.78734 0.0
C558 C 0.62395 0.89464 0.78264 0.0
C559 C 0.58853 0.88908 0.79366 0.0
C560 C 0.57219 0.86606 0.81072 0.0
H561 H 0.81182 0.48124 0.20506 0.0
H562 H 0.83439 0.42073 0.16036 0.0
H563 H 0.76654 0.39863 0.14111 0.0
H564 H 0.67922 0.42066 0.19367 0.0
H565 H 0.68935 0.46692 0.19681 0.0
H566 H 0.72013 0.45794 0.21244 0.0
H567 H 0.79551 0.52317 0.20146 0.0
H568 H 0.76548 0.53149 0.18531 0.0
H569 H 0.80776 0.5291 0.17503 0.0
H570 H 0.72312 0.40869 0.1207 0.0
H571 H 0.69637 0.43922 0.10331 0.0
H572 H 0.70877 0.50112 0.15934 0.0
C573 C 0.79945 0.46022 0.19222 0.0
C574 C 0.82693 0.45195 0.18417 0.0
C575 C 0.81239 0.42611 0.16689 0.0
C576 C 0.77419 0.41394 0.15575 0.0
C577 C 0.75158 0.42806 0.16231 0.0
C578 C 0.7629 0.44988 0.18053 0.0
C579 C 0.74343 0.47117 0.18162 0.0
C580 C 0.70575 0.45307 0.19704 0.0
C581 C 0.78027 0.51633 0.18609 0.0
C582 C 0.72424 0.46179 0.1605 0.0
C583 C 0.72766 0.43579 0.14981 0.0
C584 C 0.71865 0.42783 0.12912 0.0
C585 C 0.70479 0.44615 0.11927 0.0
C586 C 0.70109 0.47266 0.13012 0.0
C587 C 0.71084 0.48044 0.1509 0.0
H588 H 0.44114 0.86877 0.48703 0.0
H589 H 0.38283 0.92329 0.47018 0.0
H590 H 0.30632 0.85888 0.47069 0.0
H591 H 0.36431 0.77775 0.45724 0.0
H592 H 0.35993 0.74666 0.47557 0.0
H593 H 0.4106 0.79749 0.47502 0.0
H594 H 0.40155 0.8093 0.51245 0.0
H595 H 0.35044 0.75858 0.51315 0.0
H596 H 0.34937 0.79829 0.52041 0.0
H597 H 0.23556 0.78889 0.47247 0.0
H598 H 0.17568 0.71634 0.47199 0.0
H599 H 0.27659 0.70375 0.48647 0.0
C600 C 0.41227 0.86718 0.48348 0.0
C601 C 0.41857 0.90169 0.47861 0.0
C602 C 0.37952 0.89783 0.47404 0.0
C603 C 0.33561 0.86118 0.47436 0.0
C604 C 0.33053 0.82803 0.47934 0.0
C605 C 0.3677 0.83043 0.48368 0.0
C606 C 0.35222 0.78955 0.48787 0.0
C607 C 0.37299 0.77713 0.47303 0.0
C608 C 0.36412 0.7889 0.50977 0.0
C609 C 0.30081 0.76376 0.48447 0.0
C610 C 0.28922 0.78699 0.48006 0.0
C611 C 0.24421 0.77048 0.4761 0.0
C612 C 0.21025 0.72918 0.47606 0.0
C613 C 0.22099 0.70429 0.47977 0.0
C614 C 0.26704 0.72201 0.48422 0.0
H615 H 0.5834 0.30842 0.84894 0.0
H616 H 0.56471 0.32975 0.78834 0.0
H617 H 0.55902 0.2737 0.77496 0.0
H618 H 0.65818 0.28325 0.83039 0.0
H619 H 0.6385 0.24713 0.8488 0.0
H620 H 0.64118 0.28932 0.85467 0.0
H621 H 0.55632 0.24206 0.86343 0.0
H622 H 0.55323 0.19977 0.85712 0.0
H623 H 0.51488 0.20445 0.8449 0.0
H624 H 0.53309 0.20732 0.76962 0.0
H625 H 0.52796 0.14906 0.76707 0.0
H626 H 0.58789 0.17762 0.82745 0.0
C627 C 0.57897 0.3017 0.83283 0.0
C628 C 0.57131 0.32205 0.81984 0.0
C629 C 0.56741 0.31314 0.7988 0.0
C630 C 0.5644 0.28143 0.79097 0.0
C631 C 0.56794 0.25996 0.80417 0.0
C632 C 0.5782 0.27083 0.8244 0.0
C633 C 0.58456 0.24364 0.83428 0.0
C634 C 0.63353 0.26725 0.84252 0.0
C635 C 0.5502 0.22116 0.85092 0.0
C636 C 0.57456 0.21545 0.81636 0.0
C637 C 0.56311 0.22505 0.79959 0.0
C638 C 0.54538 0.20104 0.78204 0.0
C639 C 0.54305 0.16804 0.78074 0.0
C640 C 0.56184 0.16065 0.79621 0.0
C641 C 0.57561 0.18354 0.81486 0.0
H642 H 0.52587 0.76968 0.46653 0.0
H643 H 0.5958 0.85437 0.51794 0.0
H644 H 0.61804 0.81705 0.53068 0.0
H645 H 0.4775 0.68436 0.49377 0.0
H646 H 0.48401 0.65768 0.47457 0.0
H647 H 0.47873 0.69385 0.46763 0.0
H648 H 0.55417 0.72978 0.44883 0.0
H649 H 0.56019 0.69417 0.45627 0.0
H650 H 0.60491 0.74623 0.46223 0.0
H651 H 0.63509 0.77465 0.53771 0.0
H652 H 0.62471 0.7156 0.54604 0.0
H653 H 0.53487 0.65052 0.49353 0.0
C654 C 0.54566 0.77993 0.48048 0.0
C655 C 0.55921 0.81472 0.49137 0.0
C656 C 0.58491 0.82756 0.50957 0.0
C657 C 0.59845 0.80705 0.5167 0.0
C658 C 0.58569 0.77351 0.50555 0.0
C659 C 0.55857 0.75895 0.48825 0.0
C660 C 0.54517 0.71913 0.48096 0.0
C661 C 0.49326 0.68685 0.47916 0.0
C662 C 0.56743 0.72253 0.46088 0.0
C663 C 0.56598 0.71256 0.4979 0.0
C664 C 0.59176 0.74584 0.51096 0.0
C665 C 0.61464 0.74813 0.52781 0.0
C666 C 0.6084 0.71443 0.53242 0.0
C667 C 0.57786 0.67843 0.52079 0.0
C668 C 0.55814 0.67777 0.50268 0.0
H669 H 0.73446 0.52627 0.81053 0.0
H670 H 0.74995 0.58989 0.86635 0.0
H671 H 0.8164 0.59528 0.87596 0.0
H672 H 0.77082 0.47213 0.82954 0.0
H673 H 0.80325 0.47791 0.808 0.0
H674 H 0.75632 0.47816 0.80518 0.0
H675 H 0.80917 0.5459 0.7897 0.0
H676 H 0.85635 0.54594 0.79247 0.0
H677 H 0.8601 0.58659 0.80338 0.0
H678 H 0.88463 0.59405 0.88044 0.0
H679 H 0.9445 0.58834 0.8792 0.0
H680 H 0.89309 0.52627 0.82034 0.0
C681 C 0.75168 0.54145 0.82484 0.0
C682 C 0.73471 0.55763 0.83758 0.0
C683 C 0.76034 0.57719 0.85597 0.0
C684 C 0.79891 0.58036 0.86167 0.0
C685 C 0.81449 0.5645 0.84896 0.0
C686 C 0.79181 0.54566 0.83072 0.0
C687 C 0.81736 0.53254 0.81972 0.0
C688 C 0.785 0.48749 0.81534 0.0
C689 C 0.83688 0.55398 0.80014 0.0
C690 C 0.85679 0.54563 0.83471 0.0
C691 C 0.85406 0.56422 0.85143 0.0
C692 C 0.88613 0.57924 0.86731 0.0
C693 C 0.9208 0.57535 0.86647 0.0
C694 C 0.92588 0.55601 0.84996 0.0
C695 C 0.89233 0.54135 0.83356 0.0
H696 H 0.19035 0.66062 0.18328 0.0
H697 H 0.22722 0.61973 0.13306 0.0
H698 H 0.29761 0.68851 0.12935 0.0
H699 H 0.23171 0.7535 0.16651 0.0
H700 H 0.25505 0.78026 0.19064 0.0
H701 H 0.20767 0.72805 0.18935 0.0
H702 H 0.25277 0.71578 0.21138 0.0
H703 H 0.30031 0.76801 0.21283 0.0
H704 H 0.30796 0.73302 0.20378 0.0
H705 H 0.36286 0.76307 0.13021 0.0
H706 H 0.42194 0.83489 0.13818 0.0
H707 H 0.3435 0.82711 0.1885 0.0
C708 C 0.21345 0.66623 0.17157 0.0
C709 C 0.20322 0.63485 0.15833 0.0
C710 C 0.2345 0.64323 0.1434 0.0
C711 C 0.27443 0.68228 0.14112 0.0
C712 C 0.28332 0.71269 0.15422 0.0
C713 C 0.25418 0.70495 0.16947 0.0
C714 C 0.27293 0.74261 0.18222 0.0
C715 C 0.23986 0.75162 0.18215 0.0
C716 C 0.28416 0.73968 0.20383 0.0
C717 C 0.31602 0.77301 0.17118 0.0
C718 C 0.32152 0.75517 0.15513 0.0
C719 C 0.35897 0.77727 0.14283 0.0
C720 C 0.39227 0.81834 0.14736 0.0
C721 C 0.38827 0.83737 0.16409 0.0
C722 C 0.34873 0.81399 0.17582 0.0
H723 H 0.52126 0.2196 0.50668 0.0
H724 H 0.62097 0.26392 0.46018 0.0
H725 H 0.63439 0.32744 0.46266 0.0
H726 H 0.47424 0.2643 0.4918 0.0
H727 H 0.46654 0.27482 0.51727 0.0
H728 H 0.46479 0.23316 0.51143 0.0
H729 H 0.5285 0.2601 0.53841 0.0
H730 H 0.53016 0.30165 0.54445 0.0
H731 H 0.58125 0.30981 0.53733 0.0
H732 H 0.63646 0.38625 0.47075 0.0
H733 H 0.62959 0.43596 0.48469 0.0
H734 H 0.52907 0.35141 0.52593 0.0
C735 C 0.5465 0.24281 0.49721 0.0
C736 C 0.57043 0.23704 0.48338 0.0
C737 C 0.60219 0.26778 0.47085 0.0
C738 C 0.61005 0.30387 0.47218 0.0
C739 C 0.58572 0.30845 0.48605 0.0
C740 C 0.55475 0.27871 0.49837 0.0
C741 C 0.53317 0.29071 0.5122 0.0
C742 C 0.48164 0.26417 0.50791 0.0
C743 C 0.54394 0.29058 0.53441 0.0
C744 C 0.55714 0.33217 0.50593 0.0
C745 C 0.58708 0.34191 0.49073 0.0
C746 C 0.61311 0.37892 0.48264 0.0
C747 C 0.60883 0.40682 0.49055 0.0
C748 C 0.57901 0.39745 0.50642 0.0
C749 C 0.55255 0.3595 0.51396 0.0
H750 H 0.42967 0.49317 0.85249 0.0
H751 H 0.52308 0.60234 0.82262 0.0
H752 H 0.46586 0.61181 0.82248 0.0
H753 H 0.32424 0.46306 0.82644 0.0
H754 H 0.28951 0.44329 0.84822 0.0
H755 H 0.33688 0.44343 0.84563 0.0
H756 H 0.36986 0.48179 0.8801 0.0
H757 H 0.32251 0.48161 0.88279 0.0
H758 H 0.37978 0.52778 0.88469 0.0
H759 H 0.3928 0.60957 0.82461 0.0
H760 H 0.3216 0.5988 0.83186 0.0
H761 H 0.27295 0.49408 0.86247 0.0
C762 C 0.43849 0.51915 0.84579 0.0
C763 C 0.48344 0.54682 0.83736 0.0
C764 C 0.49076 0.58006 0.82918 0.0
C765 C 0.45754 0.58584 0.82899 0.0
C766 C 0.41448 0.55854 0.83721 0.0
C767 C 0.405 0.52581 0.84569 0.0
C768 C 0.35605 0.50152 0.85398 0.0
C769 C 0.32481 0.46036 0.84292 0.0
C770 C 0.35711 0.49795 0.87675 0.0
C771 C 0.34003 0.52574 0.84926 0.0
C772 C 0.37411 0.55821 0.83914 0.0
C773 C 0.36654 0.58405 0.83263 0.0
C774 C 0.32486 0.57742 0.83669 0.0
C775 C 0.28894 0.54524 0.84769 0.0
C776 C 0.29806 0.51915 0.8539 0.0
H777 H 0.8958 0.39174 0.14596 0.0
H778 H 0.99336 0.38605 0.17455 0.0
H779 H 0.93273 0.31533 0.1797 0.0
H780 H 0.80131 0.32634 0.1767 0.0
H781 H 0.7591 0.30166 0.15645 0.0
H782 H 0.8103 0.35173 0.15433 0.0
H783 H 0.8273 0.3308 0.12098 0.0
H784 H 0.77617 0.28046 0.12303 0.0
H785 H 0.83011 0.29113 0.12048 0.0
H786 H 0.86272 0.24531 0.18171 0.0
H787 H 0.78534 0.18227 0.18468 0.0
H788 H 0.72967 0.23043 0.15579 0.0
C789 C 0.90414 0.37553 0.1534 0.0
C790 C 0.94954 0.39458 0.15985 0.0
C791 C 0.95906 0.37216 0.16934 0.0
C792 C 0.92481 0.33184 0.17228 0.0
C793 C 0.88077 0.31361 0.16537 0.0
C794 C 0.87006 0.33459 0.15622 0.0
C795 C 0.81953 0.30719 0.15039 0.0
C796 C 0.79617 0.32264 0.16007 0.0
C797 C 0.81288 0.30212 0.12735 0.0
C798 C 0.8032 0.26851 0.15894 0.0
C799 C 0.83967 0.27276 0.16681 0.0
C800 C 0.83397 0.24157 0.17545 0.0
C801 C 0.78985 0.20559 0.17684 0.0
C802 C 0.75142 0.20083 0.16999 0.0
C803 C 0.75837 0.23266 0.16058 0.0
H804 H 0.04711 0.47272 0.08845 0.0
H805 H 0.09999 0.59298 0.10388 0.0
H806 H 0.11905 0.60921 0.06859 0.0
H807 H 0.13119 0.49921 0.04812 0.0
H808 H 0.08984 0.45633 0.03184 0.0
H809 H 0.08427 0.45408 0.05877 0.0
H810 H 1.00325 0.43157 0.05492 0.0
H811 H 1.00863 0.43379 0.02802 0.0
H812 H 0.99462 0.46138 0.04167 0.0
H813 H 0.12748 0.6126 0.03183 0.0
H814 H 0.12367 0.6023 0.99487 0.0
H815 H 0.0651 0.4801 0.00062 0.0
C816 C 0.06376 0.50266 0.0844 0.0
C817 C 0.07264 0.53184 0.09917 0.0
C818 C 0.09318 0.57027 0.09304 0.0
C819 C 0.10422 0.57983 0.07295 0.0
C820 C 0.09447 0.55067 0.05872 0.0
C821 C 0.07482 0.51281 0.06402 0.0
C822 C 0.06589 0.48691 0.0451 0.0
C823 C 0.09449 0.47332 0.04602 0.0
C824 C 1.01507 0.45131 0.04227 0.0
C825 C 0.08208 0.51584 0.02851 0.0
C826 C 0.09907 0.55258 0.03695 0.0
C827 C 0.11474 0.58409 0.02506 0.0
C828 C 0.11254 0.57801 0.00404 0.0
C829 C 0.09481 0.54073 0.99477 0.0
C830 C 0.07971 0.5092 0.00725 0.0
H831 H 0.56171 0.98122 0.41047 0.0
H832 H 0.55816 0.07551 0.42953 0.0
H833 H 0.55526 0.08768 0.39392 0.0
H834 H 0.63334 0.02801 0.36938 0.0
H835 H 0.6049 0.98367 0.35308 0.0
H836 H 0.60381 0.98058 0.37997 0.0
H837 H 0.51581 0.93097 0.37835 0.0
H838 H 0.51669 0.93338 0.3514 0.0
H839 H 0.48517 0.94402 0.36615 0.0
H840 H 0.55881 0.09276 0.35628 0.0
H841 H 0.55972 0.08547 0.31916 0.0
H842 H 0.55909 0.98672 0.32468 0.0
C843 C 0.55933 1.00382 0.40704 0.0
C844 C 0.55897 0.02687 0.42257 0.0
C845 C 0.55689 0.05678 0.41775 0.0
C846 C 0.55582 0.06416 0.3976 0.0
C847 C 0.55674 0.04123 0.38255 0.0
C848 C 0.55776 0.01125 0.38701 0.0
C849 C 0.55907 0.99123 0.36806 0.0
C850 C 0.60289 0.99619 0.36761 0.0
C851 C 0.51665 0.9473 0.36587 0.0
C852 C 0.55884 0.01474 0.35225 0.0
C853 C 0.55799 0.04373 0.3609 0.0
C854 C 0.55903 0.06993 0.34932 0.0
C855 C 0.5599 0.0658 0.32831 0.0
C856 C 0.55925 0.03546 0.31916 0.0
C857 C 0.55914 0.00992 0.33134 0.0
H858 H 0.56884 0.482 0.76275 0.0
H859 H 0.61476 0.59869 0.78153 0.0
H860 H 0.62015 0.61442 0.74593 0.0
H861 H 0.64121 0.51311 0.71888 0.0
H862 H 0.59885 0.46835 0.70395 0.0
H863 H 0.60099 0.46747 0.73093 0.0
H864 H 0.51662 0.43791 0.73222 0.0
H865 H 0.51434 0.43885 0.70528 0.0
H866 H 0.49942 0.46358 0.72117 0.0
H867 H 0.61946 0.61653 0.70774 0.0
H868 H 0.61298 0.6053 0.67086 0.0
H869 H 0.56245 0.48513 0.67735 0.0
C870 C 0.58056 0.51101 0.7593 0.0
C871 C 0.59272 0.53967 0.77485 0.0
C872 C 0.60721 0.57705 0.76986 0.0
C873 C 0.60978 0.58599 0.74965 0.0
C874 C 0.59783 0.55716 0.73461 0.0
C875 C 0.58371 0.52048 0.73922 0.0
C876 C 0.57253 0.4946 0.72031 0.0
C877 C 0.60533 0.48533 0.71841 0.0
C878 C 0.52276 0.45649 0.71972 0.0
C879 C 0.58097 0.52183 0.70436 0.0
C880 C 0.59618 0.55799 0.71284 0.0
C881 C 0.60728 0.58817 0.70097 0.0
C882 C 0.60297 0.58125 0.67992 0.0
C883 C 0.58691 0.54412 0.6708 0.0
C884 C 0.5756 0.51414 0.68345 0.0
H885 H 0.59216 0.06708 0.5492 0.0
H886 H 0.49514 0.94201 0.53162 0.0
H887 H 0.49233 0.92597 0.56702 0.0
H888 H 0.65212 0.06015 0.59054 0.0
H889 H 0.65751 0.09786 0.6063 0.0
H890 H 0.65691 0.09923 0.5793 0.0
H891 H 0.58987 0.10061 0.58122 0.0
H892 H 0.5898 0.09864 0.60816 0.0
H893 H 0.53871 0.06187 0.59334 0.0
H894 H 0.49394 0.9237 0.60455 0.0
H895 H 0.50049 0.93501 0.64146 0.0
H896 H 0.59681 0.06193 0.63511 0.0
C897 C 0.57169 0.03638 0.5528 0.0
C898 C 0.54476 1.0056 0.53776 0.0
C899 C 0.51667 0.9658 0.54299 0.0
C900 C 0.5148 0.95648 0.56302 0.0
C901 C 0.54088 0.98741 0.57769 0.0
C902 C 0.56899 0.0266 0.57285 0.0
C903 C 0.59037 0.05414 0.59171 0.0
C904 C 0.64232 0.07933 0.59197 0.0
C905 C 0.57633 0.08035 0.59372 0.0
C906 C 0.56944 0.02437 0.60785 0.0
C907 C 0.54124 0.98607 0.59943 0.0
C908 C 0.51654 0.95358 0.61131 0.0
C909 C 0.52072 0.96034 0.63234 0.0
C910 C 0.54943 0.99937 0.64142 0.0
C911 C 0.57428 0.03168 0.62882 0.0
H912 H 0.55977 0.49748 0.88427 0.0
H913 H 0.69069 0.61206 0.89902 0.0
H914 H 0.68253 0.59672 0.93452 0.0
H915 H 0.50147 0.49004 0.92377 0.0
H916 H 0.47213 0.43904 0.92881 0.0
H917 H 0.49053 0.45511 0.90382 0.0
H918 H 0.53632 0.42971 0.90336 0.0
H919 H 0.51699 0.41236 0.9282 0.0
H920 H 0.5769 0.44556 0.9235 0.0
H921 H 0.65433 0.57651 0.96759 0.0
H922 H 0.61284 0.546 -0.00164 0.0
H923 H 0.50319 0.44071 0.96309 0.0
C924 C 0.58717 0.51864 0.89494 0.0
C925 C 0.62566 0.55586 0.8892 0.0
C926 C 0.66091 0.58336 0.90334 0.0
C927 C 0.65676 0.57487 0.92344 0.0
C928 C 0.61792 0.53831 0.9288 0.0
C929 C 0.58436 0.50999 0.91499 0.0
C930 C 0.54535 0.47376 0.92514 0.0
C931 C 0.49969 0.46397 0.92008 0.0
C932 C 0.54381 0.43824 0.91973 0.0
C933 C 0.56006 0.48828 0.94689 0.0
C934 C 0.60249 0.52532 0.94848 0.0
C935 C 0.62188 0.54697 0.9667 0.0
C936 C 0.59788 0.52972 0.98395 0.0
C937 C 0.55536 0.49119 0.98276 0.0
C938 C 0.53579 0.47018 0.96411 0.0
H939 H 1.03027 0.45324 0.2269 0.0
H940 H 0.11289 0.57752 0.21493 0.0
H941 H 0.11079 0.59384 0.25069 0.0
H942 H 0.96075 0.45758 0.26571 0.0
H943 H 0.95625 0.42264 0.28111 0.0
H944 H 0.96071 0.41928 0.2542 0.0
H945 H 1.03078 0.42307 0.25941 0.0
H946 H 1.02622 0.42621 0.28626 0.0
H947 H 0.07871 0.46393 0.27457 0.0
H948 H 0.1009 0.59782 0.28724 0.0
H949 H 0.09093 0.59078 0.32351 0.0
H950 H 1.01831 0.46442 0.31431 0.0
C951 C 0.04763 0.48383 0.23183 0.0
C952 C 0.07162 0.51414 0.2179 0.0
C953 C 0.09391 0.55374 0.22507 0.0
C954 C 0.09287 0.56332 0.24543 0.0
C955 C 0.06904 0.53301 0.25868 0.0
C956 C 0.04672 0.49401 0.25231 0.0
C957 C 1.02452 0.46763 0.27014 0.0
C958 C 0.97247 0.44013 0.26764 0.0
C959 C 1.04109 0.44383 0.27274 0.0
C960 C 1.04085 0.49834 0.28763 0.0
C961 C 0.06499 0.53558 0.28036 0.0
C962 C 0.08263 0.56887 0.29311 0.0
C963 C 0.07702 0.56449 0.31384 0.0
C964 C 0.05527 0.52727 0.32215 0.0
C965 C 1.03557 0.4934 0.30865 0.0
loop_
_geom_bond_atom_site_label_1
_geom_bond_atom_site_label_2
_geom_bond_distance
_geom_bond_site_symmetry_2
_ccdc_geom_bond_type
Gd0 C3 2.818 . S
Gd0 O20 2.377 . S
Gd0 O22 2.448 . S
Gd0 O23 2.506 . S
Gd0 O24 2.435 . S
Gd0 O25 2.717 . S
Gd0 O27 2.395 1_455 S
Gd0 O31 2.327 . S
Gd1 C12 2.818 1_455 S
Gd1 O21 2.395 . S
Gd1 O25 2.327 . S
Gd1 O26 2.377 1_455 S
Gd1 O28 2.448 1_455 S
Gd1 O29 2.506 1_455 S
Gd1 O30 2.435 . S
Gd1 O31 2.717 . S
C2 O20 1.240 . S
C2 O21 1.240 . S
C3 Gd0 2.818 . S
C3 C4 1.510 . S
C3 O22 1.249 . S
C3 O23 1.252 . S
C4 C3 1.510 . S
C4 C5 1.404 . S
C4 C6 1.352 . S
C5 C4 1.404 . S
C5 C9 1.389 . S
C5 H32 0.930 . S
C6 C4 1.352 . S
C6 C8 1.374 . S
C6 H33 0.931 . S
C7 C8 1.359 . S
C7 C9 1.364 . S
C8 C6 1.374 . S
C8 C7 1.359 . S
C8 H34 0.931 . S
C9 C5 1.389 . S
C9 C7 1.364 . S
C9 H35 0.931 . S
C10 O24 1.256 . S
C10 O25 1.257 . S
C11 O26 1.240 . S
C11 O27 1.240 . S
C12 Gd1 2.818 1_655 S
C12 C13 1.510 . S
C12 O28 1.249 . S
C12 O29 1.252 . S
C13 C12 1.510 . S
C13 C14 1.404 . S
C13 C15 1.352 . S
C14 C13 1.404 . S
C14 C18 1.389 . S
C14 H36 0.930 . S
C15 C13 1.352 . S
C15 C17 1.374 . S
C15 H37 0.931 . S
C16 C17 1.359 . S
C16 C18 1.364 . S
C17 C15 1.374 . S
C17 C16 1.359 . S
C17 H38 0.931 . S
C18 C14 1.389 . S
C18 C16 1.364 . S
C18 H39 0.931 . S
C19 O30 1.256 . S
C19 O31 1.257 . S
O20 Gd0 2.377 . S
O20 C2 1.240 . S
O21 Gd1 2.395 . S
O21 C2 1.240 . S
O22 Gd0 2.448 . S
O22 C3 1.249 . S
O23 Gd0 2.506 . S
O23 C3 1.252 . S
O24 Gd0 2.435 . S
O24 C10 1.256 . S
O25 Gd0 2.717 . S
O25 Gd1 2.327 . S
O25 C10 1.257 . S
O26 Gd1 2.377 1_655 S
O26 C11 1.240 . S
O27 Gd0 2.395 1_655 S
O27 C11 1.240 . S
O28 Gd1 2.448 1_655 S
O28 C12 1.249 . S
O29 Gd1 2.506 1_655 S
O29 C12 1.252 . S
O30 Gd1 2.435 . S
O30 C19 1.256 . S
O31 Gd0 2.327 . S
O31 Gd1 2.717 . S
O31 C19 1.257 . S
H32 C5 0.930 . S
H33 C6 0.931 . S
H34 C8 0.931 . S
H35 C9 0.931 . S
H36 C14 0.930 . S
H37 C15 0.931 . S
H38 C17 0.931 . S
H39 C18 0.931 . S
Gd40 C43 2.818 . S
Gd40 O60 2.377 . S
Gd40 O62 2.448 . S
Gd40 O63 2.506 . S
Gd40 O64 2.435 . S
Gd40 O65 2.717 1_565 S
Gd40 O67 2.395 1_565 S
Gd40 O71 2.327 1_565 S
Gd41 C52 2.818 . S
Gd41 O61 2.395 1_545 S
Gd41 O65 2.327 . S
Gd41 O66 2.377 . S
Gd41 O68 2.448 . S
Gd41 O69 2.506 . S
Gd41 O70 2.435 . S
Gd41 O71 2.717 . S
C42 O60 1.240 . S
C42 O61 1.240 . S
C43 Gd40 2.818 . S
C43 C44 1.510 . S
C43 O62 1.249 . S
C43 O63 1.252 . S
C44 C43 1.510 . S
C44 C45 1.404 . S
C44 C46 1.352 . S
C45 C44 1.404 . S
C45 C49 1.389 . S
C45 H72 0.930 . S
C46 C44 1.352 . S
C46 C48 1.374 . S
C46 H73 0.931 . S
C47 C48 1.359 . S
C47 C49 1.364 . S
C48 C46 1.374 . S
C48 C47 1.359 . S
C48 H74 0.931 . S
C49 C45 1.389 . S
C49 C47 1.364 . S
C49 H75 0.931 . S
C50 O64 1.256 1_545 S
C50 O65 1.257 . S
C51 O66 1.240 . S
C51 O67 1.240 . S
C52 Gd41 2.818 . S
C52 C53 1.510 . S
C52 O68 1.249 . S
C52 O69 1.252 . S
C53 C52 1.510 . S
C53 C54 1.404 . S
C53 C55 1.352 . S
C54 C53 1.404 . S
C54 C58 1.389 . S
C54 H76 0.930 . S
C55 C53 1.352 . S
C55 C57 1.374 . S
C55 H77 0.931 . S
C56 C57 1.359 . S
C56 C58 1.364 . S
C57 C55 1.374 . S
C57 C56 1.359 . S
C57 H78 0.931 . S
C58 C54 1.389 . S
C58 C56 1.364 . S
C58 H79 0.931 . S
C59 O70 1.256 . S
C59 O71 1.257 . S
O60 Gd40 2.377 . S
O60 C42 1.240 . S
O61 Gd41 2.395 1_565 S
O61 C42 1.240 . S
O62 Gd40 2.448 . S
O62 C43 1.249 . S
O63 Gd40 2.506 . S
O63 C43 1.252 . S
O64 Gd40 2.435 . S
O64 C50 1.256 1_565 S
O65 Gd40 2.717 1_545 S
O65 Gd41 2.327 . S
O65 C50 1.257 . S
O66 Gd41 2.377 . S
O66 C51 1.240 . S
O67 Gd40 2.395 1_545 S
O67 C51 1.240 . S
O68 Gd41 2.448 . S
O68 C52 1.249 . S
O69 Gd41 2.506 . S
O69 C52 1.252 . S
O70 Gd41 2.435 . S
O70 C59 1.256 . S
O71 Gd40 2.327 1_545 S
O71 Gd41 2.717 . S
O71 C59 1.257 . S
H72 C45 0.930 . S
H73 C46 0.931 . S
H74 C48 0.931 . S
H75 C49 0.931 . S
H76 C54 0.930 . S
H77 C55 0.931 . S
H78 C57 0.931 . S
H79 C58 0.931 . S
Gd80 C83 2.818 . S
Gd80 O100 2.377 . S
Gd80 O102 2.448 . S
Gd80 O103 2.506 . S
Gd80 O104 2.435 . S
Gd80 O105 2.717 . S
Gd80 O107 2.395 . S
Gd80 O111 2.327 . S
Gd81 C92 2.818 . S
Gd81 O101 2.395 . S
Gd81 O105 2.327 . S
Gd81 O106 2.377 . S
Gd81 O108 2.448 . S
Gd81 O109 2.506 . S
Gd81 O110 2.435 . S
Gd81 O111 2.717 . S
C82 O100 1.240 . S
C82 O101 1.240 . S
C83 Gd80 2.818 . S
C83 C84 1.510 . S
C83 O102 1.249 . S
C83 O103 1.252 . S
C84 C83 1.510 . S
C84 C85 1.404 . S
C84 C86 1.352 . S
C85 C84 1.404 . S
C85 C89 1.389 . S
C85 H112 0.930 . S
C86 C84 1.352 . S
C86 C88 1.374 . S
C86 H113 0.931 . S
C87 C88 1.359 . S
C87 C89 1.364 . S
C88 C86 1.374 . S
C88 C87 1.359 . S
C88 H114 0.931 . S
C89 C85 1.389 . S
C89 C87 1.364 . S
C89 H115 0.931 . S
C90 O104 1.256 . S
C90 O105 1.257 . S
C91 O106 1.240 . S
C91 O107 1.240 . S
C92 Gd81 2.818 . S
C92 C93 1.510 . S
C92 O108 1.249 . S
C92 O109 1.252 . S
C93 C92 1.510 . S
C93 C94 1.404 . S
C93 C95 1.352 . S
C94 C93 1.404 . S
C94 C98 1.389 . S
C94 H116 0.930 . S
C95 C93 1.352 . S
C95 C97 1.374 . S
C95 H117 0.931 . S
C96 C97 1.359 . S
C96 C98 1.364 . S
C97 C95 1.374 . S
C97 C96 1.359 . S
C97 H118 0.931 . S
C98 C94 1.389 . S
C98 C96 1.364 . S
C98 H119 0.931 . S
C99 O110 1.256 . S
C99 O111 1.257 . S
O100 Gd80 2.377 . S
O100 C82 1.240 . S
O101 Gd81 2.395 . S
O101 C82 1.240 . S
O102 Gd80 2.448 . S
O102 C83 1.249 . S
O103 Gd80 2.506 . S
O103 C83 1.252 . S
O104 Gd80 2.435 . S
O104 C90 1.256 . S
O105 Gd80 2.717 . S
O105 Gd81 2.327 . S
O105 C90 1.257 . S
O106 Gd81 2.377 . S
O106 C91 1.240 . S
O107 Gd80 2.395 . S
O107 C91 1.240 . S
O108 Gd81 2.448 . S
O108 C92 1.249 . S
O109 Gd81 2.506 . S
O109 C92 1.252 . S
O110 Gd81 2.435 . S
O110 C99 1.256 . S
O111 Gd80 2.327 . S
O111 Gd81 2.717 . S
O111 C99 1.257 . S
H112 C85 0.930 . S
H113 C86 0.931 . S
H114 C88 0.931 . S
H115 C89 0.931 . S
H116 C94 0.930 . S
H117 C95 0.931 . S
H118 C97 0.931 . S
H119 C98 0.931 . S
C120 C121 1.391 . S
C120 C124 1.391 . S
C120 H162 0.948 . S
C121 C120 1.391 . S
C121 C122 1.391 . S
C122 C121 1.391 . S
C122 H178 0.947 . S
C122 C179 1.392 . S
C123 C124 1.391 . S
C123 C127 1.397 . S
C123 C179 1.419 . S
C124 C120 1.391 . S
C124 C123 1.391 . S
C124 C125 1.399 . S
C125 C124 1.399 . S
C125 C128 1.396 . S
C125 C137 1.453 . S
C125 C138 1.684 . S
H126 C150 0.948 . S
C127 C123 1.397 . S
C127 C128 1.394 . S
C127 C146 1.723 . S
C128 C125 1.396 . S
C128 C127 1.394 . S
C128 C158 1.723 1_545 S
H129 C152 0.947 . S
H130 C153 0.948 . S
H131 C159 0.982 . S
H132 C160 0.979 . S
H133 C160 0.980 . S
H134 C160 0.983 . S
H135 C159 0.979 . S
H136 C159 0.977 . S
C137 C125 1.453 . S
C137 H166 0.982 . S
C137 H167 0.979 . S
C137 H168 0.977 . S
C138 C125 1.684 . S
C138 H163 0.979 . S
C138 H164 0.980 . S
C138 H165 0.983 . S
C139 C140 1.391 . S
C139 C144 1.391 . S
C139 H169 0.948 . S
C140 C139 1.391 . S
C140 C141 1.391 1_545 S
C141 C140 1.391 1_565 S
C141 C142 1.392 . S
C141 H170 0.947 . S
C142 C141 1.392 . S
C142 C143 1.419 1_565 S
C142 H171 0.948 . S
C143 C142 1.419 1_545 S
C143 C144 1.391 . S
C143 C147 1.397 . S
C144 C139 1.391 . S
C144 C143 1.391 . S
C144 C145 1.399 . S
C145 C144 1.399 . S
C145 C146 1.396 . S
C145 C148 1.453 . S
C145 C149 1.684 . S
C146 C127 1.723 . S
C146 C145 1.396 . S
C146 C147 1.394 . S
C147 C143 1.397 . S
C147 C146 1.394 . S
C147 C157 1.723 1_545 S
C148 C145 1.453 . S
C148 H172 0.982 . S
C148 H173 0.979 . S
C148 H174 0.977 . S
C149 C145 1.684 . S
C149 H175 0.979 . S
C149 H176 0.980 . S
C149 H177 0.983 . S
C150 H126 0.948 . S
C150 C151 1.391 . S
C150 C155 1.391 . S
C151 C150 1.391 . S
C151 C152 1.391 . S
C152 H129 0.947 . S
C152 C151 1.391 . S
C152 C153 1.392 . S
C153 H130 0.948 . S
C153 C152 1.392 . S
C153 C154 1.419 . S
C154 C153 1.419 . S
C154 C155 1.391 . S
C154 C158 1.397 . S
C155 C150 1.391 . S
C155 C154 1.391 . S
C155 C156 1.399 . S
C156 C155 1.399 . S
C156 C157 1.396 . S
C156 C159 1.453 . S
C156 C160 1.684 . S
C157 C147 1.723 1_565 S
C157 C156 1.396 . S
C157 C158 1.394 . S
C158 C128 1.723 1_565 S
C158 C154 1.397 . S
C158 C157 1.394 . S
C159 H131 0.982 . S
C159 H135 0.979 . S
C159 H136 0.977 . S
C159 C156 1.453 . S
C160 H132 0.979 . S
C160 H133 0.980 . S
C160 H134 0.983 . S
C160 C156 1.684 . S
H161 C179 0.948 . S
H162 C120 0.948 . S
H163 C138 0.979 . S
H164 C138 0.980 . S
H165 C138 0.983 . S
H166 C137 0.982 . S
H167 C137 0.979 . S
H168 C137 0.977 . S
H169 C139 0.948 . S
H170 C141 0.947 . S
H171 C142 0.948 . S
H172 C148 0.982 . S
H173 C148 0.979 . S
H174 C148 0.977 . S
H175 C149 0.979 . S
H176 C149 0.980 . S
H177 C149 0.983 . S
H178 C122 0.947 . S
C179 C122 1.392 . S
C179 C123 1.419 . S
C179 H161 0.948 . S
C180 C181 1.391 . S
C180 C184 1.391 . S
C180 H222 0.948 . S
C181 C180 1.391 . S
C181 C182 1.391 . S
C182 C181 1.391 . S
C182 H238 0.947 . S
C182 C239 1.392 . S
C183 C184 1.391 . S
C183 C187 1.397 . S
C183 C239 1.419 . S
C184 C180 1.391 . S
C184 C183 1.391 . S
C184 C185 1.399 . S
C185 C184 1.399 . S
C185 C188 1.396 . S
C185 C197 1.453 . S
C185 C198 1.684 . S
H186 C210 0.948 . S
C187 C183 1.397 . S
C187 C188 1.394 . S
C187 C206 1.723 . S
C188 C185 1.396 . S
C188 C187 1.394 . S
C188 C218 1.723 . S
H189 C212 0.947 . S
H190 C213 0.948 . S
H191 C219 0.982 . S
H192 C220 0.979 . S
H193 C220 0.980 . S
H194 C220 0.983 . S
H195 C219 0.979 . S
H196 C219 0.977 . S
C197 C185 1.453 . S
C197 H226 0.982 . S
C197 H227 0.979 . S
C197 H228 0.977 . S
C198 C185 1.684 . S
C198 H223 0.979 . S
C198 H224 0.980 . S
C198 H225 0.983 . S
C199 C200 1.391 . S
C199 C204 1.391 . S
C199 H229 0.948 . S
C200 C199 1.391 . S
C200 C201 1.391 . S
C201 C200 1.391 . S
C201 C202 1.392 . S
C201 H230 0.947 . S
C202 C201 1.392 . S
C202 C203 1.419 . S
C202 H231 0.948 . S
C203 C202 1.419 . S
C203 C204 1.391 . S
C203 C207 1.397 . S
C204 C199 1.391 . S
C204 C203 1.391 . S
C204 C205 1.399 . S
C205 C204 1.399 . S
C205 C206 1.396 . S
C205 C208 1.453 . S
C205 C209 1.684 . S
C206 C187 1.723 . S
C206 C205 1.396 . S
C206 C207 1.394 . S
C207 C203 1.397 . S
C207 C206 1.394 . S
C207 C217 1.723 . S
C208 C205 1.453 . S
C208 H232 0.982 . S
C208 H233 0.979 . S
C208 H234 0.977 . S
C209 C205 1.684 . S
C209 H235 0.979 . S
C209 H236 0.980 . S
C209 H237 0.983 . S
C210 H186 0.948 . S
C210 C211 1.391 . S
C210 C215 1.391 . S
C211 C210 1.391 . S
C211 C212 1.391 . S
C212 H189 0.947 . S
C212 C211 1.391 . S
C212 C213 1.392 . S
C213 H190 0.948 . S
C213 C212 1.392 . S
C213 C214 1.419 . S
C214 C213 1.419 . S
C214 C215 1.391 . S
C214 C218 1.397 . S
C215 C210 1.391 . S
C215 C214 1.391 . S
C215 C216 1.399 . S
C216 C215 1.399 . S
C216 C217 1.396 . S
C216 C219 1.453 . S
C216 C220 1.684 . S
C217 C207 1.723 . S
C217 C216 1.396 . S
C217 C218 1.394 . S
C218 C188 1.723 . S
C218 C214 1.397 . S
C218 C217 1.394 . S
C219 H191 0.982 . S
C219 H195 0.979 . S
C219 H196 0.977 . S
C219 C216 1.453 . S
C220 H192 0.979 . S
C220 H193 0.980 . S
C220 H194 0.983 . S
C220 C216 1.684 . S
H221 C239 0.948 . S
H222 C180 0.948 . S
H223 C198 0.979 . S
H224 C198 0.980 . S
H225 C198 0.983 . S
H226 C197 0.982 . S
H227 C197 0.979 . S
H228 C197 0.977 . S
H229 C199 0.948 . S
H230 C201 0.947 . S
H231 C202 0.948 . S
H232 C208 0.982 . S
H233 C208 0.979 . S
H234 C208 0.977 . S
H235 C209 0.979 . S
H236 C209 0.980 . S
H237 C209 0.983 . S
H238 C182 0.947 . S
C239 C182 1.392 . S
C239 C183 1.419 . S
C239 H221 0.948 . S
C240 C241 1.391 . S
C240 C244 1.391 . S
C240 H282 0.948 . S
C241 C240 1.391 . S
C241 C242 1.391 . S
C242 C241 1.391 . S
C242 H298 0.947 . S
C242 C299 1.392 . S
C243 C244 1.391 . S
C243 C247 1.397 . S
C243 C299 1.419 . S
C244 C240 1.391 . S
C244 C243 1.391 . S
C244 C245 1.399 . S
C245 C244 1.399 . S
C245 C248 1.396 . S
C245 C257 1.453 . S
C245 C258 1.684 . S
H246 C270 0.948 . S
C247 C243 1.397 . S
C247 C248 1.394 . S
C247 C266 1.723 . S
C248 C245 1.396 . S
C248 C247 1.394 . S
C248 C278 1.723 . S
H249 C272 0.947 . S
H250 C273 0.948 . S
H251 C279 0.982 . S
H252 C280 0.979 1_455 S
H253 C280 0.980 . S
H254 C280 0.983 . S
H255 C279 0.979 . S
H256 C279 0.977 . S
C257 C245 1.453 . S
C257 H286 0.982 . S
C257 H287 0.979 . S
C257 H288 0.977 . S
C258 C245 1.684 . S
C258 H283 0.979 . S
C258 H284 0.980 . S
C258 H285 0.983 . S
C259 C260 1.391 . S
C259 C264 1.391 . S
C259 H289 0.948 . S
C260 C259 1.391 . S
C260 C261 1.391 . S
C261 C260 1.391 . S
C261 C262 1.392 . S
C261 H290 0.947 . S
C262 C261 1.392 . S
C262 C263 1.419 . S
C262 H291 0.948 . S
C263 C262 1.419 . S
C263 C264 1.391 . S
C263 C267 1.397 . S
C264 C259 1.391 . S
C264 C263 1.391 . S
C264 C265 1.399 . S
C265 C264 1.399 . S
C265 C266 1.396 . S
C265 C268 1.453 . S
C265 C269 1.684 . S
C266 C247 1.723 . S
C266 C265 1.396 . S
C266 C267 1.394 . S
C267 C263 1.397 . S
C267 C266 1.394 . S
C267 C277 1.723 . S
C268 C265 1.453 . S
C268 H292 0.982 . S
C268 H293 0.979 . S
C268 H294 0.977 . S
C269 C265 1.684 . S
C269 H295 0.979 . S
C269 H296 0.980 . S
C269 H297 0.983 . S
C270 H246 0.948 . S
C270 C271 1.391 . S
C270 C275 1.391 . S
C271 C270 1.391 . S
C271 C272 1.391 . S
C272 H249 0.947 . S
C272 C271 1.391 . S
C272 C273 1.392 1_655 S
C273 H250 0.948 . S
C273 C272 1.392 1_455 S
C273 C274 1.419 . S
C274 C273 1.419 . S
C274 C275 1.391 1_455 S
C274 C278 1.397 . S
C275 C270 1.391 . S
C275 C274 1.391 1_655 S
C275 C276 1.399 . S
C276 C275 1.399 . S
C276 C277 1.396 1_655 S
C276 C279 1.453 . S
C276 C280 1.684 . S
C277 C267 1.723 . S
C277 C276 1.396 1_455 S
C277 C278 1.394 . S
C278 C248 1.723 . S
C278 C274 1.397 . S
C278 C277 1.394 . S
C279 H251 0.982 . S
C279 H255 0.979 . S
C279 H256 0.977 . S
C279 C276 1.453 . S
C280 H252 0.979 1_655 S
C280 H253 0.980 . S
C280 H254 0.983 . S
C280 C276 1.684 . S
H281 C299 0.948 . S
H282 C240 0.948 . S
H283 C258 0.979 . S
H284 C258 0.980 . S
H285 C258 0.983 . S
H286 C257 0.982 . S
H287 C257 0.979 . S
H288 C257 0.977 . S
H289 C259 0.948 . S
H290 C261 0.947 . S
H291 C262 0.948 . S
H292 C268 0.982 . S
H293 C268 0.979 . S
H294 C268 0.977 . S
H295 C269 0.979 . S
H296 C269 0.980 . S
H297 C269 0.983 . S
H298 C242 0.947 . S
C299 C242 1.392 . S
C299 C243 1.419 . S
C299 H281 0.948 . S
C300 C301 1.391 . S
C300 C304 1.391 . S
C300 H342 0.948 . S
C301 C300 1.391 . S
C301 C302 1.391 . S
C302 C301 1.391 . S
C302 H358 0.947 . S
C302 C359 1.392 . S
C303 C304 1.391 . S
C303 C307 1.397 . S
C303 C359 1.419 . S
C304 C300 1.391 . S
C304 C303 1.391 . S
C304 C305 1.399 . S
C305 C304 1.399 . S
C305 C308 1.396 . S
C305 C317 1.453 . S
C305 C318 1.684 . S
H306 C330 0.948 . S
C307 C303 1.397 . S
C307 C308 1.394 . S
C307 C326 1.723 . S
C308 C305 1.396 . S
C308 C307 1.394 . S
C308 C338 1.723 1_655 S
H309 C332 0.947 . S
H310 C333 0.948 . S
H311 C339 0.982 . S
H312 C340 0.979 . S
H313 C340 0.980 . S
H314 C340 0.983 . S
H315 C339 0.979 . S
H316 C339 0.977 . S
C317 C305 1.453 . S
C317 H346 0.982 1_655 S
C317 H347 0.979 . S
C317 H348 0.977 1_655 S
C318 C305 1.684 . S
C318 H343 0.979 . S
C318 H344 0.980 . S
C318 H345 0.983 . S
C319 C320 1.391 1_655 S
C319 C324 1.391 . S
C319 H349 0.948 . S
C320 C319 1.391 1_455 S
C320 C321 1.391 . S
C321 C320 1.391 . S
C321 C322 1.392 . S
C321 H350 0.947 . S
C322 C321 1.392 . S
C322 C323 1.419 . S
C322 H351 0.948 . S
C323 C322 1.419 . S
C323 C324 1.391 1_455 S
C323 C327 1.397 . S
C324 C319 1.391 . S
C324 C323 1.391 1_655 S
C324 C325 1.399 . S
C325 C324 1.399 . S
C325 C326 1.396 . S
C325 C328 1.453 . S
C325 C329 1.684 . S
C326 C307 1.723 . S
C326 C325 1.396 . S
C326 C327 1.394 1_655 S
C327 C323 1.397 . S
C327 C326 1.394 1_455 S
C327 C337 1.723 . S
C328 C325 1.453 . S
C328 H352 0.982 . S
C328 H353 0.979 . S
C328 H354 0.977 . S
C329 C325 1.684 . S
C329 H355 0.979 . S
C329 H356 0.980 . S
C329 H357 0.983 . S
C330 H306 0.948 . S
C330 C331 1.391 . S
C330 C335 1.391 . S
C331 C330 1.391 . S
C331 C332 1.391 . S
C332 H309 0.947 . S
C332 C331 1.391 . S
C332 C333 1.392 . S
C333 H310 0.948 . S
C333 C332 1.392 . S
C333 C334 1.419 . S
C334 C333 1.419 . S
C334 C335 1.391 . S
C334 C338 1.397 . S
C335 C330 1.391 . S
C335 C334 1.391 . S
C335 C336 1.399 . S
C336 C335 1.399 . S
C336 C337 1.396 . S
C336 C339 1.453 . S
C336 C340 1.684 . S
C337 C327 1.723 . S
C337 C336 1.396 . S
C337 C338 1.394 . S
C338 C308 1.723 1_455 S
C338 C334 1.397 . S
C338 C337 1.394 . S
C339 H311 0.982 . S
C339 H315 0.979 . S
C339 H316 0.977 . S
C339 C336 1.453 . S
C340 H312 0.979 . S
C340 H313 0.980 . S
C340 H314 0.983 . S
C340 C336 1.684 . S
H341 C359 0.948 . S
H342 C300 0.948 . S
H343 C318 0.979 . S
H344 C318 0.980 . S
H345 C318 0.983 . S
H346 C317 0.982 1_455 S
H347 C317 0.979 . S
H348 C317 0.977 1_455 S
H349 C319 0.948 . S
H350 C321 0.947 . S
H351 C322 0.948 . S
H352 C328 0.982 . S
H353 C328 0.979 . S
H354 C328 0.977 . S
H355 C329 0.979 . S
H356 C329 0.980 . S
H357 C329 0.983 . S
H358 C302 0.947 . S
C359 C302 1.392 . S
C359 C303 1.419 . S
C359 H341 0.948 . S
C360 C361 1.391 . S
C360 C364 1.391 . S
C360 H402 0.948 . S
C361 C360 1.391 . S
C361 C362 1.391 . S
C362 C361 1.391 . S
C362 H418 0.947 . S
C362 C419 1.392 . S
C363 C364 1.391 . S
C363 C367 1.397 . S
C363 C419 1.419 . S
C364 C360 1.391 . S
C364 C363 1.391 . S
C364 C365 1.399 . S
C365 C364 1.399 . S
C365 C368 1.396 . S
C365 C377 1.453 1_565 S
C365 C378 1.684 . S
H366 C390 0.948 . S
C367 C363 1.397 . S
C367 C368 1.394 . S
C367 C386 1.723 . S
C368 C365 1.396 . S
C368 C367 1.394 . S
C368 C398 1.723 1_565 S
H369 C392 0.947 . S
H370 C393 0.948 . S
H371 C399 0.982 . S
H372 C400 0.979 . S
H373 C400 0.980 . S
H374 C400 0.983 . S
H375 C399 0.979 . S
H376 C399 0.977 . S
C377 C365 1.453 1_545 S
C377 H406 0.982 . S
C377 H407 0.974 1_545 S
C377 H408 0.977 . S
C378 C365 1.684 . S
C378 H403 0.979 . S
C378 H404 0.980 . S
C378 H405 0.983 . S
C379 C380 1.391 . S
C379 C384 1.391 . S
C379 H409 0.948 . S
C380 C379 1.391 . S
C380 C381 1.391 1_565 S
C381 C380 1.391 1_545 S
C381 C382 1.392 . S
C381 H410 0.947 . S
C382 C381 1.392 . S
C382 C383 1.419 . S
C382 H411 0.948 . S
C383 C382 1.419 . S
C383 C384 1.391 1_545 S
C383 C387 1.397 . S
C384 C379 1.391 . S
C384 C383 1.391 1_565 S
C384 C385 1.399 . S
C385 C384 1.399 . S
C385 C386 1.396 . S
C385 C388 1.453 . S
C385 C389 1.684 . S
C386 C367 1.723 . S
C386 C385 1.396 . S
C386 C387 1.394 1_565 S
C387 C383 1.397 . S
C387 C386 1.394 1_545 S
C387 C397 1.723 . S
C388 C385 1.453 . S
C388 H412 0.982 . S
C388 H413 0.979 . S
C388 H414 0.977 . S
C389 C385 1.684 . S
C389 H415 0.979 . S
C389 H416 0.980 . S
C389 H417 0.983 . S
C390 H366 0.948 . S
C390 C391 1.391 . S
C390 C395 1.391 . S
C391 C390 1.391 . S
C391 C392 1.391 . S
C392 H369 0.947 . S
C392 C391 1.391 . S
C392 C393 1.392 . S
C393 H370 0.948 . S
C393 C392 1.392 . S
C393 C394 1.419 . S
C394 C393 1.419 . S
C394 C395 1.391 . S
C394 C398 1.397 . S
C395 C390 1.391 . S
C395 C394 1.391 . S
C395 C396 1.399 . S
C396 C395 1.399 . S
C396 C397 1.396 . S
C396 C399 1.453 . S
C396 C400 1.684 . S
C397 C387 1.723 . S
C397 C396 1.396 . S
C397 C398 1.394 . S
C398 C368 1.723 1_545 S
C398 C394 1.397 . S
C398 C397 1.394 . S
C399 H371 0.982 . S
C399 H375 0.979 . S
C399 H376 0.977 . S
C399 C396 1.453 . S
C400 H372 0.979 . S
C400 H373 0.980 . S
C400 H374 0.983 . S
C400 C396 1.684 . S
H401 C419 0.948 . S
H402 C360 0.948 . S
H403 C378 0.979 . S
H404 C378 0.980 . S
H405 C378 0.983 . S
H406 C377 0.982 . S
H407 C377 0.974 1_565 S
H408 C377 0.977 . S
H409 C379 0.948 . S
H410 C381 0.947 . S
H411 C382 0.948 . S
H412 C388 0.982 . S
H413 C388 0.979 . S
H414 C388 0.977 . S
H415 C389 0.979 . S
H416 C389 0.980 . S
H417 C389 0.983 . S
H418 C362 0.947 . S
C419 C362 1.392 . S
C419 C363 1.419 . S
C419 H401 0.948 . S
C420 C421 1.391 . S
C420 C424 1.391 . S
C420 H462 0.948 . S
C421 C420 1.391 . S
C421 C422 1.391 . S
C422 C421 1.391 . S
C422 H478 0.947 . S
C422 C479 1.392 . S
C423 C424 1.391 . S
C423 C427 1.397 . S
C423 C479 1.419 . S
C424 C420 1.391 . S
C424 C423 1.391 . S
C424 C425 1.399 . S
C425 C424 1.399 . S
C425 C428 1.396 . S
C425 C437 1.453 . S
C425 C438 1.684 . S
H426 C450 0.948 . S
C427 C423 1.397 . S
C427 C428 1.394 . S
C427 C446 1.723 . S
C428 C425 1.396 . S
C428 C427 1.394 . S
C428 C458 1.723 . S
H429 C452 0.947 . S
H430 C453 0.948 . S
H431 C459 0.982 . S
H432 C460 0.979 . S
H433 C460 0.980 . S
H434 C460 0.983 . S
H435 C459 0.979 . S
H436 C459 0.977 . S
C437 C425 1.453 . S
C437 H466 0.982 . S
C437 H467 0.979 . S
C437 H468 0.977 . S
C438 C425 1.684 . S
C438 H463 0.979 . S
C438 H464 0.980 . S
C438 H465 0.983 . S
C439 C440 1.391 . S
C439 C444 1.391 . S
C439 H469 0.948 . S
C440 C439 1.391 . S
C440 C441 1.391 . S
C441 C440 1.391 . S
C441 C442 1.392 . S
C441 H470 0.947 . S
C442 C441 1.392 . S
C442 C443 1.419 . S
C442 H471 0.948 . S
C443 C442 1.419 . S
C443 C444 1.391 . S
C443 C447 1.397 . S
C444 C439 1.391 . S
C444 C443 1.391 . S
C444 C445 1.399 . S
C445 C444 1.399 . S
C445 C446 1.396 . S
C445 C448 1.453 . S
C445 C449 1.684 . S
C446 C427 1.723 . S
C446 C445 1.396 . S
C446 C447 1.394 . S
C447 C443 1.397 . S
C447 C446 1.394 . S
C447 C457 1.723 . S
C448 C445 1.453 . S
C448 H472 0.982 . S
C448 H473 0.979 . S
C448 H474 0.977 . S
C449 C445 1.684 . S
C449 H475 0.979 . S
C449 H476 0.980 . S
C449 H477 0.983 . S
C450 H426 0.948 . S
C450 C451 1.391 . S
C450 C455 1.391 . S
C451 C450 1.391 . S
C451 C452 1.391 . S
C452 H429 0.947 . S
C452 C451 1.391 . S
C452 C453 1.392 . S
C453 H430 0.948 . S
C453 C452 1.392 . S
C453 C454 1.419 . S
C454 C453 1.419 . S
C454 C455 1.391 . S
C454 C458 1.397 . S
C455 C450 1.391 . S
C455 C454 1.391 . S
C455 C456 1.399 . S
C456 C455 1.399 . S
C456 C457 1.396 . S
C456 C459 1.453 . S
C456 C460 1.684 . S
C457 C447 1.723 . S
C457 C456 1.396 . S
C457 C458 1.394 . S
C458 C428 1.723 . S
C458 C454 1.397 . S
C458 C457 1.394 . S
C459 H431 0.982 . S
C459 H435 0.979 . S
C459 H436 0.977 . S
C459 C456 1.453 . S
C460 H432 0.979 . S
C460 H433 0.980 . S
C460 H434 0.983 . S
C460 C456 1.684 . S
H461 C479 0.948 . S
H462 C420 0.948 . S
H463 C438 0.979 . S
H464 C438 0.980 . S
H465 C438 0.983 . S
H466 C437 0.982 . S
H467 C437 0.979 . S
H468 C437 0.977 . S
H469 C439 0.948 . S
H470 C441 0.947 . S
H471 C442 0.948 . S
H472 C448 0.982 . S
H473 C448 0.979 . S
H474 C448 0.977 . S
H475 C449 0.979 . S
H476 C449 0.980 . S
H477 C449 0.983 . S
H478 C422 0.947 . S
C479 C422 1.392 . S
C479 C423 1.419 . S
C479 H461 0.948 . S
H480 C492 0.930 . S
H481 C494 0.930 . S
H482 C495 0.930 . S
H483 C499 0.959 . S
H484 C499 0.959 . S
H485 C499 0.961 . S
H486 C500 0.960 . S
H487 C500 0.961 . S
H488 C500 0.959 . S
H489 C503 0.929 . S
H490 C504 0.931 . S
H491 C506 0.930 . S
C492 H480 0.930 . S
C492 C493 1.399 . S
C492 C497 1.399 . S
C493 C492 1.399 . S
C493 C494 1.376 . S
C494 H481 0.930 . S
C494 C493 1.376 . S
C494 C495 1.388 . S
C495 H482 0.930 . S
C495 C494 1.388 . S
C495 C496 1.390 . S
C496 C495 1.390 . S
C496 C497 1.394 . S
C496 C502 1.465 . S
C497 C492 1.399 . S
C497 C496 1.394 . S
C497 C498 1.516 . S
C498 C497 1.516 . S
C498 C499 1.502 . S
C498 C500 1.561 . S
C498 C501 1.526 . S
C499 H483 0.959 . S
C499 H484 0.959 . S
C499 H485 0.961 . S
C499 C498 1.502 . S
C500 H486 0.960 . S
C500 H487 0.961 . S
C500 H488 0.959 . S
C500 C498 1.561 . S
C501 C498 1.526 . S
C501 C502 1.396 . S
C501 C506 1.390 . S
C502 C496 1.465 . S
C502 C501 1.396 . S
C502 C503 1.399 . S
C503 H489 0.929 . S
C503 C502 1.399 . S
C503 C504 1.385 . S
C504 H490 0.931 . S
C504 C503 1.385 . S
C504 C505 1.389 . S
C505 C504 1.389 . S
C505 C506 1.387 . S
C506 H491 0.930 . S
C506 C501 1.390 . S
C506 C505 1.387 . S
H507 C519 0.930 . S
H508 C521 0.930 . S
H509 C522 0.930 . S
H510 C526 0.959 . S
H511 C526 0.959 . S
H512 C526 0.961 . S
H513 C527 0.960 . S
H514 C527 0.961 . S
H515 C527 0.959 . S
H516 C530 0.929 . S
H517 C531 0.931 . S
H518 C533 0.930 . S
C519 H507 0.930 . S
C519 C520 1.399 . S
C519 C524 1.399 . S
C520 C519 1.399 . S
C520 C521 1.376 . S
C521 H508 0.930 . S
C521 C520 1.376 . S
C521 C522 1.388 . S
C522 H509 0.930 . S
C522 C521 1.388 . S
C522 C523 1.390 . S
C523 C522 1.390 . S
C523 C524 1.394 . S
C523 C529 1.465 . S
C524 C519 1.399 . S
C524 C523 1.394 . S
C524 C525 1.516 . S
C525 C524 1.516 . S
C525 C526 1.502 . S
C525 C527 1.561 . S
C525 C528 1.526 . S
C526 H510 0.959 . S
C526 H511 0.959 . S
C526 H512 0.961 . S
C526 C525 1.502 . S
C527 H513 0.960 . S
C527 H514 0.961 . S
C527 H515 0.959 . S
C527 C525 1.561 . S
C528 C525 1.526 . S
C528 C529 1.396 . S
C528 C533 1.390 . S
C529 C523 1.465 . S
C529 C528 1.396 . S
C529 C530 1.399 . S
C530 H516 0.929 . S
C530 C529 1.399 . S
C530 C531 1.385 . S
C531 H517 0.931 . S
C531 C530 1.385 . S
C531 C532 1.389 . S
C532 C531 1.389 . S
C532 C533 1.387 . S
C533 H518 0.930 . S
C533 C528 1.390 . S
C533 C532 1.387 . S
H534 C546 0.930 . S
H535 C548 0.930 . S
H536 C549 0.930 . S
H537 C553 0.959 . S
H538 C553 0.959 . S
H539 C553 0.961 . S
H540 C554 0.960 . S
H541 C554 0.961 . S
H542 C554 0.959 . S
H543 C557 0.929 . S
H544 C558 0.931 . S
H545 C560 0.930 . S
C546 H534 0.930 . S
C546 C547 1.399 . S
C546 C551 1.399 . S
C547 C546 1.399 . S
C547 C548 1.376 . S
C548 H535 0.930 . S
C548 C547 1.376 . S
C548 C549 1.388 . S
C549 H536 0.930 . S
C549 C548 1.388 . S
C549 C550 1.390 . S
C550 C549 1.390 . S
C550 C551 1.394 . S
C550 C556 1.465 . S
C551 C546 1.399 . S
C551 C550 1.394 . S
C551 C552 1.516 . S
C552 C551 1.516 . S
C552 C553 1.502 . S
C552 C554 1.561 . S
C552 C555 1.526 . S
C553 H537 0.959 . S
C553 H538 0.959 . S
C553 H539 0.961 . S
C553 C552 1.502 . S
C554 H540 0.960 . S
C554 H541 0.961 . S
C554 H542 0.959 . S
C554 C552 1.561 . S
C555 C552 1.526 . S
C555 C556 1.396 . S
C555 C560 1.390 . S
C556 C550 1.465 . S
C556 C555 1.396 . S
C556 C557 1.399 . S
C557 H543 0.929 . S
C557 C556 1.399 . S
C557 C558 1.385 . S
C558 H544 0.931 . S
C558 C557 1.385 . S
C558 C559 1.389 . S
C559 C558 1.389 . S
C559 C560 1.387 . S
C560 H545 0.930 . S
C560 C555 1.390 . S
C560 C559 1.387 . S
H561 C573 0.930 . S
H562 C575 0.930 . S
H563 C576 0.930 . S
H564 C580 0.959 . S
H565 C580 0.959 . S
H566 C580 0.961 . S
H567 C581 0.960 . S
H568 C581 0.961 . S
H569 C581 0.959 . S
H570 C584 0.929 . S
H571 C585 0.931 . S
H572 C587 0.930 . S
C573 H561 0.930 . S
C573 C574 1.399 . S
C573 C578 1.399 . S
C574 C573 1.399 . S
C574 C575 1.376 . S
C575 H562 0.930 . S
C575 C574 1.376 . S
C575 C576 1.388 . S
C576 H563 0.930 . S
C576 C575 1.388 . S
C576 C577 1.390 . S
C577 C576 1.390 . S
C577 C578 1.394 . S
C577 C583 1.465 . S
C578 C573 1.399 . S
C578 C577 1.394 . S
C578 C579 1.516 . S
C579 C578 1.516 . S
C579 C580 1.502 . S
C579 C581 1.561 . S
C579 C582 1.526 . S
C580 H564 0.959 . S
C580 H565 0.959 . S
C580 H566 0.961 . S
C580 C579 1.502 . S
C581 H567 0.960 . S
C581 H568 0.961 . S
C581 H569 0.959 . S
C581 C579 1.561 . S
C582 C579 1.526 . S
C582 C583 1.396 . S
C582 C587 1.390 . S
C583 C577 1.465 . S
C583 C582 1.396 . S
C583 C584 1.399 . S
C584 H570 0.929 . S
C584 C583 1.399 . S
C584 C585 1.385 . S
C585 H571 0.931 . S
C585 C584 1.385 . S
C585 C586 1.389 . S
C586 C585 1.389 . S
C586 C587 1.387 . S
C587 H572 0.930 . S
C587 C582 1.390 . S
C587 C586 1.387 . S
H588 C600 0.930 . S
H589 C602 0.930 . S
H590 C603 0.930 . S
H591 C607 0.959 . S
H592 C607 0.959 . S
H593 C607 0.961 . S
H594 C608 0.960 . S
H595 C608 0.961 . S
H596 C608 0.959 . S
H597 C611 0.929 . S
H598 C612 0.931 . S
H599 C614 0.930 . S
C600 H588 0.930 . S
C600 C601 1.399 . S
C600 C605 1.399 . S
C601 C600 1.399 . S
C601 C602 1.376 . S
C602 H589 0.930 . S
C602 C601 1.376 . S
C602 C603 1.388 . S
C603 H590 0.930 . S
C603 C602 1.388 . S
C603 C604 1.390 . S
C604 C603 1.390 . S
C604 C605 1.394 . S
C604 C610 1.465 . S
C605 C600 1.399 . S
C605 C604 1.394 . S
C605 C606 1.516 . S
C606 C605 1.516 . S
C606 C607 1.502 . S
C606 C608 1.561 . S
C606 C609 1.526 . S
C607 H591 0.959 . S
C607 H592 0.959 . S
C607 H593 0.961 . S
C607 C606 1.502 . S
C608 H594 0.960 . S
C608 H595 0.961 . S
C608 H596 0.959 . S
C608 C606 1.561 . S
C609 C606 1.526 . S
C609 C610 1.396 . S
C609 C614 1.390 . S
C610 C604 1.465 . S
C610 C609 1.396 . S
C610 C611 1.399 . S
C611 H597 0.929 . S
C611 C610 1.399 . S
C611 C612 1.385 . S
C612 H598 0.931 . S
C612 C611 1.385 . S
C612 C613 1.389 . S
C613 C612 1.389 . S
C613 C614 1.387 . S
C614 H599 0.930 . S
C614 C609 1.390 . S
C614 C613 1.387 . S
H615 C627 0.930 . S
H616 C629 0.930 . S
H617 C630 0.930 . S
H618 C634 0.959 . S
H619 C634 0.959 . S
H620 C634 0.961 . S
H621 C635 0.960 . S
H622 C635 0.961 . S
H623 C635 0.959 . S
H624 C638 0.929 . S
H625 C639 0.931 . S
H626 C641 0.930 . S
C627 H615 0.930 . S
C627 C628 1.399 . S
C627 C632 1.399 . S
C628 C627 1.399 . S
C628 C629 1.376 . S
C629 H616 0.930 . S
C629 C628 1.376 . S
C629 C630 1.388 . S
C630 H617 0.930 . S
C630 C629 1.388 . S
C630 C631 1.390 . S
C631 C630 1.390 . S
C631 C632 1.394 . S
C631 C637 1.465 . S
C632 C627 1.399 . S
C632 C631 1.394 . S
C632 C633 1.516 . S
C633 C632 1.516 . S
C633 C634 1.502 . S
C633 C635 1.561 . S
C633 C636 1.526 . S
C634 H618 0.959 . S
C634 H619 0.959 . S
C634 H620 0.961 . S
C634 C633 1.502 . S
C635 H621 0.960 . S
C635 H622 0.961 . S
C635 H623 0.959 . S
C635 C633 1.561 . S
C636 C633 1.526 . S
C636 C637 1.396 . S
C636 C641 1.390 . S
C637 C631 1.465 . S
C637 C636 1.396 . S
C637 C638 1.399 . S
C638 H624 0.929 . S
C638 C637 1.399 . S
C638 C639 1.385 . S
C639 H625 0.931 . S
C639 C638 1.385 . S
C639 C640 1.389 . S
C640 C639 1.389 . S
C640 C641 1.387 . S
C641 H626 0.930 . S
C641 C636 1.390 . S
C641 C640 1.387 . S
H642 C654 0.930 . S
H643 C656 0.930 . S
H644 C657 0.930 . S
H645 C661 0.959 . S
H646 C661 0.959 . S
H647 C661 0.961 . S
H648 C662 0.960 . S
H649 C662 0.961 . S
H650 C662 0.959 . S
H651 C665 0.929 . S
H652 C666 0.931 . S
H653 C668 0.930 . S
C654 H642 0.930 . S
C654 C655 1.399 . S
C654 C659 1.399 . S
C655 C654 1.399 . S
C655 C656 1.376 . S
C656 H643 0.930 . S
C656 C655 1.376 . S
C656 C657 1.388 . S
C657 H644 0.930 . S
C657 C656 1.388 . S
C657 C658 1.390 . S
C658 C657 1.390 . S
C658 C659 1.394 . S
C658 C664 1.465 . S
C659 C654 1.399 . S
C659 C658 1.394 . S
C659 C660 1.516 . S
C660 C659 1.516 . S
C660 C661 1.502 . S
C660 C662 1.561 . S
C660 C663 1.526 . S
C661 H645 0.959 . S
C661 H646 0.959 . S
C661 H647 0.961 . S
C661 C660 1.502 . S
C662 H648 0.960 . S
C662 H649 0.961 . S
C662 H650 0.959 . S
C662 C660 1.561 . S
C663 C660 1.526 . S
C663 C664 1.396 . S
C663 C668 1.390 . S
C664 C658 1.465 . S
C664 C663 1.396 . S
C664 C665 1.399 . S
C665 H651 0.929 . S
C665 C664 1.399 . S
C665 C666 1.385 . S
C666 H652 0.931 . S
C666 C665 1.385 . S
C666 C667 1.389 . S
C667 C666 1.389 . S
C667 C668 1.387 . S
C668 H653 0.930 . S
C668 C663 1.390 . S
C668 C667 1.387 . S
H669 C681 0.930 . S
H670 C683 0.930 . S
H671 C684 0.930 . S
H672 C688 0.959 . S
H673 C688 0.959 . S
H674 C688 0.961 . S
H675 C689 0.960 . S
H676 C689 0.961 . S
H677 C689 0.959 . S
H678 C692 0.929 . S
H679 C693 0.931 . S
H680 C695 0.930 . S
C681 H669 0.930 . S
C681 C682 1.399 . S
C681 C686 1.399 . S
C682 C681 1.399 . S
C682 C683 1.376 . S
C683 H670 0.930 . S
C683 C682 1.376 . S
C683 C684 1.388 . S
C684 H671 0.930 . S
C684 C683 1.388 . S
C684 C685 1.390 . S
C685 C684 1.390 . S
C685 C686 1.394 . S
C685 C691 1.465 . S
C686 C681 1.399 . S
C686 C685 1.394 . S
C686 C687 1.516 . S
C687 C686 1.516 . S
C687 C688 1.502 . S
C687 C689 1.561 . S
C687 C690 1.526 . S
C688 H672 0.959 . S
C688 H673 0.959 . S
C688 H674 0.961 . S
C688 C687 1.502 . S
C689 H675 0.960 . S
C689 H676 0.961 . S
C689 H677 0.959 . S
C689 C687 1.561 . S
C690 C687 1.526 . S
C690 C691 1.396 . S
C690 C695 1.390 . S
C691 C685 1.465 . S
C691 C690 1.396 . S
C691 C692 1.399 . S
C692 H678 0.929 . S
C692 C691 1.399 . S
C692 C693 1.385 . S
C693 H679 0.931 . S
C693 C692 1.385 . S
C693 C694 1.389 . S
C694 C693 1.389 . S
C694 C695 1.387 . S
C695 H680 0.930 . S
C695 C690 1.390 . S
C695 C694 1.387 . S
H696 C708 0.930 . S
H697 C710 0.930 . S
H698 C711 0.930 . S
H699 C715 0.959 . S
H700 C715 0.959 . S
H701 C715 0.961 . S
H702 C716 0.960 . S
H703 C716 0.961 . S
H704 C716 0.959 . S
H705 C719 0.929 . S
H706 C720 0.931 . S
H707 C722 0.930 . S
C708 H696 0.930 . S
C708 C709 1.399 . S
C708 C713 1.399 . S
C709 C708 1.399 . S
C709 C710 1.376 . S
C710 H697 0.930 . S
C710 C709 1.376 . S
C710 C711 1.388 . S
C711 H698 0.930 . S
C711 C710 1.388 . S
C711 C712 1.390 . S
C712 C711 1.390 . S
C712 C713 1.394 . S
C712 C718 1.465 . S
C713 C708 1.399 . S
C713 C712 1.394 . S
C713 C714 1.516 . S
C714 C713 1.516 . S
C714 C715 1.502 . S
C714 C716 1.561 . S
C714 C717 1.526 . S
C715 H699 0.959 . S
C715 H700 0.959 . S
C715 H701 0.961 . S
C715 C714 1.502 . S
C716 H702 0.960 . S
C716 H703 0.961 . S
C716 H704 0.959 . S
C716 C714 1.561 . S
C717 C714 1.526 . S
C717 C718 1.396 . S
C717 C722 1.390 . S
C718 C712 1.465 . S
C718 C717 1.396 . S
C718 C719 1.399 . S
C719 H705 0.929 . S
C719 C718 1.399 . S
C719 C720 1.385 . S
C720 H706 0.931 . S
C720 C719 1.385 . S
C720 C721 1.389 . S
C721 C720 1.389 . S
C721 C722 1.387 . S
C722 H707 0.930 . S
C722 C717 1.390 . S
C722 C721 1.387 . S
H723 C735 0.930 . S
H724 C737 0.930 . S
H725 C738 0.930 . S
H726 C742 0.959 . S
H727 C742 0.959 . S
H728 C742 0.961 . S
H729 C743 0.960 . S
H730 C743 0.961 . S
H731 C743 0.959 . S
H732 C746 0.929 . S
H733 C747 0.931 . S
H734 C749 0.930 . S
C735 H723 0.930 . S
C735 C736 1.399 . S
C735 C740 1.399 . S
C736 C735 1.399 . S
C736 C737 1.376 . S
C737 H724 0.930 . S
C737 C736 1.376 . S
C737 C738 1.388 . S
C738 H725 0.930 . S
C738 C737 1.388 . S
C738 C739 1.390 . S
C739 C738 1.390 . S
C739 C740 1.394 . S
C739 C745 1.465 . S
C740 C735 1.399 . S
C740 C739 1.394 . S
C740 C741 1.516 . S
C741 C740 1.516 . S
C741 C742 1.502 . S
C741 C743 1.561 . S
C741 C744 1.526 . S
C742 H726 0.959 . S
C742 H727 0.959 . S
C742 H728 0.961 . S
C742 C741 1.502 . S
C743 H729 0.960 . S
C743 H730 0.961 . S
C743 H731 0.959 . S
C743 C741 1.561 . S
C744 C741 1.526 . S
C744 C745 1.396 . S
C744 C749 1.390 . S
C745 C739 1.465 . S
C745 C744 1.396 . S
C745 C746 1.399 . S
C746 H732 0.929 . S
C746 C745 1.399 . S
C746 C747 1.385 . S
C747 H733 0.931 . S
C747 C746 1.385 . S
C747 C748 1.389 . S
C748 C747 1.389 . S
C748 C749 1.387 . S
C749 H734 0.930 . S
C749 C744 1.390 . S
C749 C748 1.387 . S
H750 C762 0.930 . S
H751 C764 0.930 . S
H752 C765 0.930 . S
H753 C769 0.959 . S
H754 C769 0.959 . S
H755 C769 0.961 . S
H756 C770 0.960 . S
H757 C770 0.961 . S
H758 C770 0.959 . S
H759 C773 0.929 . S
H760 C774 0.931 . S
H761 C776 0.930 . S
C762 H750 0.930 . S
C762 C763 1.399 . S
C762 C767 1.399 . S
C763 C762 1.399 . S
C763 C764 1.376 . S
C764 H751 0.930 . S
C764 C763 1.376 . S
C764 C765 1.388 . S
C765 H752 0.930 . S
C765 C764 1.388 . S
C765 C766 1.390 . S
C766 C765 1.390 . S
C766 C767 1.394 . S
C766 C772 1.465 . S
C767 C762 1.399 . S
C767 C766 1.394 . S
C767 C768 1.516 . S
C768 C767 1.516 . S
C768 C769 1.502 . S
C768 C770 1.561 . S
C768 C771 1.526 . S
C769 H753 0.959 . S
C769 H754 0.959 . S
C769 H755 0.961 . S
C769 C768 1.502 . S
C770 H756 0.960 . S
C770 H757 0.961 . S
C770 H758 0.959 . S
C770 C768 1.561 . S
C771 C768 1.526 . S
C771 C772 1.396 . S
C771 C776 1.390 . S
C772 C766 1.465 . S
C772 C771 1.396 . S
C772 C773 1.399 . S
C773 H759 0.929 . S
C773 C772 1.399 . S
C773 C774 1.385 . S
C774 H760 0.931 . S
C774 C773 1.385 . S
C774 C775 1.389 . S
C775 C774 1.389 . S
C775 C776 1.387 . S
C776 H761 0.930 . S
C776 C771 1.390 . S
C776 C775 1.387 . S
H777 C789 0.930 . S
H778 C791 0.930 . S
H779 C792 0.930 . S
H780 C796 0.959 . S
H781 C796 0.959 . S
H782 C796 0.961 . S
H783 C797 0.960 . S
H784 C797 0.961 . S
H785 C797 0.959 . S
H786 C800 0.929 . S
H787 C801 0.931 . S
H788 C803 0.930 . S
C789 H777 0.930 . S
C789 C790 1.399 . S
C789 C794 1.399 . S
C790 C789 1.399 . S
C790 C791 1.376 . S
C791 H778 0.930 . S
C791 C790 1.376 . S
C791 C792 1.388 . S
C792 H779 0.930 . S
C792 C791 1.388 . S
C792 C793 1.390 . S
C793 C792 1.390 . S
C793 C794 1.394 . S
C793 C799 1.465 . S
C794 C789 1.399 . S
C794 C793 1.394 . S
C794 C795 1.516 . S
C795 C794 1.516 . S
C795 C796 1.502 . S
C795 C797 1.561 . S
C795 C798 1.526 . S
C796 H780 0.959 . S
C796 H781 0.959 . S
C796 H782 0.961 . S
C796 C795 1.502 . S
C797 H783 0.960 . S
C797 H784 0.961 . S
C797 H785 0.959 . S
C797 C795 1.561 . S
C798 C795 1.526 . S
C798 C799 1.396 . S
C798 C803 1.390 . S
C799 C793 1.465 . S
C799 C798 1.396 . S
C799 C800 1.399 . S
C800 H786 0.929 . S
C800 C799 1.399 . S
C800 C801 1.385 . S
C801 H787 0.931 . S
C801 C800 1.385 . S
C801 C802 1.389 . S
C802 C801 1.389 . S
C802 C803 1.387 . S
C803 H788 0.930 . S
C803 C798 1.390 . S
C803 C802 1.387 . S
H804 C816 0.930 . S
H805 C818 0.930 . S
H806 C819 0.930 . S
H807 C823 0.959 . S
H808 C823 0.959 . S
H809 C823 0.961 . S
H810 C824 0.960 . S
H811 C824 0.961 . S
H812 C824 0.959 . S
H813 C827 0.929 . S
H814 C828 0.931 . S
H815 C830 0.930 . S
C816 H804 0.930 . S
C816 C817 1.399 . S
C816 C821 1.399 . S
C817 C816 1.399 . S
C817 C818 1.376 . S
C818 H805 0.930 . S
C818 C817 1.376 . S
C818 C819 1.388 . S
C819 H806 0.930 . S
C819 C818 1.388 . S
C819 C820 1.390 . S
C820 C819 1.390 . S
C820 C821 1.394 . S
C820 C826 1.465 . S
C821 C816 1.399 . S
C821 C820 1.394 . S
C821 C822 1.516 . S
C822 C821 1.516 . S
C822 C823 1.502 . S
C822 C824 1.561 1_455 S
C822 C825 1.526 . S
C823 H807 0.959 . S
C823 H808 0.959 . S
C823 H809 0.961 . S
C823 C822 1.502 . S
C824 H810 0.960 . S
C824 H811 0.961 . S
C824 H812 0.959 . S
C824 C822 1.561 1_655 S
C825 C822 1.526 . S
C825 C826 1.396 . S
C825 C830 1.390 . S
C826 C820 1.465 . S
C826 C825 1.396 . S
C826 C827 1.399 . S
C827 H813 0.929 . S
C827 C826 1.399 . S
C827 C828 1.385 . S
C828 H814 0.931 . S
C828 C827 1.385 . S
C828 C829 1.389 . S
C829 C828 1.389 . S
C829 C830 1.387 . S
C830 H815 0.930 . S
C830 C825 1.390 . S
C830 C829 1.387 . S
H831 C843 0.930 . S
H832 C845 0.930 . S
H833 C846 0.930 . S
H834 C850 0.959 1_545 S
H835 C850 0.959 . S
H836 C850 0.961 . S
H837 C851 0.960 . S
H838 C851 0.961 . S
H839 C851 0.959 . S
H840 C854 0.929 . S
H841 C855 0.931 . S
H842 C857 0.930 1_565 S
C843 H831 0.930 . S
C843 C844 1.399 1_565 S
C843 C848 1.399 1_565 S
C844 C843 1.399 1_545 S
C844 C845 1.376 . S
C845 H832 0.930 . S
C845 C844 1.376 . S
C845 C846 1.388 . S
C846 H833 0.930 . S
C846 C845 1.388 . S
C846 C847 1.390 . S
C847 C846 1.390 . S
C847 C848 1.394 . S
C847 C853 1.465 . S
C848 C843 1.399 1_545 S
C848 C847 1.394 . S
C848 C849 1.516 1_545 S
C849 C848 1.516 1_565 S
C849 C850 1.502 . S
C849 C851 1.561 . S
C849 C852 1.526 1_565 S
C850 H834 0.959 1_565 S
C850 H835 0.959 . S
C850 H836 0.961 . S
C850 C849 1.502 . S
C851 H837 0.960 . S
C851 H838 0.961 . S
C851 H839 0.959 . S
C851 C849 1.561 . S
C852 C849 1.526 1_545 S
C852 C853 1.396 . S
C852 C857 1.390 . S
C853 C847 1.465 . S
C853 C852 1.396 . S
C853 C854 1.399 . S
C854 H840 0.929 . S
C854 C853 1.399 . S
C854 C855 1.385 . S
C855 H841 0.931 . S
C855 C854 1.385 . S
C855 C856 1.389 . S
C856 C855 1.389 . S
C856 C857 1.387 . S
C857 H842 0.930 1_545 S
C857 C852 1.390 . S
C857 C856 1.387 . S
H858 C870 0.930 . S
H859 C872 0.930 . S
H860 C873 0.930 . S
H861 C877 0.959 . S
H862 C877 0.959 . S
H863 C877 0.961 . S
H864 C878 0.960 . S
H865 C878 0.961 . S
H866 C878 0.959 . S
H867 C881 0.929 . S
H868 C882 0.931 . S
H869 C884 0.930 . S
C870 H858 0.930 . S
C870 C871 1.399 . S
C870 C875 1.399 . S
C871 C870 1.399 . S
C871 C872 1.376 . S
C872 H859 0.930 . S
C872 C871 1.376 . S
C872 C873 1.388 . S
C873 H860 0.930 . S
C873 C872 1.388 . S
C873 C874 1.390 . S
C874 C873 1.390 . S
C874 C875 1.394 . S
C874 C880 1.465 . S
C875 C870 1.399 . S
C875 C874 1.394 . S
C875 C876 1.516 . S
C876 C875 1.516 . S
C876 C877 1.502 . S
C876 C878 1.561 . S
C876 C879 1.526 . S
C877 H861 0.959 . S
C877 H862 0.959 . S
C877 H863 0.961 . S
C877 C876 1.502 . S
C878 H864 0.960 . S
C878 H865 0.961 . S
C878 H866 0.959 . S
C878 C876 1.561 . S
C879 C876 1.526 . S
C879 C880 1.396 . S
C879 C884 1.390 . S
C880 C874 1.465 . S
C880 C879 1.396 . S
C880 C881 1.399 . S
C881 H867 0.929 . S
C881 C880 1.399 . S
C881 C882 1.385 . S
C882 H868 0.931 . S
C882 C881 1.385 . S
C882 C883 1.389 . S
C883 C882 1.389 . S
C883 C884 1.387 . S
C884 H869 0.930 . S
C884 C879 1.390 . S
C884 C883 1.387 . S
H885 C897 0.930 . S
H886 C899 0.930 . S
H887 C900 0.930 . S
H888 C904 0.959 . S
H889 C904 0.959 . S
H890 C904 0.961 . S
H891 C905 0.960 . S
H892 C905 0.961 . S
H893 C905 0.959 . S
H894 C908 0.929 . S
H895 C909 0.931 . S
H896 C911 0.930 . S
C897 H885 0.930 . S
C897 C898 1.399 . S
C897 C902 1.399 . S
C898 C897 1.399 . S
C898 C899 1.376 1_545 S
C899 H886 0.930 . S
C899 C898 1.376 1_565 S
C899 C900 1.388 . S
C900 H887 0.930 . S
C900 C899 1.388 . S
C900 C901 1.390 . S
C901 C900 1.390 . S
C901 C902 1.394 1_565 S
C901 C907 1.465 . S
C902 C897 1.399 . S
C902 C901 1.394 1_545 S
C902 C903 1.516 . S
C903 C902 1.516 . S
C903 C904 1.502 . S
C903 C905 1.561 . S
C903 C906 1.526 . S
C904 H888 0.959 . S
C904 H889 0.959 . S
C904 H890 0.961 . S
C904 C903 1.502 . S
C905 H891 0.960 . S
C905 H892 0.961 . S
C905 H893 0.959 . S
C905 C903 1.561 . S
C906 C903 1.526 . S
C906 C907 1.396 1_545 S
C906 C911 1.390 . S
C907 C901 1.465 . S
C907 C906 1.396 1_565 S
C907 C908 1.399 . S
C908 H894 0.929 . S
C908 C907 1.399 . S
C908 C909 1.385 . S
C909 H895 0.931 . S
C909 C908 1.385 . S
C909 C910 1.389 . S
C910 C909 1.389 . S
C910 C911 1.387 1_565 S
C911 H896 0.930 . S
C911 C906 1.390 . S
C911 C910 1.387 1_545 S
H912 C924 0.930 . S
H913 C926 0.930 . S
H914 C927 0.930 . S
H915 C931 0.959 . S
H916 C931 0.959 . S
H917 C931 0.961 . S
H918 C932 0.960 . S
H919 C932 0.961 . S
H920 C932 0.959 . S
H921 C935 0.929 . S
H922 C936 0.909 1_554 S
H923 C938 0.930 . S
C924 H912 0.930 . S
C924 C925 1.399 . S
C924 C929 1.399 . S
C925 C924 1.399 . S
C925 C926 1.376 . S
C926 H913 0.930 . S
C926 C925 1.376 . S
C926 C927 1.388 . S
C927 H914 0.930 . S
C927 C926 1.388 . S
C927 C928 1.390 . S
C928 C927 1.390 . S
C928 C929 1.394 . S
C928 C934 1.465 . S
C929 C924 1.399 . S
C929 C928 1.394 . S
C929 C930 1.516 . S
C930 C929 1.516 . S
C930 C931 1.502 . S
C930 C932 1.561 . S
C930 C933 1.526 . S
C931 H915 0.959 . S
C931 H916 0.959 . S
C931 H917 0.961 . S
C931 C930 1.502 . S
C932 H918 0.960 . S
C932 H919 0.961 . S
C932 H920 0.959 . S
C932 C930 1.561 . S
C933 C930 1.526 . S
C933 C934 1.396 . S
C933 C938 1.390 . S
C934 C928 1.465 . S
C934 C933 1.396 . S
C934 C935 1.399 . S
C935 H921 0.929 . S
C935 C934 1.399 . S
C935 C936 1.385 . S
C936 H922 0.909 1_556 S
C936 C935 1.385 . S
C936 C937 1.389 . S
C937 C936 1.389 . S
C937 C938 1.387 . S
C938 H923 0.930 . S
C938 C933 1.390 . S
C938 C937 1.387 . S
H939 C951 0.930 . S
H940 C953 0.930 . S
H941 C954 0.930 . S
H942 C958 0.959 . S
H943 C958 0.959 . S
H944 C958 0.961 . S
H945 C959 0.960 . S
H946 C959 0.961 . S
H947 C959 0.959 1_455 S
H948 C962 0.929 . S
H949 C963 0.931 . S
H950 C965 0.930 . S
C951 H939 0.930 . S
C951 C952 1.399 1_655 S
C951 C956 1.399 . S
C952 C951 1.399 1_455 S
C952 C953 1.376 . S
C953 H940 0.930 . S
C953 C952 1.376 . S
C953 C954 1.388 . S
C954 H941 0.930 . S
C954 C953 1.388 . S
C954 C955 1.390 . S
C955 C954 1.390 . S
C955 C956 1.394 1_455 S
C955 C961 1.465 . S
C956 C951 1.399 . S
C956 C955 1.394 1_655 S
C956 C957 1.516 . S
C957 C956 1.516 . S
C957 C958 1.502 . S
C957 C959 1.561 . S
C957 C960 1.526 . S
C958 H942 0.959 . S
C958 H943 0.959 . S
C958 H944 0.961 . S
C958 C957 1.502 . S
C959 H945 0.960 . S
C959 H946 0.961 . S
C959 H947 0.959 1_655 S
C959 C957 1.561 . S
C960 C957 1.526 . S
C960 C961 1.396 1_655 S
C960 C965 1.390 . S
C961 C955 1.465 . S
C961 C960 1.396 1_455 S
C961 C962 1.399 . S
C962 H948 0.929 . S
C962 C961 1.399 . S
C962 C963 1.385 . S
C963 H949 0.931 . S
C963 C962 1.385 . S
C963 C964 1.389 . S
C964 C963 1.389 . S
C964 C965 1.387 1_455 S
C965 H950 0.930 . S
C965 C960 1.390 . S
C965 C964 1.387 1_655 S
C493 C7 0.698 . S
C505 C451 0.649 . S
C520 C51 1.909 . S
C532 C301 1.741 . S
C547 C87 1.211 . S
C559 C361 1.182 . S
C574 C16 0.307 . S
C586 C421 0.320 . S
C613 C331 2.044 . S
C601 C42 2.045 . S
C640 C391 1.352 . S
C628 C96 1.320 . S
C655 C47 1.162 . S
C667 C181 1.132 . S
C682 C91 3.111 . S
C694 C271 3.089 . S
C709 C2 2.106 . S
C721 C151 2.113 . S
C748 C211 1.338 . S
C736 C56 1.336 . S
C775 C241 2.836 . S
C763 C82 2.985 . S
C790 C11 1.891 . S
C802 C121 1.754 . S
C829 C260 1.725 1_554 S
C817 C19 1.669 . S
C844 C50 1.373 . S
C856 C140 1.346 . S
C871 C99 1.481 . S
C883 C200 1.502 . S
C910 C380 1.468 . S
C898 C59 1.441 . S
C937 C440 1.121 1_556 S
C925 C90 1.091 . S
C952 C10 1.319 . S
C964 C320 1.308 . S
