# Generated by pormake.
# Topology nom, (4,4)-cn, num edge types: 1
# Building blocks:
#     Node 0, Type 0, BuildingBlock: GIZVER_clean_linker_0, # of connection points: 4
#     Node 1, Type 0, BuildingBlock: GIZVER_clean_linker_0, # of connection points: 4
#     Node 2, Type 0, BuildingBlock: GIZVER_clean_linker_0, # of connection points: 4
#     Node 3, Type 0, BuildingBlock: GIZVER_clean_linker_0, # of connection points: 4
#     Node 4, Type 0, BuildingBlock: GIZVER_clean_linker_0, # of connection points: 4
#     Node 5, Type 0, BuildingBlock: GIZVER_clean_linker_0, # of connection points: 4
#     Node 6, Type 1, BuildingBlock: AZAVOO_clean_sbu_0, # of connection points: 4
#     Node 7, Type 1, BuildingBlock: AZAVOO_clean_sbu_0, # of connection points: 4
#     Node 8, Type 1, BuildingBlock: AZAVOO_clean_sbu_0, # of connection points: 4
#     Node 9, Type 1, BuildingBlock: AZAVOO_clean_sbu_0, # of connection points: 4
#     Node 10, Type 1, BuildingBlock: AZAVOO_clean_sbu_0, # of connection points: 4
#     Node 11, Type 1, BuildingBlock: AZAVOO_clean_sbu_0, # of connection points: 4
#     Edge 12, Type (0, 1), BuildingBlock: KIFKEQ_clean_linker_1, # of connection points: 2
#     Edge 13, Type (0, 1), BuildingBlock: KIFKEQ_clean_linker_1, # of connection points: 2
#     Edge 14, Type (0, 1), BuildingBlock: KIFKEQ_clean_linker_1, # of connection points: 2
#     Edge 15, Type (0, 1), BuildingBlock: KIFKEQ_clean_linker_1, # of connection points: 2
#     Edge 16, Type (0, 1), BuildingBlock: KIFKEQ_clean_linker_1, # of connection points: 2
#     Edge 17, Type (0, 1), BuildingBlock: KIFKEQ_clean_linker_1, # of connection points: 2
#     Edge 18, Type (0, 1), BuildingBlock: KIFKEQ_clean_linker_1, # of connection points: 2
#     Edge 19, Type (0, 1), BuildingBlock: KIFKEQ_clean_linker_1, # of connection points: 2
#     Edge 20, Type (0, 1), BuildingBlock: KIFKEQ_clean_linker_1, # of connection points: 2
#     Edge 21, Type (0, 1), BuildingBlock: KIFKEQ_clean_linker_1, # of connection points: 2
#     Edge 22, Type (0, 1), BuildingBlock: KIFKEQ_clean_linker_1, # of connection points: 2
#     Edge 23, Type (0, 1), BuildingBlock: KIFKEQ_clean_linker_1, # of connection points: 2
#     Edge 24, Type (0, 1), BuildingBlock: KIFKEQ_clean_linker_1, # of connection points: 2
#     Edge 25, Type (0, 1), BuildingBlock: KIFKEQ_clean_linker_1, # of connection points: 2
#     Edge 26, Type (0, 1), BuildingBlock: KIFKEQ_clean_linker_1, # of connection points: 2
#     Edge 27, Type (0, 1), BuildingBlock: KIFKEQ_clean_linker_1, # of connection points: 2
#     Edge 28, Type (0, 1), BuildingBlock: KIFKEQ_clean_linker_1, # of connection points: 2
#     Edge 29, Type (0, 1), BuildingBlock: KIFKEQ_clean_linker_1, # of connection points: 2
#     Edge 30, Type (0, 1), BuildingBlock: KIFKEQ_clean_linker_1, # of connection points: 2
#     Edge 31, Type (0, 1), BuildingBlock: KIFKEQ_clean_linker_1, # of connection points: 2
#     Edge 32, Type (0, 1), BuildingBlock: KIFKEQ_clean_linker_1, # of connection points: 2
#     Edge 33, Type (0, 1), BuildingBlock: KIFKEQ_clean_linker_1, # of connection points: 2
#     Edge 34, Type (0, 1), BuildingBlock: KIFKEQ_clean_linker_1, # of connection points: 2
#     Edge 35, Type (0, 1), BuildingBlock: KIFKEQ_clean_linker_1, # of connection points: 2
# Relax obj value: 0.032
# Max RMSD: 0.160
# Mean RMSD: 0.105
data_MOF--net-nom--node1-AZAVOO_clean_sbu_0--node2-GIZVER_clean_linker_0--edge1-KIFKEQ_clean_linker_1
_symmetry_space_group_name_H-M    P1
_symmetry_Int_Tables_number       1
_symmetry_cell_setting            triclinic
loop_
_symmetry_equiv_pos_as_xyz
'x, y, z'
_cell_length_a     46.999677
_cell_length_b     47.341647
_cell_length_c     46.296748
_cell_angle_alpha  92.007853
_cell_angle_beta   91.661876
_cell_angle_gamma 119.85226
loop_
_atom_site_label
_atom_site_type_symbol
_atom_site_fract_x
_atom_site_fract_y
_atom_site_fract_z
_atom_type_partial_charge
H0 H 0.96368 0.54519 0.35972 0.0
H1 H 0.9964 0.55576 0.27281 0.0
H2 H 0.90279 0.47537 0.29111 0.0
H3 H 1.00827 0.59609 0.34726 0.0
H4 H 0.01486 0.60396 0.31006 0.0
H5 H 0.04021 0.57706 0.37528 0.0
H6 H 0.1321 0.59781 0.34087 0.0
H7 H 0.05878 0.60123 0.28622 0.0
C8 C 0.95999 0.53577 0.33743 0.0
C9 C 0.9304 0.50746 0.32819 0.0
C10 C 0.98402 0.55326 0.31761 0.0
C11 C 0.97864 0.54177 0.28841 0.0
C12 C 0.94968 0.5131 0.27907 0.0
C13 C 0.92603 0.49608 0.29906 0.0
C14 C 0.0127 0.58656 0.32657 0.0
C15 C 0.04476 0.58651 0.32974 0.0
C16 C 0.05561 0.58195 0.35701 0.0
C17 C 0.0875 0.58687 0.36126 0.0
C18 C 0.10747 0.59409 0.33768 0.0
C19 C 0.09782 0.60027 0.3109 0.0
C20 C 0.06603 0.59552 0.30665 0.0
H21 H 0.42983 0.96763 0.51025 0.0
H22 H 0.43674 0.98626 0.4196 0.0
H23 H 0.42837 0.8972 0.44823 0.0
H24 H 0.41854 0.00876 0.49173 0.0
H25 H 0.41864 0.01469 0.45395 0.0
H26 H 0.47261 0.03284 0.52129 0.0
H27 H 0.5464 0.12471 0.49237 0.0
H28 H 0.46583 0.05822 0.43394 0.0
C29 C 0.43169 0.96052 0.48818 0.0
C30 C 0.42948 0.93019 0.482 0.0
C31 C 0.43486 0.98114 0.46579 0.0
C32 C 0.43581 0.97113 0.437 0.0
C33 C 0.43303 0.94061 0.43052 0.0
C34 C 0.43086 0.9209 0.45323 0.0
C35 C 0.43264 0.01148 0.47211 0.0
C36 C 0.46608 0.04167 0.47677 0.0
C37 C 0.48294 0.04942 0.50405 0.0
C38 C 0.51234 0.07913 0.5095 0.0
C39 C 0.52485 0.10098 0.48743 0.0
C40 C 0.50824 0.09399 0.46015 0.0
C41 C 0.47911 0.06387 0.4548 0.0
H42 H 0.42642 0.46121 0.5792 0.0
H43 H 0.47794 0.46958 0.66029 0.0
H44 H 0.46001 0.54641 0.63604 0.0
H45 H 0.42899 0.41524 0.59448 0.0
H46 H 0.43365 0.41393 0.63264 0.0
H47 H 0.47685 0.4314 0.56383 0.0
H48 H 0.55311 0.41558 0.59893 0.0
H49 H 0.48301 0.41807 0.65491 0.0
C50 C 0.44024 0.47548 0.59864 0.0
C51 C 0.44322 0.50614 0.60474 0.0
C52 C 0.45336 0.46242 0.61836 0.0
C53 C 0.46927 0.48026 0.64445 0.0
C54 C 0.47207 0.51079 0.65098 0.0
C55 C 0.45978 0.52383 0.63056 0.0
C56 C 0.44626 0.42774 0.61363 0.0
C57 C 0.4772 0.42607 0.60992 0.0
C58 C 0.48946 0.42811 0.58226 0.0
C59 C 0.51652 0.42373 0.5781 0.0
C60 C 0.53226 0.41905 0.60211 0.0
C61 C 0.52041 0.41686 0.62984 0.0
C62 C 0.49279 0.42041 0.63366 0.0
H63 H 0.97872 0.44051 0.76699 0.0
H64 H 0.01236 0.48242 0.85373 0.0
H65 H 0.91391 0.45256 0.82374 0.0
H66 H 0.0302 0.44846 0.78616 0.0
H67 H 0.03785 0.45408 0.82467 0.0
H68 H 0.03468 0.50339 0.76335 0.0
H69 H 0.13031 0.58448 0.78737 0.0
H70 H 0.09064 0.49847 0.836 0.0
C71 C 0.97414 0.44884 0.78749 0.0
C72 C 0.943 0.44514 0.79214 0.0
C73 C 0.99928 0.46238 0.8096 0.0
C74 C 0.99343 0.47285 0.83634 0.0
C75 C 0.96292 0.4701 0.84097 0.0
C76 C 0.93801 0.45648 0.81895 0.0
C77 C 0.03172 0.46391 0.80546 0.0
C78 C 0.05861 0.49847 0.80171 0.0
C79 C 0.0562 0.51519 0.77814 0.0
C80 C 0.08228 0.54598 0.77243 0.0
C81 C 0.11017 0.56066 0.79162 0.0
C82 C 0.11425 0.54351 0.81403 0.0
C83 C 0.08787 0.51253 0.81933 0.0
H84 H 0.61545 0.07467 0.02356 0.0
H85 H 0.58107 0.03507 0.93629 0.0
H86 H 0.59849 0.13057 0.96075 0.0
H87 H 0.61205 0.02422 0.00907 0.0
H88 H 0.61415 0.01739 0.97112 0.0
H89 H 0.55362 0.00734 0.02713 0.0
H90 H 0.47882 0.91504 -0.01131 0.0
H91 H 0.57053 0.96877 0.94795 0.0
C92 C 0.60743 0.07701 0.00206 0.0
C93 C 0.60793 0.10604 -0.00481 0.0
C94 C 0.59762 0.05127 0.98092 0.0
C95 C 0.58769 0.05436 0.9529 0.0
C96 C 0.58703 0.08255 0.94609 0.0
C97 C 0.59698 0.10809 0.96715 0.0
C98 C 0.59941 0.02122 -0.01245 0.0
C99 C 0.56542 0.99181 -0.01292 0.0
C100 C 0.54482 0.98877 0.00952 0.0
C101 C 0.51341 0.96137 0.00986 0.0
C102 C 0.50245 0.93701 -0.01253 0.0
C103 C 0.52299 0.93914 0.96525 0.0
C104 C 0.55443 0.96688 0.96499 0.0
H105 H 0.61083 0.56913 0.1108 0.0
H106 H 0.55123 0.55695 0.18358 0.0
H107 H 0.57448 0.48291 0.15877 0.0
H108 H 0.60307 0.61303 0.12648 0.0
H109 H 0.59545 0.6138 0.16393 0.0
H110 H 0.55328 0.58583 0.08985 0.0
H111 H 0.4771 0.60636 0.11155 0.0
H112 H 0.54698 0.61372 0.17788 0.0
C113 C 0.59554 0.55414 0.12743 0.0
C114 C 0.5941 0.52437 0.13244 0.0
C115 C 0.5795 0.56582 0.14549 0.0
C116 C 0.56183 0.54726 0.16845 0.0
C117 C 0.55941 0.51702 0.17281 0.0
C118 C 0.57498 0.50553 0.15441 0.0
C119 C 0.58484 0.59979 0.14286 0.0
C120 C 0.55323 0.59931 0.13484 0.0
C121 C 0.54076 0.59212 0.10596 0.0
C122 C 0.51283 0.59398 0.09769 0.0
C123 C 0.49735 0.60298 0.11855 0.0
C124 C 0.50938 0.6104 0.14759 0.0
C125 C 0.53719 0.60797 0.15564 0.0
Mg126 Mg 0.62462 0.37128 0.33748 0.0
O127 O 0.60946 0.38915 0.37792 0.0
O128 O 0.62681 0.44229 0.3745 0.0
Mg129 Mg 0.65212 0.45838 0.33208 0.0
C130 C 0.61221 0.416 0.38785 0.0
C131 C 0.58417 0.30649 0.36711 0.0
O132 O 0.56369 0.31779 0.36601 0.0
O133 O 0.67829 0.39718 0.35531 0.0
O134 O 0.69308 0.44915 0.34876 0.0
O135 O 0.57729 0.35963 0.31414 0.0
O136 O 0.62283 0.40767 0.31521 0.0
C137 C 0.69994 0.4275 0.35655 0.0
C138 C 0.59199 0.39001 0.30815 0.0
O139 O 0.61269 0.32353 0.35774 0.0
Mg140 Mg 0.27795 0.6509 0.59318 0.0
O141 O 0.24104 0.63057 0.55358 0.0
O142 O 0.20583 0.57786 0.55977 0.0
Mg143 Mg 0.22045 0.56431 0.60207 0.0
C144 C 0.21584 0.60323 0.54525 0.0
C145 C 0.32122 0.72402 0.58631 0.0
O146 O 0.31186 0.72228 0.61298 0.0
O147 O 0.30532 0.62519 0.57693 0.0
O148 O 0.26892 0.573 0.58362 0.0
O149 O 0.24352 0.66283 0.61515 0.0
O150 O 0.24247 0.61575 0.61773 0.0
C151 C 0.29677 0.59496 0.5756 0.0
C152 C 0.2291 0.63326 0.62345 0.0
O153 O 0.31154 0.69765 0.57103 0.0
Mg154 Mg 0.64293 0.25684 0.74715 0.0
O155 O 0.62562 0.22102 0.70695 0.0
O156 O 0.64552 0.18733 0.7134 0.0
Mg157 Mg 0.67321 0.19968 0.75754 0.0
C158 C 0.62912 0.19699 0.69835 0.0
C159 C 0.61209 0.29995 0.73936 0.0
O160 O 0.60416 0.28959 0.76547 0.0
O161 O 0.69568 0.28418 0.73237 0.0
O162 O 0.71294 0.24932 0.743 0.0
O163 O 0.59766 0.22312 0.76944 0.0
O164 O 0.64375 0.22127 0.77147 0.0
C165 C 0.71839 0.27682 0.7343 0.0
C166 C 0.61358 0.20887 0.77794 0.0
O167 O 0.62904 0.29084 0.72494 0.0
Mg168 Mg 0.4195 0.64761 0.85046 0.0
O169 O 0.43173 0.62744 0.89051 0.0
O170 O 0.40622 0.57315 0.88359 0.0
Mg171 Mg 0.37852 0.55862 0.83948 0.0
C172 C 0.42468 0.59936 0.89895 0.0
C173 C 0.43443 0.7186 0.86195 0.0
O174 O 0.41758 0.71045 0.83695 0.0
O175 O 0.36733 0.6299 0.86469 0.0
O176 O 0.3436 0.57599 0.85553 0.0
O177 O 0.46276 0.65055 0.82882 0.0
O178 O 0.41291 0.60745 0.82515 0.0
C179 C 0.34222 0.60125 0.86401 0.0
C180 C 0.44334 0.62072 0.81912 0.0
O181 O 0.43916 0.6975 0.87412 0.0
Mg182 Mg 0.77838 0.41166 0.03499 0.0
O183 O 0.81515 0.42749 0.07477 0.0
O184 O 0.84948 0.40885 0.06504 0.0
Mg185 Mg 0.83656 0.383 0.02019 0.0
C186 C 0.83977 0.42402 0.08177 0.0
C187 C 0.73555 0.44221 0.04427 0.0
O188 O 0.74643 0.45009 0.01827 0.0
O189 O 0.75148 0.35846 0.04838 0.0
O190 O 0.78756 0.34314 0.03575 0.0
O191 O 0.81198 0.45763 0.01348 0.0
O192 O 0.8139 0.412 0.00928 0.0
C193 C 0.75987 0.33665 0.04541 0.0
C194 C 0.82625 0.44216 0.00378 0.0
O195 O 0.74413 0.42492 0.05858 0.0
Mg196 Mg 0.36849 0.77243 0.18463 0.0
O197 O 0.38849 0.80867 0.22448 0.0
O198 O 0.44136 0.84458 0.2187 0.0
Mg199 Mg 0.45499 0.83227 0.17498 0.0
C200 C 0.41576 0.83364 0.23337 0.0
C201 C 0.30031 0.71138 0.19782 0.0
O202 O 0.30547 0.69821 0.17456 0.0
O203 O 0.3961 0.74664 0.20036 0.0
O204 O 0.44746 0.78377 0.19093 0.0
O205 O 0.35466 0.80521 0.16212 0.0
O206 O 0.40311 0.80816 0.16033 0.0
C207 C 0.42668 0.75582 0.1995 0.0
C208 C 0.38456 0.82012 0.1541 0.0
O209 O 0.32221 0.73967 0.20758 0.0
H210 H 0.15496 0.65572 0.32276 0.0
H211 H 0.09921 0.58425 0.25316 0.0
H212 H 0.20152 0.68189 0.29293 0.0
H213 H 0.14611 0.61165 0.22211 0.0
H214 H 0.25369 0.64631 0.19398 0.0
H215 H 0.20146 0.61993 0.2178 0.0
H216 H 0.22145 0.71414 0.25323 0.0
H217 H 0.27387 0.73993 0.23086 0.0
C218 C 0.15259 0.64592 0.30075 0.0
C219 C 0.12368 0.61776 0.29033 0.0
C220 C 0.17923 0.66115 0.28348 0.0
C221 C 0.17765 0.64902 0.255 0.0
C222 C 0.14822 0.62141 0.24406 0.0
C223 C 0.12131 0.60593 0.26162 0.0
C224 C 0.2468 0.66124 0.20692 0.0
C225 C 0.26816 0.69506 0.2111 0.0
C226 C 0.21675 0.64621 0.2203 0.0
C227 C 0.20738 0.66484 0.23775 0.0
C228 C 0.2282 0.69887 0.24063 0.0
C229 C 0.25832 0.71371 0.22778 0.0
H230 H 0.57131 0.13769 0.44699 0.0
H231 H 0.47025 0.11039 0.42658 0.0
H232 H 0.5896 0.18777 0.42208 0.0
H233 H 0.48853 0.15939 0.39999 0.0
H234 H 0.52934 0.26899 0.39617 0.0
H235 H 0.51101 0.21523 0.41382 0.0
H236 H 0.59549 0.21535 0.37911 0.0
H237 H 0.61449 0.26994 0.36238 0.0
C238 C 0.55298 0.14203 0.43662 0.0
C239 C 0.51929 0.12024 0.43927 0.0
C240 C 0.5635 0.17067 0.42206 0.0
C241 C 0.54056 0.17806 0.40945 0.0
C242 C 0.5069 0.15496 0.41011 0.0
C243 C 0.49639 0.12648 0.42494 0.0
C244 C 0.54402 0.25757 0.39228 0.0
C245 C 0.57344 0.27381 0.37797 0.0
C246 C 0.53332 0.2265 0.40215 0.0
C247 C 0.55156 0.21064 0.3977 0.0
C248 C 0.58095 0.22687 0.3832 0.0
C249 C 0.59184 0.25817 0.37356 0.0
H250 H 0.37772 0.47307 0.59132 0.0
H251 H 0.46529 0.56528 0.58128 0.0
H252 H 0.34406 0.49583 0.57571 0.0
H253 H 0.43178 0.58803 0.56384 0.0
H254 H 0.36306 0.6286 0.58703 0.0
H255 H 0.40019 0.60687 0.58512 0.0
H256 H 0.32215 0.51682 0.54386 0.0
H257 H 0.28461 0.53807 0.54777 0.0
C258 C 0.38977 0.49788 0.58449 0.0
C259 C 0.42405 0.51744 0.58758 0.0
C260 C 0.37045 0.51109 0.57544 0.0
C261 C 0.38499 0.54413 0.56882 0.0
C262 C 0.41955 0.56281 0.56949 0.0
C263 C 0.43884 0.54971 0.5791 0.0
C264 C 0.35411 0.60445 0.57697 0.0
C265 C 0.32087 0.58486 0.56794 0.0
C266 C 0.37547 0.5919 0.57571 0.0
C267 C 0.36421 0.55965 0.56482 0.0
C268 C 0.33159 0.54129 0.5533 0.0
C269 C 0.31007 0.55356 0.55524 0.0
H270 H 0.92994 0.39175 0.75655 0.0
H271 H 0.89063 0.45435 0.77968 0.0
H272 H 0.87842 0.35386 0.73077 0.0
H273 H 0.83805 0.41482 0.75662 0.0
H274 H 0.74234 0.33961 0.71727 0.0
H275 H 0.79959 0.3833 0.71992 0.0
H276 H 0.82945 0.31493 0.747 0.0
H277 H 0.77316 0.27157 0.74271 0.0
C278 C 0.91061 0.39786 0.75579 0.0
C279 C 0.91436 0.42583 0.77107 0.0
C280 C 0.88065 0.37567 0.74136 0.0
C281 C 0.85337 0.38041 0.74243 0.0
C282 C 0.85817 0.40995 0.75529 0.0
C283 C 0.88836 0.43251 0.76908 0.0
C284 C 0.7613 0.33384 0.72303 0.0
C285 C 0.75299 0.30212 0.73026 0.0
C286 C 0.79418 0.35898 0.72481 0.0
C287 C 0.81944 0.35306 0.73422 0.0
C288 C 0.81111 0.32077 0.73935 0.0
C289 C 0.77847 0.29569 0.73716 0.0
H290 H 0.46354 0.90258 0.93569 0.0
H291 H 0.55848 0.91029 0.9493 0.0
H292 H 0.44326 0.8502 0.90889 0.0
H293 H 0.53841 0.85817 0.92198 0.0
H294 H 0.47563 0.74553 0.91042 0.0
H295 H 0.49888 0.8009 0.93187 0.0
H296 H 0.44874 0.82319 0.86459 0.0
H297 H 0.42522 0.76776 0.84324 0.0
C298 C 0.48023 0.89333 0.93247 0.0
C299 C 0.51256 0.91049 0.94467 0.0
C300 C 0.46867 0.8634 0.91702 0.0
C301 C 0.48914 0.84987 0.91357 0.0
C302 C 0.52192 0.86775 0.92464 0.0
C303 C 0.53355 0.8978 0.93994 0.0
C304 C 0.46956 0.76223 0.90019 0.0
C305 C 0.44848 0.75216 0.87516 0.0
C306 C 0.48312 0.79405 0.91234 0.0
C307 C 0.47579 0.8165 0.89985 0.0
C308 C 0.45471 0.80643 0.87483 0.0
C309 C 0.4413 0.77467 0.86257 0.0
H310 H 0.59924 0.51503 0.07429 0.0
H311 H 0.63844 0.51203 0.1588 0.0
H312 H 0.63261 0.49433 0.05211 0.0
H313 H 0.67237 0.49255 0.13701 0.0
H314 H 0.70213 0.4249 0.09406 0.0
H315 H 0.66755 0.4449 0.11396 0.0
H316 H 0.68728 0.50715 0.04232 0.0
H317 H 0.72081 0.48627 0.02196 0.0
C318 C 0.61532 0.51033 0.08801 0.0
C319 C 0.61604 0.51471 0.11819 0.0
C320 C 0.63446 0.49853 0.07541 0.0
C321 C 0.6549 0.49128 0.0928 0.0
C322 C 0.6563 0.4969 0.12295 0.0
C323 C 0.63704 0.50832 0.13545 0.0
C324 C 0.69901 0.44279 0.08255 0.0
C325 C 0.71431 0.45403 0.05649 0.0
C326 C 0.67932 0.45444 0.09401 0.0
C327 C 0.67474 0.47788 0.07986 0.0
C328 C 0.68986 0.48885 0.05365 0.0
C329 C 0.7093 0.477 0.04207 0.0
H330 H 0.45575 0.89083 0.49104 0.0
H331 H 0.38344 0.91353 0.52257 0.0
H332 H 0.43314 0.84244 0.51935 0.0
H333 H 0.36108 0.86537 0.55108 0.0
H334 H 0.3396 0.78403 0.61167 0.0
H335 H 0.37097 0.8371 0.59111 0.0
H336 H 0.38005 0.79015 0.51306 0.0
H337 H 0.34882 0.73705 0.53362 0.0
C338 C 0.43544 0.88582 0.50447 0.0
C339 C 0.42116 0.90581 0.50433 0.0
C340 C 0.42241 0.85805 0.52055 0.0
C341 C 0.39499 0.84979 0.53703 0.0
C342 C 0.3823 0.87114 0.53867 0.0
C343 C 0.39523 0.89886 0.52244 0.0
C344 C 0.34847 0.78501 0.59019 0.0
C345 C 0.34157 0.75626 0.57421 0.0
C346 C 0.36637 0.81543 0.57841 0.0
C347 C 0.37803 0.81784 0.55051 0.0
C348 C 0.37178 0.78916 0.53479 0.0
C349 C 0.35366 0.75869 0.54648 0.0
H350 H 0.48842 0.36898 0.66743 0.0
H351 H 0.58547 0.4416 0.64478 0.0
H352 H 0.51242 0.34416 0.69774 0.0
H353 H 0.60946 0.41668 0.67492 0.0
H354 H 0.62859 0.33054 0.68844 0.0
H355 H 0.60788 0.36363 0.66713 0.0
H356 H 0.54892 0.35047 0.74071 0.0
H357 H 0.56949 0.3172 0.76205 0.0
C358 C 0.51492 0.38027 0.66968 0.0
C359 C 0.53505 0.40699 0.65349 0.0
C360 C 0.52868 0.36597 0.68694 0.0
C361 C 0.56279 0.37812 0.68824 0.0
C362 C 0.58305 0.40637 0.67382 0.0
C363 C 0.56933 0.42071 0.65671 0.0
C364 C 0.61137 0.33485 0.70017 0.0
C365 C 0.6006 0.32113 0.72687 0.0
C366 C 0.5997 0.35403 0.68807 0.0
C367 C 0.57685 0.35976 0.70232 0.0
C368 C 0.56637 0.34635 0.72918 0.0
C369 C 0.57825 0.32737 0.7414 0.0
H370 H 0.13075 0.53637 0.87036 0.0
H371 H 0.17399 0.5779 0.79016 0.0
H372 H 0.18592 0.55365 0.89158 0.0
H373 H 0.22802 0.59683 0.81202 0.0
H374 H 0.32325 0.64714 0.86106 0.0
H375 H 0.26685 0.6367 0.8566 0.0
H376 H 0.23046 0.53569 0.87349 0.0
H377 H 0.28677 0.54583 0.87761 0.0
C378 C 0.15175 0.54956 0.85739 0.0
C379 C 0.14755 0.55611 0.82859 0.0
C380 C 0.18328 0.55967 0.86967 0.0
C381 C 0.21114 0.57717 0.85359 0.0
C382 C 0.20703 0.58424 0.82518 0.0
C383 C 0.17579 0.57349 0.81273 0.0
C384 C 0.30334 0.62296 0.86481 0.0
C385 C 0.30945 0.59717 0.86915 0.0
C386 C 0.27107 0.61701 0.86224 0.0
C387 C 0.24443 0.58536 0.8645 0.0
C388 C 0.2506 0.56033 0.87182 0.0
C389 C 0.28283 0.56614 0.87396 0.0
H390 H 0.5915 0.15412 0.00234 0.0
H391 H 0.66084 0.12613 0.03403 0.0
H392 H 0.6265 0.20883 0.02347 0.0
H393 H 0.694 0.17978 0.05787 0.0
H394 H 0.77065 0.28527 0.04178 0.0
H395 H 0.73062 0.22811 0.03938 0.0
H396 H 0.65448 0.25088 0.05861 0.0
H397 H 0.69495 0.30903 0.05939 0.0
C398 C 0.61382 0.15933 0.01442 0.0
C399 C 0.62386 0.13585 0.01533 0.0
C400 C 0.63374 0.19077 0.02708 0.0
C401 C 0.66387 0.19935 0.04169 0.0
C402 C 0.6717 0.1746 0.0458 0.0
C403 C 0.65221 0.14341 0.03249 0.0
C404 C 0.74549 0.27829 0.04592 0.0
C405 C 0.73601 0.30195 0.05016 0.0
C406 C 0.72234 0.24514 0.04489 0.0
C407 C 0.68893 0.23443 0.04851 0.0
C408 C 0.6798 0.25808 0.05505 0.0
C409 C 0.70308 0.29149 0.05576 0.0
H410 H 0.54165 0.65971 0.18992 0.0
H411 H 0.44465 0.5935 0.15162 0.0
H412 H 0.52041 0.69086 0.2146 0.0
H413 H 0.4241 0.62636 0.17392 0.0
H414 H 0.39042 0.69069 0.21088 0.0
H415 H 0.40928 0.65104 0.20998 0.0
H416 H 0.50809 0.72867 0.19752 0.0
H417 H 0.48973 0.76786 0.20003 0.0
C418 C 0.51564 0.65132 0.18715 0.0
C419 C 0.49512 0.62457 0.16799 0.0
C420 C 0.5035 0.66961 0.20098 0.0
C421 C 0.47074 0.66205 0.19548 0.0
C422 C 0.4495 0.6333 0.17871 0.0
C423 C 0.46147 0.61462 0.16544 0.0
C424 C 0.41632 0.6993 0.20877 0.0
C425 C 0.43838 0.73243 0.20494 0.0
C426 C 0.42714 0.67651 0.20799 0.0
C427 C 0.46019 0.68632 0.2031 0.0
C428 C 0.48254 0.71985 0.2016 0.0
C429 C 0.47185 0.74253 0.20271 0.0
H430 H 0.91162 0.53872 0.36795 0.0
H431 H 0.88335 0.44283 0.33065 0.0
H432 H 0.85769 0.51745 0.38707 0.0
H433 H 0.82842 0.4223 0.34718 0.0
H434 H 0.72723 0.39 0.37223 0.0
H435 H 0.78563 0.40752 0.37794 0.0
H436 H 0.80952 0.50646 0.36297 0.0
H437 H 0.75201 0.48942 0.35887 0.0
C438 C 0.89426 0.51291 0.36436 0.0
C439 C 0.90163 0.49278 0.34684 0.0
C440 C 0.86294 0.50077 0.37491 0.0
C441 C 0.83798 0.46845 0.3676 0.0
C442 C 0.84662 0.4474 0.3531 0.0
C443 C 0.87818 0.45934 0.34319 0.0
C444 C 0.74505 0.41561 0.37085 0.0
C445 C 0.73482 0.43815 0.36459 0.0
C446 C 0.7786 0.42567 0.37394 0.0
C447 C 0.80264 0.45843 0.37059 0.0
C448 C 0.79214 0.48114 0.36619 0.0
C449 C 0.75882 0.47121 0.36344 0.0
H450 H 0.06351 0.54524 0.40583 0.0
H451 H 0.14597 0.63621 0.38288 0.0
H452 H 0.0925 0.54971 0.45229 0.0
H453 H 0.17536 0.63982 0.42777 0.0
H454 H 0.21407 0.65317 0.51916 0.0
H455 H 0.17914 0.64953 0.47775 0.0
H456 H 0.1381 0.54491 0.47031 0.0
H457 H 0.17202 0.5485 0.51264 0.0
C458 C 0.08768 0.56617 0.41079 0.0
C459 C 0.10273 0.59002 0.39058 0.0
C460 C 0.10445 0.56862 0.43718 0.0
C461 C 0.13646 0.59503 0.44375 0.0
C462 C 0.15071 0.61936 0.42381 0.0
C463 C 0.13399 0.61703 0.39778 0.0
C464 C 0.19771 0.62942 0.5086 0.0
C465 C 0.19607 0.60118 0.519 0.0
C466 C 0.17762 0.62728 0.48483 0.0
C467 C 0.1558 0.5969 0.47052 0.0
C468 C 0.15414 0.56864 0.48102 0.0
C469 C 0.1739 0.57074 0.50509 0.0
H470 H 0.577 0.10358 0.52522 0.0
H471 H 0.48393 0.0803 0.55968 0.0
H472 H 0.60509 0.1306 0.57174 0.0
H473 H 0.51199 0.10728 0.60633 0.0
H474 H 0.58042 0.19917 0.6662 0.0
H475 H 0.55114 0.16663 0.62196 0.0
H476 H 0.61009 0.12003 0.62402 0.0
H477 H 0.63943 0.15247 0.66818 0.0
C478 C 0.56255 0.10369 0.54299 0.0
C479 C 0.52834 0.08983 0.53895 0.0
C480 C 0.57858 0.11911 0.56957 0.0
C481 C 0.56075 0.12132 0.59254 0.0
C482 C 0.52636 0.10626 0.58886 0.0
C483 C 0.51028 0.09047 0.56235 0.0
C484 C 0.58726 0.18211 0.65717 0.0
C485 C 0.61233 0.1785 0.67073 0.0
C486 C 0.57026 0.16324 0.63201 0.0
C487 C 0.57819 0.14063 0.61969 0.0
C488 C 0.60352 0.13732 0.633 0.0
C489 C 0.62027 0.15589 0.65832 0.0
H490 H 0.50958 0.5759 0.66716 0.0
H491 H 0.45534 0.48103 0.70226 0.0
H492 H 0.50982 0.60159 0.7137 0.0
H493 H 0.45711 0.50676 0.74915 0.0
H494 H 0.40767 0.55851 0.79568 0.0
H495 H 0.42438 0.53138 0.76061 0.0
H496 H 0.52254 0.61485 0.76543 0.0
H497 H 0.50551 0.64243 0.80077 0.0
C498 C 0.49872 0.56059 0.68509 0.0
C499 C 0.48173 0.5264 0.68076 0.0
C500 C 0.49911 0.57533 0.71189 0.0
C501 C 0.48274 0.55616 0.73496 0.0
C502 C 0.46926 0.52216 0.73158 0.0
C503 C 0.46863 0.50741 0.70473 0.0
C504 C 0.43303 0.5709 0.78991 0.0
C505 C 0.45517 0.60274 0.80096 0.0
C506 C 0.44275 0.55517 0.76983 0.0
C507 C 0.47486 0.57089 0.76017 0.0
C508 C 0.49755 0.60217 0.77228 0.0
C509 C 0.48781 0.61792 0.79255 0.0
H510 H 0.94964 0.51772 0.85822 0.0
H511 H 0.95644 0.43599 0.88803 0.0
H512 H 0.92567 0.52136 0.90338 0.0
H513 H 0.93039 0.43756 0.93202 0.0
H514 H 0.83358 0.47819 0.95765 0.0
H515 H 0.875 0.49324 0.92203 0.0
H516 H 0.92636 0.45811 0.97596 0.0
H517 H 0.88316 0.44082 0.01026 0.0
C518 C 0.94646 0.50095 0.87481 0.0
C519 C 0.95484 0.47668 0.86998 0.0
C520 C 0.93236 0.50267 0.90051 0.0
C521 C 0.9254 0.47942 0.9214 0.0
C522 C 0.93569 0.45632 0.91695 0.0
C523 C 0.95052 0.45519 0.89162 0.0
C524 C 0.85415 0.47435 0.962 0.0
C525 C 0.85504 0.45787 -0.01378 0.0
C526 C 0.87814 0.48315 0.94169 0.0
C527 C 0.90396 0.47635 0.94564 0.0
C528 C 0.90632 0.46268 0.97152 0.0
C529 C 0.88175 0.45297 -0.00866 0.0
H530 H 0.44971 0.94715 0.013 0.0
H531 H 0.53342 0.95955 0.06458 0.0
H532 H 0.41463 0.92311 0.05338 0.0
H533 H 0.49871 0.93374 0.10402 0.0
H534 H 0.36234 0.8275 0.10216 0.0
H535 H 0.39187 0.87211 0.07086 0.0
H536 H 0.46482 0.92561 0.14075 0.0
H537 H 0.43629 0.87933 0.17092 0.0
C538 C 0.46062 0.94535 0.03329 0.0
C539 C 0.49406 0.9549 0.03578 0.0
C540 C 0.44056 0.93126 0.05632 0.0
C541 C 0.45345 0.92554 0.08189 0.0
C542 C 0.48761 0.93785 0.08502 0.0
C543 C 0.5077 0.95261 0.06228 0.0
C544 C 0.3843 0.84921 0.11086 0.0
C545 C 0.39752 0.85005 0.13852 0.0
C546 C 0.40124 0.87503 0.09304 0.0
C547 C 0.43137 0.90246 0.10293 0.0
C548 C 0.44243 0.90451 0.13195 0.0
C549 C 0.42601 0.8782 0.14938 0.0
H550 H 0.5076 0.45612 0.17901 0.0
H551 H 0.58671 0.53961 0.22642 0.0
H552 H 0.50266 0.42211 0.21912 0.0
H553 H 0.58399 0.50588 0.26538 0.0
H554 H 0.58944 0.4432 0.32815 0.0
H555 H 0.56677 0.47223 0.30247 0.0
H556 H 0.53396 0.39936 0.2312 0.0
H557 H 0.55427 0.36939 0.25827 0.0
C558 C 0.52305 0.46735 0.19857 0.0
C559 C 0.54757 0.50031 0.19978 0.0
C560 C 0.52076 0.44782 0.22135 0.0
C561 C 0.54376 0.46074 0.2452 0.0
C562 C 0.56568 0.49469 0.24765 0.0
C563 C 0.56733 0.51429 0.22523 0.0
C564 C 0.57666 0.43321 0.30725 0.0
C565 C 0.57399 0.40453 0.2948 0.0
C566 C 0.56378 0.44987 0.2924 0.0
C567 C 0.54915 0.43883 0.26427 0.0
C568 C 0.54461 0.40873 0.25284 0.0
C569 C 0.55657 0.39157 0.26818 0.0
H570 H 0.46834 0.97155 0.38385 0.0
H571 H 0.38845 0.87973 0.40856 0.0
H572 H 0.46314 0.94773 0.33477 0.0
H573 H 0.38434 0.85564 0.36052 0.0
H574 H 0.36501 0.82614 0.26591 0.0
H575 H 0.36816 0.85486 0.31157 0.0
H576 H 0.47407 0.90874 0.31007 0.0
H577 H 0.47086 0.88083 0.26387 0.0
C578 C 0.44966 0.94638 0.37877 0.0
C579 C 0.42917 0.9274 0.40017 0.0
C580 C 0.44686 0.93261 0.35079 0.0
C581 C 0.42343 0.89966 0.34369 0.0
C582 C 0.40242 0.88113 0.36499 0.0
C583 C 0.40511 0.89485 0.39274 0.0
C584 C 0.38898 0.84413 0.27528 0.0
C585 C 0.41767 0.85097 0.26129 0.0
C586 C 0.39081 0.86058 0.30154 0.0
C587 C 0.42141 0.88405 0.31464 0.0
C588 C 0.45008 0.89119 0.30044 0.0
C589 C 0.44823 0.87493 0.27404 0.0
H590 H 0.53209 0.37911 0.55692 0.0
H591 H 0.52465 0.4626 0.53277 0.0
H592 H 0.55417 0.37732 0.5107 0.0
H593 H 0.54522 0.45974 0.48541 0.0
H594 H 0.62168 0.46937 0.42072 0.0
H595 H 0.59598 0.47041 0.4653 0.0
H596 H 0.54096 0.36497 0.4605 0.0
H597 H 0.56755 0.36392 0.41648 0.0
C598 C 0.53508 0.39707 0.54162 0.0
C599 C 0.52722 0.42141 0.5487 0.0
C600 C 0.5473 0.39572 0.51489 0.0
C601 C 0.55159 0.41843 0.49431 0.0
C602 C 0.54269 0.44218 0.50097 0.0
C603 C 0.53058 0.44364 0.52793 0.0
C604 C 0.60414 0.44639 0.42921 0.0
C605 C 0.59686 0.41655 0.41515 0.0
C606 C 0.58915 0.447 0.45464 0.0
C607 C 0.56634 0.41779 0.4665 0.0
C608 C 0.5588 0.38795 0.45223 0.0
C609 C 0.57402 0.38733 0.42695 0.0
H610 H 0.10801 0.61008 0.75888 0.0
H611 H 0.0632 0.51212 0.71984 0.0
H612 H 0.13519 0.63142 0.7144 0.0
H613 H 0.0885 0.53363 0.6749 0.0
H614 H 0.1949 0.57325 0.64505 0.0
H615 H 0.14643 0.55228 0.67275 0.0
H616 H 0.14345 0.64129 0.6632 0.0
H617 H 0.19267 0.66257 0.6352 0.0
C618 C 0.1027 0.59321 0.74039 0.0
C619 C 0.08476 0.55933 0.74341 0.0
C620 C 0.1181 0.60549 0.71474 0.0
C621 C 0.11513 0.58401 0.69159 0.0
C622 C 0.09217 0.55066 0.69282 0.0
C623 C 0.07725 0.53835 0.71859 0.0
C624 C 0.1836 0.58814 0.64819 0.0
C625 C 0.19778 0.61963 0.63802 0.0
C626 C 0.15548 0.57597 0.66392 0.0
C627 C 0.1408 0.595 0.67003 0.0
C628 C 0.1542 0.62606 0.65888 0.0
C629 C 0.18241 0.63824 0.64295 0.0
H630 H 0.53639 0.08929 0.92453 0.0
H631 H 0.62451 0.08953 0.90098 0.0
H632 H 0.53271 0.10971 0.87763 0.0
H633 H 0.62271 0.11211 0.85521 0.0
H634 H 0.6197 0.15462 0.77438 0.0
H635 H 0.60313 0.11294 0.80966 0.0
H636 H 0.5593 0.15987 0.85847 0.0
H637 H 0.5739 0.19975 0.82199 0.0
C638 C 0.55458 0.09319 0.90894 0.0
C639 C 0.58069 0.08793 0.91606 0.0
C640 C 0.5528 0.10526 0.88224 0.0
C641 C 0.57776 0.11332 0.86262 0.0
C642 C 0.60269 0.10591 0.86929 0.0
C643 C 0.60395 0.09308 0.89565 0.0
C644 C 0.60591 0.15543 0.7924 0.0
C645 C 0.59852 0.18056 0.79589 0.0
C646 C 0.59653 0.13169 0.81275 0.0
C647 C 0.58057 0.13332 0.83752 0.0
C648 C 0.57123 0.15734 0.83971 0.0
C649 C 0.57978 0.18047 0.81889 0.0
H650 H 0.45015 0.55723 0.0748 0.0
H651 H 0.5494 0.62235 0.05152 0.0
H652 H 0.42984 0.55707 0.02559 0.0
H653 H 0.52914 0.62199 0.00212 0.0
H654 H 0.47252 0.64894 0.93433 0.0
H655 H 0.4952 0.64468 0.98099 0.0
H656 H 0.43144 0.54014 0.97419 0.0
H657 H 0.40858 0.54424 0.92764 0.0
C658 C 0.46763 0.57105 0.05896 0.0
C659 C 0.5013 0.58983 0.06691 0.0
C660 C 0.45605 0.57088 0.03081 0.0
C661 C 0.4779 0.58973 0.01011 0.0
C662 C 0.51173 0.60753 0.01775 0.0
C663 C 0.52335 0.60744 0.04587 0.0
C664 C 0.46333 0.62503 0.94274 0.0
C665 C 0.43863 0.59696 0.92726 0.0
C666 C 0.47654 0.62258 0.96935 0.0
C667 C 0.46515 0.59206 0.98116 0.0
C668 C 0.44055 0.564 0.96568 0.0
C669 C 0.42754 0.56639 0.93898 0.0
H670 H 0.92918 0.4528 0.25395 0.0
H671 H 0.94947 0.54943 0.23474 0.0
H672 H 0.90482 0.43262 0.20501 0.0
H673 H 0.92513 0.5293 0.18559 0.0
H674 H 0.83541 0.46735 0.11993 0.0
H675 H 0.8668 0.49111 0.16596 0.0
H676 H 0.91786 0.4374 0.15298 0.0
H677 H 0.88661 0.41356 0.10722 0.0
C678 C 0.92909 0.46983 0.23896 0.0
C679 C 0.94129 0.50265 0.248 0.0
C680 C 0.91515 0.45833 0.21098 0.0
C681 C 0.9128 0.47934 0.19157 0.0
C682 C 0.9263 0.5125 0.20022 0.0
C683 C 0.94061 0.52411 0.22816 0.0
C684 C 0.85331 0.46059 0.12689 0.0
C685 C 0.85834 0.43843 0.10989 0.0
C686 C 0.8715 0.47444 0.15311 0.0
C687 C 0.89486 0.46618 0.163 0.0
C688 C 0.89991 0.44409 0.146 0.0
C689 C 0.88199 0.43049 0.11973 0.0
loop_
_geom_bond_atom_site_label_1
_geom_bond_atom_site_label_2
_geom_bond_distance
_geom_bond_site_symmetry_2
_ccdc_geom_bond_type
H0 C8 0.930 . S
H1 C11 0.930 . S
H2 C13 0.930 . S
H3 C14 0.958 1_655 S
H4 C14 0.970 . S
H5 C16 0.930 . S
H6 C18 0.930 . S
H7 C20 0.930 . S
C8 H0 0.930 . S
C8 C9 1.382 . S
C8 C10 1.426 . S
C9 C8 1.382 . S
C9 C13 1.389 . S
C10 C8 1.426 . S
C10 C11 1.375 . S
C10 C14 1.532 1_655 S
C11 H1 0.930 . S
C11 C10 1.375 . S
C11 C12 1.416 . S
C12 C11 1.416 . S
C12 C13 1.371 . S
C13 H2 0.930 . S
C13 C9 1.389 . S
C13 C12 1.371 . S
C14 H3 0.958 1_455 S
C14 H4 0.970 . S
C14 C10 1.532 1_455 S
C14 C15 1.499 . S
C15 C14 1.499 . S
C15 C16 1.370 . S
C15 C20 1.415 . S
C16 H5 0.930 . S
C16 C15 1.370 . S
C16 C17 1.407 . S
C17 C16 1.407 . S
C17 C18 1.365 . S
C18 H6 0.930 . S
C18 C17 1.365 . S
C18 C19 1.393 . S
C19 C18 1.393 . S
C19 C20 1.387 . S
C20 H7 0.930 . S
C20 C15 1.415 . S
C20 C19 1.387 . S
H21 C29 0.930 . S
H22 C32 0.930 . S
H23 C34 0.930 . S
H24 C35 0.970 . S
H25 C35 0.970 . S
H26 C37 0.930 . S
H27 C39 0.930 . S
H28 C41 0.930 . S
C29 H21 0.930 . S
C29 C30 1.382 . S
C29 C31 1.426 . S
C30 C29 1.382 . S
C30 C34 1.389 . S
C31 C29 1.426 . S
C31 C32 1.375 . S
C31 C35 1.532 1_565 S
C32 H22 0.930 . S
C32 C31 1.375 . S
C32 C33 1.416 . S
C33 C32 1.416 . S
C33 C34 1.371 . S
C34 H23 0.930 . S
C34 C30 1.389 . S
C34 C33 1.371 . S
C35 H24 0.970 . S
C35 H25 0.970 . S
C35 C31 1.532 1_545 S
C35 C36 1.499 . S
C36 C35 1.499 . S
C36 C37 1.370 . S
C36 C41 1.415 . S
C37 H26 0.930 . S
C37 C36 1.370 . S
C37 C38 1.407 . S
C38 C37 1.407 . S
C38 C39 1.365 . S
C39 H27 0.930 . S
C39 C38 1.365 . S
C39 C40 1.393 . S
C40 C39 1.393 . S
C40 C41 1.387 . S
C41 H28 0.930 . S
C41 C36 1.415 . S
C41 C40 1.387 . S
H42 C50 0.930 . S
H43 C53 0.930 . S
H44 C55 0.930 . S
H45 C56 0.970 . S
H46 C56 0.970 . S
H47 C58 0.930 . S
H48 C60 0.930 . S
H49 C62 0.930 . S
C50 H42 0.930 . S
C50 C51 1.382 . S
C50 C52 1.426 . S
C51 C50 1.382 . S
C51 C55 1.389 . S
C52 C50 1.426 . S
C52 C53 1.375 . S
C52 C56 1.532 . S
C53 H43 0.930 . S
C53 C52 1.375 . S
C53 C54 1.416 . S
C54 C53 1.416 . S
C54 C55 1.371 . S
C55 H44 0.930 . S
C55 C51 1.389 . S
C55 C54 1.371 . S
C56 H45 0.970 . S
C56 H46 0.970 . S
C56 C52 1.532 . S
C56 C57 1.499 . S
C57 C56 1.499 . S
C57 C58 1.370 . S
C57 C62 1.415 . S
C58 H47 0.930 . S
C58 C57 1.370 . S
C58 C59 1.407 . S
C59 C58 1.407 . S
C59 C60 1.365 . S
C60 H48 0.930 . S
C60 C59 1.365 . S
C60 C61 1.393 . S
C61 C60 1.393 . S
C61 C62 1.387 . S
C62 H49 0.930 . S
C62 C57 1.415 . S
C62 C61 1.387 . S
H63 C71 0.930 . S
H64 C74 0.930 . S
H65 C76 0.930 . S
H66 C77 0.970 . S
H67 C77 0.970 . S
H68 C79 0.930 . S
H69 C81 0.930 . S
H70 C83 0.930 . S
C71 H63 0.930 . S
C71 C72 1.382 . S
C71 C73 1.426 . S
C72 C71 1.382 . S
C72 C76 1.389 . S
C73 C71 1.426 . S
C73 C74 1.375 . S
C73 C77 1.532 1_655 S
C74 H64 0.930 . S
C74 C73 1.375 . S
C74 C75 1.416 . S
C75 C74 1.416 . S
C75 C76 1.371 . S
C76 H65 0.930 . S
C76 C72 1.389 . S
C76 C75 1.371 . S
C77 H66 0.970 . S
C77 H67 0.970 . S
C77 C73 1.532 1_455 S
C77 C78 1.499 . S
C78 C77 1.499 . S
C78 C79 1.370 . S
C78 C83 1.415 . S
C79 H68 0.930 . S
C79 C78 1.370 . S
C79 C80 1.407 . S
C80 C79 1.407 . S
C80 C81 1.365 . S
C81 H69 0.930 . S
C81 C80 1.365 . S
C81 C82 1.393 . S
C82 C81 1.393 . S
C82 C83 1.387 . S
C83 H70 0.930 . S
C83 C78 1.415 . S
C83 C82 1.387 . S
H84 C92 0.930 . S
H85 C95 0.930 . S
H86 C97 0.930 . S
H87 C98 0.970 1_554 S
H88 C98 0.970 . S
H89 C100 0.930 . S
H90 C102 0.930 . S
H91 C104 0.930 . S
C92 H84 0.930 . S
C92 C93 1.382 1_554 S
C92 C94 1.426 1_554 S
C93 C92 1.382 1_556 S
C93 C97 1.389 . S
C94 C92 1.426 1_556 S
C94 C95 1.375 . S
C94 C98 1.532 . S
C95 H85 0.930 . S
C95 C94 1.375 . S
C95 C96 1.416 . S
C96 C95 1.416 . S
C96 C97 1.371 . S
C97 H86 0.930 . S
C97 C93 1.389 . S
C97 C96 1.371 . S
C98 H87 0.970 1_556 S
C98 H88 0.970 . S
C98 C94 1.532 . S
C98 C99 1.499 1_545 S
C99 C98 1.499 1_565 S
C99 C100 1.370 1_556 S
C99 C104 1.415 . S
C100 H89 0.930 . S
C100 C99 1.370 1_554 S
C100 C101 1.407 . S
C101 C100 1.407 . S
C101 C102 1.365 . S
C102 H90 0.930 . S
C102 C101 1.365 . S
C102 C103 1.393 1_554 S
C103 C102 1.393 1_556 S
C103 C104 1.387 . S
C104 H91 0.930 . S
C104 C99 1.415 . S
C104 C103 1.387 . S
H105 C113 0.930 . S
H106 C116 0.930 . S
H107 C118 0.930 . S
H108 C119 0.970 . S
H109 C119 0.970 . S
H110 C121 0.930 . S
H111 C123 0.930 . S
H112 C125 0.930 . S
C113 H105 0.930 . S
C113 C114 1.382 . S
C113 C115 1.426 . S
C114 C113 1.382 . S
C114 C118 1.389 . S
C115 C113 1.426 . S
C115 C116 1.375 . S
C115 C119 1.532 . S
C116 H106 0.930 . S
C116 C115 1.375 . S
C116 C117 1.416 . S
C117 C116 1.416 . S
C117 C118 1.371 . S
C118 H107 0.930 . S
C118 C114 1.389 . S
C118 C117 1.371 . S
C119 H108 0.970 . S
C119 H109 0.970 . S
C119 C115 1.532 . S
C119 C120 1.499 . S
C120 C119 1.499 . S
C120 C121 1.370 . S
C120 C125 1.415 . S
C121 H110 0.930 . S
C121 C120 1.370 . S
C121 C122 1.407 . S
C122 C121 1.407 . S
C122 C123 1.365 . S
C123 H111 0.930 . S
C123 C122 1.365 . S
C123 C124 1.393 . S
C124 C123 1.393 . S
C124 C125 1.387 . S
C125 H112 0.930 . S
C125 C120 1.415 . S
C125 C124 1.387 . S
Mg126 O127 2.028 . S
Mg126 O133 1.986 . S
Mg126 O135 2.114 . S
Mg126 O136 2.251 . S
Mg126 O139 2.010 . S
O127 Mg126 2.028 . S
O127 C130 1.250 . S
O128 Mg129 2.028 . S
O128 C130 1.248 . S
Mg129 O128 2.028 . S
Mg129 O134 2.032 . S
Mg129 O136 2.079 . S
C130 O127 1.250 . S
C130 O128 1.248 . S
C131 O132 1.264 . S
C131 O139 1.249 . S
O132 C131 1.264 . S
O133 Mg126 1.986 . S
O133 C137 1.246 . S
O134 Mg129 2.032 . S
O134 C137 1.259 . S
O135 Mg126 2.114 . S
O135 C138 1.252 . S
O136 Mg126 2.251 . S
O136 Mg129 2.079 . S
O136 C138 1.273 . S
C137 O133 1.246 . S
C137 O134 1.259 . S
C138 O135 1.252 . S
C138 O136 1.273 . S
O139 Mg126 2.010 . S
O139 C131 1.249 . S
Mg140 O141 2.028 . S
Mg140 O147 1.986 . S
Mg140 O149 2.114 . S
Mg140 O150 2.251 . S
Mg140 O153 2.010 . S
O141 Mg140 2.028 . S
O141 C144 1.250 . S
O142 Mg143 2.028 . S
O142 C144 1.248 . S
Mg143 O142 2.028 . S
Mg143 O148 2.032 . S
Mg143 O150 2.079 . S
C144 O141 1.250 . S
C144 O142 1.248 . S
C145 O146 1.264 . S
C145 O153 1.249 . S
O146 C145 1.264 . S
O147 Mg140 1.986 . S
O147 C151 1.246 . S
O148 Mg143 2.032 . S
O148 C151 1.259 . S
O149 Mg140 2.114 . S
O149 C152 1.252 . S
O150 Mg140 2.251 . S
O150 Mg143 2.079 . S
O150 C152 1.273 . S
C151 O147 1.246 . S
C151 O148 1.259 . S
C152 O149 1.252 . S
C152 O150 1.273 . S
O153 Mg140 2.010 . S
O153 C145 1.249 . S
Mg154 O155 2.028 . S
Mg154 O161 1.986 . S
Mg154 O163 2.114 . S
Mg154 O164 2.251 . S
Mg154 O167 2.010 . S
O155 Mg154 2.028 . S
O155 C158 1.250 . S
O156 Mg157 2.028 . S
O156 C158 1.248 . S
Mg157 O156 2.028 . S
Mg157 O162 2.032 . S
Mg157 O164 2.079 . S
C158 O155 1.250 . S
C158 O156 1.248 . S
C159 O160 1.264 . S
C159 O167 1.249 . S
O160 C159 1.264 . S
O161 Mg154 1.986 . S
O161 C165 1.246 . S
O162 Mg157 2.032 . S
O162 C165 1.259 . S
O163 Mg154 2.114 . S
O163 C166 1.252 . S
O164 Mg154 2.251 . S
O164 Mg157 2.079 . S
O164 C166 1.273 . S
C165 O161 1.246 . S
C165 O162 1.259 . S
C166 O163 1.252 . S
C166 O164 1.273 . S
O167 Mg154 2.010 . S
O167 C159 1.249 . S
Mg168 O169 2.028 . S
Mg168 O175 1.986 . S
Mg168 O177 2.114 . S
Mg168 O178 2.251 . S
Mg168 O181 2.010 . S
O169 Mg168 2.028 . S
O169 C172 1.250 . S
O170 Mg171 2.028 . S
O170 C172 1.248 . S
Mg171 O170 2.028 . S
Mg171 O176 2.032 . S
Mg171 O178 2.079 . S
C172 O169 1.250 . S
C172 O170 1.248 . S
C173 O174 1.264 . S
C173 O181 1.249 . S
O174 C173 1.264 . S
O175 Mg168 1.986 . S
O175 C179 1.246 . S
O176 Mg171 2.032 . S
O176 C179 1.259 . S
O177 Mg168 2.114 . S
O177 C180 1.252 . S
O178 Mg168 2.251 . S
O178 Mg171 2.079 . S
O178 C180 1.273 . S
C179 O175 1.246 . S
C179 O176 1.259 . S
C180 O177 1.252 . S
C180 O178 1.273 . S
O181 Mg168 2.010 . S
O181 C173 1.249 . S
Mg182 O183 2.028 . S
Mg182 O189 1.986 . S
Mg182 O191 2.114 . S
Mg182 O192 2.251 . S
Mg182 O195 2.010 . S
O183 Mg182 2.028 . S
O183 C186 1.250 . S
O184 Mg185 2.028 . S
O184 C186 1.248 . S
Mg185 O184 2.028 . S
Mg185 O190 2.032 . S
Mg185 O192 2.079 . S
C186 O183 1.250 . S
C186 O184 1.248 . S
C187 O188 1.264 . S
C187 O195 1.249 . S
O188 C187 1.264 . S
O189 Mg182 1.986 . S
O189 C193 1.246 . S
O190 Mg185 2.032 . S
O190 C193 1.259 . S
O191 Mg182 2.114 . S
O191 C194 1.252 . S
O192 Mg182 2.251 . S
O192 Mg185 2.079 . S
O192 C194 1.273 . S
C193 O189 1.246 . S
C193 O190 1.259 . S
C194 O191 1.252 . S
C194 O192 1.273 . S
O195 Mg182 2.010 . S
O195 C187 1.249 . S
Mg196 O197 2.028 . S
Mg196 O203 1.986 . S
Mg196 O205 2.114 . S
Mg196 O206 2.251 . S
Mg196 O209 2.010 . S
O197 Mg196 2.028 . S
O197 C200 1.250 . S
O198 Mg199 2.028 . S
O198 C200 1.248 . S
Mg199 O198 2.028 . S
Mg199 O204 2.032 . S
Mg199 O206 2.079 . S
C200 O197 1.250 . S
C200 O198 1.248 . S
C201 O202 1.264 . S
C201 O209 1.249 . S
O202 C201 1.264 . S
O203 Mg196 1.986 . S
O203 C207 1.246 . S
O204 Mg199 2.032 . S
O204 C207 1.259 . S
O205 Mg196 2.114 . S
O205 C208 1.252 . S
O206 Mg196 2.251 . S
O206 Mg199 2.079 . S
O206 C208 1.273 . S
C207 O203 1.246 . S
C207 O204 1.259 . S
C208 O205 1.252 . S
C208 O206 1.273 . S
O209 Mg196 2.010 . S
O209 C201 1.249 . S
H210 C218 0.950 . S
H211 C223 0.950 . S
H212 C220 0.950 . S
H213 C222 0.950 . S
H214 C224 0.950 . S
H215 C226 0.950 . S
H216 C228 0.950 . S
H217 C229 0.950 . S
C218 H210 0.950 . S
C218 C219 1.386 . S
C218 C220 1.391 . S
C219 C218 1.386 . S
C219 C223 1.393 . S
C220 H212 0.950 . S
C220 C218 1.391 . S
C220 C221 1.400 . S
C221 C220 1.400 . S
C221 C222 1.398 . S
C221 C227 1.491 . S
C222 H213 0.950 . S
C222 C221 1.398 . S
C222 C223 1.391 . S
C223 H211 0.950 . S
C223 C219 1.393 . S
C223 C222 1.391 . S
C224 H214 0.950 . S
C224 C225 1.386 . S
C224 C226 1.391 . S
C225 C224 1.386 . S
C225 C229 1.393 . S
C226 H215 0.950 . S
C226 C224 1.391 . S
C226 C227 1.400 . S
C227 C221 1.491 . S
C227 C226 1.400 . S
C227 C228 1.398 . S
C228 H216 0.950 . S
C228 C227 1.398 . S
C228 C229 1.391 . S
C229 H217 0.950 . S
C229 C225 1.393 . S
C229 C228 1.391 . S
H230 C238 0.950 . S
H231 C243 0.950 . S
H232 C240 0.950 . S
H233 C242 0.950 . S
H234 C244 0.950 . S
H235 C246 0.950 . S
H236 C248 0.950 . S
H237 C249 0.950 . S
C238 H230 0.950 . S
C238 C239 1.386 . S
C238 C240 1.391 . S
C239 C238 1.386 . S
C239 C243 1.393 . S
C240 H232 0.950 . S
C240 C238 1.391 . S
C240 C241 1.400 . S
C241 C240 1.400 . S
C241 C242 1.398 . S
C241 C247 1.491 . S
C242 H233 0.950 . S
C242 C241 1.398 . S
C242 C243 1.391 . S
C243 H231 0.950 . S
C243 C239 1.393 . S
C243 C242 1.391 . S
C244 H234 0.950 . S
C244 C245 1.386 . S
C244 C246 1.391 . S
C245 C244 1.386 . S
C245 C249 1.393 . S
C246 H235 0.950 . S
C246 C244 1.391 . S
C246 C247 1.400 . S
C247 C241 1.491 . S
C247 C246 1.400 . S
C247 C248 1.398 . S
C248 H236 0.950 . S
C248 C247 1.398 . S
C248 C249 1.391 . S
C249 H237 0.950 . S
C249 C245 1.393 . S
C249 C248 1.391 . S
H250 C258 0.950 . S
H251 C263 0.950 . S
H252 C260 0.950 . S
H253 C262 0.950 . S
H254 C264 0.950 . S
H255 C266 0.950 . S
H256 C268 0.950 . S
H257 C269 0.950 . S
C258 H250 0.950 . S
C258 C259 1.386 . S
C258 C260 1.391 . S
C259 C258 1.386 . S
C259 C263 1.393 . S
C260 H252 0.950 . S
C260 C258 1.391 . S
C260 C261 1.400 . S
C261 C260 1.400 . S
C261 C262 1.398 . S
C261 C267 1.491 . S
C262 H253 0.950 . S
C262 C261 1.398 . S
C262 C263 1.391 . S
C263 H251 0.950 . S
C263 C259 1.393 . S
C263 C262 1.391 . S
C264 H254 0.950 . S
C264 C265 1.386 . S
C264 C266 1.391 . S
C265 C264 1.386 . S
C265 C269 1.393 . S
C266 H255 0.950 . S
C266 C264 1.391 . S
C266 C267 1.400 . S
C267 C261 1.491 . S
C267 C266 1.400 . S
C267 C268 1.398 . S
C268 H256 0.950 . S
C268 C267 1.398 . S
C268 C269 1.391 . S
C269 H257 0.950 . S
C269 C265 1.393 . S
C269 C268 1.391 . S
H270 C278 0.950 . S
H271 C283 0.950 . S
H272 C280 0.950 . S
H273 C282 0.950 . S
H274 C284 0.950 . S
H275 C286 0.950 . S
H276 C288 0.950 . S
H277 C289 0.950 . S
C278 H270 0.950 . S
C278 C279 1.386 . S
C278 C280 1.391 . S
C279 C278 1.386 . S
C279 C283 1.393 . S
C280 H272 0.950 . S
C280 C278 1.391 . S
C280 C281 1.400 . S
C281 C280 1.400 . S
C281 C282 1.398 . S
C281 C287 1.491 . S
C282 H273 0.950 . S
C282 C281 1.398 . S
C282 C283 1.391 . S
C283 H271 0.950 . S
C283 C279 1.393 . S
C283 C282 1.391 . S
C284 H274 0.950 . S
C284 C285 1.386 . S
C284 C286 1.391 . S
C285 C284 1.386 . S
C285 C289 1.393 . S
C286 H275 0.950 . S
C286 C284 1.391 . S
C286 C287 1.400 . S
C287 C281 1.491 . S
C287 C286 1.400 . S
C287 C288 1.398 . S
C288 H276 0.950 . S
C288 C287 1.398 . S
C288 C289 1.391 . S
C289 H277 0.950 . S
C289 C285 1.393 . S
C289 C288 1.391 . S
H290 C298 0.950 . S
H291 C303 0.950 1_554 S
H292 C300 0.950 . S
H293 C302 0.950 . S
H294 C304 0.950 . S
H295 C306 0.950 . S
H296 C308 0.950 . S
H297 C309 0.950 . S
C298 H290 0.950 . S
C298 C299 1.386 . S
C298 C300 1.391 . S
C299 C298 1.386 . S
C299 C303 1.393 . S
C300 H292 0.950 . S
C300 C298 1.391 . S
C300 C301 1.400 . S
C301 C300 1.400 . S
C301 C302 1.398 . S
C301 C307 1.491 . S
C302 H293 0.950 . S
C302 C301 1.398 . S
C302 C303 1.391 . S
C303 H291 0.950 1_556 S
C303 C299 1.393 . S
C303 C302 1.391 . S
C304 H294 0.950 . S
C304 C305 1.386 . S
C304 C306 1.391 . S
C305 C304 1.386 . S
C305 C309 1.393 . S
C306 H295 0.950 . S
C306 C304 1.391 . S
C306 C307 1.400 . S
C307 C301 1.491 . S
C307 C306 1.400 . S
C307 C308 1.398 . S
C308 H296 0.950 . S
C308 C307 1.398 . S
C308 C309 1.391 . S
C309 H297 0.950 . S
C309 C305 1.393 . S
C309 C308 1.391 . S
H310 C318 0.950 . S
H311 C323 0.950 . S
H312 C320 0.950 . S
H313 C322 0.950 . S
H314 C324 0.950 . S
H315 C326 0.950 . S
H316 C328 0.950 . S
H317 C329 0.950 . S
C318 H310 0.950 . S
C318 C319 1.386 . S
C318 C320 1.391 . S
C319 C318 1.386 . S
C319 C323 1.393 . S
C320 H312 0.950 . S
C320 C318 1.391 . S
C320 C321 1.400 . S
C321 C320 1.400 . S
C321 C322 1.398 . S
C321 C327 1.491 . S
C322 H313 0.950 . S
C322 C321 1.398 . S
C322 C323 1.391 . S
C323 H311 0.950 . S
C323 C319 1.393 . S
C323 C322 1.391 . S
C324 H314 0.950 . S
C324 C325 1.386 . S
C324 C326 1.391 . S
C325 C324 1.386 . S
C325 C329 1.393 . S
C326 H315 0.950 . S
C326 C324 1.391 . S
C326 C327 1.400 . S
C327 C321 1.491 . S
C327 C326 1.400 . S
C327 C328 1.398 . S
C328 H316 0.950 . S
C328 C327 1.398 . S
C328 C329 1.391 . S
C329 H317 0.950 . S
C329 C325 1.393 . S
C329 C328 1.391 . S
H330 C338 0.950 . S
H331 C343 0.950 . S
H332 C340 0.950 . S
H333 C342 0.950 . S
H334 C344 0.950 . S
H335 C346 0.950 . S
H336 C348 0.950 . S
H337 C349 0.950 . S
C338 H330 0.950 . S
C338 C339 1.386 . S
C338 C340 1.391 . S
C339 C338 1.386 . S
C339 C343 1.393 . S
C340 H332 0.950 . S
C340 C338 1.391 . S
C340 C341 1.400 . S
C341 C340 1.400 . S
C341 C342 1.398 . S
C341 C347 1.491 . S
C342 H333 0.950 . S
C342 C341 1.398 . S
C342 C343 1.391 . S
C343 H331 0.950 . S
C343 C339 1.393 . S
C343 C342 1.391 . S
C344 H334 0.950 . S
C344 C345 1.386 . S
C344 C346 1.391 . S
C345 C344 1.386 . S
C345 C349 1.393 . S
C346 H335 0.950 . S
C346 C344 1.391 . S
C346 C347 1.400 . S
C347 C341 1.491 . S
C347 C346 1.400 . S
C347 C348 1.398 . S
C348 H336 0.950 . S
C348 C347 1.398 . S
C348 C349 1.391 . S
C349 H337 0.950 . S
C349 C345 1.393 . S
C349 C348 1.391 . S
H350 C358 0.950 . S
H351 C363 0.950 . S
H352 C360 0.950 . S
H353 C362 0.950 . S
H354 C364 0.950 . S
H355 C366 0.950 . S
H356 C368 0.950 . S
H357 C369 0.950 . S
C358 H350 0.950 . S
C358 C359 1.386 . S
C358 C360 1.391 . S
C359 C358 1.386 . S
C359 C363 1.393 . S
C360 H352 0.950 . S
C360 C358 1.391 . S
C360 C361 1.400 . S
C361 C360 1.400 . S
C361 C362 1.398 . S
C361 C367 1.491 . S
C362 H353 0.950 . S
C362 C361 1.398 . S
C362 C363 1.391 . S
C363 H351 0.950 . S
C363 C359 1.393 . S
C363 C362 1.391 . S
C364 H354 0.950 . S
C364 C365 1.386 . S
C364 C366 1.391 . S
C365 C364 1.386 . S
C365 C369 1.393 . S
C366 H355 0.950 . S
C366 C364 1.391 . S
C366 C367 1.400 . S
C367 C361 1.491 . S
C367 C366 1.400 . S
C367 C368 1.398 . S
C368 H356 0.950 . S
C368 C367 1.398 . S
C368 C369 1.391 . S
C369 H357 0.950 . S
C369 C365 1.393 . S
C369 C368 1.391 . S
H370 C378 0.950 . S
H371 C383 0.950 . S
H372 C380 0.950 . S
H373 C382 0.950 . S
H374 C384 0.950 . S
H375 C386 0.950 . S
H376 C388 0.950 . S
H377 C389 0.950 . S
C378 H370 0.950 . S
C378 C379 1.386 . S
C378 C380 1.391 . S
C379 C378 1.386 . S
C379 C383 1.393 . S
C380 H372 0.950 . S
C380 C378 1.391 . S
C380 C381 1.400 . S
C381 C380 1.400 . S
C381 C382 1.398 . S
C381 C387 1.491 . S
C382 H373 0.950 . S
C382 C381 1.398 . S
C382 C383 1.391 . S
C383 H371 0.950 . S
C383 C379 1.393 . S
C383 C382 1.391 . S
C384 H374 0.950 . S
C384 C385 1.386 . S
C384 C386 1.391 . S
C385 C384 1.386 . S
C385 C389 1.393 . S
C386 H375 0.950 . S
C386 C384 1.391 . S
C386 C387 1.400 . S
C387 C381 1.491 . S
C387 C386 1.400 . S
C387 C388 1.398 . S
C388 H376 0.950 . S
C388 C387 1.398 . S
C388 C389 1.391 . S
C389 H377 0.950 . S
C389 C385 1.393 . S
C389 C388 1.391 . S
H390 C398 0.950 . S
H391 C403 0.937 1_556 S
H392 C400 0.950 . S
H393 C402 0.959 . S
H394 C404 0.950 . S
H395 C406 0.950 . S
H396 C408 0.950 . S
H397 C409 0.950 . S
C398 H390 0.950 . S
C398 C399 1.386 . S
C398 C400 1.391 . S
C399 C398 1.386 . S
C399 C403 1.401 . S
C400 H392 0.950 . S
C400 C398 1.391 . S
C400 C401 1.400 . S
C401 C400 1.400 . S
C401 C402 1.398 . S
C401 C407 1.491 . S
C402 H393 0.959 . S
C402 C401 1.398 . S
C402 C403 1.395 . S
C403 H391 0.937 1_554 S
C403 C399 1.401 . S
C403 C402 1.395 . S
C404 H394 0.950 . S
C404 C405 1.386 . S
C404 C406 1.391 . S
C405 C404 1.386 . S
C405 C409 1.393 . S
C406 H395 0.950 . S
C406 C404 1.391 . S
C406 C407 1.400 . S
C407 C401 1.491 . S
C407 C406 1.400 . S
C407 C408 1.398 . S
C408 H396 0.950 . S
C408 C407 1.398 . S
C408 C409 1.391 . S
C409 H397 0.950 . S
C409 C405 1.393 . S
C409 C408 1.391 . S
H410 C418 0.950 . S
H411 C423 0.950 . S
H412 C420 0.950 . S
H413 C422 0.950 . S
H414 C424 0.950 . S
H415 C426 0.950 . S
H416 C428 0.950 . S
H417 C429 0.950 . S
C418 H410 0.950 . S
C418 C419 1.386 . S
C418 C420 1.391 . S
C419 C418 1.386 . S
C419 C423 1.393 . S
C420 H412 0.950 . S
C420 C418 1.391 . S
C420 C421 1.400 . S
C421 C420 1.400 . S
C421 C422 1.398 . S
C421 C427 1.491 . S
C422 H413 0.950 . S
C422 C421 1.398 . S
C422 C423 1.391 . S
C423 H411 0.950 . S
C423 C419 1.393 . S
C423 C422 1.391 . S
C424 H414 0.950 . S
C424 C425 1.386 . S
C424 C426 1.391 . S
C425 C424 1.386 . S
C425 C429 1.393 . S
C426 H415 0.950 . S
C426 C424 1.391 . S
C426 C427 1.400 . S
C427 C421 1.491 . S
C427 C426 1.400 . S
C427 C428 1.398 . S
C428 H416 0.950 . S
C428 C427 1.398 . S
C428 C429 1.391 . S
C429 H417 0.950 . S
C429 C425 1.393 . S
C429 C428 1.391 . S
H430 C438 0.950 . S
H431 C443 0.950 . S
H432 C440 0.950 . S
H433 C442 0.950 . S
H434 C444 0.950 . S
H435 C446 0.950 . S
H436 C448 0.950 . S
H437 C449 0.950 . S
C438 H430 0.950 . S
C438 C439 1.386 . S
C438 C440 1.391 . S
C439 C438 1.386 . S
C439 C443 1.393 . S
C440 H432 0.950 . S
C440 C438 1.391 . S
C440 C441 1.400 . S
C441 C440 1.400 . S
C441 C442 1.398 . S
C441 C447 1.491 . S
C442 H433 0.950 . S
C442 C441 1.398 . S
C442 C443 1.391 . S
C443 H431 0.950 . S
C443 C439 1.393 . S
C443 C442 1.391 . S
C444 H434 0.950 . S
C444 C445 1.386 . S
C444 C446 1.391 . S
C445 C444 1.386 . S
C445 C449 1.393 . S
C446 H435 0.950 . S
C446 C444 1.391 . S
C446 C447 1.400 . S
C447 C441 1.491 . S
C447 C446 1.400 . S
C447 C448 1.398 . S
C448 H436 0.950 . S
C448 C447 1.398 . S
C448 C449 1.391 . S
C449 H437 0.950 . S
C449 C445 1.393 . S
C449 C448 1.391 . S
H450 C458 0.950 . S
H451 C463 0.950 . S
H452 C460 0.950 . S
H453 C462 0.950 . S
H454 C464 0.950 . S
H455 C466 0.950 . S
H456 C468 0.950 . S
H457 C469 0.950 . S
C458 H450 0.950 . S
C458 C459 1.386 . S
C458 C460 1.391 . S
C459 C458 1.386 . S
C459 C463 1.393 . S
C460 H452 0.950 . S
C460 C458 1.391 . S
C460 C461 1.400 . S
C461 C460 1.400 . S
C461 C462 1.398 . S
C461 C467 1.491 . S
C462 H453 0.950 . S
C462 C461 1.398 . S
C462 C463 1.391 . S
C463 H451 0.950 . S
C463 C459 1.393 . S
C463 C462 1.391 . S
C464 H454 0.950 . S
C464 C465 1.386 . S
C464 C466 1.391 . S
C465 C464 1.386 . S
C465 C469 1.393 . S
C466 H455 0.950 . S
C466 C464 1.391 . S
C466 C467 1.400 . S
C467 C461 1.491 . S
C467 C466 1.400 . S
C467 C468 1.398 . S
C468 H456 0.950 . S
C468 C467 1.398 . S
C468 C469 1.391 . S
C469 H457 0.950 . S
C469 C465 1.393 . S
C469 C468 1.391 . S
H470 C478 0.950 . S
H471 C483 0.950 . S
H472 C480 0.950 . S
H473 C482 0.950 . S
H474 C484 0.950 . S
H475 C486 0.950 . S
H476 C488 0.950 . S
H477 C489 0.950 . S
C478 H470 0.950 . S
C478 C479 1.386 . S
C478 C480 1.391 . S
C479 C478 1.386 . S
C479 C483 1.393 . S
C480 H472 0.950 . S
C480 C478 1.391 . S
C480 C481 1.400 . S
C481 C480 1.400 . S
C481 C482 1.398 . S
C481 C487 1.491 . S
C482 H473 0.950 . S
C482 C481 1.398 . S
C482 C483 1.391 . S
C483 H471 0.950 . S
C483 C479 1.393 . S
C483 C482 1.391 . S
C484 H474 0.950 . S
C484 C485 1.386 . S
C484 C486 1.391 . S
C485 C484 1.386 . S
C485 C489 1.393 . S
C486 H475 0.950 . S
C486 C484 1.391 . S
C486 C487 1.400 . S
C487 C481 1.491 . S
C487 C486 1.400 . S
C487 C488 1.398 . S
C488 H476 0.950 . S
C488 C487 1.398 . S
C488 C489 1.391 . S
C489 H477 0.950 . S
C489 C485 1.393 . S
C489 C488 1.391 . S
H490 C498 0.950 . S
H491 C503 0.950 . S
H492 C500 0.950 . S
H493 C502 0.950 . S
H494 C504 0.950 . S
H495 C506 0.950 . S
H496 C508 0.950 . S
H497 C509 0.950 . S
C498 H490 0.950 . S
C498 C499 1.386 . S
C498 C500 1.391 . S
C499 C498 1.386 . S
C499 C503 1.393 . S
C500 H492 0.950 . S
C500 C498 1.391 . S
C500 C501 1.400 . S
C501 C500 1.400 . S
C501 C502 1.398 . S
C501 C507 1.491 . S
C502 H493 0.950 . S
C502 C501 1.398 . S
C502 C503 1.391 . S
C503 H491 0.950 . S
C503 C499 1.393 . S
C503 C502 1.391 . S
C504 H494 0.950 . S
C504 C505 1.386 . S
C504 C506 1.391 . S
C505 C504 1.386 . S
C505 C509 1.393 . S
C506 H495 0.950 . S
C506 C504 1.391 . S
C506 C507 1.400 . S
C507 C501 1.491 . S
C507 C506 1.400 . S
C507 C508 1.398 . S
C508 H496 0.950 . S
C508 C507 1.398 . S
C508 C509 1.391 . S
C509 H497 0.950 . S
C509 C505 1.393 . S
C509 C508 1.391 . S
H510 C518 0.950 . S
H511 C523 0.950 . S
H512 C520 0.950 . S
H513 C522 0.950 . S
H514 C524 0.950 . S
H515 C526 0.950 . S
H516 C528 0.950 . S
H517 C529 0.950 . S
C518 H510 0.950 . S
C518 C519 1.386 . S
C518 C520 1.391 . S
C519 C518 1.386 . S
C519 C523 1.393 . S
C520 H512 0.950 . S
C520 C518 1.391 . S
C520 C521 1.400 . S
C521 C520 1.400 . S
C521 C522 1.398 . S
C521 C527 1.491 . S
C522 H513 0.950 . S
C522 C521 1.398 . S
C522 C523 1.391 . S
C523 H511 0.950 . S
C523 C519 1.393 . S
C523 C522 1.391 . S
C524 H514 0.950 . S
C524 C525 1.386 . S
C524 C526 1.391 . S
C525 C524 1.386 . S
C525 C529 1.393 1_556 S
C526 H515 0.950 . S
C526 C524 1.391 . S
C526 C527 1.400 . S
C527 C521 1.491 . S
C527 C526 1.400 . S
C527 C528 1.398 . S
C528 H516 0.950 . S
C528 C527 1.398 . S
C528 C529 1.391 1_556 S
C529 H517 0.950 . S
C529 C525 1.393 1_554 S
C529 C528 1.391 1_554 S
H530 C538 0.950 . S
H531 C543 0.950 . S
H532 C540 0.950 . S
H533 C542 0.950 . S
H534 C544 0.950 . S
H535 C546 0.950 . S
H536 C548 0.950 . S
H537 C549 0.950 . S
C538 H530 0.950 . S
C538 C539 1.386 . S
C538 C540 1.391 . S
C539 C538 1.386 . S
C539 C543 1.393 . S
C540 H532 0.950 . S
C540 C538 1.391 . S
C540 C541 1.400 . S
C541 C540 1.400 . S
C541 C542 1.398 . S
C541 C547 1.491 . S
C542 H533 0.950 . S
C542 C541 1.398 . S
C542 C543 1.391 . S
C543 H531 0.950 . S
C543 C539 1.393 . S
C543 C542 1.391 . S
C544 H534 0.950 . S
C544 C545 1.386 . S
C544 C546 1.391 . S
C545 C544 1.386 . S
C545 C549 1.393 . S
C546 H535 0.950 . S
C546 C544 1.391 . S
C546 C547 1.400 . S
C547 C541 1.491 . S
C547 C546 1.400 . S
C547 C548 1.398 . S
C548 H536 0.950 . S
C548 C547 1.398 . S
C548 C549 1.391 . S
C549 H537 0.950 . S
C549 C545 1.393 . S
C549 C548 1.391 . S
H550 C558 0.950 . S
H551 C563 0.950 . S
H552 C560 0.950 . S
H553 C562 0.950 . S
H554 C564 0.950 . S
H555 C566 0.950 . S
H556 C568 0.950 . S
H557 C569 0.950 . S
C558 H550 0.950 . S
C558 C559 1.386 . S
C558 C560 1.391 . S
C559 C558 1.386 . S
C559 C563 1.393 . S
C560 H552 0.950 . S
C560 C558 1.391 . S
C560 C561 1.400 . S
C561 C560 1.400 . S
C561 C562 1.398 . S
C561 C567 1.491 . S
C562 H553 0.950 . S
C562 C561 1.398 . S
C562 C563 1.391 . S
C563 H551 0.950 . S
C563 C559 1.393 . S
C563 C562 1.391 . S
C564 H554 0.950 . S
C564 C565 1.386 . S
C564 C566 1.391 . S
C565 C564 1.386 . S
C565 C569 1.393 . S
C566 H555 0.950 . S
C566 C564 1.391 . S
C566 C567 1.400 . S
C567 C561 1.491 . S
C567 C566 1.400 . S
C567 C568 1.398 . S
C568 H556 0.950 . S
C568 C567 1.398 . S
C568 C569 1.391 . S
C569 H557 0.950 . S
C569 C565 1.393 . S
C569 C568 1.391 . S
H570 C578 0.950 . S
H571 C583 0.950 . S
H572 C580 0.950 . S
H573 C582 0.950 . S
H574 C584 0.950 . S
H575 C586 0.950 . S
H576 C588 0.950 . S
H577 C589 0.950 . S
C578 H570 0.950 . S
C578 C579 1.386 . S
C578 C580 1.391 . S
C579 C578 1.386 . S
C579 C583 1.393 . S
C580 H572 0.950 . S
C580 C578 1.391 . S
C580 C581 1.400 . S
C581 C580 1.400 . S
C581 C582 1.398 . S
C581 C587 1.491 . S
C582 H573 0.950 . S
C582 C581 1.398 . S
C582 C583 1.391 . S
C583 H571 0.950 . S
C583 C579 1.393 . S
C583 C582 1.391 . S
C584 H574 0.950 . S
C584 C585 1.386 . S
C584 C586 1.391 . S
C585 C584 1.386 . S
C585 C589 1.393 . S
C586 H575 0.950 . S
C586 C584 1.391 . S
C586 C587 1.400 . S
C587 C581 1.491 . S
C587 C586 1.400 . S
C587 C588 1.398 . S
C588 H576 0.950 . S
C588 C587 1.398 . S
C588 C589 1.391 . S
C589 H577 0.950 . S
C589 C585 1.393 . S
C589 C588 1.391 . S
H590 C598 0.950 . S
H591 C603 0.950 . S
H592 C600 0.950 . S
H593 C602 0.950 . S
H594 C604 0.950 . S
H595 C606 0.950 . S
H596 C608 0.950 . S
H597 C609 0.950 . S
C598 H590 0.950 . S
C598 C599 1.386 . S
C598 C600 1.391 . S
C599 C598 1.386 . S
C599 C603 1.393 . S
C600 H592 0.950 . S
C600 C598 1.391 . S
C600 C601 1.400 . S
C601 C600 1.400 . S
C601 C602 1.398 . S
C601 C607 1.491 . S
C602 H593 0.950 . S
C602 C601 1.398 . S
C602 C603 1.391 . S
C603 H591 0.950 . S
C603 C599 1.393 . S
C603 C602 1.391 . S
C604 H594 0.950 . S
C604 C605 1.386 . S
C604 C606 1.391 . S
C605 C604 1.386 . S
C605 C609 1.393 . S
C606 H595 0.950 . S
C606 C604 1.391 . S
C606 C607 1.400 . S
C607 C601 1.491 . S
C607 C606 1.400 . S
C607 C608 1.398 . S
C608 H596 0.950 . S
C608 C607 1.398 . S
C608 C609 1.391 . S
C609 H597 0.950 . S
C609 C605 1.393 . S
C609 C608 1.391 . S
H610 C618 0.950 . S
H611 C623 0.950 . S
H612 C620 0.950 . S
H613 C622 0.950 . S
H614 C624 0.950 . S
H615 C626 0.950 . S
H616 C628 0.950 . S
H617 C629 0.950 . S
C618 H610 0.950 . S
C618 C619 1.386 . S
C618 C620 1.391 . S
C619 C618 1.386 . S
C619 C623 1.393 . S
C620 H612 0.950 . S
C620 C618 1.391 . S
C620 C621 1.400 . S
C621 C620 1.400 . S
C621 C622 1.398 . S
C621 C627 1.491 . S
C622 H613 0.950 . S
C622 C621 1.398 . S
C622 C623 1.391 . S
C623 H611 0.950 . S
C623 C619 1.393 . S
C623 C622 1.391 . S
C624 H614 0.950 . S
C624 C625 1.386 . S
C624 C626 1.391 . S
C625 C624 1.386 . S
C625 C629 1.393 . S
C626 H615 0.950 . S
C626 C624 1.391 . S
C626 C627 1.400 . S
C627 C621 1.491 . S
C627 C626 1.400 . S
C627 C628 1.398 . S
C628 H616 0.950 . S
C628 C627 1.398 . S
C628 C629 1.391 . S
C629 H617 0.950 . S
C629 C625 1.393 . S
C629 C628 1.391 . S
H630 C638 0.950 . S
H631 C643 0.950 . S
H632 C640 0.950 . S
H633 C642 0.950 . S
H634 C644 0.950 . S
H635 C646 0.950 . S
H636 C648 0.950 . S
H637 C649 0.950 . S
C638 H630 0.950 . S
C638 C639 1.386 . S
C638 C640 1.391 . S
C639 C638 1.386 . S
C639 C643 1.393 . S
C640 H632 0.950 . S
C640 C638 1.391 . S
C640 C641 1.400 . S
C641 C640 1.400 . S
C641 C642 1.398 . S
C641 C647 1.491 . S
C642 H633 0.950 . S
C642 C641 1.398 . S
C642 C643 1.391 . S
C643 H631 0.950 . S
C643 C639 1.393 . S
C643 C642 1.391 . S
C644 H634 0.950 . S
C644 C645 1.386 . S
C644 C646 1.391 . S
C645 C644 1.386 . S
C645 C649 1.393 . S
C646 H635 0.950 . S
C646 C644 1.391 . S
C646 C647 1.400 . S
C647 C641 1.491 . S
C647 C646 1.400 . S
C647 C648 1.398 . S
C648 H636 0.950 . S
C648 C647 1.398 . S
C648 C649 1.391 . S
C649 H637 0.950 . S
C649 C645 1.393 . S
C649 C648 1.391 . S
H650 C658 0.950 . S
H651 C663 0.950 . S
H652 C660 0.950 . S
H653 C662 0.950 . S
H654 C664 0.950 . S
H655 C666 0.950 . S
H656 C668 0.950 . S
H657 C669 0.950 . S
C658 H650 0.950 . S
C658 C659 1.386 . S
C658 C660 1.391 . S
C659 C658 1.386 . S
C659 C663 1.393 . S
C660 H652 0.950 . S
C660 C658 1.391 . S
C660 C661 1.400 . S
C661 C660 1.400 . S
C661 C662 1.398 . S
C661 C667 1.491 . S
C662 H653 0.950 . S
C662 C661 1.398 . S
C662 C663 1.391 . S
C663 H651 0.950 . S
C663 C659 1.393 . S
C663 C662 1.391 . S
C664 H654 0.950 . S
C664 C665 1.386 . S
C664 C666 1.391 1_556 S
C665 C664 1.386 . S
C665 C669 1.393 . S
C666 H655 0.950 . S
C666 C664 1.391 1_554 S
C666 C667 1.400 . S
C667 C661 1.491 . S
C667 C666 1.400 . S
C667 C668 1.398 1_554 S
C668 H656 0.950 . S
C668 C667 1.398 1_556 S
C668 C669 1.391 . S
C669 H657 0.950 . S
C669 C665 1.393 . S
C669 C668 1.391 . S
H670 C678 0.950 . S
H671 C683 0.950 . S
H672 C680 0.950 . S
H673 C682 0.950 . S
H674 C684 0.950 . S
H675 C686 0.950 . S
H676 C688 0.950 . S
H677 C689 0.950 . S
C678 H670 0.950 . S
C678 C679 1.386 . S
C678 C680 1.391 . S
C679 C678 1.386 . S
C679 C683 1.393 . S
C680 H672 0.950 . S
C680 C678 1.391 . S
C680 C681 1.400 . S
C681 C680 1.400 . S
C681 C682 1.398 . S
C681 C687 1.491 . S
C682 H673 0.950 . S
C682 C681 1.398 . S
C682 C683 1.391 . S
C683 H671 0.950 . S
C683 C679 1.393 . S
C683 C682 1.391 . S
C684 H674 0.950 . S
C684 C685 1.386 . S
C684 C686 1.391 . S
C685 C684 1.386 . S
C685 C689 1.393 . S
C686 H675 0.950 . S
C686 C684 1.391 . S
C686 C687 1.400 . S
C687 C681 1.491 . S
C687 C686 1.400 . S
C687 C688 1.398 . S
C688 H676 0.950 . S
C688 C687 1.398 . S
C688 C689 1.391 . S
C689 H677 0.950 . S
C689 C685 1.393 . S
C689 C688 1.391 . S
C225 C201 1.283 . S
C219 C19 1.425 . S
C239 C40 1.451 . S
C245 C131 1.320 . S
C259 C51 1.409 . S
C265 C151 1.520 . S
C279 C72 1.369 . S
C285 C165 1.455 . S
C305 C173 1.256 . S
C299 C103 1.394 . S
C319 C114 1.387 . S
C325 C187 1.260 . S
C339 C30 1.446 . S
C345 C145 1.335 . S
C359 C61 1.388 . S
C365 C159 1.238 . S
C379 C82 1.348 . S
C385 C179 1.447 . S
C405 C193 1.479 . S
C399 C93 1.378 1_554 S
C425 C207 1.476 . S
C419 C124 1.405 . S
C445 C137 1.502 . S
C439 C9 1.406 . S
C459 C17 1.391 . S
C465 C144 1.452 . S
C479 C38 1.410 . S
C485 C158 1.467 . S
C505 C180 1.480 . S
C499 C54 1.383 . S
C519 C75 1.412 . S
C525 C194 1.491 1_556 S
C545 C208 1.455 . S
C539 C101 1.373 . S
C565 C138 1.448 . S
C559 C117 1.336 . S
C585 C200 1.438 . S
C579 C33 1.374 . S
C599 C59 1.420 . S
C605 C130 1.468 . S
C625 C152 1.479 . S
C619 C80 1.393 . S
C639 C96 1.376 . S
C645 C166 1.484 . S
C659 C122 1.442 . S
C665 C172 1.496 . S
C679 C12 1.438 . S
C685 C186 1.492 . S
