# Generated by pormake.
# Topology zzz, (3,6)-cn, num edge types: 1
# Building blocks:
#     Node 0, Type 0, BuildingBlock: QEWDON_clean_linker_0, # of connection points: 3
#     Node 1, Type 0, BuildingBlock: QEWDON_clean_linker_0, # of connection points: 3
#     Node 2, Type 0, BuildingBlock: QEWDON_clean_linker_0, # of connection points: 3
#     Node 3, Type 0, BuildingBlock: QEWDON_clean_linker_0, # of connection points: 3
#     Node 4, Type 0, BuildingBlock: QEWDON_clean_linker_0, # of connection points: 3
#     Node 5, Type 0, BuildingBlock: QEWDON_clean_linker_0, # of connection points: 3
#     Node 6, Type 0, BuildingBlock: QEWDON_clean_linker_0, # of connection points: 3
#     Node 7, Type 0, BuildingBlock: QEWDON_clean_linker_0, # of connection points: 3
#     Node 8, Type 1, BuildingBlock: VOLQOD_clean_sbu_1, # of connection points: 6
#     Node 9, Type 1, BuildingBlock: VOLQOD_clean_sbu_1, # of connection points: 6
#     Node 10, Type 1, BuildingBlock: VOLQOD_clean_sbu_1, # of connection points: 6
#     Node 11, Type 1, BuildingBlock: VOLQOD_clean_sbu_1, # of connection points: 6
#     Edge 12, Type (0, 1), BuildingBlock: MIFKUJ_clean_linker_0, # of connection points: 2
#     Edge 13, Type (0, 1), BuildingBlock: MIFKUJ_clean_linker_0, # of connection points: 2
#     Edge 14, Type (0, 1), BuildingBlock: MIFKUJ_clean_linker_0, # of connection points: 2
#     Edge 15, Type (0, 1), BuildingBlock: MIFKUJ_clean_linker_0, # of connection points: 2
#     Edge 16, Type (0, 1), BuildingBlock: MIFKUJ_clean_linker_0, # of connection points: 2
#     Edge 17, Type (0, 1), BuildingBlock: MIFKUJ_clean_linker_0, # of connection points: 2
#     Edge 18, Type (0, 1), BuildingBlock: MIFKUJ_clean_linker_0, # of connection points: 2
#     Edge 19, Type (0, 1), BuildingBlock: MIFKUJ_clean_linker_0, # of connection points: 2
#     Edge 20, Type (0, 1), BuildingBlock: MIFKUJ_clean_linker_0, # of connection points: 2
#     Edge 21, Type (0, 1), BuildingBlock: MIFKUJ_clean_linker_0, # of connection points: 2
#     Edge 22, Type (0, 1), BuildingBlock: MIFKUJ_clean_linker_0, # of connection points: 2
#     Edge 23, Type (0, 1), BuildingBlock: MIFKUJ_clean_linker_0, # of connection points: 2
#     Edge 24, Type (0, 1), BuildingBlock: MIFKUJ_clean_linker_0, # of connection points: 2
#     Edge 25, Type (0, 1), BuildingBlock: MIFKUJ_clean_linker_0, # of connection points: 2
#     Edge 26, Type (0, 1), BuildingBlock: MIFKUJ_clean_linker_0, # of connection points: 2
#     Edge 27, Type (0, 1), BuildingBlock: MIFKUJ_clean_linker_0, # of connection points: 2
#     Edge 28, Type (0, 1), BuildingBlock: MIFKUJ_clean_linker_0, # of connection points: 2
#     Edge 29, Type (0, 1), BuildingBlock: MIFKUJ_clean_linker_0, # of connection points: 2
#     Edge 30, Type (0, 1), BuildingBlock: MIFKUJ_clean_linker_0, # of connection points: 2
#     Edge 31, Type (0, 1), BuildingBlock: MIFKUJ_clean_linker_0, # of connection points: 2
#     Edge 32, Type (0, 1), BuildingBlock: MIFKUJ_clean_linker_0, # of connection points: 2
#     Edge 33, Type (0, 1), BuildingBlock: MIFKUJ_clean_linker_0, # of connection points: 2
#     Edge 34, Type (0, 1), BuildingBlock: MIFKUJ_clean_linker_0, # of connection points: 2
#     Edge 35, Type (0, 1), BuildingBlock: MIFKUJ_clean_linker_0, # of connection points: 2
# Relax obj value: 0.154
# Max RMSD: 0.240
# Mean RMSD: 0.103
data_MOF--net-zzz--node1-VOLQOD_clean_sbu_1--node2-QEWDON_clean_linker_0--edge1-MIFKUJ_clean_linker_0
_symmetry_space_group_name_H-M    P1
_symmetry_Int_Tables_number       1
_symmetry_cell_setting            triclinic
loop_
_symmetry_equiv_pos_as_xyz
'x, y, z'
_cell_length_a     70.103931
_cell_length_b     69.778013
_cell_length_c     21.86518
_cell_angle_alpha  90.167126
_cell_angle_beta   89.894312
_cell_angle_gamma 90.62977
loop_
_atom_site_label
_atom_site_type_symbol
_atom_site_fract_x
_atom_site_fract_y
_atom_site_fract_z
_atom_type_partial_charge
H0 H 0.77555 0.52155 0.05082 0.0
C1 C 0.7825 0.52103 0.095 0.0
C2 C 0.79941 0.51064 0.10102 0.0
C3 C 0.77506 0.53133 0.14516 0.0
H4 H 0.82248 0.50329 0.16105 0.0
C5 C 0.80896 0.51059 0.15715 0.0
C6 C 0.8024 0.52142 0.20647 0.0
C7 C 0.78536 0.53161 0.20076 0.0
C8 C 0.75721 0.54262 0.13855 0.0
H9 H 0.78029 0.53978 0.23961 0.0
C10 C 0.74181 0.53575 0.10273 0.0
C11 C 0.72507 0.54659 0.09615 0.0
C12 C 0.75557 0.56054 0.16763 0.0
H13 H 0.76722 0.56656 0.19414 0.0
C14 C 0.73895 0.57117 0.1621 0.0
H15 H 0.74288 0.52203 0.07973 0.0
C16 C 0.7238 0.56427 0.12692 0.0
H17 H 0.71102 0.57279 0.12418 0.0
H18 H 0.73784 0.58487 0.18506 0.0
H19 H 0.00531 0.7683 0.05395 0.0
C20 C 0.00529 0.77535 0.09818 0.0
C21 C 0.01582 0.79243 0.10586 0.0
C22 C 0.99406 0.76793 0.14638 0.0
H23 H 0.02231 0.81587 0.16682 0.0
C24 C 0.01511 0.8021 0.16203 0.0
C25 C 0.00358 0.79539 0.20979 0.0
C26 C 0.9933 0.77818 0.20216 0.0
C27 C 0.98219 0.75025 0.13735 0.0
H28 H 0.98454 0.773 0.23961 0.0
C29 C 0.98887 0.7347 0.10204 0.0
C30 C 0.97761 0.71801 0.0945 0.0
C31 C 0.96389 0.74889 0.16382 0.0
H32 H 0.95799 0.76069 0.1896 0.0
C33 C 0.95276 0.73236 0.1565 0.0
H34 H 0.00295 0.73534 0.08163 0.0
C35 C 0.95956 0.71699 0.12235 0.0
H36 H 0.95055 0.7044 0.11678 0.0
H37 H 0.93872 0.73152 0.17709 0.0
H38 H 0.73046 0.00564 0.02657 0.0
C39 C 0.72196 0.00298 0.06718 0.0
C40 C 0.70495 0.01316 0.07582 0.0
C41 C 0.72734 0.98866 0.10914 0.0
H42 H 0.67956 0.01576 0.13073 0.0
C43 C 0.69324 0.00875 0.12581 0.0
C44 C 0.69796 0.99421 0.16649 0.0
C45 C 0.71527 0.98464 0.15949 0.0
C46 C 0.74445 0.97661 0.09761 0.0
H47 H 0.71882 0.97346 0.1917 0.0
C48 C 0.76153 0.98451 0.07361 0.0
C49 C 0.77756 0.97285 0.06351 0.0
C50 C 0.74361 0.95682 0.10994 0.0
H51 H 0.73061 0.95008 0.12643 0.0
C52 C 0.75942 0.94529 0.10001 0.0
H53 H 0.76251 0.99972 0.06404 0.0
C54 C 0.77628 0.95321 0.07716 0.0
H55 H 0.78825 0.94384 0.06897 0.0
H56 H 0.75854 0.9301 0.10958 0.0
H57 H 0.50763 0.73529 0.05274 0.0
C58 C 0.50667 0.72729 0.09505 0.0
C59 C 0.49644 0.70989 0.09593 0.0
C60 C 0.51626 0.73386 0.14789 0.0
H61 H 0.48926 0.6849 0.14837 0.0
C62 C 0.4961 0.6989 0.14937 0.0
C63 C 0.50603 0.70475 0.20176 0.0
C64 C 0.51569 0.72249 0.20121 0.0
C65 C 0.52779 0.75197 0.14666 0.0
H66 H 0.52297 0.72725 0.24226 0.0
C67 C 0.5217 0.76805 0.11322 0.0
C68 C 0.53254 0.78516 0.11324 0.0
C69 C 0.54512 0.75324 0.17899 0.0
H70 H 0.55061 0.74106 0.20362 0.0
C71 C 0.55582 0.7702 0.17926 0.0
H72 H 0.50835 0.76749 0.08835 0.0
C73 C 0.54956 0.7861 0.1469 0.0
H74 H 0.55822 0.79906 0.14722 0.0
H75 H 0.56911 0.77098 0.20435 0.0
H76 H 0.24259 0.53354 0.30033 0.0
C77 C 0.23347 0.52889 0.26307 0.0
C78 C 0.21382 0.52706 0.27316 0.0
C79 C 0.24116 0.52512 0.20458 0.0
H80 H 0.18657 0.52046 0.23372 0.0
C81 C 0.20178 0.5218 0.22507 0.0
C82 C 0.20888 0.51858 0.16618 0.0
C83 C 0.22868 0.51982 0.15634 0.0
C84 C 0.26204 0.52757 0.19331 0.0
H85 H 0.23427 0.51699 0.11102 0.0
C86 C 0.27556 0.52221 0.23776 0.0
C87 C 0.29527 0.52491 0.22727 0.0
C88 C 0.26857 0.53571 0.13822 0.0
H89 H 0.25864 0.54041 0.10365 0.0
C90 C 0.28804 0.53834 0.12755 0.0
H91 H 0.27081 0.51561 0.27998 0.0
C92 C 0.3013 0.53302 0.1716 0.0
H93 H 0.3163 0.53558 0.16245 0.0
H94 H 0.29286 0.54473 0.08512 0.0
H95 H 0.01042 0.23268 0.28657 0.0
C96 C 0.01659 0.22293 0.25361 0.0
C97 C 0.01745 0.20345 0.26836 0.0
C98 C 0.02334 0.22959 0.19639 0.0
H99 H 0.02427 0.17525 0.23652 0.0
C100 C 0.02418 0.19039 0.22524 0.0
C101 C 0.02986 0.19634 0.16693 0.0
C102 C 0.03014 0.21601 0.15338 0.0
C103 C 0.02257 0.25049 0.18098 0.0
H104 H 0.03521 0.22052 0.10886 0.0
C105 C 0.02407 0.26469 0.22707 0.0
C106 C 0.02296 0.28428 0.21263 0.0
C107 C 0.01995 0.25647 0.12005 0.0
H108 H 0.01803 0.24621 0.08335 0.0
C109 C 0.01931 0.27591 0.10551 0.0
H110 H 0.02636 0.26067 0.27426 0.0
C111 C 0.02084 0.28976 0.15136 0.0
H112 H 0.01986 0.30475 0.13913 0.0
H113 H 0.0173 0.28026 0.0585 0.0
H114 H 0.26877 0.00113 0.27652 0.0
C115 C 0.27692 0.00926 0.24309 0.0
C116 C 0.29596 0.01415 0.25568 0.0
C117 C 0.26873 0.01397 0.18637 0.0
H118 H 0.32179 0.02684 0.22058 0.0
C119 C 0.3068 0.02396 0.21178 0.0
C120 C 0.29923 0.02812 0.15422 0.0
C121 C 0.28014 0.02322 0.14173 0.0
C122 C 0.24877 0.00792 0.17235 0.0
H123 H 0.27432 0.02637 0.09704 0.0
C124 C 0.23418 0.00961 0.21656 0.0
C125 C 0.21538 0.0034 0.2037 0.0
C126 C 0.24431 0.99991 0.11499 0.0
H127 H 0.25523 0.99806 0.08046 0.0
C128 C 0.22578 0.99371 0.10204 0.0
H129 H 0.23739 0.01611 0.26047 0.0
C130 C 0.21143 0.99538 0.14592 0.0
H131 H 0.19727 0.99008 0.1348 0.0
H132 H 0.22256 0.9874 0.05792 0.0
H133 H 0.5055 0.26528 0.26513 0.0
C134 C 0.50263 0.27305 0.2234 0.0
C135 C 0.49763 0.29246 0.22721 0.0
C136 C 0.50466 0.26396 0.16595 0.0
H137 H 0.49206 0.31807 0.17546 0.0
C138 C 0.49491 0.30282 0.1733 0.0
C139 C 0.49715 0.29424 0.11619 0.0
C140 C 0.50175 0.2748 0.11223 0.0
C141 C 0.51091 0.24359 0.16212 0.0
H142 H 0.50332 0.26833 0.06744 0.0
C143 C 0.50509 0.22999 0.2063 0.0
C144 C 0.51148 0.21093 0.20338 0.0
C145 C 0.52325 0.23772 0.11492 0.0
H146 H 0.52852 0.24779 0.08115 0.0
C147 C 0.52941 0.21882 0.11145 0.0
H148 H 0.49536 0.23408 0.24248 0.0
C149 C 0.52362 0.20551 0.15526 0.0
H150 H 0.52898 0.19104 0.15219 0.0
H151 H 0.53896 0.21453 0.07506 0.0
O152 O 0.05189 0.99855 0.65818 0.0
Zn153 Zn 0.03126 0.99686 0.72346 0.0
O154 O 0.00556 0.99923 0.68687 0.0
Zn155 Zn 0.99234 0.02091 0.72254 0.0
Zn156 Zn 0.00783 0.00225 0.59778 0.0
Zn157 Zn 0.98981 0.97681 0.7044 0.0
O158 O 0.9672 0.01396 0.762 0.0
O159 O 0.96495 0.98263 0.74739 0.0
O160 O 0.03647 0.01877 0.78349 0.0
O161 O 0.00869 0.03388 0.78515 0.0
O162 O 0.98697 0.04029 0.65817 0.0
O163 O 0.99587 0.02718 0.57002 0.0
O164 O 0.99704 0.97891 0.55284 0.0
O165 O 0.03377 0.97096 0.76615 0.0
O166 O 0.98423 0.96194 0.62837 0.0
O167 O 0.00458 0.95871 0.75496 0.0
C168 C 0.05134 0.00165 0.60078 0.0
C169 C 0.95808 0.99821 0.76785 0.0
C170 C 0.98871 0.04104 0.6003 0.0
C171 C 0.02577 0.03206 0.80361 0.0
C172 C 0.98824 0.96399 0.57203 0.0
C173 C 0.02159 0.95747 0.77453 0.0
O174 O 0.03552 0.0037 0.57314 0.0
O175 O 0.49889 0.04991 0.66045 0.0
Zn176 Zn 0.50128 0.02835 0.72263 0.0
O177 O 0.50101 0.0031 0.67999 0.0
Zn178 Zn 0.4798 0.98733 0.7088 0.0
Zn179 Zn 0.49899 0.00642 0.59109 0.0
Zn180 Zn 0.52416 0.98916 0.6973 0.0
O181 O 0.48803 0.96267 0.74808 0.0
O182 O 0.5195 0.96382 0.73921 0.0
O183 O 0.47869 0.03032 0.78238 0.0
O184 O 0.46493 0.00171 0.77098 0.0
O185 O 0.46153 0.98125 0.64089 0.0
O186 O 0.47461 0.99451 0.55854 0.0
O187 O 0.52206 0.99602 0.54554 0.0
O188 O 0.52671 0.03269 0.76753 0.0
O189 O 0.53944 0.98469 0.62168 0.0
O190 O 0.54112 0.00508 0.74934 0.0
C191 C 0.49768 0.05 0.60221 0.0
C192 C 0.50432 0.95529 0.75674 0.0
C193 C 0.46109 0.98514 0.58409 0.0
C194 C 0.46554 0.01821 0.79581 0.0
C195 C 0.53718 0.98814 0.56514 0.0
C196 C 0.5411 0.02176 0.77286 0.0
O197 O 0.49769 0.03446 0.57151 0.0
O198 O 0.46095 0.50288 0.66201 0.0
Zn199 Zn 0.48388 0.50374 0.71935 0.0
O200 O 0.50812 0.50134 0.67282 0.0
Zn201 Zn 0.52306 0.47972 0.70184 0.0
Zn202 Zn 0.50249 0.49811 0.58588 0.0
Zn203 Zn 0.52401 0.52403 0.68298 0.0
O204 O 0.54856 0.48741 0.73949 0.0
O205 O 0.54884 0.51881 0.72504 0.0
O206 O 0.48072 0.48125 0.77855 0.0
O207 O 0.50796 0.46563 0.76452 0.0
O208 O 0.52681 0.46024 0.63511 0.0
O209 O 0.51194 0.4727 0.55522 0.0
O210 O 0.51285 0.52016 0.53559 0.0
O211 O 0.4828 0.52964 0.76325 0.0
O212 O 0.52912 0.53736 0.60366 0.0
O213 O 0.51012 0.54303 0.73322 0.0
C214 C 0.45953 0.5003 0.60442 0.0
C215 C 0.5567 0.50374 0.74519 0.0
C216 C 0.52113 0.45911 0.57993 0.0
C217 C 0.49181 0.46736 0.79032 0.0
C218 C 0.52323 0.53464 0.54932 0.0
C219 C 0.49438 0.54389 0.76202 0.0
O220 O 0.47427 0.49804 0.57128 0.0
O221 O 0.98148 0.52109 0.58054 0.0
Zn222 Zn 0.00552 0.52137 0.63378 0.0
O223 O 0.00759 0.49696 0.67969 0.0
Zn224 Zn 0.00705 0.50229 0.76755 0.0
Zn225 Zn 0.98667 0.47948 0.6591 0.0
Zn226 Zn 0.03112 0.48382 0.65918 0.0
O227 O 0.03124 0.4936 0.80898 0.0
O228 O 0.04809 0.4811 0.7329 0.0
O229 O 0.00386 0.54422 0.69172 0.0
O230 O 0.00556 0.53058 0.78301 0.0
O231 O 0.98339 0.49102 0.80697 0.0
O232 O 0.96974 0.47466 0.73135 0.0
O233 O 0.99528 0.45424 0.62326 0.0
O234 O 0.02933 0.52586 0.58173 0.0
O235 O 0.02671 0.4579 0.62036 0.0
O236 O 0.04584 0.49938 0.59914 0.0
C237 C 0.96874 0.50812 0.57193 0.0
C238 C 0.04639 0.48577 0.78898 0.0
C239 C 0.96983 0.48053 0.78648 0.0
C240 C 0.00423 0.54547 0.74991 0.0
C241 C 0.01174 0.44799 0.6095 0.0
C242 C 0.04397 0.51549 0.57296 0.0
O243 O 0.9697 0.49194 0.59832 0.0
H244 H 0.17817 0.01338 0.18484 0.0
H245 H 0.15226 0.01423 0.25909 0.0
H246 H 0.19133 0.99892 0.40264 0.0
H247 H 0.21728 0.99713 0.32774 0.0
H248 H 0.1594 0.97864 0.41293 0.0
H249 H 0.17394 0.04514 0.38894 0.0
H250 H 0.18022 0.07518 0.33291 0.0
H251 H 0.12399 0.07251 0.25557 0.0
H252 H 0.11746 0.04231 0.31048 0.0
H253 H 0.0881 0.99666 0.64122 0.0
H254 H 0.11755 0.99835 0.58095 0.0
H255 H 0.08488 0.0108 0.4192 0.0
H256 H 0.0555 0.00935 0.47886 0.0
H257 H 0.11574 0.03395 0.42753 0.0
H258 H 0.1025 0.96606 0.44528 0.0
H259 H 0.09634 0.93598 0.50121 0.0
H260 H 0.15046 0.94163 0.59149 0.0
H261 H 0.15683 0.97191 0.53665 0.0
C262 C 0.18129 0.01007 0.23211 0.0
C263 C 0.19986 0.00511 0.25013 0.0
C264 C 0.16646 0.0108 0.27476 0.0
C265 C 0.16984 0.00691 0.33676 0.0
C266 C 0.18837 0.00208 0.35513 0.0
C267 C 0.20324 0.00123 0.31231 0.0
C268 C 0.15384 0.0073 0.38165 0.0
C269 C 0.15008 0.99089 0.41697 0.0
C270 C 0.14144 0.02314 0.38637 0.0
C271 C 0.14527 0.04138 0.35353 0.0
C272 C 0.16296 0.05089 0.35967 0.0
C273 C 0.16655 0.06796 0.32816 0.0
C274 C 0.15252 0.07573 0.29062 0.0
C275 C 0.13485 0.06647 0.28465 0.0
C276 C 0.13118 0.04939 0.31602 0.0
C277 C 0.08717 0.99979 0.59284 0.0
C278 C 0.06937 0.00282 0.56496 0.0
C279 C 0.10403 0.00068 0.5584 0.0
C280 C 0.10343 0.00455 0.4954 0.0
C281 C 0.08572 0.00781 0.46771 0.0
C282 C 0.0689 0.0069 0.50197 0.0
C283 C 0.12114 0.00519 0.45782 0.0
C284 C 0.12521 0.0218 0.42395 0.0
C285 C 0.13383 0.98957 0.45459 0.0
C286 C 0.13004 0.97135 0.48741 0.0
C287 C 0.11302 0.96097 0.47744 0.0
C288 C 0.1095 0.94387 0.50887 0.0
C289 C 0.12298 0.93693 0.55003 0.0
C290 C 0.14002 0.94705 0.55969 0.0
C291 C 0.1436 0.96417 0.52842 0.0
H292 H 0.12023 0.92369 0.57431 0.0
H293 H 0.15534 0.08894 0.26625 0.0
H294 H 0.50021 0.17367 0.18678 0.0
H295 H 0.49436 0.14941 0.26498 0.0
H296 H 0.50452 0.19159 0.40618 0.0
H297 H 0.51082 0.21593 0.32777 0.0
H298 H 0.52417 0.15931 0.42738 0.0
H299 H 0.45977 0.1742 0.38227 0.0
H300 H 0.43169 0.18019 0.31769 0.0
H301 H 0.43399 0.12266 0.24804 0.0
H302 H 0.46227 0.1164 0.31153 0.0
H303 H 0.50064 0.08671 0.64819 0.0
H304 H 0.49961 0.11683 0.59078 0.0
H305 H 0.49108 0.08506 0.42337 0.0
H306 H 0.49191 0.0551 0.47994 0.0
H307 H 0.46787 0.11563 0.42892 0.0
H308 H 0.53488 0.1028 0.46264 0.0
H309 H 0.56326 0.09683 0.52602 0.0
H310 H 0.55579 0.15086 0.61698 0.0
H311 H 0.5272 0.15703 0.55461 0.0
C312 C 0.50111 0.17782 0.23447 0.0
C313 C 0.50605 0.19671 0.25107 0.0
C314 C 0.4976 0.16397 0.27918 0.0
C315 C 0.49884 0.16869 0.34153 0.0
C316 C 0.50341 0.18763 0.35836 0.0
C317 C 0.50687 0.20155 0.31354 0.0
C318 C 0.49647 0.1535 0.38855 0.0
C319 C 0.51166 0.15003 0.42867 0.0
C320 C 0.48028 0.1412 0.3897 0.0
C321 C 0.46324 0.14487 0.35143 0.0
C322 C 0.45439 0.16287 0.35285 0.0
C323 C 0.43841 0.1663 0.31648 0.0
C324 C 0.43108 0.15183 0.27871 0.0
C325 C 0.43969 0.13387 0.27731 0.0
C326 C 0.45568 0.13036 0.31355 0.0
C327 C 0.49845 0.08615 0.5992 0.0
C328 C 0.49646 0.06844 0.56872 0.0
C329 C 0.49791 0.10338 0.56644 0.0
C330 C 0.4954 0.10319 0.50268 0.0
C331 C 0.493 0.08557 0.47251 0.0
C332 C 0.49358 0.06841 0.50503 0.0
C333 C 0.49576 0.12119 0.46645 0.0
C334 C 0.4802 0.12516 0.42836 0.0
C335 C 0.5116 0.13395 0.46715 0.0
C336 C 0.52878 0.13026 0.50455 0.0
C337 C 0.5392 0.11333 0.49652 0.0
C338 C 0.55534 0.10992 0.53218 0.0
C339 C 0.56129 0.12343 0.57565 0.0
C340 C 0.55114 0.14039 0.5834 0.0
C341 C 0.53497 0.14385 0.5479 0.0
H342 H 0.57379 0.12077 0.6032 0.0
H343 H 0.41871 0.15452 0.25059 0.0
H344 H 0.32938 0.5071 0.20922 0.0
H345 H 0.35417 0.50078 0.28436 0.0
H346 H 0.31858 0.52395 0.42708 0.0
H347 H 0.29383 0.5309 0.35142 0.0
H348 H 0.35418 0.53809 0.435 0.0
H349 H 0.32657 0.4757 0.41799 0.0
H350 H 0.31408 0.44689 0.36552 0.0
H351 H 0.3692 0.43697 0.28629 0.0
H352 H 0.38197 0.46589 0.33758 0.0
H353 H 0.42487 0.51036 0.6539 0.0
H354 H 0.39411 0.51224 0.60104 0.0
H355 H 0.42056 0.49272 0.43424 0.0
H356 H 0.45114 0.49067 0.48636 0.0
H357 H 0.38624 0.47531 0.45225 0.0
H358 H 0.41227 0.53989 0.45803 0.0
H359 H 0.42488 0.56893 0.50905 0.0
H360 H 0.3725 0.57455 0.60928 0.0
H361 H 0.35967 0.54537 0.55937 0.0
C362 C 0.32679 0.51086 0.25658 0.0
C363 C 0.30964 0.51959 0.27422 0.0
C364 C 0.34092 0.50705 0.29968 0.0
C365 C 0.33819 0.5117 0.3616 0.0
C366 C 0.32098 0.52017 0.37962 0.0
C367 C 0.30679 0.52399 0.33641 0.0
C368 C 0.35377 0.5085 0.40649 0.0
C369 C 0.36091 0.52425 0.4398 0.0
C370 C 0.36279 0.49053 0.41215 0.0
C371 C 0.35519 0.47305 0.38137 0.0
C372 C 0.336 0.46746 0.38904 0.0
C373 C 0.32888 0.45109 0.35956 0.0
C374 C 0.34083 0.44012 0.32252 0.0
C375 C 0.35995 0.44548 0.31499 0.0
C376 C 0.36715 0.46185 0.34434 0.0
C377 C 0.4241 0.50632 0.6061 0.0
C378 C 0.44053 0.50047 0.57436 0.0
C379 C 0.40652 0.50748 0.5759 0.0
C380 C 0.40506 0.50277 0.51351 0.0
C381 C 0.42132 0.49641 0.48235 0.0
C382 C 0.43884 0.49534 0.51228 0.0
C383 C 0.38686 0.50498 0.47953 0.0
C384 C 0.37926 0.48905 0.44825 0.0
C385 C 0.37743 0.52278 0.47572 0.0
C386 C 0.38511 0.54033 0.50556 0.0
C387 C 0.40351 0.54723 0.49133 0.0
C388 C 0.41068 0.56373 0.51997 0.0
C389 C 0.39953 0.57354 0.56254 0.0
C390 C 0.38114 0.56691 0.5764 0.0
C391 C 0.37391 0.5504 0.54794 0.0
H392 H 0.4051 0.58631 0.58466 0.0
H393 H 0.33529 0.42745 0.29972 0.0
H394 H 0.04531 0.31652 0.21926 0.0
H395 H 0.04388 0.3422 0.296 0.0
H396 H 0.99917 0.31152 0.39114 0.0
H397 H 1.0008 0.2856 0.31509 0.0
H398 H 0.99175 0.35189 0.36115 0.0
H399 H 0.03857 0.31209 0.4576 0.0
H400 H 0.06826 0.29351 0.46131 0.0
H401 H 0.10097 0.34423 0.41981 0.0
H402 H 0.07143 0.36306 0.41493 0.0
H403 H 0.98581 0.41834 0.60523 0.0
H404 H 0.98816 0.3885 0.54688 0.0
H405 H 0.04344 0.40632 0.4793 0.0
H406 H 0.04157 0.43567 0.53986 0.0
H407 H 0.04479 0.37054 0.49972 0.0
H408 H 1.0002 0.41005 0.3937 0.0
H409 H 0.97155 0.42987 0.3815 0.0
H410 H 0.9359 0.38182 0.42994 0.0
H411 H 0.96438 0.36177 0.44318 0.0
C412 C 0.03533 0.31519 0.25693 0.0
C413 C 0.02319 0.29909 0.26143 0.0
C414 C 0.03455 0.32982 0.3007 0.0
C415 C 0.02144 0.32871 0.34917 0.0
C416 C 0.00941 0.31258 0.35408 0.0
C417 C 0.01042 0.29778 0.31093 0.0
C418 C 0.01979 0.34482 0.39315 0.0
C419 C 0.00318 0.35582 0.39231 0.0
C420 C 0.03498 0.35023 0.43214 0.0
C421 C 0.05277 0.33895 0.43535 0.0
C422 C 0.05208 0.31925 0.44872 0.0
C423 C 0.06888 0.30868 0.45115 0.0
C424 C 0.08648 0.31767 0.44066 0.0
C425 C 0.08732 0.33727 0.42787 0.0
C426 C 0.07055 0.34791 0.42533 0.0
C427 C 0.99852 0.41581 0.57827 0.0
C428 C 0.01346 0.42941 0.57698 0.0
C429 C 0.99981 0.39879 0.54458 0.0
C430 C 0.01581 0.39526 0.50746 0.0
C431 C 0.03093 0.40864 0.50741 0.0
C432 C 0.02983 0.42547 0.54204 0.0
C433 C 0.01672 0.37788 0.46772 0.0
C434 C 0.03323 0.36662 0.46909 0.0
C435 C 0.00157 0.37247 0.42812 0.0
C436 C 0.98443 0.38448 0.4201 0.0
C437 C 0.98626 0.40376 0.40218 0.0
C438 C 0.97005 0.41502 0.39502 0.0
C439 C 0.95192 0.40712 0.40512 0.0
C440 C 0.94996 0.38792 0.42224 0.0
C441 C 0.96612 0.3766 0.42955 0.0
H442 H 0.93939 0.41587 0.39954 0.0
H443 H 0.09948 0.30946 0.44256 0.0
H444 H 0.81386 0.96643 0.10252 0.0
H445 H 0.84366 0.97559 0.05197 0.0
H446 H 0.81204 0.00612 0.91478 0.0
H447 H 0.78203 0.99664 0.96485 0.0
H448 H 0.83755 0.98283 0.86306 0.0
H449 H 0.83903 0.03056 0.0183 0.0
H450 H 0.83708 0.04375 0.12282 0.0
H451 H 0.88492 0.00988 0.1769 0.0
H452 H 0.88699 0.99627 0.07291 0.0
H453 H 0.93904 0.02866 0.8175 0.0
H454 H 0.90763 0.02852 0.86617 0.0
H455 H 0.90284 0.96749 0.83716 0.0
H456 H 0.93413 0.96751 0.78773 0.0
H457 H 0.89413 0.01134 0.96631 0.0
H458 H 0.85687 0.95541 0.80849 0.0
H459 H 0.85828 0.94454 0.70112 0.0
H460 H 0.88057 0.99949 0.6469 0.0
H461 H 0.87905 0.01077 0.75376 0.0
C462 C 0.81326 0.97526 0.06191 0.0
C463 C 0.7956 0.98073 0.03744 0.0
C464 C 0.83031 0.98061 0.03328 0.0
C465 C 0.83012 0.99162 0.97967 0.0
C466 C 0.81253 0.99763 0.95614 0.0
C467 C 0.79541 0.99234 0.98501 0.0
C468 C 0.84822 0.99559 0.94623 0.0
C469 C 0.84988 0.98918 0.88555 0.0
C470 C 0.86425 0.00414 0.97516 0.0
C471 C 0.86307 0.01229 0.03785 0.0
C472 C 0.84904 0.02581 0.05259 0.0
C473 C 0.84793 0.03338 0.11173 0.0
C474 C 0.86084 0.02763 0.1565 0.0
C475 C 0.87492 0.01432 0.14218 0.0
C476 C 0.87608 0.00668 0.08311 0.0
C477 C 0.93132 0.01518 0.82134 0.0
C478 C 0.93912 0.99809 0.79838 0.0
C479 C 0.91336 0.01514 0.84937 0.0
C480 C 0.90277 0.99805 0.85474 0.0
C481 C 0.91061 0.98092 0.83263 0.0
C482 C 0.92856 0.98094 0.80459 0.0
C483 C 0.88357 0.99805 0.88385 0.0
C484 C 0.88174 0.00515 0.9437 0.0
C485 C 0.86728 0.99043 0.85383 0.0
C486 C 0.86799 0.98387 0.78925 0.0
C487 C 0.86199 0.9652 0.77361 0.0
C488 C 0.86282 0.95896 0.71284 0.0
C489 C 0.86956 0.9713 0.66725 0.0
C490 C 0.87542 0.98993 0.68229 0.0
C491 C 0.8746 0.99624 0.74297 0.0
H492 H 0.87021 0.96644 0.62025 0.0
H493 H 0.85996 0.03352 0.20226 0.0
H494 H 0.52922 0.82194 0.15336 0.0
H495 H 0.52166 0.85031 0.09305 0.0
H496 H 0.51569 0.81492 0.93173 0.0
H497 H 0.52256 0.78643 0.99273 0.0
H498 H 0.54002 0.86632 0.00701 0.0
H499 H 0.48673 0.83546 0.82792 0.0
H500 H 0.46133 0.81079 0.82131 0.0
H501 H 0.45201 0.81493 0.01503 0.0
H502 H 0.47716 0.8398 0.02267 0.0
H503 H 0.53506 0.93156 0.7637 0.0
H504 H 0.53775 0.90197 0.82228 0.0
H505 H 0.47967 0.90794 0.88461 0.0
H506 H 0.47666 0.93719 0.8244 0.0
H507 H 0.48594 0.87199 0.86247 0.0
H508 H 0.51847 0.92106 0.97549 0.0
H509 H 0.54146 0.94755 0.99215 0.0
H510 H 0.58784 0.91006 0.94977 0.0
H511 H 0.56509 0.88339 0.93206 0.0
C512 C 0.52606 0.82024 0.10515 0.0
C513 C 0.52643 0.80204 0.07762 0.0
C514 C 0.52179 0.83644 0.07067 0.0
C515 C 0.51801 0.83482 0.00777 0.0
C516 C 0.51817 0.81656 0.98034 0.0
C517 C 0.52213 0.80029 0.01513 0.0
C518 C 0.51488 0.85236 0.97063 0.0
C519 C 0.52816 0.86752 0.97552 0.0
C520 C 0.49927 0.85417 0.9301 0.0
C521 C 0.48397 0.83936 0.9259 0.0
C522 C 0.47921 0.83116 0.86906 0.0
C523 C 0.46486 0.81713 0.86515 0.0
C524 C 0.45511 0.81125 0.91775 0.0
C525 C 0.45963 0.81944 0.97435 0.0
C526 C 0.47395 0.83349 0.97851 0.0
C527 C 0.52282 0.92653 0.7896 0.0
C528 C 0.50569 0.93683 0.78973 0.0
C529 C 0.5244 0.90963 0.82328 0.0
C530 C 0.50903 0.90289 0.85885 0.0
C531 C 0.49174 0.91285 0.85765 0.0
C532 C 0.49006 0.92962 0.8233 0.0
C533 C 0.51116 0.88579 0.89864 0.0
C534 C 0.49777 0.87073 0.89407 0.0
C535 C 0.52632 0.8843 0.94101 0.0
C536 C 0.54006 0.90028 0.9519 0.0
C537 C 0.53356 0.9185 0.96933 0.0
C538 C 0.54655 0.93354 0.97901 0.0
C539 C 0.5661 0.9305 0.97188 0.0
C540 C 0.5727 0.91239 0.9552 0.0
C541 C 0.55976 0.89731 0.94538 0.0
H542 H 0.57613 0.94217 0.97939 0.0
H543 H 0.44401 0.80038 0.91462 0.0
H544 H 0.71061 0.50986 0.08363 0.0
H545 H 0.68291 0.49942 0.02329 0.0
H546 H 0.67499 0.55741 0.9616 0.0
H547 H 0.70281 0.56785 0.02 0.0
H548 H 0.64187 0.54088 0.00688 0.0
H549 H 0.69274 0.5249 0.86674 0.0
H550 H 0.72239 0.50882 0.83581 0.0
H551 H 0.69625 0.45392 0.86967 0.0
H552 H 0.66651 0.46971 0.90166 0.0
H553 H 0.57778 0.53633 0.7643 0.0
H554 H 0.60678 0.54013 0.82433 0.0
H555 H 0.60664 0.47952 0.86209 0.0
H556 H 0.57746 0.47547 0.8013 0.0
H557 H 0.64299 0.49362 0.8369 0.0
H558 H 0.59157 0.5089 0.97002 0.0
H559 H 0.56178 0.52446 0.00219 0.0
H560 H 0.58867 0.57978 0.98519 0.0
H561 H 0.61857 0.56455 0.95199 0.0
C562 C 0.70317 0.52034 0.05644 0.0
C563 C 0.70889 0.53975 0.05722 0.0
C564 C 0.68729 0.51435 0.02217 0.0
C565 C 0.67685 0.52765 0.98812 0.0
C566 C 0.68273 0.54693 0.98797 0.0
C567 C 0.69861 0.55288 0.02171 0.0
C568 C 0.6594 0.52184 0.95402 0.0
C569 C 0.64215 0.53066 0.96939 0.0
C570 C 0.65963 0.50799 0.90659 0.0
C571 C 0.67748 0.49849 0.88732 0.0
C572 C 0.69337 0.50941 0.86816 0.0
C573 C 0.71018 0.50034 0.85031 0.0
C574 C 0.71123 0.48036 0.85097 0.0
C575 C 0.69544 0.4694 0.86931 0.0
C576 C 0.6786 0.4784 0.88727 0.0
C577 C 0.5839 0.52372 0.78495 0.0
C578 C 0.57513 0.5056 0.77827 0.0
C579 C 0.6005 0.52595 0.81949 0.0
C580 C 0.60872 0.51017 0.84854 0.0
C581 C 0.60048 0.49191 0.84028 0.0
C582 C 0.58378 0.48964 0.80562 0.0
C583 C 0.62559 0.51308 0.88875 0.0
C584 C 0.64267 0.50369 0.87478 0.0
C585 C 0.62522 0.52633 0.93792 0.0
C586 C 0.60728 0.53557 0.95803 0.0
C587 C 0.5911 0.52439 0.97267 0.0
C588 C 0.5742 0.53315 0.99117 0.0
C589 C 0.57332 0.5531 0.99561 0.0
C590 C 0.58937 0.56432 0.98168 0.0
C591 C 0.6063 0.55563 0.96308 0.0
H592 H 0.56022 0.55985 0.00996 0.0
H593 H 0.72425 0.47337 0.83711 0.0
H594 H 0.99223 0.71871 0.97837 0.0
H595 H 1.00018 0.69108 0.91351 0.0
H596 H 0.98588 0.65284 0.06168 0.0
H597 H 0.97786 0.68031 0.12631 0.0
H598 H 0.01942 0.64266 0.99884 0.0
H599 H 0.95405 0.66012 0.95546 0.0
H600 H 0.92885 0.68237 0.92382 0.0
H601 H 0.95658 0.69028 0.7503 0.0
H602 H 0.98212 0.66827 0.78133 0.0
H603 H 0.99961 0.55274 0.87167 0.0
H604 H 0.99834 0.58366 0.92305 0.0
H605 H 0.00557 0.61243 0.75005 0.0
H606 H 0.0064 0.58131 0.69764 0.0
H607 H 0.97923 0.62985 0.81631 0.0
H608 H 0.04267 0.60967 0.85359 0.0
H609 H 0.06814 0.58759 0.88408 0.0
H610 H 0.04541 0.58536 0.06643 0.0
H611 H 0.01962 0.60722 0.03684 0.0
C612 C 0.99108 0.7044 0.99724 0.0
C613 C 0.98435 0.70161 0.0572 0.0
C614 C 0.99552 0.68866 0.96014 0.0
C615 C 0.99347 0.66991 0.98269 0.0
C616 C 0.98754 0.66717 0.04338 0.0
C617 C 0.98288 0.68285 0.08013 0.0
C618 C 0.99661 0.65301 0.94265 0.0
C619 C 0.01061 0.63979 0.95906 0.0
C620 C 0.98547 0.64959 0.88972 0.0
C621 C 0.97011 0.66275 0.87099 0.0
C622 C 0.95486 0.66674 0.91078 0.0
C623 C 0.9405 0.67928 0.89292 0.0
C624 C 0.94115 0.68778 0.83516 0.0
C625 C 0.95613 0.68372 0.79507 0.0
C626 C 0.97054 0.67121 0.81276 0.0
C627 C 0.00098 0.5656 0.8443 0.0
C628 C 0.00323 0.56449 0.78043 0.0
C629 C 1.00035 0.58332 0.87392 0.0
C630 C 0.00227 0.60041 0.84068 0.0
C631 C 0.00419 0.59943 0.77675 0.0
C632 C 0.00468 0.58163 0.74687 0.0
C633 C 0.00184 0.6192 0.87312 0.0
C634 C 0.98832 0.6328 0.8554 0.0
C635 C 0.01354 0.62305 0.92462 0.0
C636 C 0.02912 0.61 0.94284 0.0
C637 C 0.04302 0.60438 0.9001 0.0
C638 C 0.05753 0.59191 0.91724 0.0
C639 C 0.05837 0.58505 0.97713 0.0
C640 C 0.04473 0.59068 0.02005 0.0
C641 C 0.03018 0.60314 0.00314 0.0
H642 H 0.06961 0.57539 0.9903 0.0
H643 H 0.93001 0.69748 0.8214 0.0
H644 H 0.98048 0.20162 0.30515 0.0
H645 H 0.96747 0.17918 0.38122 0.0
H646 H 0.0247 0.16408 0.43353 0.0
H647 H 0.03756 0.18646 0.35803 0.0
H648 H 0.97326 0.14217 0.36562 0.0
H649 H 0.02585 0.14448 0.57353 0.0
H650 H 0.04152 0.16857 0.63968 0.0
H651 H 0.99846 0.20945 0.59469 0.0
H652 H 0.9823 0.18552 0.52916 0.0
H653 H 0.99786 0.05204 0.48349 0.0
H654 H 0.99482 0.08401 0.43965 0.0
H655 H 0.96624 0.1033 0.60317 0.0
H656 H 0.96947 0.0715 0.64772 0.0
H657 H 0.99435 0.12683 0.576 0.0
H658 H 0.94207 0.0999 0.46706 0.0
H659 H 0.92478 0.07614 0.40384 0.0
H660 H 0.96397 0.08593 0.25577 0.0
H661 H 0.98167 0.10956 0.31836 0.0
C662 C 0.99018 0.19419 0.33518 0.0
C663 C 0.00997 0.19575 0.32639 0.0
C664 C 0.98278 0.18127 0.37815 0.0
C665 C 0.9951 0.16992 0.41301 0.0
C666 C 0.01489 0.17286 0.40795 0.0
C667 C 0.02226 0.18566 0.36488 0.0
C668 C 0.98778 0.15279 0.44592 0.0
C669 C 0.97762 0.13894 0.41201 0.0
C670 C 0.99321 0.14866 0.5067 0.0
C671 C 0.0029 0.16319 0.54606 0.0
C672 C 0.01964 0.15857 0.57797 0.0
C673 C 0.02863 0.17221 0.61535 0.0
C674 C 0.02101 0.19054 0.62129 0.0
C675 C 0.00438 0.19526 0.5899 0.0
C676 C 0.99531 0.18167 0.55255 0.0
C677 C 0.99056 0.06296 0.50961 0.0
C678 C 0.98405 0.05923 0.56928 0.0
C679 C 0.98878 0.08124 0.48444 0.0
C680 C 0.98026 0.09606 0.51812 0.0
C681 C 0.97293 0.09212 0.57647 0.0
C682 C 0.97477 0.07389 0.60177 0.0
C683 C 0.98063 0.11599 0.49465 0.0
C684 C 0.98957 0.13027 0.53022 0.0
C685 C 0.9739 0.1206 0.43565 0.0
C686 C 0.96325 0.10646 0.39758 0.0
C687 C 0.94707 0.09691 0.42115 0.0
C688 C 0.93719 0.08347 0.3854 0.0
C689 C 0.94328 0.07951 0.32585 0.0
C690 C 0.95926 0.08902 0.30189 0.0
C691 C 0.9692 0.10246 0.33746 0.0
H692 H 0.93561 0.0691 0.29826 0.0
H693 H 0.02799 0.20107 0.65028 0.0
H694 H 0.30052 0.97686 0.28617 0.0
H695 H 0.32494 0.96427 0.355 0.0
H696 H 0.33928 0.02188 0.41203 0.0
H697 H 0.31507 0.03445 0.34278 0.0
H698 H 0.36273 0.97442 0.33404 0.0
H699 H 0.35773 0.01991 0.55672 0.0
H700 H 0.33291 0.03266 0.62524 0.0
H701 H 0.29416 0.98809 0.5678 0.0
H702 H 0.31882 0.97489 0.49964 0.0
H703 H 0.4512 0.99793 0.47038 0.0
H704 H 0.41998 0.99538 0.42195 0.0
H705 H 0.3997 0.95996 0.5704 0.0
H706 H 0.4308 0.96279 0.61993 0.0
H707 H 0.37622 0.98831 0.55234 0.0
H708 H 0.40567 0.9418 0.42285 0.0
H709 H 0.43025 0.92889 0.35374 0.0
H710 H 0.41949 0.97383 0.225 0.0
H711 H 0.39504 0.98718 0.29366 0.0
C712 C 0.30834 0.98672 0.31541 0.0
C713 C 0.30594 0.00658 0.30966 0.0
C714 C 0.32237 0.97954 0.35421 0.0
C715 C 0.33391 0.99215 0.38842 0.0
C716 C 0.33039 0.0119 0.38648 0.0
C717 C 0.31656 0.01908 0.34713 0.0
C718 C 0.35135 0.9852 0.41882 0.0
C719 C 0.36564 0.9772 0.38199 0.0
C720 C 0.355 0.98872 0.48137 0.0
C721 C 0.34012 0.99648 0.52273 0.0
C722 C 0.34395 0.01276 0.55893 0.0
C723 C 0.3299 0.02008 0.59768 0.0
C724 C 0.31196 0.01122 0.60077 0.0
C725 C 0.30804 0.99498 0.56521 0.0
C726 C 0.32204 0.98759 0.52643 0.0
C727 C 0.44026 0.98923 0.49213 0.0
C728 C 0.44348 0.98069 0.54929 0.0
C729 C 0.42239 0.98773 0.46423 0.0
C730 C 0.40749 0.97741 0.49244 0.0
C731 C 0.41097 0.96803 0.5479 0.0
C732 C 0.42879 0.96963 0.57605 0.0
C733 C 0.38788 0.97805 0.46712 0.0
C734 C 0.37323 0.98505 0.50476 0.0
C735 C 0.38389 0.9736 0.40523 0.0
C736 C 0.39856 0.96554 0.36364 0.0
C737 C 0.40862 0.949 0.37999 0.0
C738 C 0.42253 0.94159 0.34084 0.0
C739 C 0.42644 0.95054 0.28504 0.0
C740 C 0.41644 0.9669 0.26821 0.0
C741 C 0.40253 0.97438 0.3072 0.0
H742 H 0.43721 0.94478 0.25482 0.0
H743 H 0.3011 0.01691 0.63078 0.0
H744 H 0.47143 0.31835 0.26617 0.0
H745 H 0.47701 0.34345 0.34229 0.0
H746 H 0.52893 0.31597 0.39761 0.0
H747 H 0.52395 0.29121 0.31935 0.0
H748 H 0.4961 0.3406 0.49067 0.0
H749 H 0.54332 0.34038 0.317 0.0
H750 H 0.54862 0.33698 0.20593 0.0
H751 H 0.5093 0.38247 0.17194 0.0
H752 H 0.50304 0.38542 0.28252 0.0
H753 H 0.53622 0.42548 0.62169 0.0
H754 H 0.53379 0.39387 0.57354 0.0
H755 H 0.50627 0.41909 0.41724 0.0
H756 H 0.509 0.45064 0.46423 0.0
H757 H 0.52892 0.39335 0.37918 0.0
H758 H 0.48296 0.39835 0.53658 0.0
H759 H 0.46835 0.4017 0.63845 0.0
H760 H 0.49442 0.34938 0.69582 0.0
H761 H 0.51034 0.34643 0.59596 0.0
C762 C 0.48375 0.31732 0.29579 0.0
C763 C 0.49749 0.30309 0.28595 0.0
C764 C 0.48685 0.33161 0.33936 0.0
C765 C 0.5035 0.33161 0.37455 0.0
C766 C 0.51602 0.31612 0.37048 0.0
C767 C 0.5131 0.30195 0.32601 0.0
C768 C 0.5093 0.34933 0.40657 0.0
C769 C 0.50377 0.35205 0.46741 0.0
C770 C 0.51827 0.36443 0.37426 0.0
C771 C 0.52251 0.36291 0.30795 0.0
C772 C 0.53557 0.34942 0.28575 0.0
C773 C 0.53872 0.34755 0.22284 0.0
C774 C 0.52916 0.35936 0.18179 0.0
C775 C 0.51653 0.37316 0.20363 0.0
C776 C 0.51313 0.37489 0.2664 0.0
C777 C 0.53 0.42435 0.57653 0.0
C778 C 0.52271 0.44061 0.54698 0.0
C779 C 0.52847 0.40623 0.54931 0.0
C780 C 0.51954 0.40405 0.49226 0.0
C781 C 0.51318 0.42039 0.46137 0.0
C782 C 0.51476 0.43847 0.48835 0.0
C783 C 0.51621 0.3848 0.46499 0.0
C784 C 0.52191 0.38184 0.40413 0.0
C785 C 0.50671 0.36977 0.49695 0.0
C786 C 0.49824 0.37239 0.55884 0.0
C787 C 0.48609 0.38786 0.57141 0.0
C788 C 0.47755 0.38969 0.62895 0.0
C789 C 0.48059 0.37586 0.67382 0.0
C790 C 0.49225 0.36023 0.66135 0.0
C791 C 0.50121 0.35857 0.60449 0.0
H792 H 0.4738 0.37718 0.71811 0.0
H793 H 0.53162 0.35791 0.13311 0.0
H794 H 0.20411 0.56195 0.31682 0.0
H795 H 0.17685 0.5674 0.385 0.0
H796 H 0.174 0.50696 0.4242 0.0
H797 H 0.20125 0.50154 0.3567 0.0
H798 H 0.14379 0.53295 0.33809 0.0
H799 H 0.17487 0.51948 0.53528 0.0
H800 H 0.19827 0.5264 0.61669 0.0
H801 H 0.17612 0.58322 0.6364 0.0
H802 H 0.15273 0.57667 0.55445 0.0
H803 H 0.06679 0.49429 0.50042 0.0
H804 H 0.09708 0.50407 0.45455 0.0
H805 H 0.08876 0.56192 0.51859 0.0
H806 H 0.05803 0.55216 0.56427 0.0
H807 H 0.12439 0.5458 0.55243 0.0
H808 H 0.08797 0.55536 0.37216 0.0
H809 H 0.06455 0.54808 0.29118 0.0
H810 H 0.09684 0.49892 0.23684 0.0
H811 H 0.12025 0.50567 0.31817 0.0
C812 C 0.19846 0.55009 0.34338 0.0
C813 C 0.20479 0.53137 0.33232 0.0
C814 C 0.18285 0.55319 0.38196 0.0
C815 C 0.17355 0.53759 0.40976 0.0
C816 C 0.18125 0.5192 0.40406 0.0
C817 C 0.19686 0.51612 0.36575 0.0
C818 C 0.1535 0.53934 0.42925 0.0
C819 C 0.13947 0.53576 0.38494 0.0
C820 C 0.14805 0.54366 0.48978 0.0
C821 C 0.16232 0.54771 0.53803 0.0
C822 C 0.1752 0.53354 0.55628 0.0
C823 C 0.18839 0.53736 0.60274 0.0
C824 C 0.18875 0.55528 0.6315 0.0
C825 C 0.17588 0.56938 0.61395 0.0
C826 C 0.16265 0.56562 0.56753 0.0
C827 C 0.07118 0.5092 0.50343 0.0
C828 C 0.0601 0.5225 0.53566 0.0
C829 C 0.08847 0.51478 0.47723 0.0
C830 C 0.09513 0.53371 0.4832 0.0
C831 C 0.0838 0.54725 0.51345 0.0
C832 C 0.06622 0.54172 0.53895 0.0
C833 C 0.11461 0.53857 0.46164 0.0
C834 C 0.12858 0.54344 0.50523 0.0
C835 C 0.12007 0.53528 0.40026 0.0
C836 C 0.10584 0.53099 0.35163 0.0
C837 C 0.08999 0.54289 0.34337 0.0
C838 C 0.07672 0.53887 0.29729 0.0
C839 C 0.07918 0.52304 0.25892 0.0
C840 C 0.09492 0.51118 0.26657 0.0
C841 C 0.10821 0.51511 0.31265 0.0
H842 H 0.06891 0.51998 0.22321 0.0
H843 H 0.19895 0.5582 0.66754 0.0
H844 H 1.00004 0.80078 0.99595 0.0
H845 H 0.01121 0.82527 0.92478 0.0
H846 H 0.06339 0.83157 0.02782 0.0
H847 H 0.05194 0.80729 0.1001 0.0
H848 H 0.04647 0.86409 0.02212 0.0
H849 H 0.06298 0.81797 0.87277 0.0
H850 H 0.05957 0.78949 0.80662 0.0
H851 H 0.01162 0.8148 0.71703 0.0
H852 H 0.01447 0.84328 0.78329 0.0
H853 H 0.05525 0.94877 0.8334 0.0
H854 H 0.064 0.91772 0.87782 0.0
H855 H 0.00958 0.89397 0.82287 0.0
H856 H 1.00082 0.92443 0.7789 0.0
H857 H 0.03859 0.86954 0.79765 0.0
H858 H 0.01668 0.90943 0.96782 0.0
H859 H 0.01839 0.93763 0.03599 0.0
H860 H 0.0757 0.92326 0.08574 0.0
H861 H 0.07438 0.89506 0.01728 0.0
C862 C 0.01424 0.80677 0.00183 0.0
C863 C 0.0251 0.80224 0.05358 0.0
C864 C 0.02067 0.8208 0.96105 0.0
C865 C 0.03818 0.83033 0.97086 0.0
C866 C 0.04982 0.82447 0.01938 0.0
C867 C 0.04332 0.81057 0.06049 0.0
C868 C 0.04251 0.84843 0.93769 0.0
C869 C 0.04536 0.86514 0.97276 0.0
C870 C 0.04076 0.84995 0.8734 0.0
C871 C 0.03891 0.83278 0.83338 0.0
C872 C 0.0516 0.81742 0.83934 0.0
C873 C 0.04978 0.80126 0.80173 0.0
C874 C 0.03537 0.80032 0.75772 0.0
C875 C 0.02277 0.81554 0.75115 0.0
C876 C 0.0245 0.83171 0.78869 0.0
C877 C 0.04519 0.93691 0.83093 0.0
C878 C 0.02727 0.93918 0.80314 0.0
C879 C 0.05022 0.9192 0.85611 0.0
C880 C 0.03744 0.90355 0.85344 0.0
C881 C 0.01972 0.90579 0.82506 0.0
C882 C 0.01467 0.92336 0.80044 0.0
C883 C 0.04167 0.88493 0.88252 0.0
C884 C 0.04041 0.86823 0.84671 0.0
C885 C 0.04471 0.88335 0.94612 0.0
C886 C 0.04554 0.90034 0.98682 0.0
C887 C 0.0297 0.9124 0.99288 0.0
C888 C 0.03058 0.92835 0.03165 0.0
C889 C 0.04717 0.93228 0.06498 0.0
C890 C 0.06289 0.92023 0.05975 0.0
C891 C 0.06208 0.90427 0.02098 0.0
H892 H 0.04782 0.94463 0.09501 0.0
H893 H 0.034 0.7878 0.72864 0.0
H894 H 0.69779 0.00407 0.95754 0.0
H895 H 0.67317 0.01859 0.89512 0.0
H896 H 0.66804 0.06466 0.02614 0.0
H897 H 0.69248 0.04977 0.08948 0.0
H898 H 0.63574 0.04727 0.01628 0.0
H899 H 0.67779 0.07366 0.87033 0.0
H900 H 0.70525 0.0755 0.79993 0.0
H901 H 0.68147 0.02964 0.6921 0.0
H902 H 0.65401 0.0273 0.76228 0.0
H903 H 0.54781 0.05506 0.83934 0.0
H904 H 0.57846 0.06584 0.88352 0.0
H905 H 0.60532 0.01487 0.81422 0.0
H906 H 0.57533 0.00403 0.7712 0.0
H907 H 0.62665 0.04823 0.79159 0.0
H908 H 0.59051 0.01707 0.95739 0.0
H909 H 0.5634 0.01478 0.02914 0.0
H910 H 0.57721 0.07062 0.10052 0.0
H911 H 0.60417 0.07338 0.0282 0.0
C912 C 0.69218 0.01784 0.97128 0.0
C913 C 0.69694 0.02577 0.02832 0.0
C914 C 0.67801 0.02617 0.9356 0.0
C915 C 0.66858 0.04271 0.95602 0.0
C916 C 0.67501 0.05187 0.00954 0.0
C917 C 0.68908 0.04346 0.04543 0.0
C918 C 0.64994 0.04788 0.92854 0.0
C919 C 0.63386 0.04816 0.96713 0.0
C920 C 0.64734 0.04895 0.8645 0.0
C921 C 0.66381 0.0503 0.82176 0.0
C922 C 0.67845 0.06389 0.83181 0.0
C923 C 0.69402 0.06503 0.79189 0.0
C924 C 0.6951 0.0527 0.74158 0.0
C925 C 0.6806 0.03921 0.73104 0.0
C926 C 0.665 0.038 0.77081 0.0
C927 C 0.56027 0.04619 0.83375 0.0
C928 C 0.55902 0.02863 0.80202 0.0
C929 C 0.57775 0.05239 0.85872 0.0
C930 C 0.59417 0.04121 0.85157 0.0
C931 C 0.59289 0.02383 0.81967 0.0
C932 C 0.57559 0.01757 0.79556 0.0
C933 C 0.61275 0.04658 0.87928 0.0
C934 C 0.62874 0.04823 0.84073 0.0
C935 C 0.61531 0.04731 0.94331 0.0
C936 C 0.5991 0.04559 0.9866 0.0
C937 C 0.5876 0.02896 0.98781 0.0
C938 C 0.57227 0.02757 0.0286 0.0
C939 C 0.56848 0.04261 0.06903 0.0
C940 C 0.58007 0.05904 0.06891 0.0
C941 C 0.59535 0.06053 0.02795 0.0
H942 H 0.55666 0.04148 0.10075 0.0
H943 H 0.70717 0.0536 0.71076 0.0
H944 H 0.46045 0.69596 0.07849 0.0
H945 H 0.45149 0.67119 0.0042 0.0
H946 H 0.50606 0.67804 0.91507 0.0
H947 H 0.51499 0.70292 0.98904 0.0
H948 H 0.47707 0.66561 0.83435 0.0
H949 H 0.50396 0.64892 0.03197 0.0
H950 H 0.50504 0.64943 0.14479 0.0
H951 H 0.44871 0.62473 0.15233 0.0
H952 H 0.44727 0.62422 0.03946 0.0
H953 H 0.51516 0.57703 0.75974 0.0
H954 H 0.50694 0.608 0.80201 0.0
H955 H 0.454 0.58453 0.87111 0.0
H956 H 0.46215 0.55301 0.82842 0.0
H957 H 0.47393 0.60578 0.95659 0.0
H958 H 0.4527 0.61476 0.75253 0.0
H959 H 0.45453 0.61361 0.63997 0.0
H960 H 0.50242 0.65245 0.6428 0.0
H961 H 0.50114 0.65359 0.75548 0.0
C962 C 0.47014 0.6928 0.04123 0.0
C963 C 0.48848 0.70113 0.03973 0.0
C964 C 0.46504 0.67862 0.99901 0.0
C965 C 0.4783 0.6725 0.95517 0.0
C966 C 0.49566 0.68254 0.94873 0.0
C967 C 0.50073 0.6968 0.99087 0.0
C968 C 0.47583 0.65364 0.92482 0.0
C969 C 0.47629 0.6525 0.86081 0.0
C970 C 0.47453 0.63658 0.95963 0.0
C971 C 0.47542 0.63674 0.02741 0.0
C972 C 0.49177 0.6437 0.05773 0.0
C973 C 0.49246 0.64395 0.12164 0.0
C974 C 0.47693 0.63718 0.15569 0.0
C975 C 0.46071 0.63003 0.12588 0.0
C976 C 0.45996 0.62972 0.06196 0.0
C977 C 0.50171 0.5783 0.7838 0.0
C978 C 0.48931 0.56244 0.79067 0.0
C979 C 0.49696 0.59615 0.80743 0.0
C980 C 0.47968 0.59868 0.83848 0.0
C981 C 0.46731 0.5829 0.84653 0.0
C982 C 0.47203 0.56491 0.82241 0.0
C983 C 0.4755 0.61763 0.86585 0.0
C984 C 0.474 0.61882 0.92966 0.0
C985 C 0.47611 0.63467 0.83069 0.0
C986 C 0.47687 0.63418 0.7627 0.0
C987 C 0.46372 0.62296 0.72926 0.0
C988 C 0.46465 0.62232 0.66538 0.0
C989 C 0.47861 0.63292 0.63429 0.0
C990 C 0.49162 0.64424 0.66699 0.0
C991 C 0.49078 0.64491 0.73088 0.0
H992 H 0.47936 0.63235 0.58489 0.0
H993 H 0.47747 0.63741 0.20514 0.0
H994 H 0.81155 0.474 0.08782 0.0
H995 H 0.83783 0.46398 0.02177 0.0
H996 H 0.83715 0.51889 0.93176 0.0
H997 H 0.81069 0.52885 0.99734 0.0
H998 H 0.85015 0.49034 0.85485 0.0
H999 H 0.86295 0.51604 0.05304 0.0
H1000 H 0.85941 0.51894 0.16497 0.0
H1001 H 0.87915 0.46135 0.18703 0.0
H1002 H 0.88259 0.45804 0.07506 0.0
H1003 H 0.95963 0.49985 0.89016 0.0
H1004 H 0.928 0.50087 0.93631 0.0
H1005 H 0.90848 0.45646 0.81294 0.0
H1006 H 0.93999 0.45579 0.76508 0.0
H1007 H 0.90475 0.4792 0.99421 0.0
H1008 H 0.86212 0.46585 0.76872 0.0
H1009 H 0.86621 0.47019 0.65745 0.0
H1010 H 0.90825 0.51427 0.6896 0.0
H1011 H 0.90412 0.51048 0.80096 0.0
C1012 C 0.81641 0.48354 0.05188 0.0
C1013 C 0.80928 0.50223 0.04781 0.0
C1014 C 0.83148 0.47787 0.01447 0.0
C1015 C 0.83971 0.49089 0.97306 0.0
C1016 C 0.83103 0.50867 0.96363 0.0
C1017 C 0.81585 0.51432 0.0009 0.0
C1018 C 0.85905 0.4874 0.94841 0.0
C1019 C 0.86208 0.48766 0.88504 0.0
C1020 C 0.87472 0.48478 0.98821 0.0
C1021 C 0.87281 0.48671 0.05564 0.0
C1022 C 0.8664 0.50395 0.08173 0.0
C1023 C 0.86446 0.50569 0.14517 0.0
C1024 C 0.869 0.49032 0.18307 0.0
C1025 C 0.87559 0.47322 0.15759 0.0
C1026 C 0.87756 0.47141 0.09415 0.0
C1027 C 0.94875 0.48998 0.87363 0.0
C1028 C 0.95229 0.4779 0.82342 0.0
C1029 C 0.93062 0.49062 0.90002 0.0
C1030 C 0.91571 0.47908 0.8771 0.0
C1031 C 0.91962 0.46586 0.83031 0.0
C1032 C 0.9377 0.46538 0.80336 0.0
C1033 C 0.89596 0.48167 0.90014 0.0
C1034 C 0.89283 0.48143 0.96356 0.0
C1035 C 0.88042 0.48523 0.86031 0.0
C1036 C 0.88301 0.48765 0.79328 0.0
C1037 C 0.87221 0.47649 0.75205 0.0
C1038 C 0.87452 0.47887 0.68895 0.0
C1039 C 0.88755 0.49243 0.66647 0.0
C1040 C 0.89822 0.50371 0.70706 0.0
C1041 C 0.89591 0.50144 0.77019 0.0
H1042 H 0.88933 0.49424 0.61762 0.0
H1043 H 0.86746 0.49169 0.23216 0.0
H1044 H 0.06062 0.19358 0.08809 0.0
H1045 H 0.06825 0.1661 0.0212 0.0
H1046 H 0.01569 0.13822 0.07529 0.0
H1047 H 0.00791 0.1654 0.14021 0.0
H1048 H 0.04881 0.11578 0.09232 0.0
H1049 H 0.01826 0.15653 0.94142 0.0
H1050 H 0.01522 0.18535 0.87736 0.0
H1051 H 0.07024 0.17494 0.79813 0.0
H1052 H 0.07374 0.14619 0.86253 0.0
H1053 H 0.00691 0.04851 0.89767 0.0
H1054 H 0.01701 0.07621 0.95845 0.0
H1055 H 0.07109 0.07741 0.86413 0.0
H1056 H 0.06116 0.04911 0.80384 0.0
H1057 H 0.04898 0.11356 0.8656 0.0
H1058 H 0.07532 0.06822 0.00149 0.0
H1059 H 0.07657 0.03863 0.06258 0.0
H1060 H 0.02863 0.05721 0.16896 0.0
H1061 H 0.02689 0.08678 0.10793 0.0
C1062 C 0.05061 0.1817 0.08461 0.0
C1063 C 0.03385 0.18144 0.12012 0.0
C1064 C 0.055 0.16603 0.04677 0.0
C1065 C 0.04265 0.15002 0.04423 0.0
C1066 C 0.02554 0.15028 0.07737 0.0
C1067 C 0.02114 0.16583 0.11447 0.0
C1068 C 0.04743 0.13242 0.00969 0.0
C1069 C 0.04902 0.11528 0.04272 0.0
C1070 C 0.04834 0.1319 0.9451 0.0
C1071 C 0.04641 0.14942 0.90758 0.0
C1072 C 0.02984 0.16054 0.91103 0.0
C1073 C 0.028 0.17682 0.87448 0.0
C1074 C 0.04257 0.18202 0.83389 0.0
C1075 C 0.059 0.17094 0.82975 0.0
C1076 C 0.06092 0.15466 0.86629 0.0
C1077 C 0.02112 0.05439 0.89085 0.0
C1078 C 0.03329 0.04666 0.84637 0.0
C1079 C 0.02687 0.07021 0.92552 0.0
C1080 C 0.04478 0.07883 0.9157 0.0
C1081 C 0.05723 0.07088 0.87239 0.0
C1082 C 0.05162 0.05469 0.83846 0.0
C1083 C 0.04947 0.09689 0.94835 0.0
C1084 C 0.04958 0.11409 0.91516 0.0
C1085 C 0.05001 0.09751 0.01289 0.0
C1086 C 0.05094 0.07972 0.04988 0.0
C1087 C 0.06494 0.06594 0.0376 0.0
C1088 C 0.06576 0.04917 0.07229 0.0
C1089 C 0.05268 0.04603 0.11959 0.0
C1090 C 0.03877 0.05966 0.13233 0.0
C1091 C 0.03788 0.07646 0.09776 0.0
H1092 H 0.05334 0.03304 0.14641 0.0
H1093 H 0.04109 0.1946 0.80548 0.0
H1094 H 0.32359 0.05894 0.15683 0.0
H1095 H 0.35172 0.06371 0.09134 0.0
H1096 H 0.33419 0.01556 0.98031 0.0
H1097 H 0.3059 0.01095 0.04477 0.0
H1098 H 0.37416 0.0199 0.06931 0.0
H1099 H 0.33472 0.04188 0.89608 0.0
H1100 H 0.31185 0.06433 0.85057 0.0
H1101 H 0.34921 0.11164 0.89357 0.0
H1102 H 0.37217 0.08945 0.94018 0.0
H1103 H 0.43943 0.99388 0.84617 0.0
H1104 H 0.41187 0.00162 0.90819 0.0
H1105 H 0.42802 0.06144 0.90564 0.0
H1106 H 0.45585 0.05378 0.84167 0.0
H1107 H 0.39038 0.05691 0.88257 0.0
H1108 H 0.43245 0.03561 0.03619 0.0
H1109 H 0.45569 0.01509 0.0884 0.0
H1110 H 0.41469 0.96896 0.09316 0.0
H1111 H 0.3913 0.98906 0.03996 0.0
C1112 C 0.32534 0.04992 0.11684 0.0
C1113 C 0.31255 0.03463 0.10561 0.0
C1114 C 0.34139 0.05264 0.07962 0.0
C1115 C 0.34491 0.04006 0.03092 0.0
C1116 C 0.33151 0.0256 0.01716 0.0
C1117 C 0.31532 0.02304 0.05381 0.0
C1118 C 0.36398 0.03968 0.00198 0.0
C1119 C 0.37773 0.02784 0.02817 0.0
C1120 C 0.36878 0.05078 0.95026 0.0
C1121 C 0.35498 0.06406 0.92244 0.0
C1122 C 0.33792 0.05709 0.89658 0.0
C1123 C 0.32499 0.06976 0.87037 0.0
C1124 C 0.32903 0.08941 0.86942 0.0
C1125 C 0.34606 0.09643 0.89449 0.0
C1126 C 0.35904 0.08381 0.92077 0.0
C1127 C 0.43733 0.00872 0.859 0.0
C1128 C 0.44992 0.02322 0.83876 0.0
C1129 C 0.42154 0.0131 0.89493 0.0
C1130 C 0.41794 0.03208 0.91227 0.0
C1131 C 0.43056 0.04667 0.89297 0.0
C1132 C 0.44651 0.04226 0.85677 0.0
C1133 C 0.40047 0.03636 0.94827 0.0
C1134 C 0.38701 0.04904 0.92399 0.0
C1135 C 0.39599 0.02616 0.00247 0.0
C1136 C 0.41014 0.01384 0.03363 0.0
C1137 C 0.42844 0.02103 0.04778 0.0
C1138 C 0.44164 0.00947 0.07766 0.0
C1139 C 0.43668 0.99072 0.09399 0.0
C1140 C 0.41852 0.98348 0.08043 0.0
C1141 C 0.40527 0.99496 0.05045 0.0
H1142 H 0.4469 0.98182 0.11728 0.0
H1143 H 0.31901 0.0992 0.84908 0.0
H1144 H 0.52623 0.31495 0.06902 0.0
H1145 H 0.52318 0.34375 0.0064 0.0
H1146 H 0.46306 0.33172 0.98392 0.0
H1147 H 0.46612 0.30312 0.04815 0.0
H1148 H 0.51227 0.3556 0.89813 0.0
H1149 H 0.43877 0.37436 0.00909 0.0
H1150 H 0.42078 0.3666 0.10311 0.0
H1151 H 0.473 0.35327 0.19533 0.0
H1152 H 0.49125 0.36116 0.10216 0.0
H1153 H 0.47674 0.43472 0.74634 0.0
H1154 H 0.47486 0.40396 0.79954 0.0
H1155 H 0.49175 0.43175 0.9677 0.0
H1156 H 0.4938 0.46267 0.91399 0.0
H1157 H 0.4651 0.40091 0.98454 0.0
H1158 H 0.5239 0.4155 0.88843 0.0
H1159 H 0.54542 0.42543 0.80495 0.0
H1160 H 0.5301 0.37495 0.70296 0.0
H1161 H 0.50802 0.36497 0.78543 0.0
C1162 C 0.51258 0.31803 0.04827 0.0
C1163 C 0.49645 0.30679 0.06232 0.0
C1164 C 0.5108 0.33454 0.01287 0.0
C1165 C 0.49283 0.34007 0.99137 0.0
C1166 C 0.47702 0.32784 0.00075 0.0
C1167 C 0.47878 0.3114 0.03665 0.0
C1168 C 0.49033 0.35958 0.9658 0.0
C1169 C 0.50182 0.36542 0.91655 0.0
C1170 C 0.4773 0.37273 0.99187 0.0
C1171 C 0.46637 0.36822 0.04843 0.0
C1172 C 0.44641 0.36987 0.04951 0.0
C1173 C 0.43616 0.36542 0.10265 0.0
C1174 C 0.44573 0.3594 0.15511 0.0
C1175 C 0.46558 0.35789 0.15466 0.0
C1176 C 0.47588 0.36236 0.1017 0.0
C1177 C 0.47926 0.43436 0.79522 0.0
C1178 C 0.48512 0.45097 0.82655 0.0
C1179 C 0.47833 0.41679 0.8254 0.0
C1180 C 0.48337 0.41557 0.8873 0.0
C1181 C 0.48774 0.43244 0.91995 0.0
C1182 C 0.48882 0.45007 0.88948 0.0
C1183 C 0.48644 0.39654 0.91522 0.0
C1184 C 0.47527 0.39092 0.96541 0.0
C1185 C 0.50034 0.38387 0.89167 0.0
C1186 C 0.51385 0.38973 0.8424 0.0
C1187 C 0.52481 0.40667 0.84777 0.0
C1188 C 0.53717 0.41229 0.80071 0.0
C1189 C 0.53898 0.40091 0.74842 0.0
C1190 C 0.52853 0.38384 0.74326 0.0
C1191 C 0.51606 0.37822 0.79008 0.0
H1192 H 0.54861 0.40524 0.71213 0.0
H1193 H 0.43776 0.35593 0.19613 0.0
H1194 H 0.21048 0.49071 0.07647 0.0
H1195 H 0.18474 0.48144 0.00523 0.0
H1196 H 0.15029 0.52757 0.07405 0.0
H1197 H 0.1759 0.53724 0.14308 0.0
H1198 H 0.13326 0.48915 0.07966 0.0
H1199 H 0.16652 0.533 0.94272 0.0
H1200 H 0.19397 0.54457 0.88203 0.0
H1201 H 0.19484 0.49136 0.78296 0.0
H1202 H 0.16756 0.47935 0.8438 0.0
H1203 H 0.05185 0.50277 0.90041 0.0
H1204 H 0.08109 0.50407 0.96014 0.0
H1205 H 0.10838 0.46651 0.83038 0.0
H1206 H 0.07926 0.46572 0.76892 0.0
H1207 H 0.13122 0.49475 0.85373 0.0
H1208 H 0.09633 0.4517 0.98026 0.0
H1209 H 0.06881 0.43929 0.03897 0.0
H1210 H 0.07133 0.48849 0.15708 0.0
H1211 H 0.0988 0.50131 0.09887 0.0
C1212 C 0.19759 0.49912 0.07518 0.0
C1213 C 0.19507 0.51449 0.1161 0.0
C1214 C 0.18289 0.49376 0.03484 0.0
C1215 C 0.16555 0.50368 0.03519 0.0
C1216 C 0.16347 0.51959 0.07368 0.0
C1217 C 0.17812 0.52506 0.11316 0.0
C1218 C 0.14895 0.49706 0.99871 0.0
C1219 C 0.13275 0.49038 0.03023 0.0
C1220 C 0.14859 0.49806 0.93423 0.0
C1221 C 0.16519 0.50516 0.89848 0.0
C1222 C 0.17273 0.52366 0.9086 0.0
C1223 C 0.18821 0.53033 0.87401 0.0
C1224 C 0.19619 0.51868 0.82883 0.0
C1225 C 0.18869 0.50035 0.8181 0.0
C1226 C 0.17321 0.4936 0.85262 0.0
C1227 C 0.06392 0.49447 0.88505 0.0
C1228 C 0.06317 0.48412 0.82983 0.0
C1229 C 0.08069 0.49518 0.91947 0.0
C1230 C 0.09697 0.48521 0.90029 0.0
C1231 C 0.09605 0.47434 0.84619 0.0
C1232 C 0.07934 0.47383 0.81124 0.0
C1233 C 0.1152 0.48724 0.93473 0.0
C1234 C 0.13174 0.49307 0.903 0.0
C1235 C 0.11596 0.48523 0.99913 0.0
C1236 C 0.09957 0.47752 0.03488 0.0
C1237 C 0.09097 0.45993 0.01858 0.0
C1238 C 0.0754 0.45281 0.05184 0.0
C1239 C 0.06834 0.46311 0.10171 0.0
C1240 C 0.07686 0.48053 0.11852 0.0
C1241 C 0.09246 0.48771 0.08549 0.0
H1242 H 0.05626 0.45759 0.12735 0.0
H1243 H 0.20815 0.52389 0.80199 0.0
H1244 H 0.96963 0.80806 0.25346 0.0
H1245 H 0.96477 0.8352 0.32298 0.0
H1246 H 0.02543 0.83922 0.35352 0.0
H1247 H 0.03037 0.81219 0.28353 0.0
H1248 H 0.0027 0.84748 0.45996 0.0
H1249 H 0.01005 0.86526 0.24881 0.0
H1250 H 0.00269 0.86332 0.13872 0.0
H1251 H 0.94496 0.87998 0.17502 0.0
H1252 H 0.95192 0.88168 0.28557 0.0
H1253 H 0.00315 0.95812 0.45742 0.0
H1254 H 0.00358 0.92788 0.40053 0.0
H1255 H 0.96731 0.90169 0.53692 0.0
H1256 H 0.96696 0.93171 0.59436 0.0
H1257 H 0.97825 0.904 0.34834 0.0
H1258 H 0.98351 0.85538 0.56267 0.0
H1259 H 0.99417 0.8574 0.67004 0.0
H1260 H 0.0321 0.90392 0.62429 0.0
H1261 H 0.02202 0.90189 0.51645 0.0
C1262 C 0.98184 0.81429 0.27675 0.0
C1263 C 1.00038 0.80809 0.26317 0.0
C1264 C 0.97907 0.82986 0.31607 0.0
C1265 C 0.99477 0.83931 0.34278 0.0
C1266 C 0.01314 0.8321 0.33337 0.0
C1267 C 0.01595 0.8167 0.29344 0.0
C1268 C 0.9923 0.858 0.37402 0.0
C1269 C 0.99719 0.85981 0.43591 0.0
C1270 C 0.98563 0.87418 0.34193 0.0
C1271 C 0.98145 0.87339 0.27548 0.0
C1272 C 0.99575 0.86835 0.23337 0.0
C1273 C 0.99166 0.86732 0.17089 0.0
C1274 C 0.97335 0.87148 0.14991 0.0
C1275 C 0.95912 0.87673 0.19137 0.0
C1276 C 0.96313 0.87773 0.25393 0.0
C1277 C 0.99491 0.94607 0.47463 0.0
C1278 C 0.9852 0.94731 0.53083 0.0
C1279 C 0.99522 0.92876 0.44214 0.0
C1280 C 0.98585 0.91241 0.46526 0.0
C1281 C 0.975 0.91401 0.51894 0.0
C1282 C 0.97473 0.93124 0.55152 0.0
C1283 C 0.98825 0.8935 0.435 0.0
C1284 C 0.98348 0.89164 0.37296 0.0
C1285 C 0.99542 0.8774 0.46682 0.0
C1286 C 0.00178 0.87864 0.53154 0.0
C1287 C 0.99417 0.866 0.57546 0.0
C1288 C 1.00012 0.86714 0.63641 0.0
C1289 C 0.01373 0.88084 0.65402 0.0
C1290 C 0.0215 0.89337 0.61064 0.0
C1291 C 0.01567 0.89223 0.54958 0.0
H1292 H 0.01829 0.88172 0.70122 0.0
H1293 H 0.97021 0.87068 0.10152 0.0
H1294 H 0.66367 0.97887 0.13859 0.0
H1295 H 0.63673 0.97323 0.20759 0.0
H1296 H 0.67177 0.98974 0.36138 0.0
H1297 H 0.69902 0.99522 0.29184 0.0
H1298 H 0.64543 0.95839 0.38473 0.0
H1299 H 0.6454 0.02272 0.29921 0.0
H1300 H 0.64691 0.04516 0.2123 0.0
H1301 H 0.5967 0.01901 0.13514 0.0
H1302 H 0.59498 0.99632 0.22124 0.0
H1303 H 0.57454 0.98481 0.59542 0.0
H1304 H 0.60178 0.98202 0.52742 0.0
H1305 H 0.56405 0.9803 0.37161 0.0
H1306 H 0.53657 0.98422 0.43995 0.0
H1307 H 0.59168 0.00244 0.346 0.0
H1308 H 0.58958 0.93935 0.42839 0.0
H1309 H 0.5879 0.91446 0.50811 0.0
H1310 H 0.64091 0.93481 0.58353 0.0
H1311 H 0.64278 0.95999 0.50474 0.0
C1312 C 0.66571 0.98088 0.18733 0.0
C1313 C 0.68326 0.98759 0.2102 0.0
C1314 C 0.65034 0.9777 0.22658 0.0
C1315 C 0.6522 0.9814 0.28933 0.0
C1316 C 0.67009 0.98687 0.31297 0.0
C1317 C 0.6856 0.98997 0.27348 0.0
C1318 C 0.63501 0.98127 0.32879 0.0
C1319 C 0.63373 0.96813 0.37698 0.0
C1320 C 0.61953 0.99356 0.31697 0.0
C1321 C 0.62012 0.00775 0.26651 0.0
C1322 C 0.63469 0.02175 0.26365 0.0
C1323 C 0.63558 0.03452 0.21452 0.0
C1324 C 0.62189 0.03354 0.16821 0.0
C1325 C 0.60725 0.01982 0.17108 0.0
C1326 C 0.60629 0.00702 0.22009 0.0
C1327 C 0.57196 0.98358 0.54672 0.0
C1328 C 0.55335 0.98461 0.52308 0.0
C1329 C 0.58761 0.98186 0.50777 0.0
C1330 C 0.58506 0.98052 0.44424 0.0
C1331 C 0.56643 0.98124 0.42046 0.0
C1332 C 0.55073 0.98341 0.4595 0.0
C1333 C 0.60193 0.97952 0.40284 0.0
C1334 C 0.60322 0.99253 0.35407 0.0
C1335 C 0.61727 0.96685 0.41355 0.0
C1336 C 0.61624 0.95166 0.4609 0.0
C1337 C 0.60081 0.9386 0.46221 0.0
C1338 C 0.59984 0.92443 0.5072 0.0
C1339 C 0.61427 0.92308 0.55093 0.0
C1340 C 0.62973 0.93588 0.54965 0.0
C1341 C 0.63077 0.95009 0.50479 0.0
H1342 H 0.61348 0.9121 0.58573 0.0
H1343 H 0.62262 0.0434 0.13013 0.0
H1344 H 0.47878 0.68097 0.25127 0.0
H1345 H 0.48409 0.65344 0.31694 0.0
H1346 H 0.54337 0.66976 0.33517 0.0
H1347 H 0.53836 0.69679 0.26655 0.0
H1348 H 0.54157 0.63438 0.3045 0.0
H1349 H 0.51118 0.67027 0.46063 0.0
H1350 H 0.48705 0.69031 0.51127 0.0
H1351 H 0.44453 0.64649 0.48219 0.0
H1352 H 0.46836 0.62625 0.43082 0.0
H1353 H 0.55089 0.56255 0.54815 0.0
H1354 H 0.55048 0.59244 0.48949 0.0
H1355 H 0.4999 0.57299 0.39516 0.0
H1356 H 0.50045 0.54289 0.45224 0.0
H1357 H 0.49959 0.61071 0.4714 0.0
H1358 H 0.53216 0.57585 0.30984 0.0
H1359 H 0.55823 0.55623 0.26833 0.0
H1360 H 0.59904 0.59974 0.31919 0.0
H1361 H 0.57321 0.61951 0.36182 0.0
C1362 C 0.49289 0.67889 0.27002 0.0
C1363 C 0.50818 0.691 0.25311 0.0
C1364 C 0.49588 0.6632 0.30815 0.0
C1365 C 0.51415 0.65948 0.33125 0.0
C1366 C 0.52916 0.67229 0.31778 0.0
C1367 C 0.52622 0.6879 0.27909 0.0
C1368 C 0.51788 0.6412 0.36369 0.0
C1369 C 0.53258 0.62943 0.34181 0.0
C1370 C 0.50606 0.6345 0.41188 0.0
C1371 C 0.49153 0.64681 0.44135 0.0
C1372 C 0.49664 0.66498 0.46446 0.0
C1373 C 0.48303 0.67636 0.49347 0.0
C1374 C 0.46426 0.6697 0.49981 0.0
C1375 C 0.45906 0.65165 0.47715 0.0
C1376 C 0.47263 0.64021 0.44816 0.0
C1377 C 0.54002 0.5644 0.51359 0.0
C1378 C 0.52568 0.55039 0.50486 0.0
C1379 C 0.53979 0.58147 0.48032 0.0
C1380 C 0.52508 0.58487 0.43855 0.0
C1381 C 0.51135 0.57054 0.42734 0.0
C1382 C 0.51178 0.55331 0.45965 0.0
C1383 C 0.52291 0.60403 0.41122 0.0
C1384 C 0.50858 0.61589 0.43435 0.0
C1385 C 0.53528 0.61095 0.36516 0.0
C1386 C 0.55079 0.59904 0.33973 0.0
C1387 C 0.54672 0.58114 0.31283 0.0
C1388 C 0.56144 0.57001 0.28892 0.0
C1389 C 0.58029 0.5767 0.29131 0.0
C1390 C 0.58444 0.59455 0.31747 0.0
C1391 C 0.56976 0.60573 0.34147 0.0
H1392 H 0.59167 0.56807 0.27274 0.0
H1393 H 0.45375 0.67852 0.52239 0.0
H1394 H 0.81466 0.49357 0.28325 0.0
H1395 H 0.84134 0.49599 0.35536 0.0
H1396 H 0.8468 0.5564 0.3172 0.0
H1397 H 0.81976 0.55408 0.24608 0.0
H1398 H 0.88069 0.5338 0.29737 0.0
H1399 H 0.83383 0.54594 0.4506 0.0
H1400 H 0.80455 0.54046 0.51087 0.0
H1401 H 0.8261 0.48655 0.5729 0.0
H1402 H 0.85536 0.4915 0.51203 0.0
H1403 H 0.95984 0.54091 0.50798 0.0
H1404 H 0.93025 0.5473 0.45195 0.0
H1405 H 0.90934 0.4906 0.49569 0.0
H1406 H 0.93848 0.48415 0.55138 0.0
H1407 H 0.88259 0.51659 0.51717 0.0
H1408 H 0.92602 0.50122 0.35381 0.0
H1409 H 0.95514 0.50466 0.29119 0.0
H1410 H 0.93993 0.56241 0.24666 0.0
H1411 H 0.91082 0.55938 0.30975 0.0
C1412 C 0.82112 0.50747 0.29214 0.0
C1413 C 0.81503 0.5237 0.26009 0.0
C1414 C 0.83638 0.50884 0.33298 0.0
C1415 C 0.846 0.52639 0.34158 0.0
C1416 C 0.83948 0.54277 0.31136 0.0
C1417 C 0.82396 0.54148 0.27134 0.0
C1418 C 0.86394 0.52705 0.37729 0.0
C1419 C 0.88111 0.53048 0.34582 0.0
C1420 C 0.86444 0.52216 0.43996 0.0
C1421 C 0.84673 0.519 0.47606 0.0
C1422 C 0.83224 0.53279 0.47642 0.0
C1423 C 0.81565 0.5298 0.51085 0.0
C1424 C 0.81343 0.51314 0.54552 0.0
C1425 C 0.82781 0.49943 0.5459 0.0
C1426 C 0.84441 0.50233 0.51143 0.0
C1427 C 0.94899 0.52977 0.50521 0.0
C1428 C 0.95161 0.51201 0.53417 0.0
C1429 C 0.9321 0.53344 0.47319 0.0
C1430 C 0.91757 0.51942 0.46965 0.0
C1431 C 0.92028 0.50168 0.49804 0.0
C1432 C 0.93707 0.49799 0.52966 0.0
C1433 C 0.89938 0.52299 0.43705 0.0
C1434 C 0.88217 0.52027 0.46902 0.0
C1435 C 0.89883 0.52825 0.37464 0.0
C1436 C 0.9164 0.53017 0.33721 0.0
C1437 C 0.92899 0.51472 0.3312 0.0
C1438 C 0.94547 0.51658 0.2955 0.0
C1439 C 0.94942 0.53377 0.26516 0.0
C1440 C 0.93688 0.54912 0.27034 0.0
C1441 C 0.92039 0.54734 0.30605 0.0
H1442 H 0.96218 0.53518 0.23749 0.0
H1443 H 0.8006 0.51087 0.57223 0.0
loop_
_geom_bond_atom_site_label_1
_geom_bond_atom_site_label_2
_geom_bond_distance
_geom_bond_site_symmetry_2
_ccdc_geom_bond_type
H0 C1 0.949 . S
C1 H0 0.949 . S
C1 C2 1.395 . S
C1 C3 1.391 1_556 S
C2 C1 1.395 . S
C2 C5 1.390 1_556 S
C3 C1 1.391 1_554 S
C3 C7 1.387 . S
C3 C8 1.491 . S
H4 C5 0.950 . S
C5 C2 1.390 1_554 S
C5 H4 0.950 . S
C5 C6 1.378 . S
C6 C5 1.378 . S
C6 C7 1.409 . S
C7 C3 1.387 . S
C7 C6 1.409 . S
C7 H9 0.951 . S
C8 C3 1.491 . S
C8 C10 1.382 1_554 S
C8 C12 1.404 . S
H9 C7 0.951 . S
C10 C8 1.382 1_556 S
C10 C11 1.390 . S
C10 H15 0.949 . S
C11 C10 1.390 . S
C11 C16 1.399 1_556 S
C12 C8 1.404 . S
C12 H13 0.950 . S
C12 C14 1.375 . S
H13 C12 0.950 . S
C14 C12 1.375 . S
C14 C16 1.382 . S
C14 H18 0.950 . S
H15 C10 0.949 . S
C16 C11 1.399 1_554 S
C16 C14 1.382 . S
C16 H17 0.952 . S
H17 C16 0.952 . S
H18 C14 0.950 . S
H19 C20 0.949 . S
C20 H19 0.949 . S
C20 C21 1.390 1_655 S
C20 C22 1.391 . S
C21 C20 1.390 1_455 S
C21 C24 1.393 . S
C22 C20 1.391 . S
C22 C26 1.387 . S
C22 C27 1.491 . S
H23 C24 0.950 . S
C24 C21 1.393 . S
C24 H23 0.950 . S
C24 C25 1.379 . S
C25 C24 1.379 . S
C25 C26 1.408 1_455 S
C26 C22 1.387 . S
C26 C25 1.408 1_655 S
C26 H28 0.951 . S
C27 C22 1.491 . S
C27 C29 1.382 . S
C27 C31 1.404 . S
H28 C26 0.951 . S
C29 C27 1.382 . S
C29 C30 1.390 . S
C29 H34 0.949 1_655 S
C30 C29 1.390 . S
C30 C35 1.399 . S
C31 C27 1.404 . S
C31 H32 0.950 . S
C31 C33 1.375 . S
H32 C31 0.950 . S
C33 C31 1.375 . S
C33 C35 1.382 . S
C33 H37 0.950 . S
H34 C29 0.949 1_455 S
C35 C30 1.399 . S
C35 C33 1.382 . S
C35 H36 0.952 . S
H36 C35 0.952 . S
H37 C33 0.950 . S
H38 C39 0.949 1_556 S
C39 H38 0.949 1_554 S
C39 C40 1.394 1_565 S
C39 C41 1.391 . S
C40 C39 1.394 1_545 S
C40 C43 1.391 . S
C41 C39 1.391 . S
C41 C45 1.387 . S
C41 C46 1.491 . S
H42 C43 0.950 . S
C43 C40 1.391 . S
C43 H42 0.950 . S
C43 C44 1.378 1_545 S
C44 C43 1.378 1_565 S
C44 C45 1.409 . S
C45 C41 1.387 . S
C45 C44 1.409 . S
C45 H47 0.951 . S
C46 C41 1.491 . S
C46 C48 1.382 . S
C46 C50 1.404 . S
H47 C45 0.951 . S
C48 C46 1.382 . S
C48 C49 1.390 . S
C48 H53 0.949 1_565 S
C49 C48 1.390 . S
C49 C54 1.399 . S
C50 C46 1.404 . S
C50 H51 0.950 . S
C50 C52 1.375 . S
H51 C50 0.950 . S
C52 C50 1.375 . S
C52 C54 1.382 . S
C52 H56 0.950 . S
H53 C48 0.949 1_545 S
C54 C49 1.399 . S
C54 C52 1.382 . S
C54 H55 0.952 . S
H55 C54 0.952 . S
H56 C52 0.950 . S
H57 C58 0.949 . S
C58 H57 0.949 . S
C58 C59 1.395 . S
C58 C60 1.391 1_556 S
C59 C58 1.395 . S
C59 C62 1.390 1_556 S
C60 C58 1.391 1_554 S
C60 C64 1.387 . S
C60 C65 1.491 . S
H61 C62 0.950 . S
C62 C59 1.390 1_554 S
C62 H61 0.950 . S
C62 C63 1.378 . S
C63 C62 1.378 . S
C63 C64 1.409 . S
C64 C60 1.387 . S
C64 C63 1.409 . S
C64 H66 0.951 . S
C65 C60 1.491 . S
C65 C67 1.382 . S
C65 C69 1.404 . S
H66 C64 0.951 . S
C67 C65 1.382 . S
C67 C68 1.390 1_554 S
C67 H72 0.949 1_554 S
C68 C67 1.390 1_556 S
C68 C73 1.399 1_556 S
C69 C65 1.404 . S
C69 H70 0.950 . S
C69 C71 1.375 . S
H70 C69 0.950 . S
C71 C69 1.375 . S
C71 C73 1.382 . S
C71 H75 0.950 . S
H72 C67 0.949 1_556 S
C73 C68 1.399 1_554 S
C73 C71 1.382 . S
C73 H74 0.952 . S
H74 C73 0.952 . S
H75 C71 0.950 . S
H76 C77 0.949 . S
C77 H76 0.949 . S
C77 C78 1.395 . S
C77 C79 1.391 . S
C78 C77 1.395 . S
C78 C81 1.390 . S
C79 C77 1.391 . S
C79 C83 1.387 . S
C79 C84 1.491 . S
H80 C81 0.950 . S
C81 C78 1.390 . S
C81 H80 0.950 . S
C81 C82 1.378 . S
C82 C81 1.378 . S
C82 C83 1.409 . S
C83 C79 1.387 . S
C83 C82 1.409 . S
C83 H85 0.951 . S
C84 C79 1.491 . S
C84 C86 1.382 . S
C84 C88 1.404 . S
H85 C83 0.951 . S
C86 C84 1.382 . S
C86 C87 1.390 . S
C86 H91 0.949 . S
C87 C86 1.390 . S
C87 C92 1.399 . S
C88 C84 1.404 . S
C88 H89 0.950 . S
C88 C90 1.375 . S
H89 C88 0.950 . S
C90 C88 1.375 . S
C90 C92 1.382 . S
C90 H94 0.950 . S
H91 C86 0.949 . S
C92 C87 1.399 . S
C92 C90 1.382 . S
C92 H93 0.952 . S
H93 C92 0.952 . S
H94 C90 0.950 . S
H95 C96 0.949 . S
C96 H95 0.949 . S
C96 C97 1.395 . S
C96 C98 1.391 . S
C97 C96 1.395 . S
C97 C100 1.390 . S
C98 C96 1.391 . S
C98 C102 1.387 . S
C98 C103 1.491 . S
H99 C100 0.950 . S
C100 C97 1.390 . S
C100 H99 0.950 . S
C100 C101 1.378 . S
C101 C100 1.378 . S
C101 C102 1.409 . S
C102 C98 1.387 . S
C102 C101 1.409 . S
C102 H104 0.951 . S
C103 C98 1.491 . S
C103 C105 1.382 . S
C103 C107 1.404 . S
H104 C102 0.951 . S
C105 C103 1.382 . S
C105 C106 1.390 . S
C105 H110 0.949 . S
C106 C105 1.390 . S
C106 C111 1.399 . S
C107 C103 1.404 . S
C107 H108 0.950 . S
C107 C109 1.375 . S
H108 C107 0.950 . S
C109 C107 1.375 . S
C109 C111 1.382 . S
C109 H113 0.950 1_455 S
H110 C105 0.949 . S
C111 C106 1.399 . S
C111 C109 1.382 . S
C111 H112 0.952 . S
H112 C111 0.952 . S
H113 C109 0.950 1_655 S
H114 C115 0.949 . S
C115 H114 0.949 . S
C115 C116 1.395 . S
C115 C117 1.391 . S
C116 C115 1.395 . S
C116 C119 1.390 . S
C117 C115 1.391 . S
C117 C121 1.387 . S
C117 C122 1.500 . S
H118 C119 0.950 . S
C119 C116 1.390 . S
C119 H118 0.950 . S
C119 C120 1.378 . S
C120 C119 1.378 . S
C120 C121 1.409 . S
C121 C117 1.387 . S
C121 C120 1.409 . S
C121 H123 0.951 . S
C122 C117 1.500 . S
C122 C124 1.401 . S
C122 C126 1.376 1_545 S
H123 C121 0.951 . S
C124 C122 1.401 . S
C124 C125 1.390 . S
C124 H129 0.949 . S
C125 C124 1.390 . S
C125 C130 1.399 1_545 S
C126 C122 1.376 1_565 S
C126 H127 0.950 . S
C126 C128 1.375 . S
H127 C126 0.950 . S
C128 C126 1.375 . S
C128 C130 1.382 . S
C128 H132 0.950 . S
H129 C124 0.949 . S
C130 C125 1.399 1_565 S
C130 C128 1.382 . S
C130 H131 0.952 . S
H131 C130 0.952 . S
H132 C128 0.950 . S
H133 C134 0.949 . S
C134 H133 0.949 . S
C134 C135 1.395 . S
C134 C136 1.391 . S
C135 C134 1.395 . S
C135 C138 1.390 . S
C136 C134 1.391 . S
C136 C140 1.387 . S
C136 C141 1.491 . S
H137 C138 0.950 . S
C138 C135 1.390 . S
C138 H137 0.950 . S
C138 C139 1.378 . S
C139 C138 1.378 . S
C139 C140 1.409 . S
C140 C136 1.387 . S
C140 C139 1.409 . S
C140 H142 0.951 . S
C141 C136 1.491 . S
C141 C143 1.382 . S
C141 C145 1.404 . S
H142 C140 0.951 . S
C143 C141 1.382 . S
C143 C144 1.390 . S
C143 H148 0.949 . S
C144 C143 1.390 . S
C144 C149 1.399 . S
C145 C141 1.404 . S
C145 H146 0.950 . S
C145 C147 1.375 . S
H146 C145 0.950 . S
C147 C145 1.375 . S
C147 C149 1.382 . S
C147 H151 0.950 . S
H148 C143 0.949 . S
C149 C144 1.399 . S
C149 C147 1.382 . S
C149 H150 0.952 . S
H150 C149 0.952 . S
H151 C147 0.950 . S
O152 Zn153 1.957 . S
O152 C168 1.216 1_545 S
Zn153 O152 1.957 . S
Zn153 O154 1.948 1_545 S
Zn153 O160 1.952 . S
Zn153 O165 1.885 1_545 S
O154 Zn153 1.948 1_565 S
O154 Zn155 1.904 1_465 S
O154 Zn156 1.952 . S
O154 Zn157 1.963 1_455 S
Zn155 O154 1.904 1_645 S
Zn155 O158 1.933 . S
Zn155 O161 1.941 1_655 S
Zn155 O162 1.966 1_655 S
Zn156 O154 1.952 . S
Zn156 O163 1.938 1_565 S
Zn156 O164 1.906 . S
Zn156 O174 1.953 . S
Zn157 O154 1.963 1_655 S
Zn157 O159 1.932 . S
Zn157 O166 1.977 . S
Zn157 O167 1.910 1_655 S
O158 Zn155 1.933 . S
O158 C169 1.226 . S
O159 Zn157 1.932 . S
O159 C169 1.307 1_565 S
O160 Zn153 1.952 . S
O160 C171 1.253 . S
O161 Zn155 1.941 1_455 S
O161 C171 1.283 . S
O162 Zn155 1.966 1_455 S
O162 C170 1.302 . S
O163 Zn156 1.938 1_545 S
O163 C170 1.247 . S
O164 Zn156 1.906 . S
O164 C172 1.304 1_455 S
O165 Zn153 1.885 1_565 S
O165 C173 1.311 . S
O166 Zn157 1.977 . S
O166 C172 1.272 . S
O167 Zn157 1.910 1_455 S
O167 C173 1.231 . S
C168 O152 1.216 1_565 S
C168 O174 1.309 . S
C169 O158 1.226 . S
C169 O159 1.307 1_545 S
C170 O162 1.302 . S
C170 O163 1.247 . S
C171 O160 1.253 . S
C171 O161 1.283 . S
C172 O164 1.304 1_655 S
C172 O166 1.272 . S
C173 O165 1.311 . S
C173 O167 1.231 . S
O174 Zn156 1.953 . S
O174 C168 1.309 . S
O175 Zn176 1.953 . S
O175 C191 1.225 . S
Zn176 O175 1.953 . S
Zn176 O177 1.949 . S
Zn176 O183 1.919 . S
Zn176 O188 1.924 . S
O177 Zn176 1.949 . S
O177 Zn178 1.923 1_545 S
O177 Zn179 1.950 . S
O177 Zn180 1.945 1_545 S
Zn178 O177 1.923 1_565 S
Zn178 O181 1.933 . S
Zn178 O184 1.941 . S
Zn178 O185 1.965 . S
Zn179 O177 1.950 . S
Zn179 O186 1.938 . S
Zn179 O187 1.906 . S
Zn179 O197 1.953 . S
Zn180 O177 1.945 1_565 S
Zn180 O182 1.932 . S
Zn180 O189 1.977 . S
Zn180 O190 1.910 1_565 S
O181 Zn178 1.933 . S
O181 C192 1.226 . S
O182 Zn180 1.932 . S
O182 C192 1.307 . S
O183 Zn176 1.919 . S
O183 C194 1.253 . S
O184 Zn178 1.941 . S
O184 C194 1.283 1_565 S
O185 Zn178 1.965 . S
O185 C193 1.303 1_565 S
O186 Zn179 1.938 . S
O186 C193 1.247 . S
O187 Zn179 1.906 . S
O187 C195 1.304 1_545 S
O188 Zn176 1.924 . S
O188 C196 1.311 . S
O189 Zn180 1.977 . S
O189 C195 1.272 . S
O190 Zn180 1.910 1_545 S
O190 C196 1.231 . S
C191 O175 1.225 . S
C191 O197 1.298 . S
C192 O181 1.226 . S
C192 O182 1.307 . S
C193 O185 1.303 1_545 S
C193 O186 1.247 . S
C194 O183 1.253 . S
C194 O184 1.283 1_545 S
C195 O187 1.304 1_565 S
C195 O189 1.272 . S
C196 O188 1.311 . S
C196 O190 1.231 . S
O197 Zn179 1.953 . S
O197 C191 1.298 . S
O198 Zn199 1.953 . S
O198 C214 1.225 . S
Zn199 O198 1.953 . S
Zn199 O200 1.949 . S
Zn199 O206 1.919 . S
Zn199 O211 1.924 . S
O200 Zn199 1.949 . S
O200 Zn201 1.923 . S
O200 Zn202 1.950 . S
O200 Zn203 1.945 . S
Zn201 O200 1.923 . S
Zn201 O204 1.933 . S
Zn201 O207 1.941 . S
Zn201 O208 1.965 . S
Zn202 O200 1.950 . S
Zn202 O209 1.938 . S
Zn202 O210 1.906 . S
Zn202 O220 1.953 . S
Zn203 O200 1.945 . S
Zn203 O205 1.932 . S
Zn203 O212 1.977 . S
Zn203 O213 1.910 . S
O204 Zn201 1.933 . S
O204 C215 1.226 . S
O205 Zn203 1.932 . S
O205 C215 1.307 . S
O206 Zn199 1.919 . S
O206 C217 1.253 . S
O207 Zn201 1.941 . S
O207 C217 1.283 . S
O208 Zn201 1.965 . S
O208 C216 1.303 . S
O209 Zn202 1.938 . S
O209 C216 1.247 . S
O210 Zn202 1.906 . S
O210 C218 1.304 . S
O211 Zn199 1.924 . S
O211 C219 1.311 . S
O212 Zn203 1.977 . S
O212 C218 1.272 . S
O213 Zn203 1.910 . S
O213 C219 1.231 . S
C214 O198 1.225 . S
C214 O220 1.298 . S
C215 O204 1.226 . S
C215 O205 1.307 . S
C216 O208 1.303 . S
C216 O209 1.247 . S
C217 O206 1.253 . S
C217 O207 1.283 . S
C218 O210 1.304 . S
C218 O212 1.272 . S
C219 O211 1.311 . S
C219 O213 1.231 . S
O220 Zn202 1.953 . S
O220 C214 1.298 . S
O221 Zn222 1.910 1_655 S
O221 C237 1.225 . S
Zn222 O221 1.910 1_455 S
Zn222 O223 1.949 . S
Zn222 O229 1.920 . S
Zn222 O234 1.970 . S
O223 Zn222 1.949 . S
O223 Zn224 1.918 1_455 S
O223 Zn225 1.929 1_455 S
O223 Zn226 1.973 . S
Zn224 O223 1.918 1_655 S
Zn224 O227 1.933 1_655 S
Zn224 O230 1.941 . S
Zn224 O231 1.965 . S
Zn225 O223 1.929 1_655 S
Zn225 O232 1.938 . S
Zn225 O233 1.906 . S
Zn225 O243 1.953 . S
Zn226 O223 1.973 . S
Zn226 O228 1.932 . S
Zn226 O235 1.977 . S
Zn226 O236 1.910 . S
O227 Zn224 1.933 1_455 S
O227 C238 1.226 . S
O228 Zn226 1.932 . S
O228 C238 1.307 . S
O229 Zn222 1.920 . S
O229 C240 1.254 . S
O230 Zn224 1.941 . S
O230 C240 1.279 1_655 S
O231 Zn224 1.965 . S
O231 C239 1.303 . S
O232 Zn225 1.938 . S
O232 C239 1.247 . S
O233 Zn225 1.906 . S
O233 C241 1.304 1_655 S
O234 Zn222 1.970 . S
O234 C242 1.311 . S
O235 Zn226 1.977 . S
O235 C241 1.272 . S
O236 Zn226 1.910 . S
O236 C242 1.231 . S
C237 O221 1.225 . S
C237 O243 1.298 . S
C238 O227 1.226 . S
C238 O228 1.307 . S
C239 O231 1.303 . S
C239 O232 1.247 . S
C240 O229 1.254 . S
C240 O230 1.279 1_455 S
C241 O233 1.304 1_455 S
C241 O235 1.272 . S
C242 O234 1.311 . S
C242 O236 1.231 . S
O243 Zn225 1.953 . S
O243 C237 1.298 . S
H244 C262 0.951 . S
H245 C264 0.962 . S
H246 C266 0.950 . S
H247 C267 0.950 . S
H248 C269 0.950 . S
H249 C272 0.950 . S
H250 C273 0.950 . S
H251 C275 0.950 . S
H252 C276 0.950 . S
H253 C277 0.951 . S
H254 C279 0.951 . S
H255 C281 0.950 . S
H256 C282 0.950 . S
H257 C284 0.950 . S
H258 C287 0.950 . S
H259 C288 0.950 . S
H260 C290 0.950 . S
H261 C291 0.950 . S
C262 H244 0.951 . S
C262 C263 1.366 . S
C262 C264 1.388 . S
C263 C262 1.366 . S
C263 C267 1.385 . S
C264 H245 0.962 . S
C264 C262 1.388 . S
C264 C265 1.366 . S
C265 C264 1.366 . S
C265 C266 1.414 . S
C265 C268 1.499 . S
C266 H246 0.950 . S
C266 C265 1.414 . S
C266 C267 1.374 . S
C267 H247 0.950 . S
C267 C263 1.385 . S
C267 C266 1.374 . S
C268 C265 1.499 . S
C268 C269 1.373 1_545 S
C268 C270 1.389 . S
C269 H248 0.950 . S
C269 C268 1.373 1_565 S
C269 C285 1.377 . S
C270 C268 1.389 . S
C270 C271 1.524 . S
C270 C284 1.377 . S
C271 C270 1.524 . S
C271 C272 1.397 . S
C271 C276 1.363 . S
C272 H249 0.950 . S
C272 C271 1.397 . S
C272 C273 1.334 . S
C273 H250 0.950 . S
C273 C272 1.334 . S
C273 C274 1.287 . S
C274 C273 1.287 . S
C274 C275 1.524 . S
C274 H293 0.913 . S
C275 H251 0.950 . S
C275 C274 1.524 . S
C275 C276 1.415 . S
C276 H252 0.950 . S
C276 C271 1.363 . S
C276 C275 1.415 . S
C277 H253 0.951 . S
C277 C278 1.360 1_545 S
C277 C279 1.388 . S
C278 C277 1.360 1_565 S
C278 C282 1.390 . S
C279 H254 0.951 . S
C279 C277 1.388 . S
C279 C280 1.374 . S
C280 C279 1.374 . S
C280 C281 1.406 1_545 S
C280 C283 1.501 . S
C281 H255 0.950 . S
C281 C280 1.406 1_565 S
C281 C282 1.374 . S
C282 H256 0.950 . S
C282 C278 1.390 . S
C282 C281 1.374 . S
C283 C280 1.501 . S
C283 C284 1.373 . S
C283 C285 1.389 1_545 S
C284 H257 0.950 . S
C284 C270 1.377 . S
C284 C283 1.373 . S
C285 C269 1.377 . S
C285 C283 1.389 1_565 S
C285 C286 1.524 . S
C286 C285 1.524 . S
C286 C287 1.397 . S
C286 C291 1.363 . S
C287 H258 0.950 . S
C287 C286 1.397 . S
C287 C288 1.334 . S
C288 H259 0.950 . S
C288 C287 1.334 . S
C288 C289 1.287 . S
C289 C288 1.287 . S
C289 C290 1.524 . S
C289 H292 0.999 . S
C290 H260 0.950 . S
C290 C289 1.524 . S
C290 C291 1.415 . S
C291 H261 0.950 . S
C291 C286 1.363 . S
C291 C290 1.415 . S
H292 C289 0.999 . S
H293 C274 0.913 . S
H294 C312 0.951 . S
H295 C314 0.951 . S
H296 C316 0.950 . S
H297 C317 0.950 . S
H298 C319 0.950 . S
H299 C322 0.950 . S
H300 C323 0.950 . S
H301 C325 0.950 . S
H302 C326 0.950 . S
H303 C327 0.951 . S
H304 C329 0.951 . S
H305 C331 0.950 . S
H306 C332 0.950 . S
H307 C334 0.950 . S
H308 C337 0.950 . S
H309 C338 0.950 . S
H310 C340 0.950 . S
H311 C341 0.950 . S
C312 H294 0.951 . S
C312 C313 1.366 . S
C312 C314 1.388 . S
C313 C312 1.366 . S
C313 C317 1.385 . S
C314 H295 0.951 . S
C314 C312 1.388 . S
C314 C315 1.366 . S
C315 C314 1.366 . S
C315 C316 1.414 . S
C315 C318 1.499 . S
C316 H296 0.950 . S
C316 C315 1.414 . S
C316 C317 1.374 . S
C317 H297 0.950 . S
C317 C313 1.385 . S
C317 C316 1.374 . S
C318 C315 1.499 . S
C318 C319 1.373 . S
C318 C320 1.389 . S
C319 H298 0.950 . S
C319 C318 1.373 . S
C319 C335 1.377 . S
C320 C318 1.389 . S
C320 C321 1.524 . S
C320 C334 1.377 . S
C321 C320 1.524 . S
C321 C322 1.397 . S
C321 C326 1.363 . S
C322 H299 0.950 . S
C322 C321 1.397 . S
C322 C323 1.334 . S
C323 H300 0.950 . S
C323 C322 1.334 . S
C323 C324 1.287 . S
C324 C323 1.287 . S
C324 C325 1.524 . S
C324 H343 0.913 . S
C325 H301 0.950 . S
C325 C324 1.524 . S
C325 C326 1.415 . S
C326 H302 0.950 . S
C326 C321 1.363 . S
C326 C325 1.415 . S
C327 H303 0.951 . S
C327 C328 1.366 . S
C327 C329 1.388 . S
C328 C327 1.366 . S
C328 C332 1.385 . S
C329 H304 0.951 . S
C329 C327 1.388 . S
C329 C330 1.366 . S
C330 C329 1.366 . S
C330 C331 1.414 . S
C330 C333 1.499 . S
C331 H305 0.950 . S
C331 C330 1.414 . S
C331 C332 1.374 . S
C332 H306 0.950 . S
C332 C328 1.385 . S
C332 C331 1.374 . S
C333 C330 1.499 . S
C333 C334 1.373 . S
C333 C335 1.389 . S
C334 H307 0.950 . S
C334 C320 1.377 . S
C334 C333 1.373 . S
C335 C319 1.377 . S
C335 C333 1.389 . S
C335 C336 1.524 . S
C336 C335 1.524 . S
C336 C337 1.397 . S
C336 C341 1.363 . S
C337 H308 0.950 . S
C337 C336 1.397 . S
C337 C338 1.334 . S
C338 H309 0.950 . S
C338 C337 1.334 . S
C338 C339 1.287 . S
C339 C338 1.287 . S
C339 C340 1.524 . S
C339 H342 0.999 . S
C340 H310 0.950 . S
C340 C339 1.524 . S
C340 C341 1.415 . S
C341 H311 0.950 . S
C341 C336 1.363 . S
C341 C340 1.415 . S
H342 C339 0.999 . S
H343 C324 0.913 . S
H344 C362 0.951 . S
H345 C364 0.951 . S
H346 C366 0.950 . S
H347 C367 0.950 . S
H348 C369 0.950 . S
H349 C372 0.950 . S
H350 C373 0.950 . S
H351 C375 0.950 . S
H352 C376 0.950 . S
H353 C377 0.951 . S
H354 C379 0.951 . S
H355 C381 0.950 . S
H356 C382 0.950 . S
H357 C384 0.950 . S
H358 C387 0.950 . S
H359 C388 0.950 . S
H360 C390 0.950 . S
H361 C391 0.950 . S
C362 H344 0.951 . S
C362 C363 1.366 . S
C362 C364 1.388 . S
C363 C362 1.366 . S
C363 C367 1.385 . S
C364 H345 0.951 . S
C364 C362 1.388 . S
C364 C365 1.366 . S
C365 C364 1.366 . S
C365 C366 1.414 . S
C365 C368 1.499 . S
C366 H346 0.950 . S
C366 C365 1.414 . S
C366 C367 1.374 . S
C367 H347 0.950 . S
C367 C363 1.385 . S
C367 C366 1.374 . S
C368 C365 1.499 . S
C368 C369 1.373 . S
C368 C370 1.389 . S
C369 H348 0.950 . S
C369 C368 1.373 . S
C369 C385 1.377 . S
C370 C368 1.389 . S
C370 C371 1.524 . S
C370 C384 1.377 . S
C371 C370 1.524 . S
C371 C372 1.397 . S
C371 C376 1.363 . S
C372 H349 0.950 . S
C372 C371 1.397 . S
C372 C373 1.334 . S
C373 H350 0.950 . S
C373 C372 1.334 . S
C373 C374 1.287 . S
C374 C373 1.287 . S
C374 C375 1.524 . S
C374 H393 0.913 . S
C375 H351 0.950 . S
C375 C374 1.524 . S
C375 C376 1.415 . S
C376 H352 0.950 . S
C376 C371 1.363 . S
C376 C375 1.415 . S
C377 H353 0.951 . S
C377 C378 1.366 . S
C377 C379 1.388 . S
C378 C377 1.366 . S
C378 C382 1.385 . S
C379 H354 0.951 . S
C379 C377 1.388 . S
C379 C380 1.366 . S
C380 C379 1.366 . S
C380 C381 1.414 . S
C380 C383 1.499 . S
C381 H355 0.950 . S
C381 C380 1.414 . S
C381 C382 1.374 . S
C382 H356 0.950 . S
C382 C378 1.385 . S
C382 C381 1.374 . S
C383 C380 1.499 . S
C383 C384 1.373 . S
C383 C385 1.389 . S
C384 H357 0.950 . S
C384 C370 1.377 . S
C384 C383 1.373 . S
C385 C369 1.377 . S
C385 C383 1.389 . S
C385 C386 1.524 . S
C386 C385 1.524 . S
C386 C387 1.397 . S
C386 C391 1.363 . S
C387 H358 0.950 . S
C387 C386 1.397 . S
C387 C388 1.334 . S
C388 H359 0.950 . S
C388 C387 1.334 . S
C388 C389 1.287 . S
C389 C388 1.287 . S
C389 C390 1.524 . S
C389 H392 0.999 . S
C390 H360 0.950 . S
C390 C389 1.524 . S
C390 C391 1.415 . S
C391 H361 0.950 . S
C391 C386 1.363 . S
C391 C390 1.415 . S
H392 C389 0.999 . S
H393 C374 0.913 . S
H394 C412 0.951 . S
H395 C414 0.951 . S
H396 C416 0.950 . S
H397 C417 0.950 . S
H398 C419 0.950 1_655 S
H399 C422 0.950 . S
H400 C423 0.950 . S
H401 C425 0.950 . S
H402 C426 0.950 . S
H403 C427 0.953 1_655 S
H404 C429 0.951 1_655 S
H405 C431 0.950 . S
H406 C432 0.950 . S
H407 C434 0.950 . S
H408 C437 0.950 . S
H409 C438 0.950 . S
H410 C440 0.950 . S
H411 C441 0.950 . S
C412 H394 0.951 . S
C412 C413 1.366 . S
C412 C414 1.388 . S
C413 C412 1.366 . S
C413 C417 1.385 . S
C414 H395 0.951 . S
C414 C412 1.388 . S
C414 C415 1.366 . S
C415 C414 1.366 . S
C415 C416 1.414 . S
C415 C418 1.499 . S
C416 H396 0.950 . S
C416 C415 1.414 . S
C416 C417 1.374 . S
C417 H397 0.950 . S
C417 C413 1.385 . S
C417 C416 1.374 . S
C418 C415 1.499 . S
C418 C419 1.373 . S
C418 C420 1.389 . S
C419 H398 0.950 1_455 S
C419 C418 1.373 . S
C419 C435 1.377 . S
C420 C418 1.389 . S
C420 C421 1.524 . S
C420 C434 1.377 . S
C421 C420 1.524 . S
C421 C422 1.397 . S
C421 C426 1.363 . S
C422 H399 0.950 . S
C422 C421 1.397 . S
C422 C423 1.334 . S
C423 H400 0.950 . S
C423 C422 1.334 . S
C423 C424 1.287 . S
C424 C423 1.287 . S
C424 C425 1.524 . S
C424 H443 0.913 . S
C425 H401 0.950 . S
C425 C424 1.524 . S
C425 C426 1.415 . S
C426 H402 0.950 . S
C426 C421 1.363 . S
C426 C425 1.415 . S
C427 H403 0.953 1_455 S
C427 C428 1.364 . S
C427 C429 1.387 . S
C428 C427 1.364 . S
C428 C432 1.385 . S
C429 H404 0.951 1_455 S
C429 C427 1.387 . S
C429 C430 1.366 . S
C430 C429 1.366 . S
C430 C431 1.414 . S
C430 C433 1.499 . S
C431 H405 0.950 . S
C431 C430 1.414 . S
C431 C432 1.374 . S
C432 H406 0.950 . S
C432 C428 1.385 . S
C432 C431 1.374 . S
C433 C430 1.499 . S
C433 C434 1.373 . S
C433 C435 1.389 . S
C434 H407 0.950 . S
C434 C420 1.377 . S
C434 C433 1.373 . S
C435 C419 1.377 . S
C435 C433 1.389 . S
C435 C436 1.524 1_455 S
C436 C435 1.524 1_655 S
C436 C437 1.397 . S
C436 C441 1.363 . S
C437 H408 0.950 . S
C437 C436 1.397 . S
C437 C438 1.334 . S
C438 H409 0.950 . S
C438 C437 1.334 . S
C438 C439 1.287 . S
C439 C438 1.287 . S
C439 C440 1.524 . S
C439 H442 0.999 . S
C440 H410 0.950 . S
C440 C439 1.524 . S
C440 C441 1.415 . S
C441 H411 0.950 . S
C441 C436 1.363 . S
C441 C440 1.415 . S
H442 C439 0.999 . S
H443 C424 0.913 . S
H444 C462 0.951 . S
H445 C464 0.951 1_554 S
H446 C466 0.950 . S
H447 C467 0.950 . S
H448 C469 0.950 . S
H449 C472 0.950 1_556 S
H450 C473 0.950 . S
H451 C475 0.950 . S
H452 C476 0.950 . S
H453 C477 0.951 . S
H454 C479 0.951 . S
H455 C481 0.950 . S
H456 C482 0.950 . S
H457 C484 0.950 . S
H458 C487 0.950 . S
H459 C488 0.950 . S
H460 C490 0.950 . S
H461 C491 0.950 . S
C462 H444 0.951 . S
C462 C463 1.377 1_554 S
C462 C464 1.388 1_554 S
C463 C462 1.377 1_556 S
C463 C467 1.373 1_565 S
C464 H445 0.951 1_556 S
C464 C462 1.388 1_556 S
C464 C465 1.350 1_565 S
C465 C464 1.350 1_545 S
C465 C466 1.429 . S
C465 C468 1.500 . S
C466 H446 0.950 . S
C466 C465 1.429 . S
C466 C467 1.374 . S
C467 H447 0.950 . S
C467 C463 1.373 1_545 S
C467 C466 1.374 . S
C468 C465 1.500 . S
C468 C469 1.373 1_545 S
C468 C470 1.389 . S
C469 H448 0.950 . S
C469 C468 1.373 1_565 S
C469 C485 1.377 . S
C470 C468 1.389 . S
C470 C471 1.524 1_556 S
C470 C484 1.377 . S
C471 C470 1.524 1_554 S
C471 C472 1.397 . S
C471 C476 1.363 . S
C472 H449 0.950 1_554 S
C472 C471 1.397 . S
C472 C473 1.334 . S
C473 H450 0.950 . S
C473 C472 1.334 . S
C473 C474 1.287 . S
C474 C473 1.287 . S
C474 C475 1.524 . S
C474 H493 0.913 . S
C475 H451 0.950 . S
C475 C474 1.524 . S
C475 C476 1.415 . S
C476 H452 0.950 . S
C476 C471 1.363 . S
C476 C475 1.415 . S
C477 H453 0.951 . S
C477 C478 1.366 . S
C477 C479 1.388 . S
C478 C477 1.366 . S
C478 C482 1.385 1_545 S
C479 H454 0.951 . S
C479 C477 1.388 . S
C479 C480 1.362 1_545 S
C480 C479 1.362 1_565 S
C480 C481 1.417 . S
C480 C483 1.499 . S
C481 H455 0.950 . S
C481 C480 1.417 . S
C481 C482 1.374 . S
C482 H456 0.950 . S
C482 C478 1.385 1_565 S
C482 C481 1.374 . S
C483 C480 1.499 . S
C483 C484 1.353 1_565 S
C483 C485 1.408 . S
C484 H457 0.950 . S
C484 C470 1.377 . S
C484 C483 1.353 1_545 S
C485 C469 1.377 . S
C485 C483 1.408 . S
C485 C486 1.524 . S
C486 C485 1.524 . S
C486 C487 1.397 . S
C486 C491 1.363 . S
C487 H458 0.950 . S
C487 C486 1.397 . S
C487 C488 1.334 . S
C488 H459 0.950 . S
C488 C487 1.334 . S
C488 C489 1.287 . S
C489 C488 1.287 . S
C489 C490 1.524 . S
C489 H492 0.999 . S
C490 H460 0.950 . S
C490 C489 1.524 . S
C490 C491 1.415 . S
C491 H461 0.950 . S
C491 C486 1.363 . S
C491 C490 1.415 . S
H492 C489 0.999 . S
H493 C474 0.913 . S
H494 C512 0.951 1_554 S
H495 C514 0.951 . S
H496 C516 0.950 . S
H497 C517 0.950 . S
H498 C519 0.950 . S
H499 C522 0.950 . S
H500 C523 0.950 . S
H501 C525 0.950 . S
H502 C526 0.950 . S
H503 C527 0.951 . S
H504 C529 0.951 . S
H505 C531 0.950 . S
H506 C532 0.950 . S
H507 C534 0.950 . S
H508 C537 0.950 . S
H509 C538 0.950 . S
H510 C540 0.950 . S
H511 C541 0.950 . S
C512 H494 0.951 1_556 S
C512 C513 1.366 . S
C512 C514 1.388 . S
C513 C512 1.366 . S
C513 C517 1.385 . S
C514 H495 0.951 . S
C514 C512 1.388 . S
C514 C515 1.366 . S
C515 C514 1.366 . S
C515 C516 1.414 . S
C515 C518 1.499 . S
C516 H496 0.950 . S
C516 C515 1.414 . S
C516 C517 1.374 . S
C517 H497 0.950 . S
C517 C513 1.385 . S
C517 C516 1.374 . S
C518 C515 1.499 . S
C518 C519 1.373 . S
C518 C520 1.389 . S
C519 H498 0.950 . S
C519 C518 1.373 . S
C519 C535 1.377 . S
C520 C518 1.389 . S
C520 C521 1.524 . S
C520 C534 1.377 . S
C521 C520 1.524 . S
C521 C522 1.397 . S
C521 C526 1.363 . S
C522 H499 0.950 . S
C522 C521 1.397 . S
C522 C523 1.334 . S
C523 H500 0.950 . S
C523 C522 1.334 . S
C523 C524 1.287 . S
C524 C523 1.287 . S
C524 C525 1.524 . S
C524 H543 0.913 . S
C525 H501 0.950 . S
C525 C524 1.524 . S
C525 C526 1.415 . S
C526 H502 0.950 . S
C526 C521 1.363 . S
C526 C525 1.415 . S
C527 H503 0.951 . S
C527 C528 1.366 . S
C527 C529 1.388 . S
C528 C527 1.366 . S
C528 C532 1.385 . S
C529 H504 0.951 . S
C529 C527 1.388 . S
C529 C530 1.366 . S
C530 C529 1.366 . S
C530 C531 1.414 . S
C530 C533 1.499 . S
C531 H505 0.950 . S
C531 C530 1.414 . S
C531 C532 1.374 . S
C532 H506 0.950 . S
C532 C528 1.385 . S
C532 C531 1.374 . S
C533 C530 1.499 . S
C533 C534 1.373 . S
C533 C535 1.389 . S
C534 H507 0.950 . S
C534 C520 1.377 . S
C534 C533 1.373 . S
C535 C519 1.377 . S
C535 C533 1.389 . S
C535 C536 1.524 . S
C536 C535 1.524 . S
C536 C537 1.397 . S
C536 C541 1.363 . S
C537 H508 0.950 . S
C537 C536 1.397 . S
C537 C538 1.334 . S
C538 H509 0.950 . S
C538 C537 1.334 . S
C538 C539 1.287 . S
C539 C538 1.287 . S
C539 C540 1.524 . S
C539 H542 0.999 . S
C540 H510 0.950 . S
C540 C539 1.524 . S
C540 C541 1.415 . S
C541 H511 0.950 . S
C541 C536 1.363 . S
C541 C540 1.415 . S
H542 C539 0.999 . S
H543 C524 0.913 . S
H544 C562 0.951 . S
H545 C564 0.951 . S
H546 C566 0.950 . S
H547 C567 0.950 . S
H548 C569 0.950 . S
H549 C572 0.950 . S
H550 C573 0.950 . S
H551 C575 0.950 . S
H552 C576 0.950 . S
H553 C577 0.951 . S
H554 C579 0.951 . S
H555 C581 0.950 . S
H556 C582 0.950 . S
H557 C584 0.950 . S
H558 C587 0.950 . S
H559 C588 0.950 . S
H560 C590 0.950 1_554 S
H561 C591 0.950 . S
C562 H544 0.951 . S
C562 C563 1.366 . S
C562 C564 1.388 . S
C563 C562 1.366 . S
C563 C567 1.385 . S
C564 H545 0.951 . S
C564 C562 1.388 . S
C564 C565 1.366 . S
C565 C564 1.366 . S
C565 C566 1.414 . S
C565 C568 1.499 . S
C566 H546 0.950 . S
C566 C565 1.414 . S
C566 C567 1.374 . S
C567 H547 0.950 . S
C567 C563 1.385 . S
C567 C566 1.374 . S
C568 C565 1.499 . S
C568 C569 1.373 . S
C568 C570 1.389 . S
C569 H548 0.950 . S
C569 C568 1.373 . S
C569 C585 1.377 . S
C570 C568 1.389 . S
C570 C571 1.524 . S
C570 C584 1.377 . S
C571 C570 1.524 . S
C571 C572 1.397 . S
C571 C576 1.363 . S
C572 H549 0.950 . S
C572 C571 1.397 . S
C572 C573 1.334 . S
C573 H550 0.950 . S
C573 C572 1.334 . S
C573 C574 1.287 . S
C574 C573 1.287 . S
C574 C575 1.524 . S
C574 H593 0.913 . S
C575 H551 0.950 . S
C575 C574 1.524 . S
C575 C576 1.415 . S
C576 H552 0.950 . S
C576 C571 1.363 . S
C576 C575 1.415 . S
C577 H553 0.951 . S
C577 C578 1.366 . S
C577 C579 1.388 . S
C578 C577 1.366 . S
C578 C582 1.385 . S
C579 H554 0.951 . S
C579 C577 1.388 . S
C579 C580 1.366 . S
C580 C579 1.366 . S
C580 C581 1.414 . S
C580 C583 1.499 . S
C581 H555 0.950 . S
C581 C580 1.414 . S
C581 C582 1.374 . S
C582 H556 0.950 . S
C582 C578 1.385 . S
C582 C581 1.374 . S
C583 C580 1.499 . S
C583 C584 1.373 . S
C583 C585 1.389 . S
C584 H557 0.950 . S
C584 C570 1.377 . S
C584 C583 1.373 . S
C585 C569 1.377 . S
C585 C583 1.389 . S
C585 C586 1.524 . S
C586 C585 1.524 . S
C586 C587 1.397 . S
C586 C591 1.363 . S
C587 H558 0.950 . S
C587 C586 1.397 . S
C587 C588 1.334 . S
C588 H559 0.950 . S
C588 C587 1.334 . S
C588 C589 1.287 . S
C589 C588 1.287 . S
C589 C590 1.524 . S
C589 H592 0.999 1_556 S
C590 H560 0.950 1_556 S
C590 C589 1.524 . S
C590 C591 1.415 . S
C591 H561 0.950 . S
C591 C586 1.363 . S
C591 C590 1.415 . S
H592 C589 0.999 1_554 S
H593 C574 0.913 . S
H594 C612 0.951 . S
H595 C614 0.951 . S
H596 C616 0.950 . S
H597 C617 0.950 . S
H598 C619 0.950 . S
H599 C622 0.950 . S
H600 C623 0.950 . S
H601 C625 0.950 . S
H602 C626 0.950 . S
H603 C627 0.951 . S
H604 C629 0.951 . S
H605 C631 0.950 . S
H606 C632 0.950 . S
H607 C634 0.950 . S
H608 C637 0.950 . S
H609 C638 0.950 . S
H610 C640 0.950 . S
H611 C641 0.950 . S
C612 H594 0.951 . S
C612 C613 1.366 1_556 S
C612 C614 1.388 . S
C613 C612 1.366 1_554 S
C613 C617 1.385 1_655 S
C614 H595 0.951 . S
C614 C612 1.388 . S
C614 C615 1.388 . S
C615 C614 1.388 . S
C615 C616 1.392 1_655 S
C615 C618 1.496 1_655 S
C616 H596 0.950 . S
C616 C615 1.392 1_455 S
C616 C617 1.374 1_556 S
C617 H597 0.950 . S
C617 C613 1.385 1_455 S
C617 C616 1.374 1_554 S
C618 C615 1.496 1_455 S
C618 C619 1.402 . S
C618 C620 1.363 1_455 S
C619 H598 0.950 . S
C619 C618 1.402 . S
C619 C635 1.377 . S
C620 C618 1.363 1_655 S
C620 C621 1.524 . S
C620 C634 1.377 . S
C621 C620 1.524 . S
C621 C622 1.397 1_556 S
C621 C626 1.363 . S
C622 H599 0.950 . S
C622 C621 1.397 1_554 S
C622 C623 1.334 . S
C623 H600 0.950 . S
C623 C622 1.334 . S
C623 C624 1.287 . S
C624 C623 1.287 . S
C624 C625 1.524 1_554 S
C624 H643 0.913 . S
C625 H601 0.950 . S
C625 C624 1.524 1_556 S
C625 C626 1.415 . S
C626 H602 0.950 . S
C626 C621 1.363 . S
C626 C625 1.415 . S
C627 H603 0.951 . S
C627 C628 1.366 . S
C627 C629 1.388 . S
C628 C627 1.366 . S
C628 C632 1.385 1_455 S
C629 H604 0.951 . S
C629 C627 1.388 . S
C629 C630 1.366 . S
C630 C629 1.366 . S
C630 C631 1.414 1_455 S
C630 C633 1.499 . S
C631 H605 0.950 . S
C631 C630 1.414 1_655 S
C631 C632 1.374 . S
C632 H606 0.950 . S
C632 C628 1.385 1_655 S
C632 C631 1.374 . S
C633 C630 1.499 . S
C633 C634 1.373 1_455 S
C633 C635 1.389 . S
C634 H607 0.950 . S
C634 C620 1.377 . S
C634 C633 1.373 1_655 S
C635 C619 1.377 . S
C635 C633 1.389 . S
C635 C636 1.524 . S
C636 C635 1.524 . S
C636 C637 1.397 . S
C636 C641 1.363 . S
C637 H608 0.950 . S
C637 C636 1.397 . S
C637 C638 1.334 . S
C638 H609 0.950 . S
C638 C637 1.334 . S
C638 C639 1.287 . S
C639 C638 1.287 . S
C639 C640 1.524 . S
C639 H642 0.999 . S
C640 H610 0.950 . S
C640 C639 1.524 . S
C640 C641 1.415 . S
C641 H611 0.950 . S
C641 C636 1.363 . S
C641 C640 1.415 . S
H642 C639 0.999 . S
H643 C624 0.913 . S
H644 C662 0.951 . S
H645 C664 0.951 . S
H646 C666 0.950 . S
H647 C667 0.950 . S
H648 C669 0.950 . S
H649 C672 0.950 . S
H650 C673 0.950 . S
H651 C675 0.950 . S
H652 C676 0.950 . S
H653 C677 0.951 . S
H654 C679 0.951 . S
H655 C681 0.950 . S
H656 C682 0.943 1_655 S
H657 C684 0.950 . S
H658 C687 0.950 . S
H659 C688 0.950 . S
H660 C690 0.950 . S
H661 C691 0.950 . S
C662 H644 0.951 . S
C662 C663 1.366 . S
C662 C664 1.388 . S
C663 C662 1.366 . S
C663 C667 1.385 . S
C664 H645 0.951 . S
C664 C662 1.388 . S
C664 C665 1.366 . S
C665 C664 1.366 . S
C665 C666 1.414 . S
C665 C668 1.499 . S
C666 H646 0.950 . S
C666 C665 1.414 . S
C666 C667 1.374 . S
C667 H647 0.950 . S
C667 C663 1.385 . S
C667 C666 1.374 . S
C668 C665 1.499 . S
C668 C669 1.373 . S
C668 C670 1.389 . S
C669 H648 0.950 . S
C669 C668 1.373 . S
C669 C685 1.377 . S
C670 C668 1.389 . S
C670 C671 1.524 . S
C670 C684 1.377 . S
C671 C670 1.524 . S
C671 C672 1.397 . S
C671 C676 1.363 . S
C672 H649 0.950 . S
C672 C671 1.397 . S
C672 C673 1.334 . S
C673 H650 0.950 . S
C673 C672 1.334 . S
C673 C674 1.287 . S
C674 C673 1.287 . S
C674 C675 1.524 . S
C674 H693 0.913 . S
C675 H651 0.950 . S
C675 C674 1.524 . S
C675 C676 1.415 . S
C676 H652 0.950 . S
C676 C671 1.363 . S
C676 C675 1.415 . S
C677 H653 0.951 . S
C677 C678 1.366 . S
C677 C679 1.388 . S
C678 C677 1.366 . S
C678 C682 1.385 . S
C679 H654 0.951 . S
C679 C677 1.388 . S
C679 C680 1.366 . S
C680 C679 1.366 . S
C680 C681 1.414 . S
C680 C683 1.499 . S
C681 H655 0.950 . S
C681 C680 1.414 . S
C681 C682 1.374 . S
C682 H656 0.943 1_455 S
C682 C678 1.385 . S
C682 C681 1.374 . S
C683 C680 1.499 . S
C683 C684 1.373 . S
C683 C685 1.389 . S
C684 H657 0.950 . S
C684 C670 1.377 . S
C684 C683 1.373 . S
C685 C669 1.377 . S
C685 C683 1.389 . S
C685 C686 1.524 . S
C686 C685 1.524 . S
C686 C687 1.397 1_455 S
C686 C691 1.363 . S
C687 H658 0.950 . S
C687 C686 1.397 1_655 S
C687 C688 1.334 . S
C688 H659 0.950 . S
C688 C687 1.334 . S
C688 C689 1.287 . S
C689 C688 1.287 . S
C689 C690 1.524 1_655 S
C689 H692 0.999 . S
C690 H660 0.950 . S
C690 C689 1.524 1_455 S
C690 C691 1.415 . S
C691 H661 0.950 . S
C691 C686 1.363 . S
C691 C690 1.415 . S
H692 C689 0.999 . S
H693 C674 0.913 . S
H694 C712 0.951 . S
H695 C714 0.951 . S
H696 C716 0.950 . S
H697 C717 0.950 . S
H698 C719 0.950 . S
H699 C722 0.950 . S
H700 C723 0.950 . S
H701 C725 0.950 . S
H702 C726 0.950 . S
H703 C727 0.951 . S
H704 C729 0.951 . S
H705 C731 0.950 . S
H706 C732 0.950 . S
H707 C734 0.950 . S
H708 C737 0.950 . S
H709 C738 0.950 . S
H710 C740 0.950 . S
H711 C741 0.950 . S
C712 H694 0.951 . S
C712 C713 1.366 1_565 S
C712 C714 1.388 . S
C713 C712 1.366 1_545 S
C713 C717 1.385 . S
C714 H695 0.951 . S
C714 C712 1.388 . S
C714 C715 1.366 1_565 S
C715 C714 1.366 1_545 S
C715 C716 1.414 . S
C715 C718 1.499 . S
C716 H696 0.950 . S
C716 C715 1.414 . S
C716 C717 1.374 . S
C717 H697 0.950 . S
C717 C713 1.385 . S
C717 C716 1.374 . S
C718 C715 1.499 . S
C718 C719 1.373 . S
C718 C720 1.389 1_545 S
C719 H698 0.950 . S
C719 C718 1.373 . S
C719 C735 1.377 . S
C720 C718 1.389 1_565 S
C720 C721 1.524 . S
C720 C734 1.377 . S
C721 C720 1.524 . S
C721 C722 1.397 . S
C721 C726 1.363 . S
C722 H699 0.950 . S
C722 C721 1.397 . S
C722 C723 1.334 . S
C723 H700 0.950 . S
C723 C722 1.334 . S
C723 C724 1.287 . S
C724 C723 1.287 . S
C724 C725 1.524 . S
C724 H743 0.913 . S
C725 H701 0.950 . S
C725 C724 1.524 . S
C725 C726 1.415 . S
C726 H702 0.950 . S
C726 C721 1.363 . S
C726 C725 1.415 . S
C727 H703 0.951 . S
C727 C728 1.366 . S
C727 C729 1.388 . S
C728 C727 1.366 . S
C728 C732 1.385 1_545 S
C729 H704 0.951 . S
C729 C727 1.388 . S
C729 C730 1.366 . S
C730 C729 1.366 . S
C730 C731 1.414 1_545 S
C730 C733 1.499 . S
C731 H705 0.950 . S
C731 C730 1.414 1_565 S
C731 C732 1.374 . S
C732 H706 0.950 . S
C732 C728 1.385 1_565 S
C732 C731 1.374 . S
C733 C730 1.499 . S
C733 C734 1.373 1_545 S
C733 C735 1.389 . S
C734 H707 0.950 . S
C734 C720 1.377 . S
C734 C733 1.373 1_565 S
C735 C719 1.377 . S
C735 C733 1.389 . S
C735 C736 1.524 . S
C736 C735 1.524 . S
C736 C737 1.397 . S
C736 C741 1.363 . S
C737 H708 0.950 . S
C737 C736 1.397 . S
C737 C738 1.334 . S
C738 H709 0.950 . S
C738 C737 1.334 . S
C738 C739 1.287 . S
C739 C738 1.287 . S
C739 C740 1.524 . S
C739 H742 0.999 . S
C740 H710 0.950 . S
C740 C739 1.524 . S
C740 C741 1.415 . S
C741 H711 0.950 . S
C741 C736 1.363 . S
C741 C740 1.415 . S
H742 C739 0.999 . S
H743 C724 0.913 . S
H744 C762 0.951 . S
H745 C764 0.951 . S
H746 C766 0.950 . S
H747 C767 0.950 . S
H748 C769 0.950 . S
H749 C772 0.950 . S
H750 C773 0.950 . S
H751 C775 0.950 . S
H752 C776 0.950 . S
H753 C777 0.951 . S
H754 C779 0.951 . S
H755 C781 0.950 . S
H756 C782 0.950 . S
H757 C784 0.950 . S
H758 C787 0.950 . S
H759 C788 0.950 . S
H760 C790 0.950 . S
H761 C791 0.950 . S
C762 H744 0.951 . S
C762 C763 1.366 . S
C762 C764 1.388 . S
C763 C762 1.366 . S
C763 C767 1.385 . S
C764 H745 0.951 . S
C764 C762 1.388 . S
C764 C765 1.366 . S
C765 C764 1.366 . S
C765 C766 1.414 . S
C765 C768 1.499 . S
C766 H746 0.950 . S
C766 C765 1.414 . S
C766 C767 1.374 . S
C767 H747 0.950 . S
C767 C763 1.385 . S
C767 C766 1.374 . S
C768 C765 1.499 . S
C768 C769 1.373 . S
C768 C770 1.389 . S
C769 H748 0.950 . S
C769 C768 1.373 . S
C769 C785 1.377 . S
C770 C768 1.389 . S
C770 C771 1.524 . S
C770 C784 1.377 . S
C771 C770 1.524 . S
C771 C772 1.397 . S
C771 C776 1.363 . S
C772 H749 0.950 . S
C772 C771 1.397 . S
C772 C773 1.334 . S
C773 H750 0.950 . S
C773 C772 1.334 . S
C773 C774 1.287 . S
C774 C773 1.287 . S
C774 C775 1.524 . S
C774 H793 0.913 . S
C775 H751 0.950 . S
C775 C774 1.524 . S
C775 C776 1.415 . S
C776 H752 0.950 . S
C776 C771 1.363 . S
C776 C775 1.415 . S
C777 H753 0.951 . S
C777 C778 1.366 . S
C777 C779 1.388 . S
C778 C777 1.366 . S
C778 C782 1.385 . S
C779 H754 0.951 . S
C779 C777 1.388 . S
C779 C780 1.366 . S
C780 C779 1.366 . S
C780 C781 1.414 . S
C780 C783 1.499 . S
C781 H755 0.950 . S
C781 C780 1.414 . S
C781 C782 1.374 . S
C782 H756 0.950 . S
C782 C778 1.385 . S
C782 C781 1.374 . S
C783 C780 1.499 . S
C783 C784 1.373 . S
C783 C785 1.389 . S
C784 H757 0.950 . S
C784 C770 1.377 . S
C784 C783 1.373 . S
C785 C769 1.377 . S
C785 C783 1.389 . S
C785 C786 1.524 . S
C786 C785 1.524 . S
C786 C787 1.397 . S
C786 C791 1.363 . S
C787 H758 0.950 . S
C787 C786 1.397 . S
C787 C788 1.334 . S
C788 H759 0.950 . S
C788 C787 1.334 . S
C788 C789 1.287 . S
C789 C788 1.287 . S
C789 C790 1.524 . S
C789 H792 0.999 . S
C790 H760 0.950 . S
C790 C789 1.524 . S
C790 C791 1.415 . S
C791 H761 0.950 . S
C791 C786 1.363 . S
C791 C790 1.415 . S
H792 C789 0.999 . S
H793 C774 0.913 . S
H794 C812 0.951 . S
H795 C814 0.951 . S
H796 C816 0.950 . S
H797 C817 0.950 . S
H798 C819 0.950 . S
H799 C822 0.950 . S
H800 C823 0.950 . S
H801 C825 0.950 . S
H802 C826 0.950 . S
H803 C827 0.951 . S
H804 C829 0.951 . S
H805 C831 0.950 . S
H806 C832 0.950 . S
H807 C834 0.950 . S
H808 C837 0.950 . S
H809 C838 0.950 . S
H810 C840 0.950 . S
H811 C841 0.950 . S
C812 H794 0.951 . S
C812 C813 1.366 . S
C812 C814 1.388 . S
C813 C812 1.366 . S
C813 C817 1.385 . S
C814 H795 0.951 . S
C814 C812 1.388 . S
C814 C815 1.366 . S
C815 C814 1.366 . S
C815 C816 1.414 . S
C815 C818 1.499 . S
C816 H796 0.950 . S
C816 C815 1.414 . S
C816 C817 1.374 . S
C817 H797 0.950 . S
C817 C813 1.385 . S
C817 C816 1.374 . S
C818 C815 1.499 . S
C818 C819 1.373 . S
C818 C820 1.389 . S
C819 H798 0.950 . S
C819 C818 1.373 . S
C819 C835 1.377 . S
C820 C818 1.389 . S
C820 C821 1.524 . S
C820 C834 1.377 . S
C821 C820 1.524 . S
C821 C822 1.397 . S
C821 C826 1.363 . S
C822 H799 0.950 . S
C822 C821 1.397 . S
C822 C823 1.334 . S
C823 H800 0.950 . S
C823 C822 1.334 . S
C823 C824 1.287 . S
C824 C823 1.287 . S
C824 C825 1.524 . S
C824 H843 0.913 . S
C825 H801 0.950 . S
C825 C824 1.524 . S
C825 C826 1.415 . S
C826 H802 0.950 . S
C826 C821 1.363 . S
C826 C825 1.415 . S
C827 H803 0.951 . S
C827 C828 1.366 . S
C827 C829 1.388 . S
C828 C827 1.366 . S
C828 C832 1.385 . S
C829 H804 0.951 . S
C829 C827 1.388 . S
C829 C830 1.366 . S
C830 C829 1.366 . S
C830 C831 1.414 . S
C830 C833 1.499 . S
C831 H805 0.950 . S
C831 C830 1.414 . S
C831 C832 1.374 . S
C832 H806 0.950 . S
C832 C828 1.385 . S
C832 C831 1.374 . S
C833 C830 1.499 . S
C833 C834 1.373 . S
C833 C835 1.389 . S
C834 H807 0.950 . S
C834 C820 1.377 . S
C834 C833 1.373 . S
C835 C819 1.377 . S
C835 C833 1.389 . S
C835 C836 1.524 . S
C836 C835 1.524 . S
C836 C837 1.397 . S
C836 C841 1.363 . S
C837 H808 0.950 . S
C837 C836 1.397 . S
C837 C838 1.334 . S
C838 H809 0.950 . S
C838 C837 1.334 . S
C838 C839 1.287 . S
C839 C838 1.287 . S
C839 C840 1.524 . S
C839 H842 0.999 . S
C840 H810 0.950 . S
C840 C839 1.524 . S
C840 C841 1.415 . S
C841 H811 0.950 . S
C841 C836 1.363 . S
C841 C840 1.415 . S
H842 C839 0.999 . S
H843 C824 0.913 . S
H844 C862 0.951 . S
H845 C864 0.951 . S
H846 C866 0.950 . S
H847 C867 0.950 . S
H848 C869 0.950 . S
H849 C872 0.950 . S
H850 C873 0.950 . S
H851 C875 0.950 . S
H852 C876 0.950 . S
H853 C877 0.951 . S
H854 C879 0.951 . S
H855 C881 0.950 1_655 S
H856 C882 0.950 . S
H857 C884 0.950 1_655 S
H858 C887 0.951 . S
H859 C888 0.950 . S
H860 C890 0.950 . S
H861 C891 0.950 . S
C862 H844 0.951 . S
C862 C863 1.367 1_655 S
C862 C864 1.388 . S
C863 C862 1.367 1_455 S
C863 C867 1.383 . S
C864 H845 0.951 . S
C864 C862 1.388 . S
C864 C865 1.366 1_654 S
C865 C864 1.366 1_456 S
C865 C866 1.414 . S
C865 C868 1.499 . S
C866 H846 0.950 . S
C866 C865 1.414 . S
C866 C867 1.374 1_556 S
C867 H847 0.950 . S
C867 C863 1.383 . S
C867 C866 1.374 1_554 S
C868 C865 1.499 . S
C868 C869 1.373 . S
C868 C870 1.389 1_455 S
C869 H848 0.950 . S
C869 C868 1.373 . S
C869 C885 1.377 . S
C870 C868 1.389 1_655 S
C870 C871 1.524 . S
C870 C884 1.377 1_655 S
C871 C870 1.524 . S
C871 C872 1.397 . S
C871 C876 1.363 . S
C872 H849 0.950 . S
C872 C871 1.397 . S
C872 C873 1.334 . S
C873 H850 0.950 . S
C873 C872 1.334 . S
C873 C874 1.287 . S
C874 C873 1.287 . S
C874 C875 1.524 . S
C874 H893 0.913 . S
C875 H851 0.950 . S
C875 C874 1.524 . S
C875 C876 1.415 . S
C876 H852 0.950 . S
C876 C871 1.363 . S
C876 C875 1.415 . S
C877 H853 0.951 . S
C877 C878 1.366 . S
C877 C879 1.388 . S
C878 C877 1.366 . S
C878 C882 1.385 . S
C879 H854 0.951 . S
C879 C877 1.388 . S
C879 C880 1.366 . S
C880 C879 1.366 . S
C880 C881 1.414 . S
C880 C883 1.499 . S
C881 H855 0.950 1_455 S
C881 C880 1.414 . S
C881 C882 1.374 . S
C882 H856 0.950 . S
C882 C878 1.385 . S
C882 C881 1.374 . S
C883 C880 1.499 . S
C883 C884 1.373 . S
C883 C885 1.389 . S
C884 H857 0.950 1_455 S
C884 C870 1.377 1_455 S
C884 C883 1.373 . S
C885 C869 1.377 . S
C885 C883 1.389 . S
C885 C886 1.524 . S
C886 C885 1.524 . S
C886 C887 1.397 . S
C886 C891 1.363 . S
C887 H858 0.951 . S
C887 C886 1.397 . S
C887 C888 1.334 1_556 S
C888 H859 0.950 . S
C888 C887 1.334 1_554 S
C888 C889 1.287 . S
C889 C888 1.287 . S
C889 C890 1.524 1_554 S
C889 H892 0.999 . S
C890 H860 0.950 . S
C890 C889 1.524 1_556 S
C890 C891 1.415 . S
C891 H861 0.950 . S
C891 C886 1.363 . S
C891 C890 1.415 . S
H892 C889 0.999 . S
H893 C874 0.913 . S
H894 C912 0.951 . S
H895 C914 0.951 . S
H896 C916 0.950 . S
H897 C917 0.950 . S
H898 C919 0.950 . S
H899 C922 0.950 . S
H900 C923 0.950 . S
H901 C925 0.950 . S
H902 C926 0.950 . S
H903 C927 0.951 . S
H904 C929 0.951 . S
H905 C931 0.950 1_565 S
H906 C932 0.950 . S
H907 C934 0.950 . S
H908 C937 0.950 . S
H909 C938 0.950 . S
H910 C940 0.950 . S
H911 C941 0.950 . S
C912 H894 0.951 . S
C912 C913 1.373 . S
C912 C914 1.388 1_554 S
C913 C912 1.373 . S
C913 C917 1.375 1_564 S
C914 H895 0.951 . S
C914 C912 1.388 1_556 S
C914 C915 1.366 1_565 S
C915 C914 1.366 1_545 S
C915 C916 1.414 . S
C915 C918 1.499 . S
C916 H896 0.950 . S
C916 C915 1.414 . S
C916 C917 1.374 . S
C917 H897 0.950 . S
C917 C913 1.375 1_546 S
C917 C916 1.374 . S
C918 C915 1.499 . S
C918 C919 1.373 . S
C918 C920 1.389 1_545 S
C919 H898 0.950 . S
C919 C918 1.373 . S
C919 C935 1.377 . S
C920 C918 1.389 1_565 S
C920 C921 1.524 . S
C920 C934 1.377 . S
C921 C920 1.524 . S
C921 C922 1.397 . S
C921 C926 1.363 . S
C922 H899 0.950 . S
C922 C921 1.397 . S
C922 C923 1.334 . S
C923 H900 0.950 . S
C923 C922 1.334 . S
C923 C924 1.287 . S
C924 C923 1.287 . S
C924 C925 1.524 . S
C924 H943 0.913 . S
C925 H901 0.950 . S
C925 C924 1.524 . S
C925 C926 1.415 . S
C926 H902 0.950 . S
C926 C921 1.363 . S
C926 C925 1.415 . S
C927 H903 0.951 . S
C927 C928 1.366 . S
C927 C929 1.388 . S
C928 C927 1.366 . S
C928 C932 1.385 . S
C929 H904 0.951 . S
C929 C927 1.388 . S
C929 C930 1.366 . S
C930 C929 1.366 . S
C930 C931 1.414 . S
C930 C933 1.499 . S
C931 H905 0.950 1_545 S
C931 C930 1.414 . S
C931 C932 1.374 . S
C932 H906 0.950 . S
C932 C928 1.385 . S
C932 C931 1.374 . S
C933 C930 1.499 . S
C933 C934 1.373 1_545 S
C933 C935 1.389 . S
C934 H907 0.950 . S
C934 C920 1.377 . S
C934 C933 1.373 1_565 S
C935 C919 1.377 . S
C935 C933 1.389 . S
C935 C936 1.524 . S
C936 C935 1.524 . S
C936 C937 1.397 . S
C936 C941 1.363 . S
C937 H908 0.950 . S
C937 C936 1.397 . S
C937 C938 1.334 . S
C938 H909 0.950 . S
C938 C937 1.334 . S
C938 C939 1.287 . S
C939 C938 1.287 . S
C939 C940 1.524 . S
C939 H942 0.999 . S
C940 H910 0.950 . S
C940 C939 1.524 . S
C940 C941 1.415 . S
C941 H911 0.950 . S
C941 C936 1.363 . S
C941 C940 1.415 . S
H942 C939 0.999 . S
H943 C924 0.913 . S
H944 C962 0.951 . S
H945 C964 0.951 . S
H946 C966 0.950 . S
H947 C967 0.950 . S
H948 C969 0.950 . S
H949 C972 0.950 . S
H950 C973 0.950 1_554 S
H951 C975 0.950 . S
H952 C976 0.950 . S
H953 C977 0.951 . S
H954 C979 0.951 . S
H955 C981 0.950 . S
H956 C982 0.950 . S
H957 C984 0.950 . S
H958 C987 0.950 . S
H959 C988 0.950 . S
H960 C990 0.950 . S
H961 C991 0.950 . S
C962 H944 0.951 . S
C962 C963 1.366 . S
C962 C964 1.388 . S
C963 C962 1.366 . S
C963 C967 1.385 1_556 S
C964 H945 0.951 . S
C964 C962 1.388 . S
C964 C965 1.366 . S
C965 C964 1.366 . S
C965 C966 1.414 . S
C965 C968 1.499 . S
C966 H946 0.950 . S
C966 C965 1.414 . S
C966 C967 1.374 1_556 S
C967 H947 0.950 . S
C967 C963 1.385 1_554 S
C967 C966 1.374 1_554 S
C968 C965 1.499 . S
C968 C969 1.373 . S
C968 C970 1.389 . S
C969 H948 0.950 . S
C969 C968 1.373 . S
C969 C985 1.377 . S
C970 C968 1.389 . S
C970 C971 1.524 . S
C970 C984 1.377 . S
C971 C970 1.524 . S
C971 C972 1.397 . S
C971 C976 1.363 . S
C972 H949 0.950 . S
C972 C971 1.397 . S
C972 C973 1.334 . S
C973 H950 0.950 1_556 S
C973 C972 1.334 . S
C973 C974 1.287 . S
C974 C973 1.287 . S
C974 C975 1.524 . S
C974 H993 0.913 . S
C975 H951 0.950 . S
C975 C974 1.524 . S
C975 C976 1.415 . S
C976 H952 0.950 . S
C976 C971 1.363 . S
C976 C975 1.415 . S
C977 H953 0.951 . S
C977 C978 1.366 . S
C977 C979 1.388 . S
C978 C977 1.366 . S
C978 C982 1.385 . S
C979 H954 0.951 . S
C979 C977 1.388 . S
C979 C980 1.366 . S
C980 C979 1.366 . S
C980 C981 1.414 . S
C980 C983 1.499 . S
C981 H955 0.950 . S
C981 C980 1.414 . S
C981 C982 1.374 . S
C982 H956 0.950 . S
C982 C978 1.385 . S
C982 C981 1.374 . S
C983 C980 1.499 . S
C983 C984 1.373 . S
C983 C985 1.389 . S
C984 H957 0.950 . S
C984 C970 1.377 . S
C984 C983 1.373 . S
C985 C969 1.377 . S
C985 C983 1.389 . S
C985 C986 1.524 . S
C986 C985 1.524 . S
C986 C987 1.397 . S
C986 C991 1.363 . S
C987 H958 0.950 . S
C987 C986 1.397 . S
C987 C988 1.334 . S
C988 H959 0.950 . S
C988 C987 1.334 . S
C988 C989 1.287 . S
C989 C988 1.287 . S
C989 C990 1.524 . S
C989 H992 0.999 . S
C990 H960 0.950 . S
C990 C989 1.524 . S
C990 C991 1.415 . S
C991 H961 0.950 . S
C991 C986 1.363 . S
C991 C990 1.415 . S
H992 C989 0.999 . S
H993 C974 0.913 . S
H994 C1012 0.951 . S
H995 C1014 0.951 . S
H996 C1016 0.950 . S
H997 C1017 0.950 1_554 S
H998 C1019 0.950 . S
H999 C1022 0.950 . S
H1000 C1023 0.950 . S
H1001 C1025 0.950 . S
H1002 C1026 0.950 . S
H1003 C1027 0.951 . S
H1004 C1029 0.951 . S
H1005 C1031 0.950 . S
H1006 C1032 0.950 . S
H1007 C1034 0.950 . S
H1008 C1037 0.950 . S
H1009 C1038 0.950 . S
H1010 C1040 0.950 . S
H1011 C1041 0.950 . S
C1012 H994 0.951 . S
C1012 C1013 1.366 . S
C1012 C1014 1.388 . S
C1013 C1012 1.366 . S
C1013 C1017 1.385 . S
C1014 H995 0.951 . S
C1014 C1012 1.388 . S
C1014 C1015 1.366 . S
C1015 C1014 1.366 . S
C1015 C1016 1.414 . S
C1015 C1018 1.499 . S
C1016 H996 0.950 . S
C1016 C1015 1.414 . S
C1016 C1017 1.374 . S
C1017 H997 0.950 1_556 S
C1017 C1013 1.385 . S
C1017 C1016 1.374 . S
C1018 C1015 1.499 . S
C1018 C1019 1.373 . S
C1018 C1020 1.389 . S
C1019 H998 0.950 . S
C1019 C1018 1.373 . S
C1019 C1035 1.377 . S
C1020 C1018 1.389 . S
C1020 C1021 1.524 . S
C1020 C1034 1.377 . S
C1021 C1020 1.524 . S
C1021 C1022 1.397 . S
C1021 C1026 1.363 . S
C1022 H999 0.950 . S
C1022 C1021 1.397 . S
C1022 C1023 1.334 . S
C1023 H1000 0.950 . S
C1023 C1022 1.334 . S
C1023 C1024 1.287 . S
C1024 C1023 1.287 . S
C1024 C1025 1.524 . S
C1024 H1043 0.913 . S
C1025 H1001 0.950 . S
C1025 C1024 1.524 . S
C1025 C1026 1.415 . S
C1026 H1002 0.950 . S
C1026 C1021 1.363 . S
C1026 C1025 1.415 . S
C1027 H1003 0.951 . S
C1027 C1028 1.366 . S
C1027 C1029 1.388 . S
C1028 C1027 1.366 . S
C1028 C1032 1.385 . S
C1029 H1004 0.951 . S
C1029 C1027 1.388 . S
C1029 C1030 1.366 . S
C1030 C1029 1.366 . S
C1030 C1031 1.414 . S
C1030 C1033 1.499 . S
C1031 H1005 0.950 . S
C1031 C1030 1.414 . S
C1031 C1032 1.374 . S
C1032 H1006 0.950 . S
C1032 C1028 1.385 . S
C1032 C1031 1.374 . S
C1033 C1030 1.499 . S
C1033 C1034 1.373 . S
C1033 C1035 1.389 . S
C1034 H1007 0.950 . S
C1034 C1020 1.377 . S
C1034 C1033 1.373 . S
C1035 C1019 1.377 . S
C1035 C1033 1.389 . S
C1035 C1036 1.524 . S
C1036 C1035 1.524 . S
C1036 C1037 1.397 . S
C1036 C1041 1.363 . S
C1037 H1008 0.950 . S
C1037 C1036 1.397 . S
C1037 C1038 1.334 . S
C1038 H1009 0.950 . S
C1038 C1037 1.334 . S
C1038 C1039 1.287 . S
C1039 C1038 1.287 . S
C1039 C1040 1.524 . S
C1039 H1042 0.999 . S
C1040 H1010 0.950 . S
C1040 C1039 1.524 . S
C1040 C1041 1.415 . S
C1041 H1011 0.950 . S
C1041 C1036 1.363 . S
C1041 C1040 1.415 . S
H1042 C1039 0.999 . S
H1043 C1024 0.913 . S
H1044 C1062 0.951 . S
H1045 C1064 0.951 . S
H1046 C1066 0.950 . S
H1047 C1067 0.950 . S
H1048 C1069 0.950 . S
H1049 C1072 0.950 . S
H1050 C1073 0.950 . S
H1051 C1075 0.950 . S
H1052 C1076 0.926 1_455 S
H1053 C1077 0.951 . S
H1054 C1079 0.951 1_554 S
H1055 C1081 0.950 . S
H1056 C1082 0.950 . S
H1057 C1084 0.950 1_556 S
H1058 C1087 0.950 1_556 S
H1059 C1088 0.950 1_556 S
H1060 C1090 0.950 . S
H1061 C1091 0.950 . S
C1062 H1044 0.951 . S
C1062 C1063 1.366 . S
C1062 C1064 1.388 . S
C1063 C1062 1.366 . S
C1063 C1067 1.385 . S
C1064 H1045 0.951 . S
C1064 C1062 1.388 . S
C1064 C1065 1.366 . S
C1065 C1064 1.366 . S
C1065 C1066 1.414 . S
C1065 C1068 1.499 . S
C1066 H1046 0.950 . S
C1066 C1065 1.414 . S
C1066 C1067 1.374 . S
C1067 H1047 0.950 . S
C1067 C1063 1.385 . S
C1067 C1066 1.374 . S
C1068 C1065 1.499 . S
C1068 C1069 1.373 . S
C1068 C1070 1.389 . S
C1069 H1048 0.950 . S
C1069 C1068 1.373 . S
C1069 C1085 1.377 . S
C1070 C1068 1.389 . S
C1070 C1071 1.524 1_455 S
C1070 C1084 1.377 . S
C1071 C1070 1.524 1_655 S
C1071 C1072 1.397 . S
C1071 C1076 1.363 1_554 S
C1072 H1049 0.950 . S
C1072 C1071 1.397 . S
C1072 C1073 1.334 . S
C1073 H1050 0.950 . S
C1073 C1072 1.334 . S
C1073 C1074 1.287 . S
C1074 C1073 1.287 . S
C1074 C1075 1.524 1_554 S
C1074 H1093 0.913 . S
C1075 H1051 0.950 . S
C1075 C1074 1.524 1_556 S
C1075 C1076 1.415 . S
C1076 H1052 0.926 1_655 S
C1076 C1071 1.363 1_556 S
C1076 C1075 1.415 . S
C1077 H1053 0.951 . S
C1077 C1078 1.366 . S
C1077 C1079 1.388 . S
C1078 C1077 1.366 . S
C1078 C1082 1.385 . S
C1079 H1054 0.951 1_556 S
C1079 C1077 1.388 . S
C1079 C1080 1.366 . S
C1080 C1079 1.366 . S
C1080 C1081 1.414 . S
C1080 C1083 1.499 1_556 S
C1081 H1055 0.950 . S
C1081 C1080 1.414 . S
C1081 C1082 1.374 . S
C1082 H1056 0.950 . S
C1082 C1078 1.385 . S
C1082 C1081 1.374 . S
C1083 C1080 1.499 1_554 S
C1083 C1084 1.373 . S
C1083 C1085 1.389 . S
C1084 H1057 0.950 1_554 S
C1084 C1070 1.377 . S
C1084 C1083 1.373 . S
C1085 C1069 1.377 . S
C1085 C1083 1.389 . S
C1085 C1086 1.524 . S
C1086 C1085 1.524 . S
C1086 C1087 1.397 . S
C1086 C1091 1.363 . S
C1087 H1058 0.950 1_554 S
C1087 C1086 1.397 . S
C1087 C1088 1.334 . S
C1088 H1059 0.950 1_554 S
C1088 C1087 1.334 . S
C1088 C1089 1.287 . S
C1089 C1088 1.287 . S
C1089 C1090 1.524 . S
C1089 H1092 0.999 . S
C1090 H1060 0.950 . S
C1090 C1089 1.524 . S
C1090 C1091 1.415 . S
C1091 H1061 0.950 . S
C1091 C1086 1.363 . S
C1091 C1090 1.415 . S
H1092 C1089 0.999 . S
H1093 C1074 0.913 . S
H1094 C1112 0.951 . S
H1095 C1114 0.951 . S
H1096 C1116 0.950 . S
H1097 C1117 0.950 . S
H1098 C1119 0.950 . S
H1099 C1122 0.950 . S
H1100 C1123 0.950 . S
H1101 C1125 0.950 . S
H1102 C1126 0.950 1_554 S
H1103 C1127 0.951 . S
H1104 C1129 0.951 . S
H1105 C1131 0.950 . S
H1106 C1132 0.950 . S
H1107 C1134 0.950 . S
H1108 C1137 0.950 . S
H1109 C1138 0.950 . S
H1110 C1140 0.950 . S
H1111 C1141 0.950 . S
C1112 H1094 0.951 . S
C1112 C1113 1.366 . S
C1112 C1114 1.388 . S
C1113 C1112 1.366 . S
C1113 C1117 1.385 1_545 S
C1114 H1095 0.951 . S
C1114 C1112 1.388 . S
C1114 C1115 1.366 . S
C1115 C1114 1.366 . S
C1115 C1116 1.414 1_545 S
C1115 C1118 1.499 . S
C1116 H1096 0.950 . S
C1116 C1115 1.414 1_565 S
C1116 C1117 1.374 . S
C1117 H1097 0.950 . S
C1117 C1113 1.385 1_565 S
C1117 C1116 1.374 . S
C1118 C1115 1.499 . S
C1118 C1119 1.373 1_545 S
C1118 C1120 1.389 . S
C1119 H1098 0.950 . S
C1119 C1118 1.373 1_565 S
C1119 C1135 1.377 . S
C1120 C1118 1.389 . S
C1120 C1121 1.524 1_554 S
C1120 C1134 1.377 1_554 S
C1121 C1120 1.524 1_556 S
C1121 C1122 1.397 . S
C1121 C1126 1.363 . S
C1122 H1099 0.950 . S
C1122 C1121 1.397 . S
C1122 C1123 1.334 . S
C1123 H1100 0.950 . S
C1123 C1122 1.334 . S
C1123 C1124 1.287 . S
C1124 C1123 1.287 . S
C1124 C1125 1.524 . S
C1124 H1143 0.913 . S
C1125 H1101 0.950 . S
C1125 C1124 1.524 . S
C1125 C1126 1.415 . S
C1126 H1102 0.950 1_556 S
C1126 C1121 1.363 . S
C1126 C1125 1.415 . S
C1127 H1103 0.951 . S
C1127 C1128 1.366 1_565 S
C1127 C1129 1.388 . S
C1128 C1127 1.366 1_545 S
C1128 C1132 1.385 . S
C1129 H1104 0.951 . S
C1129 C1127 1.388 . S
C1129 C1130 1.366 1_565 S
C1130 C1129 1.366 1_545 S
C1130 C1131 1.414 . S
C1130 C1133 1.499 . S
C1131 H1105 0.950 . S
C1131 C1130 1.414 . S
C1131 C1132 1.374 . S
C1132 H1106 0.950 . S
C1132 C1128 1.385 . S
C1132 C1131 1.374 . S
C1133 C1130 1.499 . S
C1133 C1134 1.373 . S
C1133 C1135 1.389 1_546 S
C1134 H1107 0.950 . S
C1134 C1120 1.377 1_556 S
C1134 C1133 1.373 . S
C1135 C1119 1.377 . S
C1135 C1133 1.389 1_564 S
C1135 C1136 1.524 . S
C1136 C1135 1.524 . S
C1136 C1137 1.397 . S
C1136 C1141 1.363 . S
C1137 H1108 0.950 . S
C1137 C1136 1.397 . S
C1137 C1138 1.334 . S
C1138 H1109 0.950 . S
C1138 C1137 1.334 . S
C1138 C1139 1.287 . S
C1139 C1138 1.287 . S
C1139 C1140 1.524 . S
C1139 H1142 0.999 . S
C1140 H1110 0.950 . S
C1140 C1139 1.524 . S
C1140 C1141 1.415 . S
C1141 H1111 0.950 . S
C1141 C1136 1.363 . S
C1141 C1140 1.415 . S
H1142 C1139 0.999 . S
H1143 C1124 0.913 . S
H1144 C1162 0.951 . S
H1145 C1164 0.951 . S
H1146 C1166 0.950 1_556 S
H1147 C1167 0.950 . S
H1148 C1169 0.950 . S
H1149 C1172 0.950 . S
H1150 C1173 0.950 . S
H1151 C1175 0.950 . S
H1152 C1176 0.950 . S
H1153 C1177 0.951 . S
H1154 C1179 0.951 . S
H1155 C1181 0.950 . S
H1156 C1182 0.950 . S
H1157 C1184 0.947 1_554 S
H1158 C1187 0.950 . S
H1159 C1188 0.950 . S
H1160 C1190 0.950 . S
H1161 C1191 0.950 . S
C1162 H1144 0.951 . S
C1162 C1163 1.366 . S
C1162 C1164 1.388 . S
C1163 C1162 1.366 . S
C1163 C1167 1.385 . S
C1164 H1145 0.951 . S
C1164 C1162 1.388 . S
C1164 C1165 1.366 . S
C1165 C1164 1.366 . S
C1165 C1166 1.414 . S
C1165 C1168 1.499 . S
C1166 H1146 0.950 1_554 S
C1166 C1165 1.414 . S
C1166 C1167 1.374 . S
C1167 H1147 0.950 . S
C1167 C1163 1.385 . S
C1167 C1166 1.374 . S
C1168 C1165 1.499 . S
C1168 C1169 1.373 1_554 S
C1168 C1170 1.389 . S
C1169 H1148 0.950 . S
C1169 C1168 1.373 1_556 S
C1169 C1185 1.377 . S
C1170 C1168 1.389 . S
C1170 C1171 1.524 . S
C1170 C1184 1.377 1_554 S
C1171 C1170 1.524 . S
C1171 C1172 1.397 . S
C1171 C1176 1.363 . S
C1172 H1149 0.950 . S
C1172 C1171 1.397 . S
C1172 C1173 1.334 . S
C1173 H1150 0.950 . S
C1173 C1172 1.334 . S
C1173 C1174 1.287 . S
C1174 C1173 1.287 . S
C1174 C1175 1.524 . S
C1174 H1193 0.913 . S
C1175 H1151 0.950 . S
C1175 C1174 1.524 . S
C1175 C1176 1.415 . S
C1176 H1152 0.950 . S
C1176 C1171 1.363 . S
C1176 C1175 1.415 . S
C1177 H1153 0.951 . S
C1177 C1178 1.366 . S
C1177 C1179 1.388 . S
C1178 C1177 1.366 . S
C1178 C1182 1.385 . S
C1179 H1154 0.951 . S
C1179 C1177 1.388 . S
C1179 C1180 1.366 . S
C1180 C1179 1.366 . S
C1180 C1181 1.414 . S
C1180 C1183 1.499 . S
C1181 H1155 0.950 . S
C1181 C1180 1.414 . S
C1181 C1182 1.374 . S
C1182 H1156 0.950 . S
C1182 C1178 1.385 . S
C1182 C1181 1.374 . S
C1183 C1180 1.499 . S
C1183 C1184 1.373 . S
C1183 C1185 1.389 . S
C1184 H1157 0.947 1_556 S
C1184 C1170 1.377 1_556 S
C1184 C1183 1.373 . S
C1185 C1169 1.377 . S
C1185 C1183 1.389 . S
C1185 C1186 1.524 . S
C1186 C1185 1.524 . S
C1186 C1187 1.397 . S
C1186 C1191 1.363 . S
C1187 H1158 0.950 . S
C1187 C1186 1.397 . S
C1187 C1188 1.334 . S
C1188 H1159 0.950 . S
C1188 C1187 1.334 . S
C1188 C1189 1.287 . S
C1189 C1188 1.287 . S
C1189 C1190 1.524 . S
C1189 H1192 0.999 . S
C1190 H1160 0.950 . S
C1190 C1189 1.524 . S
C1190 C1191 1.415 . S
C1191 H1161 0.950 . S
C1191 C1186 1.363 . S
C1191 C1190 1.415 . S
H1192 C1189 0.999 . S
H1193 C1174 0.913 . S
H1194 C1212 0.951 . S
H1195 C1214 0.951 . S
H1196 C1216 0.950 . S
H1197 C1217 0.950 . S
H1198 C1219 0.950 . S
H1199 C1222 0.950 . S
H1200 C1223 0.950 . S
H1201 C1225 0.950 . S
H1202 C1226 0.950 . S
H1203 C1227 0.951 . S
H1204 C1229 0.951 . S
H1205 C1231 0.950 . S
H1206 C1232 0.950 . S
H1207 C1234 0.950 . S
H1208 C1237 0.950 . S
H1209 C1238 0.950 . S
H1210 C1240 0.950 . S
H1211 C1241 0.950 . S
C1212 H1194 0.951 . S
C1212 C1213 1.366 . S
C1212 C1214 1.388 . S
C1213 C1212 1.366 . S
C1213 C1217 1.385 . S
C1214 H1195 0.951 . S
C1214 C1212 1.388 . S
C1214 C1215 1.366 . S
C1215 C1214 1.366 . S
C1215 C1216 1.414 . S
C1215 C1218 1.499 . S
C1216 H1196 0.950 . S
C1216 C1215 1.414 . S
C1216 C1217 1.374 . S
C1217 H1197 0.950 . S
C1217 C1213 1.385 . S
C1217 C1216 1.374 . S
C1218 C1215 1.499 . S
C1218 C1219 1.373 . S
C1218 C1220 1.389 1_554 S
C1219 H1198 0.950 . S
C1219 C1218 1.373 . S
C1219 C1235 1.377 . S
C1220 C1218 1.389 1_556 S
C1220 C1221 1.524 . S
C1220 C1234 1.377 . S
C1221 C1220 1.524 . S
C1221 C1222 1.397 . S
C1221 C1226 1.363 . S
C1222 H1199 0.950 . S
C1222 C1221 1.397 . S
C1222 C1223 1.334 . S
C1223 H1200 0.950 . S
C1223 C1222 1.334 . S
C1223 C1224 1.287 . S
C1224 C1223 1.287 . S
C1224 C1225 1.524 . S
C1224 H1243 0.913 . S
C1225 H1201 0.950 . S
C1225 C1224 1.524 . S
C1225 C1226 1.415 . S
C1226 H1202 0.950 . S
C1226 C1221 1.363 . S
C1226 C1225 1.415 . S
C1227 H1203 0.951 . S
C1227 C1228 1.366 . S
C1227 C1229 1.388 . S
C1228 C1227 1.366 . S
C1228 C1232 1.385 . S
C1229 H1204 0.951 . S
C1229 C1227 1.388 . S
C1229 C1230 1.366 . S
C1230 C1229 1.366 . S
C1230 C1231 1.414 . S
C1230 C1233 1.499 . S
C1231 H1205 0.950 . S
C1231 C1230 1.414 . S
C1231 C1232 1.374 . S
C1232 H1206 0.950 . S
C1232 C1228 1.385 . S
C1232 C1231 1.374 . S
C1233 C1230 1.499 . S
C1233 C1234 1.373 . S
C1233 C1235 1.389 1_556 S
C1234 H1207 0.950 . S
C1234 C1220 1.377 . S
C1234 C1233 1.373 . S
C1235 C1219 1.377 . S
C1235 C1233 1.389 1_554 S
C1235 C1236 1.524 . S
C1236 C1235 1.524 . S
C1236 C1237 1.397 . S
C1236 C1241 1.363 . S
C1237 H1208 0.950 . S
C1237 C1236 1.397 . S
C1237 C1238 1.334 . S
C1238 H1209 0.950 . S
C1238 C1237 1.334 . S
C1238 C1239 1.287 . S
C1239 C1238 1.287 . S
C1239 C1240 1.524 . S
C1239 H1242 0.999 . S
C1240 H1210 0.950 . S
C1240 C1239 1.524 . S
C1240 C1241 1.415 . S
C1241 H1211 0.950 . S
C1241 C1236 1.363 . S
C1241 C1240 1.415 . S
H1242 C1239 0.999 . S
H1243 C1224 0.913 . S
H1244 C1262 0.951 . S
H1245 C1264 0.951 . S
H1246 C1266 0.950 . S
H1247 C1267 0.950 . S
H1248 C1269 0.965 . S
H1249 C1272 0.950 . S
H1250 C1273 0.950 . S
H1251 C1275 0.950 . S
H1252 C1276 0.950 . S
H1253 C1277 0.951 . S
H1254 C1279 0.951 . S
H1255 C1281 0.950 . S
H1256 C1282 0.950 . S
H1257 C1284 0.950 . S
H1258 C1287 0.950 . S
H1259 C1288 0.950 . S
H1260 C1290 0.950 . S
H1261 C1291 0.950 . S
C1262 H1244 0.951 . S
C1262 C1263 1.362 . S
C1262 C1264 1.388 . S
C1263 C1262 1.362 . S
C1263 C1267 1.388 1_655 S
C1264 H1245 0.951 . S
C1264 C1262 1.388 . S
C1264 C1265 1.366 . S
C1265 C1264 1.366 . S
C1265 C1266 1.414 1_655 S
C1265 C1268 1.499 . S
C1266 H1246 0.950 . S
C1266 C1265 1.414 1_455 S
C1266 C1267 1.374 . S
C1267 H1247 0.950 . S
C1267 C1263 1.388 1_455 S
C1267 C1266 1.374 . S
C1268 C1265 1.499 . S
C1268 C1269 1.366 1_655 S
C1268 C1270 1.389 . S
C1269 H1248 0.965 . S
C1269 C1268 1.366 1_455 S
C1269 C1285 1.371 1_455 S
C1270 C1268 1.389 . S
C1270 C1271 1.524 . S
C1270 C1284 1.377 . S
C1271 C1270 1.524 . S
C1271 C1272 1.397 1_655 S
C1271 C1276 1.363 . S
C1272 H1249 0.950 . S
C1272 C1271 1.397 1_455 S
C1272 C1273 1.334 . S
C1273 H1250 0.950 . S
C1273 C1272 1.334 . S
C1273 C1274 1.287 1_455 S
C1274 C1273 1.287 1_655 S
C1274 C1275 1.524 . S
C1274 H1293 0.913 . S
C1275 H1251 0.950 . S
C1275 C1274 1.524 . S
C1275 C1276 1.415 . S
C1276 H1252 0.950 . S
C1276 C1271 1.363 . S
C1276 C1275 1.415 . S
C1277 H1253 0.951 . S
C1277 C1278 1.366 1_455 S
C1277 C1279 1.388 . S
C1278 C1277 1.366 1_655 S
C1278 C1282 1.385 . S
C1279 H1254 0.951 . S
C1279 C1277 1.388 . S
C1279 C1280 1.366 1_455 S
C1280 C1279 1.366 1_655 S
C1280 C1281 1.414 . S
C1280 C1283 1.499 . S
C1281 H1255 0.950 . S
C1281 C1280 1.414 . S
C1281 C1282 1.374 . S
C1282 H1256 0.950 . S
C1282 C1278 1.385 . S
C1282 C1281 1.374 . S
C1283 C1280 1.499 . S
C1283 C1284 1.373 . S
C1283 C1285 1.389 . S
C1284 H1257 0.950 . S
C1284 C1270 1.377 . S
C1284 C1283 1.373 . S
C1285 C1269 1.371 1_655 S
C1285 C1283 1.389 . S
C1285 C1286 1.521 1_655 S
C1286 C1285 1.521 1_455 S
C1286 C1287 1.368 1_455 S
C1286 C1291 1.392 . S
C1287 H1258 0.950 . S
C1287 C1286 1.368 1_655 S
C1287 C1288 1.334 . S
C1288 H1259 0.950 . S
C1288 C1287 1.334 . S
C1288 C1289 1.309 . S
C1289 C1288 1.309 . S
C1289 C1290 1.501 1_655 S
C1289 H1292 0.996 1_655 S
C1290 H1260 0.950 . S
C1290 C1289 1.501 1_455 S
C1290 C1291 1.415 . S
C1291 H1261 0.950 . S
C1291 C1286 1.392 . S
C1291 C1290 1.415 . S
H1292 C1289 0.996 1_455 S
H1293 C1274 0.913 . S
H1294 C1312 0.951 . S
H1295 C1314 0.951 . S
H1296 C1316 0.950 . S
H1297 C1317 0.950 . S
H1298 C1319 0.950 . S
H1299 C1322 0.950 . S
H1300 C1323 0.950 . S
H1301 C1325 0.950 . S
H1302 C1326 0.950 . S
H1303 C1327 0.951 . S
H1304 C1329 0.951 . S
H1305 C1331 0.950 . S
H1306 C1332 0.950 . S
H1307 C1334 0.950 . S
H1308 C1337 0.950 . S
H1309 C1338 0.950 . S
H1310 C1340 0.950 . S
H1311 C1341 0.950 . S
C1312 H1294 0.951 . S
C1312 C1313 1.362 1_545 S
C1312 C1314 1.388 . S
C1313 C1312 1.362 1_565 S
C1313 C1317 1.390 . S
C1314 H1295 0.951 . S
C1314 C1312 1.388 . S
C1314 C1315 1.366 1_545 S
C1315 C1314 1.366 1_565 S
C1315 C1316 1.414 . S
C1315 C1318 1.499 . S
C1316 H1296 0.950 . S
C1316 C1315 1.414 . S
C1316 C1317 1.374 . S
C1317 H1297 0.950 . S
C1317 C1313 1.390 . S
C1317 C1316 1.374 . S
C1318 C1315 1.499 . S
C1318 C1319 1.373 . S
C1318 C1320 1.389 1_565 S
C1319 H1298 0.950 . S
C1319 C1318 1.373 . S
C1319 C1335 1.377 . S
C1320 C1318 1.389 1_545 S
C1320 C1321 1.524 . S
C1320 C1334 1.377 . S
C1321 C1320 1.524 . S
C1321 C1322 1.397 . S
C1321 C1326 1.363 . S
C1322 H1299 0.950 . S
C1322 C1321 1.397 . S
C1322 C1323 1.334 . S
C1323 H1300 0.950 . S
C1323 C1322 1.334 . S
C1323 C1324 1.287 . S
C1324 C1323 1.287 . S
C1324 C1325 1.524 . S
C1324 H1343 0.913 . S
C1325 H1301 0.950 . S
C1325 C1324 1.524 . S
C1325 C1326 1.415 . S
C1326 H1302 0.950 . S
C1326 C1321 1.363 . S
C1326 C1325 1.415 . S
C1327 H1303 0.951 . S
C1327 C1328 1.366 . S
C1327 C1329 1.388 . S
C1328 C1327 1.366 . S
C1328 C1332 1.385 . S
C1329 H1304 0.951 . S
C1329 C1327 1.388 . S
C1329 C1330 1.366 . S
C1330 C1329 1.366 . S
C1330 C1331 1.414 . S
C1330 C1333 1.499 . S
C1331 H1305 0.950 . S
C1331 C1330 1.414 . S
C1331 C1332 1.374 . S
C1332 H1306 0.950 . S
C1332 C1328 1.385 . S
C1332 C1331 1.374 . S
C1333 C1330 1.499 . S
C1333 C1334 1.373 1_565 S
C1333 C1335 1.389 . S
C1334 H1307 0.950 . S
C1334 C1320 1.377 . S
C1334 C1333 1.373 1_545 S
C1335 C1319 1.377 . S
C1335 C1333 1.389 . S
C1335 C1336 1.524 . S
C1336 C1335 1.524 . S
C1336 C1337 1.397 . S
C1336 C1341 1.363 . S
C1337 H1308 0.950 . S
C1337 C1336 1.397 . S
C1337 C1338 1.334 . S
C1338 H1309 0.950 . S
C1338 C1337 1.334 . S
C1338 C1339 1.287 . S
C1339 C1338 1.287 . S
C1339 C1340 1.524 . S
C1339 H1342 0.999 . S
C1340 H1310 0.950 . S
C1340 C1339 1.524 . S
C1340 C1341 1.415 . S
C1341 H1311 0.950 . S
C1341 C1336 1.363 . S
C1341 C1340 1.415 . S
H1342 C1339 0.999 . S
H1343 C1324 0.913 . S
H1344 C1362 0.951 . S
H1345 C1364 0.951 . S
H1346 C1366 0.950 . S
H1347 C1367 0.950 . S
H1348 C1369 0.950 . S
H1349 C1372 0.950 . S
H1350 C1373 0.950 . S
H1351 C1375 0.950 . S
H1352 C1376 0.950 . S
H1353 C1377 0.951 . S
H1354 C1379 0.951 . S
H1355 C1381 0.950 . S
H1356 C1382 0.950 . S
H1357 C1384 0.950 . S
H1358 C1387 0.950 . S
H1359 C1388 0.950 . S
H1360 C1390 0.950 . S
H1361 C1391 0.950 . S
C1362 H1344 0.951 . S
C1362 C1363 1.366 . S
C1362 C1364 1.388 . S
C1363 C1362 1.366 . S
C1363 C1367 1.385 . S
C1364 H1345 0.951 . S
C1364 C1362 1.388 . S
C1364 C1365 1.366 . S
C1365 C1364 1.366 . S
C1365 C1366 1.414 . S
C1365 C1368 1.499 . S
C1366 H1346 0.950 . S
C1366 C1365 1.414 . S
C1366 C1367 1.374 . S
C1367 H1347 0.950 . S
C1367 C1363 1.385 . S
C1367 C1366 1.374 . S
C1368 C1365 1.499 . S
C1368 C1369 1.373 . S
C1368 C1370 1.389 . S
C1369 H1348 0.950 . S
C1369 C1368 1.373 . S
C1369 C1385 1.377 . S
C1370 C1368 1.389 . S
C1370 C1371 1.524 . S
C1370 C1384 1.377 . S
C1371 C1370 1.524 . S
C1371 C1372 1.397 . S
C1371 C1376 1.363 . S
C1372 H1349 0.950 . S
C1372 C1371 1.397 . S
C1372 C1373 1.334 . S
C1373 H1350 0.950 . S
C1373 C1372 1.334 . S
C1373 C1374 1.287 . S
C1374 C1373 1.287 . S
C1374 C1375 1.524 . S
C1374 H1393 0.913 . S
C1375 H1351 0.950 . S
C1375 C1374 1.524 . S
C1375 C1376 1.415 . S
C1376 H1352 0.950 . S
C1376 C1371 1.363 . S
C1376 C1375 1.415 . S
C1377 H1353 0.951 . S
C1377 C1378 1.366 . S
C1377 C1379 1.388 . S
C1378 C1377 1.366 . S
C1378 C1382 1.385 . S
C1379 H1354 0.951 . S
C1379 C1377 1.388 . S
C1379 C1380 1.366 . S
C1380 C1379 1.366 . S
C1380 C1381 1.414 . S
C1380 C1383 1.499 . S
C1381 H1355 0.950 . S
C1381 C1380 1.414 . S
C1381 C1382 1.374 . S
C1382 H1356 0.950 . S
C1382 C1378 1.385 . S
C1382 C1381 1.374 . S
C1383 C1380 1.499 . S
C1383 C1384 1.373 . S
C1383 C1385 1.389 . S
C1384 H1357 0.950 . S
C1384 C1370 1.377 . S
C1384 C1383 1.373 . S
C1385 C1369 1.377 . S
C1385 C1383 1.389 . S
C1385 C1386 1.524 . S
C1386 C1385 1.524 . S
C1386 C1387 1.397 . S
C1386 C1391 1.363 . S
C1387 H1358 0.950 . S
C1387 C1386 1.397 . S
C1387 C1388 1.334 . S
C1388 H1359 0.950 . S
C1388 C1387 1.334 . S
C1388 C1389 1.287 . S
C1389 C1388 1.287 . S
C1389 C1390 1.524 . S
C1389 H1392 0.999 . S
C1390 H1360 0.950 . S
C1390 C1389 1.524 . S
C1390 C1391 1.415 . S
C1391 H1361 0.950 . S
C1391 C1386 1.363 . S
C1391 C1390 1.415 . S
H1392 C1389 0.999 . S
H1393 C1374 0.913 . S
H1394 C1412 0.951 . S
H1395 C1414 0.951 . S
H1396 C1416 0.950 . S
H1397 C1417 0.950 . S
H1398 C1419 0.950 . S
H1399 C1422 0.950 . S
H1400 C1423 0.950 . S
H1401 C1425 0.950 . S
H1402 C1426 0.950 . S
H1403 C1427 0.951 . S
H1404 C1429 0.951 . S
H1405 C1431 0.950 . S
H1406 C1432 0.950 . S
H1407 C1434 0.950 . S
H1408 C1437 0.950 . S
H1409 C1438 0.950 . S
H1410 C1440 0.950 . S
H1411 C1441 0.950 . S
C1412 H1394 0.951 . S
C1412 C1413 1.366 . S
C1412 C1414 1.388 . S
C1413 C1412 1.366 . S
C1413 C1417 1.385 . S
C1414 H1395 0.951 . S
C1414 C1412 1.388 . S
C1414 C1415 1.366 . S
C1415 C1414 1.366 . S
C1415 C1416 1.414 . S
C1415 C1418 1.499 . S
C1416 H1396 0.950 . S
C1416 C1415 1.414 . S
C1416 C1417 1.374 . S
C1417 H1397 0.950 . S
C1417 C1413 1.385 . S
C1417 C1416 1.374 . S
C1418 C1415 1.499 . S
C1418 C1419 1.373 . S
C1418 C1420 1.389 . S
C1419 H1398 0.950 . S
C1419 C1418 1.373 . S
C1419 C1435 1.377 . S
C1420 C1418 1.389 . S
C1420 C1421 1.524 . S
C1420 C1434 1.377 . S
C1421 C1420 1.524 . S
C1421 C1422 1.397 . S
C1421 C1426 1.363 . S
C1422 H1399 0.950 . S
C1422 C1421 1.397 . S
C1422 C1423 1.334 . S
C1423 H1400 0.950 . S
C1423 C1422 1.334 . S
C1423 C1424 1.287 . S
C1424 C1423 1.287 . S
C1424 C1425 1.524 . S
C1424 H1443 0.913 . S
C1425 H1401 0.950 . S
C1425 C1424 1.524 . S
C1425 C1426 1.415 . S
C1426 H1402 0.950 . S
C1426 C1421 1.363 . S
C1426 C1425 1.415 . S
C1427 H1403 0.951 . S
C1427 C1428 1.366 . S
C1427 C1429 1.388 . S
C1428 C1427 1.366 . S
C1428 C1432 1.385 . S
C1429 H1404 0.951 . S
C1429 C1427 1.388 . S
C1429 C1430 1.366 . S
C1430 C1429 1.366 . S
C1430 C1431 1.414 . S
C1430 C1433 1.499 . S
C1431 H1405 0.950 . S
C1431 C1430 1.414 . S
C1431 C1432 1.374 . S
C1432 H1406 0.950 . S
C1432 C1428 1.385 . S
C1432 C1431 1.374 . S
C1433 C1430 1.499 . S
C1433 C1434 1.373 . S
C1433 C1435 1.389 . S
C1434 H1407 0.950 . S
C1434 C1420 1.377 . S
C1434 C1433 1.373 . S
C1435 C1419 1.377 . S
C1435 C1433 1.389 . S
C1435 C1436 1.524 . S
C1436 C1435 1.524 . S
C1436 C1437 1.397 . S
C1436 C1441 1.363 . S
C1437 H1408 0.950 . S
C1437 C1436 1.397 . S
C1437 C1438 1.334 . S
C1438 H1409 0.950 . S
C1438 C1437 1.334 . S
C1438 C1439 1.287 . S
C1439 C1438 1.287 . S
C1439 C1440 1.524 . S
C1439 H1442 0.999 . S
C1440 H1410 0.950 . S
C1440 C1439 1.524 . S
C1440 C1441 1.415 . S
C1441 H1411 0.950 . S
C1441 C1436 1.363 . S
C1441 C1440 1.415 . S
H1442 C1439 0.999 . S
H1443 C1424 0.913 . S
C263 C125 1.541 . S
C278 C168 1.605 . S
C328 C191 1.642 . S
C313 C144 1.565 . S
C378 C214 1.675 . S
C363 C87 1.605 . S
C428 C241 1.531 . S
C413 C106 1.488 . S
C478 C169 1.604 . S
C463 C49 1.538 1_556 S
C513 C68 1.460 . S
C528 C192 1.523 . S
C563 C11 1.448 . S
C578 C215 1.512 . S
C613 C30 1.602 . S
C628 C240 1.629 . S
C678 C170 0.225 . S
C663 C97 0.443 . S
C728 C193 0.251 . S
C713 C116 0.395 . S
C778 C216 0.279 . S
C763 C135 0.410 . S
C813 C78 0.464 . S
C828 C242 0.504 . S
C863 C21 0.529 . S
C878 C173 0.563 . S
C928 C196 0.553 . S
C913 C40 0.517 1_565 S
C978 C219 0.526 . S
C963 C59 0.476 . S
C1013 C2 0.391 . S
C1028 C239 0.208 . S
C1063 C101 1.611 . S
C1078 C171 1.582 . S
C1113 C120 1.564 . S
C1128 C194 1.551 . S
C1178 C217 1.563 . S
C1163 C139 1.577 . S
C1228 C238 1.347 . S
C1213 C82 1.318 . S
C1263 C25 1.591 1_655 S
C1278 C172 1.536 . S
C1328 C195 1.481 . S
C1313 C44 1.545 . S
C1378 C218 1.465 . S
C1363 C63 1.525 . S
C1413 C6 1.772 . S
C1428 C237 1.803 . S
