# Generated by pormake.
# Topology anh, (6,3)-cn, num edge types: 1
# Building blocks:
#     Node 0, Type 0, BuildingBlock: BETDAH_clean_sbu_0, # of connection points: 6
#     Node 1, Type 0, BuildingBlock: BETDAH_clean_sbu_0, # of connection points: 6
#     Node 2, Type 0, BuildingBlock: BETDAH_clean_sbu_0, # of connection points: 6
#     Node 3, Type 1, BuildingBlock: KAKCAD_clean_linker_0, # of connection points: 3
#     Node 4, Type 1, BuildingBlock: KAKCAD_clean_linker_0, # of connection points: 3
#     Node 5, Type 1, BuildingBlock: KAKCAD_clean_linker_0, # of connection points: 3
#     Node 6, Type 1, BuildingBlock: KAKCAD_clean_linker_0, # of connection points: 3
#     Node 7, Type 1, BuildingBlock: KAKCAD_clean_linker_0, # of connection points: 3
#     Node 8, Type 1, BuildingBlock: KAKCAD_clean_linker_0, # of connection points: 3
#     Edge 9, Type (0, 1), BuildingBlock: XUDNAN_clean_linker_2, # of connection points: 2
#     Edge 10, Type (0, 1), BuildingBlock: XUDNAN_clean_linker_2, # of connection points: 2
#     Edge 11, Type (0, 1), BuildingBlock: XUDNAN_clean_linker_2, # of connection points: 2
#     Edge 12, Type (0, 1), BuildingBlock: XUDNAN_clean_linker_2, # of connection points: 2
#     Edge 13, Type (0, 1), BuildingBlock: XUDNAN_clean_linker_2, # of connection points: 2
#     Edge 14, Type (0, 1), BuildingBlock: XUDNAN_clean_linker_2, # of connection points: 2
#     Edge 15, Type (0, 1), BuildingBlock: XUDNAN_clean_linker_2, # of connection points: 2
#     Edge 16, Type (0, 1), BuildingBlock: XUDNAN_clean_linker_2, # of connection points: 2
#     Edge 17, Type (0, 1), BuildingBlock: XUDNAN_clean_linker_2, # of connection points: 2
#     Edge 18, Type (0, 1), BuildingBlock: XUDNAN_clean_linker_2, # of connection points: 2
#     Edge 19, Type (0, 1), BuildingBlock: XUDNAN_clean_linker_2, # of connection points: 2
#     Edge 20, Type (0, 1), BuildingBlock: XUDNAN_clean_linker_2, # of connection points: 2
#     Edge 21, Type (0, 1), BuildingBlock: XUDNAN_clean_linker_2, # of connection points: 2
#     Edge 22, Type (0, 1), BuildingBlock: XUDNAN_clean_linker_2, # of connection points: 2
#     Edge 23, Type (0, 1), BuildingBlock: XUDNAN_clean_linker_2, # of connection points: 2
#     Edge 24, Type (0, 1), BuildingBlock: XUDNAN_clean_linker_2, # of connection points: 2
#     Edge 25, Type (0, 1), BuildingBlock: XUDNAN_clean_linker_2, # of connection points: 2
#     Edge 26, Type (0, 1), BuildingBlock: XUDNAN_clean_linker_2, # of connection points: 2
# Relax obj value: 0.181
# Max RMSD: 0.210
# Mean RMSD: 0.156
data_MOF--net-anh--node1-BETDAH_clean_sbu_0--node2-KAKCAD_clean_linker_0--edge1-XUDNAN_clean_linker_2
_symmetry_space_group_name_H-M    P1
_symmetry_Int_Tables_number       1
_symmetry_cell_setting            triclinic
loop_
_symmetry_equiv_pos_as_xyz
'x, y, z'
_cell_length_a     36.231429
_cell_length_b     43.566311
_cell_length_c     66.3304
_cell_angle_alpha  92.601442
_cell_angle_beta   89.588427
_cell_angle_gamma 128.73531
loop_
_atom_site_label
_atom_site_type_symbol
_atom_site_fract_x
_atom_site_fract_y
_atom_site_fract_z
_atom_type_partial_charge
Ho0 Ho 0.11555 0.53404 0.13915 0.0
Ho1 Ho 1.06783 0.56435 0.16532 0.0
C2 C 0.17601 0.62549 0.1555 0.0
C3 C 0.14521 0.51387 0.11007 0.0
C4 C 0.15042 0.48315 0.10768 0.0
C5 C 0.18371 0.48786 0.09445 0.0
C6 C 0.1911 0.45997 0.09315 0.0
C7 C 0.16511 0.4268 0.10502 0.0
C8 C 0.131 0.42187 0.11795 0.0
C9 C 0.1239 0.4499 0.11934 0.0
C10 C 0.12282 0.52845 0.17941 0.0
C11 C 1.00811 0.47007 0.15284 0.0
C12 C 1.02053 0.57603 0.18911 0.0
C13 C 0.97236 0.55061 0.19715 0.0
C14 C 0.95689 0.51907 0.2092 0.0
C15 C 0.90885 0.49132 0.21343 0.0
C16 C 0.87517 0.49397 0.2052 0.0
C17 C 0.89167 0.52734 0.19439 0.0
C18 C 0.93965 0.55546 0.19065 0.0
C19 C 0.0782 0.57675 0.12525 0.0
O20 O 0.1678 0.60077 0.14029 0.0
O21 O 0.14487 0.61508 0.16978 0.0
O22 O 0.10165 0.50129 0.111 0.0
O23 O 0.17363 0.54221 0.12363 0.0
O24 O 0.13885 0.51766 0.16566 0.0
O25 O 0.10467 0.54103 0.17053 0.0
O26 O 1.01066 0.49788 0.16363 0.0
O27 O 1.04259 0.47712 0.14145 0.0
O28 O 1.02177 0.57927 0.16956 0.0
O29 O 1.05142 0.57218 0.19573 0.0
O30 O 0.08276 0.60143 0.13879 0.0
O31 O 1.06714 0.54691 0.13367 0.0
H32 H 0.20469 0.51354 0.08547 0.0
H33 H 0.21822 0.46508 0.08329 0.0
H34 H 0.10999 0.39648 0.12711 0.0
H35 H 0.09814 0.44589 0.12974 0.0
H36 H 0.98142 0.51478 0.21455 0.0
H37 H 0.89802 0.46682 0.22234 0.0
H38 H 0.86752 0.53067 0.18746 0.0
H39 H 0.95078 0.57972 0.18144 0.0
Ho40 Ho 0.67243 0.04983 0.49062 0.0
Ho41 Ho 0.61402 0.0735 0.47659 0.0
C42 C 0.55936 0.98306 0.48113 0.0
C43 C 0.70368 0.01921 0.50962 0.0
C44 C 0.68711 0.97895 0.51197 0.0
C45 C 0.64905 0.947 0.50014 0.0
C46 C 0.63379 0.90888 0.50244 0.0
C47 C 0.65628 0.90198 0.51664 0.0
C48 C 0.69428 0.93422 0.52852 0.0
C49 C 0.70951 0.97231 0.52619 0.0
C50 C 0.67007 0.0545 0.4504 0.0
C51 C 0.72857 0.1402 0.48357 0.0
C52 C 0.57951 0.10406 0.46046 0.0
C53 C 0.58538 0.1404 0.46461 0.0
C54 C 0.558 0.14685 0.45374 0.0
C55 C 0.56169 0.1804 0.45819 0.0
C56 C 0.59284 0.20816 0.47365 0.0
C57 C 0.62054 0.20163 0.48442 0.0
C58 C 0.61685 0.16806 0.47993 0.0
C59 C 0.62274 0.07256 0.51709 0.0
O60 O 0.59634 0.99435 0.49238 0.0
O61 O 0.56094 1.00818 0.46994 0.0
O62 O 0.71664 0.0324 0.49152 0.0
O63 O 0.678 0.02761 0.51802 0.0
O64 O 0.70592 0.06267 0.46053 0.0
O65 O 0.63529 0.04081 0.46173 0.0
O66 O 0.68987 0.12911 0.47377 0.0
O67 O 0.72858 0.11539 0.49439 0.0
O68 O 0.55844 0.07843 0.47443 0.0
O69 O 0.61647 0.10852 0.45362 0.0
O70 O 0.5845 0.06204 0.5082 0.0
O71 O 0.65416 0.08483 0.50437 0.0
H72 H 0.63131 0.95157 0.48906 0.0
H73 H 0.6048 0.88491 0.49288 0.0
H74 H 0.71192 0.92999 0.53983 0.0
H75 H 0.73879 0.99661 0.53552 0.0
H76 H 0.5333 0.12566 0.44196 0.0
H77 H 0.53937 0.18416 0.44978 0.0
H78 H 0.64529 0.22259 0.49624 0.0
H79 H 0.63826 0.1635 0.48851 0.0
Ho80 Ho 0.65012 0.58582 0.85042 0.0
Ho81 Ho 0.59163 0.49611 0.85145 0.0
C82 C 0.53458 0.52968 0.85309 0.0
C83 C 0.68528 0.65646 0.84159 0.0
C84 C 0.66613 0.67558 0.83449 0.0
C85 C 0.62103 0.65331 0.82517 0.0
C86 C 0.60408 0.672 0.8177 0.0
C87 C 0.63194 0.71331 0.81941 0.0
C88 C 0.67665 0.73539 0.82921 0.0
C89 C 0.69358 0.71664 0.83667 0.0
C90 C 0.64261 0.5581 0.88683 0.0
C91 C 0.70817 0.55244 0.84984 0.0
C92 C 0.55657 0.42533 0.86004 0.0
C93 C 0.56791 0.39826 0.85661 0.0
C94 C 0.60145 0.40106 0.86895 0.0
C95 C 0.61055 0.37437 0.86594 0.0
C96 C 0.58631 0.34438 0.85056 0.0
C97 C 0.55284 0.34164 0.83826 0.0
C98 C 0.54359 0.36814 0.84131 0.0
C99 C 0.60416 0.5241 0.81432 0.0
O100 O 0.57387 0.56303 0.84691 0.0
O101 O 0.53455 0.50084 0.85869 0.0
O102 O 0.67465 0.64419 0.85995 0.0
O103 O 0.68164 0.63091 0.82875 0.0
O104 O 0.68044 0.59148 0.88108 0.0
O105 O 0.61012 0.54267 0.87351 0.0
O106 O 0.66737 0.51715 0.85292 0.0
O107 O 0.71002 0.58325 0.84664 0.0
O108 O 0.54317 0.43334 0.84421 0.0
O109 O 0.58491 0.45627 0.87228 0.0
O110 O 0.56623 0.49021 0.81939 0.0
O111 O 0.63415 0.53951 0.82863 0.0
H112 H 0.59922 0.62154 0.82338 0.0
H113 H 0.56927 0.65414 0.81046 0.0
H114 H 0.69919 0.76725 0.83058 0.0
H115 H 0.72846 0.73427 0.84384 0.0
H116 H 0.62053 0.42369 0.88101 0.0
H117 H 0.63674 0.37735 0.87558 0.0
H118 H 0.533 0.31843 0.82651 0.0
H119 H 0.51701 0.36481 0.83178 0.0
C120 C 0.61388 0.0814 0.29869 0.0
C121 C 0.61712 0.05288 0.30515 0.0
C122 C 0.60502 0.08215 0.27827 0.0
C123 C 0.59833 0.0539 0.26414 0.0
C124 C 0.59988 0.02458 0.27082 0.0
C125 C 0.60953 0.02426 0.29109 0.0
C126 C 0.59197 0.0557 0.24229 0.0
C127 C 0.62411 0.09071 0.23242 0.0
C128 C 0.62179 0.09146 0.21129 0.0
C129 C 0.58619 0.05647 0.20007 0.0
C130 C 0.55273 0.02154 0.20992 0.0
C131 C 0.55605 0.02149 0.23098 0.0
C132 C 0.51488 0.98426 0.19857 0.0
C133 C 0.46769 0.96257 0.20446 0.0
C134 C 0.52603 0.96822 0.18323 0.0
C135 C 0.49094 0.93032 0.17464 0.0
C136 C 0.44382 0.90786 0.18104 0.0
C137 C 0.65792 0.12862 0.20117 0.0
C138 C 0.67126 0.16482 0.20919 0.0
C139 C 0.68114 0.12855 0.18413 0.0
C140 C 0.71771 0.16397 0.17564 0.0
C141 C 0.73169 0.20034 0.18387 0.0
C142 C 0.7075 0.20017 0.20062 0.0
C143 C 0.43255 0.92502 0.1957 0.0
H144 H 0.61997 0.1039 0.30929 0.0
H145 H 0.60383 0.10497 0.27347 0.0
H146 H 0.59527 1.00268 0.26022 0.0
H147 H 0.6119 1.00202 0.29576 0.0
H148 H 0.65249 0.11697 0.24112 0.0
H149 H 0.53117 0.99438 0.23857 0.0
H150 H 0.58396 0.05656 0.18379 0.0
H151 H 0.45813 0.97446 0.21616 0.0
H152 H 0.56227 0.9842 0.17858 0.0
H153 H 0.50125 0.91811 0.16356 0.0
H154 H 0.65363 0.16582 0.22216 0.0
H155 H 0.67211 0.10121 0.17776 0.0
H156 H 0.39658 0.90927 0.20066 0.0
H157 H 0.7164 0.22738 0.20712 0.0
H158 H 0.73581 0.16285 0.16293 0.0
C159 C 0.60079 0.51479 0.65663 0.0
C160 C 0.6305 0.55152 0.66741 0.0
C161 C 0.59672 0.51262 0.63554 0.0
C162 C 0.62233 0.54712 0.6247 0.0
C163 C 0.65218 0.58377 0.6355 0.0
C164 C 0.656 0.58594 0.65654 0.0
C165 C 0.61784 0.54528 0.60227 0.0
C166 C 0.61696 0.573 0.59279 0.0
C167 C 0.61443 0.57288 0.57167 0.0
C168 C 0.61156 0.54374 0.55988 0.0
C169 C 0.61205 0.51539 0.56903 0.0
C170 C 0.61517 0.51648 0.59025 0.0
C171 C 0.61005 0.48503 0.55648 0.0
C172 C 0.57987 0.46628 0.53929 0.0
C173 C 0.63819 0.4744 0.56165 0.0
C174 C 0.63614 0.44576 0.54997 0.0
C175 C 0.60601 0.42705 0.53277 0.0
C176 C 0.61529 0.60369 0.56221 0.0
C177 C 0.58386 0.59396 0.5462 0.0
C178 C 0.64645 0.64305 0.56984 0.0
C179 C 0.64525 0.67173 0.56214 0.0
C180 C 0.61291 0.66189 0.54654 0.0
C181 C 0.58258 0.62272 0.53849 0.0
C182 C 0.57788 0.43768 0.52759 0.0
H183 H 0.58102 0.48764 0.66447 0.0
H184 H 0.57305 0.48391 0.62775 0.0
H185 H 0.67298 0.61097 0.62769 0.0
H186 H 0.67872 0.61477 0.66428 0.0
H187 H 0.61749 0.59453 0.60193 0.0
H188 H 0.6158 0.49496 0.59744 0.0
H189 H 0.61046 0.54392 0.54357 0.0
H190 H 0.55718 0.47328 0.53503 0.0
H191 H 0.66245 0.48867 0.57457 0.0
H192 H 0.65886 0.4388 0.55423 0.0
H193 H 0.5593 0.56389 0.54003 0.0
H194 H 0.67155 0.65166 0.58199 0.0
H195 H 0.55373 0.42347 0.51463 0.0
H196 H 0.5576 0.61422 0.52631 0.0
H197 H 0.66882 0.70144 0.56885 0.0
C198 C 0.17756 0.60176 0.96913 0.0
C199 C 0.1362 0.57807 0.98031 0.0
C200 C 0.17632 0.59479 0.94823 0.0
C201 C 0.13361 0.56426 0.93808 0.0
C202 C 0.0925 0.54015 0.94933 0.0
C203 C 0.0938 0.54692 0.9702 0.0
C204 C 0.13118 0.55836 0.91572 0.0
C205 C 0.16513 0.55833 0.90551 0.0
C206 C 0.16271 0.55218 0.88436 0.0
C207 C 0.12477 0.5461 0.87334 0.0
C208 C 0.0902 0.54631 0.88355 0.0
C209 C 0.09443 0.55266 0.90466 0.0
C210 C 1.04979 0.5414 0.87318 0.0
C211 C 1.05731 0.56476 0.85723 0.0
C212 C 1.0045 0.51799 0.88165 0.0
C213 C 0.96924 0.52026 0.87561 0.0
C214 C 0.97765 0.54577 0.86066 0.0
C215 C 0.19948 0.55072 0.87478 0.0
C216 C 0.24753 0.57862 0.88097 0.0
C217 C 0.18657 0.51865 0.86193 0.0
C218 C 0.22003 0.51328 0.8566 0.0
C219 C 0.26753 0.53991 0.86387 0.0
C220 C 0.28095 0.57337 0.87559 0.0
C221 C 1.02176 0.56683 0.85103 0.0
H222 H 0.21085 0.62577 0.97652 0.0
H223 H 0.20851 0.61395 0.93993 0.0
H224 H 1.05915 0.51615 0.94196 0.0
H225 H 1.06123 0.52835 0.97832 0.0
H226 H 0.19289 0.56188 0.91424 0.0
H227 H 1.06934 0.55418 0.91263 0.0
H228 H 0.12217 0.54123 0.85708 0.0
H229 H 0.09159 0.58324 0.85035 0.0
H230 H 0.99709 0.4993 0.89386 0.0
H231 H 0.93631 0.50352 0.88356 0.0
H232 H 0.25899 0.60386 0.89078 0.0
H233 H 0.15003 0.49647 0.85692 0.0
H234 H 1.02958 0.58599 0.83904 0.0
H235 H 0.31682 0.59456 0.8816 0.0
H236 H 0.20825 0.4875 0.8472 0.0
C237 C 0.0826 0.52188 0.33715 0.0
C238 C 0.12605 0.53963 0.32767 0.0
C239 C 0.08127 0.52698 0.35809 0.0
C240 C 0.12339 0.55013 0.36992 0.0
C241 C 0.16676 0.56838 0.3603 0.0
C242 C 0.16807 0.56332 0.33948 0.0
C243 C 0.12278 0.55431 0.3923 0.0
C244 C 0.08958 0.52169 0.40356 0.0
C245 C 0.09258 0.52451 0.42475 0.0
C246 C 0.1295 0.56053 0.4348 0.0
C247 C 0.1625 0.59399 0.42376 0.0
C248 C 0.15791 0.59048 0.40255 0.0
C249 C 0.20256 0.63253 0.43393 0.0
C250 C 0.19696 0.64602 0.4525 0.0
C251 C 0.2468 0.65688 0.42467 0.0
C252 C 0.28355 0.69411 0.43323 0.0
C253 C 0.27764 0.70776 0.45155 0.0
C254 C 1.0581 0.48879 0.43604 0.0
C255 C 1.00932 0.468 0.43301 0.0
C256 C 1.0735 0.47343 0.44851 0.0
C257 C 1.04068 0.43718 0.45722 0.0
C258 C 0.99158 0.41574 0.45395 0.0
C259 C 0.97648 0.4322 0.44204 0.0
C260 C 0.23424 0.68314 0.46128 0.0
H261 H 1.04959 0.50333 0.32847 0.0
H262 H 1.04731 0.51275 0.36502 0.0
H263 H 0.19987 0.58595 0.36892 0.0
H264 H 0.20219 0.57795 0.33263 0.0
H265 H 1.0626 0.49345 0.39585 0.0
H266 H 0.18201 0.61608 0.39383 0.0
H267 H 0.13261 0.56224 0.45111 0.0
H268 H 0.16347 0.62838 0.46004 0.0
H269 H 0.25328 0.64724 0.41073 0.0
H270 H 0.31695 0.71211 0.42562 0.0
H271 H 0.9966 0.47936 0.42349 0.0
H272 H 0.11098 0.48868 0.45084 0.0
H273 H 0.2288 0.69299 0.47546 0.0
H274 H 0.9392 0.41741 0.43952 0.0
H275 H 1.05407 0.42548 0.46595 0.0
C276 C 0.57829 0.0125 0.67076 0.0
C277 C 0.61613 0.04958 0.664 0.0
C278 C 0.5715 1.00644 0.69144 0.0
C279 C 0.60213 0.03746 0.70572 0.0
C280 C 0.63921 0.07474 0.69891 0.0
C281 C 0.64617 0.0807 0.67829 0.0
C282 C 0.59686 0.03099 0.72769 0.0
C283 C 0.58929 0.99789 0.73514 0.0
C284 C 0.58837 0.99337 0.75601 0.0
C285 C 0.59451 0.02212 0.76954 0.0
C286 C 0.60105 0.05505 0.76231 0.0
C287 C 0.60202 0.05907 0.74135 0.0
C288 C 0.60668 0.08536 0.77641 0.0
C289 C 0.57815 0.07441 0.79338 0.0
C290 C 0.63913 0.12552 0.77237 0.0
C291 C 0.64154 0.15383 0.78445 0.0
C292 C 0.61184 0.14275 0.80097 0.0
C293 C 0.58313 0.95933 0.76344 0.0
C294 C 0.54585 0.92096 0.75608 0.0
C295 C 0.61713 0.9652 0.7768 0.0
C296 C 0.61505 0.93338 0.78199 0.0
C297 C 0.57848 0.89493 0.77415 0.0
C298 C 0.54327 0.88908 0.76152 0.0
C299 C 0.58079 0.10285 0.80557 0.0
H300 H 0.55473 0.98794 0.66006 0.0
H301 H 0.54242 0.97747 0.69627 0.0
H302 H 0.66368 0.09914 0.70953 0.0
H303 H 0.67532 0.10971 0.67353 0.0
H304 H 0.5862 0.97642 0.72474 0.0
H305 H 0.60629 0.08397 0.73557 0.0
H306 H 0.59442 0.01887 0.78565 0.0
H307 H 0.55253 0.04372 0.79682 0.0
H308 H 0.66242 0.1351 0.7597 0.0
H309 H 0.66642 0.18445 0.78076 0.0
H310 H 0.51895 0.9157 0.7459 0.0
H311 H 0.64647 0.99462 0.78253 0.0
H312 H 0.55722 0.09341 0.81812 0.0
H313 H 0.51389 0.85988 0.75559 0.0
H314 H 0.64318 0.93926 0.79152 0.0
C315 C 0.52802 0.35083 0.99596 0.0
C316 C 0.57154 0.38918 0.99793 0.0
C317 C 0.50524 0.32929 0.01301 0.0
C318 C 0.52575 0.34543 0.03236 0.0
C319 C 0.57063 0.38261 0.03425 0.0
C320 C 0.59319 0.40431 0.01724 0.0
C321 C 0.498 0.32634 0.05064 0.0
C322 C 0.5189 0.32438 0.06776 0.0
C323 C 0.49495 0.31206 0.0861 0.0
C324 C 0.44954 0.30154 0.08706 0.0
C325 C 0.42868 0.30422 0.07019 0.0
C326 C 0.45255 0.31541 0.05189 0.0
C327 C 0.38601 0.3016 0.07255 0.0
C328 C 0.34813 0.27303 0.08431 0.0
C329 C 0.38523 0.33047 0.06448 0.0
C330 C 0.34843 0.33168 0.06864 0.0
C331 C 0.31135 0.30406 0.08099 0.0
C332 C 0.51965 0.31473 0.10473 0.0
C333 C 0.54928 0.30424 0.1041 0.0
C334 C 0.5164 0.33051 0.12301 0.0
C335 C 0.54359 0.33717 0.13997 0.0
C336 C 0.57498 0.32851 0.13905 0.0
C337 C 0.57669 0.31111 0.12105 0.0
C338 C 0.3111 0.27424 0.08849 0.0
H339 H 0.51079 0.3379 0.98129 0.0
H340 H 0.47081 0.30053 0.01114 0.0
H341 H 0.58698 0.39605 0.049 0.0
H342 H 0.62632 0.43388 0.01944 0.0
H343 H 0.55475 0.33431 0.06701 0.0
H344 H 0.43701 0.31822 0.03892 0.0
H345 H 0.43155 0.29339 0.10129 0.0
H346 H 0.34763 0.25028 0.09062 0.0
H347 H 0.41436 0.35352 0.05578 0.0
H348 H 0.35046 0.35562 0.063 0.0
H349 H 0.55221 0.29163 0.09033 0.0
H350 H 0.49443 0.33942 0.12402 0.0
H351 H 0.2828 0.25233 0.09791 0.0
H352 H 0.60087 0.30447 0.1197 0.0
H353 H 0.54106 0.35023 0.15366 0.0
H354 H 0.18579 0.39958 0.07222 0.0
H355 H 0.1692 0.39137 0.13711 0.0
H356 H 0.19285 0.34924 0.13698 0.0
H357 H 0.14901 0.29938 0.0607 0.0
H358 H 0.19321 0.31696 0.04178 0.0
H359 H 0.16726 0.34084 0.0464 0.0
H360 H 0.25088 0.40784 0.05291 0.0
H361 H 0.27698 0.38424 0.04828 0.0
H362 H 0.28974 0.41215 0.07174 0.0
H363 H 0.22854 0.31591 0.13063 0.0
H364 H 0.27581 0.29605 0.11871 0.0
H365 H 0.26895 0.32551 0.05794 0.0
C366 C 0.18649 0.3885 0.08638 0.0
C367 C 0.17525 0.39859 0.10464 0.0
C368 C 0.17664 0.38342 0.12284 0.0
C369 C 0.19015 0.3595 0.12294 0.0
C370 C 0.2019 0.3508 0.10471 0.0
C371 C 0.20005 0.36473 0.08675 0.0
C372 C 0.21894 0.35447 0.06959 0.0
C373 C 0.17975 0.32622 0.05368 0.0
C374 C 0.26167 0.3919 0.06009 0.0
C375 C 0.23355 0.33403 0.08088 0.0
C376 C 0.22267 0.33156 0.10104 0.0
C377 C 0.23635 0.31688 0.11479 0.0
C378 C 0.26299 0.30545 0.10784 0.0
C379 C 0.27594 0.30905 0.08736 0.0
C380 C 0.25963 0.32239 0.07367 0.0
H381 H 0.75144 0.19291 0.45513 0.0
H382 H 0.80429 0.18127 0.51036 0.0
H383 H 0.87634 0.25087 0.50937 0.0
H384 H 0.86389 0.25334 0.43118 0.0
H385 H 0.85166 0.28246 0.41908 0.0
H386 H 0.80377 0.23229 0.42464 0.0
H387 H 0.76319 0.25575 0.44476 0.0
H388 H 0.81109 0.30604 0.43935 0.0
H389 H 0.79544 0.29265 0.46513 0.0
H390 H 0.9418 0.32267 0.50272 0.0
H391 H 0.99791 0.389 0.48979 0.0
H392 H 0.9048 0.35163 0.43737 0.0
C393 C 0.77806 0.20504 0.46708 0.0
C394 C 0.77211 0.18172 0.4829 0.0
C395 C 0.8081 0.19856 0.49808 0.0
C396 C 0.84906 0.23811 0.49769 0.0
C397 C 0.85377 0.26031 0.48188 0.0
C398 C 0.81945 0.24423 0.46674 0.0
C399 C 0.83384 0.27388 0.45104 0.0
C400 C 0.83859 0.25964 0.43026 0.0
C401 C 0.79881 0.28259 0.45002 0.0
C402 C 0.88158 0.30925 0.45974 0.0
C403 C 0.89224 0.30097 0.47762 0.0
C404 C 0.93403 0.32931 0.48859 0.0
C405 C 0.96596 0.36695 0.48099 0.0
C406 C 0.95645 0.37601 0.46238 0.0
C407 C 0.91336 0.3464 0.45175 0.0
H408 H 0.63925 0.77654 0.8352 0.0
H409 H 0.58858 0.69612 0.78238 0.0
H410 H 0.5654 0.73163 0.76591 0.0
H411 H 0.54806 0.78865 0.8333 0.0
H412 H 0.58859 0.84014 0.84128 0.0
H413 H 0.59844 0.80685 0.84947 0.0
H414 H 0.68262 0.85114 0.83495 0.0
H415 H 0.67299 0.88446 0.82665 0.0
H416 H 0.68976 0.86297 0.80879 0.0
H417 H 0.55368 0.77872 0.75411 0.0
H418 H 0.55145 0.83282 0.74812 0.0
H419 H 0.60688 0.88162 0.80908 0.0
C420 C 0.62307 0.7663 0.8202 0.0
C421 C 0.61555 0.73343 0.81011 0.0
C422 C 0.59402 0.72082 0.79054 0.0
C423 C 0.58095 0.74092 0.78101 0.0
C424 C 0.58936 0.77344 0.79129 0.0
C425 C 0.60958 0.78592 0.8105 0.0
C426 C 0.61587 0.82238 0.81796 0.0
C427 C 0.58594 0.81399 0.83661 0.0
C428 C 0.66843 0.85729 0.82234 0.0
C429 C 0.59688 0.82888 0.79977 0.0
C430 C 0.58168 0.80025 0.78459 0.0
C431 C 0.56469 0.80093 0.76601 0.0
C432 C 0.56324 0.83174 0.76283 0.0
C433 C 0.5784 0.86147 0.77818 0.0
C434 C 0.59516 0.85963 0.79695 0.0
H435 H 0.79941 0.49488 0.2041 0.0
H436 H 0.833 0.41533 0.20471 0.0
H437 H 0.75092 0.35979 0.19508 0.0
H438 H 0.66847 0.42068 0.21694 0.0
H439 H 0.65336 0.44165 0.19922 0.0
H440 H 0.70952 0.47265 0.21281 0.0
H441 H 0.75273 0.49621 0.17888 0.0
H442 H 0.69708 0.46525 0.16526 0.0
H443 H 0.74199 0.46022 0.15994 0.0
H444 H 0.6727 0.31642 0.1773 0.0
H445 H 0.60527 0.28929 0.15369 0.0
H446 H 0.62433 0.39783 0.1618 0.0
C447 C 0.78941 0.46569 0.20273 0.0
C448 C 0.82341 0.45986 0.20501 0.0
C449 C 0.80806 0.42087 0.20336 0.0
C450 C 0.76119 0.38893 0.19779 0.0
C451 C 0.72966 0.39626 0.19403 0.0
C452 C 0.74297 0.43369 0.19669 0.0
C453 C 0.70538 0.43516 0.18829 0.0
C454 C 0.68284 0.44299 0.20533 0.0
C455 C 0.72551 0.466 0.17214 0.0
C456 C 0.67062 0.39358 0.17916 0.0
C457 C 0.68444 0.3712 0.1832 0.0
C458 C 0.66085 0.33332 0.17445 0.0
C459 C 0.62289 0.31829 0.16088 0.0
C460 C 0.60934 0.34134 0.15594 0.0
C461 C 0.63283 0.37899 0.1657 0.0
H462 H 0.49261 0.93924 0.45042 0.0
H463 H 0.52971 0.93219 0.51112 0.0
H464 H 0.45924 0.86195 0.51088 0.0
H465 H 0.36449 0.87174 0.45492 0.0
H466 H 0.35395 0.84969 0.4298 0.0
H467 H 0.40536 0.90016 0.43526 0.0
H468 H 0.45941 0.88426 0.42196 0.0
H469 H 0.40822 0.83378 0.41645 0.0
H470 H 0.45553 0.84495 0.43254 0.0
H471 H 0.38442 0.79231 0.50409 0.0
H472 H 0.31508 0.72692 0.48999 0.0
H473 H 0.32954 0.77797 0.43298 0.0
C474 C 0.48548 0.92299 0.46374 0.0
C475 C 0.5163 0.94125 0.48089 0.0
C476 C 0.50647 0.9188 0.49785 0.0
C477 C 0.46643 0.87893 0.49789 0.0
C478 C 0.43682 0.86171 0.48073 0.0
C479 C 0.44613 0.88287 0.46387 0.0
C480 C 0.41041 0.85662 0.44691 0.0
C481 C 0.38186 0.87038 0.44141 0.0
C482 C 0.43486 0.8548 0.42837 0.0
C483 C 0.37968 0.81745 0.45686 0.0
C484 C 0.39508 0.82114 0.47647 0.0
C485 C 0.37209 0.78905 0.48874 0.0
C486 C 0.33266 0.7521 0.48066 0.0
C487 C 0.31713 0.74744 0.46042 0.0
C488 C 0.34089 0.78068 0.44847 0.0
H489 H 0.5969 0.31721 0.81473 0.0
H490 H 0.59457 0.30575 0.87945 0.0
H491 H 0.60415 0.25452 0.87408 0.0
H492 H 0.5296 0.21578 0.80066 0.0
H493 H 0.56286 0.22342 0.77846 0.0
H494 H 0.55867 0.26066 0.78757 0.0
H495 H 0.65021 0.31229 0.78955 0.0
H496 H 0.6547 0.27519 0.78041 0.0
H497 H 0.68372 0.30265 0.80393 0.0
H498 H 0.60856 0.2012 0.86129 0.0
H499 H 0.61121 0.15245 0.84216 0.0
H500 H 0.61088 0.19963 0.78602 0.0
C501 C 0.59854 0.304 0.82779 0.0
C502 C 0.59496 0.3154 0.84751 0.0
C503 C 0.59776 0.29773 0.86422 0.0
C504 C 0.60297 0.26851 0.86131 0.0
C505 C 0.6057 0.25756 0.84162 0.0
C506 C 0.60395 0.27502 0.82516 0.0
C507 C 0.60669 0.25753 0.80554 0.0
C508 C 0.56178 0.2382 0.79229 0.0
C509 C 0.65151 0.28878 0.7942 0.0
C510 C 0.60956 0.22707 0.81348 0.0
C511 C 0.60895 0.22747 0.83432 0.0
C512 C 0.60949 0.20086 0.84497 0.0
C513 C 0.61074 0.17319 0.83401 0.0
C514 C 0.61165 0.17251 0.81264 0.0
C515 C 0.61117 0.19994 0.80236 0.0
H516 H 0.71093 0.8793 0.5233 0.0
H517 H 0.56489 0.83263 0.51593 0.0
H518 H 0.53807 0.76563 0.52071 0.0
H519 H 0.69708 0.79671 0.49829 0.0
H520 H 0.73715 0.79934 0.51564 0.0
H521 H 0.74493 0.84331 0.51051 0.0
H522 H 0.7414 0.85604 0.54876 0.0
H523 H 0.7337 0.81219 0.554 0.0
H524 H 0.69112 0.8181 0.56269 0.0
H525 H 0.52702 0.70384 0.52776 0.0
H526 H 0.53265 0.6527 0.53725 0.0
H527 H 0.68588 0.7399 0.54013 0.0
C528 C 0.67327 0.85507 0.52274 0.0
C529 C 0.64007 0.86139 0.51916 0.0
C530 C 0.59112 0.82861 0.51832 0.0
C531 C 0.5755 0.79041 0.52111 0.0
C532 C 0.6092 0.78534 0.5247 0.0
C533 C 0.65706 0.81679 0.52552 0.0
C534 C 0.68597 0.80361 0.53019 0.0
C535 C 0.71818 0.81119 0.51261 0.0
C536 C 0.71473 0.82367 0.55009 0.0
C537 C 0.64687 0.75992 0.53221 0.0
C538 C 0.60285 0.74988 0.52883 0.0
C539 C 0.56135 0.71133 0.53028 0.0
C540 C 0.56492 0.68241 0.53556 0.0
C541 C 0.60969 0.69214 0.5394 0.0
C542 C 0.65109 0.73146 0.53745 0.0
H543 H 0.72224 0.49777 0.85723 0.0
H544 H 0.79736 0.61941 0.84226 0.0
H545 H 0.87236 0.62968 0.84234 0.0
H546 H 0.81242 0.51621 0.8909 0.0
H547 H 0.80371 0.47185 0.88311 0.0
H548 H 0.75521 0.47329 0.8814 0.0
H549 H 0.74352 0.45223 0.84345 0.0
H550 H 0.792 0.45072 0.84497 0.0
H551 H 0.79267 0.48068 0.82686 0.0
H552 H 0.94031 0.62789 0.84485 0.0
H553 H 0.99605 0.61452 0.84997 0.0
H554 H 0.87839 0.49335 0.86237 0.0
C555 C 0.7544 0.52654 0.85387 0.0
C556 C 0.75337 0.55775 0.84968 0.0
C557 C 0.79665 0.59491 0.8455 0.0
C558 C 0.83969 0.60109 0.84549 0.0
C559 C 0.83947 0.5699 0.84967 0.0
C560 C 0.798 0.5333 0.85379 0.0
C561 C 0.80804 0.50503 0.8581 0.0
C562 C 0.79402 0.49076 0.87966 0.0
C563 C 0.78254 0.4701 0.84241 0.0
C564 C 0.8616 0.53154 0.85588 0.0
C565 C 0.87884 0.56879 0.85096 0.0
C566 C 0.92708 0.59868 0.8485 0.0
C567 C 0.95863 0.59056 0.85126 0.0
C568 C 0.94237 0.55266 0.85639 0.0
C569 C 0.89272 0.52277 0.85858 0.0
H570 H 0.21486 0.6816 0.18687 0.0
H571 H 0.23595 0.66377 0.12424 0.0
H572 H 0.30662 0.73382 0.12381 0.0
H573 H 0.24905 0.7777 0.18311 0.0
H574 H 0.2788 0.79594 0.20751 0.0
H575 H 0.23031 0.74424 0.20301 0.0
H576 H 0.28369 0.72705 0.21401 0.0
H577 H 0.33226 0.77868 0.21869 0.0
H578 H 0.33916 0.74909 0.20179 0.0
H579 H 0.37353 0.80693 0.12991 0.0
H580 H 0.43328 0.87606 0.14251 0.0
H581 H 0.37047 0.84492 0.20161 0.0
C582 C 0.2344 0.69234 0.17307 0.0
C583 C 0.21979 0.66709 0.15559 0.0
C584 C 0.24655 0.68239 0.13788 0.0
C585 C 0.28668 0.72223 0.13745 0.0
C586 C 0.29988 0.74637 0.1549 0.0
C587 C 0.27477 0.73191 0.17243 0.0
C588 C 0.29657 0.76392 0.18918 0.0
C589 C 0.26159 0.77085 0.1961 0.0
C590 C 0.31396 0.75409 0.20696 0.0
C591 C 0.33762 0.79873 0.17829 0.0
C592 C 0.33887 0.78809 0.15852 0.0
C593 C 0.37314 0.81549 0.14543 0.0
C594 C 0.40717 0.85472 0.15279 0.0
C595 C 0.40698 0.8663 0.17311 0.0
C596 C 0.37151 0.83757 0.18592 0.0
H597 H 0.59971 0.24131 0.51126 0.0
H598 H 0.59285 0.25495 0.44729 0.0
H599 H 0.59553 0.31219 0.45542 0.0
H600 H 0.52707 0.26656 0.52751 0.0
H601 H 0.5612 0.29289 0.55042 0.0
H602 H 0.55935 0.25327 0.5396 0.0
H603 H 0.65093 0.30014 0.53858 0.0
H604 H 0.65307 0.3399 0.54944 0.0
H605 H 0.68128 0.34554 0.52586 0.0
H606 H 0.59816 0.36767 0.4705 0.0
H607 H 0.60144 0.41769 0.49143 0.0
H608 H 0.60671 0.36807 0.54559 0.0
C609 C 0.59934 0.25659 0.49893 0.0
C610 C 0.59596 0.24347 0.47861 0.0
C611 C 0.59479 0.26402 0.46298 0.0
C612 C 0.59657 0.29674 0.46744 0.0
C613 C 0.59958 0.30868 0.48761 0.0
C614 C 0.60106 0.28931 0.50311 0.0
C615 C 0.60383 0.3079 0.52353 0.0
C616 C 0.56026 0.27839 0.53599 0.0
C617 C 0.65003 0.32435 0.53503 0.0
C618 C 0.60365 0.34075 0.51708 0.0
C619 C 0.60115 0.34067 0.4963 0.0
C620 C 0.60008 0.36798 0.4868 0.0
C621 C 0.60164 0.39615 0.49883 0.0
C622 C 0.60425 0.39688 0.52019 0.0
C623 C 0.6053 0.36868 0.52933 0.0
H624 H 0.52079 0.58587 0.85099 0.0
H625 H 0.44514 0.46092 0.85746 0.0
H626 H 0.37006 0.45035 0.85952 0.0
H627 H 0.45127 0.59481 0.88626 0.0
H628 H 0.45194 0.62949 0.87209 0.0
H629 H 0.50006 0.62753 0.87018 0.0
H630 H 0.48726 0.61647 0.83144 0.0
H631 H 0.43903 0.61834 0.83317 0.0
H632 H 0.4297 0.57613 0.82088 0.0
H633 H 0.30252 0.45263 0.86126 0.0
H634 H 0.24786 0.46802 0.86419 0.0
H635 H 0.36518 0.59177 0.85726 0.0
C636 C 0.48839 0.55624 0.85271 0.0
C637 C 0.4893 0.5242 0.854 0.0
C638 C 0.44588 0.48604 0.85646 0.0
C639 C 0.40279 0.47967 0.8576 0.0
C640 C 0.40312 0.51171 0.85638 0.0
C641 C 0.44475 0.54933 0.8541 0.0
C642 C 0.43498 0.57869 0.85391 0.0
C643 C 0.46112 0.60945 0.87167 0.0
C644 C 0.44855 0.59858 0.83364 0.0
C645 C 0.38147 0.55167 0.85651 0.0
C646 C 0.36395 0.51312 0.85772 0.0
C647 C 0.31587 0.48272 0.86023 0.0
C648 C 0.28486 0.49179 0.86171 0.0
C649 C 0.30153 0.5311 0.86079 0.0
C650 C 0.35085 0.56138 0.8581 0.0
H651 H 0.95702 0.43011 0.18596 0.0
H652 H 0.96264 0.41655 0.12113 0.0
H653 H 0.89208 0.34631 0.12181 0.0
H654 H 0.92601 0.33572 0.19587 0.0
H655 H 0.88849 0.32674 0.21661 0.0
H656 H 0.93752 0.37654 0.21094 0.0
H657 H 0.88069 0.39336 0.20752 0.0
H658 H 0.83198 0.34379 0.21369 0.0
H659 H 0.82953 0.36281 0.19062 0.0
H660 H 0.81989 0.27781 0.12954 0.0
H661 H 0.75405 0.21527 0.14387 0.0
H662 H 0.79973 0.27179 0.20411 0.0
C663 C 0.94288 0.41236 0.17192 0.0
C664 C 0.96463 0.42871 0.15342 0.0
C665 C 0.94614 0.4045 0.1354 0.0
C666 C 0.90614 0.36464 0.13565 0.0
C667 C 0.88568 0.3492 0.15413 0.0
C668 C 0.90371 0.37216 0.17197 0.0
C669 C 0.8767 0.34767 0.18989 0.0
C670 C 0.90912 0.34661 0.20417 0.0
C671 C 0.85336 0.36286 0.20111 0.0
C672 C 0.83993 0.30771 0.17931 0.0
C673 C 0.84567 0.30924 0.15868 0.0
C674 C 0.81533 0.27619 0.14571 0.0
C675 C 0.77811 0.24068 0.15402 0.0
C676 C 0.77149 0.23827 0.17517 0.0
C677 C 0.80319 0.27247 0.18788 0.0
H678 H 1.05668 0.52429 0.09427 0.0
H679 H 0.13262 0.64875 0.10873 0.0
H680 H 0.15889 0.66325 0.07343 0.0
H681 H 0.14221 0.53518 0.06038 0.0
H682 H 0.09858 0.49548 0.04295 0.0
H683 H 0.08551 0.49407 0.06928 0.0
H684 H 1.01094 0.48676 0.06077 0.0
H685 H 1.02227 0.48684 0.03429 0.0
H686 H 1.0157 0.52183 0.04513 0.0
H687 H 0.17612 0.66373 0.03638 0.0
H688 H 0.17974 0.65004 1.00015 0.0
H689 H 0.09276 0.52511 0.01017 0.0
C690 C 0.0793 0.55462 0.09003 0.0
C691 C 0.09304 0.58549 0.10416 0.0
C692 C 0.12169 0.62473 0.09804 0.0
C693 C 0.13695 0.63322 0.07809 0.0
C694 C 0.12306 0.60208 0.0645 0.0
C695 C 0.0947 0.56354 0.07021 0.0
C696 C 0.08353 0.53531 0.0526 0.0
C697 C 0.1037 0.51377 0.05655 0.0
C698 C 1.02993 0.50597 0.04792 0.0
C699 C 0.10962 0.56392 0.03602 0.0
C700 C 0.13255 0.60232 0.04321 0.0
C701 C 0.15848 0.6338 0.03061 0.0
C702 C 0.16057 0.62575 0.01008 0.0
C703 C 0.13659 0.58652 0.00232 0.0
C704 C 0.11118 0.55537 0.0156 0.0
H705 H 0.60401 0.04816 0.42594 0.0
H706 H 0.73361 0.06214 0.42492 0.0
H707 H 0.73358 0.06327 0.38787 0.0
H708 H 0.54987 0.98603 0.38031 0.0
H709 H 0.52546 1.00892 0.37191 0.0
H710 H 0.53469 1.0083 0.39849 0.0
H711 H 0.58584 0.08432 0.40177 0.0
H712 H 0.5768 0.0852 0.37518 0.0
H713 H 0.63602 0.11406 0.38583 0.0
H714 H 0.71911 0.06093 0.35133 0.0
H715 H 0.69288 0.05887 0.3167 0.0
H716 H 0.57522 0.05048 0.34054 0.0
C717 C 0.63219 0.05134 0.41784 0.0
C718 C 0.66867 0.05482 0.42822 0.0
C719 C 0.70529 0.05935 0.41723 0.0
C720 C 0.7056 0.05999 0.39618 0.0
C721 C 0.66934 0.05659 0.38635 0.0
C722 C 0.63348 0.05269 0.39672 0.0
C723 C 0.59959 0.05065 0.38229 0.0
C724 C 0.54943 0.01112 0.38331 0.0
C725 C 0.59958 0.08564 0.38652 0.0
C726 C 0.62191 0.05368 0.36224 0.0
C727 C 0.66192 0.05679 0.36503 0.0
C728 C 0.68803 0.05875 0.34891 0.0
C729 C 0.67284 0.05746 0.32935 0.0
C730 C 0.63227 0.05464 0.32608 0.0
C731 C 0.60663 0.05301 0.34273 0.0
H732 H 0.54539 0.49003 0.78068 0.0
H733 H 0.68992 0.58563 0.80065 0.0
H734 H 0.71182 0.60386 0.76536 0.0
H735 H 0.57331 0.46109 0.73613 0.0
H736 H 0.52491 0.45025 0.72101 0.0
H737 H 0.51962 0.44591 0.74794 0.0
H738 H 0.50027 0.49401 0.75046 0.0
H739 H 0.50509 0.49823 0.72351 0.0
H740 H 0.54037 0.54184 0.74012 0.0
H741 H 0.71927 0.60906 0.72792 0.0
H742 H 0.71112 0.60325 0.69083 0.0
H743 H 0.56106 0.50554 0.69494 0.0
C744 C 0.58149 0.51506 0.77761 0.0
C745 C 0.61597 0.53653 0.79336 0.0
C746 C 0.6629 0.56898 0.7888 0.0
C747 C 0.67571 0.57947 0.7688 0.0
C748 C 0.6411 0.55734 0.75356 0.0
C749 C 0.59486 0.52603 0.7577 0.0
C750 C 0.5648 0.50674 0.73846 0.0
C751 C 0.54448 0.46344 0.73573 0.0
C752 C 0.5253 0.51044 0.73812 0.0
C753 C 0.60156 0.53172 0.72285 0.0
C754 C 0.64529 0.56073 0.73191 0.0
C755 C 0.68506 0.5868 0.72065 0.0
C756 C 0.67997 0.58336 0.69956 0.0
C757 C 0.63535 0.55418 0.68985 0.0
C758 C 0.59574 0.528 0.70179 0.0
H759 H 0.55628 0.04026 0.54668 0.0
H760 H 0.70597 0.10427 0.53653 0.0
H761 H 0.71995 0.10432 0.57283 0.0
H762 H 0.5698 0.08934 0.59447 0.0
H763 H 0.51933 0.04564 0.60545 0.0
H764 H 0.5207 0.05026 0.57855 0.0
H765 H 0.50677 0.98444 0.57281 0.0
H766 H 0.50544 0.97965 0.5997 0.0
H767 H 0.54639 0.97855 0.58476 0.0
H768 H 0.71846 0.09878 0.60994 0.0
H769 H 0.70131 0.08699 0.64606 0.0
H770 H 0.55247 0.02589 0.6327 0.0
C771 C 0.59192 0.05428 0.55217 0.0
C772 C 0.63009 0.07231 0.53887 0.0
C773 C 0.67625 0.09026 0.54649 0.0
C774 C 0.68456 0.09045 0.56708 0.0
C775 C 0.64629 0.07244 0.57983 0.0
C776 C 0.60085 0.05458 0.57274 0.0
C777 C 0.56614 0.03731 0.5898 0.0
C778 C 0.54262 0.05681 0.59221 0.0
C779 C 0.52899 0.99231 0.58657 0.0
C780 C 0.59931 0.04858 0.60754 0.0
C781 C 0.64536 0.06884 0.60139 0.0
C782 C 0.68256 0.08294 0.61497 0.0
C783 C 0.67251 0.07629 0.63545 0.0
C784 C 0.62564 0.05568 0.64217 0.0
C785 C 0.58856 0.04144 0.62796 0.0
H786 H 0.56507 0.49329 0.90378 0.0
H787 H 0.71844 0.57538 0.90787 0.0
H788 H 0.71742 0.53809 0.9352 0.0
H789 H 0.54562 0.48029 0.95643 0.0
H790 H 0.49566 0.42862 0.95335 0.0
H791 H 0.50917 0.46115 0.93369 0.0
H792 H 0.51277 0.41642 0.90805 0.0
H793 H 0.49997 0.38398 0.92769 0.0
H794 H 0.55232 0.40564 0.91303 0.0
H795 H 0.69934 0.49204 0.9623 0.0
H796 H 0.66564 0.44387 0.98886 0.0
H797 H 0.524 0.39328 0.96749 0.0
C798 C 0.59838 0.50333 0.91046 0.0
C799 C 0.64182 0.53705 0.90378 0.0
C800 C 0.68477 0.54961 0.91288 0.0
C801 C 0.68454 0.52847 0.92828 0.0
C802 C 0.64107 0.49497 0.93438 0.0
C803 C 0.59878 0.48263 0.92584 0.0
C804 C 0.55687 0.44646 0.93556 0.0
C805 C 0.52497 0.45464 0.94534 0.0
C806 C 0.52884 0.41103 0.92016 0.0
C807 C 0.58213 0.44095 0.95126 0.0
C808 C 0.63068 0.46882 0.95013 0.0
C809 C 0.66135 0.47009 0.96336 0.0
C810 C 0.64185 0.44273 0.97847 0.0
C811 C 0.59211 0.41474 0.98038 0.0
C812 C 0.56211 0.41365 0.9663 0.0
H813 H 1.07278 0.53192 0.20966 0.0
H814 H 0.18037 0.51882 0.19842 0.0
H815 H 0.18954 0.5166 0.23501 0.0
H816 H 0.12598 0.59525 0.25347 0.0
H817 H 1.07177 0.57321 0.26677 0.0
H818 H 1.0708 0.57092 0.2396 0.0
H819 H 1.00871 0.49438 0.2388 0.0
H820 H 1.00885 0.4971 0.26598 0.0
H821 H 1.02087 0.46715 0.25289 0.0
H822 H 0.18988 0.51875 0.27246 0.0
H823 H 0.18182 0.52549 0.30896 0.0
H824 H 1.07494 0.53862 0.29656 0.0
C825 C 0.09839 0.52888 0.21498 0.0
C826 C 0.12638 0.52614 0.20132 0.0
C827 C 0.1587 0.52108 0.20869 0.0
C828 C 0.16411 0.51973 0.22943 0.0
C829 C 0.13649 0.52303 0.24256 0.0
C830 C 0.10399 0.52721 0.2357 0.0
C831 C 0.07938 0.53072 0.25317 0.0
C832 C 0.0875 0.56986 0.25325 0.0
C833 C 1.02631 0.49525 0.25268 0.0
C834 C 0.10467 0.5296 0.2709 0.0
C835 C 0.13685 0.52446 0.26437 0.0
C836 C 0.16481 0.52279 0.2778 0.0
C837 C 0.16019 0.52693 0.2985 0.0
C838 C 0.12812 0.533 0.30564 0.0
C839 C 0.09955 0.53378 0.29159 0.0
loop_
_geom_bond_atom_site_label_1
_geom_bond_atom_site_label_2
_geom_bond_distance
_geom_bond_site_symmetry_2
_ccdc_geom_bond_type
Ho0 C3 2.811 . S
Ho0 O20 2.322 . S
Ho0 O22 2.378 . S
Ho0 O23 2.524 . S
Ho0 O24 2.381 . S
Ho0 O25 2.669 . S
Ho0 O27 2.346 1_455 S
Ho0 O31 2.305 . S
Ho1 C12 2.811 . S
Ho1 O21 2.346 1_655 S
Ho1 O25 2.305 1_655 S
Ho1 O26 2.322 . S
Ho1 O28 2.378 . S
Ho1 O29 2.524 . S
Ho1 O30 2.381 1_655 S
Ho1 O31 2.669 1_655 S
C2 O20 1.259 . S
C2 O21 1.268 . S
C3 Ho0 2.811 . S
C3 C4 1.488 . S
C3 O22 1.215 . S
C3 O23 1.289 . S
C4 C3 1.488 . S
C4 C5 1.348 . S
C4 C9 1.413 . S
C5 C4 1.348 . S
C5 C6 1.442 . S
C5 H32 0.930 . S
C6 C5 1.442 . S
C6 C7 1.381 . S
C6 H33 0.931 . S
C7 C6 1.381 . S
C7 C8 1.321 . S
C8 C7 1.321 . S
C8 C9 1.403 . S
C8 H34 0.934 . S
C9 C4 1.413 . S
C9 C8 1.403 . S
C9 H35 0.930 . S
C10 O24 1.275 . S
C10 O25 1.256 . S
C11 O26 1.259 . S
C11 O27 1.268 . S
C12 Ho1 2.811 . S
C12 C13 1.488 . S
C12 O28 1.215 . S
C12 O29 1.289 . S
C13 C12 1.488 . S
C13 C14 1.348 . S
C13 C18 1.413 . S
C14 C13 1.348 . S
C14 C15 1.442 . S
C14 H36 0.930 . S
C15 C14 1.442 . S
C15 C16 1.381 . S
C15 H37 0.931 . S
C16 C15 1.381 . S
C16 C17 1.321 . S
C17 C16 1.321 . S
C17 C18 1.403 . S
C17 H38 0.934 . S
C18 C13 1.413 . S
C18 C17 1.403 . S
C18 H39 0.930 . S
C19 O30 1.275 . S
C19 O31 1.256 . S
O20 Ho0 2.322 . S
O20 C2 1.259 . S
O21 Ho1 2.346 1_455 S
O21 C2 1.268 . S
O22 Ho0 2.378 . S
O22 C3 1.215 . S
O23 Ho0 2.524 . S
O23 C3 1.289 . S
O24 Ho0 2.381 . S
O24 C10 1.275 . S
O25 Ho0 2.669 . S
O25 Ho1 2.305 1_455 S
O25 C10 1.256 . S
O26 Ho1 2.322 . S
O26 C11 1.259 . S
O27 Ho0 2.346 1_655 S
O27 C11 1.268 . S
O28 Ho1 2.378 . S
O28 C12 1.215 . S
O29 Ho1 2.524 . S
O29 C12 1.289 . S
O30 Ho1 2.381 1_455 S
O30 C19 1.275 . S
O31 Ho0 2.305 . S
O31 Ho1 2.669 1_455 S
O31 C19 1.256 . S
H32 C5 0.930 . S
H33 C6 0.931 . S
H34 C8 0.934 . S
H35 C9 0.930 . S
H36 C14 0.930 . S
H37 C15 0.931 . S
H38 C17 0.934 . S
H39 C18 0.930 . S
Ho40 C43 2.811 . S
Ho40 O60 2.322 . S
Ho40 O62 2.378 . S
Ho40 O63 2.524 . S
Ho40 O64 2.381 . S
Ho40 O65 2.669 1_565 S
Ho40 O67 2.346 1_565 S
Ho40 O71 2.305 1_565 S
Ho41 C52 2.811 . S
Ho41 O61 2.346 1_545 S
Ho41 O65 2.305 . S
Ho41 O66 2.322 . S
Ho41 O68 2.378 . S
Ho41 O69 2.524 . S
Ho41 O70 2.381 . S
Ho41 O71 2.669 . S
C42 O60 1.259 . S
C42 O61 1.268 . S
C43 Ho40 2.811 . S
C43 C44 1.488 . S
C43 O62 1.215 . S
C43 O63 1.289 . S
C44 C43 1.488 . S
C44 C45 1.348 . S
C44 C49 1.413 . S
C45 C44 1.348 . S
C45 C46 1.442 . S
C45 H72 0.930 . S
C46 C45 1.442 . S
C46 C47 1.381 . S
C46 H73 0.931 . S
C47 C46 1.381 . S
C47 C48 1.321 . S
C48 C47 1.321 . S
C48 C49 1.403 . S
C48 H74 0.934 . S
C49 C44 1.413 . S
C49 C48 1.403 . S
C49 H75 0.930 . S
C50 O64 1.275 1_545 S
C50 O65 1.256 . S
C51 O66 1.259 . S
C51 O67 1.268 . S
C52 Ho41 2.811 . S
C52 C53 1.488 . S
C52 O68 1.215 . S
C52 O69 1.289 . S
C53 C52 1.488 . S
C53 C54 1.348 . S
C53 C58 1.413 . S
C54 C53 1.348 . S
C54 C55 1.442 . S
C54 H76 0.930 . S
C55 C54 1.442 . S
C55 C56 1.381 . S
C55 H77 0.931 . S
C56 C55 1.381 . S
C56 C57 1.321 . S
C57 C56 1.321 . S
C57 C58 1.403 . S
C57 H78 0.934 . S
C58 C53 1.413 . S
C58 C57 1.403 . S
C58 H79 0.930 . S
C59 O70 1.275 . S
C59 O71 1.256 . S
O60 Ho40 2.322 . S
O60 C42 1.259 . S
O61 Ho41 2.346 1_565 S
O61 C42 1.268 . S
O62 Ho40 2.378 . S
O62 C43 1.215 . S
O63 Ho40 2.524 . S
O63 C43 1.289 . S
O64 Ho40 2.381 . S
O64 C50 1.275 1_565 S
O65 Ho40 2.669 1_545 S
O65 Ho41 2.305 . S
O65 C50 1.256 . S
O66 Ho41 2.322 . S
O66 C51 1.259 . S
O67 Ho40 2.346 1_545 S
O67 C51 1.268 . S
O68 Ho41 2.378 . S
O68 C52 1.215 . S
O69 Ho41 2.524 . S
O69 C52 1.289 . S
O70 Ho41 2.381 . S
O70 C59 1.275 . S
O71 Ho40 2.305 1_545 S
O71 Ho41 2.669 . S
O71 C59 1.256 . S
H72 C45 0.930 . S
H73 C46 0.931 . S
H74 C48 0.934 . S
H75 C49 0.930 . S
H76 C54 0.930 . S
H77 C55 0.931 . S
H78 C57 0.934 . S
H79 C58 0.930 . S
Ho80 C83 2.811 . S
Ho80 O100 2.322 . S
Ho80 O102 2.378 . S
Ho80 O103 2.524 . S
Ho80 O104 2.381 . S
Ho80 O105 2.669 . S
Ho80 O107 2.346 . S
Ho80 O111 2.305 . S
Ho81 C92 2.811 . S
Ho81 O101 2.346 . S
Ho81 O105 2.305 . S
Ho81 O106 2.322 . S
Ho81 O108 2.378 . S
Ho81 O109 2.524 . S
Ho81 O110 2.381 . S
Ho81 O111 2.669 . S
C82 O100 1.259 . S
C82 O101 1.268 . S
C83 Ho80 2.811 . S
C83 C84 1.488 . S
C83 O102 1.215 . S
C83 O103 1.289 . S
C84 C83 1.488 . S
C84 C85 1.348 . S
C84 C89 1.413 . S
C85 C84 1.348 . S
C85 C86 1.442 . S
C85 H112 0.930 . S
C86 C85 1.442 . S
C86 C87 1.381 . S
C86 H113 0.931 . S
C87 C86 1.381 . S
C87 C88 1.321 . S
C88 C87 1.321 . S
C88 C89 1.403 . S
C88 H114 0.934 . S
C89 C84 1.413 . S
C89 C88 1.403 . S
C89 H115 0.930 . S
C90 O104 1.275 . S
C90 O105 1.256 . S
C91 O106 1.259 . S
C91 O107 1.268 . S
C92 Ho81 2.811 . S
C92 C93 1.488 . S
C92 O108 1.215 . S
C92 O109 1.289 . S
C93 C92 1.488 . S
C93 C94 1.348 . S
C93 C98 1.413 . S
C94 C93 1.348 . S
C94 C95 1.442 . S
C94 H116 0.930 . S
C95 C94 1.442 . S
C95 C96 1.381 . S
C95 H117 0.931 . S
C96 C95 1.381 . S
C96 C97 1.321 . S
C97 C96 1.321 . S
C97 C98 1.403 . S
C97 H118 0.934 . S
C98 C93 1.413 . S
C98 C97 1.403 . S
C98 H119 0.930 . S
C99 O110 1.275 . S
C99 O111 1.256 . S
O100 Ho80 2.322 . S
O100 C82 1.259 . S
O101 Ho81 2.346 . S
O101 C82 1.268 . S
O102 Ho80 2.378 . S
O102 C83 1.215 . S
O103 Ho80 2.524 . S
O103 C83 1.289 . S
O104 Ho80 2.381 . S
O104 C90 1.275 . S
O105 Ho80 2.669 . S
O105 Ho81 2.305 . S
O105 C90 1.256 . S
O106 Ho81 2.322 . S
O106 C91 1.259 . S
O107 Ho80 2.346 . S
O107 C91 1.268 . S
O108 Ho81 2.378 . S
O108 C92 1.215 . S
O109 Ho81 2.524 . S
O109 C92 1.289 . S
O110 Ho81 2.381 . S
O110 C99 1.275 . S
O111 Ho80 2.305 . S
O111 Ho81 2.669 . S
O111 C99 1.256 . S
H112 C85 0.930 . S
H113 C86 0.931 . S
H114 C88 0.934 . S
H115 C89 0.930 . S
H116 C94 0.930 . S
H117 C95 0.931 . S
H118 C97 0.934 . S
H119 C98 0.930 . S
C120 C121 1.386 . S
C120 C122 1.397 . S
C120 H144 0.931 . S
C121 C120 1.386 . S
C121 C125 1.397 1_545 S
C122 C120 1.397 . S
C122 C123 1.384 . S
C122 H145 0.930 . S
C123 C122 1.384 . S
C123 C124 1.377 1_545 S
C123 C126 1.481 . S
C124 C123 1.377 1_565 S
C124 C125 1.389 . S
C124 H146 0.929 . S
C125 C121 1.397 1_565 S
C125 C124 1.389 . S
C125 H147 0.931 . S
C126 C123 1.481 . S
C126 C127 1.387 . S
C126 C131 1.390 1_545 S
C127 C126 1.387 . S
C127 C128 1.401 . S
C127 H148 0.930 . S
C128 C127 1.401 . S
C128 C129 1.376 . S
C128 C137 1.511 . S
C129 C128 1.376 . S
C129 C130 1.392 1_545 S
C129 H150 0.931 . S
C130 C129 1.392 1_565 S
C130 C131 1.361 . S
C130 C132 1.500 . S
C131 C126 1.390 1_565 S
C131 C130 1.361 . S
C131 H149 0.931 . S
C132 C130 1.500 . S
C132 C133 1.371 . S
C132 C134 1.365 . S
C133 C132 1.371 . S
C133 C143 1.386 . S
C133 H151 0.931 . S
C134 C132 1.365 . S
C134 C135 1.409 . S
C134 H152 0.929 . S
C135 C134 1.409 . S
C135 C136 1.380 . S
C135 H153 0.930 . S
C136 C135 1.380 . S
C136 C143 1.357 . S
C137 C128 1.511 . S
C137 C138 1.341 . S
C137 C139 1.371 . S
C138 C137 1.341 . S
C138 C142 1.394 . S
C138 H154 0.930 . S
C139 C137 1.371 . S
C139 C140 1.392 . S
C139 H155 0.931 . S
C140 C139 1.392 . S
C140 C141 1.331 . S
C140 H158 0.932 . S
C141 C140 1.331 . S
C141 C142 1.336 . S
C142 C138 1.394 . S
C142 C141 1.336 . S
C142 H157 0.929 . S
C143 C133 1.386 . S
C143 C136 1.357 . S
C143 H156 0.928 . S
H144 C120 0.931 . S
H145 C122 0.930 . S
H146 C124 0.929 . S
H147 C125 0.931 . S
H148 C127 0.930 . S
H149 C131 0.931 . S
H150 C129 0.931 . S
H151 C133 0.931 . S
H152 C134 0.929 . S
H153 C135 0.930 . S
H154 C138 0.930 . S
H155 C139 0.931 . S
H156 C143 0.928 . S
H157 C142 0.929 . S
H158 C140 0.932 . S
C159 C160 1.386 . S
C159 C161 1.397 . S
C159 H183 0.931 . S
C160 C159 1.386 . S
C160 C164 1.397 . S
C161 C159 1.397 . S
C161 C162 1.384 . S
C161 H184 0.930 . S
C162 C161 1.384 . S
C162 C163 1.377 . S
C162 C165 1.481 . S
C163 C162 1.377 . S
C163 C164 1.389 . S
C163 H185 0.929 . S
C164 C160 1.397 . S
C164 C163 1.389 . S
C164 H186 0.931 . S
C165 C162 1.481 . S
C165 C166 1.387 . S
C165 C170 1.390 . S
C166 C165 1.387 . S
C166 C167 1.401 . S
C166 H187 0.930 . S
C167 C166 1.401 . S
C167 C168 1.376 . S
C167 C176 1.511 . S
C168 C167 1.376 . S
C168 C169 1.392 . S
C168 H189 0.931 . S
C169 C168 1.392 . S
C169 C170 1.361 . S
C169 C171 1.500 . S
C170 C165 1.390 . S
C170 C169 1.361 . S
C170 H188 0.931 . S
C171 C169 1.500 . S
C171 C172 1.371 . S
C171 C173 1.365 . S
C172 C171 1.371 . S
C172 C182 1.386 . S
C172 H190 0.931 . S
C173 C171 1.365 . S
C173 C174 1.409 . S
C173 H191 0.929 . S
C174 C173 1.409 . S
C174 C175 1.380 . S
C174 H192 0.930 . S
C175 C174 1.380 . S
C175 C182 1.357 . S
C176 C167 1.511 . S
C176 C177 1.341 . S
C176 C178 1.371 . S
C177 C176 1.341 . S
C177 C181 1.394 . S
C177 H193 0.930 . S
C178 C176 1.371 . S
C178 C179 1.392 . S
C178 H194 0.931 . S
C179 C178 1.392 . S
C179 C180 1.331 . S
C179 H197 0.932 . S
C180 C179 1.331 . S
C180 C181 1.336 . S
C181 C177 1.394 . S
C181 C180 1.336 . S
C181 H196 0.929 . S
C182 C172 1.386 . S
C182 C175 1.357 . S
C182 H195 0.928 . S
H183 C159 0.931 . S
H184 C161 0.930 . S
H185 C163 0.929 . S
H186 C164 0.931 . S
H187 C166 0.930 . S
H188 C170 0.931 . S
H189 C168 0.931 . S
H190 C172 0.931 . S
H191 C173 0.929 . S
H192 C174 0.930 . S
H193 C177 0.930 . S
H194 C178 0.931 . S
H195 C182 0.928 . S
H196 C181 0.929 . S
H197 C179 0.932 . S
C198 C199 1.386 . S
C198 C200 1.397 . S
C198 H222 0.931 . S
C199 C198 1.386 . S
C199 C203 1.397 . S
C200 C198 1.397 . S
C200 C201 1.384 . S
C200 H223 0.930 . S
C201 C200 1.384 . S
C201 C202 1.377 . S
C201 C204 1.481 . S
C202 C201 1.377 . S
C202 C203 1.389 . S
C202 H224 0.929 1_455 S
C203 C199 1.397 . S
C203 C202 1.389 . S
C203 H225 0.931 1_455 S
C204 C201 1.481 . S
C204 C205 1.387 . S
C204 C209 1.390 . S
C205 C204 1.387 . S
C205 C206 1.401 . S
C205 H226 0.930 . S
C206 C205 1.401 . S
C206 C207 1.376 . S
C206 C215 1.511 . S
C207 C206 1.376 . S
C207 C208 1.392 . S
C207 H228 0.931 . S
C208 C207 1.392 . S
C208 C209 1.361 . S
C208 C210 1.500 1_455 S
C209 C204 1.390 . S
C209 C208 1.361 . S
C209 H227 0.931 . S
C210 C208 1.500 1_655 S
C210 C211 1.371 . S
C210 C212 1.365 . S
C211 C210 1.371 . S
C211 C221 1.392 . S
C211 H229 0.925 1_655 S
C212 C210 1.365 . S
C212 C213 1.409 . S
C212 H230 0.929 . S
C213 C212 1.409 . S
C213 C214 1.380 . S
C213 H231 0.930 . S
C214 C213 1.380 . S
C214 C221 1.357 . S
C215 C206 1.511 . S
C215 C216 1.341 . S
C215 C217 1.371 . S
C216 C215 1.341 . S
C216 C220 1.394 . S
C216 H232 0.930 . S
C217 C215 1.371 . S
C217 C218 1.392 . S
C217 H233 0.931 . S
C218 C217 1.392 . S
C218 C219 1.331 . S
C218 H236 0.932 . S
C219 C218 1.331 . S
C219 C220 1.336 . S
C220 C216 1.394 . S
C220 C219 1.336 . S
C220 H235 0.929 . S
C221 C211 1.392 . S
C221 C214 1.357 . S
C221 H234 0.928 . S
H222 C198 0.931 . S
H223 C200 0.930 . S
H224 C202 0.929 1_655 S
H225 C203 0.931 1_655 S
H226 C205 0.930 . S
H227 C209 0.931 . S
H228 C207 0.931 . S
H229 C211 0.925 1_455 S
H230 C212 0.929 . S
H231 C213 0.930 . S
H232 C216 0.930 . S
H233 C217 0.931 . S
H234 C221 0.928 . S
H235 C220 0.929 . S
H236 C218 0.932 . S
C237 C238 1.402 . S
C237 C239 1.397 . S
C237 H261 0.931 . S
C238 C237 1.402 . S
C238 C242 1.381 1_655 S
C239 C237 1.397 . S
C239 C240 1.384 . S
C239 H262 0.930 . S
C240 C239 1.384 . S
C240 C241 1.377 1_655 S
C240 C243 1.481 . S
C241 C240 1.377 1_455 S
C241 C242 1.389 . S
C241 H263 0.929 . S
C242 C238 1.381 1_455 S
C242 C241 1.389 . S
C242 H264 0.931 . S
C243 C240 1.481 . S
C243 C244 1.387 . S
C243 C248 1.390 1_655 S
C244 C243 1.387 . S
C244 C245 1.401 . S
C244 H265 0.930 . S
C245 C244 1.401 . S
C245 C246 1.376 . S
C245 C254 1.511 . S
C246 C245 1.376 . S
C246 C247 1.392 1_655 S
C246 H267 0.931 . S
C247 C246 1.392 1_455 S
C247 C248 1.361 . S
C247 C249 1.500 . S
C248 C243 1.390 1_455 S
C248 C247 1.361 . S
C248 H266 0.931 . S
C249 C247 1.500 . S
C249 C250 1.371 . S
C249 C251 1.365 . S
C250 C249 1.371 . S
C250 C260 1.386 . S
C250 H268 0.931 . S
C251 C249 1.365 . S
C251 C252 1.409 . S
C251 H269 0.929 . S
C252 C251 1.409 . S
C252 C253 1.380 . S
C252 H270 0.930 . S
C253 C252 1.380 . S
C253 C260 1.357 . S
C254 C245 1.511 . S
C254 C255 1.341 . S
C254 C256 1.371 . S
C255 C254 1.341 . S
C255 C259 1.394 . S
C255 H271 0.930 . S
C256 C254 1.371 . S
C256 C257 1.392 . S
C256 H272 0.931 . S
C257 C256 1.392 . S
C257 C258 1.331 . S
C257 H275 0.932 . S
C258 C257 1.331 . S
C258 C259 1.336 . S
C259 C255 1.394 . S
C259 C258 1.336 . S
C259 H274 0.929 . S
C260 C250 1.386 . S
C260 C253 1.357 . S
C260 H273 0.928 . S
H261 C237 0.931 . S
H262 C239 0.930 . S
H263 C241 0.929 . S
H264 C242 0.931 . S
H265 C244 0.930 . S
H266 C248 0.931 . S
H267 C246 0.931 . S
H268 C250 0.931 . S
H269 C251 0.929 . S
H270 C252 0.930 . S
H271 C255 0.930 . S
H272 C256 0.931 . S
H273 C260 0.928 . S
H274 C259 0.929 . S
H275 C257 0.932 . S
C276 C277 1.386 . S
C276 C278 1.397 . S
C276 H300 0.931 . S
C277 C276 1.386 . S
C277 C281 1.397 1_565 S
C278 C276 1.397 . S
C278 C279 1.384 . S
C278 H301 0.930 . S
C279 C278 1.384 . S
C279 C280 1.377 1_565 S
C279 C282 1.481 1_565 S
C280 C279 1.377 1_545 S
C280 C281 1.389 . S
C280 H302 0.929 . S
C281 C277 1.397 1_545 S
C281 C280 1.389 . S
C281 H303 0.931 . S
C282 C279 1.481 1_545 S
C282 C283 1.379 1_545 S
C282 C287 1.398 . S
C283 C282 1.379 1_565 S
C283 C284 1.401 . S
C283 H304 0.930 . S
C284 C283 1.401 . S
C284 C285 1.376 1_565 S
C284 C293 1.511 . S
C285 C284 1.376 1_545 S
C285 C286 1.392 . S
C285 H306 0.931 . S
C286 C285 1.392 . S
C286 C287 1.361 . S
C286 C288 1.500 . S
C287 C282 1.398 . S
C287 C286 1.361 . S
C287 H305 0.931 . S
C288 C286 1.500 . S
C288 C289 1.371 . S
C288 C290 1.365 . S
C289 C288 1.371 . S
C289 C299 1.386 . S
C289 H307 0.931 . S
C290 C288 1.365 . S
C290 C291 1.409 . S
C290 H308 0.929 . S
C291 C290 1.409 . S
C291 C292 1.380 . S
C291 H309 0.930 . S
C292 C291 1.380 . S
C292 C299 1.357 . S
C293 C284 1.511 . S
C293 C294 1.341 . S
C293 C295 1.371 . S
C294 C293 1.341 . S
C294 C298 1.394 . S
C294 H310 0.930 . S
C295 C293 1.371 . S
C295 C296 1.392 . S
C295 H311 0.931 . S
C296 C295 1.392 . S
C296 C297 1.331 . S
C296 H314 0.932 . S
C297 C296 1.331 . S
C297 C298 1.336 . S
C298 C294 1.394 . S
C298 C297 1.336 . S
C298 H313 0.929 . S
C299 C289 1.386 . S
C299 C292 1.357 . S
C299 H312 0.928 . S
H300 C276 0.931 . S
H301 C278 0.930 . S
H302 C280 0.929 . S
H303 C281 0.931 . S
H304 C283 0.930 . S
H305 C287 0.931 . S
H306 C285 0.931 . S
H307 C289 0.931 . S
H308 C290 0.929 . S
H309 C291 0.930 . S
H310 C294 0.930 . S
H311 C295 0.931 . S
H312 C299 0.928 . S
H313 C298 0.929 . S
H314 C296 0.932 . S
C315 C316 1.386 . S
C315 C317 1.397 . S
C315 H339 0.931 . S
C316 C315 1.386 . S
C316 C320 1.397 . S
C317 C315 1.397 . S
C317 C318 1.384 . S
C317 H340 0.930 . S
C318 C317 1.384 . S
C318 C319 1.377 . S
C318 C321 1.481 . S
C319 C318 1.377 . S
C319 C320 1.389 . S
C319 H341 0.929 . S
C320 C316 1.397 . S
C320 C319 1.389 . S
C320 H342 0.931 . S
C321 C318 1.481 . S
C321 C322 1.387 . S
C321 C326 1.390 . S
C322 C321 1.387 . S
C322 C323 1.401 . S
C322 H343 0.930 . S
C323 C322 1.401 . S
C323 C324 1.376 . S
C323 C332 1.511 . S
C324 C323 1.376 . S
C324 C325 1.392 . S
C324 H345 0.931 . S
C325 C324 1.392 . S
C325 C326 1.361 . S
C325 C327 1.500 . S
C326 C321 1.390 . S
C326 C325 1.361 . S
C326 H344 0.931 . S
C327 C325 1.500 . S
C327 C328 1.371 . S
C327 C329 1.365 . S
C328 C327 1.371 . S
C328 C338 1.386 . S
C328 H346 0.931 . S
C329 C327 1.365 . S
C329 C330 1.409 . S
C329 H347 0.929 . S
C330 C329 1.409 . S
C330 C331 1.380 . S
C330 H348 0.930 . S
C331 C330 1.380 . S
C331 C338 1.357 . S
C332 C323 1.511 . S
C332 C333 1.341 . S
C332 C334 1.371 . S
C333 C332 1.341 . S
C333 C337 1.394 . S
C333 H349 0.930 . S
C334 C332 1.371 . S
C334 C335 1.392 . S
C334 H350 0.931 . S
C335 C334 1.392 . S
C335 C336 1.331 . S
C335 H353 0.932 . S
C336 C335 1.331 . S
C336 C337 1.336 . S
C337 C333 1.394 . S
C337 C336 1.336 . S
C337 H352 0.929 . S
C338 C328 1.386 . S
C338 C331 1.357 . S
C338 H351 0.928 . S
H339 C315 0.931 . S
H340 C317 0.930 . S
H341 C319 0.929 . S
H342 C320 0.931 . S
H343 C322 0.930 . S
H344 C326 0.931 . S
H345 C324 0.931 . S
H346 C328 0.931 . S
H347 C329 0.929 . S
H348 C330 0.930 . S
H349 C333 0.930 . S
H350 C334 0.931 . S
H351 C338 0.928 . S
H352 C337 0.929 . S
H353 C335 0.932 . S
H354 C366 0.930 . S
H355 C368 0.930 . S
H356 C369 0.930 . S
H357 C373 0.959 . S
H358 C373 0.959 . S
H359 C373 0.961 . S
H360 C374 0.960 . S
H361 C374 0.961 . S
H362 C374 0.959 . S
H363 C377 0.929 . S
H364 C378 0.931 . S
H365 C380 0.930 . S
C366 H354 0.930 . S
C366 C367 1.399 . S
C366 C371 1.399 . S
C367 C366 1.399 . S
C367 C368 1.376 . S
C368 H355 0.930 . S
C368 C367 1.376 . S
C368 C369 1.388 . S
C369 H356 0.930 . S
C369 C368 1.388 . S
C369 C370 1.390 . S
C370 C369 1.390 . S
C370 C371 1.394 . S
C370 C376 1.465 . S
C371 C366 1.399 . S
C371 C370 1.394 . S
C371 C372 1.516 . S
C372 C371 1.516 . S
C372 C373 1.502 . S
C372 C374 1.561 . S
C372 C375 1.526 . S
C373 H357 0.959 . S
C373 H358 0.959 . S
C373 H359 0.961 . S
C373 C372 1.502 . S
C374 H360 0.960 . S
C374 H361 0.961 . S
C374 H362 0.959 . S
C374 C372 1.561 . S
C375 C372 1.526 . S
C375 C376 1.396 . S
C375 C380 1.390 . S
C376 C370 1.465 . S
C376 C375 1.396 . S
C376 C377 1.399 . S
C377 H363 0.929 . S
C377 C376 1.399 . S
C377 C378 1.385 . S
C378 H364 0.931 . S
C378 C377 1.385 . S
C378 C379 1.389 . S
C379 C378 1.389 . S
C379 C380 1.387 . S
C380 H365 0.930 . S
C380 C375 1.390 . S
C380 C379 1.387 . S
H381 C393 0.930 . S
H382 C395 0.930 . S
H383 C396 0.930 . S
H384 C400 0.959 . S
H385 C400 0.959 . S
H386 C400 0.961 . S
H387 C401 0.960 . S
H388 C401 0.961 . S
H389 C401 0.959 . S
H390 C404 0.929 . S
H391 C405 0.931 . S
H392 C407 0.930 . S
C393 H381 0.930 . S
C393 C394 1.399 . S
C393 C398 1.399 . S
C394 C393 1.399 . S
C394 C395 1.376 . S
C395 H382 0.930 . S
C395 C394 1.376 . S
C395 C396 1.388 . S
C396 H383 0.930 . S
C396 C395 1.388 . S
C396 C397 1.390 . S
C397 C396 1.390 . S
C397 C398 1.394 . S
C397 C403 1.465 . S
C398 C393 1.399 . S
C398 C397 1.394 . S
C398 C399 1.516 . S
C399 C398 1.516 . S
C399 C400 1.502 . S
C399 C401 1.561 . S
C399 C402 1.526 . S
C400 H384 0.959 . S
C400 H385 0.959 . S
C400 H386 0.961 . S
C400 C399 1.502 . S
C401 H387 0.960 . S
C401 H388 0.961 . S
C401 H389 0.959 . S
C401 C399 1.561 . S
C402 C399 1.526 . S
C402 C403 1.396 . S
C402 C407 1.390 . S
C403 C397 1.465 . S
C403 C402 1.396 . S
C403 C404 1.399 . S
C404 H390 0.929 . S
C404 C403 1.399 . S
C404 C405 1.385 . S
C405 H391 0.931 . S
C405 C404 1.385 . S
C405 C406 1.389 . S
C406 C405 1.389 . S
C406 C407 1.387 . S
C407 H392 0.930 . S
C407 C402 1.390 . S
C407 C406 1.387 . S
H408 C420 0.930 . S
H409 C422 0.930 . S
H410 C423 0.930 . S
H411 C427 0.959 . S
H412 C427 0.959 . S
H413 C427 0.961 . S
H414 C428 0.960 . S
H415 C428 0.961 . S
H416 C428 0.959 . S
H417 C431 0.929 . S
H418 C432 0.931 . S
H419 C434 0.930 . S
C420 H408 0.930 . S
C420 C421 1.399 . S
C420 C425 1.399 . S
C421 C420 1.399 . S
C421 C422 1.376 . S
C422 H409 0.930 . S
C422 C421 1.376 . S
C422 C423 1.388 . S
C423 H410 0.930 . S
C423 C422 1.388 . S
C423 C424 1.390 . S
C424 C423 1.390 . S
C424 C425 1.394 . S
C424 C430 1.465 . S
C425 C420 1.399 . S
C425 C424 1.394 . S
C425 C426 1.516 . S
C426 C425 1.516 . S
C426 C427 1.502 . S
C426 C428 1.561 . S
C426 C429 1.526 . S
C427 H411 0.959 . S
C427 H412 0.959 . S
C427 H413 0.961 . S
C427 C426 1.502 . S
C428 H414 0.960 . S
C428 H415 0.961 . S
C428 H416 0.959 . S
C428 C426 1.561 . S
C429 C426 1.526 . S
C429 C430 1.396 . S
C429 C434 1.390 . S
C430 C424 1.465 . S
C430 C429 1.396 . S
C430 C431 1.399 . S
C431 H417 0.929 . S
C431 C430 1.399 . S
C431 C432 1.385 . S
C432 H418 0.931 . S
C432 C431 1.385 . S
C432 C433 1.389 . S
C433 C432 1.389 . S
C433 C434 1.387 . S
C434 H419 0.930 . S
C434 C429 1.390 . S
C434 C433 1.387 . S
H435 C447 0.930 . S
H436 C449 0.930 . S
H437 C450 0.930 . S
H438 C454 0.959 . S
H439 C454 0.959 . S
H440 C454 0.961 . S
H441 C455 0.960 . S
H442 C455 0.961 . S
H443 C455 0.959 . S
H444 C458 0.929 . S
H445 C459 0.931 . S
H446 C461 0.930 . S
C447 H435 0.930 . S
C447 C448 1.399 . S
C447 C452 1.399 . S
C448 C447 1.399 . S
C448 C449 1.376 . S
C449 H436 0.930 . S
C449 C448 1.376 . S
C449 C450 1.388 . S
C450 H437 0.930 . S
C450 C449 1.388 . S
C450 C451 1.390 . S
C451 C450 1.390 . S
C451 C452 1.394 . S
C451 C457 1.465 . S
C452 C447 1.399 . S
C452 C451 1.394 . S
C452 C453 1.516 . S
C453 C452 1.516 . S
C453 C454 1.502 . S
C453 C455 1.561 . S
C453 C456 1.526 . S
C454 H438 0.959 . S
C454 H439 0.959 . S
C454 H440 0.961 . S
C454 C453 1.502 . S
C455 H441 0.960 . S
C455 H442 0.961 . S
C455 H443 0.959 . S
C455 C453 1.561 . S
C456 C453 1.526 . S
C456 C457 1.396 . S
C456 C461 1.390 . S
C457 C451 1.465 . S
C457 C456 1.396 . S
C457 C458 1.399 . S
C458 H444 0.929 . S
C458 C457 1.399 . S
C458 C459 1.385 . S
C459 H445 0.931 . S
C459 C458 1.385 . S
C459 C460 1.389 . S
C460 C459 1.389 . S
C460 C461 1.387 . S
C461 H446 0.930 . S
C461 C456 1.390 . S
C461 C460 1.387 . S
H462 C474 0.930 . S
H463 C476 0.930 . S
H464 C477 0.930 . S
H465 C481 0.959 . S
H466 C481 0.959 . S
H467 C481 0.961 . S
H468 C482 0.960 . S
H469 C482 0.961 . S
H470 C482 0.959 . S
H471 C485 0.929 . S
H472 C486 0.931 . S
H473 C488 0.930 . S
C474 H462 0.930 . S
C474 C475 1.399 . S
C474 C479 1.399 . S
C475 C474 1.399 . S
C475 C476 1.376 . S
C476 H463 0.930 . S
C476 C475 1.376 . S
C476 C477 1.388 . S
C477 H464 0.930 . S
C477 C476 1.388 . S
C477 C478 1.390 . S
C478 C477 1.390 . S
C478 C479 1.394 . S
C478 C484 1.465 . S
C479 C474 1.399 . S
C479 C478 1.394 . S
C479 C480 1.516 . S
C480 C479 1.516 . S
C480 C481 1.502 . S
C480 C482 1.561 . S
C480 C483 1.526 . S
C481 H465 0.959 . S
C481 H466 0.959 . S
C481 H467 0.961 . S
C481 C480 1.502 . S
C482 H468 0.960 . S
C482 H469 0.961 . S
C482 H470 0.959 . S
C482 C480 1.561 . S
C483 C480 1.526 . S
C483 C484 1.396 . S
C483 C488 1.390 . S
C484 C478 1.465 . S
C484 C483 1.396 . S
C484 C485 1.399 . S
C485 H471 0.929 . S
C485 C484 1.399 . S
C485 C486 1.385 . S
C486 H472 0.931 . S
C486 C485 1.385 . S
C486 C487 1.389 . S
C487 C486 1.389 . S
C487 C488 1.387 . S
C488 H473 0.930 . S
C488 C483 1.390 . S
C488 C487 1.387 . S
H489 C501 0.930 . S
H490 C503 0.930 . S
H491 C504 0.930 . S
H492 C508 0.959 . S
H493 C508 0.959 . S
H494 C508 0.961 . S
H495 C509 0.960 . S
H496 C509 0.961 . S
H497 C509 0.959 . S
H498 C512 0.929 . S
H499 C513 0.931 . S
H500 C515 0.930 . S
C501 H489 0.930 . S
C501 C502 1.399 . S
C501 C506 1.399 . S
C502 C501 1.399 . S
C502 C503 1.376 . S
C503 H490 0.930 . S
C503 C502 1.376 . S
C503 C504 1.388 . S
C504 H491 0.930 . S
C504 C503 1.388 . S
C504 C505 1.390 . S
C505 C504 1.390 . S
C505 C506 1.394 . S
C505 C511 1.465 . S
C506 C501 1.399 . S
C506 C505 1.394 . S
C506 C507 1.516 . S
C507 C506 1.516 . S
C507 C508 1.502 . S
C507 C509 1.561 . S
C507 C510 1.526 . S
C508 H492 0.959 . S
C508 H493 0.959 . S
C508 H494 0.961 . S
C508 C507 1.502 . S
C509 H495 0.960 . S
C509 H496 0.961 . S
C509 H497 0.959 . S
C509 C507 1.561 . S
C510 C507 1.526 . S
C510 C511 1.396 . S
C510 C515 1.390 . S
C511 C505 1.465 . S
C511 C510 1.396 . S
C511 C512 1.399 . S
C512 H498 0.929 . S
C512 C511 1.399 . S
C512 C513 1.385 . S
C513 H499 0.931 . S
C513 C512 1.385 . S
C513 C514 1.389 . S
C514 C513 1.389 . S
C514 C515 1.387 . S
C515 H500 0.930 . S
C515 C510 1.390 . S
C515 C514 1.387 . S
H516 C528 0.930 . S
H517 C530 0.930 . S
H518 C531 0.930 . S
H519 C535 0.959 . S
H520 C535 0.959 . S
H521 C535 0.961 . S
H522 C536 0.960 . S
H523 C536 0.961 . S
H524 C536 0.959 . S
H525 C539 0.929 . S
H526 C540 0.931 . S
H527 C542 0.930 . S
C528 H516 0.930 . S
C528 C529 1.399 . S
C528 C533 1.399 . S
C529 C528 1.399 . S
C529 C530 1.376 . S
C530 H517 0.930 . S
C530 C529 1.376 . S
C530 C531 1.388 . S
C531 H518 0.930 . S
C531 C530 1.388 . S
C531 C532 1.390 . S
C532 C531 1.390 . S
C532 C533 1.394 . S
C532 C538 1.465 . S
C533 C528 1.399 . S
C533 C532 1.394 . S
C533 C534 1.516 . S
C534 C533 1.516 . S
C534 C535 1.502 . S
C534 C536 1.561 . S
C534 C537 1.526 . S
C535 H519 0.959 . S
C535 H520 0.959 . S
C535 H521 0.961 . S
C535 C534 1.502 . S
C536 H522 0.960 . S
C536 H523 0.961 . S
C536 H524 0.959 . S
C536 C534 1.561 . S
C537 C534 1.526 . S
C537 C538 1.396 . S
C537 C542 1.390 . S
C538 C532 1.465 . S
C538 C537 1.396 . S
C538 C539 1.399 . S
C539 H525 0.929 . S
C539 C538 1.399 . S
C539 C540 1.385 . S
C540 H526 0.931 . S
C540 C539 1.385 . S
C540 C541 1.389 . S
C541 C540 1.389 . S
C541 C542 1.387 . S
C542 H527 0.930 . S
C542 C537 1.390 . S
C542 C541 1.387 . S
H543 C555 0.930 . S
H544 C557 0.930 . S
H545 C558 0.930 . S
H546 C562 0.959 . S
H547 C562 0.959 . S
H548 C562 0.961 . S
H549 C563 0.960 . S
H550 C563 0.961 . S
H551 C563 0.959 . S
H552 C566 0.929 . S
H553 C567 0.931 . S
H554 C569 0.930 . S
C555 H543 0.930 . S
C555 C556 1.399 . S
C555 C560 1.399 . S
C556 C555 1.399 . S
C556 C557 1.376 . S
C557 H544 0.930 . S
C557 C556 1.376 . S
C557 C558 1.388 . S
C558 H545 0.930 . S
C558 C557 1.388 . S
C558 C559 1.390 . S
C559 C558 1.390 . S
C559 C560 1.394 . S
C559 C565 1.465 . S
C560 C555 1.399 . S
C560 C559 1.394 . S
C560 C561 1.516 . S
C561 C560 1.516 . S
C561 C562 1.502 . S
C561 C563 1.561 . S
C561 C564 1.526 . S
C562 H546 0.959 . S
C562 H547 0.959 . S
C562 H548 0.961 . S
C562 C561 1.502 . S
C563 H549 0.960 . S
C563 H550 0.961 . S
C563 H551 0.959 . S
C563 C561 1.561 . S
C564 C561 1.526 . S
C564 C565 1.396 . S
C564 C569 1.390 . S
C565 C559 1.465 . S
C565 C564 1.396 . S
C565 C566 1.399 . S
C566 H552 0.929 . S
C566 C565 1.399 . S
C566 C567 1.385 . S
C567 H553 0.931 . S
C567 C566 1.385 . S
C567 C568 1.389 . S
C568 C567 1.389 . S
C568 C569 1.387 . S
C569 H554 0.930 . S
C569 C564 1.390 . S
C569 C568 1.387 . S
H570 C582 0.930 . S
H571 C584 0.930 . S
H572 C585 0.930 . S
H573 C589 0.959 . S
H574 C589 0.959 . S
H575 C589 0.961 . S
H576 C590 0.960 . S
H577 C590 0.961 . S
H578 C590 0.959 . S
H579 C593 0.929 . S
H580 C594 0.931 . S
H581 C596 0.930 . S
C582 H570 0.930 . S
C582 C583 1.399 . S
C582 C587 1.399 . S
C583 C582 1.399 . S
C583 C584 1.376 . S
C584 H571 0.930 . S
C584 C583 1.376 . S
C584 C585 1.388 . S
C585 H572 0.930 . S
C585 C584 1.388 . S
C585 C586 1.390 . S
C586 C585 1.390 . S
C586 C587 1.394 . S
C586 C592 1.465 . S
C587 C582 1.399 . S
C587 C586 1.394 . S
C587 C588 1.516 . S
C588 C587 1.516 . S
C588 C589 1.502 . S
C588 C590 1.561 . S
C588 C591 1.526 . S
C589 H573 0.959 . S
C589 H574 0.959 . S
C589 H575 0.961 . S
C589 C588 1.502 . S
C590 H576 0.960 . S
C590 H577 0.961 . S
C590 H578 0.959 . S
C590 C588 1.561 . S
C591 C588 1.526 . S
C591 C592 1.396 . S
C591 C596 1.390 . S
C592 C586 1.465 . S
C592 C591 1.396 . S
C592 C593 1.399 . S
C593 H579 0.929 . S
C593 C592 1.399 . S
C593 C594 1.385 . S
C594 H580 0.931 . S
C594 C593 1.385 . S
C594 C595 1.389 . S
C595 C594 1.389 . S
C595 C596 1.387 . S
C596 H581 0.930 . S
C596 C591 1.390 . S
C596 C595 1.387 . S
H597 C609 0.930 . S
H598 C611 0.930 . S
H599 C612 0.930 . S
H600 C616 0.959 . S
H601 C616 0.959 . S
H602 C616 0.961 . S
H603 C617 0.960 . S
H604 C617 0.961 . S
H605 C617 0.959 . S
H606 C620 0.929 . S
H607 C621 0.931 . S
H608 C623 0.930 . S
C609 H597 0.930 . S
C609 C610 1.399 . S
C609 C614 1.399 . S
C610 C609 1.399 . S
C610 C611 1.376 . S
C611 H598 0.930 . S
C611 C610 1.376 . S
C611 C612 1.388 . S
C612 H599 0.930 . S
C612 C611 1.388 . S
C612 C613 1.390 . S
C613 C612 1.390 . S
C613 C614 1.394 . S
C613 C619 1.465 . S
C614 C609 1.399 . S
C614 C613 1.394 . S
C614 C615 1.516 . S
C615 C614 1.516 . S
C615 C616 1.502 . S
C615 C617 1.561 . S
C615 C618 1.526 . S
C616 H600 0.959 . S
C616 H601 0.959 . S
C616 H602 0.961 . S
C616 C615 1.502 . S
C617 H603 0.960 . S
C617 H604 0.961 . S
C617 H605 0.959 . S
C617 C615 1.561 . S
C618 C615 1.526 . S
C618 C619 1.396 . S
C618 C623 1.390 . S
C619 C613 1.465 . S
C619 C618 1.396 . S
C619 C620 1.399 . S
C620 H606 0.929 . S
C620 C619 1.399 . S
C620 C621 1.385 . S
C621 H607 0.931 . S
C621 C620 1.385 . S
C621 C622 1.389 . S
C622 C621 1.389 . S
C622 C623 1.387 . S
C623 H608 0.930 . S
C623 C618 1.390 . S
C623 C622 1.387 . S
H624 C636 0.930 . S
H625 C638 0.930 . S
H626 C639 0.930 . S
H627 C643 0.959 . S
H628 C643 0.959 . S
H629 C643 0.961 . S
H630 C644 0.960 . S
H631 C644 0.961 . S
H632 C644 0.959 . S
H633 C647 0.929 . S
H634 C648 0.931 . S
H635 C650 0.930 . S
C636 H624 0.930 . S
C636 C637 1.399 . S
C636 C641 1.399 . S
C637 C636 1.399 . S
C637 C638 1.376 . S
C638 H625 0.930 . S
C638 C637 1.376 . S
C638 C639 1.388 . S
C639 H626 0.930 . S
C639 C638 1.388 . S
C639 C640 1.390 . S
C640 C639 1.390 . S
C640 C641 1.394 . S
C640 C646 1.465 . S
C641 C636 1.399 . S
C641 C640 1.394 . S
C641 C642 1.516 . S
C642 C641 1.516 . S
C642 C643 1.502 . S
C642 C644 1.561 . S
C642 C645 1.526 . S
C643 H627 0.959 . S
C643 H628 0.959 . S
C643 H629 0.961 . S
C643 C642 1.502 . S
C644 H630 0.960 . S
C644 H631 0.961 . S
C644 H632 0.959 . S
C644 C642 1.561 . S
C645 C642 1.526 . S
C645 C646 1.396 . S
C645 C650 1.390 . S
C646 C640 1.465 . S
C646 C645 1.396 . S
C646 C647 1.399 . S
C647 H633 0.929 . S
C647 C646 1.399 . S
C647 C648 1.385 . S
C648 H634 0.931 . S
C648 C647 1.385 . S
C648 C649 1.389 . S
C649 C648 1.389 . S
C649 C650 1.387 . S
C650 H635 0.930 . S
C650 C645 1.390 . S
C650 C649 1.387 . S
H651 C663 0.930 . S
H652 C665 0.930 . S
H653 C666 0.930 . S
H654 C670 0.959 . S
H655 C670 0.959 . S
H656 C670 0.961 . S
H657 C671 0.960 . S
H658 C671 0.961 . S
H659 C671 0.959 . S
H660 C674 0.929 . S
H661 C675 0.931 . S
H662 C677 0.930 . S
C663 H651 0.930 . S
C663 C664 1.399 . S
C663 C668 1.399 . S
C664 C663 1.399 . S
C664 C665 1.376 . S
C665 H652 0.930 . S
C665 C664 1.376 . S
C665 C666 1.388 . S
C666 H653 0.930 . S
C666 C665 1.388 . S
C666 C667 1.390 . S
C667 C666 1.390 . S
C667 C668 1.394 . S
C667 C673 1.465 . S
C668 C663 1.399 . S
C668 C667 1.394 . S
C668 C669 1.516 . S
C669 C668 1.516 . S
C669 C670 1.502 . S
C669 C671 1.561 . S
C669 C672 1.526 . S
C670 H654 0.959 . S
C670 H655 0.959 . S
C670 H656 0.961 . S
C670 C669 1.502 . S
C671 H657 0.960 . S
C671 H658 0.961 . S
C671 H659 0.959 . S
C671 C669 1.561 . S
C672 C669 1.526 . S
C672 C673 1.396 . S
C672 C677 1.390 . S
C673 C667 1.465 . S
C673 C672 1.396 . S
C673 C674 1.399 . S
C674 H660 0.929 . S
C674 C673 1.399 . S
C674 C675 1.385 . S
C675 H661 0.931 . S
C675 C674 1.385 . S
C675 C676 1.389 . S
C676 C675 1.389 . S
C676 C677 1.387 . S
C677 H662 0.930 . S
C677 C672 1.390 . S
C677 C676 1.387 . S
H678 C690 0.930 . S
H679 C692 0.930 . S
H680 C693 0.930 . S
H681 C697 0.959 . S
H682 C697 0.959 . S
H683 C697 0.961 . S
H684 C698 0.960 . S
H685 C698 0.961 . S
H686 C698 0.959 . S
H687 C701 0.929 . S
H688 C702 0.931 . S
H689 C704 0.930 . S
C690 H678 0.930 . S
C690 C691 1.399 . S
C690 C695 1.399 . S
C691 C690 1.399 . S
C691 C692 1.376 . S
C692 H679 0.930 . S
C692 C691 1.376 . S
C692 C693 1.388 . S
C693 H680 0.930 . S
C693 C692 1.388 . S
C693 C694 1.390 . S
C694 C693 1.390 . S
C694 C695 1.394 . S
C694 C700 1.465 . S
C695 C690 1.399 . S
C695 C694 1.394 . S
C695 C696 1.516 . S
C696 C695 1.516 . S
C696 C697 1.502 . S
C696 C698 1.561 1_455 S
C696 C699 1.526 . S
C697 H681 0.959 . S
C697 H682 0.959 . S
C697 H683 0.961 . S
C697 C696 1.502 . S
C698 H684 0.960 . S
C698 H685 0.961 . S
C698 H686 0.959 . S
C698 C696 1.561 1_655 S
C699 C696 1.526 . S
C699 C700 1.396 . S
C699 C704 1.390 . S
C700 C694 1.465 . S
C700 C699 1.396 . S
C700 C701 1.399 . S
C701 H687 0.929 . S
C701 C700 1.399 . S
C701 C702 1.385 . S
C702 H688 0.931 . S
C702 C701 1.385 . S
C702 C703 1.389 . S
C703 C702 1.389 . S
C703 C704 1.387 . S
C704 H689 0.930 . S
C704 C699 1.390 . S
C704 C703 1.387 . S
H705 C717 0.930 . S
H706 C719 0.930 . S
H707 C720 0.930 . S
H708 C724 0.959 . S
H709 C724 0.959 . S
H710 C724 0.961 . S
H711 C725 0.960 . S
H712 C725 0.961 . S
H713 C725 0.959 . S
H714 C728 0.929 . S
H715 C729 0.931 . S
H716 C731 0.930 . S
C717 H705 0.930 . S
C717 C718 1.399 . S
C717 C722 1.399 . S
C718 C717 1.399 . S
C718 C719 1.376 1_545 S
C719 H706 0.930 . S
C719 C718 1.376 1_565 S
C719 C720 1.388 . S
C720 H707 0.930 . S
C720 C719 1.388 . S
C720 C721 1.390 1_565 S
C721 C720 1.390 1_545 S
C721 C722 1.394 . S
C721 C727 1.465 . S
C722 C717 1.399 . S
C722 C721 1.394 . S
C722 C723 1.516 . S
C723 C722 1.516 . S
C723 C724 1.502 . S
C723 C725 1.561 . S
C723 C726 1.526 . S
C724 H708 0.959 . S
C724 H709 0.959 . S
C724 H710 0.961 . S
C724 C723 1.502 . S
C725 H711 0.960 . S
C725 H712 0.961 . S
C725 H713 0.959 . S
C725 C723 1.561 . S
C726 C723 1.526 . S
C726 C727 1.396 . S
C726 C731 1.390 . S
C727 C721 1.465 . S
C727 C726 1.396 . S
C727 C728 1.399 1_545 S
C728 H714 0.929 . S
C728 C727 1.399 1_565 S
C728 C729 1.385 . S
C729 H715 0.931 . S
C729 C728 1.385 . S
C729 C730 1.389 1_565 S
C730 C729 1.389 1_545 S
C730 C731 1.387 . S
C731 H716 0.930 . S
C731 C726 1.390 . S
C731 C730 1.387 . S
H732 C744 0.930 . S
H733 C746 0.930 . S
H734 C747 0.930 . S
H735 C751 0.959 . S
H736 C751 0.959 . S
H737 C751 0.961 . S
H738 C752 0.960 . S
H739 C752 0.961 . S
H740 C752 0.959 . S
H741 C755 0.929 . S
H742 C756 0.931 . S
H743 C758 0.930 . S
C744 H732 0.930 . S
C744 C745 1.399 . S
C744 C749 1.399 . S
C745 C744 1.399 . S
C745 C746 1.376 . S
C746 H733 0.930 . S
C746 C745 1.376 . S
C746 C747 1.388 . S
C747 H734 0.930 . S
C747 C746 1.388 . S
C747 C748 1.390 . S
C748 C747 1.390 . S
C748 C749 1.394 . S
C748 C754 1.465 . S
C749 C744 1.399 . S
C749 C748 1.394 . S
C749 C750 1.516 . S
C750 C749 1.516 . S
C750 C751 1.502 . S
C750 C752 1.561 . S
C750 C753 1.526 . S
C751 H735 0.959 . S
C751 H736 0.959 . S
C751 H737 0.961 . S
C751 C750 1.502 . S
C752 H738 0.960 . S
C752 H739 0.961 . S
C752 H740 0.959 . S
C752 C750 1.561 . S
C753 C750 1.526 . S
C753 C754 1.396 . S
C753 C758 1.390 . S
C754 C748 1.465 . S
C754 C753 1.396 . S
C754 C755 1.399 . S
C755 H741 0.929 . S
C755 C754 1.399 . S
C755 C756 1.385 . S
C756 H742 0.931 . S
C756 C755 1.385 . S
C756 C757 1.389 . S
C757 C756 1.389 . S
C757 C758 1.387 . S
C758 H743 0.930 . S
C758 C753 1.390 . S
C758 C757 1.387 . S
H759 C771 0.930 . S
H760 C773 0.930 . S
H761 C774 0.930 . S
H762 C778 0.959 . S
H763 C778 0.959 . S
H764 C778 0.961 . S
H765 C779 0.960 . S
H766 C779 0.961 . S
H767 C779 0.959 . S
H768 C782 0.929 . S
H769 C783 0.931 . S
H770 C785 0.930 . S
C771 H759 0.930 . S
C771 C772 1.399 1_565 S
C771 C776 1.399 . S
C772 C771 1.399 1_545 S
C772 C773 1.376 . S
C773 H760 0.930 . S
C773 C772 1.376 . S
C773 C774 1.388 . S
C774 H761 0.930 . S
C774 C773 1.388 . S
C774 C775 1.390 . S
C775 C774 1.390 . S
C775 C776 1.394 1_545 S
C775 C781 1.465 . S
C776 C771 1.399 . S
C776 C775 1.394 1_565 S
C776 C777 1.516 . S
C777 C776 1.516 . S
C777 C778 1.502 . S
C777 C779 1.561 . S
C777 C780 1.526 . S
C778 H762 0.959 . S
C778 H763 0.959 . S
C778 H764 0.961 . S
C778 C777 1.502 . S
C779 H765 0.960 . S
C779 H766 0.961 . S
C779 H767 0.959 . S
C779 C777 1.561 . S
C780 C777 1.526 . S
C780 C781 1.396 1_565 S
C780 C785 1.390 . S
C781 C775 1.465 . S
C781 C780 1.396 1_545 S
C781 C782 1.399 . S
C782 H768 0.929 . S
C782 C781 1.399 . S
C782 C783 1.385 . S
C783 H769 0.931 . S
C783 C782 1.385 . S
C783 C784 1.403 . S
C784 C783 1.403 . S
C784 C785 1.377 1_545 S
C785 H770 0.930 . S
C785 C780 1.390 . S
C785 C784 1.377 1_565 S
H786 C798 0.930 . S
H787 C800 0.930 . S
H788 C801 0.930 . S
H789 C805 0.959 . S
H790 C805 0.959 . S
H791 C805 0.961 . S
H792 C806 0.960 . S
H793 C806 0.961 . S
H794 C806 0.959 . S
H795 C809 0.929 . S
H796 C810 0.974 . S
H797 C812 0.930 . S
C798 H786 0.930 . S
C798 C799 1.399 . S
C798 C803 1.399 . S
C799 C798 1.399 . S
C799 C800 1.376 . S
C800 H787 0.930 . S
C800 C799 1.376 . S
C800 C801 1.388 . S
C801 H788 0.930 . S
C801 C800 1.388 . S
C801 C802 1.390 . S
C802 C801 1.390 . S
C802 C803 1.394 . S
C802 C808 1.465 . S
C803 C798 1.399 . S
C803 C802 1.394 . S
C803 C804 1.516 . S
C804 C803 1.516 . S
C804 C805 1.502 . S
C804 C806 1.561 . S
C804 C807 1.526 . S
C805 H789 0.959 . S
C805 H790 0.959 . S
C805 H791 0.961 . S
C805 C804 1.502 . S
C806 H792 0.960 . S
C806 H793 0.961 . S
C806 H794 0.959 . S
C806 C804 1.561 . S
C807 C804 1.526 . S
C807 C808 1.396 . S
C807 C812 1.390 . S
C808 C802 1.465 . S
C808 C807 1.396 . S
C808 C809 1.399 . S
C809 H795 0.929 . S
C809 C808 1.399 . S
C809 C810 1.385 . S
C810 H796 0.974 . S
C810 C809 1.385 . S
C810 C811 1.389 . S
C811 C810 1.389 . S
C811 C812 1.387 . S
C812 H797 0.930 . S
C812 C807 1.390 . S
C812 C811 1.387 . S
H813 C825 0.930 . S
H814 C827 0.930 . S
H815 C828 0.930 . S
H816 C832 0.959 1_455 S
H817 C832 0.959 . S
H818 C832 0.961 . S
H819 C833 0.960 . S
H820 C833 0.961 . S
H821 C833 0.959 . S
H822 C836 0.929 . S
H823 C837 0.931 . S
H824 C839 0.930 . S
C825 H813 0.930 . S
C825 C826 1.399 1_655 S
C825 C830 1.399 . S
C826 C825 1.399 1_455 S
C826 C827 1.376 . S
C827 H814 0.930 . S
C827 C826 1.376 . S
C827 C828 1.388 . S
C828 H815 0.930 . S
C828 C827 1.388 . S
C828 C829 1.390 . S
C829 C828 1.390 . S
C829 C830 1.394 1_455 S
C829 C835 1.465 . S
C830 C825 1.399 . S
C830 C829 1.394 1_655 S
C830 C831 1.516 . S
C831 C830 1.516 . S
C831 C832 1.502 . S
C831 C833 1.561 . S
C831 C834 1.526 . S
C832 H816 0.959 1_655 S
C832 H817 0.959 . S
C832 H818 0.961 . S
C832 C831 1.502 . S
C833 H819 0.960 . S
C833 H820 0.961 . S
C833 H821 0.959 . S
C833 C831 1.561 . S
C834 C831 1.526 . S
C834 C835 1.396 1_655 S
C834 C839 1.390 . S
C835 C829 1.465 . S
C835 C834 1.396 1_455 S
C835 C836 1.399 . S
C836 H822 0.929 . S
C836 C835 1.399 . S
C836 C837 1.385 . S
C837 H823 0.931 . S
C837 C836 1.385 . S
C837 C838 1.389 . S
C838 C837 1.389 . S
C838 C839 1.387 1_455 S
C839 H824 0.930 . S
C839 C834 1.390 . S
C839 C838 1.387 1_655 S
C367 C7 0.698 . S
C379 C331 0.646 . S
C394 C51 1.929 . S
C406 C258 1.920 . S
C421 C87 1.210 . S
C433 C297 1.226 . S
C448 C16 0.317 . S
C460 C336 0.285 . S
C487 C253 2.014 . S
C475 C42 2.053 . S
C514 C292 1.329 . S
C502 C96 1.330 . S
C529 C47 1.190 . S
C541 C180 1.214 . S
C556 C91 3.127 . S
C568 C214 3.062 . S
C583 C2 2.066 . S
C595 C136 2.002 . S
C622 C175 1.309 . S
C610 C56 1.308 . S
C649 C219 2.951 . S
C637 C82 2.991 . S
C664 C11 1.928 . S
C676 C141 1.921 . S
C703 C199 1.769 1_554 S
C691 C19 1.673 . S
C718 C50 1.298 . S
C730 C121 1.372 . S
C745 C99 1.439 . S
C757 C160 1.502 . S
C784 C277 1.478 1_545 S
C772 C59 1.461 . S
C811 C316 1.087 1_556 S
C799 C90 1.070 . S
C826 C10 1.295 . S
C838 C238 1.358 1_455 S
