# Generated by pormake.
# Topology zzz, (3,6)-cn, num edge types: 1
# Building blocks:
#     Node 0, Type 0, BuildingBlock: BELTOD_clean_linker_0, # of connection points: 3
#     Node 1, Type 0, BuildingBlock: BELTOD_clean_linker_0, # of connection points: 3
#     Node 2, Type 0, BuildingBlock: BELTOD_clean_linker_0, # of connection points: 3
#     Node 3, Type 0, BuildingBlock: BELTOD_clean_linker_0, # of connection points: 3
#     Node 4, Type 0, BuildingBlock: BELTOD_clean_linker_0, # of connection points: 3
#     Node 5, Type 0, BuildingBlock: BELTOD_clean_linker_0, # of connection points: 3
#     Node 6, Type 0, BuildingBlock: BELTOD_clean_linker_0, # of connection points: 3
#     Node 7, Type 0, BuildingBlock: BELTOD_clean_linker_0, # of connection points: 3
#     Node 8, Type 1, BuildingBlock: BETDEL_clean_sbu_0, # of connection points: 6
#     Node 9, Type 1, BuildingBlock: BETDEL_clean_sbu_0, # of connection points: 6
#     Node 10, Type 1, BuildingBlock: BETDEL_clean_sbu_0, # of connection points: 6
#     Node 11, Type 1, BuildingBlock: BETDEL_clean_sbu_0, # of connection points: 6
#     Edge 12, Type (0, 1), BuildingBlock: KIFKEQ_clean_linker_1, # of connection points: 2
#     Edge 13, Type (0, 1), BuildingBlock: KIFKEQ_clean_linker_1, # of connection points: 2
#     Edge 14, Type (0, 1), BuildingBlock: KIFKEQ_clean_linker_1, # of connection points: 2
#     Edge 15, Type (0, 1), BuildingBlock: KIFKEQ_clean_linker_1, # of connection points: 2
#     Edge 16, Type (0, 1), BuildingBlock: KIFKEQ_clean_linker_1, # of connection points: 2
#     Edge 17, Type (0, 1), BuildingBlock: KIFKEQ_clean_linker_1, # of connection points: 2
#     Edge 18, Type (0, 1), BuildingBlock: KIFKEQ_clean_linker_1, # of connection points: 2
#     Edge 19, Type (0, 1), BuildingBlock: KIFKEQ_clean_linker_1, # of connection points: 2
#     Edge 20, Type (0, 1), BuildingBlock: KIFKEQ_clean_linker_1, # of connection points: 2
#     Edge 21, Type (0, 1), BuildingBlock: KIFKEQ_clean_linker_1, # of connection points: 2
#     Edge 22, Type (0, 1), BuildingBlock: KIFKEQ_clean_linker_1, # of connection points: 2
#     Edge 23, Type (0, 1), BuildingBlock: KIFKEQ_clean_linker_1, # of connection points: 2
#     Edge 24, Type (0, 1), BuildingBlock: KIFKEQ_clean_linker_1, # of connection points: 2
#     Edge 25, Type (0, 1), BuildingBlock: KIFKEQ_clean_linker_1, # of connection points: 2
#     Edge 26, Type (0, 1), BuildingBlock: KIFKEQ_clean_linker_1, # of connection points: 2
#     Edge 27, Type (0, 1), BuildingBlock: KIFKEQ_clean_linker_1, # of connection points: 2
#     Edge 28, Type (0, 1), BuildingBlock: KIFKEQ_clean_linker_1, # of connection points: 2
#     Edge 29, Type (0, 1), BuildingBlock: KIFKEQ_clean_linker_1, # of connection points: 2
#     Edge 30, Type (0, 1), BuildingBlock: KIFKEQ_clean_linker_1, # of connection points: 2
#     Edge 31, Type (0, 1), BuildingBlock: KIFKEQ_clean_linker_1, # of connection points: 2
#     Edge 32, Type (0, 1), BuildingBlock: KIFKEQ_clean_linker_1, # of connection points: 2
#     Edge 33, Type (0, 1), BuildingBlock: KIFKEQ_clean_linker_1, # of connection points: 2
#     Edge 34, Type (0, 1), BuildingBlock: KIFKEQ_clean_linker_1, # of connection points: 2
#     Edge 35, Type (0, 1), BuildingBlock: KIFKEQ_clean_linker_1, # of connection points: 2
# Relax obj value: 0.313
# Max RMSD: 0.214
# Mean RMSD: 0.200
data_MOF--net-zzz--node1-BETDEL_clean_sbu_0--node2-BELTOD_clean_linker_0--edge1-KIFKEQ_clean_linker_1
_symmetry_space_group_name_H-M    P1
_symmetry_Int_Tables_number       1
_symmetry_cell_setting            triclinic
loop_
_symmetry_equiv_pos_as_xyz
'x, y, z'
_cell_length_a     53.962689
_cell_length_b     53.649968
_cell_length_c     18.727306
_cell_angle_alpha  91.236736
_cell_angle_beta   89.20308
_cell_angle_gamma 95.912091
loop_
_atom_site_label
_atom_site_type_symbol
_atom_site_fract_x
_atom_site_fract_y
_atom_site_fract_z
_atom_type_partial_charge
P0 P 0.73656 0.43763 0.11207 0.0
H1 H 0.74542 0.44126 0.26597 0.0
H2 H 0.78017 0.4625 0.33262 0.0
H3 H 0.80493 0.50359 0.14443 0.0
H4 H 0.77015 0.48199 0.07774 0.0
H5 H 0.70232 0.41338 0.00916 0.0
H6 H 0.67435 0.42891 0.92309 0.0
H7 H 0.69431 0.50457 0.00125 0.0
H8 H 0.7222 0.48876 0.08819 0.0
H9 H 0.77294 0.40354 0.14701 0.0
H10 H 0.7529 0.4436 0.96266 0.0
O11 O 0.72144 0.41565 0.16273 0.0
H12 H 0.81128 0.39375 0.08566 0.0
H13 H 0.79071 0.43374 0.9014 0.0
C14 C 0.75503 0.46019 0.16699 0.0
C15 C 0.75767 0.45559 0.23974 0.0
C16 C 0.77766 0.46775 0.27787 0.0
C17 C 0.79552 0.48452 0.24358 0.0
C18 C 0.79167 0.49054 0.17212 0.0
C19 C 0.77158 0.47847 0.13419 0.0
C20 C 0.71441 0.4499 0.05468 0.0
C21 C 0.70052 0.43329 0.0082 0.0
C22 C 0.68472 0.44222 0.95861 0.0
C23 C 0.68237 0.46801 0.95473 0.0
C24 C 0.69573 0.4846 0.00304 0.0
C25 C 0.71174 0.4756 0.05257 0.0
C26 C 0.75978 0.42384 0.05899 0.0
C27 C 0.77627 0.40934 0.09237 0.0
C28 C 0.79824 0.40397 0.0576 0.0
C29 C 0.80396 0.41297 0.98878 0.0
C30 C 0.78663 0.42616 0.95391 0.0
C31 C 0.76486 0.43176 0.98899 0.0
P32 P 0.01595 0.73464 0.15598 0.0
H33 H 0.01494 0.7476 0.30766 0.0
H34 H 0.99401 0.77956 0.36909 0.0
H35 H 0.94446 0.78195 0.19021 0.0
H36 H 0.96688 0.75081 0.12694 0.0
H37 H 0.04581 0.70274 0.07453 0.0
H38 H 0.03623 0.66578 0.99849 0.0
H39 H 0.95782 0.66728 0.0465 0.0
H40 H 0.96768 0.70469 0.12295 0.0
H41 H 0.04218 0.7837 0.18279 0.0
H42 H 0.00713 0.74292 0.00374 0.0
O43 O 0.04056 0.72991 0.20506 0.0
H44 H 0.04682 0.82196 0.11286 0.0
H45 H 0.01212 0.781 0.93336 0.0
C46 C 0.99253 0.74671 0.21259 0.0
C47 C 0.99891 0.75414 0.28264 0.0
C48 C 0.98676 0.77264 0.31803 0.0
C49 C 0.96777 0.784 0.28421 0.0
C50 C 0.95943 0.77422 0.2173 0.0
C51 C 0.97188 0.75591 0.18152 0.0
C52 C 0.00752 0.70631 0.10487 0.0
C53 C 0.02656 0.69495 0.06951 0.0
C54 C 0.02105 0.67372 0.02623 0.0
C55 C 0.99627 0.66337 0.01698 0.0
C56 C 0.97709 0.67484 0.05246 0.0
C57 C 0.9827 0.69618 0.0963 0.0
C58 C 0.02481 0.76037 0.09802 0.0
C59 C 0.03621 0.7828 0.12772 0.0
C60 C 0.03861 0.80468 0.08809 0.0
C61 C 0.02978 0.80438 0.01788 0.0
C62 C 0.01932 0.78164 0.98715 0.0
C63 C 0.01658 0.75983 0.02726 0.0
P64 P 0.77292 0.05524 0.11734 0.0
H65 H 0.75673 0.05986 0.26584 0.0
H66 H 0.72097 0.04025 0.32989 0.0
H67 H 0.70748 0.9861 0.15655 0.0
H68 H 0.74239 0.00735 0.09024 0.0
H69 H 0.81785 0.08037 0.0572 0.0
H70 H 0.85103 0.0666 0.9819 0.0
H71 H 0.81927 0.98975 0.00196 0.0
H72 H 0.78579 0.00386 0.07781 0.0
H73 H 0.73635 0.09155 0.11921 0.0
H74 H 0.76395 0.03868 0.96879 0.0
O75 O 0.78358 0.08062 0.16518 0.0
H76 H 0.70449 0.10028 0.0339 0.0
H77 H 0.73225 0.04709 0.88407 0.0
C78 C 0.75267 0.03489 0.1735 0.0
C79 C 0.74658 0.04332 0.24225 0.0
C80 C 0.72593 0.03191 0.27925 0.0
C81 C 0.71087 0.01154 0.24867 0.0
C82 C 0.71815 0.00203 0.18161 0.0
C83 C 0.7386 0.01382 0.14405 0.0
C84 C 0.79948 0.04318 0.07417 0.0
C85 C 0.81831 0.06047 0.04707 0.0
C86 C 0.83736 0.05254 0.00384 0.0
C87 C 0.83796 0.02702 0.98594 0.0
C88 C 0.81929 0.00956 0.01435 0.0
C89 C 0.8002 0.01758 0.05818 0.0
C90 C 0.75283 0.06489 0.04979 0.0
C91 C 0.73595 0.08231 0.06719 0.0
C92 C 0.71766 0.08713 0.01868 0.0
C93 C 0.71594 0.07446 0.95214 0.0
C94 C 0.7334 0.05755 0.93424 0.0
C95 C 0.75156 0.05268 0.98285 0.0
P96 P 0.49768 0.76291 0.17522 0.0
H97 H 0.51107 0.75798 0.32467 0.0
H98 H 0.53458 0.72669 0.37646 0.0
H99 H 0.56529 0.71062 0.16841 0.0
H100 H 0.54175 0.74226 0.11677 0.0
H101 H 0.46493 0.7854 0.08146 0.0
H102 H 0.47098 0.81911 0.99638 0.0
H103 H 0.54898 0.83111 0.05109 0.0
H104 H 0.54277 0.79634 0.13484 0.0
H105 H 0.47357 0.71592 0.22815 0.0
H106 H 0.49512 0.74726 0.02351 0.0
O107 O 0.47758 0.77123 0.23764 0.0
H108 H 0.4651 0.6744 0.17124 0.0
H109 H 0.48599 0.70619 0.96659 0.0
C110 C 0.52447 0.75232 0.21671 0.0
C111 C 0.52391 0.7488 0.29068 0.0
C112 C 0.53736 0.73076 0.32035 0.0
C113 C 0.55134 0.7158 0.27617 0.0
C114 C 0.5544 0.72166 0.20354 0.0
C115 C 0.54118 0.73997 0.17412 0.0
C116 C 0.5034 0.78829 0.11393 0.0
C117 C 0.48336 0.79527 0.07509 0.0
C118 C 0.48684 0.81475 0.02683 0.0
C119 C 0.51045 0.82811 0.01717 0.0
C120 C 0.5306 0.82111 0.05666 0.0
C121 C 0.52708 0.80133 0.10481 0.0
C122 C 0.48434 0.73486 0.12997 0.0
C123 C 0.47548 0.71409 0.17068 0.0
C124 C 0.47089 0.69037 0.13834 0.0
C125 C 0.4748 0.68717 0.06458 0.0
C126 C 0.48242 0.70823 0.02339 0.0
C127 C 0.48749 0.73181 0.05595 0.0
P128 P 0.26745 0.47612 0.05799 0.0
H129 H 0.23821 0.43383 0.98925 0.0
H130 H 0.20684 0.43278 0.89786 0.0
H131 H 0.23165 0.50968 0.84756 0.0
H132 H 0.26496 0.50957 0.93454 0.0
H133 H 0.31306 0.45162 0.05277 0.0
H134 H 0.35377 0.46415 0.10361 0.0
H135 H 0.33448 0.54006 0.12987 0.0
H136 H 0.29348 0.52714 0.08135 0.0
H137 H 0.23939 0.46774 0.19209 0.0
H138 H 0.25184 0.5267 0.03835 0.0
O139 O 0.26522 0.44792 0.09507 0.0
H140 H 0.20755 0.49021 0.25106 0.0
H141 H 0.21986 0.54895 0.09664 0.0
C142 C 0.25351 0.47211 0.97074 0.0
C143 C 0.23772 0.45019 0.95667 0.0
C144 C 0.2193 0.44977 0.90499 0.0
C145 C 0.21568 0.47157 0.86767 0.0
C146 C 0.23346 0.4926 0.87585 0.0
C147 C 0.25249 0.49267 0.92624 0.0
C148 C 0.29984 0.4882 0.06492 0.0
C149 C 0.31782 0.47115 0.06741 0.0
C150 C 0.34125 0.4784 0.09656 0.0
C151 C 0.34725 0.50301 0.12301 0.0
C152 C 0.33022 0.52075 0.11229 0.0
C153 C 0.3067 0.5134 0.08369 0.0
C154 C 0.24773 0.49514 0.10956 0.0
C155 C 0.23563 0.48564 0.17142 0.0
C156 C 0.21749 0.49859 0.20544 0.0
C157 C 0.21109 0.52121 0.17788 0.0
C158 C 0.22419 0.53137 0.11834 0.0
C159 C 0.24246 0.51852 0.08479 0.0
P160 P 0.09762 0.27277 0.01012 0.0
H161 H 0.11226 0.26494 0.8601 0.0
H162 H 0.09752 0.23206 0.77432 0.0
H163 H 0.03502 0.21013 0.91458 0.0
H164 H 0.049 0.24383 0.99684 0.0
H165 H 0.12105 0.31824 0.07784 0.0
H166 H 0.10422 0.35287 0.14221 0.0
H167 H 0.02981 0.32328 0.08215 0.0
H168 H 0.04684 0.28875 0.01669 0.0
H169 H 0.11989 0.22623 0.02377 0.0
H170 H 0.0669 0.26655 0.14151 0.0
O171 O 0.12777 0.27931 0.98984 0.0
H172 H 0.10615 0.18845 0.08997 0.0
H173 H 0.05274 0.22892 0.20626 0.0
C174 C 0.08187 0.25678 0.93526 0.0
C175 C 0.09481 0.25374 0.8708 0.0
C176 C 0.08654 0.23455 0.82228 0.0
C177 C 0.06544 0.21775 0.83813 0.0
C178 C 0.05126 0.22255 0.89968 0.0
C179 C 0.05927 0.24202 0.94724 0.0
C180 C 0.08525 0.30101 0.04181 0.0
C181 C 0.10118 0.31959 0.07647 0.0
C182 C 0.09154 0.33943 0.11332 0.0
C183 C 0.06569 0.34077 0.11736 0.0
C184 C 0.04981 0.32266 0.08013 0.0
C185 C 0.05954 0.30299 0.04235 0.0
C186 C 0.09458 0.24929 0.07778 0.0
C187 C 0.10598 0.22724 0.06572 0.0
C188 C 0.09781 0.20554 0.10275 0.0
C189 C 0.07803 0.20556 0.15239 0.0
C190 C 0.06809 0.22826 0.16861 0.0
C191 C 0.07626 0.24993 0.13146 0.0
P192 P 0.25411 0.04261 0.00889 0.0
H193 H 0.25965 0.05942 0.86056 0.0
H194 H 0.28902 0.04877 0.76792 0.0
H195 H 0.30638 0.98578 0.8922 0.0
H196 H 0.27506 0.99508 0.97944 0.0
H197 H 0.21081 0.06927 0.04322 0.0
H198 H 0.17221 0.05676 0.10781 0.0
H199 H 0.18965 0.97999 0.10312 0.0
H200 H 0.22834 0.99264 0.03672 0.0
H201 H 0.30806 0.04901 0.01375 0.0
H202 H 0.24789 0.02234 0.15601 0.0
O203 O 0.25657 0.07362 0.99919 0.0
H204 H 0.33755 0.03044 0.08908 0.0
H205 H 0.27747 0.0039 0.23144 0.0
C206 C 0.2657 0.02852 0.92809 0.0
C207 C 0.26898 0.04265 0.86605 0.0
C208 C 0.28638 0.0368 0.81371 0.0
C209 C 0.30149 0.01718 0.8236 0.0
C210 C 0.29565 0.00121 0.88175 0.0
C211 C 0.27754 0.00654 0.93246 0.0
C212 C 0.22252 0.03189 0.03511 0.0
C213 C 0.20601 0.04959 0.05367 0.0
C214 C 0.18388 0.04242 0.09081 0.0
C215 C 0.17801 0.01744 0.11122 0.0
C216 C 0.1938 0.99942 0.08855 0.0
C217 C 0.21576 0.00656 0.05001 0.0
C218 C 0.27562 0.03615 0.07736 0.0
C219 C 0.30123 0.03961 0.06185 0.0
C220 C 0.31804 0.02886 0.10451 0.0
C221 C 0.30956 0.01517 0.16462 0.0
C222 C 0.28431 0.01405 0.18457 0.0
C223 C 0.26739 0.02449 0.14108 0.0
P224 P 0.4212 0.23365 0.99543 0.0
H225 H 0.40745 0.24448 0.84922 0.0
H226 H 0.42518 0.27827 0.77258 0.0
H227 H 0.49039 0.28866 0.9046 0.0
H228 H 0.47311 0.2543 0.97973 0.0
H229 H 0.39864 0.20146 0.10419 0.0
H230 H 0.41322 0.16806 0.173 0.0
H231 H 0.48106 0.17248 0.0462 0.0
H232 H 0.46638 0.20661 0.97836 0.0
H233 H 0.40032 0.28149 0.00278 0.0
H234 H 0.45208 0.24319 0.12271 0.0
O235 O 0.39121 0.22778 0.97418 0.0
H236 H 0.4158 0.32113 0.06153 0.0
H237 H 0.46724 0.28246 0.18186 0.0
C238 C 0.4389 0.2468 0.92044 0.0
C239 C 0.42619 0.25294 0.85941 0.0
C240 C 0.43624 0.27241 0.81583 0.0
C241 C 0.45893 0.28617 0.83355 0.0
C242 C 0.47283 0.27828 0.89006 0.0
C243 C 0.46304 0.25844 0.93254 0.0
C244 C 0.43123 0.20625 0.03556 0.0
C245 C 0.41645 0.19492 0.09024 0.0
C246 C 0.42485 0.17576 0.12958 0.0
C247 C 0.44831 0.16741 0.11506 0.0
C248 C 0.463 0.1786 0.05926 0.0
C249 C 0.45454 0.19795 0.01992 0.0
C250 C 0.42475 0.2593 0.05896 0.0
C251 C 0.41414 0.28138 0.04415 0.0
C252 C 0.42314 0.30405 0.07727 0.0
C253 C 0.44301 0.30486 0.12522 0.0
C254 C 0.45219 0.28238 0.14415 0.0
C255 C 0.4432 0.2598 0.11109 0.0
Dy256 Dy 0.01429 0.98728 0.60921 0.0
C257 C 0.99727 0.0488 0.37358 0.0
C258 C 0.01959 0.95616 0.7201 0.0
Dy259 Dy 0.99611 0.01649 0.48441 0.0
O260 O 0.0376 0.96623 0.68034 0.0
O261 O 0.99857 0.96345 0.70021 0.0
O262 O 0.0539 0.99466 0.56956 0.0
O263 O 0.02466 0.99145 0.49677 0.0
C264 C 0.04771 0.99723 0.50366 0.0
C265 C 0.96259 0.00687 0.58956 0.0
O266 O 0.9846 0.97797 0.44148 0.0
O267 O 0.99013 0.95761 0.54798 0.0
O268 O 0.98382 0.05028 0.43129 0.0
O269 O 0.009 0.02889 0.37512 0.0
O270 O 0.95648 0.00872 0.52289 0.0
O271 O 0.98572 0.01253 0.59673 0.0
O272 O 0.02091 0.02618 0.65499 0.0
O273 O 0.02244 0.04469 0.54428 0.0
C274 C 0.98214 0.95766 0.4812 0.0
C275 C 0.02643 0.04587 0.61402 0.0
Dy276 Dy 0.49 0.97891 0.49663 0.0
C277 C 0.56659 0.03847 0.64851 0.0
C278 C 0.44964 0.9578 0.42262 0.0
Dy279 Dy 0.5248 0.01602 0.58452 0.0
O280 O 0.47156 0.96413 0.39522 0.0
O281 O 0.45018 0.96211 0.49097 0.0
O282 O 0.52283 0.95968 0.45685 0.0
O283 O 0.52695 0.99843 0.47961 0.0
C284 C 0.5384 0.97985 0.46206 0.0
C285 C 0.47648 0.01613 0.61914 0.0
O286 O 0.51913 0.04014 0.491 0.0
O287 O 0.48303 0.0164 0.45485 0.0
O288 O 0.54447 0.04574 0.65656 0.0
O289 O 0.56578 0.01903 0.60595 0.0
O290 O 0.4927 0.03566 0.62679 0.0
O291 O 0.48745 0.99724 0.60107 0.0
O292 O 0.49592 0.95338 0.58526 0.0
O293 O 0.5274 0.97946 0.64101 0.0
C294 C 0.49877 0.03699 0.45157 0.0
C295 C 0.51328 0.95769 0.63465 0.0
Dy296 Dy 0.50613 0.51792 0.62154 0.0
C297 C 0.52141 0.45895 0.36858 0.0
C298 C 0.49729 0.54045 0.74959 0.0
Dy299 Dy 0.52256 0.48865 0.48814 0.0
O300 O 0.48041 0.52787 0.71051 0.0
O301 O 0.51912 0.54027 0.71927 0.0
O302 O 0.48029 0.53709 0.55222 0.0
O303 O 0.48758 0.50039 0.52768 0.0
C304 C 0.47688 0.51858 0.50664 0.0
C305 C 0.55865 0.50135 0.58347 0.0
O306 O 0.52936 0.52832 0.45244 0.0
O307 O 0.53212 0.54667 0.56585 0.0
O308 O 0.53391 0.45547 0.42576 0.0
O309 O 0.51037 0.47927 0.37587 0.0
O310 O 0.56295 0.49879 0.51522 0.0
O311 O 0.53601 0.49482 0.59668 0.0
O312 O 0.49712 0.47844 0.6592 0.0
O313 O 0.50289 0.45734 0.55098 0.0
C314 C 0.53537 0.54786 0.49563 0.0
C315 C 0.49607 0.45758 0.61927 0.0
Dy316 Dy 0.99203 0.47918 0.6194 0.0
C317 C 0.05075 0.53484 0.41002 0.0
C318 C 0.96099 0.45698 0.72107 0.0
Dy319 Dy 0.01846 0.51329 0.50955 0.0
O320 O 0.96804 0.44612 0.66287 0.0
O321 O 0.97108 0.48002 0.72424 0.0
O322 O 0.01121 0.44696 0.5764 0.0
O323 O 0.0018 0.47458 0.50636 0.0
C324 C 0.01283 0.45503 0.51142 0.0
C325 C 0.99787 0.53722 0.61862 0.0
O326 O 0.98099 0.5097 0.45969 0.0
O327 O 0.96014 0.49253 0.55922 0.0
O328 O 0.04802 0.54326 0.47477 0.0
O329 O 0.03543 0.51486 0.39919 0.0
O330 O 0.9995 0.54561 0.55392 0.0
O331 O 0.00896 0.51772 0.62243 0.0
O332 O 0.02957 0.48419 0.66939 0.0
O333 O 0.05001 0.4975 0.5653 0.0
C334 C 0.96011 0.50228 0.49463 0.0
C335 C 0.05035 0.48952 0.63179 0.0
H336 H 0.17901 0.99107 0.23358 0.0
H337 H 0.13018 0.03025 0.10598 0.0
H338 H 0.14699 0.98538 0.32607 0.0
H339 H 0.09751 0.0237 0.19714 0.0
H340 H 0.05644 0.03494 0.40938 0.0
H341 H 0.08663 0.03803 0.31081 0.0
H342 H 0.10898 0.96553 0.3638 0.0
H343 H 0.07938 0.96327 0.46394 0.0
C344 C 0.16112 0.99787 0.22451 0.0
C345 C 0.15711 0.01106 0.16243 0.0
C346 C 0.14266 0.99461 0.27764 0.0
C347 C 0.1195 0.00416 0.26976 0.0
C348 C 0.11521 0.01654 0.20617 0.0
C349 C 0.13385 0.02012 0.15348 0.0
C350 C 0.0677 0.01964 0.39913 0.0
C351 C 0.0656 0.99882 0.4435 0.0
C352 C 0.08498 0.0213 0.34252 0.0
C353 C 0.10038 0.00199 0.32865 0.0
C354 C 0.09788 0.981 0.37318 0.0
C355 C 0.08084 0.97956 0.43036 0.0
H356 H 0.49566 0.16422 0.16462 0.0
H357 H 0.42132 0.12563 0.16709 0.0
H358 H 0.50954 0.13258 0.24254 0.0
H359 H 0.43468 0.09517 0.24795 0.0
H360 H 0.46829 0.03033 0.33723 0.0
H361 H 0.45824 0.06104 0.25235 0.0
H362 H 0.50647 0.11809 0.36326 0.0
H363 H 0.51742 0.08673 0.4473 0.0
C364 C 0.4823 0.14895 0.18139 0.0
C365 C 0.45733 0.14755 0.15956 0.0
C366 C 0.49019 0.13101 0.22698 0.0
C367 C 0.47327 0.11127 0.25185 0.0
C368 C 0.44839 0.10982 0.22927 0.0
C369 C 0.4406 0.12756 0.18347 0.0
C370 C 0.47681 0.04942 0.34375 0.0
C371 C 0.49346 0.05615 0.39964 0.0
C372 C 0.47093 0.06712 0.29505 0.0
C373 C 0.48121 0.09222 0.3013 0.0
C374 C 0.49832 0.09891 0.35638 0.0
C375 C 0.5045 0.08099 0.40486 0.0
H376 H 0.35035 0.53251 0.24412 0.0
H377 H 0.394 0.48661 0.10999 0.0
H378 H 0.38384 0.53799 0.32977 0.0
H379 H 0.42757 0.49188 0.19703 0.0
H380 H 0.46214 0.47854 0.41916 0.0
H381 H 0.43359 0.47726 0.31876 0.0
H382 H 0.42632 0.55615 0.35178 0.0
H383 H 0.45484 0.55732 0.4523 0.0
C384 C 0.36733 0.5241 0.23175 0.0
C385 C 0.36935 0.5091 0.16975 0.0
C386 C 0.38657 0.52718 0.28131 0.0
C387 C 0.40837 0.51527 0.27057 0.0
C388 C 0.41086 0.501 0.20743 0.0
C389 C 0.39161 0.49801 0.15751 0.0
C390 C 0.45471 0.49567 0.40425 0.0
C391 C 0.46066 0.51803 0.44354 0.0
C392 C 0.43841 0.49497 0.34656 0.0
C393 C 0.42759 0.51659 0.32727 0.0
C394 C 0.43407 0.53909 0.36575 0.0
C395 C 0.45043 0.53979 0.42322 0.0
H396 H 0.02833 0.3321 0.21556 0.0
H397 H 0.08046 0.3911 0.13189 0.0
H398 H 0.01496 0.36102 0.30727 0.0
H399 H 0.06698 0.42015 0.22409 0.0
H400 H 0.0154 0.46724 0.36978 0.0
H401 H 0.02716 0.44084 0.26864 0.0
H402 H 0.03906 0.38201 0.41412 0.0
H403 H 0.02791 0.4084 0.51471 0.0
C404 C 0.03656 0.35139 0.21584 0.0
C405 C 0.05545 0.35934 0.16655 0.0
C406 C 0.02907 0.36787 0.26875 0.0
C407 C 0.04009 0.39274 0.27307 0.0
C408 C 0.05815 0.40108 0.22181 0.0
C409 C 0.06591 0.38446 0.16936 0.0
C410 C 0.02078 0.44877 0.38001 0.0
C411 C 0.02076 0.43987 0.45006 0.0
C412 C 0.02746 0.43369 0.32224 0.0
C413 C 0.03376 0.40931 0.3336 0.0
C414 C 0.03394 0.40059 0.40375 0.0
C415 C 0.02768 0.41576 0.46134 0.0
H416 H 0.83201 0.99249 0.87547 0.0
H417 H 0.88748 0.04428 0.97893 0.0
H418 H 0.86244 0.98354 0.78325 0.0
H419 H 0.91747 0.03628 0.88534 0.0
H420 H 0.97262 0.00691 0.73197 0.0
H421 H 0.9431 0.00739 0.83178 0.0
H422 H 0.88231 0.00457 0.68295 0.0
H423 H 0.91185 0.00323 0.58349 0.0
C424 C 0.85078 0.00171 0.87915 0.0
C425 C 0.85721 0.01926 0.93444 0.0
C426 C 0.86816 0.99683 0.82568 0.0
C427 C 0.89242 0.00935 0.82619 0.0
C428 C 0.8991 0.02609 0.88323 0.0
C429 C 0.88176 0.03092 0.93664 0.0
C430 C 0.95291 0.00606 0.72072 0.0
C431 C 0.94454 0.00517 0.64994 0.0
C432 C 0.93598 0.00651 0.77792 0.0
C433 C 0.91026 0.00623 0.76569 0.0
C434 C 0.9019 0.00451 0.69467 0.0
C435 C 0.91884 0.00392 0.6375 0.0
H436 H 0.4782 0.86296 0.99175 0.0
H437 H 0.54998 0.84084 0.92556 0.0
H438 H 0.48081 0.89393 0.89825 0.0
H439 H 0.55289 0.87282 0.83341 0.0
H440 H 0.55152 0.95376 0.72791 0.0
H441 H 0.55307 0.92302 0.82256 0.0
H442 H 0.48119 0.88751 0.75878 0.0
H443 H 0.47965 0.9177 0.66417 0.0
C444 C 0.49457 0.86468 0.95739 0.0
C445 C 0.51366 0.84898 0.96546 0.0
C446 C 0.49608 0.88254 0.90408 0.0
C447 C 0.51689 0.88551 0.85819 0.0
C448 C 0.53664 0.87086 0.86826 0.0
C449 C 0.53499 0.85265 0.9212 0.0
C450 C 0.53617 0.93924 0.73375 0.0
C451 C 0.51543 0.93823 0.68859 0.0
C452 C 0.53712 0.92166 0.78769 0.0
C453 C 0.51715 0.90309 0.79817 0.0
C454 C 0.49671 0.90181 0.75221 0.0
C455 C 0.49593 0.91904 0.69776 0.0
H456 H 0.6796 0.45405 0.81404 0.0
H457 H 0.64878 0.50289 0.97047 0.0
H458 H 0.65105 0.46641 0.72502 0.0
H459 H 0.62045 0.51581 0.88048 0.0
H460 H 0.55214 0.49982 0.72777 0.0
H461 H 0.58371 0.49569 0.81751 0.0
H462 H 0.64081 0.50127 0.65291 0.0
H463 H 0.60907 0.50507 0.56297 0.0
C464 C 0.6668 0.46758 0.82925 0.0
C465 C 0.66626 0.47729 0.8995 0.0
C466 C 0.65063 0.4749 0.77795 0.0
C467 C 0.63345 0.49211 0.79558 0.0
C468 C 0.63334 0.50237 0.86538 0.0
C469 C 0.64967 0.49513 0.91674 0.0
C470 C 0.57149 0.50057 0.71096 0.0
C471 C 0.57815 0.50251 0.63835 0.0
C472 C 0.5896 0.49833 0.76243 0.0
C473 C 0.61477 0.49792 0.74231 0.0
C474 C 0.62153 0.50112 0.66998 0.0
C475 C 0.6034 0.50344 0.61852 0.0
H476 H 0.95925 0.65523 0.91756 0.0
H477 H 0.02124 0.6217 0.00532 0.0
H478 H 0.95422 0.62172 0.82686 0.0
H479 H 0.01705 0.58904 0.91322 0.0
H480 H 0.99974 0.5256 0.7596 0.0
H481 H 0.99378 0.55305 0.86278 0.0
H482 H 0.97684 0.61148 0.72134 0.0
H483 H 0.98187 0.58369 0.61886 0.0
C484 C 0.97155 0.64051 0.9182 0.0
C485 C 0.99085 0.64131 0.96809 0.0
C486 C 0.96886 0.62145 0.86571 0.0
C487 C 0.9854 0.60279 0.86202 0.0
C488 C 0.00381 0.60291 0.91449 0.0
C489 C 0.00644 0.62186 0.9669 0.0
C490 C 0.99427 0.54415 0.75083 0.0
C491 C 0.99149 0.55261 0.68126 0.0
C492 C 0.99103 0.55997 0.80987 0.0
C493 C 0.9851 0.58464 0.80054 0.0
C494 C 0.98114 0.59257 0.73085 0.0
C495 C 0.98422 0.5767 0.67192 0.0
H496 H 0.06095 0.19641 0.28882 0.0
H497 H 0.06736 0.16091 0.08101 0.0
H498 H 0.03861 0.15793 0.33361 0.0
H499 H 0.04512 0.12245 0.12587 0.0
H500 H 0.03205 0.05128 0.26681 0.0
H501 H 0.05094 0.08908 0.20936 0.0
H502 H 0.9984 0.13244 0.31926 0.0
H503 H 0.97977 0.09462 0.37759 0.0
C504 C 0.05757 0.18041 0.25273 0.0
C505 C 0.06606 0.18169 0.18152 0.0
C506 C 0.04465 0.15842 0.27821 0.0
C507 C 0.0399 0.13722 0.23305 0.0
C508 C 0.04866 0.13839 0.16211 0.0
C509 C 0.06155 0.16039 0.1366 0.0
C510 C 0.02412 0.06877 0.27718 0.0
C511 C 0.0045 0.07008 0.32673 0.0
C512 C 0.03498 0.09044 0.24441 0.0
C513 C 0.02642 0.11381 0.2607 0.0
C514 C 0.00574 0.11478 0.30682 0.0
C515 C 0.99487 0.0931 0.33951 0.0
H516 H 0.33837 0.98119 0.10778 0.0
H517 H 0.31915 0.01636 0.30741 0.0
H518 H 0.36876 0.95877 0.16845 0.0
H519 H 0.35035 0.99493 0.3682 0.0
H520 H 0.402 0.94979 0.47324 0.0
H521 H 0.36446 0.95742 0.40942 0.0
H522 H 0.4084 0.96984 0.21607 0.0
H523 H 0.44539 0.96116 0.27912 0.0
C524 C 0.34078 0.98411 0.16481 0.0
C525 C 0.32682 1.00073 0.20299 0.0
C526 C 0.35815 0.9713 0.19958 0.0
C527 C 0.36224 0.97518 0.27315 0.0
C528 C 0.34749 0.99115 0.31173 0.0
C529 C 0.32979 0.00365 0.277 0.0
C530 C 0.40336 0.95325 0.41646 0.0
C531 C 0.42657 0.95514 0.38112 0.0
C532 C 0.38194 0.95795 0.3801 0.0
C533 C 0.38345 0.96484 0.30799 0.0
C534 C 0.40639 0.96448 0.27141 0.0
C535 C 0.4277 0.95953 0.30758 0.0
H536 H 0.49284 0.31877 0.1261 0.0
H537 H 0.42204 0.34583 0.17859 0.0
H538 H 0.51448 0.35814 0.16955 0.0
H539 H 0.4437 0.38522 0.22332 0.0
H540 H 0.48742 0.45943 0.26262 0.0
H541 H 0.46972 0.42336 0.19156 0.0
H542 H 0.52168 0.37769 0.28541 0.0
H543 H 0.53961 0.41378 0.35485 0.0
C544 C 0.48193 0.33313 0.14749 0.0
C545 C 0.45579 0.32913 0.15026 0.0
C546 C 0.49432 0.3557 0.17207 0.0
C547 C 0.48084 0.37476 0.20021 0.0
C548 C 0.45463 0.37103 0.20104 0.0
C549 C 0.44221 0.34845 0.176 0.0
C550 C 0.49551 0.44183 0.26629 0.0
C551 C 0.5148 0.43928 0.31431 0.0
C552 C 0.48519 0.42114 0.22631 0.0
C553 C 0.49405 0.39759 0.23365 0.0
C554 C 0.51452 0.39558 0.27807 0.0
C555 C 0.5248 0.41625 0.31798 0.0
H556 H 0.17323 0.53765 0.10316 0.0
H557 H 0.19928 0.52993 0.3178 0.0
H558 H 0.1337 0.54965 0.15082 0.0
H559 H 0.15969 0.54162 0.36542 0.0
H560 H 0.08974 0.5696 0.43971 0.0
H561 H 0.12978 0.57455 0.37633 0.0
H562 H 0.10025 0.52192 0.21337 0.0
H563 H 0.06031 0.517 0.27665 0.0
C564 C 0.17075 0.53919 0.16053 0.0
C565 C 0.18919 0.53266 0.20693 0.0
C566 C 0.1481 0.54591 0.18769 0.0
C567 C 0.1436 0.54645 0.26169 0.0
C568 C 0.16272 0.54161 0.30811 0.0
C569 C 0.18527 0.53467 0.28096 0.0
C570 C 0.09161 0.5597 0.3892 0.0
C571 C 0.07214 0.54266 0.36337 0.0
C572 C 0.11453 0.56246 0.35319 0.0
C573 C 0.11819 0.54838 0.29053 0.0
C574 C 0.09793 0.53313 0.26135 0.0
C575 C 0.07509 0.53022 0.29765 0.0
H576 H 0.04615 0.81354 0.88154 0.0
H577 H 0.01338 0.8482 0.06516 0.0
H578 H 0.04466 0.85209 0.81484 0.0
H579 H 0.01183 0.88674 0.9984 0.0
H580 H 0.9841 0.93433 0.81068 0.0
H581 H 0.98778 0.89855 0.88764 0.0
H582 H 0.06472 0.89765 0.82203 0.0
H583 H 0.06113 0.93347 0.74586 0.0
C584 C 0.03874 0.82945 0.90758 0.0
C585 C 0.02998 0.82799 0.97843 0.0
C586 C 0.03802 0.85151 0.8697 0.0
C587 C 0.02817 0.87235 0.90166 0.0
C588 C 0.01943 0.8709 0.97255 0.0
C589 C 0.0205 0.84897 0.01079 0.0
C590 C 0.00186 0.92668 0.81366 0.0
C591 C 0.02231 0.93655 0.77237 0.0
C592 C 0.00398 0.90629 0.85766 0.0
C593 C 0.02649 0.89528 0.86021 0.0
C594 C 0.0471 0.90564 0.82039 0.0
C595 C 0.04508 0.9262 0.77722 0.0
H596 H 0.66697 0.07507 0.98959 0.0
H597 H 0.71675 0.07845 0.80662 0.0
H598 H 0.63133 0.07169 0.91058 0.0
H599 H 0.68098 0.07516 0.72726 0.0
H600 H 0.57041 0.07572 0.75069 0.0
H601 H 0.60739 0.09069 0.81984 0.0
H602 H 0.65015 0.03997 0.69956 0.0
H603 H 0.61347 0.02547 0.63024 0.0
C604 C 0.67032 0.07583 0.93248 0.0
C605 C 0.69466 0.07677 0.90429 0.0
C606 C 0.64986 0.0739 0.88713 0.0
C607 C 0.65333 0.07288 0.81265 0.0
C608 C 0.67772 0.07543 0.78447 0.0
C609 C 0.69818 0.07733 0.82983 0.0
C610 C 0.58785 0.06811 0.73859 0.0
C611 C 0.58913 0.04934 0.68571 0.0
C612 C 0.60895 0.07658 0.77822 0.0
C613 C 0.63168 0.06648 0.76529 0.0
C614 C 0.63306 0.04841 0.71026 0.0
C615 C 0.61199 0.03992 0.67093 0.0
H616 H 0.49698 0.64709 0.10988 0.0
H617 H 0.45053 0.67051 0.94323 0.0
H618 H 0.50014 0.60728 0.04562 0.0
H619 H 0.45363 0.63077 0.87909 0.0
H620 H 0.4518 0.55105 0.79877 0.0
H621 H 0.44315 0.58342 0.88696 0.0
H622 H 0.52193 0.59876 0.92679 0.0
H623 H 0.53058 0.56653 0.8383 0.0
C624 C 0.48695 0.64343 0.0604 0.0
C625 C 0.47352 0.66181 0.03132 0.0
C626 C 0.48891 0.62078 0.02349 0.0
C627 C 0.47717 0.61599 0.95742 0.0
C628 C 0.46267 0.63386 0.93028 0.0
C629 C 0.46101 0.65664 0.96664 0.0
C630 C 0.4672 0.56097 0.82754 0.0
C631 C 0.49187 0.55649 0.81148 0.0
C632 C 0.46225 0.57955 0.87767 0.0
C633 C 0.48187 0.59369 0.91324 0.0
C634 C 0.50643 0.58802 0.90052 0.0
C635 C 0.5114 0.56966 0.84974 0.0
H636 H 0.81586 0.40082 0.8509 0.0
H637 H 0.84874 0.42341 0.05416 0.0
H638 H 0.85681 0.40731 0.79353 0.0
H639 H 0.8898 0.42938 0.99709 0.0
H640 H 0.94301 0.47829 0.84171 0.0
H641 H 0.90707 0.46214 0.91368 0.0
H642 H 0.89948 0.39442 0.7833 0.0
H643 H 0.93533 0.41072 0.71096 0.0
C644 C 0.83194 0.40659 0.88351 0.0
C645 C 0.82909 0.41177 0.95682 0.0
C646 C 0.85542 0.41015 0.85083 0.0
C647 C 0.87648 0.41908 0.89078 0.0
C648 C 0.87385 0.42275 0.96488 0.0
C649 C 0.85038 0.41906 0.99764 0.0
C650 C 0.93392 0.45978 0.82936 0.0
C651 C 0.94174 0.44583 0.77058 0.0
C652 C 0.91344 0.45045 0.87075 0.0
C653 C 0.90038 0.42705 0.85386 0.0
C654 C 0.90902 0.4126 0.79707 0.0
C655 C 0.92957 0.42189 0.75591 0.0
H656 H 0.01969 0.19149 0.81062 0.0
H657 H 0.09867 0.18904 0.77144 0.0
H658 H 0.01164 0.1495 0.75783 0.0
H659 H 0.09013 0.14783 0.71486 0.0
H660 H 0.05358 0.08542 0.55158 0.0
H661 H 0.06343 0.12777 0.6018 0.0
H662 H 0.02637 0.10493 0.79892 0.0
H663 H 0.01701 0.06239 0.74958 0.0
C664 C 0.03534 0.18223 0.7905 0.0
C665 C 0.0599 0.19384 0.79613 0.0
C666 C 0.03065 0.15819 0.76006 0.0
C667 C 0.0503 0.14545 0.73298 0.0
C668 C 0.07466 0.15735 0.73525 0.0
C669 C 0.07946 0.18115 0.76708 0.0
C670 C 0.04783 0.08937 0.60597 0.0
C671 C 0.03462 0.0706 0.64682 0.0
C672 C 0.05345 0.11356 0.63454 0.0
C673 C 0.04544 0.11956 0.70383 0.0
C674 C 0.03255 0.10075 0.74508 0.0
C675 C 0.02742 0.0764 0.71711 0.0
H676 H 0.33023 0.05499 0.7537 0.0
H677 H 0.32701 0.97554 0.79377 0.0
H678 H 0.36994 0.05357 0.69523 0.0
H679 H 0.36845 0.97498 0.7435 0.0
H680 H 0.44033 0.97619 0.61657 0.0
H681 H 0.39673 0.97574 0.65237 0.0
H682 H 0.41058 0.05351 0.72053 0.0
H683 H 0.45319 0.05431 0.67762 0.0
C684 C 0.33767 0.03705 0.74992 0.0
C685 C 0.32491 0.01541 0.77989 0.0
C686 C 0.36112 0.03641 0.71761 0.0
C687 C 0.37319 0.01436 0.71602 0.0
C688 C 0.36007 0.99244 0.74318 0.0
C689 C 0.33621 0.99289 0.77362 0.0
C690 C 0.43377 0.99331 0.63727 0.0
C691 C 0.45006 0.01541 0.64259 0.0
C692 C 0.40878 0.99301 0.65925 0.0
C693 C 0.39962 0.01465 0.68932 0.0
C694 C 0.41631 0.0366 0.69574 0.0
C695 C 0.44102 0.03703 0.67191 0.0
H696 H 0.47048 0.29724 0.69419 0.0
H697 H 0.46148 0.33095 0.9026 0.0
H698 H 0.47964 0.33882 0.64339 0.0
H699 H 0.46869 0.37248 0.85224 0.0
H700 H 0.50409 0.44443 0.75613 0.0
H701 H 0.49664 0.40297 0.80709 0.0
H702 H 0.46326 0.37434 0.60894 0.0
H703 H 0.47248 0.41549 0.55702 0.0
C704 C 0.47045 0.31366 0.72889 0.0
C705 C 0.46568 0.31103 0.80219 0.0
C706 C 0.47536 0.33755 0.69989 0.0
C707 C 0.47488 0.35934 0.74337 0.0
C708 C 0.46989 0.35641 0.81693 0.0
C709 C 0.46562 0.33257 0.84598 0.0
C710 C 0.49495 0.42926 0.72388 0.0
C711 C 0.48882 0.43317 0.65274 0.0
C712 C 0.49058 0.4054 0.75309 0.0
C713 C 0.47936 0.38495 0.71239 0.0
C714 C 0.47252 0.38925 0.64171 0.0
C715 C 0.4775 0.41296 0.61203 0.0
H716 H 0.16909 0.44928 0.90077 0.0
H717 H 0.20802 0.49793 0.74557 0.0
H718 H 0.13026 0.45262 0.84117 0.0
H719 H 0.16845 0.50287 0.68883 0.0
H720 H 0.09561 0.48828 0.56458 0.0
H721 H 0.13565 0.48332 0.61816 0.0
H722 H 0.10053 0.48065 0.82718 0.0
H723 H 0.06043 0.48451 0.77317 0.0
C724 C 0.16954 0.46053 0.85339 0.0
C725 C 0.19203 0.47309 0.82781 0.0
C726 C 0.14698 0.46289 0.81994 0.0
C727 C 0.14597 0.47826 0.76047 0.0
C728 C 0.16843 0.49067 0.73415 0.0
C729 C 0.19117 0.48807 0.76727 0.0
C730 C 0.09644 0.48656 0.622 0.0
C731 C 0.07475 0.48663 0.66455 0.0
C732 C 0.11949 0.48389 0.65285 0.0
C733 C 0.12149 0.48146 0.72716 0.0
C734 C 0.09976 0.48187 0.76965 0.0
C735 C 0.07669 0.48423 0.73871 0.0
H736 H 0.95516 0.82441 0.20965 0.0
H737 H 0.96303 0.7991 0.42504 0.0
H738 H 0.95076 0.86624 0.25531 0.0
H739 H 0.96142 0.84147 0.47 0.0
H740 H 0.95508 0.91885 0.54683 0.0
H741 H 0.94325 0.87695 0.49797 0.0
H742 H 0.97709 0.89952 0.29534 0.0
H743 H 0.98709 0.9417 0.34329 0.0
C744 C 0.95554 0.82753 0.26693 0.0
C745 C 0.95995 0.80819 0.31336 0.0
C746 C 0.95356 0.85185 0.29315 0.0
C747 C 0.95651 0.85773 0.36635 0.0
C748 C 0.95902 0.83799 0.41328 0.0
C749 C 0.96037 0.81354 0.38723 0.0
C750 C 0.95947 0.91486 0.49139 0.0
C751 C 0.97211 0.93343 0.44889 0.0
C752 C 0.95291 0.89075 0.46339 0.0
C753 C 0.95951 0.8844 0.39275 0.0
C754 C 0.97123 0.90349 0.34952 0.0
C755 C 0.97717 0.92777 0.37706 0.0
H756 H 0.69895 0.00924 0.39272 0.0
H757 H 0.66703 0.99264 0.18409 0.0
H758 H 0.65778 1.00005 0.44724 0.0
H759 H 0.62645 0.9818 0.23997 0.0
H760 H 0.56299 0.9438 0.39416 0.0
H761 H 0.60558 0.94835 0.34461 0.0
H762 H 0.61536 0.02498 0.42189 0.0
H763 H 0.57255 0.02096 0.46791 0.0
C764 C 0.68338 0.00346 0.35828 0.0
C765 C 0.68659 0.00208 0.28345 0.0
C766 C 0.65983 0.99798 0.38985 0.0
C767 C 0.63904 0.99028 0.3477 0.0
C768 C 0.64229 0.98752 0.27363 0.0
C769 C 0.6657 0.99357 0.24177 0.0
C770 C 0.57429 0.96156 0.40081 0.0
C771 C 0.56452 0.98195 0.43564 0.0
C772 C 0.59859 0.96414 0.37247 0.0
C773 C 0.61372 0.98693 0.38011 0.0
C774 C 0.60415 0.00712 0.41617 0.0
C775 C 0.57968 0.00477 0.44272 0.0
H776 H 0.57379 0.70634 0.40223 0.0
H777 H 0.54235 0.67014 0.21127 0.0
H778 H 0.57631 0.66535 0.45464 0.0
H779 H 0.54394 0.62951 0.26379 0.0
H780 H 0.55396 0.55668 0.36073 0.0
H781 H 0.56522 0.59713 0.30592 0.0
H782 H 0.5474 0.63458 0.50404 0.0
H783 H 0.53733 0.59425 0.55932 0.0
C784 C 0.56786 0.6896 0.37105 0.0
C785 C 0.55794 0.69147 0.30264 0.0
C786 C 0.56907 0.6661 0.4012 0.0
C787 C 0.56001 0.64398 0.36402 0.0
C788 C 0.55146 0.64595 0.29392 0.0
C789 C 0.55055 0.66936 0.26356 0.0
C790 C 0.5528 0.57358 0.39277 0.0
C791 C 0.54454 0.57224 0.4642 0.0
C792 C 0.55915 0.59682 0.36127 0.0
C793 C 0.55702 0.61929 0.40011 0.0
C794 C 0.54969 0.61782 0.47247 0.0
C795 C 0.54369 0.5946 0.5042 0.0
H796 H 0.84236 0.48597 0.18627 0.0
H797 H 0.80297 0.50117 0.38212 0.0
H798 H 0.88184 0.49383 0.2477 0.0
H799 H 0.84266 0.50944 0.44383 0.0
H800 H 0.91371 0.48516 0.54435 0.0
H801 H 0.87416 0.48492 0.48396 0.0
H802 H 0.91151 0.52339 0.30606 0.0
H803 H 0.95134 0.523 0.36579 0.0
C804 C 0.84215 0.49169 0.24208 0.0
C805 C 0.81948 0.49293 0.2793 0.0
C806 C 0.86486 0.49619 0.27745 0.0
C807 C 0.86551 0.50212 0.35096 0.0
C808 C 0.84285 0.50445 0.3875 0.0
C809 C 0.82011 0.49982 0.35214 0.0
C810 C 0.91354 0.49376 0.49258 0.0
C811 C 0.93581 0.50393 0.45977 0.0
C812 C 0.89075 0.49379 0.45809 0.0
C813 C 0.88956 0.50411 0.38997 0.0
C814 C 0.91175 0.51496 0.35803 0.0
C815 C 0.9346 0.51483 0.39245 0.0
loop_
_geom_bond_atom_site_label_1
_geom_bond_atom_site_label_2
_geom_bond_distance
_geom_bond_site_symmetry_2
_ccdc_geom_bond_type
P0 O11 1.490 . S
P0 C14 1.812 . S
P0 C20 1.803 . S
P0 C26 1.819 1_554 S
H1 C15 0.941 . S
H2 C16 0.939 . S
H3 C18 0.940 . S
H4 C19 0.940 . S
H5 C21 0.939 . S
H6 C22 0.942 . S
H7 C24 0.940 . S
H8 C25 0.939 . S
H9 C27 0.941 . S
H10 C31 0.939 . S
O11 P0 1.490 . S
H12 C28 0.939 . S
H13 C30 0.940 . S
C14 P0 1.812 . S
C14 C15 1.389 . S
C14 C19 1.391 . S
C15 H1 0.941 . S
C15 C14 1.389 . S
C15 C16 1.397 . S
C16 H2 0.939 . S
C16 C15 1.397 . S
C16 C17 1.378 . S
C17 C16 1.378 . S
C17 C18 1.378 . S
C18 H3 0.940 . S
C18 C17 1.378 . S
C18 C19 1.396 . S
C19 H4 0.940 . S
C19 C14 1.391 . S
C19 C18 1.396 . S
C20 P0 1.803 . S
C20 C21 1.378 1_554 S
C20 C25 1.400 . S
C21 H5 0.939 . S
C21 C20 1.378 1_556 S
C21 C22 1.361 . S
C22 H6 0.942 . S
C22 C21 1.361 . S
C22 C23 1.369 . S
C23 C22 1.369 . S
C23 C24 1.404 1_556 S
C24 H7 0.940 . S
C24 C23 1.404 1_554 S
C24 C25 1.389 . S
C25 H8 0.939 . S
C25 C20 1.400 . S
C25 C24 1.389 . S
C26 P0 1.819 1_556 S
C26 C27 1.391 . S
C26 C31 1.391 . S
C27 H9 0.941 . S
C27 C26 1.391 . S
C27 C28 1.396 . S
C28 H12 0.939 . S
C28 C27 1.396 . S
C28 C29 1.397 . S
C29 C28 1.397 . S
C29 C30 1.385 . S
C30 H13 0.940 . S
C30 C29 1.385 . S
C30 C31 1.388 . S
C31 H10 0.939 . S
C31 C26 1.391 . S
C31 C30 1.388 . S
P32 O43 1.490 . S
P32 C46 1.812 . S
P32 C52 1.803 1_554 S
P32 C58 1.819 1_554 S
H33 C47 0.941 . S
H34 C48 0.939 . S
H35 C50 0.940 . S
H36 C51 0.940 . S
H37 C53 0.939 . S
H38 C54 0.942 . S
H39 C56 0.940 1_554 S
H40 C57 0.939 . S
H41 C59 0.941 . S
H42 C63 0.939 . S
O43 P32 1.490 . S
H44 C60 0.939 . S
H45 C62 0.940 . S
C46 P32 1.812 . S
C46 C47 1.389 . S
C46 C51 1.391 . S
C47 H33 0.941 . S
C47 C46 1.389 . S
C47 C48 1.397 . S
C48 H34 0.939 . S
C48 C47 1.397 . S
C48 C49 1.378 . S
C49 C48 1.378 . S
C49 C50 1.378 . S
C50 H35 0.940 . S
C50 C49 1.378 . S
C50 C51 1.396 . S
C51 H36 0.940 . S
C51 C46 1.391 . S
C51 C50 1.396 . S
C52 P32 1.803 1_556 S
C52 C53 1.378 . S
C52 C57 1.400 1_556 S
C53 H37 0.939 . S
C53 C52 1.378 . S
C53 C54 1.361 . S
C54 H38 0.942 . S
C54 C53 1.361 . S
C54 C55 1.369 . S
C55 C54 1.369 . S
C55 C56 1.404 . S
C56 H39 0.940 1_556 S
C56 C55 1.404 . S
C56 C57 1.389 1_556 S
C57 H40 0.939 . S
C57 C52 1.400 1_554 S
C57 C56 1.389 1_554 S
C58 P32 1.819 1_556 S
C58 C59 1.391 . S
C58 C63 1.391 . S
C59 H41 0.941 . S
C59 C58 1.391 . S
C59 C60 1.396 . S
C60 H44 0.939 . S
C60 C59 1.396 . S
C60 C61 1.397 . S
C61 C60 1.397 . S
C61 C62 1.385 . S
C62 H45 0.940 . S
C62 C61 1.385 . S
C62 C63 1.388 . S
C63 H42 0.939 . S
C63 C58 1.391 . S
C63 C62 1.388 . S
P64 O75 1.490 . S
P64 C78 1.812 . S
P64 C84 1.803 . S
P64 C90 1.819 1_554 S
H65 C79 0.941 . S
H66 C80 0.939 . S
H67 C82 0.940 . S
H68 C83 0.950 . S
H69 C85 0.939 . S
H70 C86 0.942 . S
H71 C88 0.940 . S
H72 C89 0.957 . S
H73 C91 0.941 1_554 S
H74 C95 0.926 1_565 S
O75 P64 1.490 . S
H76 C92 0.939 . S
H77 C94 0.940 . S
C78 P64 1.812 . S
C78 C79 1.389 . S
C78 C83 1.376 1_545 S
C79 H65 0.941 . S
C79 C78 1.389 . S
C79 C80 1.397 . S
C80 H66 0.939 . S
C80 C79 1.397 . S
C80 C81 1.378 . S
C81 C80 1.378 . S
C81 C82 1.378 1_545 S
C82 H67 0.940 . S
C82 C81 1.378 1_565 S
C82 C83 1.402 . S
C83 H68 0.950 . S
C83 C78 1.376 1_565 S
C83 C82 1.402 . S
C84 P64 1.803 . S
C84 C85 1.378 1_554 S
C84 C89 1.367 1_545 S
C85 H69 0.939 . S
C85 C84 1.378 1_556 S
C85 C86 1.361 . S
C86 H70 0.942 . S
C86 C85 1.361 . S
C86 C87 1.369 . S
C87 C86 1.369 . S
C87 C88 1.404 1_546 S
C88 H71 0.940 . S
C88 C87 1.404 1_564 S
C88 C89 1.405 . S
C89 H72 0.957 . S
C89 C84 1.367 1_565 S
C89 C88 1.405 . S
C90 P64 1.819 1_556 S
C90 C91 1.391 . S
C90 C95 1.391 . S
C91 H73 0.941 1_556 S
C91 C90 1.391 . S
C91 C92 1.396 . S
C92 H76 0.939 . S
C92 C91 1.396 . S
C92 C93 1.397 . S
C93 C92 1.397 . S
C93 C94 1.385 1_545 S
C94 H77 0.940 . S
C94 C93 1.385 1_565 S
C94 C95 1.388 1_565 S
C95 H74 0.926 1_545 S
C95 C90 1.391 . S
C95 C94 1.388 1_545 S
P96 O107 1.490 . S
P96 C110 1.812 . S
P96 C116 1.803 . S
P96 C122 1.819 . S
H97 C111 0.941 . S
H98 C112 0.939 . S
H99 C114 0.940 . S
H100 C115 0.940 . S
H101 C117 0.939 1_556 S
H102 C118 0.942 . S
H103 C120 0.940 . S
H104 C121 0.939 . S
H105 C123 0.936 1_554 S
H106 C127 0.939 . S
O107 P96 1.490 . S
H108 C124 0.939 . S
H109 C126 0.940 . S
C110 P96 1.812 . S
C110 C111 1.389 . S
C110 C115 1.391 . S
C111 H97 0.941 . S
C111 C110 1.389 . S
C111 C112 1.397 . S
C112 H98 0.939 . S
C112 C111 1.397 . S
C112 C113 1.378 . S
C113 C112 1.378 . S
C113 C114 1.378 . S
C114 H99 0.940 . S
C114 C113 1.378 . S
C114 C115 1.396 . S
C115 H100 0.940 . S
C115 C110 1.391 . S
C115 C114 1.396 . S
C116 P96 1.803 . S
C116 C117 1.378 . S
C116 C121 1.400 . S
C117 H101 0.939 1_554 S
C117 C116 1.378 . S
C117 C118 1.361 1_554 S
C118 H102 0.942 . S
C118 C117 1.361 1_556 S
C118 C119 1.369 1_556 S
C119 C118 1.369 1_554 S
C119 C120 1.404 . S
C120 H103 0.940 . S
C120 C119 1.404 . S
C120 C121 1.389 . S
C121 H104 0.939 . S
C121 C116 1.400 . S
C121 C120 1.389 . S
C122 P96 1.819 . S
C122 C123 1.391 1_554 S
C122 C127 1.391 1_554 S
C123 H105 0.936 1_556 S
C123 C122 1.391 1_556 S
C123 C124 1.402 . S
C124 H108 0.939 . S
C124 C123 1.402 . S
C124 C125 1.397 . S
C125 C124 1.397 . S
C125 C126 1.385 . S
C126 H109 0.940 . S
C126 C125 1.385 . S
C126 C127 1.388 . S
C127 H106 0.939 . S
C127 C122 1.391 1_556 S
C127 C126 1.388 . S
P128 O139 1.490 . S
P128 C142 1.812 . S
P128 C148 1.803 . S
P128 C154 1.819 . S
H129 C143 0.941 . S
H130 C144 0.939 . S
H131 C146 0.940 . S
H132 C147 0.944 . S
H133 C149 0.939 . S
H134 C150 0.942 . S
H135 C152 0.940 . S
H136 C153 0.939 . S
H137 C155 0.941 . S
H138 C159 0.939 . S
O139 P128 1.490 . S
H140 C156 0.939 . S
H141 C158 0.940 . S
C142 P128 1.812 . S
C142 C143 1.389 1_554 S
C142 C147 1.392 . S
C143 H129 0.941 . S
C143 C142 1.389 1_556 S
C143 C144 1.397 . S
C144 H130 0.939 . S
C144 C143 1.397 . S
C144 C145 1.378 . S
C145 C144 1.378 . S
C145 C146 1.378 . S
C146 H131 0.940 . S
C146 C145 1.378 . S
C146 C147 1.392 1_556 S
C147 H132 0.944 . S
C147 C142 1.392 . S
C147 C146 1.392 1_554 S
C148 P128 1.803 . S
C148 C149 1.378 . S
C148 C153 1.400 . S
C149 H133 0.939 . S
C149 C148 1.378 . S
C149 C150 1.361 . S
C150 H134 0.942 . S
C150 C149 1.361 . S
C150 C151 1.369 . S
C151 C150 1.369 . S
C151 C152 1.404 . S
C152 H135 0.940 . S
C152 C151 1.404 . S
C152 C153 1.389 . S
C153 H136 0.939 . S
C153 C148 1.400 . S
C153 C152 1.389 . S
C154 P128 1.819 . S
C154 C155 1.391 . S
C154 C159 1.391 . S
C155 H137 0.941 . S
C155 C154 1.391 . S
C155 C156 1.396 . S
C156 H140 0.939 . S
C156 C155 1.396 . S
C156 C157 1.397 . S
C157 C156 1.397 . S
C157 C158 1.385 . S
C158 H141 0.940 . S
C158 C157 1.385 . S
C158 C159 1.388 . S
C159 H138 0.939 . S
C159 C154 1.391 . S
C159 C158 1.388 . S
P160 O171 1.490 . S
P160 C174 1.812 . S
P160 C180 1.803 . S
P160 C186 1.819 . S
H161 C175 0.941 . S
H162 C176 0.939 . S
H163 C178 0.940 . S
H164 C179 0.940 . S
H165 C181 0.939 . S
H166 C182 0.942 . S
H167 C184 0.940 . S
H168 C185 0.939 . S
H169 C187 0.941 . S
H170 C191 0.939 . S
O171 P160 1.490 . S
H172 C188 0.939 . S
H173 C190 0.940 . S
C174 P160 1.812 . S
C174 C175 1.389 1_554 S
C174 C179 1.391 . S
C175 H161 0.941 . S
C175 C174 1.389 1_556 S
C175 C176 1.397 . S
C176 H162 0.939 . S
C176 C175 1.397 . S
C176 C177 1.378 . S
C177 C176 1.378 . S
C177 C178 1.378 . S
C178 H163 0.940 . S
C178 C177 1.378 . S
C178 C179 1.396 1_556 S
C179 H164 0.940 . S
C179 C174 1.391 . S
C179 C178 1.396 1_554 S
C180 P160 1.803 . S
C180 C181 1.378 . S
C180 C185 1.400 . S
C181 H165 0.939 . S
C181 C180 1.378 . S
C181 C182 1.361 . S
C182 H166 0.942 . S
C182 C181 1.361 . S
C182 C183 1.369 . S
C183 C182 1.369 . S
C183 C184 1.404 . S
C184 H167 0.940 . S
C184 C183 1.404 . S
C184 C185 1.389 . S
C185 H168 0.939 . S
C185 C180 1.400 . S
C185 C184 1.389 . S
C186 P160 1.819 . S
C186 C187 1.391 . S
C186 C191 1.391 . S
C187 H169 0.941 . S
C187 C186 1.391 . S
C187 C188 1.396 . S
C188 H172 0.939 . S
C188 C187 1.396 . S
C188 C189 1.397 . S
C189 C188 1.397 . S
C189 C190 1.385 . S
C190 H173 0.940 . S
C190 C189 1.385 . S
C190 C191 1.388 . S
C191 H170 0.939 . S
C191 C186 1.391 . S
C191 C190 1.388 . S
P192 O203 1.490 . S
P192 C206 1.812 1_554 S
P192 C212 1.803 . S
P192 C218 1.819 . S
H193 C207 0.941 . S
H194 C208 0.939 . S
H195 C210 0.940 . S
H196 C211 0.944 1_554 S
H197 C213 0.939 . S
H198 C214 0.942 . S
H199 C216 0.940 . S
H200 C217 0.954 . S
H201 C219 0.941 . S
H202 C223 0.935 1_565 S
O203 P192 1.490 . S
H204 C220 0.939 . S
H205 C222 0.940 . S
C206 P192 1.812 1_556 S
C206 C207 1.389 . S
C206 C211 1.384 1_545 S
C207 H193 0.941 . S
C207 C206 1.389 . S
C207 C208 1.397 . S
C208 H194 0.939 . S
C208 C207 1.397 . S
C208 C209 1.378 . S
C209 C208 1.378 . S
C209 C210 1.378 1_545 S
C210 H195 0.940 . S
C210 C209 1.378 1_565 S
C210 C211 1.399 . S
C211 H196 0.944 1_556 S
C211 C206 1.384 1_565 S
C211 C210 1.399 . S
C212 P192 1.803 . S
C212 C213 1.378 . S
C212 C217 1.379 1_545 S
C213 H197 0.939 . S
C213 C212 1.378 . S
C213 C214 1.361 . S
C214 H198 0.942 . S
C214 C213 1.361 . S
C214 C215 1.369 . S
C215 C214 1.369 . S
C215 C216 1.404 1_545 S
C216 H199 0.940 . S
C216 C215 1.404 1_565 S
C216 C217 1.396 . S
C217 H200 0.954 . S
C217 C212 1.379 1_565 S
C217 C216 1.396 . S
C218 P192 1.819 . S
C218 C219 1.391 . S
C218 C223 1.391 . S
C219 H201 0.941 . S
C219 C218 1.391 . S
C219 C220 1.396 . S
C220 H204 0.939 . S
C220 C219 1.396 . S
C220 C221 1.397 . S
C221 C220 1.397 . S
C221 C222 1.385 1_545 S
C222 H205 0.940 . S
C222 C221 1.385 1_565 S
C222 C223 1.388 1_565 S
C223 H202 0.935 1_545 S
C223 C218 1.391 . S
C223 C222 1.388 1_545 S
P224 O235 1.490 . S
P224 C238 1.812 1_554 S
P224 C244 1.803 . S
P224 C250 1.819 . S
H225 C239 0.941 . S
H226 C240 0.939 . S
H227 C242 0.940 . S
H228 C243 0.940 1_554 S
H229 C245 0.939 . S
H230 C246 0.942 . S
H231 C248 0.940 . S
H232 C249 0.939 . S
H233 C251 0.941 . S
H234 C255 0.939 . S
O235 P224 1.490 . S
H236 C252 0.939 . S
H237 C254 0.940 . S
C238 P224 1.812 1_556 S
C238 C239 1.389 . S
C238 C243 1.391 . S
C239 H225 0.941 . S
C239 C238 1.389 . S
C239 C240 1.397 . S
C240 H226 0.939 . S
C240 C239 1.397 . S
C240 C241 1.378 . S
C241 C240 1.378 . S
C241 C242 1.378 . S
C242 H227 0.940 . S
C242 C241 1.378 . S
C242 C243 1.396 . S
C243 H228 0.940 1_556 S
C243 C238 1.391 . S
C243 C242 1.396 . S
C244 P224 1.803 . S
C244 C245 1.378 . S
C244 C249 1.400 . S
C245 H229 0.939 . S
C245 C244 1.378 . S
C245 C246 1.361 . S
C246 H230 0.942 . S
C246 C245 1.361 . S
C246 C247 1.369 . S
C247 C246 1.369 . S
C247 C248 1.404 . S
C248 H231 0.940 . S
C248 C247 1.404 . S
C248 C249 1.389 . S
C249 H232 0.939 . S
C249 C244 1.400 . S
C249 C248 1.389 . S
C250 P224 1.819 . S
C250 C251 1.391 . S
C250 C255 1.391 . S
C251 H233 0.941 . S
C251 C250 1.391 . S
C251 C252 1.396 . S
C252 H236 0.939 . S
C252 C251 1.396 . S
C252 C253 1.397 . S
C253 C252 1.397 . S
C253 C254 1.385 . S
C254 H237 0.940 . S
C254 C253 1.385 . S
C254 C255 1.388 . S
C255 H234 0.939 . S
C255 C250 1.391 . S
C255 C254 1.388 . S
Dy256 O260 2.398 . S
Dy256 O261 2.491 1_455 S
Dy256 O262 2.403 . S
Dy256 O263 2.664 1_565 S
Dy256 O267 2.326 . S
Dy256 O271 2.310 1_455 S
Dy256 O272 2.351 1_565 S
C257 O268 1.185 1_455 S
C257 O269 1.355 . S
C258 O260 1.185 . S
C258 O261 1.355 1_455 S
Dy259 O263 2.310 1_655 S
Dy259 O266 2.351 1_545 S
Dy259 O268 2.398 . S
Dy259 O269 2.491 1_655 S
Dy259 O270 2.403 . S
Dy259 O271 2.664 1_545 S
Dy259 O273 2.326 1_655 S
O260 Dy256 2.398 . S
O260 C258 1.185 . S
O261 Dy256 2.491 1_655 S
O261 C258 1.355 1_655 S
O262 Dy256 2.403 . S
O262 C264 1.254 . S
O263 Dy256 2.664 1_545 S
O263 Dy259 2.310 1_455 S
O263 C264 1.268 1_545 S
C264 O262 1.254 . S
C264 O263 1.268 1_565 S
C265 O270 1.254 . S
C265 O271 1.268 1_545 S
O266 Dy259 2.351 1_565 S
O266 C274 1.249 . S
O267 Dy256 2.326 . S
O267 C274 1.267 1_455 S
O268 C257 1.185 1_655 S
O268 Dy259 2.398 . S
O269 C257 1.355 . S
O269 Dy259 2.491 1_455 S
O270 Dy259 2.403 . S
O270 C265 1.254 . S
O271 Dy256 2.310 1_655 S
O271 Dy259 2.664 1_565 S
O271 C265 1.268 1_565 S
O272 Dy256 2.351 1_545 S
O272 C275 1.249 . S
O273 Dy259 2.326 1_455 S
O273 C275 1.267 . S
C274 O266 1.249 . S
C274 O267 1.267 1_655 S
C275 O272 1.249 . S
C275 O273 1.267 . S
Dy276 O280 2.398 . S
Dy276 O281 2.491 . S
Dy276 O282 2.403 . S
Dy276 O283 2.664 . S
Dy276 O287 2.326 1_565 S
Dy276 O291 2.310 1_565 S
Dy276 O292 2.351 . S
C277 O288 1.185 . S
C277 O289 1.355 . S
C278 O280 1.185 . S
C278 O281 1.355 . S
Dy279 O283 2.310 1_545 S
Dy279 O286 2.351 . S
Dy279 O288 2.398 . S
Dy279 O289 2.491 . S
Dy279 O290 2.403 . S
Dy279 O291 2.664 . S
Dy279 O293 2.326 1_545 S
O280 Dy276 2.398 . S
O280 C278 1.185 . S
O281 Dy276 2.491 . S
O281 C278 1.355 . S
O282 Dy276 2.403 . S
O282 C284 1.254 . S
O283 Dy276 2.664 . S
O283 Dy279 2.310 1_565 S
O283 C284 1.268 . S
C284 O282 1.254 . S
C284 O283 1.268 . S
C285 O290 1.254 . S
C285 O291 1.268 . S
O286 Dy279 2.351 . S
O286 C294 1.249 . S
O287 Dy276 2.326 1_545 S
O287 C294 1.267 . S
O288 C277 1.185 . S
O288 Dy279 2.398 . S
O289 C277 1.355 . S
O289 Dy279 2.491 . S
O290 Dy279 2.403 . S
O290 C285 1.254 . S
O291 Dy276 2.310 1_545 S
O291 Dy279 2.664 . S
O291 C285 1.268 . S
O292 Dy276 2.351 . S
O292 C295 1.249 . S
O293 Dy279 2.326 1_565 S
O293 C295 1.267 . S
C294 O286 1.249 . S
C294 O287 1.267 . S
C295 O292 1.249 . S
C295 O293 1.267 . S
Dy296 O300 2.398 . S
Dy296 O301 2.491 . S
Dy296 O302 2.403 . S
Dy296 O303 2.664 . S
Dy296 O307 2.326 . S
Dy296 O311 2.310 . S
Dy296 O312 2.351 . S
C297 O308 1.185 . S
C297 O309 1.355 . S
C298 O300 1.185 . S
C298 O301 1.355 . S
Dy299 O303 2.310 . S
Dy299 O306 2.351 . S
Dy299 O308 2.398 . S
Dy299 O309 2.491 . S
Dy299 O310 2.403 . S
Dy299 O311 2.664 . S
Dy299 O313 2.326 . S
O300 Dy296 2.398 . S
O300 C298 1.185 . S
O301 Dy296 2.491 . S
O301 C298 1.355 . S
O302 Dy296 2.403 . S
O302 C304 1.254 . S
O303 Dy296 2.664 . S
O303 Dy299 2.310 . S
O303 C304 1.268 . S
C304 O302 1.254 . S
C304 O303 1.268 . S
C305 O310 1.254 . S
C305 O311 1.268 . S
O306 Dy299 2.351 . S
O306 C314 1.249 . S
O307 Dy296 2.326 . S
O307 C314 1.267 . S
O308 C297 1.185 . S
O308 Dy299 2.398 . S
O309 C297 1.355 . S
O309 Dy299 2.491 . S
O310 Dy299 2.403 . S
O310 C305 1.254 . S
O311 Dy296 2.310 . S
O311 Dy299 2.664 . S
O311 C305 1.268 . S
O312 Dy296 2.351 . S
O312 C315 1.249 . S
O313 Dy299 2.326 . S
O313 C315 1.267 . S
C314 O306 1.249 . S
C314 O307 1.267 . S
C315 O312 1.249 . S
C315 O313 1.267 . S
Dy316 O320 2.398 . S
Dy316 O321 2.491 . S
Dy316 O322 2.403 1_655 S
Dy316 O323 2.664 1_655 S
Dy316 O327 2.326 . S
Dy316 O331 2.310 . S
Dy316 O332 2.351 1_655 S
C317 O328 1.185 . S
C317 O329 1.355 . S
C318 O320 1.185 . S
C318 O321 1.355 . S
Dy319 O323 2.310 . S
Dy319 O326 2.351 1_455 S
Dy319 O328 2.398 . S
Dy319 O329 2.491 . S
Dy319 O330 2.403 . S
Dy319 O331 2.664 1_455 S
Dy319 O333 2.326 . S
O320 Dy316 2.398 . S
O320 C318 1.185 . S
O321 Dy316 2.491 . S
O321 C318 1.355 . S
O322 Dy316 2.403 1_455 S
O322 C324 1.254 . S
O323 Dy316 2.664 1_455 S
O323 Dy319 2.310 . S
O323 C324 1.268 . S
C324 O322 1.254 . S
C324 O323 1.268 . S
C325 O330 1.254 1_655 S
C325 O331 1.268 . S
O326 Dy319 2.351 1_655 S
O326 C334 1.249 . S
O327 Dy316 2.326 . S
O327 C334 1.267 . S
O328 C317 1.185 . S
O328 Dy319 2.398 . S
O329 C317 1.355 . S
O329 Dy319 2.491 . S
O330 Dy319 2.403 . S
O330 C325 1.254 1_455 S
O331 Dy316 2.310 . S
O331 Dy319 2.664 1_655 S
O331 C325 1.268 . S
O332 Dy316 2.351 1_455 S
O332 C335 1.249 . S
O333 Dy319 2.326 . S
O333 C335 1.267 . S
C334 O326 1.249 . S
C334 O327 1.267 . S
C335 O332 1.249 . S
C335 O333 1.267 . S
H336 C344 0.950 . S
H337 C349 0.950 . S
H338 C346 0.950 . S
H339 C348 0.950 . S
H340 C350 0.950 . S
H341 C352 0.950 . S
H342 C354 0.950 . S
H343 C355 0.950 . S
C344 H336 0.950 . S
C344 C345 1.383 . S
C344 C346 1.391 . S
C345 C344 1.383 . S
C345 C349 1.395 1_565 S
C346 H338 0.950 . S
C346 C344 1.391 . S
C346 C347 1.400 . S
C347 C346 1.400 . S
C347 C348 1.398 1_565 S
C347 C353 1.491 . S
C348 H339 0.950 . S
C348 C347 1.398 1_545 S
C348 C349 1.391 . S
C349 H337 0.950 . S
C349 C345 1.395 1_545 S
C349 C348 1.391 . S
C350 H340 0.950 . S
C350 C351 1.386 1_545 S
C350 C352 1.391 . S
C351 C350 1.386 1_565 S
C351 C355 1.393 . S
C352 H341 0.950 . S
C352 C350 1.391 . S
C352 C353 1.400 1_545 S
C353 C347 1.491 . S
C353 C352 1.400 1_565 S
C353 C354 1.398 . S
C354 H342 0.950 . S
C354 C353 1.398 . S
C354 C355 1.391 . S
C355 H343 0.950 . S
C355 C351 1.393 . S
C355 C354 1.391 . S
H356 C364 0.950 . S
H357 C369 0.950 . S
H358 C366 0.950 . S
H359 C368 0.950 . S
H360 C370 0.950 . S
H361 C372 0.950 . S
H362 C374 0.950 . S
H363 C375 0.950 . S
C364 H356 0.950 . S
C364 C365 1.386 . S
C364 C366 1.391 . S
C365 C364 1.386 . S
C365 C369 1.393 . S
C366 H358 0.950 . S
C366 C364 1.391 . S
C366 C367 1.400 . S
C367 C366 1.400 . S
C367 C368 1.398 . S
C367 C373 1.491 . S
C368 H359 0.950 . S
C368 C367 1.398 . S
C368 C369 1.391 . S
C369 H357 0.950 . S
C369 C365 1.393 . S
C369 C368 1.391 . S
C370 H360 0.950 . S
C370 C371 1.386 . S
C370 C372 1.391 . S
C371 C370 1.386 . S
C371 C375 1.393 . S
C372 H361 0.950 . S
C372 C370 1.391 . S
C372 C373 1.400 . S
C373 C367 1.491 . S
C373 C372 1.400 . S
C373 C374 1.398 . S
C374 H362 0.950 . S
C374 C373 1.398 . S
C374 C375 1.391 . S
C375 H363 0.950 . S
C375 C371 1.393 . S
C375 C374 1.391 . S
H376 C384 0.950 . S
H377 C389 0.950 . S
H378 C386 0.950 . S
H379 C388 0.950 . S
H380 C390 0.950 . S
H381 C392 0.950 . S
H382 C394 0.950 . S
H383 C395 0.950 . S
C384 H376 0.950 . S
C384 C385 1.386 . S
C384 C386 1.391 . S
C385 C384 1.386 . S
C385 C389 1.393 . S
C386 H378 0.950 . S
C386 C384 1.391 . S
C386 C387 1.400 . S
C387 C386 1.400 . S
C387 C388 1.398 . S
C387 C393 1.491 . S
C388 H379 0.950 . S
C388 C387 1.398 . S
C388 C389 1.391 . S
C389 H377 0.950 . S
C389 C385 1.393 . S
C389 C388 1.391 . S
C390 H380 0.950 . S
C390 C391 1.386 . S
C390 C392 1.391 . S
C391 C390 1.386 . S
C391 C395 1.393 . S
C392 H381 0.950 . S
C392 C390 1.391 . S
C392 C393 1.400 . S
C393 C387 1.491 . S
C393 C392 1.400 . S
C393 C394 1.398 . S
C394 H382 0.950 . S
C394 C393 1.398 . S
C394 C395 1.391 . S
C395 H383 0.950 . S
C395 C391 1.393 . S
C395 C394 1.391 . S
H396 C404 0.950 . S
H397 C409 0.950 . S
H398 C406 0.950 . S
H399 C408 0.950 . S
H400 C410 0.950 . S
H401 C412 0.950 . S
H402 C414 0.950 . S
H403 C415 0.950 . S
C404 H396 0.950 . S
C404 C405 1.386 . S
C404 C406 1.391 . S
C405 C404 1.386 . S
C405 C409 1.393 . S
C406 H398 0.950 . S
C406 C404 1.391 . S
C406 C407 1.400 . S
C407 C406 1.400 . S
C407 C408 1.398 . S
C407 C413 1.491 . S
C408 H399 0.950 . S
C408 C407 1.398 . S
C408 C409 1.391 . S
C409 H397 0.950 . S
C409 C405 1.393 . S
C409 C408 1.391 . S
C410 H400 0.950 . S
C410 C411 1.386 . S
C410 C412 1.391 . S
C411 C410 1.386 . S
C411 C415 1.393 . S
C412 H401 0.950 . S
C412 C410 1.391 . S
C412 C413 1.400 . S
C413 C407 1.491 . S
C413 C412 1.400 . S
C413 C414 1.398 . S
C414 H402 0.950 . S
C414 C413 1.398 . S
C414 C415 1.391 . S
C415 H403 0.950 . S
C415 C411 1.393 . S
C415 C414 1.391 . S
H416 C424 0.950 . S
H417 C429 0.950 . S
H418 C426 0.950 . S
H419 C428 0.952 . S
H420 C430 0.957 . S
H421 C432 0.950 . S
H422 C434 0.950 . S
H423 C435 0.950 . S
C424 H416 0.950 . S
C424 C425 1.386 . S
C424 C426 1.391 . S
C425 C424 1.386 . S
C425 C429 1.393 1_545 S
C426 H418 0.950 . S
C426 C424 1.391 . S
C426 C427 1.400 . S
C427 C426 1.400 . S
C427 C428 1.397 1_545 S
C427 C433 1.491 . S
C428 H419 0.952 . S
C428 C427 1.397 1_565 S
C428 C429 1.390 . S
C429 H417 0.950 . S
C429 C425 1.393 1_565 S
C429 C428 1.390 . S
C430 H420 0.957 . S
C430 C431 1.380 1_565 S
C430 C432 1.390 . S
C431 C430 1.380 1_545 S
C431 C435 1.393 . S
C432 H421 0.950 . S
C432 C430 1.390 . S
C432 C433 1.400 1_565 S
C433 C427 1.491 . S
C433 C432 1.400 1_545 S
C433 C434 1.398 . S
C434 H422 0.950 . S
C434 C433 1.398 . S
C434 C435 1.391 . S
C435 H423 0.950 . S
C435 C431 1.393 . S
C435 C434 1.391 . S
H436 C444 0.950 . S
H437 C449 0.950 . S
H438 C446 0.950 . S
H439 C448 0.950 . S
H440 C450 0.950 . S
H441 C452 0.950 . S
H442 C454 0.950 . S
H443 C455 0.950 . S
C444 H436 0.950 . S
C444 C445 1.386 . S
C444 C446 1.391 . S
C445 C444 1.386 . S
C445 C449 1.393 . S
C446 H438 0.950 . S
C446 C444 1.391 . S
C446 C447 1.400 . S
C447 C446 1.400 . S
C447 C448 1.398 . S
C447 C453 1.491 . S
C448 H439 0.950 . S
C448 C447 1.398 . S
C448 C449 1.391 . S
C449 H437 0.950 . S
C449 C445 1.393 . S
C449 C448 1.391 . S
C450 H440 0.950 . S
C450 C451 1.386 . S
C450 C452 1.391 . S
C451 C450 1.386 . S
C451 C455 1.393 . S
C452 H441 0.950 . S
C452 C450 1.391 . S
C452 C453 1.400 . S
C453 C447 1.491 . S
C453 C452 1.400 . S
C453 C454 1.398 . S
C454 H442 0.950 . S
C454 C453 1.398 . S
C454 C455 1.391 . S
C455 H443 0.950 . S
C455 C451 1.393 . S
C455 C454 1.391 . S
H456 C464 0.950 . S
H457 C469 0.950 . S
H458 C466 0.950 . S
H459 C468 0.950 . S
H460 C470 0.950 . S
H461 C472 0.950 . S
H462 C474 0.950 . S
H463 C475 0.950 . S
C464 H456 0.950 . S
C464 C465 1.386 . S
C464 C466 1.391 . S
C465 C464 1.386 . S
C465 C469 1.393 . S
C466 H458 0.950 . S
C466 C464 1.391 . S
C466 C467 1.400 . S
C467 C466 1.400 . S
C467 C468 1.398 . S
C467 C473 1.491 . S
C468 H459 0.950 . S
C468 C467 1.398 . S
C468 C469 1.391 . S
C469 H457 0.950 . S
C469 C465 1.393 . S
C469 C468 1.391 . S
C470 H460 0.950 . S
C470 C471 1.386 . S
C470 C472 1.391 . S
C471 C470 1.386 . S
C471 C475 1.393 . S
C472 H461 0.950 . S
C472 C470 1.391 . S
C472 C473 1.400 . S
C473 C467 1.491 . S
C473 C472 1.400 . S
C473 C474 1.398 . S
C474 H462 0.950 . S
C474 C473 1.398 . S
C474 C475 1.391 . S
C475 H463 0.950 . S
C475 C471 1.393 . S
C475 C474 1.391 . S
H476 C484 0.950 . S
H477 C489 0.950 . S
H478 C486 0.950 . S
H479 C488 0.950 . S
H480 C490 0.950 . S
H481 C492 0.950 . S
H482 C494 0.950 . S
H483 C495 0.928 1_455 S
C484 H476 0.950 . S
C484 C485 1.386 . S
C484 C486 1.391 . S
C485 C484 1.386 . S
C485 C489 1.393 . S
C486 H478 0.950 . S
C486 C484 1.391 . S
C486 C487 1.400 . S
C487 C486 1.400 . S
C487 C488 1.398 . S
C487 C493 1.491 . S
C488 H479 0.950 . S
C488 C487 1.398 . S
C488 C489 1.391 . S
C489 H477 0.950 . S
C489 C485 1.393 . S
C489 C488 1.391 . S
C490 H480 0.950 . S
C490 C491 1.386 . S
C490 C492 1.391 . S
C491 C490 1.386 . S
C491 C495 1.393 . S
C492 H481 0.950 . S
C492 C490 1.391 . S
C492 C493 1.400 . S
C493 C487 1.491 . S
C493 C492 1.400 . S
C493 C494 1.398 . S
C494 H482 0.950 . S
C494 C493 1.398 . S
C494 C495 1.391 . S
C495 H483 0.928 1_655 S
C495 C491 1.393 . S
C495 C494 1.391 . S
H496 C504 0.950 . S
H497 C509 0.950 . S
H498 C506 0.950 . S
H499 C508 0.950 . S
H500 C510 0.950 . S
H501 C512 0.950 . S
H502 C514 0.950 . S
H503 C515 0.961 . S
C504 H496 0.950 . S
C504 C505 1.386 . S
C504 C506 1.391 . S
C505 C504 1.386 . S
C505 C509 1.393 . S
C506 H498 0.950 . S
C506 C504 1.391 . S
C506 C507 1.400 . S
C507 C506 1.400 . S
C507 C508 1.398 . S
C507 C513 1.491 . S
C508 H499 0.950 . S
C508 C507 1.398 . S
C508 C509 1.391 . S
C509 H497 0.950 . S
C509 C505 1.393 . S
C509 C508 1.391 . S
C510 H500 0.950 . S
C510 C511 1.386 . S
C510 C512 1.391 . S
C511 C510 1.386 . S
C511 C515 1.393 . S
C512 H501 0.950 . S
C512 C510 1.391 . S
C512 C513 1.400 . S
C513 C507 1.491 . S
C513 C512 1.400 . S
C513 C514 1.398 . S
C514 H502 0.950 . S
C514 C513 1.398 . S
C514 C515 1.391 . S
C515 H503 0.961 . S
C515 C511 1.393 . S
C515 C514 1.391 . S
H516 C524 0.950 . S
H517 C529 0.950 . S
H518 C526 0.950 . S
H519 C528 0.950 . S
H520 C530 0.950 . S
H521 C532 0.950 . S
H522 C534 0.952 1_545 S
H523 C535 0.950 1_545 S
C524 H516 0.950 . S
C524 C525 1.386 . S
C524 C526 1.391 . S
C525 C524 1.386 . S
C525 C529 1.393 1_545 S
C526 H518 0.950 . S
C526 C524 1.391 . S
C526 C527 1.400 1_545 S
C527 C526 1.400 1_565 S
C527 C528 1.398 . S
C527 C533 1.491 . S
C528 H519 0.950 . S
C528 C527 1.398 . S
C528 C529 1.391 . S
C529 H517 0.950 . S
C529 C525 1.393 1_565 S
C529 C528 1.391 . S
C530 H520 0.950 . S
C530 C531 1.386 . S
C530 C532 1.391 . S
C531 C530 1.386 . S
C531 C535 1.393 . S
C532 H521 0.950 . S
C532 C530 1.391 . S
C532 C533 1.400 . S
C533 C527 1.491 . S
C533 C532 1.400 . S
C533 C534 1.397 . S
C534 H522 0.952 1_565 S
C534 C533 1.397 . S
C534 C535 1.390 . S
C535 H523 0.950 1_565 S
C535 C531 1.393 . S
C535 C534 1.390 . S
H536 C544 0.950 . S
H537 C549 0.950 . S
H538 C546 0.950 . S
H539 C548 0.950 . S
H540 C550 0.950 . S
H541 C552 0.950 . S
H542 C554 0.950 . S
H543 C555 0.950 . S
C544 H536 0.950 . S
C544 C545 1.386 . S
C544 C546 1.391 . S
C545 C544 1.386 . S
C545 C549 1.393 . S
C546 H538 0.950 . S
C546 C544 1.391 . S
C546 C547 1.400 . S
C547 C546 1.400 . S
C547 C548 1.398 . S
C547 C553 1.491 . S
C548 H539 0.950 . S
C548 C547 1.398 . S
C548 C549 1.391 . S
C549 H537 0.950 . S
C549 C545 1.393 . S
C549 C548 1.391 . S
C550 H540 0.950 . S
C550 C551 1.386 . S
C550 C552 1.391 . S
C551 C550 1.386 . S
C551 C555 1.393 . S
C552 H541 0.950 . S
C552 C550 1.391 . S
C552 C553 1.400 . S
C553 C547 1.491 . S
C553 C552 1.400 . S
C553 C554 1.398 . S
C554 H542 0.950 . S
C554 C553 1.398 . S
C554 C555 1.391 . S
C555 H543 0.950 . S
C555 C551 1.393 . S
C555 C554 1.391 . S
H556 C564 0.950 . S
H557 C569 0.950 . S
H558 C566 0.950 . S
H559 C568 0.950 . S
H560 C570 0.950 . S
H561 C572 0.950 . S
H562 C574 0.950 . S
H563 C575 0.950 . S
C564 H556 0.950 . S
C564 C565 1.386 . S
C564 C566 1.391 . S
C565 C564 1.386 . S
C565 C569 1.393 . S
C566 H558 0.950 . S
C566 C564 1.391 . S
C566 C567 1.400 . S
C567 C566 1.400 . S
C567 C568 1.398 . S
C567 C573 1.491 . S
C568 H559 0.950 . S
C568 C567 1.398 . S
C568 C569 1.391 . S
C569 H557 0.950 . S
C569 C565 1.393 . S
C569 C568 1.391 . S
C570 H560 0.950 . S
C570 C571 1.386 . S
C570 C572 1.391 . S
C571 C570 1.386 . S
C571 C575 1.393 . S
C572 H561 0.950 . S
C572 C570 1.391 . S
C572 C573 1.400 . S
C573 C567 1.491 . S
C573 C572 1.400 . S
C573 C574 1.398 . S
C574 H562 0.950 . S
C574 C573 1.398 . S
C574 C575 1.391 . S
C575 H563 0.950 . S
C575 C571 1.393 . S
C575 C574 1.391 . S
H576 C584 0.950 . S
H577 C589 0.950 . S
H578 C586 0.950 . S
H579 C588 0.950 . S
H580 C590 0.950 . S
H581 C592 0.950 . S
H582 C594 0.950 1_455 S
H583 C595 0.950 . S
C584 H576 0.950 . S
C584 C585 1.386 . S
C584 C586 1.391 . S
C585 C584 1.386 . S
C585 C589 1.393 . S
C586 H578 0.950 . S
C586 C584 1.391 . S
C586 C587 1.400 . S
C587 C586 1.400 . S
C587 C588 1.398 . S
C587 C593 1.491 . S
C588 H579 0.950 . S
C588 C587 1.398 . S
C588 C589 1.391 . S
C589 H577 0.950 . S
C589 C585 1.393 . S
C589 C588 1.391 . S
C590 H580 0.950 . S
C590 C591 1.360 1_655 S
C590 C592 1.391 . S
C591 C590 1.360 1_455 S
C591 C595 1.407 . S
C592 H581 0.950 . S
C592 C590 1.391 . S
C592 C593 1.400 . S
C593 C587 1.491 . S
C593 C592 1.400 . S
C593 C594 1.398 . S
C594 H582 0.950 1_655 S
C594 C593 1.398 . S
C594 C595 1.391 1_655 S
C595 H583 0.950 . S
C595 C591 1.407 . S
C595 C594 1.391 1_455 S
H596 C604 0.950 . S
H597 C609 0.950 . S
H598 C606 0.950 . S
H599 C608 0.950 . S
H600 C610 0.950 . S
H601 C612 0.950 . S
H602 C614 0.950 . S
H603 C615 0.950 . S
C604 H596 0.950 . S
C604 C605 1.386 . S
C604 C606 1.391 . S
C605 C604 1.386 . S
C605 C609 1.393 1_565 S
C606 H598 0.950 . S
C606 C604 1.391 . S
C606 C607 1.400 1_565 S
C607 C606 1.400 1_545 S
C607 C608 1.398 . S
C607 C613 1.491 . S
C608 H599 0.950 . S
C608 C607 1.398 . S
C608 C609 1.391 . S
C609 H597 0.950 . S
C609 C605 1.393 1_545 S
C609 C608 1.391 . S
C610 H600 0.950 . S
C610 C611 1.386 . S
C610 C612 1.391 . S
C611 C610 1.386 . S
C611 C615 1.393 1_545 S
C612 H601 0.950 . S
C612 C610 1.391 . S
C612 C613 1.400 . S
C613 C607 1.491 . S
C613 C612 1.400 . S
C613 C614 1.398 1_545 S
C614 H602 0.950 . S
C614 C613 1.398 1_565 S
C614 C615 1.391 . S
C615 H603 0.950 . S
C615 C611 1.393 1_565 S
C615 C614 1.391 . S
H616 C624 0.950 . S
H617 C629 0.950 . S
H618 C626 0.950 . S
H619 C628 0.950 . S
H620 C630 0.950 . S
H621 C632 0.950 . S
H622 C634 0.950 . S
H623 C635 0.950 . S
C624 H616 0.950 . S
C624 C625 1.386 . S
C624 C626 1.391 . S
C625 C624 1.386 . S
C625 C629 1.393 . S
C626 H618 0.950 . S
C626 C624 1.391 . S
C626 C627 1.400 . S
C627 C626 1.400 . S
C627 C628 1.398 . S
C627 C633 1.491 . S
C628 H619 0.950 . S
C628 C627 1.398 . S
C628 C629 1.391 . S
C629 H617 0.950 . S
C629 C625 1.393 . S
C629 C628 1.391 . S
C630 H620 0.950 . S
C630 C631 1.386 . S
C630 C632 1.391 . S
C631 C630 1.386 . S
C631 C635 1.393 . S
C632 H621 0.950 . S
C632 C630 1.391 . S
C632 C633 1.400 . S
C633 C627 1.491 . S
C633 C632 1.400 . S
C633 C634 1.398 . S
C634 H622 0.950 . S
C634 C633 1.398 . S
C634 C635 1.391 . S
C635 H623 0.950 . S
C635 C631 1.393 . S
C635 C634 1.391 . S
H636 C644 0.950 . S
H637 C649 0.950 . S
H638 C646 0.950 . S
H639 C648 0.950 . S
H640 C650 0.950 . S
H641 C652 0.950 . S
H642 C654 0.950 . S
H643 C655 0.950 . S
C644 H636 0.950 . S
C644 C645 1.386 . S
C644 C646 1.391 . S
C645 C644 1.386 . S
C645 C649 1.393 . S
C646 H638 0.950 . S
C646 C644 1.391 . S
C646 C647 1.400 . S
C647 C646 1.400 . S
C647 C648 1.398 . S
C647 C653 1.491 . S
C648 H639 0.950 . S
C648 C647 1.398 . S
C648 C649 1.391 . S
C649 H637 0.950 . S
C649 C645 1.393 . S
C649 C648 1.391 . S
C650 H640 0.950 . S
C650 C651 1.386 . S
C650 C652 1.391 . S
C651 C650 1.386 . S
C651 C655 1.393 . S
C652 H641 0.950 . S
C652 C650 1.391 . S
C652 C653 1.400 . S
C653 C647 1.491 . S
C653 C652 1.400 . S
C653 C654 1.398 . S
C654 H642 0.950 . S
C654 C653 1.398 . S
C654 C655 1.391 . S
C655 H643 0.950 . S
C655 C651 1.393 . S
C655 C654 1.391 . S
H656 C664 0.950 . S
H657 C669 0.950 . S
H658 C666 0.950 . S
H659 C668 0.950 . S
H660 C670 0.950 . S
H661 C672 0.950 . S
H662 C674 0.950 . S
H663 C675 0.950 . S
C664 H656 0.950 . S
C664 C665 1.386 . S
C664 C666 1.391 . S
C665 C664 1.386 . S
C665 C669 1.393 . S
C666 H658 0.950 . S
C666 C664 1.391 . S
C666 C667 1.400 . S
C667 C666 1.400 . S
C667 C668 1.398 . S
C667 C673 1.491 . S
C668 H659 0.950 . S
C668 C667 1.398 . S
C668 C669 1.391 . S
C669 H657 0.950 . S
C669 C665 1.393 . S
C669 C668 1.391 . S
C670 H660 0.950 . S
C670 C671 1.386 . S
C670 C672 1.391 . S
C671 C670 1.386 . S
C671 C675 1.393 . S
C672 H661 0.950 . S
C672 C670 1.391 . S
C672 C673 1.400 . S
C673 C667 1.491 . S
C673 C672 1.400 . S
C673 C674 1.398 . S
C674 H662 0.950 . S
C674 C673 1.398 . S
C674 C675 1.391 . S
C675 H663 0.950 . S
C675 C671 1.393 . S
C675 C674 1.391 . S
H676 C684 0.950 . S
H677 C689 0.950 . S
H678 C686 0.950 . S
H679 C688 0.950 . S
H680 C690 0.950 . S
H681 C692 0.950 . S
H682 C694 0.950 . S
H683 C695 0.950 . S
C684 H676 0.950 . S
C684 C685 1.388 . S
C684 C686 1.391 . S
C685 C684 1.388 . S
C685 C689 1.390 1_545 S
C686 H678 0.950 . S
C686 C684 1.391 . S
C686 C687 1.400 . S
C687 C686 1.400 . S
C687 C688 1.398 1_545 S
C687 C693 1.491 . S
C688 H679 0.950 . S
C688 C687 1.398 1_565 S
C688 C689 1.391 . S
C689 H677 0.950 . S
C689 C685 1.390 1_565 S
C689 C688 1.391 . S
C690 H680 0.950 . S
C690 C691 1.386 1_565 S
C690 C692 1.391 . S
C691 C690 1.386 1_545 S
C691 C695 1.393 . S
C692 H681 0.950 . S
C692 C690 1.391 . S
C692 C693 1.400 1_565 S
C693 C687 1.491 . S
C693 C692 1.400 1_545 S
C693 C694 1.398 . S
C694 H682 0.950 . S
C694 C693 1.398 . S
C694 C695 1.391 . S
C695 H683 0.950 . S
C695 C691 1.393 . S
C695 C694 1.391 . S
H696 C704 0.950 . S
H697 C709 0.950 . S
H698 C706 0.950 . S
H699 C708 0.950 . S
H700 C710 0.950 . S
H701 C712 0.950 . S
H702 C714 0.950 . S
H703 C715 0.950 . S
C704 H696 0.950 . S
C704 C705 1.386 . S
C704 C706 1.391 . S
C705 C704 1.386 . S
C705 C709 1.393 . S
C706 H698 0.950 . S
C706 C704 1.391 . S
C706 C707 1.400 . S
C707 C706 1.400 . S
C707 C708 1.398 . S
C707 C713 1.491 . S
C708 H699 0.950 . S
C708 C707 1.398 . S
C708 C709 1.391 . S
C709 H697 0.950 . S
C709 C705 1.393 . S
C709 C708 1.391 . S
C710 H700 0.950 . S
C710 C711 1.386 . S
C710 C712 1.391 . S
C711 C710 1.386 . S
C711 C715 1.393 . S
C712 H701 0.950 . S
C712 C710 1.391 . S
C712 C713 1.400 . S
C713 C707 1.491 . S
C713 C712 1.400 . S
C713 C714 1.398 . S
C714 H702 0.950 . S
C714 C713 1.398 . S
C714 C715 1.391 . S
C715 H703 0.950 . S
C715 C711 1.393 . S
C715 C714 1.391 . S
H716 C724 0.950 . S
H717 C729 0.950 . S
H718 C726 0.950 . S
H719 C728 0.950 . S
H720 C730 0.950 . S
H721 C732 0.950 . S
H722 C734 0.950 . S
H723 C735 0.950 . S
C724 H716 0.950 . S
C724 C725 1.386 . S
C724 C726 1.391 . S
C725 C724 1.386 . S
C725 C729 1.393 . S
C726 H718 0.950 . S
C726 C724 1.391 . S
C726 C727 1.400 . S
C727 C726 1.400 . S
C727 C728 1.398 . S
C727 C733 1.491 . S
C728 H719 0.950 . S
C728 C727 1.398 . S
C728 C729 1.391 . S
C729 H717 0.950 . S
C729 C725 1.393 . S
C729 C728 1.391 . S
C730 H720 0.950 . S
C730 C731 1.386 . S
C730 C732 1.391 . S
C731 C730 1.386 . S
C731 C735 1.393 . S
C732 H721 0.950 . S
C732 C730 1.391 . S
C732 C733 1.400 . S
C733 C727 1.491 . S
C733 C732 1.400 . S
C733 C734 1.398 . S
C734 H722 0.950 . S
C734 C733 1.398 . S
C734 C735 1.391 . S
C735 H723 0.950 . S
C735 C731 1.393 . S
C735 C734 1.391 . S
H736 C744 0.950 . S
H737 C749 0.950 . S
H738 C746 0.950 . S
H739 C748 0.950 . S
H740 C750 0.950 . S
H741 C752 0.950 . S
H742 C754 0.950 . S
H743 C755 0.950 . S
C744 H736 0.950 . S
C744 C745 1.386 . S
C744 C746 1.391 . S
C745 C744 1.386 . S
C745 C749 1.393 . S
C746 H738 0.950 . S
C746 C744 1.391 . S
C746 C747 1.400 . S
C747 C746 1.400 . S
C747 C748 1.398 . S
C747 C753 1.491 . S
C748 H739 0.950 . S
C748 C747 1.398 . S
C748 C749 1.391 . S
C749 H737 0.950 . S
C749 C745 1.393 . S
C749 C748 1.391 . S
C750 H740 0.950 . S
C750 C751 1.386 . S
C750 C752 1.391 . S
C751 C750 1.386 . S
C751 C755 1.393 . S
C752 H741 0.950 . S
C752 C750 1.391 . S
C752 C753 1.400 . S
C753 C747 1.491 . S
C753 C752 1.400 . S
C753 C754 1.398 . S
C754 H742 0.950 . S
C754 C753 1.398 . S
C754 C755 1.391 . S
C755 H743 0.950 . S
C755 C751 1.393 . S
C755 C754 1.391 . S
H756 C764 0.950 . S
H757 C769 0.950 . S
H758 C766 0.950 . S
H759 C768 0.950 . S
H760 C770 0.950 . S
H761 C772 0.950 . S
H762 C774 0.950 . S
H763 C775 0.950 . S
C764 H756 0.950 . S
C764 C765 1.385 1_565 S
C764 C766 1.391 . S
C765 C764 1.385 1_545 S
C765 C769 1.396 . S
C766 H758 0.950 . S
C766 C764 1.391 . S
C766 C767 1.400 . S
C767 C766 1.400 . S
C767 C768 1.398 1_565 S
C767 C773 1.491 . S
C768 H759 0.950 . S
C768 C767 1.398 1_545 S
C768 C769 1.391 . S
C769 H757 0.950 . S
C769 C765 1.396 . S
C769 C768 1.391 . S
C770 H760 0.950 . S
C770 C771 1.386 . S
C770 C772 1.391 . S
C771 C770 1.386 . S
C771 C775 1.393 . S
C772 H761 0.950 . S
C772 C770 1.391 . S
C772 C773 1.400 . S
C773 C767 1.491 . S
C773 C772 1.400 . S
C773 C774 1.398 . S
C774 H762 0.950 . S
C774 C773 1.398 . S
C774 C775 1.391 . S
C775 H763 0.950 . S
C775 C771 1.393 . S
C775 C774 1.391 . S
H776 C784 0.950 . S
H777 C789 0.950 . S
H778 C786 0.950 . S
H779 C788 0.950 . S
H780 C790 0.950 . S
H781 C792 0.950 . S
H782 C794 0.950 . S
H783 C795 0.950 . S
C784 H776 0.950 . S
C784 C785 1.386 . S
C784 C786 1.391 . S
C785 C784 1.386 . S
C785 C789 1.393 . S
C786 H778 0.950 . S
C786 C784 1.391 . S
C786 C787 1.400 . S
C787 C786 1.400 . S
C787 C788 1.398 . S
C787 C793 1.491 . S
C788 H779 0.950 . S
C788 C787 1.398 . S
C788 C789 1.391 . S
C789 H777 0.950 . S
C789 C785 1.393 . S
C789 C788 1.391 . S
C790 H780 0.950 . S
C790 C791 1.386 . S
C790 C792 1.391 . S
C791 C790 1.386 . S
C791 C795 1.393 . S
C792 H781 0.950 . S
C792 C790 1.391 . S
C792 C793 1.400 . S
C793 C787 1.491 . S
C793 C792 1.400 . S
C793 C794 1.398 . S
C794 H782 0.950 . S
C794 C793 1.398 . S
C794 C795 1.391 . S
C795 H783 0.950 . S
C795 C791 1.393 . S
C795 C794 1.391 . S
H796 C804 0.950 . S
H797 C809 0.950 . S
H798 C806 0.950 . S
H799 C808 0.950 . S
H800 C810 0.950 . S
H801 C812 0.950 . S
H802 C814 0.950 . S
H803 C815 0.950 . S
C804 H796 0.950 . S
C804 C805 1.386 . S
C804 C806 1.391 . S
C805 C804 1.386 . S
C805 C809 1.393 . S
C806 H798 0.950 . S
C806 C804 1.391 . S
C806 C807 1.400 . S
C807 C806 1.400 . S
C807 C808 1.398 . S
C807 C813 1.491 . S
C808 H799 0.950 . S
C808 C807 1.398 . S
C808 C809 1.391 . S
C809 H797 0.950 . S
C809 C805 1.393 . S
C809 C808 1.391 . S
C810 H800 0.950 . S
C810 C811 1.386 . S
C810 C812 1.391 . S
C811 C810 1.386 . S
C811 C815 1.393 . S
C812 H801 0.950 . S
C812 C810 1.391 . S
C812 C813 1.400 . S
C813 C807 1.491 . S
C813 C812 1.400 . S
C813 C814 1.398 . S
C814 H802 0.950 . S
C814 C813 1.398 . S
C814 C815 1.391 . S
C815 H803 0.950 . S
C815 C811 1.393 . S
C815 C814 1.391 . S
C345 C215 1.611 1_565 S
C351 C264 1.690 . S
C371 C294 2.191 . S
C365 C247 2.169 . S
C391 C304 1.723 . S
C385 C151 1.582 . S
C411 C324 1.619 . S
C405 C183 1.572 . S
C431 C265 1.694 . S
C425 C87 1.607 . S
C445 C119 2.016 1_556 S
C451 C295 2.206 . S
C465 C23 1.705 . S
C471 C305 1.736 . S
C485 C55 1.450 . S
C491 C325 1.620 . S
C511 C257 0.758 . S
C505 C189 0.746 . S
C531 C278 0.312 . S
C525 C221 0.358 . S
C551 C297 1.036 . S
C545 C253 1.031 . S
C565 C157 0.594 . S
C571 C317 0.561 . S
C585 C61 0.773 . S
C591 C258 0.758 . S
C611 C277 0.256 . S
C605 C93 0.422 1_565 S
C631 C298 1.026 . S
C625 C125 0.902 . S
C645 C29 0.578 . S
C651 C318 0.553 . S
C665 C177 2.077 . S
C671 C275 2.170 . S
C685 C209 1.574 . S
C691 C285 1.741 . S
C711 C315 2.334 . S
C705 C241 2.212 . S
C731 C335 2.250 . S
C725 C145 2.029 . S
C745 C49 1.971 . S
C751 C274 2.170 . S
C771 C284 1.740 . S
C765 C81 1.584 . S
C791 C314 2.340 . S
C785 C113 2.096 . S
C805 C17 2.147 . S
C811 C334 2.243 . S
