# Generated by pormake.
# Topology rtl, (3,6)-cn, num edge types: 1
# Building blocks:
#     Node 0, Type 0, BuildingBlock: CUQRIR_clean_linker_1, # of connection points: 3
#     Node 1, Type 0, BuildingBlock: CUQRIR_clean_linker_1, # of connection points: 3
#     Node 2, Type 0, BuildingBlock: CUQRIR_clean_linker_1, # of connection points: 3
#     Node 3, Type 0, BuildingBlock: CUQRIR_clean_linker_1, # of connection points: 3
#     Node 4, Type 1, BuildingBlock: KUMJIN_clean_sbu_1, # of connection points: 6
#     Node 5, Type 1, BuildingBlock: KUMJIN_clean_sbu_1, # of connection points: 6
#     Edge 6, Type (0, 1), BuildingBlock: EZIPEK_clean_linker_0, # of connection points: 2
#     Edge 7, Type (0, 1), BuildingBlock: EZIPEK_clean_linker_0, # of connection points: 2
#     Edge 8, Type (0, 1), BuildingBlock: EZIPEK_clean_linker_0, # of connection points: 2
#     Edge 9, Type (0, 1), BuildingBlock: EZIPEK_clean_linker_0, # of connection points: 2
#     Edge 10, Type (0, 1), BuildingBlock: EZIPEK_clean_linker_0, # of connection points: 2
#     Edge 11, Type (0, 1), BuildingBlock: EZIPEK_clean_linker_0, # of connection points: 2
#     Edge 12, Type (0, 1), BuildingBlock: EZIPEK_clean_linker_0, # of connection points: 2
#     Edge 13, Type (0, 1), BuildingBlock: EZIPEK_clean_linker_0, # of connection points: 2
#     Edge 14, Type (0, 1), BuildingBlock: EZIPEK_clean_linker_0, # of connection points: 2
#     Edge 15, Type (0, 1), BuildingBlock: EZIPEK_clean_linker_0, # of connection points: 2
#     Edge 16, Type (0, 1), BuildingBlock: EZIPEK_clean_linker_0, # of connection points: 2
#     Edge 17, Type (0, 1), BuildingBlock: EZIPEK_clean_linker_0, # of connection points: 2
# Relax obj value: 0.067
# Max RMSD: 0.252
# Mean RMSD: 0.191
data_MOF--net-rtl--node1-KUMJIN_clean_sbu_1--node2-CUQRIR_clean_linker_1--edge1-EZIPEK_clean_linker_0
_symmetry_space_group_name_H-M    P1
_symmetry_Int_Tables_number       1
_symmetry_cell_setting            triclinic
loop_
_symmetry_equiv_pos_as_xyz
'x, y, z'
_cell_length_a     23.815962
_cell_length_b     24.287137
_cell_length_c     18.447703
_cell_angle_alpha  71.620652
_cell_angle_beta   98.417129
_cell_angle_gamma 91.864814
loop_
_atom_site_label
_atom_site_type_symbol
_atom_site_fract_x
_atom_site_fract_y
_atom_site_fract_z
_atom_type_partial_charge
C0 C 0.24086 0.80066 0.97932 0.0
N1 N 0.19487 0.82249 0.99675 0.0
N2 N 0.26488 0.75637 0.03986 0.0
C3 C 0.26066 0.82085 0.90171 0.0
C4 C 0.23224 0.75226 0.09544 0.0
N5 N 0.18982 0.79279 0.0699 0.0
C6 C 0.24228 0.70921 0.17518 0.0
H7 H 0.23806 0.79582 0.86585 0.0
H8 H 0.30696 0.81315 0.90698 0.0
H9 H 0.25056 0.86758 0.87234 0.0
H10 H 0.27077 0.72859 0.21351 0.0
H11 H 0.26296 0.66907 0.17463 0.0
H12 H 0.20168 0.69832 0.19899 0.0
C13 C 0.74339 0.73665 0.75183 0.0
N14 N 0.70055 0.70101 0.73907 0.0
N15 N 0.76034 0.76951 0.68428 0.0
C16 C 0.7687 0.7387 0.83061 0.0
C17 C 0.72578 0.75244 0.63013 0.0
N18 N 0.69005 0.71049 0.66306 0.0
C19 C 0.72713 0.77595 0.54454 0.0
H20 H 0.73974 0.76376 0.85083 0.0
H21 H 0.81095 0.75925 0.82987 0.0
H22 H 0.77295 0.6944 0.87271 0.0
H23 H 0.75164 0.74552 0.5268 0.0
H24 H 0.74693 0.81929 0.52835 0.0
H25 H 0.68347 0.77922 0.51264 0.0
C26 C 0.77969 0.22781 0.2075 0.0
N27 N 0.81314 0.18702 0.19873 0.0
N28 N 0.74062 0.24861 0.14447 0.0
C29 C 0.78399 0.24628 0.27851 0.0
C30 C 0.75166 0.21964 0.09625 0.0
N31 N 0.79623 0.18236 0.12859 0.0
C32 C 0.71963 0.22875 1.01677 0.0
H33 H 0.75747 0.21711 0.31875 0.0
H34 H 0.76808 0.29145 0.26417 0.0
H35 H 0.82839 0.24289 0.30784 0.0
H36 H 0.67543 0.24363 1.01314 0.0
H37 H 0.71916 0.18813 1.00126 0.0
H38 H 0.74106 0.26254 0.97437 0.0
C39 C 0.29627 0.2921 0.4267 0.0
N40 N 0.32966 0.33764 0.43135 0.0
N41 N 0.26679 0.27382 0.48751 0.0
C42 C 0.29231 0.26524 0.3631 0.0
C43 C 0.28301 0.31011 0.52904 0.0
N44 N 0.32118 0.34873 0.49534 0.0
C45 C 0.26265 0.30715 0.60358 0.0
H46 H 0.25465 0.28368 0.32005 0.0
H47 H 0.28668 0.21765 0.38635 0.0
H48 H 0.33041 0.27431 0.33345 0.0
H49 H 0.29664 0.28728 0.65214 0.0
H50 H 0.2238 0.28084 0.61207 0.0
H51 H 0.25393 0.35139 0.60482 0.0
Eu52 Eu 0.06329 0.96615 0.53698 0.0
C53 C 0.97081 0.20308 0.54554 0.0
N54 N 0.01165 0.16768 0.59629 0.0
C55 C 0.07331 0.24906 0.58802 0.0
C56 C 0.98083 0.26254 0.51076 0.0
C57 C 0.06077 0.19076 0.62212 0.0
C58 C 0.03364 0.28486 0.53074 0.0
C59 C 0.87243 0.21727 0.48615 0.0
C60 C 0.91747 0.18073 0.53285 0.0
C61 C 0.88292 0.27574 0.44806 0.0
C62 C 0.93715 0.29826 0.45998 0.0
Eu63 Eu 0.98909 0.0676 0.64381 0.0
N64 N 0.90865 0.12416 0.57055 0.0
C65 C 0.81777 0.19448 0.48148 0.0
C66 C 0.85498 0.10229 0.56855 0.0
C67 C 0.80897 0.13681 0.52322 0.0
H68 H 0.09099 0.16401 0.66839 0.0
H69 H 0.76676 0.11895 0.52063 0.0
H70 H 0.04045 0.82669 0.62661 0.0
H71 H 0.26814 0.06714 0.47701 0.0
H72 H 0.8481 0.05742 0.59974 0.0
H73 H 0.78187 0.22149 0.44774 0.0
H74 H 0.16504 0.05398 0.45135 0.0
H75 H 0.11328 0.26646 0.60655 0.0
H76 H 0.84903 0.30428 0.41105 0.0
H77 H 0.94425 0.34387 0.43206 0.0
H78 H 0.09351 0.74068 0.71809 0.0
H79 H 0.04315 0.33019 0.50505 0.0
H80 H 0.32646 0.99462 0.58456 0.0
N81 N 0.11212 0.88153 0.62032 0.0
C82 C 0.16875 0.88565 0.64059 0.0
C83 C 0.11517 0.78121 0.69692 0.0
C84 C 0.20088 0.83764 0.69176 0.0
C85 C 0.08533 0.82977 0.64507 0.0
C86 C 0.17309 0.78533 0.72114 0.0
N87 N 0.16333 0.97949 0.55041 0.0
C88 C 0.18938 0.0237 0.50115 0.0
C89 C 0.25477 0.94066 0.61942 0.0
C90 C 0.19516 0.93654 0.60505 0.0
C91 C 0.28085 0.9897 0.5752 0.0
C92 C 0.24811 0.03067 0.51443 0.0
H93 H 0.19623 0.7475 0.76082 0.0
H94 H 0.28532 0.80633 0.74858 0.0
H95 H 0.33243 0.89684 0.68598 0.0
O96 O 0.0988 0.9413 0.44865 0.0
O97 O 0.06157 0.93182 0.66694 0.0
O98 O 0.07134 0.01756 0.68804 0.0
O99 O 1.00903 0.93498 0.45218 0.0
O100 O 0.08188 0.06257 0.5071 0.0
O101 O 0.0814 0.08217 0.62035 0.0
O102 O 0.97384 0.0187 0.76086 0.0
O103 O 0.94197 0.05214 0.53587 0.0
O104 O 0.01511 0.05006 0.46938 0.0
O105 O 0.97096 0.11145 0.72537 0.0
O106 O 0.93754 0.98674 0.63826 0.0
O107 O 0.98462 0.92536 0.58975 0.0
C108 C 0.06992 0.96128 0.71608 0.0
C109 C 0.05058 0.87304 0.39656 0.0
C110 C 0.07641 0.82411 0.30872 0.0
C111 C 0.0568 0.77171 0.35577 0.0
C112 C 0.03111 0.82037 0.4428 0.0
C113 C 0.03395 0.77005 0.42207 0.0
C114 C 0.07228 0.8749 0.3289 0.0
C115 C 0.1005 0.09235 0.55377 0.0
C116 C 0.0505 0.92634 0.41828 0.0
C117 C 0.25984 0.84268 0.7094 0.0
C118 C 0.28669 0.89426 0.67377 0.0
C119 C 0.96139 0.05926 0.47074 0.0
C120 C 0.91119 0.06241 0.81552 0.0
C121 C 0.86213 0.08305 0.91188 0.0
C122 C 0.81112 0.06499 0.87797 0.0
C123 C 0.85966 0.04489 0.78266 0.0
C124 C 0.91254 0.08067 0.88112 0.0
C125 C 0.81006 0.04571 0.81414 0.0
C126 C 0.94198 0.93774 0.62135 0.0
C127 C 0.96289 0.06401 0.77965 0.0
H128 H 0.05974 0.732 0.34152 0.0
H129 H 0.01413 0.81806 0.49497 0.0
H130 H 0.01907 0.72945 0.45803 0.0
H131 H 0.08759 0.91546 0.29311 0.0
H132 H 0.77186 0.06652 0.90051 0.0
H133 H 0.85773 0.0308 0.73241 0.0
H134 H 0.9521 0.09469 0.90662 0.0
H135 H 0.77049 0.03211 0.78829 0.0
Eu136 Eu 0.45662 0.48109 1.00794 0.0
C137 C 0.70461 0.52965 0.16922 0.0
N138 N 0.65998 0.5011 0.20103 0.0
C139 C 0.72201 0.4226 0.28109 0.0
C140 C 0.75954 0.50456 0.18917 0.0
C141 C 0.66852 0.44982 0.25984 0.0
C142 C 0.76757 0.4496 0.2445 0.0
C143 C 0.74133 0.61851 0.08897 0.0
C144 C 0.69575 0.58562 0.12037 0.0
C145 C 0.79565 0.59282 0.10507 0.0
C146 C 0.80476 0.53589 0.15518 0.0
Eu147 Eu 0.56879 0.54585 0.15357 0.0
N148 N 0.64279 0.60874 0.10623 0.0
C149 C 0.73104 0.67646 0.04372 0.0
C150 C 0.63334 0.66633 0.06681 0.0
C151 C 0.67694 0.70073 0.03363 0.0
H152 H 0.63345 0.42901 0.28862 0.0
H153 H 0.6688 0.74587 1.00029 0.0
H154 H 0.32539 0.49818 0.04273 0.0
H155 H 0.54798 0.27816 1.00286 0.0
H156 H 0.59149 0.68523 0.05893 0.0
H157 H 0.7648 0.70317 1.01816 0.0
H158 H 0.53044 0.38408 0.95943 0.0
H159 H 0.72808 0.38093 0.32569 0.0
H160 H 0.83111 0.61708 0.08071 0.0
H161 H 0.84716 0.51713 0.16893 0.0
H162 H 0.25388 0.4399 0.11852 0.0
H163 H 0.80903 0.42864 0.26127 0.0
H164 H 0.49373 0.21325 0.10003 0.0
N165 N 0.38234 0.42684 0.06826 0.0
C166 C 0.39098 0.3689 0.10044 0.0
C167 C 0.29237 0.41942 0.11415 0.0
C168 C 0.35152 0.33386 0.14377 0.0
C169 C 0.33261 0.45215 0.07105 0.0
C170 C 0.30234 0.36016 0.15187 0.0
N171 N 0.47074 0.37948 0.03642 0.0
C172 C 0.50744 0.35622 1.00314 0.0
C173 C 0.44437 0.2835 0.1092 0.0
C174 C 0.43691 0.34429 0.08396 0.0
C175 C 0.48649 0.25973 0.08197 0.0
C176 C 0.51707 0.2962 0.02698 0.0
H177 H 0.27089 0.33482 0.18457 0.0
H178 H 0.3318 0.24596 0.20873 0.0
H179 H 0.41322 0.20172 0.17823 0.0
O180 O 0.41142 0.45356 0.91248 0.0
O181 O 0.43682 0.48061 0.12616 0.0
O182 O 0.5221 0.46317 0.20351 0.0
O183 O 0.41761 0.54393 0.90133 0.0
O184 O 0.54935 0.45733 0.02667 0.0
O185 O 0.57879 0.45275 0.15207 0.0
O186 O 0.51396 0.5634 0.22927 0.0
O187 O 0.55487 0.59428 0.02411 0.0
O188 O 0.53677 0.52559 0.96197 0.0
O189 O 0.6028 0.58301 0.24492 0.0
O190 O 0.50205 0.60838 0.06758 0.0
O191 O 0.42353 0.5557 0.04084 0.0
C192 C 0.46689 0.45761 0.19463 0.0
C193 C 0.42315 0.5179 0.78893 0.0
C194 C 0.4197 0.49678 0.66713 0.0
C195 C 0.45968 0.54004 0.64411 0.0
C196 C 0.46404 0.56041 0.76504 0.0
C197 C 0.48194 0.57143 0.69312 0.0
C198 C 0.40123 0.48598 0.73948 0.0
C199 C 0.58205 0.43506 0.09233 0.0
C200 C 0.40412 0.50616 0.86544 0.0
C201 C 0.36121 0.27365 0.17445 0.0
C202 C 0.40762 0.24846 0.15714 0.0
C203 C 0.56152 0.57369 0.96805 0.0
C204 C 0.55674 0.55752 0.3564 0.0
C205 C 0.58086 0.57016 0.48376 0.0
C206 C 0.55999 0.51467 0.51759 0.0
C207 C 0.53621 0.50205 0.39153 0.0
C208 C 0.57898 0.59151 0.40298 0.0
C209 C 0.53754 0.48099 0.47156 0.0
C210 C 0.44663 0.60255 0.05382 0.0
C211 C 0.55492 0.58068 0.27162 0.0
H212 H 0.47373 0.54911 0.58844 0.0
H213 H 0.48233 0.58516 0.80191 0.0
H214 H 0.5133 0.60434 0.67557 0.0
H215 H 0.37017 0.45263 0.75728 0.0
H216 H 0.56172 0.49725 0.57965 0.0
H217 H 0.51934 0.47498 0.35718 0.0
H218 H 0.59536 0.63422 0.37663 0.0
H219 H 0.52156 0.43819 0.49804 0.0
C220 C 0.17557 0.23056 0.45318 0.0
C221 C 0.22664 0.22697 0.50381 0.0
C222 C 0.19696 0.13336 0.58751 0.0
C223 C 0.14706 0.13555 0.53339 0.0
N224 N 0.10632 0.17579 0.39832 0.0
N225 N 0.29232 0.16953 0.61012 0.0
C226 C 0.14124 0.18091 0.46128 0.0
C227 C 0.23916 0.17677 0.56873 0.0
N228 N 0.15913 0.2819 0.39788 0.0
N229 N 0.20526 0.08875 0.65536 0.0
H230 H 0.32414 0.19998 0.59607 0.0
H231 H 0.30639 0.1315 0.65364 0.0
H232 H 0.18008 0.05196 0.66669 0.0
H233 H 0.23666 0.08874 0.70103 0.0
H234 H 0.11933 0.28809 0.36401 0.0
H235 H 0.18288 0.31956 0.39171 0.0
H236 H 0.10462 0.20659 0.34383 0.0
H237 H 0.08556 0.13788 0.39685 0.0
C238 C 0.30912 0.68582 0.99368 0.0
C239 C 0.31288 0.72057 0.04261 0.0
C240 C 0.41132 0.6868 0.0931 0.0
C241 C 0.40726 0.65276 0.04203 0.0
N242 N 0.36218 0.64719 0.91927 0.0
N243 N 0.37133 0.76588 0.12448 0.0
C244 C 0.35892 0.66028 0.98502 0.0
C245 C 0.36514 0.72442 0.0884 0.0
N246 N 0.25783 0.67635 0.95627 0.0
N247 N 0.45844 0.68365 0.14607 0.0
H248 H 0.33858 0.79456 0.12048 0.0
H249 H 0.40995 0.77521 0.15243 0.0
H250 H 0.49681 0.66601 0.14336 0.0
H251 H 0.45941 0.6993 0.19271 0.0
H252 H 0.25268 0.64762 0.92412 0.0
H253 H 0.22011 0.6925 0.96437 0.0
H254 H 0.32906 0.65512 0.87338 0.0
H255 H 0.40125 0.63801 0.90653 0.0
C256 C 0.84988 0.80271 0.6302 0.0
C257 C 0.80705 0.81 0.67214 0.0
C258 C 0.86033 0.8916 0.69638 0.0
C259 C 0.89555 0.89302 0.63939 0.0
N260 N 0.90642 0.85527 0.53435 0.0
N261 N 0.76545 0.8726 0.72913 0.0
C262 C 0.88587 0.84983 0.60136 0.0
C263 C 0.81011 0.85818 0.69992 0.0
N264 N 0.85653 0.75104 0.61784 0.0
N265 N 0.87673 0.91697 0.75203 0.0
H266 H 0.72705 0.85067 0.72893 0.0
H267 H 0.76517 0.90989 0.7457 0.0
H268 H 0.91763 0.93205 0.76114 0.0
H269 H 0.85311 0.91376 0.79655 0.0
H270 H 0.88992 0.74296 0.59156 0.0
H271 H 0.83259 0.71488 0.64165 0.0
H272 H 0.89748 0.82552 0.50408 0.0
H273 H 0.92335 0.89359 0.50255 0.0
C274 C 0.65229 0.28424 0.17151 0.0
C275 C 0.69918 0.29402 0.13027 0.0
C276 C 0.65956 0.38821 0.05027 0.0
C277 C 0.61897 0.38422 0.10108 0.0
N278 N 0.57163 0.32441 0.20493 0.0
N279 N 0.75378 0.36008 0.04169 0.0
C280 C 0.61427 0.33111 0.16105 0.0
C281 C 0.70469 0.34746 0.07309 0.0
N282 N 0.64293 0.22949 0.21763 0.0
N283 N 0.65382 0.42782 0.9782 0.0
H284 H 0.7886 0.33173 0.05951 0.0
H285 H 0.76168 0.40098 1.00453 0.0
H286 H 0.61918 0.45575 0.9545 0.0
H287 H 0.68046 0.42798 0.93801 0.0
H288 H 0.60678 0.21765 0.2442 0.0
H289 H 0.6696 0.19449 0.22428 0.0
H290 H 0.56981 0.29004 0.25533 0.0
H291 H 0.53776 0.35375 0.19053 0.0
C292 C 0.18766 0.83529 0.17481 0.0
C293 C 0.158 0.81062 0.12025 0.0
C294 C 0.07164 0.80889 0.17894 0.0
C295 C 0.10357 0.82471 0.2404 0.0
N296 N 0.19508 0.84422 0.30283 0.0
N297 N 0.07458 0.76293 0.08095 0.0
C298 C 0.16236 0.83633 0.23958 0.0
C299 C 0.10047 0.79502 0.12452 0.0
N300 N 0.24087 0.85635 0.16565 0.0
N301 N 0.0138 0.80718 0.1725 0.0
H302 H 0.09623 0.74825 0.04559 0.0
H303 H 0.03429 0.74554 0.08666 0.0
H304 H 0.99136 0.81779 0.21091 0.0
H305 H 0.98816 0.80093 0.12496 0.0
H306 H 0.26241 0.88035 0.1986 0.0
H307 H 0.26153 0.85401 0.1207 0.0
H308 H 0.2392 0.84627 0.30878 0.0
H309 H 0.17902 0.84324 0.35281 0.0
C310 C 0.68522 0.61506 0.85088 0.0
C311 C 0.66529 0.6683 0.79553 0.0
C312 C 0.57686 0.65948 0.85243 0.0
C313 C 0.59727 0.60664 0.90875 0.0
N314 N 0.67771 0.54445 0.9751 0.0
N315 N 0.60102 0.74964 0.76001 0.0
C316 C 0.65329 0.58706 0.91152 0.0
C317 C 0.61337 0.69283 0.80064 0.0
N318 N 0.73533 0.59167 0.84634 0.0
N319 N 0.52259 0.67789 0.84831 0.0
H320 H 0.62893 0.7761 0.72606 0.0
H321 H 0.5665 0.77207 0.76637 0.0
H322 H 0.49555 0.65567 0.88705 0.0
H323 H 0.50315 0.71254 0.80326 0.0
H324 H 0.74872 0.54948 0.87843 0.0
H325 H 0.76249 0.61401 0.80804 0.0
H326 H 0.72054 0.53284 0.98523 0.0
H327 H 0.65594 0.52377 0.0211 0.0
C328 C 0.90746 0.17152 0.27798 0.0
C329 C 0.85293 0.15022 0.26028 0.0
C330 C 0.87123 0.0667 0.37786 0.0
C331 C 0.92428 0.09016 0.39798 0.0
N332 N 0.98116 0.17583 0.38046 0.0
N333 N 0.77616 0.08964 0.31004 0.0
C334 C 0.93973 0.14538 0.35133 0.0
C335 C 0.83285 0.10086 0.31459 0.0
N336 N 0.92708 0.21898 0.22646 0.0
N337 N 0.85706 0.01214 0.41926 0.0
H338 H 0.74609 0.11615 0.26773 0.0
H339 H 0.75862 0.05778 0.35282 0.0
H340 H 0.88351 0.98636 0.46713 0.0
H341 H 0.82114 0.99111 0.4021 0.0
H342 H 0.96879 0.23306 0.23296 0.0
H343 H 0.90234 0.24189 0.17517 0.0
H344 H 0.98961 0.21914 0.35268 0.0
H345 H 1.00248 0.15989 0.43652 0.0
C346 C 0.40158 0.37301 0.58038 0.0
C347 C 0.35065 0.39031 0.5282 0.0
C348 C 0.34785 0.48049 0.56166 0.0
C349 C 0.39775 0.46202 0.61566 0.0
N350 N 0.47921 0.3979 0.66495 0.0
N351 N 0.27046 0.45529 0.47697 0.0
C352 C 0.42691 0.41052 0.62123 0.0
C353 C 0.32298 0.44326 0.51991 0.0
N354 N 0.42276 0.31829 0.59595 0.0
N355 N 0.32484 0.53404 0.54968 0.0
H356 H 0.25032 0.42744 0.44886 0.0
H357 H 0.24473 0.48994 0.47398 0.0
H358 H 0.34123 0.56167 0.58065 0.0
H359 H 0.29213 0.5531 0.50564 0.0
H360 H 0.4562 0.30002 0.63925 0.0
H361 H 0.40333 0.28889 0.56998 0.0
H362 H 0.50574 0.36487 0.6644 0.0
H363 H 0.49828 0.42341 0.69753 0.0
C364 C 0.6047 0.68679 0.58397 0.0
C365 C 0.66018 0.67205 0.62461 0.0
C366 C 0.66449 0.59181 0.57043 0.0
C367 C 0.60764 0.60459 0.53361 0.0
N368 N 0.52082 0.65932 0.51175 0.0
N369 N 0.74401 0.61195 0.65645 0.0
C370 C 0.57687 0.65061 0.54247 0.0
C371 C 0.69009 0.62447 0.61831 0.0
N372 N 0.5802 0.73758 0.5811 0.0
N373 N 0.69487 0.55038 0.55617 0.0
H374 H 0.76635 0.63924 0.68358 0.0
H375 H 0.76633 0.57411 0.6634 0.0
H376 H 0.67762 0.52562 0.52157 0.0
H377 H 0.73806 0.5423 0.57452 0.0
H378 H 0.54213 0.75431 0.5467 0.0
H379 H 0.6009 0.76592 0.60795 0.0
H380 H 0.49417 0.68769 0.52327 0.0
H381 H 0.49961 0.63479 0.47919 0.0
C382 C 0.85459 0.18913 0.02558 0.0
C383 C 0.82617 0.15423 0.08641 0.0
C384 C 0.84174 0.0696 0.04593 0.0
C385 C 0.86048 0.10626 0.97764 0.0
N386 N 0.88002 0.20309 0.89865 0.0
N387 N 0.78237 0.06341 0.14351 0.0
C388 C 0.86689 0.16652 0.96707 0.0
C389 C 0.81787 0.09468 0.09466 0.0
N390 N 0.86741 0.24499 0.02188 0.0
N391 N 0.84548 0.01079 0.06304 0.0
H392 H 0.75946 0.08252 0.17318 0.0
H393 H 0.77047 0.02109 0.14702 0.0
H394 H 0.86302 0.99139 0.02826 0.0
H395 H 0.83663 0.9819 0.11519 0.0
H396 H 0.89381 0.2707 0.98476 0.0
H397 H 0.8546 0.2643 0.05975 0.0
H398 H 0.87827 0.24812 0.8839 0.0
H399 H 0.88854 0.18893 0.85361 0.0
C400 C 0.42029 0.34611 0.37687 0.0
C401 C 0.36638 0.36927 0.37619 0.0
C402 C 0.38344 0.45396 0.2668 0.0
C403 C 0.43638 0.4297 0.26364 0.0
N404 N 0.51221 0.35999 0.33423 0.0
N405 N 0.29046 0.43604 0.30714 0.0
C406 C 0.45699 0.37788 0.3239 0.0
C407 C 0.34643 0.42088 0.31778 0.0
N408 N 0.43472 0.29134 0.4247 0.0
N409 N 0.3701 0.51047 0.22509 0.0
H410 H 0.26156 0.41012 0.33974 0.0
H411 H 0.2716 0.46992 0.26041 0.0
H412 H 0.39835 0.53816 0.19335 0.0
H413 H 0.33451 0.53201 0.23026 0.0
H414 H 0.46957 0.26795 0.42133 0.0
H415 H 0.40834 0.26645 0.46249 0.0
H416 H 0.53084 0.32737 0.38264 0.0
H417 H 0.54225 0.38103 0.30045 0.0
C418 C 0.11414 0.83323 0.89237 0.0
C419 C 0.1519 0.85869 0.9392 0.0
C420 C 0.12031 0.95569 0.85205 0.0
C421 C 0.08789 0.92935 0.8007 0.0
N422 N 0.03131 0.84617 0.79622 0.0
N423 N 0.19478 0.94362 0.9613 0.0
C424 C 0.07783 0.86899 0.82836 0.0
C425 C 0.15516 0.9199 0.91914 0.0
N426 N 0.11615 0.77482 0.90508 0.0
N427 N 0.11525 0.01384 0.84026 0.0
H428 H 0.2202 0.91831 1.01057 0.0
H429 H 0.20542 0.98729 0.94468 0.0
H430 H 0.08496 0.0404 0.79889 0.0
H431 H 0.13483 0.03449 0.87864 0.0
H432 H 0.09504 0.75488 0.86666 0.0
H433 H 0.14234 0.74683 0.95111 0.0
H434 H 0.01919 0.80316 0.81814 0.0
H435 H 1.00067 0.87226 0.75471 0.0
loop_
_geom_bond_atom_site_label_1
_geom_bond_atom_site_label_2
_geom_bond_distance
_geom_bond_site_symmetry_2
_ccdc_geom_bond_type
C0 N1 1.317 . S
C0 N2 1.348 1_556 S
C0 C3 1.485 . S
N1 C0 1.317 . S
N1 N5 1.370 1_556 S
N2 C0 1.348 1_554 S
N2 C4 1.346 . S
C3 C0 1.485 . S
C3 H7 0.960 . S
C3 H8 0.961 . S
C3 H9 0.960 . S
C4 N2 1.346 . S
C4 N5 1.307 . S
C4 C6 1.486 . S
N5 N1 1.370 1_554 S
N5 C4 1.307 . S
C6 C4 1.486 . S
C6 H10 0.960 . S
C6 H11 0.960 . S
C6 H12 0.959 . S
H7 C3 0.960 . S
H8 C3 0.961 . S
H9 C3 0.960 . S
H10 C6 0.960 . S
H11 C6 0.960 . S
H12 C6 0.959 . S
C13 N14 1.317 . S
C13 N15 1.348 . S
C13 C16 1.485 . S
N14 C13 1.317 . S
N14 N18 1.370 . S
N15 C13 1.348 . S
N15 C17 1.346 . S
C16 C13 1.485 . S
C16 H20 0.960 . S
C16 H21 0.961 . S
C16 H22 0.960 . S
C17 N15 1.346 . S
C17 N18 1.307 . S
C17 C19 1.486 . S
N18 N14 1.370 . S
N18 C17 1.307 . S
C19 C17 1.486 . S
C19 H23 0.960 . S
C19 H24 0.960 . S
C19 H25 0.959 . S
H20 C16 0.960 . S
H21 C16 0.961 . S
H22 C16 0.960 . S
H23 C19 0.960 . S
H24 C19 0.960 . S
H25 C19 0.959 . S
C26 N27 1.317 . S
C26 N28 1.348 . S
C26 C29 1.485 . S
N27 C26 1.317 . S
N27 N31 1.370 . S
N28 C26 1.348 . S
N28 C30 1.346 . S
C29 C26 1.485 . S
C29 H33 0.960 . S
C29 H34 0.961 . S
C29 H35 0.960 . S
C30 N28 1.346 . S
C30 N31 1.307 . S
C30 C32 1.486 1_554 S
N31 N27 1.370 . S
N31 C30 1.307 . S
C32 C30 1.486 1_556 S
C32 H36 0.960 . S
C32 H37 0.960 . S
C32 H38 0.959 . S
H33 C29 0.960 . S
H34 C29 0.961 . S
H35 C29 0.960 . S
H36 C32 0.960 . S
H37 C32 0.960 . S
H38 C32 0.959 . S
C39 N40 1.317 . S
C39 N41 1.348 . S
C39 C42 1.485 . S
N40 C39 1.317 . S
N40 N44 1.370 . S
N41 C39 1.348 . S
N41 C43 1.346 . S
C42 C39 1.485 . S
C42 H46 0.960 . S
C42 H47 0.961 . S
C42 H48 0.960 . S
C43 N41 1.346 . S
C43 N44 1.307 . S
C43 C45 1.486 . S
N44 N40 1.370 . S
N44 C43 1.307 . S
C45 C43 1.486 . S
C45 H49 0.960 . S
C45 H50 0.960 . S
C45 H51 0.959 . S
H46 C42 0.960 . S
H47 C42 0.961 . S
H48 C42 0.960 . S
H49 C45 0.960 . S
H50 C45 0.960 . S
H51 C45 0.959 . S
Eu52 N81 2.600 . S
Eu52 N87 2.562 . S
Eu52 O96 2.462 . S
Eu52 O97 2.373 . S
Eu52 O99 2.432 . S
Eu52 O100 2.291 1_565 S
Eu52 O104 2.335 1_465 S
Eu52 O107 2.372 1_455 S
Eu52 C116 2.787 . S
C53 N54 1.365 . S
C53 C56 1.405 . S
C53 C60 1.448 . S
N54 C53 1.365 . S
N54 C57 1.319 1_655 S
N54 Eu63 2.600 . S
C55 C57 1.397 . S
C55 C58 1.367 1_455 S
C55 H75 0.931 . S
C56 C53 1.405 . S
C56 C58 1.403 . S
C56 C62 1.439 . S
C57 N54 1.319 1_455 S
C57 C55 1.397 . S
C57 H68 0.930 . S
C58 C55 1.367 1_655 S
C58 C56 1.403 . S
C58 H79 0.929 . S
C59 C60 1.430 . S
C59 C61 1.387 . S
C59 C65 1.404 . S
C60 C53 1.448 . S
C60 C59 1.430 . S
C60 N64 1.351 . S
C61 C59 1.387 . S
C61 C62 1.374 . S
C61 H76 0.931 . S
C62 C56 1.439 . S
C62 C61 1.374 . S
C62 H77 0.931 . S
Eu63 N54 2.600 . S
Eu63 N64 2.562 . S
Eu63 O98 2.335 1_655 S
Eu63 O101 2.372 1_655 S
Eu63 O102 2.462 . S
Eu63 O103 2.373 . S
Eu63 O105 2.432 . S
Eu63 O106 2.291 1_545 S
Eu63 C127 2.787 . S
N64 C60 1.351 . S
N64 Eu63 2.562 . S
N64 C66 1.325 . S
C65 C59 1.404 . S
C65 C67 1.366 . S
C65 H73 0.930 . S
C66 N64 1.325 . S
C66 C67 1.416 . S
C66 H72 0.929 . S
C67 C65 1.366 . S
C67 C66 1.416 . S
C67 H69 0.930 . S
H68 C57 0.930 . S
H69 C67 0.930 . S
H70 C85 0.930 1_655 S
H71 C92 0.930 . S
H72 C66 0.929 . S
H73 C65 0.930 . S
H74 C88 0.929 . S
H75 C55 0.931 . S
H76 C61 0.931 . S
H77 C62 0.931 . S
H78 C83 0.931 1_655 S
H79 C58 0.929 . S
H80 C91 0.930 . S
N81 Eu52 2.600 . S
N81 C82 1.365 . S
N81 C85 1.319 . S
C82 N81 1.365 . S
C82 C84 1.405 . S
C82 C90 1.448 . S
C83 H78 0.931 1_455 S
C83 C85 1.397 . S
C83 C86 1.367 . S
C84 C82 1.405 . S
C84 C86 1.403 . S
C84 C117 1.439 . S
C85 H70 0.930 1_455 S
C85 N81 1.319 . S
C85 C83 1.397 . S
C86 C83 1.367 . S
C86 C84 1.403 . S
C86 H93 0.929 . S
N87 Eu52 2.562 . S
N87 C88 1.325 . S
N87 C90 1.351 . S
C88 H74 0.929 . S
C88 N87 1.325 . S
C88 C92 1.416 . S
C89 C90 1.430 . S
C89 C91 1.404 . S
C89 C118 1.387 . S
C90 C82 1.448 . S
C90 N87 1.351 . S
C90 C89 1.430 . S
C91 H80 0.930 . S
C91 C89 1.404 . S
C91 C92 1.366 . S
C92 H71 0.930 . S
C92 C88 1.416 . S
C92 C91 1.366 . S
H93 C86 0.929 . S
H94 C117 0.931 . S
H95 C118 0.931 . S
O96 Eu52 2.462 . S
O96 C116 1.252 . S
O97 Eu52 2.373 . S
O97 C108 1.249 . S
O98 Eu63 2.335 1_455 S
O98 C108 1.264 1_545 S
O99 Eu52 2.432 . S
O99 C116 1.268 . S
O100 Eu52 2.291 1_545 S
O100 C115 1.255 . S
O101 Eu63 2.372 1_455 S
O101 C115 1.257 . S
O102 Eu63 2.462 . S
O102 C127 1.252 . S
O103 Eu63 2.373 . S
O103 C119 1.249 . S
O104 Eu52 2.335 1_645 S
O104 C119 1.264 . S
O105 Eu63 2.432 . S
O105 C127 1.268 . S
O106 Eu63 2.291 1_565 S
O106 C126 1.255 . S
O107 Eu52 2.372 1_655 S
O107 C126 1.257 . S
C108 O97 1.249 . S
C108 O98 1.264 1_565 S
C109 C112 1.382 . S
C109 C114 1.390 . S
C109 C116 1.506 . S
C110 C111 1.398 . S
C110 C114 1.392 . S
C111 C110 1.398 . S
C111 C113 1.372 . S
C111 H128 0.931 . S
C112 C109 1.382 . S
C112 C113 1.390 . S
C112 H129 0.931 . S
C113 C111 1.372 . S
C113 C112 1.390 . S
C113 H130 0.929 . S
C114 C109 1.390 . S
C114 C110 1.392 . S
C114 H131 0.930 . S
C115 O100 1.255 . S
C115 O101 1.257 . S
C116 Eu52 2.787 . S
C116 O96 1.252 . S
C116 O99 1.268 . S
C116 C109 1.506 . S
C117 C84 1.439 . S
C117 H94 0.931 . S
C117 C118 1.374 . S
C118 C89 1.387 . S
C118 H95 0.931 . S
C118 C117 1.374 . S
C119 O103 1.249 . S
C119 O104 1.264 . S
C120 C123 1.382 . S
C120 C124 1.390 . S
C120 C127 1.506 . S
C121 C122 1.398 . S
C121 C124 1.392 . S
C122 C121 1.398 . S
C122 C125 1.372 . S
C122 H132 0.931 . S
C123 C120 1.382 . S
C123 C125 1.390 . S
C123 H133 0.931 . S
C124 C120 1.390 . S
C124 C121 1.392 . S
C124 H134 0.930 . S
C125 C122 1.372 . S
C125 C123 1.390 . S
C125 H135 0.929 . S
C126 O106 1.255 . S
C126 O107 1.257 . S
C127 Eu63 2.787 . S
C127 O102 1.252 . S
C127 O105 1.268 . S
C127 C120 1.506 . S
H128 C111 0.931 . S
H129 C112 0.931 . S
H130 C113 0.929 . S
H131 C114 0.930 . S
H132 C122 0.931 . S
H133 C123 0.931 . S
H134 C124 0.930 . S
H135 C125 0.929 . S
Eu136 N165 2.600 . S
Eu136 N171 2.562 . S
Eu136 O180 2.462 1_554 S
Eu136 O181 2.373 . S
Eu136 O183 2.432 1_554 S
Eu136 O184 2.291 . S
Eu136 O188 2.335 1_554 S
Eu136 O191 2.372 . S
Eu136 C200 2.787 1_554 S
C137 N138 1.365 . S
C137 C140 1.405 . S
C137 C144 1.448 . S
N138 C137 1.365 . S
N138 C141 1.319 . S
N138 Eu147 2.600 . S
C139 C141 1.397 . S
C139 C142 1.367 . S
C139 H159 0.931 . S
C140 C137 1.405 . S
C140 C142 1.403 . S
C140 C146 1.439 . S
C141 N138 1.319 . S
C141 C139 1.397 . S
C141 H152 0.930 . S
C142 C139 1.367 . S
C142 C140 1.403 . S
C142 H163 0.929 . S
C143 C144 1.430 . S
C143 C145 1.387 . S
C143 C149 1.404 . S
C144 C137 1.448 . S
C144 C143 1.430 . S
C144 N148 1.351 . S
C145 C143 1.387 . S
C145 C146 1.374 . S
C145 H160 0.931 . S
C146 C140 1.439 . S
C146 C145 1.374 . S
C146 H161 0.931 . S
Eu147 N138 2.600 . S
Eu147 N148 2.562 . S
Eu147 O182 2.335 . S
Eu147 O185 2.372 . S
Eu147 O186 2.462 . S
Eu147 O187 2.373 . S
Eu147 O189 2.432 . S
Eu147 O190 2.291 . S
Eu147 C211 2.787 . S
N148 C144 1.351 . S
N148 Eu147 2.562 . S
N148 C150 1.325 . S
C149 C143 1.404 . S
C149 C151 1.366 . S
C149 H157 0.930 . S
C150 N148 1.325 . S
C150 C151 1.416 . S
C150 H156 0.929 . S
C151 C149 1.366 . S
C151 C150 1.416 . S
C151 H153 0.930 . S
H152 C141 0.930 . S
H153 C151 0.930 . S
H154 C169 0.930 . S
H155 C176 0.930 . S
H156 C150 0.929 . S
H157 C149 0.930 . S
H158 C172 0.929 . S
H159 C139 0.931 . S
H160 C145 0.931 . S
H161 C146 0.931 . S
H162 C167 0.931 . S
H163 C142 0.929 . S
H164 C175 0.930 . S
N165 Eu136 2.600 . S
N165 C166 1.365 . S
N165 C169 1.319 1_554 S
C166 N165 1.365 . S
C166 C168 1.405 . S
C166 C174 1.448 . S
C167 H162 0.931 . S
C167 C169 1.397 . S
C167 C170 1.367 1_556 S
C168 C166 1.405 . S
C168 C170 1.403 . S
C168 C201 1.439 . S
C169 H154 0.930 . S
C169 N165 1.319 1_556 S
C169 C167 1.397 . S
C170 C167 1.367 1_554 S
C170 C168 1.403 . S
C170 H177 0.929 . S
N171 Eu136 2.562 . S
N171 C172 1.325 . S
N171 C174 1.351 . S
C172 H158 0.929 . S
C172 N171 1.325 . S
C172 C176 1.416 . S
C173 C174 1.430 . S
C173 C175 1.404 . S
C173 C202 1.387 . S
C174 C166 1.448 . S
C174 N171 1.351 . S
C174 C173 1.430 . S
C175 H164 0.930 . S
C175 C173 1.404 . S
C175 C176 1.366 . S
C176 H155 0.930 . S
C176 C172 1.416 . S
C176 C175 1.366 . S
H177 C170 0.929 . S
H178 C201 0.931 . S
H179 C202 0.931 . S
O180 Eu136 2.462 1_556 S
O180 C200 1.252 . S
O181 Eu136 2.373 . S
O181 C192 1.249 . S
O182 Eu147 2.335 . S
O182 C192 1.264 . S
O183 Eu136 2.432 1_556 S
O183 C200 1.268 . S
O184 Eu136 2.291 . S
O184 C199 1.255 . S
O185 Eu147 2.372 . S
O185 C199 1.257 . S
O186 Eu147 2.462 . S
O186 C211 1.252 . S
O187 Eu147 2.373 . S
O187 C203 1.249 1_554 S
O188 Eu136 2.335 1_556 S
O188 C203 1.264 . S
O189 Eu147 2.432 . S
O189 C211 1.268 . S
O190 Eu147 2.291 . S
O190 C210 1.255 . S
O191 Eu136 2.372 . S
O191 C210 1.257 . S
C192 O181 1.249 . S
C192 O182 1.264 . S
C193 C196 1.382 . S
C193 C198 1.390 . S
C193 C200 1.506 . S
C194 C195 1.398 . S
C194 C198 1.392 . S
C195 C194 1.398 . S
C195 C197 1.372 . S
C195 H212 0.931 . S
C196 C193 1.382 . S
C196 C197 1.390 . S
C196 H213 0.931 . S
C197 C195 1.372 . S
C197 C196 1.390 . S
C197 H214 0.929 . S
C198 C193 1.390 . S
C198 C194 1.392 . S
C198 H215 0.930 . S
C199 O184 1.255 . S
C199 O185 1.257 . S
C200 Eu136 2.787 1_556 S
C200 O180 1.252 . S
C200 O183 1.268 . S
C200 C193 1.506 . S
C201 C168 1.439 . S
C201 H178 0.931 . S
C201 C202 1.374 . S
C202 C173 1.387 . S
C202 H179 0.931 . S
C202 C201 1.374 . S
C203 O187 1.249 1_556 S
C203 O188 1.264 . S
C204 C207 1.382 . S
C204 C208 1.390 . S
C204 C211 1.506 . S
C205 C206 1.398 . S
C205 C208 1.392 . S
C206 C205 1.398 . S
C206 C209 1.372 . S
C206 H216 0.931 . S
C207 C204 1.382 . S
C207 C209 1.390 . S
C207 H217 0.931 . S
C208 C204 1.390 . S
C208 C205 1.392 . S
C208 H218 0.930 . S
C209 C206 1.372 . S
C209 C207 1.390 . S
C209 H219 0.929 . S
C210 O190 1.255 . S
C210 O191 1.257 . S
C211 Eu147 2.787 . S
C211 O186 1.252 . S
C211 O189 1.268 . S
C211 C204 1.506 . S
H212 C195 0.931 . S
H213 C196 0.931 . S
H214 C197 0.929 . S
H215 C198 0.930 . S
H216 C206 0.931 . S
H217 C207 0.931 . S
H218 C208 0.930 . S
H219 C209 0.929 . S
C220 C221 1.363 . S
C220 C226 1.379 . S
C220 N228 1.356 . S
C221 C220 1.363 . S
C221 C227 1.363 . S
C222 C223 1.363 . S
C222 C227 1.379 . S
C222 N229 1.356 . S
C223 C222 1.363 . S
C223 C226 1.363 . S
N224 C226 1.356 . S
N224 H236 0.984 . S
N224 H237 0.985 . S
N225 C227 1.356 . S
N225 H230 0.984 . S
N225 H231 0.985 . S
C226 C220 1.379 . S
C226 C223 1.363 . S
C226 N224 1.356 . S
C227 C221 1.363 . S
C227 C222 1.379 . S
C227 N225 1.356 . S
N228 C220 1.356 . S
N228 H234 0.984 . S
N228 H235 0.984 . S
N229 C222 1.356 . S
N229 H232 0.984 . S
N229 H233 0.985 . S
H230 N225 0.984 . S
H231 N225 0.985 . S
H232 N229 0.984 . S
H233 N229 0.985 . S
H234 N228 0.984 . S
H235 N228 0.984 . S
H236 N224 0.984 . S
H237 N224 0.985 . S
C238 C239 1.363 1_556 S
C238 C244 1.379 . S
C238 N246 1.356 . S
C239 C238 1.363 1_554 S
C239 C245 1.363 . S
C240 C241 1.363 . S
C240 C245 1.379 . S
C240 N247 1.356 . S
C241 C240 1.363 . S
C241 C244 1.363 1_554 S
N242 C244 1.356 . S
N242 H254 0.984 . S
N242 H255 0.985 . S
N243 C245 1.356 . S
N243 H248 0.984 . S
N243 H249 0.985 . S
C244 C238 1.379 . S
C244 C241 1.363 1_556 S
C244 N242 1.356 . S
C245 C239 1.363 . S
C245 C240 1.379 . S
C245 N243 1.356 . S
N246 C238 1.356 . S
N246 H252 0.984 . S
N246 H253 0.984 . S
N247 C240 1.356 . S
N247 H250 0.984 . S
N247 H251 0.985 . S
H248 N243 0.984 . S
H249 N243 0.985 . S
H250 N247 0.984 . S
H251 N247 0.985 . S
H252 N246 0.984 . S
H253 N246 0.984 . S
H254 N242 0.984 . S
H255 N242 0.985 . S
C256 C257 1.363 . S
C256 C262 1.379 . S
C256 N264 1.356 . S
C257 C256 1.363 . S
C257 C263 1.363 . S
C258 C259 1.363 . S
C258 C263 1.379 . S
C258 N265 1.356 . S
C259 C258 1.363 . S
C259 C262 1.363 . S
N260 C262 1.356 . S
N260 H272 0.984 . S
N260 H273 0.985 . S
N261 C263 1.356 . S
N261 H266 0.984 . S
N261 H267 0.985 . S
C262 C256 1.379 . S
C262 C259 1.363 . S
C262 N260 1.356 . S
C263 C257 1.363 . S
C263 C258 1.379 . S
C263 N261 1.356 . S
N264 C256 1.356 . S
N264 H270 0.984 . S
N264 H271 0.984 . S
N265 C258 1.356 . S
N265 H268 0.984 . S
N265 H269 0.985 . S
H266 N261 0.984 . S
H267 N261 0.985 . S
H268 N265 0.984 . S
H269 N265 0.985 . S
H270 N264 0.984 . S
H271 N264 0.984 . S
H272 N260 0.984 . S
H273 N260 0.985 . S
C274 C275 1.363 . S
C274 C280 1.379 . S
C274 N282 1.356 . S
C275 C274 1.363 . S
C275 C281 1.363 . S
C276 C277 1.363 . S
C276 C281 1.379 . S
C276 N283 1.356 1_554 S
C277 C276 1.363 . S
C277 C280 1.363 . S
N278 C280 1.356 . S
N278 H290 0.984 . S
N278 H291 0.985 . S
N279 C281 1.356 1_556 S
N279 H284 0.984 1_556 S
N279 H285 0.985 . S
C280 C274 1.379 . S
C280 C277 1.363 . S
C280 N278 1.356 . S
C281 C275 1.363 . S
C281 C276 1.379 . S
C281 N279 1.356 1_554 S
N282 C274 1.356 . S
N282 H288 0.984 . S
N282 H289 0.984 . S
N283 C276 1.356 1_556 S
N283 H286 0.984 1_556 S
N283 H287 0.985 . S
H284 N279 0.984 1_554 S
H285 N279 0.985 . S
H286 N283 0.984 1_554 S
H287 N283 0.985 . S
H288 N282 0.984 . S
H289 N282 0.984 . S
H290 N278 0.984 . S
H291 N278 0.985 . S
C292 C293 1.363 . S
C292 C298 1.379 . S
C292 N300 1.356 . S
C293 C292 1.363 . S
C293 C299 1.363 . S
C294 C295 1.363 . S
C294 C299 1.379 . S
C294 N301 1.356 . S
C295 C294 1.363 . S
C295 C298 1.363 . S
N296 C298 1.356 . S
N296 H308 0.984 1_565 S
N296 H309 0.985 1_565 S
N297 C299 1.356 . S
N297 H302 0.984 . S
N297 H303 0.985 . S
C298 C292 1.379 . S
C298 C295 1.363 . S
C298 N296 1.356 . S
C299 C293 1.363 . S
C299 C294 1.379 . S
C299 N297 1.356 . S
N300 C292 1.356 . S
N300 H306 0.984 . S
N300 H307 0.984 . S
N301 C294 1.356 . S
N301 H304 0.984 . S
N301 H305 0.985 . S
H302 N297 0.984 . S
H303 N297 0.985 . S
H304 N301 0.984 . S
H305 N301 0.985 . S
H306 N300 0.984 . S
H307 N300 0.984 . S
H308 N296 0.984 1_545 S
H309 N296 0.985 1_545 S
C310 C311 1.363 . S
C310 C316 1.379 . S
C310 N318 1.356 . S
C311 C310 1.363 . S
C311 C317 1.363 . S
C312 C313 1.363 . S
C312 C317 1.379 . S
C312 N319 1.356 . S
C313 C312 1.363 . S
C313 C316 1.363 . S
N314 C316 1.356 . S
N314 H326 0.984 . S
N314 H327 0.985 . S
N315 C317 1.356 . S
N315 H320 0.984 . S
N315 H321 0.985 . S
C316 C310 1.379 . S
C316 C313 1.363 . S
C316 N314 1.356 . S
C317 C311 1.363 . S
C317 C312 1.379 . S
C317 N315 1.356 . S
N318 C310 1.356 . S
N318 H324 0.984 . S
N318 H325 0.984 . S
N319 C312 1.356 . S
N319 H322 0.984 . S
N319 H323 0.985 . S
H320 N315 0.984 . S
H321 N315 0.985 . S
H322 N319 0.984 . S
H323 N319 0.985 . S
H324 N318 0.984 . S
H325 N318 0.984 . S
H326 N314 0.984 . S
H327 N314 0.985 . S
C328 C329 1.363 . S
C328 C334 1.379 . S
C328 N336 1.356 . S
C329 C328 1.363 . S
C329 C335 1.363 . S
C330 C331 1.363 . S
C330 C335 1.379 . S
C330 N337 1.356 1_545 S
C331 C330 1.363 . S
C331 C334 1.363 . S
N332 C334 1.356 . S
N332 H344 0.984 . S
N332 H345 0.985 . S
N333 C335 1.356 . S
N333 H338 0.984 . S
N333 H339 0.985 . S
C334 C328 1.379 . S
C334 C331 1.363 . S
C334 N332 1.356 . S
C335 C329 1.363 . S
C335 C330 1.379 . S
C335 N333 1.356 . S
N336 C328 1.356 . S
N336 H342 0.984 . S
N336 H343 0.984 . S
N337 C330 1.356 1_565 S
N337 H340 0.984 . S
N337 H341 0.985 . S
H338 N333 0.984 . S
H339 N333 0.985 . S
H340 N337 0.984 . S
H341 N337 0.985 . S
H342 N336 0.984 . S
H343 N336 0.984 . S
H344 N332 0.984 . S
H345 N332 0.985 . S
C346 C347 1.363 . S
C346 C352 1.379 . S
C346 N354 1.356 . S
C347 C346 1.363 . S
C347 C353 1.363 . S
C348 C349 1.363 . S
C348 C353 1.379 . S
C348 N355 1.356 . S
C349 C348 1.363 . S
C349 C352 1.363 . S
N350 C352 1.356 . S
N350 H362 0.984 . S
N350 H363 0.985 . S
N351 C353 1.356 . S
N351 H356 0.984 . S
N351 H357 0.985 . S
C352 C346 1.379 . S
C352 C349 1.363 . S
C352 N350 1.356 . S
C353 C347 1.363 . S
C353 C348 1.379 . S
C353 N351 1.356 . S
N354 C346 1.356 . S
N354 H360 0.984 . S
N354 H361 0.984 . S
N355 C348 1.356 . S
N355 H358 0.984 . S
N355 H359 0.985 . S
H356 N351 0.984 . S
H357 N351 0.985 . S
H358 N355 0.984 . S
H359 N355 0.985 . S
H360 N354 0.984 . S
H361 N354 0.984 . S
H362 N350 0.984 . S
H363 N350 0.985 . S
C364 C365 1.363 . S
C364 C370 1.379 . S
C364 N372 1.356 . S
C365 C364 1.363 . S
C365 C371 1.363 . S
C366 C367 1.363 . S
C366 C371 1.379 . S
C366 N373 1.356 . S
C367 C366 1.363 . S
C367 C370 1.363 . S
N368 C370 1.356 . S
N368 H380 0.984 . S
N368 H381 0.985 . S
N369 C371 1.356 . S
N369 H374 0.984 . S
N369 H375 0.985 . S
C370 C364 1.379 . S
C370 C367 1.363 . S
C370 N368 1.356 . S
C371 C365 1.363 . S
C371 C366 1.379 . S
C371 N369 1.356 . S
N372 C364 1.356 . S
N372 H378 0.984 . S
N372 H379 0.984 . S
N373 C366 1.356 . S
N373 H376 0.984 . S
N373 H377 0.985 . S
H374 N369 0.984 . S
H375 N369 0.985 . S
H376 N373 0.984 . S
H377 N373 0.985 . S
H378 N372 0.984 . S
H379 N372 0.984 . S
H380 N368 0.984 . S
H381 N368 0.985 . S
C382 C383 1.363 . S
C382 C388 1.379 . S
C382 N390 1.356 . S
C383 C382 1.363 . S
C383 C389 1.363 1_554 S
C384 C385 1.363 . S
C384 C389 1.379 . S
C384 N391 1.356 . S
C385 C384 1.363 . S
C385 C388 1.363 1_556 S
N386 C388 1.356 1_556 S
N386 H398 0.984 1_556 S
N386 H399 0.985 . S
N387 C389 1.356 . S
N387 H392 0.984 1_556 S
N387 H393 0.985 . S
C388 C382 1.379 . S
C388 C385 1.363 1_554 S
C388 N386 1.356 1_554 S
C389 C383 1.363 1_556 S
C389 C384 1.379 . S
C389 N387 1.356 . S
N390 C382 1.356 . S
N390 H396 0.984 . S
N390 H397 0.984 . S
N391 C384 1.356 . S
N391 H394 0.984 . S
N391 H395 0.985 . S
H392 N387 0.984 1_554 S
H393 N387 0.985 . S
H394 N391 0.984 . S
H395 N391 0.985 . S
H396 N390 0.984 . S
H397 N390 0.984 . S
H398 N386 0.984 1_554 S
H399 N386 0.985 . S
C400 C401 1.363 . S
C400 C406 1.379 . S
C400 N408 1.356 . S
C401 C400 1.363 . S
C401 C407 1.363 . S
C402 C403 1.363 . S
C402 C407 1.379 . S
C402 N409 1.356 . S
C403 C402 1.363 . S
C403 C406 1.363 . S
N404 C406 1.356 . S
N404 H416 0.984 . S
N404 H417 0.985 . S
N405 C407 1.356 . S
N405 H410 0.984 . S
N405 H411 0.985 . S
C406 C400 1.379 . S
C406 C403 1.363 . S
C406 N404 1.356 . S
C407 C401 1.363 . S
C407 C402 1.379 . S
C407 N405 1.356 . S
N408 C400 1.356 . S
N408 H414 0.984 . S
N408 H415 0.984 . S
N409 C402 1.356 . S
N409 H412 0.984 . S
N409 H413 0.985 . S
H410 N405 0.984 . S
H411 N405 0.985 . S
H412 N409 0.984 . S
H413 N409 0.985 . S
H414 N408 0.984 . S
H415 N408 0.984 . S
H416 N404 0.984 . S
H417 N404 0.985 . S
C418 C419 1.363 . S
C418 C424 1.379 . S
C418 N426 1.356 . S
C419 C418 1.363 . S
C419 C425 1.363 . S
C420 C421 1.363 . S
C420 C425 1.379 . S
C420 N427 1.343 1_565 S
C421 C420 1.363 . S
C421 C424 1.363 . S
N422 C424 1.356 . S
N422 H434 0.984 . S
N422 H435 0.985 . S
N423 C425 1.356 . S
N423 H428 0.984 1_556 S
N423 H429 0.985 . S
C424 C418 1.379 . S
C424 C421 1.363 . S
C424 N422 1.356 . S
C425 C419 1.363 . S
C425 C420 1.379 . S
C425 N423 1.356 . S
N426 C418 1.356 . S
N426 H432 0.984 . S
N426 H433 0.984 . S
N427 C420 1.343 1_545 S
N427 H430 0.981 . S
N427 H431 1.002 . S
H428 N423 0.984 1_554 S
H429 N423 0.985 . S
H430 N427 0.981 . S
H431 N427 1.002 . S
H432 N426 0.984 . S
H433 N426 0.984 . S
H434 N422 0.984 . S
H435 N422 0.985 . S
C223 C115 1.640 . S
C221 N41 1.670 . S
C239 N2 1.610 . S
C241 C210 1.604 . S
C257 N15 1.664 . S
C259 C126 1.640 . S
C275 N28 1.602 . S
C277 C199 1.604 . S
C295 C110 1.372 . S
C293 N5 1.591 . S
C313 C203 1.652 . S
C311 N14 1.646 . S
C329 N27 1.568 . S
C331 C119 1.610 . S
C347 N44 1.577 . S
C349 C194 1.408 . S
C367 C205 1.408 . S
C365 N18 1.576 . S
C385 C121 1.372 . S
C383 N31 1.590 . S
C403 C192 1.652 . S
C401 N40 1.656 . S
C419 N1 1.589 . S
C421 C108 1.610 . S
