# Generated by pormake.
# Topology ctn, (3,4)-cn, num edge types: 1
# Building blocks:
#     Node 0, Type 0, BuildingBlock: QEWDON_clean_linker_0, # of connection points: 3
#     Node 1, Type 0, BuildingBlock: QEWDON_clean_linker_0, # of connection points: 3
#     Node 2, Type 0, BuildingBlock: QEWDON_clean_linker_0, # of connection points: 3
#     Node 3, Type 0, BuildingBlock: QEWDON_clean_linker_0, # of connection points: 3
#     Node 4, Type 0, BuildingBlock: QEWDON_clean_linker_0, # of connection points: 3
#     Node 5, Type 0, BuildingBlock: QEWDON_clean_linker_0, # of connection points: 3
#     Node 6, Type 0, BuildingBlock: QEWDON_clean_linker_0, # of connection points: 3
#     Node 7, Type 0, BuildingBlock: QEWDON_clean_linker_0, # of connection points: 3
#     Node 8, Type 0, BuildingBlock: QEWDON_clean_linker_0, # of connection points: 3
#     Node 9, Type 0, BuildingBlock: QEWDON_clean_linker_0, # of connection points: 3
#     Node 10, Type 0, BuildingBlock: QEWDON_clean_linker_0, # of connection points: 3
#     Node 11, Type 0, BuildingBlock: QEWDON_clean_linker_0, # of connection points: 3
#     Node 12, Type 0, BuildingBlock: QEWDON_clean_linker_0, # of connection points: 3
#     Node 13, Type 0, BuildingBlock: QEWDON_clean_linker_0, # of connection points: 3
#     Node 14, Type 0, BuildingBlock: QEWDON_clean_linker_0, # of connection points: 3
#     Node 15, Type 0, BuildingBlock: QEWDON_clean_linker_0, # of connection points: 3
#     Node 16, Type 1, BuildingBlock: KUFVIS_clean_sbu_0, # of connection points: 4
#     Node 17, Type 1, BuildingBlock: KUFVIS_clean_sbu_0, # of connection points: 4
#     Node 18, Type 1, BuildingBlock: KUFVIS_clean_sbu_0, # of connection points: 4
#     Node 19, Type 1, BuildingBlock: KUFVIS_clean_sbu_0, # of connection points: 4
#     Node 20, Type 1, BuildingBlock: KUFVIS_clean_sbu_0, # of connection points: 4
#     Node 21, Type 1, BuildingBlock: KUFVIS_clean_sbu_0, # of connection points: 4
#     Node 22, Type 1, BuildingBlock: KUFVIS_clean_sbu_0, # of connection points: 4
#     Node 23, Type 1, BuildingBlock: KUFVIS_clean_sbu_0, # of connection points: 4
#     Node 24, Type 1, BuildingBlock: KUFVIS_clean_sbu_0, # of connection points: 4
#     Node 25, Type 1, BuildingBlock: KUFVIS_clean_sbu_0, # of connection points: 4
#     Node 26, Type 1, BuildingBlock: KUFVIS_clean_sbu_0, # of connection points: 4
#     Node 27, Type 1, BuildingBlock: KUFVIS_clean_sbu_0, # of connection points: 4
#     Edge 28, Type (0, 1), BuildingBlock: EZIPEK_clean_linker_0, # of connection points: 2
#     Edge 29, Type (0, 1), BuildingBlock: EZIPEK_clean_linker_0, # of connection points: 2
#     Edge 30, Type (0, 1), BuildingBlock: EZIPEK_clean_linker_0, # of connection points: 2
#     Edge 31, Type (0, 1), BuildingBlock: EZIPEK_clean_linker_0, # of connection points: 2
#     Edge 32, Type (0, 1), BuildingBlock: EZIPEK_clean_linker_0, # of connection points: 2
#     Edge 33, Type (0, 1), BuildingBlock: EZIPEK_clean_linker_0, # of connection points: 2
#     Edge 34, Type (0, 1), BuildingBlock: EZIPEK_clean_linker_0, # of connection points: 2
#     Edge 35, Type (0, 1), BuildingBlock: EZIPEK_clean_linker_0, # of connection points: 2
#     Edge 36, Type (0, 1), BuildingBlock: EZIPEK_clean_linker_0, # of connection points: 2
#     Edge 37, Type (0, 1), BuildingBlock: EZIPEK_clean_linker_0, # of connection points: 2
#     Edge 38, Type (0, 1), BuildingBlock: EZIPEK_clean_linker_0, # of connection points: 2
#     Edge 39, Type (0, 1), BuildingBlock: EZIPEK_clean_linker_0, # of connection points: 2
#     Edge 40, Type (0, 1), BuildingBlock: EZIPEK_clean_linker_0, # of connection points: 2
#     Edge 41, Type (0, 1), BuildingBlock: EZIPEK_clean_linker_0, # of connection points: 2
#     Edge 42, Type (0, 1), BuildingBlock: EZIPEK_clean_linker_0, # of connection points: 2
#     Edge 43, Type (0, 1), BuildingBlock: EZIPEK_clean_linker_0, # of connection points: 2
#     Edge 44, Type (0, 1), BuildingBlock: EZIPEK_clean_linker_0, # of connection points: 2
#     Edge 45, Type (0, 1), BuildingBlock: EZIPEK_clean_linker_0, # of connection points: 2
#     Edge 46, Type (0, 1), BuildingBlock: EZIPEK_clean_linker_0, # of connection points: 2
#     Edge 47, Type (0, 1), BuildingBlock: EZIPEK_clean_linker_0, # of connection points: 2
#     Edge 48, Type (0, 1), BuildingBlock: EZIPEK_clean_linker_0, # of connection points: 2
#     Edge 49, Type (0, 1), BuildingBlock: EZIPEK_clean_linker_0, # of connection points: 2
#     Edge 50, Type (0, 1), BuildingBlock: EZIPEK_clean_linker_0, # of connection points: 2
#     Edge 51, Type (0, 1), BuildingBlock: EZIPEK_clean_linker_0, # of connection points: 2
#     Edge 52, Type (0, 1), BuildingBlock: EZIPEK_clean_linker_0, # of connection points: 2
#     Edge 53, Type (0, 1), BuildingBlock: EZIPEK_clean_linker_0, # of connection points: 2
#     Edge 54, Type (0, 1), BuildingBlock: EZIPEK_clean_linker_0, # of connection points: 2
#     Edge 55, Type (0, 1), BuildingBlock: EZIPEK_clean_linker_0, # of connection points: 2
#     Edge 56, Type (0, 1), BuildingBlock: EZIPEK_clean_linker_0, # of connection points: 2
#     Edge 57, Type (0, 1), BuildingBlock: EZIPEK_clean_linker_0, # of connection points: 2
#     Edge 58, Type (0, 1), BuildingBlock: EZIPEK_clean_linker_0, # of connection points: 2
#     Edge 59, Type (0, 1), BuildingBlock: EZIPEK_clean_linker_0, # of connection points: 2
#     Edge 60, Type (0, 1), BuildingBlock: EZIPEK_clean_linker_0, # of connection points: 2
#     Edge 61, Type (0, 1), BuildingBlock: EZIPEK_clean_linker_0, # of connection points: 2
#     Edge 62, Type (0, 1), BuildingBlock: EZIPEK_clean_linker_0, # of connection points: 2
#     Edge 63, Type (0, 1), BuildingBlock: EZIPEK_clean_linker_0, # of connection points: 2
#     Edge 64, Type (0, 1), BuildingBlock: EZIPEK_clean_linker_0, # of connection points: 2
#     Edge 65, Type (0, 1), BuildingBlock: EZIPEK_clean_linker_0, # of connection points: 2
#     Edge 66, Type (0, 1), BuildingBlock: EZIPEK_clean_linker_0, # of connection points: 2
#     Edge 67, Type (0, 1), BuildingBlock: EZIPEK_clean_linker_0, # of connection points: 2
#     Edge 68, Type (0, 1), BuildingBlock: EZIPEK_clean_linker_0, # of connection points: 2
#     Edge 69, Type (0, 1), BuildingBlock: EZIPEK_clean_linker_0, # of connection points: 2
#     Edge 70, Type (0, 1), BuildingBlock: EZIPEK_clean_linker_0, # of connection points: 2
#     Edge 71, Type (0, 1), BuildingBlock: EZIPEK_clean_linker_0, # of connection points: 2
#     Edge 72, Type (0, 1), BuildingBlock: EZIPEK_clean_linker_0, # of connection points: 2
#     Edge 73, Type (0, 1), BuildingBlock: EZIPEK_clean_linker_0, # of connection points: 2
#     Edge 74, Type (0, 1), BuildingBlock: EZIPEK_clean_linker_0, # of connection points: 2
#     Edge 75, Type (0, 1), BuildingBlock: EZIPEK_clean_linker_0, # of connection points: 2
# Relax obj value: 0.131
# Max RMSD: 0.267
# Mean RMSD: 0.158
data_MOF--net-ctn--node1-KUFVIS_clean_sbu_0--node2-QEWDON_clean_linker_0--edge1-EZIPEK_clean_linker_0
_symmetry_space_group_name_H-M    P1
_symmetry_Int_Tables_number       1
_symmetry_cell_setting            triclinic
loop_
_symmetry_equiv_pos_as_xyz
'x, y, z'
_cell_length_a     37.830386
_cell_length_b     39.522524
_cell_length_c     42.581768
_cell_angle_alpha  100.06838
_cell_angle_beta   92.558643
_cell_angle_gamma 97.346074
loop_
_atom_site_label
_atom_site_type_symbol
_atom_site_fract_x
_atom_site_fract_y
_atom_site_fract_z
_atom_type_partial_charge
H0 H 0.12431 0.03585 0.04792 0.0
C1 C 0.10807 0.02924 0.06688 0.0
C2 C 0.10928 0.9971 0.0769 0.0
C3 C 0.08759 0.0536 0.08258 0.0
H4 H 0.09043 0.96518 0.11102 0.0
C5 C 0.08913 0.98941 0.10272 0.0
C6 C 0.0684 0.01369 0.11855 0.0
C7 C 0.06766 0.04516 0.10788 0.0
C8 C 0.0888 0.08942 0.07553 0.0
H9 H 0.05179 0.06376 0.12006 0.0
C10 C 0.08194 0.0961 0.04439 0.0
C11 C 0.07792 0.13019 0.03993 0.0
C12 C 0.09406 0.11746 0.10145 0.0
H13 H 0.10021 0.11333 0.12548 0.0
C14 C 0.09055 0.15093 0.09703 0.0
H15 H 0.0784 0.07494 0.02407 0.0
C16 C 0.08191 0.15718 0.0667 0.0
H17 H 0.07879 0.18342 0.064 0.0
H18 H 0.0941 0.17208 0.11732 0.0
H19 H 0.39515 0.74307 0.25552 0.0
C20 C 0.37541 0.72027 0.24964 0.0
C21 C 0.38168 0.68823 0.25803 0.0
C22 C 0.34309 0.72447 0.23441 0.0
H23 H 0.352 0.6398 0.26625 0.0
C24 C 0.35135 0.66255 0.25562 0.0
C25 C 0.31833 0.66674 0.24098 0.0
C26 C 0.31478 0.69736 0.22952 0.0
C27 C 0.3385 0.75856 0.22617 0.0
H28 H 0.28933 0.70085 0.21864 0.0
C29 C 0.3346 0.76287 0.19411 0.0
C30 C 0.33172 0.79595 0.1869 0.0
C31 C 0.33968 0.78744 0.25081 0.0
H32 H 0.34278 0.7846 0.27558 0.0
C33 C 0.3368 0.82015 0.2437 0.0
H34 H 0.33398 0.74076 0.17492 0.0
C35 C 0.33285 0.82444 0.21196 0.0
H36 H 0.33053 0.85003 0.20689 0.0
H37 H 0.33765 0.84227 0.26286 0.0
H38 H 0.05593 0.48619 0.07003 0.0
C39 C 0.03472 0.50041 0.0638 0.0
C40 C 0.02079 0.52295 0.08794 0.0
C41 C 0.02488 0.49912 0.03156 0.0
H42 H 0.98325 0.56006 0.0975 0.0
C43 C 0.994 0.54225 0.07928 0.0
C44 C 0.98221 0.53942 0.04672 0.0
C45 C 0.99848 0.51838 0.0231 0.0
C46 C 0.04703 0.48278 1.00721 0.0
H47 H 0.99121 0.51771 0.99805 0.0
C48 C 0.04433 0.4465 0.99839 0.0
C49 C 0.0678 0.43166 0.97696 0.0
C50 C 0.07335 0.504 0.99469 0.0
H51 H 0.07607 0.53198 1.0016 0.0
C52 C 0.09698 0.48929 0.97387 0.0
H53 H 0.02396 0.42996 1.00787 0.0
C54 C 0.09436 0.45332 0.96511 0.0
H55 H 0.11257 0.4423 0.94854 0.0
H56 H 0.11737 0.50583 0.96449 0.0
H57 H 0.74919 0.86762 0.21886 0.0
C58 C 0.75777 0.8513 0.19821 0.0
C59 C 0.79173 0.85989 0.18716 0.0
C60 C 0.73473 0.82188 0.18257 0.0
H61 H 0.82754 0.84574 0.15031 0.0
C62 C 0.80178 0.8391 0.15949 0.0
C63 C 0.77817 0.81066 0.14279 0.0
C64 C 0.74508 0.80179 0.15486 0.0
C65 C 0.69901 0.81276 0.19401 0.0
H66 H 0.72706 0.77954 0.14221 0.0
C67 C 0.69511 0.80628 0.22527 0.0
C68 C 0.66106 0.79506 0.23477 0.0
C69 C 0.66857 0.80889 0.17285 0.0
H70 H 0.67101 0.81382 0.14874 0.0
C71 C 0.63479 0.79858 0.18258 0.0
H72 H 0.71841 0.80875 0.24169 0.0
C73 C 0.63102 0.79152 0.2133 0.0
H74 H 0.60464 0.78302 0.22032 0.0
H75 H 0.61148 0.79569 0.16613 0.0
H76 H 0.12898 0.98869 0.50704 0.0
C77 C 0.11125 0.9962 0.4896 0.0
C78 C 0.12181 0.02648 0.4768 0.0
C79 C 0.07907 0.97424 0.47777 0.0
H80 H 0.10784 0.05718 0.4425 0.0
C81 C 0.09958 0.03471 0.45274 0.0
C82 C 0.0683 0.01278 0.43992 0.0
C83 C 0.05785 0.98323 0.45314 0.0
C84 C 0.0704 0.93852 0.48533 0.0
H85 H 0.03396 0.96597 0.44286 0.0
C86 C 0.06422 0.93152 0.51647 0.0
C87 C 0.05322 0.89684 0.52077 0.0
C88 C 0.06632 0.9105 0.45941 0.0
H89 H 0.0712 0.91482 0.43544 0.0
C90 C 0.05563 0.87672 0.46373 0.0
H91 H 0.06753 0.95256 0.53687 0.0
C92 C 0.04896 0.86996 0.49402 0.0
H93 H 0.04092 0.84336 0.49673 0.0
H94 H 0.05249 0.85561 0.44341 0.0
H95 H 0.30802 0.67338 0.79048 0.0
C96 C 0.30135 0.68745 0.81318 0.0
C97 C 0.31651 0.68049 0.84168 0.0
C98 C 0.2781 0.71252 0.81345 0.0
H99 H 0.32048 0.69532 0.89341 0.0
C100 C 0.30833 0.69972 0.87124 0.0
C101 C 0.28495 0.72531 0.87187 0.0
C102 C 0.26943 0.73056 0.8428 0.0
C103 C 0.26604 0.72234 0.78296 0.0
H104 H 0.2518 0.75003 0.84302 0.0
C105 C 0.22977 0.72462 0.77531 0.0
C106 C 0.21948 0.73414 0.74614 0.0
C107 C 0.2916 0.73022 0.76141 0.0
H108 H 0.31964 0.72914 0.76687 0.0
C109 C 0.28145 0.74014 0.73286 0.0
H110 H 0.20968 0.71843 0.79155 0.0
C111 C 0.24566 0.74207 0.72522 0.0
H112 H 0.23825 0.74948 0.70276 0.0
H113 H 0.30142 0.74626 0.71653 0.0
H114 H 0.03146 0.58138 0.51537 0.0
C115 C 1.00345 0.57095 0.51111 0.0
C116 C 0.97693 0.58859 0.52699 0.0
C117 C 0.99417 0.53923 0.48972 0.0
H118 H 0.91916 0.58479 0.53056 0.0
C119 C 0.94106 0.57199 0.52119 0.0
C120 C 0.9332 0.53721 0.50565 0.0
C121 C 0.95943 0.52176 0.48847 0.0
C122 C 0.02115 0.52194 0.47111 0.0
H123 H 0.95309 0.4955 0.47509 0.0
C124 C 0.03163 0.53138 0.442 0.0
C125 C 0.0541 0.5118 0.42278 0.0
C126 C 0.03369 0.4933 0.48094 0.0
H127 H 0.02555 0.4854 0.50295 0.0
C128 C 0.05625 0.47426 0.46222 0.0
H129 H 0.02178 0.55324 0.43402 0.0
C130 C 0.06626 0.48328 0.4333 0.0
H131 H 0.08365 0.46801 0.41906 0.0
H132 H 0.06575 0.45216 0.47 0.0
H133 H 0.87067 0.8536 0.80364 0.0
C134 C 0.86941 0.83365 0.81825 0.0
C135 C 0.8929 0.80837 0.81338 0.0
C136 C 0.84513 0.83382 0.84245 0.0
H137 H 0.91072 0.76452 0.83064 0.0
C138 C 0.8923 0.78353 0.83367 0.0
C139 C 0.86833 0.78329 0.85805 0.0
C140 C 0.84462 0.80813 0.86175 0.0
C141 C 0.82255 0.86237 0.85017 0.0
H142 H 0.82607 0.80782 0.88042 0.0
C143 C 0.80233 0.87446 0.82651 0.0
C144 C 0.78055 0.90079 0.8356 0.0
C145 C 0.82106 0.87763 0.88246 0.0
H146 H 0.83669 0.86967 0.90114 0.0
C147 C 0.79976 0.9035 0.89125 0.0
H148 H 0.80309 0.86328 0.80148 0.0
C149 C 0.77956 0.9149 0.86808 0.0
H150 H 0.76324 0.9351 0.87551 0.0
H151 H 0.79895 0.91485 0.91621 0.0
H152 H 0.36562 0.33728 0.29606 0.0
C153 C 0.36743 0.32163 0.31441 0.0
C154 C 0.39424 0.2996 0.31407 0.0
C155 C 0.34417 0.32497 0.3394 0.0
H156 H 0.41747 0.2643 0.34041 0.0
C157 C 0.39642 0.28032 0.33927 0.0
C158 C 0.37067 0.28035 0.36227 0.0
C159 C 0.34468 0.30262 0.36172 0.0
C160 C 0.32262 0.35441 0.34555 0.0
H161 H 0.32545 0.30365 0.3799 0.0
C162 C 0.30153 0.36461 0.32139 0.0
C163 C 0.2814 0.39244 0.32935 0.0
C164 C 0.32374 0.37306 0.37708 0.0
H165 H 0.34028 0.36667 0.39605 0.0
C166 C 0.30401 0.40039 0.38471 0.0
H167 H 0.30037 0.35092 0.29692 0.0
C168 C 0.28288 0.40994 0.3611 0.0
H169 H 0.26777 0.43135 0.36757 0.0
H170 H 0.30518 0.41432 0.40909 0.0
H171 H 0.56079 0.99426 0.56201 0.0
C172 C 0.53807 1.00736 0.55747 0.0
C173 C 0.52429 0.02808 0.58302 0.0
C174 C 0.52553 1.00633 0.5259 0.0
H175 H 0.48472 0.06233 0.59595 0.0
C176 C 0.49538 0.04591 0.57659 0.0
C177 C 0.4813 0.04346 0.54475 0.0
C178 C 0.49708 0.02417 0.51963 0.0
C179 C 0.54592 0.99099 0.49967 0.0
H180 H 0.4877 0.02366 0.49509 0.0
C181 C 0.54428 0.95486 0.49081 0.0
C182 C 0.56571 0.94082 0.46707 0.0
C183 C 0.5691 0.01296 0.48483 0.0
H184 H 0.57088 0.04088 0.49166 0.0
C185 C 0.59077 0.99905 0.46164 0.0
H186 H 0.52627 0.93778 0.50209 0.0
C187 C 0.58925 0.96316 0.45285 0.0
H188 H 0.60594 0.95272 0.43455 0.0
H189 H 0.60879 0.01613 0.45043 0.0
H190 H 0.27111 0.35562 0.73402 0.0
C191 C 0.27529 0.34296 0.71003 0.0
C192 C 0.29982 0.35944 0.69156 0.0
C193 C 0.26187 0.30784 0.70036 0.0
H194 H 0.32105 0.35465 0.6445 0.0
C195 C 0.30318 0.34253 0.65974 0.0
C196 C 0.28439 0.30912 0.64795 0.0
C197 C 0.2654 0.29155 0.66909 0.0
C198 C 0.25292 0.2861 0.72448 0.0
H199 H 0.25436 0.26445 0.6615 0.0
C200 C 0.22322 0.28965 0.74278 0.0
C201 C 0.21581 0.26798 0.76527 0.0
C202 C 0.27541 0.2615 0.72938 0.0
H203 H 0.29871 0.25873 0.71574 0.0
C204 C 0.26829 0.24051 0.75207 0.0
H205 H 0.20566 0.30844 0.73912 0.0
C206 C 0.23855 0.24363 0.76991 0.0
H207 H 0.23299 0.2268 0.78715 0.0
H208 H 0.28574 0.22166 0.75568 0.0
H209 H 0.90406 0.24668 0.74804 0.0
C210 C 0.88415 0.22409 0.74209 0.0
C211 C 0.88925 0.19234 0.75176 0.0
C212 C 0.85241 0.22844 0.72578 0.0
H213 H 0.8584 0.14477 0.76024 0.0
C214 C 0.85859 0.16715 0.74889 0.0
C215 C 0.82633 0.17134 0.73315 0.0
C216 C 0.82373 0.20158 0.72072 0.0
C217 C 0.84847 0.26271 0.71734 0.0
H218 H 0.79867 0.20514 0.7092 0.0
C219 C 0.84199 0.26668 0.68537 0.0
C220 C 0.83968 0.29992 0.67815 0.0
C221 C 0.85252 0.2921 0.74179 0.0
H222 H 0.85752 0.28963 0.76649 0.0
C223 C 0.85009 0.32487 0.73466 0.0
H224 H 0.83905 0.24424 0.66628 0.0
C225 C 0.84375 0.32881 0.70308 0.0
H226 H 0.84189 0.35449 0.69804 0.0
H227 H 0.85318 0.34732 0.75369 0.0
H228 H 0.62626 0.53668 0.54255 0.0
C229 C 0.61074 0.53213 0.56259 0.0
C230 C 0.61263 0.50176 0.57511 0.0
C231 C 0.59149 0.55793 0.57724 0.0
H232 H 0.59692 0.47456 0.6132 0.0
C233 C 0.59456 0.49738 0.6028 0.0
C234 C 0.57409 0.52274 0.61749 0.0
C235 C 0.57255 0.55275 0.60407 0.0
C236 C 0.59815 0.59296 0.56904 0.0
H237 H 0.55811 0.57298 0.61556 0.0
C238 C 0.5798 0.60223 0.54289 0.0
C239 C 0.5892 0.63529 0.5348 0.0
C240 C 0.62539 0.61688 0.58701 0.0
H241 H 0.63987 0.6101 0.60704 0.0
C242 C 0.63472 0.64938 0.57899 0.0
H243 H 0.55863 0.58397 0.52896 0.0
C244 C 0.61694 0.65849 0.55301 0.0
H245 H 0.62462 0.68393 0.54722 0.0
H246 H 0.65594 0.66754 0.59289 0.0
H247 H 0.64137 0.49406 0.01109 0.0
C248 C 0.62337 0.49892 0.99237 0.0
C249 C 0.63311 0.5271 0.97677 0.0
C250 C 0.59204 0.47529 0.98197 0.0
H251 H 0.6193 0.55164 0.93763 0.0
C252 C 0.61098 0.53154 0.95084 0.0
C253 C 0.57959 0.50868 0.94014 0.0
C254 C 0.57021 0.48061 0.95592 0.0
C255 C 0.58726 0.44083 0.99223 0.0
H256 H 0.5471 0.46174 0.94671 0.0
C257 C 0.57048 0.43454 0.02027 0.0
C258 C 0.567 0.4008 0.02821 0.0
C259 C 0.60026 0.41335 0.97272 0.0
H260 H 0.61317 0.4175 0.95122 0.0
C261 C 0.59695 0.38038 0.98059 0.0
H262 H 0.5602 0.45542 0.03556 0.0
C263 C 0.58051 0.37413 1.00804 0.0
H264 H 0.57821 0.34824 0.01359 0.0
H265 H 0.60718 0.3595 0.96529 0.0
H266 H 0.78839 0.16537 0.28633 0.0
C267 C 0.78265 0.18029 0.30897 0.0
C268 C 0.79975 0.17516 0.33738 0.0
C269 C 0.75886 0.20486 0.30921 0.0
H270 H 0.80674 0.19274 0.38872 0.0
C271 C 0.79297 0.19567 0.36671 0.0
C272 C 0.76929 0.2209 0.36729 0.0
C273 C 0.75174 0.22438 0.33844 0.0
C274 C 0.74538 0.2132 0.27855 0.0
H275 H 0.73397 0.24373 0.33856 0.0
C276 C 0.70856 0.2125 0.27071 0.0
C277 C 0.69706 0.22057 0.2412 0.0
C278 C 0.77022 0.22246 0.2569 0.0
H279 H 0.79861 0.22352 0.26252 0.0
C280 C 0.75885 0.2309 0.22802 0.0
H281 H 0.68906 0.20518 0.28706 0.0
C282 C 0.72255 0.22993 0.22017 0.0
H283 H 0.71423 0.23622 0.19744 0.0
H284 H 0.77827 0.23811 0.2116 0.0
H285 H 0.49134 0.0999 0.96979 0.0
C286 C 0.47435 0.08174 0.98077 0.0
C287 C 0.46561 0.0916 0.01278 0.0
C288 C 0.4592 0.04914 0.96263 0.0
H289 H 0.43269 0.07729 0.0492 0.0
C290 C 0.44146 0.06895 0.02596 0.0
C291 C 0.42682 0.03651 1.00869 0.0
C292 C 0.43678 0.02631 0.97763 0.0
C293 C 0.46248 0.0395 0.92732 0.0
H294 H 0.42524 1.00099 0.9645 0.0
C295 C 0.49486 0.04604 0.91248 0.0
C296 C 0.49639 0.03413 0.87921 0.0
C297 C 0.43187 0.02249 0.90798 0.0
H298 H 0.40619 0.01831 0.91799 0.0
C299 C 0.43361 1.01051 0.87548 0.0
H300 H 0.51859 0.05981 0.92653 0.0
C301 C 0.46564 0.01591 0.86125 0.0
H302 H 0.46626 1.00661 0.8358 0.0
H303 H 0.4099 0.99714 0.86119 0.0
Mn304 Mn 0.27037 0.86642 0.03141 0.0
Mn305 Mn 0.26165 0.89816 0.96336 0.0
C306 C 0.25622 0.8282 0.98204 0.0
C307 C 0.29975 0.84423 0.07133 0.0
C308 C 0.21102 0.90877 0.01745 0.0
O309 O 0.30134 0.91477 0.04178 0.0
O310 O 0.29794 0.93003 0.99287 0.0
C311 C 0.33294 0.89364 0.93817 0.0
N312 N 0.29686 0.88415 0.93477 0.0
C313 C 0.30075 0.84959 0.88293 0.0
C314 C 0.3379 0.8591 0.88582 0.0
C315 C 0.35407 0.88111 0.91363 0.0
C316 C 0.28108 0.86275 0.90825 0.0
H317 H 0.34554 0.91065 0.95944 0.0
C318 C 0.31098 0.9347 0.02183 0.0
O319 O 0.272 0.85972 0.07643 0.0
O320 O 0.31211 0.84282 0.0432 0.0
N321 N 0.22781 0.86811 0.93276 0.0
C322 C 0.1916 0.86256 0.93302 0.0
C323 C 0.17136 0.8407 0.90711 0.0
C324 C 0.18855 0.82547 0.88078 0.0
C325 C 0.22578 0.83256 0.88052 0.0
C326 C 0.24453 0.85425 0.90718 0.0
H327 H 0.1783 0.8752 0.95256 0.0
O328 O 0.24602 0.81914 1.0085 0.0
O329 O 0.271 0.86017 0.98539 0.0
O330 O 0.22397 0.88819 0.03312 0.0
O331 O 0.22338 0.91505 0.99122 0.0
C332 C 0.24497 0.81928 0.85467 0.0
C333 C 0.28245 0.82756 0.85593 0.0
H334 H 0.35428 0.8495 0.86692 0.0
H335 H 0.38276 0.88845 0.91612 0.0
H336 H 0.14256 0.83592 0.90727 0.0
H337 H 0.17288 0.80878 0.86072 0.0
H338 H 0.23114 0.80257 0.83374 0.0
H339 H 0.2969 0.81689 0.83598 0.0
Mn340 Mn 0.15989 0.51333 0.25192 0.0
Mn341 Mn 0.13393 0.59322 0.26485 0.0
C342 C 0.19625 0.56033 0.23862 0.0
C343 C 0.19057 0.47103 0.26924 0.0
C344 C 0.10123 0.53532 0.2105 0.0
O345 O 0.12256 0.50967 0.28501 0.0
O346 O 0.11093 0.56517 0.29521 0.0
C347 C 0.1648 0.62189 0.3308 0.0
N348 N 0.16292 0.62345 0.29907 0.0
C349 C 0.20276 0.67736 0.30849 0.0
C350 C 0.2053 0.67611 0.34121 0.0
C351 C 0.18632 0.64819 0.35238 0.0
C352 C 0.18105 0.65027 0.28809 0.0
H353 H 0.14971 0.60095 0.33968 0.0
C354 C 0.10803 0.53414 0.30101 0.0
O355 O 0.16506 0.46265 0.24671 0.0
O356 O 0.19741 0.5035 0.2823 0.0
N357 N 0.15582 0.62274 0.23782 0.0
C358 C 0.15073 0.62014 0.20555 0.0
C359 C 0.16899 0.64538 0.19047 0.0
C360 C 0.19193 0.67331 0.20873 0.0
C361 C 0.19623 0.67584 0.24196 0.0
C362 C 0.17754 0.64975 0.25565 0.0
H363 H 0.13303 0.59893 0.19135 0.0
O364 O 0.19885 0.52881 0.2249 0.0
O365 O 0.17152 0.56328 0.25878 0.0
O366 O 0.12109 0.51285 0.216 0.0
O367 O 0.10271 0.56514 0.22825 0.0
C368 C 0.21835 0.70326 0.26203 0.0
C369 C 0.22136 0.70417 0.2953 0.0
H370 H 0.22189 0.69635 0.35793 0.0
H371 H 0.18805 0.64708 0.3776 0.0
H372 H 0.16538 0.64329 0.16481 0.0
H373 H 0.20601 0.6927 0.19701 0.0
H374 H 0.23317 0.72376 0.25212 0.0
H375 H 0.23853 0.72533 0.31048 0.0
Mn376 Mn 0.82646 0.65058 1.00047 0.0
Mn377 Mn 0.75691 0.67829 0.96418 0.0
C378 C 0.76791 0.62162 1.00029 0.0
C379 C 0.87401 0.61791 1.00464 0.0
C380 C 0.79643 0.71754 0.02637 0.0
O381 O 0.85077 0.68091 0.96991 0.0
O382 O 0.8013 0.69235 0.94395 0.0
C383 C 0.75424 0.63515 0.89963 0.0
N384 N 0.73796 0.64578 0.92677 0.0
C385 C 0.6815 0.61395 0.90404 0.0
C386 C 0.69768 0.60251 0.87585 0.0
C387 C 0.73429 0.61295 0.87374 0.0
C388 C 0.70299 0.63518 0.92936 0.0
H389 H 0.78215 0.64367 0.89776 0.0
C390 C 0.83524 0.69401 0.94823 0.0
O391 O 0.87268 0.64714 0.02329 0.0
O392 O 0.84886 0.6083 0.9817 0.0
N393 N 0.71203 0.66656 0.9813 0.0
C394 C 0.70056 0.67972 1.01022 0.0
C395 C 0.66462 0.67148 0.01638 0.0
C396 C 0.64064 0.65068 0.99243 0.0
C397 C 0.65291 0.63809 0.96262 0.0
C398 C 0.68917 0.64649 0.95812 0.0
H399 H 0.71866 0.69646 0.02844 0.0
O400 O 0.79244 0.61941 0.02189 0.0
O401 O 0.77829 0.641 0.97983 0.0
O402 O 0.81517 0.69382 0.02966 0.0
O403 O 0.77355 0.71407 1.00269 0.0
C404 C 0.63045 0.61807 0.937 0.0
C405 C 0.64481 0.6056 0.90785 0.0
H406 H 0.68223 0.58583 0.85566 0.0
H407 H 0.74699 0.6043 0.85206 0.0
H408 H 0.65533 0.68149 0.0394 0.0
H409 H 0.61285 0.64468 0.99714 0.0
H410 H 0.60217 0.61156 0.93962 0.0
H411 H 0.62737 0.58957 0.88855 0.0
Mn412 Mn 0.9285 0.02887 0.27704 0.0
Mn413 Mn 0.95785 0.95024 0.26895 0.0
C414 C 0.89377 0.97958 0.24713 0.0
C415 C 0.89562 0.07166 0.3034 0.0
C416 C 0.98538 1.00499 0.23063 0.0
O417 O 0.96712 0.03634 0.31406 0.0
O418 O 0.9833 0.98257 0.30692 0.0
C419 C 0.93157 0.92899 0.32808 0.0
N420 N 0.93268 0.92265 0.29568 0.0
C421 C 0.89813 0.86634 0.29155 0.0
C422 C 0.8967 0.87223 0.32489 0.0
C423 C 0.9133 0.90379 0.3432 0.0
C424 C 0.91625 0.89263 0.27779 0.0
H425 H 0.94466 0.95299 0.3423 0.0
C426 C 0.98509 0.01367 0.32253 0.0
O427 O 0.92085 0.0792 0.28505 0.0
O428 O 0.89095 0.03984 0.30797 0.0
N429 N 0.93528 0.91601 0.23392 0.0
C430 C 0.93834 0.91465 0.20196 0.0
C431 C 0.92183 0.88539 0.18024 0.0
C432 C 0.90319 0.85742 0.1916 0.0
C433 C 0.90119 0.85899 0.2246 0.0
C434 C 0.91769 0.88907 0.2451 0.0
H435 H 0.95303 0.93583 0.19303 0.0
O436 O 0.88939 1.01044 0.24263 0.0
O437 O 0.91854 0.97831 0.26894 0.0
O438 O 0.96688 0.02828 0.24319 0.0
O439 O 0.98459 0.97565 0.23941 0.0
C440 C 0.88343 0.83191 0.23797 0.0
C441 C 0.88202 0.83552 0.27144 0.0
H442 H 0.88282 0.85278 0.33666 0.0
H443 H 0.91226 0.90856 0.36893 0.0
H444 H 0.92366 0.88432 0.1548 0.0
H445 H 0.89063 0.83482 0.17478 0.0
H446 H 0.87046 0.80833 0.22272 0.0
H447 H 0.86792 0.81469 0.28142 0.0
Mn448 Mn 0.31764 0.14729 0.50195 0.0
Mn449 Mn 0.25046 0.17559 0.46245 0.0
C450 C 0.25893 0.11775 0.49829 0.0
C451 C 0.36584 0.11608 0.5077 0.0
C452 C 0.28033 0.20995 0.52953 0.0
O453 O 0.34511 0.17929 0.47469 0.0
O454 O 0.29769 0.19727 0.45203 0.0
C455 C 0.26706 0.14146 0.39821 0.0
N456 N 0.24326 0.14638 0.42112 0.0
C457 C 0.19695 0.10788 0.38732 0.0
C458 C 0.22097 0.10247 0.36342 0.0
C459 C 0.25628 0.11919 0.36899 0.0
C460 C 0.20957 0.12958 0.41637 0.0
H461 H 0.29408 0.15442 0.40211 0.0
C462 C 0.33132 0.19742 0.4564 0.0
O463 O 0.3623 0.1442 0.52718 0.0
O464 O 0.34208 0.10633 0.48363 0.0
N465 N 0.20219 0.15709 0.46821 0.0
C466 C 0.18088 0.16896 0.49139 0.0
C467 C 0.14448 0.15556 0.48924 0.0
C468 C 0.12965 0.13178 0.46205 0.0
C469 C 0.15127 0.12216 0.43705 0.0
C470 C 0.18766 0.13559 0.4411 0.0
H471 H 0.19112 0.18976 0.51046 0.0
O472 O 0.28229 0.11498 0.52064 0.0
O473 O 0.27064 0.13753 0.4784 0.0
O474 O 0.3033 0.18932 0.53069 0.0
O475 O 0.25704 0.20668 0.50581 0.0
C476 C 0.13778 0.10109 0.40767 0.0
C477 C 0.16076 0.09329 0.38311 0.0
H478 H 0.21252 0.08577 0.34064 0.0
H479 H 0.27504 0.11522 0.35068 0.0
H480 H 0.12765 0.1645 0.50797 0.0
H481 H 0.10137 0.12213 0.46009 0.0
H482 H 0.10962 0.09111 0.40348 0.0
H483 H 0.15009 0.07683 0.36077 0.0
Mn484 Mn 0.43943 0.52932 0.77806 0.0
Mn485 Mn 0.46548 0.44934 0.7703 0.0
C486 C 0.40236 0.48087 0.74906 0.0
C487 C 0.40877 0.57387 0.80528 0.0
C488 C 0.4952 0.50288 0.73114 0.0
O489 O 0.47916 0.53561 0.81445 0.0
O490 O 0.49185 0.48065 0.80792 0.0
C491 C 0.4405 0.42775 0.82967 0.0
N492 N 0.4411 0.42158 0.79723 0.0
C493 C 0.41428 0.36234 0.79371 0.0
C494 C 0.41334 0.36803 0.82709 0.0
C495 C 0.42615 0.401 0.84511 0.0
C496 C 0.42804 0.39024 0.77964 0.0
H497 H 0.45133 0.45273 0.84365 0.0
C498 C 0.49551 0.51191 0.82321 0.0
O499 O 0.4336 0.5803 0.7862 0.0
O500 O 0.40332 0.54216 0.81006 0.0
N501 N 0.44178 0.41553 0.73559 0.0
C502 C 0.43995 0.41602 0.70369 0.0
C503 C 0.42523 0.38594 0.68209 0.0
C504 C 0.41286 0.35562 0.69356 0.0
C505 C 0.41414 0.35605 0.72659 0.0
C506 C 0.42832 0.38705 0.74692 0.0
H507 H 0.44898 0.43945 0.69497 0.0
O508 O 0.399 0.51201 0.74472 0.0
O509 O 0.42724 0.47882 0.77056 0.0
O510 O 0.47656 0.52663 0.74261 0.0
O511 O 0.49304 0.47417 0.74098 0.0
C512 C 0.40141 0.32716 0.7402 0.0
C513 C 0.40159 0.33026 0.77377 0.0
H514 H 0.40264 0.34737 0.83911 0.0
H515 H 0.42551 0.40559 0.87087 0.0
H516 H 0.42359 0.38606 0.65667 0.0
H517 H 0.402 0.33234 0.67686 0.0
H518 H 0.39058 0.30271 0.72509 0.0
H519 H 0.39098 0.30812 0.78395 0.0
Mn520 Mn 0.76916 0.36944 0.52422 0.0
Mn521 Mn 0.75531 0.39663 0.45458 0.0
C522 C 0.75117 0.3287 0.477 0.0
C523 C 0.80136 0.34919 0.56402 0.0
C524 C 0.71003 0.41176 0.51189 0.0
O525 O 0.79992 0.41811 0.53036 0.0
O526 O 0.79536 0.42832 0.47958 0.0
C527 C 0.82197 0.38673 0.4224 0.0
N528 N 0.78591 0.37887 0.42301 0.0
C529 C 0.78209 0.34156 0.37152 0.0
C530 C 0.81916 0.34937 0.37028 0.0
C531 C 0.8392 0.37192 0.39591 0.0
C532 C 0.76643 0.35699 0.3986 0.0
H533 H 0.83747 0.40422 0.44196 0.0
C534 C 0.80938 0.43554 0.50835 0.0
O535 O 0.77433 0.36554 0.56999 0.0
O536 O 0.81175 0.34634 0.53508 0.0
N537 N 0.71744 0.36641 0.42851 0.0
C538 C 0.68185 0.36223 0.43296 0.0
C539 C 0.65814 0.3399 0.40978 0.0
C540 C 0.67119 0.32265 0.38192 0.0
C541 C 0.70782 0.32807 0.37745 0.0
C542 C 0.7302 0.35034 0.40154 0.0
H543 H 0.67158 0.37614 0.45383 0.0
O544 O 0.74358 0.32141 0.50475 0.0
O545 O 0.76614 0.36025 0.47805 0.0
O546 O 0.7228 0.39093 0.52729 0.0
O547 O 0.72154 0.41739 0.48522 0.0
C548 C 0.72296 0.31247 0.3499 0.0
C549 C 0.76009 0.31907 0.34697 0.0
H550 H 0.83253 0.338 0.34989 0.0
H551 H 0.86784 0.37793 0.39521 0.0
H552 H 0.62984 0.33624 0.41325 0.0
H553 H 0.65282 0.30557 0.364 0.0
H554 H 0.70627 0.29526 0.33084 0.0
H555 H 0.77143 0.30669 0.32575 0.0
Mn556 Mn 0.66452 0.02226 0.7494 0.0
Mn557 Mn 0.64369 0.10395 0.75514 0.0
C558 C 0.70463 0.06595 0.73465 0.0
C559 C 0.69213 0.98069 0.77185 0.0
C560 C 0.61104 0.04405 0.7025 0.0
O561 O 0.62346 0.02261 0.7795 0.0
O562 O 0.61528 0.07886 0.78424 0.0
C563 C 0.67037 0.13286 0.82213 0.0
N564 N 0.67087 0.13413 0.79038 0.0
C565 C 0.71084 0.18791 0.80114 0.0
C566 C 0.71059 0.18728 0.83396 0.0
C567 C 0.69048 0.1595 0.84446 0.0
C568 C 0.69061 0.16045 0.77999 0.0
H569 H 0.65462 0.11178 0.83036 0.0
C570 C 0.60839 0.04872 0.79162 0.0
O571 O 0.6678 0.97144 0.74833 0.0
O572 O 0.69886 0.01357 0.78334 0.0
N573 N 0.67008 0.13138 0.72885 0.0
C574 C 0.668 0.12787 0.69641 0.0
C575 C 0.68834 0.15238 0.68192 0.0
C576 C 0.70992 0.18078 0.70097 0.0
C577 C 0.71085 0.18443 0.73435 0.0
C578 C 0.69042 0.15886 0.7474 0.0
H579 H 0.65087 0.10662 0.68172 0.0
O580 O 0.70644 0.03351 0.72378 0.0
O581 O 0.67901 0.07175 0.75334 0.0
O582 O 0.62852 0.02091 0.71075 0.0
O583 O 0.61454 0.07535 0.7176 0.0
C584 C 0.7312 0.21248 0.75519 0.0
C585 C 0.73095 0.21437 0.78857 0.0
H586 H 0.72603 0.2078 0.85126 0.0
H587 H 0.69029 0.15874 0.86974 0.0
H588 H 0.68717 0.14953 0.65614 0.0
H589 H 0.72547 0.19972 0.68973 0.0
H590 H 0.74725 0.23265 0.7458 0.0
H591 H 0.74695 0.2359 0.80435 0.0
Mn592 Mn 0.0569 0.22489 0.87566 0.0
Mn593 Mn 0.97896 0.23018 0.91025 0.0
C594 C 1.00361 0.19747 0.84752 0.0
C595 C 0.10052 0.24613 0.84467 0.0
C596 C 0.03614 0.18863 0.93076 0.0
O597 O 0.06821 0.26764 0.91123 0.0
O598 O 0.01262 0.27293 0.92721 0.0
C599 C 0.95561 0.28911 0.88409 0.0
N600 N 0.95012 0.25503 0.88686 0.0
C601 C 0.89827 0.2442 0.84984 0.0
C602 C 0.90366 0.27904 0.84627 0.0
C603 C 0.93238 0.30163 0.8636 0.0
C604 C 0.92239 0.23318 0.87049 0.0
H605 H 0.97771 0.30656 0.89718 0.0
C606 C 0.04584 0.28434 0.92696 0.0
O607 O 0.1077 0.22666 0.865 0.0
O608 O 0.06856 0.25434 0.84313 0.0
N609 N 0.94406 0.1907 0.89444 0.0
C610 C 0.94021 0.15909 0.90335 0.0
C611 C 0.9119 0.13366 0.88932 0.0
C612 C 0.88714 0.14147 0.86703 0.0
C613 C 0.89029 0.17499 0.85989 0.0
C614 C 0.91894 0.19922 0.87482 0.0
H615 H 0.95793 0.15381 0.92173 0.0
O616 O 0.0338 0.18679 0.84027 0.0
O617 O 1.00591 0.22199 0.87234 0.0
O618 O 0.05602 0.19237 0.90794 0.0
O619 O 1.00764 0.20289 0.93495 0.0
C620 C 0.86596 0.18537 0.83879 0.0
C621 C 0.87001 0.21994 0.83361 0.0
H622 H 0.88586 0.28874 0.83039 0.0
H623 H 0.93671 0.32859 0.86107 0.0
H624 H 0.90898 0.10827 0.89592 0.0
H625 H 0.86536 0.12181 0.85613 0.0
H626 H 0.8441 0.16683 0.8266 0.0
H627 H 0.8512 0.22777 0.81733 0.0
Mn628 Mn 0.55681 0.73055 0.37482 0.0
Mn629 Mn 0.47821 0.73751 0.40789 0.0
C630 C 0.50357 0.70061 0.3475 0.0
C631 C 0.59998 0.75101 0.34244 0.0
C632 C 0.5357 0.69975 0.43312 0.0
O633 O 0.56719 0.77513 0.40819 0.0
O634 O 0.51094 0.78174 0.42182 0.0
C635 C 0.45196 0.7919 0.37683 0.0
N636 N 0.44791 0.75875 0.38235 0.0
C637 C 0.39318 0.74425 0.34898 0.0
C638 C 0.39707 0.77807 0.34254 0.0
C639 C 0.42657 0.80202 0.35658 0.0
C640 C 0.41948 0.73558 0.36914 0.0
H641 H 0.47438 0.81047 0.38778 0.0
C642 C 0.54435 0.79287 0.42193 0.0
O643 O 0.60815 0.73317 0.36393 0.0
O644 O 0.56746 0.75752 0.34038 0.0
N645 N 0.44483 0.69623 0.39483 0.0
C646 C 0.44484 0.66465 0.40356 0.0
C647 C 0.41658 0.63804 0.39223 0.0
C648 C 0.38862 0.64418 0.37209 0.0
C649 C 0.38903 0.67701 0.36377 0.0
C650 C 0.41764 0.70264 0.37607 0.0
H651 H 0.46621 0.65969 0.41904 0.0
O652 O 0.53404 0.69015 0.34096 0.0
O653 O 0.50565 0.72658 0.37092 0.0
O654 O 0.55611 0.70122 0.41015 0.0
O655 O 0.50718 0.71401 0.43521 0.0
C656 C 0.36221 0.68521 0.34363 0.0
C657 C 0.36427 0.71879 0.33614 0.0
H658 H 0.3775 0.78598 0.32699 0.0
H659 H 0.42969 0.82824 0.35188 0.0
H660 H 0.41645 0.61281 0.39886 0.0
H661 H 0.36701 0.62351 0.36314 0.0
H662 H 0.3401 0.66564 0.33378 0.0
H663 H 0.34361 0.72486 0.32047 0.0
Mn664 Mn 0.02788 0.77432 0.65319 0.0
Mn665 Mn 0.99951 0.70452 0.68707 0.0
C666 C 0.01954 0.71765 0.62215 0.0
C667 C 0.02671 0.8201 0.62379 0.0
C668 C 0.07546 0.74086 0.69634 0.0
O669 O 1.00352 0.79692 0.6925 0.0
O670 O 0.99005 0.74875 0.71373 0.0
C671 C 0.92167 0.70836 0.68428 0.0
N672 N 0.94936 0.68985 0.67818 0.0
C673 C 0.90931 0.63611 0.66656 0.0
C674 C 0.88039 0.65464 0.67277 0.0
C675 C 0.88658 0.69098 0.68128 0.0
C676 C 0.94356 0.65501 0.66892 0.0
H677 H 0.92634 0.73609 0.6917 0.0
C678 C 0.99003 0.78122 0.71408 0.0
O679 O 0.05168 0.81985 0.64533 0.0
O680 O 0.99971 0.79555 0.62153 0.0
N681 N 1.00501 0.65919 0.66476 0.0
C682 C 0.03551 0.64526 0.65813 0.0
C683 C 0.03374 0.60944 0.64702 0.0
C684 C 1.00077 0.58797 0.64431 0.0
C685 C 0.96981 0.60266 0.65223 0.0
C686 C 0.97307 0.63875 0.66179 0.0
H687 H 0.061 0.66119 0.662 0.0
O688 O 0.04201 0.74256 0.61531 0.0
O689 O 1.00294 0.72601 0.64806 0.0
O690 O 0.06961 0.76508 0.6816 0.0
O691 O 0.05157 0.71578 0.69863 0.0
C692 C 0.93579 0.58292 0.65094 0.0
C693 C 0.90554 0.59965 0.65808 0.0
H694 H 0.85335 0.64125 0.67099 0.0
H695 H 0.86443 0.7055 0.68612 0.0
H696 H 0.05789 0.59827 0.64144 0.0
H697 H 0.99959 0.56025 0.63636 0.0
H698 H 0.9325 0.55495 0.64388 0.0
H699 H 0.87945 0.5843 0.6564 0.0
Mn700 Mn 0.51947 0.27131 0.14381 0.0
Mn701 Mn 0.47948 0.19695 0.16421 0.0
C702 C 0.50884 0.21881 0.10587 0.0
C703 C 0.52006 0.32401 0.1233 0.0
C704 C 0.55758 0.22484 0.18173 0.0
O705 O 0.49789 0.29027 0.18669 0.0
O706 O 0.47377 0.23843 0.19519 0.0
C707 C 0.40609 0.21387 0.15553 0.0
N708 N 0.43031 0.19124 0.14942 0.0
C709 C 0.38494 0.14642 0.122 0.0
C710 C 0.35945 0.16915 0.12802 0.0
C711 C 0.37017 0.20317 0.14457 0.0
C712 C 0.4206 0.15903 0.13236 0.0
H713 H 0.41407 0.23982 0.16881 0.0
C714 C 0.48034 0.27123 0.20387 0.0
O715 O 0.54607 0.318 0.14145 0.0
O716 O 0.49278 0.2997 0.11822 0.0
N717 N 0.48107 0.15324 0.13698 0.0
C718 C 0.50839 0.13379 0.1349 0.0
C719 C 0.50209 0.0989 0.11966 0.0
C720 C 0.46729 0.08368 0.10833 0.0
C721 C 0.43917 0.10365 0.11199 0.0
C722 C 0.44733 0.13863 0.12636 0.0
H723 H 0.53447 0.14437 0.14588 0.0
O724 O 0.53248 0.24427 0.10206 0.0
O725 O 0.49137 0.22487 0.13138 0.0
O726 O 0.55707 0.25211 0.16955 0.0
O727 O 0.53057 0.20128 0.1802 0.0
C728 C 0.40319 0.08992 0.10267 0.0
C729 C 0.37624 0.11151 0.10689 0.0
H730 H 0.33157 0.1607 0.12025 0.0
H731 H 0.35068 0.2209 0.14933 0.0
H732 H 0.52381 0.08345 0.11764 0.0
H733 H 0.46237 0.0565 0.0973 0.0
H734 H 0.39601 0.06284 0.09184 0.0
H735 H 0.34883 0.10081 0.09904 0.0
C736 C 0.2434 0.74857 0.9134 0.0
C737 C 0.27836 0.74929 0.90217 0.0
C738 C 0.29935 0.79875 0.94555 0.0
C739 C 0.26357 0.80097 0.95432 0.0
N740 N 0.20097 0.77911 0.94466 0.0
N741 N 0.33826 0.7794 0.90439 0.0
C742 C 0.23546 0.77598 0.93779 0.0
C743 C 0.30596 0.77549 0.91748 0.0
N744 N 0.21796 0.72107 0.90124 0.0
N745 N 0.32751 0.81786 0.96464 0.0
H746 H 0.34423 0.76358 0.88361 0.0
H747 H 0.35812 0.80032 0.91243 0.0
H748 H 0.32468 0.8351 0.98546 0.0
H749 H 0.35398 0.81417 0.96149 0.0
H750 H 0.193 0.71697 0.91032 0.0
H751 H 0.22302 0.70055 0.88377 0.0
H752 H 0.17889 0.76441 0.93112 0.0
H753 H 0.19427 0.79848 0.96245 0.0
C754 C 0.04266 0.51415 0.36391 0.0
C755 C 0.06633 0.5209 0.3919 0.0
C756 C 0.11698 0.53307 0.35949 0.0
C757 C 0.09315 0.52856 0.33185 0.0
N758 N 0.03295 0.52012 0.30835 0.0
N759 N 0.12453 0.54437 0.41739 0.0
C760 C 0.05581 0.52084 0.33428 0.0
C761 C 0.10307 0.53261 0.38994 0.0
N762 N 1.00803 0.49989 0.3653 0.0
N763 N 0.15309 0.53714 0.35665 0.0
H764 H 0.11511 0.54503 0.44012 0.0
H765 H 0.15064 0.55665 0.41775 0.0
H766 H 0.1646 0.53874 0.33507 0.0
H767 H 0.17165 0.53636 0.37523 0.0
H768 H 0.99048 0.4908 0.34518 0.0
H769 H 0.99742 0.49484 0.38646 0.0
H770 H 1.00533 0.51834 0.30935 0.0
H771 H 0.04187 0.52374 0.28619 0.0
C772 C 0.87742 0.77138 0.91425 0.0
C773 C 0.86854 0.7583 0.88112 0.0
C774 C 0.85452 0.69973 0.89375 0.0
C775 C 0.85617 0.71402 0.9268 0.0
N776 N 0.86904 0.76382 0.96901 0.0
N777 N 0.84658 0.70949 0.83936 0.0
C778 C 0.86822 0.7499 0.93724 0.0
C779 C 0.85716 0.72216 0.87077 0.0
N780 N 0.89499 0.80428 0.92367 0.0
N781 N 0.85025 0.66453 0.88449 0.0
H782 H 0.84747 0.72496 0.82187 0.0
H783 H 0.8343 0.68419 0.83105 0.0
H784 H 0.84882 0.64793 0.90111 0.0
H785 H 0.85174 0.65214 0.86099 0.0
H786 H 0.905 0.81436 0.94708 0.0
H787 H 0.90261 0.82035 0.90743 0.0
H788 H 0.87305 0.7904 0.97787 0.0
H789 H 0.86391 0.74862 0.98645 0.0
C790 C 0.06423 0.01572 0.38072 0.0
C791 C 0.04815 0.01871 0.41053 0.0
C792 C 0.99094 0.02406 0.38306 0.0
C793 C 1.00739 0.02193 0.35352 0.0
N794 N 0.06146 0.02626 0.32624 0.0
N795 N 0.99875 0.03441 0.44107 0.0
C796 C 0.04468 0.02122 0.3531 0.0
C797 C 0.01226 0.02568 0.41199 0.0
N798 N 0.09735 1.00557 0.3782 0.0
N799 N 0.95468 0.02275 0.38338 0.0
H800 H 0.01373 0.03612 0.46261 0.0
H801 H 0.97402 0.04308 0.44388 0.0
H802 H 0.93821 0.02231 0.36298 0.0
H803 H 0.94067 0.01979 0.40345 0.0
H804 H 0.10876 0.99958 0.35646 0.0
H805 H 0.11216 0.99989 0.39734 0.0
H806 H 0.08911 0.02921 0.32518 0.0
H807 H 0.04771 0.03155 0.30626 0.0
C808 C 0.31707 0.27989 0.60193 0.0
C809 C 0.28512 0.2903 0.61428 0.0
C810 C 0.25042 0.24669 0.57272 0.0
C811 C 0.28183 0.23909 0.55769 0.0
N812 N 0.34579 0.25495 0.55559 0.0
N813 N 0.22172 0.29033 0.60497 0.0
C814 C 0.31538 0.25794 0.57137 0.0
C815 C 0.25199 0.27635 0.59706 0.0
N816 N 0.34868 0.28858 0.62008 0.0
N817 N 0.22018 0.22325 0.56715 0.0
H818 H 0.22209 0.31241 0.62257 0.0
H819 H 0.19733 0.28202 0.59172 0.0
H820 H 0.22081 0.19803 0.55525 0.0
H821 H 0.19707 0.22675 0.57909 0.0
H822 H 0.3719 0.27837 0.6135 0.0
H823 H 0.35099 0.30317 0.64309 0.0
H824 H 0.36982 0.271 0.5631 0.0
H825 H 0.34651 0.23874 0.53366 0.0
C826 C 0.53171 0.4875 0.64784 0.0
C827 C 0.55502 0.51833 0.64737 0.0
C828 C 0.54025 0.54007 0.70285 0.0
C829 C 0.51936 0.50757 0.70391 0.0
N830 N 0.51456 0.44581 0.68061 0.0
N831 N 0.58873 0.57036 0.67846 0.0
C832 C 0.52058 0.47981 0.67749 0.0
C833 C 0.56123 0.54381 0.67599 0.0
N834 N 0.51973 0.4653 0.62004 0.0
N835 N 0.54175 0.56694 0.72805 0.0
H836 H 0.60607 0.57275 0.66038 0.0
H837 H 0.59681 0.5878 0.69962 0.0
H838 H 0.5319 0.56404 0.75003 0.0
H839 H 0.55229 0.59231 0.72681 0.0
H840 H 0.5004 0.44379 0.61942 0.0
H841 H 0.5259 0.47051 0.59758 0.0
H842 H 0.51704 0.4256 0.66183 0.0
H843 H 0.51363 0.43754 0.70241 0.0
C844 C 0.79784 0.2957 0.62935 0.0
C845 C 0.83258 0.30549 0.64476 0.0
C846 C 0.84988 0.33952 0.60326 0.0
C847 C 0.81496 0.33009 0.58823 0.0
N848 N 0.7599 0.29069 0.58094 0.0
N849 N 0.89415 0.32887 0.64223 0.0
C850 C 0.79035 0.30533 0.59937 0.0
C851 C 0.85946 0.32481 0.63022 0.0
N852 N 0.77133 0.27905 0.64417 0.0
N853 N 0.8732 0.3638 0.59283 0.0
H854 H 0.90185 0.31808 0.66173 0.0
H855 H 0.91555 0.34004 0.63125 0.0
H856 H 0.86724 0.37422 0.5727 0.0
H857 H 0.89753 0.37495 0.60501 0.0
H858 H 0.74453 0.27513 0.6359 0.0
H859 H 0.77553 0.27136 0.66608 0.0
H860 H 0.74254 0.27009 0.58621 0.0
H861 H 0.75401 0.29668 0.55856 0.0
C862 C 0.52925 0.02172 0.64179 0.0
C863 C 0.54437 0.03408 0.6152 0.0
C864 C 0.60348 0.04407 0.64386 0.0
C865 C 0.58818 0.03601 0.6718 0.0
N866 N 0.5358 0.01931 0.69852 0.0
N867 N 0.59457 0.06566 0.59489 0.0
C868 C 0.55074 0.02557 0.67115 0.0
C869 C 0.5811 0.04796 0.61754 0.0
N870 N 0.49501 1.00507 0.63863 0.0
N871 N 0.63954 0.04664 0.64195 0.0
H872 H 0.57869 0.07038 0.57587 0.0
H873 H 0.62049 0.07887 0.59702 0.0
H874 H 0.65611 0.04152 0.66019 0.0
H875 H 0.65214 0.04965 0.62114 0.0
H876 H 0.48364 0.99236 0.65595 0.0
H877 H 0.47869 1.00189 0.61764 0.0
H878 H 0.50834 0.01551 0.70075 0.0
H879 H 0.55118 0.01947 0.71952 0.0
C880 C 0.95274 0.2158 0.7751 0.0
C881 C 0.9244 0.18818 0.76901 0.0
C882 C 0.95468 0.16124 0.80879 0.0
C883 C 0.97521 0.19398 0.82125 0.0
N884 N 0.99144 0.2542 0.81541 0.0
N885 N 0.91757 0.12609 0.76379 0.0
C886 C 0.97355 0.22181 0.80426 0.0
C887 C 0.93028 0.15796 0.78133 0.0
N888 N 0.96363 0.2326 0.75112 0.0
N889 N 0.95786 0.13366 0.82354 0.0
H890 H 0.90585 0.1234 0.74066 0.0
H891 H 0.923 0.10281 0.76988 0.0
H892 H 0.97594 0.13514 0.84313 0.0
H893 H 0.94089 0.11022 0.81788 0.0
H894 H 0.98654 0.2509 0.7537 0.0
H895 H 0.95225 0.22463 0.72775 0.0
H896 H 0.98835 0.27508 0.80401 0.0
H897 H 1.00584 0.26131 0.83738 0.0
C898 C 0.54721 0.88873 0.42417 0.0
C899 C 0.56224 0.90272 0.45559 0.0
C900 C 0.5687 0.84406 0.46478 0.0
C901 C 0.55506 0.83054 0.43292 0.0
N902 N 0.54075 0.84047 0.37982 0.0
N903 N 0.59329 0.89494 0.50399 0.0
C904 C 0.54738 0.85309 0.41183 0.0
C905 C 0.57474 0.88072 0.47546 0.0
N906 N 0.53109 0.90907 0.40664 0.0
N907 N 0.5754 0.82182 0.48481 0.0
H908 H 0.59831 0.92164 0.5124 0.0
H909 H 0.60605 0.88061 0.5182 0.0
H910 H 0.57362 0.79512 0.47687 0.0
H911 H 0.58127 0.82956 0.50934 0.0
H912 H 0.51627 0.89926 0.38503 0.0
H913 H 0.52945 0.9352 0.41504 0.0
H914 H 0.53879 0.85632 0.36285 0.0
H915 H 0.54048 0.81438 0.36987 0.0
C916 C 0.15122 0.24807 0.77011 0.0
C917 C 0.18343 0.26905 0.78344 0.0
C918 C 0.15914 0.27923 0.83609 0.0
C919 C 0.12741 0.25714 0.82307 0.0
N920 N 0.08975 0.22617 0.77693 0.0
N921 N 0.21599 0.31061 0.82626 0.0
C922 C 0.12219 0.24366 0.78974 0.0
C923 C 0.18664 0.28666 0.8156 0.0
N924 N 0.14924 0.23073 0.73917 0.0
N925 N 0.16306 0.29255 0.86813 0.0
H926 H 0.23639 0.31649 0.81156 0.0
H927 H 0.21905 0.32659 0.84864 0.0
H928 H 0.14248 0.28962 0.88336 0.0
H929 H 0.18691 0.30551 0.88 0.0
H930 H 0.1285 0.21146 0.7291 0.0
H931 H 0.16945 0.23433 0.72373 0.0
H932 H 0.08295 0.21945 0.75248 0.0
H933 H 0.06846 0.22009 0.79057 0.0
C934 C 0.57318 0.63301 0.47575 0.0
C935 C 0.56984 0.64733 0.50829 0.0
C936 C 0.54447 0.6961 0.49181 0.0
C937 C 0.54573 0.68085 0.45906 0.0
N938 N 0.55129 0.62928 0.42073 0.0
N939 N 0.54226 0.68651 0.54635 0.0
C940 C 0.55707 0.64759 0.45125 0.0
C941 C 0.55203 0.67686 0.51593 0.0
N942 N 0.593 0.60656 0.46807 0.0
N943 N 0.53846 0.72976 0.50028 0.0
H944 H 0.54688 0.67257 0.56446 0.0
H945 H 0.52627 0.70591 0.55261 0.0
H946 H 0.53466 0.74582 0.48386 0.0
H947 H 0.54111 0.74297 0.52387 0.0
H948 H 0.59956 0.59782 0.44481 0.0
H949 H 0.6053 0.5952 0.48518 0.0
H950 H 0.55613 0.60368 0.41442 0.0
H951 H 0.53787 0.63817 0.40252 0.0
C952 C 0.90743 0.80353 0.75488 0.0
C953 C 0.91925 0.80838 0.78778 0.0
C954 C 0.98046 0.80297 0.7722 0.0
C955 C 0.96887 0.79907 0.7394 0.0
N956 N 0.92319 0.80575 0.70056 0.0
N957 N 0.96894 0.82344 0.8274 0.0
C958 C 0.93306 0.80318 0.7312 0.0
C959 C 0.95644 0.81156 0.79631 0.0
N960 N 0.87175 0.79659 0.74586 0.0
N961 N 0.01415 0.79723 0.78038 0.0
H962 H 0.95227 0.83099 0.84545 0.0
H963 H 0.99605 0.82924 0.8346 0.0
H964 H 0.03263 0.79213 0.76342 0.0
H965 H 0.02286 0.79546 0.80352 0.0
H966 H 0.8618 0.789 0.72212 0.0
H967 H 0.85205 0.795 0.76208 0.0
H968 H 0.89834 0.81196 0.69382 0.0
H969 H 0.94102 0.80496 0.68255 0.0
C970 C 0.01362 0.88239 0.56473 0.0
C971 C 0.04811 0.88616 0.55266 0.0
C972 C 0.06688 0.84549 0.58537 0.0
C973 C 0.03319 0.84313 0.59926 0.0
N974 N 0.97679 0.86475 0.60615 0.0
N975 N 0.10993 0.87875 0.55812 0.0
C976 C 1.00718 0.86324 0.59013 0.0
C977 C 0.07553 0.87045 0.56557 0.0
N978 N 0.98673 0.89614 0.55116 0.0
N979 N 0.08963 0.82187 0.58863 0.0
H980 H 0.11693 0.89678 0.54346 0.0
H981 H 0.13168 0.87061 0.56913 0.0
H982 H 0.08336 0.80085 0.60007 0.0
H983 H 0.11284 0.82044 0.57646 0.0
H984 H 0.96005 0.89099 0.55604 0.0
H985 H 0.99111 0.91148 0.53372 0.0
H986 H 0.95836 0.88144 0.60273 0.0
H987 H 0.9715 0.85135 0.62483 0.0
C988 C 0.16348 0.76315 0.74888 0.0
C989 C 0.1813 0.73479 0.73607 0.0
C990 C 0.13274 0.71499 0.69438 0.0
C991 C 0.11267 0.74038 0.7094 0.0
N992 N 0.10858 0.78907 0.75118 0.0
N993 N 0.1798 0.68009 0.70023 0.0
C994 C 0.12794 0.76457 0.73684 0.0
C995 C 0.16484 0.70952 0.71001 0.0
N996 N 0.18122 0.78957 0.7713 0.0
N997 N 0.12267 0.69804 0.66394 0.0
H998 H 0.20322 0.67501 0.71132 0.0
H999 H 0.16709 0.65934 0.68327 0.0
H1000 H 0.1011 0.70393 0.6508 0.0
H1001 H 0.13803 0.68149 0.65058 0.0
H1002 H 0.17128 0.81268 0.77936 0.0
H1003 H 0.20727 0.78945 0.78028 0.0
H1004 H 0.11596 0.80457 0.77347 0.0
H1005 H 0.08427 0.79302 0.74101 0.0
C1006 C 0.01825 0.64618 0.54794 0.0
C1007 C 0.98693 0.62289 0.55064 0.0
C1008 C 0.97267 0.66797 0.59402 0.0
C1009 C 1.00842 0.68494 0.59763 0.0
N1010 N 0.06779 0.68407 0.57808 0.0
N1011 N 0.93927 0.61107 0.58543 0.0
C1012 C 0.03215 0.67212 0.57475 0.0
C1013 C 0.96535 0.6336 0.57629 0.0
N1014 N 0.03307 0.64613 0.51933 0.0
N1015 N 0.94537 0.68462 0.60585 0.0
H1016 H 0.93929 0.5843 0.58039 0.0
H1017 H 0.92104 0.61917 0.60171 0.0
H1018 H 0.94879 0.71091 0.61592 0.0
H1019 H 0.91873 0.6733 0.60165 0.0
H1020 H 0.05469 0.66428 0.5164 0.0
H1021 H 0.02056 0.63161 0.498 0.0
H1022 H 0.08564 0.67349 0.56244 0.0
H1023 H 0.07993 0.70131 0.59807 0.0
C1024 C 0.83031 0.91644 0.18512 0.0
C1025 C 0.81624 0.89164 0.20338 0.0
C1026 C 0.84774 0.92859 0.25155 0.0
C1027 C 0.86727 0.9491 0.23215 0.0
N1028 N 0.87955 0.95966 0.17933 0.0
N1029 N 0.8153 0.87243 0.25433 0.0
C1030 C 0.85908 0.94231 0.19861 0.0
C1031 C 0.82578 0.89734 0.2368 0.0
N1032 N 0.81508 0.91645 0.1554 0.0
N1033 N 0.84929 0.93933 0.28395 0.0
H1034 H 0.80215 0.8479 0.24417 0.0
H1035 H 0.82301 0.87458 0.27845 0.0
H1036 H 0.8642 0.96248 0.29564 0.0
H1037 H 0.83296 0.92713 0.29888 0.0
H1038 H 0.8223 0.93592 0.14233 0.0
H1039 H 0.79238 0.89946 0.14546 0.0
H1040 H 0.87707 0.95312 0.15446 0.0
H1041 H 0.90158 0.97792 0.18822 0.0
C1042 C 0.86258 0.15793 0.33761 0.0
C1043 C 0.82489 0.14822 0.335 0.0
C1044 C 0.83341 0.08835 0.31195 0.0
C1045 C 0.87125 0.09747 0.3162 0.0
N1046 N 0.92124 0.13933 0.34053 0.0
N1047 N 0.77526 0.10238 0.32747 0.0
C1048 C 0.88564 0.13182 0.33131 0.0
C1049 C 0.8107 0.11276 0.32484 0.0
N1050 N 0.87646 0.19222 0.34469 0.0
N1051 N 0.81881 0.05739 0.29354 0.0
H1052 H 0.75801 0.11957 0.33688 0.0
H1053 H 0.76395 0.07641 0.32347 0.0
H1054 H 0.83392 0.03941 0.28189 0.0
H1055 H 0.7916 0.05112 0.28689 0.0
H1056 H 0.90334 0.20118 0.34323 0.0
H1057 H 0.86065 0.21198 0.34974 0.0
H1058 H 0.93272 0.1629 0.35436 0.0
H1059 H 0.93865 0.12076 0.33721 0.0
C1060 C 0.40513 0.98403 0.03219 0.0
C1061 C 0.39772 0.01445 0.02132 0.0
C1062 C 0.3337 0.99748 0.02588 0.0
C1063 C 0.34058 0.96415 0.03053 0.0
N1064 N 0.38321 0.92497 0.03719 0.0
N1065 N 0.35494 0.05075 1.00763 0.0
C1066 C 0.37646 0.95746 0.03426 0.0
C1067 C 0.36203 0.02174 0.01882 0.0
N1068 N 0.43965 0.98056 0.04027 0.0
N1069 N 0.29969 1.00549 0.0275 0.0
H1070 H 0.37484 0.06941 1.00256 0.0
H1071 H 0.32932 0.05541 1.00143 0.0
H1072 H 0.27831 0.98767 0.03135 0.0
H1073 H 0.29316 0.03032 0.02773 0.0
H1074 H 0.44674 0.96055 0.05118 0.0
H1075 H 0.461 0.99963 0.03878 0.0
H1076 H 0.40849 0.91726 0.03587 0.0
H1077 H 0.36317 0.90491 0.03908 0.0
C1078 C 0.22097 0.39586 0.30449 0.0
C1079 C 0.25857 0.40492 0.30545 0.0
C1080 C 0.25032 0.45048 0.27434 0.0
C1081 C 0.21304 0.44543 0.27839 0.0
N1082 N 0.16243 0.41384 0.29793 0.0
N1083 N 0.30967 0.44079 0.29159 0.0
C1084 C 0.19808 0.41779 0.29307 0.0
C1085 C 0.27343 0.43187 0.28996 0.0
N1086 N 0.20735 0.3664 0.31491 0.0
N1087 N 0.2635 0.47267 0.25505 0.0
H1088 H 0.32733 0.42667 0.30151 0.0
H1089 H 0.32218 0.46303 0.28458 0.0
H1090 H 0.24725 0.48628 0.2429 0.0
H1091 H 0.28981 0.47516 0.24865 0.0
H1092 H 0.18034 0.35642 0.31248 0.0
H1093 H 0.22371 0.35013 0.3234 0.0
H1094 H 0.15052 0.39681 0.31168 0.0
H1095 H 0.1449 0.42931 0.28989 0.0
C1096 C 0.16419 0.07559 0.51117 0.0
C1097 C 0.15817 0.04771 0.48469 0.0
C1098 C 0.21701 0.0671 0.466 0.0
C1099 C 0.22368 0.09432 0.49319 0.0
N1100 N 0.2062 0.12068 0.54455 0.0
N1101 N 0.18126 0.013 0.44017 0.0
C1102 C 0.1981 0.09721 0.51675 0.0
C1103 C 0.18532 0.04245 0.46303 0.0
N1104 N 0.13693 0.08229 0.53031 0.0
N1105 N 0.24099 0.06469 0.44289 0.0
H1106 H 0.15885 0.99416 0.43772 0.0
H1107 H 0.20124 1.00549 0.42553 0.0
H1108 H 0.26579 0.08009 0.44511 0.0
H1109 H 0.23554 0.04886 0.42051 0.0
H1110 H 0.13779 0.10464 0.54754 0.0
H1111 H 0.11231 0.06645 0.52752 0.0
H1112 H 0.1906 0.12161 0.56413 0.0
H1113 H 0.22982 0.13802 0.54888 0.0
C1114 C 0.78039 0.12285 0.70366 0.0
C1115 C 0.79419 0.1451 0.73257 0.0
C1116 C 0.7534 0.11185 0.76259 0.0
C1117 C 0.73595 0.09266 0.7335 0.0
N1118 N 0.73264 0.07998 0.67583 0.0
N1119 N 0.78899 0.16531 0.78859 0.0
C1120 C 0.74951 0.09809 0.70385 0.0
C1121 C 0.77928 0.14084 0.76176 0.0
N1122 N 0.79767 0.12436 0.67631 0.0
N1123 N 0.74648 0.10162 0.79102 0.0
H1124 H 0.80558 0.18836 0.78813 0.0
H1125 H 0.77776 0.16463 0.81038 0.0
H1126 H 0.72896 0.07958 0.79281 0.0
H1127 H 0.76107 0.11273 0.81248 0.0
H1128 H 0.79143 0.10635 0.65522 0.0
H1129 H 0.82025 0.14219 0.6753 0.0
H1130 H 0.73794 0.086 0.65351 0.0
H1131 H 0.71184 0.05996 0.67506 0.0
C1132 C 0.45896 0.09639 0.52973 0.0
C1133 C 0.45126 0.06243 0.53662 0.0
C1134 C 0.38722 0.06277 0.52324 0.0
C1135 C 0.39523 0.09583 0.51439 0.0
N1136 N 0.43905 0.14168 0.50416 0.0
N1137 N 0.40904 1.01117 0.53592 0.0
C1138 C 0.43125 0.11198 0.51632 0.0
C1139 C 0.41564 0.045 0.53215 0.0
N1140 N 0.49277 0.11393 0.53645 0.0
N1141 N 0.3524 0.04906 0.52473 0.0
H1142 H 0.42876 0.99788 0.54393 0.0
H1143 H 0.38462 0.99558 0.52923 0.0
H1144 H 0.33085 0.06091 0.51812 0.0
H1145 H 0.34474 0.02722 0.53468 0.0
H1146 H 0.49946 0.14005 0.53535 0.0
H1147 H 0.51385 0.10307 0.54556 0.0
H1148 H 0.46493 0.15306 0.50179 0.0
H1149 H 0.41953 0.15334 0.49363 0.0
C1150 C 0.6233 0.44489 0.54067 0.0
C1151 C 0.63713 0.47689 0.56086 0.0
C1152 C 0.69822 0.46649 0.54808 0.0
C1153 C 0.68452 0.43403 0.52848 0.0
N1154 N 0.63492 0.38859 0.51293 0.0
N1155 N 0.6879 0.51473 0.58898 0.0
C1156 C 0.64728 0.42212 0.52677 0.0
C1157 C 0.67468 0.48669 0.56598 0.0
N1158 N 0.58724 0.43669 0.53402 0.0
N1159 N 0.73396 0.4781 0.54964 0.0
H1160 H 0.67157 0.52987 0.60277 0.0
H1161 H 0.71484 0.52132 0.59651 0.0
H1162 H 0.75238 0.46293 0.53928 0.0
H1163 H 0.74523 0.5033 0.55973 0.0
H1164 H 0.57559 0.4158 0.51672 0.0
H1165 H 0.56899 0.45227 0.54428 0.0
H1166 H 0.60864 0.3772 0.51355 0.0
H1167 H 0.65181 0.37108 0.5035 0.0
C1168 C 0.79408 0.27251 0.41009 0.0
C1169 C 0.76515 0.24659 0.39713 0.0
C1170 C 0.7261 0.27536 0.43544 0.0
C1171 C 0.75565 0.3001 0.44954 0.0
N1172 N 0.82 0.3155 0.45537 0.0
N1173 N 0.70499 0.21991 0.40084 0.0
C1174 C 0.79027 0.29666 0.43838 0.0
C1175 C 0.73151 0.24707 0.41082 0.0
N1176 N 0.82487 0.27534 0.39452 0.0
N1177 N 0.69263 0.27951 0.44487 0.0
H1178 H 0.70823 0.19878 0.38325 0.0
H1179 H 0.68102 0.21673 0.41176 0.0
H1180 H 0.68783 0.29946 0.46301 0.0
H1181 H 0.6694 0.26495 0.43317 0.0
H1182 H 0.84557 0.2958 0.40106 0.0
H1183 H 0.82848 0.25928 0.3731 0.0
H1184 H 0.8459 0.31102 0.45046 0.0
H1185 H 0.81915 0.33329 0.4763 0.0
C1186 C 0.52574 0.06265 0.83751 0.0
C1187 C 0.52864 0.04203 0.8613 0.0
C1188 C 0.58671 0.02893 0.84222 0.0
C1189 C 0.58065 0.04481 0.81523 0.0
N1190 N 0.53927 0.07001 0.78414 0.0
N1191 N 0.56011 1.00177 0.88408 0.0
C1192 C 0.5488 0.05996 0.81211 0.0
C1193 C 0.55872 0.02417 0.86316 0.0
N1194 N 0.50073 0.08486 0.83917 0.0
N1195 N 0.6195 0.01979 0.84879 0.0
H1196 H 0.54054 0.99812 0.90012 0.0
H1197 H 0.57934 0.98507 0.88391 0.0
H1198 H 0.64113 0.0241 0.835 0.0
H1199 H 0.62624 1.01121 0.86976 0.0
H1200 H 0.49957 0.10285 0.82406 0.0
H1201 H 0.48374 0.08782 0.85782 0.0
H1202 H 0.51462 0.07802 0.77971 0.0
H1203 H 0.55397 0.06658 0.76399 0.0
C1204 C 0.37075 0.27498 0.42067 0.0
C1205 C 0.37065 0.2585 0.38819 0.0
C1206 C 0.3623 0.2021 0.40616 0.0
C1207 C 0.35378 0.21851 0.43667 0.0
N1208 N 0.3464 0.27165 0.47176 0.0
N1209 N 0.36083 0.20474 0.34987 0.0
C1210 C 0.3575 0.25533 0.44376 0.0
C1211 C 0.36572 0.22153 0.38089 0.0
N1212 N 0.38323 0.30949 0.42941 0.0
N1213 N 0.36563 0.16763 0.40096 0.0
H1214 H 0.35988 0.21783 0.3308 0.0
H1215 H 0.35364 0.17799 0.34334 0.0
H1216 H 0.36277 0.15283 0.41896 0.0
H1217 H 0.37456 0.15484 0.37989 0.0
H1218 H 0.38646 0.32225 0.45316 0.0
H1219 H 0.39391 0.32432 0.41319 0.0
H1220 H 0.34486 0.29818 0.47667 0.0
H1221 H 0.33596 0.25813 0.48888 0.0
C1222 C 0.52444 0.52398 0.91245 0.0
C1223 C 0.55857 0.51263 0.91042 0.0
C1224 C 0.55469 0.51265 0.85246 0.0
C1225 C 0.51865 0.51894 0.85377 0.0
N1226 N 0.4677 0.52723 0.88496 0.0
N1227 N 0.60444 0.49189 0.87753 0.0
C1228 C 0.5032 0.52412 0.88382 0.0
C1229 C 0.57337 0.5061 0.88016 0.0
N1230 N 0.51256 0.53529 0.94177 0.0
N1231 N 0.57113 0.51324 0.8246 0.0
H1232 H 0.61836 0.48567 0.89694 0.0
H1233 H 0.61467 0.48321 0.85573 0.0
H1234 H 0.55815 0.51831 0.80411 0.0
H1235 H 0.59835 0.51224 0.82272 0.0
H1236 H 0.48972 0.54735 0.94489 0.0
H1237 H 0.5272 0.53532 0.96312 0.0
H1238 H 0.45387 0.52661 0.9055 0.0
H1239 H 0.45135 0.52808 0.86483 0.0
C1240 C 0.76828 0.79431 0.08274 0.0
C1241 C 0.78712 0.79114 0.11155 0.0
C1242 C 0.82272 0.75136 0.08059 0.0
C1243 C 0.79883 0.74859 0.05321 0.0
N1244 N 0.76423 0.78215 0.02473 0.0
N1245 N 0.83144 0.76521 0.13825 0.0
C1246 C 0.77571 0.77425 0.05311 0.0
C1247 C 0.81442 0.76959 0.11054 0.0
N1248 N 0.74304 0.81627 0.08374 0.0
N1249 N 0.85501 0.73958 0.07742 0.0
H1250 H 0.82618 0.77792 0.16077 0.0
H1251 H 0.84861 0.74669 0.13899 0.0
H1252 H 0.86445 0.7313 0.0551 0.0
H1253 H 0.87459 0.74329 0.09614 0.0
H1254 H 0.72484 0.8162 0.06468 0.0
H1255 H 0.73915 0.83373 0.10428 0.0
H1256 H 0.74908 0.802 0.02282 0.0
H1257 H 0.77446 0.77255 1.00315 0.0
C1258 C 1.00997 1.00762 0.14473 0.0
C1259 C 0.0476 1.00808 0.14707 0.0
C1260 C 0.04489 1.00714 0.20475 0.0
C1261 C 1.00774 1.0104 0.20295 0.0
N1262 N 0.95712 0.02143 0.17138 0.0
N1263 N 0.10182 0.01454 0.1808 0.0
C1264 C 0.99098 0.01305 0.17301 0.0
C1265 C 0.06533 1.00938 0.17749 0.0
N1266 N 0.99212 1.00108 0.11522 0.0
N1267 N 0.06085 1.00199 0.23261 0.0
H1268 H 0.11775 0.01627 0.16164 0.0
H1269 H 0.11634 0.01987 0.20288 0.0
H1270 H 0.04778 1.00279 0.25368 0.0
H1271 H 0.08641 0.99501 0.23435 0.0
H1272 H 0.96436 0.99675 0.11177 0.0
H1273 H 1.00506 0.99632 0.09407 0.0
H1274 H 0.94503 0.02705 0.15079 0.0
H1275 H 0.94235 0.02651 0.19125 0.0
C1276 C 0.35438 0.8222 0.14063 0.0
C1277 C 0.32694 0.80156 0.15331 0.0
C1278 C 0.28817 0.79923 0.10515 0.0
C1279 C 0.31272 0.82521 0.09573 0.0
N1280 N 0.36943 0.86192 0.10413 0.0
N1281 N 0.26645 0.772 0.14856 0.0
C1282 C 0.34625 0.83643 0.11303 0.0
C1283 C 0.29365 0.78996 0.13558 0.0
N1284 N 0.38816 0.82801 0.155 0.0
N1285 N 0.25961 0.7833 0.08477 0.0
H1286 H 0.26913 0.7647 0.17081 0.0
H1287 H 0.24035 0.76659 0.13835 0.0
H1288 H 0.2553 0.78919 0.06207 0.0
H1289 H 0.24254 0.76191 0.0889 0.0
H1290 H 0.41009 0.84028 0.14548 0.0
H1291 H 0.39483 0.81762 0.17503 0.0
H1292 H 0.39244 0.87422 0.11788 0.0
H1293 H 0.36456 0.87212 0.08362 0.0
C1294 C 0.02139 0.52007 0.14771 0.0
C1295 C 0.03912 0.52918 0.12097 0.0
C1296 C 0.09674 0.53449 0.15141 0.0
C1297 C 0.07929 0.52934 0.17932 0.0
N1298 N 0.02429 0.52155 0.2052 0.0
N1299 N 0.09295 0.55566 0.10167 0.0
C1300 C 0.0413 0.52367 0.17787 0.0
C1301 C 0.07658 0.53977 0.12427 0.0
N1302 N 0.98606 0.50663 0.14405 0.0
N1303 N 0.13256 0.53344 0.15031 0.0
H1304 H 0.07882 0.56137 0.08208 0.0
H1305 H 0.11972 0.56665 0.10441 0.0
H1306 H 0.14787 0.52739 0.16892 0.0
H1307 H 0.14601 0.53429 0.12956 0.0
H1308 H 0.97257 0.4962 0.16171 0.0
H1309 H 0.97086 0.50359 0.12246 0.0
H1310 H 0.9968 0.52111 0.20643 0.0
H1311 H 0.03811 0.52229 0.22712 0.0
C1312 C 0.42605 0.65573 0.2867 0.0
C1313 C 0.41831 0.68463 0.27307 0.0
C1314 C 0.47027 0.72016 0.30293 0.0
C1315 C 0.4741 0.69422 0.32173 0.0
N1316 N 0.45947 0.63468 0.32793 0.0
N1317 N 0.45409 0.72698 0.24948 0.0
C1318 C 0.45339 0.66093 0.31227 0.0
C1319 C 0.4467 0.71195 0.27536 0.0
N1320 N 0.41217 0.62308 0.27167 0.0
N1321 N 0.48844 0.75289 0.31102 0.0
H1322 H 0.43977 0.71798 0.2274 0.0
H1323 H 0.47671 0.74503 0.24918 0.0
H1324 H 0.50492 0.76156 0.33172 0.0
H1325 H 0.48374 0.77255 0.29853 0.0
H1326 H 0.41809 0.60053 0.27896 0.0
H1327 H 0.39906 0.61871 0.24894 0.0
H1328 H 0.44298 0.61098 0.32466 0.0
H1329 H 0.47999 0.63748 0.34578 0.0
C1330 C 0.07213 0.37026 0.98477 0.0
C1331 C 0.06324 0.3936 0.96473 0.0
C1332 C 0.05137 0.34557 0.91911 0.0
C1333 C 0.05627 0.32176 0.93978 0.0
N1334 N 0.06782 0.31044 0.99271 0.0
N1335 N 0.03773 0.40266 0.91439 0.0
C1336 C 0.06573 0.33382 0.97279 0.0
C1337 C 0.05117 0.38104 0.93227 0.0
N1338 N 0.08758 0.38297 0.01485 0.0
N1339 N 0.04684 0.33428 0.88677 0.0
H1340 H 0.0362 0.42871 0.92332 0.0
H1341 H 0.02483 0.39406 0.89175 0.0
H1342 H 0.04562 0.30832 0.87614 0.0
H1343 H 0.04722 0.35097 0.87033 0.0
H1344 H 0.09794 0.36756 0.02947 0.0
H1345 H 0.09255 0.40944 0.02433 0.0
H1346 H 0.07071 0.31735 0.01752 0.0
H1347 H 0.06453 0.28371 0.98437 0.0
C1348 C 0.65591 0.75085 0.27044 0.0
C1349 C 0.65589 0.78582 0.2668 0.0
C1350 C 0.63186 0.79914 0.31939 0.0
C1351 C 0.62565 0.76314 0.32012 0.0
N1352 N 0.63124 0.70411 0.29647 0.0
N1353 N 0.64565 0.84408 0.28775 0.0
C1354 C 0.63834 0.73883 0.2961 0.0
C1355 C 0.64494 0.81037 0.29157 0.0
N1356 N 0.67229 0.7291 0.24901 0.0
N1357 N 0.62525 0.82242 0.34549 0.0
H1358 H 0.65671 0.85334 0.26835 0.0
H1359 H 0.63409 0.86251 0.30296 0.0
H1360 H 0.61616 0.81469 0.36628 0.0
H1361 H 0.63166 0.84917 0.34776 0.0
H1362 H 0.67631 0.70422 0.25188 0.0
H1363 H 0.68477 0.73709 0.22967 0.0
H1364 H 0.63564 0.68487 0.27759 0.0
H1365 H 0.61892 0.69423 0.31499 0.0
C1366 C 0.03822 0.12547 0.98877 0.0
C1367 C 0.07035 0.13942 1.00781 0.0
C1368 C 0.08105 0.18463 0.97511 0.0
C1369 C 0.04943 0.17011 0.95564 0.0
N1370 N 1.008 0.11847 0.93623 0.0
N1371 N 0.12795 0.17448 0.01153 0.0
C1372 C 0.03095 0.13798 0.96009 0.0
C1373 C 0.09363 0.16645 0.9984 0.0
N1374 N 0.01374 0.10169 0.99854 0.0
N1375 N 0.09843 0.21637 0.97236 0.0
H1376 H 0.13827 0.1608 0.02787 0.0
H1377 H 0.14704 0.19192 1.00362 0.0
H1378 H 0.09025 0.23069 0.9557 0.0
H1379 H 0.11925 0.22974 0.98841 0.0
H1380 H 0.98855 0.09346 0.98674 0.0
H1381 H 0.01723 0.09256 0.01982 0.0
H1382 H 0.99568 0.0936 0.93735 0.0
H1383 H 1.00528 0.12548 0.91381 0.0
C1384 C 0.42863 0.26247 0.27494 0.0
C1385 C 0.41941 0.29562 0.28712 0.0
C1386 C 0.45392 0.3176 0.24481 0.0
C1387 C 0.46598 0.28468 0.23579 0.0
N1388 N 0.47802 0.23375 0.25697 0.0
N1389 N 0.43539 0.35743 0.28922 0.0
C1390 C 0.45802 0.25997 0.25599 0.0
C1391 C 0.4356 0.3242 0.27375 0.0
N1392 N 0.40795 0.23291 0.27896 0.0
N1393 N 0.45883 0.34233 0.22617 0.0
H1394 H 0.42557 0.36321 0.31173 0.0
H1395 H 0.44906 0.37878 0.28153 0.0
H1396 H 0.47247 0.33942 0.20544 0.0
H1397 H 0.44711 0.36504 0.23053 0.0
H1398 H 0.41364 0.20829 0.269 0.0
H1399 H 0.38268 0.23337 0.2876 0.0
H1400 H 0.47306 0.21612 0.2724 0.0
H1401 H 0.50173 0.23252 0.24545 0.0
C1402 C 0.56945 0.39616 0.08683 0.0
C1403 C 0.54923 0.39159 0.05711 0.0
C1404 C 0.50139 0.35491 0.07817 0.0
C1405 C 0.52472 0.35395 0.10503 0.0
N1406 N 0.57084 0.38824 0.14218 0.0
N1407 N 0.49474 0.3687 0.02489 0.0
C1408 C 0.55578 0.37911 0.11163 0.0
C1409 C 0.51451 0.37206 0.05318 0.0
N1410 N 0.60266 0.41514 0.0907 0.0
N1411 N 0.46618 0.34168 0.07763 0.0
H1412 H 0.50265 0.38254 1.00705 0.0
H1413 H 0.47146 0.35123 0.01851 0.0
H1414 H 0.45496 0.33357 0.09743 0.0
H1415 H 0.44713 0.34335 0.05977 0.0
H1416 H 0.62075 0.41574 0.11003 0.0
H1417 H 0.61288 0.42897 0.07361 0.0
H1418 H 0.5919 0.40821 0.14932 0.0
H1419 H 0.55898 0.37897 0.16124 0.0
C1420 C 0.63836 0.24501 0.24246 0.0
C1421 C 0.65848 0.21812 0.23068 0.0
C1422 C 0.61259 0.19555 0.18696 0.0
C1423 C 0.5914 0.22122 0.19951 0.0
N1424 N 0.58101 0.26648 0.24261 0.0
N1425 N 0.66062 0.16289 0.19694 0.0
C1426 C 0.60331 0.24468 0.22843 0.0
C1427 C 0.64404 0.19168 0.20473 0.0
N1428 N 0.65339 0.27178 0.26593 0.0
N1429 N 0.60427 0.17665 0.15695 0.0
H1430 H 0.68365 0.15927 0.20965 0.0
H1431 H 0.64957 0.14126 0.18013 0.0
H1432 H 0.58295 0.18069 0.14246 0.0
H1433 H 0.62064 0.15996 0.14522 0.0
H1434 H 0.64183 0.2942 0.27299 0.0
H1435 H 0.67872 0.27263 0.27696 0.0
H1436 H 0.58658 0.28155 0.26535 0.0
H1437 H 0.55552 0.26746 0.23273 0.0
C1438 C 0.5138 0.13354 0.04788 0.0
C1439 C 0.47885 0.12658 0.03265 0.0
C1440 C 0.46375 0.18046 0.06468 0.0
C1441 C 0.49894 0.1876 0.07981 0.0
N1442 N 0.55996 0.17554 0.07931 0.0
N1443 N 0.42303 0.14654 0.0214 0.0
C1444 C 0.52479 0.16569 0.06921 0.0
C1445 C 0.45456 0.15103 0.03961 0.0
N1446 N 0.53598 0.10866 0.04331 0.0
N1447 N 0.43909 0.20196 0.07407 0.0
H1448 H 0.41599 0.12576 1.00246 0.0
H1449 H 0.40527 0.16471 0.02295 0.0
H1450 H 0.44544 0.22568 0.0896 0.0
H1451 H 0.41187 0.19569 0.06762 0.0
H1452 H 0.55988 0.11017 0.05692 0.0
H1453 H 0.52925 0.08515 0.02747 0.0
H1454 H 0.58043 0.16253 0.06981 0.0
H1455 H 0.56923 0.19836 0.09529 0.0
C1456 C 0.33902 0.39637 0.73913 0.0
C1457 C 0.32444 0.39208 0.70685 0.0
C1458 C 0.36269 0.44578 0.7017 0.0
C1459 C 0.37474 0.45105 0.73453 0.0
N1460 N 0.36156 0.43817 0.7865 0.0
N1461 N 0.31345 0.42148 0.66283 0.0
C1462 C 0.35864 0.42865 0.75397 0.0
C1463 C 0.33362 0.41938 0.68962 0.0
N1464 N 0.33642 0.36929 0.75526 0.0
N1465 N 0.37951 0.46501 0.68165 0.0
H1466 H 0.28994 0.4047 0.65501 0.0
H1467 H 0.31757 0.44247 0.65098 0.0
H1468 H 0.40175 0.48364 0.68909 0.0
H1469 H 0.3736 0.45973 0.65698 0.0
H1470 H 0.34562 0.37176 0.77904 0.0
H1471 H 0.32975 0.34354 0.74391 0.0
H1472 H 0.34763 0.42383 0.80148 0.0
H1473 H 0.37432 0.4623 0.79826 0.0
C1474 C 0.32559 0.61756 0.8284 0.0
C1475 C 0.34077 0.65267 0.83903 0.0
C1476 C 0.40083 0.63462 0.83388 0.0
C1477 C 0.38541 0.60062 0.81857 0.0
N1478 N 0.33187 0.562 0.79635 0.0
N1479 N 0.3933 0.69539 0.84925 0.0
C1480 C 0.34743 0.59254 0.81487 0.0
C1481 C 0.37858 0.66137 0.84128 0.0
N1482 N 0.29001 0.60809 0.83117 0.0
N1483 N 0.43665 0.64116 0.84229 0.0
H1484 H 0.37807 0.71542 0.85555 0.0
H1485 H 0.42025 0.70392 0.84758 0.0
H1486 H 0.45349 0.62216 0.83806 0.0
H1487 H 0.44899 0.66434 0.85622 0.0
H1488 H 0.27792 0.58236 0.82691 0.0
H1489 H 0.27339 0.62575 0.84094 0.0
H1490 H 0.30455 0.55645 0.79003 0.0
H1491 H 0.34631 0.54364 0.78431 0.0
C1492 C 0.90249 0.48812 0.52912 0.0
C1493 C 0.89976 0.51497 0.51125 0.0
C1494 C 0.83522 0.49595 0.50241 0.0
C1495 C 0.83931 0.46517 0.51466 0.0
N1496 N 0.87966 0.42979 0.53475 0.0
N1497 N 0.86361 0.54317 0.47872 0.0
C1498 C 0.87359 0.46084 0.52718 0.0
C1499 C 0.86604 0.51883 0.49759 0.0
N1500 N 0.93275 0.48869 0.54808 0.0
N1501 N 0.8018 0.50344 0.49551 0.0
H1502 H 0.88557 0.56032 0.47471 0.0
H1503 H 0.84045 0.54457 0.4651 0.0
H1504 H 0.77863 0.4875 0.49877 0.0
H1505 H 0.79703 0.527 0.48955 0.0
H1506 H 0.93481 0.47156 0.5639 0.0
H1507 H 0.95426 0.50854 0.55054 0.0
H1508 H 0.9051 0.42432 0.54063 0.0
H1509 H 0.86015 0.40823 0.53201 0.0
C1510 C 0.72088 0.90589 0.80943 0.0
C1511 C 0.7586 0.91512 0.81215 0.0
C1512 C 0.75205 0.96132 0.78125 0.0
C1513 C 0.71433 0.95575 0.78313 0.0
N1514 N 0.6626 0.92364 0.80044 0.0
N1515 N 0.8104 0.95282 0.80209 0.0
C1516 C 0.69859 0.92788 0.79715 0.0
C1517 C 0.77429 0.94291 0.79808 0.0
N1518 N 0.70651 0.87601 0.81875 0.0
N1519 N 0.7666 0.98359 0.76259 0.0
H1520 H 0.82767 0.93917 0.81309 0.0
H1521 H 0.82305 0.97564 0.79622 0.0
H1522 H 0.75121 0.99692 0.74938 0.0
H1523 H 0.79342 0.98625 0.75764 0.0
H1524 H 0.67957 0.86589 0.81488 0.0
H1525 H 0.72229 0.85961 0.82778 0.0
H1526 H 0.64993 0.90639 0.81361 0.0
H1527 H 0.64554 0.9392 0.79186 0.0
C1528 C 0.69591 0.54591 0.96282 0.0
C1529 C 0.66863 0.54977 0.98452 0.0
C1530 C 0.7083 0.59778 0.01882 0.0
C1531 C 0.73369 0.59679 0.99512 0.0
N1532 N 0.75159 0.56971 0.94399 0.0
N1533 N 0.64714 0.58158 0.03162 0.0
C1534 C 0.72735 0.57087 0.9669 0.0
C1535 C 0.67449 0.57613 0.01227 0.0
N1536 N 0.69249 0.51723 0.9391 0.0
N1537 N 0.7164 0.61949 0.04765 0.0
H1538 H 0.62228 0.56615 0.02775 0.0
H1539 H 0.64807 0.60287 0.05004 0.0
H1540 H 0.73977 0.63713 0.05268 0.0
H1541 H 0.70096 0.61867 0.0672 0.0
H1542 H 0.71273 0.5107 0.92438 0.0
H1543 H 0.67047 0.4979 0.93602 0.0
H1544 H 0.74612 0.5553 0.92098 0.0
H1545 H 0.77678 0.58444 0.94722 0.0
C1546 C 0.2712 0.62018 0.21022 0.0
C1547 C 0.28644 0.63999 0.23983 0.0
C1548 C 0.24553 0.60495 0.26829 0.0
C1549 C 0.22682 0.5883 0.23881 0.0
N1550 N 0.22017 0.5826 0.18144 0.0
N1551 N 0.28224 0.65673 0.29647 0.0
C1552 C 0.23928 0.59658 0.20965 0.0
C1553 C 0.2719 0.63392 0.2687 0.0
N1554 N 0.28788 0.62299 0.18279 0.0
N1555 N 0.23939 0.59242 0.2958 0.0
H1556 H 0.29876 0.68003 0.29694 0.0
H1557 H 0.27132 0.65463 0.31817 0.0
H1558 H 0.22152 0.57037 0.29675 0.0
H1559 H 0.25491 0.60174 0.31713 0.0
H1560 H 0.28024 0.60656 0.16099 0.0
H1561 H 0.31139 0.63981 0.18235 0.0
H1562 H 0.22549 0.59056 0.15988 0.0
H1563 H 0.19689 0.56526 0.1802 0.0
C1564 C 0.91781 0.54424 0.03164 0.0
C1565 C 0.95415 0.55963 0.03641 0.0
C1566 C 0.93836 0.60955 0.01385 0.0
C1567 C 0.90158 0.59574 0.01192 0.0
N1568 N 0.85571 0.55206 0.02336 0.0
N1569 N 0.99889 0.6084 0.03507 0.0
C1570 C 0.89114 0.56349 0.02174 0.0
C1571 C 0.96436 0.59274 0.02835 0.0
N1572 N 0.90879 0.51089 0.03614 0.0
N1573 N 0.94853 0.63819 1.00074 0.0
H1574 H 0.01871 0.59659 0.04499 0.0
H1575 H 1.00742 0.634 0.03312 0.0
H1576 H 0.93028 0.6506 0.98942 0.0
H1577 H 0.97501 0.64778 0.99838 0.0
H1578 H 0.88373 0.49659 0.0293 0.0
H1579 H 0.92715 0.49656 0.04476 0.0
H1580 H 0.84649 0.53116 0.03405 0.0
H1581 H 0.83528 0.56495 0.01618 0.0
C1582 C 0.12322 0.94636 0.03571 0.0
C1583 C 0.13468 0.97324 0.06236 0.0
C1584 C 0.19577 0.95757 0.05982 0.0
C1585 C 0.18416 0.93017 0.03342 0.0
N1586 N 0.13465 0.89211 1.00374 0.0
N1587 N 0.1804 1.00094 0.10318 0.0
C1588 C 0.14724 0.92285 0.02334 0.0
C1589 C 0.17058 0.97777 0.07537 0.0
N1590 N 0.08939 0.94342 0.02197 0.0
N1591 N 0.23116 0.96458 0.06992 0.0
H1592 H 0.16318 0.0169 0.11468 0.0
H1593 H 0.20469 1.00281 0.11625 0.0
H1594 H 0.24996 0.94903 0.06103 0.0
H1595 H 0.24246 0.98677 0.08586 0.0
H1596 H 0.08062 0.92694 1.00042 0.0
H1597 H 0.07083 0.95936 0.03097 0.0
H1598 H 0.10764 0.8837 0.99746 0.0
H1599 H 0.15096 0.87306 0.99715 0.0
loop_
_geom_bond_atom_site_label_1
_geom_bond_atom_site_label_2
_geom_bond_distance
_geom_bond_site_symmetry_2
_ccdc_geom_bond_type
H0 C1 0.949 . S
C1 H0 0.949 . S
C1 C2 1.395 1_545 S
C1 C3 1.391 . S
C2 C1 1.395 1_565 S
C2 C5 1.390 . S
C3 C1 1.391 . S
C3 C7 1.387 . S
C3 C8 1.491 . S
H4 C5 0.950 . S
C5 C2 1.390 . S
C5 H4 0.950 . S
C5 C6 1.378 1_565 S
C6 C5 1.378 1_545 S
C6 C7 1.409 . S
C7 C3 1.387 . S
C7 C6 1.409 . S
C7 H9 0.951 . S
C8 C3 1.491 . S
C8 C10 1.382 1_554 S
C8 C12 1.404 . S
H9 C7 0.951 . S
C10 C8 1.382 1_556 S
C10 C11 1.390 . S
C10 H15 0.949 . S
C11 C10 1.390 . S
C11 C16 1.399 . S
C12 C8 1.404 . S
C12 H13 0.950 . S
C12 C14 1.375 . S
H13 C12 0.950 . S
C14 C12 1.375 . S
C14 C16 1.382 1_554 S
C14 H18 0.950 . S
H15 C10 0.949 . S
C16 C11 1.399 . S
C16 C14 1.382 1_556 S
C16 H17 0.952 . S
H17 C16 0.952 . S
H18 C14 0.950 . S
H19 C20 0.949 . S
C20 H19 0.949 . S
C20 C21 1.395 . S
C20 C22 1.391 . S
C21 C20 1.395 . S
C21 C24 1.390 . S
C22 C20 1.391 . S
C22 C26 1.387 . S
C22 C27 1.491 . S
H23 C24 0.950 . S
C24 C21 1.390 . S
C24 H23 0.950 . S
C24 C25 1.378 . S
C25 C24 1.378 . S
C25 C26 1.409 . S
C26 C22 1.387 . S
C26 C25 1.409 . S
C26 H28 0.951 . S
C27 C22 1.491 . S
C27 C29 1.382 . S
C27 C31 1.404 . S
H28 C26 0.951 . S
C29 C27 1.382 . S
C29 C30 1.390 . S
C29 H34 0.949 . S
C30 C29 1.390 . S
C30 C35 1.399 . S
C31 C27 1.404 . S
C31 H32 0.950 . S
C31 C33 1.375 . S
H32 C31 0.950 . S
C33 C31 1.375 . S
C33 C35 1.382 . S
C33 H37 0.950 . S
H34 C29 0.949 . S
C35 C30 1.399 . S
C35 C33 1.382 . S
C35 H36 0.952 . S
H36 C35 0.952 . S
H37 C33 0.950 . S
H38 C39 0.949 . S
C39 H38 0.949 . S
C39 C40 1.395 . S
C39 C41 1.391 1_455 S
C40 C39 1.395 . S
C40 C43 1.390 1_455 S
C41 C39 1.391 1_655 S
C41 C45 1.387 . S
C41 C46 1.491 1_654 S
H42 C43 0.950 . S
C43 C40 1.390 1_655 S
C43 H42 0.950 . S
C43 C44 1.378 . S
C44 C43 1.378 . S
C44 C45 1.409 . S
C45 C41 1.387 . S
C45 C44 1.409 . S
C45 H47 0.951 1_554 S
C46 C41 1.491 1_456 S
C46 C48 1.381 . S
C46 C50 1.404 . S
H47 C45 0.951 1_556 S
C48 C46 1.381 . S
C48 C49 1.390 . S
C48 H53 0.931 1_556 S
C49 C48 1.390 . S
C49 C54 1.399 . S
C50 C46 1.404 . S
C50 H51 0.947 1_455 S
C50 C52 1.377 . S
H51 C50 0.947 1_655 S
C52 C50 1.377 . S
C52 C54 1.382 . S
C52 H56 0.950 . S
H53 C48 0.931 1_554 S
C54 C49 1.399 . S
C54 C52 1.382 . S
C54 H55 0.952 . S
H55 C54 0.952 . S
H56 C52 0.950 . S
H57 C58 0.949 . S
C58 H57 0.949 . S
C58 C59 1.395 . S
C58 C60 1.391 . S
C59 C58 1.395 . S
C59 C62 1.390 . S
C60 C58 1.391 . S
C60 C64 1.387 . S
C60 C65 1.491 . S
H61 C62 0.950 . S
C62 C59 1.390 . S
C62 H61 0.950 . S
C62 C63 1.378 . S
C63 C62 1.378 . S
C63 C64 1.409 . S
C64 C60 1.387 . S
C64 C63 1.409 . S
C64 H66 0.951 . S
C65 C60 1.491 . S
C65 C67 1.382 . S
C65 C69 1.404 . S
H66 C64 0.951 . S
C67 C65 1.382 . S
C67 C68 1.390 . S
C67 H72 0.949 . S
C68 C67 1.390 . S
C68 C73 1.399 . S
C69 C65 1.404 . S
C69 H70 0.950 . S
C69 C71 1.375 . S
H70 C69 0.950 . S
C71 C69 1.375 . S
C71 C73 1.382 . S
C71 H75 0.950 . S
H72 C67 0.949 . S
C73 C68 1.399 . S
C73 C71 1.382 . S
C73 H74 0.952 . S
H74 C73 0.952 . S
H75 C71 0.950 . S
H76 C77 0.949 . S
C77 H76 0.949 . S
C77 C78 1.395 1_565 S
C77 C79 1.391 . S
C78 C77 1.395 1_545 S
C78 C81 1.390 . S
C79 C77 1.391 . S
C79 C83 1.387 . S
C79 C84 1.491 . S
H80 C81 0.950 . S
C81 C78 1.390 . S
C81 H80 0.950 . S
C81 C82 1.378 1_545 S
C82 C81 1.378 1_565 S
C82 C83 1.409 . S
C83 C79 1.387 . S
C83 C82 1.409 . S
C83 H85 0.951 . S
C84 C79 1.491 . S
C84 C86 1.382 . S
C84 C88 1.404 . S
H85 C83 0.951 . S
C86 C84 1.382 . S
C86 C87 1.390 . S
C86 H91 0.949 . S
C87 C86 1.390 . S
C87 C92 1.399 . S
C88 C84 1.404 . S
C88 H89 0.950 . S
C88 C90 1.375 . S
H89 C88 0.950 . S
C90 C88 1.375 . S
C90 C92 1.382 . S
C90 H94 0.950 . S
H91 C86 0.949 . S
C92 C87 1.399 . S
C92 C90 1.382 . S
C92 H93 0.952 . S
H93 C92 0.952 . S
H94 C90 0.950 . S
H95 C96 0.949 . S
C96 H95 0.949 . S
C96 C97 1.395 . S
C96 C98 1.391 . S
C97 C96 1.395 . S
C97 C100 1.390 . S
C98 C96 1.391 . S
C98 C102 1.387 . S
C98 C103 1.491 . S
H99 C100 0.950 . S
C100 C97 1.390 . S
C100 H99 0.950 . S
C100 C101 1.378 . S
C101 C100 1.378 . S
C101 C102 1.409 . S
C102 C98 1.387 . S
C102 C101 1.409 . S
C102 H104 0.951 . S
C103 C98 1.491 . S
C103 C105 1.382 . S
C103 C107 1.404 . S
H104 C102 0.951 . S
C105 C103 1.382 . S
C105 C106 1.390 . S
C105 H110 0.949 . S
C106 C105 1.390 . S
C106 C111 1.399 . S
C107 C103 1.404 . S
C107 H108 0.950 . S
C107 C109 1.375 . S
H108 C107 0.950 . S
C109 C107 1.375 . S
C109 C111 1.382 . S
C109 H113 0.950 . S
H110 C105 0.949 . S
C111 C106 1.399 . S
C111 C109 1.382 . S
C111 H112 0.952 . S
H112 C111 0.952 . S
H113 C109 0.950 . S
H114 C115 0.949 1_455 S
C115 H114 0.949 1_655 S
C115 C116 1.395 . S
C115 C117 1.391 . S
C116 C115 1.395 . S
C116 C119 1.390 . S
C117 C115 1.391 . S
C117 C121 1.387 . S
C117 C122 1.491 . S
H118 C119 0.950 . S
C119 C116 1.390 . S
C119 H118 0.950 . S
C119 C120 1.378 . S
C120 C119 1.378 . S
C120 C121 1.409 . S
C121 C117 1.387 . S
C121 C120 1.409 . S
C121 H123 0.951 . S
C122 C117 1.491 . S
C122 C124 1.382 1_655 S
C122 C126 1.404 . S
H123 C121 0.951 . S
C124 C122 1.382 1_455 S
C124 C125 1.390 . S
C124 H129 0.949 . S
C125 C124 1.390 . S
C125 C130 1.399 . S
C126 C122 1.404 . S
C126 H127 0.950 . S
C126 C128 1.375 . S
H127 C126 0.950 . S
C128 C126 1.375 . S
C128 C130 1.382 1_655 S
C128 H132 0.950 . S
H129 C124 0.949 . S
C130 C125 1.399 . S
C130 C128 1.382 1_455 S
C130 H131 0.952 . S
H131 C130 0.952 . S
H132 C128 0.950 . S
H133 C134 0.949 . S
C134 H133 0.949 . S
C134 C135 1.395 . S
C134 C136 1.391 . S
C135 C134 1.395 . S
C135 C138 1.390 . S
C136 C134 1.391 . S
C136 C140 1.387 . S
C136 C141 1.491 . S
H137 C138 0.950 . S
C138 C135 1.390 . S
C138 H137 0.950 . S
C138 C139 1.378 . S
C139 C138 1.378 . S
C139 C140 1.409 . S
C140 C136 1.387 . S
C140 C139 1.409 . S
C140 H142 0.951 . S
C141 C136 1.491 . S
C141 C143 1.382 . S
C141 C145 1.404 . S
H142 C140 0.951 . S
C143 C141 1.382 . S
C143 C144 1.390 . S
C143 H148 0.949 . S
C144 C143 1.390 . S
C144 C149 1.399 . S
C145 C141 1.404 . S
C145 H146 0.950 . S
C145 C147 1.375 . S
H146 C145 0.950 . S
C147 C145 1.375 . S
C147 C149 1.382 . S
C147 H151 0.950 . S
H148 C143 0.949 . S
C149 C144 1.399 . S
C149 C147 1.382 . S
C149 H150 0.952 . S
H150 C149 0.952 . S
H151 C147 0.950 . S
H152 C153 0.949 . S
C153 H152 0.949 . S
C153 C154 1.395 . S
C153 C155 1.391 . S
C154 C153 1.395 . S
C154 C157 1.390 . S
C155 C153 1.391 . S
C155 C159 1.387 . S
C155 C160 1.491 . S
H156 C157 0.950 . S
C157 C154 1.390 . S
C157 H156 0.950 . S
C157 C158 1.378 . S
C158 C157 1.378 . S
C158 C159 1.409 . S
C159 C155 1.387 . S
C159 C158 1.409 . S
C159 H161 0.951 . S
C160 C155 1.491 . S
C160 C162 1.382 . S
C160 C164 1.404 . S
H161 C159 0.951 . S
C162 C160 1.382 . S
C162 C163 1.390 . S
C162 H167 0.949 . S
C163 C162 1.390 . S
C163 C168 1.399 . S
C164 C160 1.404 . S
C164 H165 0.950 . S
C164 C166 1.375 . S
H165 C164 0.950 . S
C166 C164 1.375 . S
C166 C168 1.382 . S
C166 H170 0.950 . S
H167 C162 0.949 . S
C168 C163 1.399 . S
C168 C166 1.382 . S
C168 H169 0.952 . S
H169 C168 0.952 . S
H170 C166 0.950 . S
H171 C172 0.949 . S
C172 H171 0.949 . S
C172 C173 1.395 . S
C172 C174 1.391 . S
C173 C172 1.395 . S
C173 C176 1.390 1_565 S
C174 C172 1.391 . S
C174 C178 1.387 . S
C174 C179 1.491 . S
H175 C176 0.950 . S
C176 C173 1.390 1_545 S
C176 H175 0.950 . S
C176 C177 1.378 . S
C177 C176 1.378 . S
C177 C178 1.409 1_545 S
C178 C174 1.387 . S
C178 C177 1.409 1_565 S
C178 H180 0.951 . S
C179 C174 1.491 . S
C179 C181 1.382 . S
C179 C183 1.404 . S
H180 C178 0.951 . S
C181 C179 1.382 . S
C181 C182 1.390 . S
C181 H186 0.949 . S
C182 C181 1.390 . S
C182 C187 1.399 . S
C183 C179 1.404 . S
C183 H184 0.950 . S
C183 C185 1.375 . S
H184 C183 0.950 . S
C185 C183 1.375 . S
C185 C187 1.382 . S
C185 H189 0.950 . S
H186 C181 0.949 . S
C187 C182 1.399 . S
C187 C185 1.382 . S
C187 H188 0.952 . S
H188 C187 0.952 . S
H189 C185 0.950 . S
H190 C191 0.949 . S
C191 H190 0.949 . S
C191 C192 1.395 . S
C191 C193 1.391 . S
C192 C191 1.395 . S
C192 C195 1.390 . S
C193 C191 1.391 . S
C193 C197 1.387 . S
C193 C198 1.491 . S
H194 C195 0.950 . S
C195 C192 1.390 . S
C195 H194 0.950 . S
C195 C196 1.378 . S
C196 C195 1.378 . S
C196 C197 1.409 . S
C197 C193 1.387 . S
C197 C196 1.409 . S
C197 H199 0.951 . S
C198 C193 1.491 . S
C198 C200 1.382 . S
C198 C202 1.404 . S
H199 C197 0.951 . S
C200 C198 1.382 . S
C200 C201 1.390 . S
C200 H205 0.949 . S
C201 C200 1.390 . S
C201 C206 1.399 . S
C202 C198 1.404 . S
C202 H203 0.950 . S
C202 C204 1.375 . S
H203 C202 0.950 . S
C204 C202 1.375 . S
C204 C206 1.382 . S
C204 H208 0.950 . S
H205 C200 0.949 . S
C206 C201 1.399 . S
C206 C204 1.382 . S
C206 H207 0.952 . S
H207 C206 0.952 . S
H208 C204 0.950 . S
H209 C210 0.949 . S
C210 H209 0.949 . S
C210 C211 1.395 . S
C210 C212 1.391 . S
C211 C210 1.395 . S
C211 C214 1.390 . S
C212 C210 1.391 . S
C212 C216 1.387 . S
C212 C217 1.491 . S
H213 C214 0.950 . S
C214 C211 1.390 . S
C214 H213 0.950 . S
C214 C215 1.378 . S
C215 C214 1.378 . S
C215 C216 1.409 . S
C216 C212 1.387 . S
C216 C215 1.409 . S
C216 H218 0.951 . S
C217 C212 1.491 . S
C217 C219 1.382 . S
C217 C221 1.404 . S
H218 C216 0.951 . S
C219 C217 1.382 . S
C219 C220 1.390 . S
C219 H224 0.949 . S
C220 C219 1.390 . S
C220 C225 1.399 . S
C221 C217 1.404 . S
C221 H222 0.950 . S
C221 C223 1.375 . S
H222 C221 0.950 . S
C223 C221 1.375 . S
C223 C225 1.382 . S
C223 H227 0.950 . S
H224 C219 0.949 . S
C225 C220 1.399 . S
C225 C223 1.382 . S
C225 H226 0.952 . S
H226 C225 0.952 . S
H227 C223 0.950 . S
H228 C229 0.949 . S
C229 H228 0.949 . S
C229 C230 1.395 . S
C229 C231 1.391 . S
C230 C229 1.395 . S
C230 C233 1.390 . S
C231 C229 1.391 . S
C231 C235 1.387 . S
C231 C236 1.491 . S
H232 C233 0.950 . S
C233 C230 1.390 . S
C233 H232 0.950 . S
C233 C234 1.378 . S
C234 C233 1.378 . S
C234 C235 1.409 . S
C235 C231 1.387 . S
C235 C234 1.409 . S
C235 H237 0.951 . S
C236 C231 1.491 . S
C236 C238 1.382 . S
C236 C240 1.404 . S
H237 C235 0.951 . S
C238 C236 1.382 . S
C238 C239 1.390 . S
C238 H243 0.949 . S
C239 C238 1.390 . S
C239 C244 1.399 . S
C240 C236 1.404 . S
C240 H241 0.950 . S
C240 C242 1.375 . S
H241 C240 0.950 . S
C242 C240 1.375 . S
C242 C244 1.382 . S
C242 H246 0.950 . S
H243 C238 0.949 . S
C244 C239 1.399 . S
C244 C242 1.382 . S
C244 H245 0.952 . S
H245 C244 0.952 . S
H246 C242 0.950 . S
H247 C248 0.949 1_554 S
C248 H247 0.949 1_556 S
C248 C249 1.395 . S
C248 C250 1.391 . S
C249 C248 1.395 . S
C249 C252 1.390 . S
C250 C248 1.391 . S
C250 C254 1.387 . S
C250 C255 1.491 . S
H251 C252 0.950 . S
C252 C249 1.390 . S
C252 H251 0.950 . S
C252 C253 1.378 . S
C253 C252 1.378 . S
C253 C254 1.409 . S
C254 C250 1.387 . S
C254 C253 1.409 . S
C254 H256 0.951 . S
C255 C250 1.491 . S
C255 C257 1.382 1_556 S
C255 C259 1.404 . S
H256 C254 0.951 . S
C257 C255 1.382 1_554 S
C257 C258 1.390 . S
C257 H262 0.949 . S
C258 C257 1.390 . S
C258 C263 1.399 . S
C259 C255 1.404 . S
C259 H260 0.950 . S
C259 C261 1.375 . S
H260 C259 0.950 . S
C261 C259 1.375 . S
C261 C263 1.382 1_556 S
C261 H265 0.950 . S
H262 C257 0.949 . S
C263 C258 1.399 . S
C263 C261 1.382 1_554 S
C263 H264 0.952 . S
H264 C263 0.952 . S
H265 C261 0.950 . S
H266 C267 0.949 . S
C267 H266 0.949 . S
C267 C268 1.395 . S
C267 C269 1.391 . S
C268 C267 1.395 . S
C268 C271 1.390 . S
C269 C267 1.391 . S
C269 C273 1.387 . S
C269 C274 1.491 . S
H270 C271 0.950 . S
C271 C268 1.390 . S
C271 H270 0.950 . S
C271 C272 1.378 . S
C272 C271 1.378 . S
C272 C273 1.409 . S
C273 C269 1.387 . S
C273 C272 1.409 . S
C273 H275 0.951 . S
C274 C269 1.491 . S
C274 C276 1.382 . S
C274 C278 1.404 . S
H275 C273 0.951 . S
C276 C274 1.382 . S
C276 C277 1.390 . S
C276 H281 0.949 . S
C277 C276 1.390 . S
C277 C282 1.399 . S
C278 C274 1.404 . S
C278 H279 0.950 . S
C278 C280 1.375 . S
H279 C278 0.950 . S
C280 C278 1.375 . S
C280 C282 1.382 . S
C280 H284 0.950 . S
H281 C276 0.949 . S
C282 C277 1.399 . S
C282 C280 1.382 . S
C282 H283 0.952 . S
H283 C282 0.952 . S
H284 C280 0.950 . S
H285 C286 0.949 . S
C286 H285 0.949 . S
C286 C287 1.395 1_556 S
C286 C288 1.391 . S
C287 C286 1.395 1_554 S
C287 C290 1.390 . S
C288 C286 1.391 . S
C288 C292 1.387 . S
C288 C293 1.491 . S
H289 C290 0.950 . S
C290 C287 1.390 . S
C290 H289 0.950 . S
C290 C291 1.378 1_554 S
C291 C290 1.378 1_556 S
C291 C292 1.409 . S
C292 C288 1.387 . S
C292 C291 1.409 . S
C292 H294 0.951 1_545 S
C293 C288 1.491 . S
C293 C295 1.382 . S
C293 C297 1.404 . S
H294 C292 0.951 1_565 S
C295 C293 1.382 . S
C295 C296 1.390 . S
C295 H300 0.949 . S
C296 C295 1.390 . S
C296 C301 1.399 . S
C297 C293 1.404 . S
C297 H298 0.950 . S
C297 C299 1.375 . S
H298 C297 0.950 . S
C299 C297 1.375 . S
C299 C301 1.382 . S
C299 H303 0.950 . S
H300 C295 0.949 . S
C301 C296 1.399 . S
C301 C299 1.382 . S
C301 H302 0.952 . S
H302 C301 0.952 . S
H303 C299 0.950 . S
Mn304 O309 2.095 . S
Mn304 O319 2.162 . S
Mn304 O320 2.297 . S
Mn304 O328 2.385 . S
Mn304 O329 2.209 1_554 S
Mn304 O330 2.094 . S
Mn305 O310 2.121 1_556 S
Mn305 N312 2.257 . S
Mn305 N321 2.282 . S
Mn305 O329 2.215 . S
Mn305 O331 2.117 1_556 S
C306 O328 1.234 1_556 S
C306 O329 1.283 . S
C307 O319 1.281 . S
C307 O320 1.236 . S
C308 O330 1.240 . S
C308 O331 1.264 . S
O309 Mn304 2.095 . S
O309 C318 1.250 . S
O310 Mn305 2.121 1_554 S
O310 C318 1.258 . S
C311 N312 1.326 . S
C311 C315 1.460 . S
C311 H317 0.929 . S
N312 Mn305 2.257 . S
N312 C311 1.326 . S
N312 C316 1.362 . S
C313 C314 1.258 . S
C313 C316 1.431 . S
C313 C333 1.449 . S
C314 C313 1.258 . S
C314 C315 1.477 . S
C314 H334 0.931 . S
C315 C311 1.460 . S
C315 C314 1.477 . S
C315 H335 0.930 . S
C316 N312 1.362 . S
C316 C313 1.431 . S
C316 C326 1.476 . S
H317 C311 0.929 . S
C318 O309 1.250 . S
C318 O310 1.258 . S
O319 Mn304 2.162 . S
O319 C307 1.281 . S
O320 Mn304 2.297 . S
O320 C307 1.236 . S
N321 Mn305 2.282 . S
N321 C322 1.328 . S
N321 C326 1.318 . S
C322 N321 1.328 . S
C322 C323 1.457 . S
C322 H327 0.929 . S
C323 C322 1.457 . S
C323 C324 1.291 . S
C323 H336 0.931 . S
C324 C323 1.291 . S
C324 C325 1.373 . S
C324 H337 0.929 . S
C325 C324 1.373 . S
C325 C326 1.396 . S
C325 C332 1.403 . S
C326 C316 1.476 . S
C326 N321 1.318 . S
C326 C325 1.396 . S
H327 C322 0.929 . S
O328 Mn304 2.385 . S
O328 C306 1.234 1_554 S
O329 Mn304 2.209 1_556 S
O329 Mn305 2.215 . S
O329 C306 1.283 . S
O330 Mn304 2.094 . S
O330 C308 1.240 . S
O331 Mn305 2.117 1_554 S
O331 C308 1.264 . S
C332 C325 1.403 . S
C332 C333 1.399 . S
C332 H338 0.929 . S
C333 C313 1.449 . S
C333 C332 1.399 . S
C333 H339 0.930 . S
H334 C314 0.931 . S
H335 C315 0.930 . S
H336 C323 0.931 . S
H337 C324 0.929 . S
H338 C332 0.929 . S
H339 C333 0.930 . S
Mn340 O345 2.095 . S
Mn340 O355 2.162 . S
Mn340 O356 2.297 . S
Mn340 O364 2.385 . S
Mn340 O365 2.209 . S
Mn340 O366 2.094 . S
Mn341 O346 2.121 . S
Mn341 N348 2.257 . S
Mn341 N357 2.282 . S
Mn341 O365 2.215 . S
Mn341 O367 2.117 . S
C342 O364 1.234 . S
C342 O365 1.283 . S
C343 O355 1.281 . S
C343 O356 1.236 . S
C344 O366 1.240 . S
C344 O367 1.264 . S
O345 Mn340 2.095 . S
O345 C354 1.250 . S
O346 Mn341 2.121 . S
O346 C354 1.258 . S
C347 N348 1.326 . S
C347 C351 1.460 . S
C347 H353 0.929 . S
N348 Mn341 2.257 . S
N348 C347 1.326 . S
N348 C352 1.362 . S
C349 C350 1.258 . S
C349 C352 1.431 . S
C349 C369 1.449 . S
C350 C349 1.258 . S
C350 C351 1.477 . S
C350 H370 0.931 . S
C351 C347 1.460 . S
C351 C350 1.477 . S
C351 H371 0.930 . S
C352 N348 1.362 . S
C352 C349 1.431 . S
C352 C362 1.476 . S
H353 C347 0.929 . S
C354 O345 1.250 . S
C354 O346 1.258 . S
O355 Mn340 2.162 . S
O355 C343 1.281 . S
O356 Mn340 2.297 . S
O356 C343 1.236 . S
N357 Mn341 2.282 . S
N357 C358 1.328 . S
N357 C362 1.318 . S
C358 N357 1.328 . S
C358 C359 1.457 . S
C358 H363 0.929 . S
C359 C358 1.457 . S
C359 C360 1.291 . S
C359 H372 0.931 . S
C360 C359 1.291 . S
C360 C361 1.373 . S
C360 H373 0.929 . S
C361 C360 1.373 . S
C361 C362 1.396 . S
C361 C368 1.403 . S
C362 C352 1.476 . S
C362 N357 1.318 . S
C362 C361 1.396 . S
H363 C358 0.929 . S
O364 Mn340 2.385 . S
O364 C342 1.234 . S
O365 Mn340 2.209 . S
O365 Mn341 2.215 . S
O365 C342 1.283 . S
O366 Mn340 2.094 . S
O366 C344 1.240 . S
O367 Mn341 2.117 . S
O367 C344 1.264 . S
C368 C361 1.403 . S
C368 C369 1.399 . S
C368 H374 0.929 . S
C369 C349 1.449 . S
C369 C368 1.399 . S
C369 H375 0.930 . S
H370 C350 0.931 . S
H371 C351 0.930 . S
H372 C359 0.931 . S
H373 C360 0.929 . S
H374 C368 0.929 . S
H375 C369 0.930 . S
Mn376 O381 2.095 1_554 S
Mn376 O391 2.162 . S
Mn376 O392 2.297 1_554 S
Mn376 O400 2.385 . S
Mn376 O401 2.209 1_554 S
Mn376 O402 2.094 . S
Mn377 O382 2.121 . S
Mn377 N384 2.257 . S
Mn377 N393 2.282 1_556 S
Mn377 O401 2.215 . S
Mn377 O403 2.117 1_556 S
C378 O400 1.204 1_556 S
C378 O401 1.310 . S
C379 O391 1.281 1_556 S
C379 O392 1.236 . S
C380 O402 1.240 . S
C380 O403 1.264 . S
O381 Mn376 2.095 1_556 S
O381 C390 1.250 . S
O382 Mn377 2.121 . S
O382 C390 1.258 . S
C383 N384 1.326 . S
C383 C387 1.460 . S
C383 H389 0.929 . S
N384 Mn377 2.257 . S
N384 C383 1.326 . S
N384 C388 1.362 . S
C385 C386 1.258 . S
C385 C388 1.431 . S
C385 C405 1.449 . S
C386 C385 1.258 . S
C386 C387 1.477 . S
C386 H406 0.931 . S
C387 C383 1.460 . S
C387 C386 1.477 . S
C387 H407 0.930 . S
C388 N384 1.362 . S
C388 C385 1.431 . S
C388 C398 1.476 . S
H389 C383 0.929 . S
C390 O381 1.250 . S
C390 O382 1.258 . S
O391 Mn376 2.162 . S
O391 C379 1.281 1_554 S
O392 Mn376 2.297 1_556 S
O392 C379 1.236 . S
N393 Mn377 2.282 1_554 S
N393 C394 1.328 . S
N393 C398 1.318 1_554 S
C394 N393 1.328 . S
C394 C395 1.457 . S
C394 H399 0.929 . S
C395 C394 1.457 . S
C395 C396 1.291 . S
C395 H408 0.931 . S
C396 C395 1.291 . S
C396 C397 1.373 1_554 S
C396 H409 0.929 . S
C397 C396 1.373 1_556 S
C397 C398 1.396 . S
C397 C404 1.403 . S
C398 C388 1.476 . S
C398 N393 1.318 1_556 S
C398 C397 1.396 . S
H399 C394 0.929 . S
O400 Mn376 2.385 . S
O400 C378 1.204 1_554 S
O401 Mn376 2.209 1_556 S
O401 Mn377 2.215 . S
O401 C378 1.310 . S
O402 Mn376 2.094 . S
O402 C380 1.240 . S
O403 Mn377 2.117 1_554 S
O403 C380 1.264 . S
C404 C397 1.403 . S
C404 C405 1.399 . S
C404 H410 0.929 . S
C405 C385 1.449 . S
C405 C404 1.399 . S
C405 H411 0.930 . S
H406 C386 0.931 . S
H407 C387 0.930 . S
H408 C395 0.931 . S
H409 C396 0.929 . S
H410 C404 0.929 . S
H411 C405 0.930 . S
Mn412 O417 2.095 . S
Mn412 O427 2.162 . S
Mn412 O428 2.297 . S
Mn412 O436 2.385 . S
Mn412 O437 2.209 1_545 S
Mn412 O438 2.094 . S
Mn413 O418 2.121 . S
Mn413 N420 2.257 . S
Mn413 N429 2.282 . S
Mn413 O437 2.215 . S
Mn413 O439 2.117 . S
C414 O436 1.234 1_565 S
C414 O437 1.283 . S
C415 O427 1.281 . S
C415 O428 1.236 . S
C416 O438 1.240 . S
C416 O439 1.264 1_545 S
O417 Mn412 2.095 . S
O417 C426 1.250 . S
O418 Mn413 2.121 . S
O418 C426 1.258 1_565 S
C419 N420 1.326 . S
C419 C423 1.460 . S
C419 H425 0.929 . S
N420 Mn413 2.257 . S
N420 C419 1.326 . S
N420 C424 1.362 . S
C421 C422 1.258 . S
C421 C424 1.431 . S
C421 C441 1.449 . S
C422 C421 1.258 . S
C422 C423 1.477 . S
C422 H442 0.931 . S
C423 C419 1.460 . S
C423 C422 1.477 . S
C423 H443 0.930 . S
C424 N420 1.362 . S
C424 C421 1.431 . S
C424 C434 1.476 . S
H425 C419 0.929 . S
C426 O417 1.250 . S
C426 O418 1.258 1_545 S
O427 Mn412 2.162 . S
O427 C415 1.281 . S
O428 Mn412 2.297 . S
O428 C415 1.236 . S
N429 Mn413 2.282 . S
N429 C430 1.328 . S
N429 C434 1.318 . S
C430 N429 1.328 . S
C430 C431 1.457 . S
C430 H435 0.929 . S
C431 C430 1.457 . S
C431 C432 1.291 . S
C431 H444 0.931 . S
C432 C431 1.291 . S
C432 C433 1.373 . S
C432 H445 0.929 . S
C433 C432 1.373 . S
C433 C434 1.396 . S
C433 C440 1.403 . S
C434 C424 1.476 . S
C434 N429 1.318 . S
C434 C433 1.396 . S
H435 C430 0.929 . S
O436 Mn412 2.385 . S
O436 C414 1.234 1_545 S
O437 Mn412 2.209 1_565 S
O437 Mn413 2.215 . S
O437 C414 1.283 . S
O438 Mn412 2.094 . S
O438 C416 1.240 . S
O439 Mn413 2.117 . S
O439 C416 1.264 1_565 S
C440 C433 1.403 . S
C440 C441 1.399 . S
C440 H446 0.929 . S
C441 C421 1.449 . S
C441 C440 1.399 . S
C441 H447 0.930 . S
H442 C422 0.931 . S
H443 C423 0.930 . S
H444 C431 0.931 . S
H445 C432 0.929 . S
H446 C440 0.929 . S
H447 C441 0.930 . S
Mn448 O453 2.095 . S
Mn448 O463 2.162 . S
Mn448 O464 2.297 . S
Mn448 O472 2.385 . S
Mn448 O473 2.209 . S
Mn448 O474 2.094 . S
Mn449 O454 2.121 . S
Mn449 N456 2.257 . S
Mn449 N465 2.282 . S
Mn449 O473 2.215 . S
Mn449 O475 2.117 . S
C450 O472 1.234 . S
C450 O473 1.283 . S
C451 O463 1.281 . S
C451 O464 1.236 . S
C452 O474 1.240 . S
C452 O475 1.264 . S
O453 Mn448 2.095 . S
O453 C462 1.250 . S
O454 Mn449 2.121 . S
O454 C462 1.258 . S
C455 N456 1.326 . S
C455 C459 1.460 . S
C455 H461 0.929 . S
N456 Mn449 2.257 . S
N456 C455 1.326 . S
N456 C460 1.362 . S
C457 C458 1.258 . S
C457 C460 1.431 . S
C457 C477 1.449 . S
C458 C457 1.258 . S
C458 C459 1.477 . S
C458 H478 0.931 . S
C459 C455 1.460 . S
C459 C458 1.477 . S
C459 H479 0.930 . S
C460 N456 1.362 . S
C460 C457 1.431 . S
C460 C470 1.476 . S
H461 C455 0.929 . S
C462 O453 1.250 . S
C462 O454 1.258 . S
O463 Mn448 2.162 . S
O463 C451 1.281 . S
O464 Mn448 2.297 . S
O464 C451 1.236 . S
N465 Mn449 2.282 . S
N465 C466 1.328 . S
N465 C470 1.318 . S
C466 N465 1.328 . S
C466 C467 1.457 . S
C466 H471 0.929 . S
C467 C466 1.457 . S
C467 C468 1.291 . S
C467 H480 0.931 . S
C468 C467 1.291 . S
C468 C469 1.373 . S
C468 H481 0.929 . S
C469 C468 1.373 . S
C469 C470 1.396 . S
C469 C476 1.403 . S
C470 C460 1.476 . S
C470 N465 1.318 . S
C470 C469 1.396 . S
H471 C466 0.929 . S
O472 Mn448 2.385 . S
O472 C450 1.234 . S
O473 Mn448 2.209 . S
O473 Mn449 2.215 . S
O473 C450 1.283 . S
O474 Mn448 2.094 . S
O474 C452 1.240 . S
O475 Mn449 2.117 . S
O475 C452 1.264 . S
C476 C469 1.403 . S
C476 C477 1.399 . S
C476 H482 0.929 . S
C477 C457 1.449 . S
C477 C476 1.399 . S
C477 H483 0.930 . S
H478 C458 0.931 . S
H479 C459 0.930 . S
H480 C467 0.931 . S
H481 C468 0.929 . S
H482 C476 0.929 . S
H483 C477 0.930 . S
Mn484 O489 2.095 . S
Mn484 O499 2.162 . S
Mn484 O500 2.297 . S
Mn484 O508 2.385 . S
Mn484 O509 2.209 . S
Mn484 O510 2.094 . S
Mn485 O490 2.121 . S
Mn485 N492 2.257 . S
Mn485 N501 2.282 . S
Mn485 O509 2.215 . S
Mn485 O511 2.117 . S
C486 O508 1.234 . S
C486 O509 1.283 . S
C487 O499 1.281 . S
C487 O500 1.236 . S
C488 O510 1.240 . S
C488 O511 1.264 . S
O489 Mn484 2.095 . S
O489 C498 1.250 . S
O490 Mn485 2.121 . S
O490 C498 1.258 . S
C491 N492 1.326 . S
C491 C495 1.460 . S
C491 H497 0.929 . S
N492 Mn485 2.257 . S
N492 C491 1.326 . S
N492 C496 1.362 . S
C493 C494 1.258 . S
C493 C496 1.431 . S
C493 C513 1.449 . S
C494 C493 1.258 . S
C494 C495 1.477 . S
C494 H514 0.931 . S
C495 C491 1.460 . S
C495 C494 1.477 . S
C495 H515 0.930 . S
C496 N492 1.362 . S
C496 C493 1.431 . S
C496 C506 1.476 . S
H497 C491 0.929 . S
C498 O489 1.250 . S
C498 O490 1.258 . S
O499 Mn484 2.162 . S
O499 C487 1.281 . S
O500 Mn484 2.297 . S
O500 C487 1.236 . S
N501 Mn485 2.282 . S
N501 C502 1.328 . S
N501 C506 1.318 . S
C502 N501 1.328 . S
C502 C503 1.457 . S
C502 H507 0.929 . S
C503 C502 1.457 . S
C503 C504 1.291 . S
C503 H516 0.931 . S
C504 C503 1.291 . S
C504 C505 1.373 . S
C504 H517 0.929 . S
C505 C504 1.373 . S
C505 C506 1.396 . S
C505 C512 1.403 . S
C506 C496 1.476 . S
C506 N501 1.318 . S
C506 C505 1.396 . S
H507 C502 0.929 . S
O508 Mn484 2.385 . S
O508 C486 1.234 . S
O509 Mn484 2.209 . S
O509 Mn485 2.215 . S
O509 C486 1.283 . S
O510 Mn484 2.094 . S
O510 C488 1.240 . S
O511 Mn485 2.117 . S
O511 C488 1.264 . S
C512 C505 1.403 . S
C512 C513 1.399 . S
C512 H518 0.929 . S
C513 C493 1.449 . S
C513 C512 1.399 . S
C513 H519 0.930 . S
H514 C494 0.931 . S
H515 C495 0.930 . S
H516 C503 0.931 . S
H517 C504 0.929 . S
H518 C512 0.929 . S
H519 C513 0.930 . S
Mn520 O525 2.095 . S
Mn520 O535 2.162 . S
Mn520 O536 2.297 . S
Mn520 O544 2.385 . S
Mn520 O545 2.209 . S
Mn520 O546 2.094 . S
Mn521 O526 2.121 . S
Mn521 N528 2.257 . S
Mn521 N537 2.282 . S
Mn521 O545 2.215 . S
Mn521 O547 2.117 . S
C522 O544 1.234 . S
C522 O545 1.283 . S
C523 O535 1.281 . S
C523 O536 1.236 . S
C524 O546 1.240 . S
C524 O547 1.264 . S
O525 Mn520 2.095 . S
O525 C534 1.250 . S
O526 Mn521 2.121 . S
O526 C534 1.258 . S
C527 N528 1.326 . S
C527 C531 1.460 . S
C527 H533 0.929 . S
N528 Mn521 2.257 . S
N528 C527 1.326 . S
N528 C532 1.362 . S
C529 C530 1.258 . S
C529 C532 1.431 . S
C529 C549 1.449 . S
C530 C529 1.258 . S
C530 C531 1.477 . S
C530 H550 0.931 . S
C531 C527 1.460 . S
C531 C530 1.477 . S
C531 H551 0.930 . S
C532 N528 1.362 . S
C532 C529 1.431 . S
C532 C542 1.476 . S
H533 C527 0.929 . S
C534 O525 1.250 . S
C534 O526 1.258 . S
O535 Mn520 2.162 . S
O535 C523 1.281 . S
O536 Mn520 2.297 . S
O536 C523 1.236 . S
N537 Mn521 2.282 . S
N537 C538 1.328 . S
N537 C542 1.318 . S
C538 N537 1.328 . S
C538 C539 1.457 . S
C538 H543 0.929 . S
C539 C538 1.457 . S
C539 C540 1.291 . S
C539 H552 0.931 . S
C540 C539 1.291 . S
C540 C541 1.373 . S
C540 H553 0.929 . S
C541 C540 1.373 . S
C541 C542 1.396 . S
C541 C548 1.403 . S
C542 C532 1.476 . S
C542 N537 1.318 . S
C542 C541 1.396 . S
H543 C538 0.929 . S
O544 Mn520 2.385 . S
O544 C522 1.234 . S
O545 Mn520 2.209 . S
O545 Mn521 2.215 . S
O545 C522 1.283 . S
O546 Mn520 2.094 . S
O546 C524 1.240 . S
O547 Mn521 2.117 . S
O547 C524 1.264 . S
C548 C541 1.403 . S
C548 C549 1.399 . S
C548 H554 0.929 . S
C549 C529 1.449 . S
C549 C548 1.399 . S
C549 H555 0.930 . S
H550 C530 0.931 . S
H551 C531 0.930 . S
H552 C539 0.931 . S
H553 C540 0.929 . S
H554 C548 0.929 . S
H555 C549 0.930 . S
Mn556 O561 2.095 . S
Mn556 O571 2.162 1_545 S
Mn556 O572 2.297 . S
Mn556 O580 2.385 . S
Mn556 O581 2.209 . S
Mn556 O582 2.095 . S
Mn557 O562 2.121 . S
Mn557 N564 2.257 . S
Mn557 N573 2.282 . S
Mn557 O581 2.215 . S
Mn557 O583 2.117 . S
C558 O580 1.234 . S
C558 O581 1.283 . S
C559 O571 1.281 . S
C559 O572 1.236 1_565 S
C560 O582 1.269 . S
C560 O583 1.264 . S
O561 Mn556 2.095 . S
O561 C570 1.250 . S
O562 Mn557 2.121 . S
O562 C570 1.258 . S
C563 N564 1.326 . S
C563 C567 1.460 . S
C563 H569 0.929 . S
N564 Mn557 2.257 . S
N564 C563 1.326 . S
N564 C568 1.362 . S
C565 C566 1.258 . S
C565 C568 1.431 . S
C565 C585 1.449 . S
C566 C565 1.258 . S
C566 C567 1.477 . S
C566 H586 0.931 . S
C567 C563 1.460 . S
C567 C566 1.477 . S
C567 H587 0.930 . S
C568 N564 1.362 . S
C568 C565 1.431 . S
C568 C578 1.476 . S
H569 C563 0.929 . S
C570 O561 1.250 . S
C570 O562 1.258 . S
O571 Mn556 2.162 1_565 S
O571 C559 1.281 . S
O572 Mn556 2.297 . S
O572 C559 1.236 1_545 S
N573 Mn557 2.282 . S
N573 C574 1.328 . S
N573 C578 1.318 . S
C574 N573 1.328 . S
C574 C575 1.457 . S
C574 H579 0.929 . S
C575 C574 1.457 . S
C575 C576 1.291 . S
C575 H588 0.931 . S
C576 C575 1.291 . S
C576 C577 1.373 . S
C576 H589 0.929 . S
C577 C576 1.373 . S
C577 C578 1.396 . S
C577 C584 1.403 . S
C578 C568 1.476 . S
C578 N573 1.318 . S
C578 C577 1.396 . S
H579 C574 0.929 . S
O580 Mn556 2.385 . S
O580 C558 1.234 . S
O581 Mn556 2.209 . S
O581 Mn557 2.215 . S
O581 C558 1.283 . S
O582 Mn556 2.095 . S
O582 C560 1.269 . S
O583 Mn557 2.117 . S
O583 C560 1.264 . S
C584 C577 1.403 . S
C584 C585 1.399 . S
C584 H590 0.929 . S
C585 C565 1.449 . S
C585 C584 1.399 . S
C585 H591 0.930 . S
H586 C566 0.931 . S
H587 C567 0.930 . S
H588 C575 0.931 . S
H589 C576 0.929 . S
H590 C584 0.929 . S
H591 C585 0.930 . S
Mn592 O597 2.095 . S
Mn592 O607 2.162 . S
Mn592 O608 2.297 . S
Mn592 O616 2.385 1_455 S
Mn592 O617 2.209 1_455 S
Mn592 O618 2.094 . S
Mn593 O598 2.121 . S
Mn593 N600 2.257 . S
Mn593 N609 2.282 . S
Mn593 O617 2.215 . S
Mn593 O619 2.117 . S
C594 O616 1.234 . S
C594 O617 1.283 . S
C595 O607 1.281 . S
C595 O608 1.236 . S
C596 O618 1.240 . S
C596 O619 1.264 1_455 S
O597 Mn592 2.095 . S
O597 C606 1.250 . S
O598 Mn593 2.121 . S
O598 C606 1.258 1_655 S
C599 N600 1.326 . S
C599 C603 1.460 . S
C599 H605 0.929 . S
N600 Mn593 2.257 . S
N600 C599 1.326 . S
N600 C604 1.362 . S
C601 C602 1.258 . S
C601 C604 1.431 . S
C601 C621 1.449 . S
C602 C601 1.258 . S
C602 C603 1.477 . S
C602 H622 0.931 . S
C603 C599 1.460 . S
C603 C602 1.477 . S
C603 H623 0.930 . S
C604 N600 1.362 . S
C604 C601 1.431 . S
C604 C614 1.476 . S
H605 C599 0.929 . S
C606 O597 1.250 . S
C606 O598 1.258 1_455 S
O607 Mn592 2.162 . S
O607 C595 1.281 . S
O608 Mn592 2.297 . S
O608 C595 1.236 . S
N609 Mn593 2.282 . S
N609 C610 1.328 . S
N609 C614 1.318 . S
C610 N609 1.328 . S
C610 C611 1.457 . S
C610 H615 0.929 . S
C611 C610 1.457 . S
C611 C612 1.291 . S
C611 H624 0.931 . S
C612 C611 1.291 . S
C612 C613 1.373 . S
C612 H625 0.929 . S
C613 C612 1.373 . S
C613 C614 1.396 . S
C613 C620 1.403 . S
C614 C604 1.476 . S
C614 N609 1.318 . S
C614 C613 1.396 . S
H615 C610 0.929 . S
O616 Mn592 2.385 1_655 S
O616 C594 1.234 . S
O617 Mn592 2.209 1_655 S
O617 Mn593 2.215 . S
O617 C594 1.283 . S
O618 Mn592 2.094 . S
O618 C596 1.240 . S
O619 Mn593 2.117 . S
O619 C596 1.264 1_655 S
C620 C613 1.403 . S
C620 C621 1.399 . S
C620 H626 0.929 . S
C621 C601 1.449 . S
C621 C620 1.399 . S
C621 H627 0.930 . S
H622 C602 0.931 . S
H623 C603 0.930 . S
H624 C611 0.931 . S
H625 C612 0.929 . S
H626 C620 0.929 . S
H627 C621 0.930 . S
Mn628 O633 2.095 . S
Mn628 O643 2.162 . S
Mn628 O644 2.297 . S
Mn628 O652 2.385 . S
Mn628 O653 2.209 . S
Mn628 O654 2.094 . S
Mn629 O634 2.121 . S
Mn629 N636 2.257 . S
Mn629 N645 2.282 . S
Mn629 O653 2.215 . S
Mn629 O655 2.117 . S
C630 O652 1.234 . S
C630 O653 1.283 . S
C631 O643 1.281 . S
C631 O644 1.236 . S
C632 O654 1.240 . S
C632 O655 1.264 . S
O633 Mn628 2.095 . S
O633 C642 1.250 . S
O634 Mn629 2.121 . S
O634 C642 1.258 . S
C635 N636 1.326 . S
C635 C639 1.460 . S
C635 H641 0.929 . S
N636 Mn629 2.257 . S
N636 C635 1.326 . S
N636 C640 1.362 . S
C637 C638 1.258 . S
C637 C640 1.431 . S
C637 C657 1.449 . S
C638 C637 1.258 . S
C638 C639 1.477 . S
C638 H658 0.931 . S
C639 C635 1.460 . S
C639 C638 1.477 . S
C639 H659 0.930 . S
C640 N636 1.362 . S
C640 C637 1.431 . S
C640 C650 1.476 . S
H641 C635 0.929 . S
C642 O633 1.250 . S
C642 O634 1.258 . S
O643 Mn628 2.162 . S
O643 C631 1.281 . S
O644 Mn628 2.297 . S
O644 C631 1.236 . S
N645 Mn629 2.282 . S
N645 C646 1.328 . S
N645 C650 1.318 . S
C646 N645 1.328 . S
C646 C647 1.457 . S
C646 H651 0.929 . S
C647 C646 1.457 . S
C647 C648 1.291 . S
C647 H660 0.931 . S
C648 C647 1.291 . S
C648 C649 1.373 . S
C648 H661 0.929 . S
C649 C648 1.373 . S
C649 C650 1.396 . S
C649 C656 1.403 . S
C650 C640 1.476 . S
C650 N645 1.318 . S
C650 C649 1.396 . S
H651 C646 0.929 . S
O652 Mn628 2.385 . S
O652 C630 1.234 . S
O653 Mn628 2.209 . S
O653 Mn629 2.215 . S
O653 C630 1.283 . S
O654 Mn628 2.094 . S
O654 C632 1.240 . S
O655 Mn629 2.117 . S
O655 C632 1.264 . S
C656 C649 1.403 . S
C656 C657 1.399 . S
C656 H662 0.929 . S
C657 C637 1.449 . S
C657 C656 1.399 . S
C657 H663 0.930 . S
H658 C638 0.931 . S
H659 C639 0.930 . S
H660 C647 0.931 . S
H661 C648 0.929 . S
H662 C656 0.929 . S
H663 C657 0.930 . S
Mn664 O669 2.095 1_455 S
Mn664 O679 2.162 . S
Mn664 O680 2.297 1_455 S
Mn664 O688 2.385 . S
Mn664 O689 2.209 1_455 S
Mn664 O690 2.094 . S
Mn665 O670 2.121 . S
Mn665 N672 2.257 . S
Mn665 N681 2.282 . S
Mn665 O689 2.215 . S
Mn665 O691 2.117 1_655 S
C666 O688 1.234 . S
C666 O689 1.283 1_455 S
C667 O679 1.281 . S
C667 O680 1.236 1_455 S
C668 O690 1.240 . S
C668 O691 1.264 . S
O669 Mn664 2.095 1_655 S
O669 C678 1.250 . S
O670 Mn665 2.121 . S
O670 C678 1.258 . S
C671 N672 1.326 . S
C671 C675 1.460 . S
C671 H677 0.929 . S
N672 Mn665 2.257 . S
N672 C671 1.326 . S
N672 C676 1.362 . S
C673 C674 1.258 . S
C673 C676 1.431 . S
C673 C693 1.449 . S
C674 C673 1.258 . S
C674 C675 1.477 . S
C674 H694 0.931 . S
C675 C671 1.460 . S
C675 C674 1.477 . S
C675 H695 0.930 . S
C676 N672 1.362 . S
C676 C673 1.431 . S
C676 C686 1.476 . S
H677 C671 0.929 . S
C678 O669 1.250 . S
C678 O670 1.258 . S
O679 Mn664 2.162 . S
O679 C667 1.281 . S
O680 Mn664 2.297 1_655 S
O680 C667 1.236 1_655 S
N681 Mn665 2.282 . S
N681 C682 1.328 1_655 S
N681 C686 1.318 . S
C682 N681 1.328 1_455 S
C682 C683 1.457 . S
C682 H687 0.929 . S
C683 C682 1.457 . S
C683 C684 1.291 . S
C683 H696 0.931 . S
C684 C683 1.291 . S
C684 C685 1.373 1_455 S
C684 H697 0.929 . S
C685 C684 1.373 1_655 S
C685 C686 1.396 . S
C685 C692 1.403 . S
C686 C676 1.476 . S
C686 N681 1.318 . S
C686 C685 1.396 . S
H687 C682 0.929 . S
O688 Mn664 2.385 . S
O688 C666 1.234 . S
O689 Mn664 2.209 1_655 S
O689 Mn665 2.215 . S
O689 C666 1.283 1_655 S
O690 Mn664 2.094 . S
O690 C668 1.240 . S
O691 Mn665 2.117 1_455 S
O691 C668 1.264 . S
C692 C685 1.403 . S
C692 C693 1.399 . S
C692 H698 0.929 . S
C693 C673 1.449 . S
C693 C692 1.399 . S
C693 H699 0.930 . S
H694 C674 0.931 . S
H695 C675 0.930 . S
H696 C683 0.931 . S
H697 C684 0.929 . S
H698 C692 0.929 . S
H699 C693 0.930 . S
Mn700 O705 2.095 . S
Mn700 O715 2.162 . S
Mn700 O716 2.297 . S
Mn700 O724 2.385 . S
Mn700 O725 2.209 . S
Mn700 O726 2.094 . S
Mn701 O706 2.121 . S
Mn701 N708 2.257 . S
Mn701 N717 2.282 . S
Mn701 O725 2.215 . S
Mn701 O727 2.117 . S
C702 O724 1.234 . S
C702 O725 1.283 . S
C703 O715 1.281 . S
C703 O716 1.236 . S
C704 O726 1.240 . S
C704 O727 1.264 . S
O705 Mn700 2.095 . S
O705 C714 1.250 . S
O706 Mn701 2.121 . S
O706 C714 1.258 . S
C707 N708 1.326 . S
C707 C711 1.460 . S
C707 H713 0.929 . S
N708 Mn701 2.257 . S
N708 C707 1.326 . S
N708 C712 1.362 . S
C709 C710 1.258 . S
C709 C712 1.431 . S
C709 C729 1.449 . S
C710 C709 1.258 . S
C710 C711 1.477 . S
C710 H730 0.931 . S
C711 C707 1.460 . S
C711 C710 1.477 . S
C711 H731 0.930 . S
C712 N708 1.362 . S
C712 C709 1.431 . S
C712 C722 1.476 . S
H713 C707 0.929 . S
C714 O705 1.250 . S
C714 O706 1.258 . S
O715 Mn700 2.162 . S
O715 C703 1.281 . S
O716 Mn700 2.297 . S
O716 C703 1.236 . S
N717 Mn701 2.282 . S
N717 C718 1.328 . S
N717 C722 1.318 . S
C718 N717 1.328 . S
C718 C719 1.457 . S
C718 H723 0.929 . S
C719 C718 1.457 . S
C719 C720 1.291 . S
C719 H732 0.931 . S
C720 C719 1.291 . S
C720 C721 1.373 . S
C720 H733 0.929 . S
C721 C720 1.373 . S
C721 C722 1.396 . S
C721 C728 1.403 . S
C722 C712 1.476 . S
C722 N717 1.318 . S
C722 C721 1.396 . S
H723 C718 0.929 . S
O724 Mn700 2.385 . S
O724 C702 1.234 . S
O725 Mn700 2.209 . S
O725 Mn701 2.215 . S
O725 C702 1.283 . S
O726 Mn700 2.094 . S
O726 C704 1.240 . S
O727 Mn701 2.117 . S
O727 C704 1.264 . S
C728 C721 1.403 . S
C728 C729 1.399 . S
C728 H734 0.929 . S
C729 C709 1.449 . S
C729 C728 1.399 . S
C729 H735 0.930 . S
H730 C710 0.931 . S
H731 C711 0.930 . S
H732 C719 0.931 . S
H733 C720 0.929 . S
H734 C728 0.929 . S
H735 C729 0.930 . S
C736 C737 1.363 . S
C736 C742 1.379 . S
C736 N744 1.356 . S
C737 C736 1.363 . S
C737 C743 1.363 . S
C738 C739 1.363 . S
C738 C743 1.379 . S
C738 N745 1.356 . S
C739 C738 1.363 . S
C739 C742 1.363 . S
N740 C742 1.356 . S
N740 H752 0.984 . S
N740 H753 0.985 . S
N741 C743 1.356 . S
N741 H746 0.984 . S
N741 H747 0.985 . S
C742 C736 1.379 . S
C742 C739 1.363 . S
C742 N740 1.356 . S
C743 C737 1.363 . S
C743 C738 1.379 . S
C743 N741 1.356 . S
N744 C736 1.356 . S
N744 H750 0.984 . S
N744 H751 0.984 . S
N745 C738 1.356 . S
N745 H748 0.984 . S
N745 H749 0.985 . S
H746 N741 0.984 . S
H747 N741 0.985 . S
H748 N745 0.984 . S
H749 N745 0.985 . S
H750 N744 0.984 . S
H751 N744 0.984 . S
H752 N740 0.984 . S
H753 N740 0.985 . S
C754 C755 1.363 . S
C754 C760 1.379 . S
C754 N762 1.356 . S
C755 C754 1.363 . S
C755 C761 1.363 . S
C756 C757 1.363 . S
C756 C761 1.379 . S
C756 N763 1.356 . S
C757 C756 1.363 . S
C757 C760 1.363 . S
N758 C760 1.356 . S
N758 H770 0.984 . S
N758 H771 0.985 . S
N759 C761 1.356 . S
N759 H764 0.984 . S
N759 H765 0.985 . S
C760 C754 1.379 . S
C760 C757 1.363 . S
C760 N758 1.356 . S
C761 C755 1.363 . S
C761 C756 1.379 . S
C761 N759 1.356 . S
N762 C754 1.356 . S
N762 H768 0.984 . S
N762 H769 0.984 . S
N763 C756 1.356 . S
N763 H766 0.984 . S
N763 H767 0.985 . S
H764 N759 0.984 . S
H765 N759 0.985 . S
H766 N763 0.984 . S
H767 N763 0.985 . S
H768 N762 0.984 . S
H769 N762 0.984 . S
H770 N758 0.984 . S
H771 N758 0.985 . S
C772 C773 1.363 . S
C772 C778 1.379 . S
C772 N780 1.356 . S
C773 C772 1.363 . S
C773 C779 1.363 . S
C774 C775 1.363 . S
C774 C779 1.379 . S
C774 N781 1.356 . S
C775 C774 1.363 . S
C775 C778 1.363 . S
N776 C778 1.356 . S
N776 H788 0.984 . S
N776 H789 0.985 . S
N777 C779 1.356 . S
N777 H782 0.984 . S
N777 H783 0.985 . S
C778 C772 1.379 . S
C778 C775 1.363 . S
C778 N776 1.356 . S
C779 C773 1.363 . S
C779 C774 1.379 . S
C779 N777 1.356 . S
N780 C772 1.356 . S
N780 H786 0.984 . S
N780 H787 0.984 . S
N781 C774 1.356 . S
N781 H784 0.984 . S
N781 H785 0.985 . S
H782 N777 0.984 . S
H783 N777 0.985 . S
H784 N781 0.984 . S
H785 N781 0.985 . S
H786 N780 0.984 . S
H787 N780 0.984 . S
H788 N776 0.984 . S
H789 N776 0.985 . S
C790 C791 1.363 1_565 S
C790 C796 1.370 1_565 S
C790 N798 1.356 . S
C791 C790 1.363 1_545 S
C791 C797 1.363 . S
C792 C793 1.363 . S
C792 C797 1.379 . S
C792 N799 1.356 1_455 S
C793 C792 1.363 . S
C793 C796 1.377 . S
N794 C796 1.355 1_565 S
N794 H806 0.984 . S
N794 H807 0.985 1_565 S
N795 C797 1.356 . S
N795 H800 0.984 . S
N795 H801 0.985 . S
C796 C790 1.370 1_545 S
C796 C793 1.377 . S
C796 N794 1.355 1_545 S
C797 C791 1.363 . S
C797 C792 1.379 . S
C797 N795 1.356 . S
N798 C790 1.356 . S
N798 H804 0.984 . S
N798 H805 0.984 . S
N799 C792 1.356 1_655 S
N799 H802 0.984 . S
N799 H803 0.985 . S
H800 N795 0.984 . S
H801 N795 0.985 . S
H802 N799 0.984 . S
H803 N799 0.985 . S
H804 N798 0.984 . S
H805 N798 0.984 . S
H806 N794 0.984 . S
H807 N794 0.985 1_545 S
C808 C809 1.363 . S
C808 C814 1.379 . S
C808 N816 1.356 . S
C809 C808 1.363 . S
C809 C815 1.363 . S
C810 C811 1.363 . S
C810 C815 1.379 . S
C810 N817 1.356 . S
C811 C810 1.363 . S
C811 C814 1.363 . S
N812 C814 1.356 . S
N812 H824 0.984 . S
N812 H825 0.985 . S
N813 C815 1.356 . S
N813 H818 0.984 . S
N813 H819 0.985 . S
C814 C808 1.379 . S
C814 C811 1.363 . S
C814 N812 1.356 . S
C815 C809 1.363 . S
C815 C810 1.379 . S
C815 N813 1.356 . S
N816 C808 1.356 . S
N816 H822 0.984 . S
N816 H823 0.984 . S
N817 C810 1.356 . S
N817 H820 0.984 . S
N817 H821 0.985 . S
H818 N813 0.984 . S
H819 N813 0.985 . S
H820 N817 0.984 . S
H821 N817 0.985 . S
H822 N816 0.984 . S
H823 N816 0.984 . S
H824 N812 0.984 . S
H825 N812 0.985 . S
C826 C827 1.363 . S
C826 C832 1.379 . S
C826 N834 1.356 . S
C827 C826 1.363 . S
C827 C833 1.363 . S
C828 C829 1.363 . S
C828 C833 1.379 . S
C828 N835 1.356 . S
C829 C828 1.363 . S
C829 C832 1.363 . S
N830 C832 1.356 . S
N830 H842 0.984 . S
N830 H843 0.985 . S
N831 C833 1.356 . S
N831 H836 0.984 . S
N831 H837 0.985 . S
C832 C826 1.379 . S
C832 C829 1.363 . S
C832 N830 1.356 . S
C833 C827 1.363 . S
C833 C828 1.379 . S
C833 N831 1.356 . S
N834 C826 1.356 . S
N834 H840 0.984 . S
N834 H841 0.984 . S
N835 C828 1.356 . S
N835 H838 0.984 . S
N835 H839 0.985 . S
H836 N831 0.984 . S
H837 N831 0.985 . S
H838 N835 0.984 . S
H839 N835 0.985 . S
H840 N834 0.984 . S
H841 N834 0.984 . S
H842 N830 0.984 . S
H843 N830 0.985 . S
C844 C845 1.363 . S
C844 C850 1.379 . S
C844 N852 1.356 . S
C845 C844 1.363 . S
C845 C851 1.363 . S
C846 C847 1.363 . S
C846 C851 1.379 . S
C846 N853 1.356 . S
C847 C846 1.363 . S
C847 C850 1.363 . S
N848 C850 1.356 . S
N848 H860 0.984 . S
N848 H861 0.985 . S
N849 C851 1.356 . S
N849 H854 0.984 . S
N849 H855 0.985 . S
C850 C844 1.379 . S
C850 C847 1.363 . S
C850 N848 1.356 . S
C851 C845 1.363 . S
C851 C846 1.379 . S
C851 N849 1.356 . S
N852 C844 1.356 . S
N852 H858 0.984 . S
N852 H859 0.984 . S
N853 C846 1.356 . S
N853 H856 0.984 . S
N853 H857 0.985 . S
H854 N849 0.984 . S
H855 N849 0.985 . S
H856 N853 0.984 . S
H857 N853 0.985 . S
H858 N852 0.984 . S
H859 N852 0.984 . S
H860 N848 0.984 . S
H861 N848 0.985 . S
C862 C863 1.361 1_565 S
C862 C868 1.379 . S
C862 N870 1.356 . S
C863 C862 1.361 1_545 S
C863 C869 1.365 . S
C864 C865 1.363 . S
C864 C869 1.379 . S
C864 N871 1.356 . S
C865 C864 1.363 . S
C865 C868 1.363 1_545 S
N866 C868 1.356 . S
N866 H878 0.984 . S
N866 H879 0.985 . S
N867 C869 1.356 . S
N867 H872 0.984 . S
N867 H873 0.985 . S
C868 C862 1.379 . S
C868 C865 1.363 1_565 S
C868 N866 1.356 . S
C869 C863 1.365 . S
C869 C864 1.379 . S
C869 N867 1.356 . S
N870 C862 1.356 . S
N870 H876 0.984 . S
N870 H877 0.984 . S
N871 C864 1.356 . S
N871 H874 0.984 . S
N871 H875 0.985 . S
H872 N867 0.984 . S
H873 N867 0.985 . S
H874 N871 0.984 . S
H875 N871 0.985 . S
H876 N870 0.984 . S
H877 N870 0.984 . S
H878 N866 0.984 . S
H879 N866 0.985 . S
C880 C881 1.363 . S
C880 C886 1.379 . S
C880 N888 1.356 . S
C881 C880 1.363 . S
C881 C887 1.363 . S
C882 C883 1.363 . S
C882 C887 1.379 . S
C882 N889 1.356 . S
C883 C882 1.363 . S
C883 C886 1.363 . S
N884 C886 1.356 . S
N884 H896 0.984 . S
N884 H897 0.985 . S
N885 C887 1.356 . S
N885 H890 0.984 . S
N885 H891 0.985 . S
C886 C880 1.379 . S
C886 C883 1.363 . S
C886 N884 1.356 . S
C887 C881 1.363 . S
C887 C882 1.379 . S
C887 N885 1.356 . S
N888 C880 1.356 . S
N888 H894 0.984 . S
N888 H895 0.984 . S
N889 C882 1.356 . S
N889 H892 0.984 . S
N889 H893 0.985 . S
H890 N885 0.984 . S
H891 N885 0.985 . S
H892 N889 0.984 . S
H893 N889 0.985 . S
H894 N888 0.984 . S
H895 N888 0.984 . S
H896 N884 0.984 . S
H897 N884 0.985 . S
C898 C899 1.363 . S
C898 C904 1.379 . S
C898 N906 1.356 . S
C899 C898 1.363 . S
C899 C905 1.363 . S
C900 C901 1.363 . S
C900 C905 1.379 . S
C900 N907 1.356 . S
C901 C900 1.363 . S
C901 C904 1.363 . S
N902 C904 1.356 . S
N902 H914 0.984 . S
N902 H915 0.985 . S
N903 C905 1.356 . S
N903 H908 0.984 . S
N903 H909 0.985 . S
C904 C898 1.379 . S
C904 C901 1.363 . S
C904 N902 1.356 . S
C905 C899 1.363 . S
C905 C900 1.379 . S
C905 N903 1.356 . S
N906 C898 1.356 . S
N906 H912 0.984 . S
N906 H913 0.984 . S
N907 C900 1.356 . S
N907 H910 0.984 . S
N907 H911 0.985 . S
H908 N903 0.984 . S
H909 N903 0.985 . S
H910 N907 0.984 . S
H911 N907 0.985 . S
H912 N906 0.984 . S
H913 N906 0.984 . S
H914 N902 0.984 . S
H915 N902 0.985 . S
C916 C917 1.363 . S
C916 C922 1.379 . S
C916 N924 1.356 . S
C917 C916 1.363 . S
C917 C923 1.363 . S
C918 C919 1.363 . S
C918 C923 1.379 . S
C918 N925 1.356 . S
C919 C918 1.363 . S
C919 C922 1.363 . S
N920 C922 1.356 . S
N920 H932 0.984 . S
N920 H933 0.985 . S
N921 C923 1.356 . S
N921 H926 0.984 . S
N921 H927 0.985 . S
C922 C916 1.379 . S
C922 C919 1.363 . S
C922 N920 1.356 . S
C923 C917 1.363 . S
C923 C918 1.379 . S
C923 N921 1.356 . S
N924 C916 1.356 . S
N924 H930 0.984 . S
N924 H931 0.984 . S
N925 C918 1.356 . S
N925 H928 0.984 . S
N925 H929 0.985 . S
H926 N921 0.984 . S
H927 N921 0.985 . S
H928 N925 0.984 . S
H929 N925 0.985 . S
H930 N924 0.984 . S
H931 N924 0.984 . S
H932 N920 0.984 . S
H933 N920 0.985 . S
C934 C935 1.363 . S
C934 C940 1.379 . S
C934 N942 1.356 . S
C935 C934 1.363 . S
C935 C941 1.363 . S
C936 C937 1.363 . S
C936 C941 1.379 . S
C936 N943 1.356 . S
C937 C936 1.363 . S
C937 C940 1.363 . S
N938 C940 1.356 . S
N938 H950 0.984 . S
N938 H951 0.985 . S
N939 C941 1.356 . S
N939 H944 0.984 . S
N939 H945 0.985 . S
C940 C934 1.379 . S
C940 C937 1.363 . S
C940 N938 1.356 . S
C941 C935 1.363 . S
C941 C936 1.379 . S
C941 N939 1.356 . S
N942 C934 1.356 . S
N942 H948 0.984 . S
N942 H949 0.984 . S
N943 C936 1.356 . S
N943 H946 0.984 . S
N943 H947 0.985 . S
H944 N939 0.984 . S
H945 N939 0.985 . S
H946 N943 0.984 . S
H947 N943 0.985 . S
H948 N942 0.984 . S
H949 N942 0.984 . S
H950 N938 0.984 . S
H951 N938 0.985 . S
C952 C953 1.363 . S
C952 C958 1.379 . S
C952 N960 1.356 . S
C953 C952 1.363 . S
C953 C959 1.363 . S
C954 C955 1.363 . S
C954 C959 1.379 . S
C954 N961 1.356 . S
C955 C954 1.363 . S
C955 C958 1.363 . S
N956 C958 1.356 . S
N956 H968 0.984 . S
N956 H969 0.985 . S
N957 C959 1.356 . S
N957 H962 0.984 . S
N957 H963 0.985 . S
C958 C952 1.379 . S
C958 C955 1.363 . S
C958 N956 1.356 . S
C959 C953 1.363 . S
C959 C954 1.379 . S
C959 N957 1.356 . S
N960 C952 1.356 . S
N960 H966 0.984 . S
N960 H967 0.984 . S
N961 C954 1.356 . S
N961 H964 0.984 . S
N961 H965 0.985 . S
H962 N957 0.984 . S
H963 N957 0.985 . S
H964 N961 0.984 . S
H965 N961 0.985 . S
H966 N960 0.984 . S
H967 N960 0.984 . S
H968 N956 0.984 . S
H969 N956 0.985 . S
C970 C971 1.363 . S
C970 C976 1.379 . S
C970 N978 1.356 . S
C971 C970 1.363 . S
C971 C977 1.363 . S
C972 C973 1.363 . S
C972 C977 1.379 . S
C972 N979 1.356 . S
C973 C972 1.363 . S
C973 C976 1.363 . S
N974 C976 1.356 1_655 S
N974 H986 0.984 . S
N974 H987 0.985 . S
N975 C977 1.356 . S
N975 H980 0.984 . S
N975 H981 0.985 . S
C976 C970 1.379 . S
C976 C973 1.363 . S
C976 N974 1.356 1_455 S
C977 C971 1.363 . S
C977 C972 1.379 . S
C977 N975 1.356 . S
N978 C970 1.356 . S
N978 H984 0.984 1_455 S
N978 H985 0.984 . S
N979 C972 1.356 . S
N979 H982 0.984 . S
N979 H983 0.985 . S
H980 N975 0.984 . S
H981 N975 0.985 . S
H982 N979 0.984 . S
H983 N979 0.985 . S
H984 N978 0.984 1_655 S
H985 N978 0.984 . S
H986 N974 0.984 . S
H987 N974 0.985 . S
C988 C989 1.363 . S
C988 C994 1.379 . S
C988 N996 1.356 . S
C989 C988 1.363 . S
C989 C995 1.363 . S
C990 C991 1.363 . S
C990 C995 1.379 . S
C990 N997 1.356 . S
C991 C990 1.363 . S
C991 C994 1.363 . S
N992 C994 1.356 . S
N992 H1004 0.984 . S
N992 H1005 0.985 . S
N993 C995 1.356 . S
N993 H998 0.984 . S
N993 H999 0.985 . S
C994 C988 1.379 . S
C994 C991 1.363 . S
C994 N992 1.356 . S
C995 C989 1.363 . S
C995 C990 1.379 . S
C995 N993 1.356 . S
N996 C988 1.356 . S
N996 H1002 0.984 . S
N996 H1003 0.984 . S
N997 C990 1.356 . S
N997 H1000 0.984 . S
N997 H1001 0.985 . S
H998 N993 0.984 . S
H999 N993 0.985 . S
H1000 N997 0.984 . S
H1001 N997 0.985 . S
H1002 N996 0.984 . S
H1003 N996 0.984 . S
H1004 N992 0.984 . S
H1005 N992 0.985 . S
C1006 C1007 1.363 1_455 S
C1006 C1012 1.379 . S
C1006 N1014 1.356 . S
C1007 C1006 1.363 1_655 S
C1007 C1013 1.363 . S
C1008 C1009 1.363 . S
C1008 C1013 1.379 . S
C1008 N1015 1.356 . S
C1009 C1008 1.363 . S
C1009 C1012 1.363 1_655 S
N1010 C1012 1.356 . S
N1010 H1022 0.984 . S
N1010 H1023 0.985 . S
N1011 C1013 1.356 . S
N1011 H1016 0.984 . S
N1011 H1017 0.985 . S
C1012 C1006 1.379 . S
C1012 C1009 1.363 1_455 S
C1012 N1010 1.356 . S
C1013 C1007 1.363 . S
C1013 C1008 1.379 . S
C1013 N1011 1.356 . S
N1014 C1006 1.356 . S
N1014 H1020 0.984 . S
N1014 H1021 0.984 . S
N1015 C1008 1.356 . S
N1015 H1018 0.984 . S
N1015 H1019 0.985 . S
H1016 N1011 0.984 . S
H1017 N1011 0.985 . S
H1018 N1015 0.984 . S
H1019 N1015 0.985 . S
H1020 N1014 0.984 . S
H1021 N1014 0.984 . S
H1022 N1010 0.984 . S
H1023 N1010 0.985 . S
C1024 C1025 1.363 . S
C1024 C1030 1.379 . S
C1024 N1032 1.356 . S
C1025 C1024 1.363 . S
C1025 C1031 1.363 . S
C1026 C1027 1.363 . S
C1026 C1031 1.379 . S
C1026 N1033 1.356 . S
C1027 C1026 1.363 . S
C1027 C1030 1.363 . S
N1028 C1030 1.356 . S
N1028 H1040 0.984 . S
N1028 H1041 0.985 . S
N1029 C1031 1.356 . S
N1029 H1034 0.984 . S
N1029 H1035 0.985 . S
C1030 C1024 1.379 . S
C1030 C1027 1.363 . S
C1030 N1028 1.356 . S
C1031 C1025 1.363 . S
C1031 C1026 1.379 . S
C1031 N1029 1.356 . S
N1032 C1024 1.356 . S
N1032 H1038 0.984 . S
N1032 H1039 0.984 . S
N1033 C1026 1.356 . S
N1033 H1036 0.984 . S
N1033 H1037 0.985 . S
H1034 N1029 0.984 . S
H1035 N1029 0.985 . S
H1036 N1033 0.984 . S
H1037 N1033 0.985 . S
H1038 N1032 0.984 . S
H1039 N1032 0.984 . S
H1040 N1028 0.984 . S
H1041 N1028 0.985 . S
C1042 C1043 1.363 . S
C1042 C1048 1.379 . S
C1042 N1050 1.356 . S
C1043 C1042 1.363 . S
C1043 C1049 1.363 . S
C1044 C1045 1.363 . S
C1044 C1049 1.379 . S
C1044 N1051 1.356 . S
C1045 C1044 1.363 . S
C1045 C1048 1.363 . S
N1046 C1048 1.356 . S
N1046 H1058 0.984 . S
N1046 H1059 0.985 . S
N1047 C1049 1.356 . S
N1047 H1052 0.984 . S
N1047 H1053 0.985 . S
C1048 C1042 1.379 . S
C1048 C1045 1.363 . S
C1048 N1046 1.356 . S
C1049 C1043 1.363 . S
C1049 C1044 1.379 . S
C1049 N1047 1.356 . S
N1050 C1042 1.356 . S
N1050 H1056 0.984 . S
N1050 H1057 0.984 . S
N1051 C1044 1.356 . S
N1051 H1054 0.984 . S
N1051 H1055 0.985 . S
H1052 N1047 0.984 . S
H1053 N1047 0.985 . S
H1054 N1051 0.984 . S
H1055 N1051 0.985 . S
H1056 N1050 0.984 . S
H1057 N1050 0.984 . S
H1058 N1046 0.984 . S
H1059 N1046 0.985 . S
C1060 C1061 1.363 . S
C1060 C1066 1.379 . S
C1060 N1068 1.356 1_565 S
C1061 C1060 1.363 . S
C1061 C1067 1.363 1_554 S
C1062 C1063 1.363 1_556 S
C1062 C1067 1.379 . S
C1062 N1069 1.356 . S
C1063 C1062 1.363 1_554 S
C1063 C1066 1.363 . S
N1064 C1066 1.356 . S
N1064 H1076 0.984 . S
N1064 H1077 0.985 . S
N1065 C1067 1.356 . S
N1065 H1070 0.981 1_565 S
N1065 H1071 0.985 . S
C1066 C1060 1.379 . S
C1066 C1063 1.363 . S
C1066 N1064 1.356 . S
C1067 C1061 1.363 1_556 S
C1067 C1062 1.379 . S
C1067 N1065 1.356 . S
N1068 C1060 1.356 1_545 S
N1068 H1074 0.984 . S
N1068 H1075 0.984 . S
N1069 C1062 1.356 . S
N1069 H1072 0.984 1_556 S
N1069 H1073 0.985 . S
H1070 N1065 0.981 1_545 S
H1071 N1065 0.985 . S
H1072 N1069 0.984 1_554 S
H1073 N1069 0.985 . S
H1074 N1068 0.984 . S
H1075 N1068 0.984 . S
H1076 N1064 0.984 . S
H1077 N1064 0.985 . S
C1078 C1079 1.363 . S
C1078 C1084 1.379 . S
C1078 N1086 1.356 . S
C1079 C1078 1.363 . S
C1079 C1085 1.363 . S
C1080 C1081 1.363 . S
C1080 C1085 1.379 . S
C1080 N1087 1.356 . S
C1081 C1080 1.363 . S
C1081 C1084 1.363 . S
N1082 C1084 1.356 . S
N1082 H1094 0.984 . S
N1082 H1095 0.985 . S
N1083 C1085 1.356 . S
N1083 H1088 0.984 . S
N1083 H1089 0.985 . S
C1084 C1078 1.379 . S
C1084 C1081 1.363 . S
C1084 N1082 1.356 . S
C1085 C1079 1.363 . S
C1085 C1080 1.379 . S
C1085 N1083 1.356 . S
N1086 C1078 1.356 . S
N1086 H1092 0.984 . S
N1086 H1093 0.984 . S
N1087 C1080 1.356 . S
N1087 H1090 0.984 . S
N1087 H1091 0.985 . S
H1088 N1083 0.984 . S
H1089 N1083 0.985 . S
H1090 N1087 0.984 . S
H1091 N1087 0.985 . S
H1092 N1086 0.984 . S
H1093 N1086 0.984 . S
H1094 N1082 0.984 . S
H1095 N1082 0.985 . S
C1096 C1097 1.363 . S
C1096 C1102 1.379 . S
C1096 N1104 1.356 . S
C1097 C1096 1.363 . S
C1097 C1103 1.363 . S
C1098 C1099 1.363 . S
C1098 C1103 1.379 . S
C1098 N1105 1.356 . S
C1099 C1098 1.363 . S
C1099 C1102 1.363 . S
N1100 C1102 1.356 . S
N1100 H1112 0.984 . S
N1100 H1113 0.985 . S
N1101 C1103 1.356 . S
N1101 H1106 0.984 1_545 S
N1101 H1107 0.985 1_545 S
C1102 C1096 1.379 . S
C1102 C1099 1.363 . S
C1102 N1100 1.356 . S
C1103 C1097 1.363 . S
C1103 C1098 1.379 . S
C1103 N1101 1.356 . S
N1104 C1096 1.356 . S
N1104 H1110 0.984 . S
N1104 H1111 0.984 . S
N1105 C1098 1.356 . S
N1105 H1108 0.984 . S
N1105 H1109 0.985 . S
H1106 N1101 0.984 1_565 S
H1107 N1101 0.985 1_565 S
H1108 N1105 0.984 . S
H1109 N1105 0.985 . S
H1110 N1104 0.984 . S
H1111 N1104 0.984 . S
H1112 N1100 0.984 . S
H1113 N1100 0.985 . S
C1114 C1115 1.363 . S
C1114 C1120 1.379 . S
C1114 N1122 1.356 . S
C1115 C1114 1.363 . S
C1115 C1121 1.363 . S
C1116 C1117 1.363 . S
C1116 C1121 1.379 . S
C1116 N1123 1.356 . S
C1117 C1116 1.363 . S
C1117 C1120 1.363 . S
N1118 C1120 1.356 . S
N1118 H1130 0.984 . S
N1118 H1131 0.985 . S
N1119 C1121 1.356 . S
N1119 H1124 0.984 . S
N1119 H1125 0.985 . S
C1120 C1114 1.379 . S
C1120 C1117 1.363 . S
C1120 N1118 1.356 . S
C1121 C1115 1.363 . S
C1121 C1116 1.379 . S
C1121 N1119 1.356 . S
N1122 C1114 1.356 . S
N1122 H1128 0.984 . S
N1122 H1129 0.984 . S
N1123 C1116 1.356 . S
N1123 H1126 0.984 . S
N1123 H1127 0.985 . S
H1124 N1119 0.984 . S
H1125 N1119 0.985 . S
H1126 N1123 0.984 . S
H1127 N1123 0.985 . S
H1128 N1122 0.984 . S
H1129 N1122 0.984 . S
H1130 N1118 0.984 . S
H1131 N1118 0.985 . S
C1132 C1133 1.363 . S
C1132 C1138 1.379 . S
C1132 N1140 1.356 . S
C1133 C1132 1.363 . S
C1133 C1139 1.363 . S
C1134 C1135 1.363 . S
C1134 C1139 1.379 . S
C1134 N1141 1.356 . S
C1135 C1134 1.363 . S
C1135 C1138 1.363 . S
N1136 C1138 1.356 . S
N1136 H1148 0.984 . S
N1136 H1149 0.985 . S
N1137 C1139 1.356 . S
N1137 H1142 0.984 . S
N1137 H1143 0.985 . S
C1138 C1132 1.379 . S
C1138 C1135 1.363 . S
C1138 N1136 1.356 . S
C1139 C1133 1.363 . S
C1139 C1134 1.379 . S
C1139 N1137 1.356 . S
N1140 C1132 1.356 . S
N1140 H1146 0.984 . S
N1140 H1147 0.984 . S
N1141 C1134 1.356 . S
N1141 H1144 0.984 . S
N1141 H1145 0.985 . S
H1142 N1137 0.984 . S
H1143 N1137 0.985 . S
H1144 N1141 0.984 . S
H1145 N1141 0.985 . S
H1146 N1140 0.984 . S
H1147 N1140 0.984 . S
H1148 N1136 0.984 . S
H1149 N1136 0.985 . S
C1150 C1151 1.363 . S
C1150 C1156 1.379 . S
C1150 N1158 1.356 . S
C1151 C1150 1.363 . S
C1151 C1157 1.363 . S
C1152 C1153 1.363 . S
C1152 C1157 1.379 . S
C1152 N1159 1.356 . S
C1153 C1152 1.363 . S
C1153 C1156 1.363 . S
N1154 C1156 1.356 . S
N1154 H1166 0.984 . S
N1154 H1167 0.985 . S
N1155 C1157 1.356 . S
N1155 H1160 0.984 . S
N1155 H1161 0.985 . S
C1156 C1150 1.379 . S
C1156 C1153 1.363 . S
C1156 N1154 1.356 . S
C1157 C1151 1.363 . S
C1157 C1152 1.379 . S
C1157 N1155 1.356 . S
N1158 C1150 1.356 . S
N1158 H1164 0.984 . S
N1158 H1165 0.984 . S
N1159 C1152 1.356 . S
N1159 H1162 0.984 . S
N1159 H1163 0.985 . S
H1160 N1155 0.984 . S
H1161 N1155 0.985 . S
H1162 N1159 0.984 . S
H1163 N1159 0.985 . S
H1164 N1158 0.984 . S
H1165 N1158 0.984 . S
H1166 N1154 0.984 . S
H1167 N1154 0.985 . S
C1168 C1169 1.363 . S
C1168 C1174 1.379 . S
C1168 N1176 1.356 . S
C1169 C1168 1.363 . S
C1169 C1175 1.363 . S
C1170 C1171 1.363 . S
C1170 C1175 1.379 . S
C1170 N1177 1.356 . S
C1171 C1170 1.363 . S
C1171 C1174 1.363 . S
N1172 C1174 1.356 . S
N1172 H1184 0.984 . S
N1172 H1185 0.985 . S
N1173 C1175 1.356 . S
N1173 H1178 0.984 . S
N1173 H1179 0.985 . S
C1174 C1168 1.379 . S
C1174 C1171 1.363 . S
C1174 N1172 1.356 . S
C1175 C1169 1.363 . S
C1175 C1170 1.379 . S
C1175 N1173 1.356 . S
N1176 C1168 1.356 . S
N1176 H1182 0.984 . S
N1176 H1183 0.984 . S
N1177 C1170 1.356 . S
N1177 H1180 0.984 . S
N1177 H1181 0.985 . S
H1178 N1173 0.984 . S
H1179 N1173 0.985 . S
H1180 N1177 0.984 . S
H1181 N1177 0.985 . S
H1182 N1176 0.984 . S
H1183 N1176 0.984 . S
H1184 N1172 0.984 . S
H1185 N1172 0.985 . S
C1186 C1187 1.363 . S
C1186 C1192 1.379 . S
C1186 N1194 1.356 . S
C1187 C1186 1.363 . S
C1187 C1193 1.363 . S
C1188 C1189 1.363 . S
C1188 C1193 1.379 . S
C1188 N1195 1.357 1_545 S
C1189 C1188 1.363 . S
C1189 C1192 1.363 . S
N1190 C1192 1.356 . S
N1190 H1202 0.984 . S
N1190 H1203 0.985 . S
N1191 C1193 1.356 . S
N1191 H1196 0.984 . S
N1191 H1197 0.985 1_545 S
C1192 C1186 1.379 . S
C1192 C1189 1.363 . S
C1192 N1190 1.356 . S
C1193 C1187 1.363 . S
C1193 C1188 1.379 . S
C1193 N1191 1.356 . S
N1194 C1186 1.356 . S
N1194 H1200 0.984 . S
N1194 H1201 0.984 . S
N1195 C1188 1.357 1_565 S
N1195 H1198 0.985 1_565 S
N1195 H1199 0.984 . S
H1196 N1191 0.984 . S
H1197 N1191 0.985 1_565 S
H1198 N1195 0.985 1_545 S
H1199 N1195 0.984 . S
H1200 N1194 0.984 . S
H1201 N1194 0.984 . S
H1202 N1190 0.984 . S
H1203 N1190 0.985 . S
C1204 C1205 1.363 . S
C1204 C1210 1.379 . S
C1204 N1212 1.356 . S
C1205 C1204 1.363 . S
C1205 C1211 1.363 . S
C1206 C1207 1.363 . S
C1206 C1211 1.379 . S
C1206 N1213 1.356 . S
C1207 C1206 1.363 . S
C1207 C1210 1.363 . S
N1208 C1210 1.356 . S
N1208 H1220 0.984 . S
N1208 H1221 0.985 . S
N1209 C1211 1.356 . S
N1209 H1214 0.984 . S
N1209 H1215 0.985 . S
C1210 C1204 1.379 . S
C1210 C1207 1.363 . S
C1210 N1208 1.356 . S
C1211 C1205 1.363 . S
C1211 C1206 1.379 . S
C1211 N1209 1.356 . S
N1212 C1204 1.356 . S
N1212 H1218 0.984 . S
N1212 H1219 0.984 . S
N1213 C1206 1.356 . S
N1213 H1216 0.984 . S
N1213 H1217 0.985 . S
H1214 N1209 0.984 . S
H1215 N1209 0.985 . S
H1216 N1213 0.984 . S
H1217 N1213 0.985 . S
H1218 N1212 0.984 . S
H1219 N1212 0.984 . S
H1220 N1208 0.984 . S
H1221 N1208 0.985 . S
C1222 C1223 1.363 . S
C1222 C1228 1.379 . S
C1222 N1230 1.356 . S
C1223 C1222 1.363 . S
C1223 C1229 1.363 . S
C1224 C1225 1.363 . S
C1224 C1229 1.379 . S
C1224 N1231 1.356 . S
C1225 C1224 1.363 . S
C1225 C1228 1.363 . S
N1226 C1228 1.356 . S
N1226 H1238 0.984 . S
N1226 H1239 0.985 . S
N1227 C1229 1.356 . S
N1227 H1232 0.984 . S
N1227 H1233 0.985 . S
C1228 C1222 1.379 . S
C1228 C1225 1.363 . S
C1228 N1226 1.356 . S
C1229 C1223 1.363 . S
C1229 C1224 1.379 . S
C1229 N1227 1.356 . S
N1230 C1222 1.356 . S
N1230 H1236 0.984 . S
N1230 H1237 0.984 . S
N1231 C1224 1.356 . S
N1231 H1234 0.984 . S
N1231 H1235 0.985 . S
H1232 N1227 0.984 . S
H1233 N1227 0.985 . S
H1234 N1231 0.984 . S
H1235 N1231 0.985 . S
H1236 N1230 0.984 . S
H1237 N1230 0.984 . S
H1238 N1226 0.984 . S
H1239 N1226 0.985 . S
C1240 C1241 1.363 . S
C1240 C1246 1.379 . S
C1240 N1248 1.356 . S
C1241 C1240 1.363 . S
C1241 C1247 1.363 . S
C1242 C1243 1.363 . S
C1242 C1247 1.379 . S
C1242 N1249 1.356 . S
C1243 C1242 1.363 . S
C1243 C1246 1.363 . S
N1244 C1246 1.356 . S
N1244 H1256 0.984 . S
N1244 H1257 0.985 . S
N1245 C1247 1.356 . S
N1245 H1250 0.984 . S
N1245 H1251 0.985 . S
C1246 C1240 1.379 . S
C1246 C1243 1.363 . S
C1246 N1244 1.356 . S
C1247 C1241 1.363 . S
C1247 C1242 1.379 . S
C1247 N1245 1.356 . S
N1248 C1240 1.356 . S
N1248 H1254 0.984 . S
N1248 H1255 0.984 . S
N1249 C1242 1.356 . S
N1249 H1252 0.984 . S
N1249 H1253 0.985 . S
H1250 N1245 0.984 . S
H1251 N1245 0.985 . S
H1252 N1249 0.984 . S
H1253 N1249 0.985 . S
H1254 N1248 0.984 . S
H1255 N1248 0.984 . S
H1256 N1244 0.984 . S
H1257 N1244 0.985 . S
C1258 C1259 1.363 1_565 S
C1258 C1264 1.379 1_455 S
C1258 N1266 1.356 . S
C1259 C1258 1.363 1_545 S
C1259 C1265 1.363 . S
C1260 C1261 1.363 . S
C1260 C1265 1.379 . S
C1260 N1267 1.356 . S
C1261 C1260 1.363 . S
C1261 C1264 1.363 1_445 S
N1262 C1264 1.356 . S
N1262 H1274 0.984 . S
N1262 H1275 0.985 . S
N1263 C1265 1.356 . S
N1263 H1268 0.984 . S
N1263 H1269 0.985 . S
C1264 C1258 1.379 1_655 S
C1264 C1261 1.363 1_665 S
C1264 N1262 1.356 . S
C1265 C1259 1.363 . S
C1265 C1260 1.379 . S
C1265 N1263 1.356 . S
N1266 C1258 1.356 . S
N1266 H1272 0.984 1_455 S
N1266 H1273 0.984 . S
N1267 C1260 1.356 . S
N1267 H1270 0.984 . S
N1267 H1271 0.985 . S
H1268 N1263 0.984 . S
H1269 N1263 0.985 . S
H1270 N1267 0.984 . S
H1271 N1267 0.985 . S
H1272 N1266 0.984 1_655 S
H1273 N1266 0.984 . S
H1274 N1262 0.984 . S
H1275 N1262 0.985 . S
C1276 C1277 1.363 . S
C1276 C1282 1.379 . S
C1276 N1284 1.356 . S
C1277 C1276 1.363 . S
C1277 C1283 1.363 . S
C1278 C1279 1.363 . S
C1278 C1283 1.379 . S
C1278 N1285 1.356 . S
C1279 C1278 1.363 . S
C1279 C1282 1.363 . S
N1280 C1282 1.356 . S
N1280 H1292 0.984 . S
N1280 H1293 0.985 . S
N1281 C1283 1.356 . S
N1281 H1286 0.984 . S
N1281 H1287 0.985 . S
C1282 C1276 1.379 . S
C1282 C1279 1.363 . S
C1282 N1280 1.356 . S
C1283 C1277 1.363 . S
C1283 C1278 1.379 . S
C1283 N1281 1.356 . S
N1284 C1276 1.356 . S
N1284 H1290 0.984 . S
N1284 H1291 0.984 . S
N1285 C1278 1.356 . S
N1285 H1288 0.984 . S
N1285 H1289 0.985 . S
H1286 N1281 0.984 . S
H1287 N1281 0.985 . S
H1288 N1285 0.984 . S
H1289 N1285 0.985 . S
H1290 N1284 0.984 . S
H1291 N1284 0.984 . S
H1292 N1280 0.984 . S
H1293 N1280 0.985 . S
C1294 C1295 1.363 . S
C1294 C1300 1.379 . S
C1294 N1302 1.356 . S
C1295 C1294 1.363 . S
C1295 C1301 1.363 . S
C1296 C1297 1.363 . S
C1296 C1301 1.379 . S
C1296 N1303 1.356 . S
C1297 C1296 1.363 . S
C1297 C1300 1.363 . S
N1298 C1300 1.356 . S
N1298 H1310 0.984 . S
N1298 H1311 0.985 . S
N1299 C1301 1.356 . S
N1299 H1304 0.984 . S
N1299 H1305 0.985 . S
C1300 C1294 1.379 . S
C1300 C1297 1.363 . S
C1300 N1298 1.356 . S
C1301 C1295 1.363 . S
C1301 C1296 1.379 . S
C1301 N1299 1.356 . S
N1302 C1294 1.356 . S
N1302 H1308 0.984 1_455 S
N1302 H1309 0.984 1_455 S
N1303 C1296 1.356 . S
N1303 H1306 0.984 . S
N1303 H1307 0.985 . S
H1304 N1299 0.984 . S
H1305 N1299 0.985 . S
H1306 N1303 0.984 . S
H1307 N1303 0.985 . S
H1308 N1302 0.984 1_655 S
H1309 N1302 0.984 1_655 S
H1310 N1298 0.984 . S
H1311 N1298 0.985 . S
C1312 C1313 1.363 . S
C1312 C1318 1.379 . S
C1312 N1320 1.356 . S
C1313 C1312 1.363 . S
C1313 C1319 1.363 . S
C1314 C1315 1.363 . S
C1314 C1319 1.379 . S
C1314 N1321 1.356 . S
C1315 C1314 1.363 . S
C1315 C1318 1.363 . S
N1316 C1318 1.356 . S
N1316 H1328 0.984 . S
N1316 H1329 0.985 . S
N1317 C1319 1.356 . S
N1317 H1322 0.984 . S
N1317 H1323 0.985 . S
C1318 C1312 1.379 . S
C1318 C1315 1.363 . S
C1318 N1316 1.356 . S
C1319 C1313 1.363 . S
C1319 C1314 1.379 . S
C1319 N1317 1.356 . S
N1320 C1312 1.356 . S
N1320 H1326 0.984 . S
N1320 H1327 0.984 . S
N1321 C1314 1.356 . S
N1321 H1324 0.984 . S
N1321 H1325 0.985 . S
H1322 N1317 0.984 . S
H1323 N1317 0.985 . S
H1324 N1321 0.984 . S
H1325 N1321 0.985 . S
H1326 N1320 0.984 . S
H1327 N1320 0.984 . S
H1328 N1316 0.984 . S
H1329 N1316 0.985 . S
C1330 C1331 1.363 . S
C1330 C1336 1.379 . S
C1330 N1338 1.356 . S
C1331 C1330 1.363 . S
C1331 C1337 1.363 1_455 S
C1332 C1333 1.363 1_655 S
C1332 C1337 1.379 . S
C1332 N1339 1.356 . S
C1333 C1332 1.363 1_455 S
C1333 C1336 1.363 . S
N1334 C1336 1.356 . S
N1334 H1346 0.984 . S
N1334 H1347 0.985 . S
N1335 C1337 1.356 . S
N1335 H1340 0.984 . S
N1335 H1341 0.985 . S
C1336 C1330 1.379 . S
C1336 C1333 1.363 . S
C1336 N1334 1.356 . S
C1337 C1331 1.363 1_655 S
C1337 C1332 1.379 . S
C1337 N1335 1.356 . S
N1338 C1330 1.356 . S
N1338 H1344 0.984 . S
N1338 H1345 0.984 . S
N1339 C1332 1.356 . S
N1339 H1342 0.984 . S
N1339 H1343 0.985 . S
H1340 N1335 0.984 . S
H1341 N1335 0.985 . S
H1342 N1339 0.984 . S
H1343 N1339 0.985 . S
H1344 N1338 0.984 . S
H1345 N1338 0.984 . S
H1346 N1334 0.984 . S
H1347 N1334 0.985 . S
C1348 C1349 1.363 . S
C1348 C1354 1.379 . S
C1348 N1356 1.356 . S
C1349 C1348 1.363 . S
C1349 C1355 1.363 . S
C1350 C1351 1.363 . S
C1350 C1355 1.379 . S
C1350 N1357 1.356 . S
C1351 C1350 1.363 . S
C1351 C1354 1.363 . S
N1352 C1354 1.356 . S
N1352 H1364 0.984 . S
N1352 H1365 0.985 . S
N1353 C1355 1.356 . S
N1353 H1358 0.984 . S
N1353 H1359 0.985 . S
C1354 C1348 1.379 . S
C1354 C1351 1.363 . S
C1354 N1352 1.356 . S
C1355 C1349 1.363 . S
C1355 C1350 1.379 . S
C1355 N1353 1.356 . S
N1356 C1348 1.356 . S
N1356 H1362 0.984 . S
N1356 H1363 0.984 . S
N1357 C1350 1.356 . S
N1357 H1360 0.984 . S
N1357 H1361 0.985 . S
H1358 N1353 0.984 . S
H1359 N1353 0.985 . S
H1360 N1357 0.984 . S
H1361 N1357 0.985 . S
H1362 N1356 0.984 . S
H1363 N1356 0.984 . S
H1364 N1352 0.984 . S
H1365 N1352 0.985 . S
C1366 C1367 1.363 . S
C1366 C1372 1.379 . S
C1366 N1374 1.356 . S
C1367 C1366 1.363 . S
C1367 C1373 1.363 . S
C1368 C1369 1.363 . S
C1368 C1373 1.379 . S
C1368 N1375 1.356 . S
C1369 C1368 1.363 . S
C1369 C1372 1.363 . S
N1370 C1372 1.356 1_655 S
N1370 H1382 0.984 . S
N1370 H1383 0.985 . S
N1371 C1373 1.356 . S
N1371 H1376 0.984 . S
N1371 H1377 0.985 1_556 S
C1372 C1366 1.379 . S
C1372 C1369 1.363 . S
C1372 N1370 1.356 1_455 S
C1373 C1367 1.363 . S
C1373 C1368 1.379 . S
C1373 N1371 1.356 . S
N1374 C1366 1.356 . S
N1374 H1380 0.984 . S
N1374 H1381 0.984 . S
N1375 C1368 1.356 . S
N1375 H1378 0.984 . S
N1375 H1379 0.985 . S
H1376 N1371 0.984 . S
H1377 N1371 0.985 1_554 S
H1378 N1375 0.984 . S
H1379 N1375 0.985 . S
H1380 N1374 0.984 . S
H1381 N1374 0.984 . S
H1382 N1370 0.984 . S
H1383 N1370 0.985 . S
C1384 C1385 1.363 . S
C1384 C1390 1.379 . S
C1384 N1392 1.356 . S
C1385 C1384 1.363 . S
C1385 C1391 1.363 . S
C1386 C1387 1.363 . S
C1386 C1391 1.379 . S
C1386 N1393 1.356 . S
C1387 C1386 1.363 . S
C1387 C1390 1.363 . S
N1388 C1390 1.356 . S
N1388 H1400 0.984 . S
N1388 H1401 0.985 . S
N1389 C1391 1.356 . S
N1389 H1394 0.984 . S
N1389 H1395 0.985 . S
C1390 C1384 1.379 . S
C1390 C1387 1.363 . S
C1390 N1388 1.356 . S
C1391 C1385 1.363 . S
C1391 C1386 1.379 . S
C1391 N1389 1.356 . S
N1392 C1384 1.356 . S
N1392 H1398 0.984 . S
N1392 H1399 0.984 . S
N1393 C1386 1.356 . S
N1393 H1396 0.984 . S
N1393 H1397 0.985 . S
H1394 N1389 0.984 . S
H1395 N1389 0.985 . S
H1396 N1393 0.984 . S
H1397 N1393 0.985 . S
H1398 N1392 0.984 . S
H1399 N1392 0.984 . S
H1400 N1388 0.984 . S
H1401 N1388 0.985 . S
C1402 C1403 1.363 . S
C1402 C1408 1.379 . S
C1402 N1410 1.356 . S
C1403 C1402 1.363 . S
C1403 C1409 1.363 . S
C1404 C1405 1.363 . S
C1404 C1409 1.379 . S
C1404 N1411 1.356 . S
C1405 C1404 1.363 . S
C1405 C1408 1.363 . S
N1406 C1408 1.356 . S
N1406 H1418 0.984 . S
N1406 H1419 0.985 . S
N1407 C1409 1.356 . S
N1407 H1412 0.984 . S
N1407 H1413 0.985 . S
C1408 C1402 1.379 . S
C1408 C1405 1.363 . S
C1408 N1406 1.356 . S
C1409 C1403 1.363 . S
C1409 C1404 1.379 . S
C1409 N1407 1.356 . S
N1410 C1402 1.356 . S
N1410 H1416 0.984 . S
N1410 H1417 0.984 . S
N1411 C1404 1.356 . S
N1411 H1414 0.984 . S
N1411 H1415 0.985 . S
H1412 N1407 0.984 . S
H1413 N1407 0.985 . S
H1414 N1411 0.984 . S
H1415 N1411 0.985 . S
H1416 N1410 0.984 . S
H1417 N1410 0.984 . S
H1418 N1406 0.984 . S
H1419 N1406 0.985 . S
C1420 C1421 1.363 . S
C1420 C1426 1.379 . S
C1420 N1428 1.356 . S
C1421 C1420 1.363 . S
C1421 C1427 1.363 . S
C1422 C1423 1.363 . S
C1422 C1427 1.379 . S
C1422 N1429 1.356 . S
C1423 C1422 1.363 . S
C1423 C1426 1.363 . S
N1424 C1426 1.356 . S
N1424 H1436 0.984 . S
N1424 H1437 0.985 . S
N1425 C1427 1.356 . S
N1425 H1430 0.984 . S
N1425 H1431 0.985 . S
C1426 C1420 1.379 . S
C1426 C1423 1.363 . S
C1426 N1424 1.356 . S
C1427 C1421 1.363 . S
C1427 C1422 1.379 . S
C1427 N1425 1.356 . S
N1428 C1420 1.356 . S
N1428 H1434 0.984 . S
N1428 H1435 0.984 . S
N1429 C1422 1.356 . S
N1429 H1432 0.984 . S
N1429 H1433 0.985 . S
H1430 N1425 0.984 . S
H1431 N1425 0.985 . S
H1432 N1429 0.984 . S
H1433 N1429 0.985 . S
H1434 N1428 0.984 . S
H1435 N1428 0.984 . S
H1436 N1424 0.984 . S
H1437 N1424 0.985 . S
C1438 C1439 1.363 . S
C1438 C1444 1.379 . S
C1438 N1446 1.356 . S
C1439 C1438 1.363 . S
C1439 C1445 1.363 . S
C1440 C1441 1.363 . S
C1440 C1445 1.379 . S
C1440 N1447 1.356 . S
C1441 C1440 1.363 . S
C1441 C1444 1.363 . S
N1442 C1444 1.356 . S
N1442 H1454 0.984 . S
N1442 H1455 0.985 . S
N1443 C1445 1.356 . S
N1443 H1448 0.984 . S
N1443 H1449 0.985 . S
C1444 C1438 1.379 . S
C1444 C1441 1.363 . S
C1444 N1442 1.356 . S
C1445 C1439 1.363 . S
C1445 C1440 1.379 . S
C1445 N1443 1.356 . S
N1446 C1438 1.356 . S
N1446 H1452 0.984 1_554 S
N1446 H1453 0.984 1_554 S
N1447 C1440 1.356 . S
N1447 H1450 0.984 . S
N1447 H1451 0.985 . S
H1448 N1443 0.984 . S
H1449 N1443 0.985 . S
H1450 N1447 0.984 . S
H1451 N1447 0.985 . S
H1452 N1446 0.984 1_556 S
H1453 N1446 0.984 1_556 S
H1454 N1442 0.984 . S
H1455 N1442 0.985 . S
C1456 C1457 1.363 . S
C1456 C1462 1.379 . S
C1456 N1464 1.356 . S
C1457 C1456 1.363 . S
C1457 C1463 1.363 . S
C1458 C1459 1.363 . S
C1458 C1463 1.379 . S
C1458 N1465 1.356 . S
C1459 C1458 1.363 . S
C1459 C1462 1.363 . S
N1460 C1462 1.356 . S
N1460 H1472 0.984 . S
N1460 H1473 0.985 . S
N1461 C1463 1.356 . S
N1461 H1466 0.984 . S
N1461 H1467 0.985 . S
C1462 C1456 1.379 . S
C1462 C1459 1.363 . S
C1462 N1460 1.356 . S
C1463 C1457 1.363 . S
C1463 C1458 1.379 . S
C1463 N1461 1.356 . S
N1464 C1456 1.356 . S
N1464 H1470 0.984 . S
N1464 H1471 0.984 . S
N1465 C1458 1.356 . S
N1465 H1468 0.984 . S
N1465 H1469 0.985 . S
H1466 N1461 0.984 . S
H1467 N1461 0.985 . S
H1468 N1465 0.984 . S
H1469 N1465 0.985 . S
H1470 N1464 0.984 . S
H1471 N1464 0.984 . S
H1472 N1460 0.984 . S
H1473 N1460 0.985 . S
C1474 C1475 1.363 . S
C1474 C1480 1.379 . S
C1474 N1482 1.356 . S
C1475 C1474 1.363 . S
C1475 C1481 1.363 . S
C1476 C1477 1.363 . S
C1476 C1481 1.379 . S
C1476 N1483 1.356 . S
C1477 C1476 1.363 . S
C1477 C1480 1.363 . S
N1478 C1480 1.356 . S
N1478 H1490 0.984 . S
N1478 H1491 0.985 . S
N1479 C1481 1.356 . S
N1479 H1484 0.984 . S
N1479 H1485 0.985 . S
C1480 C1474 1.379 . S
C1480 C1477 1.363 . S
C1480 N1478 1.356 . S
C1481 C1475 1.363 . S
C1481 C1476 1.379 . S
C1481 N1479 1.356 . S
N1482 C1474 1.356 . S
N1482 H1488 0.984 . S
N1482 H1489 0.984 . S
N1483 C1476 1.356 . S
N1483 H1486 0.984 . S
N1483 H1487 0.985 . S
H1484 N1479 0.984 . S
H1485 N1479 0.985 . S
H1486 N1483 0.984 . S
H1487 N1483 0.985 . S
H1488 N1482 0.984 . S
H1489 N1482 0.984 . S
H1490 N1478 0.984 . S
H1491 N1478 0.985 . S
C1492 C1493 1.363 . S
C1492 C1498 1.379 . S
C1492 N1500 1.356 . S
C1493 C1492 1.363 . S
C1493 C1499 1.363 . S
C1494 C1495 1.363 . S
C1494 C1499 1.379 . S
C1494 N1501 1.356 . S
C1495 C1494 1.363 . S
C1495 C1498 1.363 . S
N1496 C1498 1.356 . S
N1496 H1508 0.984 . S
N1496 H1509 0.985 . S
N1497 C1499 1.356 . S
N1497 H1502 0.984 . S
N1497 H1503 0.985 . S
C1498 C1492 1.379 . S
C1498 C1495 1.363 . S
C1498 N1496 1.356 . S
C1499 C1493 1.363 . S
C1499 C1494 1.379 . S
C1499 N1497 1.356 . S
N1500 C1492 1.356 . S
N1500 H1506 0.984 . S
N1500 H1507 0.984 . S
N1501 C1494 1.356 . S
N1501 H1504 0.984 . S
N1501 H1505 0.985 . S
H1502 N1497 0.984 . S
H1503 N1497 0.985 . S
H1504 N1501 0.984 . S
H1505 N1501 0.985 . S
H1506 N1500 0.984 . S
H1507 N1500 0.984 . S
H1508 N1496 0.984 . S
H1509 N1496 0.985 . S
C1510 C1511 1.363 . S
C1510 C1516 1.379 . S
C1510 N1518 1.356 . S
C1511 C1510 1.363 . S
C1511 C1517 1.363 . S
C1512 C1513 1.363 . S
C1512 C1517 1.379 . S
C1512 N1519 1.356 . S
C1513 C1512 1.363 . S
C1513 C1516 1.363 . S
N1514 C1516 1.356 . S
N1514 H1526 0.984 . S
N1514 H1527 0.985 . S
N1515 C1517 1.356 . S
N1515 H1520 0.984 . S
N1515 H1521 0.985 . S
C1516 C1510 1.379 . S
C1516 C1513 1.363 . S
C1516 N1514 1.356 . S
C1517 C1511 1.363 . S
C1517 C1512 1.379 . S
C1517 N1515 1.356 . S
N1518 C1510 1.356 . S
N1518 H1524 0.984 . S
N1518 H1525 0.984 . S
N1519 C1512 1.356 . S
N1519 H1522 0.984 . S
N1519 H1523 0.985 . S
H1520 N1515 0.984 . S
H1521 N1515 0.985 . S
H1522 N1519 0.984 . S
H1523 N1519 0.985 . S
H1524 N1518 0.984 . S
H1525 N1518 0.984 . S
H1526 N1514 0.984 . S
H1527 N1514 0.985 . S
C1528 C1529 1.363 . S
C1528 C1534 1.379 . S
C1528 N1536 1.356 . S
C1529 C1528 1.363 . S
C1529 C1535 1.363 1_556 S
C1530 C1531 1.363 1_554 S
C1530 C1535 1.379 . S
C1530 N1537 1.356 . S
C1531 C1530 1.363 1_556 S
C1531 C1534 1.363 . S
N1532 C1534 1.356 . S
N1532 H1544 0.984 . S
N1532 H1545 0.985 . S
N1533 C1535 1.356 . S
N1533 H1538 0.984 . S
N1533 H1539 0.985 . S
C1534 C1528 1.379 . S
C1534 C1531 1.363 . S
C1534 N1532 1.356 . S
C1535 C1529 1.363 1_554 S
C1535 C1530 1.379 . S
C1535 N1533 1.356 . S
N1536 C1528 1.356 . S
N1536 H1542 0.984 . S
N1536 H1543 0.984 . S
N1537 C1530 1.356 . S
N1537 H1540 0.984 . S
N1537 H1541 0.985 . S
H1538 N1533 0.984 . S
H1539 N1533 0.985 . S
H1540 N1537 0.984 . S
H1541 N1537 0.985 . S
H1542 N1536 0.984 . S
H1543 N1536 0.984 . S
H1544 N1532 0.984 . S
H1545 N1532 0.985 . S
C1546 C1547 1.363 . S
C1546 C1552 1.379 . S
C1546 N1554 1.356 . S
C1547 C1546 1.363 . S
C1547 C1553 1.363 . S
C1548 C1549 1.363 . S
C1548 C1553 1.379 . S
C1548 N1555 1.356 . S
C1549 C1548 1.363 . S
C1549 C1552 1.363 . S
N1550 C1552 1.356 . S
N1550 H1562 0.984 . S
N1550 H1563 0.985 . S
N1551 C1553 1.356 . S
N1551 H1556 0.984 . S
N1551 H1557 0.985 . S
C1552 C1546 1.379 . S
C1552 C1549 1.363 . S
C1552 N1550 1.356 . S
C1553 C1547 1.363 . S
C1553 C1548 1.379 . S
C1553 N1551 1.356 . S
N1554 C1546 1.356 . S
N1554 H1560 0.984 . S
N1554 H1561 0.984 . S
N1555 C1548 1.356 . S
N1555 H1558 0.984 . S
N1555 H1559 0.985 . S
H1556 N1551 0.984 . S
H1557 N1551 0.985 . S
H1558 N1555 0.984 . S
H1559 N1555 0.985 . S
H1560 N1554 0.984 . S
H1561 N1554 0.984 . S
H1562 N1550 0.984 . S
H1563 N1550 0.985 . S
C1564 C1565 1.363 . S
C1564 C1570 1.379 . S
C1564 N1572 1.356 . S
C1565 C1564 1.363 . S
C1565 C1571 1.363 . S
C1566 C1567 1.363 1_556 S
C1566 C1571 1.379 1_556 S
C1566 N1573 1.356 . S
C1567 C1566 1.363 1_554 S
C1567 C1570 1.363 . S
N1568 C1570 1.356 . S
N1568 H1580 0.984 . S
N1568 H1581 0.985 . S
N1569 C1571 1.356 1_556 S
N1569 H1574 0.983 1_656 S
N1569 H1575 0.985 1_655 S
C1570 C1564 1.379 . S
C1570 C1567 1.363 . S
C1570 N1568 1.356 . S
C1571 C1565 1.363 . S
C1571 C1566 1.379 1_554 S
C1571 N1569 1.356 1_554 S
N1572 C1564 1.356 . S
N1572 H1578 0.984 . S
N1572 H1579 0.984 . S
N1573 C1566 1.356 . S
N1573 H1576 0.984 . S
N1573 H1577 0.985 . S
H1574 N1569 0.983 1_454 S
H1575 N1569 0.985 1_455 S
H1576 N1573 0.984 . S
H1577 N1573 0.985 . S
H1578 N1572 0.984 . S
H1579 N1572 0.984 . S
H1580 N1568 0.984 . S
H1581 N1568 0.985 . S
C1582 C1583 1.363 . S
C1582 C1588 1.379 . S
C1582 N1590 1.356 . S
C1583 C1582 1.363 . S
C1583 C1589 1.363 . S
C1584 C1585 1.363 . S
C1584 C1589 1.379 . S
C1584 N1591 1.356 . S
C1585 C1584 1.363 . S
C1585 C1588 1.363 . S
N1586 C1588 1.356 . S
N1586 H1598 0.984 1_554 S
N1586 H1599 0.985 . S
N1587 C1589 1.356 1_545 S
N1587 H1592 0.984 . S
N1587 H1593 0.985 . S
C1588 C1582 1.379 . S
C1588 C1585 1.363 . S
C1588 N1586 1.356 . S
C1589 C1583 1.363 . S
C1589 C1584 1.379 . S
C1589 N1587 1.356 1_565 S
N1590 C1582 1.356 . S
N1590 H1596 0.984 1_554 S
N1590 H1597 0.984 . S
N1591 C1584 1.356 . S
N1591 H1594 0.984 . S
N1591 H1595 0.985 . S
H1592 N1587 0.984 . S
H1593 N1587 0.985 . S
H1594 N1591 0.984 . S
H1595 N1591 0.985 . S
H1596 N1590 0.984 1_556 S
H1597 N1590 0.984 . S
H1598 N1586 0.984 1_556 S
H1599 N1586 0.985 . S
C739 C306 1.855 . S
C737 C101 1.822 . S
C757 C354 1.305 . S
C755 C125 1.197 . S
C773 C139 1.869 . S
C775 C390 1.775 . S
C793 C426 1.722 1_455 S
C791 C82 1.801 1_545 S
C811 C452 1.533 . S
C809 C196 1.530 . S
C829 C488 1.844 . S
C827 C234 1.879 . S
C845 C220 1.070 . S
C847 C523 1.259 . S
C865 C560 1.726 . S
C863 C173 1.734 1_545 S
C881 C211 1.203 . S
C883 C594 1.224 . S
C901 C642 1.225 . S
C899 C182 1.179 . S
C917 C201 1.185 . S
C919 C595 1.396 . S
C937 C632 1.511 . S
C935 C239 1.368 . S
C953 C135 1.646 . S
C955 C678 1.557 . S
C971 C87 1.704 . S
C973 C667 1.874 . S
C989 C106 1.192 . S
C991 C668 1.395 . S
C1007 C116 1.343 . S
C1009 C666 1.344 1_655 S
C1025 C59 1.709 . S
C1027 C414 1.712 . S
C1043 C268 2.059 . S
C1045 C415 2.084 . S
C1063 C318 1.348 . S
C1061 C291 1.461 1_564 S
C1081 C343 1.430 . S
C1079 C163 1.340 . S
C1097 C78 2.039 . S
C1099 C450 2.049 . S
C1117 C558 1.319 . S
C1115 C215 1.333 . S
C1135 C451 1.624 . S
C1133 C177 1.644 . S
C1153 C524 1.840 . S
C1151 C230 1.842 . S
C1171 C522 1.855 . S
C1169 C272 1.822 . S
C1187 C296 1.197 . S
C1189 C570 1.305 . S
C1205 C158 1.869 . S
C1207 C462 1.776 . S
C1225 C498 1.722 . S
C1223 C253 1.801 . S
C1241 C63 1.530 . S
C1243 C380 1.533 . S
C1261 C416 1.844 1_455 S
C1259 C6 1.879 . S
C1279 C307 1.259 . S
C1277 C30 1.070 . S
C1297 C344 1.726 . S
C1295 C40 1.736 . S
C1313 C21 1.203 . S
C1315 C630 1.224 . S
C1331 C49 1.179 . S
C1333 C606 1.225 . S
C1349 C68 1.184 . S
C1351 C631 1.396 . S
C1367 C11 1.368 . S
C1369 C596 1.511 . S
C1387 C714 1.557 . S
C1385 C154 1.646 . S
C1405 C703 1.874 . S
C1403 C258 1.704 . S
C1423 C704 1.395 . S
C1421 C277 1.192 . S
C1439 C287 1.343 . S
C1441 C702 1.345 . S
C1457 C192 1.709 . S
C1459 C486 1.712 . S
C1477 C487 2.084 . S
C1475 C97 2.059 . S
C1495 C534 1.348 . S
C1493 C120 1.461 . S
C1513 C559 1.430 . S
C1511 C144 1.340 . S
C1529 C249 2.039 . S
C1531 C378 2.049 . S
C1549 C342 1.319 . S
C1547 C25 1.333 . S
C1565 C44 1.645 . S
C1567 C379 1.621 1_554 S
C1585 C308 1.840 . S
C1583 C2 1.842 . S
