# Generated by pormake.
# Topology eea, (3,6)-cn, num edge types: 1
# Building blocks:
#     Node 0, Type 0, BuildingBlock: QEWDON_clean_linker_0, # of connection points: 3
#     Node 1, Type 0, BuildingBlock: QEWDON_clean_linker_0, # of connection points: 3
#     Node 2, Type 0, BuildingBlock: QEWDON_clean_linker_0, # of connection points: 3
#     Node 3, Type 0, BuildingBlock: QEWDON_clean_linker_0, # of connection points: 3
#     Node 4, Type 0, BuildingBlock: QEWDON_clean_linker_0, # of connection points: 3
#     Node 5, Type 0, BuildingBlock: QEWDON_clean_linker_0, # of connection points: 3
#     Node 6, Type 0, BuildingBlock: QEWDON_clean_linker_0, # of connection points: 3
#     Node 7, Type 0, BuildingBlock: QEWDON_clean_linker_0, # of connection points: 3
#     Node 8, Type 0, BuildingBlock: QEWDON_clean_linker_0, # of connection points: 3
#     Node 9, Type 0, BuildingBlock: QEWDON_clean_linker_0, # of connection points: 3
#     Node 10, Type 0, BuildingBlock: QEWDON_clean_linker_0, # of connection points: 3
#     Node 11, Type 0, BuildingBlock: QEWDON_clean_linker_0, # of connection points: 3
#     Node 12, Type 0, BuildingBlock: QEWDON_clean_linker_0, # of connection points: 3
#     Node 13, Type 0, BuildingBlock: QEWDON_clean_linker_0, # of connection points: 3
#     Node 14, Type 0, BuildingBlock: QEWDON_clean_linker_0, # of connection points: 3
#     Node 15, Type 0, BuildingBlock: QEWDON_clean_linker_0, # of connection points: 3
#     Node 16, Type 0, BuildingBlock: QEWDON_clean_linker_0, # of connection points: 3
#     Node 17, Type 0, BuildingBlock: QEWDON_clean_linker_0, # of connection points: 3
#     Node 18, Type 1, BuildingBlock: LEVNOQ01_clean_sbu_1, # of connection points: 6
#     Node 19, Type 1, BuildingBlock: LEVNOQ01_clean_sbu_1, # of connection points: 6
#     Node 20, Type 1, BuildingBlock: LEVNOQ01_clean_sbu_1, # of connection points: 6
#     Node 21, Type 1, BuildingBlock: LEVNOQ01_clean_sbu_1, # of connection points: 6
#     Node 22, Type 1, BuildingBlock: LEVNOQ01_clean_sbu_1, # of connection points: 6
#     Node 23, Type 1, BuildingBlock: LEVNOQ01_clean_sbu_1, # of connection points: 6
#     Node 24, Type 1, BuildingBlock: LEVNOQ01_clean_sbu_1, # of connection points: 6
#     Node 25, Type 1, BuildingBlock: LEVNOQ01_clean_sbu_1, # of connection points: 6
#     Node 26, Type 1, BuildingBlock: LEVNOQ01_clean_sbu_1, # of connection points: 6
#     Edge 27, Type (0, 1), None
#     Edge 28, Type (0, 1), None
#     Edge 29, Type (0, 1), None
#     Edge 30, Type (0, 1), None
#     Edge 31, Type (0, 1), None
#     Edge 32, Type (0, 1), None
#     Edge 33, Type (0, 1), None
#     Edge 34, Type (0, 1), None
#     Edge 35, Type (0, 1), None
#     Edge 36, Type (0, 1), None
#     Edge 37, Type (0, 1), None
#     Edge 38, Type (0, 1), None
#     Edge 39, Type (0, 1), None
#     Edge 40, Type (0, 1), None
#     Edge 41, Type (0, 1), None
#     Edge 42, Type (0, 1), None
#     Edge 43, Type (0, 1), None
#     Edge 44, Type (0, 1), None
#     Edge 45, Type (0, 1), None
#     Edge 46, Type (0, 1), None
#     Edge 47, Type (0, 1), None
#     Edge 48, Type (0, 1), None
#     Edge 49, Type (0, 1), None
#     Edge 50, Type (0, 1), None
#     Edge 51, Type (0, 1), None
#     Edge 52, Type (0, 1), None
#     Edge 53, Type (0, 1), None
#     Edge 54, Type (0, 1), None
#     Edge 55, Type (0, 1), None
#     Edge 56, Type (0, 1), None
#     Edge 57, Type (0, 1), None
#     Edge 58, Type (0, 1), None
#     Edge 59, Type (0, 1), None
#     Edge 60, Type (0, 1), None
#     Edge 61, Type (0, 1), None
#     Edge 62, Type (0, 1), None
#     Edge 63, Type (0, 1), None
#     Edge 64, Type (0, 1), None
#     Edge 65, Type (0, 1), None
#     Edge 66, Type (0, 1), None
#     Edge 67, Type (0, 1), None
#     Edge 68, Type (0, 1), None
#     Edge 69, Type (0, 1), None
#     Edge 70, Type (0, 1), None
#     Edge 71, Type (0, 1), None
#     Edge 72, Type (0, 1), None
#     Edge 73, Type (0, 1), None
#     Edge 74, Type (0, 1), None
#     Edge 75, Type (0, 1), None
#     Edge 76, Type (0, 1), None
#     Edge 77, Type (0, 1), None
#     Edge 78, Type (0, 1), None
#     Edge 79, Type (0, 1), None
#     Edge 80, Type (0, 1), None
# Relax obj value: 0.101
# Max RMSD: 0.125
# Mean RMSD: 0.103
data_MOF--net-eea--node1-LEVNOQ01_clean_sbu_1--node2-QEWDON_clean_linker_0--edge1-none
_symmetry_space_group_name_H-M    P1
_symmetry_Int_Tables_number       1
_symmetry_cell_setting            triclinic
loop_
_symmetry_equiv_pos_as_xyz
'x, y, z'
_cell_length_a     29.688505
_cell_length_b     28.811029
_cell_length_c     17.561573
_cell_angle_alpha  90.135279
_cell_angle_beta   91.234496
_cell_angle_gamma 120.16062
loop_
_atom_site_label
_atom_site_type_symbol
_atom_site_fract_x
_atom_site_fract_y
_atom_site_fract_z
_atom_type_partial_charge
H0 H 0.18826 0.13093 0.41948 0.0
C1 C 0.19487 0.10103 0.39242 0.0
C2 C 0.2326 0.09069 0.42339 0.0
C3 C 0.16945 0.07785 0.32261 0.0
H4 H 0.2698 0.04371 0.41271 0.0
C5 C 0.23995 0.05135 0.38964 0.0
C6 C 0.214 0.0268 0.32072 0.0
C7 C 0.17887 0.04015 0.28648 0.0
C8 C 0.14375 0.10358 0.28251 0.0
H9 H 0.16266 0.02499 0.2299 0.0
C10 C 0.17176 0.15962 0.27756 0.0
C11 C 0.14741 0.18809 0.25511 0.0
C12 C 0.09151 0.07522 0.25719 0.0
H13 H 0.06928 0.03184 0.25995 0.0
C14 C 0.06727 0.10355 0.23115 0.0
H15 H 0.2126 0.18154 0.29533 0.0
C16 C 0.09467 0.15992 0.23192 0.0
H17 H 0.07523 0.18127 0.21284 0.0
H18 H 0.02698 0.08183 0.21158 0.0
H19 H 0.86225 0.09391 0.43092 0.0
C20 C 0.88795 0.12455 0.39208 0.0
C21 C 0.90688 0.17876 0.4097 0.0
C22 C 0.90397 0.1101 0.32506 0.0
H23 H 0.94943 0.25879 0.3686 0.0
C24 C 0.93756 0.21722 0.35676 0.0
C25 C 0.95975 0.20482 0.29626 0.0
C26 C 0.9429 0.15064 0.28023 0.0
C27 C 0.8784 0.05286 0.30148 0.0
H28 H 0.95878 0.14018 0.2325 0.0
C29 C 0.82382 0.02277 0.29656 0.0
C30 C 0.79785 0.96848 0.27422 0.0
C31 C 0.90722 0.02821 0.28251 0.0
H32 H 0.94936 0.05068 0.28554 0.0
C33 C 0.88149 0.97386 0.2609 0.0
H34 H 0.80138 0.04199 0.30929 0.0
C35 C 0.82695 0.94382 0.2573 0.0
H36 H 0.8077 0.90212 0.23896 0.0
H37 H 0.90395 0.95516 0.24647 0.0
H38 H 0.9219 0.78069 0.38982 0.0
C39 C 0.88553 0.77439 0.36485 0.0
C40 C 0.83953 0.74366 0.40456 0.0
C41 C 0.88592 0.7975 0.29409 0.0
H42 H 0.75738 0.71428 0.40407 0.0
C43 C 0.79319 0.73818 0.37405 0.0
C44 C 0.79267 0.76312 0.30492 0.0
C45 C 0.83914 0.79293 0.26512 0.0
C46 C 0.93624 0.82605 0.25326 0.0
H47 H 0.83848 0.81104 0.21141 0.0
C48 C 0.97141 0.80688 0.25945 0.0
C49 C 0.02408 0.8391 0.24102 0.0
C50 C 0.95259 0.87524 0.21722 0.0
H51 H 0.92647 0.89092 0.21049 0.0
C52 C 0.00408 0.90604 0.19331 0.0
H53 H 0.9585 0.76806 0.28473 0.0
C54 C 0.04011 0.88892 0.20708 0.0
H55 H 0.08047 0.91496 0.19264 0.0
H56 H 0.01671 0.94451 0.16718 0.0
H57 H 0.12646 0.21942 0.5557 0.0
C58 C 0.10053 0.22661 0.58979 0.0
C59 C 0.07995 0.2573 0.55965 0.0
C60 C 0.08535 0.2031 0.66281 0.0
H61 H 0.03366 0.29281 0.58266 0.0
C62 C 0.04698 0.26662 0.60447 0.0
C63 C 0.0269 0.23954 0.67223 0.0
C64 C 0.04627 0.20763 0.7019 0.0
C65 C 0.10967 0.17316 0.6969 0.0
H66 H 0.03203 0.18786 0.75568 0.0
C67 C 0.16301 0.19177 0.68758 0.0
C68 C 0.18614 0.16232 0.71456 0.0
C69 C 0.08008 0.12559 0.7374 0.0
H70 H 0.03902 0.11 0.74576 0.0
C71 C 0.10296 0.09669 0.76573 0.0
H72 H 0.18628 0.22862 0.65703 0.0
C73 C 0.15551 0.11445 0.75356 0.0
H74 H 0.172 0.09055 0.77391 0.0
H75 H 0.07955 0.05977 0.79595 0.0
H76 H 0.77741 0.91012 0.53775 0.0
C77 C 0.77101 0.87914 0.57817 0.0
C78 C 0.73499 0.82538 0.56049 0.0
C79 C 0.79978 0.89254 0.64809 0.0
H80 H 0.69651 0.74482 0.60183 0.0
C81 C 0.72577 0.78645 0.61419 0.0
C82 C 0.75711 0.79811 0.67913 0.0
C83 C 0.79477 0.85135 0.69694 0.0
C84 C 0.83073 0.94936 0.67249 0.0
H85 H 0.81823 0.8607 0.74893 0.0
C86 C 0.80601 0.97982 0.67381 0.0
C87 C 0.83268 0.03333 0.69898 0.0
C88 C 0.88292 0.97279 0.69768 0.0
H89 H 0.90251 0.94962 0.69848 0.0
C90 C 0.91015 0.02671 0.72157 0.0
H91 H 0.76516 0.96124 0.65682 0.0
C92 C 0.88534 0.05721 0.72172 0.0
H93 H 0.90647 0.09839 0.74243 0.0
H94 H 0.95025 0.04456 0.74124 0.0
H95 H 0.05999 0.86103 0.56728 0.0
C96 C 0.09681 0.89114 0.593 0.0
C97 C 0.14304 0.90491 0.55584 0.0
C98 C 0.09734 0.9133 0.66471 0.0
H99 H 0.22633 0.95587 0.55998 0.0
C100 C 0.19008 0.94567 0.58719 0.0
C101 C 0.19131 0.96923 0.65793 0.0
C102 C 0.14506 0.95295 0.69705 0.0
C103 C 0.04808 0.88975 0.70703 0.0
H104 H 0.14664 0.96836 0.75404 0.0
C105 C 0.01449 0.83392 0.70305 0.0
C106 C 0.96254 0.81055 0.72464 0.0
C107 C 0.03142 0.92179 0.74319 0.0
H108 H 0.05662 0.96492 0.74733 0.0
C109 C 0.98066 0.89826 0.77039 0.0
H110 H 0.02779 0.80905 0.67664 0.0
C111 C 0.94586 0.84315 0.75942 0.0
H112 H 0.9058 0.82642 0.7762 0.0
H113 H 0.96747 0.92319 0.79671 0.0
H114 H 0.85667 0.46562 0.75277 0.0
C115 C 0.86323 0.43569 0.72572 0.0
C116 C 0.90106 0.42541 0.75651 0.0
C117 C 0.83743 0.41218 0.65624 0.0
H118 H 0.9383 0.37848 0.74554 0.0
C119 C 0.90837 0.38606 0.72267 0.0
C120 C 0.88202 0.3612 0.65408 0.0
C121 C 0.84663 0.37432 0.6202 0.0
C122 C 0.81131 0.43754 0.61631 0.0
H123 H 0.83002 0.35881 0.56391 0.0
C124 C 0.83905 0.49355 0.6109 0.0
C125 C 0.81441 0.52168 0.58812 0.0
C126 C 0.75903 0.40884 0.59127 0.0
H127 H 0.73701 0.36546 0.59434 0.0
C128 C 0.73447 0.4368 0.56503 0.0
H129 H 0.87993 0.51574 0.62841 0.0
C130 C 0.76163 0.49318 0.56525 0.0
H131 H 0.74196 0.51425 0.54596 0.0
H132 H 0.69414 0.41482 0.54569 0.0
H133 H 0.52875 0.42764 0.76333 0.0
C134 C 0.55444 0.45824 0.72444 0.0
C135 C 0.57346 0.51249 0.74202 0.0
C136 C 0.57043 0.4437 0.65747 0.0
H137 H 0.61602 0.59247 0.70069 0.0
C138 C 0.60413 0.55088 0.68898 0.0
C139 C 0.62627 0.53839 0.62849 0.0
C140 C 0.60936 0.48418 0.61257 0.0
C141 C 0.54506 0.38641 0.63412 0.0
H142 H 0.62524 0.47367 0.56489 0.0
C143 C 0.49048 0.3561 0.62891 0.0
C144 C 0.46476 0.30178 0.60663 0.0
C145 C 0.5741 0.36194 0.61557 0.0
H146 H 0.61624 0.38458 0.6188 0.0
C147 C 0.54864 0.30759 0.59407 0.0
H148 H 0.46787 0.37518 0.64134 0.0
C149 C 0.49411 0.27733 0.59016 0.0
H150 H 0.47508 0.23562 0.57194 0.0
H151 H 0.57131 0.28906 0.57996 0.0
H152 H 0.58794 0.11335 0.72394 0.0
C153 C 0.55153 0.10684 0.69881 0.0
C154 C 0.50549 0.07593 0.73839 0.0
C155 C 0.55193 0.12993 0.62804 0.0
H156 H 0.42322 0.04602 0.7374 0.0
C157 C 0.45907 0.07008 0.70753 0.0
C158 C 0.45854 0.09494 0.63828 0.0
C159 C 0.50509 0.12504 0.59879 0.0
C160 C 0.60232 0.1589 0.58748 0.0
H161 H 0.50445 0.14317 0.5451 0.0
C162 C 0.63776 0.14005 0.59353 0.0
C163 C 0.69036 0.17249 0.57478 0.0
C164 C 0.6184 0.20809 0.55163 0.0
H165 H 0.59206 0.22352 0.54504 0.0
C166 C 0.66984 0.2392 0.52769 0.0
H167 H 0.62508 0.10126 0.61876 0.0
C168 C 0.7061 0.22233 0.54109 0.0
H169 H 0.74639 0.24854 0.52648 0.0
H170 H 0.68225 0.27768 0.50174 0.0
H171 H 0.79307 0.55299 0.8877 0.0
C172 C 0.76718 0.56024 0.92182 0.0
C173 C 0.74659 0.59092 0.8917 0.0
C174 C 0.75203 0.53675 -0.00514 0.0
H175 H 0.7003 0.62645 0.91475 0.0
C176 C 0.71369 0.60032 0.93658 0.0
C177 C 0.69373 0.57334 0.00443 0.0
C178 C 0.71306 0.5414 0.03406 0.0
C179 C 0.77619 0.50665 0.02889 0.0
H180 H 0.69885 0.52167 0.08787 0.0
C181 C 0.82952 0.52517 0.01984 0.0
C182 C 0.85249 0.49563 0.04703 0.0
C183 C 0.74642 0.45905 0.06921 0.0
H184 H 0.7054 0.44361 0.07745 0.0
C185 C 0.7691 0.42997 0.09757 0.0
H186 H 0.85292 0.56206 -0.01058 0.0
C187 C 0.82167 0.44767 0.08576 0.0
H188 H 0.83804 0.42369 0.10621 0.0
H189 H 0.74554 0.39301 0.12761 0.0
H190 H 0.44518 0.24344 0.86873 0.0
C191 C 0.43907 0.21264 0.90933 0.0
C192 C 0.40316 0.15878 0.89212 0.0
C193 C 0.46798 0.22641 0.97915 0.0
H194 H 0.36508 0.07837 0.93412 0.0
C195 C 0.39435 0.12007 0.94598 0.0
C196 C 0.42559 0.13214 0.01103 0.0
C197 C 0.46303 0.1855 0.02854 0.0
C198 C 0.49877 0.2833 0.00313 0.0
H199 H 0.4863 0.19517 0.08078 0.0
C200 C 0.47383 0.31356 0.00448 0.0
C201 C 0.50026 0.36701 0.02992 0.0
C202 C 0.55096 0.30692 0.02832 0.0
H203 H 0.5707 0.2839 0.02915 0.0
C204 C 0.57796 0.3608 0.05237 0.0
H205 H 0.43296 0.2948 -0.01245 0.0
C206 C 0.55293 0.39108 0.05269 0.0
H207 H 0.57387 0.43219 0.07369 0.0
H208 H 0.618 0.37872 0.07221 0.0
H209 H 0.7269 0.19378 0.90001 0.0
C210 C 0.76371 0.22387 0.92578 0.0
C211 C 0.80998 0.23762 0.88872 0.0
C212 C 0.76417 0.24613 -0.00262 0.0
H213 H 0.8933 0.28852 0.89313 0.0
C214 C 0.85702 0.27833 0.92022 0.0
C215 C 0.85815 0.30199 -0.00915 0.0
C216 C 0.81185 0.28581 0.02976 0.0
C217 C 0.71488 0.22275 0.03959 0.0
H218 H 0.81336 0.30134 0.08663 0.0
C219 C 0.68118 0.16693 0.03581 0.0
C220 C 0.62933 0.14371 0.05778 0.0
C221 C 0.69838 0.25494 0.07569 0.0
H222 H 0.72366 0.29807 0.07968 0.0
C223 C 0.64769 0.23158 0.10313 0.0
H224 H 0.69435 0.14194 0.00941 0.0
C225 C 0.61281 0.17647 0.0925 0.0
H226 H 0.57281 0.15984 0.10954 0.0
H227 H 0.63463 0.25664 0.12941 0.0
H228 H 0.5216 0.79769 0.08685 0.0
C229 C 0.52832 0.7679 0.05971 0.0
C230 C 0.56635 0.75788 0.09038 0.0
C231 C 0.50273 0.74454 -0.00994 0.0
H232 H 0.60396 0.71132 0.07921 0.0
C233 C 0.57389 0.71871 0.05642 0.0
C234 C 0.54769 0.69392 -0.01227 0.0
C235 C 0.51222 0.70693 0.95385 0.0
C236 C 0.47684 0.77009 0.95003 0.0
H237 H 0.49582 0.6916 0.89741 0.0
C238 C 0.50476 0.82612 0.94487 0.0
C239 C 0.48034 0.85447 0.92218 0.0
C240 C 0.4246 0.7416 0.92472 0.0
H241 H 0.40245 0.69822 0.92758 0.0
C242 C 0.40028 0.7698 0.89848 0.0
H243 H 0.54561 0.84814 0.96256 0.0
C244 C 0.4276 0.82618 0.899 0.0
H245 H 0.40811 0.84743 0.87972 0.0
H246 H 0.35998 0.74799 0.87892 0.0
H247 H 0.1967 0.76016 0.10049 0.0
C248 C 0.2221 0.79078 0.06138 0.0
C249 C 0.24057 0.84494 0.07854 0.0
C250 C 0.23812 0.77636 -0.00562 0.0
H251 H 0.28216 0.92481 0.03677 0.0
C252 C 0.27075 0.88333 0.02524 0.0
C253 C 0.29303 0.87107 0.96474 0.0
C254 C 0.27666 0.81693 0.94912 0.0
C255 C 0.21263 0.71911 0.97103 0.0
H256 H 0.29256 0.80651 0.90137 0.0
C257 C 0.15807 0.68916 0.96549 0.0
C258 C 0.13206 0.63484 0.94338 0.0
C259 C 0.24143 0.69427 0.95306 0.0
H260 H 0.28357 0.71665 0.95662 0.0
C261 C 0.21567 0.63986 0.93181 0.0
H262 H 0.13568 0.70856 0.97754 0.0
C263 C 0.16112 0.60996 0.92748 0.0
H264 H 0.14186 0.56822 0.90936 0.0
H265 H 0.23811 0.62098 0.91825 0.0
H266 H 0.25535 0.4473 0.05772 0.0
C267 C 0.21893 0.44092 0.03284 0.0
C268 C 0.173 0.41021 0.07274 0.0
C269 C 0.21915 0.46389 0.96201 0.0
H270 H 0.09083 0.38078 0.07254 0.0
C271 C 0.12659 0.4046 0.04235 0.0
C272 C 0.1259 0.42932 0.9731 0.0
C273 C 0.17228 0.45913 0.93313 0.0
C274 C 0.26934 0.49246 0.92091 0.0
H275 H 0.17147 0.47709 0.87936 0.0
C276 C 0.30464 0.47345 0.92701 0.0
C277 C 0.35718 0.50566 0.90796 0.0
C278 C 0.28541 0.54144 0.88442 0.0
H279 H 0.25915 0.55694 0.87759 0.0
C280 C 0.33679 0.57227 0.86007 0.0
H281 H 0.29191 0.43475 0.95257 0.0
C282 C 0.37297 0.55532 0.87371 0.0
H283 H 0.41324 0.58136 0.85883 0.0
H284 H 0.34922 0.6106 0.83363 0.0
H285 H 0.45967 0.88692 0.22305 0.0
C286 C 0.43393 0.89423 0.25743 0.0
C287 C 0.41369 0.92537 0.22787 0.0
C288 C 0.41862 0.87038 0.33024 0.0
H289 H 0.36809 0.96153 0.25198 0.0
C290 C 0.38106 0.93492 0.27324 0.0
C291 C 0.36058 0.90728 0.34051 0.0
C292 C 0.3796 0.87489 0.36954 0.0
C293 C 0.44267 0.84005 0.36382 0.0
H294 H 0.36511 0.85471 0.42299 0.0
C295 C 0.49601 0.85854 0.35471 0.0
C296 C 0.51891 0.82879 0.38132 0.0
C297 C 0.41283 0.79224 0.4037 0.0
H298 H 0.37177 0.77673 0.41187 0.0
C299 C 0.43547 0.76301 0.43162 0.0
H300 H 0.51946 0.89558 0.32464 0.0
C301 C 0.48803 0.78069 0.41969 0.0
H302 H 0.50435 0.75657 0.43974 0.0
H303 H 0.41187 0.72591 0.46134 0.0
H304 H 0.10967 0.57625 0.20603 0.0
C305 C 0.10345 0.5453 0.24642 0.0
C306 C 0.06763 0.49147 0.22872 0.0
C307 C 0.13234 0.55882 0.31626 0.0
H308 H 0.02951 0.41092 0.27016 0.0
C309 C 0.05865 0.4526 0.28243 0.0
C310 C 0.0901 0.46441 0.34729 0.0
C311 C 0.12759 0.51771 0.36504 0.0
C312 C 0.16339 0.61567 0.34054 0.0
H313 H 0.15116 0.52715 0.41694 0.0
C314 C 0.13875 0.6462 0.3423 0.0
C315 C 0.16561 0.69976 0.36736 0.0
C316 C 0.21569 0.63906 0.36517 0.0
H317 H 0.23523 0.61585 0.36563 0.0
C318 C 0.24309 0.693 0.38897 0.0
H319 H 0.09783 0.62766 0.32568 0.0
C320 C 0.21836 0.72357 0.38954 0.0
H321 H 0.23966 0.76479 0.41007 0.0
H322 H 0.28327 0.7108 0.4082 0.0
H323 H 0.394 0.52589 0.23461 0.0
C324 C 0.43082 0.55614 0.26016 0.0
C325 C 0.47704 0.57002 0.22281 0.0
C326 C 0.43136 0.57869 0.33157 0.0
H327 H 0.56032 0.62119 0.22675 0.0
C328 C 0.52407 0.61089 0.25404 0.0
C329 C 0.52528 0.63473 0.32454 0.0
C330 C 0.47905 0.61859 0.3636 0.0
C331 C 0.38208 0.55565 0.37378 0.0
H332 H 0.48063 0.63441 0.4203 0.0
C333 C 0.3482 0.49986 0.37039 0.0
C334 C 0.2963 0.47694 0.39207 0.0
C335 C 0.36572 0.58815 0.40936 0.0
H336 H 0.39113 0.63127 0.41304 0.0
C337 C 0.315 0.5651 0.43659 0.0
H338 H 0.36126 0.47465 0.34442 0.0
C339 C 0.27994 0.51 0.42624 0.0
H340 H 0.23992 0.49362 0.44305 0.0
H341 H 0.30206 0.59039 0.46244 0.0
O342 O 0.54786 0.04515 0.82205 0.0
Mg343 Mg 0.5631 0.00801 0.91494 0.0
O344 O 0.47155 0.03276 0.85932 0.0
Mg345 Mg 0.4651 -0.00091 0.98503 0.0
O346 O 0.49411 0.94348 0.94469 0.0
O347 O 0.55891 0.93547 0.89707 0.0
O348 O 0.45967 0.96691 0.11129 0.0
O349 O 0.38284 0.92184 0.95566 0.0
Mg350 Mg 0.37212 0.99112 0.03751 0.0
O351 O 0.43917 0.05944 0.02194 0.0
O352 O 0.37625 0.94031 0.11991 0.0
O353 O 0.33829 0.95994 0.92749 0.0
O354 O 0.37388 0.05774 0.08405 0.0
C355 C 0.59187 0.08817 0.03169 0.0
C356 C 0.50775 0.04949 0.81024 0.0
C357 C 0.51193 0.91329 0.92133 0.0
C358 C 0.41712 0.94258 0.14734 0.0
C359 C 0.33975 0.91701 0.93213 0.0
C360 C 0.41823 0.08506 0.05197 0.0
O361 O 0.60892 0.05902 0.00596 0.0
O362 O 0.54415 0.07404 0.02105 0.0
O363 O 0.94102 0.5061 0.82787 0.0
Mg364 Mg 0.98318 0.56386 0.91481 0.0
O365 O 0.95703 0.4419 0.86516 0.0
Mg366 Mg -0.00665 0.46942 0.98593 0.0
O367 O 0.04528 0.55723 0.95104 0.0
O368 O 0.0541 0.6324 0.90153 0.0
O369 O 0.02788 0.49489 0.10913 0.0
O370 O 0.06735 0.4611 0.96097 0.0
Mg371 Mg -0.00126 0.36846 0.04796 0.0
O372 O 0.9408 0.3809 0.01609 0.0
O373 O 0.03894 0.42552 0.1347 0.0
O374 O 0.03782 0.37521 0.94667 0.0
O375 O 0.9259 0.30301 0.06324 0.0
C376 C 0.9066 0.51224 0.02649 0.0
C377 C 0.93547 0.45968 0.81933 0.0
C378 C 0.07512 0.60675 0.93166 0.0
C379 C 0.04462 0.47099 0.15245 0.0
C380 C 0.07566 0.42269 0.94554 0.0
C381 C 0.90855 0.33108 0.03037 0.0
O382 O 0.93544 0.55955 0.0034 0.0
O383 O 0.92039 0.47698 0.01875 0.0
O384 O 0.43528 0.49216 0.14456 0.0
Mg385 Mg 0.41978 0.43674 0.05402 0.0
O386 O 0.51278 0.55726 0.10845 0.0
Mg387 Mg 0.52257 0.53111 -0.01334 0.0
O388 O 0.48805 0.44377 0.02086 0.0
O389 O 0.42407 0.36788 0.06678 0.0
O390 O 0.53282 0.50712 0.86281 0.0
O391 O 0.60425 0.53783 0.01854 0.0
Mg392 Mg 0.62702 0.63429 0.92799 0.0
O393 O 0.55662 0.61862 0.95617 0.0
O394 O 0.60919 0.57895 0.83712 0.0
O395 O 0.65569 0.62362 0.03522 0.0
O396 O 0.61474 0.69856 0.91464 0.0
C397 C 0.39527 0.48994 0.93533 0.0
C398 C 0.47533 0.53831 0.15512 0.0
C399 C 0.47015 0.39426 0.03945 0.0
C400 C 0.57095 0.53302 0.81842 0.0
C401 C 0.64963 0.57698 0.03602 0.0
C402 C 0.57026 0.668 0.94456 0.0
O403 O 0.37776 0.44318 0.9613 0.0
O404 O 0.44331 0.52537 0.94602 0.0
O405 O 0.21539 0.37941 0.15638 0.0
Mg406 Mg 0.23023 0.34168 0.24899 0.0
O407 O 0.13881 0.36654 0.19315 0.0
Mg408 Mg 0.13203 0.33257 0.31845 0.0
O409 O 0.16112 0.27703 0.27803 0.0
O410 O 0.22606 0.26919 0.23063 0.0
O411 O 0.12665 0.3002 0.44437 0.0
O412 O 0.04971 0.25518 0.28817 0.0
Mg413 Mg 0.04002 0.3236 0.36905 0.0
O414 O 0.10615 0.39326 0.35519 0.0
O415 O 0.04279 0.27148 0.4507 0.0
O416 O 0.00564 0.2936 0.25899 0.0
O417 O 0.03954 0.38827 0.41798 0.0
C418 C 0.2587 0.42142 0.36609 0.0
C419 C 0.17524 0.38366 0.14443 0.0
C420 C 0.17901 0.24692 0.25464 0.0
C421 C 0.08374 0.27453 0.47915 0.0
C422 C 0.00682 0.25055 0.26401 0.0
C423 C 0.08388 0.41714 0.38652 0.0
O424 O 0.27565 0.3921 0.34068 0.0
O425 O 0.21107 0.40752 0.35494 0.0
O426 O 0.60598 0.83857 0.16184 0.0
Mg427 Mg 0.64878 0.89677 0.24812 0.0
O428 O 0.62316 0.77502 0.19814 0.0
Mg429 Mg 0.65982 0.80284 0.31855 0.0
O430 O 0.71137 0.89063 0.28316 0.0
O431 O 0.7194 0.96549 0.23367 0.0
O432 O 0.69468 0.82857 0.44143 0.0
O433 O 0.73406 0.7949 0.29309 0.0
Mg434 Mg 0.66611 0.70255 0.37977 0.0
O435 O 0.60755 0.71426 0.34888 0.0
O436 O 0.70671 0.75973 0.46621 0.0
O437 O 0.70463 0.70912 0.27798 0.0
O438 O 0.59376 0.63678 0.39624 0.0
C439 C 0.57298 0.84538 0.36049 0.0
C440 C 0.60085 0.79235 0.15298 0.0
C441 C 0.74084 0.94014 0.26342 0.0
C442 C 0.71204 0.805 0.48423 0.0
C443 C 0.74247 0.75661 0.27721 0.0
C444 C 0.57579 0.66439 0.36362 0.0
O445 O 0.60185 0.89277 0.33768 0.0
O446 O 0.58669 0.8101 0.35204 0.0
O447 O 0.1012 0.82691 0.47792 0.0
Mg448 Mg 0.08617 0.77085 0.38849 0.0
O449 O 0.17927 0.89131 0.44271 0.0
Mg450 Mg 0.18913 0.86438 0.32174 0.0
O451 O 0.15447 0.77711 0.3569 0.0
O452 O 0.08983 0.70183 0.40333 0.0
O453 O 0.19954 0.83982 0.19869 0.0
O454 O 0.27091 0.87126 0.35433 0.0
Mg455 Mg 0.29383 0.96741 0.26315 0.0
O456 O 0.22322 0.9516 0.29005 0.0
O457 O 0.27622 0.91141 0.17341 0.0
O458 O 0.32193 0.95708 0.3711 0.0
O459 O 0.28124 0.03143 0.24822 0.0
C460 C 0.06203 0.82329 0.26884 0.0
C461 C 0.14141 0.87291 0.48861 0.0
C462 C 0.13604 0.72765 0.37626 0.0
C463 C 0.23796 0.8655 0.15474 0.0
C464 C 0.3162 0.91058 0.37191 0.0
C465 C 0.23666 0.00086 0.27786 0.0
O466 O 0.0444 0.77651 0.29475 0.0
O467 O 0.11 0.8587 0.28017 0.0
O468 O 0.88179 0.71267 0.48808 0.0
Mg469 Mg 0.89682 0.67527 0.58086 0.0
O470 O 0.80534 0.70003 0.52504 0.0
Mg471 Mg 0.79857 0.66603 0.65042 0.0
O472 O 0.82781 0.61057 0.61027 0.0
O473 O 0.8928 0.60283 0.56282 0.0
O474 O 0.79318 0.63367 0.7763 0.0
O475 O 0.71623 0.58864 0.62015 0.0
Mg476 Mg 0.7065 0.65717 0.70112 0.0
O477 O 0.77273 0.72668 0.68718 0.0
O478 O 0.70935 0.60512 0.78284 0.0
O479 O 0.6722 0.62713 0.59103 0.0
O480 O 0.70621 0.72203 0.74979 0.0
C481 C 0.92521 0.7551 0.69804 0.0
C482 C 0.84169 0.717 0.47621 0.0
C483 C 0.8458 0.58051 0.58701 0.0
C484 C 0.75031 0.6081 0.81119 0.0
C485 C 0.67333 0.58406 0.59609 0.0
C486 C 0.7506 0.75075 0.71837 0.0
O487 O 0.9424 0.7261 0.6722 0.0
O488 O 0.87751 0.74094 0.68714 0.0
O489 O 0.27269 0.17154 0.49439 0.0
Mg490 Mg 0.31571 0.2297 0.5805 0.0
O491 O 0.28933 0.10772 0.53125 0.0
Mg492 Mg 0.32661 0.13588 0.65129 0.0
O493 O 0.3784 0.22369 0.61554 0.0
O494 O 0.38621 0.29835 0.56552 0.0
O495 O 0.36222 0.16185 0.77364 0.0
O496 O 0.40031 0.12711 0.62546 0.0
Mg497 Mg 0.33204 0.03455 0.71356 0.0
O498 O 0.27437 0.04767 0.68276 0.0
O499 O 0.3733 0.09242 0.79877 0.0
O500 O 0.37037 0.04108 0.61159 0.0
O501 O 0.25889 0.96967 0.72995 0.0
C502 C 0.24015 0.1789 0.6934 0.0
C503 C 0.26719 0.12514 0.48592 0.0
C504 C 0.40776 0.27317 0.59549 0.0
C505 C 0.37941 0.13809 0.81636 0.0
C506 C 0.40839 0.08848 0.61037 0.0
C507 C 0.24177 -0.00198 0.69732 0.0
O508 O 0.26884 0.22613 0.66992 0.0
O509 O 0.25389 0.14362 0.68532 0.0
O510 O 0.76808 0.15983 0.81039 0.0
Mg511 Mg 0.75292 0.104 0.72057 0.0
O512 O 0.84615 0.22431 0.77527 0.0
Mg513 Mg 0.85576 0.19776 0.65381 0.0
O514 O 0.82119 0.11047 0.6886 0.0
O515 O 0.75668 0.035 0.73477 0.0
O516 O 0.86591 0.1735 0.53014 0.0
O517 O 0.93737 0.20418 0.68583 0.0
Mg518 Mg 0.96036 0.30033 0.5957 0.0
O519 O 0.89005 0.2853 0.62317 0.0
O520 O 0.9427 0.24494 0.50506 0.0
O521 O -0.01109 0.28984 0.70314 0.0
O522 O 0.94879 0.36494 0.58135 0.0
C523 C 0.72852 0.15677 0.60182 0.0
C524 C 0.80834 0.20577 0.82128 0.0
C525 C 0.80288 0.06099 0.70772 0.0
C526 C 0.90431 0.19919 0.48611 0.0
C527 C 0.98276 0.24318 0.70372 0.0
C528 C 0.90416 0.33477 0.61115 0.0
O529 O 0.71108 0.10987 0.62718 0.0
O530 O 0.7765 0.19225 0.61307 0.0
loop_
_geom_bond_atom_site_label_1
_geom_bond_atom_site_label_2
_geom_bond_distance
_geom_bond_site_symmetry_2
_ccdc_geom_bond_type
H0 C1 0.949 . S
C1 H0 0.949 . S
C1 C2 1.395 . S
C1 C3 1.391 . S
C2 C1 1.395 . S
C2 C5 1.390 . S
C3 C1 1.391 . S
C3 C7 1.387 . S
C3 C8 1.491 . S
H4 C5 0.950 . S
C5 C2 1.390 . S
C5 H4 0.950 . S
C5 C6 1.378 . S
C6 C5 1.378 . S
C6 C7 1.409 . S
C7 C3 1.387 . S
C7 C6 1.409 . S
C7 H9 0.951 . S
C8 C3 1.491 . S
C8 C10 1.382 . S
C8 C12 1.404 . S
H9 C7 0.951 . S
C10 C8 1.382 . S
C10 C11 1.390 . S
C10 H15 0.949 . S
C11 C10 1.390 . S
C11 C16 1.399 . S
C12 C8 1.404 . S
C12 H13 0.950 . S
C12 C14 1.375 . S
H13 C12 0.950 . S
C14 C12 1.375 . S
C14 C16 1.382 . S
C14 H18 0.950 . S
H15 C10 0.949 . S
C16 C11 1.399 . S
C16 C14 1.382 . S
C16 H17 0.952 . S
H17 C16 0.952 . S
H18 C14 0.950 . S
H19 C20 0.949 . S
C20 H19 0.949 . S
C20 C21 1.395 . S
C20 C22 1.391 . S
C21 C20 1.395 . S
C21 C24 1.390 . S
C22 C20 1.391 . S
C22 C26 1.387 . S
C22 C27 1.491 . S
H23 C24 0.950 . S
C24 C21 1.390 . S
C24 H23 0.950 . S
C24 C25 1.378 . S
C25 C24 1.378 . S
C25 C26 1.409 . S
C26 C22 1.387 . S
C26 C25 1.409 . S
C26 H28 0.951 . S
C27 C22 1.491 . S
C27 C29 1.382 . S
C27 C31 1.404 . S
H28 C26 0.951 . S
C29 C27 1.382 . S
C29 C30 1.390 1_545 S
C29 H34 0.949 . S
C30 C29 1.390 1_565 S
C30 C35 1.399 . S
C31 C27 1.404 . S
C31 H32 0.950 . S
C31 C33 1.375 1_545 S
H32 C31 0.950 . S
C33 C31 1.375 1_565 S
C33 C35 1.382 . S
C33 H37 0.950 . S
H34 C29 0.949 . S
C35 C30 1.399 . S
C35 C33 1.382 . S
C35 H36 0.952 . S
H36 C35 0.952 . S
H37 C33 0.950 . S
H38 C39 0.949 . S
C39 H38 0.949 . S
C39 C40 1.395 . S
C39 C41 1.391 . S
C40 C39 1.395 . S
C40 C43 1.390 . S
C41 C39 1.391 . S
C41 C45 1.387 . S
C41 C46 1.491 . S
H42 C43 0.950 . S
C43 C40 1.390 . S
C43 H42 0.950 . S
C43 C44 1.378 . S
C44 C43 1.378 . S
C44 C45 1.409 . S
C45 C41 1.387 . S
C45 C44 1.409 . S
C45 H47 0.951 . S
C46 C41 1.491 . S
C46 C48 1.382 . S
C46 C50 1.404 . S
H47 C45 0.951 . S
C48 C46 1.382 . S
C48 C49 1.390 1_655 S
C48 H53 0.949 . S
C49 C48 1.390 1_455 S
C49 C54 1.399 . S
C50 C46 1.404 . S
C50 H51 0.950 . S
C50 C52 1.375 1_655 S
H51 C50 0.950 . S
C52 C50 1.375 1_455 S
C52 C54 1.382 . S
C52 H56 0.950 . S
H53 C48 0.949 . S
C54 C49 1.399 . S
C54 C52 1.382 . S
C54 H55 0.952 . S
H55 C54 0.952 . S
H56 C52 0.950 . S
H57 C58 0.949 . S
C58 H57 0.949 . S
C58 C59 1.395 . S
C58 C60 1.391 . S
C59 C58 1.395 . S
C59 C62 1.390 . S
C60 C58 1.391 . S
C60 C64 1.387 . S
C60 C65 1.491 . S
H61 C62 0.950 . S
C62 C59 1.390 . S
C62 H61 0.950 . S
C62 C63 1.378 . S
C63 C62 1.378 . S
C63 C64 1.409 . S
C64 C60 1.387 . S
C64 C63 1.409 . S
C64 H66 0.951 . S
C65 C60 1.491 . S
C65 C67 1.382 . S
C65 C69 1.404 . S
H66 C64 0.951 . S
C67 C65 1.382 . S
C67 C68 1.390 . S
C67 H72 0.949 . S
C68 C67 1.390 . S
C68 C73 1.399 . S
C69 C65 1.404 . S
C69 H70 0.950 . S
C69 C71 1.375 . S
H70 C69 0.950 . S
C71 C69 1.375 . S
C71 C73 1.382 . S
C71 H75 0.950 . S
H72 C67 0.949 . S
C73 C68 1.399 . S
C73 C71 1.382 . S
C73 H74 0.952 . S
H74 C73 0.952 . S
H75 C71 0.950 . S
H76 C77 0.949 . S
C77 H76 0.949 . S
C77 C78 1.395 . S
C77 C79 1.391 . S
C78 C77 1.395 . S
C78 C81 1.390 . S
C79 C77 1.391 . S
C79 C83 1.387 . S
C79 C84 1.491 . S
H80 C81 0.950 . S
C81 C78 1.390 . S
C81 H80 0.950 . S
C81 C82 1.378 . S
C82 C81 1.378 . S
C82 C83 1.409 . S
C83 C79 1.387 . S
C83 C82 1.409 . S
C83 H85 0.951 . S
C84 C79 1.491 . S
C84 C86 1.382 . S
C84 C88 1.404 . S
H85 C83 0.951 . S
C86 C84 1.382 . S
C86 C87 1.390 1_565 S
C86 H91 0.949 . S
C87 C86 1.390 1_545 S
C87 C92 1.399 . S
C88 C84 1.404 . S
C88 H89 0.950 . S
C88 C90 1.375 1_565 S
H89 C88 0.950 . S
C90 C88 1.375 1_545 S
C90 C92 1.382 . S
C90 H94 0.950 . S
H91 C86 0.949 . S
C92 C87 1.399 . S
C92 C90 1.382 . S
C92 H93 0.952 . S
H93 C92 0.952 . S
H94 C90 0.950 . S
H95 C96 0.949 . S
C96 H95 0.949 . S
C96 C97 1.395 . S
C96 C98 1.391 . S
C97 C96 1.395 . S
C97 C100 1.390 . S
C98 C96 1.391 . S
C98 C102 1.387 . S
C98 C103 1.491 . S
H99 C100 0.950 . S
C100 C97 1.390 . S
C100 H99 0.950 . S
C100 C101 1.378 . S
C101 C100 1.378 . S
C101 C102 1.409 . S
C102 C98 1.387 . S
C102 C101 1.409 . S
C102 H104 0.951 . S
C103 C98 1.491 . S
C103 C105 1.382 . S
C103 C107 1.404 . S
H104 C102 0.951 . S
C105 C103 1.382 . S
C105 C106 1.390 1_455 S
C105 H110 0.949 . S
C106 C105 1.390 1_655 S
C106 C111 1.399 . S
C107 C103 1.404 . S
C107 H108 0.950 . S
C107 C109 1.375 1_455 S
H108 C107 0.950 . S
C109 C107 1.375 1_655 S
C109 C111 1.382 . S
C109 H113 0.950 . S
H110 C105 0.949 . S
C111 C106 1.399 . S
C111 C109 1.382 . S
C111 H112 0.952 . S
H112 C111 0.952 . S
H113 C109 0.950 . S
H114 C115 0.949 . S
C115 H114 0.949 . S
C115 C116 1.395 . S
C115 C117 1.391 . S
C116 C115 1.395 . S
C116 C119 1.390 . S
C117 C115 1.391 . S
C117 C121 1.387 . S
C117 C122 1.491 . S
H118 C119 0.950 . S
C119 C116 1.390 . S
C119 H118 0.950 . S
C119 C120 1.378 . S
C120 C119 1.378 . S
C120 C121 1.409 . S
C121 C117 1.387 . S
C121 C120 1.409 . S
C121 H123 0.951 . S
C122 C117 1.491 . S
C122 C124 1.382 . S
C122 C126 1.404 . S
H123 C121 0.951 . S
C124 C122 1.382 . S
C124 C125 1.390 . S
C124 H129 0.949 . S
C125 C124 1.390 . S
C125 C130 1.399 . S
C126 C122 1.404 . S
C126 H127 0.950 . S
C126 C128 1.375 . S
H127 C126 0.950 . S
C128 C126 1.375 . S
C128 C130 1.382 . S
C128 H132 0.950 . S
H129 C124 0.949 . S
C130 C125 1.399 . S
C130 C128 1.382 . S
C130 H131 0.952 . S
H131 C130 0.952 . S
H132 C128 0.950 . S
H133 C134 0.949 . S
C134 H133 0.949 . S
C134 C135 1.395 . S
C134 C136 1.391 . S
C135 C134 1.395 . S
C135 C138 1.390 . S
C136 C134 1.391 . S
C136 C140 1.387 . S
C136 C141 1.491 . S
H137 C138 0.950 . S
C138 C135 1.390 . S
C138 H137 0.950 . S
C138 C139 1.378 . S
C139 C138 1.378 . S
C139 C140 1.409 . S
C140 C136 1.387 . S
C140 C139 1.409 . S
C140 H142 0.951 . S
C141 C136 1.491 . S
C141 C143 1.382 . S
C141 C145 1.404 . S
H142 C140 0.951 . S
C143 C141 1.382 . S
C143 C144 1.390 . S
C143 H148 0.949 . S
C144 C143 1.390 . S
C144 C149 1.399 . S
C145 C141 1.404 . S
C145 H146 0.950 . S
C145 C147 1.375 . S
H146 C145 0.950 . S
C147 C145 1.375 . S
C147 C149 1.382 . S
C147 H151 0.950 . S
H148 C143 0.949 . S
C149 C144 1.399 . S
C149 C147 1.382 . S
C149 H150 0.952 . S
H150 C149 0.952 . S
H151 C147 0.950 . S
H152 C153 0.949 . S
C153 H152 0.949 . S
C153 C154 1.395 . S
C153 C155 1.391 . S
C154 C153 1.395 . S
C154 C157 1.390 . S
C155 C153 1.391 . S
C155 C159 1.387 . S
C155 C160 1.491 . S
H156 C157 0.950 . S
C157 C154 1.390 . S
C157 H156 0.950 . S
C157 C158 1.378 . S
C158 C157 1.378 . S
C158 C159 1.409 . S
C159 C155 1.387 . S
C159 C158 1.409 . S
C159 H161 0.951 . S
C160 C155 1.491 . S
C160 C162 1.382 . S
C160 C164 1.404 . S
H161 C159 0.951 . S
C162 C160 1.382 . S
C162 C163 1.390 . S
C162 H167 0.949 . S
C163 C162 1.390 . S
C163 C168 1.399 . S
C164 C160 1.404 . S
C164 H165 0.950 . S
C164 C166 1.375 . S
H165 C164 0.950 . S
C166 C164 1.375 . S
C166 C168 1.382 . S
C166 H170 0.950 . S
H167 C162 0.949 . S
C168 C163 1.399 . S
C168 C166 1.382 . S
C168 H169 0.952 . S
H169 C168 0.952 . S
H170 C166 0.950 . S
H171 C172 0.949 . S
C172 H171 0.949 . S
C172 C173 1.395 . S
C172 C174 1.391 1_556 S
C173 C172 1.395 . S
C173 C176 1.390 . S
C174 C172 1.391 1_554 S
C174 C178 1.387 . S
C174 C179 1.491 . S
H175 C176 0.950 . S
C176 C173 1.390 . S
C176 H175 0.950 . S
C176 C177 1.378 1_556 S
C177 C176 1.378 1_554 S
C177 C178 1.409 . S
C178 C174 1.387 . S
C178 C177 1.409 . S
C178 H180 0.951 . S
C179 C174 1.491 . S
C179 C181 1.382 . S
C179 C183 1.404 . S
H180 C178 0.951 . S
C181 C179 1.382 . S
C181 C182 1.390 . S
C181 H186 0.949 . S
C182 C181 1.390 . S
C182 C187 1.399 . S
C183 C179 1.404 . S
C183 H184 0.950 . S
C183 C185 1.375 . S
H184 C183 0.950 . S
C185 C183 1.375 . S
C185 C187 1.382 . S
C185 H189 0.950 . S
H186 C181 0.949 . S
C187 C182 1.399 . S
C187 C185 1.382 . S
C187 H188 0.952 . S
H188 C187 0.952 . S
H189 C185 0.950 . S
H190 C191 0.949 . S
C191 H190 0.949 . S
C191 C192 1.395 . S
C191 C193 1.391 1_556 S
C192 C191 1.395 . S
C192 C195 1.390 . S
C193 C191 1.391 1_554 S
C193 C197 1.387 . S
C193 C198 1.491 . S
H194 C195 0.950 . S
C195 C192 1.390 . S
C195 H194 0.950 . S
C195 C196 1.378 1_556 S
C196 C195 1.378 1_554 S
C196 C197 1.409 . S
C197 C193 1.387 . S
C197 C196 1.409 . S
C197 H199 0.951 . S
C198 C193 1.491 . S
C198 C200 1.382 . S
C198 C202 1.404 . S
H199 C197 0.951 . S
C200 C198 1.382 . S
C200 C201 1.390 . S
C200 H205 0.949 . S
C201 C200 1.390 . S
C201 C206 1.399 . S
C202 C198 1.404 . S
C202 H203 0.950 . S
C202 C204 1.375 . S
H203 C202 0.950 . S
C204 C202 1.375 . S
C204 C206 1.382 . S
C204 H208 0.950 . S
H205 C200 0.949 . S
C206 C201 1.399 . S
C206 C204 1.382 . S
C206 H207 0.952 . S
H207 C206 0.952 . S
H208 C204 0.950 . S
H209 C210 0.949 . S
C210 H209 0.949 . S
C210 C211 1.395 . S
C210 C212 1.391 1_556 S
C211 C210 1.395 . S
C211 C214 1.390 . S
C212 C210 1.391 1_554 S
C212 C216 1.387 . S
C212 C217 1.491 . S
H213 C214 0.950 . S
C214 C211 1.390 . S
C214 H213 0.950 . S
C214 C215 1.378 1_556 S
C215 C214 1.378 1_554 S
C215 C216 1.409 . S
C216 C212 1.387 . S
C216 C215 1.409 . S
C216 H218 0.951 . S
C217 C212 1.491 . S
C217 C219 1.382 . S
C217 C221 1.404 . S
H218 C216 0.951 . S
C219 C217 1.382 . S
C219 C220 1.390 . S
C219 H224 0.949 . S
C220 C219 1.390 . S
C220 C225 1.399 . S
C221 C217 1.404 . S
C221 H222 0.950 . S
C221 C223 1.375 . S
H222 C221 0.950 . S
C223 C221 1.375 . S
C223 C225 1.382 . S
C223 H227 0.950 . S
H224 C219 0.949 . S
C225 C220 1.399 . S
C225 C223 1.382 . S
C225 H226 0.952 . S
H226 C225 0.952 . S
H227 C223 0.950 . S
H228 C229 0.949 . S
C229 H228 0.949 . S
C229 C230 1.395 . S
C229 C231 1.391 1_554 S
C230 C229 1.395 . S
C230 C233 1.390 . S
C231 C229 1.391 1_556 S
C231 C235 1.387 . S
C231 C236 1.491 . S
H232 C233 0.950 . S
C233 C230 1.390 . S
C233 H232 0.950 . S
C233 C234 1.378 1_554 S
C234 C233 1.378 1_556 S
C234 C235 1.409 . S
C235 C231 1.387 . S
C235 C234 1.409 . S
C235 H237 0.951 . S
C236 C231 1.491 . S
C236 C238 1.382 . S
C236 C240 1.404 . S
H237 C235 0.951 . S
C238 C236 1.382 . S
C238 C239 1.390 . S
C238 H243 0.949 . S
C239 C238 1.390 . S
C239 C244 1.399 . S
C240 C236 1.404 . S
C240 H241 0.950 . S
C240 C242 1.375 . S
H241 C240 0.950 . S
C242 C240 1.375 . S
C242 C244 1.382 . S
C242 H246 0.950 . S
H243 C238 0.949 . S
C244 C239 1.399 . S
C244 C242 1.382 . S
C244 H245 0.952 . S
H245 C244 0.952 . S
H246 C242 0.950 . S
H247 C248 0.949 . S
C248 H247 0.949 . S
C248 C249 1.395 . S
C248 C250 1.391 1_554 S
C249 C248 1.395 . S
C249 C252 1.390 . S
C250 C248 1.391 1_556 S
C250 C254 1.387 . S
C250 C255 1.491 . S
H251 C252 0.950 . S
C252 C249 1.390 . S
C252 H251 0.950 . S
C252 C253 1.378 1_554 S
C253 C252 1.378 1_556 S
C253 C254 1.409 . S
C254 C250 1.387 . S
C254 C253 1.409 . S
C254 H256 0.951 . S
C255 C250 1.491 . S
C255 C257 1.382 . S
C255 C259 1.404 . S
H256 C254 0.951 . S
C257 C255 1.382 . S
C257 C258 1.390 . S
C257 H262 0.949 . S
C258 C257 1.390 . S
C258 C263 1.399 . S
C259 C255 1.404 . S
C259 H260 0.950 . S
C259 C261 1.375 . S
H260 C259 0.950 . S
C261 C259 1.375 . S
C261 C263 1.382 . S
C261 H265 0.950 . S
H262 C257 0.949 . S
C263 C258 1.399 . S
C263 C261 1.382 . S
C263 H264 0.952 . S
H264 C263 0.952 . S
H265 C261 0.950 . S
H266 C267 0.949 . S
C267 H266 0.949 . S
C267 C268 1.395 . S
C267 C269 1.391 1_554 S
C268 C267 1.395 . S
C268 C271 1.390 . S
C269 C267 1.391 1_556 S
C269 C273 1.387 . S
C269 C274 1.491 . S
H270 C271 0.950 . S
C271 C268 1.390 . S
C271 H270 0.950 . S
C271 C272 1.378 1_554 S
C272 C271 1.378 1_556 S
C272 C273 1.409 . S
C273 C269 1.387 . S
C273 C272 1.409 . S
C273 H275 0.951 . S
C274 C269 1.491 . S
C274 C276 1.382 . S
C274 C278 1.404 . S
H275 C273 0.951 . S
C276 C274 1.382 . S
C276 C277 1.390 . S
C276 H281 0.949 . S
C277 C276 1.390 . S
C277 C282 1.399 . S
C278 C274 1.404 . S
C278 H279 0.950 . S
C278 C280 1.375 . S
H279 C278 0.950 . S
C280 C278 1.375 . S
C280 C282 1.382 . S
C280 H284 0.950 . S
H281 C276 0.949 . S
C282 C277 1.399 . S
C282 C280 1.382 . S
C282 H283 0.952 . S
H283 C282 0.952 . S
H284 C280 0.950 . S
H285 C286 0.949 . S
C286 H285 0.949 . S
C286 C287 1.395 . S
C286 C288 1.391 . S
C287 C286 1.395 . S
C287 C290 1.390 . S
C288 C286 1.391 . S
C288 C292 1.387 . S
C288 C293 1.491 . S
H289 C290 0.950 . S
C290 C287 1.390 . S
C290 H289 0.950 . S
C290 C291 1.378 . S
C291 C290 1.378 . S
C291 C292 1.409 . S
C292 C288 1.387 . S
C292 C291 1.409 . S
C292 H294 0.951 . S
C293 C288 1.491 . S
C293 C295 1.382 . S
C293 C297 1.404 . S
H294 C292 0.951 . S
C295 C293 1.382 . S
C295 C296 1.390 . S
C295 H300 0.949 . S
C296 C295 1.390 . S
C296 C301 1.399 . S
C297 C293 1.404 . S
C297 H298 0.950 . S
C297 C299 1.375 . S
H298 C297 0.950 . S
C299 C297 1.375 . S
C299 C301 1.382 . S
C299 H303 0.950 . S
H300 C295 0.949 . S
C301 C296 1.399 . S
C301 C299 1.382 . S
C301 H302 0.952 . S
H302 C301 0.952 . S
H303 C299 0.950 . S
H304 C305 0.949 . S
C305 H304 0.949 . S
C305 C306 1.395 . S
C305 C307 1.391 . S
C306 C305 1.395 . S
C306 C309 1.390 . S
C307 C305 1.391 . S
C307 C311 1.387 . S
C307 C312 1.491 . S
H308 C309 0.950 . S
C309 C306 1.390 . S
C309 H308 0.950 . S
C309 C310 1.378 . S
C310 C309 1.378 . S
C310 C311 1.409 . S
C311 C307 1.387 . S
C311 C310 1.409 . S
C311 H313 0.951 . S
C312 C307 1.491 . S
C312 C314 1.382 . S
C312 C316 1.404 . S
H313 C311 0.951 . S
C314 C312 1.382 . S
C314 C315 1.390 . S
C314 H319 0.949 . S
C315 C314 1.390 . S
C315 C320 1.399 . S
C316 C312 1.404 . S
C316 H317 0.950 . S
C316 C318 1.375 . S
H317 C316 0.950 . S
C318 C316 1.375 . S
C318 C320 1.382 . S
C318 H322 0.950 . S
H319 C314 0.949 . S
C320 C315 1.399 . S
C320 C318 1.382 . S
C320 H321 0.952 . S
H321 C320 0.952 . S
H322 C318 0.950 . S
H323 C324 0.949 . S
C324 H323 0.949 . S
C324 C325 1.395 . S
C324 C326 1.391 . S
C325 C324 1.395 . S
C325 C328 1.390 . S
C326 C324 1.391 . S
C326 C330 1.387 . S
C326 C331 1.491 . S
H327 C328 0.950 . S
C328 C325 1.390 . S
C328 H327 0.950 . S
C328 C329 1.378 . S
C329 C328 1.378 . S
C329 C330 1.409 . S
C330 C326 1.387 . S
C330 C329 1.409 . S
C330 H332 0.951 . S
C331 C326 1.491 . S
C331 C333 1.382 . S
C331 C335 1.404 . S
H332 C330 0.951 . S
C333 C331 1.382 . S
C333 C334 1.390 . S
C333 H338 0.949 . S
C334 C333 1.390 . S
C334 C339 1.399 . S
C335 C331 1.404 . S
C335 H336 0.950 . S
C335 C337 1.375 . S
H336 C335 0.950 . S
C337 C335 1.375 . S
C337 C339 1.382 . S
C337 H341 0.950 . S
H338 C333 0.949 . S
C339 C334 1.399 . S
C339 C337 1.382 . S
C339 H340 0.952 . S
H340 C339 0.952 . S
H341 C337 0.950 . S
O342 Mg343 1.990 . S
O342 C356 1.253 . S
Mg343 O342 1.990 . S
Mg343 O346 2.180 1_545 S
Mg343 O347 2.117 1_545 S
Mg343 O361 2.030 . S
O344 Mg345 2.072 1_556 S
O344 C356 1.260 . S
Mg345 O344 2.072 1_554 S
Mg345 O346 2.099 1_544 S
Mg345 O348 2.079 1_545 S
Mg345 O349 2.072 1_544 S
Mg345 O351 2.099 . S
Mg345 O362 2.079 . S
O346 Mg343 2.180 1_565 S
O346 Mg345 2.099 1_566 S
O346 C357 1.279 . S
O347 Mg343 2.117 1_565 S
O347 C357 1.250 . S
O348 Mg345 2.079 1_565 S
O348 C358 1.264 . S
O349 Mg345 2.072 1_566 S
O349 C359 1.260 1_556 S
Mg350 O351 2.180 . S
Mg350 O352 2.030 1_545 S
Mg350 O353 1.990 1_545 S
Mg350 O354 2.117 . S
O351 Mg345 2.099 . S
O351 Mg350 2.180 . S
O351 C360 1.279 . S
O352 Mg350 2.030 1_565 S
O352 C358 1.248 . S
O353 Mg350 1.990 1_565 S
O353 C359 1.253 . S
O354 Mg350 2.117 . S
O354 C360 1.250 . S
C355 O361 1.248 . S
C355 O362 1.264 1_556 S
C356 O342 1.253 . S
C356 O344 1.260 . S
C357 O346 1.279 . S
C357 O347 1.250 . S
C358 O348 1.264 . S
C358 O352 1.248 . S
C359 O349 1.260 1_554 S
C359 O353 1.253 . S
C360 O351 1.279 . S
C360 O354 1.250 . S
O361 Mg343 2.030 . S
O361 C355 1.248 . S
O362 Mg345 2.079 . S
O362 C355 1.264 1_554 S
O363 Mg364 1.990 1_655 S
O363 C377 1.253 . S
Mg364 O363 1.990 1_455 S
Mg364 O367 2.180 . S
Mg364 O368 2.117 . S
Mg364 O382 2.030 1_455 S
O365 Mg366 2.072 1_656 S
O365 C377 1.260 . S
Mg366 O365 2.072 1_454 S
Mg366 O367 2.099 1_554 S
Mg366 O369 2.079 . S
Mg366 O370 2.072 1_554 S
Mg366 O372 2.099 1_455 S
Mg366 O383 2.079 1_455 S
O367 Mg364 2.180 . S
O367 Mg366 2.099 1_556 S
O367 C378 1.279 . S
O368 Mg364 2.117 . S
O368 C378 1.250 . S
O369 Mg366 2.079 . S
O369 C379 1.264 . S
O370 Mg366 2.072 1_556 S
O370 C380 1.260 1_556 S
Mg371 O372 2.180 1_455 S
Mg371 O373 2.030 . S
Mg371 O374 1.990 . S
Mg371 O375 2.117 1_455 S
O372 Mg366 2.099 1_655 S
O372 Mg371 2.180 1_655 S
O372 C381 1.279 . S
O373 Mg371 2.030 . S
O373 C379 1.248 . S
O374 Mg371 1.990 . S
O374 C380 1.253 . S
O375 Mg371 2.117 1_655 S
O375 C381 1.250 . S
C376 O382 1.248 . S
C376 O383 1.264 1_556 S
C377 O363 1.253 . S
C377 O365 1.260 . S
C378 O367 1.279 . S
C378 O368 1.250 . S
C379 O369 1.264 . S
C379 O373 1.248 . S
C380 O370 1.260 1_554 S
C380 O374 1.253 . S
C381 O372 1.279 . S
C381 O375 1.250 . S
O382 Mg364 2.030 1_655 S
O382 C376 1.248 . S
O383 Mg366 2.079 1_655 S
O383 C376 1.264 1_554 S
O384 Mg385 1.990 . S
O384 C398 1.253 . S
Mg385 O384 1.990 . S
Mg385 O388 2.180 . S
Mg385 O389 2.117 . S
Mg385 O403 2.030 . S
O386 Mg387 2.072 1_554 S
O386 C398 1.260 . S
Mg387 O386 2.072 1_556 S
Mg387 O388 2.099 1_556 S
Mg387 O390 2.079 . S
Mg387 O391 2.072 1_556 S
Mg387 O393 2.099 . S
Mg387 O404 2.079 . S
O388 Mg385 2.180 . S
O388 Mg387 2.099 1_554 S
O388 C399 1.279 . S
O389 Mg385 2.117 . S
O389 C399 1.250 . S
O390 Mg387 2.079 . S
O390 C400 1.264 . S
O391 Mg387 2.072 1_554 S
O391 C401 1.260 1_554 S
Mg392 O393 2.180 . S
Mg392 O394 2.030 . S
Mg392 O395 1.990 . S
Mg392 O396 2.117 . S
O393 Mg387 2.099 . S
O393 Mg392 2.180 . S
O393 C402 1.279 . S
O394 Mg392 2.030 . S
O394 C400 1.248 . S
O395 Mg392 1.990 . S
O395 C401 1.253 . S
O396 Mg392 2.117 . S
O396 C402 1.250 . S
C397 O403 1.248 . S
C397 O404 1.264 1_554 S
C398 O384 1.253 . S
C398 O386 1.260 . S
C399 O388 1.279 . S
C399 O389 1.250 . S
C400 O390 1.264 . S
C400 O394 1.248 . S
C401 O391 1.260 1_556 S
C401 O395 1.253 . S
C402 O393 1.279 . S
C402 O396 1.250 . S
O403 Mg385 2.030 . S
O403 C397 1.248 . S
O404 Mg387 2.079 . S
O404 C397 1.264 1_556 S
O405 Mg406 1.990 . S
O405 C419 1.253 . S
Mg406 O405 1.990 . S
Mg406 O409 2.180 . S
Mg406 O410 2.117 . S
Mg406 O424 2.030 . S
O407 Mg408 2.072 . S
O407 C419 1.260 . S
Mg408 O407 2.072 . S
Mg408 O409 2.099 . S
Mg408 O411 2.079 . S
Mg408 O412 2.072 . S
Mg408 O414 2.099 . S
Mg408 O425 2.079 . S
O409 Mg406 2.180 . S
O409 Mg408 2.099 . S
O409 C420 1.279 . S
O410 Mg406 2.117 . S
O410 C420 1.250 . S
O411 Mg408 2.079 . S
O411 C421 1.264 . S
O412 Mg408 2.072 . S
O412 C422 1.260 . S
Mg413 O414 2.180 . S
Mg413 O415 2.030 . S
Mg413 O416 1.990 . S
Mg413 O417 2.117 . S
O414 Mg408 2.099 . S
O414 Mg413 2.180 . S
O414 C423 1.279 . S
O415 Mg413 2.030 . S
O415 C421 1.248 . S
O416 Mg413 1.990 . S
O416 C422 1.253 . S
O417 Mg413 2.117 . S
O417 C423 1.250 . S
C418 O424 1.248 . S
C418 O425 1.264 . S
C419 O405 1.253 . S
C419 O407 1.260 . S
C420 O409 1.279 . S
C420 O410 1.250 . S
C421 O411 1.264 . S
C421 O415 1.248 . S
C422 O412 1.260 . S
C422 O416 1.253 . S
C423 O414 1.279 . S
C423 O417 1.250 . S
O424 Mg406 2.030 . S
O424 C418 1.248 . S
O425 Mg408 2.079 . S
O425 C418 1.264 . S
O426 Mg427 1.990 . S
O426 C440 1.253 . S
Mg427 O426 1.990 . S
Mg427 O430 2.180 . S
Mg427 O431 2.117 . S
Mg427 O445 2.030 . S
O428 Mg429 2.072 . S
O428 C440 1.260 . S
Mg429 O428 2.072 . S
Mg429 O430 2.099 . S
Mg429 O432 2.079 . S
Mg429 O433 2.072 . S
Mg429 O435 2.099 . S
Mg429 O446 2.079 . S
O430 Mg427 2.180 . S
O430 Mg429 2.099 . S
O430 C441 1.279 . S
O431 Mg427 2.117 . S
O431 C441 1.250 . S
O432 Mg429 2.079 . S
O432 C442 1.264 . S
O433 Mg429 2.072 . S
O433 C443 1.260 . S
Mg434 O435 2.180 . S
Mg434 O436 2.030 . S
Mg434 O437 1.990 . S
Mg434 O438 2.117 . S
O435 Mg429 2.099 . S
O435 Mg434 2.180 . S
O435 C444 1.279 . S
O436 Mg434 2.030 . S
O436 C442 1.248 . S
O437 Mg434 1.990 . S
O437 C443 1.253 . S
O438 Mg434 2.117 . S
O438 C444 1.250 . S
C439 O445 1.248 . S
C439 O446 1.264 . S
C440 O426 1.253 . S
C440 O428 1.260 . S
C441 O430 1.279 . S
C441 O431 1.250 . S
C442 O432 1.264 . S
C442 O436 1.248 . S
C443 O433 1.260 . S
C443 O437 1.253 . S
C444 O435 1.279 . S
C444 O438 1.250 . S
O445 Mg427 2.030 . S
O445 C439 1.248 . S
O446 Mg429 2.079 . S
O446 C439 1.264 . S
O447 Mg448 1.990 . S
O447 C461 1.253 . S
Mg448 O447 1.990 . S
Mg448 O451 2.180 . S
Mg448 O452 2.117 . S
Mg448 O466 2.030 . S
O449 Mg450 2.072 . S
O449 C461 1.260 . S
Mg450 O449 2.072 . S
Mg450 O451 2.099 . S
Mg450 O453 2.079 . S
Mg450 O454 2.072 . S
Mg450 O456 2.099 . S
Mg450 O467 2.079 . S
O451 Mg448 2.180 . S
O451 Mg450 2.099 . S
O451 C462 1.279 . S
O452 Mg448 2.117 . S
O452 C462 1.250 . S
O453 Mg450 2.079 . S
O453 C463 1.264 . S
O454 Mg450 2.072 . S
O454 C464 1.260 . S
Mg455 O456 2.180 . S
Mg455 O457 2.030 . S
Mg455 O458 1.990 . S
Mg455 O459 2.117 1_565 S
O456 Mg450 2.099 . S
O456 Mg455 2.180 . S
O456 C465 1.279 1_565 S
O457 Mg455 2.030 . S
O457 C463 1.248 . S
O458 Mg455 1.990 . S
O458 C464 1.253 . S
O459 Mg455 2.117 1_545 S
O459 C465 1.250 . S
C460 O466 1.248 . S
C460 O467 1.264 . S
C461 O447 1.253 . S
C461 O449 1.260 . S
C462 O451 1.279 . S
C462 O452 1.250 . S
C463 O453 1.264 . S
C463 O457 1.248 . S
C464 O454 1.260 . S
C464 O458 1.253 . S
C465 O456 1.279 1_545 S
C465 O459 1.250 . S
O466 Mg448 2.030 . S
O466 C460 1.248 . S
O467 Mg450 2.079 . S
O467 C460 1.264 . S
O468 Mg469 1.990 . S
O468 C482 1.253 . S
Mg469 O468 1.990 . S
Mg469 O472 2.180 . S
Mg469 O473 2.117 . S
Mg469 O487 2.030 . S
O470 Mg471 2.072 . S
O470 C482 1.260 . S
Mg471 O470 2.072 . S
Mg471 O472 2.099 . S
Mg471 O474 2.079 . S
Mg471 O475 2.072 . S
Mg471 O477 2.099 . S
Mg471 O488 2.079 . S
O472 Mg469 2.180 . S
O472 Mg471 2.099 . S
O472 C483 1.279 . S
O473 Mg469 2.117 . S
O473 C483 1.250 . S
O474 Mg471 2.079 . S
O474 C484 1.264 . S
O475 Mg471 2.072 . S
O475 C485 1.260 . S
Mg476 O477 2.180 . S
Mg476 O478 2.030 . S
Mg476 O479 1.990 . S
Mg476 O480 2.117 . S
O477 Mg471 2.099 . S
O477 Mg476 2.180 . S
O477 C486 1.279 . S
O478 Mg476 2.030 . S
O478 C484 1.248 . S
O479 Mg476 1.990 . S
O479 C485 1.253 . S
O480 Mg476 2.117 . S
O480 C486 1.250 . S
C481 O487 1.248 . S
C481 O488 1.264 . S
C482 O468 1.253 . S
C482 O470 1.260 . S
C483 O472 1.279 . S
C483 O473 1.250 . S
C484 O474 1.264 . S
C484 O478 1.248 . S
C485 O475 1.260 . S
C485 O479 1.253 . S
C486 O477 1.279 . S
C486 O480 1.250 . S
O487 Mg469 2.030 . S
O487 C481 1.248 . S
O488 Mg471 2.079 . S
O488 C481 1.264 . S
O489 Mg490 1.990 . S
O489 C503 1.253 . S
Mg490 O489 1.990 . S
Mg490 O493 2.180 . S
Mg490 O494 2.117 . S
Mg490 O508 2.030 . S
O491 Mg492 2.072 . S
O491 C503 1.260 . S
Mg492 O491 2.072 . S
Mg492 O493 2.099 . S
Mg492 O495 2.079 . S
Mg492 O496 2.072 . S
Mg492 O498 2.099 . S
Mg492 O509 2.079 . S
O493 Mg490 2.180 . S
O493 Mg492 2.099 . S
O493 C504 1.279 . S
O494 Mg490 2.117 . S
O494 C504 1.250 . S
O495 Mg492 2.079 . S
O495 C505 1.264 . S
O496 Mg492 2.072 . S
O496 C506 1.260 . S
Mg497 O498 2.180 . S
Mg497 O499 2.030 . S
Mg497 O500 1.990 . S
Mg497 O501 2.117 1_545 S
O498 Mg492 2.099 . S
O498 Mg497 2.180 . S
O498 C507 1.279 . S
O499 Mg497 2.030 . S
O499 C505 1.248 . S
O500 Mg497 1.990 . S
O500 C506 1.253 . S
O501 Mg497 2.117 1_565 S
O501 C507 1.250 1_565 S
C502 O508 1.248 . S
C502 O509 1.264 . S
C503 O489 1.253 . S
C503 O491 1.260 . S
C504 O493 1.279 . S
C504 O494 1.250 . S
C505 O495 1.264 . S
C505 O499 1.248 . S
C506 O496 1.260 . S
C506 O500 1.253 . S
C507 O498 1.279 . S
C507 O501 1.250 1_545 S
O508 Mg490 2.030 . S
O508 C502 1.248 . S
O509 Mg492 2.079 . S
O509 C502 1.264 . S
O510 Mg511 1.990 . S
O510 C524 1.253 . S
Mg511 O510 1.990 . S
Mg511 O514 2.180 . S
Mg511 O515 2.117 . S
Mg511 O529 2.030 . S
O512 Mg513 2.072 . S
O512 C524 1.260 . S
Mg513 O512 2.072 . S
Mg513 O514 2.099 . S
Mg513 O516 2.079 . S
Mg513 O517 2.072 . S
Mg513 O519 2.099 . S
Mg513 O530 2.079 . S
O514 Mg511 2.180 . S
O514 Mg513 2.099 . S
O514 C525 1.279 . S
O515 Mg511 2.117 . S
O515 C525 1.250 . S
O516 Mg513 2.079 . S
O516 C526 1.264 . S
O517 Mg513 2.072 . S
O517 C527 1.260 . S
Mg518 O519 2.180 . S
Mg518 O520 2.030 . S
Mg518 O521 1.990 1_655 S
Mg518 O522 2.117 . S
O519 Mg513 2.099 . S
O519 Mg518 2.180 . S
O519 C528 1.279 . S
O520 Mg518 2.030 . S
O520 C526 1.248 . S
O521 Mg518 1.990 1_455 S
O521 C527 1.253 1_455 S
O522 Mg518 2.117 . S
O522 C528 1.250 . S
C523 O529 1.248 . S
C523 O530 1.264 . S
C524 O510 1.253 . S
C524 O512 1.260 . S
C525 O514 1.279 . S
C525 O515 1.250 . S
C526 O516 1.264 . S
C526 O520 1.248 . S
C527 O517 1.260 . S
C527 O521 1.253 1_655 S
C528 O519 1.279 . S
C528 O522 1.250 . S
O529 Mg511 2.030 . S
O529 C523 1.248 . S
O530 Mg513 2.079 . S
O530 C523 1.264 . S
C253 C359 1.498 1_556 S
C272 C380 1.423 1_556 S
C234 C402 1.338 . S
C215 C381 1.244 . S
C401 C177 1.440 1_556 S
C196 C360 1.342 . S
C355 C220 1.721 1_556 S
C376 C182 1.824 1_556 S
C201 C399 1.312 . S
C258 C378 1.367 . S
C277 C397 1.752 1_556 S
C357 C239 1.294 . S
C422 C25 1.534 1_455 S
C44 C443 1.428 . S
C6 C465 1.348 . S
C329 C444 1.248 . S
C291 C464 1.460 . S
C310 C423 1.336 . S
C334 C418 1.716 . S
C296 C439 1.884 . S
C462 C315 1.356 . S
C30 C441 1.414 . S
C460 C49 1.769 . S
C11 C420 1.308 . S
C485 C139 1.518 . S
C158 C506 1.411 . S
C528 C120 1.332 . S
C507 C101 1.255 1_545 S
C527 C63 1.475 1_655 S
C82 C486 1.348 . S
C106 C481 1.739 . S
C68 C502 1.904 . S
C525 C87 1.369 . S
C144 C504 1.394 . S
C163 C523 1.743 . S
C125 C483 1.288 . S
C287 C358 1.573 . S
C379 C306 1.636 . S
C325 C398 1.631 . S
C116 C377 1.729 . S
C135 C400 1.685 . S
C356 C154 1.699 . S
C59 C421 1.558 . S
C78 C442 1.622 . S
C97 C461 1.608 . S
C230 C440 1.714 . S
C463 C249 1.589 . S
C268 C419 1.672 . S
C173 C484 1.518 . S
C192 C505 1.555 . S
C524 C211 1.634 . S
C2 C503 1.696 . S
C21 C526 1.663 . S
C40 C482 1.673 . S
