# Generated by pormake.
# Topology anh, (6,3)-cn, num edge types: 1
# Building blocks:
#     Node 0, Type 0, BuildingBlock: VOLQOD_clean_sbu_1, # of connection points: 6
#     Node 1, Type 0, BuildingBlock: VOLQOD_clean_sbu_1, # of connection points: 6
#     Node 2, Type 0, BuildingBlock: VOLQOD_clean_sbu_1, # of connection points: 6
#     Node 3, Type 1, BuildingBlock: BETDAH_clean_linker_0, # of connection points: 3
#     Node 4, Type 1, BuildingBlock: BETDAH_clean_linker_0, # of connection points: 3
#     Node 5, Type 1, BuildingBlock: BETDAH_clean_linker_0, # of connection points: 3
#     Node 6, Type 1, BuildingBlock: BETDAH_clean_linker_0, # of connection points: 3
#     Node 7, Type 1, BuildingBlock: BETDAH_clean_linker_0, # of connection points: 3
#     Node 8, Type 1, BuildingBlock: BETDAH_clean_linker_0, # of connection points: 3
#     Edge 9, Type (0, 1), BuildingBlock: KIFKEQ_clean_linker_1, # of connection points: 2
#     Edge 10, Type (0, 1), BuildingBlock: KIFKEQ_clean_linker_1, # of connection points: 2
#     Edge 11, Type (0, 1), BuildingBlock: KIFKEQ_clean_linker_1, # of connection points: 2
#     Edge 12, Type (0, 1), BuildingBlock: KIFKEQ_clean_linker_1, # of connection points: 2
#     Edge 13, Type (0, 1), BuildingBlock: KIFKEQ_clean_linker_1, # of connection points: 2
#     Edge 14, Type (0, 1), BuildingBlock: KIFKEQ_clean_linker_1, # of connection points: 2
#     Edge 15, Type (0, 1), BuildingBlock: KIFKEQ_clean_linker_1, # of connection points: 2
#     Edge 16, Type (0, 1), BuildingBlock: KIFKEQ_clean_linker_1, # of connection points: 2
#     Edge 17, Type (0, 1), BuildingBlock: KIFKEQ_clean_linker_1, # of connection points: 2
#     Edge 18, Type (0, 1), BuildingBlock: KIFKEQ_clean_linker_1, # of connection points: 2
#     Edge 19, Type (0, 1), BuildingBlock: KIFKEQ_clean_linker_1, # of connection points: 2
#     Edge 20, Type (0, 1), BuildingBlock: KIFKEQ_clean_linker_1, # of connection points: 2
#     Edge 21, Type (0, 1), BuildingBlock: KIFKEQ_clean_linker_1, # of connection points: 2
#     Edge 22, Type (0, 1), BuildingBlock: KIFKEQ_clean_linker_1, # of connection points: 2
#     Edge 23, Type (0, 1), BuildingBlock: KIFKEQ_clean_linker_1, # of connection points: 2
#     Edge 24, Type (0, 1), BuildingBlock: KIFKEQ_clean_linker_1, # of connection points: 2
#     Edge 25, Type (0, 1), BuildingBlock: KIFKEQ_clean_linker_1, # of connection points: 2
#     Edge 26, Type (0, 1), BuildingBlock: KIFKEQ_clean_linker_1, # of connection points: 2
# Relax obj value: 0.158
# Max RMSD: 0.216
# Mean RMSD: 0.136
data_MOF--net-anh--node1-VOLQOD_clean_sbu_1--node2-BETDAH_clean_linker_0--edge1-KIFKEQ_clean_linker_1
_symmetry_space_group_name_H-M    P1
_symmetry_Int_Tables_number       1
_symmetry_cell_setting            triclinic
loop_
_symmetry_equiv_pos_as_xyz
'x, y, z'
_cell_length_a     30.056566
_cell_length_b     29.955684
_cell_length_c     57.345796
_cell_angle_alpha  92.418768
_cell_angle_beta   92.242673
_cell_angle_gamma 120.05229
loop_
_atom_site_label
_atom_site_type_symbol
_atom_site_fract_x
_atom_site_fract_y
_atom_site_fract_z
_atom_type_partial_charge
O0 O 0.0208 0.58934 0.2167 0.0
Zn1 Zn 0.02238 0.60619 0.18284 0.0
O2 O 0.02751 0.55539 0.16224 0.0
Zn3 Zn 0.96607 0.51702 0.14132 0.0
Zn4 Zn 0.03623 0.50763 0.18121 0.0
Zn5 Zn 0.08503 0.59005 0.14283 0.0
O6 O 0.98262 0.5126 0.1078 0.0
O7 O 0.06365 0.57647 0.10839 0.0
O8 O 0.95908 0.61015 0.17324 0.0
O9 O 0.92601 0.55367 0.14208 0.0
O10 O 0.92086 0.44502 0.15158 0.0
O11 O 0.97372 0.43731 0.17704 0.0
O12 O 0.09812 0.50257 0.17293 0.0
O13 O 0.08484 0.67672 0.18105 0.0
O14 O 0.13275 0.56243 0.14731 0.0
O15 O 0.12537 0.66604 0.15166 0.0
C16 C 0.03111 0.55838 0.227 0.0
C17 C 0.02259 0.54144 0.09718 0.0
C18 C 0.93022 0.41845 0.16564 0.0
C19 C 0.92618 0.58825 0.15582 0.0
C20 C 0.1332 0.52767 0.15914 0.0
C21 C 0.12173 0.69478 0.16756 0.0
O22 O 0.04099 0.52738 0.21555 0.0
O23 O 0.49681 0.06962 0.44852 0.0
Zn24 Zn 0.47758 0.06605 0.48211 0.0
O25 O 0.52549 0.05709 0.50266 0.0
Zn26 Zn 0.5663 0.11789 0.52354 0.0
Zn27 Zn 0.57054 0.04456 0.4835 0.0
Zn28 Zn 0.48843 0.00051 0.52222 0.0
O29 O 0.57019 0.10074 0.5569 0.0
O30 O 0.50066 0.02294 0.55666 0.0
O31 O 0.4759 0.13055 0.49261 0.0
O32 O 0.53283 0.16083 0.52351 0.0
O33 O 0.6376 0.16064 0.51255 0.0
O34 O 0.64162 0.1071 0.48588 0.0
O35 O 0.57439 0.98262 0.49321 0.0
O36 O 0.40589 0.00405 0.48276 0.0
O37 O 0.51427 0.95091 0.51883 0.0
O38 O 0.41318 0.96206 0.51238 0.0
C39 C 0.52192 0.05185 0.43802 0.0
C40 C 0.53822 0.06252 0.56772 0.0
C41 C 0.66219 0.15072 0.49754 0.0
C42 C 0.49903 0.16274 0.51021 0.0
C43 C 0.54863 0.9487 0.50739 0.0
C44 C 0.38613 0.96676 0.49607 0.0
O45 O 0.54747 0.03532 0.44933 0.0
O46 O 0.50661 0.53727 0.78304 0.0
Zn47 Zn 0.49172 0.51535 0.81618 0.0
O48 O 0.54668 0.56527 0.83877 0.0
Zn49 Zn 0.52311 0.60347 0.85799 0.0
Zn50 Zn 0.60526 0.61194 0.82178 0.0
Zn51 Zn 0.56752 0.52938 0.85969 0.0
O52 O 0.53126 0.59666 0.89293 0.0
O53 O 0.54688 0.53174 0.89215 0.0
O54 O 0.42326 0.50761 0.82409 0.0
O55 O 0.4471 0.57242 0.85109 0.0
O56 O 0.55877 0.67839 0.85047 0.0
O57 O 0.61713 0.6841 0.82625 0.0
O58 O 0.67011 0.61139 0.83198 0.0
O59 O 0.48772 0.44575 0.8164 0.0
O60 O 0.64398 0.56055 0.86156 0.0
O61 O 0.53853 0.45594 0.84773 0.0
C62 C 0.54938 0.56613 0.77428 0.0
C63 C 0.53661 0.56267 0.90334 0.0
C64 C 0.59547 0.70465 0.83754 0.0
C65 C 0.41226 0.53428 0.83814 0.0
C66 C 0.67933 0.59042 0.84893 0.0
C67 C 0.50849 0.42815 0.83025 0.0
O68 O 0.59072 0.59343 0.7872 0.0
H69 H 0.43754 0.98612 0.26068 0.0
H70 H 0.60268 0.06618 0.25687 0.0
H71 H 0.50355 0.97912 0.19651 0.0
C72 C 0.47116 -0.0014 0.2507 0.0
C73 C 0.46438 0.98061 0.2271 0.0
C74 C 0.52086 0.02923 0.26188 0.0
C75 C 0.56402 0.04275 0.24875 0.0
C76 C 0.55733 0.02391 0.22528 0.0
C77 C 0.50786 0.99308 0.21467 0.0
N78 N 0.59961 0.0322 0.21238 0.0
C79 C 0.64217 0.08077 0.21088 0.0
H80 H 0.53634 0.47966 0.59766 0.0
H81 H 0.62506 0.64526 0.59501 0.0
H82 H 0.60541 0.54709 0.53452 0.0
C83 C 0.5576 0.51346 0.58794 0.0
C84 C 0.5663 0.50689 0.56444 0.0
C85 C 0.57841 0.56309 0.59935 0.0
C86 C 0.60864 0.60656 0.58679 0.0
C87 C 0.61911 0.60022 0.56364 0.0
C88 C 0.59784 0.55081 0.55259 0.0
N89 N 0.65233 0.64317 0.55134 0.0
C90 C 0.6423 0.68283 0.54798 0.0
H91 H 0.95626 0.53815 0.92337 0.0
H92 H 0.02333 0.44171 0.91404 0.0
H93 H 0.94837 0.46731 0.85522 0.0
C94 C 0.96619 0.51528 0.91189 0.0
C95 C 0.95003 0.50701 0.88798 0.0
C96 C -0.00741 0.49201 0.92151 0.0
C97 C 0.00313 0.46009 0.90689 0.0
C98 C 0.98672 0.45112 0.88303 0.0
C99 C 0.96013 0.47424 0.87373 0.0
N100 N -0.00395 0.41833 0.86812 0.0
C101 C 0.04576 0.42831 0.86547 0.0
H102 H 0.09226 0.64794 0.40361 0.0
H103 H 0.01755 0.48312 0.40828 0.0
H104 H 0.09764 0.58495 0.46911 0.0
C105 C 0.08059 0.615 0.41406 0.0
C106 C 0.09775 0.62297 0.43782 0.0
C107 C 0.05197 0.56474 0.4032 0.0
C108 C 0.03891 0.52202 0.41653 0.0
C109 C 0.05552 0.52971 0.44033 0.0
C110 C 0.08491 0.57984 0.45074 0.0
N111 N 0.04641 0.48789 0.45385 0.0
C112 C -0.00158 0.44377 0.45402 0.0
H113 H 0.54661 0.14225 0.74137 0.0
H114 H 0.63574 0.06715 0.75108 0.0
H115 H 0.62523 0.15773 0.80815 0.0
C116 C 0.56943 0.13212 0.75269 0.0
C117 C 0.58225 0.15274 0.77603 0.0
C118 C 0.58875 0.10149 0.7434 0.0
C119 C 0.62022 0.09036 0.75798 0.0
C120 C 0.63332 0.11099 0.78131 0.0
C121 C 0.6147 0.14221 0.7901 0.0
N122 N 0.66764 0.10347 0.79596 0.0
C123 C 0.66169 0.05506 0.79869 0.0
H124 H 0.60788 0.56619 0.07688 0.0
H125 H 0.44432 0.46794 0.08061 0.0
H126 H 0.54669 0.48778 0.13921 0.0
C127 C 0.57537 0.54225 0.08686 0.0
C128 C 0.58403 0.53117 0.10964 0.0
C129 C 0.52519 0.51983 0.07617 0.0
C130 C 0.48322 0.48605 0.08863 0.0
C131 C 0.49158 0.47416 0.11121 0.0
C132 C 0.54151 0.49684 0.12158 0.0
N133 N 0.45049 0.43793 0.12359 0.0
C134 C 0.40625 0.44066 0.12587 0.0
H135 H 0.21689 0.57739 0.1335 0.0
H136 H 0.14125 0.44792 0.17652 0.0
H137 H 0.28093 0.55307 0.12543 0.0
H138 H 0.20514 0.42305 0.168 0.0
H139 H 0.36425 0.43306 0.16687 0.0
H140 H 0.29689 0.45315 0.17571 0.0
H141 H 0.28564 0.4844 0.10342 0.0
H142 H 0.3539 0.46529 0.09493 0.0
C143 C 0.21388 0.54371 0.14125 0.0
C144 C 0.17382 0.51449 0.15561 0.0
C145 C 0.25039 0.52955 0.13645 0.0
C146 C 0.24769 0.4858 0.14584 0.0
C147 C 0.20832 0.45713 0.1606 0.0
C148 C 0.17172 0.47135 0.16545 0.0
C149 C 0.34672 0.44368 0.15293 0.0
C150 C 0.36347 0.44763 0.13029 0.0
C151 C 0.30821 0.455 0.15792 0.0
C152 C 0.28618 0.47059 0.14028 0.0
C153 C 0.30245 0.47323 0.11743 0.0
C154 C 0.34101 0.46194 0.11249 0.0
H155 H 0.71585 0.25087 0.51618 0.0
H156 H 0.72545 0.14442 0.46612 0.0
H157 H 0.79732 0.32063 0.50451 0.0
H158 H 0.80653 0.21451 0.45426 0.0
H159 H 0.97766 0.34604 0.45771 0.0
H160 H 0.8966 0.27316 0.46873 0.0
H161 H 0.82859 0.3707 0.47004 0.0
H162 H 0.91001 0.44341 0.45937 0.0
C163 C 0.73543 0.24221 0.5028 0.0
C164 C 0.71397 0.19202 0.49206 0.0
C165 C 0.7819 0.28233 0.49597 0.0
C166 C 0.80804 0.27318 0.47828 0.0
C167 C 0.78742 0.22272 0.46802 0.0
C168 C 0.74087 0.18259 0.47481 0.0
C169 C 0.94494 0.35132 0.46005 0.0
C170 C 0.94929 0.39963 0.45762 0.0
C171 C 0.89868 0.30982 0.46634 0.0
C172 C 0.85635 0.31632 0.47044 0.0
C173 C 0.86076 0.36472 0.46738 0.0
C174 C 0.90698 0.40609 0.46105 0.0
H175 H 0.55619 0.76146 0.85713 0.0
H176 H 0.66786 0.77063 0.80937 0.0
H177 H 0.57441 0.84741 0.84793 0.0
H178 H 0.6865 0.85686 0.80048 0.0
H179 H 0.65474 0.9789 0.76904 0.0
H180 H 0.6418 0.89485 0.7796 0.0
H181 H 0.64178 0.93843 0.85246 0.0
H182 H 0.65389 0.02177 0.84166 0.0
C183 C 0.5851 0.78201 0.84492 0.0
C184 C 0.61037 0.75896 0.83393 0.0
C185 C 0.59565 0.83137 0.83969 0.0
C186 C 0.63164 0.85877 0.82335 0.0
C187 C 0.65796 0.83637 0.81286 0.0
C188 C 0.64753 0.78708 0.81812 0.0
C189 C 0.65205 0.97019 0.78725 0.0
C190 C 0.65513 0.00606 0.80461 0.0
C191 C 0.64498 0.92243 0.79335 0.0
C192 C 0.64077 0.91002 0.81689 0.0
C193 C 0.64426 0.94655 0.83418 0.0
C194 C 0.65141 0.99421 0.82805 0.0
H195 H 0.88941 0.60031 0.11425 0.0
H196 H 0.86943 0.60142 0.18837 0.0
H197 H 0.80971 0.60191 0.10648 0.0
H198 H 0.78839 0.60118 0.18047 0.0
H199 H 0.62021 0.48434 0.13883 0.0
H200 H 0.70807 0.51616 0.15395 0.0
H201 H 0.75874 0.65602 0.11847 0.0
H202 H 0.66965 0.6263 0.10453 0.0
C203 C 0.86854 0.60228 0.12888 0.0
C204 C 0.885 0.60039 0.15186 0.0
C205 C 0.82329 0.60355 0.12445 0.0
C206 C 0.7933 0.60166 0.14291 0.0
C207 C 0.81134 0.60301 0.16604 0.0
C208 C 0.85746 0.60315 0.17053 0.0
C209 C 0.64931 0.5228 0.1349 0.0
C210 C 0.63739 0.55259 0.12033 0.0
C211 C 0.69979 0.54089 0.14359 0.0
C212 C 0.73971 0.58856 0.13748 0.0
C213 C 0.72823 0.6192 0.12347 0.0
C214 C 0.67737 0.60172 0.11525 0.0
H215 H 0.32644 0.89095 0.52418 0.0
H216 H 0.32516 0.94524 0.45564 0.0
H217 H 0.2477 0.81015 0.51227 0.0
H218 H 0.24674 0.86381 0.44363 0.0
H219 H 0.09302 0.71126 0.43185 0.0
H220 H 0.15392 0.7991 0.44843 0.0
H221 H 0.24157 0.7416 0.48472 0.0
H222 H 0.18212 0.65499 0.468 0.0
C223 C 0.30881 0.88608 0.50672 0.0
C224 C 0.33264 0.92402 0.49069 0.0
C225 C 0.26379 0.83974 0.49989 0.0
C226 C 0.24181 0.83025 0.47687 0.0
C227 C 0.26283 0.87004 0.4615 0.0
C228 C 0.30786 0.91666 0.46838 0.0
C229 C 0.1253 0.71751 0.44341 0.0
C230 C 0.1325 0.676 0.4487 0.0
C231 C 0.15994 0.76768 0.45295 0.0
C232 C 0.20209 0.77709 0.4681 0.0
C233 C 0.20872 0.73545 0.47361 0.0
C234 C 0.17453 0.68566 0.46399 0.0
H235 H 0.5368 0.37407 0.85829 0.0
H236 H 0.47052 0.36753 0.78906 0.0
H237 H 0.54668 0.30077 0.84644 0.0
H238 H 0.48103 0.29424 0.77717 0.0
H239 H 0.48697 0.14333 0.76837 0.0
H240 H 0.45874 0.20245 0.783 0.0
H241 H 0.60826 0.29918 0.81934 0.0
H242 H 0.63674 0.24126 0.80449 0.0
C243 C 0.52347 0.35644 0.84065 0.0
C244 C 0.5037 0.37724 0.82449 0.0
C245 C 0.52935 0.31457 0.83386 0.0
C246 C 0.51563 0.29254 0.81076 0.0
C247 C 0.49194 0.31049 0.7951 0.0
C248 C 0.48599 0.35251 0.80192 0.0
C249 C 0.51381 0.17734 0.77942 0.0
C250 C 0.56406 0.18741 0.78535 0.0
C251 C 0.49755 0.21099 0.78784 0.0
C252 C 0.53109 0.25505 0.80251 0.0
C253 C 0.5811 0.26486 0.80852 0.0
C254 C 0.59743 0.23159 0.8 0.0
H255 H 0.50084 0.87019 0.53613 0.0
H256 H 0.62352 0.93388 0.48899 0.0
H257 H 0.52383 0.80591 0.54587 0.0
H258 H 0.64581 0.86848 0.49847 0.0
H259 H 0.70741 0.78384 0.54307 0.0
H260 H 0.68372 0.84786 0.53213 0.0
H261 H 0.52266 0.7297 0.5288 0.0
H262 H 0.54679 0.66645 0.54021 0.0
C263 C 0.53241 0.8702 0.52764 0.0
C264 C 0.56046 0.90735 0.51182 0.0
C265 C 0.54541 0.83313 0.53317 0.0
C266 C 0.58671 0.83224 0.523 0.0
C267 C 0.61423 0.86871 0.50684 0.0
C268 C 0.60119 0.90589 0.50128 0.0
C269 C 0.66706 0.77205 0.54012 0.0
C270 C 0.6287 0.72094 0.54257 0.0
C271 C 0.65348 0.80834 0.53366 0.0
C272 C 0.60132 0.79375 0.52955 0.0
C273 C 0.5631 0.74225 0.53212 0.0
C274 C 0.57676 0.7061 0.53858 0.0
H275 H 0.72886 0.59761 0.89063 0.0
H276 H 0.74366 0.59338 0.81609 0.0
H277 H 0.80513 0.58931 0.89715 0.0
H278 H 0.81934 0.58338 0.82264 0.0
H279 H 0.86949 0.46476 0.85434 0.0
H280 H 0.81508 0.49947 0.84206 0.0
H281 H 0.90652 0.63587 0.88848 0.0
H282 H 0.96323 0.60291 0.89993 0.0
C283 C 0.74924 0.59613 0.87571 0.0
C284 C 0.73057 0.59605 0.85289 0.0
C285 C 0.79286 0.59156 0.87943 0.0
C286 C 0.81775 0.58561 0.86036 0.0
C287 C 0.80066 0.58806 0.83757 0.0
C288 C 0.75769 0.59399 0.83386 0.0
C289 C 0.87932 0.50293 0.86138 0.0
C290 C 0.92049 0.53065 0.8784 0.0
C291 C 0.84802 0.52273 0.85434 0.0
C292 C 0.85677 0.57018 0.8644 0.0
C293 C 0.89908 0.59906 0.88057 0.0
C294 C 0.93105 0.57981 0.88728 0.0
H295 H 0.19997 0.75037 0.13973 0.0
H296 H 0.14233 0.75963 0.2066 0.0
H297 H 0.2812 0.82871 0.15155 0.0
H298 H 0.22406 0.8374 0.21854 0.0
H299 H 0.43269 0.89406 0.19819 0.0
H300 H 0.3469 0.8353 0.18055 0.0
H301 H 0.29075 0.92845 0.21322 0.0
H302 H 0.37762 0.98828 0.23081 0.0
C303 C 0.20421 0.76967 0.15676 0.0
C304 C 0.16517 0.74815 0.17244 0.0
C305 C 0.2508 0.81443 0.16355 0.0
C306 C 0.25934 0.83839 0.18616 0.0
C307 C 0.21859 0.81977 0.201 0.0
C308 C 0.17179 0.77505 0.19417 0.0
C309 C 0.40244 0.90281 0.20123 0.0
C310 C 0.41205 0.94599 0.21582 0.0
C311 C 0.3532 0.86913 0.19106 0.0
C312 C 0.3122 0.87759 0.19529 0.0
C313 C 0.32167 0.92099 0.2097 0.0
C314 C 0.37124 0.955 0.21983 0.0
H315 H 0.48629 0.19647 0.5524 0.0
H316 H 0.49177 0.22559 0.4792 0.0
H317 H 0.48873 0.27781 0.56219 0.0
H318 H 0.49587 0.30826 0.48911 0.0
H319 H 0.61059 0.47313 0.53249 0.0
H320 H 0.57752 0.38577 0.51545 0.0
H321 H 0.44102 0.33243 0.55358 0.0
H322 H 0.47232 0.42075 0.56974 0.0
C323 C 0.48663 0.21979 0.53839 0.0
C324 C 0.48909 0.20527 0.51511 0.0
C325 C 0.48776 0.26605 0.54396 0.0
C326 C 0.49261 0.29905 0.52637 0.0
C327 C 0.49196 0.28314 0.5029 0.0
C328 C 0.48948 0.23603 0.49725 0.0
C329 C 0.57271 0.44343 0.5367 0.0
C330 C 0.54436 0.4542 0.55269 0.0
C331 C 0.55382 0.39333 0.52689 0.0
C332 C 0.50672 0.35274 0.53316 0.0
C333 C 0.47745 0.36335 0.54849 0.0
C334 C 0.4958 0.41374 0.55796 0.0
H335 H 0.32524 0.45095 0.81656 0.0
H336 H 0.37583 0.58367 0.86565 0.0
H337 H 0.23563 0.42484 0.82259 0.0
H338 H 0.28684 0.55703 0.87194 0.0
H339 H 0.12241 0.52399 0.86007 0.0
H340 H 0.21106 0.55004 0.85182 0.0
H341 H 0.17473 0.39112 0.85349 0.0
H342 H 0.08558 0.36534 0.86128 0.0
C343 C 0.31734 0.47465 0.82854 0.0
C344 C 0.35778 0.51943 0.84059 0.0
C345 C 0.26602 0.45946 0.83213 0.0
C346 C 0.25417 0.48884 0.84777 0.0
C347 C 0.29463 0.5339 0.85955 0.0
C348 C 0.34574 0.54903 0.856 0.0
C349 C 0.13371 0.49488 0.8587 0.0
C350 C 0.09802 0.44296 0.86137 0.0
C351 C 0.18431 0.50966 0.85406 0.0
C352 C 0.19995 0.47264 0.85205 0.0
C353 C 0.16371 0.42043 0.85467 0.0
C354 C 0.11299 0.40569 0.85931 0.0
H355 H 0.9377 0.35075 0.19367 0.0
H356 H 0.82875 0.36835 0.14914 0.0
H357 H 0.86832 0.26916 0.20521 0.0
H358 H 0.75934 0.28586 0.16044 0.0
H359 H 0.6424 0.17008 0.20768 0.0
H360 H 0.71319 0.25156 0.19572 0.0
H361 H 0.80772 0.18091 0.18991 0.0
H362 H 0.73704 0.10003 0.20229 0.0
C363 C 0.89904 0.33694 0.18609 0.0
C364 C 0.88877 0.36626 0.17053 0.0
C365 C 0.8593 0.29002 0.19268 0.0
C366 C 0.80833 0.27127 0.18387 0.0
C367 C 0.79816 0.29979 0.16782 0.0
C368 C 0.83799 0.34679 0.16117 0.0
C369 C 0.6787 0.17257 0.20411 0.0
C370 C 0.68509 0.12969 0.20604 0.0
C371 C 0.71889 0.21878 0.19703 0.0
C372 C 0.76591 0.22252 0.19173 0.0
C373 C 0.77218 0.17939 0.19408 0.0
C374 C 0.73194 0.13324 0.20115 0.0
H375 H 0.94563 0.46518 0.0677 0.0
H376 H 0.09803 0.59956 0.0683 0.0
H377 H 0.94438 0.45255 0.02535 0.0
H378 H 0.09679 0.58647 0.02597 0.0
H379 H 0.03902 0.58245 0.94883 0.0
H380 H 0.0496 0.59349 0.99146 0.0
H381 H 0.98667 0.42898 0.99465 0.0
H382 H 0.97528 0.41791 0.95188 0.0
C383 C 0.97892 0.49195 0.05884 0.0
C384 C 0.0218 0.53356 0.07143 0.0
C385 C 0.97838 0.4844 0.03459 0.0
C386 C 0.02056 0.51842 0.02233 0.0
C387 C 0.06356 0.55983 0.0349 0.0
C388 C 0.06425 0.56723 0.05918 0.0
C389 C 0.028 0.54875 0.95866 0.0
C390 C 0.00607 0.4993 0.94708 0.0
C391 C 0.03433 0.55509 0.98305 0.0
C392 C 0.01858 0.51205 0.99642 0.0
C393 C -0.00145 0.46279 0.9848 0.0
C394 C -0.00743 0.4565 0.96035 0.0
H395 H 0.54816 0.99555 0.40899 0.0
H396 H 0.49828 0.108 0.40874 0.0
H397 H 0.55094 0.99561 0.36673 0.0
H398 H 0.5034 0.11007 0.36644 0.0
H399 H 0.46206 0.05528 0.2885 0.0
H400 H 0.46314 0.06242 0.33089 0.0
H401 H 0.59666 0.04363 0.33611 0.0
H402 H 0.59293 0.03222 0.2938 0.0
C403 C 0.53821 0.02067 0.3999 0.0
C404 C 0.52285 0.05164 0.41222 0.0
C405 C 0.54029 0.02112 0.37563 0.0
C406 C 0.52786 0.05321 0.36304 0.0
C407 C 0.51261 0.08434 0.37543 0.0
C408 C 0.50979 0.08329 0.39972 0.0
C409 C 0.49155 0.05243 0.29868 0.0
C410 C 0.52689 0.04235 0.28761 0.0
C411 C 0.49261 0.05725 0.32307 0.0
C412 C 0.52956 0.0529 0.33707 0.0
C413 C 0.56678 0.04588 0.32597 0.0
C414 C 0.56525 0.04031 0.30159 0.0
H415 H 0.47062 0.54091 0.74115 0.0
H416 H 0.63368 0.59541 0.74934 0.0
H417 H 0.47576 0.54551 0.69888 0.0
H418 H 0.63852 0.59736 0.70726 0.0
H419 H 0.64724 0.63535 0.63309 0.0
H420 H 0.63769 0.64031 0.67474 0.0
H421 H 0.48506 0.50565 0.66518 0.0
H422 H 0.49279 0.50367 0.62326 0.0
C423 C 0.50746 0.55345 0.73389 0.0
C424 C 0.55175 0.56793 0.74858 0.0
C425 C 0.51044 0.55589 0.70962 0.0
C426 C 0.55764 0.57202 0.69948 0.0
C427 C 0.60174 0.58605 0.71431 0.0
C428 C 0.59891 0.58449 0.73852 0.0
C429 C 0.61104 0.60761 0.63971 0.0
C430 C 0.571 0.56879 0.62466 0.0
C431 C 0.6059 0.60985 0.66378 0.0
C432 C 0.56095 0.57279 0.67357 0.0
C433 C 0.5202 0.5351 0.65842 0.0
C434 C 0.52498 0.53344 0.6343 0.0
H435 H 0.47449 0.99161 0.59719 0.0
H436 H 0.6181 0.13628 0.59677 0.0
H437 H 0.48634 0.99413 0.63967 0.0
H438 H 0.6295 0.13888 0.63918 0.0
H439 H 0.65896 0.10818 0.71284 0.0
H440 H 0.64644 0.09359 0.67027 0.0
H441 H 0.48574 0.04674 0.67392 0.0
H442 H 0.49804 0.0602 0.7165 0.0
C443 C 0.50857 0.02393 0.60612 0.0
C444 C 0.54526 0.06384 0.59354 0.0
C445 C 0.51526 0.02539 0.63047 0.0
C446 C 0.55894 0.06658 0.64277 0.0
C447 C 0.59582 0.1062 0.63018 0.0
C448 C 0.58902 0.10492 0.60587 0.0
C449 C 0.62071 0.09358 0.70458 0.0
C450 C 0.57952 0.08554 0.71799 0.0
C451 C 0.61369 0.08583 0.68019 0.0
C452 C 0.56525 0.06958 0.66872 0.0
C453 C 0.52348 0.05906 0.68222 0.0
C454 C 0.53058 0.06709 0.70659 0.0
H455 H 0.52578 0.62734 0.93529 0.0
H456 H 0.53267 0.48661 0.92909 0.0
H457 H 0.51591 0.6181 0.97735 0.0
H458 H 0.52325 0.47783 0.9707 0.0
H459 H 0.57204 0.61089 0.05469 0.0
H460 H 0.56972 0.62226 0.0128 0.0
H461 H 0.4589 0.45957 0.99963 0.0
H462 H 0.46229 0.44791 0.04134 0.0
C463 C 0.52507 0.59447 0.94283 0.0
C464 C 0.53015 0.55782 0.92879 0.0
C465 C 0.51954 0.58926 0.9669 0.0
C466 C 0.51839 0.54701 0.9773 0.0
C467 C 0.52305 0.51031 0.96319 0.0
C468 C 0.52895 0.51568 0.9393 0.0
C469 C 0.54683 0.57767 0.04284 0.0
C470 C 0.51775 0.5284 0.05131 0.0
C471 C 0.54517 0.58429 0.01888 0.0
C472 C 0.51456 0.54171 0.00289 0.0
C473 C 0.48342 0.49299 0.0115 0.0
C474 C 0.48494 0.48641 0.03544 0.0
H475 H 0.0162 0.47886 0.25323 0.0
H476 H 0.04376 0.63502 0.25893 0.0
H477 H 0.01415 0.47603 0.29548 0.0
H478 H 0.04467 0.63352 0.30138 0.0
H479 H 0.00643 0.60607 0.37642 0.0
H480 H -0.00358 0.6015 0.33377 0.0
H481 H 0.06724 0.50653 0.32965 0.0
H482 H 0.07453 0.5092 0.37214 0.0
C483 C 0.0224 0.51285 0.26357 0.0
C484 C 0.03038 0.55726 0.25276 0.0
C485 C 0.02147 0.51136 0.28787 0.0
C486 C 0.02953 0.55463 0.30205 0.0
C487 C 0.03736 0.59905 0.29113 0.0
C488 C 0.0373 0.60015 0.26677 0.0
C489 C 0.01902 0.58362 0.36627 0.0
C490 C 0.04093 0.55773 0.37749 0.0
C491 C 0.01383 0.58138 0.34184 0.0
C492 C 0.03137 0.55398 0.32808 0.0
C493 C 0.05236 0.52725 0.33949 0.0
C494 C 0.05669 0.52879 0.36389 0.0
loop_
_geom_bond_atom_site_label_1
_geom_bond_atom_site_label_2
_geom_bond_distance
_geom_bond_site_symmetry_2
_ccdc_geom_bond_type
O0 Zn1 1.953 . S
O0 C16 1.225 . S
Zn1 O0 1.953 . S
Zn1 O2 1.949 . S
Zn1 O8 1.919 1_455 S
Zn1 O13 1.924 . S
O2 Zn1 1.949 . S
O2 Zn3 1.923 1_455 S
O2 Zn4 1.950 . S
O2 Zn5 1.945 . S
Zn3 O2 1.923 1_655 S
Zn3 O6 1.933 1_655 S
Zn3 O9 1.941 . S
Zn3 O10 1.965 . S
Zn4 O2 1.950 . S
Zn4 O11 1.938 1_455 S
Zn4 O12 1.906 . S
Zn4 O22 1.953 . S
Zn5 O2 1.945 . S
Zn5 O7 1.932 . S
Zn5 O14 1.977 . S
Zn5 O15 1.910 . S
O6 Zn3 1.933 1_455 S
O6 C17 1.226 . S
O7 Zn5 1.932 . S
O7 C17 1.307 . S
O8 Zn1 1.919 1_655 S
O8 C19 1.253 . S
O9 Zn3 1.941 . S
O9 C19 1.283 . S
O10 Zn3 1.965 . S
O10 C18 1.303 . S
O11 Zn4 1.938 1_655 S
O11 C18 1.247 . S
O12 Zn4 1.906 . S
O12 C20 1.304 . S
O13 Zn1 1.924 . S
O13 C21 1.311 . S
O14 Zn5 1.977 . S
O14 C20 1.272 . S
O15 Zn5 1.910 . S
O15 C21 1.231 . S
C16 O0 1.225 . S
C16 O22 1.298 . S
C17 O6 1.226 . S
C17 O7 1.307 . S
C18 O10 1.303 . S
C18 O11 1.247 . S
C19 O8 1.253 . S
C19 O9 1.283 . S
C20 O12 1.304 . S
C20 O14 1.272 . S
C21 O13 1.311 . S
C21 O15 1.231 . S
O22 Zn4 1.953 . S
O22 C16 1.298 . S
O23 Zn24 1.953 . S
O23 C39 1.225 . S
Zn24 O23 1.953 . S
Zn24 O25 1.949 . S
Zn24 O31 1.919 . S
Zn24 O36 1.924 . S
O25 Zn24 1.949 . S
O25 Zn26 1.923 . S
O25 Zn27 1.950 . S
O25 Zn28 1.945 1_545 S
Zn26 O25 1.923 . S
Zn26 O29 1.933 . S
Zn26 O32 1.941 . S
Zn26 O33 1.965 . S
Zn27 O25 1.950 . S
Zn27 O34 1.938 . S
Zn27 O35 1.906 1_545 S
Zn27 O45 1.953 . S
Zn28 O25 1.945 1_565 S
Zn28 O30 1.932 1_565 S
Zn28 O37 1.977 . S
Zn28 O38 1.910 . S
O29 Zn26 1.933 . S
O29 C40 1.226 . S
O30 Zn28 1.932 1_545 S
O30 C40 1.307 . S
O31 Zn24 1.919 . S
O31 C42 1.253 . S
O32 Zn26 1.941 . S
O32 C42 1.283 . S
O33 Zn26 1.965 . S
O33 C41 1.303 . S
O34 Zn27 1.938 . S
O34 C41 1.247 . S
O35 Zn27 1.906 1_565 S
O35 C43 1.304 . S
O36 Zn24 1.924 . S
O36 C44 1.311 1_545 S
O37 Zn28 1.977 . S
O37 C43 1.272 . S
O38 Zn28 1.910 . S
O38 C44 1.231 . S
C39 O23 1.225 . S
C39 O45 1.298 . S
C40 O29 1.226 . S
C40 O30 1.307 . S
C41 O33 1.303 . S
C41 O34 1.247 . S
C42 O31 1.253 . S
C42 O32 1.283 . S
C43 O35 1.304 . S
C43 O37 1.272 . S
C44 O36 1.311 1_565 S
C44 O38 1.231 . S
O45 Zn27 1.953 . S
O45 C39 1.298 . S
O46 Zn47 1.953 . S
O46 C62 1.225 . S
Zn47 O46 1.953 . S
Zn47 O48 1.949 . S
Zn47 O54 1.919 . S
Zn47 O59 1.924 . S
O48 Zn47 1.949 . S
O48 Zn49 1.923 . S
O48 Zn50 1.950 . S
O48 Zn51 1.945 . S
Zn49 O48 1.923 . S
Zn49 O52 1.933 . S
Zn49 O55 1.941 . S
Zn49 O56 1.965 . S
Zn50 O48 1.950 . S
Zn50 O57 1.938 . S
Zn50 O58 1.906 . S
Zn50 O68 1.953 . S
Zn51 O48 1.945 . S
Zn51 O53 1.932 . S
Zn51 O60 1.977 . S
Zn51 O61 1.910 . S
O52 Zn49 1.933 . S
O52 C63 1.226 . S
O53 Zn51 1.932 . S
O53 C63 1.307 . S
O54 Zn47 1.919 . S
O54 C65 1.253 . S
O55 Zn49 1.941 . S
O55 C65 1.283 . S
O56 Zn49 1.965 . S
O56 C64 1.303 . S
O57 Zn50 1.938 . S
O57 C64 1.247 . S
O58 Zn50 1.906 . S
O58 C66 1.304 . S
O59 Zn47 1.924 . S
O59 C67 1.311 . S
O60 Zn51 1.977 . S
O60 C66 1.272 . S
O61 Zn51 1.910 . S
O61 C67 1.231 . S
C62 O46 1.225 . S
C62 O68 1.298 . S
C63 O52 1.226 . S
C63 O53 1.307 . S
C64 O56 1.303 . S
C64 O57 1.247 . S
C65 O54 1.253 . S
C65 O55 1.283 . S
C66 O58 1.304 . S
C66 O60 1.272 . S
C67 O59 1.311 . S
C67 O61 1.231 . S
O68 Zn50 1.953 . S
O68 C62 1.298 . S
H69 C72 0.926 1_565 S
H70 C75 0.929 . S
H71 C77 0.930 . S
C72 H69 0.926 1_545 S
C72 C73 1.398 . S
C72 C74 1.396 . S
C73 C72 1.398 . S
C73 C77 1.407 . S
C74 C72 1.396 . S
C74 C75 1.394 . S
C75 H70 0.929 . S
C75 C74 1.394 . S
C75 C76 1.382 . S
C76 C75 1.382 . S
C76 C77 1.392 . S
C76 N78 1.420 . S
C77 H71 0.930 . S
C77 C73 1.407 . S
C77 C76 1.392 . S
N78 C76 1.420 . S
N78 C79 1.244 . S
C79 N78 1.244 . S
H80 C83 0.929 . S
H81 C86 0.929 . S
H82 C88 0.930 . S
C83 H80 0.929 . S
C83 C84 1.398 . S
C83 C85 1.396 . S
C84 C83 1.398 . S
C84 C88 1.407 . S
C85 C83 1.396 . S
C85 C86 1.394 . S
C86 H81 0.929 . S
C86 C85 1.394 . S
C86 C87 1.382 . S
C87 C86 1.382 . S
C87 C88 1.392 . S
C87 N89 1.420 . S
C88 H82 0.930 . S
C88 C84 1.407 . S
C88 C87 1.392 . S
N89 C87 1.420 . S
N89 C90 1.244 . S
C90 N89 1.244 . S
H91 C94 0.929 1_655 S
H92 C97 0.929 . S
H93 C99 0.930 . S
C94 H91 0.929 1_455 S
C94 C95 1.398 . S
C94 C96 1.396 . S
C95 C94 1.398 . S
C95 C99 1.407 . S
C96 C94 1.396 . S
C96 C97 1.394 . S
C97 H92 0.929 . S
C97 C96 1.394 . S
C97 C98 1.382 . S
C98 C97 1.382 . S
C98 C99 1.392 . S
C98 N100 1.420 . S
C99 H93 0.930 . S
C99 C95 1.407 . S
C99 C98 1.392 . S
N100 C98 1.420 . S
N100 C101 1.244 . S
C101 N100 1.244 . S
H102 C105 0.929 . S
H103 C108 0.929 1_655 S
H104 C110 0.930 . S
C105 H102 0.929 . S
C105 C106 1.398 . S
C105 C107 1.396 . S
C106 C105 1.398 . S
C106 C110 1.407 . S
C107 C105 1.396 . S
C107 C108 1.394 . S
C108 H103 0.929 1_455 S
C108 C107 1.394 . S
C108 C109 1.382 . S
C109 C108 1.382 . S
C109 C110 1.392 . S
C109 N111 1.420 1_455 S
C110 H104 0.930 . S
C110 C106 1.407 . S
C110 C109 1.392 . S
N111 C109 1.420 1_655 S
N111 C112 1.244 . S
C112 N111 1.244 . S
H113 C116 0.929 . S
H114 C119 0.929 1_565 S
H115 C121 0.930 . S
C116 H113 0.929 . S
C116 C117 1.398 . S
C116 C118 1.396 . S
C117 C116 1.398 . S
C117 C121 1.407 . S
C118 C116 1.396 . S
C118 C119 1.394 . S
C119 H114 0.929 1_545 S
C119 C118 1.394 . S
C119 C120 1.382 . S
C120 C119 1.382 . S
C120 C121 1.392 . S
C120 N122 1.420 1_545 S
C121 H115 0.930 . S
C121 C117 1.407 . S
C121 C120 1.392 . S
N122 C120 1.420 1_565 S
N122 C123 1.244 . S
C123 N122 1.244 . S
H124 C127 0.929 . S
H125 C130 0.929 . S
H126 C132 0.930 . S
C127 H124 0.929 . S
C127 C128 1.398 . S
C127 C129 1.396 . S
C128 C127 1.398 . S
C128 C132 1.407 . S
C129 C127 1.396 . S
C129 C130 1.394 . S
C130 H125 0.929 . S
C130 C129 1.394 . S
C130 C131 1.382 . S
C131 C130 1.382 . S
C131 C132 1.392 . S
C131 N133 1.420 . S
C132 H126 0.930 . S
C132 C128 1.407 . S
C132 C131 1.392 . S
N133 C131 1.420 . S
N133 C134 1.244 . S
C134 N133 1.244 . S
H135 C143 0.950 . S
H136 C148 0.950 . S
H137 C145 0.950 . S
H138 C147 0.950 . S
H139 C149 0.950 . S
H140 C151 0.950 . S
H141 C153 0.950 . S
H142 C154 0.950 . S
C143 H135 0.950 . S
C143 C144 1.386 . S
C143 C145 1.391 . S
C144 C143 1.386 . S
C144 C148 1.393 . S
C145 H137 0.950 . S
C145 C143 1.391 . S
C145 C146 1.400 . S
C146 C145 1.400 . S
C146 C147 1.398 . S
C146 C152 1.491 . S
C147 H138 0.950 . S
C147 C146 1.398 . S
C147 C148 1.391 . S
C148 H136 0.950 . S
C148 C144 1.393 . S
C148 C147 1.391 . S
C149 H139 0.950 . S
C149 C150 1.386 . S
C149 C151 1.391 . S
C150 C149 1.386 . S
C150 C154 1.393 . S
C151 H140 0.950 . S
C151 C149 1.391 . S
C151 C152 1.400 . S
C152 C146 1.491 . S
C152 C151 1.400 . S
C152 C153 1.398 . S
C153 H141 0.950 . S
C153 C152 1.398 . S
C153 C154 1.391 . S
C154 H142 0.950 . S
C154 C150 1.393 . S
C154 C153 1.391 . S
H155 C163 0.950 . S
H156 C168 0.950 . S
H157 C165 0.950 . S
H158 C167 0.950 . S
H159 C169 0.950 . S
H160 C171 0.950 . S
H161 C173 0.950 . S
H162 C174 0.950 . S
C163 H155 0.950 . S
C163 C164 1.386 . S
C163 C165 1.391 . S
C164 C163 1.386 . S
C164 C168 1.393 . S
C165 H157 0.950 . S
C165 C163 1.391 . S
C165 C166 1.400 . S
C166 C165 1.400 . S
C166 C167 1.398 . S
C166 C172 1.491 . S
C167 H158 0.950 . S
C167 C166 1.398 . S
C167 C168 1.391 . S
C168 H156 0.950 . S
C168 C164 1.393 . S
C168 C167 1.391 . S
C169 H159 0.950 . S
C169 C170 1.386 . S
C169 C171 1.391 . S
C170 C169 1.386 . S
C170 C174 1.393 . S
C171 H160 0.950 . S
C171 C169 1.391 . S
C171 C172 1.400 . S
C172 C166 1.491 . S
C172 C171 1.400 . S
C172 C173 1.398 . S
C173 H161 0.950 . S
C173 C172 1.398 . S
C173 C174 1.391 . S
C174 H162 0.950 . S
C174 C170 1.393 . S
C174 C173 1.391 . S
H175 C183 0.950 . S
H176 C188 0.950 . S
H177 C185 0.950 . S
H178 C187 0.950 . S
H179 C189 0.950 . S
H180 C191 0.950 . S
H181 C193 0.950 . S
H182 C194 0.950 . S
C183 H175 0.950 . S
C183 C184 1.386 . S
C183 C185 1.391 . S
C184 C183 1.386 . S
C184 C188 1.393 . S
C185 H177 0.950 . S
C185 C183 1.391 . S
C185 C186 1.400 . S
C186 C185 1.400 . S
C186 C187 1.398 . S
C186 C192 1.491 . S
C187 H178 0.950 . S
C187 C186 1.398 . S
C187 C188 1.391 . S
C188 H176 0.950 . S
C188 C184 1.393 . S
C188 C187 1.391 . S
C189 H179 0.950 . S
C189 C190 1.386 . S
C189 C191 1.391 . S
C190 C189 1.386 . S
C190 C194 1.393 . S
C191 H180 0.950 . S
C191 C189 1.391 . S
C191 C192 1.400 . S
C192 C186 1.491 . S
C192 C191 1.400 . S
C192 C193 1.398 . S
C193 H181 0.950 . S
C193 C192 1.398 . S
C193 C194 1.391 . S
C194 H182 0.950 . S
C194 C190 1.393 . S
C194 C193 1.391 . S
H195 C203 0.950 . S
H196 C208 0.950 . S
H197 C205 0.950 . S
H198 C207 0.950 . S
H199 C209 0.950 . S
H200 C211 0.950 . S
H201 C213 0.950 . S
H202 C214 0.950 . S
C203 H195 0.950 . S
C203 C204 1.386 . S
C203 C205 1.391 . S
C204 C203 1.386 . S
C204 C208 1.393 . S
C205 H197 0.950 . S
C205 C203 1.391 . S
C205 C206 1.400 . S
C206 C205 1.400 . S
C206 C207 1.398 . S
C206 C212 1.491 . S
C207 H198 0.950 . S
C207 C206 1.398 . S
C207 C208 1.391 . S
C208 H196 0.950 . S
C208 C204 1.393 . S
C208 C207 1.391 . S
C209 H199 0.950 . S
C209 C210 1.386 . S
C209 C211 1.391 . S
C210 C209 1.386 . S
C210 C214 1.393 . S
C211 H200 0.950 . S
C211 C209 1.391 . S
C211 C212 1.400 . S
C212 C206 1.491 . S
C212 C211 1.400 . S
C212 C213 1.398 . S
C213 H201 0.950 . S
C213 C212 1.398 . S
C213 C214 1.391 . S
C214 H202 0.950 . S
C214 C210 1.393 . S
C214 C213 1.391 . S
H215 C223 0.950 . S
H216 C228 0.950 . S
H217 C225 0.950 . S
H218 C227 0.950 . S
H219 C229 0.950 . S
H220 C231 0.950 . S
H221 C233 0.950 . S
H222 C234 0.950 . S
C223 H215 0.950 . S
C223 C224 1.386 . S
C223 C225 1.391 . S
C224 C223 1.386 . S
C224 C228 1.393 . S
C225 H217 0.950 . S
C225 C223 1.391 . S
C225 C226 1.400 . S
C226 C225 1.400 . S
C226 C227 1.398 . S
C226 C232 1.491 . S
C227 H218 0.950 . S
C227 C226 1.398 . S
C227 C228 1.391 . S
C228 H216 0.950 . S
C228 C224 1.393 . S
C228 C227 1.391 . S
C229 H219 0.950 . S
C229 C230 1.386 . S
C229 C231 1.391 . S
C230 C229 1.386 . S
C230 C234 1.393 . S
C231 H220 0.950 . S
C231 C229 1.391 . S
C231 C232 1.400 . S
C232 C226 1.491 . S
C232 C231 1.400 . S
C232 C233 1.398 . S
C233 H221 0.950 . S
C233 C232 1.398 . S
C233 C234 1.391 . S
C234 H222 0.950 . S
C234 C230 1.393 . S
C234 C233 1.391 . S
H235 C243 0.950 . S
H236 C248 0.950 . S
H237 C245 0.950 . S
H238 C247 0.950 . S
H239 C249 0.950 . S
H240 C251 0.950 . S
H241 C253 0.950 . S
H242 C254 0.950 . S
C243 H235 0.950 . S
C243 C244 1.386 . S
C243 C245 1.391 . S
C244 C243 1.386 . S
C244 C248 1.393 . S
C245 H237 0.950 . S
C245 C243 1.391 . S
C245 C246 1.400 . S
C246 C245 1.400 . S
C246 C247 1.398 . S
C246 C252 1.491 . S
C247 H238 0.950 . S
C247 C246 1.398 . S
C247 C248 1.391 . S
C248 H236 0.950 . S
C248 C244 1.393 . S
C248 C247 1.391 . S
C249 H239 0.950 . S
C249 C250 1.386 . S
C249 C251 1.391 . S
C250 C249 1.386 . S
C250 C254 1.393 . S
C251 H240 0.950 . S
C251 C249 1.391 . S
C251 C252 1.400 . S
C252 C246 1.491 . S
C252 C251 1.400 . S
C252 C253 1.398 . S
C253 H241 0.950 . S
C253 C252 1.398 . S
C253 C254 1.391 . S
C254 H242 0.950 . S
C254 C250 1.393 . S
C254 C253 1.391 . S
H255 C263 0.950 . S
H256 C268 0.950 . S
H257 C265 0.950 . S
H258 C267 0.950 . S
H259 C269 0.950 . S
H260 C271 0.950 . S
H261 C273 0.950 . S
H262 C274 0.950 . S
C263 H255 0.950 . S
C263 C264 1.386 . S
C263 C265 1.391 . S
C264 C263 1.386 . S
C264 C268 1.393 . S
C265 H257 0.950 . S
C265 C263 1.391 . S
C265 C266 1.400 . S
C266 C265 1.400 . S
C266 C267 1.398 . S
C266 C272 1.491 . S
C267 H258 0.950 . S
C267 C266 1.398 . S
C267 C268 1.391 . S
C268 H256 0.950 . S
C268 C264 1.393 . S
C268 C267 1.391 . S
C269 H259 0.950 . S
C269 C270 1.386 . S
C269 C271 1.391 . S
C270 C269 1.386 . S
C270 C274 1.393 . S
C271 H260 0.950 . S
C271 C269 1.391 . S
C271 C272 1.400 . S
C272 C266 1.491 . S
C272 C271 1.400 . S
C272 C273 1.398 . S
C273 H261 0.950 . S
C273 C272 1.398 . S
C273 C274 1.391 . S
C274 H262 0.950 . S
C274 C270 1.393 . S
C274 C273 1.391 . S
H275 C283 0.950 . S
H276 C288 0.950 . S
H277 C285 0.950 . S
H278 C287 0.950 . S
H279 C289 0.950 . S
H280 C291 0.950 . S
H281 C293 0.950 . S
H282 C294 0.950 . S
C283 H275 0.950 . S
C283 C284 1.386 . S
C283 C285 1.391 . S
C284 C283 1.386 . S
C284 C288 1.393 . S
C285 H277 0.950 . S
C285 C283 1.391 . S
C285 C286 1.400 . S
C286 C285 1.400 . S
C286 C287 1.398 . S
C286 C292 1.491 . S
C287 H278 0.950 . S
C287 C286 1.398 . S
C287 C288 1.391 . S
C288 H276 0.950 . S
C288 C284 1.393 . S
C288 C287 1.391 . S
C289 H279 0.950 . S
C289 C290 1.386 . S
C289 C291 1.391 . S
C290 C289 1.386 . S
C290 C294 1.393 . S
C291 H280 0.950 . S
C291 C289 1.391 . S
C291 C292 1.400 . S
C292 C286 1.491 . S
C292 C291 1.400 . S
C292 C293 1.398 . S
C293 H281 0.950 . S
C293 C292 1.398 . S
C293 C294 1.391 . S
C294 H282 0.950 . S
C294 C290 1.393 . S
C294 C293 1.391 . S
H295 C303 0.950 . S
H296 C308 0.950 . S
H297 C305 0.950 . S
H298 C307 0.950 . S
H299 C309 0.950 . S
H300 C311 0.950 . S
H301 C313 0.950 . S
H302 C314 0.950 1_545 S
C303 H295 0.950 . S
C303 C304 1.386 . S
C303 C305 1.391 . S
C304 C303 1.386 . S
C304 C308 1.393 . S
C305 H297 0.950 . S
C305 C303 1.391 . S
C305 C306 1.400 . S
C306 C305 1.400 . S
C306 C307 1.398 . S
C306 C312 1.491 . S
C307 H298 0.950 . S
C307 C306 1.398 . S
C307 C308 1.391 . S
C308 H296 0.950 . S
C308 C304 1.393 . S
C308 C307 1.391 . S
C309 H299 0.950 . S
C309 C310 1.386 . S
C309 C311 1.391 . S
C310 C309 1.386 . S
C310 C314 1.393 . S
C311 H300 0.950 . S
C311 C309 1.391 . S
C311 C312 1.400 . S
C312 C306 1.491 . S
C312 C311 1.400 . S
C312 C313 1.398 . S
C313 H301 0.950 . S
C313 C312 1.398 . S
C313 C314 1.391 . S
C314 H302 0.950 1_565 S
C314 C310 1.393 . S
C314 C313 1.391 . S
H315 C323 0.950 . S
H316 C328 0.950 . S
H317 C325 0.950 . S
H318 C327 0.950 . S
H319 C329 0.950 . S
H320 C331 0.950 . S
H321 C333 0.950 . S
H322 C334 0.950 . S
C323 H315 0.950 . S
C323 C324 1.386 . S
C323 C325 1.391 . S
C324 C323 1.386 . S
C324 C328 1.393 . S
C325 H317 0.950 . S
C325 C323 1.391 . S
C325 C326 1.400 . S
C326 C325 1.400 . S
C326 C327 1.398 . S
C326 C332 1.491 . S
C327 H318 0.950 . S
C327 C326 1.398 . S
C327 C328 1.391 . S
C328 H316 0.950 . S
C328 C324 1.393 . S
C328 C327 1.391 . S
C329 H319 0.950 . S
C329 C330 1.386 . S
C329 C331 1.391 . S
C330 C329 1.386 . S
C330 C334 1.393 . S
C331 H320 0.950 . S
C331 C329 1.391 . S
C331 C332 1.400 . S
C332 C326 1.491 . S
C332 C331 1.400 . S
C332 C333 1.398 . S
C333 H321 0.950 . S
C333 C332 1.398 . S
C333 C334 1.391 . S
C334 H322 0.950 . S
C334 C330 1.393 . S
C334 C333 1.391 . S
H335 C343 0.950 . S
H336 C348 0.950 . S
H337 C345 0.950 . S
H338 C347 0.950 . S
H339 C349 0.950 . S
H340 C351 0.950 . S
H341 C353 0.950 . S
H342 C354 0.950 . S
C343 H335 0.950 . S
C343 C344 1.386 . S
C343 C345 1.391 . S
C344 C343 1.386 . S
C344 C348 1.393 . S
C345 H337 0.950 . S
C345 C343 1.391 . S
C345 C346 1.400 . S
C346 C345 1.400 . S
C346 C347 1.398 . S
C346 C352 1.491 . S
C347 H338 0.950 . S
C347 C346 1.398 . S
C347 C348 1.391 . S
C348 H336 0.950 . S
C348 C344 1.393 . S
C348 C347 1.391 . S
C349 H339 0.950 . S
C349 C350 1.386 . S
C349 C351 1.391 . S
C350 C349 1.386 . S
C350 C354 1.393 . S
C351 H340 0.950 . S
C351 C349 1.391 . S
C351 C352 1.400 . S
C352 C346 1.491 . S
C352 C351 1.400 . S
C352 C353 1.398 . S
C353 H341 0.950 . S
C353 C352 1.398 . S
C353 C354 1.391 . S
C354 H342 0.950 . S
C354 C350 1.393 . S
C354 C353 1.391 . S
H355 C363 0.950 . S
H356 C368 0.950 . S
H357 C365 0.950 . S
H358 C367 0.950 . S
H359 C369 0.950 . S
H360 C371 0.950 . S
H361 C373 0.950 . S
H362 C374 0.950 . S
C363 H355 0.950 . S
C363 C364 1.386 . S
C363 C365 1.391 . S
C364 C363 1.386 . S
C364 C368 1.393 . S
C365 H357 0.950 . S
C365 C363 1.391 . S
C365 C366 1.400 . S
C366 C365 1.400 . S
C366 C367 1.398 . S
C366 C372 1.491 . S
C367 H358 0.950 . S
C367 C366 1.398 . S
C367 C368 1.391 . S
C368 H356 0.950 . S
C368 C364 1.393 . S
C368 C367 1.391 . S
C369 H359 0.950 . S
C369 C370 1.386 . S
C369 C371 1.391 . S
C370 C369 1.386 . S
C370 C374 1.393 . S
C371 H360 0.950 . S
C371 C369 1.391 . S
C371 C372 1.400 . S
C372 C366 1.491 . S
C372 C371 1.400 . S
C372 C373 1.398 . S
C373 H361 0.950 . S
C373 C372 1.398 . S
C373 C374 1.391 . S
C374 H362 0.950 . S
C374 C370 1.393 . S
C374 C373 1.391 . S
H375 C383 0.950 1_655 S
H376 C388 0.950 . S
H377 C385 0.950 1_655 S
H378 C387 0.950 . S
H379 C389 0.950 . S
H380 C391 0.971 . S
H381 C393 0.963 . S
H382 C394 0.950 . S
C383 H375 0.950 1_455 S
C383 C384 1.386 . S
C383 C385 1.391 . S
C384 C383 1.386 . S
C384 C388 1.393 . S
C385 H377 0.950 1_455 S
C385 C383 1.391 . S
C385 C386 1.400 . S
C386 C385 1.400 . S
C386 C387 1.398 . S
C386 C392 1.491 . S
C387 H378 0.950 . S
C387 C386 1.398 . S
C387 C388 1.391 . S
C388 H376 0.950 . S
C388 C384 1.393 . S
C388 C387 1.391 . S
C389 H379 0.950 . S
C389 C390 1.386 . S
C389 C391 1.391 . S
C390 C389 1.386 . S
C390 C394 1.393 . S
C391 H380 0.971 . S
C391 C389 1.391 . S
C391 C392 1.400 1_556 S
C392 C386 1.491 . S
C392 C391 1.400 1_554 S
C392 C393 1.398 1_554 S
C393 H381 0.963 . S
C393 C392 1.398 1_556 S
C393 C394 1.391 . S
C394 H382 0.950 . S
C394 C390 1.393 . S
C394 C393 1.391 . S
H395 C403 0.950 1_565 S
H396 C408 0.950 . S
H397 C405 0.950 1_565 S
H398 C407 0.950 . S
H399 C409 0.950 . S
H400 C411 0.950 . S
H401 C413 0.950 1_565 S
H402 C414 0.950 1_565 S
C403 H395 0.950 1_545 S
C403 C404 1.386 . S
C403 C405 1.391 . S
C404 C403 1.386 . S
C404 C408 1.393 . S
C405 H397 0.950 1_545 S
C405 C403 1.391 . S
C405 C406 1.400 . S
C406 C405 1.400 . S
C406 C407 1.398 . S
C406 C412 1.491 . S
C407 H398 0.950 . S
C407 C406 1.398 . S
C407 C408 1.391 . S
C408 H396 0.950 . S
C408 C404 1.393 . S
C408 C407 1.391 . S
C409 H399 0.950 . S
C409 C410 1.386 . S
C409 C411 1.391 . S
C410 C409 1.386 . S
C410 C414 1.393 . S
C411 H400 0.950 . S
C411 C409 1.391 . S
C411 C412 1.400 . S
C412 C406 1.491 . S
C412 C411 1.400 . S
C412 C413 1.398 . S
C413 H401 0.950 1_545 S
C413 C412 1.398 . S
C413 C414 1.391 . S
C414 H402 0.950 1_545 S
C414 C410 1.393 . S
C414 C413 1.391 . S
H415 C423 0.950 . S
H416 C428 0.950 . S
H417 C425 0.950 . S
H418 C427 0.950 . S
H419 C429 0.950 . S
H420 C431 0.950 . S
H421 C433 0.950 . S
H422 C434 0.950 . S
C423 H415 0.950 . S
C423 C424 1.386 . S
C423 C425 1.391 . S
C424 C423 1.386 . S
C424 C428 1.393 . S
C425 H417 0.950 . S
C425 C423 1.391 . S
C425 C426 1.400 . S
C426 C425 1.400 . S
C426 C427 1.398 . S
C426 C432 1.491 . S
C427 H418 0.950 . S
C427 C426 1.398 . S
C427 C428 1.391 . S
C428 H416 0.950 . S
C428 C424 1.393 . S
C428 C427 1.391 . S
C429 H419 0.950 . S
C429 C430 1.386 . S
C429 C431 1.391 . S
C430 C429 1.386 . S
C430 C434 1.393 . S
C431 H420 0.950 . S
C431 C429 1.391 . S
C431 C432 1.400 . S
C432 C426 1.491 . S
C432 C431 1.400 . S
C432 C433 1.398 . S
C433 H421 0.950 . S
C433 C432 1.398 . S
C433 C434 1.391 . S
C434 H422 0.950 . S
C434 C430 1.393 . S
C434 C433 1.391 . S
H435 C443 0.950 1_565 S
H436 C448 0.950 . S
H437 C445 0.950 1_565 S
H438 C447 0.950 . S
H439 C449 0.950 . S
H440 C451 0.950 . S
H441 C453 0.950 1_565 S
H442 C454 0.950 1_565 S
C443 H435 0.950 1_545 S
C443 C444 1.386 . S
C443 C445 1.391 . S
C444 C443 1.386 . S
C444 C448 1.393 . S
C445 H437 0.950 1_545 S
C445 C443 1.391 . S
C445 C446 1.400 . S
C446 C445 1.400 . S
C446 C447 1.398 . S
C446 C452 1.491 . S
C447 H438 0.950 . S
C447 C446 1.398 . S
C447 C448 1.391 . S
C448 H436 0.950 . S
C448 C444 1.393 . S
C448 C447 1.391 . S
C449 H439 0.950 . S
C449 C450 1.386 . S
C449 C451 1.391 . S
C450 C449 1.386 . S
C450 C454 1.393 . S
C451 H440 0.950 . S
C451 C449 1.391 . S
C451 C452 1.400 . S
C452 C446 1.491 . S
C452 C451 1.400 . S
C452 C453 1.398 . S
C453 H441 0.950 1_545 S
C453 C452 1.398 . S
C453 C454 1.391 . S
C454 H442 0.950 1_545 S
C454 C450 1.393 . S
C454 C453 1.391 . S
H455 C463 0.950 . S
H456 C468 0.950 . S
H457 C465 0.950 . S
H458 C467 0.950 . S
H459 C469 0.950 . S
H460 C471 0.950 . S
H461 C473 0.950 1_556 S
H462 C474 0.950 . S
C463 H455 0.950 . S
C463 C464 1.386 . S
C463 C465 1.391 . S
C464 C463 1.386 . S
C464 C468 1.393 . S
C465 H457 0.950 . S
C465 C463 1.391 . S
C465 C466 1.400 . S
C466 C465 1.400 . S
C466 C467 1.398 . S
C466 C472 1.491 . S
C467 H458 0.950 . S
C467 C466 1.398 . S
C467 C468 1.391 . S
C468 H456 0.950 . S
C468 C464 1.393 . S
C468 C467 1.391 . S
C469 H459 0.950 . S
C469 C470 1.386 . S
C469 C471 1.391 . S
C470 C469 1.386 . S
C470 C474 1.393 . S
C471 H460 0.950 . S
C471 C469 1.391 . S
C471 C472 1.400 1_554 S
C472 C466 1.491 . S
C472 C471 1.400 1_556 S
C472 C473 1.398 1_556 S
C473 H461 0.950 1_554 S
C473 C472 1.398 1_554 S
C473 C474 1.391 . S
C474 H462 0.950 . S
C474 C470 1.393 . S
C474 C473 1.391 . S
H475 C483 0.950 . S
H476 C488 0.950 . S
H477 C485 0.950 . S
H478 C487 0.950 . S
H479 C489 0.950 . S
H480 C491 0.950 . S
H481 C493 0.950 . S
H482 C494 0.949 . S
C483 H475 0.950 . S
C483 C484 1.386 . S
C483 C485 1.391 . S
C484 C483 1.386 . S
C484 C488 1.393 . S
C485 H477 0.950 . S
C485 C483 1.391 . S
C485 C486 1.400 . S
C486 C485 1.400 . S
C486 C487 1.398 . S
C486 C492 1.491 . S
C487 H478 0.950 . S
C487 C486 1.398 . S
C487 C488 1.391 . S
C488 H476 0.950 . S
C488 C484 1.393 . S
C488 C487 1.391 . S
C489 H479 0.950 . S
C489 C490 1.386 . S
C489 C491 1.391 . S
C490 C489 1.386 . S
C490 C494 1.393 . S
C491 H480 0.950 . S
C491 C489 1.391 . S
C491 C492 1.400 . S
C492 C486 1.491 . S
C492 C491 1.400 . S
C492 C493 1.398 . S
C493 H481 0.950 . S
C493 C492 1.398 . S
C493 C494 1.391 . S
C494 H482 0.949 . S
C494 C490 1.393 . S
C494 C493 1.391 . S
C144 C20 1.268 . S
C150 C134 1.292 . S
C164 C41 1.312 . S
C170 C112 1.302 . S
C184 C64 1.334 . S
C190 C123 1.318 . S
C204 C19 1.257 . S
C210 C128 1.324 . S
C230 C106 1.283 . S
C224 C44 1.279 . S
C250 C117 1.236 . S
C244 C67 1.236 . S
C264 C43 1.268 . S
C270 C90 1.278 . S
C284 C66 1.172 . S
C290 C95 1.223 1_655 S
C304 C21 1.280 . S
C310 C73 1.289 1_565 S
C330 C84 1.308 . S
C324 C42 1.246 . S
C350 C101 1.325 . S
C344 C65 1.299 . S
C364 C18 1.314 . S
C370 C79 1.305 . S
C390 C96 1.524 . S
C384 C17 1.524 . S
C404 C39 1.533 . S
C410 C74 1.528 . S
C424 C62 1.529 . S
C430 C85 1.521 . S
C450 C118 1.509 . S
C444 C40 1.505 . S
C470 C129 1.517 . S
C464 C63 1.524 . S
C484 C16 1.528 . S
C490 C107 1.523 . S
