# Generated by pormake.
# Topology zzz, (3,6)-cn, num edge types: 1
# Building blocks:
#     Node 0, Type 0, BuildingBlock: PAMTOO_clean_linker_0, # of connection points: 3
#     Node 1, Type 0, BuildingBlock: PAMTOO_clean_linker_0, # of connection points: 3
#     Node 2, Type 0, BuildingBlock: PAMTOO_clean_linker_0, # of connection points: 3
#     Node 3, Type 0, BuildingBlock: PAMTOO_clean_linker_0, # of connection points: 3
#     Node 4, Type 0, BuildingBlock: PAMTOO_clean_linker_0, # of connection points: 3
#     Node 5, Type 0, BuildingBlock: PAMTOO_clean_linker_0, # of connection points: 3
#     Node 6, Type 0, BuildingBlock: PAMTOO_clean_linker_0, # of connection points: 3
#     Node 7, Type 0, BuildingBlock: PAMTOO_clean_linker_0, # of connection points: 3
#     Node 8, Type 1, BuildingBlock: KUMBOL_clean_sbu_1, # of connection points: 6
#     Node 9, Type 1, BuildingBlock: KUMBOL_clean_sbu_1, # of connection points: 6
#     Node 10, Type 1, BuildingBlock: KUMBOL_clean_sbu_1, # of connection points: 6
#     Node 11, Type 1, BuildingBlock: KUMBOL_clean_sbu_1, # of connection points: 6
#     Edge 12, Type (0, 1), BuildingBlock: ZUJKAS_clean_linker_0, # of connection points: 2
#     Edge 13, Type (0, 1), BuildingBlock: ZUJKAS_clean_linker_0, # of connection points: 2
#     Edge 14, Type (0, 1), BuildingBlock: ZUJKAS_clean_linker_0, # of connection points: 2
#     Edge 15, Type (0, 1), BuildingBlock: ZUJKAS_clean_linker_0, # of connection points: 2
#     Edge 16, Type (0, 1), BuildingBlock: ZUJKAS_clean_linker_0, # of connection points: 2
#     Edge 17, Type (0, 1), BuildingBlock: ZUJKAS_clean_linker_0, # of connection points: 2
#     Edge 18, Type (0, 1), BuildingBlock: ZUJKAS_clean_linker_0, # of connection points: 2
#     Edge 19, Type (0, 1), BuildingBlock: ZUJKAS_clean_linker_0, # of connection points: 2
#     Edge 20, Type (0, 1), BuildingBlock: ZUJKAS_clean_linker_0, # of connection points: 2
#     Edge 21, Type (0, 1), BuildingBlock: ZUJKAS_clean_linker_0, # of connection points: 2
#     Edge 22, Type (0, 1), BuildingBlock: ZUJKAS_clean_linker_0, # of connection points: 2
#     Edge 23, Type (0, 1), BuildingBlock: ZUJKAS_clean_linker_0, # of connection points: 2
#     Edge 24, Type (0, 1), BuildingBlock: ZUJKAS_clean_linker_0, # of connection points: 2
#     Edge 25, Type (0, 1), BuildingBlock: ZUJKAS_clean_linker_0, # of connection points: 2
#     Edge 26, Type (0, 1), BuildingBlock: ZUJKAS_clean_linker_0, # of connection points: 2
#     Edge 27, Type (0, 1), BuildingBlock: ZUJKAS_clean_linker_0, # of connection points: 2
#     Edge 28, Type (0, 1), BuildingBlock: ZUJKAS_clean_linker_0, # of connection points: 2
#     Edge 29, Type (0, 1), BuildingBlock: ZUJKAS_clean_linker_0, # of connection points: 2
#     Edge 30, Type (0, 1), BuildingBlock: ZUJKAS_clean_linker_0, # of connection points: 2
#     Edge 31, Type (0, 1), BuildingBlock: ZUJKAS_clean_linker_0, # of connection points: 2
#     Edge 32, Type (0, 1), BuildingBlock: ZUJKAS_clean_linker_0, # of connection points: 2
#     Edge 33, Type (0, 1), BuildingBlock: ZUJKAS_clean_linker_0, # of connection points: 2
#     Edge 34, Type (0, 1), BuildingBlock: ZUJKAS_clean_linker_0, # of connection points: 2
#     Edge 35, Type (0, 1), BuildingBlock: ZUJKAS_clean_linker_0, # of connection points: 2
# Relax obj value: 0.145
# Max RMSD: 0.092
# Mean RMSD: 0.075
data_MOF--net-zzz--node1-KUMBOL_clean_sbu_1--node2-PAMTOO_clean_linker_0--edge1-ZUJKAS_clean_linker_0
_symmetry_space_group_name_H-M    P1
_symmetry_Int_Tables_number       1
_symmetry_cell_setting            triclinic
loop_
_symmetry_equiv_pos_as_xyz
'x, y, z'
_cell_length_a     65.067022
_cell_length_b     65.067454
_cell_length_c     20.42682
_cell_angle_alpha  89.927767
_cell_angle_beta   90.032793
_cell_angle_gamma 90.356367
loop_
_atom_site_label
_atom_site_type_symbol
_atom_site_fract_x
_atom_site_fract_y
_atom_site_fract_z
_atom_type_partial_charge
H0 H 0.81368 0.55442 0.17807 0.0
H1 H 0.75378 0.55328 0.08954 0.0
H2 H 0.76167 0.53112 0.2866 0.0
H3 H 0.72203 0.50953 0.19936 0.0
C4 C 0.72518 0.52098 0.16017 0.0
O5 O 0.7344 0.53811 0.189 0.0
H6 H 0.73587 0.51357 0.12493 0.0
C7 C 0.79732 0.55128 0.18163 0.0
C8 C 0.78941 0.5428 0.23967 0.0
C9 C 0.78468 0.55471 0.12706 0.0
C10 C 0.76362 0.55039 0.13126 0.0
C11 C 0.75511 0.54181 0.18789 0.0
C12 C 0.76811 0.53776 0.24247 0.0
H13 H 0.98524 0.81848 0.1783 0.0
H14 H 0.98746 0.75912 0.087 0.0
H15 H 1.00976 0.76673 0.28412 0.0
H16 H 0.03177 0.7282 0.19511 0.0
C17 C 0.02019 0.73114 0.15624 0.0
O18 O 1.00298 0.73974 0.18575 0.0
H19 H 0.02729 0.74215 0.12098 0.0
C20 C 0.98864 0.8022 0.18125 0.0
C21 C 0.9974 0.79432 0.23885 0.0
C22 C 0.98537 0.78976 0.12615 0.0
C23 C 0.99015 0.76884 0.1292 0.0
C24 C 0.99896 0.76033 0.1854 0.0
C25 C 1.00293 0.77319 0.24042 0.0
H26 H 0.73139 0.97898 0.23323 0.0
H27 H 0.78986 0.98057 0.13603 0.0
H28 H 0.77926 0.01899 0.3045 0.0
H29 H 0.81465 0.0371 0.19903 0.0
C30 C 0.81262 0.02263 0.17082 0.0
O31 O 0.80699 1.00709 0.21419 0.0
H32 H 0.80012 0.02556 0.13476 0.0
C33 C 0.74717 0.98443 0.23117 0.0
C34 C 0.75358 0.99945 0.27579 0.0
C35 C 0.75996 0.97778 0.18035 0.0
C36 C 0.78007 0.98537 0.176 0.0
C37 C 0.78732 1.00001 0.22082 0.0
C38 C 0.77396 1.00724 0.27092 0.0
H39 H 0.54543 0.72329 0.16549 0.0
H40 H 0.54248 0.78244 0.07276 0.0
H41 H 0.52829 0.7766 0.27775 0.0
H42 H 0.50535 0.81677 0.19521 0.0
C43 C 0.51507 0.81272 0.15249 0.0
O44 O 0.53263 0.80297 0.17585 0.0
H45 H 0.50578 0.80206 0.12162 0.0
C46 C 0.54263 0.73968 0.16867 0.0
C47 C 0.53692 0.74817 0.22909 0.0
C48 C 0.54431 0.75177 0.11195 0.0
C49 C 0.54118 0.77299 0.11616 0.0
C50 C 0.53526 0.78214 0.17502 0.0
C51 C 0.5328 0.76963 0.23189 0.0
H52 H 0.22275 0.48897 0.09661 0.0
H53 H 0.28191 0.49382 0.18918 0.0
H54 H 0.27235 0.52058 0.99879 0.0
H55 H 0.32448 0.51008 0.04147 0.0
C56 C 0.31707 0.50402 0.08654 0.0
O57 O 0.29924 0.51519 0.09792 0.0
H58 H 0.31318 0.48759 0.07698 0.0
C59 C 0.2388 0.49357 0.09459 0.0
C60 C 0.24579 0.50486 0.04036 0.0
C61 C 0.2516 0.4895 0.14829 0.0
C62 C 0.27204 0.49638 0.14722 0.0
C63 C 0.27982 0.50724 0.09348 0.0
C64 C 0.26667 0.51145 0.03935 0.0
H65 H 0.05005 0.2309 0.10362 0.0
H66 H 0.04563 0.29219 0.18282 0.0
H67 H 0.02281 0.27921 0.99015 0.0
H68 H 0.0323 0.3332 0.03365 0.0
C69 C 0.03763 0.32517 0.07848 0.0
O70 O 0.02581 0.30743 0.0866 0.0
H71 H 0.05403 0.32111 0.07001 0.0
C72 C 0.04628 0.247 0.09843 0.0
C73 C 0.03721 0.25338 0.03942 0.0
C74 C 0.04931 0.26061 0.15131 0.0
C75 C 0.04325 0.28116 0.1439 0.0
C76 C 0.03354 0.28797 0.087 0.0
C77 C 0.0305 0.27406 0.03418 0.0
H78 H 0.31132 0.04398 0.09717 0.0
H79 H 0.25315 0.03619 0.19316 0.0
H80 H 0.25919 0.02096 0.98854 0.0
H81 H 0.21076 0.03637 0.03764 0.0
C82 C 0.21731 0.03705 0.08785 0.0
O83 O 0.23322 0.02289 0.09152 0.0
H84 H 0.22324 0.05298 0.09534 0.0
C85 C 0.29518 0.03972 0.09452 0.0
C86 C 0.28703 0.03239 0.03546 0.0
C87 C 0.28308 0.04108 0.15094 0.0
C88 C 0.2624 0.03531 0.14916 0.0
C89 C 0.25349 0.0284 0.09077 0.0
C90 C 0.26589 0.02668 0.03353 0.0
H91 H 0.48486 0.31519 0.11056 0.0
H92 H 0.49647 0.25713 0.20339 0.0
H93 H 0.51287 0.26607 1.00123 0.0
H94 H 0.50524 0.21386 0.05019 0.0
C95 C 0.50046 0.22179 0.09575 0.0
O96 O 0.51245 0.23946 0.10284 0.0
H97 H 0.48401 0.22596 0.08907 0.0
C98 C 0.48995 0.29939 0.10708 0.0
C99 C 0.49848 0.29234 0.04806 0.0
C100 C 0.48937 0.28693 0.1632 0.0
C101 C 0.4967 0.26678 0.16008 0.0
C102 C 0.50478 0.25894 0.10201 0.0
C103 C 0.50601 0.27185 0.04578 0.0
C104 C 0.06344 0.04782 0.79457 0.0
C105 C 0.04389 0.05594 0.89211 0.0
C106 C 0.04624 0.04462 0.8337 0.0
C107 C 0.05857 0.07092 0.90913 0.0
C108 C 0.07835 0.06268 0.81194 0.0
C109 C 0.07572 0.07432 0.86909 0.0
N110 N 0.06537 0.03668 0.73867 0.0
C111 C 0.08211 0.03911 0.69914 0.0
C112 C 0.09538 0.06551 0.77099 0.0
C113 C 0.09731 0.0536 0.71451 0.0
Gd114 Gd 0.99908 0.03018 0.58453 0.0
Gd115 Gd 0.03907 1.01286 0.71662 0.0
N116 N 0.03225 0.02998 0.81601 0.0
C117 C 0.02716 0.05146 0.93275 0.0
C118 C 0.01715 0.02425 0.85885 0.0
C119 C 0.01397 0.03526 0.91665 0.0
H120 H 1.00794 1.01076 0.85031 0.0
H121 H 1.00164 0.03091 0.94951 0.0
H122 H 0.02887 1.01306 0.45992 0.0
H123 H 0.08383 0.02978 0.65594 0.0
H124 H 0.02669 0.98792 0.37096 0.0
H125 H 0.02481 0.05981 0.97796 0.0
H126 H 0.05695 0.07978 0.9537 0.0
H127 H 0.95211 0.03141 0.65223 0.0
H128 H 0.10714 0.07679 0.78262 0.0
H129 H 0.11051 0.05556 0.68284 0.0
H130 H 0.95797 0.9613 0.38517 0.0
H131 H 0.08694 0.08589 0.88302 0.0
H132 H 0.91404 0.98755 0.55315 0.0
H133 H 0.91881 0.01348 0.64042 0.0
N134 N 0.96636 0.01515 0.57451 0.0
C135 C 0.96392 1.00135 0.52516 0.0
C136 C 0.95038 0.01976 0.61513 0.0
C137 C 0.92876 0.99525 0.5585 0.0
C138 C 0.93141 1.00982 0.60797 0.0
C139 C 0.94507 0.99091 0.51613 0.0
H140 H 0.92874 0.96825 0.45797 0.0
N141 N 0.99862 1.00735 0.49507 0.0
C142 C 0.98044 0.99745 0.48394 0.0
C143 C 0.99539 0.9794 0.39241 0.0
C144 C 0.97845 0.983 0.43284 0.0
C145 C 0.0149 1.00446 0.45406 0.0
C146 C 0.01362 0.99031 0.40274 0.0
O147 O 0.03773 0.04705 0.68831 0.0
O148 O 1.00357 0.05143 0.67144 0.0
O149 O 1.00636 0.05534 0.51864 0.0
O150 O 0.97469 0.04889 0.54393 0.0
O151 O 1.00501 1.0048 0.73512 0.0
O152 O 0.98835 0.03214 0.68929 0.0
O153 O 1.00072 0.99558 0.60344 0.0
O154 O 0.03418 0.99029 0.63311 0.0
O155 O 0.03982 0.98757 0.78591 0.0
O156 O 0.06792 0.99796 0.74055 0.0
O157 O 0.03302 0.0348 0.55646 0.0
O158 O 0.05196 1.01102 0.61443 0.0
C159 C 0.02137 0.0588 0.69076 0.0
C160 C 0.98894 0.0171 0.73215 0.0
C161 C 0.9855 0.08364 0.54541 0.0
C162 C 1.00045 0.11783 0.56107 0.0
C163 C 0.96832 0.1086 0.61455 0.0
C164 C 0.96901 0.08912 0.58626 0.0
C165 C 0.98393 0.12288 0.60227 0.0
C166 C 1.0011 0.09813 0.53301 0.0
C167 C 0.98763 0.06239 0.52088 0.0
C168 C 0.95973 0.97252 0.42397 0.0
C169 C 0.94309 0.97646 0.46547 0.0
H170 H 0.99449 0.96838 0.35276 0.0
C171 C 0.01685 0.98357 0.6078 0.0
C172 C 0.04991 0.02391 0.56524 0.0
C173 C 0.06232 0.96213 0.74531 0.0
C174 C 0.04886 0.92793 0.71892 0.0
C175 C 0.08216 0.93887 0.67731 0.0
C176 C 0.08008 0.9578 0.70877 0.0
C177 C 0.06662 0.92404 0.68194 0.0
C178 C 0.04697 0.94695 0.75087 0.0
C179 C 0.05877 0.98304 0.77151 0.0
H180 H 0.95563 0.11266 0.64616 0.0
H181 H 0.95681 0.07827 0.59744 0.0
H182 H 0.98276 0.13803 0.62378 0.0
H183 H 0.01399 0.0939 0.50236 0.0
H184 H 0.09577 0.93577 0.64865 0.0
H185 H 0.09217 0.96919 0.70327 0.0
H186 H 0.06847 0.90959 0.65646 0.0
H187 H 0.03346 0.94993 0.78029 0.0
C188 C 0.50364 0.95572 0.60093 0.0
C189 C 0.4683 0.94869 0.63099 0.0
C190 C 0.48381 0.96257 0.61099 0.0
C191 C 0.47339 0.92816 0.64459 0.0
C192 C 0.50856 0.93485 0.61016 0.0
C193 C 0.49348 0.92123 0.63402 0.0
N194 N 0.51788 0.9693 0.57852 0.0
C195 C 0.53677 0.96278 0.55841 0.0
C196 C 0.52829 0.92821 0.59324 0.0
C197 C 0.54234 0.94218 0.56616 0.0
Gd198 Gd 0.52772 0.04044 0.70854 0.0
Gd199 Gd 0.50763 1.00365 0.5692 0.0
N200 N 0.47934 0.98236 0.59569 0.0
C201 C 0.448 0.95562 0.63378 0.0
C202 C 0.45934 0.98854 0.59198 0.0
C203 C 0.44345 0.97552 0.61278 0.0
H204 H 0.45555 1.00349 0.57267 0.0
H205 H 0.42769 0.98074 0.6117 0.0
H206 H 0.57251 0.05835 0.65464 0.0
H207 H 0.54764 0.97362 0.53781 0.0
H208 H 0.58689 0.09059 0.60831 0.0
H209 H 0.43564 0.94547 0.64902 0.0
H210 H 0.46174 0.91733 0.66086 0.0
H211 H 0.48307 0.05452 0.78354 0.0
H212 H 0.53266 0.91229 0.59942 0.0
H213 H 0.55747 0.93712 0.5516 0.0
H214 H 0.53007 0.13744 0.6123 0.0
H215 H 0.49704 0.9052 0.64251 0.0
H216 H 0.46839 0.11517 0.71973 0.0
H217 H 0.45914 0.08353 0.78039 0.0
N218 N 0.50452 0.06816 0.71737 0.0
C219 C 0.51067 0.08607 0.68873 0.0
C220 C 0.48682 0.0676 0.75335 0.0
C221 C 0.47871 0.10217 0.71913 0.0
C222 C 0.4734 0.08431 0.75321 0.0
C223 C 0.49782 0.10346 0.68804 0.0
H224 H 0.495 0.13519 0.65693 0.0
N225 N 0.54257 0.07059 0.66676 0.0
C226 C 0.53044 0.08746 0.66391 0.0
C227 C 0.55835 0.10706 0.61638 0.0
C228 C 0.53787 0.10607 0.63738 0.0
C229 C 0.5628 0.07167 0.64939 0.0
C230 C 0.57095 0.08987 0.62333 0.0
O231 O 0.52572 0.9899 0.65509 0.0
O232 O 0.51548 1.00938 0.74145 0.0
O233 O 0.55392 0.03368 0.76989 0.0
O234 O 0.53093 0.05583 0.80314 0.0
O235 O 0.48331 0.02302 0.62119 0.0
O236 O 0.49616 0.0258 0.72531 0.0
O237 O 0.52902 0.04974 0.60076 0.0
O238 O 0.49865 0.03724 0.56487 0.0
O239 O 0.49209 0.99219 0.48242 0.0
O240 O 0.5203 1.0096 0.47274 0.0
O241 O 0.55363 0.02249 0.65999 0.0
O242 O 0.54118 1.01314 0.55771 0.0
C243 C 0.52101 0.99153 0.71751 0.0
C244 C 0.4804 0.02433 0.68491 0.0
C245 C 0.55976 0.04903 0.87632 0.0
C246 C 0.5875 0.03797 0.94813 0.0
C247 C 0.56578 0.0666 0.97932 0.0
C248 C 0.55455 0.06439 0.92142 0.0
C249 C 0.58218 0.05349 0.99275 0.0
C250 C 0.57624 0.03593 0.88994 0.0
C251 C 0.54792 0.04617 0.81567 0.0
C252 C 0.52476 0.12308 0.63345 0.0
C253 C 0.50476 0.12177 0.65865 0.0
H254 H 0.56465 0.1211 0.59575 0.0
C255 C 0.51293 0.05152 0.56253 0.0
C256 C 0.55653 0.01698 0.59838 0.0
C257 C 0.49442 0.01647 0.39679 0.0
C258 C 0.46639 0.0397 0.36979 0.0
C259 C 0.49627 0.03746 0.29875 0.0
C260 C 0.5049 0.02275 0.34019 0.0
C261 C 0.4771 0.04586 0.31325 0.0
C262 C 0.47528 0.02515 0.41168 0.0
C263 C 0.50424 1.00222 0.44289 0.0
H264 H 0.56171 0.07846 0.01401 0.0
H265 H 0.54184 0.07465 0.91199 0.0
H266 H 0.59054 0.05533 0.03826 0.0
H267 H 0.58046 0.02418 0.85493 0.0
H268 H 0.50441 0.04228 0.25511 0.0
H269 H 0.51984 0.01648 0.32856 0.0
H270 H 0.47046 0.05683 0.27952 0.0
H271 H 0.46736 0.02078 0.45629 0.0
C272 C 0.4705 0.49616 0.78069 0.0
C273 C 0.48912 0.48597 0.87828 0.0
C274 C 0.48771 0.49794 0.82079 0.0
C275 C 0.4734 0.47189 0.89371 0.0
C276 C 0.45463 0.48213 0.79629 0.0
C277 C 0.45623 0.46995 0.85279 0.0
N278 N 0.46964 0.50767 0.72513 0.0
C279 C 0.45304 0.50647 0.68439 0.0
C280 C 0.43772 0.48058 0.75412 0.0
C281 C 0.43689 0.49287 0.69811 0.0
Gd282 Gd 0.53721 0.51033 0.57599 0.0
Gd283 Gd 0.49754 0.52986 0.70582 0.0
N284 N 0.50284 0.51158 0.80429 0.0
C285 C 0.50608 0.4888 0.91939 0.0
C286 C 0.51839 0.51563 0.84737 0.0
C287 C 0.52058 0.50396 0.90445 0.0
H288 H 0.52877 0.52828 0.83972 0.0
H289 H 0.53322 0.50699 0.9376 0.0
H290 H 0.50682 0.5164 0.44135 0.0
H291 H 0.45211 0.51619 0.64172 0.0
H292 H 0.50582 0.53804 0.34338 0.0
H293 H 0.50774 0.47989 0.96392 0.0
H294 H 0.47428 0.46256 0.93759 0.0
H295 H 0.58408 0.51724 0.64102 0.0
H296 H 0.42522 0.46997 0.76441 0.0
H297 H 0.42379 0.49192 0.66554 0.0
H298 H 0.56996 0.57458 0.34719 0.0
H299 H 0.44424 0.459 0.86539 0.0
H300 H 0.61685 0.56052 0.52216 0.0
H301 H 0.61517 0.53805 0.61983 0.0
N302 N 0.56799 0.5284 0.55788 0.0
C303 C 0.56878 0.54019 0.50294 0.0
C304 C 0.58444 0.52733 0.59918 0.0
C305 C 0.6031 0.5515 0.53149 0.0
C306 C 0.60219 0.5389 0.5868 0.0
C307 C 0.58633 0.55222 0.4886 0.0
H308 H 0.59984 0.57411 0.42087 0.0
N309 N 0.53497 0.52894 0.47708 0.0
C310 C 0.55177 0.54058 0.46164 0.0
C311 C 0.53514 0.55229 0.36267 0.0
C312 C 0.55214 0.55282 0.40455 0.0
C313 C 0.51905 0.52728 0.43381 0.0
C314 C 0.51868 0.5392 0.37685 0.0
O315 O 0.49815 0.49549 0.68093 0.0
O316 O 0.53226 0.49068 0.66627 0.0
O317 O 0.53256 0.48266 0.51827 0.0
O318 O 0.56332 0.4923 0.54414 0.0
O319 O 0.53167 0.53729 0.72649 0.0
O320 O 0.54859 0.51003 0.6805 0.0
O321 O 0.53666 0.5452 0.59215 0.0
O322 O 0.5033 0.55161 0.62073 0.0
O323 O 0.49774 0.55521 0.77481 0.0
O324 O 0.46929 0.54584 0.72923 0.0
O325 O 0.50295 0.50522 0.55184 0.0
O326 O 0.48583 0.53176 0.60197 0.0
C327 C 0.51431 0.48355 0.68468 0.0
C328 C 0.54791 0.52518 0.72295 0.0
C329 C 0.55522 0.45708 0.55738 0.0
C330 C 0.54214 0.42322 0.58982 0.0
C331 C 0.57456 0.43585 0.63354 0.0
C332 C 0.57252 0.45399 0.59755 0.0
C333 C 0.55945 0.42057 0.63002 0.0
C334 C 0.54026 0.44147 0.5533 0.0
C335 C 0.55171 0.47715 0.5249 0.0
C336 C 0.5695 0.56499 0.39059 0.0
C337 C 0.58654 0.56468 0.43245 0.0
H338 H 0.53483 0.56146 0.31836 0.0
C339 C 0.52087 0.55772 0.59548 0.0
C340 C 0.48689 0.51753 0.55648 0.0
C341 C 0.47519 0.58143 0.73839 0.0
C342 C 0.48807 0.61591 0.71228 0.0
C343 C 0.45243 0.60678 0.69035 0.0
C344 C 0.45567 0.58712 0.71556 0.0
C345 C 0.46846 0.62114 0.68882 0.0
C346 C 0.49135 0.59586 0.73582 0.0
C347 C 0.47882 0.56019 0.7615 0.0
H348 H 0.58781 0.43372 0.66481 0.0
H349 H 0.58431 0.46571 0.60227 0.0
H350 H 0.56127 0.40675 0.65898 0.0
H351 H 0.52714 0.44356 0.5213 0.0
H352 H 0.43734 0.61101 0.67276 0.0
H353 H 0.44296 0.57629 0.71661 0.0
H354 H 0.46527 0.6365 0.67134 0.0
H355 H 0.50656 0.59153 0.75224 0.0
C356 C 0.0376 0.4702 0.76373 0.0
C357 C 0.05066 0.48371 0.86636 0.0
C358 C 0.03778 0.48533 0.81117 0.0
C359 C 0.06404 0.46693 0.87173 0.0
C360 C 0.05018 0.45276 0.77068 0.0
C361 C 0.06379 0.45147 0.82397 0.0
N362 N 0.02409 0.47187 0.71327 0.0
C363 C 0.02074 0.45552 0.67262 0.0
C364 C 0.04812 0.43679 0.72528 0.0
C365 C 0.03302 0.438 0.67688 0.0
Gd366 Gd 0.02909 0.54047 0.57213 0.0
Gd367 Gd 1.00593 0.50315 0.70651 0.0
N368 N 0.02485 0.50145 0.80408 0.0
C369 C 0.0494 0.49881 0.91501 0.0
C370 C 0.02273 0.51565 0.85272 0.0
C371 C 0.03514 0.51468 0.90859 0.0
H372 H 0.01182 0.52799 0.84745 0.0
H373 H 0.03378 0.52621 0.94645 0.0
H374 H 0.04648 0.51123 0.44696 0.0
H375 H 1.00841 0.45572 0.6373 0.0
H376 H 0.03443 0.49995 0.33826 0.0
H377 H 0.05904 0.49812 0.9582 0.0
H378 H 0.07425 0.46551 0.91338 0.0
H379 H 1.00573 0.5847 0.60328 0.0
H380 H 0.05748 0.42312 0.72888 0.0
H381 H 0.03063 0.42533 0.6434 0.0
H382 H 0.97569 0.54233 0.29624 0.0
H383 H 0.07376 0.43831 0.82968 0.0
H384 H 0.96235 0.59644 0.44965 0.0
H385 H 0.97865 0.6066 0.55444 0.0
N386 N 1.00441 0.56256 0.52702 0.0
C387 C 0.99663 0.55746 0.4676 0.0
C388 C 0.99879 0.58041 0.55712 0.0
C389 C 0.97429 0.58694 0.47058 0.0
C390 C 0.98347 0.59274 0.52973 0.0
C391 C 0.98103 0.56925 0.43828 0.0
H392 H 0.96085 0.57189 0.35426 0.0
N393 N 0.02111 0.53106 0.46332 0.0
C394 C 1.00501 0.5409 0.43523 0.0
C395 C 1.00824 0.52006 0.33807 0.0
C396 C 0.99797 0.53556 0.37216 0.0
C397 C 0.03235 0.51739 0.42768 0.0
C398 C 0.02579 0.51126 0.36541 0.0
O399 O 0.037 0.51862 0.7251 0.0
O400 O 0.0508 0.51838 0.62313 0.0
O401 O 0.0529 0.55246 0.50716 0.0
O402 O 0.04668 0.56748 0.5989 0.0
O403 O 1.00022 0.53725 0.72699 0.0
O404 O 0.02649 0.5545 0.67341 0.0
O405 O 0.9944 0.54051 0.59386 0.0
O406 O 0.98874 0.50665 0.61116 0.0
O407 O 0.97764 0.51109 0.75598 0.0
O408 O 0.98648 0.47924 0.74855 0.0
O409 O 0.03684 0.50635 0.56013 0.0
O410 O 1.00806 0.49074 0.60207 0.0
C411 C 0.05319 0.51789 0.68691 0.0
C412 C 0.01227 0.55354 0.7193 0.0
C413 C 0.08128 0.56478 0.5701 0.0
C414 C 0.11443 0.54726 0.57134 0.0
C415 C 0.10839 0.57636 0.64332 0.0
C416 C 0.08859 0.57842 0.61813 0.0
C417 C 0.12119 0.56082 0.62058 0.0
C418 C 0.09437 0.54936 0.54641 0.0
C419 C 0.05944 0.56564 0.55047 0.0
C420 C 0.98152 0.5464 0.34423 0.0
C421 C 0.97309 0.56326 0.3772 0.0
H422 H 1.00331 0.51546 0.28954 0.0
C423 C 0.98216 0.52441 0.5901 0.0
C424 C 0.02373 0.49081 0.56118 0.0
C425 C 0.95178 0.4877 0.72521 0.0
C426 C 0.91794 0.49988 0.69131 0.0
C427 C 0.93133 0.46802 0.64731 0.0
C428 C 0.94931 0.47053 0.68404 0.0
C429 C 0.9157 0.4826 0.65082 0.0
C430 C 0.93593 0.50217 0.72878 0.0
C431 C 0.97151 0.49203 0.75875 0.0
H432 H 0.11376 0.58672 0.68115 0.0
H433 H 0.07878 0.59036 0.63743 0.0
H434 H 0.13634 0.55936 0.64196 0.0
H435 H 0.08893 0.53903 0.50857 0.0
H436 H 0.9296 0.45483 0.61553 0.0
H437 H 0.96136 0.45923 0.67918 0.0
H438 H 0.90193 0.48044 0.62173 0.0
H439 H 0.93765 0.51531 0.761 0.0
H440 H 0.17854 0.0523 0.08485 0.0
H441 H 0.15103 0.04964 0.16604 0.0
H442 H 0.18946 1.01113 0.286 0.0
H443 H 0.21734 0.01441 0.20557 0.0
H444 H 0.12861 0.01935 0.21177 0.0
H445 H 0.17222 0.05142 0.42126 0.0
H446 H 0.18207 0.05207 0.3388 0.0
H447 H 0.184 0.02901 0.38723 0.0
C448 C 0.1811 0.04314 0.12839 0.0
C449 C 0.20012 0.03333 0.13782 0.0
C450 C 0.16531 0.04164 0.17506 0.0
C451 C 0.168 0.03042 0.23331 0.0
C452 C 0.18694 0.02033 0.2426 0.0
H453 H 0.0861 1.00223 0.56314 0.0
H454 H 0.11402 1.00398 0.48337 0.0
C455 C 0.20288 0.02197 0.19594 0.0
C456 C 0.15088 0.0293 0.28323 0.0
H457 H 0.13923 0.03751 0.445 0.0
C458 C 0.13101 0.02343 0.26266 0.0
C459 C 0.15368 0.03464 0.35009 0.0
C460 C 0.17408 0.04234 0.37564 0.0
C461 C 0.11421 0.02248 0.30649 0.0
C462 C 0.11707 0.02772 0.37324 0.0
C463 C 0.13691 0.03347 0.39403 0.0
C464 C 0.09979 0.02702 0.42232 0.0
C465 C 0.09356 0.01545 0.28114 0.0
C466 C 0.08234 0.03958 0.41577 0.0
C467 C 0.06626 0.03876 0.46196 0.0
C468 C 0.06713 0.0253 0.51606 0.0
C469 C 0.08471 1.01286 0.52254 0.0
C470 C 0.10081 0.01381 0.47671 0.0
H471 H 0.09489 1.0074 0.2334 0.0
H472 H 0.0859 1.00499 0.3167 0.0
H473 H 0.08356 0.02903 0.27403 0.0
H474 H 0.0812 0.05019 0.37506 0.0
H475 H 0.0531 0.04865 0.4551 0.0
H476 H 0.47009 0.19939 0.15661 0.0
H477 H 0.47321 0.17169 0.23715 0.0
H478 H 0.53887 0.18056 0.24124 0.0
H479 H 0.53574 0.20844 0.16023 0.0
H480 H 0.49438 0.13503 0.22333 0.0
H481 H 0.5251 0.17786 0.43717 0.0
H482 H 0.51337 0.19061 0.36817 0.0
H483 H 0.53924 0.18131 0.36237 0.0
C484 C 0.48518 0.19581 0.17572 0.0
C485 C 0.50261 0.20664 0.15298 0.0
C486 C 0.48697 0.17979 0.22164 0.0
C487 C 0.50624 0.174 0.24657 0.0
C488 C 0.52373 0.18488 0.22433 0.0
H489 H 0.54457 0.07516 0.51469 0.0
H490 H 0.54308 0.10441 0.43945 0.0
C491 C 0.52194 0.2009 0.17793 0.0
C492 C 0.50793 0.15594 0.29278 0.0
H493 H 0.52316 0.14164 0.44715 0.0
C494 C 0.50064 0.13656 0.27231 0.0
C495 C 0.51621 0.15763 0.35684 0.0
C496 C 0.52379 0.17798 0.38294 0.0
C497 C 0.50158 0.11904 0.3132 0.0
C498 C 0.50947 0.12079 0.37777 0.0
C499 C 0.51696 0.14012 0.39808 0.0
C500 C 0.51021 0.10279 0.42454 0.0
C501 C 0.49451 0.09868 0.28591 0.0
C502 C 0.49226 0.09192 0.44253 0.0
C503 C 0.49307 0.0751 0.48615 0.0
C504 C 0.51185 0.06884 0.51383 0.0
C505 C 0.52977 0.07969 0.49555 0.0
C506 C 0.52895 0.09647 0.45208 0.0
H507 H 0.49563 0.09837 0.23164 0.0
H508 H 0.50361 0.08575 0.306 0.0
H509 H 0.47816 0.09626 0.29904 0.0
H510 H 0.47751 0.09668 0.4236 0.0
H511 H 0.47891 0.06726 0.49914 0.0
H512 H 0.34382 0.47444 0.12853 0.0
H513 H 0.37159 0.47694 0.20917 0.0
H514 H 0.35493 0.53968 0.24883 0.0
H515 H 0.32702 0.53719 0.16777 0.0
H516 H 0.40548 0.50334 0.20898 0.0
H517 H 0.35952 0.51557 0.43411 0.0
H518 H 0.34826 0.50618 0.35897 0.0
H519 H 0.35413 0.53304 0.36821 0.0
C520 C 0.34576 0.48867 0.15538 0.0
C521 C 0.33267 0.5054 0.1428 0.0
C522 C 0.36181 0.49013 0.20133 0.0
C523 C 0.36537 0.50839 0.23641 0.0
C524 C 0.35236 0.52522 0.22392 0.0
H525 H 0.45618 0.54535 0.53278 0.0
H526 H 0.42766 0.54299 0.45525 0.0
C527 C 0.33631 0.52379 0.17747 0.0
C528 C 0.38318 0.50991 0.28366 0.0
H529 H 0.39562 0.51841 0.44463 0.0
C530 C 0.40327 0.50658 0.26055 0.0
C531 C 0.38056 0.51423 0.35116 0.0
C532 C 0.35947 0.5173 0.37999 0.0
C533 C 0.42063 0.50779 0.30223 0.0
C534 C 0.41801 0.51185 0.37004 0.0
C535 C 0.39788 0.51523 0.39305 0.0
C536 C 0.43583 0.51307 0.41757 0.0
C537 C 0.44167 0.50534 0.27237 0.0
C538 C 0.45018 0.497 0.4238 0.0
C539 C 0.46677 0.4984 0.46815 0.0
C540 C 0.46938 0.51579 0.50842 0.0
C541 C 0.45482 0.53168 0.50285 0.0
C542 C 0.43837 0.53034 0.45829 0.0
H543 H 0.44153 0.50873 0.21905 0.0
H544 H 0.45311 0.51561 0.29624 0.0
H545 H 0.44674 0.48921 0.27868 0.0
H546 H 0.44846 0.48318 0.39482 0.0
H547 H 0.47744 0.48573 0.47134 0.0
H548 H 0.06835 0.34795 0.13633 0.0
H549 H 0.06578 0.3749 0.21949 0.0
H550 H 1.00039 0.3647 0.23113 0.0
H551 H 1.00298 0.33757 0.14773 0.0
H552 H 0.04434 0.41128 0.21436 0.0
H553 H 0.01622 0.36501 0.42447 0.0
H554 H 0.02707 0.35343 0.35214 0.0
H555 H 1.00103 0.36249 0.35146 0.0
C556 C 0.05346 0.35111 0.15757 0.0
C557 C 0.03596 0.34009 0.13637 0.0
C558 C 0.05198 0.3667 0.20499 0.0
C559 C 0.03294 0.37185 0.23297 0.0
C560 C 0.01538 0.36085 0.21194 0.0
H561 H 0.99345 0.46466 0.51782 0.0
H562 H 0.99597 0.43654 0.43887 0.0
C563 C 0.01686 0.34526 0.16412 0.0
C564 C 0.0315 0.38924 0.2817 0.0
H565 H 0.01685 0.40115 0.43843 0.0
C566 C 0.0384 0.40899 0.26344 0.0
C567 C 0.02369 0.38653 0.346 0.0
C568 C 0.01673 0.36571 0.37014 0.0
C569 C 0.03738 0.42596 0.30661 0.0
C570 C 0.02973 0.42322 0.37116 0.0
C571 C 0.02279 0.40346 0.38936 0.0
C572 C 0.02845 0.44063 0.42 0.0
C573 C 0.04394 0.44683 0.28169 0.0
C574 C 0.04588 0.45245 0.43732 0.0
C575 C 0.04445 0.46868 0.48279 0.0
C576 C 0.02559 0.47352 0.51271 0.0
C577 C 1.00827 0.46147 0.49607 0.0
C578 C 1.00969 0.4453 0.45065 0.0
H579 H 0.0436 0.44755 0.22735 0.0
H580 H 0.03391 0.45911 0.30127 0.0
H581 H 0.05995 0.45001 0.29768 0.0
H582 H 0.06071 0.44899 0.41624 0.0
H583 H 0.0582 0.47733 0.495 0.0
H584 H 0.85164 0.0389 0.18685 0.0
H585 H 0.88172 0.03499 0.11568 0.0
H586 H 0.84819 0.99134 0.99759 0.0
H587 H 0.8179 0.99567 0.06786 0.0
H588 H 0.9067 1.00396 0.0783 0.0
H589 H 0.86498 0.03255 0.86016 0.0
H590 H 0.85434 0.03397 0.94149 0.0
H591 H 0.85333 1.01023 0.89645 0.0
C592 C 0.85076 0.02827 0.14617 0.0
C593 C 0.83226 0.01767 0.13299 0.0
C594 C 0.86801 0.02605 0.10527 0.0
C595 C 0.86728 1.01322 0.04985 0.0
C596 C 0.84915 1.00178 0.03872 0.0
H597 H 0.97738 0.98384 0.80927 0.0
H598 H 0.94845 0.98164 0.88654 0.0
C599 C 0.83186 1.00405 0.07951 0.0
C600 C 0.88519 1.01242 1.003 0.0
H601 H 0.89875 0.02058 0.84277 0.0
C602 C 0.9049 1.00753 0.02676 0.0
C603 C 0.88316 0.01738 0.93561 0.0
C604 C 0.86288 0.02403 0.90687 0.0
C605 C 0.92238 1.00739 0.98549 0.0
C606 C 0.92023 1.01194 0.91786 0.0
C607 C 0.90054 0.01685 0.89421 0.0
C608 C 0.93824 1.01292 0.87142 0.0
C609 C 0.94312 1.00304 0.01528 0.0
C610 C 0.94216 0.03101 0.83574 0.0
C611 C 0.95859 0.03223 0.79139 0.0
C612 C 0.97165 0.01535 0.78068 0.0
C613 C 0.96778 0.99719 0.81635 0.0
C614 C 0.95124 0.99596 0.86095 0.0
H615 H 0.943 1.00506 0.06929 0.0
H616 H 0.94739 0.9869 1.00473 0.0
H617 H 0.95513 1.01327 0.99418 0.0
H618 H 0.93253 0.04436 0.84249 0.0
H619 H 0.9611 0.04658 0.76555 0.0
H620 H 0.50218 0.85259 0.17224 0.0
H621 H 0.50506 0.88223 0.0987 0.0
H622 H 0.54098 0.84615 0.96458 0.0
H623 H 0.53768 0.81633 0.03749 0.0
H624 H 0.53603 0.90515 0.05027 0.0
H625 H 0.49738 0.86649 0.84198 0.0
H626 H 0.498 0.85541 0.92292 0.0
H627 H 0.51993 0.85336 0.86974 0.0
C628 C 0.51096 0.851 0.12752 0.0
C629 C 0.51985 0.83196 0.11141 0.0
C630 C 0.51253 0.86803 0.08512 0.0
C631 C 0.52287 0.86657 0.02477 0.0
C632 C 0.53243 0.84776 0.0097 0.0
H633 H 0.5419 0.95507 0.70101 0.0
H634 H 0.54257 0.92502 0.77376 0.0
C635 C 0.53081 0.83069 0.0521 0.0
C636 C 0.52338 0.88463 0.97798 0.0
H637 H 0.51132 0.89957 0.82125 0.0
C638 C 0.53057 0.90385 1.00028 0.0
C639 C 0.51628 0.88326 0.91228 0.0
C640 C 0.50727 0.86359 0.88534 0.0
C641 C 0.5311 0.92139 0.95922 0.0
C642 C 0.5239 0.92003 0.89373 0.0
C643 C 0.51689 0.90079 0.87116 0.0
C644 C 0.52323 0.93838 0.84839 0.0
C645 C 0.53978 0.94119 0.98621 0.0
C646 C 0.51188 0.95601 0.86468 0.0
C647 C 0.51125 0.97312 0.82246 0.0
C648 C 0.52183 0.97314 0.76223 0.0
C649 C 0.53316 0.95549 0.74593 0.0
C650 C 0.53369 0.9383 0.78801 0.0
H651 H 0.54985 0.93842 0.02924 0.0
H652 H 0.54876 0.94963 0.94845 0.0
H653 H 0.52695 0.95115 1.00227 0.0
H654 H 0.50327 0.95649 0.90999 0.0
H655 H 0.50225 0.98631 0.83686 0.0
H656 H 0.71862 0.54972 0.06143 0.0
H657 H 0.6881 0.55398 0.992 0.0
H658 H 0.65693 0.50636 0.10085 0.0
H659 H 0.68717 0.50239 0.17074 0.0
H660 H 0.67035 0.52759 0.90979 0.0
H661 H 0.61189 0.54796 0.09427 0.0
H662 H 0.63903 0.54814 0.11252 0.0
H663 H 0.62461 0.52442 0.1143 0.0
C664 C 0.70508 0.54056 0.07175 0.0
C665 C 0.70532 0.52607 0.12306 0.0
C666 C 0.68759 0.54288 0.03153 0.0
C667 C 0.66979 0.53078 0.0413 0.0
C668 C 0.67001 0.5164 0.09287 0.0
H669 H 0.57786 0.49702 0.7503 0.0
H670 H 0.60675 0.49979 0.82576 0.0
C671 C 0.68745 0.5141 0.13301 0.0
C672 C 0.65161 0.53218 0.99529 0.0
H673 H 0.59908 0.53697 0.98979 0.0
C674 C 0.65482 0.52982 0.92755 0.0
C675 C 0.63116 0.53536 0.01736 0.0
C676 C 0.62645 0.53933 0.0885 0.0
C677 C 0.63837 0.52988 0.88223 0.0
C678 C 0.61784 0.532 0.90466 0.0
C679 C 0.61466 0.53508 0.97209 0.0
C680 C 0.59959 0.53044 0.85913 0.0
C681 C 0.64323 0.5278 0.81033 0.0
C682 C 0.58519 0.54647 0.85337 0.0
C683 C 0.5684 0.54493 0.80965 0.0
C684 C 0.56545 0.52724 0.77088 0.0
C685 C 0.57965 0.51108 0.77814 0.0
C686 C 0.59636 0.51265 0.82145 0.0
H687 H 0.65928 0.53265 0.79946 0.0
H688 H 0.64155 0.51146 0.79576 0.0
H689 H 0.63262 0.53711 0.77994 0.0
H690 H 0.5871 0.56034 0.88205 0.0
H691 H 0.55782 0.55766 0.8059 0.0
H692 H 0.04309 0.6959 0.15145 0.0
H693 H 0.03894 0.66586 0.08062 0.0
H694 H 0.98309 0.69138 1.00246 0.0
H695 H 0.98749 0.72175 0.07262 0.0
H696 H 1.01094 0.63593 0.06621 0.0
H697 H 0.01389 0.68085 0.83575 0.0
H698 H 0.0197 0.69212 0.91424 0.0
H699 H 0.99342 0.68833 0.8893 0.0
C700 C 0.02971 0.695 0.11998 0.0
C701 C 0.01545 0.71122 0.11888 0.0
C702 C 0.02739 0.67776 0.07908 0.0
C703 C 1.01086 0.67623 0.03483 0.0
C704 C 0.99626 0.69218 0.03478 0.0
H705 H 0.98462 0.55966 0.82081 0.0
H706 H 0.98294 0.58875 0.89698 0.0
C707 C 0.99862 0.70951 0.07571 0.0
C708 C 1.00937 0.65819 0.98838 0.0
H709 H 1.00718 0.64526 0.82567 0.0
C710 C 1.01004 0.63804 0.01362 0.0
C711 C 1.00853 0.66064 0.91933 0.0
C712 C 1.00905 0.68162 0.88784 0.0
C713 C 1.00988 0.62053 0.97246 0.0
C714 C 1.00862 0.62299 0.90347 0.0
C715 C 1.00794 0.64314 0.87828 0.0
C716 C 1.00912 0.60506 0.8564 0.0
C717 C 0.01185 0.59958 1.00346 0.0
C718 C 0.02392 0.60449 0.80624 0.0
C719 C 0.02476 0.58795 0.76211 0.0
C720 C 1.01078 0.57133 0.76626 0.0
C721 C 0.99576 0.57199 0.81598 0.0
C722 C 0.99489 0.58865 0.86015 0.0
H723 H 0.01826 0.60055 0.0538 0.0
H724 H 0.99641 0.59233 1.00681 0.0
H725 H 0.02186 0.58945 0.97378 0.0
H726 H 0.0351 0.61681 0.80156 0.0
H727 H 0.03659 0.5882 0.72483 0.0
H728 H 0.04077 0.27563 0.2752 0.0
H729 H 0.04702 0.25913 0.37881 0.0
H730 H 0.07803 0.20965 0.27983 0.0
H731 H 0.07493 0.22771 0.17702 0.0
H732 H 0.02758 0.22848 0.40322 0.0
H733 H 0.10675 0.20394 0.44443 0.0
H734 H 0.10085 0.22349 0.38461 0.0
H735 H 0.1006 0.19656 0.36248 0.0
C736 C 0.05001 0.26189 0.27499 0.0
C737 C 0.0567 0.25279 0.21613 0.0
C738 C 0.0534 0.25228 0.33505 0.0
C739 C 0.06272 0.2329 0.33779 0.0
C740 C 0.07104 0.22469 0.28008 0.0
H741 H 0.01814 0.12444 0.44173 0.0
H742 H 0.0394 0.15349 0.40869 0.0
C743 C 0.06857 0.2348 0.22032 0.0
C744 C 0.05942 0.21944 0.39582 0.0
H745 H 0.07955 0.17771 0.47402 0.0
C746 C 0.0393 0.21805 0.4207 0.0
C747 C 0.07452 0.20571 0.41962 0.0
C748 C 0.09691 0.20774 0.40167 0.0
C749 C 0.03341 0.20213 0.46272 0.0
C750 C 0.0479 0.18698 0.47952 0.0
C751 C 0.06844 0.18927 0.46008 0.0
C752 C 0.04067 0.16708 0.50514 0.0
C753 C 1.01122 0.20044 0.48384 0.0
C754 C 0.03508 0.16479 0.57097 0.0
C755 C 0.02304 0.14798 0.59033 0.0
C756 C 0.01621 0.1335 0.54389 0.0
C757 C 0.0232 0.13516 0.47898 0.0
C758 C 0.03541 0.15176 0.45993 0.0
H759 H 1.00207 0.21401 0.46879 0.0
H760 H 1.00411 0.18647 0.46206 0.0
H761 H 1.01032 0.19889 0.53788 0.0
H762 H 0.03893 0.1766 0.60634 0.0
H763 H 0.01837 0.14677 0.64094 0.0
H764 H 0.28684 0.07988 0.19842 0.0
H765 H 0.31225 0.09123 0.28006 0.0
H766 H 0.32804 0.02798 0.31757 0.0
H767 H 0.3024 0.01674 0.23754 0.0
H768 H 0.33402 0.05497 0.42866 0.0
H769 H 0.36913 0.08396 0.19636 0.0
H770 H 0.34483 0.09436 0.2209 0.0
H771 H 0.34644 0.06797 0.19575 0.0
C772 C 0.29512 0.06849 0.22658 0.0
C773 C 0.29292 0.04752 0.21221 0.0
C774 C 0.30961 0.07494 0.27288 0.0
C775 C 0.32224 0.06044 0.30379 0.0
C776 C 0.3184 0.0394 0.29435 0.0
H777 H 0.43288 0.01751 0.40791 0.0
H778 H 0.39747 0.029 0.41341 0.0
C779 C 0.30384 0.03297 0.2486 0.0
C780 C 0.34208 0.06658 0.33319 0.0
H781 H 0.39069 0.07869 0.28448 0.0
C782 C 0.34636 0.06075 0.39794 0.0
C783 C 0.35812 0.07426 0.29306 0.0
C784 C 0.35457 0.08044 0.22258 0.0
C785 C 0.3666 0.06087 0.42191 0.0
C786 C 0.38285 0.0665 0.37939 0.0
C787 C 0.37825 0.07429 0.31704 0.0
C788 C 0.40452 0.06095 0.39246 0.0
C789 C 0.3704 0.05409 0.49145 0.0
C790 C 0.42043 0.07501 0.37888 0.0
C791 C 0.4407 0.06828 0.37385 0.0
C792 C 0.44547 0.04747 0.38321 0.0
C793 C 0.42973 0.0337 0.40115 0.0
C794 C 0.40944 0.04034 0.40513 0.0
H795 H 0.3577 0.05915 0.52386 0.0
H796 H 0.37082 0.03705 0.4934 0.0
H797 H 0.38515 0.06028 0.51076 0.0
H798 H 0.417 0.09094 0.36836 0.0
H799 H 0.4525 0.07923 0.36038 0.0
H800 H 0.45478 0.30884 0.19309 0.0
H801 H 0.44857 0.32862 0.29342 0.0
H802 H 0.50535 0.30597 0.37462 0.0
H803 H 0.5111 0.28568 0.27628 0.0
H804 H 0.47684 0.31158 0.46991 0.0
H805 H 0.48141 0.38066 0.30799 0.0
H806 H 0.46046 0.36319 0.29364 0.0
H807 H 0.48639 0.35525 0.27743 0.0
C808 C 0.46563 0.30779 0.23318 0.0
C809 C 0.48352 0.29596 0.22688 0.0
C810 C 0.46212 0.3191 0.29025 0.0
C811 C 0.47677 0.31918 0.34081 0.0
C812 C 0.49383 0.30617 0.3363 0.0
H813 H 0.54921 0.38207 0.57957 0.0
H814 H 0.52534 0.35601 0.54045 0.0
C815 C 0.49714 0.2946 0.27998 0.0
C816 C 0.4763 0.33464 0.39403 0.0
H817 H 0.48559 0.38564 0.41925 0.0
C818 C 0.47822 0.32786 0.45912 0.0
C819 C 0.47792 0.35593 0.38006 0.0
C820 C 0.47658 0.36428 0.31111 0.0
C821 C 0.48355 0.34154 0.50951 0.0
C822 C 0.48704 0.36244 0.49422 0.0
C823 C 0.48293 0.36956 0.43074 0.0
C824 C 0.49902 0.37621 0.5376 0.0
C825 C 0.48658 0.33334 0.57787 0.0
C826 C 0.49202 0.39609 0.55141 0.0
C827 C 0.50573 0.41111 0.57399 0.0
C828 C 0.5267 0.40652 0.58199 0.0
C829 C 0.53318 0.38612 0.57411 0.0
C830 C 0.51946 0.37112 0.55204 0.0
H831 H 0.47618 0.32007 0.58738 0.0
H832 H 0.50262 0.32788 0.5832 0.0
H833 H 0.48379 0.34537 0.6153 0.0
H834 H 0.47632 0.40034 0.5404 0.0
H835 H 0.50017 0.42659 0.58141 0.0
H836 H 0.25617 0.50419 0.27187 0.0
H837 H 0.23361 0.49749 0.36398 0.0
H838 H 0.20287 0.44965 0.25452 0.0
H839 H 0.22548 0.45653 0.16115 0.0
H840 H 0.17756 0.47908 0.2843 0.0
H841 H 0.21863 0.45984 0.51069 0.0
H842 H 0.23182 0.48075 0.47173 0.0
H843 H 0.23006 0.4562 0.43092 0.0
C844 C 0.2453 0.49156 0.26837 0.0
C845 C 0.24239 0.48107 0.20903 0.0
C846 C 0.23242 0.48762 0.32147 0.0
C847 C 0.21655 0.47297 0.31647 0.0
C848 C 0.21504 0.46097 0.25955 0.0
H849 H 0.10497 0.50782 0.5315 0.0
H850 H 0.12787 0.48295 0.48053 0.0
C851 C 0.22788 0.46499 0.20618 0.0
C852 C 0.1991 0.47408 0.36285 0.0
H853 H 0.18917 0.48378 0.52369 0.0
C854 C 0.17984 0.47932 0.3369 0.0
C855 C 0.202 0.4743 0.43142 0.0
C856 C 0.22174 0.46723 0.4626 0.0
C857 C 0.16427 0.48718 0.37682 0.0
C858 C 0.16802 0.48949 0.44461 0.0
C859 C 0.18646 0.48222 0.47153 0.0
C860 C 0.15473 0.50264 0.48525 0.0
C861 C 0.14476 0.4948 0.34515 0.0
C862 C 0.16243 0.52162 0.50682 0.0
C863 C 0.14946 0.53584 0.53625 0.0
C864 C 0.12847 0.53134 0.54487 0.0
C865 C 0.12098 0.51191 0.52543 0.0
C866 C 0.13405 0.49762 0.49634 0.0
H867 H 0.14539 0.49405 0.29085 0.0
H868 H 0.13158 0.48525 0.36182 0.0
H869 H 0.14176 0.51095 0.35968 0.0
H870 H 0.17833 0.52585 0.49806 0.0
H871 H 0.15575 0.55071 0.54945 0.0
H872 H 0.95398 0.81674 0.10356 0.0
H873 H 0.94904 0.83778 1.00527 0.0
H874 H 0.99912 0.80613 0.91133 0.0
H875 H 1.00355 0.78481 1.0079 0.0
H876 H 0.97663 0.86358 0.97263 0.0
H877 H 0.96486 0.81583 0.75495 0.0
H878 H 0.9606 0.80586 0.83646 0.0
H879 H 0.98587 0.80519 0.79988 0.0
C880 C 0.96341 0.81387 0.06091 0.0
C881 C 0.97922 0.79927 0.06332 0.0
C882 C 0.96053 0.8258 1.00471 0.0
C883 C 0.97356 0.82346 0.95036 0.0
C884 C 0.9884 0.80787 0.95142 0.0
H885 H 0.05446 0.8869 0.73934 0.0
H886 H 0.02897 0.86213 0.77774 0.0
C887 C 0.99107 0.79577 1.00709 0.0
C888 C 0.97493 0.83975 0.89957 0.0
H889 H 0.98777 0.84646 0.7389 0.0
C890 C 0.97824 0.85999 0.92106 0.0
C891 C 0.97689 0.83521 0.83211 0.0
C892 C 0.97161 0.81434 0.80469 0.0
C893 C 0.98581 0.87515 0.87863 0.0
C894 C 0.99002 0.86994 0.81281 0.0
C895 C 0.98474 0.85032 0.78963 0.0
C896 C 1.00346 0.88323 0.77254 0.0
C897 C 0.99117 0.89606 0.90617 0.0
C898 C 0.9973 0.90297 0.75362 0.0
C899 C 0.01188 0.91721 0.73136 0.0
C900 C 0.03281 0.91189 0.72806 0.0
C901 C 0.03851 0.89151 0.74119 0.0
C902 C 0.02393 0.8773 0.76315 0.0
H903 H 0.98849 0.89699 0.95979 0.0
H904 H 1.00755 0.89982 0.89637 0.0
H905 H 0.98163 0.90793 0.88197 0.0
H906 H 0.98149 0.90771 0.7597 0.0
H907 H 1.00693 0.93265 0.71961 0.0
H908 H 0.75731 0.99127 0.05588 0.0
H909 H 0.72645 0.98619 0.99082 0.0
H910 H 0.70855 0.93543 0.11453 0.0
H911 H 0.7392 0.94105 0.18168 0.0
H912 H 0.69692 0.96001 0.9315 0.0
H913 H 0.67539 0.98426 0.18456 0.0
H914 H 0.70174 0.98262 0.15892 0.0
H915 H 0.68727 0.95959 0.17618 0.0
C916 C 0.74753 0.97817 0.06675 0.0
C917 C 0.75014 0.96701 0.12495 0.0
C918 C 0.72978 0.97529 0.0295 0.0
C919 C 0.7148 0.96107 0.04995 0.0
C920 C 0.71971 0.94688 0.09927 0.0
H921 H 0.58897 0.99631 0.92976 0.0
H922 H 0.61817 0.97347 0.94965 0.0
C923 C 0.7373 0.95 0.13733 0.0
C924 C 0.69309 0.96564 0.03458 0.0
H925 H 0.65172 0.98967 0.10215 0.0
C926 C 0.68674 0.96595 0.96888 0.0
C927 C 0.68003 0.97382 0.08362 0.0
C928 C 0.68639 0.97523 0.15473 0.0
C929 C 0.66816 0.97528 0.95055 0.0
C930 C 0.65575 0.98425 0.99936 0.0
C931 C 0.6614 0.98269 0.0652 0.0
C932 C 0.63836 0.99776 0.98338 0.0
C933 C 0.6626 0.97682 0.87906 0.0
C934 C 0.64008 0.01886 0.9967 0.0
C935 C 0.62351 0.03188 0.9857 0.0
C936 C 0.60491 0.02401 0.96126 0.0
C937 C 0.60323 1.00283 0.94792 0.0
C938 C 0.61985 0.98978 0.95902 0.0
H939 H 0.67466 0.97031 0.84683 0.0
H940 H 0.64798 0.96841 0.87004 0.0
H941 H 0.66014 0.99315 0.8654 0.0
H942 H 0.65429 0.02523 0.01582 0.0
H943 H 0.62535 0.04814 0.99555 0.0
H944 H 0.56893 0.76478 0.00979 0.0
H945 H 0.57143 0.74928 0.90008 0.0
H946 H 0.52936 0.70134 0.9594 0.0
H947 H 0.52638 0.71673 0.06732 0.0
H948 H 0.57856 0.69852 0.87245 0.0
H949 H 0.50811 0.73685 0.78313 0.0
H950 H 0.52558 0.74859 0.84133 0.0
H951 H 0.50722 0.72962 0.86814 0.0
C952 C 0.56029 0.7509 0.99929 0.0
C953 C 0.54751 0.74191 0.04733 0.0
C954 C 0.56183 0.74207 0.93691 0.0
C955 C 0.55054 0.72427 0.92215 0.0
C956 C 0.5382 0.71509 0.97029 0.0
H957 H 0.51538 0.62064 0.8122 0.0
H958 H 0.53817 0.64926 0.8325 0.0
C959 C 0.53665 0.72382 0.03211 0.0
C960 C 0.55043 0.71506 0.85635 0.0
H961 H 0.5137 0.70205 0.74549 0.0
C962 C 0.56486 0.69979 0.84243 0.0
C963 C 0.53292 0.71714 0.81621 0.0
C964 C 0.51763 0.73408 0.82742 0.0
C965 C 0.56056 0.68462 0.79552 0.0
C966 C 0.54116 0.68454 0.76414 0.0
C967 C 0.52841 0.70176 0.77043 0.0
C968 C 0.53144 0.66513 0.74168 0.0
C969 C 0.576 0.66781 0.78449 0.0
C970 C 0.51992 0.66429 0.68357 0.0
C971 C 0.50665 0.64767 0.67165 0.0
C972 C 0.50449 0.6318 0.71817 0.0
C973 C 0.5169 0.63225 0.77447 0.0
C974 C 0.53016 0.64869 0.78604 0.0
H975 H 0.59184 0.67428 0.78424 0.0
H976 H 0.57512 0.65659 0.82539 0.0
H977 H 0.57321 0.65962 0.73759 0.0
H978 H 0.52049 0.6769 0.64893 0.0
H979 H 0.49755 0.64766 0.62727 0.0
H980 H 0.81248 0.5856 0.10249 0.0
H981 H 0.83179 0.59121 1.00091 0.0
H982 H 0.79772 0.5419 0.90921 0.0
H983 H 0.77812 0.5368 0.00911 0.0
H984 H 0.85655 0.56422 0.95873 0.0
H985 H 0.80343 0.57824 0.75524 0.0
H986 H 0.79561 0.58129 0.83951 0.0
H987 H 0.79408 0.55649 0.80008 0.0
C988 C 0.80877 0.57642 0.05984 0.0
C989 C 0.79389 0.56073 0.06357 0.0
C990 C 0.81969 0.5797 1.00179 0.0
C991 C 0.81605 0.5672 0.94682 0.0
C992 C 0.8004 0.55226 0.94978 0.0
H993 H 0.87734 0.49164 0.71035 0.0
H994 H 0.85188 0.51528 0.75429 0.0
C995 C 0.7893 0.54919 1.00733 0.0
C996 C 0.831 0.56664 0.89202 0.0
H997 H 0.83384 0.55673 0.72812 0.0
C998 C 0.85172 0.56339 0.90797 0.0
C999 C 0.8248 0.56563 0.82563 0.0
C1000 C 0.80327 0.57085 0.80429 0.0
C1001 C 0.86585 0.55697 0.86073 0.0
C1002 C 0.8591 0.55391 0.79558 0.0
C1003 C 0.83889 0.55894 0.77825 0.0
C1004 C 0.87177 0.54201 0.74938 0.0
C1005 C 0.88741 0.55168 0.88223 0.0
C1006 C 0.89085 0.54955 0.72801 0.0
C1007 C 0.90548 0.53603 0.70309 0.0
C1008 C 0.90111 0.51486 0.69917 0.0
C1009 C 0.88114 0.50785 0.71305 0.0
C1010 C 0.86656 0.52136 0.73808 0.0
H1011 H 0.88952 0.5531 0.93602 0.0
H1012 H 0.89122 0.53572 0.86764 0.0
H1013 H 0.89854 0.56218 0.85795 0.0
H1014 H 0.89502 0.56551 0.73567 0.0
H1015 H 0.92066 0.54186 0.69118 0.0
H1016 H 0.06713 0.23151 0.97822 0.0
H1017 H 0.06339 0.20067 0.91075 0.0
H1018 H 0.99748 0.20643 0.91958 0.0
H1019 H 1.00134 0.23779 0.9857 0.0
H1020 H 0.0479 0.16535 0.94392 0.0
H1021 H 1.0024 0.19164 0.73133 0.0
H1022 H 0.01394 0.20942 0.78844 0.0
H1023 H 0.98993 0.19688 0.80774 0.0
C1024 C 0.05183 0.2266 0.96393 0.0
C1025 C 0.03456 0.23746 0.98649 0.0
C1026 C 0.04967 0.20875 0.92571 0.0
C1027 C 0.03013 0.20094 0.90889 0.0
C1028 C 0.0128 0.21214 0.92984 0.0
H1029 H 0.98973 0.08322 0.73387 0.0
H1030 H 0.99164 0.11735 0.7843 0.0
C1031 C 0.01498 0.23021 0.96775 0.0
C1032 C 0.02818 0.1804 0.8743 0.0
H1033 H 1.00551 0.15537 0.74482 0.0
C1034 C 0.03884 0.16336 0.89978 0.0
C1035 C 0.01619 0.17731 0.81692 0.0
C1036 C 1.00512 0.19482 0.78409 0.0
C1037 C 0.03779 0.14369 0.87046 0.0
C1038 C 0.02594 0.14064 0.81289 0.0
C1039 C 0.01494 0.15753 0.78801 0.0
C1040 C 0.02474 0.12005 0.77858 0.0
C1041 C 0.04882 0.12611 0.90305 0.0
C1042 C 0.04258 0.11008 0.75612 0.0
C1043 C 0.0415 0.0905 0.72678 0.0
C1044 C 0.02257 0.08016 0.71912 0.0
C1045 C 1.00465 0.09047 0.7394 0.0
C1046 C 1.00572 0.11011 0.76843 0.0
H1047 H 0.05254 0.12954 0.955 0.0
H1048 H 0.03935 0.11187 0.90126 0.0
H1049 H 0.06347 0.1232 0.87699 0.0
H1050 H 0.05744 0.11748 0.76109 0.0
H1051 H 0.05555 0.08349 0.70975 0.0
H1052 H 0.30347 0.99753 0.9808 0.0
H1053 H 0.33453 0.9956 0.91222 0.0
H1054 H 0.33592 0.06167 0.89804 0.0
H1055 H 0.30528 0.06357 0.96743 0.0
H1056 H 0.34779 1.00851 0.78877 0.0
H1057 H 0.39124 0.05029 0.98064 0.0
H1058 H 0.36554 0.04064 0.99386 0.0
H1059 H 0.36961 0.06438 0.95033 0.0
C1060 C 0.31 1.01159 0.96109 0.0
C1061 C 0.30163 0.0307 0.97883 0.0
C1062 C 0.32794 1.0105 0.92233 0.0
C1063 C 0.33808 0.02851 0.90081 0.0
C1064 C 0.32887 0.04752 0.91493 0.0
H1065 H 0.44373 0.03561 0.62623 0.0
H1066 H 0.40925 0.03618 0.67508 0.0
C1067 C 0.31107 0.0486 0.95383 0.0
C1068 C 0.35879 0.02758 0.86744 0.0
H1069 H 0.40873 0.04433 0.88094 0.0
C1070 C 0.36109 0.01636 0.809 0.0
C1071 C 0.37647 0.03746 0.89388 0.0
C1072 C 0.37572 0.0487 0.95843 0.0
C1073 C 0.38025 0.01506 0.77618 0.0
C1074 C 0.39776 0.0255 0.80163 0.0
C1075 C 0.39546 0.03647 0.86051 0.0
C1076 C 0.41875 0.02469 0.76991 0.0
C1077 C 0.38163 1.00202 0.71536 0.0
C1078 C 0.43599 0.01853 0.80652 0.0
C1079 C 0.45575 0.0183 0.77867 0.0
C1080 C 0.45903 0.02427 0.71314 0.0
C1081 C 0.44183 0.03053 0.67637 0.0
C1082 C 0.42199 0.03079 0.70439 0.0
H1083 H 0.36886 0.99063 0.7127 0.0
H1084 H 0.3806 1.01207 0.67157 0.0
H1085 H 0.39644 0.99367 0.71336 0.0
H1086 H 0.43417 0.0138 0.85706 0.0
H1087 H 0.46853 0.01338 0.80872 0.0
H1088 H 0.46772 0.3149 0.99306 0.0
H1089 H 0.47075 0.34478 0.92092 0.0
H1090 H 0.5362 0.33566 0.90909 0.0
H1091 H 0.53305 0.30534 0.98053 0.0
H1092 H 0.48946 0.37945 0.94724 0.0
H1093 H 0.52495 0.34939 0.72096 0.0
H1094 H 0.51433 0.33268 0.78307 0.0
H1095 H 0.53966 0.34354 0.79288 0.0
C1096 C 0.4827 0.31887 0.97352 0.0
C1097 C 0.5001 0.30746 0.99226 0.0
C1098 C 0.48447 0.33615 0.93246 0.0
C1099 C 0.5037 0.34275 0.90861 0.0
C1100 C 0.52106 0.33087 0.92512 0.0
H1101 H 0.54535 0.45891 0.73049 0.0
H1102 H 0.5427 0.42476 0.78091 0.0
C1103 C 0.51926 0.31341 0.96607 0.0
C1104 C 0.50554 0.36293 0.87187 0.0
H1105 H 0.52425 0.38592 0.73224 0.0
C1106 C 0.49695 0.3807 0.89998 0.0
C1107 C 0.51533 0.36496 0.80997 0.0
C1108 C 0.52392 0.3466 0.77456 0.0
C1109 C 0.4981 0.40012 0.86908 0.0
C1110 C 0.508 0.40216 0.80764 0.0
C1111 C 0.51666 0.3845 0.77932 0.0
C1112 C 0.50963 0.42257 0.773 0.0
C1113 C 0.48907 0.4185 0.90324 0.0
C1114 C 0.492 0.43281 0.7502 0.0
C1115 C 0.4935 0.45234 0.72067 0.0
C1116 C 0.51265 0.46234 0.71364 0.0
C1117 C 0.53031 0.45184 0.73518 0.0
C1118 C 0.52882 0.43223 0.76415 0.0
H1119 H 0.48563 0.4153 0.95554 0.0
H1120 H 0.49974 0.43186 0.90038 0.0
H1121 H 0.47452 0.42284 0.87863 0.0
H1122 H 0.477 0.42568 0.7553 0.0
H1123 H 0.47963 0.45959 0.70314 0.0
H1124 H 0.21167 0.52784 0.05981 0.0
H1125 H 0.18157 0.53108 0.98909 0.0
H1126 H 0.21303 0.49791 0.83694 0.0
H1127 H 0.24318 0.49417 0.90912 0.0
H1128 H 0.17241 0.5477 0.87474 0.0
H1129 H 0.16205 0.46332 0.85123 0.0
H1130 H 0.18046 0.47456 0.90688 0.0
H1131 H 0.18622 0.47274 0.82095 0.0
C1132 C 0.21237 0.52159 0.01073 0.0
C1133 C 0.22996 0.51083 0.9902 0.0
C1134 C 0.19502 0.52336 0.97022 0.0
C1135 C 0.19453 0.51432 0.90772 0.0
C1136 C 0.21258 0.50458 0.88543 0.0
H1137 H 0.08905 0.50376 0.63274 0.0
H1138 H 0.12374 0.50359 0.68089 0.0
C1139 C 0.23004 0.50276 0.92629 0.0
C1140 C 0.17489 0.51479 0.86793 0.0
H1141 H 0.13823 0.48413 0.79534 0.0
C1142 C 0.16506 0.53374 0.85729 0.0
C1143 C 0.16495 0.49668 0.84475 0.0
C1144 C 0.17381 0.47565 0.85692 0.0
C1145 C 0.14586 0.53508 0.82508 0.0
C1146 C 0.13579 0.51697 0.80303 0.0
C1147 C 0.14581 0.49807 0.81203 0.0
C1148 C 0.11462 0.51728 0.77279 0.0
C1149 C 0.13655 0.55601 0.81481 0.0
C1150 C 0.09765 0.5248 0.80801 0.0
C1151 C 0.07785 0.52498 0.78025 0.0
C1152 C 0.07434 0.5176 0.71638 0.0
C1153 C 0.09126 0.5099 0.68138 0.0
C1154 C 0.11109 0.50964 0.70924 0.0
H1155 H 0.14847 0.56831 0.81525 0.0
H1156 H 0.12805 0.55678 0.7678 0.0
H1157 H 0.12559 0.55916 0.85509 0.0
H1158 H 0.09968 0.53045 0.85745 0.0
H1159 H 0.06529 0.5311 0.80875 0.0
H1160 H 0.96858 0.8173 0.30139 0.0
H1161 H 0.97403 0.84693 0.37326 0.0
H1162 H 0.03924 0.8358 0.37144 0.0
H1163 H 0.03375 0.80603 0.29882 0.0
H1164 H 0.99175 0.8534 0.49621 0.0
H1165 H 0.03604 0.89509 0.30476 0.0
H1166 H 0.02155 0.872 0.28736 0.0
H1167 H 0.04607 0.87042 0.32748 0.0
C1168 C 0.98406 0.82085 0.31756 0.0
C1169 C 1.0007 0.8091 0.29457 0.0
C1170 C 0.98719 0.83793 0.35852 0.0
C1171 C 1.0071 0.84408 0.37718 0.0
C1172 C 0.02372 0.83176 0.35703 0.0
H1173 H 0.04878 0.95761 0.5774 0.0
H1174 H 0.04712 0.92348 0.52667 0.0
C1175 C 0.02056 0.81448 0.31625 0.0
C1176 C 1.01022 0.86377 0.41517 0.0
H1177 H 0.03153 0.9121 0.40542 0.0
C1178 C 1.00052 0.86618 0.47627 0.0
C1179 C 0.02165 0.88066 0.38981 0.0
C1180 C 0.03181 0.8796 0.32355 0.0
C1181 C 1.00196 0.88471 0.51228 0.0
C1182 C 0.013 0.90174 0.48626 0.0
C1183 C 0.02301 0.89922 0.42574 0.0
C1184 C 0.01395 0.92237 0.52006 0.0
C1185 C 0.99196 0.88573 0.57873 0.0
C1186 C 0.99592 0.93345 0.53375 0.0
C1187 C 0.99684 0.95302 0.56302 0.0
C1188 C 0.01583 0.96227 0.57915 0.0
C1189 C 0.03386 0.95109 0.56595 0.0
C1190 C 0.03293 0.93151 0.53656 0.0
H1191 H 0.98933 0.87018 0.59975 0.0
H1192 H 1.0016 0.89474 0.61321 0.0
H1193 H 0.97684 0.8934 0.57428 0.0
H1194 H 0.98105 0.92711 0.52071 0.0
H1195 H 0.98259 0.96095 0.57271 0.0
H1196 H 0.74876 0.99195 0.40787 0.0
H1197 H 0.717 0.99661 0.4721 0.0
H1198 H 0.68901 0.02725 0.30806 0.0
H1199 H 0.72059 0.02275 0.24434 0.0
H1200 H 0.68658 0.04026 0.48192 0.0
H1201 H 0.65674 0.96809 0.36954 0.0
H1202 H 0.68387 0.97194 0.38452 0.0
H1203 H 0.67144 0.98587 0.3202 0.0
C1204 C 0.73615 1.00048 0.38663 0.0
C1205 C 0.73746 1.00747 0.32149 0.0
C1206 C 0.71789 1.00293 0.4231 0.0
C1207 C 0.7005 1.01229 0.39505 0.0
C1208 C 0.70216 0.02012 0.33115 0.0
H1209 H 0.5688 1.01225 0.47047 0.0
H1210 H 0.60357 1.01153 0.42596 0.0
C1211 C 0.72034 0.01772 0.29493 0.0
C1212 C 0.68008 1.01236 0.42955 0.0
H1213 H 0.63417 0.98639 0.43733 0.0
C1214 C 0.67516 0.0284 0.4727 0.0
C1215 C 0.665 0.9971 0.41692 0.0
C1216 C 0.66935 0.97967 0.37044 0.0
C1217 C 0.65556 0.02975 0.50257 0.0
C1218 C 0.64042 0.01433 0.49041 0.0
C1219 C 0.64554 0.99823 0.4474 0.0
C1220 C 0.61899 0.01494 0.51926 0.0
C1221 C 0.65105 0.0482 0.5447 0.0
C1222 C 0.61557 0.01686 0.58719 0.0
C1223 C 0.59547 0.01749 0.61303 0.0
C1224 C 0.57812 0.01586 0.57188 0.0
C1225 C 0.58161 0.01353 0.50415 0.0
C1226 C 0.60165 1.0131 0.47838 0.0
H1227 H 0.66158 0.06124 0.53346 0.0
H1228 H 0.63498 0.05344 0.53805 0.0
H1229 H 0.65329 0.04403 0.5969 0.0
H1230 H 0.62846 0.01768 0.62061 0.0
H1231 H 0.59355 0.01916 0.66541 0.0
H1232 H 0.56677 0.72322 0.2778 0.0
H1233 H 0.56275 0.69364 0.35078 0.0
H1234 H 0.49925 0.70941 0.38145 0.0
H1235 H 0.50323 0.739 0.30696 0.0
H1236 H 0.55198 0.68643 0.47731 0.0
H1237 H 0.49327 0.65125 0.31445 0.0
H1238 H 0.50804 0.67358 0.29068 0.0
H1239 H 0.4866 0.67612 0.34552 0.0
C1240 C 0.55204 0.7207 0.30126 0.0
C1241 C 0.53535 0.73364 0.28646 0.0
C1242 C 0.54971 0.70363 0.34294 0.0
C1243 C 0.53056 0.69872 0.37092 0.0
C1244 C 0.51412 0.71237 0.35952 0.0
H1245 H 0.48998 0.58596 0.57716 0.0
H1246 H 0.49216 0.6203 0.52878 0.0
C1247 C 0.51647 0.72958 0.31772 0.0
C1248 C 0.52787 0.67891 0.40906 0.0
H1249 H 0.5018 0.63288 0.4098 0.0
C1250 C 0.54092 0.67479 0.46254 0.0
C1251 C 0.51354 0.66344 0.39038 0.0
C1252 C 0.49967 0.66614 0.33182 0.0
C1253 C 0.54002 0.65597 0.49743 0.0
C1254 C 0.52593 0.64035 0.47795 0.0
C1255 C 0.51264 0.64464 0.42526 0.0
C1256 C 0.52489 0.61941 0.5103 0.0
C1257 C 0.55415 0.65323 0.55532 0.0
C1258 C 0.54248 0.60701 0.51661 0.0
C1259 C 0.5413 0.5873 0.54514 0.0
C1260 C 0.52242 0.57909 0.5671 0.0
C1261 C 0.50483 0.59153 0.56082 0.0
C1262 C 0.50605 0.6113 0.53278 0.0
H1263 H 0.55788 0.66823 0.57858 0.0
H1264 H 0.54736 0.64292 0.59295 0.0
H1265 H 0.56879 0.64642 0.53827 0.0
H1266 H 0.5572 0.61244 0.49871 0.0
H1267 H 0.55525 0.57851 0.54993 0.0
H1268 H 0.80701 0.50651 0.27838 0.0
H1269 H 0.83766 0.50226 0.3477 0.0
H1270 H 0.83793 0.56723 0.38823 0.0
H1271 H 0.80742 0.57141 0.31898 0.0
H1272 H 0.8756 0.52031 0.32411 0.0
H1273 H 0.84914 0.54384 0.57031 0.0
H1274 H 0.83149 0.53715 0.50532 0.0
H1275 H 0.84332 0.56219 0.50733 0.0
C1276 C 0.81314 0.51973 0.30419 0.0
C1277 C 0.80434 0.53921 0.29459 0.0
C1278 C 0.83086 0.51735 0.34332 0.0
C1279 C 0.84022 0.53436 0.37438 0.0
C1280 C 0.83095 0.55371 0.36652 0.0
H1281 H 0.9576 0.55861 0.57551 0.0
H1282 H 0.92341 0.5607 0.52474 0.0
C1283 C 0.81338 0.5561 0.32698 0.0
C1284 C 0.86055 0.53227 0.40958 0.0
H1285 H 0.88538 0.54151 0.55524 0.0
C1286 C 0.87762 0.52478 0.37484 0.0
C1287 C 0.86352 0.53824 0.47582 0.0
C1288 C 0.84588 0.54563 0.51719 0.0
C1289 C 0.89738 0.52357 0.40345 0.0
C1290 C 0.90036 0.52957 0.46958 0.0
C1291 C 0.8833 0.53695 0.50461 0.0
C1292 C 0.92106 0.52824 0.50274 0.0
C1293 C 0.91509 0.51646 0.36172 0.0
C1294 C 0.93124 0.50932 0.50884 0.0
C1295 C 0.95088 0.50815 0.53743 0.0
C1296 C 0.96101 0.52588 0.56087 0.0
C1297 C 0.95059 0.54474 0.55646 0.0
C1298 C 0.93087 0.5459 0.52795 0.0
H1299 H 0.91152 0.51761 0.30865 0.0
H1300 H 0.92919 0.52563 0.37192 0.0
H1301 H 0.91838 0.50013 0.37303 0.0
H1302 H 0.92398 0.49533 0.49147 0.0
H1303 H 0.95823 0.49329 0.54053 0.0
loop_
_geom_bond_atom_site_label_1
_geom_bond_atom_site_label_2
_geom_bond_distance
_geom_bond_site_symmetry_2
_ccdc_geom_bond_type
H0 C7 0.929 . S
H1 C10 0.930 . S
H2 C12 0.929 . S
H3 C4 0.969 . S
C4 H3 0.969 . S
C4 O5 1.550 . S
C4 H6 0.973 . S
O5 C4 1.550 . S
O5 C11 1.412 . S
H6 C4 0.973 . S
C7 H0 0.929 . S
C7 C8 1.400 . S
C7 C9 1.364 . S
C8 C7 1.400 . S
C8 C12 1.377 . S
C9 C7 1.364 . S
C9 C10 1.374 . S
C10 H1 0.930 . S
C10 C9 1.374 . S
C10 C11 1.383 . S
C11 O5 1.412 . S
C11 C10 1.383 . S
C11 C12 1.394 . S
C12 H2 0.929 . S
C12 C8 1.377 . S
C12 C11 1.394 . S
H13 C20 0.929 . S
H14 C23 0.930 . S
H15 C25 0.929 . S
H16 C17 0.969 . S
C17 H16 0.969 . S
C17 O18 1.550 . S
C17 H19 0.973 . S
O18 C17 1.550 . S
O18 C24 1.412 . S
H19 C17 0.973 . S
C20 H13 0.929 . S
C20 C21 1.400 . S
C20 C22 1.364 . S
C21 C20 1.400 . S
C21 C25 1.377 . S
C22 C20 1.364 . S
C22 C23 1.374 . S
C23 H14 0.930 . S
C23 C22 1.374 . S
C23 C24 1.383 . S
C24 O18 1.412 . S
C24 C23 1.383 . S
C24 C25 1.394 . S
C25 H15 0.929 . S
C25 C21 1.377 . S
C25 C24 1.394 . S
H26 C33 0.929 . S
H27 C36 0.930 . S
H28 C38 0.929 . S
H29 C30 0.969 . S
C30 H29 0.969 . S
C30 O31 1.550 . S
C30 H32 0.973 . S
O31 C30 1.550 . S
O31 C37 1.412 . S
H32 C30 0.973 . S
C33 H26 0.929 . S
C33 C34 1.400 . S
C33 C35 1.364 . S
C34 C33 1.400 . S
C34 C38 1.377 . S
C35 C33 1.364 . S
C35 C36 1.374 . S
C36 H27 0.930 . S
C36 C35 1.374 . S
C36 C37 1.383 . S
C37 O31 1.412 . S
C37 C36 1.383 . S
C37 C38 1.394 . S
C38 H28 0.929 . S
C38 C34 1.377 . S
C38 C37 1.394 . S
H39 C46 0.929 . S
H40 C49 0.930 . S
H41 C51 0.929 . S
H42 C43 0.969 . S
C43 H42 0.969 . S
C43 O44 1.550 . S
C43 H45 0.973 . S
O44 C43 1.550 . S
O44 C50 1.412 . S
H45 C43 0.973 . S
C46 H39 0.929 . S
C46 C47 1.400 . S
C46 C48 1.364 . S
C47 C46 1.400 . S
C47 C51 1.377 . S
C48 C46 1.364 . S
C48 C49 1.374 . S
C49 H40 0.930 . S
C49 C48 1.374 . S
C49 C50 1.383 . S
C50 O44 1.412 . S
C50 C49 1.383 . S
C50 C51 1.394 . S
C51 H41 0.929 . S
C51 C47 1.377 . S
C51 C50 1.394 . S
H52 C59 0.929 . S
H53 C62 0.930 . S
H54 C64 0.929 . S
H55 C56 0.969 . S
C56 H55 0.969 . S
C56 O57 1.550 . S
C56 H58 0.973 . S
O57 C56 1.550 . S
O57 C63 1.412 . S
H58 C56 0.973 . S
C59 H52 0.929 . S
C59 C60 1.400 1_554 S
C59 C61 1.364 . S
C60 C59 1.400 1_556 S
C60 C64 1.377 . S
C61 C59 1.364 . S
C61 C62 1.374 . S
C62 H53 0.930 . S
C62 C61 1.374 . S
C62 C63 1.383 . S
C63 O57 1.412 . S
C63 C62 1.383 . S
C63 C64 1.394 1_554 S
C64 H54 0.929 . S
C64 C60 1.377 . S
C64 C63 1.394 1_556 S
H65 C72 0.929 . S
H66 C75 0.930 . S
H67 C77 0.929 . S
H68 C69 0.969 . S
C69 H68 0.969 . S
C69 O70 1.550 . S
C69 H71 0.973 . S
O70 C69 1.550 . S
O70 C76 1.412 . S
H71 C69 0.973 . S
C72 H65 0.929 . S
C72 C73 1.400 1_554 S
C72 C74 1.364 . S
C73 C72 1.400 1_556 S
C73 C77 1.377 . S
C74 C72 1.364 . S
C74 C75 1.374 . S
C75 H66 0.930 . S
C75 C74 1.374 . S
C75 C76 1.383 . S
C76 O70 1.412 . S
C76 C75 1.383 . S
C76 C77 1.394 1_554 S
C77 H67 0.929 . S
C77 C73 1.377 . S
C77 C76 1.394 1_556 S
H78 C85 0.929 . S
H79 C88 0.930 . S
H80 C90 0.929 . S
H81 C82 0.969 . S
C82 H81 0.969 . S
C82 O83 1.550 . S
C82 H84 0.973 . S
O83 C82 1.550 . S
O83 C89 1.412 . S
H84 C82 0.973 . S
C85 H78 0.929 . S
C85 C86 1.400 1_554 S
C85 C87 1.364 . S
C86 C85 1.400 1_556 S
C86 C90 1.377 . S
C87 C85 1.364 . S
C87 C88 1.374 . S
C88 H79 0.930 . S
C88 C87 1.374 . S
C88 C89 1.383 . S
C89 O83 1.412 . S
C89 C88 1.383 . S
C89 C90 1.394 1_554 S
C90 H80 0.929 . S
C90 C86 1.377 . S
C90 C89 1.394 1_556 S
H91 C98 0.929 . S
H92 C101 0.930 . S
H93 C103 0.929 . S
H94 C95 0.969 . S
C95 H94 0.969 . S
C95 O96 1.550 . S
C95 H97 0.973 . S
O96 C95 1.550 . S
O96 C102 1.412 . S
H97 C95 0.973 . S
C98 H91 0.929 . S
C98 C99 1.400 1_554 S
C98 C100 1.364 . S
C99 C98 1.400 1_556 S
C99 C103 1.377 . S
C100 C98 1.364 . S
C100 C101 1.374 . S
C101 H92 0.930 . S
C101 C100 1.374 . S
C101 C102 1.383 . S
C102 O96 1.412 . S
C102 C101 1.383 . S
C102 C103 1.394 1_554 S
C103 H93 0.929 . S
C103 C99 1.377 . S
C103 C102 1.394 1_556 S
C104 C106 1.422 . S
C104 C108 1.415 . S
C104 N110 1.369 . S
C105 C106 1.421 . S
C105 C107 1.417 . S
C105 C117 1.422 . S
C106 C104 1.422 . S
C106 C105 1.421 . S
C106 N116 1.359 . S
C107 C105 1.417 . S
C107 C109 1.329 . S
C107 H126 0.930 . S
C108 C104 1.415 . S
C108 C109 1.437 . S
C108 C112 1.413 . S
C109 C107 1.329 . S
C109 C108 1.437 . S
C109 H131 0.929 . S
N110 C104 1.369 . S
N110 C111 1.343 . S
N110 Gd115 2.622 1_545 S
C111 N110 1.343 . S
C111 C113 1.395 . S
C111 H123 0.908 1_545 S
C112 C108 1.413 . S
C112 C113 1.348 . S
C112 H128 0.931 . S
C113 C111 1.395 . S
C113 C112 1.348 . S
C113 H129 0.930 . S
Gd114 N134 2.622 . S
Gd114 N141 2.570 . S
Gd114 O148 2.353 1_655 S
Gd114 O149 2.468 1_655 S
Gd114 O150 2.427 . S
Gd114 O152 2.388 . S
Gd114 O153 2.386 1_545 S
Gd114 O157 2.307 1_655 S
Gd114 C167 2.805 . S
Gd115 N110 2.622 1_565 S
Gd115 N116 2.570 1_565 S
Gd115 O147 2.386 1_565 S
Gd115 O151 2.307 1_465 S
Gd115 O154 2.353 . S
Gd115 O155 2.468 . S
Gd115 O156 2.427 . S
Gd115 O158 2.388 . S
Gd115 C179 2.805 . S
N116 C106 1.359 . S
N116 Gd115 2.570 1_545 S
N116 C118 1.343 . S
C117 C105 1.422 . S
C117 C119 1.321 . S
C117 H125 0.931 . S
C118 N116 1.343 . S
C118 C119 1.390 . S
C118 H120 0.931 1_455 S
C119 C117 1.321 . S
C119 C118 1.390 . S
C119 H121 0.930 1_455 S
H120 C118 0.931 1_655 S
H121 C119 0.930 1_655 S
H122 C145 0.931 . S
H123 C111 0.908 1_565 S
H124 C146 0.935 . S
H125 C117 0.931 . S
H126 C107 0.930 . S
H127 C136 0.929 . S
H128 C112 0.931 . S
H129 C113 0.930 . S
H130 C168 0.930 . S
H131 C109 0.929 . S
H132 C137 0.938 . S
H133 C138 0.930 . S
N134 Gd114 2.622 . S
N134 C135 1.369 . S
N134 C136 1.338 . S
C135 N134 1.369 . S
C135 C139 1.415 1_545 S
C135 C142 1.422 . S
C136 H127 0.929 . S
C136 N134 1.338 . S
C136 C138 1.378 . S
C137 H132 0.938 . S
C137 C138 1.339 1_565 S
C137 C139 1.415 . S
C138 H133 0.930 . S
C138 C136 1.378 . S
C138 C137 1.339 1_545 S
C139 C135 1.415 1_565 S
C139 C137 1.415 . S
C139 C169 1.437 . S
H140 C169 0.929 . S
N141 Gd114 2.570 . S
N141 C142 1.359 . S
N141 C145 1.343 1_655 S
C142 C135 1.422 . S
C142 N141 1.359 . S
C142 C144 1.421 1_545 S
C143 C144 1.422 . S
C143 C146 1.337 1_655 S
C143 H170 0.931 . S
C144 C142 1.421 1_565 S
C144 C143 1.422 . S
C144 C168 1.417 . S
C145 H122 0.931 . S
C145 N141 1.343 1_455 S
C145 C146 1.372 1_545 S
C146 H124 0.935 . S
C146 C143 1.337 1_455 S
C146 C145 1.372 1_565 S
O147 Gd115 2.386 1_545 S
O147 C159 1.265 . S
O148 Gd114 2.353 1_455 S
O148 C159 1.242 . S
O149 Gd114 2.468 1_455 S
O149 C167 1.263 1_455 S
O150 Gd114 2.427 . S
O150 C167 1.252 . S
O151 Gd115 2.307 1_645 S
O151 C160 1.261 . S
O152 Gd114 2.388 . S
O152 C160 1.252 . S
O153 Gd114 2.386 1_565 S
O153 C171 1.265 . S
O154 Gd115 2.353 . S
O154 C171 1.242 1_455 S
O155 Gd115 2.468 . S
O155 C179 1.263 . S
O156 Gd115 2.427 . S
O156 C179 1.252 . S
O157 Gd114 2.307 1_455 S
O157 C172 1.261 . S
O158 Gd115 2.388 . S
O158 C172 1.252 1_565 S
C159 O147 1.265 . S
C159 O148 1.242 . S
C160 O151 1.261 . S
C160 O152 1.252 . S
C161 C164 1.394 . S
C161 C166 1.346 1_655 S
C161 C167 1.500 . S
C162 C165 1.383 . S
C162 C166 1.392 1_655 S
C163 C164 1.396 . S
C163 C165 1.365 . S
C163 H180 0.929 . S
C164 C161 1.394 . S
C164 C163 1.396 . S
C164 H181 0.930 . S
C165 C162 1.383 . S
C165 C163 1.365 . S
C165 H182 0.931 . S
C166 C161 1.346 1_455 S
C166 C162 1.392 1_455 S
C166 H183 0.959 . S
C167 Gd114 2.805 . S
C167 O149 1.263 1_655 S
C167 O150 1.252 . S
C167 C161 1.500 . S
C168 H130 0.930 . S
C168 C144 1.417 . S
C168 C169 1.329 . S
C169 C139 1.437 . S
C169 H140 0.929 . S
C169 C168 1.329 . S
H170 C143 0.931 . S
C171 O153 1.265 . S
C171 O154 1.242 1_655 S
C172 O157 1.261 . S
C172 O158 1.252 1_545 S
C173 C176 1.394 . S
C173 C178 1.370 . S
C173 C179 1.500 . S
C174 C177 1.383 . S
C174 C178 1.395 . S
C175 C176 1.396 . S
C175 C177 1.365 . S
C175 H184 0.929 . S
C176 C173 1.394 . S
C176 C175 1.396 . S
C176 H185 0.930 . S
C177 C174 1.383 . S
C177 C175 1.365 . S
C177 H186 0.931 . S
C178 C173 1.370 . S
C178 C174 1.395 . S
C178 H187 0.892 1_455 S
C179 Gd115 2.805 . S
C179 O155 1.263 . S
C179 O156 1.252 . S
C179 C173 1.500 . S
H180 C163 0.929 . S
H181 C164 0.930 . S
H182 C165 0.931 . S
H183 C166 0.959 . S
H184 C175 0.929 . S
H185 C176 0.930 . S
H186 C177 0.931 . S
H187 C178 0.892 1_655 S
C188 C190 1.422 . S
C188 C192 1.415 . S
C188 N194 1.369 . S
C189 C190 1.421 . S
C189 C191 1.417 . S
C189 C201 1.422 . S
C190 C188 1.422 . S
C190 C189 1.421 . S
C190 N200 1.359 . S
C191 C189 1.417 . S
C191 C193 1.329 . S
C191 H210 0.930 . S
C192 C188 1.415 . S
C192 C193 1.437 . S
C192 C196 1.413 . S
C193 C191 1.329 . S
C193 C192 1.437 . S
C193 H215 0.929 . S
N194 C188 1.369 . S
N194 C195 1.338 . S
N194 Gd199 2.622 . S
C195 N194 1.338 . S
C195 C197 1.378 . S
C195 H207 0.929 . S
C196 C192 1.413 . S
C196 C197 1.348 . S
C196 H212 0.931 . S
C197 C195 1.378 . S
C197 C196 1.348 . S
C197 H213 0.930 . S
Gd198 N218 2.622 . S
Gd198 N225 2.570 . S
Gd198 O232 2.353 1_545 S
Gd198 O233 2.468 . S
Gd198 O234 2.427 . S
Gd198 O236 2.388 . S
Gd198 O237 2.386 . S
Gd198 O241 2.307 . S
Gd198 C251 2.805 . S
Gd199 N194 2.622 . S
Gd199 N200 2.570 . S
Gd199 O231 2.386 . S
Gd199 O235 2.307 1_565 S
Gd199 O238 2.353 1_565 S
Gd199 O239 2.476 . S
Gd199 O240 2.427 . S
Gd199 O242 2.388 . S
Gd199 C263 2.805 . S
N200 C190 1.359 . S
N200 Gd199 2.570 . S
N200 C202 1.343 . S
C201 C189 1.422 . S
C201 C203 1.321 . S
C201 H209 0.931 . S
C202 N200 1.343 . S
C202 C203 1.390 . S
C202 H204 0.931 . S
C203 C201 1.321 . S
C203 C202 1.390 . S
C203 H205 0.930 . S
H204 C202 0.931 . S
H205 C203 0.930 . S
H206 C229 0.931 . S
H207 C195 0.929 . S
H208 C230 0.930 . S
H209 C201 0.931 . S
H210 C191 0.930 . S
H211 C220 0.929 . S
H212 C196 0.931 . S
H213 C197 0.930 . S
H214 C252 0.930 . S
H215 C193 0.929 . S
H216 C221 0.931 . S
H217 C222 0.930 . S
N218 Gd198 2.622 . S
N218 C219 1.369 . S
N218 C220 1.338 . S
C219 N218 1.369 . S
C219 C223 1.415 . S
C219 C226 1.422 . S
C220 H211 0.929 . S
C220 N218 1.338 . S
C220 C222 1.378 . S
C221 H216 0.931 . S
C221 C222 1.348 . S
C221 C223 1.413 . S
C222 H217 0.930 . S
C222 C220 1.378 . S
C222 C221 1.348 . S
C223 C219 1.415 . S
C223 C221 1.413 . S
C223 C253 1.437 . S
H224 C253 0.929 . S
N225 Gd198 2.570 . S
N225 C226 1.359 . S
N225 C229 1.343 . S
C226 C219 1.422 . S
C226 N225 1.359 . S
C226 C228 1.421 . S
C227 C228 1.422 . S
C227 C230 1.321 . S
C227 H254 0.931 . S
C228 C226 1.421 . S
C228 C227 1.422 . S
C228 C252 1.417 . S
C229 H206 0.931 . S
C229 N225 1.343 . S
C229 C230 1.390 . S
C230 H208 0.930 . S
C230 C227 1.321 . S
C230 C229 1.390 . S
O231 Gd199 2.386 . S
O231 C243 1.265 . S
O232 Gd198 2.353 1_565 S
O232 C243 1.242 . S
O233 Gd198 2.468 . S
O233 C251 1.263 . S
O234 Gd198 2.427 . S
O234 C251 1.252 . S
O235 Gd199 2.307 1_545 S
O235 C244 1.261 . S
O236 Gd198 2.388 . S
O236 C244 1.252 . S
O237 Gd198 2.386 . S
O237 C255 1.265 . S
O238 Gd199 2.353 1_545 S
O238 C255 1.242 . S
O239 Gd199 2.476 . S
O239 C263 1.269 . S
O240 Gd199 2.427 . S
O240 C263 1.252 . S
O241 Gd198 2.307 . S
O241 C256 1.261 . S
O242 Gd199 2.388 . S
O242 C256 1.252 1_565 S
C243 O231 1.265 . S
C243 O232 1.242 . S
C244 O235 1.261 . S
C244 O236 1.252 . S
C245 C248 1.394 . S
C245 C250 1.370 . S
C245 C251 1.500 . S
C246 C249 1.383 . S
C246 C250 1.395 . S
C247 C248 1.396 . S
C247 C249 1.365 . S
C247 H264 0.929 1_556 S
C248 C245 1.394 . S
C248 C247 1.396 . S
C248 H265 0.930 . S
C249 C246 1.383 . S
C249 C247 1.365 . S
C249 H266 0.931 . S
C250 C245 1.370 . S
C250 C246 1.395 . S
C250 H267 0.930 . S
C251 Gd198 2.805 . S
C251 O233 1.263 . S
C251 O234 1.252 . S
C251 C245 1.500 . S
C252 H214 0.930 . S
C252 C228 1.417 . S
C252 C253 1.329 . S
C253 C223 1.437 . S
C253 H224 0.929 . S
C253 C252 1.329 . S
H254 C227 0.931 . S
C255 O237 1.265 . S
C255 O238 1.242 . S
C256 O241 1.261 . S
C256 O242 1.252 1_545 S
C257 C260 1.399 . S
C257 C262 1.363 1_565 S
C257 C263 1.503 . S
C258 C261 1.383 . S
C258 C262 1.395 . S
C259 C260 1.396 . S
C259 C261 1.365 1_565 S
C259 H268 0.929 . S
C260 C257 1.399 . S
C260 C259 1.396 . S
C260 H269 0.930 . S
C261 C258 1.383 . S
C261 C259 1.365 1_545 S
C261 H270 0.931 . S
C262 C257 1.363 1_545 S
C262 C258 1.395 . S
C262 H271 0.930 . S
C263 Gd199 2.805 . S
C263 O239 1.269 . S
C263 O240 1.252 . S
C263 C257 1.503 . S
H264 C247 0.929 1_554 S
H265 C248 0.930 . S
H266 C249 0.931 . S
H267 C250 0.930 . S
H268 C259 0.929 . S
H269 C260 0.930 . S
H270 C261 0.931 . S
H271 C262 0.930 . S
C272 C274 1.422 . S
C272 C276 1.415 . S
C272 N278 1.369 . S
C273 C274 1.421 . S
C273 C275 1.417 . S
C273 C285 1.422 . S
C274 C272 1.422 . S
C274 C273 1.421 . S
C274 N284 1.359 . S
C275 C273 1.417 . S
C275 C277 1.329 . S
C275 H294 0.930 . S
C276 C272 1.415 . S
C276 C277 1.437 . S
C276 C280 1.413 . S
C277 C275 1.329 . S
C277 C276 1.437 . S
C277 H299 0.929 . S
N278 C272 1.369 . S
N278 C279 1.338 . S
N278 Gd283 2.622 . S
C279 N278 1.338 . S
C279 C281 1.378 . S
C279 H291 0.929 . S
C280 C276 1.413 . S
C280 C281 1.348 . S
C280 H296 0.931 . S
C281 C279 1.378 . S
C281 C280 1.348 . S
C281 H297 0.930 . S
Gd282 N302 2.622 . S
Gd282 N309 2.570 . S
Gd282 O316 2.353 . S
Gd282 O317 2.468 . S
Gd282 O318 2.427 . S
Gd282 O320 2.388 . S
Gd282 O321 2.386 . S
Gd282 O325 2.307 . S
Gd282 C335 2.805 . S
Gd283 N278 2.622 . S
Gd283 N284 2.570 . S
Gd283 O315 2.386 . S
Gd283 O319 2.307 . S
Gd283 O322 2.353 . S
Gd283 O323 2.468 . S
Gd283 O324 2.427 . S
Gd283 O326 2.388 . S
Gd283 C347 2.805 . S
N284 C274 1.359 . S
N284 Gd283 2.570 . S
N284 C286 1.343 . S
C285 C273 1.422 . S
C285 C287 1.321 . S
C285 H293 0.931 . S
C286 N284 1.343 . S
C286 C287 1.390 . S
C286 H288 0.931 . S
C287 C285 1.321 . S
C287 C286 1.390 . S
C287 H289 0.930 . S
H288 C286 0.931 . S
H289 C287 0.930 . S
H290 C313 0.931 . S
H291 C279 0.929 . S
H292 C314 0.930 . S
H293 C285 0.931 . S
H294 C275 0.930 . S
H295 C304 0.929 . S
H296 C280 0.931 . S
H297 C281 0.930 . S
H298 C336 0.930 . S
H299 C277 0.929 . S
H300 C305 0.931 . S
H301 C306 0.930 . S
N302 Gd282 2.622 . S
N302 C303 1.369 . S
N302 C304 1.338 . S
C303 N302 1.369 . S
C303 C307 1.415 . S
C303 C310 1.422 . S
C304 H295 0.929 . S
C304 N302 1.338 . S
C304 C306 1.378 . S
C305 H300 0.931 . S
C305 C306 1.348 . S
C305 C307 1.413 . S
C306 H301 0.930 . S
C306 C304 1.378 . S
C306 C305 1.348 . S
C307 C303 1.415 . S
C307 C305 1.413 . S
C307 C337 1.437 . S
H308 C337 0.929 . S
N309 Gd282 2.570 . S
N309 C310 1.359 . S
N309 C313 1.343 . S
C310 C303 1.422 . S
C310 N309 1.359 . S
C310 C312 1.421 . S
C311 C312 1.422 . S
C311 C314 1.321 . S
C311 H338 0.931 . S
C312 C310 1.421 . S
C312 C311 1.422 . S
C312 C336 1.417 . S
C313 H290 0.931 . S
C313 N309 1.343 . S
C313 C314 1.390 . S
C314 H292 0.930 . S
C314 C311 1.321 . S
C314 C313 1.390 . S
O315 Gd283 2.386 . S
O315 C327 1.265 . S
O316 Gd282 2.353 . S
O316 C327 1.242 . S
O317 Gd282 2.468 . S
O317 C335 1.263 . S
O318 Gd282 2.427 . S
O318 C335 1.252 . S
O319 Gd283 2.307 . S
O319 C328 1.261 . S
O320 Gd282 2.388 . S
O320 C328 1.252 . S
O321 Gd282 2.386 . S
O321 C339 1.265 . S
O322 Gd283 2.353 . S
O322 C339 1.242 . S
O323 Gd283 2.468 . S
O323 C347 1.263 . S
O324 Gd283 2.427 . S
O324 C347 1.252 . S
O325 Gd282 2.307 . S
O325 C340 1.261 . S
O326 Gd283 2.388 . S
O326 C340 1.252 . S
C327 O315 1.265 . S
C327 O316 1.242 . S
C328 O319 1.261 . S
C328 O320 1.252 . S
C329 C332 1.394 . S
C329 C334 1.370 . S
C329 C335 1.500 . S
C330 C333 1.383 . S
C330 C334 1.395 . S
C331 C332 1.396 . S
C331 C333 1.365 . S
C331 H348 0.929 . S
C332 C329 1.394 . S
C332 C331 1.396 . S
C332 H349 0.930 . S
C333 C330 1.383 . S
C333 C331 1.365 . S
C333 H350 0.931 . S
C334 C329 1.370 . S
C334 C330 1.395 . S
C334 H351 0.930 . S
C335 Gd282 2.805 . S
C335 O317 1.263 . S
C335 O318 1.252 . S
C335 C329 1.500 . S
C336 H298 0.930 . S
C336 C312 1.417 . S
C336 C337 1.329 . S
C337 C307 1.437 . S
C337 H308 0.929 . S
C337 C336 1.329 . S
H338 C311 0.931 . S
C339 O321 1.265 . S
C339 O322 1.242 . S
C340 O325 1.261 . S
C340 O326 1.252 . S
C341 C344 1.394 . S
C341 C346 1.370 . S
C341 C347 1.500 . S
C342 C345 1.383 . S
C342 C346 1.395 . S
C343 C344 1.396 . S
C343 C345 1.365 . S
C343 H352 0.929 . S
C344 C341 1.394 . S
C344 C343 1.396 . S
C344 H353 0.930 . S
C345 C342 1.383 . S
C345 C343 1.365 . S
C345 H354 0.931 . S
C346 C341 1.370 . S
C346 C342 1.395 . S
C346 H355 0.930 . S
C347 Gd283 2.805 . S
C347 O323 1.263 . S
C347 O324 1.252 . S
C347 C341 1.500 . S
H348 C331 0.929 . S
H349 C332 0.930 . S
H350 C333 0.931 . S
H351 C334 0.930 . S
H352 C343 0.929 . S
H353 C344 0.930 . S
H354 C345 0.931 . S
H355 C346 0.930 . S
C356 C358 1.422 . S
C356 C360 1.415 . S
C356 N362 1.353 1_455 S
C357 C358 1.421 . S
C357 C359 1.417 . S
C357 C369 1.422 . S
C358 C356 1.422 . S
C358 C357 1.421 . S
C358 N368 1.359 . S
C359 C357 1.417 . S
C359 C361 1.329 . S
C359 H378 0.930 . S
C360 C356 1.415 . S
C360 C361 1.437 . S
C360 C364 1.413 . S
C361 C359 1.329 . S
C361 C360 1.437 . S
C361 H383 0.929 . S
N362 C356 1.353 1_655 S
N362 C363 1.342 . S
N362 Gd367 2.631 . S
C363 N362 1.342 . S
C363 C365 1.378 1_655 S
C363 H375 0.929 . S
C364 C360 1.413 . S
C364 C365 1.348 . S
C364 H380 0.931 . S
C365 C363 1.378 1_455 S
C365 C364 1.348 . S
C365 H381 0.930 . S
Gd366 N386 2.622 . S
Gd366 N393 2.570 . S
Gd366 O400 2.353 . S
Gd366 O401 2.468 . S
Gd366 O402 2.427 . S
Gd366 O404 2.388 . S
Gd366 O405 2.386 1_455 S
Gd366 O409 2.307 . S
Gd366 C419 2.805 . S
Gd367 N362 2.631 . S
Gd367 N368 2.570 1_655 S
Gd367 O399 2.386 1_655 S
Gd367 O403 2.293 1_655 S
Gd367 O406 2.353 . S
Gd367 O407 2.468 . S
Gd367 O408 2.427 . S
Gd367 O410 2.388 . S
Gd367 C431 2.805 . S
N368 C358 1.359 . S
N368 Gd367 2.570 1_455 S
N368 C370 1.343 . S
C369 C357 1.422 . S
C369 C371 1.321 . S
C369 H377 0.931 . S
C370 N368 1.343 . S
C370 C371 1.390 . S
C370 H372 0.939 . S
C371 C369 1.321 . S
C371 C370 1.390 . S
C371 H373 0.930 . S
H372 C370 0.939 . S
H373 C371 0.930 . S
H374 C397 0.931 . S
H375 C363 0.929 . S
H376 C398 0.930 . S
H377 C369 0.931 . S
H378 C359 0.930 . S
H379 C388 0.929 . S
H380 C364 0.931 . S
H381 C365 0.930 . S
H382 C420 0.930 . S
H383 C361 0.929 . S
H384 C389 0.931 . S
H385 C390 0.930 . S
N386 Gd366 2.622 . S
N386 C387 1.369 . S
N386 C388 1.338 . S
C387 N386 1.369 . S
C387 C391 1.415 1_455 S
C387 C394 1.422 . S
C388 H379 0.929 . S
C388 N386 1.338 . S
C388 C390 1.378 . S
C389 H384 0.931 . S
C389 C390 1.348 1_655 S
C389 C391 1.413 . S
C390 H385 0.930 . S
C390 C388 1.378 . S
C390 C389 1.348 1_455 S
C391 C387 1.415 1_655 S
C391 C389 1.413 . S
C391 C421 1.437 . S
H392 C421 0.929 . S
N393 Gd366 2.570 . S
N393 C394 1.359 . S
N393 C397 1.343 . S
C394 C387 1.422 . S
C394 N393 1.359 . S
C394 C396 1.421 1_455 S
C395 C396 1.422 . S
C395 C398 1.321 . S
C395 H422 0.931 . S
C396 C394 1.421 1_655 S
C396 C395 1.422 . S
C396 C420 1.417 . S
C397 H374 0.931 . S
C397 N393 1.343 . S
C397 C398 1.390 1_455 S
C398 H376 0.930 . S
C398 C395 1.321 . S
C398 C397 1.390 1_655 S
O399 Gd367 2.386 1_455 S
O399 C411 1.265 . S
O400 Gd366 2.353 . S
O400 C411 1.242 . S
O401 Gd366 2.468 . S
O401 C419 1.263 . S
O402 Gd366 2.427 . S
O402 C419 1.252 . S
O403 Gd367 2.293 1_455 S
O403 C412 1.274 . S
O404 Gd366 2.388 . S
O404 C412 1.252 . S
O405 Gd366 2.386 1_655 S
O405 C423 1.265 . S
O406 Gd367 2.353 . S
O406 C423 1.242 . S
O407 Gd367 2.468 . S
O407 C431 1.263 . S
O408 Gd367 2.427 . S
O408 C431 1.252 . S
O409 Gd366 2.307 . S
O409 C424 1.261 . S
O410 Gd367 2.388 . S
O410 C424 1.252 1_655 S
C411 O399 1.265 . S
C411 O400 1.242 . S
C412 O403 1.274 . S
C412 O404 1.252 . S
C413 C416 1.394 . S
C413 C418 1.370 . S
C413 C419 1.500 . S
C414 C417 1.383 . S
C414 C418 1.395 . S
C415 C416 1.396 . S
C415 C417 1.365 . S
C415 H432 0.929 . S
C416 C413 1.394 . S
C416 C415 1.396 . S
C416 H433 0.930 . S
C417 C414 1.383 . S
C417 C415 1.365 . S
C417 H434 0.931 . S
C418 C413 1.370 . S
C418 C414 1.395 . S
C418 H435 0.930 . S
C419 Gd366 2.805 . S
C419 O401 1.263 . S
C419 O402 1.252 . S
C419 C413 1.500 . S
C420 H382 0.930 . S
C420 C396 1.417 . S
C420 C421 1.329 . S
C421 C391 1.437 . S
C421 H392 0.929 . S
C421 C420 1.329 . S
H422 C395 0.931 . S
C423 O405 1.265 . S
C423 O406 1.242 . S
C424 O409 1.261 . S
C424 O410 1.252 1_455 S
C425 C428 1.394 . S
C425 C430 1.370 . S
C425 C431 1.500 . S
C426 C429 1.383 . S
C426 C430 1.395 . S
C427 C428 1.396 . S
C427 C429 1.365 . S
C427 H436 0.929 . S
C428 C425 1.394 . S
C428 C427 1.396 . S
C428 H437 0.930 . S
C429 C426 1.383 . S
C429 C427 1.365 . S
C429 H438 0.931 . S
C430 C425 1.370 . S
C430 C426 1.395 . S
C430 H439 0.930 . S
C431 Gd367 2.805 . S
C431 O407 1.263 . S
C431 O408 1.252 . S
C431 C425 1.500 . S
H432 C415 0.929 . S
H433 C416 0.930 . S
H434 C417 0.931 . S
H435 C418 0.930 . S
H436 C427 0.929 . S
H437 C428 0.930 . S
H438 C429 0.931 . S
H439 C430 0.930 . S
H440 C448 0.929 . S
H441 C450 0.930 . S
H442 C452 0.930 . S
H443 C455 0.929 . S
H444 C458 0.930 . S
H445 C460 0.960 . S
H446 C460 0.960 . S
H447 C460 0.960 . S
C448 H440 0.929 . S
C448 C449 1.377 . S
C448 C450 1.384 . S
C449 C448 1.377 . S
C449 C455 1.390 . S
C450 H441 0.930 . S
C450 C448 1.384 . S
C450 C451 1.372 . S
C451 C450 1.372 . S
C451 C452 1.400 . S
C451 C456 1.490 . S
C452 H442 0.930 . S
C452 C451 1.400 . S
C452 C455 1.386 . S
H453 C469 0.930 1_565 S
H454 C470 0.918 1_565 S
C455 H443 0.929 . S
C455 C449 1.390 . S
C455 C452 1.386 . S
C456 C451 1.490 . S
C456 C458 1.395 . S
C456 C459 1.403 . S
H457 C463 0.930 . S
C458 H444 0.930 . S
C458 C456 1.395 . S
C458 C461 1.403 . S
C459 C456 1.403 . S
C459 C460 1.524 . S
C459 C463 1.400 . S
C460 H445 0.960 . S
C460 H446 0.960 . S
C460 H447 0.960 . S
C460 C459 1.524 . S
C461 C458 1.403 . S
C461 C462 1.392 . S
C461 C465 1.495 . S
C462 C461 1.392 . S
C462 C463 1.385 . S
C462 C464 1.478 . S
C463 H457 0.930 . S
C463 C459 1.400 . S
C463 C462 1.385 . S
C464 C462 1.478 . S
C464 C466 1.381 . S
C464 C470 1.383 . S
C465 C461 1.495 . S
C465 H471 0.959 . S
C465 H472 0.961 1_545 S
C465 H473 0.960 . S
C466 C464 1.381 . S
C466 C467 1.394 . S
C466 H474 0.930 . S
C467 C466 1.394 . S
C467 C468 1.383 . S
C467 H475 0.929 . S
C468 C467 1.383 . S
C468 C469 1.377 . S
C469 H453 0.930 1_545 S
C469 C468 1.377 . S
C469 C470 1.379 . S
C470 H454 0.918 1_545 S
C470 C464 1.383 . S
C470 C469 1.379 . S
H471 C465 0.959 . S
H472 C465 0.961 1_565 S
H473 C465 0.960 . S
H474 C466 0.930 . S
H475 C467 0.929 . S
H476 C484 0.929 . S
H477 C486 0.930 . S
H478 C488 0.930 . S
H479 C491 0.929 . S
H480 C494 0.930 . S
H481 C496 0.960 . S
H482 C496 0.960 . S
H483 C496 0.960 . S
C484 H476 0.929 . S
C484 C485 1.377 . S
C484 C486 1.384 . S
C485 C484 1.377 . S
C485 C491 1.390 . S
C486 H477 0.930 . S
C486 C484 1.384 . S
C486 C487 1.372 . S
C487 C486 1.372 . S
C487 C488 1.400 . S
C487 C492 1.490 . S
C488 H478 0.930 . S
C488 C487 1.400 . S
C488 C491 1.386 . S
H489 C505 0.930 . S
H490 C506 0.931 . S
C491 H479 0.929 . S
C491 C485 1.390 . S
C491 C488 1.386 . S
C492 C487 1.490 . S
C492 C494 1.395 . S
C492 C495 1.403 . S
H493 C499 0.930 . S
C494 H480 0.930 . S
C494 C492 1.395 . S
C494 C497 1.403 . S
C495 C492 1.403 . S
C495 C496 1.524 . S
C495 C499 1.400 . S
C496 H481 0.960 . S
C496 H482 0.960 . S
C496 H483 0.960 . S
C496 C495 1.524 . S
C497 C494 1.403 . S
C497 C498 1.392 . S
C497 C501 1.495 . S
C498 C497 1.392 . S
C498 C499 1.385 . S
C498 C500 1.478 . S
C499 H493 0.930 . S
C499 C495 1.400 . S
C499 C498 1.385 . S
C500 C498 1.478 . S
C500 C502 1.381 . S
C500 C506 1.383 . S
C501 C497 1.495 . S
C501 H507 0.959 . S
C501 H508 0.961 . S
C501 H509 0.960 . S
C502 C500 1.381 . S
C502 C503 1.394 . S
C502 H510 0.930 . S
C503 C502 1.394 . S
C503 C504 1.383 . S
C503 H511 0.929 . S
C504 C503 1.383 . S
C504 C505 1.377 . S
C505 H489 0.930 . S
C505 C504 1.377 . S
C505 C506 1.379 . S
C506 H490 0.931 . S
C506 C500 1.383 . S
C506 C505 1.379 . S
H507 C501 0.959 . S
H508 C501 0.961 . S
H509 C501 0.960 . S
H510 C502 0.930 . S
H511 C503 0.929 . S
H512 C520 0.929 . S
H513 C522 0.930 . S
H514 C524 0.930 . S
H515 C527 0.929 . S
H516 C530 0.930 . S
H517 C532 0.960 . S
H518 C532 0.960 . S
H519 C532 0.960 . S
C520 H512 0.929 . S
C520 C521 1.377 . S
C520 C522 1.384 . S
C521 C520 1.377 . S
C521 C527 1.390 . S
C522 H513 0.930 . S
C522 C520 1.384 . S
C522 C523 1.372 . S
C523 C522 1.372 . S
C523 C524 1.400 . S
C523 C528 1.490 . S
C524 H514 0.930 . S
C524 C523 1.400 . S
C524 C527 1.386 . S
H525 C541 0.930 . S
H526 C542 0.931 . S
C527 H515 0.929 . S
C527 C521 1.390 . S
C527 C524 1.386 . S
C528 C523 1.490 . S
C528 C530 1.395 . S
C528 C531 1.403 . S
H529 C535 0.930 . S
C530 H516 0.930 . S
C530 C528 1.395 . S
C530 C533 1.403 . S
C531 C528 1.403 . S
C531 C532 1.524 . S
C531 C535 1.400 . S
C532 H517 0.960 . S
C532 H518 0.960 . S
C532 H519 0.960 . S
C532 C531 1.524 . S
C533 C530 1.403 . S
C533 C534 1.392 . S
C533 C537 1.495 . S
C534 C533 1.392 . S
C534 C535 1.385 . S
C534 C536 1.478 . S
C535 H529 0.930 . S
C535 C531 1.400 . S
C535 C534 1.385 . S
C536 C534 1.478 . S
C536 C538 1.381 . S
C536 C542 1.383 . S
C537 C533 1.495 . S
C537 H543 0.959 . S
C537 H544 0.961 . S
C537 H545 0.960 . S
C538 C536 1.381 . S
C538 C539 1.394 . S
C538 H546 0.930 . S
C539 C538 1.394 . S
C539 C540 1.383 . S
C539 H547 0.929 . S
C540 C539 1.383 . S
C540 C541 1.377 . S
C541 H525 0.930 . S
C541 C540 1.377 . S
C541 C542 1.379 . S
C542 H526 0.931 . S
C542 C536 1.383 . S
C542 C541 1.379 . S
H543 C537 0.959 . S
H544 C537 0.961 . S
H545 C537 0.960 . S
H546 C538 0.930 . S
H547 C539 0.929 . S
H548 C556 0.929 . S
H549 C558 0.930 . S
H550 C560 0.930 . S
H551 C563 0.929 . S
H552 C566 0.930 . S
H553 C568 0.960 . S
H554 C568 0.960 . S
H555 C568 0.960 . S
C556 H548 0.929 . S
C556 C557 1.377 . S
C556 C558 1.384 . S
C557 C556 1.377 . S
C557 C563 1.390 . S
C558 H549 0.930 . S
C558 C556 1.384 . S
C558 C559 1.372 . S
C559 C558 1.372 . S
C559 C560 1.400 . S
C559 C564 1.490 . S
C560 H550 0.930 . S
C560 C559 1.400 . S
C560 C563 1.386 . S
H561 C577 0.935 . S
H562 C578 0.931 1_655 S
C563 H551 0.929 . S
C563 C557 1.390 . S
C563 C560 1.386 . S
C564 C559 1.490 . S
C564 C566 1.395 . S
C564 C567 1.403 . S
H565 C571 0.930 . S
C566 H552 0.930 . S
C566 C564 1.395 . S
C566 C569 1.403 . S
C567 C564 1.403 . S
C567 C568 1.524 . S
C567 C571 1.400 . S
C568 H553 0.960 . S
C568 H554 0.960 . S
C568 H555 0.960 . S
C568 C567 1.524 . S
C569 C566 1.403 . S
C569 C570 1.392 . S
C569 C573 1.495 . S
C570 C569 1.392 . S
C570 C571 1.385 . S
C570 C572 1.478 . S
C571 H565 0.930 . S
C571 C567 1.400 . S
C571 C570 1.385 . S
C572 C570 1.478 . S
C572 C574 1.381 . S
C572 C578 1.383 . S
C573 C569 1.495 . S
C573 H579 0.959 . S
C573 H580 0.961 . S
C573 H581 0.960 . S
C574 C572 1.381 . S
C574 C575 1.394 . S
C574 H582 0.930 . S
C575 C574 1.394 . S
C575 C576 1.383 . S
C575 H583 0.929 . S
C576 C575 1.383 . S
C576 C577 1.372 1_455 S
C577 H561 0.935 . S
C577 C576 1.372 1_655 S
C577 C578 1.379 1_655 S
C578 H562 0.931 1_455 S
C578 C572 1.383 . S
C578 C577 1.379 1_455 S
H579 C573 0.959 . S
H580 C573 0.961 . S
H581 C573 0.960 . S
H582 C574 0.930 . S
H583 C575 0.929 . S
H584 C592 0.929 1_545 S
H585 C594 0.930 1_545 S
H586 C596 0.930 . S
H587 C599 0.929 . S
H588 C602 0.930 . S
H589 C604 0.960 . S
H590 C604 0.928 1_545 S
H591 C604 0.960 . S
C592 H584 0.929 1_565 S
C592 C593 1.377 . S
C592 C594 1.384 . S
C593 C592 1.377 . S
C593 C599 1.390 . S
C594 H585 0.930 1_565 S
C594 C592 1.384 . S
C594 C595 1.372 . S
C595 C594 1.372 . S
C595 C596 1.400 . S
C595 C600 1.490 . S
C596 H586 0.930 . S
C596 C595 1.400 . S
C596 C599 1.386 . S
H597 C613 0.930 . S
H598 C614 0.931 . S
C599 H587 0.929 . S
C599 C593 1.390 . S
C599 C596 1.386 . S
C600 C595 1.490 . S
C600 C602 1.395 . S
C600 C603 1.402 1_554 S
H601 C607 0.930 . S
C602 H588 0.930 . S
C602 C600 1.395 . S
C602 C605 1.403 1_554 S
C603 C600 1.402 1_556 S
C603 C604 1.524 . S
C603 C607 1.400 . S
C604 H589 0.960 . S
C604 H590 0.928 1_565 S
C604 H591 0.960 . S
C604 C603 1.524 . S
C605 C602 1.403 1_556 S
C605 C606 1.392 . S
C605 C609 1.495 1_556 S
C606 C605 1.392 . S
C606 C607 1.385 . S
C606 C608 1.478 . S
C607 H601 0.930 . S
C607 C603 1.400 . S
C607 C606 1.385 . S
C608 C606 1.478 . S
C608 C610 1.381 1_565 S
C608 C614 1.383 . S
C609 C605 1.495 1_554 S
C609 H615 0.959 . S
C609 H616 0.961 1_554 S
C609 H617 0.960 1_564 S
C610 C608 1.381 1_545 S
C610 C611 1.394 . S
C610 H618 0.930 . S
C611 C610 1.394 . S
C611 C612 1.380 1_545 S
C611 H619 0.929 . S
C612 C611 1.380 1_565 S
C612 C613 1.381 . S
C613 H597 0.930 . S
C613 C612 1.381 . S
C613 C614 1.379 . S
C614 H598 0.931 . S
C614 C608 1.383 . S
C614 C613 1.379 . S
H615 C609 0.959 . S
H616 C609 0.961 1_556 S
H617 C609 0.960 1_546 S
H618 C610 0.930 . S
H619 C611 0.929 . S
H620 C628 0.929 . S
H621 C630 0.930 . S
H622 C632 0.930 . S
H623 C635 0.929 . S
H624 C638 0.930 . S
H625 C640 0.960 . S
H626 C640 0.960 . S
H627 C640 0.960 . S
C628 H620 0.929 . S
C628 C629 1.377 . S
C628 C630 1.384 . S
C629 C628 1.377 . S
C629 C635 1.390 . S
C630 H621 0.930 . S
C630 C628 1.384 . S
C630 C631 1.372 . S
C631 C630 1.372 . S
C631 C632 1.400 . S
C631 C636 1.490 . S
C632 H622 0.930 . S
C632 C631 1.400 . S
C632 C635 1.386 . S
H633 C649 0.930 . S
H634 C650 0.931 . S
C635 H623 0.929 . S
C635 C629 1.390 . S
C635 C632 1.386 . S
C636 C631 1.490 . S
C636 C638 1.395 . S
C636 C639 1.403 1_554 S
H637 C643 0.930 . S
C638 H624 0.930 . S
C638 C636 1.395 . S
C638 C641 1.403 1_554 S
C639 C636 1.403 1_556 S
C639 C640 1.524 . S
C639 C643 1.400 . S
C640 H625 0.960 . S
C640 H626 0.960 . S
C640 H627 0.960 . S
C640 C639 1.524 . S
C641 C638 1.403 1_556 S
C641 C642 1.392 . S
C641 C645 1.495 1_556 S
C642 C641 1.392 . S
C642 C643 1.385 . S
C642 C644 1.478 . S
C643 H637 0.930 . S
C643 C639 1.400 . S
C643 C642 1.385 . S
C644 C642 1.478 . S
C644 C646 1.381 . S
C644 C650 1.383 . S
C645 C641 1.495 1_554 S
C645 H651 0.959 . S
C645 H652 0.961 1_554 S
C645 H653 0.960 1_554 S
C646 C644 1.381 . S
C646 C647 1.394 . S
C646 H654 0.930 . S
C647 C646 1.394 . S
C647 C648 1.383 . S
C647 H655 0.929 . S
C648 C647 1.383 . S
C648 C649 1.377 . S
C649 H633 0.930 . S
C649 C648 1.377 . S
C649 C650 1.379 . S
C650 H634 0.931 . S
C650 C644 1.383 . S
C650 C649 1.379 . S
H651 C645 0.959 . S
H652 C645 0.961 1_556 S
H653 C645 0.960 1_556 S
H654 C646 0.930 . S
H655 C647 0.929 . S
H656 C664 0.929 . S
H657 C666 0.930 . S
H658 C668 0.930 . S
H659 C671 0.929 . S
H660 C674 0.930 . S
H661 C676 0.960 . S
H662 C676 0.960 . S
H663 C676 0.960 . S
C664 H656 0.929 . S
C664 C665 1.377 . S
C664 C666 1.384 . S
C665 C664 1.377 . S
C665 C671 1.390 . S
C666 H657 0.930 . S
C666 C664 1.384 . S
C666 C667 1.372 . S
C667 C666 1.372 . S
C667 C668 1.400 . S
C667 C672 1.490 1_554 S
C668 H658 0.930 . S
C668 C667 1.400 . S
C668 C671 1.386 . S
H669 C685 0.930 . S
H670 C686 0.931 . S
C671 H659 0.929 . S
C671 C665 1.390 . S
C671 C668 1.386 . S
C672 C667 1.490 1_556 S
C672 C674 1.395 . S
C672 C675 1.403 1_556 S
H673 C679 0.930 . S
C674 H660 0.930 . S
C674 C672 1.395 . S
C674 C677 1.403 . S
C675 C672 1.403 1_554 S
C675 C676 1.524 . S
C675 C679 1.400 1_554 S
C676 H661 0.960 . S
C676 H662 0.960 . S
C676 H663 0.960 . S
C676 C675 1.524 . S
C677 C674 1.403 . S
C677 C678 1.392 . S
C677 C681 1.495 . S
C678 C677 1.392 . S
C678 C679 1.385 . S
C678 C680 1.478 . S
C679 H673 0.930 . S
C679 C675 1.400 1_556 S
C679 C678 1.385 . S
C680 C678 1.478 . S
C680 C682 1.381 . S
C680 C686 1.383 . S
C681 C677 1.495 . S
C681 H687 0.959 . S
C681 H688 0.961 . S
C681 H689 0.960 . S
C682 C680 1.381 . S
C682 C683 1.394 . S
C682 H690 0.930 . S
C683 C682 1.394 . S
C683 C684 1.383 . S
C683 H691 0.929 . S
C684 C683 1.383 . S
C684 C685 1.377 . S
C685 H669 0.930 . S
C685 C684 1.377 . S
C685 C686 1.379 . S
C686 H670 0.931 . S
C686 C680 1.383 . S
C686 C685 1.379 . S
H687 C681 0.959 . S
H688 C681 0.961 . S
H689 C681 0.960 . S
H690 C682 0.930 . S
H691 C683 0.929 . S
H692 C700 0.929 . S
H693 C702 0.930 . S
H694 C704 0.930 1_556 S
H695 C707 0.929 . S
H696 C710 0.930 . S
H697 C712 0.960 . S
H698 C712 0.960 . S
H699 C712 0.960 . S
C700 H692 0.929 . S
C700 C701 1.377 . S
C700 C702 1.384 . S
C701 C700 1.377 . S
C701 C707 1.390 . S
C702 H693 0.930 . S
C702 C700 1.384 . S
C702 C703 1.372 . S
C703 C702 1.372 . S
C703 C704 1.400 . S
C703 C708 1.502 . S
C704 H694 0.930 1_554 S
C704 C703 1.400 . S
C704 C707 1.386 . S
H705 C721 0.930 . S
H706 C722 0.931 . S
C707 H695 0.929 . S
C707 C701 1.390 . S
C707 C704 1.386 . S
C708 C703 1.502 . S
C708 C710 1.397 . S
C708 C711 1.389 1_554 S
H709 C715 0.930 1_455 S
C710 H696 0.930 . S
C710 C708 1.397 . S
C710 C713 1.403 1_554 S
C711 C708 1.389 1_556 S
C711 C712 1.524 1_655 S
C711 C715 1.400 . S
C712 H697 0.960 . S
C712 H698 0.960 . S
C712 H699 0.960 . S
C712 C711 1.524 1_455 S
C713 C710 1.403 1_556 S
C713 C714 1.392 . S
C713 C717 1.495 . S
C714 C713 1.392 . S
C714 C715 1.385 . S
C714 C716 1.478 . S
C715 H709 0.930 1_655 S
C715 C711 1.400 . S
C715 C714 1.385 . S
C716 C714 1.478 . S
C716 C718 1.382 1_655 S
C716 C722 1.383 . S
C717 C713 1.495 . S
C717 H723 0.959 1_556 S
C717 H724 0.961 . S
C717 H725 0.960 . S
C718 C716 1.382 1_455 S
C718 C719 1.394 . S
C718 H726 0.930 . S
C719 C718 1.394 . S
C719 C720 1.383 1_455 S
C719 H727 0.929 . S
C720 C719 1.383 1_655 S
C720 C721 1.377 . S
C721 H705 0.930 . S
C721 C720 1.377 . S
C721 C722 1.379 . S
C722 H706 0.931 . S
C722 C716 1.383 . S
C722 C721 1.379 . S
H723 C717 0.959 1_554 S
H724 C717 0.961 . S
H725 C717 0.960 . S
H726 C718 0.930 . S
H727 C719 0.929 . S
H728 C736 0.929 . S
H729 C738 0.930 . S
H730 C740 0.930 . S
H731 C743 0.929 . S
H732 C746 0.930 1_655 S
H733 C748 0.960 . S
H734 C748 0.960 . S
H735 C748 0.960 . S
C736 H728 0.929 . S
C736 C737 1.377 . S
C736 C738 1.384 . S
C737 C736 1.377 . S
C737 C743 1.390 . S
C738 H729 0.930 . S
C738 C736 1.384 . S
C738 C739 1.372 . S
C739 C738 1.372 . S
C739 C740 1.400 . S
C739 C744 1.490 . S
C740 H730 0.930 . S
C740 C739 1.400 . S
C740 C743 1.386 . S
H741 C757 0.930 . S
H742 C758 0.931 . S
C743 H731 0.929 . S
C743 C737 1.390 . S
C743 C740 1.386 . S
C744 C739 1.490 . S
C744 C746 1.395 . S
C744 C747 1.403 . S
H745 C751 0.930 . S
C746 H732 0.930 1_455 S
C746 C744 1.395 . S
C746 C749 1.409 . S
C747 C744 1.403 . S
C747 C748 1.524 . S
C747 C751 1.400 . S
C748 H733 0.960 . S
C748 H734 0.960 . S
C748 H735 0.960 . S
C748 C747 1.524 . S
C749 C746 1.409 . S
C749 C750 1.408 . S
C749 C753 1.474 1_455 S
C750 C749 1.408 . S
C750 C751 1.385 . S
C750 C752 1.478 . S
C751 H745 0.930 . S
C751 C747 1.400 . S
C751 C750 1.385 . S
C752 C750 1.478 . S
C752 C754 1.381 . S
C752 C758 1.383 . S
C753 C749 1.474 1_655 S
C753 H759 0.959 . S
C753 H760 0.961 . S
C753 H761 0.960 . S
C754 C752 1.381 . S
C754 C755 1.394 . S
C754 H762 0.930 . S
C755 C754 1.394 . S
C755 C756 1.383 . S
C755 H763 0.925 1_455 S
C756 C755 1.383 . S
C756 C757 1.377 . S
C757 H741 0.930 . S
C757 C756 1.377 . S
C757 C758 1.379 . S
C758 H742 0.931 . S
C758 C752 1.383 . S
C758 C757 1.379 . S
H759 C753 0.959 . S
H760 C753 0.961 . S
H761 C753 0.960 . S
H762 C754 0.930 . S
H763 C755 0.925 1_655 S
H764 C772 0.929 . S
H765 C774 0.930 . S
H766 C776 0.930 . S
H767 C779 0.929 . S
H768 C782 0.930 . S
H769 C784 0.960 . S
H770 C784 0.960 . S
H771 C784 0.960 . S
C772 H764 0.929 . S
C772 C773 1.377 . S
C772 C774 1.384 . S
C773 C772 1.377 . S
C773 C779 1.390 . S
C774 H765 0.930 . S
C774 C772 1.384 . S
C774 C775 1.372 . S
C775 C774 1.372 . S
C775 C776 1.400 . S
C775 C780 1.490 . S
C776 H766 0.930 . S
C776 C775 1.400 . S
C776 C779 1.386 . S
H777 C793 0.930 . S
H778 C794 0.931 1_565 S
C779 H767 0.929 . S
C779 C773 1.390 . S
C779 C776 1.386 . S
C780 C775 1.490 . S
C780 C782 1.395 . S
C780 C783 1.403 . S
H781 C787 0.930 . S
C782 H768 0.930 . S
C782 C780 1.395 . S
C782 C785 1.403 . S
C783 C780 1.403 . S
C783 C784 1.524 . S
C783 C787 1.400 . S
C784 H769 0.960 . S
C784 H770 0.960 . S
C784 H771 0.960 . S
C784 C783 1.524 . S
C785 C782 1.403 . S
C785 C786 1.392 . S
C785 C789 1.495 . S
C786 C785 1.392 . S
C786 C787 1.385 . S
C786 C788 1.478 . S
C787 H781 0.930 . S
C787 C783 1.400 . S
C787 C786 1.385 . S
C788 C786 1.478 . S
C788 C790 1.381 . S
C788 C794 1.383 . S
C789 C785 1.495 . S
C789 H795 0.959 . S
C789 H796 0.961 1_545 S
C789 H797 0.960 . S
C790 C788 1.381 . S
C790 C791 1.394 . S
C790 H798 0.930 . S
C791 C790 1.394 . S
C791 C792 1.383 . S
C791 H799 0.929 . S
C792 C791 1.383 . S
C792 C793 1.377 1_545 S
C793 H777 0.930 . S
C793 C792 1.377 1_565 S
C793 C794 1.379 1_565 S
C794 H778 0.931 1_545 S
C794 C788 1.383 . S
C794 C793 1.379 1_545 S
H795 C789 0.959 . S
H796 C789 0.961 1_565 S
H797 C789 0.960 . S
H798 C790 0.930 . S
H799 C791 0.929 . S
H800 C808 0.929 . S
H801 C810 0.930 . S
H802 C812 0.930 . S
H803 C815 0.929 . S
H804 C818 0.930 . S
H805 C820 0.960 . S
H806 C820 0.960 . S
H807 C820 0.960 . S
C808 H800 0.929 . S
C808 C809 1.377 . S
C808 C810 1.384 . S
C809 C808 1.377 . S
C809 C815 1.390 . S
C810 H801 0.930 . S
C810 C808 1.384 . S
C810 C811 1.372 . S
C811 C810 1.372 . S
C811 C812 1.400 . S
C811 C816 1.490 . S
C812 H802 0.930 . S
C812 C811 1.400 . S
C812 C815 1.386 . S
H813 C829 0.930 . S
H814 C830 0.931 . S
C815 H803 0.929 . S
C815 C809 1.390 . S
C815 C812 1.386 . S
C816 C811 1.490 . S
C816 C818 1.395 . S
C816 C819 1.403 . S
H817 C823 0.930 . S
C818 H804 0.930 . S
C818 C816 1.395 . S
C818 C821 1.403 . S
C819 C816 1.403 . S
C819 C820 1.524 . S
C819 C823 1.400 . S
C820 H805 0.960 . S
C820 H806 0.960 . S
C820 H807 0.960 . S
C820 C819 1.524 . S
C821 C818 1.403 . S
C821 C822 1.392 . S
C821 C825 1.495 . S
C822 C821 1.392 . S
C822 C823 1.385 . S
C822 C824 1.478 . S
C823 H817 0.930 . S
C823 C819 1.400 . S
C823 C822 1.385 . S
C824 C822 1.478 . S
C824 C826 1.381 . S
C824 C830 1.383 . S
C825 C821 1.495 . S
C825 H831 0.959 . S
C825 H832 0.961 . S
C825 H833 0.960 . S
C826 C824 1.381 . S
C826 C827 1.394 . S
C826 H834 0.930 . S
C827 C826 1.394 . S
C827 C828 1.383 . S
C827 H835 0.929 . S
C828 C827 1.383 . S
C828 C829 1.377 . S
C829 H813 0.930 . S
C829 C828 1.377 . S
C829 C830 1.379 . S
C830 H814 0.931 . S
C830 C824 1.383 . S
C830 C829 1.379 . S
H831 C825 0.959 . S
H832 C825 0.961 . S
H833 C825 0.960 . S
H834 C826 0.930 . S
H835 C827 0.929 . S
H836 C844 0.929 . S
H837 C846 0.930 . S
H838 C848 0.930 . S
H839 C851 0.929 . S
H840 C854 0.930 . S
H841 C856 0.960 . S
H842 C856 0.960 . S
H843 C856 0.960 . S
C844 H836 0.929 . S
C844 C845 1.377 . S
C844 C846 1.384 . S
C845 C844 1.377 . S
C845 C851 1.390 . S
C846 H837 0.930 . S
C846 C844 1.384 . S
C846 C847 1.372 . S
C847 C846 1.372 . S
C847 C848 1.400 . S
C847 C852 1.490 . S
C848 H838 0.930 . S
C848 C847 1.400 . S
C848 C851 1.386 . S
H849 C865 0.930 . S
H850 C866 0.931 . S
C851 H839 0.929 . S
C851 C845 1.390 . S
C851 C848 1.386 . S
C852 C847 1.490 . S
C852 C854 1.395 . S
C852 C855 1.403 . S
H853 C859 0.930 . S
C854 H840 0.930 . S
C854 C852 1.395 . S
C854 C857 1.403 . S
C855 C852 1.403 . S
C855 C856 1.524 . S
C855 C859 1.400 . S
C856 H841 0.960 . S
C856 H842 0.960 . S
C856 H843 0.960 . S
C856 C855 1.524 . S
C857 C854 1.403 . S
C857 C858 1.392 . S
C857 C861 1.495 . S
C858 C857 1.392 . S
C858 C859 1.385 . S
C858 C860 1.478 . S
C859 H853 0.930 . S
C859 C855 1.400 . S
C859 C858 1.385 . S
C860 C858 1.478 . S
C860 C862 1.381 . S
C860 C866 1.383 . S
C861 C857 1.495 . S
C861 H867 0.959 . S
C861 H868 0.961 . S
C861 H869 0.960 . S
C862 C860 1.381 . S
C862 C863 1.394 . S
C862 H870 0.930 . S
C863 C862 1.394 . S
C863 C864 1.383 . S
C863 H871 0.929 . S
C864 C863 1.383 . S
C864 C865 1.377 . S
C865 H849 0.930 . S
C865 C864 1.377 . S
C865 C866 1.379 . S
C866 H850 0.931 . S
C866 C860 1.383 . S
C866 C865 1.379 . S
H867 C861 0.959 . S
H868 C861 0.961 . S
H869 C861 0.960 . S
H870 C862 0.930 . S
H871 C863 0.929 . S
H872 C880 0.929 . S
H873 C882 0.930 . S
H874 C884 0.930 1_455 S
H875 C887 0.929 1_455 S
H876 C890 0.930 . S
H877 C892 0.960 . S
H878 C892 0.960 1_655 S
H879 C892 0.960 1_554 S
C880 H872 0.929 . S
C880 C881 1.377 . S
C880 C882 1.384 . S
C881 C880 1.377 . S
C881 C887 1.390 . S
C882 H873 0.930 . S
C882 C880 1.384 . S
C882 C883 1.372 . S
C883 C882 1.372 . S
C883 C884 1.400 . S
C883 C888 1.490 . S
C884 H874 0.930 1_655 S
C884 C883 1.400 . S
C884 C887 1.386 . S
H885 C901 0.930 . S
H886 C902 0.931 . S
C887 H875 0.929 1_655 S
C887 C881 1.390 . S
C887 C884 1.386 . S
C888 C883 1.490 . S
C888 C890 1.395 . S
C888 C891 1.403 . S
H889 C895 0.930 1_455 S
C890 H876 0.930 . S
C890 C888 1.395 . S
C890 C893 1.403 . S
C891 C888 1.403 . S
C891 C892 1.524 1_654 S
C891 C895 1.400 1_554 S
C892 H877 0.960 . S
C892 H878 0.960 1_455 S
C892 H879 0.960 1_556 S
C892 C891 1.524 1_456 S
C893 C890 1.403 . S
C893 C894 1.392 1_554 S
C893 C897 1.495 . S
C894 C893 1.392 1_556 S
C894 C895 1.385 . S
C894 C896 1.478 . S
C895 H889 0.930 1_655 S
C895 C891 1.400 1_556 S
C895 C894 1.385 . S
C896 C894 1.478 . S
C896 C898 1.381 . S
C896 C902 1.383 1_655 S
C897 C893 1.495 . S
C897 H903 0.959 . S
C897 H904 0.961 . S
C897 H905 0.960 . S
C898 C896 1.381 . S
C898 C899 1.394 . S
C898 H906 0.930 . S
C899 C898 1.394 . S
C899 C900 1.383 1_655 S
C899 H907 0.929 . S
C900 C899 1.383 1_455 S
C900 C901 1.377 . S
C901 H885 0.930 . S
C901 C900 1.377 . S
C901 C902 1.379 . S
C902 H886 0.931 . S
C902 C896 1.383 1_455 S
C902 C901 1.379 . S
H903 C897 0.959 . S
H904 C897 0.961 . S
H905 C897 0.960 . S
H906 C898 0.930 . S
H907 C899 0.929 . S
H908 C916 0.929 1_545 S
H909 C918 0.930 1_545 S
H910 C920 0.930 . S
H911 C923 0.929 . S
H912 C926 0.930 . S
H913 C928 0.960 . S
H914 C928 0.960 . S
H915 C928 0.960 . S
C916 H908 0.929 1_565 S
C916 C917 1.377 . S
C916 C918 1.384 . S
C917 C916 1.377 . S
C917 C923 1.390 . S
C918 H909 0.930 1_565 S
C918 C916 1.384 . S
C918 C919 1.372 . S
C919 C918 1.372 . S
C919 C920 1.400 . S
C919 C924 1.490 . S
C920 H910 0.930 . S
C920 C919 1.400 . S
C920 C923 1.386 . S
H921 C937 0.930 . S
H922 C938 0.931 . S
C923 H911 0.929 . S
C923 C917 1.390 . S
C923 C920 1.386 . S
C924 C919 1.490 . S
C924 C926 1.395 1_554 S
C924 C927 1.403 . S
H925 C931 0.930 . S
C926 H912 0.930 . S
C926 C924 1.395 1_556 S
C926 C929 1.403 . S
C927 C924 1.403 . S
C927 C928 1.524 . S
C927 C931 1.400 . S
C928 H913 0.960 . S
C928 H914 0.960 . S
C928 H915 0.960 . S
C928 C927 1.524 . S
C929 C926 1.403 . S
C929 C930 1.392 . S
C929 C933 1.496 1_565 S
C930 C929 1.392 . S
C930 C931 1.385 1_556 S
C930 C932 1.483 . S
C931 H925 0.930 . S
C931 C927 1.400 . S
C931 C930 1.385 1_554 S
C932 C930 1.483 . S
C932 C934 1.354 1_565 S
C932 C938 1.404 . S
C933 C929 1.496 1_545 S
C933 H939 0.958 1_545 S
C933 H940 0.965 1_545 S
C933 H941 0.954 . S
C934 C932 1.354 1_545 S
C934 C935 1.394 . S
C934 H942 0.930 . S
C935 C934 1.394 . S
C935 C936 1.383 . S
C935 H943 0.929 . S
C936 C935 1.383 . S
C936 C937 1.377 1_545 S
C937 H921 0.930 . S
C937 C936 1.377 1_565 S
C937 C938 1.379 . S
C938 H922 0.931 . S
C938 C932 1.404 . S
C938 C937 1.379 . S
H939 C933 0.958 1_565 S
H940 C933 0.965 1_565 S
H941 C933 0.954 . S
H942 C934 0.930 . S
H943 C935 0.929 . S
H944 C952 0.929 . S
H945 C954 0.930 . S
H946 C956 0.930 . S
H947 C959 0.929 . S
H948 C962 0.930 . S
H949 C964 0.960 . S
H950 C964 0.960 . S
H951 C964 0.960 . S
C952 H944 0.929 . S
C952 C953 1.377 . S
C952 C954 1.384 . S
C953 C952 1.377 . S
C953 C959 1.390 . S
C954 H945 0.930 . S
C954 C952 1.384 . S
C954 C955 1.372 . S
C955 C954 1.372 . S
C955 C956 1.400 . S
C955 C960 1.490 . S
C956 H946 0.930 . S
C956 C955 1.400 . S
C956 C959 1.386 . S
H957 C973 0.930 . S
H958 C974 0.931 1_554 S
C959 H947 0.929 . S
C959 C953 1.390 . S
C959 C956 1.386 . S
C960 C955 1.490 . S
C960 C962 1.395 . S
C960 C963 1.403 . S
H961 C967 0.930 . S
C962 H948 0.930 . S
C962 C960 1.395 . S
C962 C965 1.403 1_554 S
C963 C960 1.403 . S
C963 C964 1.524 . S
C963 C967 1.400 . S
C964 H949 0.960 . S
C964 H950 0.960 . S
C964 H951 0.960 . S
C964 C963 1.524 . S
C965 C962 1.403 1_556 S
C965 C966 1.392 . S
C965 C969 1.495 . S
C966 C965 1.392 . S
C966 C967 1.385 1_556 S
C966 C968 1.478 . S
C967 H961 0.930 . S
C967 C963 1.400 . S
C967 C966 1.385 1_554 S
C968 C966 1.478 . S
C968 C970 1.381 . S
C968 C974 1.383 . S
C969 C965 1.495 . S
C969 H975 0.959 . S
C969 H976 0.961 . S
C969 H977 0.960 . S
C970 C968 1.381 . S
C970 C971 1.394 . S
C970 H978 0.930 . S
C971 C970 1.394 . S
C971 C972 1.383 . S
C971 H979 0.929 . S
C972 C971 1.383 . S
C972 C973 1.377 . S
C973 H957 0.930 . S
C973 C972 1.377 . S
C973 C974 1.379 . S
C974 H958 0.931 1_556 S
C974 C968 1.383 . S
C974 C973 1.379 . S
H975 C969 0.959 . S
H976 C969 0.961 . S
H977 C969 0.960 . S
H978 C970 0.930 . S
H979 C971 0.929 . S
H980 C988 0.929 . S
H981 C990 0.930 . S
H982 C992 0.930 . S
H983 C995 0.929 . S
H984 C998 0.930 . S
H985 C1000 0.960 . S
H986 C1000 0.960 . S
H987 C1000 0.960 . S
C988 H980 0.929 . S
C988 C989 1.377 . S
C988 C990 1.384 . S
C989 C988 1.377 . S
C989 C995 1.390 . S
C990 H981 0.930 . S
C990 C988 1.384 . S
C990 C991 1.372 . S
C991 C990 1.372 . S
C991 C992 1.400 . S
C991 C996 1.490 . S
C992 H982 0.930 . S
C992 C991 1.400 . S
C992 C995 1.386 . S
H993 C1009 0.930 . S
H994 C1010 0.931 . S
C995 H983 0.929 . S
C995 C989 1.390 . S
C995 C992 1.386 . S
C996 C991 1.490 . S
C996 C998 1.395 . S
C996 C999 1.409 . S
H997 C1003 0.930 . S
C998 H984 0.930 . S
C998 C996 1.395 . S
C998 C1001 1.403 . S
C999 C996 1.409 . S
C999 C1000 1.521 1_554 S
C999 C1003 1.396 1_554 S
C1000 H985 0.960 . S
C1000 H986 0.960 . S
C1000 H987 0.960 . S
C1000 C999 1.521 1_556 S
C1001 C998 1.403 . S
C1001 C1002 1.392 1_554 S
C1001 C1005 1.495 . S
C1002 C1001 1.392 1_556 S
C1002 C1003 1.385 . S
C1002 C1004 1.478 . S
C1003 H997 0.930 . S
C1003 C999 1.396 1_556 S
C1003 C1002 1.385 . S
C1004 C1002 1.478 . S
C1004 C1006 1.381 . S
C1004 C1010 1.383 . S
C1005 C1001 1.495 . S
C1005 H1011 0.959 . S
C1005 H1012 0.961 . S
C1005 H1013 0.960 . S
C1006 C1004 1.381 . S
C1006 C1007 1.394 . S
C1006 H1014 0.930 . S
C1007 C1006 1.394 . S
C1007 C1008 1.383 . S
C1007 H1015 0.929 . S
C1008 C1007 1.383 . S
C1008 C1009 1.377 . S
C1009 H993 0.930 . S
C1009 C1008 1.377 . S
C1009 C1010 1.379 . S
C1010 H994 0.931 . S
C1010 C1004 1.383 . S
C1010 C1009 1.379 . S
H1011 C1005 0.959 . S
H1012 C1005 0.961 . S
H1013 C1005 0.960 . S
H1014 C1006 0.930 . S
H1015 C1007 0.929 . S
H1016 C1024 0.929 . S
H1017 C1026 0.930 . S
H1018 C1028 0.930 . S
H1019 C1031 0.929 . S
H1020 C1034 0.930 . S
H1021 C1036 0.960 . S
H1022 C1036 0.954 1_455 S
H1023 C1036 0.960 . S
C1024 H1016 0.929 . S
C1024 C1025 1.377 . S
C1024 C1026 1.384 . S
C1025 C1024 1.377 . S
C1025 C1031 1.390 . S
C1026 H1017 0.930 . S
C1026 C1024 1.384 . S
C1026 C1027 1.372 . S
C1027 C1026 1.372 . S
C1027 C1028 1.400 . S
C1027 C1032 1.490 . S
C1028 H1018 0.930 . S
C1028 C1027 1.400 . S
C1028 C1031 1.386 . S
H1029 C1045 0.930 1_655 S
H1030 C1046 0.931 . S
C1031 H1019 0.929 . S
C1031 C1025 1.390 . S
C1031 C1028 1.386 . S
C1032 C1027 1.490 . S
C1032 C1034 1.395 . S
C1032 C1035 1.403 . S
H1033 C1039 0.930 . S
C1034 H1020 0.930 . S
C1034 C1032 1.395 . S
C1034 C1037 1.403 . S
C1035 C1032 1.403 . S
C1035 C1036 1.524 1_455 S
C1035 C1039 1.400 . S
C1036 H1021 0.960 . S
C1036 H1022 0.954 1_655 S
C1036 H1023 0.960 . S
C1036 C1035 1.524 1_655 S
C1037 C1034 1.403 . S
C1037 C1038 1.392 . S
C1037 C1041 1.495 . S
C1038 C1037 1.392 . S
C1038 C1039 1.385 . S
C1038 C1040 1.478 . S
C1039 H1033 0.930 . S
C1039 C1035 1.400 . S
C1039 C1038 1.385 . S
C1040 C1038 1.478 . S
C1040 C1042 1.381 . S
C1040 C1046 1.383 . S
C1041 C1037 1.495 . S
C1041 H1047 0.959 . S
C1041 H1048 0.961 . S
C1041 H1049 0.960 . S
C1042 C1040 1.381 . S
C1042 C1043 1.394 . S
C1042 H1050 0.930 . S
C1043 C1042 1.394 . S
C1043 C1044 1.383 . S
C1043 H1051 0.929 . S
C1044 C1043 1.383 . S
C1044 C1045 1.377 . S
C1045 H1029 0.930 1_455 S
C1045 C1044 1.377 . S
C1045 C1046 1.379 . S
C1046 H1030 0.931 . S
C1046 C1040 1.383 . S
C1046 C1045 1.379 . S
H1047 C1041 0.959 . S
H1048 C1041 0.961 . S
H1049 C1041 0.960 . S
H1050 C1042 0.930 . S
H1051 C1043 0.929 . S
H1052 C1060 0.929 . S
H1053 C1062 0.930 . S
H1054 C1064 0.930 . S
H1055 C1067 0.929 . S
H1056 C1070 0.930 . S
H1057 C1072 0.960 . S
H1058 C1072 0.960 . S
H1059 C1072 0.960 . S
C1060 H1052 0.929 . S
C1060 C1061 1.377 . S
C1060 C1062 1.384 . S
C1061 C1060 1.377 . S
C1061 C1067 1.390 . S
C1062 H1053 0.930 . S
C1062 C1060 1.384 . S
C1062 C1063 1.372 . S
C1063 C1062 1.372 . S
C1063 C1064 1.400 . S
C1063 C1068 1.490 . S
C1064 H1054 0.930 . S
C1064 C1063 1.400 . S
C1064 C1067 1.386 . S
H1065 C1081 0.930 . S
H1066 C1082 0.931 . S
C1067 H1055 0.929 . S
C1067 C1061 1.390 . S
C1067 C1064 1.386 . S
C1068 C1063 1.490 . S
C1068 C1070 1.395 . S
C1068 C1071 1.403 . S
H1069 C1075 0.930 . S
C1070 H1056 0.930 . S
C1070 C1068 1.395 . S
C1070 C1073 1.403 . S
C1071 C1068 1.403 . S
C1071 C1072 1.524 . S
C1071 C1075 1.400 . S
C1072 H1057 0.960 . S
C1072 H1058 0.960 . S
C1072 H1059 0.960 . S
C1072 C1071 1.524 . S
C1073 C1070 1.403 . S
C1073 C1074 1.392 . S
C1073 C1077 1.495 1_545 S
C1074 C1073 1.392 . S
C1074 C1075 1.385 . S
C1074 C1076 1.478 . S
C1075 H1069 0.930 . S
C1075 C1071 1.400 . S
C1075 C1074 1.385 . S
C1076 C1074 1.478 . S
C1076 C1078 1.381 . S
C1076 C1082 1.383 . S
C1077 C1073 1.495 1_565 S
C1077 H1083 0.959 . S
C1077 H1084 0.961 . S
C1077 H1085 0.960 . S
C1078 C1076 1.381 . S
C1078 C1079 1.394 . S
C1078 H1086 0.930 1_545 S
C1079 C1078 1.394 . S
C1079 C1080 1.383 . S
C1079 H1087 0.929 1_545 S
C1080 C1079 1.383 . S
C1080 C1081 1.377 . S
C1081 H1065 0.930 . S
C1081 C1080 1.377 . S
C1081 C1082 1.379 . S
C1082 H1066 0.931 . S
C1082 C1076 1.383 . S
C1082 C1081 1.379 . S
H1083 C1077 0.959 . S
H1084 C1077 0.961 . S
H1085 C1077 0.960 . S
H1086 C1078 0.930 1_565 S
H1087 C1079 0.929 1_565 S
H1088 C1096 0.929 . S
H1089 C1098 0.930 . S
H1090 C1100 0.930 . S
H1091 C1103 0.929 . S
H1092 C1106 0.930 . S
H1093 C1108 0.960 . S
H1094 C1108 0.960 . S
H1095 C1108 0.960 . S
C1096 H1088 0.929 . S
C1096 C1097 1.377 . S
C1096 C1098 1.384 . S
C1097 C1096 1.377 . S
C1097 C1103 1.390 . S
C1098 H1089 0.930 . S
C1098 C1096 1.384 . S
C1098 C1099 1.372 . S
C1099 C1098 1.372 . S
C1099 C1100 1.400 . S
C1099 C1104 1.490 . S
C1100 H1090 0.930 . S
C1100 C1099 1.400 . S
C1100 C1103 1.386 . S
H1101 C1117 0.930 . S
H1102 C1118 0.931 . S
C1103 H1091 0.929 . S
C1103 C1097 1.390 . S
C1103 C1100 1.386 . S
C1104 C1099 1.490 . S
C1104 C1106 1.395 . S
C1104 C1107 1.403 . S
H1105 C1111 0.930 . S
C1106 H1092 0.930 . S
C1106 C1104 1.395 . S
C1106 C1109 1.403 . S
C1107 C1104 1.403 . S
C1107 C1108 1.524 . S
C1107 C1111 1.400 . S
C1108 H1093 0.960 . S
C1108 H1094 0.960 . S
C1108 H1095 0.960 . S
C1108 C1107 1.524 . S
C1109 C1106 1.403 . S
C1109 C1110 1.392 . S
C1109 C1113 1.495 . S
C1110 C1109 1.392 . S
C1110 C1111 1.385 . S
C1110 C1112 1.478 . S
C1111 H1105 0.930 . S
C1111 C1107 1.400 . S
C1111 C1110 1.385 . S
C1112 C1110 1.478 . S
C1112 C1114 1.381 . S
C1112 C1118 1.383 . S
C1113 C1109 1.495 . S
C1113 H1119 0.959 . S
C1113 H1120 0.961 . S
C1113 H1121 0.960 . S
C1114 C1112 1.381 . S
C1114 C1115 1.394 . S
C1114 H1122 0.930 . S
C1115 C1114 1.394 . S
C1115 C1116 1.383 . S
C1115 H1123 0.929 . S
C1116 C1115 1.383 . S
C1116 C1117 1.377 . S
C1117 H1101 0.930 . S
C1117 C1116 1.377 . S
C1117 C1118 1.379 . S
C1118 H1102 0.931 . S
C1118 C1112 1.383 . S
C1118 C1117 1.379 . S
H1119 C1113 0.959 . S
H1120 C1113 0.961 . S
H1121 C1113 0.960 . S
H1122 C1114 0.930 . S
H1123 C1115 0.929 . S
H1124 C1132 0.929 . S
H1125 C1134 0.930 . S
H1126 C1136 0.930 . S
H1127 C1139 0.929 . S
H1128 C1142 0.930 . S
H1129 C1144 0.960 . S
H1130 C1144 0.960 . S
H1131 C1144 0.960 . S
C1132 H1124 0.929 . S
C1132 C1133 1.377 . S
C1132 C1134 1.384 . S
C1133 C1132 1.377 . S
C1133 C1139 1.390 . S
C1134 H1125 0.930 . S
C1134 C1132 1.384 . S
C1134 C1135 1.372 . S
C1135 C1134 1.372 . S
C1135 C1136 1.400 . S
C1135 C1140 1.490 . S
C1136 H1126 0.930 . S
C1136 C1135 1.400 . S
C1136 C1139 1.386 . S
H1137 C1153 0.930 . S
H1138 C1154 0.931 . S
C1139 H1127 0.929 . S
C1139 C1133 1.390 . S
C1139 C1136 1.386 . S
C1140 C1135 1.490 . S
C1140 C1142 1.395 . S
C1140 C1143 1.403 . S
H1141 C1147 0.930 . S
C1142 H1128 0.930 . S
C1142 C1140 1.395 . S
C1142 C1145 1.403 . S
C1143 C1140 1.403 . S
C1143 C1144 1.524 . S
C1143 C1147 1.400 . S
C1144 H1129 0.960 . S
C1144 H1130 0.960 . S
C1144 H1131 0.960 . S
C1144 C1143 1.524 . S
C1145 C1142 1.403 . S
C1145 C1146 1.392 . S
C1145 C1149 1.495 . S
C1146 C1145 1.392 . S
C1146 C1147 1.385 . S
C1146 C1148 1.478 . S
C1147 H1141 0.930 . S
C1147 C1143 1.400 . S
C1147 C1146 1.385 . S
C1148 C1146 1.478 . S
C1148 C1150 1.381 . S
C1148 C1154 1.383 . S
C1149 C1145 1.495 . S
C1149 H1155 0.959 . S
C1149 H1156 0.961 . S
C1149 H1157 0.960 . S
C1150 C1148 1.381 . S
C1150 C1151 1.394 . S
C1150 H1158 0.930 . S
C1151 C1150 1.394 . S
C1151 C1152 1.383 . S
C1151 H1159 0.929 . S
C1152 C1151 1.383 . S
C1152 C1153 1.377 . S
C1153 H1137 0.930 . S
C1153 C1152 1.377 . S
C1153 C1154 1.379 . S
C1154 H1138 0.931 . S
C1154 C1148 1.383 . S
C1154 C1153 1.379 . S
H1155 C1149 0.959 . S
H1156 C1149 0.961 . S
H1157 C1149 0.960 . S
H1158 C1150 0.930 . S
H1159 C1151 0.929 . S
H1160 C1168 0.929 . S
H1161 C1170 0.930 . S
H1162 C1172 0.930 1_455 S
H1163 C1175 0.929 1_455 S
H1164 C1178 0.930 . S
H1165 C1180 0.960 . S
H1166 C1180 0.960 . S
H1167 C1180 0.960 . S
C1168 H1160 0.929 . S
C1168 C1169 1.377 . S
C1168 C1170 1.384 . S
C1169 C1168 1.377 . S
C1169 C1175 1.390 . S
C1170 H1161 0.930 . S
C1170 C1168 1.384 . S
C1170 C1171 1.372 . S
C1171 C1170 1.372 . S
C1171 C1172 1.400 . S
C1171 C1176 1.490 . S
C1172 H1162 0.930 1_655 S
C1172 C1171 1.400 . S
C1172 C1175 1.386 . S
H1173 C1189 0.930 . S
H1174 C1190 0.931 . S
C1175 H1163 0.929 1_655 S
C1175 C1169 1.390 . S
C1175 C1172 1.386 . S
C1176 C1171 1.490 . S
C1176 C1178 1.395 . S
C1176 C1179 1.403 . S
H1177 C1183 0.930 . S
C1178 H1164 0.930 . S
C1178 C1176 1.395 . S
C1178 C1181 1.403 . S
C1179 C1176 1.403 . S
C1179 C1180 1.524 . S
C1179 C1183 1.400 . S
C1180 H1165 0.960 . S
C1180 H1166 0.960 . S
C1180 H1167 0.960 . S
C1180 C1179 1.524 . S
C1181 C1178 1.403 . S
C1181 C1182 1.392 . S
C1181 C1185 1.495 . S
C1182 C1181 1.392 . S
C1182 C1183 1.385 . S
C1182 C1184 1.478 . S
C1183 H1177 0.930 . S
C1183 C1179 1.400 . S
C1183 C1182 1.385 . S
C1184 C1182 1.478 . S
C1184 C1186 1.381 . S
C1184 C1190 1.383 1_655 S
C1185 C1181 1.495 . S
C1185 H1191 0.959 . S
C1185 H1192 0.961 . S
C1185 H1193 0.960 . S
C1186 C1184 1.381 . S
C1186 C1187 1.394 . S
C1186 H1194 0.930 . S
C1187 C1186 1.394 . S
C1187 C1188 1.383 . S
C1187 H1195 0.929 . S
C1188 C1187 1.383 . S
C1188 C1189 1.377 1_655 S
C1189 H1173 0.930 . S
C1189 C1188 1.377 1_455 S
C1189 C1190 1.379 . S
C1190 H1174 0.931 . S
C1190 C1184 1.383 1_455 S
C1190 C1189 1.379 . S
H1191 C1185 0.959 . S
H1192 C1185 0.961 . S
H1193 C1185 0.960 . S
H1194 C1186 0.930 . S
H1195 C1187 0.929 . S
H1196 C1204 0.929 . S
H1197 C1206 0.930 . S
H1198 C1208 0.930 . S
H1199 C1211 0.929 . S
H1200 C1214 0.930 1_545 S
H1201 C1216 0.960 . S
H1202 C1216 0.960 . S
H1203 C1216 0.960 . S
C1204 H1196 0.929 . S
C1204 C1205 1.377 . S
C1204 C1206 1.384 . S
C1205 C1204 1.377 . S
C1205 C1211 1.390 . S
C1206 H1197 0.930 . S
C1206 C1204 1.384 . S
C1206 C1207 1.372 . S
C1207 C1206 1.372 . S
C1207 C1208 1.400 . S
C1207 C1212 1.490 . S
C1208 H1198 0.930 . S
C1208 C1207 1.400 . S
C1208 C1211 1.386 . S
H1209 C1225 0.930 . S
H1210 C1226 0.931 . S
C1211 H1199 0.929 . S
C1211 C1205 1.390 . S
C1211 C1208 1.386 . S
C1212 C1207 1.490 . S
C1212 C1214 1.395 . S
C1212 C1215 1.403 . S
H1213 C1219 0.930 . S
C1214 H1200 0.930 1_565 S
C1214 C1212 1.395 . S
C1214 C1217 1.401 1_565 S
C1215 C1212 1.403 . S
C1215 C1216 1.524 . S
C1215 C1219 1.400 . S
C1216 H1201 0.960 . S
C1216 H1202 0.960 . S
C1216 H1203 0.960 . S
C1216 C1215 1.524 . S
C1217 C1214 1.401 1_545 S
C1217 C1218 1.387 1_545 S
C1217 C1221 1.504 . S
C1218 C1217 1.387 1_565 S
C1218 C1219 1.385 . S
C1218 C1220 1.478 . S
C1219 H1213 0.930 . S
C1219 C1215 1.400 . S
C1219 C1218 1.385 . S
C1220 C1218 1.478 . S
C1220 C1222 1.381 . S
C1220 C1226 1.383 1_565 S
C1221 C1217 1.504 . S
C1221 H1227 0.959 . S
C1221 H1228 0.961 . S
C1221 H1229 0.960 . S
C1222 C1220 1.381 . S
C1222 C1223 1.394 . S
C1222 H1230 0.930 . S
C1223 C1222 1.394 . S
C1223 C1224 1.383 . S
C1223 H1231 0.929 . S
C1224 C1223 1.383 . S
C1224 C1225 1.377 1_565 S
C1225 H1209 0.930 . S
C1225 C1224 1.377 1_545 S
C1225 C1226 1.379 . S
C1226 H1210 0.931 . S
C1226 C1220 1.383 1_545 S
C1226 C1225 1.379 . S
H1227 C1221 0.959 . S
H1228 C1221 0.961 . S
H1229 C1221 0.960 . S
H1230 C1222 0.930 . S
H1231 C1223 0.929 . S
H1232 C1240 0.929 . S
H1233 C1242 0.930 . S
H1234 C1244 0.930 . S
H1235 C1247 0.929 . S
H1236 C1250 0.930 . S
H1237 C1252 0.960 . S
H1238 C1252 0.960 . S
H1239 C1252 0.960 . S
C1240 H1232 0.929 . S
C1240 C1241 1.377 . S
C1240 C1242 1.384 . S
C1241 C1240 1.377 . S
C1241 C1247 1.390 . S
C1242 H1233 0.930 . S
C1242 C1240 1.384 . S
C1242 C1243 1.372 . S
C1243 C1242 1.372 . S
C1243 C1244 1.400 . S
C1243 C1248 1.490 . S
C1244 H1234 0.930 . S
C1244 C1243 1.400 . S
C1244 C1247 1.386 . S
H1245 C1261 0.930 . S
H1246 C1262 0.931 . S
C1247 H1235 0.929 . S
C1247 C1241 1.390 . S
C1247 C1244 1.386 . S
C1248 C1243 1.490 . S
C1248 C1250 1.395 . S
C1248 C1251 1.403 . S
H1249 C1255 0.930 . S
C1250 H1236 0.930 . S
C1250 C1248 1.395 . S
C1250 C1253 1.403 . S
C1251 C1248 1.403 . S
C1251 C1252 1.524 . S
C1251 C1255 1.400 . S
C1252 H1237 0.960 . S
C1252 H1238 0.960 . S
C1252 H1239 0.960 . S
C1252 C1251 1.524 . S
C1253 C1250 1.403 . S
C1253 C1254 1.392 . S
C1253 C1257 1.495 . S
C1254 C1253 1.392 . S
C1254 C1255 1.385 . S
C1254 C1256 1.478 . S
C1255 H1249 0.930 . S
C1255 C1251 1.400 . S
C1255 C1254 1.385 . S
C1256 C1254 1.478 . S
C1256 C1258 1.381 . S
C1256 C1262 1.383 . S
C1257 C1253 1.495 . S
C1257 H1263 0.959 . S
C1257 H1264 0.961 . S
C1257 H1265 0.960 . S
C1258 C1256 1.381 . S
C1258 C1259 1.394 . S
C1258 H1266 0.930 . S
C1259 C1258 1.394 . S
C1259 C1260 1.383 . S
C1259 H1267 0.929 . S
C1260 C1259 1.383 . S
C1260 C1261 1.377 . S
C1261 H1245 0.930 . S
C1261 C1260 1.377 . S
C1261 C1262 1.379 . S
C1262 H1246 0.931 . S
C1262 C1256 1.383 . S
C1262 C1261 1.379 . S
H1263 C1257 0.959 . S
H1264 C1257 0.961 . S
H1265 C1257 0.960 . S
H1266 C1258 0.930 . S
H1267 C1259 0.929 . S
H1268 C1276 0.929 . S
H1269 C1278 0.930 . S
H1270 C1280 0.930 . S
H1271 C1283 0.929 . S
H1272 C1286 0.930 . S
H1273 C1288 0.960 . S
H1274 C1288 0.960 . S
H1275 C1288 0.960 . S
C1276 H1268 0.929 . S
C1276 C1277 1.377 . S
C1276 C1278 1.384 . S
C1277 C1276 1.377 . S
C1277 C1283 1.390 . S
C1278 H1269 0.930 . S
C1278 C1276 1.384 . S
C1278 C1279 1.372 . S
C1279 C1278 1.372 . S
C1279 C1280 1.400 . S
C1279 C1284 1.490 . S
C1280 H1270 0.930 . S
C1280 C1279 1.400 . S
C1280 C1283 1.386 . S
H1281 C1297 0.930 . S
H1282 C1298 0.931 . S
C1283 H1271 0.929 . S
C1283 C1277 1.390 . S
C1283 C1280 1.386 . S
C1284 C1279 1.490 . S
C1284 C1286 1.395 . S
C1284 C1287 1.403 . S
H1285 C1291 0.930 . S
C1286 H1272 0.930 . S
C1286 C1284 1.395 . S
C1286 C1289 1.403 . S
C1287 C1284 1.403 . S
C1287 C1288 1.524 . S
C1287 C1291 1.400 . S
C1288 H1273 0.960 . S
C1288 H1274 0.960 . S
C1288 H1275 0.960 . S
C1288 C1287 1.524 . S
C1289 C1286 1.403 . S
C1289 C1290 1.392 . S
C1289 C1293 1.495 . S
C1290 C1289 1.392 . S
C1290 C1291 1.385 . S
C1290 C1292 1.478 . S
C1291 H1285 0.930 . S
C1291 C1287 1.400 . S
C1291 C1290 1.385 . S
C1292 C1290 1.478 . S
C1292 C1294 1.381 . S
C1292 C1298 1.383 . S
C1293 C1289 1.495 . S
C1293 H1299 0.959 . S
C1293 H1300 0.961 . S
C1293 H1301 0.960 . S
C1294 C1292 1.381 . S
C1294 C1295 1.394 . S
C1294 H1302 0.930 . S
C1295 C1294 1.394 . S
C1295 C1296 1.383 . S
C1295 H1303 0.929 . S
C1296 C1295 1.383 . S
C1296 C1297 1.377 . S
C1297 H1281 0.930 . S
C1297 C1296 1.377 . S
C1297 C1298 1.379 . S
C1298 H1282 0.931 . S
C1298 C1292 1.383 . S
C1298 C1297 1.379 . S
H1299 C1293 0.959 . S
H1300 C1293 0.961 . S
H1301 C1293 0.960 . S
H1302 C1294 0.930 . S
H1303 C1295 0.929 . S
C449 C82 1.727 . S
C468 C172 1.912 . S
C504 C255 1.936 . S
C485 C95 1.729 . S
C540 C340 1.910 . S
C521 C56 1.707 . S
C576 C424 1.890 . S
C557 C69 1.701 . S
C612 C160 1.918 1_565 S
C593 C30 1.684 . S
C629 C43 1.690 . S
C648 C243 1.936 . S
C665 C4 1.684 . S
C684 C328 1.917 . S
C701 C17 1.667 . S
C720 C412 1.902 1_655 S
C756 C162 0.469 1_455 S
C737 C74 0.491 . S
C792 C258 0.632 . S
C773 C87 0.454 . S
C828 C330 0.523 . S
C809 C100 0.484 . S
C845 C61 0.453 . S
C864 C414 0.629 . S
C881 C22 0.494 . S
C900 C174 0.624 . S
C936 C246 0.643 . S
C917 C35 0.440 . S
C972 C342 0.632 . S
C953 C48 0.489 . S
C989 C9 0.478 . S
C1008 C426 0.609 . S
C1025 C73 1.858 . S
C1044 C159 1.997 . S
C1061 C86 1.839 . S
C1080 C244 1.986 . S
C1116 C327 2.022 . S
C1097 C99 1.876 . S
C1152 C411 2.026 . S
C1133 C60 1.874 . S
C1169 C21 1.846 . S
C1188 C171 1.987 . S
C1224 C256 1.988 1_565 S
C1205 C34 1.844 . S
C1260 C339 2.012 . S
C1241 C47 1.861 . S
C1277 C8 1.879 . S
C1296 C423 2.029 . S
