# Generated by pormake.
# Topology ctn, (3,4)-cn, num edge types: 1
# Building blocks:
#     Node 0, Type 0, BuildingBlock: CUQRIR_clean_linker_1, # of connection points: 3
#     Node 1, Type 0, BuildingBlock: CUQRIR_clean_linker_1, # of connection points: 3
#     Node 2, Type 0, BuildingBlock: CUQRIR_clean_linker_1, # of connection points: 3
#     Node 3, Type 0, BuildingBlock: CUQRIR_clean_linker_1, # of connection points: 3
#     Node 4, Type 0, BuildingBlock: CUQRIR_clean_linker_1, # of connection points: 3
#     Node 5, Type 0, BuildingBlock: CUQRIR_clean_linker_1, # of connection points: 3
#     Node 6, Type 0, BuildingBlock: CUQRIR_clean_linker_1, # of connection points: 3
#     Node 7, Type 0, BuildingBlock: CUQRIR_clean_linker_1, # of connection points: 3
#     Node 8, Type 0, BuildingBlock: CUQRIR_clean_linker_1, # of connection points: 3
#     Node 9, Type 0, BuildingBlock: CUQRIR_clean_linker_1, # of connection points: 3
#     Node 10, Type 0, BuildingBlock: CUQRIR_clean_linker_1, # of connection points: 3
#     Node 11, Type 0, BuildingBlock: CUQRIR_clean_linker_1, # of connection points: 3
#     Node 12, Type 0, BuildingBlock: CUQRIR_clean_linker_1, # of connection points: 3
#     Node 13, Type 0, BuildingBlock: CUQRIR_clean_linker_1, # of connection points: 3
#     Node 14, Type 0, BuildingBlock: CUQRIR_clean_linker_1, # of connection points: 3
#     Node 15, Type 0, BuildingBlock: CUQRIR_clean_linker_1, # of connection points: 3
#     Node 16, Type 1, BuildingBlock: TATPOV_clean_sbu_0, # of connection points: 4
#     Node 17, Type 1, BuildingBlock: TATPOV_clean_sbu_0, # of connection points: 4
#     Node 18, Type 1, BuildingBlock: TATPOV_clean_sbu_0, # of connection points: 4
#     Node 19, Type 1, BuildingBlock: TATPOV_clean_sbu_0, # of connection points: 4
#     Node 20, Type 1, BuildingBlock: TATPOV_clean_sbu_0, # of connection points: 4
#     Node 21, Type 1, BuildingBlock: TATPOV_clean_sbu_0, # of connection points: 4
#     Node 22, Type 1, BuildingBlock: TATPOV_clean_sbu_0, # of connection points: 4
#     Node 23, Type 1, BuildingBlock: TATPOV_clean_sbu_0, # of connection points: 4
#     Node 24, Type 1, BuildingBlock: TATPOV_clean_sbu_0, # of connection points: 4
#     Node 25, Type 1, BuildingBlock: TATPOV_clean_sbu_0, # of connection points: 4
#     Node 26, Type 1, BuildingBlock: TATPOV_clean_sbu_0, # of connection points: 4
#     Node 27, Type 1, BuildingBlock: TATPOV_clean_sbu_0, # of connection points: 4
#     Edge 28, Type (0, 1), BuildingBlock: EZIPEK_clean_linker_0, # of connection points: 2
#     Edge 29, Type (0, 1), BuildingBlock: EZIPEK_clean_linker_0, # of connection points: 2
#     Edge 30, Type (0, 1), BuildingBlock: EZIPEK_clean_linker_0, # of connection points: 2
#     Edge 31, Type (0, 1), BuildingBlock: EZIPEK_clean_linker_0, # of connection points: 2
#     Edge 32, Type (0, 1), BuildingBlock: EZIPEK_clean_linker_0, # of connection points: 2
#     Edge 33, Type (0, 1), BuildingBlock: EZIPEK_clean_linker_0, # of connection points: 2
#     Edge 34, Type (0, 1), BuildingBlock: EZIPEK_clean_linker_0, # of connection points: 2
#     Edge 35, Type (0, 1), BuildingBlock: EZIPEK_clean_linker_0, # of connection points: 2
#     Edge 36, Type (0, 1), BuildingBlock: EZIPEK_clean_linker_0, # of connection points: 2
#     Edge 37, Type (0, 1), BuildingBlock: EZIPEK_clean_linker_0, # of connection points: 2
#     Edge 38, Type (0, 1), BuildingBlock: EZIPEK_clean_linker_0, # of connection points: 2
#     Edge 39, Type (0, 1), BuildingBlock: EZIPEK_clean_linker_0, # of connection points: 2
#     Edge 40, Type (0, 1), BuildingBlock: EZIPEK_clean_linker_0, # of connection points: 2
#     Edge 41, Type (0, 1), BuildingBlock: EZIPEK_clean_linker_0, # of connection points: 2
#     Edge 42, Type (0, 1), BuildingBlock: EZIPEK_clean_linker_0, # of connection points: 2
#     Edge 43, Type (0, 1), BuildingBlock: EZIPEK_clean_linker_0, # of connection points: 2
#     Edge 44, Type (0, 1), BuildingBlock: EZIPEK_clean_linker_0, # of connection points: 2
#     Edge 45, Type (0, 1), BuildingBlock: EZIPEK_clean_linker_0, # of connection points: 2
#     Edge 46, Type (0, 1), BuildingBlock: EZIPEK_clean_linker_0, # of connection points: 2
#     Edge 47, Type (0, 1), BuildingBlock: EZIPEK_clean_linker_0, # of connection points: 2
#     Edge 48, Type (0, 1), BuildingBlock: EZIPEK_clean_linker_0, # of connection points: 2
#     Edge 49, Type (0, 1), BuildingBlock: EZIPEK_clean_linker_0, # of connection points: 2
#     Edge 50, Type (0, 1), BuildingBlock: EZIPEK_clean_linker_0, # of connection points: 2
#     Edge 51, Type (0, 1), BuildingBlock: EZIPEK_clean_linker_0, # of connection points: 2
#     Edge 52, Type (0, 1), BuildingBlock: EZIPEK_clean_linker_0, # of connection points: 2
#     Edge 53, Type (0, 1), BuildingBlock: EZIPEK_clean_linker_0, # of connection points: 2
#     Edge 54, Type (0, 1), BuildingBlock: EZIPEK_clean_linker_0, # of connection points: 2
#     Edge 55, Type (0, 1), BuildingBlock: EZIPEK_clean_linker_0, # of connection points: 2
#     Edge 56, Type (0, 1), BuildingBlock: EZIPEK_clean_linker_0, # of connection points: 2
#     Edge 57, Type (0, 1), BuildingBlock: EZIPEK_clean_linker_0, # of connection points: 2
#     Edge 58, Type (0, 1), BuildingBlock: EZIPEK_clean_linker_0, # of connection points: 2
#     Edge 59, Type (0, 1), BuildingBlock: EZIPEK_clean_linker_0, # of connection points: 2
#     Edge 60, Type (0, 1), BuildingBlock: EZIPEK_clean_linker_0, # of connection points: 2
#     Edge 61, Type (0, 1), BuildingBlock: EZIPEK_clean_linker_0, # of connection points: 2
#     Edge 62, Type (0, 1), BuildingBlock: EZIPEK_clean_linker_0, # of connection points: 2
#     Edge 63, Type (0, 1), BuildingBlock: EZIPEK_clean_linker_0, # of connection points: 2
#     Edge 64, Type (0, 1), BuildingBlock: EZIPEK_clean_linker_0, # of connection points: 2
#     Edge 65, Type (0, 1), BuildingBlock: EZIPEK_clean_linker_0, # of connection points: 2
#     Edge 66, Type (0, 1), BuildingBlock: EZIPEK_clean_linker_0, # of connection points: 2
#     Edge 67, Type (0, 1), BuildingBlock: EZIPEK_clean_linker_0, # of connection points: 2
#     Edge 68, Type (0, 1), BuildingBlock: EZIPEK_clean_linker_0, # of connection points: 2
#     Edge 69, Type (0, 1), BuildingBlock: EZIPEK_clean_linker_0, # of connection points: 2
#     Edge 70, Type (0, 1), BuildingBlock: EZIPEK_clean_linker_0, # of connection points: 2
#     Edge 71, Type (0, 1), BuildingBlock: EZIPEK_clean_linker_0, # of connection points: 2
#     Edge 72, Type (0, 1), BuildingBlock: EZIPEK_clean_linker_0, # of connection points: 2
#     Edge 73, Type (0, 1), BuildingBlock: EZIPEK_clean_linker_0, # of connection points: 2
#     Edge 74, Type (0, 1), BuildingBlock: EZIPEK_clean_linker_0, # of connection points: 2
#     Edge 75, Type (0, 1), BuildingBlock: EZIPEK_clean_linker_0, # of connection points: 2
# Relax obj value: 0.088
# Max RMSD: 0.207
# Mean RMSD: 0.128
data_MOF--net-ctn--node1-TATPOV_clean_sbu_0--node2-CUQRIR_clean_linker_1--edge1-EZIPEK_clean_linker_0
_symmetry_space_group_name_H-M    P1
_symmetry_Int_Tables_number       1
_symmetry_cell_setting            triclinic
loop_
_symmetry_equiv_pos_as_xyz
'x, y, z'
_cell_length_a     36.570092
_cell_length_b     33.941877
_cell_length_c     34.928016
_cell_angle_alpha  98.582012
_cell_angle_beta   90.385578
_cell_angle_gamma 94.42813
loop_
_atom_site_label
_atom_site_type_symbol
_atom_site_fract_x
_atom_site_fract_y
_atom_site_fract_z
_atom_type_partial_charge
C0 C 0.02584 0.99425 0.07976 0.0
N1 N 0.04365 0.00569 0.04867 0.0
N2 N 0.99112 0.00527 0.08103 0.0
C3 C 0.0418 0.97062 0.108 0.0
C4 C 0.98808 0.02383 0.04979 0.0
N5 N 0.01995 0.02476 0.03005 0.0
C6 C 0.95417 0.04285 0.03965 0.0
H7 H 0.03599 0.93828 0.09721 0.0
H8 H 0.02916 0.97721 0.13681 0.0
H9 H 0.07197 0.97723 0.11084 0.0
H10 H 0.95442 0.07323 0.05663 0.0
H11 H 0.92918 0.0252 0.04727 0.0
H12 H 0.95314 0.04537 0.00835 0.0
C13 C 0.25257 0.75322 0.23635 0.0
N14 N 0.26613 0.73239 0.26276 0.0
N15 N 0.2744 0.78682 0.23407 0.0
C16 C 0.21943 0.73923 0.21047 0.0
C17 C 0.30119 0.78639 0.26112 0.0
N18 N 0.29641 0.75324 0.2786 0.0
C19 C 0.33387 0.81651 0.26813 0.0
H20 H 0.22876 0.72683 0.18129 0.0
H21 H 0.20275 0.76433 0.20704 0.0
H22 H 0.20147 0.71609 0.22195 0.0
H23 H 0.33715 0.8279 0.29948 0.0
H24 H 0.33109 0.84212 0.25225 0.0
H25 H 0.35908 0.80177 0.25889 0.0
C26 C 0.99241 0.5066 0.08083 0.0
N27 N 0.00988 0.47271 0.08083 0.0
N28 N 0.96376 0.50027 0.05568 0.0
C29 C 0.00178 0.54523 0.10733 0.0
C30 C 0.96401 0.46146 0.04034 0.0
N31 N 0.99242 0.44444 0.05493 0.0
C32 C 0.93776 0.44091 0.00893 0.0
H33 H 0.98477 0.54574 0.13356 0.0
H34 H 0.99559 0.57103 0.09294 0.0
H35 H 0.03115 0.54807 0.11633 0.0
H36 H 0.94621 0.45007 0.98089 0.0
H37 H 0.90965 0.45016 0.01479 0.0
H38 H 0.93747 0.40792 0.00659 0.0
C39 C 0.69377 0.717 0.21582 0.0
N40 N 0.72163 0.74225 0.2062 0.0
N41 N 0.6721 0.7363 0.2422 0.0
C42 C 0.68726 0.67369 0.19871 0.0
C43 C 0.68769 0.77414 0.24853 0.0
N44 N 0.71832 0.77799 0.22716 0.0
C45 C 0.67324 0.80719 0.2765 0.0
H46 H 0.66991 0.67114 0.17214 0.0
H47 H 0.67273 0.6564 0.21938 0.0
H48 H 0.71364 0.66084 0.19062 0.0
H49 H 0.68185 0.80419 0.30639 0.0
H50 H 0.64281 0.80481 0.27528 0.0
H51 H 0.68383 0.83697 0.27001 0.0
C52 C 0.03575 0.9744 0.47001 0.0
N53 N 0.06745 0.98207 0.49125 0.0
N54 N 0.03388 0.99971 0.44388 0.0
C55 C 0.00504 0.94412 0.47679 0.0
C56 C 0.06567 0.02294 0.44916 0.0
N57 N 0.08627 0.01261 0.47802 0.0
C58 C 0.07735 0.05487 0.4252 0.0
H59 H 0.99012 0.93178 0.44936 0.0
H60 H 0.98523 0.959 0.49689 0.0
H61 H 0.01553 0.9192 0.48976 0.0
H62 H 0.05561 0.059 0.4042 0.0
H63 H 0.10242 0.0467 0.40916 0.0
H64 H 0.08435 0.08351 0.44457 0.0
C65 C 0.19374 0.74788 0.79083 0.0
N66 N 0.21447 0.72627 0.81062 0.0
N67 N 0.18055 0.72578 0.75774 0.0
C68 C 0.18518 0.79035 0.80444 0.0
C69 C 0.19408 0.68982 0.75767 0.0
N70 N 0.21564 0.69013 0.78961 0.0
C71 C 0.18573 0.65451 0.72666 0.0
H72 H 0.15928 0.79008 0.8208 0.0
H73 H 0.1813 0.80639 0.77945 0.0
H74 H 0.20732 0.8067 0.82377 0.0
H75 H 0.20369 0.65765 0.70165 0.0
H76 H 0.15687 0.6536 0.71634 0.0
H77 H 0.19051 0.62614 0.7374 0.0
C78 C 0.95473 0.53379 0.45976 0.0
N79 N 0.97528 0.56871 0.45924 0.0
N80 N 0.9229 0.54023 0.47795 0.0
C81 C 0.96496 0.49344 0.44094 0.0
C82 C 0.92442 0.58012 0.48863 0.0
N83 N 0.95632 0.59782 0.47749 0.0
C84 C 0.89565 0.60142 0.51224 0.0
H85 H 0.95334 0.48735 0.41102 0.0
H86 H 0.95337 0.46964 0.45697 0.0
H87 H 0.99519 0.49257 0.43948 0.0
H88 H 0.90059 0.5996 0.54329 0.0
H89 H 0.86794 0.58685 0.50396 0.0
H90 H 0.89669 0.63336 0.5084 0.0
C91 C 0.79333 0.8117 0.83528 0.0
N92 N 0.8208 0.78989 0.82019 0.0
N93 N 0.78236 0.83553 0.81056 0.0
C94 C 0.7756 0.80798 0.87349 0.0
C95 C 0.8044 0.82826 0.77993 0.0
N96 N 0.82828 0.8008 0.78559 0.0
C97 C 0.80358 0.84927 0.74501 0.0
H98 H 0.75208 0.78501 0.86876 0.0
H99 H 0.76511 0.83674 0.88637 0.0
H100 H 0.79535 0.79864 0.894 0.0
H101 H 0.82158 0.87743 0.75072 0.0
H102 H 0.77536 0.85699 0.7391 0.0
H103 H 0.81378 0.83038 0.7192 0.0
C104 C 0.30499 0.32248 0.34251 0.0
N105 N 0.33016 0.29757 0.3272 0.0
N106 N 0.29151 0.34244 0.31556 0.0
C107 C 0.29307 0.32631 0.38398 0.0
C108 C 0.31043 0.33004 0.28348 0.0
N109 N 0.33461 0.30355 0.29048 0.0
C110 C 0.30551 0.34368 0.24481 0.0
H111 H 0.27293 0.30101 0.38756 0.0
H112 H 0.28034 0.3548 0.39288 0.0
H113 H 0.31702 0.32473 0.40322 0.0
H114 H 0.32486 0.37015 0.24306 0.0
H115 H 0.27713 0.35199 0.24086 0.0
H116 H 0.31175 0.31978 0.221 0.0
C117 C 0.48924 0.99653 0.57801 0.0
N118 N 0.50652 0.9625 0.57802 0.0
N119 N 0.46088 0.99053 0.55246 0.0
C120 C 0.49857 0.035 0.60475 0.0
C121 C 0.4611 0.95175 0.53694 0.0
N122 N 0.48917 0.93444 0.55185 0.0
C123 C 0.43517 0.93152 0.5051 0.0
H124 H 0.4812 0.03553 0.63072 0.0
H125 H 0.49282 0.06096 0.59038 0.0
H126 H 0.52782 0.03758 0.61417 0.0
H127 H 0.44422 0.94062 0.47722 0.0
H128 H 0.40709 0.94108 0.51046 0.0
H129 H 0.43454 0.8985 0.50275 0.0
C130 C 0.20309 0.22069 0.72271 0.0
N131 N 0.23042 0.24561 0.71149 0.0
N132 N 0.18127 0.24089 0.74826 0.0
C133 C 0.19705 0.1768 0.70769 0.0
C134 C 0.19619 0.27896 0.75245 0.0
N135 N 0.22656 0.28211 0.73058 0.0
C136 C 0.18147 0.31296 0.77897 0.0
H137 H 0.17938 0.17257 0.68122 0.0
H138 H 0.18304 0.16058 0.72948 0.0
H139 H 0.22355 0.16407 0.69998 0.0
H140 H 0.19056 0.31187 0.80914 0.0
H141 H 0.15102 0.30997 0.77813 0.0
H142 H 0.19143 0.34222 0.77076 0.0
C143 C 0.76822 0.22831 0.72215 0.0
N144 N 0.77894 0.20953 0.75143 0.0
N145 N 0.78376 0.26621 0.72593 0.0
C146 C 0.74189 0.20945 0.69009 0.0
C147 C 0.80463 0.26974 0.75873 0.0
N148 N 0.80237 0.23511 0.77398 0.0
C149 C 0.82792 0.30669 0.77584 0.0
H150 H 0.74448 0.17681 0.68351 0.0
H151 H 0.74681 0.22289 0.66334 0.0
H152 H 0.71342 0.21408 0.69951 0.0
H153 H 0.82418 0.31236 0.80764 0.0
H154 H 0.82086 0.33316 0.76298 0.0
H155 H 0.85727 0.30184 0.77082 0.0
C156 C 0.51801 0.48382 0.5668 0.0
N157 N 0.54026 0.49696 0.53948 0.0
N158 N 0.4924 0.50973 0.57763 0.0
C159 C 0.52223 0.44656 0.58439 0.0
C160 C 0.49933 0.53913 0.55606 0.0
N161 N 0.52802 0.53147 0.53243 0.0
C162 C 0.4768 0.57457 0.55683 0.0
H163 H 0.49505 0.43294 0.59152 0.0
H164 H 0.53852 0.45454 0.61173 0.0
H165 H 0.53652 0.42441 0.56448 0.0
H166 H 0.46555 0.58336 0.58598 0.0
H167 H 0.45334 0.56636 0.53614 0.0
H168 H 0.49331 0.60052 0.5482 0.0
C169 C 0.53129 0.48824 0.97815 0.0
N170 N 0.56466 0.48783 0.99523 0.0
N171 N 0.53426 0.50419 0.94513 0.0
C172 C 0.49585 0.47026 0.99214 0.0
C173 C 0.5705 0.51396 0.94247 0.0
N174 N 0.58937 0.50426 0.97295 0.0
C175 C 0.58728 0.53407 0.91052 0.0
H176 H 0.49128 0.43874 0.97795 0.0
H177 H 0.47241 0.48653 0.98425 0.0
H178 H 0.49677 0.47079 0.02396 0.0
H179 H 0.58609 0.56686 0.91819 0.0
H180 H 0.57167 0.52429 0.88295 0.0
H181 H 0.61638 0.52748 0.90654 0.0
C182 C 0.68656 0.23767 0.29188 0.0
N183 N 0.70746 0.21673 0.31223 0.0
N184 N 0.67424 0.21513 0.25869 0.0
C185 C 0.67719 0.27998 0.30487 0.0
C186 C 0.68843 0.1796 0.25912 0.0
N187 N 0.70963 0.18061 0.29146 0.0
C188 C 0.68114 0.14409 0.22808 0.0
H189 H 0.65067 0.27935 0.32009 0.0
H190 H 0.67405 0.29584 0.27961 0.0
H191 H 0.69851 0.29677 0.32498 0.0
H192 H 0.6991 0.14783 0.20319 0.0
H193 H 0.65228 0.14227 0.21753 0.0
H194 H 0.68662 0.11595 0.23889 0.0
C195 C 0.44755 0.04325 0.94691 0.0
N196 N 0.47154 0.07601 0.94924 0.0
N197 N 0.4281 0.04355 0.9797 0.0
C198 C 0.44422 0.01028 0.91284 0.0
C199 C 0.44085 0.07793 0.002 0.0
N200 N 0.46677 0.09823 0.98336 0.0
C201 C 0.42786 0.09216 0.0421 0.0
H202 H 0.44883 0.02278 0.88551 0.0
H203 H 0.41685 0.99353 0.91154 0.0
H204 H 0.46557 0.98928 0.91545 0.0
H205 H 0.41849 0.06651 0.05685 0.0
H206 H 0.40454 0.11087 0.04018 0.0
H207 H 0.45017 0.11076 0.05949 0.0
Zn208 Zn 0.29492 0.84532 0.02375 0.0
Zn209 Zn 0.2434 0.88606 0.02088 0.0
O210 O 0.24852 0.87535 0.07925 0.0
O211 O 0.27878 0.82164 0.0691 0.0
O212 O 0.19975 0.92078 0.0181 0.0
O213 O 0.33138 0.8934 0.03003 0.0
O214 O 0.28671 0.92292 0.00685 0.0
C215 C 0.26231 0.84622 0.09211 0.0
C216 C 0.2567 0.8131 0.95875 0.0
O217 O 0.23487 0.83788 0.97534 0.0
O218 O 0.2881 0.81136 0.97323 0.0
C219 C 0.16813 0.91398 0.03192 0.0
O220 O 0.16154 0.88209 0.04873 0.0
C221 C 0.32054 0.92249 0.01546 0.0
Zn222 Zn 0.09576 0.45075 0.29862 0.0
Zn223 Zn 0.13952 0.51613 0.28971 0.0
O224 O 0.10596 0.54016 0.33207 0.0
O225 O 0.07198 0.48623 0.34231 0.0
O226 O 0.17732 0.56079 0.28239 0.0
O227 O 0.13961 0.42029 0.30589 0.0
O228 O 0.17347 0.47649 0.30658 0.0
C229 C 0.0805 0.52351 0.35011 0.0
C230 C 0.08778 0.47248 0.22349 0.0
O231 O 0.11225 0.50037 0.23631 0.0
O232 O 0.07607 0.4473 0.2447 0.0
C233 C 0.1727 0.59759 0.29217 0.0
O234 O 0.14155 0.60815 0.30744 0.0
C235 C 0.17073 0.43958 0.30973 0.0
Zn236 Zn 0.80288 0.58297 0.92991 0.0
Zn237 Zn 0.79814 0.64336 0.99019 0.0
O238 O 0.84138 0.61538 0.00703 0.0
O239 O 0.84509 0.56517 0.95943 0.0
O240 O 0.79108 0.68632 0.03554 0.0
O241 O 0.81306 0.62426 0.89392 0.0
O242 O 0.80833 0.67289 0.94285 0.0
C243 C 0.85622 0.58428 0.99187 0.0
C244 C 0.73404 0.57808 0.96945 0.0
O245 O 0.74916 0.60883 0.99075 0.0
O246 O 0.7507 0.56171 0.9403 0.0
C247 C 0.79021 0.67538 0.06884 0.0
O248 O 0.79719 0.63869 0.07228 0.0
C249 C 0.81406 0.66121 0.90706 0.0
Zn250 Zn 0.82863 0.98696 0.33919 0.0
Zn251 Zn 0.85885 0.99685 0.2772 0.0
O252 O 0.83203 0.04832 0.28758 0.0
O253 O 0.79254 0.02794 0.32865 0.0
O254 O 0.88927 1.00153 0.22989 0.0
O255 O 0.87364 0.0027 0.37306 0.0
O256 O 0.90068 0.99485 0.31678 0.0
C257 C 0.80305 0.05345 0.30713 0.0
C258 C 0.81282 0.91955 0.28279 0.0
O259 O 0.82303 0.9458 0.26171 0.0
O260 O 0.81933 0.92791 0.31871 0.0
C261 C 0.87987 0.99032 0.19463 0.0
O262 O 0.84619 0.97538 0.18556 0.0
C263 C 0.90262 0.9999 0.35364 0.0
Zn264 Zn 0.30399 0.08667 0.42915 0.0
Zn265 Zn 0.2999 0.14177 0.49277 0.0
O266 O 0.3425 0.11195 0.50795 0.0
O267 O 0.34388 0.06363 0.45816 0.0
O268 O 0.2931 0.18324 0.5396 0.0
O269 O 0.31783 0.12969 0.39639 0.0
O270 O 0.31105 0.17478 0.44779 0.0
C271 C 0.35578 0.0805 0.4912 0.0
C272 C 0.23437 0.07956 0.46632 0.0
O273 O 0.25077 0.10655 0.49122 0.0
O274 O 0.25022 0.06785 0.43497 0.0
C275 C 0.29472 0.17339 0.57329 0.0
O276 O 0.30378 0.13751 0.57724 0.0
C277 C 0.31844 0.16587 0.41199 0.0
Zn278 Zn 0.33232 0.49586 0.83756 0.0
Zn279 Zn 0.36246 0.50357 0.77591 0.0
O280 O 0.33654 0.55584 0.78526 0.0
O281 O 0.29594 0.53569 0.82535 0.0
O282 O 0.39319 0.50566 0.72857 0.0
O283 O 0.37671 0.51383 0.87187 0.0
O284 O 0.4037 0.50084 0.8159 0.0
C285 C 0.30718 0.56119 0.80413 0.0
C286 C 0.31736 0.42703 0.78255 0.0
O287 O 0.32628 0.4531 0.76091 0.0
O288 O 0.32446 0.4362 0.81831 0.0
C289 C 0.38243 0.50741 0.69428 0.0
O290 O 0.34738 0.50897 0.68675 0.0
C291 C 0.40556 0.50839 0.85273 0.0
Zn292 Zn 0.80023 0.33662 0.51899 0.0
Zn293 Zn 0.74167 0.37795 0.52355 0.0
O294 O 0.74737 0.3616 0.57925 0.0
O295 O 0.79393 0.3239 0.57167 0.0
O296 O 0.69749 0.41279 0.52651 0.0
O297 O 0.83236 0.38442 0.51004 0.0
O298 O 0.78333 0.41873 0.51293 0.0
C299 C 0.7696 0.33967 0.59298 0.0
C300 C 0.75119 0.30356 0.46018 0.0
O301 O 0.73271 0.33221 0.47572 0.0
O302 O 0.78172 0.29777 0.47452 0.0
C303 C 0.66513 0.4035 0.5125 0.0
O304 O 0.65698 0.36742 0.49355 0.0
C305 C 0.81765 0.41659 0.50823 0.0
Zn306 Zn 0.58948 0.94769 0.79864 0.0
Zn307 Zn 0.63675 0.00707 0.78514 0.0
O308 O 0.60488 0.03621 0.82696 0.0
O309 O 0.56448 0.98712 0.83661 0.0
O310 O 0.67716 0.049 0.77834 0.0
O311 O 0.62889 0.91711 0.81734 0.0
O312 O 0.66745 0.96479 0.8031 0.0
C313 C 0.57648 0.0235 0.8437 0.0
C314 C 0.5853 0.9628 0.72022 0.0
O315 O 0.60928 0.99145 0.73218 0.0
O316 O 0.5738 0.93861 0.74257 0.0
C317 C 0.67106 0.08362 0.7716 0.0
O318 O 0.63707 0.09251 0.76741 0.0
C319 C 0.66152 0.93208 0.81655 0.0
Zn320 Zn 0.00244 0.27477 0.866 0.0
Zn321 Zn 0.00144 0.22087 0.90505 0.0
O322 O 0.04545 0.21516 0.86671 0.0
O323 O 0.03646 0.25629 0.82526 0.0
O324 O 0.01235 0.17808 0.93813 0.0
O325 O 0.02443 0.3154 0.90915 0.0
O326 O 1.00079 0.27369 0.94556 0.0
C327 C 0.05477 0.22995 0.83631 0.0
C328 C 0.9324 0.23079 0.86069 0.0
O329 O 0.9499 0.20695 0.87773 0.0
O330 O 0.9479 0.26412 0.85531 0.0
C331 C 0.00179 0.14102 0.93134 0.0
O332 O 0.98006 0.1278 0.90131 0.0
C333 C 0.01389 0.30894 0.94207 0.0
Zn334 Zn 0.49724 0.76792 0.36475 0.0
Zn335 Zn 0.49363 0.71225 0.40028 0.0
O336 O 0.53677 0.70692 0.36021 0.0
O337 O 0.52753 0.74975 0.32054 0.0
O338 O 0.49977 0.66495 0.43009 0.0
O339 O 0.52413 0.80434 0.4081 0.0
O340 O 0.49576 0.7638 0.4428 0.0
C341 C 0.54564 0.7225 0.33009 0.0
C342 C 0.42471 0.73131 0.36083 0.0
O343 O 0.44104 0.70433 0.37457 0.0
O344 O 0.44218 0.76428 0.35755 0.0
C345 C 0.53047 0.64973 0.43264 0.0
O346 O 0.55928 0.66414 0.41553 0.0
C347 C 0.51172 0.79816 0.44041 0.0
Zn348 Zn 0.95366 0.83002 0.59583 0.0
Zn349 Zn 0.01252 0.80942 0.63369 0.0
O350 O 0.03454 0.86126 0.61628 0.0
O351 O 0.98732 0.87822 0.58448 0.0
O352 O 0.05242 0.78716 0.66056 0.0
O353 O 0.92428 0.82867 0.64576 0.0
O354 O 0.97276 0.81156 0.6752 0.0
C355 C 0.02072 0.88431 0.59545 0.0
C356 C 0.97888 0.75473 0.56236 0.0
O357 O 0.00283 0.76425 0.5893 0.0
O358 O 0.95377 0.77757 0.55826 0.0
C359 C 0.08496 0.80206 0.66808 0.0
O360 O 0.09594 0.83674 0.65795 0.0
C361 C 0.93918 0.81894 0.67551 0.0
Zn362 Zn 0.45657 0.33348 0.09704 0.0
Zn363 Zn 0.51202 0.30435 0.13116 0.0
O364 O 0.53794 0.35397 0.112 0.0
O365 O 0.49119 0.38202 0.09027 0.0
O366 O 0.55066 0.27726 0.15495 0.0
O367 O 0.42657 0.32747 0.14612 0.0
O368 O 0.47521 0.31024 0.17511 0.0
C369 C 0.5254 0.38189 0.09635 0.0
C370 C 0.47514 0.25803 0.05738 0.0
O371 O 0.49587 0.26084 0.08714 0.0
O372 O 0.45624 0.2867 0.05259 0.0
C373 C 0.58161 0.29302 0.16801 0.0
O374 O 0.59139 0.33055 0.16535 0.0
C375 C 0.44167 0.3176 0.17571 0.0
C376 C 0.20209 0.74295 0.88022 0.0
C377 C 0.2277 0.73967 0.8497 0.0
C378 C 0.2712 0.78685 0.88987 0.0
C379 C 0.24669 0.78743 0.92146 0.0
N380 N 0.19282 0.75797 0.94916 0.0
N381 N 0.28828 0.75355 0.82696 0.0
C382 C 0.21336 0.76295 0.91744 0.0
C383 C 0.26309 0.75948 0.85543 0.0
N384 N 0.16626 0.72921 0.873 0.0
N385 N 0.30061 0.81457 0.8915 0.0
H386 H 0.28205 0.73543 0.80062 0.0
H387 H 0.31583 0.76389 0.83066 0.0
H388 H 0.30621 0.83718 0.91493 0.0
H389 H 0.31729 0.81799 0.868 0.0
H390 H 0.14556 0.73514 0.89292 0.0
H391 H 0.15675 0.71449 0.84604 0.0
H392 H 0.17008 0.73732 0.94812 0.0
H393 H 0.20057 0.77142 0.97715 0.0
C394 C 0.04144 0.57084 0.44478 0.0
C395 C 0.00474 0.57283 0.43231 0.0
C396 C 0.02359 0.55784 0.36472 0.0
C397 C 0.05786 0.54789 0.37777 0.0
N398 N 0.10134 0.54668 0.42936 0.0
N399 N 0.96012 0.56633 0.38021 0.0
C400 C 0.06766 0.55566 0.41758 0.0
C401 C 0.99586 0.56695 0.39207 0.0
N402 N 0.05075 0.58255 0.48278 0.0
N403 N 0.01744 0.55778 0.32607 0.0
H404 H 0.93896 0.57274 0.39944 0.0
H405 H 0.95106 0.55702 0.35174 0.0
H406 H 0.03737 0.55088 0.30541 0.0
H407 H 0.99413 0.5682 0.31499 0.0
H408 H 0.07743 0.58468 0.49384 0.0
H409 H 0.03184 0.5938 0.50264 0.0
H410 H 0.10898 0.54721 0.4582 0.0
H411 H 0.12143 0.53704 0.40982 0.0
C412 C 0.85428 0.74872 0.8593 0.0
C413 C 0.82611 0.75152 0.83207 0.0
C414 C 0.7915 0.693 0.85196 0.0
C415 C 0.81939 0.69079 0.87979 0.0
N416 N 0.88077 0.71036 0.90452 0.0
N417 N 0.77177 0.72186 0.79665 0.0
C418 C 0.85197 0.71671 0.88168 0.0
C419 C 0.79637 0.72156 0.82614 0.0
N420 N 0.88216 0.77814 0.86515 0.0
N421 N 0.75921 0.66973 0.85201 0.0
H422 H 0.77384 0.74348 0.77837 0.0
H423 H 0.75146 0.69901 0.78796 0.0
H424 H 0.75428 0.64872 0.87068 0.0
H425 H 0.73606 0.67317 0.83574 0.0
H426 H 0.90135 0.78123 0.88775 0.0
H427 H 0.88507 0.80047 0.84772 0.0
H428 H 0.90651 0.72578 0.90461 0.0
H429 H 0.87976 0.68736 0.92135 0.0
C430 C 0.99655 0.97344 0.38545 0.0
C431 C 0.00334 0.00265 0.41848 0.0
C432 C 0.9484 0.03469 0.40363 0.0
C433 C 0.93861 0.00204 0.374 0.0
N434 N 0.95117 0.93703 0.34016 0.0
N435 N 0.9845 0.05877 0.46205 0.0
C436 C 0.96229 0.97066 0.36542 0.0
C437 C 0.97901 0.03281 0.42833 0.0
N438 N 0.02298 0.94829 0.37355 0.0
N439 N 0.92924 0.06803 0.4073 0.0
H440 H 0.00697 0.05838 0.48048 0.0
H441 H 0.96548 0.0786 0.47311 0.0
H442 H 0.90743 0.07107 0.38884 0.0
H443 H 0.93726 0.09418 0.42601 0.0
H444 H 0.02132 0.92869 0.34753 0.0
H445 H 0.04811 0.94971 0.38825 0.0
H446 H 0.96577 0.91163 0.33597 0.0
H447 H 0.9257 0.93282 0.32596 0.0
C448 C 0.28648 0.22663 0.6762 0.0
C449 C 0.2497 0.23657 0.67571 0.0
C450 C 0.24314 0.20813 0.60709 0.0
C451 C 0.28041 0.19905 0.60711 0.0
N452 N 0.33973 0.20696 0.63903 0.0
N453 N 0.1955 0.24534 0.63957 0.0
C454 C 0.30284 0.21076 0.64089 0.0
C455 C 0.2291 0.23047 0.64053 0.0
N456 N 0.30498 0.23035 0.71075 0.0
N457 N 0.22026 0.1927 0.57647 0.0
H458 H 0.18428 0.26136 0.66391 0.0
H459 H 0.18054 0.24545 0.61411 0.0
H460 H 0.2288 0.17499 0.55174 0.0
H461 H 0.19194 0.19426 0.57693 0.0
H462 H 0.33057 0.21962 0.71393 0.0
H463 H 0.29342 0.24204 0.73676 0.0
H464 H 0.35806 0.21813 0.6617 0.0
H465 H 0.35242 0.19567 0.61349 0.0
C466 C 0.47047 0.53316 0.643 0.0
C467 C 0.4651 0.50802 0.60704 0.0
C468 C 0.40635 0.48032 0.62871 0.0
C469 C 0.40999 0.50845 0.66332 0.0
N470 N 0.44208 0.56749 0.69941 0.0
N471 N 0.42607 0.46246 0.56256 0.0
C472 C 0.4412 0.53647 0.66946 0.0
C473 C 0.4324 0.48301 0.59896 0.0
N474 N 0.50379 0.55362 0.65186 0.0
N475 N 0.37926 0.44985 0.625 0.0
H476 H 0.44503 0.46362 0.54049 0.0
H477 H 0.40108 0.44692 0.55355 0.0
H478 H 0.36033 0.44593 0.64655 0.0
H479 H 0.37764 0.42629 0.60208 0.0
H480 H 0.51077 0.56931 0.6792 0.0
H481 H 0.52554 0.55199 0.63268 0.0
H482 H 0.46257 0.59088 0.70304 0.0
H483 H 0.42039 0.57224 0.71835 0.0
C484 C 0.74485 0.3051 0.68951 0.0
C485 C 0.78019 0.29443 0.69909 0.0
C486 C 0.80609 0.33355 0.65133 0.0
C487 C 0.77077 0.33398 0.63448 0.0
N488 N 0.70514 0.32015 0.63867 0.0
N489 N 0.84464 0.29454 0.68419 0.0
C490 C 0.7395 0.32059 0.65427 0.0
C491 C 0.81108 0.30818 0.67919 0.0
N492 N 0.71656 0.29985 0.71393 0.0
N493 N 0.835 0.35662 0.63982 0.0
H494 H 0.84908 0.27341 0.70203 0.0
H495 H 0.86712 0.30112 0.66739 0.0
H496 H 0.83172 0.37641 0.62007 0.0
H497 H 0.86086 0.35927 0.65315 0.0
H498 H 0.69071 0.30975 0.7101 0.0
H499 H 0.72035 0.28906 0.74002 0.0
H500 H 0.68204 0.30631 0.64986 0.0
H501 H 0.6999 0.33165 0.61336 0.0
C502 C 0.50765 0.95426 0.64654 0.0
C503 C 0.52677 0.95494 0.6115 0.0
C504 C 0.58516 0.95629 0.64703 0.0
C505 C 0.56598 0.9609 0.68244 0.0
N506 N 0.5094 0.97358 0.71588 0.0
N507 N 0.58364 0.96036 0.57819 0.0
C508 C 0.52728 0.96216 0.68222 0.0
C509 C 0.56558 0.95673 0.61163 0.0
N510 N 0.47041 0.94674 0.64555 0.0
N511 N 0.62172 0.95055 0.64714 0.0
H512 H 0.56975 0.95966 0.55198 0.0
H513 H 0.61193 0.9663 0.5769 0.0
H514 H 0.63676 0.95013 0.67255 0.0
H515 H 0.63644 0.94318 0.62202 0.0
H516 H 0.45519 0.94215 0.66983 0.0
H517 H 0.45524 0.94079 0.61969 0.0
H518 H 0.48175 0.97903 0.71673 0.0
H519 H 0.52285 0.98207 0.7426 0.0
C520 C 0.83089 0.23321 0.83851 0.0
C521 C 0.83156 0.22378 0.79756 0.0
C522 C 0.89434 0.20346 0.80237 0.0
C523 C 0.89566 0.21896 0.84224 0.0
N524 N 0.86573 0.24791 0.89939 0.0
N525 N 0.8665 0.20597 0.74006 0.0
C526 C 0.8638 0.23301 0.86081 0.0
C527 C 0.86378 0.20978 0.77938 0.0
N528 N 0.79897 0.24349 0.85575 0.0
N529 N 0.92289 0.18353 0.78631 0.0
H530 H 0.845 0.21058 0.72198 0.0
H531 H 0.89088 0.201 0.72552 0.0
H532 H 0.94578 0.17884 0.80258 0.0
H533 H 0.92216 0.16832 0.75807 0.0
H534 H 0.79522 0.24759 0.88554 0.0
H535 H 0.77535 0.24556 0.8397 0.0
H536 H 0.84507 0.2628 0.91428 0.0
H537 H 0.88901 0.24633 0.9164 0.0
C538 C 0.50229 0.86239 0.54009 0.0
C539 C 0.50594 0.90124 0.52958 0.0
C540 C 0.51066 0.87233 0.46221 0.0
C541 C 0.51091 0.83312 0.47222 0.0
N542 N 0.51722 0.79353 0.52383 0.0
N543 N 0.52745 0.94228 0.48267 0.0
C544 C 0.51002 0.82881 0.51222 0.0
C545 C 0.51629 0.90555 0.49153 0.0
N546 N 0.49006 0.85728 0.57586 0.0
N547 N 0.5003 0.87846 0.426 0.0
H548 H 0.53053 0.9675 0.50377 0.0
H549 H 0.53694 0.94642 0.45534 0.0
H550 H 0.48818 0.8559 0.40527 0.0
H551 H 0.49777 0.90693 0.41893 0.0
H552 H 0.48328 0.82924 0.58375 0.0
H553 H 0.48455 0.88136 0.59653 0.0
H554 H 0.51932 0.79012 0.55292 0.0
H555 H 0.52527 0.76926 0.50475 0.0
C556 C 0.11537 0.21913 0.75048 0.0
C557 C 0.15036 0.22589 0.76864 0.0
C558 C 0.12316 0.22399 0.83209 0.0
C559 C 0.08775 0.21876 0.81408 0.0
N560 N 0.05111 0.19759 0.75607 0.0
N561 N 0.18868 0.22071 0.82316 0.0
C562 C 0.08428 0.21148 0.77309 0.0
C563 C 0.15452 0.22333 0.80836 0.0
N564 N 0.11171 0.22239 0.7122 0.0
N565 N 0.12712 0.23269 0.87144 0.0
H566 H 0.21159 0.21905 0.80556 0.0
H567 H 0.19355 0.21567 0.85138 0.0
H568 H 0.10524 0.23348 0.89032 0.0
H569 H 0.1523 0.24169 0.88541 0.0
H570 H 0.08645 0.22222 0.69822 0.0
H571 H 0.13419 0.22777 0.69502 0.0
H572 H 0.04739 0.18884 0.72634 0.0
H573 H 0.02814 0.19102 0.77228 0.0
C574 C 0.51017 0.55041 0.46972 0.0
C575 C 0.53642 0.55336 0.50051 0.0
C576 C 0.55987 0.61925 0.48587 0.0
C577 C 0.53404 0.61572 0.45466 0.0
N578 N 0.49203 0.57306 0.41033 0.0
N579 N 0.59076 0.58655 0.53272 0.0
C580 C 0.51163 0.57967 0.44445 0.0
C581 C 0.56311 0.58628 0.50636 0.0
N582 N 0.48185 0.52134 0.4666 0.0
N583 N 0.57944 0.65502 0.49783 0.0
H584 H 0.59276 0.56323 0.54857 0.0
H585 H 0.61322 0.60764 0.53618 0.0
H586 H 0.57702 0.68032 0.48465 0.0
H587 H 0.59572 0.66082 0.5229 0.0
H588 H 0.45932 0.52068 0.44804 0.0
H589 H 0.47943 0.49959 0.48479 0.0
H590 H 0.47809 0.54566 0.39961 0.0
H591 H 0.49268 0.59365 0.39091 0.0
C592 C 0.888 0.83384 0.771 0.0
C593 C 0.86315 0.79899 0.76582 0.0
C594 C 0.8956 0.77339 0.70692 0.0
C595 C 0.91606 0.81092 0.70881 0.0
N596 N 0.9337 0.87658 0.74285 0.0
N597 N 0.84411 0.73478 0.72999 0.0
C598 C 0.9133 0.84085 0.74134 0.0
C599 C 0.86773 0.7682 0.73446 0.0
N600 N 0.88623 0.86077 0.80402 0.0
N601 N 0.9031 0.74259 0.67885 0.0
H602 H 0.82605 0.72884 0.75149 0.0
H603 H 0.84191 0.71358 0.70512 0.0
H604 H 0.92286 0.74561 0.65788 0.0
H605 H 0.89194 0.71331 0.67798 0.0
H606 H 0.90487 0.88547 0.81163 0.0
H607 H 0.86726 0.85666 0.8255 0.0
H608 H 0.93057 0.90147 0.76351 0.0
H609 H 0.95308 0.88199 0.72209 0.0
C610 C 0.08765 0.93208 0.52961 0.0
C611 C 0.07122 0.96832 0.5285 0.0
C612 C 0.03522 0.95535 0.5854 0.0
C613 C 0.04438 0.91519 0.57912 0.0
N614 N 0.08004 0.86464 0.54453 0.0
N615 N 0.0291 0.0151 0.5566 0.0
C616 C 0.07156 0.90355 0.55175 0.0
C617 C 0.04604 0.9809 0.55793 0.0
N618 N 0.1182 0.9246 0.50872 0.0
N619 N 0.01525 0.96852 0.61697 0.0
H620 H 0.0351 0.03338 0.53568 0.0
H621 H 0.00725 0.02363 0.57406 0.0
H622 H 0.00697 0.95001 0.63718 0.0
H623 H 0.01014 0.99837 0.625 0.0
H624 H 0.13329 0.90006 0.51024 0.0
H625 H 0.13101 0.9461 0.49426 0.0
H626 H 0.09595 0.85354 0.52135 0.0
H627 H 0.06929 0.84254 0.55992 0.0
C628 C 0.16856 0.75284 0.69765 0.0
C629 C 0.1553 0.73817 0.73114 0.0
C630 C 0.09731 0.76764 0.72477 0.0
C631 C 0.10957 0.78046 0.68977 0.0
N632 N 0.15354 0.77723 0.63823 0.0
N633 N 0.10524 0.72294 0.77169 0.0
C634 C 0.14429 0.77074 0.67474 0.0
C635 C 0.11886 0.74255 0.74284 0.0
N636 N 0.20472 0.75103 0.68872 0.0
N637 N 0.06638 0.78145 0.74209 0.0
H638 H 0.12086 0.70422 0.78506 0.0
H639 H 0.07779 0.72205 0.7795 0.0
H640 H 0.05085 0.80187 0.73112 0.0
H641 H 0.05825 0.77599 0.76946 0.0
H642 H 0.21713 0.76525 0.66717 0.0
H643 H 0.22283 0.7374 0.70477 0.0
H644 H 0.17703 0.76717 0.62454 0.0
H645 H 0.13613 0.78939 0.62016 0.0
C646 C 0.97751 0.64205 0.53674 0.0
C647 C 0.97126 0.63672 0.49612 0.0
C648 C 0.97776 0.7095 0.49813 0.0
C649 C 0.9779 0.7144 0.5392 0.0
N650 N 0.97097 0.68445 0.59772 0.0
N651 N 0.96172 0.66531 0.43834 0.0
C652 C 0.97642 0.68048 0.55864 0.0
C653 C 0.97082 0.67047 0.47673 0.0
N654 N 0.98304 0.60978 0.55451 0.0
N655 N 0.9848 0.74194 0.47965 0.0
H656 H 0.95674 0.6371 0.42223 0.0
H657 H 0.95677 0.68874 0.42335 0.0
H658 H 0.99034 0.77083 0.49454 0.0
H659 H 0.98842 0.73972 0.44987 0.0
H660 H 0.99125 0.61205 0.58343 0.0
H661 H 0.98326 0.58108 0.53914 0.0
H662 H 0.96547 0.66024 0.6125 0.0
H663 H 0.96794 0.71172 0.61503 0.0
C664 C 0.76049 0.8356 0.21227 0.0
C665 C 0.74786 0.80895 0.2377 0.0
C666 C 0.7741 0.85585 0.29197 0.0
C667 C 0.79163 0.88054 0.26659 0.0
N668 N 0.81088 0.8819 0.20006 0.0
N669 N 0.7569 0.78756 0.2995 0.0
C670 C 0.78786 0.86691 0.22582 0.0
C671 C 0.76034 0.81672 0.2766 0.0
N672 N 0.74562 0.83246 0.17606 0.0
N673 N 0.76645 0.87009 0.3295 0.0
H674 H 0.74754 0.75828 0.28843 0.0
H675 H 0.76722 0.79187 0.32788 0.0
H676 H 0.76742 0.90035 0.34057 0.0
H677 H 0.75238 0.85232 0.34742 0.0
H678 H 0.7523 0.8533 0.15758 0.0
H679 H 0.72392 0.81165 0.16657 0.0
H680 H 0.80955 0.87095 0.1705 0.0
H681 H 0.83452 0.90022 0.20857 0.0
C682 C 0.76137 0.14043 0.26867 0.0
C683 C 0.73542 0.1515 0.29753 0.0
C684 C 0.76069 0.10544 0.3364 0.0
C685 C 0.78109 0.08851 0.30424 0.0
N686 N 0.79123 0.085 0.23508 0.0
N687 N 0.70457 0.13581 0.35454 0.0
C688 C 0.77906 0.10473 0.26901 0.0
C689 C 0.73348 0.13169 0.33036 0.0
N690 N 0.76917 0.16387 0.24083 0.0
N691 N 0.76788 0.09792 0.3729 0.0
H692 H 0.68239 0.15125 0.34819 0.0
H693 H 0.70064 0.11963 0.37752 0.0
H694 H 0.78987 0.08216 0.37949 0.0
H695 H 0.75502 0.11197 0.3972 0.0
H696 H 0.79006 0.15851 0.221 0.0
H697 H 0.75757 0.19089 0.24041 0.0
H698 H 0.78745 0.0948 0.20852 0.0
H699 H 0.80024 0.05638 0.23225 0.0
C700 C 0.41058 0.97416 0.9897 0.0
C701 C 0.40096 0.01357 0.98913 0.0
C702 C 0.33967 0.99485 0.01117 0.0
C703 C 0.34777 0.95412 0.00601 0.0
N704 N 0.38838 0.90485 0.97753 0.0
N705 N 0.35338 0.05894 0.99007 0.0
C706 C 0.38254 0.94358 0.99165 0.0
C707 C 0.36454 0.02324 0.99708 0.0
N708 N 0.4465 0.96596 0.98912 0.0
N709 N 0.30943 0.00698 0.03097 0.0
H710 H 0.37065 0.07958 0.97817 0.0
H711 H 0.32616 0.06598 0.99227 0.0
H712 H 0.29181 0.98783 0.04433 0.0
H713 H 0.30438 0.03699 0.03796 0.0
H714 H 0.45488 0.93803 0.99266 0.0
H715 H 0.46779 0.98817 0.98931 0.0
H716 H 0.41268 0.89679 0.96417 0.0
H717 H 0.36759 0.88173 0.9743 0.0
C718 C 0.22696 0.35629 0.33016 0.0
C719 C 0.26253 0.36921 0.31917 0.0
C720 C 0.23885 0.4293 0.30143 0.0
C721 C 0.20386 0.41833 0.31637 0.0
N722 N 0.17116 0.37839 0.35918 0.0
N723 N 0.30423 0.42413 0.30724 0.0
C724 C 0.19992 0.38405 0.33535 0.0
C725 C 0.26913 0.40798 0.30941 0.0
N726 N 0.21819 0.31727 0.33374 0.0
N727 N 0.24318 0.4572 0.27705 0.0
H728 H 0.3268 0.40918 0.31387 0.0
H729 H 0.3104 0.45364 0.30292 0.0
H730 H 0.22163 0.47045 0.26583 0.0
H731 H 0.26799 0.46319 0.26369 0.0
H732 H 0.19151 0.30623 0.33874 0.0
H733 H 0.23655 0.29538 0.32751 0.0
H734 H 0.1689 0.3548 0.37528 0.0
H735 H 0.15262 0.39996 0.36684 0.0
C736 C 0.15039 0.00489 0.45803 0.0
C737 C 0.12508 0.02495 0.48297 0.0
C738 C 0.17016 0.08318 0.49463 0.0
C739 C 0.19715 0.06069 0.47411 0.0
N740 N 0.21417 0.9944 0.44818 0.0
N741 N 0.11354 0.08122 0.53026 0.0
C742 C 0.18772 0.01976 0.45944 0.0
C743 C 0.13622 0.0632 0.50353 0.0
N744 N 0.13863 0.97244 0.4317 0.0
N745 N 0.1751 0.12389 0.50251 0.0
H746 H 0.08845 0.06726 0.53651 0.0
H747 H 0.12131 0.10775 0.54857 0.0
H748 H 0.19724 0.14037 0.49249 0.0
H749 H 0.15486 0.14165 0.51456 0.0
H750 H 0.15556 0.95948 0.41024 0.0
H751 H 0.11154 0.96011 0.43009 0.0
H752 H 0.2081 0.96379 0.43966 0.0
H753 H 0.24212 0.00274 0.45229 0.0
C754 C 0.76163 0.13702 0.74626 0.0
C755 C 0.75672 0.17666 0.76361 0.0
C756 C 0.70026 0.15268 0.79312 0.0
C757 C 0.70199 0.11451 0.77065 0.0
N758 N 0.73247 0.0716 0.72145 0.0
N759 N 0.71669 0.22328 0.79686 0.0
C760 C 0.73249 0.10669 0.74643 0.0
C761 C 0.72493 0.18476 0.78557 0.0
N762 N 0.79372 0.12877 0.72838 0.0
N763 N 0.6756 0.15824 0.82227 0.0
H764 H 0.73352 0.24788 0.7913 0.0
H765 H 0.69167 0.23066 0.8089 0.0
H766 H 0.65795 0.13508 0.82976 0.0
H767 H 0.6756 0.18475 0.84167 0.0
H768 H 0.80074 0.09989 0.71849 0.0
H769 H 0.81456 0.15089 0.72647 0.0
H770 H 0.75207 0.06607 0.70025 0.0
H771 H 0.71103 0.04927 0.71922 0.0
C772 C 0.40156 0.02019 0.55839 0.0
C773 C 0.43672 0.01889 0.54201 0.0
C774 C 0.42093 0.06526 0.49821 0.0
C775 C 0.3843 0.06226 0.51107 0.0
N776 N 0.33854 0.03648 0.55232 0.0
N777 N 0.48111 0.03965 0.49732 0.0
C778 C 0.37433 0.04007 0.54132 0.0
C779 C 0.44689 0.0417 0.51245 0.0
N780 N 0.39456 0.00224 0.59033 0.0
N781 N 0.43086 0.09125 0.47301 0.0
H782 H 0.50127 0.02479 0.50913 0.0
H783 H 0.48923 0.05135 0.47255 0.0
H784 H 0.41234 0.10891 0.46214 0.0
H785 H 0.45778 0.09766 0.46504 0.0
H786 H 0.37062 0.0047 0.60614 0.0
H787 H 0.41429 0.98735 0.60289 0.0
H788 H 0.32865 0.01734 0.57119 0.0
H789 H 0.31792 0.05108 0.54082 0.0
C790 C 0.58117 0.45879 0.4929 0.0
C791 C 0.57563 0.48139 0.5296 0.0
C792 C 0.62952 0.45386 0.55544 0.0
C793 C 0.63623 0.43291 0.51808 0.0
N794 N 0.62405 0.42515 0.44923 0.0
N795 N 0.59966 0.50753 0.59341 0.0
C796 C 0.61382 0.43849 0.48615 0.0
C797 C 0.60193 0.48157 0.55983 0.0
N798 N 0.55426 0.45451 0.46514 0.0
N799 N 0.6472 0.4451 0.58738 0.0
H800 H 0.57911 0.52728 0.59795 0.0
H801 H 0.61996 0.51206 0.61504 0.0
H802 H 0.66601 0.42344 0.5862 0.0
H803 H 0.64038 0.45626 0.61561 0.0
H804 H 0.55488 0.43489 0.43923 0.0
H805 H 0.52985 0.46801 0.46974 0.0
H806 H 0.6105 0.43155 0.42482 0.0
H807 H 0.64837 0.41152 0.44306 0.0
C808 C 0.75599 0.25079 0.35673 0.0
C809 C 0.72057 0.23101 0.35122 0.0
C810 C 0.70589 0.25582 0.41867 0.0
C811 C 0.73979 0.27924 0.42267 0.0
N812 N 0.79431 0.30514 0.393 0.0
N813 N 0.65905 0.22087 0.37439 0.0
C814 C 0.76435 0.27809 0.39114 0.0
C815 C 0.69481 0.23498 0.38164 0.0
N816 N 0.78108 0.24473 0.32816 0.0
N817 N 0.68466 0.25272 0.45029 0.0
H818 H 0.64981 0.20523 0.34767 0.0
H819 H 0.63813 0.22718 0.39393 0.0
H820 H 0.6919 0.26764 0.47792 0.0
H821 H 0.66152 0.23269 0.4497 0.0
H822 H 0.80869 0.25481 0.33173 0.0
H823 H 0.77467 0.22689 0.30174 0.0
H824 H 0.81119 0.30838 0.36961 0.0
H825 H 0.80032 0.32737 0.41669 0.0
C826 C 0.53294 0.05149 0.93851 0.0
C827 C 0.50537 0.0755 0.92815 0.0
C828 C 0.5324 0.07558 0.86413 0.0
C829 C 0.55839 0.04974 0.87411 0.0
N830 N 0.59142 0.02433 0.92353 0.0
N831 N 0.48333 0.11786 0.88563 0.0
C832 C 0.56143 0.0418 0.91244 0.0
C833 C 0.50703 0.09051 0.8925 0.0
N834 N 0.53015 0.03528 0.97198 0.0
N835 N 0.53071 0.08375 0.82706 0.0
H836 H 0.46449 0.12833 0.9062 0.0
H837 H 0.48417 0.13228 0.86133 0.0
H838 H 0.54972 0.07405 0.80628 0.0
H839 H 0.51008 0.09889 0.81651 0.0
H840 H 0.54626 0.01308 0.97849 0.0
H841 H 0.51045 0.0428 0.99262 0.0
H842 H 0.59689 0.02084 0.95209 0.0
H843 H 0.6127 0.01703 0.90463 0.0
C844 C 0.30119 0.23126 0.33533 0.0
C845 C 0.33235 0.25948 0.34082 0.0
C846 C 0.35722 0.22242 0.38919 0.0
C847 C 0.32392 0.19764 0.38711 0.0
N848 N 0.26253 0.18061 0.36118 0.0
N849 N 0.38946 0.28314 0.37322 0.0
C850 C 0.29565 0.20227 0.36058 0.0
C851 C 0.36047 0.25501 0.36751 0.0
N852 N 0.27631 0.23291 0.30638 0.0
N853 N 0.3858 0.21439 0.41145 0.0
H854 H 0.39294 0.30595 0.35634 0.0
H855 H 0.409 0.28487 0.39532 0.0
H856 H 0.38401 0.19114 0.42798 0.0
H857 H 0.41197 0.22885 0.41155 0.0
H858 H 0.25533 0.21077 0.29787 0.0
H859 H 0.27839 0.25476 0.28838 0.0
H860 H 0.23923 0.18604 0.34615 0.0
H861 H 0.25719 0.15912 0.3793 0.0
C862 C 0.49423 0.47451 0.88979 0.0
C863 C 0.50515 0.50756 0.91817 0.0
C864 C 0.45487 0.54397 0.89819 0.0
C865 C 0.44109 0.50888 0.87336 0.0
N866 N 0.44505 0.43887 0.84884 0.0
N867 N 0.49587 0.5728 0.9518 0.0
C868 C 0.46027 0.47369 0.86965 0.0
C869 C 0.48557 0.5422 0.92287 0.0
N870 N 0.51659 0.44401 0.88217 0.0
N871 N 0.43921 0.57913 0.8973 0.0
H872 H 0.51899 0.57253 0.96939 0.0
H873 H 0.4805 0.59717 0.95985 0.0
H874 H 0.41704 0.58156 0.87908 0.0
H875 H 0.45004 0.60652 0.91204 0.0
H876 H 0.5121 0.42063 0.8593 0.0
H877 H 0.54165 0.44423 0.89662 0.0
H878 H 0.45586 0.41135 0.84864 0.0
H879 H 0.41983 0.43659 0.83428 0.0
C880 C 0.77879 0.72485 0.17224 0.0
C881 C 0.74199 0.73459 0.17095 0.0
C882 C 0.73784 0.7096 0.10137 0.0
C883 C 0.77508 0.7006 0.10238 0.0
N884 N 0.8333 0.7072 0.13633 0.0
N885 N 0.6889 0.7448 0.13376 0.0
C886 C 0.79635 0.71083 0.13711 0.0
C887 C 0.72254 0.7301 0.13511 0.0
N888 N 0.7961 0.72676 0.20726 0.0
N889 N 0.71616 0.69585 0.06934 0.0
H890 H 0.6768 0.75946 0.15825 0.0
H891 H 0.67475 0.74611 0.10806 0.0
H892 H 0.72569 0.67993 0.04405 0.0
H893 H 0.68781 0.69716 0.06881 0.0
H894 H 0.82165 0.71606 0.21075 0.0
H895 H 0.78355 0.73673 0.23321 0.0
H896 H 0.85089 0.71738 0.15989 0.0
H897 H 0.84681 0.69717 0.11092 0.0
C898 C 0.94251 0.96411 0.10899 0.0
C899 C 0.96389 1.00078 0.11009 0.0
C900 C 0.92666 0.0317 0.16254 0.0
C901 C 0.90748 0.994 0.16414 0.0
N902 N 0.90158 0.92256 0.14326 0.0
N903 N 0.9812 0.0673 0.14189 0.0
C904 C 0.91645 0.95965 0.13842 0.0
C905 C 0.95736 0.03396 0.1381 0.0
N906 N 0.94671 0.93387 0.07928 0.0
N907 N 0.91463 0.06558 0.18315 0.0
H908 H 0.00431 0.06916 0.12481 0.0
H909 H 0.98012 0.09122 0.1642 0.0
H910 H 0.89146 0.06534 0.2004 0.0
H911 H 0.92536 0.09427 0.18016 0.0
H912 H 0.9293 0.90779 0.07433 0.0
H913 H 0.96603 0.93633 0.05779 0.0
H914 H 0.90999 0.89618 0.12795 0.0
H915 H 0.88314 0.91782 0.16501 0.0
C916 C 0.24339 0.83248 0.19727 0.0
C917 C 0.27398 0.81048 0.20286 0.0
C918 C 0.30138 0.83243 0.14568 0.0
C919 C 0.26702 0.84386 0.13409 0.0
N920 N 0.2043 0.85569 0.15016 0.0
N921 N 0.32964 0.78384 0.17674 0.0
C922 C 0.23773 0.84499 0.16054 0.0
C923 C 0.30266 0.80929 0.17583 0.0
N924 N 0.21984 0.8409 0.22692 0.0
N925 N 0.33264 0.843 0.12727 0.0
H926 H 0.32993 0.76342 0.19611 0.0
H927 H 0.34929 0.77994 0.15528 0.0
H928 H 0.33264 0.86152 0.10593 0.0
H929 H 0.35863 0.83725 0.13649 0.0
H930 H 0.19852 0.85937 0.22567 0.0
H931 H 0.22387 0.83186 0.25384 0.0
H932 H 0.18109 0.8529 0.16698 0.0
H933 H 0.19938 0.86524 0.12374 0.0
C934 C 0.01073 0.46453 0.14937 0.0
C935 C 0.03004 0.4654 0.11446 0.0
C936 C 0.08829 0.46755 0.1504 0.0
C937 C 0.06886 0.47181 0.18568 0.0
N938 N 0.01199 0.48358 0.21877 0.0
N939 N 0.08702 0.47158 0.08152 0.0
C940 C 0.03013 0.47263 0.18518 0.0
C941 C 0.06886 0.46776 0.11486 0.0
N942 N 0.97354 0.45648 0.14813 0.0
N943 N 0.12492 0.46218 0.15072 0.0
H944 H 0.07322 0.47057 0.05519 0.0
H945 H 0.11528 0.47793 0.08041 0.0
H946 H 0.1399 0.46191 0.17618 0.0
H947 H 0.13981 0.45501 0.12567 0.0
H948 H 0.95824 0.45177 0.17231 0.0
H949 H 0.95855 0.45022 0.12217 0.0
H950 H 0.98427 0.4887 0.21951 0.0
H951 H 0.02531 0.49195 0.24558 0.0
C952 C 0.34868 0.7122 0.28665 0.0
C953 C 0.32368 0.73976 0.30324 0.0
C954 C 0.36017 0.75062 0.36408 0.0
C955 C 0.386 0.72508 0.34629 0.0
N956 N 0.39968 0.6725 0.29573 0.0
N957 N 0.30769 0.78867 0.35638 0.0
C958 C 0.37818 0.70249 0.30942 0.0
C959 C 0.3295 0.75922 0.34204 0.0
N960 N 0.34704 0.69929 0.24778 0.0
N961 N 0.36542 0.7666 0.40219 0.0
H962 H 0.28703 0.79781 0.33988 0.0
H963 H 0.31174 0.80652 0.38318 0.0
H964 H 0.3876 0.76009 0.41851 0.0
H965 H 0.34671 0.78325 0.41851 0.0
H966 H 0.36636 0.68229 0.23283 0.0
H967 H 0.32882 0.70993 0.2297 0.0
H968 H 0.39343 0.65228 0.27065 0.0
H969 H 0.42181 0.6653 0.31159 0.0
C970 C 0.01896 0.41615 0.99407 0.0
C971 C 0.00929 0.41155 0.03225 0.0
C972 C 0.01362 0.33929 0.01421 0.0
C973 C 0.01338 0.34378 0.97419 0.0
N974 N 0.00142 0.38962 0.92882 0.0
N975 N 0.99452 0.36714 0.07838 0.0
C976 C 0.0127 0.38313 0.9646 0.0
C977 C 0.00606 0.3726 0.04246 0.0
N978 N 0.02994 0.45298 0.98536 0.0
N979 N 0.02195 0.30423 0.02557 0.0
H980 H 0.98924 0.39105 0.09937 0.0
H981 H 0.98807 0.33896 0.08611 0.0
H982 H 0.03053 0.28036 0.00639 0.0
H983 H 0.02469 0.30087 0.05461 0.0
H984 H 0.0388 0.45734 0.95786 0.0
H985 H 0.03353 0.47799 0.00666 0.0
H986 H 0.99872 0.41822 0.92215 0.0
H987 H 0.98866 0.36728 0.9083 0.0
C988 C 0.64521 0.71589 0.30109 0.0
C989 C 0.64106 0.72049 0.26187 0.0
C990 C 0.57488 0.70671 0.2662 0.0
C991 C 0.57847 0.71205 0.30719 0.0
N992 N 0.61826 0.72409 0.36434 0.0
N993 N 0.60234 0.7204 0.2061 0.0
C994 C 0.61397 0.71628 0.32498 0.0
C995 C 0.606 0.71513 0.24386 0.0
N996 N 0.67926 0.71177 0.31536 0.0
N997 N 0.54158 0.69397 0.24893 0.0
H998 H 0.62484 0.72642 0.18915 0.0
H999 H 0.57707 0.72127 0.19245 0.0
H1000 H 0.51859 0.68686 0.26488 0.0
H1001 H 0.53774 0.68664 0.21906 0.0
H1002 H 0.68399 0.70526 0.34311 0.0
H1003 H 0.70206 0.71027 0.29758 0.0
H1004 H 0.64365 0.73213 0.37816 0.0
H1005 H 0.59654 0.72558 0.38341 0.0
C1006 C 0.02676 0.09542 0.02127 0.0
C1007 C 0.02859 0.05472 0.00508 0.0
C1008 C 0.02458 0.07431 0.94037 0.0
C1009 C 0.01412 0.11264 0.95695 0.0
N1010 N 1.00005 0.15704 0.01506 0.0
N1011 N 0.0269 0.00491 0.94849 0.0
C1012 C 0.01452 0.12293 0.99796 0.0
C1013 C 0.02737 0.04409 0.96434 0.0
N1014 N 0.03435 0.10703 0.05975 0.0
N1015 N 0.03282 0.06697 0.90202 0.0
H1016 H 0.02956 0.98253 0.96537 0.0
H1017 H 0.02164 0.99471 0.91919 0.0
H1018 H 0.03314 0.08893 0.88406 0.0
H1019 H 0.0434 0.0406 0.88926 0.0
H1020 H 0.03661 0.13683 0.07277 0.0
H1021 H 0.04196 0.08697 0.07763 0.0
H1022 H 0.99634 0.16363 0.0448 0.0
H1023 H 0.98772 0.17663 0.99968 0.0
C1024 C 0.37163 0.26949 0.2383 0.0
C1025 C 0.36862 0.30094 0.26937 0.0
C1026 C 0.41791 0.34139 0.24198 0.0
C1027 C 0.41923 0.31075 0.20981 0.0
N1028 N 0.40451 0.24217 0.1814 0.0
N1029 N 0.3936 0.3631 0.3056 0.0
C1030 C 0.39841 0.27358 0.20938 0.0
C1031 C 0.39382 0.33545 0.27292 0.0
N1032 N 0.3474 0.23658 0.23552 0.0
N1033 N 0.43843 0.37683 0.24194 0.0
H1034 H 0.37539 0.36011 0.32798 0.0
H1035 H 0.41287 0.38741 0.31204 0.0
H1036 H 0.45697 0.38158 0.2202 0.0
H1037 H 0.43609 0.40221 0.26222 0.0
H1038 H 0.34429 0.21465 0.21125 0.0
H1039 H 0.32953 0.23197 0.25769 0.0
H1040 H 0.39288 0.2132 0.18134 0.0
H1041 H 0.42356 0.24436 0.15956 0.0
C1042 C 0.56863 0.47624 0.0632 0.0
C1043 C 0.571 0.46143 0.02322 0.0
C1044 C 0.56101 0.39299 0.03817 0.0
C1045 C 0.55026 0.40832 0.07597 0.0
N1046 N 0.54579 0.46418 0.12617 0.0
N1047 N 0.5646 0.405 0.97203 0.0
C1048 C 0.5553 0.44993 0.08926 0.0
C1049 C 0.56701 0.41946 0.01068 0.0
N1050 N 0.57758 0.5158 0.07559 0.0
N1051 N 0.56376 0.35289 0.0279 0.0
H1052 H 0.56788 0.42336 0.95073 0.0
H1053 H 0.55663 0.37529 0.96112 0.0
H1054 H 0.55886 0.3324 0.04707 0.0
H1055 H 0.57458 0.34063 0.00165 0.0
H1056 H 0.57866 0.52869 0.10458 0.0
H1057 H 0.58711 0.53493 0.05653 0.0
H1058 H 0.545 0.49442 0.13679 0.0
H1059 H 0.5375 0.44513 0.14591 0.0
C1060 C 0.66443 0.24405 0.19928 0.0
C1061 C 0.64983 0.2271 0.23103 0.0
C1062 C 0.59087 0.25368 0.22189 0.0
C1063 C 0.60499 0.26965 0.18911 0.0
N1064 N 0.65219 0.27277 0.14144 0.0
N1065 N 0.59832 0.20769 0.26781 0.0
C1066 C 0.64093 0.26263 0.17616 0.0
C1067 C 0.61255 0.22904 0.24046 0.0
N1068 N 0.70112 0.24391 0.19248 0.0
N1069 N 0.55789 0.26415 0.23682 0.0
H1070 H 0.61418 0.18975 0.28191 0.0
H1071 H 0.57048 0.20479 0.27384 0.0
H1072 H 0.54174 0.28362 0.22522 0.0
H1073 H 0.54804 0.2566 0.26288 0.0
H1074 H 0.71442 0.25977 0.1726 0.0
H1075 H 0.71866 0.22971 0.20863 0.0
H1076 H 0.6768 0.26486 0.12878 0.0
H1077 H 0.63551 0.28613 0.12359 0.0
C1078 C 0.50564 0.16038 0.00788 0.0
C1079 C 0.47256 0.1413 0.99081 0.0
C1080 C 0.44095 0.20153 0.01172 0.0
C1081 C 0.47433 0.22091 0.02865 0.0
N1082 N 0.54058 0.22354 0.02809 0.0
N1083 N 0.41313 0.14842 0.96402 0.0
C1084 C 0.50747 0.20191 0.02171 0.0
C1085 C 0.44193 0.16391 0.98802 0.0
N1086 N 0.53457 0.13872 0.0131 0.0
N1087 N 0.40797 0.21661 0.02069 0.0
H1088 H 0.41329 0.1207 0.94655 0.0
H1089 H 0.39122 0.16482 0.95856 0.0
H1090 H 0.40495 0.24267 0.0398 0.0
H1091 H 0.38295 0.20088 0.01206 0.0
H1092 H 0.55805 0.15065 0.02912 0.0
H1093 H 0.53362 0.10816 0.00404 0.0
H1094 H 0.56542 0.21146 0.02084 0.0
H1095 H 0.54281 0.25451 0.03619 0.0
C1096 C 0.26858 0.32268 0.77866 0.0
C1097 C 0.2558 0.31363 0.73993 0.0
C1098 C 0.29347 0.37267 0.72651 0.0
C1099 C 0.29729 0.38718 0.76714 0.0
N1100 N 0.27348 0.37705 0.83065 0.0
N1101 N 0.25205 0.33523 0.67752 0.0
C1102 C 0.28111 0.36242 0.79321 0.0
C1103 C 0.26715 0.34001 0.71376 0.0
N1104 N 0.26627 0.29409 0.80225 0.0
N1105 N 0.31541 0.38821 0.70012 0.0
H1106 H 0.2314 0.313 0.66836 0.0
H1107 H 0.25752 0.35582 0.65851 0.0
H1108 H 0.33831 0.40803 0.70784 0.0
H1109 H 0.3141 0.37661 0.67071 0.0
H1110 H 0.27681 0.29934 0.83056 0.0
H1111 H 0.25764 0.26444 0.79178 0.0
H1112 H 0.2603 0.35923 0.8491 0.0
H1113 H 0.27354 0.40739 0.84117 0.0
C1114 C 0.26676 0.64929 0.76623 0.0
C1115 C 0.24086 0.66034 0.79514 0.0
C1116 C 0.26552 0.61361 0.83358 0.0
C1117 C 0.28588 0.59674 0.80137 0.0
N1118 N 0.29673 0.59399 0.73245 0.0
N1119 N 0.2095 0.6441 0.85165 0.0
C1120 C 0.28427 0.61342 0.76636 0.0
C1121 C 0.23856 0.64013 0.82768 0.0
N1122 N 0.27471 0.67295 0.73861 0.0
N1123 N 0.27253 0.60577 0.87001 0.0
H1124 H 0.18736 0.65951 0.84514 0.0
H1125 H 0.20536 0.6277 0.87445 0.0
H1126 H 0.29441 0.58982 0.87654 0.0
H1127 H 0.25966 0.61974 0.89434 0.0
H1128 H 0.26326 0.70011 0.73842 0.0
H1129 H 0.29559 0.66764 0.71875 0.0
H1130 H 0.29325 0.60403 0.70597 0.0
H1131 H 0.30579 0.56541 0.72957 0.0
C1132 C 0.89735 0.4945 0.52113 0.0
C1133 C 0.89483 0.511 0.48646 0.0
C1134 C 0.83952 0.46737 0.46659 0.0
C1135 C 0.84134 0.45203 0.50214 0.0
N1136 N 0.86658 0.45669 0.56674 0.0
N1137 N 0.86171 0.51867 0.42888 0.0
C1138 C 0.86864 0.46741 0.53054 0.0
C1139 C 0.86516 0.4992 0.46006 0.0
N1140 N 0.92796 0.5037 0.54425 0.0
N1141 N 0.81456 0.45025 0.43849 0.0
H1142 H 0.88085 0.54137 0.42313 0.0
H1143 H 0.83886 0.5144 0.41038 0.0
H1144 H 0.79515 0.4271 0.44242 0.0
H1145 H 0.81447 0.45716 0.41045 0.0
H1146 H 0.93337 0.48955 0.56791 0.0
H1147 H 0.94956 0.5232 0.5377 0.0
H1148 H 0.88368 0.46984 0.58985 0.0
H1149 H 0.84547 0.43724 0.57474 0.0
C1150 C 0.71613 0.8433 0.81479 0.0
C1151 C 0.75242 0.86092 0.81537 0.0
C1152 C 0.72957 0.92751 0.82939 0.0
C1153 C 0.69299 0.90929 0.8264 0.0
N1154 N 0.65572 0.85109 0.84008 0.0
N1155 N 0.79505 0.91849 0.83121 0.0
C1156 C 0.68734 0.8675 0.82637 0.0
C1157 C 0.7596 0.90282 0.82503 0.0
N1158 N 0.709 0.80343 0.80234 0.0
N1159 N 0.7354 0.96812 0.83795 0.0
H1160 H 0.81715 0.90069 0.82849 0.0
H1161 H 0.80275 0.94847 0.84087 0.0
H1162 H 0.7148 0.98602 0.84889 0.0
H1163 H 0.76056 0.98398 0.83556 0.0
H1164 H 0.68246 0.78976 0.7981 0.0
H1165 H 0.72954 0.78513 0.79251 0.0
H1166 H 0.65162 0.82085 0.84257 0.0
H1167 H 0.63662 0.86843 0.8551 0.0
C1168 C 0.63183 0.56399 0.99221 0.0
C1169 C 0.62613 0.52168 0.98415 0.0
C1170 C 0.69277 0.51811 0.97987 0.0
C1171 C 0.69746 0.55993 0.97933 0.0
N1172 N 0.67011 0.62295 0.98234 0.0
N1173 N 0.65165 0.45843 0.96678 0.0
C1174 C 0.66677 0.58322 0.98567 0.0
C1175 C 0.65681 0.49867 0.97764 0.0
N1176 N 0.60308 0.58575 0.00435 0.0
N1177 N 0.72269 0.497 0.98314 0.0
H1178 H 0.62577 0.44355 0.96473 0.0
H1179 H 0.67267 0.44059 0.95711 0.0
H1180 H 0.74936 0.51054 0.98631 0.0
H1181 H 0.72067 0.46708 0.98708 0.0
H1182 H 0.6059 0.61635 0.01425 0.0
H1183 H 0.57692 0.57234 0.00783 0.0
H1184 H 0.64783 0.6403 0.98244 0.0
H1185 H 0.69464 0.63809 0.97597 0.0
C1186 C 0.23098 0.69562 0.30839 0.0
C1187 C 0.24903 0.69538 0.27265 0.0
C1188 C 0.21786 0.62929 0.24918 0.0
C1189 C 0.20206 0.6287 0.28617 0.0
N1190 N 0.20276 0.65623 0.35402 0.0
N1191 N 0.26331 0.65952 0.2103 0.0
C1192 C 0.21183 0.66013 0.31683 0.0
C1193 C 0.24427 0.66095 0.24385 0.0
N1194 N 0.22875 0.73071 0.33259 0.0
N1195 N 0.2053 0.60195 0.21818 0.0
H1196 H 0.27867 0.68413 0.20273 0.0
H1197 H 0.26493 0.6334 0.19072 0.0
H1198 H 0.18466 0.57941 0.21991 0.0
H1199 H 0.21276 0.60382 0.18975 0.0
H1200 H 0.21324 0.73321 0.35764 0.0
H1201 H 0.23816 0.758 0.32471 0.0
H1202 H 0.21197 0.67716 0.37772 0.0
H1203 H 0.18953 0.63014 0.36142 0.0
C1204 C 0.94877 0.55051 0.01511 0.0
C1205 C 0.93928 0.52831 0.0453 0.0
C1206 C 0.87631 0.54758 0.04424 0.0
C1207 C 0.88551 0.5688 0.01309 0.0
N1208 N 0.93112 0.59806 0.97418 0.0
N1209 N 0.89798 0.51234 0.09461 0.0
C1210 C 0.92206 0.57269 1.0002 0.0
C1211 C 0.90424 0.52927 0.06194 0.0
N1212 N 0.98302 0.54905 0.99998 0.0
N1213 N 0.84062 0.54322 0.0554 0.0
H1214 H 0.9183 0.49866 0.10765 0.0
H1215 H 0.87408 0.51462 0.1105 0.0
H1216 H 0.81948 0.55663 0.04339 0.0
H1217 H 0.8314 0.52456 0.07499 0.0
H1218 H 0.99074 0.56029 0.97484 0.0
H1219 H 0.00366 0.53522 0.01224 0.0
H1220 H 0.95786 0.60502 0.96596 0.0
H1221 H 0.91199 0.61472 0.96287 0.0
C1222 C 0.1113 0.0057 0.04338 0.0
C1223 C 0.07594 0.98699 0.03294 0.0
C1224 C 0.10402 0.924 0.01091 0.0
C1225 C 0.13804 0.94081 0.02811 0.0
N1226 N 0.17389 0.99792 0.06283 0.0
N1227 N 0.03815 0.92701 0.00903 0.0
C1228 C 0.1419 0.982 0.04427 0.0
C1229 C 0.07233 0.94587 0.01668 0.0
N1230 N 0.11534 0.04618 0.05309 0.0
N1231 N 0.10212 0.88727 0.98847 0.0
H1232 H 0.01441 0.94226 0.01162 0.0
H1233 H 0.03324 0.8961 0.00223 0.0
H1234 H 0.12499 0.87085 0.98296 0.0
H1235 H 0.07891 0.87504 0.97218 0.0
H1236 H 0.14064 0.06254 0.05795 0.0
H1237 H 0.0933 0.06357 0.05215 0.0
H1238 H 0.177 0.02639 0.07897 0.0
H1239 H 0.19671 0.98169 0.06466 0.0
loop_
_geom_bond_atom_site_label_1
_geom_bond_atom_site_label_2
_geom_bond_distance
_geom_bond_site_symmetry_2
_ccdc_geom_bond_type
C0 N1 1.317 1_565 S
C0 N2 1.348 1_465 S
C0 C3 1.485 . S
N1 C0 1.317 1_545 S
N1 N5 1.370 . S
N2 C0 1.348 1_645 S
N2 C4 1.346 . S
C3 C0 1.485 . S
C3 H7 0.960 . S
C3 H8 0.961 . S
C3 H9 0.960 . S
C4 N2 1.346 . S
C4 N5 1.307 1_655 S
C4 C6 1.486 . S
N5 N1 1.370 . S
N5 C4 1.307 1_455 S
C6 C4 1.486 . S
C6 H10 0.960 . S
C6 H11 0.960 . S
C6 H12 0.959 . S
H7 C3 0.960 . S
H8 C3 0.961 . S
H9 C3 0.960 . S
H10 C6 0.960 . S
H11 C6 0.960 . S
H12 C6 0.959 . S
C13 N14 1.317 . S
C13 N15 1.348 . S
C13 C16 1.485 . S
N14 C13 1.317 . S
N14 N18 1.370 . S
N15 C13 1.348 . S
N15 C17 1.346 . S
C16 C13 1.485 . S
C16 H20 0.960 . S
C16 H21 0.961 . S
C16 H22 0.960 . S
C17 N15 1.346 . S
C17 N18 1.307 . S
C17 C19 1.486 . S
N18 N14 1.370 . S
N18 C17 1.307 . S
C19 C17 1.486 . S
C19 H23 0.960 . S
C19 H24 0.960 . S
C19 H25 0.959 . S
H20 C16 0.960 . S
H21 C16 0.961 . S
H22 C16 0.960 . S
H23 C19 0.960 . S
H24 C19 0.960 . S
H25 C19 0.959 . S
C26 N27 1.317 . S
C26 N28 1.348 . S
C26 C29 1.485 . S
N27 C26 1.317 . S
N27 N31 1.370 . S
N28 C26 1.348 . S
N28 C30 1.346 . S
C29 C26 1.485 . S
C29 H33 0.960 . S
C29 H34 0.961 . S
C29 H35 0.960 . S
C30 N28 1.346 . S
C30 N31 1.307 . S
C30 C32 1.486 . S
N31 N27 1.370 . S
N31 C30 1.307 . S
C32 C30 1.486 . S
C32 H36 0.960 1_554 S
C32 H37 0.960 . S
C32 H38 0.959 . S
H33 C29 0.960 . S
H34 C29 0.961 . S
H35 C29 0.960 . S
H36 C32 0.960 1_556 S
H37 C32 0.960 . S
H38 C32 0.959 . S
C39 N40 1.317 . S
C39 N41 1.348 . S
C39 C42 1.485 . S
N40 C39 1.317 . S
N40 N44 1.370 . S
N41 C39 1.348 . S
N41 C43 1.346 . S
C42 C39 1.485 . S
C42 H46 0.960 . S
C42 H47 0.961 . S
C42 H48 0.960 . S
C43 N41 1.346 . S
C43 N44 1.307 . S
C43 C45 1.486 . S
N44 N40 1.370 . S
N44 C43 1.307 . S
C45 C43 1.486 . S
C45 H49 0.960 . S
C45 H50 0.960 . S
C45 H51 0.959 . S
H46 C42 0.960 . S
H47 C42 0.961 . S
H48 C42 0.960 . S
H49 C45 0.960 . S
H50 C45 0.960 . S
H51 C45 0.959 . S
C52 N53 1.317 . S
C52 N54 1.348 . S
C52 C55 1.485 1_455 S
N53 C52 1.317 . S
N53 N57 1.370 . S
N54 C52 1.348 . S
N54 C56 1.346 . S
C55 C52 1.485 1_655 S
C55 H59 0.961 1_655 S
C55 H60 0.961 . S
C55 H61 0.961 . S
C56 N54 1.346 . S
C56 N57 1.307 . S
C56 C58 1.486 1_565 S
N57 N53 1.370 . S
N57 C56 1.307 . S
C58 C56 1.486 1_545 S
C58 H62 0.960 . S
C58 H63 0.960 . S
C58 H64 0.959 . S
H59 C55 0.961 1_455 S
H60 C55 0.961 . S
H61 C55 0.961 . S
H62 C58 0.960 . S
H63 C58 0.960 . S
H64 C58 0.959 . S
C65 N66 1.317 . S
C65 N67 1.348 . S
C65 C68 1.485 . S
N66 C65 1.317 . S
N66 N70 1.370 . S
N67 C65 1.348 . S
N67 C69 1.346 . S
C68 C65 1.485 . S
C68 H72 0.960 . S
C68 H73 0.961 . S
C68 H74 0.960 . S
C69 N67 1.346 . S
C69 N70 1.307 . S
C69 C71 1.486 . S
N70 N66 1.370 . S
N70 C69 1.307 . S
C71 C69 1.486 . S
C71 H75 0.960 . S
C71 H76 0.960 . S
C71 H77 0.959 . S
H72 C68 0.960 . S
H73 C68 0.961 . S
H74 C68 0.960 . S
H75 C71 0.960 . S
H76 C71 0.960 . S
H77 C71 0.959 . S
C78 N79 1.317 . S
C78 N80 1.348 . S
C78 C81 1.485 . S
N79 C78 1.317 . S
N79 N83 1.370 . S
N80 C78 1.348 . S
N80 C82 1.346 . S
C81 C78 1.485 . S
C81 H85 0.960 . S
C81 H86 0.961 . S
C81 H87 0.960 . S
C82 N80 1.346 . S
C82 N83 1.307 . S
C82 C84 1.486 . S
N83 N79 1.370 . S
N83 C82 1.307 . S
C84 C82 1.486 . S
C84 H88 0.960 . S
C84 H89 0.960 . S
C84 H90 0.959 . S
H85 C81 0.960 . S
H86 C81 0.961 . S
H87 C81 0.960 . S
H88 C84 0.960 . S
H89 C84 0.960 . S
H90 C84 0.959 . S
C91 N92 1.317 . S
C91 N93 1.348 . S
C91 C94 1.485 . S
N92 C91 1.317 . S
N92 N96 1.370 . S
N93 C91 1.348 . S
N93 C95 1.346 . S
C94 C91 1.485 . S
C94 H98 0.960 . S
C94 H99 0.961 . S
C94 H100 0.960 . S
C95 N93 1.346 . S
C95 N96 1.307 . S
C95 C97 1.486 . S
N96 N92 1.370 . S
N96 C95 1.307 . S
C97 C95 1.486 . S
C97 H101 0.960 . S
C97 H102 0.960 . S
C97 H103 0.959 . S
H98 C94 0.960 . S
H99 C94 0.961 . S
H100 C94 0.960 . S
H101 C97 0.960 . S
H102 C97 0.960 . S
H103 C97 0.959 . S
C104 N105 1.317 . S
C104 N106 1.348 . S
C104 C107 1.485 . S
N105 C104 1.317 . S
N105 N109 1.370 . S
N106 C104 1.348 . S
N106 C108 1.346 . S
C107 C104 1.485 . S
C107 H111 0.960 . S
C107 H112 0.961 . S
C107 H113 0.960 . S
C108 N106 1.346 . S
C108 N109 1.307 . S
C108 C110 1.486 . S
N109 N105 1.370 . S
N109 C108 1.307 . S
C110 C108 1.486 . S
C110 H114 0.960 . S
C110 H115 0.960 . S
C110 H116 0.959 . S
H111 C107 0.960 . S
H112 C107 0.961 . S
H113 C107 0.960 . S
H114 C110 0.960 . S
H115 C110 0.960 . S
H116 C110 0.959 . S
C117 N118 1.317 . S
C117 N119 1.348 . S
C117 C120 1.485 1_565 S
N118 C117 1.317 . S
N118 N122 1.370 . S
N119 C117 1.348 . S
N119 C121 1.346 . S
C120 C117 1.485 1_545 S
C120 H124 0.960 . S
C120 H125 0.961 . S
C120 H126 0.960 . S
C121 N119 1.346 . S
C121 N122 1.307 . S
C121 C123 1.486 . S
N122 N118 1.370 . S
N122 C121 1.307 . S
C123 C121 1.486 . S
C123 H127 0.960 . S
C123 H128 0.960 . S
C123 H129 0.959 . S
H124 C120 0.960 . S
H125 C120 0.961 . S
H126 C120 0.960 . S
H127 C123 0.960 . S
H128 C123 0.960 . S
H129 C123 0.959 . S
C130 N131 1.317 . S
C130 N132 1.348 . S
C130 C133 1.485 . S
N131 C130 1.317 . S
N131 N135 1.370 . S
N132 C130 1.348 . S
N132 C134 1.346 . S
C133 C130 1.485 . S
C133 H137 0.960 . S
C133 H138 0.961 . S
C133 H139 0.960 . S
C134 N132 1.346 . S
C134 N135 1.307 . S
C134 C136 1.486 . S
N135 N131 1.370 . S
N135 C134 1.307 . S
C136 C134 1.486 . S
C136 H140 0.960 . S
C136 H141 0.960 . S
C136 H142 0.959 . S
H137 C133 0.960 . S
H138 C133 0.961 . S
H139 C133 0.960 . S
H140 C136 0.960 . S
H141 C136 0.960 . S
H142 C136 0.959 . S
C143 N144 1.317 . S
C143 N145 1.348 . S
C143 C146 1.485 . S
N144 C143 1.317 . S
N144 N148 1.370 . S
N145 C143 1.348 . S
N145 C147 1.346 . S
C146 C143 1.485 . S
C146 H150 0.960 . S
C146 H151 0.961 . S
C146 H152 0.960 . S
C147 N145 1.346 . S
C147 N148 1.307 . S
C147 C149 1.486 . S
N148 N144 1.370 . S
N148 C147 1.307 . S
C149 C147 1.486 . S
C149 H153 0.960 . S
C149 H154 0.960 . S
C149 H155 0.959 . S
H150 C146 0.960 . S
H151 C146 0.961 . S
H152 C146 0.960 . S
H153 C149 0.960 . S
H154 C149 0.960 . S
H155 C149 0.959 . S
C156 N157 1.317 . S
C156 N158 1.348 . S
C156 C159 1.485 . S
N157 C156 1.317 . S
N157 N161 1.370 . S
N158 C156 1.348 . S
N158 C160 1.346 . S
C159 C156 1.485 . S
C159 H163 0.960 . S
C159 H164 0.961 . S
C159 H165 0.960 . S
C160 N158 1.346 . S
C160 N161 1.307 . S
C160 C162 1.486 . S
N161 N157 1.370 . S
N161 C160 1.307 . S
C162 C160 1.486 . S
C162 H166 0.960 . S
C162 H167 0.960 . S
C162 H168 0.959 . S
H163 C159 0.960 . S
H164 C159 0.961 . S
H165 C159 0.960 . S
H166 C162 0.960 . S
H167 C162 0.960 . S
H168 C162 0.959 . S
C169 N170 1.317 . S
C169 N171 1.348 . S
C169 C172 1.485 . S
N170 C169 1.317 . S
N170 N174 1.370 . S
N171 C169 1.348 . S
N171 C173 1.346 . S
C172 C169 1.485 . S
C172 H176 0.960 . S
C172 H177 0.961 . S
C172 H178 0.960 . S
C173 N171 1.346 . S
C173 N174 1.307 . S
C173 C175 1.486 . S
N174 N170 1.370 . S
N174 C173 1.307 . S
C175 C173 1.486 . S
C175 H179 0.960 . S
C175 H180 0.960 . S
C175 H181 0.959 . S
H176 C172 0.960 . S
H177 C172 0.961 . S
H178 C172 0.960 . S
H179 C175 0.960 . S
H180 C175 0.960 . S
H181 C175 0.959 . S
C182 N183 1.317 . S
C182 N184 1.348 . S
C182 C185 1.485 . S
N183 C182 1.317 . S
N183 N187 1.370 . S
N184 C182 1.348 . S
N184 C186 1.346 . S
C185 C182 1.485 . S
C185 H189 0.960 . S
C185 H190 0.961 . S
C185 H191 0.960 . S
C186 N184 1.346 . S
C186 N187 1.307 . S
C186 C188 1.486 . S
N187 N183 1.370 . S
N187 C186 1.307 . S
C188 C186 1.486 . S
C188 H192 0.960 . S
C188 H193 0.960 . S
C188 H194 0.959 . S
H189 C185 0.960 . S
H190 C185 0.961 . S
H191 C185 0.960 . S
H192 C188 0.960 . S
H193 C188 0.960 . S
H194 C188 0.959 . S
C195 N196 1.317 . S
C195 N197 1.348 . S
C195 C198 1.485 . S
N196 C195 1.317 . S
N196 N200 1.370 . S
N197 C195 1.348 . S
N197 C199 1.346 . S
C198 C195 1.485 . S
C198 H202 0.960 . S
C198 H203 0.961 1_545 S
C198 H204 0.960 . S
C199 N197 1.346 . S
C199 N200 1.307 . S
C199 C201 1.486 1_556 S
N200 N196 1.370 . S
N200 C199 1.307 . S
C201 C199 1.486 1_554 S
C201 H205 0.960 . S
C201 H206 0.960 . S
C201 H207 0.959 . S
H202 C198 0.960 . S
H203 C198 0.961 1_565 S
H204 C198 0.960 . S
H205 C201 0.960 . S
H206 C201 0.960 . S
H207 C201 0.959 . S
Zn208 O211 2.033 . S
Zn208 O213 2.048 1_554 S
Zn208 O218 2.066 1_554 S
Zn209 O210 1.962 . S
Zn209 O212 1.986 . S
Zn209 O214 1.996 . S
Zn209 O217 1.943 1_554 S
O210 Zn209 1.962 . S
O210 C215 1.254 . S
O211 Zn208 2.033 . S
O211 C215 1.269 . S
O212 Zn209 1.986 . S
O212 C219 1.262 . S
O213 Zn208 2.048 1_556 S
O213 C221 1.260 . S
O214 Zn209 1.996 . S
O214 C221 1.257 1_554 S
C215 O210 1.254 . S
C215 O211 1.269 . S
C216 O217 1.249 . S
C216 O218 1.270 . S
O217 Zn209 1.943 1_556 S
O217 C216 1.249 . S
O218 Zn208 2.066 1_556 S
O218 C216 1.270 . S
C219 O212 1.262 . S
C219 O220 1.232 . S
O220 C219 1.232 . S
C221 O213 1.260 . S
C221 O214 1.257 1_556 S
Zn222 O225 2.031 . S
Zn222 O227 2.049 . S
Zn222 O232 2.067 . S
Zn223 O224 1.962 . S
Zn223 O226 1.986 . S
Zn223 O228 1.996 . S
Zn223 O231 1.943 . S
O224 Zn223 1.962 . S
O224 C229 1.254 . S
O225 Zn222 2.031 . S
O225 C229 1.269 . S
O226 Zn223 1.986 . S
O226 C233 1.262 . S
O227 Zn222 2.049 . S
O227 C235 1.260 . S
O228 Zn223 1.996 . S
O228 C235 1.257 . S
C229 O224 1.254 . S
C229 O225 1.269 . S
C230 O231 1.249 . S
C230 O232 1.270 . S
O231 Zn223 1.943 . S
O231 C230 1.249 . S
O232 Zn222 2.067 . S
O232 C230 1.270 . S
C233 O226 1.262 . S
C233 O234 1.232 . S
O234 C233 1.232 . S
C235 O227 1.260 . S
C235 O228 1.257 . S
Zn236 O239 2.031 . S
Zn236 O241 2.049 . S
Zn236 O246 2.067 . S
Zn237 O238 1.962 . S
Zn237 O240 1.986 . S
Zn237 O242 1.996 1_554 S
Zn237 O245 1.943 . S
O238 Zn237 1.962 . S
O238 C243 1.254 . S
O239 Zn236 2.031 . S
O239 C243 1.269 1_556 S
O240 Zn237 1.986 . S
O240 C247 1.262 . S
O241 Zn236 2.049 . S
O241 C249 1.260 . S
O242 Zn237 1.996 1_556 S
O242 C249 1.257 . S
C243 O238 1.254 . S
C243 O239 1.269 1_554 S
C244 O245 1.249 1_556 S
C244 O246 1.270 . S
O245 Zn237 1.943 . S
O245 C244 1.249 1_554 S
O246 Zn236 2.067 . S
O246 C244 1.270 . S
C247 O240 1.262 . S
C247 O248 1.232 . S
O248 C247 1.232 . S
C249 O241 1.260 . S
C249 O242 1.257 . S
Zn250 O253 2.031 . S
Zn250 O255 2.049 1_545 S
Zn250 O260 2.067 1_545 S
Zn251 O252 1.962 . S
Zn251 O254 1.986 . S
Zn251 O256 1.996 . S
Zn251 O259 1.943 1_545 S
O252 Zn251 1.962 . S
O252 C257 1.254 . S
O253 Zn250 2.031 . S
O253 C257 1.269 . S
O254 Zn251 1.986 . S
O254 C261 1.262 . S
O255 Zn250 2.049 1_565 S
O255 C263 1.260 . S
O256 Zn251 1.996 . S
O256 C263 1.257 1_545 S
C257 O252 1.254 . S
C257 O253 1.269 . S
C258 O259 1.249 . S
C258 O260 1.270 . S
O259 Zn251 1.943 1_565 S
O259 C258 1.249 . S
O260 Zn250 2.067 1_565 S
O260 C258 1.270 . S
C261 O254 1.262 . S
C261 O262 1.232 . S
O262 C261 1.232 . S
C263 O255 1.260 . S
C263 O256 1.257 1_565 S
Zn264 O267 2.031 . S
Zn264 O269 2.049 . S
Zn264 O274 2.067 . S
Zn265 O266 1.962 . S
Zn265 O268 1.986 . S
Zn265 O270 1.996 . S
Zn265 O273 1.943 . S
O266 Zn265 1.962 . S
O266 C271 1.254 . S
O267 Zn264 2.031 . S
O267 C271 1.269 . S
O268 Zn265 1.986 . S
O268 C275 1.262 . S
O269 Zn264 2.049 . S
O269 C277 1.260 . S
O270 Zn265 1.996 . S
O270 C277 1.257 . S
C271 O266 1.254 . S
C271 O267 1.269 . S
C272 O273 1.249 . S
C272 O274 1.270 . S
O273 Zn265 1.943 . S
O273 C272 1.249 . S
O274 Zn264 2.067 . S
O274 C272 1.270 . S
C275 O268 1.262 . S
C275 O276 1.232 . S
O276 C275 1.232 . S
C277 O269 1.260 . S
C277 O270 1.257 . S
Zn278 O281 2.031 . S
Zn278 O283 2.049 . S
Zn278 O288 2.067 . S
Zn279 O280 1.962 . S
Zn279 O282 1.986 . S
Zn279 O284 1.996 . S
Zn279 O287 1.943 . S
O280 Zn279 1.962 . S
O280 C285 1.254 . S
O281 Zn278 2.031 . S
O281 C285 1.269 . S
O282 Zn279 1.986 . S
O282 C289 1.262 . S
O283 Zn278 2.049 . S
O283 C291 1.260 . S
O284 Zn279 1.996 . S
O284 C291 1.257 . S
C285 O280 1.254 . S
C285 O281 1.269 . S
C286 O287 1.249 . S
C286 O288 1.270 . S
O287 Zn279 1.943 . S
O287 C286 1.249 . S
O288 Zn278 2.067 . S
O288 C286 1.270 . S
C289 O282 1.262 . S
C289 O290 1.232 . S
O290 C289 1.232 . S
C291 O283 1.260 . S
C291 O284 1.257 . S
Zn292 O295 2.031 . S
Zn292 O297 2.049 . S
Zn292 O302 2.067 . S
Zn293 O294 1.962 . S
Zn293 O296 1.986 . S
Zn293 O298 1.996 . S
Zn293 O301 1.943 . S
O294 Zn293 1.962 . S
O294 C299 1.254 . S
O295 Zn292 2.031 . S
O295 C299 1.269 . S
O296 Zn293 1.986 . S
O296 C303 1.262 . S
O297 Zn292 2.049 . S
O297 C305 1.260 . S
O298 Zn293 1.996 . S
O298 C305 1.257 . S
C299 O294 1.254 . S
C299 O295 1.269 . S
C300 O301 1.249 . S
C300 O302 1.270 . S
O301 Zn293 1.943 . S
O301 C300 1.249 . S
O302 Zn292 2.067 . S
O302 C300 1.270 . S
C303 O296 1.262 . S
C303 O304 1.232 . S
O304 C303 1.232 . S
C305 O297 1.260 . S
C305 O298 1.257 . S
Zn306 O309 2.031 1_565 S
Zn306 O311 2.049 . S
Zn306 O316 2.067 . S
Zn307 O308 1.962 . S
Zn307 O310 1.986 . S
Zn307 O312 1.996 1_545 S
Zn307 O315 1.943 . S
O308 Zn307 1.962 . S
O308 C313 1.254 . S
O309 Zn306 2.031 1_545 S
O309 C313 1.269 . S
O310 Zn307 1.986 . S
O310 C317 1.262 . S
O311 Zn306 2.049 . S
O311 C319 1.260 . S
O312 Zn307 1.996 1_565 S
O312 C319 1.257 . S
C313 O308 1.254 . S
C313 O309 1.269 . S
C314 O315 1.249 1_565 S
C314 O316 1.270 . S
O315 Zn307 1.943 . S
O315 C314 1.249 1_545 S
O316 Zn306 2.067 . S
O316 C314 1.270 . S
C317 O310 1.262 . S
C317 O318 1.232 . S
O318 C317 1.232 . S
C319 O311 1.260 . S
C319 O312 1.257 . S
Zn320 O323 2.031 . S
Zn320 O325 2.049 1_455 S
Zn320 O330 2.067 1_455 S
Zn321 O322 1.962 . S
Zn321 O324 1.986 . S
Zn321 O326 1.996 . S
Zn321 O329 1.943 1_455 S
O322 Zn321 1.962 . S
O322 C327 1.254 . S
O323 Zn320 2.031 . S
O323 C327 1.269 . S
O324 Zn321 1.986 . S
O324 C331 1.262 . S
O325 Zn320 2.049 1_655 S
O325 C333 1.260 . S
O326 Zn321 1.996 . S
O326 C333 1.257 1_455 S
C327 O322 1.254 . S
C327 O323 1.269 . S
C328 O329 1.249 . S
C328 O330 1.270 . S
O329 Zn321 1.943 1_655 S
O329 C328 1.249 . S
O330 Zn320 2.067 1_655 S
O330 C328 1.270 . S
C331 O324 1.262 . S
C331 O332 1.232 . S
O332 C331 1.232 . S
C333 O325 1.260 . S
C333 O326 1.257 1_655 S
Zn334 O337 2.031 . S
Zn334 O339 2.049 . S
Zn334 O344 2.067 . S
Zn335 O336 1.962 . S
Zn335 O338 1.986 . S
Zn335 O340 1.996 . S
Zn335 O343 1.943 . S
O336 Zn335 1.962 . S
O336 C341 1.254 . S
O337 Zn334 2.031 . S
O337 C341 1.269 . S
O338 Zn335 1.986 . S
O338 C345 1.262 . S
O339 Zn334 2.049 . S
O339 C347 1.260 . S
O340 Zn335 1.996 . S
O340 C347 1.257 . S
C341 O336 1.254 . S
C341 O337 1.269 . S
C342 O343 1.249 . S
C342 O344 1.270 . S
O343 Zn335 1.943 . S
O343 C342 1.249 . S
O344 Zn334 2.067 . S
O344 C342 1.270 . S
C345 O338 1.262 . S
C345 O346 1.232 . S
O346 C345 1.232 . S
C347 O339 1.260 . S
C347 O340 1.257 . S
Zn348 O351 2.031 1_655 S
Zn348 O353 2.049 . S
Zn348 O358 2.067 . S
Zn349 O350 1.962 . S
Zn349 O352 1.986 . S
Zn349 O354 1.996 1_455 S
Zn349 O357 1.943 . S
O350 Zn349 1.962 . S
O350 C355 1.254 . S
O351 Zn348 2.031 1_455 S
O351 C355 1.269 . S
O352 Zn349 1.986 . S
O352 C359 1.262 . S
O353 Zn348 2.049 . S
O353 C361 1.260 . S
O354 Zn349 1.996 1_655 S
O354 C361 1.257 . S
C355 O350 1.254 . S
C355 O351 1.269 . S
C356 O357 1.249 1_655 S
C356 O358 1.270 . S
O357 Zn349 1.943 . S
O357 C356 1.249 1_455 S
O358 Zn348 2.067 . S
O358 C356 1.270 . S
C359 O352 1.262 . S
C359 O360 1.232 . S
O360 C359 1.232 . S
C361 O353 1.260 . S
C361 O354 1.257 . S
Zn362 O365 2.031 . S
Zn362 O367 2.049 . S
Zn362 O372 2.067 . S
Zn363 O364 1.962 . S
Zn363 O366 1.986 . S
Zn363 O368 1.996 . S
Zn363 O371 1.943 . S
O364 Zn363 1.962 . S
O364 C369 1.254 . S
O365 Zn362 2.031 . S
O365 C369 1.269 . S
O366 Zn363 1.986 . S
O366 C373 1.262 . S
O367 Zn362 2.049 . S
O367 C375 1.260 . S
O368 Zn363 1.996 . S
O368 C375 1.257 . S
C369 O364 1.254 . S
C369 O365 1.269 . S
C370 O371 1.249 . S
C370 O372 1.270 . S
O371 Zn363 1.943 . S
O371 C370 1.249 . S
O372 Zn362 2.067 . S
O372 C370 1.270 . S
C373 O366 1.262 . S
C373 O374 1.232 . S
O374 C373 1.232 . S
C375 O367 1.260 . S
C375 O368 1.257 . S
C376 C377 1.363 . S
C376 C382 1.379 . S
C376 N384 1.356 . S
C377 C376 1.363 . S
C377 C383 1.363 . S
C378 C379 1.363 . S
C378 C383 1.379 . S
C378 N385 1.356 . S
C379 C378 1.363 . S
C379 C382 1.363 . S
N380 C382 1.356 . S
N380 H392 0.984 . S
N380 H393 0.985 . S
N381 C383 1.356 . S
N381 H386 0.984 . S
N381 H387 0.985 . S
C382 C376 1.379 . S
C382 C379 1.363 . S
C382 N380 1.356 . S
C383 C377 1.363 . S
C383 C378 1.379 . S
C383 N381 1.356 . S
N384 C376 1.356 . S
N384 H390 0.984 . S
N384 H391 0.984 . S
N385 C378 1.356 . S
N385 H388 0.984 . S
N385 H389 0.985 . S
H386 N381 0.984 . S
H387 N381 0.985 . S
H388 N385 0.984 . S
H389 N385 0.985 . S
H390 N384 0.984 . S
H391 N384 0.984 . S
H392 N380 0.984 . S
H393 N380 0.985 . S
C394 C395 1.372 . S
C394 C400 1.379 . S
C394 N402 1.356 . S
C395 C394 1.372 . S
C395 C401 1.367 . S
C396 C397 1.363 . S
C396 C401 1.379 . S
C396 N403 1.356 . S
C397 C396 1.363 . S
C397 C400 1.363 . S
N398 C400 1.356 . S
N398 H410 0.984 . S
N398 H411 0.985 . S
N399 C401 1.356 1_655 S
N399 H404 0.984 . S
N399 H405 0.985 . S
C400 C394 1.379 . S
C400 C397 1.363 . S
C400 N398 1.356 . S
C401 C395 1.367 . S
C401 C396 1.379 . S
C401 N399 1.356 1_455 S
N402 C394 1.356 . S
N402 H408 0.984 . S
N402 H409 0.984 1_455 S
N403 C396 1.356 . S
N403 H406 0.984 . S
N403 H407 0.985 . S
H404 N399 0.984 . S
H405 N399 0.985 . S
H406 N403 0.984 . S
H407 N403 0.985 . S
H408 N402 0.984 . S
H409 N402 0.984 1_655 S
H410 N398 0.984 . S
H411 N398 0.985 . S
C412 C413 1.363 . S
C412 C418 1.379 . S
C412 N420 1.356 . S
C413 C412 1.363 . S
C413 C419 1.363 . S
C414 C415 1.363 . S
C414 C419 1.379 . S
C414 N421 1.356 . S
C415 C414 1.363 . S
C415 C418 1.363 . S
N416 C418 1.356 . S
N416 H428 0.984 . S
N416 H429 0.985 . S
N417 C419 1.356 . S
N417 H422 0.984 . S
N417 H423 0.985 . S
C418 C412 1.379 . S
C418 C415 1.363 . S
C418 N416 1.356 . S
C419 C413 1.363 . S
C419 C414 1.379 . S
C419 N417 1.356 . S
N420 C412 1.356 . S
N420 H426 0.984 . S
N420 H427 0.984 . S
N421 C414 1.356 . S
N421 H424 0.984 . S
N421 H425 0.985 . S
H422 N417 0.984 . S
H423 N417 0.985 . S
H424 N421 0.984 . S
H425 N421 0.985 . S
H426 N420 0.984 . S
H427 N420 0.984 . S
H428 N416 0.984 . S
H429 N416 0.985 . S
C430 C431 1.362 1_655 S
C430 C436 1.387 . S
C430 N438 1.348 1_655 S
C431 C430 1.362 1_455 S
C431 C437 1.363 1_455 S
C432 C433 1.363 1_545 S
C432 C437 1.379 1_545 S
C432 N439 1.356 . S
C433 C432 1.363 1_565 S
C433 C436 1.363 . S
N434 C436 1.356 . S
N434 H446 0.984 . S
N434 H447 0.985 . S
N435 C437 1.356 1_545 S
N435 H440 0.984 1_645 S
N435 H441 0.985 . S
C436 C430 1.387 . S
C436 C433 1.363 . S
C436 N434 1.356 . S
C437 C431 1.363 1_655 S
C437 C432 1.379 1_565 S
C437 N435 1.356 1_565 S
N438 C430 1.348 1_455 S
N438 H444 0.984 . S
N438 H445 0.984 . S
N439 C432 1.356 . S
N439 H442 0.984 . S
N439 H443 0.985 . S
H440 N435 0.984 1_465 S
H441 N435 0.985 . S
H442 N439 0.984 . S
H443 N439 0.985 . S
H444 N438 0.984 . S
H445 N438 0.984 . S
H446 N434 0.984 . S
H447 N434 0.985 . S
C448 C449 1.363 . S
C448 C454 1.379 . S
C448 N456 1.356 . S
C449 C448 1.363 . S
C449 C455 1.363 . S
C450 C451 1.363 . S
C450 C455 1.379 . S
C450 N457 1.356 . S
C451 C450 1.363 . S
C451 C454 1.363 . S
N452 C454 1.356 . S
N452 H464 0.984 . S
N452 H465 0.985 . S
N453 C455 1.356 . S
N453 H458 0.984 . S
N453 H459 0.985 . S
C454 C448 1.379 . S
C454 C451 1.363 . S
C454 N452 1.356 . S
C455 C449 1.363 . S
C455 C450 1.379 . S
C455 N453 1.356 . S
N456 C448 1.356 . S
N456 H462 0.984 . S
N456 H463 0.984 . S
N457 C450 1.356 . S
N457 H460 0.984 . S
N457 H461 0.985 . S
H458 N453 0.984 . S
H459 N453 0.985 . S
H460 N457 0.984 . S
H461 N457 0.985 . S
H462 N456 0.984 . S
H463 N456 0.984 . S
H464 N452 0.984 . S
H465 N452 0.985 . S
C466 C467 1.363 . S
C466 C472 1.379 . S
C466 N474 1.356 . S
C467 C466 1.363 . S
C467 C473 1.363 . S
C468 C469 1.363 . S
C468 C473 1.379 . S
C468 N475 1.356 . S
C469 C468 1.363 . S
C469 C472 1.363 . S
N470 C472 1.356 . S
N470 H482 0.984 . S
N470 H483 0.985 . S
N471 C473 1.356 . S
N471 H476 0.984 . S
N471 H477 0.985 . S
C472 C466 1.379 . S
C472 C469 1.363 . S
C472 N470 1.356 . S
C473 C467 1.363 . S
C473 C468 1.379 . S
C473 N471 1.356 . S
N474 C466 1.356 . S
N474 H480 0.984 . S
N474 H481 0.984 . S
N475 C468 1.356 . S
N475 H478 0.984 . S
N475 H479 0.985 . S
H476 N471 0.984 . S
H477 N471 0.985 . S
H478 N475 0.984 . S
H479 N475 0.985 . S
H480 N474 0.984 . S
H481 N474 0.984 . S
H482 N470 0.984 . S
H483 N470 0.985 . S
C484 C485 1.363 . S
C484 C490 1.379 . S
C484 N492 1.356 . S
C485 C484 1.363 . S
C485 C491 1.363 . S
C486 C487 1.363 . S
C486 C491 1.379 . S
C486 N493 1.356 . S
C487 C486 1.363 . S
C487 C490 1.363 . S
N488 C490 1.356 . S
N488 H500 0.984 . S
N488 H501 0.985 . S
N489 C491 1.356 . S
N489 H494 0.984 . S
N489 H495 0.985 . S
C490 C484 1.379 . S
C490 C487 1.363 . S
C490 N488 1.356 . S
C491 C485 1.363 . S
C491 C486 1.379 . S
C491 N489 1.356 . S
N492 C484 1.356 . S
N492 H498 0.984 . S
N492 H499 0.984 . S
N493 C486 1.356 . S
N493 H496 0.984 . S
N493 H497 0.985 . S
H494 N489 0.984 . S
H495 N489 0.985 . S
H496 N493 0.984 . S
H497 N493 0.985 . S
H498 N492 0.984 . S
H499 N492 0.984 . S
H500 N488 0.984 . S
H501 N488 0.985 . S
C502 C503 1.363 . S
C502 C508 1.379 . S
C502 N510 1.356 . S
C503 C502 1.363 . S
C503 C509 1.363 . S
C504 C505 1.359 1_545 S
C504 C509 1.378 1_545 S
C504 N511 1.360 . S
C505 C504 1.359 1_565 S
C505 C508 1.363 . S
N506 C508 1.356 . S
N506 H518 0.984 . S
N506 H519 0.985 . S
N507 C509 1.360 . S
N507 H512 0.987 . S
N507 H513 0.978 1_565 S
C508 C502 1.379 . S
C508 C505 1.363 . S
C508 N506 1.356 . S
C509 C503 1.363 . S
C509 C504 1.378 1_565 S
C509 N507 1.360 . S
N510 C502 1.356 . S
N510 H516 0.984 . S
N510 H517 0.984 . S
N511 C504 1.360 . S
N511 H514 0.984 . S
N511 H515 0.985 . S
H512 N507 0.987 . S
H513 N507 0.978 1_545 S
H514 N511 0.984 . S
H515 N511 0.985 . S
H516 N510 0.984 . S
H517 N510 0.984 . S
H518 N506 0.984 . S
H519 N506 0.985 . S
C520 C521 1.363 . S
C520 C526 1.379 . S
C520 N528 1.356 . S
C521 C520 1.363 . S
C521 C527 1.363 . S
C522 C523 1.363 . S
C522 C527 1.379 . S
C522 N529 1.356 . S
C523 C522 1.363 . S
C523 C526 1.363 . S
N524 C526 1.356 . S
N524 H536 0.984 . S
N524 H537 0.985 . S
N525 C527 1.356 . S
N525 H530 0.984 . S
N525 H531 0.985 . S
C526 C520 1.379 . S
C526 C523 1.363 . S
C526 N524 1.356 . S
C527 C521 1.363 . S
C527 C522 1.379 . S
C527 N525 1.356 . S
N528 C520 1.356 . S
N528 H534 0.984 . S
N528 H535 0.984 . S
N529 C522 1.356 . S
N529 H532 0.984 . S
N529 H533 0.985 . S
H530 N525 0.984 . S
H531 N525 0.985 . S
H532 N529 0.984 . S
H533 N529 0.985 . S
H534 N528 0.984 . S
H535 N528 0.984 . S
H536 N524 0.984 . S
H537 N524 0.985 . S
C538 C539 1.363 . S
C538 C544 1.379 . S
C538 N546 1.356 . S
C539 C538 1.363 . S
C539 C545 1.363 . S
C540 C541 1.363 . S
C540 C545 1.379 . S
C540 N547 1.356 . S
C541 C540 1.363 . S
C541 C544 1.363 . S
N542 C544 1.356 . S
N542 H554 0.984 . S
N542 H555 0.985 . S
N543 C545 1.356 . S
N543 H548 0.984 . S
N543 H549 0.985 . S
C544 C538 1.379 . S
C544 C541 1.363 . S
C544 N542 1.356 . S
C545 C539 1.363 . S
C545 C540 1.379 . S
C545 N543 1.356 . S
N546 C538 1.356 . S
N546 H552 0.984 . S
N546 H553 0.984 . S
N547 C540 1.356 . S
N547 H550 0.984 . S
N547 H551 0.985 . S
H548 N543 0.984 . S
H549 N543 0.985 . S
H550 N547 0.984 . S
H551 N547 0.985 . S
H552 N546 0.984 . S
H553 N546 0.984 . S
H554 N542 0.984 . S
H555 N542 0.985 . S
C556 C557 1.363 . S
C556 C562 1.379 . S
C556 N564 1.356 . S
C557 C556 1.363 . S
C557 C563 1.363 . S
C558 C559 1.363 . S
C558 C563 1.379 . S
C558 N565 1.356 . S
C559 C558 1.363 . S
C559 C562 1.363 . S
N560 C562 1.356 . S
N560 H572 0.984 . S
N560 H573 0.985 . S
N561 C563 1.356 . S
N561 H566 0.984 . S
N561 H567 0.985 . S
C562 C556 1.379 . S
C562 C559 1.363 . S
C562 N560 1.356 . S
C563 C557 1.363 . S
C563 C558 1.379 . S
C563 N561 1.356 . S
N564 C556 1.356 . S
N564 H570 0.984 . S
N564 H571 0.984 . S
N565 C558 1.356 . S
N565 H568 0.984 . S
N565 H569 0.985 . S
H566 N561 0.984 . S
H567 N561 0.985 . S
H568 N565 0.984 . S
H569 N565 0.985 . S
H570 N564 0.984 . S
H571 N564 0.984 . S
H572 N560 0.984 . S
H573 N560 0.985 . S
C574 C575 1.363 . S
C574 C580 1.379 . S
C574 N582 1.356 . S
C575 C574 1.363 . S
C575 C581 1.363 . S
C576 C577 1.363 . S
C576 C581 1.379 . S
C576 N583 1.356 . S
C577 C576 1.363 . S
C577 C580 1.363 . S
N578 C580 1.356 . S
N578 H590 0.984 . S
N578 H591 0.985 . S
N579 C581 1.356 . S
N579 H584 0.984 . S
N579 H585 0.985 . S
C580 C574 1.379 . S
C580 C577 1.363 . S
C580 N578 1.356 . S
C581 C575 1.363 . S
C581 C576 1.379 . S
C581 N579 1.356 . S
N582 C574 1.356 . S
N582 H588 0.984 . S
N582 H589 0.984 . S
N583 C576 1.356 . S
N583 H586 0.984 . S
N583 H587 0.985 . S
H584 N579 0.984 . S
H585 N579 0.985 . S
H586 N583 0.984 . S
H587 N583 0.985 . S
H588 N582 0.984 . S
H589 N582 0.984 . S
H590 N578 0.984 . S
H591 N578 0.985 . S
C592 C593 1.363 . S
C592 C598 1.379 . S
C592 N600 1.356 . S
C593 C592 1.363 . S
C593 C599 1.363 . S
C594 C595 1.363 . S
C594 C599 1.379 . S
C594 N601 1.356 . S
C595 C594 1.363 . S
C595 C598 1.363 . S
N596 C598 1.356 . S
N596 H608 0.984 . S
N596 H609 0.985 . S
N597 C599 1.356 . S
N597 H602 0.984 . S
N597 H603 0.985 . S
C598 C592 1.379 . S
C598 C595 1.363 . S
C598 N596 1.356 . S
C599 C593 1.363 . S
C599 C594 1.379 . S
C599 N597 1.356 . S
N600 C592 1.356 . S
N600 H606 0.984 . S
N600 H607 0.984 . S
N601 C594 1.356 . S
N601 H604 0.984 . S
N601 H605 0.985 . S
H602 N597 0.984 . S
H603 N597 0.985 . S
H604 N601 0.984 . S
H605 N601 0.985 . S
H606 N600 0.984 . S
H607 N600 0.984 . S
H608 N596 0.984 . S
H609 N596 0.985 . S
C610 C611 1.363 . S
C610 C616 1.379 . S
C610 N618 1.356 . S
C611 C610 1.363 . S
C611 C617 1.363 . S
C612 C613 1.363 . S
C612 C617 1.379 . S
C612 N619 1.356 . S
C613 C612 1.363 . S
C613 C616 1.363 . S
N614 C616 1.356 . S
N614 H626 0.984 . S
N614 H627 0.985 . S
N615 C617 1.356 . S
N615 H620 0.984 . S
N615 H621 0.985 . S
C616 C610 1.379 . S
C616 C613 1.363 . S
C616 N614 1.356 . S
C617 C611 1.363 . S
C617 C612 1.379 . S
C617 N615 1.356 . S
N618 C610 1.356 . S
N618 H624 0.984 . S
N618 H625 0.984 . S
N619 C612 1.356 . S
N619 H622 0.984 . S
N619 H623 0.985 . S
H620 N615 0.984 . S
H621 N615 0.985 . S
H622 N619 0.984 . S
H623 N619 0.985 . S
H624 N618 0.984 . S
H625 N618 0.984 . S
H626 N614 0.984 . S
H627 N614 0.985 . S
C628 C629 1.363 . S
C628 C634 1.379 . S
C628 N636 1.356 . S
C629 C628 1.363 . S
C629 C635 1.363 . S
C630 C631 1.363 . S
C630 C635 1.379 . S
C630 N637 1.356 . S
C631 C630 1.363 . S
C631 C634 1.363 . S
N632 C634 1.356 . S
N632 H644 0.984 . S
N632 H645 0.985 . S
N633 C635 1.356 . S
N633 H638 0.984 . S
N633 H639 0.985 . S
C634 C628 1.379 . S
C634 C631 1.363 . S
C634 N632 1.356 . S
C635 C629 1.363 . S
C635 C630 1.379 . S
C635 N633 1.356 . S
N636 C628 1.356 . S
N636 H642 0.984 . S
N636 H643 0.984 . S
N637 C630 1.356 . S
N637 H640 0.984 . S
N637 H641 0.985 . S
H638 N633 0.984 . S
H639 N633 0.985 . S
H640 N637 0.984 . S
H641 N637 0.985 . S
H642 N636 0.984 . S
H643 N636 0.984 . S
H644 N632 0.984 . S
H645 N632 0.985 . S
C646 C647 1.363 . S
C646 C652 1.379 . S
C646 N654 1.356 . S
C647 C646 1.363 . S
C647 C653 1.371 . S
C648 C649 1.363 1_455 S
C648 C653 1.376 1_455 S
C648 N655 1.356 . S
C649 C648 1.363 1_655 S
C649 C652 1.363 . S
N650 C652 1.356 . S
N650 H662 0.984 . S
N650 H663 0.985 . S
N651 C653 1.353 1_455 S
N651 H656 0.984 1_455 S
N651 H657 0.985 . S
C652 C646 1.379 . S
C652 C649 1.363 . S
C652 N650 1.356 . S
C653 C647 1.371 . S
C653 C648 1.376 1_655 S
C653 N651 1.353 1_655 S
N654 C646 1.356 . S
N654 H660 0.984 . S
N654 H661 0.984 . S
N655 C648 1.356 . S
N655 H658 0.984 . S
N655 H659 0.985 . S
H656 N651 0.984 1_655 S
H657 N651 0.985 . S
H658 N655 0.984 . S
H659 N655 0.985 . S
H660 N654 0.984 . S
H661 N654 0.984 . S
H662 N650 0.984 . S
H663 N650 0.985 . S
C664 C665 1.363 . S
C664 C670 1.379 . S
C664 N672 1.356 . S
C665 C664 1.363 . S
C665 C671 1.363 . S
C666 C667 1.363 . S
C666 C671 1.379 . S
C666 N673 1.356 . S
C667 C666 1.363 . S
C667 C670 1.363 . S
N668 C670 1.356 . S
N668 H680 0.984 . S
N668 H681 0.985 . S
N669 C671 1.356 . S
N669 H674 0.984 . S
N669 H675 0.985 . S
C670 C664 1.379 . S
C670 C667 1.363 . S
C670 N668 1.356 . S
C671 C665 1.363 . S
C671 C666 1.379 . S
C671 N669 1.356 . S
N672 C664 1.356 . S
N672 H678 0.984 . S
N672 H679 0.984 . S
N673 C666 1.356 . S
N673 H676 0.984 . S
N673 H677 0.985 . S
H674 N669 0.984 . S
H675 N669 0.985 . S
H676 N673 0.984 . S
H677 N673 0.985 . S
H678 N672 0.984 . S
H679 N672 0.984 . S
H680 N668 0.984 . S
H681 N668 0.985 . S
C682 C683 1.363 . S
C682 C688 1.379 . S
C682 N690 1.356 . S
C683 C682 1.363 . S
C683 C689 1.363 . S
C684 C685 1.363 . S
C684 C689 1.379 . S
C684 N691 1.356 . S
C685 C684 1.363 . S
C685 C688 1.363 . S
N686 C688 1.356 . S
N686 H698 0.984 . S
N686 H699 0.985 . S
N687 C689 1.356 . S
N687 H692 0.984 . S
N687 H693 0.985 . S
C688 C682 1.379 . S
C688 C685 1.363 . S
C688 N686 1.356 . S
C689 C683 1.363 . S
C689 C684 1.379 . S
C689 N687 1.356 . S
N690 C682 1.356 . S
N690 H696 0.984 . S
N690 H697 0.984 . S
N691 C684 1.356 . S
N691 H694 0.984 . S
N691 H695 0.985 . S
H692 N687 0.984 . S
H693 N687 0.985 . S
H694 N691 0.984 . S
H695 N691 0.985 . S
H696 N690 0.984 . S
H697 N690 0.984 . S
H698 N686 0.984 . S
H699 N686 0.985 . S
C700 C701 1.363 1_565 S
C700 C706 1.379 . S
C700 N708 1.356 . S
C701 C700 1.363 1_545 S
C701 C707 1.363 . S
C702 C703 1.363 1_545 S
C702 C707 1.379 . S
C702 N709 1.356 1_556 S
C703 C702 1.363 1_565 S
C703 C706 1.363 . S
N704 C706 1.356 . S
N704 H716 0.984 . S
N704 H717 0.985 . S
N705 C707 1.356 . S
N705 H710 0.984 . S
N705 H711 0.991 . S
C706 C700 1.379 . S
C706 C703 1.363 . S
C706 N704 1.356 . S
C707 C701 1.363 . S
C707 C702 1.379 . S
C707 N705 1.356 . S
N708 C700 1.356 . S
N708 H714 0.984 . S
N708 H715 0.984 1_565 S
N709 C702 1.356 1_554 S
N709 H712 0.984 1_545 S
N709 H713 0.985 . S
H710 N705 0.984 . S
H711 N705 0.991 . S
H712 N709 0.984 1_565 S
H713 N709 0.985 . S
H714 N708 0.984 . S
H715 N708 0.984 1_545 S
H716 N704 0.984 . S
H717 N704 0.985 . S
C718 C719 1.363 . S
C718 C724 1.379 . S
C718 N726 1.356 . S
C719 C718 1.363 . S
C719 C725 1.363 . S
C720 C721 1.363 . S
C720 C725 1.379 . S
C720 N727 1.356 . S
C721 C720 1.363 . S
C721 C724 1.363 . S
N722 C724 1.356 . S
N722 H734 0.984 . S
N722 H735 0.985 . S
N723 C725 1.356 . S
N723 H728 0.984 . S
N723 H729 0.985 . S
C724 C718 1.379 . S
C724 C721 1.363 . S
C724 N722 1.356 . S
C725 C719 1.363 . S
C725 C720 1.379 . S
C725 N723 1.356 . S
N726 C718 1.356 . S
N726 H732 0.984 . S
N726 H733 0.984 . S
N727 C720 1.356 . S
N727 H730 0.984 . S
N727 H731 0.985 . S
H728 N723 0.984 . S
H729 N723 0.985 . S
H730 N727 0.984 . S
H731 N727 0.985 . S
H732 N726 0.984 . S
H733 N726 0.984 . S
H734 N722 0.984 . S
H735 N722 0.985 . S
C736 C737 1.363 1_565 S
C736 C742 1.379 1_565 S
C736 N744 1.356 . S
C737 C736 1.363 1_545 S
C737 C743 1.363 . S
C738 C739 1.363 . S
C738 C743 1.379 . S
C738 N745 1.356 . S
C739 C738 1.363 . S
C739 C742 1.363 . S
N740 C742 1.356 . S
N740 H752 0.984 . S
N740 H753 0.985 . S
N741 C743 1.356 . S
N741 H746 0.984 . S
N741 H747 0.985 . S
C742 C736 1.379 1_545 S
C742 C739 1.363 . S
C742 N740 1.356 . S
C743 C737 1.363 . S
C743 C738 1.379 . S
C743 N741 1.356 . S
N744 C736 1.356 . S
N744 H750 0.984 . S
N744 H751 0.984 . S
N745 C738 1.356 . S
N745 H748 0.984 . S
N745 H749 0.985 . S
H746 N741 0.984 . S
H747 N741 0.985 . S
H748 N745 0.984 . S
H749 N745 0.985 . S
H750 N744 0.984 . S
H751 N744 0.984 . S
H752 N740 0.984 . S
H753 N740 0.985 . S
C754 C755 1.363 . S
C754 C760 1.379 . S
C754 N762 1.356 . S
C755 C754 1.363 . S
C755 C761 1.363 . S
C756 C757 1.363 . S
C756 C761 1.379 . S
C756 N763 1.356 . S
C757 C756 1.363 . S
C757 C760 1.363 . S
N758 C760 1.356 . S
N758 H770 0.984 . S
N758 H771 0.985 . S
N759 C761 1.356 . S
N759 H764 0.984 . S
N759 H765 0.985 . S
C760 C754 1.379 . S
C760 C757 1.363 . S
C760 N758 1.356 . S
C761 C755 1.363 . S
C761 C756 1.379 . S
C761 N759 1.356 . S
N762 C754 1.356 . S
N762 H768 0.984 . S
N762 H769 0.984 . S
N763 C756 1.356 . S
N763 H766 0.984 . S
N763 H767 0.985 . S
H764 N759 0.984 . S
H765 N759 0.985 . S
H766 N763 0.984 . S
H767 N763 0.985 . S
H768 N762 0.984 . S
H769 N762 0.984 . S
H770 N758 0.984 . S
H771 N758 0.985 . S
C772 C773 1.363 1_565 S
C772 C778 1.379 1_565 S
C772 N780 1.356 . S
C773 C772 1.363 1_545 S
C773 C779 1.363 . S
C774 C775 1.363 . S
C774 C779 1.379 . S
C774 N781 1.356 . S
C775 C774 1.363 . S
C775 C778 1.363 . S
N776 C778 1.356 . S
N776 H788 0.984 1_545 S
N776 H789 0.985 . S
N777 C779 1.356 . S
N777 H782 0.984 . S
N777 H783 0.985 . S
C778 C772 1.379 1_545 S
C778 C775 1.363 . S
C778 N776 1.356 . S
C779 C773 1.363 . S
C779 C774 1.379 . S
C779 N777 1.356 . S
N780 C772 1.356 . S
N780 H786 0.984 . S
N780 H787 0.984 . S
N781 C774 1.356 . S
N781 H784 0.984 . S
N781 H785 0.985 . S
H782 N777 0.984 . S
H783 N777 0.985 . S
H784 N781 0.984 . S
H785 N781 0.985 . S
H786 N780 0.984 . S
H787 N780 0.984 . S
H788 N776 0.984 1_565 S
H789 N776 0.985 . S
C790 C791 1.363 . S
C790 C796 1.379 . S
C790 N798 1.356 . S
C791 C790 1.363 . S
C791 C797 1.363 . S
C792 C793 1.363 . S
C792 C797 1.379 . S
C792 N799 1.356 . S
C793 C792 1.363 . S
C793 C796 1.363 . S
N794 C796 1.356 . S
N794 H806 0.984 . S
N794 H807 0.985 . S
N795 C797 1.356 . S
N795 H800 0.984 . S
N795 H801 0.985 . S
C796 C790 1.379 . S
C796 C793 1.363 . S
C796 N794 1.356 . S
C797 C791 1.363 . S
C797 C792 1.379 . S
C797 N795 1.356 . S
N798 C790 1.356 . S
N798 H804 0.984 . S
N798 H805 0.984 . S
N799 C792 1.356 . S
N799 H802 0.984 . S
N799 H803 0.985 . S
H800 N795 0.984 . S
H801 N795 0.985 . S
H802 N799 0.984 . S
H803 N799 0.985 . S
H804 N798 0.984 . S
H805 N798 0.984 . S
H806 N794 0.984 . S
H807 N794 0.985 . S
C808 C809 1.363 . S
C808 C814 1.379 . S
C808 N816 1.356 . S
C809 C808 1.363 . S
C809 C815 1.363 . S
C810 C811 1.363 . S
C810 C815 1.379 . S
C810 N817 1.356 . S
C811 C810 1.363 . S
C811 C814 1.363 . S
N812 C814 1.356 . S
N812 H824 0.984 . S
N812 H825 0.985 . S
N813 C815 1.356 . S
N813 H818 0.984 . S
N813 H819 0.985 . S
C814 C808 1.379 . S
C814 C811 1.363 . S
C814 N812 1.356 . S
C815 C809 1.363 . S
C815 C810 1.379 . S
C815 N813 1.356 . S
N816 C808 1.356 . S
N816 H822 0.984 . S
N816 H823 0.984 . S
N817 C810 1.356 . S
N817 H820 0.984 . S
N817 H821 0.985 . S
H818 N813 0.984 . S
H819 N813 0.985 . S
H820 N817 0.984 . S
H821 N817 0.985 . S
H822 N816 0.984 . S
H823 N816 0.984 . S
H824 N812 0.984 . S
H825 N812 0.985 . S
C826 C827 1.363 . S
C826 C832 1.379 . S
C826 N834 1.356 . S
C827 C826 1.363 . S
C827 C833 1.363 . S
C828 C829 1.363 . S
C828 C833 1.379 . S
C828 N835 1.356 . S
C829 C828 1.363 . S
C829 C832 1.363 . S
N830 C832 1.356 . S
N830 H842 0.984 . S
N830 H843 0.985 . S
N831 C833 1.356 . S
N831 H836 0.984 . S
N831 H837 0.985 . S
C832 C826 1.379 . S
C832 C829 1.363 . S
C832 N830 1.356 . S
C833 C827 1.363 . S
C833 C828 1.379 . S
C833 N831 1.356 . S
N834 C826 1.356 . S
N834 H840 0.984 . S
N834 H841 0.984 . S
N835 C828 1.356 . S
N835 H838 0.984 . S
N835 H839 0.985 . S
H836 N831 0.984 . S
H837 N831 0.985 . S
H838 N835 0.984 . S
H839 N835 0.985 . S
H840 N834 0.984 . S
H841 N834 0.984 . S
H842 N830 0.984 . S
H843 N830 0.985 . S
C844 C845 1.363 . S
C844 C850 1.379 . S
C844 N852 1.356 . S
C845 C844 1.363 . S
C845 C851 1.363 . S
C846 C847 1.363 . S
C846 C851 1.379 . S
C846 N853 1.356 . S
C847 C846 1.363 . S
C847 C850 1.363 . S
N848 C850 1.356 . S
N848 H860 0.984 . S
N848 H861 0.985 . S
N849 C851 1.356 . S
N849 H854 0.984 . S
N849 H855 0.985 . S
C850 C844 1.379 . S
C850 C847 1.363 . S
C850 N848 1.356 . S
C851 C845 1.363 . S
C851 C846 1.379 . S
C851 N849 1.356 . S
N852 C844 1.356 . S
N852 H858 0.984 . S
N852 H859 0.984 . S
N853 C846 1.356 . S
N853 H856 0.984 . S
N853 H857 0.985 . S
H854 N849 0.984 . S
H855 N849 0.985 . S
H856 N853 0.984 . S
H857 N853 0.985 . S
H858 N852 0.984 . S
H859 N852 0.984 . S
H860 N848 0.984 . S
H861 N848 0.985 . S
C862 C863 1.363 . S
C862 C868 1.379 . S
C862 N870 1.356 . S
C863 C862 1.363 . S
C863 C869 1.363 . S
C864 C865 1.363 . S
C864 C869 1.379 . S
C864 N871 1.356 . S
C865 C864 1.363 . S
C865 C868 1.363 . S
N866 C868 1.356 . S
N866 H878 0.984 . S
N866 H879 0.985 . S
N867 C869 1.356 . S
N867 H872 0.984 . S
N867 H873 0.985 . S
C868 C862 1.379 . S
C868 C865 1.363 . S
C868 N866 1.356 . S
C869 C863 1.363 . S
C869 C864 1.379 . S
C869 N867 1.356 . S
N870 C862 1.356 . S
N870 H876 0.984 . S
N870 H877 0.984 . S
N871 C864 1.356 . S
N871 H874 0.984 . S
N871 H875 0.985 . S
H872 N867 0.984 . S
H873 N867 0.985 . S
H874 N871 0.984 . S
H875 N871 0.985 . S
H876 N870 0.984 . S
H877 N870 0.984 . S
H878 N866 0.984 . S
H879 N866 0.985 . S
C880 C881 1.363 . S
C880 C886 1.379 . S
C880 N888 1.356 . S
C881 C880 1.363 . S
C881 C887 1.363 . S
C882 C883 1.363 . S
C882 C887 1.379 . S
C882 N889 1.356 . S
C883 C882 1.363 . S
C883 C886 1.363 . S
N884 C886 1.356 . S
N884 H896 0.984 . S
N884 H897 0.985 . S
N885 C887 1.356 . S
N885 H890 0.984 . S
N885 H891 0.985 . S
C886 C880 1.379 . S
C886 C883 1.363 . S
C886 N884 1.356 . S
C887 C881 1.363 . S
C887 C882 1.379 . S
C887 N885 1.356 . S
N888 C880 1.356 . S
N888 H894 0.984 . S
N888 H895 0.984 . S
N889 C882 1.356 . S
N889 H892 0.984 . S
N889 H893 0.985 . S
H890 N885 0.984 . S
H891 N885 0.985 . S
H892 N889 0.984 . S
H893 N889 0.985 . S
H894 N888 0.984 . S
H895 N888 0.984 . S
H896 N884 0.984 . S
H897 N884 0.985 . S
C898 C899 1.363 1_565 S
C898 C904 1.379 . S
C898 N906 1.356 . S
C899 C898 1.363 1_545 S
C899 C905 1.363 . S
C900 C901 1.363 . S
C900 C905 1.379 . S
C900 N907 1.356 . S
C901 C900 1.363 . S
C901 C904 1.363 1_545 S
N902 C904 1.356 . S
N902 H914 0.984 . S
N902 H915 0.985 . S
N903 C905 1.356 1_455 S
N903 H908 0.984 . S
N903 H909 0.985 . S
C904 C898 1.379 . S
C904 C901 1.363 1_565 S
C904 N902 1.356 . S
C905 C899 1.363 . S
C905 C900 1.379 . S
C905 N903 1.356 1_655 S
N906 C898 1.356 . S
N906 H912 0.984 . S
N906 H913 0.984 . S
N907 C900 1.356 . S
N907 H910 0.984 . S
N907 H911 0.985 . S
H908 N903 0.984 . S
H909 N903 0.985 . S
H910 N907 0.984 . S
H911 N907 0.985 . S
H912 N906 0.984 . S
H913 N906 0.984 . S
H914 N902 0.984 . S
H915 N902 0.985 . S
C916 C917 1.363 . S
C916 C922 1.379 . S
C916 N924 1.356 . S
C917 C916 1.363 . S
C917 C923 1.363 . S
C918 C919 1.363 . S
C918 C923 1.379 . S
C918 N925 1.356 . S
C919 C918 1.363 . S
C919 C922 1.363 . S
N920 C922 1.356 . S
N920 H932 0.984 . S
N920 H933 0.985 . S
N921 C923 1.356 . S
N921 H926 0.984 . S
N921 H927 0.985 . S
C922 C916 1.379 . S
C922 C919 1.363 . S
C922 N920 1.356 . S
C923 C917 1.363 . S
C923 C918 1.379 . S
C923 N921 1.356 . S
N924 C916 1.356 . S
N924 H930 0.984 . S
N924 H931 0.984 . S
N925 C918 1.356 . S
N925 H928 0.984 . S
N925 H929 0.985 . S
H926 N921 0.984 . S
H927 N921 0.985 . S
H928 N925 0.984 . S
H929 N925 0.985 . S
H930 N924 0.984 . S
H931 N924 0.984 . S
H932 N920 0.984 . S
H933 N920 0.985 . S
C934 C935 1.363 . S
C934 C940 1.379 . S
C934 N942 1.356 1_455 S
C935 C934 1.363 . S
C935 C941 1.363 . S
C936 C937 1.363 . S
C936 C941 1.379 . S
C936 N943 1.356 . S
C937 C936 1.363 . S
C937 C940 1.363 . S
N938 C940 1.356 . S
N938 H950 0.984 . S
N938 H951 0.985 . S
N939 C941 1.356 . S
N939 H944 0.984 . S
N939 H945 0.985 . S
C940 C934 1.379 . S
C940 C937 1.363 . S
C940 N938 1.356 . S
C941 C935 1.363 . S
C941 C936 1.379 . S
C941 N939 1.356 . S
N942 C934 1.356 1_655 S
N942 H948 0.984 . S
N942 H949 0.984 . S
N943 C936 1.356 . S
N943 H946 0.984 . S
N943 H947 0.985 . S
H944 N939 0.984 . S
H945 N939 0.985 . S
H946 N943 0.984 . S
H947 N943 0.985 . S
H948 N942 0.984 . S
H949 N942 0.984 . S
H950 N938 0.984 . S
H951 N938 0.985 . S
C952 C953 1.363 . S
C952 C958 1.379 . S
C952 N960 1.356 . S
C953 C952 1.363 . S
C953 C959 1.363 . S
C954 C955 1.363 . S
C954 C959 1.379 . S
C954 N961 1.356 . S
C955 C954 1.363 . S
C955 C958 1.363 . S
N956 C958 1.356 . S
N956 H968 0.984 . S
N956 H969 0.985 . S
N957 C959 1.356 . S
N957 H962 0.984 . S
N957 H963 0.985 . S
C958 C952 1.379 . S
C958 C955 1.363 . S
C958 N956 1.356 . S
C959 C953 1.363 . S
C959 C954 1.379 . S
C959 N957 1.356 . S
N960 C952 1.356 . S
N960 H966 0.984 . S
N960 H967 0.984 . S
N961 C954 1.356 . S
N961 H964 0.984 . S
N961 H965 0.985 . S
H962 N957 0.984 . S
H963 N957 0.985 . S
H964 N961 0.984 . S
H965 N961 0.985 . S
H966 N960 0.984 . S
H967 N960 0.984 . S
H968 N956 0.984 . S
H969 N956 0.985 . S
C970 C971 1.363 . S
C970 C976 1.379 1_554 S
C970 N978 1.356 . S
C971 C970 1.363 . S
C971 C977 1.363 . S
C972 C973 1.364 1_454 S
C972 C977 1.379 1_455 S
C972 N979 1.356 . S
C973 C972 1.364 1_656 S
C973 C976 1.363 . S
N974 C976 1.356 . S
N974 H986 0.984 . S
N974 H987 0.985 . S
N975 C977 1.356 1_455 S
N975 H980 0.984 1_455 S
N975 H981 0.985 . S
C976 C970 1.379 1_556 S
C976 C973 1.363 . S
C976 N974 1.356 . S
C977 C971 1.363 . S
C977 C972 1.379 1_655 S
C977 N975 1.356 1_655 S
N978 C970 1.356 . S
N978 H984 0.984 1_554 S
N978 H985 0.984 . S
N979 C972 1.356 . S
N979 H982 1.000 . S
N979 H983 0.985 . S
H980 N975 0.984 1_655 S
H981 N975 0.985 . S
H982 N979 1.000 . S
H983 N979 0.985 . S
H984 N978 0.984 1_556 S
H985 N978 0.984 . S
H986 N974 0.984 . S
H987 N974 0.985 . S
C988 C989 1.363 . S
C988 C994 1.379 . S
C988 N996 1.356 . S
C989 C988 1.363 . S
C989 C995 1.363 . S
C990 C991 1.363 . S
C990 C995 1.379 . S
C990 N997 1.356 . S
C991 C990 1.363 . S
C991 C994 1.363 . S
N992 C994 1.356 . S
N992 H1004 0.984 . S
N992 H1005 0.985 . S
N993 C995 1.356 . S
N993 H998 0.984 . S
N993 H999 0.985 . S
C994 C988 1.379 . S
C994 C991 1.363 . S
C994 N992 1.356 . S
C995 C989 1.363 . S
C995 C990 1.379 . S
C995 N993 1.356 . S
N996 C988 1.356 . S
N996 H1002 0.984 . S
N996 H1003 0.984 . S
N997 C990 1.356 . S
N997 H1000 0.984 . S
N997 H1001 0.985 . S
H998 N993 0.984 . S
H999 N993 0.985 . S
H1000 N997 0.984 . S
H1001 N997 0.985 . S
H1002 N996 0.984 . S
H1003 N996 0.984 . S
H1004 N992 0.984 . S
H1005 N992 0.985 . S
C1006 C1007 1.363 . S
C1006 C1012 1.379 . S
C1006 N1014 1.356 1_455 S
C1007 C1006 1.363 . S
C1007 C1013 1.363 1_554 S
C1008 C1009 1.363 . S
C1008 C1013 1.379 . S
C1008 N1015 1.356 . S
C1009 C1008 1.363 . S
C1009 C1012 1.363 1_556 S
N1010 C1012 1.356 1_655 S
N1010 H1022 0.984 . S
N1010 H1023 0.985 1_554 S
N1011 C1013 1.356 . S
N1011 H1016 0.984 . S
N1011 H1017 0.985 . S
C1012 C1006 1.379 . S
C1012 C1009 1.363 1_554 S
C1012 N1010 1.356 1_455 S
C1013 C1007 1.363 1_556 S
C1013 C1008 1.379 . S
C1013 N1011 1.356 . S
N1014 C1006 1.356 1_655 S
N1014 H1020 0.984 . S
N1014 H1021 0.984 1_655 S
N1015 C1008 1.356 . S
N1015 H1018 0.984 . S
N1015 H1019 0.985 . S
H1016 N1011 0.984 . S
H1017 N1011 0.985 . S
H1018 N1015 0.984 . S
H1019 N1015 0.985 . S
H1020 N1014 0.984 . S
H1021 N1014 0.984 1_455 S
H1022 N1010 0.984 . S
H1023 N1010 0.985 1_556 S
C1024 C1025 1.363 . S
C1024 C1030 1.379 . S
C1024 N1032 1.356 . S
C1025 C1024 1.363 . S
C1025 C1031 1.363 . S
C1026 C1027 1.363 . S
C1026 C1031 1.379 . S
C1026 N1033 1.356 . S
C1027 C1026 1.363 . S
C1027 C1030 1.363 . S
N1028 C1030 1.356 . S
N1028 H1040 0.984 . S
N1028 H1041 0.985 . S
N1029 C1031 1.356 . S
N1029 H1034 0.984 . S
N1029 H1035 0.985 . S
C1030 C1024 1.379 . S
C1030 C1027 1.363 . S
C1030 N1028 1.356 . S
C1031 C1025 1.363 . S
C1031 C1026 1.379 . S
C1031 N1029 1.356 . S
N1032 C1024 1.356 . S
N1032 H1038 0.984 . S
N1032 H1039 0.984 . S
N1033 C1026 1.356 . S
N1033 H1036 0.984 . S
N1033 H1037 0.985 . S
H1034 N1029 0.984 . S
H1035 N1029 0.985 . S
H1036 N1033 0.984 . S
H1037 N1033 0.985 . S
H1038 N1032 0.984 . S
H1039 N1032 0.984 . S
H1040 N1028 0.984 . S
H1041 N1028 0.985 . S
C1042 C1043 1.363 . S
C1042 C1048 1.379 . S
C1042 N1050 1.356 . S
C1043 C1042 1.363 . S
C1043 C1049 1.363 . S
C1044 C1045 1.363 . S
C1044 C1049 1.379 . S
C1044 N1051 1.356 . S
C1045 C1044 1.363 . S
C1045 C1048 1.363 . S
N1046 C1048 1.356 . S
N1046 H1058 0.984 . S
N1046 H1059 0.985 . S
N1047 C1049 1.356 1_556 S
N1047 H1052 0.984 . S
N1047 H1053 0.985 . S
C1048 C1042 1.379 . S
C1048 C1045 1.363 . S
C1048 N1046 1.356 . S
C1049 C1043 1.363 . S
C1049 C1044 1.379 . S
C1049 N1047 1.356 1_554 S
N1050 C1042 1.356 . S
N1050 H1056 0.984 . S
N1050 H1057 0.984 . S
N1051 C1044 1.356 . S
N1051 H1054 0.984 . S
N1051 H1055 0.985 . S
H1052 N1047 0.984 . S
H1053 N1047 0.985 . S
H1054 N1051 0.984 . S
H1055 N1051 0.985 . S
H1056 N1050 0.984 . S
H1057 N1050 0.984 . S
H1058 N1046 0.984 . S
H1059 N1046 0.985 . S
C1060 C1061 1.363 . S
C1060 C1066 1.379 . S
C1060 N1068 1.356 . S
C1061 C1060 1.363 . S
C1061 C1067 1.363 . S
C1062 C1063 1.363 . S
C1062 C1067 1.379 . S
C1062 N1069 1.356 . S
C1063 C1062 1.363 . S
C1063 C1066 1.363 . S
N1064 C1066 1.356 . S
N1064 H1076 0.984 . S
N1064 H1077 0.985 . S
N1065 C1067 1.356 . S
N1065 H1070 0.984 . S
N1065 H1071 0.985 . S
C1066 C1060 1.379 . S
C1066 C1063 1.363 . S
C1066 N1064 1.356 . S
C1067 C1061 1.363 . S
C1067 C1062 1.379 . S
C1067 N1065 1.356 . S
N1068 C1060 1.356 . S
N1068 H1074 0.984 . S
N1068 H1075 0.984 . S
N1069 C1062 1.356 . S
N1069 H1072 0.984 . S
N1069 H1073 0.985 . S
H1070 N1065 0.984 . S
H1071 N1065 0.985 . S
H1072 N1069 0.984 . S
H1073 N1069 0.985 . S
H1074 N1068 0.984 . S
H1075 N1068 0.984 . S
H1076 N1064 0.984 . S
H1077 N1064 0.985 . S
C1078 C1079 1.363 . S
C1078 C1084 1.379 1_556 S
C1078 N1086 1.356 . S
C1079 C1078 1.363 . S
C1079 C1085 1.363 1_556 S
C1080 C1081 1.363 . S
C1080 C1085 1.379 . S
C1080 N1087 1.356 . S
C1081 C1080 1.363 . S
C1081 C1084 1.363 . S
N1082 C1084 1.356 . S
N1082 H1094 0.984 . S
N1082 H1095 0.985 . S
N1083 C1085 1.356 . S
N1083 H1088 0.984 1_554 S
N1083 H1089 0.985 . S
C1084 C1078 1.379 1_554 S
C1084 C1081 1.363 . S
C1084 N1082 1.356 . S
C1085 C1079 1.363 1_554 S
C1085 C1080 1.379 . S
C1085 N1083 1.356 . S
N1086 C1078 1.356 . S
N1086 H1092 0.984 . S
N1086 H1093 0.984 . S
N1087 C1080 1.356 . S
N1087 H1090 0.984 . S
N1087 H1091 0.985 . S
H1088 N1083 0.984 1_556 S
H1089 N1083 0.985 . S
H1090 N1087 0.984 . S
H1091 N1087 0.985 . S
H1092 N1086 0.984 . S
H1093 N1086 0.984 . S
H1094 N1082 0.984 . S
H1095 N1082 0.985 . S
C1096 C1097 1.363 . S
C1096 C1102 1.379 . S
C1096 N1104 1.356 . S
C1097 C1096 1.363 . S
C1097 C1103 1.363 . S
C1098 C1099 1.363 . S
C1098 C1103 1.379 . S
C1098 N1105 1.356 . S
C1099 C1098 1.363 . S
C1099 C1102 1.363 . S
N1100 C1102 1.356 . S
N1100 H1112 0.984 . S
N1100 H1113 0.985 . S
N1101 C1103 1.356 . S
N1101 H1106 0.984 . S
N1101 H1107 0.985 . S
C1102 C1096 1.379 . S
C1102 C1099 1.363 . S
C1102 N1100 1.356 . S
C1103 C1097 1.363 . S
C1103 C1098 1.379 . S
C1103 N1101 1.356 . S
N1104 C1096 1.356 . S
N1104 H1110 0.984 . S
N1104 H1111 0.984 . S
N1105 C1098 1.356 . S
N1105 H1108 0.984 . S
N1105 H1109 0.985 . S
H1106 N1101 0.984 . S
H1107 N1101 0.985 . S
H1108 N1105 0.984 . S
H1109 N1105 0.985 . S
H1110 N1104 0.984 . S
H1111 N1104 0.984 . S
H1112 N1100 0.984 . S
H1113 N1100 0.985 . S
C1114 C1115 1.363 . S
C1114 C1120 1.379 . S
C1114 N1122 1.356 . S
C1115 C1114 1.363 . S
C1115 C1121 1.363 . S
C1116 C1117 1.363 . S
C1116 C1121 1.379 . S
C1116 N1123 1.356 . S
C1117 C1116 1.363 . S
C1117 C1120 1.363 . S
N1118 C1120 1.356 . S
N1118 H1130 0.984 . S
N1118 H1131 0.985 . S
N1119 C1121 1.356 . S
N1119 H1124 0.984 . S
N1119 H1125 0.985 . S
C1120 C1114 1.379 . S
C1120 C1117 1.363 . S
C1120 N1118 1.356 . S
C1121 C1115 1.363 . S
C1121 C1116 1.379 . S
C1121 N1119 1.356 . S
N1122 C1114 1.356 . S
N1122 H1128 0.984 . S
N1122 H1129 0.984 . S
N1123 C1116 1.356 . S
N1123 H1126 0.984 . S
N1123 H1127 0.985 . S
H1124 N1119 0.984 . S
H1125 N1119 0.985 . S
H1126 N1123 0.984 . S
H1127 N1123 0.985 . S
H1128 N1122 0.984 . S
H1129 N1122 0.984 . S
H1130 N1118 0.984 . S
H1131 N1118 0.985 . S
C1132 C1133 1.363 . S
C1132 C1138 1.379 . S
C1132 N1140 1.356 . S
C1133 C1132 1.363 . S
C1133 C1139 1.363 . S
C1134 C1135 1.363 . S
C1134 C1139 1.379 . S
C1134 N1141 1.356 . S
C1135 C1134 1.363 . S
C1135 C1138 1.363 . S
N1136 C1138 1.356 . S
N1136 H1148 0.984 . S
N1136 H1149 0.985 . S
N1137 C1139 1.356 . S
N1137 H1142 0.984 . S
N1137 H1143 0.985 . S
C1138 C1132 1.379 . S
C1138 C1135 1.363 . S
C1138 N1136 1.356 . S
C1139 C1133 1.363 . S
C1139 C1134 1.379 . S
C1139 N1137 1.356 . S
N1140 C1132 1.356 . S
N1140 H1146 0.984 . S
N1140 H1147 0.984 . S
N1141 C1134 1.356 . S
N1141 H1144 0.984 . S
N1141 H1145 0.985 . S
H1142 N1137 0.984 . S
H1143 N1137 0.985 . S
H1144 N1141 0.984 . S
H1145 N1141 0.985 . S
H1146 N1140 0.984 . S
H1147 N1140 0.984 . S
H1148 N1136 0.984 . S
H1149 N1136 0.985 . S
C1150 C1151 1.363 . S
C1150 C1156 1.379 . S
C1150 N1158 1.356 . S
C1151 C1150 1.363 . S
C1151 C1157 1.363 . S
C1152 C1153 1.363 . S
C1152 C1157 1.379 . S
C1152 N1159 1.356 . S
C1153 C1152 1.363 . S
C1153 C1156 1.363 . S
N1154 C1156 1.356 . S
N1154 H1166 0.984 . S
N1154 H1167 0.985 . S
N1155 C1157 1.356 . S
N1155 H1160 0.984 . S
N1155 H1161 0.985 . S
C1156 C1150 1.379 . S
C1156 C1153 1.363 . S
C1156 N1154 1.356 . S
C1157 C1151 1.363 . S
C1157 C1152 1.379 . S
C1157 N1155 1.356 . S
N1158 C1150 1.356 . S
N1158 H1164 0.984 . S
N1158 H1165 0.984 . S
N1159 C1152 1.356 . S
N1159 H1162 0.984 . S
N1159 H1163 0.985 . S
H1160 N1155 0.984 . S
H1161 N1155 0.985 . S
H1162 N1159 0.984 . S
H1163 N1159 0.985 . S
H1164 N1158 0.984 . S
H1165 N1158 0.984 . S
H1166 N1154 0.984 . S
H1167 N1154 0.985 . S
C1168 C1169 1.363 1_554 S
C1168 C1174 1.379 . S
C1168 N1176 1.356 . S
C1169 C1168 1.363 1_556 S
C1169 C1175 1.363 . S
C1170 C1171 1.363 . S
C1170 C1175 1.379 . S
C1170 N1177 1.356 . S
C1171 C1170 1.363 . S
C1171 C1174 1.363 1_556 S
N1172 C1174 1.356 . S
N1172 H1184 0.984 . S
N1172 H1185 0.985 . S
N1173 C1175 1.356 . S
N1173 H1178 0.984 . S
N1173 H1179 0.985 . S
C1174 C1168 1.379 . S
C1174 C1171 1.363 1_554 S
C1174 N1172 1.356 . S
C1175 C1169 1.363 . S
C1175 C1170 1.379 . S
C1175 N1173 1.356 . S
N1176 C1168 1.356 . S
N1176 H1182 0.984 . S
N1176 H1183 0.984 . S
N1177 C1170 1.356 . S
N1177 H1180 0.984 . S
N1177 H1181 0.985 . S
H1178 N1173 0.984 . S
H1179 N1173 0.985 . S
H1180 N1177 0.984 . S
H1181 N1177 0.985 . S
H1182 N1176 0.984 . S
H1183 N1176 0.984 . S
H1184 N1172 0.984 . S
H1185 N1172 0.985 . S
C1186 C1187 1.363 . S
C1186 C1192 1.379 . S
C1186 N1194 1.356 . S
C1187 C1186 1.363 . S
C1187 C1193 1.363 . S
C1188 C1189 1.363 . S
C1188 C1193 1.379 . S
C1188 N1195 1.356 . S
C1189 C1188 1.363 . S
C1189 C1192 1.363 . S
N1190 C1192 1.356 . S
N1190 H1202 0.984 . S
N1190 H1203 0.985 . S
N1191 C1193 1.356 . S
N1191 H1196 0.984 . S
N1191 H1197 0.985 . S
C1192 C1186 1.379 . S
C1192 C1189 1.363 . S
C1192 N1190 1.356 . S
C1193 C1187 1.363 . S
C1193 C1188 1.379 . S
C1193 N1191 1.356 . S
N1194 C1186 1.356 . S
N1194 H1200 0.984 . S
N1194 H1201 0.984 . S
N1195 C1188 1.356 . S
N1195 H1198 0.984 . S
N1195 H1199 0.985 . S
H1196 N1191 0.984 . S
H1197 N1191 0.985 . S
H1198 N1195 0.984 . S
H1199 N1195 0.985 . S
H1200 N1194 0.984 . S
H1201 N1194 0.984 . S
H1202 N1190 0.984 . S
H1203 N1190 0.985 . S
C1204 C1205 1.363 . S
C1204 C1210 1.379 . S
C1204 N1212 1.356 . S
C1205 C1204 1.363 . S
C1205 C1211 1.363 . S
C1206 C1207 1.363 . S
C1206 C1211 1.379 . S
C1206 N1213 1.356 . S
C1207 C1206 1.363 . S
C1207 C1210 1.363 . S
N1208 C1210 1.356 1_556 S
N1208 H1220 0.984 . S
N1208 H1221 0.985 . S
N1209 C1211 1.356 . S
N1209 H1214 0.984 . S
N1209 H1215 0.985 . S
C1210 C1204 1.379 . S
C1210 C1207 1.363 . S
C1210 N1208 1.356 1_554 S
C1211 C1205 1.363 . S
C1211 C1206 1.379 . S
C1211 N1209 1.356 . S
N1212 C1204 1.356 . S
N1212 H1218 0.984 1_554 S
N1212 H1219 0.984 . S
N1213 C1206 1.356 . S
N1213 H1216 0.984 . S
N1213 H1217 0.985 . S
H1214 N1209 0.984 . S
H1215 N1209 0.985 . S
H1216 N1213 0.984 . S
H1217 N1213 0.985 . S
H1218 N1212 0.984 1_556 S
H1219 N1212 0.984 . S
H1220 N1208 0.984 . S
H1221 N1208 0.985 . S
C1222 C1223 1.363 . S
C1222 C1228 1.379 . S
C1222 N1230 1.356 1_565 S
C1223 C1222 1.363 . S
C1223 C1229 1.363 . S
C1224 C1225 1.363 . S
C1224 C1229 1.379 . S
C1224 N1231 1.356 1_554 S
C1225 C1224 1.363 . S
C1225 C1228 1.363 . S
N1226 C1228 1.356 . S
N1226 H1238 0.984 1_565 S
N1226 H1239 0.985 . S
N1227 C1229 1.356 1_556 S
N1227 H1232 0.984 . S
N1227 H1233 0.985 . S
C1228 C1222 1.379 . S
C1228 C1225 1.363 . S
C1228 N1226 1.356 . S
C1229 C1223 1.363 . S
C1229 C1224 1.379 . S
C1229 N1227 1.356 1_554 S
N1230 C1222 1.356 1_545 S
N1230 H1236 0.984 . S
N1230 H1237 0.984 . S
N1231 C1224 1.356 1_556 S
N1231 H1234 0.984 . S
N1231 H1235 0.985 . S
H1232 N1227 0.984 . S
H1233 N1227 0.985 . S
H1234 N1231 0.984 . S
H1235 N1231 0.985 . S
H1236 N1230 0.984 . S
H1237 N1230 0.984 . S
H1238 N1226 0.984 1_545 S
H1239 N1226 0.985 . S
C379 C216 1.341 . S
C377 N66 1.329 . S
C397 C229 1.551 . S
C395 N79 1.514 1_455 S
C413 N92 1.759 . S
C415 C249 1.686 . S
C433 C263 1.367 . S
C431 N54 1.391 . S
C451 C275 1.515 . S
C449 N131 1.519 . S
C469 C289 1.270 . S
C467 N158 1.264 . S
C485 N145 1.529 . S
C487 C299 1.523 . S
C505 C314 1.708 . S
C503 N118 1.708 . S
C521 N148 1.806 . S
C523 C328 1.740 . S
C541 C347 1.412 . S
C539 N122 1.499 . S
C557 N132 1.314 . S
C559 C327 1.291 . S
C577 C345 1.470 . S
C575 N161 1.441 . S
C593 N96 1.831 . S
C595 C361 1.774 . S
C611 N53 1.630 . S
C613 C355 1.655 . S
C629 N67 1.240 . S
C631 C359 1.249 . S
C647 N83 1.410 . S
C649 C356 1.416 . S
C665 N44 1.429 . S
C667 C258 1.429 . S
C683 N187 1.469 . S
C685 C257 1.486 . S
C703 C221 1.202 . S
C701 N197 1.267 . S
C721 C235 1.373 . S
C719 N106 1.446 . S
C737 N57 1.756 1_545 S
C739 C272 1.789 . S
C757 C317 1.508 . S
C755 N144 1.480 . S
C775 C271 1.421 . S
C773 N119 1.413 1_545 S
C793 C303 1.687 . S
C791 N157 1.640 . S
C811 C300 1.341 . S
C809 N183 1.330 . S
C827 N196 1.527 . S
C829 C313 1.551 . S
C845 N105 1.759 . S
C847 C277 1.686 . S
C865 C291 1.367 . S
C863 N171 1.391 . S
C881 N40 1.519 . S
C883 C247 1.515 . S
C901 C261 1.270 . S
C899 N2 1.264 . S
C919 C215 1.523 . S
C917 N15 1.529 . S
C937 C230 1.708 . S
C935 N27 1.708 1_455 S
C953 N18 1.806 . S
C955 C342 1.740 . S
C971 N31 1.499 . S
C973 C333 1.412 . S
C989 N41 1.314 . S
C991 C341 1.291 . S
C1007 N5 1.441 . S
C1009 C331 1.470 . S
C1027 C375 1.774 . S
C1025 N109 1.831 . S
C1045 C369 1.655 . S
C1043 N170 1.630 1_554 S
C1063 C373 1.249 . S
C1061 N184 1.240 . S
C1079 N200 1.410 . S
C1081 C370 1.416 . S
C1097 N135 1.429 . S
C1099 C286 1.429 . S
C1117 C285 1.486 . S
C1115 N70 1.469 . S
C1135 C305 1.202 . S
C1133 N80 1.267 . S
C1153 C319 1.373 . S
C1151 N93 1.446 . S
C1169 N174 1.756 . S
C1171 C244 1.789 . S
C1189 C233 1.508 . S
C1187 N14 1.480 . S
C1205 N28 1.413 . S
C1207 C243 1.421 . S
C1225 C219 1.687 . S
C1223 N1 1.640 1_565 S
