# Generated by pormake.
# Topology ctn, (3,4)-cn, num edge types: 1
# Building blocks:
#     Node 0, Type 0, BuildingBlock: BETDIP_clean_linker_0, # of connection points: 3
#     Node 1, Type 0, BuildingBlock: BETDIP_clean_linker_0, # of connection points: 3
#     Node 2, Type 0, BuildingBlock: BETDIP_clean_linker_0, # of connection points: 3
#     Node 3, Type 0, BuildingBlock: BETDIP_clean_linker_0, # of connection points: 3
#     Node 4, Type 0, BuildingBlock: BETDIP_clean_linker_0, # of connection points: 3
#     Node 5, Type 0, BuildingBlock: BETDIP_clean_linker_0, # of connection points: 3
#     Node 6, Type 0, BuildingBlock: BETDIP_clean_linker_0, # of connection points: 3
#     Node 7, Type 0, BuildingBlock: BETDIP_clean_linker_0, # of connection points: 3
#     Node 8, Type 0, BuildingBlock: BETDIP_clean_linker_0, # of connection points: 3
#     Node 9, Type 0, BuildingBlock: BETDIP_clean_linker_0, # of connection points: 3
#     Node 10, Type 0, BuildingBlock: BETDIP_clean_linker_0, # of connection points: 3
#     Node 11, Type 0, BuildingBlock: BETDIP_clean_linker_0, # of connection points: 3
#     Node 12, Type 0, BuildingBlock: BETDIP_clean_linker_0, # of connection points: 3
#     Node 13, Type 0, BuildingBlock: BETDIP_clean_linker_0, # of connection points: 3
#     Node 14, Type 0, BuildingBlock: BETDIP_clean_linker_0, # of connection points: 3
#     Node 15, Type 0, BuildingBlock: BETDIP_clean_linker_0, # of connection points: 3
#     Node 16, Type 1, BuildingBlock: QUQFOY_clean_sbu_1, # of connection points: 4
#     Node 17, Type 1, BuildingBlock: QUQFOY_clean_sbu_1, # of connection points: 4
#     Node 18, Type 1, BuildingBlock: QUQFOY_clean_sbu_1, # of connection points: 4
#     Node 19, Type 1, BuildingBlock: QUQFOY_clean_sbu_1, # of connection points: 4
#     Node 20, Type 1, BuildingBlock: QUQFOY_clean_sbu_1, # of connection points: 4
#     Node 21, Type 1, BuildingBlock: QUQFOY_clean_sbu_1, # of connection points: 4
#     Node 22, Type 1, BuildingBlock: QUQFOY_clean_sbu_1, # of connection points: 4
#     Node 23, Type 1, BuildingBlock: QUQFOY_clean_sbu_1, # of connection points: 4
#     Node 24, Type 1, BuildingBlock: QUQFOY_clean_sbu_1, # of connection points: 4
#     Node 25, Type 1, BuildingBlock: QUQFOY_clean_sbu_1, # of connection points: 4
#     Node 26, Type 1, BuildingBlock: QUQFOY_clean_sbu_1, # of connection points: 4
#     Node 27, Type 1, BuildingBlock: QUQFOY_clean_sbu_1, # of connection points: 4
#     Edge 28, Type (0, 1), BuildingBlock: UVAHIK_clean_linker_0, # of connection points: 2
#     Edge 29, Type (0, 1), BuildingBlock: UVAHIK_clean_linker_0, # of connection points: 2
#     Edge 30, Type (0, 1), BuildingBlock: UVAHIK_clean_linker_0, # of connection points: 2
#     Edge 31, Type (0, 1), BuildingBlock: UVAHIK_clean_linker_0, # of connection points: 2
#     Edge 32, Type (0, 1), BuildingBlock: UVAHIK_clean_linker_0, # of connection points: 2
#     Edge 33, Type (0, 1), BuildingBlock: UVAHIK_clean_linker_0, # of connection points: 2
#     Edge 34, Type (0, 1), BuildingBlock: UVAHIK_clean_linker_0, # of connection points: 2
#     Edge 35, Type (0, 1), BuildingBlock: UVAHIK_clean_linker_0, # of connection points: 2
#     Edge 36, Type (0, 1), BuildingBlock: UVAHIK_clean_linker_0, # of connection points: 2
#     Edge 37, Type (0, 1), BuildingBlock: UVAHIK_clean_linker_0, # of connection points: 2
#     Edge 38, Type (0, 1), BuildingBlock: UVAHIK_clean_linker_0, # of connection points: 2
#     Edge 39, Type (0, 1), BuildingBlock: UVAHIK_clean_linker_0, # of connection points: 2
#     Edge 40, Type (0, 1), BuildingBlock: UVAHIK_clean_linker_0, # of connection points: 2
#     Edge 41, Type (0, 1), BuildingBlock: UVAHIK_clean_linker_0, # of connection points: 2
#     Edge 42, Type (0, 1), BuildingBlock: UVAHIK_clean_linker_0, # of connection points: 2
#     Edge 43, Type (0, 1), BuildingBlock: UVAHIK_clean_linker_0, # of connection points: 2
#     Edge 44, Type (0, 1), BuildingBlock: UVAHIK_clean_linker_0, # of connection points: 2
#     Edge 45, Type (0, 1), BuildingBlock: UVAHIK_clean_linker_0, # of connection points: 2
#     Edge 46, Type (0, 1), BuildingBlock: UVAHIK_clean_linker_0, # of connection points: 2
#     Edge 47, Type (0, 1), BuildingBlock: UVAHIK_clean_linker_0, # of connection points: 2
#     Edge 48, Type (0, 1), BuildingBlock: UVAHIK_clean_linker_0, # of connection points: 2
#     Edge 49, Type (0, 1), BuildingBlock: UVAHIK_clean_linker_0, # of connection points: 2
#     Edge 50, Type (0, 1), BuildingBlock: UVAHIK_clean_linker_0, # of connection points: 2
#     Edge 51, Type (0, 1), BuildingBlock: UVAHIK_clean_linker_0, # of connection points: 2
#     Edge 52, Type (0, 1), BuildingBlock: UVAHIK_clean_linker_0, # of connection points: 2
#     Edge 53, Type (0, 1), BuildingBlock: UVAHIK_clean_linker_0, # of connection points: 2
#     Edge 54, Type (0, 1), BuildingBlock: UVAHIK_clean_linker_0, # of connection points: 2
#     Edge 55, Type (0, 1), BuildingBlock: UVAHIK_clean_linker_0, # of connection points: 2
#     Edge 56, Type (0, 1), BuildingBlock: UVAHIK_clean_linker_0, # of connection points: 2
#     Edge 57, Type (0, 1), BuildingBlock: UVAHIK_clean_linker_0, # of connection points: 2
#     Edge 58, Type (0, 1), BuildingBlock: UVAHIK_clean_linker_0, # of connection points: 2
#     Edge 59, Type (0, 1), BuildingBlock: UVAHIK_clean_linker_0, # of connection points: 2
#     Edge 60, Type (0, 1), BuildingBlock: UVAHIK_clean_linker_0, # of connection points: 2
#     Edge 61, Type (0, 1), BuildingBlock: UVAHIK_clean_linker_0, # of connection points: 2
#     Edge 62, Type (0, 1), BuildingBlock: UVAHIK_clean_linker_0, # of connection points: 2
#     Edge 63, Type (0, 1), BuildingBlock: UVAHIK_clean_linker_0, # of connection points: 2
#     Edge 64, Type (0, 1), BuildingBlock: UVAHIK_clean_linker_0, # of connection points: 2
#     Edge 65, Type (0, 1), BuildingBlock: UVAHIK_clean_linker_0, # of connection points: 2
#     Edge 66, Type (0, 1), BuildingBlock: UVAHIK_clean_linker_0, # of connection points: 2
#     Edge 67, Type (0, 1), BuildingBlock: UVAHIK_clean_linker_0, # of connection points: 2
#     Edge 68, Type (0, 1), BuildingBlock: UVAHIK_clean_linker_0, # of connection points: 2
#     Edge 69, Type (0, 1), BuildingBlock: UVAHIK_clean_linker_0, # of connection points: 2
#     Edge 70, Type (0, 1), BuildingBlock: UVAHIK_clean_linker_0, # of connection points: 2
#     Edge 71, Type (0, 1), BuildingBlock: UVAHIK_clean_linker_0, # of connection points: 2
#     Edge 72, Type (0, 1), BuildingBlock: UVAHIK_clean_linker_0, # of connection points: 2
#     Edge 73, Type (0, 1), BuildingBlock: UVAHIK_clean_linker_0, # of connection points: 2
#     Edge 74, Type (0, 1), BuildingBlock: UVAHIK_clean_linker_0, # of connection points: 2
#     Edge 75, Type (0, 1), BuildingBlock: UVAHIK_clean_linker_0, # of connection points: 2
# Relax obj value: 0.093
# Max RMSD: 0.192
# Mean RMSD: 0.143
data_MOF--net-ctn--node1-QUQFOY_clean_sbu_1--node2-BETDIP_clean_linker_0--edge1-UVAHIK_clean_linker_0
_symmetry_space_group_name_H-M    P1
_symmetry_Int_Tables_number       1
_symmetry_cell_setting            triclinic
loop_
_symmetry_equiv_pos_as_xyz
'x, y, z'
_cell_length_a     67.695615
_cell_length_b     67.726253
_cell_length_c     74.706031
_cell_angle_alpha  96.504085
_cell_angle_beta   93.850026
_cell_angle_gamma 97.448064
loop_
_atom_site_label
_atom_site_type_symbol
_atom_site_fract_x
_atom_site_fract_y
_atom_site_fract_z
_atom_type_partial_charge
H0 H 0.06729 0.13935 0.10333 0.0
H1 H 0.11391 0.11508 0.07547 0.0
H2 H 0.09234 0.08912 0.12149 0.0
H3 H 0.11961 0.1476 0.06742 0.0
C4 C 0.10406 0.1492 0.06415 0.0
C5 C 0.07812 0.1289 0.10238 0.0
C6 C 0.0782 0.11414 0.11415 0.0
C7 C 0.09133 0.12971 0.08874 0.0
C8 C 0.10461 0.1154 0.0867 0.0
C9 C 0.10483 0.10049 0.09832 0.0
C10 C 0.09195 0.10034 0.11226 0.0
N11 N 0.08942 0.14367 0.07611 0.0
H12 H 0.25862 0.73463 0.22186 0.0
H13 H 0.31869 0.76546 0.22849 0.0
H14 H 0.30454 0.71108 0.25222 0.0
H15 H 0.30405 0.79219 0.22438 0.0
C16 C 0.29142 0.78661 0.21459 0.0
C17 C 0.27402 0.73564 0.22731 0.0
C18 C 0.28002 0.72063 0.23714 0.0
C19 C 0.28766 0.75223 0.22467 0.0
C20 C 0.30775 0.75343 0.23143 0.0
C21 C 0.314 0.73877 0.24158 0.0
C22 C 0.29995 0.72248 0.24441 0.0
N23 N 0.28087 0.76706 0.21466 0.0
H24 H 0.892 0.47527 0.05253 0.0
H25 H 0.92668 0.43545 0.07735 0.0
H26 H 0.93322 0.49765 0.09906 0.0
H27 H 0.89677 0.41129 0.06329 0.0
C28 C 0.9004 0.41739 0.05088 0.0
C29 C 0.90259 0.47275 0.06329 0.0
C30 C 0.91158 0.48884 0.07603 0.0
C31 C 0.9077 0.45346 0.06383 0.0
C32 C 0.92218 0.4502 0.07713 0.0
C33 C 0.93153 0.46608 0.08981 0.0
C34 C 0.92595 0.48531 0.08935 0.0
N35 N 0.89957 0.43806 0.0498 0.0
H36 H 0.74161 0.78084 0.22872 0.0
H37 H 0.74708 0.83839 0.26043 0.0
H38 H 0.77628 0.83199 0.21119 0.0
H39 H 0.74721 0.81671 0.28343 0.0
C40 C 0.73371 0.80697 0.27768 0.0
C41 C 0.74749 0.79666 0.23063 0.0
C42 C 0.75933 0.80499 0.21786 0.0
C43 C 0.74362 0.8085 0.24625 0.0
C44 C 0.75103 0.82905 0.24885 0.0
C45 C 0.76297 0.83773 0.23634 0.0
C46 C 0.76707 0.82551 0.22091 0.0
N47 N 0.73174 0.79963 0.25897 0.0
H48 H 0.06219 0.95078 0.4297 0.0
H49 H 0.11676 0.97335 0.46292 0.0
H50 H 0.08831 0.01243 0.43151 0.0
H51 H 0.11977 0.94097 0.46343 0.0
C52 C 0.10435 0.93449 0.46415 0.0
C53 C 0.07408 0.9629 0.43454 0.0
C54 C 0.07336 0.98207 0.42928 0.0
C55 C 0.08972 0.95947 0.4466 0.0
C56 C 0.10489 0.97541 0.45316 0.0
C57 C 0.10444 0.99452 0.44776 0.0
C58 C 0.0886 0.99773 0.4359 0.0
N59 N 0.08884 0.94043 0.45304 0.0
H60 H 0.21891 0.77863 0.81215 0.0
H61 H 0.25714 0.7453 0.78109 0.0
H62 H 0.27207 0.76219 0.83815 0.0
H63 H 0.24596 0.76712 0.75944 0.0
C64 C 0.2302 0.76388 0.76157 0.0
C65 C 0.23251 0.77181 0.81157 0.0
C66 C 0.24494 0.77165 0.82737 0.0
C67 C 0.23734 0.76313 0.79484 0.0
C68 C 0.25424 0.75316 0.79388 0.0
C69 C 0.26654 0.75218 0.80961 0.0
C70 C 0.26211 0.76206 0.82616 0.0
N71 N 0.22416 0.76359 0.77937 0.0
H72 H 0.95524 0.61766 0.43372 0.0
H73 H 0.91675 0.5613 0.42666 0.0
H74 H 0.91088 0.6059 0.47111 0.0
H75 H 0.94674 0.55086 0.41843 0.0
C76 C 0.95151 0.56201 0.40967 0.0
C77 C 0.94295 0.60788 0.43802 0.0
C78 C 0.93325 0.61425 0.4532 0.0
C79 C 0.93741 0.58864 0.42873 0.0
C80 C 0.92153 0.5759 0.43428 0.0
C81 C 0.91173 0.58196 0.44955 0.0
C82 C 0.91767 0.60126 0.45887 0.0
N83 N 0.94843 0.58227 0.41417 0.0
H84 H 0.80007 0.82897 0.7769 0.0
H85 H 0.83165 0.79565 0.81201 0.0
H86 H 0.77917 0.81959 0.82885 0.0
H87 H 0.84176 0.78173 0.78611 0.0
C88 C 0.84378 0.79422 0.77818 0.0
C89 C 0.80124 0.82239 0.78942 0.0
C90 C 0.78773 0.82575 0.80255 0.0
C91 C 0.81673 0.81108 0.79249 0.0
C92 C 0.819 0.80334 0.80907 0.0
C93 C 0.80553 0.80631 0.82232 0.0
C94 C 0.78984 0.81744 0.81887 0.0
N95 N 0.83045 0.80881 0.77907 0.0
H96 H 0.29487 0.33418 0.27718 0.0
H97 H 0.32623 0.30001 0.31166 0.0
H98 H 0.27393 0.32388 0.32895 0.0
H99 H 0.33596 0.28624 0.28564 0.0
C100 C 0.33805 0.29875 0.27775 0.0
C101 C 0.29601 0.32738 0.28959 0.0
C102 C 0.28254 0.33059 0.30279 0.0
C103 C 0.31139 0.31586 0.29241 0.0
C104 C 0.31364 0.30784 0.30886 0.0
C105 C 0.30022 0.31065 0.32217 0.0
C106 C 0.2846 0.32192 0.31893 0.0
N107 N 0.32498 0.31357 0.27888 0.0
H108 H 0.39088 0.95831 0.53979 0.0
H109 H 0.43277 0.93316 0.57315 0.0
H110 H 0.42348 0.99448 0.58615 0.0
H111 H 0.41342 0.90357 0.56143 0.0
C112 C 0.41192 0.90661 0.54747 0.0
C113 C 0.40138 0.95988 0.55164 0.0
C114 C 0.40602 0.97844 0.56256 0.0
C115 C 0.41045 0.94331 0.55568 0.0
C116 C 0.42465 0.94544 0.57065 0.0
C117 C 0.42947 0.96385 0.58175 0.0
C118 C 0.41977 0.98016 0.57777 0.0
N119 N 0.40652 0.92532 0.54347 0.0
H120 H 0.2271 0.2904 0.71571 0.0
H121 H 0.23421 0.34739 0.7489 0.0
H122 H 0.27431 0.33682 0.70775 0.0
H123 H 0.19876 0.33923 0.74284 0.0
C124 C 0.19826 0.32489 0.74816 0.0
C125 C 0.23528 0.30529 0.71957 0.0
C126 C 0.25137 0.31223 0.70992 0.0
C127 C 0.22882 0.31808 0.7334 0.0
C128 C 0.23915 0.33755 0.73816 0.0
C129 C 0.25556 0.34453 0.72898 0.0
C130 C 0.26157 0.3317 0.7149 0.0
N131 N 0.21161 0.31145 0.74215 0.0
H132 H 0.77226 0.22543 0.70651 0.0
H133 H 0.82676 0.26347 0.72635 0.0
H134 H 0.81157 0.20767 0.74763 0.0
H135 H 0.80826 0.28803 0.72045 0.0
C136 C 0.79927 0.2817 0.70805 0.0
C137 C 0.7858 0.22827 0.71554 0.0
C138 C 0.79054 0.21396 0.72678 0.0
C139 C 0.79831 0.24648 0.7159 0.0
C140 C 0.81642 0.25 0.72687 0.0
C141 C 0.82154 0.23585 0.73815 0.0
C142 C 0.80828 0.21811 0.73825 0.0
N143 N 0.79239 0.26077 0.70484 0.0
H144 H 0.56501 0.64222 0.60323 0.0
H145 H 0.61089 0.61557 0.57627 0.0
H146 H 0.58711 0.59089 0.62214 0.0
H147 H 0.61614 0.64597 0.56487 0.0
C148 C 0.60067 0.64839 0.56261 0.0
C149 C 0.57542 0.63132 0.60256 0.0
C150 C 0.57458 0.61665 0.61443 0.0
C151 C 0.5887 0.63129 0.58899 0.0
C152 C 0.60143 0.61644 0.58736 0.0
C153 C 0.60089 0.6017 0.59923 0.0
C154 C 0.58761 0.60214 0.61289 0.0
N155 N 0.5871 0.64486 0.57598 0.0
H156 H 0.5672 0.45509 0.92858 0.0
H157 H 0.62214 0.47372 0.96229 0.0
H158 H 0.59968 0.5139 0.92803 0.0
H159 H 0.62087 0.44023 0.9645 0.0
C160 C 0.60491 0.43635 0.96534 0.0
C161 C 0.58014 0.46617 0.93306 0.0
C162 C 0.58179 0.485 0.92675 0.0
C163 C 0.59462 0.46185 0.94581 0.0
C164 C 0.61114 0.47648 0.95201 0.0
C165 C 0.61295 0.49531 0.94568 0.0
C166 C 0.59825 0.49942 0.93306 0.0
N167 N 0.59104 0.44356 0.95342 0.0
H168 H 0.71839 0.28017 0.31939 0.0
H169 H 0.75573 0.24887 0.28551 0.0
H170 H 0.77052 0.25947 0.34301 0.0
H171 H 0.74494 0.27259 0.26575 0.0
C172 C 0.7292 0.26949 0.26799 0.0
C173 C 0.73174 0.27305 0.31808 0.0
C174 C 0.74391 0.27083 0.3335 0.0
C175 C 0.73644 0.26596 0.30079 0.0
C176 C 0.75297 0.25557 0.29881 0.0
C177 C 0.76501 0.25258 0.31409 0.0
C178 C 0.76074 0.26089 0.33128 0.0
N179 N 0.72335 0.26821 0.28576 0.0
H180 H 0.46786 0.11227 0.93821 0.0
H181 H 0.43123 0.05474 0.93036 0.0
H182 H 0.42 0.09991 0.97219 0.0
H183 H 0.46258 0.04562 0.9241 0.0
C184 C 0.46735 0.05672 0.91529 0.0
C185 C 0.45529 0.1023 0.94181 0.0
C186 C 0.44425 0.10857 0.95613 0.0
C187 C 0.4509 0.08286 0.9327 0.0
C188 C 0.43489 0.06973 0.93754 0.0
C189 C 0.4235 0.07591 0.95161 0.0
C190 C 0.42814 0.09542 0.96074 0.0
N191 N 0.46322 0.07672 0.9191 0.0
O192 O 0.24678 0.87921 0.00972 0.0
Cd193 Cd 0.25874 0.89988 0.03133 0.0
Cd194 Cd 0.23135 0.92138 0.01928 0.0
O195 O 0.22258 0.89588 0.00124 0.0
O196 O 0.27431 0.8856 0.04785 0.0
O197 O 0.24722 0.89873 0.05537 0.0
C198 C 0.26172 0.88902 0.05964 0.0
C199 C 0.20794 0.93876 0.03329 0.0
C200 C 0.23162 0.88056 -0.00084 0.0
C201 C 0.27432 0.93837 0.01817 0.0
O202 O 0.25617 0.93997 0.014 0.0
O203 O 0.27879 0.9236 0.0259 0.0
O204 O 0.20972 0.93814 0.01618 0.0
O205 O 0.21883 0.92849 0.04245 0.0
O206 O 0.15242 0.53052 0.2704 0.0
Cd207 Cd 0.13435 0.50494 0.27517 0.0
Cd208 Cd 0.11121 0.51412 0.24686 0.0
O209 O 0.13631 0.53391 0.24456 0.0
O210 O 0.15143 0.49149 0.29119 0.0
O211 O 0.13959 0.47801 0.26356 0.0
C212 C 0.15019 0.47685 0.27836 0.0
C213 C 0.09379 0.49778 0.2202 0.0
C214 C 0.15097 0.53937 0.25635 0.0
C215 C 0.09442 0.5162 0.28307 0.0
O216 O 0.09319 0.52107 0.26715 0.0
O217 O 0.10918 0.50809 0.28865 0.0
O218 O 0.09448 0.51678 0.2247 0.0
O219 O 0.10344 0.48783 0.23075 0.0
O220 O 0.8044 0.7139 0.99376 0.0
Cd221 Cd 0.79343 0.69609 0.01248 0.0
Cd222 Cd 0.81888 0.67217 0.99882 0.0
O223 O 0.82565 0.69456 0.98277 0.0
O224 O 0.77964 0.71388 0.02894 0.0
O225 O 0.80534 0.69943 0.03821 0.0
C226 C 0.79188 0.71079 0.04197 0.0
C227 C 0.84323 0.65894 0.01531 0.0
C228 C 0.81745 0.71042 0.98279 0.0
C229 C 0.77556 0.65507 0.99507 0.0
O230 O 0.79317 0.65239 0.99155 0.0
O231 O 0.77234 0.67159 0.00346 0.0
O232 O 0.84067 0.65519 0.99793 0.0
O233 O 0.83263 0.67128 0.02332 0.0
O234 O 0.93654 0.04226 0.28416 0.0
Cd235 Cd 0.91882 0.05068 0.26353 0.0
Cd236 Cd 0.90142 0.06701 0.29105 0.0
O237 O 0.92575 0.06101 0.30645 0.0
O238 O 0.93373 0.04528 0.24199 0.0
O239 O 0.92829 0.07577 0.25253 0.0
C240 C 0.93625 0.06427 0.24091 0.0
C241 C 0.89094 0.09846 0.29543 0.0
C242 C 0.93761 0.04908 0.3008 0.0
C243 C 0.8775 0.03216 0.2676 0.0
O244 O 0.87926 0.04325 0.28267 0.0
O245 O 0.89115 0.03393 0.2568 0.0
O246 O 0.88842 0.08587 0.30706 0.0
O247 O 0.90005 0.09338 0.28132 0.0
O248 O 0.29698 0.21383 0.49135 0.0
Cd249 Cd 0.28609 0.19619 0.51024 0.0
Cd250 Cd 0.30938 0.17081 0.49439 0.0
O251 O 0.31702 0.19381 0.47926 0.0
O252 O 0.27488 0.21504 0.52781 0.0
O253 O 0.29946 0.19817 0.53541 0.0
C254 C 0.28742 0.21081 0.54008 0.0
C255 C 0.33317 0.15303 0.50647 0.0
C256 C 0.30954 0.21011 0.47996 0.0
C257 C 0.26518 0.15666 0.49258 0.0
O258 O 0.2822 0.15331 0.48782 0.0
O259 O 0.26326 0.17306 0.50193 0.0
O260 O 0.32859 0.15154 0.4893 0.0
O261 O 0.32508 0.16573 0.51686 0.0
O262 O 0.44052 0.54479 0.7842 0.0
Cd263 Cd 0.42113 0.55286 0.76467 0.0
Cd264 Cd 0.40466 0.56804 0.79319 0.0
O265 O 0.43 0.56243 0.80738 0.0
O266 O 0.4345 0.54876 0.742 0.0
O267 O 0.42851 0.57857 0.75398 0.0
C268 C 0.43586 0.56781 0.74136 0.0
C269 C 0.39429 0.59952 0.79725 0.0
C270 C 0.44214 0.55123 0.80095 0.0
C271 C 0.38044 0.53327 0.77019 0.0
O272 O 0.3825 0.5441 0.78541 0.0
O273 O 0.39366 0.5355 0.75904 0.0
O274 O 0.39233 0.58739 0.80934 0.0
O275 O 0.40277 0.59394 0.78289 0.0
O276 O 0.74278 0.38122 0.51348 0.0
Cd277 Cd 0.75339 0.40383 0.53418 0.0
Cd278 Cd 0.72423 0.42101 0.51932 0.0
O279 O 0.71607 0.39374 0.50394 0.0
O280 O 0.77121 0.39124 0.55031 0.0
O281 O 0.74362 0.4024 0.55894 0.0
C282 C 0.75909 0.3938 0.56268 0.0
C283 C 0.70139 0.43833 0.53415 0.0
C284 C 0.72692 0.37977 0.503 0.0
C285 C 0.76583 0.4407 0.51713 0.0
O286 O 0.74764 0.43926 0.51115 0.0
O287 O 0.77129 0.42877 0.52784 0.0
O288 O 0.70134 0.43628 0.51678 0.0
O289 O 0.71385 0.42949 0.54318 0.0
O290 O 0.66139 0.02647 0.76145 0.0
Cd291 Cd 0.64373 0.00238 0.76966 0.0
Cd292 Cd 0.61538 0.01385 0.74413 0.0
O293 O 0.63992 0.03352 0.74033 0.0
O294 O 0.66271 0.99027 0.78506 0.0
O295 O 0.64717 0.97421 0.75955 0.0
C296 C 0.65955 0.97435 0.77352 0.0
C297 C 0.59331 0.00261 0.71856 0.0
C298 C 0.65702 0.03689 0.749 0.0
C299 C 0.60571 0.01512 0.78303 0.0
O300 O 0.60127 0.01928 0.76725 0.0
O301 O 0.62152 0.00754 0.78657 0.0
O302 O 0.59588 0.02099 0.7258 0.0
O303 O 0.60357 0.99028 0.7257 0.0
O304 O 0.00053 0.28358 0.92315 0.0
Cd305 Cd 0.01019 0.26295 0.90437 0.0
Cd306 Cd 0.02514 0.29583 0.8919 0.0
O307 O 0.01849 0.31056 0.91589 0.0
O308 O 0.00818 0.23783 0.91592 0.0
O309 O 0.03697 0.25423 0.90994 0.0
C310 C 0.02744 0.23961 0.91697 0.0
C311 C 0.05613 0.30144 0.88034 0.0
C312 C 0.00655 0.30231 0.92613 0.0
C313 C 0.99155 0.26979 0.86915 0.0
O314 O 0.00164 0.28713 0.87257 0.0
O315 O 0.994 0.25646 0.87947 0.0
O316 O 0.04406 0.3147 0.8807 0.0
O317 O 0.05102 0.28526 0.88755 0.0
O318 O 0.4954 0.76813 0.40846 0.0
Cd319 Cd 0.50754 0.74799 0.39114 0.0
Cd320 Cd 0.52564 0.78121 0.38138 0.0
O321 O 0.51626 0.79487 0.40481 0.0
O322 O 0.50444 0.72266 0.40244 0.0
O323 O 0.53381 0.74009 0.39955 0.0
C324 C 0.52363 0.72521 0.40569 0.0
C325 C 0.55882 0.78579 0.37463 0.0
C326 C 0.50215 0.78654 0.41295 0.0
C327 C 0.49438 0.75629 0.35479 0.0
O328 O 0.50464 0.77339 0.3596 0.0
O329 O 0.49488 0.74243 0.36488 0.0
O330 O 0.54763 0.79966 0.37319 0.0
O331 O 0.55129 0.76952 0.38059 0.0
O332 O 0.00683 0.78432 0.65209 0.0
Cd333 Cd 0.02695 0.77909 0.63303 0.0
Cd334 Cd 0.01098 0.80841 0.61943 0.0
O335 O 0.99799 0.81214 0.64341 0.0
O336 O 0.04416 0.76141 0.64425 0.0
O337 O 0.0557 0.7917 0.63796 0.0
C338 C 0.05898 0.7755 0.64457 0.0
C339 C 0.03191 0.83339 0.60874 0.0
C340 C 0.9972 0.79919 0.65446 0.0
C341 C 0.00358 0.76906 0.59691 0.0
O342 O 0.99755 0.78604 0.59983 0.0
O343 O 0.01653 0.76394 0.60795 0.0
O344 O 0.0129 0.83392 0.60857 0.0
O345 O 0.0392 0.81916 0.61599 0.0
O346 O 0.50454 0.28754 0.15534 0.0
Cd347 Cd 0.52564 0.28165 0.13738 0.0
Cd348 Cd 0.50747 0.30777 0.12032 0.0
O349 O 0.49335 0.31273 0.14354 0.0
O350 O 0.54291 0.2658 0.15082 0.0
O351 O 0.55415 0.29519 0.14243 0.0
C352 C 0.55754 0.27991 0.15048 0.0
C353 C 0.52492 0.33334 0.10719 0.0
C354 C 0.49346 0.30135 0.15592 0.0
C355 C 0.5037 0.2665 0.10129 0.0
O356 O 0.49643 0.2829 0.10235 0.0
O357 O 0.51675 0.26354 0.11335 0.0
O358 O 0.50565 0.33081 0.10648 0.0
O359 O 0.53443 0.32195 0.1164 0.0
C360 C 0.23106 0.79896 0.84627 0.0
C361 C 0.23985 0.7812 0.84512 0.0
C362 C 0.22648 0.80803 0.86292 0.0
C363 C 0.22151 0.79929 0.91106 0.0
H364 H 0.23057 0.85743 0.9191 0.0
C365 C 0.23522 0.848 0.98093 0.0
C366 C 0.22618 0.86559 0.98298 0.0
C367 C 0.23296 0.83574 0.96436 0.0
C368 C 0.22768 0.84118 0.91697 0.0
H369 H 0.25017 0.7588 0.86074 0.0
H370 H 0.24335 0.77523 0.88981 0.0
H371 H 0.235 0.84028 0.88961 0.0
H372 H 0.20655 0.88335 0.96962 0.0
H373 H 0.20289 0.86206 0.94067 0.0
H374 H 0.21526 0.80046 0.93893 0.0
C375 C 0.2395 0.78193 0.87779 0.0
C376 C 0.23016 0.83131 0.90002 0.0
C377 C 0.24378 0.77268 0.86109 0.0
C378 C 0.21379 0.86995 0.96849 0.0
C379 C 0.21174 0.85784 0.95188 0.0
C380 C 0.21935 0.80921 0.92813 0.0
C381 C 0.23088 0.7998 0.87895 0.0
C382 C 0.22723 0.81021 0.89684 0.0
C383 C 0.2218 0.84098 0.94952 0.0
C384 C 0.2225 0.83025 0.93124 0.0
H385 H 0.22798 0.80612 0.83433 0.0
H386 H 0.21952 0.82157 0.86319 0.0
H387 H 0.21877 0.78305 0.90905 0.0
H388 H 0.24477 0.84417 0.99186 0.0
H389 H 0.24092 0.82284 0.96286 0.0
C390 C 0.96876 0.56931 0.38204 0.0
C391 C 0.96443 0.55664 0.39528 0.0
C392 C 0.98162 0.56435 0.3689 0.0
C393 C 0.00632 0.52199 0.34859 0.0
H394 H 0.04262 0.56513 0.33375 0.0
C395 C 0.07652 0.5103 0.31064 0.0
C396 C 0.07866 0.5202 0.29519 0.0
C397 C 0.06167 0.51421 0.32213 0.0
C398 C 0.03245 0.55297 0.33769 0.0
H399 H 0.96982 0.52885 0.4052 0.0
H400 H 0.99292 0.5205 0.38276 0.0
H401 H 0.01839 0.57296 0.35522 0.0
H402 H 0.06698 0.54199 0.27969 0.0
H403 H 0.04132 0.54912 0.30005 0.0
H404 H 0.0211 0.50202 0.33147 0.0
C405 C 0.98604 0.53399 0.38211 0.0
C406 C 0.01847 0.55743 0.34991 0.0
C407 C 0.97293 0.53882 0.39506 0.0
C408 C 0.06568 0.5341 0.29147 0.0
C409 C 0.05106 0.53825 0.30313 0.0
C410 C 0.02053 0.51754 0.33658 0.0
C411 C 0.99066 0.54675 0.36891 0.0
C412 C 0.00521 0.542 0.35554 0.0
C413 C 0.04893 0.52833 0.31854 0.0
C414 C 0.0337 0.533 0.33104 0.0
H415 H 0.96219 0.58305 0.38179 0.0
H416 H 0.98445 0.57432 0.35873 0.0
H417 H 0.99613 0.50974 0.35232 0.0
H418 H 0.08626 0.49946 0.31381 0.0
H419 H 0.06038 0.50647 0.33401 0.0
C420 C 0.81463 0.77929 0.84052 0.0
C421 C 0.80824 0.79818 0.83988 0.0
C422 C 0.81774 0.77186 0.85702 0.0
C423 C 0.80252 0.77523 0.90303 0.0
H424 H 0.85012 0.75094 0.91364 0.0
C425 C 0.81447 0.74256 0.96991 0.0
C426 C 0.82136 0.72379 0.96871 0.0
C427 C 0.81544 0.7539 0.95542 0.0
C428 C 0.83667 0.75752 0.91084 0.0
H429 H 0.80025 0.82409 0.85624 0.0
H430 H 0.80514 0.81079 0.885 0.0
H431 H 0.84611 0.76588 0.8856 0.0
H432 H 0.83553 0.70264 0.95165 0.0
H433 H 0.83675 0.72209 0.92623 0.0
H434 H 0.7926 0.76627 0.92779 0.0
C435 C 0.80774 0.8018 0.87266 0.0
C436 C 0.83441 0.76611 0.8948 0.0
C437 C 0.80484 0.80935 0.85617 0.0
C438 C 0.83016 0.71707 0.95304 0.0
C439 C 0.83092 0.7283 0.93846 0.0
C440 C 0.80466 0.76647 0.91896 0.0
C441 C 0.81432 0.78303 0.87324 0.0
C442 C 0.81723 0.77488 0.89067 0.0
C443 C 0.82311 0.74663 0.93929 0.0
C444 C 0.82167 0.75732 0.923 0.0
H445 H 0.81705 0.77011 0.82824 0.0
H446 H 0.82249 0.75719 0.85705 0.0
H447 H 0.78902 0.7817 0.90008 0.0
H448 H 0.80779 0.74826 0.98188 0.0
H449 H 0.80974 0.76817 0.95672 0.0
C450 C 0.05201 0.97493 0.39996 0.0
C451 C 0.05677 0.98619 0.417 0.0
C452 C 0.03822 0.98075 0.38747 0.0
C453 C 0.0166 0.02607 0.37738 0.0
H454 H 0.97981 0.98862 0.34373 0.0
C455 C 0.95462 0.05102 0.3319 0.0
C456 C 0.95198 0.04228 0.31377 0.0
C457 C 0.9674 0.04388 0.34435 0.0
C458 C 0.99014 -0.00077 0.35296 0.0
H459 H 0.05002 0.01143 0.43492 0.0
H460 H 0.02554 0.02125 0.41344 0.0
H461 H 0.00116 0.97593 0.36622 0.0
H462 H 0.96086 0.01929 0.29447 0.0
H463 H 0.98317 0.00685 0.31628 0.0
H464 H 0.00544 0.04935 0.36426 0.0
C465 C 0.03288 0.00836 0.40939 0.0
C466 C 0.00237 0.99197 0.36582 0.0
C467 C 0.04676 0.00267 0.42174 0.0
C468 C 0.96257 0.02638 0.30833 0.0
C469 C 0.97523 0.01914 0.32083 0.0
C470 C 0.0043 0.0333 0.36463 0.0
C471 C 0.02885 0.99784 0.39192 0.0
C472 C 0.0157 0.00533 0.37823 0.0
C473 C 0.9777 0.02777 0.33898 0.0
C474 C 0.99093 0.01998 0.35232 0.0
H475 H 0.05965 0.96222 0.39599 0.0
H476 H 0.03556 0.97237 0.3741 0.0
H477 H 0.02702 0.03678 0.38642 0.0
H478 H 0.94667 0.06326 0.33654 0.0
H479 H 0.96891 0.05072 0.35829 0.0
C480 C 0.2591 0.3086 0.6777 0.0
C481 C 0.25682 0.29996 0.69378 0.0
C482 C 0.2649 0.29765 0.66249 0.0
C483 C 0.26786 0.24614 0.64145 0.0
H484 H 0.30123 0.27518 0.61011 0.0
C485 C 0.29429 0.21071 0.57351 0.0
C486 C 0.28766 0.22022 0.5589 0.0
C487 C 0.2931 0.21929 0.59132 0.0
C488 C 0.29203 0.26687 0.61882 0.0
H489 H 0.25847 0.273 0.70653 0.0
H490 H 0.26905 0.25378 0.67988 0.0
H491 H 0.29438 0.29208 0.63913 0.0
H492 H 0.27523 0.24634 0.55136 0.0
H493 H 0.2738 0.26155 0.58234 0.0
H494 H 0.26565 0.2209 0.62088 0.0
C495 C 0.26613 0.269 0.67901 0.0
C496 C 0.28795 0.27655 0.63536 0.0
C497 C 0.26011 0.27997 0.69426 0.0
C498 C 0.28039 0.23865 0.56236 0.0
C499 C 0.27964 0.2474 0.58006 0.0
C500 C 0.27222 0.23634 0.62495 0.0
C501 C 0.26878 0.27781 0.66298 0.0
C502 C 0.27524 0.26654 0.64662 0.0
C503 C 0.28578 0.23772 0.59469 0.0
C504 C 0.28385 0.24684 0.61329 0.0
H505 H 0.25627 0.32386 0.67685 0.0
H506 H 0.26613 0.30476 0.65026 0.0
H507 H 0.25796 0.23798 0.64972 0.0
H508 H 0.29986 0.19643 0.57118 0.0
H509 H 0.29792 0.21159 0.60244 0.0
C510 C 0.55449 0.63233 0.63796 0.0
C511 C 0.55877 0.61523 0.62722 0.0
C512 C 0.53914 0.63075 0.6496 0.0
C513 C 0.4931 0.59809 0.65663 0.0
H514 H 0.5036 0.61954 0.70724 0.0
C515 C 0.45103 0.56437 0.71193 0.0
C516 C 0.44625 0.57685 0.72687 0.0
C517 C 0.46225 0.57235 0.69883 0.0
C518 C 0.50027 0.61383 0.69307 0.0
H519 H 0.55013 0.58321 0.61994 0.0
H520 H 0.52355 0.58043 0.64024 0.0
H521 H 0.52857 0.62758 0.68601 0.0
H522 H 0.44903 0.6076 0.7396 0.0
H523 H 0.46892 0.62163 0.71659 0.0
H524 H 0.46513 0.58384 0.66369 0.0
C525 C 0.53196 0.59506 0.63968 0.0
C526 C 0.51457 0.6184 0.68094 0.0
C527 C 0.54736 0.5966 0.62823 0.0
C528 C 0.45248 0.59762 0.7282 0.0
C529 C 0.46393 0.60563 0.71511 0.0
C530 C 0.47882 0.59357 0.6687 0.0
C531 C 0.52763 0.6121 0.65044 0.0
C532 C 0.51139 0.61 0.66273 0.0
C533 C 0.46907 0.59301 0.70038 0.0
C534 C 0.48254 0.60082 0.68716 0.0
H535 H 0.5631 0.64687 0.63744 0.0
H536 H 0.53609 0.64411 0.65776 0.0
H537 H 0.49008 0.59176 0.64258 0.0
H538 H 0.44643 0.5483 0.71049 0.0
H539 H 0.4662 0.56217 0.68781 0.0
C540 C 0.79998 0.31601 0.69891 0.0
C541 C 0.79335 0.29535 0.69519 0.0
C542 C 0.79495 0.32908 0.68669 0.0
C543 C 0.79393 0.34999 0.65279 0.0
H544 H 0.74192 0.34216 0.62588 0.0
C545 C 0.78068 0.37896 0.58443 0.0
C546 C 0.76267 0.38635 0.5803 0.0
C547 C 0.78377 0.37056 0.6004 0.0
C548 C 0.75642 0.34475 0.63346 0.0
H549 H 0.77601 0.27212 0.67591 0.0
H550 H 0.76744 0.29486 0.65449 0.0
H551 H 0.74787 0.32216 0.6504 0.0
H552 H 0.73398 0.39123 0.58993 0.0
H553 H 0.7394 0.37643 0.61799 0.0
H554 H 0.80254 0.37243 0.63575 0.0
C555 C 0.77629 0.30105 0.66695 0.0
C556 C 0.7599 0.33313 0.64736 0.0
C557 C 0.78134 0.28799 0.67916 0.0
C558 C 0.748 0.38563 0.59274 0.0
C559 C 0.75105 0.37708 0.60874 0.0
C560 C 0.79046 0.36157 0.63888 0.0
C561 C 0.78316 0.32173 0.6705 0.0
C562 C 0.77882 0.33535 0.65694 0.0
C563 C 0.76891 0.36928 0.61263 0.0
C564 C 0.7718 0.35879 0.62881 0.0
H565 H 0.80919 0.32204 0.71123 0.0
H566 H 0.80031 0.34495 0.6899 0.0
H567 H 0.80871 0.352 0.65983 0.0
H568 H 0.79231 0.37931 0.57515 0.0
H569 H 0.79757 0.36444 0.60287 0.0
C570 C 0.44821 0.95096 0.60729 0.0
C571 C 0.4457 0.96644 0.5966 0.0
C572 C 0.46402 0.95324 0.62075 0.0
C573 C 0.49764 0.99166 0.65027 0.0
H574 H 0.53386 0.95186 0.65227 0.0
C575 C 0.57201 0.01054 0.69272 0.0
C576 C 0.57829 0.99613 0.7031 0.0
C577 C 0.55612 0.00537 0.67951 0.0
C578 C 0.52373 0.96297 0.65205 0.0
H579 H 0.45821 0.99628 0.59151 0.0
H580 H 0.48523 0.00044 0.61532 0.0
H581 H 0.50462 0.9456 0.63019 0.0
H582 H 0.57347 0.9648 0.70732 0.0
H583 H 0.54517 0.95575 0.68434 0.0
H584 H 0.51635 0.00898 0.67211 0.0
C585 C 0.47489 0.98661 0.61333 0.0
C586 C 0.50703 0.95939 0.63942 0.0
C587 C 0.45931 0.98425 0.59976 0.0
C588 C 0.56893 0.97618 0.69946 0.0
C589 C 0.55276 0.97102 0.68631 0.0
C590 C 0.51414 0.99515 0.66295 0.0
C591 C 0.47742 0.97114 0.62392 0.0
C592 C 0.49409 0.9739 0.63821 0.0
C593 C 0.54587 0.98572 0.67652 0.0
C594 C 0.52764 0.98107 0.66374 0.0
H595 H 0.4379 0.93712 0.60534 0.0
H596 H 0.46559 0.94116 0.62885 0.0
H597 H 0.48768 0.00292 0.64983 0.0
H598 H 0.57916 0.02598 0.69505 0.0
H599 H 0.55163 0.01692 0.67183 0.0
C600 C 0.84791 0.25896 0.75859 0.0
C601 C 0.84053 0.23959 0.75003 0.0
C602 C 0.86532 0.26226 0.77027 0.0
C603 C 0.90962 0.23852 0.78464 0.0
H604 H 0.91136 0.2774 0.82722 0.0
C605 C 0.96677 0.24608 0.84775 0.0
C606 C 0.97604 0.26572 0.8538 0.0
C607 C 0.95121 0.24263 0.83398 0.0
C608 C 0.91111 0.26659 0.81532 0.0
H609 H 0.84622 0.20862 0.74664 0.0
H610 H 0.87583 0.21415 0.76771 0.0
H611 H 0.88224 0.27197 0.80543 0.0
H612 H 0.97651 0.29708 0.84992 0.0
H613 H 0.94916 0.29101 0.8262 0.0
H614 H 0.93833 0.23273 0.79513 0.0
C615 C 0.86844 0.22692 0.76513 0.0
C616 C 0.89449 0.26355 0.80275 0.0
C617 C 0.85121 0.22368 0.75325 0.0
C618 C 0.96971 0.28176 0.84558 0.0
C619 C 0.954 0.27833 0.83206 0.0
C620 C 0.92613 0.24135 0.79741 0.0
C621 C 0.87566 0.24623 0.77391 0.0
C622 C 0.89354 0.24954 0.78718 0.0
C623 C 0.94448 0.25879 0.82628 0.0
C624 C 0.92703 0.25548 0.81279 0.0
H625 H 0.84003 0.27157 0.75658 0.0
H626 H 0.87061 0.27742 0.77649 0.0
H627 H 0.9096 0.22784 0.7727 0.0
H628 H 0.97136 0.23341 0.85379 0.0
H629 H 0.94401 0.22742 0.82975 0.0
C630 C 0.41656 0.89561 0.515 0.0
C631 C 0.41882 0.89272 0.5333 0.0
C632 C 0.42472 0.88336 0.50195 0.0
C633 C 0.4458 0.8354 0.49414 0.0
H634 H 0.47082 0.861 0.45592 0.0
C635 C 0.50153 0.81805 0.434 0.0
C636 C 0.49304 0.79834 0.4273 0.0
C637 C 0.49248 0.82926 0.4472 0.0
C638 C 0.4641 0.85364 0.46661 0.0
H639 H 0.43087 0.87463 0.55232 0.0
H640 H 0.44552 0.85349 0.52964 0.0
H641 H 0.45474 0.88079 0.47838 0.0
H642 H 0.46839 0.77494 0.4292 0.0
H643 H 0.45243 0.79459 0.45181 0.0
H644 H 0.45581 0.80841 0.48274 0.0
C645 C 0.43719 0.86494 0.52525 0.0
C646 C 0.45458 0.86493 0.47934 0.0
C647 C 0.42888 0.87708 0.53827 0.0
C648 C 0.4754 0.79005 0.43415 0.0
C649 C 0.46629 0.80129 0.44721 0.0
C650 C 0.45545 0.82414 0.48148 0.0
C651 C 0.43544 0.8681 0.50695 0.0
C652 C 0.44527 0.85595 0.49324 0.0
C653 C 0.47467 0.82106 0.45387 0.0
C654 C 0.46469 0.83311 0.46754 0.0
H655 H 0.40872 0.90747 0.51076 0.0
H656 H 0.42272 0.88595 0.48794 0.0
H657 H 0.43863 0.82793 0.50455 0.0
H658 H 0.51517 0.82483 0.42908 0.0
H659 H 0.49953 0.84432 0.45224 0.0
C660 C 0.18302 0.30263 0.76993 0.0
C661 C 0.18428 0.32055 0.762 0.0
C662 C 0.16993 0.29938 0.78339 0.0
C663 C 0.12484 0.31699 0.80147 0.0
H664 H 0.14128 0.29472 0.84479 0.0
C665 C 0.07924 0.32185 0.86274 0.0
C666 C 0.07417 0.30396 0.87025 0.0
C667 C 0.09403 0.32328 0.85066 0.0
C668 C 0.13647 0.30081 0.8327 0.0
H669 H 0.17317 0.3491 0.76189 0.0
H670 H 0.15059 0.34361 0.78538 0.0
H671 H 0.164 0.29765 0.82073 0.0
H672 H 0.08154 0.27394 0.87188 0.0
H673 H 0.10754 0.27649 0.85066 0.0
H674 H 0.09749 0.3204 0.81339 0.0
C675 C 0.15933 0.33188 0.78109 0.0
C676 C 0.14941 0.30242 0.8189 0.0
C677 C 0.17233 0.33509 0.7677 0.0
C678 C 0.0851 0.28793 0.8663 0.0
C679 C 0.09999 0.28938 0.85417 0.0
C680 C 0.11201 0.31548 0.81522 0.0
C681 C 0.1579 0.31398 0.78908 0.0
C682 C 0.14383 0.31082 0.80325 0.0
C683 C 0.10411 0.30685 0.84579 0.0
C684 C 0.11778 0.30767 0.8311 0.0
H685 H 0.19213 0.29118 0.7658 0.0
H686 H 0.16906 0.28538 0.78919 0.0
H687 H 0.11986 0.32307 0.78941 0.0
H688 H 0.07126 0.33455 0.86564 0.0
H689 H 0.09721 0.33709 0.84472 0.0
C690 C 0.60767 0.66287 0.534 0.0
C691 C 0.5938 0.65562 0.54565 0.0
C692 C 0.60116 0.66951 0.51781 0.0
C693 C 0.55632 0.68579 0.49534 0.0
H694 H 0.58359 0.67662 0.45173 0.0
C695 C 0.52142 0.69933 0.427 0.0
C696 C 0.53328 0.713 0.41799 0.0
C697 C 0.52987 0.69065 0.44119 0.0
C698 C 0.5759 0.67929 0.46385 0.0
H699 H 0.56221 0.64897 0.5493 0.0
H700 H 0.55085 0.65985 0.52103 0.0
H701 H 0.59627 0.66524 0.47972 0.0
H702 H 0.56358 0.72705 0.41588 0.0
H703 H 0.5784 0.71151 0.44063 0.0
H704 H 0.53574 0.6994 0.47939 0.0
C705 C 0.56679 0.66115 0.52453 0.0
C706 C 0.5832 0.67291 0.47991 0.0
C707 C 0.5733 0.65481 0.54075 0.0
C708 C 0.55403 0.71662 0.4226 0.0
C709 C 0.56253 0.70773 0.43673 0.0
C710 C 0.54891 0.69186 0.4793 0.0
C711 C 0.5806 0.66877 0.5129 0.0
C712 C 0.5734 0.67598 0.49584 0.0
C713 C 0.55037 0.69526 0.44656 0.0
C714 C 0.55853 0.68858 0.46338 0.0
H715 H 0.62357 0.66357 0.53748 0.0
H716 H 0.61223 0.67547 0.50931 0.0
H717 H 0.54868 0.68895 0.5074 0.0
H718 H 0.5054 0.69612 0.42374 0.0
H719 H 0.52023 0.68084 0.44842 0.0
C720 C 0.8732 0.78086 0.76566 0.0
C721 C 0.86024 0.79544 0.76617 0.0
C722 C 0.889 0.78186 0.75456 0.0
C723 C 0.92027 0.81681 0.72999 0.0
H724 H 0.93125 0.76789 0.70255 0.0
C725 C 0.97175 0.81587 0.67123 0.0
C726 C 0.98395 0.80059 0.66939 0.0
C727 C 0.95785 0.81602 0.68425 0.0
C728 C 0.92858 0.78165 0.71032 0.0
H729 H 0.85357 0.82255 0.7555 0.0
H730 H 0.88101 0.82417 0.73594 0.0
H731 H 0.90439 0.76644 0.72265 0.0
H732 H 0.99171 0.77398 0.68034 0.0
H733 H 0.96763 0.77439 0.70312 0.0
H734 H 0.94438 0.83202 0.71745 0.0
C735 C 0.87915 0.8121 0.74429 0.0
C736 C 0.91316 0.78082 0.72183 0.0
C737 C 0.86334 0.81109 0.7554 0.0
C738 C 0.98246 0.78589 0.68129 0.0
C739 C 0.96857 0.78605 0.69428 0.0
C740 C 0.9357 0.81764 0.71845 0.0
C741 C 0.89215 0.79748 0.74373 0.0
C742 C 0.90879 0.79839 0.73175 0.0
C743 C 0.95586 0.8009 0.69569 0.0
C744 C 0.93998 0.80007 0.70845 0.0
H745 H 0.87116 0.76871 0.77392 0.0
H746 H 0.8989 0.77051 0.75461 0.0
H747 H 0.91746 0.83057 0.73765 0.0
H748 H 0.97251 0.82742 0.66229 0.0
H749 H 0.94817 0.82758 0.6849 0.0
C750 C 0.08042 0.9119 0.47938 0.0
C751 C 0.09939 0.92299 0.47925 0.0
C752 C 0.07524 0.90266 0.4945 0.0
C753 C 0.09607 0.88809 0.53787 0.0
H754 H 0.04116 0.88797 0.54955 0.0
C755 C 0.0608 0.84101 0.59044 0.0
C756 C 0.04435 0.84725 0.59886 0.0
C757 C 0.06985 0.85209 0.57777 0.0
C758 C 0.05667 0.88819 0.54678 0.0
H759 H 0.12801 0.93273 0.49445 0.0
H760 H 0.11879 0.91722 0.52119 0.0
H761 H 0.0521 0.90296 0.52343 0.0
H762 H 0.02568 0.87086 0.60206 0.0
H763 H 0.04217 0.89083 0.58081 0.0
H764 H 0.10077 0.87398 0.56174 0.0
C765 C 0.10801 0.91522 0.50953 0.0
C766 C 0.06286 0.89643 0.53148 0.0
C767 C 0.1133 0.92418 0.49425 0.0
C768 C 0.0382 0.8656 0.59558 0.0
C769 C 0.04752 0.87691 0.58324 0.0
C770 C 0.08994 0.88008 0.55339 0.0
C771 C 0.08878 0.90461 0.50997 0.0
C772 C 0.08254 0.89623 0.52663 0.0
C773 C 0.06285 0.86983 0.57353 0.0
C774 C 0.07008 0.87982 0.55794 0.0
H775 H 0.06949 0.91054 0.46788 0.0
H776 H 0.0605 0.89413 0.49411 0.0
H777 H 0.11133 0.88755 0.53455 0.0
H778 H 0.06576 0.82683 0.59266 0.0
H779 H 0.0815 0.84604 0.57055 0.0
C780 C 0.21983 0.77274 0.7311 0.0
C781 C 0.21499 0.7634 0.74638 0.0
C782 C 0.20506 0.77338 0.71723 0.0
C783 C 0.15735 0.74806 0.69587 0.0
H784 H 0.14454 0.80037 0.68673 0.0
C785 C 0.08075 0.75766 0.66353 0.0
C786 C 0.07884 0.77326 0.65294 0.0
C787 C 0.09914 0.75592 0.67234 0.0
C788 C 0.14814 0.78562 0.68873 0.0
H789 H 0.19131 0.74667 0.75891 0.0
H790 H 0.16567 0.74726 0.73441 0.0
H791 H 0.17407 0.79794 0.70655 0.0
H792 H 0.09484 0.79896 0.6428 0.0
H793 H 0.12726 0.79557 0.65775 0.0
H794 H 0.13169 0.73558 0.67806 0.0
C795 C 0.18077 0.75433 0.73329 0.0
C796 C 0.16502 0.78428 0.70015 0.0
C797 C 0.19538 0.75409 0.74732 0.0
C798 C 0.09585 0.78684 0.65097 0.0
C799 C 0.11439 0.78495 0.65963 0.0
C800 C 0.14071 0.74936 0.6842 0.0
C801 C 0.18541 0.76419 0.71826 0.0
C802 C 0.16941 0.76551 0.70419 0.0
C803 C 0.11623 0.76957 0.67059 0.0
C804 C 0.1355 0.76817 0.68093 0.0
H805 H 0.23489 0.78 0.73014 0.0
H806 H 0.20893 0.78106 0.70572 0.0
H807 H 0.16061 0.73341 0.69867 0.0
H808 H 0.0679 0.74703 0.66544 0.0
H809 H 0.09976 0.74417 0.68098 0.0
C810 C 0.96067 0.63854 0.47046 0.0
C811 C 0.94043 0.6337 0.46422 0.0
C812 C 0.96714 0.65568 0.48269 0.0
C813 C 0.94747 0.69033 0.51681 0.0
H814 H 0.00136 0.71869 0.51943 0.0
C815 C 0.97803 0.75781 0.57069 0.0
C816 C 0.99589 0.75538 0.5804 0.0
C817 C 0.97082 0.74477 0.5551 0.0
C818 C 0.98626 0.7109 0.5188 0.0
H819 H 0.91121 0.64336 0.46497 0.0
H820 H 0.92257 0.67379 0.48582 0.0
H821 H 0.9894 0.6934 0.49375 0.0
H822 H 0.02039 0.73769 0.58124 0.0
H823 H 0.00793 0.71517 0.55383 0.0
H824 H 0.94441 0.70805 0.54185 0.0
C825 C 0.9334 0.66406 0.48177 0.0
C826 C 0.97942 0.69635 0.50417 0.0
C827 C 0.92689 0.64674 0.46975 0.0
C828 C 0.00653 0.73987 0.5741 0.0
C829 C -0.0005 0.72708 0.55836 0.0
C830 C 0.95422 0.7051 0.53128 0.0
C831 C 0.95352 0.66849 0.48875 0.0
C832 C 0.96008 0.68555 0.50319 0.0
C833 C 0.98155 0.72936 0.54878 0.0
C834 C 0.9738 0.7152 0.53258 0.0
H835 H 0.97135 0.62857 0.46656 0.0
H836 H 0.98267 0.65835 0.48797 0.0
H837 H 0.93262 0.68213 0.51673 0.0
H838 H 0.96951 0.76963 0.57524 0.0
H839 H 0.95694 0.7468 0.54789 0.0
C840 C 0.77389 0.87085 0.22507 0.0
C841 C 0.7714 0.85941 0.23956 0.0
C842 C 0.78278 0.89087 0.2281 0.0
C843 C 0.81506 0.92658 0.26294 0.0
H844 H 0.80176 0.96591 0.23184 0.0
C845 C 0.84957 0.00912 0.27749 0.0
C846 C 0.86068 0.01566 0.26351 0.0
C847 C 0.83591 0.99155 0.27438 0.0
C848 C 0.80552 0.95504 0.24062 0.0
H849 H 0.77602 0.86049 0.26874 0.0
H850 H 0.79012 0.89553 0.27408 0.0
H851 H 0.78291 0.93214 0.22724 0.0
H852 H 0.86512 0.00974 0.23501 0.0
H853 H 0.84084 0.97917 0.22953 0.0
H854 H 0.83738 0.94967 0.2765 0.0
C855 C 0.78591 0.88888 0.26027 0.0
C856 C 0.79487 0.93566 0.23794 0.0
C857 C 0.77743 0.86877 0.25721 0.0
C858 C 0.85686 0.00501 0.24607 0.0
C859 C 0.84293 0.9876 0.2429 0.0
C860 C 0.82537 0.94601 0.26582 0.0
C861 C 0.78908 0.90013 0.24574 0.0
C862 C 0.79964 0.9211 0.24898 0.0
C863 C 0.83285 0.98041 0.25717 0.0
C864 C 0.82082 0.96034 0.25461 0.0
H865 H 0.76906 0.86435 0.21131 0.0
H866 H 0.78511 0.89891 0.21652 0.0
H867 H 0.8196 0.91576 0.27143 0.0
H868 H 0.85214 0.01698 0.29107 0.0
H869 H 0.82819 0.98631 0.28555 0.0
C870 C 0.79279 0.23912 0.29761 0.0
C871 C 0.78088 0.23935 0.31235 0.0
C872 C 0.80658 0.22546 0.29549 0.0
C873 C 0.81579 0.17661 0.30926 0.0
H874 H 0.86865 0.18947 0.29303 0.0
C875 C 0.87299 0.12248 0.31363 0.0
C876 C 0.88232 0.11747 0.29782 0.0
C877 C 0.86249 0.13889 0.31519 0.0
C878 C 0.85387 0.18569 0.29745 0.0
H879 H 0.77442 0.22548 0.33652 0.0
H880 H 0.79881 0.20245 0.33323 0.0
H881 H 0.84651 0.21541 0.29614 0.0
H882 H 0.88894 0.12644 0.27166 0.0
H883 H 0.87043 0.15531 0.27444 0.0
H884 H 0.82307 0.14706 0.31077 0.0
C885 C 0.79729 0.21251 0.32309 0.0
C886 C 0.84119 0.20048 0.29919 0.0
C887 C 0.78348 0.226 0.32514 0.0
C888 C 0.88185 0.1299 0.28399 0.0
C889 C 0.87132 0.14644 0.28558 0.0
C890 C 0.82843 0.16196 0.30763 0.0
C891 C 0.80871 0.21177 0.30807 0.0
C892 C 0.8221 0.19614 0.30537 0.0
C893 C 0.86105 0.15069 0.30099 0.0
C894 C 0.84768 0.16638 0.30195 0.0
H895 H 0.79133 0.24935 0.28761 0.0
H896 H 0.81513 0.22523 0.28374 0.0
H897 H 0.80099 0.17256 0.31354 0.0
H898 H 0.87324 0.11337 0.32463 0.0
H899 H 0.85504 0.14206 0.32737 0.0
C900 C 0.38909 0.06725 0.96135 0.0
C901 C 0.40778 0.06157 0.95778 0.0
C902 C 0.37467 0.05401 0.96808 0.0
C903 C 0.36137 0.00024 0.97366 0.0
H904 H 0.3285 0.02137 0.00981 0.0
C905 C 0.31009 0.94928 0.01315 0.0
C906 C 0.29025 0.95334 0.01325 0.0
C907 C 0.3248 0.96281 0.00714 0.0
C908 C 0.33754 0.01531 -0.00033 0.0
H909 H 0.42621 0.03775 0.95858 0.0
H910 H 0.40127 0.01477 0.97066 0.0
H911 H 0.35333 0.04422 0.99732 0.0
H912 H 0.27045 0.9751 0.00776 0.0
H913 H 0.29625 0.99881 0.99749 0.0
H914 H 0.34573 0.97128 0.97629 0.0
C915 C 0.39747 0.02922 0.96784 0.0
C916 C 0.35167 0.02838 0.99243 0.0
C917 C 0.41178 0.04238 0.96094 0.0
C918 C 0.28558 0.9715 0.00778 0.0
C919 C 0.30034 0.98513 0.00199 0.0
C920 C 0.34739 0.98717 0.98105 0.0
C921 C 0.37876 0.03489 0.97157 0.0
C922 C 0.36371 0.02101 0.97928 0.0
C923 C 0.32001 0.98076 0.00135 0.0
C924 C 0.3353 0.99459 0.99406 0.0
H925 H 0.38561 0.08193 0.95889 0.0
H926 H 0.3603 0.05874 0.97047 0.0
H927 H 0.37012 0.99408 0.96334 0.0
H928 H 0.31415 0.93541 0.01727 0.0
H929 H 0.33992 0.9592 0.00693 0.0
C930 C 0.26316 0.35782 0.31428 0.0
C931 C 0.26692 0.34373 0.30005 0.0
C932 C 0.24934 0.371 0.31155 0.0
C933 C 0.2066 0.37966 0.28142 0.0
H934 H 0.22256 0.43509 0.30195 0.0
C935 C 0.16263 0.44509 0.26592 0.0
C936 C 0.1613 0.45974 0.28054 0.0
C937 C 0.1745 0.42987 0.26791 0.0
C938 C 0.21775 0.41963 0.2963 0.0
H939 H 0.25859 0.33199 0.27195 0.0
H940 H 0.2346 0.3553 0.26711 0.0
H941 H 0.24505 0.4105 0.30621 0.0
H942 H 0.17062 0.46939 0.30889 0.0
H943 H 0.19096 0.44285 0.31238 0.0
H944 H 0.17923 0.38895 0.27148 0.0
C945 C 0.2423 0.35603 0.2804 0.0
C946 C 0.23066 0.40553 0.29875 0.0
C947 C 0.25618 0.34284 0.28312 0.0
C948 C 0.17149 0.45847 0.29729 0.0
C949 C 0.18325 0.44331 0.29928 0.0
C950 C 0.19363 0.39382 0.27897 0.0
C951 C 0.23894 0.37045 0.29453 0.0
C952 C 0.22518 0.38535 0.29149 0.0
C953 C 0.18522 0.42905 0.28455 0.0
C954 C 0.19901 0.41393 0.28655 0.0
H955 H 0.2713 0.35904 0.32743 0.0
H956 H 0.24688 0.38174 0.32279 0.0
H957 H 0.20191 0.36419 0.27575 0.0
H958 H 0.15494 0.44567 0.25284 0.0
H959 H 0.17578 0.41914 0.25628 0.0
C960 C 0.14063 0.00839 0.45402 0.0
C961 C 0.12048 0.01122 0.45443 0.0
C962 C 0.15577 0.02445 0.45929 0.0
C963 C 0.16479 0.07987 0.46501 0.0
H964 H 0.2146 0.07186 0.49012 0.0
C965 C 0.22846 0.14447 0.49179 0.0
C966 C 0.24781 0.14084 0.48796 0.0
C967 C 0.21233 0.12905 0.48823 0.0
C968 C 0.20079 0.07427 0.48303 0.0
H969 H 0.10031 0.03275 0.46132 0.0
H970 H 0.12676 0.06076 0.47086 0.0
H971 H 0.18746 0.04401 0.48371 0.0
H972 H 0.26535 0.11825 0.47716 0.0
H973 H 0.23725 0.09147 0.47104 0.0
H974 H 0.17821 0.11022 0.46447 0.0
C975 C 0.13089 0.04628 0.46604 0.0
C976 C 0.18527 0.05833 0.47931 0.0
C977 C 0.11575 0.03026 0.46064 0.0
C978 C 0.25065 0.12158 0.48029 0.0
C979 C 0.23459 0.10618 0.4769 0.0
C980 C 0.18028 0.09586 0.46886 0.0
C981 C 0.15107 0.04362 0.46523 0.0
C982 C 0.16717 0.06086 0.47007 0.0
C983 C 0.21533 0.10971 0.48097 0.0
C984 C 0.1985 0.09313 0.4777 0.0
H985 H 0.14466 0.99391 0.4491 0.0
H986 H 0.17115 0.02194 0.45823 0.0
H987 H 0.15116 0.08227 0.45764 0.0
H988 H 0.22579 0.15914 0.4977 0.0
H989 H 0.19761 0.13213 0.49154 0.0
C990 C 0.75602 0.19454 0.72522 0.0
C991 C 0.77687 0.19492 0.72699 0.0
C992 C 0.74326 0.17686 0.72631 0.0
C993 C 0.74218 0.12149 0.7257 0.0
H994 H 0.69347 0.12615 0.74942 0.0
C995 C 0.69184 0.05548 0.75097 0.0
C996 C 0.67146 0.05386 0.74511 0.0
C997 C 0.70515 0.07209 0.74782 0.0
C998 C 0.707 0.12467 0.7427 0.0
H999 H 0.80058 0.17662 0.73062 0.0
H1000 H 0.77845 0.14622 0.73358 0.0
H1001 H 0.71577 0.15635 0.74571 0.0
H1002 H 0.64908 0.06828 0.7313 0.0
H1003 H 0.67225 0.0974 0.72623 0.0
H1004 H 0.73351 0.08961 0.72341 0.0
C1005 C 0.77187 0.15945 0.73095 0.0
C1006 C 0.71972 0.14196 0.74043 0.0
C1007 C 0.78461 0.17704 0.72955 0.0
C1008 C 0.6647 0.06905 0.73593 0.0
C1009 C 0.6779 0.08576 0.7331 0.0
C1010 C 0.72959 0.10417 0.72828 0.0
C1011 C 0.75101 0.15915 0.72949 0.0
C1012 C 0.73744 0.14063 0.73179 0.0
C1013 C 0.69819 0.08748 0.73909 0.0
C1014 C 0.71185 0.10566 0.7367 0.0
H1015 H 0.74947 0.20801 0.72341 0.0
H1016 H 0.72729 0.17714 0.72474 0.0
H1017 H 0.7555 0.11983 0.71873 0.0
H1018 H 0.69748 0.04399 0.75803 0.0
H1019 H 0.72077 0.07318 0.75261 0.0
C1020 C 0.39759 0.00062 0.53935 0.0
C1021 C 0.39783 0.99647 0.55736 0.0
C1022 C 0.39132 0.0183 0.53458 0.0
C1023 C 0.3845 0.06949 0.55379 0.0
H1024 H 0.35302 0.06846 0.50831 0.0
C1025 C 0.34573 0.13606 0.53227 0.0
C1026 C 0.34535 0.13877 0.51388 0.0
C1027 C 0.35393 0.11987 0.53844 0.0
C1028 C 0.36203 0.06906 0.52095 0.0
H1029 H 0.39121 0.00736 0.58441 0.0
H1030 H 0.38001 0.0382 0.57604 0.0
H1031 H 0.36245 0.03737 0.51735 0.0
H1032 H 0.35472 0.12766 0.48784 0.0
H1033 H 0.36921 0.09971 0.49863 0.0
H1034 H 0.3838 0.10127 0.55739 0.0
C1035 C 0.38503 0.02794 0.56567 0.0
C1036 C 0.36742 0.05122 0.52615 0.0
C1037 C 0.39136 0.01025 0.57045 0.0
C1038 C 0.35457 0.12586 0.50206 0.0
C1039 C 0.36275 0.10975 0.50821 0.0
C1040 C 0.37902 0.08738 0.5486 0.0
C1041 C 0.38508 0.03223 0.54769 0.0
C1042 C 0.37883 0.05121 0.54256 0.0
C1043 C 0.36189 0.10616 0.52631 0.0
C1044 C 0.36787 0.08736 0.53205 0.0
H1045 H 0.40285 0.9905 0.52902 0.0
H1046 H 0.39186 0.02127 0.52067 0.0
H1047 H 0.39349 0.07004 0.56643 0.0
H1048 H 0.33871 0.14574 0.54169 0.0
H1049 H 0.35305 0.11747 0.55247 0.0
C1050 C 0.63249 0.58819 0.59125 0.0
C1051 C 0.61282 0.58485 0.59631 0.0
C1052 C 0.643 0.57206 0.58699 0.0
C1053 C 0.64371 0.51801 0.59061 0.0
H1054 H 0.66947 0.51878 0.54584 0.0
C1055 C 0.69163 0.45777 0.56207 0.0
C1056 C 0.68891 0.4521 0.54328 0.0
C1057 C 0.68205 0.47322 0.57012 0.0
C1058 C 0.66228 0.51831 0.55833 0.0
H1059 H 0.58893 0.56191 0.60115 0.0
H1060 H 0.60731 0.53388 0.59384 0.0
H1061 H 0.65444 0.54779 0.55765 0.0
H1062 H 0.67303 0.45726 0.51838 0.0
H1063 H 0.65631 0.48395 0.53241 0.0
H1064 H 0.6513 0.48825 0.591 0.0
C1065 C 0.6147 0.54897 0.59339 0.0
C1066 C 0.6539 0.53504 0.56523 0.0
C1067 C 0.60417 0.56507 0.59759 0.0
C1068 C 0.67561 0.46138 0.53287 0.0
C1069 C 0.66612 0.47678 0.54088 0.0
C1070 C 0.65224 0.50127 0.58375 0.0
C1071 C 0.63408 0.55226 0.58772 0.0
C1072 C 0.64432 0.53501 0.58132 0.0
C1073 C 0.66968 0.48326 0.55948 0.0
C1074 C 0.66133 0.50116 0.56739 0.0
H1075 H 0.63968 0.60326 0.59039 0.0
H1076 H 0.65803 0.57507 0.58289 0.0
H1077 H 0.63654 0.51763 0.60312 0.0
H1078 H 0.70181 0.45091 0.57045 0.0
H1079 H 0.68505 0.47791 0.5845 0.0
C1080 C 0.73057 0.29645 0.35483 0.0
C1081 C 0.73885 0.27846 0.35189 0.0
C1082 C 0.72605 0.3037 0.37212 0.0
C1083 C 0.74218 0.3046 0.41913 0.0
H1084 H 0.69154 0.32306 0.42846 0.0
C1085 C 0.73216 0.34589 0.48846 0.0
C1086 C 0.72261 0.36307 0.48814 0.0
C1087 C 0.73083 0.33178 0.4731 0.0
C1088 C 0.70583 0.31813 0.42609 0.0
H1089 H 0.74824 0.2537 0.36493 0.0
H1090 H 0.74117 0.26696 0.39522 0.0
H1091 H 0.69602 0.30624 0.39862 0.0
H1092 H 0.70325 0.37838 0.47181 0.0
H1093 H 0.70157 0.35438 0.44493 0.0
H1094 H 0.75259 0.31748 0.44601 0.0
C1095 C 0.73813 0.2753 0.38403 0.0
C1096 C 0.70832 0.30842 0.40902 0.0
C1097 C 0.74233 0.26784 0.3667 0.0
C1098 C 0.71074 0.36525 0.47252 0.0
C1099 C 0.7097 0.35136 0.45707 0.0
C1100 C 0.73984 0.31462 0.43608 0.0
C1101 C 0.72999 0.2933 0.38688 0.0
C1102 C 0.72662 0.30186 0.40534 0.0
C1103 C 0.72024 0.33474 0.45697 0.0
C1104 C 0.72174 0.32185 0.43971 0.0
H1105 H 0.72797 0.30522 0.34387 0.0
H1106 H 0.72003 0.31779 0.37405 0.0
H1107 H 0.7565 0.29982 0.41655 0.0
H1108 H 0.74122 0.34368 0.50039 0.0
H1109 H 0.73867 0.31889 0.47372 0.0
C1110 C 0.4853 0.06432 0.88817 0.0
C1111 C 0.48115 0.05178 0.90154 0.0
C1112 C 0.49892 0.05987 0.87559 0.0
C1113 C 0.52579 0.01883 0.85644 0.0
H1114 H 0.5597 0.06311 0.8406 0.0
C1115 C 0.59275 0.00948 0.81296 0.0
C1116 C 0.59225 0.01923 0.79733 0.0
C1117 C 0.57956 0.01313 0.82619 0.0
C1118 C 0.55028 0.05063 0.84491 0.0
H1119 H 0.48763 0.02475 0.91227 0.0
H1120 H 0.51202 0.01729 0.89073 0.0
H1121 H 0.53591 0.06997 0.86279 0.0
H1122 H 0.57782 0.04066 0.78343 0.0
H1123 H 0.55514 0.0473 0.80673 0.0
H1124 H 0.5407 -0.00045 0.83875 0.0
C1125 C 0.50447 0.0303 0.88961 0.0
C1126 C 0.53654 0.05452 0.85751 0.0
C1127 C 0.49061 0.0346 0.90202 0.0
C1128 C 0.57852 0.03287 0.7953 0.0
C1129 C 0.56562 0.03676 0.80864 0.0
C1130 C 0.53978 0.01495 0.84403 0.0
C1131 C 0.50889 0.04295 0.87629 0.0
C1132 C 0.52394 0.03869 0.86328 0.0
C1133 C 0.56595 0.02685 0.82414 0.0
C1134 C 0.55196 0.03083 0.83802 0.0
H1135 H 0.478 0.07755 0.88735 0.0
H1136 H 0.50153 0.06969 0.86526 0.0
H1137 H 0.51617 0.00627 0.86035 0.0
H1138 H 0.60313 0.99884 0.81485 0.0
H1139 H 0.58011 0.00538 0.83809 0.0
C1140 C 0.30901 0.2831 0.33983 0.0
C1141 C 0.30285 0.30212 0.33954 0.0
C1142 C 0.31197 0.27526 0.35614 0.0
C1143 C 0.29658 0.27787 0.4021 0.0
H1144 H 0.34347 0.25225 0.41209 0.0
C1145 C 0.30739 0.24289 0.46795 0.0
C1146 C 0.31376 0.22388 0.46623 0.0
C1147 C 0.30872 0.25471 0.4538 0.0
C1148 C 0.33022 0.25921 0.40946 0.0
H1149 H 0.29513 0.32787 0.35632 0.0
H1150 H 0.29979 0.31388 0.38477 0.0
H1151 H 0.33997 0.26809 0.38449 0.0
H1152 H 0.32738 0.20276 0.44861 0.0
H1153 H 0.32923 0.22306 0.42381 0.0
H1154 H 0.28637 0.26841 0.42659 0.0
C1155 C 0.30232 0.30509 0.3723 0.0
C1156 C 0.32825 0.26831 0.39367 0.0
C1157 C 0.29955 0.31304 0.35599 0.0
C1158 C 0.32239 0.21736 0.45041 0.0
C1159 C 0.32352 0.22908 0.43618 0.0
C1160 C 0.29844 0.26861 0.41778 0.0
C1161 C 0.30864 0.28617 0.37253 0.0
C1162 C 0.31131 0.27754 0.38975 0.0
C1163 C 0.31624 0.24769 0.43752 0.0
C1164 C 0.31518 0.25897 0.42158 0.0
H1165 H 0.31134 0.27411 0.3274 0.0
H1166 H 0.31652 0.26048 0.3559 0.0
H1167 H 0.28327 0.28469 0.39931 0.0
H1168 H 0.30085 0.24844 0.48005 0.0
H1169 H 0.30342 0.26917 0.45548 0.0
C1170 C 0.55997 0.47803 0.89766 0.0
C1171 C 0.56611 0.49018 0.91408 0.0
C1172 C 0.54649 0.48411 0.88506 0.0
C1173 C 0.52693 0.53006 0.87313 0.0
H1174 H 0.48652 0.49236 0.84338 0.0
C1175 C 0.46174 0.55427 0.831 0.0
C1176 C 0.45755 0.54485 0.81315 0.0
C1177 C 0.47553 0.54754 0.84281 0.0
C1178 C 0.49787 0.50301 0.8515 0.0
H1179 H 0.56226 0.5175 0.93075 0.0
H1180 H 0.53829 0.52781 0.90914 0.0
H1181 H 0.50884 0.48016 0.86539 0.0
H1182 H 0.46467 0.52105 0.79366 0.0
H1183 H 0.48865 0.5092 0.81442 0.0
H1184 H 0.51561 0.55294 0.8595 0.0
C1185 C 0.54435 0.51399 0.90559 0.0
C1186 C 0.51068 0.49604 0.86408 0.0
C1187 C 0.55796 0.50804 0.91804 0.0
C1188 C 0.4676 0.52867 0.80732 0.0
C1189 C 0.48122 0.52179 0.81921 0.0
C1190 C 0.514 0.53703 0.86071 0.0
C1191 C 0.53875 0.50233 0.88879 0.0
C1192 C 0.52529 0.50951 0.87513 0.0
C1193 C 0.48524 0.53111 0.83708 0.0
C1194 C 0.49931 0.52359 0.84984 0.0
H1195 H 0.56616 0.46424 0.89431 0.0
H1196 H 0.54263 0.47484 0.87221 0.0
H1197 H 0.53831 0.54082 0.88108 0.0
H1198 H 0.45425 0.56677 0.8359 0.0
H1199 H 0.47828 0.55491 0.85656 0.0
C1200 C 0.7823 0.7954 0.19424 0.0
C1201 C 0.7635 0.79246 0.20121 0.0
C1202 C 0.78578 0.78475 0.17789 0.0
C1203 C 0.75843 0.75708 0.13611 0.0
H1204 H 0.81073 0.74286 0.12662 0.0
C1205 C 0.77801 0.73496 0.06379 0.0
C1206 C 0.79 0.7197 0.06066 0.0
C1207 C 0.77528 0.74284 0.08137 0.0
C1208 C 0.79596 0.74649 0.12908 0.0
H1209 H 0.7338 0.7754 0.19666 0.0
H1210 H 0.74013 0.75621 0.16859 0.0
H1211 H 0.8048 0.75693 0.15693 0.0
H1212 H 0.80872 0.70081 0.0735 0.0
H1213 H 0.80354 0.71421 0.10434 0.0
H1214 H 0.74939 0.74611 0.10847 0.0
C1215 C 0.75205 0.76718 0.17551 0.0
C1216 C 0.79262 0.75482 0.14643 0.0
C1217 C 0.7485 0.778 0.19177 0.0
C1218 C 0.79946 0.71264 0.07551 0.0
C1219 C 0.79653 0.72038 0.09317 0.0
C1220 C 0.76171 0.74858 0.11885 0.0
C1221 C 0.77062 0.77068 0.16819 0.0
C1222 C 0.77388 0.76048 0.15011 0.0
C1223 C 0.78425 0.73546 0.09631 0.0
C1224 C 0.7806 0.74347 0.11501 0.0
H1225 H 0.79435 0.80612 0.20131 0.0
H1226 H 0.80021 0.78802 0.17264 0.0
H1227 H 0.74387 0.76145 0.13832 0.0
H1228 H 0.77068 0.74086 0.05262 0.0
H1229 H 0.76614 0.75479 0.08323 0.0
C1230 C 0.05371 0.09276 0.1298 0.0
C1231 C 0.06306 0.11198 0.12754 0.0
C1232 C 0.04005 0.09026 0.14275 0.0
C1233 C 0.00541 0.11483 0.17018 0.0
H1234 H 0.01117 0.07125 0.19879 0.0
C1235 C 0.95483 0.09314 0.22772 0.0
C1236 C 0.94892 0.07239 0.22735 0.0
C1237 C 0.96862 0.10031 0.21597 0.0
C1238 C 0.00931 0.08342 0.19086 0.0
H1239 H 0.06482 0.14375 0.1367 0.0
H1240 H 0.04059 0.13932 0.15946 0.0
H1241 H 0.03589 0.07975 0.17775 0.0
H1242 H 0.95197 0.04302 0.21372 0.0
H1243 H 0.97571 0.05547 0.19333 0.0
H1244 H 0.9785 0.11817 0.18325 0.0
C1245 C 0.04403 0.12623 0.15115 0.0
C1246 C 0.02347 0.0883 0.17883 0.0
C1247 C 0.05786 0.12876 0.13815 0.0
C1248 C 0.95636 0.05907 0.21452 0.0
C1249 C 0.97007 0.0662 0.20289 0.0
C1250 C 0.99115 0.10992 0.18231 0.0
C1251 C 0.03527 0.1069 0.15375 0.0
C1252 C 0.0214 0.10366 0.16799 0.0
C1253 C 0.97674 0.08682 0.20377 0.0
C1254 C 0.9927 0.09378 0.19237 0.0
H1255 H 0.05691 0.07956 0.12149 0.0
H1256 H 0.03316 0.07521 0.14413 0.0
H1257 H 0.00348 0.12675 0.16198 0.0
H1258 H 0.94932 0.10377 0.23745 0.0
H1259 H 0.9735 0.1163 0.2169 0.0
C1260 C 0.30085 0.81489 0.19703 0.0
C1261 C 0.28658 0.79908 0.20038 0.0
C1262 C 0.29721 0.82602 0.18283 0.0
C1263 C 0.26028 0.84401 0.15468 0.0
H1264 H 0.2963 0.83927 0.1167 0.0
C1265 C 0.24709 0.87552 0.08643 0.0
C1266 C 0.26389 0.88161 0.07735 0.0
C1267 C 0.24929 0.86655 0.10231 0.0
C1268 C 0.28632 0.8412 0.1273 0.0
H1269 H 0.25693 0.78302 0.19217 0.0
H1270 H 0.25035 0.803 0.16753 0.0
H1271 H 0.30105 0.82222 0.14326 0.0
H1272 H 0.29618 0.8844 0.07822 0.0
H1273 H 0.3002 0.87004 0.10636 0.0
H1274 H 0.24594 0.8636 0.13917 0.0
C1275 C 0.26442 0.80651 0.17579 0.0
C1276 C 0.28899 0.83123 0.14243 0.0
C1277 C 0.26824 0.79506 0.18977 0.0
C1278 C 0.28295 0.87954 0.08484 0.0
C1279 C 0.2852 0.8711 0.1009 0.0
C1280 C 0.25785 0.8544 0.13969 0.0
C1281 C 0.27905 0.82181 0.17204 0.0
C1282 C 0.276 0.83253 0.1562 0.0
C1283 C 0.26839 0.86394 0.10961 0.0
C1284 C 0.27087 0.85314 0.12577 0.0
H1285 H 0.31508 0.81826 0.20506 0.0
H1286 H 0.30867 0.83779 0.18014 0.0
H1287 H 0.25014 0.84521 0.16525 0.0
H1288 H 0.23222 0.87689 0.08084 0.0
H1289 H 0.23595 0.86109 0.10846 0.0
C1290 C 0.96354 0.45251 0.09652 0.0
C1291 C 0.94815 0.46293 0.10267 0.0
C1292 C 0.98003 0.45081 0.10823 0.0
C1293 C 0.01861 0.46503 0.1322 0.0
H1294 H 0.01438 0.45633 0.18231 0.0
C1295 C 0.07686 0.49918 0.18994 0.0
C1296 C 0.08118 0.48792 0.20401 0.0
C1297 C 0.06251 0.49121 0.17586 0.0
C1298 C 0.01583 0.4584 0.16827 0.0
H1299 H 0.93753 0.47904 0.12602 0.0
H1300 H 0.96641 0.47615 0.14654 0.0
H1301 H 0.98425 0.4512 0.16142 0.0
H1302 H 0.0746 0.45921 0.21406 0.0
H1303 H 0.04896 0.44533 0.18945 0.0
H1304 H 0.05005 0.4731 0.13923 0.0
C1305 C 0.96566 0.46921 0.13267 0.0
C1306 C -0.00142 0.45568 0.15638 0.0
C1307 C 0.94925 0.47105 0.12091 0.0
C1308 C 0.07158 0.46814 0.2033 0.0
C1309 C 0.05688 0.46027 0.18932 0.0
C1310 C 0.03581 0.46794 0.14412 0.0
C1311 C 0.98138 0.45936 0.12637 0.0
C1312 C -0.00024 0.45947 0.13835 0.0
C1313 C 0.05195 0.47192 0.17569 0.0
C1314 C 0.03451 0.46517 0.16237 0.0
H1315 H 0.96318 0.44625 0.08248 0.0
H1316 H 0.99188 0.44308 0.10304 0.0
H1317 H 0.01997 0.46818 0.11841 0.0
H1318 H 0.0841 0.51445 0.19015 0.0
H1319 H 0.05889 0.50061 0.16564 0.0
C1320 C 0.34556 0.75961 0.25633 0.0
C1321 C 0.33503 0.74067 0.24957 0.0
C1322 C 0.36483 0.76138 0.2648 0.0
C1323 C 0.4075 0.73274 0.27352 0.0
H1324 H 0.41951 0.7734 0.3151 0.0
C1325 C 0.4687 0.73464 0.33267 0.0
C1326 C 0.48012 0.75342 0.33851 0.0
C1327 C 0.4531 0.7328 0.31906 0.0
C1328 C 0.41645 0.76213 0.30339 0.0
H1329 H 0.33711 0.70875 0.24574 0.0
H1330 H 0.37006 0.71171 0.26155 0.0
H1331 H 0.38797 0.77088 0.29698 0.0
H1332 H 0.48491 0.78469 0.33382 0.0
H1333 H 0.45751 0.78145 0.31036 0.0
H1334 H 0.43581 0.72344 0.28083 0.0
C1335 C 0.36365 0.7253 0.25994 0.0
C1336 C 0.3984 0.76072 0.2929 0.0
C1337 C 0.34452 0.72357 0.25114 0.0
C1338 C 0.47636 0.77003 0.32974 0.0
C1339 C 0.46065 0.76822 0.31634 0.0
C1340 C 0.42547 0.73394 0.28427 0.0
C1341 C 0.37396 0.74422 0.26712 0.0
C1342 C 0.39364 0.74602 0.27781 0.0
C1343 C 0.44855 0.74974 0.31124 0.0
C1344 C 0.43007 0.74868 0.29927 0.0
H1345 H 0.33876 0.77314 0.25555 0.0
H1346 H 0.37243 0.77625 0.26976 0.0
H1347 H 0.40452 0.72141 0.26188 0.0
H1348 H 0.47128 0.72154 0.3391 0.0
H1349 H 0.44391 0.71839 0.31537 0.0
C1350 C 0.91934 0.41413 0.02322 0.0
C1351 C 0.91013 0.40534 0.03724 0.0
C1352 C 0.93006 0.40302 0.0114 0.0
C1353 C 0.95548 0.35759 0.00785 0.0
H1354 H 0.95507 0.36547 0.95722 0.0
C1355 C 0.98718 0.30547 0.95345 0.0
C1356 C 0.99829 0.31466 0.94066 0.0
C1357 C 0.97757 0.3169 0.966 0.0
C1358 C 0.95549 0.36329 0.97138 0.0
H1359 H 0.90436 0.37802 0.04962 0.0
H1360 H 0.92253 0.35833 0.02861 0.0
H1361 H 0.93483 0.38407 0.97697 0.0
H1362 H 0.00854 0.34317 0.93138 0.0
H1363 H 0.99159 0.36311 0.95326 0.0
H1364 H 0.97583 0.33643 0.00205 0.0
C1365 C 0.92194 0.37393 0.027 0.0
C1366 C 0.94391 0.37395 0.98271 0.0
C1367 C 0.91137 0.38512 0.03892 0.0
C1368 C 0.0001 0.33563 0.94106 0.0
C1369 C 0.9903 0.34703 0.95348 0.0
C1370 C 0.96691 0.34679 0.99647 0.0
C1371 C 0.93166 0.38283 0.01324 0.0
C1372 C 0.94376 0.37125 0.0011 0.0
C1373 C 0.9787 0.33774 0.96589 0.0
C1374 C 0.96705 0.34956 0.97813 0.0
H1375 H 0.91877 0.42975 0.02165 0.0
H1376 H 0.93756 0.41045 0.00114 0.0
H1377 H 0.95604 0.35542 0.022 0.0
H1378 H 0.98554 0.28935 0.95353 0.0
H1379 H 0.96864 0.30934 0.97535 0.0
C1380 C 0.69905 0.79127 0.28243 0.0
C1381 C 0.71743 0.80243 0.28942 0.0
C1382 C 0.68341 0.78833 0.29357 0.0
C1383 C 0.66521 0.81095 0.33541 0.0
H1384 H 0.62868 0.76121 0.33027 0.0
C1385 C 0.58681 0.80554 0.36142 0.0
C1386 C 0.57921 0.78799 0.36846 0.0
C1387 C 0.60517 0.80692 0.35386 0.0
C1388 C 0.63889 0.77511 0.33206 0.0
H1389 H 0.73413 0.81878 0.31348 0.0
H1390 H 0.70692 0.81342 0.33303 0.0
H1391 H 0.65807 0.76348 0.31306 0.0
H1392 H 0.58525 0.75841 0.37373 0.0
H1393 H 0.61747 0.76092 0.36066 0.0
H1394 H 0.64606 0.82258 0.35444 0.0
C1395 C 0.70445 0.8072 0.31892 0.0
C1396 C 0.6556 0.77649 0.32202 0.0
C1397 C 0.72006 0.81017 0.30778 0.0
C1398 C 0.59068 0.77211 0.36836 0.0
C1399 C 0.60907 0.77349 0.36076 0.0
C1400 C 0.64851 0.80957 0.34545 0.0
C1401 C 0.68585 0.79647 0.31189 0.0
C1402 C 0.66881 0.79451 0.32341 0.0
C1403 C 0.61636 0.7908 0.35317 0.0
C1404 C 0.63501 0.79173 0.3437 0.0
H1405 H 0.69657 0.78518 0.2683 0.0
H1406 H 0.6692 0.7802 0.28767 0.0
H1407 H 0.67497 0.82512 0.33668 0.0
H1408 H 0.57834 0.81804 0.36127 0.0
H1409 H 0.61023 0.82038 0.34794 0.0
C1410 C 0.11317 0.16572 0.03704 0.0
C1411 C 0.09835 0.15725 0.04726 0.0
C1412 C 0.10789 0.17295 0.02081 0.0
C1413 C 0.06748 0.1676 0.9846 0.0
H1414 H 0.08799 0.222 0.97734 0.0
C1415 C 0.02717 0.21156 0.93595 0.0
C1416 C 0.03811 0.22638 0.92746 0.0
C1417 C 0.0368 0.201 0.94806 0.0
C1418 C 0.08245 0.20662 0.9789 0.0
H1419 H 0.06638 0.14944 0.04845 0.0
H1420 H 0.05721 0.16187 0.02011 0.0
H1421 H 0.1007 0.20784 0.0037 0.0
H1422 H 0.06791 0.24092 0.92421 0.0
H1423 H 0.08484 0.22211 0.94516 0.0
H1424 H 0.04914 0.1663 0.95995 0.0
C1425 C 0.0729 0.16295 0.02462 0.0
C1426 C 0.08968 0.19856 0.99406 0.0
C1427 C 0.07816 0.15599 0.04093 0.0
C1428 C 0.05905 0.22964 0.9306 0.0
C1429 C 0.06873 0.21898 0.94271 0.0
C1430 C 0.06041 0.17555 0.96935 0.0
C1431 C 0.0877 0.17149 0.0144 0.0
C1432 C 0.08186 0.17918 0.9973 0.0
C1433 C 0.05766 0.20488 0.95193 0.0
C1434 C 0.06737 0.19537 0.96658 0.0
H1435 H 0.12884 0.16677 0.04163 0.0
H1436 H 0.11958 0.17943 0.01316 0.0
H1437 H 0.06146 0.15247 0.98663 0.0
H1438 H 0.01102 0.20867 0.93384 0.0
H1439 H 0.02771 0.19048 0.95505 0.0
C1440 C 0.36763 0.28544 0.26556 0.0
C1441 C 0.35445 0.2998 0.26568 0.0
C1442 C 0.38343 0.2863 0.25445 0.0
C1443 C 0.41406 0.32073 0.22881 0.0
H1444 H 0.42672 0.27124 0.20364 0.0
C1445 C 0.46668 0.31783 0.17086 0.0
C1446 C 0.47966 0.30319 0.17038 0.0
C1447 C 0.45239 0.31832 0.1835 0.0
C1448 C 0.42354 0.28517 0.21076 0.0
H1449 H 0.34732 0.32633 0.25425 0.0
H1450 H 0.3747 0.32765 0.2346 0.0
H1451 H 0.3995 0.27011 0.22336 0.0
H1452 H 0.4883 0.2781 0.1833 0.0
H1453 H 0.46345 0.27907 0.20536 0.0
H1454 H 0.43799 0.33577 0.21593 0.0
C1455 C 0.37306 0.3159 0.24331 0.0
C1456 C 0.40793 0.28453 0.22206 0.0
C1457 C 0.35729 0.31506 0.25447 0.0
C1458 C 0.47848 0.28951 0.18321 0.0
C1459 C 0.46415 0.28997 0.1958 0.0
C1460 C 0.42964 0.32137 0.21743 0.0
C1461 C 0.38632 0.30153 0.24318 0.0
C1462 C 0.403 0.30229 0.23122 0.0
C1463 C 0.45074 0.30416 0.19588 0.0
C1464 C 0.43454 0.30359 0.2083 0.0
H1465 H 0.3658 0.2736 0.27417 0.0
H1466 H 0.39353 0.27517 0.25487 0.0
H1467 H 0.41082 0.33466 0.23588 0.0
H1468 H 0.4672 0.3286 0.16118 0.0
H1469 H 0.44217 0.32935 0.18316 0.0
C1470 C 0.57735 0.42167 0.98262 0.0
C1471 C 0.59776 0.42481 0.97985 0.0
C1472 C 0.57082 0.41188 0.99703 0.0
C1473 C 0.58818 0.39845 0.04151 0.0
H1474 H 0.53756 0.36334 0.03498 0.0
C1475 C 0.55602 0.34779 0.0941 0.0
C1476 C 0.53545 0.34733 0.09602 0.0
C1477 C 0.56506 0.35837 0.08106 0.0
C1478 C 0.55165 0.37324 0.03705 0.0
H1479 H 0.62733 0.42 0.98975 0.0
H1480 H 0.61586 0.40234 0.01479 0.0
H1481 H 0.55068 0.37815 0.0093 0.0
H1482 H 0.50856 0.35877 0.0867 0.0
H1483 H 0.52432 0.37713 0.06408 0.0
H1484 H 0.58911 0.39311 0.06934 0.0
C1485 C 0.60494 0.40777 0.00601 0.0
C1486 C 0.55917 0.38176 0.02234 0.0
C1487 C 0.6115 0.41771 0.99161 0.0
C1488 C 0.5244 0.35865 0.08547 0.0
C1489 C 0.53338 0.36908 0.07243 0.0
C1490 C 0.5807 0.38973 0.05625 0.0
C1491 C 0.58451 0.40483 0.00894 0.0
C1492 C 0.57735 0.39473 0.02443 0.0
C1493 C 0.55363 0.36853 0.0697 0.0
C1494 C 0.5622 0.37732 0.05418 0.0
H1495 H 0.56638 0.42711 0.97389 0.0
H1496 H 0.55502 0.41022 0.99905 0.0
H1497 H 0.60214 0.40852 0.04364 0.0
H1498 H 0.56493 0.33922 0.10204 0.0
H1499 H 0.58072 0.35774 0.07923 0.0
C1500 C 0.69418 0.26048 0.25405 0.0
C1501 C 0.71384 0.26963 0.25306 0.0
C1502 C 0.67951 0.261 0.24015 0.0
C1503 C 0.66371 0.29091 0.20686 0.0
H1504 H 0.63035 0.24202 0.18524 0.0
C1505 C 0.59429 0.29211 0.1572 0.0
C1506 C 0.57736 0.27856 0.15948 0.0
C1507 C 0.61285 0.2907 0.16611 0.0
C1508 C 0.6394 0.25585 0.19124 0.0
H1509 H 0.73372 0.28633 0.23687 0.0
H1510 H 0.70766 0.28786 0.21266 0.0
H1511 H 0.65937 0.24009 0.20579 0.0
H1512 H 0.56657 0.25301 0.17296 0.0
H1513 H 0.59845 0.25097 0.18883 0.0
H1514 H 0.64314 0.30681 0.19326 0.0
C1515 C 0.70379 0.28011 0.22413 0.0
C1516 C 0.65608 0.25469 0.20288 0.0
C1517 C 0.71863 0.2792 0.23789 0.0
C1518 C 0.57935 0.26359 0.17077 0.0
C1519 C 0.59774 0.26231 0.17978 0.0
C1520 C 0.64678 0.29212 0.19543 0.0
C1521 C 0.68413 0.27098 0.22517 0.0
C1522 C 0.66813 0.27221 0.21107 0.0
C1523 C 0.61477 0.2758 0.17757 0.0
C1524 C 0.63413 0.2746 0.18783 0.0
H1525 H 0.69013 0.25288 0.26554 0.0
H1526 H 0.6644 0.25397 0.24129 0.0
H1527 H 0.67277 0.30463 0.21314 0.0
H1528 H 0.59321 0.30376 0.14852 0.0
H1529 H 0.62567 0.30123 0.16395 0.0
C1530 C 0.43721 0.14045 0.97353 0.0
C1531 C 0.45099 0.12772 0.9678 0.0
C1532 C 0.44327 0.15704 0.98653 0.0
C1533 C 0.47863 0.17194 0.02547 0.0
H1534 H 0.4673 0.22618 0.02248 0.0
C1535 C 0.50938 0.23603 0.08125 0.0
C1536 C 0.49743 0.25104 0.08568 0.0
C1537 C 0.50383 0.22172 0.0662 0.0
C1538 C 0.47032 0.21105 0.02365 0.0
H1539 H 0.48194 0.1226 0.97076 0.0
H1540 H 0.49245 0.15148 0.99358 0.0
H1541 H 0.45733 0.20032 0.99674 0.0
H1542 H 0.47019 0.26274 0.07797 0.0
H1543 H 0.46004 0.23726 0.05211 0.0
H1544 H 0.4909 0.18216 0.05247 0.0
C1545 C 0.47704 0.14867 0.98793 0.0
C1546 C 0.46472 0.19632 0.00886 0.0
C1547 C 0.47106 0.13228 0.97479 0.0
C1548 C 0.47974 0.25138 0.07483 0.0
C1549 C 0.47401 0.23686 0.05992 0.0
C1550 C 0.48394 0.18652 0.04032 0.0
C1551 C 0.46311 0.16093 0.99418 0.0
C1552 C 0.46899 0.1767 0.00963 0.0
C1553 C 0.48602 0.22187 0.05539 0.0
C1554 C 0.47999 0.20632 0.03958 0.0
H1555 H 0.42167 0.13724 0.9683 0.0
H1556 H 0.43227 0.16627 0.99121 0.0
H1557 H 0.48175 0.15679 0.02648 0.0
H1558 H 0.52323 0.23552 0.08922 0.0
H1559 H 0.5137 0.2107 0.06294 0.0
C1560 C 0.27273 0.37673 0.72015 0.0
C1561 C 0.26604 0.36536 0.73374 0.0
C1562 C 0.28275 0.3962 0.72458 0.0
C1563 C 0.31111 0.42978 0.76287 0.0
H1564 H 0.30514 0.47056 0.73115 0.0
C1565 C 0.35211 0.51034 0.77976 0.0
C1566 C 0.36348 0.51694 0.76596 0.0
C1567 C 0.33774 0.49331 0.7762 0.0
C1568 C 0.30691 0.4593 0.74012 0.0
H1569 H 0.26458 0.36571 0.7627 0.0
H1570 H 0.2813 0.39993 0.77038 0.0
H1571 H 0.28463 0.43778 0.72448 0.0
H1572 H 0.36791 0.51157 0.73741 0.0
H1573 H 0.34264 0.48198 0.7312 0.0
H1574 H 0.33336 0.45139 0.77851 0.0
C1575 C 0.27918 0.39364 0.75629 0.0
C1576 C 0.29527 0.44049 0.73627 0.0
C1577 C 0.26935 0.37408 0.75186 0.0
C1578 C 0.35946 0.5068 0.74835 0.0
C1579 C 0.34493 0.48993 0.74476 0.0
C1580 C 0.32256 0.44865 0.76682 0.0
C1581 C 0.28615 0.4049 0.74272 0.0
C1582 C 0.29746 0.42538 0.74745 0.0
C1583 C 0.33429 0.48275 0.75874 0.0
C1584 C 0.32077 0.46348 0.75535 0.0
H1585 H 0.27014 0.37064 0.70602 0.0
H1586 H 0.28812 0.40429 0.71377 0.0
H1587 H 0.31348 0.41845 0.77162 0.0
H1588 H 0.35483 0.51784 0.79347 0.0
H1589 H 0.3296 0.48816 0.78718 0.0
C1590 C 0.29467 0.73807 0.79422 0.0
C1591 C 0.28297 0.73955 0.80907 0.0
C1592 C 0.30889 0.72477 0.79322 0.0
C1593 C 0.31971 0.67837 0.81105 0.0
H1594 H 0.37133 0.68974 0.792 0.0
C1595 C 0.37714 0.62428 0.81549 0.0
C1596 C 0.38572 0.61857 0.79943 0.0
C1597 C 0.36672 0.64075 0.81693 0.0
C1598 C 0.3569 0.68637 0.79725 0.0
H1599 H 0.27746 0.72841 0.83468 0.0
H1600 H 0.30261 0.70603 0.83327 0.0
H1601 H 0.349 0.71552 0.79409 0.0
H1602 H 0.39107 0.62635 0.77263 0.0
H1603 H 0.37266 0.65525 0.77515 0.0
H1604 H 0.32748 0.64935 0.81426 0.0
C1605 C 0.30056 0.71481 0.8222 0.0
C1606 C 0.34412 0.70108 0.79842 0.0
C1607 C 0.28631 0.72792 0.82314 0.0
C1608 C 0.38457 0.63036 0.78516 0.0
C1609 C 0.3741 0.64693 0.78662 0.0
C1610 C 0.33247 0.6638 0.80998 0.0
C1611 C 0.31171 0.71272 0.80706 0.0
C1612 C 0.32543 0.69727 0.80548 0.0
C1613 C 0.36459 0.65191 0.80234 0.0
C1614 C 0.35125 0.66766 0.80321 0.0
H1615 H 0.29268 0.74698 0.78325 0.0
H1616 H 0.31718 0.72348 0.78134 0.0
H1617 H 0.30521 0.6747 0.81608 0.0
H1618 H 0.37794 0.61567 0.82682 0.0
H1619 H 0.35988 0.64449 0.82935 0.0
C1620 C 0.87964 0.57478 0.46427 0.0
C1621 C 0.89613 0.56782 0.45637 0.0
C1622 C 0.86557 0.56163 0.4715 0.0
C1623 C 0.85859 0.51114 0.48715 0.0
H1624 H 0.80268 0.51838 0.48329 0.0
C1625 C 0.79953 0.46163 0.52072 0.0
C1626 C 0.78067 0.45605 0.5112 0.0
C1627 C 0.81354 0.47603 0.51487 0.0
C1628 C 0.8182 0.51598 0.48434 0.0
H1629 H 0.91063 0.54142 0.4499 0.0
H1630 H 0.88557 0.51838 0.4615 0.0
H1631 H 0.82696 0.54132 0.47063 0.0
H1632 H 0.76174 0.461 0.48798 0.0
H1633 H 0.78633 0.48542 0.4774 0.0
H1634 H 0.84969 0.48517 0.49999 0.0
C1635 C 0.88377 0.53411 0.46259 0.0
C1636 C 0.83221 0.52937 0.47731 0.0
C1637 C 0.89798 0.54731 0.45561 0.0
C1638 C 0.7761 0.46511 0.49572 0.0
C1639 C 0.79018 0.47925 0.48972 0.0
C1640 C 0.84455 0.49758 0.49395 0.0
C1641 C 0.86748 0.54112 0.47079 0.0
C1642 C 0.85258 0.52708 0.47856 0.0
C1643 C 0.80909 0.48493 0.49922 0.0
C1644 C 0.82415 0.49977 0.49256 0.0
H1645 H 0.87758 0.59043 0.4649 0.0
H1646 H 0.85337 0.56764 0.47788 0.0
H1647 H 0.87419 0.50909 0.48868 0.0
H1648 H 0.80342 0.455 0.53279 0.0
H1649 H 0.82781 0.48026 0.52272 0.0
C1650 C 0.76122 0.83744 0.78268 0.0
C1651 C 0.77214 0.83884 0.79958 0.0
C1652 C 0.74757 0.85077 0.77961 0.0
C1653 C 0.73784 0.90138 0.79595 0.0
H1654 H 0.6854 0.88525 0.77041 0.0
C1655 C 0.68132 0.95687 0.79281 0.0
C1656 C 0.67027 0.95711 0.77626 0.0
C1657 C 0.69255 0.94141 0.79534 0.0
C1658 C 0.70009 0.88999 0.77739 0.0
H1659 H 0.77704 0.8551 0.82658 0.0
H1660 H 0.7531 0.87816 0.82129 0.0
H1661 H 0.70719 0.85989 0.7755 0.0
H1662 H 0.66186 0.94101 0.74951 0.0
H1663 H 0.68188 0.91402 0.75383 0.0
H1664 H 0.73103 0.9314 0.79771 0.0
C1665 C 0.7552 0.86686 0.81037 0.0
C1666 C 0.71253 0.87549 0.78032 0.0
C1667 C 0.76876 0.85351 0.81346 0.0
C1668 C 0.67025 0.94122 0.76242 0.0
C1669 C 0.68164 0.92574 0.76492 0.0
C1670 C 0.7255 0.91583 0.79296 0.0
C1671 C 0.74468 0.86584 0.79335 0.0
C1672 C 0.73145 0.88104 0.78981 0.0
C1673 C 0.69318 0.92586 0.78133 0.0
C1674 C 0.70639 0.91032 0.78383 0.0
H1675 H 0.76338 0.82615 0.77178 0.0
H1676 H 0.73973 0.84967 0.76633 0.0
H1677 H 0.75251 0.90619 0.80293 0.0
H1678 H 0.68146 0.96875 0.80385 0.0
H1679 H 0.70086 0.94173 0.8083 0.0
C1680 C 0.64959 0.50686 0.95289 0.0
C1681 C 0.62982 0.51106 0.95254 0.0
C1682 C 0.66551 0.5222 0.95811 0.0
C1683 C 0.67741 0.57744 0.96201 0.0
H1684 H 0.72515 0.56881 0.99005 0.0
C1685 C 0.73901 0.64192 0.99192 0.0
C1686 C 0.75886 0.63864 0.98986 0.0
C1687 C 0.72331 0.62623 0.98744 0.0
C1688 C 0.71196 0.57137 0.98209 0.0
H1689 H 0.61104 0.53422 0.95823 0.0
H1690 H 0.63872 0.5609 0.9677 0.0
H1691 H 0.69757 0.54143 0.98274 0.0
H1692 H 0.77778 0.61632 0.98146 0.0
H1693 H 0.75033 0.58895 0.97369 0.0
H1694 H 0.69174 0.60744 0.96155 0.0
C1695 C 0.64204 0.54595 0.96344 0.0
C1696 C 0.69618 0.55569 0.97788 0.0
C1697 C 0.62619 0.53067 0.95809 0.0
C1698 C 0.76266 0.61936 0.98319 0.0
C1699 C 0.74697 0.60364 0.97885 0.0
C1700 C 0.69311 0.59313 0.96633 0.0
C1701 C 0.6619 0.54198 0.96321 0.0
C1702 C 0.67871 0.55856 0.9678 0.0
C1703 C 0.72716 0.60692 0.98096 0.0
C1704 C 0.71053 0.59024 0.9764 0.0
H1705 H 0.65275 0.49186 0.94856 0.0
H1706 H 0.68063 0.51867 0.95762 0.0
H1707 H 0.66435 0.58006 0.95391 0.0
H1708 H 0.73558 0.65659 0.99704 0.0
H1709 H 0.70818 0.62912 0.98933 0.0
C1710 C 0.25256 0.69284 0.22503 0.0
C1711 C 0.26572 0.70277 0.23957 0.0
C1712 C 0.24013 0.6752 0.22697 0.0
C1713 C 0.21871 0.64508 0.26124 0.0
H1714 H 0.21259 0.60165 0.22185 0.0
C1715 C 0.17993 0.56558 0.26828 0.0
C1716 C 0.16572 0.55684 0.25406 0.0
C1717 C 0.19278 0.58302 0.26651 0.0
C1718 C 0.21406 0.6137 0.23291 0.0
H1719 H 0.27554 0.70239 0.26776 0.0
H1720 H 0.25425 0.67137 0.27101 0.0
H1721 H 0.23304 0.63332 0.21886 0.0
H1722 H 0.15428 0.55923 0.22665 0.0
H1723 H 0.17671 0.58957 0.22359 0.0
H1724 H 0.19981 0.62535 0.27531 0.0
C1725 C 0.2534 0.67728 0.25814 0.0
C1726 C 0.2257 0.63187 0.23118 0.0
C1727 C 0.26578 0.69494 0.25622 0.0
C1728 C 0.16503 0.56558 0.23787 0.0
C1729 C 0.17795 0.58292 0.23608 0.0
C1730 C 0.20715 0.62688 0.263 0.0
C1731 C 0.24059 0.66707 0.24348 0.0
C1732 C 0.2281 0.6478 0.2453 0.0
C1733 C 0.19178 0.59197 0.25045 0.0
C1734 C 0.20465 0.61102 0.24883 0.0
H1735 H 0.25225 0.6984 0.212 0.0
H1736 H 0.2302 0.66788 0.21549 0.0
H1737 H 0.22002 0.65714 0.27228 0.0
H1738 H 0.18086 0.55921 0.28092 0.0
H1739 H 0.20346 0.58956 0.27773 0.0
C1740 C 0.88704 0.51271 0.07046 0.0
C1741 C 0.90681 0.50946 0.07467 0.0
C1742 C 0.88273 0.53186 0.06787 0.0
C1743 C 0.87601 0.5754 0.0701 0.0
H1744 H 0.91074 0.60495 0.04016 0.0
C1745 C 0.85535 0.64759 0.04441 0.0
C1746 C 0.85628 0.6476 0.02567 0.0
C1747 C 0.86482 0.63399 0.05352 0.0
C1748 C 0.90093 0.59694 0.0486 0.0
H1749 H 0.93752 0.52392 0.07984 0.0
H1750 H 0.92992 0.55741 0.07569 0.0
H1751 H 0.91991 0.57422 0.05038 0.0
H1752 H 0.86902 0.63438 0.00205 0.0
H1753 H 0.88535 0.61072 0.01782 0.0
H1754 H 0.85648 0.5975 0.06747 0.0
C1755 C 0.91778 0.54509 0.07419 0.0
C1756 C 0.90629 0.57941 0.05462 0.0
C1757 C 0.9221 0.52593 0.07677 0.0
C1758 C 0.86796 0.63472 0.01648 0.0
C1759 C 0.87744 0.6212 0.02557 0.0
C1760 C 0.87064 0.59291 0.06406 0.0
C1761 C 0.89808 0.54823 0.06946 0.0
C1762 C 0.89363 0.56815 0.06505 0.0
C1763 C 0.87547 0.62023 0.04407 0.0
C1764 C 0.88279 0.60359 0.05284 0.0
H1765 H 0.8749 0.50039 0.06893 0.0
H1766 H 0.86741 0.53367 0.06402 0.0
H1767 H 0.86608 0.56725 0.07836 0.0
H1768 H 0.8465 0.65737 0.05188 0.0
H1769 H 0.86327 0.6338 0.06784 0.0
C1770 C 0.13665 0.08778 0.08972 0.0
C1771 C 0.11708 0.08397 0.09491 0.0
C1772 C 0.14751 0.07194 0.08534 0.0
C1773 C 0.14899 0.01787 0.0889 0.0
H1774 H 0.17592 0.01949 0.0448 0.0
C1775 C 0.19705 0.95759 0.06099 0.0
C1776 C 0.19524 0.95248 0.04212 0.0
C1777 C 0.1874 0.97306 0.06889 0.0
C1778 C 0.16838 0.01876 0.0571 0.0
H1779 H 0.09363 0.06053 0.09964 0.0
H1780 H 0.11254 0.03304 0.09204 0.0
H1781 H 0.16034 0.04816 0.05646 0.0
H1782 H 0.18084 0.9586 0.01689 0.0
H1783 H 0.16386 0.98522 0.03066 0.0
H1784 H 0.15665 0.98814 0.08919 0.0
C1785 C 0.11965 0.04824 0.09167 0.0
C1786 C 0.1597 0.03532 0.06392 0.0
C1787 C 0.10881 0.06404 0.09602 0.0
C1788 C 0.18272 0.96232 0.03145 0.0
C1789 C 0.1731 0.97769 0.03932 0.0
C1790 C 0.15775 0.00127 0.08208 0.0
C1791 C 0.13901 0.05197 0.08603 0.0
C1792 C 0.14968 0.03498 0.07977 0.0
C1793 C 0.1758 0.98364 0.05805 0.0
C1794 C 0.16726 0.00144 0.06594 0.0
H1795 H 0.14351 0.10298 0.08895 0.0
H1796 H 0.16251 0.07531 0.08126 0.0
H1797 H 0.14153 0.01724 0.10124 0.0
H1798 H 0.20664 0.95031 0.06955 0.0
H1799 H 0.18975 0.97732 0.08337 0.0
loop_
_geom_bond_atom_site_label_1
_geom_bond_atom_site_label_2
_geom_bond_distance
_geom_bond_site_symmetry_2
_ccdc_geom_bond_type
H0 C5 0.930 . S
H1 C8 0.930 . S
H2 C10 0.930 . S
H3 C4 1.016 . S
C4 H3 1.016 . S
C4 N11 1.286 . S
C5 H0 0.930 . S
C5 C6 1.397 . S
C5 C7 1.361 . S
C6 C5 1.397 . S
C6 C10 1.390 . S
C7 C5 1.361 . S
C7 C8 1.393 . S
C7 N11 1.413 . S
C8 H1 0.930 . S
C8 C7 1.393 . S
C8 C9 1.399 . S
C9 C8 1.399 . S
C9 C10 1.381 . S
C10 H2 0.930 . S
C10 C6 1.390 . S
C10 C9 1.381 . S
N11 C4 1.286 . S
N11 C7 1.413 . S
H12 C17 0.930 . S
H13 C20 0.930 . S
H14 C22 0.930 . S
H15 C16 1.016 . S
C16 H15 1.016 . S
C16 N23 1.286 . S
C17 H12 0.930 . S
C17 C18 1.397 . S
C17 C19 1.361 . S
C18 C17 1.397 . S
C18 C22 1.390 . S
C19 C17 1.361 . S
C19 C20 1.393 . S
C19 N23 1.413 . S
C20 H13 0.930 . S
C20 C19 1.393 . S
C20 C21 1.399 . S
C21 C20 1.399 . S
C21 C22 1.381 . S
C22 H14 0.930 . S
C22 C18 1.390 . S
C22 C21 1.381 . S
N23 C16 1.286 . S
N23 C19 1.413 . S
H24 C29 0.930 . S
H25 C32 0.930 . S
H26 C34 0.930 . S
H27 C28 1.016 . S
C28 H27 1.016 . S
C28 N35 1.286 . S
C29 H24 0.930 . S
C29 C30 1.397 . S
C29 C31 1.361 . S
C30 C29 1.397 . S
C30 C34 1.390 . S
C31 C29 1.361 . S
C31 C32 1.393 . S
C31 N35 1.413 . S
C32 H25 0.930 . S
C32 C31 1.393 . S
C32 C33 1.399 . S
C33 C32 1.399 . S
C33 C34 1.381 . S
C34 H26 0.930 . S
C34 C30 1.390 . S
C34 C33 1.381 . S
N35 C28 1.286 . S
N35 C31 1.413 . S
H36 C41 0.930 . S
H37 C44 0.930 . S
H38 C46 0.930 . S
H39 C40 1.016 . S
C40 H39 1.016 . S
C40 N47 1.286 . S
C41 H36 0.930 . S
C41 C42 1.397 . S
C41 C43 1.361 . S
C42 C41 1.397 . S
C42 C46 1.390 . S
C43 C41 1.361 . S
C43 C44 1.393 . S
C43 N47 1.413 . S
C44 H37 0.930 . S
C44 C43 1.393 . S
C44 C45 1.399 . S
C45 C44 1.399 . S
C45 C46 1.381 . S
C46 H38 0.930 . S
C46 C42 1.390 . S
C46 C45 1.381 . S
N47 C40 1.286 . S
N47 C43 1.413 . S
H48 C53 0.930 . S
H49 C56 0.930 . S
H50 C58 0.930 . S
H51 C52 1.016 . S
C52 H51 1.016 . S
C52 N59 1.286 . S
C53 H48 0.930 . S
C53 C54 1.397 . S
C53 C55 1.361 . S
C54 C53 1.397 . S
C54 C58 1.390 . S
C55 C53 1.361 . S
C55 C56 1.393 . S
C55 N59 1.413 . S
C56 H49 0.930 . S
C56 C55 1.393 . S
C56 C57 1.399 . S
C57 C56 1.399 . S
C57 C58 1.381 . S
C58 H50 0.930 . S
C58 C54 1.390 . S
C58 C57 1.381 . S
N59 C52 1.286 . S
N59 C55 1.413 . S
H60 C65 0.930 . S
H61 C68 0.930 . S
H62 C70 0.930 . S
H63 C64 1.016 . S
C64 H63 1.016 . S
C64 N71 1.286 . S
C65 H60 0.930 . S
C65 C66 1.397 . S
C65 C67 1.361 . S
C66 C65 1.397 . S
C66 C70 1.390 . S
C67 C65 1.361 . S
C67 C68 1.393 . S
C67 N71 1.413 . S
C68 H61 0.930 . S
C68 C67 1.393 . S
C68 C69 1.399 . S
C69 C68 1.399 . S
C69 C70 1.381 . S
C70 H62 0.930 . S
C70 C66 1.390 . S
C70 C69 1.381 . S
N71 C64 1.286 . S
N71 C67 1.413 . S
H72 C77 0.930 . S
H73 C80 0.930 . S
H74 C82 0.930 . S
H75 C76 1.016 . S
C76 H75 1.016 . S
C76 N83 1.286 . S
C77 H72 0.930 . S
C77 C78 1.397 . S
C77 C79 1.361 . S
C78 C77 1.397 . S
C78 C82 1.390 . S
C79 C77 1.361 . S
C79 C80 1.393 . S
C79 N83 1.413 . S
C80 H73 0.930 . S
C80 C79 1.393 . S
C80 C81 1.399 . S
C81 C80 1.399 . S
C81 C82 1.381 . S
C82 H74 0.930 . S
C82 C78 1.390 . S
C82 C81 1.381 . S
N83 C76 1.286 . S
N83 C79 1.413 . S
H84 C89 0.930 . S
H85 C92 0.930 . S
H86 C94 0.930 . S
H87 C88 1.016 . S
C88 H87 1.016 . S
C88 N95 1.286 . S
C89 H84 0.930 . S
C89 C90 1.397 . S
C89 C91 1.361 . S
C90 C89 1.397 . S
C90 C94 1.390 . S
C91 C89 1.361 . S
C91 C92 1.393 . S
C91 N95 1.413 . S
C92 H85 0.930 . S
C92 C91 1.393 . S
C92 C93 1.399 . S
C93 C92 1.399 . S
C93 C94 1.381 . S
C94 H86 0.930 . S
C94 C90 1.390 . S
C94 C93 1.381 . S
N95 C88 1.286 . S
N95 C91 1.413 . S
H96 C101 0.930 . S
H97 C104 0.930 . S
H98 C106 0.930 . S
H99 C100 1.016 . S
C100 H99 1.016 . S
C100 N107 1.286 . S
C101 H96 0.930 . S
C101 C102 1.397 . S
C101 C103 1.361 . S
C102 C101 1.397 . S
C102 C106 1.390 . S
C103 C101 1.361 . S
C103 C104 1.393 . S
C103 N107 1.413 . S
C104 H97 0.930 . S
C104 C103 1.393 . S
C104 C105 1.399 . S
C105 C104 1.399 . S
C105 C106 1.381 . S
C106 H98 0.930 . S
C106 C102 1.390 . S
C106 C105 1.381 . S
N107 C100 1.286 . S
N107 C103 1.413 . S
H108 C113 0.930 . S
H109 C116 0.930 . S
H110 C118 0.930 . S
H111 C112 1.016 . S
C112 H111 1.016 . S
C112 N119 1.286 . S
C113 H108 0.930 . S
C113 C114 1.397 . S
C113 C115 1.361 . S
C114 C113 1.397 . S
C114 C118 1.390 . S
C115 C113 1.361 . S
C115 C116 1.393 . S
C115 N119 1.413 . S
C116 H109 0.930 . S
C116 C115 1.393 . S
C116 C117 1.399 . S
C117 C116 1.399 . S
C117 C118 1.381 . S
C118 H110 0.930 . S
C118 C114 1.390 . S
C118 C117 1.381 . S
N119 C112 1.286 . S
N119 C115 1.413 . S
H120 C125 0.930 . S
H121 C128 0.930 . S
H122 C130 0.930 . S
H123 C124 1.016 . S
C124 H123 1.016 . S
C124 N131 1.286 . S
C125 H120 0.930 . S
C125 C126 1.397 . S
C125 C127 1.361 . S
C126 C125 1.397 . S
C126 C130 1.390 . S
C127 C125 1.361 . S
C127 C128 1.393 . S
C127 N131 1.413 . S
C128 H121 0.930 . S
C128 C127 1.393 . S
C128 C129 1.399 . S
C129 C128 1.399 . S
C129 C130 1.381 . S
C130 H122 0.930 . S
C130 C126 1.390 . S
C130 C129 1.381 . S
N131 C124 1.286 . S
N131 C127 1.413 . S
H132 C137 0.930 . S
H133 C140 0.930 . S
H134 C142 0.930 . S
H135 C136 1.016 . S
C136 H135 1.016 . S
C136 N143 1.286 . S
C137 H132 0.930 . S
C137 C138 1.397 . S
C137 C139 1.361 . S
C138 C137 1.397 . S
C138 C142 1.390 . S
C139 C137 1.361 . S
C139 C140 1.393 . S
C139 N143 1.413 . S
C140 H133 0.930 . S
C140 C139 1.393 . S
C140 C141 1.399 . S
C141 C140 1.399 . S
C141 C142 1.381 . S
C142 H134 0.930 . S
C142 C138 1.390 . S
C142 C141 1.381 . S
N143 C136 1.286 . S
N143 C139 1.413 . S
H144 C149 0.930 . S
H145 C152 0.930 . S
H146 C154 0.930 . S
H147 C148 1.016 . S
C148 H147 1.016 . S
C148 N155 1.286 . S
C149 H144 0.930 . S
C149 C150 1.397 . S
C149 C151 1.361 . S
C150 C149 1.397 . S
C150 C154 1.390 . S
C151 C149 1.361 . S
C151 C152 1.393 . S
C151 N155 1.413 . S
C152 H145 0.930 . S
C152 C151 1.393 . S
C152 C153 1.399 . S
C153 C152 1.399 . S
C153 C154 1.381 . S
C154 H146 0.930 . S
C154 C150 1.390 . S
C154 C153 1.381 . S
N155 C148 1.286 . S
N155 C151 1.413 . S
H156 C161 0.930 . S
H157 C164 0.930 . S
H158 C166 0.930 . S
H159 C160 1.016 . S
C160 H159 1.016 . S
C160 N167 1.286 . S
C161 H156 0.930 . S
C161 C162 1.397 . S
C161 C163 1.361 . S
C162 C161 1.397 . S
C162 C166 1.390 . S
C163 C161 1.361 . S
C163 C164 1.393 . S
C163 N167 1.413 . S
C164 H157 0.930 . S
C164 C163 1.393 . S
C164 C165 1.399 . S
C165 C164 1.399 . S
C165 C166 1.381 . S
C166 H158 0.930 . S
C166 C162 1.390 . S
C166 C165 1.381 . S
N167 C160 1.286 . S
N167 C163 1.413 . S
H168 C173 0.930 . S
H169 C176 0.930 . S
H170 C178 0.930 . S
H171 C172 1.016 . S
C172 H171 1.016 . S
C172 N179 1.286 . S
C173 H168 0.930 . S
C173 C174 1.397 . S
C173 C175 1.361 . S
C174 C173 1.397 . S
C174 C178 1.390 . S
C175 C173 1.361 . S
C175 C176 1.393 . S
C175 N179 1.413 . S
C176 H169 0.930 . S
C176 C175 1.393 . S
C176 C177 1.399 . S
C177 C176 1.399 . S
C177 C178 1.381 . S
C178 H170 0.930 . S
C178 C174 1.390 . S
C178 C177 1.381 . S
N179 C172 1.286 . S
N179 C175 1.413 . S
H180 C185 0.930 . S
H181 C188 0.930 . S
H182 C190 0.930 . S
H183 C184 1.016 . S
C184 H183 1.016 . S
C184 N191 1.286 . S
C185 H180 0.930 . S
C185 C186 1.397 . S
C185 C187 1.361 . S
C186 C185 1.397 . S
C186 C190 1.390 . S
C187 C185 1.361 . S
C187 C188 1.393 . S
C187 N191 1.413 . S
C188 H181 0.930 . S
C188 C187 1.393 . S
C188 C189 1.399 . S
C189 C188 1.399 . S
C189 C190 1.381 . S
C190 H182 0.930 . S
C190 C186 1.390 . S
C190 C189 1.381 . S
N191 C184 1.286 . S
N191 C187 1.413 . S
O192 Cd193 2.223 . S
O192 C200 1.315 . S
Cd193 O192 2.223 . S
Cd193 O196 2.297 . S
Cd193 O197 2.439 . S
Cd193 O203 2.240 . S
Cd194 O195 2.240 . S
Cd194 O202 2.223 . S
Cd194 O204 2.297 . S
Cd194 O205 2.439 . S
O195 Cd194 2.240 . S
O195 C200 1.279 . S
O196 Cd193 2.297 . S
O196 C198 1.247 . S
O197 Cd193 2.439 . S
O197 C198 1.208 . S
C198 O196 1.247 . S
C198 O197 1.208 . S
C199 O204 1.247 . S
C199 O205 1.208 . S
C200 O192 1.315 . S
C200 O195 1.279 . S
C201 O202 1.315 . S
C201 O203 1.279 . S
O202 Cd194 2.223 . S
O202 C201 1.315 . S
O203 Cd193 2.240 . S
O203 C201 1.279 . S
O204 Cd194 2.297 . S
O204 C199 1.247 . S
O205 Cd194 2.439 . S
O205 C199 1.208 . S
O206 Cd207 2.223 . S
O206 C214 1.315 . S
Cd207 O206 2.223 . S
Cd207 O210 2.297 . S
Cd207 O211 2.439 . S
Cd207 O217 2.240 . S
Cd208 O209 2.240 . S
Cd208 O216 2.223 . S
Cd208 O218 2.297 . S
Cd208 O219 2.439 . S
O209 Cd208 2.240 . S
O209 C214 1.279 . S
O210 Cd207 2.297 . S
O210 C212 1.247 . S
O211 Cd207 2.439 . S
O211 C212 1.208 . S
C212 O210 1.247 . S
C212 O211 1.208 . S
C213 O218 1.247 . S
C213 O219 1.208 . S
C214 O206 1.315 . S
C214 O209 1.279 . S
C215 O216 1.315 . S
C215 O217 1.279 . S
O216 Cd208 2.223 . S
O216 C215 1.315 . S
O217 Cd207 2.240 . S
O217 C215 1.279 . S
O218 Cd208 2.297 . S
O218 C213 1.247 . S
O219 Cd208 2.439 . S
O219 C213 1.208 . S
O220 Cd221 2.223 1_556 S
O220 C228 1.315 . S
Cd221 O220 2.223 1_554 S
Cd221 O224 2.297 . S
Cd221 O225 2.439 . S
Cd221 O231 2.240 . S
Cd222 O223 2.240 . S
Cd222 O230 2.223 . S
Cd222 O232 2.297 1_556 S
Cd222 O233 2.439 1_556 S
O223 Cd222 2.240 . S
O223 C228 1.279 . S
O224 Cd221 2.297 . S
O224 C226 1.247 . S
O225 Cd221 2.439 . S
O225 C226 1.208 . S
C226 O224 1.247 . S
C226 O225 1.208 . S
C227 O232 1.247 . S
C227 O233 1.208 . S
C228 O220 1.315 . S
C228 O223 1.279 . S
C229 O230 1.315 . S
C229 O231 1.279 1_556 S
O230 Cd222 2.223 . S
O230 C229 1.315 . S
O231 Cd221 2.240 . S
O231 C229 1.279 1_554 S
O232 Cd222 2.297 1_554 S
O232 C227 1.247 . S
O233 Cd222 2.439 1_554 S
O233 C227 1.208 . S
O234 Cd235 2.223 . S
O234 C242 1.315 . S
Cd235 O234 2.223 . S
Cd235 O238 2.297 . S
Cd235 O239 2.439 . S
Cd235 O245 2.240 . S
Cd236 O237 2.240 . S
Cd236 O244 2.223 . S
Cd236 O246 2.297 . S
Cd236 O247 2.439 . S
O237 Cd236 2.240 . S
O237 C242 1.279 . S
O238 Cd235 2.297 . S
O238 C240 1.247 . S
O239 Cd235 2.439 . S
O239 C240 1.208 . S
C240 O238 1.247 . S
C240 O239 1.208 . S
C241 O246 1.247 . S
C241 O247 1.208 . S
C242 O234 1.315 . S
C242 O237 1.279 . S
C243 O244 1.315 . S
C243 O245 1.279 . S
O244 Cd236 2.223 . S
O244 C243 1.315 . S
O245 Cd235 2.240 . S
O245 C243 1.279 . S
O246 Cd236 2.297 . S
O246 C241 1.247 . S
O247 Cd236 2.439 . S
O247 C241 1.208 . S
O248 Cd249 2.223 . S
O248 C256 1.315 . S
Cd249 O248 2.223 . S
Cd249 O252 2.297 . S
Cd249 O253 2.439 . S
Cd249 O259 2.240 . S
Cd250 O251 2.240 . S
Cd250 O258 2.223 . S
Cd250 O260 2.297 . S
Cd250 O261 2.439 . S
O251 Cd250 2.240 . S
O251 C256 1.279 . S
O252 Cd249 2.297 . S
O252 C254 1.247 . S
O253 Cd249 2.439 . S
O253 C254 1.208 . S
C254 O252 1.247 . S
C254 O253 1.208 . S
C255 O260 1.247 . S
C255 O261 1.208 . S
C256 O248 1.315 . S
C256 O251 1.279 . S
C257 O258 1.315 . S
C257 O259 1.279 . S
O258 Cd250 2.223 . S
O258 C257 1.315 . S
O259 Cd249 2.240 . S
O259 C257 1.279 . S
O260 Cd250 2.297 . S
O260 C255 1.247 . S
O261 Cd250 2.439 . S
O261 C255 1.208 . S
O262 Cd263 2.223 . S
O262 C270 1.315 . S
Cd263 O262 2.223 . S
Cd263 O266 2.297 . S
Cd263 O267 2.439 . S
Cd263 O273 2.240 . S
Cd264 O265 2.240 . S
Cd264 O272 2.223 . S
Cd264 O274 2.297 . S
Cd264 O275 2.439 . S
O265 Cd264 2.240 . S
O265 C270 1.279 . S
O266 Cd263 2.297 . S
O266 C268 1.247 . S
O267 Cd263 2.439 . S
O267 C268 1.208 . S
C268 O266 1.247 . S
C268 O267 1.208 . S
C269 O274 1.247 . S
C269 O275 1.208 . S
C270 O262 1.315 . S
C270 O265 1.279 . S
C271 O272 1.315 . S
C271 O273 1.279 . S
O272 Cd264 2.223 . S
O272 C271 1.315 . S
O273 Cd263 2.240 . S
O273 C271 1.279 . S
O274 Cd264 2.297 . S
O274 C269 1.247 . S
O275 Cd264 2.439 . S
O275 C269 1.208 . S
O276 Cd277 2.223 . S
O276 C284 1.315 . S
Cd277 O276 2.223 . S
Cd277 O280 2.297 . S
Cd277 O281 2.439 . S
Cd277 O287 2.240 . S
Cd278 O279 2.240 . S
Cd278 O286 2.223 . S
Cd278 O288 2.297 . S
Cd278 O289 2.439 . S
O279 Cd278 2.240 . S
O279 C284 1.279 . S
O280 Cd277 2.297 . S
O280 C282 1.247 . S
O281 Cd277 2.439 . S
O281 C282 1.208 . S
C282 O280 1.247 . S
C282 O281 1.208 . S
C283 O288 1.247 . S
C283 O289 1.208 . S
C284 O276 1.315 . S
C284 O279 1.279 . S
C285 O286 1.315 . S
C285 O287 1.279 . S
O286 Cd278 2.223 . S
O286 C285 1.315 . S
O287 Cd277 2.240 . S
O287 C285 1.279 . S
O288 Cd278 2.297 . S
O288 C283 1.247 . S
O289 Cd278 2.439 . S
O289 C283 1.208 . S
O290 Cd291 2.223 1_545 S
O290 C298 1.315 . S
Cd291 O290 2.223 1_565 S
Cd291 O294 2.297 . S
Cd291 O295 2.439 . S
Cd291 O301 2.240 1_565 S
Cd292 O293 2.240 . S
Cd292 O300 2.223 . S
Cd292 O302 2.297 . S
Cd292 O303 2.439 1_545 S
O293 Cd292 2.240 . S
O293 C298 1.279 . S
O294 Cd291 2.297 . S
O294 C296 1.247 . S
O295 Cd291 2.439 . S
O295 C296 1.208 . S
C296 O294 1.247 . S
C296 O295 1.208 . S
C297 O302 1.247 1_565 S
C297 O303 1.208 . S
C298 O290 1.315 . S
C298 O293 1.279 . S
C299 O300 1.315 . S
C299 O301 1.279 . S
O300 Cd292 2.223 . S
O300 C299 1.315 . S
O301 Cd291 2.240 1_545 S
O301 C299 1.279 . S
O302 Cd292 2.297 . S
O302 C297 1.247 1_545 S
O303 Cd292 2.439 1_565 S
O303 C297 1.208 . S
O304 Cd305 2.223 . S
O304 C312 1.315 . S
Cd305 O304 2.223 . S
Cd305 O308 2.297 1_655 S
Cd305 O309 2.439 1_655 S
Cd305 O315 2.240 . S
Cd306 O307 2.240 . S
Cd306 O314 2.223 1_455 S
Cd306 O316 2.297 . S
Cd306 O317 2.439 . S
O307 Cd306 2.240 . S
O307 C312 1.279 1_455 S
O308 Cd305 2.297 1_455 S
O308 C310 1.247 . S
O309 Cd305 2.439 1_455 S
O309 C310 1.208 . S
C310 O308 1.247 . S
C310 O309 1.208 . S
C311 O316 1.247 . S
C311 O317 1.208 . S
C312 O304 1.315 . S
C312 O307 1.279 1_655 S
C313 O314 1.315 . S
C313 O315 1.279 . S
O314 Cd306 2.223 1_655 S
O314 C313 1.315 . S
O315 Cd305 2.240 . S
O315 C313 1.279 . S
O316 Cd306 2.297 . S
O316 C311 1.247 . S
O317 Cd306 2.439 . S
O317 C311 1.208 . S
O318 Cd319 2.223 . S
O318 C326 1.315 . S
Cd319 O318 2.223 . S
Cd319 O322 2.297 . S
Cd319 O323 2.439 . S
Cd319 O329 2.240 . S
Cd320 O321 2.240 . S
Cd320 O328 2.223 . S
Cd320 O330 2.297 . S
Cd320 O331 2.439 . S
O321 Cd320 2.240 . S
O321 C326 1.279 . S
O322 Cd319 2.297 . S
O322 C324 1.247 . S
O323 Cd319 2.439 . S
O323 C324 1.208 . S
C324 O322 1.247 . S
C324 O323 1.208 . S
C325 O330 1.247 . S
C325 O331 1.208 . S
C326 O318 1.315 . S
C326 O321 1.279 . S
C327 O328 1.315 . S
C327 O329 1.279 . S
O328 Cd320 2.223 . S
O328 C327 1.315 . S
O329 Cd319 2.240 . S
O329 C327 1.279 . S
O330 Cd320 2.297 . S
O330 C325 1.247 . S
O331 Cd320 2.439 . S
O331 C325 1.208 . S
O332 Cd333 2.223 . S
O332 C340 1.315 1_455 S
Cd333 O332 2.223 . S
Cd333 O336 2.297 . S
Cd333 O337 2.439 . S
Cd333 O343 2.240 . S
Cd334 O335 2.240 . S
Cd334 O342 2.223 1_455 S
Cd334 O344 2.297 . S
Cd334 O345 2.439 . S
O335 Cd334 2.240 . S
O335 C340 1.279 1_455 S
O336 Cd333 2.297 . S
O336 C338 1.247 . S
O337 Cd333 2.439 . S
O337 C338 1.208 . S
C338 O336 1.247 . S
C338 O337 1.208 . S
C339 O344 1.247 . S
C339 O345 1.208 . S
C340 O332 1.315 1_655 S
C340 O335 1.279 1_655 S
C341 O342 1.315 1_455 S
C341 O343 1.279 . S
O342 Cd334 2.223 1_655 S
O342 C341 1.315 1_655 S
O343 Cd333 2.240 . S
O343 C341 1.279 . S
O344 Cd334 2.297 . S
O344 C339 1.247 . S
O345 Cd334 2.439 . S
O345 C339 1.208 . S
O346 Cd347 2.223 . S
O346 C354 1.315 . S
Cd347 O346 2.223 . S
Cd347 O350 2.297 . S
Cd347 O351 2.439 . S
Cd347 O357 2.240 . S
Cd348 O349 2.240 . S
Cd348 O356 2.223 . S
Cd348 O358 2.297 . S
Cd348 O359 2.439 . S
O349 Cd348 2.240 . S
O349 C354 1.279 . S
O350 Cd347 2.297 . S
O350 C352 1.247 . S
O351 Cd347 2.439 . S
O351 C352 1.208 . S
C352 O350 1.247 . S
C352 O351 1.208 . S
C353 O358 1.247 . S
C353 O359 1.208 . S
C354 O346 1.315 . S
C354 O349 1.279 . S
C355 O356 1.315 . S
C355 O357 1.279 . S
O356 Cd348 2.223 . S
O356 C355 1.315 . S
O357 Cd347 2.240 . S
O357 C355 1.279 . S
O358 Cd348 2.297 . S
O358 C353 1.247 . S
O359 Cd348 2.439 . S
O359 C353 1.208 . S
C360 C361 1.349 . S
C360 C362 1.327 . S
C360 H385 0.950 . S
C361 C360 1.349 . S
C361 C377 1.349 . S
C362 C360 1.327 . S
C362 C381 1.429 . S
C362 H386 0.950 . S
C363 C380 1.574 . S
C363 C382 1.368 . S
C363 H387 0.949 . S
H364 C368 0.949 . S
C365 C366 1.349 . S
C365 C367 1.327 1_554 S
C365 H388 0.950 . S
C366 C365 1.349 . S
C366 C378 1.349 1_554 S
C367 C365 1.327 1_556 S
C367 C383 1.429 . S
C367 H389 0.950 . S
C368 H364 0.949 . S
C368 C376 1.574 . S
C368 C384 1.368 . S
H369 C377 0.950 . S
H370 C375 0.950 . S
H371 C376 0.949 . S
H372 C378 0.950 . S
H373 C379 0.950 . S
H374 C380 0.949 . S
C375 H370 0.950 . S
C375 C377 1.327 . S
C375 C381 1.429 . S
C376 C368 1.574 . S
C376 H371 0.949 . S
C376 C382 1.368 . S
C377 C361 1.349 . S
C377 H369 0.950 . S
C377 C375 1.327 . S
C378 C366 1.349 1_556 S
C378 H372 0.950 . S
C378 C379 1.327 . S
C379 H373 0.950 . S
C379 C378 1.327 . S
C379 C383 1.429 . S
C380 C363 1.574 . S
C380 H374 0.949 . S
C380 C384 1.368 . S
C381 C362 1.429 . S
C381 C375 1.429 . S
C381 C382 1.523 . S
C382 C363 1.368 . S
C382 C376 1.368 . S
C382 C381 1.523 . S
C383 C367 1.429 . S
C383 C379 1.429 . S
C383 C384 1.523 . S
C384 C368 1.368 . S
C384 C380 1.368 . S
C384 C383 1.523 . S
H385 C360 0.950 . S
H386 C362 0.950 . S
H387 C363 0.949 . S
H388 C365 0.950 . S
H389 C367 0.950 . S
C390 C391 1.349 . S
C390 C392 1.327 . S
C390 H415 0.950 . S
C391 C390 1.349 . S
C391 C407 1.349 . S
C392 C390 1.327 . S
C392 C411 1.429 . S
C392 H416 0.950 . S
C393 C410 1.574 . S
C393 C412 1.368 . S
C393 H417 0.972 . S
H394 C398 0.949 . S
C395 C396 1.349 . S
C395 C397 1.327 . S
C395 H418 0.950 . S
C396 C395 1.349 . S
C396 C408 1.349 . S
C397 C395 1.327 . S
C397 C413 1.429 . S
C397 H419 0.950 . S
C398 H394 0.949 . S
C398 C406 1.574 . S
C398 C414 1.368 . S
H399 C407 0.950 . S
H400 C405 0.950 . S
H401 C406 0.949 . S
H402 C408 0.950 . S
H403 C409 0.950 . S
H404 C410 0.949 . S
C405 H400 0.950 . S
C405 C407 1.327 . S
C405 C411 1.429 . S
C406 C398 1.574 . S
C406 H401 0.949 . S
C406 C412 1.368 . S
C407 C391 1.349 . S
C407 H399 0.950 . S
C407 C405 1.327 . S
C408 C396 1.349 . S
C408 H402 0.950 . S
C408 C409 1.327 . S
C409 H403 0.950 . S
C409 C408 1.327 . S
C409 C413 1.429 . S
C410 C393 1.574 . S
C410 H404 0.949 . S
C410 C414 1.368 . S
C411 C392 1.429 . S
C411 C405 1.429 . S
C411 C412 1.523 1_655 S
C412 C393 1.368 . S
C412 C406 1.368 . S
C412 C411 1.523 1_455 S
C413 C397 1.429 . S
C413 C409 1.429 . S
C413 C414 1.523 . S
C414 C398 1.368 . S
C414 C410 1.368 . S
C414 C413 1.523 . S
H415 C390 0.950 . S
H416 C392 0.950 . S
H417 C393 0.972 . S
H418 C395 0.950 . S
H419 C397 0.950 . S
C420 C421 1.349 . S
C420 C422 1.327 . S
C420 H445 0.950 . S
C421 C420 1.349 . S
C421 C437 1.349 . S
C422 C420 1.327 . S
C422 C441 1.429 . S
C422 H446 0.950 . S
C423 C440 1.574 . S
C423 C442 1.368 . S
C423 H447 0.949 . S
H424 C428 0.949 . S
C425 C426 1.349 . S
C425 C427 1.327 . S
C425 H448 0.950 . S
C426 C425 1.349 . S
C426 C438 1.349 . S
C427 C425 1.327 . S
C427 C443 1.429 . S
C427 H449 0.950 . S
C428 H424 0.949 . S
C428 C436 1.574 . S
C428 C444 1.368 . S
H429 C437 0.950 . S
H430 C435 0.950 . S
H431 C436 0.949 . S
H432 C438 0.950 . S
H433 C439 0.950 . S
H434 C440 0.949 . S
C435 H430 0.950 . S
C435 C437 1.327 . S
C435 C441 1.429 . S
C436 C428 1.574 . S
C436 H431 0.949 . S
C436 C442 1.368 . S
C437 C421 1.349 . S
C437 H429 0.950 . S
C437 C435 1.327 . S
C438 C426 1.349 . S
C438 H432 0.950 . S
C438 C439 1.327 . S
C439 H433 0.950 . S
C439 C438 1.327 . S
C439 C443 1.429 . S
C440 C423 1.574 . S
C440 H434 0.949 . S
C440 C444 1.368 . S
C441 C422 1.429 . S
C441 C435 1.429 . S
C441 C442 1.523 . S
C442 C423 1.368 . S
C442 C436 1.368 . S
C442 C441 1.523 . S
C443 C427 1.429 . S
C443 C439 1.429 . S
C443 C444 1.523 . S
C444 C428 1.368 . S
C444 C440 1.368 . S
C444 C443 1.523 . S
H445 C420 0.950 . S
H446 C422 0.950 . S
H447 C423 0.949 . S
H448 C425 0.950 . S
H449 C427 0.950 . S
C450 C451 1.349 . S
C450 C452 1.327 . S
C450 H475 0.950 . S
C451 C450 1.349 . S
C451 C467 1.349 . S
C452 C450 1.327 . S
C452 C471 1.429 . S
C452 H476 0.950 . S
C453 C470 1.574 . S
C453 C472 1.368 . S
C453 H477 0.949 . S
H454 C458 0.947 1_665 S
C455 C456 1.349 . S
C455 C457 1.327 1_655 S
C455 H478 0.950 . S
C456 C455 1.349 . S
C456 C468 1.349 . S
C457 C455 1.327 1_455 S
C457 C473 1.429 . S
C457 H479 0.950 . S
C458 H454 0.947 1_445 S
C458 C466 1.574 1_545 S
C458 C474 1.368 . S
H459 C467 0.950 1_545 S
H460 C465 0.950 . S
H461 C466 0.949 . S
H462 C468 0.950 . S
H463 C469 0.950 . S
H464 C470 0.949 . S
C465 H460 0.950 . S
C465 C467 1.327 1_545 S
C465 C471 1.429 1_545 S
C466 C458 1.574 1_565 S
C466 H461 0.949 . S
C466 C472 1.368 1_565 S
C467 C451 1.349 . S
C467 H459 0.950 1_565 S
C467 C465 1.327 1_565 S
C468 C456 1.349 . S
C468 H462 0.950 . S
C468 C469 1.327 . S
C469 H463 0.950 . S
C469 C468 1.327 . S
C469 C473 1.429 1_655 S
C470 C453 1.574 . S
C470 H464 0.949 . S
C470 C474 1.368 . S
C471 C452 1.429 . S
C471 C465 1.429 1_565 S
C471 C472 1.523 1_565 S
C472 C453 1.368 . S
C472 C466 1.368 1_545 S
C472 C471 1.523 1_545 S
C473 C457 1.429 . S
C473 C469 1.429 1_455 S
C473 C474 1.523 . S
C474 C458 1.368 . S
C474 C470 1.368 . S
C474 C473 1.523 . S
H475 C450 0.950 . S
H476 C452 0.950 . S
H477 C453 0.949 . S
H478 C455 0.950 . S
H479 C457 0.950 . S
C480 C481 1.349 . S
C480 C482 1.327 . S
C480 H505 0.950 . S
C481 C480 1.349 . S
C481 C497 1.349 . S
C482 C480 1.327 . S
C482 C501 1.429 . S
C482 H506 0.950 . S
C483 C500 1.574 . S
C483 C502 1.368 . S
C483 H507 0.949 . S
H484 C488 0.949 . S
C485 C486 1.349 . S
C485 C487 1.327 . S
C485 H508 0.950 . S
C486 C485 1.349 . S
C486 C498 1.349 . S
C487 C485 1.327 . S
C487 C503 1.429 . S
C487 H509 0.950 . S
C488 H484 0.949 . S
C488 C496 1.574 . S
C488 C504 1.368 . S
H489 C497 0.950 . S
H490 C495 0.950 . S
H491 C496 0.949 . S
H492 C498 0.950 . S
H493 C499 0.950 . S
H494 C500 0.949 . S
C495 H490 0.950 . S
C495 C497 1.327 . S
C495 C501 1.429 . S
C496 C488 1.574 . S
C496 H491 0.949 . S
C496 C502 1.368 . S
C497 C481 1.349 . S
C497 H489 0.950 . S
C497 C495 1.327 . S
C498 C486 1.349 . S
C498 H492 0.950 . S
C498 C499 1.327 . S
C499 H493 0.950 . S
C499 C498 1.327 . S
C499 C503 1.429 . S
C500 C483 1.574 . S
C500 H494 0.949 . S
C500 C504 1.368 . S
C501 C482 1.429 . S
C501 C495 1.429 . S
C501 C502 1.523 . S
C502 C483 1.368 . S
C502 C496 1.368 . S
C502 C501 1.523 . S
C503 C487 1.429 . S
C503 C499 1.429 . S
C503 C504 1.523 . S
C504 C488 1.368 . S
C504 C500 1.368 . S
C504 C503 1.523 . S
H505 C480 0.950 . S
H506 C482 0.950 . S
H507 C483 0.949 . S
H508 C485 0.950 . S
H509 C487 0.950 . S
C510 C511 1.349 . S
C510 C512 1.327 . S
C510 H535 0.950 . S
C511 C510 1.349 . S
C511 C527 1.349 . S
C512 C510 1.327 . S
C512 C531 1.429 . S
C512 H536 0.950 . S
C513 C530 1.574 . S
C513 C532 1.368 . S
C513 H537 0.949 . S
H514 C518 0.949 . S
C515 C516 1.349 . S
C515 C517 1.327 . S
C515 H538 0.950 . S
C516 C515 1.349 . S
C516 C528 1.349 . S
C517 C515 1.327 . S
C517 C533 1.429 . S
C517 H539 0.950 . S
C518 H514 0.949 . S
C518 C526 1.574 . S
C518 C534 1.368 . S
H519 C527 0.950 . S
H520 C525 0.950 . S
H521 C526 0.949 . S
H522 C528 0.950 . S
H523 C529 0.950 . S
H524 C530 0.949 . S
C525 H520 0.950 . S
C525 C527 1.327 . S
C525 C531 1.429 . S
C526 C518 1.574 . S
C526 H521 0.949 . S
C526 C532 1.368 . S
C527 C511 1.349 . S
C527 H519 0.950 . S
C527 C525 1.327 . S
C528 C516 1.349 . S
C528 H522 0.950 . S
C528 C529 1.327 . S
C529 H523 0.950 . S
C529 C528 1.327 . S
C529 C533 1.429 . S
C530 C513 1.574 . S
C530 H524 0.949 . S
C530 C534 1.368 . S
C531 C512 1.429 . S
C531 C525 1.429 . S
C531 C532 1.523 . S
C532 C513 1.368 . S
C532 C526 1.368 . S
C532 C531 1.523 . S
C533 C517 1.429 . S
C533 C529 1.429 . S
C533 C534 1.523 . S
C534 C518 1.368 . S
C534 C530 1.368 . S
C534 C533 1.523 . S
H535 C510 0.950 . S
H536 C512 0.950 . S
H537 C513 0.949 . S
H538 C515 0.950 . S
H539 C517 0.950 . S
C540 C541 1.349 . S
C540 C542 1.327 . S
C540 H565 0.950 . S
C541 C540 1.349 . S
C541 C557 1.349 . S
C542 C540 1.327 . S
C542 C561 1.429 . S
C542 H566 0.950 . S
C543 C560 1.574 . S
C543 C562 1.368 . S
C543 H567 0.949 . S
H544 C548 0.949 . S
C545 C546 1.349 . S
C545 C547 1.327 . S
C545 H568 0.950 . S
C546 C545 1.349 . S
C546 C558 1.349 . S
C547 C545 1.327 . S
C547 C563 1.429 . S
C547 H569 0.950 . S
C548 H544 0.949 . S
C548 C556 1.574 . S
C548 C564 1.368 . S
H549 C557 0.950 . S
H550 C555 0.950 . S
H551 C556 0.949 . S
H552 C558 0.950 . S
H553 C559 0.950 . S
H554 C560 0.949 . S
C555 H550 0.950 . S
C555 C557 1.327 . S
C555 C561 1.429 . S
C556 C548 1.574 . S
C556 H551 0.949 . S
C556 C562 1.368 . S
C557 C541 1.349 . S
C557 H549 0.950 . S
C557 C555 1.327 . S
C558 C546 1.349 . S
C558 H552 0.950 . S
C558 C559 1.327 . S
C559 H553 0.950 . S
C559 C558 1.327 . S
C559 C563 1.429 . S
C560 C543 1.574 . S
C560 H554 0.949 . S
C560 C564 1.368 . S
C561 C542 1.429 . S
C561 C555 1.429 . S
C561 C562 1.523 . S
C562 C543 1.368 . S
C562 C556 1.368 . S
C562 C561 1.523 . S
C563 C547 1.429 . S
C563 C559 1.429 . S
C563 C564 1.523 . S
C564 C548 1.368 . S
C564 C560 1.368 . S
C564 C563 1.523 . S
H565 C540 0.950 . S
H566 C542 0.950 . S
H567 C543 0.949 . S
H568 C545 0.950 . S
H569 C547 0.950 . S
C570 C571 1.349 . S
C570 C572 1.327 . S
C570 H595 0.950 . S
C571 C570 1.349 . S
C571 C587 1.349 . S
C572 C570 1.327 . S
C572 C591 1.429 . S
C572 H596 0.950 . S
C573 C590 1.574 . S
C573 C592 1.368 . S
C573 H597 0.949 . S
H574 C578 0.949 . S
C575 C576 1.349 . S
C575 C577 1.327 . S
C575 H598 0.950 1_565 S
C576 C575 1.349 . S
C576 C588 1.349 . S
C577 C575 1.327 . S
C577 C593 1.429 . S
C577 H599 0.950 . S
C578 H574 0.949 . S
C578 C586 1.574 . S
C578 C594 1.368 . S
H579 C587 0.950 . S
H580 C585 0.950 . S
H581 C586 0.949 . S
H582 C588 0.950 . S
H583 C589 0.950 . S
H584 C590 0.949 . S
C585 H580 0.950 . S
C585 C587 1.327 . S
C585 C591 1.429 . S
C586 C578 1.574 . S
C586 H581 0.949 . S
C586 C592 1.368 . S
C587 C571 1.349 . S
C587 H579 0.950 . S
C587 C585 1.327 . S
C588 C576 1.349 . S
C588 H582 0.950 . S
C588 C589 1.327 . S
C589 H583 0.950 . S
C589 C588 1.327 . S
C589 C593 1.429 . S
C590 C573 1.574 . S
C590 H584 0.949 . S
C590 C594 1.368 . S
C591 C572 1.429 . S
C591 C585 1.429 . S
C591 C592 1.523 . S
C592 C573 1.368 . S
C592 C586 1.368 . S
C592 C591 1.523 . S
C593 C577 1.429 . S
C593 C589 1.429 . S
C593 C594 1.523 . S
C594 C578 1.368 . S
C594 C590 1.368 . S
C594 C593 1.523 . S
H595 C570 0.950 . S
H596 C572 0.950 . S
H597 C573 0.949 . S
H598 C575 0.950 1_545 S
H599 C577 0.950 . S
C600 C601 1.349 . S
C600 C602 1.327 . S
C600 H625 0.950 . S
C601 C600 1.349 . S
C601 C617 1.349 . S
C602 C600 1.327 . S
C602 C621 1.429 . S
C602 H626 0.950 . S
C603 C620 1.574 . S
C603 C622 1.368 . S
C603 H627 0.949 . S
H604 C608 0.949 . S
C605 C606 1.349 . S
C605 C607 1.327 . S
C605 H628 0.950 . S
C606 C605 1.349 . S
C606 C618 1.349 . S
C607 C605 1.327 . S
C607 C623 1.429 . S
C607 H629 0.950 . S
C608 H604 0.949 . S
C608 C616 1.574 . S
C608 C624 1.368 . S
H609 C617 0.950 . S
H610 C615 0.950 . S
H611 C616 0.949 . S
H612 C618 0.950 . S
H613 C619 0.950 . S
H614 C620 0.949 . S
C615 H610 0.950 . S
C615 C617 1.327 . S
C615 C621 1.429 . S
C616 C608 1.574 . S
C616 H611 0.949 . S
C616 C622 1.368 . S
C617 C601 1.349 . S
C617 H609 0.950 . S
C617 C615 1.327 . S
C618 C606 1.349 . S
C618 H612 0.950 . S
C618 C619 1.327 . S
C619 H613 0.950 . S
C619 C618 1.327 . S
C619 C623 1.429 . S
C620 C603 1.574 . S
C620 H614 0.949 . S
C620 C624 1.368 . S
C621 C602 1.429 . S
C621 C615 1.429 . S
C621 C622 1.523 . S
C622 C603 1.368 . S
C622 C616 1.368 . S
C622 C621 1.523 . S
C623 C607 1.429 . S
C623 C619 1.429 . S
C623 C624 1.523 . S
C624 C608 1.368 . S
C624 C620 1.368 . S
C624 C623 1.523 . S
H625 C600 0.950 . S
H626 C602 0.950 . S
H627 C603 0.949 . S
H628 C605 0.950 . S
H629 C607 0.950 . S
C630 C631 1.349 . S
C630 C632 1.327 . S
C630 H655 0.950 . S
C631 C630 1.349 . S
C631 C647 1.349 . S
C632 C630 1.327 . S
C632 C651 1.429 . S
C632 H656 0.950 . S
C633 C650 1.574 . S
C633 C652 1.368 . S
C633 H657 0.949 . S
H634 C638 0.949 . S
C635 C636 1.349 . S
C635 C637 1.327 . S
C635 H658 0.950 . S
C636 C635 1.349 . S
C636 C648 1.349 . S
C637 C635 1.327 . S
C637 C653 1.429 . S
C637 H659 0.950 . S
C638 H634 0.949 . S
C638 C646 1.574 . S
C638 C654 1.368 . S
H639 C647 0.950 . S
H640 C645 0.950 . S
H641 C646 0.949 . S
H642 C648 0.950 . S
H643 C649 0.950 . S
H644 C650 0.949 . S
C645 H640 0.950 . S
C645 C647 1.327 . S
C645 C651 1.429 . S
C646 C638 1.574 . S
C646 H641 0.949 . S
C646 C652 1.368 . S
C647 C631 1.349 . S
C647 H639 0.950 . S
C647 C645 1.327 . S
C648 C636 1.349 . S
C648 H642 0.950 . S
C648 C649 1.327 . S
C649 H643 0.950 . S
C649 C648 1.327 . S
C649 C653 1.429 . S
C650 C633 1.574 . S
C650 H644 0.949 . S
C650 C654 1.368 . S
C651 C632 1.429 . S
C651 C645 1.429 . S
C651 C652 1.523 . S
C652 C633 1.368 . S
C652 C646 1.368 . S
C652 C651 1.523 . S
C653 C637 1.429 . S
C653 C649 1.429 . S
C653 C654 1.523 . S
C654 C638 1.368 . S
C654 C650 1.368 . S
C654 C653 1.523 . S
H655 C630 0.950 . S
H656 C632 0.950 . S
H657 C633 0.949 . S
H658 C635 0.950 . S
H659 C637 0.950 . S
C660 C661 1.349 . S
C660 C662 1.327 . S
C660 H685 0.950 . S
C661 C660 1.349 . S
C661 C677 1.349 . S
C662 C660 1.327 . S
C662 C681 1.429 . S
C662 H686 0.950 . S
C663 C680 1.574 . S
C663 C682 1.368 . S
C663 H687 0.949 . S
H664 C668 0.949 . S
C665 C666 1.349 . S
C665 C667 1.327 . S
C665 H688 0.950 . S
C666 C665 1.349 . S
C666 C678 1.349 . S
C667 C665 1.327 . S
C667 C683 1.429 . S
C667 H689 0.950 . S
C668 H664 0.949 . S
C668 C676 1.574 . S
C668 C684 1.368 . S
H669 C677 0.950 . S
H670 C675 0.950 . S
H671 C676 0.949 . S
H672 C678 0.950 . S
H673 C679 0.950 . S
H674 C680 0.949 . S
C675 H670 0.950 . S
C675 C677 1.327 . S
C675 C681 1.429 . S
C676 C668 1.574 . S
C676 H671 0.949 . S
C676 C682 1.368 . S
C677 C661 1.349 . S
C677 H669 0.950 . S
C677 C675 1.327 . S
C678 C666 1.349 . S
C678 H672 0.950 . S
C678 C679 1.327 . S
C679 H673 0.950 . S
C679 C678 1.327 . S
C679 C683 1.429 . S
C680 C663 1.574 . S
C680 H674 0.949 . S
C680 C684 1.368 . S
C681 C662 1.429 . S
C681 C675 1.429 . S
C681 C682 1.523 . S
C682 C663 1.368 . S
C682 C676 1.368 . S
C682 C681 1.523 . S
C683 C667 1.429 . S
C683 C679 1.429 . S
C683 C684 1.523 . S
C684 C668 1.368 . S
C684 C680 1.368 . S
C684 C683 1.523 . S
H685 C660 0.950 . S
H686 C662 0.950 . S
H687 C663 0.949 . S
H688 C665 0.950 . S
H689 C667 0.950 . S
C690 C691 1.349 . S
C690 C692 1.327 . S
C690 H715 0.950 . S
C691 C690 1.349 . S
C691 C707 1.349 . S
C692 C690 1.327 . S
C692 C711 1.429 . S
C692 H716 0.950 . S
C693 C710 1.574 . S
C693 C712 1.368 . S
C693 H717 0.949 . S
H694 C698 0.949 . S
C695 C696 1.349 . S
C695 C697 1.327 . S
C695 H718 0.950 . S
C696 C695 1.349 . S
C696 C708 1.349 . S
C697 C695 1.327 . S
C697 C713 1.429 . S
C697 H719 0.950 . S
C698 H694 0.949 . S
C698 C706 1.574 . S
C698 C714 1.368 . S
H699 C707 0.950 . S
H700 C705 0.950 . S
H701 C706 0.949 . S
H702 C708 0.950 . S
H703 C709 0.950 . S
H704 C710 0.949 . S
C705 H700 0.950 . S
C705 C707 1.327 . S
C705 C711 1.429 . S
C706 C698 1.574 . S
C706 H701 0.949 . S
C706 C712 1.368 . S
C707 C691 1.349 . S
C707 H699 0.950 . S
C707 C705 1.327 . S
C708 C696 1.349 . S
C708 H702 0.950 . S
C708 C709 1.327 . S
C709 H703 0.950 . S
C709 C708 1.327 . S
C709 C713 1.429 . S
C710 C693 1.574 . S
C710 H704 0.949 . S
C710 C714 1.368 . S
C711 C692 1.429 . S
C711 C705 1.429 . S
C711 C712 1.523 . S
C712 C693 1.368 . S
C712 C706 1.368 . S
C712 C711 1.523 . S
C713 C697 1.429 . S
C713 C709 1.429 . S
C713 C714 1.523 . S
C714 C698 1.368 . S
C714 C710 1.368 . S
C714 C713 1.523 . S
H715 C690 0.950 . S
H716 C692 0.950 . S
H717 C693 0.949 . S
H718 C695 0.950 . S
H719 C697 0.950 . S
C720 C721 1.349 . S
C720 C722 1.327 . S
C720 H745 0.950 . S
C721 C720 1.349 . S
C721 C737 1.349 . S
C722 C720 1.327 . S
C722 C741 1.429 . S
C722 H746 0.950 . S
C723 C740 1.574 . S
C723 C742 1.368 . S
C723 H747 0.949 . S
H724 C728 0.949 . S
C725 C726 1.349 . S
C725 C727 1.327 . S
C725 H748 0.950 . S
C726 C725 1.349 . S
C726 C738 1.349 . S
C727 C725 1.327 . S
C727 C743 1.429 . S
C727 H749 0.950 . S
C728 H724 0.949 . S
C728 C736 1.574 . S
C728 C744 1.368 . S
H729 C737 0.950 . S
H730 C735 0.950 . S
H731 C736 0.949 . S
H732 C738 0.950 . S
H733 C739 0.950 . S
H734 C740 0.949 . S
C735 H730 0.950 . S
C735 C737 1.327 . S
C735 C741 1.429 . S
C736 C728 1.574 . S
C736 H731 0.949 . S
C736 C742 1.368 . S
C737 C721 1.349 . S
C737 H729 0.950 . S
C737 C735 1.327 . S
C738 C726 1.349 . S
C738 H732 0.950 . S
C738 C739 1.327 . S
C739 H733 0.950 . S
C739 C738 1.327 . S
C739 C743 1.429 . S
C740 C723 1.574 . S
C740 H734 0.949 . S
C740 C744 1.368 . S
C741 C722 1.429 . S
C741 C735 1.429 . S
C741 C742 1.523 . S
C742 C723 1.368 . S
C742 C736 1.368 . S
C742 C741 1.523 . S
C743 C727 1.429 . S
C743 C739 1.429 . S
C743 C744 1.523 . S
C744 C728 1.368 . S
C744 C740 1.368 . S
C744 C743 1.523 . S
H745 C720 0.950 . S
H746 C722 0.950 . S
H747 C723 0.949 . S
H748 C725 0.950 . S
H749 C727 0.950 . S
C750 C751 1.349 . S
C750 C752 1.327 . S
C750 H775 0.950 . S
C751 C750 1.349 . S
C751 C767 1.349 . S
C752 C750 1.327 . S
C752 C771 1.429 . S
C752 H776 0.950 . S
C753 C770 1.574 . S
C753 C772 1.368 . S
C753 H777 0.949 . S
H754 C758 0.949 . S
C755 C756 1.349 . S
C755 C757 1.327 . S
C755 H778 0.950 . S
C756 C755 1.349 . S
C756 C768 1.349 . S
C757 C755 1.327 . S
C757 C773 1.429 . S
C757 H779 0.950 . S
C758 H754 0.949 . S
C758 C766 1.574 . S
C758 C774 1.368 . S
H759 C767 0.950 . S
H760 C765 0.950 . S
H761 C766 0.949 . S
H762 C768 0.950 . S
H763 C769 0.950 . S
H764 C770 0.949 . S
C765 H760 0.950 . S
C765 C767 1.327 . S
C765 C771 1.429 . S
C766 C758 1.574 . S
C766 H761 0.949 . S
C766 C772 1.368 . S
C767 C751 1.349 . S
C767 H759 0.950 . S
C767 C765 1.327 . S
C768 C756 1.349 . S
C768 H762 0.950 . S
C768 C769 1.327 . S
C769 H763 0.950 . S
C769 C768 1.327 . S
C769 C773 1.429 . S
C770 C753 1.574 . S
C770 H764 0.949 . S
C770 C774 1.368 . S
C771 C752 1.429 . S
C771 C765 1.429 . S
C771 C772 1.523 . S
C772 C753 1.368 . S
C772 C766 1.368 . S
C772 C771 1.523 . S
C773 C757 1.429 . S
C773 C769 1.429 . S
C773 C774 1.523 . S
C774 C758 1.368 . S
C774 C770 1.368 . S
C774 C773 1.523 . S
H775 C750 0.950 . S
H776 C752 0.950 . S
H777 C753 0.949 . S
H778 C755 0.950 . S
H779 C757 0.950 . S
C780 C781 1.349 . S
C780 C782 1.327 . S
C780 H805 0.950 . S
C781 C780 1.349 . S
C781 C797 1.349 . S
C782 C780 1.327 . S
C782 C801 1.429 . S
C782 H806 0.950 . S
C783 C800 1.574 . S
C783 C802 1.368 . S
C783 H807 0.949 . S
H784 C788 0.949 . S
C785 C786 1.349 . S
C785 C787 1.327 . S
C785 H808 0.950 . S
C786 C785 1.349 . S
C786 C798 1.349 . S
C787 C785 1.327 . S
C787 C803 1.429 . S
C787 H809 0.950 . S
C788 H784 0.949 . S
C788 C796 1.574 . S
C788 C804 1.368 . S
H789 C797 0.950 . S
H790 C795 0.950 . S
H791 C796 0.949 . S
H792 C798 0.950 . S
H793 C799 0.950 . S
H794 C800 0.949 . S
C795 H790 0.950 . S
C795 C797 1.327 . S
C795 C801 1.429 . S
C796 C788 1.574 . S
C796 H791 0.949 . S
C796 C802 1.368 . S
C797 C781 1.349 . S
C797 H789 0.950 . S
C797 C795 1.327 . S
C798 C786 1.349 . S
C798 H792 0.950 . S
C798 C799 1.327 . S
C799 H793 0.950 . S
C799 C798 1.327 . S
C799 C803 1.429 . S
C800 C783 1.574 . S
C800 H794 0.949 . S
C800 C804 1.368 . S
C801 C782 1.429 . S
C801 C795 1.429 . S
C801 C802 1.523 . S
C802 C783 1.368 . S
C802 C796 1.368 . S
C802 C801 1.523 . S
C803 C787 1.429 . S
C803 C799 1.429 . S
C803 C804 1.523 . S
C804 C788 1.368 . S
C804 C800 1.368 . S
C804 C803 1.523 . S
H805 C780 0.950 . S
H806 C782 0.950 . S
H807 C783 0.949 . S
H808 C785 0.950 . S
H809 C787 0.950 . S
C810 C811 1.349 . S
C810 C812 1.327 . S
C810 H835 0.950 . S
C811 C810 1.349 . S
C811 C827 1.349 . S
C812 C810 1.327 . S
C812 C831 1.429 . S
C812 H836 0.950 . S
C813 C830 1.574 . S
C813 C832 1.368 . S
C813 H837 0.949 . S
H814 C818 0.949 1_455 S
C815 C816 1.349 . S
C815 C817 1.327 . S
C815 H838 0.950 . S
C816 C815 1.349 . S
C816 C828 1.349 1_655 S
C817 C815 1.327 . S
C817 C833 1.429 . S
C817 H839 0.950 . S
C818 H814 0.949 1_655 S
C818 C826 1.574 . S
C818 C834 1.368 . S
H819 C827 0.950 . S
H820 C825 0.950 . S
H821 C826 0.949 . S
H822 C828 0.950 . S
H823 C829 0.950 . S
H824 C830 0.949 . S
C825 H820 0.950 . S
C825 C827 1.327 . S
C825 C831 1.429 . S
C826 C818 1.574 . S
C826 H821 0.949 . S
C826 C832 1.368 . S
C827 C811 1.349 . S
C827 H819 0.950 . S
C827 C825 1.327 . S
C828 C816 1.349 1_455 S
C828 H822 0.950 . S
C828 C829 1.327 . S
C829 H823 0.950 . S
C829 C828 1.327 . S
C829 C833 1.429 1_455 S
C830 C813 1.574 . S
C830 H824 0.949 . S
C830 C834 1.368 . S
C831 C812 1.429 . S
C831 C825 1.429 . S
C831 C832 1.523 . S
C832 C813 1.368 . S
C832 C826 1.368 . S
C832 C831 1.523 . S
C833 C817 1.429 . S
C833 C829 1.429 1_655 S
C833 C834 1.523 . S
C834 C818 1.368 . S
C834 C830 1.368 . S
C834 C833 1.523 . S
H835 C810 0.950 . S
H836 C812 0.950 . S
H837 C813 0.949 . S
H838 C815 0.950 . S
H839 C817 0.950 . S
C840 C841 1.349 . S
C840 C842 1.327 . S
C840 H865 0.950 . S
C841 C840 1.349 . S
C841 C857 1.349 . S
C842 C840 1.327 . S
C842 C861 1.429 . S
C842 H866 0.950 . S
C843 C860 1.574 . S
C843 C862 1.368 . S
C843 H867 0.949 . S
H844 C848 0.949 . S
C845 C846 1.349 . S
C845 C847 1.327 1_545 S
C845 H868 0.950 . S
C846 C845 1.349 . S
C846 C858 1.349 . S
C847 C845 1.327 1_565 S
C847 C863 1.429 . S
C847 H869 0.950 . S
C848 H844 0.949 . S
C848 C856 1.574 . S
C848 C864 1.368 . S
H849 C857 0.950 . S
H850 C855 0.950 . S
H851 C856 0.949 . S
H852 C858 0.950 . S
H853 C859 0.950 . S
H854 C860 0.949 . S
C855 H850 0.950 . S
C855 C857 1.327 . S
C855 C861 1.429 . S
C856 C848 1.574 . S
C856 H851 0.949 . S
C856 C862 1.368 . S
C857 C841 1.349 . S
C857 H849 0.950 . S
C857 C855 1.327 . S
C858 C846 1.349 . S
C858 H852 0.950 . S
C858 C859 1.327 . S
C859 H853 0.950 . S
C859 C858 1.327 . S
C859 C863 1.429 1_545 S
C860 C843 1.574 . S
C860 H854 0.949 . S
C860 C864 1.368 . S
C861 C842 1.429 . S
C861 C855 1.429 . S
C861 C862 1.523 . S
C862 C843 1.368 . S
C862 C856 1.368 . S
C862 C861 1.523 . S
C863 C847 1.429 . S
C863 C859 1.429 1_565 S
C863 C864 1.523 . S
C864 C848 1.368 . S
C864 C860 1.368 . S
C864 C863 1.523 . S
H865 C840 0.950 . S
H866 C842 0.950 . S
H867 C843 0.949 . S
H868 C845 0.950 . S
H869 C847 0.950 . S
C870 C871 1.349 . S
C870 C872 1.327 . S
C870 H895 0.950 . S
C871 C870 1.349 . S
C871 C887 1.349 . S
C872 C870 1.327 . S
C872 C891 1.429 . S
C872 H896 0.950 . S
C873 C890 1.574 . S
C873 C892 1.368 . S
C873 H897 0.949 . S
H874 C878 0.949 . S
C875 C876 1.349 . S
C875 C877 1.327 . S
C875 H898 0.950 . S
C876 C875 1.349 . S
C876 C888 1.349 . S
C877 C875 1.327 . S
C877 C893 1.429 . S
C877 H899 0.950 . S
C878 H874 0.949 . S
C878 C886 1.574 . S
C878 C894 1.368 . S
H879 C887 0.950 . S
H880 C885 0.950 . S
H881 C886 0.949 . S
H882 C888 0.950 . S
H883 C889 0.950 . S
H884 C890 0.949 . S
C885 H880 0.950 . S
C885 C887 1.327 . S
C885 C891 1.429 . S
C886 C878 1.574 . S
C886 H881 0.949 . S
C886 C892 1.368 . S
C887 C871 1.349 . S
C887 H879 0.950 . S
C887 C885 1.327 . S
C888 C876 1.349 . S
C888 H882 0.950 . S
C888 C889 1.327 . S
C889 H883 0.950 . S
C889 C888 1.327 . S
C889 C893 1.429 . S
C890 C873 1.574 . S
C890 H884 0.949 . S
C890 C894 1.368 . S
C891 C872 1.429 . S
C891 C885 1.429 . S
C891 C892 1.523 . S
C892 C873 1.368 . S
C892 C886 1.368 . S
C892 C891 1.523 . S
C893 C877 1.429 . S
C893 C889 1.429 . S
C893 C894 1.523 . S
C894 C878 1.368 . S
C894 C890 1.368 . S
C894 C893 1.523 . S
H895 C870 0.950 . S
H896 C872 0.950 . S
H897 C873 0.949 . S
H898 C875 0.950 . S
H899 C877 0.950 . S
C900 C901 1.349 . S
C900 C902 1.327 . S
C900 H925 0.950 . S
C901 C900 1.349 . S
C901 C917 1.349 . S
C902 C900 1.327 . S
C902 C921 1.429 . S
C902 H926 0.950 . S
C903 C920 1.606 . S
C903 C922 1.368 . S
C903 H927 0.949 . S
H904 C908 0.949 1_554 S
C905 C906 1.349 . S
C905 C907 1.327 . S
C905 H928 0.950 . S
C906 C905 1.349 . S
C906 C918 1.349 . S
C907 C905 1.327 . S
C907 C923 1.429 . S
C907 H929 0.950 . S
C908 H904 0.949 1_556 S
C908 C916 1.574 . S
C908 C924 1.368 . S
H909 C917 0.950 . S
H910 C915 0.950 . S
H911 C916 0.949 . S
H912 C918 0.950 . S
H913 C919 0.929 1_545 S
H914 C920 0.900 1_565 S
C915 H910 0.950 . S
C915 C917 1.327 . S
C915 C921 1.429 . S
C916 C908 1.574 . S
C916 H911 0.949 . S
C916 C922 1.368 . S
C917 C901 1.349 . S
C917 H909 0.950 . S
C917 C915 1.327 . S
C918 C906 1.349 . S
C918 H912 0.950 . S
C918 C919 1.341 . S
C919 H913 0.929 1_565 S
C919 C918 1.341 . S
C919 C923 1.435 . S
C920 C903 1.606 . S
C920 H914 0.900 1_545 S
C920 C924 1.391 . S
C921 C902 1.429 . S
C921 C915 1.429 . S
C921 C922 1.523 . S
C922 C903 1.368 . S
C922 C916 1.368 . S
C922 C921 1.523 . S
C923 C907 1.429 . S
C923 C919 1.435 . S
C923 C924 1.523 1_564 S
C924 C908 1.368 . S
C924 C920 1.391 . S
C924 C923 1.523 1_546 S
H925 C900 0.950 . S
H926 C902 0.950 . S
H927 C903 0.949 . S
H928 C905 0.950 . S
H929 C907 0.950 . S
C930 C931 1.349 . S
C930 C932 1.327 . S
C930 H955 0.950 . S
C931 C930 1.349 . S
C931 C947 1.349 . S
C932 C930 1.327 . S
C932 C951 1.429 . S
C932 H956 0.950 . S
C933 C950 1.574 . S
C933 C952 1.368 . S
C933 H957 0.949 . S
H934 C938 0.949 . S
C935 C936 1.349 . S
C935 C937 1.327 . S
C935 H958 0.950 . S
C936 C935 1.349 . S
C936 C948 1.349 . S
C937 C935 1.327 . S
C937 C953 1.429 . S
C937 H959 0.950 . S
C938 H934 0.949 . S
C938 C946 1.574 . S
C938 C954 1.368 . S
H939 C947 0.950 . S
H940 C945 0.950 . S
H941 C946 0.949 . S
H942 C948 0.950 . S
H943 C949 0.950 . S
H944 C950 0.949 . S
C945 H940 0.950 . S
C945 C947 1.327 . S
C945 C951 1.429 . S
C946 C938 1.574 . S
C946 H941 0.949 . S
C946 C952 1.368 . S
C947 C931 1.349 . S
C947 H939 0.950 . S
C947 C945 1.327 . S
C948 C936 1.349 . S
C948 H942 0.950 . S
C948 C949 1.327 . S
C949 H943 0.950 . S
C949 C948 1.327 . S
C949 C953 1.429 . S
C950 C933 1.574 . S
C950 H944 0.949 . S
C950 C954 1.368 . S
C951 C932 1.429 . S
C951 C945 1.429 . S
C951 C952 1.523 . S
C952 C933 1.368 . S
C952 C946 1.368 . S
C952 C951 1.523 . S
C953 C937 1.429 . S
C953 C949 1.429 . S
C953 C954 1.523 . S
C954 C938 1.368 . S
C954 C950 1.368 . S
C954 C953 1.523 . S
H955 C930 0.950 . S
H956 C932 0.950 . S
H957 C933 0.949 . S
H958 C935 0.950 . S
H959 C937 0.950 . S
C960 C961 1.349 . S
C960 C962 1.327 1_565 S
C960 H985 0.950 . S
C961 C960 1.349 . S
C961 C977 1.349 1_565 S
C962 C960 1.327 1_545 S
C962 C981 1.429 . S
C962 H986 0.950 . S
C963 C980 1.574 . S
C963 C982 1.368 . S
C963 H987 0.949 . S
H964 C968 0.949 . S
C965 C966 1.349 . S
C965 C967 1.327 . S
C965 H988 0.950 . S
C966 C965 1.349 . S
C966 C978 1.349 . S
C967 C965 1.327 . S
C967 C983 1.429 . S
C967 H989 0.950 . S
C968 H964 0.949 . S
C968 C976 1.574 . S
C968 C984 1.368 . S
H969 C977 0.950 . S
H970 C975 0.950 . S
H971 C976 0.949 . S
H972 C978 0.950 . S
H973 C979 0.950 . S
H974 C980 0.949 . S
C975 H970 0.950 . S
C975 C977 1.327 . S
C975 C981 1.429 . S
C976 C968 1.574 . S
C976 H971 0.949 . S
C976 C982 1.368 . S
C977 C961 1.349 1_545 S
C977 H969 0.950 . S
C977 C975 1.327 . S
C978 C966 1.349 . S
C978 H972 0.950 . S
C978 C979 1.327 . S
C979 H973 0.950 . S
C979 C978 1.327 . S
C979 C983 1.429 . S
C980 C963 1.574 . S
C980 H974 0.949 . S
C980 C984 1.368 . S
C981 C962 1.429 . S
C981 C975 1.429 . S
C981 C982 1.523 . S
C982 C963 1.368 . S
C982 C976 1.368 . S
C982 C981 1.523 . S
C983 C967 1.429 . S
C983 C979 1.429 . S
C983 C984 1.523 . S
C984 C968 1.368 . S
C984 C980 1.368 . S
C984 C983 1.523 . S
H985 C960 0.950 . S
H986 C962 0.950 . S
H987 C963 0.949 . S
H988 C965 0.950 . S
H989 C967 0.950 . S
C990 C991 1.349 . S
C990 C992 1.327 . S
C990 H1015 0.950 . S
C991 C990 1.349 . S
C991 C1007 1.349 . S
C992 C990 1.327 . S
C992 C1011 1.429 . S
C992 H1016 0.950 . S
C993 C1010 1.574 . S
C993 C1012 1.368 . S
C993 H1017 0.949 . S
H994 C998 0.949 . S
C995 C996 1.349 . S
C995 C997 1.327 . S
C995 H1018 0.950 . S
C996 C995 1.349 . S
C996 C1008 1.349 . S
C997 C995 1.327 . S
C997 C1013 1.429 . S
C997 H1019 0.950 . S
C998 H994 0.949 . S
C998 C1006 1.574 . S
C998 C1014 1.368 . S
H999 C1007 0.950 . S
H1000 C1005 0.950 . S
H1001 C1006 0.949 . S
H1002 C1008 0.950 . S
H1003 C1009 0.950 . S
H1004 C1010 0.949 . S
C1005 H1000 0.950 . S
C1005 C1007 1.327 . S
C1005 C1011 1.429 . S
C1006 C998 1.574 . S
C1006 H1001 0.949 . S
C1006 C1012 1.368 . S
C1007 C991 1.349 . S
C1007 H999 0.950 . S
C1007 C1005 1.327 . S
C1008 C996 1.349 . S
C1008 H1002 0.950 . S
C1008 C1009 1.327 . S
C1009 H1003 0.950 . S
C1009 C1008 1.327 . S
C1009 C1013 1.429 . S
C1010 C993 1.574 . S
C1010 H1004 0.949 . S
C1010 C1014 1.368 . S
C1011 C992 1.429 . S
C1011 C1005 1.429 . S
C1011 C1012 1.523 . S
C1012 C993 1.368 . S
C1012 C1006 1.368 . S
C1012 C1011 1.523 . S
C1013 C997 1.429 . S
C1013 C1009 1.429 . S
C1013 C1014 1.523 . S
C1014 C998 1.368 . S
C1014 C1010 1.368 . S
C1014 C1013 1.523 . S
H1015 C990 0.950 . S
H1016 C992 0.950 . S
H1017 C993 0.949 . S
H1018 C995 0.950 . S
H1019 C997 0.950 . S
C1020 C1021 1.349 . S
C1020 C1022 1.327 . S
C1020 H1045 0.950 . S
C1021 C1020 1.349 . S
C1021 C1037 1.349 . S
C1022 C1020 1.327 . S
C1022 C1041 1.429 1_565 S
C1022 H1046 0.950 . S
C1023 C1040 1.574 . S
C1023 C1042 1.368 . S
C1023 H1047 0.949 . S
H1024 C1028 0.949 . S
C1025 C1026 1.349 . S
C1025 C1027 1.327 . S
C1025 H1048 0.950 . S
C1026 C1025 1.349 . S
C1026 C1038 1.349 . S
C1027 C1025 1.327 . S
C1027 C1043 1.429 . S
C1027 H1049 0.950 . S
C1028 H1024 0.949 . S
C1028 C1036 1.574 . S
C1028 C1044 1.368 . S
H1029 C1037 0.950 . S
H1030 C1035 0.950 . S
H1031 C1036 0.949 . S
H1032 C1038 0.950 . S
H1033 C1039 0.950 . S
H1034 C1040 0.949 . S
C1035 H1030 0.950 . S
C1035 C1037 1.327 1_545 S
C1035 C1041 1.429 . S
C1036 C1028 1.574 . S
C1036 H1031 0.949 . S
C1036 C1042 1.368 . S
C1037 C1021 1.349 . S
C1037 H1029 0.950 . S
C1037 C1035 1.327 1_565 S
C1038 C1026 1.349 . S
C1038 H1032 0.950 . S
C1038 C1039 1.327 . S
C1039 H1033 0.950 . S
C1039 C1038 1.327 . S
C1039 C1043 1.429 . S
C1040 C1023 1.574 . S
C1040 H1034 0.949 . S
C1040 C1044 1.368 . S
C1041 C1022 1.429 1_545 S
C1041 C1035 1.429 . S
C1041 C1042 1.523 . S
C1042 C1023 1.368 . S
C1042 C1036 1.368 . S
C1042 C1041 1.523 . S
C1043 C1027 1.429 . S
C1043 C1039 1.429 . S
C1043 C1044 1.523 . S
C1044 C1028 1.368 . S
C1044 C1040 1.368 . S
C1044 C1043 1.523 . S
H1045 C1020 0.950 . S
H1046 C1022 0.950 . S
H1047 C1023 0.949 . S
H1048 C1025 0.950 . S
H1049 C1027 0.950 . S
C1050 C1051 1.349 . S
C1050 C1052 1.327 . S
C1050 H1075 0.950 . S
C1051 C1050 1.349 . S
C1051 C1067 1.349 . S
C1052 C1050 1.327 . S
C1052 C1071 1.429 . S
C1052 H1076 0.950 . S
C1053 C1070 1.574 . S
C1053 C1072 1.368 . S
C1053 H1077 0.949 . S
H1054 C1058 0.949 . S
C1055 C1056 1.349 . S
C1055 C1057 1.327 . S
C1055 H1078 0.950 . S
C1056 C1055 1.349 . S
C1056 C1068 1.349 . S
C1057 C1055 1.327 . S
C1057 C1073 1.429 . S
C1057 H1079 0.950 . S
C1058 H1054 0.949 . S
C1058 C1066 1.574 . S
C1058 C1074 1.368 . S
H1059 C1067 0.950 . S
H1060 C1065 0.950 . S
H1061 C1066 0.949 . S
H1062 C1068 0.950 . S
H1063 C1069 0.950 . S
H1064 C1070 0.949 . S
C1065 H1060 0.950 . S
C1065 C1067 1.327 . S
C1065 C1071 1.429 . S
C1066 C1058 1.574 . S
C1066 H1061 0.949 . S
C1066 C1072 1.368 . S
C1067 C1051 1.349 . S
C1067 H1059 0.950 . S
C1067 C1065 1.327 . S
C1068 C1056 1.349 . S
C1068 H1062 0.950 . S
C1068 C1069 1.327 . S
C1069 H1063 0.950 . S
C1069 C1068 1.327 . S
C1069 C1073 1.429 . S
C1070 C1053 1.574 . S
C1070 H1064 0.949 . S
C1070 C1074 1.368 . S
C1071 C1052 1.429 . S
C1071 C1065 1.429 . S
C1071 C1072 1.523 . S
C1072 C1053 1.368 . S
C1072 C1066 1.368 . S
C1072 C1071 1.523 . S
C1073 C1057 1.429 . S
C1073 C1069 1.429 . S
C1073 C1074 1.523 . S
C1074 C1058 1.368 . S
C1074 C1070 1.368 . S
C1074 C1073 1.523 . S
H1075 C1050 0.950 . S
H1076 C1052 0.950 . S
H1077 C1053 0.949 . S
H1078 C1055 0.950 . S
H1079 C1057 0.950 . S
C1080 C1081 1.349 . S
C1080 C1082 1.327 . S
C1080 H1105 0.950 . S
C1081 C1080 1.349 . S
C1081 C1097 1.349 . S
C1082 C1080 1.327 . S
C1082 C1101 1.429 . S
C1082 H1106 0.950 . S
C1083 C1100 1.574 . S
C1083 C1102 1.368 . S
C1083 H1107 0.949 . S
H1084 C1088 0.949 . S
C1085 C1086 1.349 . S
C1085 C1087 1.327 . S
C1085 H1108 0.950 . S
C1086 C1085 1.349 . S
C1086 C1098 1.349 . S
C1087 C1085 1.327 . S
C1087 C1103 1.429 . S
C1087 H1109 0.950 . S
C1088 H1084 0.949 . S
C1088 C1096 1.574 . S
C1088 C1104 1.368 . S
H1089 C1097 0.950 . S
H1090 C1095 0.950 . S
H1091 C1096 0.949 . S
H1092 C1098 0.950 . S
H1093 C1099 0.950 . S
H1094 C1100 0.949 . S
C1095 H1090 0.950 . S
C1095 C1097 1.327 . S
C1095 C1101 1.429 . S
C1096 C1088 1.574 . S
C1096 H1091 0.949 . S
C1096 C1102 1.368 . S
C1097 C1081 1.349 . S
C1097 H1089 0.950 . S
C1097 C1095 1.327 . S
C1098 C1086 1.349 . S
C1098 H1092 0.950 . S
C1098 C1099 1.327 . S
C1099 H1093 0.950 . S
C1099 C1098 1.327 . S
C1099 C1103 1.429 . S
C1100 C1083 1.574 . S
C1100 H1094 0.949 . S
C1100 C1104 1.368 . S
C1101 C1082 1.429 . S
C1101 C1095 1.429 . S
C1101 C1102 1.523 . S
C1102 C1083 1.368 . S
C1102 C1096 1.368 . S
C1102 C1101 1.523 . S
C1103 C1087 1.429 . S
C1103 C1099 1.429 . S
C1103 C1104 1.523 . S
C1104 C1088 1.368 . S
C1104 C1100 1.368 . S
C1104 C1103 1.523 . S
H1105 C1080 0.950 . S
H1106 C1082 0.950 . S
H1107 C1083 0.949 . S
H1108 C1085 0.950 . S
H1109 C1087 0.950 . S
C1110 C1111 1.349 . S
C1110 C1112 1.327 . S
C1110 H1135 0.950 . S
C1111 C1110 1.349 . S
C1111 C1127 1.349 . S
C1112 C1110 1.327 . S
C1112 C1131 1.429 . S
C1112 H1136 0.950 . S
C1113 C1130 1.574 . S
C1113 C1132 1.368 . S
C1113 H1137 0.949 . S
H1114 C1118 0.949 . S
C1115 C1116 1.349 . S
C1115 C1117 1.327 . S
C1115 H1138 0.950 1_545 S
C1116 C1115 1.349 . S
C1116 C1128 1.349 . S
C1117 C1115 1.327 . S
C1117 C1133 1.429 . S
C1117 H1139 0.950 . S
C1118 H1114 0.949 . S
C1118 C1126 1.574 . S
C1118 C1134 1.368 . S
H1119 C1127 0.950 . S
H1120 C1125 0.950 . S
H1121 C1126 0.949 . S
H1122 C1128 0.950 . S
H1123 C1129 0.950 . S
H1124 C1130 0.949 . S
C1125 H1120 0.950 . S
C1125 C1127 1.327 . S
C1125 C1131 1.429 . S
C1126 C1118 1.574 . S
C1126 H1121 0.949 . S
C1126 C1132 1.368 . S
C1127 C1111 1.349 . S
C1127 H1119 0.950 . S
C1127 C1125 1.327 . S
C1128 C1116 1.349 . S
C1128 H1122 0.950 . S
C1128 C1129 1.327 . S
C1129 H1123 0.950 . S
C1129 C1128 1.327 . S
C1129 C1133 1.429 . S
C1130 C1113 1.574 . S
C1130 H1124 0.949 . S
C1130 C1134 1.368 . S
C1131 C1112 1.429 . S
C1131 C1125 1.429 . S
C1131 C1132 1.523 . S
C1132 C1113 1.368 . S
C1132 C1126 1.368 . S
C1132 C1131 1.523 . S
C1133 C1117 1.429 . S
C1133 C1129 1.429 . S
C1133 C1134 1.523 . S
C1134 C1118 1.368 . S
C1134 C1130 1.368 . S
C1134 C1133 1.523 . S
H1135 C1110 0.950 . S
H1136 C1112 0.950 . S
H1137 C1113 0.949 . S
H1138 C1115 0.950 1_565 S
H1139 C1117 0.950 . S
C1140 C1141 1.349 . S
C1140 C1142 1.327 . S
C1140 H1165 0.950 . S
C1141 C1140 1.349 . S
C1141 C1157 1.349 . S
C1142 C1140 1.327 . S
C1142 C1161 1.429 . S
C1142 H1166 0.950 . S
C1143 C1160 1.574 . S
C1143 C1162 1.368 . S
C1143 H1167 0.949 . S
H1144 C1148 0.949 . S
C1145 C1146 1.349 . S
C1145 C1147 1.327 . S
C1145 H1168 0.950 . S
C1146 C1145 1.349 . S
C1146 C1158 1.349 . S
C1147 C1145 1.327 . S
C1147 C1163 1.429 . S
C1147 H1169 0.950 . S
C1148 H1144 0.949 . S
C1148 C1156 1.574 . S
C1148 C1164 1.368 . S
H1149 C1157 0.950 . S
H1150 C1155 0.950 . S
H1151 C1156 0.949 . S
H1152 C1158 0.950 . S
H1153 C1159 0.950 . S
H1154 C1160 0.949 . S
C1155 H1150 0.950 . S
C1155 C1157 1.327 . S
C1155 C1161 1.429 . S
C1156 C1148 1.574 . S
C1156 H1151 0.949 . S
C1156 C1162 1.368 . S
C1157 C1141 1.349 . S
C1157 H1149 0.950 . S
C1157 C1155 1.327 . S
C1158 C1146 1.349 . S
C1158 H1152 0.950 . S
C1158 C1159 1.327 . S
C1159 H1153 0.950 . S
C1159 C1158 1.327 . S
C1159 C1163 1.429 . S
C1160 C1143 1.574 . S
C1160 H1154 0.949 . S
C1160 C1164 1.368 . S
C1161 C1142 1.429 . S
C1161 C1155 1.429 . S
C1161 C1162 1.523 . S
C1162 C1143 1.368 . S
C1162 C1156 1.368 . S
C1162 C1161 1.523 . S
C1163 C1147 1.429 . S
C1163 C1159 1.429 . S
C1163 C1164 1.523 . S
C1164 C1148 1.368 . S
C1164 C1160 1.368 . S
C1164 C1163 1.523 . S
H1165 C1140 0.950 . S
H1166 C1142 0.950 . S
H1167 C1143 0.949 . S
H1168 C1145 0.950 . S
H1169 C1147 0.950 . S
C1170 C1171 1.349 . S
C1170 C1172 1.327 . S
C1170 H1195 0.950 . S
C1171 C1170 1.349 . S
C1171 C1187 1.349 . S
C1172 C1170 1.327 . S
C1172 C1191 1.429 . S
C1172 H1196 0.950 . S
C1173 C1190 1.574 . S
C1173 C1192 1.368 . S
C1173 H1197 0.949 . S
H1174 C1178 0.949 . S
C1175 C1176 1.349 . S
C1175 C1177 1.327 . S
C1175 H1198 0.950 . S
C1176 C1175 1.349 . S
C1176 C1188 1.349 . S
C1177 C1175 1.327 . S
C1177 C1193 1.429 . S
C1177 H1199 0.950 . S
C1178 H1174 0.949 . S
C1178 C1186 1.574 . S
C1178 C1194 1.368 . S
H1179 C1187 0.950 . S
H1180 C1185 0.950 . S
H1181 C1186 0.949 . S
H1182 C1188 0.950 . S
H1183 C1189 0.950 . S
H1184 C1190 0.949 . S
C1185 H1180 0.950 . S
C1185 C1187 1.327 . S
C1185 C1191 1.429 . S
C1186 C1178 1.574 . S
C1186 H1181 0.949 . S
C1186 C1192 1.368 . S
C1187 C1171 1.349 . S
C1187 H1179 0.950 . S
C1187 C1185 1.327 . S
C1188 C1176 1.349 . S
C1188 H1182 0.950 . S
C1188 C1189 1.327 . S
C1189 H1183 0.950 . S
C1189 C1188 1.327 . S
C1189 C1193 1.429 . S
C1190 C1173 1.574 . S
C1190 H1184 0.949 . S
C1190 C1194 1.368 . S
C1191 C1172 1.429 . S
C1191 C1185 1.429 . S
C1191 C1192 1.523 . S
C1192 C1173 1.368 . S
C1192 C1186 1.368 . S
C1192 C1191 1.523 . S
C1193 C1177 1.429 . S
C1193 C1189 1.429 . S
C1193 C1194 1.523 . S
C1194 C1178 1.368 . S
C1194 C1190 1.368 . S
C1194 C1193 1.523 . S
H1195 C1170 0.950 . S
H1196 C1172 0.950 . S
H1197 C1173 0.949 . S
H1198 C1175 0.950 . S
H1199 C1177 0.950 . S
C1200 C1201 1.349 . S
C1200 C1202 1.327 . S
C1200 H1225 0.950 . S
C1201 C1200 1.349 . S
C1201 C1217 1.349 . S
C1202 C1200 1.327 . S
C1202 C1221 1.429 . S
C1202 H1226 0.950 . S
C1203 C1220 1.574 . S
C1203 C1222 1.368 . S
C1203 H1227 0.949 . S
H1204 C1208 0.949 . S
C1205 C1206 1.349 . S
C1205 C1207 1.327 . S
C1205 H1228 0.950 . S
C1206 C1205 1.349 . S
C1206 C1218 1.349 . S
C1207 C1205 1.327 . S
C1207 C1223 1.429 . S
C1207 H1229 0.950 . S
C1208 H1204 0.949 . S
C1208 C1216 1.574 . S
C1208 C1224 1.368 . S
H1209 C1217 0.950 . S
H1210 C1215 0.950 . S
H1211 C1216 0.949 . S
H1212 C1218 0.950 . S
H1213 C1219 0.950 . S
H1214 C1220 0.949 . S
C1215 H1210 0.950 . S
C1215 C1217 1.327 . S
C1215 C1221 1.429 . S
C1216 C1208 1.574 . S
C1216 H1211 0.949 . S
C1216 C1222 1.368 . S
C1217 C1201 1.349 . S
C1217 H1209 0.950 . S
C1217 C1215 1.327 . S
C1218 C1206 1.349 . S
C1218 H1212 0.950 . S
C1218 C1219 1.327 . S
C1219 H1213 0.950 . S
C1219 C1218 1.327 . S
C1219 C1223 1.429 . S
C1220 C1203 1.574 . S
C1220 H1214 0.949 . S
C1220 C1224 1.368 . S
C1221 C1202 1.429 . S
C1221 C1215 1.429 . S
C1221 C1222 1.523 . S
C1222 C1203 1.368 . S
C1222 C1216 1.368 . S
C1222 C1221 1.523 . S
C1223 C1207 1.429 . S
C1223 C1219 1.429 . S
C1223 C1224 1.523 . S
C1224 C1208 1.368 . S
C1224 C1220 1.368 . S
C1224 C1223 1.523 . S
H1225 C1200 0.950 . S
H1226 C1202 0.950 . S
H1227 C1203 0.949 . S
H1228 C1205 0.950 . S
H1229 C1207 0.950 . S
C1230 C1231 1.349 . S
C1230 C1232 1.327 . S
C1230 H1255 0.950 . S
C1231 C1230 1.349 . S
C1231 C1247 1.349 . S
C1232 C1230 1.327 . S
C1232 C1251 1.429 . S
C1232 H1256 0.950 . S
C1233 C1250 1.574 . S
C1233 C1252 1.368 . S
C1233 H1257 0.949 . S
H1234 C1238 0.949 . S
C1235 C1236 1.349 . S
C1235 C1237 1.327 1_655 S
C1235 H1258 0.950 . S
C1236 C1235 1.349 . S
C1236 C1248 1.349 1_655 S
C1237 C1235 1.327 1_455 S
C1237 C1253 1.429 . S
C1237 H1259 0.950 . S
C1238 H1234 0.949 . S
C1238 C1246 1.574 . S
C1238 C1254 1.368 . S
H1239 C1247 0.950 . S
H1240 C1245 0.950 . S
H1241 C1246 0.949 . S
H1242 C1248 0.950 . S
H1243 C1249 0.950 . S
H1244 C1250 0.949 . S
C1245 H1240 0.950 . S
C1245 C1247 1.327 . S
C1245 C1251 1.429 . S
C1246 C1238 1.574 . S
C1246 H1241 0.949 . S
C1246 C1252 1.368 . S
C1247 C1231 1.349 . S
C1247 H1239 0.950 . S
C1247 C1245 1.327 . S
C1248 C1236 1.349 1_455 S
C1248 H1242 0.950 . S
C1248 C1249 1.327 . S
C1249 H1243 0.950 . S
C1249 C1248 1.327 . S
C1249 C1253 1.429 . S
C1250 C1233 1.574 . S
C1250 H1244 0.949 . S
C1250 C1254 1.368 . S
C1251 C1232 1.429 . S
C1251 C1245 1.429 . S
C1251 C1252 1.523 . S
C1252 C1233 1.368 . S
C1252 C1246 1.368 . S
C1252 C1251 1.523 . S
C1253 C1237 1.429 . S
C1253 C1249 1.429 . S
C1253 C1254 1.523 . S
C1254 C1238 1.368 . S
C1254 C1250 1.368 . S
C1254 C1253 1.523 . S
H1255 C1230 0.950 . S
H1256 C1232 0.950 . S
H1257 C1233 0.949 . S
H1258 C1235 0.950 . S
H1259 C1237 0.950 . S
C1260 C1261 1.349 . S
C1260 C1262 1.327 . S
C1260 H1285 0.950 . S
C1261 C1260 1.349 . S
C1261 C1277 1.349 . S
C1262 C1260 1.327 . S
C1262 C1281 1.429 . S
C1262 H1286 0.950 . S
C1263 C1280 1.574 . S
C1263 C1282 1.368 . S
C1263 H1287 0.949 . S
H1264 C1268 0.949 . S
C1265 C1266 1.349 . S
C1265 C1267 1.327 . S
C1265 H1288 0.950 . S
C1266 C1265 1.349 . S
C1266 C1278 1.349 . S
C1267 C1265 1.327 . S
C1267 C1283 1.429 . S
C1267 H1289 0.950 . S
C1268 H1264 0.949 . S
C1268 C1276 1.574 . S
C1268 C1284 1.368 . S
H1269 C1277 0.950 . S
H1270 C1275 0.950 . S
H1271 C1276 0.949 . S
H1272 C1278 0.950 . S
H1273 C1279 0.950 . S
H1274 C1280 0.949 . S
C1275 H1270 0.950 . S
C1275 C1277 1.327 . S
C1275 C1281 1.429 . S
C1276 C1268 1.574 . S
C1276 H1271 0.949 . S
C1276 C1282 1.368 . S
C1277 C1261 1.349 . S
C1277 H1269 0.950 . S
C1277 C1275 1.327 . S
C1278 C1266 1.349 . S
C1278 H1272 0.950 . S
C1278 C1279 1.327 . S
C1279 H1273 0.950 . S
C1279 C1278 1.327 . S
C1279 C1283 1.429 . S
C1280 C1263 1.574 . S
C1280 H1274 0.949 . S
C1280 C1284 1.368 . S
C1281 C1262 1.429 . S
C1281 C1275 1.429 . S
C1281 C1282 1.523 . S
C1282 C1263 1.368 . S
C1282 C1276 1.368 . S
C1282 C1281 1.523 . S
C1283 C1267 1.429 . S
C1283 C1279 1.429 . S
C1283 C1284 1.523 . S
C1284 C1268 1.368 . S
C1284 C1280 1.368 . S
C1284 C1283 1.523 . S
H1285 C1260 0.950 . S
H1286 C1262 0.950 . S
H1287 C1263 0.949 . S
H1288 C1265 0.950 . S
H1289 C1267 0.950 . S
C1290 C1291 1.349 . S
C1290 C1292 1.327 . S
C1290 H1315 0.950 . S
C1291 C1290 1.349 . S
C1291 C1307 1.349 . S
C1292 C1290 1.327 . S
C1292 C1311 1.429 . S
C1292 H1316 0.950 . S
C1293 C1310 1.574 . S
C1293 C1312 1.368 . S
C1293 H1317 0.949 . S
H1294 C1298 0.949 . S
C1295 C1296 1.349 . S
C1295 C1297 1.327 . S
C1295 H1318 0.950 . S
C1296 C1295 1.349 . S
C1296 C1308 1.349 . S
C1297 C1295 1.327 . S
C1297 C1313 1.429 . S
C1297 H1319 0.950 . S
C1298 H1294 0.949 . S
C1298 C1306 1.574 1_455 S
C1298 C1314 1.368 . S
H1299 C1307 0.950 . S
H1300 C1305 0.950 . S
H1301 C1306 0.949 . S
H1302 C1308 0.950 . S
H1303 C1309 0.950 . S
H1304 C1310 0.949 . S
C1305 H1300 0.950 . S
C1305 C1307 1.327 . S
C1305 C1311 1.429 . S
C1306 C1298 1.574 1_655 S
C1306 H1301 0.949 . S
C1306 C1312 1.368 . S
C1307 C1291 1.349 . S
C1307 H1299 0.950 . S
C1307 C1305 1.327 . S
C1308 C1296 1.349 . S
C1308 H1302 0.950 . S
C1308 C1309 1.327 . S
C1309 H1303 0.950 . S
C1309 C1308 1.327 . S
C1309 C1313 1.429 . S
C1310 C1293 1.574 . S
C1310 H1304 0.949 . S
C1310 C1314 1.368 1_655 S
C1311 C1292 1.429 . S
C1311 C1305 1.429 . S
C1311 C1312 1.523 . S
C1312 C1293 1.368 . S
C1312 C1306 1.368 . S
C1312 C1311 1.523 . S
C1313 C1297 1.429 . S
C1313 C1309 1.429 . S
C1313 C1314 1.523 . S
C1314 C1298 1.368 . S
C1314 C1310 1.368 1_455 S
C1314 C1313 1.523 . S
H1315 C1290 0.950 . S
H1316 C1292 0.950 . S
H1317 C1293 0.949 . S
H1318 C1295 0.950 . S
H1319 C1297 0.950 . S
C1320 C1321 1.349 . S
C1320 C1322 1.327 . S
C1320 H1345 0.950 . S
C1321 C1320 1.349 . S
C1321 C1337 1.349 . S
C1322 C1320 1.327 . S
C1322 C1341 1.429 . S
C1322 H1346 0.950 . S
C1323 C1340 1.574 . S
C1323 C1342 1.368 . S
C1323 H1347 0.949 . S
H1324 C1328 0.949 . S
C1325 C1326 1.349 . S
C1325 C1327 1.327 . S
C1325 H1348 0.950 . S
C1326 C1325 1.349 . S
C1326 C1338 1.349 . S
C1327 C1325 1.327 . S
C1327 C1343 1.429 . S
C1327 H1349 0.950 . S
C1328 H1324 0.949 . S
C1328 C1336 1.574 . S
C1328 C1344 1.368 . S
H1329 C1337 0.950 . S
H1330 C1335 0.950 . S
H1331 C1336 0.949 . S
H1332 C1338 0.950 . S
H1333 C1339 0.950 . S
H1334 C1340 0.949 . S
C1335 H1330 0.950 . S
C1335 C1337 1.327 . S
C1335 C1341 1.429 . S
C1336 C1328 1.574 . S
C1336 H1331 0.949 . S
C1336 C1342 1.368 . S
C1337 C1321 1.349 . S
C1337 H1329 0.950 . S
C1337 C1335 1.327 . S
C1338 C1326 1.349 . S
C1338 H1332 0.950 . S
C1338 C1339 1.327 . S
C1339 H1333 0.950 . S
C1339 C1338 1.327 . S
C1339 C1343 1.429 . S
C1340 C1323 1.574 . S
C1340 H1334 0.949 . S
C1340 C1344 1.368 . S
C1341 C1322 1.429 . S
C1341 C1335 1.429 . S
C1341 C1342 1.523 . S
C1342 C1323 1.368 . S
C1342 C1336 1.368 . S
C1342 C1341 1.523 . S
C1343 C1327 1.429 . S
C1343 C1339 1.429 . S
C1343 C1344 1.523 . S
C1344 C1328 1.368 . S
C1344 C1340 1.368 . S
C1344 C1343 1.523 . S
H1345 C1320 0.950 . S
H1346 C1322 0.950 . S
H1347 C1323 0.949 . S
H1348 C1325 0.950 . S
H1349 C1327 0.950 . S
C1350 C1351 1.349 . S
C1350 C1352 1.327 1_554 S
C1350 H1375 0.950 . S
C1351 C1350 1.349 . S
C1351 C1367 1.349 . S
C1352 C1350 1.327 1_556 S
C1352 C1371 1.430 1_556 S
C1352 H1376 0.950 . S
C1353 C1370 1.574 . S
C1353 C1372 1.368 . S
C1353 H1377 0.949 1_556 S
H1354 C1358 0.949 . S
C1355 C1356 1.349 . S
C1355 C1357 1.327 . S
C1355 H1378 0.950 . S
C1356 C1355 1.349 . S
C1356 C1368 1.349 . S
C1357 C1355 1.327 . S
C1357 C1373 1.429 . S
C1357 H1379 0.950 . S
C1358 H1354 0.949 . S
C1358 C1366 1.574 . S
C1358 C1374 1.368 . S
H1359 C1367 0.950 . S
H1360 C1365 0.950 . S
H1361 C1366 0.949 . S
H1362 C1368 0.950 . S
H1363 C1369 0.950 . S
H1364 C1370 0.949 . S
C1365 H1360 0.950 . S
C1365 C1367 1.327 . S
C1365 C1371 1.423 . S
C1366 C1358 1.574 . S
C1366 H1361 0.949 . S
C1366 C1372 1.368 . S
C1367 C1351 1.349 . S
C1367 H1359 0.950 . S
C1367 C1365 1.327 . S
C1368 C1356 1.349 . S
C1368 H1362 0.950 . S
C1368 C1369 1.327 . S
C1369 H1363 0.950 . S
C1369 C1368 1.327 . S
C1369 C1373 1.429 . S
C1370 C1353 1.574 . S
C1370 H1364 0.949 . S
C1370 C1374 1.368 . S
C1371 C1352 1.430 1_554 S
C1371 C1365 1.423 . S
C1371 C1372 1.527 1_554 S
C1372 C1353 1.368 . S
C1372 C1366 1.368 . S
C1372 C1371 1.527 1_556 S
C1373 C1357 1.429 . S
C1373 C1369 1.429 . S
C1373 C1374 1.523 . S
C1374 C1358 1.368 . S
C1374 C1370 1.368 . S
C1374 C1373 1.523 . S
H1375 C1350 0.950 . S
H1376 C1352 0.950 . S
H1377 C1353 0.949 1_554 S
H1378 C1355 0.950 . S
H1379 C1357 0.950 . S
C1380 C1381 1.349 . S
C1380 C1382 1.327 . S
C1380 H1405 0.950 . S
C1381 C1380 1.349 . S
C1381 C1397 1.349 . S
C1382 C1380 1.327 . S
C1382 C1401 1.429 . S
C1382 H1406 0.950 . S
C1383 C1400 1.574 . S
C1383 C1402 1.368 . S
C1383 H1407 0.949 . S
H1384 C1388 0.949 . S
C1385 C1386 1.349 . S
C1385 C1387 1.327 . S
C1385 H1408 0.950 . S
C1386 C1385 1.349 . S
C1386 C1398 1.349 . S
C1387 C1385 1.327 . S
C1387 C1403 1.429 . S
C1387 H1409 0.950 . S
C1388 H1384 0.949 . S
C1388 C1396 1.574 . S
C1388 C1404 1.368 . S
H1389 C1397 0.950 . S
H1390 C1395 0.950 . S
H1391 C1396 0.949 . S
H1392 C1398 0.950 . S
H1393 C1399 0.950 . S
H1394 C1400 0.949 . S
C1395 H1390 0.950 . S
C1395 C1397 1.327 . S
C1395 C1401 1.429 . S
C1396 C1388 1.574 . S
C1396 H1391 0.949 . S
C1396 C1402 1.368 . S
C1397 C1381 1.349 . S
C1397 H1389 0.950 . S
C1397 C1395 1.327 . S
C1398 C1386 1.349 . S
C1398 H1392 0.950 . S
C1398 C1399 1.327 . S
C1399 H1393 0.950 . S
C1399 C1398 1.327 . S
C1399 C1403 1.429 . S
C1400 C1383 1.574 . S
C1400 H1394 0.949 . S
C1400 C1404 1.368 . S
C1401 C1382 1.429 . S
C1401 C1395 1.429 . S
C1401 C1402 1.523 . S
C1402 C1383 1.368 . S
C1402 C1396 1.368 . S
C1402 C1401 1.523 . S
C1403 C1387 1.429 . S
C1403 C1399 1.429 . S
C1403 C1404 1.523 . S
C1404 C1388 1.368 . S
C1404 C1400 1.368 . S
C1404 C1403 1.523 . S
H1405 C1380 0.950 . S
H1406 C1382 0.950 . S
H1407 C1383 0.949 . S
H1408 C1385 0.950 . S
H1409 C1387 0.950 . S
C1410 C1411 1.349 . S
C1410 C1412 1.327 . S
C1410 H1435 0.950 . S
C1411 C1410 1.349 . S
C1411 C1427 1.349 . S
C1412 C1410 1.327 . S
C1412 C1431 1.429 . S
C1412 H1436 0.950 . S
C1413 C1430 1.574 1_554 S
C1413 C1432 1.368 . S
C1413 H1437 0.949 . S
H1414 C1418 0.949 . S
C1415 C1416 1.349 . S
C1415 C1417 1.327 . S
C1415 H1438 0.950 . S
C1416 C1415 1.349 . S
C1416 C1428 1.349 . S
C1417 C1415 1.327 . S
C1417 C1433 1.429 . S
C1417 H1439 0.950 . S
C1418 H1414 0.949 . S
C1418 C1426 1.574 1_556 S
C1418 C1434 1.368 . S
H1419 C1427 0.950 . S
H1420 C1425 0.950 . S
H1421 C1426 0.949 . S
H1422 C1428 0.950 . S
H1423 C1429 0.950 . S
H1424 C1430 0.949 . S
C1425 H1420 0.950 . S
C1425 C1427 1.327 . S
C1425 C1431 1.429 . S
C1426 C1418 1.574 1_554 S
C1426 H1421 0.949 . S
C1426 C1432 1.368 . S
C1427 C1411 1.349 . S
C1427 H1419 0.950 . S
C1427 C1425 1.327 . S
C1428 C1416 1.349 . S
C1428 H1422 0.950 . S
C1428 C1429 1.327 . S
C1429 H1423 0.950 . S
C1429 C1428 1.327 . S
C1429 C1433 1.429 . S
C1430 C1413 1.574 1_556 S
C1430 H1424 0.949 . S
C1430 C1434 1.368 . S
C1431 C1412 1.429 . S
C1431 C1425 1.429 . S
C1431 C1432 1.523 . S
C1432 C1413 1.368 . S
C1432 C1426 1.368 . S
C1432 C1431 1.523 . S
C1433 C1417 1.429 . S
C1433 C1429 1.429 . S
C1433 C1434 1.523 . S
C1434 C1418 1.368 . S
C1434 C1430 1.368 . S
C1434 C1433 1.523 . S
H1435 C1410 0.950 . S
H1436 C1412 0.950 . S
H1437 C1413 0.949 . S
H1438 C1415 0.950 . S
H1439 C1417 0.950 . S
C1440 C1441 1.349 . S
C1440 C1442 1.327 . S
C1440 H1465 0.950 . S
C1441 C1440 1.349 . S
C1441 C1457 1.349 . S
C1442 C1440 1.327 . S
C1442 C1461 1.429 . S
C1442 H1466 0.950 . S
C1443 C1460 1.574 . S
C1443 C1462 1.368 . S
C1443 H1467 0.949 . S
H1444 C1448 0.949 . S
C1445 C1446 1.349 . S
C1445 C1447 1.327 . S
C1445 H1468 0.950 . S
C1446 C1445 1.349 . S
C1446 C1458 1.349 . S
C1447 C1445 1.327 . S
C1447 C1463 1.429 . S
C1447 H1469 0.950 . S
C1448 H1444 0.949 . S
C1448 C1456 1.574 . S
C1448 C1464 1.368 . S
H1449 C1457 0.950 . S
H1450 C1455 0.950 . S
H1451 C1456 0.949 . S
H1452 C1458 0.950 . S
H1453 C1459 0.950 . S
H1454 C1460 0.949 . S
C1455 H1450 0.950 . S
C1455 C1457 1.327 . S
C1455 C1461 1.429 . S
C1456 C1448 1.574 . S
C1456 H1451 0.949 . S
C1456 C1462 1.368 . S
C1457 C1441 1.349 . S
C1457 H1449 0.950 . S
C1457 C1455 1.327 . S
C1458 C1446 1.349 . S
C1458 H1452 0.950 . S
C1458 C1459 1.327 . S
C1459 H1453 0.950 . S
C1459 C1458 1.327 . S
C1459 C1463 1.429 . S
C1460 C1443 1.574 . S
C1460 H1454 0.949 . S
C1460 C1464 1.368 . S
C1461 C1442 1.429 . S
C1461 C1455 1.429 . S
C1461 C1462 1.523 . S
C1462 C1443 1.368 . S
C1462 C1456 1.368 . S
C1462 C1461 1.523 . S
C1463 C1447 1.429 . S
C1463 C1459 1.429 . S
C1463 C1464 1.523 . S
C1464 C1448 1.368 . S
C1464 C1460 1.368 . S
C1464 C1463 1.523 . S
H1465 C1440 0.950 . S
H1466 C1442 0.950 . S
H1467 C1443 0.949 . S
H1468 C1445 0.950 . S
H1469 C1447 0.950 . S
C1470 C1471 1.349 . S
C1470 C1472 1.327 . S
C1470 H1495 0.950 . S
C1471 C1470 1.349 . S
C1471 C1487 1.349 . S
C1472 C1470 1.327 . S
C1472 C1491 1.429 . S
C1472 H1496 0.950 . S
C1473 C1490 1.574 . S
C1473 C1492 1.368 . S
C1473 H1497 0.949 . S
H1474 C1478 0.949 . S
C1475 C1476 1.349 . S
C1475 C1477 1.327 . S
C1475 H1498 0.950 . S
C1476 C1475 1.349 . S
C1476 C1488 1.349 . S
C1477 C1475 1.327 . S
C1477 C1493 1.429 . S
C1477 H1499 0.950 . S
C1478 H1474 0.949 . S
C1478 C1486 1.574 1_554 S
C1478 C1494 1.368 . S
H1479 C1487 0.950 . S
H1480 C1485 0.950 1_554 S
H1481 C1486 0.949 . S
H1482 C1488 0.950 . S
H1483 C1489 0.950 . S
H1484 C1490 0.949 . S
C1485 H1480 0.950 1_556 S
C1485 C1487 1.327 . S
C1485 C1491 1.429 . S
C1486 C1478 1.574 1_556 S
C1486 H1481 0.949 . S
C1486 C1492 1.368 1_556 S
C1487 C1471 1.349 . S
C1487 H1479 0.950 . S
C1487 C1485 1.327 . S
C1488 C1476 1.349 . S
C1488 H1482 0.950 . S
C1488 C1489 1.327 . S
C1489 H1483 0.950 . S
C1489 C1488 1.327 . S
C1489 C1493 1.429 . S
C1490 C1473 1.574 . S
C1490 H1484 0.949 . S
C1490 C1494 1.368 . S
C1491 C1472 1.429 . S
C1491 C1485 1.429 . S
C1491 C1492 1.523 1_556 S
C1492 C1473 1.368 . S
C1492 C1486 1.368 1_554 S
C1492 C1491 1.523 1_554 S
C1493 C1477 1.429 . S
C1493 C1489 1.429 . S
C1493 C1494 1.523 . S
C1494 C1478 1.368 . S
C1494 C1490 1.368 . S
C1494 C1493 1.523 . S
H1495 C1470 0.950 . S
H1496 C1472 0.950 . S
H1497 C1473 0.949 . S
H1498 C1475 0.950 . S
H1499 C1477 0.950 . S
C1500 C1501 1.349 . S
C1500 C1502 1.327 . S
C1500 H1525 0.950 . S
C1501 C1500 1.349 . S
C1501 C1517 1.349 . S
C1502 C1500 1.327 . S
C1502 C1521 1.429 . S
C1502 H1526 0.950 . S
C1503 C1520 1.574 . S
C1503 C1522 1.368 . S
C1503 H1527 0.949 . S
H1504 C1508 0.949 . S
C1505 C1506 1.349 . S
C1505 C1507 1.327 . S
C1505 H1528 0.950 . S
C1506 C1505 1.349 . S
C1506 C1518 1.349 . S
C1507 C1505 1.327 . S
C1507 C1523 1.429 . S
C1507 H1529 0.950 . S
C1508 H1504 0.949 . S
C1508 C1516 1.574 . S
C1508 C1524 1.368 . S
H1509 C1517 0.950 . S
H1510 C1515 0.950 . S
H1511 C1516 0.949 . S
H1512 C1518 0.950 . S
H1513 C1519 0.950 . S
H1514 C1520 0.949 . S
C1515 H1510 0.950 . S
C1515 C1517 1.327 . S
C1515 C1521 1.429 . S
C1516 C1508 1.574 . S
C1516 H1511 0.949 . S
C1516 C1522 1.368 . S
C1517 C1501 1.349 . S
C1517 H1509 0.950 . S
C1517 C1515 1.327 . S
C1518 C1506 1.349 . S
C1518 H1512 0.950 . S
C1518 C1519 1.327 . S
C1519 H1513 0.950 . S
C1519 C1518 1.327 . S
C1519 C1523 1.429 . S
C1520 C1503 1.574 . S
C1520 H1514 0.949 . S
C1520 C1524 1.368 . S
C1521 C1502 1.429 . S
C1521 C1515 1.429 . S
C1521 C1522 1.523 . S
C1522 C1503 1.368 . S
C1522 C1516 1.368 . S
C1522 C1521 1.523 . S
C1523 C1507 1.429 . S
C1523 C1519 1.429 . S
C1523 C1524 1.523 . S
C1524 C1508 1.368 . S
C1524 C1520 1.368 . S
C1524 C1523 1.523 . S
H1525 C1500 0.950 . S
H1526 C1502 0.950 . S
H1527 C1503 0.949 . S
H1528 C1505 0.950 . S
H1529 C1507 0.950 . S
C1530 C1531 1.349 . S
C1530 C1532 1.327 . S
C1530 H1555 0.950 . S
C1531 C1530 1.349 . S
C1531 C1547 1.349 . S
C1532 C1530 1.327 . S
C1532 C1551 1.429 . S
C1532 H1556 0.950 . S
C1533 C1550 1.574 . S
C1533 C1552 1.368 . S
C1533 H1557 0.949 . S
H1534 C1538 0.949 . S
C1535 C1536 1.349 . S
C1535 C1537 1.327 . S
C1535 H1558 0.950 . S
C1536 C1535 1.349 . S
C1536 C1548 1.349 . S
C1537 C1535 1.327 . S
C1537 C1553 1.429 . S
C1537 H1559 0.950 . S
C1538 H1534 0.949 . S
C1538 C1546 1.574 . S
C1538 C1554 1.368 . S
H1539 C1547 0.950 . S
H1540 C1545 0.950 . S
H1541 C1546 0.979 . S
H1542 C1548 0.950 . S
H1543 C1549 0.950 . S
H1544 C1550 0.949 . S
C1545 H1540 0.950 . S
C1545 C1547 1.327 . S
C1545 C1551 1.429 . S
C1546 C1538 1.574 . S
C1546 H1541 0.979 . S
C1546 C1552 1.368 . S
C1547 C1531 1.349 . S
C1547 H1539 0.950 . S
C1547 C1545 1.327 . S
C1548 C1536 1.349 . S
C1548 H1542 0.950 . S
C1548 C1549 1.327 . S
C1549 H1543 0.950 . S
C1549 C1548 1.327 . S
C1549 C1553 1.429 . S
C1550 C1533 1.574 . S
C1550 H1544 0.949 . S
C1550 C1554 1.368 . S
C1551 C1532 1.429 . S
C1551 C1545 1.429 . S
C1551 C1552 1.523 1_556 S
C1552 C1533 1.368 . S
C1552 C1546 1.368 . S
C1552 C1551 1.523 1_554 S
C1553 C1537 1.429 . S
C1553 C1549 1.429 . S
C1553 C1554 1.523 . S
C1554 C1538 1.368 . S
C1554 C1550 1.368 . S
C1554 C1553 1.523 . S
H1555 C1530 0.950 . S
H1556 C1532 0.950 . S
H1557 C1533 0.949 . S
H1558 C1535 0.950 . S
H1559 C1537 0.950 . S
C1560 C1561 1.349 . S
C1560 C1562 1.327 . S
C1560 H1585 0.950 . S
C1561 C1560 1.349 . S
C1561 C1577 1.349 . S
C1562 C1560 1.327 . S
C1562 C1581 1.429 . S
C1562 H1586 0.950 . S
C1563 C1580 1.574 . S
C1563 C1582 1.368 . S
C1563 H1587 0.949 . S
H1564 C1568 0.949 . S
C1565 C1566 1.349 . S
C1565 C1567 1.327 . S
C1565 H1588 0.950 . S
C1566 C1565 1.349 . S
C1566 C1578 1.349 . S
C1567 C1565 1.327 . S
C1567 C1583 1.429 . S
C1567 H1589 0.950 . S
C1568 H1564 0.949 . S
C1568 C1576 1.574 . S
C1568 C1584 1.368 . S
H1569 C1577 0.950 . S
H1570 C1575 0.950 . S
H1571 C1576 0.949 . S
H1572 C1578 0.950 . S
H1573 C1579 0.950 . S
H1574 C1580 0.949 . S
C1575 H1570 0.950 . S
C1575 C1577 1.327 . S
C1575 C1581 1.429 . S
C1576 C1568 1.574 . S
C1576 H1571 0.949 . S
C1576 C1582 1.368 . S
C1577 C1561 1.349 . S
C1577 H1569 0.950 . S
C1577 C1575 1.327 . S
C1578 C1566 1.349 . S
C1578 H1572 0.950 . S
C1578 C1579 1.327 . S
C1579 H1573 0.950 . S
C1579 C1578 1.327 . S
C1579 C1583 1.429 . S
C1580 C1563 1.574 . S
C1580 H1574 0.949 . S
C1580 C1584 1.368 . S
C1581 C1562 1.429 . S
C1581 C1575 1.429 . S
C1581 C1582 1.523 . S
C1582 C1563 1.368 . S
C1582 C1576 1.368 . S
C1582 C1581 1.523 . S
C1583 C1567 1.429 . S
C1583 C1579 1.429 . S
C1583 C1584 1.523 . S
C1584 C1568 1.368 . S
C1584 C1580 1.368 . S
C1584 C1583 1.523 . S
H1585 C1560 0.950 . S
H1586 C1562 0.950 . S
H1587 C1563 0.949 . S
H1588 C1565 0.950 . S
H1589 C1567 0.950 . S
C1590 C1591 1.349 . S
C1590 C1592 1.327 . S
C1590 H1615 0.950 . S
C1591 C1590 1.349 . S
C1591 C1607 1.349 . S
C1592 C1590 1.327 . S
C1592 C1611 1.429 . S
C1592 H1616 0.950 . S
C1593 C1610 1.574 . S
C1593 C1612 1.368 . S
C1593 H1617 0.949 . S
H1594 C1598 0.949 . S
C1595 C1596 1.349 . S
C1595 C1597 1.327 . S
C1595 H1618 0.950 . S
C1596 C1595 1.349 . S
C1596 C1608 1.349 . S
C1597 C1595 1.327 . S
C1597 C1613 1.429 . S
C1597 H1619 0.950 . S
C1598 H1594 0.949 . S
C1598 C1606 1.574 . S
C1598 C1614 1.368 . S
H1599 C1607 0.950 . S
H1600 C1605 0.950 . S
H1601 C1606 0.949 . S
H1602 C1608 0.950 . S
H1603 C1609 0.950 . S
H1604 C1610 0.949 . S
C1605 H1600 0.950 . S
C1605 C1607 1.327 . S
C1605 C1611 1.429 . S
C1606 C1598 1.574 . S
C1606 H1601 0.949 . S
C1606 C1612 1.368 . S
C1607 C1591 1.349 . S
C1607 H1599 0.950 . S
C1607 C1605 1.327 . S
C1608 C1596 1.349 . S
C1608 H1602 0.950 . S
C1608 C1609 1.327 . S
C1609 H1603 0.950 . S
C1609 C1608 1.327 . S
C1609 C1613 1.429 . S
C1610 C1593 1.574 . S
C1610 H1604 0.949 . S
C1610 C1614 1.368 . S
C1611 C1592 1.429 . S
C1611 C1605 1.429 . S
C1611 C1612 1.523 . S
C1612 C1593 1.368 . S
C1612 C1606 1.368 . S
C1612 C1611 1.523 . S
C1613 C1597 1.429 . S
C1613 C1609 1.429 . S
C1613 C1614 1.523 . S
C1614 C1598 1.368 . S
C1614 C1610 1.368 . S
C1614 C1613 1.523 . S
H1615 C1590 0.950 . S
H1616 C1592 0.950 . S
H1617 C1593 0.949 . S
H1618 C1595 0.950 . S
H1619 C1597 0.950 . S
C1620 C1621 1.349 . S
C1620 C1622 1.327 . S
C1620 H1645 0.950 . S
C1621 C1620 1.349 . S
C1621 C1637 1.349 . S
C1622 C1620 1.327 . S
C1622 C1641 1.429 . S
C1622 H1646 0.950 . S
C1623 C1640 1.574 . S
C1623 C1642 1.368 . S
C1623 H1647 0.949 . S
H1624 C1628 0.949 . S
C1625 C1626 1.349 . S
C1625 C1627 1.327 . S
C1625 H1648 0.950 . S
C1626 C1625 1.349 . S
C1626 C1638 1.349 . S
C1627 C1625 1.327 . S
C1627 C1643 1.429 . S
C1627 H1649 0.950 . S
C1628 H1624 0.949 . S
C1628 C1636 1.574 . S
C1628 C1644 1.368 . S
H1629 C1637 0.950 . S
H1630 C1635 0.950 . S
H1631 C1636 0.949 . S
H1632 C1638 0.950 . S
H1633 C1639 0.950 . S
H1634 C1640 0.949 . S
C1635 H1630 0.950 . S
C1635 C1637 1.327 . S
C1635 C1641 1.429 . S
C1636 C1628 1.574 . S
C1636 H1631 0.949 . S
C1636 C1642 1.368 . S
C1637 C1621 1.349 . S
C1637 H1629 0.950 . S
C1637 C1635 1.327 . S
C1638 C1626 1.349 . S
C1638 H1632 0.950 . S
C1638 C1639 1.327 . S
C1639 H1633 0.950 . S
C1639 C1638 1.327 . S
C1639 C1643 1.429 . S
C1640 C1623 1.574 . S
C1640 H1634 0.949 . S
C1640 C1644 1.368 . S
C1641 C1622 1.429 . S
C1641 C1635 1.429 . S
C1641 C1642 1.523 . S
C1642 C1623 1.368 . S
C1642 C1636 1.368 . S
C1642 C1641 1.523 . S
C1643 C1627 1.429 . S
C1643 C1639 1.429 . S
C1643 C1644 1.523 . S
C1644 C1628 1.368 . S
C1644 C1640 1.368 . S
C1644 C1643 1.523 . S
H1645 C1620 0.950 . S
H1646 C1622 0.950 . S
H1647 C1623 0.949 . S
H1648 C1625 0.950 . S
H1649 C1627 0.950 . S
C1650 C1651 1.349 . S
C1650 C1652 1.327 . S
C1650 H1675 0.950 . S
C1651 C1650 1.349 . S
C1651 C1667 1.349 . S
C1652 C1650 1.327 . S
C1652 C1671 1.429 . S
C1652 H1676 0.950 . S
C1653 C1670 1.574 . S
C1653 C1672 1.368 . S
C1653 H1677 0.949 . S
H1654 C1658 0.949 . S
C1655 C1656 1.349 . S
C1655 C1657 1.327 . S
C1655 H1678 0.950 . S
C1656 C1655 1.349 . S
C1656 C1668 1.349 . S
C1657 C1655 1.327 . S
C1657 C1673 1.429 . S
C1657 H1679 0.950 . S
C1658 H1654 0.949 . S
C1658 C1666 1.574 . S
C1658 C1674 1.368 . S
H1659 C1667 0.950 . S
H1660 C1665 0.950 . S
H1661 C1666 0.949 . S
H1662 C1668 0.950 . S
H1663 C1669 0.950 . S
H1664 C1670 0.949 . S
C1665 H1660 0.950 . S
C1665 C1667 1.327 . S
C1665 C1671 1.429 . S
C1666 C1658 1.574 . S
C1666 H1661 0.949 . S
C1666 C1672 1.368 . S
C1667 C1651 1.349 . S
C1667 H1659 0.950 . S
C1667 C1665 1.327 . S
C1668 C1656 1.349 . S
C1668 H1662 0.950 . S
C1668 C1669 1.327 . S
C1669 H1663 0.950 . S
C1669 C1668 1.327 . S
C1669 C1673 1.429 . S
C1670 C1653 1.574 . S
C1670 H1664 0.949 . S
C1670 C1674 1.368 . S
C1671 C1652 1.429 . S
C1671 C1665 1.429 . S
C1671 C1672 1.523 . S
C1672 C1653 1.368 . S
C1672 C1666 1.368 . S
C1672 C1671 1.523 . S
C1673 C1657 1.429 . S
C1673 C1669 1.429 . S
C1673 C1674 1.523 . S
C1674 C1658 1.368 . S
C1674 C1670 1.368 . S
C1674 C1673 1.523 . S
H1675 C1650 0.950 . S
H1676 C1652 0.950 . S
H1677 C1653 0.949 . S
H1678 C1655 0.950 . S
H1679 C1657 0.950 . S
C1680 C1681 1.349 . S
C1680 C1682 1.327 . S
C1680 H1705 0.950 . S
C1681 C1680 1.349 . S
C1681 C1697 1.349 . S
C1682 C1680 1.327 . S
C1682 C1701 1.429 . S
C1682 H1706 0.950 . S
C1683 C1700 1.574 . S
C1683 C1702 1.368 . S
C1683 H1707 0.949 . S
H1684 C1688 0.949 . S
C1685 C1686 1.349 . S
C1685 C1687 1.327 . S
C1685 H1708 0.950 . S
C1686 C1685 1.349 . S
C1686 C1698 1.349 . S
C1687 C1685 1.327 . S
C1687 C1703 1.429 . S
C1687 H1709 0.950 . S
C1688 H1684 0.949 . S
C1688 C1696 1.574 . S
C1688 C1704 1.368 . S
H1689 C1697 0.950 . S
H1690 C1695 0.950 . S
H1691 C1696 0.949 . S
H1692 C1698 0.950 . S
H1693 C1699 0.950 . S
H1694 C1700 0.949 . S
C1695 H1690 0.950 . S
C1695 C1697 1.327 . S
C1695 C1701 1.429 . S
C1696 C1688 1.574 . S
C1696 H1691 0.949 . S
C1696 C1702 1.368 . S
C1697 C1681 1.349 . S
C1697 H1689 0.950 . S
C1697 C1695 1.327 . S
C1698 C1686 1.349 . S
C1698 H1692 0.950 . S
C1698 C1699 1.327 . S
C1699 H1693 0.950 . S
C1699 C1698 1.327 . S
C1699 C1703 1.429 . S
C1700 C1683 1.574 . S
C1700 H1694 0.949 . S
C1700 C1704 1.368 . S
C1701 C1682 1.429 . S
C1701 C1695 1.429 . S
C1701 C1702 1.523 . S
C1702 C1683 1.368 . S
C1702 C1696 1.368 . S
C1702 C1701 1.523 . S
C1703 C1687 1.429 . S
C1703 C1699 1.429 . S
C1703 C1704 1.523 . S
C1704 C1688 1.368 . S
C1704 C1700 1.368 . S
C1704 C1703 1.523 . S
H1705 C1680 0.950 . S
H1706 C1682 0.950 . S
H1707 C1683 0.949 . S
H1708 C1685 0.950 . S
H1709 C1687 0.950 . S
C1710 C1711 1.349 . S
C1710 C1712 1.327 . S
C1710 H1735 0.950 . S
C1711 C1710 1.349 . S
C1711 C1727 1.349 . S
C1712 C1710 1.327 . S
C1712 C1731 1.429 . S
C1712 H1736 0.950 . S
C1713 C1730 1.574 . S
C1713 C1732 1.368 . S
C1713 H1737 0.949 . S
H1714 C1718 0.949 . S
C1715 C1716 1.349 . S
C1715 C1717 1.327 . S
C1715 H1738 0.950 . S
C1716 C1715 1.349 . S
C1716 C1728 1.349 . S
C1717 C1715 1.327 . S
C1717 C1733 1.429 . S
C1717 H1739 0.950 . S
C1718 H1714 0.949 . S
C1718 C1726 1.574 . S
C1718 C1734 1.368 . S
H1719 C1727 0.950 . S
H1720 C1725 0.950 . S
H1721 C1726 0.949 . S
H1722 C1728 0.950 . S
H1723 C1729 0.950 . S
H1724 C1730 0.949 . S
C1725 H1720 0.950 . S
C1725 C1727 1.327 . S
C1725 C1731 1.429 . S
C1726 C1718 1.574 . S
C1726 H1721 0.949 . S
C1726 C1732 1.368 . S
C1727 C1711 1.349 . S
C1727 H1719 0.950 . S
C1727 C1725 1.327 . S
C1728 C1716 1.349 . S
C1728 H1722 0.950 . S
C1728 C1729 1.327 . S
C1729 H1723 0.950 . S
C1729 C1728 1.327 . S
C1729 C1733 1.429 . S
C1730 C1713 1.574 . S
C1730 H1724 0.949 . S
C1730 C1734 1.368 . S
C1731 C1712 1.429 . S
C1731 C1725 1.429 . S
C1731 C1732 1.523 . S
C1732 C1713 1.368 . S
C1732 C1726 1.368 . S
C1732 C1731 1.523 . S
C1733 C1717 1.429 . S
C1733 C1729 1.429 . S
C1733 C1734 1.523 . S
C1734 C1718 1.368 . S
C1734 C1730 1.368 . S
C1734 C1733 1.523 . S
H1735 C1710 0.950 . S
H1736 C1712 0.950 . S
H1737 C1713 0.949 . S
H1738 C1715 0.950 . S
H1739 C1717 0.950 . S
C1740 C1741 1.349 . S
C1740 C1742 1.327 . S
C1740 H1765 0.950 . S
C1741 C1740 1.349 . S
C1741 C1757 1.349 . S
C1742 C1740 1.327 . S
C1742 C1761 1.429 . S
C1742 H1766 0.950 . S
C1743 C1760 1.574 . S
C1743 C1762 1.368 . S
C1743 H1767 0.949 . S
H1744 C1748 0.949 . S
C1745 C1746 1.349 . S
C1745 C1747 1.327 . S
C1745 H1768 0.950 . S
C1746 C1745 1.349 . S
C1746 C1758 1.349 . S
C1747 C1745 1.327 . S
C1747 C1763 1.429 . S
C1747 H1769 0.950 . S
C1748 H1744 0.949 . S
C1748 C1756 1.574 . S
C1748 C1764 1.368 . S
H1749 C1757 0.950 . S
H1750 C1755 0.950 . S
H1751 C1756 0.949 . S
H1752 C1758 0.950 . S
H1753 C1759 0.950 . S
H1754 C1760 0.949 . S
C1755 H1750 0.950 . S
C1755 C1757 1.327 . S
C1755 C1761 1.429 . S
C1756 C1748 1.574 . S
C1756 H1751 0.949 . S
C1756 C1762 1.368 . S
C1757 C1741 1.349 . S
C1757 H1749 0.950 . S
C1757 C1755 1.327 . S
C1758 C1746 1.349 . S
C1758 H1752 0.950 . S
C1758 C1759 1.327 . S
C1759 H1753 0.950 . S
C1759 C1758 1.327 . S
C1759 C1763 1.429 . S
C1760 C1743 1.574 . S
C1760 H1754 0.949 . S
C1760 C1764 1.368 . S
C1761 C1742 1.429 . S
C1761 C1755 1.429 . S
C1761 C1762 1.523 . S
C1762 C1743 1.368 . S
C1762 C1756 1.368 . S
C1762 C1761 1.523 . S
C1763 C1747 1.429 . S
C1763 C1759 1.429 . S
C1763 C1764 1.523 . S
C1764 C1748 1.368 . S
C1764 C1760 1.368 . S
C1764 C1763 1.523 . S
H1765 C1740 0.950 . S
H1766 C1742 0.950 . S
H1767 C1743 0.949 . S
H1768 C1745 0.950 . S
H1769 C1747 0.950 . S
C1770 C1771 1.349 . S
C1770 C1772 1.327 . S
C1770 H1795 0.950 . S
C1771 C1770 1.349 . S
C1771 C1787 1.349 . S
C1772 C1770 1.327 . S
C1772 C1791 1.429 . S
C1772 H1796 0.950 . S
C1773 C1790 1.574 . S
C1773 C1792 1.368 . S
C1773 H1797 0.949 . S
H1774 C1778 0.949 . S
C1775 C1776 1.349 . S
C1775 C1777 1.327 1_565 S
C1775 H1798 0.950 . S
C1776 C1775 1.349 . S
C1776 C1788 1.349 1_565 S
C1777 C1775 1.327 1_545 S
C1777 C1793 1.429 . S
C1777 H1799 0.950 . S
C1778 H1774 0.949 . S
C1778 C1786 1.574 . S
C1778 C1794 1.368 . S
H1779 C1787 0.950 . S
H1780 C1785 0.950 . S
H1781 C1786 0.949 . S
H1782 C1788 0.950 . S
H1783 C1789 0.950 . S
H1784 C1790 0.949 . S
C1785 H1780 0.950 . S
C1785 C1787 1.327 . S
C1785 C1791 1.429 . S
C1786 C1778 1.574 . S
C1786 H1781 0.949 . S
C1786 C1792 1.368 . S
C1787 C1771 1.349 . S
C1787 H1779 0.950 . S
C1787 C1785 1.327 . S
C1788 C1776 1.349 1_545 S
C1788 H1782 0.950 . S
C1788 C1789 1.327 . S
C1789 H1783 0.950 . S
C1789 C1788 1.327 . S
C1789 C1793 1.429 . S
C1790 C1773 1.574 . S
C1790 H1784 0.949 . S
C1790 C1794 1.368 . S
C1791 C1772 1.429 . S
C1791 C1785 1.429 . S
C1791 C1792 1.523 . S
C1792 C1773 1.368 . S
C1792 C1786 1.368 . S
C1792 C1791 1.523 . S
C1793 C1777 1.429 . S
C1793 C1789 1.429 . S
C1793 C1794 1.523 . S
C1794 C1778 1.368 . S
C1794 C1790 1.368 . S
C1794 C1793 1.523 . S
H1795 C1770 0.950 . S
H1796 C1772 0.950 . S
H1797 C1773 0.949 . S
H1798 C1775 0.950 . S
H1799 C1777 0.950 . S
C366 C200 1.907 . S
C361 C66 1.919 . S
C396 C215 1.354 . S
C391 C76 1.362 . S
C421 C93 2.172 . S
C426 C228 2.159 . S
C456 C242 1.406 . S
C451 C54 1.406 . S
C486 C254 1.689 . S
C481 C126 1.781 . S
C516 C268 1.583 . S
C511 C150 1.606 . S
C541 C136 1.342 . S
C546 C282 1.335 . S
C576 C297 1.651 . S
C571 C117 1.710 . S
C601 C141 1.358 . S
C606 C313 1.336 . S
C636 C326 1.313 . S
C631 C112 1.302 . S
C661 C124 1.696 . S
C666 C311 1.637 . S
C696 C324 1.254 . S
C691 C148 1.246 . S
C721 C88 1.649 . S
C726 C340 1.639 . S
C751 C52 1.602 . S
C756 C339 1.589 . S
C781 C64 1.457 . S
C786 C338 1.421 . S
C811 C78 1.264 . S
C816 C341 1.244 1_655 S
C841 C45 2.018 . S
C846 C243 2.004 . S
C871 C177 1.824 . S
C876 C241 1.789 . S
C906 C201 1.296 . S
C901 C189 1.318 . S
C936 C212 1.860 . S
C931 C102 1.895 . S
C961 C57 1.645 . S
C966 C257 1.632 . S
C996 C298 1.955 . S
C991 C138 1.955 . S
C1026 C255 1.842 . S
C1021 C114 1.882 . S
C1056 C283 1.576 . S
C1051 C153 1.592 . S
C1086 C284 1.907 . S
C1081 C174 1.919 . S
C1111 C184 1.361 . S
C1116 C299 1.354 . S
C1141 C105 2.172 . S
C1146 C256 2.159 . S
C1176 C270 1.406 . S
C1171 C162 1.406 . S
C1201 C42 1.781 . S
C1206 C226 1.689 . S
C1236 C240 1.584 . S
C1231 C6 1.606 . S
C1266 C198 1.335 . S
C1261 C16 1.342 . S
C1296 C213 1.651 . S
C1291 C33 1.710 . S
C1321 C21 1.358 . S
C1326 C327 1.336 . S
C1351 C28 1.302 . S
C1356 C312 1.313 . S
C1381 C40 1.696 . S
C1386 C325 1.637 . S
C1411 C4 1.246 . S
C1416 C310 1.254 . S
C1446 C354 1.639 . S
C1441 C100 1.649 . S
C1476 C353 1.589 . S
C1471 C160 1.602 . S
C1506 C352 1.421 . S
C1501 C172 1.457 . S
C1531 C186 1.264 . S
C1536 C355 1.244 . S
C1561 C129 2.018 . S
C1566 C271 2.004 . S
C1596 C269 1.789 . S
C1591 C69 1.825 . S
C1626 C285 1.296 . S
C1621 C81 1.318 . S
C1656 C296 1.860 . S
C1651 C90 1.895 . S
C1681 C165 1.645 . S
C1686 C229 1.632 . S
C1716 C214 1.955 . S
C1711 C18 1.956 . S
C1741 C30 1.882 . S
C1746 C227 1.842 . S
C1776 C199 1.576 . S
C1771 C9 1.592 . S
