# Generated by pormake.
# Topology ptr, (4,4)-cn, num edge types: 1
# Building blocks:
#     Node 0, Type 0, BuildingBlock: GALJAG_clean_sbu_0, # of connection points: 4
#     Node 1, Type 0, BuildingBlock: GALJAG_clean_sbu_0, # of connection points: 4
#     Node 2, Type 0, BuildingBlock: GALJAG_clean_sbu_0, # of connection points: 4
#     Node 3, Type 0, BuildingBlock: GALJAG_clean_sbu_0, # of connection points: 4
#     Node 4, Type 0, BuildingBlock: GALJAG_clean_sbu_0, # of connection points: 4
#     Node 5, Type 0, BuildingBlock: GALJAG_clean_sbu_0, # of connection points: 4
#     Node 6, Type 0, BuildingBlock: GALJAG_clean_sbu_0, # of connection points: 4
#     Node 7, Type 0, BuildingBlock: GALJAG_clean_sbu_0, # of connection points: 4
#     Node 8, Type 0, BuildingBlock: GALJAG_clean_sbu_0, # of connection points: 4
#     Node 9, Type 0, BuildingBlock: GALJAG_clean_sbu_0, # of connection points: 4
#     Node 10, Type 0, BuildingBlock: GALJAG_clean_sbu_0, # of connection points: 4
#     Node 11, Type 0, BuildingBlock: GALJAG_clean_sbu_0, # of connection points: 4
#     Node 12, Type 0, BuildingBlock: GALJAG_clean_sbu_0, # of connection points: 4
#     Node 13, Type 0, BuildingBlock: GALJAG_clean_sbu_0, # of connection points: 4
#     Node 14, Type 0, BuildingBlock: GALJAG_clean_sbu_0, # of connection points: 4
#     Node 15, Type 0, BuildingBlock: GALJAG_clean_sbu_0, # of connection points: 4
#     Node 16, Type 0, BuildingBlock: GALJAG_clean_sbu_0, # of connection points: 4
#     Node 17, Type 0, BuildingBlock: GALJAG_clean_sbu_0, # of connection points: 4
#     Node 18, Type 1, BuildingBlock: NAHDIM_clean_linker_0, # of connection points: 4
#     Node 19, Type 1, BuildingBlock: NAHDIM_clean_linker_0, # of connection points: 4
#     Node 20, Type 1, BuildingBlock: NAHDIM_clean_linker_0, # of connection points: 4
#     Node 21, Type 1, BuildingBlock: NAHDIM_clean_linker_0, # of connection points: 4
#     Node 22, Type 1, BuildingBlock: NAHDIM_clean_linker_0, # of connection points: 4
#     Node 23, Type 1, BuildingBlock: NAHDIM_clean_linker_0, # of connection points: 4
#     Node 24, Type 1, BuildingBlock: NAHDIM_clean_linker_0, # of connection points: 4
#     Node 25, Type 1, BuildingBlock: NAHDIM_clean_linker_0, # of connection points: 4
#     Node 26, Type 1, BuildingBlock: NAHDIM_clean_linker_0, # of connection points: 4
#     Node 27, Type 1, BuildingBlock: NAHDIM_clean_linker_0, # of connection points: 4
#     Node 28, Type 1, BuildingBlock: NAHDIM_clean_linker_0, # of connection points: 4
#     Node 29, Type 1, BuildingBlock: NAHDIM_clean_linker_0, # of connection points: 4
#     Node 30, Type 1, BuildingBlock: NAHDIM_clean_linker_0, # of connection points: 4
#     Node 31, Type 1, BuildingBlock: NAHDIM_clean_linker_0, # of connection points: 4
#     Node 32, Type 1, BuildingBlock: NAHDIM_clean_linker_0, # of connection points: 4
#     Node 33, Type 1, BuildingBlock: NAHDIM_clean_linker_0, # of connection points: 4
#     Node 34, Type 1, BuildingBlock: NAHDIM_clean_linker_0, # of connection points: 4
#     Node 35, Type 1, BuildingBlock: NAHDIM_clean_linker_0, # of connection points: 4
#     Edge 36, Type (0, 1), BuildingBlock: EZIPEK_clean_linker_0, # of connection points: 2
#     Edge 37, Type (0, 1), BuildingBlock: EZIPEK_clean_linker_0, # of connection points: 2
#     Edge 38, Type (0, 1), BuildingBlock: EZIPEK_clean_linker_0, # of connection points: 2
#     Edge 39, Type (0, 1), BuildingBlock: EZIPEK_clean_linker_0, # of connection points: 2
#     Edge 40, Type (0, 1), BuildingBlock: EZIPEK_clean_linker_0, # of connection points: 2
#     Edge 41, Type (0, 1), BuildingBlock: EZIPEK_clean_linker_0, # of connection points: 2
#     Edge 42, Type (0, 1), BuildingBlock: EZIPEK_clean_linker_0, # of connection points: 2
#     Edge 43, Type (0, 1), BuildingBlock: EZIPEK_clean_linker_0, # of connection points: 2
#     Edge 44, Type (0, 1), BuildingBlock: EZIPEK_clean_linker_0, # of connection points: 2
#     Edge 45, Type (0, 1), BuildingBlock: EZIPEK_clean_linker_0, # of connection points: 2
#     Edge 46, Type (0, 1), BuildingBlock: EZIPEK_clean_linker_0, # of connection points: 2
#     Edge 47, Type (0, 1), BuildingBlock: EZIPEK_clean_linker_0, # of connection points: 2
#     Edge 48, Type (0, 1), BuildingBlock: EZIPEK_clean_linker_0, # of connection points: 2
#     Edge 49, Type (0, 1), BuildingBlock: EZIPEK_clean_linker_0, # of connection points: 2
#     Edge 50, Type (0, 1), BuildingBlock: EZIPEK_clean_linker_0, # of connection points: 2
#     Edge 51, Type (0, 1), BuildingBlock: EZIPEK_clean_linker_0, # of connection points: 2
#     Edge 52, Type (0, 1), BuildingBlock: EZIPEK_clean_linker_0, # of connection points: 2
#     Edge 53, Type (0, 1), BuildingBlock: EZIPEK_clean_linker_0, # of connection points: 2
#     Edge 54, Type (0, 1), BuildingBlock: EZIPEK_clean_linker_0, # of connection points: 2
#     Edge 55, Type (0, 1), BuildingBlock: EZIPEK_clean_linker_0, # of connection points: 2
#     Edge 56, Type (0, 1), BuildingBlock: EZIPEK_clean_linker_0, # of connection points: 2
#     Edge 57, Type (0, 1), BuildingBlock: EZIPEK_clean_linker_0, # of connection points: 2
#     Edge 58, Type (0, 1), BuildingBlock: EZIPEK_clean_linker_0, # of connection points: 2
#     Edge 59, Type (0, 1), BuildingBlock: EZIPEK_clean_linker_0, # of connection points: 2
#     Edge 60, Type (0, 1), BuildingBlock: EZIPEK_clean_linker_0, # of connection points: 2
#     Edge 61, Type (0, 1), BuildingBlock: EZIPEK_clean_linker_0, # of connection points: 2
#     Edge 62, Type (0, 1), BuildingBlock: EZIPEK_clean_linker_0, # of connection points: 2
#     Edge 63, Type (0, 1), BuildingBlock: EZIPEK_clean_linker_0, # of connection points: 2
#     Edge 64, Type (0, 1), BuildingBlock: EZIPEK_clean_linker_0, # of connection points: 2
#     Edge 65, Type (0, 1), BuildingBlock: EZIPEK_clean_linker_0, # of connection points: 2
#     Edge 66, Type (0, 1), BuildingBlock: EZIPEK_clean_linker_0, # of connection points: 2
#     Edge 67, Type (0, 1), BuildingBlock: EZIPEK_clean_linker_0, # of connection points: 2
#     Edge 68, Type (0, 1), BuildingBlock: EZIPEK_clean_linker_0, # of connection points: 2
#     Edge 69, Type (0, 1), BuildingBlock: EZIPEK_clean_linker_0, # of connection points: 2
#     Edge 70, Type (0, 1), BuildingBlock: EZIPEK_clean_linker_0, # of connection points: 2
#     Edge 71, Type (0, 1), BuildingBlock: EZIPEK_clean_linker_0, # of connection points: 2
#     Edge 72, Type (0, 1), BuildingBlock: EZIPEK_clean_linker_0, # of connection points: 2
#     Edge 73, Type (0, 1), BuildingBlock: EZIPEK_clean_linker_0, # of connection points: 2
#     Edge 74, Type (0, 1), BuildingBlock: EZIPEK_clean_linker_0, # of connection points: 2
#     Edge 75, Type (0, 1), BuildingBlock: EZIPEK_clean_linker_0, # of connection points: 2
#     Edge 76, Type (0, 1), BuildingBlock: EZIPEK_clean_linker_0, # of connection points: 2
#     Edge 77, Type (0, 1), BuildingBlock: EZIPEK_clean_linker_0, # of connection points: 2
#     Edge 78, Type (0, 1), BuildingBlock: EZIPEK_clean_linker_0, # of connection points: 2
#     Edge 79, Type (0, 1), BuildingBlock: EZIPEK_clean_linker_0, # of connection points: 2
#     Edge 80, Type (0, 1), BuildingBlock: EZIPEK_clean_linker_0, # of connection points: 2
#     Edge 81, Type (0, 1), BuildingBlock: EZIPEK_clean_linker_0, # of connection points: 2
#     Edge 82, Type (0, 1), BuildingBlock: EZIPEK_clean_linker_0, # of connection points: 2
#     Edge 83, Type (0, 1), BuildingBlock: EZIPEK_clean_linker_0, # of connection points: 2
#     Edge 84, Type (0, 1), BuildingBlock: EZIPEK_clean_linker_0, # of connection points: 2
#     Edge 85, Type (0, 1), BuildingBlock: EZIPEK_clean_linker_0, # of connection points: 2
#     Edge 86, Type (0, 1), BuildingBlock: EZIPEK_clean_linker_0, # of connection points: 2
#     Edge 87, Type (0, 1), BuildingBlock: EZIPEK_clean_linker_0, # of connection points: 2
#     Edge 88, Type (0, 1), BuildingBlock: EZIPEK_clean_linker_0, # of connection points: 2
#     Edge 89, Type (0, 1), BuildingBlock: EZIPEK_clean_linker_0, # of connection points: 2
#     Edge 90, Type (0, 1), BuildingBlock: EZIPEK_clean_linker_0, # of connection points: 2
#     Edge 91, Type (0, 1), BuildingBlock: EZIPEK_clean_linker_0, # of connection points: 2
#     Edge 92, Type (0, 1), BuildingBlock: EZIPEK_clean_linker_0, # of connection points: 2
#     Edge 93, Type (0, 1), BuildingBlock: EZIPEK_clean_linker_0, # of connection points: 2
#     Edge 94, Type (0, 1), BuildingBlock: EZIPEK_clean_linker_0, # of connection points: 2
#     Edge 95, Type (0, 1), BuildingBlock: EZIPEK_clean_linker_0, # of connection points: 2
#     Edge 96, Type (0, 1), BuildingBlock: EZIPEK_clean_linker_0, # of connection points: 2
#     Edge 97, Type (0, 1), BuildingBlock: EZIPEK_clean_linker_0, # of connection points: 2
#     Edge 98, Type (0, 1), BuildingBlock: EZIPEK_clean_linker_0, # of connection points: 2
#     Edge 99, Type (0, 1), BuildingBlock: EZIPEK_clean_linker_0, # of connection points: 2
#     Edge 100, Type (0, 1), BuildingBlock: EZIPEK_clean_linker_0, # of connection points: 2
#     Edge 101, Type (0, 1), BuildingBlock: EZIPEK_clean_linker_0, # of connection points: 2
#     Edge 102, Type (0, 1), BuildingBlock: EZIPEK_clean_linker_0, # of connection points: 2
#     Edge 103, Type (0, 1), BuildingBlock: EZIPEK_clean_linker_0, # of connection points: 2
#     Edge 104, Type (0, 1), BuildingBlock: EZIPEK_clean_linker_0, # of connection points: 2
#     Edge 105, Type (0, 1), BuildingBlock: EZIPEK_clean_linker_0, # of connection points: 2
#     Edge 106, Type (0, 1), BuildingBlock: EZIPEK_clean_linker_0, # of connection points: 2
#     Edge 107, Type (0, 1), BuildingBlock: EZIPEK_clean_linker_0, # of connection points: 2
# Relax obj value: 0.026
# Max RMSD: 0.105
# Mean RMSD: 0.052
data_MOF--net-ptr--node1-GALJAG_clean_sbu_0--node2-NAHDIM_clean_linker_0--edge1-EZIPEK_clean_linker_0
_symmetry_space_group_name_H-M    P1
_symmetry_Int_Tables_number       1
_symmetry_cell_setting            triclinic
loop_
_symmetry_equiv_pos_as_xyz
'x, y, z'
_cell_length_a     74.962275
_cell_length_b     74.635268
_cell_length_c     68.109415
_cell_angle_alpha  90.90918
_cell_angle_beta   90.619127
_cell_angle_gamma 120.02187
loop_
_atom_site_label
_atom_site_type_symbol
_atom_site_fract_x
_atom_site_fract_y
_atom_site_fract_z
_atom_type_partial_charge
In0 In 0.00204 0.34687 0.00868 0.0
O1 O 0.98358 0.35663 0.02827 0.0
O2 O 0.01625 0.37332 0.03128 0.0
C3 C 0.97186 0.31031 0.99457 0.0
C4 C 0.02387 0.33288 0.02813 0.0
C5 C 0.01086 0.36884 0.97558 0.0
O6 O 0.96884 0.32026 0.00805 0.0
O7 O 0.98996 0.31881 0.98817 0.0
O8 O 0.02307 0.36366 0.98304 0.0
O9 O 0.99474 0.36359 0.98512 0.0
C10 C 0.9993 0.37089 0.0371 0.0
O11 O 0.03256 0.34861 0.01752 0.0
O12 O 0.00457 0.3245 0.02891 0.0
In13 In 0.65527 0.65425 0.01102 0.0
O14 O 0.65757 0.63171 0.03164 0.0
O15 O 0.62893 0.63093 0.02957 0.0
C16 C 0.68978 0.6623 0.99209 0.0
C17 C 0.66541 0.68955 0.03129 0.0
C18 C 0.62578 0.63988 0.98256 0.0
O19 O 0.68037 0.64693 0.00296 0.0
O20 O 0.6819 0.67373 0.9908 0.0
O21 O 0.62613 0.65101 0.99683 0.0
O22 O 0.64017 0.63578 0.98263 0.0
C23 C 0.6392 0.62353 0.0371 0.0
O24 O 0.65733 0.68564 0.01432 0.0
O25 O 0.66884 0.67592 0.03803 0.0
In26 In 0.33925 0.0026 0.00417 0.0
O27 O 0.34884 0.03653 0.00177 0.0
O28 O 0.32413 0.01467 0.98316 0.0
C29 C 0.36408 0.00509 0.03416 0.0
C30 C 0.35611 0.99446 0.97322 0.0
C31 C 0.30203 0.97876 0.01969 0.0
O32 O 0.36071 0.01963 0.03034 0.0
O33 O 0.35499 0.98936 0.02293 0.0
O34 O 0.30921 0.97196 0.00674 0.0
O35 O 0.3135 0.99752 0.02467 0.0
C36 C 0.33562 0.03334 0.98851 0.0
O37 O 0.33841 0.98152 0.97909 0.0
O38 O 0.36528 0.01124 0.98302 0.0
In39 In 0.98783 0.65002 0.00931 0.0
O40 O 0.00904 0.64456 0.98952 0.0
O41 O 0.97644 0.62545 0.98507 0.0
C42 C 0.01432 0.68514 0.02875 0.0
C43 C 0.96775 0.66721 0.99195 0.0
C44 C 0.9763 0.62142 0.03713 0.0
O45 O 0.01943 0.67909 0.01348 0.0
O46 O 0.99636 0.67313 0.03453 0.0
O47 O 0.96334 0.62414 0.02752 0.0
O48 O 0.99484 0.63269 0.03237 0.0
C49 C 0.9943 0.63005 0.97977 0.0
O50 O 0.96109 0.65651 0.00717 0.0
O51 O 0.98356 0.66796 0.98491 0.0
In52 In 0.35762 0.35262 0.9983 0.0
O53 O 0.35794 0.38009 0.98384 0.0
O54 O 0.37756 0.3699 0.97218 0.0
C55 C 0.32488 0.34197 0.02091 0.0
C56 C 0.33974 0.3162 0.97798 0.0
C57 C 0.38773 0.36486 0.02614 0.0
O58 O 0.33011 0.35554 0.00796 0.0
O59 O 0.33642 0.33429 0.02285 0.0
O60 O 0.38423 0.35099 0.01338 0.0
O61 O 0.37661 0.37304 0.02449 0.0
C62 C 0.37065 0.38216 0.9709 0.0
O63 O 0.3578 0.32414 0.98512 0.0
O64 O 0.33147 0.32717 0.98013 0.0
In65 In 0.66188 7e-05 0.01191 0.0
O66 O 0.65839 0.02406 0.03026 0.0
O67 O 0.63935 0.99214 0.03653 0.0
C68 C 0.69874 0.02183 0.99539 0.0
C69 C 0.6725 0.9744 0.02851 0.0
C70 C 0.63499 0.99268 0.98216 0.0
O71 O 0.69296 0.02986 0.00856 0.0
O72 O 0.68574 0.00343 0.99039 0.0
O73 O 0.63335 0.97839 0.99302 0.0
O74 O 0.65002 0.01038 0.9863 0.0
C75 C 0.6442 0.0106 0.04052 0.0
O76 O 0.66007 0.9688 0.01397 0.0
O77 O 0.67868 0.99249 0.0352 0.0
In78 In 0.66315 0.67704 0.34259 0.0
O79 O 0.63519 0.67619 0.35653 0.0
O80 O 0.66486 0.69798 0.36819 0.0
C81 C 0.64416 0.64368 0.31827 0.0
C82 C 0.68084 0.66212 0.36678 0.0
C83 C 0.68178 0.70778 0.3168 0.0
O84 O 0.63438 0.65059 0.32767 0.0
O85 O 0.66342 0.65383 0.32083 0.0
O86 O 0.69176 0.70309 0.32863 0.0
O87 O 0.66247 0.6973 0.31818 0.0
C88 C 0.64562 0.69019 0.36923 0.0
O89 O 0.69126 0.67881 0.35785 0.0
O90 O 0.66165 0.65327 0.36381 0.0
In91 In 0.31692 0.98062 0.36001 0.0
O92 O 0.31802 0.95934 0.38293 0.0
O93 O 0.29065 0.961 0.38059 0.0
C94 C 0.3507 0.98622 0.34131 0.0
C95 C 0.32543 0.01711 0.37674 0.0
C96 C 0.29102 0.96389 0.32894 0.0
O97 O 0.34441 0.97573 0.35662 0.0
O98 O 0.34044 0.99449 0.33582 0.0
O99 O 0.29776 0.98231 0.33479 0.0
O100 O 0.29685 0.95364 0.339 0.0
C101 C 0.30009 0.95313 0.38894 0.0
O102 O 0.30885 0.00545 0.36748 0.0
O103 O 0.33771 0.01025 0.3781 0.0
In104 In 0.01886 0.34382 0.33841 0.0
O105 O 0.02654 0.37728 0.33497 0.0
O106 O 0.00253 0.35429 0.31673 0.0
C107 C 0.04354 0.35035 0.36988 0.0
C108 C 0.03735 0.33557 0.30877 0.0
C109 C 0.9825 0.31591 0.35331 0.0
O110 O 0.03952 0.3639 0.36395 0.0
O111 O 0.03512 0.33354 0.36008 0.0
O112 O 0.99199 0.31104 0.34114 0.0
O113 O 0.9913 0.33489 0.35805 0.0
C114 C 0.01336 0.3732 0.32144 0.0
O115 O 0.01832 0.32471 0.31175 0.0
O116 O 0.04717 0.35045 0.32081 0.0
In117 In 0.66762 0.98188 0.34151 0.0
O118 O 0.69656 0.98693 0.32591 0.0
O119 O 0.66766 0.96157 0.3162 0.0
C120 C 0.69014 0.01991 0.35834 0.0
C121 C 0.63875 0.98346 0.31925 0.0
C122 C 0.6536 0.95565 0.37176 0.0
O123 O 0.69642 0.00706 0.35826 0.0
O124 O 0.67277 0.01351 0.35026 0.0
O125 O 0.64976 0.97012 0.36974 0.0
O126 O 0.6645 0.95425 0.35856 0.0
C127 C 0.68688 0.97192 0.31392 0.0
O128 O 0.634 0.97035 0.33259 0.0
O129 O 0.65777 0.99525 0.31693 0.0
In130 In 0.02609 0.68995 0.33702 0.0
O131 O 0.0259 0.71697 0.32237 0.0
O132 O 0.04843 0.70939 0.31322 0.0
C133 C 0.9906 0.67668 0.35614 0.0
C134 C 0.01281 0.65498 0.31517 0.0
C135 C 0.05514 0.70411 0.36595 0.0
O136 O 0.99631 0.69022 0.34314 0.0
O137 O 0.00292 0.67028 0.35985 0.0
O138 O 0.0544 0.69205 0.35236 0.0
O139 O 0.04189 0.70975 0.36448 0.0
C140 C 0.04031 0.72053 0.31087 0.0
O141 O 0.02442 0.65895 0.33009 0.0
O142 O 0.00857 0.66879 0.31094 0.0
In143 In 0.31753 0.32812 0.34583 0.0
O144 O 0.31437 0.29757 0.35648 0.0
O145 O 0.34264 0.32547 0.36195 0.0
C146 C 0.28783 0.31526 0.31761 0.0
C147 C 0.3048 0.34107 0.37695 0.0
C148 C 0.34974 0.35276 0.32373 0.0
O149 O 0.29395 0.30355 0.32433 0.0
O150 O 0.29611 0.33307 0.32556 0.0
O151 O 0.34376 0.35978 0.33759 0.0
O152 O 0.33936 0.33342 0.32083 0.0
C153 C 0.33257 0.3061 0.3634 0.0
O154 O 0.32023 0.35322 0.36721 0.0
O155 O 0.29554 0.32246 0.37091 0.0
In156 In 0.33433 0.01627 0.66644 0.0
O157 O 0.3648 0.01702 0.6709 0.0
O158 O 0.3413 0.00076 0.6915 0.0
C159 C 0.34759 0.04604 0.6395 0.0
C160 C 0.32361 0.03268 0.69633 0.0
C161 C 0.31008 0.98049 0.64631 0.0
O162 O 0.35944 0.04126 0.64824 0.0
O163 O 0.32893 0.03566 0.64406 0.0
O164 O 0.30267 0.99022 0.65508 0.0
O165 O 0.32938 0.989 0.64726 0.0
C166 C 0.35932 0.0063 0.68609 0.0
O167 O 0.31117 0.01521 0.68864 0.0
O168 O 0.34124 0.04183 0.68892 0.0
In169 In 0.98228 0.31247 0.67819 0.0
O170 O 0.97349 0.33508 0.69203 0.0
O171 O 0.00216 0.33769 0.70039 0.0
C172 C 0.95699 0.29995 0.64635 0.0
C173 C 0.96808 0.28238 0.70474 0.0
C174 C 0.01738 0.32381 0.65906 0.0
O175 O 0.96355 0.31756 0.65436 0.0
O176 O 0.96259 0.28858 0.65467 0.0
O177 O 0.00675 0.30607 0.66609 0.0
O178 O 0.0105 0.33596 0.6619 0.0
C179 C 0.98995 0.34454 0.70218 0.0
O180 O 0.98603 0.29045 0.69819 0.0
O181 O 0.95721 0.28947 0.69793 0.0
In182 In 0.6774 0.66836 0.67498 0.0
O183 O 0.67926 0.69974 0.67277 0.0
O184 O 0.65737 0.67507 0.65433 0.0
C185 C 0.7041 0.67757 0.70539 0.0
C186 C 0.6969 0.66238 0.64466 0.0
C187 C 0.64158 0.63984 0.6904 0.0
O188 O 0.69989 0.69057 0.69835 0.0
O189 O 0.69489 0.65987 0.69719 0.0
O190 O 0.65025 0.63544 0.6769 0.0
O191 O 0.65116 0.65842 0.69647 0.0
C192 C 0.66507 0.69371 0.6599 0.0
O193 O 0.68019 0.64812 0.65112 0.0
O194 O 0.7039 0.67964 0.65349 0.0
In195 In 0.33054 0.31804 0.67557 0.0
O196 O 0.35688 0.319 0.6583 0.0
O197 O 0.32643 0.29529 0.65058 0.0
C198 C 0.35315 0.35372 0.69648 0.0
C199 C 0.30971 0.33197 0.65421 0.0
C200 C 0.31438 0.2889 0.70334 0.0
O201 O 0.36109 0.34375 0.6892 0.0
O202 O 0.33391 0.34506 0.69417 0.0
O203 O 0.30337 0.29199 0.6913 0.0
O204 O 0.33351 0.3 0.70103 0.0
C205 C 0.34543 0.30378 0.64714 0.0
O206 O 0.30095 0.31815 0.66683 0.0
O207 O 0.32853 0.33804 0.65184 0.0
In208 In 0.68406 0.01365 0.66661 0.0
O209 O 0.68978 0.0422 0.65006 0.0
O210 O 0.70372 0.02532 0.63929 0.0
C211 C 0.65255 0.01174 0.68656 0.0
C212 C 0.66509 0.97603 0.64861 0.0
C213 C 0.71265 0.02508 0.69583 0.0
O214 O 0.65898 0.02194 0.67108 0.0
O215 O 0.66199 0.0026 0.692 0.0
O216 O 0.70284 0.0068 0.68896 0.0
O217 O 0.70876 0.0377 0.68748 0.0
C218 C 0.70071 0.04037 0.63717 0.0
O219 O 0.68386 0.9849 0.65385 0.0
O220 O 0.65631 0.98639 0.65184 0.0
In221 In 0.98238 0.67027 0.68141 0.0
O222 O 0.97241 0.63869 0.6946 0.0
O223 O 0.00376 0.66236 0.69812 0.0
C224 C 0.95233 0.65642 0.65373 0.0
C225 C 0.97525 0.69046 0.71084 0.0
C226 C 0.01348 0.68911 0.65578 0.0
O227 O 0.95484 0.6443 0.66463 0.0
O228 O 0.96435 0.67544 0.65736 0.0
O229 O 0.00791 0.69899 0.66695 0.0
O230 O 0.00385 0.66985 0.6584 0.0
C231 C 0.99022 0.64388 0.70108 0.0
O232 O 0.99308 0.69598 0.70489 0.0
O233 O 0.96092 0.67504 0.70178 0.0
C234 C 0.25419 0.28231 0.07577 0.0
C235 C 0.25204 0.30026 0.06766 0.0
C236 C 0.23075 0.30879 0.08884 0.0
C237 C 0.23146 0.32532 0.09935 0.0
C238 C 0.21355 0.32411 0.10671 0.0
C239 C 0.19447 0.30556 0.10391 0.0
C240 C 0.19357 0.28869 0.09326 0.0
C241 C 0.21175 0.29048 0.08576 0.0
C242 C 0.21509 0.34259 0.11769 0.0
C243 C 0.17347 0.26868 0.0902 0.0
C244 C 0.06274 0.31683 0.04224 0.0
C245 C 0.07394 0.30762 0.05225 0.0
C246 C 0.10639 0.31802 0.06977 0.0
C247 C 0.10058 0.29805 0.07622 0.0
C248 C 0.11342 0.29477 0.08901 0.0
C249 C 0.13231 0.31182 0.09578 0.0
C250 C 0.1382 0.33195 0.08936 0.0
C251 C 0.1252 0.33474 0.07631 0.0
C252 C 0.10683 0.27303 0.09523 0.0
C253 C 0.15817 0.3505 0.09638 0.0
C254 C 0.09382 0.31615 0.22163 0.0
C255 C 0.08676 0.29588 0.21442 0.0
C256 C 0.10013 0.29087 0.20461 0.0
C257 C 0.12076 0.30649 0.20168 0.0
C258 C 0.12773 0.32696 0.20854 0.0
C259 C 0.11413 0.33147 0.21844 0.0
C260 C 0.09228 0.26893 0.19734 0.0
C261 C 0.14959 0.34405 0.20549 0.0
C262 C 0.23985 0.27273 0.23828 0.0
C263 C 0.23587 0.28956 0.24679 0.0
C264 C 0.20306 0.28539 0.23462 0.0
C265 C 0.18362 0.26887 0.22934 0.0
C266 C 0.17068 0.27141 0.216 0.0
C267 C 0.17721 0.29115 0.20818 0.0
C268 C 0.19667 0.30809 0.21391 0.0
C269 C 0.20941 0.30499 0.22702 0.0
C270 C 0.15001 0.25303 0.21032 0.0
C271 C 0.20388 0.32954 0.20646 0.0
C272 C 0.17573 0.30375 0.11287 0.0
C273 C 0.16252 0.30739 0.10114 0.0
C274 C 0.14603 0.30846 0.10925 0.0
C275 C 0.14289 0.30635 0.12974 0.0
C276 C 0.12731 0.30869 0.13863 0.0
C277 C 0.1247 0.30706 0.15886 0.0
C278 C 0.13739 0.30276 0.17092 0.0
C279 C 0.13521 0.30157 0.19152 0.0
C280 C 0.14803 0.29724 0.2031 0.0
C281 C 0.16335 0.29433 0.19472 0.0
C282 C 0.16593 0.29566 0.17415 0.0
C283 C 0.1813 0.29302 0.16521 0.0
C284 C 0.18441 0.29544 0.14511 0.0
C285 C 0.17206 0.30029 0.13313 0.0
C286 C 0.15586 0.30204 0.14167 0.0
C287 C 0.15294 0.29997 0.16224 0.0
C288 C 0.04551 0.30653 0.22393 0.0
C289 C 0.06234 0.3096 0.2389 0.0
O290 O 0.24886 0.31112 0.08253 0.0
O291 O 0.21483 0.28212 0.24778 0.0
O292 O 0.08179 0.32189 0.23152 0.0
O293 O 0.09421 0.32179 0.05754 0.0
H294 H 0.23823 0.29245 0.05789 0.0
H295 H 0.23987 0.2713 0.0833 0.0
H296 H 0.26716 0.28743 0.08643 0.0
H297 H 0.25652 0.27377 0.06348 0.0
H298 H 0.24622 0.33932 0.1017 0.0
H299 H 0.21105 0.27739 0.07796 0.0
H300 H 0.20312 0.34599 0.11218 0.0
H301 H 0.23046 0.35665 0.11627 0.0
H302 H 0.21235 0.33909 0.13351 0.0
H303 H 0.17545 0.2567 0.08225 0.0
H304 H 0.1625 0.27159 0.08166 0.0
H305 H 0.16646 0.26259 0.10462 0.0
H306 H 0.07237 0.2935 0.04473 0.0
H307 H 0.05912 0.30976 0.02698 0.0
H308 H 0.07479 0.33269 0.03751 0.0
H309 H 0.03999 0.31218 0.0618 0.0
H310 H 0.08611 0.2849 0.07128 0.0
H311 H 0.12956 0.35009 0.07132 0.0
H312 H 0.11924 0.2694 0.09228 0.0
H313 H 0.09247 0.26126 0.08751 0.0
H314 H 0.10419 0.27183 0.11128 0.0
H315 H 0.15968 0.36529 0.0914 0.0
H316 H 0.17132 0.3492 0.09073 0.0
H317 H 0.15925 0.35093 0.11268 0.0
H318 H 0.05943 0.29374 0.24114 0.0
H319 H 0.07091 0.28392 0.2162 0.0
H320 H 0.11935 0.34708 0.22389 0.0
H321 H 0.09346 0.26863 0.18112 0.0
H322 H 0.076 0.25838 0.20131 0.0
H323 H 0.102 0.26298 0.20361 0.0
H324 H 0.15226 0.35937 0.21081 0.0
H325 H 0.15324 0.34502 0.18965 0.0
H326 H 0.16042 0.34052 0.21344 0.0
H327 H 0.24267 0.30172 0.2357 0.0
H328 H 0.2567 0.27882 0.23726 0.0
H329 H 0.23294 0.26813 0.22324 0.0
H330 H 0.23316 0.25865 0.24721 0.0
H331 H 0.1787 0.25386 0.23555 0.0
H332 H 0.22402 0.31803 0.23168 0.0
H333 H 0.14818 0.25145 0.19407 0.0
H334 H 0.13756 0.25551 0.21601 0.0
H335 H 0.14801 0.23837 0.21623 0.0
H336 H 0.2186 0.34136 0.21362 0.0
H337 H 0.192 0.33398 0.20906 0.0
H338 H 0.20617 0.32969 0.19038 0.0
H339 H 0.16533 0.30978 0.08554 0.0
H340 H 0.11715 0.31209 0.13008 0.0
H341 H 0.11261 0.30924 0.16492 0.0
H342 H 0.14643 0.29669 0.21893 0.0
H343 H 0.19129 0.28935 0.17371 0.0
H344 H 0.19665 0.2935 0.13906 0.0
H345 H 0.03006 0.29639 0.2301 0.0
H346 H 0.0468 0.29884 0.21036 0.0
H347 H 0.04644 0.32122 0.2197 0.0
C348 C 0.72157 0.9256 0.03252 0.0
C349 C 0.7076 0.92289 0.04988 0.0
C350 C 0.71355 0.91451 0.08284 0.0
C351 C 0.69329 0.90378 0.0895 0.0
C352 C 0.68781 0.88919 0.1043 0.0
C353 C 0.70297 0.8854 0.11257 0.0
C354 C 0.72371 0.89724 0.10673 0.0
C355 C 0.72877 0.9119 0.09206 0.0
C356 C 0.66569 0.87728 0.11059 0.0
C357 C 0.74032 0.89364 0.1152 0.0
C358 C 0.64642 0.75148 0.04252 0.0
C359 C 0.66326 0.75904 0.05856 0.0
C360 C 0.66235 0.77613 0.08911 0.0
C361 C 0.68363 0.78945 0.09189 0.0
C362 C 0.69116 0.80675 0.10469 0.0
C363 C 0.67709 0.81078 0.11481 0.0
C364 C 0.65566 0.79689 0.11261 0.0
C365 C 0.64859 0.77953 0.09996 0.0
C366 C 0.71412 0.82099 0.10705 0.0
C367 C 0.64023 0.80078 0.12306 0.0
C368 C 0.69722 0.78742 0.24085 0.0
C369 C 0.71402 0.79934 0.22877 0.0
C370 C 0.71524 0.81604 0.21849 0.0
C371 C 0.69906 0.82056 0.21983 0.0
C372 C 0.68209 0.80855 0.23187 0.0
C373 C 0.6815 0.79222 0.24233 0.0
C374 C 0.7338 0.82878 0.20608 0.0
C375 C 0.6645 0.81283 0.23352 0.0
C376 C 0.75003 0.98625 0.24715 0.0
C377 C 0.73206 0.96396 0.24831 0.0
C378 C 0.73182 0.93184 0.23969 0.0
C379 C 0.74549 0.92545 0.23349 0.0
C380 C 0.73844 0.9067 0.22297 0.0
C381 C 0.71708 0.89387 0.21897 0.0
C382 C 0.70307 0.89993 0.22583 0.0
C383 C 0.71061 0.91888 0.23615 0.0
C384 C 0.7538 0.90068 0.21601 0.0
C385 C 0.68016 0.88634 0.22231 0.0
C386 C 0.69679 0.86734 0.12523 0.0
C387 C 0.68926 0.84809 0.11577 0.0
C388 C 0.68472 0.83045 0.12624 0.0
C389 C 0.68789 0.83195 0.14683 0.0
C390 C 0.68417 0.81466 0.15776 0.0
C391 C 0.68782 0.81643 0.17796 0.0
C392 C 0.69532 0.83558 0.18799 0.0
C393 C 0.69985 0.8377 0.20838 0.0
C394 C 0.70654 0.85674 0.21804 0.0
C395 C 0.70942 0.87404 0.20777 0.0
C396 C 0.7058 0.87244 0.18721 0.0
C397 C 0.70941 0.88972 0.17625 0.0
C398 C 0.70633 0.88809 0.15594 0.0
C399 C 0.69941 0.86909 0.14588 0.0
C400 C 0.69518 0.85135 0.15669 0.0
C401 C 0.69864 0.8531 0.17733 0.0
C402 C 0.70326 0.74844 0.23419 0.0
C403 C 0.70888 0.76351 0.25198 0.0
O404 O 0.71881 0.92721 0.06735 0.0
O405 O 0.73963 0.95042 0.24928 0.0
O406 O 0.69541 0.77118 0.25125 0.0
O407 O 0.65458 0.75982 0.07616 0.0
H408 H 0.69638 0.90618 0.04892 0.0
H409 H 0.72746 0.91463 0.03371 0.0
H410 H 0.73507 0.94144 0.03203 0.0
H411 H 0.71269 0.92217 0.01845 0.0
H412 H 0.68178 0.90669 0.08303 0.0
H413 H 0.74445 0.92064 0.08702 0.0
H414 H 0.65857 0.86106 0.10493 0.0
H415 H 0.65649 0.8841 0.10496 0.0
H416 H 0.66497 0.87685 0.12687 0.0
H417 H 0.75564 0.90401 0.10891 0.0
H418 H 0.73626 0.87733 0.11234 0.0
H419 H 0.74145 0.89625 0.13137 0.0
H420 H 0.67486 0.77496 0.05446 0.0
H421 H 0.63381 0.73554 0.04546 0.0
H422 H 0.65286 0.75155 0.02788 0.0
H423 H 0.63982 0.76189 0.04206 0.0
H424 H 0.69436 0.78638 0.08405 0.0
H425 H 0.6322 0.76893 0.09791 0.0
H426 H 0.71852 0.83593 0.10004 0.0
H427 H 0.72299 0.81434 0.10021 0.0
H428 H 0.71856 0.82432 0.12286 0.0
H429 H 0.62407 0.78858 0.11962 0.0
H430 H 0.64226 0.81598 0.11879 0.0
H431 H 0.64295 0.80146 0.13917 0.0
H432 H 0.72511 0.77624 0.25125 0.0
H433 H 0.72623 0.79575 0.22715 0.0
H434 H 0.66859 0.78294 0.25164 0.0
H435 H 0.72921 0.82558 0.19031 0.0
H436 H 0.74633 0.82523 0.20884 0.0
H437 H 0.73994 0.84556 0.20903 0.0
H438 H 0.65173 0.80111 0.24235 0.0
H439 H 0.65839 0.81305 0.21865 0.0
H440 H 0.67018 0.82833 0.24052 0.0
H441 H 0.7242 0.96149 0.2339 0.0
H442 H 0.74401 0.99703 0.24517 0.0
H443 H 0.75963 0.98761 0.23433 0.0
H444 H 0.76009 0.99124 0.2605 0.0
H445 H 0.76182 0.93545 0.23657 0.0
H446 H 0.69991 0.92332 0.24175 0.0
H447 H 0.7519 0.8975 0.19991 0.0
H448 H 0.75088 0.88624 0.22319 0.0
H449 H 0.76997 0.91292 0.21934 0.0
H450 H 0.67123 0.8928 0.22936 0.0
H451 H 0.67495 0.87068 0.22807 0.0
H452 H 0.67668 0.88452 0.20628 0.0
H453 H 0.68725 0.84689 0.0999 0.0
H454 H 0.67857 0.7996 0.15078 0.0
H455 H 0.68476 0.80261 0.18562 0.0
H456 H 0.70997 0.85824 0.2337 0.0
H457 H 0.71486 0.90476 0.18322 0.0
H458 H 0.70948 0.90189 0.14819 0.0
H459 H 0.68817 0.73422 0.23639 0.0
H460 H 0.71504 0.744 0.23132 0.0
H461 H 0.70195 0.75581 0.22063 0.0
C462 C 0.22391 0.8983 0.03963 0.0
C463 C 0.22519 0.91689 0.05103 0.0
C464 C 0.21283 0.90505 0.08387 0.0
C465 C 0.19764 0.91066 0.08576 0.0
C466 C 0.18154 0.90051 0.09896 0.0
C467 C 0.18064 0.88441 0.11037 0.0
C468 C 0.19647 0.87936 0.10904 0.0
C469 C 0.2126 0.89007 0.09601 0.0
C470 C 0.16525 0.90668 0.10039 0.0
C471 C 0.19605 0.86223 0.12089 0.0
C472 C 0.07433 0.78119 0.03985 0.0
C473 C 0.07201 0.76804 0.05782 0.0
C474 C 0.08211 0.79163 0.08624 0.0
C475 C 0.09941 0.79116 0.09353 0.0
C476 C 0.11391 0.80717 0.10582 0.0
C477 C 0.11115 0.82412 0.11069 0.0
C478 C 0.09351 0.82446 0.10363 0.0
C479 C 0.07897 0.80793 0.09175 0.0
C480 C 0.13239 0.80611 0.11331 0.0
C481 C 0.09028 0.84245 0.10833 0.0
C482 C 0.07399 0.80687 0.23833 0.0
C483 C 0.08835 0.80094 0.23302 0.0
C484 C 0.10578 0.81418 0.22226 0.0
C485 C 0.10889 0.83376 0.21684 0.0
C486 C 0.09473 0.83999 0.22271 0.0
C487 C 0.07752 0.82649 0.23355 0.0
C488 C 0.12089 0.80729 0.21672 0.0
C489 C 0.09769 0.86084 0.21736 0.0
C490 C 0.26274 0.9613 0.24097 0.0
C491 C 0.24701 0.94504 0.25466 0.0
C492 C 0.2197 0.91423 0.23658 0.0
C493 C 0.21388 0.89395 0.23095 0.0
C494 C 0.19518 0.88121 0.22094 0.0
C495 C 0.18185 0.88897 0.21661 0.0
C496 C 0.18748 0.90943 0.22237 0.0
C497 C 0.2065 0.92201 0.23208 0.0
C498 C 0.1898 0.85954 0.21474 0.0
C499 C 0.17352 0.91807 0.21793 0.0
C500 C 0.16219 0.87153 0.12215 0.0
C501 C 0.14488 0.85596 0.11215 0.0
C502 C 0.12744 0.84191 0.12219 0.0
C503 C 0.12684 0.84371 0.14281 0.0
C504 C 0.10943 0.82993 0.15337 0.0
C505 C 0.10924 0.83153 0.17374 0.0
C506 C 0.12666 0.84661 0.18437 0.0
C507 C 0.127 0.8478 0.20514 0.0
C508 C 0.14495 0.86228 0.21524 0.0
C509 C 0.16258 0.87589 0.20512 0.0
C510 C 0.16225 0.87562 0.18438 0.0
C511 C 0.17954 0.88965 0.1738 0.0
C512 C 0.17935 0.88873 0.15338 0.0
C513 C 0.16208 0.87344 0.14282 0.0
C514 C 0.14433 0.85943 0.15318 0.0
C515 C 0.14434 0.86068 0.17398 0.0
C516 C 0.02224 0.76612 0.24537 0.0
C517 C 0.0452 0.77289 0.24672 0.0
O518 O 0.22805 0.91401 0.07064 0.0
O519 O 0.23824 0.92549 0.24601 0.0
O520 O 0.05677 0.79428 0.24836 0.0
O521 O 0.06787 0.77627 0.07437 0.0
H522 H 0.2105 0.91688 0.04874 0.0
H523 H 0.21157 0.88365 0.04573 0.0
H524 H 0.23875 0.8984 0.04107 0.0
H525 H 0.22021 0.8981 0.02382 0.0
H526 H 0.19837 0.92297 0.07699 0.0
H527 H 0.22468 0.8862 0.09466 0.0
H528 H 0.1506 0.89423 0.09368 0.0
H529 H 0.16968 0.92131 0.09273 0.0
H530 H 0.16233 0.90857 0.11603 0.0
H531 H 0.20844 0.85894 0.11673 0.0
H532 H 0.18094 0.84781 0.11888 0.0
H533 H 0.19803 0.86665 0.13673 0.0
H534 H 0.08734 0.76931 0.05923 0.0
H535 H 0.077 0.77415 0.02652 0.0
H536 H 0.08784 0.79697 0.04215 0.0
H537 H 0.06066 0.78287 0.03711 0.0
H538 H 0.10155 0.77825 0.08987 0.0
H539 H 0.06537 0.80795 0.08621 0.0
H540 H 0.13486 0.80983 0.12931 0.0
H541 H 0.14635 0.81776 0.10575 0.0
H542 H 0.13072 0.79062 0.11062 0.0
H543 H 0.07611 0.84068 0.10112 0.0
H544 H 0.10374 0.85706 0.1035 0.0
H545 H 0.08914 0.84387 0.12445 0.0
H546 H 0.04806 0.76809 0.23222 0.0
H547 H 0.08617 0.78619 0.23755 0.0
H548 H 0.06648 0.83102 0.23802 0.0
H549 H 0.12199 0.80694 0.20049 0.0
H550 H 0.1164 0.79171 0.22226 0.0
H551 H 0.13644 0.81858 0.22273 0.0
H552 H 0.08506 0.86321 0.22272 0.0
H553 H 0.09845 0.86236 0.20115 0.0
H554 H 0.11254 0.87329 0.22372 0.0
H555 H 0.23558 0.95009 0.25673 0.0
H556 H 0.27064 0.97676 0.2485 0.0
H557 H 0.25461 0.96232 0.22767 0.0
H558 H 0.27452 0.95754 0.23599 0.0
H559 H 0.22422 0.88816 0.23433 0.0
H560 H 0.21085 0.93783 0.23573 0.0
H561 H 0.18783 0.85771 0.19851 0.0
H562 H 0.17494 0.84816 0.22119 0.0
H563 H 0.20181 0.85581 0.21935 0.0
H564 H 0.17955 0.9339 0.22431 0.0
H565 H 0.15797 0.90776 0.2238 0.0
H566 H 0.17174 0.91859 0.20178 0.0
H567 H 0.14531 0.8542 0.09633 0.0
H568 H 0.09576 0.81776 0.14598 0.0
H569 H 0.0954 0.82054 0.18109 0.0
H570 H 0.14535 0.86265 0.23118 0.0
H571 H 0.19343 0.9015 0.18118 0.0
H572 H 0.19306 0.89992 0.14599 0.0
H573 H 0.01291 0.74906 0.243 0.0
H574 H 0.01933 0.77359 0.23272 0.0
H575 H 0.01689 0.77037 0.25884 0.0
C576 C 0.35064 0.12296 0.97748 0.0
C577 C 0.33446 0.10658 0.96327 0.0
C578 C 0.33031 0.12187 0.93323 0.0
C579 C 0.3089 0.11319 0.93148 0.0
C580 C 0.30029 0.12203 0.91934 0.0
C581 C 0.31344 0.13996 0.90883 0.0
C582 C 0.33507 0.1487 0.91054 0.0
C583 C 0.3432 0.13929 0.9225 0.0
C584 C 0.27716 0.11209 0.91752 0.0
C585 C 0.34958 0.16802 0.8998 0.0
C586 C 0.26017 0.23523 0.96666 0.0
C587 C 0.27731 0.23373 0.95602 0.0
C588 C 0.27638 0.21402 0.92696 0.0
C589 C 0.29715 0.22028 0.92412 0.0
C590 C 0.30269 0.20773 0.91329 0.0
C591 C 0.28709 0.18846 0.90538 0.0
C592 C 0.26609 0.18215 0.90829 0.0
C593 C 0.26103 0.19529 0.91872 0.0
C594 C 0.32522 0.21508 0.91031 0.0
C595 C 0.249 0.16145 0.90063 0.0
C596 C 0.2701 0.20209 0.77645 0.0
C597 C 0.29079 0.20966 0.78189 0.0
C598 C 0.29658 0.19771 0.79312 0.0
C599 C 0.28134 0.17776 0.79891 0.0
C600 C 0.26057 0.16982 0.79283 0.0
C601 C 0.25527 0.18206 0.78148 0.0
C602 C 0.31895 0.20641 0.79891 0.0
C603 C 0.24396 0.14856 0.7986 0.0
C604 C 0.29006 0.04408 0.7782 0.0
C605 C 0.2976 0.06193 0.7637 0.0
C606 C 0.30699 0.09412 0.78254 0.0
C607 C 0.32343 0.11383 0.78733 0.0
C608 C 0.32032 0.12856 0.79738 0.0
C609 C 0.3002 0.12327 0.80302 0.0
C610 C 0.28347 0.10326 0.79847 0.0
C611 C 0.287 0.08888 0.78824 0.0
C612 C 0.33849 0.14976 0.80198 0.0
C613 C 0.26187 0.09707 0.80452 0.0
C614 C 0.3047 0.14989 0.89634 0.0
C615 C 0.29949 0.16347 0.90547 0.0
C616 C 0.2927 0.17466 0.89452 0.0
C617 C 0.29134 0.17254 0.8738 0.0
C618 C 0.28558 0.18433 0.86224 0.0
C619 C 0.28414 0.18201 0.84187 0.0
C620 C 0.28844 0.1678 0.83228 0.0
C621 C 0.28706 0.16534 0.81158 0.0
C622 C 0.29107 0.15081 0.80255 0.0
C623 C 0.29661 0.13867 0.81362 0.0
C624 C 0.29849 0.1412 0.83431 0.0
C625 C 0.30441 0.12952 0.84588 0.0
C626 C 0.30649 0.13234 0.86619 0.0
C627 C 0.30243 0.14673 0.87574 0.0
C628 C 0.29598 0.15831 0.86441 0.0
C629 C 0.2943 0.15577 0.84365 0.0
C630 C 0.25397 0.2391 0.77037 0.0
C631 C 0.27174 0.23468 0.76807 0.0
O632 O 0.33898 0.11309 0.94411 0.0
O633 O 0.31128 0.08078 0.77269 0.0
O634 O 0.26393 0.2135 0.76612 0.0
O635 O 0.27073 0.22607 0.93708 0.0
H636 H 0.32009 0.10615 0.96766 0.0
H637 H 0.35074 0.13781 0.97602 0.0
H638 H 0.36641 0.12592 0.97469 0.0
H639 H 0.34678 0.11788 0.99287 0.0
H640 H 0.29888 0.09923 0.93911 0.0
H641 H 0.35973 0.14566 0.92376 0.0
H642 H 0.27233 0.12296 0.92334 0.0
H643 H 0.26905 0.09743 0.92566 0.0
H644 H 0.27225 0.10882 0.90181 0.0
H645 H 0.36599 0.1737 0.90383 0.0
H646 H 0.346 0.18049 0.9031 0.0
H647 H 0.34746 0.16479 0.88372 0.0
H648 H 0.27877 0.22189 0.96438 0.0
H649 H 0.26508 0.2408 0.98207 0.0
H650 H 0.24611 0.21968 0.96696 0.0
H651 H 0.25603 0.24586 0.95935 0.0
H652 H 0.30901 0.2351 0.93 0.0
H653 H 0.24503 0.19076 0.92091 0.0
H654 H 0.32802 0.21334 0.8946 0.0
H655 H 0.32972 0.20541 0.91893 0.0
H656 H 0.33527 0.23151 0.91508 0.0
H657 H 0.23375 0.15776 0.90638 0.0
H658 H 0.25218 0.14895 0.90472 0.0
H659 H 0.24818 0.16156 0.88436 0.0
H660 H 0.27997 0.23999 0.78239 0.0
H661 H 0.30242 0.22475 0.77717 0.0
H662 H 0.23938 0.17624 0.77689 0.0
H663 H 0.32076 0.20826 0.81514 0.0
H664 H 0.32908 0.22167 0.79231 0.0
H665 H 0.32416 0.19546 0.79426 0.0
H666 H 0.22842 0.14494 0.79327 0.0
H667 H 0.24379 0.14739 0.81484 0.0
H668 H 0.24733 0.13673 0.79246 0.0
H669 H 0.28331 0.06177 0.7591 0.0
H670 H 0.27968 0.02913 0.77042 0.0
H671 H 0.28117 0.04621 0.79002 0.0
H672 H 0.30273 0.04292 0.78537 0.0
H673 H 0.3388 0.11771 0.78299 0.0
H674 H 0.2741 0.07362 0.78497 0.0
H675 H 0.34043 0.15244 0.81814 0.0
H676 H 0.33563 0.1618 0.7958 0.0
H677 H 0.35306 0.15169 0.79598 0.0
H678 H 0.25062 0.08066 0.80057 0.0
H679 H 0.25689 0.10711 0.79727 0.0
H680 H 0.26158 0.09939 0.82063 0.0
H681 H 0.30095 0.16552 0.92134 0.0
H682 H 0.28216 0.19555 0.86881 0.0
H683 H 0.27959 0.19148 0.83375 0.0
H684 H 0.28981 0.14889 0.78667 0.0
H685 H 0.30766 0.11817 0.83934 0.0
H686 H 0.31121 0.12302 0.87435 0.0
H687 H 0.26019 0.25595 0.77305 0.0
H688 H 0.24461 0.23074 0.78317 0.0
H689 H 0.24364 0.23419 0.75721 0.0
C690 C 0.78562 0.03801 0.9574 0.0
C691 C 0.77778 0.05348 0.95694 0.0
C692 C 0.7882 0.07519 0.92797 0.0
C693 C 0.77971 0.08414 0.91601 0.0
C694 C 0.79235 0.10206 0.90561 0.0
C695 C 0.81397 0.11039 0.9063 0.0
C696 C 0.82261 0.101 0.91801 0.0
C697 C 0.80963 0.08374 0.92906 0.0
C698 C 0.78255 0.11216 0.89412 0.0
C699 C 0.84554 0.10919 0.91897 0.0
C700 C 0.88574 0.23171 0.98302 0.0
C701 C 0.90164 0.2326 0.9684 0.0
C702 C 0.88521 0.21833 0.9365 0.0
C703 C 0.89298 0.2051 0.93228 0.0
C704 C 0.88274 0.18848 0.91881 0.0
C705 C 0.86428 0.18498 0.90949 0.0
C706 C 0.85682 0.19875 0.91317 0.0
C707 C 0.8676 0.21548 0.92648 0.0
C708 C 0.8915 0.1745 0.91475 0.0
C709 C 0.83725 0.19551 0.90337 0.0
C710 C 0.90366 0.21917 0.78283 0.0
C711 C 0.91059 0.20748 0.793 0.0
C712 C 0.89678 0.18991 0.80326 0.0
C713 C 0.87574 0.18424 0.80376 0.0
C714 C 0.86881 0.19625 0.79393 0.0
C715 C 0.88289 0.21354 0.7835 0.0
C716 C 0.90464 0.17729 0.81341 0.0
C717 C 0.84652 0.19075 0.79436 0.0
C718 C 0.766 0.02377 0.76589 0.0
C719 C 0.76659 0.04456 0.76461 0.0
C720 C 0.79827 0.07589 0.77487 0.0
C721 C 0.81895 0.08216 0.77857 0.0
C722 C 0.83117 0.09905 0.7913 0.0
C723 C 0.82258 0.11032 0.79998 0.0
C724 C 0.80177 0.10438 0.7958 0.0
C725 C 0.78979 0.0871 0.78346 0.0
C726 C 0.85327 0.10489 0.79543 0.0
C727 C 0.79226 0.11652 0.80403 0.0
C728 C 0.82763 0.12926 0.8953 0.0
C729 C 0.83871 0.14787 0.90601 0.0
C730 C 0.85224 0.16622 0.89682 0.0
C731 C 0.85454 0.16625 0.87625 0.0
C732 C 0.86792 0.18449 0.86653 0.0
C733 C 0.87002 0.18435 0.84627 0.0
C734 C 0.85889 0.16594 0.83499 0.0
C735 C 0.86099 0.16561 0.81442 0.0
C736 C 0.84915 0.14725 0.80354 0.0
C737 C 0.83553 0.12888 0.81269 0.0
C738 C 0.83388 0.12867 0.83338 0.0
C739 C 0.82118 0.11027 0.84321 0.0
C740 C 0.81933 0.11035 0.86352 0.0
C741 C 0.82988 0.12887 0.87473 0.0
C742 C 0.84321 0.14751 0.86517 0.0
C743 C 0.84534 0.14737 0.8445 0.0
C744 C 0.94481 0.25633 0.75125 0.0
C745 C 0.93695 0.24258 0.76841 0.0
O746 O 0.77524 0.05799 0.9378 0.0
O747 O 0.78705 0.05957 0.76226 0.0
O748 O 0.91631 0.23556 0.77178 0.0
O749 O 0.89461 0.23415 0.94992 0.0
H750 H 0.78953 0.06821 0.96417 0.0
H751 H 0.79978 0.0436 0.94874 0.0
H752 H 0.77395 0.02258 0.95137 0.0
H753 H 0.78937 0.03605 0.97275 0.0
H754 H 0.7631 0.07735 0.91532 0.0
H755 H 0.81626 0.07678 0.93822 0.0
H756 H 0.79098 0.12915 0.897 0.0
H757 H 0.76612 0.10589 0.89784 0.0
H758 H 0.78333 0.10945 0.87818 0.0
H759 H 0.84931 0.09779 0.92524 0.0
H760 H 0.85298 0.1234 0.92844 0.0
H761 H 0.85226 0.11332 0.90415 0.0
H762 H 0.90203 0.21797 0.96939 0.0
H763 H 0.88883 0.22863 0.99817 0.0
H764 H 0.87012 0.21902 0.97856 0.0
H765 H 0.88559 0.24653 0.98315 0.0
H766 H 0.90715 0.20782 0.93939 0.0
H767 H 0.86195 0.22603 0.9296 0.0
H768 H 0.88098 0.1589 0.92045 0.0
H769 H 0.90698 0.18045 0.92172 0.0
H770 H 0.89267 0.17274 0.89867 0.0
H771 H 0.8335 0.20763 0.90778 0.0
H772 H 0.8242 0.18014 0.9072 0.0
H773 H 0.83877 0.19559 0.88717 0.0
H774 H 0.94661 0.2486 0.78212 0.0
H775 H 0.92669 0.21181 0.79283 0.0
H776 H 0.87771 0.22267 0.77562 0.0
H777 H 0.90314 0.17825 0.82953 0.0
H778 H 0.92105 0.18272 0.81022 0.0
H779 H 0.89522 0.16075 0.80876 0.0
H780 H 0.84393 0.20262 0.78733 0.0
H781 H 0.8413 0.18898 0.80977 0.0
H782 H 0.83683 0.17568 0.78653 0.0
H783 H 0.76144 0.04742 0.77891 0.0
H784 H 0.75038 0.01098 0.76931 0.0
H785 H 0.77673 0.02465 0.77776 0.0
H786 H 0.77085 0.01997 0.7518 0.0
H787 H 0.82543 0.07358 0.77165 0.0
H788 H 0.77396 0.08274 0.78002 0.0
H789 H 0.85664 0.10705 0.81149 0.0
H790 H 0.86368 0.11983 0.78845 0.0
H791 H 0.8568 0.09302 0.78967 0.0
H792 H 0.77679 0.11144 0.79742 0.0
H793 H 0.8024 0.13329 0.80144 0.0
H794 H 0.79065 0.11448 0.82014 0.0
H795 H 0.83699 0.14801 0.92181 0.0
H796 H 0.87687 0.19909 0.87447 0.0
H797 H 0.88045 0.19888 0.83955 0.0
H798 H 0.85053 0.14728 0.78769 0.0
H799 H 0.81256 0.0956 0.83531 0.0
H800 H 0.80939 0.0957 0.8703 0.0
H801 H 0.95256 0.23994 0.73181 0.0
H802 H 0.9565 0.27192 0.75764 0.0
H803 H 0.93308 0.26104 0.7475 0.0
C804 C 0.77121 0.66233 0.97096 0.0
C805 C 0.76513 0.67447 0.95701 0.0
C806 C 0.78217 0.67558 0.92649 0.0
C807 C 0.79611 0.69678 0.92472 0.0
C808 C 0.81383 0.70365 0.91347 0.0
C809 C 0.81767 0.68896 0.90392 0.0
C810 C 0.80331 0.66757 0.90529 0.0
C811 C 0.78551 0.66118 0.91632 0.0
C812 C 0.8286 0.72658 0.91202 0.0
C813 C 0.80703 0.65146 0.89554 0.0
C814 C 0.94015 0.73331 0.99044 0.0
C815 C 0.93119 0.71767 0.97315 0.0
C816 C 0.92115 0.72305 0.94055 0.0
C817 C 0.90919 0.70257 0.93361 0.0
C818 C 0.89441 0.69745 0.91852 0.0
C819 C 0.89163 0.7132 0.91028 0.0
C820 C 0.9044 0.73403 0.91667 0.0
C821 C 0.91926 0.73871 0.93157 0.0
C822 C 0.88141 0.67515 0.91173 0.0
C823 C 0.90178 0.75122 0.90836 0.0
C824 C 0.93929 0.7374 0.78617 0.0
C825 C 0.92667 0.71621 0.78957 0.0
C826 C 0.90748 0.70874 0.79847 0.0
C827 C 0.90085 0.72279 0.80406 0.0
C828 C 0.91334 0.74408 0.80019 0.0
C829 C 0.93233 0.75106 0.79111 0.0
C830 C 0.89429 0.68587 0.80194 0.0
C831 C 0.90671 0.75947 0.80586 0.0
C832 C 0.74147 0.66816 0.78329 0.0
C833 C 0.75704 0.68699 0.77174 0.0
C834 C 0.79019 0.68857 0.7763 0.0
C835 C 0.79682 0.67422 0.77821 0.0
C836 C 0.81469 0.67909 0.7892 0.0
C837 C 0.8264 0.69901 0.79808 0.0
C838 C 0.82037 0.714 0.79528 0.0
C839 C 0.80229 0.70862 0.7844 0.0
C840 C 0.82081 0.66282 0.79171 0.0
C841 C 0.83287 0.73559 0.80404 0.0
C842 C 0.83733 0.69595 0.89363 0.0
C843 C 0.85476 0.70085 0.90512 0.0
C844 C 0.87392 0.70763 0.89669 0.0
C845 C 0.87584 0.70942 0.87609 0.0
C846 C 0.89483 0.71596 0.86706 0.0
C847 C 0.89657 0.71793 0.84677 0.0
C848 C 0.87934 0.71329 0.83472 0.0
C849 C 0.88093 0.71529 0.81409 0.0
C850 C 0.86348 0.71053 0.80257 0.0
C851 C 0.84435 0.70383 0.8111 0.0
C852 C 0.84245 0.70178 0.8317 0.0
C853 C 0.82344 0.69514 0.84076 0.0
C854 C 0.82174 0.69335 0.86104 0.0
C855 C 0.83892 0.69787 0.87302 0.0
C856 C 0.85826 0.70457 0.86422 0.0
C857 C 0.86002 0.70652 0.84353 0.0
C858 C 0.99359 0.75494 0.78071 0.0
C859 C 0.9712 0.73722 0.77861 0.0
O860 O 0.76519 0.66859 0.93762 0.0
O861 O 0.77234 0.68276 0.76615 0.0
O862 O 0.9581 0.74529 0.77794 0.0
O863 O 0.93474 0.72825 0.95579 0.0
H864 H 0.77753 0.69066 0.95965 0.0
H865 H 0.7872 0.66592 0.96798 0.0
H866 H 0.76104 0.64536 0.96934 0.0
H867 H 0.77078 0.66699 0.98645 0.0
H868 H 0.79309 0.70796 0.93199 0.0
H869 H 0.77444 0.64484 0.9176 0.0
H870 H 0.84312 0.73072 0.92016 0.0
H871 H 0.82219 0.73598 0.91822 0.0
H872 H 0.83253 0.73071 0.89644 0.0
H873 H 0.79495 0.63544 0.89899 0.0
H874 H 0.82227 0.65379 0.90032 0.0
H875 H 0.80732 0.65318 0.87937 0.0
H876 H 0.9145 0.70969 0.9759 0.0
H877 H 0.93732 0.72505 0.00451 0.0
H878 H 0.93254 0.74281 0.99099 0.0
H879 H 0.95695 0.74398 0.98914 0.0
H880 H 0.91144 0.69062 0.93989 0.0
H881 H 0.9289 0.75454 0.93685 0.0
H882 H 0.88088 0.674 0.89543 0.0
H883 H 0.86538 0.66904 0.91672 0.0
H884 H 0.88732 0.66526 0.91761 0.0
H885 H 0.91265 0.76654 0.91526 0.0
H886 H 0.88578 0.74794 0.91062 0.0
H887 H 0.90433 0.75205 0.8923 0.0
H888 H 0.96884 0.72944 0.7927 0.0
H889 H 0.93159 0.70545 0.78508 0.0
H890 H 0.94208 0.76735 0.78817 0.0
H891 H 0.89208 0.68324 0.81794 0.0
H892 H 0.90124 0.67685 0.796 0.0
H893 H 0.87883 0.67994 0.79496 0.0
H894 H 0.91844 0.77558 0.80229 0.0
H895 H 0.90382 0.75876 0.82186 0.0
H896 H 0.89204 0.75541 0.79805 0.0
H897 H 0.76351 0.70093 0.78155 0.0
H898 H 0.72912 0.67027 0.78969 0.0
H899 H 0.73423 0.65407 0.77359 0.0
H900 H 0.74953 0.66544 0.79567 0.0
H901 H 0.78758 0.65893 0.77152 0.0
H902 H 0.7978 0.72015 0.78209 0.0
H903 H 0.82141 0.65988 0.80757 0.0
H904 H 0.83648 0.6685 0.7859 0.0
H905 H 0.80993 0.64798 0.78402 0.0
H906 H 0.82716 0.74597 0.79909 0.0
H907 H 0.84928 0.7424 0.79999 0.0
H908 H 0.83224 0.73492 0.8203 0.0
H909 H 0.85342 0.69949 0.92096 0.0
H910 H 0.90856 0.71967 0.87562 0.0
H911 H 0.9116 0.72314 0.84064 0.0
H912 H 0.86482 0.71214 0.78677 0.0
H913 H 0.80963 0.69132 0.83229 0.0
H914 H 0.80675 0.68832 0.86721 0.0
H915 H 0.00413 0.74856 0.78205 0.0
H916 H 0.99548 0.76436 0.79419 0.0
H917 H 0.99835 0.76537 0.76804 0.0
C918 C 0.91428 0.61711 0.40682 0.0
C919 C 0.91341 0.63527 0.39739 0.0
C920 C 0.89131 0.64343 0.41801 0.0
C921 C 0.89156 0.65927 0.42935 0.0
C922 C 0.87352 0.65709 0.43743 0.0
C923 C 0.85476 0.6382 0.43458 0.0
C924 C 0.85429 0.62207 0.42298 0.0
C925 C 0.87257 0.62489 0.41464 0.0
C926 C 0.87462 0.67499 0.44914 0.0
C927 C 0.83455 0.60176 0.41965 0.0
C928 C 0.71767 0.64459 0.38002 0.0
C929 C 0.72927 0.63536 0.38901 0.0
C930 C 0.76292 0.64627 0.4042 0.0
C931 C 0.7579 0.62646 0.41049 0.0
C932 C 0.77166 0.62368 0.42238 0.0
C933 C 0.79063 0.64108 0.42841 0.0
C934 C 0.79577 0.66102 0.42204 0.0
C935 C 0.78188 0.6633 0.40984 0.0
C936 C 0.7659 0.60214 0.42857 0.0
C937 C 0.81584 0.67992 0.42828 0.0
C938 C 0.75554 0.64581 0.55654 0.0
C939 C 0.75032 0.62544 0.55115 0.0
C940 C 0.76394 0.62158 0.54033 0.0
C941 C 0.78306 0.63836 0.53472 0.0
C942 C 0.78819 0.65886 0.53983 0.0
C943 C 0.7743 0.66228 0.55061 0.0
C944 C 0.75801 0.59957 0.53495 0.0
C945 C 0.80846 0.67713 0.53409 0.0
C946 C 0.92431 0.64814 0.5667 0.0
C947 C 0.90814 0.64573 0.58177 0.0
C948 C 0.87469 0.63022 0.56406 0.0
C949 C 0.85546 0.6123 0.56164 0.0
C950 C 0.84007 0.61184 0.54936 0.0
C951 C 0.844 0.62992 0.53943 0.0
C952 C 0.86339 0.64819 0.54187 0.0
C953 C 0.87864 0.64804 0.55382 0.0
C954 C 0.81965 0.59206 0.54696 0.0
C955 C 0.8681 0.66797 0.53184 0.0
C956 C 0.83586 0.63542 0.44411 0.0
C957 C 0.82168 0.63795 0.43276 0.0
C958 C 0.80507 0.63837 0.44139 0.0
C959 C 0.8027 0.63671 0.46197 0.0
C960 C 0.7869 0.63836 0.4713 0.0
C961 C 0.78516 0.63739 0.49164 0.0
C962 C 0.79912 0.63468 0.50341 0.0
C963 C 0.79806 0.63453 0.52413 0.0
C964 C 0.81239 0.63214 0.53538 0.0
C965 C 0.82792 0.62991 0.52653 0.0
C966 C 0.82907 0.62973 0.50584 0.0
C967 C 0.84435 0.62726 0.49645 0.0
C968 C 0.84637 0.62872 0.47619 0.0
C969 C 0.83304 0.63247 0.46453 0.0
C970 C 0.81672 0.63367 0.47356 0.0
C971 C 0.81483 0.63246 0.49427 0.0
C972 C 0.70627 0.62869 0.56291 0.0
C973 C 0.72522 0.63707 0.57679 0.0
O974 O 0.90961 0.64677 0.41108 0.0
O975 O 0.8888 0.62955 0.57632 0.0
O976 O 0.74313 0.65045 0.56728 0.0
O977 O 0.74982 0.64963 0.39297 0.0
H978 H 0.90028 0.62771 0.38683 0.0
H979 H 0.89946 0.60661 0.41386 0.0
H980 H 0.92664 0.62207 0.41815 0.0
H981 H 0.91687 0.60799 0.39528 0.0
H982 H 0.90608 0.67352 0.4318 0.0
H983 H 0.87209 0.61245 0.40587 0.0
H984 H 0.86167 0.67746 0.44494 0.0
H985 H 0.88937 0.68961 0.44703 0.0
H986 H 0.87333 0.67145 0.465 0.0
H987 H 0.83704 0.59015 0.41162 0.0
H988 H 0.82344 0.60437 0.41103 0.0
H989 H 0.82743 0.59532 0.43395 0.0
H990 H 0.72715 0.62112 0.38126 0.0
H991 H 0.71306 0.63732 0.36486 0.0
H992 H 0.72944 0.66033 0.37477 0.0
H993 H 0.69633 0.64048 0.40096 0.0
H994 H 0.74331 0.6131 0.40616 0.0
H995 H 0.7856 0.67851 0.40492 0.0
H996 H 0.77852 0.59896 0.42516 0.0
H997 H 0.75146 0.59005 0.4212 0.0
H998 H 0.76375 0.60097 0.44469 0.0
H999 H 0.81678 0.69449 0.42338 0.0
H1000 H 0.82889 0.67886 0.422 0.0
H1001 H 0.8177 0.68064 0.44453 0.0
H1002 H 0.72561 0.62303 0.58114 0.0
H1003 H 0.73571 0.61247 0.55523 0.0
H1004 H 0.77813 0.67792 0.5547 0.0
H1005 H 0.75858 0.59787 0.51877 0.0
H1006 H 0.74232 0.58821 0.53988 0.0
H1007 H 0.76927 0.59584 0.54171 0.0
H1008 H 0.81001 0.69213 0.53898 0.0
H1009 H 0.80994 0.67714 0.51788 0.0
H1010 H 0.82138 0.67583 0.54064 0.0
H1011 H 0.9085 0.66075 0.58153 0.0
H1012 H 0.94008 0.65931 0.57236 0.0
H1013 H 0.92175 0.65423 0.55284 0.0
H1014 H 0.92347 0.63324 0.56292 0.0
H1015 H 0.85255 0.59858 0.56946 0.0
H1016 H 0.8935 0.66198 0.55496 0.0
H1017 H 0.8157 0.58813 0.53112 0.0
H1018 H 0.80736 0.59426 0.55351 0.0
H1019 H 0.81971 0.57884 0.55416 0.0
H1020 H 0.88223 0.68159 0.53806 0.0
H1021 H 0.85504 0.67091 0.53316 0.0
H1022 H 0.87048 0.6665 0.51598 0.0
H1023 H 0.82389 0.64011 0.41707 0.0
H1024 H 0.77587 0.64071 0.463 0.0
H1025 H 0.77285 0.63897 0.49804 0.0
H1026 H 0.81186 0.63269 0.55129 0.0
H1027 H 0.85514 0.62452 0.50471 0.0
H1028 H 0.85863 0.62704 0.46978 0.0
H1029 H 0.70754 0.6193 0.55079 0.0
H1030 H 0.69207 0.61853 0.57105 0.0
H1031 H 0.70445 0.64107 0.55613 0.0
C1032 C 0.40528 0.29249 0.37539 0.0
C1033 C 0.38677 0.27621 0.38659 0.0
C1034 C 0.38504 0.25887 0.41709 0.0
C1035 C 0.36379 0.24538 0.41858 0.0
C1036 C 0.35623 0.228 0.4305 0.0
C1037 C 0.37028 0.22388 0.44077 0.0
C1038 C 0.39176 0.2376 0.43929 0.0
C1039 C 0.3988 0.25523 0.42783 0.0
C1040 C 0.33324 0.214 0.43197 0.0
C1041 C 0.40733 0.23348 0.44941 0.0
C1042 C 0.31042 0.08142 0.36941 0.0
C1043 C 0.32532 0.09081 0.38705 0.0
C1044 C 0.3242 0.11285 0.41354 0.0
C1045 C 0.34545 0.12421 0.41785 0.0
C1046 C 0.35374 0.14192 0.43019 0.0
C1047 C 0.34046 0.14823 0.43846 0.0
C1048 C 0.319 0.13649 0.43453 0.0
C1049 C 0.31115 0.11882 0.42223 0.0
C1050 C 0.37665 0.15392 0.43441 0.0
C1051 C 0.3044 0.14274 0.44316 0.0
C1052 C 0.34603 0.11358 0.56425 0.0
C1053 C 0.36491 0.12661 0.55533 0.0
C1054 C 0.36809 0.14433 0.54555 0.0
C1055 C 0.35196 0.14894 0.54437 0.0
C1056 C 0.33288 0.13577 0.55315 0.0
C1057 C 0.33019 0.11825 0.56302 0.0
C1058 C 0.3887 0.15813 0.53645 0.0
C1059 C 0.31535 0.14021 0.55204 0.0
C1060 C 0.40441 0.31314 0.57896 0.0
C1061 C 0.3862 0.29104 0.58059 0.0
C1062 C 0.3863 0.25939 0.57068 0.0
C1063 C 0.40041 0.25356 0.56452 0.0
C1064 C 0.39405 0.23561 0.55288 0.0
C1065 C 0.37295 0.22305 0.54762 0.0
C1066 C 0.35848 0.2285 0.55441 0.0
C1067 C 0.36532 0.24662 0.56595 0.0
C1068 C 0.40986 0.23014 0.54609 0.0
C1069 C 0.33581 0.21514 0.5495 0.0
C1070 C 0.3626 0.20461 0.45204 0.0
C1071 C 0.35552 0.18606 0.44136 0.0
C1072 C 0.34898 0.16739 0.45081 0.0
C1073 C 0.35012 0.16717 0.47151 0.0
C1074 C 0.34458 0.14879 0.48142 0.0
C1075 C 0.3461 0.14881 0.50179 0.0
C1076 C 0.353 0.16716 0.51303 0.0
C1077 C 0.35507 0.16742 0.53369 0.0
C1078 C 0.36134 0.18575 0.5445 0.0
C1079 C 0.36602 0.20411 0.53518 0.0
C1080 C 0.36468 0.20433 0.51445 0.0
C1081 C 0.36981 0.22262 0.50452 0.0
C1082 C 0.36893 0.22274 0.48409 0.0
C1083 C 0.3629 0.20458 0.47282 0.0
C1084 C 0.35701 0.18583 0.48255 0.0
C1085 C 0.35814 0.18576 0.50336 0.0
C1086 C 0.35086 0.07524 0.59418 0.0
C1087 C 0.35709 0.09071 0.57841 0.0
O1088 O 0.39274 0.27582 0.4058 0.0
O1089 O 0.39343 0.27722 0.58144 0.0
O1090 O 0.34265 0.0967 0.57447 0.0
O1091 O 0.31559 0.09581 0.40146 0.0
H1092 H 0.38332 0.26147 0.3792 0.0
H1093 H 0.418 0.28893 0.376 0.0
H1094 H 0.41117 0.30831 0.38165 0.0
H1095 H 0.4009 0.29232 0.35972 0.0
H1096 H 0.3531 0.24858 0.41076 0.0
H1097 H 0.41519 0.26593 0.42667 0.0
H1098 H 0.32847 0.1994 0.42351 0.0
H1099 H 0.32453 0.22122 0.42602 0.0
H1100 H 0.32894 0.20993 0.44749 0.0
H1101 H 0.42319 0.24366 0.44411 0.0
H1102 H 0.40324 0.2171 0.44701 0.0
H1103 H 0.40736 0.23628 0.46545 0.0
H1104 H 0.33843 0.10529 0.38157 0.0
H1105 H 0.31787 0.07782 0.35715 0.0
H1106 H 0.30585 0.0926 0.36414 0.0
H1107 H 0.29628 0.06699 0.37352 0.0
H1108 H 0.35557 0.11923 0.4118 0.0
H1109 H 0.29474 0.10975 0.41903 0.0
H1110 H 0.38318 0.16984 0.4288 0.0
H1111 H 0.3848 0.14652 0.42752 0.0
H1112 H 0.37966 0.15531 0.45052 0.0
H1113 H 0.28815 0.13212 0.43841 0.0
H1114 H 0.30889 0.15868 0.43871 0.0
H1115 H 0.30543 0.14288 0.45944 0.0
H1116 H 0.36264 0.0868 0.56475 0.0
H1117 H 0.37729 0.12313 0.55602 0.0
H1118 H 0.3157 0.10813 0.56995 0.0
H1119 H 0.38673 0.15776 0.52025 0.0
H1120 H 0.40016 0.1533 0.53998 0.0
H1121 H 0.39491 0.17439 0.54168 0.0
H1122 H 0.3012 0.12799 0.55893 0.0
H1123 H 0.31174 0.14151 0.53644 0.0
H1124 H 0.32003 0.15527 0.55955 0.0
H1125 H 0.37793 0.28854 0.5664 0.0
H1126 H 0.39867 0.32418 0.57721 0.0
H1127 H 0.41352 0.31412 0.56584 0.0
H1128 H 0.41488 0.31809 0.59202 0.0
H1129 H 0.41655 0.26338 0.56855 0.0
H1130 H 0.35426 0.25056 0.57154 0.0
H1131 H 0.40941 0.22888 0.5298 0.0
H1132 H 0.40612 0.21482 0.5518 0.0
H1133 H 0.42574 0.24179 0.55107 0.0
H1134 H 0.32647 0.22136 0.55612 0.0
H1135 H 0.33017 0.19924 0.55482 0.0
H1136 H 0.33337 0.21397 0.53331 0.0
H1137 H 0.35508 0.18614 0.42543 0.0
H1138 H 0.33923 0.13423 0.47352 0.0
H1139 H 0.34178 0.13423 0.50862 0.0
H1140 H 0.3629 0.18582 0.56036 0.0
H1141 H 0.37472 0.23709 0.51244 0.0
H1142 H 0.37311 0.23727 0.47722 0.0
H1143 H 0.37268 0.09089 0.61617 0.0
H1144 H 0.34894 0.06082 0.58666 0.0
H1145 H 0.33388 0.06884 0.59638 0.0
C1146 C 0.89735 0.23371 0.36 0.0
C1147 C 0.90236 0.2501 0.37633 0.0
C1148 C 0.88203 0.23165 0.40482 0.0
C1149 C 0.86753 0.23833 0.40515 0.0
C1150 C 0.84967 0.22801 0.41632 0.0
C1151 C 0.84632 0.21073 0.42733 0.0
C1152 C 0.86097 0.20403 0.42704 0.0
C1153 C 0.8788 0.21484 0.41602 0.0
C1154 C 0.83452 0.23573 0.41662 0.0
C1155 C 0.85783 0.18548 0.43837 0.0
C1156 C 0.7112 0.10933 0.36087 0.0
C1157 C 0.72448 0.10634 0.3763 0.0
C1158 C 0.73933 0.12769 0.40586 0.0
C1159 C 0.75473 0.12321 0.4112 0.0
C1160 C 0.77178 0.13731 0.42279 0.0
C1161 C 0.77332 0.15622 0.42909 0.0
C1162 C 0.75741 0.16043 0.42419 0.0
C1163 C 0.74042 0.1459 0.41282 0.0
C1164 C 0.78817 0.13207 0.42822 0.0
C1165 C 0.75854 0.18041 0.43067 0.0
C1166 C 0.75232 0.12507 0.55691 0.0
C1167 C 0.76638 0.12291 0.54501 0.0
C1168 C 0.78116 0.13961 0.53445 0.0
C1169 C 0.78141 0.15871 0.53509 0.0
C1170 C 0.76727 0.16098 0.54695 0.0
C1171 C 0.75306 0.14416 0.55789 0.0
C1172 C 0.79652 0.13673 0.52258 0.0
C1173 C 0.76706 0.18107 0.54794 0.0
C1174 C 0.92839 0.29681 0.557 0.0
C1175 C 0.91307 0.28076 0.57112 0.0
C1176 C 0.88717 0.24854 0.55347 0.0
C1177 C 0.88294 0.22861 0.54826 0.0
C1178 C 0.86475 0.21467 0.53807 0.0
C1179 C 0.85026 0.2208 0.53314 0.0
C1180 C 0.85434 0.24096 0.53833 0.0
C1181 C 0.87289 0.25476 0.54826 0.0
C1182 C 0.86107 0.1934 0.53249 0.0
C1183 C 0.83912 0.24789 0.53328 0.0
C1184 C 0.82757 0.19955 0.43922 0.0
C1185 C 0.80941 0.18472 0.42968 0.0
C1186 C 0.79186 0.17185 0.44027 0.0
C1187 C 0.79243 0.17354 0.461 0.0
C1188 C 0.77543 0.1601 0.47218 0.0
C1189 C 0.77657 0.16123 0.49261 0.0
C1190 C 0.79471 0.17591 0.5026 0.0
C1191 C 0.79658 0.17614 0.5233 0.0
C1192 C 0.81448 0.19149 0.53283 0.0
C1193 C 0.83105 0.20619 0.52217 0.0
C1194 C 0.82989 0.20551 0.50141 0.0
C1195 C 0.84672 0.21928 0.49021 0.0
C1196 C 0.84589 0.2176 0.46981 0.0
C1197 C 0.82814 0.20221 0.45985 0.0
C1198 C 0.81065 0.18884 0.4708 0.0
C1199 C 0.81164 0.19029 0.49162 0.0
C1200 C 0.71644 0.07737 0.55024 0.0
C1201 C 0.73234 0.08868 0.567 0.0
O1202 O 0.89974 0.24146 0.39466 0.0
O1203 O 0.90523 0.26092 0.56332 0.0
O1204 O 0.73798 0.10944 0.5678 0.0
O1205 O 0.7231 0.11455 0.39422 0.0
H1206 H 0.89086 0.25492 0.37354 0.0
H1207 H 0.88085 0.22152 0.36064 0.0
H1208 H 0.90663 0.226 0.36121 0.0
H1209 H 0.89997 0.24093 0.34539 0.0
H1210 H 0.87026 0.25188 0.39723 0.0
H1211 H 0.89024 0.21001 0.41587 0.0
H1212 H 0.81956 0.2237 0.41006 0.0
H1213 H 0.84001 0.25021 0.40833 0.0
H1214 H 0.83171 0.23861 0.43202 0.0
H1215 H 0.8693 0.18076 0.43462 0.0
H1216 H 0.84212 0.17215 0.4354 0.0
H1217 H 0.85924 0.1892 0.45435 0.0
H1218 H 0.74028 0.11594 0.37079 0.0
H1219 H 0.71266 0.10332 0.3463 0.0
H1220 H 0.71654 0.12608 0.35959 0.0
H1221 H 0.69469 0.10131 0.36471 0.0
H1222 H 0.75327 0.1086 0.40654 0.0
H1223 H 0.72819 0.14897 0.40881 0.0
H1224 H 0.7912 0.13401 0.44434 0.0
H1225 H 0.80276 0.1429 0.42098 0.0
H1226 H 0.78377 0.11599 0.42371 0.0
H1227 H 0.74531 0.1817 0.42492 0.0
H1228 H 0.77307 0.19378 0.42559 0.0
H1229 H 0.75874 0.18143 0.44696 0.0
H1230 H 0.74529 0.08638 0.56302 0.0
H1231 H 0.76629 0.10843 0.54384 0.0
H1232 H 0.74222 0.14577 0.56711 0.0
H1233 H 0.79223 0.13529 0.50676 0.0
H1234 H 0.79694 0.1226 0.5267 0.0
H1235 H 0.81226 0.1503 0.52459 0.0
H1236 H 0.75391 0.17977 0.55644 0.0
H1237 H 0.7662 0.18612 0.53288 0.0
H1238 H 0.78163 0.19329 0.55499 0.0
H1239 H 0.90105 0.28508 0.57228 0.0
H1240 H 0.93542 0.31257 0.56381 0.0
H1241 H 0.92009 0.29659 0.5433 0.0
H1242 H 0.94088 0.29379 0.55277 0.0
H1243 H 0.89411 0.22401 0.5522 0.0
H1244 H 0.87597 0.27024 0.55166 0.0
H1245 H 0.85805 0.19056 0.51643 0.0
H1246 H 0.84722 0.1815 0.54 0.0
H1247 H 0.87437 0.19142 0.53653 0.0
H1248 H 0.84408 0.26372 0.53912 0.0
H1249 H 0.82383 0.23694 0.53931 0.0
H1250 H 0.8372 0.24769 0.51708 0.0
H1251 H 0.8091 0.1828 0.41383 0.0
H1252 H 0.76119 0.14829 0.46528 0.0
H1253 H 0.76312 0.15032 0.5005 0.0
H1254 H 0.81594 0.1914 0.54869 0.0
H1255 H 0.86088 0.23126 0.49708 0.0
H1256 H 0.8594 0.22841 0.46194 0.0
H1257 H 0.7087 0.06032 0.5519 0.0
H1258 H 0.72437 0.08116 0.53594 0.0
H1259 H 0.70472 0.08227 0.54945 0.0
C1260 C 0.0522 0.45646 0.30759 0.0
C1261 C 0.03234 0.45086 0.29612 0.0
C1262 C 0.02845 0.46685 0.26665 0.0
C1263 C 0.00715 0.45921 0.26713 0.0
C1264 C 0.99791 0.46764 0.25525 0.0
C1265 C 0.01035 0.48445 0.24307 0.0
C1266 C 0.03193 0.49239 0.24289 0.0
C1267 C 0.04057 0.48305 0.2543 0.0
C1268 C 0.97485 0.45854 0.25574 0.0
C1269 C 0.04596 0.51079 0.23079 0.0
C1270 C 0.94044 0.58253 0.27113 0.0
C1271 C 0.96037 0.58189 0.26821 0.0
C1272 C 0.96428 0.55164 0.26204 0.0
C1273 C 0.98447 0.56137 0.25515 0.0
C1274 C 0.99176 0.55001 0.24475 0.0
C1275 C 0.97857 0.52851 0.24133 0.0
C1276 C 0.95839 0.51859 0.24878 0.0
C1277 C 0.95159 0.53031 0.25923 0.0
C1278 C 0.01354 0.56093 0.23745 0.0
C1279 C 0.94399 0.49566 0.24557 0.0
C1280 C 0.95306 0.53745 0.11249 0.0
C1281 C 0.97415 0.54771 0.11733 0.0
C1282 C 0.98259 0.53802 0.12856 0.0
C1283 C 0.96962 0.5176 0.13495 0.0
C1284 C 0.94844 0.50702 0.12957 0.0
C1285 C 0.94048 0.51706 0.11822 0.0
C1286 C 0.00534 0.54953 0.13358 0.0
C1287 C 0.93422 0.48519 0.13597 0.0
C1288 C 0.03405 0.41444 0.10689 0.0
C1289 C 0.01611 0.41872 0.10584 0.0
C1290 C 0.01604 0.45016 0.11689 0.0
C1291 C 0.0291 0.47106 0.12169 0.0
C1292 C 0.0218 0.48261 0.13166 0.0
C1293 C 0.00082 0.47296 0.13679 0.0
C1294 C 0.98735 0.45193 0.13149 0.0
C1295 C 0.99508 0.44074 0.1215 0.0
C1296 C 0.03653 0.50508 0.13687 0.0
C1297 C 0.96483 0.4413 0.1365 0.0
C1298 C 0.00089 0.49403 0.23092 0.0
C1299 C 0.99458 0.50657 0.24048 0.0
C1300 C 0.9858 0.5163 0.23004 0.0
C1301 C 0.98361 0.51394 0.20936 0.0
C1302 C 0.97512 0.52378 0.19838 0.0
C1303 C 0.97325 0.52155 0.17801 0.0
C1304 C 0.97977 0.50937 0.16784 0.0
C1305 C 0.97821 0.50723 0.14711 0.0
C1306 C 0.98497 0.49511 0.13748 0.0
C1307 C 0.99313 0.48483 0.148 0.0
C1308 C 0.99455 0.48654 0.16873 0.0
C1309 C 0.00229 0.47605 0.17977 0.0
C1310 C 0.00404 0.47817 0.20015 0.0
C1311 C 0.99842 0.49112 0.21026 0.0
C1312 C 0.99004 0.50138 0.19944 0.0
C1313 C 0.98808 0.49906 0.17866 0.0
C1314 C 0.92889 0.56701 0.10941 0.0
C1315 C 0.94864 0.56682 0.10413 0.0
O1316 O 0.03768 0.45848 0.27742 0.0
O1317 O 0.02421 0.4399 0.10734 0.0
O1318 O 0.94446 0.54656 0.10189 0.0
O1319 O 0.95669 0.56216 0.27197 0.0
H1320 H 0.02583 0.45949 0.30374 0.0
H1321 H 0.06274 0.47349 0.30771 0.0
H1322 H 0.0602 0.44889 0.30071 0.0
H1323 H 0.04877 0.4515 0.32305 0.0
H1324 H 0.99768 0.44635 0.27641 0.0
H1325 H 0.057 0.48873 0.25399 0.0
H1326 H 0.97134 0.46932 0.26397 0.0
H1327 H 0.96709 0.44336 0.26306 0.0
H1328 H 0.96828 0.4565 0.24063 0.0
H1329 H 0.06237 0.51763 0.23548 0.0
H1330 H 0.0416 0.52297 0.23189 0.0
H1331 H 0.04453 0.50586 0.21513 0.0
H1332 H 0.9629 0.58444 0.25233 0.0
H1333 H 0.94302 0.59821 0.26801 0.0
H1334 H 0.93473 0.57851 0.2863 0.0
H1335 H 0.9282 0.57124 0.26085 0.0
H1336 H 0.99466 0.57766 0.25825 0.0
H1337 H 0.93614 0.52292 0.26496 0.0
H1338 H 0.02206 0.55355 0.24349 0.0
H1339 H 0.022 0.57765 0.24165 0.0
H1340 H 0.01331 0.55935 0.2212 0.0
H1341 H 0.9286 0.49038 0.25193 0.0
H1342 H 0.95079 0.48696 0.25237 0.0
H1343 H 0.94197 0.49178 0.2296 0.0
H1344 H 0.95843 0.57382 0.11742 0.0
H1345 H 0.98408 0.5631 0.11204 0.0
H1346 H 0.92426 0.50915 0.1141 0.0
H1347 H 0.00767 0.55119 0.14977 0.0
H1348 H 0.01343 0.56518 0.12718 0.0
H1349 H 0.01249 0.54054 0.12809 0.0
H1350 H 0.91803 0.47926 0.13094 0.0
H1351 H 0.93466 0.48458 0.15224 0.0
H1352 H 0.93956 0.47478 0.13001 0.0
H1353 H 0.00705 0.41154 0.11911 0.0
H1354 H 0.02822 0.3975 0.10649 0.0
H1355 H 0.043 0.42103 0.12083 0.0
H1356 H 0.04456 0.4216 0.09442 0.0
H1357 H 0.04517 0.47826 0.11778 0.0
H1358 H 0.98469 0.42478 0.11718 0.0
H1359 H 0.03772 0.50734 0.15309 0.0
H1360 H 0.03057 0.51486 0.13085 0.0
H1361 H 0.0522 0.51051 0.13115 0.0
H1362 H 0.95638 0.4248 0.13153 0.0
H1363 H 0.95751 0.44945 0.12954 0.0
H1364 H 0.96325 0.44213 0.15263 0.0
H1365 H 0.99643 0.50871 0.25632 0.0
H1366 H 0.96992 0.53342 0.20541 0.0
H1367 H 0.9667 0.52957 0.17033 0.0
H1368 H 0.98396 0.49373 0.12156 0.0
H1369 H 0.00709 0.46607 0.17279 0.0
H1370 H 0.01001 0.46964 0.20786 0.0
H1371 H 0.93241 0.58318 0.11217 0.0
H1372 H 0.92248 0.55823 0.12304 0.0
H1373 H 0.91685 0.55996 0.09768 0.0
C1374 C 0.44028 0.42086 0.30556 0.0
C1375 C 0.42505 0.41308 0.28794 0.0
C1376 C 0.44707 0.42274 0.25946 0.0
C1377 C 0.44384 0.43811 0.25146 0.0
C1378 C 0.45834 0.45295 0.23909 0.0
C1379 C 0.47651 0.45247 0.23474 0.0
C1380 C 0.47953 0.43662 0.2423 0.0
C1381 C 0.46455 0.42172 0.25437 0.0
C1382 C 0.4544 0.46937 0.23092 0.0
C1383 C 0.49876 0.43572 0.23798 0.0
C1384 C 0.6104 0.60563 0.27884 0.0
C1385 C 0.59969 0.58771 0.26478 0.0
C1386 C 0.56491 0.56 0.25588 0.0
C1387 C 0.57112 0.54706 0.24671 0.0
C1388 C 0.55676 0.52872 0.23682 0.0
C1389 C 0.53586 0.52363 0.23532 0.0
C1390 C 0.52954 0.53655 0.24467 0.0
C1391 C 0.54414 0.55441 0.25509 0.0
C1392 C 0.56405 0.51491 0.2279 0.0
C1393 C 0.50743 0.53167 0.24353 0.0
C1394 C 0.56857 0.55432 0.10934 0.0
C1395 C 0.57495 0.54221 0.11959 0.0
C1396 C 0.56068 0.52458 0.1295 0.0
C1397 C 0.53971 0.51923 0.12955 0.0
C1398 C 0.53326 0.53144 0.11935 0.0
C1399 C 0.54781 0.54878 0.10927 0.0
C1400 C 0.56807 0.51176 0.14004 0.0
C1401 C 0.51106 0.52626 0.11927 0.0
C1402 C 0.43983 0.35407 0.09312 0.0
C1403 C 0.44101 0.37518 0.09351 0.0
C1404 C 0.4697 0.40826 0.10567 0.0
C1405 C 0.48954 0.41584 0.11347 0.0
C1406 C 0.49897 0.43381 0.12542 0.0
C1407 C 0.48842 0.44476 0.12921 0.0
C1408 C 0.46843 0.43736 0.12103 0.0
C1409 C 0.45924 0.41911 0.10935 0.0
C1410 C 0.52033 0.44124 0.13379 0.0
C1411 C 0.457 0.44896 0.12434 0.0
C1412 C 0.49275 0.46936 0.22328 0.0
C1413 C 0.50659 0.48761 0.2335 0.0
C1414 C 0.52086 0.50508 0.22357 0.0
C1415 C 0.52114 0.5045 0.20282 0.0
C1416 C 0.53419 0.52223 0.19226 0.0
C1417 C 0.53505 0.52131 0.17193 0.0
C1418 C 0.52305 0.50257 0.16138 0.0
C1419 C 0.52467 0.50125 0.14084 0.0
C1420 C 0.51267 0.48238 0.13078 0.0
C1421 C 0.49895 0.46458 0.14071 0.0
C1422 C 0.49683 0.46566 0.16126 0.0
C1423 C 0.48287 0.44823 0.17172 0.0
C1424 C 0.48116 0.44947 0.192 0.0
C1425 C 0.49385 0.468 0.20264 0.0
C1426 C 0.50804 0.48572 0.19238 0.0
C1427 C 0.5092 0.48467 0.17164 0.0
C1428 C 0.61203 0.59399 0.08136 0.0
C1429 C 0.6028 0.57881 0.09732 0.0
O1430 O 0.43353 0.40859 0.27193 0.0
O1431 O 0.46144 0.39081 0.0942 0.0
O1432 O 0.58182 0.57117 0.0991 0.0
O1433 O 0.57839 0.57781 0.2657 0.0
H1434 H 0.42282 0.4264 0.28499 0.0
H1435 H 0.45392 0.43601 0.30215 0.0
H1436 H 0.44594 0.41013 0.30921 0.0
H1437 H 0.43291 0.42314 0.3187 0.0
H1438 H 0.42997 0.43853 0.25469 0.0
H1439 H 0.46674 0.40959 0.26042 0.0
H1440 H 0.46596 0.48474 0.23721 0.0
H1441 H 0.43876 0.46658 0.23432 0.0
H1442 H 0.45616 0.46998 0.21474 0.0
H1443 H 0.49882 0.42242 0.24504 0.0
H1444 H 0.51253 0.45027 0.24328 0.0
H1445 H 0.50013 0.43443 0.22188 0.0
H1446 H 0.60512 0.5909 0.24936 0.0
H1447 H 0.62631 0.59671 0.2973 0.0
H1448 H 0.59847 0.60937 0.28427 0.0
H1449 H 0.61835 0.61959 0.26937 0.0
H1450 H 0.58712 0.55104 0.2473 0.0
H1451 H 0.53946 0.56438 0.26236 0.0
H1452 H 0.55279 0.49835 0.23038 0.0
H1453 H 0.5793 0.51849 0.23405 0.0
H1454 H 0.56553 0.51716 0.21181 0.0
H1455 H 0.50566 0.54479 0.24898 0.0
H1456 H 0.49784 0.51803 0.25259 0.0
H1457 H 0.50139 0.52771 0.22816 0.0
H1458 H 0.61119 0.58383 0.11178 0.0
H1459 H 0.591 0.54636 0.11989 0.0
H1460 H 0.54304 0.55819 0.1013 0.0
H1461 H 0.56709 0.51353 0.15614 0.0
H1462 H 0.58425 0.51646 0.13656 0.0
H1463 H 0.55807 0.49511 0.13604 0.0
H1464 H 0.5087 0.53785 0.11137 0.0
H1465 H 0.50583 0.52541 0.1346 0.0
H1466 H 0.50123 0.51082 0.11212 0.0
H1467 H 0.43417 0.37531 0.10775 0.0
H1468 H 0.42349 0.34146 0.09364 0.0
H1469 H 0.44816 0.35285 0.10617 0.0
H1470 H 0.44677 0.35162 0.07979 0.0
H1471 H 0.49756 0.40745 0.11031 0.0
H1472 H 0.44422 0.41373 0.10264 0.0
H1473 H 0.52076 0.4443 0.14984 0.0
H1474 H 0.53139 0.45601 0.12691 0.0
H1475 H 0.52555 0.42986 0.13116 0.0
H1476 H 0.44165 0.44131 0.11679 0.0
H1477 H 0.46625 0.46496 0.11892 0.0
H1478 H 0.45486 0.45017 0.14031 0.0
H1479 H 0.50608 0.48827 0.2494 0.0
H1480 H 0.54393 0.53704 0.19961 0.0
H1481 H 0.54546 0.53546 0.16463 0.0
H1482 H 0.51442 0.48141 0.11507 0.0
H1483 H 0.47304 0.43347 0.16432 0.0
H1484 H 0.47007 0.43562 0.1993 0.0
H1485 H 0.62181 0.57949 0.06187 0.0
H1486 H 0.62297 0.60908 0.08908 0.0
H1487 H 0.60048 0.59879 0.07714 0.0
C1488 C 0.4294 0.98131 0.31825 0.0
C1489 C 0.42199 0.9916 0.30337 0.0
C1490 C 0.43648 0.9892 0.27218 0.0
C1491 C 0.45114 0.01003 0.26929 0.0
C1492 C 0.46771 0.01541 0.25677 0.0
C1493 C 0.46964 0.99961 0.24702 0.0
C1494 C 0.45447 0.97862 0.24936 0.0
C1495 C 0.43789 0.97371 0.26175 0.0
C1496 C 0.4833 0.03796 0.25414 0.0
C1497 C 0.45605 0.9614 0.23913 0.0
C1498 C 0.63209 0.03883 0.27373 0.0
C1499 C 0.60952 0.02181 0.27117 0.0
C1500 C 0.57911 0.02541 0.26663 0.0
C1501 C 0.56583 0.00563 0.2585 0.0
C1502 C 0.54741 0.00126 0.24886 0.0
C1503 C 0.54233 0.01707 0.24726 0.0
C1504 C 0.55533 0.03678 0.2561 0.0
C1505 C 0.57348 0.04059 0.2659 0.0
C1506 C 0.53354 0.97989 0.24012 0.0
C1507 C 0.55026 0.05391 0.25486 0.0
C1508 C 0.57693 0.02445 0.12154 0.0
C1509 C 0.5617 0.00528 0.12863 0.0
C1510 C 0.54445 0.00345 0.13824 0.0
C1511 C 0.5426 0.02122 0.14136 0.0
C1512 C 0.55785 0.04053 0.13433 0.0
C1513 C 0.57481 0.04186 0.12446 0.0
C1514 C 0.52836 0.98251 0.14536 0.0
C1515 C 0.55638 0.05979 0.13756 0.0
C1516 C 0.40539 0.02343 0.11853 0.0
C1517 C 0.41673 0.01893 0.10217 0.0
C1518 C 0.43859 0.00736 0.11871 0.0
C1519 C 0.44118 0.99029 0.12141 0.0
C1520 C 0.45788 0.992 0.13247 0.0
C1521 C 0.47234 0.01137 0.14106 0.0
C1522 C 0.46986 0.02876 0.13844 0.0
C1523 C 0.45296 0.02659 0.12737 0.0
C1524 C 0.46005 0.97313 0.13503 0.0
C1525 C 0.48508 0.04964 0.14741 0.0
C1526 C 0.48816 0.00502 0.23535 0.0
C1527 C 0.50582 0.00805 0.24546 0.0
C1528 C 0.52394 0.01334 0.23557 0.0
C1529 C 0.52453 0.0154 0.21497 0.0
C1530 C 0.54251 0.02053 0.20457 0.0
C1531 C 0.54279 0.02203 0.18426 0.0
C1532 C 0.52521 0.01873 0.17359 0.0
C1533 C 0.52518 0.01958 0.15288 0.0
C1534 C 0.50781 0.01723 0.14275 0.0
C1535 C 0.49012 0.01348 0.15275 0.0
C1536 C 0.48949 0.01158 0.1734 0.0
C1537 C 0.47165 0.00691 0.18386 0.0
C1538 C 0.47114 0.00477 0.20416 0.0
C1539 C 0.4885 0.00732 0.21476 0.0
C1540 C 0.50672 0.01235 0.20454 0.0
C1541 C 0.50716 0.0143 0.18384 0.0
C1542 C 0.6085 0.00606 0.12237 0.0
C1543 C 0.59789 0.0115 0.10592 0.0
O1544 O 0.4206 0.98352 0.28459 0.0
O1545 O 0.42197 0.00438 0.10781 0.0
O1546 O 0.59389 0.02692 0.11203 0.0
O1547 O 0.59732 0.03032 0.27556 0.0
H1548 H 0.43433 0.00802 0.30436 0.0
H1549 H 0.44522 0.98479 0.31462 0.0
H1550 H 0.41948 0.96427 0.31838 0.0
H1551 H 0.42997 0.98761 0.33328 0.0
H1552 H 0.44963 0.02216 0.27659 0.0
H1553 H 0.42626 0.95769 0.26384 0.0
H1554 H 0.49827 0.04144 0.26089 0.0
H1555 H 0.47845 0.04839 0.26104 0.0
H1556 H 0.4858 0.04136 0.23827 0.0
H1557 H 0.4431 0.94586 0.24269 0.0
H1558 H 0.47079 0.96225 0.24345 0.0
H1559 H 0.45615 0.96327 0.22299 0.0
H1560 H 0.60757 0.01759 0.25529 0.0
H1561 H 0.64248 0.03278 0.26978 0.0
H1562 H 0.63552 0.04485 0.28916 0.0
H1563 H 0.63538 0.05188 0.26398 0.0
H1564 H 0.5697 0.99356 0.2598 0.0
H1565 H 0.5837 0.05569 0.27257 0.0
H1566 H 0.51748 0.97389 0.24499 0.0
H1567 H 0.53864 0.96879 0.24429 0.0
H1568 H 0.53341 0.98068 0.22387 0.0
H1569 H 0.56249 0.06866 0.26171 0.0
H1570 H 0.53557 0.04924 0.26239 0.0
H1571 H 0.54807 0.05663 0.23926 0.0
H1572 H 0.5833 0.99682 0.1028 0.0
H1573 H 0.56309 0.99162 0.127 0.0
H1574 H 0.58661 0.0566 0.11904 0.0
H1575 H 0.52919 0.98245 0.16164 0.0
H1576 H 0.53055 0.9698 0.13944 0.0
H1577 H 0.51268 0.97929 0.14105 0.0
H1578 H 0.56984 0.07378 0.13173 0.0
H1579 H 0.55527 0.06233 0.15351 0.0
H1580 H 0.54214 0.05774 0.13026 0.0
H1581 H 0.43081 0.03406 0.10003 0.0
H1582 H 0.40061 0.03445 0.11328 0.0
H1583 H 0.41581 0.03068 0.13151 0.0
H1584 H 0.39158 0.00936 0.12356 0.0
H1585 H 0.43001 0.97552 0.11474 0.0
H1586 H 0.45117 0.03998 0.1257 0.0
H1587 H 0.46085 0.97039 0.15091 0.0
H1588 H 0.47465 0.97582 0.12846 0.0
H1589 H 0.44704 0.95901 0.12804 0.0
H1590 H 0.48145 0.06186 0.14341 0.0
H1591 H 0.50087 0.05431 0.1425 0.0
H1592 H 0.4851 0.04863 0.16365 0.0
H1593 H 0.50549 0.00641 0.26128 0.0
H1594 H 0.55653 0.02326 0.21198 0.0
H1595 H 0.55702 0.02585 0.17704 0.0
H1596 H 0.50793 0.018 0.12685 0.0
H1597 H 0.45781 0.0047 0.17645 0.0
H1598 H 0.45698 0.00107 0.21145 0.0
H1599 H 0.61365 0.99543 0.11658 0.0
H1600 H 0.59747 0.99803 0.13425 0.0
H1601 H 0.62188 0.01987 0.12919 0.0
C1602 C 0.58197 0.97987 0.74758 0.0
C1603 C 0.58255 0.99588 0.73316 0.0
C1604 C 0.56504 0.01109 0.75174 0.0
C1605 C 0.56835 0.02883 0.76207 0.0
C1606 C 0.55251 0.02912 0.77253 0.0
C1607 C 0.53289 0.01104 0.77281 0.0
C1608 C 0.52918 0.9932 0.76185 0.0
C1609 C 0.54525 0.99344 0.75127 0.0
C1610 C 0.55687 0.04859 0.78366 0.0
C1611 C 0.50835 0.97372 0.7617 0.0
C1612 C 0.38896 0.00177 0.72801 0.0
C1613 C 0.40106 0.99643 0.74173 0.0
C1614 C 0.43466 0.01285 0.75854 0.0
C1615 C 0.43358 0.9941 0.76344 0.0
C1616 C 0.4502 0.99397 0.77289 0.0
C1617 C 0.46821 0.01295 0.77773 0.0
C1618 C 0.46937 0.03186 0.77291 0.0
C1619 C 0.45252 0.03154 0.76335 0.0
C1620 C 0.4485 0.97349 0.77773 0.0
C1621 C 0.48835 0.05233 0.77795 0.0
C1622 C 0.43881 0.00392 0.90393 0.0
C1623 C 0.43458 0.98541 0.8943 0.0
C1624 C 0.44994 0.98414 0.88383 0.0
C1625 C 0.46982 0.00181 0.88289 0.0
C1626 C 0.47433 0.02021 0.8933 0.0
C1627 C 0.45876 0.02091 0.90392 0.0
C1628 C 0.44484 0.96406 0.87347 0.0
C1629 C 0.49543 0.03927 0.89276 0.0
C1630 C 0.61162 0.00387 0.8982 0.0
C1631 C 0.59461 0.99853 0.91322 0.0
C1632 C 0.5616 0.98795 0.89606 0.0
C1633 C 0.54189 0.97121 0.89208 0.0
C1634 C 0.5267 0.97395 0.88266 0.0
C1635 C 0.53134 0.99405 0.87733 0.0
C1636 C 0.55124 0.01111 0.88134 0.0
C1637 C 0.56628 0.00783 0.89025 0.0
C1638 C 0.50573 0.95536 0.87835 0.0
C1639 C 0.55672 0.03284 0.8761 0.0
C1640 C 0.51667 0.01043 0.78549 0.0
C1641 C 0.50125 0.01318 0.77684 0.0
C1642 C 0.48561 0.0128 0.78811 0.0
C1643 C 0.48574 0.01048 0.80865 0.0
C1644 C 0.47084 0.01113 0.82051 0.0
C1645 C 0.47086 0.00842 0.84066 0.0
C1646 C 0.48559 0.00463 0.84967 0.0
C1647 C 0.48549 0.00142 0.87008 0.0
C1648 C 0.50042 0.99784 0.87861 0.0
C1649 C 0.51553 0.99724 0.86724 0.0
C1650 C 0.51577 0.00019 0.84676 0.0
C1651 C 0.53053 0.99935 0.83482 0.0
C1652 C 0.53093 0.00277 0.81478 0.0
C1653 C 0.51639 0.00688 0.80584 0.0
C1654 C 0.50104 0.00722 0.8175 0.0
C1655 C 0.50081 0.00403 0.838 0.0
C1656 C 0.40443 0.01761 0.89784 0.0
C1657 C 0.40415 0.99876 0.90706 0.0
O1658 O 0.58146 0.01177 0.74276 0.0
O1659 O 0.57545 0.98413 0.90543 0.0
O1660 O 0.42413 0.00568 0.91381 0.0
O1661 O 0.41902 0.0135 0.74891 0.0
H1662 H 0.56868 0.98695 0.72361 0.0
H1663 H 0.5663 0.97048 0.75351 0.0
H1664 H 0.59266 0.98707 0.76033 0.0
H1665 H 0.58582 0.96905 0.73986 0.0
H1666 H 0.58359 0.04244 0.76215 0.0
H1667 H 0.5422 0.97972 0.74295 0.0
H1668 H 0.5446 0.0524 0.78047 0.0
H1669 H 0.57202 0.06203 0.77994 0.0
H1670 H 0.55687 0.04605 0.79968 0.0
H1671 H 0.50824 0.96079 0.7533 0.0
H1672 H 0.49666 0.97689 0.75502 0.0
H1673 H 0.50366 0.96877 0.77698 0.0
H1674 H 0.39195 0.98574 0.75362 0.0
H1675 H 0.38986 0.98813 0.70182 0.0
H1676 H 0.39516 0.01892 0.72983 0.0
H1677 H 0.37412 0.99719 0.73569 0.0
H1678 H 0.41984 0.97949 0.75991 0.0
H1679 H 0.45324 0.04592 0.75948 0.0
H1680 H 0.44897 0.97216 0.79391 0.0
H1681 H 0.46178 0.97268 0.77171 0.0
H1682 H 0.43402 0.96009 0.77178 0.0
H1683 H 0.48663 0.0657 0.77368 0.0
H1684 H 0.50182 0.05328 0.77035 0.0
H1685 H 0.49169 0.05348 0.794 0.0
H1686 H 0.39944 0.98642 0.89556 0.0
H1687 H 0.41939 0.97188 0.89511 0.0
H1688 H 0.46192 0.03497 0.91178 0.0
H1689 H 0.44485 0.966 0.85735 0.0
H1690 H 0.4295 0.95113 0.87752 0.0
H1691 H 0.45675 0.95985 0.87705 0.0
H1692 H 0.49631 0.0525 0.9013 0.0
H1693 H 0.4995 0.04395 0.87731 0.0
H1694 H 0.5071 0.03573 0.89882 0.0
H1695 H 0.5954 0.01353 0.91633 0.0
H1696 H 0.62703 0.01399 0.90519 0.0
H1697 H 0.60971 0.01243 0.88593 0.0
H1698 H 0.61123 0.99 0.89169 0.0
H1699 H 0.53842 0.9559 0.89641 0.0
H1700 H 0.5816 0.02096 0.89243 0.0
H1701 H 0.50145 0.95488 0.86261 0.0
H1702 H 0.49402 0.95664 0.88716 0.0
H1703 H 0.50514 0.94059 0.88186 0.0
H1704 H 0.57157 0.04468 0.88304 0.0
H1705 H 0.54443 0.03609 0.88074 0.0
H1706 H 0.55806 0.03446 0.85994 0.0
H1707 H 0.50117 0.01518 0.7611 0.0
H1708 H 0.45905 0.01386 0.81436 0.0
H1709 H 0.45909 0.00923 0.84904 0.0
H1710 H 0.50034 0.99559 0.89432 0.0
H1711 H 0.54202 0.99611 0.84084 0.0
H1712 H 0.54272 0.00201 0.80638 0.0
H1713 H 0.38973 0.01368 0.89031 0.0
H1714 H 0.41661 0.02426 0.88665 0.0
H1715 H 0.40791 0.02976 0.90929 0.0
C1716 C 0.04756 0.61058 0.722 0.0
C1717 C 0.02619 0.59698 0.7306 0.0
C1718 C 0.02024 0.5756 0.75897 0.0
C1719 C 0.99911 0.56125 0.75786 0.0
C1720 C 0.9911 0.54207 0.76699 0.0
C1721 C 0.00463 0.53724 0.77727 0.0
C1722 C 0.02602 0.55185 0.77835 0.0
C1723 C 0.03345 0.57105 0.76951 0.0
C1724 C 0.96822 0.52704 0.76579 0.0
C1725 C 0.04115 0.54726 0.78874 0.0
C1726 C 0.99701 0.396 0.71823 0.0
C1727 C 0.00277 0.41582 0.7288 0.0
C1728 C 0.98737 0.43433 0.74429 0.0
C1729 C 0.0059 0.44941 0.75346 0.0
C1730 C 0.00638 0.46469 0.766 0.0
C1731 C 0.98796 0.46495 0.76955 0.0
C1732 C 0.9693 0.44994 0.76029 0.0
C1733 C 0.96925 0.43479 0.74774 0.0
C1734 C 0.02664 0.48062 0.77544 0.0
C1735 C 0.94944 0.44989 0.76379 0.0
C1736 C 0.99323 0.42559 0.89465 0.0
C1737 C 0.01043 0.4403 0.88447 0.0
C1738 C 0.00987 0.45643 0.87469 0.0
C1739 C 0.9917 0.45779 0.87496 0.0
C1740 C 0.97436 0.443 0.88515 0.0
C1741 C 0.97547 0.42722 0.89506 0.0
C1742 C 0.02892 0.47233 0.8645 0.0
C1743 C 0.95477 0.44399 0.88575 0.0
C1744 C 0.03531 0.61737 0.90736 0.0
C1745 C 0.0157 0.59715 0.9122 0.0
C1746 C 0.01548 0.56492 0.90549 0.0
C1747 C 0.02993 0.55899 0.901 0.0
C1748 C 0.02439 0.54121 0.88937 0.0
C1749 C 0.00369 0.52877 0.88269 0.0
C1750 C 0.98874 0.53409 0.88817 0.0
C1751 C 0.99485 0.55225 0.89937 0.0
C1752 C 0.04074 0.53596 0.88393 0.0
C1753 C 0.9664 0.52076 0.88198 0.0
C1754 C 0.99664 0.5169 0.78671 0.0
C1755 C 0.99285 0.4999 0.77478 0.0
C1756 C 0.9885 0.4811 0.78292 0.0
C1757 C 0.98765 0.47901 0.80354 0.0
C1758 C 0.98386 0.46048 0.81223 0.0
C1759 C 0.98463 0.4591 0.83255 0.0
C1760 C 0.98915 0.47617 0.84493 0.0
C1761 C 0.99138 0.47542 0.8655 0.0
C1762 C 0.99539 0.49251 0.87741 0.0
C1763 C 0.99791 0.5107 0.86932 0.0
C1764 C 0.99634 0.51197 0.84873 0.0
C1765 C -0.00048 0.53029 0.84004 0.0
C1766 C 0.99895 0.53172 0.81974 0.0
C1767 C 0.99546 0.51499 0.80734 0.0
C1768 C 0.99135 0.4961 0.81578 0.0
C1769 C 0.99197 0.49464 0.83651 0.0
C1770 C 0.98838 0.37967 0.89055 0.0
C1771 C 0.00411 0.4 0.9012 0.0
O1772 O 0.02821 0.59418 0.75036 0.0
O1773 O 0.02173 0.58275 0.91606 0.0
O1774 O 0.99355 0.41047 0.90528 0.0
O1775 O 0.9864 0.41906 0.73232 0.0
H1776 H 0.0205 0.58202 0.72257 0.0
H1777 H 0.05705 0.6031 0.724 0.0
H1778 H 0.0559 0.62616 0.72915 0.0
H1779 H 0.04609 0.61242 0.706 0.0
H1780 H 0.9889 0.56525 0.75021 0.0
H1781 H 0.04974 0.58244 0.77037 0.0
H1782 H 0.96525 0.51312 0.757 0.0
H1783 H 0.95959 0.53389 0.75887 0.0
H1784 H 0.96222 0.52188 0.78072 0.0
H1785 H 0.05733 0.55837 0.78491 0.0
H1786 H 0.03785 0.53135 0.78502 0.0
H1787 H 0.03972 0.54834 0.80485 0.0
H1788 H 0.0162 0.4297 0.72257 0.0
H1789 H 0.00486 0.40062 0.70369 0.0
H1790 H 0.98102 0.38999 0.71191 0.0
H1791 H 0.0039 0.38001 0.73855 0.0
H1792 H 0.02011 0.44939 0.75094 0.0
H1793 H 0.95503 0.42313 0.74065 0.0
H1794 H 0.02546 0.48002 0.79167 0.0
H1795 H 0.03031 0.49635 0.77107 0.0
H1796 H 0.0396 0.47825 0.7712 0.0
H1797 H 0.93615 0.43704 0.75565 0.0
H1798 H 0.95105 0.46482 0.75917 0.0
H1799 H 0.94616 0.44844 0.77973 0.0
H1800 H 0.01719 0.40876 0.89134 0.0
H1801 H 0.02463 0.43988 0.88474 0.0
H1802 H 0.96238 0.416 0.90319 0.0
H1803 H 0.02578 0.4713 0.84844 0.0
H1804 H 0.04235 0.47012 0.86709 0.0
H1805 H 0.03308 0.48816 0.86966 0.0
H1806 H 0.94199 0.43016 0.89258 0.0
H1807 H 0.9499 0.44535 0.87065 0.0
H1808 H 0.9576 0.45799 0.89432 0.0
H1809 H 0.00558 0.592 0.89888 0.0
H1810 H 0.03184 0.62952 0.9028 0.0
H1811 H 0.0433 0.61456 0.89506 0.0
H1812 H 0.04599 0.62327 0.92034 0.0
H1813 H 0.04573 0.56872 0.90613 0.0
H1814 H 0.98349 0.55647 0.90351 0.0
H1815 H 0.04063 0.53364 0.86777 0.0
H1816 H 0.03734 0.52125 0.89084 0.0
H1817 H 0.05641 0.54822 0.88881 0.0
H1818 H 0.95631 0.52545 0.88964 0.0
H1819 H 0.961 0.50426 0.885 0.0
H1820 H 0.96473 0.522 0.86592 0.0
H1821 H 0.99445 0.50166 0.759 0.0
H1822 H 0.9806 0.44695 0.80339 0.0
H1823 H 0.9819 0.44457 0.83844 0.0
H1824 H 0.99729 0.49191 0.89317 0.0
H1825 H 0.00278 0.54386 0.84879 0.0
H1826 H 0.00165 0.54625 0.81386 0.0
H1827 H 0.97638 0.36929 0.90085 0.0
H1828 H 0.99556 0.3713 0.88382 0.0
H1829 H 0.98063 0.38309 0.87837 0.0
C1830 C 0.5602 0.55615 0.70013 0.0
C1831 C 0.56281 0.57315 0.71491 0.0
C1832 C 0.54873 0.55621 0.74578 0.0
C1833 C 0.53474 0.56302 0.74982 0.0
C1834 C 0.51809 0.55185 0.76221 0.0
C1835 C 0.51545 0.53354 0.77076 0.0
C1836 C 0.52995 0.52704 0.76723 0.0
C1837 C 0.5466 0.53867 0.75496 0.0
C1838 C 0.50322 0.5595 0.76606 0.0
C1839 C 0.52761 0.50762 0.77614 0.0
C1840 C 0.36928 0.44092 0.70822 0.0
C1841 C 0.38574 0.43876 0.71979 0.0
C1842 C 0.40492 0.45757 0.74928 0.0
C1843 C 0.4192 0.45087 0.75172 0.0
C1844 C 0.43741 0.46278 0.76288 0.0
C1845 C 0.44137 0.48183 0.77155 0.0
C1846 C 0.4269 0.48859 0.769 0.0
C1847 C 0.40862 0.47609 0.75821 0.0
C1848 C 0.45231 0.45495 0.76554 0.0
C1849 C 0.43075 0.50906 0.77752 0.0
C1850 C 0.40679 0.46786 0.89932 0.0
C1851 C 0.41948 0.45952 0.89513 0.0
C1852 C 0.43756 0.47076 0.88445 0.0
C1853 C 0.44296 0.4907 0.87784 0.0
C1854 C 0.43044 0.49933 0.88252 0.0
C1855 C 0.41261 0.48784 0.89341 0.0
C1856 C 0.45089 0.46136 0.8802 0.0
C1857 C 0.4358 0.52061 0.87586 0.0
C1858 C 0.58532 0.62486 0.89825 0.0
C1859 C 0.57078 0.61166 0.91456 0.0
C1860 C 0.5493 0.57712 0.899 0.0
C1861 C 0.54551 0.55678 0.89849 0.0
C1862 C 0.52892 0.54119 0.88746 0.0
C1863 C 0.51572 0.54611 0.87678 0.0
C1864 C 0.5195 0.56669 0.87712 0.0
C1865 C 0.5364 0.58204 0.888 0.0
C1866 C 0.52543 0.51945 0.88728 0.0
C1867 C 0.5056 0.57246 0.86606 0.0
C1868 C 0.49712 0.52082 0.78278 0.0
C1869 C 0.47871 0.50701 0.7729 0.0
C1870 C 0.46067 0.49483 0.78314 0.0
C1871 C 0.46097 0.4961 0.8039 0.0
C1872 C 0.44324 0.48367 0.8147 0.0
C1873 C 0.44345 0.48565 0.83506 0.0
C1874 C 0.46145 0.50005 0.84541 0.0
C1875 C 0.46169 0.50258 0.86606 0.0
C1876 C 0.47973 0.51733 0.87583 0.0
C1877 C 0.4977 0.52971 0.86556 0.0
C1878 C 0.4979 0.52714 0.84496 0.0
C1879 C 0.51583 0.53909 0.83422 0.0
C1880 C 0.51567 0.53696 0.81387 0.0
C1881 C 0.49759 0.52276 0.8035 0.0
C1882 C 0.47944 0.51033 0.81407 0.0
C1883 C 0.47964 0.51241 0.83484 0.0
C1884 C 0.35331 0.43184 0.90903 0.0
C1885 C 0.37554 0.43613 0.90828 0.0
O1886 O 0.56457 0.56643 0.73334 0.0
O1887 O 0.56546 0.59132 0.91032 0.0
O1888 O 0.38905 0.45729 0.9093 0.0
O1889 O 0.38715 0.44619 0.73882 0.0
H1890 H 0.54888 0.57473 0.71393 0.0
H1891 H 0.54708 0.54099 0.70442 0.0
H1892 H 0.57436 0.5549 0.70006 0.0
H1893 H 0.55684 0.55897 0.68499 0.0
H1894 H 0.53689 0.57715 0.74345 0.0
H1895 H 0.55771 0.53376 0.75199 0.0
H1896 H 0.48783 0.54825 0.75968 0.0
H1897 H 0.50832 0.57487 0.75962 0.0
H1898 H 0.50143 0.56063 0.78212 0.0
H1899 H 0.53989 0.50435 0.77152 0.0
H1900 H 0.51238 0.49419 0.77179 0.0
H1901 H 0.52812 0.50916 0.7924 0.0
H1902 H 0.40016 0.44935 0.71223 0.0
H1903 H 0.36845 0.43558 0.69274 0.0
H1904 H 0.37338 0.45744 0.70819 0.0
H1905 H 0.35381 0.43186 0.71465 0.0
H1906 H 0.41591 0.43615 0.74529 0.0
H1907 H 0.39731 0.48096 0.75632 0.0
H1908 H 0.45617 0.45524 0.78137 0.0
H1909 H 0.46685 0.46529 0.75796 0.0
H1910 H 0.44604 0.43895 0.7595 0.0
H1911 H 0.41958 0.51342 0.77169 0.0
H1912 H 0.4466 0.52155 0.77426 0.0
H1913 H 0.42938 0.50807 0.79372 0.0
H1914 H 0.37634 0.43055 0.89338 0.0
H1915 H 0.41554 0.44447 0.9005 0.0
H1916 H 0.40284 0.49424 0.89701 0.0
H1917 H 0.4514 0.45921 0.86409 0.0
H1918 H 0.44512 0.44614 0.8872 0.0
H1919 H 0.46692 0.47203 0.88554 0.0
H1920 H 0.42387 0.52464 0.87979 0.0
H1921 H 0.43767 0.5215 0.85968 0.0
H1922 H 0.45073 0.53233 0.88272 0.0
H1923 H 0.55682 0.61324 0.91479 0.0
H1924 H 0.58843 0.641 0.89861 0.0
H1925 H 0.57832 0.61819 0.88358 0.0
H1926 H 0.60021 0.62505 0.89948 0.0
H1927 H 0.55558 0.55313 0.90691 0.0
H1928 H 0.53934 0.59776 0.88776 0.0
H1929 H 0.52415 0.51368 0.8719 0.0
H1930 H 0.51067 0.50904 0.89449 0.0
H1931 H 0.53803 0.5185 0.89503 0.0
H1932 H 0.5094 0.58863 0.8694 0.0
H1933 H 0.48926 0.56184 0.86976 0.0
H1934 H 0.50707 0.57081 0.85003 0.0
H1935 H 0.47834 0.50601 0.75698 0.0
H1936 H 0.42893 0.47235 0.80751 0.0
H1937 H 0.42927 0.47584 0.84256 0.0
H1938 H 0.47966 0.51951 0.89162 0.0
H1939 H 0.53016 0.55033 0.84142 0.0
H1940 H 0.52986 0.54671 0.80635 0.0
H1941 H 0.34235 0.41496 0.90714 0.0
H1942 H 0.35039 0.43989 0.8969 0.0
H1943 H 0.35007 0.43722 0.92309 0.0
C1944 C 0.66147 0.77437 0.6506 0.0
C1945 C 0.64713 0.75691 0.63604 0.0
C1946 C 0.6493 0.77348 0.60487 0.0
C1947 C 0.62847 0.7669 0.60098 0.0
C1948 C 0.62282 0.77775 0.58804 0.0
C1949 C 0.63834 0.79553 0.57887 0.0
C1950 C 0.65934 0.80183 0.58235 0.0
C1951 C 0.66453 0.79048 0.59511 0.0
C1952 C 0.60027 0.77029 0.58425 0.0
C1953 C 0.6763 0.82077 0.5729 0.0
C1954 C 0.58752 0.89211 0.63711 0.0
C1955 C 0.60545 0.89221 0.62638 0.0
C1956 C 0.60539 0.87304 0.59722 0.0
C1957 C 0.62627 0.87932 0.59517 0.0
C1958 C 0.63223 0.86702 0.58448 0.0
C1959 C 0.61693 0.84803 0.57582 0.0
C1960 C 0.59583 0.84175 0.57784 0.0
C1961 C 0.59037 0.8546 0.58822 0.0
C1962 C 0.65486 0.87436 0.58233 0.0
C1963 C 0.57904 0.82142 0.56918 0.0
C1964 C 0.60947 0.86974 0.44632 0.0
C1965 C 0.6292 0.87658 0.45444 0.0
C1966 C 0.6332 0.86339 0.46577 0.0
C1967 C 0.61705 0.84307 0.46927 0.0
C1968 C 0.59723 0.83604 0.46083 0.0
C1969 C 0.59381 0.84943 0.44919 0.0
C1970 C 0.65471 0.87116 0.47391 0.0
C1971 C 0.57967 0.81446 0.46418 0.0
C1972 C 0.62421 0.70672 0.45435 0.0
C1973 C 0.61949 0.71729 0.43741 0.0
C1974 C 0.63147 0.75264 0.45079 0.0
C1975 C 0.64855 0.77259 0.45243 0.0
C1976 C 0.64778 0.78831 0.4633 0.0
C1977 C 0.62924 0.78403 0.47238 0.0
C1978 C 0.61182 0.76391 0.47074 0.0
C1979 C 0.6132 0.74832 0.46028 0.0
C1980 C 0.66676 0.80948 0.46509 0.0
C1981 C 0.59162 0.75894 0.47987 0.0
C1982 C 0.63264 0.80802 0.5663 0.0
C1983 C 0.6281 0.82203 0.57564 0.0
C1984 C 0.6229 0.83457 0.56484 0.0
C1985 C 0.62267 0.83356 0.54409 0.0
C1986 C 0.61828 0.84653 0.53277 0.0
C1987 C 0.61769 0.84514 0.51236 0.0
C1988 C 0.62152 0.83075 0.50248 0.0
C1989 C 0.62091 0.82917 0.48174 0.0
C1990 C 0.62392 0.81411 0.47242 0.0
C1991 C 0.62782 0.80064 0.48326 0.0
C1992 C 0.62934 0.80253 0.50398 0.0
C1993 C 0.63403 0.78976 0.5153 0.0
C1994 C 0.63519 0.79156 0.53571 0.0
C1995 C 0.63163 0.80613 0.54557 0.0
C1996 C 0.62681 0.81911 0.53444 0.0
C1997 C 0.62596 0.81751 0.51362 0.0
C1998 C 0.59614 0.90784 0.43717 0.0
C1999 C 0.61395 0.9033 0.43744 0.0
O2000 O 0.65519 0.76346 0.61757 0.0
O2001 O 0.63338 0.73834 0.43974 0.0
O2002 O 0.60536 0.88209 0.43491 0.0
O2003 O 0.5993 0.88475 0.60732 0.0
H2004 H 0.63141 0.75476 0.63696 0.0
H2005 H 0.66313 0.7893 0.64586 0.0
H2006 H 0.67702 0.77594 0.65097 0.0
H2007 H 0.65551 0.77187 0.6657 0.0
H2008 H 0.61659 0.75315 0.6078 0.0
H2009 H 0.68055 0.79519 0.59798 0.0
H2010 H 0.59645 0.78176 0.59049 0.0
H2011 H 0.59011 0.75507 0.59091 0.0
H2012 H 0.59694 0.76895 0.5682 0.0
H2013 H 0.69187 0.82428 0.57801 0.0
H2014 H 0.6745 0.83439 0.57619 0.0
H2015 H 0.67519 0.81837 0.5567 0.0
H2016 H 0.60779 0.88078 0.63452 0.0
H2017 H 0.59213 0.89751 0.65261 0.0
H2018 H 0.57413 0.8761 0.63715 0.0
H2019 H 0.58246 0.90215 0.63006 0.0
H2020 H 0.63789 0.894 0.60156 0.0
H2021 H 0.57428 0.85007 0.58977 0.0
H2022 H 0.6584 0.87396 0.56659 0.0
H2023 H 0.65874 0.86377 0.59014 0.0
H2024 H 0.66481 0.89031 0.5884 0.0
H2025 H 0.56349 0.81773 0.57404 0.0
H2026 H 0.58174 0.80864 0.57342 0.0
H2027 H 0.57929 0.82207 0.55292 0.0
H2028 H 0.62118 0.90769 0.45231 0.0
H2029 H 0.64159 0.89206 0.45158 0.0
H2030 H 0.57874 0.84421 0.44255 0.0
H2031 H 0.65474 0.87275 0.49014 0.0
H2032 H 0.66602 0.88642 0.46799 0.0
H2033 H 0.65982 0.85986 0.47043 0.0
H2034 H 0.56477 0.81206 0.45818 0.0
H2035 H 0.5781 0.81131 0.48014 0.0
H2036 H 0.58299 0.80302 0.45699 0.0
H2037 H 0.60335 0.71397 0.43805 0.0
H2038 H 0.61234 0.69028 0.45587 0.0
H2039 H 0.62485 0.71457 0.46855 0.0
H2040 H 0.63941 0.70782 0.45226 0.0
H2041 H 0.66261 0.77579 0.44518 0.0
H2042 H 0.59983 0.733 0.45953 0.0
H2043 H 0.6703 0.81437 0.4808 0.0
H2044 H 0.66384 0.82091 0.45763 0.0
H2045 H 0.68043 0.80987 0.45848 0.0
H2046 H 0.57906 0.74303 0.47596 0.0
H2047 H 0.58691 0.77013 0.47502 0.0
H2048 H 0.59354 0.76045 0.4961 0.0
H2049 H 0.62845 0.82305 0.59157 0.0
H2050 H 0.61524 0.85792 0.53957 0.0
H2051 H 0.6141 0.85543 0.50443 0.0
H2052 H 0.623 0.8127 0.45651 0.0
H2053 H 0.63688 0.77825 0.5085 0.0
H2054 H 0.6388 0.78129 0.54368 0.0
H2055 H 0.58814 0.90358 0.42257 0.0
H2056 H 0.60168 0.92444 0.44041 0.0
H2057 H 0.58483 0.89864 0.4485 0.0
C2058 C 0.09702 0.70186 0.644 0.0
C2059 C 0.09528 0.71852 0.63262 0.0
C2060 C 0.1144 0.73786 0.60431 0.0
C2061 C 0.1069 0.7514 0.601 0.0
C2062 C 0.11856 0.76969 0.59067 0.0
C2063 C 0.13803 0.77438 0.58345 0.0
C2064 C 0.14538 0.76044 0.58643 0.0
C2065 C 0.13327 0.74217 0.59659 0.0
C2066 C 0.1101 0.78402 0.58746 0.0
C2067 C 0.16614 0.76496 0.57913 0.0
C2068 C 0.2677 0.9256 0.63674 0.0
C2069 C 0.25444 0.90414 0.62872 0.0
C2070 C 0.22032 0.88177 0.61402 0.0
C2071 C 0.22491 0.86665 0.6072 0.0
C2072 C 0.21073 0.84981 0.59546 0.0
C2073 C 0.19149 0.84791 0.59042 0.0
C2074 C 0.18658 0.86278 0.5976 0.0
C2075 C 0.20111 0.87955 0.60933 0.0
C2076 C 0.21642 0.83413 0.5882 0.0
C2077 C 0.16617 0.86112 0.59255 0.0
C2078 C 0.23022 0.89029 0.46523 0.0
C2079 C 0.2362 0.87791 0.47556 0.0
C2080 C 0.22162 0.86023 0.48521 0.0
C2081 C 0.20071 0.85513 0.48498 0.0
C2082 C 0.19474 0.86789 0.47509 0.0
C2083 C 0.2096 0.88527 0.46526 0.0
C2084 C 0.22854 0.84686 0.49541 0.0
C2085 C 0.17263 0.86303 0.47475 0.0
C2086 C 0.10711 0.69484 0.43345 0.0
C2087 C 0.10681 0.71522 0.43476 0.0
C2088 C 0.13396 0.74745 0.45001 0.0
C2089 C 0.15345 0.75454 0.45849 0.0
C2090 C 0.16177 0.77093 0.47237 0.0
C2091 C 0.15047 0.78081 0.47746 0.0
C2092 C 0.13083 0.7739 0.46866 0.0
C2093 C 0.12275 0.75722 0.45501 0.0
C2094 C 0.18281 0.77792 0.48133 0.0
C2095 C 0.11865 0.78445 0.47334 0.0
C2096 C 0.15107 0.7942 0.57347 0.0
C2097 C 0.16328 0.81177 0.58529 0.0
C2098 C 0.17697 0.83071 0.57706 0.0
C2099 C 0.17823 0.83241 0.55641 0.0
C2100 C 0.19163 0.85133 0.54767 0.0
C2101 C 0.19349 0.85268 0.52738 0.0
C2102 C 0.1823 0.83509 0.51508 0.0
C2103 C 0.18503 0.83607 0.49455 0.0
C2104 C 0.1738 0.81828 0.48275 0.0
C2105 C 0.16 0.7993 0.49087 0.0
C2106 C 0.15695 0.79801 0.51139 0.0
C2107 C 0.14318 0.77921 0.52011 0.0
C2108 C 0.14084 0.77801 0.5404 0.0
C2109 C 0.15247 0.79547 0.55277 0.0
C2110 C 0.16615 0.81466 0.54424 0.0
C2111 C 0.1683 0.81597 0.52354 0.0
C2112 C 0.27346 0.92723 0.43516 0.0
C2113 C 0.26429 0.91305 0.45191 0.0
O2114 O 0.10339 0.72009 0.61414 0.0
O2115 O 0.12682 0.73166 0.43654 0.0
O2116 O 0.24367 0.90673 0.45462 0.0
O2117 O 0.23417 0.89881 0.62469 0.0
H2118 H 0.10558 0.73279 0.64126 0.0
H2119 H 0.11349 0.70626 0.64566 0.0
H2120 H 0.08878 0.68652 0.63637 0.0
H2121 H 0.09064 0.70045 0.65891 0.0
H2122 H 0.09182 0.74751 0.60615 0.0
H2123 H 0.1387 0.73135 0.59896 0.0
H2124 H 0.12005 0.79897 0.5954 0.0
H2125 H 0.09409 0.77744 0.59271 0.0
H2126 H 0.11034 0.78734 0.5716 0.0
H2127 H 0.17018 0.75322 0.58382 0.0
H2128 H 0.1783 0.78043 0.58467 0.0
H2129 H 0.16611 0.76529 0.56285 0.0
H2130 H 0.25551 0.89196 0.63709 0.0
H2131 H 0.27209 0.92369 0.6521 0.0
H2132 H 0.257 0.93128 0.6415 0.0
H2133 H 0.28919 0.93969 0.61519 0.0
H2134 H 0.23961 0.86797 0.61081 0.0
H2135 H 0.19765 0.89122 0.61465 0.0
H2136 H 0.205 0.81853 0.59332 0.0
H2137 H 0.23201 0.83781 0.59342 0.0
H2138 H 0.21598 0.83346 0.5719 0.0
H2139 H 0.16437 0.87353 0.59983 0.0
H2140 H 0.15339 0.84584 0.59698 0.0
H2141 H 0.16476 0.86207 0.5764 0.0
H2142 H 0.27344 0.91834 0.46596 0.0
H2143 H 0.25216 0.88175 0.47594 0.0
H2144 H 0.20513 0.89493 0.45731 0.0
H2145 H 0.22676 0.84767 0.5115 0.0
H2146 H 0.24491 0.85178 0.49254 0.0
H2147 H 0.21878 0.83045 0.4905 0.0
H2148 H 0.17081 0.87546 0.46794 0.0
H2149 H 0.16675 0.86077 0.48994 0.0
H2150 H 0.16297 0.84834 0.46631 0.0
H2151 H 0.09902 0.71394 0.44878 0.0
H2152 H 0.09109 0.68151 0.43296 0.0
H2153 H 0.11513 0.69341 0.44664 0.0
H2154 H 0.11514 0.69385 0.42027 0.0
H2155 H 0.16207 0.74703 0.4543 0.0
H2156 H 0.10805 0.75228 0.44779 0.0
H2157 H 0.18243 0.77925 0.49756 0.0
H2158 H 0.19395 0.79346 0.47587 0.0
H2159 H 0.18851 0.76713 0.47759 0.0
H2160 H 0.10359 0.77721 0.46527 0.0
H2161 H 0.12769 0.80103 0.46949 0.0
H2162 H 0.11582 0.78383 0.48934 0.0
H2163 H 0.16265 0.81052 0.60116 0.0
H2164 H 0.2009 0.86531 0.55641 0.0
H2165 H 0.20408 0.86763 0.52148 0.0
H2166 H 0.17636 0.81907 0.46705 0.0
H2167 H 0.13412 0.76521 0.51133 0.0
H2168 H 0.13004 0.76313 0.54631 0.0
H2169 H 0.28097 0.91056 0.41596 0.0
H2170 H 0.28537 0.94242 0.44207 0.0
H2171 H 0.26244 0.93275 0.43105 0.0
C2172 C 0.07497 0.32282 0.59323 0.0
C2173 C 0.0856 0.33358 0.61294 0.0
C2174 C 0.12114 0.35687 0.60243 0.0
C2175 C 0.13532 0.37747 0.59848 0.0
C2176 C 0.15398 0.38288 0.58938 0.0
C2177 C 0.15844 0.36718 0.58405 0.0
C2178 C 0.1446 0.34639 0.58876 0.0
C2179 C 0.12613 0.34144 0.59803 0.0
C2180 C 0.16861 0.40525 0.58487 0.0
C2181 C 0.14909 0.32934 0.58349 0.0
C2182 C 0.31934 0.40822 0.61677 0.0
C2183 C 0.29749 0.39043 0.61202 0.0
C2184 C 0.26665 0.39267 0.60483 0.0
C2185 C 0.25229 0.37237 0.59883 0.0
C2186 C 0.23464 0.36816 0.58776 0.0
C2187 C 0.23122 0.3846 0.58296 0.0
C2188 C 0.24544 0.40502 0.58952 0.0
C2189 C 0.26294 0.40875 0.60051 0.0
C2190 C 0.21951 0.34615 0.5814 0.0
C2191 C 0.24209 0.42285 0.58495 0.0
C2192 C 0.25697 0.38111 0.4523 0.0
C2193 C 0.24507 0.36378 0.46375 0.0
C2194 C 0.22931 0.36275 0.47541 0.0
C2195 C 0.22592 0.3798 0.47624 0.0
C2196 C 0.23804 0.39738 0.46484 0.0
C2197 C 0.25315 0.39759 0.45268 0.0
C2198 C 0.21607 0.34322 0.48649 0.0
C2199 C 0.235 0.4159 0.46537 0.0
C2200 C 0.08834 0.38097 0.45286 0.0
C2201 C 0.09822 0.373 0.43797 0.0
C2202 C 0.12024 0.36303 0.4566 0.0
C2203 C 0.12255 0.3462 0.46156 0.0
C2204 C 0.14 0.349 0.47209 0.0
C2205 C 0.15549 0.36922 0.47788 0.0
C2206 C 0.15326 0.38636 0.47303 0.0
C2207 C 0.13564 0.38312 0.4625 0.0
C2208 C 0.14185 0.33038 0.47712 0.0
C2209 C 0.1695 0.40812 0.47908 0.0
C2210 C 0.17677 0.37223 0.57224 0.0
C2211 C 0.1949 0.37617 0.58199 0.0
C2212 C 0.21249 0.38042 0.57156 0.0
C2213 C 0.21204 0.38066 0.5508 0.0
C2214 C 0.22942 0.38479 0.53983 0.0
C2215 C 0.22862 0.3845 0.51938 0.0
C2216 C 0.21039 0.38001 0.50914 0.0
C2217 C 0.2091 0.37876 0.48837 0.0
C2218 C 0.19103 0.37521 0.47868 0.0
C2219 C 0.17397 0.37247 0.48916 0.0
C2220 C 0.17463 0.3727 0.50991 0.0
C2221 C 0.15741 0.36906 0.52088 0.0
C2222 C 0.15805 0.36885 0.54127 0.0
C2223 C 0.17604 0.37259 0.55151 0.0
C2224 C 0.1937 0.37667 0.54076 0.0
C2225 C 0.19293 0.37653 0.51992 0.0
C2226 C 0.30651 0.39641 0.44761 0.0
C2227 C 0.28589 0.37607 0.4447 0.0
O2228 O 0.10287 0.35273 0.61016 0.0
O2229 O 0.10289 0.35901 0.44635 0.0
O2230 O 0.27143 0.38181 0.43999 0.0
O2231 O 0.2836 0.3971 0.61579 0.0
H2232 H 0.09005 0.3229 0.6196 0.0
H2233 H 0.05944 0.30937 0.59581 0.0
H2234 H 0.07345 0.33341 0.58302 0.0
H2235 H 0.08401 0.31684 0.58562 0.0
H2236 H 0.13147 0.3893 0.60216 0.0
H2237 H 0.11565 0.32548 0.60145 0.0
H2238 H 0.18435 0.40992 0.59046 0.0
H2239 H 0.16372 0.41579 0.59144 0.0
H2240 H 0.16945 0.40716 0.56871 0.0
H2241 H 0.13692 0.31397 0.58845 0.0
H2242 H 0.16407 0.33283 0.59024 0.0
H2243 H 0.15043 0.32852 0.56732 0.0
H2244 H 0.29778 0.38808 0.59597 0.0
H2245 H 0.32118 0.41339 0.6324 0.0
H2246 H 0.32279 0.42168 0.60753 0.0
H2247 H 0.33081 0.40333 0.61358 0.0
H2248 H 0.2545 0.35978 0.6033 0.0
H2249 H 0.27394 0.42431 0.60567 0.0
H2250 H 0.20424 0.34137 0.58777 0.0
H2251 H 0.22457 0.33515 0.58603 0.0
H2252 H 0.21751 0.3451 0.56517 0.0
H2253 H 0.2548 0.43788 0.59082 0.0
H2254 H 0.22739 0.4201 0.59136 0.0
H2255 H 0.24076 0.42389 0.56881 0.0
H2256 H 0.28214 0.3678 0.4588 0.0
H2257 H 0.24752 0.35067 0.46301 0.0
H2258 H 0.26227 0.41079 0.44359 0.0
H2259 H 0.22049 0.34601 0.50232 0.0
H2260 H 0.21794 0.33011 0.48119 0.0
H2261 H 0.19954 0.33861 0.48509 0.0
H2262 H 0.24781 0.42952 0.45833 0.0
H2263 H 0.23375 0.42021 0.48077 0.0
H2264 H 0.22041 0.41193 0.45747 0.0
H2265 H 0.11253 0.38716 0.43388 0.0
H2266 H 0.09956 0.38998 0.46488 0.0
H2267 H 0.08393 0.39143 0.44553 0.0
H2268 H 0.07452 0.36842 0.45972 0.0
H2269 H 0.11058 0.33076 0.45707 0.0
H2270 H 0.13406 0.39636 0.45916 0.0
H2271 H 0.14309 0.32959 0.49331 0.0
H2272 H 0.15615 0.33193 0.47081 0.0
H2273 H 0.12848 0.31567 0.4715 0.0
H2274 H 0.16565 0.41988 0.47398 0.0
H2275 H 0.18458 0.41168 0.47301 0.0
H2276 H 0.17128 0.4094 0.49534 0.0
H2277 H 0.1953 0.37586 0.59791 0.0
H2278 H 0.2438 0.38815 0.54692 0.0
H2279 H 0.24245 0.38775 0.51169 0.0
H2280 H 0.19015 0.37432 0.46275 0.0
H2281 H 0.14314 0.36608 0.51382 0.0
H2282 H 0.14422 0.36572 0.5489 0.0
H2283 H 0.31147 0.40458 0.43347 0.0
H2284 H 0.31897 0.39398 0.45344 0.0
H2285 H 0.30467 0.40671 0.45834 0.0
C2286 C 0.98729 0.37466 0.07049 0.0
C2287 C 0.99824 0.38392 0.05319 0.0
C2288 C 0.01122 0.41839 0.06839 0.0
C2289 C 0.00359 0.40894 0.08669 0.0
N2290 N 0.97565 0.37979 0.10206 0.0
N2291 N 0.01915 0.41455 0.0347 0.0
C2292 C 0.9887 0.38757 0.08669 0.0
C2293 C 0.0096 0.40581 0.0518 0.0
N2294 N 0.97701 0.35362 0.07217 0.0
N2295 N 0.0183 0.43904 0.06647 0.0
H2296 H 0.0167 0.40595 0.02174 0.0
H2297 H 0.03009 0.43014 0.03349 0.0
H2298 H 0.01623 0.44784 0.07722 0.0
H2299 H 0.02311 0.44678 0.05331 0.0
H2300 H 0.97102 0.34621 0.08531 0.0
H2301 H 0.97581 0.34345 0.06091 0.0
H2302 H 0.96332 0.36468 0.10229 0.0
H2303 H 0.97544 0.38924 0.11339 0.0
C2304 C 0.64661 0.6049 0.07002 0.0
C2305 C 0.63026 0.60625 0.05067 0.0
C2306 C 0.59208 0.56382 0.06278 0.0
C2307 C 0.60762 0.56633 0.08521 0.0
N2308 N 0.64733 0.58187 0.10151 0.0
N2309 N 0.59253 0.5861 0.03097 0.0
C2310 C 0.63607 0.5835 0.0868 0.0
C2311 C 0.60359 0.58564 0.04656 0.0
N2312 N 0.66648 0.62007 0.07227 0.0
N2313 N 0.57275 0.54777 0.06004 0.0
H2314 H 0.59884 0.59796 0.02094 0.0
H2315 H 0.57735 0.57437 0.02845 0.0
H2316 H 0.56663 0.5359 0.07016 0.0
H2317 H 0.56377 0.54675 0.04783 0.0
H2318 H 0.67589 0.61947 0.0833 0.0
H2319 H 0.6728 0.63305 0.06353 0.0
H2320 H 0.66311 0.59215 0.10305 0.0
H2321 H 0.64021 0.57001 0.11153 0.0
C2322 C 0.39933 0.0216 0.04982 0.0
C2323 C 0.37808 0.00656 0.05033 0.0
C2324 C 0.38343 0.99486 0.08206 0.0
C2325 C 0.4041 0.01174 0.08287 0.0
N2326 N 0.43354 0.03311 0.06316 0.0
N2327 N 0.35006 0.97735 0.06609 0.0
C2328 C 0.41267 0.02283 0.06544 0.0
C2329 C 0.37029 0.99263 0.06604 0.0
N2330 N 0.40683 0.03473 0.03442 0.0
N2331 N 0.37586 0.98006 0.09594 0.0
H2332 H 0.33953 0.97506 0.05487 0.0
H2333 H 0.34377 0.96708 0.07761 0.0
H2334 H 0.38457 0.97913 0.10749 0.0
H2335 H 0.38457 0.97913 0.10749 0.0
H2336 H 0.42151 0.04774 0.03451 0.0
H2337 H 0.39801 0.03329 0.02192 0.0
H2338 H 0.44067 0.04014 0.05021 0.0
H2339 H 0.4436 0.03206 0.07317 0.0
C2340 C 0.35705 0.98706 0.93729 0.0
C2341 C 0.3659 0.99027 0.95644 0.0
C2342 C 0.39487 0.98797 0.94301 0.0
C2343 C 0.38868 0.99021 0.92387 0.0
N2344 N 0.35855 0.98071 0.90311 0.0
N2345 N 0.39263 0.99219 0.97803 0.0
C2346 C 0.36814 0.9861 0.92107 0.0
C2347 C 0.3846 0.99015 0.95948 0.0
N2348 N 0.33837 0.98571 0.93426 0.0
N2349 N 0.40888 0.98154 0.94531 0.0
H2350 H 0.38482 0.99219 0.99062 0.0
H2351 H 0.40746 0.99485 0.98082 0.0
H2352 H 0.41389 0.97641 0.93339 0.0
H2353 H 0.41295 0.97821 0.95887 0.0
H2354 H 0.33175 0.98377 0.92026 0.0
H2355 H 0.32973 0.98692 0.94556 0.0
H2356 H 0.36501 0.97813 0.89065 0.0
H2357 H 0.36501 0.97813 0.89065 0.0
C2358 C 0.01688 0.37075 0.93918 0.0
C2359 C 0.01462 0.37981 0.95681 0.0
C2360 C 0.01516 0.40774 0.93784 0.0
C2361 C 0.01265 0.39606 0.92035 0.0
N2362 N 0.02585 0.376 0.90489 0.0
N2363 N 0.01381 0.40823 0.97336 0.0
C2364 C 0.01812 0.38046 0.9211 0.0
C2365 C 0.01462 0.39884 0.95628 0.0
N2366 N 0.01634 0.35219 0.93939 0.0
N2367 N 0.02014 0.42796 0.93672 0.0
H2368 H 0.01521 0.40314 0.98714 0.0
H2369 H 0.01098 0.42054 0.97384 0.0
H2370 H 0.02379 0.43561 0.92342 0.0
H2371 H 0.02361 0.43785 0.94889 0.0
H2372 H 0.0155 0.34391 0.92661 0.0
H2373 H 0.01507 0.3442 0.95218 0.0
H2374 H 0.0317 0.36594 0.90502 0.0
H2375 H 0.02891 0.38455 0.89214 0.0
C2376 C 0.60769 0.64712 0.95537 0.0
C2377 C 0.60982 0.63253 0.96678 0.0
C2378 C 0.58047 0.60424 0.94886 0.0
C2379 C 0.58121 0.61865 0.93505 0.0
N2380 N 0.58582 0.65291 0.93309 0.0
N2381 N 0.59811 0.59694 0.97475 0.0
C2382 C 0.59189 0.63993 0.94069 0.0
C2383 C 0.59614 0.61099 0.96367 0.0
N2384 N 0.6215 0.66781 0.95766 0.0
N2385 N 0.56354 0.5849 0.94933 0.0
H2386 H 0.6086 0.60117 0.98648 0.0
H2387 H 0.59019 0.5811 0.97149 0.0
H2388 H 0.55022 0.58084 0.94103 0.0
H2389 H 0.56137 0.57417 0.95999 0.0
H2390 H 0.62204 0.67885 0.94814 0.0
H2391 H 0.63363 0.67383 0.96795 0.0
H2392 H 0.59178 0.66819 0.93796 0.0
H2393 H 0.57296 0.64758 0.92375 0.0
C2394 C 0.99317 0.62408 0.94351 0.0
C2395 C 0.99758 0.61987 0.96257 0.0
C2396 C 0.00489 0.59388 0.94867 0.0
C2397 C 0.00461 0.60096 0.92939 0.0
N2398 N 0.99274 0.61977 0.9089 0.0
N2399 N 0.00911 0.60184 0.98358 0.0
C2400 C 0.99688 0.61487 0.92693 0.0
C2401 C 0.00403 0.60521 0.96523 0.0
N2402 N 0.98608 0.6376 0.94096 0.0
N2403 N 0.00315 0.57499 0.95128 0.0
H2404 H 0.0077 0.60906 0.99624 0.0
H2405 H 0.01617 0.59305 0.986 0.0
H2406 H 0.99856 0.564 0.93994 0.0
H2407 H 0.00215 0.56867 0.96503 0.0
H2408 H 0.9828 0.64121 0.92712 0.0
H2409 H 0.9836 0.64531 0.95257 0.0
H2410 H 0.99406 0.6135 0.89559 0.0
H2411 H 0.99406 0.6135 0.89559 0.0
C2412 C 0.38163 0.41792 0.95979 0.0
C2413 C 0.37608 0.39725 0.95497 0.0
C2414 C 0.37907 0.40558 0.92013 0.0
C2415 C 0.37965 0.42461 0.92473 0.0
N2416 N 0.38003 0.44802 0.95047 0.0
N2417 N 0.3664 0.37041 0.92999 0.0
C2418 C 0.38077 0.4307 0.94499 0.0
C2419 C 0.37411 0.39081 0.93501 0.0
N2420 N 0.38805 0.42548 0.97852 0.0
N2421 N 0.38371 0.40152 0.90183 0.0
H2422 H 0.36203 0.35881 0.94023 0.0
H2423 H 0.36239 0.36472 0.91558 0.0
H2424 H 0.38918 0.41214 0.89061 0.0
H2425 H 0.38502 0.38853 0.89861 0.0
H2426 H 0.39432 0.44107 0.98244 0.0
H2427 H 0.38928 0.41663 0.9896 0.0
H2428 H 0.37801 0.45122 0.96496 0.0
H2429 H 0.37977 0.45852 0.94082 0.0
C2430 C 0.61673 0.97613 0.95008 0.0
C2431 C 0.61992 0.98955 0.96638 0.0
C2432 C 0.59764 0.00061 0.9505 0.0
C2433 C 0.59865 0.99107 0.93272 0.0
N2434 N 0.60032 0.9617 0.91905 0.0
N2435 N 0.61189 0.01335 0.98317 0.0
C2436 C 0.60525 0.97627 0.93354 0.0
C2437 C 0.60968 0.00124 0.96701 0.0
N2438 N 0.62525 0.96367 0.94984 0.0
N2439 N 0.58433 0.00807 0.9518 0.0
H2440 H 0.61939 0.01318 0.99608 0.0
H2441 H 0.60711 0.02426 0.98349 0.0
H2442 H 0.57406 0.0061 0.94038 0.0
H2443 H 0.58159 0.01376 0.96477 0.0
H2444 H 0.62345 0.95398 0.93784 0.0
H2445 H 0.63427 0.96322 0.96135 0.0
H2446 H 0.59039 0.95949 0.90723 0.0
H2447 H 0.59039 0.95949 0.90723 0.0
C2448 C 0.6432 0.02921 0.07132 0.0
C2449 C 0.63274 0.01556 0.05513 0.0
C2450 C 0.59959 0.00783 0.06892 0.0
C2451 C 0.60997 0.01751 0.08684 0.0
N2452 N 0.64161 0.04601 0.10078 0.0
N2453 N 0.60089 0.99368 0.03707 0.0
C2454 C 0.63163 0.03096 0.08672 0.0
C2455 C 0.61088 0.00561 0.05338 0.0
N2456 N 0.66422 0.04007 0.0726 0.0
N2457 N 0.57921 0.00179 0.06654 0.0
H2458 H 0.60857 0.99299 0.02468 0.0
H2459 H 0.58501 0.98383 0.03607 0.0
H2460 H 0.57116 0.00492 0.0772 0.0
H2461 H 0.57096 0.99607 0.05335 0.0
H2462 H 0.6722 0.04988 0.08456 0.0
H2463 H 0.67364 0.039 0.06206 0.0
H2464 H 0.63406 0.04961 0.11158 0.0
H2465 H 0.63406 0.04961 0.11158 0.0
C2466 C 0.97955 0.61414 0.07235 0.0
C2467 C 0.9704 0.60682 0.05351 0.0
C2468 C 0.94809 0.57238 0.06662 0.0
C2469 C 0.95814 0.5794 0.08553 0.0
N2470 N 0.98915 0.60551 0.10301 0.0
N2471 N 0.95022 0.57786 0.03149 0.0
C2472 C 0.97562 0.59979 0.0874 0.0
C2473 C 0.95597 0.5856 0.05027 0.0
N2474 N 0.9914 0.63494 0.07626 0.0
N2475 N 0.93064 0.55349 0.0641 0.0
H2476 H 0.95582 0.58703 0.01916 0.0
H2477 H 0.94161 0.56207 0.02808 0.0
H2478 H 0.92427 0.54241 0.07483 0.0
H2479 H 0.92143 0.54924 0.05139 0.0
H2480 H 0.99647 0.64109 0.09041 0.0
H2481 H 0.99436 0.64614 0.06586 0.0
H2482 H 0.0029 0.61963 0.10381 0.0
H2483 H 0.98857 0.5955 0.11373 0.0
C2484 C 0.42332 0.37696 0.03995 0.0
C2485 C 0.40217 0.36958 0.04302 0.0
C2486 C 0.40875 0.37356 0.07848 0.0
C2487 C 0.42905 0.3769 0.07576 0.0
N2488 N 0.45492 0.37997 0.05242 0.0
N2489 N 0.37394 0.35611 0.06543 0.0
C2490 C 0.43624 0.37827 0.05607 0.0
C2491 C 0.39466 0.36661 0.06233 0.0
N2492 N 0.43119 0.38307 0.02168 0.0
N2493 N 0.4028 0.37749 0.09618 0.0
H2494 H 0.36306 0.34954 0.05401 0.0
H2495 H 0.36771 0.35179 0.07933 0.0
H2496 H 0.41269 0.38448 0.10822 0.0
H2497 H 0.38861 0.37664 0.09803 0.0
H2498 H 0.44693 0.39079 0.01899 0.0
H2499 H 0.42214 0.38225 0.00957 0.0
H2500 H 0.45929 0.37814 0.03839 0.0
H2501 H 0.46561 0.38162 0.06314 0.0
C2502 C 0.62267 0.68167 0.39826 0.0
C2503 C 0.63602 0.69646 0.38472 0.0
C2504 C 0.63142 0.72315 0.40146 0.0
C2505 C 0.6218 0.7094 0.41709 0.0
N2506 N 0.59674 0.67375 0.42266 0.0
N2507 N 0.65247 0.73126 0.37263 0.0
C2508 C 0.61384 0.68798 0.41322 0.0
C2509 C 0.64013 0.7172 0.38602 0.0
N2510 N 0.6194 0.66193 0.39769 0.0
N2511 N 0.63015 0.74073 0.40027 0.0
H2512 H 0.65794 0.72719 0.36035 0.0
H2513 H 0.65812 0.74712 0.37428 0.0
H2514 H 0.62094 0.74367 0.40963 0.0
H2515 H 0.63549 0.75065 0.38847 0.0
H2516 H 0.6117 0.65136 0.40867 0.0
H2517 H 0.62585 0.65661 0.38727 0.0
H2518 H 0.58922 0.65795 0.41925 0.0
H2519 H 0.58852 0.67814 0.43193 0.0
C2520 C 0.26331 0.91757 0.40078 0.0
C2521 C 0.29059 0.93704 0.40367 0.0
C2522 C 0.296 0.91483 0.44046 0.0
C2523 C 0.26739 0.89917 0.44005 0.0
N2524 N 0.23152 0.88138 0.41615 0.0
N2525 N 0.32726 0.94953 0.42404 0.0
C2526 C 0.25133 0.89669 0.41801 0.0
C2527 C 0.30696 0.93533 0.42275 0.0
N2528 N 0.25216 0.91795 0.38523 0.0
N2529 N 0.30732 0.91292 0.45493 0.0
H2530 H 0.33391 0.96208 0.41476 0.0
H2531 H 0.33671 0.94868 0.43486 0.0
H2532 H 0.30005 0.90164 0.46547 0.0
H2533 H 0.32328 0.92236 0.45577 0.0
H2534 H 0.23664 0.90684 0.3834 0.0
H2535 H 0.25873 0.92901 0.37446 0.0
H2536 H 0.22232 0.88041 0.40415 0.0
H2537 H 0.22522 0.87002 0.42676 0.0
C2538 C 0.07917 0.36795 0.38472 0.0
C2539 C 0.05775 0.35414 0.38665 0.0
C2540 C 0.06355 0.34741 0.42049 0.0
C2541 C 0.08463 0.36322 0.41945 0.0
N2542 N 0.11349 0.37954 0.3978 0.0
N2543 N 0.0295 0.3293 0.40585 0.0
C2544 C 0.09281 0.37092 0.40071 0.0
C2545 C 0.05002 0.34333 0.40427 0.0
N2546 N 0.08651 0.37836 0.36767 0.0
N2547 N 0.05595 0.33525 0.43641 0.0
H2548 H 0.01873 0.32604 0.39455 0.0
H2549 H 0.02325 0.32122 0.41868 0.0
H2550 H 0.06487 0.33564 0.44844 0.0
H2551 H 0.06487 0.33564 0.44844 0.0
H2552 H 0.10155 0.39054 0.3663 0.0
H2553 H 0.07725 0.3757 0.35519 0.0
H2554 H 0.1202 0.38394 0.38411 0.0
H2555 H 0.12358 0.37953 0.40846 0.0
C2556 C 0.04807 0.31239 0.29218 0.0
C2557 C 0.04734 0.33099 0.29242 0.0
C2558 C 0.0617 0.33879 0.25952 0.0
C2559 C 0.06061 0.31911 0.25843 0.0
N2560 N 0.06366 0.29385 0.27785 0.0
N2561 N 0.057 0.36386 0.27786 0.0
C2562 C 0.05699 0.30778 0.27598 0.0
C2563 C 0.0555 0.34485 0.27672 0.0
N2564 N 0.04029 0.29909 0.30741 0.0
N2565 N 0.06912 0.35258 0.24474 0.0
H2566 H 0.05332 0.36945 0.29036 0.0
H2567 H 0.06249 0.3743 0.26641 0.0
H2568 H 0.07524 0.35058 0.23178 0.0
H2569 H 0.07524 0.35058 0.23178 0.0
H2570 H 0.03804 0.28414 0.30682 0.0
H2571 H 0.03501 0.30257 0.32022 0.0
H2572 H 0.06276 0.28631 0.29085 0.0
H2573 H 0.07296 0.29221 0.26754 0.0
C2574 C 0.70478 0.7228 0.28791 0.0
C2575 C 0.69194 0.72427 0.30227 0.0
C2576 C 0.69788 0.75677 0.28814 0.0
C2577 C 0.7068 0.7527 0.27161 0.0
N2578 N 0.73062 0.7411 0.26361 0.0
N2579 N 0.67724 0.74344 0.31709 0.0
C2580 C 0.71396 0.7385 0.27382 0.0
C2581 C 0.68888 0.74158 0.30277 0.0
N2582 N 0.70722 0.70585 0.28688 0.0
N2583 N 0.70003 0.77593 0.29084 0.0
H2584 H 0.67171 0.73352 0.32889 0.0
H2585 H 0.67227 0.75421 0.31673 0.0
H2586 H 0.70935 0.78825 0.2819 0.0
H2587 H 0.69524 0.78044 0.30333 0.0
H2588 H 0.71453 0.70305 0.27528 0.0
H2589 H 0.70047 0.69369 0.29662 0.0
H2590 H 0.73761 0.73222 0.26582 0.0
H2591 H 0.73907 0.754 0.25498 0.0
C2592 C 0.2582 0.95275 0.31008 0.0
C2593 C 0.27829 0.95544 0.31086 0.0
C2594 C 0.27482 0.94402 0.27642 0.0
C2595 C 0.25636 0.94493 0.27474 0.0
N2596 N 0.2259 0.93902 0.29183 0.0
N2597 N 0.3065 0.95469 0.29481 0.0
C2598 C 0.24661 0.94601 0.29216 0.0
C2599 C 0.28668 0.95098 0.29416 0.0
N2600 N 0.25037 0.95708 0.32636 0.0
N2601 N 0.28037 0.93533 0.26163 0.0
H2602 H 0.31582 0.95979 0.30746 0.0
H2603 H 0.31433 0.95432 0.28241 0.0
H2604 H 0.2714 0.92869 0.24896 0.0
H2605 H 0.29248 0.93234 0.26291 0.0
H2606 H 0.23706 0.95817 0.32607 0.0
H2607 H 0.25782 0.96069 0.34009 0.0
H2608 H 0.21754 0.93792 0.3043 0.0
H2609 H 0.21647 0.93163 0.27954 0.0
C2610 C 0.71336 0.96362 0.30147 0.0
C2611 C 0.69714 0.96761 0.29754 0.0
C2612 C 0.69939 0.96175 0.26244 0.0
C2613 C 0.71832 0.96188 0.26583 0.0
N2614 N 0.74416 0.96486 0.2899 0.0
N2615 N 0.67723 0.97442 0.27387 0.0
C2616 C 0.72549 0.96318 0.28573 0.0
C2617 C 0.6908 0.96771 0.27793 0.0
N2618 N 0.71692 0.95975 0.32024 0.0
N2619 N 0.68899 0.95534 0.24479 0.0
H2620 H 0.671 0.97957 0.28468 0.0
H2621 H 0.67392 0.97699 0.25964 0.0
H2622 H 0.69313 0.94907 0.23318 0.0
H2623 H 0.67435 0.95343 0.24258 0.0
H2624 H 0.72698 0.95439 0.3237 0.0
H2625 H 0.70828 0.95986 0.33211 0.0
H2626 H 0.751 0.96873 0.30388 0.0
H2627 H 0.7538 0.96403 0.27956 0.0
C2628 C 0.04613 0.72961 0.27513 0.0
C2629 C 0.04597 0.73564 0.29492 0.0
C2630 C 0.04814 0.76776 0.284 0.0
C2631 C 0.04937 0.76226 0.26398 0.0
N2632 N 0.05787 0.74119 0.24258 0.0
N2633 N 0.05359 0.76317 0.31828 0.0
C2634 C 0.05111 0.74431 0.26018 0.0
C2635 C 0.04924 0.75563 0.29936 0.0
N2636 N 0.04032 0.70955 0.27024 0.0
N2637 N 0.04486 0.78375 0.28867 0.0
H2638 H 0.05488 0.75479 0.3298 0.0
H2639 H 0.05819 0.77848 0.32211 0.0
H2640 H 0.04399 0.79361 0.27862 0.0
H2641 H 0.04121 0.78627 0.30279 0.0
H2642 H 0.03795 0.70403 0.25574 0.0
H2643 H 0.03576 0.6979 0.28045 0.0
H2644 H 0.06085 0.72912 0.24011 0.0
H2645 H 0.06337 0.75188 0.23144 0.0
C2646 C 0.27903 0.32195 0.28399 0.0
C2647 C 0.2733 0.30923 0.30059 0.0
C2648 C 0.24103 0.2842 0.28361 0.0
C2649 C 0.24656 0.29749 0.26708 0.0
N2650 N 0.26663 0.33311 0.25682 0.0
N2651 N 0.24666 0.28106 0.31829 0.0
C2652 C 0.26424 0.31764 0.26886 0.0
C2653 C 0.25363 0.29117 0.30103 0.0
N2654 N 0.29886 0.33769 0.2821 0.0
N2655 N 0.22405 0.26483 0.28277 0.0
H2656 H 0.25537 0.28587 0.33134 0.0
H2657 H 0.23157 0.26918 0.32015 0.0
H2658 H 0.21313 0.25931 0.27139 0.0
H2659 H 0.22126 0.25364 0.29312 0.0
H2660 H 0.30414 0.34608 0.26928 0.0
H2661 H 0.31057 0.34081 0.29232 0.0
H2662 H 0.27863 0.34834 0.25869 0.0
H2663 H 0.25517 0.33171 0.24714 0.0
C2664 C 0.28034 0.34906 0.39444 0.0
C2665 C 0.2986 0.34788 0.39479 0.0
C2666 C 0.30378 0.35759 0.42977 0.0
C2667 C 0.28749 0.36211 0.42862 0.0
N2668 N 0.25373 0.34937 0.41371 0.0
N2669 N 0.32854 0.35186 0.41235 0.0
C2670 C 0.27378 0.3543 0.41202 0.0
C2671 C 0.31047 0.35219 0.41238 0.0
N2672 N 0.26958 0.34587 0.37717 0.0
N2673 N 0.31189 0.35706 0.44768 0.0
H2674 H 0.33385 0.34771 0.39998 0.0
H2675 H 0.33908 0.35729 0.4241 0.0
H2676 H 0.30636 0.35948 0.46084 0.0
H2677 H 0.32234 0.35189 0.44967 0.0
H2678 H 0.25759 0.34903 0.37557 0.0
H2679 H 0.27371 0.3417 0.36402 0.0
H2680 H 0.2427 0.34232 0.40248 0.0
H2681 H 0.24728 0.34882 0.42728 0.0
C2682 C 0.65187 0.95077 0.40807 0.0
C2683 C 0.64649 0.94199 0.38885 0.0
C2684 C 0.62914 0.90754 0.40267 0.0
C2685 C 0.62968 0.9162 0.42166 0.0
N2686 N 0.64314 0.94748 0.44226 0.0
N2687 N 0.62775 0.91172 0.36772 0.0
C2688 C 0.64179 0.93824 0.42438 0.0
C2689 C 0.63448 0.9203 0.38609 0.0
N2690 N 0.66699 0.97099 0.4108 0.0
N2691 N 0.62561 0.88783 0.40043 0.0
H2692 H 0.63114 0.92049 0.3551 0.0
H2693 H 0.61719 0.89603 0.36536 0.0
H2694 H 0.62653 0.87956 0.41212 0.0
H2695 H 0.62604 0.88143 0.38685 0.0
H2696 H 0.67317 0.97764 0.42456 0.0
H2697 H 0.6749 0.98057 0.39922 0.0
H2698 H 0.64895 0.96335 0.44411 0.0
H2699 H 0.63766 0.93956 0.45523 0.0
C2700 C 0.06083 0.70542 0.40242 0.0
C2701 C 0.06911 0.70955 0.38337 0.0
C2702 C 0.10326 0.71996 0.39745 0.0
C2703 C 0.09515 0.71714 0.41687 0.0
N2704 N 0.06734 0.71518 0.43664 0.0
N2705 N 0.09904 0.72601 0.36323 0.0
C2706 C 0.07435 0.71247 0.41902 0.0
C2707 C 0.0906 0.7185 0.38104 0.0
N2708 N 0.04004 0.69373 0.40483 0.0
N2709 N 0.12262 0.7232 0.39428 0.0
H2710 H 0.09023 0.72533 0.35097 0.0
H2711 H 0.11488 0.73477 0.36117 0.0
H2712 H 0.13317 0.72513 0.40528 0.0
H2713 H 0.12783 0.72246 0.38033 0.0
H2714 H 0.03347 0.68863 0.41849 0.0
H2715 H 0.02957 0.68703 0.3931 0.0
H2716 H 0.0527 0.71336 0.43814 0.0
H2717 H 0.07669 0.72209 0.44902 0.0
C2718 C 0.30369 0.04838 0.71055 0.0
C2719 C 0.31826 0.04173 0.71312 0.0
C2720 C 0.32394 0.05388 0.74743 0.0
C2721 C 0.30761 0.05835 0.74561 0.0
N2722 N 0.29037 0.06978 0.72316 0.0
N2723 N 0.34316 0.03896 0.7338 0.0
C2724 C 0.29983 0.05846 0.72647 0.0
C2725 C 0.32873 0.0449 0.7314 0.0
N2726 N 0.29351 0.04507 0.69291 0.0
N2727 N 0.33598 0.05876 0.76399 0.0
H2728 H 0.34688 0.03163 0.72276 0.0
H2729 H 0.35102 0.0409 0.74712 0.0
H2730 H 0.33513 0.06704 0.77607 0.0
H2731 H 0.33513 0.06704 0.77607 0.0
H2732 H 0.28088 0.04715 0.6909 0.0
H2733 H 0.29683 0.03897 0.68051 0.0
H2734 H 0.28581 0.07182 0.70928 0.0
H2735 H 0.28979 0.07967 0.73381 0.0
C2736 C 0.93337 0.24541 0.71734 0.0
C2737 C 0.96033 0.26587 0.7191 0.0
C2738 C 0.96889 0.24574 0.75572 0.0
C2739 C 0.94041 0.22896 0.75653 0.0
N2740 N 0.90355 0.20896 0.73409 0.0
N2741 N 0.99817 0.28053 0.73816 0.0
C2742 C 0.92306 0.22499 0.73513 0.0
C2743 C 0.97811 0.26564 0.73751 0.0
N2744 N 0.9212 0.24483 0.70227 0.0
N2745 N 0.98147 0.2455 0.76985 0.0
H2746 H 0.0041 0.29284 0.72859 0.0
H2747 H 0.0081 0.28022 0.74883 0.0
H2748 H 0.97551 0.23473 0.781 0.0
H2749 H 0.97551 0.23473 0.781 0.0
H2750 H 0.90581 0.23319 0.7011 0.0
H2751 H 0.9269 0.25566 0.69121 0.0
H2752 H 0.89364 0.20716 0.72243 0.0
H2753 H 0.89823 0.19789 0.74499 0.0
C2754 C 0.71455 0.68794 0.74064 0.0
C2755 C 0.719 0.68287 0.72188 0.0
C2756 C 0.75282 0.69025 0.7344 0.0
C2757 C 0.74641 0.69056 0.7539 0.0
N2758 N 0.72485 0.69919 0.77382 0.0
N2759 N 0.74263 0.67937 0.7005 0.0
C2760 C 0.72859 0.69245 0.75649 0.0
C2761 C 0.73821 0.68404 0.71863 0.0
N2762 N 0.69654 0.68792 0.74368 0.0
N2763 N 0.77326 0.69839 0.73064 0.0
H2764 H 0.73293 0.67597 0.68822 0.0
H2765 H 0.75539 0.67765 0.69799 0.0
H2766 H 0.78467 0.70681 0.7413 0.0
H2767 H 0.77899 0.69991 0.71653 0.0
H2768 H 0.69271 0.69133 0.75739 0.0
H2769 H 0.68529 0.68407 0.73272 0.0
H2770 H 0.735 0.70434 0.78592 0.0
H2771 H 0.735 0.70434 0.78592 0.0
C2772 C 0.71506 0.64485 0.63031 0.0
C2773 C 0.70765 0.65889 0.62822 0.0
C2774 C 0.71835 0.66418 0.59397 0.0
C2775 C 0.72303 0.64791 0.59521 0.0
N2776 N 0.73632 0.63186 0.61689 0.0
N2777 N 0.70462 0.68407 0.60869 0.0
C2778 C 0.72449 0.64086 0.61412 0.0
C2779 C 0.71029 0.66936 0.61037 0.0
N2780 N 0.71303 0.63525 0.64775 0.0
N2781 N 0.72201 0.67563 0.57759 0.0
H2782 H 0.69858 0.68855 0.62022 0.0
H2783 H 0.70596 0.69177 0.59565 0.0
H2784 H 0.72936 0.67431 0.5652 0.0
H2785 H 0.72936 0.67431 0.5652 0.0
H2786 H 0.71559 0.62285 0.64937 0.0
H2787 H 0.70779 0.63898 0.66044 0.0
H2788 H 0.7393 0.62783 0.6306 0.0
H2789 H 0.74559 0.63114 0.60595 0.0
C2790 C 0.37556 0.06713 0.60912 0.0
C2791 C 0.35528 0.06327 0.62598 0.0
C2792 C 0.35628 0.10402 0.61267 0.0
C2793 C 0.37249 0.10386 0.59222 0.0
N2794 N 0.40113 0.09244 0.58 0.0
N2795 N 0.33284 0.07955 0.6425 0.0
C2796 C 0.3863 0.08898 0.59292 0.0
C2797 C 0.34627 0.08179 0.62837 0.0
N2798 N 0.3825 0.05355 0.60848 0.0
N2799 N 0.35087 0.1187 0.61431 0.0
H2800 H 0.32752 0.06744 0.65229 0.0
H2801 H 0.32767 0.0901 0.64415 0.0
H2802 H 0.35664 0.13089 0.60454 0.0
H2803 H 0.34119 0.11833 0.62535 0.0
H2804 H 0.39407 0.05553 0.59892 0.0
H2805 H 0.37613 0.04049 0.61714 0.0
H2806 H 0.40814 0.08341 0.57969 0.0
H2807 H 0.40586 0.10448 0.57014 0.0
C2808 C 0.95354 0.2896 0.61092 0.0
C2809 C 0.9449 0.29351 0.62771 0.0
C2810 C 0.91323 0.28421 0.60879 0.0
C2811 C 0.92273 0.2821 0.59151 0.0
N2812 N 0.9473 0.2728 0.57909 0.0
N2813 N 0.91607 0.29246 0.64394 0.0
C2814 C 0.9415 0.28176 0.59342 0.0
C2815 C 0.92458 0.29029 0.62701 0.0
N2816 N 0.97366 0.29424 0.61136 0.0
N2817 N 0.89301 0.27924 0.60793 0.0
H2818 H 0.92378 0.29615 0.65753 0.0
H2819 H 0.90137 0.29045 0.64496 0.0
H2820 H 0.88307 0.27063 0.59632 0.0
H2821 H 0.88542 0.28218 0.61908 0.0
H2822 H 0.98153 0.2943 0.59882 0.0
H2823 H 0.98314 0.2998 0.62389 0.0
H2824 H 0.95962 0.27017 0.58082 0.0
H2825 H 0.93852 0.26561 0.56646 0.0
C2826 C 0.34676 0.29686 0.61113 0.0
C2827 C 0.35374 0.29725 0.63059 0.0
C2828 C 0.38081 0.29108 0.61818 0.0
C2829 C 0.3731 0.28953 0.59846 0.0
N2830 N 0.3433 0.28315 0.57827 0.0
N2831 N 0.37334 0.2888 0.65293 0.0
C2832 C 0.35436 0.28989 0.59556 0.0
C2833 C 0.36946 0.29244 0.63419 0.0
N2834 N 0.33368 0.30419 0.60722 0.0
N2835 N 0.39932 0.29224 0.62192 0.0
H2836 H 0.36517 0.28947 0.66496 0.0
H2837 H 0.38307 0.28299 0.65622 0.0
H2838 H 0.40847 0.29085 0.61136 0.0
H2839 H 0.40658 0.29625 0.63571 0.0
H2840 H 0.33001 0.3064 0.59299 0.0
H2841 H 0.32828 0.31017 0.61805 0.0
H2842 H 0.32878 0.28164 0.57646 0.0
H2843 H 0.34678 0.27627 0.5667 0.0
C2844 C 0.73094 0.06559 0.61783 0.0
C2845 C 0.70935 0.05481 0.62075 0.0
C2846 C 0.70473 0.07259 0.59302 0.0
C2847 C 0.72512 0.07933 0.58727 0.0
N2848 N 0.75949 0.08721 0.59694 0.0
N2849 N 0.67517 0.04674 0.61013 0.0
C2850 C 0.73886 0.07739 0.60057 0.0
C2851 C 0.69608 0.05822 0.60831 0.0
N2852 N 0.74385 0.06535 0.63206 0.0
N2853 N 0.69425 0.08081 0.58405 0.0
H2854 H 0.66804 0.03549 0.6207 0.0
H2855 H 0.66482 0.04689 0.5999 0.0
H2856 H 0.67982 0.07819 0.5883 0.0
H2857 H 0.67982 0.07819 0.5883 0.0
H2858 H 0.75984 0.07416 0.63181 0.0
H2859 H 0.73857 0.05748 0.64515 0.0
H2860 H 0.76984 0.08391 0.60402 0.0
H2861 H 0.76646 0.09901 0.58686 0.0
C2862 C 0.92301 0.65702 0.63652 0.0
C2863 C 0.93675 0.64916 0.63758 0.0
C2864 C 0.92231 0.6302 0.60654 0.0
C2865 C 0.91363 0.64287 0.60279 0.0
N2866 N 0.89923 0.66269 0.6166 0.0
N2867 N 0.94979 0.62818 0.62311 0.0
C2868 C 0.91179 0.65443 0.61866 0.0
C2869 C 0.9362 0.63534 0.62269 0.0
N2870 N 0.92039 0.66641 0.65276 0.0
N2871 N 0.91676 0.61296 0.59511 0.0
H2872 H 0.96081 0.63197 0.63425 0.0
H2873 H 0.95127 0.61988 0.6114 0.0
H2874 H 0.90526 0.60798 0.58423 0.0
H2875 H 0.92152 0.60234 0.59818 0.0
H2876 H 0.90982 0.67153 0.65358 0.0
H2877 H 0.92781 0.66769 0.6662 0.0
H2878 H 0.89907 0.67348 0.62634 0.0
H2879 H 0.88853 0.65838 0.60502 0.0
C2880 C 0.97538 0.7216 0.72516 0.0
C2881 C 0.97157 0.70121 0.7274 0.0
C2882 C 0.9649 0.70274 0.76243 0.0
C2883 C 0.96847 0.72341 0.76035 0.0
N2884 N 0.97169 0.74987 0.7377 0.0
N2885 N 0.95859 0.67062 0.74672 0.0
C2886 C 0.97195 0.73198 0.74111 0.0
C2887 C 0.96496 0.69125 0.74554 0.0
N2888 N 0.98278 0.73136 0.7078 0.0
N2889 N 0.96218 0.69398 0.78046 0.0
H2890 H 0.95966 0.66188 0.73518 0.0
H2891 H 0.95077 0.6617 0.75866 0.0
H2892 H 0.95833 0.69901 0.79315 0.0
H2893 H 0.96404 0.68127 0.783 0.0
H2894 H 0.98889 0.74721 0.70615 0.0
H2895 H 0.9841 0.72392 0.69528 0.0
H2896 H 0.97105 0.75485 0.72365 0.0
H2897 H 0.97051 0.75922 0.74843 0.0
C2898 C 0.28942 0.25347 0.71513 0.0
C2899 C 0.30542 0.27391 0.71941 0.0
C2900 C 0.30414 0.26534 0.7541 0.0
C2901 C 0.28513 0.24648 0.75057 0.0
N2902 N 0.25879 0.22373 0.72638 0.0
N2903 N 0.32568 0.3005 0.74384 0.0
C2904 C 0.27757 0.24073 0.73069 0.0
C2905 C 0.31224 0.28017 0.73911 0.0
N2906 N 0.2858 0.24597 0.69618 0.0
N2907 N 0.31501 0.26917 0.77139 0.0
H2908 H 0.33166 0.31214 0.73354 0.0
H2909 H 0.3292 0.30613 0.75831 0.0
H2910 H 0.31119 0.25854 0.78249 0.0
H2911 H 0.32969 0.28198 0.7736 0.0
H2912 H 0.27579 0.23046 0.69244 0.0
H2913 H 0.29449 0.25471 0.68447 0.0
H2914 H 0.25179 0.22086 0.7125 0.0
H2915 H 0.2492 0.21323 0.73657 0.0
C2916 C 0.7174 0.02242 0.732 0.0
C2917 C 0.72606 0.03099 0.71367 0.0
C2918 C 0.75914 0.05424 0.73006 0.0
C2919 C 0.75179 0.04339 0.74791 0.0
N2920 N 0.72176 0.02227 0.76732 0.0
N2921 N 0.75574 0.053 0.69465 0.0
C2922 C 0.73022 0.02894 0.7493 0.0
C2923 C 0.74707 0.04629 0.71255 0.0
N2924 N 0.69699 0.00765 0.73276 0.0
N2925 N 0.7762 0.07349 0.73013 0.0
H2926 H 0.74743 0.04761 0.68142 0.0
H2927 H 0.77157 0.06239 0.69291 0.0
H2928 H 0.78248 0.0822 0.74298 0.0
H2929 H 0.78146 0.08246 0.71766 0.0
H2930 H 0.69014 0.99847 0.7448 0.0
H2931 H 0.68673 0.0037 0.7209 0.0
H2932 H 0.70603 0.0136 0.76974 0.0
H2933 H 0.73012 0.02672 0.7805 0.0
C2934 C 0.05475 0.34176 0.05719 0.0
C2935 C 0.03502 0.32485 0.03929 0.0
C2936 C 0.03644 0.28564 0.05356 0.0
C2937 C 0.06017 0.30434 0.06754 0.0
N2938 N 0.08077 0.34307 0.08743 0.0
N2939 N 0.00974 0.28501 0.02527 0.0
C2940 C 0.06661 0.33146 0.07343 0.0
C2941 C 0.02537 0.29712 0.03792 0.0
N2942 N 0.05986 0.36183 0.05899 0.0
N2943 N 0.03002 0.26522 0.05298 0.0
H2944 H 0.00343 0.29138 0.01587 0.0
H2945 H 0.00387 0.26908 0.02433 0.0
H2946 H 0.03775 0.25957 0.06141 0.0
H2947 H 0.01735 0.25485 0.04432 0.0
H2948 H 0.07093 0.37173 0.0693 0.0
H2949 H 0.05278 0.36782 0.05011 0.0
H2950 H 0.0849 0.35847 0.09012 0.0
H2951 H 0.08763 0.33656 0.09595 0.0
C2952 C 0.68432 0.72821 0.03488 0.0
C2953 C 0.67007 0.70861 0.04243 0.0
C2954 C 0.66222 0.72573 0.0691 0.0
C2955 C 0.67233 0.74453 0.05886 0.0
N2956 N 0.70097 0.7657 0.03849 0.0
N2957 N 0.64526 0.68841 0.06688 0.0
C2958 C 0.68602 0.74643 0.04376 0.0
C2959 C 0.65927 0.70727 0.05983 0.0
N2960 N 0.69566 0.72922 0.0189 0.0
N2961 N 0.657 0.72581 0.08821 0.0
H2962 H 0.64257 0.67441 0.06065 0.0
H2963 H 0.63518 0.68665 0.07807 0.0
H2964 H 0.66207 0.73951 0.09631 0.0
H2965 H 0.65084 0.71273 0.09684 0.0
H2966 H 0.70463 0.74263 0.01118 0.0
H2967 H 0.69565 0.71627 0.0129 0.0
H2968 H 0.71213 0.76851 0.02816 0.0
H2969 H 0.70372 0.77904 0.04623 0.0
C2970 C 0.26382 0.95604 0.01547 0.0
C2971 C 0.28146 0.96584 0.02809 0.0
C2972 C 0.25929 0.95141 0.05638 0.0
C2973 C 0.24296 0.93742 0.04362 0.0
N2974 N 0.22762 0.93366 0.01108 0.0
N2975 N 0.2961 0.97255 0.06108 0.0
C2976 C 0.2445 0.94193 0.02328 0.0
C2977 C 0.27923 0.96368 0.04873 0.0
N2978 N 0.26527 0.96031 0.99592 0.0
N2979 N 0.25537 0.95462 0.07524 0.0
H2980 H 0.3111 0.98163 0.05624 0.0
H2981 H 0.29524 0.96941 0.07601 0.0
H2982 H 0.24037 0.94863 0.08018 0.0
H2983 H 0.26656 0.96579 0.08472 0.0
H2984 H 0.25264 0.95307 0.9862 0.0
H2985 H 0.27887 0.97141 0.98957 0.0
H2986 H 0.21256 0.92437 0.01576 0.0
H2987 H 0.21256 0.92437 0.01576 0.0
C2988 C 0.31646 0.05208 0.98205 0.0
C2989 C 0.33423 0.0504 0.97936 0.0
C2990 C 0.35082 0.08313 0.96178 0.0
C2991 C 0.33335 0.08556 0.96566 0.0
N2992 N 0.2965 0.06732 0.97125 0.0
N2993 N 0.36757 0.0625 0.96553 0.0
C2994 C 0.31524 0.06856 0.97333 0.0
C2995 C 0.35107 0.06528 0.96862 0.0
N2996 N 0.30106 0.03849 0.99378 0.0
N2997 N 0.36681 0.0974 0.95099 0.0
H2998 H 0.36745 0.04884 0.96885 0.0
H2999 H 0.38165 0.07359 0.9601 0.0
H3000 H 0.36811 0.11105 0.94601 0.0
H3001 H 0.37875 0.09553 0.94578 0.0
H3002 H 0.28907 0.04067 0.99845 0.0
H3003 H 0.30112 0.02597 0.00029 0.0
H3004 H 0.28268 0.05438 0.97504 0.0
H3005 H 0.29406 0.07758 0.96313 0.0
C3006 C 0.94936 0.28681 0.96724 0.0
C3007 C 0.95567 0.28969 0.98727 0.0
C3008 C 0.93176 0.25291 0.99289 0.0
C3009 C 0.92332 0.2509 0.97361 0.0
N3010 N 0.9338 0.26199 0.94049 0.0
N3011 N 0.95403 0.27559 0.01927 0.0
C3012 C 0.93482 0.2667 0.96005 0.0
C3013 C 0.94735 0.27271 0.0001 0.0
N3014 N 0.95664 0.30336 0.95515 0.0
N3015 N 0.92587 0.23563 0.00371 0.0
H3016 H 0.96642 0.28938 0.02477 0.0
H3017 H 0.94674 0.26469 0.03006 0.0
H3018 H 0.91548 0.22075 0.99841 0.0
H3019 H 0.93273 0.2356 0.01706 0.0
H3020 H 0.95069 0.30234 0.94101 0.0
H3021 H 0.96728 0.31845 0.95977 0.0
H3022 H 0.94298 0.27269 0.93014 0.0
H3023 H 0.92663 0.24677 0.93517 0.0
C3024 C 0.72623 0.68556 0.98172 0.0
C3025 C 0.70808 0.66593 0.98092 0.0
C3026 C 0.72565 0.65198 0.96105 0.0
C3027 C 0.74401 0.67181 0.96199 0.0
N3028 N 0.75708 0.70876 0.96474 0.0
N3029 N 0.68855 0.6326 0.96449 0.0
C3030 C 0.74291 0.68906 0.9697 0.0
C3031 C 0.70718 0.64974 0.969 0.0
N3032 N 0.72801 0.70071 0.99448 0.0
N3033 N 0.72566 0.63518 0.95278 0.0
H3034 H 0.67461 0.63073 0.96943 0.0
H3035 H 0.68662 0.62129 0.95417 0.0
H3036 H 0.73777 0.636 0.94478 0.0
H3037 H 0.71376 0.62004 0.95456 0.0
H3038 H 0.74181 0.71458 0.99686 0.0
H3039 H 0.71645 0.69865 0.00411 0.0
H3040 H 0.75597 0.72162 0.96906 0.0
H3041 H 0.76792 0.71197 0.9539 0.0
C3042 C 0.97114 0.70047 0.97982 0.0
C3043 C 0.95852 0.67913 0.98375 0.0
C3044 C 0.92759 0.68149 0.97676 0.0
C3045 C 0.94026 0.70312 0.97308 0.0
N3046 N 0.97432 0.73037 0.96377 0.0
N3047 N 0.92554 0.64814 0.9798 0.0
C3048 C 0.96205 0.71163 0.97208 0.0
C3049 C 0.93698 0.6693 0.98041 0.0
N3050 N 0.99172 0.71068 0.98464 0.0
N3051 N 0.90659 0.67232 0.97704 0.0
H3052 H 0.93202 0.63874 0.98175 0.0
H3053 H 0.91012 0.63991 0.97527 0.0
H3054 H 0.89817 0.67861 0.97109 0.0
H3055 H 0.89727 0.65802 0.98333 0.0
H3056 H 0.00087 0.72676 0.98463 0.0
H3057 H 0.99945 0.70364 0.99055 0.0
H3058 H 0.98972 0.73572 0.96058 0.0
H3059 H 0.9691 0.73984 0.95823 0.0
C3060 C 0.32696 0.2777 0.97786 0.0
C3061 C 0.32816 0.29521 0.9687 0.0
C3062 C 0.29891 0.2724 0.94699 0.0
C3063 C 0.29737 0.25481 0.95658 0.0
N3064 N 0.31693 0.24172 0.97357 0.0
N3065 N 0.32065 0.30875 0.93992 0.0
C3066 C 0.31369 0.25775 0.96953 0.0
C3067 C 0.31589 0.29236 0.95169 0.0
N3068 N 0.33724 0.27967 0.99517 0.0
N3069 N 0.28396 0.27045 0.93403 0.0
H3070 H 0.33338 0.32339 0.94276 0.0
H3071 H 0.3135 0.30729 0.92632 0.0
H3072 H 0.27169 0.25638 0.92907 0.0
H3073 H 0.28309 0.2831 0.92896 0.0
H3074 H 0.33479 0.26693 0.00328 0.0
H3075 H 0.34667 0.29375 0.00244 0.0
H3076 H 0.32956 0.24367 0.98189 0.0
H3077 H 0.30899 0.22737 0.96629 0.0
C3078 C 0.73768 0.04105 0.99778 0.0
C3079 C 0.71923 0.03251 0.98623 0.0
C3080 C 0.7382 0.03325 0.95711 0.0
C3081 C 0.75729 0.04483 0.9677 0.0
N3082 N 0.77492 0.05949 0.99902 0.0
N3083 N 0.70305 0.02582 0.95413 0.0
C3084 C 0.75696 0.04876 0.9883 0.0
C3085 C 0.71991 0.03039 0.96566 0.0
N3086 N 0.73681 0.04059 0.01783 0.0
N3087 N 0.73706 0.02387 0.93936 0.0
H3088 H 0.68951 0.02433 0.95982 0.0
H3089 H 0.70343 0.02593 0.93882 0.0
H3090 H 0.74949 0.02366 0.93295 0.0
H3091 H 0.72309 0.01389 0.93219 0.0
H3092 H 0.74939 0.04397 0.02696 0.0
H3093 H 0.72321 0.03523 0.0255 0.0
H3094 H 0.77567 0.0658 0.01297 0.0
H3095 H 0.78925 0.06258 0.99406 0.0
C3096 C 0.66759 0.94094 0.04142 0.0
C3097 C 0.68095 0.96154 0.03589 0.0
C3098 C 0.71061 0.95845 0.04612 0.0
C3099 C 0.69769 0.93657 0.04786 0.0
N3100 N 0.66255 0.90692 0.04653 0.0
N3101 N 0.71553 0.98848 0.02889 0.0
C3102 C 0.67579 0.92776 0.04543 0.0
C3103 C 0.70254 0.96998 0.03724 0.0
N3104 N 0.64708 0.93413 0.04365 0.0
N3105 N 0.7306 0.96854 0.05289 0.0
H3106 H 0.71035 0.99694 0.02108 0.0
H3107 H 0.73131 0.99419 0.0277 0.0
H3108 H 0.73786 0.96138 0.0595 0.0
H3109 H 0.73951 0.98464 0.05368 0.0
H3110 H 0.63692 0.92004 0.04988 0.0
H3111 H 0.64059 0.94344 0.04117 0.0
H3112 H 0.64734 0.89985 0.04134 0.0
H3113 H 0.66625 0.89629 0.05209 0.0
C3114 C 0.04712 0.70976 0.04679 0.0
C3115 C 0.02786 0.70539 0.03864 0.0
C3116 C 0.03469 0.74003 0.04877 0.0
C3117 C 0.05515 0.74536 0.05443 0.0
N3118 N 0.0761 0.7322 0.06807 0.0
N3119 N 0.00314 0.71625 0.03117 0.0
C3120 C 0.06008 0.72934 0.0561 0.0
C3121 C 0.02142 0.72033 0.03979 0.0
N3122 N 0.05314 0.69525 0.04552 0.0
N3123 N 0.02747 0.75322 0.05295 0.0
H3124 H 0.99249 0.70192 0.02497 0.0
H3125 H 0.99908 0.72749 0.02875 0.0
H3126 H 0.03619 0.76755 0.06001 0.0
H3127 H 0.01206 0.74914 0.05139 0.0
H3128 H 0.06812 0.6985 0.0486 0.0
H3129 H 0.04345 0.68012 0.04033 0.0
H3130 H 0.07952 0.72062 0.07115 0.0
H3131 H 0.08412 0.74516 0.07728 0.0
C3132 C 0.28647 0.32459 0.02371 0.0
C3133 C 0.30629 0.33504 0.03275 0.0
C3134 C 0.29103 0.32666 0.06525 0.0
C3135 C 0.27099 0.31535 0.05612 0.0
N3136 N 0.25064 0.31396 0.0276 0.0
N3137 N 0.32703 0.35256 0.06142 0.0
C3138 C 0.26893 0.31746 0.03561 0.0
C3139 C 0.30846 0.33806 0.05335 0.0
N3140 N 0.28423 0.32085 0.00389 0.0
N3141 N 0.29364 0.32659 0.08513 0.0
H3142 H 0.33965 0.36191 0.05283 0.0
H3143 H 0.3293 0.35699 0.07623 0.0
H3144 H 0.28163 0.32071 0.09498 0.0
H3145 H 0.30796 0.3318 0.09194 0.0
H3146 H 0.26998 0.31123 0.99701 0.0
H3147 H 0.29667 0.32598 0.99452 0.0
H3148 H 0.24895 0.31668 0.01292 0.0
H3149 H 0.23818 0.31161 0.03608 0.0
C3150 C 0.68017 0.62528 0.37775 0.0
C3151 C 0.69031 0.65317 0.37914 0.0
C3152 C 0.72365 0.65954 0.41133 0.0
C3153 C 0.71652 0.63231 0.4052 0.0
N3154 N 0.68525 0.59323 0.39176 0.0
N3155 N 0.71688 0.69026 0.39804 0.0
C3156 C 0.6919 0.61369 0.39242 0.0
C3157 C 0.71116 0.67003 0.39619 0.0
N3158 N 0.66424 0.61318 0.36537 0.0
N3159 N 0.73865 0.6711 0.42469 0.0
H3160 H 0.70943 0.69644 0.38998 0.0
H3161 H 0.72874 0.70011 0.40774 0.0
H3162 H 0.74581 0.66447 0.43258 0.0
H3163 H 0.74314 0.68656 0.42753 0.0
H3164 H 0.65841 0.59726 0.36436 0.0
H3165 H 0.65771 0.61943 0.35613 0.0
H3166 H 0.67203 0.58286 0.38376 0.0
H3167 H 0.69336 0.58752 0.39951 0.0
C3168 C 0.3465 0.05594 0.37799 0.0
C3169 C 0.32989 0.03737 0.38514 0.0
C3170 C 0.31809 0.05748 0.40416 0.0
C3171 C 0.33193 0.07535 0.39376 0.0
N3172 N 0.36567 0.09348 0.37997 0.0
N3173 N 0.301 0.02011 0.40653 0.0
C3174 C 0.34829 0.07518 0.38369 0.0
C3175 C 0.31617 0.03807 0.39889 0.0
N3176 N 0.35949 0.05517 0.3645 0.0
N3177 N 0.30812 0.05938 0.42001 0.0
H3178 H 0.30025 0.00588 0.4043 0.0
H3179 H 0.28874 0.01912 0.41442 0.0
H3180 H 0.31188 0.07369 0.42623 0.0
H3181 H 0.29862 0.04716 0.42889 0.0
H3182 H 0.37016 0.06799 0.35687 0.0
H3183 H 0.35872 0.04145 0.35982 0.0
H3184 H 0.37886 0.09447 0.37401 0.0
H3185 H 0.36786 0.10764 0.38524 0.0
C3186 C 0.96164 0.28279 0.37096 0.0
C3187 C 0.96285 0.30031 0.36185 0.0
C3188 C 0.92717 0.28837 0.37043 0.0
C3189 C 0.92434 0.26856 0.37482 0.0
N3190 N 0.94028 0.24779 0.38176 0.0
N3191 N 0.94589 0.31885 0.35109 0.0
C3192 C 0.94203 0.26604 0.37598 0.0
C3193 C 0.94543 0.30295 0.36119 0.0
N3194 N 0.97934 0.28258 0.37562 0.0
N3195 N 0.91303 0.29379 0.37605 0.0
H3196 H 0.95876 0.32967 0.34361 0.0
H3197 H 0.93278 0.32003 0.34858 0.0
H3198 H 0.90083 0.28469 0.38516 0.0
H3199 H 0.91524 0.30861 0.37429 0.0
H3200 H 0.9797 0.27135 0.38421 0.0
H3201 H 0.99399 0.29478 0.37263 0.0
H3202 H 0.95183 0.24408 0.37981 0.0
H3203 H 0.92713 0.23591 0.38793 0.0
C3204 C 0.00396 0.40098 0.32195 0.0
C3205 C 0.01142 0.38961 0.31147 0.0
C3206 C 0.02095 0.41363 0.28426 0.0
C3207 C 0.01774 0.42725 0.2966 0.0
N3208 N 0.99602 0.42878 0.32149 0.0
N3209 N 0.02464 0.38319 0.28171 0.0
C3210 C 0.0059 0.41923 0.31368 0.0
C3211 C 0.01882 0.39514 0.29215 0.0
N3212 N 0.99572 0.39469 0.34006 0.0
N3213 N 0.02432 0.41749 0.26474 0.0
H3214 H 0.02178 0.36878 0.28635 0.0
H3215 H 0.03298 0.38783 0.26885 0.0
H3216 H 0.02247 0.42883 0.25791 0.0
H3217 H 0.02568 0.40762 0.25468 0.0
H3218 H 0.99232 0.40359 0.34955 0.0
H3219 H 0.99301 0.38074 0.34596 0.0
H3220 H 0.9861 0.42313 0.33325 0.0
H3221 H 0.99565 0.44093 0.31451 0.0
C3222 C 0.64735 0.62173 0.28523 0.0
C3223 C 0.63393 0.62449 0.3063 0.0
C3224 C 0.59709 0.57858 0.30071 0.0
C3225 C 0.60861 0.57877 0.2766 0.0
N3226 N 0.6449 0.5949 0.25504 0.0
N3227 N 0.6012 0.60472 0.3314 0.0
C3228 C 0.63579 0.59772 0.27084 0.0
C3229 C 0.60954 0.603 0.31448 0.0
N3230 N 0.66571 0.63768 0.27994 0.0
N3231 N 0.57942 0.56199 0.30633 0.0
H3232 H 0.60844 0.61803 0.34029 0.0
H3233 H 0.58739 0.59249 0.33625 0.0
H3234 H 0.57249 0.54859 0.29746 0.0
H3235 H 0.57254 0.56214 0.31949 0.0
H3236 H 0.67344 0.63626 0.26793 0.0
H3237 H 0.67232 0.65204 0.28718 0.0
H3238 H 0.65976 0.60596 0.25118 0.0
H3239 H 0.63703 0.58129 0.24654 0.0
C3240 C 0.36667 0.96896 0.32246 0.0
C3241 C 0.3678 0.98742 0.32973 0.0
C3242 C 0.4002 0.0078 0.31266 0.0
C3243 C 0.40133 0.98959 0.30903 0.0
N3244 N 0.38151 0.9519 0.30518 0.0
N3245 N 0.38659 0.02468 0.33316 0.0
C3246 C 0.38351 0.96998 0.3123 0.0
C3247 C 0.38472 0.00694 0.32506 0.0
N3248 N 0.34931 0.95019 0.32486 0.0
N3249 N 0.41297 0.02561 0.3032 0.0
H3250 H 0.37583 0.02475 0.34269 0.0
H3251 H 0.39979 0.03913 0.33192 0.0
H3252 H 0.42271 0.02617 0.29212 0.0
H3253 H 0.41168 0.03886 0.30415 0.0
H3254 H 0.34806 0.93628 0.31992 0.0
H3255 H 0.33597 0.94849 0.3312 0.0
H3256 H 0.39212 0.95078 0.29625 0.0
H3257 H 0.39212 0.95078 0.29625 0.0
C3258 C 0.61566 0.99842 0.3169 0.0
C3259 C 0.62348 0.98645 0.30822 0.0
C3260 C 0.60943 0.98818 0.27618 0.0
C3261 C 0.60545 0.00351 0.28415 0.0
N3262 N 0.59348 0.01307 0.31309 0.0
N3263 N 0.62584 0.9674 0.28058 0.0
C3264 C 0.60498 0.0055 0.30489 0.0
C3265 C 0.61934 0.98017 0.28819 0.0
N3266 N 0.61955 0.0041 0.33635 0.0
N3267 N 0.60323 0.98105 0.25733 0.0
H3268 H 0.63203 0.96044 0.28939 0.0
H3269 H 0.6257 0.96411 0.26566 0.0
H3270 H 0.59447 0.98546 0.24888 0.0
H3271 H 0.60464 0.96916 0.25077 0.0
H3272 H 0.61679 0.01517 0.34287 0.0
H3273 H 0.62664 0.99856 0.3458 0.0
H3274 H 0.59157 0.01368 0.32816 0.0
H3275 H 0.58318 0.01559 0.30491 0.0
C3276 C 0.9868 0.61724 0.31328 0.0
C3277 C 0.00294 0.63483 0.30449 0.0
C3278 C 0.99492 0.61631 0.27272 0.0
C3279 C 0.97796 0.59863 0.28129 0.0
N3280 N 0.96326 0.58051 0.31159 0.0
N3281 N 0.02615 0.64965 0.27787 0.0
C3282 C 0.9758 0.59845 0.30217 0.0
C3283 C 0.00816 0.63387 0.28482 0.0
N3284 N 0.98098 0.61876 0.33192 0.0
N3285 N 0.99829 0.61681 0.25298 0.0
H3286 H 0.03612 0.66263 0.28649 0.0
H3287 H 0.0322 0.64907 0.26434 0.0
H3288 H 0.99208 0.60384 0.24366 0.0
H3289 H 0.00755 0.63044 0.24564 0.0
H3290 H 0.96741 0.60739 0.33805 0.0
H3291 H 0.9888 0.63206 0.34082 0.0
H3292 H 0.96334 0.57936 0.32682 0.0
H3293 H 0.95412 0.56623 0.30463 0.0
C3294 C 0.38551 0.36354 0.31302 0.0
C3295 C 0.36801 0.36614 0.3121 0.0
C3296 C 0.38578 0.39466 0.28944 0.0
C3297 C 0.40428 0.39422 0.29291 0.0
N3298 N 0.41848 0.37208 0.29948 0.0
N3299 N 0.35109 0.38405 0.29965 0.0
C3300 C 0.40319 0.37674 0.3021 0.0
C3301 C 0.36797 0.38158 0.30025 0.0
N3302 N 0.38582 0.34943 0.32539 0.0
N3303 N 0.38483 0.40638 0.27471 0.0
H3304 H 0.33731 0.3741 0.30646 0.0
H3305 H 0.3511 0.3967 0.29341 0.0
H3306 H 0.39682 0.41412 0.26498 0.0
H3307 H 0.37138 0.40618 0.27032 0.0
H3308 H 0.39905 0.34871 0.32863 0.0
H3309 H 0.3733 0.33947 0.33377 0.0
H3310 H 0.41755 0.35843 0.30415 0.0
H3311 H 0.43103 0.3806 0.29058 0.0
C3312 C 0.35421 0.30326 0.3898 0.0
C3313 C 0.34201 0.29477 0.37249 0.0
C3314 C 0.35211 0.26833 0.37166 0.0
C3315 C 0.36872 0.28044 0.38514 0.0
N3316 N 0.3853 0.31071 0.40726 0.0
N3317 N 0.33083 0.26965 0.34556 0.0
C3318 C 0.36958 0.29814 0.39452 0.0
C3319 C 0.3411 0.27724 0.36312 0.0
N3320 N 0.35084 0.31598 0.40191 0.0
N3321 N 0.34633 0.24819 0.36736 0.0
H3322 H 0.32296 0.27586 0.3383 0.0
H3323 H 0.33178 0.25827 0.33733 0.0
H3324 H 0.35225 0.24016 0.37484 0.0
H3325 H 0.33343 0.23857 0.35859 0.0
H3326 H 0.35805 0.32122 0.41565 0.0
H3327 H 0.33892 0.31906 0.39924 0.0
H3328 H 0.38767 0.32503 0.41225 0.0
H3329 H 0.39691 0.30792 0.41191 0.0
C3330 C 0.69121 0.04688 0.38097 0.0
C3331 C 0.70158 0.04088 0.36752 0.0
C3332 C 0.73072 0.07626 0.36862 0.0
C3333 C 0.7181 0.08332 0.37751 0.0
N3334 N 0.6854 0.07404 0.39286 0.0
N3335 N 0.73118 0.05019 0.34746 0.0
C3336 C 0.69821 0.06826 0.38425 0.0
C3337 C 0.72147 0.05556 0.36126 0.0
N3338 N 0.67469 0.03206 0.39073 0.0
N3339 N 0.75156 0.08898 0.36757 0.0
H3340 H 0.72505 0.03522 0.34162 0.0
H3341 H 0.74458 0.06103 0.34066 0.0
H3342 H 0.75948 0.10366 0.37417 0.0
H3343 H 0.76136 0.08385 0.36258 0.0
H3344 H 0.66769 0.03545 0.40221 0.0
H3345 H 0.66948 0.01628 0.38883 0.0
H3346 H 0.66989 0.06367 0.39527 0.0
H3347 H 0.68949 0.08918 0.39658 0.0
C3348 C 0.95201 0.65805 0.35593 0.0
C3349 C 0.97097 0.66887 0.36646 0.0
C3350 C 0.95276 0.66089 0.39755 0.0
C3351 C 0.93352 0.64972 0.38693 0.0
N3352 N 0.91598 0.64761 0.35607 0.0
N3353 N 0.98921 0.68634 0.39631 0.0
C3354 C 0.9334 0.65125 0.36611 0.0
C3355 C 0.9713 0.67201 0.387 0.0
N3356 N 0.95161 0.65368 0.33631 0.0
N3357 N 0.9536 0.66096 0.41762 0.0
H3358 H 0.00279 0.69532 0.38879 0.0
H3359 H 0.99011 0.69097 0.41096 0.0
H3360 H 0.94078 0.65531 0.42647 0.0
H3361 H 0.96725 0.66596 0.42565 0.0
H3362 H 0.938 0.64387 0.32851 0.0
H3363 H 0.9649 0.65831 0.32824 0.0
H3364 H 0.91574 0.64992 0.34104 0.0
H3365 H 0.9028 0.64561 0.363 0.0
C3366 C 0.40064 0.01716 0.6961 0.0
C3367 C 0.37266 0.00017 0.69637 0.0
C3368 C 0.37671 0.96688 0.72107 0.0
C3369 C 0.40416 0.98713 0.72487 0.0
N3370 N 0.43816 0.02157 0.70874 0.0
N3371 N 0.34031 0.96176 0.70609 0.0
C3372 C 0.41743 0.00996 0.70886 0.0
C3373 C 0.36083 0.97496 0.70796 0.0
N3374 N 0.40903 0.03539 0.68681 0.0
N3375 N 0.36884 0.94848 0.72991 0.0
H3376 H 0.33081 0.96529 0.69775 0.0
H3377 H 0.33347 0.94733 0.71256 0.0
H3378 H 0.37852 0.94509 0.7382 0.0
H3379 H 0.35324 0.93744 0.72861 0.0
H3380 H 0.42494 0.04517 0.6867 0.0
H3381 H 0.39998 0.04057 0.68007 0.0
H3382 H 0.44557 0.0348 0.70036 0.0
H3383 H 0.4471 0.01713 0.71692 0.0
C3384 C 0.97517 0.36161 0.73103 0.0
C3385 C 0.9949 0.3624 0.71505 0.0
C3386 C 0.02877 0.40558 0.73297 0.0
C3387 C 0.00702 0.40655 0.7447 0.0
N3388 N 0.96753 0.38316 0.76047 0.0
N3389 N 0.03588 0.38333 0.70485 0.0
C3390 C 0.98131 0.38308 0.74795 0.0
C3391 C 0.02151 0.38364 0.71645 0.0
N3392 N 0.95617 0.34467 0.73089 0.0
N3393 N 0.04816 0.42179 0.73443 0.0
H3394 H 0.03207 0.37146 0.69452 0.0
H3395 H 0.05111 0.39539 0.70548 0.0
H3396 H 0.05126 0.43464 0.74323 0.0
H3397 H 0.06025 0.42175 0.72706 0.0
H3398 H 0.94477 0.34391 0.74003 0.0
H3399 H 0.95253 0.33188 0.7218 0.0
H3400 H 0.95285 0.37031 0.76165 0.0
H3401 H 0.97159 0.39624 0.76933 0.0
C3402 C 0.61796 0.61953 0.71743 0.0
C3403 C 0.62082 0.62485 0.69737 0.0
C3404 C 0.5838 0.60201 0.69077 0.0
C3405 C 0.58174 0.59417 0.71002 0.0
N3406 N 0.5934 0.60578 0.74344 0.0
N3407 N 0.60646 0.62255 0.6649 0.0
C3408 C 0.59781 0.60584 0.72404 0.0
C3409 C 0.60369 0.61663 0.68405 0.0
N3410 N 0.63454 0.62686 0.73009 0.0
N3411 N 0.56655 0.59665 0.67952 0.0
H3412 H 0.6203 0.63451 0.65975 0.0
H3413 H 0.59534 0.61502 0.65383 0.0
H3414 H 0.55169 0.58719 0.68456 0.0
H3415 H 0.5667 0.60323 0.66613 0.0
H3416 H 0.63346 0.62155 0.74433 0.0
H3417 H 0.64963 0.6369 0.72588 0.0
H3418 H 0.60433 0.61517 0.75409 0.0
H3419 H 0.5783 0.59915 0.74825 0.0
C3420 C 0.64857 0.71514 0.66697 0.0
C3421 C 0.65688 0.707 0.65312 0.0
C3422 C 0.64932 0.7243 0.62678 0.0
C3423 C 0.64599 0.7363 0.64109 0.0
N3424 N 0.63032 0.73393 0.67233 0.0
N3425 N 0.66498 0.70356 0.61951 0.0
C3426 C 0.64194 0.72897 0.66057 0.0
C3427 C 0.65692 0.71124 0.63287 0.0
N3428 N 0.64725 0.70987 0.68626 0.0
N3429 N 0.64311 0.72363 0.60774 0.0
H3430 H 0.67041 0.69364 0.62322 0.0
H3431 H 0.66765 0.70829 0.60499 0.0
H3432 H 0.6342 0.73014 0.60357 0.0
H3433 H 0.64375 0.71394 0.59695 0.0
H3434 H 0.6441 0.71744 0.69749 0.0
H3435 H 0.65006 0.69835 0.69123 0.0
H3436 H 0.6252 0.72772 0.68608 0.0
H3437 H 0.62377 0.74254 0.66736 0.0
C3438 C 0.30502 0.94088 0.63849 0.0
C3439 C 0.29747 0.9605 0.63608 0.0
C3440 C 0.26237 0.93306 0.605 0.0
C3441 C 0.26706 0.91174 0.61219 0.0
N3442 N 0.29592 0.90137 0.62634 0.0
N3443 N 0.27329 0.97284 0.61636 0.0
C3444 C 0.29114 0.91649 0.62492 0.0
C3445 C 0.277 0.95711 0.61909 0.0
N3446 N 0.32081 0.94431 0.6507 0.0
N3447 N 0.24749 0.92989 0.59176 0.0
H3448 H 0.28195 0.98697 0.62386 0.0
H3449 H 0.26178 0.97125 0.60658 0.0
H3450 H 0.23903 0.91552 0.58456 0.0
H3451 H 0.24437 0.94162 0.58836 0.0
H3452 H 0.32527 0.93323 0.65226 0.0
H3453 H 0.32855 0.9578 0.65933 0.0
H3454 H 0.30884 0.90363 0.63434 0.0
H3455 H 0.28663 0.88711 0.61921 0.0
C3456 C 0.05236 0.32742 0.65763 0.0
C3457 C 0.03667 0.32994 0.64855 0.0
C3458 C 0.05798 0.34354 0.61956 0.0
C3459 C 0.07103 0.33626 0.62669 0.0
N3460 N 0.08506 0.32952 0.65625 0.0
N3461 N 0.02406 0.33971 0.62013 0.0
C3462 C 0.06963 0.3307 0.64672 0.0
C3463 C 0.03946 0.33814 0.62943 0.0
N3464 N 0.05113 0.32224 0.67693 0.0
N3465 N 0.06381 0.35658 0.6041 0.0
H3466 H 0.01011 0.33587 0.62659 0.0
H3467 H 0.02448 0.34317 0.60532 0.0
H3468 H 0.07819 0.36246 0.59772 0.0
H3469 H 0.05567 0.36372 0.59941 0.0
H3470 H 0.06221 0.31985 0.68393 0.0
H3471 H 0.03948 0.32096 0.68605 0.0
H3472 H 0.09931 0.33369 0.65018 0.0
H3473 H 0.09931 0.33369 0.65018 0.0
C3474 C 0.29775 0.35776 0.6551 0.0
C3475 C 0.29966 0.34235 0.6445 0.0
C3476 C 0.29132 0.35336 0.61368 0.0
C3477 C 0.29313 0.37118 0.62374 0.0
N3478 N 0.29049 0.38587 0.65497 0.0
N3479 N 0.29677 0.32388 0.61443 0.0
C3480 C 0.29383 0.37192 0.64476 0.0
C3481 C 0.29567 0.33951 0.62403 0.0
N3482 N 0.30132 0.35988 0.67498 0.0
N3483 N 0.28456 0.34911 0.59452 0.0
H3484 H 0.29792 0.31239 0.62192 0.0
H3485 H 0.29729 0.32262 0.59924 0.0
H3486 H 0.27968 0.35772 0.58659 0.0
H3487 H 0.28131 0.33556 0.58696 0.0
H3488 H 0.30385 0.37278 0.6833 0.0
H3489 H 0.30259 0.34893 0.68324 0.0
H3490 H 0.28802 0.38525 0.67001 0.0
H3491 H 0.28847 0.39727 0.6486 0.0
C3492 C 0.64097 0.95155 0.6228 0.0
C3493 C 0.65369 0.95495 0.63958 0.0
C3494 C 0.64131 0.91784 0.64018 0.0
C3495 C 0.62463 0.91398 0.62725 0.0
N3496 N 0.60947 0.92832 0.60514 0.0
N3497 N 0.66459 0.94062 0.66562 0.0
C3498 C 0.62486 0.93114 0.61796 0.0
C3499 C 0.65375 0.93797 0.64853 0.0
N3500 N 0.64456 0.96782 0.6113 0.0
N3501 N 0.64574 0.90259 0.64415 0.0
H3502 H 0.67352 0.95491 0.67276 0.0
H3503 H 0.66312 0.92823 0.67371 0.0
H3504 H 0.63847 0.88819 0.63693 0.0
H3505 H 0.65869 0.90529 0.65239 0.0
H3506 H 0.63712 0.96605 0.5978 0.0
H3507 H 0.65663 0.98285 0.61421 0.0
H3508 H 0.60755 0.94045 0.60035 0.0
H3509 H 0.59782 0.91396 0.60001 0.0
C3510 C 0.03608 0.68695 0.62963 0.0
C3511 C 0.03165 0.69919 0.64259 0.0
C3512 C 0.06719 0.72759 0.64101 0.0
C3513 C 0.07277 0.7138 0.63175 0.0
N3514 N 0.0612 0.6837 0.61006 0.0
N3515 N 0.03954 0.73414 0.64927 0.0
C3516 C 0.05676 0.69454 0.62362 0.0
C3517 C 0.04613 0.72051 0.64485 0.0
N3518 N 0.02039 0.66817 0.62304 0.0
N3519 N 0.08184 0.74735 0.64635 0.0
H3520 H 0.02394 0.72961 0.64953 0.0
H3521 H 0.04915 0.75015 0.6497 0.0
H3522 H 0.09674 0.75482 0.64102 0.0
H3523 H 0.07906 0.75651 0.65613 0.0
H3524 H 0.02244 0.65683 0.61611 0.0
H3525 H 0.00496 0.66412 0.62426 0.0
H3526 H 0.05018 0.67045 0.60254 0.0
H3527 H 0.07591 0.68854 0.60501 0.0
C3528 C 0.0064 0.636 0.72931 0.0
C3529 C 0.99528 0.62956 0.71124 0.0
C3530 C 0.99664 0.59757 0.71218 0.0
C3531 C 0.01236 0.60645 0.7271 0.0
N3532 N 0.0319 0.63514 0.75043 0.0
N3533 N 0.98145 0.6047 0.68413 0.0
C3534 C 0.01696 0.62582 0.73608 0.0
C3535 C 0.9906 0.61036 0.70238 0.0
N3536 N 0.00656 0.65164 0.74019 0.0
N3537 N 0.98698 0.57687 0.70763 0.0
H3538 H 0.97716 0.61373 0.67605 0.0
H3539 H 0.97991 0.59189 0.67626 0.0
H3540 H 0.98925 0.56637 0.71558 0.0
H3541 H 0.97445 0.56969 0.69782 0.0
H3542 H 0.01264 0.65563 0.75445 0.0
H3543 H 0.99855 0.65905 0.7358 0.0
H3544 H 0.03761 0.65042 0.75518 0.0
H3545 H 0.03968 0.62845 0.7569 0.0
C3546 C 0.35692 0.37901 0.7229 0.0
C3547 C 0.36509 0.37455 0.70607 0.0
C3548 C 0.39255 0.41077 0.70624 0.0
C3549 C 0.38099 0.41618 0.71901 0.0
N3550 N 0.35137 0.40411 0.74024 0.0
N3551 N 0.39015 0.38748 0.68014 0.0
C3552 C 0.36311 0.39993 0.72785 0.0
C3553 C 0.38296 0.39067 0.69743 0.0
N3554 N 0.34338 0.36324 0.73428 0.0
N3555 N 0.41275 0.42453 0.7027 0.0
H3556 H 0.38337 0.3734 0.67242 0.0
H3557 H 0.40179 0.39955 0.67242 0.0
H3558 H 0.42107 0.43872 0.71017 0.0
H3559 H 0.42199 0.42054 0.69453 0.0
H3560 H 0.33839 0.36565 0.74776 0.0
H3561 H 0.33906 0.34782 0.73131 0.0
H3562 H 0.33684 0.39279 0.74467 0.0
H3563 H 0.35522 0.41884 0.74526 0.0
C3564 C 0.6158 0.00313 0.68891 0.0
C3565 C 0.63551 0.01092 0.69788 0.0
C3566 C 0.6221 0.0145 0.72949 0.0
C3567 C 0.60195 0.00511 0.72069 0.0
N3568 N 0.583 0.00174 0.69061 0.0
N3569 N 0.65896 0.0294 0.7249 0.0
C3570 C 0.5998 0.0029 0.69992 0.0
C3571 C 0.63915 0.01822 0.71769 0.0
N3572 N 0.612 0.99506 0.67017 0.0
N3573 N 0.625 0.02 0.74898 0.0
H3574 H 0.67177 0.03278 0.71649 0.0
H3575 H 0.66301 0.03685 0.73861 0.0
H3576 H 0.61391 0.02077 0.75742 0.0
H3577 H 0.63837 0.0237 0.75697 0.0
H3578 H 0.59724 0.98713 0.66384 0.0
H3579 H 0.6232 0.99463 0.66155 0.0
H3580 H 0.58151 0.00165 0.67537 0.0
H3581 H 0.57214 0.00399 0.698 0.0
loop_
_geom_bond_atom_site_label_1
_geom_bond_atom_site_label_2
_geom_bond_distance
_geom_bond_site_symmetry_2
_ccdc_geom_bond_type
In0 O1 2.294 1_455 S
In0 O2 2.326 . S
In0 O6 2.266 1_454 S
In0 O7 2.326 1_454 S
In0 O8 2.266 1_554 S
In0 O9 2.326 1_454 S
In0 O11 2.294 . S
In0 O12 2.326 . S
O1 In0 2.294 1_655 S
O1 C10 1.256 . S
O2 In0 2.326 . S
O2 C10 1.221 1_455 S
C3 O6 1.252 . S
C3 O7 1.260 . S
C4 O11 1.240 . S
C4 O12 1.252 . S
C5 O8 1.252 . S
C5 O9 1.260 1_455 S
O6 In0 2.266 1_656 S
O6 C3 1.252 . S
O7 In0 2.326 1_656 S
O7 C3 1.260 . S
O8 In0 2.266 1_556 S
O8 C5 1.252 . S
O9 In0 2.326 1_656 S
O9 C5 1.260 1_655 S
C10 O1 1.256 . S
C10 O2 1.221 1_655 S
O11 In0 2.294 . S
O11 C4 1.240 . S
O12 In0 2.326 . S
O12 C4 1.252 . S
In13 O14 2.294 . S
In13 O15 2.326 . S
In13 O19 2.266 . S
In13 O20 2.326 1_554 S
In13 O21 2.266 1_554 S
In13 O22 2.326 1_554 S
In13 O24 2.294 . S
In13 O25 2.326 . S
O14 In13 2.294 . S
O14 C23 1.240 . S
O15 In13 2.326 . S
O15 C23 1.252 . S
C16 O19 1.252 1_556 S
C16 O20 1.260 . S
C17 O24 1.240 . S
C17 O25 1.252 . S
C18 O21 1.252 . S
C18 O22 1.260 . S
O19 In13 2.266 . S
O19 C16 1.252 1_554 S
O20 In13 2.326 1_556 S
O20 C16 1.260 . S
O21 In13 2.266 1_556 S
O21 C18 1.252 . S
O22 In13 2.326 1_556 S
O22 C18 1.260 . S
C23 O14 1.240 . S
C23 O15 1.252 . S
O24 In13 2.294 . S
O24 C17 1.240 . S
O25 In13 2.326 . S
O25 C17 1.252 . S
In26 O27 2.294 1_554 S
In26 O28 2.326 1_554 S
In26 O32 2.266 . S
In26 O33 2.326 1_545 S
In26 O34 2.266 1_545 S
In26 O35 2.326 1_545 S
In26 O37 2.294 1_544 S
In26 O38 2.326 1_554 S
O27 In26 2.294 1_556 S
O27 C36 1.240 . S
O28 In26 2.326 1_556 S
O28 C36 1.252 . S
C29 O32 1.252 . S
C29 O33 1.260 1_545 S
C30 O37 1.240 . S
C30 O38 1.252 1_565 S
C31 O34 1.252 . S
C31 O35 1.260 . S
O32 In26 2.266 . S
O32 C29 1.252 . S
O33 In26 2.326 1_565 S
O33 C29 1.260 1_565 S
O34 In26 2.266 1_565 S
O34 C31 1.252 . S
O35 In26 2.326 1_565 S
O35 C31 1.260 . S
C36 O27 1.240 . S
C36 O28 1.252 . S
O37 In26 2.294 1_566 S
O37 C30 1.240 . S
O38 In26 2.326 1_556 S
O38 C30 1.252 1_545 S
In39 O40 2.293 1_554 S
In39 O41 2.326 1_454 S
In39 O45 2.265 . S
In39 O46 2.326 . S
In39 O47 2.267 1_455 S
In39 O48 2.324 . S
In39 O50 2.296 1_455 S
In39 O51 2.327 1_454 S
O40 In39 2.293 1_556 S
O40 C49 1.240 . S
O41 In39 2.326 1_656 S
O41 C49 1.252 1_655 S
C42 O45 1.252 . S
C42 O46 1.260 . S
C43 O50 1.240 1_556 S
C43 O51 1.252 . S
C44 O47 1.252 . S
C44 O48 1.260 1_655 S
O45 In39 2.265 . S
O45 C42 1.252 . S
O46 In39 2.326 . S
O46 C42 1.260 . S
O47 In39 2.267 1_655 S
O47 C44 1.252 . S
O48 In39 2.324 . S
O48 C44 1.260 1_455 S
C49 O40 1.240 . S
C49 O41 1.252 1_455 S
O50 In39 2.296 1_655 S
O50 C43 1.240 1_554 S
O51 In39 2.327 1_656 S
O51 C43 1.252 . S
In52 O53 2.294 1_554 S
In52 O54 2.326 1_554 S
In52 O58 2.266 . S
In52 O59 2.326 . S
In52 O60 2.266 . S
In52 O61 2.326 . S
In52 O63 2.294 1_554 S
In52 O64 2.326 1_554 S
O53 In52 2.294 1_556 S
O53 C62 1.240 . S
O54 In52 2.326 1_556 S
O54 C62 1.252 . S
C55 O58 1.252 . S
C55 O59 1.260 . S
C56 O63 1.240 . S
C56 O64 1.252 . S
C57 O60 1.252 . S
C57 O61 1.260 . S
O58 In52 2.266 . S
O58 C55 1.252 . S
O59 In52 2.326 . S
O59 C55 1.260 . S
O60 In52 2.266 . S
O60 C57 1.252 . S
O61 In52 2.326 . S
O61 C57 1.260 . S
C62 O53 1.240 . S
C62 O54 1.252 . S
O63 In52 2.294 1_556 S
O63 C56 1.240 . S
O64 In52 2.326 1_556 S
O64 C56 1.252 . S
In65 O66 2.293 . S
In65 O67 2.326 1_545 S
In65 O71 2.265 . S
In65 O72 2.326 1_554 S
In65 O73 2.267 1_544 S
In65 O74 2.324 1_554 S
In65 O76 2.296 1_545 S
In65 O77 2.327 1_545 S
O66 In65 2.293 . S
O66 C75 1.240 . S
O67 In65 2.326 1_565 S
O67 C75 1.252 1_565 S
C68 O71 1.252 1_556 S
C68 O72 1.260 . S
C69 O76 1.240 . S
C69 O77 1.252 . S
C70 O73 1.252 . S
C70 O74 1.260 1_565 S
O71 In65 2.265 . S
O71 C68 1.252 1_554 S
O72 In65 2.326 1_556 S
O72 C68 1.260 . S
O73 In65 2.267 1_566 S
O73 C70 1.252 . S
O74 In65 2.324 1_556 S
O74 C70 1.260 1_545 S
C75 O66 1.240 . S
C75 O67 1.252 1_545 S
O76 In65 2.296 1_565 S
O76 C69 1.240 . S
O77 In65 2.327 1_565 S
O77 C69 1.252 . S
In78 O79 2.294 . S
In78 O80 2.326 . S
In78 O84 2.266 . S
In78 O85 2.326 . S
In78 O86 2.266 . S
In78 O87 2.326 . S
In78 O89 2.294 . S
In78 O90 2.326 . S
O79 In78 2.294 . S
O79 C88 1.240 . S
O80 In78 2.326 . S
O80 C88 1.252 . S
C81 O84 1.252 . S
C81 O85 1.260 . S
C82 O89 1.240 . S
C82 O90 1.252 . S
C83 O86 1.252 . S
C83 O87 1.260 . S
O84 In78 2.266 . S
O84 C81 1.252 . S
O85 In78 2.326 . S
O85 C81 1.260 . S
O86 In78 2.266 . S
O86 C83 1.252 . S
O87 In78 2.326 . S
O87 C83 1.260 . S
C88 O79 1.240 . S
C88 O80 1.252 . S
O89 In78 2.294 . S
O89 C82 1.240 . S
O90 In78 2.326 . S
O90 C82 1.252 . S
In91 O92 2.294 . S
In91 O93 2.326 . S
In91 O97 2.266 . S
In91 O98 2.326 . S
In91 O99 2.266 . S
In91 O100 2.326 . S
In91 O102 2.294 1_565 S
In91 O103 2.326 1_565 S
O92 In91 2.294 . S
O92 C101 1.240 . S
O93 In91 2.326 . S
O93 C101 1.252 . S
C94 O97 1.252 . S
C94 O98 1.260 . S
C95 O102 1.240 . S
C95 O103 1.252 . S
C96 O99 1.252 . S
C96 O100 1.260 . S
O97 In91 2.266 . S
O97 C94 1.252 . S
O98 In91 2.326 . S
O98 C94 1.260 . S
O99 In91 2.266 . S
O99 C96 1.252 . S
O100 In91 2.326 . S
O100 C96 1.260 . S
C101 O92 1.240 . S
C101 O93 1.252 . S
O102 In91 2.294 1_545 S
O102 C95 1.240 . S
O103 In91 2.326 1_545 S
O103 C95 1.252 . S
In104 O105 2.294 . S
In104 O106 2.326 . S
In104 O110 2.266 . S
In104 O111 2.326 . S
In104 O112 2.266 1_455 S
In104 O113 2.360 . S
In104 O115 2.294 . S
In104 O116 2.326 . S
O105 In104 2.294 . S
O105 C114 1.240 . S
O106 In104 2.326 . S
O106 C114 1.252 . S
C107 O110 1.252 . S
C107 O111 1.260 . S
C108 O115 1.240 . S
C108 O116 1.252 . S
C109 O112 1.252 . S
C109 O113 1.258 1_655 S
O110 In104 2.266 . S
O110 C107 1.252 . S
O111 In104 2.326 . S
O111 C107 1.260 . S
O112 In104 2.266 1_655 S
O112 C109 1.252 . S
O113 In104 2.360 . S
O113 C109 1.258 1_455 S
C114 O105 1.240 . S
C114 O106 1.252 . S
O115 In104 2.294 . S
O115 C108 1.240 . S
O116 In104 2.326 . S
O116 C108 1.252 . S
In117 O118 2.294 . S
In117 O119 2.326 . S
In117 O123 2.266 1_565 S
In117 O124 2.326 1_565 S
In117 O125 2.266 . S
In117 O126 2.326 . S
In117 O128 2.294 . S
In117 O129 2.326 . S
O118 In117 2.294 . S
O118 C127 1.240 . S
O119 In117 2.326 . S
O119 C127 1.252 . S
C120 O123 1.252 . S
C120 O124 1.260 . S
C121 O128 1.240 . S
C121 O129 1.252 . S
C122 O125 1.252 . S
C122 O126 1.260 . S
O123 In117 2.266 1_545 S
O123 C120 1.252 . S
O124 In117 2.326 1_545 S
O124 C120 1.260 . S
O125 In117 2.266 . S
O125 C122 1.252 . S
O126 In117 2.326 . S
O126 C122 1.260 . S
C127 O118 1.240 . S
C127 O119 1.252 . S
O128 In117 2.294 . S
O128 C121 1.240 . S
O129 In117 2.326 . S
O129 C121 1.252 . S
In130 O131 2.294 . S
In130 O132 2.326 . S
In130 O136 2.266 1_455 S
In130 O137 2.326 1_455 S
In130 O138 2.266 . S
In130 O139 2.326 . S
In130 O141 2.294 . S
In130 O142 2.326 . S
O131 In130 2.294 . S
O131 C140 1.240 . S
O132 In130 2.326 . S
O132 C140 1.252 . S
C133 O136 1.252 . S
C133 O137 1.260 . S
C134 O141 1.240 . S
C134 O142 1.252 . S
C135 O138 1.252 . S
C135 O139 1.260 . S
O136 In130 2.266 1_655 S
O136 C133 1.252 . S
O137 In130 2.326 1_655 S
O137 C133 1.260 . S
O138 In130 2.266 . S
O138 C135 1.252 . S
O139 In130 2.326 . S
O139 C135 1.260 . S
C140 O131 1.240 . S
C140 O132 1.252 . S
O141 In130 2.294 . S
O141 C134 1.240 . S
O142 In130 2.326 . S
O142 C134 1.252 . S
In143 O144 2.294 . S
In143 O145 2.326 . S
In143 O149 2.266 . S
In143 O150 2.326 . S
In143 O151 2.266 . S
In143 O152 2.326 . S
In143 O154 2.294 . S
In143 O155 2.326 . S
O144 In143 2.294 . S
O144 C153 1.240 . S
O145 In143 2.326 . S
O145 C153 1.252 . S
C146 O149 1.252 . S
C146 O150 1.260 . S
C147 O154 1.240 . S
C147 O155 1.252 . S
C148 O151 1.252 . S
C148 O152 1.260 . S
O149 In143 2.266 . S
O149 C146 1.252 . S
O150 In143 2.326 . S
O150 C146 1.260 . S
O151 In143 2.266 . S
O151 C148 1.252 . S
O152 In143 2.326 . S
O152 C148 1.260 . S
C153 O144 1.240 . S
C153 O145 1.252 . S
O154 In143 2.294 . S
O154 C147 1.240 . S
O155 In143 2.326 . S
O155 C147 1.252 . S
In156 O157 2.294 . S
In156 O158 2.326 . S
In156 O162 2.266 . S
In156 O163 2.326 . S
In156 O164 2.266 1_545 S
In156 O165 2.326 1_545 S
In156 O167 2.294 . S
In156 O168 2.326 . S
O157 In156 2.294 . S
O157 C166 1.240 . S
O158 In156 2.326 . S
O158 C166 1.252 . S
C159 O162 1.252 . S
C159 O163 1.260 . S
C160 O167 1.240 . S
C160 O168 1.252 . S
C161 O164 1.252 . S
C161 O165 1.260 . S
O162 In156 2.266 . S
O162 C159 1.252 . S
O163 In156 2.326 . S
O163 C159 1.260 . S
O164 In156 2.266 1_565 S
O164 C161 1.252 . S
O165 In156 2.326 1_565 S
O165 C161 1.260 . S
C166 O157 1.240 . S
C166 O158 1.252 . S
O167 In156 2.294 . S
O167 C160 1.240 . S
O168 In156 2.326 . S
O168 C160 1.252 . S
In169 O170 2.294 . S
In169 O171 2.326 . S
In169 O175 2.266 . S
In169 O176 2.326 . S
In169 O177 2.266 1_655 S
In169 O178 2.326 1_655 S
In169 O180 2.294 . S
In169 O181 2.326 . S
O170 In169 2.294 . S
O170 C179 1.240 . S
O171 In169 2.326 . S
O171 C179 1.252 . S
C172 O175 1.252 . S
C172 O176 1.260 . S
C173 O180 1.240 . S
C173 O181 1.252 . S
C174 O177 1.252 . S
C174 O178 1.260 . S
O175 In169 2.266 . S
O175 C172 1.252 . S
O176 In169 2.326 . S
O176 C172 1.260 . S
O177 In169 2.266 1_455 S
O177 C174 1.252 . S
O178 In169 2.326 1_455 S
O178 C174 1.260 . S
C179 O170 1.240 . S
C179 O171 1.252 . S
O180 In169 2.294 . S
O180 C173 1.240 . S
O181 In169 2.326 . S
O181 C173 1.252 . S
In182 O183 2.294 . S
In182 O184 2.326 . S
In182 O188 2.266 . S
In182 O189 2.326 . S
In182 O190 2.266 . S
In182 O191 2.326 . S
In182 O193 2.294 . S
In182 O194 2.326 . S
O183 In182 2.294 . S
O183 C192 1.240 . S
O184 In182 2.326 . S
O184 C192 1.252 . S
C185 O188 1.252 . S
C185 O189 1.260 . S
C186 O193 1.240 . S
C186 O194 1.252 . S
C187 O190 1.252 . S
C187 O191 1.260 . S
O188 In182 2.266 . S
O188 C185 1.252 . S
O189 In182 2.326 . S
O189 C185 1.260 . S
O190 In182 2.266 . S
O190 C187 1.252 . S
O191 In182 2.326 . S
O191 C187 1.260 . S
C192 O183 1.240 . S
C192 O184 1.252 . S
O193 In182 2.294 . S
O193 C186 1.240 . S
O194 In182 2.326 . S
O194 C186 1.252 . S
In195 O196 2.294 . S
In195 O197 2.326 . S
In195 O201 2.266 . S
In195 O202 2.326 . S
In195 O203 2.266 . S
In195 O204 2.326 . S
In195 O206 2.294 . S
In195 O207 2.326 . S
O196 In195 2.294 . S
O196 C205 1.240 . S
O197 In195 2.326 . S
O197 C205 1.252 . S
C198 O201 1.252 . S
C198 O202 1.260 . S
C199 O206 1.240 . S
C199 O207 1.252 . S
C200 O203 1.252 . S
C200 O204 1.260 . S
O201 In195 2.266 . S
O201 C198 1.252 . S
O202 In195 2.326 . S
O202 C198 1.260 . S
O203 In195 2.266 . S
O203 C200 1.252 . S
O204 In195 2.326 . S
O204 C200 1.260 . S
C205 O196 1.240 . S
C205 O197 1.252 . S
O206 In195 2.294 . S
O206 C199 1.240 . S
O207 In195 2.326 . S
O207 C199 1.252 . S
In208 O209 2.294 . S
In208 O210 2.326 . S
In208 O214 2.266 . S
In208 O215 2.326 . S
In208 O216 2.266 . S
In208 O217 2.326 . S
In208 O219 2.294 1_545 S
In208 O220 2.314 1_545 S
O209 In208 2.294 . S
O209 C218 1.240 . S
O210 In208 2.326 . S
O210 C218 1.252 . S
C211 O214 1.252 . S
C211 O215 1.260 . S
C212 O219 1.240 . S
C212 O220 1.281 . S
C213 O216 1.252 . S
C213 O217 1.260 . S
O214 In208 2.266 . S
O214 C211 1.252 . S
O215 In208 2.326 . S
O215 C211 1.260 . S
O216 In208 2.266 . S
O216 C213 1.252 . S
O217 In208 2.326 . S
O217 C213 1.260 . S
C218 O209 1.240 . S
C218 O210 1.252 . S
O219 In208 2.294 1_565 S
O219 C212 1.240 . S
O220 In208 2.314 1_565 S
O220 C212 1.281 . S
In221 O222 2.294 . S
In221 O223 2.326 . S
In221 O227 2.266 . S
In221 O228 2.326 . S
In221 O229 2.266 1_655 S
In221 O230 2.298 1_655 S
In221 O232 2.294 . S
In221 O233 2.326 . S
O222 In221 2.294 . S
O222 C231 1.240 . S
O223 In221 2.326 . S
O223 C231 1.252 . S
C224 O227 1.252 . S
C224 O228 1.260 . S
C225 O232 1.240 . S
C225 O233 1.252 . S
C226 O229 1.252 . S
C226 O230 1.263 . S
O227 In221 2.266 . S
O227 C224 1.252 . S
O228 In221 2.326 . S
O228 C224 1.260 . S
O229 In221 2.266 1_455 S
O229 C226 1.252 . S
O230 In221 2.298 1_455 S
O230 C226 1.263 . S
C231 O222 1.240 . S
C231 O223 1.252 . S
O232 In221 2.294 . S
O232 C225 1.240 . S
O233 In221 2.326 . S
O233 C225 1.252 . S
C234 C235 1.560 . S
C234 H295 0.959 . S
C234 H296 0.959 . S
C234 H297 0.960 . S
C235 C234 1.560 . S
C235 O290 1.426 . S
C235 H294 0.980 . S
C236 C237 1.407 . S
C236 C241 1.418 . S
C236 O290 1.334 . S
C237 C236 1.407 . S
C237 C238 1.360 . S
C237 H298 0.929 . S
C238 C237 1.360 . S
C238 C239 1.401 . S
C238 C242 1.527 . S
C239 C238 1.401 . S
C239 C240 1.405 . S
C239 C272 1.587 . S
C240 C239 1.405 . S
C240 C241 1.332 . S
C240 C243 1.496 . S
C241 C236 1.418 . S
C241 C240 1.332 . S
C241 H299 0.929 . S
C242 C238 1.527 . S
C242 H300 0.959 . S
C242 H301 0.961 . S
C242 H302 0.961 . S
C243 C240 1.496 . S
C243 H303 0.960 . S
C243 H304 0.960 . S
C243 H305 0.961 . S
C244 C245 1.517 . S
C244 H307 0.961 . S
C244 H308 0.960 . S
C244 H309 0.959 . S
C245 C244 1.517 . S
C245 O293 1.468 . S
C245 H306 0.980 . S
C246 C247 1.349 . S
C246 C251 1.367 . S
C246 O293 1.408 . S
C247 C246 1.349 . S
C247 C248 1.407 . S
C247 H310 0.930 . S
C248 C247 1.407 . S
C248 C249 1.449 . S
C248 C252 1.535 . S
C249 C248 1.449 . S
C249 C250 1.384 . S
C249 C274 1.553 . S
C250 C249 1.384 . S
C250 C251 1.364 . S
C250 C253 1.450 . S
C251 C246 1.367 . S
C251 C250 1.364 . S
C251 H311 0.931 . S
C252 C248 1.535 . S
C252 H312 0.959 . S
C252 H313 0.961 . S
C252 H314 0.959 . S
C253 C250 1.450 . S
C253 H315 0.960 . S
C253 H316 0.960 . S
C253 H317 0.960 . S
C254 C255 1.309 . S
C254 C259 1.304 . S
C254 O292 1.435 . S
C255 C254 1.309 . S
C255 C256 1.476 . S
C255 H319 0.930 . S
C256 C255 1.476 . S
C256 C257 1.400 . S
C256 C260 1.567 . S
C257 C256 1.400 . S
C257 C258 1.373 . S
C257 C279 1.432 . S
C258 C257 1.373 . S
C258 C259 1.339 . S
C258 C261 1.530 . S
C259 C254 1.304 . S
C259 C258 1.339 . S
C259 H320 0.930 . S
C260 C256 1.567 . S
C260 H321 0.961 . S
C260 H322 0.960 . S
C260 H323 0.958 . S
C261 C258 1.530 . S
C261 H324 0.961 . S
C261 H325 0.960 . S
C261 H326 0.960 . S
C262 C263 1.530 . S
C262 H328 0.961 . S
C262 H329 0.961 . S
C262 H330 0.959 . S
C263 C262 1.530 . S
C263 O291 1.412 . S
C263 H327 0.980 . S
C264 C265 1.288 . S
C264 C269 1.377 . S
C264 O291 1.393 . S
C265 C264 1.288 . S
C265 C266 1.369 . S
C265 H331 0.932 . S
C266 C265 1.369 . S
C266 C267 1.398 . S
C266 C270 1.527 . S
C267 C266 1.398 . S
C267 C268 1.380 . S
C267 C281 1.497 . S
C268 C267 1.380 . S
C268 C269 1.383 . S
C268 C271 1.603 . S
C269 C264 1.377 . S
C269 C268 1.383 . S
C269 H332 0.929 . S
C270 C266 1.527 . S
C270 H333 0.961 . S
C270 H334 0.959 . S
C270 H335 0.959 . S
C271 C268 1.603 . S
C271 H336 0.960 . S
C271 H337 0.962 . S
C271 H338 0.961 . S
C272 C239 1.587 . S
C272 C273 1.360 . S
C272 C285 1.412 . S
C273 C272 1.360 . S
C273 C274 1.365 . S
C273 H339 0.929 . S
C274 C249 1.553 . S
C274 C273 1.365 . S
C274 C275 1.404 . S
C275 C274 1.404 . S
C275 C276 1.395 . S
C275 C286 1.451 . S
C276 C275 1.395 . S
C276 C277 1.322 . S
C276 H340 0.930 . S
C277 C276 1.322 . S
C277 C278 1.459 . S
C277 H341 0.929 . S
C278 C277 1.459 . S
C278 C279 1.445 . S
C278 C287 1.395 . S
C279 C257 1.432 . S
C279 C278 1.445 . S
C279 C280 1.370 . S
C280 C279 1.370 . S
C280 C281 1.438 . S
C280 H342 0.930 . S
C281 C267 1.497 . S
C281 C280 1.438 . S
C281 C282 1.360 . S
C282 C281 1.360 . S
C282 C283 1.401 . S
C282 C287 1.446 . S
C283 C282 1.401 . S
C283 C284 1.347 . S
C283 H343 0.929 . S
C284 C283 1.347 . S
C284 C285 1.455 . S
C284 H344 0.930 . S
C285 C272 1.412 . S
C285 C284 1.455 . S
C285 C286 1.331 . S
C286 C275 1.451 . S
C286 C285 1.331 . S
C286 C287 1.497 . S
C287 C278 1.395 . S
C287 C282 1.446 . S
C287 C286 1.497 . S
C288 C289 1.582 . S
C288 H345 0.962 . S
C288 H346 0.959 . S
C288 H347 0.958 . S
C289 C288 1.582 . S
C289 O292 1.458 . S
C289 H318 0.980 . S
O290 C235 1.426 . S
O290 C236 1.334 . S
O291 C263 1.412 . S
O291 C264 1.393 . S
O292 C254 1.435 . S
O292 C289 1.458 . S
O293 C245 1.468 . S
O293 C246 1.408 . S
H294 C235 0.980 . S
H295 C234 0.959 . S
H296 C234 0.959 . S
H297 C234 0.960 . S
H298 C237 0.929 . S
H299 C241 0.929 . S
H300 C242 0.959 . S
H301 C242 0.961 . S
H302 C242 0.961 . S
H303 C243 0.960 . S
H304 C243 0.960 . S
H305 C243 0.961 . S
H306 C245 0.980 . S
H307 C244 0.961 . S
H308 C244 0.960 . S
H309 C244 0.959 . S
H310 C247 0.930 . S
H311 C251 0.931 . S
H312 C252 0.959 . S
H313 C252 0.961 . S
H314 C252 0.959 . S
H315 C253 0.960 . S
H316 C253 0.960 . S
H317 C253 0.960 . S
H318 C289 0.980 . S
H319 C255 0.930 . S
H320 C259 0.930 . S
H321 C260 0.961 . S
H322 C260 0.960 . S
H323 C260 0.958 . S
H324 C261 0.961 . S
H325 C261 0.960 . S
H326 C261 0.960 . S
H327 C263 0.980 . S
H328 C262 0.961 . S
H329 C262 0.961 . S
H330 C262 0.959 . S
H331 C265 0.932 . S
H332 C269 0.929 . S
H333 C270 0.961 . S
H334 C270 0.959 . S
H335 C270 0.959 . S
H336 C271 0.960 . S
H337 C271 0.962 . S
H338 C271 0.961 . S
H339 C273 0.929 . S
H340 C276 0.930 . S
H341 C277 0.929 . S
H342 C280 0.930 . S
H343 C283 0.929 . S
H344 C284 0.930 . S
H345 C288 0.962 . S
H346 C288 0.959 . S
H347 C288 0.958 . S
C348 C349 1.560 . S
C348 H409 0.959 . S
C348 H410 0.959 . S
C348 H411 0.960 . S
C349 C348 1.560 . S
C349 O404 1.426 . S
C349 H408 0.980 . S
C350 C351 1.407 . S
C350 C355 1.418 . S
C350 O404 1.334 . S
C351 C350 1.407 . S
C351 C352 1.360 . S
C351 H412 0.929 . S
C352 C351 1.360 . S
C352 C353 1.401 . S
C352 C356 1.527 . S
C353 C352 1.401 . S
C353 C354 1.405 . S
C353 C386 1.587 . S
C354 C353 1.405 . S
C354 C355 1.332 . S
C354 C357 1.496 . S
C355 C350 1.418 . S
C355 C354 1.332 . S
C355 H413 0.929 . S
C356 C352 1.527 . S
C356 H414 0.959 . S
C356 H415 0.961 . S
C356 H416 0.961 . S
C357 C354 1.496 . S
C357 H417 0.960 . S
C357 H418 0.960 . S
C357 H419 0.961 . S
C358 C359 1.517 . S
C358 H421 0.961 . S
C358 H422 0.960 . S
C358 H423 0.959 . S
C359 C358 1.517 . S
C359 O407 1.468 . S
C359 H420 0.980 . S
C360 C361 1.349 . S
C360 C365 1.367 . S
C360 O407 1.408 . S
C361 C360 1.349 . S
C361 C362 1.407 . S
C361 H424 0.930 . S
C362 C361 1.407 . S
C362 C363 1.449 . S
C362 C366 1.535 . S
C363 C362 1.449 . S
C363 C364 1.384 . S
C363 C388 1.553 . S
C364 C363 1.384 . S
C364 C365 1.364 . S
C364 C367 1.450 . S
C365 C360 1.367 . S
C365 C364 1.364 . S
C365 H425 0.931 . S
C366 C362 1.535 . S
C366 H426 0.959 . S
C366 H427 0.961 . S
C366 H428 0.959 . S
C367 C364 1.450 . S
C367 H429 0.960 . S
C367 H430 0.960 . S
C367 H431 0.960 . S
C368 C369 1.309 . S
C368 C373 1.304 . S
C368 O406 1.435 . S
C369 C368 1.309 . S
C369 C370 1.476 . S
C369 H433 0.930 . S
C370 C369 1.476 . S
C370 C371 1.400 . S
C370 C374 1.567 . S
C371 C370 1.400 . S
C371 C372 1.373 . S
C371 C393 1.432 . S
C372 C371 1.373 . S
C372 C373 1.339 . S
C372 C375 1.530 . S
C373 C368 1.304 . S
C373 C372 1.339 . S
C373 H434 0.930 . S
C374 C370 1.567 . S
C374 H435 0.961 . S
C374 H436 0.960 . S
C374 H437 0.958 . S
C375 C372 1.530 . S
C375 H438 0.961 . S
C375 H439 0.960 . S
C375 H440 0.960 . S
C376 C377 1.530 . S
C376 H442 0.961 . S
C376 H443 0.961 . S
C376 H444 0.959 . S
C377 C376 1.530 . S
C377 O405 1.412 . S
C377 H441 0.980 . S
C378 C379 1.288 . S
C378 C383 1.377 . S
C378 O405 1.393 . S
C379 C378 1.288 . S
C379 C380 1.369 . S
C379 H445 0.932 . S
C380 C379 1.369 . S
C380 C381 1.398 . S
C380 C384 1.527 . S
C381 C380 1.398 . S
C381 C382 1.380 . S
C381 C395 1.497 . S
C382 C381 1.380 . S
C382 C383 1.383 . S
C382 C385 1.603 . S
C383 C378 1.377 . S
C383 C382 1.383 . S
C383 H446 0.929 . S
C384 C380 1.527 . S
C384 H447 0.961 . S
C384 H448 0.959 . S
C384 H449 0.959 . S
C385 C382 1.603 . S
C385 H450 0.960 . S
C385 H451 0.962 . S
C385 H452 0.961 . S
C386 C353 1.587 . S
C386 C387 1.360 . S
C386 C399 1.412 . S
C387 C386 1.360 . S
C387 C388 1.365 . S
C387 H453 0.929 . S
C388 C363 1.553 . S
C388 C387 1.365 . S
C388 C389 1.404 . S
C389 C388 1.404 . S
C389 C390 1.395 . S
C389 C400 1.451 . S
C390 C389 1.395 . S
C390 C391 1.322 . S
C390 H454 0.930 . S
C391 C390 1.322 . S
C391 C392 1.459 . S
C391 H455 0.929 . S
C392 C391 1.459 . S
C392 C393 1.445 . S
C392 C401 1.395 . S
C393 C371 1.432 . S
C393 C392 1.445 . S
C393 C394 1.370 . S
C394 C393 1.370 . S
C394 C395 1.438 . S
C394 H456 0.930 . S
C395 C381 1.497 . S
C395 C394 1.438 . S
C395 C396 1.360 . S
C396 C395 1.360 . S
C396 C397 1.401 . S
C396 C401 1.446 . S
C397 C396 1.401 . S
C397 C398 1.347 . S
C397 H457 0.929 . S
C398 C397 1.347 . S
C398 C399 1.455 . S
C398 H458 0.930 . S
C399 C386 1.412 . S
C399 C398 1.455 . S
C399 C400 1.331 . S
C400 C389 1.451 . S
C400 C399 1.331 . S
C400 C401 1.497 . S
C401 C392 1.395 . S
C401 C396 1.446 . S
C401 C400 1.497 . S
C402 C403 1.582 . S
C402 H459 0.962 . S
C402 H460 0.959 . S
C402 H461 0.958 . S
C403 C402 1.582 . S
C403 O406 1.458 . S
C403 H432 0.980 . S
O404 C349 1.426 . S
O404 C350 1.334 . S
O405 C377 1.412 . S
O405 C378 1.393 . S
O406 C368 1.435 . S
O406 C403 1.458 . S
O407 C359 1.468 . S
O407 C360 1.408 . S
H408 C349 0.980 . S
H409 C348 0.959 . S
H410 C348 0.959 . S
H411 C348 0.960 . S
H412 C351 0.929 . S
H413 C355 0.929 . S
H414 C356 0.959 . S
H415 C356 0.961 . S
H416 C356 0.961 . S
H417 C357 0.960 . S
H418 C357 0.960 . S
H419 C357 0.961 . S
H420 C359 0.980 . S
H421 C358 0.961 . S
H422 C358 0.960 . S
H423 C358 0.959 . S
H424 C361 0.930 . S
H425 C365 0.931 . S
H426 C366 0.959 . S
H427 C366 0.961 . S
H428 C366 0.959 . S
H429 C367 0.960 . S
H430 C367 0.960 . S
H431 C367 0.960 . S
H432 C403 0.980 . S
H433 C369 0.930 . S
H434 C373 0.930 . S
H435 C374 0.961 . S
H436 C374 0.960 . S
H437 C374 0.958 . S
H438 C375 0.961 . S
H439 C375 0.960 . S
H440 C375 0.960 . S
H441 C377 0.980 . S
H442 C376 0.961 . S
H443 C376 0.961 . S
H444 C376 0.959 . S
H445 C379 0.932 . S
H446 C383 0.929 . S
H447 C384 0.961 . S
H448 C384 0.959 . S
H449 C384 0.959 . S
H450 C385 0.960 . S
H451 C385 0.962 . S
H452 C385 0.961 . S
H453 C387 0.929 . S
H454 C390 0.930 . S
H455 C391 0.929 . S
H456 C394 0.930 . S
H457 C397 0.929 . S
H458 C398 0.930 . S
H459 C402 0.962 . S
H460 C402 0.959 . S
H461 C402 0.958 . S
C462 C463 1.560 . S
C462 H523 0.959 . S
C462 H524 0.959 . S
C462 H525 0.960 . S
C463 C462 1.560 . S
C463 O518 1.426 . S
C463 H522 0.980 . S
C464 C465 1.407 . S
C464 C469 1.418 . S
C464 O518 1.334 . S
C465 C464 1.407 . S
C465 C466 1.360 . S
C465 H526 0.929 . S
C466 C465 1.360 . S
C466 C467 1.401 . S
C466 C470 1.527 . S
C467 C466 1.401 . S
C467 C468 1.405 . S
C467 C500 1.587 . S
C468 C467 1.405 . S
C468 C469 1.332 . S
C468 C471 1.496 . S
C469 C464 1.418 . S
C469 C468 1.332 . S
C469 H527 0.929 . S
C470 C466 1.527 . S
C470 H528 0.959 . S
C470 H529 0.961 . S
C470 H530 0.961 . S
C471 C468 1.496 . S
C471 H531 0.960 . S
C471 H532 0.960 . S
C471 H533 0.961 . S
C472 C473 1.517 . S
C472 H535 0.961 . S
C472 H536 0.960 . S
C472 H537 0.959 . S
C473 C472 1.517 . S
C473 O521 1.468 . S
C473 H534 0.980 . S
C474 C475 1.349 . S
C474 C479 1.367 . S
C474 O521 1.408 . S
C475 C474 1.349 . S
C475 C476 1.407 . S
C475 H538 0.930 . S
C476 C475 1.407 . S
C476 C477 1.449 . S
C476 C480 1.535 . S
C477 C476 1.449 . S
C477 C478 1.384 . S
C477 C502 1.553 . S
C478 C477 1.384 . S
C478 C479 1.364 . S
C478 C481 1.450 . S
C479 C474 1.367 . S
C479 C478 1.364 . S
C479 H539 0.931 . S
C480 C476 1.535 . S
C480 H540 0.959 . S
C480 H541 0.961 . S
C480 H542 0.959 . S
C481 C478 1.450 . S
C481 H543 0.960 . S
C481 H544 0.960 . S
C481 H545 0.960 . S
C482 C483 1.309 . S
C482 C487 1.304 . S
C482 O520 1.435 . S
C483 C482 1.309 . S
C483 C484 1.476 . S
C483 H547 0.930 . S
C484 C483 1.476 . S
C484 C485 1.400 . S
C484 C488 1.567 . S
C485 C484 1.400 . S
C485 C486 1.373 . S
C485 C507 1.432 . S
C486 C485 1.373 . S
C486 C487 1.339 . S
C486 C489 1.530 . S
C487 C482 1.304 . S
C487 C486 1.339 . S
C487 H548 0.930 . S
C488 C484 1.567 . S
C488 H549 0.961 . S
C488 H550 0.960 . S
C488 H551 0.958 . S
C489 C486 1.530 . S
C489 H552 0.961 . S
C489 H553 0.960 . S
C489 H554 0.960 . S
C490 C491 1.530 . S
C490 H556 0.961 . S
C490 H557 0.961 . S
C490 H558 0.959 . S
C491 C490 1.530 . S
C491 O519 1.412 . S
C491 H555 0.980 . S
C492 C493 1.288 . S
C492 C497 1.377 . S
C492 O519 1.393 . S
C493 C492 1.288 . S
C493 C494 1.369 . S
C493 H559 0.932 . S
C494 C493 1.369 . S
C494 C495 1.398 . S
C494 C498 1.527 . S
C495 C494 1.398 . S
C495 C496 1.380 . S
C495 C509 1.497 . S
C496 C495 1.380 . S
C496 C497 1.383 . S
C496 C499 1.603 . S
C497 C492 1.377 . S
C497 C496 1.383 . S
C497 H560 0.929 . S
C498 C494 1.527 . S
C498 H561 0.961 . S
C498 H562 0.959 . S
C498 H563 0.959 . S
C499 C496 1.603 . S
C499 H564 0.960 . S
C499 H565 0.962 . S
C499 H566 0.961 . S
C500 C467 1.587 . S
C500 C501 1.360 . S
C500 C513 1.412 . S
C501 C500 1.360 . S
C501 C502 1.365 . S
C501 H567 0.929 . S
C502 C477 1.553 . S
C502 C501 1.365 . S
C502 C503 1.404 . S
C503 C502 1.404 . S
C503 C504 1.395 . S
C503 C514 1.451 . S
C504 C503 1.395 . S
C504 C505 1.322 . S
C504 H568 0.930 . S
C505 C504 1.322 . S
C505 C506 1.459 . S
C505 H569 0.929 . S
C506 C505 1.459 . S
C506 C507 1.445 . S
C506 C515 1.395 . S
C507 C485 1.432 . S
C507 C506 1.445 . S
C507 C508 1.370 . S
C508 C507 1.370 . S
C508 C509 1.438 . S
C508 H570 0.930 . S
C509 C495 1.497 . S
C509 C508 1.438 . S
C509 C510 1.360 . S
C510 C509 1.360 . S
C510 C511 1.401 . S
C510 C515 1.446 . S
C511 C510 1.401 . S
C511 C512 1.347 . S
C511 H571 0.929 . S
C512 C511 1.347 . S
C512 C513 1.455 . S
C512 H572 0.930 . S
C513 C500 1.412 . S
C513 C512 1.455 . S
C513 C514 1.331 . S
C514 C503 1.451 . S
C514 C513 1.331 . S
C514 C515 1.497 . S
C515 C506 1.395 . S
C515 C510 1.446 . S
C515 C514 1.497 . S
C516 C517 1.582 . S
C516 H573 0.962 . S
C516 H574 0.959 . S
C516 H575 0.958 . S
C517 C516 1.582 . S
C517 O520 1.458 . S
C517 H546 0.980 . S
O518 C463 1.426 . S
O518 C464 1.334 . S
O519 C491 1.412 . S
O519 C492 1.393 . S
O520 C482 1.435 . S
O520 C517 1.458 . S
O521 C473 1.468 . S
O521 C474 1.408 . S
H522 C463 0.980 . S
H523 C462 0.959 . S
H524 C462 0.959 . S
H525 C462 0.960 . S
H526 C465 0.929 . S
H527 C469 0.929 . S
H528 C470 0.959 . S
H529 C470 0.961 . S
H530 C470 0.961 . S
H531 C471 0.960 . S
H532 C471 0.960 . S
H533 C471 0.961 . S
H534 C473 0.980 . S
H535 C472 0.961 . S
H536 C472 0.960 . S
H537 C472 0.959 . S
H538 C475 0.930 . S
H539 C479 0.931 . S
H540 C480 0.959 . S
H541 C480 0.961 . S
H542 C480 0.959 . S
H543 C481 0.960 . S
H544 C481 0.960 . S
H545 C481 0.960 . S
H546 C517 0.980 . S
H547 C483 0.930 . S
H548 C487 0.930 . S
H549 C488 0.961 . S
H550 C488 0.960 . S
H551 C488 0.958 . S
H552 C489 0.961 . S
H553 C489 0.960 . S
H554 C489 0.960 . S
H555 C491 0.980 . S
H556 C490 0.961 . S
H557 C490 0.961 . S
H558 C490 0.959 . S
H559 C493 0.932 . S
H560 C497 0.929 . S
H561 C498 0.961 . S
H562 C498 0.959 . S
H563 C498 0.959 . S
H564 C499 0.960 . S
H565 C499 0.962 . S
H566 C499 0.961 . S
H567 C501 0.929 . S
H568 C504 0.930 . S
H569 C505 0.929 . S
H570 C508 0.930 . S
H571 C511 0.929 . S
H572 C512 0.930 . S
H573 C516 0.962 . S
H574 C516 0.959 . S
H575 C516 0.958 . S
C576 C577 1.560 . S
C576 H637 0.959 . S
C576 H638 0.959 . S
C576 H639 0.960 . S
C577 C576 1.560 . S
C577 O632 1.426 . S
C577 H636 0.980 . S
C578 C579 1.407 . S
C578 C583 1.418 . S
C578 O632 1.334 . S
C579 C578 1.407 . S
C579 C580 1.360 . S
C579 H640 0.929 . S
C580 C579 1.360 . S
C580 C581 1.401 . S
C580 C584 1.527 . S
C581 C580 1.401 . S
C581 C582 1.405 . S
C581 C614 1.587 . S
C582 C581 1.405 . S
C582 C583 1.332 . S
C582 C585 1.496 . S
C583 C578 1.418 . S
C583 C582 1.332 . S
C583 H641 0.929 . S
C584 C580 1.527 . S
C584 H642 0.959 . S
C584 H643 0.961 . S
C584 H644 0.961 . S
C585 C582 1.496 . S
C585 H645 0.960 . S
C585 H646 0.960 . S
C585 H647 0.961 . S
C586 C587 1.517 . S
C586 H649 0.961 . S
C586 H650 0.960 . S
C586 H651 0.959 . S
C587 C586 1.517 . S
C587 O635 1.468 . S
C587 H648 0.980 . S
C588 C589 1.349 . S
C588 C593 1.367 . S
C588 O635 1.408 . S
C589 C588 1.349 . S
C589 C590 1.407 . S
C589 H652 0.930 . S
C590 C589 1.407 . S
C590 C591 1.449 . S
C590 C594 1.535 . S
C591 C590 1.449 . S
C591 C592 1.384 . S
C591 C616 1.553 . S
C592 C591 1.384 . S
C592 C593 1.364 . S
C592 C595 1.450 . S
C593 C588 1.367 . S
C593 C592 1.364 . S
C593 H653 0.931 . S
C594 C590 1.535 . S
C594 H654 0.959 . S
C594 H655 0.961 . S
C594 H656 0.959 . S
C595 C592 1.450 . S
C595 H657 0.960 . S
C595 H658 0.960 . S
C595 H659 0.960 . S
C596 C597 1.309 . S
C596 C601 1.304 . S
C596 O634 1.435 . S
C597 C596 1.309 . S
C597 C598 1.476 . S
C597 H661 0.930 . S
C598 C597 1.476 . S
C598 C599 1.400 . S
C598 C602 1.567 . S
C599 C598 1.400 . S
C599 C600 1.373 . S
C599 C621 1.432 . S
C600 C599 1.373 . S
C600 C601 1.339 . S
C600 C603 1.530 . S
C601 C596 1.304 . S
C601 C600 1.339 . S
C601 H662 0.930 . S
C602 C598 1.567 . S
C602 H663 0.961 . S
C602 H664 0.960 . S
C602 H665 0.958 . S
C603 C600 1.530 . S
C603 H666 0.961 . S
C603 H667 0.960 . S
C603 H668 0.960 . S
C604 C605 1.530 . S
C604 H670 0.961 . S
C604 H671 0.961 . S
C604 H672 0.959 . S
C605 C604 1.530 . S
C605 O633 1.412 . S
C605 H669 0.980 . S
C606 C607 1.288 . S
C606 C611 1.377 . S
C606 O633 1.393 . S
C607 C606 1.288 . S
C607 C608 1.369 . S
C607 H673 0.932 . S
C608 C607 1.369 . S
C608 C609 1.398 . S
C608 C612 1.527 . S
C609 C608 1.398 . S
C609 C610 1.380 . S
C609 C623 1.497 . S
C610 C609 1.380 . S
C610 C611 1.383 . S
C610 C613 1.603 . S
C611 C606 1.377 . S
C611 C610 1.383 . S
C611 H674 0.929 . S
C612 C608 1.527 . S
C612 H675 0.961 . S
C612 H676 0.959 . S
C612 H677 0.959 . S
C613 C610 1.603 . S
C613 H678 0.960 . S
C613 H679 0.962 . S
C613 H680 0.961 . S
C614 C581 1.587 . S
C614 C615 1.360 . S
C614 C627 1.412 . S
C615 C614 1.360 . S
C615 C616 1.365 . S
C615 H681 0.929 . S
C616 C591 1.553 . S
C616 C615 1.365 . S
C616 C617 1.404 . S
C617 C616 1.404 . S
C617 C618 1.395 . S
C617 C628 1.451 . S
C618 C617 1.395 . S
C618 C619 1.322 . S
C618 H682 0.930 . S
C619 C618 1.322 . S
C619 C620 1.459 . S
C619 H683 0.929 . S
C620 C619 1.459 . S
C620 C621 1.445 . S
C620 C629 1.395 . S
C621 C599 1.432 . S
C621 C620 1.445 . S
C621 C622 1.370 . S
C622 C621 1.370 . S
C622 C623 1.438 . S
C622 H684 0.930 . S
C623 C609 1.497 . S
C623 C622 1.438 . S
C623 C624 1.360 . S
C624 C623 1.360 . S
C624 C625 1.401 . S
C624 C629 1.446 . S
C625 C624 1.401 . S
C625 C626 1.347 . S
C625 H685 0.929 . S
C626 C625 1.347 . S
C626 C627 1.455 . S
C626 H686 0.930 . S
C627 C614 1.412 . S
C627 C626 1.455 . S
C627 C628 1.331 . S
C628 C617 1.451 . S
C628 C627 1.331 . S
C628 C629 1.497 . S
C629 C620 1.395 . S
C629 C624 1.446 . S
C629 C628 1.497 . S
C630 C631 1.582 . S
C630 H687 0.962 . S
C630 H688 0.959 . S
C630 H689 0.958 . S
C631 C630 1.582 . S
C631 O634 1.458 . S
C631 H660 0.980 . S
O632 C577 1.426 . S
O632 C578 1.334 . S
O633 C605 1.412 . S
O633 C606 1.393 . S
O634 C596 1.435 . S
O634 C631 1.458 . S
O635 C587 1.468 . S
O635 C588 1.408 . S
H636 C577 0.980 . S
H637 C576 0.959 . S
H638 C576 0.959 . S
H639 C576 0.960 . S
H640 C579 0.929 . S
H641 C583 0.929 . S
H642 C584 0.959 . S
H643 C584 0.961 . S
H644 C584 0.961 . S
H645 C585 0.960 . S
H646 C585 0.960 . S
H647 C585 0.961 . S
H648 C587 0.980 . S
H649 C586 0.961 . S
H650 C586 0.960 . S
H651 C586 0.959 . S
H652 C589 0.930 . S
H653 C593 0.931 . S
H654 C594 0.959 . S
H655 C594 0.961 . S
H656 C594 0.959 . S
H657 C595 0.960 . S
H658 C595 0.960 . S
H659 C595 0.960 . S
H660 C631 0.980 . S
H661 C597 0.930 . S
H662 C601 0.930 . S
H663 C602 0.961 . S
H664 C602 0.960 . S
H665 C602 0.958 . S
H666 C603 0.961 . S
H667 C603 0.960 . S
H668 C603 0.960 . S
H669 C605 0.980 . S
H670 C604 0.961 . S
H671 C604 0.961 . S
H672 C604 0.959 . S
H673 C607 0.932 . S
H674 C611 0.929 . S
H675 C612 0.961 . S
H676 C612 0.959 . S
H677 C612 0.959 . S
H678 C613 0.960 . S
H679 C613 0.962 . S
H680 C613 0.961 . S
H681 C615 0.929 . S
H682 C618 0.930 . S
H683 C619 0.929 . S
H684 C622 0.930 . S
H685 C625 0.929 . S
H686 C626 0.930 . S
H687 C630 0.962 . S
H688 C630 0.959 . S
H689 C630 0.958 . S
C690 C691 1.560 . S
C690 H751 0.959 . S
C690 H752 0.959 . S
C690 H753 0.960 . S
C691 C690 1.560 . S
C691 O746 1.426 . S
C691 H750 0.980 . S
C692 C693 1.407 . S
C692 C697 1.418 . S
C692 O746 1.334 . S
C693 C692 1.407 . S
C693 C694 1.360 . S
C693 H754 0.929 . S
C694 C693 1.360 . S
C694 C695 1.401 . S
C694 C698 1.527 . S
C695 C694 1.401 . S
C695 C696 1.405 . S
C695 C728 1.587 . S
C696 C695 1.405 . S
C696 C697 1.332 . S
C696 C699 1.496 . S
C697 C692 1.418 . S
C697 C696 1.332 . S
C697 H755 0.929 . S
C698 C694 1.527 . S
C698 H756 0.959 . S
C698 H757 0.961 . S
C698 H758 0.961 . S
C699 C696 1.496 . S
C699 H759 0.960 . S
C699 H760 0.960 . S
C699 H761 0.961 . S
C700 C701 1.517 . S
C700 H763 0.961 . S
C700 H764 0.960 . S
C700 H765 0.959 . S
C701 C700 1.517 . S
C701 O749 1.468 . S
C701 H762 0.980 . S
C702 C703 1.349 . S
C702 C707 1.367 . S
C702 O749 1.408 . S
C703 C702 1.349 . S
C703 C704 1.407 . S
C703 H766 0.930 . S
C704 C703 1.407 . S
C704 C705 1.449 . S
C704 C708 1.535 . S
C705 C704 1.449 . S
C705 C706 1.384 . S
C705 C730 1.553 . S
C706 C705 1.384 . S
C706 C707 1.364 . S
C706 C709 1.450 . S
C707 C702 1.367 . S
C707 C706 1.364 . S
C707 H767 0.931 . S
C708 C704 1.535 . S
C708 H768 0.959 . S
C708 H769 0.961 . S
C708 H770 0.959 . S
C709 C706 1.450 . S
C709 H771 0.960 . S
C709 H772 0.960 . S
C709 H773 0.960 . S
C710 C711 1.309 . S
C710 C715 1.304 . S
C710 O748 1.435 . S
C711 C710 1.309 . S
C711 C712 1.476 . S
C711 H775 0.930 . S
C712 C711 1.476 . S
C712 C713 1.400 . S
C712 C716 1.567 . S
C713 C712 1.400 . S
C713 C714 1.373 . S
C713 C735 1.432 . S
C714 C713 1.373 . S
C714 C715 1.339 . S
C714 C717 1.530 . S
C715 C710 1.304 . S
C715 C714 1.339 . S
C715 H776 0.930 . S
C716 C712 1.567 . S
C716 H777 0.961 . S
C716 H778 0.960 . S
C716 H779 0.958 . S
C717 C714 1.530 . S
C717 H780 0.961 . S
C717 H781 0.960 . S
C717 H782 0.960 . S
C718 C719 1.530 . S
C718 H784 0.961 . S
C718 H785 0.961 . S
C718 H786 0.959 . S
C719 C718 1.530 . S
C719 O747 1.412 . S
C719 H783 0.980 . S
C720 C721 1.288 . S
C720 C725 1.377 . S
C720 O747 1.393 . S
C721 C720 1.288 . S
C721 C722 1.369 . S
C721 H787 0.932 . S
C722 C721 1.369 . S
C722 C723 1.398 . S
C722 C726 1.527 . S
C723 C722 1.398 . S
C723 C724 1.380 . S
C723 C737 1.497 . S
C724 C723 1.380 . S
C724 C725 1.383 . S
C724 C727 1.603 . S
C725 C720 1.377 . S
C725 C724 1.383 . S
C725 H788 0.929 . S
C726 C722 1.527 . S
C726 H789 0.961 . S
C726 H790 0.959 . S
C726 H791 0.959 . S
C727 C724 1.603 . S
C727 H792 0.960 . S
C727 H793 0.962 . S
C727 H794 0.961 . S
C728 C695 1.587 . S
C728 C729 1.360 . S
C728 C741 1.412 . S
C729 C728 1.360 . S
C729 C730 1.365 . S
C729 H795 0.929 . S
C730 C705 1.553 . S
C730 C729 1.365 . S
C730 C731 1.404 . S
C731 C730 1.404 . S
C731 C732 1.395 . S
C731 C742 1.451 . S
C732 C731 1.395 . S
C732 C733 1.322 . S
C732 H796 0.930 . S
C733 C732 1.322 . S
C733 C734 1.459 . S
C733 H797 0.929 . S
C734 C733 1.459 . S
C734 C735 1.445 . S
C734 C743 1.395 . S
C735 C713 1.432 . S
C735 C734 1.445 . S
C735 C736 1.370 . S
C736 C735 1.370 . S
C736 C737 1.438 . S
C736 H798 0.930 . S
C737 C723 1.497 . S
C737 C736 1.438 . S
C737 C738 1.360 . S
C738 C737 1.360 . S
C738 C739 1.401 . S
C738 C743 1.446 . S
C739 C738 1.401 . S
C739 C740 1.347 . S
C739 H799 0.929 . S
C740 C739 1.347 . S
C740 C741 1.455 . S
C740 H800 0.930 . S
C741 C728 1.412 . S
C741 C740 1.455 . S
C741 C742 1.331 . S
C742 C731 1.451 . S
C742 C741 1.331 . S
C742 C743 1.497 . S
C743 C734 1.395 . S
C743 C738 1.446 . S
C743 C742 1.497 . S
C744 C745 1.582 . S
C744 H801 0.962 . S
C744 H802 0.959 . S
C744 H803 0.958 . S
C745 C744 1.582 . S
C745 O748 1.458 . S
C745 H774 0.980 . S
O746 C691 1.426 . S
O746 C692 1.334 . S
O747 C719 1.412 . S
O747 C720 1.393 . S
O748 C710 1.435 . S
O748 C745 1.458 . S
O749 C701 1.468 . S
O749 C702 1.408 . S
H750 C691 0.980 . S
H751 C690 0.959 . S
H752 C690 0.959 . S
H753 C690 0.960 . S
H754 C693 0.929 . S
H755 C697 0.929 . S
H756 C698 0.959 . S
H757 C698 0.961 . S
H758 C698 0.961 . S
H759 C699 0.960 . S
H760 C699 0.960 . S
H761 C699 0.961 . S
H762 C701 0.980 . S
H763 C700 0.961 . S
H764 C700 0.960 . S
H765 C700 0.959 . S
H766 C703 0.930 . S
H767 C707 0.931 . S
H768 C708 0.959 . S
H769 C708 0.961 . S
H770 C708 0.959 . S
H771 C709 0.960 . S
H772 C709 0.960 . S
H773 C709 0.960 . S
H774 C745 0.980 . S
H775 C711 0.930 . S
H776 C715 0.930 . S
H777 C716 0.961 . S
H778 C716 0.960 . S
H779 C716 0.958 . S
H780 C717 0.961 . S
H781 C717 0.960 . S
H782 C717 0.960 . S
H783 C719 0.980 . S
H784 C718 0.961 . S
H785 C718 0.961 . S
H786 C718 0.959 . S
H787 C721 0.932 . S
H788 C725 0.929 . S
H789 C726 0.961 . S
H790 C726 0.959 . S
H791 C726 0.959 . S
H792 C727 0.960 . S
H793 C727 0.962 . S
H794 C727 0.961 . S
H795 C729 0.929 . S
H796 C732 0.930 . S
H797 C733 0.929 . S
H798 C736 0.930 . S
H799 C739 0.929 . S
H800 C740 0.930 . S
H801 C744 0.962 . S
H802 C744 0.959 . S
H803 C744 0.958 . S
C804 C805 1.560 . S
C804 H865 0.959 . S
C804 H866 0.959 . S
C804 H867 0.960 . S
C805 C804 1.560 . S
C805 O860 1.426 . S
C805 H864 0.980 . S
C806 C807 1.407 . S
C806 C811 1.418 . S
C806 O860 1.334 . S
C807 C806 1.407 . S
C807 C808 1.360 . S
C807 H868 0.929 . S
C808 C807 1.360 . S
C808 C809 1.401 . S
C808 C812 1.527 . S
C809 C808 1.401 . S
C809 C810 1.405 . S
C809 C842 1.587 . S
C810 C809 1.405 . S
C810 C811 1.332 . S
C810 C813 1.496 . S
C811 C806 1.418 . S
C811 C810 1.332 . S
C811 H869 0.929 . S
C812 C808 1.527 . S
C812 H870 0.959 . S
C812 H871 0.961 . S
C812 H872 0.961 . S
C813 C810 1.496 . S
C813 H873 0.960 . S
C813 H874 0.960 . S
C813 H875 0.961 . S
C814 C815 1.517 . S
C814 H877 0.961 . S
C814 H878 0.960 . S
C814 H879 0.959 . S
C815 C814 1.517 . S
C815 O863 1.468 . S
C815 H876 0.980 . S
C816 C817 1.349 . S
C816 C821 1.367 . S
C816 O863 1.408 . S
C817 C816 1.349 . S
C817 C818 1.407 . S
C817 H880 0.930 . S
C818 C817 1.407 . S
C818 C819 1.449 . S
C818 C822 1.535 . S
C819 C818 1.449 . S
C819 C820 1.384 . S
C819 C844 1.553 . S
C820 C819 1.384 . S
C820 C821 1.364 . S
C820 C823 1.450 . S
C821 C816 1.367 . S
C821 C820 1.364 . S
C821 H881 0.931 . S
C822 C818 1.535 . S
C822 H882 0.959 . S
C822 H883 0.961 . S
C822 H884 0.959 . S
C823 C820 1.450 . S
C823 H885 0.960 . S
C823 H886 0.960 . S
C823 H887 0.960 . S
C824 C825 1.309 . S
C824 C829 1.304 . S
C824 O862 1.435 . S
C825 C824 1.309 . S
C825 C826 1.476 . S
C825 H889 0.930 . S
C826 C825 1.476 . S
C826 C827 1.400 . S
C826 C830 1.567 . S
C827 C826 1.400 . S
C827 C828 1.373 . S
C827 C849 1.432 . S
C828 C827 1.373 . S
C828 C829 1.339 . S
C828 C831 1.530 . S
C829 C824 1.304 . S
C829 C828 1.339 . S
C829 H890 0.930 . S
C830 C826 1.567 . S
C830 H891 0.961 . S
C830 H892 0.960 . S
C830 H893 0.958 . S
C831 C828 1.530 . S
C831 H894 0.961 . S
C831 H895 0.960 . S
C831 H896 0.960 . S
C832 C833 1.530 . S
C832 H898 0.961 . S
C832 H899 0.961 . S
C832 H900 0.959 . S
C833 C832 1.530 . S
C833 O861 1.412 . S
C833 H897 0.980 . S
C834 C835 1.288 . S
C834 C839 1.377 . S
C834 O861 1.393 . S
C835 C834 1.288 . S
C835 C836 1.369 . S
C835 H901 0.932 . S
C836 C835 1.369 . S
C836 C837 1.398 . S
C836 C840 1.527 . S
C837 C836 1.398 . S
C837 C838 1.380 . S
C837 C851 1.497 . S
C838 C837 1.380 . S
C838 C839 1.383 . S
C838 C841 1.603 . S
C839 C834 1.377 . S
C839 C838 1.383 . S
C839 H902 0.929 . S
C840 C836 1.527 . S
C840 H903 0.961 . S
C840 H904 0.959 . S
C840 H905 0.959 . S
C841 C838 1.603 . S
C841 H906 0.960 . S
C841 H907 0.962 . S
C841 H908 0.961 . S
C842 C809 1.587 . S
C842 C843 1.360 . S
C842 C855 1.412 . S
C843 C842 1.360 . S
C843 C844 1.365 . S
C843 H909 0.929 . S
C844 C819 1.553 . S
C844 C843 1.365 . S
C844 C845 1.404 . S
C845 C844 1.404 . S
C845 C846 1.395 . S
C845 C856 1.451 . S
C846 C845 1.395 . S
C846 C847 1.322 . S
C846 H910 0.930 . S
C847 C846 1.322 . S
C847 C848 1.459 . S
C847 H911 0.929 . S
C848 C847 1.459 . S
C848 C849 1.445 . S
C848 C857 1.395 . S
C849 C827 1.432 . S
C849 C848 1.445 . S
C849 C850 1.370 . S
C850 C849 1.370 . S
C850 C851 1.438 . S
C850 H912 0.930 . S
C851 C837 1.497 . S
C851 C850 1.438 . S
C851 C852 1.360 . S
C852 C851 1.360 . S
C852 C853 1.401 . S
C852 C857 1.446 . S
C853 C852 1.401 . S
C853 C854 1.347 . S
C853 H913 0.929 . S
C854 C853 1.347 . S
C854 C855 1.455 . S
C854 H914 0.930 . S
C855 C842 1.412 . S
C855 C854 1.455 . S
C855 C856 1.331 . S
C856 C845 1.451 . S
C856 C855 1.331 . S
C856 C857 1.497 . S
C857 C848 1.395 . S
C857 C852 1.446 . S
C857 C856 1.497 . S
C858 C859 1.582 . S
C858 H915 0.962 . S
C858 H916 0.959 . S
C858 H917 0.958 . S
C859 C858 1.582 . S
C859 O862 1.458 . S
C859 H888 0.980 . S
O860 C805 1.426 . S
O860 C806 1.334 . S
O861 C833 1.412 . S
O861 C834 1.393 . S
O862 C824 1.435 . S
O862 C859 1.458 . S
O863 C815 1.468 . S
O863 C816 1.408 . S
H864 C805 0.980 . S
H865 C804 0.959 . S
H866 C804 0.959 . S
H867 C804 0.960 . S
H868 C807 0.929 . S
H869 C811 0.929 . S
H870 C812 0.959 . S
H871 C812 0.961 . S
H872 C812 0.961 . S
H873 C813 0.960 . S
H874 C813 0.960 . S
H875 C813 0.961 . S
H876 C815 0.980 . S
H877 C814 0.961 . S
H878 C814 0.960 . S
H879 C814 0.959 . S
H880 C817 0.930 . S
H881 C821 0.931 . S
H882 C822 0.959 . S
H883 C822 0.961 . S
H884 C822 0.959 . S
H885 C823 0.960 . S
H886 C823 0.960 . S
H887 C823 0.960 . S
H888 C859 0.980 . S
H889 C825 0.930 . S
H890 C829 0.930 . S
H891 C830 0.961 . S
H892 C830 0.960 . S
H893 C830 0.958 . S
H894 C831 0.961 . S
H895 C831 0.960 . S
H896 C831 0.960 . S
H897 C833 0.980 . S
H898 C832 0.961 . S
H899 C832 0.961 . S
H900 C832 0.959 . S
H901 C835 0.932 . S
H902 C839 0.929 . S
H903 C840 0.961 . S
H904 C840 0.959 . S
H905 C840 0.959 . S
H906 C841 0.960 . S
H907 C841 0.962 . S
H908 C841 0.961 . S
H909 C843 0.929 . S
H910 C846 0.930 . S
H911 C847 0.929 . S
H912 C850 0.930 . S
H913 C853 0.929 . S
H914 C854 0.930 . S
H915 C858 0.962 . S
H916 C858 0.959 . S
H917 C858 0.958 . S
C918 C919 1.560 . S
C918 H979 0.959 . S
C918 H980 0.959 . S
C918 H981 0.960 . S
C919 C918 1.560 . S
C919 O974 1.426 . S
C919 H978 0.980 . S
C920 C921 1.407 . S
C920 C925 1.418 . S
C920 O974 1.334 . S
C921 C920 1.407 . S
C921 C922 1.360 . S
C921 H982 0.929 . S
C922 C921 1.360 . S
C922 C923 1.401 . S
C922 C926 1.527 . S
C923 C922 1.401 . S
C923 C924 1.405 . S
C923 C956 1.587 . S
C924 C923 1.405 . S
C924 C925 1.332 . S
C924 C927 1.496 . S
C925 C920 1.418 . S
C925 C924 1.332 . S
C925 H983 0.929 . S
C926 C922 1.527 . S
C926 H984 0.959 . S
C926 H985 0.961 . S
C926 H986 0.961 . S
C927 C924 1.496 . S
C927 H987 0.960 . S
C927 H988 0.960 . S
C927 H989 0.961 . S
C928 C929 1.517 . S
C928 H991 0.961 . S
C928 H992 0.960 . S
C928 H993 0.959 . S
C929 C928 1.517 . S
C929 O977 1.468 . S
C929 H990 0.980 . S
C930 C931 1.349 . S
C930 C935 1.367 . S
C930 O977 1.408 . S
C931 C930 1.349 . S
C931 C932 1.407 . S
C931 H994 0.930 . S
C932 C931 1.407 . S
C932 C933 1.449 . S
C932 C936 1.535 . S
C933 C932 1.449 . S
C933 C934 1.384 . S
C933 C958 1.553 . S
C934 C933 1.384 . S
C934 C935 1.364 . S
C934 C937 1.450 . S
C935 C930 1.367 . S
C935 C934 1.364 . S
C935 H995 0.931 . S
C936 C932 1.535 . S
C936 H996 0.959 . S
C936 H997 0.961 . S
C936 H998 0.959 . S
C937 C934 1.450 . S
C937 H999 0.960 . S
C937 H1000 0.960 . S
C937 H1001 0.960 . S
C938 C939 1.309 . S
C938 C943 1.304 . S
C938 O976 1.435 . S
C939 C938 1.309 . S
C939 C940 1.476 . S
C939 H1003 0.930 . S
C940 C939 1.476 . S
C940 C941 1.400 . S
C940 C944 1.567 . S
C941 C940 1.400 . S
C941 C942 1.373 . S
C941 C963 1.432 . S
C942 C941 1.373 . S
C942 C943 1.339 . S
C942 C945 1.530 . S
C943 C938 1.304 . S
C943 C942 1.339 . S
C943 H1004 0.930 . S
C944 C940 1.567 . S
C944 H1005 0.961 . S
C944 H1006 0.960 . S
C944 H1007 0.958 . S
C945 C942 1.530 . S
C945 H1008 0.961 . S
C945 H1009 0.960 . S
C945 H1010 0.960 . S
C946 C947 1.530 . S
C946 H1012 0.961 . S
C946 H1013 0.961 . S
C946 H1014 0.959 . S
C947 C946 1.530 . S
C947 O975 1.412 . S
C947 H1011 0.980 . S
C948 C949 1.288 . S
C948 C953 1.377 . S
C948 O975 1.393 . S
C949 C948 1.288 . S
C949 C950 1.369 . S
C949 H1015 0.932 . S
C950 C949 1.369 . S
C950 C951 1.398 . S
C950 C954 1.527 . S
C951 C950 1.398 . S
C951 C952 1.380 . S
C951 C965 1.497 . S
C952 C951 1.380 . S
C952 C953 1.383 . S
C952 C955 1.603 . S
C953 C948 1.377 . S
C953 C952 1.383 . S
C953 H1016 0.929 . S
C954 C950 1.527 . S
C954 H1017 0.961 . S
C954 H1018 0.959 . S
C954 H1019 0.959 . S
C955 C952 1.603 . S
C955 H1020 0.960 . S
C955 H1021 0.962 . S
C955 H1022 0.961 . S
C956 C923 1.587 . S
C956 C957 1.360 . S
C956 C969 1.412 . S
C957 C956 1.360 . S
C957 C958 1.365 . S
C957 H1023 0.929 . S
C958 C933 1.553 . S
C958 C957 1.365 . S
C958 C959 1.404 . S
C959 C958 1.404 . S
C959 C960 1.395 . S
C959 C970 1.451 . S
C960 C959 1.395 . S
C960 C961 1.322 . S
C960 H1024 0.930 . S
C961 C960 1.322 . S
C961 C962 1.459 . S
C961 H1025 0.929 . S
C962 C961 1.459 . S
C962 C963 1.445 . S
C962 C971 1.395 . S
C963 C941 1.432 . S
C963 C962 1.445 . S
C963 C964 1.370 . S
C964 C963 1.370 . S
C964 C965 1.438 . S
C964 H1026 0.930 . S
C965 C951 1.497 . S
C965 C964 1.438 . S
C965 C966 1.360 . S
C966 C965 1.360 . S
C966 C967 1.401 . S
C966 C971 1.446 . S
C967 C966 1.401 . S
C967 C968 1.347 . S
C967 H1027 0.929 . S
C968 C967 1.347 . S
C968 C969 1.455 . S
C968 H1028 0.930 . S
C969 C956 1.412 . S
C969 C968 1.455 . S
C969 C970 1.331 . S
C970 C959 1.451 . S
C970 C969 1.331 . S
C970 C971 1.497 . S
C971 C962 1.395 . S
C971 C966 1.446 . S
C971 C970 1.497 . S
C972 C973 1.582 . S
C972 H1029 0.962 . S
C972 H1030 0.959 . S
C972 H1031 0.958 . S
C973 C972 1.582 . S
C973 O976 1.458 . S
C973 H1002 0.980 . S
O974 C919 1.426 . S
O974 C920 1.334 . S
O975 C947 1.412 . S
O975 C948 1.393 . S
O976 C938 1.435 . S
O976 C973 1.458 . S
O977 C929 1.468 . S
O977 C930 1.408 . S
H978 C919 0.980 . S
H979 C918 0.959 . S
H980 C918 0.959 . S
H981 C918 0.960 . S
H982 C921 0.929 . S
H983 C925 0.929 . S
H984 C926 0.959 . S
H985 C926 0.961 . S
H986 C926 0.961 . S
H987 C927 0.960 . S
H988 C927 0.960 . S
H989 C927 0.961 . S
H990 C929 0.980 . S
H991 C928 0.961 . S
H992 C928 0.960 . S
H993 C928 0.959 . S
H994 C931 0.930 . S
H995 C935 0.931 . S
H996 C936 0.959 . S
H997 C936 0.961 . S
H998 C936 0.959 . S
H999 C937 0.960 . S
H1000 C937 0.960 . S
H1001 C937 0.960 . S
H1002 C973 0.980 . S
H1003 C939 0.930 . S
H1004 C943 0.930 . S
H1005 C944 0.961 . S
H1006 C944 0.960 . S
H1007 C944 0.958 . S
H1008 C945 0.961 . S
H1009 C945 0.960 . S
H1010 C945 0.960 . S
H1011 C947 0.980 . S
H1012 C946 0.961 . S
H1013 C946 0.961 . S
H1014 C946 0.959 . S
H1015 C949 0.932 . S
H1016 C953 0.929 . S
H1017 C954 0.961 . S
H1018 C954 0.959 . S
H1019 C954 0.959 . S
H1020 C955 0.960 . S
H1021 C955 0.962 . S
H1022 C955 0.961 . S
H1023 C957 0.929 . S
H1024 C960 0.930 . S
H1025 C961 0.929 . S
H1026 C964 0.930 . S
H1027 C967 0.929 . S
H1028 C968 0.930 . S
H1029 C972 0.962 . S
H1030 C972 0.959 . S
H1031 C972 0.958 . S
C1032 C1033 1.560 . S
C1032 H1093 0.959 . S
C1032 H1094 0.959 . S
C1032 H1095 0.960 . S
C1033 C1032 1.560 . S
C1033 O1088 1.426 . S
C1033 H1092 0.980 . S
C1034 C1035 1.407 . S
C1034 C1039 1.418 . S
C1034 O1088 1.334 . S
C1035 C1034 1.407 . S
C1035 C1036 1.360 . S
C1035 H1096 0.929 . S
C1036 C1035 1.360 . S
C1036 C1037 1.401 . S
C1036 C1040 1.527 . S
C1037 C1036 1.401 . S
C1037 C1038 1.405 . S
C1037 C1070 1.587 . S
C1038 C1037 1.405 . S
C1038 C1039 1.332 . S
C1038 C1041 1.496 . S
C1039 C1034 1.418 . S
C1039 C1038 1.332 . S
C1039 H1097 0.929 . S
C1040 C1036 1.527 . S
C1040 H1098 0.959 . S
C1040 H1099 0.961 . S
C1040 H1100 0.961 . S
C1041 C1038 1.496 . S
C1041 H1101 0.960 . S
C1041 H1102 0.960 . S
C1041 H1103 0.961 . S
C1042 C1043 1.517 . S
C1042 H1105 0.961 . S
C1042 H1106 0.960 . S
C1042 H1107 0.959 . S
C1043 C1042 1.517 . S
C1043 O1091 1.468 . S
C1043 H1104 0.980 . S
C1044 C1045 1.349 . S
C1044 C1049 1.367 . S
C1044 O1091 1.408 . S
C1045 C1044 1.349 . S
C1045 C1046 1.407 . S
C1045 H1108 0.930 . S
C1046 C1045 1.407 . S
C1046 C1047 1.449 . S
C1046 C1050 1.535 . S
C1047 C1046 1.449 . S
C1047 C1048 1.384 . S
C1047 C1072 1.553 . S
C1048 C1047 1.384 . S
C1048 C1049 1.364 . S
C1048 C1051 1.450 . S
C1049 C1044 1.367 . S
C1049 C1048 1.364 . S
C1049 H1109 0.931 . S
C1050 C1046 1.535 . S
C1050 H1110 0.959 . S
C1050 H1111 0.961 . S
C1050 H1112 0.959 . S
C1051 C1048 1.450 . S
C1051 H1113 0.960 . S
C1051 H1114 0.960 . S
C1051 H1115 0.960 . S
C1052 C1053 1.309 . S
C1052 C1057 1.304 . S
C1052 O1090 1.435 . S
C1053 C1052 1.309 . S
C1053 C1054 1.476 . S
C1053 H1117 0.930 . S
C1054 C1053 1.476 . S
C1054 C1055 1.400 . S
C1054 C1058 1.567 . S
C1055 C1054 1.400 . S
C1055 C1056 1.373 . S
C1055 C1077 1.432 . S
C1056 C1055 1.373 . S
C1056 C1057 1.339 . S
C1056 C1059 1.530 . S
C1057 C1052 1.304 . S
C1057 C1056 1.339 . S
C1057 H1118 0.930 . S
C1058 C1054 1.567 . S
C1058 H1119 0.961 . S
C1058 H1120 0.960 . S
C1058 H1121 0.958 . S
C1059 C1056 1.530 . S
C1059 H1122 0.961 . S
C1059 H1123 0.960 . S
C1059 H1124 0.960 . S
C1060 C1061 1.530 . S
C1060 H1126 0.961 . S
C1060 H1127 0.961 . S
C1060 H1128 0.959 . S
C1061 C1060 1.530 . S
C1061 O1089 1.412 . S
C1061 H1125 0.980 . S
C1062 C1063 1.288 . S
C1062 C1067 1.377 . S
C1062 O1089 1.393 . S
C1063 C1062 1.288 . S
C1063 C1064 1.369 . S
C1063 H1129 0.932 . S
C1064 C1063 1.369 . S
C1064 C1065 1.398 . S
C1064 C1068 1.527 . S
C1065 C1064 1.398 . S
C1065 C1066 1.380 . S
C1065 C1079 1.497 . S
C1066 C1065 1.380 . S
C1066 C1067 1.383 . S
C1066 C1069 1.603 . S
C1067 C1062 1.377 . S
C1067 C1066 1.383 . S
C1067 H1130 0.929 . S
C1068 C1064 1.527 . S
C1068 H1131 0.961 . S
C1068 H1132 0.959 . S
C1068 H1133 0.959 . S
C1069 C1066 1.603 . S
C1069 H1134 0.960 . S
C1069 H1135 0.962 . S
C1069 H1136 0.961 . S
C1070 C1037 1.587 . S
C1070 C1071 1.360 . S
C1070 C1083 1.412 . S
C1071 C1070 1.360 . S
C1071 C1072 1.365 . S
C1071 H1137 0.929 . S
C1072 C1047 1.553 . S
C1072 C1071 1.365 . S
C1072 C1073 1.404 . S
C1073 C1072 1.404 . S
C1073 C1074 1.395 . S
C1073 C1084 1.451 . S
C1074 C1073 1.395 . S
C1074 C1075 1.322 . S
C1074 H1138 0.930 . S
C1075 C1074 1.322 . S
C1075 C1076 1.459 . S
C1075 H1139 0.929 . S
C1076 C1075 1.459 . S
C1076 C1077 1.445 . S
C1076 C1085 1.395 . S
C1077 C1055 1.432 . S
C1077 C1076 1.445 . S
C1077 C1078 1.370 . S
C1078 C1077 1.370 . S
C1078 C1079 1.438 . S
C1078 H1140 0.930 . S
C1079 C1065 1.497 . S
C1079 C1078 1.438 . S
C1079 C1080 1.360 . S
C1080 C1079 1.360 . S
C1080 C1081 1.401 . S
C1080 C1085 1.446 . S
C1081 C1080 1.401 . S
C1081 C1082 1.347 . S
C1081 H1141 0.929 . S
C1082 C1081 1.347 . S
C1082 C1083 1.455 . S
C1082 H1142 0.930 . S
C1083 C1070 1.412 . S
C1083 C1082 1.455 . S
C1083 C1084 1.331 . S
C1084 C1073 1.451 . S
C1084 C1083 1.331 . S
C1084 C1085 1.497 . S
C1085 C1076 1.395 . S
C1085 C1080 1.446 . S
C1085 C1084 1.497 . S
C1086 C1087 1.582 . S
C1086 H1143 0.962 . S
C1086 H1144 0.959 . S
C1086 H1145 0.958 . S
C1087 C1086 1.582 . S
C1087 O1090 1.458 . S
C1087 H1116 0.980 . S
O1088 C1033 1.426 . S
O1088 C1034 1.334 . S
O1089 C1061 1.412 . S
O1089 C1062 1.393 . S
O1090 C1052 1.435 . S
O1090 C1087 1.458 . S
O1091 C1043 1.468 . S
O1091 C1044 1.408 . S
H1092 C1033 0.980 . S
H1093 C1032 0.959 . S
H1094 C1032 0.959 . S
H1095 C1032 0.960 . S
H1096 C1035 0.929 . S
H1097 C1039 0.929 . S
H1098 C1040 0.959 . S
H1099 C1040 0.961 . S
H1100 C1040 0.961 . S
H1101 C1041 0.960 . S
H1102 C1041 0.960 . S
H1103 C1041 0.961 . S
H1104 C1043 0.980 . S
H1105 C1042 0.961 . S
H1106 C1042 0.960 . S
H1107 C1042 0.959 . S
H1108 C1045 0.930 . S
H1109 C1049 0.931 . S
H1110 C1050 0.959 . S
H1111 C1050 0.961 . S
H1112 C1050 0.959 . S
H1113 C1051 0.960 . S
H1114 C1051 0.960 . S
H1115 C1051 0.960 . S
H1116 C1087 0.980 . S
H1117 C1053 0.930 . S
H1118 C1057 0.930 . S
H1119 C1058 0.961 . S
H1120 C1058 0.960 . S
H1121 C1058 0.958 . S
H1122 C1059 0.961 . S
H1123 C1059 0.960 . S
H1124 C1059 0.960 . S
H1125 C1061 0.980 . S
H1126 C1060 0.961 . S
H1127 C1060 0.961 . S
H1128 C1060 0.959 . S
H1129 C1063 0.932 . S
H1130 C1067 0.929 . S
H1131 C1068 0.961 . S
H1132 C1068 0.959 . S
H1133 C1068 0.959 . S
H1134 C1069 0.960 . S
H1135 C1069 0.962 . S
H1136 C1069 0.961 . S
H1137 C1071 0.929 . S
H1138 C1074 0.930 . S
H1139 C1075 0.929 . S
H1140 C1078 0.930 . S
H1141 C1081 0.929 . S
H1142 C1082 0.930 . S
H1143 C1086 0.962 . S
H1144 C1086 0.959 . S
H1145 C1086 0.958 . S
C1146 C1147 1.560 . S
C1146 H1207 0.959 . S
C1146 H1208 0.959 . S
C1146 H1209 0.960 . S
C1147 C1146 1.560 . S
C1147 O1202 1.426 . S
C1147 H1206 0.980 . S
C1148 C1149 1.407 . S
C1148 C1153 1.418 . S
C1148 O1202 1.334 . S
C1149 C1148 1.407 . S
C1149 C1150 1.360 . S
C1149 H1210 0.929 . S
C1150 C1149 1.360 . S
C1150 C1151 1.401 . S
C1150 C1154 1.527 . S
C1151 C1150 1.401 . S
C1151 C1152 1.405 . S
C1151 C1184 1.587 . S
C1152 C1151 1.405 . S
C1152 C1153 1.332 . S
C1152 C1155 1.496 . S
C1153 C1148 1.418 . S
C1153 C1152 1.332 . S
C1153 H1211 0.929 . S
C1154 C1150 1.527 . S
C1154 H1212 0.959 . S
C1154 H1213 0.961 . S
C1154 H1214 0.961 . S
C1155 C1152 1.496 . S
C1155 H1215 0.960 . S
C1155 H1216 0.960 . S
C1155 H1217 0.961 . S
C1156 C1157 1.517 . S
C1156 H1219 0.961 . S
C1156 H1220 0.960 . S
C1156 H1221 0.959 . S
C1157 C1156 1.517 . S
C1157 O1205 1.468 . S
C1157 H1218 0.980 . S
C1158 C1159 1.349 . S
C1158 C1163 1.367 . S
C1158 O1205 1.408 . S
C1159 C1158 1.349 . S
C1159 C1160 1.407 . S
C1159 H1222 0.930 . S
C1160 C1159 1.407 . S
C1160 C1161 1.449 . S
C1160 C1164 1.535 . S
C1161 C1160 1.449 . S
C1161 C1162 1.384 . S
C1161 C1186 1.553 . S
C1162 C1161 1.384 . S
C1162 C1163 1.364 . S
C1162 C1165 1.450 . S
C1163 C1158 1.367 . S
C1163 C1162 1.364 . S
C1163 H1223 0.931 . S
C1164 C1160 1.535 . S
C1164 H1224 0.959 . S
C1164 H1225 0.961 . S
C1164 H1226 0.959 . S
C1165 C1162 1.450 . S
C1165 H1227 0.960 . S
C1165 H1228 0.960 . S
C1165 H1229 0.960 . S
C1166 C1167 1.309 . S
C1166 C1171 1.304 . S
C1166 O1204 1.435 . S
C1167 C1166 1.309 . S
C1167 C1168 1.476 . S
C1167 H1231 0.930 . S
C1168 C1167 1.476 . S
C1168 C1169 1.400 . S
C1168 C1172 1.567 . S
C1169 C1168 1.400 . S
C1169 C1170 1.373 . S
C1169 C1191 1.432 . S
C1170 C1169 1.373 . S
C1170 C1171 1.339 . S
C1170 C1173 1.530 . S
C1171 C1166 1.304 . S
C1171 C1170 1.339 . S
C1171 H1232 0.930 . S
C1172 C1168 1.567 . S
C1172 H1233 0.961 . S
C1172 H1234 0.960 . S
C1172 H1235 0.958 . S
C1173 C1170 1.530 . S
C1173 H1236 0.961 . S
C1173 H1237 0.960 . S
C1173 H1238 0.960 . S
C1174 C1175 1.530 . S
C1174 H1240 0.961 . S
C1174 H1241 0.961 . S
C1174 H1242 0.959 . S
C1175 C1174 1.530 . S
C1175 O1203 1.412 . S
C1175 H1239 0.980 . S
C1176 C1177 1.288 . S
C1176 C1181 1.377 . S
C1176 O1203 1.393 . S
C1177 C1176 1.288 . S
C1177 C1178 1.369 . S
C1177 H1243 0.932 . S
C1178 C1177 1.369 . S
C1178 C1179 1.398 . S
C1178 C1182 1.527 . S
C1179 C1178 1.398 . S
C1179 C1180 1.380 . S
C1179 C1193 1.497 . S
C1180 C1179 1.380 . S
C1180 C1181 1.383 . S
C1180 C1183 1.603 . S
C1181 C1176 1.377 . S
C1181 C1180 1.383 . S
C1181 H1244 0.929 . S
C1182 C1178 1.527 . S
C1182 H1245 0.961 . S
C1182 H1246 0.959 . S
C1182 H1247 0.959 . S
C1183 C1180 1.603 . S
C1183 H1248 0.960 . S
C1183 H1249 0.962 . S
C1183 H1250 0.961 . S
C1184 C1151 1.587 . S
C1184 C1185 1.360 . S
C1184 C1197 1.412 . S
C1185 C1184 1.360 . S
C1185 C1186 1.365 . S
C1185 H1251 0.929 . S
C1186 C1161 1.553 . S
C1186 C1185 1.365 . S
C1186 C1187 1.404 . S
C1187 C1186 1.404 . S
C1187 C1188 1.395 . S
C1187 C1198 1.451 . S
C1188 C1187 1.395 . S
C1188 C1189 1.322 . S
C1188 H1252 0.930 . S
C1189 C1188 1.322 . S
C1189 C1190 1.459 . S
C1189 H1253 0.929 . S
C1190 C1189 1.459 . S
C1190 C1191 1.445 . S
C1190 C1199 1.395 . S
C1191 C1169 1.432 . S
C1191 C1190 1.445 . S
C1191 C1192 1.370 . S
C1192 C1191 1.370 . S
C1192 C1193 1.438 . S
C1192 H1254 0.930 . S
C1193 C1179 1.497 . S
C1193 C1192 1.438 . S
C1193 C1194 1.360 . S
C1194 C1193 1.360 . S
C1194 C1195 1.401 . S
C1194 C1199 1.446 . S
C1195 C1194 1.401 . S
C1195 C1196 1.347 . S
C1195 H1255 0.929 . S
C1196 C1195 1.347 . S
C1196 C1197 1.455 . S
C1196 H1256 0.930 . S
C1197 C1184 1.412 . S
C1197 C1196 1.455 . S
C1197 C1198 1.331 . S
C1198 C1187 1.451 . S
C1198 C1197 1.331 . S
C1198 C1199 1.497 . S
C1199 C1190 1.395 . S
C1199 C1194 1.446 . S
C1199 C1198 1.497 . S
C1200 C1201 1.582 . S
C1200 H1257 0.962 . S
C1200 H1258 0.959 . S
C1200 H1259 0.958 . S
C1201 C1200 1.582 . S
C1201 O1204 1.458 . S
C1201 H1230 0.980 . S
O1202 C1147 1.426 . S
O1202 C1148 1.334 . S
O1203 C1175 1.412 . S
O1203 C1176 1.393 . S
O1204 C1166 1.435 . S
O1204 C1201 1.458 . S
O1205 C1157 1.468 . S
O1205 C1158 1.408 . S
H1206 C1147 0.980 . S
H1207 C1146 0.959 . S
H1208 C1146 0.959 . S
H1209 C1146 0.960 . S
H1210 C1149 0.929 . S
H1211 C1153 0.929 . S
H1212 C1154 0.959 . S
H1213 C1154 0.961 . S
H1214 C1154 0.961 . S
H1215 C1155 0.960 . S
H1216 C1155 0.960 . S
H1217 C1155 0.961 . S
H1218 C1157 0.980 . S
H1219 C1156 0.961 . S
H1220 C1156 0.960 . S
H1221 C1156 0.959 . S
H1222 C1159 0.930 . S
H1223 C1163 0.931 . S
H1224 C1164 0.959 . S
H1225 C1164 0.961 . S
H1226 C1164 0.959 . S
H1227 C1165 0.960 . S
H1228 C1165 0.960 . S
H1229 C1165 0.960 . S
H1230 C1201 0.980 . S
H1231 C1167 0.930 . S
H1232 C1171 0.930 . S
H1233 C1172 0.961 . S
H1234 C1172 0.960 . S
H1235 C1172 0.958 . S
H1236 C1173 0.961 . S
H1237 C1173 0.960 . S
H1238 C1173 0.960 . S
H1239 C1175 0.980 . S
H1240 C1174 0.961 . S
H1241 C1174 0.961 . S
H1242 C1174 0.959 . S
H1243 C1177 0.932 . S
H1244 C1181 0.929 . S
H1245 C1182 0.961 . S
H1246 C1182 0.959 . S
H1247 C1182 0.959 . S
H1248 C1183 0.960 . S
H1249 C1183 0.962 . S
H1250 C1183 0.961 . S
H1251 C1185 0.929 . S
H1252 C1188 0.930 . S
H1253 C1189 0.929 . S
H1254 C1192 0.930 . S
H1255 C1195 0.929 . S
H1256 C1196 0.930 . S
H1257 C1200 0.962 . S
H1258 C1200 0.959 . S
H1259 C1200 0.958 . S
C1260 C1261 1.560 . S
C1260 H1321 0.959 . S
C1260 H1322 0.959 . S
C1260 H1323 0.960 . S
C1261 C1260 1.560 . S
C1261 O1316 1.426 . S
C1261 H1320 0.980 . S
C1262 C1263 1.407 1_455 S
C1262 C1267 1.418 . S
C1262 O1316 1.334 . S
C1263 C1262 1.407 1_655 S
C1263 C1264 1.360 . S
C1263 H1324 0.929 . S
C1264 C1263 1.360 . S
C1264 C1265 1.401 1_655 S
C1264 C1268 1.527 . S
C1265 C1264 1.401 1_455 S
C1265 C1266 1.405 . S
C1265 C1298 1.587 1_455 S
C1266 C1265 1.405 . S
C1266 C1267 1.332 . S
C1266 C1269 1.496 . S
C1267 C1262 1.418 . S
C1267 C1266 1.332 . S
C1267 H1325 0.929 . S
C1268 C1264 1.527 . S
C1268 H1326 0.959 . S
C1268 H1327 0.961 . S
C1268 H1328 0.961 . S
C1269 C1266 1.496 . S
C1269 H1329 0.960 . S
C1269 H1330 0.960 . S
C1269 H1331 0.961 . S
C1270 C1271 1.517 . S
C1270 H1333 0.959 1_655 S
C1270 H1334 0.960 . S
C1270 H1335 0.959 . S
C1271 C1270 1.517 . S
C1271 O1319 1.468 . S
C1271 H1332 0.980 1_655 S
C1272 C1273 1.349 . S
C1272 C1277 1.367 . S
C1272 O1319 1.408 . S
C1273 C1272 1.349 . S
C1273 C1274 1.407 1_655 S
C1273 H1336 0.930 1_655 S
C1274 C1273 1.407 1_455 S
C1274 C1275 1.449 1_455 S
C1274 C1278 1.535 . S
C1275 C1274 1.449 1_655 S
C1275 C1276 1.384 . S
C1275 C1300 1.553 . S
C1276 C1275 1.384 . S
C1276 C1277 1.364 . S
C1276 C1279 1.450 . S
C1277 C1272 1.367 . S
C1277 C1276 1.364 . S
C1277 H1337 0.931 . S
C1278 C1274 1.535 . S
C1278 H1338 0.959 . S
C1278 H1339 0.961 . S
C1278 H1340 0.959 . S
C1279 C1276 1.450 . S
C1279 H1341 0.960 . S
C1279 H1342 0.960 . S
C1279 H1343 0.960 . S
C1280 C1281 1.309 . S
C1280 C1285 1.304 . S
C1280 O1318 1.435 . S
C1281 C1280 1.309 . S
C1281 C1282 1.467 1_655 S
C1281 H1345 0.930 1_655 S
C1282 C1281 1.467 1_455 S
C1282 C1283 1.394 1_455 S
C1282 C1286 1.581 . S
C1283 C1282 1.394 1_655 S
C1283 C1284 1.373 . S
C1283 C1305 1.432 . S
C1284 C1283 1.373 . S
C1284 C1285 1.339 . S
C1284 C1287 1.530 . S
C1285 C1280 1.304 . S
C1285 C1284 1.339 . S
C1285 H1346 0.930 . S
C1286 C1282 1.581 . S
C1286 H1347 0.961 . S
C1286 H1348 0.960 . S
C1286 H1349 0.958 . S
C1287 C1284 1.530 . S
C1287 H1350 0.961 . S
C1287 H1351 0.960 . S
C1287 H1352 0.960 . S
C1288 C1289 1.476 1_455 S
C1288 H1354 0.961 . S
C1288 H1355 0.961 . S
C1288 H1356 0.959 . S
C1289 C1288 1.476 1_655 S
C1289 O1317 1.401 1_655 S
C1289 H1353 0.998 . S
C1290 C1291 1.288 . S
C1290 C1295 1.377 1_455 S
C1290 O1317 1.393 . S
C1291 C1290 1.288 . S
C1291 C1292 1.369 . S
C1291 H1357 0.932 . S
C1292 C1291 1.369 . S
C1292 C1293 1.398 1_455 S
C1292 C1296 1.527 . S
C1293 C1292 1.398 1_655 S
C1293 C1294 1.380 . S
C1293 C1307 1.497 . S
C1294 C1293 1.380 . S
C1294 C1295 1.383 . S
C1294 C1297 1.603 . S
C1295 C1290 1.377 1_655 S
C1295 C1294 1.383 . S
C1295 H1358 0.929 . S
C1296 C1292 1.527 . S
C1296 H1359 0.961 . S
C1296 H1360 0.959 . S
C1296 H1361 0.959 . S
C1297 C1294 1.603 . S
C1297 H1362 0.960 . S
C1297 H1363 0.962 . S
C1297 H1364 0.961 . S
C1298 C1265 1.587 1_655 S
C1298 C1299 1.360 . S
C1298 C1311 1.412 . S
C1299 C1298 1.360 . S
C1299 C1300 1.365 . S
C1299 H1365 0.929 . S
C1300 C1275 1.553 . S
C1300 C1299 1.365 . S
C1300 C1301 1.404 . S
C1301 C1300 1.404 . S
C1301 C1302 1.395 . S
C1301 C1312 1.451 . S
C1302 C1301 1.395 . S
C1302 C1303 1.322 . S
C1302 H1366 0.930 . S
C1303 C1302 1.322 . S
C1303 C1304 1.459 . S
C1303 H1367 0.929 . S
C1304 C1303 1.459 . S
C1304 C1305 1.445 . S
C1304 C1313 1.395 . S
C1305 C1283 1.432 . S
C1305 C1304 1.445 . S
C1305 C1306 1.370 . S
C1306 C1305 1.370 . S
C1306 C1307 1.438 . S
C1306 H1368 0.930 . S
C1307 C1293 1.497 . S
C1307 C1306 1.438 . S
C1307 C1308 1.360 . S
C1308 C1307 1.360 . S
C1308 C1309 1.401 . S
C1308 C1313 1.446 . S
C1309 C1308 1.401 . S
C1309 C1310 1.347 . S
C1309 H1369 0.929 . S
C1310 C1309 1.347 . S
C1310 C1311 1.455 . S
C1310 H1370 0.930 . S
C1311 C1298 1.412 . S
C1311 C1310 1.455 . S
C1311 C1312 1.331 . S
C1312 C1301 1.451 . S
C1312 C1311 1.331 . S
C1312 C1313 1.497 . S
C1313 C1304 1.395 . S
C1313 C1308 1.446 . S
C1313 C1312 1.497 . S
C1314 C1315 1.582 . S
C1314 H1371 0.962 . S
C1314 H1372 0.959 . S
C1314 H1373 0.958 . S
C1315 C1314 1.582 . S
C1315 O1318 1.458 . S
C1315 H1344 0.980 . S
O1316 C1261 1.426 . S
O1316 C1262 1.334 . S
O1317 C1289 1.401 1_455 S
O1317 C1290 1.393 . S
O1318 C1280 1.435 . S
O1318 C1315 1.458 . S
O1319 C1271 1.468 . S
O1319 C1272 1.408 . S
H1320 C1261 0.980 . S
H1321 C1260 0.959 . S
H1322 C1260 0.959 . S
H1323 C1260 0.960 . S
H1324 C1263 0.929 . S
H1325 C1267 0.929 . S
H1326 C1268 0.959 . S
H1327 C1268 0.961 . S
H1328 C1268 0.961 . S
H1329 C1269 0.960 . S
H1330 C1269 0.960 . S
H1331 C1269 0.961 . S
H1332 C1271 0.980 1_455 S
H1333 C1270 0.959 1_455 S
H1334 C1270 0.960 . S
H1335 C1270 0.959 . S
H1336 C1273 0.930 1_455 S
H1337 C1277 0.931 . S
H1338 C1278 0.959 . S
H1339 C1278 0.961 . S
H1340 C1278 0.959 . S
H1341 C1279 0.960 . S
H1342 C1279 0.960 . S
H1343 C1279 0.960 . S
H1344 C1315 0.980 . S
H1345 C1281 0.930 1_455 S
H1346 C1285 0.930 . S
H1347 C1286 0.961 . S
H1348 C1286 0.960 . S
H1349 C1286 0.958 . S
H1350 C1287 0.961 . S
H1351 C1287 0.960 . S
H1352 C1287 0.960 . S
H1353 C1289 0.998 . S
H1354 C1288 0.961 . S
H1355 C1288 0.961 . S
H1356 C1288 0.959 . S
H1357 C1291 0.932 . S
H1358 C1295 0.929 . S
H1359 C1296 0.961 . S
H1360 C1296 0.959 . S
H1361 C1296 0.959 . S
H1362 C1297 0.960 . S
H1363 C1297 0.962 . S
H1364 C1297 0.961 . S
H1365 C1299 0.929 . S
H1366 C1302 0.930 . S
H1367 C1303 0.929 . S
H1368 C1306 0.930 . S
H1369 C1309 0.929 . S
H1370 C1310 0.930 . S
H1371 C1314 0.962 . S
H1372 C1314 0.959 . S
H1373 C1314 0.958 . S
C1374 C1375 1.560 . S
C1374 H1435 0.959 . S
C1374 H1436 0.959 . S
C1374 H1437 0.960 . S
C1375 C1374 1.560 . S
C1375 O1430 1.426 . S
C1375 H1434 0.980 . S
C1376 C1377 1.407 . S
C1376 C1381 1.418 . S
C1376 O1430 1.334 . S
C1377 C1376 1.407 . S
C1377 C1378 1.360 . S
C1377 H1438 0.929 . S
C1378 C1377 1.360 . S
C1378 C1379 1.401 . S
C1378 C1382 1.527 . S
C1379 C1378 1.401 . S
C1379 C1380 1.405 . S
C1379 C1412 1.587 . S
C1380 C1379 1.405 . S
C1380 C1381 1.332 . S
C1380 C1383 1.496 . S
C1381 C1376 1.418 . S
C1381 C1380 1.332 . S
C1381 H1439 0.929 . S
C1382 C1378 1.527 . S
C1382 H1440 0.959 . S
C1382 H1441 0.961 . S
C1382 H1442 0.961 . S
C1383 C1380 1.496 . S
C1383 H1443 0.960 . S
C1383 H1444 0.960 . S
C1383 H1445 0.961 . S
C1384 C1385 1.517 . S
C1384 H1447 0.961 . S
C1384 H1448 0.960 . S
C1384 H1449 0.959 . S
C1385 C1384 1.517 . S
C1385 O1433 1.468 . S
C1385 H1446 0.980 . S
C1386 C1387 1.349 . S
C1386 C1391 1.367 . S
C1386 O1433 1.408 . S
C1387 C1386 1.349 . S
C1387 C1388 1.407 . S
C1387 H1450 0.930 . S
C1388 C1387 1.407 . S
C1388 C1389 1.449 . S
C1388 C1392 1.535 . S
C1389 C1388 1.449 . S
C1389 C1390 1.384 . S
C1389 C1414 1.553 . S
C1390 C1389 1.384 . S
C1390 C1391 1.364 . S
C1390 C1393 1.450 . S
C1391 C1386 1.367 . S
C1391 C1390 1.364 . S
C1391 H1451 0.931 . S
C1392 C1388 1.535 . S
C1392 H1452 0.959 . S
C1392 H1453 0.961 . S
C1392 H1454 0.959 . S
C1393 C1390 1.450 . S
C1393 H1455 0.960 . S
C1393 H1456 0.960 . S
C1393 H1457 0.960 . S
C1394 C1395 1.309 . S
C1394 C1399 1.304 . S
C1394 O1432 1.435 . S
C1395 C1394 1.309 . S
C1395 C1396 1.476 . S
C1395 H1459 0.930 . S
C1396 C1395 1.476 . S
C1396 C1397 1.400 . S
C1396 C1400 1.567 . S
C1397 C1396 1.400 . S
C1397 C1398 1.373 . S
C1397 C1419 1.432 . S
C1398 C1397 1.373 . S
C1398 C1399 1.339 . S
C1398 C1401 1.530 . S
C1399 C1394 1.304 . S
C1399 C1398 1.339 . S
C1399 H1460 0.930 . S
C1400 C1396 1.567 . S
C1400 H1461 0.961 . S
C1400 H1462 0.960 . S
C1400 H1463 0.958 . S
C1401 C1398 1.530 . S
C1401 H1464 0.961 . S
C1401 H1465 0.960 . S
C1401 H1466 0.960 . S
C1402 C1403 1.530 . S
C1402 H1468 0.961 . S
C1402 H1469 0.961 . S
C1402 H1470 0.959 . S
C1403 C1402 1.530 . S
C1403 O1431 1.412 . S
C1403 H1467 0.980 . S
C1404 C1405 1.288 . S
C1404 C1409 1.377 . S
C1404 O1431 1.393 . S
C1405 C1404 1.288 . S
C1405 C1406 1.369 . S
C1405 H1471 0.932 . S
C1406 C1405 1.369 . S
C1406 C1407 1.398 . S
C1406 C1410 1.527 . S
C1407 C1406 1.398 . S
C1407 C1408 1.380 . S
C1407 C1421 1.497 . S
C1408 C1407 1.380 . S
C1408 C1409 1.383 . S
C1408 C1411 1.603 . S
C1409 C1404 1.377 . S
C1409 C1408 1.383 . S
C1409 H1472 0.929 . S
C1410 C1406 1.527 . S
C1410 H1473 0.961 . S
C1410 H1474 0.959 . S
C1410 H1475 0.959 . S
C1411 C1408 1.603 . S
C1411 H1476 0.960 . S
C1411 H1477 0.962 . S
C1411 H1478 0.961 . S
C1412 C1379 1.587 . S
C1412 C1413 1.360 . S
C1412 C1425 1.412 . S
C1413 C1412 1.360 . S
C1413 C1414 1.365 . S
C1413 H1479 0.929 . S
C1414 C1389 1.553 . S
C1414 C1413 1.365 . S
C1414 C1415 1.404 . S
C1415 C1414 1.404 . S
C1415 C1416 1.395 . S
C1415 C1426 1.451 . S
C1416 C1415 1.395 . S
C1416 C1417 1.322 . S
C1416 H1480 0.930 . S
C1417 C1416 1.322 . S
C1417 C1418 1.459 . S
C1417 H1481 0.929 . S
C1418 C1417 1.459 . S
C1418 C1419 1.445 . S
C1418 C1427 1.395 . S
C1419 C1397 1.432 . S
C1419 C1418 1.445 . S
C1419 C1420 1.370 . S
C1420 C1419 1.370 . S
C1420 C1421 1.438 . S
C1420 H1482 0.930 . S
C1421 C1407 1.497 . S
C1421 C1420 1.438 . S
C1421 C1422 1.360 . S
C1422 C1421 1.360 . S
C1422 C1423 1.401 . S
C1422 C1427 1.446 . S
C1423 C1422 1.401 . S
C1423 C1424 1.347 . S
C1423 H1483 0.929 . S
C1424 C1423 1.347 . S
C1424 C1425 1.455 . S
C1424 H1484 0.930 . S
C1425 C1412 1.412 . S
C1425 C1424 1.455 . S
C1425 C1426 1.331 . S
C1426 C1415 1.451 . S
C1426 C1425 1.331 . S
C1426 C1427 1.497 . S
C1427 C1418 1.395 . S
C1427 C1422 1.446 . S
C1427 C1426 1.497 . S
C1428 C1429 1.582 . S
C1428 H1485 0.962 . S
C1428 H1486 0.959 . S
C1428 H1487 0.958 . S
C1429 C1428 1.582 . S
C1429 O1432 1.458 . S
C1429 H1458 0.980 . S
O1430 C1375 1.426 . S
O1430 C1376 1.334 . S
O1431 C1403 1.412 . S
O1431 C1404 1.393 . S
O1432 C1394 1.435 . S
O1432 C1429 1.458 . S
O1433 C1385 1.468 . S
O1433 C1386 1.408 . S
H1434 C1375 0.980 . S
H1435 C1374 0.959 . S
H1436 C1374 0.959 . S
H1437 C1374 0.960 . S
H1438 C1377 0.929 . S
H1439 C1381 0.929 . S
H1440 C1382 0.959 . S
H1441 C1382 0.961 . S
H1442 C1382 0.961 . S
H1443 C1383 0.960 . S
H1444 C1383 0.960 . S
H1445 C1383 0.961 . S
H1446 C1385 0.980 . S
H1447 C1384 0.961 . S
H1448 C1384 0.960 . S
H1449 C1384 0.959 . S
H1450 C1387 0.930 . S
H1451 C1391 0.931 . S
H1452 C1392 0.959 . S
H1453 C1392 0.961 . S
H1454 C1392 0.959 . S
H1455 C1393 0.960 . S
H1456 C1393 0.960 . S
H1457 C1393 0.960 . S
H1458 C1429 0.980 . S
H1459 C1395 0.930 . S
H1460 C1399 0.930 . S
H1461 C1400 0.961 . S
H1462 C1400 0.960 . S
H1463 C1400 0.958 . S
H1464 C1401 0.961 . S
H1465 C1401 0.960 . S
H1466 C1401 0.960 . S
H1467 C1403 0.980 . S
H1468 C1402 0.961 . S
H1469 C1402 0.961 . S
H1470 C1402 0.959 . S
H1471 C1405 0.932 . S
H1472 C1409 0.929 . S
H1473 C1410 0.961 . S
H1474 C1410 0.959 . S
H1475 C1410 0.959 . S
H1476 C1411 0.960 . S
H1477 C1411 0.962 . S
H1478 C1411 0.961 . S
H1479 C1413 0.929 . S
H1480 C1416 0.930 . S
H1481 C1417 0.929 . S
H1482 C1420 0.930 . S
H1483 C1423 0.929 . S
H1484 C1424 0.930 . S
H1485 C1428 0.962 . S
H1486 C1428 0.959 . S
H1487 C1428 0.958 . S
C1488 C1489 1.560 . S
C1488 H1549 0.959 . S
C1488 H1550 0.959 . S
C1488 H1551 0.960 . S
C1489 C1488 1.560 . S
C1489 O1544 1.426 . S
C1489 H1548 0.980 . S
C1490 C1491 1.407 1_565 S
C1490 C1495 1.418 . S
C1490 O1544 1.334 . S
C1491 C1490 1.407 1_545 S
C1491 C1492 1.360 . S
C1491 H1552 0.929 . S
C1492 C1491 1.360 . S
C1492 C1493 1.401 1_545 S
C1492 C1496 1.527 . S
C1493 C1492 1.401 1_565 S
C1493 C1494 1.405 . S
C1493 C1526 1.587 1_565 S
C1494 C1493 1.405 . S
C1494 C1495 1.332 . S
C1494 C1497 1.496 . S
C1495 C1490 1.418 . S
C1495 C1494 1.332 . S
C1495 H1553 0.929 . S
C1496 C1492 1.527 . S
C1496 H1554 0.959 . S
C1496 H1555 0.961 . S
C1496 H1556 0.961 . S
C1497 C1494 1.496 . S
C1497 H1557 0.960 . S
C1497 H1558 0.960 . S
C1497 H1559 0.961 . S
C1498 C1499 1.517 . S
C1498 H1561 0.906 1_545 S
C1498 H1562 0.960 . S
C1498 H1563 0.959 . S
C1499 C1498 1.517 . S
C1499 O1547 1.468 . S
C1499 H1560 0.980 1_545 S
C1500 C1501 1.349 . S
C1500 C1505 1.367 . S
C1500 O1547 1.408 . S
C1501 C1500 1.349 . S
C1501 C1502 1.407 1_545 S
C1501 H1564 0.930 1_545 S
C1502 C1501 1.407 1_565 S
C1502 C1503 1.449 1_565 S
C1502 C1506 1.535 . S
C1503 C1502 1.449 1_545 S
C1503 C1504 1.384 . S
C1503 C1528 1.553 . S
C1504 C1503 1.384 . S
C1504 C1505 1.364 . S
C1504 C1507 1.450 . S
C1505 C1500 1.367 . S
C1505 C1504 1.364 . S
C1505 H1565 0.931 . S
C1506 C1502 1.535 . S
C1506 H1566 0.959 . S
C1506 H1567 0.961 . S
C1506 H1568 0.959 . S
C1507 C1504 1.450 . S
C1507 H1569 0.960 . S
C1507 H1570 0.960 . S
C1507 H1571 0.960 . S
C1508 C1509 1.309 . S
C1508 C1513 1.304 . S
C1508 O1546 1.435 . S
C1509 C1508 1.309 . S
C1509 C1510 1.490 1_545 S
C1509 H1573 0.930 1_545 S
C1510 C1509 1.490 1_565 S
C1510 C1511 1.353 1_565 S
C1510 C1514 1.599 . S
C1511 C1510 1.353 1_545 S
C1511 C1512 1.373 . S
C1511 C1533 1.432 . S
C1512 C1511 1.373 . S
C1512 C1513 1.339 . S
C1512 C1515 1.530 . S
C1513 C1508 1.304 . S
C1513 C1512 1.339 . S
C1513 H1574 0.930 . S
C1514 C1510 1.599 . S
C1514 H1575 0.961 . S
C1514 H1576 0.960 . S
C1514 H1577 0.958 . S
C1515 C1512 1.530 . S
C1515 H1578 0.961 . S
C1515 H1579 0.960 . S
C1515 H1580 0.960 . S
C1516 C1517 1.530 1_565 S
C1516 H1582 0.961 . S
C1516 H1583 0.961 . S
C1516 H1584 0.959 . S
C1517 C1516 1.530 1_545 S
C1517 O1545 1.412 1_545 S
C1517 H1581 0.980 . S
C1518 C1519 1.288 . S
C1518 C1523 1.377 1_565 S
C1518 O1545 1.393 . S
C1519 C1518 1.288 . S
C1519 C1520 1.369 . S
C1519 H1585 0.932 . S
C1520 C1519 1.369 . S
C1520 C1521 1.398 1_565 S
C1520 C1524 1.527 . S
C1521 C1520 1.398 1_545 S
C1521 C1522 1.380 . S
C1521 C1535 1.497 . S
C1522 C1521 1.380 . S
C1522 C1523 1.383 . S
C1522 C1525 1.603 . S
C1523 C1518 1.377 1_545 S
C1523 C1522 1.383 . S
C1523 H1586 0.929 . S
C1524 C1520 1.527 . S
C1524 H1587 0.961 . S
C1524 H1588 0.959 . S
C1524 H1589 0.959 . S
C1525 C1522 1.603 . S
C1525 H1590 0.960 . S
C1525 H1591 0.962 . S
C1525 H1592 0.961 . S
C1526 C1493 1.587 1_545 S
C1526 C1527 1.360 . S
C1526 C1539 1.412 . S
C1527 C1526 1.360 . S
C1527 C1528 1.365 . S
C1527 H1593 0.929 . S
C1528 C1503 1.553 . S
C1528 C1527 1.365 . S
C1528 C1529 1.404 . S
C1529 C1528 1.404 . S
C1529 C1530 1.395 . S
C1529 C1540 1.451 . S
C1530 C1529 1.395 . S
C1530 C1531 1.322 . S
C1530 H1594 0.930 . S
C1531 C1530 1.322 . S
C1531 C1532 1.459 . S
C1531 H1595 0.929 . S
C1532 C1531 1.459 . S
C1532 C1533 1.445 . S
C1532 C1541 1.395 . S
C1533 C1511 1.432 . S
C1533 C1532 1.445 . S
C1533 C1534 1.370 . S
C1534 C1533 1.370 . S
C1534 C1535 1.438 . S
C1534 H1596 0.930 . S
C1535 C1521 1.497 . S
C1535 C1534 1.438 . S
C1535 C1536 1.360 . S
C1536 C1535 1.360 . S
C1536 C1537 1.401 . S
C1536 C1541 1.446 . S
C1537 C1536 1.401 . S
C1537 C1538 1.347 . S
C1537 H1597 0.929 . S
C1538 C1537 1.347 . S
C1538 C1539 1.455 . S
C1538 H1598 0.930 . S
C1539 C1526 1.412 . S
C1539 C1538 1.455 . S
C1539 C1540 1.331 . S
C1540 C1529 1.451 . S
C1540 C1539 1.331 . S
C1540 C1541 1.497 . S
C1541 C1532 1.395 . S
C1541 C1536 1.446 . S
C1541 C1540 1.497 . S
C1542 C1543 1.582 . S
C1542 H1599 0.962 . S
C1542 H1600 0.959 . S
C1542 H1601 0.958 . S
C1543 C1542 1.582 . S
C1543 O1546 1.458 . S
C1543 H1572 0.980 . S
O1544 C1489 1.426 . S
O1544 C1490 1.334 . S
O1545 C1517 1.412 1_565 S
O1545 C1518 1.393 . S
O1546 C1508 1.435 . S
O1546 C1543 1.458 . S
O1547 C1499 1.468 . S
O1547 C1500 1.408 . S
H1548 C1489 0.980 . S
H1549 C1488 0.959 . S
H1550 C1488 0.959 . S
H1551 C1488 0.960 . S
H1552 C1491 0.929 . S
H1553 C1495 0.929 . S
H1554 C1496 0.959 . S
H1555 C1496 0.961 . S
H1556 C1496 0.961 . S
H1557 C1497 0.960 . S
H1558 C1497 0.960 . S
H1559 C1497 0.961 . S
H1560 C1499 0.980 1_565 S
H1561 C1498 0.906 1_565 S
H1562 C1498 0.960 . S
H1563 C1498 0.959 . S
H1564 C1501 0.930 1_565 S
H1565 C1505 0.931 . S
H1566 C1506 0.959 . S
H1567 C1506 0.961 . S
H1568 C1506 0.959 . S
H1569 C1507 0.960 . S
H1570 C1507 0.960 . S
H1571 C1507 0.960 . S
H1572 C1543 0.980 . S
H1573 C1509 0.930 1_565 S
H1574 C1513 0.930 . S
H1575 C1514 0.961 . S
H1576 C1514 0.960 . S
H1577 C1514 0.958 . S
H1578 C1515 0.961 . S
H1579 C1515 0.960 . S
H1580 C1515 0.960 . S
H1581 C1517 0.980 . S
H1582 C1516 0.961 . S
H1583 C1516 0.961 . S
H1584 C1516 0.959 . S
H1585 C1519 0.932 . S
H1586 C1523 0.929 . S
H1587 C1524 0.961 . S
H1588 C1524 0.959 . S
H1589 C1524 0.959 . S
H1590 C1525 0.960 . S
H1591 C1525 0.962 . S
H1592 C1525 0.961 . S
H1593 C1527 0.929 . S
H1594 C1530 0.930 . S
H1595 C1531 0.929 . S
H1596 C1534 0.930 . S
H1597 C1537 0.929 . S
H1598 C1538 0.930 . S
H1599 C1542 0.962 . S
H1600 C1542 0.959 . S
H1601 C1542 0.958 . S
C1602 C1603 1.560 . S
C1602 H1663 0.959 . S
C1602 H1664 0.959 . S
C1602 H1665 0.960 . S
C1603 C1602 1.560 . S
C1603 O1658 1.426 . S
C1603 H1662 0.980 1_565 S
C1604 C1605 1.407 1_565 S
C1604 C1609 1.418 . S
C1604 O1658 1.334 . S
C1605 C1604 1.407 1_545 S
C1605 C1606 1.360 . S
C1605 H1666 0.929 . S
C1606 C1605 1.360 . S
C1606 C1607 1.401 . S
C1606 C1610 1.527 . S
C1607 C1606 1.401 . S
C1607 C1608 1.405 1_545 S
C1607 C1640 1.587 . S
C1608 C1607 1.405 1_565 S
C1608 C1609 1.332 . S
C1608 C1611 1.496 . S
C1609 C1604 1.418 . S
C1609 C1608 1.332 . S
C1609 H1667 0.929 . S
C1610 C1606 1.527 . S
C1610 H1668 0.959 . S
C1610 H1669 0.961 . S
C1610 H1670 0.961 . S
C1611 C1608 1.496 . S
C1611 H1671 0.960 . S
C1611 H1672 0.960 . S
C1611 H1673 0.961 . S
C1612 C1613 1.517 . S
C1612 H1675 0.961 . S
C1612 H1676 0.960 . S
C1612 H1677 0.959 . S
C1613 C1612 1.517 . S
C1613 O1661 1.468 . S
C1613 H1674 0.980 . S
C1614 C1615 1.349 . S
C1614 C1619 1.367 . S
C1614 O1661 1.408 . S
C1615 C1614 1.349 . S
C1615 C1616 1.407 . S
C1615 H1678 0.927 1_545 S
C1616 C1615 1.407 . S
C1616 C1617 1.449 . S
C1616 C1620 1.535 1_545 S
C1617 C1616 1.449 . S
C1617 C1618 1.384 . S
C1617 C1642 1.553 . S
C1618 C1617 1.384 . S
C1618 C1619 1.364 . S
C1618 C1621 1.450 . S
C1619 C1614 1.367 . S
C1619 C1618 1.364 . S
C1619 H1679 0.931 . S
C1620 C1616 1.535 1_565 S
C1620 H1680 0.959 . S
C1620 H1681 0.961 . S
C1620 H1682 0.959 . S
C1621 C1618 1.450 . S
C1621 H1683 0.960 . S
C1621 H1684 0.960 . S
C1621 H1685 0.960 . S
C1622 C1623 1.309 1_545 S
C1622 C1627 1.304 . S
C1622 O1660 1.435 . S
C1623 C1622 1.309 1_565 S
C1623 C1624 1.476 . S
C1623 H1687 0.930 . S
C1624 C1623 1.476 . S
C1624 C1625 1.400 1_565 S
C1624 C1628 1.567 . S
C1625 C1624 1.400 1_545 S
C1625 C1626 1.373 . S
C1625 C1647 1.432 . S
C1626 C1625 1.373 . S
C1626 C1627 1.339 . S
C1626 C1629 1.530 . S
C1627 C1622 1.304 . S
C1627 C1626 1.339 . S
C1627 H1688 0.930 . S
C1628 C1624 1.567 . S
C1628 H1689 0.961 . S
C1628 H1690 0.960 . S
C1628 H1691 0.958 . S
C1629 C1626 1.530 . S
C1629 H1692 0.961 . S
C1629 H1693 0.960 . S
C1629 H1694 0.960 . S
C1630 C1631 1.530 . S
C1630 H1696 0.961 . S
C1630 H1697 0.961 . S
C1630 H1698 0.959 . S
C1631 C1630 1.530 . S
C1631 O1659 1.412 . S
C1631 H1695 0.996 . S
C1632 C1633 1.288 . S
C1632 C1637 1.377 1_565 S
C1632 O1659 1.393 . S
C1633 C1632 1.288 . S
C1633 C1634 1.369 . S
C1633 H1699 0.932 . S
C1634 C1633 1.369 . S
C1634 C1635 1.398 . S
C1634 C1638 1.527 . S
C1635 C1634 1.398 . S
C1635 C1636 1.380 1_565 S
C1635 C1649 1.497 1_565 S
C1636 C1635 1.380 1_545 S
C1636 C1637 1.383 . S
C1636 C1639 1.603 . S
C1637 C1632 1.377 1_545 S
C1637 C1636 1.383 . S
C1637 H1700 0.929 . S
C1638 C1634 1.527 . S
C1638 H1701 0.961 . S
C1638 H1702 0.959 . S
C1638 H1703 0.959 . S
C1639 C1636 1.603 . S
C1639 H1704 0.960 . S
C1639 H1705 0.962 . S
C1639 H1706 0.961 . S
C1640 C1607 1.587 . S
C1640 C1641 1.360 . S
C1640 C1653 1.412 . S
C1641 C1640 1.360 . S
C1641 C1642 1.365 . S
C1641 H1707 0.929 . S
C1642 C1617 1.553 . S
C1642 C1641 1.365 . S
C1642 C1643 1.404 . S
C1643 C1642 1.404 . S
C1643 C1644 1.395 . S
C1643 C1654 1.451 . S
C1644 C1643 1.395 . S
C1644 C1645 1.322 . S
C1644 H1708 0.930 . S
C1645 C1644 1.322 . S
C1645 C1646 1.459 . S
C1645 H1709 0.929 . S
C1646 C1645 1.459 . S
C1646 C1647 1.445 . S
C1646 C1655 1.395 . S
C1647 C1625 1.432 . S
C1647 C1646 1.445 . S
C1647 C1648 1.370 . S
C1648 C1647 1.370 . S
C1648 C1649 1.438 . S
C1648 H1710 0.930 . S
C1649 C1635 1.497 1_545 S
C1649 C1648 1.438 . S
C1649 C1650 1.360 . S
C1650 C1649 1.360 . S
C1650 C1651 1.401 . S
C1650 C1655 1.446 . S
C1651 C1650 1.401 . S
C1651 C1652 1.347 . S
C1651 H1711 0.969 . S
C1652 C1651 1.347 . S
C1652 C1653 1.455 . S
C1652 H1712 0.930 . S
C1653 C1640 1.412 . S
C1653 C1652 1.455 . S
C1653 C1654 1.331 . S
C1654 C1643 1.451 . S
C1654 C1653 1.331 . S
C1654 C1655 1.497 . S
C1655 C1646 1.395 . S
C1655 C1650 1.446 . S
C1655 C1654 1.497 . S
C1656 C1657 1.619 . S
C1656 H1713 0.962 . S
C1656 H1714 0.959 . S
C1656 H1715 0.958 . S
C1657 C1656 1.619 . S
C1657 O1660 1.473 . S
C1657 H1686 0.980 1_545 S
O1658 C1603 1.426 . S
O1658 C1604 1.334 . S
O1659 C1631 1.412 . S
O1659 C1632 1.393 . S
O1660 C1622 1.435 . S
O1660 C1657 1.473 . S
O1661 C1613 1.468 . S
O1661 C1614 1.408 . S
H1662 C1603 0.980 1_545 S
H1663 C1602 0.959 . S
H1664 C1602 0.959 . S
H1665 C1602 0.960 . S
H1666 C1605 0.929 . S
H1667 C1609 0.929 . S
H1668 C1610 0.959 . S
H1669 C1610 0.961 . S
H1670 C1610 0.961 . S
H1671 C1611 0.960 . S
H1672 C1611 0.960 . S
H1673 C1611 0.961 . S
H1674 C1613 0.980 . S
H1675 C1612 0.961 . S
H1676 C1612 0.960 . S
H1677 C1612 0.959 . S
H1678 C1615 0.927 1_565 S
H1679 C1619 0.931 . S
H1680 C1620 0.959 . S
H1681 C1620 0.961 . S
H1682 C1620 0.959 . S
H1683 C1621 0.960 . S
H1684 C1621 0.960 . S
H1685 C1621 0.960 . S
H1686 C1657 0.980 1_565 S
H1687 C1623 0.930 . S
H1688 C1627 0.930 . S
H1689 C1628 0.961 . S
H1690 C1628 0.960 . S
H1691 C1628 0.958 . S
H1692 C1629 0.961 . S
H1693 C1629 0.960 . S
H1694 C1629 0.960 . S
H1695 C1631 0.996 . S
H1696 C1630 0.961 . S
H1697 C1630 0.961 . S
H1698 C1630 0.959 . S
H1699 C1633 0.932 . S
H1700 C1637 0.929 . S
H1701 C1638 0.961 . S
H1702 C1638 0.959 . S
H1703 C1638 0.959 . S
H1704 C1639 0.960 . S
H1705 C1639 0.962 . S
H1706 C1639 0.961 . S
H1707 C1641 0.929 . S
H1708 C1644 0.930 . S
H1709 C1645 0.929 . S
H1710 C1648 0.930 . S
H1711 C1651 0.969 . S
H1712 C1652 0.930 . S
H1713 C1656 0.962 . S
H1714 C1656 0.959 . S
H1715 C1656 0.958 . S
C1716 C1717 1.560 . S
C1716 H1777 0.959 . S
C1716 H1778 0.959 . S
C1716 H1779 0.960 . S
C1717 C1716 1.560 . S
C1717 O1772 1.426 . S
C1717 H1776 0.980 1_455 S
C1718 C1719 1.407 1_455 S
C1718 C1723 1.418 . S
C1718 O1772 1.334 . S
C1719 C1718 1.407 1_655 S
C1719 C1720 1.360 . S
C1719 H1780 0.929 . S
C1720 C1719 1.360 . S
C1720 C1721 1.401 . S
C1720 C1724 1.527 . S
C1721 C1720 1.401 . S
C1721 C1722 1.405 1_655 S
C1721 C1754 1.587 . S
C1722 C1721 1.405 1_455 S
C1722 C1723 1.332 . S
C1722 C1725 1.496 . S
C1723 C1718 1.418 . S
C1723 C1722 1.332 . S
C1723 H1781 0.929 . S
C1724 C1720 1.527 . S
C1724 H1782 0.959 . S
C1724 H1783 0.961 . S
C1724 H1784 0.961 . S
C1725 C1722 1.496 . S
C1725 H1785 0.960 . S
C1725 H1786 0.960 . S
C1725 H1787 0.961 . S
C1726 C1727 1.517 . S
C1726 H1789 0.961 . S
C1726 H1790 0.960 . S
C1726 H1791 0.959 . S
C1727 C1726 1.517 . S
C1727 O1775 1.468 . S
C1727 H1788 0.980 . S
C1728 C1729 1.349 . S
C1728 C1733 1.367 . S
C1728 O1775 1.408 . S
C1729 C1728 1.349 . S
C1729 C1730 1.407 . S
C1729 H1792 0.924 1_655 S
C1730 C1729 1.407 . S
C1730 C1731 1.449 . S
C1730 C1734 1.535 1_655 S
C1731 C1730 1.449 . S
C1731 C1732 1.384 . S
C1731 C1756 1.553 . S
C1732 C1731 1.384 . S
C1732 C1733 1.364 . S
C1732 C1735 1.450 . S
C1733 C1728 1.367 . S
C1733 C1732 1.364 . S
C1733 H1793 0.931 . S
C1734 C1730 1.535 1_455 S
C1734 H1794 0.959 . S
C1734 H1795 0.961 . S
C1734 H1796 0.959 . S
C1735 C1732 1.450 . S
C1735 H1797 0.960 . S
C1735 H1798 0.960 . S
C1735 H1799 0.960 . S
C1736 C1737 1.309 1_655 S
C1736 C1741 1.304 . S
C1736 O1774 1.435 . S
C1737 C1736 1.309 1_455 S
C1737 C1738 1.476 . S
C1737 H1801 0.930 . S
C1738 C1737 1.476 . S
C1738 C1739 1.400 1_455 S
C1738 C1742 1.567 . S
C1739 C1738 1.400 1_655 S
C1739 C1740 1.373 . S
C1739 C1761 1.432 . S
C1740 C1739 1.373 . S
C1740 C1741 1.339 . S
C1740 C1743 1.530 . S
C1741 C1736 1.304 . S
C1741 C1740 1.339 . S
C1741 H1802 0.930 . S
C1742 C1738 1.567 . S
C1742 H1803 0.961 . S
C1742 H1804 0.960 . S
C1742 H1805 0.958 . S
C1743 C1740 1.530 . S
C1743 H1806 0.961 . S
C1743 H1807 0.960 . S
C1743 H1808 0.960 . S
C1744 C1745 1.530 . S
C1744 H1810 0.961 . S
C1744 H1811 0.961 . S
C1744 H1812 0.959 . S
C1745 C1744 1.530 . S
C1745 O1773 1.412 . S
C1745 H1809 0.993 . S
C1746 C1747 1.288 . S
C1746 C1751 1.377 1_455 S
C1746 O1773 1.393 . S
C1747 C1746 1.288 . S
C1747 C1748 1.369 . S
C1747 H1813 0.932 . S
C1748 C1747 1.369 . S
C1748 C1749 1.398 . S
C1748 C1752 1.527 . S
C1749 C1748 1.398 . S
C1749 C1750 1.380 1_455 S
C1749 C1763 1.497 1_455 S
C1750 C1749 1.380 1_655 S
C1750 C1751 1.383 . S
C1750 C1753 1.603 . S
C1751 C1746 1.377 1_655 S
C1751 C1750 1.383 . S
C1751 H1814 0.929 . S
C1752 C1748 1.527 . S
C1752 H1815 0.961 . S
C1752 H1816 0.959 . S
C1752 H1817 0.959 . S
C1753 C1750 1.603 . S
C1753 H1818 0.960 . S
C1753 H1819 0.962 . S
C1753 H1820 0.961 . S
C1754 C1721 1.587 . S
C1754 C1755 1.360 . S
C1754 C1767 1.412 . S
C1755 C1754 1.360 . S
C1755 C1756 1.365 . S
C1755 H1821 0.929 . S
C1756 C1731 1.553 . S
C1756 C1755 1.365 . S
C1756 C1757 1.404 . S
C1757 C1756 1.404 . S
C1757 C1758 1.395 . S
C1757 C1768 1.451 . S
C1758 C1757 1.395 . S
C1758 C1759 1.322 . S
C1758 H1822 0.930 . S
C1759 C1758 1.322 . S
C1759 C1760 1.459 . S
C1759 H1823 0.929 . S
C1760 C1759 1.459 . S
C1760 C1761 1.445 . S
C1760 C1769 1.395 . S
C1761 C1739 1.432 . S
C1761 C1760 1.445 . S
C1761 C1762 1.370 . S
C1762 C1761 1.370 . S
C1762 C1763 1.438 . S
C1762 H1824 0.930 . S
C1763 C1749 1.497 1_655 S
C1763 C1762 1.438 . S
C1763 C1764 1.360 . S
C1764 C1763 1.360 . S
C1764 C1765 1.401 . S
C1764 C1769 1.446 . S
C1765 C1764 1.401 . S
C1765 C1766 1.347 . S
C1765 H1825 0.929 . S
C1766 C1765 1.347 . S
C1766 C1767 1.455 . S
C1766 H1826 0.930 . S
C1767 C1754 1.412 . S
C1767 C1766 1.455 . S
C1767 C1768 1.331 . S
C1768 C1757 1.451 . S
C1768 C1767 1.331 . S
C1768 C1769 1.497 . S
C1769 C1760 1.395 . S
C1769 C1764 1.446 . S
C1769 C1768 1.497 . S
C1770 C1771 1.581 1_655 S
C1770 H1827 0.987 . S
C1770 H1828 0.959 . S
C1770 H1829 0.958 . S
C1771 C1770 1.581 1_455 S
C1771 O1774 1.425 1_455 S
C1771 H1800 0.994 . S
O1772 C1717 1.426 . S
O1772 C1718 1.334 . S
O1773 C1745 1.412 . S
O1773 C1746 1.393 . S
O1774 C1736 1.435 . S
O1774 C1771 1.425 1_655 S
O1775 C1727 1.468 . S
O1775 C1728 1.408 . S
H1776 C1717 0.980 1_655 S
H1777 C1716 0.959 . S
H1778 C1716 0.959 . S
H1779 C1716 0.960 . S
H1780 C1719 0.929 . S
H1781 C1723 0.929 . S
H1782 C1724 0.959 . S
H1783 C1724 0.961 . S
H1784 C1724 0.961 . S
H1785 C1725 0.960 . S
H1786 C1725 0.960 . S
H1787 C1725 0.961 . S
H1788 C1727 0.980 . S
H1789 C1726 0.961 . S
H1790 C1726 0.960 . S
H1791 C1726 0.959 . S
H1792 C1729 0.924 1_455 S
H1793 C1733 0.931 . S
H1794 C1734 0.959 . S
H1795 C1734 0.961 . S
H1796 C1734 0.959 . S
H1797 C1735 0.960 . S
H1798 C1735 0.960 . S
H1799 C1735 0.960 . S
H1800 C1771 0.994 . S
H1801 C1737 0.930 . S
H1802 C1741 0.930 . S
H1803 C1742 0.961 . S
H1804 C1742 0.960 . S
H1805 C1742 0.958 . S
H1806 C1743 0.961 . S
H1807 C1743 0.960 . S
H1808 C1743 0.960 . S
H1809 C1745 0.993 . S
H1810 C1744 0.961 . S
H1811 C1744 0.961 . S
H1812 C1744 0.959 . S
H1813 C1747 0.932 . S
H1814 C1751 0.929 . S
H1815 C1752 0.961 . S
H1816 C1752 0.959 . S
H1817 C1752 0.959 . S
H1818 C1753 0.960 . S
H1819 C1753 0.962 . S
H1820 C1753 0.961 . S
H1821 C1755 0.929 . S
H1822 C1758 0.930 . S
H1823 C1759 0.929 . S
H1824 C1762 0.930 . S
H1825 C1765 0.929 . S
H1826 C1766 0.930 . S
H1827 C1770 0.987 . S
H1828 C1770 0.959 . S
H1829 C1770 0.958 . S
C1830 C1831 1.560 . S
C1830 H1891 0.959 . S
C1830 H1892 0.959 . S
C1830 H1893 0.960 . S
C1831 C1830 1.560 . S
C1831 O1886 1.426 . S
C1831 H1890 0.980 . S
C1832 C1833 1.407 . S
C1832 C1837 1.418 . S
C1832 O1886 1.334 . S
C1833 C1832 1.407 . S
C1833 C1834 1.360 . S
C1833 H1894 0.929 . S
C1834 C1833 1.360 . S
C1834 C1835 1.401 . S
C1834 C1838 1.527 . S
C1835 C1834 1.401 . S
C1835 C1836 1.405 . S
C1835 C1868 1.587 . S
C1836 C1835 1.405 . S
C1836 C1837 1.332 . S
C1836 C1839 1.496 . S
C1837 C1832 1.418 . S
C1837 C1836 1.332 . S
C1837 H1895 0.929 . S
C1838 C1834 1.527 . S
C1838 H1896 0.959 . S
C1838 H1897 0.961 . S
C1838 H1898 0.961 . S
C1839 C1836 1.496 . S
C1839 H1899 0.960 . S
C1839 H1900 0.960 . S
C1839 H1901 0.961 . S
C1840 C1841 1.517 . S
C1840 H1903 0.961 . S
C1840 H1904 0.960 . S
C1840 H1905 0.959 . S
C1841 C1840 1.517 . S
C1841 O1889 1.468 . S
C1841 H1902 0.980 . S
C1842 C1843 1.349 . S
C1842 C1847 1.367 . S
C1842 O1889 1.408 . S
C1843 C1842 1.349 . S
C1843 C1844 1.407 . S
C1843 H1906 0.930 . S
C1844 C1843 1.407 . S
C1844 C1845 1.449 . S
C1844 C1848 1.535 . S
C1845 C1844 1.449 . S
C1845 C1846 1.384 . S
C1845 C1870 1.553 . S
C1846 C1845 1.384 . S
C1846 C1847 1.364 . S
C1846 C1849 1.450 . S
C1847 C1842 1.367 . S
C1847 C1846 1.364 . S
C1847 H1907 0.931 . S
C1848 C1844 1.535 . S
C1848 H1908 0.959 . S
C1848 H1909 0.961 . S
C1848 H1910 0.959 . S
C1849 C1846 1.450 . S
C1849 H1911 0.960 . S
C1849 H1912 0.960 . S
C1849 H1913 0.960 . S
C1850 C1851 1.309 . S
C1850 C1855 1.304 . S
C1850 O1888 1.435 . S
C1851 C1850 1.309 . S
C1851 C1852 1.476 . S
C1851 H1915 0.930 . S
C1852 C1851 1.476 . S
C1852 C1853 1.400 . S
C1852 C1856 1.567 . S
C1853 C1852 1.400 . S
C1853 C1854 1.373 . S
C1853 C1875 1.432 . S
C1854 C1853 1.373 . S
C1854 C1855 1.339 . S
C1854 C1857 1.530 . S
C1855 C1850 1.304 . S
C1855 C1854 1.339 . S
C1855 H1916 0.930 . S
C1856 C1852 1.567 . S
C1856 H1917 0.961 . S
C1856 H1918 0.960 . S
C1856 H1919 0.958 . S
C1857 C1854 1.530 . S
C1857 H1920 0.961 . S
C1857 H1921 0.960 . S
C1857 H1922 0.960 . S
C1858 C1859 1.530 . S
C1858 H1924 0.961 . S
C1858 H1925 0.961 . S
C1858 H1926 0.959 . S
C1859 C1858 1.530 . S
C1859 O1887 1.412 . S
C1859 H1923 0.980 . S
C1860 C1861 1.288 . S
C1860 C1865 1.377 . S
C1860 O1887 1.393 . S
C1861 C1860 1.288 . S
C1861 C1862 1.369 . S
C1861 H1927 0.932 . S
C1862 C1861 1.369 . S
C1862 C1863 1.398 . S
C1862 C1866 1.527 . S
C1863 C1862 1.398 . S
C1863 C1864 1.380 . S
C1863 C1877 1.497 . S
C1864 C1863 1.380 . S
C1864 C1865 1.383 . S
C1864 C1867 1.603 . S
C1865 C1860 1.377 . S
C1865 C1864 1.383 . S
C1865 H1928 0.929 . S
C1866 C1862 1.527 . S
C1866 H1929 0.961 . S
C1866 H1930 0.959 . S
C1866 H1931 0.959 . S
C1867 C1864 1.603 . S
C1867 H1932 0.960 . S
C1867 H1933 0.962 . S
C1867 H1934 0.961 . S
C1868 C1835 1.587 . S
C1868 C1869 1.360 . S
C1868 C1881 1.412 . S
C1869 C1868 1.360 . S
C1869 C1870 1.365 . S
C1869 H1935 0.929 . S
C1870 C1845 1.553 . S
C1870 C1869 1.365 . S
C1870 C1871 1.404 . S
C1871 C1870 1.404 . S
C1871 C1872 1.395 . S
C1871 C1882 1.451 . S
C1872 C1871 1.395 . S
C1872 C1873 1.322 . S
C1872 H1936 0.930 . S
C1873 C1872 1.322 . S
C1873 C1874 1.459 . S
C1873 H1937 0.929 . S
C1874 C1873 1.459 . S
C1874 C1875 1.445 . S
C1874 C1883 1.395 . S
C1875 C1853 1.432 . S
C1875 C1874 1.445 . S
C1875 C1876 1.370 . S
C1876 C1875 1.370 . S
C1876 C1877 1.438 . S
C1876 H1938 0.930 . S
C1877 C1863 1.497 . S
C1877 C1876 1.438 . S
C1877 C1878 1.360 . S
C1878 C1877 1.360 . S
C1878 C1879 1.401 . S
C1878 C1883 1.446 . S
C1879 C1878 1.401 . S
C1879 C1880 1.347 . S
C1879 H1939 0.929 . S
C1880 C1879 1.347 . S
C1880 C1881 1.455 . S
C1880 H1940 0.930 . S
C1881 C1868 1.412 . S
C1881 C1880 1.455 . S
C1881 C1882 1.331 . S
C1882 C1871 1.451 . S
C1882 C1881 1.331 . S
C1882 C1883 1.497 . S
C1883 C1874 1.395 . S
C1883 C1878 1.446 . S
C1883 C1882 1.497 . S
C1884 C1885 1.582 . S
C1884 H1941 0.962 . S
C1884 H1942 0.959 . S
C1884 H1943 0.958 . S
C1885 C1884 1.582 . S
C1885 O1888 1.458 . S
C1885 H1914 0.980 . S
O1886 C1831 1.426 . S
O1886 C1832 1.334 . S
O1887 C1859 1.412 . S
O1887 C1860 1.393 . S
O1888 C1850 1.435 . S
O1888 C1885 1.458 . S
O1889 C1841 1.468 . S
O1889 C1842 1.408 . S
H1890 C1831 0.980 . S
H1891 C1830 0.959 . S
H1892 C1830 0.959 . S
H1893 C1830 0.960 . S
H1894 C1833 0.929 . S
H1895 C1837 0.929 . S
H1896 C1838 0.959 . S
H1897 C1838 0.961 . S
H1898 C1838 0.961 . S
H1899 C1839 0.960 . S
H1900 C1839 0.960 . S
H1901 C1839 0.961 . S
H1902 C1841 0.980 . S
H1903 C1840 0.961 . S
H1904 C1840 0.960 . S
H1905 C1840 0.959 . S
H1906 C1843 0.930 . S
H1907 C1847 0.931 . S
H1908 C1848 0.959 . S
H1909 C1848 0.961 . S
H1910 C1848 0.959 . S
H1911 C1849 0.960 . S
H1912 C1849 0.960 . S
H1913 C1849 0.960 . S
H1914 C1885 0.980 . S
H1915 C1851 0.930 . S
H1916 C1855 0.930 . S
H1917 C1856 0.961 . S
H1918 C1856 0.960 . S
H1919 C1856 0.958 . S
H1920 C1857 0.961 . S
H1921 C1857 0.960 . S
H1922 C1857 0.960 . S
H1923 C1859 0.980 . S
H1924 C1858 0.961 . S
H1925 C1858 0.961 . S
H1926 C1858 0.959 . S
H1927 C1861 0.932 . S
H1928 C1865 0.929 . S
H1929 C1866 0.961 . S
H1930 C1866 0.959 . S
H1931 C1866 0.959 . S
H1932 C1867 0.960 . S
H1933 C1867 0.962 . S
H1934 C1867 0.961 . S
H1935 C1869 0.929 . S
H1936 C1872 0.930 . S
H1937 C1873 0.929 . S
H1938 C1876 0.930 . S
H1939 C1879 0.929 . S
H1940 C1880 0.930 . S
H1941 C1884 0.962 . S
H1942 C1884 0.959 . S
H1943 C1884 0.958 . S
C1944 C1945 1.560 . S
C1944 H2005 0.959 . S
C1944 H2006 0.959 . S
C1944 H2007 0.960 . S
C1945 C1944 1.560 . S
C1945 O2000 1.426 . S
C1945 H2004 0.980 . S
C1946 C1947 1.407 . S
C1946 C1951 1.418 . S
C1946 O2000 1.334 . S
C1947 C1946 1.407 . S
C1947 C1948 1.360 . S
C1947 H2008 0.929 . S
C1948 C1947 1.360 . S
C1948 C1949 1.401 . S
C1948 C1952 1.527 . S
C1949 C1948 1.401 . S
C1949 C1950 1.405 . S
C1949 C1982 1.587 . S
C1950 C1949 1.405 . S
C1950 C1951 1.332 . S
C1950 C1953 1.496 . S
C1951 C1946 1.418 . S
C1951 C1950 1.332 . S
C1951 H2009 0.929 . S
C1952 C1948 1.527 . S
C1952 H2010 0.959 . S
C1952 H2011 0.961 . S
C1952 H2012 0.961 . S
C1953 C1950 1.496 . S
C1953 H2013 0.960 . S
C1953 H2014 0.960 . S
C1953 H2015 0.961 . S
C1954 C1955 1.517 . S
C1954 H2017 0.961 . S
C1954 H2018 0.960 . S
C1954 H2019 0.959 . S
C1955 C1954 1.517 . S
C1955 O2003 1.468 . S
C1955 H2016 0.980 . S
C1956 C1957 1.349 . S
C1956 C1961 1.367 . S
C1956 O2003 1.408 . S
C1957 C1956 1.349 . S
C1957 C1958 1.407 . S
C1957 H2020 0.930 . S
C1958 C1957 1.407 . S
C1958 C1959 1.449 . S
C1958 C1962 1.535 . S
C1959 C1958 1.449 . S
C1959 C1960 1.384 . S
C1959 C1984 1.553 . S
C1960 C1959 1.384 . S
C1960 C1961 1.364 . S
C1960 C1963 1.450 . S
C1961 C1956 1.367 . S
C1961 C1960 1.364 . S
C1961 H2021 0.931 . S
C1962 C1958 1.535 . S
C1962 H2022 0.959 . S
C1962 H2023 0.961 . S
C1962 H2024 0.959 . S
C1963 C1960 1.450 . S
C1963 H2025 0.960 . S
C1963 H2026 0.960 . S
C1963 H2027 0.960 . S
C1964 C1965 1.309 . S
C1964 C1969 1.304 . S
C1964 O2002 1.435 . S
C1965 C1964 1.309 . S
C1965 C1966 1.476 . S
C1965 H2029 0.930 . S
C1966 C1965 1.476 . S
C1966 C1967 1.400 . S
C1966 C1970 1.567 . S
C1967 C1966 1.400 . S
C1967 C1968 1.373 . S
C1967 C1989 1.432 . S
C1968 C1967 1.373 . S
C1968 C1969 1.339 . S
C1968 C1971 1.530 . S
C1969 C1964 1.304 . S
C1969 C1968 1.339 . S
C1969 H2030 0.930 . S
C1970 C1966 1.567 . S
C1970 H2031 0.961 . S
C1970 H2032 0.960 . S
C1970 H2033 0.958 . S
C1971 C1968 1.530 . S
C1971 H2034 0.961 . S
C1971 H2035 0.960 . S
C1971 H2036 0.960 . S
C1972 C1973 1.530 . S
C1972 H2038 0.961 . S
C1972 H2039 0.961 . S
C1972 H2040 0.959 . S
C1973 C1972 1.530 . S
C1973 O2001 1.412 . S
C1973 H2037 0.980 . S
C1974 C1975 1.288 . S
C1974 C1979 1.377 . S
C1974 O2001 1.393 . S
C1975 C1974 1.288 . S
C1975 C1976 1.369 . S
C1975 H2041 0.932 . S
C1976 C1975 1.369 . S
C1976 C1977 1.398 . S
C1976 C1980 1.527 . S
C1977 C1976 1.398 . S
C1977 C1978 1.380 . S
C1977 C1991 1.497 . S
C1978 C1977 1.380 . S
C1978 C1979 1.383 . S
C1978 C1981 1.603 . S
C1979 C1974 1.377 . S
C1979 C1978 1.383 . S
C1979 H2042 0.929 . S
C1980 C1976 1.527 . S
C1980 H2043 0.961 . S
C1980 H2044 0.959 . S
C1980 H2045 0.959 . S
C1981 C1978 1.603 . S
C1981 H2046 0.960 . S
C1981 H2047 0.962 . S
C1981 H2048 0.961 . S
C1982 C1949 1.587 . S
C1982 C1983 1.360 . S
C1982 C1995 1.412 . S
C1983 C1982 1.360 . S
C1983 C1984 1.365 . S
C1983 H2049 0.929 . S
C1984 C1959 1.553 . S
C1984 C1983 1.365 . S
C1984 C1985 1.404 . S
C1985 C1984 1.404 . S
C1985 C1986 1.395 . S
C1985 C1996 1.451 . S
C1986 C1985 1.395 . S
C1986 C1987 1.322 . S
C1986 H2050 0.930 . S
C1987 C1986 1.322 . S
C1987 C1988 1.459 . S
C1987 H2051 0.929 . S
C1988 C1987 1.459 . S
C1988 C1989 1.445 . S
C1988 C1997 1.395 . S
C1989 C1967 1.432 . S
C1989 C1988 1.445 . S
C1989 C1990 1.370 . S
C1990 C1989 1.370 . S
C1990 C1991 1.438 . S
C1990 H2052 0.930 . S
C1991 C1977 1.497 . S
C1991 C1990 1.438 . S
C1991 C1992 1.360 . S
C1992 C1991 1.360 . S
C1992 C1993 1.401 . S
C1992 C1997 1.446 . S
C1993 C1992 1.401 . S
C1993 C1994 1.347 . S
C1993 H2053 0.929 . S
C1994 C1993 1.347 . S
C1994 C1995 1.455 . S
C1994 H2054 0.930 . S
C1995 C1982 1.412 . S
C1995 C1994 1.455 . S
C1995 C1996 1.331 . S
C1996 C1985 1.451 . S
C1996 C1995 1.331 . S
C1996 C1997 1.497 . S
C1997 C1988 1.395 . S
C1997 C1992 1.446 . S
C1997 C1996 1.497 . S
C1998 C1999 1.582 . S
C1998 H2055 0.962 . S
C1998 H2056 0.959 . S
C1998 H2057 0.958 . S
C1999 C1998 1.582 . S
C1999 O2002 1.458 . S
C1999 H2028 0.980 . S
O2000 C1945 1.426 . S
O2000 C1946 1.334 . S
O2001 C1973 1.412 . S
O2001 C1974 1.393 . S
O2002 C1964 1.435 . S
O2002 C1999 1.458 . S
O2003 C1955 1.468 . S
O2003 C1956 1.408 . S
H2004 C1945 0.980 . S
H2005 C1944 0.959 . S
H2006 C1944 0.959 . S
H2007 C1944 0.960 . S
H2008 C1947 0.929 . S
H2009 C1951 0.929 . S
H2010 C1952 0.959 . S
H2011 C1952 0.961 . S
H2012 C1952 0.961 . S
H2013 C1953 0.960 . S
H2014 C1953 0.960 . S
H2015 C1953 0.961 . S
H2016 C1955 0.980 . S
H2017 C1954 0.961 . S
H2018 C1954 0.960 . S
H2019 C1954 0.959 . S
H2020 C1957 0.930 . S
H2021 C1961 0.931 . S
H2022 C1962 0.959 . S
H2023 C1962 0.961 . S
H2024 C1962 0.959 . S
H2025 C1963 0.960 . S
H2026 C1963 0.960 . S
H2027 C1963 0.960 . S
H2028 C1999 0.980 . S
H2029 C1965 0.930 . S
H2030 C1969 0.930 . S
H2031 C1970 0.961 . S
H2032 C1970 0.960 . S
H2033 C1970 0.958 . S
H2034 C1971 0.961 . S
H2035 C1971 0.960 . S
H2036 C1971 0.960 . S
H2037 C1973 0.980 . S
H2038 C1972 0.961 . S
H2039 C1972 0.961 . S
H2040 C1972 0.959 . S
H2041 C1975 0.932 . S
H2042 C1979 0.929 . S
H2043 C1980 0.961 . S
H2044 C1980 0.959 . S
H2045 C1980 0.959 . S
H2046 C1981 0.960 . S
H2047 C1981 0.962 . S
H2048 C1981 0.961 . S
H2049 C1983 0.929 . S
H2050 C1986 0.930 . S
H2051 C1987 0.929 . S
H2052 C1990 0.930 . S
H2053 C1993 0.929 . S
H2054 C1994 0.930 . S
H2055 C1998 0.962 . S
H2056 C1998 0.959 . S
H2057 C1998 0.958 . S
C2058 C2059 1.560 . S
C2058 H2119 0.959 . S
C2058 H2120 0.959 . S
C2058 H2121 0.960 . S
C2059 C2058 1.560 . S
C2059 O2114 1.426 . S
C2059 H2118 0.980 . S
C2060 C2061 1.407 . S
C2060 C2065 1.418 . S
C2060 O2114 1.334 . S
C2061 C2060 1.407 . S
C2061 C2062 1.360 . S
C2061 H2122 0.929 . S
C2062 C2061 1.360 . S
C2062 C2063 1.401 . S
C2062 C2066 1.527 . S
C2063 C2062 1.401 . S
C2063 C2064 1.405 . S
C2063 C2096 1.587 . S
C2064 C2063 1.405 . S
C2064 C2065 1.332 . S
C2064 C2067 1.496 . S
C2065 C2060 1.418 . S
C2065 C2064 1.332 . S
C2065 H2123 0.929 . S
C2066 C2062 1.527 . S
C2066 H2124 0.959 . S
C2066 H2125 0.961 . S
C2066 H2126 0.961 . S
C2067 C2064 1.496 . S
C2067 H2127 0.960 . S
C2067 H2128 0.960 . S
C2067 H2129 0.961 . S
C2068 C2069 1.517 . S
C2068 H2131 0.961 . S
C2068 H2132 0.960 . S
C2068 H2133 0.959 . S
C2069 C2068 1.517 . S
C2069 O2117 1.468 . S
C2069 H2130 0.980 . S
C2070 C2071 1.349 . S
C2070 C2075 1.367 . S
C2070 O2117 1.408 . S
C2071 C2070 1.349 . S
C2071 C2072 1.407 . S
C2071 H2134 0.930 . S
C2072 C2071 1.407 . S
C2072 C2073 1.449 . S
C2072 C2076 1.535 . S
C2073 C2072 1.449 . S
C2073 C2074 1.384 . S
C2073 C2098 1.553 . S
C2074 C2073 1.384 . S
C2074 C2075 1.364 . S
C2074 C2077 1.450 . S
C2075 C2070 1.367 . S
C2075 C2074 1.364 . S
C2075 H2135 0.931 . S
C2076 C2072 1.535 . S
C2076 H2136 0.959 . S
C2076 H2137 0.961 . S
C2076 H2138 0.959 . S
C2077 C2074 1.450 . S
C2077 H2139 0.960 . S
C2077 H2140 0.960 . S
C2077 H2141 0.960 . S
C2078 C2079 1.309 . S
C2078 C2083 1.304 . S
C2078 O2116 1.435 . S
C2079 C2078 1.309 . S
C2079 C2080 1.476 . S
C2079 H2143 0.930 . S
C2080 C2079 1.476 . S
C2080 C2081 1.400 . S
C2080 C2084 1.567 . S
C2081 C2080 1.400 . S
C2081 C2082 1.373 . S
C2081 C2103 1.432 . S
C2082 C2081 1.373 . S
C2082 C2083 1.339 . S
C2082 C2085 1.530 . S
C2083 C2078 1.304 . S
C2083 C2082 1.339 . S
C2083 H2144 0.930 . S
C2084 C2080 1.567 . S
C2084 H2145 0.961 . S
C2084 H2146 0.960 . S
C2084 H2147 0.958 . S
C2085 C2082 1.530 . S
C2085 H2148 0.961 . S
C2085 H2149 0.960 . S
C2085 H2150 0.960 . S
C2086 C2087 1.530 . S
C2086 H2152 0.961 . S
C2086 H2153 0.961 . S
C2086 H2154 0.959 . S
C2087 C2086 1.530 . S
C2087 O2115 1.412 . S
C2087 H2151 0.980 . S
C2088 C2089 1.288 . S
C2088 C2093 1.377 . S
C2088 O2115 1.393 . S
C2089 C2088 1.288 . S
C2089 C2090 1.369 . S
C2089 H2155 0.932 . S
C2090 C2089 1.369 . S
C2090 C2091 1.398 . S
C2090 C2094 1.527 . S
C2091 C2090 1.398 . S
C2091 C2092 1.380 . S
C2091 C2105 1.497 . S
C2092 C2091 1.380 . S
C2092 C2093 1.383 . S
C2092 C2095 1.603 . S
C2093 C2088 1.377 . S
C2093 C2092 1.383 . S
C2093 H2156 0.929 . S
C2094 C2090 1.527 . S
C2094 H2157 0.961 . S
C2094 H2158 0.959 . S
C2094 H2159 0.959 . S
C2095 C2092 1.603 . S
C2095 H2160 0.960 . S
C2095 H2161 0.962 . S
C2095 H2162 0.961 . S
C2096 C2063 1.587 . S
C2096 C2097 1.360 . S
C2096 C2109 1.412 . S
C2097 C2096 1.360 . S
C2097 C2098 1.365 . S
C2097 H2163 0.929 . S
C2098 C2073 1.553 . S
C2098 C2097 1.365 . S
C2098 C2099 1.404 . S
C2099 C2098 1.404 . S
C2099 C2100 1.395 . S
C2099 C2110 1.451 . S
C2100 C2099 1.395 . S
C2100 C2101 1.322 . S
C2100 H2164 0.930 . S
C2101 C2100 1.322 . S
C2101 C2102 1.459 . S
C2101 H2165 0.929 . S
C2102 C2101 1.459 . S
C2102 C2103 1.445 . S
C2102 C2111 1.395 . S
C2103 C2081 1.432 . S
C2103 C2102 1.445 . S
C2103 C2104 1.370 . S
C2104 C2103 1.370 . S
C2104 C2105 1.438 . S
C2104 H2166 0.930 . S
C2105 C2091 1.497 . S
C2105 C2104 1.438 . S
C2105 C2106 1.360 . S
C2106 C2105 1.360 . S
C2106 C2107 1.401 . S
C2106 C2111 1.446 . S
C2107 C2106 1.401 . S
C2107 C2108 1.347 . S
C2107 H2167 0.929 . S
C2108 C2107 1.347 . S
C2108 C2109 1.455 . S
C2108 H2168 0.930 . S
C2109 C2096 1.412 . S
C2109 C2108 1.455 . S
C2109 C2110 1.331 . S
C2110 C2099 1.451 . S
C2110 C2109 1.331 . S
C2110 C2111 1.497 . S
C2111 C2102 1.395 . S
C2111 C2106 1.446 . S
C2111 C2110 1.497 . S
C2112 C2113 1.582 . S
C2112 H2169 0.962 . S
C2112 H2170 0.959 . S
C2112 H2171 0.958 . S
C2113 C2112 1.582 . S
C2113 O2116 1.458 . S
C2113 H2142 0.980 . S
O2114 C2059 1.426 . S
O2114 C2060 1.334 . S
O2115 C2087 1.412 . S
O2115 C2088 1.393 . S
O2116 C2078 1.435 . S
O2116 C2113 1.458 . S
O2117 C2069 1.468 . S
O2117 C2070 1.408 . S
H2118 C2059 0.980 . S
H2119 C2058 0.959 . S
H2120 C2058 0.959 . S
H2121 C2058 0.960 . S
H2122 C2061 0.929 . S
H2123 C2065 0.929 . S
H2124 C2066 0.959 . S
H2125 C2066 0.961 . S
H2126 C2066 0.961 . S
H2127 C2067 0.960 . S
H2128 C2067 0.960 . S
H2129 C2067 0.961 . S
H2130 C2069 0.980 . S
H2131 C2068 0.961 . S
H2132 C2068 0.960 . S
H2133 C2068 0.959 . S
H2134 C2071 0.930 . S
H2135 C2075 0.931 . S
H2136 C2076 0.959 . S
H2137 C2076 0.961 . S
H2138 C2076 0.959 . S
H2139 C2077 0.960 . S
H2140 C2077 0.960 . S
H2141 C2077 0.960 . S
H2142 C2113 0.980 . S
H2143 C2079 0.930 . S
H2144 C2083 0.930 . S
H2145 C2084 0.961 . S
H2146 C2084 0.960 . S
H2147 C2084 0.958 . S
H2148 C2085 0.961 . S
H2149 C2085 0.960 . S
H2150 C2085 0.960 . S
H2151 C2087 0.980 . S
H2152 C2086 0.961 . S
H2153 C2086 0.961 . S
H2154 C2086 0.959 . S
H2155 C2089 0.932 . S
H2156 C2093 0.929 . S
H2157 C2094 0.961 . S
H2158 C2094 0.959 . S
H2159 C2094 0.959 . S
H2160 C2095 0.960 . S
H2161 C2095 0.962 . S
H2162 C2095 0.961 . S
H2163 C2097 0.929 . S
H2164 C2100 0.930 . S
H2165 C2101 0.929 . S
H2166 C2104 0.930 . S
H2167 C2107 0.929 . S
H2168 C2108 0.930 . S
H2169 C2112 0.962 . S
H2170 C2112 0.959 . S
H2171 C2112 0.958 . S
C2172 C2173 1.560 . S
C2172 H2233 0.959 . S
C2172 H2234 0.959 . S
C2172 H2235 0.960 . S
C2173 C2172 1.560 . S
C2173 O2228 1.426 . S
C2173 H2232 0.980 . S
C2174 C2175 1.407 . S
C2174 C2179 1.418 . S
C2174 O2228 1.334 . S
C2175 C2174 1.407 . S
C2175 C2176 1.360 . S
C2175 H2236 0.929 . S
C2176 C2175 1.360 . S
C2176 C2177 1.401 . S
C2176 C2180 1.527 . S
C2177 C2176 1.401 . S
C2177 C2178 1.405 . S
C2177 C2210 1.587 . S
C2178 C2177 1.405 . S
C2178 C2179 1.332 . S
C2178 C2181 1.496 . S
C2179 C2174 1.418 . S
C2179 C2178 1.332 . S
C2179 H2237 0.929 . S
C2180 C2176 1.527 . S
C2180 H2238 0.959 . S
C2180 H2239 0.961 . S
C2180 H2240 0.961 . S
C2181 C2178 1.496 . S
C2181 H2241 0.960 . S
C2181 H2242 0.960 . S
C2181 H2243 0.961 . S
C2182 C2183 1.517 . S
C2182 H2245 0.961 . S
C2182 H2246 0.960 . S
C2182 H2247 0.959 . S
C2183 C2182 1.517 . S
C2183 O2231 1.468 . S
C2183 H2244 0.980 . S
C2184 C2185 1.349 . S
C2184 C2189 1.367 . S
C2184 O2231 1.408 . S
C2185 C2184 1.349 . S
C2185 C2186 1.407 . S
C2185 H2248 0.930 . S
C2186 C2185 1.407 . S
C2186 C2187 1.449 . S
C2186 C2190 1.535 . S
C2187 C2186 1.449 . S
C2187 C2188 1.384 . S
C2187 C2212 1.553 . S
C2188 C2187 1.384 . S
C2188 C2189 1.364 . S
C2188 C2191 1.450 . S
C2189 C2184 1.367 . S
C2189 C2188 1.364 . S
C2189 H2249 0.931 . S
C2190 C2186 1.535 . S
C2190 H2250 0.959 . S
C2190 H2251 0.961 . S
C2190 H2252 0.959 . S
C2191 C2188 1.450 . S
C2191 H2253 0.960 . S
C2191 H2254 0.960 . S
C2191 H2255 0.960 . S
C2192 C2193 1.309 . S
C2192 C2197 1.304 . S
C2192 O2230 1.435 . S
C2193 C2192 1.309 . S
C2193 C2194 1.476 . S
C2193 H2257 0.930 . S
C2194 C2193 1.476 . S
C2194 C2195 1.400 . S
C2194 C2198 1.567 . S
C2195 C2194 1.400 . S
C2195 C2196 1.373 . S
C2195 C2217 1.432 . S
C2196 C2195 1.373 . S
C2196 C2197 1.339 . S
C2196 C2199 1.530 . S
C2197 C2192 1.304 . S
C2197 C2196 1.339 . S
C2197 H2258 0.930 . S
C2198 C2194 1.567 . S
C2198 H2259 0.961 . S
C2198 H2260 0.960 . S
C2198 H2261 0.958 . S
C2199 C2196 1.530 . S
C2199 H2262 0.961 . S
C2199 H2263 0.960 . S
C2199 H2264 0.960 . S
C2200 C2201 1.530 . S
C2200 H2266 0.961 . S
C2200 H2267 0.961 . S
C2200 H2268 0.959 . S
C2201 C2200 1.530 . S
C2201 O2229 1.412 . S
C2201 H2265 0.980 . S
C2202 C2203 1.288 . S
C2202 C2207 1.377 . S
C2202 O2229 1.393 . S
C2203 C2202 1.288 . S
C2203 C2204 1.369 . S
C2203 H2269 0.932 . S
C2204 C2203 1.369 . S
C2204 C2205 1.398 . S
C2204 C2208 1.527 . S
C2205 C2204 1.398 . S
C2205 C2206 1.380 . S
C2205 C2219 1.497 . S
C2206 C2205 1.380 . S
C2206 C2207 1.383 . S
C2206 C2209 1.603 . S
C2207 C2202 1.377 . S
C2207 C2206 1.383 . S
C2207 H2270 0.929 . S
C2208 C2204 1.527 . S
C2208 H2271 0.961 . S
C2208 H2272 0.959 . S
C2208 H2273 0.959 . S
C2209 C2206 1.603 . S
C2209 H2274 0.960 . S
C2209 H2275 0.962 . S
C2209 H2276 0.961 . S
C2210 C2177 1.587 . S
C2210 C2211 1.360 . S
C2210 C2223 1.412 . S
C2211 C2210 1.360 . S
C2211 C2212 1.365 . S
C2211 H2277 0.929 . S
C2212 C2187 1.553 . S
C2212 C2211 1.365 . S
C2212 C2213 1.404 . S
C2213 C2212 1.404 . S
C2213 C2214 1.395 . S
C2213 C2224 1.451 . S
C2214 C2213 1.395 . S
C2214 C2215 1.322 . S
C2214 H2278 0.930 . S
C2215 C2214 1.322 . S
C2215 C2216 1.459 . S
C2215 H2279 0.929 . S
C2216 C2215 1.459 . S
C2216 C2217 1.445 . S
C2216 C2225 1.395 . S
C2217 C2195 1.432 . S
C2217 C2216 1.445 . S
C2217 C2218 1.370 . S
C2218 C2217 1.370 . S
C2218 C2219 1.438 . S
C2218 H2280 0.930 . S
C2219 C2205 1.497 . S
C2219 C2218 1.438 . S
C2219 C2220 1.360 . S
C2220 C2219 1.360 . S
C2220 C2221 1.401 . S
C2220 C2225 1.446 . S
C2221 C2220 1.401 . S
C2221 C2222 1.347 . S
C2221 H2281 0.929 . S
C2222 C2221 1.347 . S
C2222 C2223 1.455 . S
C2222 H2282 0.930 . S
C2223 C2210 1.412 . S
C2223 C2222 1.455 . S
C2223 C2224 1.331 . S
C2224 C2213 1.451 . S
C2224 C2223 1.331 . S
C2224 C2225 1.497 . S
C2225 C2216 1.395 . S
C2225 C2220 1.446 . S
C2225 C2224 1.497 . S
C2226 C2227 1.582 . S
C2226 H2283 0.962 . S
C2226 H2284 0.959 . S
C2226 H2285 0.958 . S
C2227 C2226 1.582 . S
C2227 O2230 1.458 . S
C2227 H2256 0.980 . S
O2228 C2173 1.426 . S
O2228 C2174 1.334 . S
O2229 C2201 1.412 . S
O2229 C2202 1.393 . S
O2230 C2192 1.435 . S
O2230 C2227 1.458 . S
O2231 C2183 1.468 . S
O2231 C2184 1.408 . S
H2232 C2173 0.980 . S
H2233 C2172 0.959 . S
H2234 C2172 0.959 . S
H2235 C2172 0.960 . S
H2236 C2175 0.929 . S
H2237 C2179 0.929 . S
H2238 C2180 0.959 . S
H2239 C2180 0.961 . S
H2240 C2180 0.961 . S
H2241 C2181 0.960 . S
H2242 C2181 0.960 . S
H2243 C2181 0.961 . S
H2244 C2183 0.980 . S
H2245 C2182 0.961 . S
H2246 C2182 0.960 . S
H2247 C2182 0.959 . S
H2248 C2185 0.930 . S
H2249 C2189 0.931 . S
H2250 C2190 0.959 . S
H2251 C2190 0.961 . S
H2252 C2190 0.959 . S
H2253 C2191 0.960 . S
H2254 C2191 0.960 . S
H2255 C2191 0.960 . S
H2256 C2227 0.980 . S
H2257 C2193 0.930 . S
H2258 C2197 0.930 . S
H2259 C2198 0.961 . S
H2260 C2198 0.960 . S
H2261 C2198 0.958 . S
H2262 C2199 0.961 . S
H2263 C2199 0.960 . S
H2264 C2199 0.960 . S
H2265 C2201 0.980 . S
H2266 C2200 0.961 . S
H2267 C2200 0.961 . S
H2268 C2200 0.959 . S
H2269 C2203 0.932 . S
H2270 C2207 0.929 . S
H2271 C2208 0.961 . S
H2272 C2208 0.959 . S
H2273 C2208 0.959 . S
H2274 C2209 0.960 . S
H2275 C2209 0.962 . S
H2276 C2209 0.961 . S
H2277 C2211 0.929 . S
H2278 C2214 0.930 . S
H2279 C2215 0.929 . S
H2280 C2218 0.930 . S
H2281 C2221 0.929 . S
H2282 C2222 0.930 . S
H2283 C2226 0.962 . S
H2284 C2226 0.959 . S
H2285 C2226 0.958 . S
C2286 C2287 1.363 . S
C2286 C2292 1.379 . S
C2286 N2294 1.356 . S
C2287 C2286 1.363 . S
C2287 C2293 1.363 1_655 S
C2288 C2289 1.363 1_455 S
C2288 C2293 1.379 . S
C2288 N2295 1.356 . S
C2289 C2288 1.363 1_655 S
C2289 C2292 1.363 . S
N2290 C2292 1.356 . S
N2290 H2302 0.984 . S
N2290 H2303 0.985 . S
N2291 C2293 1.356 . S
N2291 H2296 0.984 . S
N2291 H2297 0.985 . S
C2292 C2286 1.379 . S
C2292 C2289 1.363 . S
C2292 N2290 1.356 . S
C2293 C2287 1.363 1_455 S
C2293 C2288 1.379 . S
C2293 N2291 1.356 . S
N2294 C2286 1.356 . S
N2294 H2300 0.984 . S
N2294 H2301 0.984 . S
N2295 C2288 1.356 . S
N2295 H2298 0.984 . S
N2295 H2299 0.985 . S
H2296 N2291 0.984 . S
H2297 N2291 0.985 . S
H2298 N2295 0.984 . S
H2299 N2295 0.985 . S
H2300 N2294 0.984 . S
H2301 N2294 0.984 . S
H2302 N2290 0.984 . S
H2303 N2290 0.985 . S
C2304 C2305 1.363 . S
C2304 C2310 1.379 . S
C2304 N2312 1.356 . S
C2305 C2304 1.363 . S
C2305 C2311 1.363 . S
C2306 C2307 1.363 . S
C2306 C2311 1.379 . S
C2306 N2313 1.356 . S
C2307 C2306 1.363 . S
C2307 C2310 1.363 . S
N2308 C2310 1.356 . S
N2308 H2320 0.984 . S
N2308 H2321 0.985 . S
N2309 C2311 1.356 . S
N2309 H2314 0.984 . S
N2309 H2315 0.985 . S
C2310 C2304 1.379 . S
C2310 C2307 1.363 . S
C2310 N2308 1.356 . S
C2311 C2305 1.363 . S
C2311 C2306 1.379 . S
C2311 N2309 1.356 . S
N2312 C2304 1.356 . S
N2312 H2318 0.984 . S
N2312 H2319 0.984 . S
N2313 C2306 1.356 . S
N2313 H2316 0.984 . S
N2313 H2317 0.985 . S
H2314 N2309 0.984 . S
H2315 N2309 0.985 . S
H2316 N2313 0.984 . S
H2317 N2313 0.985 . S
H2318 N2312 0.984 . S
H2319 N2312 0.984 . S
H2320 N2308 0.984 . S
H2321 N2308 0.985 . S
C2322 C2323 1.363 . S
C2322 C2328 1.379 . S
C2322 N2330 1.356 . S
C2323 C2322 1.363 . S
C2323 C2329 1.363 1_545 S
C2324 C2325 1.363 1_565 S
C2324 C2329 1.379 . S
C2324 N2331 1.356 . S
C2325 C2324 1.363 1_545 S
C2325 C2328 1.363 . S
N2326 C2328 1.356 . S
N2326 H2338 0.984 . S
N2326 H2339 0.985 . S
N2327 C2329 1.356 . S
N2327 H2332 0.984 . S
N2327 H2333 0.985 . S
C2328 C2322 1.379 . S
C2328 C2325 1.363 . S
C2328 N2326 1.356 . S
C2329 C2323 1.363 1_565 S
C2329 C2324 1.379 . S
C2329 N2327 1.356 . S
N2330 C2322 1.356 . S
N2330 H2336 0.984 . S
N2330 H2337 0.984 . S
N2331 C2324 1.356 . S
N2331 H2334 0.984 . S
N2331 H2335 0.985 . S
H2332 N2327 0.984 . S
H2333 N2327 0.985 . S
H2334 N2331 0.984 . S
H2335 N2331 0.985 . S
H2336 N2330 0.984 . S
H2337 N2330 0.984 . S
H2338 N2326 0.984 . S
H2339 N2326 0.985 . S
C2340 C2341 1.363 1_545 S
C2340 C2346 1.379 . S
C2340 N2348 1.356 . S
C2341 C2340 1.363 1_565 S
C2341 C2347 1.363 . S
C2342 C2343 1.363 . S
C2342 C2347 1.379 . S
C2342 N2349 1.356 . S
C2343 C2342 1.363 . S
C2343 C2346 1.363 1_565 S
N2344 C2346 1.356 . S
N2344 H2356 0.984 . S
N2344 H2357 0.985 . S
N2345 C2347 1.356 . S
N2345 H2350 0.984 . S
N2345 H2351 0.985 . S
C2346 C2340 1.379 . S
C2346 C2343 1.363 1_545 S
C2346 N2344 1.356 . S
C2347 C2341 1.363 . S
C2347 C2342 1.379 . S
C2347 N2345 1.356 . S
N2348 C2340 1.356 . S
N2348 H2354 0.984 . S
N2348 H2355 0.984 . S
N2349 C2342 1.356 . S
N2349 H2352 0.984 . S
N2349 H2353 0.985 . S
H2350 N2345 0.984 . S
H2351 N2345 0.985 . S
H2352 N2349 0.984 . S
H2353 N2349 0.985 . S
H2354 N2348 0.984 . S
H2355 N2348 0.984 . S
H2356 N2344 0.984 . S
H2357 N2344 0.985 . S
C2358 C2359 1.363 . S
C2358 C2364 1.379 . S
C2358 N2366 1.356 . S
C2359 C2358 1.363 . S
C2359 C2365 1.363 . S
C2360 C2361 1.363 . S
C2360 C2365 1.379 . S
C2360 N2367 1.356 . S
C2361 C2360 1.363 . S
C2361 C2364 1.363 . S
N2362 C2364 1.356 . S
N2362 H2374 0.984 . S
N2362 H2375 0.985 . S
N2363 C2365 1.356 . S
N2363 H2368 0.984 . S
N2363 H2369 0.985 . S
C2364 C2358 1.379 . S
C2364 C2361 1.363 . S
C2364 N2362 1.356 . S
C2365 C2359 1.363 . S
C2365 C2360 1.379 . S
C2365 N2363 1.356 . S
N2366 C2358 1.356 . S
N2366 H2372 0.984 . S
N2366 H2373 0.984 . S
N2367 C2360 1.356 . S
N2367 H2370 0.984 . S
N2367 H2371 0.985 . S
H2368 N2363 0.984 . S
H2369 N2363 0.985 . S
H2370 N2367 0.984 . S
H2371 N2367 0.985 . S
H2372 N2366 0.984 . S
H2373 N2366 0.984 . S
H2374 N2362 0.984 . S
H2375 N2362 0.985 . S
C2376 C2377 1.363 . S
C2376 C2382 1.379 . S
C2376 N2384 1.356 . S
C2377 C2376 1.363 . S
C2377 C2383 1.363 . S
C2378 C2379 1.363 . S
C2378 C2383 1.379 . S
C2378 N2385 1.356 . S
C2379 C2378 1.363 . S
C2379 C2382 1.363 . S
N2380 C2382 1.356 . S
N2380 H2392 0.984 . S
N2380 H2393 0.985 . S
N2381 C2383 1.356 . S
N2381 H2386 0.984 . S
N2381 H2387 0.985 . S
C2382 C2376 1.379 . S
C2382 C2379 1.363 . S
C2382 N2380 1.356 . S
C2383 C2377 1.363 . S
C2383 C2378 1.379 . S
C2383 N2381 1.356 . S
N2384 C2376 1.356 . S
N2384 H2390 0.984 . S
N2384 H2391 0.984 . S
N2385 C2378 1.356 . S
N2385 H2388 0.984 . S
N2385 H2389 0.985 . S
H2386 N2381 0.984 . S
H2387 N2381 0.985 . S
H2388 N2385 0.984 . S
H2389 N2385 0.985 . S
H2390 N2384 0.984 . S
H2391 N2384 0.984 . S
H2392 N2380 0.984 . S
H2393 N2380 0.985 . S
C2394 C2395 1.363 . S
C2394 C2400 1.379 . S
C2394 N2402 1.356 . S
C2395 C2394 1.363 . S
C2395 C2401 1.363 1_455 S
C2396 C2397 1.363 1_655 S
C2396 C2401 1.379 . S
C2396 N2403 1.356 . S
C2397 C2396 1.363 1_455 S
C2397 C2400 1.363 . S
N2398 C2400 1.356 . S
N2398 H2410 0.984 . S
N2398 H2411 0.985 . S
N2399 C2401 1.356 . S
N2399 H2404 0.984 . S
N2399 H2405 0.985 . S
C2400 C2394 1.379 . S
C2400 C2397 1.363 . S
C2400 N2398 1.356 . S
C2401 C2395 1.363 1_655 S
C2401 C2396 1.379 . S
C2401 N2399 1.356 . S
N2402 C2394 1.356 . S
N2402 H2408 0.984 . S
N2402 H2409 0.984 . S
N2403 C2396 1.356 . S
N2403 H2406 0.984 . S
N2403 H2407 0.985 . S
H2404 N2399 0.984 . S
H2405 N2399 0.985 . S
H2406 N2403 0.984 . S
H2407 N2403 0.985 . S
H2408 N2402 0.984 . S
H2409 N2402 0.984 . S
H2410 N2398 0.984 . S
H2411 N2398 0.985 . S
C2412 C2413 1.363 . S
C2412 C2418 1.379 . S
C2412 N2420 1.356 . S
C2413 C2412 1.363 . S
C2413 C2419 1.363 . S
C2414 C2415 1.363 . S
C2414 C2419 1.379 . S
C2414 N2421 1.356 . S
C2415 C2414 1.363 . S
C2415 C2418 1.363 . S
N2416 C2418 1.356 . S
N2416 H2428 0.984 . S
N2416 H2429 0.985 . S
N2417 C2419 1.356 . S
N2417 H2422 0.984 . S
N2417 H2423 0.985 . S
C2418 C2412 1.379 . S
C2418 C2415 1.363 . S
C2418 N2416 1.356 . S
C2419 C2413 1.363 . S
C2419 C2414 1.379 . S
C2419 N2417 1.356 . S
N2420 C2412 1.356 . S
N2420 H2426 0.984 . S
N2420 H2427 0.984 . S
N2421 C2414 1.356 . S
N2421 H2424 0.984 . S
N2421 H2425 0.985 . S
H2422 N2417 0.984 . S
H2423 N2417 0.985 . S
H2424 N2421 0.984 . S
H2425 N2421 0.985 . S
H2426 N2420 0.984 . S
H2427 N2420 0.984 . S
H2428 N2416 0.984 . S
H2429 N2416 0.985 . S
C2430 C2431 1.363 . S
C2430 C2436 1.379 . S
C2430 N2438 1.356 . S
C2431 C2430 1.363 . S
C2431 C2437 1.363 1_565 S
C2432 C2433 1.363 1_545 S
C2432 C2437 1.379 . S
C2432 N2439 1.356 . S
C2433 C2432 1.363 1_565 S
C2433 C2436 1.363 . S
N2434 C2436 1.356 . S
N2434 H2446 0.984 . S
N2434 H2447 0.985 . S
N2435 C2437 1.356 . S
N2435 H2440 0.984 . S
N2435 H2441 0.985 . S
C2436 C2430 1.379 . S
C2436 C2433 1.363 . S
C2436 N2434 1.356 . S
C2437 C2431 1.363 1_545 S
C2437 C2432 1.379 . S
C2437 N2435 1.356 . S
N2438 C2430 1.356 . S
N2438 H2444 0.984 . S
N2438 H2445 0.984 . S
N2439 C2432 1.356 . S
N2439 H2442 0.984 . S
N2439 H2443 0.985 . S
H2440 N2435 0.984 . S
H2441 N2435 0.985 . S
H2442 N2439 0.984 . S
H2443 N2439 0.985 . S
H2444 N2438 0.984 . S
H2445 N2438 0.984 . S
H2446 N2434 0.984 . S
H2447 N2434 0.985 . S
C2448 C2449 1.363 . S
C2448 C2454 1.379 . S
C2448 N2456 1.356 . S
C2449 C2448 1.363 . S
C2449 C2455 1.363 1_545 S
C2450 C2451 1.363 1_565 S
C2450 C2455 1.379 . S
C2450 N2457 1.356 . S
C2451 C2450 1.363 1_545 S
C2451 C2454 1.363 . S
N2452 C2454 1.356 . S
N2452 H2464 0.984 . S
N2452 H2465 0.985 . S
N2453 C2455 1.356 . S
N2453 H2458 0.984 . S
N2453 H2459 0.985 . S
C2454 C2448 1.379 . S
C2454 C2451 1.363 . S
C2454 N2452 1.356 . S
C2455 C2449 1.363 1_565 S
C2455 C2450 1.379 . S
C2455 N2453 1.356 . S
N2456 C2448 1.356 . S
N2456 H2462 0.984 . S
N2456 H2463 0.984 . S
N2457 C2450 1.356 . S
N2457 H2460 0.984 . S
N2457 H2461 0.985 . S
H2458 N2453 0.984 . S
H2459 N2453 0.985 . S
H2460 N2457 0.984 . S
H2461 N2457 0.985 . S
H2462 N2456 0.984 . S
H2463 N2456 0.984 . S
H2464 N2452 0.984 . S
H2465 N2452 0.985 . S
C2466 C2467 1.363 1_455 S
C2466 C2472 1.379 . S
C2466 N2474 1.356 . S
C2467 C2466 1.363 1_655 S
C2467 C2473 1.363 . S
C2468 C2469 1.363 . S
C2468 C2473 1.379 . S
C2468 N2475 1.356 . S
C2469 C2468 1.363 . S
C2469 C2472 1.363 1_655 S
N2470 C2472 1.356 . S
N2470 H2482 0.984 . S
N2470 H2483 0.985 . S
N2471 C2473 1.356 . S
N2471 H2476 0.984 . S
N2471 H2477 0.985 . S
C2472 C2466 1.379 . S
C2472 C2469 1.363 1_455 S
C2472 N2470 1.356 . S
C2473 C2467 1.363 . S
C2473 C2468 1.379 . S
C2473 N2471 1.356 . S
N2474 C2466 1.356 . S
N2474 H2480 0.984 . S
N2474 H2481 0.984 . S
N2475 C2468 1.356 . S
N2475 H2478 0.984 . S
N2475 H2479 0.985 . S
H2476 N2471 0.984 . S
H2477 N2471 0.985 . S
H2478 N2475 0.984 . S
H2479 N2475 0.985 . S
H2480 N2474 0.984 . S
H2481 N2474 0.984 . S
H2482 N2470 0.984 . S
H2483 N2470 0.985 . S
C2484 C2485 1.363 . S
C2484 C2490 1.379 . S
C2484 N2492 1.356 . S
C2485 C2484 1.363 . S
C2485 C2491 1.363 . S
C2486 C2487 1.363 . S
C2486 C2491 1.379 . S
C2486 N2493 1.356 . S
C2487 C2486 1.363 . S
C2487 C2490 1.363 . S
N2488 C2490 1.356 . S
N2488 H2500 0.984 . S
N2488 H2501 0.985 . S
N2489 C2491 1.356 . S
N2489 H2494 0.984 . S
N2489 H2495 0.985 . S
C2490 C2484 1.379 . S
C2490 C2487 1.363 . S
C2490 N2488 1.356 . S
C2491 C2485 1.363 . S
C2491 C2486 1.379 . S
C2491 N2489 1.356 . S
N2492 C2484 1.356 . S
N2492 H2498 0.984 . S
N2492 H2499 0.984 . S
N2493 C2486 1.356 . S
N2493 H2496 0.984 . S
N2493 H2497 0.985 . S
H2494 N2489 0.984 . S
H2495 N2489 0.985 . S
H2496 N2493 0.984 . S
H2497 N2493 0.985 . S
H2498 N2492 0.984 . S
H2499 N2492 0.984 . S
H2500 N2488 0.984 . S
H2501 N2488 0.985 . S
C2502 C2503 1.363 . S
C2502 C2508 1.379 . S
C2502 N2510 1.356 . S
C2503 C2502 1.363 . S
C2503 C2509 1.363 . S
C2504 C2505 1.363 . S
C2504 C2509 1.379 . S
C2504 N2511 1.356 . S
C2505 C2504 1.363 . S
C2505 C2508 1.363 . S
N2506 C2508 1.356 . S
N2506 H2518 0.984 . S
N2506 H2519 0.985 . S
N2507 C2509 1.356 . S
N2507 H2512 0.984 . S
N2507 H2513 0.985 . S
C2508 C2502 1.379 . S
C2508 C2505 1.363 . S
C2508 N2506 1.356 . S
C2509 C2503 1.363 . S
C2509 C2504 1.379 . S
C2509 N2507 1.356 . S
N2510 C2502 1.356 . S
N2510 H2516 0.984 . S
N2510 H2517 0.984 . S
N2511 C2504 1.356 . S
N2511 H2514 0.984 . S
N2511 H2515 0.985 . S
H2512 N2507 0.984 . S
H2513 N2507 0.985 . S
H2514 N2511 0.984 . S
H2515 N2511 0.985 . S
H2516 N2510 0.984 . S
H2517 N2510 0.984 . S
H2518 N2506 0.984 . S
H2519 N2506 0.985 . S
C2520 C2521 1.363 . S
C2520 C2526 1.379 . S
C2520 N2528 1.356 . S
C2521 C2520 1.363 . S
C2521 C2527 1.363 . S
C2522 C2523 1.363 . S
C2522 C2527 1.379 . S
C2522 N2529 1.356 . S
C2523 C2522 1.363 . S
C2523 C2526 1.363 . S
N2524 C2526 1.356 . S
N2524 H2536 0.984 . S
N2524 H2537 0.985 . S
N2525 C2527 1.356 . S
N2525 H2530 0.984 . S
N2525 H2531 0.985 . S
C2526 C2520 1.379 . S
C2526 C2523 1.363 . S
C2526 N2524 1.356 . S
C2527 C2521 1.363 . S
C2527 C2522 1.379 . S
C2527 N2525 1.356 . S
N2528 C2520 1.356 . S
N2528 H2534 0.984 . S
N2528 H2535 0.984 . S
N2529 C2522 1.356 . S
N2529 H2532 0.984 . S
N2529 H2533 0.985 . S
H2530 N2525 0.984 . S
H2531 N2525 0.985 . S
H2532 N2529 0.984 . S
H2533 N2529 0.985 . S
H2534 N2528 0.984 . S
H2535 N2528 0.984 . S
H2536 N2524 0.984 . S
H2537 N2524 0.985 . S
C2538 C2539 1.363 . S
C2538 C2544 1.379 . S
C2538 N2546 1.356 . S
C2539 C2538 1.363 . S
C2539 C2545 1.363 . S
C2540 C2541 1.363 . S
C2540 C2545 1.379 . S
C2540 N2547 1.356 . S
C2541 C2540 1.363 . S
C2541 C2544 1.363 . S
N2542 C2544 1.356 . S
N2542 H2554 0.984 . S
N2542 H2555 0.985 . S
N2543 C2545 1.356 . S
N2543 H2548 0.984 . S
N2543 H2549 0.985 . S
C2544 C2538 1.379 . S
C2544 C2541 1.363 . S
C2544 N2542 1.356 . S
C2545 C2539 1.363 . S
C2545 C2540 1.379 . S
C2545 N2543 1.356 . S
N2546 C2538 1.356 . S
N2546 H2552 0.984 . S
N2546 H2553 0.984 . S
N2547 C2540 1.356 . S
N2547 H2550 0.984 . S
N2547 H2551 0.985 . S
H2548 N2543 0.984 . S
H2549 N2543 0.985 . S
H2550 N2547 0.984 . S
H2551 N2547 0.985 . S
H2552 N2546 0.984 . S
H2553 N2546 0.984 . S
H2554 N2542 0.984 . S
H2555 N2542 0.985 . S
C2556 C2557 1.363 . S
C2556 C2562 1.379 . S
C2556 N2564 1.356 . S
C2557 C2556 1.363 . S
C2557 C2563 1.363 . S
C2558 C2559 1.363 . S
C2558 C2563 1.379 . S
C2558 N2565 1.356 . S
C2559 C2558 1.363 . S
C2559 C2562 1.363 . S
N2560 C2562 1.356 . S
N2560 H2572 0.984 . S
N2560 H2573 0.985 . S
N2561 C2563 1.356 . S
N2561 H2566 0.984 . S
N2561 H2567 0.985 . S
C2562 C2556 1.379 . S
C2562 C2559 1.363 . S
C2562 N2560 1.356 . S
C2563 C2557 1.363 . S
C2563 C2558 1.379 . S
C2563 N2561 1.356 . S
N2564 C2556 1.356 . S
N2564 H2570 0.984 . S
N2564 H2571 0.984 . S
N2565 C2558 1.356 . S
N2565 H2568 0.984 . S
N2565 H2569 0.985 . S
H2566 N2561 0.984 . S
H2567 N2561 0.985 . S
H2568 N2565 0.984 . S
H2569 N2565 0.985 . S
H2570 N2564 0.984 . S
H2571 N2564 0.984 . S
H2572 N2560 0.984 . S
H2573 N2560 0.985 . S
C2574 C2575 1.363 . S
C2574 C2580 1.379 . S
C2574 N2582 1.356 . S
C2575 C2574 1.363 . S
C2575 C2581 1.363 . S
C2576 C2577 1.363 . S
C2576 C2581 1.379 . S
C2576 N2583 1.356 . S
C2577 C2576 1.363 . S
C2577 C2580 1.363 . S
N2578 C2580 1.356 . S
N2578 H2590 0.984 . S
N2578 H2591 0.985 . S
N2579 C2581 1.356 . S
N2579 H2584 0.984 . S
N2579 H2585 0.985 . S
C2580 C2574 1.379 . S
C2580 C2577 1.363 . S
C2580 N2578 1.356 . S
C2581 C2575 1.363 . S
C2581 C2576 1.379 . S
C2581 N2579 1.356 . S
N2582 C2574 1.356 . S
N2582 H2588 0.984 . S
N2582 H2589 0.984 . S
N2583 C2576 1.356 . S
N2583 H2586 0.984 . S
N2583 H2587 0.985 . S
H2584 N2579 0.984 . S
H2585 N2579 0.985 . S
H2586 N2583 0.984 . S
H2587 N2583 0.985 . S
H2588 N2582 0.984 . S
H2589 N2582 0.984 . S
H2590 N2578 0.984 . S
H2591 N2578 0.985 . S
C2592 C2593 1.363 . S
C2592 C2598 1.379 . S
C2592 N2600 1.356 . S
C2593 C2592 1.363 . S
C2593 C2599 1.363 . S
C2594 C2595 1.363 . S
C2594 C2599 1.379 . S
C2594 N2601 1.356 . S
C2595 C2594 1.363 . S
C2595 C2598 1.363 . S
N2596 C2598 1.356 . S
N2596 H2608 0.984 . S
N2596 H2609 0.985 . S
N2597 C2599 1.356 . S
N2597 H2602 0.984 . S
N2597 H2603 0.985 . S
C2598 C2592 1.379 . S
C2598 C2595 1.363 . S
C2598 N2596 1.356 . S
C2599 C2593 1.363 . S
C2599 C2594 1.379 . S
C2599 N2597 1.356 . S
N2600 C2592 1.356 . S
N2600 H2606 0.984 . S
N2600 H2607 0.984 . S
N2601 C2594 1.356 . S
N2601 H2604 0.984 . S
N2601 H2605 0.985 . S
H2602 N2597 0.984 . S
H2603 N2597 0.985 . S
H2604 N2601 0.984 . S
H2605 N2601 0.985 . S
H2606 N2600 0.984 . S
H2607 N2600 0.984 . S
H2608 N2596 0.984 . S
H2609 N2596 0.985 . S
C2610 C2611 1.363 . S
C2610 C2616 1.379 . S
C2610 N2618 1.356 . S
C2611 C2610 1.363 . S
C2611 C2617 1.363 . S
C2612 C2613 1.363 . S
C2612 C2617 1.379 . S
C2612 N2619 1.356 . S
C2613 C2612 1.363 . S
C2613 C2616 1.363 . S
N2614 C2616 1.356 . S
N2614 H2626 0.984 . S
N2614 H2627 0.985 . S
N2615 C2617 1.356 . S
N2615 H2620 0.984 . S
N2615 H2621 0.985 . S
C2616 C2610 1.379 . S
C2616 C2613 1.363 . S
C2616 N2614 1.356 . S
C2617 C2611 1.363 . S
C2617 C2612 1.379 . S
C2617 N2615 1.356 . S
N2618 C2610 1.356 . S
N2618 H2624 0.984 . S
N2618 H2625 0.984 . S
N2619 C2612 1.356 . S
N2619 H2622 0.984 . S
N2619 H2623 0.985 . S
H2620 N2615 0.984 . S
H2621 N2615 0.985 . S
H2622 N2619 0.984 . S
H2623 N2619 0.985 . S
H2624 N2618 0.984 . S
H2625 N2618 0.984 . S
H2626 N2614 0.984 . S
H2627 N2614 0.985 . S
C2628 C2629 1.363 . S
C2628 C2634 1.379 . S
C2628 N2636 1.356 . S
C2629 C2628 1.363 . S
C2629 C2635 1.363 . S
C2630 C2631 1.363 . S
C2630 C2635 1.379 . S
C2630 N2637 1.356 . S
C2631 C2630 1.363 . S
C2631 C2634 1.363 . S
N2632 C2634 1.356 . S
N2632 H2644 0.984 . S
N2632 H2645 0.985 . S
N2633 C2635 1.356 . S
N2633 H2638 0.984 . S
N2633 H2639 0.985 . S
C2634 C2628 1.379 . S
C2634 C2631 1.363 . S
C2634 N2632 1.356 . S
C2635 C2629 1.363 . S
C2635 C2630 1.379 . S
C2635 N2633 1.356 . S
N2636 C2628 1.356 . S
N2636 H2642 0.984 . S
N2636 H2643 0.984 . S
N2637 C2630 1.356 . S
N2637 H2640 0.984 . S
N2637 H2641 0.985 . S
H2638 N2633 0.984 . S
H2639 N2633 0.985 . S
H2640 N2637 0.984 . S
H2641 N2637 0.985 . S
H2642 N2636 0.984 . S
H2643 N2636 0.984 . S
H2644 N2632 0.984 . S
H2645 N2632 0.985 . S
C2646 C2647 1.363 . S
C2646 C2652 1.379 . S
C2646 N2654 1.356 . S
C2647 C2646 1.363 . S
C2647 C2653 1.363 . S
C2648 C2649 1.363 . S
C2648 C2653 1.379 . S
C2648 N2655 1.356 . S
C2649 C2648 1.363 . S
C2649 C2652 1.363 . S
N2650 C2652 1.356 . S
N2650 H2662 0.984 . S
N2650 H2663 0.985 . S
N2651 C2653 1.356 . S
N2651 H2656 0.984 . S
N2651 H2657 0.985 . S
C2652 C2646 1.379 . S
C2652 C2649 1.363 . S
C2652 N2650 1.356 . S
C2653 C2647 1.363 . S
C2653 C2648 1.379 . S
C2653 N2651 1.356 . S
N2654 C2646 1.356 . S
N2654 H2660 0.984 . S
N2654 H2661 0.984 . S
N2655 C2648 1.356 . S
N2655 H2658 0.984 . S
N2655 H2659 0.985 . S
H2656 N2651 0.984 . S
H2657 N2651 0.985 . S
H2658 N2655 0.984 . S
H2659 N2655 0.985 . S
H2660 N2654 0.984 . S
H2661 N2654 0.984 . S
H2662 N2650 0.984 . S
H2663 N2650 0.985 . S
C2664 C2665 1.363 . S
C2664 C2670 1.379 . S
C2664 N2672 1.356 . S
C2665 C2664 1.363 . S
C2665 C2671 1.363 . S
C2666 C2667 1.363 . S
C2666 C2671 1.379 . S
C2666 N2673 1.356 . S
C2667 C2666 1.363 . S
C2667 C2670 1.363 . S
N2668 C2670 1.356 . S
N2668 H2680 0.984 . S
N2668 H2681 0.985 . S
N2669 C2671 1.356 . S
N2669 H2674 0.984 . S
N2669 H2675 0.985 . S
C2670 C2664 1.379 . S
C2670 C2667 1.363 . S
C2670 N2668 1.356 . S
C2671 C2665 1.363 . S
C2671 C2666 1.379 . S
C2671 N2669 1.356 . S
N2672 C2664 1.356 . S
N2672 H2678 0.984 . S
N2672 H2679 0.984 . S
N2673 C2666 1.356 . S
N2673 H2676 0.984 . S
N2673 H2677 0.985 . S
H2674 N2669 0.984 . S
H2675 N2669 0.985 . S
H2676 N2673 0.984 . S
H2677 N2673 0.985 . S
H2678 N2672 0.984 . S
H2679 N2672 0.984 . S
H2680 N2668 0.984 . S
H2681 N2668 0.985 . S
C2682 C2683 1.363 . S
C2682 C2688 1.379 . S
C2682 N2690 1.356 . S
C2683 C2682 1.363 . S
C2683 C2689 1.363 . S
C2684 C2685 1.363 . S
C2684 C2689 1.379 . S
C2684 N2691 1.356 . S
C2685 C2684 1.363 . S
C2685 C2688 1.363 . S
N2686 C2688 1.356 . S
N2686 H2698 0.984 . S
N2686 H2699 0.985 . S
N2687 C2689 1.356 . S
N2687 H2692 0.984 . S
N2687 H2693 0.985 . S
C2688 C2682 1.379 . S
C2688 C2685 1.363 . S
C2688 N2686 1.356 . S
C2689 C2683 1.363 . S
C2689 C2684 1.379 . S
C2689 N2687 1.356 . S
N2690 C2682 1.356 . S
N2690 H2696 0.984 . S
N2690 H2697 0.984 . S
N2691 C2684 1.356 . S
N2691 H2694 0.984 . S
N2691 H2695 0.985 . S
H2692 N2687 0.984 . S
H2693 N2687 0.985 . S
H2694 N2691 0.984 . S
H2695 N2691 0.985 . S
H2696 N2690 0.984 . S
H2697 N2690 0.984 . S
H2698 N2686 0.984 . S
H2699 N2686 0.985 . S
C2700 C2701 1.363 . S
C2700 C2706 1.379 . S
C2700 N2708 1.356 . S
C2701 C2700 1.363 . S
C2701 C2707 1.363 . S
C2702 C2703 1.363 . S
C2702 C2707 1.379 . S
C2702 N2709 1.356 . S
C2703 C2702 1.363 . S
C2703 C2706 1.363 . S
N2704 C2706 1.356 . S
N2704 H2716 0.984 . S
N2704 H2717 0.985 . S
N2705 C2707 1.356 . S
N2705 H2710 0.984 . S
N2705 H2711 0.985 . S
C2706 C2700 1.379 . S
C2706 C2703 1.363 . S
C2706 N2704 1.356 . S
C2707 C2701 1.363 . S
C2707 C2702 1.379 . S
C2707 N2705 1.356 . S
N2708 C2700 1.356 . S
N2708 H2714 0.984 . S
N2708 H2715 0.984 . S
N2709 C2702 1.356 . S
N2709 H2712 0.984 . S
N2709 H2713 0.985 . S
H2710 N2705 0.984 . S
H2711 N2705 0.985 . S
H2712 N2709 0.984 . S
H2713 N2709 0.985 . S
H2714 N2708 0.984 . S
H2715 N2708 0.984 . S
H2716 N2704 0.984 . S
H2717 N2704 0.985 . S
C2718 C2719 1.363 . S
C2718 C2724 1.379 . S
C2718 N2726 1.356 . S
C2719 C2718 1.363 . S
C2719 C2725 1.363 . S
C2720 C2721 1.363 . S
C2720 C2725 1.379 . S
C2720 N2727 1.356 . S
C2721 C2720 1.363 . S
C2721 C2724 1.363 . S
N2722 C2724 1.356 . S
N2722 H2734 0.984 . S
N2722 H2735 0.985 . S
N2723 C2725 1.356 . S
N2723 H2728 0.984 . S
N2723 H2729 0.985 . S
C2724 C2718 1.379 . S
C2724 C2721 1.363 . S
C2724 N2722 1.356 . S
C2725 C2719 1.363 . S
C2725 C2720 1.379 . S
C2725 N2723 1.356 . S
N2726 C2718 1.356 . S
N2726 H2732 0.984 . S
N2726 H2733 0.984 . S
N2727 C2720 1.356 . S
N2727 H2730 0.984 . S
N2727 H2731 0.985 . S
H2728 N2723 0.984 . S
H2729 N2723 0.985 . S
H2730 N2727 0.984 . S
H2731 N2727 0.985 . S
H2732 N2726 0.984 . S
H2733 N2726 0.984 . S
H2734 N2722 0.984 . S
H2735 N2722 0.985 . S
C2736 C2737 1.363 . S
C2736 C2742 1.379 . S
C2736 N2744 1.356 . S
C2737 C2736 1.363 . S
C2737 C2743 1.363 . S
C2738 C2739 1.363 . S
C2738 C2743 1.379 . S
C2738 N2745 1.356 . S
C2739 C2738 1.363 . S
C2739 C2742 1.363 . S
N2740 C2742 1.356 . S
N2740 H2752 0.984 . S
N2740 H2753 0.985 . S
N2741 C2743 1.356 . S
N2741 H2746 0.984 . S
N2741 H2747 0.985 . S
C2742 C2736 1.379 . S
C2742 C2739 1.363 . S
C2742 N2740 1.356 . S
C2743 C2737 1.363 . S
C2743 C2738 1.379 . S
C2743 N2741 1.356 . S
N2744 C2736 1.356 . S
N2744 H2750 0.984 . S
N2744 H2751 0.984 . S
N2745 C2738 1.356 . S
N2745 H2748 0.984 . S
N2745 H2749 0.985 . S
H2746 N2741 0.984 . S
H2747 N2741 0.985 . S
H2748 N2745 0.984 . S
H2749 N2745 0.985 . S
H2750 N2744 0.984 . S
H2751 N2744 0.984 . S
H2752 N2740 0.984 . S
H2753 N2740 0.985 . S
C2754 C2755 1.363 . S
C2754 C2760 1.379 . S
C2754 N2762 1.356 . S
C2755 C2754 1.363 . S
C2755 C2761 1.363 . S
C2756 C2757 1.363 . S
C2756 C2761 1.379 . S
C2756 N2763 1.356 . S
C2757 C2756 1.363 . S
C2757 C2760 1.363 . S
N2758 C2760 1.356 . S
N2758 H2770 0.984 . S
N2758 H2771 0.985 . S
N2759 C2761 1.356 . S
N2759 H2764 0.984 . S
N2759 H2765 0.985 . S
C2760 C2754 1.379 . S
C2760 C2757 1.363 . S
C2760 N2758 1.356 . S
C2761 C2755 1.363 . S
C2761 C2756 1.379 . S
C2761 N2759 1.356 . S
N2762 C2754 1.356 . S
N2762 H2768 0.984 . S
N2762 H2769 0.984 . S
N2763 C2756 1.356 . S
N2763 H2766 0.984 . S
N2763 H2767 0.985 . S
H2764 N2759 0.984 . S
H2765 N2759 0.985 . S
H2766 N2763 0.984 . S
H2767 N2763 0.985 . S
H2768 N2762 0.984 . S
H2769 N2762 0.984 . S
H2770 N2758 0.984 . S
H2771 N2758 0.985 . S
C2772 C2773 1.363 . S
C2772 C2778 1.379 . S
C2772 N2780 1.356 . S
C2773 C2772 1.363 . S
C2773 C2779 1.363 . S
C2774 C2775 1.363 . S
C2774 C2779 1.379 . S
C2774 N2781 1.356 . S
C2775 C2774 1.363 . S
C2775 C2778 1.363 . S
N2776 C2778 1.356 . S
N2776 H2788 0.984 . S
N2776 H2789 0.985 . S
N2777 C2779 1.356 . S
N2777 H2782 0.984 . S
N2777 H2783 0.985 . S
C2778 C2772 1.379 . S
C2778 C2775 1.363 . S
C2778 N2776 1.356 . S
C2779 C2773 1.363 . S
C2779 C2774 1.379 . S
C2779 N2777 1.356 . S
N2780 C2772 1.356 . S
N2780 H2786 0.984 . S
N2780 H2787 0.984 . S
N2781 C2774 1.356 . S
N2781 H2784 0.984 . S
N2781 H2785 0.985 . S
H2782 N2777 0.984 . S
H2783 N2777 0.985 . S
H2784 N2781 0.984 . S
H2785 N2781 0.985 . S
H2786 N2780 0.984 . S
H2787 N2780 0.984 . S
H2788 N2776 0.984 . S
H2789 N2776 0.985 . S
C2790 C2791 1.363 . S
C2790 C2796 1.379 . S
C2790 N2798 1.356 . S
C2791 C2790 1.363 . S
C2791 C2797 1.363 . S
C2792 C2793 1.363 . S
C2792 C2797 1.379 . S
C2792 N2799 1.356 . S
C2793 C2792 1.363 . S
C2793 C2796 1.363 . S
N2794 C2796 1.356 . S
N2794 H2806 0.984 . S
N2794 H2807 0.985 . S
N2795 C2797 1.356 . S
N2795 H2800 0.984 . S
N2795 H2801 0.985 . S
C2796 C2790 1.379 . S
C2796 C2793 1.363 . S
C2796 N2794 1.356 . S
C2797 C2791 1.363 . S
C2797 C2792 1.379 . S
C2797 N2795 1.356 . S
N2798 C2790 1.356 . S
N2798 H2804 0.984 . S
N2798 H2805 0.984 . S
N2799 C2792 1.356 . S
N2799 H2802 0.984 . S
N2799 H2803 0.985 . S
H2800 N2795 0.984 . S
H2801 N2795 0.985 . S
H2802 N2799 0.984 . S
H2803 N2799 0.985 . S
H2804 N2798 0.984 . S
H2805 N2798 0.984 . S
H2806 N2794 0.984 . S
H2807 N2794 0.985 . S
C2808 C2809 1.363 . S
C2808 C2814 1.379 . S
C2808 N2816 1.356 . S
C2809 C2808 1.363 . S
C2809 C2815 1.363 . S
C2810 C2811 1.363 . S
C2810 C2815 1.379 . S
C2810 N2817 1.356 . S
C2811 C2810 1.363 . S
C2811 C2814 1.363 . S
N2812 C2814 1.356 . S
N2812 H2824 0.984 . S
N2812 H2825 0.985 . S
N2813 C2815 1.356 . S
N2813 H2818 0.984 . S
N2813 H2819 0.985 . S
C2814 C2808 1.379 . S
C2814 C2811 1.363 . S
C2814 N2812 1.356 . S
C2815 C2809 1.363 . S
C2815 C2810 1.379 . S
C2815 N2813 1.356 . S
N2816 C2808 1.356 . S
N2816 H2822 0.984 . S
N2816 H2823 0.984 . S
N2817 C2810 1.356 . S
N2817 H2820 0.984 . S
N2817 H2821 0.985 . S
H2818 N2813 0.984 . S
H2819 N2813 0.985 . S
H2820 N2817 0.984 . S
H2821 N2817 0.985 . S
H2822 N2816 0.984 . S
H2823 N2816 0.984 . S
H2824 N2812 0.984 . S
H2825 N2812 0.985 . S
C2826 C2827 1.363 . S
C2826 C2832 1.379 . S
C2826 N2834 1.356 . S
C2827 C2826 1.363 . S
C2827 C2833 1.363 . S
C2828 C2829 1.363 . S
C2828 C2833 1.379 . S
C2828 N2835 1.356 . S
C2829 C2828 1.363 . S
C2829 C2832 1.363 . S
N2830 C2832 1.356 . S
N2830 H2842 0.984 . S
N2830 H2843 0.985 . S
N2831 C2833 1.356 . S
N2831 H2836 0.984 . S
N2831 H2837 0.985 . S
C2832 C2826 1.379 . S
C2832 C2829 1.363 . S
C2832 N2830 1.356 . S
C2833 C2827 1.363 . S
C2833 C2828 1.379 . S
C2833 N2831 1.356 . S
N2834 C2826 1.356 . S
N2834 H2840 0.984 . S
N2834 H2841 0.984 . S
N2835 C2828 1.356 . S
N2835 H2838 0.984 . S
N2835 H2839 0.985 . S
H2836 N2831 0.984 . S
H2837 N2831 0.985 . S
H2838 N2835 0.984 . S
H2839 N2835 0.985 . S
H2840 N2834 0.984 . S
H2841 N2834 0.984 . S
H2842 N2830 0.984 . S
H2843 N2830 0.985 . S
C2844 C2845 1.363 . S
C2844 C2850 1.379 . S
C2844 N2852 1.356 . S
C2845 C2844 1.363 . S
C2845 C2851 1.363 . S
C2846 C2847 1.363 . S
C2846 C2851 1.379 . S
C2846 N2853 1.356 . S
C2847 C2846 1.363 . S
C2847 C2850 1.363 . S
N2848 C2850 1.356 . S
N2848 H2860 0.984 . S
N2848 H2861 0.985 . S
N2849 C2851 1.356 . S
N2849 H2854 0.984 . S
N2849 H2855 0.985 . S
C2850 C2844 1.379 . S
C2850 C2847 1.363 . S
C2850 N2848 1.356 . S
C2851 C2845 1.363 . S
C2851 C2846 1.379 . S
C2851 N2849 1.356 . S
N2852 C2844 1.356 . S
N2852 H2858 0.984 . S
N2852 H2859 0.984 . S
N2853 C2846 1.356 . S
N2853 H2856 0.984 . S
N2853 H2857 0.985 . S
H2854 N2849 0.984 . S
H2855 N2849 0.985 . S
H2856 N2853 0.984 . S
H2857 N2853 0.985 . S
H2858 N2852 0.984 . S
H2859 N2852 0.984 . S
H2860 N2848 0.984 . S
H2861 N2848 0.985 . S
C2862 C2863 1.363 . S
C2862 C2868 1.379 . S
C2862 N2870 1.356 . S
C2863 C2862 1.363 . S
C2863 C2869 1.363 . S
C2864 C2865 1.363 . S
C2864 C2869 1.379 . S
C2864 N2871 1.356 . S
C2865 C2864 1.363 . S
C2865 C2868 1.363 . S
N2866 C2868 1.356 . S
N2866 H2878 0.984 . S
N2866 H2879 0.985 . S
N2867 C2869 1.356 . S
N2867 H2872 0.984 . S
N2867 H2873 0.985 . S
C2868 C2862 1.379 . S
C2868 C2865 1.363 . S
C2868 N2866 1.356 . S
C2869 C2863 1.363 . S
C2869 C2864 1.379 . S
C2869 N2867 1.356 . S
N2870 C2862 1.356 . S
N2870 H2876 0.984 . S
N2870 H2877 0.984 . S
N2871 C2864 1.356 . S
N2871 H2874 0.984 . S
N2871 H2875 0.985 . S
H2872 N2867 0.984 . S
H2873 N2867 0.985 . S
H2874 N2871 0.984 . S
H2875 N2871 0.985 . S
H2876 N2870 0.984 . S
H2877 N2870 0.984 . S
H2878 N2866 0.984 . S
H2879 N2866 0.985 . S
C2880 C2881 1.363 . S
C2880 C2886 1.379 . S
C2880 N2888 1.356 . S
C2881 C2880 1.363 . S
C2881 C2887 1.363 . S
C2882 C2883 1.363 . S
C2882 C2887 1.379 . S
C2882 N2889 1.356 . S
C2883 C2882 1.363 . S
C2883 C2886 1.363 . S
N2884 C2886 1.356 . S
N2884 H2896 0.984 . S
N2884 H2897 0.985 . S
N2885 C2887 1.356 . S
N2885 H2890 0.984 . S
N2885 H2891 0.985 . S
C2886 C2880 1.379 . S
C2886 C2883 1.363 . S
C2886 N2884 1.356 . S
C2887 C2881 1.363 . S
C2887 C2882 1.379 . S
C2887 N2885 1.356 . S
N2888 C2880 1.356 . S
N2888 H2894 0.984 . S
N2888 H2895 0.984 . S
N2889 C2882 1.356 . S
N2889 H2892 0.984 . S
N2889 H2893 0.985 . S
H2890 N2885 0.984 . S
H2891 N2885 0.985 . S
H2892 N2889 0.984 . S
H2893 N2889 0.985 . S
H2894 N2888 0.984 . S
H2895 N2888 0.984 . S
H2896 N2884 0.984 . S
H2897 N2884 0.985 . S
C2898 C2899 1.363 . S
C2898 C2904 1.379 . S
C2898 N2906 1.356 . S
C2899 C2898 1.363 . S
C2899 C2905 1.363 . S
C2900 C2901 1.363 . S
C2900 C2905 1.379 . S
C2900 N2907 1.356 . S
C2901 C2900 1.363 . S
C2901 C2904 1.363 . S
N2902 C2904 1.356 . S
N2902 H2914 0.984 . S
N2902 H2915 0.985 . S
N2903 C2905 1.356 . S
N2903 H2908 0.984 . S
N2903 H2909 0.985 . S
C2904 C2898 1.379 . S
C2904 C2901 1.363 . S
C2904 N2902 1.356 . S
C2905 C2899 1.363 . S
C2905 C2900 1.379 . S
C2905 N2903 1.356 . S
N2906 C2898 1.356 . S
N2906 H2912 0.984 . S
N2906 H2913 0.984 . S
N2907 C2900 1.356 . S
N2907 H2910 0.984 . S
N2907 H2911 0.985 . S
H2908 N2903 0.984 . S
H2909 N2903 0.985 . S
H2910 N2907 0.984 . S
H2911 N2907 0.985 . S
H2912 N2906 0.984 . S
H2913 N2906 0.984 . S
H2914 N2902 0.984 . S
H2915 N2902 0.985 . S
C2916 C2917 1.363 . S
C2916 C2922 1.379 . S
C2916 N2924 1.356 . S
C2917 C2916 1.363 . S
C2917 C2923 1.363 . S
C2918 C2919 1.363 . S
C2918 C2923 1.379 . S
C2918 N2925 1.356 . S
C2919 C2918 1.363 . S
C2919 C2922 1.363 . S
N2920 C2922 1.356 . S
N2920 H2932 0.984 . S
N2920 H2933 0.985 . S
N2921 C2923 1.356 . S
N2921 H2926 0.984 . S
N2921 H2927 0.985 . S
C2922 C2916 1.379 . S
C2922 C2919 1.363 . S
C2922 N2920 1.356 . S
C2923 C2917 1.363 . S
C2923 C2918 1.379 . S
C2923 N2921 1.356 . S
N2924 C2916 1.356 . S
N2924 H2930 0.984 . S
N2924 H2931 0.984 . S
N2925 C2918 1.356 . S
N2925 H2928 0.984 . S
N2925 H2929 0.985 . S
H2926 N2921 0.984 . S
H2927 N2921 0.985 . S
H2928 N2925 0.984 . S
H2929 N2925 0.985 . S
H2930 N2924 0.984 . S
H2931 N2924 0.984 . S
H2932 N2920 0.984 . S
H2933 N2920 0.985 . S
C2934 C2935 1.363 . S
C2934 C2940 1.379 . S
C2934 N2942 1.356 . S
C2935 C2934 1.363 . S
C2935 C2941 1.363 . S
C2936 C2937 1.363 . S
C2936 C2941 1.379 . S
C2936 N2943 1.356 . S
C2937 C2936 1.363 . S
C2937 C2940 1.363 . S
N2938 C2940 1.356 . S
N2938 H2950 0.984 . S
N2938 H2951 0.985 . S
N2939 C2941 1.356 . S
N2939 H2944 0.984 . S
N2939 H2945 0.985 . S
C2940 C2934 1.379 . S
C2940 C2937 1.363 . S
C2940 N2938 1.356 . S
C2941 C2935 1.363 . S
C2941 C2936 1.379 . S
C2941 N2939 1.356 . S
N2942 C2934 1.356 . S
N2942 H2948 0.984 . S
N2942 H2949 0.984 . S
N2943 C2936 1.356 . S
N2943 H2946 0.984 . S
N2943 H2947 0.985 . S
H2944 N2939 0.984 . S
H2945 N2939 0.985 . S
H2946 N2943 0.984 . S
H2947 N2943 0.985 . S
H2948 N2942 0.984 . S
H2949 N2942 0.984 . S
H2950 N2938 0.984 . S
H2951 N2938 0.985 . S
C2952 C2953 1.363 . S
C2952 C2958 1.379 . S
C2952 N2960 1.356 . S
C2953 C2952 1.363 . S
C2953 C2959 1.363 . S
C2954 C2955 1.363 . S
C2954 C2959 1.379 . S
C2954 N2961 1.356 . S
C2955 C2954 1.363 . S
C2955 C2958 1.363 . S
N2956 C2958 1.356 . S
N2956 H2968 0.984 . S
N2956 H2969 0.985 . S
N2957 C2959 1.356 . S
N2957 H2962 0.984 . S
N2957 H2963 0.985 . S
C2958 C2952 1.379 . S
C2958 C2955 1.363 . S
C2958 N2956 1.356 . S
C2959 C2953 1.363 . S
C2959 C2954 1.379 . S
C2959 N2957 1.356 . S
N2960 C2952 1.356 . S
N2960 H2966 0.984 . S
N2960 H2967 0.984 . S
N2961 C2954 1.356 . S
N2961 H2964 0.984 . S
N2961 H2965 0.985 . S
H2962 N2957 0.984 . S
H2963 N2957 0.985 . S
H2964 N2961 0.984 . S
H2965 N2961 0.985 . S
H2966 N2960 0.984 . S
H2967 N2960 0.984 . S
H2968 N2956 0.984 . S
H2969 N2956 0.985 . S
C2970 C2971 1.363 . S
C2970 C2976 1.379 . S
C2970 N2978 1.356 . S
C2971 C2970 1.363 . S
C2971 C2977 1.363 . S
C2972 C2973 1.363 . S
C2972 C2977 1.379 . S
C2972 N2979 1.356 . S
C2973 C2972 1.363 . S
C2973 C2976 1.363 . S
N2974 C2976 1.356 . S
N2974 H2986 0.984 . S
N2974 H2987 0.985 . S
N2975 C2977 1.356 . S
N2975 H2980 0.984 . S
N2975 H2981 0.985 . S
C2976 C2970 1.379 . S
C2976 C2973 1.363 . S
C2976 N2974 1.356 . S
C2977 C2971 1.363 . S
C2977 C2972 1.379 . S
C2977 N2975 1.356 . S
N2978 C2970 1.356 . S
N2978 H2984 0.984 . S
N2978 H2985 0.984 . S
N2979 C2972 1.356 . S
N2979 H2982 0.984 . S
N2979 H2983 0.985 . S
H2980 N2975 0.984 . S
H2981 N2975 0.985 . S
H2982 N2979 0.984 . S
H2983 N2979 0.985 . S
H2984 N2978 0.984 . S
H2985 N2978 0.984 . S
H2986 N2974 0.984 . S
H2987 N2974 0.985 . S
C2988 C2989 1.363 . S
C2988 C2994 1.379 . S
C2988 N2996 1.356 1_556 S
C2989 C2988 1.363 . S
C2989 C2995 1.363 . S
C2990 C2991 1.363 . S
C2990 C2995 1.379 . S
C2990 N2997 1.356 . S
C2991 C2990 1.363 . S
C2991 C2994 1.363 . S
N2992 C2994 1.356 . S
N2992 H3004 0.984 . S
N2992 H3005 0.985 . S
N2993 C2995 1.356 . S
N2993 H2998 0.984 . S
N2993 H2999 0.985 . S
C2994 C2988 1.379 . S
C2994 C2991 1.363 . S
C2994 N2992 1.356 . S
C2995 C2989 1.363 . S
C2995 C2990 1.379 . S
C2995 N2993 1.356 . S
N2996 C2988 1.356 1_554 S
N2996 H3002 0.984 . S
N2996 H3003 0.984 . S
N2997 C2990 1.356 . S
N2997 H3000 0.984 . S
N2997 H3001 0.985 . S
H2998 N2993 0.984 . S
H2999 N2993 0.985 . S
H3000 N2997 0.984 . S
H3001 N2997 0.985 . S
H3002 N2996 0.984 . S
H3003 N2996 0.984 . S
H3004 N2992 0.984 . S
H3005 N2992 0.985 . S
C3006 C3007 1.363 . S
C3006 C3012 1.379 . S
C3006 N3014 1.356 . S
C3007 C3006 1.363 . S
C3007 C3013 1.363 . S
C3008 C3009 1.363 . S
C3008 C3013 1.379 . S
C3008 N3015 1.356 . S
C3009 C3008 1.363 . S
C3009 C3012 1.363 . S
N3010 C3012 1.356 . S
N3010 H3022 0.984 . S
N3010 H3023 0.985 . S
N3011 C3013 1.400 . S
N3011 H3016 0.975 1_556 S
N3011 H3017 0.951 1_556 S
C3012 C3006 1.379 . S
C3012 C3009 1.363 . S
C3012 N3010 1.356 . S
C3013 C3007 1.363 . S
C3013 C3008 1.379 . S
C3013 N3011 1.400 . S
N3014 C3006 1.356 . S
N3014 H3020 0.984 . S
N3014 H3021 0.984 . S
N3015 C3008 1.356 . S
N3015 H3018 0.984 . S
N3015 H3019 0.985 . S
H3016 N3011 0.975 1_554 S
H3017 N3011 0.951 1_554 S
H3018 N3015 0.984 . S
H3019 N3015 0.985 . S
H3020 N3014 0.984 . S
H3021 N3014 0.984 . S
H3022 N3010 0.984 . S
H3023 N3010 0.985 . S
C3024 C3025 1.363 . S
C3024 C3030 1.379 . S
C3024 N3032 1.356 . S
C3025 C3024 1.363 . S
C3025 C3031 1.363 . S
C3026 C3027 1.363 . S
C3026 C3031 1.379 . S
C3026 N3033 1.356 . S
C3027 C3026 1.363 . S
C3027 C3030 1.363 . S
N3028 C3030 1.356 . S
N3028 H3040 0.984 . S
N3028 H3041 0.985 . S
N3029 C3031 1.356 . S
N3029 H3034 0.984 . S
N3029 H3035 0.985 . S
C3030 C3024 1.379 . S
C3030 C3027 1.363 . S
C3030 N3028 1.356 . S
C3031 C3025 1.363 . S
C3031 C3026 1.379 . S
C3031 N3029 1.356 . S
N3032 C3024 1.356 . S
N3032 H3038 0.984 . S
N3032 H3039 0.984 . S
N3033 C3026 1.356 . S
N3033 H3036 0.984 . S
N3033 H3037 0.985 . S
H3034 N3029 0.984 . S
H3035 N3029 0.985 . S
H3036 N3033 0.984 . S
H3037 N3033 0.985 . S
H3038 N3032 0.984 . S
H3039 N3032 0.984 . S
H3040 N3028 0.984 . S
H3041 N3028 0.985 . S
C3042 C3043 1.363 . S
C3042 C3048 1.379 . S
C3042 N3050 1.356 . S
C3043 C3042 1.363 . S
C3043 C3049 1.363 . S
C3044 C3045 1.363 . S
C3044 C3049 1.379 . S
C3044 N3051 1.356 . S
C3045 C3044 1.363 . S
C3045 C3048 1.363 . S
N3046 C3048 1.356 . S
N3046 H3058 0.984 . S
N3046 H3059 0.985 . S
N3047 C3049 1.356 . S
N3047 H3052 0.984 . S
N3047 H3053 0.985 . S
C3048 C3042 1.379 . S
C3048 C3045 1.363 . S
C3048 N3046 1.356 . S
C3049 C3043 1.363 . S
C3049 C3044 1.379 . S
C3049 N3047 1.356 . S
N3050 C3042 1.356 . S
N3050 H3056 0.984 1_655 S
N3050 H3057 0.984 . S
N3051 C3044 1.356 . S
N3051 H3054 0.984 . S
N3051 H3055 0.985 . S
H3052 N3047 0.984 . S
H3053 N3047 0.985 . S
H3054 N3051 0.984 . S
H3055 N3051 0.985 . S
H3056 N3050 0.984 1_455 S
H3057 N3050 0.984 . S
H3058 N3046 0.984 . S
H3059 N3046 0.985 . S
C3060 C3061 1.363 . S
C3060 C3066 1.379 . S
C3060 N3068 1.356 . S
C3061 C3060 1.363 . S
C3061 C3067 1.363 . S
C3062 C3063 1.363 . S
C3062 C3067 1.379 . S
C3062 N3069 1.356 . S
C3063 C3062 1.363 . S
C3063 C3066 1.363 . S
N3064 C3066 1.356 . S
N3064 H3076 0.984 . S
N3064 H3077 0.985 . S
N3065 C3067 1.356 . S
N3065 H3070 0.984 . S
N3065 H3071 0.985 . S
C3066 C3060 1.379 . S
C3066 C3063 1.363 . S
C3066 N3064 1.356 . S
C3067 C3061 1.363 . S
C3067 C3062 1.379 . S
C3067 N3065 1.356 . S
N3068 C3060 1.356 . S
N3068 H3074 0.984 . S
N3068 H3075 0.984 . S
N3069 C3062 1.356 . S
N3069 H3072 0.984 . S
N3069 H3073 0.985 . S
H3070 N3065 0.984 . S
H3071 N3065 0.985 . S
H3072 N3069 0.984 . S
H3073 N3069 0.985 . S
H3074 N3068 0.984 . S
H3075 N3068 0.984 . S
H3076 N3064 0.984 . S
H3077 N3064 0.985 . S
C3078 C3079 1.363 . S
C3078 C3084 1.379 . S
C3078 N3086 1.356 1_556 S
C3079 C3078 1.363 . S
C3079 C3085 1.363 . S
C3080 C3081 1.363 . S
C3080 C3085 1.379 . S
C3080 N3087 1.356 . S
C3081 C3080 1.363 . S
C3081 C3084 1.363 . S
N3082 C3084 1.356 . S
N3082 H3094 0.984 . S
N3082 H3095 0.985 . S
N3083 C3085 1.356 . S
N3083 H3088 0.984 . S
N3083 H3089 0.985 . S
C3084 C3078 1.379 . S
C3084 C3081 1.363 . S
C3084 N3082 1.356 . S
C3085 C3079 1.363 . S
C3085 C3080 1.379 . S
C3085 N3083 1.356 . S
N3086 C3078 1.356 1_554 S
N3086 H3092 0.984 . S
N3086 H3093 0.984 . S
N3087 C3080 1.356 . S
N3087 H3090 0.984 . S
N3087 H3091 0.985 . S
H3088 N3083 0.984 . S
H3089 N3083 0.985 . S
H3090 N3087 0.984 . S
H3091 N3087 0.985 . S
H3092 N3086 0.984 . S
H3093 N3086 0.984 . S
H3094 N3082 0.984 . S
H3095 N3082 0.985 . S
C3096 C3097 1.363 . S
C3096 C3102 1.379 . S
C3096 N3104 1.356 . S
C3097 C3096 1.363 . S
C3097 C3103 1.363 . S
C3098 C3099 1.363 . S
C3098 C3103 1.379 . S
C3098 N3105 1.356 . S
C3099 C3098 1.363 . S
C3099 C3102 1.363 . S
N3100 C3102 1.356 . S
N3100 H3112 0.984 . S
N3100 H3113 0.985 . S
N3101 C3103 1.356 . S
N3101 H3106 0.984 . S
N3101 H3107 0.985 1_565 S
C3102 C3096 1.379 . S
C3102 C3099 1.363 . S
C3102 N3100 1.356 . S
C3103 C3097 1.363 . S
C3103 C3098 1.379 . S
C3103 N3101 1.356 . S
N3104 C3096 1.356 . S
N3104 H3110 0.984 . S
N3104 H3111 0.984 . S
N3105 C3098 1.356 . S
N3105 H3108 0.984 . S
N3105 H3109 0.985 . S
H3106 N3101 0.984 . S
H3107 N3101 0.985 1_545 S
H3108 N3105 0.984 . S
H3109 N3105 0.985 . S
H3110 N3104 0.984 . S
H3111 N3104 0.984 . S
H3112 N3100 0.984 . S
H3113 N3100 0.985 . S
C3114 C3115 1.363 . S
C3114 C3120 1.379 . S
C3114 N3122 1.356 . S
C3115 C3114 1.363 . S
C3115 C3121 1.363 . S
C3116 C3117 1.363 . S
C3116 C3121 1.379 . S
C3116 N3123 1.356 . S
C3117 C3116 1.363 . S
C3117 C3120 1.363 . S
N3118 C3120 1.356 . S
N3118 H3130 0.984 . S
N3118 H3131 0.985 . S
N3119 C3121 1.356 . S
N3119 H3124 0.984 . S
N3119 H3125 0.985 1_455 S
C3120 C3114 1.379 . S
C3120 C3117 1.363 . S
C3120 N3118 1.356 . S
C3121 C3115 1.363 . S
C3121 C3116 1.379 . S
C3121 N3119 1.356 . S
N3122 C3114 1.356 . S
N3122 H3128 0.984 . S
N3122 H3129 0.984 . S
N3123 C3116 1.356 . S
N3123 H3126 0.984 . S
N3123 H3127 0.985 . S
H3124 N3119 0.984 . S
H3125 N3119 0.985 1_655 S
H3126 N3123 0.984 . S
H3127 N3123 0.985 . S
H3128 N3122 0.984 . S
H3129 N3122 0.984 . S
H3130 N3118 0.984 . S
H3131 N3118 0.985 . S
C3132 C3133 1.363 . S
C3132 C3138 1.379 . S
C3132 N3140 1.356 . S
C3133 C3132 1.363 . S
C3133 C3139 1.363 . S
C3134 C3135 1.363 . S
C3134 C3139 1.379 . S
C3134 N3141 1.356 . S
C3135 C3134 1.363 . S
C3135 C3138 1.363 . S
N3136 C3138 1.356 . S
N3136 H3148 0.984 . S
N3136 H3149 0.985 . S
N3137 C3139 1.356 . S
N3137 H3142 0.984 . S
N3137 H3143 0.985 . S
C3138 C3132 1.379 . S
C3138 C3135 1.363 . S
C3138 N3136 1.356 . S
C3139 C3133 1.363 . S
C3139 C3134 1.379 . S
C3139 N3137 1.356 . S
N3140 C3132 1.356 . S
N3140 H3146 0.984 1_554 S
N3140 H3147 0.984 . S
N3141 C3134 1.356 . S
N3141 H3144 0.984 . S
N3141 H3145 0.985 . S
H3142 N3137 0.984 . S
H3143 N3137 0.985 . S
H3144 N3141 0.984 . S
H3145 N3141 0.985 . S
H3146 N3140 0.984 1_556 S
H3147 N3140 0.984 . S
H3148 N3136 0.984 . S
H3149 N3136 0.985 . S
C3150 C3151 1.363 . S
C3150 C3156 1.379 . S
C3150 N3158 1.356 . S
C3151 C3150 1.363 . S
C3151 C3157 1.363 . S
C3152 C3153 1.363 . S
C3152 C3157 1.379 . S
C3152 N3159 1.356 . S
C3153 C3152 1.363 . S
C3153 C3156 1.363 . S
N3154 C3156 1.356 . S
N3154 H3166 0.984 . S
N3154 H3167 0.985 . S
N3155 C3157 1.356 . S
N3155 H3160 0.984 . S
N3155 H3161 0.985 . S
C3156 C3150 1.379 . S
C3156 C3153 1.363 . S
C3156 N3154 1.356 . S
C3157 C3151 1.363 . S
C3157 C3152 1.379 . S
C3157 N3155 1.356 . S
N3158 C3150 1.356 . S
N3158 H3164 0.984 . S
N3158 H3165 0.984 . S
N3159 C3152 1.356 . S
N3159 H3162 0.984 . S
N3159 H3163 0.985 . S
H3160 N3155 0.984 . S
H3161 N3155 0.985 . S
H3162 N3159 0.984 . S
H3163 N3159 0.985 . S
H3164 N3158 0.984 . S
H3165 N3158 0.984 . S
H3166 N3154 0.984 . S
H3167 N3154 0.985 . S
C3168 C3169 1.363 . S
C3168 C3174 1.379 . S
C3168 N3176 1.356 . S
C3169 C3168 1.363 . S
C3169 C3175 1.363 . S
C3170 C3171 1.363 . S
C3170 C3175 1.379 . S
C3170 N3177 1.356 . S
C3171 C3170 1.363 . S
C3171 C3174 1.363 . S
N3172 C3174 1.356 . S
N3172 H3184 0.984 . S
N3172 H3185 0.985 . S
N3173 C3175 1.356 . S
N3173 H3178 0.984 . S
N3173 H3179 0.985 . S
C3174 C3168 1.379 . S
C3174 C3171 1.363 . S
C3174 N3172 1.356 . S
C3175 C3169 1.363 . S
C3175 C3170 1.379 . S
C3175 N3173 1.356 . S
N3176 C3168 1.356 . S
N3176 H3182 0.984 . S
N3176 H3183 0.984 . S
N3177 C3170 1.356 . S
N3177 H3180 0.984 . S
N3177 H3181 0.985 . S
H3178 N3173 0.984 . S
H3179 N3173 0.985 . S
H3180 N3177 0.984 . S
H3181 N3177 0.985 . S
H3182 N3176 0.984 . S
H3183 N3176 0.984 . S
H3184 N3172 0.984 . S
H3185 N3172 0.985 . S
C3186 C3187 1.363 . S
C3186 C3192 1.379 . S
C3186 N3194 1.356 . S
C3187 C3186 1.363 . S
C3187 C3193 1.363 . S
C3188 C3189 1.363 . S
C3188 C3193 1.379 . S
C3188 N3195 1.356 . S
C3189 C3188 1.363 . S
C3189 C3192 1.363 . S
N3190 C3192 1.356 . S
N3190 H3202 0.984 . S
N3190 H3203 0.985 . S
N3191 C3193 1.356 . S
N3191 H3196 0.984 . S
N3191 H3197 0.985 . S
C3192 C3186 1.379 . S
C3192 C3189 1.363 . S
C3192 N3190 1.356 . S
C3193 C3187 1.363 . S
C3193 C3188 1.379 . S
C3193 N3191 1.356 . S
N3194 C3186 1.356 . S
N3194 H3200 0.984 . S
N3194 H3201 0.984 . S
N3195 C3188 1.356 . S
N3195 H3198 0.984 . S
N3195 H3199 0.985 . S
H3196 N3191 0.984 . S
H3197 N3191 0.985 . S
H3198 N3195 0.984 . S
H3199 N3195 0.985 . S
H3200 N3194 0.984 . S
H3201 N3194 0.984 . S
H3202 N3190 0.984 . S
H3203 N3190 0.985 . S
C3204 C3205 1.363 . S
C3204 C3210 1.379 . S
C3204 N3212 1.356 1_455 S
C3205 C3204 1.363 . S
C3205 C3211 1.363 . S
C3206 C3207 1.363 . S
C3206 C3211 1.379 . S
C3206 N3213 1.356 . S
C3207 C3206 1.363 . S
C3207 C3210 1.363 . S
N3208 C3210 1.356 1_655 S
N3208 H3220 0.984 . S
N3208 H3221 0.985 . S
N3209 C3211 1.356 . S
N3209 H3214 0.984 . S
N3209 H3215 0.985 . S
C3210 C3204 1.379 . S
C3210 C3207 1.363 . S
C3210 N3208 1.356 1_455 S
C3211 C3205 1.363 . S
C3211 C3206 1.379 . S
C3211 N3209 1.356 . S
N3212 C3204 1.356 1_655 S
N3212 H3218 0.984 . S
N3212 H3219 0.984 1_655 S
N3213 C3206 1.356 . S
N3213 H3216 0.984 . S
N3213 H3217 0.985 . S
H3214 N3209 0.984 . S
H3215 N3209 0.985 . S
H3216 N3213 0.984 . S
H3217 N3213 0.985 . S
H3218 N3212 0.984 . S
H3219 N3212 0.984 1_455 S
H3220 N3208 0.984 . S
H3221 N3208 0.985 . S
C3222 C3223 1.363 . S
C3222 C3228 1.379 . S
C3222 N3230 1.356 . S
C3223 C3222 1.363 . S
C3223 C3229 1.363 . S
C3224 C3225 1.363 . S
C3224 C3229 1.379 . S
C3224 N3231 1.356 . S
C3225 C3224 1.363 . S
C3225 C3228 1.363 . S
N3226 C3228 1.356 . S
N3226 H3238 0.984 . S
N3226 H3239 0.985 . S
N3227 C3229 1.356 . S
N3227 H3232 0.984 . S
N3227 H3233 0.985 . S
C3228 C3222 1.379 . S
C3228 C3225 1.363 . S
C3228 N3226 1.356 . S
C3229 C3223 1.363 . S
C3229 C3224 1.379 . S
C3229 N3227 1.356 . S
N3230 C3222 1.356 . S
N3230 H3236 0.984 . S
N3230 H3237 0.984 . S
N3231 C3224 1.356 . S
N3231 H3234 0.984 . S
N3231 H3235 0.985 . S
H3232 N3227 0.984 . S
H3233 N3227 0.985 . S
H3234 N3231 0.984 . S
H3235 N3231 0.985 . S
H3236 N3230 0.984 . S
H3237 N3230 0.984 . S
H3238 N3226 0.984 . S
H3239 N3226 0.985 . S
C3240 C3241 1.363 . S
C3240 C3246 1.379 . S
C3240 N3248 1.356 . S
C3241 C3240 1.363 . S
C3241 C3247 1.363 1_565 S
C3242 C3243 1.363 1_545 S
C3242 C3247 1.379 . S
C3242 N3249 1.356 . S
C3243 C3242 1.363 1_565 S
C3243 C3246 1.363 . S
N3244 C3246 1.356 . S
N3244 H3256 0.984 . S
N3244 H3257 0.985 . S
N3245 C3247 1.356 . S
N3245 H3250 0.984 . S
N3245 H3251 0.985 . S
C3246 C3240 1.379 . S
C3246 C3243 1.363 . S
C3246 N3244 1.356 . S
C3247 C3241 1.363 1_545 S
C3247 C3242 1.379 . S
C3247 N3245 1.356 . S
N3248 C3240 1.356 . S
N3248 H3254 0.984 . S
N3248 H3255 0.984 . S
N3249 C3242 1.356 . S
N3249 H3252 0.984 . S
N3249 H3253 0.985 . S
H3250 N3245 0.984 . S
H3251 N3245 0.985 . S
H3252 N3249 0.984 . S
H3253 N3249 0.985 . S
H3254 N3248 0.984 . S
H3255 N3248 0.984 . S
H3256 N3244 0.984 . S
H3257 N3244 0.985 . S
C3258 C3259 1.363 . S
C3258 C3264 1.379 1_565 S
C3258 N3266 1.356 1_565 S
C3259 C3258 1.363 . S
C3259 C3265 1.363 . S
C3260 C3261 1.363 . S
C3260 C3265 1.379 . S
C3260 N3267 1.356 . S
C3261 C3260 1.363 . S
C3261 C3264 1.363 1_565 S
N3262 C3264 1.356 . S
N3262 H3274 0.984 . S
N3262 H3275 0.985 . S
N3263 C3265 1.356 . S
N3263 H3268 0.984 . S
N3263 H3269 0.985 . S
C3264 C3258 1.379 1_545 S
C3264 C3261 1.363 1_545 S
C3264 N3262 1.356 . S
C3265 C3259 1.363 . S
C3265 C3260 1.379 . S
C3265 N3263 1.356 . S
N3266 C3258 1.356 1_545 S
N3266 H3272 0.984 . S
N3266 H3273 0.984 1_545 S
N3267 C3260 1.356 . S
N3267 H3270 0.984 . S
N3267 H3271 0.985 . S
H3268 N3263 0.984 . S
H3269 N3263 0.985 . S
H3270 N3267 0.984 . S
H3271 N3267 0.985 . S
H3272 N3266 0.984 . S
H3273 N3266 0.984 1_565 S
H3274 N3262 0.984 . S
H3275 N3262 0.985 . S
C3276 C3277 1.363 1_655 S
C3276 C3282 1.379 . S
C3276 N3284 1.356 . S
C3277 C3276 1.363 1_455 S
C3277 C3283 1.363 . S
C3278 C3279 1.363 . S
C3278 C3283 1.379 . S
C3278 N3285 1.356 . S
C3279 C3278 1.363 . S
C3279 C3282 1.363 1_455 S
N3280 C3282 1.356 . S
N3280 H3292 0.984 . S
N3280 H3293 0.985 . S
N3281 C3283 1.356 . S
N3281 H3286 0.984 . S
N3281 H3287 0.985 . S
C3282 C3276 1.379 . S
C3282 C3279 1.363 1_655 S
C3282 N3280 1.356 . S
C3283 C3277 1.363 . S
C3283 C3278 1.379 . S
C3283 N3281 1.356 . S
N3284 C3276 1.356 . S
N3284 H3290 0.984 . S
N3284 H3291 0.984 . S
N3285 C3278 1.356 . S
N3285 H3288 0.984 . S
N3285 H3289 0.985 . S
H3286 N3281 0.984 . S
H3287 N3281 0.985 . S
H3288 N3285 0.984 . S
H3289 N3285 0.985 . S
H3290 N3284 0.984 . S
H3291 N3284 0.984 . S
H3292 N3280 0.984 . S
H3293 N3280 0.985 . S
C3294 C3295 1.363 . S
C3294 C3300 1.379 . S
C3294 N3302 1.356 . S
C3295 C3294 1.363 . S
C3295 C3301 1.363 . S
C3296 C3297 1.363 . S
C3296 C3301 1.379 . S
C3296 N3303 1.356 . S
C3297 C3296 1.363 . S
C3297 C3300 1.363 . S
N3298 C3300 1.356 . S
N3298 H3310 0.984 . S
N3298 H3311 0.985 . S
N3299 C3301 1.356 . S
N3299 H3304 0.984 . S
N3299 H3305 0.985 . S
C3300 C3294 1.379 . S
C3300 C3297 1.363 . S
C3300 N3298 1.356 . S
C3301 C3295 1.363 . S
C3301 C3296 1.379 . S
C3301 N3299 1.356 . S
N3302 C3294 1.356 . S
N3302 H3308 0.984 . S
N3302 H3309 0.984 . S
N3303 C3296 1.356 . S
N3303 H3306 0.984 . S
N3303 H3307 0.985 . S
H3304 N3299 0.984 . S
H3305 N3299 0.985 . S
H3306 N3303 0.984 . S
H3307 N3303 0.985 . S
H3308 N3302 0.984 . S
H3309 N3302 0.984 . S
H3310 N3298 0.984 . S
H3311 N3298 0.985 . S
C3312 C3313 1.363 . S
C3312 C3318 1.379 . S
C3312 N3320 1.356 . S
C3313 C3312 1.363 . S
C3313 C3319 1.363 . S
C3314 C3315 1.363 . S
C3314 C3319 1.379 . S
C3314 N3321 1.356 . S
C3315 C3314 1.363 . S
C3315 C3318 1.363 . S
N3316 C3318 1.356 . S
N3316 H3328 0.984 . S
N3316 H3329 0.985 . S
N3317 C3319 1.356 . S
N3317 H3322 0.984 . S
N3317 H3323 0.985 . S
C3318 C3312 1.379 . S
C3318 C3315 1.363 . S
C3318 N3316 1.356 . S
C3319 C3313 1.363 . S
C3319 C3314 1.379 . S
C3319 N3317 1.356 . S
N3320 C3312 1.356 . S
N3320 H3326 0.984 . S
N3320 H3327 0.984 . S
N3321 C3314 1.356 . S
N3321 H3324 0.984 . S
N3321 H3325 0.985 . S
H3322 N3317 0.984 . S
H3323 N3317 0.985 . S
H3324 N3321 0.984 . S
H3325 N3321 0.985 . S
H3326 N3320 0.984 . S
H3327 N3320 0.984 . S
H3328 N3316 0.984 . S
H3329 N3316 0.985 . S
C3330 C3331 1.363 . S
C3330 C3336 1.379 . S
C3330 N3338 1.356 . S
C3331 C3330 1.363 . S
C3331 C3337 1.363 . S
C3332 C3333 1.363 . S
C3332 C3337 1.379 . S
C3332 N3339 1.356 . S
C3333 C3332 1.363 . S
C3333 C3336 1.363 . S
N3334 C3336 1.356 . S
N3334 H3346 0.984 . S
N3334 H3347 0.985 . S
N3335 C3337 1.356 . S
N3335 H3340 0.984 . S
N3335 H3341 0.985 . S
C3336 C3330 1.379 . S
C3336 C3333 1.363 . S
C3336 N3334 1.356 . S
C3337 C3331 1.363 . S
C3337 C3332 1.379 . S
C3337 N3335 1.356 . S
N3338 C3330 1.356 . S
N3338 H3344 0.984 . S
N3338 H3345 0.984 . S
N3339 C3332 1.356 . S
N3339 H3342 0.984 . S
N3339 H3343 0.985 . S
H3340 N3335 0.984 . S
H3341 N3335 0.985 . S
H3342 N3339 0.984 . S
H3343 N3339 0.985 . S
H3344 N3338 0.984 . S
H3345 N3338 0.984 . S
H3346 N3334 0.984 . S
H3347 N3334 0.985 . S
C3348 C3349 1.363 . S
C3348 C3354 1.379 . S
C3348 N3356 1.356 . S
C3349 C3348 1.363 . S
C3349 C3355 1.363 . S
C3350 C3351 1.363 . S
C3350 C3355 1.379 . S
C3350 N3357 1.356 . S
C3351 C3350 1.363 . S
C3351 C3354 1.363 . S
N3352 C3354 1.356 . S
N3352 H3364 0.984 . S
N3352 H3365 0.985 . S
N3353 C3355 1.356 . S
N3353 H3358 0.984 . S
N3353 H3359 0.985 . S
C3354 C3348 1.379 . S
C3354 C3351 1.363 . S
C3354 N3352 1.356 . S
C3355 C3349 1.363 . S
C3355 C3350 1.379 . S
C3355 N3353 1.356 . S
N3356 C3348 1.356 . S
N3356 H3362 0.984 . S
N3356 H3363 0.984 . S
N3357 C3350 1.356 . S
N3357 H3360 0.984 . S
N3357 H3361 0.985 . S
H3358 N3353 0.984 . S
H3359 N3353 0.985 . S
H3360 N3357 0.984 . S
H3361 N3357 0.985 . S
H3362 N3356 0.984 . S
H3363 N3356 0.984 . S
H3364 N3352 0.984 . S
H3365 N3352 0.985 . S
C3366 C3367 1.363 . S
C3366 C3372 1.379 . S
C3366 N3374 1.356 . S
C3367 C3366 1.363 . S
C3367 C3373 1.363 1_545 S
C3368 C3369 1.363 1_565 S
C3368 C3373 1.379 . S
C3368 N3375 1.356 . S
C3369 C3368 1.363 1_545 S
C3369 C3372 1.363 . S
N3370 C3372 1.356 . S
N3370 H3382 0.984 . S
N3370 H3383 0.985 . S
N3371 C3373 1.356 . S
N3371 H3376 0.984 . S
N3371 H3377 0.985 . S
C3372 C3366 1.379 . S
C3372 C3369 1.363 . S
C3372 N3370 1.356 . S
C3373 C3367 1.363 1_565 S
C3373 C3368 1.379 . S
C3373 N3371 1.356 . S
N3374 C3366 1.356 . S
N3374 H3380 0.984 . S
N3374 H3381 0.984 . S
N3375 C3368 1.356 . S
N3375 H3378 0.984 . S
N3375 H3379 0.985 . S
H3376 N3371 0.984 . S
H3377 N3371 0.985 . S
H3378 N3375 0.984 . S
H3379 N3375 0.985 . S
H3380 N3374 0.984 . S
H3381 N3374 0.984 . S
H3382 N3370 0.984 . S
H3383 N3370 0.985 . S
C3384 C3385 1.363 . S
C3384 C3390 1.379 . S
C3384 N3392 1.356 . S
C3385 C3384 1.363 . S
C3385 C3391 1.363 1_655 S
C3386 C3387 1.363 1_455 S
C3386 C3391 1.379 . S
C3386 N3393 1.356 . S
C3387 C3386 1.363 1_655 S
C3387 C3390 1.363 . S
N3388 C3390 1.356 . S
N3388 H3400 0.984 . S
N3388 H3401 0.985 . S
N3389 C3391 1.356 . S
N3389 H3394 0.984 . S
N3389 H3395 0.985 . S
C3390 C3384 1.379 . S
C3390 C3387 1.363 . S
C3390 N3388 1.356 . S
C3391 C3385 1.363 1_455 S
C3391 C3386 1.379 . S
C3391 N3389 1.356 . S
N3392 C3384 1.356 . S
N3392 H3398 0.984 . S
N3392 H3399 0.984 . S
N3393 C3386 1.356 . S
N3393 H3396 0.984 . S
N3393 H3397 0.985 . S
H3394 N3389 0.984 . S
H3395 N3389 0.985 . S
H3396 N3393 0.984 . S
H3397 N3393 0.985 . S
H3398 N3392 0.984 . S
H3399 N3392 0.984 . S
H3400 N3388 0.984 . S
H3401 N3388 0.985 . S
C3402 C3403 1.363 . S
C3402 C3408 1.379 . S
C3402 N3410 1.356 . S
C3403 C3402 1.363 . S
C3403 C3409 1.363 . S
C3404 C3405 1.363 . S
C3404 C3409 1.379 . S
C3404 N3411 1.356 . S
C3405 C3404 1.363 . S
C3405 C3408 1.363 . S
N3406 C3408 1.356 . S
N3406 H3418 0.984 . S
N3406 H3419 0.985 . S
N3407 C3409 1.356 . S
N3407 H3412 0.984 . S
N3407 H3413 0.985 . S
C3408 C3402 1.379 . S
C3408 C3405 1.363 . S
C3408 N3406 1.356 . S
C3409 C3403 1.363 . S
C3409 C3404 1.379 . S
C3409 N3407 1.356 . S
N3410 C3402 1.356 . S
N3410 H3416 0.984 . S
N3410 H3417 0.984 . S
N3411 C3404 1.356 . S
N3411 H3414 0.984 . S
N3411 H3415 0.985 . S
H3412 N3407 0.984 . S
H3413 N3407 0.985 . S
H3414 N3411 0.984 . S
H3415 N3411 0.985 . S
H3416 N3410 0.984 . S
H3417 N3410 0.984 . S
H3418 N3406 0.984 . S
H3419 N3406 0.985 . S
C3420 C3421 1.363 . S
C3420 C3426 1.379 . S
C3420 N3428 1.356 . S
C3421 C3420 1.363 . S
C3421 C3427 1.363 . S
C3422 C3423 1.363 . S
C3422 C3427 1.379 . S
C3422 N3429 1.356 . S
C3423 C3422 1.363 . S
C3423 C3426 1.363 . S
N3424 C3426 1.356 . S
N3424 H3436 0.984 . S
N3424 H3437 0.985 . S
N3425 C3427 1.356 . S
N3425 H3430 0.984 . S
N3425 H3431 0.985 . S
C3426 C3420 1.379 . S
C3426 C3423 1.363 . S
C3426 N3424 1.356 . S
C3427 C3421 1.363 . S
C3427 C3422 1.379 . S
C3427 N3425 1.356 . S
N3428 C3420 1.356 . S
N3428 H3434 0.984 . S
N3428 H3435 0.984 . S
N3429 C3422 1.356 . S
N3429 H3432 0.984 . S
N3429 H3433 0.985 . S
H3430 N3425 0.984 . S
H3431 N3425 0.985 . S
H3432 N3429 0.984 . S
H3433 N3429 0.985 . S
H3434 N3428 0.984 . S
H3435 N3428 0.984 . S
H3436 N3424 0.984 . S
H3437 N3424 0.985 . S
C3438 C3439 1.363 . S
C3438 C3444 1.379 . S
C3438 N3446 1.356 . S
C3439 C3438 1.363 . S
C3439 C3445 1.363 . S
C3440 C3441 1.363 . S
C3440 C3445 1.379 . S
C3440 N3447 1.356 . S
C3441 C3440 1.363 . S
C3441 C3444 1.363 . S
N3442 C3444 1.356 . S
N3442 H3454 0.984 . S
N3442 H3455 0.985 . S
N3443 C3445 1.356 . S
N3443 H3448 0.984 . S
N3443 H3449 0.985 . S
C3444 C3438 1.379 . S
C3444 C3441 1.363 . S
C3444 N3442 1.356 . S
C3445 C3439 1.363 . S
C3445 C3440 1.379 . S
C3445 N3443 1.356 . S
N3446 C3438 1.356 . S
N3446 H3452 0.984 . S
N3446 H3453 0.984 . S
N3447 C3440 1.356 . S
N3447 H3450 0.984 . S
N3447 H3451 0.985 . S
H3448 N3443 0.984 . S
H3449 N3443 0.985 . S
H3450 N3447 0.984 . S
H3451 N3447 0.985 . S
H3452 N3446 0.984 . S
H3453 N3446 0.984 . S
H3454 N3442 0.984 . S
H3455 N3442 0.985 . S
C3456 C3457 1.363 . S
C3456 C3462 1.379 . S
C3456 N3464 1.356 . S
C3457 C3456 1.363 . S
C3457 C3463 1.363 . S
C3458 C3459 1.363 . S
C3458 C3463 1.379 . S
C3458 N3465 1.356 . S
C3459 C3458 1.363 . S
C3459 C3462 1.363 . S
N3460 C3462 1.356 . S
N3460 H3472 0.984 . S
N3460 H3473 0.985 . S
N3461 C3463 1.356 . S
N3461 H3466 0.984 . S
N3461 H3467 0.985 . S
C3462 C3456 1.379 . S
C3462 C3459 1.363 . S
C3462 N3460 1.356 . S
C3463 C3457 1.363 . S
C3463 C3458 1.379 . S
C3463 N3461 1.356 . S
N3464 C3456 1.356 . S
N3464 H3470 0.984 . S
N3464 H3471 0.984 . S
N3465 C3458 1.356 . S
N3465 H3468 0.984 . S
N3465 H3469 0.985 . S
H3466 N3461 0.984 . S
H3467 N3461 0.985 . S
H3468 N3465 0.984 . S
H3469 N3465 0.985 . S
H3470 N3464 0.984 . S
H3471 N3464 0.984 . S
H3472 N3460 0.984 . S
H3473 N3460 0.985 . S
C3474 C3475 1.363 . S
C3474 C3480 1.379 . S
C3474 N3482 1.356 . S
C3475 C3474 1.363 . S
C3475 C3481 1.363 . S
C3476 C3477 1.363 . S
C3476 C3481 1.379 . S
C3476 N3483 1.356 . S
C3477 C3476 1.363 . S
C3477 C3480 1.363 . S
N3478 C3480 1.356 . S
N3478 H3490 0.984 . S
N3478 H3491 0.985 . S
N3479 C3481 1.356 . S
N3479 H3484 0.984 . S
N3479 H3485 0.985 . S
C3480 C3474 1.379 . S
C3480 C3477 1.363 . S
C3480 N3478 1.356 . S
C3481 C3475 1.363 . S
C3481 C3476 1.379 . S
C3481 N3479 1.356 . S
N3482 C3474 1.356 . S
N3482 H3488 0.984 . S
N3482 H3489 0.984 . S
N3483 C3476 1.356 . S
N3483 H3486 0.984 . S
N3483 H3487 0.985 . S
H3484 N3479 0.984 . S
H3485 N3479 0.985 . S
H3486 N3483 0.984 . S
H3487 N3483 0.985 . S
H3488 N3482 0.984 . S
H3489 N3482 0.984 . S
H3490 N3478 0.984 . S
H3491 N3478 0.985 . S
C3492 C3493 1.363 . S
C3492 C3498 1.379 . S
C3492 N3500 1.356 . S
C3493 C3492 1.363 . S
C3493 C3499 1.363 . S
C3494 C3495 1.363 . S
C3494 C3499 1.379 . S
C3494 N3501 1.356 . S
C3495 C3494 1.363 . S
C3495 C3498 1.363 . S
N3496 C3498 1.356 . S
N3496 H3508 0.984 . S
N3496 H3509 0.985 . S
N3497 C3499 1.356 . S
N3497 H3502 0.984 . S
N3497 H3503 0.985 . S
C3498 C3492 1.379 . S
C3498 C3495 1.363 . S
C3498 N3496 1.356 . S
C3499 C3493 1.363 . S
C3499 C3494 1.379 . S
C3499 N3497 1.356 . S
N3500 C3492 1.356 . S
N3500 H3506 0.984 . S
N3500 H3507 0.984 . S
N3501 C3494 1.356 . S
N3501 H3504 0.984 . S
N3501 H3505 0.985 . S
H3502 N3497 0.984 . S
H3503 N3497 0.985 . S
H3504 N3501 0.984 . S
H3505 N3501 0.985 . S
H3506 N3500 0.984 . S
H3507 N3500 0.984 . S
H3508 N3496 0.984 . S
H3509 N3496 0.985 . S
C3510 C3511 1.363 . S
C3510 C3516 1.379 . S
C3510 N3518 1.356 . S
C3511 C3510 1.363 . S
C3511 C3517 1.363 . S
C3512 C3513 1.363 . S
C3512 C3517 1.379 . S
C3512 N3519 1.356 . S
C3513 C3512 1.363 . S
C3513 C3516 1.363 . S
N3514 C3516 1.356 . S
N3514 H3526 0.984 . S
N3514 H3527 0.985 . S
N3515 C3517 1.356 . S
N3515 H3520 0.984 . S
N3515 H3521 0.985 . S
C3516 C3510 1.379 . S
C3516 C3513 1.363 . S
C3516 N3514 1.356 . S
C3517 C3511 1.363 . S
C3517 C3512 1.379 . S
C3517 N3515 1.356 . S
N3518 C3510 1.356 . S
N3518 H3524 0.984 . S
N3518 H3525 0.984 . S
N3519 C3512 1.356 . S
N3519 H3522 0.984 . S
N3519 H3523 0.985 . S
H3520 N3515 0.984 . S
H3521 N3515 0.985 . S
H3522 N3519 0.984 . S
H3523 N3519 0.985 . S
H3524 N3518 0.984 . S
H3525 N3518 0.984 . S
H3526 N3514 0.984 . S
H3527 N3514 0.985 . S
C3528 C3529 1.363 . S
C3528 C3534 1.379 . S
C3528 N3536 1.356 . S
C3529 C3528 1.363 . S
C3529 C3535 1.363 . S
C3530 C3531 1.363 . S
C3530 C3535 1.379 . S
C3530 N3537 1.356 1_655 S
C3531 C3530 1.363 . S
C3531 C3534 1.363 . S
N3532 C3534 1.356 . S
N3532 H3544 0.984 . S
N3532 H3545 0.985 . S
N3533 C3535 1.356 . S
N3533 H3538 0.984 . S
N3533 H3539 1.008 . S
C3534 C3528 1.379 . S
C3534 C3531 1.363 . S
C3534 N3532 1.356 . S
C3535 C3529 1.363 . S
C3535 C3530 1.379 . S
C3535 N3533 1.356 . S
N3536 C3528 1.356 . S
N3536 H3542 0.984 . S
N3536 H3543 0.984 . S
N3537 C3530 1.356 1_455 S
N3537 H3540 0.984 . S
N3537 H3541 0.985 . S
H3538 N3533 0.984 . S
H3539 N3533 1.008 . S
H3540 N3537 0.984 . S
H3541 N3537 0.985 . S
H3542 N3536 0.984 . S
H3543 N3536 0.984 . S
H3544 N3532 0.984 . S
H3545 N3532 0.985 . S
C3546 C3547 1.363 . S
C3546 C3552 1.379 . S
C3546 N3554 1.356 . S
C3547 C3546 1.363 . S
C3547 C3553 1.363 . S
C3548 C3549 1.363 . S
C3548 C3553 1.379 . S
C3548 N3555 1.356 . S
C3549 C3548 1.363 . S
C3549 C3552 1.363 . S
N3550 C3552 1.356 . S
N3550 H3562 0.984 . S
N3550 H3563 0.985 . S
N3551 C3553 1.356 . S
N3551 H3556 0.984 . S
N3551 H3557 0.985 . S
C3552 C3546 1.379 . S
C3552 C3549 1.363 . S
C3552 N3550 1.356 . S
C3553 C3547 1.363 . S
C3553 C3548 1.379 . S
C3553 N3551 1.356 . S
N3554 C3546 1.356 . S
N3554 H3560 0.984 . S
N3554 H3561 0.984 . S
N3555 C3548 1.356 . S
N3555 H3558 0.984 . S
N3555 H3559 0.985 . S
H3556 N3551 0.984 . S
H3557 N3551 0.985 . S
H3558 N3555 0.984 . S
H3559 N3555 0.985 . S
H3560 N3554 0.984 . S
H3561 N3554 0.984 . S
H3562 N3550 0.984 . S
H3563 N3550 0.985 . S
C3564 C3565 1.363 1_565 S
C3564 C3570 1.379 . S
C3564 N3572 1.356 . S
C3565 C3564 1.363 1_545 S
C3565 C3571 1.363 . S
C3566 C3567 1.363 . S
C3566 C3571 1.379 . S
C3566 N3573 1.356 . S
C3567 C3566 1.363 . S
C3567 C3570 1.363 1_545 S
N3568 C3570 1.356 . S
N3568 H3580 0.984 . S
N3568 H3581 0.985 . S
N3569 C3571 1.356 . S
N3569 H3574 0.984 . S
N3569 H3575 0.985 . S
C3570 C3564 1.379 . S
C3570 C3567 1.363 1_565 S
C3570 N3568 1.356 . S
C3571 C3565 1.363 . S
C3571 C3566 1.379 . S
C3571 N3569 1.356 . S
N3572 C3564 1.356 . S
N3572 H3578 0.984 . S
N3572 H3579 0.984 . S
N3573 C3566 1.356 . S
N3573 H3576 0.984 . S
N3573 H3577 0.985 . S
H3574 N3569 0.984 . S
H3575 N3569 0.985 . S
H3576 N3573 0.984 . S
H3577 N3573 0.985 . S
H3578 N3572 0.984 . S
H3579 N3572 0.984 . S
H3580 N3568 0.984 . S
H3581 N3568 0.985 . S
C2287 C10 1.460 . S
C2289 C1289 1.172 . S
C2305 C23 1.769 . S
C2307 C1429 1.161 . S
C2325 C1517 1.228 . S
C2323 C29 1.483 . S
C2341 C30 1.571 . S
C2343 C1657 1.167 1_565 S
C2359 C5 1.531 . S
C2361 C1771 1.169 . S
C2377 C18 1.770 . S
C2379 C1859 1.319 . S
C2395 C49 1.410 . S
C2397 C1745 1.173 . S
C2415 C1885 1.461 . S
C2413 C62 1.664 . S
C2433 C1631 1.253 . S
C2431 C70 1.473 . S
C2449 C75 1.541 . S
C2451 C1543 1.204 . S
C2469 C1315 1.192 . S
C2467 C44 1.520 . S
C2485 C57 1.660 . S
C2487 C1403 1.539 . S
C2503 C88 1.790 . S
C2505 C1973 1.309 . S
C2521 C101 1.857 . S
C2523 C2113 1.237 . S
C2541 C2201 1.329 . S
C2539 C107 1.777 . S
C2557 C108 1.838 . S
C2559 C289 1.234 . S
C2575 C83 1.843 . S
C2577 C403 1.215 . S
C2593 C96 1.826 . S
C2595 C491 1.370 . S
C2611 C127 1.595 . S
C2613 C377 1.474 . S
C2629 C140 1.719 . S
C2631 C517 1.538 . S
C2649 C263 1.540 . S
C2647 C146 1.664 . S
C2667 C2227 1.620 . S
C2665 C147 1.813 . S
C2685 C1999 1.557 . S
C2683 C122 1.739 . S
C2703 C2087 1.642 . S
C2701 C135 1.741 . S
C2719 C160 1.713 . S
C2721 C605 1.241 . S
C2737 C173 1.828 . S
C2739 C745 1.212 . S
C2755 C185 1.773 . S
C2757 C833 1.328 . S
C2773 C186 1.915 . S
C2775 C973 1.300 . S
C2793 C1087 1.218 . S
C2791 C159 1.853 . S
C2811 C1175 1.397 . S
C2809 C172 1.856 . S
C2829 C1061 1.551 . S
C2827 C205 1.678 . S
C2847 C1201 1.568 . S
C2845 C218 1.747 . S
C2863 C224 1.662 . S
C2865 C947 1.549 . S
C2883 C859 1.548 . S
C2881 C225 1.731 . S
C2899 C200 1.735 . S
C2901 C631 1.539 . S
C2919 C719 1.610 . S
C2917 C213 1.711 . S
C2937 C245 0.923 . S
C2935 C4 1.733 . S
C2953 C17 1.602 . S
C2955 C359 0.879 . S
C2973 C463 1.196 . S
C2971 C31 1.656 . S
C2991 C577 1.183 . S
C2989 C36 1.611 . S
C3009 C701 0.928 . S
C3007 C3 1.700 . S
C3027 C805 1.177 . S
C3025 C16 1.616 . S
C3043 C43 1.837 . S
C3045 C815 1.396 . S
C3061 C56 1.707 . S
C3063 C587 1.338 . S
C3079 C68 1.763 . S
C3081 C691 1.584 . S
C3097 C69 1.729 . S
C3099 C349 1.570 . S
C3117 C473 1.420 . S
C3115 C42 1.804 . S
C3133 C55 1.722 . S
C3135 C235 1.545 . S
C3153 C929 0.943 . S
C3151 C82 1.698 . S
C3169 C95 1.695 . S
C3171 C1043 0.961 . S
C3187 C109 1.689 . S
C3189 C1147 1.270 . S
C3207 C1261 1.149 . S
C3205 C114 1.375 . S
C3223 C81 1.658 . S
C3225 C1385 0.930 . S
C3241 C94 1.452 . S
C3243 C1489 1.180 . S
C3259 C121 1.537 . S
C3261 C1499 0.993 1_565 S
C3277 C134 1.454 . S
C3279 C1271 0.981 1_455 S
C3297 C1375 1.538 . S
C3295 C148 1.724 . S
C3313 C153 1.706 . S
C3315 C1033 1.559 . S
C3331 C120 1.817 . S
C3333 C1157 1.428 . S
C3351 C919 1.609 . S
C3349 C133 1.805 . S
C3369 C1613 0.969 . S
C3367 C166 1.525 . S
C3385 C179 1.432 . S
C3387 C1727 0.942 . S
C3403 C187 1.621 . S
C3405 C1831 1.196 . S
C3423 C1945 1.200 . S
C3421 C192 1.590 . S
C3441 C2069 1.001 . S
C3439 C161 1.723 . S
C3457 C174 1.705 . S
C3459 C2173 1.266 . S
C3475 C199 1.800 . S
C3477 C2183 1.374 . S
C3493 C212 1.795 . S
C3495 C1955 1.395 . S
C3513 C2059 1.606 . S
C3511 C226 1.786 . S
C3531 C1717 1.182 1_655 S
C3529 C231 1.388 . S
C3549 C1841 1.365 . S
C3547 C198 1.758 . S
C3565 C211 1.476 . S
C3567 C1603 1.223 1_545 S
