# Generated by pormake.
# Topology anh, (6,3)-cn, num edge types: 1
# Building blocks:
#     Node 0, Type 0, BuildingBlock: PAMTUU_clean_sbu_0, # of connection points: 6
#     Node 1, Type 0, BuildingBlock: PAMTUU_clean_sbu_0, # of connection points: 6
#     Node 2, Type 0, BuildingBlock: PAMTUU_clean_sbu_0, # of connection points: 6
#     Node 3, Type 1, BuildingBlock: BETDAH_clean_linker_0, # of connection points: 3
#     Node 4, Type 1, BuildingBlock: BETDAH_clean_linker_0, # of connection points: 3
#     Node 5, Type 1, BuildingBlock: BETDAH_clean_linker_0, # of connection points: 3
#     Node 6, Type 1, BuildingBlock: BETDAH_clean_linker_0, # of connection points: 3
#     Node 7, Type 1, BuildingBlock: BETDAH_clean_linker_0, # of connection points: 3
#     Node 8, Type 1, BuildingBlock: BETDAH_clean_linker_0, # of connection points: 3
#     Edge 9, Type (0, 1), BuildingBlock: CIFDUS_clean_linker_0, # of connection points: 2
#     Edge 10, Type (0, 1), BuildingBlock: CIFDUS_clean_linker_0, # of connection points: 2
#     Edge 11, Type (0, 1), BuildingBlock: CIFDUS_clean_linker_0, # of connection points: 2
#     Edge 12, Type (0, 1), BuildingBlock: CIFDUS_clean_linker_0, # of connection points: 2
#     Edge 13, Type (0, 1), BuildingBlock: CIFDUS_clean_linker_0, # of connection points: 2
#     Edge 14, Type (0, 1), BuildingBlock: CIFDUS_clean_linker_0, # of connection points: 2
#     Edge 15, Type (0, 1), BuildingBlock: CIFDUS_clean_linker_0, # of connection points: 2
#     Edge 16, Type (0, 1), BuildingBlock: CIFDUS_clean_linker_0, # of connection points: 2
#     Edge 17, Type (0, 1), BuildingBlock: CIFDUS_clean_linker_0, # of connection points: 2
#     Edge 18, Type (0, 1), BuildingBlock: CIFDUS_clean_linker_0, # of connection points: 2
#     Edge 19, Type (0, 1), BuildingBlock: CIFDUS_clean_linker_0, # of connection points: 2
#     Edge 20, Type (0, 1), BuildingBlock: CIFDUS_clean_linker_0, # of connection points: 2
#     Edge 21, Type (0, 1), BuildingBlock: CIFDUS_clean_linker_0, # of connection points: 2
#     Edge 22, Type (0, 1), BuildingBlock: CIFDUS_clean_linker_0, # of connection points: 2
#     Edge 23, Type (0, 1), BuildingBlock: CIFDUS_clean_linker_0, # of connection points: 2
#     Edge 24, Type (0, 1), BuildingBlock: CIFDUS_clean_linker_0, # of connection points: 2
#     Edge 25, Type (0, 1), BuildingBlock: CIFDUS_clean_linker_0, # of connection points: 2
#     Edge 26, Type (0, 1), BuildingBlock: CIFDUS_clean_linker_0, # of connection points: 2
# Relax obj value: 0.289
# Max RMSD: 0.150
# Mean RMSD: 0.105
data_MOF--net-anh--node1-PAMTUU_clean_sbu_0--node2-BETDAH_clean_linker_0--edge1-CIFDUS_clean_linker_0
_symmetry_space_group_name_H-M    P1
_symmetry_Int_Tables_number       1
_symmetry_cell_setting            triclinic
loop_
_symmetry_equiv_pos_as_xyz
'x, y, z'
_cell_length_a     26.079874
_cell_length_b     26.329993
_cell_length_c     43.640713
_cell_angle_alpha  91.343476
_cell_angle_beta   93.617561
_cell_angle_gamma 119.84895
loop_
_atom_site_label
_atom_site_type_symbol
_atom_site_fract_x
_atom_site_fract_y
_atom_site_fract_z
_atom_type_partial_charge
Tb0 Tb 0.19038 0.72606 0.16809 0.0
Tb1 Tb 0.25619 0.65253 0.15245 0.0
C2 C 0.20165 0.69183 0.10068 0.0
C3 C 1.06965 0.75365 0.17995 0.0
C4 C 0.94534 0.6868 0.16956 0.0
C5 C 0.97773 0.7368 0.15305 0.0
C6 C 1.03945 0.77 0.15825 0.0
C7 C 1.03672 0.70717 0.19854 0.0
C8 C 0.97511 0.6742 0.19344 0.0
C9 C 1.13422 0.77824 0.17946 0.0
O10 O 1.12263 0.63741 0.17595 0.0
O11 O 1.16103 0.58555 0.15307 0.0
O12 O 0.23749 0.63886 0.19969 0.0
O13 O 0.23822 0.72441 0.21071 0.0
O14 O 0.25307 0.58513 0.12499 0.0
O15 O 0.32389 0.63162 0.16147 0.0
O16 O 0.32955 0.74269 0.16649 0.0
O17 O 0.27885 0.79252 0.1583 0.0
O18 O 0.16415 0.68956 0.12017 0.0
O19 O 0.25076 0.69372 0.11096 0.0
C20 C 1.11742 0.58756 0.16592 0.0
O21 O 1.15933 0.76177 0.20063 0.0
O22 O 1.15247 0.77615 0.15256 0.0
C23 C 0.24314 0.67953 0.21951 0.0
C24 C 0.33939 0.57703 0.12189 0.0
C25 C 0.38777 0.51834 0.09077 0.0
C26 C 0.40002 0.53106 0.1227 0.0
C27 C 0.37602 0.56018 0.13811 0.0
C28 C 0.33121 0.56887 0.08961 0.0
C29 C 0.35555 0.53986 0.07411 0.0
C30 C 0.30067 0.58992 0.13953 0.0
C31 C 0.32879 0.79246 0.16462 0.0
H32 H 0.95612 0.74747 0.13435 0.0
H33 H 1.06385 0.80571 0.14372 0.0
H34 H 1.05855 0.69355 0.21566 0.0
H35 H 0.95116 0.63646 0.20682 0.0
H36 H 0.42575 0.51585 0.13595 0.0
H37 H 0.38257 0.56569 0.163 0.0
H38 H 0.30288 0.5813 0.07656 0.0
H39 H 0.34578 0.53075 0.04945 0.0
Tb40 Tb 0.62063 0.2113 0.4762 0.0
Tb41 Tb 0.76257 0.28413 0.49831 0.0
C42 C 0.71402 0.25383 0.42872 0.0
C43 C 0.46694 1.09569 0.46955 0.0
C44 C 0.40103 0.97601 0.48035 0.0
C45 C 0.38924 0.99711 0.45298 0.0
C46 C 0.42214 1.05659 0.44761 0.0
C47 C 0.47526 1.07558 0.49796 0.0
C48 C 0.44235 1.01623 0.50337 0.0
C49 C 0.51101 0.15411 0.46092 0.0
O50 O 0.64348 0.14073 0.47885 0.0
O51 O 0.74241 0.19322 0.49709 0.0
O52 O 0.71664 0.26765 0.54034 0.0
O53 O 0.62845 0.18685 0.52195 0.0
O54 O 0.84835 0.34799 0.489 0.0
O55 O 0.83358 0.29673 0.52925 0.0
O56 O 0.73904 0.35338 0.49394 0.0
O57 O 0.63822 0.29662 0.49577 0.0
O58 O 0.66637 0.2539 0.43642 0.0
O59 O 0.75193 0.25409 0.45002 0.0
C60 C 0.69387 0.14324 0.48864 0.0
O61 O 0.53502 0.19496 0.48322 0.0
O62 O 0.55067 0.15467 0.44389 0.0
C63 C 0.66586 0.22068 0.5447 0.0
C64 C 0.92901 0.38345 0.52863 0.0
C65 C 1.05236 0.45227 0.54261 0.0
C66 C 1.01896 0.40227 0.55879 0.0
C67 C 0.95772 0.36807 0.55182 0.0
C68 C 0.96119 0.43744 0.51539 0.0
C69 C 1.02244 0.47175 0.52244 0.0
C70 C 0.8725 0.33685 0.51313 0.0
C71 C 0.68699 0.34839 0.49769 0.0
H72 H 0.35819 0.96712 0.43462 0.0
H73 H 0.41545 1.07129 0.42551 0.0
H74 H 0.50979 0.10498 0.51524 0.0
H75 H 0.45196 1.00126 0.52474 0.0
H76 H 1.04085 0.38668 0.57472 0.0
H77 H 0.93401 0.32657 0.56234 0.0
H78 H 0.94033 0.45045 0.49741 0.0
H79 H 1.04695 0.51003 0.50952 0.0
Tb80 Tb 0.68437 0.62996 0.8099 0.0
Tb81 Tb 0.74532 0.76429 0.83865 0.0
C82 C 0.71767 0.73075 0.76749 0.0
C83 C 0.65792 0.48137 0.79758 0.0
C84 C 0.68696 0.39596 0.81463 0.0
C85 C 0.6301 0.3796 0.80086 0.0
C86 C 0.61576 0.42197 0.79245 0.0
C87 C 0.71462 0.49828 0.81163 0.0
C88 C 0.72929 0.45575 0.81983 0.0
C89 C 0.64078 0.52511 0.79042 0.0
O90 O 0.78095 0.66274 0.81085 0.0
O91 O 0.81823 0.74675 0.84262 0.0
O92 O 0.70572 0.70532 0.87583 0.0
O93 O 0.71939 0.63311 0.85592 0.0
O94 O 0.76553 0.8511 0.83308 0.0
O95 O 0.79321 0.82724 0.8753 0.0
O96 O 0.65128 0.73652 0.83239 0.0
O97 O 0.60952 0.63616 0.8267 0.0
O98 O 0.67408 0.6806 0.77456 0.0
O99 O 0.75903 0.7657 0.78907 0.0
C100 C 0.82509 0.70639 0.82823 0.0
O101 O 0.62183 0.54156 0.81347 0.0
O102 O 0.6778 0.56943 0.77554 0.0
C103 C 0.70819 0.65705 0.87901 0.0
C104 C 0.75493 0.89161 0.87862 0.0
C105 C 0.66657 0.91882 0.89025 0.0
C106 C 0.71759 0.95944 0.87669 0.0
C107 C 0.76148 0.9457 0.87076 0.0
C108 C 0.70874 0.85546 0.89648 0.0
C109 C 0.66502 0.8693 0.90248 0.0
C110 C 0.78566 0.86703 0.86185 0.0
C111 C 0.60504 0.68331 0.83192 0.0
H112 H 0.59699 0.33384 0.7958 0.0
H113 H 0.57168 0.40833 0.78197 0.0
H114 H 0.74735 0.54423 0.81629 0.0
H115 H 0.77344 0.46945 0.83019 0.0
H116 H 0.71973 0.99783 0.8669 0.0
H117 H 0.79677 0.97416 0.85699 0.0
H118 H 0.70266 0.8134 0.90286 0.0
H119 H 0.62616 0.8375 0.91307 0.0
H120 H 0.60776 1.09164 0.25096 0.0
H121 H 0.7747 0.24641 0.23871 0.0
H122 H 0.68868 0.10941 0.16608 0.0
C123 C 0.64342 0.11685 0.23662 0.0
C124 C 0.64181 1.09327 0.20709 0.0
C125 C 0.69119 0.1716 0.24839 0.0
C126 C 0.73828 0.204 0.22996 0.0
C127 C 0.73731 0.18205 0.2 0.0
C128 C 0.68937 0.12638 0.18906 0.0
N129 N 0.78254 0.21423 0.17982 0.0
C130 C 0.83396 0.2695 0.18552 0.0
H131 H 0.69539 0.63274 0.58618 0.0
H132 H 0.6943 0.79399 0.57336 0.0
H133 H 0.70844 0.6981 0.49587 0.0
C134 C 0.69704 0.66543 0.57098 0.0
C135 C 0.7023 0.65875 0.53946 0.0
C136 C 0.69525 0.71439 0.58345 0.0
C137 C 0.69696 0.75706 0.56388 0.0
C138 C 0.70095 0.75114 0.53202 0.0
C139 C 0.70482 0.70249 0.52027 0.0
N140 N 0.70125 0.79239 0.51093 0.0
C141 C 0.6922 0.84021 0.51644 0.0
H142 H 1.09862 0.68547 0.91661 0.0
H143 H 0.24662 0.65797 0.90434 0.0
H144 H 1.13106 0.64573 0.82643 0.0
C145 C 1.12481 0.67539 0.902 0.0
C146 C 1.10804 0.66495 0.87016 0.0
C147 C 0.17426 0.67238 0.91505 0.0
C148 C 0.20886 0.66106 0.89509 0.0
C149 C 0.19391 0.65228 0.86305 0.0
C150 C 1.14294 0.65323 0.85103 0.0
N151 N 0.22795 0.64183 0.84189 0.0
C152 C 0.28125 0.64135 0.84782 0.0
H153 H 0.36022 0.71521 0.39754 0.0
H154 H 0.34293 0.54453 0.38317 0.0
H155 H 0.39345 0.63278 0.47341 0.0
C156 C 0.36162 0.67764 0.40619 0.0
C157 C 0.3759 0.67811 0.43764 0.0
C158 C 0.34927 0.62987 0.38605 0.0
C159 C 0.35412 0.58292 0.39791 0.0
C160 C 0.36939 0.58354 0.42945 0.0
C161 C 0.38155 0.63197 0.4491 0.0
N162 N 0.36594 0.53277 0.44183 0.0
C163 C 0.33472 0.51111 0.46752 0.0
H164 H 0.67599 0.1642 0.73354 0.0
H165 H 0.53277 1.00613 0.6887 0.0
H166 H 0.55624 1.02754 0.78732 0.0
C167 C 0.63981 0.12004 0.73544 0.0
C168 C 0.61964 1.10022 0.7643 0.0
C169 C 0.60973 1.08608 0.70823 0.0
C170 C 0.55781 1.03162 0.70968 0.0
C171 C 0.53795 1.00998 0.73818 0.0
C172 C 0.5707 1.04361 0.76531 0.0
N173 N 0.48354 0.95615 0.73911 0.0
C174 C 0.46777 0.92641 0.76592 0.0
H175 H 0.71898 0.51227 0.03843 0.0
H176 H 0.56942 0.35695 -0.00588 0.0
H177 H 0.63121 0.3553 0.08744 0.0
C178 C 0.68437 0.46684 0.03905 0.0
C179 C 0.67988 0.43728 0.06595 0.0
C180 C 0.64539 0.43826 0.01286 0.0
C181 C 0.60174 0.37903 0.01367 0.0
C182 C 0.59682 0.34896 0.04043 0.0
C183 C 0.63654 0.3779 0.06641 0.0
N184 N 0.54482 0.2948 0.04333 0.0
C185 C 0.4943 0.29775 0.04784 0.0
H186 H 0.36654 0.41322 0.10932 0.0
H187 H 0.4439 0.53305 0.03811 0.0
H188 H 0.47599 0.46855 0.01536 0.0
H189 H 0.49064 0.3835 0.01918 0.0
H190 H 0.41779 0.26665 0.0919 0.0
H191 H 0.37387 0.32389 0.11053 0.0
C192 C 0.39041 0.42509 0.0888 0.0
C193 C 0.40402 0.47816 0.07567 0.0
C194 C 0.40879 0.3881 0.0761 0.0
C195 C 0.43345 0.49253 0.04865 0.0
C196 C 0.45173 0.45575 0.03571 0.0
C197 C 0.46361 0.36981 0.03855 0.0
C198 C 0.45636 0.32095 0.05407 0.0
C199 C 0.44064 0.40408 0.04962 0.0
C200 C 0.42265 0.30373 0.07946 0.0
C201 C 0.39831 0.33679 0.09025 0.0
H202 H 1.10664 0.38895 0.53511 0.0
H203 H 1.14142 0.5671 0.54418 0.0
H204 H 0.23999 0.60255 0.52627 0.0
H205 H 0.30686 0.58052 0.49917 0.0
H206 H 0.26802 0.4018 0.48606 0.0
H207 H 0.18054 0.36852 0.51517 0.0
C208 C 1.13662 0.43575 0.53435 0.0
C209 C 1.11672 0.47542 0.54078 0.0
C210 C 0.19201 0.45538 0.52292 0.0
C211 C 1.15571 0.53581 0.53913 0.0
C212 C 0.21184 0.55597 0.52876 0.0
C213 C 0.28027 0.53457 0.50355 0.0
C214 C 0.29335 0.49342 0.49074 0.0
C215 C 0.22915 0.51587 0.51921 0.0
C216 C 0.25853 0.43397 0.49607 0.0
C217 C 0.20845 0.41505 0.51246 0.0
H218 H 0.57466 0.83296 0.85694 0.0
H219 H 0.63647 1.004 0.90051 0.0
H220 H 0.55881 1.01197 0.8699 0.0
H221 H 0.49164 0.97979 0.82243 0.0
H222 H 0.4476 0.81736 0.77347 0.0
H223 H 0.49445 0.79261 0.81625 0.0
C224 C 0.56847 0.87007 0.86128 0.0
C225 C 0.61017 0.91719 0.8813 0.0
C226 C 0.5264 0.87541 0.8424 0.0
C227 C 0.60432 0.96702 0.8854 0.0
C228 C 0.56022 0.9716 0.86775 0.0
C229 C 0.49119 0.93837 0.82162 0.0
C230 C 0.46834 0.90115 0.79472 0.0
C231 C 0.52365 0.9276 0.84483 0.0
C232 C 0.46556 0.84669 0.79403 0.0
C233 C 0.49321 0.8331 0.81825 0.0
H234 H 0.89874 0.56945 0.16195 0.0
H235 H 0.85451 0.70589 0.15049 0.0
H236 H 0.76181 0.6362 0.12068 0.0
H237 H 0.70213 0.54123 0.09155 0.0
H238 H 0.74898 0.40645 0.10117 0.0
H239 H 0.83118 0.47024 0.13913 0.0
C240 C 0.8679 0.58352 0.15391 0.0
C241 C 0.88365 0.64286 0.15818 0.0
C242 C 0.81557 0.54364 0.13628 0.0
C243 C 0.84363 0.6606 0.14713 0.0
C244 C 0.79076 0.62083 0.13009 0.0
C245 C 0.72986 0.52564 0.10242 0.0
C246 C 0.72061 0.46994 0.09333 0.0
C247 C 0.77767 0.56301 0.12346 0.0
C248 C 0.75568 0.44937 0.10784 0.0
C249 C 0.80282 0.48596 0.12931 0.0
H250 H 0.46465 0.92516 0.49919 0.0
H251 H 0.28901 0.88453 0.46405 0.0
H252 H 0.26188 0.78237 0.45288 0.0
H253 H 0.29492 0.71128 0.44389 0.0
H254 H 0.47216 0.75373 0.47616 0.0
H255 H 0.49141 0.84821 0.49879 0.0
C256 C 0.41968 0.89355 0.49021 0.0
C257 C 0.37908 0.91245 0.48198 0.0
C258 C 0.40509 0.83553 0.48303 0.0
C259 C 0.32122 0.87106 0.47008 0.0
C260 C 0.30579 0.81279 0.46363 0.0
C261 C 0.33721 0.74085 0.4566 0.0
C262 C 0.38258 0.72674 0.458 0.0
C263 C 0.34841 0.79551 0.46852 0.0
C264 C 0.43692 0.76429 0.47477 0.0
C265 C 0.448 0.81837 0.48743 0.0
H266 H 0.62286 0.29523 0.84239 0.0
H267 H 0.78518 0.3929 0.79879 0.0
H268 H 0.78925 0.30332 0.78905 0.0
H269 H 0.73067 0.19662 0.77886 0.0
H270 H 0.55689 1.10169 0.81277 0.0
H271 H 0.57523 0.18864 0.84199 0.0
C272 C 0.66008 0.29699 0.83164 0.0
C273 C 0.7023 0.34975 0.82022 0.0
C274 C 0.6596 0.24488 0.824 0.0
C275 C 0.75153 0.35242 0.80732 0.0
C276 C 0.75348 0.30102 0.80143 0.0
C277 C 0.69692 0.19466 0.79286 0.0
C278 C 0.64096 0.14313 0.79166 0.0
C279 C 0.70507 0.2466 0.80731 0.0
C280 C 0.59994 0.14048 0.81208 0.0
C281 C 0.60994 0.19086 0.82868 0.0
H282 H 0.61287 1.03303 0.50749 0.0
H283 H 0.78707 0.13092 0.47516 0.0
H284 H 0.80264 1.04772 0.48166 0.0
H285 H 0.76817 0.9468 0.49701 0.0
H286 H 0.59603 0.84824 0.53102 0.0
H287 H 0.57914 0.93153 0.52429 0.0
C288 C 0.65388 1.03582 0.50152 0.0
C289 C 0.69849 1.08855 0.49046 0.0
C290 C 0.66344 0.9876 0.50612 0.0
C291 C 0.7518 1.09127 0.48354 0.0
C292 C 0.76092 1.04356 0.48736 0.0
C293 C 0.72709 0.9437 0.50317 0.0
C294 C 0.68376 0.89147 0.51488 0.0
C295 C 0.7174 0.9916 0.49885 0.0
C296 C 0.63048 0.88805 0.52233 0.0
C297 C 0.62056 0.93557 0.51817 0.0
H298 H 0.85898 0.62515 0.81145 0.0
H299 H 0.92433 0.79321 0.86059 0.0
H300 H 1.01583 0.79536 0.87728 0.0
H301 H 1.07711 0.7486 0.88047 0.0
H302 H 1.01615 0.58281 0.8305 0.0
H303 H 0.9245 0.58104 0.81176 0.0
C304 C 0.89345 0.66257 0.82548 0.0
C305 C 0.88363 0.7087 0.83476 0.0
C306 C 0.94724 0.66394 0.83519 0.0
C307 C 0.92952 0.75668 0.85303 0.0
C308 C 0.98234 0.75808 0.86277 0.0
C309 C 1.04384 0.7121 0.86542 0.0
C310 C 1.05362 0.66573 0.85715 0.0
C311 C 0.99147 0.71169 0.85444 0.0
C312 C 1.01013 0.61925 0.83722 0.0
C313 C 0.95748 0.61813 0.82655 0.0
H314 H 0.44894 0.82872 0.16008 0.0
H315 H 0.3321 0.88986 0.18823 0.0
H316 H 0.41646 0.98611 0.20314 0.0
H317 H 0.52363 1.0544 0.20914 0.0
H318 H 0.6431 0.9987 0.1792 0.0
H319 H 0.55865 0.90058 0.1639 0.0
C320 C 0.44204 0.86314 0.16944 0.0
C321 C 0.38348 0.85122 0.17286 0.0
C322 C 0.4916 0.92009 0.17765 0.0
C323 C 0.37601 0.89706 0.18492 0.0
C324 C 0.42451 0.95255 0.19364 0.0
C325 C 0.53134 1.02086 0.19925 0.0
C326 C 0.59005 1.03427 0.19558 0.0
C327 C 0.48248 0.96472 0.19019 0.0
C328 C 0.59863 0.9901 0.18223 0.0
C329 C 0.55017 0.93367 0.17361 0.0
H330 H 0.75974 0.46554 0.48528 0.0
H331 H 0.60342 0.35191 0.53049 0.0
H332 H 0.59412 0.43584 0.54693 0.0
H333 H 0.63042 0.54229 0.54957 0.0
H334 H 0.78236 0.65661 0.50191 0.0
H335 H 0.79273 0.57267 0.48529 0.0
C336 C 0.72361 0.45913 0.4987 0.0
C337 C 0.68249 0.40174 0.50663 0.0
C338 C 0.71748 0.50814 0.50767 0.0
C339 C 0.63571 0.39492 0.52381 0.0
C340 C 0.63034 0.44319 0.53336 0.0
C341 C 0.66577 0.54894 0.53546 0.0
C342 C 0.70571 0.6063 0.52721 0.0
C343 C 0.67094 0.50009 0.52556 0.0
C344 C 0.75069 0.61334 0.50855 0.0
C345 C 0.75684 0.56516 0.49915 0.0
H346 H 0.48988 0.60286 0.80897 0.0
H347 H 0.59074 0.7505 0.87434 0.0
H348 H 0.50012 0.74893 0.8871 0.0
H349 H 0.39217 0.71084 0.87678 0.0
H350 H 0.29045 0.56297 0.81163 0.0
H351 H 0.38021 0.55982 0.80144 0.0
C352 C 0.49191 0.63452 0.82605 0.0
C353 C 0.54758 0.67775 0.84017 0.0
C354 C 0.4391 0.63384 0.83306 0.0
C355 C 0.54893 0.71787 0.86251 0.0
C356 C 0.49693 0.71684 0.86993 0.0
C357 C 0.38965 0.67742 0.86075 0.0
C358 C 0.33462 0.6369 0.84514 0.0
C359 C 0.4418 0.67601 0.85487 0.0
C360 C 0.33222 0.59434 0.82413 0.0
C361 C 0.38368 0.59268 0.81818 0.0
H362 H 1.0943 0.47286 0.16678 0.0
H363 H 1.00989 0.57745 0.17421 0.0
H364 H 0.91615 0.49003 0.18231 0.0
H365 H 0.85597 0.38243 0.18647 0.0
H366 H 0.94013 0.2778 0.1805 0.0
H367 H 1.03488 0.36555 0.17286 0.0
C368 C 1.05535 0.47653 0.16997 0.0
C369 C 1.0598 0.53226 0.16966 0.0
C370 C 1.00098 0.42564 0.17512 0.0
C371 C 1.00849 0.53564 0.17429 0.0
C372 C 0.95447 0.48543 0.17893 0.0
C373 C 0.89532 0.3791 0.18394 0.0
C374 C 0.89114 0.32366 0.18445 0.0
C375 C 0.94997 0.43008 0.17944 0.0
C376 C 0.94232 0.32 0.18062 0.0
C377 C 0.99653 0.37024 0.17603 0.0
H378 H 0.27762 0.72166 0.05551 0.0
H379 H 1.09266 0.65179 0.06944 0.0
H380 H 1.06788 0.63844 0.01372 0.0
H381 H 1.09818 0.64317 0.96119 0.0
H382 H 0.28453 0.7212 0.94733 0.0
H383 H 0.30869 0.73293 0.00276 0.0
C384 C 0.23185 0.70371 0.04639 0.0
C385 C 0.18704 0.68753 0.06678 0.0
C386 C 0.21797 0.69681 0.01425 0.0
C387 C 1.12811 0.66483 0.05442 0.0
C388 C 1.11388 0.65693 0.02249 0.0
C389 C 1.14434 0.66387 0.97001 0.0
C390 C 0.1892 0.68081 0.94943 0.0
C391 C 1.1584 0.67245 0.00216 0.0
C392 C 0.2485 0.70621 0.96206 0.0
C393 C 0.2626 0.71361 -0.00604 0.0
H394 H 0.63543 0.23209 0.37888 0.0
H395 H 0.81113 0.26097 0.40377 0.0
H396 H 0.82176 0.2429 0.34998 0.0
H397 H 0.77851 0.21235 0.29597 0.0
H398 H 0.60139 0.17993 0.27199 0.0
H399 H 0.59422 0.20617 0.32498 0.0
C400 C 0.67638 0.23513 0.37257 0.0
C401 C 0.72234 0.24786 0.39555 0.0
C402 C 0.68188 0.2237 0.34158 0.0
C403 C 0.77487 0.25117 0.38673 0.0
C404 C 0.78101 0.24075 0.35589 0.0
C405 C 0.73878 0.21196 0.30231 0.0
C406 C 0.69048 0.19403 0.28003 0.0
C407 C 0.73448 0.2261 0.33313 0.0
C408 C 0.63901 0.19313 0.28871 0.0
C409 C 0.63487 0.20814 0.31903 0.0
H410 H 0.63313 0.67042 0.72076 0.0
H411 H 0.8099 0.81884 0.73888 0.0
H412 H 0.817 0.83061 0.68333 0.0
H413 H 0.77506 0.79304 0.62902 0.0
H414 H 0.6001 0.64156 0.61282 0.0
H415 H 0.59011 0.63678 0.66812 0.0
C416 C 0.6733 0.70579 0.71277 0.0
C417 C 0.72113 0.74345 0.73421 0.0
C418 C 0.67734 0.71153 0.68094 0.0
C419 C 0.77236 0.78917 0.72307 0.0
C420 C 0.77649 0.79572 0.69123 0.0
C421 C 0.73449 0.75976 0.63773 0.0
C422 C 0.68811 0.7178 0.6169 0.0
C423 C 0.72961 0.75646 0.66987 0.0
C424 C 0.63612 0.67433 0.62841 0.0
C425 C 0.63053 0.6715 0.66002 0.0
H426 H 0.7362 0.21877 0.59281 0.0
H427 H 0.55748 0.1778 0.56492 0.0
H428 H 0.52345 0.13 0.61262 0.0
H429 H 0.54358 1.09661 0.66139 0.0
H430 H 0.7214 0.13533 0.68952 0.0
H431 H 0.75676 0.18656 0.64257 0.0
C432 C 0.6902 0.20047 0.59764 0.0
C433 C 0.64942 0.20206 0.57572 0.0
C434 C 0.67057 0.17156 0.62479 0.0
C435 C 0.58958 0.17715 0.58169 0.0
C436 C 0.57002 0.14948 0.6088 0.0
C437 C 0.58985 0.11552 0.65694 0.0
C438 C 0.62972 0.11168 0.67851 0.0
C439 C 0.60986 0.14544 0.63023 0.0
C440 C 0.68991 0.13755 0.67298 0.0
C441 C 0.71016 0.16707 0.64629 0.0
H442 H 0.67887 0.54464 0.88376 0.0
H443 H 0.70403 0.6962 0.93765 0.0
H444 H 0.68384 0.64034 0.98411 0.0
H445 H 0.66278 0.54911 0.00914 0.0
H446 H 0.63971 0.39991 0.95375 0.0
H447 H 0.65475 0.45453 0.90767 0.0
C448 C 0.68029 0.56597 0.90563 0.0
C449 C 0.69395 0.62492 0.90739 0.0
C450 C 0.66876 0.5339 0.93181 0.0
C451 C 0.69406 0.65104 0.9358 0.0
C452 C 0.68259 0.61913 0.96228 0.0
C453 C 0.66122 0.52872 0.98696 0.0
C454 C 0.65054 0.47062 0.98485 0.0
C455 C 0.67057 0.56069 0.96055 0.0
C456 C 0.64739 0.44428 0.95594 0.0
C457 C 0.65639 0.4756 0.92964 0.0
H458 H 0.30067 0.62509 0.24195 0.0
H459 H 0.21733 0.72288 0.27009 0.0
H460 H 0.23847 0.7113 0.32417 0.0
H461 H 0.28014 0.67332 0.36285 0.0
H462 H 0.37336 0.58498 0.33486 0.0
H463 H 0.34616 0.59051 0.28096 0.0
C464 C 0.28701 0.64378 0.25994 0.0
C465 C 0.2573 0.67464 0.25216 0.0
C466 C 0.30034 0.63793 0.29082 0.0
C467 C 0.24051 0.69925 0.2756 0.0
C468 C 0.25232 0.69235 0.30644 0.0
C469 C 0.29571 0.65617 0.3451 0.0
C470 C 0.32968 0.62947 0.35314 0.0
C471 C 0.28237 0.66195 0.31424 0.0
C472 C 0.3469 0.60536 0.32956 0.0
C473 C 0.33188 0.60906 0.29869 0.0
loop_
_geom_bond_atom_site_label_1
_geom_bond_atom_site_label_2
_geom_bond_distance
_geom_bond_site_symmetry_2
_ccdc_geom_bond_type
Tb0 C9 2.764 1_455 S
Tb0 O10 2.325 1_455 S
Tb0 O13 2.303 . S
Tb0 O17 2.322 . S
Tb0 O18 2.349 . S
Tb0 O21 2.415 1_455 S
Tb0 O22 2.399 1_455 S
Tb1 O11 2.322 1_455 S
Tb1 O12 2.349 . S
Tb1 O14 2.415 . S
Tb1 O15 2.399 . S
Tb1 O16 2.325 . S
Tb1 O19 2.303 . S
Tb1 C30 2.764 . S
C2 O18 1.261 . S
C2 O19 1.257 . S
C3 C6 1.358 . S
C3 C7 1.332 . S
C3 C9 1.504 . S
C4 C5 1.373 . S
C4 C8 1.308 . S
C5 C4 1.373 . S
C5 C6 1.429 . S
C5 H32 0.932 . S
C6 C3 1.358 . S
C6 C5 1.429 . S
C6 H33 0.930 . S
C7 C3 1.332 . S
C7 C8 1.394 . S
C7 H34 0.932 . S
C8 C4 1.308 . S
C8 C7 1.394 . S
C8 H35 0.929 . S
C9 Tb0 2.764 1_655 S
C9 C3 1.504 . S
C9 O21 1.239 . S
C9 O22 1.263 . S
O10 Tb0 2.325 1_655 S
O10 C20 1.236 . S
O11 Tb1 2.322 1_655 S
O11 C20 1.257 . S
O12 Tb1 2.349 . S
O12 C23 1.261 . S
O13 Tb0 2.303 . S
O13 C23 1.257 . S
O14 Tb1 2.415 . S
O14 C30 1.239 . S
O15 Tb1 2.399 . S
O15 C30 1.263 . S
O16 Tb1 2.325 . S
O16 C31 1.236 . S
O17 Tb0 2.322 . S
O17 C31 1.257 . S
O18 Tb0 2.349 . S
O18 C2 1.261 . S
O19 Tb1 2.303 . S
O19 C2 1.257 . S
C20 O10 1.236 . S
C20 O11 1.257 . S
O21 Tb0 2.415 1_655 S
O21 C9 1.239 . S
O22 Tb0 2.399 1_655 S
O22 C9 1.263 . S
C23 O12 1.261 . S
C23 O13 1.257 . S
C24 C27 1.358 . S
C24 C28 1.332 . S
C24 C30 1.504 . S
C25 C26 1.373 . S
C25 C29 1.308 . S
C26 C25 1.373 . S
C26 C27 1.429 . S
C26 H36 0.932 . S
C27 C24 1.358 . S
C27 C26 1.429 . S
C27 H37 0.930 . S
C28 C24 1.332 . S
C28 C29 1.394 . S
C28 H38 0.932 . S
C29 C25 1.308 . S
C29 C28 1.394 . S
C29 H39 0.929 . S
C30 Tb1 2.764 . S
C30 O14 1.239 . S
C30 O15 1.263 . S
C30 C24 1.504 . S
C31 O16 1.236 . S
C31 O17 1.257 . S
H32 C5 0.932 . S
H33 C6 0.930 . S
H34 C7 0.932 . S
H35 C8 0.929 . S
H36 C26 0.932 . S
H37 C27 0.930 . S
H38 C28 0.932 . S
H39 C29 0.929 . S
Tb40 C49 2.764 1_545 S
Tb40 O50 2.325 1_545 S
Tb40 O53 2.303 . S
Tb40 O57 2.322 . S
Tb40 O58 2.349 . S
Tb40 O61 2.415 1_545 S
Tb40 O62 2.399 1_545 S
Tb41 O51 2.322 . S
Tb41 O52 2.349 . S
Tb41 O54 2.415 . S
Tb41 O55 2.399 . S
Tb41 O56 2.325 . S
Tb41 O59 2.303 . S
Tb41 C70 2.764 . S
C42 O58 1.261 . S
C42 O59 1.257 . S
C43 C46 1.358 . S
C43 C47 1.332 . S
C43 C49 1.504 . S
C44 C45 1.373 . S
C44 C48 1.308 . S
C45 C44 1.373 . S
C45 C46 1.429 . S
C45 H72 0.932 . S
C46 C43 1.358 . S
C46 C45 1.429 . S
C46 H73 0.930 . S
C47 C43 1.332 . S
C47 C48 1.394 . S
C47 H74 0.932 . S
C48 C44 1.308 . S
C48 C47 1.394 . S
C48 H75 0.929 . S
C49 Tb40 2.764 1_565 S
C49 C43 1.504 . S
C49 O61 1.239 . S
C49 O62 1.263 . S
O50 Tb40 2.325 1_565 S
O50 C60 1.236 . S
O51 Tb41 2.322 . S
O51 C60 1.257 1_545 S
O52 Tb41 2.349 . S
O52 C63 1.261 . S
O53 Tb40 2.303 . S
O53 C63 1.257 . S
O54 Tb41 2.415 . S
O54 C70 1.239 . S
O55 Tb41 2.399 . S
O55 C70 1.263 . S
O56 Tb41 2.325 . S
O56 C71 1.236 . S
O57 Tb40 2.322 . S
O57 C71 1.257 . S
O58 Tb40 2.349 . S
O58 C42 1.261 . S
O59 Tb41 2.303 . S
O59 C42 1.257 . S
C60 O50 1.236 . S
C60 O51 1.257 1_565 S
O61 Tb40 2.415 1_565 S
O61 C49 1.239 . S
O62 Tb40 2.399 1_565 S
O62 C49 1.263 . S
C63 O52 1.261 . S
C63 O53 1.257 . S
C64 C67 1.358 . S
C64 C68 1.332 . S
C64 C70 1.504 . S
C65 C66 1.373 . S
C65 C69 1.308 . S
C66 C65 1.373 . S
C66 C67 1.429 . S
C66 H76 0.932 . S
C67 C64 1.358 . S
C67 C66 1.429 . S
C67 H77 0.930 . S
C68 C64 1.332 . S
C68 C69 1.394 . S
C68 H78 0.932 . S
C69 C65 1.308 . S
C69 C68 1.394 . S
C69 H79 0.929 . S
C70 Tb41 2.764 . S
C70 O54 1.239 . S
C70 O55 1.263 . S
C70 C64 1.504 . S
C71 O56 1.236 . S
C71 O57 1.257 . S
H72 C45 0.932 . S
H73 C46 0.930 . S
H74 C47 0.932 . S
H75 C48 0.929 . S
H76 C66 0.932 . S
H77 C67 0.930 . S
H78 C68 0.932 . S
H79 C69 0.929 . S
Tb80 C89 2.764 . S
Tb80 O90 2.325 . S
Tb80 O93 2.303 . S
Tb80 O97 2.322 . S
Tb80 O98 2.349 . S
Tb80 O101 2.415 . S
Tb80 O102 2.399 . S
Tb81 O91 2.322 . S
Tb81 O92 2.349 . S
Tb81 O94 2.415 . S
Tb81 O95 2.399 . S
Tb81 O96 2.325 . S
Tb81 O99 2.303 . S
Tb81 C110 2.764 . S
C82 O98 1.261 . S
C82 O99 1.257 . S
C83 C86 1.358 . S
C83 C87 1.332 . S
C83 C89 1.504 . S
C84 C85 1.373 . S
C84 C88 1.308 . S
C85 C84 1.373 . S
C85 C86 1.429 . S
C85 H112 0.932 . S
C86 C83 1.358 . S
C86 C85 1.429 . S
C86 H113 0.930 . S
C87 C83 1.332 . S
C87 C88 1.394 . S
C87 H114 0.932 . S
C88 C84 1.308 . S
C88 C87 1.394 . S
C88 H115 0.929 . S
C89 Tb80 2.764 . S
C89 C83 1.504 . S
C89 O101 1.239 . S
C89 O102 1.263 . S
O90 Tb80 2.325 . S
O90 C100 1.236 . S
O91 Tb81 2.322 . S
O91 C100 1.257 . S
O92 Tb81 2.349 . S
O92 C103 1.261 . S
O93 Tb80 2.303 . S
O93 C103 1.257 . S
O94 Tb81 2.415 . S
O94 C110 1.239 . S
O95 Tb81 2.399 . S
O95 C110 1.263 . S
O96 Tb81 2.325 . S
O96 C111 1.236 . S
O97 Tb80 2.322 . S
O97 C111 1.257 . S
O98 Tb80 2.349 . S
O98 C82 1.261 . S
O99 Tb81 2.303 . S
O99 C82 1.257 . S
C100 O90 1.236 . S
C100 O91 1.257 . S
O101 Tb80 2.415 . S
O101 C89 1.239 . S
O102 Tb80 2.399 . S
O102 C89 1.263 . S
C103 O92 1.261 . S
C103 O93 1.257 . S
C104 C107 1.358 . S
C104 C108 1.332 . S
C104 C110 1.504 . S
C105 C106 1.373 . S
C105 C109 1.308 . S
C106 C105 1.373 . S
C106 C107 1.429 . S
C106 H116 0.932 . S
C107 C104 1.358 . S
C107 C106 1.429 . S
C107 H117 0.930 . S
C108 C104 1.332 . S
C108 C109 1.394 . S
C108 H118 0.932 . S
C109 C105 1.308 . S
C109 C108 1.394 . S
C109 H119 0.929 . S
C110 Tb81 2.764 . S
C110 O94 1.239 . S
C110 O95 1.263 . S
C110 C104 1.504 . S
C111 O96 1.236 . S
C111 O97 1.257 . S
H112 C85 0.932 . S
H113 C86 0.930 . S
H114 C87 0.932 . S
H115 C88 0.929 . S
H116 C106 0.932 . S
H117 C107 0.930 . S
H118 C108 0.932 . S
H119 C109 0.929 . S
H120 C123 0.926 1_565 S
H121 C126 0.929 . S
H122 C128 0.930 . S
C123 H120 0.926 1_545 S
C123 C124 1.398 . S
C123 C125 1.396 . S
C124 C123 1.398 . S
C124 C128 1.407 . S
C125 C123 1.396 . S
C125 C126 1.394 . S
C126 H121 0.929 . S
C126 C125 1.394 . S
C126 C127 1.382 . S
C127 C126 1.382 . S
C127 C128 1.392 . S
C127 N129 1.420 . S
C128 H122 0.930 . S
C128 C124 1.407 . S
C128 C127 1.392 . S
N129 C127 1.420 . S
N129 C130 1.244 . S
C130 N129 1.244 . S
H131 C134 0.929 . S
H132 C137 0.929 . S
H133 C139 0.930 . S
C134 H131 0.929 . S
C134 C135 1.398 . S
C134 C136 1.396 . S
C135 C134 1.398 . S
C135 C139 1.407 . S
C136 C134 1.396 . S
C136 C137 1.394 . S
C137 H132 0.929 . S
C137 C136 1.394 . S
C137 C138 1.382 . S
C138 C137 1.382 . S
C138 C139 1.392 . S
C138 N140 1.420 . S
C139 H133 0.930 . S
C139 C135 1.407 . S
C139 C138 1.392 . S
N140 C138 1.420 . S
N140 C141 1.244 . S
C141 N140 1.244 . S
H142 C145 0.929 1_655 S
H143 C148 0.929 . S
H144 C150 0.930 . S
C145 H142 0.929 1_455 S
C145 C146 1.398 . S
C145 C147 1.396 . S
C146 C145 1.398 . S
C146 C150 1.407 . S
C147 C145 1.396 . S
C147 C148 1.394 . S
C148 H143 0.929 . S
C148 C147 1.394 . S
C148 C149 1.382 . S
C149 C148 1.382 . S
C149 C150 1.392 . S
C149 N151 1.420 . S
C150 H144 0.930 . S
C150 C146 1.407 . S
C150 C149 1.392 . S
N151 C149 1.420 . S
N151 C152 1.244 . S
C152 N151 1.244 . S
H153 C156 0.929 . S
H154 C159 0.929 . S
H155 C161 0.930 . S
C156 H153 0.929 . S
C156 C157 1.398 . S
C156 C158 1.396 . S
C157 C156 1.398 . S
C157 C161 1.407 . S
C158 C156 1.396 . S
C158 C159 1.394 1_455 S
C159 H154 0.929 . S
C159 C158 1.394 1_655 S
C159 C160 1.382 . S
C160 C159 1.382 . S
C160 C161 1.392 1_655 S
C160 N162 1.420 . S
C161 H155 0.930 . S
C161 C157 1.407 . S
C161 C160 1.392 1_455 S
N162 C160 1.420 . S
N162 C163 1.244 . S
C163 N162 1.244 . S
H164 C167 0.929 . S
H165 C170 0.929 1_565 S
H166 C172 0.930 . S
C167 H164 0.929 . S
C167 C168 1.398 . S
C167 C169 1.396 . S
C168 C167 1.398 . S
C168 C172 1.407 . S
C169 C167 1.396 . S
C169 C170 1.394 . S
C170 H165 0.929 1_545 S
C170 C169 1.394 . S
C170 C171 1.382 . S
C171 C170 1.382 . S
C171 C172 1.392 . S
C171 N173 1.420 1_545 S
C172 H166 0.930 . S
C172 C168 1.407 . S
C172 C171 1.392 . S
N173 C171 1.420 1_565 S
N173 C174 1.244 . S
C174 N173 1.244 . S
H175 C178 0.929 . S
H176 C181 0.929 . S
H177 C183 0.930 . S
C178 H175 0.929 . S
C178 C179 1.398 . S
C178 C180 1.396 . S
C179 C178 1.398 . S
C179 C183 1.407 . S
C180 C178 1.396 . S
C180 C181 1.394 . S
C181 H176 0.929 . S
C181 C180 1.394 . S
C181 C182 1.382 . S
C182 C181 1.382 . S
C182 C183 1.392 . S
C182 N184 1.420 . S
C183 H177 0.930 . S
C183 C179 1.407 . S
C183 C182 1.392 . S
N184 C182 1.420 . S
N184 C185 1.244 . S
C185 N184 1.244 . S
H186 C192 0.930 . S
H187 C195 0.930 . S
H188 C196 0.930 . S
H189 C197 0.930 . S
H190 C200 0.930 . S
H191 C201 0.930 . S
C192 H186 0.930 . S
C192 C193 1.355 . S
C192 C194 1.415 . S
C193 C192 1.355 . S
C193 C195 1.419 . S
C194 C192 1.415 . S
C194 C199 1.425 . S
C194 C201 1.409 . S
C195 H187 0.930 . S
C195 C193 1.419 . S
C195 C196 1.362 . S
C196 H188 0.930 . S
C196 C195 1.362 . S
C196 C199 1.409 . S
C197 H189 0.930 . S
C197 C198 1.355 . S
C197 C199 1.415 . S
C198 C197 1.355 . S
C198 C200 1.419 . S
C199 C194 1.425 . S
C199 C196 1.409 . S
C199 C197 1.415 . S
C200 H190 0.930 . S
C200 C198 1.419 . S
C200 C201 1.362 . S
C201 H191 0.930 . S
C201 C194 1.409 . S
C201 C200 1.362 . S
H202 C208 0.930 . S
H203 C211 0.930 . S
H204 C212 0.930 . S
H205 C213 0.930 . S
H206 C216 0.930 . S
H207 C217 0.930 . S
C208 H202 0.930 . S
C208 C209 1.355 . S
C208 C210 1.415 . S
C209 C208 1.355 . S
C209 C211 1.419 . S
C210 C208 1.415 . S
C210 C215 1.425 . S
C210 C217 1.409 . S
C211 H203 0.930 . S
C211 C209 1.419 . S
C211 C212 1.362 . S
C212 H204 0.930 . S
C212 C211 1.362 . S
C212 C215 1.409 . S
C213 H205 0.930 . S
C213 C214 1.355 . S
C213 C215 1.415 . S
C214 C213 1.355 . S
C214 C216 1.419 . S
C215 C210 1.425 . S
C215 C212 1.409 . S
C215 C213 1.415 . S
C216 H206 0.930 . S
C216 C214 1.419 . S
C216 C217 1.362 . S
C217 H207 0.930 . S
C217 C210 1.409 . S
C217 C216 1.362 . S
H218 C224 0.930 . S
H219 C227 0.930 . S
H220 C228 0.930 . S
H221 C229 0.930 . S
H222 C232 0.930 . S
H223 C233 0.930 . S
C224 H218 0.930 . S
C224 C225 1.355 . S
C224 C226 1.415 . S
C225 C224 1.355 . S
C225 C227 1.419 . S
C226 C224 1.415 . S
C226 C231 1.425 . S
C226 C233 1.409 . S
C227 H219 0.930 . S
C227 C225 1.419 . S
C227 C228 1.362 . S
C228 H220 0.930 . S
C228 C227 1.362 . S
C228 C231 1.409 . S
C229 H221 0.930 . S
C229 C230 1.355 . S
C229 C231 1.415 . S
C230 C229 1.355 . S
C230 C232 1.419 . S
C231 C226 1.425 . S
C231 C228 1.409 . S
C231 C229 1.415 . S
C232 H222 0.930 . S
C232 C230 1.419 . S
C232 C233 1.362 . S
C233 H223 0.930 . S
C233 C226 1.409 . S
C233 C232 1.362 . S
H234 C240 0.930 . S
H235 C243 0.930 . S
H236 C244 0.930 . S
H237 C245 0.930 . S
H238 C248 0.930 . S
H239 C249 0.930 . S
C240 H234 0.930 . S
C240 C241 1.355 . S
C240 C242 1.415 . S
C241 C240 1.355 . S
C241 C243 1.419 . S
C242 C240 1.415 . S
C242 C247 1.425 . S
C242 C249 1.409 . S
C243 H235 0.930 . S
C243 C241 1.419 . S
C243 C244 1.362 . S
C244 H236 0.930 . S
C244 C243 1.362 . S
C244 C247 1.409 . S
C245 H237 0.930 . S
C245 C246 1.355 . S
C245 C247 1.415 . S
C246 C245 1.355 . S
C246 C248 1.419 . S
C247 C242 1.425 . S
C247 C244 1.409 . S
C247 C245 1.415 . S
C248 H238 0.930 . S
C248 C246 1.419 . S
C248 C249 1.362 . S
C249 H239 0.930 . S
C249 C242 1.409 . S
C249 C248 1.362 . S
H250 C256 0.930 . S
H251 C259 0.930 . S
H252 C260 0.930 . S
H253 C261 0.930 . S
H254 C264 0.930 . S
H255 C265 0.930 . S
C256 H250 0.930 . S
C256 C257 1.355 . S
C256 C258 1.415 . S
C257 C256 1.355 . S
C257 C259 1.419 . S
C258 C256 1.415 . S
C258 C263 1.425 . S
C258 C265 1.409 . S
C259 H251 0.930 . S
C259 C257 1.419 . S
C259 C260 1.362 . S
C260 H252 0.930 . S
C260 C259 1.362 . S
C260 C263 1.409 . S
C261 H253 0.930 . S
C261 C262 1.355 . S
C261 C263 1.415 . S
C262 C261 1.355 . S
C262 C264 1.419 . S
C263 C258 1.425 . S
C263 C260 1.409 . S
C263 C261 1.415 . S
C264 H254 0.930 . S
C264 C262 1.419 . S
C264 C265 1.362 . S
C265 H255 0.930 . S
C265 C258 1.409 . S
C265 C264 1.362 . S
H266 C272 0.930 . S
H267 C275 0.930 . S
H268 C276 0.930 . S
H269 C277 0.930 . S
H270 C280 0.930 . S
H271 C281 0.930 . S
C272 H266 0.930 . S
C272 C273 1.355 . S
C272 C274 1.415 . S
C273 C272 1.355 . S
C273 C275 1.419 . S
C274 C272 1.415 . S
C274 C279 1.425 . S
C274 C281 1.409 . S
C275 H267 0.930 . S
C275 C273 1.419 . S
C275 C276 1.362 . S
C276 H268 0.930 . S
C276 C275 1.362 . S
C276 C279 1.409 . S
C277 H269 0.930 . S
C277 C278 1.355 . S
C277 C279 1.415 . S
C278 C277 1.355 . S
C278 C280 1.419 . S
C279 C274 1.425 . S
C279 C276 1.409 . S
C279 C277 1.415 . S
C280 H270 0.930 . S
C280 C278 1.419 . S
C280 C281 1.362 . S
C281 H271 0.930 . S
C281 C274 1.409 . S
C281 C280 1.362 . S
H282 C288 0.930 . S
H283 C291 0.930 . S
H284 C292 0.930 . S
H285 C293 0.930 . S
H286 C296 0.930 . S
H287 C297 0.930 . S
C288 H282 0.930 . S
C288 C289 1.355 . S
C288 C290 1.415 . S
C289 C288 1.355 . S
C289 C291 1.419 . S
C290 C288 1.415 . S
C290 C295 1.425 . S
C290 C297 1.409 . S
C291 H283 0.930 . S
C291 C289 1.419 . S
C291 C292 1.362 . S
C292 H284 0.930 . S
C292 C291 1.362 . S
C292 C295 1.409 . S
C293 H285 0.930 . S
C293 C294 1.355 . S
C293 C295 1.415 . S
C294 C293 1.355 . S
C294 C296 1.419 . S
C295 C290 1.425 . S
C295 C292 1.409 . S
C295 C293 1.415 . S
C296 H286 0.930 . S
C296 C294 1.419 . S
C296 C297 1.362 . S
C297 H287 0.930 . S
C297 C290 1.409 . S
C297 C296 1.362 . S
H298 C304 0.930 . S
H299 C307 0.930 . S
H300 C308 0.930 . S
H301 C309 0.930 . S
H302 C312 0.930 . S
H303 C313 0.930 . S
C304 H298 0.930 . S
C304 C305 1.355 . S
C304 C306 1.415 . S
C305 C304 1.355 . S
C305 C307 1.419 . S
C306 C304 1.415 . S
C306 C311 1.425 . S
C306 C313 1.409 . S
C307 H299 0.930 . S
C307 C305 1.419 . S
C307 C308 1.362 . S
C308 H300 0.930 . S
C308 C307 1.362 . S
C308 C311 1.409 . S
C309 H301 0.930 . S
C309 C310 1.355 . S
C309 C311 1.415 . S
C310 C309 1.355 . S
C310 C312 1.419 . S
C311 C306 1.425 . S
C311 C308 1.409 . S
C311 C309 1.415 . S
C312 H302 0.930 . S
C312 C310 1.419 . S
C312 C313 1.362 . S
C313 H303 0.930 . S
C313 C306 1.409 . S
C313 C312 1.362 . S
H314 C320 0.930 . S
H315 C323 0.930 . S
H316 C324 0.930 . S
H317 C325 0.930 . S
H318 C328 0.930 . S
H319 C329 0.930 . S
C320 H314 0.930 . S
C320 C321 1.355 . S
C320 C322 1.415 . S
C321 C320 1.355 . S
C321 C323 1.419 . S
C322 C320 1.415 . S
C322 C327 1.425 . S
C322 C329 1.409 . S
C323 H315 0.930 . S
C323 C321 1.419 . S
C323 C324 1.362 . S
C324 H316 0.930 . S
C324 C323 1.362 . S
C324 C327 1.409 . S
C325 H317 0.930 . S
C325 C326 1.355 . S
C325 C327 1.415 . S
C326 C325 1.355 . S
C326 C328 1.419 . S
C327 C322 1.425 . S
C327 C324 1.409 . S
C327 C325 1.415 . S
C328 H318 0.930 . S
C328 C326 1.419 . S
C328 C329 1.362 . S
C329 H319 0.930 . S
C329 C322 1.409 . S
C329 C328 1.362 . S
H330 C336 0.930 . S
H331 C339 0.930 . S
H332 C340 0.930 . S
H333 C341 0.930 . S
H334 C344 0.930 . S
H335 C345 0.930 . S
C336 H330 0.930 . S
C336 C337 1.355 . S
C336 C338 1.415 . S
C337 C336 1.355 . S
C337 C339 1.419 . S
C338 C336 1.415 . S
C338 C343 1.425 . S
C338 C345 1.409 . S
C339 H331 0.930 . S
C339 C337 1.419 . S
C339 C340 1.362 . S
C340 H332 0.930 . S
C340 C339 1.362 . S
C340 C343 1.409 . S
C341 H333 0.930 . S
C341 C342 1.355 . S
C341 C343 1.415 . S
C342 C341 1.355 . S
C342 C344 1.419 . S
C343 C338 1.425 . S
C343 C340 1.409 . S
C343 C341 1.415 . S
C344 H334 0.930 . S
C344 C342 1.419 . S
C344 C345 1.362 . S
C345 H335 0.930 . S
C345 C338 1.409 . S
C345 C344 1.362 . S
H346 C352 0.930 . S
H347 C355 0.930 . S
H348 C356 0.930 . S
H349 C357 0.930 . S
H350 C360 0.930 . S
H351 C361 0.930 . S
C352 H346 0.930 . S
C352 C353 1.355 . S
C352 C354 1.415 . S
C353 C352 1.355 . S
C353 C355 1.419 . S
C354 C352 1.415 . S
C354 C359 1.425 . S
C354 C361 1.409 . S
C355 H347 0.930 . S
C355 C353 1.419 . S
C355 C356 1.362 . S
C356 H348 0.930 . S
C356 C355 1.362 . S
C356 C359 1.409 . S
C357 H349 0.930 . S
C357 C358 1.355 . S
C357 C359 1.415 . S
C358 C357 1.355 . S
C358 C360 1.419 . S
C359 C354 1.425 . S
C359 C356 1.409 . S
C359 C357 1.415 . S
C360 H350 0.930 . S
C360 C358 1.419 . S
C360 C361 1.362 . S
C361 H351 0.930 . S
C361 C354 1.409 . S
C361 C360 1.362 . S
H362 C368 0.930 . S
H363 C371 0.930 . S
H364 C372 0.930 . S
H365 C373 0.930 . S
H366 C376 0.930 . S
H367 C377 0.930 . S
C368 H362 0.930 . S
C368 C369 1.355 . S
C368 C370 1.415 . S
C369 C368 1.355 . S
C369 C371 1.419 . S
C370 C368 1.415 . S
C370 C375 1.425 . S
C370 C377 1.409 . S
C371 H363 0.930 . S
C371 C369 1.419 . S
C371 C372 1.362 . S
C372 H364 0.930 . S
C372 C371 1.362 . S
C372 C375 1.409 . S
C373 H365 0.930 . S
C373 C374 1.355 . S
C373 C375 1.415 . S
C374 C373 1.355 . S
C374 C376 1.419 . S
C375 C370 1.425 . S
C375 C372 1.409 . S
C375 C373 1.415 . S
C376 H366 0.930 . S
C376 C374 1.419 . S
C376 C377 1.362 . S
C377 H367 0.930 . S
C377 C370 1.409 . S
C377 C376 1.362 . S
H378 C384 0.930 . S
H379 C387 0.930 1_655 S
H380 C388 0.930 . S
H381 C389 0.930 1_655 S
H382 C392 0.930 . S
H383 C393 0.930 . S
C384 H378 0.930 . S
C384 C385 1.355 . S
C384 C386 1.415 . S
C385 C384 1.355 . S
C385 C387 1.419 . S
C386 C384 1.415 . S
C386 C391 1.425 . S
C386 C393 1.409 . S
C387 H379 0.930 1_455 S
C387 C385 1.419 . S
C387 C388 1.362 1_455 S
C388 H380 0.930 . S
C388 C387 1.362 1_655 S
C388 C391 1.409 1_655 S
C389 H381 0.930 1_455 S
C389 C390 1.355 . S
C389 C391 1.415 1_556 S
C390 C389 1.355 . S
C390 C392 1.419 . S
C391 C386 1.425 . S
C391 C388 1.409 1_455 S
C391 C389 1.415 1_554 S
C392 H382 0.930 . S
C392 C390 1.419 . S
C392 C393 1.362 1_556 S
C393 H383 0.930 . S
C393 C386 1.409 . S
C393 C392 1.362 1_554 S
H394 C400 0.930 . S
H395 C403 0.930 . S
H396 C404 0.930 . S
H397 C405 0.930 . S
H398 C408 0.930 . S
H399 C409 0.930 1_565 S
C400 H394 0.930 . S
C400 C401 1.355 . S
C400 C402 1.415 . S
C401 C400 1.355 . S
C401 C403 1.419 . S
C402 C400 1.415 . S
C402 C407 1.425 . S
C402 C409 1.409 . S
C403 H395 0.930 . S
C403 C401 1.419 . S
C403 C404 1.362 . S
C404 H396 0.930 . S
C404 C403 1.362 . S
C404 C407 1.409 . S
C405 H397 0.930 . S
C405 C406 1.355 . S
C405 C407 1.415 . S
C406 C405 1.355 . S
C406 C408 1.419 . S
C407 C402 1.425 . S
C407 C404 1.409 . S
C407 C405 1.415 . S
C408 H398 0.930 . S
C408 C406 1.419 . S
C408 C409 1.362 . S
C409 H399 0.930 1_545 S
C409 C402 1.409 . S
C409 C408 1.362 . S
H410 C416 0.930 . S
H411 C419 0.930 . S
H412 C420 0.930 . S
H413 C421 0.930 . S
H414 C424 0.930 . S
H415 C425 0.930 . S
C416 H410 0.930 . S
C416 C417 1.355 . S
C416 C418 1.415 . S
C417 C416 1.355 . S
C417 C419 1.419 . S
C418 C416 1.415 . S
C418 C423 1.425 . S
C418 C425 1.409 . S
C419 H411 0.930 . S
C419 C417 1.419 . S
C419 C420 1.362 . S
C420 H412 0.930 . S
C420 C419 1.362 . S
C420 C423 1.409 . S
C421 H413 0.930 . S
C421 C422 1.355 . S
C421 C423 1.415 . S
C422 C421 1.355 . S
C422 C424 1.419 . S
C423 C418 1.425 . S
C423 C420 1.409 . S
C423 C421 1.415 . S
C424 H414 0.930 . S
C424 C422 1.419 . S
C424 C425 1.362 . S
C425 H415 0.930 . S
C425 C418 1.409 . S
C425 C424 1.362 . S
H426 C432 0.930 . S
H427 C435 0.938 . S
H428 C436 0.930 . S
H429 C437 0.930 1_565 S
H430 C440 0.930 . S
H431 C441 0.930 . S
C432 H426 0.930 . S
C432 C433 1.355 . S
C432 C434 1.415 . S
C433 C432 1.355 . S
C433 C435 1.403 1_545 S
C434 C432 1.415 . S
C434 C439 1.425 . S
C434 C441 1.409 . S
C435 H427 0.938 . S
C435 C433 1.403 1_565 S
C435 C436 1.371 . S
C436 H428 0.930 . S
C436 C435 1.371 . S
C436 C439 1.409 1_565 S
C437 H429 0.930 1_545 S
C437 C438 1.355 . S
C437 C439 1.415 . S
C438 C437 1.355 . S
C438 C440 1.419 . S
C439 C434 1.425 . S
C439 C436 1.409 1_545 S
C439 C437 1.415 . S
C440 H430 0.930 . S
C440 C438 1.419 . S
C440 C441 1.362 . S
C441 H431 0.930 . S
C441 C434 1.409 . S
C441 C440 1.362 . S
H442 C448 0.930 . S
H443 C451 0.930 . S
H444 C452 0.930 . S
H445 C453 0.930 . S
H446 C456 0.930 . S
H447 C457 0.930 . S
C448 H442 0.930 . S
C448 C449 1.355 . S
C448 C450 1.415 . S
C449 C448 1.355 . S
C449 C451 1.419 . S
C450 C448 1.415 . S
C450 C455 1.425 . S
C450 C457 1.409 . S
C451 H443 0.930 . S
C451 C449 1.419 . S
C451 C452 1.362 . S
C452 H444 0.930 . S
C452 C451 1.362 . S
C452 C455 1.409 . S
C453 H445 0.930 . S
C453 C454 1.355 . S
C453 C455 1.415 1_554 S
C454 C453 1.355 . S
C454 C456 1.419 . S
C455 C450 1.425 . S
C455 C452 1.409 . S
C455 C453 1.415 1_556 S
C456 H446 0.930 . S
C456 C454 1.419 . S
C456 C457 1.362 1_554 S
C457 H447 0.930 . S
C457 C450 1.409 . S
C457 C456 1.362 1_556 S
H458 C464 0.930 . S
H459 C467 0.930 . S
H460 C468 0.930 . S
H461 C469 0.930 . S
H462 C472 0.930 . S
H463 C473 0.930 . S
C464 H458 0.930 . S
C464 C465 1.355 . S
C464 C466 1.415 . S
C465 C464 1.355 . S
C465 C467 1.419 1_455 S
C466 C464 1.415 . S
C466 C471 1.425 . S
C466 C473 1.409 . S
C467 H459 0.930 . S
C467 C465 1.419 1_655 S
C467 C468 1.362 . S
C468 H460 0.930 . S
C468 C467 1.362 . S
C468 C471 1.409 1_655 S
C469 H461 0.930 . S
C469 C470 1.355 1_655 S
C469 C471 1.415 1_655 S
C470 C469 1.355 1_455 S
C470 C472 1.419 . S
C471 C466 1.425 . S
C471 C468 1.409 1_455 S
C471 C469 1.415 1_455 S
C472 H462 0.930 . S
C472 C470 1.419 . S
C472 C473 1.362 . S
C473 H463 0.930 . S
C473 C466 1.409 . S
C473 C472 1.362 . S
C193 C25 0.680 . S
C198 C185 0.682 . S
C209 C65 0.397 . S
C214 C163 0.353 . S
C225 C105 0.641 . S
C230 C174 0.421 . S
C241 C4 0.678 . S
C246 C179 0.521 . S
C262 C157 0.256 . S
C257 C44 0.325 . S
C278 C168 0.382 . S
C273 C84 0.368 . S
C289 C60 3.038 . S
C294 C141 2.962 . S
C305 C100 3.030 . S
C310 C146 2.971 1_655 S
C321 C31 3.013 . S
C326 C124 2.966 1_565 S
C342 C135 2.966 . S
C337 C71 3.015 . S
C358 C152 2.949 . S
C353 C111 3.021 . S
C369 C20 3.046 . S
C374 C130 2.988 . S
C390 C147 1.762 . S
C385 C2 1.693 . S
C401 C42 1.769 . S
C406 C125 1.756 . S
C417 C82 1.730 . S
C422 C136 1.775 . S
C438 C169 1.100 . S
C433 C63 1.125 . S
C454 C180 1.200 . S
C449 C103 1.166 . S
C465 C23 1.136 . S
C470 C158 1.101 . S
