# Generated by pormake.
# Topology zzz, (3,6)-cn, num edge types: 1
# Building blocks:
#     Node 0, Type 0, BuildingBlock: QEWDON_clean_linker_0, # of connection points: 3
#     Node 1, Type 0, BuildingBlock: QEWDON_clean_linker_0, # of connection points: 3
#     Node 2, Type 0, BuildingBlock: QEWDON_clean_linker_0, # of connection points: 3
#     Node 3, Type 0, BuildingBlock: QEWDON_clean_linker_0, # of connection points: 3
#     Node 4, Type 0, BuildingBlock: QEWDON_clean_linker_0, # of connection points: 3
#     Node 5, Type 0, BuildingBlock: QEWDON_clean_linker_0, # of connection points: 3
#     Node 6, Type 0, BuildingBlock: QEWDON_clean_linker_0, # of connection points: 3
#     Node 7, Type 0, BuildingBlock: QEWDON_clean_linker_0, # of connection points: 3
#     Node 8, Type 1, BuildingBlock: KUMJIN_clean_sbu_1, # of connection points: 6
#     Node 9, Type 1, BuildingBlock: KUMJIN_clean_sbu_1, # of connection points: 6
#     Node 10, Type 1, BuildingBlock: KUMJIN_clean_sbu_1, # of connection points: 6
#     Node 11, Type 1, BuildingBlock: KUMJIN_clean_sbu_1, # of connection points: 6
#     Edge 12, Type (0, 1), BuildingBlock: CIFDUS_clean_linker_0, # of connection points: 2
#     Edge 13, Type (0, 1), BuildingBlock: CIFDUS_clean_linker_0, # of connection points: 2
#     Edge 14, Type (0, 1), BuildingBlock: CIFDUS_clean_linker_0, # of connection points: 2
#     Edge 15, Type (0, 1), BuildingBlock: CIFDUS_clean_linker_0, # of connection points: 2
#     Edge 16, Type (0, 1), BuildingBlock: CIFDUS_clean_linker_0, # of connection points: 2
#     Edge 17, Type (0, 1), BuildingBlock: CIFDUS_clean_linker_0, # of connection points: 2
#     Edge 18, Type (0, 1), BuildingBlock: CIFDUS_clean_linker_0, # of connection points: 2
#     Edge 19, Type (0, 1), BuildingBlock: CIFDUS_clean_linker_0, # of connection points: 2
#     Edge 20, Type (0, 1), BuildingBlock: CIFDUS_clean_linker_0, # of connection points: 2
#     Edge 21, Type (0, 1), BuildingBlock: CIFDUS_clean_linker_0, # of connection points: 2
#     Edge 22, Type (0, 1), BuildingBlock: CIFDUS_clean_linker_0, # of connection points: 2
#     Edge 23, Type (0, 1), BuildingBlock: CIFDUS_clean_linker_0, # of connection points: 2
#     Edge 24, Type (0, 1), BuildingBlock: CIFDUS_clean_linker_0, # of connection points: 2
#     Edge 25, Type (0, 1), BuildingBlock: CIFDUS_clean_linker_0, # of connection points: 2
#     Edge 26, Type (0, 1), BuildingBlock: CIFDUS_clean_linker_0, # of connection points: 2
#     Edge 27, Type (0, 1), BuildingBlock: CIFDUS_clean_linker_0, # of connection points: 2
#     Edge 28, Type (0, 1), BuildingBlock: CIFDUS_clean_linker_0, # of connection points: 2
#     Edge 29, Type (0, 1), BuildingBlock: CIFDUS_clean_linker_0, # of connection points: 2
#     Edge 30, Type (0, 1), BuildingBlock: CIFDUS_clean_linker_0, # of connection points: 2
#     Edge 31, Type (0, 1), BuildingBlock: CIFDUS_clean_linker_0, # of connection points: 2
#     Edge 32, Type (0, 1), BuildingBlock: CIFDUS_clean_linker_0, # of connection points: 2
#     Edge 33, Type (0, 1), BuildingBlock: CIFDUS_clean_linker_0, # of connection points: 2
#     Edge 34, Type (0, 1), BuildingBlock: CIFDUS_clean_linker_0, # of connection points: 2
#     Edge 35, Type (0, 1), BuildingBlock: CIFDUS_clean_linker_0, # of connection points: 2
# Relax obj value: 0.132
# Max RMSD: 0.100
# Mean RMSD: 0.040
data_MOF--net-zzz--node1-KUMJIN_clean_sbu_1--node2-QEWDON_clean_linker_0--edge1-CIFDUS_clean_linker_0
_symmetry_space_group_name_H-M    P1
_symmetry_Int_Tables_number       1
_symmetry_cell_setting            triclinic
loop_
_symmetry_equiv_pos_as_xyz
'x, y, z'
_cell_length_a     47.63717
_cell_length_b     47.615989
_cell_length_c     13.688617
_cell_angle_alpha  89.97477
_cell_angle_beta   90.032065
_cell_angle_gamma 89.984858
loop_
_atom_site_label
_atom_site_type_symbol
_atom_site_fract_x
_atom_site_fract_y
_atom_site_fract_z
_atom_type_partial_charge
H0 H 0.78113 0.55418 0.09431 0.0
C1 C 0.79331 0.55273 0.16042 0.0
C2 C 0.82235 0.55063 0.14959 0.0
C3 C 0.7806 0.55309 0.25313 0.0
H4 H 0.86233 0.54718 0.22196 0.0
C5 C 0.83981 0.5493 0.2315 0.0
C6 C 0.82893 0.55031 0.32563 0.0
C7 C 0.7992 0.55211 0.33686 0.0
C8 C 0.74844 0.55458 0.2598 0.0
H9 H 0.79125 0.55245 0.41055 0.0
C10 C 0.72989 0.55217 0.17641 0.0
C11 C 0.70011 0.55345 0.18632 0.0
C12 C 0.73561 0.55867 0.35133 0.0
H13 H 0.74767 0.56145 0.41723 0.0
C14 C 0.70653 0.55959 0.36107 0.0
H15 H 0.73778 0.54871 0.10365 0.0
C16 C 0.68902 0.55695 0.28024 0.0
H17 H 0.66655 0.55819 0.2912 0.0
H18 H 0.69747 0.56256 0.43259 0.0
H19 H 1.00461 0.78089 0.13267 0.0
C20 C 1.00738 0.79313 0.19846 0.0
C21 C 1.00854 0.82225 0.18879 0.0
C22 C 1.00976 0.78012 0.2899 0.0
H23 H 1.0121 0.86203 0.26187 0.0
C24 C 1.01063 0.83944 0.27121 0.0
C25 C 1.01315 0.828 0.36475 0.0
C26 C 1.01322 0.79809 0.37405 0.0
C27 C 1.00707 0.74822 0.2949 0.0
H28 H 1.01597 0.78918 0.44606 0.0
C29 C 1.01194 0.72987 0.21264 0.0
C30 C 1.00603 0.70045 0.21731 0.0
C31 C 0.99727 0.73589 0.38149 0.0
H32 H 0.99251 0.74846 0.4451 0.0
C33 C 0.9924 0.70712 0.3874 0.0
H34 H 0.02001 0.73817 0.14477 0.0
C35 C 0.99656 0.68969 0.30695 0.0
H36 H 0.99274 0.66745 0.31592 0.0
H37 H 0.98503 0.69829 0.45533 0.0
H38 H 0.78053 1.00068 0.15741 0.0
C39 C 0.76746 1.00483 0.2202 0.0
C40 C 0.73871 1.00237 0.20736 0.0
C41 C 0.77895 1.0131 0.30998 0.0
H42 H 0.698 1.00492 0.27516 0.0
C43 C 0.7205 1.00593 0.28689 0.0
C44 C 0.73026 1.01338 0.37938 0.0
C45 C 0.75982 1.01774 0.39052 0.0
C46 C 0.81077 1.01547 0.31655 0.0
H47 H 0.76755 0.02462 0.46079 0.0
C48 C 0.82855 1.01873 0.23205 0.0
C49 C 0.85831 1.01667 0.23881 0.0
C50 C 0.82397 1.01225 0.40743 0.0
H51 H 0.81193 1.00947 0.47363 0.0
C52 C 0.85313 1.01167 0.41483 0.0
H53 H 0.8197 0.02252 0.16057 0.0
C54 C 0.8701 1.01323 0.33192 0.0
H55 H 0.89266 1.0124 0.34101 0.0
H56 H 0.86257 1.00977 0.48607 0.0
H57 H 0.53212 0.77361 0.08249 0.0
C58 C 0.53253 0.76084 0.14784 0.0
C59 C 0.52826 0.73218 0.13702 0.0
C60 C 0.53874 0.77253 0.23914 0.0
H61 H 0.52635 0.69173 0.20585 0.0
C62 C 0.52977 0.71405 0.21686 0.0
C63 C 0.53605 0.72412 0.31001 0.0
C64 C 0.54072 0.75361 0.32139 0.0
C65 C 0.5454 0.80377 0.24314 0.0
H66 H 0.54564 0.76146 0.39347 0.0
C67 C 0.53621 0.82347 0.16966 0.0
C68 C 0.54562 0.85189 0.16915 0.0
C69 C 0.56355 0.81376 0.31602 0.0
H70 H 0.5719 0.79993 0.37153 0.0
C71 C 0.57275 0.8415 0.31575 0.0
H72 H 0.52173 0.8171 0.11303 0.0
C73 C 0.564 0.86024 0.24369 0.0
H74 H 0.57258 0.88123 0.24414 0.0
H75 H 0.58756 0.84836 0.37074 0.0
H76 H 0.27827 0.51549 0.26988 0.0
C77 C 0.26476 0.51747 0.20708 0.0
C78 C 0.23677 0.52276 0.22615 0.0
C79 C 0.27491 0.51483 0.11178 0.0
H80 H 0.19515 0.52709 0.16969 0.0
C81 C 0.21698 0.52336 0.15126 0.0
C82 C 0.22497 0.51949 0.05371 0.0
C83 C 0.25431 0.51533 0.03379 0.0
C84 C 0.30668 0.51135 0.09885 0.0
H85 H 0.26069 0.51316 0.95848 0.0
C86 C 0.32665 0.51671 0.1763 0.0
C87 C 0.35599 0.51145 0.16594 0.0
C88 C 0.31754 0.50171 0.00974 0.0
H89 H 0.30396 0.49693 0.9488 0.0
C90 C 0.34632 0.49761 0.99732 0.0
H91 H 0.31985 0.52496 0.24538 0.0
C92 C 0.36521 0.50232 0.07362 0.0
H93 H 0.38726 0.49916 0.0586 0.0
H94 H 0.35412 0.49045 0.9274 0.0
H95 H 1.01402 0.28506 0.26283 0.0
C96 C 0.02037 0.27018 0.20761 0.0
C97 C 1.01279 0.24254 0.22281 0.0
C98 C 0.035 0.27848 0.12391 0.0
H99 H 1.01181 0.20053 0.16916 0.0
C100 C 0.01795 0.22198 0.15309 0.0
C101 C 0.03109 0.22851 0.06448 0.0
C102 C 0.04043 0.25702 0.0509 0.0
C103 C 0.04237 0.30969 0.11499 0.0
H104 H 0.05136 0.26219 0.98415 0.0
C105 C 0.04182 0.3288 0.19711 0.0
C106 C 0.04501 0.35843 0.18595 0.0
C107 C 0.04809 0.32129 0.02294 0.0
H108 H 0.04856 0.30838 0.95811 0.0
C109 C 0.05234 0.35012 0.01171 0.0
H110 H 0.03932 0.32102 0.27059 0.0
C111 C 0.05043 0.36844 0.09116 0.0
H112 H 0.05256 0.39068 0.07694 0.0
H113 H 0.05641 0.35854 0.93964 0.0
H114 H 0.26133 0.07528 0.18634 0.0
C115 C 0.27474 0.06701 0.12998 0.0
C116 C 0.3003 0.0808 0.11638 0.0
C117 C 0.2682 0.04189 0.08056 0.0
H118 H 0.3399 0.08039 0.04077 0.0
C119 C 0.31952 0.07048 0.04756 0.0
C120 C 0.31506 0.04541 0.9974 0.0
C121 C 0.28929 0.03095 0.01445 0.0
C122 C 0.24058 0.02676 0.1051 0.0
H123 H 0.28635 1.01145 0.97589 0.0
C124 C 0.21928 0.03821 0.16913 0.0
C125 C 0.19492 0.02257 0.19507 0.0
C126 C 0.23537 0.99982 0.06641 0.0
H127 H 0.24987 0.98951 0.01798 0.0
C128 C 0.21115 0.98487 0.09011 0.0
H129 H 0.22106 0.05886 0.20064 0.0
C130 C 0.19137 0.9959 0.15416 0.0
H131 H 0.17301 0.98347 0.17178 0.0
H132 H 0.20785 0.96423 0.05914 0.0
H133 H 0.5129 0.27697 0.26249 0.0
C134 C 0.51218 0.29042 0.19896 0.0
C135 C 0.50973 0.31917 0.21508 0.0
C136 C 0.51576 0.27938 0.10501 0.0
H137 H 0.50978 0.36042 0.15139 0.0
C138 C 0.51077 0.33803 0.13694 0.0
C139 C 0.51439 0.32867 0.04105 0.0
C140 C 0.51643 0.29906 0.02468 0.0
C141 C 0.522 0.24803 0.09634 0.0
H142 H 0.51907 0.29179 0.95049 0.0
C143 C 0.51539 0.22802 0.17223 0.0
C144 C 0.52568 0.19979 0.17057 0.0
C145 C 0.5374 0.23824 0.01597 0.0
H146 H 0.54344 0.2521 0.95712 0.0
C147 C 0.54678 0.21059 0.01185 0.0
H148 H 0.50215 0.23419 0.23239 0.0
C149 C 0.5417 0.19194 0.08833 0.0
H150 H 0.55126 0.17146 0.0825 0.0
H151 H 0.55908 0.20375 0.94978 0.0
Eu152 Eu 1.00152 0.03918 0.62077 0.0
C153 C 0.07744 0.06596 0.9522 0.0
N154 N 0.08245 0.0545 0.86307 0.0
C155 C 0.12101 0.08596 0.83792 0.0
C156 C 0.09327 0.089 0.98561 0.0
C157 C 0.10455 0.06335 0.80731 0.0
C158 C 0.11517 0.09904 0.92699 0.0
C159 C 0.05011 0.06658 0.1014 0.0
C160 C 0.05633 0.05461 0.00966 0.0
C161 C 0.06517 0.09016 0.1336 0.0
C162 C 0.08683 0.10123 0.07614 0.0
Eu163 Eu 0.05414 1.01603 0.81798 0.0
N164 N 0.04268 0.03126 0.97789 0.0
C165 C 0.02913 0.05428 0.15853 0.0
C166 C 0.02481 1.01739 0.03886 0.0
C167 C 1.01637 0.02958 0.1267 0.0
H168 H 0.10889 0.05334 0.73807 0.0
H169 H 1.00028 1.01969 0.1702 0.0
H170 H 0.93585 0.03626 0.71815 0.0
H171 H 0.04046 0.99342 0.28111 0.0
H172 H 1.01712 0.99684 0.02057 0.0
H173 H 0.02322 0.06318 0.2284 0.0
H174 H 0.04102 0.02575 0.42073 0.0
H175 H 0.13808 0.09337 0.79264 0.0
H176 H 0.06059 0.09966 0.20371 0.0
H177 H 0.09859 0.11914 0.10264 0.0
H178 H 0.89306 1.00841 0.69801 0.0
H179 H 0.12781 0.11673 0.95017 0.0
H180 H 0.99851 0.96424 0.24889 0.0
N181 N 0.95759 1.01672 0.60051 0.0
C182 C 0.95515 0.99977 0.52103 0.0
C183 C 0.91049 1.00549 0.6484 0.0
C184 C 0.9305 0.98406 0.50472 0.0
C185 C 0.93514 0.02089 0.66081 0.0
C186 C 0.90844 0.98645 0.57142 0.0
N187 N 1.00114 1.01284 0.47443 0.0
C188 C 0.023 1.01254 0.40991 0.0
C189 C 0.97574 0.97994 0.3743 0.0
C190 C 0.97744 0.99783 0.45611 0.0
C191 C 0.99891 0.97797 0.31199 0.0
C192 C 0.02263 0.99437 0.32995 0.0
H193 H 0.88946 0.97418 0.56277 0.0
H194 H 0.90988 0.95413 0.40956 0.0
H195 H 0.94955 0.95046 0.29544 0.0
O196 O 1.0105 0.08058 0.5605 0.0
O197 O 1.01708 0.99399 0.6022 0.0
O198 O 0.03045 0.97789 0.75402 0.0
O199 O 0.96909 0.06223 0.5426 0.0
O200 O 0.04813 0.04766 0.57991 0.0
O201 O 0.06732 1.01085 0.66113 0.0
O202 O 0.07341 0.98615 0.91954 0.0
O203 O 0.04879 0.06323 0.77842 0.0
O204 O 1.00223 0.06393 0.76237 0.0
O205 O 0.09687 1.00193 0.79683 0.0
O206 O 1.00917 1.00114 0.85093 0.0
O207 O 0.98247 0.03474 0.77481 0.0
C208 C 0.02194 0.97326 0.66346 0.0
C209 C 0.97176 0.10828 0.60227 0.0
C210 C 0.97438 0.15673 0.65452 0.0
C211 C 0.95236 0.15243 0.72035 0.0
C212 C 0.95009 0.10376 0.67056 0.0
C213 C 0.9405 0.12577 0.72923 0.0
C214 C 0.98408 0.13463 0.59619 0.0
C215 C 0.06931 0.03021 0.5938 0.0
C216 C 0.98382 0.0852 0.54508 0.0
C217 C 0.92868 0.96632 0.4231 0.0
C218 C 0.95123 0.96429 0.358 0.0
C219 C 0.02506 0.07674 0.79051 0.0
C220 C 0.10191 0.95454 0.82828 0.0
C221 C 0.0878 0.90586 0.80536 0.0
C222 C 0.10909 0.90252 0.73545 0.0
C223 C 0.1235 0.95066 0.75973 0.0
C224 C 0.08446 0.93197 0.85169 0.0
C225 C 0.1269 0.92484 0.71321 0.0
C226 C 0.98538 1.01514 0.84222 0.0
C227 C 0.09551 0.9829 0.86424 0.0
H228 H 0.94408 0.16973 0.76282 0.0
H229 H 0.94063 0.08332 0.67919 0.0
H230 H 0.92367 0.12222 0.78082 0.0
H231 H 1.00061 0.13823 0.54303 0.0
H232 H 0.11209 0.88265 0.69849 0.0
H233 H 0.13729 0.96786 0.74025 0.0
H234 H 0.06839 0.93474 0.90683 0.0
H235 H 0.14332 0.92216 0.65943 0.0
Eu236 Eu 0.53177 0.05718 0.78201 0.0
C237 C 0.53435 0.94181 0.51921 0.0
N238 N 0.53809 0.96909 0.49436 0.0
C239 C 0.57176 0.95614 0.37267 0.0
C240 C 0.54995 0.92051 0.47318 0.0
C241 C 0.55568 0.97652 0.41997 0.0
C242 C 0.5693 0.92807 0.40085 0.0
C243 C 0.50931 0.90679 0.6138 0.0
C244 C 0.51434 0.9351 0.58906 0.0
C245 C 0.52528 0.88555 0.56988 0.0
C246 C 0.54565 0.89243 0.50031 0.0
Eu247 Eu 0.51356 1.00224 0.5877 0.0
N248 N 0.49962 0.95614 0.63213 0.0
C249 C 0.48842 0.90059 0.68211 0.0
C250 C 0.47869 0.95005 0.6974 0.0
C251 C 0.4729 0.92232 0.72343 0.0
H252 H 0.55758 0.99828 0.39822 0.0
H253 H 0.45664 0.91778 0.77629 0.0
H254 H 0.47505 0.10015 0.79401 0.0
H255 H 0.64263 0.08905 0.79428 0.0
H256 H 0.46653 0.96609 0.73253 0.0
H257 H 0.48403 0.87911 0.70319 0.0
H258 H 0.60302 0.05721 0.82123 0.0
H259 H 0.58621 0.9621 0.31533 0.0
H260 H 0.52196 0.86372 0.58889 0.0
H261 H 0.55775 0.87582 0.46746 0.0
H262 H 0.46377 0.14936 0.76121 0.0
H263 H 0.58227 0.91242 0.36585 0.0
H264 H 0.63451 0.13652 0.72738 0.0
N265 N 0.51827 0.10404 0.75476 0.0
C266 C 0.53951 0.12193 0.7316 0.0
C267 C 0.48505 0.1419 0.75157 0.0
C268 C 0.53388 0.15066 0.71495 0.0
C269 C 0.49151 0.11378 0.76857 0.0
C270 C 0.50624 0.16038 0.7236 0.0
N271 N 0.57252 0.08499 0.75949 0.0
C272 C 0.599 0.07741 0.78821 0.0
C273 C 0.58945 0.13131 0.71918 0.0
C274 C 0.5672 0.11213 0.73311 0.0
C275 C 0.61693 0.12236 0.73684 0.0
C276 C 0.62161 0.09562 0.7747 0.0
H277 H 0.50119 0.18227 0.71134 0.0
H278 H 0.5519 0.19101 0.67854 0.0
H279 H 0.60055 0.17418 0.68292 0.0
O280 O 0.53408 0.04359 0.93393 0.0
O281 O 0.51173 0.07285 0.63912 0.0
O282 O 0.53343 0.04316 0.53601 0.0
O283 O 0.53118 0.08744 0.90198 0.0
O284 O 0.57095 0.03338 0.72097 0.0
O285 O 0.55843 1.01728 0.56873 0.0
O286 O 0.4785 0.02555 0.5273 0.0
O287 O 0.53177 0.9815 0.72345 0.0
O288 O 0.52011 1.01354 0.84151 0.0
O289 O 0.49717 0.98993 0.44565 0.0
O290 O 0.47632 1.0111 0.69125 0.0
O291 O 0.48478 0.05233 0.77408 0.0
C292 C 0.52254 0.06797 0.55266 0.0
C293 C 0.56376 0.0745 0.0188 0.0
C294 C 0.61236 0.06166 0.0434 0.0
C295 C 0.61785 0.08847 0.08184 0.0
C296 C 0.56939 0.10138 0.05564 0.0
C297 C 0.59627 0.10819 0.08856 0.0
C298 C 0.58529 0.05467 0.01437 0.0
C299 C 0.57777 0.02362 0.63348 0.0
C300 C 0.53751 0.06892 0.96713 0.0
C301 C 0.55595 0.16901 0.69316 0.0
C302 C 0.58365 0.15938 0.6952 0.0
C303 C 0.52733 0.98786 0.81536 0.0
C304 C 0.46016 1.01574 0.36641 0.0
C305 C 0.42077 0.04186 0.30434 0.0
C306 C 0.42709 0.03284 0.20911 0.0
C307 C 0.46646 1.00639 0.27163 0.0
C308 C 0.43716 0.03315 0.38248 0.0
C309 C 0.44984 1.01496 0.19308 0.0
C310 C 0.46798 0.03198 0.74745 0.0
C311 C 0.47948 1.01085 0.44642 0.0
H312 H 0.63869 0.0941 0.10674 0.0
H313 H 0.5533 0.11735 0.05485 0.0
H314 H 0.60053 0.12896 0.11693 0.0
H315 H 0.58157 0.03424 0.98183 0.0
H316 H 0.41412 0.03917 0.14786 0.0
H317 H 0.48462 0.99327 0.25797 0.0
H318 H 0.43223 0.0405 0.45557 0.0
H319 H 0.45473 1.00795 0.11982 0.0
Eu320 Eu 0.55745 0.51759 0.59303 0.0
C321 C 0.47649 0.48507 0.90684 0.0
N322 N 0.47156 0.49674 0.81781 0.0
C323 C 0.43462 0.4638 0.78728 0.0
C324 C 0.46119 0.46137 0.93781 0.0
C325 C 0.45036 0.48717 0.75929 0.0
C326 C 0.44026 0.45064 0.87639 0.0
C327 C 0.5014 0.48581 0.0614 0.0
C328 C 0.49667 0.49706 0.96742 0.0
C329 C 0.48712 0.46143 0.0906 0.0
C330 C 0.46702 0.44929 0.0291 0.0
Eu331 Eu 0.49957 0.53571 0.7768 0.0
N332 N 0.5103 0.52066 0.93739 0.0
C333 C 0.51954 0.49996 0.12479 0.0
C334 C 0.52544 0.53612 1.00292 0.0
C335 C 0.53113 0.52553 0.09603 0.0
H336 H 0.44603 0.49736 0.69037 0.0
H337 H 0.54463 0.53705 0.1451 0.0
H338 H 0.62057 0.52225 0.70257 0.0
H339 H 0.51823 0.56942 0.26226 0.0
H340 H 0.53347 0.55662 0.9841 0.0
H341 H 0.52381 0.49195 0.19741 0.0
H342 H 0.51657 0.53624 0.398 0.0
H343 H 0.41819 0.45591 0.74008 0.0
H344 H 0.4909 0.45225 0.16183 0.0
H345 H 0.45571 0.43086 0.05362 0.0
H346 H 0.66372 0.55022 0.68718 0.0
H347 H 0.42807 0.43245 0.89772 0.0
H348 H 0.56077 0.59797 0.23419 0.0
N349 N 0.60045 0.5415 0.58071 0.0
C350 C 0.60301 0.55944 0.50397 0.0
C351 C 0.64676 0.55312 0.63551 0.0
C352 C 0.62764 0.5754 0.49135 0.0
C353 C 0.62206 0.53763 0.6449 0.0
C354 C 0.64944 0.57232 0.55908 0.0
N355 N 0.55689 0.54706 0.45376 0.0
C356 C 0.53495 0.54897 0.38994 0.0
C357 C 0.58288 0.58092 0.35903 0.0
C358 C 0.5808 0.56212 0.43835 0.0
C359 C 0.56002 0.58365 0.29566 0.0
C360 C 0.53595 0.56765 0.31144 0.0
H361 H 0.6685 0.58456 0.55276 0.0
H362 H 0.64855 0.60639 0.40131 0.0
H363 H 0.60939 0.61123 0.28556 0.0
O364 O 0.5526 0.47918 0.50819 0.0
O365 O 0.55105 0.56511 0.61321 0.0
O366 O 0.50467 0.56772 0.65371 0.0
O367 O 0.59406 0.49649 0.53185 0.0
O368 O 0.51236 0.50743 0.53993 0.0
O369 O 0.4813 0.53562 0.62401 0.0
O370 O 0.48845 0.572 0.86546 0.0
O371 O 0.50674 0.48916 0.7363 0.0
O372 O 0.55374 0.48908 0.72675 0.0
O373 O 0.45578 0.54615 0.80453 0.0
O374 O 0.5447 0.55127 0.81669 0.0
O375 O 0.57207 0.51699 0.75004 0.0
C376 C 0.52734 0.57916 0.61627 0.0
C377 C 0.58722 0.44884 0.56845 0.0
C378 C 0.57419 0.40155 0.61688 0.0
C379 C 0.59307 0.40272 0.69518 0.0
C380 C 0.60584 0.45007 0.6484 0.0
C381 C 0.60888 0.42698 0.71066 0.0
C382 C 0.57188 0.42443 0.55279 0.0
C383 C 0.48729 0.51923 0.54981 0.0
C384 C 0.57954 0.4741 0.5127 0.0
C385 C 0.62974 0.59401 0.41219 0.0
C386 C 0.60746 0.59671 0.34614 0.0
C387 C 0.53054 0.47602 0.7504 0.0
C388 C 0.4499 0.59496 0.79343 0.0
C389 C 0.45328 0.64491 0.76014 0.0
C390 C 0.43309 0.6425 0.68639 0.0
C391 C 0.42994 0.59248 0.718 0.0
C392 C 0.46094 0.62129 0.81488 0.0
C393 C 0.42145 0.61624 0.66549 0.0
C394 C 0.56878 0.53734 0.8131 0.0
C395 C 0.46192 0.57026 0.84273 0.0
H396 H 0.59546 0.38501 0.74411 0.0
H397 H 0.61747 0.46903 0.66464 0.0
H398 H 0.62316 0.42809 0.77204 0.0
H399 H 0.55771 0.42351 0.49074 0.0
H400 H 0.42659 0.66075 0.64494 0.0
H401 H 0.42122 0.57225 0.69852 0.0
H402 H 0.47599 0.62336 0.87405 0.0
H403 H 0.4061 0.61423 0.60767 0.0
Eu404 Eu 0.0345 0.56052 0.60876 0.0
C405 C 0.0683 0.47678 0.91014 0.0
N406 N 0.05514 0.47265 0.82308 0.0
C407 C 0.08561 0.43408 0.78662 0.0
C408 C 0.09152 0.46015 0.93694 0.0
C409 C 0.06282 0.45117 0.76266 0.0
C410 C 0.10016 0.43872 0.87372 0.0
C411 C 0.07239 0.50287 0.06167 0.0
C412 C 0.05889 0.49814 0.97132 0.0
C413 C 0.09594 0.48677 0.08746 0.0
C414 C 0.10543 0.46544 0.02539 0.0
Eu415 Eu 1.01658 0.50205 0.78982 0.0
N416 N 0.03599 0.51348 0.94466 0.0
C417 C 0.06141 0.52316 0.1248 0.0
C418 C 0.0235 0.53083 0.01112 0.0
C419 C 0.0366 0.53691 0.09988 0.0
H420 H 0.05143 0.4474 0.69577 0.0
H421 H 0.02717 0.55171 0.14997 0.0
H422 H 0.02172 0.62239 0.71627 0.0
H423 H 0.99502 0.51899 0.26048 0.0
H424 H 1.00296 0.53933 0.99812 0.0
H425 H 0.07121 0.52746 0.19464 0.0
H426 H 0.02497 0.51989 0.40473 0.0
H427 H 0.09192 0.41733 0.73796 0.0
H428 H 0.10666 0.49031 0.15618 0.0
H429 H 0.12346 0.45301 0.0468 0.0
H430 H 0.99062 0.66315 0.69455 0.0
H431 H 0.11793 0.42551 0.89184 0.0
H432 H 0.9626 0.55837 0.22753 0.0
N433 N 1.0068 0.60106 0.59044 0.0
C434 C 0.99044 0.60235 0.50923 0.0
C435 C 0.99016 0.64609 0.64237 0.0
C436 C 0.97275 0.62559 0.49265 0.0
C437 C 1.00738 0.62271 0.65561 0.0
C438 C 0.97252 0.6474 0.56112 0.0
N439 N 1.00781 0.55763 0.46248 0.0
C440 C 1.01002 0.53641 0.39593 0.0
C441 C 0.97406 0.58095 0.35883 0.0
C442 C 0.99098 0.58011 0.44345 0.0
C443 C 0.97524 0.55848 0.29336 0.0
C444 C 0.99339 0.53617 0.31193 0.0
H445 H 0.95893 0.66542 0.55159 0.0
H446 H 0.94214 0.64408 0.39487 0.0
H447 H 0.94342 0.6051 0.27734 0.0
O448 O 0.07098 0.55955 0.51335 0.0
O449 O 0.98709 0.55511 0.63097 0.0
O450 O 0.98301 0.5087 0.67175 0.0
O451 O 0.05559 0.59935 0.56674 0.0
O452 O 0.04636 0.51522 0.56024 0.0
O453 O 1.01537 0.4852 0.6352 0.0
O454 O 0.98533 0.49031 0.89844 0.0
O455 O 0.06321 0.50897 0.74937 0.0
O456 O 0.06326 0.55599 0.74152 0.0
O457 O 1.00335 0.4585 0.80563 0.0
O458 O 0.99987 0.54678 0.82759 0.0
O459 O 0.03463 0.57475 0.76717 0.0
C460 C 0.97243 0.53178 0.6334 0.0
C461 C 0.10351 0.58977 0.58788 0.0
C462 C 0.14767 0.56921 0.64039 0.0
C463 C 0.15025 0.58958 0.71351 0.0
C464 C 0.10588 0.60986 0.66302 0.0
C465 C 0.12928 0.60982 0.72487 0.0
C466 C 0.12472 0.56993 0.57667 0.0
C467 C 0.03333 0.49061 0.56511 0.0
C468 C 0.07713 0.58567 0.5336 0.0
C469 C 0.95579 0.62633 0.40887 0.0
C470 C 0.95652 0.60414 0.34197 0.0
C471 C 0.07637 0.53272 0.76418 0.0
C472 C 0.95611 0.45375 0.84385 0.0
C473 C 0.90686 0.46334 0.80814 0.0
C474 C 0.90159 0.43417 0.81622 0.0
C475 C 0.95042 0.42512 0.85229 0.0
C476 C 0.93501 0.47223 0.81367 0.0
C477 C 0.92334 0.4153 0.83554 0.0
C478 C 1.01413 0.57072 0.82953 0.0
C479 C 0.98396 0.46438 0.86849 0.0
H480 H 0.16845 0.58987 0.76095 0.0
H481 H 0.08942 0.62511 0.67571 0.0
H482 H 0.131 0.62531 0.78236 0.0
H483 H 0.12325 0.55472 0.51781 0.0
H484 H 0.88069 0.42553 0.81303 0.0
H485 H 0.96682 0.41049 0.87266 0.0
H486 H 0.94082 0.49377 0.80022 0.0
H487 H 0.91887 0.39312 0.84266 0.0
H488 H 0.18276 1.00027 0.37178 0.0
H489 H 0.15597 0.06542 0.17529 0.0
H490 H 0.11455 0.07445 0.2786 0.0
H491 H 0.08413 0.06159 0.42405 0.0
H492 H 0.11346 0.9952 0.61389 0.0
H493 H 0.15489 0.98938 0.51622 0.0
C494 C 0.16823 1.01695 0.3527 0.0
C495 C 0.17293 0.03247 0.26661 0.0
C496 C 0.14435 0.02171 0.41174 0.0
C497 C 0.15339 0.05358 0.24225 0.0
C498 C 0.12944 0.0585 0.30102 0.0
C499 C 0.09965 0.046 0.44439 0.0
C500 C 0.095 0.02894 0.52824 0.0
C501 C 0.12434 0.04239 0.38586 0.0
C502 C 0.11577 1.00886 0.55148 0.0
C503 C 0.13985 1.00535 0.49498 0.0
H504 H 0.52756 0.14135 0.16522 0.0
H505 H 0.51229 0.20904 0.36817 0.0
H506 H 0.50756 0.17479 0.49994 0.0
H507 H 0.50923 0.12503 0.55948 0.0
H508 H 0.53363 0.05977 0.35909 0.0
H509 H 0.53393 0.09359 0.22577 0.0
C510 C 0.52437 0.14927 0.23802 0.0
C511 C 0.52109 0.1786 0.25374 0.0
C512 C 0.52338 0.12954 0.31535 0.0
C513 C 0.51482 0.18706 0.3504 0.0
C514 C 0.51237 0.16731 0.4271 0.0
C515 C 0.51543 0.11833 0.48768 0.0
C516 C 0.52203 0.08964 0.47164 0.0
C517 C 0.51695 0.13844 0.41081 0.0
C518 C 0.52872 0.08148 0.37552 0.0
C519 C 0.52894 0.10095 0.29856 0.0
H520 H 0.40736 0.48479 0.19581 0.0
H521 H 0.35352 0.54718 0.3285 0.0
H522 H 0.38801 0.55403 0.4577 0.0
H523 H 0.43468 0.54386 0.53192 0.0
H524 H 0.48926 0.48383 0.39129 0.0
H525 H 0.45371 0.47563 0.26608 0.0
C526 C 0.403 0.50042 0.25116 0.0
C527 C 0.3772 0.51549 0.24909 0.0
C528 C 0.42348 0.50502 0.32474 0.0
C529 C 0.37248 0.53472 0.32608 0.0
C530 C 0.39255 0.53896 0.4005 0.0
C531 C 0.43891 0.52892 0.47404 0.0
C532 C 0.465 0.51443 0.47258 0.0
C533 C 0.41828 0.5244 0.40041 0.0
C534 C 0.46968 0.49533 0.39576 0.0
C535 C 0.44925 0.4906 0.3235 0.0
H536 H 0.07077 0.41033 0.21397 0.0
H537 H 1.01103 0.35457 0.35064 0.0
H538 H 1.00265 0.38948 0.47814 0.0
H539 H 1.01056 0.43706 0.54877 0.0
H540 H 0.0699 0.49259 0.40929 0.0
H541 H 0.07911 0.4571 0.28478 0.0
C542 C 0.05564 0.40562 0.27067 0.0
C543 C 0.04153 0.37929 0.27019 0.0
C544 C 0.05045 0.42617 0.34374 0.0
C545 C 0.02267 0.37407 0.3477 0.0
C546 C 0.01758 0.39432 0.42085 0.0
C547 C 0.02559 0.4415 0.49139 0.0
C548 C 0.03929 0.46802 0.48945 0.0
C549 C 0.03112 0.42063 0.41933 0.0
C550 C 0.05879 0.47279 0.41379 0.0
C551 C 0.06416 0.45234 0.34206 0.0
H552 H 0.90221 0.98197 0.19002 0.0
H553 H 0.85876 0.05609 0.09095 0.0
H554 H 0.89387 0.06253 0.96154 0.0
H555 H 0.93887 0.04864 0.88227 0.0
H556 H 0.97862 0.97118 0.97025 0.0
H557 H 0.94394 0.96529 0.09955 0.0
C558 C 0.90021 0.99944 0.13963 0.0
C559 C 0.8777 1.01861 0.15135 0.0
C560 C 0.92033 1.00279 0.06413 0.0
C561 C 0.87556 0.04088 0.08408 0.0
C562 C 0.89585 0.04469 0.01023 0.0
C563 C 0.93971 0.03008 0.92795 0.0
C564 C 0.96212 1.01067 0.91627 0.0
C565 C 0.91859 0.02596 1.00006 0.0
C566 C 0.96248 0.98702 0.97815 0.0
C567 C 0.94233 0.98343 0.05201 0.0
H568 H 0.53241 0.90783 0.18943 0.0
H569 H 0.54338 0.8442 0.9687 0.0
H570 H 0.53905 0.8801 0.84074 0.0
H571 H 0.53544 0.93041 0.79156 0.0
H572 H 0.52242 0.99315 0.01443 0.0
H573 H 0.52526 0.95708 0.14024 0.0
C574 C 0.5337 0.90163 0.11334 0.0
C575 C 0.53842 0.87301 0.08981 0.0
C576 C 0.53139 0.9225 0.03989 0.0
C577 C 0.53956 0.86576 0.99006 0.0
C578 C 0.53738 0.88645 0.91655 0.0
C579 C 0.53283 0.93626 0.86737 0.0
C580 C 0.52868 0.96493 0.89199 0.0
C581 C 0.53378 0.91502 0.94049 0.0
C582 C 0.52571 0.97164 0.99174 0.0
C583 C 0.52725 0.95086 0.06438 0.0
H584 H 0.65336 0.52041 0.16812 0.0
H585 H 0.70018 0.58381 0.01394 0.0
H586 H 0.66298 0.58647 0.88957 0.0
H587 H 0.61564 0.57169 0.82682 0.0
H588 H 0.57293 0.50388 0.97181 0.0
H589 H 0.60897 0.50281 0.09854 0.0
C590 C 0.65561 0.53469 0.10689 0.0
C591 C 0.67976 0.55194 0.10132 0.0
C592 C 0.63416 0.53599 0.03529 0.0
C593 C 0.68216 0.57006 0.02037 0.0
C594 C 0.66064 0.57182 0.94958 0.0
C595 C 0.61402 0.55706 0.88724 0.0
C596 C 0.59023 0.53928 0.89355 0.0
C597 C 0.63622 0.55519 0.95691 0.0
C598 C 0.58963 0.51925 0.96897 0.0
C599 C 0.6107 0.51819 0.04045 0.0
H600 H 0.97323 0.65496 0.16456 0.0
H601 H 0.04794 0.69951 0.07666 0.0
H602 H 0.057 0.66378 0.95176 0.0
H603 H 0.04526 0.61825 0.87281 0.0
H604 H 0.96925 0.57518 0.95624 0.0
H605 H 0.96009 0.61111 0.07978 0.0
C606 C 0.99162 0.657 0.11856 0.0
C607 C 1.01001 0.68021 0.13221 0.0
C608 C 0.99683 0.63615 0.04671 0.0
C609 C 0.03323 0.68234 0.06887 0.0
C610 C 0.03858 0.66162 0.99757 0.0
C611 C 0.02644 0.61675 0.91699 0.0
C612 C 1.0081 0.59345 0.90442 0.0
C613 C 0.02075 0.6382 0.98653 0.0
C614 C 0.98403 0.59231 0.9639 0.0
C615 C 0.97865 0.61309 0.03457 0.0
H616 H 0.04017 0.2309 0.38743 0.0
H617 H 0.95759 0.23821 0.26197 0.0
H618 H 0.93651 0.22046 0.41312 0.0
H619 H 0.94305 0.19378 0.56262 0.0
H620 H 0.02615 0.17974 0.67604 0.0
H621 H 0.04593 0.21082 0.55154 0.0
C622 C 0.01756 0.22898 0.39488 0.0
C623 C 1.00014 0.23497 0.3154 0.0
C624 C 1.00593 0.21812 0.48025 0.0
C625 C 0.97098 0.23299 0.32335 0.0
C626 C 0.95909 0.2231 0.40939 0.0
C627 C 0.96524 0.19903 0.56334 0.0
C628 C 0.98329 0.18483 0.62697 0.0
C629 C 0.97647 0.21448 0.48644 0.0
C630 C 1.01208 0.19097 0.62755 0.0
C631 C 0.02336 0.20808 0.55502 0.0
H632 H 0.2983 0.07284 0.31218 0.0
H633 H 0.32804 0.13209 0.10006 0.0
H634 H 0.3755 0.12818 0.16456 0.0
H635 H 0.40841 0.09233 0.22737 0.0
H636 H 0.37814 0.02881 0.42542 0.0
H637 H 0.33109 0.04893 0.4195 0.0
C638 C 0.31484 0.08625 0.28398 0.0
C639 C 0.31113 0.09973 0.1936 0.0
C640 C 0.3423 0.08138 0.31535 0.0
C641 C 0.33133 0.11966 0.16537 0.0
C642 C 0.35873 0.11669 0.20011 0.0
C643 C 0.39162 0.08374 0.27189 0.0
C644 C 0.39588 0.05875 0.32343 0.0
C645 C 0.36467 0.09504 0.2664 0.0
C646 C 0.37469 0.04782 0.38347 0.0
C647 C 0.3479 0.05933 0.38028 0.0
H648 H 0.54674 0.30461 0.35358 0.0
H649 H 0.47533 0.35803 0.29847 0.0
H650 H 0.48456 0.38371 0.44988 0.0
H651 H 0.51936 0.39742 0.57148 0.0
H652 H 0.595 0.34867 0.6053 0.0
H653 H 0.57664 0.31307 0.49462 0.0
C654 C 0.53255 0.32112 0.37691 0.0
C655 C 0.51065 0.32986 0.31543 0.0
C656 C 0.53873 0.33637 0.46097 0.0
C657 C 0.49254 0.35144 0.34493 0.0
C658 C 0.49778 0.36598 0.4312 0.0
C659 C 0.53123 0.37838 0.55716 0.0
C660 C 0.55871 0.37585 0.59307 0.0
C661 C 0.52177 0.35963 0.48635 0.0
C662 C 0.57387 0.35105 0.57725 0.0
C663 C 0.5636 0.33101 0.5125 0.0
H664 H 0.20192 0.49468 0.34612 0.0
H665 H 0.25531 0.56747 0.32625 0.0
H666 H 0.23819 0.58444 0.48359 0.0
H667 H 0.20045 0.58359 0.6027 0.0
H668 H 0.14475 0.5125 0.61624 0.0
H669 H 0.17156 0.48864 0.48986 0.0
C670 C 0.21001 0.51393 0.37786 0.0
C671 C 0.22895 0.53041 0.32539 0.0
C672 C 0.20007 0.52348 0.46773 0.0
C673 C 0.24015 0.55497 0.36619 0.0
C674 C 0.23056 0.56453 0.45589 0.0
C675 C 0.1953 0.56218 0.58214 0.0
C676 C 0.17055 0.54995 0.61635 0.0
C677 C 0.20953 0.54963 0.50475 0.0
C678 C 0.16389 0.52218 0.59027 0.0
C679 C 0.17875 0.50888 0.51612 0.0
H680 H 0.0473 0.80738 0.05815 0.0
H681 H 0.9793 0.86546 0.10651 0.0
H682 H 0.99456 0.89354 0.96633 0.0
H683 H 0.03247 0.90597 0.8544 0.0
H684 H 0.10488 0.85173 0.83092 0.0
H685 H 0.08176 0.81665 0.93122 0.0
C686 C 0.03524 0.8256 0.03545 0.0
C687 C 1.01242 0.83467 0.09178 0.0
C688 C 0.04502 0.84225 0.95901 0.0
C689 C 0.99706 0.85843 0.06356 0.0
C690 C 1.00583 0.87442 0.98399 0.0
C691 C 0.04304 0.88631 0.8704 0.0
C692 C 0.07069 0.88184 0.83814 0.0
C693 C 0.03066 0.8673 0.93487 0.0
C694 C 0.08365 0.85581 0.85529 0.0
C695 C 0.07061 0.83586 0.91393 0.0
H696 H 0.69753 0.96942 0.1356 0.0
H697 H 0.75294 0.03702 0.05705 0.0
H698 H 0.71536 0.06025 0.9684 0.0
H699 H 0.66481 0.06966 0.97422 0.0
H700 H 0.609 1.00623 0.08862 0.0
H701 H 0.64776 0.97345 0.10353 0.0
C702 C 0.70158 0.98838 0.09381 0.0
C703 C 0.72687 1.00264 0.10819 0.0
C704 C 0.67907 1.00328 0.05469 0.0
C705 C 0.73297 0.0263 0.05045 0.0
C706 C 0.71126 0.04003 1.00188 0.0
C707 C 0.66122 0.04847 1.00064 0.0
C708 C 0.63458 0.04059 0.03383 0.0
C709 C 0.68378 0.03023 0.01384 0.0
C710 C 0.62961 1.01285 0.0643 0.0
C711 C 0.65172 0.99405 0.07269 0.0
H712 H 0.48137 0.74125 0.03485 0.0
H713 H 0.5608 0.69806 0.02801 0.0
H714 H 0.54648 0.67259 0.88087 0.0
H715 H 0.50806 0.65605 0.77896 0.0
H716 H 0.42591 0.69306 0.80675 0.0
H717 H 0.44473 0.72899 0.91619 0.0
C718 C 0.49564 0.72678 0.99894 0.0
C719 C 0.52177 0.72094 0.04086 0.0
C720 C 0.48673 0.71145 0.91788 0.0
C721 C 0.54043 0.7023 0.99594 0.0
C722 C 0.53228 0.68792 0.91228 0.0
C723 C 0.49463 0.67271 0.80639 0.0
C724 C 0.46572 0.67191 0.78728 0.0
C725 C 0.50501 0.69138 0.87575 0.0
C726 C 0.44827 0.69347 0.82121 0.0
C727 C 0.45892 0.71361 0.88509 0.0
H728 H 0.80547 0.51461 0.00905 0.0
H729 H 0.86727 0.57815 0.07404 0.0
H730 H 0.8972 0.56059 0.9434 0.0
H731 H 0.90991 0.52082 0.84791 0.0
H732 H 0.84889 0.45601 0.78175 0.0
H733 H 0.81387 0.48168 0.87337 0.0
C734 C 0.82492 0.52535 0.99163 0.0
C735 C 0.8348 0.54694 0.05238 0.0
C736 C 0.84233 0.51464 0.91849 0.0
C737 C 0.8598 0.56097 0.02914 0.0
C738 C 0.87686 0.55091 0.95475 0.0
C739 C 0.88916 0.51183 0.8505 0.0
C740 C 0.88345 0.48435 0.8168 0.0
C741 C 0.86915 0.5265 0.90429 0.0
C742 C 0.85517 0.47553 0.8154 0.0
C743 C 0.8348 0.49042 0.86702 0.0
H744 H 0.99165 0.1897 0.0111 0.0
H745 H 0.07811 0.21122 0.95817 0.0
H746 H 0.08454 0.16663 0.86928 0.0
H747 H 0.0657 0.11952 0.81311 0.0
H748 H 0.97942 0.09921 0.87767 0.0
H749 H 0.97312 0.14466 0.95498 0.0
C750 C 1.01198 0.18495 0.97946 0.0
C751 C 0.03435 0.20432 0.9922 0.0
C752 C 1.01569 0.15891 0.93105 0.0
C753 C 0.06031 0.19732 0.94921 0.0
C754 C 0.06407 0.17148 0.89923 0.0
C755 C 0.04561 0.12494 0.84487 0.0
C756 C 0.02307 0.10535 0.83909 0.0
C757 C 0.04201 0.15171 0.89104 0.0
C758 C 0.99717 0.11341 0.87975 0.0
C759 C 0.9935 0.1396 0.92456 0.0
H760 H 0.34601 0.074 0.86221 0.0
H761 H 0.34125 0.99325 1.00264 0.0
H762 H 0.38738 0.98067 0.93435 0.0
H763 H 0.43174 0.99466 0.84481 0.0
H764 H 0.43545 0.07697 0.71394 0.0
H765 H 0.38783 0.08682 0.7686 0.0
C766 C 0.35468 0.05332 0.87633 0.0
C767 C 0.33958 0.03453 0.93701 0.0
C768 C 0.38165 0.04666 0.83946 0.0
C769 C 0.35171 1.00801 0.95474 0.0
C770 C 0.37846 1.00097 0.91664 0.0
C771 C 0.42189 1.01453 0.82689 0.0
C772 C 0.43747 0.0351 0.77465 0.0
C773 C 0.39402 0.02036 0.86027 0.0
C774 C 0.42431 0.06086 0.75415 0.0
C775 C 0.3969 0.0665 0.7853 0.0
H776 H 0.55412 0.36975 0.02237 0.0
H777 H 0.4777 0.34003 0.89055 0.0
H778 H 0.47508 0.38292 0.79063 0.0
H779 H 0.49332 0.43082 0.74722 0.0
H780 H 0.57106 0.45864 0.87607 0.0
H781 H 0.57427 0.41515 0.96967 0.0
C782 C 0.5373 0.37225 0.96966 0.0
C783 C 0.51643 0.35112 0.96298 0.0
C784 C 0.53587 0.39715 0.9128 0.0
C785 C 0.49446 0.35532 0.89577 0.0
C786 C 0.49277 0.38015 0.83948 0.0
C787 C 0.51097 0.42732 0.79567 0.0
C788 C 0.53181 0.44845 0.80481 0.0
C789 C 0.5131 0.40155 0.84844 0.0
C790 C 0.55464 0.44312 0.86741 0.0
C791 C 0.55652 0.41809 0.92117 0.0
H792 H 0.18278 0.55826 0.03267 0.0
H793 H 0.21294 0.48103 0.90723 0.0
H794 H 0.16976 0.47739 0.80907 0.0
H795 H 0.12142 0.495 0.76574 0.0
H796 H 0.0933 0.57325 0.89024 0.0
H797 H 0.13684 0.57706 0.983 0.0
C798 C 0.18022 0.54074 0.98284 0.0
C799 C 0.20158 0.51999 0.97787 0.0
C800 C 0.15512 0.53863 0.92753 0.0
C801 C 0.19743 0.49759 0.91223 0.0
C802 C 0.17241 0.49532 0.85687 0.0
C803 C 0.12492 0.51296 0.81276 0.0
C804 C 0.10377 0.5339 0.82001 0.0
C805 C 0.15078 0.51547 0.86501 0.0
C806 C 0.10893 0.55688 0.88203 0.0
C807 C 0.13398 0.55911 0.93544 0.0
H808 H 0.97611 0.86694 0.43442 0.0
H809 H 0.06091 0.8379 0.47251 0.0
H810 H 0.07161 0.87942 0.57258 0.0
H811 H 0.05783 0.92732 0.63569 0.0
H812 H 0.97171 0.95301 0.60799 0.0
H813 H 0.96076 0.91053 0.51636 0.0
C814 C 0.99668 0.86914 0.46751 0.0
C815 C 0.01744 0.84868 0.44736 0.0
C816 C 1.0027 0.89323 0.52491 0.0
C817 C 0.04423 0.85264 0.48872 0.0
C818 C 0.05047 0.87672 0.54509 0.0
C819 C 0.03652 0.92317 0.61224 0.0
C820 C 1.01566 0.94401 0.62702 0.0
C821 C 0.03005 0.89761 0.56218 0.0
C822 C 0.98834 0.93817 0.59436 0.0
C823 C 0.98198 0.91353 0.54296 0.0
H824 H 0.68934 0.97693 0.43783 0.0
H825 H 0.71845 0.06127 0.48727 0.0
H826 H 0.6747 0.07214 0.57525 0.0
H827 H 0.62514 0.05891 0.62058 0.0
H828 H 0.59776 0.97387 0.57199 0.0
H829 H 0.64295 0.96246 0.49867 0.0
C830 C 0.68659 0.9975 0.4705 0.0
C831 C 0.70779 1.01806 0.4567 0.0
C832 C 0.66105 1.00373 0.51922 0.0
C833 C 0.70318 0.04473 0.49817 0.0
C834 C 0.67779 0.05108 0.54737 0.0
C835 C 0.62944 0.03759 0.5984 0.0
C836 C 0.60777 1.01713 0.60467 0.0
C837 C 0.65616 0.03093 0.55655 0.0
C838 C 0.6137 0.99006 0.56907 0.0
C839 C 0.63974 0.98345 0.52706 0.0
H840 H 0.49464 0.69284 0.39588 0.0
H841 H 0.58427 0.70366 0.39231 0.0
H842 H 0.59013 0.65975 0.48447 0.0
H843 H 0.56967 0.61621 0.5581 0.0
H844 H 0.47957 0.60708 0.56515 0.0
H845 H 0.47412 0.65197 0.48215 0.0
C846 C 0.51541 0.68616 0.41851 0.0
C847 C 0.53895 0.70228 0.38944 0.0
C848 C 0.5186 0.66067 0.47135 0.0
C849 C 0.56573 0.69245 0.41635 0.0
C850 C 0.56909 0.667 0.46794 0.0
C851 C 0.54882 0.62406 0.54195 0.0
C852 C 0.52506 0.60773 0.56826 0.0
C853 C 0.54569 0.65056 0.49451 0.0
C854 C 0.49832 0.61877 0.54665 0.0
C855 C 0.49513 0.64463 0.49866 0.0
H856 H 0.85782 0.50605 0.40681 0.0
H857 H 0.85082 0.59607 0.41703 0.0
H858 H 0.89454 0.59886 0.51127 0.0
H859 H 0.93687 0.57583 0.58231 0.0
H860 H 0.94263 0.48543 0.57704 0.0
H861 H 0.89768 0.48274 0.49192 0.0
C862 C 0.86523 0.52619 0.43322 0.0
C863 C 0.8502 0.55079 0.40746 0.0
C864 C 0.8907 0.52763 0.48737 0.0
C865 C 0.86111 0.57675 0.43872 0.0
C866 C 0.88647 0.57837 0.49147 0.0
C867 C 0.92829 0.55549 0.56306 0.0
C868 C 0.9437 0.53085 0.5861 0.0
C869 C 0.90182 0.55399 0.51484 0.0
C870 C 0.93167 0.50481 0.56083 0.0
C871 C 0.90578 0.50322 0.51173 0.0
loop_
_geom_bond_atom_site_label_1
_geom_bond_atom_site_label_2
_geom_bond_distance
_geom_bond_site_symmetry_2
_ccdc_geom_bond_type
H0 C1 0.949 . S
C1 H0 0.949 . S
C1 C2 1.395 . S
C1 C3 1.391 . S
C2 C1 1.395 . S
C2 C5 1.390 . S
C3 C1 1.391 . S
C3 C7 1.387 . S
C3 C8 1.491 . S
H4 C5 0.950 . S
C5 C2 1.390 . S
C5 H4 0.950 . S
C5 C6 1.378 . S
C6 C5 1.378 . S
C6 C7 1.409 . S
C7 C3 1.387 . S
C7 C6 1.409 . S
C7 H9 0.951 . S
C8 C3 1.491 . S
C8 C10 1.382 . S
C8 C12 1.404 . S
H9 C7 0.951 . S
C10 C8 1.382 . S
C10 C11 1.390 . S
C10 H15 0.949 . S
C11 C10 1.390 . S
C11 C16 1.399 . S
C12 C8 1.404 . S
C12 H13 0.950 . S
C12 C14 1.375 . S
H13 C12 0.950 . S
C14 C12 1.375 . S
C14 C16 1.382 . S
C14 H18 0.950 . S
H15 C10 0.949 . S
C16 C11 1.399 . S
C16 C14 1.382 . S
C16 H17 0.952 . S
H17 C16 0.952 . S
H18 C14 0.950 . S
H19 C20 0.949 . S
C20 H19 0.949 . S
C20 C21 1.395 . S
C20 C22 1.391 . S
C21 C20 1.395 . S
C21 C24 1.390 . S
C22 C20 1.391 . S
C22 C26 1.387 . S
C22 C27 1.491 . S
H23 C24 0.950 . S
C24 C21 1.390 . S
C24 H23 0.950 . S
C24 C25 1.378 . S
C25 C24 1.378 . S
C25 C26 1.409 . S
C26 C22 1.387 . S
C26 C25 1.409 . S
C26 H28 0.951 . S
C27 C22 1.491 . S
C27 C29 1.382 . S
C27 C31 1.404 . S
H28 C26 0.951 . S
C29 C27 1.382 . S
C29 C30 1.390 . S
C29 H34 0.949 . S
C30 C29 1.390 . S
C30 C35 1.399 . S
C31 C27 1.404 . S
C31 H32 0.950 . S
C31 C33 1.375 . S
H32 C31 0.950 . S
C33 C31 1.375 . S
C33 C35 1.382 . S
C33 H37 0.950 . S
H34 C29 0.949 . S
C35 C30 1.399 . S
C35 C33 1.382 . S
C35 H36 0.952 . S
H36 C35 0.952 . S
H37 C33 0.950 . S
H38 C39 0.949 . S
C39 H38 0.949 . S
C39 C40 1.395 . S
C39 C41 1.391 . S
C40 C39 1.395 . S
C40 C43 1.390 . S
C41 C39 1.391 . S
C41 C45 1.387 . S
C41 C46 1.491 . S
H42 C43 0.950 . S
C43 C40 1.390 . S
C43 H42 0.950 . S
C43 C44 1.378 . S
C44 C43 1.378 . S
C44 C45 1.409 . S
C45 C41 1.387 . S
C45 C44 1.409 . S
C45 H47 0.951 . S
C46 C41 1.491 . S
C46 C48 1.382 . S
C46 C50 1.404 . S
H47 C45 0.951 . S
C48 C46 1.382 . S
C48 C49 1.390 . S
C48 H53 0.949 . S
C49 C48 1.390 . S
C49 C54 1.399 . S
C50 C46 1.404 . S
C50 H51 0.950 . S
C50 C52 1.375 . S
H51 C50 0.950 . S
C52 C50 1.375 . S
C52 C54 1.382 . S
C52 H56 0.950 . S
H53 C48 0.949 . S
C54 C49 1.399 . S
C54 C52 1.382 . S
C54 H55 0.952 . S
H55 C54 0.952 . S
H56 C52 0.950 . S
H57 C58 0.949 . S
C58 H57 0.949 . S
C58 C59 1.395 . S
C58 C60 1.391 . S
C59 C58 1.395 . S
C59 C62 1.390 . S
C60 C58 1.391 . S
C60 C64 1.387 . S
C60 C65 1.491 . S
H61 C62 0.950 . S
C62 C59 1.390 . S
C62 H61 0.950 . S
C62 C63 1.378 . S
C63 C62 1.378 . S
C63 C64 1.409 . S
C64 C60 1.387 . S
C64 C63 1.409 . S
C64 H66 0.951 . S
C65 C60 1.491 . S
C65 C67 1.382 . S
C65 C69 1.404 . S
H66 C64 0.951 . S
C67 C65 1.382 . S
C67 C68 1.390 . S
C67 H72 0.949 . S
C68 C67 1.390 . S
C68 C73 1.399 . S
C69 C65 1.404 . S
C69 H70 0.950 . S
C69 C71 1.375 . S
H70 C69 0.950 . S
C71 C69 1.375 . S
C71 C73 1.382 . S
C71 H75 0.950 . S
H72 C67 0.949 . S
C73 C68 1.399 . S
C73 C71 1.382 . S
C73 H74 0.952 . S
H74 C73 0.952 . S
H75 C71 0.950 . S
H76 C77 0.949 . S
C77 H76 0.949 . S
C77 C78 1.395 . S
C77 C79 1.391 . S
C78 C77 1.395 . S
C78 C81 1.390 1_554 S
C79 C77 1.391 . S
C79 C83 1.387 1_554 S
C79 C84 1.491 . S
H80 C81 0.950 . S
C81 C78 1.390 1_556 S
C81 H80 0.950 . S
C81 C82 1.378 . S
C82 C81 1.378 . S
C82 C83 1.409 . S
C83 C79 1.387 1_556 S
C83 C82 1.409 . S
C83 H85 0.951 . S
C84 C79 1.491 . S
C84 C86 1.382 . S
C84 C88 1.404 1_554 S
H85 C83 0.951 . S
C86 C84 1.382 . S
C86 C87 1.390 . S
C86 H91 0.949 . S
C87 C86 1.390 . S
C87 C92 1.399 . S
C88 C84 1.404 1_556 S
C88 H89 0.950 . S
C88 C90 1.375 . S
H89 C88 0.950 . S
C90 C88 1.375 . S
C90 C92 1.382 1_556 S
C90 H94 0.950 . S
H91 C86 0.949 . S
C92 C87 1.399 . S
C92 C90 1.382 1_554 S
C92 H93 0.952 . S
H93 C92 0.952 . S
H94 C90 0.950 . S
H95 C96 0.949 . S
C96 H95 0.949 . S
C96 C97 1.395 . S
C96 C98 1.391 . S
C97 C96 1.395 . S
C97 C100 1.390 1_554 S
C98 C96 1.391 . S
C98 C102 1.387 1_554 S
C98 C103 1.491 . S
H99 C100 0.950 . S
C100 C97 1.390 1_556 S
C100 H99 0.950 . S
C100 C101 1.378 . S
C101 C100 1.378 . S
C101 C102 1.409 . S
C102 C98 1.387 1_556 S
C102 C101 1.409 . S
C102 H104 0.951 . S
C103 C98 1.491 . S
C103 C105 1.382 . S
C103 C107 1.404 1_554 S
H104 C102 0.951 . S
C105 C103 1.382 . S
C105 C106 1.390 . S
C105 H110 0.949 . S
C106 C105 1.390 . S
C106 C111 1.399 . S
C107 C103 1.404 1_556 S
C107 H108 0.950 1_455 S
C107 C109 1.375 1_455 S
H108 C107 0.950 1_655 S
C109 C107 1.375 1_655 S
C109 C111 1.382 1_656 S
C109 H113 0.950 . S
H110 C105 0.949 . S
C111 C106 1.399 . S
C111 C109 1.382 1_454 S
C111 H112 0.952 . S
H112 C111 0.952 . S
H113 C109 0.950 . S
H114 C115 0.949 . S
C115 H114 0.949 . S
C115 C116 1.395 . S
C115 C117 1.391 . S
C116 C115 1.395 . S
C116 C119 1.390 1_554 S
C117 C115 1.391 . S
C117 C121 1.387 1_554 S
C117 C122 1.491 . S
H118 C119 0.950 . S
C119 C116 1.390 1_556 S
C119 H118 0.950 . S
C119 C120 1.378 . S
C120 C119 1.378 . S
C120 C121 1.409 . S
C121 C117 1.387 1_556 S
C121 C120 1.409 . S
C121 H123 0.951 . S
C122 C117 1.491 . S
C122 C124 1.382 . S
C122 C126 1.404 1_554 S
H123 C121 0.951 . S
C124 C122 1.382 . S
C124 C125 1.390 . S
C124 H129 0.949 . S
C125 C124 1.390 . S
C125 C130 1.399 . S
C126 C122 1.404 1_556 S
C126 H127 0.950 1_545 S
C126 C128 1.375 1_545 S
H127 C126 0.950 1_565 S
C128 C126 1.375 1_565 S
C128 C130 1.383 1_566 S
C128 H132 0.949 . S
H129 C124 0.949 . S
C130 C125 1.399 . S
C130 C128 1.383 1_544 S
C130 H131 0.952 . S
H131 C130 0.952 . S
H132 C128 0.949 . S
H133 C134 0.949 . S
C134 H133 0.949 . S
C134 C135 1.395 . S
C134 C136 1.398 . S
C135 C134 1.395 . S
C135 C138 1.390 1_554 S
C136 C134 1.398 . S
C136 C140 1.380 1_554 S
C136 C141 1.491 . S
H137 C138 0.950 . S
C138 C135 1.390 1_556 S
C138 H137 0.950 . S
C138 C139 1.378 . S
C139 C138 1.378 . S
C139 C140 1.409 . S
C140 C136 1.380 1_556 S
C140 C139 1.409 . S
C140 H142 0.951 . S
C141 C136 1.491 . S
C141 C143 1.382 . S
C141 C145 1.404 1_554 S
H142 C140 0.951 . S
C143 C141 1.382 . S
C143 C144 1.390 . S
C143 H148 0.949 . S
C144 C143 1.390 . S
C144 C149 1.399 . S
C145 C141 1.404 1_556 S
C145 H146 0.950 . S
C145 C147 1.375 . S
H146 C145 0.950 . S
C147 C145 1.375 . S
C147 C149 1.382 1_556 S
C147 H151 0.950 . S
H148 C143 0.949 . S
C149 C144 1.399 . S
C149 C147 1.382 1_554 S
C149 H150 0.952 . S
H150 C149 0.952 . S
H151 C147 0.950 . S
Eu152 N181 2.600 . S
Eu152 N187 2.562 . S
Eu152 O196 2.462 1_655 S
Eu152 O197 2.373 1_545 S
Eu152 O199 2.432 . S
Eu152 O200 2.291 1_655 S
Eu152 O204 2.335 1_655 S
Eu152 O207 2.372 . S
Eu152 C216 2.787 . S
C153 N154 1.365 . S
C153 C156 1.405 . S
C153 C160 1.448 1_556 S
N154 C153 1.365 . S
N154 C157 1.319 . S
N154 Eu163 2.600 1_545 S
C155 C157 1.397 . S
C155 C158 1.367 . S
C155 H175 0.931 . S
C156 C153 1.405 . S
C156 C158 1.403 . S
C156 C162 1.439 1_556 S
C157 N154 1.319 . S
C157 C155 1.397 . S
C157 H168 0.930 1_545 S
C158 C155 1.367 . S
C158 C156 1.403 . S
C158 H179 0.929 . S
C159 C160 1.430 . S
C159 C161 1.387 . S
C159 C165 1.404 . S
C160 C153 1.448 1_554 S
C160 C159 1.430 . S
C160 N164 1.351 1_554 S
C161 C159 1.387 . S
C161 C162 1.374 . S
C161 H176 0.931 . S
C162 C156 1.439 1_554 S
C162 C161 1.374 . S
C162 H177 0.931 . S
Eu163 N154 2.600 1_565 S
Eu163 N164 2.562 1_565 S
Eu163 O198 2.335 . S
Eu163 O201 2.372 . S
Eu163 O202 2.462 . S
Eu163 O203 2.373 1_565 S
Eu163 O205 2.432 . S
Eu163 O206 2.291 1_465 S
Eu163 C227 2.787 . S
N164 C160 1.351 1_556 S
N164 Eu163 2.562 1_545 S
N164 C166 1.325 1_556 S
C165 C159 1.404 . S
C165 C167 1.366 . S
C165 H173 0.930 . S
C166 N164 1.325 1_554 S
C166 C167 1.416 . S
C166 H172 0.929 1_454 S
C167 C165 1.366 . S
C167 C166 1.416 . S
C167 H169 0.930 1_455 S
H168 C157 0.930 1_565 S
H169 C167 0.930 1_655 S
H170 C185 0.930 . S
H171 C192 0.930 . S
H172 C166 0.929 1_656 S
H173 C165 0.930 . S
H174 C188 0.929 . S
H175 C155 0.931 . S
H176 C161 0.931 . S
H177 C162 0.931 . S
H178 C183 0.931 . S
H179 C158 0.929 . S
H180 C191 0.930 . S
N181 Eu152 2.600 . S
N181 C182 1.365 . S
N181 C185 1.319 . S
C182 N181 1.365 . S
C182 C184 1.405 1_545 S
C182 C190 1.448 1_545 S
C183 H178 0.931 . S
C183 C185 1.397 . S
C183 C186 1.367 1_545 S
C184 C182 1.405 1_565 S
C184 C186 1.403 . S
C184 C217 1.439 . S
C185 H170 0.930 . S
C185 N181 1.319 . S
C185 C183 1.397 . S
C186 C183 1.367 1_565 S
C186 C184 1.403 . S
C186 H193 0.929 . S
N187 Eu152 2.562 . S
N187 C188 1.325 1_655 S
N187 C190 1.351 1_545 S
C188 H174 0.929 . S
C188 N187 1.325 1_455 S
C188 C192 1.416 1_545 S
C189 C190 1.430 . S
C189 C191 1.404 . S
C189 C218 1.387 . S
C190 C182 1.448 1_565 S
C190 N187 1.351 1_565 S
C190 C189 1.430 . S
C191 H180 0.930 . S
C191 C189 1.404 . S
C191 C192 1.366 1_655 S
C192 H171 0.930 . S
C192 C188 1.416 1_565 S
C192 C191 1.366 1_455 S
H193 C186 0.929 . S
H194 C217 0.931 . S
H195 C218 0.931 . S
O196 Eu152 2.462 1_455 S
O196 C216 1.252 1_455 S
O197 Eu152 2.373 1_565 S
O197 C208 1.249 . S
O198 Eu163 2.335 . S
O198 C208 1.264 1_455 S
O199 Eu152 2.432 . S
O199 C216 1.268 . S
O200 Eu152 2.291 1_455 S
O200 C215 1.255 . S
O201 Eu163 2.372 . S
O201 C215 1.257 1_565 S
O202 Eu163 2.462 . S
O202 C227 1.252 . S
O203 Eu163 2.373 1_545 S
O203 C219 1.249 . S
O204 Eu152 2.335 1_455 S
O204 C219 1.264 . S
O205 Eu163 2.432 . S
O205 C227 1.268 . S
O206 Eu163 2.291 1_645 S
O206 C226 1.255 . S
O207 Eu152 2.372 . S
O207 C226 1.257 . S
C208 O197 1.249 . S
C208 O198 1.264 1_655 S
C209 C212 1.382 . S
C209 C214 1.387 . S
C209 C216 1.506 . S
C210 C211 1.398 . S
C210 C214 1.391 . S
C211 C210 1.398 . S
C211 C213 1.372 . S
C211 H228 0.931 . S
C212 C209 1.382 . S
C212 C213 1.390 . S
C212 H229 0.931 . S
C213 C211 1.372 . S
C213 C212 1.390 . S
C213 H230 0.929 . S
C214 C209 1.387 . S
C214 C210 1.391 . S
C214 H231 0.933 1_655 S
C215 O200 1.255 . S
C215 O201 1.257 1_545 S
C216 Eu152 2.787 . S
C216 O196 1.252 1_655 S
C216 O199 1.268 . S
C216 C209 1.506 . S
C217 C184 1.439 . S
C217 H194 0.931 . S
C217 C218 1.374 . S
C218 C189 1.387 . S
C218 H195 0.931 . S
C218 C217 1.374 . S
C219 O203 1.249 . S
C219 O204 1.264 . S
C220 C223 1.382 . S
C220 C224 1.390 . S
C220 C227 1.506 . S
C221 C222 1.398 . S
C221 C224 1.392 1_554 S
C222 C221 1.398 . S
C222 C225 1.372 1_554 S
C222 H232 0.931 . S
C223 C220 1.382 . S
C223 C225 1.390 . S
C223 H233 0.931 . S
C224 C220 1.390 . S
C224 C221 1.392 1_556 S
C224 H234 0.933 1_455 S
C225 C222 1.372 1_556 S
C225 C223 1.390 . S
C225 H235 0.929 . S
C226 O206 1.255 . S
C226 O207 1.257 . S
C227 Eu163 2.787 . S
C227 O202 1.252 . S
C227 O205 1.268 . S
C227 C220 1.506 . S
H228 C211 0.931 . S
H229 C212 0.931 . S
H230 C213 0.929 . S
H231 C214 0.933 1_455 S
H232 C222 0.931 . S
H233 C223 0.931 . S
H234 C224 0.933 1_655 S
H235 C225 0.929 . S
Eu236 N265 2.600 . S
Eu236 N271 2.562 . S
Eu236 O280 2.462 . S
Eu236 O281 2.373 . S
Eu236 O283 2.432 . S
Eu236 O284 2.291 . S
Eu236 O288 2.335 1_545 S
Eu236 O291 2.372 . S
Eu236 C300 2.787 . S
C237 N238 1.365 . S
C237 C240 1.405 . S
C237 C244 1.448 . S
N238 C237 1.365 . S
N238 C241 1.319 . S
N238 Eu247 2.600 . S
C239 C241 1.397 . S
C239 C242 1.367 . S
C239 H259 0.931 . S
C240 C237 1.405 . S
C240 C242 1.403 . S
C240 C246 1.439 . S
C241 N238 1.319 . S
C241 C239 1.397 . S
C241 H252 0.930 . S
C242 C239 1.367 . S
C242 C240 1.403 . S
C242 H263 0.929 . S
C243 C244 1.430 . S
C243 C245 1.387 . S
C243 C249 1.404 . S
C244 C237 1.448 . S
C244 C243 1.430 . S
C244 N248 1.351 . S
C245 C243 1.387 . S
C245 C246 1.374 . S
C245 H260 0.931 . S
C246 C240 1.439 . S
C246 C245 1.374 . S
C246 H261 0.931 . S
Eu247 N238 2.600 . S
Eu247 N248 2.562 . S
Eu247 O282 2.335 1_565 S
Eu247 O285 2.372 . S
Eu247 O286 2.462 . S
Eu247 O287 2.373 . S
Eu247 O289 2.432 . S
Eu247 O290 2.291 1_565 S
Eu247 C311 2.787 . S
N248 C244 1.351 . S
N248 Eu247 2.562 . S
N248 C250 1.325 . S
C249 C243 1.404 . S
C249 C251 1.366 . S
C249 H257 0.930 . S
C250 N248 1.325 . S
C250 C251 1.416 . S
C250 H256 0.929 . S
C251 C249 1.366 . S
C251 C250 1.416 . S
C251 H253 0.930 . S
H252 C241 0.930 . S
H253 C251 0.930 . S
H254 C269 0.930 . S
H255 C276 0.930 . S
H256 C250 0.929 . S
H257 C249 0.930 . S
H258 C272 0.929 . S
H259 C239 0.931 . S
H260 C245 0.931 . S
H261 C246 0.931 . S
H262 C267 0.931 1_554 S
H263 C242 0.929 . S
H264 C275 0.930 . S
N265 Eu236 2.600 . S
N265 C266 1.365 . S
N265 C269 1.319 . S
C266 N265 1.365 . S
C266 C268 1.405 . S
C266 C274 1.448 . S
C267 H262 0.931 1_556 S
C267 C269 1.397 . S
C267 C270 1.367 . S
C268 C266 1.405 . S
C268 C270 1.403 . S
C268 C301 1.439 . S
C269 H254 0.930 . S
C269 N265 1.319 . S
C269 C267 1.397 . S
C270 C267 1.367 . S
C270 C268 1.403 . S
C270 H277 0.929 . S
N271 Eu236 2.562 . S
N271 C272 1.325 . S
N271 C274 1.351 . S
C272 H258 0.929 . S
C272 N271 1.325 . S
C272 C276 1.416 . S
C273 C274 1.430 . S
C273 C275 1.404 . S
C273 C302 1.387 . S
C274 C266 1.448 . S
C274 N271 1.351 . S
C274 C273 1.430 . S
C275 H264 0.930 . S
C275 C273 1.404 . S
C275 C276 1.366 . S
C276 H255 0.930 . S
C276 C272 1.416 . S
C276 C275 1.366 . S
H277 C270 0.929 . S
H278 C301 0.931 . S
H279 C302 0.931 . S
O280 Eu236 2.462 . S
O280 C300 1.252 . S
O281 Eu236 2.373 . S
O281 C292 1.249 . S
O282 Eu247 2.335 1_545 S
O282 C292 1.264 . S
O283 Eu236 2.432 . S
O283 C300 1.268 . S
O284 Eu236 2.291 . S
O284 C299 1.255 . S
O285 Eu247 2.372 . S
O285 C299 1.257 1_565 S
O286 Eu247 2.462 . S
O286 C311 1.252 . S
O287 Eu247 2.373 . S
O287 C303 1.249 . S
O288 Eu236 2.335 1_565 S
O288 C303 1.264 . S
O289 Eu247 2.432 . S
O289 C311 1.268 . S
O290 Eu247 2.291 1_545 S
O290 C310 1.255 . S
O291 Eu236 2.372 . S
O291 C310 1.257 . S
C292 O281 1.249 . S
C292 O282 1.264 . S
C293 C296 1.382 . S
C293 C298 1.390 . S
C293 C300 1.506 1_554 S
C294 C295 1.398 . S
C294 C298 1.392 . S
C295 C294 1.398 . S
C295 C297 1.372 . S
C295 H312 0.931 . S
C296 C293 1.382 . S
C296 C297 1.390 . S
C296 H313 0.931 . S
C297 C295 1.372 . S
C297 C296 1.390 . S
C297 H314 0.929 . S
C298 C293 1.390 . S
C298 C294 1.392 . S
C298 H315 0.930 1_554 S
C299 O284 1.255 . S
C299 O285 1.257 1_545 S
C300 Eu236 2.787 . S
C300 O280 1.252 . S
C300 O283 1.268 . S
C300 C293 1.506 1_556 S
C301 C268 1.439 . S
C301 H278 0.931 . S
C301 C302 1.374 . S
C302 C273 1.387 . S
C302 H279 0.931 . S
C302 C301 1.374 . S
C303 O287 1.249 . S
C303 O288 1.264 . S
C304 C307 1.382 . S
C304 C308 1.390 1_565 S
C304 C311 1.506 . S
C305 C306 1.397 1_545 S
C305 C308 1.392 . S
C306 C305 1.397 1_565 S
C306 C309 1.373 . S
C306 H316 0.931 1_565 S
C307 C304 1.382 . S
C307 C309 1.390 . S
C307 H317 0.931 . S
C308 C304 1.390 1_545 S
C308 C305 1.392 . S
C308 H318 0.930 . S
C309 C306 1.373 . S
C309 C307 1.390 . S
C309 H319 0.929 . S
C310 O290 1.255 . S
C310 O291 1.257 . S
C311 Eu247 2.787 . S
C311 O286 1.252 . S
C311 O289 1.268 . S
C311 C304 1.506 . S
H312 C295 0.931 . S
H313 C296 0.931 . S
H314 C297 0.929 . S
H315 C298 0.930 1_556 S
H316 C306 0.931 1_545 S
H317 C307 0.931 . S
H318 C308 0.930 . S
H319 C309 0.929 . S
Eu320 N349 2.600 . S
Eu320 N355 2.562 . S
Eu320 O364 2.462 . S
Eu320 O365 2.373 . S
Eu320 O367 2.432 . S
Eu320 O368 2.291 . S
Eu320 O372 2.335 . S
Eu320 O375 2.372 . S
Eu320 C384 2.787 . S
C321 N322 1.365 . S
C321 C324 1.405 . S
C321 C328 1.448 1_556 S
N322 C321 1.365 . S
N322 C325 1.319 . S
N322 Eu331 2.600 . S
C323 C325 1.397 . S
C323 C326 1.367 . S
C323 H343 0.931 . S
C324 C321 1.405 . S
C324 C326 1.403 . S
C324 C330 1.439 1_556 S
C325 N322 1.319 . S
C325 C323 1.397 . S
C325 H336 0.930 . S
C326 C323 1.367 . S
C326 C324 1.403 . S
C326 H347 0.929 . S
C327 C328 1.430 . S
C327 C329 1.387 . S
C327 C333 1.404 . S
C328 C321 1.448 1_554 S
C328 C327 1.430 . S
C328 N332 1.351 1_554 S
C329 C327 1.387 . S
C329 C330 1.374 . S
C329 H344 0.931 . S
C330 C324 1.439 1_554 S
C330 C329 1.374 . S
C330 H345 0.931 . S
Eu331 N322 2.600 . S
Eu331 N332 2.562 . S
Eu331 O366 2.335 . S
Eu331 O369 2.372 . S
Eu331 O370 2.462 . S
Eu331 O371 2.373 . S
Eu331 O373 2.432 . S
Eu331 O374 2.291 . S
Eu331 C395 2.787 . S
N332 C328 1.351 1_556 S
N332 Eu331 2.562 . S
N332 C334 1.325 1_556 S
C333 C327 1.404 . S
C333 C335 1.366 . S
C333 H341 0.930 . S
C334 N332 1.325 1_554 S
C334 C335 1.416 . S
C334 H340 0.929 1_554 S
C335 C333 1.366 . S
C335 C334 1.416 . S
C335 H337 0.930 . S
H336 C325 0.930 . S
H337 C335 0.930 . S
H338 C353 0.930 . S
H339 C360 0.930 . S
H340 C334 0.929 1_556 S
H341 C333 0.930 . S
H342 C356 0.929 . S
H343 C323 0.931 . S
H344 C329 0.931 . S
H345 C330 0.931 . S
H346 C351 0.931 . S
H347 C326 0.929 . S
H348 C359 0.930 . S
N349 Eu320 2.600 . S
N349 C350 1.365 . S
N349 C353 1.319 . S
C350 N349 1.365 . S
C350 C352 1.405 . S
C350 C358 1.448 . S
C351 H346 0.931 . S
C351 C353 1.397 . S
C351 C354 1.367 . S
C352 C350 1.405 . S
C352 C354 1.403 . S
C352 C385 1.439 . S
C353 H338 0.930 . S
C353 N349 1.319 . S
C353 C351 1.397 . S
C354 C351 1.367 . S
C354 C352 1.403 . S
C354 H361 0.929 . S
N355 Eu320 2.562 . S
N355 C356 1.325 . S
N355 C358 1.351 . S
C356 H342 0.929 . S
C356 N355 1.325 . S
C356 C360 1.416 . S
C357 C358 1.430 . S
C357 C359 1.404 . S
C357 C386 1.387 . S
C358 C350 1.448 . S
C358 N355 1.351 . S
C358 C357 1.430 . S
C359 H348 0.930 . S
C359 C357 1.404 . S
C359 C360 1.366 . S
C360 H339 0.930 . S
C360 C356 1.416 . S
C360 C359 1.366 . S
H361 C354 0.929 . S
H362 C385 0.931 . S
H363 C386 0.931 . S
O364 Eu320 2.462 . S
O364 C384 1.252 . S
O365 Eu320 2.373 . S
O365 C376 1.249 . S
O366 Eu331 2.335 . S
O366 C376 1.264 . S
O367 Eu320 2.432 . S
O367 C384 1.268 . S
O368 Eu320 2.291 . S
O368 C383 1.255 . S
O369 Eu331 2.372 . S
O369 C383 1.257 . S
O370 Eu331 2.462 . S
O370 C395 1.252 . S
O371 Eu331 2.373 . S
O371 C387 1.249 . S
O372 Eu320 2.335 . S
O372 C387 1.264 . S
O373 Eu331 2.432 . S
O373 C395 1.268 . S
O374 Eu331 2.291 . S
O374 C394 1.255 . S
O375 Eu320 2.372 . S
O375 C394 1.257 . S
C376 O365 1.249 . S
C376 O366 1.264 . S
C377 C380 1.382 . S
C377 C382 1.390 . S
C377 C384 1.506 . S
C378 C379 1.398 . S
C378 C382 1.392 . S
C379 C378 1.398 . S
C379 C381 1.372 . S
C379 H396 0.931 . S
C380 C377 1.382 . S
C380 C381 1.390 . S
C380 H397 0.931 . S
C381 C379 1.372 . S
C381 C380 1.390 . S
C381 H398 0.929 . S
C382 C377 1.390 . S
C382 C378 1.392 . S
C382 H399 0.930 . S
C383 O368 1.255 . S
C383 O369 1.257 . S
C384 Eu320 2.787 . S
C384 O364 1.252 . S
C384 O367 1.268 . S
C384 C377 1.506 . S
C385 C352 1.439 . S
C385 H362 0.931 . S
C385 C386 1.374 . S
C386 C357 1.387 . S
C386 H363 0.931 . S
C386 C385 1.374 . S
C387 O371 1.249 . S
C387 O372 1.264 . S
C388 C391 1.382 . S
C388 C392 1.390 . S
C388 C395 1.506 . S
C389 C390 1.398 . S
C389 C392 1.392 1_554 S
C390 C389 1.398 . S
C390 C393 1.372 1_554 S
C390 H400 0.931 . S
C391 C388 1.382 . S
C391 C393 1.390 . S
C391 H401 0.931 . S
C392 C388 1.390 . S
C392 C389 1.392 1_556 S
C392 H402 0.930 . S
C393 C390 1.372 1_556 S
C393 C391 1.390 . S
C393 H403 0.929 . S
C394 O374 1.255 . S
C394 O375 1.257 . S
C395 Eu331 2.787 . S
C395 O370 1.252 . S
C395 O373 1.268 . S
C395 C388 1.506 . S
H396 C379 0.931 . S
H397 C380 0.931 . S
H398 C381 0.929 . S
H399 C382 0.930 . S
H400 C390 0.931 . S
H401 C391 0.931 . S
H402 C392 0.930 . S
H403 C393 0.929 . S
Eu404 N433 2.600 . S
Eu404 N439 2.562 . S
Eu404 O448 2.462 . S
Eu404 O449 2.373 1_455 S
Eu404 O451 2.432 . S
Eu404 O452 2.291 . S
Eu404 O456 2.335 . S
Eu404 O459 2.372 . S
Eu404 C468 2.787 . S
C405 N406 1.365 . S
C405 C408 1.405 . S
C405 C412 1.448 1_556 S
N406 C405 1.365 . S
N406 C409 1.316 1_455 S
N406 Eu415 2.600 1_455 S
C407 C409 1.389 1_455 S
C407 C410 1.367 . S
C407 H427 0.931 . S
C408 C405 1.405 . S
C408 C410 1.403 . S
C408 C414 1.439 1_556 S
C409 N406 1.316 1_655 S
C409 C407 1.389 1_655 S
C409 H420 0.941 . S
C410 C407 1.367 . S
C410 C408 1.403 . S
C410 H431 0.929 . S
C411 C412 1.430 . S
C411 C413 1.387 . S
C411 C417 1.404 . S
C412 C405 1.448 1_554 S
C412 C411 1.430 . S
C412 N416 1.351 1_554 S
C413 C411 1.387 . S
C413 C414 1.374 . S
C413 H428 0.931 . S
C414 C408 1.439 1_554 S
C414 C413 1.374 . S
C414 H429 0.931 . S
Eu415 N406 2.600 1_655 S
Eu415 N416 2.562 1_655 S
Eu415 O450 2.335 . S
Eu415 O453 2.372 . S
Eu415 O454 2.462 . S
Eu415 O455 2.373 1_655 S
Eu415 O457 2.432 . S
Eu415 O458 2.291 1_655 S
Eu415 C479 2.787 . S
N416 C412 1.351 1_556 S
N416 Eu415 2.562 1_455 S
N416 C418 1.325 1_556 S
C417 C411 1.404 . S
C417 C419 1.366 . S
C417 H425 0.930 . S
C418 N416 1.325 1_554 S
C418 C419 1.416 . S
C418 H424 0.929 1_554 S
C419 C417 1.366 . S
C419 C418 1.416 . S
C419 H421 0.930 . S
H420 C409 0.941 . S
H421 C419 0.930 . S
H422 C437 0.930 . S
H423 C444 0.930 . S
H424 C418 0.929 1_556 S
H425 C417 0.930 . S
H426 C440 0.929 . S
H427 C407 0.931 . S
H428 C413 0.931 . S
H429 C414 0.931 . S
H430 C435 0.931 . S
H431 C410 0.929 . S
H432 C443 0.930 . S
N433 Eu404 2.600 . S
N433 C434 1.386 . S
N433 C437 1.319 . S
C434 N433 1.386 . S
C434 C436 1.389 1_455 S
C434 C442 1.444 1_455 S
C435 H430 0.931 . S
C435 C437 1.397 . S
C435 C438 1.367 1_455 S
C436 C434 1.389 1_655 S
C436 C438 1.403 . S
C436 C469 1.439 . S
C437 H422 0.930 . S
C437 N433 1.319 . S
C437 C435 1.397 . S
C438 C435 1.367 1_655 S
C438 C436 1.403 . S
C438 H445 0.929 . S
N439 Eu404 2.562 . S
N439 C440 1.325 . S
N439 C442 1.351 1_455 S
C440 H426 0.929 . S
C440 N439 1.325 . S
C440 C444 1.416 1_455 S
C441 C442 1.430 . S
C441 C443 1.404 . S
C441 C470 1.387 . S
C442 C434 1.444 1_655 S
C442 N439 1.351 1_655 S
C442 C441 1.430 . S
C443 H432 0.930 . S
C443 C441 1.404 . S
C443 C444 1.366 . S
C444 H423 0.930 . S
C444 C440 1.416 1_655 S
C444 C443 1.366 . S
H445 C438 0.929 . S
H446 C469 0.931 . S
H447 C470 0.931 . S
O448 Eu404 2.462 . S
O448 C468 1.252 . S
O449 Eu404 2.373 1_655 S
O449 C460 1.249 . S
O450 Eu415 2.335 . S
O450 C460 1.264 . S
O451 Eu404 2.432 . S
O451 C468 1.268 . S
O452 Eu404 2.291 . S
O452 C467 1.255 . S
O453 Eu415 2.372 . S
O453 C467 1.257 1_655 S
O454 Eu415 2.462 . S
O454 C479 1.252 . S
O455 Eu415 2.373 1_455 S
O455 C471 1.249 . S
O456 Eu404 2.335 . S
O456 C471 1.264 . S
O457 Eu415 2.432 . S
O457 C479 1.268 . S
O458 Eu415 2.291 1_455 S
O458 C478 1.255 . S
O459 Eu404 2.372 . S
O459 C478 1.257 . S
C460 O449 1.249 . S
C460 O450 1.264 . S
C461 C464 1.382 . S
C461 C466 1.390 . S
C461 C468 1.506 . S
C462 C463 1.398 . S
C462 C466 1.392 . S
C463 C462 1.398 . S
C463 C465 1.372 . S
C463 H480 0.931 . S
C464 C461 1.382 . S
C464 C465 1.390 . S
C464 H481 0.931 . S
C465 C463 1.372 . S
C465 C464 1.390 . S
C465 H482 0.929 . S
C466 C461 1.390 . S
C466 C462 1.392 . S
C466 H483 0.930 . S
C467 O452 1.255 . S
C467 O453 1.257 1_455 S
C468 Eu404 2.787 . S
C468 O448 1.252 . S
C468 O451 1.268 . S
C468 C461 1.506 . S
C469 C436 1.439 . S
C469 H446 0.931 . S
C469 C470 1.374 . S
C470 C441 1.387 . S
C470 H447 0.931 . S
C470 C469 1.374 . S
C471 O455 1.249 . S
C471 O456 1.264 . S
C472 C475 1.382 . S
C472 C476 1.390 . S
C472 C479 1.506 . S
C473 C474 1.398 . S
C473 C476 1.392 1_554 S
C474 C473 1.398 . S
C474 C477 1.372 1_554 S
C474 H484 0.931 . S
C475 C472 1.382 . S
C475 C477 1.390 . S
C475 H485 0.931 . S
C476 C472 1.390 . S
C476 C473 1.392 1_556 S
C476 H486 0.930 . S
C477 C474 1.372 1_556 S
C477 C475 1.390 . S
C477 H487 0.929 . S
C478 O458 1.255 . S
C478 O459 1.257 . S
C479 Eu415 2.787 . S
C479 O454 1.252 . S
C479 O457 1.268 . S
C479 C472 1.506 . S
H480 C463 0.931 . S
H481 C464 0.931 . S
H482 C465 0.929 . S
H483 C466 0.930 . S
H484 C474 0.931 . S
H485 C475 0.931 . S
H486 C476 0.930 . S
H487 C477 0.929 . S
H488 C494 0.930 . S
H489 C497 0.930 . S
H490 C498 0.930 . S
H491 C499 0.930 . S
H492 C502 0.930 . S
H493 C503 0.930 . S
C494 H488 0.930 . S
C494 C495 1.355 . S
C494 C496 1.415 . S
C495 C494 1.355 . S
C495 C497 1.419 . S
C496 C494 1.415 . S
C496 C501 1.425 . S
C496 C503 1.409 . S
C497 H489 0.930 . S
C497 C495 1.419 . S
C497 C498 1.362 . S
C498 H490 0.930 . S
C498 C497 1.362 . S
C498 C501 1.409 . S
C499 H491 0.930 . S
C499 C500 1.355 . S
C499 C501 1.415 . S
C500 C499 1.355 . S
C500 C502 1.419 . S
C501 C496 1.425 . S
C501 C498 1.409 . S
C501 C499 1.415 . S
C502 H492 0.930 . S
C502 C500 1.419 . S
C502 C503 1.362 . S
C503 H493 0.930 . S
C503 C496 1.409 . S
C503 C502 1.362 . S
H504 C510 0.930 . S
H505 C513 0.930 . S
H506 C514 0.930 . S
H507 C515 0.930 . S
H508 C518 0.930 . S
H509 C519 0.930 . S
C510 H504 0.930 . S
C510 C511 1.355 . S
C510 C512 1.415 . S
C511 C510 1.355 . S
C511 C513 1.419 . S
C512 C510 1.415 . S
C512 C517 1.425 . S
C512 C519 1.409 . S
C513 H505 0.930 . S
C513 C511 1.419 . S
C513 C514 1.362 . S
C514 H506 0.930 . S
C514 C513 1.362 . S
C514 C517 1.409 . S
C515 H507 0.930 . S
C515 C516 1.355 . S
C515 C517 1.415 . S
C516 C515 1.355 . S
C516 C518 1.419 . S
C517 C512 1.425 . S
C517 C514 1.409 . S
C517 C515 1.415 . S
C518 H508 0.930 . S
C518 C516 1.419 . S
C518 C519 1.362 . S
C519 H509 0.930 . S
C519 C512 1.409 . S
C519 C518 1.362 . S
H520 C526 0.930 . S
H521 C529 0.930 . S
H522 C530 0.930 . S
H523 C531 0.930 . S
H524 C534 0.930 . S
H525 C535 0.930 . S
C526 H520 0.930 . S
C526 C527 1.355 . S
C526 C528 1.415 . S
C527 C526 1.355 . S
C527 C529 1.419 . S
C528 C526 1.415 . S
C528 C533 1.425 . S
C528 C535 1.409 . S
C529 H521 0.930 . S
C529 C527 1.419 . S
C529 C530 1.362 . S
C530 H522 0.930 . S
C530 C529 1.362 . S
C530 C533 1.409 . S
C531 H523 0.930 . S
C531 C532 1.355 . S
C531 C533 1.415 . S
C532 C531 1.355 . S
C532 C534 1.419 . S
C533 C528 1.425 . S
C533 C530 1.409 . S
C533 C531 1.415 . S
C534 H524 0.930 . S
C534 C532 1.419 . S
C534 C535 1.362 . S
C535 H525 0.930 . S
C535 C528 1.409 . S
C535 C534 1.362 . S
H536 C542 0.930 . S
H537 C545 0.930 1_655 S
H538 C546 0.929 . S
H539 C547 0.930 1_655 S
H540 C550 0.930 . S
H541 C551 0.930 . S
C542 H536 0.930 . S
C542 C543 1.355 . S
C542 C544 1.415 . S
C543 C542 1.355 . S
C543 C545 1.419 . S
C544 C542 1.415 . S
C544 C549 1.425 . S
C544 C551 1.409 . S
C545 H537 0.930 1_455 S
C545 C543 1.419 . S
C545 C546 1.363 1_455 S
C546 H538 0.929 . S
C546 C545 1.363 1_655 S
C546 C549 1.410 1_655 S
C547 H539 0.930 1_455 S
C547 C548 1.355 . S
C547 C549 1.415 . S
C548 C547 1.355 . S
C548 C550 1.419 . S
C549 C544 1.425 . S
C549 C546 1.410 1_455 S
C549 C547 1.415 . S
C550 H540 0.930 . S
C550 C548 1.419 . S
C550 C551 1.362 . S
C551 H541 0.930 . S
C551 C544 1.409 . S
C551 C550 1.362 . S
H552 C558 0.930 . S
H553 C561 0.930 . S
H554 C562 0.930 1_556 S
H555 C563 0.930 . S
H556 C566 0.930 . S
H557 C567 0.930 . S
C558 H552 0.930 . S
C558 C559 1.355 . S
C558 C560 1.415 . S
C559 C558 1.355 . S
C559 C561 1.419 1_565 S
C560 C558 1.415 . S
C560 C565 1.439 1_554 S
C560 C567 1.409 . S
C561 H553 0.930 . S
C561 C559 1.419 1_545 S
C561 C562 1.362 . S
C562 H554 0.930 1_554 S
C562 C561 1.362 . S
C562 C565 1.401 1_544 S
C563 H555 0.930 . S
C563 C564 1.355 1_545 S
C563 C565 1.410 1_545 S
C564 C563 1.355 1_565 S
C564 C566 1.419 . S
C565 C560 1.439 1_556 S
C565 C562 1.401 1_566 S
C565 C563 1.410 1_565 S
C566 H556 0.930 . S
C566 C564 1.419 . S
C566 C567 1.362 1_556 S
C567 H557 0.930 . S
C567 C560 1.409 . S
C567 C566 1.362 1_554 S
H568 C574 0.930 . S
H569 C577 0.930 . S
H570 C578 0.930 1_556 S
H571 C579 0.930 . S
H572 C582 0.930 . S
H573 C583 0.930 . S
C574 H568 0.930 . S
C574 C575 1.355 . S
C574 C576 1.415 . S
C575 C574 1.355 . S
C575 C577 1.419 . S
C576 C574 1.415 . S
C576 C581 1.425 . S
C576 C583 1.409 . S
C577 H569 0.930 . S
C577 C575 1.419 . S
C577 C578 1.362 . S
C578 H570 0.930 1_554 S
C578 C577 1.362 . S
C578 C581 1.409 . S
C579 H571 0.930 . S
C579 C580 1.355 . S
C579 C581 1.415 1_556 S
C580 C579 1.355 . S
C580 C582 1.419 . S
C581 C576 1.425 . S
C581 C578 1.409 . S
C581 C579 1.415 1_554 S
C582 H572 0.930 . S
C582 C580 1.419 . S
C582 C583 1.362 1_556 S
C583 H573 0.930 . S
C583 C576 1.409 . S
C583 C582 1.362 1_554 S
H584 C590 0.930 . S
H585 C593 0.930 . S
H586 C594 0.930 . S
H587 C595 0.930 . S
H588 C598 0.930 . S
H589 C599 0.930 . S
C590 H584 0.930 . S
C590 C591 1.355 . S
C590 C592 1.415 . S
C591 C590 1.355 . S
C591 C593 1.419 . S
C592 C590 1.415 . S
C592 C597 1.425 . S
C592 C599 1.409 1_554 S
C593 H585 0.930 . S
C593 C591 1.419 . S
C593 C594 1.362 . S
C594 H586 0.930 . S
C594 C593 1.362 . S
C594 C597 1.409 . S
C595 H587 0.930 . S
C595 C596 1.355 . S
C595 C597 1.415 1_556 S
C596 C595 1.355 . S
C596 C598 1.419 . S
C597 C592 1.425 . S
C597 C594 1.409 . S
C597 C595 1.415 1_554 S
C598 H588 0.930 . S
C598 C596 1.419 . S
C598 C599 1.362 . S
C599 H589 0.930 . S
C599 C592 1.409 1_556 S
C599 C598 1.362 . S
H600 C606 0.930 . S
H601 C609 0.930 . S
H602 C610 0.930 1_556 S
H603 C611 0.930 . S
H604 C614 0.930 . S
H605 C615 0.930 . S
C606 H600 0.930 . S
C606 C607 1.355 . S
C606 C608 1.415 . S
C607 C606 1.355 . S
C607 C609 1.419 1_655 S
C608 C606 1.415 . S
C608 C613 1.437 1_554 S
C608 C615 1.409 . S
C609 H601 0.930 . S
C609 C607 1.419 1_455 S
C609 C610 1.362 . S
C610 H602 0.930 1_554 S
C610 C609 1.362 . S
C610 C613 1.402 1_454 S
C611 H603 0.930 . S
C611 C612 1.355 1_455 S
C611 C613 1.411 1_455 S
C612 C611 1.355 1_655 S
C612 C614 1.419 . S
C613 C608 1.437 1_556 S
C613 C610 1.402 1_656 S
C613 C611 1.411 1_655 S
C614 H604 0.930 . S
C614 C612 1.419 . S
C614 C615 1.362 1_556 S
C615 H605 0.930 . S
C615 C608 1.409 . S
C615 C614 1.362 1_554 S
H616 C622 0.930 . S
H617 C625 0.930 1_556 S
H618 C626 0.930 . S
H619 C627 0.930 . S
H620 C630 0.930 . S
H621 C631 0.930 . S
C622 H616 0.930 . S
C622 C623 1.355 . S
C622 C624 1.415 . S
C623 C622 1.355 . S
C623 C625 1.419 . S
C624 C622 1.415 . S
C624 C629 1.425 . S
C624 C631 1.409 . S
C625 H617 0.930 1_554 S
C625 C623 1.419 . S
C625 C626 1.362 . S
C626 H618 0.930 . S
C626 C625 1.362 . S
C626 C629 1.409 . S
C627 H619 0.930 . S
C627 C628 1.355 . S
C627 C629 1.415 . S
C628 C627 1.355 . S
C628 C630 1.419 . S
C629 C624 1.425 . S
C629 C626 1.409 . S
C629 C627 1.415 . S
C630 H620 0.930 . S
C630 C628 1.419 . S
C630 C631 1.362 . S
C631 H621 0.930 . S
C631 C624 1.409 . S
C631 C630 1.362 . S
H632 C638 0.930 . S
H633 C641 0.930 . S
H634 C642 0.930 . S
H635 C643 0.930 . S
H636 C646 0.930 . S
H637 C647 0.930 . S
C638 H632 0.930 . S
C638 C639 1.355 . S
C638 C640 1.415 . S
C639 C638 1.355 . S
C639 C641 1.419 . S
C640 C638 1.415 . S
C640 C645 1.425 . S
C640 C647 1.409 1_545 S
C641 H633 0.930 . S
C641 C639 1.419 . S
C641 C642 1.362 . S
C642 H634 0.930 . S
C642 C641 1.362 . S
C642 C645 1.409 . S
C643 H635 0.930 . S
C643 C644 1.355 . S
C643 C645 1.415 . S
C644 C643 1.355 . S
C644 C646 1.419 1_545 S
C645 C640 1.425 . S
C645 C642 1.409 . S
C645 C643 1.415 . S
C646 H636 0.930 . S
C646 C644 1.419 1_565 S
C646 C647 1.362 . S
C647 H637 0.930 . S
C647 C640 1.409 1_565 S
C647 C646 1.362 . S
H648 C654 0.930 . S
H649 C657 0.930 . S
H650 C658 0.930 . S
H651 C659 0.930 . S
H652 C662 0.930 . S
H653 C663 0.930 . S
C654 H648 0.930 . S
C654 C655 1.355 . S
C654 C656 1.415 . S
C655 C654 1.355 . S
C655 C657 1.419 . S
C656 C654 1.415 . S
C656 C661 1.425 . S
C656 C663 1.409 . S
C657 H649 0.930 . S
C657 C655 1.419 . S
C657 C658 1.362 . S
C658 H650 0.930 . S
C658 C657 1.362 . S
C658 C661 1.409 . S
C659 H651 0.930 . S
C659 C660 1.355 . S
C659 C661 1.415 . S
C660 C659 1.355 . S
C660 C662 1.419 . S
C661 C656 1.425 . S
C661 C658 1.409 . S
C661 C659 1.415 . S
C662 H652 0.930 . S
C662 C660 1.419 . S
C662 C663 1.362 . S
C663 H653 0.930 . S
C663 C656 1.409 . S
C663 C662 1.362 . S
H664 C670 0.930 . S
H665 C673 0.930 . S
H666 C674 0.930 . S
H667 C675 0.930 . S
H668 C678 0.930 . S
H669 C679 0.930 . S
C670 H664 0.930 . S
C670 C671 1.355 . S
C670 C672 1.415 . S
C671 C670 1.355 . S
C671 C673 1.419 . S
C672 C670 1.415 . S
C672 C677 1.425 . S
C672 C679 1.409 . S
C673 H665 0.930 . S
C673 C671 1.419 . S
C673 C674 1.362 . S
C674 H666 0.930 . S
C674 C673 1.362 . S
C674 C677 1.409 . S
C675 H667 0.930 . S
C675 C676 1.355 . S
C675 C677 1.415 . S
C676 C675 1.355 . S
C676 C678 1.419 . S
C677 C672 1.425 . S
C677 C674 1.409 . S
C677 C675 1.415 . S
C678 H668 0.930 . S
C678 C676 1.419 . S
C678 C679 1.362 . S
C679 H669 0.930 . S
C679 C672 1.409 . S
C679 C678 1.362 . S
H680 C686 0.930 . S
H681 C689 0.930 . S
H682 C690 0.930 . S
H683 C691 0.930 . S
H684 C694 0.930 . S
H685 C695 0.930 . S
C686 H680 0.930 . S
C686 C687 1.355 1_455 S
C686 C688 1.415 . S
C687 C686 1.355 1_655 S
C687 C689 1.419 . S
C688 C686 1.415 . S
C688 C693 1.425 1_455 S
C688 C695 1.409 . S
C689 H681 0.930 . S
C689 C687 1.419 . S
C689 C690 1.362 . S
C690 H682 0.930 . S
C690 C689 1.362 . S
C690 C693 1.409 . S
C691 H683 0.930 . S
C691 C692 1.355 1_655 S
C691 C693 1.415 . S
C692 C691 1.355 1_455 S
C692 C694 1.419 . S
C693 C688 1.425 1_655 S
C693 C690 1.409 . S
C693 C691 1.415 . S
C694 H684 0.930 . S
C694 C692 1.419 . S
C694 C695 1.362 . S
C695 H685 0.930 . S
C695 C688 1.409 . S
C695 C694 1.362 . S
H696 C702 0.930 . S
H697 C705 0.930 . S
H698 C706 0.930 1_545 S
H699 C707 0.930 1_556 S
H700 C710 0.930 . S
H701 C711 0.930 . S
C702 H696 0.930 . S
C702 C703 1.355 . S
C702 C704 1.415 . S
C703 C702 1.355 . S
C703 C705 1.419 . S
C704 C702 1.415 . S
C704 C709 1.426 . S
C704 C711 1.409 . S
C705 H697 0.930 . S
C705 C703 1.419 . S
C705 C706 1.362 . S
C706 H698 0.930 1_565 S
C706 C705 1.362 . S
C706 C709 1.409 . S
C707 H699 0.930 1_554 S
C707 C708 1.355 . S
C707 C709 1.413 1_545 S
C708 C707 1.355 . S
C708 C710 1.419 . S
C709 C704 1.426 . S
C709 C706 1.409 . S
C709 C707 1.413 1_565 S
C710 H700 0.930 . S
C710 C708 1.419 . S
C710 C711 1.362 1_545 S
C711 H701 0.930 . S
C711 C704 1.409 . S
C711 C710 1.362 1_565 S
H712 C718 0.930 . S
H713 C721 0.930 . S
H714 C722 0.930 . S
H715 C723 0.930 . S
H716 C726 0.930 . S
H717 C727 0.930 . S
C718 H712 0.930 . S
C718 C719 1.355 . S
C718 C720 1.415 . S
C719 C718 1.355 . S
C719 C721 1.419 . S
C720 C718 1.415 . S
C720 C725 1.425 . S
C720 C727 1.409 . S
C721 H713 0.930 . S
C721 C719 1.419 . S
C721 C722 1.362 . S
C722 H714 0.930 . S
C722 C721 1.362 . S
C722 C725 1.409 . S
C723 H715 0.930 . S
C723 C724 1.355 . S
C723 C725 1.415 . S
C724 C723 1.355 . S
C724 C726 1.419 . S
C725 C720 1.425 . S
C725 C722 1.409 . S
C725 C723 1.415 . S
C726 H716 0.930 . S
C726 C724 1.419 . S
C726 C727 1.362 . S
C727 H717 0.930 . S
C727 C720 1.409 . S
C727 C726 1.362 . S
H728 C734 0.930 . S
H729 C737 0.930 . S
H730 C738 0.930 . S
H731 C739 0.930 . S
H732 C742 0.930 1_556 S
H733 C743 0.930 1_556 S
C734 H728 0.930 . S
C734 C735 1.355 . S
C734 C736 1.415 . S
C735 C734 1.355 . S
C735 C737 1.419 . S
C736 C734 1.415 . S
C736 C741 1.425 . S
C736 C743 1.409 . S
C737 H729 0.930 . S
C737 C735 1.419 . S
C737 C738 1.362 . S
C738 H730 0.930 . S
C738 C737 1.362 . S
C738 C741 1.409 . S
C739 H731 0.930 . S
C739 C740 1.355 . S
C739 C741 1.415 . S
C740 C739 1.355 . S
C740 C742 1.419 . S
C741 C736 1.425 . S
C741 C738 1.409 . S
C741 C739 1.415 . S
C742 H732 0.930 1_554 S
C742 C740 1.419 . S
C742 C743 1.362 . S
C743 H733 0.930 1_554 S
C743 C736 1.409 . S
C743 C742 1.362 . S
H744 C750 0.930 . S
H745 C753 0.930 . S
H746 C754 0.930 . S
H747 C755 0.930 . S
H748 C758 0.930 1_655 S
H749 C759 0.930 1_655 S
C750 H744 0.930 . S
C750 C751 1.355 . S
C750 C752 1.415 . S
C751 C750 1.355 . S
C751 C753 1.419 . S
C752 C750 1.415 . S
C752 C757 1.425 . S
C752 C759 1.409 . S
C753 H745 0.930 . S
C753 C751 1.419 . S
C753 C754 1.362 . S
C754 H746 0.930 . S
C754 C753 1.362 . S
C754 C757 1.409 . S
C755 H747 0.930 . S
C755 C756 1.355 . S
C755 C757 1.415 . S
C756 C755 1.355 . S
C756 C758 1.419 . S
C757 C752 1.425 . S
C757 C754 1.409 . S
C757 C755 1.415 . S
C758 H748 0.930 1_455 S
C758 C756 1.419 . S
C758 C759 1.362 . S
C759 H749 0.930 1_455 S
C759 C752 1.409 . S
C759 C758 1.362 . S
H760 C766 0.930 . S
H761 C769 0.930 . S
H762 C770 0.930 1_565 S
H763 C771 0.930 . S
H764 C774 0.930 . S
H765 C775 0.930 . S
C766 H760 0.930 . S
C766 C767 1.355 . S
C766 C768 1.415 . S
C767 C766 1.355 . S
C767 C769 1.419 . S
C768 C766 1.415 . S
C768 C773 1.425 . S
C768 C775 1.409 . S
C769 H761 0.930 . S
C769 C767 1.419 . S
C769 C770 1.362 . S
C770 H762 0.930 1_545 S
C770 C769 1.362 . S
C770 C773 1.409 . S
C771 H763 0.930 . S
C771 C772 1.355 . S
C771 C773 1.415 . S
C772 C771 1.355 . S
C772 C774 1.419 . S
C773 C768 1.425 . S
C773 C770 1.409 . S
C773 C771 1.415 . S
C774 H764 0.930 . S
C774 C772 1.419 . S
C774 C775 1.362 . S
C775 H765 0.930 . S
C775 C768 1.409 . S
C775 C774 1.362 . S
H776 C782 0.930 . S
H777 C785 0.930 . S
H778 C786 0.930 . S
H779 C787 0.930 . S
H780 C790 0.930 . S
H781 C791 0.930 . S
C782 H776 0.930 . S
C782 C783 1.355 . S
C782 C784 1.415 . S
C783 C782 1.355 . S
C783 C785 1.419 . S
C784 C782 1.415 . S
C784 C789 1.425 . S
C784 C791 1.409 . S
C785 H777 0.930 . S
C785 C783 1.419 . S
C785 C786 1.362 . S
C786 H778 0.930 . S
C786 C785 1.362 . S
C786 C789 1.409 . S
C787 H779 0.930 . S
C787 C788 1.355 . S
C787 C789 1.415 . S
C788 C787 1.355 . S
C788 C790 1.419 . S
C789 C784 1.425 . S
C789 C786 1.409 . S
C789 C787 1.415 . S
C790 H780 0.930 . S
C790 C788 1.419 . S
C790 C791 1.362 . S
C791 H781 0.930 . S
C791 C784 1.409 . S
C791 C790 1.362 . S
H792 C798 0.930 . S
H793 C801 0.939 . S
H794 C802 0.930 1_554 S
H795 C803 0.930 . S
H796 C806 0.930 . S
H797 C807 0.930 . S
C798 H792 0.930 . S
C798 C799 1.355 . S
C798 C800 1.415 . S
C799 C798 1.355 . S
C799 C801 1.419 . S
C800 C798 1.415 . S
C800 C805 1.425 . S
C800 C807 1.409 . S
C801 H793 0.939 . S
C801 C799 1.419 . S
C801 C802 1.362 . S
C802 H794 0.930 1_556 S
C802 C801 1.362 . S
C802 C805 1.409 . S
C803 H795 0.930 . S
C803 C804 1.355 . S
C803 C805 1.415 . S
C804 C803 1.355 . S
C804 C806 1.419 . S
C805 C800 1.425 . S
C805 C802 1.409 . S
C805 C803 1.415 . S
C806 H796 0.930 . S
C806 C804 1.419 . S
C806 C807 1.362 . S
C807 H797 0.930 . S
C807 C800 1.409 . S
C807 C806 1.362 . S
H808 C814 0.930 . S
H809 C817 0.930 . S
H810 C818 0.930 . S
H811 C819 0.924 1_455 S
H812 C822 0.930 . S
H813 C823 0.930 . S
C814 H808 0.930 . S
C814 C815 1.355 . S
C814 C816 1.415 . S
C815 C814 1.355 . S
C815 C817 1.419 . S
C816 C814 1.415 . S
C816 C821 1.425 . S
C816 C823 1.409 . S
C817 H809 0.930 . S
C817 C815 1.419 . S
C817 C818 1.362 . S
C818 H810 0.930 . S
C818 C817 1.362 . S
C818 C821 1.409 . S
C819 H811 0.924 1_655 S
C819 C820 1.355 . S
C819 C821 1.415 . S
C820 C819 1.355 . S
C820 C822 1.419 . S
C821 C816 1.425 . S
C821 C818 1.409 . S
C821 C819 1.415 . S
C822 H812 0.930 . S
C822 C820 1.419 . S
C822 C823 1.362 . S
C823 H813 0.930 . S
C823 C816 1.409 . S
C823 C822 1.362 . S
H824 C830 0.930 . S
H825 C833 0.930 . S
H826 C834 0.930 . S
H827 C835 0.930 . S
H828 C838 0.930 . S
H829 C839 0.930 . S
C830 H824 0.930 . S
C830 C831 1.355 . S
C830 C832 1.415 . S
C831 C830 1.355 . S
C831 C833 1.419 1_565 S
C832 C830 1.415 . S
C832 C837 1.425 1_565 S
C832 C839 1.409 . S
C833 H825 0.930 . S
C833 C831 1.419 1_545 S
C833 C834 1.362 . S
C834 H826 0.930 . S
C834 C833 1.362 . S
C834 C837 1.409 . S
C835 H827 0.930 . S
C835 C836 1.355 1_545 S
C835 C837 1.415 . S
C836 C835 1.355 1_565 S
C836 C838 1.419 . S
C837 C832 1.425 1_545 S
C837 C834 1.409 . S
C837 C835 1.415 . S
C838 H828 0.930 . S
C838 C836 1.419 . S
C838 C839 1.362 . S
C839 H829 0.930 . S
C839 C832 1.409 . S
C839 C838 1.362 . S
H840 C846 0.930 . S
H841 C849 0.930 . S
H842 C850 0.930 . S
H843 C851 0.930 . S
H844 C854 0.930 . S
H845 C855 0.930 . S
C846 H840 0.930 . S
C846 C847 1.355 . S
C846 C848 1.415 . S
C847 C846 1.355 . S
C847 C849 1.419 . S
C848 C846 1.415 . S
C848 C853 1.425 . S
C848 C855 1.409 . S
C849 H841 0.930 . S
C849 C847 1.419 . S
C849 C850 1.362 . S
C850 H842 0.930 . S
C850 C849 1.362 . S
C850 C853 1.409 . S
C851 H843 0.930 . S
C851 C852 1.355 . S
C851 C853 1.415 . S
C852 C851 1.355 . S
C852 C854 1.419 . S
C853 C848 1.425 . S
C853 C850 1.409 . S
C853 C851 1.415 . S
C854 H844 0.930 . S
C854 C852 1.419 . S
C854 C855 1.362 . S
C855 H845 0.930 . S
C855 C848 1.409 . S
C855 C854 1.362 . S
H856 C862 0.930 . S
H857 C865 0.930 . S
H858 C866 0.930 . S
H859 C867 0.930 . S
H860 C870 0.930 . S
H861 C871 0.930 . S
C862 H856 0.930 . S
C862 C863 1.355 . S
C862 C864 1.415 . S
C863 C862 1.355 . S
C863 C865 1.419 . S
C864 C862 1.415 . S
C864 C869 1.425 . S
C864 C871 1.409 . S
C865 H857 0.930 . S
C865 C863 1.419 . S
C865 C866 1.362 . S
C866 H858 0.930 . S
C866 C865 1.362 . S
C866 C869 1.409 . S
C867 H859 0.930 . S
C867 C868 1.355 . S
C867 C869 1.415 . S
C868 C867 1.355 . S
C868 C870 1.419 . S
C869 C864 1.425 . S
C869 C866 1.409 . S
C869 C867 1.415 . S
C870 H860 0.930 . S
C870 C868 1.419 . S
C870 C871 1.362 . S
C871 H861 0.930 . S
C871 C864 1.409 . S
C871 C870 1.362 . S
C495 C125 1.988 . S
C500 C215 2.078 . S
C516 C292 2.054 . S
C511 C144 1.985 . S
C532 C383 2.051 . S
C527 C87 1.995 . S
C548 C467 2.048 . S
C543 C106 1.976 . S
C564 C226 2.065 1_565 S
C559 C49 2.075 . S
C575 C68 2.077 . S
C580 C303 2.056 . S
C591 C11 2.049 . S
C596 C394 2.055 . S
C607 C30 2.064 . S
C612 C478 2.054 1_655 S
C628 C210 0.660 1_455 S
C623 C97 0.660 . S
C644 C305 0.737 . S
C639 C116 0.702 . S
C660 C378 0.729 . S
C655 C135 0.786 . S
C671 C78 0.644 . S
C676 C462 0.767 . S
C687 C21 0.753 . S
C692 C221 0.641 . S
C708 C294 0.614 . S
C703 C40 0.770 . S
C724 C389 0.632 . S
C719 C59 0.738 . S
C735 C2 0.627 . S
C740 C473 0.679 . S
C751 C101 1.998 . S
C756 C219 2.173 . S
C767 C120 1.959 . S
C772 C310 2.208 . S
C788 C387 2.161 . S
C783 C139 1.945 . S
C804 C471 2.165 . S
C799 C82 1.950 . S
C815 C25 1.936 . S
C820 C208 2.146 . S
C836 C299 2.208 1_565 S
C831 C44 1.978 . S
C852 C376 2.189 . S
C847 C63 2.014 . S
C863 C6 1.967 . S
C868 C460 2.172 . S
