# Generated by pormake.
# Topology cml, (3,6)-cn, num edge types: 1
# Building blocks:
#     Node 0, Type 0, BuildingBlock: MIDCAF_clean_linker_0, # of connection points: 3
#     Node 1, Type 0, BuildingBlock: MIDCAF_clean_linker_0, # of connection points: 3
#     Node 2, Type 0, BuildingBlock: MIDCAF_clean_linker_0, # of connection points: 3
#     Node 3, Type 0, BuildingBlock: MIDCAF_clean_linker_0, # of connection points: 3
#     Node 4, Type 0, BuildingBlock: MIDCAF_clean_linker_0, # of connection points: 3
#     Node 5, Type 0, BuildingBlock: MIDCAF_clean_linker_0, # of connection points: 3
#     Node 6, Type 0, BuildingBlock: MIDCAF_clean_linker_0, # of connection points: 3
#     Node 7, Type 0, BuildingBlock: MIDCAF_clean_linker_0, # of connection points: 3
#     Node 8, Type 1, BuildingBlock: IZENUY_clean_sbu_0, # of connection points: 6
#     Node 9, Type 1, BuildingBlock: IZENUY_clean_sbu_0, # of connection points: 6
#     Node 10, Type 1, BuildingBlock: IZENUY_clean_sbu_0, # of connection points: 6
#     Node 11, Type 1, BuildingBlock: IZENUY_clean_sbu_0, # of connection points: 6
#     Edge 12, Type (0, 1), BuildingBlock: ZUJKAS_clean_linker_0, # of connection points: 2
#     Edge 13, Type (0, 1), BuildingBlock: ZUJKAS_clean_linker_0, # of connection points: 2
#     Edge 14, Type (0, 1), BuildingBlock: ZUJKAS_clean_linker_0, # of connection points: 2
#     Edge 15, Type (0, 1), BuildingBlock: ZUJKAS_clean_linker_0, # of connection points: 2
#     Edge 16, Type (0, 1), BuildingBlock: ZUJKAS_clean_linker_0, # of connection points: 2
#     Edge 17, Type (0, 1), BuildingBlock: ZUJKAS_clean_linker_0, # of connection points: 2
#     Edge 18, Type (0, 1), BuildingBlock: ZUJKAS_clean_linker_0, # of connection points: 2
#     Edge 19, Type (0, 1), BuildingBlock: ZUJKAS_clean_linker_0, # of connection points: 2
#     Edge 20, Type (0, 1), BuildingBlock: ZUJKAS_clean_linker_0, # of connection points: 2
#     Edge 21, Type (0, 1), BuildingBlock: ZUJKAS_clean_linker_0, # of connection points: 2
#     Edge 22, Type (0, 1), BuildingBlock: ZUJKAS_clean_linker_0, # of connection points: 2
#     Edge 23, Type (0, 1), BuildingBlock: ZUJKAS_clean_linker_0, # of connection points: 2
#     Edge 24, Type (0, 1), BuildingBlock: ZUJKAS_clean_linker_0, # of connection points: 2
#     Edge 25, Type (0, 1), BuildingBlock: ZUJKAS_clean_linker_0, # of connection points: 2
#     Edge 26, Type (0, 1), BuildingBlock: ZUJKAS_clean_linker_0, # of connection points: 2
#     Edge 27, Type (0, 1), BuildingBlock: ZUJKAS_clean_linker_0, # of connection points: 2
#     Edge 28, Type (0, 1), BuildingBlock: ZUJKAS_clean_linker_0, # of connection points: 2
#     Edge 29, Type (0, 1), BuildingBlock: ZUJKAS_clean_linker_0, # of connection points: 2
#     Edge 30, Type (0, 1), BuildingBlock: ZUJKAS_clean_linker_0, # of connection points: 2
#     Edge 31, Type (0, 1), BuildingBlock: ZUJKAS_clean_linker_0, # of connection points: 2
#     Edge 32, Type (0, 1), BuildingBlock: ZUJKAS_clean_linker_0, # of connection points: 2
#     Edge 33, Type (0, 1), BuildingBlock: ZUJKAS_clean_linker_0, # of connection points: 2
#     Edge 34, Type (0, 1), BuildingBlock: ZUJKAS_clean_linker_0, # of connection points: 2
#     Edge 35, Type (0, 1), BuildingBlock: ZUJKAS_clean_linker_0, # of connection points: 2
# Relax obj value: 0.057
# Max RMSD: 0.072
# Mean RMSD: 0.069
data_MOF--net-cml--node1-IZENUY_clean_sbu_0--node2-MIDCAF_clean_linker_0--edge1-ZUJKAS_clean_linker_0
_symmetry_space_group_name_H-M    P1
_symmetry_Int_Tables_number       1
_symmetry_cell_setting            triclinic
loop_
_symmetry_equiv_pos_as_xyz
'x, y, z'
_cell_length_a     53.554939
_cell_length_b     62.266147
_cell_length_c     57.987377
_cell_angle_alpha  90.004168
_cell_angle_beta   90.001631
_cell_angle_gamma 90.152657
loop_
_atom_site_label
_atom_site_type_symbol
_atom_site_fract_x
_atom_site_fract_y
_atom_site_fract_z
_atom_type_partial_charge
C0 C 0.3254 0.38749 0.08555 0.0
C1 C 0.31586 0.37007 0.09823 0.0
C2 C 0.29633 0.35782 0.08869 0.0
C3 C 0.2867 0.36281 0.0669 0.0
H4 H 0.23656 0.3422 0.01741 0.0
H5 H 0.20703 0.31829 0.99837 0.0
H6 H 0.21485 0.35471 0.93535 0.0
H7 H 0.24387 0.37893 0.95445 0.0
H8 H 0.27381 0.42262 0.95503 0.0
H9 H 0.29154 0.45306 0.9342 0.0
H10 H 0.34259 0.4646 0.99058 0.0
H11 H 0.32459 0.43465 0.01162 0.0
H12 H 0.32381 0.40595 0.05459 0.0
H13 H 0.34074 0.39705 0.09216 0.0
H14 H 0.28837 0.34443 0.0981 0.0
H15 H 0.2717 0.353 0.06006 0.0
N16 N 0.26942 0.37248 0.02054 0.0
N17 N 0.27018 0.39435 0.98759 0.0
N18 N 0.29563 0.40264 0.01921 0.0
C19 C 0.26105 0.3769 0.99891 0.0
C20 C 0.28745 0.40734 0.99764 0.0
C21 C 0.28673 0.3853 0.03082 0.0
C22 C 0.24268 0.36253 0.9875 0.0
C23 C 0.23197 0.34518 0.99951 0.0
C24 C 0.21512 0.33137 0.98855 0.0
C25 C 0.20862 0.33453 0.96531 0.0
C26 C 0.21918 0.35196 0.95335 0.0
C27 C 0.23596 0.36581 0.96432 0.0
C28 C 0.29775 0.42611 0.98504 0.0
C29 C 0.28874 0.4317 0.96305 0.0
C30 C 0.29898 0.4491 0.95104 0.0
C31 C 0.31847 0.4613 0.96072 0.0
C32 C 0.32732 0.4558 0.98276 0.0
C33 C 0.31707 0.43848 0.99478 0.0
C34 C 0.29637 0.38018 0.05418 0.0
C35 C 0.31576 0.39251 0.06386 0.0
C36 C 0.69434 0.60409 0.59099 0.0
C37 C 0.6939 0.62549 0.59869 0.0
C38 C 0.70588 0.64134 0.58534 0.0
C39 C 0.7171 0.636 0.5643 0.0
H40 H 0.77088 0.65493 0.51474 0.0
H41 H 0.79851 0.67892 0.49349 0.0
H42 H 0.79217 0.63818 0.43345 0.0
H43 H 0.76506 0.61392 0.45475 0.0
H44 H 0.73673 0.56945 0.45808 0.0
H45 H 0.71746 0.53878 0.43864 0.0
H46 H 0.67136 0.52717 0.49844 0.0
H47 H 0.69029 0.55769 0.51786 0.0
H48 H 0.70479 0.5822 0.56439 0.0
H49 H 0.68588 0.59139 0.6011 0.0
H50 H 0.70577 0.658 0.59071 0.0
H51 H 0.72548 0.64866 0.55406 0.0
N52 N 0.74127 0.62263 0.52115 0.0
N53 N 0.74069 0.59923 0.48937 0.0
N54 N 0.71779 0.59085 0.52254 0.0
C55 C 0.74895 0.61767 0.49941 0.0
C56 C 0.72509 0.58572 0.50084 0.0
C57 C 0.72576 0.60918 0.53285 0.0
C58 C 0.76572 0.63241 0.48652 0.0
C59 C 0.77536 0.65104 0.49702 0.0
C60 C 0.7911 0.6649 0.48478 0.0
C61 C 0.79755 0.66049 0.46175 0.0
C62 C 0.78787 0.64191 0.45126 0.0
C63 C 0.77219 0.62803 0.46348 0.0
C64 C 0.71494 0.56622 0.48949 0.0
C65 C 0.72261 0.56029 0.46716 0.0
C66 C 0.71168 0.54266 0.45604 0.0
C67 C 0.69276 0.53074 0.46696 0.0
C68 C 0.68563 0.53628 0.48947 0.0
C69 C 0.69661 0.55376 0.50063 0.0
C70 C 0.71641 0.61473 0.55614 0.0
C71 C 0.70532 0.59881 0.56995 0.0
C72 C 0.67822 0.39276 0.07946 0.0
C73 C 0.68639 0.37492 0.09216 0.0
C74 C 0.70703 0.36319 0.08416 0.0
C75 C 0.71889 0.36893 0.06352 0.0
H76 H 0.76348 0.34428 0.01133 0.0
H77 H 0.79067 0.31919 0.99135 0.0
H78 H 0.80087 0.36512 0.9363 0.0
H79 H 0.77324 0.39009 0.95595 0.0
H80 H 0.73596 0.42987 0.95282 0.0
H81 H 0.71968 0.46149 0.93306 0.0
H82 H 0.68052 0.48004 0.99502 0.0
H83 H 0.69694 0.4488 0.01486 0.0
H84 H 0.68315 0.41239 0.04968 0.0
H85 H 0.66259 0.40229 0.08539 0.0
H86 H 0.71366 0.34932 0.09361 0.0
H87 H 0.73453 0.35941 0.05763 0.0
N88 N 0.73876 0.37917 0.01791 0.0
N89 N 0.7421 0.40304 0.9867 0.0
N90 N 0.71598 0.41123 0.01784 0.0
C91 C 0.74876 0.38429 0.99704 0.0
C92 C 0.72578 0.41664 0.99705 0.0
C93 C 0.72234 0.39259 0.02842 0.0
C94 C 0.76605 0.36925 0.98527 0.0
C95 C 0.77153 0.34911 0.99499 0.0
C96 C 0.78725 0.33472 0.98358 0.0
C97 C 0.79794 0.34012 0.9622 0.0
C98 C 0.79265 0.36032 0.95258 0.0
C99 C 0.7769 0.37471 0.96395 0.0
C100 C 0.71763 0.43664 0.9854 0.0
C101 C 0.72411 0.44081 0.96232 0.0
C102 C 0.7147 0.45888 0.95095 0.0
C103 C 0.69876 0.47324 0.96245 0.0
C104 C 0.69299 0.46945 0.98573 0.0
C105 C 0.70227 0.45138 0.99706 0.0
C106 C 0.7105 0.38668 0.05067 0.0
C107 C 0.69017 0.39862 0.05903 0.0
C108 C 0.31858 0.60707 0.58661 0.0
C109 C 0.31363 0.62718 0.59659 0.0
C110 C 0.29805 0.64161 0.58482 0.0
C111 C 0.28802 0.63621 0.56332 0.0
H112 H 0.23582 0.65495 0.51507 0.0
H113 H 0.20761 0.67949 0.49553 0.0
H114 H 0.21776 0.64443 0.43193 0.0
H115 H 0.24548 0.61951 0.45154 0.0
H116 H 0.27955 0.57874 0.45066 0.0
H117 H 0.29818 0.54878 0.42984 0.0
H118 H 0.33325 0.52707 0.49268 0.0
H119 H 0.3145 0.55681 0.51363 0.0
H120 H 0.31329 0.58622 0.55774 0.0
H121 H 0.33074 0.59569 0.59514 0.0
H122 H 0.29369 0.65714 0.59219 0.0
H123 H 0.27636 0.64785 0.55461 0.0
N124 N 0.26807 0.62447 0.51866 0.0
N125 N 0.26918 0.60268 0.4857 0.0
N126 N 0.29283 0.5935 0.51824 0.0
C127 C 0.26035 0.62033 0.49678 0.0
C128 C 0.28537 0.58914 0.49633 0.0
C129 C 0.28429 0.61114 0.52953 0.0
C130 C 0.24298 0.6352 0.48492 0.0
C131 C 0.23205 0.65241 0.49692 0.0
C132 C 0.21596 0.6666 0.48568 0.0
C133 C 0.21047 0.66399 0.46213 0.0
C134 C 0.22132 0.64675 0.45015 0.0
C135 C 0.23734 0.6325 0.4614 0.0
C136 C 0.2956 0.57031 0.48385 0.0
C137 C 0.29107 0.56752 0.46012 0.0
C138 C 0.30184 0.5504 0.44813 0.0
C139 C 0.31722 0.5356 0.4596 0.0
C140 C 0.32127 0.53808 0.4834 0.0
C141 C 0.31064 0.55525 0.49537 0.0
C142 C 0.29352 0.61631 0.55302 0.0
C143 C 0.3087 0.60171 0.56506 0.0
C144 C 0.82931 0.88808 0.07872 0.0
C145 C 0.82019 0.87078 0.09179 0.0
C146 C 0.79902 0.85957 0.08396 0.0
C147 C 0.78749 0.86534 0.06318 0.0
H148 H 0.74195 0.84132 0.01066 0.0
H149 H 0.7134 0.81715 0.99069 0.0
H150 H 0.70477 0.86378 0.93613 0.0
H151 H 0.73366 0.88778 0.95574 0.0
H152 H 0.77136 0.9268 0.95277 0.0
H153 H 0.78711 0.95891 0.93345 0.0
H154 H 0.82736 0.97665 0.99514 0.0
H155 H 0.81151 0.94485 0.01458 0.0
H156 H 0.8254 0.90736 0.04856 0.0
H157 H 0.84539 0.8972 0.0845 0.0
H158 H 0.79165 0.84612 0.09369 0.0
H159 H 0.77135 0.85627 0.05747 0.0
N160 N 0.76816 0.87565 0.01734 0.0
N161 N 0.7652 0.89979 0.98637 0.0
N162 N 0.79181 0.90736 0.01735 0.0
C163 C 0.75813 0.88108 0.99659 0.0
C164 C 0.78197 0.91306 0.99669 0.0
C165 C 0.78504 0.88874 0.02782 0.0
C166 C 0.74021 0.86653 0.98483 0.0
C167 C 0.73397 0.84647 0.99442 0.0
C168 C 0.71749 0.83263 0.98303 0.0
C169 C 0.70684 0.83851 0.96179 0.0
C170 C 0.71294 0.85861 0.95228 0.0
C171 C 0.72942 0.87244 0.96364 0.0
C172 C 0.79026 0.93313 0.98522 0.0
C173 C 0.78339 0.93763 0.96231 0.0
C174 C 0.79249 0.95598 0.95118 0.0
C175 C 0.80849 0.97029 0.96276 0.0
C176 C 0.81483 0.96608 0.98583 0.0
C177 C 0.80586 0.94772 0.99691 0.0
C178 C 0.79675 0.88261 0.05004 0.0
C179 C 0.8177 0.89397 0.05817 0.0
C180 C 0.17596 0.11232 0.58203 0.0
C181 C 0.18364 0.13087 0.59388 0.0
C182 C 0.20317 0.14332 0.58468 0.0
C183 C 0.21439 0.13758 0.56377 0.0
H184 H 0.26409 0.15891 0.51455 0.0
H185 H 0.29332 0.18305 0.49544 0.0
H186 H 0.29608 0.14036 0.4368 0.0
H187 H 0.26653 0.11636 0.45561 0.0
H188 H 0.23222 0.07546 0.45387 0.0
H189 H 0.2151 0.04463 0.43321 0.0
H190 H 0.16621 0.03121 0.49071 0.0
H191 H 0.18353 0.06157 0.51153 0.0
H192 H 0.18056 0.09222 0.55256 0.0
H193 H 0.16124 0.1022 0.58887 0.0
H194 H 0.2094 0.15777 0.59337 0.0
H195 H 0.22913 0.1477 0.55699 0.0
N196 N 0.23483 0.12626 0.51895 0.0
N197 N 0.23616 0.10331 0.48687 0.0
N198 N 0.20949 0.09555 0.51778 0.0
C199 C 0.24433 0.12129 0.49787 0.0
C200 C 0.21876 0.09033 0.49673 0.0
C201 C 0.21741 0.11343 0.52905 0.0
C202 C 0.26282 0.13567 0.48663 0.0
C203 C 0.27093 0.1546 0.4976 0.0
C204 C 0.28781 0.16842 0.4867 0.0
C205 C 0.29697 0.16366 0.46457 0.0
C206 C 0.28908 0.14465 0.4537 0.0
C207 C 0.27223 0.13082 0.46459 0.0
C208 C 0.20924 0.0711 0.48439 0.0
C209 C 0.21794 0.06585 0.46219 0.0
C210 C 0.20805 0.04824 0.45028 0.0
C211 C 0.1893 0.03545 0.4603 0.0
C212 C 0.18091 0.04051 0.48261 0.0
C213 C 0.19076 0.05807 0.4945 0.0
C214 C 0.20637 0.1192 0.55169 0.0
C215 C 0.18718 0.10654 0.56123 0.0
C216 C 0.18519 0.89077 0.08669 0.0
C217 C 0.19028 0.87064 0.09657 0.0
C218 C 0.20576 0.85626 0.08461 0.0
C219 C 0.21561 0.86175 0.06305 0.0
H220 H 0.26458 0.84159 0.01333 0.0
H221 H 0.29296 0.81738 0.99354 0.0
H222 H 0.29136 0.85832 0.93342 0.0
H223 H 0.26257 0.88241 0.95299 0.0
H224 H 0.22584 0.92195 0.95166 0.0
H225 H 0.2061 0.9515 0.93106 0.0
H226 H 0.16631 0.96919 0.99297 0.0
H227 H 0.18557 0.93953 0.01349 0.0
H228 H 0.19022 0.91174 0.0579 0.0
H229 H 0.1731 0.90211 0.09535 0.0
H230 H 0.21019 0.84071 0.09189 0.0
H231 H 0.22722 0.85016 0.0542 0.0
N232 N 0.23566 0.87405 0.01849 0.0
N233 N 0.23438 0.8962 0.98579 0.0
N234 N 0.21035 0.90468 0.0183 0.0
C235 C 0.24345 0.87853 0.9967 0.0
C236 C 0.21784 0.90938 0.99649 0.0
C237 C 0.21915 0.88707 0.02944 0.0
C238 C 0.26119 0.864 0.98478 0.0
C239 C 0.27024 0.84551 0.9959 0.0
C240 C 0.28666 0.83165 0.98459 0.0
C241 C 0.29443 0.83591 0.9619 0.0
C242 C 0.28548 0.85442 0.9508 0.0
C243 C 0.26907 0.86831 0.9621 0.0
C244 C 0.20718 0.92818 0.98423 0.0
C245 C 0.21299 0.93219 0.96095 0.0
C246 C 0.20177 0.94921 0.94914 0.0
C247 C 0.18448 0.9626 0.96032 0.0
C248 C 0.1792 0.95894 0.98373 0.0
C249 C 0.19038 0.94195 0.99553 0.0
C250 C 0.21002 0.88169 0.0529 0.0
C251 C 0.19489 0.89621 0.06511 0.0
C252 C 0.81254 0.10368 0.58927 0.0
C253 C 0.80881 0.12423 0.59864 0.0
C254 C 0.79477 0.13925 0.58606 0.0
C255 C 0.78493 0.13389 0.56444 0.0
H256 H 0.73608 0.15428 0.51328 0.0
H257 H 0.70892 0.17859 0.49213 0.0
H258 H 0.71399 0.13775 0.43209 0.0
H259 H 0.74068 0.11317 0.45329 0.0
H260 H 0.77143 0.0707 0.45513 0.0
H261 H 0.78916 0.03946 0.43589 0.0
H262 H 0.82848 0.02267 0.49836 0.0
H263 H 0.8105 0.05356 0.51776 0.0
H264 H 0.80644 0.08244 0.56093 0.0
H265 H 0.82356 0.09183 0.59836 0.0
H266 H 0.79142 0.15517 0.59292 0.0
H267 H 0.77442 0.14592 0.5551 0.0
N268 N 0.76475 0.12154 0.51969 0.0
N269 N 0.76497 0.09825 0.48787 0.0
N270 N 0.78765 0.08955 0.52108 0.0
C271 C 0.75707 0.11675 0.49792 0.0
C272 C 0.78024 0.08454 0.49935 0.0
C273 C 0.78002 0.10797 0.53141 0.0
C274 C 0.7406 0.13169 0.48506 0.0
C275 C 0.73144 0.15044 0.49557 0.0
C276 C 0.71596 0.16448 0.48339 0.0
C277 C 0.7093 0.16014 0.4604 0.0
C278 C 0.71849 0.14143 0.44987 0.0
C279 C 0.73392 0.12737 0.46204 0.0
C280 C 0.78965 0.0648 0.48799 0.0
C281 C 0.78368 0.06026 0.46486 0.0
C282 C 0.79392 0.0424 0.45377 0.0
C283 C 0.81031 0.02863 0.46556 0.0
C284 C 0.81569 0.0328 0.48885 0.0
C285 C 0.8055 0.05066 0.49993 0.0
C286 C 0.78911 0.11345 0.55487 0.0
C287 C 0.80285 0.09836 0.56767 0.0
Fe288 Fe 0.0025 0.81685 0.31958 0.0
Fe289 Fe 0.00305 0.84071 0.36589 0.0
O290 O 0.00218 0.84122 0.33539 0.0
Fe291 Fe 0.00097 0.86609 0.32067 0.0
O292 O 0.9715 0.85907 0.30729 0.0
O293 O 0.98311 0.827 0.29578 0.0
O294 O 0.97387 0.80774 0.33318 0.0
C295 C 0.97084 0.80604 0.35468 0.0
C296 C 0.03383 0.84127 0.29319 0.0
O297 O 0.9854 0.81554 0.36858 0.0
C298 C 0.03467 0.87572 0.35449 0.0
O299 O 0.02192 0.80227 0.34049 0.0
O300 O 0.03268 0.82678 0.36588 0.0
O301 O 0.01887 0.85684 0.29559 0.0
O302 O 0.03119 0.82436 0.30492 0.0
C303 C 0.96903 0.87265 0.35897 0.0
O304 O 0.0209 0.86578 0.36871 0.0
O305 O 0.03037 0.87478 0.33313 0.0
C306 C 0.03648 0.80899 0.35616 0.0
O307 O 0.97344 0.85464 0.36799 0.0
O308 O 0.98284 0.87991 0.34303 0.0
C309 C 0.96816 0.84273 0.29482 0.0
Fe310 Fe 0.00148 0.15903 0.8658 0.0
Fe311 Fe 0.99946 0.13366 0.82064 0.0
O312 O 0.00045 0.15855 0.83532 0.0
Fe313 Fe 0.00035 0.18295 0.81958 0.0
O314 O 0.01989 0.19766 0.84048 0.0
O315 O 0.03111 0.17303 0.86554 0.0
O316 O 0.01925 0.13396 0.86863 0.0
C317 C 0.03309 0.12414 0.85442 0.0
C318 C 0.96899 0.1934 0.85493 0.0
O319 O 0.02894 0.12531 0.83307 0.0
C320 C 0.96624 0.15659 0.79487 0.0
O321 O 0.97189 0.14506 0.86791 0.0
O322 O 0.98132 0.11973 0.84305 0.0
O323 O 0.9717 0.19162 0.8334 0.0
O324 O 0.98392 0.18418 0.86865 0.0
C325 C 0.03203 0.15895 0.79317 0.0
O326 O 0.96998 0.1403 0.80727 0.0
O327 O 0.98085 0.17263 0.79583 0.0
C328 C 0.96743 0.12702 0.8589 0.0
O329 O 0.01736 0.1431 0.79557 0.0
O330 O 0.02897 0.17589 0.80474 0.0
C331 C 0.03474 0.1909 0.85589 0.0
Fe332 Fe 0.50408 0.3166 0.32001 0.0
Fe333 Fe 0.50457 0.34059 0.36624 0.0
O334 O 0.50438 0.34102 0.33573 0.0
Fe335 Fe 0.50457 0.36592 0.32102 0.0
O336 O 0.4859 0.35635 0.29652 0.0
O337 O 0.47491 0.32348 0.30599 0.0
O338 O 0.48538 0.30186 0.34148 0.0
C339 C 0.47114 0.30852 0.35742 0.0
C340 C 0.53707 0.34314 0.29429 0.0
O341 O 0.47509 0.32636 0.36706 0.0
C342 C 0.53792 0.3729 0.35823 0.0
O343 O 0.53326 0.30801 0.33296 0.0
O344 O 0.52242 0.31561 0.36855 0.0
O345 O 0.53365 0.35948 0.30673 0.0
O346 O 0.52263 0.32703 0.29572 0.0
C347 C 0.47219 0.37522 0.35587 0.0
O348 O 0.53415 0.35477 0.36728 0.0
O349 O 0.5233 0.38004 0.34287 0.0
C350 C 0.53684 0.30639 0.35439 0.0
O351 O 0.48672 0.36556 0.36961 0.0
O352 O 0.47546 0.37401 0.33439 0.0
C353 C 0.47132 0.34041 0.29452 0.0
Fe354 Fe 0.50098 0.65856 0.86575 0.0
Fe355 Fe 0.50325 0.63315 0.82052 0.0
O356 O 0.50193 0.65805 0.83523 0.0
Fe357 Fe 0.50161 0.68243 0.81943 0.0
O358 O 0.5301 0.69165 0.83323 0.0
O359 O 0.51838 0.68383 0.86855 0.0
O360 O 0.5307 0.64478 0.86787 0.0
C361 C 0.53527 0.62681 0.85878 0.0
C362 C 0.46732 0.69009 0.85586 0.0
O363 O 0.52146 0.61947 0.84289 0.0
C364 C 0.47048 0.6579 0.79286 0.0
O365 O 0.48335 0.63339 0.86855 0.0
O366 O 0.47388 0.62436 0.83299 0.0
O367 O 0.48188 0.69686 0.84022 0.0
O368 O 0.47125 0.67236 0.86569 0.0
C369 C 0.53619 0.65665 0.79483 0.0
O370 O 0.48536 0.64231 0.79543 0.0
O371 O 0.4731 0.67486 0.80452 0.0
C372 C 0.46967 0.62333 0.85435 0.0
O373 O 0.53266 0.6402 0.80708 0.0
O374 O 0.52132 0.67242 0.79581 0.0
C375 C 0.53297 0.69338 0.85474 0.0
H376 H 0.17145 0.34446 0.9346 0.0
H377 H 0.143 0.3197 0.91491 0.0
H378 H 0.17741 0.26619 0.94963 0.0
H379 H 0.20626 0.29073 0.96908 0.0
H380 H 0.15596 0.28328 0.88586 0.0
H381 H 0.10146 0.26015 0.96364 0.0
H382 H 0.1209 0.28388 0.96268 0.0
H383 H 0.13479 0.25788 0.96629 0.0
C384 C 0.17312 0.32741 0.93793 0.0
C385 C 0.19109 0.31959 0.9535 0.0
C386 C 0.15678 0.31332 0.92674 0.0
C387 C 0.15797 0.29119 0.93104 0.0
C388 C 0.17595 0.28328 0.9464 0.0
H389 H 0.07143 0.18103 0.88689 0.0
H390 H 0.10246 0.20525 0.90364 0.0
C391 C 0.19235 0.29733 0.95755 0.0
C392 C 0.14051 0.27634 0.91932 0.0
H393 H 0.09279 0.24115 0.92926 0.0
C394 C 0.14207 0.27409 0.89528 0.0
C395 C 0.12252 0.26439 0.93174 0.0
C396 C 0.11957 0.26674 0.95749 0.0
C397 C 0.12633 0.25986 0.88333 0.0
C398 C 0.10826 0.24795 0.89575 0.0
C399 C 0.10671 0.25026 0.91979 0.0
C400 C 0.09056 0.23308 0.88424 0.0
C401 C 0.12959 0.25735 0.85763 0.0
C402 C 0.07364 0.24068 0.86768 0.0
C403 C 0.05593 0.22685 0.85796 0.0
C404 C 0.05462 0.20522 0.86486 0.0
C405 C 0.07185 0.19761 0.88124 0.0
C406 C 0.0896 0.21142 0.89084 0.0
H407 H 0.14837 0.26279 0.85189 0.0
H408 H 0.12691 0.24038 0.85226 0.0
H409 H 0.11547 0.2673 0.84861 0.0
H410 H 0.0737 0.25744 0.86269 0.0
H411 H 0.04287 0.23327 0.84549 0.0
H412 H 0.79816 0.70452 0.4621 0.0
H413 H 0.82668 0.72846 0.44145 0.0
H414 H 0.86309 0.67371 0.41089 0.0
H415 H 0.83529 0.64962 0.43214 0.0
H416 H 0.89621 0.7027 0.42861 0.0
H417 H 0.82708 0.74418 0.37329 0.0
H418 H 0.81947 0.74521 0.40342 0.0
H419 H 0.81988 0.71976 0.38875 0.0
C420 C 0.8123 0.69755 0.45106 0.0
C421 C 0.81441 0.67514 0.44875 0.0
C422 C 0.82836 0.71127 0.43902 0.0
C423 C 0.8467 0.70287 0.4243 0.0
C424 C 0.8489 0.68053 0.42199 0.0
H425 H 0.93952 0.7791 0.33065 0.0
H426 H 0.9094 0.75339 0.34661 0.0
C427 C 0.83289 0.66679 0.43404 0.0
C428 C 0.86442 0.71734 0.41225 0.0
H429 H 0.86778 0.75995 0.37527 0.0
C430 C 0.89001 0.71511 0.41681 0.0
C431 C 0.85632 0.73331 0.39661 0.0
C432 C 0.82921 0.73567 0.39001 0.0
C433 C 0.90768 0.72884 0.40669 0.0
C434 C 0.89947 0.74549 0.39196 0.0
C435 C 0.87397 0.74731 0.38679 0.0
C436 C 0.91709 0.76145 0.38221 0.0
C437 C 0.935 0.72533 0.4118 0.0
C438 C 0.93092 0.77479 0.39693 0.0
C439 C 0.94813 0.78941 0.38793 0.0
C440 C 0.95175 0.79111 0.36396 0.0
C441 C 0.93731 0.77813 0.34919 0.0
C442 C 0.92008 0.76345 0.35826 0.0
H443 H 0.93862 0.70869 0.41784 0.0
H444 H 0.94666 0.72849 0.39633 0.0
H445 H 0.94096 0.73652 0.42566 0.0
H446 H 0.92846 0.77385 0.41545 0.0
H447 H 0.9587 0.79931 0.39982 0.0
H448 H 0.79938 0.33124 0.9159 0.0
H449 H 0.82655 0.30577 0.89587 0.0
H450 H 0.86073 0.28855 0.96057 0.0
H451 H 0.83394 0.31415 0.98071 0.0
H452 H 0.87965 0.30472 0.89509 0.0
H453 H 0.83938 0.23035 0.9327 0.0
H454 H 0.82354 0.2559 0.93378 0.0
H455 H 0.84842 0.25017 0.95364 0.0
C456 C 0.8128 0.32215 0.92587 0.0
C457 C 0.81442 0.32468 0.94995 0.0
C458 C 0.82819 0.30752 0.9144 0.0
C459 C 0.84534 0.29506 0.9268 0.0
C460 C 0.84721 0.29769 0.95076 0.0
H461 H 0.96022 0.20294 0.90016 0.0
H462 H 0.92938 0.22766 0.91591 0.0
C463 C 0.83187 0.31232 0.96224 0.0
C464 C 0.86176 0.27966 0.91465 0.0
H465 H 0.8776 0.22666 0.91217 0.0
C466 C 0.87908 0.28762 0.89862 0.0
C467 C 0.86088 0.25738 0.91931 0.0
C468 C 0.84191 0.24786 0.93564 0.0
C469 C 0.89625 0.27395 0.88772 0.0
C470 C 0.89569 0.25171 0.89272 0.0
C471 C 0.878 0.24372 0.9084 0.0
C472 C 0.91408 0.23659 0.88275 0.0
C473 C 0.91543 0.28354 0.87164 0.0
C474 C 0.91549 0.23318 0.85886 0.0
C475 C 0.93322 0.21907 0.84972 0.0
C476 C 0.94975 0.20803 0.86437 0.0
C477 C 0.9479 0.21122 0.88834 0.0
C478 C 0.93024 0.22533 0.89741 0.0
H479 H 0.91694 0.30123 0.8737 0.0
H480 H 0.9341 0.27634 0.87464 0.0
H481 H 0.90994 0.28014 0.85355 0.0
H482 H 0.90283 0.24138 0.84728 0.0
H483 H 0.93399 0.21684 0.83121 0.0
H484 H 0.17449 0.65475 0.42999 0.0
H485 H 0.14681 0.67986 0.41017 0.0
H486 H 0.17943 0.73253 0.44805 0.0
H487 H 0.20791 0.70769 0.46722 0.0
H488 H 0.11168 0.70639 0.42909 0.0
H489 H 0.18277 0.75441 0.38218 0.0
H490 H 0.18988 0.72897 0.39554 0.0
H491 H 0.18813 0.75299 0.41269 0.0
C492 C 0.17609 0.67172 0.43383 0.0
C493 C 0.19353 0.67921 0.45012 0.0
C494 C 0.16013 0.68603 0.4226 0.0
C495 C 0.16134 0.7081 0.42736 0.0
C496 C 0.17855 0.71562 0.44374 0.0
H497 H 0.07179 0.81804 0.38898 0.0
H498 H 0.10247 0.79342 0.40559 0.0
C499 C 0.19458 0.70135 0.45492 0.0
C500 C 0.14389 0.72311 0.41587 0.0
H501 H 0.14127 0.7681 0.38224 0.0
C502 C 0.11814 0.71979 0.41872 0.0
C503 C 0.1524 0.7406 0.40237 0.0
C504 C 0.1798 0.74438 0.3978 0.0
C505 C 0.10065 0.73372 0.40876 0.0
C506 C 0.10917 0.75127 0.39543 0.0
C507 C 0.13488 0.75461 0.39253 0.0
C508 C 0.09154 0.76637 0.38445 0.0
C509 C 0.0732 0.72984 0.41296 0.0
C510 C 0.07569 0.75938 0.36673 0.0
C511 C 0.05818 0.77337 0.35715 0.0
C512 C 0.05621 0.79463 0.36518 0.0
C513 C 0.07268 0.80174 0.3825 0.0
C514 C 0.09025 0.78773 0.392 0.0
H515 H 0.06995 0.71842 0.42738 0.0
H516 H 0.06349 0.74515 0.41689 0.0
H517 H 0.06466 0.72295 0.39715 0.0
H518 H 0.07669 0.74301 0.36047 0.0
H519 H 0.04591 0.76739 0.34376 0.0
H520 H 0.70466 0.82984 0.91551 0.0
H521 H 0.6753 0.80618 0.8954 0.0
H522 H 0.641 0.78958 0.9603 0.0
H523 H 0.66967 0.81374 0.98046 0.0
H524 H 0.66759 0.76216 0.90091 0.0
H525 H 0.58152 0.80787 0.92084 0.0
H526 H 0.61238 0.81906 0.92463 0.0
H527 H 0.59954 0.80116 0.94592 0.0
C528 C 0.69066 0.82137 0.92548 0.0
C529 C 0.68939 0.8238 0.94958 0.0
C530 C 0.67403 0.80775 0.91398 0.0
C531 C 0.65575 0.79641 0.92633 0.0
C532 C 0.65467 0.79851 0.9504 0.0
H533 H 0.54195 0.70278 0.89996 0.0
H534 H 0.57258 0.72786 0.91567 0.0
C535 C 0.67126 0.81213 0.96192 0.0
C536 C 0.63804 0.78206 0.91412 0.0
H537 H 0.57593 0.7727 0.90545 0.0
C538 C 0.64755 0.76455 0.90169 0.0
C539 C 0.61194 0.78532 0.91511 0.0
C540 C 0.6007 0.80449 0.92715 0.0
C541 C 0.63156 0.74972 0.89091 0.0
C542 C 0.60545 0.7527 0.89241 0.0
C543 C 0.59598 0.77045 0.90443 0.0
C544 C 0.58753 0.73712 0.88249 0.0
C545 C 0.64263 0.73061 0.87865 0.0
C546 C 0.58578 0.73408 0.85856 0.0
C547 C 0.56821 0.71972 0.84944 0.0
C548 C 0.55206 0.70826 0.86413 0.0
C549 C 0.55404 0.71134 0.88811 0.0
C550 C 0.57153 0.72568 0.89716 0.0
H551 H 0.66271 0.72844 0.88285 0.0
H552 H 0.63238 0.71568 0.88327 0.0
H553 H 0.64092 0.73294 0.85975 0.0
H554 H 0.59777 0.74301 0.84694 0.0
H555 H 0.56717 0.71775 0.8309 0.0
H556 H 0.29662 0.17603 0.4193 0.0
H557 H 0.32579 0.20028 0.3998 0.0
H558 H 0.36551 0.20983 0.46368 0.0
H559 H 0.33687 0.18512 0.4832 0.0
H560 H 0.33619 0.24357 0.40971 0.0
H561 H 0.4207 0.19269 0.41798 0.0
H562 H 0.38954 0.18239 0.42255 0.0
H563 H 0.40482 0.19772 0.44472 0.0
C564 C 0.31176 0.18308 0.42914 0.0
C565 C 0.31453 0.17854 0.45277 0.0
C566 C 0.32828 0.19704 0.41801 0.0
C567 C 0.34797 0.20661 0.43024 0.0
C568 C 0.35066 0.20232 0.45386 0.0
H569 H 0.43872 0.3164 0.39296 0.0
H570 H 0.40794 0.29181 0.40949 0.0
C571 C 0.33413 0.18838 0.46503 0.0
C572 C 0.36547 0.22134 0.41834 0.0
H573 H 0.42692 0.22838 0.40464 0.0
C574 C 0.35602 0.24024 0.40851 0.0
C575 C 0.39125 0.21677 0.41655 0.0
C576 C 0.40222 0.1962 0.42581 0.0
C577 C 0.37179 0.25496 0.39732 0.0
C578 C 0.3977 0.25074 0.39624 0.0
C579 C 0.40706 0.23163 0.40566 0.0
C580 C 0.41552 0.26599 0.38554 0.0
C581 C 0.36056 0.27476 0.38653 0.0
C582 C 0.43019 0.25952 0.36677 0.0
C583 C 0.44792 0.27348 0.35733 0.0
C584 C 0.45144 0.29414 0.36664 0.0
C585 C 0.43649 0.30063 0.38533 0.0
C586 C 0.41876 0.28665 0.39473 0.0
H587 H 0.34019 0.27282 0.38351 0.0
H588 H 0.36328 0.28861 0.39831 0.0
H589 H 0.36977 0.27859 0.36987 0.0
H590 H 0.42801 0.2436 0.35949 0.0
H591 H 0.45909 0.26794 0.34295 0.0
H592 H 0.3357 0.81591 0.97952 0.0
H593 H 0.3638 0.79105 0.95981 0.0
H594 H 0.32089 0.79775 0.89731 0.0
H595 H 0.29222 0.82215 0.91709 0.0
H596 H 0.33249 0.75504 0.9083 0.0
H597 H 0.41654 0.80728 0.91148 0.0
H598 H 0.40209 0.80295 0.93905 0.0
H599 H 0.38548 0.81728 0.91695 0.0
C600 C 0.33214 0.812 0.96162 0.0
C601 C 0.31175 0.82106 0.94985 0.0
C602 C 0.34837 0.79797 0.95032 0.0
C603 C 0.34462 0.79283 0.92702 0.0
C604 C 0.32419 0.80165 0.91526 0.0
H605 H 0.45426 0.72984 0.83986 0.0
H606 H 0.42308 0.75425 0.85581 0.0
C607 C 0.30795 0.8157 0.92654 0.0
C608 C 0.3618 0.77794 0.91504 0.0
H609 H 0.42282 0.77108 0.89985 0.0
C610 C 0.35222 0.75856 0.90633 0.0
C611 C 0.38744 0.78273 0.91225 0.0
C612 C 0.39852 0.80378 0.92022 0.0
C613 C 0.36776 0.74359 0.89534 0.0
C614 C 0.39358 0.74804 0.89333 0.0
C615 C 0.40304 0.76763 0.90158 0.0
C616 C 0.41125 0.73258 0.88286 0.0
C617 C 0.35637 0.72327 0.88578 0.0
C618 C 0.41487 0.71226 0.89276 0.0
C619 C 0.43266 0.69822 0.88367 0.0
C620 C 0.44732 0.70433 0.86462 0.0
C621 C 0.44336 0.72461 0.85456 0.0
C622 C 0.42555 0.73861 0.86365 0.0
H623 H 0.33593 0.72495 0.88309 0.0
H624 H 0.36519 0.71878 0.86913 0.0
H625 H 0.35942 0.70996 0.89818 0.0
H626 H 0.40437 0.70746 0.90787 0.0
H627 H 0.43526 0.68277 0.89189 0.0
H628 H 0.70982 0.20415 0.46058 0.0
H629 H 0.68134 0.22845 0.4405 0.0
H630 H 0.64334 0.17418 0.4103 0.0
H631 H 0.67114 0.14973 0.43093 0.0
H632 H 0.67146 0.23333 0.39318 0.0
H633 H 0.58699 0.20769 0.44164 0.0
H634 H 0.61819 0.2009 0.4508 0.0
H635 H 0.60356 0.18626 0.42773 0.0
C636 C 0.69526 0.19736 0.44984 0.0
C637 C 0.69263 0.17498 0.44753 0.0
C638 C 0.67915 0.21128 0.43823 0.0
C639 C 0.66006 0.2031 0.42416 0.0
C640 C 0.65772 0.1808 0.42136 0.0
H641 H 0.56697 0.27871 0.33012 0.0
H642 H 0.59771 0.25356 0.34586 0.0
C643 C 0.67379 0.16687 0.43299 0.0
C644 C 0.64234 0.21792 0.41277 0.0
H645 H 0.58086 0.23208 0.41095 0.0
C646 C 0.65163 0.23307 0.39699 0.0
C647 C 0.61655 0.21764 0.41801 0.0
C648 C 0.60568 0.2024 0.43561 0.0
C649 C 0.63576 0.24798 0.38628 0.0
C650 C 0.60993 0.24748 0.39129 0.0
C651 C 0.60067 0.2323 0.40703 0.0
C652 C 0.59222 0.26321 0.38136 0.0
C653 C 0.64686 0.2645 0.37021 0.0
C654 C 0.5788 0.27678 0.3961 0.0
C655 C 0.56115 0.29098 0.38723 0.0
C656 C 0.55645 0.29188 0.36338 0.0
C657 C 0.57018 0.27846 0.34856 0.0
C658 C 0.58784 0.26416 0.3575 0.0
H659 H 0.66743 0.26581 0.37226 0.0
H660 H 0.64288 0.25979 0.35212 0.0
H661 H 0.63845 0.28054 0.37324 0.0
H662 H 0.5819 0.27629 0.41456 0.0
H663 H 0.55105 0.30115 0.39916 0.0
H664 H 0.3336 0.50033 0.97748 0.0
H665 H 0.35614 0.52863 0.95691 0.0
H666 H 0.352 0.49174 0.89412 0.0
H667 H 0.3299 0.46306 0.91464 0.0
H668 H 0.40319 0.52044 0.93285 0.0
H669 H 0.32943 0.55413 0.8758 0.0
H670 H 0.3222 0.53932 0.90177 0.0
H671 H 0.33254 0.52535 0.87647 0.0
C672 C 0.33744 0.49821 0.95929 0.0
C673 C 0.33008 0.47935 0.94775 0.0
C674 C 0.35015 0.51447 0.94754 0.0
C675 C 0.35552 0.51231 0.924 0.0
C676 C 0.34764 0.49383 0.91222 0.0
H677 H 0.44422 0.59189 0.83074 0.0
H678 H 0.41576 0.56489 0.84688 0.0
C679 C 0.335 0.47748 0.92399 0.0
C680 C 0.37113 0.52863 0.91233 0.0
H681 H 0.37034 0.56788 0.87121 0.0
C682 C 0.39603 0.53085 0.9194 0.0
C683 C 0.36173 0.54194 0.89462 0.0
C684 C 0.33497 0.54027 0.88671 0.0
C685 C 0.41187 0.54608 0.90924 0.0
C686 C 0.40234 0.55984 0.89194 0.0
C687 C 0.37752 0.55738 0.88456 0.0
C688 C 0.41787 0.57712 0.88175 0.0
C689 C 0.4388 0.54707 0.9169 0.0
C690 C 0.4278 0.5933 0.89588 0.0
C691 C 0.44414 0.60859 0.8868 0.0
C692 C 0.45066 0.60817 0.86331 0.0
C693 C 0.43969 0.59258 0.84892 0.0
C694 C 0.42342 0.57716 0.8581 0.0
H695 H 0.44478 0.53181 0.92512 0.0
H696 H 0.4514 0.55052 0.90214 0.0
H697 H 0.44103 0.56011 0.92979 0.0
H698 H 0.42326 0.59386 0.91408 0.0
H699 H 0.45194 0.62057 0.8983 0.0
H700 H 0.71323 0.49814 0.44144 0.0
H701 H 0.69107 0.46876 0.42191 0.0
H702 H 0.62072 0.49457 0.44509 0.0
H703 H 0.64269 0.52364 0.46481 0.0
H704 H 0.6239 0.45164 0.45231 0.0
H705 H 0.65126 0.47153 0.36234 0.0
H706 H 0.67686 0.46756 0.38188 0.0
H707 H 0.65609 0.48985 0.38604 0.0
C708 C 0.69303 0.49758 0.44218 0.0
C709 C 0.67968 0.51311 0.45469 0.0
C710 C 0.6804 0.48085 0.43099 0.0
C711 C 0.65423 0.47962 0.43184 0.0
C712 C 0.64092 0.49519 0.44425 0.0
H713 H 0.5453 0.4155 0.34925 0.0
H714 H 0.5758 0.43956 0.36693 0.0
C715 C 0.6535 0.51175 0.45556 0.0
C716 C 0.64041 0.46197 0.42033 0.0
H717 H 0.62679 0.44033 0.36769 0.0
C718 C 0.62462 0.44906 0.43382 0.0
C719 C 0.64129 0.45879 0.39618 0.0
C720 C 0.6571 0.47276 0.38068 0.0
C721 C 0.60921 0.43339 0.42381 0.0
C722 C 0.61012 0.43014 0.39967 0.0
C723 C 0.6263 0.44274 0.38621 0.0
C724 C 0.593 0.41495 0.3879 0.0
C725 C 0.59131 0.42114 0.43908 0.0
C726 C 0.59292 0.393 0.39343 0.0
C727 C 0.57528 0.3792 0.38353 0.0
C728 C 0.55764 0.38709 0.36769 0.0
C729 C 0.55852 0.40891 0.36146 0.0
C730 C 0.576 0.42269 0.37151 0.0
H731 H 0.58879 0.42908 0.45608 0.0
H732 H 0.57274 0.41951 0.43073 0.0
H733 H 0.59877 0.4048 0.44222 0.0
H734 H 0.60627 0.3866 0.40564 0.0
H735 H 0.57532 0.36242 0.38846 0.0
H736 H 0.67812 0.47262 0.91939 0.0
H737 H 0.65431 0.50111 0.90054 0.0
H738 H 0.66734 0.54277 0.95874 0.0
H739 H 0.6917 0.51451 0.97752 0.0
H740 H 0.61076 0.51875 0.92069 0.0
H741 H 0.68182 0.58174 0.90249 0.0
H742 H 0.69002 0.5541 0.90805 0.0
H743 H 0.68159 0.57149 0.93147 0.0
C744 C 0.6765 0.48803 0.92793 0.0
C745 C 0.68679 0.49131 0.94996 0.0
C746 C 0.66276 0.50424 0.91719 0.0
C747 C 0.65925 0.52408 0.92817 0.0
C748 C 0.67016 0.52768 0.94982 0.0
H749 H 0.56388 0.63367 0.89745 0.0
H750 H 0.59472 0.60924 0.91434 0.0
C751 C 0.68385 0.51145 0.96062 0.0
C752 C 0.64224 0.54016 0.91793 0.0
H753 H 0.63941 0.5911 0.89626 0.0
C754 C 0.61704 0.53453 0.91524 0.0
C755 C 0.65048 0.5608 0.91112 0.0
C756 C 0.67749 0.56743 0.91322 0.0
C757 C 0.59975 0.54903 0.90601 0.0
C758 C 0.60802 0.56956 0.89881 0.0
C759 C 0.63318 0.57532 0.90174 0.0
C760 C 0.59074 0.58502 0.88784 0.0
C761 C 0.57268 0.54235 0.90442 0.0
C762 C 0.57886 0.5797 0.86706 0.0
C763 C 0.5612 0.59349 0.85746 0.0
C764 C 0.55521 0.613 0.86836 0.0
C765 C 0.56794 0.61871 0.88871 0.0
C766 C 0.58558 0.60481 0.89836 0.0
H767 H 0.56834 0.52878 0.91621 0.0
H768 H 0.56012 0.55597 0.90862 0.0
H769 H 0.56856 0.53704 0.88655 0.0
H770 H 0.583 0.5647 0.85842 0.0
H771 H 0.55204 0.58871 0.84161 0.0
H772 H 0.32232 0.49346 0.47217 0.0
H773 H 0.34612 0.46547 0.45222 0.0
H774 H 0.36435 0.51022 0.39801 0.0
H775 H 0.34091 0.53837 0.41796 0.0
H776 H 0.34173 0.44964 0.40341 0.0
H777 H 0.43267 0.48798 0.4256 0.0
H778 H 0.40413 0.49412 0.4408 0.0
H779 H 0.40948 0.50496 0.41256 0.0
C780 C 0.33136 0.49732 0.45598 0.0
C781 C 0.32988 0.51815 0.4467 0.0
C782 C 0.34478 0.4813 0.44455 0.0
C783 C 0.35709 0.48589 0.42378 0.0
C784 C 0.35506 0.50645 0.41411 0.0
H785 H 0.43733 0.39872 0.33209 0.0
H786 H 0.40792 0.425 0.34787 0.0
C787 C 0.34154 0.52244 0.42545 0.0
C788 C 0.37308 0.46947 0.41285 0.0
H789 H 0.43403 0.45684 0.40255 0.0
C790 C 0.3619 0.45119 0.40311 0.0
C791 C 0.39937 0.47155 0.41273 0.0
C792 C 0.41227 0.4906 0.4236 0.0
C793 C 0.37643 0.43491 0.3931 0.0
C794 C 0.40271 0.43707 0.39288 0.0
C795 C 0.41385 0.45533 0.40267 0.0
C796 C 0.41918 0.42025 0.38332 0.0
C797 C 0.36372 0.41529 0.38329 0.0
C798 C 0.43521 0.40897 0.39806 0.0
C799 C 0.45198 0.39399 0.38916 0.0
C800 C 0.45325 0.39016 0.36527 0.0
C801 C 0.43687 0.4013 0.35056 0.0
C802 C 0.41997 0.41623 0.35953 0.0
H803 H 0.34371 0.41441 0.38826 0.0
H804 H 0.36488 0.41577 0.36418 0.0
H805 H 0.37324 0.40046 0.38921 0.0
H806 H 0.43489 0.41192 0.41647 0.0
H807 H 0.46428 0.38571 0.40101 0.0
H808 H 0.81422 0.01133 0.97886 0.0
H809 H 0.83637 0.04107 0.96021 0.0
H810 H 0.85063 0.00102 0.90099 0.0
H811 H 0.82849 0.9713 0.91946 0.0
H812 H 0.88549 0.04051 0.94801 0.0
H813 H 0.82734 0.05627 0.87087 0.0
H814 H 0.81622 0.04066 0.89505 0.0
H815 H 0.83602 0.02857 0.87362 0.0
C816 C 0.82187 0.00895 0.96177 0.0
C817 C 0.81962 0.98898 0.95062 0.0
C818 C 0.83441 0.02596 0.95111 0.0
C819 C 0.84485 0.02335 0.92909 0.0
C820 C 0.84217 0.00358 0.91772 0.0
H821 H 0.95265 0.0873 0.84404 0.0
H822 H 0.92133 0.0637 0.86138 0.0
C823 C 0.82954 0.98658 0.92833 0.0
C824 C 0.86049 0.04058 0.91892 0.0
H825 H 0.86874 0.07105 0.87054 0.0
C826 C 0.88164 0.04742 0.93122 0.0
C827 C 0.85545 0.04949 0.89697 0.0
C828 C 0.83239 0.04353 0.88345 0.0
C829 C 0.89839 0.06239 0.92182 0.0
C830 C 0.89365 0.07093 0.89967 0.0
C831 C 0.87228 0.06442 0.88752 0.0
C832 C 0.91134 0.08593 0.88848 0.0
C833 C 0.9215 0.06837 0.9353 0.0
C834 C 0.91567 0.10641 0.89775 0.0
C835 C 0.93359 0.11996 0.88792 0.0
C836 C 0.94747 0.11323 0.86862 0.0
C837 C 0.94247 0.09293 0.85899 0.0
C838 C 0.92452 0.07944 0.86881 0.0
H839 H 0.92484 0.05725 0.94995 0.0
H840 H 0.93821 0.06833 0.92396 0.0
H841 H 0.9193 0.08482 0.94236 0.0
H842 H 0.90539 0.1118 0.91275 0.0
H843 H 0.93681 0.13555 0.89566 0.0
H844 H 0.17602 0.03426 0.41465 0.0
H845 H 0.15326 0.0057 0.39448 0.0
H846 H 0.15309 0.96755 0.4565 0.0
H847 H 0.17625 0.99575 0.4767 0.0
H848 H 0.16438 0.95801 0.39002 0.0
H849 H 0.07758 0.97846 0.43786 0.0
H850 H 0.10359 0.99685 0.43539 0.0
H851 H 0.10515 0.97465 0.45508 0.0
C852 C 0.1716 0.01961 0.42388 0.0
C853 C 0.17772 0.01737 0.44737 0.0
C854 C 0.15853 0.00337 0.41234 0.0
C855 C 0.15131 0.98471 0.42412 0.0
C856 C 0.15828 0.982 0.44723 0.0
H857 H 0.05217 0.87854 0.39853 0.0
H858 H 0.08224 0.90426 0.414 0.0
C859 C 0.17139 0.99817 0.45876 0.0
C860 C 0.13515 0.9686 0.41277 0.0
H861 H 0.07626 0.94771 0.41414 0.0
C862 C 0.14508 0.95574 0.39517 0.0
C863 C 0.11002 0.96583 0.41956 0.0
C864 C 0.09828 0.97975 0.43788 0.0
C865 C 0.1306 0.93966 0.38457 0.0
C866 C 0.10548 0.93677 0.39152 0.0
C867 C 0.09555 0.94988 0.40892 0.0
C868 C 0.08906 0.92006 0.38137 0.0
C869 C 0.1425 0.92554 0.36654 0.0
C870 C 0.08305 0.92029 0.3578 0.0
C871 C 0.06589 0.9055 0.34883 0.0
C872 C 0.05421 0.89042 0.36337 0.0
C873 C 0.06067 0.89002 0.38687 0.0
C874 C 0.07789 0.90469 0.39576 0.0
H875 H 0.16322 0.92609 0.3675 0.0
H876 H 0.13628 0.9086 0.36844 0.0
H877 H 0.13687 0.9312 0.34916 0.0
H878 H 0.09105 0.9323 0.34647 0.0
H879 H 0.06127 0.90629 0.33067 0.0
H880 H 0.20394 0.99078 0.92854 0.0
H881 H 0.18175 0.01899 0.90739 0.0
H882 H 0.11342 0.00187 0.94224 0.0
H883 H 0.13518 0.97333 0.96289 0.0
H884 H 0.10822 0.00696 0.89431 0.0
H885 H 0.1571 0.07642 0.93463 0.0
H886 H 0.17676 0.05637 0.92176 0.0
H887 H 0.15833 0.04968 0.94662 0.0
C888 C 0.18416 0.99296 0.93159 0.0
C889 C 0.17136 0.97991 0.94753 0.0
C890 C 0.17158 0.00921 0.91966 0.0
C891 C 0.14603 0.01268 0.92349 0.0
C892 C 0.13318 0.99953 0.93915 0.0
H893 H 0.04573 0.11638 0.8993 0.0
H894 H 0.07512 0.08979 0.91396 0.0
C895 C 0.1457 0.98334 0.95108 0.0
C896 C 0.13236 0.0298 0.91109 0.0
H897 H 0.12681 0.08425 0.90636 0.0
C898 C 0.11238 0.02387 0.89677 0.0
C899 C 0.13778 0.05182 0.91452 0.0
C900 C 0.15852 0.05908 0.93034 0.0
C901 C 0.09734 0.03937 0.88608 0.0
C902 C 0.10269 0.06139 0.88957 0.0
C903 C 0.12292 0.06734 0.90359 0.0
C904 C 0.08629 0.07844 0.88026 0.0
C905 C 0.07526 0.03206 0.8719 0.0
C906 C 0.08325 0.08119 0.8564 0.0
C907 C 0.06635 0.09636 0.84792 0.0
C908 C 0.05227 0.10908 0.86317 0.0
C909 C 0.0561 0.10677 0.88705 0.0
C910 C 0.07295 0.09161 0.89548 0.0
H911 H 0.07084 0.01482 0.87474 0.0
H912 H 0.05845 0.04171 0.87607 0.0
H913 H 0.07952 0.03433 0.85333 0.0
H914 H 0.0937 0.07141 0.84437 0.0
H915 H 0.06404 0.09785 0.82943 0.0
H916 H 0.81886 0.98775 0.48129 0.0
H917 H 0.84326 0.95951 0.46243 0.0
H918 H 0.85424 0.00054 0.40339 0.0
H919 H 0.83048 0.02901 0.42227 0.0
H920 H 0.83736 0.93879 0.41767 0.0
H921 H 0.92567 0.98522 0.42588 0.0
H922 H 0.89795 0.99169 0.44215 0.0
H923 H 0.90043 0.99943 0.41238 0.0
C924 C 0.82646 0.99075 0.46428 0.0
C925 C 0.8229 0.01069 0.45335 0.0
C926 C 0.84024 0.97456 0.45349 0.0
C927 C 0.85079 0.9781 0.43169 0.0
C928 C 0.84647 0.99763 0.42036 0.0
H929 H 0.95342 0.91152 0.3428 0.0
H930 H 0.92305 0.93574 0.36018 0.0
C931 C 0.83269 0.0138 0.43109 0.0
C932 C 0.86722 0.96176 0.42116 0.0
H933 H 0.92726 0.95331 0.40381 0.0
C934 C 0.85704 0.94186 0.41468 0.0
C935 C 0.89288 0.96587 0.41744 0.0
C936 C 0.90501 0.98662 0.42499 0.0
C937 C 0.87179 0.92612 0.40395 0.0
C938 C 0.8974 0.93036 0.4 0.0
C939 C 0.90758 0.95017 0.40675 0.0
C940 C 0.91412 0.91466 0.38867 0.0
C941 C 0.85973 0.90536 0.39639 0.0
C942 C 0.91906 0.89468 0.39887 0.0
C943 C 0.93644 0.88071 0.38895 0.0
C944 C 0.94935 0.88661 0.36877 0.0
C945 C 0.94394 0.90649 0.3584 0.0
C946 C 0.92656 0.92037 0.36828 0.0
H947 H 0.83907 0.90674 0.39548 0.0
H948 H 0.86684 0.90031 0.37924 0.0
H949 H 0.86432 0.89257 0.409 0.0
H950 H 0.91001 0.89013 0.41485 0.0
H951 H 0.94019 0.86554 0.3974 0.0
H952 H 0.32596 0.33005 0.11564 0.0
H953 H 0.34651 0.32126 0.15212 0.0
H954 H 0.35231 0.38872 0.16821 0.0
H955 H 0.33082 0.39758 0.13241 0.0
H956 H 0.39321 0.33225 0.16433 0.0
H957 H 0.32756 0.36526 0.22867 0.0
H958 H 0.31893 0.36122 0.19888 0.0
H959 H 0.33588 0.38495 0.20745 0.0
C960 C 0.33104 0.34299 0.12722 0.0
C961 C 0.32676 0.36453 0.12106 0.0
C962 C 0.34292 0.33794 0.14799 0.0
C963 C 0.35064 0.35431 0.16307 0.0
C964 C 0.34603 0.37578 0.15714 0.0
H965 H 0.45468 0.37533 0.27072 0.0
H966 H 0.42344 0.37628 0.24005 0.0
C967 C 0.33406 0.38084 0.13646 0.0
C968 C 0.36538 0.34917 0.18401 0.0
H969 H 0.36994 0.35981 0.24166 0.0
C970 C 0.38788 0.3379 0.18132 0.0
C971 C 0.35839 0.35651 0.20619 0.0
C972 C 0.33373 0.36746 0.21052 0.0
C973 C 0.40417 0.33477 0.19997 0.0
C974 C 0.3977 0.34303 0.22185 0.0
C975 C 0.37484 0.3536 0.22478 0.0
C976 C 0.41537 0.34227 0.24141 0.0
C977 C 0.42872 0.32353 0.196 0.0
C978 C 0.42082 0.32283 0.25253 0.0
C979 C 0.43864 0.32221 0.27017 0.0
C980 C 0.4514 0.34102 0.27682 0.0
C981 C 0.44539 0.36052 0.26591 0.0
C982 C 0.42748 0.36113 0.24845 0.0
H983 H 0.43213 0.32017 0.17745 0.0
H984 H 0.44437 0.33344 0.20275 0.0
H985 H 0.42879 0.30805 0.20549 0.0
H986 H 0.41149 0.30814 0.24739 0.0
H987 H 0.44277 0.30695 0.27826 0.0
H988 H 0.7068 0.6546 0.63246 0.0
H989 H 0.6829 0.66393 0.66711 0.0
H990 H 0.62585 0.61834 0.64778 0.0
H991 H 0.6489 0.60965 0.61284 0.0
H992 H 0.6065 0.65685 0.661 0.0
H993 H 0.67547 0.62776 0.72544 0.0
H994 H 0.68706 0.64731 0.70528 0.0
H995 H 0.67764 0.62124 0.69518 0.0
C996 C 0.68909 0.64667 0.63555 0.0
C997 C 0.6799 0.63121 0.61997 0.0
C998 C 0.6756 0.65184 0.65547 0.0
C999 C 0.6528 0.64157 0.6602 0.0
C1000 C 0.6435 0.62635 0.64456 0.0
H1001 H 0.56533 0.62273 0.78166 0.0
H1002 H 0.59507 0.62148 0.74978 0.0
C1003 C 0.65685 0.62125 0.62468 0.0
C1004 C 0.63811 0.64673 0.68114 0.0
H1005 H 0.63853 0.64332 0.73992 0.0
C1006 C 0.61354 0.65405 0.67828 0.0
C1007 C 0.64732 0.64287 0.70362 0.0
C1008 C 0.67323 0.6342 0.70769 0.0
C1009 C 0.59769 0.65713 0.69723 0.0
C1010 C 0.60688 0.6533 0.71974 0.0
C1011 C 0.63163 0.64641 0.72265 0.0
C1012 C 0.59051 0.65485 0.74028 0.0
C1013 C 0.57092 0.66352 0.69287 0.0
C1014 C 0.57858 0.67419 0.74593 0.0
C1015 C 0.56134 0.67492 0.76402 0.0
C1016 C 0.55596 0.65636 0.77697 0.0
C1017 C 0.5689 0.63729 0.77198 0.0
C1018 C 0.58597 0.63655 0.75378 0.0
H1019 H 0.56537 0.66085 0.67463 0.0
H1020 H 0.55797 0.65434 0.70415 0.0
H1021 H 0.56864 0.68086 0.69672 0.0
H1022 H 0.58226 0.68863 0.73608 0.0
H1023 H 0.55197 0.68994 0.76761 0.0
H1024 H 0.70648 0.36465 0.13418 0.0
H1025 H 0.68392 0.357 0.17009 0.0
H1026 H 0.61382 0.36328 0.13409 0.0
H1027 H 0.6362 0.37123 0.09838 0.0
H1028 H 0.61493 0.38685 0.17306 0.0
H1029 H 0.64659 0.3038 0.19159 0.0
H1030 H 0.67149 0.32283 0.18773 0.0
H1031 H 0.65125 0.3165 0.16393 0.0
C1032 C 0.68627 0.36406 0.13391 0.0
C1033 C 0.67307 0.36863 0.11355 0.0
C1034 C 0.67341 0.35963 0.1544 0.0
C1035 C 0.64718 0.35937 0.15472 0.0
C1036 C 0.63405 0.36343 0.13425 0.0
H1037 H 0.54273 0.3156 0.25786 0.0
H1038 H 0.57122 0.31938 0.22516 0.0
C1039 C 0.64685 0.36802 0.11388 0.0
C1040 C 0.63319 0.35625 0.17655 0.0
H1041 H 0.6226 0.321 0.22064 0.0
C1042 C 0.61662 0.37244 0.18347 0.0
C1043 C 0.63529 0.33738 0.18999 0.0
C1044 C 0.65193 0.31903 0.18288 0.0
C1045 C 0.60194 0.37027 0.20334 0.0
C1046 C 0.60438 0.3516 0.21707 0.0
C1047 C 0.62099 0.33539 0.21021 0.0
C1048 C 0.58893 0.34828 0.23798 0.0
C1049 C 0.58339 0.3877 0.20902 0.0
C1050 C 0.58998 0.36291 0.25637 0.0
C1051 C 0.57356 0.36093 0.27498 0.0
C1052 C 0.556 0.3441 0.27569 0.0
C1053 C 0.55593 0.32881 0.25781 0.0
C1054 C 0.57223 0.33092 0.23912 0.0
H1055 H 0.57934 0.39801 0.19383 0.0
H1056 H 0.56554 0.38076 0.21534 0.0
H1057 H 0.59119 0.39812 0.22278 0.0
H1058 H 0.60316 0.37613 0.2561 0.0
H1059 H 0.57436 0.3728 0.28862 0.0
H1060 H 0.31896 0.60284 0.63559 0.0
H1061 H 0.34209 0.61209 0.67064 0.0
H1062 H 0.35865 0.67466 0.64261 0.0
H1063 H 0.33594 0.66541 0.60733 0.0
H1064 H 0.40062 0.65196 0.65836 0.0
H1065 H 0.32564 0.6533 0.72437 0.0
H1066 H 0.32569 0.62963 0.70665 0.0
H1067 H 0.31936 0.65532 0.69382 0.0
C1068 C 0.32738 0.61862 0.63697 0.0
C1069 C 0.32565 0.63339 0.61869 0.0
C1070 C 0.34035 0.62396 0.6571 0.0
C1071 C 0.35179 0.64416 0.65932 0.0
C1072 C 0.34973 0.65907 0.6413 0.0
H1073 H 0.43506 0.68798 0.78136 0.0
H1074 H 0.40533 0.68642 0.74916 0.0
C1075 C 0.33666 0.65379 0.62121 0.0
C1076 C 0.36776 0.64894 0.67953 0.0
H1077 H 0.36768 0.65192 0.73836 0.0
C1078 C 0.39337 0.65221 0.67583 0.0
C1079 C 0.3582 0.64942 0.70227 0.0
C1080 C 0.33068 0.64693 0.70709 0.0
C1081 C 0.40987 0.65511 0.69434 0.0
C1082 C 0.40051 0.65456 0.71712 0.0
C1083 C 0.37477 0.65216 0.72084 0.0
C1084 C 0.41748 0.65526 0.73721 0.0
C1085 C 0.43728 0.65843 0.68945 0.0
C1086 C 0.43371 0.63807 0.7413 0.0
C1087 C 0.45058 0.63885 0.75959 0.0
C1088 C 0.45161 0.65689 0.77419 0.0
C1089 C 0.43487 0.67392 0.77036 0.0
C1090 C 0.41785 0.67305 0.75204 0.0
H1091 H 0.4406 0.66344 0.67131 0.0
H1092 H 0.44533 0.67076 0.70115 0.0
H1093 H 0.44737 0.64314 0.69244 0.0
H1094 H 0.43345 0.62409 0.73017 0.0
H1095 H 0.46305 0.62538 0.76207 0.0
H1096 H 0.8701 0.86565 0.09856 0.0
H1097 H 0.89175 0.85836 0.13479 0.0
H1098 H 0.82105 0.85526 0.17031 0.0
H1099 H 0.79921 0.86228 0.1339 0.0
H1100 H 0.89079 0.88372 0.17273 0.0
H1101 H 0.85634 0.802 0.19451 0.0
H1102 H 0.8526 0.81366 0.16621 0.0
H1103 H 0.83219 0.82139 0.18936 0.0
C1104 C 0.85916 0.86325 0.11407 0.0
C1105 C 0.83299 0.86461 0.11346 0.0
C1106 C 0.87154 0.85904 0.13473 0.0
C1107 C 0.85802 0.85611 0.15523 0.0
C1108 C 0.83183 0.85703 0.15463 0.0
H1109 H 0.93111 0.87246 0.28887 0.0
H1110 H 0.90197 0.87524 0.25654 0.0
C1111 C 0.81938 0.8611 0.13385 0.0
C1112 C 0.87164 0.85357 0.17731 0.0
H1113 H 0.88093 0.81968 0.22281 0.0
C1114 C 0.88861 0.86973 0.1837 0.0
C1115 C 0.86887 0.83524 0.1915 0.0
C1116 C 0.85169 0.81697 0.18501 0.0
C1117 C 0.90308 0.86799 0.20375 0.0
C1118 C 0.90005 0.84983 0.21815 0.0
C1119 C 0.88299 0.83369 0.21186 0.0
C1120 C 0.91551 0.84684 0.23909 0.0
C1121 C 0.9221 0.8853 0.20888 0.0
C1122 C 0.93194 0.82939 0.24053 0.0
C1123 C 0.94845 0.82762 0.25908 0.0
C1124 C 0.94887 0.84334 0.27652 0.0
C1125 C 0.93153 0.86025 0.27557 0.0
C1126 C 0.91491 0.86191 0.25707 0.0
H1127 H 0.92629 0.89522 0.19343 0.0
H1128 H 0.91465 0.8961 0.22244 0.0
H1129 H 0.93981 0.87824 0.21528 0.0
H1130 H 0.93261 0.81752 0.22687 0.0
H1131 H 0.96144 0.81432 0.25933 0.0
H1132 H 0.13361 0.13079 0.60265 0.0
H1133 H 0.11253 0.13972 0.6387 0.0
H1134 H 0.18344 0.15474 0.67011 0.0
H1135 H 0.20484 0.14533 0.63408 0.0
H1136 H 0.15316 0.12759 0.69681 0.0
H1137 H 0.10043 0.19891 0.66751 0.0
H1138 H 0.09626 0.17614 0.6489 0.0
H1139 H 0.12668 0.18822 0.6517 0.0
C1140 C 0.14475 0.13597 0.61722 0.0
C1141 C 0.1709 0.13729 0.61555 0.0
C1142 C 0.13265 0.14132 0.63773 0.0
C1143 C 0.14639 0.14821 0.65695 0.0
C1144 C 0.1725 0.14964 0.65538 0.0
H1145 H 0.06395 0.19114 0.77956 0.0
H1146 H 0.09489 0.18988 0.74846 0.0
C1147 C 0.18466 0.14436 0.63478 0.0
C1148 C 0.13341 0.15268 0.67897 0.0
H1149 H 0.08561 0.18175 0.70205 0.0
C1150 C 0.13866 0.13965 0.6981 0.0
C1151 C 0.11477 0.16864 0.68072 0.0
C1152 C 0.10935 0.18393 0.66118 0.0
C1153 C 0.12477 0.14137 0.71854 0.0
C1154 C 0.10493 0.15629 0.71969 0.0
C1155 C 0.10064 0.17015 0.70103 0.0
C1156 C 0.08736 0.15679 0.73941 0.0
C1157 C 0.13121 0.12698 0.73859 0.0
C1158 C 0.0728 0.13865 0.74449 0.0
C1159 C 0.05511 0.1393 0.76215 0.0
C1160 C 0.05148 0.15819 0.77502 0.0
C1161 C 0.06626 0.17633 0.77 0.0
C1162 C 0.08395 0.17566 0.75225 0.0
H1163 H 0.15095 0.12158 0.73775 0.0
H1164 H 0.12811 0.13526 0.7553 0.0
H1165 H 0.11912 0.11248 0.73807 0.0
H1166 H 0.07474 0.12407 0.73447 0.0
H1167 H 0.04407 0.12504 0.7655 0.0
H1168 H 0.1854 0.89498 0.13561 0.0
H1169 H 0.16244 0.88586 0.17077 0.0
H1170 H 0.14558 0.82325 0.14295 0.0
H1171 H 0.16811 0.8324 0.10754 0.0
H1172 H 0.10378 0.84589 0.15867 0.0
H1173 H 0.17873 0.84505 0.22468 0.0
H1174 H 0.17867 0.8687 0.20693 0.0
H1175 H 0.18504 0.84299 0.19415 0.0
C1176 C 0.17696 0.87921 0.13706 0.0
C1177 C 0.17852 0.86442 0.11879 0.0
C1178 C 0.16409 0.87394 0.15725 0.0
C1179 C 0.1526 0.85378 0.15956 0.0
C1180 C 0.15454 0.83881 0.14157 0.0
H1181 H 0.06943 0.81122 0.28214 0.0
H1182 H 0.09917 0.81249 0.24995 0.0
C1183 C 0.16751 0.84403 0.12141 0.0
C1184 C 0.13664 0.84912 0.17982 0.0
H1185 H 0.13668 0.84679 0.23868 0.0
C1186 C 0.11102 0.84582 0.17615 0.0
C1187 C 0.14618 0.84888 0.20257 0.0
C1188 C 0.1737 0.85139 0.20739 0.0
C1189 C 0.09451 0.84314 0.19469 0.0
C1190 C 0.10386 0.84395 0.21746 0.0
C1191 C 0.1296 0.84636 0.22116 0.0
C1192 C 0.08687 0.84346 0.23755 0.0
C1193 C 0.0671 0.83976 0.18981 0.0
C1194 C 0.07056 0.86064 0.2414 0.0
C1195 C 0.05368 0.86003 0.2597 0.0
C1196 C 0.05273 0.84216 0.27454 0.0
C1197 C 0.06957 0.82515 0.27096 0.0
C1198 C 0.08658 0.82585 0.25263 0.0
H1199 H 0.0638 0.83451 0.17175 0.0
H1200 H 0.05904 0.82759 0.20169 0.0
H1201 H 0.05702 0.85509 0.19256 0.0
H1202 H 0.07076 0.87449 0.23008 0.0
H1203 H 0.04114 0.87348 0.26198 0.0
H1204 H 0.81109 0.10005 0.63795 0.0
H1205 H 0.83422 0.10804 0.6733 0.0
H1206 H 0.85644 0.16931 0.64523 0.0
H1207 H 0.8334 0.16142 0.60978 0.0
H1208 H 0.88535 0.11522 0.67442 0.0
H1209 H 0.8344 0.185 0.71079 0.0
H1210 H 0.82103 0.16762 0.68909 0.0
H1211 H 0.84336 0.18788 0.6811 0.0
C1212 C 0.82073 0.11531 0.63938 0.0
C1213 C 0.8205 0.13007 0.62103 0.0
C1214 C 0.83383 0.11988 0.65962 0.0
C1215 C 0.84685 0.13934 0.66198 0.0
C1216 C 0.84608 0.15439 0.64398 0.0
H1217 H 0.9568 0.18568 0.76042 0.0
H1218 H 0.92677 0.18209 0.72878 0.0
C1219 C 0.83293 0.14984 0.62371 0.0
C1220 C 0.86302 0.14295 0.68236 0.0
H1221 H 0.87339 0.17636 0.72813 0.0
C1222 C 0.88263 0.1285 0.68625 0.0
C1223 C 0.85955 0.16041 0.69762 0.0
C1224 C 0.83833 0.17604 0.69463 0.0
C1225 C 0.89905 0.13113 0.70486 0.0
C1226 C 0.8955 0.14848 0.72025 0.0
C1227 C 0.87599 0.16305 0.71632 0.0
C1228 C 0.91198 0.15162 0.74048 0.0
C1229 C 0.92041 0.11556 0.70761 0.0
C1230 C 0.91304 0.13599 0.75785 0.0
C1231 C 0.93019 0.13793 0.77587 0.0
C1232 C 0.94654 0.15563 0.77694 0.0
C1233 C 0.9446 0.17179 0.76006 0.0
C1234 C 0.92744 0.16979 0.74199 0.0
H1235 H 0.92416 0.10659 0.69142 0.0
H1236 H 0.93776 0.12405 0.71289 0.0
H1237 H 0.91565 0.10372 0.72122 0.0
H1238 H 0.90092 0.12205 0.75722 0.0
H1239 H 0.93094 0.12531 0.78871 0.0
loop_
_geom_bond_atom_site_label_1
_geom_bond_atom_site_label_2
_geom_bond_distance
_geom_bond_site_symmetry_2
_ccdc_geom_bond_type
C0 C1 1.384 . S
C0 H13 0.947 . S
C0 C35 1.382 . S
C1 C0 1.384 . S
C1 C2 1.378 . S
C2 C1 1.378 . S
C2 C3 1.378 . S
C2 H14 0.952 . S
C3 C2 1.378 . S
C3 H15 0.950 . S
C3 C34 1.383 . S
H4 C23 0.947 . S
H5 C24 0.946 1_554 S
H6 C26 0.953 . S
H7 C27 0.945 . S
H8 C29 0.952 . S
H9 C30 0.949 . S
H10 C32 0.950 . S
H11 C33 0.948 1_554 S
H12 C35 0.951 . S
H13 C0 0.947 . S
H14 C2 0.952 . S
H15 C3 0.950 . S
N16 C19 1.382 1_554 S
N16 C21 1.363 . S
N17 C19 1.371 . S
N17 C20 1.372 . S
N18 C20 1.361 1_554 S
N18 C21 1.377 . S
C19 N16 1.382 1_556 S
C19 N17 1.371 . S
C19 C22 1.480 . S
C20 N17 1.372 . S
C20 N18 1.361 1_556 S
C20 C28 1.457 . S
C21 N16 1.363 . S
C21 N18 1.377 . S
C21 C34 1.479 . S
C22 C19 1.480 . S
C22 C23 1.383 1_556 S
C22 C27 1.385 . S
C23 H4 0.947 . S
C23 C22 1.383 1_554 S
C23 C24 1.388 1_554 S
C24 H5 0.946 1_556 S
C24 C23 1.388 1_556 S
C24 C25 1.384 . S
C25 C24 1.384 . S
C25 C26 1.377 . S
C26 H6 0.953 . S
C26 C25 1.377 . S
C26 C27 1.369 . S
C27 H7 0.945 . S
C27 C22 1.385 . S
C27 C26 1.369 . S
C28 C20 1.457 . S
C28 C29 1.372 . S
C28 C33 1.364 . S
C29 H8 0.952 . S
C29 C28 1.372 . S
C29 C30 1.389 . S
C30 H9 0.949 . S
C30 C29 1.389 . S
C30 C31 1.387 . S
C31 C30 1.387 . S
C31 C32 1.372 . S
C32 H10 0.950 . S
C32 C31 1.372 . S
C32 C33 1.379 . S
C33 H11 0.948 1_556 S
C33 C28 1.364 . S
C33 C32 1.379 . S
C34 C3 1.383 . S
C34 C21 1.479 . S
C34 C35 1.398 . S
C35 C0 1.382 . S
C35 H12 0.951 . S
C35 C34 1.398 . S
C36 C37 1.384 . S
C36 H49 0.947 . S
C36 C71 1.382 . S
C37 C36 1.384 . S
C37 C38 1.378 . S
C38 C37 1.378 . S
C38 C39 1.378 . S
C38 H50 0.952 . S
C39 C38 1.378 . S
C39 H51 0.950 . S
C39 C70 1.383 . S
H40 C59 0.947 . S
H41 C60 0.946 . S
H42 C62 0.953 . S
H43 C63 0.945 . S
H44 C65 0.952 . S
H45 C66 0.949 . S
H46 C68 0.950 . S
H47 C69 0.948 . S
H48 C71 0.951 . S
H49 C36 0.947 . S
H50 C38 0.952 . S
H51 C39 0.950 . S
N52 C55 1.382 . S
N52 C57 1.363 . S
N53 C55 1.371 . S
N53 C56 1.372 . S
N54 C56 1.361 . S
N54 C57 1.377 . S
C55 N52 1.382 . S
C55 N53 1.371 . S
C55 C58 1.480 . S
C56 N53 1.372 . S
C56 N54 1.361 . S
C56 C64 1.457 . S
C57 N52 1.363 . S
C57 N54 1.377 . S
C57 C70 1.479 . S
C58 C55 1.480 . S
C58 C59 1.383 . S
C58 C63 1.385 . S
C59 H40 0.947 . S
C59 C58 1.383 . S
C59 C60 1.388 . S
C60 H41 0.946 . S
C60 C59 1.388 . S
C60 C61 1.384 . S
C61 C60 1.384 . S
C61 C62 1.377 . S
C62 H42 0.953 . S
C62 C61 1.377 . S
C62 C63 1.369 . S
C63 H43 0.945 . S
C63 C58 1.385 . S
C63 C62 1.369 . S
C64 C56 1.457 . S
C64 C65 1.372 . S
C64 C69 1.364 . S
C65 H44 0.952 . S
C65 C64 1.372 . S
C65 C66 1.389 . S
C66 H45 0.949 . S
C66 C65 1.389 . S
C66 C67 1.387 . S
C67 C66 1.387 . S
C67 C68 1.372 . S
C68 H46 0.950 . S
C68 C67 1.372 . S
C68 C69 1.379 . S
C69 H47 0.948 . S
C69 C64 1.364 . S
C69 C68 1.379 . S
C70 C39 1.383 . S
C70 C57 1.479 . S
C70 C71 1.398 . S
C71 C36 1.382 . S
C71 H48 0.951 . S
C71 C70 1.398 . S
C72 C73 1.384 . S
C72 H85 0.947 . S
C72 C107 1.382 . S
C73 C72 1.384 . S
C73 C74 1.378 . S
C74 C73 1.378 . S
C74 C75 1.378 . S
C74 H86 0.952 . S
C75 C74 1.378 . S
C75 H87 0.950 . S
C75 C106 1.383 . S
H76 C95 0.947 . S
H77 C96 0.946 . S
H78 C98 0.953 . S
H79 C99 0.945 . S
H80 C101 0.952 . S
H81 C102 0.949 . S
H82 C104 0.950 . S
H83 C105 0.948 1_554 S
H84 C107 0.951 . S
H85 C72 0.947 . S
H86 C74 0.952 . S
H87 C75 0.950 . S
N88 C91 1.423 . S
N88 C93 1.363 . S
N89 C91 1.345 1_556 S
N89 C92 1.372 . S
N90 C92 1.361 1_554 S
N90 C93 1.377 . S
C91 N88 1.423 . S
C91 N89 1.345 1_554 S
C91 C94 1.461 1_554 S
C92 N89 1.372 . S
C92 N90 1.361 1_556 S
C92 C100 1.457 . S
C93 N88 1.363 . S
C93 N90 1.377 . S
C93 C106 1.479 . S
C94 C91 1.461 1_556 S
C94 C95 1.383 1_556 S
C94 C99 1.385 . S
C95 H76 0.947 . S
C95 C94 1.383 1_554 S
C95 C96 1.388 1_554 S
C96 H77 0.946 . S
C96 C95 1.388 1_556 S
C96 C97 1.384 . S
C97 C96 1.384 . S
C97 C98 1.377 . S
C98 H78 0.953 . S
C98 C97 1.377 . S
C98 C99 1.369 . S
C99 H79 0.945 . S
C99 C94 1.385 . S
C99 C98 1.369 . S
C100 C92 1.457 . S
C100 C101 1.372 . S
C100 C105 1.364 . S
C101 H80 0.952 . S
C101 C100 1.372 . S
C101 C102 1.389 . S
C102 H81 0.949 . S
C102 C101 1.389 . S
C102 C103 1.387 . S
C103 C102 1.387 . S
C103 C104 1.372 . S
C104 H82 0.950 . S
C104 C103 1.372 . S
C104 C105 1.379 . S
C105 H83 0.948 1_556 S
C105 C100 1.364 . S
C105 C104 1.379 . S
C106 C75 1.383 . S
C106 C93 1.479 . S
C106 C107 1.398 . S
C107 C72 1.382 . S
C107 H84 0.951 . S
C107 C106 1.398 . S
C108 C109 1.384 . S
C108 H121 0.947 . S
C108 C143 1.382 . S
C109 C108 1.384 . S
C109 C110 1.378 . S
C110 C109 1.378 . S
C110 C111 1.378 . S
C110 H122 0.952 . S
C111 C110 1.378 . S
C111 H123 0.950 . S
C111 C142 1.383 . S
H112 C131 0.947 . S
H113 C132 0.946 . S
H114 C134 0.953 . S
H115 C135 0.945 . S
H116 C137 0.952 . S
H117 C138 0.949 . S
H118 C140 0.950 . S
H119 C141 0.948 . S
H120 C143 0.951 . S
H121 C108 0.947 . S
H122 C110 0.952 . S
H123 C111 0.950 . S
N124 C127 1.382 . S
N124 C129 1.363 . S
N125 C127 1.371 . S
N125 C128 1.372 . S
N126 C128 1.361 . S
N126 C129 1.377 . S
C127 N124 1.382 . S
C127 N125 1.371 . S
C127 C130 1.480 . S
C128 N125 1.372 . S
C128 N126 1.361 . S
C128 C136 1.457 . S
C129 N124 1.363 . S
C129 N126 1.377 . S
C129 C142 1.479 . S
C130 C127 1.480 . S
C130 C131 1.383 . S
C130 C135 1.385 . S
C131 H112 0.947 . S
C131 C130 1.383 . S
C131 C132 1.388 . S
C132 H113 0.946 . S
C132 C131 1.388 . S
C132 C133 1.384 . S
C133 C132 1.384 . S
C133 C134 1.377 . S
C134 H114 0.953 . S
C134 C133 1.377 . S
C134 C135 1.369 . S
C135 H115 0.945 . S
C135 C130 1.385 . S
C135 C134 1.369 . S
C136 C128 1.457 . S
C136 C137 1.372 . S
C136 C141 1.364 . S
C137 H116 0.952 . S
C137 C136 1.372 . S
C137 C138 1.389 . S
C138 H117 0.949 . S
C138 C137 1.389 . S
C138 C139 1.387 . S
C139 C138 1.387 . S
C139 C140 1.372 . S
C140 H118 0.950 . S
C140 C139 1.372 . S
C140 C141 1.379 . S
C141 H119 0.948 . S
C141 C136 1.364 . S
C141 C140 1.379 . S
C142 C111 1.383 . S
C142 C129 1.479 . S
C142 C143 1.398 . S
C143 C108 1.382 . S
C143 H120 0.951 . S
C143 C142 1.398 . S
C144 C145 1.384 . S
C144 H157 0.947 . S
C144 C179 1.382 . S
C145 C144 1.384 . S
C145 C146 1.378 . S
C146 C145 1.378 . S
C146 C147 1.378 . S
C146 H158 0.952 . S
C147 C146 1.378 . S
C147 H159 0.950 . S
C147 C178 1.383 . S
H148 C167 0.947 . S
H149 C168 0.946 1_554 S
H150 C170 0.953 . S
H151 C171 0.945 . S
H152 C173 0.952 . S
H153 C174 0.949 . S
H154 C176 0.950 . S
H155 C177 0.948 1_554 S
H156 C179 0.951 . S
H157 C144 0.947 . S
H158 C146 0.952 . S
H159 C147 0.950 . S
N160 C163 1.382 1_554 S
N160 C165 1.363 . S
N161 C163 1.371 . S
N161 C164 1.372 . S
N162 C164 1.361 1_554 S
N162 C165 1.377 . S
C163 N160 1.382 1_556 S
C163 N161 1.371 . S
C163 C166 1.480 . S
C164 N161 1.372 . S
C164 N162 1.361 1_556 S
C164 C172 1.457 . S
C165 N160 1.363 . S
C165 N162 1.377 . S
C165 C178 1.479 . S
C166 C163 1.480 . S
C166 C167 1.383 1_556 S
C166 C171 1.385 . S
C167 H148 0.947 . S
C167 C166 1.383 1_554 S
C167 C168 1.388 1_554 S
C168 H149 0.946 1_556 S
C168 C167 1.388 1_556 S
C168 C169 1.384 . S
C169 C168 1.384 . S
C169 C170 1.377 . S
C170 H150 0.953 . S
C170 C169 1.377 . S
C170 C171 1.369 . S
C171 H151 0.945 . S
C171 C166 1.385 . S
C171 C170 1.369 . S
C172 C164 1.457 . S
C172 C173 1.372 . S
C172 C177 1.364 . S
C173 H152 0.952 . S
C173 C172 1.372 . S
C173 C174 1.389 . S
C174 H153 0.949 . S
C174 C173 1.389 . S
C174 C175 1.387 . S
C175 C174 1.387 . S
C175 C176 1.372 . S
C176 H154 0.950 . S
C176 C175 1.372 . S
C176 C177 1.379 . S
C177 H155 0.948 1_556 S
C177 C172 1.364 . S
C177 C176 1.379 . S
C178 C147 1.383 . S
C178 C165 1.479 . S
C178 C179 1.398 . S
C179 C144 1.382 . S
C179 H156 0.951 . S
C179 C178 1.398 . S
C180 C181 1.384 . S
C180 H193 0.947 . S
C180 C215 1.382 . S
C181 C180 1.384 . S
C181 C182 1.378 . S
C182 C181 1.378 . S
C182 C183 1.378 . S
C182 H194 0.952 . S
C183 C182 1.378 . S
C183 H195 0.950 . S
C183 C214 1.383 . S
H184 C203 0.947 . S
H185 C204 0.946 . S
H186 C206 0.953 . S
H187 C207 0.945 . S
H188 C209 0.952 . S
H189 C210 0.949 . S
H190 C212 0.950 . S
H191 C213 0.948 . S
H192 C215 0.951 . S
H193 C180 0.947 . S
H194 C182 0.952 . S
H195 C183 0.950 . S
N196 C199 1.382 . S
N196 C201 1.363 . S
N197 C199 1.371 . S
N197 C200 1.372 . S
N198 C200 1.361 . S
N198 C201 1.377 . S
C199 N196 1.382 . S
C199 N197 1.371 . S
C199 C202 1.480 . S
C200 N197 1.372 . S
C200 N198 1.361 . S
C200 C208 1.457 . S
C201 N196 1.363 . S
C201 N198 1.377 . S
C201 C214 1.479 . S
C202 C199 1.480 . S
C202 C203 1.383 . S
C202 C207 1.385 . S
C203 H184 0.947 . S
C203 C202 1.383 . S
C203 C204 1.388 . S
C204 H185 0.946 . S
C204 C203 1.388 . S
C204 C205 1.384 . S
C205 C204 1.384 . S
C205 C206 1.377 . S
C206 H186 0.953 . S
C206 C205 1.377 . S
C206 C207 1.369 . S
C207 H187 0.945 . S
C207 C202 1.385 . S
C207 C206 1.369 . S
C208 C200 1.457 . S
C208 C209 1.372 . S
C208 C213 1.364 . S
C209 H188 0.952 . S
C209 C208 1.372 . S
C209 C210 1.389 . S
C210 H189 0.949 . S
C210 C209 1.389 . S
C210 C211 1.387 . S
C211 C210 1.387 . S
C211 C212 1.372 . S
C212 H190 0.950 . S
C212 C211 1.372 . S
C212 C213 1.379 . S
C213 H191 0.948 . S
C213 C208 1.364 . S
C213 C212 1.379 . S
C214 C183 1.383 . S
C214 C201 1.479 . S
C214 C215 1.398 . S
C215 C180 1.382 . S
C215 H192 0.951 . S
C215 C214 1.398 . S
C216 C217 1.384 . S
C216 H229 0.947 . S
C216 C251 1.382 . S
C217 C216 1.384 . S
C217 C218 1.378 . S
C218 C217 1.378 . S
C218 C219 1.378 . S
C218 H230 0.952 . S
C219 C218 1.378 . S
C219 H231 0.950 . S
C219 C250 1.383 . S
H220 C239 0.947 . S
H221 C240 0.946 . S
H222 C242 0.953 . S
H223 C243 0.945 . S
H224 C245 0.952 . S
H225 C246 0.949 . S
H226 C248 0.950 . S
H227 C249 0.948 1_554 S
H228 C251 0.951 . S
H229 C216 0.947 . S
H230 C218 0.952 . S
H231 C219 0.950 . S
N232 C235 1.423 . S
N232 C237 1.363 . S
N233 C235 1.346 1_556 S
N233 C236 1.372 . S
N234 C236 1.361 1_554 S
N234 C237 1.377 . S
C235 N232 1.423 . S
C235 N233 1.346 1_554 S
C235 C238 1.462 1_554 S
C236 N233 1.372 . S
C236 N234 1.361 1_556 S
C236 C244 1.457 . S
C237 N232 1.363 . S
C237 N234 1.377 . S
C237 C250 1.479 . S
C238 C235 1.462 1_556 S
C238 C239 1.383 1_556 S
C238 C243 1.385 . S
C239 H220 0.947 . S
C239 C238 1.383 1_554 S
C239 C240 1.388 1_554 S
C240 H221 0.946 . S
C240 C239 1.388 1_556 S
C240 C241 1.384 . S
C241 C240 1.384 . S
C241 C242 1.377 . S
C242 H222 0.953 . S
C242 C241 1.377 . S
C242 C243 1.369 . S
C243 H223 0.945 . S
C243 C238 1.385 . S
C243 C242 1.369 . S
C244 C236 1.457 . S
C244 C245 1.372 . S
C244 C249 1.364 . S
C245 H224 0.952 . S
C245 C244 1.372 . S
C245 C246 1.389 . S
C246 H225 0.949 . S
C246 C245 1.389 . S
C246 C247 1.387 . S
C247 C246 1.387 . S
C247 C248 1.372 . S
C248 H226 0.950 . S
C248 C247 1.372 . S
C248 C249 1.379 . S
C249 H227 0.948 1_556 S
C249 C244 1.364 . S
C249 C248 1.379 . S
C250 C219 1.383 . S
C250 C237 1.479 . S
C250 C251 1.398 . S
C251 C216 1.382 . S
C251 H228 0.951 . S
C251 C250 1.398 . S
C252 C253 1.384 . S
C252 H265 0.947 . S
C252 C287 1.382 . S
C253 C252 1.384 . S
C253 C254 1.378 . S
C254 C253 1.378 . S
C254 C255 1.378 . S
C254 H266 0.952 . S
C255 C254 1.378 . S
C255 H267 0.950 . S
C255 C286 1.383 . S
H256 C275 0.947 . S
H257 C276 0.946 . S
H258 C278 0.953 . S
H259 C279 0.945 . S
H260 C281 0.952 . S
H261 C282 0.949 . S
H262 C284 0.950 . S
H263 C285 0.948 . S
H264 C287 0.951 . S
H265 C252 0.947 . S
H266 C254 0.952 . S
H267 C255 0.950 . S
N268 C271 1.382 . S
N268 C273 1.363 . S
N269 C271 1.371 . S
N269 C272 1.372 . S
N270 C272 1.361 . S
N270 C273 1.377 . S
C271 N268 1.382 . S
C271 N269 1.371 . S
C271 C274 1.480 . S
C272 N269 1.372 . S
C272 N270 1.361 . S
C272 C280 1.457 . S
C273 N268 1.363 . S
C273 N270 1.377 . S
C273 C286 1.479 . S
C274 C271 1.480 . S
C274 C275 1.383 . S
C274 C279 1.385 . S
C275 H256 0.947 . S
C275 C274 1.383 . S
C275 C276 1.388 . S
C276 H257 0.946 . S
C276 C275 1.388 . S
C276 C277 1.384 . S
C277 C276 1.384 . S
C277 C278 1.377 . S
C278 H258 0.953 . S
C278 C277 1.377 . S
C278 C279 1.369 . S
C279 H259 0.945 . S
C279 C274 1.385 . S
C279 C278 1.369 . S
C280 C272 1.457 . S
C280 C281 1.372 . S
C280 C285 1.364 . S
C281 H260 0.952 . S
C281 C280 1.372 . S
C281 C282 1.389 . S
C282 H261 0.949 . S
C282 C281 1.389 . S
C282 C283 1.387 . S
C283 C282 1.387 . S
C283 C284 1.372 . S
C284 H262 0.950 . S
C284 C283 1.372 . S
C284 C285 1.379 . S
C285 H263 0.948 . S
C285 C280 1.364 . S
C285 C284 1.379 . S
C286 C255 1.383 . S
C286 C273 1.479 . S
C286 C287 1.398 . S
C287 C252 1.382 . S
C287 H264 0.951 . S
C287 C286 1.398 . S
Fe288 O290 1.918 . S
Fe288 O293 1.997 1_455 S
Fe288 O294 2.002 1_455 S
Fe288 O299 1.976 . S
Fe288 O302 1.996 . S
Fe289 O290 1.918 . S
Fe289 O297 1.997 1_455 S
Fe289 O300 1.996 . S
Fe289 O304 1.976 . S
Fe289 O307 2.002 1_455 S
O290 Fe288 1.918 . S
O290 Fe289 1.918 . S
O290 Fe291 1.918 . S
Fe291 O290 1.918 . S
Fe291 O292 2.002 1_455 S
Fe291 O301 1.976 . S
Fe291 O305 1.996 . S
Fe291 O308 1.997 1_455 S
O292 Fe291 2.002 1_655 S
O292 C309 1.295 . S
O293 Fe288 1.997 1_655 S
O293 C309 1.235 . S
O294 Fe288 2.002 1_655 S
O294 C295 1.295 . S
C295 O294 1.295 . S
C295 O297 1.235 . S
C296 O301 1.287 . S
C296 O302 1.255 . S
O297 Fe289 1.997 1_655 S
O297 C295 1.235 . S
C298 O304 1.287 . S
C298 O305 1.255 . S
O299 Fe288 1.976 . S
O299 C306 1.287 . S
O300 Fe289 1.996 . S
O300 C306 1.255 . S
O301 Fe291 1.976 . S
O301 C296 1.287 . S
O302 Fe288 1.996 . S
O302 C296 1.255 . S
C303 O307 1.295 . S
C303 O308 1.235 . S
O304 Fe289 1.976 . S
O304 C298 1.287 . S
O305 Fe291 1.996 . S
O305 C298 1.255 . S
C306 O299 1.287 . S
C306 O300 1.255 . S
O307 Fe289 2.002 1_655 S
O307 C303 1.295 . S
O308 Fe291 1.997 1_655 S
O308 C303 1.235 . S
C309 O292 1.295 . S
C309 O293 1.235 . S
Fe310 O312 1.919 . S
Fe310 O315 1.981 1_655 S
Fe310 O316 1.987 1_655 S
Fe310 O321 1.991 . S
Fe310 O324 2.011 . S
Fe311 O312 1.919 . S
Fe311 O319 1.981 1_655 S
Fe311 O322 2.011 . S
Fe311 O326 1.991 . S
Fe311 O329 1.987 1_655 S
O312 Fe310 1.919 . S
O312 Fe311 1.919 . S
O312 Fe313 1.919 . S
Fe313 O312 1.919 . S
Fe313 O314 1.988 1_655 S
Fe313 O323 1.991 . S
Fe313 O327 2.010 . S
Fe313 O330 1.982 1_655 S
O314 Fe313 1.988 1_455 S
O314 C331 1.295 . S
O315 Fe310 1.981 1_455 S
O315 C331 1.235 . S
O316 Fe310 1.987 1_455 S
O316 C317 1.295 . S
C317 O316 1.295 . S
C317 O319 1.235 . S
C318 O323 1.287 . S
C318 O324 1.255 . S
O319 Fe311 1.981 1_455 S
O319 C317 1.235 . S
C320 O326 1.287 . S
C320 O327 1.255 . S
O321 Fe310 1.991 . S
O321 C328 1.287 . S
O322 Fe311 2.011 . S
O322 C328 1.255 . S
O323 Fe313 1.991 . S
O323 C318 1.287 . S
O324 Fe310 2.011 . S
O324 C318 1.255 . S
C325 O329 1.295 . S
C325 O330 1.235 . S
O326 Fe311 1.991 . S
O326 C320 1.287 . S
O327 Fe313 2.010 . S
O327 C320 1.255 . S
C328 O321 1.287 . S
C328 O322 1.255 . S
O329 Fe311 1.987 1_455 S
O329 C325 1.295 . S
O330 Fe313 1.982 1_455 S
O330 C325 1.235 . S
C331 O314 1.295 . S
C331 O315 1.235 . S
Fe332 O334 1.918 . S
Fe332 O337 1.997 . S
Fe332 O338 2.002 . S
Fe332 O343 1.976 . S
Fe332 O346 1.996 . S
Fe333 O334 1.918 . S
Fe333 O341 1.997 . S
Fe333 O344 1.996 . S
Fe333 O348 1.976 . S
Fe333 O351 2.002 . S
O334 Fe332 1.918 . S
O334 Fe333 1.918 . S
O334 Fe335 1.918 . S
Fe335 O334 1.918 . S
Fe335 O336 2.002 . S
Fe335 O345 1.976 . S
Fe335 O349 1.996 . S
Fe335 O352 1.997 . S
O336 Fe335 2.002 . S
O336 C353 1.295 . S
O337 Fe332 1.997 . S
O337 C353 1.235 . S
O338 Fe332 2.002 . S
O338 C339 1.295 . S
C339 O338 1.295 . S
C339 O341 1.235 . S
C340 O345 1.287 . S
C340 O346 1.255 . S
O341 Fe333 1.997 . S
O341 C339 1.235 . S
C342 O348 1.287 . S
C342 O349 1.255 . S
O343 Fe332 1.976 . S
O343 C350 1.287 . S
O344 Fe333 1.996 . S
O344 C350 1.255 . S
O345 Fe335 1.976 . S
O345 C340 1.287 . S
O346 Fe332 1.996 . S
O346 C340 1.255 . S
C347 O351 1.295 . S
C347 O352 1.235 . S
O348 Fe333 1.976 . S
O348 C342 1.287 . S
O349 Fe335 1.996 . S
O349 C342 1.255 . S
C350 O343 1.287 . S
C350 O344 1.255 . S
O351 Fe333 2.002 . S
O351 C347 1.295 . S
O352 Fe335 1.997 . S
O352 C347 1.235 . S
C353 O336 1.295 . S
C353 O337 1.235 . S
Fe354 O356 1.918 . S
Fe354 O359 1.997 . S
Fe354 O360 2.002 . S
Fe354 O365 1.976 . S
Fe354 O368 1.996 . S
Fe355 O356 1.918 . S
Fe355 O363 1.997 . S
Fe355 O366 1.996 . S
Fe355 O370 1.976 . S
Fe355 O373 2.002 . S
O356 Fe354 1.918 . S
O356 Fe355 1.918 . S
O356 Fe357 1.918 . S
Fe357 O356 1.918 . S
Fe357 O358 2.002 . S
Fe357 O367 1.976 . S
Fe357 O371 1.996 . S
Fe357 O374 1.997 . S
O358 Fe357 2.002 . S
O358 C375 1.295 . S
O359 Fe354 1.997 . S
O359 C375 1.235 . S
O360 Fe354 2.002 . S
O360 C361 1.295 . S
C361 O360 1.295 . S
C361 O363 1.235 . S
C362 O367 1.287 . S
C362 O368 1.255 . S
O363 Fe355 1.997 . S
O363 C361 1.235 . S
C364 O370 1.287 . S
C364 O371 1.255 . S
O365 Fe354 1.976 . S
O365 C372 1.287 . S
O366 Fe355 1.996 . S
O366 C372 1.255 . S
O367 Fe357 1.976 . S
O367 C362 1.287 . S
O368 Fe354 1.996 . S
O368 C362 1.255 . S
C369 O373 1.295 . S
C369 O374 1.235 . S
O370 Fe355 1.976 . S
O370 C364 1.287 . S
O371 Fe357 1.996 . S
O371 C364 1.255 . S
C372 O365 1.287 . S
C372 O366 1.255 . S
O373 Fe355 2.002 . S
O373 C369 1.295 . S
O374 Fe357 1.997 . S
O374 C369 1.235 . S
C375 O358 1.295 . S
C375 O359 1.235 . S
H376 C384 0.929 . S
H377 C386 0.930 . S
H378 C388 0.930 . S
H379 C391 0.929 . S
H380 C394 0.930 . S
H381 C396 0.960 . S
H382 C396 0.960 . S
H383 C396 0.960 . S
C384 H376 0.929 . S
C384 C385 1.377 . S
C384 C386 1.384 . S
C385 C384 1.377 . S
C385 C391 1.390 . S
C386 H377 0.930 . S
C386 C384 1.384 . S
C386 C387 1.372 . S
C387 C386 1.372 . S
C387 C388 1.400 . S
C387 C392 1.490 . S
C388 H378 0.930 . S
C388 C387 1.400 . S
C388 C391 1.386 . S
H389 C405 0.930 . S
H390 C406 0.931 . S
C391 H379 0.929 . S
C391 C385 1.390 . S
C391 C388 1.386 . S
C392 C387 1.490 . S
C392 C394 1.395 . S
C392 C395 1.403 . S
H393 C399 0.930 . S
C394 H380 0.930 . S
C394 C392 1.395 . S
C394 C397 1.403 . S
C395 C392 1.403 . S
C395 C396 1.524 . S
C395 C399 1.400 . S
C396 H381 0.960 . S
C396 H382 0.960 . S
C396 H383 0.960 . S
C396 C395 1.524 . S
C397 C394 1.403 . S
C397 C398 1.392 . S
C397 C401 1.495 . S
C398 C397 1.392 . S
C398 C399 1.385 . S
C398 C400 1.478 . S
C399 H393 0.930 . S
C399 C395 1.400 . S
C399 C398 1.385 . S
C400 C398 1.478 . S
C400 C402 1.381 . S
C400 C406 1.383 . S
C401 C397 1.495 . S
C401 H407 0.959 . S
C401 H408 0.961 . S
C401 H409 0.960 . S
C402 C400 1.381 . S
C402 C403 1.394 . S
C402 H410 0.930 . S
C403 C402 1.394 . S
C403 C404 1.383 . S
C403 H411 0.929 . S
C404 C403 1.383 . S
C404 C405 1.377 . S
C405 H389 0.930 . S
C405 C404 1.377 . S
C405 C406 1.379 . S
C406 H390 0.931 . S
C406 C400 1.383 . S
C406 C405 1.379 . S
H407 C401 0.959 . S
H408 C401 0.961 . S
H409 C401 0.960 . S
H410 C402 0.930 . S
H411 C403 0.929 . S
H412 C420 0.929 . S
H413 C422 0.930 . S
H414 C424 0.930 . S
H415 C427 0.929 . S
H416 C430 0.930 . S
H417 C432 0.960 . S
H418 C432 0.960 . S
H419 C432 0.960 . S
C420 H412 0.929 . S
C420 C421 1.377 . S
C420 C422 1.384 . S
C421 C420 1.377 . S
C421 C427 1.390 . S
C422 H413 0.930 . S
C422 C420 1.384 . S
C422 C423 1.372 . S
C423 C422 1.372 . S
C423 C424 1.400 . S
C423 C428 1.490 . S
C424 H414 0.930 . S
C424 C423 1.400 . S
C424 C427 1.386 . S
H425 C441 0.930 . S
H426 C442 0.931 . S
C427 H415 0.929 . S
C427 C421 1.390 . S
C427 C424 1.386 . S
C428 C423 1.490 . S
C428 C430 1.395 . S
C428 C431 1.403 . S
H429 C435 0.930 . S
C430 H416 0.930 . S
C430 C428 1.395 . S
C430 C433 1.403 . S
C431 C428 1.403 . S
C431 C432 1.524 . S
C431 C435 1.400 . S
C432 H417 0.960 . S
C432 H418 0.960 . S
C432 H419 0.960 . S
C432 C431 1.524 . S
C433 C430 1.403 . S
C433 C434 1.392 . S
C433 C437 1.495 . S
C434 C433 1.392 . S
C434 C435 1.385 . S
C434 C436 1.478 . S
C435 H429 0.930 . S
C435 C431 1.400 . S
C435 C434 1.385 . S
C436 C434 1.478 . S
C436 C438 1.381 . S
C436 C442 1.383 . S
C437 C433 1.495 . S
C437 H443 0.959 . S
C437 H444 0.961 . S
C437 H445 0.960 . S
C438 C436 1.381 . S
C438 C439 1.394 . S
C438 H446 0.930 . S
C439 C438 1.394 . S
C439 C440 1.383 . S
C439 H447 0.929 . S
C440 C439 1.383 . S
C440 C441 1.377 . S
C441 H425 0.930 . S
C441 C440 1.377 . S
C441 C442 1.379 . S
C442 H426 0.931 . S
C442 C436 1.383 . S
C442 C441 1.379 . S
H443 C437 0.959 . S
H444 C437 0.961 . S
H445 C437 0.960 . S
H446 C438 0.930 . S
H447 C439 0.929 . S
H448 C456 0.929 . S
H449 C458 0.930 . S
H450 C460 0.930 . S
H451 C463 0.929 . S
H452 C466 0.930 . S
H453 C468 0.960 . S
H454 C468 0.960 . S
H455 C468 0.960 . S
C456 H448 0.929 . S
C456 C457 1.377 . S
C456 C458 1.384 . S
C457 C456 1.377 . S
C457 C463 1.390 . S
C458 H449 0.930 . S
C458 C456 1.384 . S
C458 C459 1.372 . S
C459 C458 1.372 . S
C459 C460 1.400 . S
C459 C464 1.490 . S
C460 H450 0.930 . S
C460 C459 1.400 . S
C460 C463 1.386 . S
H461 C477 0.930 . S
H462 C478 0.931 . S
C463 H451 0.929 . S
C463 C457 1.390 . S
C463 C460 1.386 . S
C464 C459 1.490 . S
C464 C466 1.395 . S
C464 C467 1.403 . S
H465 C471 0.930 . S
C466 H452 0.930 . S
C466 C464 1.395 . S
C466 C469 1.403 . S
C467 C464 1.403 . S
C467 C468 1.524 . S
C467 C471 1.400 . S
C468 H453 0.960 . S
C468 H454 0.960 . S
C468 H455 0.960 . S
C468 C467 1.524 . S
C469 C466 1.403 . S
C469 C470 1.392 . S
C469 C473 1.495 . S
C470 C469 1.392 . S
C470 C471 1.385 . S
C470 C472 1.478 . S
C471 H465 0.930 . S
C471 C467 1.400 . S
C471 C470 1.385 . S
C472 C470 1.478 . S
C472 C474 1.381 . S
C472 C478 1.383 . S
C473 C469 1.495 . S
C473 H479 0.959 . S
C473 H480 0.961 . S
C473 H481 0.960 . S
C474 C472 1.381 . S
C474 C475 1.394 . S
C474 H482 0.930 . S
C475 C474 1.394 . S
C475 C476 1.383 . S
C475 H483 0.929 . S
C476 C475 1.383 . S
C476 C477 1.377 . S
C477 H461 0.930 . S
C477 C476 1.377 . S
C477 C478 1.379 . S
C478 H462 0.931 . S
C478 C472 1.383 . S
C478 C477 1.379 . S
H479 C473 0.959 . S
H480 C473 0.961 . S
H481 C473 0.960 . S
H482 C474 0.930 . S
H483 C475 0.929 . S
H484 C492 0.929 . S
H485 C494 0.930 . S
H486 C496 0.930 . S
H487 C499 0.929 . S
H488 C502 0.930 . S
H489 C504 0.960 . S
H490 C504 0.960 . S
H491 C504 0.960 . S
C492 H484 0.929 . S
C492 C493 1.377 . S
C492 C494 1.384 . S
C493 C492 1.377 . S
C493 C499 1.390 . S
C494 H485 0.930 . S
C494 C492 1.384 . S
C494 C495 1.372 . S
C495 C494 1.372 . S
C495 C496 1.400 . S
C495 C500 1.490 . S
C496 H486 0.930 . S
C496 C495 1.400 . S
C496 C499 1.386 . S
H497 C513 0.930 . S
H498 C514 0.931 . S
C499 H487 0.929 . S
C499 C493 1.390 . S
C499 C496 1.386 . S
C500 C495 1.490 . S
C500 C502 1.395 . S
C500 C503 1.403 . S
H501 C507 0.930 . S
C502 H488 0.930 . S
C502 C500 1.395 . S
C502 C505 1.403 . S
C503 C500 1.403 . S
C503 C504 1.524 . S
C503 C507 1.400 . S
C504 H489 0.960 . S
C504 H490 0.960 . S
C504 H491 0.960 . S
C504 C503 1.524 . S
C505 C502 1.403 . S
C505 C506 1.392 . S
C505 C509 1.495 . S
C506 C505 1.392 . S
C506 C507 1.385 . S
C506 C508 1.478 . S
C507 H501 0.930 . S
C507 C503 1.400 . S
C507 C506 1.385 . S
C508 C506 1.478 . S
C508 C510 1.381 . S
C508 C514 1.383 . S
C509 C505 1.495 . S
C509 H515 0.959 . S
C509 H516 0.961 . S
C509 H517 0.960 . S
C510 C508 1.381 . S
C510 C511 1.394 . S
C510 H518 0.930 . S
C511 C510 1.394 . S
C511 C512 1.383 . S
C511 H519 0.929 . S
C512 C511 1.383 . S
C512 C513 1.377 . S
C513 H497 0.930 . S
C513 C512 1.377 . S
C513 C514 1.379 . S
C514 H498 0.931 . S
C514 C508 1.383 . S
C514 C513 1.379 . S
H515 C509 0.959 . S
H516 C509 0.961 . S
H517 C509 0.960 . S
H518 C510 0.930 . S
H519 C511 0.929 . S
H520 C528 0.929 . S
H521 C530 0.930 . S
H522 C532 0.930 . S
H523 C535 0.929 . S
H524 C538 0.930 . S
H525 C540 0.960 . S
H526 C540 0.960 . S
H527 C540 0.960 . S
C528 H520 0.929 . S
C528 C529 1.377 . S
C528 C530 1.384 . S
C529 C528 1.377 . S
C529 C535 1.390 . S
C530 H521 0.930 . S
C530 C528 1.384 . S
C530 C531 1.372 . S
C531 C530 1.372 . S
C531 C532 1.400 . S
C531 C536 1.490 . S
C532 H522 0.930 . S
C532 C531 1.400 . S
C532 C535 1.386 . S
H533 C549 0.930 . S
H534 C550 0.931 . S
C535 H523 0.929 . S
C535 C529 1.390 . S
C535 C532 1.386 . S
C536 C531 1.490 . S
C536 C538 1.395 . S
C536 C539 1.403 . S
H537 C543 0.930 . S
C538 H524 0.930 . S
C538 C536 1.395 . S
C538 C541 1.403 . S
C539 C536 1.403 . S
C539 C540 1.524 . S
C539 C543 1.400 . S
C540 H525 0.960 . S
C540 H526 0.960 . S
C540 H527 0.960 . S
C540 C539 1.524 . S
C541 C538 1.403 . S
C541 C542 1.392 . S
C541 C545 1.495 . S
C542 C541 1.392 . S
C542 C543 1.385 . S
C542 C544 1.478 . S
C543 H537 0.930 . S
C543 C539 1.400 . S
C543 C542 1.385 . S
C544 C542 1.478 . S
C544 C546 1.381 . S
C544 C550 1.383 . S
C545 C541 1.495 . S
C545 H551 0.959 . S
C545 H552 0.961 . S
C545 H553 0.960 . S
C546 C544 1.381 . S
C546 C547 1.394 . S
C546 H554 0.930 . S
C547 C546 1.394 . S
C547 C548 1.383 . S
C547 H555 0.929 . S
C548 C547 1.383 . S
C548 C549 1.377 . S
C549 H533 0.930 . S
C549 C548 1.377 . S
C549 C550 1.379 . S
C550 H534 0.931 . S
C550 C544 1.383 . S
C550 C549 1.379 . S
H551 C545 0.959 . S
H552 C545 0.961 . S
H553 C545 0.960 . S
H554 C546 0.930 . S
H555 C547 0.929 . S
H556 C564 0.929 . S
H557 C566 0.930 . S
H558 C568 0.930 . S
H559 C571 0.929 . S
H560 C574 0.930 . S
H561 C576 0.960 . S
H562 C576 0.960 . S
H563 C576 0.960 . S
C564 H556 0.929 . S
C564 C565 1.377 . S
C564 C566 1.384 . S
C565 C564 1.377 . S
C565 C571 1.390 . S
C566 H557 0.930 . S
C566 C564 1.384 . S
C566 C567 1.372 . S
C567 C566 1.372 . S
C567 C568 1.400 . S
C567 C572 1.490 . S
C568 H558 0.930 . S
C568 C567 1.400 . S
C568 C571 1.386 . S
H569 C585 0.930 . S
H570 C586 0.931 . S
C571 H559 0.929 . S
C571 C565 1.390 . S
C571 C568 1.386 . S
C572 C567 1.490 . S
C572 C574 1.395 . S
C572 C575 1.403 . S
H573 C579 0.930 . S
C574 H560 0.930 . S
C574 C572 1.395 . S
C574 C577 1.403 . S
C575 C572 1.403 . S
C575 C576 1.524 . S
C575 C579 1.400 . S
C576 H561 0.960 . S
C576 H562 0.960 . S
C576 H563 0.960 . S
C576 C575 1.524 . S
C577 C574 1.403 . S
C577 C578 1.392 . S
C577 C581 1.495 . S
C578 C577 1.392 . S
C578 C579 1.385 . S
C578 C580 1.478 . S
C579 H573 0.930 . S
C579 C575 1.400 . S
C579 C578 1.385 . S
C580 C578 1.478 . S
C580 C582 1.381 . S
C580 C586 1.383 . S
C581 C577 1.495 . S
C581 H587 0.959 . S
C581 H588 0.961 . S
C581 H589 0.960 . S
C582 C580 1.381 . S
C582 C583 1.394 . S
C582 H590 0.930 . S
C583 C582 1.394 . S
C583 C584 1.383 . S
C583 H591 0.929 . S
C584 C583 1.383 . S
C584 C585 1.377 . S
C585 H569 0.930 . S
C585 C584 1.377 . S
C585 C586 1.379 . S
C586 H570 0.931 . S
C586 C580 1.383 . S
C586 C585 1.379 . S
H587 C581 0.959 . S
H588 C581 0.961 . S
H589 C581 0.960 . S
H590 C582 0.930 . S
H591 C583 0.929 . S
H592 C600 0.929 . S
H593 C602 0.930 . S
H594 C604 0.930 . S
H595 C607 0.929 . S
H596 C610 0.930 . S
H597 C612 0.960 . S
H598 C612 0.960 . S
H599 C612 0.960 . S
C600 H592 0.929 . S
C600 C601 1.377 . S
C600 C602 1.384 . S
C601 C600 1.377 . S
C601 C607 1.390 . S
C602 H593 0.930 . S
C602 C600 1.384 . S
C602 C603 1.372 . S
C603 C602 1.372 . S
C603 C604 1.400 . S
C603 C608 1.490 . S
C604 H594 0.930 . S
C604 C603 1.400 . S
C604 C607 1.386 . S
H605 C621 0.930 . S
H606 C622 0.931 . S
C607 H595 0.929 . S
C607 C601 1.390 . S
C607 C604 1.386 . S
C608 C603 1.490 . S
C608 C610 1.395 . S
C608 C611 1.403 . S
H609 C615 0.930 . S
C610 H596 0.930 . S
C610 C608 1.395 . S
C610 C613 1.403 . S
C611 C608 1.403 . S
C611 C612 1.524 . S
C611 C615 1.400 . S
C612 H597 0.960 . S
C612 H598 0.960 . S
C612 H599 0.960 . S
C612 C611 1.524 . S
C613 C610 1.403 . S
C613 C614 1.392 . S
C613 C617 1.495 . S
C614 C613 1.392 . S
C614 C615 1.385 . S
C614 C616 1.478 . S
C615 H609 0.930 . S
C615 C611 1.400 . S
C615 C614 1.385 . S
C616 C614 1.478 . S
C616 C618 1.381 . S
C616 C622 1.383 . S
C617 C613 1.495 . S
C617 H623 0.959 . S
C617 H624 0.961 . S
C617 H625 0.960 . S
C618 C616 1.381 . S
C618 C619 1.394 . S
C618 H626 0.930 . S
C619 C618 1.394 . S
C619 C620 1.383 . S
C619 H627 0.929 . S
C620 C619 1.383 . S
C620 C621 1.377 . S
C621 H605 0.930 . S
C621 C620 1.377 . S
C621 C622 1.379 . S
C622 H606 0.931 . S
C622 C616 1.383 . S
C622 C621 1.379 . S
H623 C617 0.959 . S
H624 C617 0.961 . S
H625 C617 0.960 . S
H626 C618 0.930 . S
H627 C619 0.929 . S
H628 C636 0.929 . S
H629 C638 0.930 . S
H630 C640 0.930 . S
H631 C643 0.929 . S
H632 C646 0.930 . S
H633 C648 0.960 . S
H634 C648 0.960 . S
H635 C648 0.960 . S
C636 H628 0.929 . S
C636 C637 1.377 . S
C636 C638 1.384 . S
C637 C636 1.377 . S
C637 C643 1.390 . S
C638 H629 0.930 . S
C638 C636 1.384 . S
C638 C639 1.372 . S
C639 C638 1.372 . S
C639 C640 1.400 . S
C639 C644 1.490 . S
C640 H630 0.930 . S
C640 C639 1.400 . S
C640 C643 1.386 . S
H641 C657 0.930 . S
H642 C658 0.931 . S
C643 H631 0.929 . S
C643 C637 1.390 . S
C643 C640 1.386 . S
C644 C639 1.490 . S
C644 C646 1.395 . S
C644 C647 1.403 . S
H645 C651 0.930 . S
C646 H632 0.930 . S
C646 C644 1.395 . S
C646 C649 1.403 . S
C647 C644 1.403 . S
C647 C648 1.524 . S
C647 C651 1.400 . S
C648 H633 0.960 . S
C648 H634 0.960 . S
C648 H635 0.960 . S
C648 C647 1.524 . S
C649 C646 1.403 . S
C649 C650 1.392 . S
C649 C653 1.495 . S
C650 C649 1.392 . S
C650 C651 1.385 . S
C650 C652 1.478 . S
C651 H645 0.930 . S
C651 C647 1.400 . S
C651 C650 1.385 . S
C652 C650 1.478 . S
C652 C654 1.381 . S
C652 C658 1.383 . S
C653 C649 1.495 . S
C653 H659 0.959 . S
C653 H660 0.961 . S
C653 H661 0.960 . S
C654 C652 1.381 . S
C654 C655 1.394 . S
C654 H662 0.930 . S
C655 C654 1.394 . S
C655 C656 1.383 . S
C655 H663 0.929 . S
C656 C655 1.383 . S
C656 C657 1.377 . S
C657 H641 0.930 . S
C657 C656 1.377 . S
C657 C658 1.379 . S
C658 H642 0.931 . S
C658 C652 1.383 . S
C658 C657 1.379 . S
H659 C653 0.959 . S
H660 C653 0.961 . S
H661 C653 0.960 . S
H662 C654 0.930 . S
H663 C655 0.929 . S
H664 C672 0.929 . S
H665 C674 0.930 . S
H666 C676 0.930 . S
H667 C679 0.929 . S
H668 C682 0.930 . S
H669 C684 0.960 . S
H670 C684 0.960 . S
H671 C684 0.960 . S
C672 H664 0.929 . S
C672 C673 1.377 . S
C672 C674 1.384 . S
C673 C672 1.377 . S
C673 C679 1.390 . S
C674 H665 0.930 . S
C674 C672 1.384 . S
C674 C675 1.372 . S
C675 C674 1.372 . S
C675 C676 1.400 . S
C675 C680 1.490 . S
C676 H666 0.930 . S
C676 C675 1.400 . S
C676 C679 1.386 . S
H677 C693 0.930 . S
H678 C694 0.931 . S
C679 H667 0.929 . S
C679 C673 1.390 . S
C679 C676 1.386 . S
C680 C675 1.490 . S
C680 C682 1.395 . S
C680 C683 1.403 . S
H681 C687 0.930 . S
C682 H668 0.930 . S
C682 C680 1.395 . S
C682 C685 1.403 . S
C683 C680 1.403 . S
C683 C684 1.524 . S
C683 C687 1.400 . S
C684 H669 0.960 . S
C684 H670 0.960 . S
C684 H671 0.960 . S
C684 C683 1.524 . S
C685 C682 1.403 . S
C685 C686 1.392 . S
C685 C689 1.495 . S
C686 C685 1.392 . S
C686 C687 1.385 . S
C686 C688 1.478 . S
C687 H681 0.930 . S
C687 C683 1.400 . S
C687 C686 1.385 . S
C688 C686 1.478 . S
C688 C690 1.381 . S
C688 C694 1.383 . S
C689 C685 1.495 . S
C689 H695 0.959 . S
C689 H696 0.961 . S
C689 H697 0.960 . S
C690 C688 1.381 . S
C690 C691 1.394 . S
C690 H698 0.930 . S
C691 C690 1.394 . S
C691 C692 1.383 . S
C691 H699 0.929 . S
C692 C691 1.383 . S
C692 C693 1.377 . S
C693 H677 0.930 . S
C693 C692 1.377 . S
C693 C694 1.379 . S
C694 H678 0.931 . S
C694 C688 1.383 . S
C694 C693 1.379 . S
H695 C689 0.959 . S
H696 C689 0.961 . S
H697 C689 0.960 . S
H698 C690 0.930 . S
H699 C691 0.929 . S
H700 C708 0.929 . S
H701 C710 0.930 . S
H702 C712 0.930 . S
H703 C715 0.929 . S
H704 C718 0.930 . S
H705 C720 0.960 . S
H706 C720 0.960 . S
H707 C720 0.960 . S
C708 H700 0.929 . S
C708 C709 1.377 . S
C708 C710 1.384 . S
C709 C708 1.377 . S
C709 C715 1.390 . S
C710 H701 0.930 . S
C710 C708 1.384 . S
C710 C711 1.372 . S
C711 C710 1.372 . S
C711 C712 1.400 . S
C711 C716 1.490 . S
C712 H702 0.930 . S
C712 C711 1.400 . S
C712 C715 1.386 . S
H713 C729 0.930 . S
H714 C730 0.931 . S
C715 H703 0.929 . S
C715 C709 1.390 . S
C715 C712 1.386 . S
C716 C711 1.490 . S
C716 C718 1.395 . S
C716 C719 1.403 . S
H717 C723 0.930 . S
C718 H704 0.930 . S
C718 C716 1.395 . S
C718 C721 1.403 . S
C719 C716 1.403 . S
C719 C720 1.524 . S
C719 C723 1.400 . S
C720 H705 0.960 . S
C720 H706 0.960 . S
C720 H707 0.960 . S
C720 C719 1.524 . S
C721 C718 1.403 . S
C721 C722 1.392 . S
C721 C725 1.495 . S
C722 C721 1.392 . S
C722 C723 1.385 . S
C722 C724 1.478 . S
C723 H717 0.930 . S
C723 C719 1.400 . S
C723 C722 1.385 . S
C724 C722 1.478 . S
C724 C726 1.381 . S
C724 C730 1.383 . S
C725 C721 1.495 . S
C725 H731 0.959 . S
C725 H732 0.961 . S
C725 H733 0.960 . S
C726 C724 1.381 . S
C726 C727 1.394 . S
C726 H734 0.930 . S
C727 C726 1.394 . S
C727 C728 1.383 . S
C727 H735 0.929 . S
C728 C727 1.383 . S
C728 C729 1.377 . S
C729 H713 0.930 . S
C729 C728 1.377 . S
C729 C730 1.379 . S
C730 H714 0.931 . S
C730 C724 1.383 . S
C730 C729 1.379 . S
H731 C725 0.959 . S
H732 C725 0.961 . S
H733 C725 0.960 . S
H734 C726 0.930 . S
H735 C727 0.929 . S
H736 C744 0.929 . S
H737 C746 0.930 . S
H738 C748 0.930 . S
H739 C751 0.929 . S
H740 C754 0.930 . S
H741 C756 0.960 . S
H742 C756 0.960 . S
H743 C756 0.960 . S
C744 H736 0.929 . S
C744 C745 1.377 . S
C744 C746 1.384 . S
C745 C744 1.377 . S
C745 C751 1.390 . S
C746 H737 0.930 . S
C746 C744 1.384 . S
C746 C747 1.372 . S
C747 C746 1.372 . S
C747 C748 1.400 . S
C747 C752 1.490 . S
C748 H738 0.930 . S
C748 C747 1.400 . S
C748 C751 1.386 . S
H749 C765 0.930 . S
H750 C766 0.931 . S
C751 H739 0.929 . S
C751 C745 1.390 . S
C751 C748 1.386 . S
C752 C747 1.490 . S
C752 C754 1.395 . S
C752 C755 1.403 . S
H753 C759 0.930 . S
C754 H740 0.930 . S
C754 C752 1.395 . S
C754 C757 1.403 . S
C755 C752 1.403 . S
C755 C756 1.524 . S
C755 C759 1.400 . S
C756 H741 0.960 . S
C756 H742 0.960 . S
C756 H743 0.960 . S
C756 C755 1.524 . S
C757 C754 1.403 . S
C757 C758 1.392 . S
C757 C761 1.495 . S
C758 C757 1.392 . S
C758 C759 1.385 . S
C758 C760 1.478 . S
C759 H753 0.930 . S
C759 C755 1.400 . S
C759 C758 1.385 . S
C760 C758 1.478 . S
C760 C762 1.381 . S
C760 C766 1.383 . S
C761 C757 1.495 . S
C761 H767 0.959 . S
C761 H768 0.961 . S
C761 H769 0.960 . S
C762 C760 1.381 . S
C762 C763 1.394 . S
C762 H770 0.930 . S
C763 C762 1.394 . S
C763 C764 1.383 . S
C763 H771 0.929 . S
C764 C763 1.383 . S
C764 C765 1.377 . S
C765 H749 0.930 . S
C765 C764 1.377 . S
C765 C766 1.379 . S
C766 H750 0.931 . S
C766 C760 1.383 . S
C766 C765 1.379 . S
H767 C761 0.959 . S
H768 C761 0.961 . S
H769 C761 0.960 . S
H770 C762 0.930 . S
H771 C763 0.929 . S
H772 C780 0.929 . S
H773 C782 0.930 . S
H774 C784 0.930 . S
H775 C787 0.929 . S
H776 C790 0.930 . S
H777 C792 0.960 . S
H778 C792 0.960 . S
H779 C792 0.960 . S
C780 H772 0.929 . S
C780 C781 1.377 . S
C780 C782 1.384 . S
C781 C780 1.377 . S
C781 C787 1.390 . S
C782 H773 0.930 . S
C782 C780 1.384 . S
C782 C783 1.372 . S
C783 C782 1.372 . S
C783 C784 1.400 . S
C783 C788 1.490 . S
C784 H774 0.930 . S
C784 C783 1.400 . S
C784 C787 1.386 . S
H785 C801 0.930 . S
H786 C802 0.931 . S
C787 H775 0.929 . S
C787 C781 1.390 . S
C787 C784 1.386 . S
C788 C783 1.490 . S
C788 C790 1.395 . S
C788 C791 1.403 . S
H789 C795 0.930 . S
C790 H776 0.930 . S
C790 C788 1.395 . S
C790 C793 1.403 . S
C791 C788 1.403 . S
C791 C792 1.524 . S
C791 C795 1.400 . S
C792 H777 0.960 . S
C792 H778 0.960 . S
C792 H779 0.960 . S
C792 C791 1.524 . S
C793 C790 1.403 . S
C793 C794 1.392 . S
C793 C797 1.495 . S
C794 C793 1.392 . S
C794 C795 1.385 . S
C794 C796 1.478 . S
C795 H789 0.930 . S
C795 C791 1.400 . S
C795 C794 1.385 . S
C796 C794 1.478 . S
C796 C798 1.381 . S
C796 C802 1.383 . S
C797 C793 1.495 . S
C797 H803 0.959 . S
C797 H804 0.961 . S
C797 H805 0.960 . S
C798 C796 1.381 . S
C798 C799 1.394 . S
C798 H806 0.930 . S
C799 C798 1.394 . S
C799 C800 1.383 . S
C799 H807 0.929 . S
C800 C799 1.383 . S
C800 C801 1.377 . S
C801 H785 0.930 . S
C801 C800 1.377 . S
C801 C802 1.379 . S
C802 H786 0.931 . S
C802 C796 1.383 . S
C802 C801 1.379 . S
H803 C797 0.959 . S
H804 C797 0.961 . S
H805 C797 0.960 . S
H806 C798 0.930 . S
H807 C799 0.929 . S
H808 C816 0.929 . S
H809 C818 0.930 . S
H810 C820 0.930 . S
H811 C823 0.929 . S
H812 C826 0.930 . S
H813 C828 0.960 . S
H814 C828 0.960 . S
H815 C828 0.960 . S
C816 H808 0.929 . S
C816 C817 1.377 . S
C816 C818 1.384 1_565 S
C817 C816 1.377 . S
C817 C823 1.390 . S
C818 H809 0.930 . S
C818 C816 1.384 1_545 S
C818 C819 1.372 . S
C819 C818 1.372 . S
C819 C820 1.400 . S
C819 C824 1.490 . S
C820 H810 0.930 . S
C820 C819 1.400 . S
C820 C823 1.386 1_545 S
H821 C837 0.930 . S
H822 C838 0.931 . S
C823 H811 0.929 . S
C823 C817 1.390 . S
C823 C820 1.386 1_565 S
C824 C819 1.490 . S
C824 C826 1.395 . S
C824 C827 1.403 . S
H825 C831 0.930 . S
C826 H812 0.930 . S
C826 C824 1.395 . S
C826 C829 1.403 . S
C827 C824 1.403 . S
C827 C828 1.524 . S
C827 C831 1.400 . S
C828 H813 0.960 . S
C828 H814 0.960 . S
C828 H815 0.960 . S
C828 C827 1.524 . S
C829 C826 1.403 . S
C829 C830 1.392 . S
C829 C833 1.495 . S
C830 C829 1.392 . S
C830 C831 1.385 . S
C830 C832 1.478 . S
C831 H825 0.930 . S
C831 C827 1.400 . S
C831 C830 1.385 . S
C832 C830 1.478 . S
C832 C834 1.381 . S
C832 C838 1.383 . S
C833 C829 1.495 . S
C833 H839 0.959 . S
C833 H840 0.961 . S
C833 H841 0.960 . S
C834 C832 1.381 . S
C834 C835 1.394 . S
C834 H842 0.930 . S
C835 C834 1.394 . S
C835 C836 1.383 . S
C835 H843 0.929 . S
C836 C835 1.383 . S
C836 C837 1.377 . S
C837 H821 0.930 . S
C837 C836 1.377 . S
C837 C838 1.379 . S
C838 H822 0.931 . S
C838 C832 1.383 . S
C838 C837 1.379 . S
H839 C833 0.959 . S
H840 C833 0.961 . S
H841 C833 0.960 . S
H842 C834 0.930 . S
H843 C835 0.929 . S
H844 C852 0.929 . S
H845 C854 0.930 . S
H846 C856 0.930 . S
H847 C859 0.929 . S
H848 C862 0.930 . S
H849 C864 0.960 . S
H850 C864 0.960 1_545 S
H851 C864 0.960 . S
C852 H844 0.929 . S
C852 C853 1.377 . S
C852 C854 1.384 1_545 S
C853 C852 1.377 . S
C853 C859 1.390 . S
C854 H845 0.930 . S
C854 C852 1.384 1_565 S
C854 C855 1.372 . S
C855 C854 1.372 . S
C855 C856 1.400 . S
C855 C860 1.490 . S
C856 H846 0.930 . S
C856 C855 1.400 . S
C856 C859 1.386 1_565 S
H857 C873 0.930 . S
H858 C874 0.931 . S
C859 H847 0.929 . S
C859 C853 1.390 . S
C859 C856 1.386 1_545 S
C860 C855 1.490 . S
C860 C862 1.395 . S
C860 C863 1.403 . S
H861 C867 0.930 . S
C862 H848 0.930 . S
C862 C860 1.395 . S
C862 C865 1.403 . S
C863 C860 1.403 . S
C863 C864 1.524 . S
C863 C867 1.400 . S
C864 H849 0.960 . S
C864 H850 0.960 1_565 S
C864 H851 0.960 . S
C864 C863 1.524 . S
C865 C862 1.403 . S
C865 C866 1.392 . S
C865 C869 1.495 . S
C866 C865 1.392 . S
C866 C867 1.385 . S
C866 C868 1.478 . S
C867 H861 0.930 . S
C867 C863 1.400 . S
C867 C866 1.385 . S
C868 C866 1.478 . S
C868 C870 1.381 . S
C868 C874 1.383 . S
C869 C865 1.495 . S
C869 H875 0.959 . S
C869 H876 0.961 . S
C869 H877 0.960 . S
C870 C868 1.381 . S
C870 C871 1.394 . S
C870 H878 0.930 . S
C871 C870 1.394 . S
C871 C872 1.383 . S
C871 H879 0.929 . S
C872 C871 1.383 . S
C872 C873 1.377 . S
C873 H857 0.930 . S
C873 C872 1.377 . S
C873 C874 1.379 . S
C874 H858 0.931 . S
C874 C868 1.383 . S
C874 C873 1.379 . S
H875 C869 0.959 . S
H876 C869 0.961 . S
H877 C869 0.960 . S
H878 C870 0.930 . S
H879 C871 0.929 . S
H880 C888 0.929 . S
H881 C890 0.930 . S
H882 C892 0.930 . S
H883 C895 0.940 . S
H884 C898 0.930 . S
H885 C900 0.960 . S
H886 C900 0.960 . S
H887 C900 0.960 . S
C888 H880 0.929 . S
C888 C889 1.377 . S
C888 C890 1.384 1_565 S
C889 C888 1.377 . S
C889 C895 1.416 . S
C890 H881 0.930 . S
C890 C888 1.384 1_545 S
C890 C891 1.372 . S
C891 C890 1.372 . S
C891 C892 1.400 . S
C891 C896 1.490 . S
C892 H882 0.930 . S
C892 C891 1.400 . S
C892 C895 1.352 1_545 S
H893 C909 0.930 . S
H894 C910 0.931 . S
C895 H883 0.940 . S
C895 C889 1.416 . S
C895 C892 1.352 1_565 S
C896 C891 1.490 . S
C896 C898 1.395 . S
C896 C899 1.403 . S
H897 C903 0.930 . S
C898 H884 0.930 . S
C898 C896 1.395 . S
C898 C901 1.403 . S
C899 C896 1.403 . S
C899 C900 1.524 . S
C899 C903 1.400 . S
C900 H885 0.960 . S
C900 H886 0.960 . S
C900 H887 0.960 . S
C900 C899 1.524 . S
C901 C898 1.403 . S
C901 C902 1.392 . S
C901 C905 1.495 . S
C902 C901 1.392 . S
C902 C903 1.385 . S
C902 C904 1.478 . S
C903 H897 0.930 . S
C903 C899 1.400 . S
C903 C902 1.385 . S
C904 C902 1.478 . S
C904 C906 1.381 . S
C904 C910 1.383 . S
C905 C901 1.495 . S
C905 H911 0.959 . S
C905 H912 0.961 . S
C905 H913 0.960 . S
C906 C904 1.381 . S
C906 C907 1.394 . S
C906 H914 0.930 . S
C907 C906 1.394 . S
C907 C908 1.383 . S
C907 H915 0.929 . S
C908 C907 1.383 . S
C908 C909 1.377 . S
C909 H893 0.930 . S
C909 C908 1.377 . S
C909 C910 1.379 . S
C910 H894 0.931 . S
C910 C904 1.383 . S
C910 C909 1.379 . S
H911 C905 0.959 . S
H912 C905 0.961 . S
H913 C905 0.960 . S
H914 C906 0.930 . S
H915 C907 0.929 . S
H916 C924 0.929 . S
H917 C926 0.930 . S
H918 C928 0.930 . S
H919 C931 0.929 . S
H920 C934 0.930 . S
H921 C936 0.960 . S
H922 C936 0.960 . S
H923 C936 0.960 . S
C924 H916 0.929 . S
C924 C925 1.377 1_565 S
C924 C926 1.384 . S
C925 C924 1.377 1_545 S
C925 C931 1.390 . S
C926 H917 0.930 . S
C926 C924 1.384 . S
C926 C927 1.372 . S
C927 C926 1.372 . S
C927 C928 1.400 1_565 S
C927 C932 1.490 . S
C928 H918 0.930 . S
C928 C927 1.400 1_545 S
C928 C931 1.386 . S
H929 C945 0.930 . S
H930 C946 0.931 . S
C931 H919 0.929 . S
C931 C925 1.390 . S
C931 C928 1.386 . S
C932 C927 1.490 . S
C932 C934 1.395 . S
C932 C935 1.403 . S
H933 C939 0.930 . S
C934 H920 0.930 . S
C934 C932 1.395 . S
C934 C937 1.403 . S
C935 C932 1.403 . S
C935 C936 1.524 . S
C935 C939 1.400 . S
C936 H921 0.960 . S
C936 H922 0.960 . S
C936 H923 0.960 . S
C936 C935 1.524 . S
C937 C934 1.403 . S
C937 C938 1.392 . S
C937 C941 1.495 . S
C938 C937 1.392 . S
C938 C939 1.385 . S
C938 C940 1.478 . S
C939 H933 0.930 . S
C939 C935 1.400 . S
C939 C938 1.385 . S
C940 C938 1.478 . S
C940 C942 1.381 . S
C940 C946 1.383 . S
C941 C937 1.495 . S
C941 H947 0.959 . S
C941 H948 0.961 . S
C941 H949 0.960 . S
C942 C940 1.381 . S
C942 C943 1.394 . S
C942 H950 0.930 . S
C943 C942 1.394 . S
C943 C944 1.383 . S
C943 H951 0.929 . S
C944 C943 1.383 . S
C944 C945 1.377 . S
C945 H929 0.930 . S
C945 C944 1.377 . S
C945 C946 1.379 . S
C946 H930 0.931 . S
C946 C940 1.383 . S
C946 C945 1.379 . S
H947 C941 0.959 . S
H948 C941 0.961 . S
H949 C941 0.960 . S
H950 C942 0.930 . S
H951 C943 0.929 . S
H952 C960 0.929 . S
H953 C962 0.930 . S
H954 C964 0.930 . S
H955 C967 0.929 . S
H956 C970 0.930 . S
H957 C972 0.960 . S
H958 C972 0.960 . S
H959 C972 0.960 . S
C960 H952 0.929 . S
C960 C961 1.377 . S
C960 C962 1.384 . S
C961 C960 1.377 . S
C961 C967 1.390 . S
C962 H953 0.930 . S
C962 C960 1.384 . S
C962 C963 1.372 . S
C963 C962 1.372 . S
C963 C964 1.400 . S
C963 C968 1.490 . S
C964 H954 0.930 . S
C964 C963 1.400 . S
C964 C967 1.386 . S
H965 C981 0.930 . S
H966 C982 0.931 . S
C967 H955 0.929 . S
C967 C961 1.390 . S
C967 C964 1.386 . S
C968 C963 1.490 . S
C968 C970 1.395 . S
C968 C971 1.403 . S
H969 C975 0.930 . S
C970 H956 0.930 . S
C970 C968 1.395 . S
C970 C973 1.403 . S
C971 C968 1.403 . S
C971 C972 1.524 . S
C971 C975 1.400 . S
C972 H957 0.960 . S
C972 H958 0.960 . S
C972 H959 0.960 . S
C972 C971 1.524 . S
C973 C970 1.403 . S
C973 C974 1.392 . S
C973 C977 1.495 . S
C974 C973 1.392 . S
C974 C975 1.385 . S
C974 C976 1.478 . S
C975 H969 0.930 . S
C975 C971 1.400 . S
C975 C974 1.385 . S
C976 C974 1.478 . S
C976 C978 1.381 . S
C976 C982 1.383 . S
C977 C973 1.495 . S
C977 H983 0.959 . S
C977 H984 0.961 . S
C977 H985 0.960 . S
C978 C976 1.381 . S
C978 C979 1.394 . S
C978 H986 0.930 . S
C979 C978 1.394 . S
C979 C980 1.383 . S
C979 H987 0.929 . S
C980 C979 1.383 . S
C980 C981 1.377 . S
C981 H965 0.930 . S
C981 C980 1.377 . S
C981 C982 1.379 . S
C982 H966 0.931 . S
C982 C976 1.383 . S
C982 C981 1.379 . S
H983 C977 0.959 . S
H984 C977 0.961 . S
H985 C977 0.960 . S
H986 C978 0.930 . S
H987 C979 0.929 . S
H988 C996 0.929 . S
H989 C998 0.930 . S
H990 C1000 0.930 . S
H991 C1003 0.929 . S
H992 C1006 0.930 . S
H993 C1008 0.960 . S
H994 C1008 0.960 . S
H995 C1008 0.960 . S
C996 H988 0.929 . S
C996 C997 1.377 . S
C996 C998 1.384 . S
C997 C996 1.377 . S
C997 C1003 1.390 . S
C998 H989 0.930 . S
C998 C996 1.384 . S
C998 C999 1.372 . S
C999 C998 1.372 . S
C999 C1000 1.400 . S
C999 C1004 1.490 . S
C1000 H990 0.930 . S
C1000 C999 1.400 . S
C1000 C1003 1.386 . S
H1001 C1017 0.930 . S
H1002 C1018 0.931 . S
C1003 H991 0.929 . S
C1003 C997 1.390 . S
C1003 C1000 1.386 . S
C1004 C999 1.490 . S
C1004 C1006 1.395 . S
C1004 C1007 1.403 . S
H1005 C1011 0.930 . S
C1006 H992 0.930 . S
C1006 C1004 1.395 . S
C1006 C1009 1.403 . S
C1007 C1004 1.403 . S
C1007 C1008 1.524 . S
C1007 C1011 1.400 . S
C1008 H993 0.960 . S
C1008 H994 0.960 . S
C1008 H995 0.960 . S
C1008 C1007 1.524 . S
C1009 C1006 1.403 . S
C1009 C1010 1.392 . S
C1009 C1013 1.495 . S
C1010 C1009 1.392 . S
C1010 C1011 1.385 . S
C1010 C1012 1.478 . S
C1011 H1005 0.930 . S
C1011 C1007 1.400 . S
C1011 C1010 1.385 . S
C1012 C1010 1.478 . S
C1012 C1014 1.381 . S
C1012 C1018 1.383 . S
C1013 C1009 1.495 . S
C1013 H1019 0.959 . S
C1013 H1020 0.961 . S
C1013 H1021 0.960 . S
C1014 C1012 1.381 . S
C1014 C1015 1.394 . S
C1014 H1022 0.930 . S
C1015 C1014 1.394 . S
C1015 C1016 1.383 . S
C1015 H1023 0.929 . S
C1016 C1015 1.383 . S
C1016 C1017 1.377 . S
C1017 H1001 0.930 . S
C1017 C1016 1.377 . S
C1017 C1018 1.379 . S
C1018 H1002 0.931 . S
C1018 C1012 1.383 . S
C1018 C1017 1.379 . S
H1019 C1013 0.959 . S
H1020 C1013 0.961 . S
H1021 C1013 0.960 . S
H1022 C1014 0.930 . S
H1023 C1015 0.929 . S
H1024 C1032 0.929 . S
H1025 C1034 0.930 . S
H1026 C1036 0.930 . S
H1027 C1039 0.929 . S
H1028 C1042 0.930 . S
H1029 C1044 0.960 . S
H1030 C1044 0.960 . S
H1031 C1044 0.960 . S
C1032 H1024 0.929 . S
C1032 C1033 1.377 . S
C1032 C1034 1.384 . S
C1033 C1032 1.377 . S
C1033 C1039 1.390 . S
C1034 H1025 0.930 . S
C1034 C1032 1.384 . S
C1034 C1035 1.372 . S
C1035 C1034 1.372 . S
C1035 C1036 1.400 . S
C1035 C1040 1.490 . S
C1036 H1026 0.930 . S
C1036 C1035 1.400 . S
C1036 C1039 1.386 . S
H1037 C1053 0.930 . S
H1038 C1054 0.931 . S
C1039 H1027 0.929 . S
C1039 C1033 1.390 . S
C1039 C1036 1.386 . S
C1040 C1035 1.490 . S
C1040 C1042 1.395 . S
C1040 C1043 1.403 . S
H1041 C1047 0.930 . S
C1042 H1028 0.930 . S
C1042 C1040 1.395 . S
C1042 C1045 1.403 . S
C1043 C1040 1.403 . S
C1043 C1044 1.524 . S
C1043 C1047 1.400 . S
C1044 H1029 0.960 . S
C1044 H1030 0.960 . S
C1044 H1031 0.960 . S
C1044 C1043 1.524 . S
C1045 C1042 1.403 . S
C1045 C1046 1.392 . S
C1045 C1049 1.495 . S
C1046 C1045 1.392 . S
C1046 C1047 1.385 . S
C1046 C1048 1.478 . S
C1047 H1041 0.930 . S
C1047 C1043 1.400 . S
C1047 C1046 1.385 . S
C1048 C1046 1.478 . S
C1048 C1050 1.381 . S
C1048 C1054 1.383 . S
C1049 C1045 1.495 . S
C1049 H1055 0.959 . S
C1049 H1056 0.961 . S
C1049 H1057 0.960 . S
C1050 C1048 1.381 . S
C1050 C1051 1.394 . S
C1050 H1058 0.930 . S
C1051 C1050 1.394 . S
C1051 C1052 1.383 . S
C1051 H1059 0.929 . S
C1052 C1051 1.383 . S
C1052 C1053 1.377 . S
C1053 H1037 0.930 . S
C1053 C1052 1.377 . S
C1053 C1054 1.379 . S
C1054 H1038 0.931 . S
C1054 C1048 1.383 . S
C1054 C1053 1.379 . S
H1055 C1049 0.959 . S
H1056 C1049 0.961 . S
H1057 C1049 0.960 . S
H1058 C1050 0.930 . S
H1059 C1051 0.929 . S
H1060 C1068 0.929 . S
H1061 C1070 0.930 . S
H1062 C1072 0.930 . S
H1063 C1075 0.929 . S
H1064 C1078 0.930 . S
H1065 C1080 0.960 . S
H1066 C1080 0.960 . S
H1067 C1080 0.960 . S
C1068 H1060 0.929 . S
C1068 C1069 1.377 . S
C1068 C1070 1.384 . S
C1069 C1068 1.377 . S
C1069 C1075 1.390 . S
C1070 H1061 0.930 . S
C1070 C1068 1.384 . S
C1070 C1071 1.372 . S
C1071 C1070 1.372 . S
C1071 C1072 1.400 . S
C1071 C1076 1.490 . S
C1072 H1062 0.930 . S
C1072 C1071 1.400 . S
C1072 C1075 1.386 . S
H1073 C1089 0.930 . S
H1074 C1090 0.931 . S
C1075 H1063 0.929 . S
C1075 C1069 1.390 . S
C1075 C1072 1.386 . S
C1076 C1071 1.490 . S
C1076 C1078 1.395 . S
C1076 C1079 1.403 . S
H1077 C1083 0.930 . S
C1078 H1064 0.930 . S
C1078 C1076 1.395 . S
C1078 C1081 1.403 . S
C1079 C1076 1.403 . S
C1079 C1080 1.524 . S
C1079 C1083 1.400 . S
C1080 H1065 0.960 . S
C1080 H1066 0.960 . S
C1080 H1067 0.960 . S
C1080 C1079 1.524 . S
C1081 C1078 1.403 . S
C1081 C1082 1.392 . S
C1081 C1085 1.495 . S
C1082 C1081 1.392 . S
C1082 C1083 1.385 . S
C1082 C1084 1.478 . S
C1083 H1077 0.930 . S
C1083 C1079 1.400 . S
C1083 C1082 1.385 . S
C1084 C1082 1.478 . S
C1084 C1086 1.381 . S
C1084 C1090 1.383 . S
C1085 C1081 1.495 . S
C1085 H1091 0.959 . S
C1085 H1092 0.961 . S
C1085 H1093 0.960 . S
C1086 C1084 1.381 . S
C1086 C1087 1.394 . S
C1086 H1094 0.930 . S
C1087 C1086 1.394 . S
C1087 C1088 1.383 . S
C1087 H1095 0.929 . S
C1088 C1087 1.383 . S
C1088 C1089 1.377 . S
C1089 H1073 0.930 . S
C1089 C1088 1.377 . S
C1089 C1090 1.379 . S
C1090 H1074 0.931 . S
C1090 C1084 1.383 . S
C1090 C1089 1.379 . S
H1091 C1085 0.959 . S
H1092 C1085 0.961 . S
H1093 C1085 0.960 . S
H1094 C1086 0.930 . S
H1095 C1087 0.929 . S
H1096 C1104 0.929 . S
H1097 C1106 0.930 . S
H1098 C1108 0.930 . S
H1099 C1111 0.929 . S
H1100 C1114 0.930 . S
H1101 C1116 0.960 . S
H1102 C1116 0.960 . S
H1103 C1116 0.960 . S
C1104 H1096 0.929 . S
C1104 C1105 1.377 . S
C1104 C1106 1.384 . S
C1105 C1104 1.377 . S
C1105 C1111 1.390 . S
C1106 H1097 0.930 . S
C1106 C1104 1.384 . S
C1106 C1107 1.372 . S
C1107 C1106 1.372 . S
C1107 C1108 1.400 . S
C1107 C1112 1.490 . S
C1108 H1098 0.930 . S
C1108 C1107 1.400 . S
C1108 C1111 1.386 . S
H1109 C1125 0.930 . S
H1110 C1126 0.931 . S
C1111 H1099 0.929 . S
C1111 C1105 1.390 . S
C1111 C1108 1.386 . S
C1112 C1107 1.490 . S
C1112 C1114 1.395 . S
C1112 C1115 1.403 . S
H1113 C1119 0.930 . S
C1114 H1100 0.930 . S
C1114 C1112 1.395 . S
C1114 C1117 1.403 . S
C1115 C1112 1.403 . S
C1115 C1116 1.524 . S
C1115 C1119 1.400 . S
C1116 H1101 0.960 . S
C1116 H1102 0.960 . S
C1116 H1103 0.960 . S
C1116 C1115 1.524 . S
C1117 C1114 1.403 . S
C1117 C1118 1.392 . S
C1117 C1121 1.495 . S
C1118 C1117 1.392 . S
C1118 C1119 1.385 . S
C1118 C1120 1.478 . S
C1119 H1113 0.930 . S
C1119 C1115 1.400 . S
C1119 C1118 1.385 . S
C1120 C1118 1.478 . S
C1120 C1122 1.381 . S
C1120 C1126 1.383 . S
C1121 C1117 1.495 . S
C1121 H1127 0.959 . S
C1121 H1128 0.961 . S
C1121 H1129 0.960 . S
C1122 C1120 1.381 . S
C1122 C1123 1.394 . S
C1122 H1130 0.930 . S
C1123 C1122 1.394 . S
C1123 C1124 1.383 . S
C1123 H1131 0.929 . S
C1124 C1123 1.383 . S
C1124 C1125 1.377 . S
C1125 H1109 0.930 . S
C1125 C1124 1.377 . S
C1125 C1126 1.379 . S
C1126 H1110 0.931 . S
C1126 C1120 1.383 . S
C1126 C1125 1.379 . S
H1127 C1121 0.959 . S
H1128 C1121 0.961 . S
H1129 C1121 0.960 . S
H1130 C1122 0.930 . S
H1131 C1123 0.929 . S
H1132 C1140 0.929 . S
H1133 C1142 0.930 . S
H1134 C1144 0.930 . S
H1135 C1147 0.929 . S
H1136 C1150 0.930 . S
H1137 C1152 0.960 . S
H1138 C1152 0.960 . S
H1139 C1152 0.960 . S
C1140 H1132 0.929 . S
C1140 C1141 1.377 . S
C1140 C1142 1.384 . S
C1141 C1140 1.377 . S
C1141 C1147 1.390 . S
C1142 H1133 0.930 . S
C1142 C1140 1.384 . S
C1142 C1143 1.372 . S
C1143 C1142 1.372 . S
C1143 C1144 1.400 . S
C1143 C1148 1.490 . S
C1144 H1134 0.930 . S
C1144 C1143 1.400 . S
C1144 C1147 1.386 . S
H1145 C1161 0.930 . S
H1146 C1162 0.931 . S
C1147 H1135 0.929 . S
C1147 C1141 1.390 . S
C1147 C1144 1.386 . S
C1148 C1143 1.490 . S
C1148 C1150 1.395 . S
C1148 C1151 1.403 . S
H1149 C1155 0.930 . S
C1150 H1136 0.930 . S
C1150 C1148 1.395 . S
C1150 C1153 1.403 . S
C1151 C1148 1.403 . S
C1151 C1152 1.524 . S
C1151 C1155 1.400 . S
C1152 H1137 0.960 . S
C1152 H1138 0.960 . S
C1152 H1139 0.960 . S
C1152 C1151 1.524 . S
C1153 C1150 1.403 . S
C1153 C1154 1.392 . S
C1153 C1157 1.495 . S
C1154 C1153 1.392 . S
C1154 C1155 1.385 . S
C1154 C1156 1.478 . S
C1155 H1149 0.930 . S
C1155 C1151 1.400 . S
C1155 C1154 1.385 . S
C1156 C1154 1.478 . S
C1156 C1158 1.381 . S
C1156 C1162 1.383 . S
C1157 C1153 1.495 . S
C1157 H1163 0.959 . S
C1157 H1164 0.961 . S
C1157 H1165 0.960 . S
C1158 C1156 1.381 . S
C1158 C1159 1.394 . S
C1158 H1166 0.930 . S
C1159 C1158 1.394 . S
C1159 C1160 1.383 . S
C1159 H1167 0.929 . S
C1160 C1159 1.383 . S
C1160 C1161 1.377 . S
C1161 H1145 0.930 . S
C1161 C1160 1.377 . S
C1161 C1162 1.379 . S
C1162 H1146 0.931 . S
C1162 C1156 1.383 . S
C1162 C1161 1.379 . S
H1163 C1157 0.959 . S
H1164 C1157 0.961 . S
H1165 C1157 0.960 . S
H1166 C1158 0.930 . S
H1167 C1159 0.929 . S
H1168 C1176 0.929 . S
H1169 C1178 0.930 . S
H1170 C1180 0.930 . S
H1171 C1183 0.929 . S
H1172 C1186 0.930 . S
H1173 C1188 0.960 . S
H1174 C1188 0.960 . S
H1175 C1188 0.960 . S
C1176 H1168 0.929 . S
C1176 C1177 1.377 . S
C1176 C1178 1.384 . S
C1177 C1176 1.377 . S
C1177 C1183 1.390 . S
C1178 H1169 0.930 . S
C1178 C1176 1.384 . S
C1178 C1179 1.372 . S
C1179 C1178 1.372 . S
C1179 C1180 1.400 . S
C1179 C1184 1.490 . S
C1180 H1170 0.930 . S
C1180 C1179 1.400 . S
C1180 C1183 1.386 . S
H1181 C1197 0.930 . S
H1182 C1198 0.931 . S
C1183 H1171 0.929 . S
C1183 C1177 1.390 . S
C1183 C1180 1.386 . S
C1184 C1179 1.490 . S
C1184 C1186 1.395 . S
C1184 C1187 1.403 . S
H1185 C1191 0.930 . S
C1186 H1172 0.930 . S
C1186 C1184 1.395 . S
C1186 C1189 1.403 . S
C1187 C1184 1.403 . S
C1187 C1188 1.524 . S
C1187 C1191 1.400 . S
C1188 H1173 0.960 . S
C1188 H1174 0.960 . S
C1188 H1175 0.960 . S
C1188 C1187 1.524 . S
C1189 C1186 1.403 . S
C1189 C1190 1.392 . S
C1189 C1193 1.495 . S
C1190 C1189 1.392 . S
C1190 C1191 1.385 . S
C1190 C1192 1.478 . S
C1191 H1185 0.930 . S
C1191 C1187 1.400 . S
C1191 C1190 1.385 . S
C1192 C1190 1.478 . S
C1192 C1194 1.381 . S
C1192 C1198 1.383 . S
C1193 C1189 1.495 . S
C1193 H1199 0.959 . S
C1193 H1200 0.961 . S
C1193 H1201 0.960 . S
C1194 C1192 1.381 . S
C1194 C1195 1.394 . S
C1194 H1202 0.930 . S
C1195 C1194 1.394 . S
C1195 C1196 1.383 . S
C1195 H1203 0.929 . S
C1196 C1195 1.383 . S
C1196 C1197 1.377 . S
C1197 H1181 0.930 . S
C1197 C1196 1.377 . S
C1197 C1198 1.379 . S
C1198 H1182 0.931 . S
C1198 C1192 1.383 . S
C1198 C1197 1.379 . S
H1199 C1193 0.959 . S
H1200 C1193 0.961 . S
H1201 C1193 0.960 . S
H1202 C1194 0.930 . S
H1203 C1195 0.929 . S
H1204 C1212 0.929 . S
H1205 C1214 0.930 . S
H1206 C1216 0.930 . S
H1207 C1219 0.929 . S
H1208 C1222 0.930 . S
H1209 C1224 0.960 . S
H1210 C1224 0.960 . S
H1211 C1224 0.960 . S
C1212 H1204 0.929 . S
C1212 C1213 1.377 . S
C1212 C1214 1.384 . S
C1213 C1212 1.377 . S
C1213 C1219 1.390 . S
C1214 H1205 0.930 . S
C1214 C1212 1.384 . S
C1214 C1215 1.372 . S
C1215 C1214 1.372 . S
C1215 C1216 1.400 . S
C1215 C1220 1.490 . S
C1216 H1206 0.930 . S
C1216 C1215 1.400 . S
C1216 C1219 1.386 . S
H1217 C1233 0.930 . S
H1218 C1234 0.931 . S
C1219 H1207 0.929 . S
C1219 C1213 1.390 . S
C1219 C1216 1.386 . S
C1220 C1215 1.490 . S
C1220 C1222 1.395 . S
C1220 C1223 1.403 . S
H1221 C1227 0.930 . S
C1222 H1208 0.930 . S
C1222 C1220 1.395 . S
C1222 C1225 1.403 . S
C1223 C1220 1.403 . S
C1223 C1224 1.524 . S
C1223 C1227 1.400 . S
C1224 H1209 0.960 . S
C1224 H1210 0.960 . S
C1224 H1211 0.960 . S
C1224 C1223 1.524 . S
C1225 C1222 1.403 . S
C1225 C1226 1.392 . S
C1225 C1229 1.495 . S
C1226 C1225 1.392 . S
C1226 C1227 1.385 . S
C1226 C1228 1.478 . S
C1227 H1221 0.930 . S
C1227 C1223 1.400 . S
C1227 C1226 1.385 . S
C1228 C1226 1.478 . S
C1228 C1230 1.381 . S
C1228 C1234 1.383 . S
C1229 C1225 1.495 . S
C1229 H1235 0.959 . S
C1229 H1236 0.961 . S
C1229 H1237 0.960 . S
C1230 C1228 1.381 . S
C1230 C1231 1.394 . S
C1230 H1238 0.930 . S
C1231 C1230 1.394 . S
C1231 C1232 1.383 . S
C1231 H1239 0.929 . S
C1232 C1231 1.383 . S
C1232 C1233 1.377 . S
C1233 H1217 0.930 . S
C1233 C1232 1.377 . S
C1233 C1234 1.379 . S
C1234 H1218 0.931 . S
C1234 C1228 1.383 . S
C1234 C1233 1.379 . S
H1235 C1229 0.959 . S
H1236 C1229 0.961 . S
H1237 C1229 0.960 . S
H1238 C1230 0.930 . S
H1239 C1231 0.929 . S
C385 C25 1.526 . S
C404 C331 1.532 . S
C440 C295 1.510 . S
C421 C61 1.519 . S
C476 C318 1.520 . S
C457 C97 1.523 . S
C512 C306 1.502 . S
C493 C133 1.522 . S
C548 C375 1.540 . S
C529 C169 1.523 . S
C584 C339 1.536 . S
C565 C205 1.521 . S
C601 C241 1.525 . S
C620 C362 1.512 . S
C656 C350 1.524 . S
C637 C277 1.524 . S
C673 C31 1.470 . S
C692 C372 1.493 . S
C728 C342 1.499 . S
C709 C67 1.473 . S
C745 C103 1.530 . S
C764 C361 1.517 . S
C781 C139 1.525 . S
C800 C347 1.540 . S
C836 C328 1.493 . S
C817 C175 1.471 . S
C853 C211 1.467 . S
C872 C298 1.503 . S
C908 C317 1.523 . S
C889 C247 1.530 . S
C944 C303 1.540 . S
C925 C283 1.525 . S
C980 C353 1.486 . S
C961 C1 1.489 . S
C1016 C369 1.496 . S
C997 C37 1.490 . S
C1033 C73 1.462 . S
C1052 C340 1.455 . S
C1088 C364 1.455 . S
C1069 C109 1.461 . S
C1124 C309 1.479 . S
C1105 C145 1.485 . S
C1141 C181 1.484 . S
C1160 C325 1.480 . S
C1177 C217 1.461 . S
C1196 C296 1.455 . S
C1213 C253 1.462 . S
C1232 C320 1.453 . S
