# Generated by pormake.
# Topology pyr, (3,6)-cn, num edge types: 1
# Building blocks:
#     Node 0, Type 0, BuildingBlock: BELTOD_clean_linker_0, # of connection points: 3
#     Node 1, Type 0, BuildingBlock: BELTOD_clean_linker_0, # of connection points: 3
#     Node 2, Type 0, BuildingBlock: BELTOD_clean_linker_0, # of connection points: 3
#     Node 3, Type 0, BuildingBlock: BELTOD_clean_linker_0, # of connection points: 3
#     Node 4, Type 0, BuildingBlock: BELTOD_clean_linker_0, # of connection points: 3
#     Node 5, Type 0, BuildingBlock: BELTOD_clean_linker_0, # of connection points: 3
#     Node 6, Type 0, BuildingBlock: BELTOD_clean_linker_0, # of connection points: 3
#     Node 7, Type 0, BuildingBlock: BELTOD_clean_linker_0, # of connection points: 3
#     Node 8, Type 1, BuildingBlock: LEVNOQ01_clean_sbu_1, # of connection points: 6
#     Node 9, Type 1, BuildingBlock: LEVNOQ01_clean_sbu_1, # of connection points: 6
#     Node 10, Type 1, BuildingBlock: LEVNOQ01_clean_sbu_1, # of connection points: 6
#     Node 11, Type 1, BuildingBlock: LEVNOQ01_clean_sbu_1, # of connection points: 6
#     Edge 12, Type (0, 1), BuildingBlock: UVAHIK_clean_linker_0, # of connection points: 2
#     Edge 13, Type (0, 1), BuildingBlock: UVAHIK_clean_linker_0, # of connection points: 2
#     Edge 14, Type (0, 1), BuildingBlock: UVAHIK_clean_linker_0, # of connection points: 2
#     Edge 15, Type (0, 1), BuildingBlock: UVAHIK_clean_linker_0, # of connection points: 2
#     Edge 16, Type (0, 1), BuildingBlock: UVAHIK_clean_linker_0, # of connection points: 2
#     Edge 17, Type (0, 1), BuildingBlock: UVAHIK_clean_linker_0, # of connection points: 2
#     Edge 18, Type (0, 1), BuildingBlock: UVAHIK_clean_linker_0, # of connection points: 2
#     Edge 19, Type (0, 1), BuildingBlock: UVAHIK_clean_linker_0, # of connection points: 2
#     Edge 20, Type (0, 1), BuildingBlock: UVAHIK_clean_linker_0, # of connection points: 2
#     Edge 21, Type (0, 1), BuildingBlock: UVAHIK_clean_linker_0, # of connection points: 2
#     Edge 22, Type (0, 1), BuildingBlock: UVAHIK_clean_linker_0, # of connection points: 2
#     Edge 23, Type (0, 1), BuildingBlock: UVAHIK_clean_linker_0, # of connection points: 2
#     Edge 24, Type (0, 1), BuildingBlock: UVAHIK_clean_linker_0, # of connection points: 2
#     Edge 25, Type (0, 1), BuildingBlock: UVAHIK_clean_linker_0, # of connection points: 2
#     Edge 26, Type (0, 1), BuildingBlock: UVAHIK_clean_linker_0, # of connection points: 2
#     Edge 27, Type (0, 1), BuildingBlock: UVAHIK_clean_linker_0, # of connection points: 2
#     Edge 28, Type (0, 1), BuildingBlock: UVAHIK_clean_linker_0, # of connection points: 2
#     Edge 29, Type (0, 1), BuildingBlock: UVAHIK_clean_linker_0, # of connection points: 2
#     Edge 30, Type (0, 1), BuildingBlock: UVAHIK_clean_linker_0, # of connection points: 2
#     Edge 31, Type (0, 1), BuildingBlock: UVAHIK_clean_linker_0, # of connection points: 2
#     Edge 32, Type (0, 1), BuildingBlock: UVAHIK_clean_linker_0, # of connection points: 2
#     Edge 33, Type (0, 1), BuildingBlock: UVAHIK_clean_linker_0, # of connection points: 2
#     Edge 34, Type (0, 1), BuildingBlock: UVAHIK_clean_linker_0, # of connection points: 2
#     Edge 35, Type (0, 1), BuildingBlock: UVAHIK_clean_linker_0, # of connection points: 2
# Relax obj value: 0.036
# Max RMSD: 0.108
# Mean RMSD: 0.051
data_MOF--net-pry--node1-LEVNOQ01_clean_sbu_1--node2-BELTOD_clean_linker_0--edge1-UVAHIK_clean_linker_0
_symmetry_space_group_name_H-M    P1
_symmetry_Int_Tables_number       1
_symmetry_cell_setting            triclinic
loop_
_symmetry_equiv_pos_as_xyz
'x, y, z'
_cell_length_a     53.480764
_cell_length_b     51.950501
_cell_length_c     51.357793
_cell_angle_alpha  92.168346
_cell_angle_beta   91.490108
_cell_angle_gamma 93.940486
loop_
_atom_site_label
_atom_site_type_symbol
_atom_site_fract_x
_atom_site_fract_y
_atom_site_fract_z
_atom_type_partial_charge
P0 P 0.15916 0.15962 0.15148 0.0
H1 H 0.20021 0.17656 0.11911 0.0
H2 H 0.23096 0.15345 0.09481 0.0
H3 H 0.19184 0.08085 0.11217 0.0
H4 H 0.16115 0.10416 0.13659 0.0
H5 H 0.14464 0.21131 0.16466 0.0
H6 H 0.12361 0.24322 0.1399 0.0
H7 H 0.11125 0.18801 0.07518 0.0
H8 H 0.13293 0.15601 0.1 0.0
H9 H 0.17354 0.12509 0.19119 0.0
H10 H 0.10449 0.14884 0.15766 0.0
O11 O 0.17893 0.17769 0.17147 0.0
H12 H 0.15017 0.10114 0.22359 0.0
H13 H 0.08072 0.12439 0.18991 0.0
C14 C 0.17859 0.14211 0.12989 0.0
C15 C 0.19801 0.15568 0.1173 0.0
C16 C 0.21553 0.14243 0.10332 0.0
C17 C 0.21397 0.11528 0.10171 0.0
C18 C 0.19376 0.10175 0.11338 0.0
C19 C 0.17614 0.11508 0.12728 0.0
C20 C 0.14083 0.18151 0.13393 0.0
C21 C 0.1374 0.20596 0.14518 0.0
C22 C 0.12539 0.22419 0.13105 0.0
C23 C 0.11612 0.21812 0.10557 0.0
C24 C 0.1183 0.19312 0.09479 0.0
C25 C 0.1307 0.17491 0.10889 0.0
C26 C 0.1408 0.13882 0.17212 0.0
C27 C 0.15325 0.1247 0.19051 0.0
C28 C 0.1398 0.11086 0.20897 0.0
C29 C 0.11351 0.11085 0.20946 0.0
C30 C 0.10097 0.12426 0.19029 0.0
C31 C 0.11452 0.13813 0.17174 0.0
P32 P 0.38614 0.90148 0.59159 0.0
H33 H 0.4335 0.91162 0.62037 0.0
H34 H 0.44407 0.92331 0.66617 0.0
H35 H 0.36527 0.91921 0.6833 0.0
H36 H 0.35485 0.90731 0.63766 0.0
H37 H 0.40351 0.87763 0.54369 0.0
H38 H 0.41324 0.83347 0.53179 0.0
H39 H 0.39617 0.81046 0.60974 0.0
H40 H 0.38595 0.85449 0.62125 0.0
H41 H 0.35614 0.94584 0.59304 0.0
H42 H 0.34413 0.86411 0.57458 0.0
O43 O 0.40295 0.92229 0.57391 0.0
H44 H 0.31141 0.95082 0.58533 0.0
H45 H 0.29947 0.86907 0.56666 0.0
C46 C 0.39343 0.90924 0.6255 0.0
C47 C 0.41853 0.91325 0.63401 0.0
C48 C 0.42453 0.91976 0.66018 0.0
C49 C 0.40546 0.92242 0.67823 0.0
C50 C 0.38032 0.91775 0.66972 0.0
C51 C 0.37436 0.91097 0.64359 0.0
C52 C 0.39459 0.86937 0.58349 0.0
C53 C 0.40211 0.86309 0.55825 0.0
C54 C 0.40769 0.83788 0.5515 0.0
C55 C 0.40561 0.8185 0.56986 0.0
C56 C 0.39778 0.82489 0.59509 0.0
C57 C 0.39219 0.85011 0.6018 0.0
C58 C 0.35347 0.9047 0.58429 0.0
C59 C 0.3439 0.92903 0.58717 0.0
C60 C 0.31837 0.9318 0.58293 0.0
C61 C 0.30202 0.91029 0.5755 0.0
C62 C 0.31172 0.88597 0.57222 0.0
C63 C 0.33726 0.88315 0.57678 0.0
P64 P 0.64603 0.36209 0.83287 0.0
H65 H 0.69998 0.36008 0.84006 0.0
H66 H 0.73111 0.38592 0.86714 0.0
H67 H 0.67286 0.43029 0.89895 0.0
H68 H 0.64148 0.40432 0.87135 0.0
H69 H 0.6061 0.32449 0.81548 0.0
H70 H 0.58301 0.28954 0.83738 0.0
H71 H 0.62276 0.31256 0.9096 0.0
H72 H 0.64541 0.34793 0.88792 0.0
H73 H 0.66081 0.40245 0.79874 0.0
H74 H 0.59191 0.37162 0.83114 0.0
O75 O 0.6611 0.34578 0.81025 0.0
H76 H 0.6373 0.42954 0.77099 0.0
H77 H 0.56802 0.39855 0.80284 0.0
C78 C 0.66856 0.38048 0.85365 0.0
C79 C 0.69385 0.37541 0.85271 0.0
C80 C 0.71162 0.39027 0.86805 0.0
C81 C 0.7043 0.41025 0.88476 0.0
C82 C 0.67885 0.41504 0.88608 0.0
C83 C 0.66104 0.40026 0.87043 0.0
C84 C 0.6272 0.33892 0.85013 0.0
C85 C 0.6094 0.32241 0.83617 0.0
C86 C 0.59623 0.30256 0.84863 0.0
C87 C 0.60115 0.29867 0.87507 0.0
C88 C 0.61869 0.31543 0.88918 0.0
C89 C 0.63157 0.33558 0.87679 0.0
C90 C 0.62806 0.38459 0.81636 0.0
C91 C 0.6406 0.40189 0.80019 0.0
C92 C 0.62713 0.4176 0.78457 0.0
C93 C 0.6008 0.41611 0.78476 0.0
C94 C 0.5883 0.39993 0.80228 0.0
C95 C 0.60193 0.38437 0.81822 0.0
P96 P 0.85206 0.62415 0.37052 0.0
H97 H 0.88786 0.66641 0.35915 0.0
H98 H 0.91371 0.69742 0.38722 0.0
H99 H 0.88968 0.65685 0.45501 0.0
H100 H 0.86453 0.62531 0.42687 0.0
H101 H 0.83362 0.59255 0.32592 0.0
H102 H 0.85408 0.56618 0.29389 0.0
H103 H 0.92447 0.5805 0.3371 0.0
H104 H 0.90367 0.60717 0.36922 0.0
H105 H 0.81465 0.64289 0.40454 0.0
H106 H 0.8397 0.56893 0.37956 0.0
O107 O 0.83684 0.64369 0.3516 0.0
H108 H 0.78305 0.62125 0.43126 0.0
H109 H 0.80772 0.54719 0.40583 0.0
C110 C 0.87391 0.64397 0.39098 0.0
C111 C 0.88856 0.66389 0.37999 0.0
C112 C 0.90335 0.68147 0.39599 0.0
C113 C 0.90347 0.67943 0.42318 0.0
C114 C 0.88969 0.65878 0.43408 0.0
C115 C 0.87526 0.64089 0.418 0.0
C116 C 0.86725 0.60217 0.34951 0.0
C117 C 0.85337 0.58969 0.32871 0.0
C118 C 0.86506 0.57433 0.31061 0.0
C119 C 0.89092 0.57124 0.31299 0.0
C120 C 0.90455 0.58269 0.33472 0.0
C121 C 0.89272 0.598 0.35298 0.0
C122 C 0.82926 0.60752 0.38993 0.0
C123 C 0.81332 0.622 0.40484 0.0
C124 C 0.79548 0.60966 0.42023 0.0
C125 C 0.79313 0.5826 0.42065 0.0
C126 C 0.80921 0.56809 0.40577 0.0
C127 C 0.82738 0.5805 0.39068 0.0
P128 P 0.87943 0.89104 0.90048 0.0
H129 H 0.85834 0.91638 0.94567 0.0
H130 H 0.81621 0.92869 0.95535 0.0
H131 H 0.78838 0.89312 0.88194 0.0
H132 H 0.83084 0.88097 0.8722 0.0
H133 H 0.92207 0.87131 0.92806 0.0
H134 H 0.93209 0.82811 0.94008 0.0
H135 H 0.86261 0.79628 0.90351 0.0
H136 H 0.85221 0.83991 0.89207 0.0
H137 H 0.89682 0.93686 0.87347 0.0
H138 H 0.87474 0.85715 0.85274 0.0
O139 O 0.89875 0.91194 0.91811 0.0
H140 H 0.90687 0.94446 0.82815 0.0
H141 H 0.88482 0.86465 0.80733 0.0
C142 C 0.84781 0.89814 0.90801 0.0
C143 C 0.84323 0.91122 0.9316 0.0
C144 C 0.81914 0.91834 0.9371 0.0
C145 C 0.79905 0.91214 0.91928 0.0
C146 C 0.8035 0.89815 0.89605 0.0
C147 C 0.82774 0.89126 0.89043 0.0
C148 C 0.88624 0.85891 0.9094 0.0
C149 C 0.9088 0.85515 0.9228 0.0
C150 C 0.91455 0.83043 0.92967 0.0
C151 C 0.89808 0.80888 0.92281 0.0
C152 C 0.87566 0.81257 0.90896 0.0
C153 C 0.86968 0.83746 0.90252 0.0
C154 C 0.88556 0.8963 0.86666 0.0
C155 C 0.89421 0.92095 0.85921 0.0
C156 C 0.9 0.92527 0.83329 0.0
C157 C 0.89691 0.90508 0.81422 0.0
C158 C 0.88736 0.88059 0.82158 0.0
C159 C 0.88174 0.87625 0.8476 0.0
P160 P 0.66154 0.164 0.36789 0.0
H161 H 0.67326 0.21437 0.39365 0.0
H162 H 0.64849 0.24278 0.41996 0.0
H163 H 0.58686 0.18426 0.4166 0.0
H164 H 0.61172 0.15607 0.39002 0.0
H165 H 0.70256 0.13441 0.35137 0.0
H166 H 0.73252 0.10962 0.37486 0.0
H167 H 0.698 0.1289 0.44745 0.0
H168 H 0.66762 0.15332 0.42379 0.0
H169 H 0.62425 0.17526 0.32857 0.0
H170 H 0.65285 0.10731 0.36093 0.0
O171 O 0.67839 0.18364 0.34903 0.0
H172 H 0.5988 0.14798 0.29657 0.0
H173 H 0.62778 0.08009 0.32887 0.0
C174 C 0.64398 0.18354 0.38927 0.0
C175 C 0.65445 0.20764 0.3987 0.0
C176 C 0.64037 0.22373 0.41398 0.0
C177 C 0.61562 0.21584 0.42014 0.0
C178 C 0.60572 0.19103 0.41178 0.0
C179 C 0.61987 0.17493 0.39657 0.0
C180 C 0.68304 0.14579 0.38583 0.0
C181 C 0.70135 0.13318 0.37232 0.0
C182 C 0.71829 0.11892 0.3857 0.0
C183 C 0.71738 0.1173 0.4129 0.0
C184 C 0.69901 0.12993 0.42648 0.0
C185 C 0.68174 0.1439 0.41297 0.0
C186 C 0.64077 0.14338 0.34679 0.0
C187 C 0.62483 0.15448 0.32896 0.0
C188 C 0.61019 0.13888 0.31083 0.0
C189 C 0.61145 0.11193 0.31015 0.0
C190 C 0.62666 0.10083 0.32879 0.0
C191 C 0.64107 0.11643 0.34709 0.0
P192 P 0.38707 0.61991 0.11627 0.0
H193 H 0.35946 0.6123 0.06674 0.0
H194 H 0.31484 0.60281 0.05559 0.0
H195 H 0.29924 0.59694 0.13733 0.0
H196 H 0.34359 0.60637 0.14834 0.0
H197 H 0.4318 0.65237 0.10427 0.0
H198 H 0.43914 0.69898 0.09943 0.0
H199 H 0.36071 0.70836 0.11277 0.0
H200 H 0.35352 0.66201 0.11684 0.0
H201 H 0.40196 0.57511 0.1441 0.0
H202 H 0.38581 0.65377 0.16308 0.0
O203 O 0.40582 0.60307 0.09772 0.0
H204 H 0.40795 0.56756 0.19067 0.0
H205 H 0.39192 0.64642 0.20925 0.0
C206 C 0.35492 0.60961 0.10827 0.0
C207 C 0.34645 0.60858 0.08219 0.0
C208 C 0.32098 0.60343 0.07588 0.0
C209 C 0.30362 0.59918 0.09562 0.0
C210 C 0.31225 0.59985 0.12172 0.0
C211 C 0.33767 0.6052 0.128 0.0
C212 C 0.39203 0.65369 0.11019 0.0
C213 C 0.41616 0.66449 0.10567 0.0
C214 C 0.42036 0.69115 0.10325 0.0
C215 C 0.40048 0.70743 0.10563 0.0
C216 C 0.37634 0.6964 0.11028 0.0
C217 C 0.37219 0.66981 0.11258 0.0
C218 C 0.394 0.61512 0.1501 0.0
C219 C 0.40013 0.59084 0.15822 0.0
C220 C 0.40348 0.58655 0.18476 0.0
C221 C 0.40036 0.60644 0.2035 0.0
C222 C 0.39421 0.63071 0.19523 0.0
C223 C 0.39099 0.63499 0.16877 0.0
P224 P 0.1333 0.37121 0.6309 0.0
H225 H 0.14171 0.31984 0.61037 0.0
H226 H 0.11495 0.28715 0.58525 0.0
H227 H 0.05649 0.34011 0.58047 0.0
H228 H 0.08338 0.37303 0.60574 0.0
H229 H 0.18087 0.39888 0.64464 0.0
H230 H 0.21062 0.42527 0.61999 0.0
H231 H 0.1617 0.41405 0.55163 0.0
H232 H 0.13166 0.38781 0.57666 0.0
H233 H 0.08964 0.35818 0.6615 0.0
H234 H 0.13682 0.42654 0.64655 0.0
O235 O 0.15057 0.35438 0.65075 0.0
H236 H 0.07032 0.38168 0.69696 0.0
H237 H 0.11793 0.44977 0.68224 0.0
C238 C 0.11424 0.34854 0.61039 0.0
C239 C 0.12321 0.32452 0.60383 0.0
C240 C 0.10803 0.30594 0.58946 0.0
C241 C 0.08382 0.31131 0.58119 0.0
C242 C 0.07517 0.33574 0.58675 0.0
C243 C 0.09041 0.35438 0.60121 0.0
C244 C 0.1544 0.391 0.61228 0.0
C245 C 0.17649 0.40218 0.62438 0.0
C246 C 0.1933 0.41752 0.61038 0.0
C247 C 0.18836 0.42175 0.58394 0.0
C248 C 0.16591 0.411 0.57198 0.0
C249 C 0.14886 0.39592 0.58619 0.0
C250 C 0.11465 0.39055 0.65136 0.0
C251 C 0.09525 0.37844 0.66524 0.0
C252 C 0.0842 0.39188 0.68544 0.0
C253 C 0.0928 0.41744 0.69229 0.0
C254 C 0.11109 0.43003 0.67729 0.0
C255 C 0.12191 0.41668 0.6569 0.0
O256 O 0.98115 0.00816 0.57354 0.0
Mg257 Mg 0.01343 0.01976 0.55419 0.0
O258 O 0.98197 0.97702 0.54373 0.0
Mg259 Mg -0.00169 -0.00368 0.50561 0.0
O260 O 0.00895 0.03906 0.52092 0.0
O261 O 0.02334 0.05777 0.5592 0.0
O262 O 0.01596 0.01703 0.46752 0.0
O263 O 0.95906 0.0105 0.49865 0.0
Mg264 Mg 0.98729 0.97947 0.46212 0.0
O265 O 0.98565 0.95279 0.49046 0.0
O266 O 0.02122 0.98295 0.44295 0.0
O267 O 0.96029 0.00738 0.45624 0.0
O268 O 0.96931 0.94613 0.4498 0.0
C269 C 0.05101 0.98335 0.53591 0.0
C270 C 0.97459 0.98539 0.56572 0.0
C271 C 0.01648 0.05957 0.53511 0.0
C272 C 0.02597 0.00669 0.44771 0.0
C273 C 0.94977 0.01518 0.47653 0.0
C274 C 0.97416 0.93764 0.47246 0.0
O275 O 0.04394 -0.00363 0.55538 0.0
O276 O 0.03806 0.98187 0.51458 0.0
O277 O 0.46519 0.03607 0.04551 0.0
Mg278 Mg 0.50219 0.04103 0.03024 0.0
O279 O 0.45652 0.01198 0.01026 0.0
Mg280 Mg 0.49794 0.00351 0.00349 0.0
O281 O 0.50926 0.04794 0.99224 0.0
O282 O 0.5062 0.07852 0.02394 0.0
O283 O 0.53988 0.99474 0.99468 0.0
O284 O 0.48704 0.00073 0.95824 0.0
Mg285 Mg 0.49881 0.94798 0.97791 0.0
O286 O 0.48653 0.96138 0.0124 0.0
O287 O 0.53766 0.95586 0.97466 0.0
O288 O 0.47673 0.95961 0.9473 0.0
O289 O 0.48476 0.91941 0.00077 0.0
C290 C 0.52572 0.01453 0.06246 0.0
C291 C 0.4491 0.02423 0.03014 0.0
C292 C 0.51099 0.07217 0.00024 0.0
C293 C 0.55027 0.97616 0.98308 0.0
C294 C 0.478 0.98316 0.94181 0.0
C295 C 0.48012 0.93759 0.01739 0.0
O296 O 0.53429 0.03502 0.0529 0.0
O297 O 0.50795 0.00148 0.04996 0.0
O298 O 0.46811 0.54671 0.5528 0.0
Mg299 Mg 0.4721 0.508 0.56219 0.0
O300 O 0.4798 0.54571 0.51134 0.0
Mg301 Mg 0.49058 0.50362 0.50125 0.0
O302 O 0.5017 0.49718 0.54236 0.0
O303 O 0.50139 0.49573 0.58515 0.0
O304 O 0.50103 0.45995 0.49545 0.0
O305 O 0.53176 0.51911 0.49706 0.0
Mg306 Mg 0.50318 0.48591 0.45205 0.0
O307 O 0.47819 0.51322 0.45865 0.0
O308 O 0.48831 0.44826 0.45573 0.0
O309 O 0.54155 0.4953 0.46278 0.0
O310 O 0.49073 0.5006 0.4189 0.0
C311 C 0.43546 0.47911 0.52455 0.0
C312 C 0.47164 0.55763 0.53133 0.0
C313 C 0.51258 0.49136 0.56367 0.0
C314 C 0.49521 0.44214 0.47812 0.0
C315 C 0.54798 0.51086 0.48174 0.0
C316 C 0.4767 0.51405 0.43337 0.0
O317 O 0.44245 0.48206 0.54836 0.0
O318 O 0.44908 0.48764 0.50622 0.0
O319 O 0.99413 0.44582 0.0422 0.0
Mg320 Mg 0.0048 0.48524 0.04829 0.0
O321 O 0.01083 0.45942 0.00666 0.0
Mg322 Mg 0.99463 0.50126 0.00275 0.0
O323 O 0.97833 0.51116 0.04423 0.0
O324 O 0.99148 0.49619 0.08253 0.0
O325 O 0.97952 0.54414 -0.00261 0.0
O326 O 0.95589 0.47949 -0.00426 0.0
Mg327 Mg 0.98076 0.51527 0.95932 0.0
O328 O 0.00961 0.49128 0.96093 0.0
O329 O 0.99337 0.55399 0.959 0.0
O330 O 0.9428 0.50846 0.97007 0.0
O331 O 0.98492 0.4958 0.92537 0.0
C332 C 0.04884 0.51706 0.03071 0.0
C333 C 0.00491 0.44084 0.02137 0.0
C334 C 0.97718 0.51022 0.06942 0.0
C335 C 0.98437 0.56104 0.98032 0.0
C336 C 0.93799 0.48987 0.98462 0.0
C337 C 0.00411 0.48657 0.93633 0.0
O338 O 0.04243 0.50065 0.04733 0.0
O339 O 0.03376 0.52196 0.01225 0.0
C340 C 0.08065 0.11109 0.24373 0.0
C341 C 0.09975 0.09852 0.23116 0.0
C342 C 0.07028 0.10142 0.26646 0.0
C343 C 0.06563 0.04365 0.30729 0.0
H344 H 0.05978 0.09389 0.36427 0.0
C345 C 0.05593 0.01074 0.41171 0.0
C346 C 0.0381 0.02201 0.42725 0.0
C347 C 0.06312 0.02158 0.38836 0.0
C348 C 0.06104 0.07962 0.34852 0.0
H349 H 0.12154 0.06483 0.23168 0.0
H350 H 0.10385 0.04826 0.2714 0.0
H351 H 0.07047 0.10852 0.32107 0.0
H352 H 0.01468 0.05423 0.43123 0.0
H353 H 0.0271 0.07325 0.39014 0.0
H354 H 0.05638 0.01474 0.33465 0.0
C355 C 0.09682 0.0656 0.26376 0.0
C356 C 0.06709 0.088 0.32369 0.0
C357 C 0.10718 0.07526 0.24107 0.0
C358 C 0.02874 0.04534 0.4198 0.0
C359 C 0.03576 0.05612 0.39617 0.0
C360 C 0.05957 0.03529 0.33205 0.0
C361 C 0.07869 0.07891 0.27713 0.0
C362 C 0.06988 0.0701 0.30286 0.0
C363 C 0.05237 0.04382 0.37973 0.0
C364 C 0.05766 0.05312 0.35314 0.0
H365 H 0.0745 0.12908 0.23672 0.0
H366 H 0.05603 0.1119 0.27599 0.0
H367 H 0.06711 0.02934 0.29162 0.0
H368 H 0.0635 0.99278 0.41704 0.0
H369 H 0.07654 0.01203 0.37665 0.0
C370 C 0.39892 0.94999 0.71827 0.0
C371 C 0.41181 0.9306 0.70571 0.0
C372 C 0.4056 0.95849 0.74382 0.0
C373 C 0.4387 0.939 0.80308 0.0
H374 H 0.44415 0.01234 0.82183 0.0
C375 C 0.48914 0.97597 0.89637 0.0
C376 C 0.47411 0.98839 0.91421 0.0
C377 C 0.48182 0.97295 0.87021 0.0
C378 C 0.44247 0.99184 0.81683 0.0
H379 H 0.44135 0.90444 0.71022 0.0
H380 H 0.45315 0.91933 0.75473 0.0
H381 H 0.42999 -0.00248 0.77758 0.0
H382 H 0.44069 0.00916 0.91871 0.0
H383 H 0.42799 0.00446 0.87214 0.0
H384 H 0.4517 0.93334 0.84203 0.0
C385 C 0.43783 0.92796 0.7449 0.0
C386 C 0.43433 0.98332 0.79162 0.0
C387 C 0.43124 0.91958 0.71933 0.0
C388 C 0.45271 -0.00015 0.90514 0.0
C389 C 0.44541 -0.003 0.87865 0.0
C390 C 0.44699 0.94751 0.82808 0.0
C391 C 0.42519 0.94763 0.75739 0.0
C392 C 0.43263 0.9568 0.78441 0.0
C393 C 0.45933 0.98239 0.86134 0.0
C394 C 0.44925 0.97399 0.83509 0.0
H395 H 0.38398 0.95896 0.70815 0.0
H396 H 0.39534 0.97347 0.75299 0.0
H397 H 0.43707 0.91845 0.79837 0.0
H398 H 0.50563 0.96683 0.90306 0.0
H399 H 0.49298 0.96188 0.85717 0.0
C400 C 0.56984 0.41204 0.74771 0.0
C401 C 0.58706 0.42774 0.76341 0.0
C402 C 0.56365 0.41921 0.72259 0.0
C403 C 0.56988 0.47164 0.67604 0.0
H404 H 0.57831 0.4152 0.62597 0.0
C405 C 0.5574 0.49371 0.57367 0.0
C406 C 0.53599 0.47862 0.56468 0.0
C407 C 0.57297 0.48436 0.59283 0.0
C408 C 0.57616 0.43117 0.63972 0.0
H409 H 0.60832 0.46479 0.76694 0.0
H410 H 0.59759 0.47733 0.72306 0.0
H411 H 0.57972 0.40745 0.67258 0.0
H412 H 0.51749 0.44029 0.56291 0.0
H413 H 0.54414 0.424 0.59644 0.0
H414 H 0.56563 0.49526 0.64349 0.0
C415 C 0.58914 0.45935 0.72987 0.0
C416 C 0.57657 0.42668 0.66637 0.0
C417 C 0.59531 0.4522 0.75498 0.0
C418 C 0.5338 0.45232 0.57001 0.0
C419 C 0.54905 0.44305 0.58947 0.0
C420 C 0.56947 0.47612 0.64948 0.0
C421 C 0.57453 0.44218 0.71294 0.0
C422 C 0.57314 0.44683 0.68474 0.0
C423 C 0.5668 0.46008 0.60309 0.0
C424 C 0.57236 0.45591 0.63097 0.0
H425 H 0.56311 0.39311 0.75375 0.0
H426 H 0.55168 0.40601 0.71015 0.0
H427 H 0.56705 0.48748 0.68973 0.0
H428 H 0.55961 0.514 0.56941 0.0
H429 H 0.58731 0.4975 0.60229 0.0
C430 C 0.92503 0.57287 0.28085 0.0
C431 C 0.90376 0.55964 0.29073 0.0
C432 C 0.93275 0.56686 0.25577 0.0
C433 C 0.92311 0.52114 0.19881 0.0
H434 H 0.93232 0.58365 0.16001 0.0
C435 C 0.93674 0.51262 0.09043 0.0
C436 C 0.95973 0.52498 0.08405 0.0
C437 C 0.92518 0.51999 0.11331 0.0
C438 C 0.92969 0.56606 0.17059 0.0
H439 H 0.87608 0.52748 0.28371 0.0
H440 H 0.88932 0.5172 0.23971 0.0
H441 H 0.92627 0.5868 0.20688 0.0
H442 H 0.98745 0.55619 0.09429 0.0
H443 H 0.96723 0.56942 0.13406 0.0
H444 H 0.92685 0.50041 0.16258 0.0
C445 C 0.89989 0.53237 0.25118 0.0
C446 C 0.92655 0.56782 0.19744 0.0
C447 C 0.89222 0.53833 0.27631 0.0
C448 C 0.96945 0.54677 0.09878 0.0
C449 C 0.95791 0.55419 0.12162 0.0
C450 C 0.92623 0.51938 0.17195 0.0
C451 C 0.91931 0.54757 0.24018 0.0
C452 C 0.9235 0.54538 0.21186 0.0
C453 C 0.93668 0.53967 0.12998 0.0
C454 C 0.92976 0.54183 0.15761 0.0
H455 H 0.9344 0.58934 0.29151 0.0
H456 H 0.94828 0.57837 0.24798 0.0
H457 H 0.92087 0.50355 0.20944 0.0
H458 H 0.92922 0.49551 0.07938 0.0
H459 H 0.90853 0.50882 0.11912 0.0
C460 C 0.2445 0.08066 0.10217 0.0
C461 C 0.23441 0.10132 0.08959 0.0
C462 C 0.26552 0.06932 0.09246 0.0
C463 C 0.31951 0.08397 0.04997 0.0
H464 H 0.33186 0.0124 0.06082 0.0
C465 C 0.40752 0.03605 0.01319 0.0
C466 C 0.42222 0.0274 0.03371 0.0
C467 C 0.38296 0.0426 0.01742 0.0
C468 C 0.32856 0.0324 0.05763 0.0
H469 H 0.23766 0.12531 0.05607 0.0
H470 H 0.27389 0.10516 0.0387 0.0
H471 H 0.29128 0.02828 0.0718 0.0
H472 H 0.42269 0.01767 0.0743 0.0
H473 H 0.37913 0.02783 0.08139 0.0
H474 H 0.35676 0.0878 0.03542 0.0
C475 C 0.26609 0.09816 0.05656 0.0
C476 C 0.30541 0.0416 0.06406 0.0
C477 C 0.24521 0.10966 0.06644 0.0
C478 C 0.41163 0.02424 0.0582 0.0
C479 C 0.38679 0.02999 0.06221 0.0
C480 C 0.34245 0.07463 0.04311 0.0
C481 C 0.27691 0.07819 0.06974 0.0
C482 C 0.30069 0.06766 0.06076 0.0
C483 C 0.37246 0.03982 0.04203 0.0
C484 C 0.34732 0.04889 0.04726 0.0
H485 H 0.23684 0.07397 0.12024 0.0
H486 H 0.27341 0.0543 0.10345 0.0
H487 H 0.31693 0.10424 0.04758 0.0
H488 H 0.41544 0.03893 0.99422 0.0
H489 H 0.37227 0.0502 0.0016 0.0
C490 C 0.26198 0.92766 0.58975 0.0
C491 C 0.27492 0.91341 0.57139 0.0
C492 C 0.23688 0.93222 0.58522 0.0
C493 C 0.18008 0.91232 0.5442 0.0
H494 H 0.16263 0.98149 0.56385 0.0
C495 C 0.08568 0.95826 0.51722 0.0
C496 C 0.07499 0.97089 0.53849 0.0
C497 C 0.10943 0.94856 0.52001 0.0
C498 C 0.16721 0.96207 0.55833 0.0
H499 H 0.27163 0.89199 0.53429 0.0
H500 H 0.22775 0.90045 0.52601 0.0
H501 H 0.20524 0.96956 0.57149 0.0
H502 H 0.08032 0.98191 0.57966 0.0
H503 H 0.12134 0.96537 0.58421 0.0
H504 H 0.14173 0.90524 0.5307 0.0
C505 C 0.23691 0.90779 0.5441 0.0
C506 C 0.19158 0.95515 0.56286 0.0
C507 C 0.26203 0.90301 0.54878 0.0
C508 C 0.08804 0.97265 0.56271 0.0
C509 C 0.11161 0.9632 0.56539 0.0
C510 C 0.15559 0.91937 0.53944 0.0
C511 C 0.2242 0.9229 0.56205 0.0
C512 C 0.19826 0.93009 0.55627 0.0
C513 C 0.12279 0.95158 0.544 0.0
C514 C 0.14891 0.94421 0.54687 0.0
H515 H 0.27135 0.93544 0.60759 0.0
H516 H 0.22748 0.94332 0.5998 0.0
H517 H 0.18459 0.89282 0.53899 0.0
H518 H 0.07605 0.95647 0.49837 0.0
H519 H 0.11774 0.93961 0.50324 0.0
C520 C 0.72175 0.42569 0.92858 0.0
C521 C 0.72352 0.42501 0.90133 0.0
C522 C 0.74266 0.43403 0.94437 0.0
C523 C 0.80979 0.43229 0.9404 0.0
H524 H 0.81599 0.47905 0.00121 0.0
C525 C 0.90502 0.45408 0.98944 0.0
C526 C 0.91182 0.48053 0.98799 0.0
C527 C 0.87972 0.44525 0.98761 0.0
C528 C 0.81433 0.46563 0.98449 0.0
H529 H 0.74706 0.43515 0.86908 0.0
H530 H 0.78346 0.44999 0.8966 0.0
H531 H 0.77515 0.47088 0.97825 0.0
H532 H 0.89804 0.51873 0.98683 0.0
H533 H 0.854 0.50342 0.98383 0.0
H534 H 0.84884 0.42763 0.94571 0.0
C535 C 0.76626 0.44348 0.90578 0.0
C536 C 0.79109 0.46105 0.97139 0.0
C537 C 0.7455 0.43512 0.89008 0.0
C538 C 0.89313 0.49817 0.98745 0.0
C539 C 0.86793 0.48943 0.98609 0.0
C540 C 0.83281 0.43662 0.95355 0.0
C541 C 0.76541 0.44174 0.93296 0.0
C542 C 0.78894 0.44505 0.9487 0.0
C543 C 0.86105 0.46285 0.98479 0.0
C544 C 0.83552 0.45393 0.97524 0.0
H545 H 0.7049 0.41797 0.93759 0.0
H546 H 0.74158 0.43269 0.96531 0.0
H547 H 0.80844 0.41942 0.92323 0.0
H548 H 0.91921 0.44018 0.99009 0.0
H549 H 0.87482 0.42465 0.98681 0.0
C550 C 0.7684 0.57789 0.46103 0.0
C551 C 0.77275 0.56978 0.43526 0.0
C552 C 0.74704 0.56834 0.47355 0.0
C553 C 0.69287 0.519 0.46685 0.0
H554 H 0.65751 0.57207 0.50244 0.0
C555 C 0.59058 0.49824 0.49274 0.0
C556 C 0.57471 0.51771 0.48688 0.0
C557 C 0.61649 0.5036 0.49428 0.0
C558 C 0.6671 0.55701 0.49253 0.0
H559 H 0.75892 0.54471 0.40265 0.0
H560 H 0.72133 0.52853 0.42404 0.0
H561 H 0.70044 0.58168 0.48951 0.0
H562 H 0.5728 0.55812 0.47913 0.0
H563 H 0.61824 0.56747 0.48043 0.0
H564 H 0.65903 0.49498 0.46788 0.0
C565 C 0.73458 0.54174 0.43499 0.0
C566 C 0.6919 0.56239 0.48546 0.0
C567 C 0.75608 0.55106 0.42263 0.0
C568 C 0.58487 0.54291 0.48375 0.0
C569 C 0.61088 0.54821 0.4847 0.0
C570 C 0.66801 0.51373 0.47359 0.0
C571 C 0.72947 0.55075 0.46037 0.0
C572 C 0.70482 0.54368 0.4718 0.0
C573 C 0.62705 0.52841 0.48924 0.0
C574 C 0.65455 0.53291 0.48586 0.0
H575 H 0.78122 0.59213 0.47124 0.0
H576 H 0.74394 0.57528 0.49326 0.0
H577 H 0.70242 0.50396 0.45683 0.0
H578 H 0.58292 0.4787 0.4955 0.0
H579 H 0.62827 0.48806 0.49854 0.0
C580 C 0.08089 0.23564 0.07979 0.0
C581 C 0.10551 0.23852 0.09014 0.0
C582 C 0.07046 0.25614 0.06733 0.0
C583 C 0.08069 0.32773 0.06259 0.0
H584 H 0.02846 0.31779 0.00864 0.0
C585 C 0.04061 0.41363 0.01247 0.0
C586 C 0.01519 0.41533 0.01795 0.0
C587 C 0.05207 0.39052 0.01606 0.0
C588 C 0.04316 0.32076 0.02358 0.0
H589 H 0.13906 0.26423 0.09431 0.0
H590 H 0.12158 0.29936 0.07154 0.0
H591 H 0.04828 0.28031 0.02522 0.0
H592 H 0.98135 0.39398 0.02949 0.0
H593 H 0.00112 0.35322 0.03454 0.0
H594 H 0.07578 0.36818 0.06056 0.0
C595 C 0.10971 0.28192 0.07392 0.0
C596 C 0.05438 0.29932 0.03331 0.0
C597 C 0.11989 0.26171 0.0868 0.0
C598 C 0.00095 0.39306 0.02498 0.0
C599 C 0.01224 0.36979 0.02788 0.0
C600 C 0.06988 0.34909 0.05249 0.0
C601 C 0.08463 0.27977 0.06457 0.0
C602 C 0.07319 0.30248 0.05315 0.0
C603 C 0.0381 0.36861 0.02449 0.0
C604 C 0.05089 0.34583 0.03307 0.0
H605 H 0.06944 0.21792 0.08222 0.0
H606 H 0.05105 0.25368 0.06068 0.0
H607 H 0.0945 0.33113 0.07834 0.0
H608 H 0.05207 0.43063 0.00741 0.0
H609 H 0.07206 0.39006 0.01337 0.0
C610 C 0.60498 0.25624 0.89476 0.0
C611 C 0.58974 0.27565 0.88704 0.0
C612 C 0.59422 0.2332 0.90384 0.0
C613 C 0.53959 0.2057 0.93567 0.0
H614 H 0.56226 0.14007 0.91043 0.0
C615 C 0.52981 0.11641 -0.00486 0.0
C616 C 0.51958 0.09309 0.98327 0.0
C617 C 0.53647 0.13742 0.98032 0.0
C618 C 0.55551 0.15822 0.91733 0.0
H619 H 0.55167 0.28691 0.8831 0.0
H620 H 0.5327 0.24672 0.90001 0.0
H621 H 0.57752 0.18016 0.89052 0.0
H622 H 0.50937 0.07308 0.94633 0.0
H623 H 0.52127 0.11049 0.91994 0.0
H624 H 0.51825 0.18401 0.96301 0.0
C625 C 0.55289 0.24919 0.89864 0.0
C626 C 0.56439 0.1811 0.90618 0.0
C627 C 0.56365 0.27208 0.88907 0.0
C628 C 0.51712 0.09088 0.95595 0.0
C629 C 0.52386 0.11219 0.94093 0.0
C630 C 0.53092 0.18291 0.94694 0.0
C631 C 0.56808 0.22941 0.90571 0.0
C632 C 0.55688 0.20505 0.91565 0.0
C633 C 0.53307 0.13578 0.95317 0.0
C634 C 0.53926 0.15905 0.93831 0.0
H635 H 0.62515 0.25866 0.8931 0.0
H636 H 0.60633 0.21839 0.90956 0.0
H637 H 0.5336 0.22391 0.94337 0.0
H638 H 0.53255 0.11859 0.01611 0.0
H639 H 0.54424 0.15511 0.99017 0.0
C640 C 0.9412 0.70818 0.43639 0.0
C641 C 0.91595 0.7004 0.4399 0.0
C642 C 0.9516 0.73128 0.44808 0.0
C643 C 0.95649 0.78914 0.44976 0.0
H644 H 0.94158 0.82254 0.51589 0.0
C645 C 0.94987 0.89659 0.45955 0.0
C646 C 0.96724 0.9102 0.4769 0.0
C647 C 0.94544 0.87002 0.46076 0.0
C648 C 0.94615 0.81327 0.49755 0.0
H649 H 0.88209 0.70942 0.45949 0.0
H650 H 0.90005 0.75025 0.47944 0.0
H651 H 0.93228 0.77565 0.50892 0.0
H652 H 0.9923 0.9069 0.51029 0.0
H653 H 0.98435 0.85973 0.51237 0.0
H654 H 0.96914 0.82666 0.43785 0.0
C655 C 0.91202 0.7383 0.46823 0.0
C656 C 0.94075 0.7866 0.4935 0.0
C657 C 0.90171 0.71502 0.45676 0.0
C658 C 0.97889 0.89685 0.49665 0.0
C659 C 0.97436 0.86999 0.49787 0.0
C660 C 0.96158 0.81562 0.45369 0.0
C661 C 0.93676 0.74716 0.46308 0.0
C662 C 0.94553 0.7744 0.46937 0.0
C663 C 0.95818 0.85641 0.47936 0.0
C664 C 0.95596 0.82798 0.47735 0.0
H665 H 0.95251 0.69704 0.42357 0.0
H666 H 0.97083 0.73748 0.44411 0.0
H667 H 0.95994 0.78047 0.43079 0.0
H668 H 0.94022 0.90635 0.44441 0.0
H669 H 0.93262 0.85992 0.44653 0.0
C670 C 0.43251 0.78704 0.54771 0.0
C671 C 0.41156 0.79171 0.56274 0.0
C672 C 0.4385 0.76179 0.54165 0.0
C673 C 0.4301 0.69657 0.56586 0.0
H674 H 0.45059 0.67415 0.49719 0.0
C675 C 0.44239 0.59061 0.54305 0.0
C676 C 0.46371 0.58408 0.5296 0.0
C677 C 0.43549 0.6159 0.54422 0.0
C678 C 0.44517 0.68024 0.51651 0.0
H679 H 0.37997 0.77353 0.58239 0.0
H680 H 0.39056 0.72949 0.57201 0.0
H681 H 0.43932 0.71867 0.50494 0.0
H682 H 0.49389 0.59847 0.50565 0.0
H683 H 0.48222 0.64348 0.50837 0.0
H684 H 0.43621 0.65858 0.57772 0.0
C685 C 0.40253 0.74538 0.56521 0.0
C686 C 0.43868 0.70566 0.52093 0.0
C687 C 0.3965 0.77059 0.57121 0.0
C688 C 0.47742 0.60314 0.51621 0.0
C689 C 0.47069 0.62879 0.51774 0.0
C690 C 0.43669 0.67134 0.56151 0.0
C691 C 0.42372 0.74072 0.55058 0.0
C692 C 0.43086 0.71396 0.54562 0.0
C693 C 0.45 0.63548 0.53238 0.0
C694 C 0.44401 0.66275 0.53674 0.0
H695 H 0.44465 0.8029 0.54116 0.0
H696 H 0.45511 0.75877 0.53061 0.0
H697 H 0.42471 0.70257 0.58523 0.0
H698 H 0.43114 0.57612 0.55304 0.0
H699 H 0.41898 0.62021 0.55491 0.0
C700 C 0.92697 0.92331 0.78198 0.0
C701 C 0.90418 0.90955 0.78694 0.0
C702 C 0.9338 0.92805 0.75646 0.0
C703 C 0.91924 0.90826 0.68678 0.0
H704 H 0.95469 0.97434 0.67545 0.0
C705 C 0.94064 0.95881 0.5873 0.0
C706 C 0.96596 0.96749 0.5856 0.0
C707 C 0.93212 0.94727 0.61006 0.0
C708 C 0.94485 0.95578 0.67836 0.0
H709 H 0.87074 0.88978 0.76898 0.0
H710 H 0.88235 0.89863 0.7243 0.0
H711 H 0.94137 0.96424 0.71899 0.0
H712 H 0.00245 0.96975 0.60509 0.0
H713 H 0.98763 0.94987 0.64466 0.0
H714 H 0.92235 0.90046 0.64554 0.0
C715 C 0.89522 0.90532 0.74013 0.0
C716 C 0.93736 0.94986 0.70336 0.0
C717 C 0.8885 0.90032 0.76574 0.0
C718 C 0.98286 0.96303 0.60601 0.0
C719 C 0.97439 0.95179 0.62863 0.0
C720 C 0.92647 0.91441 0.66155 0.0
C721 C 0.91788 0.91947 0.73516 0.0
C722 C 0.92481 0.92587 0.70806 0.0
C723 C 0.94884 0.94469 0.63126 0.0
C724 C 0.93966 0.93809 0.65728 0.0
H725 H 0.93968 0.93023 0.79788 0.0
H726 H 0.95171 0.9384 0.75347 0.0
H727 H 0.9098 0.88952 0.68966 0.0
H728 H 0.9273 0.96241 0.57186 0.0
H729 H 0.9123 0.94201 0.61177 0.0
C730 C 0.57411 0.09906 0.28043 0.0
C731 C 0.599 0.09577 0.28849 0.0
C732 C 0.56355 0.08554 0.25822 0.0
C733 C 0.58172 0.06392 0.19567 0.0
H734 H 0.52359 0.01488 0.19025 0.0
C735 C 0.55715 0.01242 0.09822 0.0
C736 C 0.53189 0.01081 0.09003 0.0
C737 C 0.56391 0.018 0.12435 0.0
C738 C 0.53971 0.02871 0.1914 0.0
H739 H 0.63212 0.07549 0.27998 0.0
H740 H 0.61385 0.0524 0.241 0.0
H741 H 0.53687 0.03514 0.23287 0.0
H742 H 0.49372 0.01233 0.10264 0.0
H743 H 0.50545 0.02279 0.14837 0.0
H744 H 0.58436 0.05872 0.15455 0.0
C745 C 0.60245 0.06508 0.25209 0.0
C746 C 0.54727 0.04023 0.21576 0.0
C747 C 0.61283 0.0782 0.27442 0.0
C748 C 0.51333 0.01294 0.10867 0.0
C749 C 0.52011 0.01911 0.13484 0.0
C750 C 0.57403 0.05281 0.17143 0.0
C751 C 0.57791 0.06894 0.24357 0.0
C752 C 0.56857 0.05761 0.21804 0.0
C753 C 0.54556 0.02295 0.14272 0.0
C754 C 0.55322 0.03466 0.16894 0.0
H755 H 0.56304 0.11244 0.291 0.0
H756 H 0.54463 0.0889 0.25184 0.0
H757 H 0.59795 0.07764 0.19695 0.0
H758 H 0.57176 0.01108 0.0841 0.0
H759 H 0.58366 0.0199 0.12982 0.0
C760 C 0.42429 0.58985 0.24106 0.0
C761 C 0.40343 0.60201 0.23165 0.0
C762 C 0.42762 0.58644 0.26771 0.0
C763 C 0.39471 0.57649 0.32683 0.0
H764 H 0.46006 0.59385 0.35989 0.0
C765 C 0.45912 0.5562 0.42443 0.0
C766 C 0.4584 0.52931 0.42043 0.0
C767 C 0.44604 0.571 0.40712 0.0
C768 C 0.44149 0.5895 0.35124 0.0
H769 H 0.36937 0.61956 0.24253 0.0
H770 H 0.37501 0.61304 0.2893 0.0
H771 H 0.45114 0.60849 0.31621 0.0
H772 H 0.442 0.49643 0.39735 0.0
H773 H 0.41867 0.52201 0.36772 0.0
H774 H 0.38578 0.55576 0.36109 0.0
C775 C 0.38889 0.60657 0.276 0.0
C776 C 0.43651 0.5976 0.32616 0.0
C777 C 0.38575 0.61034 0.24935 0.0
C778 C 0.44271 0.5172 0.4007 0.0
C779 C 0.42926 0.53183 0.38388 0.0
C780 C 0.39982 0.56802 0.3518 0.0
C781 C 0.40998 0.59482 0.28538 0.0
C782 C 0.41344 0.59035 0.31342 0.0
C783 C 0.43175 0.5589 0.38614 0.0
C784 C 0.42359 0.57367 0.36379 0.0
H785 H 0.43824 0.58335 0.22785 0.0
H786 H 0.44384 0.57695 0.27451 0.0
H787 H 0.37677 0.57068 0.31734 0.0
H788 H 0.47128 0.56583 0.43953 0.0
H789 H 0.44826 0.59187 0.40917 0.0
C790 C 0.10495 0.43751 0.73578 0.0
C791 C 0.08589 0.42913 0.71744 0.0
C792 C 0.09901 0.44453 0.76119 0.0
C793 C 0.05352 0.46913 0.80291 0.0
H794 H 0.0758 0.42321 0.85548 0.0
C795 C 0.04327 0.4892 0.91229 0.0
C796 C 0.02174 0.4745 0.91939 0.0
C797 C 0.0557 0.48229 0.88981 0.0
C798 C 0.0698 0.43625 0.84096 0.0
H799 H 0.04578 0.42267 0.71065 0.0
H800 H 0.03528 0.43598 0.75528 0.0
H801 H 0.08732 0.41631 0.80978 0.0
H802 H -0.00274 0.44026 0.91038 0.0
H803 H 0.01986 0.42739 0.87153 0.0
H804 H 0.03612 0.48916 0.83406 0.0
C805 C 0.05475 0.43671 0.74987 0.0
C806 C 0.07629 0.43235 0.81503 0.0
C807 C 0.06072 0.42915 0.72451 0.0
C808 C 0.01412 0.45153 0.90534 0.0
C809 C 0.02692 0.44428 0.8832 0.0
C810 C 0.0475 0.47336 0.8289 0.0
C811 C 0.07394 0.44373 0.76847 0.0
C812 C 0.06794 0.44862 0.79587 0.0
C813 C 0.04696 0.46033 0.87468 0.0
C814 C 0.05544 0.45682 0.84796 0.0
H815 H 0.12451 0.43732 0.73085 0.0
H816 H 0.114 0.44999 0.77535 0.0
H817 H 0.04694 0.48182 0.78833 0.0
H818 H 0.04901 0.50729 0.92267 0.0
H819 H 0.071 0.49497 0.88326 0.0
C820 C 0.7523 0.90355 0.92172 0.0
C821 C 0.77371 0.92073 0.92489 0.0
C822 C 0.72861 0.91157 0.92789 0.0
C823 C 0.69769 0.96367 0.96462 0.0
H824 H 0.63897 0.93518 0.92501 0.0
C825 C 0.59578 0.97847 -0.00351 0.0
C826 C 0.57704 0.97825 0.97689 0.0
C827 C 0.62054 0.97411 0.99001 0.0
C828 C 0.65515 0.94372 0.9361 0.0
H829 H 0.78697 0.96001 0.93615 0.0
H830 H 0.74573 0.97427 0.94609 0.0
H831 H 0.68002 0.92237 0.91324 0.0
H832 H 0.56936 0.9749 0.93529 0.0
H833 H 0.61247 0.96881 0.92382 0.0
H834 H 0.67278 0.98576 0.98687 0.0
C835 C 0.74717 0.95434 0.93972 0.0
C836 C 0.67879 0.93594 0.9296 0.0
C837 C 0.77085 0.94621 0.93389 0.0
C838 C 0.5836 0.97523 0.95074 0.0
C839 C 0.60826 0.97132 0.94423 0.0
C840 C 0.67403 0.97169 0.97094 0.0
C841 C 0.72569 0.9371 0.93704 0.0
C842 C 0.70043 0.94569 0.94382 0.0
C843 C 0.62693 0.96967 0.96379 0.0
C844 C 0.65238 0.9618 0.9568 0.0
H845 H 0.75396 0.88373 0.91505 0.0
H846 H 0.71268 0.89755 0.92594 0.0
H847 H 0.71379 0.97138 0.97634 0.0
H848 H 0.59101 0.98033 0.01681 0.0
H849 H 0.63429 0.97284 0.00566 0.0
C850 C 0.75173 0.11619 0.44665 0.0
C851 C 0.73652 0.10345 0.42681 0.0
C852 C 0.77286 0.10487 0.45632 0.0
C853 C 0.81702 0.05852 0.43316 0.0
H854 H 0.84748 0.07043 0.50227 0.0
C855 C 0.9197 0.03987 0.45135 0.0
C856 C 0.92603 0.02784 0.47435 0.0
C857 C 0.89625 0.04969 0.4482 0.0
C858 C 0.83912 0.06674 0.48294 0.0
H859 H 0.72981 0.06808 0.40328 0.0
H860 H 0.76611 0.04783 0.42079 0.0
H861 H 0.80511 0.08344 0.4936 0.0
H862 H 0.91326 0.01737 0.5125 0.0
H863 H 0.87186 0.0337 0.50665 0.0
H864 H 0.85049 0.04128 0.42253 0.0
C865 C 0.7624 0.06694 0.42822 0.0
C866 C 0.81493 0.07439 0.47792 0.0
C867 C 0.74154 0.07841 0.4183 0.0
C868 C 0.90884 0.02662 0.49457 0.0
C869 C 0.88516 0.03607 0.49124 0.0
C870 C 0.84099 0.05072 0.43821 0.0
C871 C 0.77896 0.08051 0.44647 0.0
C872 C 0.80369 0.07057 0.45287 0.0
C873 C 0.8784 0.04722 0.46777 0.0
C874 C 0.85253 0.05507 0.46302 0.0
H875 H 0.74821 0.13557 0.45344 0.0
H876 H 0.78522 0.11593 0.47028 0.0
H877 H 0.80925 0.05567 0.41351 0.0
H878 H 0.93277 0.04141 0.43562 0.0
H879 H 0.89196 0.05886 0.43018 0.0
C880 C 0.26239 0.57428 0.10051 0.0
C881 C 0.27653 0.59439 0.08908 0.0
C882 C 0.23692 0.56953 0.09414 0.0
C883 C 0.18908 0.58184 0.04339 0.0
H884 H 0.14391 0.5552 0.09527 0.0
C885 C 0.09168 0.53125 0.01635 0.0
C886 C 0.07293 0.53203 0.03482 0.0
C887 C 0.11572 0.54265 0.02239 0.0
C888 C 0.15604 0.56306 0.08054 0.0
H889 H 0.27502 0.62586 0.06271 0.0
H890 H 0.23036 0.61799 0.05197 0.0
H891 H 0.18687 0.56865 0.10787 0.0
H892 H 0.06353 0.54652 0.07311 0.0
H893 H 0.10483 0.56778 0.08315 0.0
H894 H 0.15794 0.57702 0.01624 0.0
C895 C 0.23905 0.60539 0.06531 0.0
C896 C 0.18092 0.57037 0.08774 0.0
C897 C 0.26462 0.60995 0.07147 0.0
C898 C 0.07794 0.54555 0.05871 0.0
C899 C 0.10166 0.55747 0.06451 0.0
C900 C 0.16405 0.57487 0.03625 0.0
C901 C 0.2249 0.58499 0.07642 0.0
C902 C 0.19791 0.57934 0.06916 0.0
C903 C 0.12115 0.55543 0.04683 0.0
C904 C 0.14729 0.56496 0.05464 0.0
H905 H 0.27116 0.56185 0.11397 0.0
H906 H 0.22681 0.55333 0.10272 0.0
H907 H 0.20164 0.5885 0.02848 0.0
H908 H 0.08811 0.52071 -0.00213 0.0
H909 H 0.13024 0.5404 0.00837 0.0
C910 C 0.21618 0.42318 0.54576 0.0
C911 C 0.20794 0.43515 0.56864 0.0
C912 C 0.23842 0.43238 0.53461 0.0
C913 C 0.29775 0.46382 0.55834 0.0
H914 H 0.31683 0.45574 0.48626 0.0
C915 C 0.39852 0.45111 0.53608 0.0
C916 C 0.4095 0.46887 0.51914 0.0
C917 C 0.37258 0.44715 0.53683 0.0
C918 C 0.31168 0.45822 0.50641 0.0
H919 H 0.21469 0.46769 0.59613 0.0
H920 H 0.2533 0.48416 0.57634 0.0
H921 H 0.27227 0.45359 0.49694 0.0
H922 H 0.40234 0.49445 0.48785 0.0
H923 H 0.35657 0.48756 0.48926 0.0
H924 H 0.33688 0.46814 0.56797 0.0
C925 C 0.24301 0.46726 0.56742 0.0
C926 C 0.28626 0.45695 0.51253 0.0
C927 C 0.22092 0.45791 0.57871 0.0
C928 C 0.39424 0.48057 0.50101 0.0
C929 C 0.36811 0.47674 0.5019 0.0
C930 C 0.32296 0.46497 0.55225 0.0
C931 C 0.25268 0.45379 0.54608 0.0
C932 C 0.27908 0.45923 0.53866 0.0
C933 C 0.35715 0.46107 0.52083 0.0
C934 C 0.3302 0.46148 0.52635 0.0
H935 H 0.20656 0.40552 0.53771 0.0
H936 H 0.2454 0.42145 0.5183 0.0
H937 H 0.29299 0.4653 0.57869 0.0
H938 H 0.40995 0.44165 0.55005 0.0
H939 H 0.36455 0.43442 0.55113 0.0
C940 C 0.90399 0.76213 0.91183 0.0
C941 C 0.90443 0.78275 0.93038 0.0
C942 C 0.91146 0.73794 0.91889 0.0
C943 C 0.94835 0.70741 0.9703 0.0
H944 H 0.91658 0.64363 0.93973 0.0
C945 C 0.99117 0.60868 0.97804 0.0
C946 C 0.97491 0.58698 0.98218 0.0
C947 C 0.98169 0.63269 0.97402 0.0
C948 C 0.92546 0.66127 0.94866 0.0
H949 H 0.91203 0.79404 0.97097 0.0
H950 H 0.92425 0.75181 0.98352 0.0
H951 H 0.90118 0.68489 0.92773 0.0
H952 H 0.93606 0.57302 0.98506 0.0
H953 H 0.91931 0.61506 0.9778 0.0
H954 H 0.97248 0.68379 0.99135 0.0
C955 C 0.91897 0.75436 0.96334 0.0
C956 C 0.91686 0.68497 0.94152 0.0
C957 C 0.91183 0.77855 0.95621 0.0
C958 C 0.94899 0.58971 0.98268 0.0
C959 C 0.93943 0.61364 0.9781 0.0
C960 C 0.95695 0.68377 0.97739 0.0
C961 C 0.91925 0.73378 0.94473 0.0
C962 C 0.92819 0.70839 0.95226 0.0
C963 C 0.95567 0.63534 0.97335 0.0
C964 C 0.94568 0.66041 0.96663 0.0
H965 H 0.89858 0.76494 0.89172 0.0
H966 H 0.91173 0.72271 0.90393 0.0
H967 H 0.95786 0.72497 0.97871 0.0
H968 H 0.01118 0.60685 0.97699 0.0
H969 H 0.9947 0.64891 0.97017 0.0
C970 C 0.38698 0.74977 0.09038 0.0
C971 C 0.40477 0.73582 0.10338 0.0
C972 C 0.39098 0.77639 0.08801 0.0
C973 C 0.43118 0.83443 0.11234 0.0
H974 H 0.41436 0.8592 0.04428 0.0
C975 C 0.48197 0.91716 0.05969 0.0
C976 C 0.46808 0.93019 0.04148 0.0
C977 C 0.46985 0.89942 0.07573 0.0
C978 C 0.41859 0.85285 0.06366 0.0
H979 H 0.44046 0.73912 0.12472 0.0
H980 H 0.44802 0.78539 0.11954 0.0
H981 H 0.40238 0.81496 0.05412 0.0
H982 H 0.43085 0.93741 0.0275 0.0
H983 H 0.40951 0.90648 0.05567 0.0
H984 H 0.44905 0.87222 0.12091 0.0
C985 C 0.43067 0.77585 0.11165 0.0
C986 C 0.41175 0.82736 0.06932 0.0
C987 C 0.42656 0.74921 0.11422 0.0
C988 C 0.44185 0.92778 0.04172 0.0
C989 C 0.4297 0.90991 0.05763 0.0
C990 C 0.43832 0.85997 0.10651 0.0
C991 C 0.41303 0.78974 0.09829 0.0
C992 C 0.41832 0.81765 0.09354 0.0
C993 C 0.44374 0.89427 0.07336 0.0
C994 C 0.43241 0.86928 0.08194 0.0
H995 H 0.3701 0.74007 0.08157 0.0
H996 H 0.37681 0.78646 0.07789 0.0
H997 H 0.43619 0.8277 0.13135 0.0
H998 H 0.50227 0.91848 0.05944 0.0
H999 H 0.48117 0.88762 0.08759 0.0
C1000 C 0.06596 0.28729 0.54125 0.0
C1001 C 0.06731 0.29053 0.56846 0.0
C1002 C 0.0536 0.26503 0.5295 0.0
C1003 C 0.01239 0.20632 0.54299 0.0
H1004 H 0.05465 0.17234 0.49412 0.0
C1005 C -0.00365 0.09767 0.51839 0.0
C1006 C 0.01815 0.08522 0.52417 0.0
C1007 C -0.00221 0.12436 0.51498 0.0
C1008 C 0.04243 0.18169 0.50745 0.0
H1009 H 0.05638 0.27416 0.60487 0.0
H1010 H 0.03495 0.23524 0.58459 0.0
H1011 H 0.06412 0.21772 0.50655 0.0
H1012 H 0.05845 0.08993 0.52942 0.0
H1013 H 0.06119 0.13618 0.52283 0.0
H1014 H 0.99186 0.1697 0.54537 0.0
C1015 C 0.04288 0.24984 0.57212 0.0
C1016 C 0.04772 0.20777 0.51443 0.0
C1017 C 0.05525 0.27201 0.58379 0.0
C1018 C 0.04148 0.09921 0.52461 0.0
C1019 C 0.04299 0.12567 0.52078 0.0
C1020 C 0.00709 0.18022 0.53599 0.0
C1021 C 0.04251 0.24573 0.54486 0.0
C1022 C 0.03341 0.22009 0.53314 0.0
C1023 C 0.0211 0.13874 0.51697 0.0
C1024 C 0.02273 0.16737 0.51901 0.0
H1025 H 0.07536 0.3014 0.52919 0.0
H1026 H 0.05348 0.26251 0.50847 0.0
H1027 H 0.00078 0.21538 0.55716 0.0
H1028 H 0.97813 0.08716 0.51842 0.0
H1029 H 0.98063 0.13393 0.51203 0.0
C1030 C 0.60906 0.25117 0.45359 0.0
C1031 C 0.59954 0.23436 0.43303 0.0
C1032 C 0.59484 0.27085 0.46325 0.0
C1033 C 0.54659 0.31122 0.44003 0.0
H1034 H 0.54183 0.33386 0.51248 0.0
C1035 C 0.48895 0.39553 0.46558 0.0
C1036 C 0.50103 0.41518 0.48179 0.0
C1037 C 0.49808 0.37108 0.46404 0.0
C1038 C 0.5431 0.32777 0.49219 0.0
H1039 H 0.56731 0.22437 0.4072 0.0
H1040 H 0.54248 0.25839 0.42423 0.0
H1041 H 0.56364 0.29503 0.50138 0.0
H1042 H 0.53086 0.42417 0.51075 0.0
H1043 H 0.5472 0.38129 0.50775 0.0
H1044 H 0.52685 0.34403 0.43055 0.0
C1045 C 0.56098 0.2565 0.43276 0.0
C1046 C 0.55555 0.3056 0.48585 0.0
C1047 C 0.57511 0.23684 0.42319 0.0
C1048 C 0.52117 0.40932 0.49813 0.0
C1049 C 0.53052 0.38478 0.49638 0.0
C1050 C 0.53429 0.33328 0.44631 0.0
C1051 C 0.57094 0.27413 0.45239 0.0
C1052 C 0.55731 0.29709 0.45969 0.0
C1053 C 0.51969 0.36581 0.47844 0.0
C1054 C 0.53227 0.34178 0.47244 0.0
H1055 H 0.62774 0.24954 0.46173 0.0
H1056 H 0.60302 0.28421 0.47834 0.0
H1057 H 0.54821 0.30556 0.41966 0.0
H1058 H 0.47318 0.39946 0.45301 0.0
H1059 H 0.48891 0.35666 0.45057 0.0
loop_
_geom_bond_atom_site_label_1
_geom_bond_atom_site_label_2
_geom_bond_distance
_geom_bond_site_symmetry_2
_ccdc_geom_bond_type
P0 O11 1.490 . S
P0 C14 1.812 . S
P0 C20 1.803 . S
P0 C26 1.819 . S
H1 C15 0.941 . S
H2 C16 0.939 . S
H3 C18 0.940 . S
H4 C19 0.940 . S
H5 C21 0.939 . S
H6 C22 0.942 . S
H7 C24 0.940 . S
H8 C25 0.939 . S
H9 C27 0.941 . S
H10 C31 0.939 . S
O11 P0 1.490 . S
H12 C28 0.939 . S
H13 C30 0.940 . S
C14 P0 1.812 . S
C14 C15 1.389 . S
C14 C19 1.391 . S
C15 H1 0.941 . S
C15 C14 1.389 . S
C15 C16 1.397 . S
C16 H2 0.939 . S
C16 C15 1.397 . S
C16 C17 1.378 . S
C17 C16 1.378 . S
C17 C18 1.378 . S
C18 H3 0.940 . S
C18 C17 1.378 . S
C18 C19 1.396 . S
C19 H4 0.940 . S
C19 C14 1.391 . S
C19 C18 1.396 . S
C20 P0 1.803 . S
C20 C21 1.378 . S
C20 C25 1.400 . S
C21 H5 0.939 . S
C21 C20 1.378 . S
C21 C22 1.361 . S
C22 H6 0.942 . S
C22 C21 1.361 . S
C22 C23 1.369 . S
C23 C22 1.369 . S
C23 C24 1.404 . S
C24 H7 0.940 . S
C24 C23 1.404 . S
C24 C25 1.389 . S
C25 H8 0.939 . S
C25 C20 1.400 . S
C25 C24 1.389 . S
C26 P0 1.819 . S
C26 C27 1.391 . S
C26 C31 1.391 . S
C27 H9 0.941 . S
C27 C26 1.391 . S
C27 C28 1.396 . S
C28 H12 0.939 . S
C28 C27 1.396 . S
C28 C29 1.397 . S
C29 C28 1.397 . S
C29 C30 1.385 . S
C30 H13 0.940 . S
C30 C29 1.385 . S
C30 C31 1.388 . S
C31 H10 0.939 . S
C31 C26 1.391 . S
C31 C30 1.388 . S
P32 O43 1.490 . S
P32 C46 1.812 . S
P32 C52 1.803 . S
P32 C58 1.819 . S
H33 C47 0.941 . S
H34 C48 0.939 . S
H35 C50 0.940 . S
H36 C51 0.940 . S
H37 C53 0.939 . S
H38 C54 0.942 . S
H39 C56 0.940 . S
H40 C57 0.939 . S
H41 C59 0.941 . S
H42 C63 0.939 . S
O43 P32 1.490 . S
H44 C60 0.939 . S
H45 C62 0.940 . S
C46 P32 1.812 . S
C46 C47 1.389 . S
C46 C51 1.391 . S
C47 H33 0.941 . S
C47 C46 1.389 . S
C47 C48 1.397 . S
C48 H34 0.939 . S
C48 C47 1.397 . S
C48 C49 1.378 . S
C49 C48 1.378 . S
C49 C50 1.378 . S
C50 H35 0.940 . S
C50 C49 1.378 . S
C50 C51 1.396 . S
C51 H36 0.940 . S
C51 C46 1.391 . S
C51 C50 1.396 . S
C52 P32 1.803 . S
C52 C53 1.378 . S
C52 C57 1.400 . S
C53 H37 0.939 . S
C53 C52 1.378 . S
C53 C54 1.361 . S
C54 H38 0.942 . S
C54 C53 1.361 . S
C54 C55 1.369 . S
C55 C54 1.369 . S
C55 C56 1.404 . S
C56 H39 0.940 . S
C56 C55 1.404 . S
C56 C57 1.389 . S
C57 H40 0.939 . S
C57 C52 1.400 . S
C57 C56 1.389 . S
C58 P32 1.819 . S
C58 C59 1.391 . S
C58 C63 1.391 . S
C59 H41 0.941 . S
C59 C58 1.391 . S
C59 C60 1.396 . S
C60 H44 0.939 . S
C60 C59 1.396 . S
C60 C61 1.397 . S
C61 C60 1.397 . S
C61 C62 1.385 . S
C62 H45 0.940 . S
C62 C61 1.385 . S
C62 C63 1.388 . S
C63 H42 0.939 . S
C63 C58 1.391 . S
C63 C62 1.388 . S
P64 O75 1.490 . S
P64 C78 1.812 . S
P64 C84 1.803 . S
P64 C90 1.819 . S
H65 C79 0.941 . S
H66 C80 0.939 . S
H67 C82 0.940 . S
H68 C83 0.940 . S
H69 C85 0.939 . S
H70 C86 0.942 . S
H71 C88 0.940 . S
H72 C89 0.939 . S
H73 C91 0.941 . S
H74 C95 0.939 . S
O75 P64 1.490 . S
H76 C92 0.939 . S
H77 C94 0.940 . S
C78 P64 1.812 . S
C78 C79 1.389 . S
C78 C83 1.391 . S
C79 H65 0.941 . S
C79 C78 1.389 . S
C79 C80 1.397 . S
C80 H66 0.939 . S
C80 C79 1.397 . S
C80 C81 1.378 . S
C81 C80 1.378 . S
C81 C82 1.378 . S
C82 H67 0.940 . S
C82 C81 1.378 . S
C82 C83 1.396 . S
C83 H68 0.940 . S
C83 C78 1.391 . S
C83 C82 1.396 . S
C84 P64 1.803 . S
C84 C85 1.378 . S
C84 C89 1.400 . S
C85 H69 0.939 . S
C85 C84 1.378 . S
C85 C86 1.361 . S
C86 H70 0.942 . S
C86 C85 1.361 . S
C86 C87 1.369 . S
C87 C86 1.369 . S
C87 C88 1.404 . S
C88 H71 0.940 . S
C88 C87 1.404 . S
C88 C89 1.389 . S
C89 H72 0.939 . S
C89 C84 1.400 . S
C89 C88 1.389 . S
C90 P64 1.819 . S
C90 C91 1.391 . S
C90 C95 1.391 . S
C91 H73 0.941 . S
C91 C90 1.391 . S
C91 C92 1.396 . S
C92 H76 0.939 . S
C92 C91 1.396 . S
C92 C93 1.397 . S
C93 C92 1.397 . S
C93 C94 1.385 . S
C94 H77 0.940 . S
C94 C93 1.385 . S
C94 C95 1.388 . S
C95 H74 0.939 . S
C95 C90 1.391 . S
C95 C94 1.388 . S
P96 O107 1.490 . S
P96 C110 1.812 . S
P96 C116 1.803 . S
P96 C122 1.819 . S
H97 C111 0.941 . S
H98 C112 0.939 . S
H99 C114 0.940 . S
H100 C115 0.940 . S
H101 C117 0.939 . S
H102 C118 0.942 . S
H103 C120 0.940 . S
H104 C121 0.939 . S
H105 C123 0.941 . S
H106 C127 0.939 . S
O107 P96 1.490 . S
H108 C124 0.939 . S
H109 C126 0.940 . S
C110 P96 1.812 . S
C110 C111 1.389 . S
C110 C115 1.391 . S
C111 H97 0.941 . S
C111 C110 1.389 . S
C111 C112 1.397 . S
C112 H98 0.939 . S
C112 C111 1.397 . S
C112 C113 1.378 . S
C113 C112 1.378 . S
C113 C114 1.378 . S
C114 H99 0.940 . S
C114 C113 1.378 . S
C114 C115 1.396 . S
C115 H100 0.940 . S
C115 C110 1.391 . S
C115 C114 1.396 . S
C116 P96 1.803 . S
C116 C117 1.378 . S
C116 C121 1.400 . S
C117 H101 0.939 . S
C117 C116 1.378 . S
C117 C118 1.361 . S
C118 H102 0.942 . S
C118 C117 1.361 . S
C118 C119 1.369 . S
C119 C118 1.369 . S
C119 C120 1.404 . S
C120 H103 0.940 . S
C120 C119 1.404 . S
C120 C121 1.389 . S
C121 H104 0.939 . S
C121 C116 1.400 . S
C121 C120 1.389 . S
C122 P96 1.819 . S
C122 C123 1.391 . S
C122 C127 1.391 . S
C123 H105 0.941 . S
C123 C122 1.391 . S
C123 C124 1.396 . S
C124 H108 0.939 . S
C124 C123 1.396 . S
C124 C125 1.397 . S
C125 C124 1.397 . S
C125 C126 1.385 . S
C126 H109 0.940 . S
C126 C125 1.385 . S
C126 C127 1.388 . S
C127 H106 0.939 . S
C127 C122 1.391 . S
C127 C126 1.388 . S
P128 O139 1.490 . S
P128 C142 1.812 . S
P128 C148 1.803 . S
P128 C154 1.819 . S
H129 C143 0.941 . S
H130 C144 0.939 . S
H131 C146 0.940 . S
H132 C147 0.940 . S
H133 C149 0.939 . S
H134 C150 0.942 . S
H135 C152 0.940 . S
H136 C153 0.939 . S
H137 C155 0.941 . S
H138 C159 0.939 . S
O139 P128 1.490 . S
H140 C156 0.939 . S
H141 C158 0.940 . S
C142 P128 1.812 . S
C142 C143 1.389 . S
C142 C147 1.391 . S
C143 H129 0.941 . S
C143 C142 1.389 . S
C143 C144 1.397 . S
C144 H130 0.939 . S
C144 C143 1.397 . S
C144 C145 1.378 . S
C145 C144 1.378 . S
C145 C146 1.378 . S
C146 H131 0.940 . S
C146 C145 1.378 . S
C146 C147 1.396 . S
C147 H132 0.940 . S
C147 C142 1.391 . S
C147 C146 1.396 . S
C148 P128 1.803 . S
C148 C149 1.378 . S
C148 C153 1.400 . S
C149 H133 0.939 . S
C149 C148 1.378 . S
C149 C150 1.361 . S
C150 H134 0.942 . S
C150 C149 1.361 . S
C150 C151 1.369 . S
C151 C150 1.369 . S
C151 C152 1.404 . S
C152 H135 0.940 . S
C152 C151 1.404 . S
C152 C153 1.389 . S
C153 H136 0.939 . S
C153 C148 1.400 . S
C153 C152 1.389 . S
C154 P128 1.819 . S
C154 C155 1.391 . S
C154 C159 1.391 . S
C155 H137 0.941 . S
C155 C154 1.391 . S
C155 C156 1.396 . S
C156 H140 0.939 . S
C156 C155 1.396 . S
C156 C157 1.397 . S
C157 C156 1.397 . S
C157 C158 1.385 . S
C158 H141 0.940 . S
C158 C157 1.385 . S
C158 C159 1.388 . S
C159 H138 0.939 . S
C159 C154 1.391 . S
C159 C158 1.388 . S
P160 O171 1.490 . S
P160 C174 1.812 . S
P160 C180 1.803 . S
P160 C186 1.819 . S
H161 C175 0.941 . S
H162 C176 0.939 . S
H163 C178 0.940 . S
H164 C179 0.940 . S
H165 C181 0.939 . S
H166 C182 0.942 . S
H167 C184 0.940 . S
H168 C185 0.939 . S
H169 C187 0.941 . S
H170 C191 0.939 . S
O171 P160 1.490 . S
H172 C188 0.939 . S
H173 C190 0.940 . S
C174 P160 1.812 . S
C174 C175 1.389 . S
C174 C179 1.391 . S
C175 H161 0.941 . S
C175 C174 1.389 . S
C175 C176 1.397 . S
C176 H162 0.939 . S
C176 C175 1.397 . S
C176 C177 1.378 . S
C177 C176 1.378 . S
C177 C178 1.378 . S
C178 H163 0.940 . S
C178 C177 1.378 . S
C178 C179 1.396 . S
C179 H164 0.940 . S
C179 C174 1.391 . S
C179 C178 1.396 . S
C180 P160 1.803 . S
C180 C181 1.378 . S
C180 C185 1.400 . S
C181 H165 0.939 . S
C181 C180 1.378 . S
C181 C182 1.361 . S
C182 H166 0.942 . S
C182 C181 1.361 . S
C182 C183 1.369 . S
C183 C182 1.369 . S
C183 C184 1.404 . S
C184 H167 0.940 . S
C184 C183 1.404 . S
C184 C185 1.389 . S
C185 H168 0.939 . S
C185 C180 1.400 . S
C185 C184 1.389 . S
C186 P160 1.819 . S
C186 C187 1.391 . S
C186 C191 1.391 . S
C187 H169 0.941 . S
C187 C186 1.391 . S
C187 C188 1.396 . S
C188 H172 0.939 . S
C188 C187 1.396 . S
C188 C189 1.397 . S
C189 C188 1.397 . S
C189 C190 1.385 . S
C190 H173 0.940 . S
C190 C189 1.385 . S
C190 C191 1.388 . S
C191 H170 0.939 . S
C191 C186 1.391 . S
C191 C190 1.388 . S
P192 O203 1.490 . S
P192 C206 1.812 . S
P192 C212 1.803 . S
P192 C218 1.819 . S
H193 C207 0.941 . S
H194 C208 0.939 . S
H195 C210 0.940 . S
H196 C211 0.940 . S
H197 C213 0.939 . S
H198 C214 0.942 . S
H199 C216 0.940 . S
H200 C217 0.939 . S
H201 C219 0.941 . S
H202 C223 0.939 . S
O203 P192 1.490 . S
H204 C220 0.939 . S
H205 C222 0.940 . S
C206 P192 1.812 . S
C206 C207 1.389 . S
C206 C211 1.391 . S
C207 H193 0.941 . S
C207 C206 1.389 . S
C207 C208 1.397 . S
C208 H194 0.939 . S
C208 C207 1.397 . S
C208 C209 1.378 . S
C209 C208 1.378 . S
C209 C210 1.378 . S
C210 H195 0.940 . S
C210 C209 1.378 . S
C210 C211 1.396 . S
C211 H196 0.940 . S
C211 C206 1.391 . S
C211 C210 1.396 . S
C212 P192 1.803 . S
C212 C213 1.378 . S
C212 C217 1.400 . S
C213 H197 0.939 . S
C213 C212 1.378 . S
C213 C214 1.361 . S
C214 H198 0.942 . S
C214 C213 1.361 . S
C214 C215 1.369 . S
C215 C214 1.369 . S
C215 C216 1.404 . S
C216 H199 0.940 . S
C216 C215 1.404 . S
C216 C217 1.389 . S
C217 H200 0.939 . S
C217 C212 1.400 . S
C217 C216 1.389 . S
C218 P192 1.819 . S
C218 C219 1.391 . S
C218 C223 1.391 . S
C219 H201 0.941 . S
C219 C218 1.391 . S
C219 C220 1.396 . S
C220 H204 0.939 . S
C220 C219 1.396 . S
C220 C221 1.397 . S
C221 C220 1.397 . S
C221 C222 1.385 . S
C222 H205 0.940 . S
C222 C221 1.385 . S
C222 C223 1.388 . S
C223 H202 0.939 . S
C223 C218 1.391 . S
C223 C222 1.388 . S
P224 O235 1.490 . S
P224 C238 1.812 . S
P224 C244 1.803 . S
P224 C250 1.819 . S
H225 C239 0.941 . S
H226 C240 0.939 . S
H227 C242 0.940 . S
H228 C243 0.940 . S
H229 C245 0.939 . S
H230 C246 0.942 . S
H231 C248 0.940 . S
H232 C249 0.939 . S
H233 C251 0.941 . S
H234 C255 0.939 . S
O235 P224 1.490 . S
H236 C252 0.939 . S
H237 C254 0.940 . S
C238 P224 1.812 . S
C238 C239 1.389 . S
C238 C243 1.391 . S
C239 H225 0.941 . S
C239 C238 1.389 . S
C239 C240 1.397 . S
C240 H226 0.939 . S
C240 C239 1.397 . S
C240 C241 1.378 . S
C241 C240 1.378 . S
C241 C242 1.378 . S
C242 H227 0.940 . S
C242 C241 1.378 . S
C242 C243 1.396 . S
C243 H228 0.940 . S
C243 C238 1.391 . S
C243 C242 1.396 . S
C244 P224 1.803 . S
C244 C245 1.378 . S
C244 C249 1.400 . S
C245 H229 0.939 . S
C245 C244 1.378 . S
C245 C246 1.361 . S
C246 H230 0.942 . S
C246 C245 1.361 . S
C246 C247 1.369 . S
C247 C246 1.369 . S
C247 C248 1.404 . S
C248 H231 0.940 . S
C248 C247 1.404 . S
C248 C249 1.389 . S
C249 H232 0.939 . S
C249 C244 1.400 . S
C249 C248 1.389 . S
C250 P224 1.819 . S
C250 C251 1.391 . S
C250 C255 1.391 . S
C251 H233 0.941 . S
C251 C250 1.391 . S
C251 C252 1.396 . S
C252 H236 0.939 . S
C252 C251 1.396 . S
C252 C253 1.397 . S
C253 C252 1.397 . S
C253 C254 1.385 . S
C254 H237 0.940 . S
C254 C253 1.385 . S
C254 C255 1.388 . S
C255 H234 0.939 . S
C255 C250 1.391 . S
C255 C254 1.388 . S
O256 Mg257 1.990 . S
O256 C270 1.253 1_445 S
Mg257 O256 1.990 . S
Mg257 O260 2.180 . S
Mg257 O261 2.117 . S
Mg257 O275 2.030 1_545 S
O258 Mg259 2.072 1_665 S
O258 C270 1.260 . S
Mg259 O258 2.072 1_445 S
Mg259 O260 2.099 . S
Mg259 O262 2.079 . S
Mg259 O263 2.072 1_455 S
Mg259 O265 2.099 1_445 S
Mg259 O276 2.079 1_545 S
O260 Mg257 2.180 . S
O260 Mg259 2.099 . S
O260 C271 1.279 . S
O261 Mg257 2.117 . S
O261 C271 1.250 . S
O262 Mg259 2.079 . S
O262 C272 1.264 . S
O263 Mg259 2.072 1_655 S
O263 C273 1.260 . S
Mg264 O265 2.180 . S
Mg264 O266 2.030 1_565 S
Mg264 O267 1.990 1_565 S
Mg264 O268 2.117 . S
O265 Mg259 2.099 1_665 S
O265 Mg264 2.180 . S
O265 C274 1.279 . S
O266 Mg264 2.030 1_545 S
O266 C272 1.248 1_655 S
O267 Mg264 1.990 1_545 S
O267 C273 1.253 . S
O268 Mg264 2.117 . S
O268 C274 1.250 . S
C269 O275 1.248 . S
C269 O276 1.264 . S
C270 O256 1.253 1_665 S
C270 O258 1.260 . S
C271 O260 1.279 . S
C271 O261 1.250 . S
C272 O262 1.264 . S
C272 O266 1.248 1_455 S
C273 O263 1.260 . S
C273 O267 1.253 . S
C274 O265 1.279 . S
C274 O268 1.250 . S
O275 Mg257 2.030 1_565 S
O275 C269 1.248 . S
O276 Mg259 2.079 1_565 S
O276 C269 1.264 . S
O277 Mg278 1.990 . S
O277 C291 1.253 . S
Mg278 O277 1.990 . S
Mg278 O281 2.180 . S
Mg278 O282 2.117 1_554 S
Mg278 O296 2.030 . S
O279 Mg280 2.072 . S
O279 C291 1.260 . S
Mg280 O279 2.072 . S
Mg280 O281 2.099 . S
Mg280 O283 2.081 . S
Mg280 O284 2.072 1_554 S
Mg280 O286 2.099 1_545 S
Mg280 O297 2.079 . S
O281 Mg278 2.180 . S
O281 Mg280 2.099 . S
O281 C292 1.279 1_554 S
O282 Mg278 2.117 1_556 S
O282 C292 1.250 . S
O283 Mg280 2.081 . S
O283 C293 1.257 1_544 S
O284 Mg280 2.072 1_556 S
O284 C294 1.260 1_545 S
Mg285 O286 2.180 1_556 S
Mg285 O287 2.030 . S
Mg285 O288 1.990 . S
Mg285 O289 2.117 1_556 S
O286 Mg280 2.099 1_565 S
O286 Mg285 2.180 1_554 S
O286 C295 1.279 . S
O287 Mg285 2.030 . S
O287 C293 1.248 . S
O288 Mg285 1.990 . S
O288 C294 1.253 . S
O289 Mg285 2.117 1_554 S
O289 C295 1.250 . S
C290 O296 1.248 . S
C290 O297 1.264 . S
C291 O277 1.253 . S
C291 O279 1.260 . S
C292 O281 1.279 1_556 S
C292 O282 1.250 . S
C293 O283 1.257 1_566 S
C293 O287 1.248 . S
C294 O284 1.260 1_565 S
C294 O288 1.253 . S
C295 O286 1.279 . S
C295 O289 1.250 . S
O296 Mg278 2.030 . S
O296 C290 1.248 . S
O297 Mg280 2.079 . S
O297 C290 1.264 . S
O298 Mg299 1.990 . S
O298 C312 1.253 . S
Mg299 O298 1.990 . S
Mg299 O302 2.180 . S
Mg299 O303 2.117 . S
Mg299 O317 2.030 . S
O300 Mg301 2.072 . S
O300 C312 1.260 . S
Mg301 O300 2.072 . S
Mg301 O302 2.099 . S
Mg301 O304 2.079 . S
Mg301 O305 2.072 . S
Mg301 O307 2.099 . S
Mg301 O318 2.079 . S
O302 Mg299 2.180 . S
O302 Mg301 2.099 . S
O302 C313 1.279 . S
O303 Mg299 2.117 . S
O303 C313 1.250 . S
O304 Mg301 2.079 . S
O304 C314 1.264 . S
O305 Mg301 2.072 . S
O305 C315 1.260 . S
Mg306 O307 2.180 . S
Mg306 O308 2.030 . S
Mg306 O309 1.990 . S
Mg306 O310 2.117 . S
O307 Mg301 2.099 . S
O307 Mg306 2.180 . S
O307 C316 1.279 . S
O308 Mg306 2.030 . S
O308 C314 1.248 . S
O309 Mg306 1.990 . S
O309 C315 1.253 . S
O310 Mg306 2.117 . S
O310 C316 1.250 . S
C311 O317 1.248 . S
C311 O318 1.264 . S
C312 O298 1.253 . S
C312 O300 1.260 . S
C313 O302 1.279 . S
C313 O303 1.250 . S
C314 O304 1.264 . S
C314 O308 1.248 . S
C315 O305 1.260 . S
C315 O309 1.253 . S
C316 O307 1.279 . S
C316 O310 1.250 . S
O317 Mg299 2.030 . S
O317 C311 1.248 . S
O318 Mg301 2.079 . S
O318 C311 1.264 . S
O319 Mg320 1.990 . S
O319 C333 1.253 . S
Mg320 O319 1.990 . S
Mg320 O323 2.180 1_455 S
Mg320 O324 2.117 1_455 S
Mg320 O338 2.030 . S
O321 Mg322 2.072 . S
O321 C333 1.260 . S
Mg322 O321 2.072 . S
Mg322 O323 2.099 1_455 S
Mg322 O325 2.079 1_454 S
Mg322 O326 2.072 1_455 S
Mg322 O328 2.099 1_554 S
Mg322 O339 2.079 . S
O323 Mg320 2.180 1_655 S
O323 Mg322 2.099 1_655 S
O323 C334 1.279 . S
O324 Mg320 2.117 1_655 S
O324 C334 1.250 . S
O325 Mg322 2.079 1_656 S
O325 C335 1.264 . S
O326 Mg322 2.072 1_655 S
O326 C336 1.260 1_554 S
Mg327 O328 2.180 1_655 S
Mg327 O329 2.030 . S
Mg327 O330 1.990 . S
Mg327 O331 2.117 . S
O328 Mg322 2.099 1_556 S
O328 Mg327 2.180 1_455 S
O328 C337 1.279 . S
O329 Mg327 2.030 . S
O329 C335 1.248 . S
O330 Mg327 1.990 . S
O330 C336 1.253 . S
O331 Mg327 2.117 . S
O331 C337 1.250 1_655 S
C332 O338 1.248 . S
C332 O339 1.264 . S
C333 O319 1.253 . S
C333 O321 1.260 . S
C334 O323 1.279 . S
C334 O324 1.250 . S
C335 O325 1.264 . S
C335 O329 1.248 . S
C336 O326 1.260 1_556 S
C336 O330 1.253 . S
C337 O328 1.279 . S
C337 O331 1.250 1_455 S
O338 Mg320 2.030 . S
O338 C332 1.248 . S
O339 Mg322 2.079 . S
O339 C332 1.264 . S
C340 C341 1.349 . S
C340 C342 1.327 . S
C340 H365 0.950 . S
C341 C340 1.349 . S
C341 C357 1.349 . S
C342 C340 1.327 . S
C342 C361 1.429 . S
C342 H366 0.950 . S
C343 C360 1.574 . S
C343 C362 1.368 . S
C343 H367 0.949 . S
H344 C348 0.949 . S
C345 C346 1.349 . S
C345 C347 1.327 . S
C345 H368 0.950 . S
C346 C345 1.349 . S
C346 C358 1.349 . S
C347 C345 1.327 . S
C347 C363 1.429 . S
C347 H369 0.950 . S
C348 H344 0.949 . S
C348 C356 1.574 . S
C348 C364 1.368 . S
H349 C357 0.950 . S
H350 C355 0.950 . S
H351 C356 0.949 . S
H352 C358 0.950 . S
H353 C359 0.950 . S
H354 C360 0.949 . S
C355 H350 0.950 . S
C355 C357 1.327 . S
C355 C361 1.429 . S
C356 C348 1.574 . S
C356 H351 0.949 . S
C356 C362 1.368 . S
C357 C341 1.349 . S
C357 H349 0.950 . S
C357 C355 1.327 . S
C358 C346 1.349 . S
C358 H352 0.950 . S
C358 C359 1.327 . S
C359 H353 0.950 . S
C359 C358 1.327 . S
C359 C363 1.429 . S
C360 C343 1.574 . S
C360 H354 0.949 . S
C360 C364 1.368 . S
C361 C342 1.429 . S
C361 C355 1.429 . S
C361 C362 1.523 . S
C362 C343 1.368 . S
C362 C356 1.368 . S
C362 C361 1.523 . S
C363 C347 1.429 . S
C363 C359 1.429 . S
C363 C364 1.523 . S
C364 C348 1.368 . S
C364 C360 1.368 . S
C364 C363 1.523 . S
H365 C340 0.950 . S
H366 C342 0.950 . S
H367 C343 0.949 . S
H368 C345 0.950 . S
H369 C347 0.950 . S
C370 C371 1.349 . S
C370 C372 1.327 . S
C370 H395 0.950 . S
C371 C370 1.349 . S
C371 C387 1.349 . S
C372 C370 1.327 . S
C372 C391 1.429 . S
C372 H396 0.950 . S
C373 C390 1.574 . S
C373 C392 1.368 . S
C373 H397 0.949 . S
H374 C378 0.949 1_545 S
C375 C376 1.349 . S
C375 C377 1.327 . S
C375 H398 0.950 . S
C376 C375 1.349 . S
C376 C388 1.349 1_565 S
C377 C375 1.327 . S
C377 C393 1.429 . S
C377 H399 0.950 . S
C378 H374 0.949 1_565 S
C378 C386 1.574 . S
C378 C394 1.368 . S
H379 C387 0.950 . S
H380 C385 0.950 . S
H381 C386 0.949 . S
H382 C388 0.950 . S
H383 C389 0.950 . S
H384 C390 0.949 . S
C385 H380 0.950 . S
C385 C387 1.327 . S
C385 C391 1.429 . S
C386 C378 1.574 . S
C386 H381 0.949 . S
C386 C392 1.368 . S
C387 C371 1.349 . S
C387 H379 0.950 . S
C387 C385 1.327 . S
C388 C376 1.349 1_545 S
C388 H382 0.950 . S
C388 C389 1.327 . S
C389 H383 0.950 . S
C389 C388 1.327 . S
C389 C393 1.429 1_545 S
C390 C373 1.574 . S
C390 H384 0.949 . S
C390 C394 1.368 . S
C391 C372 1.429 . S
C391 C385 1.429 . S
C391 C392 1.523 . S
C392 C373 1.368 . S
C392 C386 1.368 . S
C392 C391 1.523 . S
C393 C377 1.429 . S
C393 C389 1.429 1_565 S
C393 C394 1.523 . S
C394 C378 1.368 . S
C394 C390 1.368 . S
C394 C393 1.523 . S
H395 C370 0.950 . S
H396 C372 0.950 . S
H397 C373 0.949 . S
H398 C375 0.950 . S
H399 C377 0.950 . S
C400 C401 1.349 . S
C400 C402 1.327 . S
C400 H425 0.950 . S
C401 C400 1.349 . S
C401 C417 1.349 . S
C402 C400 1.327 . S
C402 C421 1.429 . S
C402 H426 0.950 . S
C403 C420 1.574 . S
C403 C422 1.368 . S
C403 H427 0.949 . S
H404 C408 0.949 . S
C405 C406 1.349 . S
C405 C407 1.327 . S
C405 H428 0.950 . S
C406 C405 1.349 . S
C406 C418 1.349 . S
C407 C405 1.327 . S
C407 C423 1.429 . S
C407 H429 0.950 . S
C408 H404 0.949 . S
C408 C416 1.574 . S
C408 C424 1.368 . S
H409 C417 0.950 . S
H410 C415 0.950 . S
H411 C416 0.949 . S
H412 C418 0.950 . S
H413 C419 0.950 . S
H414 C420 0.949 . S
C415 H410 0.950 . S
C415 C417 1.327 . S
C415 C421 1.429 . S
C416 C408 1.574 . S
C416 H411 0.949 . S
C416 C422 1.368 . S
C417 C401 1.349 . S
C417 H409 0.950 . S
C417 C415 1.327 . S
C418 C406 1.349 . S
C418 H412 0.950 . S
C418 C419 1.327 . S
C419 H413 0.950 . S
C419 C418 1.327 . S
C419 C423 1.429 . S
C420 C403 1.574 . S
C420 H414 0.949 . S
C420 C424 1.368 . S
C421 C402 1.429 . S
C421 C415 1.429 . S
C421 C422 1.523 . S
C422 C403 1.368 . S
C422 C416 1.368 . S
C422 C421 1.523 . S
C423 C407 1.429 . S
C423 C419 1.429 . S
C423 C424 1.523 . S
C424 C408 1.368 . S
C424 C420 1.368 . S
C424 C423 1.523 . S
H425 C400 0.950 . S
H426 C402 0.950 . S
H427 C403 0.949 . S
H428 C405 0.950 . S
H429 C407 0.950 . S
C430 C431 1.349 . S
C430 C432 1.327 . S
C430 H455 0.950 . S
C431 C430 1.349 . S
C431 C447 1.349 . S
C432 C430 1.327 . S
C432 C451 1.429 . S
C432 H456 0.950 . S
C433 C450 1.574 . S
C433 C452 1.368 . S
C433 H457 0.949 . S
H434 C438 0.949 . S
C435 C436 1.349 . S
C435 C437 1.327 . S
C435 H458 0.950 . S
C436 C435 1.349 . S
C436 C448 1.349 . S
C437 C435 1.327 . S
C437 C453 1.429 . S
C437 H459 0.950 . S
C438 H434 0.949 . S
C438 C446 1.574 . S
C438 C454 1.368 . S
H439 C447 0.950 . S
H440 C445 0.950 . S
H441 C446 0.949 . S
H442 C448 0.950 . S
H443 C449 0.950 . S
H444 C450 0.949 . S
C445 H440 0.950 . S
C445 C447 1.327 . S
C445 C451 1.429 . S
C446 C438 1.574 . S
C446 H441 0.949 . S
C446 C452 1.368 . S
C447 C431 1.349 . S
C447 H439 0.950 . S
C447 C445 1.327 . S
C448 C436 1.349 . S
C448 H442 0.950 . S
C448 C449 1.327 . S
C449 H443 0.950 . S
C449 C448 1.327 . S
C449 C453 1.429 . S
C450 C433 1.574 . S
C450 H444 0.949 . S
C450 C454 1.368 . S
C451 C432 1.429 . S
C451 C445 1.429 . S
C451 C452 1.523 . S
C452 C433 1.368 . S
C452 C446 1.368 . S
C452 C451 1.523 . S
C453 C437 1.429 . S
C453 C449 1.429 . S
C453 C454 1.523 . S
C454 C438 1.368 . S
C454 C450 1.368 . S
C454 C453 1.523 . S
H455 C430 0.950 . S
H456 C432 0.950 . S
H457 C433 0.949 . S
H458 C435 0.950 . S
H459 C437 0.950 . S
C460 C461 1.349 . S
C460 C462 1.327 . S
C460 H485 0.950 . S
C461 C460 1.349 . S
C461 C477 1.349 . S
C462 C460 1.327 . S
C462 C481 1.429 . S
C462 H486 0.950 . S
C463 C480 1.574 . S
C463 C482 1.368 . S
C463 H487 0.949 . S
H464 C468 0.949 . S
C465 C466 1.349 . S
C465 C467 1.327 . S
C465 H488 0.950 . S
C466 C465 1.349 . S
C466 C478 1.349 . S
C467 C465 1.327 . S
C467 C483 1.429 . S
C467 H489 0.950 . S
C468 H464 0.949 . S
C468 C476 1.574 . S
C468 C484 1.368 . S
H469 C477 0.950 . S
H470 C475 0.950 . S
H471 C476 0.949 . S
H472 C478 0.950 . S
H473 C479 0.950 . S
H474 C480 0.949 . S
C475 H470 0.950 . S
C475 C477 1.327 . S
C475 C481 1.429 . S
C476 C468 1.574 . S
C476 H471 0.949 . S
C476 C482 1.368 . S
C477 C461 1.349 . S
C477 H469 0.950 . S
C477 C475 1.327 . S
C478 C466 1.349 . S
C478 H472 0.950 . S
C478 C479 1.327 . S
C479 H473 0.950 . S
C479 C478 1.327 . S
C479 C483 1.429 . S
C480 C463 1.574 . S
C480 H474 0.949 . S
C480 C484 1.368 . S
C481 C462 1.429 . S
C481 C475 1.429 . S
C481 C482 1.523 . S
C482 C463 1.368 . S
C482 C476 1.368 . S
C482 C481 1.523 . S
C483 C467 1.429 . S
C483 C479 1.429 . S
C483 C484 1.523 . S
C484 C468 1.368 . S
C484 C480 1.368 . S
C484 C483 1.523 . S
H485 C460 0.950 . S
H486 C462 0.950 . S
H487 C463 0.949 . S
H488 C465 0.950 . S
H489 C467 0.950 . S
C490 C491 1.349 . S
C490 C492 1.327 . S
C490 H515 0.950 . S
C491 C490 1.349 . S
C491 C507 1.349 . S
C492 C490 1.327 . S
C492 C511 1.429 . S
C492 H516 0.950 . S
C493 C510 1.574 . S
C493 C512 1.368 . S
C493 H517 0.949 . S
H494 C498 0.949 . S
C495 C496 1.349 . S
C495 C497 1.327 . S
C495 H518 0.950 . S
C496 C495 1.349 . S
C496 C508 1.349 . S
C497 C495 1.327 . S
C497 C513 1.429 . S
C497 H519 0.950 . S
C498 H494 0.949 . S
C498 C506 1.574 . S
C498 C514 1.368 . S
H499 C507 0.950 . S
H500 C505 0.950 . S
H501 C506 0.949 . S
H502 C508 0.950 . S
H503 C509 0.950 . S
H504 C510 0.949 . S
C505 H500 0.950 . S
C505 C507 1.327 . S
C505 C511 1.429 . S
C506 C498 1.574 . S
C506 H501 0.949 . S
C506 C512 1.368 . S
C507 C491 1.349 . S
C507 H499 0.950 . S
C507 C505 1.327 . S
C508 C496 1.349 . S
C508 H502 0.950 . S
C508 C509 1.327 . S
C509 H503 0.950 . S
C509 C508 1.327 . S
C509 C513 1.429 . S
C510 C493 1.574 . S
C510 H504 0.949 . S
C510 C514 1.368 . S
C511 C492 1.429 . S
C511 C505 1.429 . S
C511 C512 1.523 . S
C512 C493 1.368 . S
C512 C506 1.368 . S
C512 C511 1.523 . S
C513 C497 1.429 . S
C513 C509 1.429 . S
C513 C514 1.523 . S
C514 C498 1.368 . S
C514 C510 1.368 . S
C514 C513 1.523 . S
H515 C490 0.950 . S
H516 C492 0.950 . S
H517 C493 0.949 . S
H518 C495 0.950 . S
H519 C497 0.950 . S
C520 C521 1.349 . S
C520 C522 1.327 . S
C520 H545 0.950 . S
C521 C520 1.349 . S
C521 C537 1.349 . S
C522 C520 1.327 . S
C522 C541 1.429 . S
C522 H546 0.950 . S
C523 C540 1.574 . S
C523 C542 1.368 . S
C523 H547 0.949 . S
H524 C528 0.949 . S
C525 C526 1.349 . S
C525 C527 1.327 . S
C525 H548 0.950 . S
C526 C525 1.349 . S
C526 C538 1.349 . S
C527 C525 1.327 . S
C527 C543 1.429 . S
C527 H549 0.950 . S
C528 H524 0.949 . S
C528 C536 1.574 . S
C528 C544 1.368 . S
H529 C537 0.950 . S
H530 C535 0.950 . S
H531 C536 0.949 . S
H532 C538 0.950 1_554 S
H533 C539 0.950 . S
H534 C540 0.949 . S
C535 H530 0.950 . S
C535 C537 1.327 . S
C535 C541 1.429 . S
C536 C528 1.574 . S
C536 H531 0.949 . S
C536 C542 1.368 . S
C537 C521 1.349 . S
C537 H529 0.950 . S
C537 C535 1.327 . S
C538 C526 1.349 . S
C538 H532 0.950 1_556 S
C538 C539 1.327 . S
C539 H533 0.950 . S
C539 C538 1.327 . S
C539 C543 1.429 . S
C540 C523 1.574 . S
C540 H534 0.949 . S
C540 C544 1.368 . S
C541 C522 1.429 . S
C541 C535 1.429 . S
C541 C542 1.523 . S
C542 C523 1.368 . S
C542 C536 1.368 . S
C542 C541 1.523 . S
C543 C527 1.429 . S
C543 C539 1.429 . S
C543 C544 1.523 . S
C544 C528 1.368 . S
C544 C540 1.368 . S
C544 C543 1.523 . S
H545 C520 0.950 . S
H546 C522 0.950 . S
H547 C523 0.949 . S
H548 C525 0.950 . S
H549 C527 0.950 . S
C550 C551 1.349 . S
C550 C552 1.327 . S
C550 H575 0.950 . S
C551 C550 1.349 . S
C551 C567 1.349 . S
C552 C550 1.327 . S
C552 C571 1.429 . S
C552 H576 0.950 . S
C553 C570 1.574 . S
C553 C572 1.368 . S
C553 H577 0.949 . S
H554 C558 0.949 . S
C555 C556 1.349 . S
C555 C557 1.327 . S
C555 H578 0.950 . S
C556 C555 1.349 . S
C556 C568 1.349 . S
C557 C555 1.327 . S
C557 C573 1.429 . S
C557 H579 0.950 . S
C558 H554 0.949 . S
C558 C566 1.574 . S
C558 C574 1.368 . S
H559 C567 0.950 . S
H560 C565 0.950 . S
H561 C566 0.949 . S
H562 C568 0.950 . S
H563 C569 0.950 . S
H564 C570 0.949 . S
C565 H560 0.950 . S
C565 C567 1.327 . S
C565 C571 1.429 . S
C566 C558 1.574 . S
C566 H561 0.949 . S
C566 C572 1.368 . S
C567 C551 1.349 . S
C567 H559 0.950 . S
C567 C565 1.327 . S
C568 C556 1.349 . S
C568 H562 0.950 . S
C568 C569 1.327 . S
C569 H563 0.950 . S
C569 C568 1.327 . S
C569 C573 1.429 . S
C570 C553 1.574 . S
C570 H564 0.949 . S
C570 C574 1.368 . S
C571 C552 1.429 . S
C571 C565 1.429 . S
C571 C572 1.523 . S
C572 C553 1.368 . S
C572 C566 1.368 . S
C572 C571 1.523 . S
C573 C557 1.429 . S
C573 C569 1.429 . S
C573 C574 1.523 . S
C574 C558 1.368 . S
C574 C570 1.368 . S
C574 C573 1.523 . S
H575 C550 0.950 . S
H576 C552 0.950 . S
H577 C553 0.949 . S
H578 C555 0.950 . S
H579 C557 0.950 . S
C580 C581 1.349 . S
C580 C582 1.327 . S
C580 H605 0.950 . S
C581 C580 1.349 . S
C581 C597 1.349 . S
C582 C580 1.327 . S
C582 C601 1.429 . S
C582 H606 0.950 . S
C583 C600 1.574 . S
C583 C602 1.368 . S
C583 H607 0.949 . S
H584 C588 0.949 . S
C585 C586 1.349 . S
C585 C587 1.327 . S
C585 H608 0.950 . S
C586 C585 1.349 . S
C586 C598 1.349 . S
C587 C585 1.327 . S
C587 C603 1.429 . S
C587 H609 0.950 . S
C588 H584 0.949 . S
C588 C596 1.574 . S
C588 C604 1.368 . S
H589 C597 0.950 . S
H590 C595 0.950 . S
H591 C596 0.949 . S
H592 C598 0.950 . S
H593 C599 0.950 . S
H594 C600 0.949 . S
C595 H590 0.950 . S
C595 C597 1.327 . S
C595 C601 1.429 . S
C596 C588 1.574 . S
C596 H591 0.949 . S
C596 C602 1.368 . S
C597 C581 1.349 . S
C597 H589 0.950 . S
C597 C595 1.327 . S
C598 C586 1.349 . S
C598 H592 0.950 . S
C598 C599 1.327 . S
C599 H593 0.950 . S
C599 C598 1.327 . S
C599 C603 1.429 . S
C600 C583 1.574 . S
C600 H594 0.949 . S
C600 C604 1.368 . S
C601 C582 1.429 . S
C601 C595 1.429 . S
C601 C602 1.523 . S
C602 C583 1.368 . S
C602 C596 1.368 . S
C602 C601 1.523 . S
C603 C587 1.429 . S
C603 C599 1.429 . S
C603 C604 1.523 . S
C604 C588 1.368 . S
C604 C600 1.368 . S
C604 C603 1.523 . S
H605 C580 0.950 . S
H606 C582 0.950 . S
H607 C583 0.949 . S
H608 C585 0.950 . S
H609 C587 0.950 . S
C610 C611 1.349 . S
C610 C612 1.327 . S
C610 H635 0.950 . S
C611 C610 1.349 . S
C611 C627 1.349 . S
C612 C610 1.327 . S
C612 C631 1.429 . S
C612 H636 0.950 . S
C613 C630 1.574 . S
C613 C632 1.368 . S
C613 H637 0.949 . S
H614 C618 0.949 . S
C615 C616 1.349 . S
C615 C617 1.327 . S
C615 H638 0.939 1_556 S
C616 C615 1.349 . S
C616 C628 1.349 . S
C617 C615 1.327 . S
C617 C633 1.429 . S
C617 H639 0.950 . S
C618 H614 0.949 . S
C618 C626 1.574 . S
C618 C634 1.368 . S
H619 C627 0.950 . S
H620 C625 0.950 . S
H621 C626 0.949 . S
H622 C628 0.950 . S
H623 C629 0.950 . S
H624 C630 0.949 . S
C625 H620 0.950 . S
C625 C627 1.327 . S
C625 C631 1.429 . S
C626 C618 1.574 . S
C626 H621 0.949 . S
C626 C632 1.368 . S
C627 C611 1.349 . S
C627 H619 0.950 . S
C627 C625 1.327 . S
C628 C616 1.349 . S
C628 H622 0.950 . S
C628 C629 1.327 . S
C629 H623 0.950 . S
C629 C628 1.327 . S
C629 C633 1.429 . S
C630 C613 1.574 . S
C630 H624 0.949 . S
C630 C634 1.368 . S
C631 C612 1.429 . S
C631 C625 1.429 . S
C631 C632 1.523 . S
C632 C613 1.368 . S
C632 C626 1.368 . S
C632 C631 1.523 . S
C633 C617 1.429 . S
C633 C629 1.429 . S
C633 C634 1.523 . S
C634 C618 1.368 . S
C634 C630 1.368 . S
C634 C633 1.523 . S
H635 C610 0.950 . S
H636 C612 0.950 . S
H637 C613 0.949 . S
H638 C615 0.939 1_554 S
H639 C617 0.950 . S
C640 C641 1.349 . S
C640 C642 1.327 . S
C640 H665 0.950 . S
C641 C640 1.349 . S
C641 C657 1.349 . S
C642 C640 1.327 . S
C642 C661 1.429 . S
C642 H666 0.950 . S
C643 C660 1.574 . S
C643 C662 1.368 . S
C643 H667 0.949 . S
H644 C648 0.949 . S
C645 C646 1.349 . S
C645 C647 1.327 . S
C645 H668 0.950 . S
C646 C645 1.349 . S
C646 C658 1.349 . S
C647 C645 1.327 . S
C647 C663 1.429 . S
C647 H669 0.950 . S
C648 H644 0.949 . S
C648 C656 1.574 . S
C648 C664 1.368 . S
H649 C657 0.950 . S
H650 C655 0.950 . S
H651 C656 0.949 . S
H652 C658 0.950 . S
H653 C659 0.950 . S
H654 C660 0.949 . S
C655 H650 0.950 . S
C655 C657 1.327 . S
C655 C661 1.429 . S
C656 C648 1.574 . S
C656 H651 0.949 . S
C656 C662 1.368 . S
C657 C641 1.349 . S
C657 H649 0.950 . S
C657 C655 1.327 . S
C658 C646 1.349 . S
C658 H652 0.950 . S
C658 C659 1.327 . S
C659 H653 0.950 . S
C659 C658 1.327 . S
C659 C663 1.429 . S
C660 C643 1.574 . S
C660 H654 0.949 . S
C660 C664 1.368 . S
C661 C642 1.429 . S
C661 C655 1.429 . S
C661 C662 1.523 . S
C662 C643 1.368 . S
C662 C656 1.368 . S
C662 C661 1.523 . S
C663 C647 1.429 . S
C663 C659 1.429 . S
C663 C664 1.523 . S
C664 C648 1.368 . S
C664 C660 1.368 . S
C664 C663 1.523 . S
H665 C640 0.950 . S
H666 C642 0.950 . S
H667 C643 0.949 . S
H668 C645 0.950 . S
H669 C647 0.950 . S
C670 C671 1.349 . S
C670 C672 1.327 . S
C670 H695 0.950 . S
C671 C670 1.349 . S
C671 C687 1.349 . S
C672 C670 1.327 . S
C672 C691 1.429 . S
C672 H696 0.950 . S
C673 C690 1.574 . S
C673 C692 1.368 . S
C673 H697 0.949 . S
H674 C678 0.949 . S
C675 C676 1.349 . S
C675 C677 1.327 . S
C675 H698 0.950 . S
C676 C675 1.349 . S
C676 C688 1.349 . S
C677 C675 1.327 . S
C677 C693 1.429 . S
C677 H699 0.950 . S
C678 H674 0.949 . S
C678 C686 1.574 . S
C678 C694 1.368 . S
H679 C687 0.950 . S
H680 C685 0.950 . S
H681 C686 0.949 . S
H682 C688 0.950 . S
H683 C689 0.950 . S
H684 C690 0.949 . S
C685 H680 0.950 . S
C685 C687 1.327 . S
C685 C691 1.429 . S
C686 C678 1.574 . S
C686 H681 0.949 . S
C686 C692 1.368 . S
C687 C671 1.349 . S
C687 H679 0.950 . S
C687 C685 1.327 . S
C688 C676 1.349 . S
C688 H682 0.950 . S
C688 C689 1.327 . S
C689 H683 0.950 . S
C689 C688 1.327 . S
C689 C693 1.429 . S
C690 C673 1.574 . S
C690 H684 0.949 . S
C690 C694 1.368 . S
C691 C672 1.429 . S
C691 C685 1.429 . S
C691 C692 1.523 . S
C692 C673 1.368 . S
C692 C686 1.368 . S
C692 C691 1.523 . S
C693 C677 1.429 . S
C693 C689 1.429 . S
C693 C694 1.523 . S
C694 C678 1.368 . S
C694 C690 1.368 . S
C694 C693 1.523 . S
H695 C670 0.950 . S
H696 C672 0.950 . S
H697 C673 0.949 . S
H698 C675 0.950 . S
H699 C677 0.950 . S
C700 C701 1.349 . S
C700 C702 1.327 . S
C700 H725 0.950 . S
C701 C700 1.349 . S
C701 C717 1.349 . S
C702 C700 1.327 . S
C702 C721 1.429 . S
C702 H726 0.950 . S
C703 C720 1.574 . S
C703 C722 1.368 . S
C703 H727 0.949 . S
H704 C708 0.949 . S
C705 C706 1.349 . S
C705 C707 1.327 . S
C705 H728 0.950 . S
C706 C705 1.349 . S
C706 C718 1.349 . S
C707 C705 1.327 . S
C707 C723 1.429 . S
C707 H729 0.950 . S
C708 H704 0.949 . S
C708 C716 1.574 . S
C708 C724 1.368 . S
H709 C717 0.950 . S
H710 C715 0.950 . S
H711 C716 0.949 . S
H712 C718 0.950 1_455 S
H713 C719 0.950 . S
H714 C720 0.949 . S
C715 H710 0.950 . S
C715 C717 1.327 . S
C715 C721 1.429 . S
C716 C708 1.574 . S
C716 H711 0.949 . S
C716 C722 1.368 . S
C717 C701 1.349 . S
C717 H709 0.950 . S
C717 C715 1.327 . S
C718 C706 1.349 . S
C718 H712 0.950 1_655 S
C718 C719 1.327 . S
C719 H713 0.950 . S
C719 C718 1.327 . S
C719 C723 1.429 . S
C720 C703 1.574 . S
C720 H714 0.949 . S
C720 C724 1.368 . S
C721 C702 1.429 . S
C721 C715 1.429 . S
C721 C722 1.523 . S
C722 C703 1.368 . S
C722 C716 1.368 . S
C722 C721 1.523 . S
C723 C707 1.429 . S
C723 C719 1.429 . S
C723 C724 1.523 . S
C724 C708 1.368 . S
C724 C720 1.368 . S
C724 C723 1.523 . S
H725 C700 0.950 . S
H726 C702 0.950 . S
H727 C703 0.949 . S
H728 C705 0.950 . S
H729 C707 0.950 . S
C730 C731 1.349 . S
C730 C732 1.327 . S
C730 H755 0.950 . S
C731 C730 1.349 . S
C731 C747 1.349 . S
C732 C730 1.327 . S
C732 C751 1.429 . S
C732 H756 0.950 . S
C733 C750 1.574 . S
C733 C752 1.368 . S
C733 H757 0.949 . S
H734 C738 0.949 . S
C735 C736 1.349 . S
C735 C737 1.327 . S
C735 H758 0.950 . S
C736 C735 1.349 . S
C736 C748 1.349 . S
C737 C735 1.327 . S
C737 C753 1.429 . S
C737 H759 0.950 . S
C738 H734 0.949 . S
C738 C746 1.574 . S
C738 C754 1.368 . S
H739 C747 0.950 . S
H740 C745 0.950 . S
H741 C746 0.949 . S
H742 C748 0.950 . S
H743 C749 0.950 . S
H744 C750 0.949 . S
C745 H740 0.950 . S
C745 C747 1.327 . S
C745 C751 1.429 . S
C746 C738 1.574 . S
C746 H741 0.949 . S
C746 C752 1.368 . S
C747 C731 1.349 . S
C747 H739 0.950 . S
C747 C745 1.327 . S
C748 C736 1.349 . S
C748 H742 0.950 . S
C748 C749 1.327 . S
C749 H743 0.950 . S
C749 C748 1.327 . S
C749 C753 1.429 . S
C750 C733 1.574 . S
C750 H744 0.949 . S
C750 C754 1.368 . S
C751 C732 1.429 . S
C751 C745 1.429 . S
C751 C752 1.523 . S
C752 C733 1.368 . S
C752 C746 1.368 . S
C752 C751 1.523 . S
C753 C737 1.429 . S
C753 C749 1.429 . S
C753 C754 1.523 . S
C754 C738 1.368 . S
C754 C750 1.368 . S
C754 C753 1.523 . S
H755 C730 0.950 . S
H756 C732 0.950 . S
H757 C733 0.949 . S
H758 C735 0.950 . S
H759 C737 0.950 . S
C760 C761 1.349 . S
C760 C762 1.327 . S
C760 H785 0.950 . S
C761 C760 1.349 . S
C761 C777 1.349 . S
C762 C760 1.327 . S
C762 C781 1.429 . S
C762 H786 0.950 . S
C763 C780 1.574 . S
C763 C782 1.368 . S
C763 H787 0.949 . S
H764 C768 0.949 . S
C765 C766 1.349 . S
C765 C767 1.327 . S
C765 H788 0.950 . S
C766 C765 1.349 . S
C766 C778 1.349 . S
C767 C765 1.327 . S
C767 C783 1.429 . S
C767 H789 0.950 . S
C768 H764 0.949 . S
C768 C776 1.574 . S
C768 C784 1.368 . S
H769 C777 0.950 . S
H770 C775 0.950 . S
H771 C776 0.949 . S
H772 C778 0.950 . S
H773 C779 0.950 . S
H774 C780 0.949 . S
C775 H770 0.950 . S
C775 C777 1.327 . S
C775 C781 1.429 . S
C776 C768 1.574 . S
C776 H771 0.949 . S
C776 C782 1.368 . S
C777 C761 1.349 . S
C777 H769 0.950 . S
C777 C775 1.327 . S
C778 C766 1.349 . S
C778 H772 0.950 . S
C778 C779 1.327 . S
C779 H773 0.950 . S
C779 C778 1.327 . S
C779 C783 1.429 . S
C780 C763 1.574 . S
C780 H774 0.949 . S
C780 C784 1.368 . S
C781 C762 1.429 . S
C781 C775 1.429 . S
C781 C782 1.523 . S
C782 C763 1.368 . S
C782 C776 1.368 . S
C782 C781 1.523 . S
C783 C767 1.429 . S
C783 C779 1.429 . S
C783 C784 1.523 . S
C784 C768 1.368 . S
C784 C780 1.368 . S
C784 C783 1.523 . S
H785 C760 0.950 . S
H786 C762 0.950 . S
H787 C763 0.949 . S
H788 C765 0.950 . S
H789 C767 0.950 . S
C790 C791 1.349 . S
C790 C792 1.327 . S
C790 H815 0.950 . S
C791 C790 1.349 . S
C791 C807 1.349 . S
C792 C790 1.327 . S
C792 C811 1.429 . S
C792 H816 0.950 . S
C793 C810 1.574 . S
C793 C812 1.368 . S
C793 H817 0.949 . S
H794 C798 0.949 . S
C795 C796 1.349 . S
C795 C797 1.327 . S
C795 H818 0.950 . S
C796 C795 1.349 . S
C796 C808 1.349 . S
C797 C795 1.327 . S
C797 C813 1.429 . S
C797 H819 0.950 . S
C798 H794 0.949 . S
C798 C806 1.574 . S
C798 C814 1.368 . S
H799 C807 0.950 . S
H800 C805 0.950 . S
H801 C806 0.949 . S
H802 C808 0.950 . S
H803 C809 0.950 . S
H804 C810 0.949 . S
C805 H800 0.950 . S
C805 C807 1.327 . S
C805 C811 1.429 . S
C806 C798 1.574 . S
C806 H801 0.949 . S
C806 C812 1.368 . S
C807 C791 1.349 . S
C807 H799 0.950 . S
C807 C805 1.327 . S
C808 C796 1.349 . S
C808 H802 0.950 . S
C808 C809 1.327 . S
C809 H803 0.950 . S
C809 C808 1.327 . S
C809 C813 1.429 . S
C810 C793 1.574 . S
C810 H804 0.949 . S
C810 C814 1.368 . S
C811 C792 1.429 . S
C811 C805 1.429 . S
C811 C812 1.523 . S
C812 C793 1.368 . S
C812 C806 1.368 . S
C812 C811 1.523 . S
C813 C797 1.429 . S
C813 C809 1.429 . S
C813 C814 1.523 . S
C814 C798 1.368 . S
C814 C810 1.368 . S
C814 C813 1.523 . S
H815 C790 0.950 . S
H816 C792 0.950 . S
H817 C793 0.949 . S
H818 C795 0.950 . S
H819 C797 0.950 . S
C820 C821 1.349 . S
C820 C822 1.327 . S
C820 H845 0.950 . S
C821 C820 1.349 . S
C821 C837 1.349 . S
C822 C820 1.327 . S
C822 C841 1.429 . S
C822 H846 0.950 . S
C823 C840 1.574 . S
C823 C842 1.368 . S
C823 H847 0.949 . S
H824 C828 0.949 . S
C825 C826 1.349 . S
C825 C827 1.327 . S
C825 H848 0.950 1_566 S
C826 C825 1.349 . S
C826 C838 1.349 . S
C827 C825 1.327 . S
C827 C843 1.429 . S
C827 H849 0.950 . S
C828 H824 0.949 . S
C828 C836 1.574 . S
C828 C844 1.368 . S
H829 C837 0.950 . S
H830 C835 0.950 . S
H831 C836 0.949 . S
H832 C838 0.950 . S
H833 C839 0.950 . S
H834 C840 0.949 . S
C835 H830 0.950 . S
C835 C837 1.327 . S
C835 C841 1.429 . S
C836 C828 1.574 . S
C836 H831 0.949 . S
C836 C842 1.368 . S
C837 C821 1.349 . S
C837 H829 0.950 . S
C837 C835 1.327 . S
C838 C826 1.349 . S
C838 H832 0.950 . S
C838 C839 1.327 . S
C839 H833 0.950 . S
C839 C838 1.327 . S
C839 C843 1.429 . S
C840 C823 1.574 . S
C840 H834 0.949 . S
C840 C844 1.368 . S
C841 C822 1.429 . S
C841 C835 1.429 . S
C841 C842 1.523 . S
C842 C823 1.368 . S
C842 C836 1.368 . S
C842 C841 1.523 . S
C843 C827 1.429 . S
C843 C839 1.429 . S
C843 C844 1.523 . S
C844 C828 1.368 . S
C844 C840 1.368 . S
C844 C843 1.523 . S
H845 C820 0.950 . S
H846 C822 0.950 . S
H847 C823 0.949 . S
H848 C825 0.950 1_544 S
H849 C827 0.950 . S
C850 C851 1.349 . S
C850 C852 1.327 . S
C850 H875 0.950 . S
C851 C850 1.349 . S
C851 C867 1.349 . S
C852 C850 1.327 . S
C852 C871 1.429 . S
C852 H876 0.950 . S
C853 C870 1.574 . S
C853 C872 1.368 . S
C853 H877 0.949 . S
H854 C858 0.949 . S
C855 C856 1.349 . S
C855 C857 1.327 . S
C855 H878 0.950 . S
C856 C855 1.349 . S
C856 C868 1.349 . S
C857 C855 1.327 . S
C857 C873 1.429 . S
C857 H879 0.950 . S
C858 H854 0.949 . S
C858 C866 1.574 . S
C858 C874 1.368 . S
H859 C867 0.950 . S
H860 C865 0.950 . S
H861 C866 0.949 . S
H862 C868 0.950 . S
H863 C869 0.950 . S
H864 C870 0.949 . S
C865 H860 0.950 . S
C865 C867 1.327 . S
C865 C871 1.429 . S
C866 C858 1.574 . S
C866 H861 0.949 . S
C866 C872 1.368 . S
C867 C851 1.349 . S
C867 H859 0.950 . S
C867 C865 1.327 . S
C868 C856 1.349 . S
C868 H862 0.950 . S
C868 C869 1.327 . S
C869 H863 0.950 . S
C869 C868 1.327 . S
C869 C873 1.429 . S
C870 C853 1.574 . S
C870 H864 0.949 . S
C870 C874 1.368 . S
C871 C852 1.429 . S
C871 C865 1.429 . S
C871 C872 1.523 . S
C872 C853 1.368 . S
C872 C866 1.368 . S
C872 C871 1.523 . S
C873 C857 1.429 . S
C873 C869 1.429 . S
C873 C874 1.523 . S
C874 C858 1.368 . S
C874 C870 1.368 . S
C874 C873 1.523 . S
H875 C850 0.950 . S
H876 C852 0.950 . S
H877 C853 0.949 . S
H878 C855 0.950 . S
H879 C857 0.950 . S
C880 C881 1.349 . S
C880 C882 1.327 . S
C880 H905 0.950 . S
C881 C880 1.349 . S
C881 C897 1.349 . S
C882 C880 1.327 . S
C882 C901 1.429 . S
C882 H906 0.950 . S
C883 C900 1.574 . S
C883 C902 1.368 . S
C883 H907 0.949 . S
H884 C888 0.949 . S
C885 C886 1.349 . S
C885 C887 1.327 . S
C885 H908 0.950 1_554 S
C886 C885 1.349 . S
C886 C898 1.349 . S
C887 C885 1.327 . S
C887 C903 1.429 . S
C887 H909 0.950 . S
C888 H884 0.949 . S
C888 C896 1.574 . S
C888 C904 1.368 . S
H889 C897 0.950 . S
H890 C895 0.950 . S
H891 C896 0.949 . S
H892 C898 0.950 . S
H893 C899 0.950 . S
H894 C900 0.949 . S
C895 H890 0.950 . S
C895 C897 1.327 . S
C895 C901 1.429 . S
C896 C888 1.574 . S
C896 H891 0.949 . S
C896 C902 1.368 . S
C897 C881 1.349 . S
C897 H889 0.950 . S
C897 C895 1.327 . S
C898 C886 1.349 . S
C898 H892 0.950 . S
C898 C899 1.327 . S
C899 H893 0.950 . S
C899 C898 1.327 . S
C899 C903 1.429 . S
C900 C883 1.574 . S
C900 H894 0.949 . S
C900 C904 1.368 . S
C901 C882 1.429 . S
C901 C895 1.429 . S
C901 C902 1.523 . S
C902 C883 1.368 . S
C902 C896 1.368 . S
C902 C901 1.523 . S
C903 C887 1.429 . S
C903 C899 1.429 . S
C903 C904 1.523 . S
C904 C888 1.368 . S
C904 C900 1.368 . S
C904 C903 1.523 . S
H905 C880 0.950 . S
H906 C882 0.950 . S
H907 C883 0.949 . S
H908 C885 0.950 1_556 S
H909 C887 0.950 . S
C910 C911 1.349 . S
C910 C912 1.327 . S
C910 H935 0.950 . S
C911 C910 1.349 . S
C911 C927 1.349 . S
C912 C910 1.327 . S
C912 C931 1.429 . S
C912 H936 0.950 . S
C913 C930 1.574 . S
C913 C932 1.368 . S
C913 H937 0.949 . S
H914 C918 0.949 . S
C915 C916 1.349 . S
C915 C917 1.327 . S
C915 H938 0.950 . S
C916 C915 1.349 . S
C916 C928 1.349 . S
C917 C915 1.327 . S
C917 C933 1.429 . S
C917 H939 0.950 . S
C918 H914 0.949 . S
C918 C926 1.574 . S
C918 C934 1.368 . S
H919 C927 0.950 . S
H920 C925 0.950 . S
H921 C926 0.949 . S
H922 C928 0.950 . S
H923 C929 0.950 . S
H924 C930 0.949 . S
C925 H920 0.950 . S
C925 C927 1.327 . S
C925 C931 1.429 . S
C926 C918 1.574 . S
C926 H921 0.949 . S
C926 C932 1.368 . S
C927 C911 1.349 . S
C927 H919 0.950 . S
C927 C925 1.327 . S
C928 C916 1.349 . S
C928 H922 0.950 . S
C928 C929 1.327 . S
C929 H923 0.950 . S
C929 C928 1.327 . S
C929 C933 1.429 . S
C930 C913 1.574 . S
C930 H924 0.949 . S
C930 C934 1.368 . S
C931 C912 1.429 . S
C931 C925 1.429 . S
C931 C932 1.523 . S
C932 C913 1.368 . S
C932 C926 1.368 . S
C932 C931 1.523 . S
C933 C917 1.429 . S
C933 C929 1.429 . S
C933 C934 1.523 . S
C934 C918 1.368 . S
C934 C930 1.368 . S
C934 C933 1.523 . S
H935 C910 0.950 . S
H936 C912 0.950 . S
H937 C913 0.949 . S
H938 C915 0.950 . S
H939 C917 0.950 . S
C940 C941 1.349 . S
C940 C942 1.327 . S
C940 H965 0.950 . S
C941 C940 1.349 . S
C941 C957 1.349 . S
C942 C940 1.327 . S
C942 C961 1.429 . S
C942 H966 0.950 . S
C943 C960 1.574 . S
C943 C962 1.368 . S
C943 H967 0.949 . S
H944 C948 0.949 . S
C945 C946 1.349 . S
C945 C947 1.327 . S
C945 H968 0.950 1_556 S
C946 C945 1.349 . S
C946 C958 1.349 . S
C947 C945 1.327 . S
C947 C963 1.429 . S
C947 H969 0.952 . S
C948 H944 0.949 . S
C948 C956 1.574 . S
C948 C964 1.368 . S
H949 C957 0.950 . S
H950 C955 0.950 . S
H951 C956 0.949 . S
H952 C958 0.950 . S
H953 C959 0.950 . S
H954 C960 0.949 . S
C955 H950 0.950 . S
C955 C957 1.327 . S
C955 C961 1.429 . S
C956 C948 1.574 . S
C956 H951 0.949 . S
C956 C962 1.368 . S
C957 C941 1.349 . S
C957 H949 0.950 . S
C957 C955 1.327 . S
C958 C946 1.349 . S
C958 H952 0.950 . S
C958 C959 1.327 . S
C959 H953 0.950 . S
C959 C958 1.327 . S
C959 C963 1.429 . S
C960 C943 1.574 . S
C960 H954 0.949 . S
C960 C964 1.368 . S
C961 C942 1.429 . S
C961 C955 1.429 . S
C961 C962 1.523 . S
C962 C943 1.368 . S
C962 C956 1.368 . S
C962 C961 1.523 . S
C963 C947 1.429 . S
C963 C959 1.429 . S
C963 C964 1.523 . S
C964 C948 1.368 . S
C964 C960 1.368 . S
C964 C963 1.523 . S
H965 C940 0.950 . S
H966 C942 0.950 . S
H967 C943 0.949 . S
H968 C945 0.950 1_554 S
H969 C947 0.952 . S
C970 C971 1.349 . S
C970 C972 1.327 . S
C970 H995 0.950 . S
C971 C970 1.349 . S
C971 C987 1.349 . S
C972 C970 1.327 . S
C972 C991 1.429 . S
C972 H996 0.950 . S
C973 C990 1.574 . S
C973 C992 1.368 . S
C973 H997 0.949 . S
H974 C978 0.949 . S
C975 C976 1.349 . S
C975 C977 1.327 . S
C975 H998 0.950 . S
C976 C975 1.349 . S
C976 C988 1.349 . S
C977 C975 1.327 . S
C977 C993 1.429 . S
C977 H999 0.950 . S
C978 H974 0.949 . S
C978 C986 1.574 . S
C978 C994 1.368 . S
H979 C987 0.950 . S
H980 C985 0.950 . S
H981 C986 0.949 . S
H982 C988 0.950 . S
H983 C989 0.950 . S
H984 C990 0.949 . S
C985 H980 0.950 . S
C985 C987 1.327 . S
C985 C991 1.429 . S
C986 C978 1.574 . S
C986 H981 0.949 . S
C986 C992 1.368 . S
C987 C971 1.349 . S
C987 H979 0.950 . S
C987 C985 1.327 . S
C988 C976 1.349 . S
C988 H982 0.950 . S
C988 C989 1.327 . S
C989 H983 0.950 . S
C989 C988 1.327 . S
C989 C993 1.429 . S
C990 C973 1.574 . S
C990 H984 0.949 . S
C990 C994 1.368 . S
C991 C972 1.429 . S
C991 C985 1.429 . S
C991 C992 1.523 . S
C992 C973 1.368 . S
C992 C986 1.368 . S
C992 C991 1.523 . S
C993 C977 1.429 . S
C993 C989 1.429 . S
C993 C994 1.523 . S
C994 C978 1.368 . S
C994 C990 1.368 . S
C994 C993 1.523 . S
H995 C970 0.950 . S
H996 C972 0.950 . S
H997 C973 0.949 . S
H998 C975 0.950 . S
H999 C977 0.950 . S
C1000 C1001 1.349 . S
C1000 C1002 1.327 . S
C1000 H1025 0.950 . S
C1001 C1000 1.349 . S
C1001 C1017 1.349 . S
C1002 C1000 1.327 . S
C1002 C1021 1.429 . S
C1002 H1026 0.950 . S
C1003 C1020 1.574 . S
C1003 C1022 1.368 . S
C1003 H1027 0.949 . S
H1004 C1008 0.949 . S
C1005 C1006 1.349 . S
C1005 C1007 1.327 . S
C1005 H1028 0.950 1_455 S
C1006 C1005 1.349 . S
C1006 C1018 1.349 . S
C1007 C1005 1.327 . S
C1007 C1023 1.429 . S
C1007 H1029 0.950 . S
C1008 H1004 0.949 . S
C1008 C1016 1.574 . S
C1008 C1024 1.368 . S
H1009 C1017 0.950 . S
H1010 C1015 0.950 . S
H1011 C1016 0.949 . S
H1012 C1018 0.950 . S
H1013 C1019 0.950 . S
H1014 C1020 0.949 . S
C1015 H1010 0.950 . S
C1015 C1017 1.327 . S
C1015 C1021 1.429 . S
C1016 C1008 1.574 . S
C1016 H1011 0.949 . S
C1016 C1022 1.368 . S
C1017 C1001 1.349 . S
C1017 H1009 0.950 . S
C1017 C1015 1.327 . S
C1018 C1006 1.349 . S
C1018 H1012 0.950 . S
C1018 C1019 1.327 . S
C1019 H1013 0.950 . S
C1019 C1018 1.327 . S
C1019 C1023 1.429 . S
C1020 C1003 1.574 . S
C1020 H1014 0.949 . S
C1020 C1024 1.368 . S
C1021 C1002 1.429 . S
C1021 C1015 1.429 . S
C1021 C1022 1.523 . S
C1022 C1003 1.368 . S
C1022 C1016 1.368 . S
C1022 C1021 1.523 . S
C1023 C1007 1.429 . S
C1023 C1019 1.429 . S
C1023 C1024 1.523 . S
C1024 C1008 1.368 . S
C1024 C1020 1.368 . S
C1024 C1023 1.523 . S
H1025 C1000 0.950 . S
H1026 C1002 0.950 . S
H1027 C1003 0.949 . S
H1028 C1005 0.950 1_655 S
H1029 C1007 0.950 . S
C1030 C1031 1.349 . S
C1030 C1032 1.327 . S
C1030 H1055 0.950 . S
C1031 C1030 1.349 . S
C1031 C1047 1.349 . S
C1032 C1030 1.327 . S
C1032 C1051 1.429 . S
C1032 H1056 0.950 . S
C1033 C1050 1.574 . S
C1033 C1052 1.368 . S
C1033 H1057 0.949 . S
H1034 C1038 0.949 . S
C1035 C1036 1.349 . S
C1035 C1037 1.327 . S
C1035 H1058 0.950 . S
C1036 C1035 1.349 . S
C1036 C1048 1.349 . S
C1037 C1035 1.327 . S
C1037 C1053 1.429 . S
C1037 H1059 0.950 . S
C1038 H1034 0.949 . S
C1038 C1046 1.574 . S
C1038 C1054 1.368 . S
H1039 C1047 0.950 . S
H1040 C1045 0.950 . S
H1041 C1046 0.949 . S
H1042 C1048 0.950 . S
H1043 C1049 0.950 . S
H1044 C1050 0.949 . S
C1045 H1040 0.950 . S
C1045 C1047 1.327 . S
C1045 C1051 1.429 . S
C1046 C1038 1.574 . S
C1046 H1041 0.949 . S
C1046 C1052 1.368 . S
C1047 C1031 1.349 . S
C1047 H1039 0.950 . S
C1047 C1045 1.327 . S
C1048 C1036 1.349 . S
C1048 H1042 0.950 . S
C1048 C1049 1.327 . S
C1049 H1043 0.950 . S
C1049 C1048 1.327 . S
C1049 C1053 1.429 . S
C1050 C1033 1.574 . S
C1050 H1044 0.949 . S
C1050 C1054 1.368 . S
C1051 C1032 1.429 . S
C1051 C1045 1.429 . S
C1051 C1052 1.523 . S
C1052 C1033 1.368 . S
C1052 C1046 1.368 . S
C1052 C1051 1.523 . S
C1053 C1037 1.429 . S
C1053 C1049 1.429 . S
C1053 C1054 1.523 . S
C1054 C1038 1.368 . S
C1054 C1050 1.368 . S
C1054 C1053 1.523 . S
H1055 C1030 0.950 . S
H1056 C1032 0.950 . S
H1057 C1033 0.949 . S
H1058 C1035 0.950 . S
H1059 C1037 0.950 . S
C341 C29 1.617 . S
C346 C272 1.637 . S
C371 C49 1.446 . S
C376 C294 1.389 . S
C406 C313 1.217 . S
C401 C93 1.387 . S
C431 C119 1.676 . S
C436 C334 1.457 . S
C466 C291 1.774 . S
C461 C17 1.771 . S
C496 C269 1.712 . S
C491 C61 1.769 . S
C526 C336 1.237 . S
C521 C81 1.255 . S
C556 C315 1.421 . S
C551 C125 1.397 . S
C581 C23 1.690 . S
C586 C333 1.688 . S
C616 C292 1.297 . S
C611 C87 1.506 . S
C641 C113 1.615 . S
C646 C274 1.499 . S
C671 C55 1.498 . S
C676 C312 1.468 . S
C706 C270 1.572 . S
C701 C157 1.626 . S
C731 C189 1.248 . S
C736 C290 1.256 . S
C761 C221 1.483 . S
C766 C316 1.268 . S
C791 C253 1.635 . S
C796 C337 1.423 . S
C821 C145 1.818 . S
C826 C293 1.775 . S
C856 C273 1.699 . S
C851 C183 1.703 . S
C886 C332 1.172 . S
C881 C209 1.214 . S
C916 C311 1.475 . S
C911 C247 1.458 . S
C941 C151 1.553 . S
C946 C335 1.514 . S
C976 C295 1.229 . S
C971 C215 1.465 . S
C1006 C271 1.296 . S
C1001 C241 1.401 . S
C1031 C177 1.398 . S
C1036 C314 1.415 . S
