# Generated by pormake.
# Topology anh, (6,3)-cn, num edge types: 1
# Building blocks:
#     Node 0, Type 0, BuildingBlock: CUKXOW_clean_sbu_0, # of connection points: 6
#     Node 1, Type 0, BuildingBlock: CUKXOW_clean_sbu_0, # of connection points: 6
#     Node 2, Type 0, BuildingBlock: CUKXOW_clean_sbu_0, # of connection points: 6
#     Node 3, Type 1, BuildingBlock: QEWDON_clean_linker_0, # of connection points: 3
#     Node 4, Type 1, BuildingBlock: QEWDON_clean_linker_0, # of connection points: 3
#     Node 5, Type 1, BuildingBlock: QEWDON_clean_linker_0, # of connection points: 3
#     Node 6, Type 1, BuildingBlock: QEWDON_clean_linker_0, # of connection points: 3
#     Node 7, Type 1, BuildingBlock: QEWDON_clean_linker_0, # of connection points: 3
#     Node 8, Type 1, BuildingBlock: QEWDON_clean_linker_0, # of connection points: 3
#     Edge 9, Type (0, 1), BuildingBlock: CIFDUS_clean_linker_0, # of connection points: 2
#     Edge 10, Type (0, 1), BuildingBlock: CIFDUS_clean_linker_0, # of connection points: 2
#     Edge 11, Type (0, 1), BuildingBlock: CIFDUS_clean_linker_0, # of connection points: 2
#     Edge 12, Type (0, 1), BuildingBlock: CIFDUS_clean_linker_0, # of connection points: 2
#     Edge 13, Type (0, 1), BuildingBlock: CIFDUS_clean_linker_0, # of connection points: 2
#     Edge 14, Type (0, 1), BuildingBlock: CIFDUS_clean_linker_0, # of connection points: 2
#     Edge 15, Type (0, 1), BuildingBlock: CIFDUS_clean_linker_0, # of connection points: 2
#     Edge 16, Type (0, 1), BuildingBlock: CIFDUS_clean_linker_0, # of connection points: 2
#     Edge 17, Type (0, 1), BuildingBlock: CIFDUS_clean_linker_0, # of connection points: 2
#     Edge 18, Type (0, 1), BuildingBlock: CIFDUS_clean_linker_0, # of connection points: 2
#     Edge 19, Type (0, 1), BuildingBlock: CIFDUS_clean_linker_0, # of connection points: 2
#     Edge 20, Type (0, 1), BuildingBlock: CIFDUS_clean_linker_0, # of connection points: 2
#     Edge 21, Type (0, 1), BuildingBlock: CIFDUS_clean_linker_0, # of connection points: 2
#     Edge 22, Type (0, 1), BuildingBlock: CIFDUS_clean_linker_0, # of connection points: 2
#     Edge 23, Type (0, 1), BuildingBlock: CIFDUS_clean_linker_0, # of connection points: 2
#     Edge 24, Type (0, 1), BuildingBlock: CIFDUS_clean_linker_0, # of connection points: 2
#     Edge 25, Type (0, 1), BuildingBlock: CIFDUS_clean_linker_0, # of connection points: 2
#     Edge 26, Type (0, 1), BuildingBlock: CIFDUS_clean_linker_0, # of connection points: 2
# Relax obj value: 0.064
# Max RMSD: 0.138
# Mean RMSD: 0.107
data_MOF--net-anh--node1-CUKXOW_clean_sbu_0--node2-QEWDON_clean_linker_0--edge1-CIFDUS_clean_linker_0
_symmetry_space_group_name_H-M    P1
_symmetry_Int_Tables_number       1
_symmetry_cell_setting            triclinic
loop_
_symmetry_equiv_pos_as_xyz
'x, y, z'
_cell_length_a     26.822853
_cell_length_b     26.06031
_cell_length_c     41.530319
_cell_angle_alpha  99.250344
_cell_angle_beta   94.687894
_cell_angle_gamma 112.61377
loop_
_atom_site_label
_atom_site_type_symbol
_atom_site_fract_x
_atom_site_fract_y
_atom_site_fract_z
_atom_type_partial_charge
Tb0 Tb 0.1104 0.61217 0.17035 0.0
C1 C 0.07611 0.53467 0.2218 0.0
Tb2 Tb 0.04067 0.47681 0.14558 0.0
O3 O 0.03833 0.63446 0.17501 0.0
O4 O 1.02894 0.55274 0.15858 0.0
O5 O 0.11336 0.58115 0.21533 0.0
C6 C 0.95212 0.37921 0.12746 0.0
O7 O 0.03821 0.49315 0.1989 0.0
C8 C 0.14907 0.50713 0.15112 0.0
C9 C 0.08188 0.55496 0.09412 0.0
O10 O 0.98788 0.39316 0.15391 0.0
O11 O 0.96754 0.4193 0.11085 0.0
O12 O 0.11311 0.45467 0.14135 0.0
O13 O 0.12152 0.5363 0.15692 0.0
O14 O 0.04436 0.50701 0.0993 0.0
O15 O 0.11652 0.59645 0.11825 0.0
C16 C 0.19704 0.7111 0.18704 0.0
O17 O 0.16195 0.69422 0.16003 0.0
O18 O 0.18221 0.67302 0.20508 0.0
C19 C 1.00188 0.58252 0.1644 0.0
Tb20 Tb 0.53204 0.02375 0.48696 0.0
C21 C 0.57927 0.06885 0.42547 0.0
Tb22 Tb 0.65353 0.10101 0.49603 0.0
O23 O 0.50795 0.09267 0.47909 0.0
O24 O 0.58209 0.11009 0.50845 0.0
O25 O 0.53711 0.03273 0.43621 0.0
C26 C 0.74511 0.19314 0.49962 0.0
O27 O 0.62783 0.09917 0.44412 0.0
C28 C 0.6298 0.99135 0.48581 0.0
C29 C 0.60358 0.06462 0.55803 0.0
O30 O 0.74076 0.15219 0.51486 0.0
O31 O 0.69841 0.18163 0.4822 0.0
O32 O 0.67644 0.0296 0.50167 0.0
O33 O 0.60327 0.01595 0.47351 0.0
O34 O 0.63982 0.10652 0.54707 0.0
O35 O 0.56134 0.02327 0.53782 0.0
C36 C 0.44054 0.93048 0.48027 0.0
O37 O 0.44773 0.98092 0.49573 0.0
O38 O 0.48453 0.93293 0.46855 0.0
C39 C 0.55418 0.13241 0.49471 0.0
Tb40 Tb 0.52293 0.51457 0.82671 0.0
C41 C 0.60384 0.53017 0.89111 0.0
Tb42 Tb 0.64338 0.53987 0.82128 0.0
O43 O 0.50425 0.42787 0.83318 0.0
O44 O 0.56755 0.46832 0.8077 0.0
O45 O 0.55395 0.52286 0.87836 0.0
C46 C 0.74154 0.53893 0.81874 0.0
O47 O 0.64417 0.53671 0.87347 0.0
C48 C 0.61808 0.62831 0.82636 0.0
C49 C 0.56562 0.52283 0.75761 0.0
O50 O 0.70214 0.50196 0.82966 0.0
O51 O 0.72548 0.57596 0.80953 0.0
O52 O 0.66021 0.62656 0.81388 0.0
O53 O 0.59803 0.58548 0.839 0.0
O54 O 0.60774 0.51324 0.76972 0.0
O55 O 0.5296 0.52981 0.77617 0.0
C56 C 0.43755 0.5402 0.83545 0.0
O57 O 0.43738 0.50074 0.81171 0.0
O58 O 0.48474 0.56299 0.85416 0.0
C59 C 0.54642 0.42561 0.82044 0.0
H60 H 0.61144 0.11553 0.21557 0.0
C61 C 0.57476 0.07664 0.20891 0.0
C62 C 0.5477 0.05397 0.23427 0.0
C63 C 0.5532 0.05005 0.17535 0.0
H64 H 0.47718 0.98862 0.24551 0.0
C65 C 0.4986 1.00527 0.22599 0.0
C66 C 0.47671 0.97765 0.19316 0.0
C67 C 0.50498 0.99935 0.16812 0.0
C68 C 0.57924 0.07484 0.14759 0.0
H69 H 0.48922 0.97594 0.14293 0.0
C70 C 0.63588 0.10921 0.15121 0.0
C71 C 0.65947 0.13126 0.12448 0.0
C72 C 0.54673 0.06424 0.11678 0.0
H73 H 0.50281 0.04113 0.11303 0.0
C74 C 0.57011 0.08359 0.09004 0.0
H75 H 0.66154 0.1193 0.17476 0.0
C76 C 0.62594 0.11604 0.09362 0.0
H77 H 0.64261 0.12963 0.07208 0.0
H78 H 0.54463 0.07376 0.06638 0.0
H79 H 0.56511 0.59149 0.56036 0.0
C80 C 0.56773 0.55261 0.54845 0.0
C81 C 0.58218 0.51975 0.56789 0.0
C82 C 0.55425 0.53407 0.5139 0.0
H83 H 0.59259 0.44243 0.5685 0.0
C84 C 0.58366 0.46843 0.5529 0.0
C85 C 0.56963 0.44816 0.51862 0.0
C86 C 0.55497 0.48142 0.49916 0.0
C87 C 0.53371 0.56677 0.49394 0.0
H88 H 0.54363 0.46613 0.47266 0.0
C89 C 0.5595 0.62683 0.49918 0.0
C90 C 0.53667 0.65775 0.48217 0.0
C91 C 0.48543 0.5378 0.47102 0.0
H92 H 0.46425 0.49199 0.46679 0.0
C93 C 0.46244 0.56767 0.45437 0.0
H94 H 0.59746 0.64899 0.51626 0.0
C95 C 0.48718 0.62683 0.46013 0.0
H96 H 0.46646 0.64809 0.44758 0.0
H97 H 0.42449 0.54486 0.43733 0.0
H98 H 0.20208 0.71702 0.92874 0.0
C99 C 0.16153 0.70403 0.91504 0.0
C100 C 0.11534 0.67093 0.92747 0.0
C101 C 0.15578 0.71936 0.88446 0.0
H102 H 1.02742 0.62962 0.91872 0.0
C103 C 0.06349 0.65329 0.90879 0.0
C104 C 0.05747 0.6669 0.87776 0.0
C105 C 0.10383 0.70079 0.86595 0.0
C106 C 0.20444 0.74868 0.86995 0.0
H107 H 0.0999 0.71065 0.84172 0.0
C108 C 0.24076 0.72283 0.86454 0.0
C109 C 0.28692 0.7484 0.85011 0.0
C110 C 0.21403 0.80054 0.86043 0.0
H111 H 0.18583 0.82079 0.86411 0.0
C112 C 0.26077 0.82685 0.84649 0.0
H113 H 0.233 0.68245 0.87162 0.0
C114 C 0.29751 0.80112 0.84155 0.0
H115 H 0.33361 0.82184 0.83081 0.0
H116 H 0.26852 0.86719 0.83954 0.0
H117 H 1.00256 0.55538 0.42647 0.0
C118 C 0.042 0.59026 0.43547 0.0
C119 C 0.07719 0.60965 0.41276 0.0
C120 C 0.05792 0.61511 0.46952 0.0
H121 H 0.15386 0.67275 0.40631 0.0
C122 C 0.12752 0.65611 0.42397 0.0
C123 C 0.14372 0.68232 0.45749 0.0
C124 C 0.10912 0.66132 0.48017 0.0
C125 C 1.02207 0.59194 0.49399 0.0
H126 H 0.12309 0.68025 0.50619 0.0
C127 C 0.98783 0.53361 0.48833 0.0
C128 C 0.95421 0.51146 0.51124 0.0
C129 C 1.02202 0.6276 0.52336 0.0
H130 H 0.04643 0.67292 0.52837 0.0
C131 C 0.98967 0.60529 0.5466 0.0
H132 H 0.98744 0.50475 0.46632 0.0
C133 C 0.95597 0.54745 0.54067 0.0
H134 H 0.93014 0.5311 0.55858 0.0
H135 H 0.99013 0.63312 0.56908 0.0
H136 H 0.55409 0.97218 0.75359 0.0
C137 C 0.55674 0.01395 0.76461 0.0
C138 C 0.56685 0.05558 0.74544 0.0
C139 C 0.54816 0.02543 0.7975 0.0
H140 H 0.57263 0.13964 0.74385 0.0
C141 C 0.56806 0.10888 0.75934 0.0
C142 C 0.55983 0.12156 0.7921 0.0
C143 C 0.55049 0.07965 0.81114 0.0
C144 C 0.53261 0.97955 0.81673 0.0
H145 H 0.54458 0.08905 0.83655 0.0
C146 C 0.558 0.94094 0.81525 0.0
C147 C 0.54022 0.89546 0.83177 0.0
C148 C 0.48996 0.97246 0.83552 0.0
H149 H 0.46891 1.00066 0.83672 0.0
C150 C 0.47276 0.92783 0.85221 0.0
H151 H 0.59087 0.94564 0.80089 0.0
C152 C 0.49751 0.88944 0.85029 0.0
H153 H 0.4835 0.85506 0.86342 0.0
H154 H 0.43969 0.9226 0.86642 0.0
H155 H 0.55028 0.54685 0.09448 0.0
C156 C 0.58725 0.54497 0.10569 0.0
C157 C 0.623 0.53436 0.08517 0.0
C158 C 0.60049 0.55737 0.14035 0.0
H159 H 0.70046 0.52752 0.08398 0.0
C160 C 0.67278 0.53544 0.09968 0.0
C161 C 0.68877 0.54937 0.13409 0.0
C162 C 0.652 0.5597 0.15429 0.0
C163 C 0.56287 0.57326 0.1614 0.0
H164 H 0.66387 0.56962 0.18082 0.0
C165 C 0.50482 0.55118 0.15152 0.0
C166 C 0.47135 0.57074 0.17064 0.0
C167 C 0.58577 0.61418 0.19104 0.0
H168 H 0.62948 0.63374 0.19927 0.0
C169 C 0.55304 0.63232 0.21023 0.0
H170 H 0.48573 0.51954 0.12892 0.0
C171 C 0.49674 0.61108 0.20023 0.0
H172 H 0.47289 0.62611 0.21605 0.0
H173 H 0.57164 0.66373 0.23298 0.0
H174 H 0.21051 0.44441 0.13894 0.0
H175 H 0.22545 0.61633 0.16908 0.0
H176 H 0.32506 0.65117 0.17608 0.0
H177 H 0.40853 0.63287 0.17512 0.0
H178 H 0.39516 0.46128 0.14471 0.0
H179 H 0.29513 0.42659 0.1354 0.0
C180 C 0.23561 0.48953 0.14698 0.0
C181 C 0.21011 0.52771 0.15404 0.0
C182 C 0.29347 0.50937 0.15062 0.0
C183 C 0.24356 0.58597 0.16407 0.0
C184 C 0.30075 0.60592 0.16789 0.0
C185 C 0.38392 0.58776 0.16646 0.0
C186 C 0.4101 0.54983 0.16098 0.0
C187 C 0.32625 0.56802 0.16154 0.0
C188 C 0.37683 0.49173 0.14901 0.0
C189 C 0.31936 0.47177 0.14396 0.0
H190 H 0.76291 0.26981 0.46104 0.0
H191 H 0.83248 0.23887 0.54937 0.0
H192 H 0.90467 0.33533 0.56086 0.0
H193 H 0.94446 0.43054 0.54716 0.0
H194 H 0.87614 0.45881 0.45746 0.0
H195 H 0.80682 0.36121 0.44496 0.0
C196 C 0.79431 0.28405 0.48259 0.0
C197 C 0.79252 0.2478 0.50445 0.0
C198 C 0.83549 0.33911 0.48885 0.0
C199 C 0.83339 0.26627 0.53218 0.0
C200 C 0.87436 0.32142 0.53883 0.0
C201 C 0.91443 0.41495 0.52486 0.0
C202 C 0.91483 0.45146 0.50332 0.0
C203 C 0.87524 0.35854 0.51762 0.0
C204 C 0.87638 0.43111 0.47428 0.0
C205 C 0.83679 0.3755 0.46719 0.0
H206 H 0.67471 0.7429 0.83872 0.0
H207 H 0.5132 0.61134 0.80591 0.0
H208 H 0.47536 0.68202 0.80345 0.0
H209 H 0.48698 0.78138 0.814 0.0
H210 H 0.64847 0.91491 0.84421 0.0
H211 H 0.68765 0.84391 0.84463 0.0
C212 C 0.63119 0.72998 0.83132 0.0
C213 C 0.59615 0.67188 0.82416 0.0
C214 C 0.60976 0.77134 0.82984 0.0
C215 C 0.54028 0.65553 0.81358 0.0
C216 C 0.51875 0.69607 0.81175 0.0
C217 C 0.53079 0.79486 0.82057 0.0
C218 C 0.56481 0.8531 0.82938 0.0
C219 C 0.55284 0.75403 0.8206 0.0
C220 C 0.62157 0.87018 0.83732 0.0
C221 C 0.64387 0.82964 0.83772 0.0
H222 H 0.94273 0.64049 0.18977 0.0
H223 H 0.92345 0.48451 0.12603 0.0
H224 H 0.82508 0.45797 0.11313 0.0
H225 H 0.7447 0.48219 0.11701 0.0
H226 H 0.76331 0.63778 0.18146 0.0
H227 H 0.86062 0.66078 0.19739 0.0
C228 C 0.9169 0.6004 0.1733 0.0
C229 C 0.94093 0.56436 0.15891 0.0
C230 C 0.8598 0.5854 0.16608 0.0
C231 C 0.90648 0.51263 0.13775 0.0
C232 C 0.85 0.49768 0.1302 0.0
C233 C 0.76985 0.52091 0.13483 0.0
C234 C 0.7461 0.55823 0.14785 0.0
C235 C 0.8262 0.53409 0.14382 0.0
C236 C 0.77975 0.60784 0.17119 0.0
C237 C 0.83577 0.62134 0.18009 0.0
H238 H 0.34639 0.91831 0.50454 0.0
H239 H 0.42242 0.82606 0.44565 0.0
H240 H 0.3381 0.74005 0.43506 0.0
H241 H 0.24174 0.69222 0.4404 0.0
H242 H 0.16454 0.78348 0.49886 0.0
H243 H 0.25055 0.86843 0.51236 0.0
C244 C 0.34438 0.87924 0.48954 0.0
C245 C 0.39015 0.87847 0.47561 0.0
C246 C 0.29571 0.82984 0.48357 0.0
C247 C 0.38746 0.82765 0.45643 0.0
C248 C 0.33932 0.77848 0.45038 0.0
C249 C 0.24383 0.73074 0.45614 0.0
C250 C 0.19689 0.73188 0.46838 0.0
C251 C 0.29305 0.7793 0.46347 0.0
C252 C 0.2003 0.7816 0.48926 0.0
C253 C 0.2493 0.83023 0.49679 0.0
H254 H 0.49787 0.32825 0.84225 0.0
H255 H 0.6251 0.41025 0.78752 0.0
H256 H 0.6448 0.32547 0.7773 0.0
H257 H 0.62214 0.22626 0.78105 0.0
H258 H 0.48963 0.14155 0.83186 0.0
H259 H 0.47689 0.22951 0.84729 0.0
C260 C 0.53011 0.32759 0.82824 0.0
C261 C 0.56003 0.37539 0.81567 0.0
C262 C 0.5404 0.27824 0.82187 0.0
C263 C 0.60172 0.3741 0.79762 0.0
C264 C 0.61287 0.32555 0.79167 0.0
C265 C 0.59034 0.22687 0.79544 0.0
C266 C 0.55667 0.17692 0.805 0.0
C267 C 0.58188 0.27708 0.80324 0.0
C268 C 0.51664 0.17922 0.8244 0.0
C269 C 0.50886 0.22945 0.83295 0.0
H270 H 0.64975 0.92829 0.52779 0.0
H271 H 0.56996 0.91461 0.43048 0.0
H272 H 0.53823 0.81122 0.41993 0.0
H273 H 0.5324 0.72517 0.43825 0.0
H274 H 0.60063 0.73647 0.53843 0.0
H275 H 0.63935 0.83988 0.54736 0.0
C276 C 0.62575 0.90247 0.50423 0.0
C277 C 0.61253 0.92893 0.47981 0.0
C278 C 0.60593 0.84259 0.49873 0.0
C279 C 0.58067 0.89516 0.4496 0.0
C280 C 0.56257 0.83605 0.44356 0.0
C281 C 0.55466 0.74963 0.4624 0.0
C282 C 0.56278 0.72172 0.48759 0.0
C283 C 0.57457 0.80926 0.46802 0.0
C284 C 0.59398 0.75566 0.51816 0.0
C285 C 0.61581 0.81523 0.5235 0.0
H286 H 0.82656 0.62575 0.80658 0.0
H287 H 0.78388 0.46856 0.8406 0.0
H288 H 0.88092 0.49147 0.85776 0.0
H289 H 0.97581 0.56207 0.86968 0.0
H290 H 1.01594 0.72398 0.84133 0.0
H291 H 0.92185 0.69279 0.81453 0.0
C292 C 0.8386 0.59601 0.81719 0.0
C293 C 0.79864 0.54599 0.8228 0.0
C294 C 0.89382 0.61063 0.82821 0.0
C295 C 0.81433 0.50753 0.83633 0.0
C296 C 0.86961 0.52077 0.84626 0.0
C297 C 0.96393 0.59053 0.85763 0.0
C298 C 1.00245 0.64563 0.85803 0.0
C299 C 0.90941 0.57325 0.84351 0.0
C300 C 0.98705 0.68137 0.84138 0.0
C301 C 0.93321 0.66373 0.82625 0.0
H302 H 0.23443 0.79113 0.15018 0.0
H303 H 0.28008 0.73806 0.23705 0.0
H304 H 0.37208 0.81285 0.24489 0.0
H305 H 0.4395 0.89212 0.22682 0.0
H306 H 0.39287 0.95044 0.14231 0.0
H307 H 0.30198 0.87317 0.13294 0.0
C308 C 0.26446 0.79644 0.17099 0.0
C309 C 0.25057 0.7596 0.19317 0.0
C310 C 0.3173 0.83962 0.17537 0.0
C311 C 0.28977 0.76638 0.21987 0.0
C312 C 0.34245 0.80883 0.22422 0.0
C313 C 0.40939 0.88853 0.20654 0.0
C314 C 0.42315 0.92751 0.18548 0.0
C315 C 0.35666 0.84554 0.20208 0.0
C316 C 0.38386 0.92078 0.15872 0.0
C317 C 0.33158 0.877 0.15357 0.0
H318 H 0.49647 0.18439 0.46679 0.0
H319 H 0.64476 0.21934 0.53177 0.0
H320 H 0.66641 0.32121 0.54121 0.0
H321 H 0.63962 0.39952 0.5345 0.0
H322 H 0.48887 0.36445 0.47193 0.0
H323 H 0.47271 0.26402 0.45722 0.0
C324 C 0.53365 0.2144 0.48288 0.0
C325 C 0.56871 0.19429 0.49883 0.0
C326 C 0.54554 0.27299 0.48849 0.0
C327 C 0.61698 0.23366 0.51935 0.0
C328 C 0.62937 0.29194 0.52475 0.0
C329 C 0.60336 0.37001 0.51744 0.0
C330 C 0.56525 0.3897 0.50464 0.0
C331 C 0.59342 0.31199 0.50996 0.0
C332 C 0.51914 0.35088 0.48201 0.0
C333 C 0.50952 0.29319 0.4739 0.0
H334 H 0.45995 0.64584 0.86708 0.0
H335 H 0.3327 0.49968 0.80225 0.0
H336 H 0.2753 0.55359 0.79909 0.0
H337 H 0.26226 0.64257 0.81555 0.0
H338 H 0.39383 0.7899 0.87637 0.0
H339 H 0.45075 0.7359 0.87888 0.0
C340 C 0.41945 0.62548 0.85241 0.0
C341 C 0.39992 0.56872 0.83531 0.0
C342 C 0.38859 0.65744 0.84929 0.0
C343 C 0.34801 0.5432 0.8159 0.0
C344 C 0.31564 0.57413 0.81387 0.0
C345 C 0.30379 0.66281 0.82884 0.0
C346 C 0.32432 0.71983 0.84577 0.0
C347 C 0.33575 0.63137 0.83036 0.0
C348 C 0.3779 0.74622 0.86289 0.0
C349 C 0.40988 0.71515 0.86475 0.0
H350 H 0.91407 0.28892 0.15773 0.0
H351 H 0.86641 0.36659 0.08337 0.0
H352 H 0.77208 0.29778 0.07664 0.0
H353 H 0.70269 0.21991 0.09389 0.0
H354 H 0.74918 0.13504 0.16457 0.0
H355 H 0.84409 0.20357 0.17151 0.0
C356 C 0.88304 0.29008 0.13976 0.0
C357 C 0.89712 0.33264 0.12103 0.0
C358 C 0.82861 0.24989 0.13578 0.0
C359 C 0.85668 0.33397 0.09788 0.0
C360 C 0.80262 0.29488 0.09417 0.0
C361 C 0.73343 0.215 0.11024 0.0
C362 C 0.71813 0.17174 0.12854 0.0
C363 C 0.78807 0.25312 0.11323 0.0
C364 C 0.75905 0.16817 0.15046 0.0
C365 C 0.81362 0.2071 0.15423 0.0
H366 H 0.15064 0.64861 0.07532 0.0
H367 H 1.02055 0.48307 0.03607 0.0
H368 H 1.02258 0.503 0.9805 0.0
H369 H 0.0581 0.56938 0.94378 0.0
H370 H 0.18419 0.73673 0.98432 0.0
H371 H 0.18773 0.7133 0.03875 0.0
C372 C 0.12279 0.61649 0.0547 0.0
C373 C 0.08518 0.56446 0.06 0.0
C374 C 0.12358 0.62853 0.02304 0.0
C375 C 0.04976 0.52355 0.03279 0.0
C376 C 0.05086 0.53495 0.00101 0.0
C377 C 0.08618 0.60088 0.96455 0.0
C378 C 0.1205 0.65498 0.95997 0.0
C379 C 0.087 0.58767 -0.00403 0.0
C380 C 0.15764 0.69467 0.987 0.0
C381 C 0.15937 0.68147 0.01821 0.0
H382 H 0.65116 0.08873 0.38112 0.0
H383 H 0.48713 0.06835 0.39415 0.0
H384 H 0.46755 0.07579 0.33719 0.0
H385 H 0.49281 0.07656 0.28235 0.0
H386 H 0.65169 0.08363 0.26608 0.0
H387 H 0.67873 0.09596 0.32567 0.0
C388 C 0.61142 0.0865 0.37143 0.0
C389 C 0.57028 0.07704 0.39151 0.0
C390 C 0.59978 0.08898 0.33814 0.0
C391 C 0.51899 0.07439 0.37888 0.0
C392 C 0.50789 0.07906 0.34641 0.0
C393 C 0.5337 0.08169 0.29194 0.0
C394 C 0.56987 0.07821 0.26988 0.0
C395 C 0.54738 0.08469 0.32562 0.0
C396 C 0.62311 0.08621 0.28259 0.0
C397 C 0.63823 0.09234 0.3166 0.0
H398 H 0.64383 0.53842 0.71878 0.0
H399 H 0.47654 0.51921 0.71795 0.0
H400 H 0.46907 0.52426 0.6594 0.0
H401 H 0.50851 0.52657 0.6074 0.0
H402 H 0.67486 0.54299 0.60915 0.0
H403 H 0.68482 0.54775 0.66874 0.0
C404 C 0.60557 0.5352 0.70588 0.0
C405 C 0.56043 0.52731 0.72254 0.0
C406 C 0.60173 0.53828 0.67249 0.0
C407 C 0.51169 0.52464 0.70558 0.0
C408 C 0.50747 0.52766 0.67215 0.0
C409 C 0.54725 0.53276 0.62115 0.0
C410 C 0.59115 0.535 0.60428 0.0
C411 C 0.55203 0.53369 0.65524 0.0
C412 C 0.6409 0.54176 0.62192 0.0
C413 C 0.64636 0.54395 0.65583 0.0
H414 H 0.5394 0.98661 0.59041 0.0
H415 H 0.67844 0.14807 0.60688 0.0
H416 H 0.68238 0.15648 0.66633 0.0
H417 H 0.64261 0.12179 0.71364 0.0
H418 H 0.50249 0.96192 0.69787 0.0
H419 H 0.50357 0.94847 0.63826 0.0
C420 C 0.57078 0.02348 0.60698 0.0
C421 C 0.60808 0.06695 0.59408 0.0
C422 C 0.57277 0.02829 0.64132 0.0
C423 C 0.64887 0.1141 0.616 0.0
C424 C 0.65123 0.11903 0.65008 0.0
C425 C 0.61256 0.0838 0.69713 0.0
C426 C 0.57228 0.04316 0.71006 0.0
C427 C 0.6128 0.07695 0.66298 0.0
C428 C 0.53413 0.99367 0.68852 0.0
C429 C 0.53443 0.98624 0.65442 0.0
H430 H 0.53184 0.48813 0.93274 0.0
H431 H 0.70351 0.58026 0.93021 0.0
H432 H 0.72427 0.58947 0.98965 0.0
H433 H 0.69372 0.57444 0.04245 0.0
H434 H 0.52311 0.47662 0.04513 0.0
H435 H 0.5019 0.46774 0.98565 0.0
C436 C 0.57378 0.5102 0.94522 0.0
C437 C 0.616 0.53372 0.92704 0.0
C438 C 0.58564 0.51472 0.97946 0.0
C439 C 0.67021 0.5616 0.94352 0.0
C440 C 0.68215 0.56706 0.97757 0.0
C441 C 0.65198 0.55006 0.03009 0.0
C442 C 0.61018 0.52626 0.04853 0.0
C443 C 0.64019 0.54398 -0.00421 0.0
C444 C 0.55614 0.49619 0.03184 0.0
C445 C 0.54396 0.49075 -0.00228 0.0
H446 H 0.99632 0.52823 0.25908 0.0
H447 H 0.16059 0.53751 0.26245 0.0
H448 H 0.17281 0.55442 0.32273 0.0
H449 H 0.14129 0.5789 0.3741 0.0
H450 H 0.98007 0.57821 0.37177 0.0
H451 H 0.96144 0.54462 0.31163 0.0
C452 C 1.034 0.53223 0.27316 0.0
C453 C 0.07742 0.53118 0.25671 0.0
C454 C 0.04148 0.54436 0.30792 0.0
C455 C 0.12666 0.53775 0.27488 0.0
C456 C 0.13374 0.54781 0.30925 0.0
C457 C 0.10193 0.57103 0.36042 0.0
C458 C 0.06247 0.58191 0.37719 0.0
C459 C 0.0922 0.55329 0.326 0.0
C460 C 1.01115 0.57025 0.35935 0.0
C461 C 1.00063 0.55136 0.32497 0.0
loop_
_geom_bond_atom_site_label_1
_geom_bond_atom_site_label_2
_geom_bond_distance
_geom_bond_site_symmetry_2
_ccdc_geom_bond_type
Tb0 O3 2.453 1_455 S
Tb0 O4 2.596 1_455 S
Tb0 O5 2.374 . S
Tb0 O13 2.343 . S
Tb0 O15 2.353 . S
Tb0 O17 2.427 . S
Tb0 O18 2.513 . S
C1 O5 1.251 . S
C1 O7 1.263 . S
Tb2 O4 2.343 1_455 S
Tb2 O7 2.353 . S
Tb2 O10 2.427 1_455 S
Tb2 O11 2.513 1_455 S
Tb2 O12 2.453 . S
Tb2 O13 2.596 . S
Tb2 O14 2.374 . S
O3 Tb0 2.453 1_655 S
O3 C19 1.245 . S
O4 Tb0 2.596 1_655 S
O4 Tb2 2.343 1_655 S
O4 C19 1.259 . S
O5 Tb0 2.374 . S
O5 C1 1.251 . S
C6 O10 1.275 . S
C6 O11 1.246 . S
O7 C1 1.263 . S
O7 Tb2 2.353 . S
C8 O12 1.245 . S
C8 O13 1.259 . S
C9 O14 1.250 . S
C9 O15 1.263 . S
O10 Tb2 2.427 1_655 S
O10 C6 1.275 . S
O11 Tb2 2.513 1_655 S
O11 C6 1.246 . S
O12 Tb2 2.453 . S
O12 C8 1.245 . S
O13 Tb0 2.343 . S
O13 Tb2 2.596 . S
O13 C8 1.259 . S
O14 Tb2 2.374 . S
O14 C9 1.250 . S
O15 Tb0 2.353 . S
O15 C9 1.263 . S
C16 O17 1.275 . S
C16 O18 1.246 . S
O17 Tb0 2.427 . S
O17 C16 1.275 . S
O18 Tb0 2.513 . S
O18 C16 1.246 . S
C19 O3 1.245 . S
C19 O4 1.259 . S
Tb20 O23 2.453 . S
Tb20 O24 2.596 . S
Tb20 O25 2.374 . S
Tb20 O33 2.343 . S
Tb20 O35 2.353 . S
Tb20 O37 2.427 1_545 S
Tb20 O38 2.513 1_545 S
C21 O25 1.251 . S
C21 O27 1.263 . S
Tb22 O24 2.343 . S
Tb22 O27 2.353 . S
Tb22 O30 2.427 . S
Tb22 O31 2.513 . S
Tb22 O32 2.453 1_545 S
Tb22 O33 2.596 . S
Tb22 O34 2.374 . S
O23 Tb20 2.453 . S
O23 C39 1.245 . S
O24 Tb20 2.596 . S
O24 Tb22 2.343 . S
O24 C39 1.259 . S
O25 Tb20 2.374 . S
O25 C21 1.251 . S
C26 O30 1.275 . S
C26 O31 1.246 . S
O27 C21 1.263 . S
O27 Tb22 2.353 . S
C28 O32 1.245 . S
C28 O33 1.259 1_565 S
C29 O34 1.250 . S
C29 O35 1.263 . S
O30 Tb22 2.427 . S
O30 C26 1.275 . S
O31 Tb22 2.513 . S
O31 C26 1.246 . S
O32 Tb22 2.453 1_565 S
O32 C28 1.245 . S
O33 Tb20 2.343 . S
O33 Tb22 2.596 . S
O33 C28 1.259 1_545 S
O34 Tb22 2.374 . S
O34 C29 1.250 . S
O35 Tb20 2.353 . S
O35 C29 1.263 . S
C36 O37 1.275 . S
C36 O38 1.246 . S
O37 Tb20 2.427 1_565 S
O37 C36 1.275 . S
O38 Tb20 2.513 1_565 S
O38 C36 1.246 . S
C39 O23 1.245 . S
C39 O24 1.259 . S
Tb40 O43 2.453 . S
Tb40 O44 2.596 . S
Tb40 O45 2.374 . S
Tb40 O53 2.343 . S
Tb40 O55 2.353 . S
Tb40 O57 2.427 . S
Tb40 O58 2.513 . S
C41 O45 1.251 . S
C41 O47 1.263 . S
Tb42 O44 2.343 . S
Tb42 O47 2.353 . S
Tb42 O50 2.427 . S
Tb42 O51 2.513 . S
Tb42 O52 2.453 . S
Tb42 O53 2.596 . S
Tb42 O54 2.374 . S
O43 Tb40 2.453 . S
O43 C59 1.245 . S
O44 Tb40 2.596 . S
O44 Tb42 2.343 . S
O44 C59 1.259 . S
O45 Tb40 2.374 . S
O45 C41 1.251 . S
C46 O50 1.275 . S
C46 O51 1.246 . S
O47 C41 1.263 . S
O47 Tb42 2.353 . S
C48 O52 1.245 . S
C48 O53 1.259 . S
C49 O54 1.250 . S
C49 O55 1.263 . S
O50 Tb42 2.427 . S
O50 C46 1.275 . S
O51 Tb42 2.513 . S
O51 C46 1.246 . S
O52 Tb42 2.453 . S
O52 C48 1.245 . S
O53 Tb40 2.343 . S
O53 Tb42 2.596 . S
O53 C48 1.259 . S
O54 Tb42 2.374 . S
O54 C49 1.250 . S
O55 Tb40 2.353 . S
O55 C49 1.263 . S
C56 O57 1.275 . S
C56 O58 1.246 . S
O57 Tb40 2.427 . S
O57 C56 1.275 . S
O58 Tb40 2.513 . S
O58 C56 1.246 . S
C59 O43 1.245 . S
C59 O44 1.259 . S
H60 C61 0.949 . S
C61 H60 0.949 . S
C61 C62 1.395 . S
C61 C63 1.391 . S
C62 C61 1.395 . S
C62 C65 1.390 . S
C63 C61 1.391 . S
C63 C67 1.387 . S
C63 C68 1.491 . S
H64 C65 0.950 1_565 S
C65 C62 1.390 . S
C65 H64 0.950 1_545 S
C65 C66 1.378 1_545 S
C66 C65 1.378 1_565 S
C66 C67 1.409 1_565 S
C67 C63 1.387 . S
C67 C66 1.409 1_545 S
C67 H69 0.951 . S
C68 C63 1.491 . S
C68 C70 1.382 . S
C68 C72 1.404 . S
H69 C67 0.951 . S
C70 C68 1.382 . S
C70 C71 1.390 . S
C70 H75 0.949 . S
C71 C70 1.390 . S
C71 C76 1.399 . S
C72 C68 1.404 . S
C72 H73 0.950 . S
C72 C74 1.375 . S
H73 C72 0.950 . S
C74 C72 1.375 . S
C74 C76 1.382 . S
C74 H78 0.950 . S
H75 C70 0.949 . S
C76 C71 1.399 . S
C76 C74 1.382 . S
C76 H77 0.952 . S
H77 C76 0.952 . S
H78 C74 0.950 . S
H79 C80 0.949 . S
C80 H79 0.949 . S
C80 C81 1.395 . S
C80 C82 1.391 . S
C81 C80 1.395 . S
C81 C84 1.390 . S
C82 C80 1.391 . S
C82 C86 1.387 . S
C82 C87 1.491 . S
H83 C84 0.950 . S
C84 C81 1.390 . S
C84 H83 0.950 . S
C84 C85 1.378 . S
C85 C84 1.378 . S
C85 C86 1.409 . S
C86 C82 1.387 . S
C86 C85 1.409 . S
C86 H88 0.951 . S
C87 C82 1.491 . S
C87 C89 1.382 . S
C87 C91 1.404 . S
H88 C86 0.951 . S
C89 C87 1.382 . S
C89 C90 1.390 . S
C89 H94 0.949 . S
C90 C89 1.390 . S
C90 C95 1.399 . S
C91 C87 1.404 . S
C91 H92 0.950 . S
C91 C93 1.375 . S
H92 C91 0.950 . S
C93 C91 1.375 . S
C93 C95 1.382 . S
C93 H97 0.950 . S
H94 C89 0.949 . S
C95 C90 1.399 . S
C95 C93 1.382 . S
C95 H96 0.952 . S
H96 C95 0.952 . S
H97 C93 0.950 . S
H98 C99 0.949 . S
C99 H98 0.949 . S
C99 C100 1.395 . S
C99 C101 1.391 . S
C100 C99 1.395 . S
C100 C103 1.390 . S
C101 C99 1.391 . S
C101 C105 1.387 . S
C101 C106 1.491 . S
H102 C103 0.950 1_655 S
C103 C100 1.390 . S
C103 H102 0.950 1_455 S
C103 C104 1.378 . S
C104 C103 1.378 . S
C104 C105 1.409 . S
C105 C101 1.387 . S
C105 C104 1.409 . S
C105 H107 0.951 . S
C106 C101 1.491 . S
C106 C108 1.382 . S
C106 C110 1.404 . S
H107 C105 0.951 . S
C108 C106 1.382 . S
C108 C109 1.390 . S
C108 H113 0.949 . S
C109 C108 1.390 . S
C109 C114 1.399 . S
C110 C106 1.404 . S
C110 H111 0.950 . S
C110 C112 1.375 . S
H111 C110 0.950 . S
C112 C110 1.375 . S
C112 C114 1.382 . S
C112 H116 0.950 . S
H113 C108 0.949 . S
C114 C109 1.399 . S
C114 C112 1.382 . S
C114 H115 0.952 . S
H115 C114 0.952 . S
H116 C112 0.950 . S
H117 C118 0.949 . S
C118 H117 0.949 . S
C118 C119 1.395 1_655 S
C118 C120 1.391 1_655 S
C119 C118 1.395 1_455 S
C119 C122 1.390 . S
C120 C118 1.391 1_455 S
C120 C124 1.387 . S
C120 C125 1.491 1_455 S
H121 C122 0.950 . S
C122 C119 1.390 . S
C122 H121 0.950 . S
C122 C123 1.378 . S
C123 C122 1.378 . S
C123 C124 1.409 . S
C124 C120 1.387 . S
C124 C123 1.409 . S
C124 H126 0.951 . S
C125 C120 1.491 1_655 S
C125 C127 1.382 . S
C125 C129 1.404 . S
H126 C124 0.951 . S
C127 C125 1.382 . S
C127 C128 1.390 . S
C127 H132 0.949 . S
C128 C127 1.390 . S
C128 C133 1.399 . S
C129 C125 1.404 . S
C129 H130 0.950 . S
C129 C131 1.375 . S
H130 C129 0.950 . S
C131 C129 1.375 . S
C131 C133 1.382 . S
C131 H135 0.950 . S
H132 C127 0.949 . S
C133 C128 1.399 . S
C133 C131 1.382 . S
C133 H134 0.952 . S
H134 C133 0.952 . S
H135 C131 0.950 . S
H136 C137 0.949 1_565 S
C137 H136 0.949 1_545 S
C137 C138 1.395 . S
C137 C139 1.391 . S
C138 C137 1.395 . S
C138 C141 1.390 . S
C139 C137 1.391 . S
C139 C143 1.387 . S
C139 C144 1.491 1_545 S
H140 C141 0.950 . S
C141 C138 1.390 . S
C141 H140 0.950 . S
C141 C142 1.378 . S
C142 C141 1.378 . S
C142 C143 1.409 . S
C143 C139 1.387 . S
C143 C142 1.409 . S
C143 H145 0.951 . S
C144 C139 1.491 1_565 S
C144 C146 1.382 . S
C144 C148 1.404 . S
H145 C143 0.951 . S
C146 C144 1.382 . S
C146 C147 1.390 . S
C146 H151 0.949 . S
C147 C146 1.390 . S
C147 C152 1.399 . S
C148 C144 1.404 . S
C148 H149 0.950 1_565 S
C148 C150 1.375 . S
H149 C148 0.950 1_545 S
C150 C148 1.375 . S
C150 C152 1.382 . S
C150 H154 0.950 . S
H151 C146 0.949 . S
C152 C147 1.399 . S
C152 C150 1.382 . S
C152 H153 0.952 . S
H153 C152 0.952 . S
H154 C150 0.950 . S
H155 C156 0.949 . S
C156 H155 0.949 . S
C156 C157 1.395 . S
C156 C158 1.391 . S
C157 C156 1.395 . S
C157 C160 1.390 . S
C158 C156 1.391 . S
C158 C162 1.387 . S
C158 C163 1.491 . S
H159 C160 0.950 . S
C160 C157 1.390 . S
C160 H159 0.950 . S
C160 C161 1.378 . S
C161 C160 1.378 . S
C161 C162 1.409 . S
C162 C158 1.387 . S
C162 C161 1.409 . S
C162 H164 0.951 . S
C163 C158 1.491 . S
C163 C165 1.382 . S
C163 C167 1.404 . S
H164 C162 0.951 . S
C165 C163 1.382 . S
C165 C166 1.390 . S
C165 H170 0.949 . S
C166 C165 1.390 . S
C166 C171 1.399 . S
C167 C163 1.404 . S
C167 H168 0.950 . S
C167 C169 1.375 . S
H168 C167 0.950 . S
C169 C167 1.375 . S
C169 C171 1.382 . S
C169 H173 0.950 . S
H170 C165 0.949 . S
C171 C166 1.399 . S
C171 C169 1.382 . S
C171 H172 0.952 . S
H172 C171 0.952 . S
H173 C169 0.950 . S
H174 C180 0.930 . S
H175 C183 0.930 . S
H176 C184 0.930 . S
H177 C185 0.930 . S
H178 C188 0.930 . S
H179 C189 0.930 . S
C180 H174 0.930 . S
C180 C181 1.355 . S
C180 C182 1.415 . S
C181 C180 1.355 . S
C181 C183 1.419 . S
C182 C180 1.415 . S
C182 C187 1.425 . S
C182 C189 1.409 . S
C183 H175 0.930 . S
C183 C181 1.419 . S
C183 C184 1.362 . S
C184 H176 0.930 . S
C184 C183 1.362 . S
C184 C187 1.409 . S
C185 H177 0.930 . S
C185 C186 1.355 . S
C185 C187 1.415 . S
C186 C185 1.355 . S
C186 C188 1.419 . S
C187 C182 1.425 . S
C187 C184 1.409 . S
C187 C185 1.415 . S
C188 H178 0.930 . S
C188 C186 1.419 . S
C188 C189 1.362 . S
C189 H179 0.930 . S
C189 C182 1.409 . S
C189 C188 1.362 . S
H190 C196 0.930 . S
H191 C199 0.930 . S
H192 C200 0.930 . S
H193 C201 0.930 . S
H194 C204 0.930 . S
H195 C205 0.930 . S
C196 H190 0.930 . S
C196 C197 1.355 . S
C196 C198 1.415 . S
C197 C196 1.355 . S
C197 C199 1.419 . S
C198 C196 1.415 . S
C198 C203 1.425 . S
C198 C205 1.409 . S
C199 H191 0.930 . S
C199 C197 1.419 . S
C199 C200 1.362 . S
C200 H192 0.930 . S
C200 C199 1.362 . S
C200 C203 1.409 . S
C201 H193 0.930 . S
C201 C202 1.355 . S
C201 C203 1.415 . S
C202 C201 1.355 . S
C202 C204 1.419 . S
C203 C198 1.425 . S
C203 C200 1.409 . S
C203 C201 1.415 . S
C204 H194 0.930 . S
C204 C202 1.419 . S
C204 C205 1.362 . S
C205 H195 0.930 . S
C205 C198 1.409 . S
C205 C204 1.362 . S
H206 C212 0.930 . S
H207 C215 0.930 . S
H208 C216 0.930 . S
H209 C217 0.930 . S
H210 C220 0.930 . S
H211 C221 0.930 . S
C212 H206 0.930 . S
C212 C213 1.355 . S
C212 C214 1.415 . S
C213 C212 1.355 . S
C213 C215 1.419 . S
C214 C212 1.415 . S
C214 C219 1.425 . S
C214 C221 1.409 . S
C215 H207 0.930 . S
C215 C213 1.419 . S
C215 C216 1.362 . S
C216 H208 0.930 . S
C216 C215 1.362 . S
C216 C219 1.409 . S
C217 H209 0.930 . S
C217 C218 1.355 . S
C217 C219 1.415 . S
C218 C217 1.355 . S
C218 C220 1.419 . S
C219 C214 1.425 . S
C219 C216 1.409 . S
C219 C217 1.415 . S
C220 H210 0.930 . S
C220 C218 1.419 . S
C220 C221 1.362 . S
C221 H211 0.930 . S
C221 C214 1.409 . S
C221 C220 1.362 . S
H222 C228 0.930 . S
H223 C231 0.930 . S
H224 C232 0.930 . S
H225 C233 0.930 . S
H226 C236 0.930 . S
H227 C237 0.930 . S
C228 H222 0.930 . S
C228 C229 1.355 . S
C228 C230 1.415 . S
C229 C228 1.355 . S
C229 C231 1.419 . S
C230 C228 1.415 . S
C230 C235 1.425 . S
C230 C237 1.409 . S
C231 H223 0.930 . S
C231 C229 1.419 . S
C231 C232 1.362 . S
C232 H224 0.930 . S
C232 C231 1.362 . S
C232 C235 1.409 . S
C233 H225 0.930 . S
C233 C234 1.355 . S
C233 C235 1.415 . S
C234 C233 1.355 . S
C234 C236 1.419 . S
C235 C230 1.425 . S
C235 C232 1.409 . S
C235 C233 1.415 . S
C236 H226 0.930 . S
C236 C234 1.419 . S
C236 C237 1.362 . S
C237 H227 0.930 . S
C237 C230 1.409 . S
C237 C236 1.362 . S
H238 C244 0.930 . S
H239 C247 0.930 . S
H240 C248 0.930 . S
H241 C249 0.930 . S
H242 C252 0.930 . S
H243 C253 0.930 . S
C244 H238 0.930 . S
C244 C245 1.355 . S
C244 C246 1.415 . S
C245 C244 1.355 . S
C245 C247 1.419 . S
C246 C244 1.415 . S
C246 C251 1.425 . S
C246 C253 1.409 . S
C247 H239 0.930 . S
C247 C245 1.419 . S
C247 C248 1.362 . S
C248 H240 0.930 . S
C248 C247 1.362 . S
C248 C251 1.409 . S
C249 H241 0.930 . S
C249 C250 1.355 . S
C249 C251 1.415 . S
C250 C249 1.355 . S
C250 C252 1.419 . S
C251 C246 1.425 . S
C251 C248 1.409 . S
C251 C249 1.415 . S
C252 H242 0.930 . S
C252 C250 1.419 . S
C252 C253 1.362 . S
C253 H243 0.930 . S
C253 C246 1.409 . S
C253 C252 1.362 . S
H254 C260 0.930 . S
H255 C263 0.930 . S
H256 C264 0.930 . S
H257 C265 0.930 . S
H258 C268 0.930 . S
H259 C269 0.930 . S
C260 H254 0.930 . S
C260 C261 1.355 . S
C260 C262 1.415 . S
C261 C260 1.355 . S
C261 C263 1.419 . S
C262 C260 1.415 . S
C262 C267 1.425 . S
C262 C269 1.409 . S
C263 H255 0.930 . S
C263 C261 1.419 . S
C263 C264 1.362 . S
C264 H256 0.930 . S
C264 C263 1.362 . S
C264 C267 1.409 . S
C265 H257 0.930 . S
C265 C266 1.355 . S
C265 C267 1.415 . S
C266 C265 1.355 . S
C266 C268 1.419 . S
C267 C262 1.425 . S
C267 C264 1.409 . S
C267 C265 1.415 . S
C268 H258 0.930 . S
C268 C266 1.419 . S
C268 C269 1.362 . S
C269 H259 0.930 . S
C269 C262 1.409 . S
C269 C268 1.362 . S
H270 C276 0.930 . S
H271 C279 0.930 . S
H272 C280 0.930 . S
H273 C281 0.930 . S
H274 C284 0.930 . S
H275 C285 0.930 . S
C276 H270 0.930 . S
C276 C277 1.355 . S
C276 C278 1.415 . S
C277 C276 1.355 . S
C277 C279 1.419 . S
C278 C276 1.415 . S
C278 C283 1.425 . S
C278 C285 1.409 . S
C279 H271 0.930 . S
C279 C277 1.419 . S
C279 C280 1.362 . S
C280 H272 0.930 . S
C280 C279 1.362 . S
C280 C283 1.409 . S
C281 H273 0.930 . S
C281 C282 1.355 . S
C281 C283 1.415 . S
C282 C281 1.355 . S
C282 C284 1.419 . S
C283 C278 1.425 . S
C283 C280 1.409 . S
C283 C281 1.415 . S
C284 H274 0.930 . S
C284 C282 1.419 . S
C284 C285 1.362 . S
C285 H275 0.930 . S
C285 C278 1.409 . S
C285 C284 1.362 . S
H286 C292 0.930 . S
H287 C295 0.930 . S
H288 C296 0.930 . S
H289 C297 0.930 . S
H290 C300 0.930 . S
H291 C301 0.930 . S
C292 H286 0.930 . S
C292 C293 1.355 . S
C292 C294 1.415 . S
C293 C292 1.355 . S
C293 C295 1.419 . S
C294 C292 1.415 . S
C294 C299 1.425 . S
C294 C301 1.409 . S
C295 H287 0.930 . S
C295 C293 1.419 . S
C295 C296 1.362 . S
C296 H288 0.930 . S
C296 C295 1.362 . S
C296 C299 1.409 . S
C297 H289 0.930 . S
C297 C298 1.355 . S
C297 C299 1.415 . S
C298 C297 1.355 . S
C298 C300 1.419 . S
C299 C294 1.425 . S
C299 C296 1.409 . S
C299 C297 1.415 . S
C300 H290 0.930 . S
C300 C298 1.419 . S
C300 C301 1.362 . S
C301 H291 0.930 . S
C301 C294 1.409 . S
C301 C300 1.362 . S
H302 C308 0.930 . S
H303 C311 0.930 . S
H304 C312 0.930 . S
H305 C313 0.930 . S
H306 C316 0.935 . S
H307 C317 0.930 . S
C308 H302 0.930 . S
C308 C309 1.355 . S
C308 C310 1.415 . S
C309 C308 1.355 . S
C309 C311 1.419 . S
C310 C308 1.415 . S
C310 C315 1.425 . S
C310 C317 1.409 . S
C311 H303 0.930 . S
C311 C309 1.419 . S
C311 C312 1.362 . S
C312 H304 0.930 . S
C312 C311 1.362 . S
C312 C315 1.409 . S
C313 H305 0.930 . S
C313 C314 1.355 . S
C313 C315 1.415 . S
C314 C313 1.355 . S
C314 C316 1.419 . S
C315 C310 1.425 . S
C315 C312 1.409 . S
C315 C313 1.415 . S
C316 H306 0.935 . S
C316 C314 1.419 . S
C316 C317 1.362 . S
C317 H307 0.930 . S
C317 C310 1.409 . S
C317 C316 1.362 . S
H318 C324 0.930 . S
H319 C327 0.930 . S
H320 C328 0.930 . S
H321 C329 0.930 . S
H322 C332 0.930 . S
H323 C333 0.930 . S
C324 H318 0.930 . S
C324 C325 1.355 . S
C324 C326 1.415 . S
C325 C324 1.355 . S
C325 C327 1.419 . S
C326 C324 1.415 . S
C326 C331 1.425 . S
C326 C333 1.409 . S
C327 H319 0.930 . S
C327 C325 1.419 . S
C327 C328 1.362 . S
C328 H320 0.930 . S
C328 C327 1.362 . S
C328 C331 1.409 . S
C329 H321 0.930 . S
C329 C330 1.355 . S
C329 C331 1.415 . S
C330 C329 1.355 . S
C330 C332 1.419 . S
C331 C326 1.425 . S
C331 C328 1.409 . S
C331 C329 1.415 . S
C332 H322 0.930 . S
C332 C330 1.419 . S
C332 C333 1.362 . S
C333 H323 0.930 . S
C333 C326 1.409 . S
C333 C332 1.362 . S
H334 C340 0.930 . S
H335 C343 0.930 . S
H336 C344 0.930 . S
H337 C345 0.930 . S
H338 C348 0.930 . S
H339 C349 0.930 . S
C340 H334 0.930 . S
C340 C341 1.355 . S
C340 C342 1.415 . S
C341 C340 1.355 . S
C341 C343 1.419 . S
C342 C340 1.415 . S
C342 C347 1.425 . S
C342 C349 1.409 . S
C343 H335 0.930 . S
C343 C341 1.419 . S
C343 C344 1.362 . S
C344 H336 0.930 . S
C344 C343 1.362 . S
C344 C347 1.409 . S
C345 H337 0.930 . S
C345 C346 1.355 . S
C345 C347 1.415 . S
C346 C345 1.355 . S
C346 C348 1.419 . S
C347 C342 1.425 . S
C347 C344 1.409 . S
C347 C345 1.415 . S
C348 H338 0.930 . S
C348 C346 1.419 . S
C348 C349 1.362 . S
C349 H339 0.930 . S
C349 C342 1.409 . S
C349 C348 1.362 . S
H350 C356 0.930 . S
H351 C359 0.930 . S
H352 C360 0.930 . S
H353 C361 0.930 . S
H354 C364 0.930 . S
H355 C365 0.930 . S
C356 H350 0.930 . S
C356 C357 1.355 . S
C356 C358 1.415 . S
C357 C356 1.355 . S
C357 C359 1.419 . S
C358 C356 1.415 . S
C358 C363 1.425 . S
C358 C365 1.409 . S
C359 H351 0.930 . S
C359 C357 1.419 . S
C359 C360 1.362 . S
C360 H352 0.930 . S
C360 C359 1.362 . S
C360 C363 1.409 . S
C361 H353 0.930 . S
C361 C362 1.355 . S
C361 C363 1.415 . S
C362 C361 1.355 . S
C362 C364 1.419 . S
C363 C358 1.425 . S
C363 C360 1.409 . S
C363 C361 1.415 . S
C364 H354 0.930 . S
C364 C362 1.419 . S
C364 C365 1.362 . S
C365 H355 0.930 . S
C365 C358 1.409 . S
C365 C364 1.362 . S
H366 C372 0.930 1_655 S
H367 C375 0.930 . S
H368 C376 0.930 . S
H369 C377 0.930 . S
H370 C380 0.930 1_655 S
H371 C381 0.930 1_655 S
C372 H366 0.930 1_455 S
C372 C373 1.355 . S
C372 C374 1.415 . S
C373 C372 1.355 . S
C373 C375 1.419 . S
C374 C372 1.415 . S
C374 C379 1.426 . S
C374 C381 1.409 1_554 S
C375 H367 0.930 . S
C375 C373 1.419 . S
C375 C376 1.362 . S
C376 H368 0.930 . S
C376 C375 1.362 . S
C376 C379 1.412 . S
C377 H369 0.930 . S
C377 C378 1.355 . S
C377 C379 1.411 1_556 S
C378 C377 1.355 . S
C378 C380 1.419 . S
C379 C374 1.426 . S
C379 C376 1.412 . S
C379 C377 1.411 1_554 S
C380 H370 0.930 1_455 S
C380 C378 1.419 . S
C380 C381 1.362 . S
C381 H371 0.930 1_455 S
C381 C374 1.409 1_556 S
C381 C380 1.362 . S
H382 C388 0.930 . S
H383 C391 0.930 . S
H384 C392 0.930 . S
H385 C393 0.930 . S
H386 C396 0.930 . S
H387 C397 0.915 1_565 S
C388 H382 0.930 . S
C388 C389 1.355 . S
C388 C390 1.415 . S
C389 C388 1.355 . S
C389 C391 1.419 . S
C390 C388 1.415 . S
C390 C395 1.425 . S
C390 C397 1.409 . S
C391 H383 0.930 . S
C391 C389 1.419 . S
C391 C392 1.362 . S
C392 H384 0.930 . S
C392 C391 1.362 . S
C392 C395 1.409 . S
C393 H385 0.930 . S
C393 C394 1.355 . S
C393 C395 1.415 . S
C394 C393 1.355 . S
C394 C396 1.419 . S
C395 C390 1.425 . S
C395 C392 1.409 . S
C395 C393 1.415 . S
C396 H386 0.930 . S
C396 C394 1.419 . S
C396 C397 1.362 . S
C397 H387 0.915 1_545 S
C397 C390 1.409 . S
C397 C396 1.362 . S
H398 C404 0.930 . S
H399 C407 0.930 . S
H400 C408 0.930 . S
H401 C409 0.930 . S
H402 C412 0.930 . S
H403 C413 0.930 . S
C404 H398 0.930 . S
C404 C405 1.355 . S
C404 C406 1.415 . S
C405 C404 1.355 . S
C405 C407 1.419 . S
C406 C404 1.415 . S
C406 C411 1.425 . S
C406 C413 1.409 . S
C407 H399 0.930 . S
C407 C405 1.419 . S
C407 C408 1.362 . S
C408 H400 0.930 . S
C408 C407 1.362 . S
C408 C411 1.409 . S
C409 H401 0.930 . S
C409 C410 1.355 . S
C409 C411 1.415 . S
C410 C409 1.355 . S
C410 C412 1.419 . S
C411 C406 1.425 . S
C411 C408 1.409 . S
C411 C409 1.415 . S
C412 H402 0.930 . S
C412 C410 1.419 . S
C412 C413 1.362 . S
C413 H403 0.930 . S
C413 C406 1.409 . S
C413 C412 1.362 . S
H414 C420 0.930 . S
H415 C423 0.930 . S
H416 C424 0.930 . S
H417 C425 0.930 . S
H418 C428 0.930 . S
H419 C429 0.930 . S
C420 H414 0.930 . S
C420 C421 1.355 . S
C420 C422 1.415 . S
C421 C420 1.355 . S
C421 C423 1.419 . S
C422 C420 1.415 . S
C422 C427 1.425 . S
C422 C429 1.409 . S
C423 H415 0.930 . S
C423 C421 1.419 . S
C423 C424 1.362 . S
C424 H416 0.930 . S
C424 C423 1.362 . S
C424 C427 1.409 . S
C425 H417 0.930 . S
C425 C426 1.355 . S
C425 C427 1.415 . S
C426 C425 1.355 . S
C426 C428 1.419 . S
C427 C422 1.425 . S
C427 C424 1.409 . S
C427 C425 1.415 . S
C428 H418 0.930 . S
C428 C426 1.419 . S
C428 C429 1.362 . S
C429 H419 0.930 . S
C429 C422 1.409 . S
C429 C428 1.362 . S
H430 C436 0.930 . S
H431 C439 0.930 . S
H432 C440 0.930 1_554 S
H433 C441 0.930 . S
H434 C444 0.930 . S
H435 C445 0.930 . S
C436 H430 0.930 . S
C436 C437 1.355 . S
C436 C438 1.415 . S
C437 C436 1.355 . S
C437 C439 1.419 . S
C438 C436 1.415 . S
C438 C443 1.425 1_556 S
C438 C445 1.409 . S
C439 H431 0.930 . S
C439 C437 1.419 . S
C439 C440 1.362 . S
C440 H432 0.930 1_556 S
C440 C439 1.362 . S
C440 C443 1.409 1_556 S
C441 H433 0.930 . S
C441 C442 1.355 . S
C441 C443 1.415 . S
C442 C441 1.355 . S
C442 C444 1.419 . S
C443 C438 1.425 1_554 S
C443 C440 1.409 1_554 S
C443 C441 1.415 . S
C444 H434 0.930 . S
C444 C442 1.419 . S
C444 C445 1.362 1_554 S
C445 H435 0.930 . S
C445 C438 1.409 . S
C445 C444 1.362 1_556 S
H446 C452 0.930 1_655 S
H447 C455 0.930 . S
H448 C456 0.930 . S
H449 C457 0.930 . S
H450 C460 0.930 . S
H451 C461 0.930 . S
C452 H446 0.930 1_455 S
C452 C453 1.355 . S
C452 C454 1.415 . S
C453 C452 1.355 . S
C453 C455 1.419 . S
C454 C452 1.415 . S
C454 C459 1.425 . S
C454 C461 1.409 1_455 S
C455 H447 0.930 . S
C455 C453 1.419 . S
C455 C456 1.362 . S
C456 H448 0.930 . S
C456 C455 1.362 . S
C456 C459 1.409 . S
C457 H449 0.930 . S
C457 C458 1.355 . S
C457 C459 1.415 . S
C458 C457 1.355 . S
C458 C460 1.419 1_455 S
C459 C454 1.425 . S
C459 C456 1.409 . S
C459 C457 1.415 . S
C460 H450 0.930 . S
C460 C458 1.419 1_655 S
C460 C461 1.362 . S
C461 H451 0.930 . S
C461 C454 1.409 1_655 S
C461 C460 1.362 . S
C181 C8 2.067 . S
C186 C166 2.117 . S
C197 C26 1.409 . S
C202 C128 1.371 . S
C213 C48 1.586 . S
C218 C147 1.636 . S
C229 C19 1.770 . S
C234 C161 1.758 . S
C250 C123 1.351 . S
C245 C36 1.383 . S
C266 C142 1.537 . S
C261 C59 1.550 . S
C277 C28 1.576 . S
C282 C90 1.616 . S
C293 C46 1.132 . S
C298 C104 1.106 1_655 S
C309 C16 1.387 . S
C314 C66 1.340 . S
C330 C85 1.516 . S
C325 C39 1.540 . S
C346 C109 1.049 . S
C341 C56 1.077 . S
C357 C6 1.475 . S
C362 C71 1.449 . S
C378 C100 1.470 . S
C373 C9 1.499 . S
C389 C21 1.579 . S
C394 C62 1.556 . S
C405 C49 1.536 . S
C410 C81 1.545 . S
C426 C138 1.517 . S
C421 C29 1.529 . S
C442 C157 1.642 . S
C437 C41 1.591 . S
C453 C1 1.501 . S
C458 C119 1.536 . S
