# Generated by pormake.
# Topology ctn, (3,4)-cn, num edge types: 1
# Building blocks:
#     Node 0, Type 0, BuildingBlock: BETDAH_clean_linker_0, # of connection points: 3
#     Node 1, Type 0, BuildingBlock: BETDAH_clean_linker_0, # of connection points: 3
#     Node 2, Type 0, BuildingBlock: BETDAH_clean_linker_0, # of connection points: 3
#     Node 3, Type 0, BuildingBlock: BETDAH_clean_linker_0, # of connection points: 3
#     Node 4, Type 0, BuildingBlock: BETDAH_clean_linker_0, # of connection points: 3
#     Node 5, Type 0, BuildingBlock: BETDAH_clean_linker_0, # of connection points: 3
#     Node 6, Type 0, BuildingBlock: BETDAH_clean_linker_0, # of connection points: 3
#     Node 7, Type 0, BuildingBlock: BETDAH_clean_linker_0, # of connection points: 3
#     Node 8, Type 0, BuildingBlock: BETDAH_clean_linker_0, # of connection points: 3
#     Node 9, Type 0, BuildingBlock: BETDAH_clean_linker_0, # of connection points: 3
#     Node 10, Type 0, BuildingBlock: BETDAH_clean_linker_0, # of connection points: 3
#     Node 11, Type 0, BuildingBlock: BETDAH_clean_linker_0, # of connection points: 3
#     Node 12, Type 0, BuildingBlock: BETDAH_clean_linker_0, # of connection points: 3
#     Node 13, Type 0, BuildingBlock: BETDAH_clean_linker_0, # of connection points: 3
#     Node 14, Type 0, BuildingBlock: BETDAH_clean_linker_0, # of connection points: 3
#     Node 15, Type 0, BuildingBlock: BETDAH_clean_linker_0, # of connection points: 3
#     Node 16, Type 1, BuildingBlock: TATPOV_clean_sbu_0, # of connection points: 4
#     Node 17, Type 1, BuildingBlock: TATPOV_clean_sbu_0, # of connection points: 4
#     Node 18, Type 1, BuildingBlock: TATPOV_clean_sbu_0, # of connection points: 4
#     Node 19, Type 1, BuildingBlock: TATPOV_clean_sbu_0, # of connection points: 4
#     Node 20, Type 1, BuildingBlock: TATPOV_clean_sbu_0, # of connection points: 4
#     Node 21, Type 1, BuildingBlock: TATPOV_clean_sbu_0, # of connection points: 4
#     Node 22, Type 1, BuildingBlock: TATPOV_clean_sbu_0, # of connection points: 4
#     Node 23, Type 1, BuildingBlock: TATPOV_clean_sbu_0, # of connection points: 4
#     Node 24, Type 1, BuildingBlock: TATPOV_clean_sbu_0, # of connection points: 4
#     Node 25, Type 1, BuildingBlock: TATPOV_clean_sbu_0, # of connection points: 4
#     Node 26, Type 1, BuildingBlock: TATPOV_clean_sbu_0, # of connection points: 4
#     Node 27, Type 1, BuildingBlock: TATPOV_clean_sbu_0, # of connection points: 4
#     Edge 28, Type (0, 1), BuildingBlock: OJICUG_clean_linker_0, # of connection points: 2
#     Edge 29, Type (0, 1), BuildingBlock: OJICUG_clean_linker_0, # of connection points: 2
#     Edge 30, Type (0, 1), BuildingBlock: OJICUG_clean_linker_0, # of connection points: 2
#     Edge 31, Type (0, 1), BuildingBlock: OJICUG_clean_linker_0, # of connection points: 2
#     Edge 32, Type (0, 1), BuildingBlock: OJICUG_clean_linker_0, # of connection points: 2
#     Edge 33, Type (0, 1), BuildingBlock: OJICUG_clean_linker_0, # of connection points: 2
#     Edge 34, Type (0, 1), BuildingBlock: OJICUG_clean_linker_0, # of connection points: 2
#     Edge 35, Type (0, 1), BuildingBlock: OJICUG_clean_linker_0, # of connection points: 2
#     Edge 36, Type (0, 1), BuildingBlock: OJICUG_clean_linker_0, # of connection points: 2
#     Edge 37, Type (0, 1), BuildingBlock: OJICUG_clean_linker_0, # of connection points: 2
#     Edge 38, Type (0, 1), BuildingBlock: OJICUG_clean_linker_0, # of connection points: 2
#     Edge 39, Type (0, 1), BuildingBlock: OJICUG_clean_linker_0, # of connection points: 2
#     Edge 40, Type (0, 1), BuildingBlock: OJICUG_clean_linker_0, # of connection points: 2
#     Edge 41, Type (0, 1), BuildingBlock: OJICUG_clean_linker_0, # of connection points: 2
#     Edge 42, Type (0, 1), BuildingBlock: OJICUG_clean_linker_0, # of connection points: 2
#     Edge 43, Type (0, 1), BuildingBlock: OJICUG_clean_linker_0, # of connection points: 2
#     Edge 44, Type (0, 1), BuildingBlock: OJICUG_clean_linker_0, # of connection points: 2
#     Edge 45, Type (0, 1), BuildingBlock: OJICUG_clean_linker_0, # of connection points: 2
#     Edge 46, Type (0, 1), BuildingBlock: OJICUG_clean_linker_0, # of connection points: 2
#     Edge 47, Type (0, 1), BuildingBlock: OJICUG_clean_linker_0, # of connection points: 2
#     Edge 48, Type (0, 1), BuildingBlock: OJICUG_clean_linker_0, # of connection points: 2
#     Edge 49, Type (0, 1), BuildingBlock: OJICUG_clean_linker_0, # of connection points: 2
#     Edge 50, Type (0, 1), BuildingBlock: OJICUG_clean_linker_0, # of connection points: 2
#     Edge 51, Type (0, 1), BuildingBlock: OJICUG_clean_linker_0, # of connection points: 2
#     Edge 52, Type (0, 1), BuildingBlock: OJICUG_clean_linker_0, # of connection points: 2
#     Edge 53, Type (0, 1), BuildingBlock: OJICUG_clean_linker_0, # of connection points: 2
#     Edge 54, Type (0, 1), BuildingBlock: OJICUG_clean_linker_0, # of connection points: 2
#     Edge 55, Type (0, 1), BuildingBlock: OJICUG_clean_linker_0, # of connection points: 2
#     Edge 56, Type (0, 1), BuildingBlock: OJICUG_clean_linker_0, # of connection points: 2
#     Edge 57, Type (0, 1), BuildingBlock: OJICUG_clean_linker_0, # of connection points: 2
#     Edge 58, Type (0, 1), BuildingBlock: OJICUG_clean_linker_0, # of connection points: 2
#     Edge 59, Type (0, 1), BuildingBlock: OJICUG_clean_linker_0, # of connection points: 2
#     Edge 60, Type (0, 1), BuildingBlock: OJICUG_clean_linker_0, # of connection points: 2
#     Edge 61, Type (0, 1), BuildingBlock: OJICUG_clean_linker_0, # of connection points: 2
#     Edge 62, Type (0, 1), BuildingBlock: OJICUG_clean_linker_0, # of connection points: 2
#     Edge 63, Type (0, 1), BuildingBlock: OJICUG_clean_linker_0, # of connection points: 2
#     Edge 64, Type (0, 1), BuildingBlock: OJICUG_clean_linker_0, # of connection points: 2
#     Edge 65, Type (0, 1), BuildingBlock: OJICUG_clean_linker_0, # of connection points: 2
#     Edge 66, Type (0, 1), BuildingBlock: OJICUG_clean_linker_0, # of connection points: 2
#     Edge 67, Type (0, 1), BuildingBlock: OJICUG_clean_linker_0, # of connection points: 2
#     Edge 68, Type (0, 1), BuildingBlock: OJICUG_clean_linker_0, # of connection points: 2
#     Edge 69, Type (0, 1), BuildingBlock: OJICUG_clean_linker_0, # of connection points: 2
#     Edge 70, Type (0, 1), BuildingBlock: OJICUG_clean_linker_0, # of connection points: 2
#     Edge 71, Type (0, 1), BuildingBlock: OJICUG_clean_linker_0, # of connection points: 2
#     Edge 72, Type (0, 1), BuildingBlock: OJICUG_clean_linker_0, # of connection points: 2
#     Edge 73, Type (0, 1), BuildingBlock: OJICUG_clean_linker_0, # of connection points: 2
#     Edge 74, Type (0, 1), BuildingBlock: OJICUG_clean_linker_0, # of connection points: 2
#     Edge 75, Type (0, 1), BuildingBlock: OJICUG_clean_linker_0, # of connection points: 2
# Relax obj value: 0.049
# Max RMSD: 0.161
# Mean RMSD: 0.095
data_MOF--net-ctn--node1-TATPOV_clean_sbu_0--node2-BETDAH_clean_linker_0--edge1-OJICUG_clean_linker_0
_symmetry_space_group_name_H-M    P1
_symmetry_Int_Tables_number       1
_symmetry_cell_setting            triclinic
loop_
_symmetry_equiv_pos_as_xyz
'x, y, z'
_cell_length_a     38.489279
_cell_length_b     38.574321
_cell_length_c     39.17362
_cell_angle_alpha  100.44038
_cell_angle_beta   92.007502
_cell_angle_gamma 96.52393
loop_
_atom_site_label
_atom_site_type_symbol
_atom_site_fract_x
_atom_site_fract_y
_atom_site_fract_z
_atom_type_partial_charge
H0 H 0.08095 0.98624 0.10461 0.0
H1 H 0.08504 0.0242 0.00766 0.0
H2 H 0.99333 0.03132 0.06686 0.0
C3 C 0.06884 0.99863 0.08531 0.0
C4 C 0.03499 0.00852 0.08991 0.0
C5 C 0.0871 1.00383 0.05572 0.0
C6 C 0.07145 0.02033 0.03069 0.0
C7 C 0.03772 0.03086 0.03518 0.0
C8 C 0.01975 0.02436 0.06441 0.0
N9 N 0.0194 0.04507 0.00971 0.0
C10 C 0.03359 0.06755 0.9882 0.0
H11 H 0.30629 0.67365 0.29002 0.0
H12 H 0.31399 0.75242 0.22415 0.0
H13 H 0.21566 0.68984 0.23092 0.0
C14 C 0.29459 0.68731 0.27158 0.0
C15 C 0.25898 0.67794 0.26144 0.0
C16 C 0.31507 0.71399 0.25837 0.0
C17 C 0.29884 0.73189 0.23476 0.0
C18 C 0.26279 0.72327 0.22508 0.0
C19 C 0.24335 0.6963 0.23842 0.0
N20 N 0.2445 0.74128 0.20277 0.0
C21 C 0.25909 0.76488 0.18263 0.0
H22 H 0.04725 0.37664 0.07337 0.0
H23 H 0.06379 0.49068 0.10256 0.0
H24 H 0.02308 0.44283 1.0 0.0
C25 C 0.04597 0.40261 0.06687 0.0
C26 C 0.03372 0.40562 0.03335 0.0
C27 C 0.05717 0.43319 0.09193 0.0
C28 C 0.05576 0.46682 0.08338 0.0
C29 C 0.04251 0.4702 0.0508 0.0
C30 C 0.03169 0.43972 0.02577 0.0
N31 N 0.04066 0.50464 0.04369 0.0
C32 C 0.01237 0.51266 0.02497 0.0
H33 H 0.81717 0.77775 0.16278 0.0
H34 H 0.74979 0.68575 0.17756 0.0
H35 H 0.76259 0.77856 0.25764 0.0
C36 C 0.79922 0.76509 0.17877 0.0
C37 C 0.79234 0.78309 0.21208 0.0
C38 C 0.78313 0.73043 0.1659 0.0
C39 C 0.76137 0.71294 0.18693 0.0
C40 C 0.75407 0.73012 0.21986 0.0
C41 C 0.76884 0.76542 0.23217 0.0
N42 N 0.7333 0.71048 0.24066 0.0
C43 C 0.70678 0.72388 0.26017 0.0
H44 H 0.11369 0.02647 0.39988 0.0
H45 H 0.1475 0.04 0.50769 0.0
H46 H 0.04158 0.99803 0.47552 0.0
C47 C 0.10794 0.02391 0.42624 0.0
C48 C 0.07387 0.01078 0.43388 0.0
C49 C 0.13451 0.03495 0.45278 0.0
C50 C 0.12724 0.03172 0.48693 0.0
C51 C 0.09434 0.01742 0.49491 0.0
C52 C 0.06756 0.00707 0.46852 0.0
N53 N 0.08855 0.01645 0.53029 0.0
C54 C 0.06814 0.98925 0.54175 0.0
H55 H 0.29763 0.71538 0.83787 0.0
H56 H 0.22125 0.77084 0.79437 0.0
H57 H 0.25303 0.67581 0.73421 0.0
C58 C 0.28007 0.71772 0.81638 0.0
C59 C 0.27776 0.69198 0.78581 0.0
C60 C 0.26011 0.74642 0.81976 0.0
C61 C 0.23674 0.74886 0.79205 0.0
C62 C 0.23449 0.72345 0.76093 0.0
C63 C 0.25528 0.69549 0.75799 0.0
N64 N 0.21201 0.72499 0.73179 0.0
C65 C 0.18634 0.74761 0.73131 0.0
H66 H 0.89533 0.6057 0.54708 0.0
H67 H 0.95526 0.66377 0.48043 0.0
H68 H 0.92313 0.55229 0.44697 0.0
C69 C 0.90732 0.60645 0.52255 0.0
C70 C 0.90638 0.57514 0.49747 0.0
C71 C 0.92567 0.63825 0.51673 0.0
C72 C 0.94134 0.63916 0.48516 0.0
C73 C 0.94077 0.60836 0.46021 0.0
C74 C 0.92363 0.57622 0.46647 0.0
N75 N 0.95783 0.61056 0.42914 0.0
C76 C 0.97856 0.58538 0.41429 0.0
H77 H 0.9156 0.78462 0.84572 0.0
H78 H 0.86225 0.8774 0.84602 0.0
H79 H 0.84182 0.81257 0.92246 0.0
C80 C 0.89702 0.80215 0.85635 0.0
C81 C 0.87829 0.79403 0.88453 0.0
C82 C 0.89134 0.83182 0.84145 0.0
C83 C 0.8679 0.85473 0.85703 0.0
C84 C 0.85125 0.84828 0.88703 0.0
C85 C 0.85655 0.81815 0.9006 0.0
N86 N 0.82827 0.87126 0.90365 0.0
C87 C 0.80166 0.88282 0.88549 0.0
H88 H 0.43073 0.3023 0.33818 0.0
H89 H 0.36958 0.3591 0.27771 0.0
H90 H 0.31898 0.29709 0.3455 0.0
C91 C 0.40605 0.31095 0.33125 0.0
C92 C 0.37523 0.29741 0.34503 0.0
C93 C 0.40474 0.33411 0.30742 0.0
C94 C 0.37202 0.34359 0.29794 0.0
C95 C 0.34151 0.33118 0.31233 0.0
C96 C 0.3431 0.30847 0.33622 0.0
N97 N 0.30898 0.3364 0.2976 0.0
C98 C 0.28538 0.35588 0.31606 0.0
H99 H 0.55925 0.89377 0.56841 0.0
H100 H 0.54973 1.00086 0.61823 0.0
H101 H 0.50804 0.96321 0.5136 0.0
C102 C 0.54975 0.91905 0.56773 0.0
C103 C 0.53309 0.92505 0.5371 0.0
C104 C 0.55598 0.94635 0.59703 0.0
C105 C 0.54515 0.97959 0.59571 0.0
C106 C 0.52768 0.98573 0.56604 0.0
C107 C 0.52138 0.95838 0.53677 0.0
N108 N 0.51782 0.02012 0.56655 0.0
C109 C 0.49401 0.02871 0.54293 0.0
H110 H 0.32759 0.29562 0.67008 0.0
H111 H 0.27267 0.19965 0.69214 0.0
H112 H 0.2656 0.2984 0.76025 0.0
C113 C 0.30985 0.28257 0.68596 0.0
C114 C 0.29785 0.30222 0.71624 0.0
C115 C 0.30059 0.24567 0.67675 0.0
C116 C 0.27986 0.22815 0.69863 0.0
C117 C 0.2671 0.24698 0.72841 0.0
C118 C 0.27552 0.28408 0.73698 0.0
N119 N 0.24786 0.22729 0.75029 0.0
C120 C 0.21814 0.23733 0.76658 0.0
H121 H 0.806 0.1669 0.78266 0.0
H122 H 0.81961 0.24761 0.71911 0.0
H123 H 0.71802 0.19157 0.72533 0.0
C124 C 0.79567 0.18161 0.76437 0.0
C125 C 0.75971 0.17536 0.7548 0.0
C126 C 0.81795 0.20749 0.7518 0.0
C127 C 0.8032 0.22767 0.72934 0.0
C128 C 0.7669 0.22222 0.72045 0.0
C129 C 0.74571 0.19606 0.7331 0.0
N130 N 0.74995 0.24265 0.69963 0.0
C131 C 0.76568 0.26622 0.68013 0.0
H132 H 0.57981 0.4911 0.59661 0.0
H133 H 0.59156 0.51568 0.49441 0.0
H134 H 0.49932 0.53818 0.54835 0.0
C135 C 0.57008 0.50217 0.57515 0.0
C136 C 0.53719 0.51508 0.57671 0.0
C137 C 0.59002 0.50205 0.54564 0.0
C138 C 0.57709 0.51628 0.5177 0.0
C139 C 0.54494 0.53039 0.51918 0.0
C140 C 0.52507 0.52939 0.54849 0.0
N141 N 0.52938 0.53881 0.48877 0.0
C142 C 0.53466 0.57202 0.47912 0.0
H143 H 0.61433 0.53027 0.88183 0.0
H144 H 0.64729 0.45786 0.94505 0.0
H145 H 0.54193 0.44324 0.90115 0.0
C146 C 0.60869 0.50702 0.89357 0.0
C147 C 0.57474 0.48854 0.8897 0.0
C148 C 0.63497 0.49629 0.9139 0.0
C149 C 0.62712 0.46674 0.92987 0.0
C150 C 0.59377 0.44737 0.92476 0.0
C151 C 0.56781 0.45823 0.90469 0.0
N152 N 0.5865 0.41563 0.93782 0.0
C153 C 0.58888 0.41478 0.97309 0.0
H154 H 0.80506 0.19491 0.35059 0.0
H155 H 0.73504 0.24973 0.29745 0.0
H156 H 0.76715 0.15145 0.24534 0.0
C157 C 0.78923 0.19647 0.32761 0.0
C158 C 0.78837 0.16949 0.29811 0.0
C159 C 0.7704 0.22578 0.32764 0.0
C160 C 0.74944 0.22725 0.29783 0.0
C161 C 0.74858 0.2004 0.26801 0.0
C162 C 0.76827 0.17206 0.26834 0.0
N163 N 0.72906 0.20108 0.23675 0.0
C164 C 0.70329 0.22289 0.23333 0.0
H165 H 0.4091 0.10213 0.05143 0.0
H166 H 0.46347 0.15406 0.97683 0.0
H167 H 0.42986 0.04215 0.95165 0.0
C168 C 0.41967 0.10095 0.02601 0.0
C169 C 0.41652 0.06849 0.00231 0.0
C170 C 0.43691 0.13181 0.01698 0.0
C171 C 0.45019 0.1303 0.98398 0.0
C172 C 0.44852 0.09801 0.96083 0.0
C173 C 0.43187 0.06703 0.97004 0.0
N174 N 0.46328 0.09762 0.9282 0.0
C175 C 0.48468 0.07263 0.91429 0.0
Zn176 Zn 0.32633 0.86367 0.0181 0.0
Zn177 Zn 0.26649 0.89011 0.01988 0.0
O178 O 0.26691 0.86283 0.0623 0.0
O179 O 0.31762 0.84148 0.05975 0.0
O180 O 0.22083 0.91348 0.02222 0.0
O181 O 0.35489 0.91077 0.02266 0.0
O182 O 0.30511 0.93369 0.02228 0.0
C183 C 0.28912 0.84506 0.07435 0.0
C184 C 0.28372 0.83786 0.955 0.0
O185 O 0.26183 0.85673 0.97079 0.0
O186 O 0.31302 0.83638 0.97004 0.0
C187 C 0.21737 0.94042 0.04552 0.0
O188 O 0.24322 0.95251 0.06898 0.0
C189 C 0.3386 0.93749 0.02303 0.0
Zn190 Zn 0.09389 0.43035 0.30675 0.0
Zn191 Zn 0.13648 0.49116 0.2991 0.0
O192 O 0.09986 0.50989 0.33178 0.0
O193 O 0.06523 0.46234 0.33856 0.0
O194 O 0.16481 0.53505 0.28865 0.0
O195 O 0.13841 0.41382 0.3246 0.0
O196 O 0.17146 0.46249 0.31807 0.0
C197 C 0.07318 0.49577 0.34483 0.0
C198 C 0.09601 0.44079 0.23634 0.0
O199 O 0.11672 0.46793 0.25082 0.0
O200 O 0.08152 0.41978 0.25447 0.0
C201 C 0.18249 0.55971 0.31046 0.0
O202 O 0.18375 0.55751 0.34355 0.0
C203 C 0.1683 0.43194 0.32649 0.0
Zn204 Zn 0.84957 0.5782 0.90934 0.0
Zn205 Zn 0.83749 0.61121 0.97552 0.0
O206 O 0.87688 0.58231 0.98331 0.0
O207 O 0.88743 0.55445 0.93118 0.0
O208 O 0.83024 0.63756 0.02338 0.0
O209 O 0.86238 0.62714 0.89745 0.0
O210 O 0.85159 0.65186 0.95057 0.0
C211 C 0.89417 0.56126 0.96381 0.0
C212 C 0.77834 0.56268 0.93001 0.0
O213 O 0.79021 0.58225 0.95872 0.0
O214 O 0.7981 0.55699 0.90487 0.0
C215 C 0.80239 0.65185 0.02938 0.0
O216 O 0.77784 0.64799 0.00436 0.0
C217 C 0.86095 0.6547 0.92031 0.0
Zn218 Zn 0.87865 0.98436 0.32479 0.0
Zn219 Zn 0.91202 0.99313 0.26792 0.0
O220 O 0.88187 0.03527 0.27641 0.0
O221 O 0.85596 0.0289 0.32448 0.0
O222 O 0.93824 1.00127 0.22473 0.0
O223 O 0.9238 0.98564 0.35205 0.0
O224 O 0.95221 0.99583 0.30626 0.0
C225 C 0.86146 0.04598 0.30008 0.0
C226 C 0.86162 0.92462 0.26984 0.0
O227 O 0.88265 0.94288 0.25338 0.0
O228 O 0.85515 0.93694 0.30082 0.0
C229 C 0.95846 0.97992 0.20991 0.0
O230 O 0.96243 0.95117 0.22246 0.0
C231 C 0.95235 0.99146 0.33786 0.0
Zn232 Zn 0.34703 0.09861 0.41083 0.0
Zn233 Zn 0.3398 0.14294 0.47353 0.0
O234 O 0.37775 0.11324 0.48393 0.0
O235 O 0.38417 0.07607 0.4355 0.0
O236 O 0.33402 0.17395 0.51946 0.0
O237 O 0.361 0.14461 0.39222 0.0
O238 O 0.3528 0.17813 0.44243 0.0
C239 C 0.39252 0.08791 0.46745 0.0
C240 C 0.27712 0.09195 0.43669 0.0
O241 O 0.29164 0.11572 0.46145 0.0
O242 O 0.29478 0.07961 0.41152 0.0
C243 C 0.33484 0.16167 0.54741 0.0
O244 O 0.33989 0.12833 0.54603 0.0
C245 C 0.36073 0.17513 0.41092 0.0
Zn246 Zn 0.37791 0.51329 0.80994 0.0
Zn247 Zn 0.40574 0.51681 0.75095 0.0
O248 O 0.37569 0.56002 0.75912 0.0
O249 O 0.35221 0.5549 0.80862 0.0
O250 O 0.43069 0.52151 0.70613 0.0
O251 O 0.42384 0.51909 0.83654 0.0
O252 O 0.44827 0.51833 0.78659 0.0
C253 C 0.35582 0.57097 0.78332 0.0
C254 C 0.35752 0.44974 0.76046 0.0
O255 O 0.37563 0.4667 0.74057 0.0
O256 O 0.35461 0.46408 0.79176 0.0
C257 C 0.45166 0.49941 0.69454 0.0
O258 O 0.45563 0.4732 0.71103 0.0
C259 C 0.45105 0.5193 0.81938 0.0
Zn260 Zn 0.83207 0.36596 0.51669 0.0
Zn261 Zn 0.76941 0.38673 0.51524 0.0
O262 O 0.77157 0.36225 0.55916 0.0
O263 O 0.82487 0.34678 0.56032 0.0
O264 O 0.72239 0.40762 0.5164 0.0
O265 O 0.85717 0.41422 0.51783 0.0
O266 O 0.80504 0.43218 0.51576 0.0
C267 C 0.79533 0.34789 0.57336 0.0
C268 C 0.79046 0.33177 0.45454 0.0
O269 O 0.76701 0.35006 0.46813 0.0
O270 O 0.82007 0.33416 0.47047 0.0
C271 C 0.71744 0.43289 0.54098 0.0
O272 O 0.74217 0.44389 0.56581 0.0
C273 C 0.83839 0.43884 0.51656 0.0
Zn274 Zn 0.60685 0.92456 0.80323 0.0
Zn275 Zn 0.64764 0.98745 0.79996 0.0
O276 O 0.60981 0.00412 0.83199 0.0
O277 O 0.57612 0.95478 0.83522 0.0
O278 O 0.67881 0.03157 0.79496 0.0
O279 O 0.65079 0.90769 0.82264 0.0
O280 O 0.6816 0.95858 0.81953 0.0
C281 C 0.58297 0.98831 0.84332 0.0
C282 C 0.60954 0.9407 0.7342 0.0
O283 O 0.62908 0.968 0.75031 0.0
O284 O 0.59654 0.91731 0.75062 0.0
C285 C 0.66761 0.06101 0.79337 0.0
O286 O 0.63408 0.06373 0.79631 0.0
C287 C 0.67972 0.92773 0.82701 0.0
Zn288 Zn 0.02195 0.28498 0.83733 0.0
Zn289 Zn 0.02082 0.22592 0.86294 0.0
O290 O 0.06785 0.22946 0.83782 0.0
O291 O 0.06918 0.27987 0.81874 0.0
O292 O 0.02087 0.18085 0.88451 0.0
O293 O 0.01716 0.31335 0.8844 0.0
O294 O 0.02085 0.26532 0.90677 0.0
C295 C 0.08349 0.2527 0.82228 0.0
C296 C 0.96141 0.23834 0.81099 0.0
O297 O 0.97398 0.2192 0.83085 0.0
O298 O 0.97833 0.26756 0.80791 0.0
C299 C 0.04474 0.17913 0.90745 0.0
O300 O 0.0696 0.20598 0.91592 0.0
C301 C 0.01812 0.29842 0.91053 0.0
Zn302 Zn 0.52201 0.79827 0.33605 0.0
Zn303 Zn 0.51801 0.74308 0.36899 0.0
O304 O 0.56392 0.74044 0.34232 0.0
O305 O 0.56574 0.78483 0.31386 0.0
O306 O 0.51578 0.70007 0.39372 0.0
O307 O 0.5259 0.83166 0.38163 0.0
O308 O 0.52081 0.78673 0.40945 0.0
C309 C 0.57917 0.75866 0.32171 0.0
C310 C 0.45794 0.75356 0.31723 0.0
O311 O 0.47129 0.73543 0.33754 0.0
O312 O 0.47467 0.78216 0.31213 0.0
C313 C 0.54024 0.69627 0.4151 0.0
O314 O 0.56758 0.72065 0.42155 0.0
C315 C 0.52426 0.82014 0.40985 0.0
Zn316 Zn 0.94238 0.8451 0.63882 0.0
Zn317 Zn 0.00654 0.82718 0.6578 0.0
O318 O 0.01865 0.86885 0.63192 0.0
O319 O 0.96743 0.88164 0.61423 0.0
O320 O 0.0537 0.81321 0.67269 0.0
O321 O 0.93145 0.85764 0.68947 0.0
O322 O 0.97999 0.8363 0.70251 0.0
C323 C 1.00058 0.8869 0.61536 0.0
C324 C 0.9535 0.77253 0.61053 0.0
O325 O 0.98393 0.78236 0.62534 0.0
O326 O 0.93055 0.79385 0.61314 0.0
C327 C 0.06455 0.81396 0.70398 0.0
O328 O 0.04516 0.8257 0.72947 0.0
C329 C 0.95187 0.84898 0.71164 0.0
Zn330 Zn 0.48458 0.34439 0.1268 0.0
Zn331 Zn 0.54183 0.31668 0.14505 0.0
O332 O 0.55933 0.35088 0.11212 0.0
O333 O 0.51304 0.37641 0.10065 0.0
O334 O 0.58572 0.29919 0.16228 0.0
O335 O 0.47455 0.36129 0.1766 0.0
O336 O 0.51957 0.33536 0.19073 0.0
C337 C 0.54502 0.37277 0.09698 0.0
C338 C 0.48207 0.26781 0.10265 0.0
O339 O 0.51222 0.27206 0.1184 0.0
O340 O 0.46532 0.29421 0.1021 0.0
C341 C 0.58414 0.28228 0.18735 0.0
O342 O 0.55382 0.27585 0.2008 0.0
C343 C 0.49373 0.35222 0.19952 0.0
C344 C 0.2991 0.78607 0.86654 0.0
C345 C 0.26501 0.77371 0.85231 0.0
H346 H 0.33145 0.81575 0.90958 0.0
C347 C 0.23648 0.78541 0.87083 0.0
H348 H 0.32165 0.77828 0.85263 0.0
C349 C 0.24213 0.80744 0.90388 0.0
C350 C 0.27637 0.81786 0.91884 0.0
H351 H 0.20989 0.77632 0.86048 0.0
H352 H 0.2198 0.81508 0.91822 0.0
C353 C 0.30468 0.80761 0.8993 0.0
C354 C 0.99518 0.52558 0.39375 0.0
C355 C 1.00289 0.56252 0.3986 0.0
H356 H 0.01171 0.4752 0.37308 0.0
C357 C 0.03438 0.57756 0.38763 0.0
H358 H 0.97093 0.51366 0.40229 0.0
C359 C 0.05776 0.55583 0.37107 0.0
C360 C 0.04992 0.51864 0.36522 0.0
H361 H 0.04069 0.60616 0.39139 0.0
H362 H 0.08163 0.56822 0.36227 0.0
C363 C 0.01856 0.50372 0.37717 0.0
C364 C 0.87601 0.7547 0.9293 0.0
C365 C 0.87823 0.75865 0.89446 0.0
H366 H 0.86883 0.71876 0.96482 0.0
C367 C 0.87711 0.72803 0.86848 0.0
H368 H 0.87726 0.77771 0.94997 0.0
C369 C 0.87266 0.69429 0.87699 0.0
C370 C 0.86888 0.69036 0.91163 0.0
H371 H 0.87812 0.72999 0.84129 0.0
H372 H 0.87093 0.6713 0.85624 0.0
C373 C 0.87126 0.72091 0.93779 0.0
C374 C 0.01641 0.97675 0.40756 0.0
C375 C 0.04451 1.00318 0.40644 0.0
H376 H 0.96541 0.95257 0.38684 0.0
C377 C 0.0432 0.02359 0.37999 0.0
H378 H 0.01666 0.95974 0.42669 0.0
C379 C 0.01412 0.01852 0.35626 0.0
C380 C 0.9854 0.99355 0.35896 0.0
H381 H 0.0639 0.0446 0.37839 0.0
H382 H 0.01334 0.03541 0.33703 0.0
C383 C 0.98709 0.97235 0.38444 0.0
C384 C 0.31067 0.2387 0.61309 0.0
C385 C 0.3121 0.2253 0.64409 0.0
H386 H 0.31673 0.22916 0.55824 0.0
C387 C 0.32285 0.19153 0.64328 0.0
H388 H 0.30217 0.26447 0.61279 0.0
C389 C 0.33086 0.17113 0.61197 0.0
C390 C 0.32845 0.18413 0.58083 0.0
H391 H 0.32482 0.1807 0.66683 0.0
H392 H 0.33853 0.14501 0.61217 0.0
C393 C 0.31881 0.21835 0.58179 0.0
C394 C 0.4937 0.53766 0.62023 0.0
C395 C 0.5147 0.51132 0.6067 0.0
H396 H 0.45735 0.55473 0.65836 0.0
C397 C 0.5138 0.48084 0.62189 0.0
H398 H 0.49378 0.56159 0.60943 0.0
C399 C 0.49318 0.47706 0.65002 0.0
C400 C 0.47251 0.50348 0.66379 0.0
H401 H 0.52879 0.4595 0.61181 0.0
H402 H 0.49347 0.45323 0.66095 0.0
C403 C 0.47284 0.53377 0.64839 0.0
C404 C 0.80808 0.29405 0.64414 0.0
C405 C 0.77438 0.2899 0.65617 0.0
H406 H 0.84124 0.31609 0.60883 0.0
C407 C 0.74797 0.30675 0.64271 0.0
H408 H 0.82874 0.28111 0.65412 0.0
C409 C 0.75487 0.32675 0.61666 0.0
C410 C 0.78838 0.33011 0.60356 0.0
H411 H 0.72167 0.30364 0.65167 0.0
H412 H 0.73374 0.33865 0.6061 0.0
C413 C 0.81506 0.31406 0.61815 0.0
C414 C 0.56122 0.91277 0.6457 0.0
C415 C 0.5737 0.94092 0.6294 0.0
H416 H 0.5628 0.8905 0.69197 0.0
C417 C 0.60091 0.96628 0.64609 0.0
H418 H 0.54018 0.89293 0.63331 0.0
C419 C 0.61383 0.96496 0.67943 0.0
C420 C 0.59971 0.9383 0.69691 0.0
H421 H 0.61131 0.98796 0.6338 0.0
H422 H 0.6339 0.98578 0.69201 0.0
C423 C 0.57408 0.9115 0.67928 0.0
C424 C 0.87369 0.24898 0.76956 0.0
C425 C 0.85592 0.21439 0.764 0.0
H426 H 0.92045 0.28334 0.7883 0.0
C427 C 0.87416 0.18697 0.77253 0.0
H428 H 0.86074 0.27101 0.7641 0.0
C429 C 0.90845 0.19431 0.78762 0.0
C430 C 0.92572 0.22906 0.79367 0.0
H431 H 0.86189 0.15975 0.76787 0.0
H432 H 0.92141 0.17284 0.79453 0.0
C433 C 0.90808 0.25612 0.78384 0.0
C434 C 0.52204 0.86121 0.50557 0.0
C435 C 0.53011 0.8976 0.50479 0.0
H436 H 0.51385 0.80795 0.47618 0.0
C437 C 0.53654 0.90785 0.47277 0.0
H438 H 0.51677 0.85245 0.52983 0.0
C439 C 0.53462 0.88259 0.44228 0.0
C440 C 0.52646 0.84624 0.44288 0.0
H441 H 0.54371 0.93548 0.47123 0.0
H442 H 0.53985 0.89172 0.41819 0.0
C443 C 0.52029 0.83573 0.47488 0.0
C444 C 0.16913 0.21626 0.79926 0.0
C445 C 0.18523 0.24219 0.78211 0.0
H446 H 0.12415 0.19907 0.82549 0.0
C447 C 0.16822 0.27153 0.77841 0.0
H448 H 0.18193 0.19324 0.80208 0.0
C449 C 0.13522 0.27486 0.79157 0.0
C450 C 0.11861 0.2488 0.80861 0.0
H451 H 0.18022 0.29164 0.76499 0.0
H452 H 0.12265 0.29783 0.78816 0.0
C453 C 0.13607 0.21952 0.81247 0.0
C454 C 0.56481 0.63028 0.471 0.0
C455 C 0.53585 0.60403 0.46428 0.0
H456 H 0.58892 0.68001 0.46083 0.0
C457 C 0.50812 0.60828 0.44176 0.0
H458 H 0.58657 0.62745 0.48818 0.0
C459 C 0.50935 0.63824 0.42595 0.0
C460 C 0.53843 0.66463 0.43234 0.0
H461 H 0.48554 0.58822 0.4361 0.0
H462 H 0.48759 0.64057 0.40856 0.0
C463 C 0.56608 0.66031 0.45523 0.0
C464 C 0.91586 0.87139 0.80052 0.0
C465 C 0.90843 0.83727 0.80876 0.0
H466 H 0.93515 0.90197 0.76278 0.0
C467 C 0.91686 0.80783 0.78487 0.0
H468 H 0.91035 0.89485 0.8182 0.0
C469 C 0.9327 0.81233 0.75432 0.0
C470 C 0.93925 0.84611 0.746 0.0
H471 H 0.91044 0.78093 0.789 0.0
H472 H 0.93844 0.78908 0.73636 0.0
C473 C 0.93053 0.87567 0.76905 0.0
C474 C 0.01436 0.95719 0.55895 0.0
C475 C 0.05089 0.96239 0.55866 0.0
H476 H 0.96969 0.92928 0.57729 0.0
C477 C 0.07102 0.94295 0.57695 0.0
H478 H 0.99847 0.97226 0.54517 0.0
C479 C 0.05477 0.91851 0.59555 0.0
C480 C 0.01805 0.9132 0.59617 0.0
H481 H 0.09936 0.94695 0.5772 0.0
H482 H 0.07098 0.90388 0.60946 0.0
C483 C 0.99803 0.93274 0.57751 0.0
C484 C 0.13769 0.781 0.75264 0.0
C485 C 0.15765 0.7673 0.72532 0.0
H486 H 0.09259 0.80683 0.76739 0.0
C487 C 0.14805 0.77041 0.69126 0.0
H488 H 0.14464 0.77861 0.77909 0.0
C489 C 0.11831 0.78635 0.6844 0.0
C490 C 0.09757 0.79944 0.71154 0.0
H491 H 0.16311 0.75977 0.6698 0.0
H492 H 0.11122 0.78776 0.65772 0.0
C493 C 0.10792 0.79705 0.74584 0.0
C494 C 0.9039 0.68976 0.55471 0.0
C495 C 0.93146 0.67023 0.54418 0.0
H496 H 0.88928 0.73794 0.58397 0.0
C497 C 0.96576 0.68327 0.55726 0.0
H498 H 0.8773 0.68013 0.54464 0.0
C499 C 0.97267 0.71597 0.57974 0.0
C500 C 0.94544 0.73652 0.58918 0.0
H501 H 0.98737 0.66851 0.54929 0.0
H502 H 0.99956 0.72563 0.58875 0.0
C503 C 0.91086 0.72283 0.57693 0.0
C504 C 0.81976 0.82981 0.26206 0.0
C505 C 0.81055 0.81956 0.2263 0.0
H506 H 0.84283 0.87066 0.30349 0.0
C507 C 0.81954 0.84424 0.20449 0.0
H508 H 0.81448 0.81151 0.27971 0.0
C509 C 0.83704 0.87815 0.21819 0.0
C510 C 0.84523 0.88836 0.25406 0.0
H511 H 0.81257 0.8377 0.17687 0.0
H512 H 0.84327 0.89666 0.20091 0.0
C513 C 0.83645 0.86376 0.27574 0.0
C514 C 0.80716 0.12147 0.32749 0.0
C515 C 0.80797 0.1384 0.29862 0.0
H516 H 0.82314 0.0793 0.35053 0.0
C517 C 0.82712 0.12503 0.27021 0.0
H518 H 0.79236 0.13081 0.34962 0.0
C519 C 0.84492 0.09532 0.27068 0.0
C520 C 0.84371 0.07817 0.29946 0.0
H521 H 0.82852 0.13768 0.24769 0.0
H522 H 0.85933 0.08562 0.24838 0.0
C523 C 0.82468 0.09174 0.32787 0.0
C524 C 0.3624 0.0355 0.02073 0.0
C525 C 0.39723 0.036 0.0109 0.0
H526 H 0.31614 1.00377 0.03202 0.0
C527 C 0.41302 0.00466 0.00731 0.0
H528 H 0.34963 0.0594 0.0235 0.0
C529 C 0.39421 0.97318 0.01262 0.0
C530 C 0.35888 0.9721 0.02108 0.0
H531 H 0.43989 0.00443 0.99995 0.0
H532 H 0.40718 0.94939 0.00896 0.0
C533 C 0.34325 1.00371 0.02548 0.0
C534 C 0.22584 0.36071 0.33521 0.0
C535 C 0.25835 0.37715 0.32802 0.0
H536 H 0.17154 0.36564 0.34132 0.0
C537 C 0.26239 0.41325 0.32611 0.0
H538 H 0.22233 0.3327 0.33648 0.0
C539 C 0.23344 0.43219 0.3287 0.0
C540 C 0.2 0.41506 0.3329 0.0
H541 H 0.28739 0.42619 0.32026 0.0
H542 H 0.23687 0.45948 0.32494 0.0
C543 C 0.19684 0.37959 0.33783 0.0
C544 C 0.18869 0.03504 0.41846 0.0
C545 C 0.16976 0.0511 0.44577 0.0
H546 H 0.23782 0.03523 0.3941 0.0
C547 C 0.18556 0.08188 0.46817 0.0
H548 H 0.17712 0.01123 0.40086 0.0
C549 C 0.22004 0.0954 0.46452 0.0
C550 C 0.23968 0.07859 0.43823 0.0
H551 H 0.17137 0.09524 0.48903 0.0
H552 H 0.23146 0.11879 0.48279 0.0
C553 C 0.22343 0.04868 0.41473 0.0
C554 C 0.70248 0.15187 0.77639 0.0
C555 C 0.73676 0.14685 0.76698 0.0
H556 H 0.65381 0.12883 0.7922 0.0
C557 C 0.74854 0.11385 0.768 0.0
H558 H 0.69275 0.17716 0.77651 0.0
C559 C 0.72635 0.0863 0.7774 0.0
C560 C 0.69177 0.09102 0.78581 0.0
H561 H 0.77462 0.1089 0.76054 0.0
H562 H 0.73611 0.06102 0.77723 0.0
C563 C 0.68021 0.12424 0.7856 0.0
C564 C 0.46062 0.02923 0.48781 0.0
C565 C 0.46851 0.04272 0.52325 0.0
H566 H 0.43014 0.03307 0.44199 0.0
C567 C 0.45175 0.07078 0.54011 0.0
H568 H 0.4735 0.00752 0.47447 0.0
C569 C 0.42723 0.08541 0.52183 0.0
C570 C 0.41898 0.07219 0.48623 0.0
H571 H 0.45766 0.0815 0.56751 0.0
H572 H 0.41472 0.1071 0.53574 0.0
C573 C 0.43593 0.04388 0.46936 0.0
C574 C 0.63021 0.46122 0.51375 0.0
C575 C 0.62328 0.48526 0.54362 0.0
H576 H 0.66488 0.42543 0.48952 0.0
C577 C 0.64769 0.49191 0.5723 0.0
H578 H 0.61179 0.45516 0.49133 0.0
C579 C 0.67807 0.47496 0.57126 0.0
C580 C 0.68482 0.45054 0.54163 0.0
H581 H 0.64336 0.5104 0.59563 0.0
H582 H 0.69618 0.48089 0.59392 0.0
C583 C 0.6605 0.44392 0.51283 0.0
C584 C 0.80826 0.26766 0.37378 0.0
C585 C 0.77462 0.2553 0.35839 0.0
H586 H 0.83944 0.30126 0.41543 0.0
C587 C 0.74577 0.27036 0.37345 0.0
H588 H 0.83112 0.25732 0.36242 0.0
C589 C 0.75054 0.29607 0.40428 0.0
C590 C 0.78424 0.30711 0.4204 0.0
H591 H 0.71951 0.2614 0.36209 0.0
H592 H 0.72786 0.30646 0.41596 0.0
C593 C 0.81299 0.29305 0.40425 0.0
C594 C 0.50248 0.01374 0.8908 0.0
C595 C 0.50996 0.05078 0.89862 0.0
H596 H 0.52 0.96463 0.86729 0.0
C597 C 0.54197 0.0671 0.89001 0.0
H598 H 0.47779 1.0008 0.89735 0.0
C599 C 0.5661 0.04668 0.87292 0.0
C600 C 0.55857 0.00949 0.86412 0.0
H601 H 0.5481 0.09575 0.89595 0.0
H602 H 0.59036 0.06016 0.86603 0.0
C603 C 0.52666 0.99318 0.87369 0.0
C604 C 0.38902 0.23661 0.3492 0.0
C605 C 0.37546 0.26781 0.36424 0.0
H606 H 0.39465 0.18254 0.35198 0.0
C607 C 0.35898 0.26901 0.39571 0.0
H608 H 0.40146 0.23496 0.32466 0.0
C609 C 0.35543 0.23922 0.41153 0.0
C610 C 0.36761 0.20745 0.39573 0.0
H611 H 0.34822 0.29275 0.40766 0.0
H612 H 0.34195 0.24071 0.43547 0.0
C613 C 0.38487 0.20658 0.36465 0.0
C614 C 0.54547 0.5033 0.83645 0.0
C615 C 0.54554 0.50145 0.87195 0.0
H616 H 0.51524 0.51041 0.79154 0.0
C617 C 0.51602 0.50929 0.89041 0.0
H618 H 0.56804 0.4973 0.82173 0.0
C619 C 0.48626 0.51714 0.87351 0.0
C620 C 0.48502 0.51688 0.8375 0.0
H621 H 0.51562 0.50834 0.91788 0.0
H622 H 0.46366 0.522 0.88858 0.0
C623 C 0.51531 0.5108 0.81925 0.0
C624 C 0.75956 0.69846 0.10719 0.0
C625 C 0.78858 0.71203 0.13039 0.0
H626 H 0.74125 0.66908 0.05687 0.0
C627 C 0.82231 0.70639 0.12003 0.0
H628 H 0.7333 0.70261 0.1147 0.0
C629 C 0.82686 0.68664 0.0872 0.0
C630 C 0.79777 0.67285 0.06401 0.0
H631 H 0.84501 0.71649 0.13765 0.0
H632 H 0.85313 0.68225 0.07993 0.0
C633 C 0.76413 0.67934 0.07417 0.0
C634 C 0.994 0.02586 0.13761 0.0
C635 C 0.01523 1.00134 0.12072 0.0
H636 H 0.95958 0.03853 0.1788 0.0
C637 C 0.01726 0.9697 0.13343 0.0
H638 H 0.99203 0.05068 0.1289 0.0
C639 C 0.99884 0.96286 0.1622 0.0
C640 C 0.97771 0.98738 0.17911 0.0
H641 H 0.03275 0.94985 0.12085 0.0
H642 H 1.00112 0.93817 0.17108 0.0
C643 C 0.97548 0.01896 0.1664 0.0
C644 C 0.30078 0.78961 0.14408 0.0
C645 C 0.26785 0.78798 0.15806 0.0
H646 H 0.33339 0.80915 0.10699 0.0
C647 C 0.24223 0.80669 0.14588 0.0
H648 H 0.32082 0.77519 0.15298 0.0
C649 C 0.24919 0.82618 0.11937 0.0
C650 C 0.28192 0.8271 0.10448 0.0
H651 H 0.21648 0.80552 0.15627 0.0
H652 H 0.2287 0.83971 0.10997 0.0
C653 C 0.30779 0.80901 0.11764 0.0
C654 C 0.05055 0.40886 0.1469 0.0
C655 C 0.06976 0.4308 0.12744 0.0
H656 H 0.04375 0.39478 0.19697 0.0
C657 C 0.09947 0.4532 0.14323 0.0
H658 H 0.02744 0.39144 0.13534 0.0
C659 C 0.10857 0.45537 0.1783 0.0
C660 C 0.08827 0.43503 0.1984 0.0
H661 H 0.11512 0.46991 0.12864 0.0
H662 H 0.13106 0.47375 0.18985 0.0
C663 C 0.05977 0.41093 0.18217 0.0
C664 C 0.37299 0.69767 0.27937 0.0
C665 C 0.35283 0.72357 0.27067 0.0
H666 H 0.42152 0.68674 0.30148 0.0
C667 C 0.36847 0.75902 0.27611 0.0
H668 H 0.36244 0.66989 0.2747 0.0
C669 C 0.40275 0.76838 0.29055 0.0
C670 C 0.42219 0.7427 0.30055 0.0
H671 H 0.35391 0.77988 0.27033 0.0
H672 H 0.41367 0.79607 0.29487 0.0
C673 C 0.40703 0.70719 0.29459 0.0
C674 C 0.99835 0.37302 0.97985 0.0
C675 C 0.02516 0.37376 0.00539 0.0
H676 H 0.97536 0.34836 0.92958 0.0
C677 C 0.04601 0.34568 0.00175 0.0
H678 H 0.98108 0.39352 0.98228 0.0
C679 C 0.04186 0.31905 0.9719 0.0
C680 C 0.01726 0.32055 0.94513 0.0
H681 H 0.06702 0.34544 0.02079 0.0
H682 H 0.05957 0.29893 0.96865 0.0
C683 C 0.99481 0.347 0.94982 0.0
C684 C 0.6611 0.76341 0.27089 0.0
C685 C 0.67628 0.73403 0.27782 0.0
H686 H 0.61843 0.79422 0.2793 0.0
C687 C 0.66009 0.71287 0.29972 0.0
H688 H 0.67318 0.77981 0.25376 0.0
C689 C 0.6286 0.72087 0.31435 0.0
C690 C 0.61284 0.75007 0.30705 0.0
H691 H 0.67146 0.68982 0.30503 0.0
H692 H 0.61644 0.70398 0.33097 0.0
C693 C 0.62968 0.77143 0.2854 0.0
C694 C 0.0149 0.09239 0.93764 0.0
C695 C 0.03932 0.09323 0.96537 0.0
H696 H 0.99734 0.11861 0.89749 0.0
C697 C 0.06649 0.12136 0.97289 0.0
H698 H 0.99343 0.0711 0.93165 0.0
C699 C 0.06876 0.14865 0.9534 0.0
C700 C 0.0437 0.14854 0.92616 0.0
H701 H 0.08536 0.12281 0.99443 0.0
H702 H 0.08969 0.17036 0.96034 0.0
C703 C 0.01705 0.1197 0.9182 0.0
C704 C 0.43894 0.37611 0.27526 0.0
C705 C 0.43579 0.34408 0.288 0.0
H706 H 0.46008 0.4039 0.23653 0.0
C707 C 0.45905 0.31919 0.27699 0.0
H708 H 0.4224 0.39649 0.28409 0.0
C709 C 0.48173 0.32428 0.2508 0.0
C710 C 0.48091 0.35385 0.23465 0.0
H711 H 0.45756 0.29419 0.28603 0.0
H712 H 0.49695 0.30313 0.24065 0.0
C713 C 0.46081 0.38065 0.24833 0.0
C714 C 0.56036 0.42829 0.02797 0.0
C715 C 0.58489 0.41038 0.00853 0.0
H716 H 0.52902 0.43089 0.07215 0.0
C717 C 0.60078 0.38411 0.02151 0.0
H718 H 0.54773 0.44855 0.01819 0.0
C719 C 0.59027 0.37402 0.05255 0.0
C720 C 0.56334 0.38977 0.07055 0.0
H721 H 0.61962 0.36985 0.00658 0.0
H722 H 0.60117 0.35201 0.06083 0.0
C723 C 0.54967 0.4181 0.05877 0.0
C724 C 0.64282 0.23675 0.2404 0.0
C725 C 0.67466 0.24135 0.22464 0.0
H726 H 0.58911 0.24621 0.24099 0.0
C727 C 0.67732 0.26067 0.19761 0.0
H728 H 0.64028 0.22155 0.26108 0.0
C729 C 0.6481 0.27465 0.18587 0.0
C730 C 0.61572 0.26931 0.20092 0.0
H731 H 0.70171 0.26409 0.18491 0.0
H732 H 0.6507 0.28894 0.16453 0.0
C733 C 0.61357 0.25069 0.2287 0.0
C734 C 0.46777 0.16822 0.07074 0.0
C735 C 0.44375 0.1654 0.04232 0.0
H736 H 0.49916 0.20313 0.11205 0.0
C737 C 0.43042 0.19593 0.03543 0.0
H738 H 0.47869 0.14497 0.07614 0.0
C739 C 0.44173 0.22906 0.05608 0.0
C740 C 0.46724 0.2323 0.08344 0.0
H741 H 0.41214 0.19426 0.01335 0.0
H742 H 0.43169 0.25232 0.0496 0.0
C743 C 0.47967 0.20147 0.091 0.0
C744 C 0.31881 0.36275 0.7025 0.0
C745 C 0.31083 0.3409 0.72719 0.0
H746 H 0.34027 0.41402 0.6934 0.0
C747 C 0.3176 0.35583 0.76261 0.0
H748 H 0.31342 0.35258 0.67498 0.0
C749 C 0.33216 0.39117 0.77302 0.0
C750 C 0.34101 0.41263 0.74839 0.0
H751 H 0.31274 0.33999 0.78248 0.0
H752 H 0.33736 0.40141 0.80058 0.0
C753 C 0.33409 0.39808 0.71297 0.0
C754 C 0.31607 0.64832 0.75464 0.0
C755 C 0.29775 0.6608 0.78402 0.0
H756 H 0.34932 0.61037 0.73127 0.0
C757 C 0.29876 0.64342 0.8125 0.0
H758 H 0.31589 0.66127 0.73232 0.0
C759 C 0.31773 0.61466 0.81194 0.0
C760 C 0.33639 0.60217 0.78285 0.0
H761 H 0.28453 0.65188 0.8353 0.0
H762 H 0.31765 0.60218 0.83458 0.0
C763 C 0.33537 0.61935 0.75412 0.0
C764 C 0.90709 0.51102 0.49963 0.0
C765 C 0.88895 0.5409 0.50408 0.0
H766 H 0.90557 0.45578 0.50055 0.0
C767 C 0.85414 0.53753 0.51401 0.0
H768 H 0.93403 0.51298 0.49229 0.0
C769 C 0.83748 0.50446 0.5184 0.0
C770 C 0.85564 0.47445 0.51359 0.0
H771 H 0.8396 0.56025 0.51752 0.0
H772 H 0.81045 0.50236 0.5254 0.0
C773 C 0.89076 0.47829 0.50457 0.0
C774 C 0.74021 0.87058 0.86339 0.0
C775 C 0.7717 0.89339 0.86898 0.0
H776 H 0.68617 0.86351 0.84564 0.0
C777 C 0.77334 0.92705 0.86016 0.0
H778 H 0.73861 0.84449 0.87026 0.0
C779 C 0.74347 0.93806 0.84619 0.0
C780 C 0.71151 0.91554 0.84095 0.0
H781 H 0.79754 0.94498 0.8645 0.0
H782 H 0.7454 0.96438 0.83986 0.0
C783 C 0.71028 0.88153 0.84943 0.0
C784 C 0.68742 0.52714 0.95132 0.0
C785 C 0.67094 0.51521 0.91804 0.0
H786 H 0.73422 0.55194 0.98122 0.0
C787 C 0.68966 0.51965 0.88872 0.0
H788 H 0.67342 0.52401 0.9743 0.0
C789 C 0.72463 0.53496 0.8926 0.0
C790 C 0.74127 0.54672 0.9259 0.0
H791 H 0.67753 0.51039 0.8628 0.0
H792 H 0.7386 0.53763 0.86951 0.0
C793 C 0.72215 0.54309 0.95523 0.0
C794 C 0.24177 0.64528 0.30962 0.0
C795 C 0.23835 0.64847 0.27447 0.0
H796 H 0.22678 0.61493 0.34861 0.0
C797 C 0.21593 0.62261 0.25152 0.0
H798 H 0.25857 0.66498 0.32804 0.0
C799 C 0.19776 0.59395 0.26326 0.0
C800 C 0.20143 0.59052 0.29832 0.0
H801 H 0.21301 0.62409 0.22423 0.0
H802 H 0.18098 0.57435 0.24473 0.0
C803 C 0.22345 0.61667 0.32143 0.0
C804 C 0.97456 0.51436 0.97324 0.0
C805 C 0.98185 0.52299 0.00924 0.0
H806 H 0.94063 0.51957 0.93036 0.0
C807 C 0.95963 0.54254 0.03035 0.0
H808 H 0.99155 0.4991 0.95667 0.0
C809 C 0.93064 0.55417 0.01558 0.0
C810 C 0.92343 0.54643 0.97935 0.0
H811 H 0.96496 0.54926 0.05828 0.0
H812 H 0.91424 0.56974 0.03257 0.0
C813 C 0.94546 0.526 0.95833 0.0
C814 C 0.14774 0.99874 0.07851 0.0
C815 C 0.12184 0.9904 0.05111 0.0
H816 H 0.1979 0.98984 0.09815 0.0
C817 C 0.12812 0.96638 0.02104 0.0
H818 H 0.14368 0.01713 0.10201 0.0
C819 C 0.1591 0.95014 0.01899 0.0
C820 C 0.1847 0.95798 0.04678 0.0
H821 H 0.10848 0.95914 0.99967 0.0
H822 H 0.16285 0.93122 0.99578 0.0
C823 C 0.17881 0.98297 0.07628 0.0
loop_
_geom_bond_atom_site_label_1
_geom_bond_atom_site_label_2
_geom_bond_distance
_geom_bond_site_symmetry_2
_ccdc_geom_bond_type
H0 C3 0.929 . S
H1 C6 0.929 . S
H2 C8 0.930 . S
C3 H0 0.929 . S
C3 C4 1.398 . S
C3 C5 1.396 . S
C4 C3 1.398 . S
C4 C8 1.407 . S
C5 C3 1.396 . S
C5 C6 1.394 . S
C6 H1 0.929 . S
C6 C5 1.394 . S
C6 C7 1.382 . S
C7 C6 1.382 . S
C7 C8 1.392 . S
C7 N9 1.420 . S
C8 H2 0.930 . S
C8 C4 1.407 . S
C8 C7 1.392 . S
N9 C7 1.420 . S
N9 C10 1.244 . S
C10 N9 1.244 . S
H11 C14 0.929 . S
H12 C17 0.929 . S
H13 C19 0.930 . S
C14 H11 0.929 . S
C14 C15 1.398 . S
C14 C16 1.396 . S
C15 C14 1.398 . S
C15 C19 1.407 . S
C16 C14 1.396 . S
C16 C17 1.394 . S
C17 H12 0.929 . S
C17 C16 1.394 . S
C17 C18 1.382 . S
C18 C17 1.382 . S
C18 C19 1.392 . S
C18 N20 1.420 . S
C19 H13 0.930 . S
C19 C15 1.407 . S
C19 C18 1.392 . S
N20 C18 1.420 . S
N20 C21 1.244 . S
C21 N20 1.244 . S
H22 C25 0.929 . S
H23 C28 0.929 . S
H24 C30 0.930 1_556 S
C25 H22 0.929 . S
C25 C26 1.398 1_455 S
C25 C27 1.396 . S
C26 C25 1.398 1_655 S
C26 C30 1.407 . S
C27 C25 1.396 . S
C27 C28 1.394 1_455 S
C28 H23 0.929 . S
C28 C27 1.394 1_655 S
C28 C29 1.382 . S
C29 C28 1.382 . S
C29 C30 1.392 . S
C29 N31 1.420 . S
C30 H24 0.930 1_554 S
C30 C26 1.407 . S
C30 C29 1.392 . S
N31 C29 1.420 . S
N31 C32 1.244 . S
C32 N31 1.244 . S
H33 C36 0.929 . S
H34 C39 0.929 . S
H35 C41 0.930 . S
C36 H33 0.929 . S
C36 C37 1.398 . S
C36 C38 1.396 . S
C37 C36 1.398 . S
C37 C41 1.407 . S
C38 C36 1.396 . S
C38 C39 1.394 . S
C39 H34 0.929 . S
C39 C38 1.394 . S
C39 C40 1.382 . S
C40 C39 1.382 . S
C40 C41 1.392 . S
C40 N42 1.420 . S
C41 H35 0.930 . S
C41 C37 1.407 . S
C41 C40 1.392 . S
N42 C40 1.420 . S
N42 C43 1.244 . S
C43 N42 1.244 . S
H44 C47 0.929 1_545 S
H45 C50 0.929 . S
H46 C52 0.930 . S
C47 H44 0.929 1_565 S
C47 C48 1.398 . S
C47 C49 1.396 . S
C48 C47 1.398 . S
C48 C52 1.407 . S
C49 C47 1.396 . S
C49 C50 1.394 . S
C50 H45 0.929 . S
C50 C49 1.394 . S
C50 C51 1.382 . S
C51 C50 1.382 . S
C51 C52 1.392 . S
C51 N53 1.420 . S
C52 H46 0.930 . S
C52 C48 1.407 . S
C52 C51 1.392 . S
N53 C51 1.420 . S
N53 C54 1.244 . S
C54 N53 1.244 . S
H55 C58 0.929 . S
H56 C61 0.929 . S
H57 C63 0.930 . S
C58 H55 0.929 . S
C58 C59 1.398 . S
C58 C60 1.396 . S
C59 C58 1.398 . S
C59 C63 1.407 . S
C60 C58 1.396 . S
C60 C61 1.394 . S
C61 H56 0.929 . S
C61 C60 1.394 . S
C61 C62 1.382 . S
C62 C61 1.382 . S
C62 C63 1.392 . S
C62 N64 1.420 . S
C63 H57 0.930 . S
C63 C59 1.407 . S
C63 C62 1.392 . S
N64 C62 1.420 . S
N64 C65 1.244 . S
C65 N64 1.244 . S
H66 C69 0.929 . S
H67 C72 0.929 1_455 S
H68 C74 0.930 . S
C69 H66 0.929 . S
C69 C70 1.398 . S
C69 C71 1.396 . S
C70 C69 1.398 . S
C70 C74 1.407 . S
C71 C69 1.396 . S
C71 C72 1.394 . S
C72 H67 0.929 1_655 S
C72 C71 1.394 . S
C72 C73 1.382 . S
C73 C72 1.382 . S
C73 C74 1.392 . S
C73 N75 1.420 1_655 S
C74 H68 0.930 . S
C74 C70 1.407 . S
C74 C73 1.392 . S
N75 C73 1.420 1_455 S
N75 C76 1.244 . S
C76 N75 1.244 . S
H77 C80 0.929 . S
H78 C83 0.929 . S
H79 C85 0.930 . S
C80 H77 0.929 . S
C80 C81 1.398 . S
C80 C82 1.396 . S
C81 C80 1.398 . S
C81 C85 1.407 . S
C82 C80 1.396 . S
C82 C83 1.394 . S
C83 H78 0.929 . S
C83 C82 1.394 . S
C83 C84 1.382 . S
C84 C83 1.382 . S
C84 C85 1.392 . S
C84 N86 1.420 . S
C85 H79 0.930 . S
C85 C81 1.407 . S
C85 C84 1.392 . S
N86 C84 1.420 . S
N86 C87 1.244 . S
C87 N86 1.244 . S
H88 C91 0.929 . S
H89 C94 0.929 . S
H90 C96 0.930 . S
C91 H88 0.929 . S
C91 C92 1.398 . S
C91 C93 1.396 . S
C92 C91 1.398 . S
C92 C96 1.407 . S
C93 C91 1.396 . S
C93 C94 1.394 . S
C94 H89 0.929 . S
C94 C93 1.394 . S
C94 C95 1.382 . S
C95 C94 1.382 . S
C95 C96 1.392 . S
C95 N97 1.420 . S
C96 H90 0.930 . S
C96 C92 1.407 . S
C96 C95 1.392 . S
N97 C95 1.420 . S
N97 C98 1.244 . S
C98 N97 1.244 . S
H99 C102 0.929 . S
H100 C105 0.929 1_545 S
H101 C107 0.930 . S
C102 H99 0.929 . S
C102 C103 1.398 . S
C102 C104 1.396 . S
C103 C102 1.398 . S
C103 C107 1.407 . S
C104 C102 1.396 . S
C104 C105 1.394 . S
C105 H100 0.929 1_565 S
C105 C104 1.394 . S
C105 C106 1.382 . S
C106 C105 1.382 . S
C106 C107 1.392 . S
C106 N108 1.434 . S
C107 H101 0.930 . S
C107 C103 1.407 . S
C107 C106 1.392 . S
N108 C106 1.434 . S
N108 C109 1.236 1_565 S
C109 N108 1.236 1_545 S
H110 C113 0.929 . S
H111 C116 0.929 . S
H112 C118 0.930 . S
C113 H110 0.929 . S
C113 C114 1.398 . S
C113 C115 1.396 . S
C114 C113 1.398 . S
C114 C118 1.407 . S
C115 C113 1.396 . S
C115 C116 1.394 . S
C116 H111 0.929 . S
C116 C115 1.394 . S
C116 C117 1.382 . S
C117 C116 1.382 . S
C117 C118 1.392 . S
C117 N119 1.420 . S
C118 H112 0.930 . S
C118 C114 1.407 . S
C118 C117 1.392 . S
N119 C117 1.420 . S
N119 C120 1.244 . S
C120 N119 1.244 . S
H121 C124 0.929 . S
H122 C127 0.929 . S
H123 C129 0.930 . S
C124 H121 0.929 . S
C124 C125 1.398 . S
C124 C126 1.396 . S
C125 C124 1.398 . S
C125 C129 1.407 . S
C126 C124 1.396 . S
C126 C127 1.394 . S
C127 H122 0.929 . S
C127 C126 1.394 . S
C127 C128 1.382 . S
C128 C127 1.382 . S
C128 C129 1.392 . S
C128 N130 1.420 . S
C129 H123 0.930 . S
C129 C125 1.407 . S
C129 C128 1.392 . S
N130 C128 1.420 . S
N130 C131 1.244 . S
C131 N130 1.244 . S
H132 C135 0.929 . S
H133 C138 0.929 . S
H134 C140 0.930 . S
C135 H132 0.929 . S
C135 C136 1.398 . S
C135 C137 1.396 . S
C136 C135 1.398 . S
C136 C140 1.407 . S
C137 C135 1.396 . S
C137 C138 1.394 . S
C138 H133 0.929 . S
C138 C137 1.394 . S
C138 C139 1.382 . S
C139 C138 1.382 . S
C139 C140 1.392 . S
C139 N141 1.420 . S
C140 H134 0.930 . S
C140 C136 1.407 . S
C140 C139 1.392 . S
N141 C139 1.420 . S
N141 C142 1.244 . S
C142 N141 1.244 . S
H143 C146 0.929 . S
H144 C149 0.929 1_554 S
H145 C151 0.930 . S
C146 H143 0.929 . S
C146 C147 1.398 . S
C146 C148 1.396 . S
C147 C146 1.398 . S
C147 C151 1.407 . S
C148 C146 1.396 . S
C148 C149 1.394 . S
C149 H144 0.929 1_556 S
C149 C148 1.394 . S
C149 C150 1.382 . S
C150 C149 1.382 . S
C150 C151 1.392 . S
C150 N152 1.420 1_556 S
C151 H145 0.930 . S
C151 C147 1.407 . S
C151 C150 1.392 . S
N152 C150 1.420 1_554 S
N152 C153 1.244 . S
C153 N152 1.244 . S
H154 C157 0.929 . S
H155 C160 0.929 . S
H156 C162 0.930 . S
C157 H154 0.929 . S
C157 C158 1.398 . S
C157 C159 1.396 . S
C158 C157 1.398 . S
C158 C162 1.407 . S
C159 C157 1.396 . S
C159 C160 1.394 . S
C160 H155 0.929 . S
C160 C159 1.394 . S
C160 C161 1.382 . S
C161 C160 1.382 . S
C161 C162 1.392 . S
C161 N163 1.420 . S
C162 H156 0.930 . S
C162 C158 1.407 . S
C162 C161 1.392 . S
N163 C161 1.420 . S
N163 C164 1.244 . S
C164 N163 1.244 . S
H165 C168 0.929 1_554 S
H166 C171 0.929 . S
H167 C173 0.930 1_565 S
C168 H165 0.929 1_556 S
C168 C169 1.398 . S
C168 C170 1.396 . S
C169 C168 1.398 . S
C169 C173 1.407 . S
C170 C168 1.396 . S
C170 C171 1.394 . S
C171 H166 0.929 . S
C171 C170 1.394 . S
C171 C172 1.382 . S
C172 C171 1.382 . S
C172 C173 1.392 . S
C172 N174 1.420 . S
C173 H167 0.930 1_545 S
C173 C169 1.407 . S
C173 C172 1.392 . S
N174 C172 1.420 . S
N174 C175 1.244 . S
C175 N174 1.244 . S
Zn176 O179 2.031 . S
Zn176 O181 2.049 . S
Zn176 O186 2.067 1_554 S
Zn177 O178 1.962 . S
Zn177 O180 1.986 . S
Zn177 O182 1.996 . S
Zn177 O185 1.943 . S
O178 Zn177 1.962 . S
O178 C183 1.254 . S
O179 Zn176 2.031 . S
O179 C183 1.269 . S
O180 Zn177 1.986 . S
O180 C187 1.262 . S
O181 Zn176 2.049 . S
O181 C189 1.260 . S
O182 Zn177 1.996 . S
O182 C189 1.257 . S
C183 O178 1.254 . S
C183 O179 1.269 . S
C184 O185 1.249 1_556 S
C184 O186 1.270 . S
O185 Zn177 1.943 . S
O185 C184 1.249 1_554 S
O186 Zn176 2.067 1_556 S
O186 C184 1.270 . S
C187 O180 1.262 . S
C187 O188 1.232 . S
O188 C187 1.232 . S
C189 O181 1.260 . S
C189 O182 1.257 . S
Zn190 O193 2.031 . S
Zn190 O195 2.049 . S
Zn190 O200 2.067 . S
Zn191 O192 1.962 . S
Zn191 O194 1.986 . S
Zn191 O196 1.996 . S
Zn191 O199 1.943 . S
O192 Zn191 1.962 . S
O192 C197 1.254 . S
O193 Zn190 2.031 . S
O193 C197 1.269 . S
O194 Zn191 1.986 . S
O194 C201 1.262 . S
O195 Zn190 2.049 . S
O195 C203 1.260 . S
O196 Zn191 1.996 . S
O196 C203 1.257 . S
C197 O192 1.254 . S
C197 O193 1.269 . S
C198 O199 1.249 . S
C198 O200 1.270 . S
O199 Zn191 1.943 . S
O199 C198 1.249 . S
O200 Zn190 2.067 . S
O200 C198 1.270 . S
C201 O194 1.262 . S
C201 O202 1.232 . S
O202 C201 1.232 . S
C203 O195 1.260 . S
C203 O196 1.257 . S
Zn204 O207 2.031 . S
Zn204 O209 2.049 . S
Zn204 O214 2.067 . S
Zn205 O206 1.962 . S
Zn205 O208 1.986 . S
Zn205 O210 1.996 1_554 S
Zn205 O213 1.943 . S
O206 Zn205 1.962 . S
O206 C211 1.254 . S
O207 Zn204 2.031 . S
O207 C211 1.269 1_556 S
O208 Zn205 1.986 . S
O208 C215 1.262 . S
O209 Zn204 2.049 . S
O209 C217 1.260 . S
O210 Zn205 1.996 1_556 S
O210 C217 1.257 . S
C211 O206 1.254 . S
C211 O207 1.269 1_554 S
C212 O213 1.249 1_556 S
C212 O214 1.270 . S
O213 Zn205 1.943 . S
O213 C212 1.249 1_554 S
O214 Zn204 2.067 . S
O214 C212 1.270 . S
C215 O208 1.262 . S
C215 O216 1.232 . S
O216 C215 1.232 . S
C217 O209 1.260 . S
C217 O210 1.257 . S
Zn218 O221 2.031 . S
Zn218 O223 2.049 . S
Zn218 O228 2.067 1_545 S
Zn219 O220 1.962 . S
Zn219 O222 1.986 . S
Zn219 O224 1.996 . S
Zn219 O227 1.943 1_545 S
O220 Zn219 1.962 . S
O220 C225 1.254 . S
O221 Zn218 2.031 . S
O221 C225 1.269 . S
O222 Zn219 1.986 . S
O222 C229 1.262 . S
O223 Zn218 2.049 . S
O223 C231 1.260 . S
O224 Zn219 1.996 . S
O224 C231 1.257 . S
C225 O220 1.254 . S
C225 O221 1.269 . S
C226 O227 1.249 . S
C226 O228 1.270 . S
O227 Zn219 1.943 1_565 S
O227 C226 1.249 . S
O228 Zn218 2.067 1_565 S
O228 C226 1.270 . S
C229 O222 1.262 . S
C229 O230 1.232 . S
O230 C229 1.232 . S
C231 O223 1.260 . S
C231 O224 1.257 . S
Zn232 O235 2.031 . S
Zn232 O237 2.049 . S
Zn232 O242 2.067 . S
Zn233 O234 1.962 . S
Zn233 O236 1.986 . S
Zn233 O238 1.996 . S
Zn233 O241 1.943 . S
O234 Zn233 1.962 . S
O234 C239 1.254 . S
O235 Zn232 2.031 . S
O235 C239 1.269 . S
O236 Zn233 1.986 . S
O236 C243 1.262 . S
O237 Zn232 2.049 . S
O237 C245 1.260 . S
O238 Zn233 1.996 . S
O238 C245 1.257 . S
C239 O234 1.254 . S
C239 O235 1.269 . S
C240 O241 1.249 . S
C240 O242 1.270 . S
O241 Zn233 1.943 . S
O241 C240 1.249 . S
O242 Zn232 2.067 . S
O242 C240 1.270 . S
C243 O236 1.262 . S
C243 O244 1.232 . S
O244 C243 1.232 . S
C245 O237 1.260 . S
C245 O238 1.257 . S
Zn246 O249 2.031 . S
Zn246 O251 2.049 . S
Zn246 O256 2.067 . S
Zn247 O248 1.962 . S
Zn247 O250 1.986 . S
Zn247 O252 1.996 . S
Zn247 O255 1.943 . S
O248 Zn247 1.962 . S
O248 C253 1.254 . S
O249 Zn246 2.031 . S
O249 C253 1.269 . S
O250 Zn247 1.986 . S
O250 C257 1.262 . S
O251 Zn246 2.049 . S
O251 C259 1.260 . S
O252 Zn247 1.996 . S
O252 C259 1.257 . S
C253 O248 1.254 . S
C253 O249 1.269 . S
C254 O255 1.249 . S
C254 O256 1.270 . S
O255 Zn247 1.943 . S
O255 C254 1.249 . S
O256 Zn246 2.067 . S
O256 C254 1.270 . S
C257 O250 1.262 . S
C257 O258 1.232 . S
O258 C257 1.232 . S
C259 O251 1.260 . S
C259 O252 1.257 . S
Zn260 O263 2.031 . S
Zn260 O265 2.049 . S
Zn260 O270 2.067 . S
Zn261 O262 1.962 . S
Zn261 O264 1.986 . S
Zn261 O266 1.996 . S
Zn261 O269 1.943 . S
O262 Zn261 1.962 . S
O262 C267 1.254 . S
O263 Zn260 2.031 . S
O263 C267 1.269 . S
O264 Zn261 1.986 . S
O264 C271 1.262 . S
O265 Zn260 2.049 . S
O265 C273 1.260 . S
O266 Zn261 1.996 . S
O266 C273 1.257 . S
C267 O262 1.254 . S
C267 O263 1.269 . S
C268 O269 1.249 . S
C268 O270 1.270 . S
O269 Zn261 1.943 . S
O269 C268 1.249 . S
O270 Zn260 2.067 . S
O270 C268 1.270 . S
C271 O264 1.262 . S
C271 O272 1.232 . S
O272 C271 1.232 . S
C273 O265 1.260 . S
C273 O266 1.257 . S
Zn274 O277 2.031 . S
Zn274 O279 2.049 . S
Zn274 O284 2.067 . S
Zn275 O276 1.962 . S
Zn275 O278 1.986 . S
Zn275 O280 1.996 1_545 S
Zn275 O283 1.942 . S
O276 Zn275 1.962 . S
O276 C281 1.254 . S
O277 Zn274 2.031 . S
O277 C281 1.269 1_565 S
O278 Zn275 1.986 . S
O278 C285 1.262 . S
O279 Zn274 2.049 . S
O279 C287 1.260 . S
O280 Zn275 1.996 1_565 S
O280 C287 1.257 . S
C281 O276 1.254 . S
C281 O277 1.269 1_545 S
C282 O283 1.232 1_565 S
C282 O284 1.270 . S
O283 Zn275 1.942 . S
O283 C282 1.232 1_545 S
O284 Zn274 2.067 . S
O284 C282 1.270 . S
C285 O278 1.262 . S
C285 O286 1.232 . S
O286 C285 1.232 . S
C287 O279 1.260 . S
C287 O280 1.257 . S
Zn288 O291 2.031 . S
Zn288 O293 2.036 1_455 S
Zn288 O298 2.067 1_455 S
Zn289 O290 1.962 . S
Zn289 O292 1.986 . S
Zn289 O294 1.996 . S
Zn289 O297 1.943 1_455 S
O290 Zn289 1.962 . S
O290 C295 1.254 . S
O291 Zn288 2.031 . S
O291 C295 1.269 . S
O292 Zn289 1.986 . S
O292 C299 1.262 . S
O293 Zn288 2.036 1_655 S
O293 C301 1.252 1_655 S
O294 Zn289 1.996 . S
O294 C301 1.257 . S
C295 O290 1.254 . S
C295 O291 1.269 . S
C296 O297 1.249 . S
C296 O298 1.270 . S
O297 Zn289 1.943 1_655 S
O297 C296 1.249 . S
O298 Zn288 2.067 1_655 S
O298 C296 1.270 . S
C299 O292 1.262 . S
C299 O300 1.232 . S
O300 C299 1.232 . S
C301 O293 1.252 1_455 S
C301 O294 1.257 . S
Zn302 O305 2.031 . S
Zn302 O307 2.049 . S
Zn302 O312 2.067 . S
Zn303 O304 1.962 . S
Zn303 O306 1.986 . S
Zn303 O308 1.996 . S
Zn303 O311 1.943 . S
O304 Zn303 1.962 . S
O304 C309 1.254 . S
O305 Zn302 2.031 . S
O305 C309 1.269 . S
O306 Zn303 1.986 . S
O306 C313 1.262 . S
O307 Zn302 2.049 . S
O307 C315 1.260 . S
O308 Zn303 1.996 . S
O308 C315 1.257 . S
C309 O304 1.254 . S
C309 O305 1.269 . S
C310 O311 1.249 . S
C310 O312 1.270 . S
O311 Zn303 1.943 . S
O311 C310 1.249 . S
O312 Zn302 2.067 . S
O312 C310 1.270 . S
C313 O306 1.262 . S
C313 O314 1.232 . S
O314 C313 1.232 . S
C315 O307 1.260 . S
C315 O308 1.257 . S
Zn316 O319 2.031 1_655 S
Zn316 O321 2.049 . S
Zn316 O326 2.067 . S
Zn317 O318 1.962 . S
Zn317 O320 1.986 . S
Zn317 O322 1.996 1_455 S
Zn317 O325 1.943 . S
O318 Zn317 1.962 . S
O318 C323 1.254 . S
O319 Zn316 2.031 1_455 S
O319 C323 1.269 . S
O320 Zn317 1.986 . S
O320 C327 1.262 . S
O321 Zn316 2.049 . S
O321 C329 1.260 . S
O322 Zn317 1.996 1_655 S
O322 C329 1.257 . S
C323 O318 1.254 . S
C323 O319 1.269 . S
C324 O325 1.249 1_655 S
C324 O326 1.270 . S
O325 Zn317 1.943 . S
O325 C324 1.249 1_455 S
O326 Zn316 2.067 . S
O326 C324 1.270 . S
C327 O320 1.262 . S
C327 O328 1.232 . S
O328 C327 1.232 . S
C329 O321 1.260 . S
C329 O322 1.257 . S
Zn330 O333 2.031 . S
Zn330 O335 2.049 . S
Zn330 O340 2.067 . S
Zn331 O332 1.962 . S
Zn331 O334 1.986 . S
Zn331 O336 1.996 . S
Zn331 O339 1.943 . S
O332 Zn331 1.962 . S
O332 C337 1.254 . S
O333 Zn330 2.031 . S
O333 C337 1.269 . S
O334 Zn331 1.986 . S
O334 C341 1.262 . S
O335 Zn330 2.049 . S
O335 C343 1.260 . S
O336 Zn331 1.996 . S
O336 C343 1.257 . S
C337 O332 1.254 . S
C337 O333 1.269 . S
C338 O339 1.249 . S
C338 O340 1.270 . S
O339 Zn331 1.943 . S
O339 C338 1.249 . S
O340 Zn330 2.067 . S
O340 C338 1.270 . S
C341 O334 1.262 . S
C341 O342 1.232 . S
O342 C341 1.232 . S
C343 O335 1.260 . S
C343 O336 1.257 . S
C344 C345 1.387 . S
C344 H348 0.950 . S
C344 C353 1.390 . S
C345 C344 1.387 . S
C345 C347 1.387 . S
H346 C353 0.950 . S
C347 C345 1.387 . S
C347 C349 1.390 . S
C347 H351 0.950 . S
H348 C344 0.950 . S
C349 C347 1.390 . S
C349 C350 1.387 . S
C349 H352 0.950 . S
C350 C349 1.387 . S
C350 C353 1.387 . S
H351 C347 0.950 . S
H352 C349 0.950 . S
C353 C344 1.390 . S
C353 H346 0.950 . S
C353 C350 1.387 . S
C354 C355 1.387 . S
C354 H358 0.950 . S
C354 C363 1.390 . S
C355 C354 1.387 . S
C355 C357 1.387 . S
H356 C363 0.950 . S
C357 C355 1.387 . S
C357 C359 1.390 . S
C357 H361 0.950 . S
H358 C354 0.950 . S
C359 C357 1.390 . S
C359 C360 1.387 . S
C359 H362 0.950 . S
C360 C359 1.387 . S
C360 C363 1.387 . S
H361 C357 0.950 . S
H362 C359 0.950 . S
C363 C354 1.390 . S
C363 H356 0.950 . S
C363 C360 1.387 . S
C364 C365 1.387 . S
C364 H368 0.950 . S
C364 C373 1.390 . S
C365 C364 1.387 . S
C365 C367 1.387 . S
H366 C373 0.950 . S
C367 C365 1.387 . S
C367 C369 1.390 . S
C367 H371 0.950 . S
H368 C364 0.950 . S
C369 C367 1.390 . S
C369 C370 1.387 . S
C369 H372 0.950 . S
C370 C369 1.387 . S
C370 C373 1.387 . S
H371 C367 0.950 . S
H372 C369 0.950 . S
C373 C364 1.390 . S
C373 H366 0.950 . S
C373 C370 1.387 . S
C374 C375 1.387 . S
C374 H378 0.950 . S
C374 C383 1.386 1_455 S
C375 C374 1.387 . S
C375 C377 1.387 1_565 S
H376 C383 0.953 . S
C377 C375 1.387 1_545 S
C377 C379 1.390 . S
C377 H381 0.950 . S
H378 C374 0.950 . S
C379 C377 1.390 . S
C379 C380 1.389 1_455 S
C379 H382 0.950 . S
C380 C379 1.389 1_655 S
C380 C383 1.389 1_545 S
H381 C377 0.950 . S
H382 C379 0.950 . S
C383 C374 1.386 1_655 S
C383 H376 0.953 . S
C383 C380 1.389 1_565 S
C384 C385 1.387 . S
C384 H388 0.950 . S
C384 C393 1.390 . S
C385 C384 1.387 . S
C385 C387 1.387 . S
H386 C393 0.950 . S
C387 C385 1.387 . S
C387 C389 1.390 . S
C387 H391 0.950 . S
H388 C384 0.950 . S
C389 C387 1.390 . S
C389 C390 1.387 . S
C389 H392 0.950 . S
C390 C389 1.387 . S
C390 C393 1.387 . S
H391 C387 0.950 . S
H392 C389 0.950 . S
C393 C384 1.390 . S
C393 H386 0.950 . S
C393 C390 1.387 . S
C394 C395 1.387 . S
C394 H398 0.950 . S
C394 C403 1.390 . S
C395 C394 1.387 . S
C395 C397 1.387 . S
H396 C403 0.950 . S
C397 C395 1.387 . S
C397 C399 1.390 . S
C397 H401 0.950 . S
H398 C394 0.950 . S
C399 C397 1.390 . S
C399 C400 1.387 . S
C399 H402 0.950 . S
C400 C399 1.387 . S
C400 C403 1.387 . S
H401 C397 0.950 . S
H402 C399 0.950 . S
C403 C394 1.390 . S
C403 H396 0.950 . S
C403 C400 1.387 . S
C404 C405 1.387 . S
C404 H408 0.950 . S
C404 C413 1.390 . S
C405 C404 1.387 . S
C405 C407 1.387 . S
H406 C413 0.950 . S
C407 C405 1.387 . S
C407 C409 1.390 . S
C407 H411 0.950 . S
H408 C404 0.950 . S
C409 C407 1.390 . S
C409 C410 1.387 . S
C409 H412 0.950 . S
C410 C409 1.387 . S
C410 C413 1.387 . S
H411 C407 0.950 . S
H412 C409 0.950 . S
C413 C404 1.390 . S
C413 H406 0.950 . S
C413 C410 1.387 . S
C414 C415 1.387 . S
C414 H418 0.950 . S
C414 C423 1.390 . S
C415 C414 1.387 . S
C415 C417 1.387 1_565 S
H416 C423 0.950 . S
C417 C415 1.387 1_545 S
C417 C419 1.390 . S
C417 H421 0.950 . S
H418 C414 0.950 . S
C419 C417 1.390 . S
C419 C420 1.387 1_545 S
C419 H422 0.950 . S
C420 C419 1.387 1_565 S
C420 C423 1.387 . S
H421 C417 0.950 . S
H422 C419 0.950 . S
C423 C414 1.390 . S
C423 H416 0.950 . S
C423 C420 1.387 . S
C424 C425 1.387 . S
C424 H428 0.950 . S
C424 C433 1.390 . S
C425 C424 1.387 . S
C425 C427 1.387 . S
H426 C433 0.950 . S
C427 C425 1.387 . S
C427 C429 1.390 . S
C427 H431 0.950 . S
H428 C424 0.950 . S
C429 C427 1.390 . S
C429 C430 1.387 . S
C429 H432 0.950 . S
C430 C429 1.387 . S
C430 C433 1.387 . S
H431 C427 0.950 . S
H432 C429 0.950 . S
C433 C424 1.390 . S
C433 H426 0.950 . S
C433 C430 1.387 . S
C434 C435 1.387 . S
C434 H438 0.950 . S
C434 C443 1.390 . S
C435 C434 1.387 . S
C435 C437 1.387 . S
H436 C443 0.950 . S
C437 C435 1.387 . S
C437 C439 1.390 . S
C437 H441 0.950 . S
H438 C434 0.950 . S
C439 C437 1.390 . S
C439 C440 1.387 . S
C439 H442 0.950 . S
C440 C439 1.387 . S
C440 C443 1.387 . S
H441 C437 0.950 . S
H442 C439 0.950 . S
C443 C434 1.390 . S
C443 H436 0.950 . S
C443 C440 1.387 . S
C444 C445 1.387 . S
C444 H448 0.950 . S
C444 C453 1.390 . S
C445 C444 1.387 . S
C445 C447 1.387 . S
H446 C453 0.950 . S
C447 C445 1.387 . S
C447 C449 1.390 . S
C447 H451 0.950 . S
H448 C444 0.950 . S
C449 C447 1.390 . S
C449 C450 1.387 . S
C449 H452 0.950 . S
C450 C449 1.387 . S
C450 C453 1.387 . S
H451 C447 0.950 . S
H452 C449 0.950 . S
C453 C444 1.390 . S
C453 H446 0.950 . S
C453 C450 1.387 . S
C454 C455 1.387 . S
C454 H458 0.950 . S
C454 C463 1.390 . S
C455 C454 1.387 . S
C455 C457 1.387 . S
H456 C463 0.950 . S
C457 C455 1.387 . S
C457 C459 1.390 . S
C457 H461 0.950 . S
H458 C454 0.950 . S
C459 C457 1.390 . S
C459 C460 1.387 . S
C459 H462 0.950 . S
C460 C459 1.387 . S
C460 C463 1.387 . S
H461 C457 0.950 . S
H462 C459 0.950 . S
C463 C454 1.390 . S
C463 H456 0.950 . S
C463 C460 1.387 . S
C464 C465 1.387 . S
C464 H468 0.950 . S
C464 C473 1.390 . S
C465 C464 1.387 . S
C465 C467 1.387 . S
H466 C473 0.950 . S
C467 C465 1.387 . S
C467 C469 1.390 . S
C467 H471 0.950 . S
H468 C464 0.950 . S
C469 C467 1.390 . S
C469 C470 1.387 . S
C469 H472 0.950 . S
C470 C469 1.387 . S
C470 C473 1.387 . S
H471 C467 0.950 . S
H472 C469 0.950 . S
C473 C464 1.390 . S
C473 H466 0.950 . S
C473 C470 1.387 . S
C474 C475 1.387 . S
C474 H478 0.950 . S
C474 C483 1.390 . S
C475 C474 1.387 . S
C475 C477 1.387 . S
H476 C483 0.950 . S
C477 C475 1.387 . S
C477 C479 1.390 . S
C477 H481 0.950 . S
H478 C474 0.950 . S
C479 C477 1.390 . S
C479 C480 1.387 . S
C479 H482 0.950 . S
C480 C479 1.387 . S
C480 C483 1.387 . S
H481 C477 0.950 . S
H482 C479 0.950 . S
C483 C474 1.390 . S
C483 H476 0.950 . S
C483 C480 1.387 . S
C484 C485 1.387 . S
C484 H488 0.950 . S
C484 C493 1.390 . S
C485 C484 1.387 . S
C485 C487 1.387 . S
H486 C493 0.950 . S
C487 C485 1.387 . S
C487 C489 1.390 . S
C487 H491 0.950 . S
H488 C484 0.950 . S
C489 C487 1.390 . S
C489 C490 1.387 . S
C489 H492 0.950 . S
C490 C489 1.387 . S
C490 C493 1.387 . S
H491 C487 0.950 . S
H492 C489 0.950 . S
C493 C484 1.390 . S
C493 H486 0.950 . S
C493 C490 1.387 . S
C494 C495 1.387 . S
C494 H498 0.950 . S
C494 C503 1.390 . S
C495 C494 1.387 . S
C495 C497 1.387 1_655 S
H496 C503 0.950 . S
C497 C495 1.387 1_455 S
C497 C499 1.390 . S
C497 H501 0.950 . S
H498 C494 0.950 . S
C499 C497 1.390 . S
C499 C500 1.387 1_455 S
C499 H502 0.950 . S
C500 C499 1.387 1_655 S
C500 C503 1.387 . S
H501 C497 0.950 . S
H502 C499 0.950 . S
C503 C494 1.390 . S
C503 H496 0.950 . S
C503 C500 1.387 . S
C504 C505 1.387 . S
C504 H508 0.950 . S
C504 C513 1.390 . S
C505 C504 1.387 . S
C505 C507 1.387 . S
H506 C513 0.950 . S
C507 C505 1.387 . S
C507 C509 1.390 . S
C507 H511 0.950 . S
H508 C504 0.950 . S
C509 C507 1.390 . S
C509 C510 1.387 . S
C509 H512 0.950 . S
C510 C509 1.387 . S
C510 C513 1.387 . S
H511 C507 0.950 . S
H512 C509 0.950 . S
C513 C504 1.390 . S
C513 H506 0.950 . S
C513 C510 1.387 . S
C514 C515 1.387 . S
C514 H518 0.950 . S
C514 C523 1.390 . S
C515 C514 1.387 . S
C515 C517 1.387 . S
H516 C523 0.950 . S
C517 C515 1.387 . S
C517 C519 1.390 . S
C517 H521 0.950 . S
H518 C514 0.950 . S
C519 C517 1.390 . S
C519 C520 1.387 . S
C519 H522 0.950 . S
C520 C519 1.387 . S
C520 C523 1.387 . S
H521 C517 0.950 . S
H522 C519 0.950 . S
C523 C514 1.390 . S
C523 H516 0.950 . S
C523 C520 1.387 . S
C524 C525 1.387 1_565 S
C524 H528 0.950 . S
C524 C533 1.390 . S
C525 C524 1.387 1_545 S
C525 C527 1.387 1_556 S
H526 C533 0.950 . S
C527 C525 1.387 1_554 S
C527 C529 1.390 1_545 S
C527 H531 0.950 . S
H528 C524 0.950 . S
C529 C527 1.390 1_565 S
C529 C530 1.387 . S
C529 H532 0.950 1_565 S
C530 C529 1.387 . S
C530 C533 1.387 1_554 S
H531 C527 0.950 . S
H532 C529 0.950 1_545 S
C533 C524 1.390 . S
C533 H526 0.950 . S
C533 C530 1.387 1_556 S
C534 C535 1.387 . S
C534 H538 0.950 . S
C534 C543 1.390 . S
C535 C534 1.387 . S
C535 C537 1.387 . S
H536 C543 0.950 . S
C537 C535 1.387 . S
C537 C539 1.390 . S
C537 H541 0.950 . S
H538 C534 0.950 . S
C539 C537 1.390 . S
C539 C540 1.387 . S
C539 H542 0.950 . S
C540 C539 1.387 . S
C540 C543 1.387 . S
H541 C537 0.950 . S
H542 C539 0.950 . S
C543 C534 1.390 . S
C543 H536 0.950 . S
C543 C540 1.387 . S
C544 C545 1.387 . S
C544 H548 0.950 . S
C544 C553 1.390 . S
C545 C544 1.387 . S
C545 C547 1.387 . S
H546 C553 0.950 . S
C547 C545 1.387 . S
C547 C549 1.390 . S
C547 H551 0.950 . S
H548 C544 0.950 . S
C549 C547 1.390 . S
C549 C550 1.387 . S
C549 H552 0.950 . S
C550 C549 1.387 . S
C550 C553 1.387 . S
H551 C547 0.950 . S
H552 C549 0.950 . S
C553 C544 1.390 . S
C553 H546 0.950 . S
C553 C550 1.387 . S
C554 C555 1.387 . S
C554 H558 0.950 . S
C554 C563 1.390 . S
C555 C554 1.387 . S
C555 C557 1.387 . S
H556 C563 0.950 . S
C557 C555 1.387 . S
C557 C559 1.390 . S
C557 H561 0.950 . S
H558 C554 0.950 . S
C559 C557 1.390 . S
C559 C560 1.387 . S
C559 H562 0.950 . S
C560 C559 1.387 . S
C560 C563 1.387 . S
H561 C557 0.950 . S
H562 C559 0.950 . S
C563 C554 1.390 . S
C563 H556 0.950 . S
C563 C560 1.387 . S
C564 C565 1.387 . S
C564 H568 0.950 . S
C564 C573 1.390 . S
C565 C564 1.387 . S
C565 C567 1.387 . S
H566 C573 0.950 . S
C567 C565 1.387 . S
C567 C569 1.390 . S
C567 H571 0.950 . S
H568 C564 0.950 . S
C569 C567 1.390 . S
C569 C570 1.387 . S
C569 H572 0.950 . S
C570 C569 1.387 . S
C570 C573 1.387 . S
H571 C567 0.950 . S
H572 C569 0.950 . S
C573 C564 1.390 . S
C573 H566 0.950 . S
C573 C570 1.387 . S
C574 C575 1.387 . S
C574 H578 0.950 . S
C574 C583 1.390 . S
C575 C574 1.387 . S
C575 C577 1.387 . S
H576 C583 0.950 . S
C577 C575 1.387 . S
C577 C579 1.390 . S
C577 H581 0.950 . S
H578 C574 0.950 . S
C579 C577 1.390 . S
C579 C580 1.387 . S
C579 H582 0.950 . S
C580 C579 1.387 . S
C580 C583 1.387 . S
H581 C577 0.950 . S
H582 C579 0.950 . S
C583 C574 1.390 . S
C583 H576 0.950 . S
C583 C580 1.387 . S
C584 C585 1.387 . S
C584 H588 0.950 . S
C584 C593 1.390 . S
C585 C584 1.387 . S
C585 C587 1.387 . S
H586 C593 0.950 . S
C587 C585 1.387 . S
C587 C589 1.390 . S
C587 H591 0.950 . S
H588 C584 0.950 . S
C589 C587 1.390 . S
C589 C590 1.387 . S
C589 H592 0.950 . S
C590 C589 1.387 . S
C590 C593 1.387 . S
H591 C587 0.950 . S
H592 C589 0.950 . S
C593 C584 1.390 . S
C593 H586 0.950 . S
C593 C590 1.387 . S
C594 C595 1.387 . S
C594 H598 0.950 1_545 S
C594 C603 1.390 . S
C595 C594 1.387 . S
C595 C597 1.387 . S
H596 C603 0.950 1_565 S
C597 C595 1.387 . S
C597 C599 1.390 . S
C597 H601 0.950 . S
H598 C594 0.950 1_565 S
C599 C597 1.390 . S
C599 C600 1.387 . S
C599 H602 0.950 . S
C600 C599 1.387 . S
C600 C603 1.387 . S
H601 C597 0.950 . S
H602 C599 0.950 . S
C603 C594 1.390 . S
C603 H596 0.950 1_545 S
C603 C600 1.387 . S
C604 C605 1.387 . S
C604 H608 0.950 . S
C604 C613 1.390 . S
C605 C604 1.387 . S
C605 C607 1.387 . S
H606 C613 0.950 . S
C607 C605 1.387 . S
C607 C609 1.390 . S
C607 H611 0.950 . S
H608 C604 0.950 . S
C609 C607 1.390 . S
C609 C610 1.387 . S
C609 H612 0.950 . S
C610 C609 1.387 . S
C610 C613 1.387 . S
H611 C607 0.950 . S
H612 C609 0.950 . S
C613 C604 1.390 . S
C613 H606 0.950 . S
C613 C610 1.387 . S
C614 C615 1.387 . S
C614 H618 0.950 . S
C614 C623 1.390 . S
C615 C614 1.387 . S
C615 C617 1.387 . S
H616 C623 0.950 . S
C617 C615 1.387 . S
C617 C619 1.390 . S
C617 H621 0.950 . S
H618 C614 0.950 . S
C619 C617 1.390 . S
C619 C620 1.387 . S
C619 H622 0.950 . S
C620 C619 1.387 . S
C620 C623 1.387 . S
H621 C617 0.950 . S
H622 C619 0.950 . S
C623 C614 1.390 . S
C623 H616 0.950 . S
C623 C620 1.387 . S
C624 C625 1.387 . S
C624 H628 0.950 . S
C624 C633 1.390 . S
C625 C624 1.387 . S
C625 C627 1.387 . S
H626 C633 0.950 . S
C627 C625 1.387 . S
C627 C629 1.390 . S
C627 H631 0.950 . S
H628 C624 0.950 . S
C629 C627 1.390 . S
C629 C630 1.387 . S
C629 H632 0.950 . S
C630 C629 1.387 . S
C630 C633 1.387 . S
H631 C627 0.950 . S
H632 C629 0.950 . S
C633 C624 1.390 . S
C633 H626 0.950 . S
C633 C630 1.387 . S
C634 C635 1.387 . S
C634 H638 0.950 . S
C634 C643 1.390 . S
C635 C634 1.387 . S
C635 C637 1.387 . S
H636 C643 0.950 . S
C637 C635 1.387 . S
C637 C639 1.390 . S
C637 H641 0.950 1_545 S
H638 C634 0.950 . S
C639 C637 1.390 . S
C639 C640 1.390 . S
C639 H642 0.949 1_445 S
C640 C639 1.390 . S
C640 C643 1.389 . S
H641 C637 0.950 1_565 S
H642 C639 0.949 1_665 S
C643 C634 1.390 . S
C643 H636 0.950 . S
C643 C640 1.389 . S
C644 C645 1.387 . S
C644 H648 0.950 . S
C644 C653 1.390 . S
C645 C644 1.387 . S
C645 C647 1.387 . S
H646 C653 0.950 . S
C647 C645 1.387 . S
C647 C649 1.390 . S
C647 H651 0.950 . S
H648 C644 0.950 . S
C649 C647 1.390 . S
C649 C650 1.387 . S
C649 H652 0.950 . S
C650 C649 1.387 . S
C650 C653 1.387 . S
H651 C647 0.950 . S
H652 C649 0.950 . S
C653 C644 1.390 . S
C653 H646 0.950 . S
C653 C650 1.387 . S
C654 C655 1.387 . S
C654 H658 0.950 . S
C654 C663 1.390 . S
C655 C654 1.387 . S
C655 C657 1.387 . S
H656 C663 0.950 . S
C657 C655 1.387 . S
C657 C659 1.390 . S
C657 H661 0.950 . S
H658 C654 0.950 . S
C659 C657 1.390 . S
C659 C660 1.387 . S
C659 H662 0.950 . S
C660 C659 1.387 . S
C660 C663 1.387 . S
H661 C657 0.950 . S
H662 C659 0.950 . S
C663 C654 1.390 . S
C663 H656 0.950 . S
C663 C660 1.387 . S
C664 C665 1.387 . S
C664 H668 0.950 . S
C664 C673 1.390 . S
C665 C664 1.387 . S
C665 C667 1.387 . S
H666 C673 0.950 . S
C667 C665 1.387 . S
C667 C669 1.390 . S
C667 H671 0.950 . S
H668 C664 0.950 . S
C669 C667 1.390 . S
C669 C670 1.387 . S
C669 H672 0.950 . S
C670 C669 1.387 . S
C670 C673 1.387 . S
H671 C667 0.950 . S
H672 C669 0.950 . S
C673 C664 1.390 . S
C673 H666 0.950 . S
C673 C670 1.387 . S
C674 C675 1.387 1_556 S
C674 H678 0.950 . S
C674 C683 1.390 . S
C675 C674 1.387 1_554 S
C675 C677 1.391 1_655 S
H676 C683 0.950 . S
C677 C675 1.391 1_455 S
C677 C679 1.374 1_554 S
C677 H681 0.964 . S
H678 C674 0.950 . S
C679 C677 1.374 1_556 S
C679 C680 1.409 . S
C679 H682 0.950 . S
C680 C679 1.409 . S
C680 C683 1.358 1_455 S
H681 C677 0.964 . S
H682 C679 0.950 . S
C683 C674 1.390 . S
C683 H676 0.950 . S
C683 C680 1.358 1_655 S
C684 C685 1.387 . S
C684 H688 0.950 . S
C684 C693 1.390 . S
C685 C684 1.387 . S
C685 C687 1.387 . S
H686 C693 0.950 . S
C687 C685 1.387 . S
C687 C689 1.390 . S
C687 H691 0.950 . S
H688 C684 0.950 . S
C689 C687 1.390 . S
C689 C690 1.387 . S
C689 H692 0.950 . S
C690 C689 1.387 . S
C690 C693 1.387 . S
H691 C687 0.950 . S
H692 C689 0.950 . S
C693 C684 1.390 . S
C693 H686 0.950 . S
C693 C690 1.387 . S
C694 C695 1.387 . S
C694 H698 0.950 1_556 S
C694 C703 1.390 . S
C695 C694 1.387 . S
C695 C697 1.387 . S
H696 C703 0.950 . S
C697 C695 1.387 . S
C697 C699 1.390 . S
C697 H701 0.950 . S
H698 C694 0.950 1_554 S
C699 C697 1.390 . S
C699 C700 1.387 . S
C699 H702 0.950 . S
C700 C699 1.387 . S
C700 C703 1.387 . S
H701 C697 0.950 . S
H702 C699 0.950 . S
C703 C694 1.390 . S
C703 H696 0.950 . S
C703 C700 1.387 . S
C704 C705 1.387 . S
C704 H708 0.950 . S
C704 C713 1.390 . S
C705 C704 1.387 . S
C705 C707 1.387 . S
H706 C713 0.950 . S
C707 C705 1.387 . S
C707 C709 1.390 . S
C707 H711 0.950 . S
H708 C704 0.950 . S
C709 C707 1.390 . S
C709 C710 1.387 . S
C709 H712 0.950 . S
C710 C709 1.387 . S
C710 C713 1.387 . S
H711 C707 0.950 . S
H712 C709 0.950 . S
C713 C704 1.390 . S
C713 H706 0.950 . S
C713 C710 1.387 . S
C714 C715 1.387 . S
C714 H718 0.950 . S
C714 C723 1.390 . S
C715 C714 1.387 . S
C715 C717 1.387 . S
H716 C723 0.950 . S
C717 C715 1.387 . S
C717 C719 1.390 . S
C717 H721 0.950 . S
H718 C714 0.950 . S
C719 C717 1.390 . S
C719 C720 1.387 . S
C719 H722 0.950 . S
C720 C719 1.387 . S
C720 C723 1.387 . S
H721 C717 0.950 . S
H722 C719 0.950 . S
C723 C714 1.390 . S
C723 H716 0.950 . S
C723 C720 1.387 . S
C724 C725 1.387 . S
C724 H728 0.950 . S
C724 C733 1.390 . S
C725 C724 1.387 . S
C725 C727 1.387 . S
H726 C733 0.950 . S
C727 C725 1.387 . S
C727 C729 1.390 . S
C727 H731 0.950 . S
H728 C724 0.950 . S
C729 C727 1.390 . S
C729 C730 1.387 . S
C729 H732 0.950 . S
C730 C729 1.387 . S
C730 C733 1.387 . S
H731 C727 0.950 . S
H732 C729 0.950 . S
C733 C724 1.390 . S
C733 H726 0.950 . S
C733 C730 1.387 . S
C734 C735 1.387 . S
C734 H738 0.950 . S
C734 C743 1.390 . S
C735 C734 1.387 . S
C735 C737 1.387 . S
H736 C743 0.950 . S
C737 C735 1.387 . S
C737 C739 1.390 . S
C737 H741 0.950 . S
H738 C734 0.950 . S
C739 C737 1.390 . S
C739 C740 1.387 . S
C739 H742 0.950 . S
C740 C739 1.387 . S
C740 C743 1.387 . S
H741 C737 0.950 . S
H742 C739 0.950 . S
C743 C734 1.390 . S
C743 H736 0.950 . S
C743 C740 1.387 . S
C744 C745 1.387 . S
C744 H748 0.950 . S
C744 C753 1.390 . S
C745 C744 1.387 . S
C745 C747 1.387 . S
H746 C753 0.950 . S
C747 C745 1.387 . S
C747 C749 1.390 . S
C747 H751 0.950 . S
H748 C744 0.950 . S
C749 C747 1.390 . S
C749 C750 1.387 . S
C749 H752 0.950 . S
C750 C749 1.387 . S
C750 C753 1.387 . S
H751 C747 0.950 . S
H752 C749 0.950 . S
C753 C744 1.390 . S
C753 H746 0.950 . S
C753 C750 1.387 . S
C754 C755 1.387 . S
C754 H758 0.950 . S
C754 C763 1.390 . S
C755 C754 1.387 . S
C755 C757 1.387 . S
H756 C763 0.950 . S
C757 C755 1.387 . S
C757 C759 1.390 . S
C757 H761 0.950 . S
H758 C754 0.950 . S
C759 C757 1.390 . S
C759 C760 1.387 . S
C759 H762 0.950 . S
C760 C759 1.387 . S
C760 C763 1.387 . S
H761 C757 0.950 . S
H762 C759 0.950 . S
C763 C754 1.390 . S
C763 H756 0.950 . S
C763 C760 1.387 . S
C764 C765 1.387 . S
C764 H768 0.950 . S
C764 C773 1.390 . S
C765 C764 1.387 . S
C765 C767 1.387 . S
H766 C773 0.950 . S
C767 C765 1.387 . S
C767 C769 1.390 . S
C767 H771 0.950 . S
H768 C764 0.950 . S
C769 C767 1.390 . S
C769 C770 1.387 . S
C769 H772 0.950 . S
C770 C769 1.387 . S
C770 C773 1.387 . S
H771 C767 0.950 . S
H772 C769 0.950 . S
C773 C764 1.390 . S
C773 H766 0.950 . S
C773 C770 1.387 . S
C774 C775 1.387 . S
C774 H778 0.950 . S
C774 C783 1.390 . S
C775 C774 1.387 . S
C775 C777 1.387 . S
H776 C783 0.950 . S
C777 C775 1.387 . S
C777 C779 1.390 . S
C777 H781 0.950 . S
H778 C774 0.950 . S
C779 C777 1.390 . S
C779 C780 1.387 . S
C779 H782 0.950 . S
C780 C779 1.387 . S
C780 C783 1.387 . S
H781 C777 0.950 . S
H782 C779 0.950 . S
C783 C774 1.390 . S
C783 H776 0.950 . S
C783 C780 1.387 . S
C784 C785 1.387 1_554 S
C784 H788 0.950 . S
C784 C793 1.390 . S
C785 C784 1.387 1_556 S
C785 C787 1.387 . S
H786 C793 0.950 . S
C787 C785 1.387 . S
C787 C789 1.390 . S
C787 H791 0.950 . S
H788 C784 0.950 . S
C789 C787 1.390 . S
C789 C790 1.387 . S
C789 H792 0.950 . S
C790 C789 1.387 . S
C790 C793 1.387 1_556 S
H791 C787 0.950 . S
H792 C789 0.950 . S
C793 C784 1.390 . S
C793 H786 0.950 . S
C793 C790 1.387 1_554 S
C794 C795 1.387 . S
C794 H798 0.950 . S
C794 C803 1.390 . S
C795 C794 1.387 . S
C795 C797 1.387 . S
H796 C803 0.950 . S
C797 C795 1.387 . S
C797 C799 1.390 . S
C797 H801 0.950 . S
H798 C794 0.950 . S
C799 C797 1.390 . S
C799 C800 1.387 . S
C799 H802 0.950 . S
C800 C799 1.387 . S
C800 C803 1.387 . S
H801 C797 0.950 . S
H802 C799 0.950 . S
C803 C794 1.390 . S
C803 H796 0.950 . S
C803 C800 1.387 . S
C804 C805 1.387 . S
C804 H808 0.950 1_554 S
C804 C813 1.390 1_554 S
C805 C804 1.387 . S
C805 C807 1.387 . S
H806 C813 0.950 . S
C807 C805 1.387 . S
C807 C809 1.390 . S
C807 H811 0.950 . S
H808 C804 0.950 1_556 S
C809 C807 1.390 . S
C809 C810 1.387 . S
C809 H812 0.950 . S
C810 C809 1.387 . S
C810 C813 1.387 1_554 S
H811 C807 0.950 . S
H812 C809 0.950 . S
C813 C804 1.390 1_556 S
C813 H806 0.950 . S
C813 C810 1.387 1_556 S
C814 C815 1.392 . S
C814 H818 0.950 1_565 S
C814 C823 1.390 . S
C815 C814 1.392 . S
C815 C817 1.391 . S
H816 C823 0.950 . S
C817 C815 1.391 . S
C817 C819 1.390 . S
C817 H821 0.950 . S
H818 C814 0.950 1_545 S
C819 C817 1.390 . S
C819 C820 1.387 . S
C819 H822 0.950 . S
C820 C819 1.387 . S
C820 C823 1.387 . S
H821 C817 0.950 . S
H822 C819 0.950 . S
C823 C814 1.390 . S
C823 H816 0.950 . S
C823 C820 1.387 . S
C350 C184 1.578 . S
C345 C60 1.627 . S
C360 C197 1.364 . S
C355 C76 1.368 . S
C365 C81 1.765 . S
C370 C217 1.623 . S
C380 C231 1.408 . S
C375 C48 1.503 . S
C390 C243 1.523 . S
C385 C115 1.529 . S
C400 C257 1.550 . S
C395 C136 1.554 . S
C405 C131 1.371 . S
C410 C267 1.352 . S
C420 C282 1.553 . S
C415 C104 1.547 . S
C425 C126 1.500 . S
C430 C296 1.444 . S
C440 C315 1.286 . S
C435 C103 1.372 . S
C445 C120 1.419 . S
C450 C295 1.404 . S
C460 C313 1.405 . S
C455 C142 1.413 . S
C465 C82 1.645 . S
C470 C329 1.540 . S
C475 C54 1.713 . S
C480 C323 1.705 . S
C485 C65 1.448 . S
C490 C327 1.456 . S
C495 C71 1.348 . S
C500 C324 1.342 . S
C505 C37 1.563 . S
C510 C226 1.546 . S
C515 C158 1.813 . S
C520 C225 1.802 . S
C530 C189 1.344 . S
C525 C169 1.387 . S
C540 C203 1.348 . S
C535 C98 1.461 . S
C545 C49 1.688 1_545 S
C550 C240 1.700 . S
C560 C285 1.470 . S
C555 C125 1.476 . S
C570 C239 1.418 . S
C565 C109 1.421 . S
C580 C271 1.673 . S
C575 C137 1.664 . S
C590 C268 1.578 . S
C585 C159 1.627 . S
C595 C175 1.368 . S
C600 C281 1.364 . S
C605 C92 1.764 . S
C610 C245 1.619 . S
C620 C259 1.411 . S
C615 C147 1.504 . S
C625 C38 1.528 . S
C630 C215 1.524 . S
C640 C229 1.545 1_455 S
C635 C4 1.554 . S
C650 C183 1.352 . S
C645 C21 1.371 . S
C660 C198 1.553 . S
C655 C27 1.547 . S
C665 C16 1.499 . S
C670 C310 1.445 . S
C675 C26 1.373 . S
C680 C301 1.295 . S
C685 C43 1.420 . S
C690 C309 1.404 . S
C695 C10 1.414 1_556 S
C700 C299 1.403 . S
C710 C343 1.540 . S
C705 C93 1.645 . S
C720 C337 1.705 . S
C715 C153 1.713 . S
C730 C341 1.457 . S
C725 C164 1.449 . S
C735 C170 1.345 1_554 S
C740 C338 1.342 . S
C745 C114 1.563 . S
C750 C254 1.547 . S
C760 C253 1.803 . S
C755 C59 1.814 . S
C770 C273 1.345 . S
C765 C70 1.387 . S
C780 C287 1.348 . S
C775 C87 1.461 . S
C785 C148 1.686 . S
C790 C212 1.700 . S
C800 C201 1.469 . S
C795 C15 1.475 . S
C805 C32 1.420 . S
C810 C211 1.418 . S
C820 C187 1.673 . S
C815 C5 1.657 1_565 S
