# Generated by pormake.
# Topology anh, (6,3)-cn, num edge types: 1
# Building blocks:
#     Node 0, Type 0, BuildingBlock: BETFAJ_clean_sbu_0, # of connection points: 6
#     Node 1, Type 0, BuildingBlock: BETFAJ_clean_sbu_0, # of connection points: 6
#     Node 2, Type 0, BuildingBlock: BETFAJ_clean_sbu_0, # of connection points: 6
#     Node 3, Type 1, BuildingBlock: KAKCAD_clean_linker_0, # of connection points: 3
#     Node 4, Type 1, BuildingBlock: KAKCAD_clean_linker_0, # of connection points: 3
#     Node 5, Type 1, BuildingBlock: KAKCAD_clean_linker_0, # of connection points: 3
#     Node 6, Type 1, BuildingBlock: KAKCAD_clean_linker_0, # of connection points: 3
#     Node 7, Type 1, BuildingBlock: KAKCAD_clean_linker_0, # of connection points: 3
#     Node 8, Type 1, BuildingBlock: KAKCAD_clean_linker_0, # of connection points: 3
#     Edge 9, Type (0, 1), BuildingBlock: ZUJKAS_clean_linker_0, # of connection points: 2
#     Edge 10, Type (0, 1), BuildingBlock: ZUJKAS_clean_linker_0, # of connection points: 2
#     Edge 11, Type (0, 1), BuildingBlock: ZUJKAS_clean_linker_0, # of connection points: 2
#     Edge 12, Type (0, 1), BuildingBlock: ZUJKAS_clean_linker_0, # of connection points: 2
#     Edge 13, Type (0, 1), BuildingBlock: ZUJKAS_clean_linker_0, # of connection points: 2
#     Edge 14, Type (0, 1), BuildingBlock: ZUJKAS_clean_linker_0, # of connection points: 2
#     Edge 15, Type (0, 1), BuildingBlock: ZUJKAS_clean_linker_0, # of connection points: 2
#     Edge 16, Type (0, 1), BuildingBlock: ZUJKAS_clean_linker_0, # of connection points: 2
#     Edge 17, Type (0, 1), BuildingBlock: ZUJKAS_clean_linker_0, # of connection points: 2
#     Edge 18, Type (0, 1), BuildingBlock: ZUJKAS_clean_linker_0, # of connection points: 2
#     Edge 19, Type (0, 1), BuildingBlock: ZUJKAS_clean_linker_0, # of connection points: 2
#     Edge 20, Type (0, 1), BuildingBlock: ZUJKAS_clean_linker_0, # of connection points: 2
#     Edge 21, Type (0, 1), BuildingBlock: ZUJKAS_clean_linker_0, # of connection points: 2
#     Edge 22, Type (0, 1), BuildingBlock: ZUJKAS_clean_linker_0, # of connection points: 2
#     Edge 23, Type (0, 1), BuildingBlock: ZUJKAS_clean_linker_0, # of connection points: 2
#     Edge 24, Type (0, 1), BuildingBlock: ZUJKAS_clean_linker_0, # of connection points: 2
#     Edge 25, Type (0, 1), BuildingBlock: ZUJKAS_clean_linker_0, # of connection points: 2
#     Edge 26, Type (0, 1), BuildingBlock: ZUJKAS_clean_linker_0, # of connection points: 2
# Relax obj value: 0.164
# Max RMSD: 0.198
# Mean RMSD: 0.149
data_MOF--net-anh--node1-BETFAJ_clean_sbu_0--node2-KAKCAD_clean_linker_0--edge1-ZUJKAS_clean_linker_0
_symmetry_space_group_name_H-M    P1
_symmetry_Int_Tables_number       1
_symmetry_cell_setting            triclinic
loop_
_symmetry_equiv_pos_as_xyz
'x, y, z'
_cell_length_a     47.854838
_cell_length_b     52.845582
_cell_length_c     82.661775
_cell_angle_alpha  92.28047
_cell_angle_beta   89.741634
_cell_angle_gamma 127.35553
loop_
_atom_site_label
_atom_site_type_symbol
_atom_site_fract_x
_atom_site_fract_y
_atom_site_fract_z
_atom_type_partial_charge
Sm0 Sm 0.06971 0.51527 0.14846 0.0
Sm1 Sm 0.02755 0.54179 0.16002 0.0
C2 C 0.11362 0.50697 0.13491 0.0
C3 C 0.14943 0.5205 0.14022 0.0
C4 C 0.16869 0.51232 0.13199 0.0
C5 C 0.20153 0.52308 0.13816 0.0
C6 C 0.21534 0.54202 0.15266 0.0
C7 C 0.19632 0.55094 0.16057 0.0
C8 C 0.16362 0.54028 0.15438 0.0
C9 C 0.06086 0.51678 0.18117 0.0
C10 C 0.11248 0.59419 0.15571 0.0
C11 C 0.99075 0.55194 0.17912 0.0
C12 C 0.95277 0.53319 0.18109 0.0
C13 C 0.93917 0.53819 0.19482 0.0
C14 C 0.90311 0.51734 0.19768 0.0
C15 C 0.88045 0.49105 0.18692 0.0
C16 C 0.89428 0.48653 0.17304 0.0
C17 C 0.93013 0.50746 0.17015 0.0
C18 C 1.02258 0.53152 0.12646 0.0
C19 C 0.98543 0.46431 0.15191 0.0
O20 O 0.1092 0.52752 0.12985 0.0
O21 O 0.08926 0.48681 0.14478 0.0
O22 O 0.06721 0.53765 0.17162 0.0
O23 O 0.0619 0.49531 0.1737 0.0
O24 O 0.1133 0.5703 0.15096 0.0
O25 O 0.08307 0.58956 0.16011 0.0
O26 O 1.00373 0.53747 0.18367 0.0
O27 O 1.00288 0.56568 0.16527 0.0
O28 O 0.03767 0.52653 0.13673 0.0
O29 O 1.0084 0.543 0.13409 0.0
O30 O 0.98713 0.48685 0.16061 0.0
O31 O 1.01251 0.47053 0.14353 0.0
H32 H 0.15793 0.49692 0.12111 0.0
H33 H 0.21542 0.51546 0.13194 0.0
H34 H 0.20643 0.56563 0.17169 0.0
H35 H 0.14891 0.5467 0.1609 0.0
H36 H 0.95649 0.55769 0.20351 0.0
H37 H 0.89306 0.52131 0.20846 0.0
H38 H 0.87736 0.46683 0.16439 0.0
H39 H 0.94034 0.50311 0.15956 0.0
Sm40 Sm 0.56173 0.01207 0.48288 0.0
Sm41 Sm 0.51972 0.03563 0.47774 0.0
C42 C 0.58823 0.98346 0.4931 0.0
C43 C 0.57909 0.95162 0.49544 0.0
C44 C 0.55365 0.93073 0.50652 0.0
C45 C 0.54775 0.90194 0.50948 0.0
C46 C 0.56715 0.89342 0.50144 0.0
C47 C 0.59182 0.91399 0.49003 0.0
C48 C 0.59779 0.94277 0.48713 0.0
C49 C 0.55762 0.02306 0.45106 0.0
C50 C 0.4758 0.95978 0.47616 0.0
C51 C 0.4939 0.06603 0.46981 0.0
C52 C 0.49874 0.09542 0.47542 0.0
C53 C 0.50527 0.1175 0.46416 0.0
C54 C 0.50989 0.14544 0.46925 0.0
C55 C 0.50788 0.15182 0.48575 0.0
C56 C 0.50137 0.12959 0.497 0.0
C57 C 0.49701 0.1018 0.49192 0.0
C58 C 0.52629 0.02656 0.50973 0.0
C59 C 0.60687 0.08808 0.48124 0.0
O60 O 0.57436 0.99317 0.50273 0.0
O61 O 0.59058 0.99186 0.4782 0.0
O62 O 0.53216 0.00971 0.4606 0.0
O63 O 0.58588 0.02995 0.45802 0.0
O64 O 0.5039 0.96577 0.48351 0.0
O65 O 0.47699 0.98312 0.47008 0.0
O66 O 0.52033 0.06975 0.46243 0.0
O67 O 0.47853 0.04258 0.47967 0.0
O68 O 0.55069 0.0394 0.49971 0.0
O69 O 0.49758 0.01921 0.5032 0.0
O70 O 0.57705 0.0818 0.47606 0.0
O71 O 0.60762 0.06535 0.48668 0.0
H72 H 0.53882 0.93688 0.51316 0.0
H73 H 0.52879 0.88686 0.51846 0.0
H74 H 0.60678 0.90799 0.48339 0.0
H75 H 0.61757 0.95844 0.47855 0.0
H76 H 0.5069 0.11318 0.45139 0.0
H77 H 0.51541 0.16218 0.46026 0.0
H78 H 0.49912 0.13338 0.50976 0.0
H79 H 0.49214 0.08529 0.50092 0.0
Sm80 Sm 0.57928 0.56248 0.85058 0.0
Sm81 Sm 0.52955 0.48682 0.85174 0.0
C82 C 0.61088 0.62293 0.84405 0.0
C83 C 0.60338 0.64487 0.8391 0.0
C84 C 0.5755 0.63506 0.82834 0.0
C85 C 0.56974 0.65683 0.82365 0.0
C86 C 0.59171 0.68882 0.82964 0.0
C87 C 0.6192 0.69823 0.84062 0.0
C88 C 0.62496 0.67653 0.84525 0.0
C89 C 0.56955 0.53767 0.88028 0.0
C90 C 0.48983 0.5224 0.85245 0.0
C91 C 0.49823 0.42807 0.86093 0.0
C92 C 0.50074 0.40257 0.85552 0.0
C93 C 0.47952 0.37259 0.86226 0.0
C94 C 0.48231 0.34856 0.85722 0.0
C95 C 0.50647 0.35409 0.84535 0.0
C96 C 0.52763 0.38428 0.83863 0.0
C97 C 0.52479 0.40823 0.84366 0.0
C98 C 0.54468 0.50431 0.81986 0.0
C99 C 0.61931 0.52769 0.85117 0.0
O100 O 0.60546 0.6014 0.83327 0.0
O101 O 0.60171 0.61223 0.85862 0.0
O102 O 0.54614 0.5271 0.86939 0.0
O103 O 0.59939 0.5635 0.87606 0.0
O104 O 0.52174 0.54948 0.84964 0.0
O105 O 0.4864 0.49564 0.85473 0.0
O106 O 0.52651 0.45317 0.86824 0.0
O107 O 0.48389 0.43542 0.8505 0.0
O108 O 0.5553 0.5222 0.83242 0.0
O109 O 0.52432 0.47495 0.824 0.0
O110 O 0.58732 0.50085 0.85399 0.0
O111 O 0.62281 0.55415 0.84796 0.0
H112 H 0.55836 0.61068 0.82348 0.0
H113 H 0.54849 0.64874 0.81509 0.0
H114 H 0.63623 0.72239 0.84577 0.0
H115 H 0.64646 0.68456 0.85365 0.0
H116 H 0.46091 0.36782 0.87148 0.0
H117 H 0.4659 0.3258 0.86282 0.0
H118 H 0.54614 0.38932 0.82931 0.0
H119 H 0.5414 0.43124 0.83829 0.0
C120 C 0.56019 0.05786 0.26938 0.0
C121 C 0.55289 0.03166 0.27755 0.0
C122 C 0.56139 0.05809 0.25246 0.0
C123 C 0.5553 0.03212 0.24327 0.0
C124 C 0.54825 0.00603 0.25145 0.0
C125 C 0.54702 0.00579 0.26835 0.0
C126 C 0.55558 0.03193 0.22523 0.0
C127 C 0.58081 0.05959 0.21714 0.0
C128 C 0.58088 0.05995 0.20009 0.0
C129 C 0.55501 0.03152 0.19106 0.0
C130 C 0.52972 1.00335 0.19906 0.0
C131 C 0.53031 0.00404 0.21606 0.0
C132 C 0.50178 0.97273 0.19022 0.0
C133 C 0.47746 0.97066 0.17966 0.0
C134 C 0.49629 0.94441 0.1942 0.0
C135 C 0.4665 0.91468 0.18839 0.0
C136 C 0.44109 0.91231 0.17849 0.0
C137 C 0.60862 0.09031 0.19219 0.0
C138 C 0.61873 0.11974 0.19892 0.0
C139 C 0.62722 0.09063 0.17886 0.0
C140 C 0.65603 0.11965 0.1729 0.0
C141 C 0.66693 0.14913 0.18007 0.0
C142 C 0.64741 0.14859 0.19304 0.0
C143 C 0.44733 0.94077 0.17393 0.0
H144 H 0.56527 0.07836 0.27606 0.0
H145 H 0.56655 0.07844 0.24657 0.0
H146 H 0.54381 0.98577 0.24478 0.0
H147 H 0.54096 0.98506 0.2742 0.0
H148 H 0.60108 0.08084 0.2242 0.0
H149 H 0.51025 0.98277 0.22222 0.0
H150 H 0.55452 0.03126 0.17796 0.0
H151 H 0.48079 0.99203 0.17651 0.0
H152 H 0.5145 0.94522 0.20236 0.0
H153 H 0.4626 0.89345 0.19231 0.0
H154 H 0.60481 0.12054 0.20906 0.0
H155 H 0.62033 0.06849 0.1734 0.0
H156 H 0.42857 0.93992 0.16619 0.0
H157 H 0.65492 0.17052 0.19908 0.0
H158 H 0.66993 0.11893 0.16275 0.0
C159 C 0.54256 0.5458 0.64153 0.0
C160 C 0.5673 0.5439 0.64929 0.0
C161 C 0.53888 0.543 0.62465 0.0
C162 C 0.55976 0.53816 0.61509 0.0
C163 C 0.58461 0.53639 0.62282 0.0
C164 C 0.58837 0.53927 0.63971 0.0
C165 C 0.55543 0.53476 0.59714 0.0
C166 C 0.55112 0.55477 0.5887 0.0
C167 C 0.54654 0.55157 0.57176 0.0
C168 C 0.54624 0.52782 0.5632 0.0
C169 C 0.55063 0.50761 0.57145 0.0
C170 C 0.55529 0.51134 0.58839 0.0
C171 C 0.54982 0.48212 0.56256 0.0
C172 C 0.52318 0.46157 0.55094 0.0
C173 C 0.57489 0.47731 0.56619 0.0
C174 C 0.57295 0.45211 0.55866 0.0
C175 C 0.54567 0.43084 0.5474 0.0
C176 C 0.54287 0.57367 0.56316 0.0
C177 C 0.52177 0.58177 0.56948 0.0
C178 C 0.56184 0.58818 0.54911 0.0
C179 C 0.56071 0.6111 0.54191 0.0
C180 C 0.5404 0.61988 0.54854 0.0
C181 C 0.52052 0.60454 0.56226 0.0
C182 C 0.52103 0.43614 0.5435 0.0
H183 H 0.52545 0.54877 0.64852 0.0
H184 H 0.51913 0.54401 0.61909 0.0
H185 H 0.60145 0.53313 0.61579 0.0
H186 H 0.60804 0.53816 0.64526 0.0
H187 H 0.55226 0.57349 0.59534 0.0
H188 H 0.55778 0.49531 0.59484 0.0
H189 H 0.54263 0.52509 0.55015 0.0
H190 H 0.50328 0.46451 0.54801 0.0
H191 H 0.59604 0.49306 0.57491 0.0
H192 H 0.5929 0.44932 0.56171 0.0
H193 H 0.50652 0.57076 0.58018 0.0
H194 H 0.57849 0.5826 0.54399 0.0
H195 H 0.49942 0.4201 0.53504 0.0
H196 H 0.50484 0.61088 0.56777 0.0
H197 H 0.57603 0.6222 0.53124 0.0
C198 C 0.07703 0.53963 0.94457 0.0
C199 C 0.04421 0.5213 0.95204 0.0
C200 C 0.07917 0.54016 0.92765 0.0
C201 C 0.04854 0.52217 0.91771 0.0
C202 C 1.01574 0.5035 0.92523 0.0
C203 C 1.01361 0.50317 0.94214 0.0
C204 C 0.05076 0.52329 0.89962 0.0
C205 C 0.07737 0.52415 0.89167 0.0
C206 C 0.08134 0.52606 0.87475 0.0
C207 C 0.05542 0.52635 0.86555 0.0
C208 C 0.02744 0.52541 0.87359 0.0
C209 C 0.02651 0.52401 0.89053 0.0
C210 C 0.99826 0.52629 0.86596 0.0
C211 C 1.00155 0.55488 0.86624 0.0
C212 C 0.96333 0.49807 0.86337 0.0
C213 C 0.93379 0.49838 0.86116 0.0
C214 C 0.93687 0.52699 0.86169 0.0
C215 C 0.11405 0.52881 0.86846 0.0
C216 C 0.14766 0.5516 0.87599 0.0
C217 C 0.11204 0.50567 0.85805 0.0
C218 C 0.14159 0.50512 0.8557 0.0
C219 C 0.1749 0.52739 0.86379 0.0
C220 C 0.17686 0.55097 0.87375 0.0
C221 C 0.97206 0.55527 0.86404 0.0
H222 H 0.10112 0.55419 0.95181 0.0
H223 H 0.10489 0.55524 0.92237 0.0
H224 H 0.99158 0.48887 0.91803 0.0
H225 H 0.98791 0.48841 0.94747 0.0
H226 H 0.09539 0.52299 0.89888 0.0
H227 H 1.0066 0.52402 0.89684 0.0
H228 H 0.05737 0.52787 0.85253 0.0
H229 H 0.02708 0.57729 0.86901 0.0
H230 H 0.95846 0.47524 0.86376 0.0
H231 H 0.9082 0.47565 0.85929 0.0
H232 H 0.15121 0.56979 0.88428 0.0
H233 H 0.08706 0.48692 0.85224 0.0
H234 H 0.97709 0.57818 0.86493 0.0
H235 H 0.20125 0.5693 0.88011 0.0
H236 H 0.13769 0.48621 0.84792 0.0
C237 C 1.01045 0.50844 0.36309 0.0
C238 C 0.04154 0.51967 0.35486 0.0
C239 C 1.00964 0.50752 0.38 0.0
C240 C 0.03991 0.51786 0.38909 0.0
C241 C 0.07085 0.5287 0.38085 0.0
C242 C 0.07165 0.52958 0.36396 0.0
C243 C 0.03951 0.51807 0.40711 0.0
C244 C 1.01087 0.49246 0.4152 0.0
C245 C 1.00992 0.49263 0.43225 0.0
C246 C 0.03863 0.51931 0.44127 0.0
C247 C 0.06777 0.54514 0.43326 0.0
C248 C 0.06778 0.54413 0.41626 0.0
C249 C 0.09855 0.57395 0.44211 0.0
C250 C 0.09461 0.59371 0.45208 0.0
C251 C 0.13271 0.58435 0.43859 0.0
C252 C 0.16224 0.61429 0.44434 0.0
C253 C 0.15847 0.6349 0.45363 0.0
C254 C 0.9789 0.46431 0.44018 0.0
C255 C 0.94474 0.44929 0.43378 0.0
C256 C 0.98311 0.45038 0.45316 0.0
C257 C 0.95411 0.42145 0.45907 0.0
C258 C 0.92011 0.40579 0.45221 0.0
C259 C 0.91588 0.42051 0.43964 0.0
C260 C 0.12426 0.62396 0.4577 0.0
H261 H 0.98689 0.50098 0.3565 0.0
H262 H 0.98551 0.49941 0.38598 0.0
H263 H 0.09447 0.53633 0.38746 0.0
H264 H 0.09585 0.53777 0.35802 0.0
H265 H 0.98955 0.47186 0.40813 0.0
H266 H 0.0897 0.5643 0.41011 0.0
H267 H 0.03837 0.52001 0.45438 0.0
H268 H 0.06861 0.58647 0.45483 0.0
H269 H 0.13651 0.56971 0.43082 0.0
H270 H 0.18802 0.62191 0.44081 0.0
H271 H 0.94034 0.45946 0.4239 0.0
H272 H 1.00901 0.46118 0.45835 0.0
H273 H 0.12037 0.63906 0.46496 0.0
H274 H 0.89039 0.40927 0.43388 0.0
H275 H 0.95845 0.4112 0.46892 0.0
C276 C 0.52608 0.99226 0.69078 0.0
C277 C 0.54865 0.02097 0.68289 0.0
C278 C 0.52598 0.992 0.70771 0.0
C279 C 0.54825 0.02048 0.71715 0.0
C280 C 0.57081 0.04919 0.70926 0.0
C281 C 0.5711 0.04942 0.69233 0.0
C282 C 0.54786 0.02024 0.73516 0.0
C283 C 0.54704 0.99687 0.74317 0.0
C284 C 0.54664 0.99632 0.76018 0.0
C285 C 0.54704 0.01974 0.76923 0.0
C286 C 0.54776 0.04339 0.76141 0.0
C287 C 0.54821 0.04333 0.74438 0.0
C288 C 0.54735 0.06793 0.77077 0.0
C289 C 0.5245 0.05955 0.78373 0.0
C290 C 0.56852 0.09976 0.76617 0.0
C291 C 0.56623 0.1224 0.77398 0.0
C292 C 0.54267 0.11389 0.78663 0.0
C293 C 0.5464 0.97141 0.76824 0.0
C294 C 0.52475 0.93962 0.76207 0.0
C295 C 0.56911 0.97937 0.78149 0.0
C296 C 0.57096 0.95631 0.78804 0.0
C297 C 0.5499 0.92468 0.78159 0.0
C298 C 0.52643 0.91658 0.76866 0.0
C299 C 0.52211 0.08223 0.79153 0.0
H300 H 0.50868 0.96989 0.68387 0.0
H301 H 0.50809 0.96952 0.71341 0.0
H302 H 0.58851 0.0715 0.71618 0.0
H303 H 0.58858 0.07197 0.68664 0.0
H304 H 0.54766 0.97948 0.73612 0.0
H305 H 0.54781 0.06084 0.73822 0.0
H306 H 0.54674 0.01954 0.78234 0.0
H307 H 0.50766 0.03523 0.78753 0.0
H308 H 0.58671 0.10716 0.75636 0.0
H309 H 0.58226 0.14642 0.76975 0.0
H310 H 0.5067 0.93259 0.75197 0.0
H311 H 0.58628 1.00365 0.78648 0.0
H312 H 0.50399 0.07489 0.80135 0.0
H313 H 0.51003 0.89259 0.76327 0.0
H314 H 0.58905 0.96331 0.79811 0.0
C315 C 0.49127 0.39805 0.04713 0.0
C316 C 0.49806 0.42563 0.04093 0.0
C317 C 0.48517 0.39242 0.06366 0.0
C318 C 0.48599 0.41438 0.07424 0.0
C319 C 0.49399 0.44243 0.06803 0.0
C320 C 0.49976 0.44789 0.05159 0.0
C321 C 0.47833 0.40839 0.09171 0.0
C322 C 0.49277 0.39684 0.10089 0.0
C323 C 0.48821 0.39426 0.11776 0.0
C324 C 0.46813 0.40249 0.12522 0.0
C325 C 0.45486 0.41522 0.11635 0.0
C326 C 0.45902 0.41708 0.09956 0.0
C327 C 0.44166 0.43102 0.12495 0.0
C328 C 0.41887 0.41691 0.13799 0.0
C329 C 0.45452 0.46189 0.12095 0.0
C330 C 0.44491 0.47838 0.1298 0.0
C331 C 0.42211 0.46435 0.14284 0.0
C332 C 0.5082 0.38735 0.12794 0.0
C333 C 0.51431 0.36552 0.12259 0.0
C334 C 0.52316 0.40425 0.14288 0.0
C335 C 0.54419 0.40002 0.15205 0.0
C336 C 0.55173 0.37943 0.14639 0.0
C337 C 0.53596 0.36164 0.13172 0.0
C338 C 0.40913 0.43342 0.14685 0.0
H339 H 0.48983 0.38052 0.03914 0.0
H340 H 0.47908 0.3706 0.06809 0.0
H341 H 0.49596 0.46037 0.0759 0.0
H342 H 0.5058 0.46973 0.04721 0.0
H343 H 0.50948 0.39196 0.09507 0.0
H344 H 0.44805 0.42634 0.09268 0.0
H345 H 0.46478 0.40104 0.1382 0.0
H346 H 0.40862 0.39314 0.14133 0.0
H347 H 0.47289 0.47375 0.11125 0.0
H348 H 0.4558 0.50236 0.12658 0.0
H349 H 0.50293 0.35189 0.11123 0.0
H350 H 0.51987 0.42182 0.14732 0.0
H351 H 0.3911 0.42184 0.15669 0.0
H352 H 0.54145 0.3457 0.12698 0.0
H353 H 0.55545 0.4137 0.16342 0.0
H354 H 0.22716 0.53741 0.18431 0.0
H355 H 0.27667 0.54082 0.19547 0.0
H356 H 0.32548 0.5664 0.14886 0.0
H357 H 0.27669 0.56384 0.13782 0.0
H358 H 0.28688 0.49957 0.18391 0.0
H359 H 0.41103 0.61915 0.17834 0.0
H360 H 0.36905 0.61213 0.17877 0.0
H361 H 0.38564 0.60808 0.15998 0.0
C362 C 0.24915 0.54499 0.17664 0.0
C363 C 0.248 0.55005 0.16015 0.0
C364 C 0.2774 0.54694 0.18304 0.0
C365 C 0.305 0.55426 0.17308 0.0
C366 C 0.30498 0.56152 0.15692 0.0
H367 H 0.40367 0.49903 0.13007 0.0
H368 H 0.38299 0.52579 0.14425 0.0
C369 C 0.27678 0.55952 0.15052 0.0
C370 C 0.32952 0.54764 0.17811 0.0
H371 H 0.41312 0.57398 0.1709 0.0
C372 C 0.31484 0.51618 0.18179 0.0
C373 C 0.36603 0.56942 0.17565 0.0
C374 C 0.38381 0.60417 0.17315 0.0
C375 C 0.33462 0.50472 0.18056 0.0
C376 C 0.36991 0.52549 0.17573 0.0
C377 C 0.38583 0.55799 0.17435 0.0
C378 C 0.38709 0.51263 0.16809 0.0
C379 C 0.3165 0.46969 0.18253 0.0
C380 C 0.39657 0.49662 0.17687 0.0
C381 C 0.40843 0.48113 0.16873 0.0
C382 C 0.41105 0.48167 0.15176 0.0
C383 C 0.40242 0.49853 0.14315 0.0
C384 C 0.39064 0.51389 0.15125 0.0
H385 H 0.28852 0.45663 0.18583 0.0
H386 H 0.31761 0.45862 0.17108 0.0
H387 H 0.33025 0.46672 0.19215 0.0
H388 H 0.39414 0.49556 0.1899 0.0
H389 H 0.41538 0.46867 0.17568 0.0
H390 H 0.67494 0.10948 0.4865 0.0
H391 H 0.72936 0.16353 0.48364 0.0
H392 H 0.66875 0.19565 0.4708 0.0
H393 H 0.61436 0.14192 0.47365 0.0
H394 H 0.75249 0.19999 0.4554 0.0
H395 H 0.73711 0.26171 0.50643 0.0
H396 H 0.71221 0.21891 0.50467 0.0
H397 H 0.69965 0.23846 0.49281 0.0
C398 C 0.67312 0.12809 0.48323 0.0
C399 C 0.64011 0.12122 0.48038 0.0
C400 C 0.70433 0.159 0.48155 0.0
C401 C 0.70326 0.18385 0.47719 0.0
C402 C 0.67035 0.1771 0.47445 0.0
H403 H 0.85113 0.383 0.45518 0.0
H404 H 0.80026 0.32935 0.46147 0.0
C405 C 0.6392 0.14622 0.47602 0.0
C406 C 0.73642 0.2165 0.47484 0.0
H407 H 0.78219 0.29465 0.48792 0.0
C408 C 0.75917 0.22067 0.46261 0.0
C409 C 0.74511 0.24355 0.48417 0.0
C410 C 0.72245 0.24055 0.49786 0.0
C411 C 0.78968 0.25113 0.45912 0.0
C412 C 0.79833 0.27828 0.4684 0.0
C413 C 0.77575 0.274 0.48078 0.0
C414 C 0.82996 0.31136 0.46511 0.0
C415 C 0.81158 0.25398 0.44509 0.0
C416 C 0.86399 0.31967 0.46539 0.0
C417 C 0.89326 0.35037 0.46158 0.0
C418 C 0.88932 0.37374 0.45753 0.0
C419 C 0.85531 0.36562 0.45787 0.0
C420 C 0.82609 0.33491 0.46161 0.0
H421 H 0.79648 0.2327 0.4366 0.0
H422 H 0.82134 0.27545 0.43823 0.0
H423 H 0.83462 0.25606 0.44977 0.0
H424 H 0.86796 0.3023 0.46845 0.0
H425 H 0.91885 0.35547 0.46139 0.0
H426 H 0.52938 0.67985 0.82433 0.0
H427 H 0.52126 0.71902 0.81598 0.0
H428 H 0.6337 0.7908 0.81556 0.0
H429 H 0.64207 0.75167 0.82322 0.0
H430 H 0.54234 0.77538 0.83131 0.0
H431 H 0.60459 0.79943 0.77152 0.0
H432 H 0.5927 0.76596 0.78297 0.0
H433 H 0.63271 0.80508 0.78785 0.0
C434 C 0.55241 0.70383 0.82221 0.0
C435 C 0.58641 0.71246 0.82443 0.0
C436 C 0.54771 0.72629 0.81755 0.0
C437 C 0.57685 0.7578 0.81489 0.0
C438 C 0.61077 0.76653 0.8172 0.0
H439 H 0.61015 0.93243 0.79002 0.0
H440 H 0.61573 0.89196 0.79885 0.0
C441 C 0.6155 0.74414 0.82181 0.0
C442 C 0.57192 0.7818 0.8101 0.0
H443 H 0.59305 0.83519 0.78131 0.0
C444 C 0.5532 0.78828 0.82032 0.0
C445 C 0.58609 0.7987 0.79575 0.0
C446 C 0.60485 0.79176 0.78381 0.0
C447 C 0.54903 0.81168 0.81678 0.0
C448 C 0.56359 0.82882 0.80254 0.0
C449 C 0.58208 0.82219 0.79228 0.0
C450 C 0.55983 0.85363 0.79798 0.0
C451 C 0.52983 0.81842 0.82853 0.0
C452 C 0.52655 0.8456 0.79456 0.0
C453 C 0.52325 0.86873 0.78956 0.0
C454 C 0.5532 0.90042 0.78783 0.0
C455 C 0.58649 0.90842 0.79144 0.0
C456 C 0.58975 0.88524 0.79638 0.0
H457 H 0.52789 0.80906 0.84062 0.0
H458 H 0.54316 0.84442 0.83001 0.0
H459 H 0.50273 0.80673 0.82376 0.0
H460 H 0.5031 0.82129 0.79546 0.0
H461 H 0.4972 0.86174 0.78699 0.0
H462 H 0.83679 0.50586 0.19551 0.0
H463 H 0.77276 0.46979 0.19576 0.0
H464 H 0.77369 0.38979 0.18474 0.0
H465 H 0.83802 0.426 0.18429 0.0
H466 H 0.73532 0.39288 0.16329 0.0
H467 H 0.69495 0.40472 0.22378 0.0
H468 H 0.72761 0.44353 0.21653 0.0
H469 H 0.73879 0.41714 0.22006 0.0
C470 C 0.82341 0.48049 0.19365 0.0
C471 C 0.84228 0.46874 0.18973 0.0
C472 C 0.78677 0.45981 0.19392 0.0
C473 C 0.7684 0.42698 0.19051 0.0
C474 C 0.78734 0.41499 0.18751 0.0
H475 H 0.551 0.32797 0.1521 0.0
H476 H 0.59775 0.32914 0.16533 0.0
C477 C 0.824 0.4357 0.18715 0.0
C478 C 0.72999 0.40665 0.18732 0.0
H479 H 0.656 0.39531 0.20097 0.0
C480 C 0.71753 0.39231 0.17173 0.0
C481 C 0.70674 0.40564 0.19838 0.0
C482 C 0.71772 0.41831 0.21568 0.0
C483 C 0.68371 0.38032 0.16629 0.0
C484 C 0.66189 0.38257 0.17681 0.0
C485 C 0.67299 0.39386 0.19291 0.0
C486 C 0.63163 0.38014 0.17036 0.0
C487 C 0.67285 0.36828 0.14888 0.0
C488 C 0.63526 0.40832 0.16903 0.0
C489 C 0.60909 0.40781 0.16143 0.0
C490 C 0.57844 0.37899 0.1551 0.0
C491 C 0.57444 0.35055 0.15674 0.0
C492 C 0.60093 0.35112 0.16436 0.0
H493 H 0.69365 0.36939 0.14211 0.0
H494 H 0.64877 0.34317 0.14845 0.0
H495 H 0.66659 0.38257 0.14264 0.0
H496 H 0.65904 0.431 0.1734 0.0
H497 H 0.61345 0.43025 0.16006 0.0
H498 H 0.46542 0.90455 0.48392 0.0
H499 H 0.41138 0.84979 0.48066 0.0
H500 H 0.35705 0.88446 0.46183 0.0
H501 H 0.4111 0.93911 0.46463 0.0
H502 H 0.3476 0.82004 0.49378 0.0
H503 H 0.33221 0.81795 0.42727 0.0
H504 H 0.37193 0.84952 0.43815 0.0
H505 H 0.33441 0.84965 0.43757 0.0
C506 C 0.44203 0.90056 0.479 0.0
C507 C 0.44283 0.92637 0.4744 0.0
C508 C 0.41106 0.86915 0.47716 0.0
C509 C 0.38011 0.86272 0.47068 0.0
C510 C 0.38069 0.88853 0.46641 0.0
H511 H 0.16532 0.69026 0.45222 0.0
H512 H 0.21836 0.74513 0.4573 0.0
C513 C 0.41168 0.9199 0.46813 0.0
C514 C 0.34717 0.82916 0.46866 0.0
H515 H 0.28366 0.77442 0.44092 0.0
C516 C 0.33377 0.81006 0.48219 0.0
C517 C 0.32894 0.8159 0.45354 0.0
C518 C 0.34277 0.83419 0.43828 0.0
C519 C 0.30254 0.7785 0.48109 0.0
C520 C 0.28421 0.76543 0.46602 0.0
C521 C 0.29754 0.78446 0.4525 0.0
C522 C 0.25146 0.73192 0.46393 0.0
C523 C 0.28902 0.75953 0.49613 0.0
C524 C 0.25225 0.70609 0.466 0.0
C525 C 0.22193 0.67466 0.4631 0.0
C526 C 0.19002 0.66825 0.45807 0.0
C527 C 0.1892 0.69419 0.4563 0.0
C528 C 0.21961 0.72563 0.45908 0.0
H529 H 0.30125 0.77507 0.50733 0.0
H530 H 0.26002 0.74559 0.49673 0.0
H531 H 0.29535 0.7425 0.49581 0.0
H532 H 0.27655 0.71026 0.46951 0.0
H533 H 0.22356 0.65533 0.46466 0.0
H534 H 0.56652 0.36026 0.83847 0.0
H535 H 0.57153 0.31872 0.82906 0.0
H536 H 0.45907 0.24838 0.83125 0.0
H537 H 0.45366 0.28992 0.84014 0.0
H538 H 0.55184 0.264 0.84391 0.0
H539 H 0.47892 0.23263 0.78541 0.0
H540 H 0.4944 0.26834 0.79743 0.0
H541 H 0.45504 0.23052 0.80279 0.0
C542 C 0.54276 0.33603 0.83676 0.0
C543 C 0.50963 0.32858 0.83997 0.0
C544 C 0.54572 0.31224 0.83149 0.0
C545 C 0.51566 0.28046 0.8292 0.0
C546 C 0.48261 0.27281 0.83263 0.0
H547 H 0.48202 0.10493 0.79567 0.0
H548 H 0.47563 0.14467 0.80694 0.0
C549 C 0.47961 0.29658 0.83791 0.0
C550 C 0.51901 0.25534 0.82343 0.0
H551 H 0.49422 0.19953 0.79282 0.0
C552 C 0.53932 0.24996 0.83271 0.0
C553 C 0.50264 0.23697 0.80882 0.0
C554 C 0.48178 0.24252 0.79794 0.0
C555 C 0.5433 0.22647 0.82793 0.0
C556 C 0.52702 0.20817 0.8133 0.0
C557 C 0.5066 0.21346 0.80405 0.0
C558 C 0.53126 0.18377 0.80721 0.0
C559 C 0.56435 0.22105 0.83875 0.0
C560 C 0.56466 0.19244 0.80357 0.0
C561 C 0.56844 0.16972 0.79721 0.0
C562 C 0.53886 0.13777 0.79425 0.0
C563 C 0.50544 0.12914 0.79801 0.0
C564 C 0.5017 0.1519 0.80435 0.0
H565 H 0.56665 0.23037 0.85135 0.0
H566 H 0.55228 0.1953 0.83899 0.0
H567 H 0.5913 0.23371 0.83404 0.0
H568 H 0.58783 0.21695 0.80537 0.0
H569 H 0.59459 0.17724 0.79459 0.0
H570 H 0.50608 0.83434 0.50751 0.0
H571 H 0.49986 0.78675 0.51497 0.0
H572 H 0.61179 0.83775 0.51118 0.0
H573 H 0.61846 0.88561 0.50437 0.0
H574 H 0.51778 0.75164 0.49819 0.0
H575 H 0.5932 0.80339 0.55635 0.0
H576 H 0.57777 0.82179 0.54541 0.0
H577 H 0.61695 0.82682 0.53933 0.0
C578 C 0.52943 0.83554 0.50843 0.0
C579 C 0.5628 0.86393 0.50539 0.0
C580 C 0.52578 0.80824 0.51258 0.0
C581 C 0.55542 0.80884 0.51388 0.0
C582 C 0.58862 0.83689 0.51055 0.0
H583 H 0.59752 0.67689 0.53806 0.0
H584 H 0.59964 0.7213 0.52862 0.0
C585 C 0.59231 0.86416 0.50644 0.0
C586 C 0.55179 0.78019 0.51868 0.0
H587 H 0.57971 0.75395 0.54687 0.0
C588 C 0.53111 0.75203 0.50889 0.0
C589 C 0.56915 0.78074 0.53267 0.0
C590 C 0.59024 0.8097 0.54414 0.0
C591 C 0.52812 0.72469 0.51247 0.0
C592 C 0.54593 0.72545 0.52632 0.0
C593 C 0.56629 0.75349 0.53619 0.0
C594 C 0.54387 0.69748 0.53088 0.0
C595 C 0.50667 0.69548 0.5012 0.0
C596 C 0.51177 0.66927 0.53523 0.0
C597 C 0.51044 0.64376 0.54057 0.0
C598 C 0.54123 0.64599 0.54172 0.0
C599 C 0.57324 0.67415 0.5371 0.0
C600 C 0.57455 0.69965 0.53181 0.0
H601 H 0.50177 0.70114 0.48923 0.0
H602 H 0.52006 0.68432 0.49932 0.0
H603 H 0.48084 0.67777 0.50665 0.0
H604 H 0.48786 0.66724 0.53486 0.0
H605 H 0.48533 0.62236 0.54393 0.0
H606 H 0.69139 0.57714 0.84629 0.0
H607 H 0.74252 0.57676 0.84768 0.0
H608 H 0.67461 0.4784 0.85994 0.0
H609 H 0.62365 0.47855 0.85816 0.0
H610 H 0.77895 0.57153 0.86848 0.0
H611 H 0.7258 0.46545 0.82812 0.0
H612 H 0.70364 0.48327 0.83046 0.0
H613 H 0.69812 0.45617 0.84507 0.0
C614 C 0.68697 0.55518 0.84916 0.0
C615 C 0.65212 0.5278 0.85192 0.0
C616 C 0.71683 0.55497 0.85002 0.0
C617 C 0.71392 0.52732 0.85357 0.0
C618 C 0.67907 0.50013 0.85658 0.0
H619 H 0.86403 0.47836 0.86663 0.0
H620 H 0.81365 0.47922 0.86468 0.0
C621 C 0.64927 0.50031 0.8557 0.0
C622 C 0.74677 0.52721 0.85447 0.0
H623 H 0.77772 0.48433 0.8432 0.0
C624 C 0.77831 0.55236 0.86277 0.0
C625 C 0.7478 0.50265 0.84725 0.0
C626 C 0.71721 0.47554 0.83709 0.0
C627 C 0.80891 0.55326 0.86437 0.0
C628 C 0.80988 0.52865 0.85721 0.0
C629 C 0.77837 0.50351 0.84889 0.0
C630 C 0.84258 0.52834 0.85824 0.0
C631 C 0.83964 0.58047 0.87443 0.0
C632 C 0.87748 0.55519 0.85505 0.0
C633 C 0.90712 0.55475 0.85609 0.0
C634 C 0.90415 0.52731 0.86028 0.0
C635 C 0.86902 0.50028 0.8632 0.0
C636 C 0.83939 0.50075 0.86214 0.0
H637 H 0.8313 0.59098 0.88325 0.0
H638 H 0.85298 0.57267 0.8812 0.0
H639 H 0.85887 0.59951 0.86634 0.0
H640 H 0.88211 0.57686 0.85141 0.0
H641 H 0.93258 0.57627 0.85329 0.0
H642 H 0.17975 0.61342 0.15127 0.0
H643 H 0.23502 0.66743 0.15426 0.0
H644 H 0.17735 0.70417 0.16546 0.0
H645 H 0.12205 0.65028 0.16281 0.0
H646 H 0.26078 0.72169 0.13838 0.0
H647 H 0.24666 0.7417 0.20323 0.0
H648 H 0.21887 0.70289 0.19299 0.0
H649 H 0.21014 0.73127 0.19078 0.0
C650 C 0.17872 0.63294 0.15438 0.0
C651 C 0.14623 0.62727 0.1569 0.0
C652 C 0.21046 0.6639 0.15608 0.0
C653 C 0.21059 0.68998 0.16041 0.0
C654 C 0.17817 0.68448 0.16255 0.0
H655 H 0.37391 0.8946 0.17782 0.0
H656 H 0.31861 0.84131 0.17242 0.0
C657 C 0.14644 0.65354 0.16091 0.0
C658 C 0.24453 0.72288 0.16254 0.0
H659 H 0.29304 0.78676 0.18961 0.0
C660 C 0.26787 0.73583 0.14961 0.0
C661 C 0.25402 0.7415 0.1772 0.0
C662 C 0.2313 0.72856 0.1919 0.0
C663 C 0.29988 0.76691 0.15082 0.0
C664 C 0.30918 0.78557 0.16543 0.0
C665 C 0.2859 0.77262 0.17836 0.0
C666 C 0.34312 0.81838 0.1677 0.0
C667 C 0.32314 0.77975 0.1363 0.0
C668 C 0.37551 0.82346 0.16681 0.0
C669 C 0.40724 0.85399 0.16984 0.0
C670 C 0.40744 0.88027 0.17388 0.0
C671 C 0.37494 0.87515 0.1745 0.0
C672 C 0.34321 0.84458 0.17155 0.0
H673 H 0.30838 0.76618 0.12493 0.0
H674 H 0.33509 0.80528 0.13498 0.0
H675 H 0.34471 0.77774 0.13793 0.0
H676 H 0.37626 0.80366 0.16413 0.0
H677 H 0.43167 0.85694 0.16914 0.0
H678 H 0.54144 0.18944 0.51339 0.0
H679 H 0.54693 0.2367 0.52278 0.0
H680 H 0.49214 0.2299 0.47959 0.0
H681 H 0.48483 0.18162 0.47049 0.0
H682 H 0.57951 0.29393 0.50966 0.0
H683 H 0.4371 0.23673 0.51416 0.0
H684 H 0.45363 0.21398 0.51137 0.0
H685 H 0.44942 0.23187 0.49441 0.0
C686 C 0.53001 0.19762 0.50598 0.0
C687 C 0.51236 0.18139 0.49123 0.0
C688 C 0.53346 0.22486 0.51132 0.0
C689 C 0.5194 0.23658 0.50205 0.0
C690 C 0.50249 0.22092 0.48715 0.0
H691 H 0.52496 0.40452 0.5163 0.0
H692 H 0.51892 0.35793 0.50479 0.0
C693 C 0.49879 0.19352 0.48184 0.0
C694 C 0.52303 0.26545 0.50791 0.0
H695 H 0.47618 0.29307 0.51791 0.0
C696 C 0.55689 0.29369 0.51149 0.0
C697 C 0.4935 0.26518 0.51031 0.0
C698 C 0.45635 0.23525 0.50752 0.0
C699 C 0.56202 0.32161 0.51732 0.0
C700 C 0.53253 0.32127 0.51971 0.0
C701 C 0.49872 0.29324 0.51597 0.0
C702 C 0.53622 0.34951 0.52665 0.0
C703 C 0.59895 0.35138 0.52078 0.0
C704 C 0.5475 0.3599 0.5428 0.0
C705 C 0.55055 0.38621 0.54949 0.0
C706 C 0.5425 0.40284 0.54014 0.0
C707 C 0.53104 0.39219 0.52393 0.0
C708 C 0.52777 0.36567 0.51728 0.0
H709 H 0.61892 0.3497 0.51513 0.0
H710 H 0.60226 0.37258 0.51632 0.0
H711 H 0.60408 0.35508 0.53407 0.0
H712 H 0.55356 0.34738 0.55032 0.0
H713 H 0.55865 0.39316 0.5621 0.0
H714 H 0.42034 0.47451 0.86164 0.0
H715 H 0.36942 0.47479 0.86353 0.0
H716 H 0.43172 0.57023 0.8468 0.0
H717 H 0.48311 0.57037 0.84554 0.0
H718 H 0.39154 0.57034 0.86617 0.0
H719 H 0.29609 0.45508 0.83365 0.0
H720 H 0.31359 0.44995 0.85124 0.0
H721 H 0.34214 0.47265 0.83487 0.0
C722 C 0.42352 0.49567 0.85823 0.0
C723 C 0.45702 0.52231 0.85329 0.0
C724 C 0.39358 0.49572 0.85915 0.0
C725 C 0.39474 0.52221 0.85491 0.0
C726 C 0.42844 0.54899 0.85016 0.0
H727 H 0.19407 0.50297 0.83838 0.0
H728 H 0.24493 0.50238 0.83629 0.0
C729 C 0.45847 0.54905 0.84937 0.0
C730 C 0.36195 0.52251 0.8558 0.0
H731 H 0.27206 0.47774 0.84771 0.0
C732 C 0.36559 0.54984 0.86203 0.0
C733 C 0.32697 0.49663 0.85024 0.0
C734 C 0.31943 0.46708 0.84196 0.0
C735 C 0.33688 0.55182 0.86313 0.0
C736 C 0.30158 0.52536 0.85835 0.0
C737 C 0.29804 0.49827 0.85178 0.0
C738 C 0.26872 0.52548 0.85976 0.0
C739 C 0.34553 0.58332 0.86891 0.0
C740 C 0.26249 0.53787 0.87371 0.0
C741 C 0.23298 0.53844 0.87489 0.0
C742 C 0.20695 0.52616 0.86232 0.0
C743 C 0.21254 0.51284 0.84853 0.0
C744 C 0.24234 0.51253 0.8473 0.0
H745 H 0.37334 0.60341 0.86658 0.0
H746 H 0.32837 0.58784 0.86287 0.0
H747 H 0.34195 0.58324 0.88218 0.0
H748 H 0.2803 0.54687 0.88407 0.0
H749 H 0.23039 0.54818 0.88605 0.0
H750 H 0.92155 0.44424 0.16351 0.0
H751 H 0.86835 0.38968 0.16593 0.0
H752 H 0.92049 0.35364 0.14408 0.0
H753 H 0.97407 0.40841 0.1415 0.0
H754 H 0.82769 0.33848 0.14043 0.0
H755 H 0.88338 0.30885 0.18844 0.0
H756 H 0.90249 0.34945 0.18388 0.0
H757 H 0.90884 0.3258 0.17054 0.0
C758 C 0.92182 0.42482 0.15911 0.0
C759 C 0.95235 0.43091 0.15233 0.0
C760 C 0.89124 0.39354 0.16051 0.0
C761 C 0.89044 0.36746 0.15537 0.0
C762 C 0.92057 0.37335 0.14832 0.0
H763 H 0.72948 0.16309 0.16939 0.0
H764 H 0.78262 0.21462 0.16187 0.0
C765 C 0.95116 0.40472 0.14676 0.0
C766 C 0.85813 0.33425 0.1576 0.0
H767 H 0.82521 0.26838 0.17954 0.0
C768 C 0.82715 0.32309 0.14894 0.0
C769 C 0.8574 0.31406 0.16863 0.0
C770 C 0.88965 0.32503 0.17853 0.0
C771 C 0.7956 0.29236 0.15095 0.0
C772 C 0.79454 0.2724 0.16235 0.0
C773 C 0.82576 0.28348 0.17082 0.0
C774 C 0.76126 0.24046 0.16603 0.0
C775 C 0.76394 0.28145 0.14058 0.0
C776 C 0.73121 0.23744 0.1709 0.0
C777 C 0.7005 0.20783 0.17495 0.0
C778 C 0.69902 0.18033 0.17456 0.0
C779 C 0.72916 0.18341 0.16962 0.0
C780 C 0.75983 0.21305 0.16545 0.0
H781 H 0.77183 0.29419 0.12911 0.0
H782 H 0.74745 0.25543 0.13758 0.0
H783 H 0.74774 0.28678 0.14723 0.0
H784 H 0.73162 0.25815 0.17188 0.0
H785 H 0.67792 0.20661 0.17849 0.0
H786 H 0.99024 0.5418 0.10351 0.0
H787 H 0.9933 0.53796 0.07402 0.0
H788 H 0.06175 0.51125 0.0796 0.0
H789 H 0.05767 0.51399 0.1091 0.0
H790 H 0.04833 0.57127 0.05491 0.0
H791 H 0.99205 0.44382 0.04681 0.0
H792 H 0.9898 0.46078 0.06569 0.0
H793 H 0.02942 0.46581 0.06048 0.0
C794 C 1.00564 0.53479 0.09843 0.0
C795 C 0.02369 0.52815 0.10861 0.0
C796 C 1.00745 0.53266 0.08156 0.0
C797 C 0.02735 0.52386 0.07448 0.0
C798 C 0.04549 0.5173 0.08468 0.0
H799 H 0.08428 0.5182 0.97438 0.0
H800 H 0.08071 0.51912 0.004 0.0
C801 C 0.04342 0.51916 0.10156 0.0
C802 C 0.03013 0.52287 0.05648 0.0
H803 H 1.01816 0.47519 0.02373 0.0
C804 C 0.04153 0.55017 0.04812 0.0
C805 C 1.02134 0.49538 0.04752 0.0
C806 C 1.00714 0.46469 0.05555 0.0
C807 C 0.04469 0.55084 0.03118 0.0
C808 C 0.03604 0.52344 0.02228 0.0
C809 C 0.02489 0.49621 0.03059 0.0
C810 C 0.03792 0.52254 0.0043 0.0
C811 C 0.05772 0.58103 0.02292 0.0
C812 C 1.0148 0.52381 0.99462 0.0
C813 C 1.0167 0.5232 0.9777 0.0
C814 C 0.04187 0.52142 0.97008 0.0
C815 C 0.06486 0.51995 0.97984 0.0
C816 C 0.06273 0.52029 0.99677 0.0
H817 H 0.07011 0.60187 0.03166 0.0
H818 H 0.0771 0.5862 0.01358 0.0
H819 H 0.03522 0.57796 0.01676 0.0
H820 H 0.99522 0.52525 0.00016 0.0
H821 H 0.99878 0.52462 0.97059 0.0
H822 H 0.49837 1.00149 0.43312 0.0
H823 H 0.49376 1.00348 0.40366 0.0
H824 H 0.60525 0.05163 0.40006 0.0
H825 H 0.61005 0.04991 0.42937 0.0
H826 H 0.57993 0.07875 0.38201 0.0
H827 H 0.50121 0.94773 0.36996 0.0
H828 H 0.48389 0.96068 0.3846 0.0
H829 H 0.52453 0.96711 0.38895 0.0
C830 C 0.52186 0.01257 0.42602 0.0
C831 C 0.55452 0.02532 0.43349 0.0
C832 C 0.51918 0.01356 0.40921 0.0
C833 C 0.5491 0.02733 0.39966 0.0
C834 C 0.58182 0.04079 0.4072 0.0
H835 H 0.57773 0.00967 0.29817 0.0
H836 H 0.57481 0.00869 0.3277 0.0
C837 C 0.5845 0.03973 0.42393 0.0
C838 C 0.54664 0.02752 0.38178 0.0
H839 H 0.5144 0.97899 0.34744 0.0
C840 C 0.5654 0.05696 0.37443 0.0
C841 C 0.528 0.99903 0.37195 0.0
C842 C 0.50844 0.96679 0.37919 0.0
C843 C 0.56622 0.0587 0.3575 0.0
C844 C 0.54751 0.03022 0.34767 0.0
C845 C 0.52855 1.00077 0.35502 0.0
C846 C 0.54856 0.03052 0.32973 0.0
C847 C 0.58799 0.09101 0.35025 0.0
C848 C 0.53443 0.04282 0.32106 0.0
C849 C 0.53585 0.04324 0.30415 0.0
C850 C 0.55135 0.03126 0.29556 0.0
C851 C 0.56522 0.01873 0.30434 0.0
C852 C 0.56372 0.01827 0.32123 0.0
H853 H 0.60649 0.11031 0.35931 0.0
H854 H 0.60332 0.09148 0.33997 0.0
H855 H 0.57029 0.09611 0.34554 0.0
H856 H 0.52205 0.05187 0.32737 0.0
H857 H 0.52433 0.05253 0.29779 0.0
H858 H 0.59169 0.56426 0.80838 0.0
H859 H 0.60044 0.5791 0.77993 0.0
H860 H 0.52096 0.48068 0.76485 0.0
H861 H 0.51211 0.46589 0.79304 0.0
H862 H 0.61815 0.55292 0.75291 0.0
H863 H 0.49039 0.53134 0.74361 0.0
H864 H 0.5099 0.53775 0.76346 0.0
H865 H 0.48711 0.49949 0.75292 0.0
C866 C 0.57598 0.54595 0.79899 0.0
C867 C 0.55098 0.51403 0.80292 0.0
C868 C 0.58107 0.55438 0.78277 0.0
C869 C 0.56095 0.53101 0.77034 0.0
C870 C 0.53634 0.49913 0.77428 0.0
H871 H 0.57677 0.5088 0.66879 0.0
H872 H 0.57942 0.51064 0.69835 0.0
C873 C 0.53144 0.49072 0.79039 0.0
C874 C 0.56568 0.53935 0.75313 0.0
H875 H 0.52065 0.53461 0.71979 0.0
C876 C 0.59708 0.54939 0.74568 0.0
C877 C 0.53829 0.53503 0.7438 0.0
C878 C 0.50461 0.52559 0.75135 0.0
C879 C 0.60111 0.55374 0.72893 0.0
C880 C 0.57287 0.54755 0.71944 0.0
C881 C 0.54217 0.53906 0.72705 0.0
C882 C 0.57382 0.5482 0.7015 0.0
C883 C 0.63542 0.5646 0.72153 0.0
C884 C 0.56933 0.56841 0.69344 0.0
C885 C 0.56784 0.56745 0.6765 0.0
C886 C 0.57051 0.54603 0.6673 0.0
C887 C 0.57527 0.52598 0.67546 0.0
C888 C 0.57682 0.52701 0.69238 0.0
H889 H 0.6573 0.57704 0.73069 0.0
H890 H 0.63287 0.5435 0.71646 0.0
H891 H 0.64232 0.58081 0.71155 0.0
H892 H 0.56678 0.58482 0.70025 0.0
H893 H 0.56459 0.58349 0.67063 0.0
H894 H 0.58738 0.05081 0.52673 0.0
H895 H 0.59436 0.04903 0.55602 0.0
H896 H 0.48248 0.99628 0.56131 0.0
H897 H 0.47536 0.99808 0.53218 0.0
H898 H 0.57158 0.07288 0.58149 0.0
H899 H 0.5078 0.94371 0.58472 0.0
H900 H 0.52459 0.96453 0.56614 0.0
H901 H 0.48326 0.95314 0.57357 0.0
C902 C 0.5643 0.03868 0.53415 0.0
C903 C 0.53083 0.02462 0.52721 0.0
C904 C 0.56831 0.03771 0.55085 0.0
C905 C 0.53888 0.02225 0.56079 0.0
C906 C 0.50546 0.00794 0.55382 0.0
H907 H 0.4917 0.98885 0.66196 0.0
H908 H 0.49142 0.98995 0.63241 0.0
C909 C 0.50146 0.00912 0.53719 0.0
C910 C 0.54301 0.02211 0.57856 0.0
H911 H 0.51907 0.97258 0.6097 0.0
C912 C 0.56046 0.05104 0.58768 0.0
C913 C 0.52826 0.99354 0.58656 0.0
C914 C 0.51015 0.96195 0.57727 0.0
C915 C 0.56253 0.05204 0.60469 0.0
C916 C 0.54747 0.02338 0.61274 0.0
C917 C 0.53056 0.99452 0.60355 0.0
C918 C 0.54805 0.02265 0.63071 0.0
C919 C 0.57961 0.08362 0.61387 0.0
C920 C 0.57999 0.04031 0.63961 0.0
C921 C 0.58021 0.03982 0.65653 0.0
C922 C 0.5485 0.02129 0.66488 0.0
C923 C 0.51659 1.00316 0.6559 0.0
C924 C 0.51639 0.00384 0.63901 0.0
H925 H 0.58121 0.10137 0.60631 0.0
H926 H 0.56492 0.08082 0.62494 0.0
H927 H 0.60679 0.09332 0.61759 0.0
H928 H 0.60479 0.05435 0.63347 0.0
H929 H 0.60525 0.05361 0.66306 0.0
H930 H 0.50757 0.48643 0.89148 0.0
H931 H 0.49674 0.4642 0.91823 0.0
H932 H 0.60678 0.53338 0.93112 0.0
H933 H 0.61769 0.55603 0.90445 0.0
H934 H 0.52526 0.43859 0.93472 0.0
H935 H 0.55687 0.54823 0.96636 0.0
H936 H 0.54977 0.54115 0.94471 0.0
H937 H 0.59101 0.55448 0.95373 0.0
C938 C 0.52945 0.49681 0.90001 0.0
C939 C 0.56339 0.52317 0.89602 0.0
C940 C 0.52326 0.48403 0.91524 0.0
C941 C 0.55087 0.49746 0.92671 0.0
C942 C 0.58502 0.52306 0.92252 0.0
H943 H 0.53997 0.42069 0.02051 0.0
H944 H 0.55253 0.4359 0.99222 0.0
C945 C 0.59123 0.53592 0.90731 0.0
C946 C 0.54357 0.48548 0.94325 0.0
H947 H 0.545 0.50737 0.98279 0.0
C948 C 0.52962 0.45357 0.94527 0.0
C949 C 0.5489 0.50505 0.95691 0.0
C950 C 0.56216 0.53905 0.95538 0.0
C951 C 0.52086 0.4407 0.96065 0.0
C952 C 0.5267 0.46044 0.97433 0.0
C953 C 0.54075 0.49235 0.97228 0.0
C954 C 0.51713 0.44843 0.99086 0.0
C955 C 0.50459 0.40594 0.9621 0.0
C956 C 0.49315 0.45045 -0.00056 0.0
C957 C 0.48622 0.44207 0.01554 0.0
C958 C 0.50316 0.43152 0.02341 0.0
C959 C 0.52633 0.42848 0.01468 0.0
C960 C 0.53345 0.43709 -0.00147 0.0
H961 H 0.49431 0.39248 0.95023 0.0
H962 H 0.52482 0.40383 0.96668 0.0
H963 H 0.48277 0.39472 0.97079 0.0
H964 H 0.48023 0.45907 0.99374 0.0
H965 H 0.46791 0.44426 0.02193 0.0
H966 H 0.06862 0.56489 0.19981 0.0
H967 H 0.06511 0.56784 0.22942 0.0
H968 H 0.04243 0.47571 0.23196 0.0
H969 H 0.0458 0.47258 0.20251 0.0
H970 H 1.00818 0.5242 0.25042 0.0
H971 H 0.1292 0.53524 0.26269 0.0
H972 H 0.11891 0.54211 0.24312 0.0
H973 H 0.09773 0.50213 0.24925 0.0
C974 C 0.06267 0.54521 0.2067 0.0
C975 C 0.05757 0.51854 0.19889 0.0
C976 C 0.06071 0.54694 0.22359 0.0
C977 C 0.05399 0.52218 0.23288 0.0
C978 C 0.04822 0.4953 0.22504 0.0
H979 H 0.9913 0.47605 0.33233 0.0
H980 H 0.99399 0.47844 0.30281 0.0
C981 C 0.05005 0.49351 0.20821 0.0
C982 C 0.05325 0.52435 0.2508 0.0
H983 H 0.09337 0.52556 0.2852 0.0
C984 C 0.0269 0.5247 0.25805 0.0
C985 C 0.07796 0.52537 0.26071 0.0
C986 C 0.10778 0.52649 0.25359 0.0
C987 C 0.02404 0.52514 0.27498 0.0
C988 C 0.04795 0.52491 0.28487 0.0
C989 C 0.07486 0.52544 0.2776 0.0
C990 C 0.04558 0.52404 0.30278 0.0
C991 C 0.99563 0.52611 0.28215 0.0
C992 C 0.0739 0.54862 0.31257 0.0
C993 C 0.07245 0.54733 0.32944 0.0
C994 C 0.04272 0.52127 0.33689 0.0
C995 C 1.01435 0.49669 0.32702 0.0
C996 C 1.01582 0.49803 0.31014 0.0
H997 H 0.98565 0.53452 0.27341 0.0
H998 H 0.97324 0.50175 0.28545 0.0
H999 H 1.00543 0.54193 0.29329 0.0
H1000 H 0.09715 0.56887 0.30714 0.0
H1001 H 0.09457 0.56688 0.33664 0.0
loop_
_geom_bond_atom_site_label_1
_geom_bond_atom_site_label_2
_geom_bond_distance
_geom_bond_site_symmetry_2
_ccdc_geom_bond_type
Sm0 C2 2.846 . S
Sm0 O20 2.543 . S
Sm0 O21 2.450 . S
Sm0 O22 2.681 . S
Sm0 O23 2.464 . S
Sm0 O24 2.396 . S
Sm0 O28 2.386 . S
Sm0 O31 2.408 1_455 S
Sm1 C11 2.846 . S
Sm1 O22 2.386 1_655 S
Sm1 O25 2.408 1_655 S
Sm1 O26 2.543 . S
Sm1 O27 2.450 . S
Sm1 O28 2.681 1_655 S
Sm1 O29 2.464 1_655 S
Sm1 O30 2.396 . S
C2 Sm0 2.846 . S
C2 C3 1.506 . S
C2 O20 1.261 . S
C2 O21 1.242 . S
C3 C2 1.506 . S
C3 C4 1.358 . S
C3 C8 1.382 . S
C4 C3 1.358 . S
C4 C5 1.385 . S
C4 H32 0.930 . S
C5 C4 1.385 . S
C5 C6 1.395 . S
C5 H33 0.929 . S
C6 C5 1.395 . S
C6 C7 1.335 . S
C7 C6 1.335 . S
C7 C8 1.398 . S
C7 H34 0.930 . S
C8 C3 1.382 . S
C8 C7 1.398 . S
C8 H35 0.929 . S
C9 O22 1.271 . S
C9 O23 1.251 . S
C10 O24 1.252 . S
C10 O25 1.272 . S
C11 Sm1 2.846 . S
C11 C12 1.506 . S
C11 O26 1.261 . S
C11 O27 1.242 . S
C12 C11 1.506 . S
C12 C13 1.358 . S
C12 C17 1.382 . S
C13 C12 1.358 . S
C13 C14 1.385 . S
C13 H36 0.930 . S
C14 C13 1.385 . S
C14 C15 1.395 . S
C14 H37 0.929 . S
C15 C14 1.395 . S
C15 C16 1.335 . S
C16 C15 1.335 . S
C16 C17 1.398 . S
C16 H38 0.930 . S
C17 C12 1.382 . S
C17 C16 1.398 . S
C17 H39 0.929 . S
C18 O28 1.271 . S
C18 O29 1.251 . S
C19 O30 1.252 . S
C19 O31 1.272 . S
O20 Sm0 2.543 . S
O20 C2 1.261 . S
O21 Sm0 2.450 . S
O21 C2 1.242 . S
O22 Sm0 2.681 . S
O22 Sm1 2.386 1_455 S
O22 C9 1.271 . S
O23 Sm0 2.464 . S
O23 C9 1.251 . S
O24 Sm0 2.396 . S
O24 C10 1.252 . S
O25 Sm1 2.408 1_455 S
O25 C10 1.272 . S
O26 Sm1 2.543 . S
O26 C11 1.261 . S
O27 Sm1 2.450 . S
O27 C11 1.242 . S
O28 Sm0 2.386 . S
O28 Sm1 2.681 1_455 S
O28 C18 1.271 . S
O29 Sm1 2.464 1_455 S
O29 C18 1.251 . S
O30 Sm1 2.396 . S
O30 C19 1.252 . S
O31 Sm0 2.408 1_655 S
O31 C19 1.272 . S
H32 C4 0.930 . S
H33 C5 0.929 . S
H34 C7 0.930 . S
H35 C8 0.929 . S
H36 C13 0.930 . S
H37 C14 0.929 . S
H38 C16 0.930 . S
H39 C17 0.929 . S
Sm40 C42 2.846 . S
Sm40 O60 2.543 . S
Sm40 O61 2.450 . S
Sm40 O62 2.681 1_565 S
Sm40 O63 2.464 . S
Sm40 O64 2.396 . S
Sm40 O68 2.386 1_565 S
Sm40 O71 2.408 1_565 S
Sm41 C51 2.846 . S
Sm41 O62 2.386 . S
Sm41 O65 2.408 1_545 S
Sm41 O66 2.543 . S
Sm41 O67 2.450 . S
Sm41 O68 2.681 . S
Sm41 O69 2.464 . S
Sm41 O70 2.396 . S
C42 Sm40 2.846 . S
C42 C43 1.506 . S
C42 O60 1.261 . S
C42 O61 1.242 . S
C43 C42 1.506 . S
C43 C44 1.358 . S
C43 C48 1.382 . S
C44 C43 1.358 . S
C44 C45 1.385 . S
C44 H72 0.930 . S
C45 C44 1.385 . S
C45 C46 1.395 . S
C45 H73 0.929 . S
C46 C45 1.395 . S
C46 C47 1.335 . S
C47 C46 1.335 . S
C47 C48 1.398 . S
C47 H74 0.930 . S
C48 C43 1.382 . S
C48 C47 1.398 . S
C48 H75 0.929 . S
C49 O62 1.271 . S
C49 O63 1.251 1_545 S
C50 O64 1.252 . S
C50 O65 1.272 . S
C51 Sm41 2.846 . S
C51 C52 1.506 . S
C51 O66 1.261 . S
C51 O67 1.242 . S
C52 C51 1.506 . S
C52 C53 1.358 . S
C52 C57 1.382 . S
C53 C52 1.358 . S
C53 C54 1.385 . S
C53 H76 0.930 . S
C54 C53 1.385 . S
C54 C55 1.395 . S
C54 H77 0.929 . S
C55 C54 1.395 . S
C55 C56 1.335 . S
C56 C55 1.335 . S
C56 C57 1.398 . S
C56 H78 0.930 . S
C57 C52 1.382 . S
C57 C56 1.398 . S
C57 H79 0.929 . S
C58 O68 1.271 . S
C58 O69 1.251 . S
C59 O70 1.252 . S
C59 O71 1.272 . S
O60 Sm40 2.543 . S
O60 C42 1.261 . S
O61 Sm40 2.450 . S
O61 C42 1.242 . S
O62 Sm40 2.681 1_545 S
O62 Sm41 2.386 . S
O62 C49 1.271 . S
O63 Sm40 2.464 . S
O63 C49 1.251 1_565 S
O64 Sm40 2.396 . S
O64 C50 1.252 . S
O65 Sm41 2.408 1_565 S
O65 C50 1.272 . S
O66 Sm41 2.543 . S
O66 C51 1.261 . S
O67 Sm41 2.450 . S
O67 C51 1.242 . S
O68 Sm40 2.386 1_545 S
O68 Sm41 2.681 . S
O68 C58 1.271 . S
O69 Sm41 2.464 . S
O69 C58 1.251 . S
O70 Sm41 2.396 . S
O70 C59 1.252 . S
O71 Sm40 2.408 1_545 S
O71 C59 1.272 . S
H72 C44 0.930 . S
H73 C45 0.929 . S
H74 C47 0.930 . S
H75 C48 0.929 . S
H76 C53 0.930 . S
H77 C54 0.929 . S
H78 C56 0.930 . S
H79 C57 0.929 . S
Sm80 C82 2.846 . S
Sm80 O100 2.543 . S
Sm80 O101 2.450 . S
Sm80 O102 2.681 . S
Sm80 O103 2.464 . S
Sm80 O104 2.396 . S
Sm80 O108 2.386 . S
Sm80 O111 2.408 . S
Sm81 C91 2.846 . S
Sm81 O102 2.386 . S
Sm81 O105 2.408 . S
Sm81 O106 2.543 . S
Sm81 O107 2.450 . S
Sm81 O108 2.681 . S
Sm81 O109 2.464 . S
Sm81 O110 2.396 . S
C82 Sm80 2.846 . S
C82 C83 1.506 . S
C82 O100 1.261 . S
C82 O101 1.242 . S
C83 C82 1.506 . S
C83 C84 1.358 . S
C83 C88 1.382 . S
C84 C83 1.358 . S
C84 C85 1.385 . S
C84 H112 0.930 . S
C85 C84 1.385 . S
C85 C86 1.395 . S
C85 H113 0.929 . S
C86 C85 1.395 . S
C86 C87 1.335 . S
C87 C86 1.335 . S
C87 C88 1.398 . S
C87 H114 0.930 . S
C88 C83 1.382 . S
C88 C87 1.398 . S
C88 H115 0.929 . S
C89 O102 1.271 . S
C89 O103 1.251 . S
C90 O104 1.252 . S
C90 O105 1.272 . S
C91 Sm81 2.846 . S
C91 C92 1.506 . S
C91 O106 1.261 . S
C91 O107 1.242 . S
C92 C91 1.506 . S
C92 C93 1.358 . S
C92 C97 1.382 . S
C93 C92 1.358 . S
C93 C94 1.385 . S
C93 H116 0.930 . S
C94 C93 1.385 . S
C94 C95 1.395 . S
C94 H117 0.929 . S
C95 C94 1.395 . S
C95 C96 1.335 . S
C96 C95 1.335 . S
C96 C97 1.398 . S
C96 H118 0.930 . S
C97 C92 1.382 . S
C97 C96 1.398 . S
C97 H119 0.929 . S
C98 O108 1.271 . S
C98 O109 1.251 . S
C99 O110 1.252 . S
C99 O111 1.272 . S
O100 Sm80 2.543 . S
O100 C82 1.261 . S
O101 Sm80 2.450 . S
O101 C82 1.242 . S
O102 Sm80 2.681 . S
O102 Sm81 2.386 . S
O102 C89 1.271 . S
O103 Sm80 2.464 . S
O103 C89 1.251 . S
O104 Sm80 2.396 . S
O104 C90 1.252 . S
O105 Sm81 2.408 . S
O105 C90 1.272 . S
O106 Sm81 2.543 . S
O106 C91 1.261 . S
O107 Sm81 2.450 . S
O107 C91 1.242 . S
O108 Sm80 2.386 . S
O108 Sm81 2.681 . S
O108 C98 1.271 . S
O109 Sm81 2.464 . S
O109 C98 1.251 . S
O110 Sm81 2.396 . S
O110 C99 1.252 . S
O111 Sm80 2.408 . S
O111 C99 1.272 . S
H112 C84 0.930 . S
H113 C85 0.929 . S
H114 C87 0.930 . S
H115 C88 0.929 . S
H116 C93 0.930 . S
H117 C94 0.929 . S
H118 C96 0.930 . S
H119 C97 0.929 . S
C120 C121 1.386 . S
C120 C122 1.397 . S
C120 H144 0.931 . S
C121 C120 1.386 . S
C121 C125 1.397 1_545 S
C122 C120 1.397 . S
C122 C123 1.384 . S
C122 H145 0.930 . S
C123 C122 1.384 . S
C123 C124 1.377 1_545 S
C123 C126 1.481 . S
C124 C123 1.377 1_565 S
C124 C125 1.389 . S
C124 H146 0.929 . S
C125 C121 1.397 1_565 S
C125 C124 1.389 . S
C125 H147 0.931 . S
C126 C123 1.481 . S
C126 C127 1.387 . S
C126 C131 1.390 1_545 S
C127 C126 1.387 . S
C127 C128 1.401 . S
C127 H148 0.930 . S
C128 C127 1.401 . S
C128 C129 1.376 . S
C128 C137 1.511 . S
C129 C128 1.376 . S
C129 C130 1.392 1_545 S
C129 H150 0.931 . S
C130 C129 1.392 1_565 S
C130 C131 1.361 . S
C130 C132 1.500 . S
C131 C126 1.390 1_565 S
C131 C130 1.361 . S
C131 H149 0.931 . S
C132 C130 1.500 . S
C132 C133 1.371 . S
C132 C134 1.365 . S
C133 C132 1.371 . S
C133 C143 1.386 . S
C133 H151 0.931 . S
C134 C132 1.365 . S
C134 C135 1.409 . S
C134 H152 0.929 . S
C135 C134 1.409 . S
C135 C136 1.380 . S
C135 H153 0.930 . S
C136 C135 1.380 . S
C136 C143 1.357 . S
C137 C128 1.511 . S
C137 C138 1.341 . S
C137 C139 1.371 . S
C138 C137 1.341 . S
C138 C142 1.394 . S
C138 H154 0.930 . S
C139 C137 1.371 . S
C139 C140 1.392 . S
C139 H155 0.931 . S
C140 C139 1.392 . S
C140 C141 1.331 . S
C140 H158 0.932 . S
C141 C140 1.331 . S
C141 C142 1.336 . S
C142 C138 1.394 . S
C142 C141 1.336 . S
C142 H157 0.929 . S
C143 C133 1.386 . S
C143 C136 1.357 . S
C143 H156 0.928 . S
H144 C120 0.931 . S
H145 C122 0.930 . S
H146 C124 0.929 . S
H147 C125 0.931 . S
H148 C127 0.930 . S
H149 C131 0.931 . S
H150 C129 0.931 . S
H151 C133 0.931 . S
H152 C134 0.929 . S
H153 C135 0.930 . S
H154 C138 0.930 . S
H155 C139 0.931 . S
H156 C143 0.928 . S
H157 C142 0.929 . S
H158 C140 0.932 . S
C159 C160 1.386 . S
C159 C161 1.397 . S
C159 H183 0.931 . S
C160 C159 1.386 . S
C160 C164 1.397 . S
C161 C159 1.397 . S
C161 C162 1.384 . S
C161 H184 0.930 . S
C162 C161 1.384 . S
C162 C163 1.377 . S
C162 C165 1.481 . S
C163 C162 1.377 . S
C163 C164 1.389 . S
C163 H185 0.929 . S
C164 C160 1.397 . S
C164 C163 1.389 . S
C164 H186 0.931 . S
C165 C162 1.481 . S
C165 C166 1.387 . S
C165 C170 1.390 . S
C166 C165 1.387 . S
C166 C167 1.401 . S
C166 H187 0.930 . S
C167 C166 1.401 . S
C167 C168 1.376 . S
C167 C176 1.511 . S
C168 C167 1.376 . S
C168 C169 1.392 . S
C168 H189 0.931 . S
C169 C168 1.392 . S
C169 C170 1.361 . S
C169 C171 1.500 . S
C170 C165 1.390 . S
C170 C169 1.361 . S
C170 H188 0.931 . S
C171 C169 1.500 . S
C171 C172 1.371 . S
C171 C173 1.365 . S
C172 C171 1.371 . S
C172 C182 1.386 . S
C172 H190 0.931 . S
C173 C171 1.365 . S
C173 C174 1.409 . S
C173 H191 0.929 . S
C174 C173 1.409 . S
C174 C175 1.380 . S
C174 H192 0.930 . S
C175 C174 1.380 . S
C175 C182 1.357 . S
C176 C167 1.511 . S
C176 C177 1.341 . S
C176 C178 1.371 . S
C177 C176 1.341 . S
C177 C181 1.394 . S
C177 H193 0.930 . S
C178 C176 1.371 . S
C178 C179 1.392 . S
C178 H194 0.931 . S
C179 C178 1.392 . S
C179 C180 1.331 . S
C179 H197 0.932 . S
C180 C179 1.331 . S
C180 C181 1.336 . S
C181 C177 1.394 . S
C181 C180 1.336 . S
C181 H196 0.929 . S
C182 C172 1.386 . S
C182 C175 1.357 . S
C182 H195 0.928 . S
H183 C159 0.931 . S
H184 C161 0.930 . S
H185 C163 0.929 . S
H186 C164 0.931 . S
H187 C166 0.930 . S
H188 C170 0.931 . S
H189 C168 0.931 . S
H190 C172 0.931 . S
H191 C173 0.929 . S
H192 C174 0.930 . S
H193 C177 0.930 . S
H194 C178 0.931 . S
H195 C182 0.928 . S
H196 C181 0.929 . S
H197 C179 0.932 . S
C198 C199 1.386 . S
C198 C200 1.397 . S
C198 H222 0.931 . S
C199 C198 1.386 . S
C199 C203 1.397 . S
C200 C198 1.397 . S
C200 C201 1.384 . S
C200 H223 0.930 . S
C201 C200 1.384 . S
C201 C202 1.377 . S
C201 C204 1.481 . S
C202 C201 1.377 . S
C202 C203 1.389 . S
C202 H224 0.929 1_455 S
C203 C199 1.397 . S
C203 C202 1.389 . S
C203 H225 0.931 1_455 S
C204 C201 1.481 . S
C204 C205 1.387 . S
C204 C209 1.390 . S
C205 C204 1.387 . S
C205 C206 1.401 . S
C205 H226 0.930 . S
C206 C205 1.401 . S
C206 C207 1.376 . S
C206 C215 1.511 . S
C207 C206 1.376 . S
C207 C208 1.392 . S
C207 H228 0.931 . S
C208 C207 1.392 . S
C208 C209 1.361 . S
C208 C210 1.500 1_455 S
C209 C204 1.390 . S
C209 C208 1.361 . S
C209 H227 0.931 . S
C210 C208 1.500 1_655 S
C210 C211 1.370 . S
C210 C212 1.365 . S
C211 C210 1.370 . S
C211 C221 1.403 . S
C211 H229 0.915 1_655 S
C212 C210 1.365 . S
C212 C213 1.409 . S
C212 H230 0.929 . S
C213 C212 1.409 . S
C213 C214 1.380 . S
C213 H231 0.930 . S
C214 C213 1.380 . S
C214 C221 1.357 . S
C215 C206 1.511 . S
C215 C216 1.341 . S
C215 C217 1.371 . S
C216 C215 1.341 . S
C216 C220 1.394 . S
C216 H232 0.930 . S
C217 C215 1.371 . S
C217 C218 1.392 . S
C217 H233 0.931 . S
C218 C217 1.392 . S
C218 C219 1.331 . S
C218 H236 0.932 . S
C219 C218 1.331 . S
C219 C220 1.336 . S
C220 C216 1.394 . S
C220 C219 1.336 . S
C220 H235 0.929 . S
C221 C211 1.403 . S
C221 C214 1.357 . S
C221 H234 0.928 . S
H222 C198 0.931 . S
H223 C200 0.930 . S
H224 C202 0.929 1_655 S
H225 C203 0.931 1_655 S
H226 C205 0.930 . S
H227 C209 0.931 . S
H228 C207 0.931 . S
H229 C211 0.915 1_455 S
H230 C212 0.929 . S
H231 C213 0.930 . S
H232 C216 0.930 . S
H233 C217 0.931 . S
H234 C221 0.928 . S
H235 C220 0.929 . S
H236 C218 0.932 . S
C237 C238 1.403 . S
C237 C239 1.397 . S
C237 H261 0.931 . S
C238 C237 1.403 . S
C238 C242 1.381 1_655 S
C239 C237 1.397 . S
C239 C240 1.384 . S
C239 H262 0.930 . S
C240 C239 1.384 . S
C240 C241 1.377 1_655 S
C240 C243 1.481 . S
C241 C240 1.377 1_455 S
C241 C242 1.389 . S
C241 H263 0.929 . S
C242 C238 1.381 1_455 S
C242 C241 1.389 . S
C242 H264 0.931 . S
C243 C240 1.481 . S
C243 C244 1.387 . S
C243 C248 1.390 1_655 S
C244 C243 1.387 . S
C244 C245 1.401 . S
C244 H265 0.930 . S
C245 C244 1.401 . S
C245 C246 1.387 . S
C245 C254 1.511 . S
C246 C245 1.387 . S
C246 C247 1.381 1_655 S
C246 H267 0.931 . S
C247 C246 1.381 1_455 S
C247 C248 1.361 . S
C247 C249 1.500 . S
C248 C243 1.390 1_455 S
C248 C247 1.361 . S
C248 H266 0.931 . S
C249 C247 1.500 . S
C249 C250 1.371 . S
C249 C251 1.365 . S
C250 C249 1.371 . S
C250 C260 1.386 . S
C250 H268 0.931 . S
C251 C249 1.365 . S
C251 C252 1.409 . S
C251 H269 0.929 . S
C252 C251 1.409 . S
C252 C253 1.380 . S
C252 H270 0.930 . S
C253 C252 1.380 . S
C253 C260 1.357 . S
C254 C245 1.511 . S
C254 C255 1.341 . S
C254 C256 1.371 . S
C255 C254 1.341 . S
C255 C259 1.394 . S
C255 H271 0.930 . S
C256 C254 1.371 . S
C256 C257 1.392 . S
C256 H272 0.931 . S
C257 C256 1.392 . S
C257 C258 1.331 . S
C257 H275 0.932 . S
C258 C257 1.331 . S
C258 C259 1.336 . S
C259 C255 1.394 . S
C259 C258 1.336 . S
C259 H274 0.929 . S
C260 C250 1.386 . S
C260 C253 1.357 . S
C260 H273 0.928 . S
H261 C237 0.931 . S
H262 C239 0.930 . S
H263 C241 0.929 . S
H264 C242 0.931 . S
H265 C244 0.930 . S
H266 C248 0.931 . S
H267 C246 0.931 . S
H268 C250 0.931 . S
H269 C251 0.929 . S
H270 C252 0.930 . S
H271 C255 0.930 . S
H272 C256 0.931 . S
H273 C260 0.928 . S
H274 C259 0.929 . S
H275 C257 0.932 . S
C276 C277 1.386 . S
C276 C278 1.397 . S
C276 H300 0.931 . S
C277 C276 1.386 . S
C277 C281 1.397 1_565 S
C278 C276 1.397 . S
C278 C279 1.376 1_565 S
C278 H301 0.930 . S
C279 C278 1.376 1_545 S
C279 C280 1.386 . S
C279 C282 1.480 . S
C280 C279 1.386 . S
C280 C281 1.389 . S
C280 H302 0.929 . S
C281 C277 1.397 1_545 S
C281 C280 1.389 . S
C281 H303 0.931 . S
C282 C279 1.480 . S
C282 C283 1.387 1_545 S
C282 C287 1.390 . S
C283 C282 1.387 1_565 S
C283 C284 1.401 . S
C283 H304 0.930 . S
C284 C283 1.401 . S
C284 C285 1.376 1_565 S
C284 C293 1.511 . S
C285 C284 1.376 1_545 S
C285 C286 1.392 . S
C285 H306 0.931 . S
C286 C285 1.392 . S
C286 C287 1.361 . S
C286 C288 1.500 . S
C287 C282 1.390 . S
C287 C286 1.361 . S
C287 H305 0.931 . S
C288 C286 1.500 . S
C288 C289 1.371 . S
C288 C290 1.365 . S
C289 C288 1.371 . S
C289 C299 1.386 . S
C289 H307 0.931 . S
C290 C288 1.365 . S
C290 C291 1.409 . S
C290 H308 0.929 . S
C291 C290 1.409 . S
C291 C292 1.380 . S
C291 H309 0.930 . S
C292 C291 1.380 . S
C292 C299 1.357 . S
C293 C284 1.511 . S
C293 C294 1.341 . S
C293 C295 1.371 . S
C294 C293 1.341 . S
C294 C298 1.394 . S
C294 H310 0.930 . S
C295 C293 1.371 . S
C295 C296 1.392 . S
C295 H311 0.931 . S
C296 C295 1.392 . S
C296 C297 1.331 . S
C296 H314 0.932 . S
C297 C296 1.331 . S
C297 C298 1.336 . S
C298 C294 1.394 . S
C298 C297 1.336 . S
C298 H313 0.929 . S
C299 C289 1.386 . S
C299 C292 1.357 . S
C299 H312 0.928 . S
H300 C276 0.931 . S
H301 C278 0.930 . S
H302 C280 0.929 . S
H303 C281 0.931 . S
H304 C283 0.930 . S
H305 C287 0.931 . S
H306 C285 0.931 . S
H307 C289 0.931 . S
H308 C290 0.929 . S
H309 C291 0.930 . S
H310 C294 0.930 . S
H311 C295 0.931 . S
H312 C299 0.928 . S
H313 C298 0.929 . S
H314 C296 0.932 . S
C315 C316 1.386 . S
C315 C317 1.397 . S
C315 H339 0.931 . S
C316 C315 1.386 . S
C316 C320 1.397 . S
C317 C315 1.397 . S
C317 C318 1.384 . S
C317 H340 0.930 . S
C318 C317 1.384 . S
C318 C319 1.377 . S
C318 C321 1.481 . S
C319 C318 1.377 . S
C319 C320 1.389 . S
C319 H341 0.929 . S
C320 C316 1.397 . S
C320 C319 1.389 . S
C320 H342 0.931 . S
C321 C318 1.481 . S
C321 C322 1.387 . S
C321 C326 1.390 . S
C322 C321 1.387 . S
C322 C323 1.401 . S
C322 H343 0.930 . S
C323 C322 1.401 . S
C323 C324 1.376 . S
C323 C332 1.511 . S
C324 C323 1.376 . S
C324 C325 1.392 . S
C324 H345 0.931 . S
C325 C324 1.392 . S
C325 C326 1.361 . S
C325 C327 1.500 . S
C326 C321 1.390 . S
C326 C325 1.361 . S
C326 H344 0.931 . S
C327 C325 1.500 . S
C327 C328 1.371 . S
C327 C329 1.365 . S
C328 C327 1.371 . S
C328 C338 1.386 . S
C328 H346 0.931 . S
C329 C327 1.365 . S
C329 C330 1.409 . S
C329 H347 0.929 . S
C330 C329 1.409 . S
C330 C331 1.380 . S
C330 H348 0.930 . S
C331 C330 1.380 . S
C331 C338 1.357 . S
C332 C323 1.511 . S
C332 C333 1.341 . S
C332 C334 1.371 . S
C333 C332 1.341 . S
C333 C337 1.394 . S
C333 H349 0.930 . S
C334 C332 1.371 . S
C334 C335 1.392 . S
C334 H350 0.931 . S
C335 C334 1.392 . S
C335 C336 1.331 . S
C335 H353 0.932 . S
C336 C335 1.331 . S
C336 C337 1.336 . S
C337 C333 1.394 . S
C337 C336 1.336 . S
C337 H352 0.929 . S
C338 C328 1.386 . S
C338 C331 1.357 . S
C338 H351 0.928 . S
H339 C315 0.931 . S
H340 C317 0.930 . S
H341 C319 0.929 . S
H342 C320 0.931 . S
H343 C322 0.930 . S
H344 C326 0.931 . S
H345 C324 0.931 . S
H346 C328 0.931 . S
H347 C329 0.929 . S
H348 C330 0.930 . S
H349 C333 0.930 . S
H350 C334 0.931 . S
H351 C338 0.928 . S
H352 C337 0.929 . S
H353 C335 0.932 . S
H354 C362 0.929 . S
H355 C364 0.930 . S
H356 C366 0.930 . S
H357 C369 0.929 . S
H358 C372 0.930 . S
H359 C374 0.960 . S
H360 C374 0.960 . S
H361 C374 0.960 . S
C362 H354 0.929 . S
C362 C363 1.377 . S
C362 C364 1.384 . S
C363 C362 1.377 . S
C363 C369 1.390 . S
C364 H355 0.930 . S
C364 C362 1.384 . S
C364 C365 1.372 . S
C365 C364 1.372 . S
C365 C366 1.400 . S
C365 C370 1.490 . S
C366 H356 0.930 . S
C366 C365 1.400 . S
C366 C369 1.386 . S
H367 C383 0.930 . S
H368 C384 0.931 . S
C369 H357 0.929 . S
C369 C363 1.390 . S
C369 C366 1.386 . S
C370 C365 1.490 . S
C370 C372 1.395 . S
C370 C373 1.403 . S
H371 C377 0.930 . S
C372 H358 0.930 . S
C372 C370 1.395 . S
C372 C375 1.403 . S
C373 C370 1.403 . S
C373 C374 1.524 . S
C373 C377 1.400 . S
C374 H359 0.960 . S
C374 H360 0.960 . S
C374 H361 0.960 . S
C374 C373 1.524 . S
C375 C372 1.403 . S
C375 C376 1.392 . S
C375 C379 1.495 . S
C376 C375 1.392 . S
C376 C377 1.385 . S
C376 C378 1.478 . S
C377 H371 0.930 . S
C377 C373 1.400 . S
C377 C376 1.385 . S
C378 C376 1.478 . S
C378 C380 1.381 . S
C378 C384 1.383 . S
C379 C375 1.495 . S
C379 H385 0.959 . S
C379 H386 0.961 . S
C379 H387 0.960 . S
C380 C378 1.381 . S
C380 C381 1.394 . S
C380 H388 0.930 . S
C381 C380 1.394 . S
C381 C382 1.383 . S
C381 H389 0.929 . S
C382 C381 1.383 . S
C382 C383 1.377 . S
C383 H367 0.930 . S
C383 C382 1.377 . S
C383 C384 1.379 . S
C384 H368 0.931 . S
C384 C378 1.383 . S
C384 C383 1.379 . S
H385 C379 0.959 . S
H386 C379 0.961 . S
H387 C379 0.960 . S
H388 C380 0.930 . S
H389 C381 0.929 . S
H390 C398 0.929 . S
H391 C400 0.930 . S
H392 C402 0.930 . S
H393 C405 0.929 . S
H394 C408 0.930 . S
H395 C410 0.960 . S
H396 C410 0.960 . S
H397 C410 0.960 . S
C398 H390 0.929 . S
C398 C399 1.377 . S
C398 C400 1.384 . S
C399 C398 1.377 . S
C399 C405 1.390 . S
C400 H391 0.930 . S
C400 C398 1.384 . S
C400 C401 1.372 . S
C401 C400 1.372 . S
C401 C402 1.400 . S
C401 C406 1.490 . S
C402 H392 0.930 . S
C402 C401 1.400 . S
C402 C405 1.386 . S
H403 C419 0.930 . S
H404 C420 0.931 . S
C405 H393 0.929 . S
C405 C399 1.390 . S
C405 C402 1.386 . S
C406 C401 1.490 . S
C406 C408 1.395 . S
C406 C409 1.403 . S
H407 C413 0.930 . S
C408 H394 0.930 . S
C408 C406 1.395 . S
C408 C411 1.403 . S
C409 C406 1.403 . S
C409 C410 1.524 . S
C409 C413 1.400 . S
C410 H395 0.960 . S
C410 H396 0.960 . S
C410 H397 0.960 . S
C410 C409 1.524 . S
C411 C408 1.403 . S
C411 C412 1.392 . S
C411 C415 1.495 . S
C412 C411 1.392 . S
C412 C413 1.385 . S
C412 C414 1.478 . S
C413 H407 0.930 . S
C413 C409 1.400 . S
C413 C412 1.385 . S
C414 C412 1.478 . S
C414 C416 1.381 . S
C414 C420 1.383 . S
C415 C411 1.495 . S
C415 H421 0.959 . S
C415 H422 0.961 . S
C415 H423 0.960 . S
C416 C414 1.381 . S
C416 C417 1.394 . S
C416 H424 0.930 . S
C417 C416 1.394 . S
C417 C418 1.383 . S
C417 H425 0.929 . S
C418 C417 1.383 . S
C418 C419 1.377 . S
C419 H403 0.930 . S
C419 C418 1.377 . S
C419 C420 1.379 . S
C420 H404 0.931 . S
C420 C414 1.383 . S
C420 C419 1.379 . S
H421 C415 0.959 . S
H422 C415 0.961 . S
H423 C415 0.960 . S
H424 C416 0.930 . S
H425 C417 0.929 . S
H426 C434 0.929 . S
H427 C436 0.930 . S
H428 C438 0.930 . S
H429 C441 0.929 . S
H430 C444 0.930 . S
H431 C446 0.960 . S
H432 C446 0.960 . S
H433 C446 0.960 . S
C434 H426 0.929 . S
C434 C435 1.377 . S
C434 C436 1.384 . S
C435 C434 1.377 . S
C435 C441 1.390 . S
C436 H427 0.930 . S
C436 C434 1.384 . S
C436 C437 1.372 . S
C437 C436 1.372 . S
C437 C438 1.400 . S
C437 C442 1.490 . S
C438 H428 0.930 . S
C438 C437 1.400 . S
C438 C441 1.386 . S
H439 C455 0.930 . S
H440 C456 0.931 . S
C441 H429 0.929 . S
C441 C435 1.390 . S
C441 C438 1.386 . S
C442 C437 1.490 . S
C442 C444 1.395 . S
C442 C445 1.403 . S
H443 C449 0.930 . S
C444 H430 0.930 . S
C444 C442 1.395 . S
C444 C447 1.403 . S
C445 C442 1.403 . S
C445 C446 1.524 . S
C445 C449 1.400 . S
C446 H431 0.960 . S
C446 H432 0.960 . S
C446 H433 0.960 . S
C446 C445 1.524 . S
C447 C444 1.403 . S
C447 C448 1.392 . S
C447 C451 1.495 . S
C448 C447 1.392 . S
C448 C449 1.385 . S
C448 C450 1.478 . S
C449 H443 0.930 . S
C449 C445 1.400 . S
C449 C448 1.385 . S
C450 C448 1.478 . S
C450 C452 1.381 . S
C450 C456 1.383 . S
C451 C447 1.495 . S
C451 H457 0.959 . S
C451 H458 0.961 . S
C451 H459 0.960 . S
C452 C450 1.381 . S
C452 C453 1.394 . S
C452 H460 0.930 . S
C453 C452 1.394 . S
C453 C454 1.383 . S
C453 H461 0.929 . S
C454 C453 1.383 . S
C454 C455 1.377 . S
C455 H439 0.930 . S
C455 C454 1.377 . S
C455 C456 1.379 . S
C456 H440 0.931 . S
C456 C450 1.383 . S
C456 C455 1.379 . S
H457 C451 0.959 . S
H458 C451 0.961 . S
H459 C451 0.960 . S
H460 C452 0.930 . S
H461 C453 0.929 . S
H462 C470 0.929 . S
H463 C472 0.930 . S
H464 C474 0.930 . S
H465 C477 0.929 . S
H466 C480 0.930 . S
H467 C482 0.960 . S
H468 C482 0.960 . S
H469 C482 0.960 . S
C470 H462 0.929 . S
C470 C471 1.377 . S
C470 C472 1.384 . S
C471 C470 1.377 . S
C471 C477 1.390 . S
C472 H463 0.930 . S
C472 C470 1.384 . S
C472 C473 1.372 . S
C473 C472 1.372 . S
C473 C474 1.400 . S
C473 C478 1.490 . S
C474 H464 0.930 . S
C474 C473 1.400 . S
C474 C477 1.386 . S
H475 C491 0.930 . S
H476 C492 0.931 . S
C477 H465 0.929 . S
C477 C471 1.390 . S
C477 C474 1.386 . S
C478 C473 1.490 . S
C478 C480 1.395 . S
C478 C481 1.403 . S
H479 C485 0.930 . S
C480 H466 0.930 . S
C480 C478 1.395 . S
C480 C483 1.403 . S
C481 C478 1.403 . S
C481 C482 1.524 . S
C481 C485 1.400 . S
C482 H467 0.960 . S
C482 H468 0.960 . S
C482 H469 0.960 . S
C482 C481 1.524 . S
C483 C480 1.403 . S
C483 C484 1.392 . S
C483 C487 1.495 . S
C484 C483 1.392 . S
C484 C485 1.385 . S
C484 C486 1.478 . S
C485 H479 0.930 . S
C485 C481 1.400 . S
C485 C484 1.385 . S
C486 C484 1.478 . S
C486 C488 1.381 . S
C486 C492 1.383 . S
C487 C483 1.495 . S
C487 H493 0.959 . S
C487 H494 0.961 . S
C487 H495 0.960 . S
C488 C486 1.381 . S
C488 C489 1.394 . S
C488 H496 0.930 . S
C489 C488 1.394 . S
C489 C490 1.383 . S
C489 H497 0.929 . S
C490 C489 1.383 . S
C490 C491 1.377 . S
C491 H475 0.930 . S
C491 C490 1.377 . S
C491 C492 1.379 . S
C492 H476 0.931 . S
C492 C486 1.383 . S
C492 C491 1.379 . S
H493 C487 0.959 . S
H494 C487 0.961 . S
H495 C487 0.960 . S
H496 C488 0.930 . S
H497 C489 0.929 . S
H498 C506 0.929 . S
H499 C508 0.930 . S
H500 C510 0.930 . S
H501 C513 0.929 . S
H502 C516 0.930 . S
H503 C518 0.960 . S
H504 C518 0.960 . S
H505 C518 0.960 . S
C506 H498 0.929 . S
C506 C507 1.377 . S
C506 C508 1.384 . S
C507 C506 1.377 . S
C507 C513 1.390 . S
C508 H499 0.930 . S
C508 C506 1.384 . S
C508 C509 1.372 . S
C509 C508 1.372 . S
C509 C510 1.400 . S
C509 C514 1.490 . S
C510 H500 0.930 . S
C510 C509 1.400 . S
C510 C513 1.386 . S
H511 C527 0.930 . S
H512 C528 0.931 . S
C513 H501 0.929 . S
C513 C507 1.390 . S
C513 C510 1.386 . S
C514 C509 1.490 . S
C514 C516 1.395 . S
C514 C517 1.403 . S
H515 C521 0.930 . S
C516 H502 0.930 . S
C516 C514 1.395 . S
C516 C519 1.403 . S
C517 C514 1.403 . S
C517 C518 1.524 . S
C517 C521 1.400 . S
C518 H503 0.960 . S
C518 H504 0.960 . S
C518 H505 0.960 . S
C518 C517 1.524 . S
C519 C516 1.403 . S
C519 C520 1.392 . S
C519 C523 1.495 . S
C520 C519 1.392 . S
C520 C521 1.385 . S
C520 C522 1.478 . S
C521 H515 0.930 . S
C521 C517 1.400 . S
C521 C520 1.385 . S
C522 C520 1.478 . S
C522 C524 1.381 . S
C522 C528 1.383 . S
C523 C519 1.495 . S
C523 H529 0.959 . S
C523 H530 0.961 . S
C523 H531 0.960 . S
C524 C522 1.381 . S
C524 C525 1.394 . S
C524 H532 0.930 . S
C525 C524 1.394 . S
C525 C526 1.383 . S
C525 H533 0.929 . S
C526 C525 1.383 . S
C526 C527 1.377 . S
C527 H511 0.930 . S
C527 C526 1.377 . S
C527 C528 1.379 . S
C528 H512 0.931 . S
C528 C522 1.383 . S
C528 C527 1.379 . S
H529 C523 0.959 . S
H530 C523 0.961 . S
H531 C523 0.960 . S
H532 C524 0.930 . S
H533 C525 0.929 . S
H534 C542 0.929 . S
H535 C544 0.930 . S
H536 C546 0.930 . S
H537 C549 0.929 . S
H538 C552 0.930 . S
H539 C554 0.960 . S
H540 C554 0.960 . S
H541 C554 0.960 . S
C542 H534 0.929 . S
C542 C543 1.377 . S
C542 C544 1.384 . S
C543 C542 1.377 . S
C543 C549 1.390 . S
C544 H535 0.930 . S
C544 C542 1.384 . S
C544 C545 1.372 . S
C545 C544 1.372 . S
C545 C546 1.400 . S
C545 C550 1.490 . S
C546 H536 0.930 . S
C546 C545 1.400 . S
C546 C549 1.386 . S
H547 C563 0.930 . S
H548 C564 0.931 . S
C549 H537 0.929 . S
C549 C543 1.390 . S
C549 C546 1.386 . S
C550 C545 1.490 . S
C550 C552 1.395 . S
C550 C553 1.403 . S
H551 C557 0.930 . S
C552 H538 0.930 . S
C552 C550 1.395 . S
C552 C555 1.403 . S
C553 C550 1.403 . S
C553 C554 1.524 . S
C553 C557 1.400 . S
C554 H539 0.960 . S
C554 H540 0.960 . S
C554 H541 0.960 . S
C554 C553 1.524 . S
C555 C552 1.403 . S
C555 C556 1.392 . S
C555 C559 1.495 . S
C556 C555 1.392 . S
C556 C557 1.385 . S
C556 C558 1.478 . S
C557 H551 0.930 . S
C557 C553 1.400 . S
C557 C556 1.385 . S
C558 C556 1.478 . S
C558 C560 1.381 . S
C558 C564 1.383 . S
C559 C555 1.495 . S
C559 H565 0.959 . S
C559 H566 0.961 . S
C559 H567 0.960 . S
C560 C558 1.381 . S
C560 C561 1.394 . S
C560 H568 0.930 . S
C561 C560 1.394 . S
C561 C562 1.383 . S
C561 H569 0.929 . S
C562 C561 1.383 . S
C562 C563 1.377 . S
C563 H547 0.930 . S
C563 C562 1.377 . S
C563 C564 1.379 . S
C564 H548 0.931 . S
C564 C558 1.383 . S
C564 C563 1.379 . S
H565 C559 0.959 . S
H566 C559 0.961 . S
H567 C559 0.960 . S
H568 C560 0.930 . S
H569 C561 0.929 . S
H570 C578 0.929 . S
H571 C580 0.930 . S
H572 C582 0.930 . S
H573 C585 0.929 . S
H574 C588 0.930 . S
H575 C590 0.960 . S
H576 C590 0.960 . S
H577 C590 0.960 . S
C578 H570 0.929 . S
C578 C579 1.377 . S
C578 C580 1.384 . S
C579 C578 1.377 . S
C579 C585 1.390 . S
C580 H571 0.930 . S
C580 C578 1.384 . S
C580 C581 1.372 . S
C581 C580 1.372 . S
C581 C582 1.400 . S
C581 C586 1.490 . S
C582 H572 0.930 . S
C582 C581 1.400 . S
C582 C585 1.386 . S
H583 C599 0.930 . S
H584 C600 0.931 . S
C585 H573 0.929 . S
C585 C579 1.390 . S
C585 C582 1.386 . S
C586 C581 1.490 . S
C586 C588 1.395 . S
C586 C589 1.403 . S
H587 C593 0.930 . S
C588 H574 0.930 . S
C588 C586 1.395 . S
C588 C591 1.403 . S
C589 C586 1.403 . S
C589 C590 1.524 . S
C589 C593 1.400 . S
C590 H575 0.960 . S
C590 H576 0.960 . S
C590 H577 0.960 . S
C590 C589 1.524 . S
C591 C588 1.403 . S
C591 C592 1.392 . S
C591 C595 1.495 . S
C592 C591 1.392 . S
C592 C593 1.385 . S
C592 C594 1.478 . S
C593 H587 0.930 . S
C593 C589 1.400 . S
C593 C592 1.385 . S
C594 C592 1.478 . S
C594 C596 1.381 . S
C594 C600 1.383 . S
C595 C591 1.495 . S
C595 H601 0.959 . S
C595 H602 0.961 . S
C595 H603 0.960 . S
C596 C594 1.381 . S
C596 C597 1.394 . S
C596 H604 0.930 . S
C597 C596 1.394 . S
C597 C598 1.383 . S
C597 H605 0.929 . S
C598 C597 1.383 . S
C598 C599 1.377 . S
C599 H583 0.930 . S
C599 C598 1.377 . S
C599 C600 1.379 . S
C600 H584 0.931 . S
C600 C594 1.383 . S
C600 C599 1.379 . S
H601 C595 0.959 . S
H602 C595 0.961 . S
H603 C595 0.960 . S
H604 C596 0.930 . S
H605 C597 0.929 . S
H606 C614 0.929 . S
H607 C616 0.930 . S
H608 C618 0.930 . S
H609 C621 0.929 . S
H610 C624 0.930 . S
H611 C626 0.960 . S
H612 C626 0.960 . S
H613 C626 0.960 . S
C614 H606 0.929 . S
C614 C615 1.377 . S
C614 C616 1.384 . S
C615 C614 1.377 . S
C615 C621 1.390 . S
C616 H607 0.930 . S
C616 C614 1.384 . S
C616 C617 1.372 . S
C617 C616 1.372 . S
C617 C618 1.400 . S
C617 C622 1.490 . S
C618 H608 0.930 . S
C618 C617 1.400 . S
C618 C621 1.386 . S
H619 C635 0.930 . S
H620 C636 0.931 . S
C621 H609 0.929 . S
C621 C615 1.390 . S
C621 C618 1.386 . S
C622 C617 1.490 . S
C622 C624 1.395 . S
C622 C625 1.403 . S
H623 C629 0.930 . S
C624 H610 0.930 . S
C624 C622 1.395 . S
C624 C627 1.403 . S
C625 C622 1.403 . S
C625 C626 1.524 . S
C625 C629 1.400 . S
C626 H611 0.960 . S
C626 H612 0.960 . S
C626 H613 0.960 . S
C626 C625 1.524 . S
C627 C624 1.403 . S
C627 C628 1.392 . S
C627 C631 1.495 . S
C628 C627 1.392 . S
C628 C629 1.385 . S
C628 C630 1.478 . S
C629 H623 0.930 . S
C629 C625 1.400 . S
C629 C628 1.385 . S
C630 C628 1.478 . S
C630 C632 1.381 . S
C630 C636 1.383 . S
C631 C627 1.495 . S
C631 H637 0.959 . S
C631 H638 0.961 . S
C631 H639 0.960 . S
C632 C630 1.381 . S
C632 C633 1.394 . S
C632 H640 0.930 . S
C633 C632 1.394 . S
C633 C634 1.383 . S
C633 H641 0.929 . S
C634 C633 1.383 . S
C634 C635 1.377 . S
C635 H619 0.930 . S
C635 C634 1.377 . S
C635 C636 1.379 . S
C636 H620 0.931 . S
C636 C630 1.383 . S
C636 C635 1.379 . S
H637 C631 0.959 . S
H638 C631 0.961 . S
H639 C631 0.960 . S
H640 C632 0.930 . S
H641 C633 0.929 . S
H642 C650 0.929 . S
H643 C652 0.930 . S
H644 C654 0.930 . S
H645 C657 0.929 . S
H646 C660 0.930 . S
H647 C662 0.960 . S
H648 C662 0.960 . S
H649 C662 0.960 . S
C650 H642 0.929 . S
C650 C651 1.377 . S
C650 C652 1.384 . S
C651 C650 1.377 . S
C651 C657 1.390 . S
C652 H643 0.930 . S
C652 C650 1.384 . S
C652 C653 1.372 . S
C653 C652 1.372 . S
C653 C654 1.400 . S
C653 C658 1.490 . S
C654 H644 0.930 . S
C654 C653 1.400 . S
C654 C657 1.386 . S
H655 C671 0.930 . S
H656 C672 0.931 . S
C657 H645 0.929 . S
C657 C651 1.390 . S
C657 C654 1.386 . S
C658 C653 1.490 . S
C658 C660 1.395 . S
C658 C661 1.403 . S
H659 C665 0.930 . S
C660 H646 0.930 . S
C660 C658 1.395 . S
C660 C663 1.403 . S
C661 C658 1.403 . S
C661 C662 1.524 . S
C661 C665 1.400 . S
C662 H647 0.960 . S
C662 H648 0.960 . S
C662 H649 0.960 . S
C662 C661 1.524 . S
C663 C660 1.403 . S
C663 C664 1.392 . S
C663 C667 1.495 . S
C664 C663 1.392 . S
C664 C665 1.385 . S
C664 C666 1.478 . S
C665 H659 0.930 . S
C665 C661 1.400 . S
C665 C664 1.385 . S
C666 C664 1.478 . S
C666 C668 1.381 . S
C666 C672 1.383 . S
C667 C663 1.495 . S
C667 H673 0.959 . S
C667 H674 0.961 . S
C667 H675 0.960 . S
C668 C666 1.381 . S
C668 C669 1.394 . S
C668 H676 0.930 . S
C669 C668 1.394 . S
C669 C670 1.383 . S
C669 H677 0.929 . S
C670 C669 1.383 . S
C670 C671 1.377 . S
C671 H655 0.930 . S
C671 C670 1.377 . S
C671 C672 1.379 . S
C672 H656 0.931 . S
C672 C666 1.383 . S
C672 C671 1.379 . S
H673 C667 0.959 . S
H674 C667 0.961 . S
H675 C667 0.960 . S
H676 C668 0.930 . S
H677 C669 0.929 . S
H678 C686 0.929 . S
H679 C688 0.930 . S
H680 C690 0.930 . S
H681 C693 0.929 . S
H682 C696 0.930 . S
H683 C698 0.960 . S
H684 C698 0.960 . S
H685 C698 0.960 . S
C686 H678 0.929 . S
C686 C687 1.377 . S
C686 C688 1.384 . S
C687 C686 1.377 . S
C687 C693 1.390 . S
C688 H679 0.930 . S
C688 C686 1.384 . S
C688 C689 1.372 . S
C689 C688 1.372 . S
C689 C690 1.400 . S
C689 C694 1.490 . S
C690 H680 0.930 . S
C690 C689 1.400 . S
C690 C693 1.386 . S
H691 C707 0.930 . S
H692 C708 0.931 . S
C693 H681 0.929 . S
C693 C687 1.390 . S
C693 C690 1.386 . S
C694 C689 1.490 . S
C694 C696 1.395 . S
C694 C697 1.403 . S
H695 C701 0.930 . S
C696 H682 0.930 . S
C696 C694 1.395 . S
C696 C699 1.403 . S
C697 C694 1.403 . S
C697 C698 1.524 . S
C697 C701 1.400 . S
C698 H683 0.960 . S
C698 H684 0.960 . S
C698 H685 0.960 . S
C698 C697 1.524 . S
C699 C696 1.403 . S
C699 C700 1.392 . S
C699 C703 1.495 . S
C700 C699 1.392 . S
C700 C701 1.385 . S
C700 C702 1.478 . S
C701 H695 0.930 . S
C701 C697 1.400 . S
C701 C700 1.385 . S
C702 C700 1.478 . S
C702 C704 1.381 . S
C702 C708 1.383 . S
C703 C699 1.495 . S
C703 H709 0.959 . S
C703 H710 0.961 . S
C703 H711 0.960 . S
C704 C702 1.381 . S
C704 C705 1.394 . S
C704 H712 0.930 . S
C705 C704 1.394 . S
C705 C706 1.383 . S
C705 H713 0.929 . S
C706 C705 1.383 . S
C706 C707 1.377 . S
C707 H691 0.930 . S
C707 C706 1.377 . S
C707 C708 1.379 . S
C708 H692 0.931 . S
C708 C702 1.383 . S
C708 C707 1.379 . S
H709 C703 0.959 . S
H710 C703 0.961 . S
H711 C703 0.960 . S
H712 C704 0.930 . S
H713 C705 0.929 . S
H714 C722 0.929 . S
H715 C724 0.930 . S
H716 C726 0.930 . S
H717 C729 0.929 . S
H718 C732 0.930 . S
H719 C734 0.960 . S
H720 C734 0.960 . S
H721 C734 0.960 . S
C722 H714 0.929 . S
C722 C723 1.377 . S
C722 C724 1.384 . S
C723 C722 1.377 . S
C723 C729 1.390 . S
C724 H715 0.930 . S
C724 C722 1.384 . S
C724 C725 1.372 . S
C725 C724 1.372 . S
C725 C726 1.400 . S
C725 C730 1.490 . S
C726 H716 0.930 . S
C726 C725 1.400 . S
C726 C729 1.386 . S
H727 C743 0.930 . S
H728 C744 0.931 . S
C729 H717 0.929 . S
C729 C723 1.390 . S
C729 C726 1.386 . S
C730 C725 1.490 . S
C730 C732 1.395 . S
C730 C733 1.403 . S
H731 C737 0.930 . S
C732 H718 0.930 . S
C732 C730 1.395 . S
C732 C735 1.403 . S
C733 C730 1.403 . S
C733 C734 1.524 . S
C733 C737 1.400 . S
C734 H719 0.960 . S
C734 H720 0.960 . S
C734 H721 0.960 . S
C734 C733 1.524 . S
C735 C732 1.403 . S
C735 C736 1.392 . S
C735 C739 1.495 . S
C736 C735 1.392 . S
C736 C737 1.385 . S
C736 C738 1.478 . S
C737 H731 0.930 . S
C737 C733 1.400 . S
C737 C736 1.385 . S
C738 C736 1.478 . S
C738 C740 1.381 . S
C738 C744 1.383 . S
C739 C735 1.495 . S
C739 H745 0.959 . S
C739 H746 0.961 . S
C739 H747 0.960 . S
C740 C738 1.381 . S
C740 C741 1.394 . S
C740 H748 0.930 . S
C741 C740 1.394 . S
C741 C742 1.383 . S
C741 H749 0.929 . S
C742 C741 1.383 . S
C742 C743 1.377 . S
C743 H727 0.930 . S
C743 C742 1.377 . S
C743 C744 1.379 . S
C744 H728 0.931 . S
C744 C738 1.383 . S
C744 C743 1.379 . S
H745 C739 0.959 . S
H746 C739 0.961 . S
H747 C739 0.960 . S
H748 C740 0.930 . S
H749 C741 0.929 . S
H750 C758 0.929 . S
H751 C760 0.930 . S
H752 C762 0.930 . S
H753 C765 0.929 . S
H754 C768 0.930 . S
H755 C770 0.960 . S
H756 C770 0.960 . S
H757 C770 0.960 . S
C758 H750 0.929 . S
C758 C759 1.377 . S
C758 C760 1.384 . S
C759 C758 1.377 . S
C759 C765 1.390 . S
C760 H751 0.930 . S
C760 C758 1.384 . S
C760 C761 1.372 . S
C761 C760 1.372 . S
C761 C762 1.400 . S
C761 C766 1.490 . S
C762 H752 0.930 . S
C762 C761 1.400 . S
C762 C765 1.386 . S
H763 C779 0.930 . S
H764 C780 0.931 . S
C765 H753 0.929 . S
C765 C759 1.390 . S
C765 C762 1.386 . S
C766 C761 1.490 . S
C766 C768 1.395 . S
C766 C769 1.403 . S
H767 C773 0.930 . S
C768 H754 0.930 . S
C768 C766 1.395 . S
C768 C771 1.403 . S
C769 C766 1.403 . S
C769 C770 1.524 . S
C769 C773 1.400 . S
C770 H755 0.960 . S
C770 H756 0.960 . S
C770 H757 0.960 . S
C770 C769 1.524 . S
C771 C768 1.403 . S
C771 C772 1.392 . S
C771 C775 1.495 . S
C772 C771 1.392 . S
C772 C773 1.385 . S
C772 C774 1.478 . S
C773 H767 0.930 . S
C773 C769 1.400 . S
C773 C772 1.385 . S
C774 C772 1.478 . S
C774 C776 1.381 . S
C774 C780 1.383 . S
C775 C771 1.495 . S
C775 H781 0.959 . S
C775 H782 0.961 . S
C775 H783 0.960 . S
C776 C774 1.381 . S
C776 C777 1.394 . S
C776 H784 0.930 . S
C777 C776 1.394 . S
C777 C778 1.383 . S
C777 H785 0.929 . S
C778 C777 1.383 . S
C778 C779 1.377 . S
C779 H763 0.930 . S
C779 C778 1.377 . S
C779 C780 1.379 . S
C780 H764 0.931 . S
C780 C774 1.383 . S
C780 C779 1.379 . S
H781 C775 0.959 . S
H782 C775 0.961 . S
H783 C775 0.960 . S
H784 C776 0.930 . S
H785 C777 0.929 . S
H786 C794 0.929 . S
H787 C796 0.930 . S
H788 C798 0.930 . S
H789 C801 0.929 . S
H790 C804 0.930 . S
H791 C806 0.960 . S
H792 C806 0.960 . S
H793 C806 0.960 . S
C794 H786 0.929 . S
C794 C795 1.377 . S
C794 C796 1.384 . S
C795 C794 1.377 . S
C795 C801 1.390 . S
C796 H787 0.930 . S
C796 C794 1.384 . S
C796 C797 1.372 . S
C797 C796 1.372 . S
C797 C798 1.400 . S
C797 C802 1.490 . S
C798 H788 0.930 . S
C798 C797 1.400 . S
C798 C801 1.386 . S
H799 C815 0.930 . S
H800 C816 0.931 . S
C801 H789 0.929 . S
C801 C795 1.390 . S
C801 C798 1.386 . S
C802 C797 1.490 . S
C802 C804 1.395 . S
C802 C805 1.403 . S
H803 C809 0.930 1_655 S
C804 H790 0.930 . S
C804 C802 1.395 . S
C804 C807 1.403 . S
C805 C802 1.403 . S
C805 C806 1.524 1_455 S
C805 C809 1.400 . S
C806 H791 0.960 . S
C806 H792 0.960 . S
C806 H793 0.960 . S
C806 C805 1.524 1_655 S
C807 C804 1.403 . S
C807 C808 1.392 . S
C807 C811 1.495 . S
C808 C807 1.392 . S
C808 C809 1.385 . S
C808 C810 1.478 . S
C809 H803 0.930 1_455 S
C809 C805 1.400 . S
C809 C808 1.385 . S
C810 C808 1.478 . S
C810 C812 1.381 . S
C810 C816 1.383 . S
C811 C807 1.495 . S
C811 H817 0.959 . S
C811 H818 0.961 . S
C811 H819 0.960 . S
C812 C810 1.381 . S
C812 C813 1.394 1_554 S
C812 H820 0.930 . S
C813 C812 1.394 1_556 S
C813 C814 1.383 . S
C813 H821 0.929 . S
C814 C813 1.383 . S
C814 C815 1.377 . S
C815 H799 0.930 . S
C815 C814 1.377 . S
C815 C816 1.379 1_556 S
C816 H800 0.931 . S
C816 C810 1.383 . S
C816 C815 1.379 1_554 S
H817 C811 0.959 . S
H818 C811 0.961 . S
H819 C811 0.960 . S
H820 C812 0.930 . S
H821 C813 0.929 . S
H822 C830 0.929 . S
H823 C832 0.930 . S
H824 C834 0.930 . S
H825 C837 0.929 . S
H826 C840 0.930 . S
H827 C842 0.960 . S
H828 C842 0.960 . S
H829 C842 0.960 . S
C830 H822 0.929 . S
C830 C831 1.377 . S
C830 C832 1.384 . S
C831 C830 1.377 . S
C831 C837 1.390 1_545 S
C832 H823 0.930 . S
C832 C830 1.384 . S
C832 C833 1.372 . S
C833 C832 1.372 . S
C833 C834 1.400 1_545 S
C833 C838 1.490 . S
C834 H824 0.930 . S
C834 C833 1.400 1_565 S
C834 C837 1.386 . S
H835 C851 0.953 . S
H836 C852 0.916 1_565 S
C837 H825 0.929 . S
C837 C831 1.390 1_565 S
C837 C834 1.386 . S
C838 C833 1.490 . S
C838 C840 1.395 . S
C838 C841 1.403 1_545 S
H839 C845 0.930 . S
C840 H826 0.930 . S
C840 C838 1.395 . S
C840 C843 1.403 . S
C841 C838 1.403 1_565 S
C841 C842 1.524 . S
C841 C845 1.400 . S
C842 H827 0.960 . S
C842 H828 0.960 . S
C842 H829 0.960 . S
C842 C841 1.524 . S
C843 C840 1.403 . S
C843 C844 1.392 . S
C843 C847 1.495 . S
C844 C843 1.392 . S
C844 C845 1.385 1_545 S
C844 C846 1.478 . S
C845 H839 0.930 . S
C845 C841 1.400 . S
C845 C844 1.385 1_565 S
C846 C844 1.478 . S
C846 C848 1.381 . S
C846 C852 1.397 . S
C847 C843 1.495 . S
C847 H853 0.959 . S
C847 H854 0.961 . S
C847 H855 0.960 . S
C848 C846 1.381 . S
C848 C849 1.394 . S
C848 H856 0.930 . S
C849 C848 1.394 . S
C849 C850 1.383 . S
C849 H857 0.929 . S
C850 C849 1.383 . S
C850 C851 1.353 1_545 S
C851 H835 0.953 . S
C851 C850 1.353 1_565 S
C851 C852 1.381 1_565 S
C852 H836 0.916 1_545 S
C852 C846 1.397 . S
C852 C851 1.381 1_545 S
H853 C847 0.959 . S
H854 C847 0.961 . S
H855 C847 0.960 . S
H856 C848 0.930 . S
H857 C849 0.929 . S
H858 C866 0.929 . S
H859 C868 0.930 . S
H860 C870 0.930 . S
H861 C873 0.929 . S
H862 C876 0.930 . S
H863 C878 0.960 . S
H864 C878 0.960 . S
H865 C878 0.960 . S
C866 H858 0.929 . S
C866 C867 1.377 . S
C866 C868 1.384 . S
C867 C866 1.377 . S
C867 C873 1.390 . S
C868 H859 0.930 . S
C868 C866 1.384 . S
C868 C869 1.372 . S
C869 C868 1.372 . S
C869 C870 1.400 . S
C869 C874 1.490 . S
C870 H860 0.930 . S
C870 C869 1.400 . S
C870 C873 1.386 . S
H871 C887 0.930 . S
H872 C888 0.931 . S
C873 H861 0.929 . S
C873 C867 1.390 . S
C873 C870 1.386 . S
C874 C869 1.490 . S
C874 C876 1.395 . S
C874 C877 1.403 . S
H875 C881 0.930 . S
C876 H862 0.930 . S
C876 C874 1.395 . S
C876 C879 1.403 . S
C877 C874 1.403 . S
C877 C878 1.524 . S
C877 C881 1.400 . S
C878 H863 0.960 . S
C878 H864 0.960 . S
C878 H865 0.960 . S
C878 C877 1.524 . S
C879 C876 1.403 . S
C879 C880 1.392 . S
C879 C883 1.495 . S
C880 C879 1.392 . S
C880 C881 1.385 . S
C880 C882 1.478 . S
C881 H875 0.930 . S
C881 C877 1.400 . S
C881 C880 1.385 . S
C882 C880 1.478 . S
C882 C884 1.381 . S
C882 C888 1.383 . S
C883 C879 1.495 . S
C883 H889 0.959 . S
C883 H890 0.961 . S
C883 H891 0.960 . S
C884 C882 1.381 . S
C884 C885 1.394 . S
C884 H892 0.930 . S
C885 C884 1.394 . S
C885 C886 1.383 . S
C885 H893 0.929 . S
C886 C885 1.383 . S
C886 C887 1.377 . S
C887 H871 0.930 . S
C887 C886 1.377 . S
C887 C888 1.379 . S
C888 H872 0.931 . S
C888 C882 1.383 . S
C888 C887 1.379 . S
H889 C883 0.959 . S
H890 C883 0.961 . S
H891 C883 0.960 . S
H892 C884 0.930 . S
H893 C885 0.929 . S
H894 C902 0.929 . S
H895 C904 0.930 . S
H896 C906 0.930 . S
H897 C909 0.929 . S
H898 C912 0.930 . S
H899 C914 0.960 . S
H900 C914 0.960 . S
H901 C914 0.960 . S
C902 H894 0.929 . S
C902 C903 1.377 . S
C902 C904 1.384 . S
C903 C902 1.377 . S
C903 C909 1.390 1_545 S
C904 H895 0.930 . S
C904 C902 1.384 . S
C904 C905 1.372 . S
C905 C904 1.372 . S
C905 C906 1.400 1_545 S
C905 C910 1.490 . S
C906 H896 0.930 . S
C906 C905 1.400 1_565 S
C906 C909 1.386 . S
H907 C923 0.930 . S
H908 C924 0.931 . S
C909 H897 0.929 . S
C909 C903 1.390 1_565 S
C909 C906 1.386 . S
C910 C905 1.490 . S
C910 C912 1.395 . S
C910 C913 1.403 1_545 S
H911 C917 0.930 . S
C912 H898 0.930 . S
C912 C910 1.395 . S
C912 C915 1.403 . S
C913 C910 1.403 1_565 S
C913 C914 1.524 . S
C913 C917 1.400 . S
C914 H899 0.960 . S
C914 H900 0.960 . S
C914 H901 0.960 . S
C914 C913 1.524 . S
C915 C912 1.403 . S
C915 C916 1.392 . S
C915 C919 1.495 . S
C916 C915 1.392 . S
C916 C917 1.385 1_545 S
C916 C918 1.478 . S
C917 H911 0.930 . S
C917 C913 1.400 . S
C917 C916 1.385 1_565 S
C918 C916 1.478 . S
C918 C920 1.381 . S
C918 C924 1.383 1_545 S
C919 C915 1.495 . S
C919 H925 0.959 . S
C919 H926 0.961 . S
C919 H927 0.960 . S
C920 C918 1.381 . S
C920 C921 1.394 . S
C920 H928 0.930 . S
C921 C920 1.394 . S
C921 C922 1.403 . S
C921 H929 0.929 . S
C922 C921 1.403 . S
C922 C923 1.365 1_545 S
C923 H907 0.930 . S
C923 C922 1.365 1_565 S
C923 C924 1.379 . S
C924 H908 0.931 . S
C924 C918 1.383 1_565 S
C924 C923 1.379 . S
H925 C919 0.959 . S
H926 C919 0.961 . S
H927 C919 0.960 . S
H928 C920 0.930 . S
H929 C921 0.929 . S
H930 C938 0.929 . S
H931 C940 0.930 . S
H932 C942 0.930 . S
H933 C945 0.929 . S
H934 C948 0.930 . S
H935 C950 0.960 . S
H936 C950 0.960 . S
H937 C950 0.960 . S
C938 H930 0.929 . S
C938 C939 1.377 . S
C938 C940 1.384 . S
C939 C938 1.377 . S
C939 C945 1.390 . S
C940 H931 0.930 . S
C940 C938 1.384 . S
C940 C941 1.372 . S
C941 C940 1.372 . S
C941 C942 1.400 . S
C941 C946 1.490 . S
C942 H932 0.930 . S
C942 C941 1.400 . S
C942 C945 1.386 . S
H943 C959 0.930 . S
H944 C960 0.931 . S
C945 H933 0.929 . S
C945 C939 1.390 . S
C945 C942 1.386 . S
C946 C941 1.490 . S
C946 C948 1.395 . S
C946 C949 1.403 . S
H947 C953 0.930 . S
C948 H934 0.930 . S
C948 C946 1.395 . S
C948 C951 1.403 . S
C949 C946 1.403 . S
C949 C950 1.524 . S
C949 C953 1.400 . S
C950 H935 0.960 . S
C950 H936 0.960 . S
C950 H937 0.960 . S
C950 C949 1.524 . S
C951 C948 1.403 . S
C951 C952 1.392 . S
C951 C955 1.495 . S
C952 C951 1.392 . S
C952 C953 1.385 . S
C952 C954 1.478 . S
C953 H947 0.930 . S
C953 C949 1.400 . S
C953 C952 1.385 . S
C954 C952 1.478 . S
C954 C956 1.381 . S
C954 C960 1.383 . S
C955 C951 1.495 . S
C955 H961 0.959 . S
C955 H962 0.961 . S
C955 H963 0.960 . S
C956 C954 1.381 . S
C956 C957 1.394 1_556 S
C956 H964 0.930 . S
C957 C956 1.394 1_554 S
C957 C958 1.383 . S
C957 H965 0.929 . S
C958 C957 1.383 . S
C958 C959 1.377 . S
C959 H943 0.930 . S
C959 C958 1.377 . S
C959 C960 1.379 1_554 S
C960 H944 0.931 . S
C960 C954 1.383 . S
C960 C959 1.379 1_556 S
H961 C955 0.959 . S
H962 C955 0.961 . S
H963 C955 0.960 . S
H964 C956 0.930 . S
H965 C957 0.929 . S
H966 C974 0.929 . S
H967 C976 0.930 . S
H968 C978 0.930 . S
H969 C981 0.929 . S
H970 C984 0.930 . S
H971 C986 0.960 . S
H972 C986 0.960 . S
H973 C986 0.960 . S
C974 H966 0.929 . S
C974 C975 1.377 . S
C974 C976 1.384 . S
C975 C974 1.377 . S
C975 C981 1.390 . S
C976 H967 0.930 . S
C976 C974 1.384 . S
C976 C977 1.372 . S
C977 C976 1.372 . S
C977 C978 1.400 . S
C977 C982 1.490 . S
C978 H968 0.930 . S
C978 C977 1.400 . S
C978 C981 1.386 . S
H979 C995 0.930 . S
H980 C996 0.931 . S
C981 H969 0.929 . S
C981 C975 1.390 . S
C981 C978 1.386 . S
C982 C977 1.490 . S
C982 C984 1.395 1_455 S
C982 C985 1.403 . S
H983 C989 0.930 . S
C984 H970 0.930 . S
C984 C982 1.395 1_655 S
C984 C987 1.403 . S
C985 C982 1.403 . S
C985 C986 1.524 . S
C985 C989 1.400 . S
C986 H971 0.960 . S
C986 H972 0.960 . S
C986 H973 0.960 . S
C986 C985 1.524 . S
C987 C984 1.403 . S
C987 C988 1.392 1_655 S
C987 C991 1.495 . S
C988 C987 1.392 1_455 S
C988 C989 1.385 . S
C988 C990 1.475 1_455 S
C989 H983 0.930 . S
C989 C985 1.400 . S
C989 C988 1.385 . S
C990 C988 1.475 1_655 S
C990 C992 1.394 1_655 S
C990 C996 1.371 . S
C991 C987 1.495 . S
C991 H997 0.959 . S
C991 H998 0.961 . S
C991 H999 0.960 . S
C992 C990 1.394 1_455 S
C992 C993 1.394 . S
C992 H1000 0.930 . S
C993 C992 1.394 . S
C993 C994 1.383 1_455 S
C993 H1001 0.929 . S
C994 C993 1.383 1_655 S
C994 C995 1.377 . S
C995 H979 0.930 . S
C995 C994 1.377 . S
C995 C996 1.379 . S
C996 H980 0.931 . S
C996 C990 1.371 . S
C996 C995 1.379 . S
H997 C991 0.959 . S
H998 C991 0.961 . S
H999 C991 0.960 . S
H1000 C992 0.930 . S
H1001 C993 0.929 . S
C363 C6 0.464 . S
C382 C331 0.473 . S
C399 C59 1.868 . S
C418 C258 1.832 . S
C435 C86 1.153 . S
C454 C297 1.167 . S
C471 C15 0.336 . S
C490 C336 0.198 . S
C526 C253 1.941 . S
C507 C50 1.954 . S
C562 C292 1.259 . S
C543 C95 1.250 . S
C579 C46 1.158 . S
C598 C180 1.163 . S
C615 C99 3.067 . S
C634 C214 3.022 . S
C651 C10 1.978 . S
C670 C136 1.962 . S
C706 C175 1.236 . S
C687 C55 1.229 . S
C742 C219 2.888 . S
C723 C90 2.916 . S
C759 C19 1.863 . S
C778 C141 1.842 . S
C814 C199 1.755 . S
C795 C18 1.686 . S
C831 C49 1.342 . S
C850 C121 1.381 . S
C867 C98 1.456 . S
C886 C160 1.505 . S
C922 C277 1.479 1_545 S
C903 C58 1.447 . S
C958 C316 1.119 . S
C939 C89 1.088 . S
C975 C9 1.332 . S
C994 C238 1.372 . S
