# Generated by pormake.
# Topology nom, (4,4)-cn, num edge types: 1
# Building blocks:
#     Node 0, Type 0, BuildingBlock: MIFKUJ_clean_linker_1, # of connection points: 4
#     Node 1, Type 0, BuildingBlock: MIFKUJ_clean_linker_1, # of connection points: 4
#     Node 2, Type 0, BuildingBlock: MIFKUJ_clean_linker_1, # of connection points: 4
#     Node 3, Type 0, BuildingBlock: MIFKUJ_clean_linker_1, # of connection points: 4
#     Node 4, Type 0, BuildingBlock: MIFKUJ_clean_linker_1, # of connection points: 4
#     Node 5, Type 0, BuildingBlock: MIFKUJ_clean_linker_1, # of connection points: 4
#     Node 6, Type 1, BuildingBlock: TATPOV_clean_sbu_0, # of connection points: 4
#     Node 7, Type 1, BuildingBlock: TATPOV_clean_sbu_0, # of connection points: 4
#     Node 8, Type 1, BuildingBlock: TATPOV_clean_sbu_0, # of connection points: 4
#     Node 9, Type 1, BuildingBlock: TATPOV_clean_sbu_0, # of connection points: 4
#     Node 10, Type 1, BuildingBlock: TATPOV_clean_sbu_0, # of connection points: 4
#     Node 11, Type 1, BuildingBlock: TATPOV_clean_sbu_0, # of connection points: 4
#     Edge 12, Type (0, 1), BuildingBlock: MIFKUJ_clean_linker_0, # of connection points: 2
#     Edge 13, Type (0, 1), BuildingBlock: MIFKUJ_clean_linker_0, # of connection points: 2
#     Edge 14, Type (0, 1), BuildingBlock: MIFKUJ_clean_linker_0, # of connection points: 2
#     Edge 15, Type (0, 1), BuildingBlock: MIFKUJ_clean_linker_0, # of connection points: 2
#     Edge 16, Type (0, 1), BuildingBlock: MIFKUJ_clean_linker_0, # of connection points: 2
#     Edge 17, Type (0, 1), BuildingBlock: MIFKUJ_clean_linker_0, # of connection points: 2
#     Edge 18, Type (0, 1), BuildingBlock: MIFKUJ_clean_linker_0, # of connection points: 2
#     Edge 19, Type (0, 1), BuildingBlock: MIFKUJ_clean_linker_0, # of connection points: 2
#     Edge 20, Type (0, 1), BuildingBlock: MIFKUJ_clean_linker_0, # of connection points: 2
#     Edge 21, Type (0, 1), BuildingBlock: MIFKUJ_clean_linker_0, # of connection points: 2
#     Edge 22, Type (0, 1), BuildingBlock: MIFKUJ_clean_linker_0, # of connection points: 2
#     Edge 23, Type (0, 1), BuildingBlock: MIFKUJ_clean_linker_0, # of connection points: 2
#     Edge 24, Type (0, 1), BuildingBlock: MIFKUJ_clean_linker_0, # of connection points: 2
#     Edge 25, Type (0, 1), BuildingBlock: MIFKUJ_clean_linker_0, # of connection points: 2
#     Edge 26, Type (0, 1), BuildingBlock: MIFKUJ_clean_linker_0, # of connection points: 2
#     Edge 27, Type (0, 1), BuildingBlock: MIFKUJ_clean_linker_0, # of connection points: 2
#     Edge 28, Type (0, 1), BuildingBlock: MIFKUJ_clean_linker_0, # of connection points: 2
#     Edge 29, Type (0, 1), BuildingBlock: MIFKUJ_clean_linker_0, # of connection points: 2
#     Edge 30, Type (0, 1), BuildingBlock: MIFKUJ_clean_linker_0, # of connection points: 2
#     Edge 31, Type (0, 1), BuildingBlock: MIFKUJ_clean_linker_0, # of connection points: 2
#     Edge 32, Type (0, 1), BuildingBlock: MIFKUJ_clean_linker_0, # of connection points: 2
#     Edge 33, Type (0, 1), BuildingBlock: MIFKUJ_clean_linker_0, # of connection points: 2
#     Edge 34, Type (0, 1), BuildingBlock: MIFKUJ_clean_linker_0, # of connection points: 2
#     Edge 35, Type (0, 1), BuildingBlock: MIFKUJ_clean_linker_0, # of connection points: 2
# Relax obj value: 0.019
# Max RMSD: 0.115
# Mean RMSD: 0.104
data_MOF--net-nom--node1-TATPOV_clean_sbu_0--node2-MIFKUJ_clean_linker_1--edge1-MIFKUJ_clean_linker_0
_symmetry_space_group_name_H-M    P1
_symmetry_Int_Tables_number       1
_symmetry_cell_setting            triclinic
loop_
_symmetry_equiv_pos_as_xyz
'x, y, z'
_cell_length_a     65.868309
_cell_length_b     66.77088
_cell_length_c     69.952294
_cell_angle_alpha  90.591536
_cell_angle_beta   90.577854
_cell_angle_gamma 120.00584
loop_
_atom_site_label
_atom_site_type_symbol
_atom_site_fract_x
_atom_site_fract_y
_atom_site_fract_z
_atom_type_partial_charge
H0 H 0.96657 0.43159 0.29658 0.0
H1 H 0.93479 0.41682 0.27265 0.0
H2 H 0.94482 0.48571 0.2672 0.0
H3 H 0.97546 0.49978 0.29197 0.0
H4 H 0.01892 0.48695 0.29006 0.0
H5 H 0.94809 0.43233 0.32857 0.0
H6 H 0.90802 0.42095 0.33774 0.0
H7 H 0.93195 0.49093 0.3576 0.0
H8 H 0.9715 0.50235 0.3474 0.0
H9 H 0.03233 0.52749 0.36615 0.0
H10 H 0.06261 0.54597 0.39093 0.0
H11 H 0.09845 0.51186 0.3681 0.0
H12 H 0.06738 0.49249 0.34382 0.0
H13 H 0.00127 0.4861 0.35891 0.0
H14 H 0.0618 0.54393 0.32459 0.0
H15 H 0.10031 0.56933 0.31136 0.0
H16 H 0.09757 0.51097 0.28161 0.0
H17 H 0.05908 0.48539 0.29538 0.0
C18 C 0.97308 0.46666 0.29609 0.0
C19 C 0.96171 0.44337 0.29026 0.0
C20 C 0.94368 0.43504 0.27646 0.0
C21 C 0.93706 0.45001 0.26794 0.0
C22 C 0.94894 0.47349 0.27369 0.0
C23 C 0.96666 0.48168 0.28771 0.0
C24 C 0.99178 0.47551 0.31095 0.0
C25 C 0.01518 0.48621 0.30519 0.0
C26 C 0.98675 0.47591 0.33047 0.0
C27 C 0.96265 0.46828 0.33694 0.0
C28 C 0.94457 0.44525 0.33463 0.0
C29 C 0.92175 0.43871 0.34013 0.0
C30 C 0.91669 0.45508 0.34825 0.0
C31 C 0.93506 0.47799 0.35101 0.0
C32 C 0.95776 0.48451 0.34537 0.0
C33 C 0.04755 0.50861 0.35306 0.0
C34 C 0.0466 0.52383 0.36654 0.0
C35 C 0.06412 0.53463 0.38059 0.0
C36 C 0.08309 0.53054 0.38146 0.0
C37 C 0.084 0.51525 0.36795 0.0
C38 C 0.06637 0.50434 0.35394 0.0
C39 C 0.02873 0.49716 0.3382 0.0
C40 C 0.00525 0.48615 0.3439 0.0
C41 C 0.03374 0.49772 0.3185 0.0
C42 C 0.05769 0.5127 0.31118 0.0
C43 C 0.06964 0.5365 0.31549 0.0
C44 C 0.09154 0.55105 0.30774 0.0
C45 C 0.10192 0.54217 0.29535 0.0
C46 C 0.0901 0.51827 0.29124 0.0
C47 C 0.06809 0.50368 0.299 0.0
H48 H 0.47313 0.97369 0.51424 0.0
H49 H 0.45055 0.93499 0.52698 0.0
H50 H 0.50165 0.91815 0.50536 0.0
H51 H 0.52359 0.95686 0.4918 0.0
H52 H 0.52063 0.00748 0.52219 0.0
H53 H 0.46998 0.96071 0.47009 0.0
H54 H 0.45388 0.92886 0.44678 0.0
H55 H 0.52244 0.956 0.4221 0.0
H56 H 0.53866 0.98724 0.44615 0.0
H57 H 0.56797 0.06173 0.45437 0.0
H58 H 0.5801 0.1005 0.44246 0.0
H59 H 0.52754 0.10315 0.47714 0.0
H60 H 0.51552 0.0646 0.48886 0.0
H61 H 0.52696 0.02126 0.45237 0.0
H62 H 0.57667 0.07118 0.50267 0.0
H63 H 0.59173 0.10303 0.52618 0.0
H64 H 0.52474 0.06987 0.55411 0.0
H65 H 0.5096 0.0386 0.53026 0.0
C66 C 0.49999 0.9681 0.50211 0.0
C67 C 0.47949 0.96166 0.51231 0.0
C68 C 0.46669 0.93952 0.51971 0.0
C69 C 0.47434 0.92338 0.51743 0.0
C70 C 0.49505 0.92998 0.50724 0.0
C71 C 0.50771 0.95213 0.49958 0.0
C72 C 0.51298 0.99162 0.49416 0.0
C73 C 0.52203 0.01055 0.50692 0.0
C74 C 0.51542 0.99551 0.47426 0.0
C75 C 0.50561 0.97615 0.46007 0.0
C76 C 0.48164 0.95958 0.45988 0.0
C77 C 0.47239 0.94152 0.44637 0.0
C78 C 0.48686 0.93985 0.43253 0.0
C79 C 0.51087 0.95654 0.43272 0.0
C80 C 0.52013 0.97454 0.44634 0.0
C81 C 0.54115 0.06044 0.47278 0.0
C82 C 0.55906 0.07067 0.45934 0.0
C83 C 0.56591 0.09278 0.45253 0.0
C84 C 0.55494 0.10498 0.45902 0.0
C85 C 0.53669 0.09443 0.47217 0.0
C86 C 0.5298 0.07238 0.47887 0.0
C87 C 0.53396 0.0372 0.48044 0.0
C88 C 0.52609 0.01831 0.46764 0.0
C89 C 0.53264 0.03329 0.50035 0.0
C90 C 0.54195 0.05258 0.51463 0.0
C91 C 0.56519 0.07091 0.51377 0.0
C92 C 0.57383 0.08899 0.5273 0.0
C93 C 0.5594 0.08903 0.54196 0.0
C94 C 0.5362 0.07057 0.54282 0.0
C95 C 0.52758 0.05254 0.52931 0.0
H96 H 0.52123 0.55653 0.6954 0.0
H97 H 0.50674 0.57177 0.72046 0.0
H98 H 0.43555 0.52477 0.70142 0.0
H99 H 0.45013 0.50918 0.67677 0.0
H100 H 0.51188 0.51149 0.69133 0.0
H101 H 0.49961 0.56568 0.6526 0.0
H102 H 0.47506 0.5812 0.641 0.0
H103 H 0.42431 0.51349 0.61879 0.0
H104 H 0.44883 0.49807 0.6305 0.0
H105 H 0.48802 0.46877 0.61509 0.0
H106 H 0.50412 0.45391 0.59104 0.0
H107 H 0.57337 0.49641 0.61592 0.0
H108 H 0.55731 0.51171 0.63949 0.0
H109 H 0.49497 0.51056 0.62193 0.0
H110 H 0.50237 0.45531 0.65689 0.0
H111 H 0.51931 0.43319 0.67011 0.0
H112 H 0.57097 0.49399 0.70131 0.0
H113 H 0.55392 0.5162 0.68787 0.0
C114 C 0.48678 0.53186 0.68414 0.0
C115 C 0.50251 0.54961 0.69659 0.0
C116 C 0.49421 0.55841 0.7108 0.0
C117 C 0.47 0.54948 0.71291 0.0
C118 C 0.45429 0.53186 0.70027 0.0
C119 C 0.46261 0.52309 0.68606 0.0
C120 C 0.49563 0.52182 0.66972 0.0
C121 C 0.50865 0.51171 0.67611 0.0
C122 C 0.49024 0.52097 0.65 0.0
C123 C 0.47595 0.53071 0.64248 0.0
C124 C 0.4832 0.55422 0.64522 0.0
C125 C 0.46924 0.56307 0.63851 0.0
C126 C 0.44775 0.54852 0.62906 0.0
C127 C 0.44066 0.52504 0.6262 0.0
C128 C 0.45472 0.51626 0.63275 0.0
C129 C 0.52143 0.49128 0.62914 0.0
C130 C 0.50667 0.4749 0.61532 0.0
C131 C 0.51586 0.46625 0.60172 0.0
C132 C 0.54002 0.47395 0.6016 0.0
C133 C 0.55472 0.49028 0.61552 0.0
C134 C 0.54553 0.4989 0.6291 0.0
C135 C 0.51177 0.50068 0.64348 0.0
C136 C 0.49853 0.51057 0.63711 0.0
C137 C 0.51629 0.50065 0.66331 0.0
C138 C 0.5271 0.48752 0.67115 0.0
C139 C 0.51757 0.46401 0.66633 0.0
C140 C 0.52728 0.45138 0.67391 0.0
C141 C 0.5466 0.4619 0.68664 0.0
C142 C 0.55602 0.4854 0.69161 0.0
C143 C 0.54634 0.49809 0.68392 0.0
H144 H 0.02573 0.53498 0.78027 0.0
H145 H 0.05588 0.55286 0.75614 0.0
H146 H 0.08403 0.50919 0.77275 0.0
H147 H 0.05434 0.49218 0.79743 0.0
H148 H 0.99176 0.48605 0.78442 0.0
H149 H 0.05619 0.55065 0.82031 0.0
H150 H 0.09644 0.57328 0.8328 0.0
H151 H 0.09029 0.51143 0.85759 0.0
H152 H 0.04997 0.48924 0.84557 0.0
H153 H 0.98283 0.4571 0.8644 0.0
H154 H 0.95451 0.4442 0.89028 0.0
H155 H 0.91616 0.4719 0.86108 0.0
H156 H 0.94507 0.48579 0.83561 0.0
H157 H 0.01244 0.49715 0.85359 0.0
H158 H 0.94771 0.43322 0.82273 0.0
H159 H 0.90692 0.40911 0.8124 0.0
H160 H 0.91358 0.46374 0.7757 0.0
H161 H 0.95393 0.48827 0.78704 0.0
C162 C 0.03787 0.51233 0.7906 0.0
C163 C 0.03843 0.52931 0.77867 0.0
C164 C 0.05563 0.5394 0.7648 0.0
C165 C 0.0724 0.53242 0.76235 0.0
C166 C 0.07168 0.51528 0.77437 0.0
C167 C 0.05463 0.5054 0.7884 0.0
C168 C 0.01972 0.5019 0.80537 0.0
C169 C 0.99613 0.48861 0.79958 0.0
C170 C 0.02562 0.50461 0.82504 0.0
C171 C 0.05019 0.5183 0.83201 0.0
C172 C 0.06363 0.54203 0.82839 0.0
C173 C 0.08664 0.5549 0.83549 0.0
C174 C 0.0966 0.54423 0.84632 0.0
C175 C 0.08306 0.52035 0.84969 0.0
C176 C 0.06005 0.50758 0.84272 0.0
C177 C 0.96605 0.47227 0.84791 0.0
C178 C 0.96838 0.46047 0.86354 0.0
C179 C 0.95219 0.45305 0.87828 0.0
C180 C 0.93317 0.457 0.87756 0.0
C181 C 0.93054 0.4684 0.86181 0.0
C182 C 0.94701 0.47626 0.84724 0.0
C183 C 0.98411 0.48127 0.8328 0.0
C184 C 0.0078 0.49435 0.83849 0.0
C185 C 0.97824 0.4779 0.81301 0.0
C186 C 0.95379 0.46274 0.80594 0.0
C187 C 0.94031 0.44009 0.81261 0.0
C188 C 0.91704 0.42619 0.80648 0.0
C189 C 0.90685 0.43448 0.79326 0.0
C190 C 0.92065 0.45693 0.78617 0.0
C191 C 0.94384 0.47092 0.79248 0.0
H192 H 0.58527 0.0535 0.01532 0.0
H193 H 0.60758 0.09382 0.02642 0.0
H194 H 0.55377 0.10602 0.00315 0.0
H195 H 0.5313 0.06552 0.99247 0.0
H196 H 0.54018 0.01916 0.02472 0.0
H197 H 0.58113 0.05944 0.96611 0.0
H198 H 0.59113 0.08736 0.94045 0.0
H199 H 0.5173 0.06041 0.9286 0.0
H200 H 0.50759 0.0322 0.9538 0.0
H201 H 0.47916 0.96107 0.96193 0.0
H202 H 0.46193 0.92118 0.95002 0.0
H203 H 0.51703 0.91529 0.9789 0.0
H204 H 0.5337 0.95485 0.99109 0.0
H205 H 0.52114 0.99819 0.956 0.0
H206 H 0.47757 0.95893 0.00875 0.0
H207 H 0.46048 0.93048 0.03396 0.0
H208 H 0.52942 0.95543 0.05894 0.0
H209 H 0.54656 0.98369 0.03334 0.0
C210 C 0.55675 0.05658 0.00292 0.0
C211 C 0.57827 0.06487 0.01267 0.0
C212 C 0.59107 0.08794 0.01886 0.0
C213 C 0.58249 0.10314 0.01557 0.0
C214 C 0.56077 0.09471 0.00601 0.0
C215 C 0.54801 0.07163 -0.00024 0.0
C216 C 0.54349 0.03215 0.99618 0.0
C217 C 0.53636 0.01455 0.00967 0.0
C218 C 0.53734 0.02614 0.97669 0.0
C219 C 0.54363 0.04377 0.96179 0.0
C220 C 0.56716 0.05968 0.958 0.0
C221 C 0.57282 0.07569 0.94339 0.0
C222 C 0.55502 0.07606 0.93235 0.0
C223 C 0.53147 0.06031 0.93651 0.0
C224 C 0.52586 0.04425 0.95098 0.0
C225 C 0.50758 0.96085 0.97753 0.0
C226 C 0.48744 0.95111 0.96572 0.0
C227 C 0.47769 0.92834 0.95885 0.0
C228 C 0.48806 0.91496 0.96351 0.0
C229 C 0.50829 0.92487 0.97532 0.0
C230 C 0.51791 0.94755 0.98226 0.0
C231 C 0.51839 0.98517 0.98447 0.0
C232 C 0.52504 0.00274 0.97106 0.0
C233 C 0.52336 0.99113 0.0041 0.0
C234 C 0.51337 0.97332 0.01907 0.0
C235 C 0.48907 0.95808 0.01948 0.0
C236 C 0.47929 0.94197 0.034 0.0
C237 C 0.49361 0.94079 0.04846 0.0
C238 C 0.51799 0.95581 0.04788 0.0
C239 C 0.52778 0.97205 0.03337 0.0
H240 H 0.4832 0.46848 0.19964 0.0
H241 H 0.48952 0.44524 0.22322 0.0
H242 H 0.56374 0.48275 0.2119 0.0
H243 H 0.55732 0.50599 0.18843 0.0
H244 H 0.50079 0.51522 0.19995 0.0
H245 H 0.50655 0.45889 0.15613 0.0
H246 H 0.52673 0.43989 0.14224 0.0
H247 H 0.58705 0.50696 0.13167 0.0
H248 H 0.56643 0.5256 0.14484 0.0
H249 H 0.53402 0.5632 0.12697 0.0
H250 H 0.5208 0.57932 0.10159 0.0
H251 H 0.44993 0.54035 0.122 0.0
H252 H 0.46306 0.5239 0.14692 0.0
H253 H 0.5226 0.5197 0.1318 0.0
H254 H 0.52168 0.57682 0.17013 0.0
H255 H 0.50716 0.6017 0.18203 0.0
H256 H 0.44677 0.54209 0.20506 0.0
H257 H 0.46168 0.51726 0.1933 0.0
C258 C 0.51975 0.48884 0.19216 0.0
C259 C 0.50082 0.47162 0.2022 0.0
C260 C 0.50445 0.45837 0.21565 0.0
C261 C 0.52711 0.4621 0.21935 0.0
C262 C 0.54601 0.47917 0.20911 0.0
C263 C 0.54238 0.4925 0.19572 0.0
C264 C 0.51578 0.50337 0.17844 0.0
C265 C 0.50525 0.51593 0.18499 0.0
C266 C 0.52282 0.50541 0.15918 0.0
C267 C 0.53503 0.49362 0.15147 0.0
C268 C 0.52414 0.46941 0.15081 0.0
C269 C 0.53575 0.4586 0.14294 0.0
C270 C 0.55849 0.47186 0.13567 0.0
C271 C 0.56937 0.49615 0.13667 0.0
C272 C 0.55769 0.50687 0.14433 0.0
C273 C 0.49955 0.54241 0.13887 0.0
C274 C 0.51568 0.5583 0.12604 0.0
C275 C 0.50815 0.56762 0.11166 0.0
C276 C 0.48432 0.561 0.10978 0.0
C277 C 0.46835 0.54558 0.12298 0.0
C278 C 0.47588 0.53634 0.13734 0.0
C279 C 0.50694 0.53094 0.15316 0.0
C280 C 0.51813 0.51901 0.14676 0.0
C281 C 0.5013 0.53016 0.17269 0.0
C282 C 0.49262 0.54515 0.18063 0.0
C283 C 0.50527 0.56909 0.1777 0.0
C284 C 0.49689 0.58329 0.18446 0.0
C285 C 0.47566 0.57387 0.19433 0.0
C286 C 0.46326 0.54992 0.19764 0.0
C287 C 0.47172 0.5357 0.1909 0.0
Zn288 Zn 0.65591 0.4299 0.40485 0.0
Zn289 Zn 0.63672 0.38447 0.40965 0.0
O290 O 0.67134 0.39529 0.40386 0.0
O291 O 0.68664 0.43231 0.3979 0.0
O292 O 0.62351 0.35057 0.41478 0.0
O293 O 0.6494 0.43446 0.43203 0.0
O294 O 0.63018 0.39663 0.4349 0.0
C295 C 0.68877 0.41454 0.39903 0.0
C296 C 0.61727 0.40242 0.3788 0.0
O297 O 0.61767 0.38536 0.38641 0.0
O298 O 0.63113 0.42292 0.3846 0.0
C299 C 0.62292 0.33654 0.40206 0.0
O300 O 0.63053 0.34419 0.38487 0.0
C301 C 0.63679 0.41676 0.44182 0.0
Zn302 Zn 0.24237 0.67645 0.57654 0.0
Zn303 Zn 0.26411 0.65123 0.57796 0.0
O304 O 0.2907 0.68501 0.57604 0.0
O305 O 0.27373 0.7062 0.57758 0.0
O306 O 0.2817 0.63383 0.58039 0.0
O307 O 0.22525 0.66128 0.60074 0.0
O308 O 0.24452 0.64228 0.60243 0.0
C309 C 0.29213 0.70475 0.57639 0.0
C310 C 0.23148 0.64458 0.54424 0.0
O311 O 0.24437 0.6385 0.5533 0.0
O312 O 0.2285 0.66066 0.55088 0.0
C313 C 0.30036 0.63982 0.57116 0.0
O314 O 0.30765 0.65698 0.55916 0.0
C315 C 0.22965 0.64721 0.60927 0.0
Zn316 Zn 0.56798 0.23189 0.73872 0.0
Zn317 Zn 0.61548 0.25725 0.74271 0.0
O318 O 0.60476 0.28134 0.74265 0.0
O319 O 0.56627 0.2613 0.74024 0.0
O320 O 0.65064 0.2763 0.7463 0.0
O321 O 0.56717 0.21457 0.76263 0.0
O322 O 0.60551 0.23619 0.76598 0.0
C323 C 0.58509 0.28061 0.74163 0.0
C324 C 0.59298 0.22679 0.70694 0.0
O325 O 0.6111 0.24033 0.71695 0.0
O326 O 0.5727 0.22093 0.71295 0.0
C327 C 0.66242 0.29725 0.74119 0.0
O328 O 0.6516 0.30689 0.7328 0.0
C329 C 0.58595 0.22003 0.77184 0.0
Zn330 Zn 0.35007 0.5844 0.9132 0.0
Zn331 Zn 0.37695 0.63064 0.91227 0.0
O332 O 0.34314 0.62457 0.90996 0.0
O333 O 0.32082 0.58693 0.91302 0.0
O334 O 0.39578 0.66535 0.91403 0.0
O335 O 0.365 0.58356 0.93817 0.0
O336 O 0.38681 0.62144 0.93729 0.0
C337 C 0.32289 0.60665 0.91083 0.0
C338 C 0.38078 0.60166 0.8803 0.0
O339 O 0.38775 0.6215 0.88796 0.0
O340 O 0.365 0.58361 0.88817 0.0
C341 C 0.39315 0.67841 0.9024 0.0
O342 O 0.37839 0.66908 0.88788 0.0
C343 C 0.38077 0.60241 0.9456 0.0
Zn344 Zn 0.77897 0.43619 0.07526 0.0
Zn345 Zn 0.75545 0.38964 0.07192 0.0
O346 O 0.72964 0.39832 0.07434 0.0
O347 O 0.74835 0.43637 0.07381 0.0
O348 O 0.73731 0.3549 0.06814 0.0
O349 O 0.79679 0.43813 0.0513 0.0
O350 O 0.77513 0.40034 0.04753 0.0
C351 C 0.72933 0.41725 0.07444 0.0
C352 C 0.7876 0.41326 0.10664 0.0
O353 O 0.77484 0.39501 0.09665 0.0
O354 O 0.79122 0.43274 0.10099 0.0
C355 C 0.71726 0.3422 0.07533 0.0
O356 O 0.70817 0.35175 0.08622 0.0
C357 C 0.79113 0.41986 0.04166 0.0
Zn358 Zn 0.348 0.7796 0.23862 0.0
Zn359 Zn 0.37348 0.75824 0.23728 0.0
O360 O 0.33918 0.73173 0.23803 0.0
O361 O 0.31797 0.74876 0.23802 0.0
O362 O 0.39097 0.74083 0.23477 0.0
O363 O 0.36274 0.796 0.21411 0.0
O364 O 0.3835 0.77848 0.21335 0.0
C365 C 0.31923 0.73045 0.23818 0.0
C366 C 0.37977 0.79 0.27121 0.0
O367 O 0.38562 0.77685 0.26248 0.0
O368 O 0.36413 0.79361 0.2641 0.0
C369 C 0.38797 0.72519 0.2465 0.0
O370 O 0.37396 0.72112 0.26099 0.0
C371 C 0.37789 0.79251 0.2061 0.0
H372 H 0.11529 0.58407 0.27964 0.0
H373 H 0.15309 0.61109 0.2661 0.0
H374 H 0.17771 0.5632 0.27668 0.0
H375 H 0.13988 0.53616 0.29077 0.0
H376 H 0.2095 0.60666 0.28843 0.0
H377 H 0.16573 0.57163 0.23138 0.0
H378 H 0.13217 0.55695 0.20878 0.0
H379 H 0.14265 0.62547 0.20335 0.0
H380 H 0.17607 0.64054 0.22614 0.0
H381 H 0.31512 0.68781 0.24291 0.0
H382 H 0.27916 0.65108 0.24845 0.0
H383 H 0.23847 0.68516 0.24289 0.0
H384 H 0.27409 0.72171 0.23711 0.0
H385 H 0.21658 0.64304 0.22551 0.0
H386 H 0.25533 0.67598 0.28673 0.0
H387 H 0.28849 0.69089 0.30979 0.0
H388 H 0.28704 0.6259 0.30726 0.0
H389 H 0.25402 0.61071 0.28398 0.0
C390 C 0.12875 0.57928 0.27915 0.0
C391 C 0.12465 0.55803 0.28637 0.0
C392 C 0.15027 0.59464 0.2712 0.0
C393 C 0.16813 0.58904 0.27015 0.0
C394 C 0.1641 0.56779 0.27724 0.0
C395 C 0.14248 0.55233 0.28519 0.0
C396 C 0.19129 0.60606 0.26248 0.0
C397 C 0.21116 0.61422 0.27448 0.0
C398 C 0.1934 0.61614 0.24437 0.0
C399 C 0.17335 0.60719 0.23057 0.0
C400 C 0.16079 0.58356 0.22547 0.0
C401 C 0.1418 0.57517 0.21261 0.0
C402 C 0.13527 0.59026 0.20465 0.0
C403 C 0.14774 0.6138 0.20952 0.0
C404 C 0.16673 0.62228 0.22239 0.0
C405 C 0.29848 0.68741 0.24262 0.0
C406 C 0.2975 0.70775 0.23973 0.0
C407 C 0.27797 0.66643 0.24586 0.0
C408 C 0.25618 0.66546 0.24631 0.0
C409 C 0.25509 0.68551 0.24261 0.0
C410 C 0.27552 0.70644 0.23939 0.0
C411 C 0.23455 0.64404 0.25169 0.0
C412 C 0.21498 0.63508 0.23927 0.0
C413 C 0.2327 0.63324 0.2694 0.0
C414 C 0.25242 0.64232 0.28346 0.0
C415 C 0.2622 0.66494 0.29099 0.0
C416 C 0.28094 0.67343 0.30411 0.0
C417 C 0.28991 0.65938 0.30994 0.0
C418 C 0.2801 0.63678 0.3027 0.0
C419 C 0.26138 0.62822 0.28955 0.0
H420 H 0.30442 0.66598 0.3201 0.0
H421 H 0.12056 0.58373 0.1947 0.0
H422 H 0.56524 0.12119 0.42248 0.0
H423 H 0.57627 0.15996 0.41143 0.0
H424 H 0.57247 0.18095 0.46921 0.0
H425 H 0.56141 0.1423 0.48031 0.0
H426 H 0.55074 0.19481 0.44487 0.0
H427 H 0.62529 0.19763 0.4478 0.0
H428 H 0.65326 0.18442 0.44029 0.0
H429 H 0.6464 0.19399 0.38046 0.0
H430 H 0.61814 0.20697 0.3876 0.0
H431 H 0.61014 0.31636 0.43701 0.0
H432 H 0.59785 0.27648 0.4451 0.0
H433 H 0.60443 0.26134 0.38613 0.0
H434 H 0.61728 0.30145 0.37797 0.0
H435 H 0.62344 0.24356 0.40909 0.0
H436 H 0.55025 0.24238 0.40615 0.0
H437 H 0.52221 0.25553 0.41355 0.0
H438 H 0.52616 0.24266 0.47311 0.0
H439 H 0.55448 0.22972 0.4661 0.0
C440 C 0.56701 0.13415 0.43285 0.0
C441 C 0.56241 0.12867 0.45226 0.0
C442 C 0.57328 0.15629 0.42651 0.0
C443 C 0.57533 0.17342 0.43951 0.0
C444 C 0.57087 0.16799 0.4589 0.0
C445 C 0.56452 0.14588 0.46522 0.0
C446 C 0.58179 0.19694 0.43298 0.0
C447 C 0.56677 0.20557 0.43723 0.0
C448 C 0.60234 0.21073 0.42252 0.0
C449 C 0.61942 0.20304 0.41822 0.0
C450 C 0.62961 0.19675 0.43303 0.0
C451 C 0.64554 0.18933 0.42885 0.0
C452 C 0.65155 0.18831 0.40991 0.0
C453 C 0.6417 0.19476 0.39512 0.0
C454 C 0.62574 0.20216 0.39923 0.0
C455 C 0.60887 0.30455 0.42571 0.0
C456 C 0.61464 0.3121 0.40682 0.0
C457 C 0.60174 0.28169 0.43036 0.0
C458 C 0.59991 0.2658 0.41618 0.0
C459 C 0.60567 0.27328 0.3973 0.0
C460 C 0.61294 0.2962 0.39265 0.0
C461 C 0.59254 0.24155 0.4212 0.0
C462 C 0.60734 0.23276 0.41664 0.0
C463 C 0.57176 0.22759 0.43136 0.0
C464 C 0.55464 0.23527 0.43561 0.0
C465 C 0.54527 0.24251 0.42085 0.0
C466 C 0.52931 0.2499 0.42497 0.0
C467 C 0.52245 0.24998 0.44379 0.0
C468 C 0.5315 0.24261 0.45853 0.0
C469 C 0.54749 0.23522 0.45449 0.0
H470 H 0.51009 0.25571 0.44695 0.0
H471 H 0.66389 0.18256 0.40669 0.0
H472 H 0.40063 0.52966 0.63367 0.0
H473 H 0.3756 0.54465 0.62246 0.0
H474 H 0.43561 0.6029 0.59777 0.0
H475 H 0.4608 0.58817 0.60935 0.0
H476 H 0.41029 0.61717 0.61526 0.0
H477 H 0.39365 0.55651 0.57003 0.0
H478 H 0.38255 0.51702 0.5592 0.0
H479 H 0.31552 0.49045 0.58556 0.0
H480 H 0.32635 0.52975 0.59679 0.0
H481 H 0.3448 0.65384 0.5592 0.0
H482 H 0.36962 0.63757 0.56771 0.0
H483 H 0.31352 0.58503 0.6005 0.0
H484 H 0.28854 0.60123 0.59213 0.0
H485 H 0.33707 0.56808 0.57779 0.0
H486 H 0.35519 0.62965 0.62349 0.0
H487 H 0.36681 0.66961 0.63328 0.0
H488 H 0.43209 0.6949 0.60427 0.0
H489 H 0.4207 0.6551 0.59407 0.0
C490 C 0.40844 0.54559 0.62574 0.0
C491 C 0.43263 0.5577 0.62229 0.0
C492 C 0.39412 0.55412 0.6193 0.0
C493 C 0.40363 0.57471 0.60897 0.0
C494 C 0.42785 0.58695 0.60568 0.0
C495 C 0.44223 0.57855 0.61231 0.0
C496 C 0.38839 0.5837 0.60194 0.0
C497 C 0.39449 0.60651 0.60681 0.0
C498 C 0.36751 0.56972 0.59119 0.0
C499 C 0.3609 0.54606 0.5844 0.0
C500 C 0.37661 0.54223 0.57364 0.0
C501 C 0.37035 0.51988 0.56741 0.0
C502 C 0.34836 0.50123 0.57173 0.0
C503 C 0.33256 0.5049 0.58225 0.0
C504 C 0.33873 0.52722 0.58853 0.0
C505 C 0.33764 0.6387 0.56808 0.0
C506 C 0.31473 0.6289 0.57508 0.0
C507 C 0.35188 0.62948 0.57298 0.0
C508 C 0.34346 0.61025 0.58488 0.0
C509 C 0.32034 0.59991 0.59133 0.0
C510 C 0.30613 0.60923 0.58657 0.0
C511 C 0.35903 0.60142 0.59115 0.0
C512 C 0.35296 0.57868 0.58616 0.0
C513 C 0.38005 0.61551 0.60162 0.0
C514 C 0.38699 0.63943 0.60785 0.0
C515 C 0.37194 0.64376 0.61906 0.0
C516 C 0.3785 0.66637 0.62471 0.0
C517 C 0.40015 0.68479 0.61936 0.0
C518 C 0.41531 0.68062 0.60838 0.0
C519 C 0.40882 0.65804 0.60268 0.0
H520 H 0.40519 0.70228 0.62374 0.0
H521 H 0.34356 0.48394 0.56689 0.0
H522 H 0.87474 0.44837 0.78639 0.0
H523 H 0.83375 0.42455 0.77664 0.0
H524 H 0.84071 0.36366 0.77761 0.0
H525 H 0.8822 0.38758 0.78623 0.0
H526 H 0.81557 0.36145 0.74778 0.0
H527 H 0.81408 0.37715 0.81426 0.0
H528 H 0.82351 0.40113 0.84363 0.0
H529 H 0.78955 0.43614 0.81998 0.0
H530 H 0.78021 0.4126 0.79034 0.0
H531 H 0.69183 0.28135 0.7519 0.0
H532 H 0.73374 0.30434 0.75987 0.0
H533 H 0.7323 0.36696 0.74844 0.0
H534 H 0.69049 0.34415 0.74023 0.0
H535 H 0.75419 0.36718 0.78395 0.0
H536 H 0.75609 0.34995 0.717 0.0
H537 H 0.7462 0.32418 0.68872 0.0
H538 H 0.77873 0.28937 0.71529 0.0
H539 H 0.78853 0.31474 0.74386 0.0
C540 C 0.86772 0.42997 0.78425 0.0
C541 C 0.88185 0.41993 0.78716 0.0
C542 C 0.84414 0.41631 0.77892 0.0
C543 C 0.834 0.39224 0.77674 0.0
C544 C 0.8481 0.38218 0.77933 0.0
C545 C 0.87178 0.39587 0.78446 0.0
C546 C 0.8087 0.37761 0.77176 0.0
C547 C 0.80215 0.36248 0.75587 0.0
C548 C 0.79115 0.37912 0.78216 0.0
C549 C 0.79664 0.39325 0.80001 0.0
C550 C 0.80877 0.39008 0.81526 0.0
C551 C 0.81408 0.40358 0.83197 0.0
C552 C 0.80718 0.42018 0.83365 0.0
C553 C 0.79491 0.42329 0.81865 0.0
C554 C 0.78958 0.40986 0.8019 0.0
C555 C 0.70046 0.30001 0.751 0.0
C556 C 0.68787 0.31095 0.74543 0.0
C557 C 0.72438 0.31309 0.75551 0.0
C558 C 0.73605 0.33731 0.75468 0.0
C559 C 0.72356 0.34827 0.74915 0.0
C560 C 0.69971 0.33521 0.7444 0.0
C561 C 0.76122 0.35126 0.75996 0.0
C562 C 0.76769 0.36619 0.77593 0.0
C563 C 0.77862 0.34929 0.74983 0.0
C564 C 0.77282 0.33408 0.73265 0.0
C565 C 0.76094 0.33666 0.71688 0.0
C566 C 0.7554 0.32216 0.70079 0.0
C567 C 0.76177 0.3051 0.70023 0.0
C568 C 0.77377 0.30256 0.71576 0.0
C569 C 0.77934 0.31702 0.73189 0.0
H570 H 0.75747 0.29389 0.68776 0.0
H571 H 0.81131 0.43061 0.84659 0.0
H572 H 0.46909 0.89797 0.92782 0.0
H573 H 0.45351 0.85854 0.9153 0.0
H574 H 0.46955 0.83823 0.96913 0.0
H575 H 0.48452 0.87736 0.98197 0.0
H576 H 0.48477 0.82375 0.93755 0.0
H577 H 0.41469 0.82289 0.95865 0.0
H578 H 0.38637 0.83679 0.95975 0.0
H579 H 0.37348 0.82425 0.89931 0.0
H580 H 0.402 0.81057 0.89781 0.0
H581 H 0.42052 0.70219 0.93337 0.0
H582 H 0.43775 0.74324 0.94097 0.0
H583 H 0.41032 0.7531 0.88783 0.0
H584 H 0.39242 0.71173 0.88032 0.0
H585 H 0.40204 0.77436 0.91592 0.0
H586 H 0.46961 0.77285 0.89454 0.0
H587 H 0.49823 0.75938 0.8926 0.0
H588 H 0.51668 0.77712 0.95188 0.0
H589 H 0.48793 0.7904 0.95426 0.0
C590 C 0.46899 0.88506 0.93711 0.0
C591 C 0.47809 0.89089 0.95592 0.0
C592 C 0.4602 0.86256 0.92988 0.0
C593 C 0.46037 0.8455 0.94131 0.0
C594 C 0.4694 0.85122 0.96005 0.0
C595 C 0.47804 0.87363 0.96733 0.0
C596 C 0.45129 0.82166 0.93374 0.0
C597 C 0.46663 0.81284 0.93298 0.0
C598 C 0.42785 0.80779 0.92717 0.0
C599 C 0.41067 0.81596 0.92808 0.0
C600 C 0.40598 0.82329 0.94556 0.0
C601 C 0.38986 0.83109 0.94627 0.0
C602 C 0.37819 0.83147 0.9296 0.0
C603 C 0.38257 0.82399 0.9122 0.0
C604 C 0.39869 0.8162 0.91142 0.0
C605 C 0.41831 0.71308 0.92318 0.0
C606 C 0.40509 0.70366 0.90622 0.0
C607 C 0.42829 0.73662 0.92752 0.0
C608 C 0.4256 0.75136 0.91487 0.0
C609 C 0.41266 0.74208 0.89779 0.0
C610 C 0.40251 0.71844 0.89349 0.0
C611 C 0.43542 0.7762 0.91998 0.0
C612 C 0.42025 0.78527 0.92029 0.0
C613 C 0.4591 0.79039 0.92597 0.0
C614 C 0.47646 0.78245 0.92461 0.0
C615 C 0.47964 0.77372 0.9072 0.0
C616 C 0.49591 0.76615 0.90602 0.0
C617 C 0.50923 0.76735 0.92212 0.0
C618 C 0.50634 0.77618 0.93943 0.0
C619 C 0.49008 0.78376 0.9407 0.0
H620 H 0.52182 0.76148 0.92117 0.0
H621 H 0.36571 0.83751 0.93018 0.0
H622 H 0.58712 0.48585 0.10465 0.0
H623 H 0.61027 0.46968 0.09222 0.0
H624 H 0.58039 0.41535 0.13366 0.0
H625 H 0.55829 0.43246 0.14711 0.0
H626 H 0.62454 0.43126 0.13322 0.0
H627 H 0.56667 0.40525 0.08411 0.0
H628 H 0.54047 0.40728 0.05977 0.0
H629 H 0.60008 0.45625 0.02831 0.0
H630 H 0.62667 0.45478 0.05259 0.0
H631 H 0.68838 0.38303 0.08907 0.0
H632 H 0.65337 0.38531 0.09685 0.0
H633 H 0.68482 0.45341 0.07285 0.0
H634 H 0.72 0.45148 0.06535 0.0
H635 H 0.63462 0.42272 0.06395 0.0
H636 H 0.69108 0.45182 0.11743 0.0
H637 H 0.71613 0.44782 0.14177 0.0
H638 H 0.65581 0.38895 0.16468 0.0
H639 H 0.63046 0.39243 0.14027 0.0
C640 C 0.58553 0.47054 0.11125 0.0
C641 C 0.57097 0.46063 0.12705 0.0
C642 C 0.5985 0.46103 0.10387 0.0
C643 C 0.59684 0.44103 0.11177 0.0
C644 C 0.58189 0.43072 0.12724 0.0
C645 C 0.5691 0.44043 0.13482 0.0
C646 C 0.61211 0.43208 0.10474 0.0
C647 C 0.62625 0.42884 0.11808 0.0
C648 C 0.61459 0.42905 0.08497 0.0
C649 C 0.59868 0.43 0.07026 0.0
C650 C 0.57421 0.41658 0.07207 0.0
C651 C 0.55928 0.41761 0.05827 0.0
C652 C 0.5686 0.43191 0.04252 0.0
C653 C 0.59288 0.44518 0.04052 0.0
C654 C 0.6079 0.44422 0.05429 0.0
C655 C 0.68767 0.39831 0.08514 0.0
C656 C 0.707 0.41716 0.07674 0.0
C657 C 0.66769 0.39959 0.08962 0.0
C658 C 0.66663 0.41956 0.08548 0.0
C659 C 0.68533 0.43783 0.0761 0.0
C660 C 0.70544 0.43674 0.07193 0.0
C661 C 0.64711 0.42249 0.09241 0.0
C662 C 0.63234 0.42464 0.07907 0.0
C663 C 0.64373 0.42415 0.11216 0.0
C664 C 0.65894 0.4222 0.1269 0.0
C665 C 0.6832 0.4379 0.12756 0.0
C666 C 0.69744 0.43575 0.14138 0.0
C667 C 0.68758 0.41809 0.15472 0.0
C668 C 0.66344 0.40259 0.15431 0.0
C669 C 0.64913 0.40464 0.14049 0.0
H670 H 0.69863 0.41646 0.16542 0.0
H671 H 0.55701 0.43269 0.03185 0.0
H672 H 0.45015 0.91106 0.55097 0.0
H673 H 0.42406 0.8724 0.56237 0.0
H674 H 0.44208 0.84326 0.51457 0.0
H675 H 0.4668 0.88199 0.50213 0.0
H676 H 0.39831 0.8203 0.51789 0.0
H677 H 0.46015 0.8426 0.56302 0.0
H678 H 0.49049 0.86719 0.5869 0.0
H679 H 0.43747 0.86373 0.62416 0.0
H680 H 0.4068 0.83938 0.60039 0.0
H681 H 0.33109 0.70846 0.55961 0.0
H682 H 0.36705 0.74413 0.55158 0.0
H683 H 0.34093 0.78446 0.57936 0.0
H684 H 0.30466 0.74894 0.58701 0.0
H685 H 0.39245 0.79857 0.58608 0.0
H686 H 0.33206 0.78008 0.53655 0.0
H687 H 0.30315 0.7539 0.51238 0.0
H688 H 0.35723 0.74834 0.48322 0.0
H689 H 0.3864 0.77422 0.50742 0.0
C690 C 0.4485 0.89648 0.54274 0.0
C691 C 0.46046 0.89977 0.52546 0.0
C692 C 0.43385 0.87429 0.54952 0.0
C693 C 0.43129 0.85478 0.53954 0.0
C694 C 0.44378 0.858 0.5226 0.0
C695 C 0.45814 0.88023 0.51559 0.0
C696 C 0.41418 0.83111 0.54603 0.0
C697 C 0.39748 0.81547 0.53275 0.0
C698 C 0.41279 0.82463 0.56544 0.0
C699 C 0.43117 0.83927 0.57984 0.0
C700 C 0.45495 0.84721 0.57624 0.0
C701 C 0.47222 0.86109 0.58978 0.0
C702 C 0.46592 0.86705 0.60702 0.0
C703 C 0.44233 0.8591 0.61079 0.0
C704 C 0.42499 0.84523 0.5973 0.0
C705 C 0.33317 0.7249 0.56429 0.0
C706 C 0.31502 0.72595 0.57384 0.0
C707 C 0.35369 0.74522 0.55968 0.0
C708 C 0.35652 0.76683 0.56487 0.0
C709 C 0.33902 0.76789 0.57531 0.0
C710 C 0.3183 0.74762 0.57958 0.0
C711 C 0.37672 0.78839 0.55801 0.0
C712 C 0.39381 0.80349 0.57122 0.0
C713 C 0.37882 0.79422 0.5385 0.0
C714 C 0.36132 0.77881 0.52391 0.0
C715 C 0.33773 0.77308 0.52509 0.0
C716 C 0.32131 0.75834 0.51137 0.0
C717 C 0.32833 0.7494 0.49631 0.0
C718 C 0.3518 0.75524 0.49492 0.0
C719 C 0.36828 0.76994 0.50863 0.0
H720 H 0.31559 0.738 0.4857 0.0
H721 H 0.47931 0.87779 0.61748 0.0
H722 H 0.55989 0.46178 0.72385 0.0
H723 H 0.57315 0.43672 0.7379 0.0
H724 H 0.56759 0.40521 0.68249 0.0
H725 H 0.55505 0.43058 0.66832 0.0
H726 H 0.54967 0.39117 0.74024 0.0
H727 H 0.60668 0.38757 0.67832 0.0
H728 H 0.63462 0.41396 0.65479 0.0
H729 H 0.65003 0.47228 0.69109 0.0
H730 H 0.62245 0.44624 0.71497 0.0
H731 H 0.54692 0.2853 0.73425 0.0
H732 H 0.54596 0.32096 0.73006 0.0
H733 H 0.62009 0.36087 0.74314 0.0
H734 H 0.62133 0.32509 0.74687 0.0
H735 H 0.61082 0.37722 0.71291 0.0
H736 H 0.57869 0.35889 0.77479 0.0
H737 H 0.55292 0.33451 0.80032 0.0
H738 H 0.49241 0.32428 0.7683 0.0
H739 H 0.51778 0.34833 0.74244 0.0
C740 C 0.56198 0.44983 0.71462 0.0
C741 C 0.55636 0.44809 0.69499 0.0
C742 C 0.56939 0.43543 0.72268 0.0
C743 C 0.57152 0.41921 0.71124 0.0
C744 C 0.56642 0.41782 0.69157 0.0
C745 C 0.55901 0.43216 0.68352 0.0
C746 C 0.57746 0.40254 0.71988 0.0
C747 C 0.56319 0.38825 0.73441 0.0
C748 C 0.59551 0.39915 0.71263 0.0
C749 C 0.61235 0.41492 0.6984 0.0
C750 C 0.61612 0.40601 0.68134 0.0
C751 C 0.63188 0.42091 0.66792 0.0
C752 C 0.64405 0.44478 0.67142 0.0
C753 C 0.64053 0.45379 0.68837 0.0
C754 C 0.62481 0.43897 0.70184 0.0
C755 C 0.563 0.30163 0.73648 0.0
C756 C 0.58422 0.30232 0.74087 0.0
C757 C 0.56239 0.32206 0.73418 0.0
C758 C 0.58289 0.34364 0.73653 0.0
C759 C 0.60404 0.34442 0.7413 0.0
C760 C 0.60471 0.32395 0.74346 0.0
C761 C 0.58235 0.3652 0.73269 0.0
C762 C 0.59759 0.38039 0.71903 0.0
C763 C 0.56553 0.36973 0.74104 0.0
C764 C 0.55016 0.35535 0.75663 0.0
C765 C 0.55988 0.35134 0.77314 0.0
C766 C 0.54534 0.33758 0.78768 0.0
C767 C 0.52105 0.32783 0.78593 0.0
C768 C 0.51124 0.33185 0.76964 0.0
C769 C 0.52569 0.34558 0.75505 0.0
H770 H 0.50982 0.31718 0.7972 0.0
H771 H 0.65623 0.45629 0.66101 0.0
H772 H 0.11319 0.53975 0.88108 0.0
H773 H 0.15354 0.55938 0.89281 0.0
H774 H 0.17561 0.60009 0.84172 0.0
H775 H 0.13529 0.57936 0.82928 0.0
H776 H 0.20346 0.58467 0.84825 0.0
H777 H 0.17642 0.6244 0.88698 0.0
H778 H 0.15028 0.62999 0.90861 0.0
H779 H 0.1616 0.59141 0.95198 0.0
H780 H 0.18754 0.58528 0.93052 0.0
H781 H 0.31866 0.63901 0.89032 0.0
H782 H 0.28207 0.63769 0.88068 0.0
H783 H 0.24275 0.5769 0.91452 0.0
H784 H 0.27907 0.57774 0.9238 0.0
H785 H 0.22712 0.61195 0.91538 0.0
H786 H 0.24765 0.56669 0.87197 0.0
H787 H 0.27455 0.56284 0.84994 0.0
H788 H 0.27631 0.616 0.81476 0.0
H789 H 0.24967 0.62039 0.83679 0.0
C790 C 0.1266 0.5528 0.87226 0.0
C791 C 0.12097 0.55778 0.85413 0.0
C792 C 0.14968 0.56435 0.87916 0.0
C793 C 0.16765 0.58154 0.86831 0.0
C794 C 0.16204 0.587 0.85041 0.0
C795 C 0.13893 0.57524 0.84338 0.0
C796 C 0.19244 0.59217 0.87504 0.0
C797 C 0.20871 0.59122 0.86278 0.0
C798 C 0.19944 0.60065 0.89404 0.0
C799 C 0.18386 0.60428 0.90707 0.0
C800 C 0.17322 0.61696 0.90108 0.0
C801 C 0.15845 0.62025 0.91332 0.0
C802 C 0.15426 0.61104 0.93165 0.0
C803 C 0.16487 0.59854 0.93778 0.0
C804 C 0.17964 0.59519 0.92559 0.0
C805 C 0.30225 0.62568 0.89603 0.0
C806 C 0.30162 0.60835 0.90767 0.0
C807 C 0.28142 0.62496 0.89051 0.0
C808 C 0.25981 0.60717 0.89687 0.0
C809 C 0.25931 0.59081 0.90954 0.0
C810 C 0.28003 0.59123 0.91473 0.0
C811 C 0.23751 0.60379 0.88872 0.0
C812 C 0.22182 0.60601 0.90071 0.0
C813 C 0.23111 0.59686 0.86942 0.0
C814 C 0.24696 0.59408 0.85614 0.0
C815 C 0.25396 0.5777 0.85964 0.0
C816 C 0.26912 0.5754 0.84714 0.0
C817 C 0.27721 0.58923 0.831 0.0
C818 C 0.27008 0.60534 0.8273 0.0
C819 C 0.25496 0.60775 0.83978 0.0
H820 H 0.28894 0.58741 0.82134 0.0
H821 H 0.14283 0.6136 0.94111 0.0
H822 H 0.62963 0.13271 0.01262 0.0
H823 H 0.65225 0.17295 0.02375 0.0
H824 H 0.58903 0.16932 0.04444 0.0
H825 H 0.56627 0.12906 0.03323 0.0
H826 H 0.61476 0.20863 0.02631 0.0
H827 H 0.62902 0.16742 0.07518 0.0
H828 H 0.64043 0.14032 0.08843 0.0
H829 H 0.7096 0.18116 0.06611 0.0
H830 H 0.6985 0.20835 0.05249 0.0
H831 H 0.67139 0.31173 0.08313 0.0
H832 H 0.64848 0.27087 0.07372 0.0
H833 H 0.70934 0.27511 0.04728 0.0
H834 H 0.73242 0.31604 0.05659 0.0
H835 H 0.68447 0.23548 0.06909 0.0
H836 H 0.66921 0.2763 0.01982 0.0
H837 H 0.65731 0.30331 0.0072 0.0
H838 H 0.58916 0.26282 0.03141 0.0
H839 H 0.60078 0.23573 0.04442 0.0
C840 C 0.62058 0.14043 0.01968 0.0
C841 C 0.59618 0.12767 0.02213 0.0
C842 C 0.63352 0.16343 0.02603 0.0
C843 C 0.6224 0.17407 0.03518 0.0
C844 C 0.59799 0.16147 0.03743 0.0
C845 C 0.585 0.13849 0.03098 0.0
C846 C 0.6362 0.19841 0.04221 0.0
C847 C 0.62978 0.2144 0.0359 0.0
C848 C 0.65608 0.20608 0.05444 0.0
C849 C 0.66285 0.1898 0.06266 0.0
C850 C 0.64661 0.17053 0.07297 0.0
C851 C 0.65303 0.15516 0.08057 0.0
C852 C 0.67571 0.15898 0.07807 0.0
C853 C 0.69203 0.17821 0.06801 0.0
C854 C 0.68569 0.19361 0.06037 0.0
C855 C 0.67996 0.30397 0.07541 0.0
C856 C 0.70371 0.31717 0.07054 0.0
C857 C 0.66681 0.28063 0.06999 0.0
C858 C 0.67718 0.27005 0.05965 0.0
C859 C 0.70102 0.28299 0.05522 0.0
C860 C 0.71415 0.30638 0.06051 0.0
C861 C 0.66302 0.24559 0.05315 0.0
C862 C 0.66939 0.22962 0.05955 0.0
C863 C 0.643 0.2379 0.04112 0.0
C864 C 0.63596 0.25413 0.03326 0.0
C865 C 0.65176 0.27326 0.0226 0.0
C866 C 0.64505 0.28857 0.01535 0.0
C867 C 0.62251 0.28482 0.01855 0.0
C868 C 0.60662 0.26572 0.02897 0.0
C869 C 0.61325 0.25038 0.03627 0.0
H870 H 0.61735 0.29668 0.01292 0.0
H871 H 0.68065 0.14707 0.08396 0.0
H872 H 0.47593 0.60952 0.17521 0.0
H873 H 0.46207 0.63529 0.18631 0.0
H874 H 0.44023 0.59824 0.23917 0.0
H875 H 0.45443 0.5725 0.22828 0.0
H876 H 0.40697 0.60725 0.22392 0.0
H877 H 0.48922 0.64964 0.23885 0.0
H878 H 0.53135 0.66694 0.23225 0.0
H879 H 0.52592 0.70988 0.18958 0.0
H880 H 0.48366 0.69259 0.19574 0.0
H881 H 0.38569 0.69075 0.26887 0.0
H882 H 0.40159 0.66531 0.26208 0.0
H883 H 0.42994 0.70085 0.20934 0.0
H884 H 0.41456 0.72664 0.21621 0.0
H885 H 0.46062 0.69222 0.2269 0.0
H886 H 0.37848 0.64856 0.21018 0.0
H887 H 0.33613 0.63114 0.21592 0.0
H888 H 0.34109 0.59054 0.261 0.0
H889 H 0.38356 0.60797 0.25569 0.0
C890 C 0.46842 0.60697 0.18929 0.0
C891 C 0.4665 0.58906 0.20093 0.0
C892 C 0.46044 0.62168 0.19559 0.0
C893 C 0.45041 0.61886 0.21367 0.0
C894 C 0.44797 0.60072 0.22518 0.0
C895 C 0.45601 0.58599 0.2189 0.0
C896 C 0.44246 0.63489 0.22043 0.0
C897 C 0.41876 0.6258 0.2249 0.0
C898 C 0.45777 0.65912 0.2213 0.0
C899 C 0.48322 0.66967 0.21765 0.0
C900 C 0.49697 0.66264 0.22796 0.0
C901 C 0.52088 0.67247 0.22431 0.0
C902 C 0.5313 0.68946 0.21048 0.0
C903 C 0.51782 0.6967 0.20029 0.0
C904 C 0.49389 0.68691 0.20386 0.0
C905 C 0.39545 0.69325 0.25589 0.0
C906 C 0.39874 0.71065 0.24303 0.0
C907 C 0.40443 0.67862 0.25198 0.0
C908 C 0.41666 0.68094 0.23505 0.0
C909 C 0.42053 0.69871 0.22247 0.0
C910 C 0.41166 0.71341 0.22641 0.0
C911 C 0.42505 0.66463 0.23019 0.0
C912 C 0.44884 0.67366 0.22608 0.0
C913 C 0.40979 0.64036 0.22954 0.0
C914 C 0.38424 0.62975 0.23267 0.0
C915 C 0.37057 0.63605 0.22141 0.0
C916 C 0.34654 0.62615 0.22457 0.0
C917 C 0.33594 0.6098 0.23885 0.0
C918 C 0.34934 0.60324 0.24996 0.0
C919 C 0.37338 0.61311 0.24687 0.0
H920 H 0.31734 0.60216 0.24128 0.0
H921 H 0.54981 0.69705 0.20767 0.0
H922 H 0.8836 0.415 0.36498 0.0
H923 H 0.84398 0.40501 0.37454 0.0
H924 H 0.8555 0.47046 0.35391 0.0
H925 H 0.8947 0.48031 0.34383 0.0
H926 H 0.83735 0.4607 0.39055 0.0
H927 H 0.82358 0.42313 0.32872 0.0
H928 H 0.82576 0.39658 0.30522 0.0
H929 H 0.78454 0.33906 0.34138 0.0
H930 H 0.78281 0.3654 0.36546 0.0
H931 H 0.72743 0.45176 0.3848 0.0
H932 H 0.76511 0.4553 0.37752 0.0
H933 H 0.73993 0.38538 0.39582 0.0
H934 H 0.70168 0.38145 0.40282 0.0
H935 H 0.76475 0.39407 0.36341 0.0
H936 H 0.77682 0.43074 0.42463 0.0
H937 H 0.77539 0.45706 0.44888 0.0
H938 H 0.81968 0.51549 0.4146 0.0
H939 H 0.82111 0.48951 0.39 0.0
C940 C 0.87759 0.42713 0.36224 0.0
C941 C 0.89241 0.44852 0.35372 0.0
C942 C 0.855 0.42144 0.3678 0.0
C943 C 0.84688 0.43703 0.36495 0.0
C944 C 0.86154 0.45828 0.35637 0.0
C945 C 0.88399 0.46391 0.3507 0.0
C946 C 0.8232 0.43151 0.37104 0.0
C947 C 0.82146 0.44623 0.38453 0.0
C948 C 0.80255 0.41218 0.36361 0.0
C949 C 0.80332 0.3963 0.34902 0.0
C950 C 0.81518 0.40486 0.33177 0.0
C951 C 0.8163 0.38983 0.31832 0.0
C952 C 0.80526 0.36614 0.32177 0.0
C953 C 0.7931 0.35742 0.33872 0.0
C954 C 0.7921 0.3724 0.3523 0.0
C955 C 0.72982 0.43709 0.38734 0.0
C956 C 0.71157 0.41637 0.39456 0.0
C957 C 0.75145 0.43918 0.38321 0.0
C958 C 0.75549 0.42075 0.38646 0.0
C959 C 0.73721 0.39985 0.39331 0.0
C960 C 0.71541 0.39767 0.39735 0.0
C961 C 0.7789 0.42359 0.38264 0.0
C962 C 0.78062 0.40838 0.36962 0.0
C963 C 0.79961 0.44241 0.39058 0.0
C964 C 0.79894 0.45814 0.40541 0.0
C965 C 0.78613 0.44919 0.4222 0.0
C966 C 0.78534 0.46405 0.43602 0.0
C967 C 0.7974 0.48793 0.43326 0.0
C968 C 0.81034 0.497 0.41671 0.0
C969 C 0.81117 0.48221 0.40283 0.0
H970 H 0.79676 0.4994 0.44397 0.0
H971 H 0.80612 0.35453 0.31131 0.0
H972 H 0.10277 0.57505 0.39517 0.0
H973 H 0.13126 0.59317 0.42128 0.0
H974 H 0.13472 0.53074 0.42765 0.0
H975 H 0.10525 0.51204 0.40209 0.0
H976 H 0.13131 0.54637 0.46134 0.0
H977 H 0.18017 0.57999 0.40771 0.0
H978 H 0.19227 0.60001 0.37696 0.0
H979 H 0.19465 0.6601 0.4021 0.0
H980 H 0.18223 0.64033 0.43294 0.0
H981 H 0.22666 0.60446 0.52875 0.0
H982 H 0.205 0.58415 0.49949 0.0
H983 H 0.18765 0.63753 0.48959 0.0
H984 H 0.20913 0.65786 0.51868 0.0
H985 H 0.20152 0.62443 0.45665 0.0
H986 H 0.14841 0.58856 0.50907 0.0
H987 H 0.13643 0.56838 0.53978 0.0
H988 H 0.1429 0.51215 0.5164 0.0
H989 H 0.15524 0.53217 0.48561 0.0
C990 C 0.10947 0.56509 0.40217 0.0
C991 C 0.10162 0.54203 0.39655 0.0
C992 C 0.12603 0.5756 0.41695 0.0
C993 C 0.13542 0.56344 0.42628 0.0
C994 C 0.12782 0.5405 0.4206 0.0
C995 C 0.11112 0.5299 0.40587 0.0
C996 C 0.1523 0.57442 0.44252 0.0
C997 C 0.14693 0.56323 0.46018 0.0
C998 C 0.17253 0.59657 0.44114 0.0
C999 C 0.1801 0.60859 0.42262 0.0
C1000 C 0.18311 0.59741 0.40665 0.0
C1001 C 0.19005 0.60873 0.3892 0.0
C1002 C 0.19418 0.6313 0.38756 0.0
C1003 C 0.19143 0.64262 0.40338 0.0
C1004 C 0.18447 0.63137 0.42086 0.0
C1005 C 0.21837 0.61194 0.52027 0.0
C1006 C 0.2195 0.63271 0.52611 0.0
C1007 C 0.20596 0.60029 0.50359 0.0
C1008 C 0.19462 0.60928 0.49246 0.0
C1009 C 0.1963 0.63032 0.49797 0.0
C1010 C 0.2085 0.64185 0.51467 0.0
C1011 C 0.18025 0.59653 0.4754 0.0
C1012 C 0.18609 0.60741 0.45764 0.0
C1013 C 0.16054 0.57406 0.47666 0.0
C1014 C 0.15302 0.56198 0.49513 0.0
C1015 C 0.14747 0.57198 0.51053 0.0
C1016 C 0.14058 0.56056 0.52794 0.0
C1017 C 0.13898 0.53903 0.53006 0.0
C1018 C 0.1442 0.52885 0.51475 0.0
C1019 C 0.15113 0.54022 0.49732 0.0
H1020 H 0.13364 0.53022 0.54355 0.0
H1021 H 0.19955 0.64003 0.37404 0.0
H1022 H 0.6023 0.11027 0.56032 0.0
H1023 H 0.61588 0.13964 0.58594 0.0
H1024 H 0.55028 0.13932 0.58256 0.0
H1025 H 0.53697 0.11068 0.55656 0.0
H1026 H 0.58608 0.18244 0.58771 0.0
H1027 H 0.56026 0.1075 0.61583 0.0
H1028 H 0.56086 0.07124 0.62058 0.0
H1029 H 0.63323 0.11006 0.63834 0.0
H1030 H 0.63312 0.14657 0.63345 0.0
H1031 H 0.55991 0.2072 0.67858 0.0
H1032 H 0.56259 0.19017 0.64842 0.0
H1033 H 0.63357 0.20796 0.66274 0.0
H1034 H 0.63112 0.22536 0.69313 0.0
H1035 H 0.60441 0.16147 0.65083 0.0
H1036 H 0.6269 0.23649 0.62836 0.0
H1037 H 0.62462 0.27196 0.62446 0.0
H1038 H 0.55721 0.2326 0.59673 0.0
H1039 H 0.55891 0.19681 0.60072 0.0
C1040 C 0.59095 0.11678 0.56481 0.0
C1041 C 0.56845 0.10798 0.55655 0.0
C1042 C 0.59867 0.13342 0.57954 0.0
C1043 C 0.58397 0.14144 0.58633 0.0
C1044 C 0.5619 0.13334 0.57759 0.0
C1045 C 0.55421 0.11679 0.56287 0.0
C1046 C 0.5908 0.1573 0.60318 0.0
C1047 C 0.59007 0.17786 0.60152 0.0
C1048 C 0.59671 0.15166 0.62107 0.0
C1049 C 0.59677 0.12974 0.62404 0.0
C1050 C 0.57635 0.10829 0.6206 0.0
C1051 C 0.57659 0.08771 0.62334 0.0
C1052 C 0.59709 0.08835 0.62969 0.0
C1053 C 0.61738 0.10959 0.63337 0.0
C1054 C 0.61724 0.13023 0.63062 0.0
C1055 C 0.57618 0.20767 0.67531 0.0
C1056 C 0.59529 0.21758 0.68827 0.0
C1057 C 0.57772 0.19805 0.658 0.0
C1058 C 0.59834 0.19799 0.6533 0.0
C1059 C 0.61755 0.20797 0.66611 0.0
C1060 C 0.61613 0.21792 0.6834 0.0
C1061 C 0.59894 0.1862 0.63546 0.0
C1062 C 0.60103 0.16637 0.63693 0.0
C1063 C 0.59411 0.19242 0.61743 0.0
C1064 C 0.59299 0.21392 0.61494 0.0
C1065 C 0.61151 0.23535 0.62156 0.0
C1066 C 0.61033 0.25553 0.61931 0.0
C1067 C 0.59077 0.25453 0.61037 0.0
C1068 C 0.57235 0.23335 0.60365 0.0
C1069 C 0.57343 0.21311 0.60587 0.0
H1070 H 0.5899 0.27017 0.60864 0.0
H1071 H 0.59724 0.07239 0.63181 0.0
H1072 H 0.43347 0.52356 0.73633 0.0
H1073 H 0.41929 0.5369 0.76287 0.0
H1074 H 0.47233 0.60745 0.75221 0.0
H1075 H 0.48669 0.59415 0.72552 0.0
H1076 H 0.46986 0.59835 0.7897 0.0
H1077 H 0.4153 0.58839 0.74015 0.0
H1078 H 0.3871 0.5682 0.71364 0.0
H1079 H 0.34203 0.51447 0.7516 0.0
H1080 H 0.37012 0.53416 0.77828 0.0
H1081 H 0.41547 0.63603 0.85916 0.0
H1082 H 0.43167 0.63152 0.82906 0.0
H1083 H 0.38516 0.55769 0.83045 0.0
H1084 H 0.36879 0.56198 0.86021 0.0
H1085 H 0.38571 0.57432 0.79539 0.0
H1086 H 0.44274 0.58212 0.84366 0.0
H1087 H 0.47118 0.60202 0.8701 0.0
H1088 H 0.51155 0.66014 0.83423 0.0
H1089 H 0.48317 0.64068 0.80764 0.0
C1090 C 0.44192 0.54195 0.73943 0.0
C1091 C 0.4611 0.55781 0.72873 0.0
C1092 C 0.43382 0.54956 0.75463 0.0
C1093 C 0.44453 0.57321 0.75935 0.0
C1094 C 0.46377 0.58912 0.74878 0.0
C1095 C 0.47197 0.5815 0.73358 0.0
C1096 C 0.43591 0.58106 0.77568 0.0
C1097 C 0.45155 0.59352 0.79078 0.0
C1098 C 0.41197 0.57453 0.77718 0.0
C1099 C 0.39491 0.5627 0.7612 0.0
C1100 C 0.39945 0.5722 0.74282 0.0
C1101 C 0.38347 0.56085 0.72777 0.0
C1102 C 0.36281 0.54005 0.73093 0.0
C1103 C 0.35805 0.53058 0.74917 0.0
C1104 C 0.37398 0.54185 0.76427 0.0
C1105 C 0.4087 0.61885 0.85303 0.0
C1106 C 0.39086 0.59936 0.86213 0.0
C1107 C 0.41801 0.6163 0.83587 0.0
C1108 C 0.40968 0.59425 0.82758 0.0
C1109 C 0.39179 0.57487 0.83656 0.0
C1110 C 0.38252 0.57737 0.85365 0.0
C1111 C 0.41951 0.59102 0.8096 0.0
C1112 C 0.40409 0.57947 0.79417 0.0
C1113 C 0.44362 0.59841 0.80779 0.0
C1114 C 0.46069 0.61007 0.82375 0.0
C1115 C 0.45758 0.59922 0.84147 0.0
C1116 C 0.47371 0.6104 0.85646 0.0
C1117 C 0.49312 0.63236 0.85386 0.0
C1118 C 0.49648 0.64315 0.83623 0.0
C1119 C 0.48039 0.63205 0.8212 0.0
H1120 H 0.50559 0.64099 0.86549 0.0
H1121 H 0.35046 0.53129 0.71925 0.0
H1122 H 0.94416 0.46801 0.91513 0.0
H1123 H 0.91738 0.45791 0.94182 0.0
H1124 H 0.8584 0.41994 0.90309 0.0
H1125 H 0.88533 0.4311 0.87616 0.0
H1126 H 0.84752 0.44209 0.92647 0.0
H1127 H 0.87888 0.39265 0.93538 0.0
H1128 H 0.909 0.38117 0.93824 0.0
H1129 H 0.93821 0.42499 0.98808 0.0
H1130 H 0.90847 0.43699 0.98536 0.0
H1131 H 0.77597 0.38938 0.01121 0.0
H1132 H 0.79747 0.39216 0.9819 0.0
H1133 H 0.85642 0.45571 0.00319 0.0
H1134 H 0.83493 0.4535 0.03215 0.0
H1135 H 0.86305 0.4147 0.98761 0.0
H1136 H 0.83165 0.46633 0.97415 0.0
H1137 H 0.79896 0.47414 0.9707 0.0
H1138 H 0.76622 0.41971 0.92836 0.0
H1139 H 0.79859 0.41136 0.9318 0.0
C1140 C 0.92548 0.45738 0.91237 0.0
C1141 C 0.91676 0.45017 0.89367 0.0
C1142 C 0.91016 0.45148 0.92764 0.0
C1143 C 0.88582 0.43766 0.92461 0.0
C1144 C 0.87708 0.43051 0.90585 0.0
C1145 C 0.89243 0.43684 0.89049 0.0
C1146 C 0.86961 0.43149 0.94099 0.0
C1147 C 0.85075 0.43569 0.93968 0.0
C1148 C 0.8736 0.42305 0.95832 0.0
C1149 C 0.89152 0.41585 0.96007 0.0
C1150 C 0.89182 0.39996 0.94687 0.0
C1151 C 0.90882 0.39334 0.94848 0.0
C1152 C 0.92553 0.40238 0.96331 0.0
C1153 C 0.92526 0.41801 0.97659 0.0
C1154 C 0.90831 0.42471 0.97504 0.0
C1155 C 0.79349 0.40396 0.00959 0.0
C1156 C 0.80376 0.42127 0.02393 0.0
C1157 C 0.80569 0.40551 0.99288 0.0
C1158 C 0.82845 0.42413 0.99049 0.0
C1159 C 0.83884 0.44123 0.00485 0.0
C1160 C 0.8265 0.43998 0.02132 0.0
C1161 C 0.84168 0.42592 0.97306 0.0
C1162 C 0.85984 0.42081 0.97423 0.0
C1163 C 0.83671 0.43293 0.9555 0.0
C1164 C 0.81734 0.43802 0.95343 0.0
C1165 C 0.81735 0.45586 0.96427 0.0
C1166 C 0.79891 0.46042 0.96228 0.0
C1167 C 0.78047 0.44737 0.94937 0.0
C1168 C 0.78048 0.42977 0.93838 0.0
C1169 C 0.79886 0.42512 0.94035 0.0
H1170 H 0.76622 0.45093 0.94784 0.0
H1171 H 0.93868 0.39723 0.96453 0.0
H1172 H 0.45517 0.93258 0.06872 0.0
H1173 H 0.43751 0.90618 0.09523 0.0
H1174 H 0.49024 0.88611 0.09122 0.0
H1175 H 0.50793 0.91242 0.06438 0.0
H1176 H 0.44471 0.84846 0.09552 0.0
H1177 H 0.49555 0.92147 0.12595 0.0
H1178 H 0.51269 0.96333 0.13202 0.0
H1179 H 0.44538 0.9526 0.14849 0.0
H1180 H 0.42774 0.91068 0.14223 0.0
H1181 H 0.41359 0.79219 0.18641 0.0
H1182 H 0.43475 0.81609 0.15923 0.0
H1183 H 0.39027 0.84639 0.15958 0.0
H1184 H 0.36929 0.8229 0.18679 0.0
H1185 H 0.43536 0.87898 0.15777 0.0
H1186 H 0.38401 0.80655 0.12541 0.0
H1187 H 0.36642 0.76472 0.11885 0.0
H1188 H 0.43425 0.77428 0.10586 0.0
H1189 H 0.4523 0.81615 0.1126 0.0
C1190 C 0.46291 0.92241 0.07335 0.0
C1191 C 0.48293 0.92455 0.06446 0.0
C1192 C 0.45289 0.90745 0.08859 0.0
C1193 C 0.4627 0.89435 0.09528 0.0
C1194 C 0.48247 0.89614 0.08628 0.0
C1195 C 0.49262 0.91126 0.07107 0.0
C1196 C 0.45225 0.87902 0.11181 0.0
C1197 C 0.443 0.85512 0.10925 0.0
C1198 C 0.44973 0.88775 0.12959 0.0
C1199 C 0.46029 0.91294 0.13347 0.0
C1200 C 0.48436 0.92805 0.13072 0.0
C1201 C 0.49417 0.95179 0.13422 0.0
C1202 C 0.48013 0.96063 0.1406 0.0
C1203 C 0.45624 0.94573 0.14353 0.0
C1204 C 0.44633 0.92197 0.14003 0.0
C1205 C 0.40819 0.8038 0.1806 0.0
C1206 C 0.38977 0.80566 0.18882 0.0
C1207 C 0.42027 0.81741 0.16503 0.0
C1208 C 0.41404 0.83298 0.15734 0.0
C1209 C 0.39543 0.83456 0.16533 0.0
C1210 C 0.3834 0.82104 0.18087 0.0
C1211 C 0.42731 0.8483 0.1414 0.0
C1212 C 0.43719 0.87227 0.1441 0.0
C1213 C 0.43036 0.8396 0.12377 0.0
C1214 C 0.41954 0.81444 0.11973 0.0
C1215 C 0.39521 0.7997 0.12132 0.0
C1216 C 0.38514 0.77599 0.11754 0.0
C1217 C 0.39922 0.76684 0.112 0.0
C1218 C 0.42338 0.78139 0.11019 0.0
C1219 C 0.43353 0.80511 0.11398 0.0
H1220 H 0.3914 0.74847 0.10907 0.0
H1221 H 0.48776 0.97901 0.1433 0.0
H1222 H 0.50855 0.45278 0.25502 0.0
H1223 H 0.51842 0.4353 0.28139 0.0
H1224 H 0.56536 0.42553 0.24505 0.0
H1225 H 0.55531 0.44277 0.2184 0.0
H1226 H 0.53851 0.38769 0.27099 0.0
H1227 H 0.58869 0.47089 0.27121 0.0
H1228 H 0.59646 0.51104 0.27052 0.0
H1229 H 0.55759 0.50007 0.32204 0.0
H1230 H 0.54929 0.45972 0.32286 0.0
H1231 H 0.61585 0.38537 0.34303 0.0
H1232 H 0.59481 0.38858 0.31515 0.0
H1233 H 0.56082 0.41504 0.35174 0.0
H1234 H 0.58291 0.41309 0.37925 0.0
H1235 H 0.57968 0.44283 0.32482 0.0
H1236 H 0.53097 0.36043 0.32638 0.0
H1237 H 0.52201 0.3199 0.32719 0.0
H1238 H 0.55607 0.32805 0.27348 0.0
H1239 H 0.56553 0.36874 0.27247 0.0
C1240 C 0.52056 0.44643 0.25248 0.0
C1241 C 0.53129 0.4493 0.23467 0.0
C1242 C 0.52622 0.43652 0.26758 0.0
C1243 C 0.54271 0.42929 0.26516 0.0
C1244 C 0.55256 0.43099 0.24715 0.0
C1245 C 0.54699 0.44104 0.23204 0.0
C1246 C 0.55142 0.42228 0.28193 0.0
C1247 C 0.54768 0.3997 0.28276 0.0
C1248 C 0.56297 0.4379 0.29734 0.0
C1249 C 0.56818 0.46224 0.29698 0.0
C1250 C 0.58165 0.47699 0.28231 0.0
C1251 C 0.58617 0.49979 0.28191 0.0
C1252 C 0.57747 0.50808 0.2962 0.0
C1253 C 0.56429 0.49361 0.31096 0.0
C1254 C 0.55969 0.47078 0.31141 0.0
C1255 C 0.60335 0.39122 0.34507 0.0
C1256 C 0.60081 0.39893 0.36313 0.0
C1257 C 0.59128 0.39301 0.32918 0.0
C1258 C 0.57613 0.40203 0.33129 0.0
C1259 C 0.57248 0.40817 0.34968 0.0
C1260 C 0.58495 0.40693 0.36541 0.0
C1261 C 0.56644 0.40788 0.31431 0.0
C1262 C 0.57025 0.43051 0.31329 0.0
C1263 C 0.55481 0.39217 0.29887 0.0
C1264 C 0.54915 0.36771 0.29944 0.0
C1265 C 0.53672 0.35364 0.31481 0.0
C1266 C 0.53152 0.33063 0.3153 0.0
C1267 C 0.53852 0.32143 0.30042 0.0
C1268 C 0.55068 0.33521 0.28501 0.0
C1269 C 0.55594 0.35824 0.28446 0.0
H1270 H 0.53447 0.3036 0.30082 0.0
H1271 H 0.58099 0.52574 0.29587 0.0
H1272 H 0.44499 0.92292 0.41328 0.0
H1273 H 0.42851 0.89278 0.38851 0.0
H1274 H 0.48943 0.88475 0.39259 0.0
H1275 H 0.50596 0.91475 0.41777 0.0
H1276 H 0.47775 0.88748 0.3556 0.0
H1277 H 0.43881 0.84338 0.40979 0.0
H1278 H 0.4164 0.83388 0.43958 0.0
H1279 H 0.35811 0.83135 0.4093 0.0
H1280 H 0.3803 0.84118 0.37937 0.0
H1281 H 0.4188 0.79262 0.28836 0.0
H1282 H 0.43866 0.81363 0.31798 0.0
H1283 H 0.38676 0.83438 0.32498 0.0
H1284 H 0.36688 0.81354 0.29563 0.0
H1285 H 0.39695 0.82043 0.35868 0.0
H1286 H 0.43894 0.87073 0.30606 0.0
H1287 H 0.46161 0.88072 0.27637 0.0
H1288 H 0.51446 0.87116 0.30427 0.0
H1289 H 0.49191 0.86082 0.33407 0.0
C1290 C 0.45475 0.91451 0.40919 0.0
C1291 C 0.47675 0.92119 0.41762 0.0
C1292 C 0.44531 0.89729 0.39498 0.0
C1293 C 0.45761 0.88632 0.38888 0.0
C1294 C 0.47963 0.89298 0.39714 0.0
C1295 C 0.48909 0.91019 0.41145 0.0
C1296 C 0.44765 0.86856 0.37334 0.0
C1297 C 0.46029 0.87251 0.35643 0.0
C1298 C 0.42479 0.84916 0.37437 0.0
C1299 C 0.4113 0.84317 0.39234 0.0
C1300 C 0.42128 0.84097 0.4095 0.0
C1301 C 0.4086 0.8355 0.42642 0.0
C1302 C 0.38586 0.83205 0.42634 0.0
C1303 C 0.37573 0.83403 0.40934 0.0
C1304 C 0.38834 0.83952 0.39238 0.0
C1305 C 0.41154 0.80153 0.2963 0.0
C1306 C 0.39134 0.80153 0.28956 0.0
C1307 C 0.42293 0.81355 0.31318 0.0
C1308 C 0.41424 0.82567 0.3236 0.0
C1309 C 0.39373 0.82511 0.31718 0.0
C1310 C 0.38246 0.81327 0.30032 0.0
C1311 C 0.42677 0.83977 0.34081 0.0
C1312 C 0.4146 0.83512 0.35803 0.0
C1313 C 0.45006 0.85848 0.34008 0.0
C1314 C 0.46361 0.86472 0.3222 0.0
C1315 C 0.45529 0.87057 0.30581 0.0
C1316 C 0.46814 0.87633 0.28898 0.0
C1317 C 0.48942 0.87649 0.28841 0.0
C1318 C 0.49794 0.87097 0.30471 0.0
C1319 C 0.48514 0.86516 0.32157 0.0
H1320 H 0.49935 0.88097 0.27537 0.0
H1321 H 0.37607 0.82781 0.43945 0.0
H1322 H 0.58013 0.49952 0.58167 0.0
H1323 H 0.59591 0.48641 0.55614 0.0
H1324 H 0.53814 0.41679 0.56149 0.0
H1325 H 0.52247 0.42971 0.58751 0.0
H1326 H 0.58081 0.41831 0.55649 0.0
H1327 H 0.53619 0.44814 0.5264 0.0
H1328 H 0.52358 0.47663 0.52037 0.0
H1329 H 0.59315 0.52615 0.50306 0.0
H1330 H 0.60627 0.49805 0.50927 0.0
H1331 H 0.60167 0.3838 0.46357 0.0
H1332 H 0.58486 0.39041 0.49243 0.0
H1333 H 0.63628 0.46311 0.49132 0.0
H1334 H 0.65286 0.45677 0.46249 0.0
H1335 H 0.59321 0.45669 0.4939 0.0
H1336 H 0.63814 0.42706 0.52521 0.0
H1337 H 0.65055 0.39843 0.5314 0.0
H1338 H 0.58011 0.34814 0.54605 0.0
H1339 H 0.56721 0.37639 0.53971 0.0
C1340 C 0.57094 0.48135 0.57765 0.0
C1341 C 0.54999 0.46567 0.58658 0.0
C1342 C 0.57989 0.47391 0.56295 0.0
C1343 C 0.56804 0.45068 0.55679 0.0
C1344 C 0.5475 0.43481 0.56601 0.0
C1345 C 0.53847 0.44225 0.58073 0.0
C1346 C 0.57678 0.44335 0.54022 0.0
C1347 C 0.58323 0.42642 0.5427 0.0
C1348 C 0.58012 0.45413 0.52232 0.0
C1349 C 0.57226 0.47104 0.51846 0.0
C1350 C 0.54885 0.46516 0.52145 0.0
C1351 C 0.5416 0.48123 0.51798 0.0
C1352 C 0.55756 0.5032 0.51138 0.0
C1353 C 0.5808 0.50913 0.50819 0.0
C1354 C 0.58815 0.49313 0.51167 0.0
C1355 C 0.60961 0.40112 0.46967 0.0
C1356 C 0.62848 0.41979 0.46064 0.0
C1357 C 0.60001 0.40486 0.48618 0.0
C1358 C 0.60928 0.42728 0.494 0.0
C1359 C 0.62873 0.4457 0.48546 0.0
C1360 C 0.63822 0.44202 0.46898 0.0
C1361 C 0.59792 0.43208 0.51024 0.0
C1362 C 0.59077 0.44847 0.50765 0.0
C1363 C 0.59393 0.42075 0.52795 0.0
C1364 C 0.60166 0.40376 0.53177 0.0
C1365 C 0.62525 0.40983 0.52959 0.0
C1366 C 0.63238 0.39369 0.53316 0.0
C1367 C 0.61611 0.37146 0.53905 0.0
C1368 C 0.59268 0.36535 0.54145 0.0
C1369 C 0.58546 0.38143 0.53788 0.0
H1370 H 0.62167 0.35899 0.54182 0.0
H1371 H 0.55192 0.51562 0.5087 0.0
H1372 H 0.1185 0.54287 0.7637 0.0
H1373 H 0.14765 0.55994 0.73871 0.0
H1374 H 0.09665 0.56393 0.70217 0.0
H1375 H 0.06704 0.5454 0.72645 0.0
H1376 H 0.12009 0.55071 0.68182 0.0
H1377 H 0.14131 0.61179 0.72881 0.0
H1378 H 0.15228 0.62982 0.761 0.0
H1379 H 0.21337 0.62237 0.76145 0.0
H1380 H 0.20259 0.60402 0.72933 0.0
H1381 H 0.18878 0.64361 0.62123 0.0
H1382 H 0.16527 0.62221 0.64842 0.0
H1383 H 0.21671 0.60302 0.6638 0.0
H1384 H 0.24029 0.62407 0.63621 0.0
H1385 H 0.19669 0.62143 0.69535 0.0
H1386 H 0.17571 0.56315 0.64596 0.0
H1387 H 0.16419 0.54737 0.61311 0.0
H1388 H 0.10164 0.55199 0.6169 0.0
H1389 H 0.11298 0.56817 0.64968 0.0
C1390 C 0.11335 0.54704 0.75024 0.0
C1391 C 0.09037 0.54285 0.74721 0.0
C1392 C 0.13017 0.5571 0.73604 0.0
C1393 C 0.12451 0.56361 0.71863 0.0
C1394 C 0.10153 0.55916 0.71549 0.0
C1395 C 0.08464 0.54881 0.72954 0.0
C1396 C 0.14236 0.57517 0.70363 0.0
C1397 C 0.13677 0.56623 0.68484 0.0
C1398 C 0.16443 0.59514 0.70753 0.0
C1399 C 0.171 0.6063 0.72677 0.0
C1400 C 0.15699 0.61385 0.73583 0.0
C1401 C 0.16319 0.62415 0.75405 0.0
C1402 C 0.18347 0.62717 0.76329 0.0
C1403 C 0.19764 0.61997 0.75429 0.0
C1404 C 0.19151 0.60964 0.73608 0.0
C1405 C 0.19525 0.63502 0.63045 0.0
C1406 C 0.21639 0.6355 0.62654 0.0
C1407 C 0.18176 0.62277 0.64595 0.0
C1408 C 0.18927 0.61104 0.65801 0.0
C1409 C 0.21069 0.61202 0.6546 0.0
C1410 C 0.22406 0.62396 0.63883 0.0
C1411 C 0.17406 0.59716 0.67372 0.0
C1412 C 0.18014 0.60569 0.69254 0.0
C1413 C 0.15231 0.577 0.66985 0.0
C1414 C 0.14531 0.56707 0.65021 0.0
C1415 C 0.1596 0.561 0.63973 0.0
C1416 C 0.15309 0.55195 0.62113 0.0
C1417 C 0.13223 0.54874 0.61291 0.0
C1418 C 0.1178 0.55451 0.62328 0.0
C1419 C 0.12426 0.5636 0.64188 0.0
H1420 H 0.12721 0.54173 0.59851 0.0
H1421 H 0.18823 0.63514 0.7774 0.0
H1422 H 0.59048 0.12137 0.93063 0.0
H1423 H 0.59973 0.14779 0.90394 0.0
H1424 H 0.54143 0.09434 0.87138 0.0
H1425 H 0.53293 0.06754 0.89744 0.0
H1426 H 0.57725 0.11551 0.84929 0.0
H1427 H 0.53915 0.13981 0.89488 0.0
H1428 H 0.53356 0.15332 0.92628 0.0
H1429 H 0.60156 0.2141 0.92305 0.0
H1430 H 0.60766 0.20078 0.89172 0.0
H1431 H 0.55041 0.17807 0.78275 0.0
H1432 H 0.54939 0.15597 0.8107 0.0
H1433 H 0.61822 0.21046 0.82819 0.0
H1434 H 0.61961 0.23266 0.79998 0.0
H1435 H 0.58224 0.1917 0.85819 0.0
H1436 H 0.61778 0.16764 0.8104 0.0
H1437 H 0.62105 0.15363 0.77847 0.0
H1438 H 0.55496 0.09147 0.78558 0.0
H1439 H 0.55111 0.10529 0.81745 0.0
C1440 C 0.5798 0.11516 0.9177 0.0
C1441 C 0.56084 0.09235 0.91626 0.0
C1442 C 0.58495 0.13037 0.90253 0.0
C1443 C 0.57107 0.12316 0.88574 0.0
C1444 C 0.55235 0.10034 0.8842 0.0
C1445 C 0.54734 0.0851 0.89924 0.0
C1446 C 0.57584 0.13922 0.86967 0.0
C1447 C 0.57816 0.13209 0.85127 0.0
C1448 C 0.57762 0.16113 0.87225 0.0
C1449 C 0.57397 0.16917 0.89107 0.0
C1450 C 0.55298 0.15596 0.90094 0.0
C1451 C 0.54971 0.1636 0.91871 0.0
C1452 C 0.56723 0.18452 0.92669 0.0
C1453 C 0.58803 0.19788 0.91688 0.0
C1454 C 0.5914 0.1903 0.89911 0.0
C1455 C 0.56532 0.18543 0.79255 0.0
C1456 C 0.58512 0.20709 0.78914 0.0
C1457 C 0.56472 0.17275 0.80848 0.0
C1458 C 0.58378 0.18158 0.82139 0.0
C1459 C 0.60338 0.2034 0.81833 0.0
C1460 C 0.60416 0.21598 0.8022 0.0
C1461 C 0.58312 0.16768 0.83794 0.0
C1462 C 0.58159 0.17523 0.85636 0.0
C1463 C 0.58177 0.14603 0.83537 0.0
C1464 C 0.58407 0.1376 0.81625 0.0
C1465 C 0.60384 0.15108 0.80509 0.0
C1466 C 0.60582 0.14315 0.78701 0.0
C1467 C 0.58819 0.1217 0.77998 0.0
C1468 C 0.56858 0.1081 0.79104 0.0
C1469 C 0.56651 0.11596 0.80912 0.0
H1470 H 0.58976 0.11559 0.76599 0.0
H1471 H 0.56466 0.1904 0.94044 0.0
H1472 H 0.50331 0.60474 0.09533 0.0
H1473 H 0.48931 0.61677 0.06743 0.0
H1474 H 0.43225 0.5468 0.05944 0.0
H1475 H 0.44622 0.53468 0.08695 0.0
H1476 H 0.45579 0.56576 0.02623 0.0
H1477 H 0.42273 0.58716 0.07906 0.0
H1478 H 0.42507 0.608 0.10905 0.0
H1479 H 0.4685 0.67294 0.08199 0.0
H1480 H 0.46668 0.65244 0.05189 0.0
H1481 H 0.37027 0.56509 0.96755 0.0
H1482 H 0.39165 0.56337 0.99546 0.0
H1483 H 0.44009 0.63665 0.99215 0.0
H1484 H 0.41854 0.63865 0.96409 0.0
H1485 H 0.42763 0.62214 0.02959 0.0
H1486 H 0.45735 0.6014 0.9759 0.0
H1487 H 0.45541 0.58101 0.94575 0.0
H1488 H 0.41983 0.51582 0.9741 0.0
H1489 H 0.42124 0.5358 0.00437 0.0
C1490 C 0.4878 0.59198 0.08758 0.0
C1491 C 0.47577 0.5688 0.09337 0.0
C1492 C 0.47977 0.59888 0.07175 0.0
C1493 C 0.4597 0.58267 0.06145 0.0
C1494 C 0.44775 0.55957 0.06721 0.0
C1495 C 0.45565 0.55272 0.08303 0.0
C1496 C 0.45113 0.58933 0.04439 0.0
C1497 C 0.44953 0.57801 0.02697 0.0
C1498 C 0.44382 0.60596 0.04524 0.0
C1499 C 0.44481 0.61826 0.0633 0.0
C1500 C 0.43295 0.60587 0.07955 0.0
C1501 C 0.43415 0.61762 0.09656 0.0
C1502 C 0.44699 0.64177 0.09744 0.0
C1503 C 0.4586 0.65423 0.0813 0.0
C1504 C 0.45749 0.64255 0.06426 0.0
C1505 C 0.38537 0.58093 0.97276 0.0
C1506 C 0.39283 0.60198 0.96344 0.0
C1507 C 0.39761 0.57989 0.98871 0.0
C1508 C 0.41769 0.5998 0.99565 0.0
C1509 C 0.4247 0.62107 0.98693 0.0
C1510 C 0.41239 0.62215 0.97089 0.0
C1511 C 0.43152 0.5979 0.01163 0.0
C1512 C 0.43422 0.61017 0.02877 0.0
C1513 C 0.44004 0.58223 0.01054 0.0
C1514 C 0.43928 0.57011 0.99238 0.0
C1515 C 0.44897 0.5827 0.97568 0.0
C1516 C 0.44798 0.57122 0.95857 0.0
C1517 C 0.43747 0.54713 0.958 0.0
C1518 C 0.42796 0.53448 0.97456 0.0
C1519 C 0.42888 0.54588 0.9917 0.0
H1520 H 0.43672 0.53827 0.94474 0.0
H1521 H 0.44789 0.65084 0.11062 0.0
H1522 H 0.90466 0.46379 0.26151 0.0
H1523 H 0.87605 0.45198 0.23548 0.0
H1524 H 0.89643 0.40348 0.21502 0.0
H1525 H 0.92654 0.41664 0.2401 0.0
H1526 H 0.893 0.42436 0.1865 0.0
H1527 H 0.84157 0.38668 0.23783 0.0
H1528 H 0.82379 0.38207 0.2695 0.0
H1529 H 0.80341 0.43208 0.25546 0.0
H1530 H 0.8213 0.43718 0.22378 0.0
H1531 H 0.79802 0.38005 0.11754 0.0
H1532 H 0.81969 0.3804 0.14646 0.0
H1533 H 0.82377 0.444 0.16538 0.0
H1534 H 0.80263 0.44404 0.13648 0.0
H1535 H 0.81182 0.4092 0.19473 0.0
H1536 H 0.86841 0.44908 0.14465 0.0
H1537 H 0.88479 0.45146 0.11266 0.0
H1538 H 0.89367 0.39338 0.12494 0.0
H1539 H 0.877 0.39047 0.15693 0.0
C1540 C 0.90329 0.45077 0.2514 0.0
C1541 C 0.91816 0.44135 0.25293 0.0
C1542 C 0.88651 0.44366 0.23667 0.0
C1543 C 0.88369 0.4265 0.22339 0.0
C1544 C 0.89814 0.41668 0.22511 0.0
C1545 C 0.91524 0.42408 0.23964 0.0
C1546 C 0.86686 0.42004 0.20698 0.0
C1547 C 0.87509 0.42051 0.18843 0.0
C1548 C 0.8435 0.41526 0.20931 0.0
C1549 C 0.83292 0.41242 0.22845 0.0
C1550 C 0.83347 0.39683 0.24154 0.0
C1551 C 0.82333 0.39411 0.25949 0.0
C1552 C 0.81251 0.4068 0.2645 0.0
C1553 C 0.8118 0.42225 0.25156 0.0
C1554 C 0.8219 0.42504 0.2336 0.0
C1555 C 0.80332 0.39395 0.12798 0.0
C1556 C 0.79879 0.41211 0.1247 0.0
C1557 C 0.81569 0.39414 0.14444 0.0
C1558 C 0.82333 0.41226 0.15797 0.0
C1559 C 0.81796 0.42985 0.1551 0.0
C1560 C 0.80601 0.4299 0.13854 0.0
C1561 C 0.8382 0.41387 0.17458 0.0
C1562 C 0.82961 0.41258 0.19304 0.0
C1563 C 0.86108 0.41754 0.17223 0.0
C1564 C 0.8712 0.41938 0.15306 0.0
C1565 C 0.87365 0.43669 0.14045 0.0
C1566 C 0.88303 0.43816 0.12234 0.0
C1567 C 0.89019 0.42253 0.11674 0.0
C1568 C 0.88806 0.40544 0.12928 0.0
C1569 C 0.87866 0.40388 0.1474 0.0
H1570 H 0.89745 0.4237 0.10272 0.0
H1571 H 0.8046 0.40463 0.27836 0.0
loop_
_geom_bond_atom_site_label_1
_geom_bond_atom_site_label_2
_geom_bond_distance
_geom_bond_site_symmetry_2
_ccdc_geom_bond_type
H0 C19 0.949 . S
H1 C20 0.950 . S
H2 C22 0.950 . S
H3 C23 0.950 . S
H4 C25 0.950 . S
H5 C28 0.950 . S
H6 C29 0.950 . S
H7 C31 0.951 . S
H8 C32 0.949 . S
H9 C34 0.949 . S
H10 C35 0.950 . S
H11 C37 0.950 . S
H12 C38 0.950 . S
H13 C40 0.935 1_655 S
H14 C43 0.950 . S
H15 C44 0.950 . S
H16 C46 0.951 . S
H17 C47 0.949 . S
C18 C19 1.376 . S
C18 C23 1.386 . S
C18 C24 1.483 . S
C19 H0 0.949 . S
C19 C18 1.376 . S
C19 C20 1.397 . S
C20 H1 0.950 . S
C20 C19 1.397 . S
C20 C21 1.391 . S
C21 C20 1.391 . S
C21 C22 1.405 . S
C22 H2 0.950 . S
C22 C21 1.405 . S
C22 C23 1.367 . S
C23 H3 0.950 . S
C23 C18 1.386 . S
C23 C22 1.367 . S
C24 C18 1.483 . S
C24 C25 1.382 1_655 S
C24 C26 1.403 . S
C25 H4 0.950 . S
C25 C24 1.382 1_455 S
C25 C41 1.411 . S
C26 C24 1.403 . S
C26 C27 1.489 . S
C26 C40 1.411 1_655 S
C27 C26 1.489 . S
C27 C28 1.383 . S
C27 C32 1.382 . S
C28 H5 0.950 . S
C28 C27 1.383 . S
C28 C29 1.395 . S
C29 H6 0.950 . S
C29 C28 1.395 . S
C29 C30 1.288 . S
C30 C29 1.288 . S
C30 C31 1.392 . S
C31 H7 0.951 . S
C31 C30 1.392 . S
C31 C32 1.392 . S
C32 H8 0.949 . S
C32 C27 1.382 . S
C32 C31 1.392 . S
C33 C34 1.376 . S
C33 C38 1.386 . S
C33 C39 1.483 . S
C34 H9 0.949 . S
C34 C33 1.376 . S
C34 C35 1.397 . S
C35 H10 0.950 . S
C35 C34 1.397 . S
C35 C36 1.391 . S
C36 C35 1.391 . S
C36 C37 1.405 . S
C37 H11 0.950 . S
C37 C36 1.405 . S
C37 C38 1.367 . S
C38 H12 0.950 . S
C38 C33 1.386 . S
C38 C37 1.367 . S
C39 C33 1.483 . S
C39 C40 1.382 . S
C39 C41 1.403 . S
C40 H13 0.935 1_455 S
C40 C26 1.411 1_455 S
C40 C39 1.382 . S
C41 C25 1.411 . S
C41 C39 1.403 . S
C41 C42 1.489 . S
C42 C41 1.489 . S
C42 C43 1.383 . S
C42 C47 1.382 . S
C43 H14 0.950 . S
C43 C42 1.383 . S
C43 C44 1.395 . S
C44 H15 0.950 . S
C44 C43 1.395 . S
C44 C45 1.288 . S
C45 C44 1.288 . S
C45 C46 1.392 . S
C46 H16 0.951 . S
C46 C45 1.392 . S
C46 C47 1.392 . S
C47 H17 0.949 . S
C47 C42 1.382 . S
C47 C46 1.392 . S
H48 C67 0.949 . S
H49 C68 0.950 . S
H50 C70 0.950 . S
H51 C71 0.950 . S
H52 C73 0.950 . S
H53 C76 0.950 . S
H54 C77 0.950 . S
H55 C79 0.951 . S
H56 C80 0.949 . S
H57 C82 0.949 . S
H58 C83 0.950 . S
H59 C85 0.950 . S
H60 C86 0.950 . S
H61 C88 0.950 . S
H62 C91 0.950 . S
H63 C92 0.950 . S
H64 C94 0.951 . S
H65 C95 0.949 . S
C66 C67 1.376 . S
C66 C71 1.386 . S
C66 C72 1.483 . S
C67 H48 0.949 . S
C67 C66 1.376 . S
C67 C68 1.397 . S
C68 H49 0.950 . S
C68 C67 1.397 . S
C68 C69 1.391 . S
C69 C68 1.391 . S
C69 C70 1.405 . S
C70 H50 0.950 . S
C70 C69 1.405 . S
C70 C71 1.367 . S
C71 H51 0.950 . S
C71 C66 1.386 . S
C71 C70 1.367 . S
C72 C66 1.483 . S
C72 C73 1.382 . S
C72 C74 1.403 . S
C73 H52 0.950 . S
C73 C72 1.382 . S
C73 C89 1.411 1_565 S
C74 C72 1.403 . S
C74 C75 1.489 . S
C74 C88 1.411 1_565 S
C75 C74 1.489 . S
C75 C76 1.383 . S
C75 C80 1.382 . S
C76 H53 0.950 . S
C76 C75 1.383 . S
C76 C77 1.395 . S
C77 H54 0.950 . S
C77 C76 1.395 . S
C77 C78 1.288 . S
C78 C77 1.288 . S
C78 C79 1.392 . S
C79 H55 0.951 . S
C79 C78 1.392 . S
C79 C80 1.392 . S
C80 H56 0.949 . S
C80 C75 1.382 . S
C80 C79 1.392 . S
C81 C82 1.376 . S
C81 C86 1.386 . S
C81 C87 1.483 . S
C82 H57 0.949 . S
C82 C81 1.376 . S
C82 C83 1.397 . S
C83 H58 0.950 . S
C83 C82 1.397 . S
C83 C84 1.391 . S
C84 C83 1.391 . S
C84 C85 1.405 . S
C85 H59 0.950 . S
C85 C84 1.405 . S
C85 C86 1.367 . S
C86 H60 0.950 . S
C86 C81 1.386 . S
C86 C85 1.367 . S
C87 C81 1.483 . S
C87 C88 1.382 . S
C87 C89 1.403 . S
C88 H61 0.950 . S
C88 C74 1.411 1_545 S
C88 C87 1.382 . S
C89 C73 1.411 1_545 S
C89 C87 1.403 . S
C89 C90 1.489 . S
C90 C89 1.489 . S
C90 C91 1.383 . S
C90 C95 1.382 . S
C91 H62 0.950 . S
C91 C90 1.383 . S
C91 C92 1.395 . S
C92 H63 0.950 . S
C92 C91 1.395 . S
C92 C93 1.288 . S
C93 C92 1.288 . S
C93 C94 1.392 . S
C94 H64 0.951 . S
C94 C93 1.392 . S
C94 C95 1.392 . S
C95 H65 0.949 . S
C95 C90 1.382 . S
C95 C94 1.392 . S
H96 C115 0.949 . S
H97 C116 0.950 . S
H98 C118 0.950 . S
H99 C119 0.950 . S
H100 C121 0.950 . S
H101 C124 0.950 . S
H102 C125 0.950 . S
H103 C127 0.951 . S
H104 C128 0.949 . S
H105 C130 0.949 . S
H106 C131 0.950 . S
H107 C133 0.950 . S
H108 C134 0.950 . S
H109 C136 0.950 . S
H110 C139 0.950 . S
H111 C140 0.950 . S
H112 C142 0.951 . S
H113 C143 0.949 . S
C114 C115 1.376 . S
C114 C119 1.386 . S
C114 C120 1.483 . S
C115 H96 0.949 . S
C115 C114 1.376 . S
C115 C116 1.397 . S
C116 H97 0.950 . S
C116 C115 1.397 . S
C116 C117 1.391 . S
C117 C116 1.391 . S
C117 C118 1.405 . S
C118 H98 0.950 . S
C118 C117 1.405 . S
C118 C119 1.367 . S
C119 H99 0.950 . S
C119 C114 1.386 . S
C119 C118 1.367 . S
C120 C114 1.483 . S
C120 C121 1.382 . S
C120 C122 1.403 . S
C121 H100 0.950 . S
C121 C120 1.382 . S
C121 C137 1.411 . S
C122 C120 1.403 . S
C122 C123 1.489 . S
C122 C136 1.411 . S
C123 C122 1.489 . S
C123 C124 1.383 . S
C123 C128 1.382 . S
C124 H101 0.950 . S
C124 C123 1.383 . S
C124 C125 1.395 . S
C125 H102 0.950 . S
C125 C124 1.395 . S
C125 C126 1.288 . S
C126 C125 1.288 . S
C126 C127 1.392 . S
C127 H103 0.951 . S
C127 C126 1.392 . S
C127 C128 1.392 . S
C128 H104 0.949 . S
C128 C123 1.382 . S
C128 C127 1.392 . S
C129 C130 1.376 . S
C129 C134 1.386 . S
C129 C135 1.483 . S
C130 H105 0.949 . S
C130 C129 1.376 . S
C130 C131 1.397 . S
C131 H106 0.950 . S
C131 C130 1.397 . S
C131 C132 1.391 . S
C132 C131 1.391 . S
C132 C133 1.405 . S
C133 H107 0.950 . S
C133 C132 1.405 . S
C133 C134 1.367 . S
C134 H108 0.950 . S
C134 C129 1.386 . S
C134 C133 1.367 . S
C135 C129 1.483 . S
C135 C136 1.382 . S
C135 C137 1.403 . S
C136 H109 0.950 . S
C136 C122 1.411 . S
C136 C135 1.382 . S
C137 C121 1.411 . S
C137 C135 1.403 . S
C137 C138 1.489 . S
C138 C137 1.489 . S
C138 C139 1.383 . S
C138 C143 1.382 . S
C139 H110 0.950 . S
C139 C138 1.383 . S
C139 C140 1.395 . S
C140 H111 0.950 . S
C140 C139 1.395 . S
C140 C141 1.288 . S
C141 C140 1.288 . S
C141 C142 1.392 . S
C142 H112 0.951 . S
C142 C141 1.392 . S
C142 C143 1.392 . S
C143 H113 0.949 . S
C143 C138 1.382 . S
C143 C142 1.392 . S
H144 C163 0.949 . S
H145 C164 0.950 . S
H146 C166 0.950 . S
H147 C167 0.950 . S
H148 C169 0.950 . S
H149 C172 0.950 . S
H150 C173 0.950 . S
H151 C175 0.951 . S
H152 C176 0.949 . S
H153 C178 0.949 . S
H154 C179 0.950 . S
H155 C181 0.950 . S
H156 C182 0.950 . S
H157 C184 0.950 . S
H158 C187 0.950 . S
H159 C188 0.950 . S
H160 C190 0.951 . S
H161 C191 0.949 . S
C162 C163 1.376 . S
C162 C167 1.386 . S
C162 C168 1.483 . S
C163 H144 0.949 . S
C163 C162 1.376 . S
C163 C164 1.397 . S
C164 H145 0.950 . S
C164 C163 1.397 . S
C164 C165 1.391 . S
C165 C164 1.391 . S
C165 C166 1.405 . S
C166 H146 0.950 . S
C166 C165 1.405 . S
C166 C167 1.367 . S
C167 H147 0.950 . S
C167 C162 1.386 . S
C167 C166 1.367 . S
C168 C162 1.483 . S
C168 C169 1.382 . S
C168 C170 1.403 . S
C169 H148 0.950 . S
C169 C168 1.382 . S
C169 C185 1.411 1_455 S
C170 C168 1.403 . S
C170 C171 1.489 . S
C170 C184 1.411 . S
C171 C170 1.489 . S
C171 C172 1.383 . S
C171 C176 1.382 . S
C172 H149 0.950 . S
C172 C171 1.383 . S
C172 C173 1.395 . S
C173 H150 0.950 . S
C173 C172 1.395 . S
C173 C174 1.288 . S
C174 C173 1.288 . S
C174 C175 1.392 . S
C175 H151 0.951 . S
C175 C174 1.392 . S
C175 C176 1.392 . S
C176 H152 0.949 . S
C176 C171 1.382 . S
C176 C175 1.392 . S
C177 C178 1.376 . S
C177 C182 1.386 . S
C177 C183 1.483 . S
C178 H153 0.949 . S
C178 C177 1.376 . S
C178 C179 1.397 . S
C179 H154 0.950 . S
C179 C178 1.397 . S
C179 C180 1.391 . S
C180 C179 1.391 . S
C180 C181 1.405 . S
C181 H155 0.950 . S
C181 C180 1.405 . S
C181 C182 1.367 . S
C182 H156 0.950 . S
C182 C177 1.386 . S
C182 C181 1.367 . S
C183 C177 1.483 . S
C183 C184 1.382 1_655 S
C183 C185 1.403 . S
C184 H157 0.950 . S
C184 C170 1.411 . S
C184 C183 1.382 1_455 S
C185 C169 1.411 1_655 S
C185 C183 1.403 . S
C185 C186 1.489 . S
C186 C185 1.489 . S
C186 C187 1.383 . S
C186 C191 1.382 . S
C187 H158 0.950 . S
C187 C186 1.383 . S
C187 C188 1.395 . S
C188 H159 0.950 . S
C188 C187 1.395 . S
C188 C189 1.288 . S
C189 C188 1.288 . S
C189 C190 1.392 . S
C190 H160 0.951 . S
C190 C189 1.392 . S
C190 C191 1.392 . S
C191 H161 0.949 . S
C191 C186 1.382 . S
C191 C190 1.392 . S
H192 C211 0.949 . S
H193 C212 0.950 . S
H194 C214 0.949 . S
H195 C215 0.950 . S
H196 C217 0.950 . S
H197 C220 0.950 . S
H198 C221 0.950 . S
H199 C223 0.951 . S
H200 C224 0.949 . S
H201 C226 0.949 . S
H202 C227 0.950 . S
H203 C229 0.950 . S
H204 C230 0.950 . S
H205 C232 0.951 . S
H206 C235 0.950 . S
H207 C236 0.950 . S
H208 C238 0.951 . S
H209 C239 0.949 . S
C210 C211 1.395 . S
C210 C215 1.378 1_554 S
C210 C216 1.474 1_554 S
C211 H192 0.949 . S
C211 C210 1.395 . S
C211 C212 1.397 . S
C212 H193 0.950 . S
C212 C211 1.397 . S
C212 C213 1.391 . S
C213 C212 1.391 . S
C213 C214 1.405 . S
C214 H194 0.949 . S
C214 C213 1.405 . S
C214 C215 1.367 1_554 S
C215 H195 0.950 . S
C215 C210 1.378 1_556 S
C215 C214 1.367 1_556 S
C216 C210 1.474 1_556 S
C216 C217 1.382 1_556 S
C216 C218 1.403 . S
C217 H196 0.950 . S
C217 C216 1.382 1_554 S
C217 C233 1.411 1_545 S
C218 C216 1.403 . S
C218 C219 1.489 . S
C218 C232 1.407 1_545 S
C219 C218 1.489 . S
C219 C220 1.383 . S
C219 C224 1.382 . S
C220 H197 0.950 . S
C220 C219 1.383 . S
C220 C221 1.395 . S
C221 H198 0.950 . S
C221 C220 1.395 . S
C221 C222 1.288 . S
C222 C221 1.288 . S
C222 C223 1.392 . S
C223 H199 0.951 . S
C223 C222 1.392 . S
C223 C224 1.392 . S
C224 H200 0.949 . S
C224 C219 1.382 . S
C224 C223 1.392 . S
C225 C226 1.376 . S
C225 C230 1.386 . S
C225 C231 1.483 . S
C226 H201 0.949 . S
C226 C225 1.376 . S
C226 C227 1.397 . S
C227 H202 0.950 . S
C227 C226 1.397 . S
C227 C228 1.391 . S
C228 C227 1.391 . S
C228 C229 1.405 . S
C229 H203 0.950 . S
C229 C228 1.405 . S
C229 C230 1.367 . S
C230 H204 0.950 . S
C230 C225 1.386 . S
C230 C229 1.367 . S
C231 C225 1.483 . S
C231 C232 1.385 . S
C231 C233 1.403 1_556 S
C232 H205 0.951 . S
C232 C218 1.407 1_565 S
C232 C231 1.385 . S
C233 C217 1.411 1_565 S
C233 C231 1.403 1_554 S
C233 C234 1.489 . S
C234 C233 1.489 . S
C234 C235 1.383 . S
C234 C239 1.382 . S
C235 H206 0.950 . S
C235 C234 1.383 . S
C235 C236 1.395 . S
C236 H207 0.950 . S
C236 C235 1.395 . S
C236 C237 1.288 . S
C237 C236 1.288 . S
C237 C238 1.392 . S
C238 H208 0.951 . S
C238 C237 1.392 . S
C238 C239 1.392 . S
C239 H209 0.949 . S
C239 C234 1.382 . S
C239 C238 1.392 . S
H240 C259 0.949 . S
H241 C260 0.950 . S
H242 C262 0.950 . S
H243 C263 0.950 . S
H244 C265 0.950 . S
H245 C268 0.950 . S
H246 C269 0.950 . S
H247 C271 0.951 . S
H248 C272 0.949 . S
H249 C274 0.949 . S
H250 C275 0.950 . S
H251 C277 0.950 . S
H252 C278 0.950 . S
H253 C280 0.950 . S
H254 C283 0.950 . S
H255 C284 0.950 . S
H256 C286 0.951 . S
H257 C287 0.949 . S
C258 C259 1.376 . S
C258 C263 1.386 . S
C258 C264 1.483 . S
C259 H240 0.949 . S
C259 C258 1.376 . S
C259 C260 1.397 . S
C260 H241 0.950 . S
C260 C259 1.397 . S
C260 C261 1.391 . S
C261 C260 1.391 . S
C261 C262 1.405 . S
C262 H242 0.950 . S
C262 C261 1.405 . S
C262 C263 1.367 . S
C263 H243 0.950 . S
C263 C258 1.386 . S
C263 C262 1.367 . S
C264 C258 1.483 . S
C264 C265 1.382 . S
C264 C266 1.403 . S
C265 H244 0.950 . S
C265 C264 1.382 . S
C265 C281 1.411 . S
C266 C264 1.403 . S
C266 C267 1.489 . S
C266 C280 1.411 . S
C267 C266 1.489 . S
C267 C268 1.383 . S
C267 C272 1.382 . S
C268 H245 0.950 . S
C268 C267 1.383 . S
C268 C269 1.395 . S
C269 H246 0.950 . S
C269 C268 1.395 . S
C269 C270 1.288 . S
C270 C269 1.288 . S
C270 C271 1.392 . S
C271 H247 0.951 . S
C271 C270 1.392 . S
C271 C272 1.392 . S
C272 H248 0.949 . S
C272 C267 1.382 . S
C272 C271 1.392 . S
C273 C274 1.376 . S
C273 C278 1.386 . S
C273 C279 1.483 . S
C274 H249 0.949 . S
C274 C273 1.376 . S
C274 C275 1.397 . S
C275 H250 0.950 . S
C275 C274 1.397 . S
C275 C276 1.391 . S
C276 C275 1.391 . S
C276 C277 1.405 . S
C277 H251 0.950 . S
C277 C276 1.405 . S
C277 C278 1.367 . S
C278 H252 0.950 . S
C278 C273 1.386 . S
C278 C277 1.367 . S
C279 C273 1.483 . S
C279 C280 1.382 . S
C279 C281 1.403 . S
C280 H253 0.950 . S
C280 C266 1.411 . S
C280 C279 1.382 . S
C281 C265 1.411 . S
C281 C279 1.403 . S
C281 C282 1.489 . S
C282 C281 1.489 . S
C282 C283 1.383 . S
C282 C287 1.382 . S
C283 H254 0.950 . S
C283 C282 1.383 . S
C283 C284 1.395 . S
C284 H255 0.950 . S
C284 C283 1.395 . S
C284 C285 1.288 . S
C285 C284 1.288 . S
C285 C286 1.392 . S
C286 H256 0.951 . S
C286 C285 1.392 . S
C286 C287 1.392 . S
C287 H257 0.949 . S
C287 C282 1.382 . S
C287 C286 1.392 . S
Zn288 O291 2.031 . S
Zn288 O293 2.049 . S
Zn288 O298 2.067 . S
Zn289 O290 1.962 . S
Zn289 O292 1.986 . S
Zn289 O294 1.996 . S
Zn289 O297 1.943 . S
O290 Zn289 1.962 . S
O290 C295 1.254 . S
O291 Zn288 2.031 . S
O291 C295 1.269 . S
O292 Zn289 1.986 . S
O292 C299 1.262 . S
O293 Zn288 2.049 . S
O293 C301 1.260 . S
O294 Zn289 1.996 . S
O294 C301 1.257 . S
C295 O290 1.254 . S
C295 O291 1.269 . S
C296 O297 1.249 . S
C296 O298 1.270 . S
O297 Zn289 1.943 . S
O297 C296 1.249 . S
O298 Zn288 2.067 . S
O298 C296 1.270 . S
C299 O292 1.262 . S
C299 O300 1.232 . S
O300 C299 1.232 . S
C301 O293 1.260 . S
C301 O294 1.257 . S
Zn302 O305 2.031 . S
Zn302 O307 2.049 . S
Zn302 O312 2.067 . S
Zn303 O304 1.962 . S
Zn303 O306 1.986 . S
Zn303 O308 1.996 . S
Zn303 O311 1.943 . S
O304 Zn303 1.962 . S
O304 C309 1.254 . S
O305 Zn302 2.031 . S
O305 C309 1.269 . S
O306 Zn303 1.986 . S
O306 C313 1.262 . S
O307 Zn302 2.049 . S
O307 C315 1.260 . S
O308 Zn303 1.996 . S
O308 C315 1.257 . S
C309 O304 1.254 . S
C309 O305 1.269 . S
C310 O311 1.249 . S
C310 O312 1.270 . S
O311 Zn303 1.943 . S
O311 C310 1.249 . S
O312 Zn302 2.067 . S
O312 C310 1.270 . S
C313 O306 1.262 . S
C313 O314 1.232 . S
O314 C313 1.232 . S
C315 O307 1.260 . S
C315 O308 1.257 . S
Zn316 O319 2.031 . S
Zn316 O321 2.049 . S
Zn316 O326 2.067 . S
Zn317 O318 1.962 . S
Zn317 O320 1.986 . S
Zn317 O322 1.996 . S
Zn317 O325 1.943 . S
O318 Zn317 1.962 . S
O318 C323 1.254 . S
O319 Zn316 2.031 . S
O319 C323 1.269 . S
O320 Zn317 1.986 . S
O320 C327 1.262 . S
O321 Zn316 2.049 . S
O321 C329 1.260 . S
O322 Zn317 1.996 . S
O322 C329 1.257 . S
C323 O318 1.254 . S
C323 O319 1.269 . S
C324 O325 1.249 . S
C324 O326 1.270 . S
O325 Zn317 1.943 . S
O325 C324 1.249 . S
O326 Zn316 2.067 . S
O326 C324 1.270 . S
C327 O320 1.262 . S
C327 O328 1.232 . S
O328 C327 1.232 . S
C329 O321 1.260 . S
C329 O322 1.257 . S
Zn330 O333 2.031 . S
Zn330 O335 2.049 . S
Zn330 O340 2.067 . S
Zn331 O332 1.962 . S
Zn331 O334 1.986 . S
Zn331 O336 1.996 . S
Zn331 O339 1.943 . S
O332 Zn331 1.962 . S
O332 C337 1.254 . S
O333 Zn330 2.031 . S
O333 C337 1.269 . S
O334 Zn331 1.986 . S
O334 C341 1.262 . S
O335 Zn330 2.049 . S
O335 C343 1.260 . S
O336 Zn331 1.996 . S
O336 C343 1.257 . S
C337 O332 1.254 . S
C337 O333 1.269 . S
C338 O339 1.249 . S
C338 O340 1.270 . S
O339 Zn331 1.943 . S
O339 C338 1.249 . S
O340 Zn330 2.067 . S
O340 C338 1.270 . S
C341 O334 1.262 . S
C341 O342 1.232 . S
O342 C341 1.232 . S
C343 O335 1.260 . S
C343 O336 1.257 . S
Zn344 O347 2.031 . S
Zn344 O349 2.049 . S
Zn344 O354 2.067 . S
Zn345 O346 1.962 . S
Zn345 O348 1.986 . S
Zn345 O350 1.996 . S
Zn345 O353 1.943 . S
O346 Zn345 1.962 . S
O346 C351 1.254 . S
O347 Zn344 2.031 . S
O347 C351 1.269 . S
O348 Zn345 1.986 . S
O348 C355 1.262 . S
O349 Zn344 2.049 . S
O349 C357 1.260 . S
O350 Zn345 1.996 . S
O350 C357 1.257 . S
C351 O346 1.254 . S
C351 O347 1.269 . S
C352 O353 1.249 . S
C352 O354 1.270 . S
O353 Zn345 1.943 . S
O353 C352 1.249 . S
O354 Zn344 2.067 . S
O354 C352 1.270 . S
C355 O348 1.262 . S
C355 O356 1.232 . S
O356 C355 1.232 . S
C357 O349 1.260 . S
C357 O350 1.257 . S
Zn358 O361 2.031 . S
Zn358 O363 2.049 . S
Zn358 O368 2.067 . S
Zn359 O360 1.962 . S
Zn359 O362 1.986 . S
Zn359 O364 1.996 . S
Zn359 O367 1.943 . S
O360 Zn359 1.962 . S
O360 C365 1.254 . S
O361 Zn358 2.031 . S
O361 C365 1.269 . S
O362 Zn359 1.986 . S
O362 C369 1.262 . S
O363 Zn358 2.049 . S
O363 C371 1.260 . S
O364 Zn359 1.996 . S
O364 C371 1.257 . S
C365 O360 1.254 . S
C365 O361 1.269 . S
C366 O367 1.249 . S
C366 O368 1.270 . S
O367 Zn359 1.943 . S
O367 C366 1.249 . S
O368 Zn358 2.067 . S
O368 C366 1.270 . S
C369 O362 1.262 . S
C369 O370 1.232 . S
O370 C369 1.232 . S
C371 O363 1.260 . S
C371 O364 1.257 . S
H372 C390 0.951 . S
H373 C392 0.951 . S
H374 C394 0.950 . S
H375 C395 0.950 . S
H376 C397 0.950 . S
H377 C400 0.950 . S
H378 C401 0.950 . S
H379 C403 0.950 . S
H380 C404 0.950 . S
H381 C405 0.951 . S
H382 C407 0.951 . S
H383 C409 0.950 . S
H384 C410 0.950 . S
H385 C412 0.950 . S
H386 C415 0.950 . S
H387 C416 0.950 . S
H388 C418 0.950 . S
H389 C419 0.950 . S
C390 H372 0.951 . S
C390 C391 1.366 . S
C390 C392 1.388 . S
C391 C390 1.366 . S
C391 C395 1.385 . S
C392 H373 0.951 . S
C392 C390 1.388 . S
C392 C393 1.366 . S
C393 C392 1.366 . S
C393 C394 1.414 . S
C393 C396 1.499 . S
C394 H374 0.950 . S
C394 C393 1.414 . S
C394 C395 1.374 . S
C395 H375 0.950 . S
C395 C391 1.385 . S
C395 C394 1.374 . S
C396 C393 1.499 . S
C396 C397 1.373 . S
C396 C398 1.389 . S
C397 H376 0.950 . S
C397 C396 1.373 . S
C397 C413 1.377 . S
C398 C396 1.389 . S
C398 C399 1.524 . S
C398 C412 1.377 . S
C399 C398 1.524 . S
C399 C400 1.397 . S
C399 C404 1.363 . S
C400 H377 0.950 . S
C400 C399 1.397 . S
C400 C401 1.334 . S
C401 H378 0.950 . S
C401 C400 1.334 . S
C401 C402 1.287 . S
C402 C401 1.287 . S
C402 C403 1.524 . S
C402 H421 0.913 . S
C403 H379 0.950 . S
C403 C402 1.524 . S
C403 C404 1.415 . S
C404 H380 0.950 . S
C404 C399 1.363 . S
C404 C403 1.415 . S
C405 H381 0.951 . S
C405 C406 1.366 . S
C405 C407 1.388 . S
C406 C405 1.366 . S
C406 C410 1.385 . S
C407 H382 0.951 . S
C407 C405 1.388 . S
C407 C408 1.366 . S
C408 C407 1.366 . S
C408 C409 1.414 . S
C408 C411 1.499 . S
C409 H383 0.950 . S
C409 C408 1.414 . S
C409 C410 1.374 . S
C410 H384 0.950 . S
C410 C406 1.385 . S
C410 C409 1.374 . S
C411 C408 1.499 . S
C411 C412 1.373 . S
C411 C413 1.389 . S
C412 H385 0.950 . S
C412 C398 1.377 . S
C412 C411 1.373 . S
C413 C397 1.377 . S
C413 C411 1.389 . S
C413 C414 1.524 . S
C414 C413 1.524 . S
C414 C415 1.397 . S
C414 C419 1.363 . S
C415 H386 0.950 . S
C415 C414 1.397 . S
C415 C416 1.334 . S
C416 H387 0.950 . S
C416 C415 1.334 . S
C416 C417 1.287 . S
C417 C416 1.287 . S
C417 C418 1.524 . S
C417 H420 0.999 . S
C418 H388 0.950 . S
C418 C417 1.524 . S
C418 C419 1.415 . S
C419 H389 0.950 . S
C419 C414 1.363 . S
C419 C418 1.415 . S
H420 C417 0.999 . S
H421 C402 0.913 . S
H422 C440 0.951 . S
H423 C442 0.951 . S
H424 C444 0.950 . S
H425 C445 0.950 . S
H426 C447 0.950 . S
H427 C450 0.950 . S
H428 C451 0.950 . S
H429 C453 0.950 . S
H430 C454 0.950 . S
H431 C455 0.951 . S
H432 C457 0.951 . S
H433 C459 0.950 . S
H434 C460 0.950 . S
H435 C462 0.950 . S
H436 C465 0.950 . S
H437 C466 0.950 . S
H438 C468 0.950 . S
H439 C469 0.950 . S
C440 H422 0.951 . S
C440 C441 1.366 . S
C440 C442 1.388 . S
C441 C440 1.366 . S
C441 C445 1.385 . S
C442 H423 0.951 . S
C442 C440 1.388 . S
C442 C443 1.366 . S
C443 C442 1.366 . S
C443 C444 1.414 . S
C443 C446 1.499 . S
C444 H424 0.950 . S
C444 C443 1.414 . S
C444 C445 1.374 . S
C445 H425 0.950 . S
C445 C441 1.385 . S
C445 C444 1.374 . S
C446 C443 1.499 . S
C446 C447 1.373 . S
C446 C448 1.389 . S
C447 H426 0.950 . S
C447 C446 1.373 . S
C447 C463 1.377 . S
C448 C446 1.389 . S
C448 C449 1.524 . S
C448 C462 1.377 . S
C449 C448 1.524 . S
C449 C450 1.397 . S
C449 C454 1.363 . S
C450 H427 0.950 . S
C450 C449 1.397 . S
C450 C451 1.334 . S
C451 H428 0.950 . S
C451 C450 1.334 . S
C451 C452 1.287 . S
C452 C451 1.287 . S
C452 C453 1.524 . S
C452 H471 0.913 . S
C453 H429 0.950 . S
C453 C452 1.524 . S
C453 C454 1.415 . S
C454 H430 0.950 . S
C454 C449 1.363 . S
C454 C453 1.415 . S
C455 H431 0.951 . S
C455 C456 1.366 . S
C455 C457 1.388 . S
C456 C455 1.366 . S
C456 C460 1.385 . S
C457 H432 0.951 . S
C457 C455 1.388 . S
C457 C458 1.366 . S
C458 C457 1.366 . S
C458 C459 1.414 . S
C458 C461 1.499 . S
C459 H433 0.950 . S
C459 C458 1.414 . S
C459 C460 1.374 . S
C460 H434 0.950 . S
C460 C456 1.385 . S
C460 C459 1.374 . S
C461 C458 1.499 . S
C461 C462 1.373 . S
C461 C463 1.389 . S
C462 H435 0.950 . S
C462 C448 1.377 . S
C462 C461 1.373 . S
C463 C447 1.377 . S
C463 C461 1.389 . S
C463 C464 1.524 . S
C464 C463 1.524 . S
C464 C465 1.397 . S
C464 C469 1.363 . S
C465 H436 0.950 . S
C465 C464 1.397 . S
C465 C466 1.334 . S
C466 H437 0.950 . S
C466 C465 1.334 . S
C466 C467 1.287 . S
C467 C466 1.287 . S
C467 C468 1.524 . S
C467 H470 0.999 . S
C468 H438 0.950 . S
C468 C467 1.524 . S
C468 C469 1.415 . S
C469 H439 0.950 . S
C469 C464 1.363 . S
C469 C468 1.415 . S
H470 C467 0.999 . S
H471 C452 0.913 . S
H472 C490 0.951 . S
H473 C492 0.951 . S
H474 C494 0.950 . S
H475 C495 0.950 . S
H476 C497 0.950 . S
H477 C500 0.950 . S
H478 C501 0.950 . S
H479 C503 0.950 . S
H480 C504 0.950 . S
H481 C505 0.951 . S
H482 C507 0.951 . S
H483 C509 0.950 . S
H484 C510 0.950 . S
H485 C512 0.950 . S
H486 C515 0.950 . S
H487 C516 0.950 . S
H488 C518 0.950 . S
H489 C519 0.950 . S
C490 H472 0.951 . S
C490 C491 1.366 . S
C490 C492 1.388 . S
C491 C490 1.366 . S
C491 C495 1.385 . S
C492 H473 0.951 . S
C492 C490 1.388 . S
C492 C493 1.366 . S
C493 C492 1.366 . S
C493 C494 1.414 . S
C493 C496 1.499 . S
C494 H474 0.950 . S
C494 C493 1.414 . S
C494 C495 1.374 . S
C495 H475 0.950 . S
C495 C491 1.385 . S
C495 C494 1.374 . S
C496 C493 1.499 . S
C496 C497 1.373 . S
C496 C498 1.389 . S
C497 H476 0.950 . S
C497 C496 1.373 . S
C497 C513 1.377 . S
C498 C496 1.389 . S
C498 C499 1.524 . S
C498 C512 1.377 . S
C499 C498 1.524 . S
C499 C500 1.397 . S
C499 C504 1.363 . S
C500 H477 0.950 . S
C500 C499 1.397 . S
C500 C501 1.334 . S
C501 H478 0.950 . S
C501 C500 1.334 . S
C501 C502 1.287 . S
C502 C501 1.287 . S
C502 C503 1.524 . S
C502 H521 0.913 . S
C503 H479 0.950 . S
C503 C502 1.524 . S
C503 C504 1.415 . S
C504 H480 0.950 . S
C504 C499 1.363 . S
C504 C503 1.415 . S
C505 H481 0.951 . S
C505 C506 1.366 . S
C505 C507 1.388 . S
C506 C505 1.366 . S
C506 C510 1.385 . S
C507 H482 0.951 . S
C507 C505 1.388 . S
C507 C508 1.366 . S
C508 C507 1.366 . S
C508 C509 1.414 . S
C508 C511 1.499 . S
C509 H483 0.950 . S
C509 C508 1.414 . S
C509 C510 1.374 . S
C510 H484 0.950 . S
C510 C506 1.385 . S
C510 C509 1.374 . S
C511 C508 1.499 . S
C511 C512 1.373 . S
C511 C513 1.389 . S
C512 H485 0.950 . S
C512 C498 1.377 . S
C512 C511 1.373 . S
C513 C497 1.377 . S
C513 C511 1.389 . S
C513 C514 1.524 . S
C514 C513 1.524 . S
C514 C515 1.397 . S
C514 C519 1.363 . S
C515 H486 0.950 . S
C515 C514 1.397 . S
C515 C516 1.334 . S
C516 H487 0.950 . S
C516 C515 1.334 . S
C516 C517 1.287 . S
C517 C516 1.287 . S
C517 C518 1.524 . S
C517 H520 0.999 . S
C518 H488 0.950 . S
C518 C517 1.524 . S
C518 C519 1.415 . S
C519 H489 0.950 . S
C519 C514 1.363 . S
C519 C518 1.415 . S
H520 C517 0.999 . S
H521 C502 0.913 . S
H522 C540 0.951 . S
H523 C542 0.951 . S
H524 C544 0.950 . S
H525 C545 0.950 . S
H526 C547 0.950 . S
H527 C550 0.950 . S
H528 C551 0.950 . S
H529 C553 0.950 . S
H530 C554 0.950 . S
H531 C555 0.951 . S
H532 C557 0.951 . S
H533 C559 0.950 . S
H534 C560 0.950 . S
H535 C562 0.950 . S
H536 C565 0.950 . S
H537 C566 0.950 . S
H538 C568 0.950 . S
H539 C569 0.950 . S
C540 H522 0.951 . S
C540 C541 1.366 . S
C540 C542 1.388 . S
C541 C540 1.366 . S
C541 C545 1.385 . S
C542 H523 0.951 . S
C542 C540 1.388 . S
C542 C543 1.366 . S
C543 C542 1.366 . S
C543 C544 1.414 . S
C543 C546 1.499 . S
C544 H524 0.950 . S
C544 C543 1.414 . S
C544 C545 1.374 . S
C545 H525 0.950 . S
C545 C541 1.385 . S
C545 C544 1.374 . S
C546 C543 1.499 . S
C546 C547 1.373 . S
C546 C548 1.389 . S
C547 H526 0.950 . S
C547 C546 1.373 . S
C547 C563 1.377 . S
C548 C546 1.389 . S
C548 C549 1.524 . S
C548 C562 1.377 . S
C549 C548 1.524 . S
C549 C550 1.397 . S
C549 C554 1.363 . S
C550 H527 0.950 . S
C550 C549 1.397 . S
C550 C551 1.334 . S
C551 H528 0.950 . S
C551 C550 1.334 . S
C551 C552 1.287 . S
C552 C551 1.287 . S
C552 C553 1.524 . S
C552 H571 0.913 . S
C553 H529 0.950 . S
C553 C552 1.524 . S
C553 C554 1.415 . S
C554 H530 0.950 . S
C554 C549 1.363 . S
C554 C553 1.415 . S
C555 H531 0.951 . S
C555 C556 1.366 . S
C555 C557 1.388 . S
C556 C555 1.366 . S
C556 C560 1.385 . S
C557 H532 0.951 . S
C557 C555 1.388 . S
C557 C558 1.366 . S
C558 C557 1.366 . S
C558 C559 1.414 . S
C558 C561 1.499 . S
C559 H533 0.950 . S
C559 C558 1.414 . S
C559 C560 1.374 . S
C560 H534 0.950 . S
C560 C556 1.385 . S
C560 C559 1.374 . S
C561 C558 1.499 . S
C561 C562 1.373 . S
C561 C563 1.389 . S
C562 H535 0.950 . S
C562 C548 1.377 . S
C562 C561 1.373 . S
C563 C547 1.377 . S
C563 C561 1.389 . S
C563 C564 1.524 . S
C564 C563 1.524 . S
C564 C565 1.397 . S
C564 C569 1.363 . S
C565 H536 0.950 . S
C565 C564 1.397 . S
C565 C566 1.334 . S
C566 H537 0.950 . S
C566 C565 1.334 . S
C566 C567 1.287 . S
C567 C566 1.287 . S
C567 C568 1.524 . S
C567 H570 0.999 . S
C568 H538 0.950 . S
C568 C567 1.524 . S
C568 C569 1.415 . S
C569 H539 0.950 . S
C569 C564 1.363 . S
C569 C568 1.415 . S
H570 C567 0.999 . S
H571 C552 0.913 . S
H572 C590 0.951 . S
H573 C592 0.951 . S
H574 C594 0.950 . S
H575 C595 0.950 . S
H576 C597 0.950 . S
H577 C600 0.950 . S
H578 C601 0.950 . S
H579 C603 0.950 . S
H580 C604 0.950 . S
H581 C605 0.951 . S
H582 C607 0.951 . S
H583 C609 0.950 . S
H584 C610 0.950 . S
H585 C612 0.950 . S
H586 C615 0.950 . S
H587 C616 0.950 . S
H588 C618 0.950 . S
H589 C619 0.950 . S
C590 H572 0.951 . S
C590 C591 1.366 . S
C590 C592 1.388 . S
C591 C590 1.366 . S
C591 C595 1.385 . S
C592 H573 0.951 . S
C592 C590 1.388 . S
C592 C593 1.366 . S
C593 C592 1.366 . S
C593 C594 1.414 . S
C593 C596 1.499 . S
C594 H574 0.950 . S
C594 C593 1.414 . S
C594 C595 1.374 . S
C595 H575 0.950 . S
C595 C591 1.385 . S
C595 C594 1.374 . S
C596 C593 1.499 . S
C596 C597 1.373 . S
C596 C598 1.389 . S
C597 H576 0.950 . S
C597 C596 1.373 . S
C597 C613 1.377 . S
C598 C596 1.389 . S
C598 C599 1.524 . S
C598 C612 1.377 . S
C599 C598 1.524 . S
C599 C600 1.397 . S
C599 C604 1.363 . S
C600 H577 0.950 . S
C600 C599 1.397 . S
C600 C601 1.334 . S
C601 H578 0.950 . S
C601 C600 1.334 . S
C601 C602 1.287 . S
C602 C601 1.287 . S
C602 C603 1.524 . S
C602 H621 0.913 . S
C603 H579 0.950 . S
C603 C602 1.524 . S
C603 C604 1.415 . S
C604 H580 0.950 . S
C604 C599 1.363 . S
C604 C603 1.415 . S
C605 H581 0.951 . S
C605 C606 1.366 . S
C605 C607 1.388 . S
C606 C605 1.366 . S
C606 C610 1.385 . S
C607 H582 0.951 . S
C607 C605 1.388 . S
C607 C608 1.366 . S
C608 C607 1.366 . S
C608 C609 1.414 . S
C608 C611 1.499 . S
C609 H583 0.950 . S
C609 C608 1.414 . S
C609 C610 1.374 . S
C610 H584 0.950 . S
C610 C606 1.385 . S
C610 C609 1.374 . S
C611 C608 1.499 . S
C611 C612 1.373 . S
C611 C613 1.389 . S
C612 H585 0.950 . S
C612 C598 1.377 . S
C612 C611 1.373 . S
C613 C597 1.377 . S
C613 C611 1.389 . S
C613 C614 1.524 . S
C614 C613 1.524 . S
C614 C615 1.397 . S
C614 C619 1.363 . S
C615 H586 0.950 . S
C615 C614 1.397 . S
C615 C616 1.334 . S
C616 H587 0.950 . S
C616 C615 1.334 . S
C616 C617 1.287 . S
C617 C616 1.287 . S
C617 C618 1.524 . S
C617 H620 0.999 . S
C618 H588 0.950 . S
C618 C617 1.524 . S
C618 C619 1.415 . S
C619 H589 0.950 . S
C619 C614 1.363 . S
C619 C618 1.415 . S
H620 C617 0.999 . S
H621 C602 0.913 . S
H622 C640 0.951 . S
H623 C642 0.951 . S
H624 C644 0.950 . S
H625 C645 0.950 . S
H626 C647 0.950 . S
H627 C650 0.950 . S
H628 C651 0.950 . S
H629 C653 0.950 . S
H630 C654 0.950 . S
H631 C655 0.951 . S
H632 C657 0.951 . S
H633 C659 0.950 . S
H634 C660 0.950 . S
H635 C662 0.950 . S
H636 C665 0.950 . S
H637 C666 0.950 . S
H638 C668 0.950 . S
H639 C669 0.950 . S
C640 H622 0.951 . S
C640 C641 1.366 . S
C640 C642 1.388 . S
C641 C640 1.366 . S
C641 C645 1.385 . S
C642 H623 0.951 . S
C642 C640 1.388 . S
C642 C643 1.366 . S
C643 C642 1.366 . S
C643 C644 1.414 . S
C643 C646 1.499 . S
C644 H624 0.950 . S
C644 C643 1.414 . S
C644 C645 1.374 . S
C645 H625 0.950 . S
C645 C641 1.385 . S
C645 C644 1.374 . S
C646 C643 1.499 . S
C646 C647 1.373 . S
C646 C648 1.389 . S
C647 H626 0.950 . S
C647 C646 1.373 . S
C647 C663 1.377 . S
C648 C646 1.389 . S
C648 C649 1.524 . S
C648 C662 1.377 . S
C649 C648 1.524 . S
C649 C650 1.397 . S
C649 C654 1.363 . S
C650 H627 0.950 . S
C650 C649 1.397 . S
C650 C651 1.334 . S
C651 H628 0.950 . S
C651 C650 1.334 . S
C651 C652 1.287 . S
C652 C651 1.287 . S
C652 C653 1.524 . S
C652 H671 0.913 . S
C653 H629 0.950 . S
C653 C652 1.524 . S
C653 C654 1.415 . S
C654 H630 0.950 . S
C654 C649 1.363 . S
C654 C653 1.415 . S
C655 H631 0.951 . S
C655 C656 1.366 . S
C655 C657 1.388 . S
C656 C655 1.366 . S
C656 C660 1.385 . S
C657 H632 0.951 . S
C657 C655 1.388 . S
C657 C658 1.366 . S
C658 C657 1.366 . S
C658 C659 1.414 . S
C658 C661 1.499 . S
C659 H633 0.950 . S
C659 C658 1.414 . S
C659 C660 1.374 . S
C660 H634 0.950 . S
C660 C656 1.385 . S
C660 C659 1.374 . S
C661 C658 1.499 . S
C661 C662 1.373 . S
C661 C663 1.389 . S
C662 H635 0.950 . S
C662 C648 1.377 . S
C662 C661 1.373 . S
C663 C647 1.377 . S
C663 C661 1.389 . S
C663 C664 1.524 . S
C664 C663 1.524 . S
C664 C665 1.397 . S
C664 C669 1.363 . S
C665 H636 0.950 . S
C665 C664 1.397 . S
C665 C666 1.334 . S
C666 H637 0.950 . S
C666 C665 1.334 . S
C666 C667 1.287 . S
C667 C666 1.287 . S
C667 C668 1.524 . S
C667 H670 0.999 . S
C668 H638 0.950 . S
C668 C667 1.524 . S
C668 C669 1.415 . S
C669 H639 0.950 . S
C669 C664 1.363 . S
C669 C668 1.415 . S
H670 C667 0.999 . S
H671 C652 0.913 . S
H672 C690 0.951 . S
H673 C692 0.951 . S
H674 C694 0.950 . S
H675 C695 0.950 . S
H676 C697 0.950 . S
H677 C700 0.950 . S
H678 C701 0.950 . S
H679 C703 0.950 . S
H680 C704 0.950 . S
H681 C705 0.951 . S
H682 C707 0.951 . S
H683 C709 0.950 . S
H684 C710 0.950 . S
H685 C712 0.950 . S
H686 C715 0.950 . S
H687 C716 0.950 . S
H688 C718 0.950 . S
H689 C719 0.950 . S
C690 H672 0.951 . S
C690 C691 1.366 . S
C690 C692 1.388 . S
C691 C690 1.366 . S
C691 C695 1.385 . S
C692 H673 0.951 . S
C692 C690 1.388 . S
C692 C693 1.366 . S
C693 C692 1.366 . S
C693 C694 1.414 . S
C693 C696 1.499 . S
C694 H674 0.950 . S
C694 C693 1.414 . S
C694 C695 1.374 . S
C695 H675 0.950 . S
C695 C691 1.385 . S
C695 C694 1.374 . S
C696 C693 1.499 . S
C696 C697 1.373 . S
C696 C698 1.389 . S
C697 H676 0.950 . S
C697 C696 1.373 . S
C697 C713 1.377 . S
C698 C696 1.389 . S
C698 C699 1.524 . S
C698 C712 1.377 . S
C699 C698 1.524 . S
C699 C700 1.397 . S
C699 C704 1.363 . S
C700 H677 0.950 . S
C700 C699 1.397 . S
C700 C701 1.334 . S
C701 H678 0.950 . S
C701 C700 1.334 . S
C701 C702 1.287 . S
C702 C701 1.287 . S
C702 C703 1.524 . S
C702 H721 0.913 . S
C703 H679 0.950 . S
C703 C702 1.524 . S
C703 C704 1.415 . S
C704 H680 0.950 . S
C704 C699 1.363 . S
C704 C703 1.415 . S
C705 H681 0.951 . S
C705 C706 1.366 . S
C705 C707 1.388 . S
C706 C705 1.366 . S
C706 C710 1.385 . S
C707 H682 0.951 . S
C707 C705 1.388 . S
C707 C708 1.366 . S
C708 C707 1.366 . S
C708 C709 1.414 . S
C708 C711 1.499 . S
C709 H683 0.950 . S
C709 C708 1.414 . S
C709 C710 1.374 . S
C710 H684 0.950 . S
C710 C706 1.385 . S
C710 C709 1.374 . S
C711 C708 1.499 . S
C711 C712 1.373 . S
C711 C713 1.389 . S
C712 H685 0.950 . S
C712 C698 1.377 . S
C712 C711 1.373 . S
C713 C697 1.377 . S
C713 C711 1.389 . S
C713 C714 1.524 . S
C714 C713 1.524 . S
C714 C715 1.397 . S
C714 C719 1.363 . S
C715 H686 0.950 . S
C715 C714 1.397 . S
C715 C716 1.334 . S
C716 H687 0.950 . S
C716 C715 1.334 . S
C716 C717 1.287 . S
C717 C716 1.287 . S
C717 C718 1.524 . S
C717 H720 0.999 . S
C718 H688 0.950 . S
C718 C717 1.524 . S
C718 C719 1.415 . S
C719 H689 0.950 . S
C719 C714 1.363 . S
C719 C718 1.415 . S
H720 C717 0.999 . S
H721 C702 0.913 . S
H722 C740 0.951 . S
H723 C742 0.951 . S
H724 C744 0.950 . S
H725 C745 0.950 . S
H726 C747 0.950 . S
H727 C750 0.950 . S
H728 C751 0.950 . S
H729 C753 0.950 . S
H730 C754 0.950 . S
H731 C755 0.951 . S
H732 C757 0.951 . S
H733 C759 0.950 . S
H734 C760 0.950 . S
H735 C762 0.950 . S
H736 C765 0.950 . S
H737 C766 0.950 . S
H738 C768 0.950 . S
H739 C769 0.950 . S
C740 H722 0.951 . S
C740 C741 1.366 . S
C740 C742 1.388 . S
C741 C740 1.366 . S
C741 C745 1.385 . S
C742 H723 0.951 . S
C742 C740 1.388 . S
C742 C743 1.366 . S
C743 C742 1.366 . S
C743 C744 1.414 . S
C743 C746 1.499 . S
C744 H724 0.950 . S
C744 C743 1.414 . S
C744 C745 1.374 . S
C745 H725 0.950 . S
C745 C741 1.385 . S
C745 C744 1.374 . S
C746 C743 1.499 . S
C746 C747 1.373 . S
C746 C748 1.389 . S
C747 H726 0.950 . S
C747 C746 1.373 . S
C747 C763 1.377 . S
C748 C746 1.389 . S
C748 C749 1.524 . S
C748 C762 1.377 . S
C749 C748 1.524 . S
C749 C750 1.397 . S
C749 C754 1.363 . S
C750 H727 0.950 . S
C750 C749 1.397 . S
C750 C751 1.334 . S
C751 H728 0.950 . S
C751 C750 1.334 . S
C751 C752 1.287 . S
C752 C751 1.287 . S
C752 C753 1.524 . S
C752 H771 0.913 . S
C753 H729 0.950 . S
C753 C752 1.524 . S
C753 C754 1.415 . S
C754 H730 0.950 . S
C754 C749 1.363 . S
C754 C753 1.415 . S
C755 H731 0.951 . S
C755 C756 1.366 . S
C755 C757 1.388 . S
C756 C755 1.366 . S
C756 C760 1.385 . S
C757 H732 0.951 . S
C757 C755 1.388 . S
C757 C758 1.366 . S
C758 C757 1.366 . S
C758 C759 1.414 . S
C758 C761 1.499 . S
C759 H733 0.950 . S
C759 C758 1.414 . S
C759 C760 1.374 . S
C760 H734 0.950 . S
C760 C756 1.385 . S
C760 C759 1.374 . S
C761 C758 1.499 . S
C761 C762 1.373 . S
C761 C763 1.389 . S
C762 H735 0.950 . S
C762 C748 1.377 . S
C762 C761 1.373 . S
C763 C747 1.377 . S
C763 C761 1.389 . S
C763 C764 1.524 . S
C764 C763 1.524 . S
C764 C765 1.397 . S
C764 C769 1.363 . S
C765 H736 0.950 . S
C765 C764 1.397 . S
C765 C766 1.334 . S
C766 H737 0.950 . S
C766 C765 1.334 . S
C766 C767 1.287 . S
C767 C766 1.287 . S
C767 C768 1.524 . S
C767 H770 0.999 . S
C768 H738 0.950 . S
C768 C767 1.524 . S
C768 C769 1.415 . S
C769 H739 0.950 . S
C769 C764 1.363 . S
C769 C768 1.415 . S
H770 C767 0.999 . S
H771 C752 0.913 . S
H772 C790 0.951 . S
H773 C792 0.951 . S
H774 C794 0.950 . S
H775 C795 0.950 . S
H776 C797 0.950 . S
H777 C800 0.950 . S
H778 C801 0.950 . S
H779 C803 0.950 . S
H780 C804 0.950 . S
H781 C805 0.951 . S
H782 C807 0.951 . S
H783 C809 0.950 . S
H784 C810 0.950 . S
H785 C812 0.950 . S
H786 C815 0.950 . S
H787 C816 0.950 . S
H788 C818 0.950 . S
H789 C819 0.950 . S
C790 H772 0.951 . S
C790 C791 1.366 . S
C790 C792 1.388 . S
C791 C790 1.366 . S
C791 C795 1.385 . S
C792 H773 0.951 . S
C792 C790 1.388 . S
C792 C793 1.366 . S
C793 C792 1.366 . S
C793 C794 1.414 . S
C793 C796 1.499 . S
C794 H774 0.950 . S
C794 C793 1.414 . S
C794 C795 1.374 . S
C795 H775 0.950 . S
C795 C791 1.385 . S
C795 C794 1.374 . S
C796 C793 1.499 . S
C796 C797 1.373 . S
C796 C798 1.389 . S
C797 H776 0.950 . S
C797 C796 1.373 . S
C797 C813 1.377 . S
C798 C796 1.389 . S
C798 C799 1.524 . S
C798 C812 1.377 . S
C799 C798 1.524 . S
C799 C800 1.397 . S
C799 C804 1.363 . S
C800 H777 0.950 . S
C800 C799 1.397 . S
C800 C801 1.334 . S
C801 H778 0.950 . S
C801 C800 1.334 . S
C801 C802 1.287 . S
C802 C801 1.287 . S
C802 C803 1.524 . S
C802 H821 0.913 . S
C803 H779 0.950 . S
C803 C802 1.524 . S
C803 C804 1.415 . S
C804 H780 0.950 . S
C804 C799 1.363 . S
C804 C803 1.415 . S
C805 H781 0.951 . S
C805 C806 1.366 . S
C805 C807 1.388 . S
C806 C805 1.366 . S
C806 C810 1.385 . S
C807 H782 0.951 . S
C807 C805 1.388 . S
C807 C808 1.366 . S
C808 C807 1.366 . S
C808 C809 1.414 . S
C808 C811 1.499 . S
C809 H783 0.950 . S
C809 C808 1.414 . S
C809 C810 1.374 . S
C810 H784 0.950 . S
C810 C806 1.385 . S
C810 C809 1.374 . S
C811 C808 1.499 . S
C811 C812 1.373 . S
C811 C813 1.389 . S
C812 H785 0.950 . S
C812 C798 1.377 . S
C812 C811 1.373 . S
C813 C797 1.377 . S
C813 C811 1.389 . S
C813 C814 1.524 . S
C814 C813 1.524 . S
C814 C815 1.397 . S
C814 C819 1.363 . S
C815 H786 0.950 . S
C815 C814 1.397 . S
C815 C816 1.334 . S
C816 H787 0.950 . S
C816 C815 1.334 . S
C816 C817 1.287 . S
C817 C816 1.287 . S
C817 C818 1.524 . S
C817 H820 0.999 . S
C818 H788 0.950 . S
C818 C817 1.524 . S
C818 C819 1.415 . S
C819 H789 0.950 . S
C819 C814 1.363 . S
C819 C818 1.415 . S
H820 C817 0.999 . S
H821 C802 0.913 . S
H822 C840 0.951 . S
H823 C842 0.951 . S
H824 C844 0.950 . S
H825 C845 0.950 . S
H826 C847 0.950 . S
H827 C850 0.950 . S
H828 C851 0.950 . S
H829 C853 0.950 . S
H830 C854 0.950 . S
H831 C855 0.951 . S
H832 C857 0.951 . S
H833 C859 0.950 . S
H834 C860 0.950 . S
H835 C862 0.950 . S
H836 C865 0.950 . S
H837 C866 0.950 . S
H838 C868 0.947 1_556 S
H839 C869 0.950 . S
C840 H822 0.951 . S
C840 C841 1.366 . S
C840 C842 1.388 . S
C841 C840 1.366 . S
C841 C845 1.385 . S
C842 H823 0.951 . S
C842 C840 1.388 . S
C842 C843 1.366 . S
C843 C842 1.366 . S
C843 C844 1.414 . S
C843 C846 1.499 . S
C844 H824 0.950 . S
C844 C843 1.414 . S
C844 C845 1.374 . S
C845 H825 0.950 . S
C845 C841 1.385 . S
C845 C844 1.374 . S
C846 C843 1.499 . S
C846 C847 1.373 . S
C846 C848 1.389 . S
C847 H826 0.950 . S
C847 C846 1.373 . S
C847 C863 1.377 . S
C848 C846 1.389 . S
C848 C849 1.524 . S
C848 C862 1.377 . S
C849 C848 1.524 . S
C849 C850 1.397 . S
C849 C854 1.363 . S
C850 H827 0.950 . S
C850 C849 1.397 . S
C850 C851 1.334 . S
C851 H828 0.950 . S
C851 C850 1.334 . S
C851 C852 1.287 . S
C852 C851 1.287 . S
C852 C853 1.524 . S
C852 H871 0.913 . S
C853 H829 0.950 . S
C853 C852 1.524 . S
C853 C854 1.415 . S
C854 H830 0.950 . S
C854 C849 1.363 . S
C854 C853 1.415 . S
C855 H831 0.951 . S
C855 C856 1.366 . S
C855 C857 1.388 . S
C856 C855 1.366 . S
C856 C860 1.385 . S
C857 H832 0.951 . S
C857 C855 1.388 . S
C857 C858 1.366 . S
C858 C857 1.366 . S
C858 C859 1.414 . S
C858 C861 1.499 . S
C859 H833 0.950 . S
C859 C858 1.414 . S
C859 C860 1.374 . S
C860 H834 0.950 . S
C860 C856 1.385 . S
C860 C859 1.374 . S
C861 C858 1.499 . S
C861 C862 1.373 . S
C861 C863 1.389 . S
C862 H835 0.950 . S
C862 C848 1.377 . S
C862 C861 1.373 . S
C863 C847 1.377 . S
C863 C861 1.389 . S
C863 C864 1.524 . S
C864 C863 1.524 . S
C864 C865 1.397 . S
C864 C869 1.363 . S
C865 H836 0.950 . S
C865 C864 1.397 . S
C865 C866 1.334 1_554 S
C866 H837 0.950 . S
C866 C865 1.334 1_556 S
C866 C867 1.287 . S
C867 C866 1.287 . S
C867 C868 1.518 1_556 S
C867 H870 0.999 . S
C868 H838 0.947 1_554 S
C868 C867 1.518 1_554 S
C868 C869 1.425 . S
C869 H839 0.950 . S
C869 C864 1.363 . S
C869 C868 1.425 . S
H870 C867 0.999 . S
H871 C852 0.913 . S
H872 C890 0.951 . S
H873 C892 0.951 . S
H874 C894 0.950 . S
H875 C895 0.950 . S
H876 C897 0.950 . S
H877 C900 0.950 . S
H878 C901 0.950 . S
H879 C903 0.950 . S
H880 C904 0.950 . S
H881 C905 0.951 . S
H882 C907 0.951 . S
H883 C909 0.950 . S
H884 C910 0.950 . S
H885 C912 0.950 . S
H886 C915 0.950 . S
H887 C916 0.950 . S
H888 C918 0.950 . S
H889 C919 0.950 . S
C890 H872 0.951 . S
C890 C891 1.366 . S
C890 C892 1.388 . S
C891 C890 1.366 . S
C891 C895 1.385 . S
C892 H873 0.951 . S
C892 C890 1.388 . S
C892 C893 1.366 . S
C893 C892 1.366 . S
C893 C894 1.414 . S
C893 C896 1.499 . S
C894 H874 0.950 . S
C894 C893 1.414 . S
C894 C895 1.374 . S
C895 H875 0.950 . S
C895 C891 1.385 . S
C895 C894 1.374 . S
C896 C893 1.499 . S
C896 C897 1.373 . S
C896 C898 1.389 . S
C897 H876 0.950 . S
C897 C896 1.373 . S
C897 C913 1.377 . S
C898 C896 1.389 . S
C898 C899 1.524 . S
C898 C912 1.377 . S
C899 C898 1.524 . S
C899 C900 1.397 . S
C899 C904 1.363 . S
C900 H877 0.950 . S
C900 C899 1.397 . S
C900 C901 1.334 . S
C901 H878 0.950 . S
C901 C900 1.334 . S
C901 C902 1.287 . S
C902 C901 1.287 . S
C902 C903 1.524 . S
C902 H921 0.913 . S
C903 H879 0.950 . S
C903 C902 1.524 . S
C903 C904 1.415 . S
C904 H880 0.950 . S
C904 C899 1.363 . S
C904 C903 1.415 . S
C905 H881 0.951 . S
C905 C906 1.366 . S
C905 C907 1.388 . S
C906 C905 1.366 . S
C906 C910 1.385 . S
C907 H882 0.951 . S
C907 C905 1.388 . S
C907 C908 1.366 . S
C908 C907 1.366 . S
C908 C909 1.414 . S
C908 C911 1.499 . S
C909 H883 0.950 . S
C909 C908 1.414 . S
C909 C910 1.374 . S
C910 H884 0.950 . S
C910 C906 1.385 . S
C910 C909 1.374 . S
C911 C908 1.499 . S
C911 C912 1.373 . S
C911 C913 1.389 . S
C912 H885 0.950 . S
C912 C898 1.377 . S
C912 C911 1.373 . S
C913 C897 1.377 . S
C913 C911 1.389 . S
C913 C914 1.524 . S
C914 C913 1.524 . S
C914 C915 1.397 . S
C914 C919 1.363 . S
C915 H886 0.950 . S
C915 C914 1.397 . S
C915 C916 1.334 . S
C916 H887 0.950 . S
C916 C915 1.334 . S
C916 C917 1.287 . S
C917 C916 1.287 . S
C917 C918 1.524 . S
C917 H920 0.999 . S
C918 H888 0.950 . S
C918 C917 1.524 . S
C918 C919 1.415 . S
C919 H889 0.950 . S
C919 C914 1.363 . S
C919 C918 1.415 . S
H920 C917 0.999 . S
H921 C902 0.913 . S
H922 C940 0.951 . S
H923 C942 0.951 . S
H924 C944 0.950 . S
H925 C945 0.950 . S
H926 C947 0.950 . S
H927 C950 0.950 . S
H928 C951 0.950 . S
H929 C953 0.950 . S
H930 C954 0.950 . S
H931 C955 0.951 . S
H932 C957 0.951 . S
H933 C959 0.950 . S
H934 C960 0.950 . S
H935 C962 0.950 . S
H936 C965 0.950 . S
H937 C966 0.950 . S
H938 C968 0.950 . S
H939 C969 0.950 . S
C940 H922 0.951 . S
C940 C941 1.366 . S
C940 C942 1.388 . S
C941 C940 1.366 . S
C941 C945 1.385 . S
C942 H923 0.951 . S
C942 C940 1.388 . S
C942 C943 1.366 . S
C943 C942 1.366 . S
C943 C944 1.414 . S
C943 C946 1.499 . S
C944 H924 0.950 . S
C944 C943 1.414 . S
C944 C945 1.374 . S
C945 H925 0.950 . S
C945 C941 1.385 . S
C945 C944 1.374 . S
C946 C943 1.499 . S
C946 C947 1.373 . S
C946 C948 1.389 . S
C947 H926 0.950 . S
C947 C946 1.373 . S
C947 C963 1.377 . S
C948 C946 1.389 . S
C948 C949 1.524 . S
C948 C962 1.377 . S
C949 C948 1.524 . S
C949 C950 1.397 . S
C949 C954 1.363 . S
C950 H927 0.950 . S
C950 C949 1.397 . S
C950 C951 1.334 . S
C951 H928 0.950 . S
C951 C950 1.334 . S
C951 C952 1.287 . S
C952 C951 1.287 . S
C952 C953 1.524 . S
C952 H971 0.913 . S
C953 H929 0.950 . S
C953 C952 1.524 . S
C953 C954 1.415 . S
C954 H930 0.950 . S
C954 C949 1.363 . S
C954 C953 1.415 . S
C955 H931 0.951 . S
C955 C956 1.366 . S
C955 C957 1.388 . S
C956 C955 1.366 . S
C956 C960 1.385 . S
C957 H932 0.951 . S
C957 C955 1.388 . S
C957 C958 1.366 . S
C958 C957 1.366 . S
C958 C959 1.414 . S
C958 C961 1.499 . S
C959 H933 0.950 . S
C959 C958 1.414 . S
C959 C960 1.374 . S
C960 H934 0.950 . S
C960 C956 1.385 . S
C960 C959 1.374 . S
C961 C958 1.499 . S
C961 C962 1.373 . S
C961 C963 1.389 . S
C962 H935 0.950 . S
C962 C948 1.377 . S
C962 C961 1.373 . S
C963 C947 1.377 . S
C963 C961 1.389 . S
C963 C964 1.524 . S
C964 C963 1.524 . S
C964 C965 1.397 . S
C964 C969 1.363 . S
C965 H936 0.950 . S
C965 C964 1.397 . S
C965 C966 1.334 . S
C966 H937 0.950 . S
C966 C965 1.334 . S
C966 C967 1.287 . S
C967 C966 1.287 . S
C967 C968 1.524 . S
C967 H970 0.999 . S
C968 H938 0.950 . S
C968 C967 1.524 . S
C968 C969 1.415 . S
C969 H939 0.950 . S
C969 C964 1.363 . S
C969 C968 1.415 . S
H970 C967 0.999 . S
H971 C952 0.913 . S
H972 C990 0.951 . S
H973 C992 0.951 . S
H974 C994 0.950 . S
H975 C995 0.950 . S
H976 C997 0.950 . S
H977 C1000 0.950 . S
H978 C1001 0.950 . S
H979 C1003 0.950 . S
H980 C1004 0.950 . S
H981 C1005 0.951 . S
H982 C1007 0.951 . S
H983 C1009 0.950 . S
H984 C1010 0.950 . S
H985 C1012 0.950 . S
H986 C1015 0.950 . S
H987 C1016 0.950 . S
H988 C1018 0.950 . S
H989 C1019 0.950 . S
C990 H972 0.951 . S
C990 C991 1.366 . S
C990 C992 1.388 . S
C991 C990 1.366 . S
C991 C995 1.385 . S
C992 H973 0.951 . S
C992 C990 1.388 . S
C992 C993 1.366 . S
C993 C992 1.366 . S
C993 C994 1.414 . S
C993 C996 1.499 . S
C994 H974 0.950 . S
C994 C993 1.414 . S
C994 C995 1.374 . S
C995 H975 0.950 . S
C995 C991 1.385 . S
C995 C994 1.374 . S
C996 C993 1.499 . S
C996 C997 1.373 . S
C996 C998 1.389 . S
C997 H976 0.950 . S
C997 C996 1.373 . S
C997 C1013 1.377 . S
C998 C996 1.389 . S
C998 C999 1.524 . S
C998 C1012 1.377 . S
C999 C998 1.524 . S
C999 C1000 1.397 . S
C999 C1004 1.363 . S
C1000 H977 0.950 . S
C1000 C999 1.397 . S
C1000 C1001 1.334 . S
C1001 H978 0.950 . S
C1001 C1000 1.334 . S
C1001 C1002 1.287 . S
C1002 C1001 1.287 . S
C1002 C1003 1.524 . S
C1002 H1021 0.913 . S
C1003 H979 0.950 . S
C1003 C1002 1.524 . S
C1003 C1004 1.415 . S
C1004 H980 0.950 . S
C1004 C999 1.363 . S
C1004 C1003 1.415 . S
C1005 H981 0.951 . S
C1005 C1006 1.366 . S
C1005 C1007 1.388 . S
C1006 C1005 1.366 . S
C1006 C1010 1.385 . S
C1007 H982 0.951 . S
C1007 C1005 1.388 . S
C1007 C1008 1.366 . S
C1008 C1007 1.366 . S
C1008 C1009 1.414 . S
C1008 C1011 1.499 . S
C1009 H983 0.950 . S
C1009 C1008 1.414 . S
C1009 C1010 1.374 . S
C1010 H984 0.950 . S
C1010 C1006 1.385 . S
C1010 C1009 1.374 . S
C1011 C1008 1.499 . S
C1011 C1012 1.373 . S
C1011 C1013 1.389 . S
C1012 H985 0.950 . S
C1012 C998 1.377 . S
C1012 C1011 1.373 . S
C1013 C997 1.377 . S
C1013 C1011 1.389 . S
C1013 C1014 1.524 . S
C1014 C1013 1.524 . S
C1014 C1015 1.397 . S
C1014 C1019 1.363 . S
C1015 H986 0.950 . S
C1015 C1014 1.397 . S
C1015 C1016 1.334 . S
C1016 H987 0.950 . S
C1016 C1015 1.334 . S
C1016 C1017 1.287 . S
C1017 C1016 1.287 . S
C1017 C1018 1.524 . S
C1017 H1020 0.999 . S
C1018 H988 0.950 . S
C1018 C1017 1.524 . S
C1018 C1019 1.415 . S
C1019 H989 0.950 . S
C1019 C1014 1.363 . S
C1019 C1018 1.415 . S
H1020 C1017 0.999 . S
H1021 C1002 0.913 . S
H1022 C1040 0.951 . S
H1023 C1042 0.951 . S
H1024 C1044 0.950 . S
H1025 C1045 0.950 . S
H1026 C1047 0.950 . S
H1027 C1050 0.950 . S
H1028 C1051 0.950 . S
H1029 C1053 0.950 . S
H1030 C1054 0.950 . S
H1031 C1055 0.951 . S
H1032 C1057 0.951 . S
H1033 C1059 0.950 . S
H1034 C1060 0.950 . S
H1035 C1062 0.950 . S
H1036 C1065 0.950 . S
H1037 C1066 0.950 . S
H1038 C1068 0.950 . S
H1039 C1069 0.950 . S
C1040 H1022 0.951 . S
C1040 C1041 1.366 . S
C1040 C1042 1.388 . S
C1041 C1040 1.366 . S
C1041 C1045 1.385 . S
C1042 H1023 0.951 . S
C1042 C1040 1.388 . S
C1042 C1043 1.366 . S
C1043 C1042 1.366 . S
C1043 C1044 1.414 . S
C1043 C1046 1.499 . S
C1044 H1024 0.950 . S
C1044 C1043 1.414 . S
C1044 C1045 1.374 . S
C1045 H1025 0.950 . S
C1045 C1041 1.385 . S
C1045 C1044 1.374 . S
C1046 C1043 1.499 . S
C1046 C1047 1.373 . S
C1046 C1048 1.389 . S
C1047 H1026 0.950 . S
C1047 C1046 1.373 . S
C1047 C1063 1.377 . S
C1048 C1046 1.389 . S
C1048 C1049 1.524 . S
C1048 C1062 1.377 . S
C1049 C1048 1.524 . S
C1049 C1050 1.397 . S
C1049 C1054 1.363 . S
C1050 H1027 0.950 . S
C1050 C1049 1.397 . S
C1050 C1051 1.334 . S
C1051 H1028 0.950 . S
C1051 C1050 1.334 . S
C1051 C1052 1.287 . S
C1052 C1051 1.287 . S
C1052 C1053 1.524 . S
C1052 H1071 0.913 . S
C1053 H1029 0.950 . S
C1053 C1052 1.524 . S
C1053 C1054 1.415 . S
C1054 H1030 0.950 . S
C1054 C1049 1.363 . S
C1054 C1053 1.415 . S
C1055 H1031 0.951 . S
C1055 C1056 1.366 . S
C1055 C1057 1.388 . S
C1056 C1055 1.366 . S
C1056 C1060 1.385 . S
C1057 H1032 0.951 . S
C1057 C1055 1.388 . S
C1057 C1058 1.366 . S
C1058 C1057 1.366 . S
C1058 C1059 1.414 . S
C1058 C1061 1.499 . S
C1059 H1033 0.950 . S
C1059 C1058 1.414 . S
C1059 C1060 1.374 . S
C1060 H1034 0.950 . S
C1060 C1056 1.385 . S
C1060 C1059 1.374 . S
C1061 C1058 1.499 . S
C1061 C1062 1.373 . S
C1061 C1063 1.389 . S
C1062 H1035 0.950 . S
C1062 C1048 1.377 . S
C1062 C1061 1.373 . S
C1063 C1047 1.377 . S
C1063 C1061 1.389 . S
C1063 C1064 1.524 . S
C1064 C1063 1.524 . S
C1064 C1065 1.397 . S
C1064 C1069 1.363 . S
C1065 H1036 0.950 . S
C1065 C1064 1.397 . S
C1065 C1066 1.334 . S
C1066 H1037 0.950 . S
C1066 C1065 1.334 . S
C1066 C1067 1.287 . S
C1067 C1066 1.287 . S
C1067 C1068 1.524 . S
C1067 H1070 0.999 . S
C1068 H1038 0.950 . S
C1068 C1067 1.524 . S
C1068 C1069 1.415 . S
C1069 H1039 0.950 . S
C1069 C1064 1.363 . S
C1069 C1068 1.415 . S
H1070 C1067 0.999 . S
H1071 C1052 0.913 . S
H1072 C1090 0.951 . S
H1073 C1092 0.951 . S
H1074 C1094 0.950 . S
H1075 C1095 0.950 . S
H1076 C1097 0.950 . S
H1077 C1100 0.950 . S
H1078 C1101 0.950 . S
H1079 C1103 0.950 . S
H1080 C1104 0.950 . S
H1081 C1105 0.951 . S
H1082 C1107 0.951 . S
H1083 C1109 0.950 . S
H1084 C1110 0.950 . S
H1085 C1112 0.950 . S
H1086 C1115 0.950 . S
H1087 C1116 0.950 . S
H1088 C1118 0.950 . S
H1089 C1119 0.950 . S
C1090 H1072 0.951 . S
C1090 C1091 1.366 . S
C1090 C1092 1.388 . S
C1091 C1090 1.366 . S
C1091 C1095 1.385 . S
C1092 H1073 0.951 . S
C1092 C1090 1.388 . S
C1092 C1093 1.366 . S
C1093 C1092 1.366 . S
C1093 C1094 1.414 . S
C1093 C1096 1.499 . S
C1094 H1074 0.950 . S
C1094 C1093 1.414 . S
C1094 C1095 1.374 . S
C1095 H1075 0.950 . S
C1095 C1091 1.385 . S
C1095 C1094 1.374 . S
C1096 C1093 1.499 . S
C1096 C1097 1.373 . S
C1096 C1098 1.389 . S
C1097 H1076 0.950 . S
C1097 C1096 1.373 . S
C1097 C1113 1.377 . S
C1098 C1096 1.389 . S
C1098 C1099 1.524 . S
C1098 C1112 1.377 . S
C1099 C1098 1.524 . S
C1099 C1100 1.397 . S
C1099 C1104 1.363 . S
C1100 H1077 0.950 . S
C1100 C1099 1.397 . S
C1100 C1101 1.334 . S
C1101 H1078 0.950 . S
C1101 C1100 1.334 . S
C1101 C1102 1.287 . S
C1102 C1101 1.287 . S
C1102 C1103 1.524 . S
C1102 H1121 0.913 . S
C1103 H1079 0.950 . S
C1103 C1102 1.524 . S
C1103 C1104 1.415 . S
C1104 H1080 0.950 . S
C1104 C1099 1.363 . S
C1104 C1103 1.415 . S
C1105 H1081 0.951 . S
C1105 C1106 1.366 . S
C1105 C1107 1.388 . S
C1106 C1105 1.366 . S
C1106 C1110 1.385 . S
C1107 H1082 0.951 . S
C1107 C1105 1.388 . S
C1107 C1108 1.366 . S
C1108 C1107 1.366 . S
C1108 C1109 1.414 . S
C1108 C1111 1.499 . S
C1109 H1083 0.950 . S
C1109 C1108 1.414 . S
C1109 C1110 1.374 . S
C1110 H1084 0.950 . S
C1110 C1106 1.385 . S
C1110 C1109 1.374 . S
C1111 C1108 1.499 . S
C1111 C1112 1.373 . S
C1111 C1113 1.389 . S
C1112 H1085 0.950 . S
C1112 C1098 1.377 . S
C1112 C1111 1.373 . S
C1113 C1097 1.377 . S
C1113 C1111 1.389 . S
C1113 C1114 1.524 . S
C1114 C1113 1.524 . S
C1114 C1115 1.397 . S
C1114 C1119 1.363 . S
C1115 H1086 0.950 . S
C1115 C1114 1.397 . S
C1115 C1116 1.334 . S
C1116 H1087 0.950 . S
C1116 C1115 1.334 . S
C1116 C1117 1.287 . S
C1117 C1116 1.287 . S
C1117 C1118 1.524 . S
C1117 H1120 0.999 . S
C1118 H1088 0.950 . S
C1118 C1117 1.524 . S
C1118 C1119 1.415 . S
C1119 H1089 0.950 . S
C1119 C1114 1.363 . S
C1119 C1118 1.415 . S
H1120 C1117 0.999 . S
H1121 C1102 0.913 . S
H1122 C1140 0.951 . S
H1123 C1142 0.951 . S
H1124 C1144 0.950 . S
H1125 C1145 0.950 . S
H1126 C1147 0.950 . S
H1127 C1150 0.950 . S
H1128 C1151 0.950 . S
H1129 C1153 0.950 . S
H1130 C1154 0.950 . S
H1131 C1155 0.951 . S
H1132 C1157 0.951 . S
H1133 C1159 0.950 . S
H1134 C1160 0.950 . S
H1135 C1162 0.950 . S
H1136 C1165 0.950 . S
H1137 C1166 0.950 . S
H1138 C1168 0.950 . S
H1139 C1169 0.950 . S
C1140 H1122 0.951 . S
C1140 C1141 1.366 . S
C1140 C1142 1.388 . S
C1141 C1140 1.366 . S
C1141 C1145 1.385 . S
C1142 H1123 0.951 . S
C1142 C1140 1.388 . S
C1142 C1143 1.366 . S
C1143 C1142 1.366 . S
C1143 C1144 1.414 . S
C1143 C1146 1.499 . S
C1144 H1124 0.950 . S
C1144 C1143 1.414 . S
C1144 C1145 1.374 . S
C1145 H1125 0.950 . S
C1145 C1141 1.385 . S
C1145 C1144 1.374 . S
C1146 C1143 1.499 . S
C1146 C1147 1.373 . S
C1146 C1148 1.389 . S
C1147 H1126 0.950 . S
C1147 C1146 1.373 . S
C1147 C1163 1.377 . S
C1148 C1146 1.389 . S
C1148 C1149 1.524 . S
C1148 C1162 1.377 . S
C1149 C1148 1.524 . S
C1149 C1150 1.397 . S
C1149 C1154 1.363 . S
C1150 H1127 0.950 . S
C1150 C1149 1.397 . S
C1150 C1151 1.334 . S
C1151 H1128 0.950 . S
C1151 C1150 1.334 . S
C1151 C1152 1.287 . S
C1152 C1151 1.287 . S
C1152 C1153 1.524 . S
C1152 H1171 0.913 . S
C1153 H1129 0.950 . S
C1153 C1152 1.524 . S
C1153 C1154 1.415 . S
C1154 H1130 0.950 . S
C1154 C1149 1.363 . S
C1154 C1153 1.415 . S
C1155 H1131 0.951 . S
C1155 C1156 1.366 . S
C1155 C1157 1.388 1_554 S
C1156 C1155 1.366 . S
C1156 C1160 1.385 . S
C1157 H1132 0.951 . S
C1157 C1155 1.388 1_556 S
C1157 C1158 1.366 . S
C1158 C1157 1.366 . S
C1158 C1159 1.414 1_556 S
C1158 C1161 1.499 . S
C1159 H1133 0.950 . S
C1159 C1158 1.414 1_554 S
C1159 C1160 1.374 . S
C1160 H1134 0.950 . S
C1160 C1156 1.385 . S
C1160 C1159 1.374 . S
C1161 C1158 1.499 . S
C1161 C1162 1.373 . S
C1161 C1163 1.389 . S
C1162 H1135 0.950 . S
C1162 C1148 1.377 . S
C1162 C1161 1.373 . S
C1163 C1147 1.377 . S
C1163 C1161 1.389 . S
C1163 C1164 1.524 . S
C1164 C1163 1.524 . S
C1164 C1165 1.397 . S
C1164 C1169 1.363 . S
C1165 H1136 0.950 . S
C1165 C1164 1.397 . S
C1165 C1166 1.334 . S
C1166 H1137 0.950 . S
C1166 C1165 1.334 . S
C1166 C1167 1.287 . S
C1167 C1166 1.287 . S
C1167 C1168 1.524 . S
C1167 H1170 0.999 . S
C1168 H1138 0.950 . S
C1168 C1167 1.524 . S
C1168 C1169 1.415 . S
C1169 H1139 0.950 . S
C1169 C1164 1.363 . S
C1169 C1168 1.415 . S
H1170 C1167 0.999 . S
H1171 C1152 0.913 . S
H1172 C1190 0.951 . S
H1173 C1192 0.951 . S
H1174 C1194 0.950 . S
H1175 C1195 0.950 . S
H1176 C1197 0.950 . S
H1177 C1200 0.950 . S
H1178 C1201 0.950 . S
H1179 C1203 0.950 . S
H1180 C1204 0.950 . S
H1181 C1205 0.951 . S
H1182 C1207 0.951 . S
H1183 C1209 0.950 . S
H1184 C1210 0.950 . S
H1185 C1212 0.950 . S
H1186 C1215 0.950 . S
H1187 C1216 0.950 . S
H1188 C1218 0.950 . S
H1189 C1219 0.950 . S
C1190 H1172 0.951 . S
C1190 C1191 1.366 . S
C1190 C1192 1.388 . S
C1191 C1190 1.366 . S
C1191 C1195 1.385 . S
C1192 H1173 0.951 . S
C1192 C1190 1.388 . S
C1192 C1193 1.366 . S
C1193 C1192 1.366 . S
C1193 C1194 1.414 . S
C1193 C1196 1.499 . S
C1194 H1174 0.950 . S
C1194 C1193 1.414 . S
C1194 C1195 1.374 . S
C1195 H1175 0.950 . S
C1195 C1191 1.385 . S
C1195 C1194 1.374 . S
C1196 C1193 1.499 . S
C1196 C1197 1.373 . S
C1196 C1198 1.389 . S
C1197 H1176 0.950 . S
C1197 C1196 1.373 . S
C1197 C1213 1.377 . S
C1198 C1196 1.389 . S
C1198 C1199 1.524 . S
C1198 C1212 1.377 . S
C1199 C1198 1.524 . S
C1199 C1200 1.397 . S
C1199 C1204 1.363 . S
C1200 H1177 0.950 . S
C1200 C1199 1.397 . S
C1200 C1201 1.334 . S
C1201 H1178 0.950 . S
C1201 C1200 1.334 . S
C1201 C1202 1.287 . S
C1202 C1201 1.287 . S
C1202 C1203 1.524 . S
C1202 H1221 0.913 . S
C1203 H1179 0.950 . S
C1203 C1202 1.524 . S
C1203 C1204 1.415 . S
C1204 H1180 0.950 . S
C1204 C1199 1.363 . S
C1204 C1203 1.415 . S
C1205 H1181 0.951 . S
C1205 C1206 1.366 . S
C1205 C1207 1.388 . S
C1206 C1205 1.366 . S
C1206 C1210 1.385 . S
C1207 H1182 0.951 . S
C1207 C1205 1.388 . S
C1207 C1208 1.366 . S
C1208 C1207 1.366 . S
C1208 C1209 1.414 . S
C1208 C1211 1.499 . S
C1209 H1183 0.950 . S
C1209 C1208 1.414 . S
C1209 C1210 1.374 . S
C1210 H1184 0.950 . S
C1210 C1206 1.385 . S
C1210 C1209 1.374 . S
C1211 C1208 1.499 . S
C1211 C1212 1.373 . S
C1211 C1213 1.389 . S
C1212 H1185 0.950 . S
C1212 C1198 1.377 . S
C1212 C1211 1.373 . S
C1213 C1197 1.377 . S
C1213 C1211 1.389 . S
C1213 C1214 1.524 . S
C1214 C1213 1.524 . S
C1214 C1215 1.397 . S
C1214 C1219 1.363 . S
C1215 H1186 0.950 . S
C1215 C1214 1.397 . S
C1215 C1216 1.334 . S
C1216 H1187 0.950 . S
C1216 C1215 1.334 . S
C1216 C1217 1.287 . S
C1217 C1216 1.287 . S
C1217 C1218 1.524 . S
C1217 H1220 0.999 . S
C1218 H1188 0.950 . S
C1218 C1217 1.524 . S
C1218 C1219 1.415 . S
C1219 H1189 0.950 . S
C1219 C1214 1.363 . S
C1219 C1218 1.415 . S
H1220 C1217 0.999 . S
H1221 C1202 0.913 . S
H1222 C1240 0.951 . S
H1223 C1242 0.951 . S
H1224 C1244 0.950 . S
H1225 C1245 0.950 . S
H1226 C1247 0.950 . S
H1227 C1250 0.950 . S
H1228 C1251 0.950 . S
H1229 C1253 0.950 . S
H1230 C1254 0.950 . S
H1231 C1255 0.951 . S
H1232 C1257 0.951 . S
H1233 C1259 0.950 . S
H1234 C1260 0.950 . S
H1235 C1262 0.950 . S
H1236 C1265 0.950 . S
H1237 C1266 0.950 . S
H1238 C1268 0.950 . S
H1239 C1269 0.950 . S
C1240 H1222 0.951 . S
C1240 C1241 1.366 . S
C1240 C1242 1.388 . S
C1241 C1240 1.366 . S
C1241 C1245 1.385 . S
C1242 H1223 0.951 . S
C1242 C1240 1.388 . S
C1242 C1243 1.366 . S
C1243 C1242 1.366 . S
C1243 C1244 1.414 . S
C1243 C1246 1.499 . S
C1244 H1224 0.950 . S
C1244 C1243 1.414 . S
C1244 C1245 1.374 . S
C1245 H1225 0.950 . S
C1245 C1241 1.385 . S
C1245 C1244 1.374 . S
C1246 C1243 1.499 . S
C1246 C1247 1.373 . S
C1246 C1248 1.389 . S
C1247 H1226 0.950 . S
C1247 C1246 1.373 . S
C1247 C1263 1.377 . S
C1248 C1246 1.389 . S
C1248 C1249 1.524 . S
C1248 C1262 1.377 . S
C1249 C1248 1.524 . S
C1249 C1250 1.397 . S
C1249 C1254 1.363 . S
C1250 H1227 0.950 . S
C1250 C1249 1.397 . S
C1250 C1251 1.334 . S
C1251 H1228 0.950 . S
C1251 C1250 1.334 . S
C1251 C1252 1.287 . S
C1252 C1251 1.287 . S
C1252 C1253 1.524 . S
C1252 H1271 0.913 . S
C1253 H1229 0.950 . S
C1253 C1252 1.524 . S
C1253 C1254 1.415 . S
C1254 H1230 0.950 . S
C1254 C1249 1.363 . S
C1254 C1253 1.415 . S
C1255 H1231 0.951 . S
C1255 C1256 1.366 . S
C1255 C1257 1.388 . S
C1256 C1255 1.366 . S
C1256 C1260 1.385 . S
C1257 H1232 0.951 . S
C1257 C1255 1.388 . S
C1257 C1258 1.366 . S
C1258 C1257 1.366 . S
C1258 C1259 1.414 . S
C1258 C1261 1.499 . S
C1259 H1233 0.950 . S
C1259 C1258 1.414 . S
C1259 C1260 1.374 . S
C1260 H1234 0.950 . S
C1260 C1256 1.385 . S
C1260 C1259 1.374 . S
C1261 C1258 1.499 . S
C1261 C1262 1.373 . S
C1261 C1263 1.389 . S
C1262 H1235 0.950 . S
C1262 C1248 1.377 . S
C1262 C1261 1.373 . S
C1263 C1247 1.377 . S
C1263 C1261 1.389 . S
C1263 C1264 1.524 . S
C1264 C1263 1.524 . S
C1264 C1265 1.397 . S
C1264 C1269 1.363 . S
C1265 H1236 0.950 . S
C1265 C1264 1.397 . S
C1265 C1266 1.334 . S
C1266 H1237 0.950 . S
C1266 C1265 1.334 . S
C1266 C1267 1.287 . S
C1267 C1266 1.287 . S
C1267 C1268 1.524 . S
C1267 H1270 0.999 . S
C1268 H1238 0.950 . S
C1268 C1267 1.524 . S
C1268 C1269 1.415 . S
C1269 H1239 0.950 . S
C1269 C1264 1.363 . S
C1269 C1268 1.415 . S
H1270 C1267 0.999 . S
H1271 C1252 0.913 . S
H1272 C1290 0.951 . S
H1273 C1292 0.951 . S
H1274 C1294 0.950 . S
H1275 C1295 0.950 . S
H1276 C1297 0.950 . S
H1277 C1300 0.950 . S
H1278 C1301 0.950 . S
H1279 C1303 0.950 . S
H1280 C1304 0.950 . S
H1281 C1305 0.951 . S
H1282 C1307 0.951 . S
H1283 C1309 0.950 . S
H1284 C1310 0.950 . S
H1285 C1312 0.950 . S
H1286 C1315 0.950 . S
H1287 C1316 0.950 . S
H1288 C1318 0.950 . S
H1289 C1319 0.950 . S
C1290 H1272 0.951 . S
C1290 C1291 1.366 . S
C1290 C1292 1.388 . S
C1291 C1290 1.366 . S
C1291 C1295 1.385 . S
C1292 H1273 0.951 . S
C1292 C1290 1.388 . S
C1292 C1293 1.366 . S
C1293 C1292 1.366 . S
C1293 C1294 1.414 . S
C1293 C1296 1.499 . S
C1294 H1274 0.950 . S
C1294 C1293 1.414 . S
C1294 C1295 1.374 . S
C1295 H1275 0.950 . S
C1295 C1291 1.385 . S
C1295 C1294 1.374 . S
C1296 C1293 1.499 . S
C1296 C1297 1.373 . S
C1296 C1298 1.389 . S
C1297 H1276 0.950 . S
C1297 C1296 1.373 . S
C1297 C1313 1.377 . S
C1298 C1296 1.389 . S
C1298 C1299 1.524 . S
C1298 C1312 1.377 . S
C1299 C1298 1.524 . S
C1299 C1300 1.397 . S
C1299 C1304 1.363 . S
C1300 H1277 0.950 . S
C1300 C1299 1.397 . S
C1300 C1301 1.334 . S
C1301 H1278 0.950 . S
C1301 C1300 1.334 . S
C1301 C1302 1.287 . S
C1302 C1301 1.287 . S
C1302 C1303 1.524 . S
C1302 H1321 0.913 . S
C1303 H1279 0.950 . S
C1303 C1302 1.524 . S
C1303 C1304 1.415 . S
C1304 H1280 0.950 . S
C1304 C1299 1.363 . S
C1304 C1303 1.415 . S
C1305 H1281 0.951 . S
C1305 C1306 1.366 . S
C1305 C1307 1.388 . S
C1306 C1305 1.366 . S
C1306 C1310 1.385 . S
C1307 H1282 0.951 . S
C1307 C1305 1.388 . S
C1307 C1308 1.366 . S
C1308 C1307 1.366 . S
C1308 C1309 1.414 . S
C1308 C1311 1.499 . S
C1309 H1283 0.950 . S
C1309 C1308 1.414 . S
C1309 C1310 1.374 . S
C1310 H1284 0.950 . S
C1310 C1306 1.385 . S
C1310 C1309 1.374 . S
C1311 C1308 1.499 . S
C1311 C1312 1.373 . S
C1311 C1313 1.389 . S
C1312 H1285 0.950 . S
C1312 C1298 1.377 . S
C1312 C1311 1.373 . S
C1313 C1297 1.377 . S
C1313 C1311 1.389 . S
C1313 C1314 1.524 . S
C1314 C1313 1.524 . S
C1314 C1315 1.397 . S
C1314 C1319 1.363 . S
C1315 H1286 0.950 . S
C1315 C1314 1.397 . S
C1315 C1316 1.334 . S
C1316 H1287 0.950 . S
C1316 C1315 1.334 . S
C1316 C1317 1.287 . S
C1317 C1316 1.287 . S
C1317 C1318 1.524 . S
C1317 H1320 0.999 . S
C1318 H1288 0.950 . S
C1318 C1317 1.524 . S
C1318 C1319 1.415 . S
C1319 H1289 0.950 . S
C1319 C1314 1.363 . S
C1319 C1318 1.415 . S
H1320 C1317 0.999 . S
H1321 C1302 0.913 . S
H1322 C1340 0.951 . S
H1323 C1342 0.951 . S
H1324 C1344 0.950 . S
H1325 C1345 0.950 . S
H1326 C1347 0.950 . S
H1327 C1350 0.950 . S
H1328 C1351 0.950 . S
H1329 C1353 0.950 . S
H1330 C1354 0.950 . S
H1331 C1355 0.951 . S
H1332 C1357 0.951 . S
H1333 C1359 0.950 . S
H1334 C1360 0.950 . S
H1335 C1362 0.950 . S
H1336 C1365 0.950 . S
H1337 C1366 0.950 . S
H1338 C1368 0.950 . S
H1339 C1369 0.950 . S
C1340 H1322 0.951 . S
C1340 C1341 1.366 . S
C1340 C1342 1.388 . S
C1341 C1340 1.366 . S
C1341 C1345 1.385 . S
C1342 H1323 0.951 . S
C1342 C1340 1.388 . S
C1342 C1343 1.366 . S
C1343 C1342 1.366 . S
C1343 C1344 1.414 . S
C1343 C1346 1.499 . S
C1344 H1324 0.950 . S
C1344 C1343 1.414 . S
C1344 C1345 1.374 . S
C1345 H1325 0.950 . S
C1345 C1341 1.385 . S
C1345 C1344 1.374 . S
C1346 C1343 1.499 . S
C1346 C1347 1.373 . S
C1346 C1348 1.389 . S
C1347 H1326 0.950 . S
C1347 C1346 1.373 . S
C1347 C1363 1.377 . S
C1348 C1346 1.389 . S
C1348 C1349 1.524 . S
C1348 C1362 1.377 . S
C1349 C1348 1.524 . S
C1349 C1350 1.397 . S
C1349 C1354 1.363 . S
C1350 H1327 0.950 . S
C1350 C1349 1.397 . S
C1350 C1351 1.334 . S
C1351 H1328 0.950 . S
C1351 C1350 1.334 . S
C1351 C1352 1.287 . S
C1352 C1351 1.287 . S
C1352 C1353 1.524 . S
C1352 H1371 0.913 . S
C1353 H1329 0.950 . S
C1353 C1352 1.524 . S
C1353 C1354 1.415 . S
C1354 H1330 0.950 . S
C1354 C1349 1.363 . S
C1354 C1353 1.415 . S
C1355 H1331 0.951 . S
C1355 C1356 1.366 . S
C1355 C1357 1.388 . S
C1356 C1355 1.366 . S
C1356 C1360 1.385 . S
C1357 H1332 0.951 . S
C1357 C1355 1.388 . S
C1357 C1358 1.366 . S
C1358 C1357 1.366 . S
C1358 C1359 1.414 . S
C1358 C1361 1.499 . S
C1359 H1333 0.950 . S
C1359 C1358 1.414 . S
C1359 C1360 1.374 . S
C1360 H1334 0.950 . S
C1360 C1356 1.385 . S
C1360 C1359 1.374 . S
C1361 C1358 1.499 . S
C1361 C1362 1.373 . S
C1361 C1363 1.389 . S
C1362 H1335 0.950 . S
C1362 C1348 1.377 . S
C1362 C1361 1.373 . S
C1363 C1347 1.377 . S
C1363 C1361 1.389 . S
C1363 C1364 1.524 . S
C1364 C1363 1.524 . S
C1364 C1365 1.397 . S
C1364 C1369 1.363 . S
C1365 H1336 0.950 . S
C1365 C1364 1.397 . S
C1365 C1366 1.334 . S
C1366 H1337 0.950 . S
C1366 C1365 1.334 . S
C1366 C1367 1.287 . S
C1367 C1366 1.287 . S
C1367 C1368 1.524 . S
C1367 H1370 0.999 . S
C1368 H1338 0.950 . S
C1368 C1367 1.524 . S
C1368 C1369 1.415 . S
C1369 H1339 0.950 . S
C1369 C1364 1.363 . S
C1369 C1368 1.415 . S
H1370 C1367 0.999 . S
H1371 C1352 0.913 . S
H1372 C1390 0.951 . S
H1373 C1392 0.951 . S
H1374 C1394 0.950 . S
H1375 C1395 0.950 . S
H1376 C1397 0.950 . S
H1377 C1400 0.950 . S
H1378 C1401 0.950 . S
H1379 C1403 0.950 . S
H1380 C1404 0.950 . S
H1381 C1405 0.951 . S
H1382 C1407 0.951 . S
H1383 C1409 0.950 . S
H1384 C1410 0.950 . S
H1385 C1412 0.950 . S
H1386 C1415 0.950 . S
H1387 C1416 0.950 . S
H1388 C1418 0.950 . S
H1389 C1419 0.950 . S
C1390 H1372 0.951 . S
C1390 C1391 1.366 . S
C1390 C1392 1.388 . S
C1391 C1390 1.366 . S
C1391 C1395 1.385 . S
C1392 H1373 0.951 . S
C1392 C1390 1.388 . S
C1392 C1393 1.366 . S
C1393 C1392 1.366 . S
C1393 C1394 1.414 . S
C1393 C1396 1.499 . S
C1394 H1374 0.950 . S
C1394 C1393 1.414 . S
C1394 C1395 1.374 . S
C1395 H1375 0.950 . S
C1395 C1391 1.385 . S
C1395 C1394 1.374 . S
C1396 C1393 1.499 . S
C1396 C1397 1.373 . S
C1396 C1398 1.389 . S
C1397 H1376 0.950 . S
C1397 C1396 1.373 . S
C1397 C1413 1.377 . S
C1398 C1396 1.389 . S
C1398 C1399 1.524 . S
C1398 C1412 1.377 . S
C1399 C1398 1.524 . S
C1399 C1400 1.397 . S
C1399 C1404 1.363 . S
C1400 H1377 0.950 . S
C1400 C1399 1.397 . S
C1400 C1401 1.334 . S
C1401 H1378 0.950 . S
C1401 C1400 1.334 . S
C1401 C1402 1.287 . S
C1402 C1401 1.287 . S
C1402 C1403 1.524 . S
C1402 H1421 0.913 . S
C1403 H1379 0.950 . S
C1403 C1402 1.524 . S
C1403 C1404 1.415 . S
C1404 H1380 0.950 . S
C1404 C1399 1.363 . S
C1404 C1403 1.415 . S
C1405 H1381 0.951 . S
C1405 C1406 1.366 . S
C1405 C1407 1.388 . S
C1406 C1405 1.366 . S
C1406 C1410 1.385 . S
C1407 H1382 0.951 . S
C1407 C1405 1.388 . S
C1407 C1408 1.366 . S
C1408 C1407 1.366 . S
C1408 C1409 1.414 . S
C1408 C1411 1.499 . S
C1409 H1383 0.950 . S
C1409 C1408 1.414 . S
C1409 C1410 1.374 . S
C1410 H1384 0.950 . S
C1410 C1406 1.385 . S
C1410 C1409 1.374 . S
C1411 C1408 1.499 . S
C1411 C1412 1.373 . S
C1411 C1413 1.389 . S
C1412 H1385 0.950 . S
C1412 C1398 1.377 . S
C1412 C1411 1.373 . S
C1413 C1397 1.377 . S
C1413 C1411 1.389 . S
C1413 C1414 1.524 . S
C1414 C1413 1.524 . S
C1414 C1415 1.397 . S
C1414 C1419 1.363 . S
C1415 H1386 0.950 . S
C1415 C1414 1.397 . S
C1415 C1416 1.334 . S
C1416 H1387 0.950 . S
C1416 C1415 1.334 . S
C1416 C1417 1.287 . S
C1417 C1416 1.287 . S
C1417 C1418 1.524 . S
C1417 H1420 0.999 . S
C1418 H1388 0.950 . S
C1418 C1417 1.524 . S
C1418 C1419 1.415 . S
C1419 H1389 0.950 . S
C1419 C1414 1.363 . S
C1419 C1418 1.415 . S
H1420 C1417 0.999 . S
H1421 C1402 0.913 . S
H1422 C1440 0.951 . S
H1423 C1442 0.951 . S
H1424 C1444 0.950 . S
H1425 C1445 0.950 . S
H1426 C1447 0.950 . S
H1427 C1450 0.950 . S
H1428 C1451 0.950 . S
H1429 C1453 0.950 . S
H1430 C1454 0.950 . S
H1431 C1455 0.951 . S
H1432 C1457 0.951 . S
H1433 C1459 0.950 . S
H1434 C1460 0.950 . S
H1435 C1462 0.950 . S
H1436 C1465 0.950 . S
H1437 C1466 0.950 . S
H1438 C1468 0.950 . S
H1439 C1469 0.950 . S
C1440 H1422 0.951 . S
C1440 C1441 1.366 . S
C1440 C1442 1.388 . S
C1441 C1440 1.366 . S
C1441 C1445 1.385 . S
C1442 H1423 0.951 . S
C1442 C1440 1.388 . S
C1442 C1443 1.366 . S
C1443 C1442 1.366 . S
C1443 C1444 1.414 . S
C1443 C1446 1.499 . S
C1444 H1424 0.950 . S
C1444 C1443 1.414 . S
C1444 C1445 1.374 . S
C1445 H1425 0.950 . S
C1445 C1441 1.385 . S
C1445 C1444 1.374 . S
C1446 C1443 1.499 . S
C1446 C1447 1.373 . S
C1446 C1448 1.389 . S
C1447 H1426 0.950 . S
C1447 C1446 1.373 . S
C1447 C1463 1.377 . S
C1448 C1446 1.389 . S
C1448 C1449 1.524 . S
C1448 C1462 1.377 . S
C1449 C1448 1.524 . S
C1449 C1450 1.397 . S
C1449 C1454 1.363 . S
C1450 H1427 0.950 . S
C1450 C1449 1.397 . S
C1450 C1451 1.334 . S
C1451 H1428 0.950 . S
C1451 C1450 1.334 . S
C1451 C1452 1.287 . S
C1452 C1451 1.287 . S
C1452 C1453 1.524 . S
C1452 H1471 0.913 . S
C1453 H1429 0.950 . S
C1453 C1452 1.524 . S
C1453 C1454 1.415 . S
C1454 H1430 0.950 . S
C1454 C1449 1.363 . S
C1454 C1453 1.415 . S
C1455 H1431 0.951 . S
C1455 C1456 1.366 . S
C1455 C1457 1.388 . S
C1456 C1455 1.366 . S
C1456 C1460 1.385 . S
C1457 H1432 0.951 . S
C1457 C1455 1.388 . S
C1457 C1458 1.366 . S
C1458 C1457 1.366 . S
C1458 C1459 1.414 . S
C1458 C1461 1.499 . S
C1459 H1433 0.950 . S
C1459 C1458 1.414 . S
C1459 C1460 1.374 . S
C1460 H1434 0.950 . S
C1460 C1456 1.385 . S
C1460 C1459 1.374 . S
C1461 C1458 1.499 . S
C1461 C1462 1.373 . S
C1461 C1463 1.389 . S
C1462 H1435 0.950 . S
C1462 C1448 1.377 . S
C1462 C1461 1.373 . S
C1463 C1447 1.377 . S
C1463 C1461 1.389 . S
C1463 C1464 1.524 . S
C1464 C1463 1.524 . S
C1464 C1465 1.397 . S
C1464 C1469 1.363 . S
C1465 H1436 0.950 . S
C1465 C1464 1.397 . S
C1465 C1466 1.334 . S
C1466 H1437 0.950 . S
C1466 C1465 1.334 . S
C1466 C1467 1.287 . S
C1467 C1466 1.287 . S
C1467 C1468 1.524 . S
C1467 H1470 0.999 . S
C1468 H1438 0.950 . S
C1468 C1467 1.524 . S
C1468 C1469 1.415 . S
C1469 H1439 0.950 . S
C1469 C1464 1.363 . S
C1469 C1468 1.415 . S
H1470 C1467 0.999 . S
H1471 C1452 0.913 . S
H1472 C1490 0.951 . S
H1473 C1492 0.951 . S
H1474 C1494 0.950 . S
H1475 C1495 0.950 . S
H1476 C1497 0.950 . S
H1477 C1500 0.950 . S
H1478 C1501 0.950 . S
H1479 C1503 0.950 . S
H1480 C1504 0.950 . S
H1481 C1505 0.951 . S
H1482 C1507 0.951 . S
H1483 C1509 0.950 . S
H1484 C1510 0.950 . S
H1485 C1512 0.950 . S
H1486 C1515 0.950 . S
H1487 C1516 0.950 . S
H1488 C1518 0.950 . S
H1489 C1519 0.950 . S
C1490 H1472 0.951 . S
C1490 C1491 1.366 . S
C1490 C1492 1.388 . S
C1491 C1490 1.366 . S
C1491 C1495 1.385 . S
C1492 H1473 0.951 . S
C1492 C1490 1.388 . S
C1492 C1493 1.366 . S
C1493 C1492 1.366 . S
C1493 C1494 1.414 . S
C1493 C1496 1.499 . S
C1494 H1474 0.950 . S
C1494 C1493 1.414 . S
C1494 C1495 1.374 . S
C1495 H1475 0.950 . S
C1495 C1491 1.385 . S
C1495 C1494 1.374 . S
C1496 C1493 1.499 . S
C1496 C1497 1.373 . S
C1496 C1498 1.389 . S
C1497 H1476 0.950 . S
C1497 C1496 1.373 . S
C1497 C1513 1.377 . S
C1498 C1496 1.389 . S
C1498 C1499 1.524 . S
C1498 C1512 1.377 . S
C1499 C1498 1.524 . S
C1499 C1500 1.397 . S
C1499 C1504 1.363 . S
C1500 H1477 0.950 . S
C1500 C1499 1.397 . S
C1500 C1501 1.334 . S
C1501 H1478 0.950 . S
C1501 C1500 1.334 . S
C1501 C1502 1.287 . S
C1502 C1501 1.287 . S
C1502 C1503 1.524 . S
C1502 H1521 0.913 . S
C1503 H1479 0.950 . S
C1503 C1502 1.524 . S
C1503 C1504 1.415 . S
C1504 H1480 0.950 . S
C1504 C1499 1.363 . S
C1504 C1503 1.415 . S
C1505 H1481 0.951 . S
C1505 C1506 1.366 . S
C1505 C1507 1.388 . S
C1506 C1505 1.366 . S
C1506 C1510 1.385 . S
C1507 H1482 0.951 . S
C1507 C1505 1.388 . S
C1507 C1508 1.366 . S
C1508 C1507 1.366 . S
C1508 C1509 1.414 . S
C1508 C1511 1.499 1_556 S
C1509 H1483 0.950 . S
C1509 C1508 1.414 . S
C1509 C1510 1.374 . S
C1510 H1484 0.950 . S
C1510 C1506 1.385 . S
C1510 C1509 1.374 . S
C1511 C1508 1.499 1_554 S
C1511 C1512 1.373 . S
C1511 C1513 1.389 . S
C1512 H1485 0.950 . S
C1512 C1498 1.377 . S
C1512 C1511 1.373 . S
C1513 C1497 1.377 . S
C1513 C1511 1.389 . S
C1513 C1514 1.524 1_554 S
C1514 C1513 1.524 1_556 S
C1514 C1515 1.397 . S
C1514 C1519 1.363 . S
C1515 H1486 0.950 . S
C1515 C1514 1.397 . S
C1515 C1516 1.334 . S
C1516 H1487 0.950 . S
C1516 C1515 1.334 . S
C1516 C1517 1.287 . S
C1517 C1516 1.287 . S
C1517 C1518 1.524 . S
C1517 H1520 0.999 . S
C1518 H1488 0.950 . S
C1518 C1517 1.524 . S
C1518 C1519 1.415 . S
C1519 H1489 0.950 . S
C1519 C1514 1.363 . S
C1519 C1518 1.415 . S
H1520 C1517 0.999 . S
H1521 C1502 0.913 . S
H1522 C1540 0.951 . S
H1523 C1542 0.951 . S
H1524 C1544 0.950 . S
H1525 C1545 0.950 . S
H1526 C1547 0.950 . S
H1527 C1550 0.950 . S
H1528 C1551 0.950 . S
H1529 C1553 0.950 . S
H1530 C1554 0.950 . S
H1531 C1555 0.951 . S
H1532 C1557 0.951 . S
H1533 C1559 0.950 . S
H1534 C1560 0.950 . S
H1535 C1562 0.950 . S
H1536 C1565 0.950 . S
H1537 C1566 0.950 . S
H1538 C1568 0.950 . S
H1539 C1569 0.950 . S
C1540 H1522 0.951 . S
C1540 C1541 1.366 . S
C1540 C1542 1.388 . S
C1541 C1540 1.366 . S
C1541 C1545 1.385 . S
C1542 H1523 0.951 . S
C1542 C1540 1.388 . S
C1542 C1543 1.366 . S
C1543 C1542 1.366 . S
C1543 C1544 1.414 . S
C1543 C1546 1.499 . S
C1544 H1524 0.950 . S
C1544 C1543 1.414 . S
C1544 C1545 1.374 . S
C1545 H1525 0.950 . S
C1545 C1541 1.385 . S
C1545 C1544 1.374 . S
C1546 C1543 1.499 . S
C1546 C1547 1.373 . S
C1546 C1548 1.389 . S
C1547 H1526 0.950 . S
C1547 C1546 1.373 . S
C1547 C1563 1.377 . S
C1548 C1546 1.389 . S
C1548 C1549 1.524 . S
C1548 C1562 1.377 . S
C1549 C1548 1.524 . S
C1549 C1550 1.397 . S
C1549 C1554 1.363 . S
C1550 H1527 0.950 . S
C1550 C1549 1.397 . S
C1550 C1551 1.334 . S
C1551 H1528 0.950 . S
C1551 C1550 1.334 . S
C1551 C1552 1.287 . S
C1552 C1551 1.287 . S
C1552 C1553 1.524 . S
C1552 H1571 0.913 . S
C1553 H1529 0.950 . S
C1553 C1552 1.524 . S
C1553 C1554 1.415 . S
C1554 H1530 0.950 . S
C1554 C1549 1.363 . S
C1554 C1553 1.415 . S
C1555 H1531 0.951 . S
C1555 C1556 1.366 . S
C1555 C1557 1.388 . S
C1556 C1555 1.366 . S
C1556 C1560 1.385 . S
C1557 H1532 0.951 . S
C1557 C1555 1.388 . S
C1557 C1558 1.366 . S
C1558 C1557 1.366 . S
C1558 C1559 1.414 . S
C1558 C1561 1.499 . S
C1559 H1533 0.950 . S
C1559 C1558 1.414 . S
C1559 C1560 1.374 . S
C1560 H1534 0.950 . S
C1560 C1556 1.385 . S
C1560 C1559 1.374 . S
C1561 C1558 1.499 . S
C1561 C1562 1.373 . S
C1561 C1563 1.389 . S
C1562 H1535 0.950 . S
C1562 C1548 1.377 . S
C1562 C1561 1.373 . S
C1563 C1547 1.377 . S
C1563 C1561 1.389 . S
C1563 C1564 1.524 . S
C1564 C1563 1.524 . S
C1564 C1565 1.397 . S
C1564 C1569 1.363 . S
C1565 H1536 0.950 . S
C1565 C1564 1.397 . S
C1565 C1566 1.334 . S
C1566 H1537 0.950 . S
C1566 C1565 1.334 . S
C1566 C1567 1.287 . S
C1567 C1566 1.287 . S
C1567 C1568 1.524 . S
C1567 H1570 0.999 . S
C1568 H1538 0.950 . S
C1568 C1567 1.524 . S
C1568 C1569 1.415 . S
C1569 H1539 0.950 . S
C1569 C1564 1.363 . S
C1569 C1568 1.415 . S
H1570 C1567 0.999 . S
H1571 C1552 0.913 . S
C406 C365 1.559 . S
C391 C45 1.559 . S
C441 C84 1.444 . S
C456 C299 1.432 . S
C491 C126 1.343 . S
C506 C313 1.354 . S
C541 C189 1.453 . S
C556 C327 1.432 . S
C606 C341 1.478 . S
C591 C228 1.494 . S
C641 C270 1.475 . S
C656 C351 1.510 . S
C691 C69 1.548 . S
C706 C309 1.566 . S
C741 C141 1.650 . S
C756 C323 1.652 . S
C791 C174 1.533 . S
C806 C337 1.571 . S
C856 C355 1.457 . S
C841 C213 1.458 . S
C906 C369 1.490 . S
C891 C285 1.510 . S
C956 C295 1.536 . S
C941 C30 1.511 . S
C991 C36 1.498 . S
C1006 C310 1.441 . S
C1041 C93 1.587 . S
C1056 C324 1.528 . S
C1106 C338 1.536 . S
C1091 C117 1.590 . S
C1141 C180 1.469 . S
C1156 C357 1.402 . S
C1206 C371 1.369 . S
C1191 C237 1.439 . S
C1256 C296 1.412 . S
C1241 C261 1.465 . S
C1306 C366 1.412 . S
C1291 C78 1.458 . S
C1341 C132 1.346 . S
C1356 C301 1.287 . S
C1406 C315 1.295 . S
C1391 C165 1.347 . S
C1441 C222 1.441 . S
C1456 C329 1.378 . S
C1491 C276 1.470 . S
C1506 C343 1.404 . S
C1541 C21 1.499 . S
C1556 C352 1.447 . S
