# Generated by pormake.
# Topology sit, (3,6)-cn, num edge types: 1
# Building blocks:
#     Node 0, Type 0, BuildingBlock: BELTOD_clean_linker_0, # of connection points: 3
#     Node 1, Type 0, BuildingBlock: BELTOD_clean_linker_0, # of connection points: 3
#     Node 2, Type 0, BuildingBlock: BELTOD_clean_linker_0, # of connection points: 3
#     Node 3, Type 0, BuildingBlock: BELTOD_clean_linker_0, # of connection points: 3
#     Node 4, Type 1, BuildingBlock: MIDCAF_clean_sbu_0, # of connection points: 6
#     Node 5, Type 1, BuildingBlock: MIDCAF_clean_sbu_0, # of connection points: 6
#     Edge 6, Type (0, 1), BuildingBlock: FUNLAD_clean_linker_1, # of connection points: 2
#     Edge 7, Type (0, 1), BuildingBlock: FUNLAD_clean_linker_1, # of connection points: 2
#     Edge 8, Type (0, 1), BuildingBlock: FUNLAD_clean_linker_1, # of connection points: 2
#     Edge 9, Type (0, 1), BuildingBlock: FUNLAD_clean_linker_1, # of connection points: 2
#     Edge 10, Type (0, 1), BuildingBlock: FUNLAD_clean_linker_1, # of connection points: 2
#     Edge 11, Type (0, 1), BuildingBlock: FUNLAD_clean_linker_1, # of connection points: 2
#     Edge 12, Type (0, 1), BuildingBlock: FUNLAD_clean_linker_1, # of connection points: 2
#     Edge 13, Type (0, 1), BuildingBlock: FUNLAD_clean_linker_1, # of connection points: 2
#     Edge 14, Type (0, 1), BuildingBlock: FUNLAD_clean_linker_1, # of connection points: 2
#     Edge 15, Type (0, 1), BuildingBlock: FUNLAD_clean_linker_1, # of connection points: 2
#     Edge 16, Type (0, 1), BuildingBlock: FUNLAD_clean_linker_1, # of connection points: 2
#     Edge 17, Type (0, 1), BuildingBlock: FUNLAD_clean_linker_1, # of connection points: 2
# Relax obj value: 0.105
# Max RMSD: 0.192
# Mean RMSD: 0.101
data_MOF--net-sit--node1-MIDCAF_clean_sbu_0--node2-BELTOD_clean_linker_0--edge1-FUNLAD_clean_linker_1
_symmetry_space_group_name_H-M    P1
_symmetry_Int_Tables_number       1
_symmetry_cell_setting            triclinic
loop_
_symmetry_equiv_pos_as_xyz
'x, y, z'
_cell_length_a     27.164514
_cell_length_b     37.154692
_cell_length_c     41.425064
_cell_angle_alpha  90.38865
_cell_angle_beta   90.023448
_cell_angle_gamma 84.75837
loop_
_atom_site_label
_atom_site_type_symbol
_atom_site_fract_x
_atom_site_fract_y
_atom_site_fract_z
_atom_type_partial_charge
P0 P 0.08442 0.26103 0.96767 0.0
H1 H 0.16225 0.26475 0.91976 0.0
H2 H 0.22396 0.30725 0.91258 0.0
H3 H 0.18673 0.35464 0.00599 0.0
H4 H 0.12458 0.31142 0.01308 0.0
H5 H -0.00292 0.23397 0.99511 0.0
H6 H 0.98334 0.19721 0.04233 0.0
H7 H 0.13907 0.19342 0.06528 0.0
H8 H 0.15236 0.22998 0.01781 0.0
H9 H 0.03121 0.29124 0.91151 0.0
H10 H 0.03122 0.30945 0.01441 0.0
O11 O 0.08438 0.23284 0.93614 0.0
H12 H 0.96849 0.34219 0.90508 0.0
H13 H 0.96859 0.36024 0.00835 0.0
C14 C 0.13937 0.28451 0.96718 0.0
C15 C 0.16857 0.28329 0.93928 0.0
C16 C 0.20409 0.30775 0.93523 0.0
C17 C 0.21076 0.33413 0.95901 0.0
C18 C 0.18257 0.33446 0.98742 0.0
C19 C 0.14735 0.30965 0.99158 0.0
C20 C 0.07551 0.23531 0.00344 0.0
C21 C 0.02821 0.22532 0.01042 0.0
C22 C 0.02046 0.20412 0.03727 0.0
C23 C 0.06001 0.19185 0.05735 0.0
C24 C 0.10774 0.20159 0.05006 0.0
C25 C 0.1154 0.22299 0.02313 0.0
C26 C 0.03491 0.29613 0.96348 0.0
C27 C 0.01733 0.30598 0.93275 0.0
C28 C 0.98188 0.33529 0.92911 0.0
C29 C 0.96412 0.3557 0.95604 0.0
C30 C 0.98207 0.3458 0.9869 0.0
C31 C 0.01742 0.31633 0.9905 0.0
P32 P 0.03662 0.68261 0.08822 0.0
H33 H 0.1132 0.62269 0.09755 0.0
H34 H 0.18331 0.59907 0.06474 0.0
H35 H 0.14651 0.68262 0.99423 0.0
H36 H 0.07666 0.70635 0.02766 0.0
H37 H 0.95551 0.7357 0.10664 0.0
H38 H 0.95339 0.7988 0.12464 0.0
H39 H 0.10997 0.79729 0.10566 0.0
H40 H 0.11181 0.73462 0.08816 0.0
H41 H 0.98351 0.61814 0.0903 0.0
H42 H 0.97966 0.7157 0.03437 0.0
O43 O 0.03823 0.66247 0.12414 0.0
H44 H 0.92125 0.59531 0.05496 0.0
H45 H 0.91837 0.69309 -0.00144 0.0
C46 C 0.09031 0.66659 0.06523 0.0
C47 C 0.12046 0.63604 0.07512 0.0
C48 C 0.1603 0.62223 0.056 0.0
C49 C 0.17011 0.63864 0.02642 0.0
C50 C 0.13973 0.66932 0.01678 0.0
C51 C 0.09998 0.68301 0.03589 0.0
C52 C 0.0335 0.7307 0.09527 0.0
C53 C 0.98902 0.74935 0.10547 0.0
C54 C 0.98787 0.78537 0.11575 0.0
C55 C 0.03113 0.80342 0.11589 0.0
C56 C 0.0755 0.78484 0.10485 0.0
C57 C 0.07667 0.74873 0.09491 0.0
C58 C 0.98497 0.66908 0.06553 0.0
C59 C 0.96836 0.63504 0.07084 0.0
C60 C 0.9331 0.62189 0.05044 0.0
C61 C 0.91403 0.64238 0.02415 0.0
C62 C 0.93085 0.67668 0.01892 0.0
C63 C 0.96612 0.6898 0.03945 0.0
P64 P 0.57339 0.76984 0.47283 0.0
H65 H 0.67243 0.75763 0.44509 0.0
H66 H 0.7378 0.79782 0.43696 0.0
H67 H 0.65357 0.88155 0.49171 0.0
H68 H 0.58885 0.84121 0.5001 0.0
H69 H 0.49322 0.73441 0.50155 0.0
H70 H 0.4883 0.69576 0.54877 0.0
H71 H 0.64273 0.70574 0.56865 0.0
H72 H 0.64723 0.74433 0.52146 0.0
H73 H 0.52244 0.80019 0.41621 0.0
H74 H 0.5067 0.80892 0.51959 0.0
O75 O 0.57748 0.74175 0.44115 0.0
H76 H 0.45319 0.84626 0.40939 0.0
H77 H 0.43718 0.85457 0.51315 0.0
C78 C 0.62516 0.79678 0.47235 0.0
C79 C 0.66829 0.78448 0.45564 0.0
C80 C 0.70555 0.80746 0.451 0.0
C81 C 0.69997 0.84318 0.4627 0.0
C82 C 0.65817 0.85463 0.48135 0.0
C83 C 0.62122 0.83144 0.48633 0.0
C84 C 0.57026 0.74288 0.5085 0.0
C85 C 0.52592 0.72843 0.51623 0.0
C86 C 0.52323 0.70617 0.54305 0.0
C87 C 0.56516 0.69714 0.56214 0.0
C88 C 0.60991 0.71133 0.55407 0.0
C89 C 0.61241 0.7339 0.52732 0.0
C90 C 0.51881 0.80056 0.46834 0.0
C91 C 0.50357 0.81166 0.43744 0.0
C92 C 0.4643 0.83819 0.43361 0.0
C93 C 0.4401 0.85457 0.46061 0.0
C94 C 0.4554 0.84325 0.4917 0.0
C95 C 0.4947 0.81658 0.49547 0.0
P96 P 0.53611 0.14834 0.60742 0.0
H97 H 0.63492 0.17464 0.60023 0.0
H98 H 0.70631 0.15359 0.56711 0.0
H99 H 0.62862 0.06469 0.53221 0.0
H100 H 0.55718 0.08601 0.56516 0.0
H101 H 0.50555 0.18664 0.66657 0.0
H102 H 0.50478 0.24952 0.68364 0.0
H103 H 0.55857 0.27711 0.5895 0.0
H104 H 0.55903 0.21406 0.57275 0.0
H105 H 0.46228 0.0961 0.61387 0.0
H106 H 0.49528 0.17963 0.54766 0.0
O107 O 0.53739 0.12362 0.64095 0.0
H108 H 0.39716 0.07878 0.57775 0.0
H109 H 0.43099 0.1624 0.51136 0.0
C110 C 0.58983 0.1329 0.58401 0.0
C111 C 0.63282 0.15105 0.585 0.0
C112 C 0.67367 0.13895 0.56601 0.0
C113 C 0.67231 0.10808 0.54623 0.0
C114 C 0.63026 0.08886 0.54681 0.0
C115 C 0.58935 0.10119 0.56548 0.0
C116 C 0.53352 0.19548 0.61867 0.0
C117 C 0.51718 0.20621 0.64959 0.0
C118 C 0.5166 0.24228 0.65928 0.0
C119 C 0.53202 0.26858 0.63825 0.0
C120 C 0.54664 0.25796 0.60667 0.0
C121 C 0.54705 0.22169 0.59696 0.0
C122 C 0.4828 0.13977 0.58381 0.0
C123 C 0.45477 0.11131 0.59194 0.0
C124 C 0.41781 0.10124 0.57117 0.0
C125 C 0.40812 0.1195 0.54197 0.0
C126 C 0.43607 0.14834 0.53406 0.0
C127 C 0.47309 0.1583 0.55484 0.0
Zn128 Zn 0.03298 0.11545 0.34511 0.0
Zn129 Zn 0.0568 0.97164 0.353 0.0
Zn130 Zn 0.04759 0.04259 0.34874 0.0
C131 C 0.0627 0.98755 0.28771 0.0
C132 C 0.96434 0.99354 0.37693 0.0
O133 O 0.10667 0.0647 0.3772 0.0
O134 O 0.08628 0.1239 0.37659 0.0
C135 C 0.0567 0.08825 0.28302 0.0
O136 O 0.05801 0.02005 0.29912 0.0
O137 O 0.06333 0.96092 0.30651 0.0
O138 O -0.00703 0.96509 0.37347 0.0
O139 O 0.97845 0.02439 0.36875 0.0
O140 O 0.04909 0.1176 0.29848 0.0
O141 O 0.05612 0.05767 0.29744 0.0
O142 O 0.97549 0.06272 0.37016 0.0
O143 O 0.96333 0.12149 0.36065 0.0
C144 C 0.94882 0.09319 0.37265 0.0
O145 O 0.11136 0.02643 0.38077 0.0
O146 O 0.11599 0.96665 0.3803 0.0
C147 C 0.11477 0.09712 0.38563 0.0
C148 C 0.1321 0.99562 0.39 0.0
Zn149 Zn 0.52876 0.59182 0.84449 0.0
Zn150 Zn 0.59892 0.45295 0.84754 0.0
Zn151 Zn 0.56492 0.52129 0.84647 0.0
C152 C 0.58446 0.46977 0.78295 0.0
C153 C 0.50747 0.45795 0.87844 0.0
O154 O 0.61894 0.55276 0.87126 0.0
O155 O 0.58428 0.60915 0.87025 0.0
C156 C 0.54897 0.56863 0.78097 0.0
O157 O 0.5713 0.5009 0.79573 0.0
O158 O 0.59947 0.44353 0.80069 0.0
O159 O 0.5441 0.43541 0.87291 0.0
O160 O 0.50823 0.49125 0.87006 0.0
O161 O 0.53121 0.596 0.79679 0.0
O162 O 0.56241 0.53882 0.79556 0.0
O163 O 0.49395 0.52883 0.87267 0.0
O164 O 0.46573 0.5863 0.86722 0.0
C165 C 0.46105 0.55529 0.87847 0.0
O166 O 0.63427 0.51543 0.87512 0.0
O167 O 0.66135 0.45768 0.87017 0.0
C168 C 0.61979 0.58661 0.87813 0.0
C169 C 0.66647 0.48876 0.8814 0.0
H170 H 0.01088 0.1726 0.09472 0.0
C171 C 0.04909 0.17092 0.08652 0.0
H172 H 0.12123 0.14619 0.0955 0.0
H173 H 0.00524 0.14941 0.23766 0.0
H174 H 0.00261 0.21466 0.23405 0.0
H175 H 0.03332 0.24353 0.18549 0.0
H176 H 0.06546 0.20742 0.14007 0.0
C177 C 0.08327 0.15082 0.10373 0.0
C178 C 0.06952 0.13339 0.13431 0.0
C179 C 0.05343 0.15503 0.16134 0.0
C180 C 0.03885 0.13838 0.19013 0.0
C181 C 0.01944 0.16062 0.2159 0.0
C182 C 0.01726 0.19813 0.21403 0.0
C183 C 0.03431 0.21438 0.18665 0.0
C184 C 0.05228 0.19325 0.16058 0.0
H185 H 0.10072 0.10615 0.2433 0.0
C186 C 0.07 0.09039 0.24883 0.0
H187 H 0.00595 0.06942 0.23011 0.0
H188 H 0.09655 0.08413 0.08669 0.0
H189 H 0.09958 0.01876 0.09085 0.0
H190 H 0.07642 0.99007 0.14146 0.0
H191 H 0.04958 0.02672 0.1882 0.0
C192 C 0.03855 0.08336 0.2251 0.0
C193 C 0.04401 0.10014 0.19282 0.0
C194 C 0.05845 0.07855 0.16556 0.0
C195 C 0.07158 0.09518 0.13631 0.0
C196 C 0.08636 0.07292 0.10952 0.0
C197 C 0.08819 0.03539 0.11157 0.0
C198 C 0.07517 0.01921 0.14009 0.0
C199 C 0.06033 0.04045 0.16682 0.0
H200 H 0.00273 0.84528 0.1508 0.0
C201 C 0.03021 0.83938 0.13194 0.0
H202 H 0.09082 0.85851 0.10748 0.0
H203 H 0.98351 0.9814 0.21382 0.0
H204 H 0.91325 0.98665 0.17712 0.0
H205 H 0.91423 0.95029 0.12697 0.0
H206 H 0.9853 0.90804 0.11343 0.0
C207 C 0.0635 0.8634 0.12648 0.0
C208 C 0.06843 0.89369 0.14977 0.0
C209 C 0.02761 0.91917 0.15661 0.0
C210 C 0.02749 0.94071 0.18513 0.0
C211 C 0.98536 0.96459 0.19236 0.0
C212 C 0.94501 0.96793 0.17145 0.0
C213 C 0.94555 0.94743 0.14321 0.0
C214 C 0.98627 0.9232 0.13579 0.0
H215 H 0.07434 1.00271 0.23673 0.0
C216 C 0.0671 0.98076 0.2526 0.0
H217 H 0.05548 0.92559 0.25681 0.0
H218 H 0.15769 0.8542 0.13952 0.0
H219 H 0.23072 0.85432 0.17315 0.0
H220 H 0.23076 0.89295 0.22185 0.0
H221 H 0.15728 0.93172 0.2372 0.0
C222 C 0.06237 0.9475 0.24065 0.0
C223 C 0.06865 0.93725 0.20614 0.0
C224 C 0.11217 0.91601 0.19668 0.0
C225 C 0.11218 0.89408 0.16843 0.0
C226 C 0.15554 0.87166 0.16054 0.0
C227 C 0.1978 0.87146 0.17966 0.0
C228 C 0.19782 0.89318 0.2071 0.0
C229 C 0.1555 0.91516 0.21571 0.0
H230 H 0.52325 0.67481 0.60179 0.0
C231 C 0.55993 0.67468 0.5912 0.0
H232 H 0.63466 0.65319 0.59516 0.0
H233 H 0.61247 0.64303 0.74751 0.0
H234 H 0.66925 0.68943 0.74247 0.0
H235 H 0.69064 0.71227 0.68897 0.0
H236 H 0.65559 0.68873 0.6402 0.0
C237 C 0.5976 0.6545 0.60512 0.0
C238 C 0.5903 0.63679 0.63664 0.0
C239 C 0.61166 0.65055 0.6648 0.0
C240 C 0.5988 0.63776 0.69562 0.0
C241 C 0.62034 0.65219 0.72347 0.0
C242 C 0.65314 0.67874 0.72093 0.0
C243 C 0.66523 0.69156 0.69082 0.0
C244 C 0.64481 0.67779 0.663 0.0
H245 H 0.5799 0.55014 0.73354 0.0
C246 C 0.5584 0.57205 0.74606 0.0
H247 H 0.52533 0.62557 0.74345 0.0
H248 H 0.55087 0.59985 0.58711 0.0
H249 H 0.49553 0.55231 0.592 0.0
H250 H 0.47057 0.53169 0.64557 0.0
H251 H 0.50104 0.55819 0.69454 0.0
C252 C 0.54524 0.60315 0.73061 0.0
C253 C 0.5646 0.61127 0.6982 0.0
C254 C 0.54593 0.59566 0.66995 0.0
C255 C 0.55926 0.60821 0.63906 0.0
C256 C 0.54082 0.5919 0.61113 0.0
C257 C 0.50928 0.56451 0.61361 0.0
C258 C 0.4953 0.55285 0.64379 0.0
C259 C 0.51315 0.56823 0.67172 0.0
H260 H 0.52547 0.30989 0.67676 0.0
C261 C 0.53421 0.3059 0.65127 0.0
H262 H 0.55889 0.33221 0.60967 0.0
H263 H 0.48999 0.44568 0.7335 0.0
H264 H 0.4063 0.43314 0.72045 0.0
H265 H 0.3898 0.39224 0.67531 0.0
H266 H 0.45753 0.36307 0.6433 0.0
C267 C 0.54846 0.33442 0.63488 0.0
C268 C 0.55576 0.36857 0.65277 0.0
C269 C 0.5159 0.38709 0.66993 0.0
C270 C 0.52542 0.41151 0.6953 0.0
C271 C 0.48509 0.42742 0.71363 0.0
C272 C 0.43674 0.42046 0.70636 0.0
C273 C 0.42744 0.39738 0.68098 0.0
C274 C 0.46648 0.38072 0.66294 0.0
H275 H 0.56078 0.48474 0.73294 0.0
C276 C 0.57785 0.46323 0.74796 0.0
H277 H 0.6061 0.40853 0.75065 0.0
H278 H 0.63893 0.34506 0.61857 0.0
H279 H 0.72188 0.36249 0.62779 0.0
H280 H 0.73804 0.40617 0.67082 0.0
H281 H 0.67107 0.43261 0.70505 0.0
C282 C 0.58795 0.42971 0.73569 0.0
C283 C 0.57486 0.41804 0.70262 0.0
C284 C 0.61355 0.40408 0.68193 0.0
C285 C 0.6041 0.37921 0.65694 0.0
C286 C 0.64404 0.36421 0.63778 0.0
C287 C 0.69178 0.37403 0.6428 0.0
C288 C 0.7009 0.3986 0.66706 0.0
C289 C 0.66237 0.41344 0.68657 0.0
H290 H 0.23302 0.38979 0.96434 0.0
C291 C 0.24319 0.36352 0.9533 0.0
H292 H 0.29463 0.33296 0.92355 0.0
H293 H 0.37048 0.45006 0.83668 0.0
H294 H 0.31703 0.42147 0.79946 0.0
H295 H 0.25945 0.3788 0.81899 0.0
H296 H 0.25539 0.36421 0.87586 0.0
C297 C 0.28363 0.35907 0.93452 0.0
C298 C 0.31135 0.38985 0.92442 0.0
C299 C 0.31229 0.39886 0.89122 0.0
C300 C 0.34483 0.42391 0.88002 0.0
C301 C 0.34624 0.43143 0.84657 0.0
C302 C 0.31566 0.41524 0.82491 0.0
C303 C 0.2833 0.39118 0.8359 0.0
C304 C 0.2815 0.38294 0.86861 0.0
H305 H 0.47061 0.41978 0.90804 0.0
C306 C 0.46438 0.44473 0.89444 0.0
H307 H 0.41059 0.48213 0.87384 0.0
H308 H 0.31693 0.38063 0.9902 0.0
H309 H 0.36328 0.41459 0.02782 0.0
H310 H 0.41426 0.46175 0.00854 0.0
H311 H 0.42005 0.47447 0.95127 0.0
C312 C 0.4179 0.45922 0.8898 0.0
C313 C 0.37596 0.44013 0.90215 0.0
C314 C 0.37079 0.43435 0.93572 0.0
C315 C 0.33944 0.40844 0.9469 0.0
C316 C 0.3383 0.4011 0.98038 0.0
C317 C 0.36504 0.42027 0.00227 0.0
C318 C 0.39388 0.44673 0.99142 0.0
C319 C 0.39708 0.45366 0.95853 0.0
H320 H 0.87434 0.59749 0.00474 0.0
C321 C 0.87826 0.62624 0.00237 0.0
H322 H 0.85138 0.67377 0.97745 0.0
H323 H 0.77046 0.59663 0.85567 0.0
H324 H 0.84422 0.61896 0.8333 0.0
H325 H 0.90538 0.64465 0.86865 0.0
H326 H 0.89285 0.64854 0.92661 0.0
C327 C 0.84925 0.64508 0.98089 0.0
C328 C 0.81399 0.62704 0.96012 0.0
C329 C 0.82218 0.62448 0.92635 0.0
C330 C 0.78733 0.6091 0.90602 0.0
C331 C 0.79592 0.60769 0.8723 0.0
C332 C 0.83813 0.62043 0.85911 0.0
C333 C 0.87255 0.63493 0.87902 0.0
C334 C 0.86484 0.63705 0.91224 0.0
H335 H 0.65188 0.62425 0.91161 0.0
C336 C 0.66013 0.59974 0.89738 0.0
H337 H 0.71597 0.5606 0.8816 0.0
H338 H 0.78549 0.62918 0.02378 0.0
H339 H 0.71554 0.60236 0.04661 0.0
H340 H 0.65932 0.5707 0.01192 0.0
H341 H 0.67207 0.56657 0.95414 0.0
C342 C 0.70594 0.58294 0.89801 0.0
C343 C 0.74455 0.59602 0.91956 0.0
C344 C 0.73792 0.59656 0.95358 0.0
C345 C 0.77187 0.61304 0.97379 0.0
C346 C 0.76229 0.61554 0.00739 0.0
C347 C 0.722 0.60045 0.02085 0.0
C348 C 0.69025 0.58277 0.00131 0.0
C349 C 0.69787 0.58081 0.96809 0.0
H350 H 0.90485 0.38531 0.92808 0.0
C351 C 0.92486 0.3855 0.95086 0.0
H352 H 0.93021 0.41442 0.99521 0.0
H353 H 0.802 0.5222 0.89236 0.0
H354 H 0.88146 0.54731 0.88626 0.0
H355 H 0.95475 0.52193 0.91654 0.0
H356 H 0.94915 0.47117 0.95319 0.0
C357 C 0.91151 0.41199 0.97228 0.0
C358 C 0.86696 0.43669 0.96512 0.0
C359 C 0.87071 0.46667 0.94473 0.0
C360 C 0.82857 0.48126 0.92733 0.0
C361 C 0.83325 0.51028 0.90603 0.0
C362 C 0.87843 0.52487 0.90243 0.0
C363 C 0.91976 0.51055 0.91949 0.0
C364 C 0.91623 0.48152 0.94028 0.0
H365 H 0.70343 0.51389 0.92246 0.0
C366 C 0.70741 0.49298 0.90403 0.0
H367 H 0.75072 0.44748 0.88575 0.0
H368 H 0.84575 0.38663 0.00957 0.0
H369 H 0.76484 0.36529 0.0195 0.0
H370 H 0.69153 0.3903 0.989 0.0
H371 H 0.69859 0.43675 0.94849 0.0
C372 C 0.74696 0.46869 0.90403 0.0
C373 C 0.78339 0.46559 0.93058 0.0
C374 C 0.778 0.43969 0.9549 0.0
C375 C 0.82004 0.42528 0.97238 0.0
C376 C 0.81459 0.39822 0.99561 0.0
C377 C 0.76851 0.3859 0.00154 0.0
C378 C 0.72723 0.39998 0.98436 0.0
C379 C 0.73174 0.42649 0.96116 0.0
H380 H 0.22254 0.64392 0.98652 0.0
C381 C 0.21233 0.62569 0.00535 0.0
H382 H 0.22819 0.57298 0.02452 0.0
H383 H 0.33189 0.52274 0.89134 0.0
H384 H 0.26605 0.48291 0.89481 0.0
H385 H 0.20661 0.48836 0.93993 0.0
H386 H 0.212 0.53419 0.98159 0.0
C387 C 0.23835 0.59317 0.0076 0.0
C388 C 0.28044 0.58374 0.9852 0.0
C389 C 0.27746 0.55617 0.96164 0.0
C390 C 0.31233 0.55257 0.93594 0.0
C391 C 0.30711 0.52609 0.91176 0.0
C392 C 0.26939 0.50314 0.91341 0.0
C393 C 0.23582 0.50628 0.93879 0.0
C394 C 0.23933 0.53267 0.96253 0.0
H395 H 0.42409 0.52712 0.91704 0.0
C396 C 0.42078 0.55052 0.90142 0.0
H397 H 0.38102 0.60058 0.89134 0.0
H398 H 0.30423 0.63208 0.03152 0.0
H399 H 0.37337 0.66912 0.03028 0.0
H400 H 0.43287 0.66399 0.98512 0.0
H401 H 0.42382 0.62166 0.94115 0.0
C402 C 0.38345 0.57625 0.90589 0.0
C403 C 0.35045 0.57614 0.9344 0.0
C404 C 0.35614 0.60129 0.9597 0.0
C405 C 0.32145 0.60474 0.98537 0.0
C406 C 0.32868 0.62931 0.01086 0.0
C407 C 0.36844 0.65047 0.01059 0.0
C408 C 0.40196 0.64755 0.9852 0.0
C409 C 0.39617 0.62324 0.96003 0.0
H410 H 0.77413 0.85562 0.44722 0.0
C411 C 0.73756 0.86785 0.45383 0.0
H412 H 0.69088 0.91697 0.45478 0.0
H413 H 0.88456 1.00387 0.45484 0.0
H414 H 0.84566 0.02455 0.50539 0.0
H415 H 0.76903 1.00029 0.52392 0.0
H416 H 0.73112 0.95476 0.49227 0.0
C417 C 0.72719 0.90364 0.44938 0.0
C418 C 0.76499 0.92523 0.43493 0.0
C419 C 0.78569 0.95234 0.45336 0.0
C420 C 0.82954 0.96665 0.44251 0.0
C421 C 0.85099 0.99247 0.46193 0.0
C422 C 0.82904 1.00453 0.49092 0.0
C423 C 0.78589 0.99083 0.50138 0.0
C424 C 0.76453 0.96475 0.48305 0.0
H425 H 0.8851 0.01175 0.38351 0.0
C426 C 0.91394 0.99066 0.38913 0.0
H427 H 0.9318 0.93983 0.41065 0.0
H428 H 0.7248 0.88304 0.38928 0.0
H429 H 0.75957 0.86645 0.33663 0.0
H430 H 0.83706 0.88979 0.31847 0.0
H431 H 0.87985 0.9302 0.35268 0.0
C432 C 0.90307 0.96128 0.40534 0.0
C433 C 0.85169 0.95413 0.4131 0.0
C434 C 0.82741 0.93056 0.39284 0.0
C435 C 0.78352 0.91647 0.40358 0.0
C436 C 0.75926 0.89351 0.38266 0.0
C437 C 0.77859 0.88404 0.35231 0.0
C438 C 0.82217 0.89722 0.34207 0.0
C439 C 0.84645 0.92026 0.36198 0.0
H440 H 0.36068 0.07899 0.5227 0.0
C441 C 0.37046 0.10653 0.51979 0.0
H442 H 0.35486 0.15511 0.49374 0.0
H443 H 0.26869 0.09052 0.36847 0.0
H444 H 0.3484 0.1056 0.34914 0.0
H445 H 0.41192 0.12336 0.38716 0.0
H446 H 0.39576 0.12671 0.44475 0.0
C447 C 0.34668 0.12737 0.49724 0.0
C448 C 0.31 0.11295 0.47506 0.0
C449 C 0.3204 0.11038 0.44154 0.0
C450 C 0.28421 0.09936 0.41968 0.0
C451 C 0.295 0.09827 0.38622 0.0
C452 C 0.34066 0.10687 0.37477 0.0
C453 C 0.37641 0.11689 0.39618 0.0
C454 C 0.36659 0.11876 0.42917 0.0
H455 H 0.15113 0.12795 0.42273 0.0
C456 C 0.15565 0.10398 0.40741 0.0
H457 H 0.20497 0.06084 0.39096 0.0
H458 H 0.27672 0.11633 0.53778 0.0
H459 H 0.20028 0.09588 0.55754 0.0
H460 H 0.14125 0.07082 0.52019 0.0
H461 H 0.15779 0.06707 0.46278 0.0
C462 C 0.19819 0.08272 0.40834 0.0
C463 C 0.23798 0.09035 0.43147 0.0
C464 C 0.22896 0.09039 0.46525 0.0
C465 C 0.26431 0.10283 0.48698 0.0
C466 C 0.25247 0.10543 0.52028 0.0
C467 C 0.20846 0.09402 0.53198 0.0
C468 C 0.17514 0.08005 0.51095 0.0
C469 C 0.185 0.07827 0.47797 0.0
H470 H 0.38218 0.88328 0.43083 0.0
C471 C 0.39814 0.88223 0.45497 0.0
H472 H 0.39268 0.9064 0.50173 0.0
H473 H 0.26429 1.00551 0.38938 0.0
H474 H 0.34423 0.02467 0.37439 0.0
H475 H 0.41983 1.002 0.40359 0.0
H476 H 0.416 0.95888 0.44745 0.0
C477 C 0.37855 0.90586 0.47727 0.0
C478 C 0.33365 0.92976 0.46885 0.0
C479 C 0.33612 0.95627 0.44465 0.0
C480 C 0.29236 0.97017 0.42856 0.0
C481 C 0.29623 0.99466 0.40288 0.0
C482 C 0.34189 1.00591 0.39407 0.0
C483 C 0.38452 0.99301 0.41042 0.0
C484 C 0.38192 0.96828 0.43536 0.0
H485 H 0.18196 0.01656 0.42677 0.0
C486 C 0.17458 0.99335 0.41229 0.0
H487 H 0.19598 0.93859 0.40138 0.0
H488 H 0.31588 0.88643 0.51979 0.0
H489 H 0.23531 0.87118 0.53815 0.0
H490 H 0.15896 0.89623 0.51095 0.0
H491 H 0.16275 0.93661 0.46513 0.0
C492 C 0.20379 0.96244 0.41513 0.0
C493 C 0.24637 0.95806 0.43752 0.0
C494 C 0.24334 0.93571 0.46484 0.0
C495 C 0.28718 0.92152 0.48063 0.0
C496 C 0.28349 0.89795 0.50702 0.0
C497 C 0.23755 0.88908 0.51779 0.0
C498 C 0.19455 0.90317 0.50247 0.0
C499 C 0.1972 0.92616 0.47619 0.0
H500 H 0.71841 0.06673 0.51816 0.0
C501 C 0.71378 0.09527 0.52461 0.0
H502 H 0.73815 0.14674 0.51552 0.0
H503 H 0.95057 0.0921 0.46608 0.0
H504 H 0.97007 0.11266 0.51979 0.0
H505 H 0.90394 0.12964 0.55929 0.0
H506 H 0.8178 0.12623 0.54521 0.0
C507 C 0.74255 0.11796 0.51026 0.0
C508 C 0.78201 0.10474 0.48712 0.0
C509 C 0.83214 0.10665 0.49578 0.0
C510 C 0.87023 0.09638 0.47315 0.0
C511 C 0.92003 0.09906 0.48238 0.0
C512 C 0.93181 0.11092 0.51316 0.0
C513 C 0.89458 0.12052 0.53538 0.0
C514 C 0.84528 0.11852 0.52693 0.0
H515 H 0.87637 0.11947 0.38788 0.0
C516 C 0.90328 0.09648 0.39213 0.0
H517 H 0.92737 0.05475 0.42415 0.0
H518 H 0.68934 0.09822 0.46241 0.0
H519 H 0.67008 0.07386 0.41004 0.0
H520 H 0.73644 0.05361 0.37164 0.0
H521 H 0.82231 0.05828 0.38527 0.0
C522 C 0.89819 0.0755 0.41794 0.0
C523 C 0.85803 0.08428 0.44185 0.0
C524 C 0.80795 0.08103 0.43359 0.0
C525 C 0.7698 0.09166 0.45613 0.0
C526 C 0.71999 0.08941 0.44677 0.0
C527 C 0.70834 0.07567 0.41665 0.0
C528 C 0.74568 0.06435 0.39501 0.0
C529 C 0.79491 0.06715 0.40316 0.0
loop_
_geom_bond_atom_site_label_1
_geom_bond_atom_site_label_2
_geom_bond_distance
_geom_bond_site_symmetry_2
_ccdc_geom_bond_type
P0 O11 1.490 . S
P0 C14 1.812 . S
P0 C20 1.803 1_556 S
P0 C26 1.819 . S
H1 C15 0.941 . S
H2 C16 0.939 . S
H3 C18 0.940 . S
H4 C19 0.940 1_554 S
H5 C21 0.939 . S
H6 C22 0.942 . S
H7 C24 0.940 . S
H8 C25 0.939 . S
H9 C27 0.941 . S
H10 C31 0.939 . S
O11 P0 1.490 . S
H12 C28 0.939 . S
H13 C30 0.940 1_655 S
C14 P0 1.812 . S
C14 C15 1.389 . S
C14 C19 1.391 . S
C15 H1 0.941 . S
C15 C14 1.389 . S
C15 C16 1.397 . S
C16 H2 0.939 . S
C16 C15 1.397 . S
C16 C17 1.378 . S
C17 C16 1.378 . S
C17 C18 1.378 . S
C18 H3 0.940 . S
C18 C17 1.378 . S
C18 C19 1.396 . S
C19 H4 0.940 1_556 S
C19 C14 1.391 . S
C19 C18 1.396 . S
C20 P0 1.803 1_554 S
C20 C21 1.378 . S
C20 C25 1.400 . S
C21 H5 0.939 . S
C21 C20 1.378 . S
C21 C22 1.361 . S
C22 H6 0.942 . S
C22 C21 1.361 . S
C22 C23 1.369 . S
C23 C22 1.369 . S
C23 C24 1.404 . S
C24 H7 0.940 . S
C24 C23 1.404 . S
C24 C25 1.389 . S
C25 H8 0.939 . S
C25 C20 1.400 . S
C25 C24 1.389 . S
C26 P0 1.819 . S
C26 C27 1.391 . S
C26 C31 1.391 1_556 S
C27 H9 0.941 . S
C27 C26 1.391 . S
C27 C28 1.396 . S
C28 H12 0.939 . S
C28 C27 1.396 . S
C28 C29 1.397 1_455 S
C29 C28 1.397 1_655 S
C29 C30 1.385 1_656 S
C30 H13 0.940 1_455 S
C30 C29 1.385 1_454 S
C30 C31 1.388 . S
C31 H10 0.939 . S
C31 C26 1.391 1_554 S
C31 C30 1.388 . S
P32 O43 1.490 . S
P32 C46 1.812 . S
P32 C52 1.803 . S
P32 C58 1.819 1_455 S
H33 C47 0.941 . S
H34 C48 0.939 . S
H35 C50 0.940 . S
H36 C51 0.940 . S
H37 C53 0.939 . S
H38 C54 0.942 . S
H39 C56 0.940 . S
H40 C57 0.939 . S
H41 C59 0.941 . S
H42 C63 0.939 . S
O43 P32 1.490 . S
H44 C60 0.939 . S
H45 C62 0.940 1_556 S
C46 P32 1.812 . S
C46 C47 1.389 . S
C46 C51 1.391 1_554 S
C47 H33 0.941 . S
C47 C46 1.389 . S
C47 C48 1.397 . S
C48 H34 0.939 . S
C48 C47 1.397 . S
C48 C49 1.378 1_554 S
C49 C48 1.378 1_556 S
C49 C50 1.378 . S
C50 H35 0.940 . S
C50 C49 1.378 . S
C50 C51 1.396 . S
C51 H36 0.940 . S
C51 C46 1.391 1_556 S
C51 C50 1.396 . S
C52 P32 1.803 . S
C52 C53 1.378 1_455 S
C52 C57 1.400 . S
C53 H37 0.939 . S
C53 C52 1.378 1_655 S
C53 C54 1.361 . S
C54 H38 0.942 . S
C54 C53 1.361 . S
C54 C55 1.369 1_655 S
C55 C54 1.369 1_455 S
C55 C56 1.404 . S
C56 H39 0.940 . S
C56 C55 1.404 . S
C56 C57 1.389 . S
C57 H40 0.939 . S
C57 C52 1.400 . S
C57 C56 1.389 . S
C58 P32 1.819 1_655 S
C58 C59 1.391 . S
C58 C63 1.391 . S
C59 H41 0.941 . S
C59 C58 1.391 . S
C59 C60 1.396 1_554 S
C60 H44 0.939 . S
C60 C59 1.396 1_556 S
C60 C61 1.397 . S
C61 C60 1.397 . S
C61 C62 1.385 1_556 S
C62 H45 0.940 1_554 S
C62 C61 1.385 1_554 S
C62 C63 1.388 . S
C63 H42 0.939 . S
C63 C58 1.391 . S
C63 C62 1.388 . S
P64 O75 1.490 . S
P64 C78 1.812 . S
P64 C84 1.803 . S
P64 C90 1.819 . S
H65 C79 0.941 . S
H66 C80 0.939 . S
H67 C82 0.940 . S
H68 C83 0.940 . S
H69 C85 0.939 . S
H70 C86 0.942 . S
H71 C88 0.940 . S
H72 C89 0.939 . S
H73 C91 0.941 . S
H74 C95 0.939 . S
O75 P64 1.490 . S
H76 C92 0.939 . S
H77 C94 0.940 . S
C78 P64 1.812 . S
C78 C79 1.389 . S
C78 C83 1.391 . S
C79 H65 0.941 . S
C79 C78 1.389 . S
C79 C80 1.397 . S
C80 H66 0.939 . S
C80 C79 1.397 . S
C80 C81 1.378 . S
C81 C80 1.378 . S
C81 C82 1.378 . S
C82 H67 0.940 . S
C82 C81 1.378 . S
C82 C83 1.396 . S
C83 H68 0.940 . S
C83 C78 1.391 . S
C83 C82 1.396 . S
C84 P64 1.803 . S
C84 C85 1.378 . S
C84 C89 1.400 . S
C85 H69 0.939 . S
C85 C84 1.378 . S
C85 C86 1.361 . S
C86 H70 0.942 . S
C86 C85 1.361 . S
C86 C87 1.369 . S
C87 C86 1.369 . S
C87 C88 1.404 . S
C88 H71 0.940 . S
C88 C87 1.404 . S
C88 C89 1.389 . S
C89 H72 0.939 . S
C89 C84 1.400 . S
C89 C88 1.389 . S
C90 P64 1.819 . S
C90 C91 1.391 . S
C90 C95 1.391 . S
C91 H73 0.941 . S
C91 C90 1.391 . S
C91 C92 1.396 . S
C92 H76 0.939 . S
C92 C91 1.396 . S
C92 C93 1.397 . S
C93 C92 1.397 . S
C93 C94 1.385 . S
C94 H77 0.940 . S
C94 C93 1.385 . S
C94 C95 1.388 . S
C95 H74 0.939 . S
C95 C90 1.391 . S
C95 C94 1.388 . S
P96 O107 1.490 . S
P96 C110 1.812 . S
P96 C116 1.803 . S
P96 C122 1.819 . S
H97 C111 0.941 . S
H98 C112 0.939 . S
H99 C114 0.940 . S
H100 C115 0.940 . S
H101 C117 0.939 . S
H102 C118 0.942 . S
H103 C120 0.940 . S
H104 C121 0.939 . S
H105 C123 0.941 . S
H106 C127 0.939 . S
O107 P96 1.490 . S
H108 C124 0.939 . S
H109 C126 0.940 . S
C110 P96 1.812 . S
C110 C111 1.389 . S
C110 C115 1.391 . S
C111 H97 0.941 . S
C111 C110 1.389 . S
C111 C112 1.397 . S
C112 H98 0.939 . S
C112 C111 1.397 . S
C112 C113 1.378 . S
C113 C112 1.378 . S
C113 C114 1.378 . S
C114 H99 0.940 . S
C114 C113 1.378 . S
C114 C115 1.396 . S
C115 H100 0.940 . S
C115 C110 1.391 . S
C115 C114 1.396 . S
C116 P96 1.803 . S
C116 C117 1.378 . S
C116 C121 1.400 . S
C117 H101 0.939 . S
C117 C116 1.378 . S
C117 C118 1.361 . S
C118 H102 0.942 . S
C118 C117 1.361 . S
C118 C119 1.369 . S
C119 C118 1.369 . S
C119 C120 1.404 . S
C120 H103 0.940 . S
C120 C119 1.404 . S
C120 C121 1.389 . S
C121 H104 0.939 . S
C121 C116 1.400 . S
C121 C120 1.389 . S
C122 P96 1.819 . S
C122 C123 1.391 . S
C122 C127 1.391 . S
C123 H105 0.941 . S
C123 C122 1.391 . S
C123 C124 1.396 . S
C124 H108 0.939 . S
C124 C123 1.396 . S
C124 C125 1.397 . S
C125 C124 1.397 . S
C125 C126 1.385 . S
C126 H109 0.940 . S
C126 C125 1.385 . S
C126 C127 1.388 . S
C127 H106 0.939 . S
C127 C122 1.391 . S
C127 C126 1.388 . S
Zn128 O134 1.920 . S
Zn128 O140 1.898 . S
Zn128 O143 1.905 1_455 S
Zn129 O137 1.905 . S
Zn129 O138 1.898 . S
Zn129 O146 1.920 . S
Zn130 O133 2.080 . S
Zn130 O136 2.114 1_545 S
Zn130 O139 2.120 1_545 S
Zn130 O141 2.120 . S
Zn130 O142 2.114 1_455 S
Zn130 O145 2.080 1_545 S
C131 O136 1.166 . S
C131 O137 1.182 . S
C132 O138 1.167 . S
C132 O139 1.299 . S
O133 Zn130 2.080 . S
O133 C147 1.305 . S
O134 Zn128 1.920 . S
O134 C147 1.234 . S
C135 O140 1.167 . S
C135 O141 1.299 . S
O136 Zn130 2.114 1_565 S
O136 C131 1.166 . S
O137 Zn129 1.905 . S
O137 C131 1.182 . S
O138 Zn129 1.898 . S
O138 C132 1.167 . S
O139 Zn130 2.120 1_565 S
O139 C132 1.299 . S
O140 Zn128 1.898 . S
O140 C135 1.167 . S
O141 Zn130 2.120 . S
O141 C135 1.299 . S
O142 Zn130 2.114 1_655 S
O142 C144 1.166 . S
O143 Zn128 1.905 1_655 S
O143 C144 1.182 . S
C144 O142 1.166 . S
C144 O143 1.182 . S
O145 Zn130 2.080 1_565 S
O145 C148 1.305 . S
O146 Zn129 1.920 . S
O146 C148 1.234 . S
C147 O133 1.305 . S
C147 O134 1.234 . S
C148 O145 1.305 . S
C148 O146 1.234 . S
Zn149 O155 1.920 . S
Zn149 O161 1.898 . S
Zn149 O164 1.905 . S
Zn150 O158 1.905 . S
Zn150 O159 1.898 . S
Zn150 O167 1.920 . S
Zn151 O154 2.080 . S
Zn151 O157 2.114 . S
Zn151 O160 2.120 . S
Zn151 O162 2.120 . S
Zn151 O163 2.114 . S
Zn151 O166 2.080 . S
C152 O157 1.166 . S
C152 O158 1.182 . S
C153 O159 1.167 . S
C153 O160 1.299 . S
O154 Zn151 2.080 . S
O154 C168 1.305 . S
O155 Zn149 1.920 . S
O155 C168 1.234 . S
C156 O161 1.167 . S
C156 O162 1.299 . S
O157 Zn151 2.114 . S
O157 C152 1.166 . S
O158 Zn150 1.905 . S
O158 C152 1.182 . S
O159 Zn150 1.898 . S
O159 C153 1.167 . S
O160 Zn151 2.120 . S
O160 C153 1.299 . S
O161 Zn149 1.898 . S
O161 C156 1.167 . S
O162 Zn151 2.120 . S
O162 C156 1.299 . S
O163 Zn151 2.114 . S
O163 C165 1.166 . S
O164 Zn149 1.905 . S
O164 C165 1.182 . S
C165 O163 1.166 . S
C165 O164 1.182 . S
O166 Zn151 2.080 . S
O166 C169 1.305 . S
O167 Zn150 1.920 . S
O167 C169 1.234 . S
C168 O154 1.305 . S
C168 O155 1.234 . S
C169 O166 1.305 . S
C169 O167 1.234 . S
H170 C171 0.951 . S
C171 H170 0.951 . S
C171 C177 1.265 . S
H172 C177 0.950 . S
H173 C181 0.949 . S
H174 C182 0.950 . S
H175 C183 0.951 . S
H176 C184 0.951 . S
C177 C171 1.265 . S
C177 H172 0.950 . S
C177 C178 1.478 . S
C178 C177 1.478 . S
C178 C179 1.397 . S
C178 C195 1.394 . S
C179 C178 1.397 . S
C179 C180 1.438 . S
C179 C184 1.429 . S
C180 C179 1.438 . S
C180 C181 1.428 . S
C180 C193 1.394 . S
C181 H173 0.949 . S
C181 C180 1.428 . S
C181 C182 1.345 . S
C182 H174 0.950 . S
C182 C181 1.345 . S
C182 C183 1.424 . S
C183 H175 0.951 . S
C183 C182 1.424 . S
C183 C184 1.347 . S
C184 H176 0.951 . S
C184 C179 1.429 . S
C184 C183 1.347 . S
H185 C186 0.951 . S
C186 H185 0.951 . S
C186 C192 1.265 . S
H187 C192 0.950 . S
H188 C196 0.949 . S
H189 C197 0.950 . S
H190 C198 0.951 . S
H191 C199 0.951 . S
C192 C186 1.265 . S
C192 H187 0.950 . S
C192 C193 1.478 . S
C193 C180 1.394 . S
C193 C192 1.478 . S
C193 C194 1.397 . S
C194 C193 1.397 . S
C194 C195 1.438 . S
C194 C199 1.429 . S
C195 C178 1.394 . S
C195 C194 1.438 . S
C195 C196 1.428 . S
C196 H188 0.949 . S
C196 C195 1.428 . S
C196 C197 1.345 . S
C197 H189 0.950 . S
C197 C196 1.345 . S
C197 C198 1.424 . S
C198 H190 0.951 . S
C198 C197 1.424 . S
C198 C199 1.347 . S
C199 H191 0.951 . S
C199 C194 1.429 . S
C199 C198 1.347 . S
H200 C201 0.951 . S
C201 H200 0.951 . S
C201 C207 1.265 1_655 S
H202 C207 0.950 . S
H203 C211 0.949 . S
H204 C212 0.950 1_545 S
H205 C213 0.951 . S
H206 C214 0.951 . S
C207 C201 1.265 1_455 S
C207 H202 0.950 . S
C207 C208 1.478 . S
C208 C207 1.478 . S
C208 C209 1.397 . S
C208 C225 1.394 . S
C209 C208 1.397 . S
C209 C210 1.438 . S
C209 C214 1.429 . S
C210 C209 1.438 . S
C210 C211 1.428 . S
C210 C223 1.394 . S
C211 H203 0.949 . S
C211 C210 1.428 . S
C211 C212 1.345 . S
C212 H204 0.950 1_565 S
C212 C211 1.345 . S
C212 C213 1.424 . S
C213 H205 0.951 . S
C213 C212 1.424 . S
C213 C214 1.347 . S
C214 H206 0.951 . S
C214 C209 1.429 . S
C214 C213 1.347 . S
H215 C216 0.951 . S
C216 H215 0.951 . S
C216 C222 1.265 . S
H217 C222 0.950 1_655 S
H218 C226 0.949 . S
H219 C227 0.950 1_655 S
H220 C228 0.951 . S
H221 C229 0.951 . S
C222 C216 1.265 . S
C222 H217 0.950 1_455 S
C222 C223 1.478 . S
C223 C210 1.394 . S
C223 C222 1.478 . S
C223 C224 1.397 . S
C224 C223 1.397 . S
C224 C225 1.438 . S
C224 C229 1.429 . S
C225 C208 1.394 . S
C225 C224 1.438 . S
C225 C226 1.428 . S
C226 H218 0.949 . S
C226 C225 1.428 . S
C226 C227 1.345 . S
C227 H219 0.950 1_455 S
C227 C226 1.345 . S
C227 C228 1.424 1_455 S
C228 H220 0.951 . S
C228 C227 1.424 1_655 S
C228 C229 1.347 1_655 S
C229 H221 0.951 . S
C229 C224 1.429 . S
C229 C228 1.347 1_455 S
H230 C231 0.951 . S
C231 H230 0.951 . S
C231 C237 1.265 . S
H232 C237 0.950 . S
H233 C241 0.949 . S
H234 C242 0.950 . S
H235 C243 0.951 . S
H236 C244 0.951 . S
C237 C231 1.265 . S
C237 H232 0.950 . S
C237 C238 1.478 . S
C238 C237 1.478 . S
C238 C239 1.397 . S
C238 C255 1.394 . S
C239 C238 1.397 . S
C239 C240 1.438 . S
C239 C244 1.429 . S
C240 C239 1.438 . S
C240 C241 1.428 . S
C240 C253 1.394 . S
C241 H233 0.949 . S
C241 C240 1.428 . S
C241 C242 1.345 . S
C242 H234 0.950 . S
C242 C241 1.345 . S
C242 C243 1.424 . S
C243 H235 0.951 . S
C243 C242 1.424 . S
C243 C244 1.347 . S
C244 H236 0.951 . S
C244 C239 1.429 . S
C244 C243 1.347 . S
H245 C246 0.951 . S
C246 H245 0.951 . S
C246 C252 1.265 . S
H247 C252 0.950 . S
H248 C256 0.949 . S
H249 C257 0.950 . S
H250 C258 0.951 . S
H251 C259 0.951 . S
C252 C246 1.265 . S
C252 H247 0.950 . S
C252 C253 1.478 . S
C253 C240 1.394 . S
C253 C252 1.478 . S
C253 C254 1.397 . S
C254 C253 1.397 . S
C254 C255 1.438 . S
C254 C259 1.429 . S
C255 C238 1.394 . S
C255 C254 1.438 . S
C255 C256 1.428 . S
C256 H248 0.949 . S
C256 C255 1.428 . S
C256 C257 1.345 . S
C257 H249 0.950 . S
C257 C256 1.345 . S
C257 C258 1.424 . S
C258 H250 0.951 . S
C258 C257 1.424 . S
C258 C259 1.347 . S
C259 H251 0.951 . S
C259 C254 1.429 . S
C259 C258 1.347 . S
H260 C261 0.951 . S
C261 H260 0.951 . S
C261 C267 1.265 . S
H262 C267 0.950 . S
H263 C271 0.949 . S
H264 C272 0.950 . S
H265 C273 0.951 . S
H266 C274 0.951 . S
C267 C261 1.265 . S
C267 H262 0.950 . S
C267 C268 1.478 . S
C268 C267 1.478 . S
C268 C269 1.397 . S
C268 C285 1.394 . S
C269 C268 1.397 . S
C269 C270 1.438 . S
C269 C274 1.429 . S
C270 C269 1.438 . S
C270 C271 1.428 . S
C270 C283 1.394 . S
C271 H263 0.949 . S
C271 C270 1.428 . S
C271 C272 1.345 . S
C272 H264 0.950 . S
C272 C271 1.345 . S
C272 C273 1.424 . S
C273 H265 0.951 . S
C273 C272 1.424 . S
C273 C274 1.347 . S
C274 H266 0.951 . S
C274 C269 1.429 . S
C274 C273 1.347 . S
H275 C276 0.951 . S
C276 H275 0.951 . S
C276 C282 1.265 . S
H277 C282 0.950 . S
H278 C286 0.949 . S
H279 C287 0.950 . S
H280 C288 0.951 . S
H281 C289 0.951 . S
C282 C276 1.265 . S
C282 H277 0.950 . S
C282 C283 1.478 . S
C283 C270 1.394 . S
C283 C282 1.478 . S
C283 C284 1.397 . S
C284 C283 1.397 . S
C284 C285 1.438 . S
C284 C289 1.429 . S
C285 C268 1.394 . S
C285 C284 1.438 . S
C285 C286 1.428 . S
C286 H278 0.949 . S
C286 C285 1.428 . S
C286 C287 1.345 . S
C287 H279 0.950 . S
C287 C286 1.345 . S
C287 C288 1.424 . S
C288 H280 0.951 . S
C288 C287 1.424 . S
C288 C289 1.347 . S
C289 H281 0.951 . S
C289 C284 1.429 . S
C289 C288 1.347 . S
H290 C291 0.951 . S
C291 H290 0.951 . S
C291 C297 1.265 . S
H292 C297 0.950 . S
H293 C301 0.949 . S
H294 C302 0.950 . S
H295 C303 0.951 . S
H296 C304 0.951 . S
C297 C291 1.265 . S
C297 H292 0.950 . S
C297 C298 1.478 . S
C298 C297 1.478 . S
C298 C299 1.397 . S
C298 C315 1.394 . S
C299 C298 1.397 . S
C299 C300 1.438 . S
C299 C304 1.429 . S
C300 C299 1.438 . S
C300 C301 1.428 . S
C300 C313 1.394 . S
C301 H293 0.949 . S
C301 C300 1.428 . S
C301 C302 1.345 . S
C302 H294 0.950 . S
C302 C301 1.345 . S
C302 C303 1.424 . S
C303 H295 0.951 . S
C303 C302 1.424 . S
C303 C304 1.347 . S
C304 H296 0.951 . S
C304 C299 1.429 . S
C304 C303 1.347 . S
H305 C306 0.951 . S
C306 H305 0.951 . S
C306 C312 1.265 . S
H307 C312 0.950 . S
H308 C316 0.949 . S
H309 C317 0.950 . S
H310 C318 0.951 . S
H311 C319 0.951 . S
C312 C306 1.265 . S
C312 H307 0.950 . S
C312 C313 1.478 . S
C313 C300 1.394 . S
C313 C312 1.478 . S
C313 C314 1.397 . S
C314 C313 1.397 . S
C314 C315 1.438 . S
C314 C319 1.429 . S
C315 C298 1.394 . S
C315 C314 1.438 . S
C315 C316 1.428 1_556 S
C316 H308 0.949 . S
C316 C315 1.428 1_554 S
C316 C317 1.345 . S
C317 H309 0.950 . S
C317 C316 1.345 . S
C317 C318 1.424 . S
C318 H310 0.951 . S
C318 C317 1.424 . S
C318 C319 1.347 1_554 S
C319 H311 0.951 . S
C319 C314 1.429 . S
C319 C318 1.347 1_556 S
H320 C321 0.951 . S
C321 H320 0.951 . S
C321 C327 1.265 . S
H322 C327 0.950 . S
H323 C331 0.949 . S
H324 C332 0.950 . S
H325 C333 0.951 . S
H326 C334 0.951 . S
C327 C321 1.265 . S
C327 H322 0.950 . S
C327 C328 1.478 . S
C328 C327 1.478 . S
C328 C329 1.397 . S
C328 C345 1.394 . S
C329 C328 1.397 . S
C329 C330 1.438 . S
C329 C334 1.429 . S
C330 C329 1.438 . S
C330 C331 1.428 . S
C330 C343 1.394 . S
C331 H323 0.949 . S
C331 C330 1.428 . S
C331 C332 1.345 . S
C332 H324 0.950 . S
C332 C331 1.345 . S
C332 C333 1.424 . S
C333 H325 0.951 . S
C333 C332 1.424 . S
C333 C334 1.347 . S
C334 H326 0.951 . S
C334 C329 1.429 . S
C334 C333 1.347 . S
H335 C336 0.951 . S
C336 H335 0.951 . S
C336 C342 1.265 . S
H337 C342 0.950 . S
H338 C346 0.949 1_554 S
H339 C347 0.950 . S
H340 C348 0.951 1_554 S
H341 C349 0.951 . S
C342 C336 1.265 . S
C342 H337 0.950 . S
C342 C343 1.478 . S
C343 C330 1.394 . S
C343 C342 1.478 . S
C343 C344 1.397 . S
C344 C343 1.397 . S
C344 C345 1.438 . S
C344 C349 1.429 . S
C345 C328 1.394 . S
C345 C344 1.438 . S
C345 C346 1.428 . S
C346 H338 0.949 1_556 S
C346 C345 1.428 . S
C346 C347 1.345 1_556 S
C347 H339 0.950 . S
C347 C346 1.345 1_554 S
C347 C348 1.424 1_554 S
C348 H340 0.951 1_556 S
C348 C347 1.424 1_556 S
C348 C349 1.347 . S
C349 H341 0.951 . S
C349 C344 1.429 . S
C349 C348 1.347 . S
H350 C351 0.951 . S
C351 H350 0.951 . S
C351 C357 1.265 . S
H352 C357 0.950 . S
H353 C361 0.949 . S
H354 C362 0.950 . S
H355 C363 0.951 1_554 S
H356 C364 0.951 . S
C357 C351 1.265 . S
C357 H352 0.950 . S
C357 C358 1.478 . S
C358 C357 1.478 . S
C358 C359 1.397 . S
C358 C375 1.394 . S
C359 C358 1.397 . S
C359 C360 1.438 . S
C359 C364 1.429 . S
C360 C359 1.438 . S
C360 C361 1.428 . S
C360 C373 1.394 . S
C361 H353 0.949 . S
C361 C360 1.428 . S
C361 C362 1.345 . S
C362 H354 0.950 . S
C362 C361 1.345 . S
C362 C363 1.424 . S
C363 H355 0.951 1_556 S
C363 C362 1.424 . S
C363 C364 1.347 . S
C364 H356 0.951 . S
C364 C359 1.429 . S
C364 C363 1.347 . S
H365 C366 0.951 . S
C366 H365 0.951 . S
C366 C372 1.265 . S
H367 C372 0.950 . S
H368 C376 0.949 . S
H369 C377 0.950 . S
H370 C378 0.951 . S
H371 C379 0.951 . S
C372 C366 1.265 . S
C372 H367 0.950 . S
C372 C373 1.478 . S
C373 C360 1.394 . S
C373 C372 1.478 . S
C373 C374 1.397 . S
C374 C373 1.397 . S
C374 C375 1.438 . S
C374 C379 1.429 . S
C375 C358 1.394 . S
C375 C374 1.438 . S
C375 C376 1.428 . S
C376 H368 0.949 . S
C376 C375 1.428 . S
C376 C377 1.345 . S
C377 H369 0.950 . S
C377 C376 1.345 . S
C377 C378 1.424 . S
C378 H370 0.951 . S
C378 C377 1.424 . S
C378 C379 1.347 . S
C379 H371 0.951 . S
C379 C374 1.429 . S
C379 C378 1.347 . S
H380 C381 0.951 . S
C381 H380 0.951 . S
C381 C387 1.265 . S
H382 C387 0.950 . S
H383 C391 0.949 . S
H384 C392 0.950 . S
H385 C393 0.951 . S
H386 C394 0.951 1_554 S
C387 C381 1.265 . S
C387 H382 0.950 . S
C387 C388 1.478 . S
C388 C387 1.478 . S
C388 C389 1.397 . S
C388 C405 1.394 . S
C389 C388 1.397 . S
C389 C390 1.438 . S
C389 C394 1.429 . S
C390 C389 1.438 . S
C390 C391 1.428 . S
C390 C403 1.394 . S
C391 H383 0.949 . S
C391 C390 1.428 . S
C391 C392 1.345 . S
C392 H384 0.950 . S
C392 C391 1.345 . S
C392 C393 1.424 1_556 S
C393 H385 0.951 . S
C393 C392 1.424 1_554 S
C393 C394 1.347 1_554 S
C394 H386 0.951 1_556 S
C394 C389 1.429 . S
C394 C393 1.347 1_556 S
H395 C396 0.951 . S
C396 H395 0.951 . S
C396 C402 1.265 . S
H397 C402 0.950 . S
H398 C406 0.949 . S
H399 C407 0.950 . S
H400 C408 0.951 . S
H401 C409 0.951 . S
C402 C396 1.265 . S
C402 H397 0.950 . S
C402 C403 1.478 . S
C403 C390 1.394 . S
C403 C402 1.478 . S
C403 C404 1.397 . S
C404 C403 1.397 . S
C404 C405 1.438 . S
C404 C409 1.429 . S
C405 C388 1.394 . S
C405 C404 1.438 . S
C405 C406 1.428 . S
C406 H398 0.949 . S
C406 C405 1.428 . S
C406 C407 1.345 . S
C407 H399 0.950 . S
C407 C406 1.345 . S
C407 C408 1.424 . S
C408 H400 0.951 . S
C408 C407 1.424 . S
C408 C409 1.347 . S
C409 H401 0.951 . S
C409 C404 1.429 . S
C409 C408 1.347 . S
H410 C411 0.951 . S
C411 H410 0.951 . S
C411 C417 1.265 . S
H412 C417 0.950 . S
H413 C421 0.949 . S
H414 C422 0.950 . S
H415 C423 0.951 . S
H416 C424 0.951 . S
C417 C411 1.265 . S
C417 H412 0.950 . S
C417 C418 1.478 . S
C418 C417 1.478 . S
C418 C419 1.397 . S
C418 C435 1.394 . S
C419 C418 1.397 . S
C419 C420 1.438 . S
C419 C424 1.429 . S
C420 C419 1.438 . S
C420 C421 1.428 . S
C420 C433 1.394 . S
C421 H413 0.949 . S
C421 C420 1.428 . S
C421 C422 1.345 . S
C422 H414 0.950 . S
C422 C421 1.345 . S
C422 C423 1.424 . S
C423 H415 0.951 . S
C423 C422 1.424 . S
C423 C424 1.347 . S
C424 H416 0.951 . S
C424 C419 1.429 . S
C424 C423 1.347 . S
H425 C426 0.951 . S
C426 H425 0.951 . S
C426 C432 1.265 . S
H427 C432 0.950 1_455 S
H428 C436 0.949 . S
H429 C437 0.950 . S
H430 C438 0.951 . S
H431 C439 0.951 . S
C432 C426 1.265 . S
C432 H427 0.950 1_655 S
C432 C433 1.478 . S
C433 C420 1.394 . S
C433 C432 1.478 . S
C433 C434 1.397 . S
C434 C433 1.397 . S
C434 C435 1.438 . S
C434 C439 1.429 . S
C435 C418 1.394 . S
C435 C434 1.438 . S
C435 C436 1.428 . S
C436 H428 0.949 . S
C436 C435 1.428 . S
C436 C437 1.345 . S
C437 H429 0.950 . S
C437 C436 1.345 . S
C437 C438 1.424 . S
C438 H430 0.951 . S
C438 C437 1.424 . S
C438 C439 1.347 . S
C439 H431 0.951 . S
C439 C434 1.429 . S
C439 C438 1.347 . S
H440 C441 0.951 . S
C441 H440 0.951 . S
C441 C447 1.265 . S
H442 C447 0.950 . S
H443 C451 0.949 . S
H444 C452 0.950 . S
H445 C453 0.951 . S
H446 C454 0.951 . S
C447 C441 1.265 . S
C447 H442 0.950 . S
C447 C448 1.478 . S
C448 C447 1.478 . S
C448 C449 1.397 . S
C448 C465 1.394 . S
C449 C448 1.397 . S
C449 C450 1.438 . S
C449 C454 1.429 . S
C450 C449 1.438 . S
C450 C451 1.428 . S
C450 C463 1.394 . S
C451 H443 0.949 . S
C451 C450 1.428 . S
C451 C452 1.345 . S
C452 H444 0.950 . S
C452 C451 1.345 . S
C452 C453 1.424 . S
C453 H445 0.951 . S
C453 C452 1.424 . S
C453 C454 1.347 . S
C454 H446 0.951 . S
C454 C449 1.429 . S
C454 C453 1.347 . S
H455 C456 0.951 . S
C456 H455 0.951 . S
C456 C462 1.265 . S
H457 C462 0.950 . S
H458 C466 0.949 . S
H459 C467 0.950 . S
H460 C468 0.951 . S
H461 C469 0.951 . S
C462 C456 1.265 . S
C462 H457 0.950 . S
C462 C463 1.478 . S
C463 C450 1.394 . S
C463 C462 1.478 . S
C463 C464 1.397 . S
C464 C463 1.397 . S
C464 C465 1.438 . S
C464 C469 1.429 . S
C465 C448 1.394 . S
C465 C464 1.438 . S
C465 C466 1.428 . S
C466 H458 0.949 . S
C466 C465 1.428 . S
C466 C467 1.345 . S
C467 H459 0.950 . S
C467 C466 1.345 . S
C467 C468 1.424 . S
C468 H460 0.951 . S
C468 C467 1.424 . S
C468 C469 1.347 . S
C469 H461 0.951 . S
C469 C464 1.429 . S
C469 C468 1.347 . S
H470 C471 0.951 . S
C471 H470 0.951 . S
C471 C477 1.265 . S
H472 C477 0.950 . S
H473 C481 0.949 . S
H474 C482 0.950 . S
H475 C483 0.951 . S
H476 C484 0.951 . S
C477 C471 1.265 . S
C477 H472 0.950 . S
C477 C478 1.478 . S
C478 C477 1.478 . S
C478 C479 1.397 . S
C478 C495 1.394 . S
C479 C478 1.397 . S
C479 C480 1.438 . S
C479 C484 1.429 . S
C480 C479 1.438 . S
C480 C481 1.428 . S
C480 C493 1.394 . S
C481 H473 0.949 . S
C481 C480 1.428 . S
C481 C482 1.345 . S
C482 H474 0.950 . S
C482 C481 1.345 . S
C482 C483 1.424 . S
C483 H475 0.951 . S
C483 C482 1.424 . S
C483 C484 1.347 . S
C484 H476 0.951 . S
C484 C479 1.429 . S
C484 C483 1.347 . S
H485 C486 0.951 . S
C486 H485 0.951 . S
C486 C492 1.265 . S
H487 C492 0.950 . S
H488 C496 0.949 . S
H489 C497 0.950 . S
H490 C498 0.951 . S
H491 C499 0.951 . S
C492 C486 1.265 . S
C492 H487 0.950 . S
C492 C493 1.478 . S
C493 C480 1.394 . S
C493 C492 1.478 . S
C493 C494 1.397 . S
C494 C493 1.397 . S
C494 C495 1.438 . S
C494 C499 1.429 . S
C495 C478 1.394 . S
C495 C494 1.438 . S
C495 C496 1.428 . S
C496 H488 0.949 . S
C496 C495 1.428 . S
C496 C497 1.345 . S
C497 H489 0.950 . S
C497 C496 1.345 . S
C497 C498 1.424 . S
C498 H490 0.951 . S
C498 C497 1.424 . S
C498 C499 1.347 . S
C499 H491 0.951 . S
C499 C494 1.429 . S
C499 C498 1.347 . S
H500 C501 0.951 . S
C501 H500 0.951 . S
C501 C507 1.265 . S
H502 C507 0.950 . S
H503 C511 0.949 . S
H504 C512 0.950 . S
H505 C513 0.951 . S
H506 C514 0.951 . S
C507 C501 1.265 . S
C507 H502 0.950 . S
C507 C508 1.478 . S
C508 C507 1.478 . S
C508 C509 1.397 . S
C508 C525 1.394 . S
C509 C508 1.397 . S
C509 C510 1.438 . S
C509 C514 1.429 . S
C510 C509 1.438 . S
C510 C511 1.428 . S
C510 C523 1.394 . S
C511 H503 0.949 . S
C511 C510 1.428 . S
C511 C512 1.345 . S
C512 H504 0.950 . S
C512 C511 1.345 . S
C512 C513 1.424 . S
C513 H505 0.951 . S
C513 C512 1.424 . S
C513 C514 1.347 . S
C514 H506 0.951 . S
C514 C509 1.429 . S
C514 C513 1.347 . S
H515 C516 0.951 . S
C516 H515 0.951 . S
C516 C522 1.265 . S
H517 C522 0.950 . S
H518 C526 0.949 . S
H519 C527 0.950 . S
H520 C528 0.951 . S
H521 C529 0.951 . S
C522 C516 1.265 . S
C522 H517 0.950 . S
C522 C523 1.478 . S
C523 C510 1.394 . S
C523 C522 1.478 . S
C523 C524 1.397 . S
C524 C523 1.397 . S
C524 C525 1.438 . S
C524 C529 1.429 . S
C525 C508 1.394 . S
C525 C524 1.438 . S
C525 C526 1.428 . S
C526 H518 0.949 . S
C526 C525 1.428 . S
C526 C527 1.345 . S
C527 H519 0.950 . S
C527 C526 1.345 . S
C527 C528 1.424 . S
C528 H520 0.951 . S
C528 C527 1.424 . S
C528 C529 1.347 . S
C529 H521 0.951 . S
C529 C524 1.429 . S
C529 C528 1.347 . S
C186 C135 1.390 . S
C171 C23 1.497 . S
C216 C131 1.420 . S
C201 C55 1.454 1_655 S
C246 C156 1.404 . S
C231 C87 1.500 . S
C261 C119 1.395 . S
C276 C152 1.469 . S
C291 C17 1.199 . S
C306 C153 0.966 . S
C336 C168 1.050 . S
C321 C61 1.142 . S
C351 C29 1.664 . S
C366 C169 1.531 . S
C396 C165 1.518 . S
C381 C49 1.645 . S
C426 C132 1.157 1_655 S
C411 C81 1.204 . S
C441 C125 1.145 . S
C456 C147 1.054 . S
C486 C148 1.605 . S
C471 C93 1.661 . S
C516 C144 1.496 . S
C501 C113 1.619 . S
