# Generated by pormake.
# Topology zzz, (3,6)-cn, num edge types: 1
# Building blocks:
#     Node 0, Type 0, BuildingBlock: BETDIP_clean_linker_0, # of connection points: 3
#     Node 1, Type 0, BuildingBlock: BETDIP_clean_linker_0, # of connection points: 3
#     Node 2, Type 0, BuildingBlock: BETDIP_clean_linker_0, # of connection points: 3
#     Node 3, Type 0, BuildingBlock: BETDIP_clean_linker_0, # of connection points: 3
#     Node 4, Type 0, BuildingBlock: BETDIP_clean_linker_0, # of connection points: 3
#     Node 5, Type 0, BuildingBlock: BETDIP_clean_linker_0, # of connection points: 3
#     Node 6, Type 0, BuildingBlock: BETDIP_clean_linker_0, # of connection points: 3
#     Node 7, Type 0, BuildingBlock: BETDIP_clean_linker_0, # of connection points: 3
#     Node 8, Type 1, BuildingBlock: KUMBUR_clean_sbu_1, # of connection points: 6
#     Node 9, Type 1, BuildingBlock: KUMBUR_clean_sbu_1, # of connection points: 6
#     Node 10, Type 1, BuildingBlock: KUMBUR_clean_sbu_1, # of connection points: 6
#     Node 11, Type 1, BuildingBlock: KUMBUR_clean_sbu_1, # of connection points: 6
#     Edge 12, Type (0, 1), BuildingBlock: KIFKEQ_clean_linker_1, # of connection points: 2
#     Edge 13, Type (0, 1), BuildingBlock: KIFKEQ_clean_linker_1, # of connection points: 2
#     Edge 14, Type (0, 1), BuildingBlock: KIFKEQ_clean_linker_1, # of connection points: 2
#     Edge 15, Type (0, 1), BuildingBlock: KIFKEQ_clean_linker_1, # of connection points: 2
#     Edge 16, Type (0, 1), BuildingBlock: KIFKEQ_clean_linker_1, # of connection points: 2
#     Edge 17, Type (0, 1), BuildingBlock: KIFKEQ_clean_linker_1, # of connection points: 2
#     Edge 18, Type (0, 1), BuildingBlock: KIFKEQ_clean_linker_1, # of connection points: 2
#     Edge 19, Type (0, 1), BuildingBlock: KIFKEQ_clean_linker_1, # of connection points: 2
#     Edge 20, Type (0, 1), BuildingBlock: KIFKEQ_clean_linker_1, # of connection points: 2
#     Edge 21, Type (0, 1), BuildingBlock: KIFKEQ_clean_linker_1, # of connection points: 2
#     Edge 22, Type (0, 1), BuildingBlock: KIFKEQ_clean_linker_1, # of connection points: 2
#     Edge 23, Type (0, 1), BuildingBlock: KIFKEQ_clean_linker_1, # of connection points: 2
#     Edge 24, Type (0, 1), BuildingBlock: KIFKEQ_clean_linker_1, # of connection points: 2
#     Edge 25, Type (0, 1), BuildingBlock: KIFKEQ_clean_linker_1, # of connection points: 2
#     Edge 26, Type (0, 1), BuildingBlock: KIFKEQ_clean_linker_1, # of connection points: 2
#     Edge 27, Type (0, 1), BuildingBlock: KIFKEQ_clean_linker_1, # of connection points: 2
#     Edge 28, Type (0, 1), BuildingBlock: KIFKEQ_clean_linker_1, # of connection points: 2
#     Edge 29, Type (0, 1), BuildingBlock: KIFKEQ_clean_linker_1, # of connection points: 2
#     Edge 30, Type (0, 1), BuildingBlock: KIFKEQ_clean_linker_1, # of connection points: 2
#     Edge 31, Type (0, 1), BuildingBlock: KIFKEQ_clean_linker_1, # of connection points: 2
#     Edge 32, Type (0, 1), BuildingBlock: KIFKEQ_clean_linker_1, # of connection points: 2
#     Edge 33, Type (0, 1), BuildingBlock: KIFKEQ_clean_linker_1, # of connection points: 2
#     Edge 34, Type (0, 1), BuildingBlock: KIFKEQ_clean_linker_1, # of connection points: 2
#     Edge 35, Type (0, 1), BuildingBlock: KIFKEQ_clean_linker_1, # of connection points: 2
# Relax obj value: 0.179
# Max RMSD: 0.103
# Mean RMSD: 0.080
data_MOF--net-zzz--node1-KUMBUR_clean_sbu_1--node2-BETDIP_clean_linker_0--edge1-KIFKEQ_clean_linker_1
_symmetry_space_group_name_H-M    P1
_symmetry_Int_Tables_number       1
_symmetry_cell_setting            triclinic
loop_
_symmetry_equiv_pos_as_xyz
'x, y, z'
_cell_length_a     50.341982
_cell_length_b     50.177765
_cell_length_c     15.746412
_cell_angle_alpha  89.804395
_cell_angle_beta   90.221691
_cell_angle_gamma 90.3481
loop_
_atom_site_label
_atom_site_type_symbol
_atom_site_fract_x
_atom_site_fract_y
_atom_site_fract_z
_atom_type_partial_charge
H0 H 0.77527 0.55415 0.38125 0.0
H1 H 0.76836 0.58124 0.12418 0.0
H2 H 0.8427 0.59005 0.25869 0.0
H3 H 0.72747 0.60245 0.21342 0.0
C4 C 0.72201 0.58144 0.21247 0.0
C5 C 0.78401 0.56382 0.3264 0.0
C6 C 0.81123 0.57135 0.32759 0.0
C7 C 0.76812 0.56932 0.25386 0.0
C8 C 0.78028 0.57994 0.1812 0.0
C9 C 0.80744 0.58671 0.17987 0.0
C10 C 0.8221 0.58387 0.25577 0.0
N11 N 0.74029 0.56306 0.25042 0.0
H12 H 1.00808 0.78254 0.41858 0.0
H13 H 0.98989 0.7724 0.15303 0.0
H14 H 0.9975 0.85112 0.25771 0.0
H15 H 0.96153 0.73238 0.26153 0.0
C16 C 0.98251 0.72782 0.25539 0.0
C17 C 1.00322 0.79105 0.35721 0.0
C18 C 1.00189 0.81914 0.34727 0.0
C19 C 0.99831 0.77404 0.28681 0.0
C20 C 0.99278 0.78536 0.20727 0.0
C21 C 0.99292 0.81305 0.19568 0.0
C22 C 0.99688 0.82967 0.26626 0.0
N23 N 1.00138 0.74578 0.29262 0.0
H24 H 0.77851 0.03716 0.35221 0.0
H25 H 0.81111 0.98651 0.15934 0.0
H26 H 0.73071 0.97488 0.24 0.0
H27 H 0.85083 0.99723 0.29015 0.0
C28 C 0.84763 1.01479 0.25087 0.0
C29 C 0.77639 1.02023 0.31025 0.0
C30 C 0.75171 1.00632 0.30526 0.0
C31 C 0.7982 1.01251 0.25891 0.0
C32 C 0.79496 0.99141 0.20174 0.0
C33 C 0.77039 0.97863 0.19177 0.0
C34 C 0.74953 0.9852 0.2468 0.0
N35 N 0.82238 0.0276 0.25628 0.0
H36 H 0.53971 0.79308 0.37685 0.0
H37 H 0.58211 0.81093 0.14619 0.0
H38 H 0.58234 0.73134 0.24687 0.0
H39 H 0.5888 0.85199 0.24401 0.0
C40 C 0.56762 0.85386 0.23162 0.0
C41 C 0.55257 0.78686 0.32574 0.0
C42 C 0.56149 0.76003 0.32212 0.0
C43 C 0.56049 0.8056 0.26255 0.0
C44 C 0.57668 0.79699 0.19596 0.0
C45 C 0.58411 0.7703 0.1884 0.0
C46 C 0.57706 0.75217 0.25287 0.0
N47 N 0.55093 0.83249 0.26084 0.0
H48 H 0.27906 0.51595 0.03466 0.0
H49 H 0.29274 0.48794 0.28961 0.0
H50 H 0.21386 0.48617 0.18399 0.0
H51 H 0.31059 0.54182 0.25663 0.0
C52 C 0.32532 0.52885 0.22818 0.0
C53 C 0.27171 0.50674 0.09233 0.0
C54 C 0.24434 0.49997 0.09954 0.0
C55 C 0.28923 0.50249 0.16203 0.0
C56 C 0.27925 0.49118 0.23682 0.0
C57 C 0.25213 0.48569 0.24643 0.0
C58 C 0.23503 0.48953 0.17675 0.0
N59 N 0.31628 0.51149 0.16193 0.0
H60 H 0.03082 0.2891 0.0729 0.0
H61 H 0.08584 0.29982 0.28163 0.0
H62 H 0.09213 0.2315 0.12063 0.0
H63 H 0.03803 0.31121 0.33458 0.0
C64 C 0.03961 0.32798 0.29088 0.0
C65 C 0.04804 0.28263 0.10866 0.0
C66 C 0.06087 0.25846 0.08685 0.0
C67 C 0.05727 0.29799 0.17883 0.0
C68 C 0.07906 0.28876 0.22658 0.0
C69 C 0.09192 0.26512 0.20492 0.0
C70 C 0.08297 0.25051 0.13463 0.0
N71 N 0.04456 0.32227 0.20333 0.0
H72 H 0.27882 0.04943 0.05266 0.0
H73 H 0.28254 0.10435 0.26458 0.0
H74 H 0.34809 0.0981 0.09513 0.0
H75 H 0.25398 0.07758 0.32157 0.0
C76 C 0.24045 0.07145 0.27147 0.0
C77 C 0.2889 0.06497 0.08807 0.0
C78 C 0.31474 0.07341 0.06334 0.0
C79 C 0.27652 0.07621 0.16081 0.0
C80 C 0.29078 0.09556 0.20806 0.0
C81 C 0.31655 0.10325 0.18496 0.0
C82 C 0.32772 0.09293 0.11111 0.0
N83 N 0.25044 0.06753 0.1871 0.0
H84 H 0.50982 0.284 0.01965 0.0
H85 H 0.47228 0.27395 0.26316 0.0
H86 H 0.47538 0.35128 0.14592 0.0
H87 H 0.51688 0.25423 0.27885 0.0
C88 C 0.51122 0.23932 0.23204 0.0
C89 C 0.4987 0.29211 0.07219 0.0
C90 C 0.49149 0.31949 0.07187 0.0
C91 C 0.4923 0.27564 0.143 0.0
C92 C 0.47789 0.28662 0.21027 0.0
C93 C 0.47263 0.31394 0.21407 0.0
C94 C 0.47879 0.32999 0.14345 0.0
N95 N 0.50171 0.24877 0.1513 0.0
Tb96 Tb 1.0065 0.0555 0.60409 0.0
C97 C 0.08213 0.04025 0.95032 0.0
N98 N 0.08506 0.04612 0.86698 0.0
C99 C 0.12149 0.0754 0.90066 0.0
C100 C 0.09832 0.05217 1.01296 0.0
C101 C 0.10515 0.06262 0.84104 0.0
C102 C 0.11782 0.07043 0.98721 0.0
C103 C 0.06184 1.01194 0.05639 0.0
C104 C 0.06429 1.0206 0.9715 0.0
C105 C 0.07702 1.02444 0.1201 0.0
C106 C 0.09523 0.04459 0.09841 0.0
Tb107 Tb 0.05669 1.02573 0.77328 0.0
N108 N 0.05081 1.00861 0.90753 0.0
C109 C 0.04503 0.99033 0.07394 0.0
C110 C 0.03544 0.98662 0.92388 0.0
C111 C 0.032 0.97742 1.00715 0.0
H112 H 0.10836 0.06627 0.7743 0.0
H113 H 1.01935 0.96034 0.01963 0.0
H114 H 0.96513 0.09825 0.68824 0.0
H115 H 0.99017 0.9866 0.34523 0.0
H116 H 0.02511 0.97654 0.873 0.0
H117 H 0.04254 0.98304 0.13829 0.0
H118 H 1.0166 1.01655 0.4371 0.0
H119 H 0.13698 0.08892 0.87977 0.0
H120 H 0.07543 1.01813 0.18577 0.0
H121 H 0.10743 0.05352 0.14764 0.0
H122 H 0.9165 0.10354 0.70313 0.0
H123 H 0.13068 0.08009 0.03326 0.0
H124 H 0.94142 0.98336 0.36343 0.0
N125 N 0.96189 0.06291 0.61494 0.0
C126 C 0.94544 0.04606 0.57297 0.0
C127 C 0.92437 0.08715 0.66671 0.0
C128 C 0.91763 0.0485 0.57787 0.0
C129 C 0.95186 0.0841 0.6583 0.0
C130 C 0.90714 0.06901 0.62735 0.0
N131 N 0.98351 0.02852 0.51135 0.0
C132 C 0.99542 1.0148 0.44709 0.0
C133 C 0.94068 1.01184 0.46645 0.0
C134 C 0.95673 0.02807 0.51878 0.0
C135 C 0.95301 0.9961 0.40508 0.0
C136 C 0.9805 0.99794 0.39446 0.0
H137 H 0.88587 0.07158 0.63301 0.0
H138 H 0.87992 0.03258 0.53345 0.0
H139 H 0.90017 1.00045 0.43524 0.0
O140 O 0.02839 0.09051 0.5779 0.0
O141 O 1.0227 1.01505 0.59427 0.0
O142 O 0.02413 0.99957 0.72891 0.0
O143 O 0.99634 0.07809 0.49617 0.0
O144 O 0.04556 0.04049 0.56627 0.0
O145 O 0.06988 0.05514 0.67748 0.0
O146 O 0.08889 0.99982 0.79491 0.0
O147 O 0.05439 0.06973 0.77064 0.0
O148 O 1.01236 0.08005 0.71944 0.0
O149 O 0.07218 1.00409 0.67059 0.0
O150 O 1.01536 1.02552 0.82104 0.0
O151 O 0.98704 0.04872 0.72831 0.0
C152 C 1.01878 0.99551 0.64842 0.0
C153 C 0.03622 0.09278 0.43118 0.0
C154 C 0.07826 0.10791 0.36936 0.0
C155 C 0.07558 0.08823 0.30632 0.0
C156 C 0.03368 0.07386 0.36594 0.0
C157 C 0.05331 0.07159 0.30429 0.0
C158 C 0.05835 0.10991 0.4318 0.0
C159 C 0.06762 0.05121 0.59531 0.0
C160 C 1.01749 0.093 0.50327 0.0
C161 C 0.90136 0.03123 0.53013 0.0
C162 C 0.91289 1.01292 0.47429 0.0
C163 C 0.03376 0.08589 0.76484 0.0
C164 C 0.08845 0.96227 0.70487 0.0
C165 C 0.06845 0.91901 0.73695 0.0
C166 C 0.08586 0.90708 0.67881 0.0
C167 C 0.10567 0.95017 0.64726 0.0
C168 C 0.06958 0.94678 0.74746 0.0
C169 C 0.10422 0.92266 0.6339 0.0
C170 C 0.99212 0.03623 0.80087 0.0
C171 C 0.08903 0.99122 0.71692 0.0
H172 H 0.09064 0.08565 0.25827 0.0
H173 H 1.0168 0.06047 0.36312 0.0
H174 H 0.05131 0.05673 0.25506 0.0
H175 H 0.0597 0.12499 0.48072 0.0
H176 H 0.08582 0.88572 0.66942 0.0
H177 H 0.12006 0.96199 0.61236 0.0
H178 H 0.05568 0.95656 0.7886 0.0
H179 H 0.11758 0.91334 0.58944 0.0
Tb180 Tb 0.54793 0.0601 0.77037 0.0
C181 C 0.49245 0.954 0.61855 0.0
N182 N 0.51679 0.96544 0.61344 0.0
C183 C 0.53703 0.92244 0.6276 0.0
C184 C 0.48925 0.92637 0.63134 0.0
C185 C 0.53903 0.94994 0.6134 0.0
C186 C 0.51203 0.91064 0.63814 0.0
C187 C 0.44515 0.95872 0.59752 0.0
C188 C 0.47088 0.9698 0.60221 0.0
C189 C 0.44146 0.9315 0.61566 0.0
C190 C 0.46352 0.91532 0.63267 0.0
Tb191 Tb 0.51822 1.01088 0.59875 0.0
N192 N 0.47558 0.99566 0.58276 0.0
C193 C 0.42426 0.97507 0.57081 0.0
C194 C 0.45569 1.01115 0.55076 0.0
C195 C 0.42965 1.00131 0.54588 0.0
H196 H 0.5584 0.9589 0.60465 0.0
H197 H 0.41381 1.01396 0.52296 0.0
H198 H 0.52325 0.04727 0.95885 0.0
H199 H 0.5831 0.1534 0.63894 0.0
H200 H 0.45988 0.03143 0.53239 0.0
H201 H 0.40415 0.96738 0.56631 0.0
H202 H 0.58151 0.10449 0.65613 0.0
H203 H 0.55476 0.91036 0.63003 0.0
H204 H 0.42181 0.92259 0.61348 0.0
H205 H 0.46056 0.89417 0.64336 0.0
H206 H 0.50114 0.07189 0.07425 0.0
H207 H 0.5105 0.88932 0.64811 0.0
H208 H 0.55663 0.18215 0.73367 0.0
N209 N 0.52877 0.0817 0.88175 0.0
C210 C 0.52684 0.1085 0.87651 0.0
C211 C 0.508 0.08242 0.01855 0.0
C212 C 0.51462 0.12348 0.94081 0.0
C213 C 0.52054 0.06855 0.9531 0.0
C214 C 0.50462 0.10998 1.01185 0.0
N215 N 0.55288 0.10538 0.75531 0.0
C216 C 0.56941 0.11679 0.69661 0.0
C217 C 0.54017 0.14892 0.80452 0.0
C218 C 0.53938 0.1209 0.8101 0.0
C219 C 0.55549 0.16068 0.74041 0.0
C220 C 0.5705 0.14452 0.687 0.0
H221 H 0.49514 0.12069 0.063 0.0
H222 H 0.50443 0.16334 0.98192 0.0
H223 H 0.52682 0.1857 0.86191 0.0
O224 O 0.57559 0.03118 0.80751 0.0
O225 O 0.54254 0.07313 0.63816 0.0
O226 O 0.50456 0.05272 0.59416 0.0
O227 O 0.58025 0.072 0.84692 0.0
O228 O 0.56906 0.05377 0.65006 0.0
O229 O 0.56102 1.00975 0.62965 0.0
O230 O 0.51591 0.99355 0.47748 0.0
O231 O 0.53949 0.995 0.71007 0.0
O232 O 0.52893 1.02309 0.81767 0.0
O233 O 0.53687 0.03051 0.49638 0.0
O234 O 0.4867 0.02757 0.68082 0.0
O235 O 0.50463 0.05446 0.78897 0.0
C236 C 0.52003 0.07391 0.59624 0.0
C237 C 0.61912 0.04715 0.81575 0.0
C238 C 0.65943 1.02056 0.80395 0.0
C239 C 0.6723 0.04256 0.76596 0.0
C240 C 0.63239 0.06898 0.77905 0.0
C241 C 0.65876 0.0665 0.7533 0.0
C242 C 0.63253 1.02296 0.82606 0.0
C243 C 0.57713 0.0304 0.62346 0.0
C244 C 0.59123 0.04859 0.84271 0.0
C245 C 0.51393 0.1514 0.93364 0.0
C246 C 0.52668 0.16413 0.86535 0.0
C247 C 0.53242 0.99873 0.78934 0.0
C248 C 0.51434 1.02462 0.36615 0.0
C249 C 0.48155 0.05488 0.30417 0.0
C250 C 0.48536 0.04241 0.22507 0.0
C251 C 0.51824 1.01301 0.2865 0.0
C252 C 0.49632 0.0457 0.37438 0.0
C253 C 0.50384 1.02196 0.21622 0.0
C254 C 0.48442 0.0425 0.74981 0.0
C255 C 0.52793 1.01349 0.44092 0.0
H256 H 0.69311 0.04177 0.74922 0.0
H257 H 0.62236 0.08778 0.76932 0.0
H258 H 0.66891 0.08334 0.72472 0.0
H259 H 0.62195 1.00611 0.85317 0.0
H260 H 0.4735 0.04781 0.1703 0.0
H261 H 0.53201 0.99668 0.27908 0.0
H262 H 0.49356 0.05458 0.43583 0.0
H263 H 0.50654 1.01259 0.15503 0.0
Tb264 Tb 0.5552 0.52436 0.62236 0.0
C265 C 0.4543 0.52099 0.84775 0.0
N266 N 0.46061 0.53701 0.78111 0.0
C267 C 0.41657 0.5311 0.72442 0.0
C268 C 0.42919 0.50855 0.85393 0.0
C269 C 0.44163 0.54327 0.72205 0.0
C270 C 0.41043 0.51333 0.78999 0.0
C271 C 0.46679 0.50282 0.98485 0.0
C272 C 0.47268 0.51816 0.91214 0.0
C273 C 0.44218 0.48958 0.99019 0.0
C274 C 0.42341 0.49241 0.92474 0.0
Tb275 Tb 0.50273 0.55488 0.78193 0.0
N276 N 0.49628 0.531 0.90401 0.0
C277 C 0.48562 0.50174 0.05045 0.0
C278 C 0.51417 0.53121 0.96961 0.0
C279 C 0.50928 0.51629 0.04322 0.0
H280 H 0.44541 0.55813 0.67387 0.0
H281 H 0.52371 0.51607 0.09436 0.0
H282 H 0.61086 0.55182 0.68892 0.0
H283 H 0.51292 0.51788 0.3051 0.0
H284 H 0.53241 0.54252 0.96431 0.0
H285 H 0.48185 0.49023 0.10754 0.0
H286 H 0.52039 0.50295 0.45188 0.0
H287 H 0.40185 0.53579 0.67645 0.0
H288 H 0.4373 0.47753 0.04524 0.0
H289 H 0.4043 0.48254 0.93039 0.0
H290 H 0.64422 0.58417 0.63489 0.0
H291 H 0.3909 0.50416 0.79225 0.0
H292 H 0.53893 0.55561 0.24658 0.0
N293 N 0.58648 0.55438 0.57879 0.0
C294 C 0.584 0.56373 0.49819 0.0
C295 C 0.62724 0.57878 0.59612 0.0
C296 C 0.6024 0.58219 0.46467 0.0
C297 C 0.60836 0.56057 0.62665 0.0
C298 C 0.62403 0.58996 0.51524 0.0
N299 N 0.54774 0.53433 0.48162 0.0
C300 C 0.53076 0.52051 0.42954 0.0
C301 C 0.56086 0.56216 0.36331 0.0
C302 C 0.56355 0.55378 0.44851 0.0
C303 C 0.54164 0.54977 0.31235 0.0
C304 C 0.52689 0.5285 0.34521 0.0
H305 H 0.63867 0.60405 0.49176 0.0
H306 H 0.61272 0.60609 0.35458 0.0
H307 H 0.5763 0.58856 0.26571 0.0
O308 O 0.57423 0.49781 0.53961 0.0
O309 O 0.5555 0.5682 0.64656 0.0
O310 O 0.51163 0.57672 0.66453 0.0
O311 O 0.58481 0.49923 0.67144 0.0
O312 O 0.51274 0.51536 0.59405 0.0
O313 O 0.49165 0.55226 0.64655 0.0
O314 O 0.51301 0.58515 0.86666 0.0
O315 O 0.51688 0.51381 0.80628 0.0
O316 O 0.52544 0.49653 0.67433 0.0
O317 O 0.47426 0.58441 0.80973 0.0
O318 O 0.54503 0.56246 0.81132 0.0
O319 O 0.56754 0.52663 0.7562 0.0
C320 C 0.53529 0.58466 0.64069 0.0
C321 C 0.58206 0.45726 0.61011 0.0
C322 C 0.55128 0.41958 0.60409 0.0
C323 C 0.57091 0.40332 0.64091 0.0
C324 C 0.60144 0.44084 0.64653 0.0
C325 C 0.5958 0.41397 0.66209 0.0
C326 C 0.55703 0.44661 0.58993 0.0
C327 C 0.49254 0.53201 0.59372 0.0
C328 C 0.58679 0.48598 0.60121 0.0
C329 C 0.59899 0.59165 0.3813 0.0
C330 C 0.57821 0.58171 0.33077 0.0
C331 C 0.51941 0.49335 0.75498 0.0
C332 C 0.49703 0.62595 0.81472 0.0
C333 C 0.52824 0.66292 0.79217 0.0
C334 C 0.50754 0.67772 0.75484 0.0
C335 C 0.47664 0.64113 0.77823 0.0
C336 C 0.52291 0.63658 0.81736 0.0
C337 C 0.48207 0.66667 0.74684 0.0
C338 C 0.56541 0.54606 0.81161 0.0
C339 C 0.49194 0.59889 0.84874 0.0
H340 H 0.56734 0.38227 0.65141 0.0
H341 H 0.62069 0.4489 0.66412 0.0
H342 H 0.6108 0.40131 0.69026 0.0
H343 H 0.54182 0.45953 0.56406 0.0
H344 H 0.51053 0.6982 0.73525 0.0
H345 H 0.4566 0.63327 0.77387 0.0
H346 H 0.53897 0.6245 0.84172 0.0
H347 H 0.46626 0.67832 0.71879 0.0
Tb348 Tb 0.04234 0.56183 0.66026 0.0
C349 C 0.0503 0.47329 0.90298 0.0
N350 N 0.03495 0.47471 0.83176 0.0
C351 C 0.05193 0.43245 0.78629 0.0
C352 C 0.06813 0.45212 0.91634 0.0
C353 C 0.03446 0.45382 0.77621 0.0
C354 C 0.0692 0.43183 0.85583 0.0
C355 C 0.06297 0.49237 0.03878 0.0
C356 C 0.04761 0.49289 0.96385 0.0
C357 C 0.08133 0.47175 0.05133 0.0
C358 C 0.08389 0.45165 0.99025 0.0
Tb359 Tb 1.00854 0.51182 0.82095 0.0
N360 N 0.03037 0.51302 0.948 0.0
C361 C 0.05951 0.51275 0.09826 0.0
C362 C 0.02592 0.53218 1.00745 0.0
C363 C 0.04077 0.53264 0.08259 0.0
H364 H 1.02014 0.45295 0.7254 0.0
H365 H 0.03778 0.54846 0.12787 0.0
H366 H 1.01258 0.61837 0.70393 0.0
H367 H 0.07171 0.52145 0.35712 0.0
H368 H 1.01118 0.54733 0.99657 0.0
H369 H 0.07102 0.5132 0.15653 0.0
H370 H 0.07592 0.52934 0.51134 0.0
H371 H 0.05174 0.41625 0.74107 0.0
H372 H 0.09348 0.47106 0.10822 0.0
H373 H 0.09786 0.43566 1.00127 0.0
H374 H 0.98439 0.65128 0.62852 0.0
H375 H 0.0826 0.41518 0.86369 0.0
H376 H 0.03792 0.54581 0.27374 0.0
N377 N 1.01633 0.5932 0.59639 0.0
C378 C 1.01202 0.5903 0.51195 0.0
C379 C 0.99182 0.63405 0.59517 0.0
C380 C 0.99611 0.60838 0.46621 0.0
C381 C 1.00771 0.61544 0.63769 0.0
C382 C 0.98553 0.63022 0.50941 0.0
N383 N 0.0429 0.55559 0.51635 0.0
C384 C 0.06038 0.53922 0.476 0.0
C385 C 1.02314 0.56752 0.38193 0.0
C386 C 0.0255 0.5704 0.47058 0.0
C387 C 0.03925 0.54886 0.34147 0.0
C388 C 0.05834 0.53504 0.38844 0.0
H389 H 0.97329 0.64467 0.47656 0.0
H390 H 0.97997 0.6182 0.34215 0.0
H391 H 1.00351 0.58217 0.26827 0.0
O392 O 0.07296 0.58317 0.59914 0.0
O393 O 0.99829 0.56323 0.66814 0.0
O394 O 0.98608 0.52049 0.70404 0.0
O395 O 0.06697 0.58665 0.73365 0.0
O396 O 0.047 0.5187 0.63076 0.0
O397 O 1.0102 0.49793 0.68838 0.0
O398 O 0.97461 0.51678 0.89599 0.0
O399 O 0.04803 0.53055 0.84226 0.0
O400 O 0.06611 0.52916 0.71184 0.0
O401 O 0.98621 0.47782 0.85563 0.0
O402 O 0.99746 0.55372 0.8413 0.0
O403 O 0.03347 0.57715 0.78807 0.0
C404 C 0.98072 0.54364 0.66864 0.0
C405 C 0.11077 0.58681 0.68743 0.0
C406 C 0.14926 0.55771 0.67589 0.0
C407 C 0.16426 0.57637 0.7229 0.0
C408 C 0.12595 0.60512 0.73406 0.0
C409 C 0.15255 0.59976 0.75236 0.0
C410 C 0.12222 0.5629 0.6609 0.0
C411 C 0.02899 0.49942 0.63029 0.0
C412 C 0.08262 0.59204 0.67053 0.0
C413 C 0.99239 0.60473 0.37847 0.0
C414 C 1.0058 0.58422 0.3364 0.0
C415 C 0.06879 0.52647 0.794 0.0
C416 C 0.94083 0.48887 0.84101 0.0
C417 C 0.90035 0.50931 0.78462 0.0
C418 C 0.89415 0.48549 0.74226 0.0
C419 C 0.93429 0.46519 0.79803 0.0
C420 C 0.92346 0.51056 0.83492 0.0
C421 C 0.91106 0.46356 0.74918 0.0
C422 C 1.01308 0.57491 0.83992 0.0
C423 C 0.96688 0.49227 0.88409 0.0
H424 H 0.18523 0.57348 0.73473 0.0
H425 H 0.11721 0.62346 0.75653 0.0
H426 H 0.16428 0.614 0.78811 0.0
H427 H 0.10996 0.54841 0.62801 0.0
H428 H 0.87635 0.48387 0.70375 0.0
H429 H 0.94735 0.44813 0.80084 0.0
H430 H 0.92794 0.52862 0.86985 0.0
H431 H 0.90626 0.4453 0.71595 0.0
H432 H 0.2034 0.03096 0.24778 0.0
H433 H 0.21357 0.10904 0.35599 0.0
H434 H 0.16039 1.02644 0.31988 0.0
H435 H 0.17028 0.10562 0.42312 0.0
H436 H 0.11265 0.08028 0.62706 0.0
H437 H 0.15186 0.08549 0.53956 0.0
H438 H 0.11544 0.0367 0.34509 0.0
H439 H 0.07644 0.03057 0.43567 0.0
C440 C 0.19598 0.04753 0.28447 0.0
C441 C 0.21183 0.0704 0.29599 0.0
C442 C 0.17129 0.04498 0.32628 0.0
C443 C 0.16177 0.06537 0.37991 0.0
C444 C 0.17704 0.08895 0.38566 0.0
C445 C 0.20179 0.09118 0.34575 0.0
C446 C 0.11301 0.07048 0.56596 0.0
C447 C 0.09131 0.0549 0.53904 0.0
C448 C 0.13551 0.07379 0.51459 0.0
C449 C 0.13715 0.06178 0.43378 0.0
C450 C 0.11534 0.0461 0.40686 0.0
C451 C 0.09276 0.04275 0.45866 0.0
H452 H 0.48413 0.22721 0.37421 0.0
H453 H 0.52892 0.19048 0.17415 0.0
H454 H 0.48347 0.18521 0.4531 0.0
H455 H 0.52889 0.14818 0.25446 0.0
H456 H 0.55732 0.09832 0.49696 0.0
H457 H 0.55148 0.13516 0.39652 0.0
H458 H 0.46773 0.13663 0.45308 0.0
H459 H 0.47361 0.09926 0.55295 0.0
C460 C 0.49322 0.20985 0.34599 0.0
C461 C 0.5062 0.21208 0.26732 0.0
C462 C 0.49289 0.18574 0.39139 0.0
C463 C 0.50623 0.16322 0.36068 0.0
C464 C 0.51851 0.16514 0.28029 0.0
C465 C 0.51829 0.18927 0.23372 0.0
C466 C 0.53761 0.10637 0.48759 0.0
C467 C 0.51592 0.09586 0.53318 0.0
C468 C 0.53421 0.12735 0.42925 0.0
C469 C 0.50911 0.13889 0.41606 0.0
C470 C 0.48736 0.12828 0.46153 0.0
C471 C 0.49068 0.10686 0.51868 0.0
H472 H 0.3417 0.55991 0.35617 0.0
H473 H 0.36903 0.4954 0.19961 0.0
H474 H 0.38288 0.55921 0.43595 0.0
H475 H 0.41138 0.495 0.27944 0.0
H476 H 0.47107 0.48709 0.51617 0.0
H477 H 0.43242 0.48512 0.41982 0.0
H478 H 0.42804 0.57102 0.42355 0.0
H479 H 0.46567 0.57279 0.52019 0.0
C480 C 0.35676 0.54571 0.33796 0.0
C481 C 0.35201 0.52791 0.27081 0.0
C482 C 0.38062 0.54539 0.38372 0.0
C483 C 0.40095 0.52731 0.36407 0.0
C484 C 0.39626 0.50921 0.29684 0.0
C485 C 0.37207 0.50955 0.25053 0.0
C486 C 0.46191 0.5055 0.49554 0.0
C487 C 0.47121 0.53008 0.52733 0.0
C488 C 0.43977 0.50441 0.44005 0.0
C489 C 0.4265 0.52788 0.41475 0.0
C490 C 0.43698 0.55241 0.44316 0.0
C491 C 0.45878 0.55346 0.49858 0.0
H492 H 0.05665 0.37736 0.22815 0.0
H493 H 1.01656 0.34013 0.43932 0.0
H494 H 0.05438 0.42076 0.30138 0.0
H495 H 1.01391 0.38293 0.51104 0.0
H496 H 0.9889 0.46589 0.58254 0.0
H497 H 0.99085 0.42676 0.49197 0.0
H498 H 0.07354 0.44285 0.44132 0.0
H499 H 0.07181 0.482 0.53451 0.0
C500 C 0.04699 0.37849 0.28933 0.0
C501 C 0.03652 0.35529 0.32752 0.0
C502 C 0.0459 0.40329 0.33169 0.0
C503 C 0.03384 0.40545 0.41219 0.0
C504 C 1.02304 0.38222 0.44892 0.0
C505 C 0.02457 0.3576 0.40768 0.0
C506 C 1.00754 0.46132 0.55188 0.0
C507 C 0.03022 0.47726 0.56656 0.0
C508 C 1.00864 0.43877 0.49976 0.0
C509 C 0.03239 0.43142 0.4595 0.0
C510 C 0.05485 0.44799 0.47071 0.0
C511 C 0.05383 0.47054 0.52403 0.0
H512 H 0.84381 0.04467 0.10203 0.0
H513 H 0.89901 0.99983 0.25489 0.0
H514 H 0.87796 0.05041 0.99247 0.0
H515 H 0.93333 1.00633 0.14848 0.0
H516 H 0.98105 0.99483 0.90922 0.0
H517 H 0.94654 0.9915 1.01616 0.0
H518 H 0.91843 0.06972 0.94543 0.0
H519 H 0.95311 0.07268 0.83732 0.0
C520 C 0.8634 0.03651 0.11303 0.0
C521 C 0.86866 1.02176 0.18731 0.0
C522 C 0.8831 0.03978 0.0501 0.0
C523 C 0.90863 0.02853 0.06004 0.0
C524 C 0.91391 1.01469 0.13631 0.0
C525 C 0.89424 1.0112 0.19827 0.0
C526 C 0.96778 1.01147 0.91704 0.0
C527 C 0.9702 0.03411 0.86481 0.0
C528 C 0.94779 1.00962 0.97884 0.0
C529 C 0.92954 0.03048 0.99136 0.0
C530 C 0.93174 0.05304 0.93794 0.0
C531 C 0.95171 0.05478 0.87555 0.0
H532 H 0.51699 0.87125 0.18237 0.0
H533 H 0.60051 0.88366 0.13576 0.0
H534 H 0.50648 0.90587 0.07552 0.0
H535 H 0.59017 0.91736 0.02926 0.0
H536 H 0.56278 0.95364 0.77822 0.0
H537 H 0.56858 0.91829 0.88333 0.0
H538 H 0.51414 0.95785 0.05124 0.0
H539 H 0.50827 0.99349 0.94529 0.0
C540 C 0.53306 0.88124 0.14935 0.0
C541 C 0.55962 0.87459 0.16764 0.0
C542 C 0.52707 0.90114 0.08834 0.0
C543 C 0.54748 0.91434 0.04303 0.0
C544 C 0.5739 0.90749 0.06176 0.0
C545 C 0.57983 0.88818 0.12333 0.0
C546 C 0.55164 0.95468 0.83673 0.0
C547 C 0.53489 0.97644 0.85259 0.0
C548 C 0.55516 0.93445 0.89758 0.0
C549 C 0.54184 0.93509 0.9761 0.0
C550 C 0.52454 0.95651 0.99134 0.0
C551 C 0.52133 0.97705 0.93076 0.0
H552 H 0.70235 0.53117 0.16651 0.0
H553 H 0.6869 0.61523 0.14216 0.0
H554 H 0.66367 0.52153 0.0754 0.0
H555 H 0.64909 0.60596 0.0506 0.0
H556 H 0.56947 0.58364 0.93863 0.0
H557 H 0.60531 0.59006 0.04113 0.0
H558 H 0.64762 0.52393 0.93206 0.0
H559 H 0.61137 0.51701 0.83131 0.0
C560 C 0.69063 0.54756 0.14231 0.0
C561 C 0.69771 0.57399 0.16215 0.0
C562 C 0.66852 0.5421 0.08931 0.0
C563 C 0.65289 0.56292 0.05498 0.0
C564 C 0.66001 0.58924 0.07636 0.0
C565 C 0.68195 0.59462 0.12881 0.0
C566 C 0.58633 0.57035 0.93652 0.0
C567 C 0.58733 0.54985 0.87578 0.0
C568 C 0.60712 0.57413 0.99536 0.0
C569 C 0.62979 0.55766 0.9954 0.0
C570 C 0.63055 0.5369 0.9354 0.0
C571 C 0.60971 0.53305 0.87675 0.0
H572 H 0.95491 0.68153 0.24159 0.0
H573 H 0.02583 0.72044 0.15114 0.0
H574 H 0.96303 0.6439 0.14859 0.0
H575 H 0.03318 0.6839 0.05221 0.0
H576 H 0.05069 0.60771 0.91013 0.0
H577 H 0.04517 0.64234 1.01584 0.0
H578 H 0.96048 0.62699 1.01706 0.0
H579 H 0.96666 0.59102 0.91568 0.0
C580 C 0.97237 0.68194 0.20158 0.0
C581 C 0.98986 0.70384 0.20457 0.0
C582 C 0.97688 0.66044 0.14668 0.0
C583 C 0.99862 0.66046 0.09026 0.0
C584 C 1.0164 0.68242 0.09468 0.0
C585 C 1.01224 0.70362 0.15164 0.0
C586 C 0.03087 0.61175 0.93312 0.0
C587 C 1.00911 0.59655 0.90388 0.0
C588 C 0.0276 0.63191 0.99391 0.0
C589 C 1.00229 0.63813 0.02645 0.0
C590 C 0.98048 0.62285 0.9963 0.0
C591 C 0.9839 0.60221 0.93699 0.0
H592 H 0.14093 0.24497 0.16799 0.0
H593 H 0.0853 0.25506 0.3727 0.0
H594 H 0.15827 0.20513 0.23712 0.0
H595 H 0.10199 0.21524 0.44065 0.0
H596 H 0.10439 0.13366 0.50103 0.0
H597 H 0.12758 0.1764 0.48945 0.0
H598 H 0.12588 0.16954 0.21601 0.0
H599 H 0.10195 0.12837 0.22694 0.0
C600 C 0.1335 0.23955 0.23022 0.0
C601 C 0.11104 0.25226 0.26339 0.0
C602 C 0.1434 0.2167 0.26985 0.0
C603 C 0.13045 0.20618 0.34164 0.0
C604 C 0.11208 0.22237 0.38429 0.0
C605 C 0.10236 0.24533 0.3451 0.0
C606 C 0.10939 0.14112 0.43847 0.0
C607 C 0.09999 0.12817 0.36488 0.0
C608 C 0.12308 0.1654 0.43204 0.0
C609 C 0.12794 0.17683 0.35193 0.0
C610 C 0.1225 0.16155 0.27905 0.0
C611 C 0.10848 0.13766 0.28538 0.0
H612 H 0.34902 0.14693 0.16304 0.0
H613 H 0.32696 0.08617 0.34394 0.0
H614 H 0.39343 0.14903 0.22491 0.0
H615 H 0.37106 0.08679 0.40228 0.0
H616 H 0.4505 0.06557 0.4441 0.0
H617 H 0.41244 0.09418 0.45224 0.0
H618 H 0.42552 0.11879 0.192 0.0
H619 H 0.46559 0.09276 0.1881 0.0
C620 C 0.35329 0.13503 0.21894 0.0
C621 C 0.33499 0.11566 0.24676 0.0
C622 C 0.37892 0.13578 0.25342 0.0
C623 C 0.38659 0.1168 0.31478 0.0
C624 C 0.36649 0.1014 0.35382 0.0
C625 C 0.3408 0.10107 0.32049 0.0
C626 C 0.44601 0.07775 0.38953 0.0
C627 C 0.46082 0.07583 0.31418 0.0
C628 C 0.42375 0.0941 0.39392 0.0
C629 C 0.41486 0.10805 0.32175 0.0
C630 C 0.43126 0.10833 0.2493 0.0
C631 C 0.4541 0.09269 0.24606 0.0
H632 H 0.44166 0.35813 0.24651 0.0
H633 H 0.48982 0.29848 0.37156 0.0
H634 H 0.44609 0.38657 0.37133 0.0
H635 H 0.4936 0.3262 0.49432 0.0
H636 H 0.52441 0.43238 0.45919 0.0
H637 H 0.48894 0.4078 0.39301 0.0
H638 H 0.48429 0.35561 0.61154 0.0
H639 H 0.5201 0.38094 0.67967 0.0
C640 C 0.45238 0.35065 0.30128 0.0
C641 C 0.46631 0.32647 0.29715 0.0
C642 C 0.45471 0.36685 0.37309 0.0
C643 C 0.47099 0.35906 0.44152 0.0
C644 C 0.48101 0.33301 0.44283 0.0
C645 C 0.47885 0.31696 0.37129 0.0
C646 C 0.51522 0.41641 0.49522 0.0
C647 C 0.52572 0.40811 0.57373 0.0
C648 C 0.49454 0.40231 0.45717 0.0
C649 C 0.48407 0.37933 0.49614 0.0
C650 C 0.49233 0.37294 0.57922 0.0
C651 C 0.51305 0.38721 0.61771 0.0
H652 H 0.20962 0.4538 0.29227 0.0
H653 H 0.26889 0.50741 0.3965 0.0
H654 H 0.18354 0.45845 0.42185 0.0
H655 H 0.24354 0.51113 0.52494 0.0
H656 H 0.19167 0.52796 0.73459 0.0
H657 H 0.21792 0.49645 0.65267 0.0
H658 H 0.16167 0.50233 0.44585 0.0
H659 H 0.13639 0.53423 0.5241 0.0
C660 C 0.21755 0.46582 0.34355 0.0
C661 C 0.24093 0.48091 0.33251 0.0
C662 C 0.20275 0.46824 0.41801 0.0
C663 C 0.21126 0.48559 0.48266 0.0
C664 C 0.23645 0.49752 0.47653 0.0
C665 C 0.25106 0.49537 0.40205 0.0
C666 C 0.18476 0.52234 0.67194 0.0
C667 C 0.16216 0.53432 0.63558 0.0
C668 C 0.19958 0.50394 0.62574 0.0
C669 C 0.19194 0.49704 0.54273 0.0
C670 C 0.16793 0.50686 0.51013 0.0
C671 C 0.15337 0.52542 0.55551 0.0
H672 H 0.96798 0.85833 0.13947 0.0
H673 H 1.01887 0.79453 0.05597 0.0
H674 H 0.97876 0.88345 1.01084 0.0
H675 H 0.02897 0.81934 0.92729 0.0
H676 H 0.0542 0.92836 0.90125 0.0
H677 H 0.02611 0.90176 0.99202 0.0
H678 H 1.01443 0.84477 0.79036 0.0
H679 H 0.04164 0.8725 0.69582 0.0
C680 C 0.98082 0.84934 0.09268 0.0
C681 C 0.99305 0.82473 0.10892 0.0
C682 C 0.98682 0.86363 0.01895 0.0
C683 C 1.00497 0.85343 0.95999 0.0
C684 C 1.01479 0.82757 0.97147 0.0
C685 C 1.00897 0.81336 0.04548 0.0
C686 C 0.04494 0.91077 0.87436 0.0
C687 C 0.05015 0.9028 0.7905 0.0
C688 C 0.02879 0.89545 0.92687 0.0
C689 C 1.01785 0.87138 0.89787 0.0
C690 C 1.02259 0.86337 0.81392 0.0
C691 C 0.03844 0.87907 0.76038 0.0
H692 H 0.73914 0.93364 0.16927 0.0
H693 H 0.78721 0.99074 0.03166 0.0
H694 H 0.71328 0.92533 0.04065 0.0
H695 H 0.76174 0.98263 0.90548 0.0
H696 H 0.6521 0.99049 0.9472 0.0
H697 H 0.68306 0.96087 1.0122 0.0
H698 H 0.73403 0.96673 0.79251 0.0
H699 H 0.70197 0.99643 0.72469 0.0
C700 C 0.74496 0.94355 0.11095 0.0
C701 C 0.76423 0.96395 0.11203 0.0
C702 C 0.73022 0.93871 0.03707 0.0
C703 C 0.73438 0.95453 0.96425 0.0
C704 C 0.75741 0.97048 0.96073 0.0
C705 C 0.77216 0.97525 0.03418 0.0
C706 C 0.66913 0.98464 0.91006 0.0
C707 C 0.67484 0.99676 0.8315 0.0
C708 C 0.6871 0.96728 0.94778 0.0
C709 C 0.71157 0.96192 0.90882 0.0
C710 C 0.71565 0.97101 0.82517 0.0
C711 C 0.69743 0.98831 0.7868 0.0
H712 H 0.62275 0.73259 0.16057 0.0
H713 H 0.56894 0.78555 0.02934 0.0
H714 H 0.62786 0.70691 0.03021 0.0
H715 H 0.5737 0.76018 0.90167 0.0
H716 H 0.55934 0.65108 0.93075 0.0
H717 H 0.59154 0.67882 0.99637 0.0
H718 H 0.58798 0.73373 0.78459 0.0
H719 H 0.5557 0.70455 0.71449 0.0
C720 C 0.61272 0.73926 0.10343 0.0
C721 C 0.59463 0.76044 0.10632 0.0
C722 C 0.61579 0.72471 0.02854 0.0
C723 C 0.60024 0.73072 0.95645 0.0
C724 C 0.58582 0.75461 0.95577 0.0
C725 C 0.58291 0.76922 0.03006 0.0
C726 C 0.56612 0.66815 0.89461 0.0
C727 C 0.55377 0.67593 0.81807 0.0
C728 C 0.58505 0.68433 0.93311 0.0
C729 C 0.59169 0.70917 0.8976 0.0
C730 C 0.58259 0.71508 0.81497 0.0
C731 C 0.56378 0.69853 0.77537 0.0
H732 H 0.86059 0.5801 0.13962 0.0
H733 H 0.78626 0.60633 0.02723 0.0
H734 H 0.87935 0.57641 1.00148 0.0
H735 H 0.80489 0.5988 0.88687 0.0
H736 H 0.8463 0.50847 0.79893 0.0
H737 H 0.8204 0.5441 0.8608 0.0
H738 H 0.88728 0.59769 0.83751 0.0
H739 H 0.91293 0.56238 0.77123 0.0
C740 C 0.84817 0.58601 0.08687 0.0
C741 C 0.82111 0.59235 0.09691 0.0
C742 C 0.85922 0.58378 1.00646 0.0
C743 C 0.84341 0.58689 0.93372 0.0
C744 C 0.81739 0.59612 0.94237 0.0
C745 C 0.80659 0.59968 0.02336 0.0
C746 C 0.85497 0.52825 0.80166 0.0
C747 C 0.88202 0.53235 0.78436 0.0
C748 C 0.84003 0.54879 0.83672 0.0
C749 C 0.8522 0.57332 0.856 0.0
C750 C 0.87759 0.57883 0.82388 0.0
C751 C 0.89236 0.55847 0.78723 0.0
H752 H 1.0143 0.22943 0.08198 0.0
H753 H 0.08741 0.24212 0.94632 0.0
H754 H 1.00605 0.18865 0.99983 0.0
H755 H 0.07924 0.20183 0.86368 0.0
H756 H 0.07813 0.11155 0.82695 0.0
H757 H 0.08154 0.15495 0.89426 0.0
H758 H 0.99705 0.16581 0.86408 0.0
H759 H 0.99358 0.1218 0.79768 0.0
C760 C 0.02803 0.22416 0.03208 0.0
C761 C 0.05133 0.23935 0.02001 0.0
C762 C 0.02348 0.20055 0.98538 0.0
C763 C 0.04222 0.19139 0.92581 0.0
C764 C 0.06459 0.20769 0.91007 0.0
C765 C 0.06908 0.23116 0.95644 0.0
C766 C 0.06018 0.12297 0.83489 0.0
C767 C 0.03557 0.11281 0.80657 0.0
C768 C 0.06218 0.14822 0.87284 0.0
C769 C 0.03963 0.16435 0.88433 0.0
C770 C 1.0149 0.15412 0.85682 0.0
C771 C 1.01293 0.12883 0.81811 0.0
H772 H 0.34512 0.02919 0.07996 0.0
H773 H 0.32497 0.09145 0.90287 0.0
H774 H 0.38533 1.01967 0.9989 0.0
H775 H 0.36506 0.08193 0.82094 0.0
H776 H 0.43612 0.04808 0.66928 0.0
H777 H 0.39188 0.0506 0.73325 0.0
H778 H 0.42736 0.04516 0.98262 0.0
H779 H 0.47133 0.04217 0.9184 0.0
C780 C 0.34853 0.03989 0.02107 0.0
C781 C 0.33131 0.06055 0.99662 0.0
C782 C 0.37196 0.03487 0.97553 0.0
C783 C 0.37883 0.05028 0.90378 0.0
C784 C 0.36049 0.06952 0.8754 0.0
C785 C 0.33722 0.07475 0.92168 0.0
C786 C 0.43444 0.04711 0.73766 0.0
C787 C 0.4574 0.04487 0.7885 0.0
C788 C 0.40904 0.04879 0.7745 0.0
C789 C 0.40581 0.04785 0.86337 0.0
C790 C 0.42886 0.04554 0.91403 0.0
C791 C 0.45422 0.04423 0.87721 0.0
H792 H 0.45934 0.33939 0.94739 0.0
H793 H 0.53868 0.34576 0.04808 0.0
H794 H 0.46669 0.37943 0.86153 0.0
H795 H 0.54603 0.3864 0.96495 0.0
H796 H 0.55732 0.45507 0.77725 0.0
H797 H 0.55218 0.41026 0.83746 0.0
H798 H 0.46884 0.4256 0.87892 0.0
H799 H 0.47402 0.46944 0.81354 0.0
C800 C 0.4787 0.34892 0.94903 0.0
C801 C 0.49866 0.33888 1.00286 0.0
C802 C 0.48281 0.37232 0.90106 0.0
C803 C 0.50688 0.38682 0.9065 0.0
C804 C 0.5273 0.37595 0.95759 0.0
C805 C 0.5232 0.35242 1.00514 0.0
C806 C 0.53783 0.44855 0.79774 0.0
C807 C 0.51607 0.46582 0.79016 0.0
C808 C 0.53488 0.42292 0.83358 0.0
C809 C 0.51003 0.4138 0.86376 0.0
C810 C 0.48825 0.43129 0.85552 0.0
C811 C 0.49125 0.45679 0.81916 0.0
H812 H 0.22159 0.54775 0.059 0.0
H813 H 0.2187 0.4643 0.9971 0.0
H814 H 0.18003 0.55479 0.98023 0.0
H815 H 0.17726 0.47112 0.91814 0.0
H816 H 0.11043 0.49747 0.73261 0.0
H817 H 0.15466 0.49162 0.79539 0.0
H818 H 0.13282 0.54266 1.00344 0.0
H819 H 0.08838 0.54772 0.94189 0.0
C820 C 0.21259 0.5311 0.02583 0.0
C821 C 0.22389 0.5056 0.0325 0.0
C822 C 0.18846 0.53499 0.98191 0.0
C823 C 0.17492 0.51349 0.94317 0.0
C824 C 0.18704 0.48824 0.94626 0.0
C825 C 0.21098 0.48432 0.99102 0.0
C826 C 0.11511 0.50743 0.79178 0.0
C827 C 0.09585 0.52311 0.83207 0.0
C828 C 0.14052 0.50409 0.82789 0.0
C829 C 0.14773 0.51702 0.90403 0.0
C830 C 0.12836 0.5328 0.94398 0.0
C831 C 0.10274 0.53554 0.90904 0.0
H832 H 0.04799 0.84578 0.38037 0.0
H833 H 0.96697 0.8388 0.46421 0.0
H834 H 0.0535 0.88652 0.46373 0.0
H835 H 0.97216 0.87986 0.54719 0.0
H836 H 0.99585 0.95101 0.7222 0.0
H837 H 0.99321 0.90554 0.66458 0.0
H838 H 0.03726 0.93136 0.4442 0.0
H839 H 0.03965 0.9763 0.50111 0.0
C840 C 0.03162 0.85246 0.41919 0.0
C841 C 1.00723 0.83868 0.41706 0.0
C842 C 0.0346 0.87613 0.46596 0.0
C843 C 1.01316 0.88696 0.51149 0.0
C844 C 0.9892 0.87221 0.51358 0.0
C845 C 0.98623 0.84851 0.46646 0.0
C846 C 1.00493 0.94688 0.66143 0.0
C847 C 1.0176 0.9675 0.61582 0.0
C848 C 1.00339 0.92081 0.62822 0.0
C849 C 1.01515 0.91448 0.54962 0.0
C850 C 0.02826 0.93512 0.50531 0.0
C851 C 0.02934 0.96114 0.53757 0.0
H852 H 0.74726 1.02274 0.47384 0.0
H853 H 0.69991 1.00791 0.24938 0.0
H854 H 0.7061 0.02963 0.55554 0.0
H855 H 0.65954 1.01311 0.33162 0.0
H856 H 0.59856 0.98649 0.54512 0.0
H857 H 0.64145 0.98289 0.47304 0.0
H858 H 0.65968 0.06444 0.53629 0.0
H859 H 0.61622 0.0686 0.60469 0.0
C860 C 0.72829 1.0211 0.44161 0.0
C861 C 0.72724 1.01405 0.35496 0.0
C862 C 0.70469 1.02487 0.48862 0.0
C863 C 0.67952 1.02135 0.45036 0.0
C864 C 0.67854 1.0154 0.36345 0.0
C865 C 0.70188 1.01225 0.31642 0.0
C866 C 0.61165 1.00368 0.54409 0.0
C867 C 0.60379 0.02779 0.58174 0.0
C868 C 0.63631 1.00158 0.50285 0.0
C869 C 0.65414 1.0233 0.49964 0.0
C870 C 0.64659 0.04725 0.53852 0.0
C871 C 0.62161 0.04958 0.5778 0.0
H872 H 0.5872 0.74542 0.46882 0.0
H873 H 0.52009 0.72487 0.31172 0.0
H874 H 0.58038 0.70471 0.55296 0.0
H875 H 0.51344 0.68393 0.39352 0.0
H876 H 0.58121 0.61413 0.61404 0.0
H877 H 0.58589 0.65776 0.54594 0.0
H878 H 0.50061 0.66236 0.52017 0.0
H879 H 0.49624 0.61835 0.5843 0.0
C880 C 0.5705 0.73254 0.45382 0.0
C881 C 0.55371 0.73885 0.38503 0.0
C882 C 0.56683 0.70885 0.50111 0.0
C883 C 0.54639 0.69053 0.48052 0.0
C884 C 0.52914 0.69743 0.41302 0.0
C885 C 0.53284 0.72108 0.36596 0.0
C886 C 0.56352 0.62423 0.59251 0.0
C887 C 0.53845 0.6121 0.60277 0.0
C888 C 0.56612 0.64964 0.55456 0.0
C889 C 0.54366 0.66394 0.52604 0.0
C890 C 0.51853 0.65204 0.53895 0.0
C891 C 0.51599 0.62667 0.57656 0.0
H892 H 0.83834 0.52515 0.34961 0.0
H893 H 0.82916 0.60325 0.45699 0.0
H894 H 0.87806 0.51813 0.43576 0.0
H895 H 0.86825 0.59608 0.54698 0.0
H896 H 0.95678 0.59 0.61355 0.0
H897 H 0.91427 0.59536 0.54163 0.0
H898 H 0.90029 0.51053 0.56191 0.0
H899 H 0.94353 0.50524 0.62921 0.0
C900 C 0.84419 0.54038 0.3947 0.0
C901 C 0.83012 0.56446 0.39797 0.0
C902 C 0.8672 0.53647 0.44419 0.0
C903 C 0.87699 0.55658 0.4988 0.0
C904 C 0.86199 0.58022 0.50489 0.0
C905 C 0.83912 0.58419 0.45458 0.0
C906 C 0.94487 0.57246 0.60155 0.0
C907 C 0.95409 0.54718 0.62641 0.0
C908 C 0.92003 0.57554 0.56137 0.0
C909 C 0.90328 0.55342 0.54516 0.0
C910 C 0.91244 0.52814 0.57128 0.0
C911 C 0.93737 0.52509 0.61087 0.0
loop_
_geom_bond_atom_site_label_1
_geom_bond_atom_site_label_2
_geom_bond_distance
_geom_bond_site_symmetry_2
_ccdc_geom_bond_type
H0 C5 0.930 . S
H1 C8 0.930 . S
H2 C10 0.930 . S
H3 C4 1.016 . S
C4 H3 1.016 . S
C4 N11 1.286 . S
C5 H0 0.930 . S
C5 C6 1.397 . S
C5 C7 1.361 . S
C6 C5 1.397 . S
C6 C10 1.390 . S
C7 C5 1.361 . S
C7 C8 1.393 . S
C7 N11 1.413 . S
C8 H1 0.930 . S
C8 C7 1.393 . S
C8 C9 1.399 . S
C9 C8 1.399 . S
C9 C10 1.381 . S
C10 H2 0.930 . S
C10 C6 1.390 . S
C10 C9 1.381 . S
N11 C4 1.286 . S
N11 C7 1.413 . S
H12 C17 0.930 . S
H13 C20 0.930 . S
H14 C22 0.930 . S
H15 C16 1.016 . S
C16 H15 1.016 . S
C16 N23 1.286 . S
C17 H12 0.930 . S
C17 C18 1.397 . S
C17 C19 1.361 . S
C18 C17 1.397 . S
C18 C22 1.390 . S
C19 C17 1.361 . S
C19 C20 1.393 . S
C19 N23 1.413 . S
C20 H13 0.930 . S
C20 C19 1.393 . S
C20 C21 1.399 . S
C21 C20 1.399 . S
C21 C22 1.381 . S
C22 H14 0.930 . S
C22 C18 1.390 . S
C22 C21 1.381 . S
N23 C16 1.286 . S
N23 C19 1.413 . S
H24 C29 0.930 . S
H25 C32 0.930 . S
H26 C34 0.930 . S
H27 C28 1.016 . S
C28 H27 1.016 . S
C28 N35 1.286 . S
C29 H24 0.930 . S
C29 C30 1.397 . S
C29 C31 1.361 . S
C30 C29 1.397 . S
C30 C34 1.390 . S
C31 C29 1.361 . S
C31 C32 1.393 . S
C31 N35 1.413 . S
C32 H25 0.930 . S
C32 C31 1.393 . S
C32 C33 1.399 . S
C33 C32 1.399 . S
C33 C34 1.381 . S
C34 H26 0.930 . S
C34 C30 1.390 . S
C34 C33 1.381 . S
N35 C28 1.286 . S
N35 C31 1.413 . S
H36 C41 0.930 . S
H37 C44 0.930 . S
H38 C46 0.930 . S
H39 C40 1.016 . S
C40 H39 1.016 . S
C40 N47 1.286 . S
C41 H36 0.930 . S
C41 C42 1.397 . S
C41 C43 1.361 . S
C42 C41 1.397 . S
C42 C46 1.390 . S
C43 C41 1.361 . S
C43 C44 1.393 . S
C43 N47 1.413 . S
C44 H37 0.930 . S
C44 C43 1.393 . S
C44 C45 1.399 . S
C45 C44 1.399 . S
C45 C46 1.381 . S
C46 H38 0.930 . S
C46 C42 1.390 . S
C46 C45 1.381 . S
N47 C40 1.286 . S
N47 C43 1.413 . S
H48 C53 0.930 . S
H49 C56 0.930 . S
H50 C58 0.930 . S
H51 C52 1.016 . S
C52 H51 1.016 . S
C52 N59 1.286 . S
C53 H48 0.930 . S
C53 C54 1.397 . S
C53 C55 1.361 1_556 S
C54 C53 1.397 . S
C54 C58 1.390 1_556 S
C55 C53 1.361 1_554 S
C55 C56 1.393 . S
C55 N59 1.413 . S
C56 H49 0.930 . S
C56 C55 1.393 . S
C56 C57 1.399 . S
C57 C56 1.399 . S
C57 C58 1.381 . S
C58 H50 0.930 . S
C58 C54 1.390 1_554 S
C58 C57 1.381 . S
N59 C52 1.286 . S
N59 C55 1.413 . S
H60 C65 0.930 . S
H61 C68 0.930 . S
H62 C70 0.930 . S
H63 C64 1.016 . S
C64 H63 1.016 . S
C64 N71 1.286 . S
C65 H60 0.930 . S
C65 C66 1.397 . S
C65 C67 1.361 1_556 S
C66 C65 1.397 . S
C66 C70 1.390 1_556 S
C67 C65 1.361 1_554 S
C67 C68 1.393 . S
C67 N71 1.413 . S
C68 H61 0.930 . S
C68 C67 1.393 . S
C68 C69 1.399 . S
C69 C68 1.399 . S
C69 C70 1.381 . S
C70 H62 0.930 . S
C70 C66 1.390 1_554 S
C70 C69 1.381 . S
N71 C64 1.286 . S
N71 C67 1.413 . S
H72 C77 0.930 . S
H73 C80 0.930 . S
H74 C82 0.930 . S
H75 C76 1.016 . S
C76 H75 1.016 . S
C76 N83 1.286 . S
C77 H72 0.930 . S
C77 C78 1.397 . S
C77 C79 1.361 1_556 S
C78 C77 1.397 . S
C78 C82 1.390 1_556 S
C79 C77 1.361 1_554 S
C79 C80 1.393 . S
C79 N83 1.413 . S
C80 H73 0.930 . S
C80 C79 1.393 . S
C80 C81 1.399 . S
C81 C80 1.399 . S
C81 C82 1.381 . S
C82 H74 0.930 . S
C82 C78 1.390 1_554 S
C82 C81 1.381 . S
N83 C76 1.286 . S
N83 C79 1.413 . S
H84 C89 0.930 . S
H85 C92 0.930 . S
H86 C94 0.930 . S
H87 C88 1.016 . S
C88 H87 1.016 . S
C88 N95 1.286 . S
C89 H84 0.930 . S
C89 C90 1.397 . S
C89 C91 1.361 1_556 S
C90 C89 1.397 . S
C90 C94 1.390 1_556 S
C91 C89 1.361 1_554 S
C91 C92 1.393 . S
C91 N95 1.413 . S
C92 H85 0.930 . S
C92 C91 1.393 . S
C92 C93 1.399 . S
C93 C92 1.399 . S
C93 C94 1.381 . S
C94 H86 0.930 . S
C94 C90 1.390 1_554 S
C94 C93 1.381 . S
N95 C88 1.286 . S
N95 C91 1.413 . S
Tb96 N125 2.617 . S
Tb96 N131 2.572 . S
Tb96 O140 2.465 1_655 S
Tb96 O141 2.387 1_545 S
Tb96 O143 2.428 . S
Tb96 O144 2.308 1_655 S
Tb96 O148 2.349 1_655 S
Tb96 O151 2.393 . S
Tb96 C160 2.802 . S
C97 N98 1.379 . S
C97 C100 1.416 . S
C97 C104 1.424 . S
N98 C97 1.379 . S
N98 C101 1.334 . S
N98 Tb107 2.617 1_545 S
C99 C101 1.390 . S
C99 C102 1.339 . S
C99 H119 0.930 . S
C100 C97 1.416 . S
C100 C102 1.416 . S
C100 C106 1.448 1_556 S
C101 N98 1.334 . S
C101 C99 1.390 . S
C101 H112 0.930 1_545 S
C102 C99 1.339 . S
C102 C100 1.416 . S
C102 H123 0.930 . S
C103 C104 1.413 1_554 S
C103 C105 1.427 . S
C103 C109 1.416 . S
C104 C97 1.424 . S
C104 C103 1.413 1_556 S
C104 N108 1.361 . S
C105 C103 1.427 . S
C105 C106 1.328 . S
C105 H120 0.929 . S
C106 C100 1.448 1_554 S
C106 C105 1.328 . S
C106 H121 0.930 . S
Tb107 N98 2.617 1_565 S
Tb107 N108 2.572 1_565 S
Tb107 O142 2.349 . S
Tb107 O145 2.393 . S
Tb107 O146 2.465 . S
Tb107 O147 2.387 1_565 S
Tb107 O149 2.428 . S
Tb107 O150 2.308 1_465 S
Tb107 C171 2.802 . S
N108 C104 1.361 . S
N108 Tb107 2.572 1_545 S
N108 C110 1.340 . S
C109 C103 1.416 . S
C109 C111 1.332 . S
C109 H117 0.931 . S
C110 N108 1.340 . S
C110 C111 1.407 1_556 S
C110 H116 0.930 1_455 S
C111 C109 1.332 . S
C111 C110 1.407 1_554 S
C111 H113 0.899 1_455 S
H112 C101 0.930 1_565 S
H113 C111 0.899 1_655 S
H114 C129 0.930 . S
H115 C136 0.929 . S
H116 C110 0.930 1_655 S
H117 C109 0.931 . S
H118 C132 0.930 . S
H119 C99 0.930 . S
H120 C105 0.929 . S
H121 C106 0.930 . S
H122 C127 0.930 . S
H123 C102 0.930 . S
H124 C135 0.931 . S
N125 Tb96 2.617 . S
N125 C126 1.379 . S
N125 C129 1.334 . S
C126 N125 1.379 . S
C126 C128 1.416 1_545 S
C126 C134 1.424 . S
C127 H122 0.930 . S
C127 C129 1.390 . S
C127 C130 1.339 1_545 S
C128 C126 1.416 1_565 S
C128 C130 1.416 . S
C128 C161 1.448 . S
C129 H114 0.930 . S
C129 N125 1.334 . S
C129 C127 1.390 . S
C130 C127 1.339 1_565 S
C130 C128 1.416 . S
C130 H137 0.930 . S
N131 Tb96 2.572 . S
N131 C132 1.340 1_655 S
N131 C134 1.361 . S
C132 H118 0.930 . S
C132 N131 1.340 1_455 S
C132 C136 1.407 1_545 S
C133 C134 1.413 1_565 S
C133 C135 1.416 . S
C133 C162 1.427 . S
C134 C126 1.424 . S
C134 N131 1.361 . S
C134 C133 1.413 1_545 S
C135 H124 0.931 . S
C135 C133 1.416 . S
C135 C136 1.332 1_655 S
C136 H115 0.929 . S
C136 C132 1.407 1_565 S
C136 C135 1.332 1_455 S
H137 C130 0.930 . S
H138 C161 0.930 . S
H139 C162 0.929 . S
O140 Tb96 2.465 1_455 S
O140 C160 1.264 1_455 S
O141 Tb96 2.387 1_565 S
O141 C152 1.264 . S
O142 Tb107 2.349 . S
O142 C152 1.243 1_455 S
O143 Tb96 2.428 . S
O143 C160 1.256 . S
O144 Tb96 2.308 1_455 S
O144 C159 1.266 . S
O145 Tb107 2.393 . S
O145 C159 1.248 1_565 S
O146 Tb107 2.465 . S
O146 C171 1.264 . S
O147 Tb107 2.387 1_545 S
O147 C163 1.264 . S
O148 Tb96 2.349 1_455 S
O148 C163 1.243 . S
O149 Tb107 2.428 . S
O149 C171 1.256 . S
O150 Tb107 2.308 1_645 S
O150 C170 1.266 . S
O151 Tb96 2.393 . S
O151 C170 1.248 . S
C152 O141 1.264 . S
C152 O142 1.243 1_655 S
C153 C156 1.399 . S
C153 C158 1.383 . S
C153 C160 1.496 . S
C154 C155 1.399 . S
C154 C158 1.389 . S
C155 C154 1.399 . S
C155 C157 1.380 . S
C155 H172 0.929 . S
C156 C153 1.399 . S
C156 C157 1.392 . S
C156 H173 0.929 . S
C157 C155 1.380 . S
C157 C156 1.392 . S
C157 H174 0.929 . S
C158 C153 1.383 . S
C158 C154 1.389 . S
C158 H175 0.931 1_655 S
C159 O144 1.266 . S
C159 O145 1.248 1_545 S
C160 Tb96 2.802 . S
C160 O140 1.264 1_655 S
C160 O143 1.256 . S
C160 C153 1.496 . S
C161 C128 1.448 . S
C161 H138 0.930 . S
C161 C162 1.328 . S
C162 C133 1.427 . S
C162 H139 0.929 . S
C162 C161 1.328 . S
C163 O147 1.264 . S
C163 O148 1.243 . S
C164 C167 1.399 . S
C164 C168 1.383 . S
C164 C171 1.496 . S
C165 C166 1.399 . S
C165 C168 1.389 . S
C166 C165 1.399 . S
C166 C169 1.380 . S
C166 H176 0.929 1_556 S
C167 C164 1.399 . S
C167 C169 1.392 . S
C167 H177 0.929 . S
C168 C164 1.383 . S
C168 C165 1.389 . S
C168 H178 0.931 . S
C169 C166 1.380 . S
C169 C167 1.392 . S
C169 H179 0.929 . S
C170 O150 1.266 . S
C170 O151 1.248 . S
C171 Tb107 2.802 . S
C171 O146 1.264 . S
C171 O149 1.256 . S
C171 C164 1.496 . S
H172 C155 0.929 . S
H173 C156 0.929 . S
H174 C157 0.929 . S
H175 C158 0.931 1_455 S
H176 C166 0.929 1_554 S
H177 C167 0.929 . S
H178 C168 0.931 . S
H179 C169 0.929 . S
Tb180 N209 2.617 . S
Tb180 N215 2.572 . S
Tb180 O224 2.465 . S
Tb180 O225 2.387 . S
Tb180 O227 2.428 . S
Tb180 O228 2.308 . S
Tb180 O232 2.349 1_545 S
Tb180 O235 2.393 . S
Tb180 C244 2.802 . S
C181 N182 1.379 . S
C181 C184 1.416 . S
C181 C188 1.424 . S
N182 C181 1.379 . S
N182 C185 1.334 . S
N182 Tb191 2.617 . S
C183 C185 1.390 . S
C183 C186 1.339 . S
C183 H203 0.930 . S
C184 C181 1.416 . S
C184 C186 1.416 . S
C184 C190 1.448 . S
C185 N182 1.334 . S
C185 C183 1.390 . S
C185 H196 0.930 . S
C186 C183 1.339 . S
C186 C184 1.416 . S
C186 H207 0.930 . S
C187 C188 1.413 . S
C187 C189 1.427 . S
C187 C193 1.416 . S
C188 C181 1.424 . S
C188 C187 1.413 . S
C188 N192 1.361 . S
C189 C187 1.427 . S
C189 C190 1.328 . S
C189 H204 0.929 . S
C190 C184 1.448 . S
C190 C189 1.328 . S
C190 H205 0.930 . S
Tb191 N182 2.617 . S
Tb191 N192 2.572 . S
Tb191 O226 2.349 1_565 S
Tb191 O229 2.393 . S
Tb191 O230 2.465 . S
Tb191 O231 2.387 . S
Tb191 O233 2.428 . S
Tb191 O234 2.308 1_565 S
Tb191 C255 2.802 . S
N192 C188 1.361 . S
N192 Tb191 2.572 . S
N192 C194 1.340 . S
C193 C187 1.416 . S
C193 C195 1.332 . S
C193 H201 0.931 . S
C194 N192 1.340 . S
C194 C195 1.407 . S
C194 H200 0.930 . S
C195 C193 1.332 . S
C195 C194 1.407 . S
C195 H197 0.929 . S
H196 C185 0.930 . S
H197 C195 0.929 . S
H198 C213 0.930 . S
H199 C220 0.929 . S
H200 C194 0.930 . S
H201 C193 0.931 . S
H202 C216 0.930 . S
H203 C183 0.930 . S
H204 C189 0.929 . S
H205 C190 0.930 . S
H206 C211 0.930 . S
H207 C186 0.930 . S
H208 C219 0.931 . S
N209 Tb180 2.617 . S
N209 C210 1.379 . S
N209 C213 1.334 . S
C210 N209 1.379 . S
C210 C212 1.416 . S
C210 C218 1.424 . S
C211 H206 0.930 . S
C211 C213 1.390 . S
C211 C214 1.339 . S
C212 C210 1.416 . S
C212 C214 1.416 . S
C212 C245 1.448 . S
C213 H198 0.930 . S
C213 N209 1.334 . S
C213 C211 1.390 . S
C214 C211 1.339 . S
C214 C212 1.416 . S
C214 H221 0.930 . S
N215 Tb180 2.572 . S
N215 C216 1.340 . S
N215 C218 1.361 . S
C216 H202 0.930 . S
C216 N215 1.340 . S
C216 C220 1.407 . S
C217 C218 1.413 . S
C217 C219 1.416 . S
C217 C246 1.427 . S
C218 C210 1.424 . S
C218 N215 1.361 . S
C218 C217 1.413 . S
C219 H208 0.931 . S
C219 C217 1.416 . S
C219 C220 1.332 . S
C220 H199 0.929 . S
C220 C216 1.407 . S
C220 C219 1.332 . S
H221 C214 0.930 . S
H222 C245 0.930 . S
H223 C246 0.929 . S
O224 Tb180 2.465 . S
O224 C244 1.264 . S
O225 Tb180 2.387 . S
O225 C236 1.264 . S
O226 Tb191 2.349 1_545 S
O226 C236 1.243 . S
O227 Tb180 2.428 . S
O227 C244 1.256 . S
O228 Tb180 2.308 . S
O228 C243 1.266 . S
O229 Tb191 2.393 . S
O229 C243 1.248 1_565 S
O230 Tb191 2.465 . S
O230 C255 1.264 . S
O231 Tb191 2.387 . S
O231 C247 1.264 . S
O232 Tb180 2.349 1_565 S
O232 C247 1.243 . S
O233 Tb191 2.428 . S
O233 C255 1.256 . S
O234 Tb191 2.308 1_545 S
O234 C254 1.266 . S
O235 Tb180 2.393 . S
O235 C254 1.248 . S
C236 O225 1.264 . S
C236 O226 1.243 . S
C237 C240 1.399 1_556 S
C237 C242 1.383 . S
C237 C244 1.496 . S
C238 C239 1.399 . S
C238 C242 1.389 1_554 S
C239 C238 1.399 . S
C239 C241 1.380 . S
C239 H256 0.929 . S
C240 C237 1.399 1_554 S
C240 C241 1.392 . S
C240 H257 0.929 . S
C241 C239 1.380 . S
C241 C240 1.392 . S
C241 H258 0.929 . S
C242 C237 1.383 . S
C242 C238 1.389 1_556 S
C242 H259 0.931 . S
C243 O228 1.266 . S
C243 O229 1.248 1_545 S
C244 Tb180 2.802 . S
C244 O224 1.264 . S
C244 O227 1.256 . S
C244 C237 1.496 . S
C245 C212 1.448 . S
C245 H222 0.930 . S
C245 C246 1.328 . S
C246 C217 1.427 . S
C246 H223 0.929 . S
C246 C245 1.328 . S
C247 O231 1.264 . S
C247 O232 1.243 . S
C248 C251 1.399 . S
C248 C252 1.383 1_565 S
C248 C255 1.496 . S
C249 C250 1.399 1_545 S
C249 C252 1.389 . S
C250 C249 1.399 1_565 S
C250 C253 1.380 . S
C250 H260 0.929 . S
C251 C248 1.399 . S
C251 C253 1.392 . S
C251 H261 0.929 . S
C252 C248 1.383 1_545 S
C252 C249 1.389 . S
C252 H262 0.931 . S
C253 C250 1.380 . S
C253 C251 1.392 . S
C253 H263 0.929 . S
C254 O234 1.266 . S
C254 O235 1.248 . S
C255 Tb191 2.802 . S
C255 O230 1.264 . S
C255 O233 1.256 . S
C255 C248 1.496 . S
H256 C239 0.929 . S
H257 C240 0.929 . S
H258 C241 0.929 . S
H259 C242 0.931 . S
H260 C250 0.929 . S
H261 C251 0.929 . S
H262 C252 0.931 . S
H263 C253 0.929 . S
Tb264 N293 2.617 . S
Tb264 N299 2.572 . S
Tb264 O308 2.465 . S
Tb264 O309 2.387 . S
Tb264 O311 2.428 . S
Tb264 O312 2.308 . S
Tb264 O316 2.349 . S
Tb264 O319 2.393 . S
Tb264 C328 2.802 . S
C265 N266 1.379 . S
C265 C268 1.416 . S
C265 C272 1.424 . S
N266 C265 1.379 . S
N266 C269 1.334 . S
N266 Tb275 2.617 . S
C267 C269 1.390 . S
C267 C270 1.339 . S
C267 H287 0.930 . S
C268 C265 1.416 . S
C268 C270 1.416 . S
C268 C274 1.448 1_556 S
C269 N266 1.334 . S
C269 C267 1.390 . S
C269 H280 0.930 . S
C270 C267 1.339 . S
C270 C268 1.416 . S
C270 H291 0.930 . S
C271 C272 1.413 1_554 S
C271 C273 1.427 . S
C271 C277 1.416 . S
C272 C265 1.424 . S
C272 C271 1.413 1_556 S
C272 N276 1.361 . S
C273 C271 1.427 . S
C273 C274 1.328 . S
C273 H288 0.929 . S
C274 C268 1.448 1_554 S
C274 C273 1.328 . S
C274 H289 0.930 . S
Tb275 N266 2.617 . S
Tb275 N276 2.572 . S
Tb275 O310 2.349 . S
Tb275 O313 2.393 . S
Tb275 O314 2.465 . S
Tb275 O315 2.387 . S
Tb275 O317 2.428 . S
Tb275 O318 2.308 . S
Tb275 C339 2.802 . S
N276 C272 1.361 . S
N276 Tb275 2.572 . S
N276 C278 1.340 . S
C277 C271 1.416 . S
C277 C279 1.332 . S
C277 H285 0.931 . S
C278 N276 1.340 . S
C278 C279 1.407 1_556 S
C278 H284 0.930 . S
C279 C277 1.332 . S
C279 C278 1.407 1_554 S
C279 H281 0.929 . S
H280 C269 0.930 . S
H281 C279 0.929 . S
H282 C297 0.930 . S
H283 C304 0.929 . S
H284 C278 0.930 . S
H285 C277 0.931 . S
H286 C300 0.930 . S
H287 C267 0.930 . S
H288 C273 0.929 . S
H289 C274 0.930 . S
H290 C295 0.930 . S
H291 C270 0.930 . S
H292 C303 0.931 . S
N293 Tb264 2.617 . S
N293 C294 1.379 . S
N293 C297 1.334 . S
C294 N293 1.379 . S
C294 C296 1.416 . S
C294 C302 1.424 . S
C295 H290 0.930 . S
C295 C297 1.390 . S
C295 C298 1.339 . S
C296 C294 1.416 . S
C296 C298 1.416 . S
C296 C329 1.448 . S
C297 H282 0.930 . S
C297 N293 1.334 . S
C297 C295 1.390 . S
C298 C295 1.339 . S
C298 C296 1.416 . S
C298 H305 0.930 . S
N299 Tb264 2.572 . S
N299 C300 1.340 . S
N299 C302 1.361 . S
C300 H286 0.930 . S
C300 N299 1.340 . S
C300 C304 1.407 . S
C301 C302 1.413 . S
C301 C303 1.416 . S
C301 C330 1.427 . S
C302 C294 1.424 . S
C302 N299 1.361 . S
C302 C301 1.413 . S
C303 H292 0.931 . S
C303 C301 1.416 . S
C303 C304 1.332 . S
C304 H283 0.929 . S
C304 C300 1.407 . S
C304 C303 1.332 . S
H305 C298 0.930 . S
H306 C329 0.930 . S
H307 C330 0.929 . S
O308 Tb264 2.465 . S
O308 C328 1.264 . S
O309 Tb264 2.387 . S
O309 C320 1.264 . S
O310 Tb275 2.349 . S
O310 C320 1.243 . S
O311 Tb264 2.428 . S
O311 C328 1.256 . S
O312 Tb264 2.308 . S
O312 C327 1.266 . S
O313 Tb275 2.393 . S
O313 C327 1.248 . S
O314 Tb275 2.465 . S
O314 C339 1.264 . S
O315 Tb275 2.387 . S
O315 C331 1.264 . S
O316 Tb264 2.349 . S
O316 C331 1.243 . S
O317 Tb275 2.428 . S
O317 C339 1.256 . S
O318 Tb275 2.308 . S
O318 C338 1.266 . S
O319 Tb264 2.393 . S
O319 C338 1.248 . S
C320 O309 1.264 . S
C320 O310 1.243 . S
C321 C324 1.399 . S
C321 C326 1.383 . S
C321 C328 1.496 . S
C322 C323 1.399 . S
C322 C326 1.389 . S
C323 C322 1.399 . S
C323 C325 1.380 . S
C323 H340 0.929 . S
C324 C321 1.399 . S
C324 C325 1.392 . S
C324 H341 0.929 . S
C325 C323 1.380 . S
C325 C324 1.392 . S
C325 H342 0.929 . S
C326 C321 1.383 . S
C326 C322 1.389 . S
C326 H343 0.931 . S
C327 O312 1.266 . S
C327 O313 1.248 . S
C328 Tb264 2.802 . S
C328 O308 1.264 . S
C328 O311 1.256 . S
C328 C321 1.496 . S
C329 C296 1.448 . S
C329 H306 0.930 . S
C329 C330 1.328 . S
C330 C301 1.427 . S
C330 H307 0.929 . S
C330 C329 1.328 . S
C331 O315 1.264 . S
C331 O316 1.243 . S
C332 C335 1.399 . S
C332 C336 1.383 . S
C332 C339 1.496 . S
C333 C334 1.399 . S
C333 C336 1.389 . S
C334 C333 1.399 . S
C334 C337 1.380 . S
C334 H344 0.929 1_556 S
C335 C332 1.399 . S
C335 C337 1.392 . S
C335 H345 0.929 . S
C336 C332 1.383 . S
C336 C333 1.389 . S
C336 H346 0.931 . S
C337 C334 1.380 . S
C337 C335 1.392 . S
C337 H347 0.929 . S
C338 O318 1.266 . S
C338 O319 1.248 . S
C339 Tb275 2.802 . S
C339 O314 1.264 . S
C339 O317 1.256 . S
C339 C332 1.496 . S
H340 C323 0.929 . S
H341 C324 0.929 . S
H342 C325 0.929 . S
H343 C326 0.931 . S
H344 C334 0.929 1_554 S
H345 C335 0.929 . S
H346 C336 0.931 . S
H347 C337 0.929 . S
Tb348 N377 2.617 . S
Tb348 N383 2.572 . S
Tb348 O392 2.465 . S
Tb348 O393 2.387 1_455 S
Tb348 O395 2.428 . S
Tb348 O396 2.308 . S
Tb348 O400 2.349 . S
Tb348 O403 2.393 . S
Tb348 C412 2.802 . S
C349 N350 1.379 . S
C349 C352 1.416 . S
C349 C356 1.424 . S
N350 C349 1.379 . S
N350 C353 1.332 1_455 S
N350 Tb359 2.617 1_455 S
C351 C353 1.380 1_455 S
C351 C354 1.339 . S
C351 H371 0.930 . S
C352 C349 1.416 . S
C352 C354 1.416 . S
C352 C358 1.448 1_556 S
C353 N350 1.332 1_655 S
C353 C351 1.380 1_655 S
C353 H364 0.944 . S
C354 C351 1.339 . S
C354 C352 1.416 . S
C354 H375 0.930 . S
C355 C356 1.413 1_554 S
C355 C357 1.427 . S
C355 C361 1.416 . S
C356 C349 1.424 . S
C356 C355 1.413 1_556 S
C356 N360 1.361 . S
C357 C355 1.427 . S
C357 C358 1.328 . S
C357 H372 0.929 . S
C358 C352 1.448 1_554 S
C358 C357 1.328 . S
C358 H373 0.930 . S
Tb359 N350 2.617 1_655 S
Tb359 N360 2.572 1_655 S
Tb359 O394 2.349 . S
Tb359 O397 2.393 . S
Tb359 O398 2.465 . S
Tb359 O399 2.387 1_655 S
Tb359 O401 2.428 . S
Tb359 O402 2.308 1_655 S
Tb359 C423 2.802 . S
N360 C356 1.361 . S
N360 Tb359 2.572 1_455 S
N360 C362 1.340 . S
C361 C355 1.416 . S
C361 C363 1.332 . S
C361 H369 0.931 . S
C362 N360 1.340 . S
C362 C363 1.407 1_556 S
C362 H368 0.930 . S
C363 C361 1.332 . S
C363 C362 1.407 1_554 S
C363 H365 0.929 . S
H364 C353 0.944 . S
H365 C363 0.929 . S
H366 C381 0.930 . S
H367 C388 0.929 . S
H368 C362 0.930 . S
H369 C361 0.931 . S
H370 C384 0.930 . S
H371 C351 0.930 . S
H372 C357 0.929 . S
H373 C358 0.930 . S
H374 C379 0.930 . S
H375 C354 0.930 . S
H376 C387 0.931 . S
N377 Tb348 2.617 . S
N377 C378 1.379 . S
N377 C381 1.334 . S
C378 N377 1.379 . S
C378 C380 1.416 1_455 S
C378 C386 1.425 . S
C379 H374 0.930 . S
C379 C381 1.390 . S
C379 C382 1.339 1_455 S
C380 C378 1.416 1_655 S
C380 C382 1.416 . S
C380 C413 1.448 . S
C381 H366 0.930 . S
C381 N377 1.334 . S
C381 C379 1.390 . S
C382 C379 1.339 1_655 S
C382 C380 1.416 . S
C382 H389 0.930 . S
N383 Tb348 2.572 . S
N383 C384 1.340 . S
N383 C386 1.365 . S
C384 H370 0.930 . S
C384 N383 1.340 . S
C384 C388 1.407 1_455 S
C385 C386 1.408 1_655 S
C385 C387 1.416 . S
C385 C414 1.427 . S
C386 C378 1.425 . S
C386 N383 1.365 . S
C386 C385 1.408 1_455 S
C387 H376 0.931 . S
C387 C385 1.416 . S
C387 C388 1.332 . S
C388 H367 0.929 . S
C388 C384 1.407 1_655 S
C388 C387 1.332 . S
H389 C382 0.930 . S
H390 C413 0.930 . S
H391 C414 0.929 . S
O392 Tb348 2.465 . S
O392 C412 1.264 . S
O393 Tb348 2.387 1_655 S
O393 C404 1.264 . S
O394 Tb359 2.349 . S
O394 C404 1.243 . S
O395 Tb348 2.428 . S
O395 C412 1.256 . S
O396 Tb348 2.308 . S
O396 C411 1.266 . S
O397 Tb359 2.393 . S
O397 C411 1.248 1_655 S
O398 Tb359 2.465 . S
O398 C423 1.264 . S
O399 Tb359 2.387 1_455 S
O399 C415 1.264 . S
O400 Tb348 2.349 . S
O400 C415 1.243 . S
O401 Tb359 2.428 . S
O401 C423 1.256 . S
O402 Tb359 2.308 1_455 S
O402 C422 1.266 . S
O403 Tb348 2.393 . S
O403 C422 1.248 . S
C404 O393 1.264 . S
C404 O394 1.243 . S
C405 C408 1.399 . S
C405 C410 1.383 . S
C405 C412 1.496 . S
C406 C407 1.399 . S
C406 C410 1.389 . S
C407 C406 1.399 . S
C407 C409 1.380 . S
C407 H424 0.929 . S
C408 C405 1.399 . S
C408 C409 1.392 . S
C408 H425 0.929 . S
C409 C407 1.380 . S
C409 C408 1.392 . S
C409 H426 0.929 . S
C410 C405 1.383 . S
C410 C406 1.389 . S
C410 H427 0.931 . S
C411 O396 1.266 . S
C411 O397 1.248 1_455 S
C412 Tb348 2.802 . S
C412 O392 1.264 . S
C412 O395 1.256 . S
C412 C405 1.496 . S
C413 C380 1.448 . S
C413 H390 0.930 . S
C413 C414 1.328 . S
C414 C385 1.427 . S
C414 H391 0.929 . S
C414 C413 1.328 . S
C415 O399 1.264 . S
C415 O400 1.243 . S
C416 C419 1.399 . S
C416 C420 1.383 . S
C416 C423 1.496 . S
C417 C418 1.399 . S
C417 C420 1.389 . S
C418 C417 1.399 . S
C418 C421 1.380 . S
C418 H428 0.929 1_556 S
C419 C416 1.399 . S
C419 C421 1.392 . S
C419 H429 0.929 . S
C420 C416 1.383 . S
C420 C417 1.389 . S
C420 H430 0.931 . S
C421 C418 1.380 . S
C421 C419 1.392 . S
C421 H431 0.929 . S
C422 O402 1.266 . S
C422 O403 1.248 . S
C423 Tb359 2.802 . S
C423 O398 1.264 . S
C423 O401 1.256 . S
C423 C416 1.496 . S
H424 C407 0.929 . S
H425 C408 0.929 . S
H426 C409 0.929 . S
H427 C410 0.931 . S
H428 C418 0.929 1_554 S
H429 C419 0.929 . S
H430 C420 0.931 . S
H431 C421 0.929 . S
H432 C440 0.950 . S
H433 C445 0.950 . S
H434 C442 0.950 . S
H435 C444 0.950 . S
H436 C446 0.950 . S
H437 C448 0.950 . S
H438 C450 0.950 . S
H439 C451 0.950 . S
C440 H432 0.950 . S
C440 C441 1.386 . S
C440 C442 1.391 . S
C441 C440 1.386 . S
C441 C445 1.393 . S
C442 H434 0.950 . S
C442 C440 1.391 . S
C442 C443 1.400 . S
C443 C442 1.400 . S
C443 C444 1.398 . S
C443 C449 1.491 . S
C444 H435 0.950 . S
C444 C443 1.398 . S
C444 C445 1.391 . S
C445 H433 0.950 . S
C445 C441 1.393 . S
C445 C444 1.391 . S
C446 H436 0.950 . S
C446 C447 1.386 . S
C446 C448 1.391 . S
C447 C446 1.386 . S
C447 C451 1.393 . S
C448 H437 0.950 . S
C448 C446 1.391 . S
C448 C449 1.400 . S
C449 C443 1.491 . S
C449 C448 1.400 . S
C449 C450 1.398 . S
C450 H438 0.950 . S
C450 C449 1.398 . S
C450 C451 1.391 . S
C451 H439 0.950 . S
C451 C447 1.393 . S
C451 C450 1.391 . S
H452 C460 0.950 . S
H453 C465 0.950 . S
H454 C462 0.950 . S
H455 C464 0.950 . S
H456 C466 0.950 . S
H457 C468 0.950 . S
H458 C470 0.950 . S
H459 C471 0.950 . S
C460 H452 0.950 . S
C460 C461 1.386 . S
C460 C462 1.391 . S
C461 C460 1.386 . S
C461 C465 1.393 . S
C462 H454 0.950 . S
C462 C460 1.391 . S
C462 C463 1.400 . S
C463 C462 1.400 . S
C463 C464 1.398 . S
C463 C469 1.491 . S
C464 H455 0.950 . S
C464 C463 1.398 . S
C464 C465 1.391 . S
C465 H453 0.950 . S
C465 C461 1.393 . S
C465 C464 1.391 . S
C466 H456 0.950 . S
C466 C467 1.386 . S
C466 C468 1.391 . S
C467 C466 1.386 . S
C467 C471 1.393 . S
C468 H457 0.950 . S
C468 C466 1.391 . S
C468 C469 1.400 . S
C469 C463 1.491 . S
C469 C468 1.400 . S
C469 C470 1.398 . S
C470 H458 0.950 . S
C470 C469 1.398 . S
C470 C471 1.391 . S
C471 H459 0.950 . S
C471 C467 1.393 . S
C471 C470 1.391 . S
H472 C480 0.950 . S
H473 C485 0.950 . S
H474 C482 0.950 . S
H475 C484 0.950 . S
H476 C486 0.950 . S
H477 C488 0.950 . S
H478 C490 0.950 . S
H479 C491 0.950 . S
C480 H472 0.950 . S
C480 C481 1.386 . S
C480 C482 1.391 . S
C481 C480 1.386 . S
C481 C485 1.393 . S
C482 H474 0.950 . S
C482 C480 1.391 . S
C482 C483 1.400 . S
C483 C482 1.400 . S
C483 C484 1.398 . S
C483 C489 1.491 . S
C484 H475 0.950 . S
C484 C483 1.398 . S
C484 C485 1.391 . S
C485 H473 0.950 . S
C485 C481 1.393 . S
C485 C484 1.391 . S
C486 H476 0.950 . S
C486 C487 1.386 . S
C486 C488 1.391 . S
C487 C486 1.386 . S
C487 C491 1.393 . S
C488 H477 0.950 . S
C488 C486 1.391 . S
C488 C489 1.400 . S
C489 C483 1.491 . S
C489 C488 1.400 . S
C489 C490 1.398 . S
C490 H478 0.950 . S
C490 C489 1.398 . S
C490 C491 1.391 . S
C491 H479 0.950 . S
C491 C487 1.393 . S
C491 C490 1.391 . S
H492 C500 0.950 . S
H493 C505 0.950 . S
H494 C502 0.950 . S
H495 C504 0.950 . S
H496 C506 0.950 . S
H497 C508 0.950 . S
H498 C510 0.950 . S
H499 C511 0.950 . S
C500 H492 0.950 . S
C500 C501 1.386 . S
C500 C502 1.391 . S
C501 C500 1.386 . S
C501 C505 1.393 . S
C502 H494 0.950 . S
C502 C500 1.391 . S
C502 C503 1.400 . S
C503 C502 1.400 . S
C503 C504 1.398 . S
C503 C509 1.491 . S
C504 H495 0.950 . S
C504 C503 1.398 . S
C504 C505 1.391 . S
C505 H493 0.950 . S
C505 C501 1.393 . S
C505 C504 1.391 . S
C506 H496 0.950 . S
C506 C507 1.386 . S
C506 C508 1.391 . S
C507 C506 1.386 . S
C507 C511 1.393 . S
C508 H497 0.950 . S
C508 C506 1.391 . S
C508 C509 1.400 . S
C509 C503 1.491 . S
C509 C508 1.400 . S
C509 C510 1.398 . S
C510 H498 0.950 . S
C510 C509 1.398 . S
C510 C511 1.391 . S
C511 H499 0.950 . S
C511 C507 1.393 . S
C511 C510 1.391 . S
H512 C520 0.950 . S
H513 C525 0.950 . S
H514 C522 0.950 . S
H515 C524 0.950 . S
H516 C526 0.950 . S
H517 C528 0.950 1_554 S
H518 C530 0.950 . S
H519 C531 0.950 . S
C520 H512 0.950 . S
C520 C521 1.386 1_545 S
C520 C522 1.391 . S
C521 C520 1.386 1_565 S
C521 C525 1.393 . S
C522 H514 0.950 . S
C522 C520 1.391 . S
C522 C523 1.400 1_545 S
C523 C522 1.400 1_565 S
C523 C524 1.398 . S
C523 C529 1.491 1_554 S
C524 H515 0.950 . S
C524 C523 1.398 . S
C524 C525 1.391 . S
C525 H513 0.950 . S
C525 C521 1.393 . S
C525 C524 1.391 . S
C526 H516 0.950 . S
C526 C527 1.391 . S
C526 C528 1.391 . S
C527 C526 1.391 . S
C527 C531 1.389 1_565 S
C528 H517 0.950 1_556 S
C528 C526 1.391 . S
C528 C529 1.400 . S
C529 C523 1.491 1_556 S
C529 C528 1.400 . S
C529 C530 1.398 1_565 S
C530 H518 0.950 . S
C530 C529 1.398 1_545 S
C530 C531 1.391 . S
C531 H519 0.950 . S
C531 C527 1.389 1_545 S
C531 C530 1.391 . S
H532 C540 0.950 . S
H533 C545 0.950 . S
H534 C542 0.950 . S
H535 C544 0.950 . S
H536 C546 0.950 . S
H537 C548 0.950 . S
H538 C550 0.950 1_554 S
H539 C551 0.950 . S
C540 H532 0.950 . S
C540 C541 1.386 . S
C540 C542 1.391 . S
C541 C540 1.386 . S
C541 C545 1.393 . S
C542 H534 0.950 . S
C542 C540 1.391 . S
C542 C543 1.400 . S
C543 C542 1.400 . S
C543 C544 1.398 . S
C543 C549 1.491 1_554 S
C544 H535 0.950 . S
C544 C543 1.398 . S
C544 C545 1.391 . S
C545 H533 0.950 . S
C545 C541 1.393 . S
C545 C544 1.391 . S
C546 H536 0.950 . S
C546 C547 1.386 . S
C546 C548 1.391 . S
C547 C546 1.386 . S
C547 C551 1.393 . S
C548 H537 0.950 . S
C548 C546 1.391 . S
C548 C549 1.400 . S
C549 C543 1.491 1_556 S
C549 C548 1.400 . S
C549 C550 1.398 . S
C550 H538 0.950 1_556 S
C550 C549 1.398 . S
C550 C551 1.391 . S
C551 H539 0.950 . S
C551 C547 1.393 . S
C551 C550 1.391 . S
H552 C560 0.950 . S
H553 C565 0.950 . S
H554 C562 0.950 . S
H555 C564 0.950 . S
H556 C566 0.950 . S
H557 C568 0.950 1_554 S
H558 C570 0.950 . S
H559 C571 0.950 . S
C560 H552 0.950 . S
C560 C561 1.386 . S
C560 C562 1.391 . S
C561 C560 1.386 . S
C561 C565 1.393 . S
C562 H554 0.950 . S
C562 C560 1.391 . S
C562 C563 1.400 . S
C563 C562 1.400 . S
C563 C564 1.398 . S
C563 C569 1.491 1_554 S
C564 H555 0.950 . S
C564 C563 1.398 . S
C564 C565 1.391 . S
C565 H553 0.950 . S
C565 C561 1.393 . S
C565 C564 1.391 . S
C566 H556 0.950 . S
C566 C567 1.386 . S
C566 C568 1.391 . S
C567 C566 1.386 . S
C567 C571 1.393 . S
C568 H557 0.950 1_556 S
C568 C566 1.391 . S
C568 C569 1.400 . S
C569 C563 1.491 1_556 S
C569 C568 1.400 . S
C569 C570 1.398 . S
C570 H558 0.950 . S
C570 C569 1.398 . S
C570 C571 1.391 . S
C571 H559 0.950 . S
C571 C567 1.393 . S
C571 C570 1.391 . S
H572 C580 0.950 . S
H573 C585 0.951 . S
H574 C582 0.950 . S
H575 C584 0.950 . S
H576 C586 0.950 . S
H577 C588 0.950 . S
H578 C590 0.950 1_554 S
H579 C591 0.950 . S
C580 H572 0.950 . S
C580 C581 1.386 . S
C580 C582 1.391 . S
C581 C580 1.386 . S
C581 C585 1.392 1_655 S
C582 H574 0.950 . S
C582 C580 1.391 . S
C582 C583 1.400 . S
C583 C582 1.400 . S
C583 C584 1.398 1_655 S
C583 C589 1.491 1_554 S
C584 H575 0.950 . S
C584 C583 1.398 1_455 S
C584 C585 1.391 . S
C585 H573 0.951 . S
C585 C581 1.392 1_455 S
C585 C584 1.391 . S
C586 H576 0.950 . S
C586 C587 1.377 1_455 S
C586 C588 1.391 . S
C587 C586 1.377 1_655 S
C587 C591 1.404 . S
C588 H577 0.950 . S
C588 C586 1.391 . S
C588 C589 1.400 1_455 S
C589 C583 1.491 1_556 S
C589 C588 1.400 1_655 S
C589 C590 1.398 . S
C590 H578 0.950 1_556 S
C590 C589 1.398 . S
C590 C591 1.391 . S
C591 H579 0.950 . S
C591 C587 1.404 . S
C591 C590 1.391 . S
H592 C600 0.950 . S
H593 C605 0.950 . S
H594 C602 0.950 . S
H595 C604 0.950 . S
H596 C606 0.951 . S
H597 C608 0.950 . S
H598 C610 0.950 . S
H599 C611 0.950 . S
C600 H592 0.950 . S
C600 C601 1.386 . S
C600 C602 1.391 . S
C601 C600 1.386 . S
C601 C605 1.393 . S
C602 H594 0.950 . S
C602 C600 1.391 . S
C602 C603 1.400 . S
C603 C602 1.400 . S
C603 C604 1.398 . S
C603 C609 1.491 . S
C604 H595 0.950 . S
C604 C603 1.398 . S
C604 C605 1.391 . S
C605 H593 0.950 . S
C605 C601 1.393 . S
C605 C604 1.391 . S
C606 H596 0.951 . S
C606 C607 1.385 1_655 S
C606 C608 1.391 1_655 S
C607 C606 1.385 1_455 S
C607 C611 1.393 . S
C608 H597 0.950 . S
C608 C606 1.391 1_455 S
C608 C609 1.400 . S
C609 C603 1.491 . S
C609 C608 1.400 . S
C609 C610 1.398 . S
C610 H598 0.950 . S
C610 C609 1.398 . S
C610 C611 1.391 . S
C611 H599 0.950 . S
C611 C607 1.393 . S
C611 C610 1.391 . S
H612 C620 0.950 . S
H613 C625 0.950 . S
H614 C622 0.950 . S
H615 C624 0.950 . S
H616 C626 0.950 1_565 S
H617 C628 0.950 . S
H618 C630 0.950 . S
H619 C631 0.950 . S
C620 H612 0.950 . S
C620 C621 1.386 . S
C620 C622 1.391 . S
C621 C620 1.386 . S
C621 C625 1.393 . S
C622 H614 0.950 . S
C622 C620 1.391 . S
C622 C623 1.400 . S
C623 C622 1.400 . S
C623 C624 1.398 . S
C623 C629 1.491 . S
C624 H615 0.950 . S
C624 C623 1.398 . S
C624 C625 1.391 . S
C625 H613 0.950 . S
C625 C621 1.393 . S
C625 C624 1.391 . S
C626 H616 0.950 1_545 S
C626 C627 1.386 . S
C626 C628 1.391 . S
C627 C626 1.386 . S
C627 C631 1.393 . S
C628 H617 0.950 . S
C628 C626 1.391 . S
C628 C629 1.400 . S
C629 C623 1.491 . S
C629 C628 1.400 . S
C629 C630 1.398 . S
C630 H618 0.950 . S
C630 C629 1.398 . S
C630 C631 1.391 . S
C631 H619 0.950 . S
C631 C627 1.393 . S
C631 C630 1.391 . S
H632 C640 0.950 . S
H633 C645 0.950 . S
H634 C642 0.950 . S
H635 C644 0.950 . S
H636 C646 0.950 . S
H637 C648 0.950 . S
H638 C650 0.950 . S
H639 C651 0.950 . S
C640 H632 0.950 . S
C640 C641 1.386 . S
C640 C642 1.391 . S
C641 C640 1.386 . S
C641 C645 1.393 . S
C642 H634 0.950 . S
C642 C640 1.391 . S
C642 C643 1.400 . S
C643 C642 1.400 . S
C643 C644 1.398 . S
C643 C649 1.491 . S
C644 H635 0.950 . S
C644 C643 1.398 . S
C644 C645 1.391 . S
C645 H633 0.950 . S
C645 C641 1.393 . S
C645 C644 1.391 . S
C646 H636 0.950 . S
C646 C647 1.386 . S
C646 C648 1.391 . S
C647 C646 1.386 . S
C647 C651 1.393 . S
C648 H637 0.950 . S
C648 C646 1.391 . S
C648 C649 1.400 . S
C649 C643 1.491 . S
C649 C648 1.400 . S
C649 C650 1.398 . S
C650 H638 0.950 . S
C650 C649 1.398 . S
C650 C651 1.391 . S
C651 H639 0.950 . S
C651 C647 1.393 . S
C651 C650 1.391 . S
H652 C660 0.950 . S
H653 C665 0.950 . S
H654 C662 0.950 . S
H655 C664 0.950 . S
H656 C666 0.950 . S
H657 C668 0.950 . S
H658 C670 0.950 . S
H659 C671 0.950 . S
C660 H652 0.950 . S
C660 C661 1.386 . S
C660 C662 1.391 . S
C661 C660 1.386 . S
C661 C665 1.393 . S
C662 H654 0.950 . S
C662 C660 1.391 . S
C662 C663 1.400 . S
C663 C662 1.400 . S
C663 C664 1.398 . S
C663 C669 1.491 . S
C664 H655 0.950 . S
C664 C663 1.398 . S
C664 C665 1.391 . S
C665 H653 0.950 . S
C665 C661 1.393 . S
C665 C664 1.391 . S
C666 H656 0.950 . S
C666 C667 1.386 . S
C666 C668 1.391 . S
C667 C666 1.386 . S
C667 C671 1.393 . S
C668 H657 0.950 . S
C668 C666 1.391 . S
C668 C669 1.400 . S
C669 C663 1.491 . S
C669 C668 1.400 . S
C669 C670 1.398 . S
C670 H658 0.950 . S
C670 C669 1.398 . S
C670 C671 1.391 . S
C671 H659 0.950 . S
C671 C667 1.393 . S
C671 C670 1.391 . S
H672 C680 0.950 . S
H673 C685 0.960 . S
H674 C682 0.950 . S
H675 C684 0.938 1_455 S
H676 C686 0.950 . S
H677 C688 0.950 . S
H678 C690 0.950 1_556 S
H679 C691 0.950 . S
C680 H672 0.950 . S
C680 C681 1.386 . S
C680 C682 1.391 . S
C681 C680 1.386 . S
C681 C685 1.393 . S
C682 H674 0.950 . S
C682 C680 1.391 . S
C682 C683 1.400 . S
C683 C682 1.400 . S
C683 C684 1.405 . S
C683 C689 1.500 . S
C684 H675 0.938 1_655 S
C684 C683 1.405 . S
C684 C685 1.396 . S
C685 H673 0.960 . S
C685 C681 1.393 . S
C685 C684 1.396 . S
C686 H676 0.950 . S
C686 C687 1.386 1_554 S
C686 C688 1.391 . S
C687 C686 1.386 1_556 S
C687 C691 1.393 1_455 S
C688 H677 0.950 . S
C688 C686 1.391 . S
C688 C689 1.380 1_455 S
C689 C683 1.500 . S
C689 C688 1.380 1_655 S
C689 C690 1.409 . S
C690 H678 0.950 1_554 S
C690 C689 1.409 . S
C690 C691 1.391 1_554 S
C691 H679 0.950 . S
C691 C687 1.393 1_655 S
C691 C690 1.391 1_556 S
H692 C700 0.950 . S
H693 C705 0.950 . S
H694 C702 0.950 . S
H695 C704 0.950 . S
H696 C706 0.950 . S
H697 C708 0.950 . S
H698 C710 0.951 1_556 S
H699 C711 0.950 . S
C700 H692 0.950 . S
C700 C701 1.386 . S
C700 C702 1.391 . S
C701 C700 1.386 . S
C701 C705 1.393 . S
C702 H694 0.950 . S
C702 C700 1.391 . S
C702 C703 1.400 . S
C703 C702 1.400 . S
C703 C704 1.398 . S
C703 C709 1.490 . S
C704 H695 0.950 . S
C704 C703 1.398 . S
C704 C705 1.391 . S
C705 H693 0.950 . S
C705 C701 1.393 . S
C705 C704 1.391 . S
C706 H696 0.950 . S
C706 C707 1.386 . S
C706 C708 1.391 . S
C707 C706 1.386 . S
C707 C711 1.393 1_554 S
C708 H697 0.950 . S
C708 C706 1.391 . S
C708 C709 1.401 1_545 S
C709 C703 1.490 . S
C709 C708 1.401 1_565 S
C709 C710 1.398 . S
C710 H698 0.951 1_554 S
C710 C709 1.398 . S
C710 C711 1.389 1_564 S
C711 H699 0.950 . S
C711 C707 1.393 1_556 S
C711 C710 1.389 1_546 S
H712 C720 0.950 . S
H713 C725 0.950 . S
H714 C722 0.950 . S
H715 C724 0.950 . S
H716 C726 0.950 . S
H717 C728 0.950 . S
H718 C730 0.950 1_556 S
H719 C731 0.950 . S
C720 H712 0.950 . S
C720 C721 1.386 . S
C720 C722 1.391 . S
C721 C720 1.386 . S
C721 C725 1.393 . S
C722 H714 0.950 . S
C722 C720 1.391 . S
C722 C723 1.400 . S
C723 C722 1.400 . S
C723 C724 1.398 . S
C723 C729 1.491 . S
C724 H715 0.950 . S
C724 C723 1.398 . S
C724 C725 1.391 . S
C725 H713 0.950 . S
C725 C721 1.393 . S
C725 C724 1.391 . S
C726 H716 0.950 . S
C726 C727 1.389 . S
C726 C728 1.391 . S
C727 C726 1.389 . S
C727 C731 1.391 1_554 S
C728 H717 0.950 . S
C728 C726 1.391 . S
C728 C729 1.400 . S
C729 C723 1.491 . S
C729 C728 1.400 . S
C729 C730 1.398 . S
C730 H718 0.950 1_554 S
C730 C729 1.398 . S
C730 C731 1.391 1_554 S
C731 H719 0.950 . S
C731 C727 1.391 1_556 S
C731 C730 1.391 1_556 S
H732 C740 0.950 . S
H733 C745 0.950 . S
H734 C742 0.950 . S
H735 C744 0.950 . S
H736 C746 0.950 . S
H737 C748 0.950 1_556 S
H738 C750 0.950 . S
H739 C751 0.950 . S
C740 H732 0.950 . S
C740 C741 1.386 . S
C740 C742 1.391 . S
C741 C740 1.386 . S
C741 C745 1.393 . S
C742 H734 0.950 . S
C742 C740 1.391 . S
C742 C743 1.400 . S
C743 C742 1.400 . S
C743 C744 1.398 . S
C743 C749 1.491 . S
C744 H735 0.950 . S
C744 C743 1.398 . S
C744 C745 1.391 . S
C745 H733 0.950 . S
C745 C741 1.393 . S
C745 C744 1.391 . S
C746 H736 0.950 . S
C746 C747 1.386 . S
C746 C748 1.391 1_556 S
C747 C746 1.386 . S
C747 C751 1.393 1_556 S
C748 H737 0.950 1_554 S
C748 C746 1.391 1_554 S
C748 C749 1.400 . S
C749 C743 1.491 . S
C749 C748 1.400 . S
C749 C750 1.398 . S
C750 H738 0.950 . S
C750 C749 1.398 . S
C750 C751 1.391 . S
C751 H739 0.950 . S
C751 C747 1.393 1_554 S
C751 C750 1.391 . S
H752 C760 0.950 1_655 S
H753 C765 0.950 . S
H754 C762 0.950 1_655 S
H755 C764 0.950 . S
H756 C766 0.950 . S
H757 C768 0.950 . S
H758 C770 0.950 1_655 S
H759 C771 0.950 1_655 S
C760 H752 0.950 1_455 S
C760 C761 1.386 . S
C760 C762 1.391 . S
C761 C760 1.386 . S
C761 C765 1.393 . S
C762 H754 0.950 1_455 S
C762 C760 1.391 . S
C762 C763 1.400 . S
C763 C762 1.400 . S
C763 C764 1.398 . S
C763 C769 1.491 . S
C764 H755 0.950 . S
C764 C763 1.398 . S
C764 C765 1.391 . S
C765 H753 0.950 . S
C765 C761 1.393 . S
C765 C764 1.391 . S
C766 H756 0.950 . S
C766 C767 1.386 . S
C766 C768 1.391 . S
C767 C766 1.386 . S
C767 C771 1.393 . S
C768 H757 0.950 . S
C768 C766 1.391 . S
C768 C769 1.400 . S
C769 C763 1.491 . S
C769 C768 1.400 . S
C769 C770 1.398 . S
C770 H758 0.950 1_455 S
C770 C769 1.398 . S
C770 C771 1.391 . S
C771 H759 0.950 1_455 S
C771 C767 1.393 . S
C771 C770 1.391 . S
H772 C780 0.950 . S
H773 C785 0.950 . S
H774 C782 0.950 . S
H775 C784 0.950 . S
H776 C786 0.950 . S
H777 C788 0.950 . S
H778 C790 0.950 . S
H779 C791 0.950 . S
C780 H772 0.950 . S
C780 C781 1.386 . S
C780 C782 1.391 . S
C781 C780 1.386 . S
C781 C785 1.393 . S
C782 H774 0.950 . S
C782 C780 1.391 . S
C782 C783 1.400 . S
C783 C782 1.400 . S
C783 C784 1.398 . S
C783 C789 1.491 . S
C784 H775 0.950 . S
C784 C783 1.398 . S
C784 C785 1.391 . S
C785 H773 0.950 . S
C785 C781 1.393 . S
C785 C784 1.391 . S
C786 H776 0.950 . S
C786 C787 1.386 . S
C786 C788 1.391 . S
C787 C786 1.386 . S
C787 C791 1.393 . S
C788 H777 0.950 . S
C788 C786 1.391 . S
C788 C789 1.400 . S
C789 C783 1.491 . S
C789 C788 1.400 . S
C789 C790 1.398 . S
C790 H778 0.950 . S
C790 C789 1.398 . S
C790 C791 1.391 . S
C791 H779 0.950 . S
C791 C787 1.393 . S
C791 C790 1.391 . S
H792 C800 0.950 . S
H793 C805 0.950 . S
H794 C802 0.950 . S
H795 C804 0.950 . S
H796 C806 0.950 . S
H797 C808 0.950 . S
H798 C810 0.950 . S
H799 C811 0.950 . S
C800 H792 0.950 . S
C800 C801 1.386 . S
C800 C802 1.391 . S
C801 C800 1.386 . S
C801 C805 1.393 . S
C802 H794 0.950 . S
C802 C800 1.391 . S
C802 C803 1.400 . S
C803 C802 1.400 . S
C803 C804 1.398 . S
C803 C809 1.491 . S
C804 H795 0.950 . S
C804 C803 1.398 . S
C804 C805 1.391 . S
C805 H793 0.950 . S
C805 C801 1.393 . S
C805 C804 1.391 . S
C806 H796 0.950 . S
C806 C807 1.386 . S
C806 C808 1.391 . S
C807 C806 1.386 . S
C807 C811 1.393 . S
C808 H797 0.950 . S
C808 C806 1.391 . S
C808 C809 1.400 . S
C809 C803 1.491 . S
C809 C808 1.400 . S
C809 C810 1.398 . S
C810 H798 0.950 . S
C810 C809 1.398 . S
C810 C811 1.391 . S
C811 H799 0.950 . S
C811 C807 1.393 . S
C811 C810 1.391 . S
H812 C820 0.950 . S
H813 C825 0.950 . S
H814 C822 0.950 . S
H815 C824 0.950 . S
H816 C826 0.950 . S
H817 C828 0.950 . S
H818 C830 0.950 . S
H819 C831 0.950 . S
C820 H812 0.950 . S
C820 C821 1.386 . S
C820 C822 1.391 . S
C821 C820 1.386 . S
C821 C825 1.393 . S
C822 H814 0.950 . S
C822 C820 1.391 . S
C822 C823 1.400 . S
C823 C822 1.400 . S
C823 C824 1.398 . S
C823 C829 1.491 . S
C824 H815 0.950 . S
C824 C823 1.398 . S
C824 C825 1.391 . S
C825 H813 0.950 . S
C825 C821 1.393 . S
C825 C824 1.391 . S
C826 H816 0.950 . S
C826 C827 1.386 . S
C826 C828 1.391 . S
C827 C826 1.386 . S
C827 C831 1.393 . S
C828 H817 0.950 . S
C828 C826 1.391 . S
C828 C829 1.400 . S
C829 C823 1.491 . S
C829 C828 1.400 . S
C829 C830 1.398 . S
C830 H818 0.950 . S
C830 C829 1.398 . S
C830 C831 1.391 . S
C831 H819 0.950 . S
C831 C827 1.393 . S
C831 C830 1.391 . S
H832 C840 0.950 . S
H833 C845 0.950 . S
H834 C842 0.950 . S
H835 C844 0.950 . S
H836 C846 0.950 . S
H837 C848 0.950 . S
H838 C850 0.950 1_455 S
H839 C851 0.951 . S
C840 H832 0.950 . S
C840 C841 1.386 . S
C840 C842 1.391 . S
C841 C840 1.386 . S
C841 C845 1.393 . S
C842 H834 0.950 . S
C842 C840 1.391 . S
C842 C843 1.400 . S
C843 C842 1.400 . S
C843 C844 1.398 . S
C843 C849 1.491 . S
C844 H835 0.950 . S
C844 C843 1.398 . S
C844 C845 1.391 . S
C845 H833 0.950 . S
C845 C841 1.393 . S
C845 C844 1.391 . S
C846 H836 0.950 . S
C846 C847 1.386 . S
C846 C848 1.391 . S
C847 C846 1.386 . S
C847 C851 1.392 1_655 S
C848 H837 0.950 . S
C848 C846 1.391 . S
C848 C849 1.400 . S
C849 C843 1.491 . S
C849 C848 1.400 . S
C849 C850 1.398 . S
C850 H838 0.950 1_655 S
C850 C849 1.398 . S
C850 C851 1.390 1_655 S
C851 H839 0.951 . S
C851 C847 1.392 1_455 S
C851 C850 1.390 1_455 S
H852 C860 0.950 1_545 S
H853 C865 0.950 . S
H854 C862 0.929 1_545 S
H855 C864 0.950 . S
H856 C866 0.950 . S
H857 C868 0.950 . S
H858 C870 0.950 . S
H859 C871 0.950 . S
C860 H852 0.950 1_565 S
C860 C861 1.386 . S
C860 C862 1.396 . S
C861 C860 1.386 . S
C861 C865 1.393 . S
C862 H854 0.929 1_565 S
C862 C860 1.396 . S
C862 C863 1.418 . S
C863 C862 1.418 . S
C863 C864 1.398 . S
C863 C869 1.491 . S
C864 H855 0.950 . S
C864 C863 1.398 . S
C864 C865 1.391 . S
C865 H853 0.950 . S
C865 C861 1.393 . S
C865 C864 1.391 . S
C866 H856 0.950 . S
C866 C867 1.386 . S
C866 C868 1.391 . S
C867 C866 1.386 . S
C867 C871 1.393 1_565 S
C868 H857 0.950 . S
C868 C866 1.391 . S
C868 C869 1.400 . S
C869 C863 1.491 . S
C869 C868 1.400 . S
C869 C870 1.398 1_565 S
C870 H858 0.950 . S
C870 C869 1.398 1_545 S
C870 C871 1.391 . S
C871 H859 0.950 . S
C871 C867 1.393 1_545 S
C871 C870 1.391 . S
H872 C880 0.950 . S
H873 C885 0.950 . S
H874 C882 0.950 . S
H875 C884 0.950 . S
H876 C886 0.950 . S
H877 C888 0.950 . S
H878 C890 0.950 . S
H879 C891 0.950 . S
C880 H872 0.950 . S
C880 C881 1.386 . S
C880 C882 1.391 . S
C881 C880 1.386 . S
C881 C885 1.393 . S
C882 H874 0.950 . S
C882 C880 1.391 . S
C882 C883 1.400 . S
C883 C882 1.400 . S
C883 C884 1.398 . S
C883 C889 1.491 . S
C884 H875 0.950 . S
C884 C883 1.398 . S
C884 C885 1.391 . S
C885 H873 0.950 . S
C885 C881 1.393 . S
C885 C884 1.391 . S
C886 H876 0.950 . S
C886 C887 1.386 . S
C886 C888 1.391 . S
C887 C886 1.386 . S
C887 C891 1.393 . S
C888 H877 0.950 . S
C888 C886 1.391 . S
C888 C889 1.400 . S
C889 C883 1.491 . S
C889 C888 1.400 . S
C889 C890 1.398 . S
C890 H878 0.950 . S
C890 C889 1.398 . S
C890 C891 1.391 . S
C891 H879 0.950 . S
C891 C887 1.393 . S
C891 C890 1.391 . S
H892 C900 0.950 . S
H893 C905 0.950 . S
H894 C902 0.950 . S
H895 C904 0.950 . S
H896 C906 0.950 . S
H897 C908 0.950 . S
H898 C910 0.950 . S
H899 C911 0.950 . S
C900 H892 0.950 . S
C900 C901 1.386 . S
C900 C902 1.391 . S
C901 C900 1.386 . S
C901 C905 1.393 . S
C902 H894 0.950 . S
C902 C900 1.391 . S
C902 C903 1.400 . S
C903 C902 1.400 . S
C903 C904 1.398 . S
C903 C909 1.491 . S
C904 H895 0.950 . S
C904 C903 1.398 . S
C904 C905 1.391 . S
C905 H893 0.950 . S
C905 C901 1.393 . S
C905 C904 1.391 . S
C906 H896 0.950 . S
C906 C907 1.386 . S
C906 C908 1.391 . S
C907 C906 1.386 . S
C907 C911 1.393 . S
C908 H897 0.950 . S
C908 C906 1.391 . S
C908 C909 1.400 . S
C909 C903 1.491 . S
C909 C908 1.400 . S
C909 C910 1.398 . S
C910 H898 0.950 . S
C910 C909 1.398 . S
C910 C911 1.391 . S
C911 H899 0.950 . S
C911 C907 1.393 . S
C911 C910 1.391 . S
C441 C76 1.871 . S
C447 C159 2.026 . S
C467 C236 2.039 . S
C461 C88 1.893 . S
C487 C327 2.009 . S
C481 C52 1.862 . S
C507 C411 2.011 . S
C501 C64 1.859 . S
C527 C170 2.025 1_565 S
C521 C28 1.894 . S
C541 C40 1.898 . S
C547 C247 2.040 . S
C561 C4 1.881 . S
C567 C338 2.021 . S
C581 C16 1.855 . S
C587 C422 1.996 1_655 S
C607 C154 0.585 1_455 S
C601 C69 0.595 . S
C627 C249 0.587 . S
C621 C81 0.549 . S
C647 C322 0.644 . S
C641 C93 0.575 . S
C661 C57 0.572 . S
C667 C406 0.561 . S
C681 C21 0.580 . S
C687 C165 0.572 . S
C707 C238 0.605 . S
C701 C33 0.569 . S
C727 C333 0.570 1_554 S
C721 C45 0.596 . S
C741 C9 0.551 . S
C747 C417 0.631 . S
C761 C66 1.949 . S
C767 C163 2.120 . S
C781 C78 1.944 . S
C787 C254 2.127 . S
C807 C331 2.130 . S
C801 C90 1.942 . S
C827 C415 2.140 . S
C821 C54 1.964 . S
C841 C18 1.927 . S
C847 C152 2.115 . S
C867 C243 2.130 1_565 S
C861 C30 1.913 . S
C887 C320 2.129 . S
C881 C42 1.930 . S
C901 C6 1.932 . S
C907 C404 2.133 . S
