# Generated by pormake.
# Topology rtl, (3,6)-cn, num edge types: 1
# Building blocks:
#     Node 0, Type 0, BuildingBlock: VETTIZ_charged_linker_0, # of connection points: 3
#     Node 1, Type 0, BuildingBlock: VETTIZ_charged_linker_0, # of connection points: 3
#     Node 2, Type 0, BuildingBlock: VETTIZ_charged_linker_0, # of connection points: 3
#     Node 3, Type 0, BuildingBlock: VETTIZ_charged_linker_0, # of connection points: 3
#     Node 4, Type 1, BuildingBlock: CIFDUS_clean_sbu_1, # of connection points: 6
#     Node 5, Type 1, BuildingBlock: CIFDUS_clean_sbu_1, # of connection points: 6
#     Edge 6, Type (0, 1), BuildingBlock: KIFKEQ_clean_linker_1, # of connection points: 2
#     Edge 7, Type (0, 1), BuildingBlock: KIFKEQ_clean_linker_1, # of connection points: 2
#     Edge 8, Type (0, 1), BuildingBlock: KIFKEQ_clean_linker_1, # of connection points: 2
#     Edge 9, Type (0, 1), BuildingBlock: KIFKEQ_clean_linker_1, # of connection points: 2
#     Edge 10, Type (0, 1), BuildingBlock: KIFKEQ_clean_linker_1, # of connection points: 2
#     Edge 11, Type (0, 1), BuildingBlock: KIFKEQ_clean_linker_1, # of connection points: 2
#     Edge 12, Type (0, 1), BuildingBlock: KIFKEQ_clean_linker_1, # of connection points: 2
#     Edge 13, Type (0, 1), BuildingBlock: KIFKEQ_clean_linker_1, # of connection points: 2
#     Edge 14, Type (0, 1), BuildingBlock: KIFKEQ_clean_linker_1, # of connection points: 2
#     Edge 15, Type (0, 1), BuildingBlock: KIFKEQ_clean_linker_1, # of connection points: 2
#     Edge 16, Type (0, 1), BuildingBlock: KIFKEQ_clean_linker_1, # of connection points: 2
#     Edge 17, Type (0, 1), BuildingBlock: KIFKEQ_clean_linker_1, # of connection points: 2
# Relax obj value: 0.030
# Max RMSD: 0.064
# Mean RMSD: 0.050
data_MOF--net-rtl--node1-CIFDUS_clean_sbu_1--node2-VETTIZ_charged_linker_0--edge1-KIFKEQ_clean_linker_1
_symmetry_space_group_name_H-M    P1
_symmetry_Int_Tables_number       1
_symmetry_cell_setting            triclinic
loop_
_symmetry_equiv_pos_as_xyz
'x, y, z'
_cell_length_a     37.209815
_cell_length_b     42.427683
_cell_length_c     29.881079
_cell_angle_alpha  89.97308
_cell_angle_beta   97.782703
_cell_angle_gamma 89.517307
loop_
_atom_site_label
_atom_site_type_symbol
_atom_site_fract_x
_atom_site_fract_y
_atom_site_fract_z
_atom_type_partial_charge
C0 C 0.24944 0.92373 0.93654 0.0
C1 C 0.22281 0.94742 0.92717 0.0
C2 C 0.21253 0.9652 0.96331 0.0
C3 C 0.25276 0.93392 0.01708 0.0
C4 C 0.26416 0.91758 0.98149 0.0
C5 C 0.29174 0.89246 0.99736 0.0
H6 H 0.3734 0.80034 0.16642 0.0
C7 C 0.27104 0.91986 0.05974 0.0
C8 C 0.29408 0.89565 0.04839 0.0
H9 H 0.37917 0.7936 0.0233 0.0
H10 H 0.34574 0.84234 0.01029 0.0
H11 H 0.38537 0.87986 0.17158 0.0
H12 H 0.29044 0.82081 0.158 0.0
H13 H 0.28654 0.84984 0.19918 0.0
H14 H 0.32275 0.82132 0.20847 0.0
H15 H 0.37446 0.85582 0.21727 0.0
H16 H 0.35479 0.89459 0.20665 0.0
C17 C 0.328 0.90127 0.98058 0.0
C18 C 0.27607 0.86024 0.98006 0.0
C19 C 0.23179 0.95401 0.20885 0.0
C20 C 0.24086 0.94379 0.25376 0.0
C21 C 0.26898 0.92131 0.26363 0.0
C22 C 0.28648 0.90814 0.22898 0.0
C23 C 0.27585 0.91756 0.18389 0.0
C24 C 0.24963 0.94084 0.17477 0.0
C25 C 0.2419 0.9484 0.12522 0.0
C26 C 0.26705 0.92533 0.10578 0.0
C27 C 0.28682 0.90705 0.14016 0.0
C28 C 0.25301 0.98301 0.1184 0.0
C29 C 0.20134 0.9414 0.10918 0.0
C30 C 0.36788 0.80976 0.13247 0.0
C31 C 0.37842 0.79289 0.09571 0.0
C32 C 0.37081 0.80589 0.05201 0.0
C33 C 0.35128 0.83418 0.04452 0.0
C34 C 0.33856 0.84959 0.08096 0.0
C35 C 0.34783 0.838 0.12429 0.0
C36 C 0.33162 0.85779 0.15863 0.0
C37 C 0.31022 0.88242 0.12857 0.0
C38 C 0.31423 0.8772 0.08301 0.0
C39 C 0.36302 0.87274 0.19061 0.0
C40 C 0.30662 0.83649 0.18274 0.0
H41 H 0.21768 0.97248 0.03409 0.0
H42 H 0.2584 0.91004 0.90945 0.0
H43 H 0.24615 0.85973 0.97979 0.0
H44 H 0.28634 0.84022 1.00176 0.0
H45 H 0.28163 0.85559 0.94505 0.0
H46 H 0.33164 0.92728 0.98058 0.0
H47 H 0.32886 0.89281 0.94557 0.0
H48 H 0.35199 0.8921 1.00278 0.0
H49 H 0.21057 0.97148 0.20023 0.0
H50 H 0.2764 0.91296 0.29792 0.0
H51 H 0.30698 0.89054 0.23846 0.0
H52 H 0.27749 0.98922 0.14234 0.0
H53 H 0.23094 0.99966 0.12429 0.0
H54 H 0.26076 0.98735 0.08453 0.0
H55 H 0.19222 0.92061 0.12723 0.0
H56 H 0.19579 0.93515 0.07311 0.0
H57 H 0.18383 0.96174 0.11577 0.0
H58 H 0.19211 0.98361 0.95704 0.0
C59 C 0.22731 0.95859 0.0081 0.0
C60 C 0.72883 0.62435 0.73439 0.0
C61 C 0.70378 0.59961 0.73524 0.0
C62 C 0.68983 0.58514 0.69413 0.0
C63 C 0.72516 0.61966 0.65269 0.0
C64 C 0.73927 0.63383 0.69284 0.0
C65 C 0.76564 0.65959 0.68538 0.0
H66 H 0.84235 0.7507 0.5369 0.0
C67 C 0.74061 0.63528 0.61537 0.0
C68 C 0.76456 0.65872 0.63421 0.0
H69 H 0.85953 0.75614 0.68283 0.0
H70 H 0.82051 0.71133 0.68723 0.0
H71 H 0.84966 0.67295 0.53444 0.0
H72 H 0.76149 0.73965 0.52418 0.0
H73 H 0.74654 0.70877 0.48764 0.0
H74 H 0.78558 0.73124 0.47742 0.0
H75 H 0.83709 0.69747 0.48579 0.0
H76 H 0.8164 0.6596 0.49134 0.0
C77 C 0.80346 0.65023 0.71012 0.0
C78 C 0.7506 0.69106 0.70158 0.0
C79 C 0.69606 0.60473 0.45248 0.0
C80 C 0.70283 0.61702 0.41066 0.0
C81 C 0.7289 0.64083 0.41012 0.0
C82 C 0.74744 0.65267 0.45051 0.0
C83 C 0.73948 0.64099 0.49211 0.0
C84 C 0.71447 0.61716 0.49262 0.0
C85 C 0.70884 0.60824 0.53998 0.0
C86 C 0.73426 0.63097 0.56774 0.0
C87 C 0.75214 0.65001 0.53948 0.0
C88 C 0.72124 0.57351 0.54813 0.0
C89 C 0.6685 0.61464 0.54521 0.0
C90 C 0.83831 0.74215 0.56997 0.0
C91 C 0.85405 0.75759 0.60952 0.0
C92 C 0.84724 0.74546 0.65164 0.0
C93 C 0.82466 0.71923 0.65421 0.0
C94 C 0.80849 0.7047 0.61428 0.0
C95 C 0.81607 0.71591 0.57314 0.0
C96 C 0.79709 0.69747 0.53408 0.0
C97 C 0.77627 0.67376 0.55834 0.0
C98 C 0.78283 0.67801 0.60542 0.0
C99 C 0.82636 0.68109 0.50969 0.0
C100 C 0.77147 0.72027 0.50388 0.0
H101 H 0.68829 0.5831 0.62319 0.0
H102 H 0.74022 0.63589 0.76535 0.0
H103 H 0.7209 0.69303 0.69045 0.0
H104 H 0.76249 0.71193 0.68746 0.0
H105 H 0.75514 0.69266 0.73903 0.0
H106 H 0.80816 0.62439 0.70775 0.0
H107 H 0.806 0.65646 0.74651 0.0
H108 H 0.82584 0.66117 0.69508 0.0
H109 H 0.676 0.58654 0.45398 0.0
H110 H 0.73494 0.65029 0.37832 0.0
H111 H 0.76685 0.67087 0.44774 0.0
H112 H 0.74563 0.56831 0.53149 0.0
H113 H 0.6996 0.55698 0.53413 0.0
H114 H 0.7296 0.56798 0.58417 0.0
H115 H 0.65741 0.63496 0.52399 0.0
H116 H 0.66454 0.62137 0.57992 0.0
H117 H 0.65143 0.59387 0.53473 0.0
H118 H 0.67005 0.5665 0.69351 0.0
C119 C 0.70033 0.59496 0.65312 0.0
C120 C 0.8044 0.126 0.16236 0.0
C121 C 0.83024 0.1017 0.17123 0.0
C122 C 0.83977 0.08357 0.1351 0.0
C123 C 0.80068 0.11607 0.0818 0.0
C124 C 0.7897 0.13251 0.11757 0.0
C125 C 0.76237 0.1579 0.10206 0.0
H126 H 0.67814 0.24899 0.93274 0.0
C127 C 0.78295 0.13077 0.03941 0.0
C128 C 0.76034 0.15523 0.05104 0.0
H129 H 0.66937 0.25394 0.0754 0.0
H130 H 0.70774 0.20805 0.0892 0.0
H131 H 0.76495 0.23123 0.94355 0.0
H132 H 0.67004 0.17222 0.92654 0.0
H133 H 0.70142 0.15715 0.89287 0.0
H134 H 0.68219 0.19598 0.88124 0.0
H135 H 0.73297 0.2314 0.89278 0.0
H136 H 0.76925 0.20286 0.90153 0.0
C137 C 0.77805 0.18989 0.12016 0.0
C138 C 0.72593 0.149 0.11831 0.0
C139 C 0.82201 0.09685 0.89025 0.0
C140 C 0.81339 0.10746 0.84546 0.0
C141 C 0.78629 0.13088 0.83586 0.0
C142 C 0.76925 0.1444 0.87064 0.0
C143 C 0.7793 0.13437 0.91556 0.0
C144 C 0.80473 0.11044 0.92445 0.0
C145 C 0.81204 0.10237 0.97383 0.0
C146 C 0.78729 0.1257 0.99343 0.0
C147 C 0.76828 0.14466 0.95932 0.0
C148 C 0.85268 0.10874 0.9902 0.0
C149 C 0.80027 0.06785 0.98 0.0
C150 C 0.6847 0.24023 0.96694 0.0
C151 C 0.67079 0.25534 1.00304 0.0
C152 C 0.67943 0.24274 0.04692 0.0
C153 C 0.70192 0.21611 0.05494 0.0
C154 C 0.71621 0.20169 0.0188 0.0
C155 C 0.70702 0.21335 0.97553 0.0
C156 C 0.72385 0.19409 0.9412 0.0
C157 C 0.74517 0.16941 0.97113 0.0
C158 C 0.74088 0.17431 0.01666 0.0
C159 C 0.74899 0.21588 0.91814 0.0
C160 C 0.69296 0.17914 0.90835 0.0
H161 H 0.83426 0.07656 0.06427 0.0
H162 H 0.79612 0.13982 0.18973 0.0
H163 H 0.72229 0.12298 0.11817 0.0
H164 H 0.70209 0.15815 0.09583 0.0
H165 H 0.72475 0.15739 0.15328 0.0
H166 H 0.80781 0.19072 0.11916 0.0
H167 H 0.77343 0.19363 0.15574 0.0
H168 H 0.76688 0.21025 0.09978 0.0
H169 H 0.84228 0.07855 0.89868 0.0
H170 H 0.77915 0.1395 0.80166 0.0
H171 H 0.7494 0.16257 0.86135 0.0
H172 H 0.86178 0.13033 0.97395 0.0
H173 H 0.86998 0.08879 0.98157 0.0
H174 H 0.85852 0.11329 0.02676 0.0
H175 H 0.77684 0.06154 0.95445 0.0
H176 H 0.79062 0.0638 0.01292 0.0
H177 H 0.82268 0.05103 0.9762 0.0
H178 H 0.85943 0.06455 0.14138 0.0
C179 C 0.82521 0.09067 0.09042 0.0
C180 C 0.27373 0.42732 0.35088 0.0
C181 C 0.29795 0.45276 0.34986 0.0
C182 C 0.30482 0.47201 0.38858 0.0
C183 C 0.26877 0.43813 0.42982 0.0
C184 C 0.2592 0.42069 0.39107 0.0
C185 C 0.23309 0.39475 0.39877 0.0
H186 H 0.15482 0.30595 0.54783 0.0
C187 C 0.25211 0.42375 0.46705 0.0
C188 C 0.23033 0.39866 0.44896 0.0
H189 H 0.14569 0.29453 0.403 0.0
H190 H 0.17905 0.3427 0.39714 0.0
H191 H 0.2337 0.3204 0.56276 0.0
H192 H 0.14304 0.38456 0.5462 0.0
H193 H 0.17473 0.39914 0.59028 0.0
H194 H 0.15516 0.36077 0.59573 0.0
H195 H 0.20882 0.32972 0.60844 0.0
H196 H 0.24725 0.35261 0.59722 0.0
C197 C 0.25061 0.36281 0.38857 0.0
C198 C 0.19642 0.40165 0.36916 0.0
C199 C 0.29843 0.45415 0.62971 0.0
C200 C 0.29193 0.44186 0.67178 0.0
C201 C 0.26421 0.41936 0.67219 0.0
C202 C 0.2445 0.40848 0.63196 0.0
C203 C 0.25277 0.4196 0.59032 0.0
C204 C 0.27869 0.44265 0.5896 0.0
C205 C 0.28368 0.45166 0.54201 0.0
C206 C 0.25765 0.42914 0.51451 0.0
C207 C 0.23978 0.41035 0.5431 0.0
C208 C 0.32373 0.44486 0.53613 0.0
C209 C 0.27189 0.48659 0.53397 0.0
C210 C 0.15977 0.31387 0.51476 0.0
C211 C 0.14791 0.29598 0.47591 0.0
C212 C 0.1544 0.3077 0.43352 0.0
C213 C 0.17412 0.33558 0.43021 0.0
C214 C 0.18771 0.35205 0.46968 0.0
C215 C 0.17949 0.34157 0.5109 0.0
C216 C 0.19666 0.36152 0.54948 0.0
C217 C 0.21679 0.38557 0.52479 0.0
C218 C 0.21171 0.37989 0.47796 0.0
C219 C 0.22281 0.34018 0.58149 0.0
C220 C 0.16599 0.37726 0.57205 0.0
H221 H 0.29719 0.48022 0.45656 0.0
H222 H 0.26707 0.41233 0.32169 0.0
H223 H 0.19112 0.42747 0.3661 0.0
H224 H 0.17305 0.39219 0.3839 0.0
H225 H 0.1962 0.39211 0.33451 0.0
H226 H 0.27964 0.36208 0.40358 0.0
H227 H 0.24932 0.35912 0.35158 0.0
H228 H 0.23797 0.3425 0.40308 0.0
H229 H 0.31878 0.47201 0.6279 0.0
H230 H 0.2585 0.40912 0.70362 0.0
H231 H 0.22427 0.391 0.63484 0.0
H232 H 0.33207 0.42098 0.54922 0.0
H233 H 0.34204 0.46228 0.55505 0.0
H234 H 0.32885 0.44517 0.50072 0.0
H235 H 0.25312 0.49446 0.55783 0.0
H236 H 0.25647 0.49042 0.49996 0.0
H237 H 0.29562 0.50254 0.53843 0.0
H238 H 0.32175 0.49263 0.38849 0.0
C239 C 0.29039 0.46489 0.42824 0.0
O240 O 0.98867 0.04116 0.49449 0.0
Mn241 Mn 0.02311 0.01942 0.54806 0.0
O242 O 0.96214 1.0028 0.45161 0.0
Mn243 Mn 0.9946 0.97359 0.47817 0.0
O244 O 0.05863 0.99929 0.60265 0.0
O245 O 0.04509 0.06382 0.55836 0.0
Mn246 Mn 0.04838 0.06887 0.6177 0.0
O247 O 0.98314 0.02861 0.59072 0.0
O248 O 0.0813 0.04017 0.6448 0.0
O249 O 0.0635 0.00937 0.50542 0.0
O250 O 0.03899 0.97197 0.45845 0.0
O251 O 0.06561 0.1054 0.59893 0.0
O252 O 1.00325 0.06845 0.63635 0.0
C253 C 0.98432 0.9468 0.53204 0.0
C254 C 0.96555 0.0316 0.46165 0.0
C255 C 0.08059 0.01101 0.63549 0.0
C256 C 0.05899 0.09218 0.55962 0.0
C257 C 0.97912 0.04857 0.62213 0.0
C258 C 0.06556 0.9892 0.47347 0.0
O259 O 0.99932 0.97488 0.53828 0.0
O260 O 0.97622 0.93668 0.49101 0.0
O261 O 0.53952 0.53514 0.10028 0.0
Mn262 Mn 0.50577 0.518 0.04296 0.0
O263 O 0.55015 0.49334 0.14642 0.0
Mn264 Mn 0.52246 0.46521 0.11007 0.0
O265 O 0.47139 0.50041 0.98602 0.0
O266 O 0.48653 0.56323 0.03273 0.0
Mn267 Mn 0.48304 0.56949 0.97365 0.0
O268 O 0.54756 0.52615 1.0029 0.0
O269 O 0.44908 0.54235 0.94531 0.0
O270 O 0.46332 0.51056 0.08305 0.0
O271 O 0.47446 0.46406 0.1176 0.0
O272 O 0.468 0.60653 0.99519 0.0
O273 O 0.52878 0.5667 0.95677 0.0
C274 C 0.54005 0.44423 0.05395 0.0
C275 C 0.5536 0.52244 0.13786 0.0
C276 C 0.44997 0.51296 0.95317 0.0
C277 C 0.47458 0.59222 0.03377 0.0
C278 C 0.55245 0.54624 0.97195 0.0
C279 C 0.45391 0.48759 0.10718 0.0
O280 O 0.52638 0.47286 0.05271 0.0
O281 O 0.54293 0.42956 0.09234 0.0
H282 H 0.09053 0.26843 0.42183 0.0
H283 H 0.1694 0.25081 0.53923 0.0
H284 H 0.06744 0.2147 0.42715 0.0
H285 H 0.1461 0.19786 0.5449 0.0
H286 H 0.12413 0.0978 0.53122 0.0
H287 H 0.14515 0.14743 0.50324 0.0
H288 H 0.03468 0.18166 0.4791 0.0
H289 H 0.01384 0.13171 0.50699 0.0
C290 C 0.10297 0.25315 0.4487 0.0
C291 C 0.13192 0.26403 0.48004 0.0
C292 C 0.08965 0.22241 0.4518 0.0
C293 C 0.10537 0.20168 0.48587 0.0
C294 C 0.13389 0.21283 0.51751 0.0
C295 C 0.1469 0.24348 0.51469 0.0
C296 C 0.10414 0.11511 0.51713 0.0
C297 C 0.06729 0.11065 0.52068 0.0
C298 C 0.11625 0.14392 0.50217 0.0
C299 C 0.0917 0.16891 0.4902 0.0
C300 C 0.05436 0.163 0.4882 0.0
C301 C 0.04229 0.13413 0.50345 0.0
H302 H 0.3537 0.74052 0.05051 0.0
H303 H 0.43823 0.77223 0.15334 0.0
H304 H 0.37963 0.68766 0.05532 0.0
H305 H 0.46474 0.7187 0.15821 0.0
H306 H 0.51903 0.63555 0.07678 0.0
H307 H 0.49566 0.68432 0.10547 0.0
H308 H 0.39112 0.64096 0.10514 0.0
H309 H 0.41466 0.59237 0.0758 0.0
C310 C 0.37777 0.73604 0.07447 0.0
C311 C 0.39402 0.76051 0.10141 0.0
C312 C 0.39242 0.7056 0.07769 0.0
C313 C 0.424 0.69871 0.10769 0.0
C314 C 0.44024 0.72316 0.13504 0.0
C315 C 0.4251 0.75373 0.13231 0.0
C316 C 0.49179 0.63576 0.08585 0.0
C317 C 0.46871 0.61012 0.07427 0.0
C318 C 0.47819 0.66392 0.10175 0.0
C319 C 0.4412 0.66685 0.10631 0.0
C320 C 0.41958 0.63965 0.10106 0.0
C321 C 0.43325 0.61152 0.0852 0.0
H322 H 0.8592 0.81031 0.66413 0.0
H323 H 0.9009 0.77062 0.54811 0.0
H324 H 0.89573 0.85735 0.65841 0.0
H325 H 0.9359 0.81805 0.54138 0.0
H326 H 0.01832 0.89221 0.55496 0.0
H327 H 0.98852 0.8457 0.57971 0.0
H328 H 0.89829 0.90365 0.60763 0.0
H329 H 0.9285 0.95032 0.58252 0.0
C330 C 0.87629 0.81138 0.63761 0.0
C331 C 0.87696 0.78633 0.6067 0.0
C332 C 0.89697 0.8386 0.63408 0.0
C333 C 0.91908 0.84152 0.59972 0.0
C334 C 0.91979 0.81649 0.56887 0.0
C335 C 0.89918 0.78934 0.57236 0.0
C336 C 0.99314 0.89531 0.569 0.0
C337 C 0.97622 0.92509 0.56784 0.0
C338 C 0.97556 0.86849 0.58209 0.0
C339 C 0.94057 0.87072 0.5947 0.0
C340 C 0.92523 0.901 0.59815 0.0
C341 C 0.94282 0.92791 0.58455 0.0
H342 H 0.60824 0.26897 0.03785 0.0
H343 H 0.6816 0.30758 0.95231 0.0
H344 H 0.57354 0.31805 0.03195 0.0
H345 H 0.64644 0.35695 0.94597 0.0
H346 H 0.60588 0.44743 0.02488 0.0
H347 H 0.63624 0.40054 1.0001 0.0
H348 H 0.53365 0.35237 0.97919 0.0
H349 H 0.50362 0.39927 1.00399 0.0
C350 C 0.61674 0.28787 0.01736 0.0
C351 C 0.64779 0.28436 0.9957 0.0
C352 C 0.59658 0.31594 0.01351 0.0
C353 C 0.60699 0.34146 0.98813 0.0
C354 C 0.63765 0.33777 0.9657 0.0
C355 C 0.65765 0.30944 0.96913 0.0
C356 C 0.5895 0.42759 0.01198 0.0
C357 C 0.55232 0.42714 0.01592 0.0
C358 C 0.60698 0.40045 0.99843 0.0
C359 C 0.58752 0.37237 0.98889 0.0
C360 C 0.54956 0.37339 0.98715 0.0
C361 C 0.53217 0.40055 1.00034 0.0
H362 H 0.26409 0.96682 0.33912 0.0
H363 H 0.1675 0.94418 0.24831 0.0
H364 H 0.22631 0.98117 0.39792 0.0
H365 H 0.13025 0.95799 0.30667 0.0
H366 H 0.08609 0.93532 0.43631 0.0
H367 H 0.13123 0.92783 0.38609 0.0
H368 H 0.167 0.02353 0.40949 0.0
H369 H 0.12027 0.03165 0.46011 0.0
C370 C 0.23486 0.96513 0.33167 0.0
C371 C 0.21873 0.95438 0.2891 0.0
C372 C 0.21332 0.97357 0.36512 0.0
C373 C 0.17539 0.97072 0.35681 0.0
C374 C 0.15942 0.9605 0.314 0.0
C375 C 0.18074 0.95264 0.28054 0.0
C376 C 0.10368 0.95489 0.43141 0.0
C377 C 0.09891 0.98438 0.45161 0.0
C378 C 0.1296 0.95048 0.4025 0.0
C379 C 0.15211 0.97522 0.39315 0.0
C380 C 0.14972 1.0041 0.41598 0.0
C381 C 0.12315 0.00872 0.44503 0.0
H382 H 0.68345 0.63618 0.80354 0.0
H383 H 0.69474 0.53924 0.76368 0.0
H384 H 0.6544 0.619 0.86779 0.0
H385 H 0.66629 0.52194 0.82817 0.0
H386 H 0.56304 0.51154 0.89936 0.0
H387 H 0.60622 0.5226 0.84702 0.0
H388 H 0.65728 0.59255 0.93919 0.0
H389 H 0.6129 0.58188 0.99076 0.0
C390 C 0.6805 0.61116 0.80909 0.0
C391 C 0.69097 0.58914 0.77807 0.0
C392 C 0.66389 0.60123 0.84607 0.0
C393 C 0.65753 0.56899 0.8531 0.0
C394 C 0.66994 0.54695 0.82341 0.0
C395 C 0.68633 0.55689 0.78641 0.0
C396 C 0.58454 0.52824 0.90921 0.0
C397 C 0.58532 0.54527 0.94952 0.0
C398 C 0.60924 0.53481 0.87911 0.0
C399 C 0.63528 0.55869 0.88857 0.0
C400 C 0.63736 0.57434 0.93041 0.0
C401 C 0.61243 0.56785 0.96039 0.0
H402 H 0.86889 0.14336 0.22747 0.0
H403 H 0.83261 0.047 0.21914 0.0
H404 H 0.90051 0.13345 0.30388 0.0
H405 H 0.86362 0.03711 0.29541 0.0
H406 H 0.89291 0.03278 0.44285 0.0
H407 H 0.85795 0.05452 0.37471 0.0
H408 H 0.95435 0.0992 0.34015 0.0
H409 H 0.98929 0.07764 0.4092 0.0
C410 C 0.86743 0.12018 0.24232 0.0
C411 C 0.84823 0.09594 0.21779 0.0
C412 C 0.88561 0.11449 0.28579 0.0
C413 C 0.88419 0.08465 0.3058 0.0
C414 C 0.86471 0.06051 0.28117 0.0
C415 C 0.84716 0.06604 0.23749 0.0
C416 C 0.90622 0.04838 0.42165 0.0
C417 C 0.9436 0.05376 0.43126 0.0
C418 C 0.88638 0.06044 0.38237 0.0
C419 C 0.9036 0.07793 0.35164 0.0
C420 C 0.94037 0.08581 0.36329 0.0
C421 C 0.9603 0.07375 0.40294 0.0
H422 H 0.27093 0.44913 0.75601 0.0
H423 H 0.36495 0.45534 0.68609 0.0
H424 H 0.30861 0.45918 0.82711 0.0
H425 H 0.40228 0.46805 0.75694 0.0
H426 H 0.46941 0.46886 0.89409 0.0
H427 H 0.43093 0.44929 0.82692 0.0
H428 H 0.33891 0.49816 0.86964 0.0
H429 H 0.37719 0.51649 0.93665 0.0
C430 C 0.29966 0.45272 0.75564 0.0
C431 C 0.31473 0.45108 0.71495 0.0
C432 C 0.32135 0.45895 0.79664 0.0
C433 C 0.3588 0.46437 0.79834 0.0
C434 C 0.3738 0.46336 0.75749 0.0
C435 C 0.35213 0.45669 0.71647 0.0
C436 C 0.44061 0.47415 0.88982 0.0
C437 C 0.42603 0.49363 0.92089 0.0
C438 C 0.41863 0.46357 0.85083 0.0
C439 C 0.38164 0.47237 0.84213 0.0
C440 C 0.36695 0.49042 0.87493 0.0
C441 C 0.38887 0.50094 0.91362 0.0
H442 H 0.668 0.65194 0.34044 0.0
H443 H 0.69148 0.55614 0.38419 0.0
H444 H 0.63105 0.6326 0.27183 0.0
H445 H 0.65556 0.53683 0.31562 0.0
H446 H 0.55529 0.51122 0.2266 0.0
H447 H 0.59112 0.53648 0.28963 0.0
H448 H 0.63164 0.60242 0.19871 0.0
H449 H 0.59448 0.57692 0.13426 0.0
C450 C 0.66565 0.62676 0.33501 0.0
C451 C 0.68228 0.60549 0.36781 0.0
C452 C 0.64461 0.61572 0.29572 0.0
C453 C 0.63997 0.5832 0.28847 0.0
C454 C 0.65783 0.56205 0.32062 0.0
C455 C 0.67847 0.57305 0.35991 0.0
C456 C 0.57176 0.53113 0.21969 0.0
C457 C 0.57277 0.54151 0.17518 0.0
C458 C 0.59247 0.54556 0.256 0.0
C459 C 0.6152 0.57079 0.24917 0.0
C460 C 0.61466 0.58274 0.20498 0.0
C461 C 0.59346 0.5682 0.16813 0.0
H462 H 0.88652 0.10077 0.85092 0.0
H463 H 0.78782 0.08741 0.75932 0.0
H464 H 0.92186 0.08128 0.79401 0.0
H465 H 0.82339 0.06708 0.70191 0.0
H466 H 0.91052 0.07262 0.59894 0.0
H467 H 0.86677 0.08382 0.65162 0.0
H468 H 0.93569 0.03385 0.75684 0.0
H469 H 0.97925 0.02352 0.70452 0.0
C470 C 0.87232 0.09319 0.81872 0.0
C471 C 0.83434 0.09538 0.80983 0.0
C472 C 0.89259 0.08183 0.78602 0.0
C473 C 0.87553 0.07204 0.74341 0.0
C474 C 0.83746 0.07448 0.73424 0.0
C475 C 0.81708 0.08611 0.76709 0.0
C476 C 0.91545 0.06312 0.63289 0.0
C477 C 0.94793 0.04689 0.64765 0.0
C478 C 0.89055 0.06965 0.6632 0.0
C479 C 0.89802 0.06034 0.70886 0.0
C480 C 0.92936 0.04205 0.72231 0.0
C481 C 0.95409 0.03563 0.69218 0.0
H482 H 0.3676 0.47315 0.34979 0.0
H483 H 0.27259 0.44617 0.25871 0.0
H484 H 0.39866 0.48598 0.28587 0.0
H485 H 0.30457 0.4582 0.19431 0.0
H486 H 0.4003 0.44462 0.10399 0.0
H487 H 0.35868 0.43779 0.15989 0.0
H488 H 0.39559 0.52542 0.22279 0.0
H489 H 0.43692 0.53231 0.16626 0.0
C490 C 0.35301 0.47034 0.31615 0.0
C491 C 0.31711 0.45917 0.30976 0.0
C492 C 0.37097 0.47772 0.27938 0.0
C493 C 0.3539 0.47376 0.23489 0.0
C494 C 0.31842 0.46171 0.22819 0.0
C495 C 0.30017 0.45463 0.26516 0.0
C496 C 0.39823 0.46311 0.12855 0.0
C497 C 0.42122 0.48934 0.1302 0.0
C498 C 0.3746 0.45909 0.16079 0.0
C499 C 0.37404 0.48087 0.19612 0.0
C500 C 0.39555 0.50808 0.19619 0.0
C501 C 0.41875 0.51236 0.16338 0.0
H502 H 0.20947 1.0038 0.88359 0.0
H503 H 0.19519 0.90359 0.86487 0.0
H504 H 0.17792 0.01313 0.80762 0.0
H505 H 0.16353 0.91296 0.78847 0.0
H506 H 0.0659 0.9584 0.68349 0.0
H507 H 0.10339 0.93923 0.75248 0.0
H508 H 0.18871 1.0026 0.72769 0.0
H509 H 0.15158 0.02144 0.65943 0.0
C510 C 0.19966 0.98377 0.86316 0.0
C511 C 0.2049 0.95298 0.88018 0.0
C512 C 0.18182 0.98906 0.81951 0.0
C513 C 0.16841 0.96372 0.79192 0.0
C514 C 0.17352 0.93291 0.80894 0.0
C515 C 0.19187 0.92758 0.85248 0.0
C516 C 0.0933 0.96705 0.6918 0.0
C517 C 0.10594 0.99127 0.66612 0.0
C518 C 0.11463 0.95638 0.73149 0.0
C519 C 0.14867 0.96997 0.74598 0.0
C520 C 0.16236 0.99212 0.71793 0.0
C521 C 0.14128 1.00259 0.67851 0.0
loop_
_geom_bond_atom_site_label_1
_geom_bond_atom_site_label_2
_geom_bond_distance
_geom_bond_site_symmetry_2
_ccdc_geom_bond_type
C0 C1 1.391 . S
C0 C4 1.391 . S
C0 H42 0.948 . S
C1 C0 1.391 . S
C1 C2 1.391 . S
C2 C1 1.391 . S
C2 H58 0.947 . S
C2 C59 1.392 1_556 S
C3 C4 1.391 1_554 S
C3 C7 1.397 . S
C3 C59 1.419 . S
C4 C0 1.391 . S
C4 C3 1.391 1_556 S
C4 C5 1.399 . S
C5 C4 1.399 . S
C5 C8 1.396 1_556 S
C5 C17 1.453 . S
C5 C18 1.684 . S
H6 C30 0.948 . S
C7 C3 1.397 . S
C7 C8 1.394 . S
C7 C26 1.723 . S
C8 C5 1.396 1_554 S
C8 C7 1.394 . S
C8 C38 1.723 . S
H9 C32 0.947 . S
H10 C33 0.948 . S
H11 C39 0.982 . S
H12 C40 0.979 . S
H13 C40 0.980 . S
H14 C40 0.983 . S
H15 C39 0.979 . S
H16 C39 0.977 . S
C17 C5 1.453 . S
C17 H46 0.982 . S
C17 H47 0.979 . S
C17 H48 0.977 . S
C18 C5 1.684 . S
C18 H43 0.979 . S
C18 H44 0.980 . S
C18 H45 0.983 . S
C19 C20 1.391 . S
C19 C24 1.391 . S
C19 H49 0.948 . S
C20 C19 1.391 . S
C20 C21 1.391 . S
C21 C20 1.391 . S
C21 C22 1.392 . S
C21 H50 0.947 . S
C22 C21 1.392 . S
C22 C23 1.419 . S
C22 H51 0.948 . S
C23 C22 1.419 . S
C23 C24 1.391 . S
C23 C27 1.397 . S
C24 C19 1.391 . S
C24 C23 1.391 . S
C24 C25 1.399 . S
C25 C24 1.399 . S
C25 C26 1.396 . S
C25 C28 1.453 . S
C25 C29 1.684 . S
C26 C7 1.723 . S
C26 C25 1.396 . S
C26 C27 1.394 . S
C27 C23 1.397 . S
C27 C26 1.394 . S
C27 C37 1.723 . S
C28 C25 1.453 . S
C28 H52 0.982 . S
C28 H53 0.979 . S
C28 H54 0.977 . S
C29 C25 1.684 . S
C29 H55 0.979 . S
C29 H56 0.980 . S
C29 H57 0.983 . S
C30 H6 0.948 . S
C30 C31 1.391 . S
C30 C35 1.391 . S
C31 C30 1.391 . S
C31 C32 1.391 . S
C32 H9 0.947 . S
C32 C31 1.391 . S
C32 C33 1.392 . S
C33 H10 0.948 . S
C33 C32 1.392 . S
C33 C34 1.419 . S
C34 C33 1.419 . S
C34 C35 1.391 . S
C34 C38 1.397 . S
C35 C30 1.391 . S
C35 C34 1.391 . S
C35 C36 1.399 . S
C36 C35 1.399 . S
C36 C37 1.396 . S
C36 C39 1.453 . S
C36 C40 1.684 . S
C37 C27 1.723 . S
C37 C36 1.396 . S
C37 C38 1.394 . S
C38 C8 1.723 . S
C38 C34 1.397 . S
C38 C37 1.394 . S
C39 H11 0.982 . S
C39 H15 0.979 . S
C39 H16 0.977 . S
C39 C36 1.453 . S
C40 H12 0.979 . S
C40 H13 0.980 . S
C40 H14 0.983 . S
C40 C36 1.684 . S
H41 C59 0.948 . S
H42 C0 0.948 . S
H43 C18 0.979 . S
H44 C18 0.980 . S
H45 C18 0.983 . S
H46 C17 0.982 . S
H47 C17 0.979 . S
H48 C17 0.977 . S
H49 C19 0.948 . S
H50 C21 0.947 . S
H51 C22 0.948 . S
H52 C28 0.982 . S
H53 C28 0.979 . S
H54 C28 0.977 . S
H55 C29 0.979 . S
H56 C29 0.980 . S
H57 C29 0.983 . S
H58 C2 0.947 . S
C59 C2 1.392 1_554 S
C59 C3 1.419 . S
C59 H41 0.948 . S
C60 C61 1.391 . S
C60 C64 1.391 . S
C60 H102 0.948 . S
C61 C60 1.391 . S
C61 C62 1.391 . S
C62 C61 1.391 . S
C62 H118 0.947 . S
C62 C119 1.392 . S
C63 C64 1.391 . S
C63 C67 1.397 . S
C63 C119 1.419 . S
C64 C60 1.391 . S
C64 C63 1.391 . S
C64 C65 1.399 . S
C65 C64 1.399 . S
C65 C68 1.396 . S
C65 C77 1.453 . S
C65 C78 1.684 . S
H66 C90 0.948 . S
C67 C63 1.397 . S
C67 C68 1.394 . S
C67 C86 1.723 . S
C68 C65 1.396 . S
C68 C67 1.394 . S
C68 C98 1.723 . S
H69 C92 0.947 . S
H70 C93 0.948 . S
H71 C99 0.982 . S
H72 C100 0.979 . S
H73 C100 0.980 . S
H74 C100 0.983 . S
H75 C99 0.979 . S
H76 C99 0.977 . S
C77 C65 1.453 . S
C77 H106 0.982 . S
C77 H107 0.979 . S
C77 H108 0.977 . S
C78 C65 1.684 . S
C78 H103 0.979 . S
C78 H104 0.980 . S
C78 H105 0.983 . S
C79 C80 1.391 . S
C79 C84 1.391 . S
C79 H109 0.948 . S
C80 C79 1.391 . S
C80 C81 1.391 . S
C81 C80 1.391 . S
C81 C82 1.392 . S
C81 H110 0.947 . S
C82 C81 1.392 . S
C82 C83 1.419 . S
C82 H111 0.948 . S
C83 C82 1.419 . S
C83 C84 1.391 . S
C83 C87 1.397 . S
C84 C79 1.391 . S
C84 C83 1.391 . S
C84 C85 1.399 . S
C85 C84 1.399 . S
C85 C86 1.396 . S
C85 C88 1.453 . S
C85 C89 1.684 . S
C86 C67 1.723 . S
C86 C85 1.396 . S
C86 C87 1.394 . S
C87 C83 1.397 . S
C87 C86 1.394 . S
C87 C97 1.723 . S
C88 C85 1.453 . S
C88 H112 0.982 . S
C88 H113 0.979 . S
C88 H114 0.977 . S
C89 C85 1.684 . S
C89 H115 0.979 . S
C89 H116 0.980 . S
C89 H117 0.983 . S
C90 H66 0.948 . S
C90 C91 1.391 . S
C90 C95 1.391 . S
C91 C90 1.391 . S
C91 C92 1.391 . S
C92 H69 0.947 . S
C92 C91 1.391 . S
C92 C93 1.392 . S
C93 H70 0.948 . S
C93 C92 1.392 . S
C93 C94 1.419 . S
C94 C93 1.419 . S
C94 C95 1.391 . S
C94 C98 1.397 . S
C95 C90 1.391 . S
C95 C94 1.391 . S
C95 C96 1.399 . S
C96 C95 1.399 . S
C96 C97 1.396 . S
C96 C99 1.453 . S
C96 C100 1.684 . S
C97 C87 1.723 . S
C97 C96 1.396 . S
C97 C98 1.394 . S
C98 C68 1.723 . S
C98 C94 1.397 . S
C98 C97 1.394 . S
C99 H71 0.982 . S
C99 H75 0.979 . S
C99 H76 0.977 . S
C99 C96 1.453 . S
C100 H72 0.979 . S
C100 H73 0.980 . S
C100 H74 0.983 . S
C100 C96 1.684 . S
H101 C119 0.948 . S
H102 C60 0.948 . S
H103 C78 0.979 . S
H104 C78 0.980 . S
H105 C78 0.983 . S
H106 C77 0.982 . S
H107 C77 0.979 . S
H108 C77 0.977 . S
H109 C79 0.948 . S
H110 C81 0.947 . S
H111 C82 0.948 . S
H112 C88 0.982 . S
H113 C88 0.979 . S
H114 C88 0.977 . S
H115 C89 0.979 . S
H116 C89 0.980 . S
H117 C89 0.983 . S
H118 C62 0.947 . S
C119 C62 1.392 . S
C119 C63 1.419 . S
C119 H101 0.948 . S
C120 C121 1.391 . S
C120 C124 1.391 . S
C120 H162 0.948 . S
C121 C120 1.391 . S
C121 C122 1.391 . S
C122 C121 1.391 . S
C122 H178 0.947 . S
C122 C179 1.392 . S
C123 C124 1.391 . S
C123 C127 1.397 . S
C123 C179 1.419 . S
C124 C120 1.391 . S
C124 C123 1.391 . S
C124 C125 1.399 . S
C125 C124 1.399 . S
C125 C128 1.396 . S
C125 C137 1.453 . S
C125 C138 1.684 . S
H126 C150 0.948 . S
C127 C123 1.397 . S
C127 C128 1.394 . S
C127 C146 1.723 1_554 S
C128 C125 1.396 . S
C128 C127 1.394 . S
C128 C158 1.723 . S
H129 C152 0.947 . S
H130 C153 0.948 . S
H131 C159 0.982 . S
H132 C160 0.979 . S
H133 C160 0.980 . S
H134 C160 0.983 . S
H135 C159 0.979 . S
H136 C159 0.977 . S
C137 C125 1.453 . S
C137 H166 0.982 . S
C137 H167 0.979 . S
C137 H168 0.977 . S
C138 C125 1.684 . S
C138 H163 0.979 . S
C138 H164 0.980 . S
C138 H165 0.983 . S
C139 C140 1.391 . S
C139 C144 1.391 . S
C139 H169 0.948 . S
C140 C139 1.391 . S
C140 C141 1.391 . S
C141 C140 1.391 . S
C141 C142 1.392 . S
C141 H170 0.947 . S
C142 C141 1.392 . S
C142 C143 1.419 . S
C142 H171 0.948 . S
C143 C142 1.419 . S
C143 C144 1.391 . S
C143 C147 1.397 . S
C144 C139 1.391 . S
C144 C143 1.391 . S
C144 C145 1.399 . S
C145 C144 1.399 . S
C145 C146 1.396 . S
C145 C148 1.453 . S
C145 C149 1.684 . S
C146 C127 1.723 1_556 S
C146 C145 1.396 . S
C146 C147 1.394 . S
C147 C143 1.397 . S
C147 C146 1.394 . S
C147 C157 1.723 . S
C148 C145 1.453 . S
C148 H172 0.982 . S
C148 H173 0.979 . S
C148 H174 0.977 1_556 S
C149 C145 1.684 . S
C149 H175 0.979 . S
C149 H176 0.980 1_556 S
C149 H177 0.983 . S
C150 H126 0.948 . S
C150 C151 1.394 . S
C150 C155 1.391 . S
C151 C150 1.394 . S
C151 C152 1.388 1_556 S
C152 H129 0.947 . S
C152 C151 1.388 1_554 S
C152 C153 1.392 . S
C153 H130 0.948 . S
C153 C152 1.392 . S
C153 C154 1.419 . S
C154 C153 1.419 . S
C154 C155 1.391 1_554 S
C154 C158 1.397 . S
C155 C150 1.391 . S
C155 C154 1.391 1_556 S
C155 C156 1.399 . S
C156 C155 1.399 . S
C156 C157 1.396 . S
C156 C159 1.453 . S
C156 C160 1.684 . S
C157 C147 1.723 . S
C157 C156 1.396 . S
C157 C158 1.394 1_556 S
C158 C128 1.723 . S
C158 C154 1.397 . S
C158 C157 1.394 1_554 S
C159 H131 0.982 . S
C159 H135 0.979 . S
C159 H136 0.977 . S
C159 C156 1.453 . S
C160 H132 0.979 . S
C160 H133 0.980 . S
C160 H134 0.983 . S
C160 C156 1.684 . S
H161 C179 0.948 . S
H162 C120 0.948 . S
H163 C138 0.979 . S
H164 C138 0.980 . S
H165 C138 0.983 . S
H166 C137 0.982 . S
H167 C137 0.979 . S
H168 C137 0.977 . S
H169 C139 0.948 . S
H170 C141 0.947 . S
H171 C142 0.948 . S
H172 C148 0.982 . S
H173 C148 0.979 . S
H174 C148 0.977 1_554 S
H175 C149 0.979 . S
H176 C149 0.980 1_554 S
H177 C149 0.983 . S
H178 C122 0.947 . S
C179 C122 1.392 . S
C179 C123 1.419 . S
C179 H161 0.948 . S
C180 C181 1.391 . S
C180 C184 1.391 . S
C180 H222 0.948 . S
C181 C180 1.391 . S
C181 C182 1.391 . S
C182 C181 1.391 . S
C182 H238 0.947 . S
C182 C239 1.392 . S
C183 C184 1.391 . S
C183 C187 1.397 . S
C183 C239 1.419 . S
C184 C180 1.391 . S
C184 C183 1.391 . S
C184 C185 1.399 . S
C185 C184 1.399 . S
C185 C188 1.396 . S
C185 C197 1.453 . S
C185 C198 1.684 . S
H186 C210 0.948 . S
C187 C183 1.397 . S
C187 C188 1.394 . S
C187 C206 1.723 . S
C188 C185 1.396 . S
C188 C187 1.394 . S
C188 C218 1.723 . S
H189 C212 0.947 . S
H190 C213 0.948 . S
H191 C219 0.982 . S
H192 C220 0.979 . S
H193 C220 0.980 . S
H194 C220 0.983 . S
H195 C219 0.979 . S
H196 C219 0.977 . S
C197 C185 1.453 . S
C197 H226 0.982 . S
C197 H227 0.979 . S
C197 H228 0.977 . S
C198 C185 1.684 . S
C198 H223 0.979 . S
C198 H224 0.980 . S
C198 H225 0.983 . S
C199 C200 1.391 . S
C199 C204 1.391 . S
C199 H229 0.948 . S
C200 C199 1.391 . S
C200 C201 1.391 . S
C201 C200 1.391 . S
C201 C202 1.392 . S
C201 H230 0.947 . S
C202 C201 1.392 . S
C202 C203 1.419 . S
C202 H231 0.948 . S
C203 C202 1.419 . S
C203 C204 1.391 . S
C203 C207 1.397 . S
C204 C199 1.391 . S
C204 C203 1.391 . S
C204 C205 1.399 . S
C205 C204 1.399 . S
C205 C206 1.396 . S
C205 C208 1.453 . S
C205 C209 1.684 . S
C206 C187 1.723 . S
C206 C205 1.396 . S
C206 C207 1.394 . S
C207 C203 1.397 . S
C207 C206 1.394 . S
C207 C217 1.723 . S
C208 C205 1.453 . S
C208 H232 0.982 . S
C208 H233 0.979 . S
C208 H234 0.977 . S
C209 C205 1.684 . S
C209 H235 0.979 . S
C209 H236 0.980 . S
C209 H237 0.983 . S
C210 H186 0.948 . S
C210 C211 1.391 . S
C210 C215 1.391 . S
C211 C210 1.391 . S
C211 C212 1.391 . S
C212 H189 0.947 . S
C212 C211 1.391 . S
C212 C213 1.392 . S
C213 H190 0.948 . S
C213 C212 1.392 . S
C213 C214 1.419 . S
C214 C213 1.419 . S
C214 C215 1.391 . S
C214 C218 1.397 . S
C215 C210 1.391 . S
C215 C214 1.391 . S
C215 C216 1.399 . S
C216 C215 1.399 . S
C216 C217 1.396 . S
C216 C219 1.453 . S
C216 C220 1.684 . S
C217 C207 1.723 . S
C217 C216 1.396 . S
C217 C218 1.394 . S
C218 C188 1.723 . S
C218 C214 1.397 . S
C218 C217 1.394 . S
C219 H191 0.982 . S
C219 H195 0.979 . S
C219 H196 0.977 . S
C219 C216 1.453 . S
C220 H192 0.979 . S
C220 H193 0.980 . S
C220 H194 0.983 . S
C220 C216 1.684 . S
H221 C239 0.948 . S
H222 C180 0.948 . S
H223 C198 0.979 . S
H224 C198 0.980 . S
H225 C198 0.983 . S
H226 C197 0.982 . S
H227 C197 0.979 . S
H228 C197 0.977 . S
H229 C199 0.948 . S
H230 C201 0.947 . S
H231 C202 0.948 . S
H232 C208 0.982 . S
H233 C208 0.979 . S
H234 C208 0.977 . S
H235 C209 0.979 . S
H236 C209 0.980 . S
H237 C209 0.983 . S
H238 C182 0.947 . S
C239 C182 1.392 . S
C239 C183 1.419 . S
C239 H221 0.948 . S
O240 Mn241 2.163 1_655 S
O240 C254 1.244 . S
Mn241 O240 2.163 1_455 S
Mn241 O244 2.160 1_545 S
Mn241 O245 2.221 . S
Mn241 O247 2.163 1_455 S
Mn241 O249 2.160 1_545 S
Mn241 O259 2.221 1_445 S
O242 Mn243 2.087 1_545 S
O242 C254 1.256 . S
Mn243 O242 2.087 1_565 S
Mn243 O250 2.089 1_655 S
Mn243 O259 2.290 . S
Mn243 O260 2.251 . S
O244 Mn241 2.160 1_565 S
O244 C255 1.239 . S
O245 Mn241 2.221 . S
O245 Mn246 2.290 . S
O245 C256 1.278 . S
Mn246 O245 2.290 . S
Mn246 O248 2.089 . S
Mn246 O251 2.251 . S
Mn246 O252 2.087 1_455 S
O247 Mn241 2.163 1_655 S
O247 C257 1.244 . S
O248 Mn246 2.089 . S
O248 C255 1.256 1_545 S
O249 Mn241 2.160 1_565 S
O249 C258 1.239 . S
O250 Mn243 2.089 1_455 S
O250 C258 1.256 . S
O251 Mn246 2.251 . S
O251 C256 1.241 . S
O252 Mn246 2.087 1_655 S
O252 C257 1.256 . S
C253 O259 1.278 . S
C253 O260 1.241 . S
C254 O240 1.244 . S
C254 O242 1.256 . S
C255 O244 1.239 . S
C255 O248 1.256 1_565 S
C256 O245 1.278 . S
C256 O251 1.241 . S
C257 O247 1.244 . S
C257 O252 1.256 . S
C258 O249 1.239 . S
C258 O250 1.256 . S
O259 Mn241 2.221 1_665 S
O259 Mn243 2.290 . S
O259 C253 1.278 . S
O260 Mn243 2.251 . S
O260 C253 1.241 . S
O261 Mn262 2.163 . S
O261 C275 1.244 . S
Mn262 O261 2.163 . S
Mn262 O265 2.160 1_554 S
Mn262 O266 2.221 . S
Mn262 O268 2.163 1_554 S
Mn262 O270 2.160 . S
Mn262 O280 2.221 . S
O263 Mn264 2.087 . S
O263 C275 1.256 . S
Mn264 O263 2.087 . S
Mn264 O271 2.089 . S
Mn264 O280 2.290 . S
Mn264 O281 2.251 . S
O265 Mn262 2.160 1_556 S
O265 C276 1.239 . S
O266 Mn262 2.221 . S
O266 Mn267 2.290 1_554 S
O266 C277 1.278 . S
Mn267 O266 2.290 1_556 S
Mn267 O269 2.089 . S
Mn267 O272 2.251 1_556 S
Mn267 O273 2.087 . S
O268 Mn262 2.163 1_556 S
O268 C278 1.244 . S
O269 Mn267 2.089 . S
O269 C276 1.256 . S
O270 Mn262 2.160 . S
O270 C279 1.239 . S
O271 Mn264 2.089 . S
O271 C279 1.256 . S
O272 Mn267 2.251 1_554 S
O272 C277 1.241 . S
O273 Mn267 2.087 . S
O273 C278 1.256 . S
C274 O280 1.278 . S
C274 O281 1.241 . S
C275 O261 1.244 . S
C275 O263 1.256 . S
C276 O265 1.239 . S
C276 O269 1.256 . S
C277 O266 1.278 . S
C277 O272 1.241 . S
C278 O268 1.244 . S
C278 O273 1.256 . S
C279 O270 1.239 . S
C279 O271 1.256 . S
O280 Mn262 2.221 . S
O280 Mn264 2.290 . S
O280 C274 1.278 . S
O281 Mn264 2.251 . S
O281 C274 1.241 . S
H282 C290 0.950 . S
H283 C295 0.950 . S
H284 C292 0.950 . S
H285 C294 0.950 . S
H286 C296 0.950 . S
H287 C298 0.950 . S
H288 C300 0.950 . S
H289 C301 0.950 . S
C290 H282 0.950 . S
C290 C291 1.386 . S
C290 C292 1.391 . S
C291 C290 1.386 . S
C291 C295 1.393 . S
C292 H284 0.950 . S
C292 C290 1.391 . S
C292 C293 1.400 . S
C293 C292 1.400 . S
C293 C294 1.398 . S
C293 C299 1.491 . S
C294 H285 0.950 . S
C294 C293 1.398 . S
C294 C295 1.391 . S
C295 H283 0.950 . S
C295 C291 1.393 . S
C295 C294 1.391 . S
C296 H286 0.950 . S
C296 C297 1.386 . S
C296 C298 1.391 . S
C297 C296 1.386 . S
C297 C301 1.393 . S
C298 H287 0.950 . S
C298 C296 1.391 . S
C298 C299 1.400 . S
C299 C293 1.491 . S
C299 C298 1.400 . S
C299 C300 1.398 . S
C300 H288 0.950 . S
C300 C299 1.398 . S
C300 C301 1.391 . S
C301 H289 0.950 . S
C301 C297 1.393 . S
C301 C300 1.391 . S
H302 C310 0.950 . S
H303 C315 0.950 . S
H304 C312 0.950 . S
H305 C314 0.950 . S
H306 C316 0.950 . S
H307 C318 0.950 . S
H308 C320 0.950 . S
H309 C321 0.950 . S
C310 H302 0.950 . S
C310 C311 1.386 . S
C310 C312 1.391 . S
C311 C310 1.386 . S
C311 C315 1.393 . S
C312 H304 0.950 . S
C312 C310 1.391 . S
C312 C313 1.400 . S
C313 C312 1.400 . S
C313 C314 1.398 . S
C313 C319 1.491 . S
C314 H305 0.950 . S
C314 C313 1.398 . S
C314 C315 1.391 . S
C315 H303 0.950 . S
C315 C311 1.393 . S
C315 C314 1.391 . S
C316 H306 0.950 . S
C316 C317 1.386 . S
C316 C318 1.391 . S
C317 C316 1.386 . S
C317 C321 1.393 . S
C318 H307 0.950 . S
C318 C316 1.391 . S
C318 C319 1.400 . S
C319 C313 1.491 . S
C319 C318 1.400 . S
C319 C320 1.398 . S
C320 H308 0.950 . S
C320 C319 1.398 . S
C320 C321 1.391 . S
C321 H309 0.950 . S
C321 C317 1.393 . S
C321 C320 1.391 . S
H322 C330 0.950 . S
H323 C335 0.950 . S
H324 C332 0.950 . S
H325 C334 0.950 . S
H326 C336 0.950 . S
H327 C338 0.950 . S
H328 C340 0.950 . S
H329 C341 0.950 . S
C330 H322 0.950 . S
C330 C331 1.386 . S
C330 C332 1.391 . S
C331 C330 1.386 . S
C331 C335 1.393 . S
C332 H324 0.950 . S
C332 C330 1.391 . S
C332 C333 1.400 . S
C333 C332 1.400 . S
C333 C334 1.398 . S
C333 C339 1.491 . S
C334 H325 0.950 . S
C334 C333 1.398 . S
C334 C335 1.391 . S
C335 H323 0.950 . S
C335 C331 1.393 . S
C335 C334 1.391 . S
C336 H326 0.950 . S
C336 C337 1.386 . S
C336 C338 1.391 . S
C337 C336 1.386 . S
C337 C341 1.393 . S
C338 H327 0.950 . S
C338 C336 1.391 . S
C338 C339 1.400 . S
C339 C333 1.491 . S
C339 C338 1.400 . S
C339 C340 1.398 . S
C340 H328 0.950 . S
C340 C339 1.398 . S
C340 C341 1.391 . S
C341 H329 0.950 . S
C341 C337 1.393 . S
C341 C340 1.391 . S
H342 C350 0.950 . S
H343 C355 0.950 . S
H344 C352 0.950 . S
H345 C354 0.950 . S
H346 C356 0.945 1_556 S
H347 C358 0.950 . S
H348 C360 0.950 . S
H349 C361 0.950 . S
C350 H342 0.950 . S
C350 C351 1.386 1_554 S
C350 C352 1.391 . S
C351 C350 1.386 1_556 S
C351 C355 1.393 . S
C352 H344 0.950 . S
C352 C350 1.391 . S
C352 C353 1.400 . S
C353 C352 1.400 . S
C353 C354 1.398 1_554 S
C353 C359 1.491 . S
C354 H345 0.950 . S
C354 C353 1.398 1_556 S
C354 C355 1.391 . S
C355 H343 0.950 . S
C355 C351 1.393 . S
C355 C354 1.391 . S
C356 H346 0.945 1_554 S
C356 C357 1.391 . S
C356 C358 1.390 1_554 S
C357 C356 1.391 . S
C357 C361 1.393 . S
C358 H347 0.950 . S
C358 C356 1.390 1_556 S
C358 C359 1.400 1_556 S
C359 C353 1.491 . S
C359 C358 1.400 1_554 S
C359 C360 1.398 . S
C360 H348 0.950 . S
C360 C359 1.398 . S
C360 C361 1.391 . S
C361 H349 0.950 . S
C361 C357 1.393 . S
C361 C360 1.391 . S
H362 C370 0.950 . S
H363 C375 0.950 . S
H364 C372 0.950 . S
H365 C374 0.950 . S
H366 C376 0.950 . S
H367 C378 0.950 . S
H368 C380 0.950 1_545 S
H369 C381 0.950 1_545 S
C370 H362 0.950 . S
C370 C371 1.386 . S
C370 C372 1.391 . S
C371 C370 1.386 . S
C371 C375 1.393 . S
C372 H364 0.950 . S
C372 C370 1.391 . S
C372 C373 1.400 . S
C373 C372 1.400 . S
C373 C374 1.398 . S
C373 C379 1.491 . S
C374 H365 0.950 . S
C374 C373 1.398 . S
C374 C375 1.391 . S
C375 H363 0.950 . S
C375 C371 1.393 . S
C375 C374 1.391 . S
C376 H366 0.950 . S
C376 C377 1.386 . S
C376 C378 1.391 . S
C377 C376 1.386 . S
C377 C381 1.393 . S
C378 H367 0.950 . S
C378 C376 1.391 . S
C378 C379 1.400 . S
C379 C373 1.491 . S
C379 C378 1.400 . S
C379 C380 1.398 . S
C380 H368 0.950 1_565 S
C380 C379 1.398 . S
C380 C381 1.391 . S
C381 H369 0.950 1_565 S
C381 C377 1.393 . S
C381 C380 1.391 . S
H382 C390 0.950 . S
H383 C395 0.950 . S
H384 C392 0.950 . S
H385 C394 0.950 . S
H386 C396 0.950 . S
H387 C398 0.950 . S
H388 C400 0.950 . S
H389 C401 0.950 . S
C390 H382 0.950 . S
C390 C391 1.386 . S
C390 C392 1.391 . S
C391 C390 1.386 . S
C391 C395 1.393 . S
C392 H384 0.950 . S
C392 C390 1.391 . S
C392 C393 1.400 . S
C393 C392 1.400 . S
C393 C394 1.398 . S
C393 C399 1.491 . S
C394 H385 0.950 . S
C394 C393 1.398 . S
C394 C395 1.391 . S
C395 H383 0.950 . S
C395 C391 1.393 . S
C395 C394 1.391 . S
C396 H386 0.950 . S
C396 C397 1.386 . S
C396 C398 1.391 . S
C397 C396 1.386 . S
C397 C401 1.393 . S
C398 H387 0.950 . S
C398 C396 1.391 . S
C398 C399 1.400 . S
C399 C393 1.491 . S
C399 C398 1.400 . S
C399 C400 1.398 . S
C400 H388 0.950 . S
C400 C399 1.398 . S
C400 C401 1.391 . S
C401 H389 0.950 . S
C401 C397 1.393 . S
C401 C400 1.391 . S
H402 C410 0.950 . S
H403 C415 0.950 . S
H404 C412 0.950 . S
H405 C414 0.950 . S
H406 C416 0.950 . S
H407 C418 0.950 . S
H408 C420 0.950 . S
H409 C421 0.950 . S
C410 H402 0.950 . S
C410 C411 1.386 . S
C410 C412 1.391 . S
C411 C410 1.386 . S
C411 C415 1.393 . S
C412 H404 0.950 . S
C412 C410 1.391 . S
C412 C413 1.400 . S
C413 C412 1.400 . S
C413 C414 1.398 . S
C413 C419 1.491 . S
C414 H405 0.950 . S
C414 C413 1.398 . S
C414 C415 1.391 . S
C415 H403 0.950 . S
C415 C411 1.393 . S
C415 C414 1.391 . S
C416 H406 0.950 . S
C416 C417 1.386 . S
C416 C418 1.391 . S
C417 C416 1.386 . S
C417 C421 1.393 . S
C418 H407 0.950 . S
C418 C416 1.391 . S
C418 C419 1.400 . S
C419 C413 1.491 . S
C419 C418 1.400 . S
C419 C420 1.398 . S
C420 H408 0.950 . S
C420 C419 1.398 . S
C420 C421 1.391 . S
C421 H409 0.950 . S
C421 C417 1.393 . S
C421 C420 1.391 . S
H422 C430 0.950 . S
H423 C435 0.950 . S
H424 C432 0.950 . S
H425 C434 0.950 . S
H426 C436 0.950 . S
H427 C438 0.950 . S
H428 C440 0.950 . S
H429 C441 0.950 . S
C430 H422 0.950 . S
C430 C431 1.386 . S
C430 C432 1.391 . S
C431 C430 1.386 . S
C431 C435 1.393 . S
C432 H424 0.950 . S
C432 C430 1.391 . S
C432 C433 1.400 . S
C433 C432 1.400 . S
C433 C434 1.398 . S
C433 C439 1.491 . S
C434 H425 0.950 . S
C434 C433 1.398 . S
C434 C435 1.391 . S
C435 H423 0.950 . S
C435 C431 1.393 . S
C435 C434 1.391 . S
C436 H426 0.950 . S
C436 C437 1.386 . S
C436 C438 1.391 . S
C437 C436 1.386 . S
C437 C441 1.393 . S
C438 H427 0.950 . S
C438 C436 1.391 . S
C438 C439 1.400 . S
C439 C433 1.491 . S
C439 C438 1.400 . S
C439 C440 1.398 . S
C440 H428 0.950 . S
C440 C439 1.398 . S
C440 C441 1.391 . S
C441 H429 0.950 . S
C441 C437 1.393 . S
C441 C440 1.391 . S
H442 C450 0.950 . S
H443 C455 0.950 . S
H444 C452 0.950 . S
H445 C454 0.950 . S
H446 C456 0.950 . S
H447 C458 0.950 . S
H448 C460 0.950 . S
H449 C461 0.950 . S
C450 H442 0.950 . S
C450 C451 1.386 . S
C450 C452 1.391 . S
C451 C450 1.386 . S
C451 C455 1.393 . S
C452 H444 0.950 . S
C452 C450 1.391 . S
C452 C453 1.400 . S
C453 C452 1.400 . S
C453 C454 1.398 . S
C453 C459 1.491 . S
C454 H445 0.950 . S
C454 C453 1.398 . S
C454 C455 1.391 . S
C455 H443 0.950 . S
C455 C451 1.393 . S
C455 C454 1.391 . S
C456 H446 0.950 . S
C456 C457 1.386 . S
C456 C458 1.391 . S
C457 C456 1.386 . S
C457 C461 1.393 . S
C458 H447 0.950 . S
C458 C456 1.391 . S
C458 C459 1.400 . S
C459 C453 1.491 . S
C459 C458 1.400 . S
C459 C460 1.398 . S
C460 H448 0.950 . S
C460 C459 1.398 . S
C460 C461 1.391 . S
C461 H449 0.950 . S
C461 C457 1.393 . S
C461 C460 1.391 . S
H462 C470 0.950 . S
H463 C475 0.950 . S
H464 C472 0.950 . S
H465 C474 0.950 . S
H466 C476 0.950 . S
H467 C478 0.950 . S
H468 C480 0.950 . S
H469 C481 0.950 . S
C470 H462 0.950 . S
C470 C471 1.386 . S
C470 C472 1.391 . S
C471 C470 1.386 . S
C471 C475 1.393 . S
C472 H464 0.950 . S
C472 C470 1.391 . S
C472 C473 1.400 . S
C473 C472 1.400 . S
C473 C474 1.398 . S
C473 C479 1.491 . S
C474 H465 0.950 . S
C474 C473 1.398 . S
C474 C475 1.391 . S
C475 H463 0.950 . S
C475 C471 1.393 . S
C475 C474 1.391 . S
C476 H466 0.950 . S
C476 C477 1.386 . S
C476 C478 1.391 . S
C477 C476 1.386 . S
C477 C481 1.393 . S
C478 H467 0.950 . S
C478 C476 1.391 . S
C478 C479 1.400 . S
C479 C473 1.491 . S
C479 C478 1.400 . S
C479 C480 1.398 . S
C480 H468 0.950 . S
C480 C479 1.398 . S
C480 C481 1.391 . S
C481 H469 0.950 . S
C481 C477 1.393 . S
C481 C480 1.391 . S
H482 C490 0.950 . S
H483 C495 0.950 . S
H484 C492 0.950 . S
H485 C494 0.950 . S
H486 C496 0.950 . S
H487 C498 0.950 . S
H488 C500 0.950 . S
H489 C501 0.950 . S
C490 H482 0.950 . S
C490 C491 1.386 . S
C490 C492 1.391 . S
C491 C490 1.386 . S
C491 C495 1.393 . S
C492 H484 0.950 . S
C492 C490 1.391 . S
C492 C493 1.400 . S
C493 C492 1.400 . S
C493 C494 1.398 . S
C493 C499 1.491 . S
C494 H485 0.950 . S
C494 C493 1.398 . S
C494 C495 1.391 . S
C495 H483 0.950 . S
C495 C491 1.393 . S
C495 C494 1.391 . S
C496 H486 0.950 . S
C496 C497 1.386 . S
C496 C498 1.391 . S
C497 C496 1.386 . S
C497 C501 1.393 . S
C498 H487 0.950 . S
C498 C496 1.391 . S
C498 C499 1.400 . S
C499 C493 1.491 . S
C499 C498 1.400 . S
C499 C500 1.398 . S
C500 H488 0.950 . S
C500 C499 1.398 . S
C500 C501 1.391 . S
C501 H489 0.950 . S
C501 C497 1.393 . S
C501 C500 1.391 . S
H502 C510 0.935 1_545 S
H503 C515 0.950 . S
H504 C512 0.950 1_545 S
H505 C514 0.950 . S
H506 C516 0.950 . S
H507 C518 0.950 . S
H508 C520 0.956 . S
H509 C521 0.950 . S
C510 H502 0.935 1_565 S
C510 C511 1.386 . S
C510 C512 1.391 . S
C511 C510 1.386 . S
C511 C515 1.393 . S
C512 H504 0.950 1_565 S
C512 C510 1.391 . S
C512 C513 1.400 . S
C513 C512 1.400 . S
C513 C514 1.398 . S
C513 C519 1.491 . S
C514 H505 0.950 . S
C514 C513 1.398 . S
C514 C515 1.391 . S
C515 H503 0.950 . S
C515 C511 1.393 . S
C515 C514 1.391 . S
C516 H506 0.950 . S
C516 C517 1.386 . S
C516 C518 1.391 . S
C517 C516 1.386 . S
C517 C521 1.393 1_565 S
C518 H507 0.950 . S
C518 C516 1.391 . S
C518 C519 1.400 . S
C519 C513 1.491 . S
C519 C518 1.400 . S
C519 C520 1.391 1_565 S
C520 H508 0.956 . S
C520 C519 1.391 1_545 S
C520 C521 1.392 . S
C521 H509 0.950 . S
C521 C517 1.393 1_545 S
C521 C520 1.392 . S
C297 C256 1.336 . S
C291 C211 1.535 . S
C311 C31 1.447 . S
C317 C277 1.376 . S
C331 C91 1.655 . S
C337 C253 1.483 . S
C351 C151 1.652 . S
C357 C274 1.498 . S
C377 C258 1.646 . S
C371 C20 1.605 . S
C397 C278 1.592 . S
C391 C61 1.520 . S
C411 C121 1.580 . S
C417 C254 1.514 . S
C431 C200 1.621 . S
C437 C276 1.543 . S
C457 C275 1.524 . S
C451 C80 1.542 . S
C477 C257 1.573 . S
C471 C140 1.627 . S
C497 C279 1.651 . S
C491 C181 1.611 . S
C511 C1 1.571 . S
C517 C255 1.550 . S
