# Generated by pormake.
# Topology wbl, (4,4)-cn, num edge types: 1
# Building blocks:
#     Node 0, Type 0, BuildingBlock: MUDLON_clean_linker_0, # of connection points: 4
#     Node 1, Type 0, BuildingBlock: MUDLON_clean_linker_0, # of connection points: 4
#     Node 2, Type 0, BuildingBlock: MUDLON_clean_linker_0, # of connection points: 4
#     Node 3, Type 0, BuildingBlock: MUDLON_clean_linker_0, # of connection points: 4
#     Node 4, Type 0, BuildingBlock: MUDLON_clean_linker_0, # of connection points: 4
#     Node 5, Type 0, BuildingBlock: MUDLON_clean_linker_0, # of connection points: 4
#     Node 6, Type 0, BuildingBlock: MUDLON_clean_linker_0, # of connection points: 4
#     Node 7, Type 0, BuildingBlock: MUDLON_clean_linker_0, # of connection points: 4
#     Node 8, Type 1, BuildingBlock: QUQFOY_clean_sbu_3, # of connection points: 4
#     Node 9, Type 1, BuildingBlock: QUQFOY_clean_sbu_3, # of connection points: 4
#     Node 10, Type 1, BuildingBlock: QUQFOY_clean_sbu_3, # of connection points: 4
#     Node 11, Type 1, BuildingBlock: QUQFOY_clean_sbu_3, # of connection points: 4
#     Node 12, Type 1, BuildingBlock: QUQFOY_clean_sbu_3, # of connection points: 4
#     Node 13, Type 1, BuildingBlock: QUQFOY_clean_sbu_3, # of connection points: 4
#     Node 14, Type 1, BuildingBlock: QUQFOY_clean_sbu_3, # of connection points: 4
#     Node 15, Type 1, BuildingBlock: QUQFOY_clean_sbu_3, # of connection points: 4
#     Edge 16, Type (0, 1), BuildingBlock: OJICUG_clean_linker_0, # of connection points: 2
#     Edge 17, Type (0, 1), BuildingBlock: OJICUG_clean_linker_0, # of connection points: 2
#     Edge 18, Type (0, 1), BuildingBlock: OJICUG_clean_linker_0, # of connection points: 2
#     Edge 19, Type (0, 1), BuildingBlock: OJICUG_clean_linker_0, # of connection points: 2
#     Edge 20, Type (0, 1), BuildingBlock: OJICUG_clean_linker_0, # of connection points: 2
#     Edge 21, Type (0, 1), BuildingBlock: OJICUG_clean_linker_0, # of connection points: 2
#     Edge 22, Type (0, 1), BuildingBlock: OJICUG_clean_linker_0, # of connection points: 2
#     Edge 23, Type (0, 1), BuildingBlock: OJICUG_clean_linker_0, # of connection points: 2
#     Edge 24, Type (0, 1), BuildingBlock: OJICUG_clean_linker_0, # of connection points: 2
#     Edge 25, Type (0, 1), BuildingBlock: OJICUG_clean_linker_0, # of connection points: 2
#     Edge 26, Type (0, 1), BuildingBlock: OJICUG_clean_linker_0, # of connection points: 2
#     Edge 27, Type (0, 1), BuildingBlock: OJICUG_clean_linker_0, # of connection points: 2
#     Edge 28, Type (0, 1), BuildingBlock: OJICUG_clean_linker_0, # of connection points: 2
#     Edge 29, Type (0, 1), BuildingBlock: OJICUG_clean_linker_0, # of connection points: 2
#     Edge 30, Type (0, 1), BuildingBlock: OJICUG_clean_linker_0, # of connection points: 2
#     Edge 31, Type (0, 1), BuildingBlock: OJICUG_clean_linker_0, # of connection points: 2
#     Edge 32, Type (0, 1), BuildingBlock: OJICUG_clean_linker_0, # of connection points: 2
#     Edge 33, Type (0, 1), BuildingBlock: OJICUG_clean_linker_0, # of connection points: 2
#     Edge 34, Type (0, 1), BuildingBlock: OJICUG_clean_linker_0, # of connection points: 2
#     Edge 35, Type (0, 1), BuildingBlock: OJICUG_clean_linker_0, # of connection points: 2
#     Edge 36, Type (0, 1), BuildingBlock: OJICUG_clean_linker_0, # of connection points: 2
#     Edge 37, Type (0, 1), BuildingBlock: OJICUG_clean_linker_0, # of connection points: 2
#     Edge 38, Type (0, 1), BuildingBlock: OJICUG_clean_linker_0, # of connection points: 2
#     Edge 39, Type (0, 1), BuildingBlock: OJICUG_clean_linker_0, # of connection points: 2
#     Edge 40, Type (0, 1), BuildingBlock: OJICUG_clean_linker_0, # of connection points: 2
#     Edge 41, Type (0, 1), BuildingBlock: OJICUG_clean_linker_0, # of connection points: 2
#     Edge 42, Type (0, 1), BuildingBlock: OJICUG_clean_linker_0, # of connection points: 2
#     Edge 43, Type (0, 1), BuildingBlock: OJICUG_clean_linker_0, # of connection points: 2
#     Edge 44, Type (0, 1), BuildingBlock: OJICUG_clean_linker_0, # of connection points: 2
#     Edge 45, Type (0, 1), BuildingBlock: OJICUG_clean_linker_0, # of connection points: 2
#     Edge 46, Type (0, 1), BuildingBlock: OJICUG_clean_linker_0, # of connection points: 2
#     Edge 47, Type (0, 1), BuildingBlock: OJICUG_clean_linker_0, # of connection points: 2
# Relax obj value: 0.122
# Max RMSD: 0.153
# Mean RMSD: 0.137
data_MOF--net-wbl--node1-QUQFOY_clean_sbu_3--node2-MUDLON_clean_linker_0--edge1-OJICUG_clean_linker_0
_symmetry_space_group_name_H-M    P1
_symmetry_Int_Tables_number       1
_symmetry_cell_setting            triclinic
loop_
_symmetry_equiv_pos_as_xyz
'x, y, z'
_cell_length_a     43.54579
_cell_length_b     43.954154
_cell_length_c     61.298843
_cell_angle_alpha  90.721704
_cell_angle_beta   90.25975
_cell_angle_gamma 90.031892
loop_
_atom_site_label
_atom_site_type_symbol
_atom_site_fract_x
_atom_site_fract_y
_atom_site_fract_z
_atom_type_partial_charge
H0 H 0.139 0.94853 0.33032 0.0
N1 N 0.09093 0.92692 0.30566 0.0
H2 H 0.14574 0.9434 0.36966 0.0
H3 H 0.05479 0.8971 0.33318 0.0
H4 H 0.06186 0.89123 0.37273 0.0
H5 H 0.11919 0.87321 0.30539 0.0
H6 H 0.16775 0.85974 0.28847 0.0
H7 H 0.1226 0.96117 0.27466 0.0
H8 H 0.17052 0.94743 0.25748 0.0
H9 H 0.11246 0.98532 0.31121 0.0
H10 H 0.03378 0.93246 0.29083 0.0
H11 H 0.08258 0.03178 0.30853 0.0
H12 H 0.00314 0.97904 0.2888 0.0
H13 H 0.95866 0.16063 0.33721 0.0
H14 H 0.94317 0.16548 0.37549 0.0
H15 H 0.92191 0.06935 0.37609 0.0
H16 H 0.93902 0.06452 0.33859 0.0
H17 H 0.91407 0.06648 0.30561 0.0
H18 H 0.8641 0.07334 0.28866 0.0
H19 H 0.88847 0.16558 0.27233 0.0
H20 H 0.93865 0.15869 0.29 0.0
H21 H 0.00927 0.0972 0.33469 0.0
H22 H 0.04336 0.05423 0.32974 0.0
H23 H 0.9937 0.0275 0.27143 0.0
N24 N 0.95801 0.11056 0.31211 0.0
H25 H 0.95914 0.07019 0.27648 0.0
C26 C 0.09608 0.92343 0.32883 0.0
C27 C 0.12181 0.93634 0.33944 0.0
C28 C 0.12569 0.93335 0.36192 0.0
C29 C 0.10421 0.91709 0.37423 0.0
C30 C 0.07879 0.90379 0.36359 0.0
C31 C 0.07469 0.90715 0.3411 0.0
C32 C 0.11754 0.91879 0.29256 0.0
C33 C 0.13016 0.88957 0.29489 0.0
C34 C 0.15788 0.88176 0.28498 0.0
C35 C 0.17346 0.90275 0.27193 0.0
C36 C 0.15965 0.93108 0.26803 0.0
C37 C 0.13199 0.93903 0.27812 0.0
C38 C 0.07533 0.9552 0.30115 0.0
C39 C 0.08878 0.98367 0.30599 0.0
C40 C 0.07156 0.01032 0.30453 0.0
C41 C 0.04031 0.00918 0.29871 0.0
C42 C 0.02723 0.98085 0.29308 0.0
C43 C 0.04463 0.95418 0.29429 0.0
C44 C 0.94984 0.11241 0.33495 0.0
C45 C 0.95092 0.14065 0.34577 0.0
C46 C 0.94182 0.14337 0.36755 0.0
C47 C 0.93118 0.11781 0.37891 0.0
C48 C 0.93039 0.08945 0.36805 0.0
C49 C 0.93974 0.08672 0.3464 0.0
C50 C 0.93034 0.11214 0.29901 0.0
C51 C 0.90894 0.0881 0.29823 0.0
C52 C 0.88035 0.09199 0.28833 0.0
C53 C 0.87229 0.12003 0.27914 0.0
C54 C 0.89393 0.14379 0.27942 0.0
C55 C 0.92267 0.13981 0.28927 0.0
C56 C 0.97963 0.08606 0.30718 0.0
C57 C 0.00527 0.08198 0.32093 0.0
C58 C 0.02519 0.05752 0.31789 0.0
C59 C 0.02086 0.03691 0.30045 0.0
C60 C -0.00302 0.04233 0.2855 0.0
C61 C 0.9769 0.06685 0.28859 0.0
H62 H 0.94217 0.39402 0.57536 0.0
N63 N 0.91333 0.44211 0.55609 0.0
H64 H 0.94035 0.38064 0.61385 0.0
H65 H 0.88496 0.47219 0.58816 0.0
H66 H 0.88266 0.45863 0.62687 0.0
H67 H 0.8586 0.41551 0.55669 0.0
H68 H 0.84399 0.36695 0.54029 0.0
H69 H 0.94538 0.41141 0.52282 0.0
H70 H 0.93055 0.36353 0.50617 0.0
H71 H 0.97392 0.42463 0.55477 0.0
H72 H 0.91274 0.5003 0.54502 0.0
H73 H 0.01777 0.45716 0.54846 0.0
H74 H 0.95679 0.534 0.54051 0.0
H75 H 0.14798 0.58398 0.56885 0.0
H76 H 0.15995 0.59808 0.60677 0.0
H77 H 0.06341 0.61273 0.61904 0.0
H78 H 0.05165 0.5982 0.58133 0.0
H79 H 0.0543 0.63163 0.55076 0.0
H80 H 0.06414 0.68093 0.5346 0.0
H81 H 0.14426 0.64405 0.50237 0.0
H82 H 0.13472 0.59483 0.51942 0.0
H83 H 0.08849 0.52802 0.56767 0.0
H84 H 0.04555 0.49314 0.56665 0.0
H85 H -0.00136 0.55144 0.52097 0.0
N86 N 0.09305 0.58252 0.5496 0.0
H87 H 0.04076 0.58732 0.52318 0.0
C88 C 0.91386 0.43438 0.57893 0.0
C89 C 0.92967 0.40864 0.58653 0.0
C90 C 0.92855 0.40096 0.60854 0.0
C91 C 0.91139 0.41861 0.62335 0.0
C92 C 0.89589 0.4445 0.61577 0.0
C93 C 0.89727 0.45235 0.59377 0.0
C94 C 0.90366 0.41689 0.54212 0.0
C95 C 0.8743 0.40453 0.54543 0.0
C96 C 0.86589 0.37674 0.53589 0.0
C97 C 0.88644 0.36085 0.52231 0.0
C98 C 0.91462 0.37463 0.51721 0.0
C99 C 0.9232 0.40229 0.52696 0.0
C100 C 0.93978 0.4599 0.54996 0.0
C101 C 0.96983 0.44827 0.5511 0.0
C102 C -0.00491 0.46717 0.54777 0.0
C103 C 0.99112 0.49852 0.54426 0.0
C104 C 0.96098 0.50998 0.54277 0.0
C105 C 0.93567 0.49079 0.54546 0.0
C106 C 0.09908 0.58996 0.57226 0.0
C107 C 0.12948 0.59009 0.57981 0.0
C108 C 0.13623 0.59832 0.60139 0.0
C109 C 0.1126 0.60657 0.61586 0.0
C110 C 0.08206 0.60618 0.60834 0.0
C111 C 0.07534 0.59807 0.58675 0.0
C112 C 0.09399 0.6095 0.53639 0.0
C113 C 0.07364 0.63394 0.53991 0.0
C114 C 0.07921 0.66215 0.53047 0.0
C115 C 0.10521 0.66659 0.51735 0.0
C116 C 0.12431 0.64155 0.51269 0.0
C117 C 0.11874 0.61334 0.52219 0.0
C118 C 0.06785 0.56119 0.54639 0.0
C119 C 0.06889 0.53345 0.5575 0.0
C120 C 0.04431 0.5132 0.55663 0.0
C121 C 0.0182 0.51939 0.54384 0.0
C122 C 0.01786 0.54624 0.53154 0.0
C123 C 0.04229 0.56696 0.53281 0.0
H124 H 0.6303 0.45369 0.82693 0.0
N125 N 0.5835 0.43005 0.80162 0.0
H126 H 0.63786 0.4465 0.86578 0.0
H127 H 0.55053 0.39547 0.82809 0.0
H128 H 0.55836 0.38785 0.8674 0.0
H129 H 0.59242 0.37661 0.78216 0.0
H130 H 0.63858 0.35906 0.76324 0.0
H131 H 0.63213 0.46613 0.78894 0.0
H132 H 0.67849 0.44862 0.77159 0.0
H133 H 0.59884 0.48972 0.81088 0.0
H134 H 0.52819 0.43193 0.78335 0.0
H135 H 0.56613 0.5336 0.80681 0.0
H136 H 0.49404 0.47596 0.78063 0.0
H137 H 0.4369 0.66058 0.82192 0.0
H138 H 0.41867 0.67222 0.85888 0.0
H139 H 0.40205 0.57654 0.86914 0.0
H140 H 0.42085 0.5651 0.83255 0.0
H141 H 0.39711 0.56011 0.79834 0.0
H142 H 0.34596 0.56415 0.78242 0.0
H143 H 0.36777 0.65431 0.75977 0.0
H144 H 0.41879 0.65039 0.77649 0.0
H145 H 0.48761 0.594 0.82829 0.0
H146 H 0.52366 0.55253 0.82539 0.0
H147 H 0.48183 0.52395 0.76445 0.0
N148 N 0.43922 0.60636 0.80204 0.0
H149 H 0.44468 0.56485 0.76774 0.0
C150 C 0.58957 0.42521 0.82449 0.0
C151 C 0.6143 0.43937 0.83545 0.0
C152 C 0.61862 0.43532 0.85777 0.0
C153 C 0.59856 0.41682 0.86962 0.0
C154 C 0.57422 0.40216 0.85862 0.0
C155 C 0.5697 0.40651 0.83626 0.0
C156 C 0.60867 0.42249 0.7873 0.0
C157 C 0.61087 0.39258 0.77931 0.0
C158 C 0.63744 0.38254 0.76872 0.0
C159 C 0.66266 0.40221 0.7662 0.0
C160 C 0.65959 0.43276 0.77299 0.0
C161 C 0.63286 0.44285 0.78325 0.0
C162 C 0.56619 0.45725 0.79709 0.0
C163 C 0.57654 0.48635 0.80352 0.0
C164 C 0.55742 0.51161 0.80155 0.0
C165 C 0.52718 0.50837 0.79372 0.0
C166 C 0.51726 0.47944 0.78653 0.0
C167 C 0.53668 0.45421 0.78814 0.0
C168 C 0.43033 0.61212 0.82445 0.0
C169 C 0.4296 0.64218 0.83228 0.0
C170 C 0.41896 0.64876 0.85328 0.0
C171 C 0.40882 0.62528 0.86688 0.0
C172 C 0.40997 0.59508 0.85914 0.0
C173 C 0.4205 0.58854 0.83814 0.0
C174 C 0.41179 0.60514 0.78869 0.0
C175 C 0.39112 0.58055 0.78965 0.0
C176 C 0.36188 0.58282 0.78038 0.0
C177 C 0.35265 0.60971 0.77004 0.0
C178 C 0.37401 0.63349 0.76795 0.0
C179 C 0.40326 0.63119 0.77723 0.0
C180 C 0.46129 0.58162 0.79931 0.0
C181 C 0.48545 0.57851 0.8145 0.0
C182 C 0.50667 0.55496 0.81258 0.0
C183 C 0.50544 0.53446 0.79483 0.0
C184 C 0.48282 0.5387 0.77872 0.0
C185 C 0.46129 0.5622 0.78075 0.0
H186 H 0.46617 0.88872 0.08218 0.0
N187 N 0.44026 0.93594 0.05963 0.0
H188 H 0.46039 0.87839 0.12079 0.0
H189 H 0.4078 0.96754 0.08877 0.0
H190 H 0.40182 0.95715 0.12781 0.0
H191 H 0.38437 0.92224 0.04514 0.0
H192 H 0.36798 0.8757 0.02602 0.0
H193 H 0.47844 0.89176 0.04195 0.0
H194 H 0.46238 0.84546 0.02401 0.0
H195 H 0.50122 0.92226 0.06666 0.0
H196 H 0.43988 0.99072 0.04185 0.0
H197 H 0.54474 0.9543 0.05929 0.0
H198 H 0.48354 0.02478 0.03652 0.0
H199 H 0.67276 0.08389 0.06719 0.0
H200 H 0.6852 0.09962 0.10476 0.0
H201 H 0.58876 0.11416 0.11741 0.0
H202 H 0.57654 0.09806 0.08017 0.0
H203 H 0.57327 0.1244 0.04729 0.0
H204 H 0.57829 0.17328 0.0295 0.0
H205 H 0.66312 0.14313 -9e-05 0.0
H206 H 0.65853 0.09457 0.01878 0.0
H207 H 0.61065 0.03062 0.07364 0.0
H208 H 0.56853 0.99515 0.07433 0.0
H209 H 0.52811 0.03853 0.01814 0.0
N210 N 0.61732 0.07986 0.04868 0.0
H211 H 0.56932 0.0756 0.01844 0.0
C212 C 0.43742 0.92912 0.08251 0.0
C213 C 0.45227 0.90401 0.09191 0.0
C214 C 0.44904 0.89813 0.11409 0.0
C215 C 0.43078 0.91705 0.12734 0.0
C216 C 0.41589 0.94209 0.11795 0.0
C217 C 0.41934 0.9481 0.09574 0.0
C218 C 0.43254 0.91081 0.04519 0.0
C219 C 0.40152 0.90585 0.04002 0.0
C220 C 0.3922 0.87911 0.0293 0.0
C221 C 0.41381 0.85662 0.02365 0.0
C222 C 0.44506 0.86235 0.02782 0.0
C223 C 0.45435 0.88911 0.03837 0.0
C224 C 0.46701 0.95377 0.05435 0.0
C225 C 0.49697 0.94408 0.05935 0.0
C226 C 0.52207 0.96291 0.05553 0.0
C227 C 0.5179 0.99254 0.0476 0.0
C228 C 0.48791 0.00203 0.04232 0.0
C229 C 0.46283 0.9827 0.04551 0.0
C230 C 0.62387 0.0897 0.07085 0.0
C231 C 0.65441 0.09052 0.07811 0.0
C232 C 0.66143 0.09962 0.09949 0.0
C233 C 0.63791 0.108 0.11403 0.0
C234 C 0.60732 0.10746 0.10667 0.0
C235 C 0.60034 0.09855 0.0853 0.0
C236 C 0.61585 0.10592 0.03458 0.0
C237 C 0.59273 0.12811 0.03676 0.0
C238 C 0.59549 0.15602 0.02633 0.0
C239 C 0.62135 0.16235 0.01346 0.0
C240 C 0.64322 0.13924 0.01004 0.0
C241 C 0.64052 0.11138 0.0206 0.0
C242 C 0.59262 0.05752 0.04708 0.0
C243 C 0.5925 0.03302 0.06164 0.0
C244 C 0.56846 0.01218 0.06174 0.0
C245 C 0.5444 0.014 0.04645 0.0
C246 C 0.5456 0.037 0.03069 0.0
C247 C 0.56943 0.05843 0.03091 0.0
H248 H 0.12162 0.56615 0.9236 0.0
N249 N 0.07343 0.59181 0.9461 0.0
H250 H 0.1325 0.57138 0.88501 0.0
H251 H 0.04252 0.62443 0.91706 0.0
H252 H 0.05371 0.63012 0.87804 0.0
H253 H 0.08226 0.64711 0.96279 0.0
H254 H 0.12775 0.66607 0.9822 0.0
H255 H 0.12054 0.55664 0.96264 0.0
H256 H 0.16611 0.57534 0.98059 0.0
H257 H 0.08935 0.53159 0.93991 0.0
H258 H 0.01716 0.59108 0.96252 0.0
H259 H 0.05715 0.48789 0.94576 0.0
H260 H 0.98331 0.54709 0.96663 0.0
H261 H 0.92978 0.35912 0.93217 0.0
H262 H 0.91606 0.34595 0.89436 0.0
H263 H 0.89894 0.44087 0.88145 0.0
H264 H 0.91316 0.45383 0.91895 0.0
H265 H 0.88645 0.45865 0.95181 0.0
H266 H 0.83593 0.45454 0.96843 0.0
H267 H 0.86182 0.36819 0.996 0.0
H268 H 0.91221 0.37213 0.97863 0.0
H269 H 0.98117 0.42307 0.9266 0.0
H270 H 0.01659 0.4652 0.92799 0.0
H271 H 0.96991 0.50163 0.98465 0.0
N272 N 0.93066 0.4142 0.95086 0.0
H273 H 0.93323 0.46017 0.98258 0.0
C274 C 0.08095 0.59479 0.92331 0.0
C275 C 0.1064 0.57995 0.91392 0.0
C276 C 0.11264 0.5829 0.89175 0.0
C277 C 0.09384 0.60099 0.87851 0.0
C278 C 0.06864 0.61611 0.88791 0.0
C279 C 0.06219 0.61286 0.9101 0.0
C280 C 0.09781 0.60058 0.96093 0.0
C281 C 0.10018 0.63125 0.96724 0.0
C282 C 0.12636 0.64207 0.97813 0.0
C283 C 0.15098 0.62239 0.98269 0.0
C284 C 0.14764 0.59125 0.97762 0.0
C285 C 0.12135 0.58044 0.96701 0.0
C286 C 0.05593 0.56494 0.95117 0.0
C287 C 0.06675 0.53543 0.94651 0.0
C288 C 0.04789 0.5102 0.94946 0.0
C289 C 0.01732 0.5138 0.95634 0.0
C290 C 0.00679 0.54327 0.96157 0.0
C291 C 0.02602 0.5685 0.95911 0.0
C292 C 0.92255 0.4073 0.92841 0.0
C293 C 0.9231 0.37699 0.92112 0.0
C294 C 0.91512 0.36955 0.8996 0.0
C295 C 0.90647 0.39241 0.88494 0.0
C296 C 0.90585 0.42281 0.89228 0.0
C297 C 0.91367 0.43021 0.9138 0.0
C298 C 0.90313 0.41551 0.96391 0.0
C299 C 0.88145 0.43904 0.96166 0.0
C300 C 0.8526 0.43676 0.97135 0.0
C301 C 0.84474 0.41089 0.98339 0.0
C302 C 0.86702 0.3882 0.98656 0.0
C303 C 0.89589 0.39052 0.97686 0.0
C304 C 0.95262 0.43911 0.9533 0.0
C305 C 0.97794 0.44035 0.93912 0.0
C306 C -0.00124 0.46436 0.94021 0.0
C307 C -0.00403 0.48728 0.95627 0.0
C308 C 0.97216 0.48498 0.97159 0.0
C309 C 0.95091 0.46108 0.97029 0.0
H310 H 0.52411 0.34302 0.16268 0.0
N311 N 0.52726 0.38847 0.19145 0.0
H312 H 0.54907 0.33952 0.12691 0.0
H313 H 0.5616 0.43312 0.17213 0.0
H314 H 0.58555 0.43008 0.13616 0.0
H315 H 0.58565 0.40188 0.20521 0.0
H316 H 0.61867 0.36861 0.22671 0.0
H317 H 0.50995 0.34007 0.21331 0.0
H318 H 0.54277 0.306 0.23391 0.0
H319 H 0.46767 0.39626 0.18558 0.0
H320 H 0.54849 0.44086 0.21122 0.0
H321 H 0.43808 0.44295 0.19105 0.0
H322 H 0.5191 0.48776 0.21676 0.0
H323 H 0.36245 0.5571 0.16489 0.0
H324 H 0.35804 0.56955 0.12606 0.0
H325 H 0.43918 0.62576 0.13174 0.0
H326 H 0.44358 0.61311 0.17002 0.0
H327 H 0.4537 0.61043 0.20848 0.0
H328 H 0.45069 0.65982 0.22637 0.0
H329 H 0.35191 0.65107 0.22989 0.0
H330 H 0.35514 0.60211 0.21068 0.0
H331 H 0.38726 0.52618 0.21294 0.0
H332 H 0.41753 0.47977 0.21814 0.0
H333 H 0.49647 0.5242 0.19036 0.0
N334 N 0.40457 0.5767 0.1933 0.0
H335 H 0.46641 0.57011 0.18534 0.0
C336 C 0.54054 0.38836 0.16996 0.0
C337 C 0.53731 0.36216 0.15689 0.0
C338 C 0.55162 0.36016 0.1366 0.0
C339 C 0.56905 0.38459 0.12889 0.0
C340 C 0.57194 0.41109 0.14175 0.0
C341 C 0.55815 0.41284 0.16228 0.0
C342 C 0.54526 0.37335 0.20776 0.0
C343 C 0.57589 0.38159 0.21219 0.0
C344 C 0.59485 0.36229 0.22425 0.0
C345 C 0.5836 0.33434 0.23188 0.0
C346 C 0.55231 0.32743 0.22866 0.0
C347 C 0.53341 0.34681 0.21679 0.0
C348 C 0.51016 0.4151 0.19783 0.0
C349 C 0.47881 0.416 0.19282 0.0
C350 C 0.46197 0.44264 0.19605 0.0
C351 C 0.47631 0.46906 0.20428 0.0
C352 C 0.50752 0.4678 0.21022 0.0
C353 C 0.52432 0.44096 0.20713 0.0
C354 C 0.40322 0.58403 0.17043 0.0
C355 C 0.3793 0.57198 0.15764 0.0
C356 C 0.37676 0.57922 0.13556 0.0
C357 C 0.39831 0.5986 0.12584 0.0
C358 C 0.42248 0.61041 0.13864 0.0
C359 C 0.42492 0.60325 0.16068 0.0
C360 C 0.40447 0.60267 0.20788 0.0
C361 C 0.4314 0.61879 0.21329 0.0
C362 C 0.42965 0.64715 0.22376 0.0
C363 C 0.40099 0.65979 0.2293 0.0
C364 C 0.37431 0.64246 0.22536 0.0
C365 C 0.37609 0.61431 0.21463 0.0
C366 C 0.42434 0.55161 0.19876 0.0
C367 C 0.41127 0.52601 0.20841 0.0
C368 C 0.42853 0.49955 0.21127 0.0
C369 C 0.45934 0.49832 0.20457 0.0
C370 C 0.47291 0.52455 0.19594 0.0
C371 C 0.45558 0.55091 0.19298 0.0
H372 H 0.38281 0.9386 0.43304 0.0
N373 N 0.43338 0.92121 0.45659 0.0
H374 H 0.37212 0.92661 0.39476 0.0
H375 H 0.46977 0.89198 0.42834 0.0
H376 H 0.45931 0.88049 0.38962 0.0
H377 H 0.4007 0.86978 0.45762 0.0
H378 H 0.3508 0.86202 0.47395 0.0
H379 H 0.40674 0.95833 0.48887 0.0
H380 H 0.35764 0.94997 0.50599 0.0
H381 H 0.41224 0.97911 0.44963 0.0
H382 H 0.4916 0.92727 0.46885 0.0
H383 H 0.44305 0.02535 0.44932 0.0
H384 H 0.52312 0.97318 0.46762 0.0
H385 H 0.57799 0.15168 0.41619 0.0
H386 H 0.59617 0.15526 0.37876 0.0
H387 H 0.5923 0.05712 0.37246 0.0
H388 H 0.57675 0.05384 0.41032 0.0
H389 H 0.61475 0.05907 0.44038 0.0
H390 H 0.66546 0.06561 0.45675 0.0
H391 H 0.63828 0.15382 0.48198 0.0
H392 H 0.58769 0.14738 0.46481 0.0
H393 H 0.51507 0.08847 0.41952 0.0
H394 H 0.48035 0.04668 0.42681 0.0
H395 H 0.53571 0.02166 0.48242 0.0
N396 N 0.56893 0.10156 0.43922 0.0
H397 H 0.57103 0.06245 0.47473 0.0
C398 C 0.42702 0.91569 0.43368 0.0
C399 C 0.39972 0.92597 0.42375 0.0
C400 C 0.39357 0.91907 0.40191 0.0
C401 C 0.41483 0.9025 0.38942 0.0
C402 C 0.44261 0.89333 0.399 0.0
C403 C 0.44854 0.89974 0.42102 0.0
C404 C 0.40693 0.91549 0.47043 0.0
C405 C 0.39154 0.88745 0.4682 0.0
C406 C 0.36297 0.88289 0.47781 0.0
C407 C 0.3495 0.90583 0.49076 0.0
C408 C 0.36659 0.93239 0.49525 0.0
C409 C 0.39496 0.93722 0.48526 0.0
C410 C 0.44964 0.94965 0.45949 0.0
C411 C 0.43627 0.97773 0.45403 0.0
C412 C 0.45404 0.00417 0.45367 0.0
C413 C 0.48572 0.00306 0.45822 0.0
C414 C 0.49875 0.97511 0.46435 0.0
C415 C 0.48083 0.94877 0.46502 0.0
C416 C 0.5756 0.10269 0.41609 0.0
C417 C 0.58079 0.13103 0.40658 0.0
C418 C 0.59105 0.13295 0.38508 0.0
C419 C 0.59584 0.10646 0.37236 0.0
C420 C 0.58961 0.07804 0.38174 0.0
C421 C 0.58017 0.07612 0.40341 0.0
C422 C 0.59745 0.1029 0.45135 0.0
C423 C 0.61961 0.07969 0.44958 0.0
C424 C 0.64854 0.08339 0.45912 0.0
C425 C 0.65599 0.11032 0.47059 0.0
C426 C 0.63341 0.13299 0.47299 0.0
C427 C 0.60444 0.12928 0.46341 0.0
C428 C 0.54734 0.07775 0.44532 0.0
C429 C 0.52011 0.07378 0.43313 0.0
C430 C 0.49988 0.05004 0.43756 0.0
C431 C 0.50556 0.03023 0.45494 0.0
C432 C 0.53124 0.03572 0.46838 0.0
C433 C 0.55172 0.05926 0.4638 0.0
H434 H 0.06301 0.87606 0.68212 0.0
N435 N 0.07727 0.92824 0.70541 0.0
H436 H 0.07646 0.86473 0.64446 0.0
H437 H 0.10538 0.96452 0.67729 0.0
H438 H 0.11817 0.95336 0.63895 0.0
H439 H 0.13147 0.91972 0.7243 0.0
H440 H 0.14924 0.87409 0.74293 0.0
H441 H 0.04029 0.88174 0.72005 0.0
H442 H 0.05797 0.83584 0.73715 0.0
H443 H 0.01959 0.91047 0.69213 0.0
H444 H 0.07021 0.98183 0.72512 0.0
H445 H 0.97293 0.9405 0.69455 0.0
H446 H 0.0238 0.01308 0.72647 0.0
H447 H 0.84078 0.0672 0.67918 0.0
H448 H 0.83049 0.08541 0.64218 0.0
H449 H 0.92763 0.10065 0.63314 0.0
H450 H 0.9377 0.08191 0.66966 0.0
H451 H 0.94385 0.10372 0.70422 0.0
H452 H 0.94207 0.15527 0.71905 0.0
H453 H 0.84823 0.14079 0.73917 0.0
H454 H 0.84991 0.08931 0.72345 0.0
H455 H 0.9109 0.01776 0.67279 0.0
H456 H 0.95321 0.98289 0.67684 0.0
H457 H 0.97335 0.02135 0.74051 0.0
N458 N 0.89481 0.06482 0.69978 0.0
H459 H 0.93166 0.0574 0.73612 0.0
C460 C 0.08385 0.92108 0.68283 0.0
C461 C 0.07528 0.89311 0.67309 0.0
C462 C 0.08286 0.88661 0.65146 0.0
C463 C 0.09849 0.9081 0.63894 0.0
C464 C 0.10605 0.93645 0.64832 0.0
C465 C 0.09893 0.94277 0.67015 0.0
C466 C 0.08475 0.90423 0.72042 0.0
C467 C 0.11516 0.90182 0.72776 0.0
C468 C 0.12532 0.87554 0.73815 0.0
C469 C 0.10528 0.8508 0.74112 0.0
C470 C 0.07417 0.85431 0.73535 0.0
C471 C 0.06395 0.88079 0.7253 0.0
C472 C 0.0485 0.94385 0.70867 0.0
C473 C 0.02063 0.93243 0.70023 0.0
C474 C 0.99392 0.9499 0.70135 0.0
C475 C 0.99457 0.97944 0.71046 0.0
C476 C 0.02226 0.99032 0.71958 0.0
C477 C 0.04887 0.9726 0.71874 0.0
C478 C 0.88987 0.07304 0.67722 0.0
C479 C 0.85979 0.0741 0.66905 0.0
C480 C 0.85399 0.08475 0.64804 0.0
C481 C 0.87826 0.09453 0.63479 0.0
C482 C 0.90847 0.09297 0.64285 0.0
C483 C 0.91423 0.08246 0.66383 0.0
C484 C 0.8968 0.09263 0.71259 0.0
C485 C 0.92302 0.1114 0.71209 0.0
C486 C 0.92204 0.14089 0.72076 0.0
C487 C 0.89488 0.15229 0.73008 0.0
C488 C 0.86933 0.13287 0.73175 0.0
C489 C 0.87033 0.10336 0.72303 0.0
C490 C 0.9194 0.04272 0.70311 0.0
C491 C 0.92475 0.01954 0.68745 0.0
C492 C 0.94875 -0.00109 0.69 0.0
C493 C 0.96731 -0.00028 0.7088 0.0
C494 C 0.96031 0.02087 0.72543 0.0
C495 C 0.9364 0.04177 0.72278 0.0
C496 C 0.38794 0.63886 0.03657 0.0
O497 O 0.41182 0.64059 0.02483 0.0
Cd498 Cd 0.41214 0.66097 0.98862 0.0
O499 O 0.36205 0.64777 0.0293 0.0
Cd500 Cd 0.34038 0.66952 0.99548 0.0
C501 C 0.38444 0.73253 -0.00021 0.0
O502 O 0.36973 0.6387 0.96941 0.0
O503 O 0.34446 0.67633 0.95608 0.0
O504 O 0.29541 0.63816 0.0026 0.0
C505 C 0.36108 0.65313 0.9527 0.0
O506 O 0.40641 0.71607 0.99272 0.0
C507 C 0.27593 0.65891 -0.00125 0.0
O508 O 0.35837 0.7209 0.00401 0.0
O509 O 0.28645 0.68489 0.99389 0.0
C510 C 0.41429 0.88116 0.21694 0.0
O511 O 0.43744 0.87444 0.22861 0.0
Cd512 Cd 0.4346 0.85391 0.26482 0.0
O513 O 0.38719 0.87702 0.22405 0.0
Cd514 Cd 0.36321 0.85679 0.25732 0.0
C515 C 0.3979 0.78749 0.25327 0.0
O516 O 0.39634 0.88219 0.2845 0.0
O517 O 0.36407 0.84912 0.29655 0.0
O518 O 0.32091 0.89313 0.25473 0.0
C519 C 0.38393 0.86948 0.30069 0.0
O520 O 0.42226 0.79996 0.26066 0.0
C521 C 0.29988 0.8731 0.25418 0.0
O522 O 0.37418 0.80338 0.24917 0.0
O523 O 0.30842 0.84549 0.25434 0.0
C524 C 0.12898 0.90436 0.4664 0.0
O525 O 0.13152 0.92782 0.47858 0.0
Cd526 Cd 0.14881 0.92692 0.51589 0.0
O527 O 0.13502 0.87807 0.47381 0.0
Cd528 Cd 0.15225 0.85549 0.50871 0.0
C529 C 0.21955 0.89489 0.50838 0.0
O530 O 0.12234 0.88697 0.53445 0.0
O531 O 0.15657 0.85709 0.54814 0.0
O532 O 0.11742 0.81249 0.50243 0.0
C533 C 0.13487 0.87578 0.55128 0.0
O534 O 0.20396 0.91835 0.51358 0.0
C535 C 0.13798 0.79219 0.50424 0.0
O536 O 0.20641 0.86944 0.50463 0.0
O537 O 0.1653 0.80142 0.50746 0.0
C538 C 0.12932 0.61412 0.78835 0.0
O539 O 0.13267 0.59079 0.77616 0.0
Cd540 Cd 0.15266 0.59274 0.73967 0.0
O541 O 0.13636 0.64041 0.78145 0.0
Cd542 Cd 0.15689 0.66327 0.74781 0.0
C543 C 0.22326 0.6232 0.75068 0.0
O544 O 0.12747 0.63338 0.72077 0.0
O545 O 0.16431 0.66105 0.70848 0.0
O546 O 0.12311 0.70644 0.75554 0.0
C547 C 0.14167 0.64375 0.70444 0.0
O548 O 0.20803 0.6004 0.74354 0.0
C549 C 0.14356 0.7266 0.7527 0.0
O550 O 0.20985 0.64826 0.75512 0.0
O551 O 0.17036 0.71726 0.74806 0.0
C552 C 0.88121 0.12511 0.46615 0.0
O553 O 0.87865 0.10077 0.47695 0.0
Cd554 Cd 0.85276 0.09774 0.51133 0.0
O555 O 0.87099 0.15022 0.47375 0.0
Cd556 Cd 0.84611 0.17008 0.50731 0.0
C557 C 0.78238 0.12769 0.49759 0.0
O558 O 0.87292 0.13822 0.53341 0.0
O559 O 0.83435 0.16356 0.54603 0.0
O560 O 0.8803 0.21386 0.50695 0.0
C561 C 0.85674 0.1459 0.5497 0.0
O562 O 0.79801 0.10475 0.5036 0.0
C563 C 0.85918 0.23376 0.50687 0.0
O564 O 0.79477 0.15385 0.49624 0.0
O565 O 0.8317 0.22403 0.50667 0.0
C566 C 0.89988 0.37604 0.71187 0.0
O567 O 0.92363 0.37111 0.72338 0.0
Cd568 Cd 0.92149 0.35026 0.75948 0.0
O569 O 0.8733 0.36991 0.71921 0.0
Cd570 Cd 0.85077 0.34878 0.75282 0.0
C571 C 0.8883 0.28164 0.74828 0.0
O572 O 0.88227 0.37651 0.77988 0.0
O573 O 0.85407 0.34007 0.7919 0.0
O574 O 0.8075 0.38334 0.74716 0.0
C575 C 0.87175 0.36228 0.7961 0.0
O576 O 0.91197 0.29567 0.75539 0.0
C577 C 0.78694 0.36331 0.75002 0.0
O578 O 0.86362 0.29604 0.74421 0.0
O579 O 0.7961 0.33641 0.7536 0.0
C580 C 0.62504 0.40208 0.96134 0.0
O581 O 0.62782 0.42534 0.9737 0.0
Cd582 Cd 0.64449 0.42361 0.01112 0.0
O583 O 0.63124 0.37567 0.96847 0.0
Cd584 Cd 0.64997 0.354 0.00316 0.0
C585 C 0.71612 0.39569 0.00356 0.0
O586 O 0.61683 0.38298 0.02833 0.0
O587 O 0.65158 0.35455 0.04287 0.0
O588 O 0.61947 0.30804 0.99571 0.0
C589 C 0.62818 0.37131 0.04537 0.0
O590 O 0.7003 0.41837 0.01002 0.0
C591 C 0.64177 0.28979 -0.00174 0.0
O592 O 0.70312 0.3705 -0.00117 0.0
O593 O 0.66785 0.30156 0.00228 0.0
C594 C 0.64848 0.11628 0.28604 0.0
O595 O 0.6553 0.09269 0.27494 0.0
Cd596 Cd 0.67799 0.09587 0.23934 0.0
O597 O 0.65405 0.14269 0.27875 0.0
Cd598 Cd 0.67673 0.16669 0.24627 0.0
C599 C 0.7453 0.13211 0.25284 0.0
O600 O 0.65119 0.13401 0.219 0.0
O601 O 0.6865 0.16395 0.20715 0.0
O602 O 0.63734 0.20408 0.25451 0.0
C603 C 0.66533 0.145 0.20286 0.0
O604 O 0.73181 0.10843 0.24541 0.0
C605 C 0.65336 0.22728 0.2501 0.0
O606 O 0.73028 0.15651 0.25656 0.0
O607 O 0.68098 0.22255 0.24439 0.0
C608 C 0.21347 0.8662 0.25783 0.0
C609 C 0.20504 0.89596 0.26404 0.0
H610 H 0.25007 0.83564 0.24973 0.0
C611 C 0.22778 0.91872 0.2646 0.0
H612 H 0.19648 0.84824 0.25678 0.0
C613 C 0.25841 0.91157 0.26022 0.0
C614 C 0.26704 0.88146 0.25538 0.0
H615 H 0.22229 0.94181 0.26954 0.0
H616 H 0.27551 0.92939 0.26169 0.0
C617 C 0.24417 0.859 0.25365 0.0
C618 C 0.14487 0.70731 0.51229 0.0
C619 C 0.11406 0.69783 0.51068 0.0
H620 H 0.17659 0.74443 0.51137 0.0
C621 C 0.09164 0.71926 0.50476 0.0
H622 H 0.16271 0.69157 0.5171 0.0
C623 C 0.0996 0.74974 0.5017 0.0
C624 C 0.13016 0.75942 0.50444 0.0
H625 H 0.06778 0.71265 0.50306 0.0
H626 H 0.08162 0.76588 0.4979 0.0
C627 C 0.15282 0.73773 0.50916 0.0
C628 C 0.305 0.64148 0.76776 0.0
C629 C 0.32014 0.61386 0.76328 0.0
H630 H 0.26268 0.66609 0.76736 0.0
C631 C 0.30342 0.58977 0.75372 0.0
H632 H 0.31707 0.66034 0.77544 0.0
C633 C 0.27208 0.59295 0.74928 0.0
C634 C 0.25678 0.62032 0.7543 0.0
H635 H 0.31449 0.56832 0.74986 0.0
H636 H 0.2598 0.57379 0.74218 0.0
C637 C 0.27371 0.64468 0.7633 0.0
C638 C 0.37769 0.81201 0.02375 0.0
C639 C 0.40392 0.82624 0.01525 0.0
H640 H 0.35085 0.77128 0.02544 0.0
C641 C 0.42213 0.81007 0.00018 0.0
H642 H 0.36333 0.82357 0.0356 0.0
C643 C 0.41533 0.77987 0.99474 0.0
C644 C 0.38988 0.76528 0.00398 0.0
H645 H 0.4421 0.82051 0.99293 0.0
H646 H 0.43032 0.7678 0.98355 0.0
C647 C 0.37064 0.78191 0.01806 0.0
C648 C 0.19242 0.66219 0.98228 0.0
C649 C 0.18123 0.63444 0.99029 0.0
H650 H 0.23105 0.69187 0.97896 0.0
C651 C 0.20066 0.61681 0.0035 0.0
H652 H 0.17842 0.67627 0.97184 0.0
C653 C 0.23116 0.62546 0.0071 0.0
C654 C 0.24271 0.65223 -0.00204 0.0
H655 H 0.19266 0.59571 0.01043 0.0
H656 H 0.24595 0.61069 0.01649 0.0
C657 C 0.22276 0.67109 0.98623 0.0
C658 C 0.37485 0.71068 0.22994 0.0
C659 C 0.3988 0.69185 0.23727 0.0
H660 H 0.3557 0.75543 0.22931 0.0
C661 C 0.42161 0.70454 0.25093 0.0
H662 H 0.35718 0.70196 0.21906 0.0
C663 C 0.42107 0.73549 0.25645 0.0
C664 C 0.39752 0.75438 0.24864 0.0
H665 H 0.44011 0.69065 0.25718 0.0
H666 H 0.43928 0.74467 0.26668 0.0
C667 C 0.37412 0.7415 0.23567 0.0
C668 C 0.29779 0.92903 0.4981 0.0
C669 C 0.31686 0.90318 0.49777 0.0
H670 H 0.25237 0.94667 0.50183 0.0
C671 C 0.30372 0.87466 0.50231 0.0
H672 H 0.30673 0.9513 0.49426 0.0
C673 C 0.27218 0.87193 0.50605 0.0
C674 C 0.25317 0.89772 0.50577 0.0
H675 H 0.31768 0.8543 0.50267 0.0
H676 H 0.26266 0.8496 0.50903 0.0
C677 C 0.26643 0.92636 0.50224 0.0
C678 C 0.14602 0.81033 0.7399 0.0
C679 C 0.11725 0.82039 0.74752 0.0
H680 H 0.17701 0.77297 0.73585 0.0
C681 C 0.09879 0.79988 0.7591 0.0
H682 H 0.16076 0.82514 0.73062 0.0
C683 C 0.10787 0.7696 0.76158 0.0
C684 C 0.13585 0.75933 0.7529 0.0
H685 H 0.07684 0.80691 0.76567 0.0
H686 H 0.09258 0.75404 0.76976 0.0
C687 C 0.15531 0.78023 0.74273 0.0
C688 C 0.70304 0.36137 0.76515 0.0
C689 C 0.69303 0.39042 0.7588 0.0
H690 H 0.7404 0.32993 0.76707 0.0
C691 C 0.71353 0.40908 0.74733 0.0
H692 H 0.68824 0.34645 0.77428 0.0
C693 C 0.7438 0.39982 0.74369 0.0
C694 C 0.75408 0.37145 0.75106 0.0
H695 H 0.70649 0.43128 0.74171 0.0
H696 H 0.75938 0.4152 0.73561 0.0
C697 C 0.73313 0.35192 0.76117 0.0
C698 C 0.65685 0.20639 0.00769 0.0
C699 C 0.62718 0.19389 0.00597 0.0
H700 H 0.68474 0.24633 0.0064 0.0
C701 C 0.60289 0.21275 -0.00073 0.0
H702 H 0.67607 0.19274 0.01309 0.0
C703 C 0.60785 0.24374 0.99568 0.0
C704 C 0.63721 0.25645 -0.00136 0.0
H705 H 0.57984 0.20376 0.99744 0.0
H706 H 0.58845 0.25791 0.99138 0.0
C707 C 0.66181 0.23727 0.00401 0.0
C708 C 0.82611 0.10145 0.25839 0.0
C709 C 0.84077 0.12467 0.27045 0.0
H710 H 0.78471 0.08564 0.24331 0.0
C711 C 0.82434 0.1514 0.27543 0.0
H712 H 0.83829 0.0808 0.25398 0.0
C713 C 0.79353 0.1543 0.26921 0.0
C714 C 0.77855 0.13049 0.25793 0.0
H715 H 0.83491 0.1696 0.28488 0.0
H716 H 0.78125 0.1748 0.27381 0.0
C717 C 0.79539 0.1043 0.25223 0.0
C718 C 0.84961 0.31936 0.51062 0.0
C719 C 0.87978 0.32889 0.51544 0.0
H720 H 0.81939 0.2818 0.5041 0.0
C721 C 0.90333 0.30699 0.51563 0.0
H722 H 0.83099 0.33563 0.50997 0.0
C723 C 0.89673 0.27626 0.512 0.0
C724 C 0.86639 0.26661 0.50826 0.0
H725 H 0.92674 0.3133 0.51962 0.0
H726 H 0.9153 0.25995 0.51295 0.0
C727 C 0.84297 0.28852 0.50716 0.0
C728 C 0.70209 0.14373 0.47658 0.0
C729 C 0.68771 0.11531 0.47891 0.0
H730 H 0.74316 0.16994 0.48059 0.0
C731 C 0.70441 0.09134 0.4882 0.0
H732 H 0.69003 0.16256 0.4692 0.0
C733 C 0.735 0.09547 0.49451 0.0
C734 C 0.74958 0.1237 0.49174 0.0
H735 H 0.69387 0.0693 0.49051 0.0
H736 H 0.74727 0.07641 0.5014 0.0
C737 C 0.73265 0.1479 0.48296 0.0
C738 C 0.91733 0.20033 0.74619 0.0
C739 C 0.89249 0.18498 0.73629 0.0
H740 H 0.93554 0.2428 0.75775 0.0
C741 C 0.86593 0.20157 0.73102 0.0
H742 H 0.938 0.18816 0.75067 0.0
C743 C 0.86444 0.23283 0.73517 0.0
C744 C 0.88953 0.2483 0.74461 0.0
H745 H 0.84657 0.19059 0.72304 0.0
H746 H 0.84378 0.24494 0.73059 0.0
C747 C 0.91589 0.23164 0.75028 0.0
C748 C 0.7954 0.43086 -0.00076 0.0
C749 C 0.81265 0.4064 0.99083 0.0
H750 H 0.75148 0.44667 0.01003 0.0
C751 C 0.79831 0.37795 0.98801 0.0
H752 H 0.80587 0.45298 0.00182 0.0
C753 C 0.76721 0.37428 0.99277 0.0
C754 C 0.74967 0.399 0.00044 0.0
H755 H 0.81079 0.35873 0.98128 0.0
H756 H 0.75677 0.35222 0.98985 0.0
C757 C 0.76425 0.4272 0.00402 0.0
C758 C 0.59455 0.28968 0.25598 0.0
C759 C 0.60477 0.31062 0.24043 0.0
H760 H 0.60202 0.24675 0.27124 0.0
C761 C 0.63379 0.30607 0.23086 0.0
H762 H 0.57276 0.29283 0.26414 0.0
C763 C 0.65091 0.27997 0.23538 0.0
C764 C 0.63915 0.25772 0.24927 0.0
H765 H 0.6424 0.32148 0.21868 0.0
H766 H 0.67225 0.2762 0.22674 0.0
C767 C 0.6114 0.26335 0.26017 0.0
C768 C 0.11597 0.93954 0.41104 0.0
C769 C 0.10862 0.91397 0.39807 0.0
H770 H 0.1277 0.95665 0.4428 0.0
C771 C 0.10654 0.88536 0.40791 0.0
H772 H 0.11743 0.9619 0.40388 0.0
C773 C 0.11266 0.88225 0.4302 0.0
C774 C 0.12055 0.90777 0.44312 0.0
H775 H 0.10105 0.86526 0.39825 0.0
H776 H 0.11152 0.8598 0.43724 0.0
C777 C 0.12167 0.93652 0.43335 0.0
C778 C 0.10195 0.60588 0.65611 0.0
C779 C 0.11985 0.61609 0.63862 0.0
H780 H 0.09485 0.60652 0.69068 0.0
C781 C 0.1447 0.63567 0.64297 0.0
H782 H 0.08281 0.59057 0.65327 0.0
C783 C 0.15158 0.64478 0.66433 0.0
C784 C 0.13384 0.63443 0.68184 0.0
H785 H 0.15864 0.64427 0.62982 0.0
H786 H 0.1709 0.6599 0.66711 0.0
C787 C 0.10892 0.61492 0.67752 0.0
C788 C 0.4044 0.61417 0.90681 0.0
C789 C 0.39651 0.63228 0.8889 0.0
H790 H 0.39938 0.60653 0.94103 0.0
C791 C 0.37647 0.65697 0.8921 0.0
H792 H 0.42 0.59515 0.90488 0.0
C793 C 0.36468 0.66349 0.91278 0.0
C794 C 0.37275 0.64553 0.93071 0.0
H795 H 0.3696 0.67106 0.87856 0.0
H796 H 0.34934 0.68272 0.91471 0.0
C797 C 0.39266 0.62074 0.92752 0.0
C798 C 0.45216 0.90147 0.16354 0.0
C799 C 0.42682 0.91005 0.15076 0.0
H800 H 0.46818 0.88594 0.19449 0.0
C801 C 0.39752 0.91062 0.16025 0.0
H802 H 0.47507 0.90119 0.15672 0.0
C803 C 0.39352 0.90184 0.18189 0.0
C804 C 0.41878 0.8925 0.19453 0.0
H805 H 0.37754 0.91693 0.15074 0.0
H806 H 0.37054 0.90189 0.18857 0.0
C807 C 0.44821 0.89289 0.18521 0.0
C808 C 0.10833 0.57856 0.84225 0.0
C809 C 0.10098 0.60426 0.85504 0.0
H810 H 0.1227 0.56146 0.81112 0.0
C811 C 0.10164 0.63312 0.84549 0.0
H812 H 0.1077 0.55601 0.84916 0.0
C813 C 0.11041 0.63631 0.82372 0.0
C814 C 0.11836 0.61065 0.81101 0.0
H815 H 0.09626 0.65332 0.85503 0.0
H816 H 0.11129 0.65893 0.81694 0.0
C817 C 0.11677 0.5817 0.82044 0.0
C818 C 0.42143 0.60875 0.08923 0.0
C819 C 0.39534 0.60721 0.10259 0.0
H820 H 0.43959 0.61974 0.05796 0.0
C821 C 0.36661 0.61509 0.09381 0.0
H822 H 0.44383 0.60243 0.09544 0.0
C823 C 0.36412 0.62496 0.07229 0.0
C824 C 0.39033 0.6271 0.05906 0.0
H825 H 0.34613 0.61444 0.10376 0.0
H826 H 0.3417 0.63133 0.06615 0.0
C827 C 0.41896 0.61854 0.06771 0.0
C828 C 0.42749 0.90084 0.34962 0.0
C829 C 0.40735 0.89388 0.36666 0.0
H830 H 0.43558 0.89896 0.31514 0.0
C831 C 0.37972 0.87869 0.36192 0.0
H832 H 0.44888 0.91264 0.35295 0.0
C833 C 0.37235 0.87046 0.34048 0.0
C834 C 0.39221 0.87779 0.32334 0.0
H835 H 0.36396 0.87293 0.37485 0.0
H836 H 0.35089 0.8587 0.33729 0.0
C837 C 0.41982 0.89314 0.32806 0.0
C838 C 0.10014 0.91924 0.59893 0.0
C839 C 0.1078 0.90029 0.61641 0.0
H840 H 0.10227 0.92602 0.56435 0.0
C841 C 0.12429 0.87342 0.61232 0.0
H842 H 0.08732 0.94002 0.60173 0.0
C843 C 0.13316 0.86565 0.59115 0.0
C844 C 0.12525 0.88433 0.57357 0.0
H845 H 0.1306 0.85856 0.62558 0.0
H846 H 0.146 0.84483 0.58852 0.0
C847 C 0.10853 0.91115 0.57761 0.0
C848 C 0.60293 0.38399 0.90266 0.0
C849 C 0.60324 0.41303 0.89338 0.0
H850 H 0.60974 0.35767 0.93144 0.0
C851 C 0.60917 0.43851 0.90681 0.0
H852 H 0.59856 0.36396 0.89264 0.0
C853 C 0.61537 0.43499 0.92899 0.0
C854 C 0.61609 0.40587 0.9382 0.0
H855 H 0.60918 0.4612 0.90011 0.0
H856 H 0.62031 0.45509 0.9388 0.0
C857 C 0.60947 0.38041 0.92484 0.0
C858 C 0.62739 0.1064 0.15419 0.0
C859 C 0.64517 0.11721 0.13683 0.0
H860 H 0.61992 0.10658 0.18869 0.0
C861 C 0.66972 0.13706 0.14139 0.0
H862 H 0.60854 0.0908 0.15119 0.0
C863 C 0.67623 0.1461 0.16284 0.0
C864 C 0.65843 0.13533 0.18019 0.0
H865 H 0.68361 0.146 0.12832 0.0
H866 H 0.6952 0.16158 0.16581 0.0
C867 C 0.634 0.11532 0.17566 0.0
C868 C 0.92523 0.09716 0.41672 0.0
C869 C 0.92009 0.12066 0.40177 0.0
H870 H 0.91694 0.08007 0.44868 0.0
C871 C 0.90318 0.14631 0.40859 0.0
H872 H 0.93871 0.07737 0.41222 0.0
C873 C 0.89117 0.14808 0.42967 0.0
C874 C 0.89549 0.1241 0.44431 0.0
H875 H 0.89839 0.16466 0.39746 0.0
H876 H 0.87778 0.16789 0.43426 0.0
C877 C 0.91289 0.09876 0.43768 0.0
C878 C 0.87992 0.40858 0.65661 0.0
C879 C 0.90874 0.40927 0.64642 0.0
H880 H 0.85447 0.39739 0.68519 0.0
C881 C 0.93478 0.39987 0.65815 0.0
H882 H 0.85941 0.41541 0.64789 0.0
C883 C 0.93201 0.38964 0.67955 0.0
C884 C 0.90308 0.38828 0.68959 0.0
H885 H 0.95731 0.40039 0.65074 0.0
H886 H 0.9525 0.3823 0.68807 0.0
C887 C 0.87709 0.39806 0.67792 0.0
C888 C 0.62789 0.08552 0.34144 0.0
C889 C 0.60838 0.10842 0.34978 0.0
H890 H 0.65545 0.06988 0.31469 0.0
C891 C 0.60172 0.13356 0.33655 0.0
H892 H 0.63426 0.06614 0.35118 0.0
C893 C 0.61481 0.13611 0.31588 0.0
C894 C 0.63423 0.11323 0.3077 0.0
H895 H 0.5863 0.15133 0.34206 0.0
H896 H 0.60947 0.15588 0.3062 0.0
C897 C 0.64032 0.08773 0.32054 0.0
C898 C 0.84787 0.12756 0.60954 0.0
C899 C 0.87221 0.10711 0.61284 0.0
H900 H 0.82403 0.15607 0.58703 0.0
C901 C 0.89129 0.09945 0.59518 0.0
H902 H 0.83303 0.13422 0.6229 0.0
C903 C 0.88627 0.1121 0.57469 0.0
C904 C 0.86207 0.1327 0.57143 0.0
H905 H 0.91002 0.0835 0.59716 0.0
H906 H 0.90137 0.1057 0.56142 0.0
C907 C 0.84287 0.14026 0.58904 0.0
C908 C 0.90835 0.40233 0.84473 0.0
C909 C 0.89786 0.38459 0.86212 0.0
H910 H 0.90846 0.40912 0.81019 0.0
C911 C 0.8788 0.35949 0.85758 0.0
H912 H 0.92333 0.42163 0.84771 0.0
C913 C 0.87031 0.35233 0.83614 0.0
C914 C 0.8808 0.37004 0.81875 0.0
H915 H 0.87005 0.34562 0.87066 0.0
H916 H 0.85547 0.3329 0.83321 0.0
C917 C 0.89996 0.39508 0.82325 0.0
C918 C 0.60501 0.35764 0.10374 0.0
C919 C 0.58487 0.38197 0.10771 0.0
H920 H 0.63496 0.33556 0.08096 0.0
C921 C 0.57962 0.40335 0.0913 0.0
H922 H 0.6095 0.341 0.11625 0.0
C923 C 0.59376 0.39999 0.07096 0.0
C924 C 0.61388 0.37558 0.06696 0.0
H925 H 0.5641 0.42224 0.09406 0.0
H926 H 0.589 0.41648 0.05841 0.0
C927 C 0.61964 0.35465 0.08362 0.0
loop_
_geom_bond_atom_site_label_1
_geom_bond_atom_site_label_2
_geom_bond_distance
_geom_bond_site_symmetry_2
_ccdc_geom_bond_type
H0 C27 0.929 . S
N1 C26 1.433 . S
N1 C32 1.435 . S
N1 C38 1.423 . S
H2 C28 0.930 . S
H3 C31 0.931 . S
H4 C30 0.929 . S
H5 C33 0.930 . S
H6 C34 0.932 . S
H7 C37 0.929 . S
H8 C36 0.931 . S
H9 C39 0.926 1_545 S
H10 C43 0.932 . S
H11 C40 0.931 . S
H12 C42 0.929 . S
H13 C45 0.929 . S
H14 C46 0.930 . S
H15 C48 0.929 . S
H16 C49 0.931 . S
H17 C51 0.930 . S
H18 C52 0.932 . S
H19 C54 0.931 . S
H20 C55 0.929 . S
H21 C57 0.929 . S
H22 C58 0.931 . S
H23 C60 0.929 . S
N24 C44 1.433 . S
N24 C50 1.435 . S
N24 C56 1.423 . S
H25 C61 0.932 . S
C26 N1 1.433 . S
C26 C27 1.363 . S
C26 C31 1.370 . S
C27 H0 0.929 . S
C27 C26 1.363 . S
C27 C28 1.385 . S
C28 H2 0.930 . S
C28 C27 1.385 . S
C28 C29 1.357 . S
C29 C28 1.357 . S
C29 C30 1.406 . S
C30 H4 0.929 . S
C30 C29 1.406 . S
C30 C31 1.391 . S
C31 H3 0.931 . S
C31 C26 1.370 . S
C31 C30 1.391 . S
C32 N1 1.435 . S
C32 C33 1.358 . S
C32 C37 1.371 . S
C33 H5 0.930 . S
C33 C32 1.358 . S
C33 C34 1.405 . S
C34 H6 0.932 . S
C34 C33 1.405 . S
C34 C35 1.383 . S
C35 C34 1.383 . S
C35 C36 1.393 . S
C36 H8 0.931 . S
C36 C35 1.393 . S
C36 C37 1.382 . S
C37 H7 0.929 . S
C37 C32 1.371 . S
C37 C36 1.382 . S
C38 N1 1.423 . S
C38 C39 1.384 . S
C38 C43 1.388 . S
C39 H9 0.926 1_565 S
C39 C38 1.384 . S
C39 C40 1.359 1_565 S
C40 H11 0.931 . S
C40 C39 1.359 1_545 S
C40 C41 1.396 . S
C41 C40 1.396 . S
C41 C42 1.348 1_545 S
C41 C59 1.472 . S
C42 H12 0.929 . S
C42 C41 1.348 1_565 S
C42 C43 1.443 . S
C43 H10 0.932 . S
C43 C38 1.388 . S
C43 C42 1.443 . S
C44 N24 1.433 . S
C44 C45 1.363 . S
C44 C49 1.370 . S
C45 H13 0.929 . S
C45 C44 1.363 . S
C45 C46 1.385 . S
C46 H14 0.930 . S
C46 C45 1.385 . S
C46 C47 1.357 . S
C47 C46 1.357 . S
C47 C48 1.406 . S
C48 H15 0.929 . S
C48 C47 1.406 . S
C48 C49 1.391 . S
C49 H16 0.931 . S
C49 C44 1.370 . S
C49 C48 1.391 . S
C50 N24 1.435 . S
C50 C51 1.358 . S
C50 C55 1.371 . S
C51 H17 0.930 . S
C51 C50 1.358 . S
C51 C52 1.405 . S
C52 H18 0.932 . S
C52 C51 1.405 . S
C52 C53 1.383 . S
C53 C52 1.383 . S
C53 C54 1.393 . S
C54 H19 0.931 . S
C54 C53 1.393 . S
C54 C55 1.382 . S
C55 H20 0.929 . S
C55 C50 1.371 . S
C55 C54 1.382 . S
C56 N24 1.423 . S
C56 C57 1.362 . S
C56 C61 1.388 . S
C57 H21 0.929 . S
C57 C56 1.362 . S
C57 C58 1.376 1_655 S
C58 H22 0.931 . S
C58 C57 1.376 1_455 S
C58 C59 1.396 . S
C59 C41 1.472 . S
C59 C58 1.396 . S
C59 C60 1.348 1_455 S
C60 H23 0.929 . S
C60 C59 1.348 1_655 S
C60 C61 1.443 . S
C61 H25 0.932 . S
C61 C56 1.388 . S
C61 C60 1.443 . S
H62 C89 0.929 . S
N63 C88 1.433 . S
N63 C94 1.435 . S
N63 C100 1.423 . S
H64 C90 0.930 . S
H65 C93 0.931 . S
H66 C92 0.929 . S
H67 C95 0.930 . S
H68 C96 0.932 . S
H69 C99 0.929 . S
H70 C98 0.931 . S
H71 C101 0.929 . S
H72 C105 0.932 . S
H73 C102 0.931 . S
H74 C104 0.929 . S
H75 C107 0.929 . S
H76 C108 0.930 . S
H77 C110 0.929 . S
H78 C111 0.931 . S
H79 C113 0.930 . S
H80 C114 0.932 . S
H81 C116 0.931 . S
H82 C117 0.929 . S
H83 C119 0.929 . S
H84 C120 0.931 . S
H85 C122 0.929 . S
N86 C106 1.433 . S
N86 C112 1.435 . S
N86 C118 1.423 . S
H87 C123 0.932 . S
C88 N63 1.433 . S
C88 C89 1.363 . S
C88 C93 1.370 . S
C89 H62 0.929 . S
C89 C88 1.363 . S
C89 C90 1.385 . S
C90 H64 0.930 . S
C90 C89 1.385 . S
C90 C91 1.357 . S
C91 C90 1.357 . S
C91 C92 1.406 . S
C92 H66 0.929 . S
C92 C91 1.406 . S
C92 C93 1.391 . S
C93 H65 0.931 . S
C93 C88 1.370 . S
C93 C92 1.391 . S
C94 N63 1.435 . S
C94 C95 1.358 . S
C94 C99 1.371 . S
C95 H67 0.930 . S
C95 C94 1.358 . S
C95 C96 1.405 . S
C96 H68 0.932 . S
C96 C95 1.405 . S
C96 C97 1.383 . S
C97 C96 1.383 . S
C97 C98 1.393 . S
C98 H70 0.931 . S
C98 C97 1.393 . S
C98 C99 1.382 . S
C99 H69 0.929 . S
C99 C94 1.371 . S
C99 C98 1.382 . S
C100 N63 1.423 . S
C100 C101 1.362 1_655 S
C100 C105 1.388 . S
C101 H71 0.929 . S
C101 C100 1.362 1_455 S
C101 C102 1.376 . S
C102 H73 0.931 . S
C102 C101 1.376 . S
C102 C103 1.396 . S
C103 C102 1.396 . S
C103 C104 1.348 1_455 S
C103 C121 1.472 . S
C104 H74 0.929 . S
C104 C103 1.348 1_655 S
C104 C105 1.443 . S
C105 H72 0.932 . S
C105 C100 1.388 . S
C105 C104 1.443 . S
C106 N86 1.433 . S
C106 C107 1.363 . S
C106 C111 1.370 . S
C107 H75 0.929 . S
C107 C106 1.363 . S
C107 C108 1.385 . S
C108 H76 0.930 . S
C108 C107 1.385 . S
C108 C109 1.357 . S
C109 C108 1.357 . S
C109 C110 1.406 . S
C110 H77 0.929 . S
C110 C109 1.406 . S
C110 C111 1.391 . S
C111 H78 0.931 . S
C111 C106 1.370 . S
C111 C110 1.391 . S
C112 N86 1.435 . S
C112 C113 1.358 . S
C112 C117 1.371 . S
C113 H79 0.930 . S
C113 C112 1.358 . S
C113 C114 1.405 . S
C114 H80 0.932 . S
C114 C113 1.405 . S
C114 C115 1.383 . S
C115 C114 1.383 . S
C115 C116 1.393 . S
C116 H81 0.931 . S
C116 C115 1.393 . S
C116 C117 1.382 . S
C117 H82 0.929 . S
C117 C112 1.371 . S
C117 C116 1.382 . S
C118 N86 1.423 . S
C118 C119 1.362 . S
C118 C123 1.388 . S
C119 H83 0.929 . S
C119 C118 1.362 . S
C119 C120 1.376 . S
C120 H84 0.931 . S
C120 C119 1.376 . S
C120 C121 1.396 . S
C121 C103 1.472 . S
C121 C120 1.396 . S
C121 C122 1.348 . S
C122 H85 0.929 . S
C122 C121 1.348 . S
C122 C123 1.443 . S
C123 H87 0.932 . S
C123 C118 1.388 . S
C123 C122 1.443 . S
H124 C151 0.929 . S
N125 C150 1.433 . S
N125 C156 1.435 . S
N125 C162 1.423 . S
H126 C152 0.930 . S
H127 C155 0.931 . S
H128 C154 0.929 . S
H129 C157 0.930 . S
H130 C158 0.932 . S
H131 C161 0.929 . S
H132 C160 0.931 . S
H133 C163 0.929 . S
H134 C167 0.932 . S
H135 C164 0.931 . S
H136 C166 0.929 . S
H137 C169 0.929 . S
H138 C170 0.930 . S
H139 C172 0.929 . S
H140 C173 0.931 . S
H141 C175 0.930 . S
H142 C176 0.932 . S
H143 C178 0.931 . S
H144 C179 0.929 . S
H145 C181 0.929 . S
H146 C182 0.931 . S
H147 C184 0.929 . S
N148 C168 1.433 . S
N148 C174 1.435 . S
N148 C180 1.423 . S
H149 C185 0.932 . S
C150 N125 1.433 . S
C150 C151 1.363 . S
C150 C155 1.370 . S
C151 H124 0.929 . S
C151 C150 1.363 . S
C151 C152 1.385 . S
C152 H126 0.930 . S
C152 C151 1.385 . S
C152 C153 1.357 . S
C153 C152 1.357 . S
C153 C154 1.406 . S
C154 H128 0.929 . S
C154 C153 1.406 . S
C154 C155 1.391 . S
C155 H127 0.931 . S
C155 C150 1.370 . S
C155 C154 1.391 . S
C156 N125 1.435 . S
C156 C157 1.358 . S
C156 C161 1.371 . S
C157 H129 0.930 . S
C157 C156 1.358 . S
C157 C158 1.405 . S
C158 H130 0.932 . S
C158 C157 1.405 . S
C158 C159 1.383 . S
C159 C158 1.383 . S
C159 C160 1.393 . S
C160 H132 0.931 . S
C160 C159 1.393 . S
C160 C161 1.382 . S
C161 H131 0.929 . S
C161 C156 1.371 . S
C161 C160 1.382 . S
C162 N125 1.423 . S
C162 C163 1.362 . S
C162 C167 1.388 . S
C163 H133 0.929 . S
C163 C162 1.362 . S
C163 C164 1.376 . S
C164 H135 0.931 . S
C164 C163 1.376 . S
C164 C165 1.396 . S
C165 C164 1.396 . S
C165 C166 1.348 . S
C165 C183 1.472 . S
C166 H136 0.929 . S
C166 C165 1.348 . S
C166 C167 1.443 . S
C167 H134 0.932 . S
C167 C162 1.388 . S
C167 C166 1.443 . S
C168 N148 1.433 . S
C168 C169 1.363 . S
C168 C173 1.370 . S
C169 H137 0.929 . S
C169 C168 1.363 . S
C169 C170 1.385 . S
C170 H138 0.930 . S
C170 C169 1.385 . S
C170 C171 1.357 . S
C171 C170 1.357 . S
C171 C172 1.406 . S
C172 H139 0.929 . S
C172 C171 1.406 . S
C172 C173 1.391 . S
C173 H140 0.931 . S
C173 C168 1.370 . S
C173 C172 1.391 . S
C174 N148 1.435 . S
C174 C175 1.358 . S
C174 C179 1.371 . S
C175 H141 0.930 . S
C175 C174 1.358 . S
C175 C176 1.405 . S
C176 H142 0.932 . S
C176 C175 1.405 . S
C176 C177 1.383 . S
C177 C176 1.383 . S
C177 C178 1.393 . S
C178 H143 0.931 . S
C178 C177 1.393 . S
C178 C179 1.382 . S
C179 H144 0.929 . S
C179 C174 1.371 . S
C179 C178 1.382 . S
C180 N148 1.423 . S
C180 C181 1.362 . S
C180 C185 1.388 . S
C181 H145 0.929 . S
C181 C180 1.362 . S
C181 C182 1.376 . S
C182 H146 0.931 . S
C182 C181 1.376 . S
C182 C183 1.396 . S
C183 C165 1.472 . S
C183 C182 1.396 . S
C183 C184 1.348 . S
C184 H147 0.929 . S
C184 C183 1.348 . S
C184 C185 1.443 . S
C185 H149 0.932 . S
C185 C180 1.388 . S
C185 C184 1.443 . S
H186 C213 0.929 . S
N187 C212 1.433 . S
N187 C218 1.435 . S
N187 C224 1.423 . S
H188 C214 0.930 . S
H189 C217 0.931 . S
H190 C216 0.929 . S
H191 C219 0.930 . S
H192 C220 0.932 . S
H193 C223 0.929 . S
H194 C222 0.931 1_556 S
H195 C225 0.929 . S
H196 C229 0.932 . S
H197 C226 0.931 . S
H198 C228 0.929 . S
H199 C231 0.929 . S
H200 C232 0.930 . S
H201 C234 0.929 . S
H202 C235 0.931 . S
H203 C237 0.930 . S
H204 C238 0.932 . S
H205 C240 0.931 1_556 S
H206 C241 0.929 . S
H207 C243 0.929 . S
H208 C244 0.931 1_565 S
H209 C246 0.929 . S
N210 C230 1.433 . S
N210 C236 1.435 . S
N210 C242 1.423 . S
H211 C247 0.932 . S
C212 N187 1.433 . S
C212 C213 1.363 . S
C212 C217 1.370 . S
C213 H186 0.929 . S
C213 C212 1.363 . S
C213 C214 1.385 . S
C214 H188 0.930 . S
C214 C213 1.385 . S
C214 C215 1.357 . S
C215 C214 1.357 . S
C215 C216 1.406 . S
C216 H190 0.929 . S
C216 C215 1.406 . S
C216 C217 1.391 . S
C217 H189 0.931 . S
C217 C212 1.370 . S
C217 C216 1.391 . S
C218 N187 1.435 . S
C218 C219 1.358 . S
C218 C223 1.371 . S
C219 H191 0.930 . S
C219 C218 1.358 . S
C219 C220 1.405 . S
C220 H192 0.932 . S
C220 C219 1.405 . S
C220 C221 1.383 . S
C221 C220 1.383 . S
C221 C222 1.393 . S
C222 H194 0.931 1_554 S
C222 C221 1.393 . S
C222 C223 1.382 . S
C223 H193 0.929 . S
C223 C218 1.371 . S
C223 C222 1.382 . S
C224 N187 1.423 . S
C224 C225 1.362 . S
C224 C229 1.388 . S
C225 H195 0.929 . S
C225 C224 1.362 . S
C225 C226 1.376 . S
C226 H197 0.931 . S
C226 C225 1.376 . S
C226 C227 1.396 . S
C227 C226 1.396 . S
C227 C228 1.348 . S
C227 C245 1.472 1_565 S
C228 H198 0.929 . S
C228 C227 1.348 . S
C228 C229 1.443 . S
C229 H196 0.932 . S
C229 C224 1.388 . S
C229 C228 1.443 . S
C230 N210 1.433 . S
C230 C231 1.363 . S
C230 C235 1.370 . S
C231 H199 0.929 . S
C231 C230 1.363 . S
C231 C232 1.385 . S
C232 H200 0.930 . S
C232 C231 1.385 . S
C232 C233 1.357 . S
C233 C232 1.357 . S
C233 C234 1.406 . S
C234 H201 0.929 . S
C234 C233 1.406 . S
C234 C235 1.391 . S
C235 H202 0.931 . S
C235 C230 1.370 . S
C235 C234 1.391 . S
C236 N210 1.435 . S
C236 C237 1.358 . S
C236 C241 1.371 . S
C237 H203 0.930 . S
C237 C236 1.358 . S
C237 C238 1.405 . S
C238 H204 0.932 . S
C238 C237 1.405 . S
C238 C239 1.383 . S
C239 C238 1.383 . S
C239 C240 1.393 . S
C240 H205 0.931 1_554 S
C240 C239 1.393 . S
C240 C241 1.382 . S
C241 H206 0.929 . S
C241 C236 1.371 . S
C241 C240 1.382 . S
C242 N210 1.423 . S
C242 C243 1.362 . S
C242 C247 1.388 . S
C243 H207 0.929 . S
C243 C242 1.362 . S
C243 C244 1.376 . S
C244 H208 0.931 1_545 S
C244 C243 1.376 . S
C244 C245 1.396 . S
C245 C227 1.472 1_545 S
C245 C244 1.396 . S
C245 C246 1.348 . S
C246 H209 0.929 . S
C246 C245 1.348 . S
C246 C247 1.443 . S
C247 H211 0.932 . S
C247 C242 1.388 . S
C247 C246 1.443 . S
H248 C275 0.929 . S
N249 C274 1.433 . S
N249 C280 1.435 . S
N249 C286 1.423 . S
H250 C276 0.930 . S
H251 C279 0.931 . S
H252 C278 0.929 . S
H253 C281 0.930 . S
H254 C282 0.932 . S
H255 C285 0.929 . S
H256 C284 0.928 1_554 S
H257 C287 0.929 . S
H258 C291 0.932 . S
H259 C288 0.931 . S
H260 C290 0.929 . S
H261 C293 0.929 . S
H262 C294 0.930 . S
H263 C296 0.929 . S
H264 C297 0.931 . S
H265 C299 0.930 . S
H266 C300 0.932 . S
H267 C302 0.931 1_554 S
H268 C303 0.929 . S
H269 C305 0.929 . S
H270 C306 0.905 1_455 S
H271 C308 0.929 . S
N272 C292 1.433 . S
N272 C298 1.435 . S
N272 C304 1.423 . S
H273 C309 0.932 . S
C274 N249 1.433 . S
C274 C275 1.363 . S
C274 C279 1.370 . S
C275 H248 0.929 . S
C275 C274 1.363 . S
C275 C276 1.385 . S
C276 H250 0.930 . S
C276 C275 1.385 . S
C276 C277 1.357 . S
C277 C276 1.357 . S
C277 C278 1.406 . S
C278 H252 0.929 . S
C278 C277 1.406 . S
C278 C279 1.391 . S
C279 H251 0.931 . S
C279 C274 1.370 . S
C279 C278 1.391 . S
C280 N249 1.435 . S
C280 C281 1.358 . S
C280 C285 1.371 . S
C281 H253 0.930 . S
C281 C280 1.358 . S
C281 C282 1.405 . S
C282 H254 0.932 . S
C282 C281 1.405 . S
C282 C283 1.396 . S
C283 C282 1.396 . S
C283 C284 1.393 . S
C284 H256 0.928 1_556 S
C284 C283 1.393 . S
C284 C285 1.385 . S
C285 H255 0.929 . S
C285 C280 1.371 . S
C285 C284 1.385 . S
C286 N249 1.423 . S
C286 C287 1.362 . S
C286 C291 1.388 . S
C287 H257 0.929 . S
C287 C286 1.362 . S
C287 C288 1.376 . S
C288 H259 0.931 . S
C288 C287 1.376 . S
C288 C289 1.396 . S
C289 C288 1.396 . S
C289 C290 1.348 . S
C289 C307 1.472 . S
C290 H260 0.929 . S
C290 C289 1.348 . S
C290 C291 1.443 . S
C291 H258 0.932 . S
C291 C286 1.388 . S
C291 C290 1.443 . S
C292 N272 1.433 . S
C292 C293 1.363 . S
C292 C297 1.370 . S
C293 H261 0.929 . S
C293 C292 1.363 . S
C293 C294 1.385 . S
C294 H262 0.930 . S
C294 C293 1.385 . S
C294 C295 1.357 . S
C295 C294 1.357 . S
C295 C296 1.406 . S
C296 H263 0.929 . S
C296 C295 1.406 . S
C296 C297 1.391 . S
C297 H264 0.931 . S
C297 C292 1.370 . S
C297 C296 1.391 . S
C298 N272 1.435 . S
C298 C299 1.358 . S
C298 C303 1.371 . S
C299 H265 0.930 . S
C299 C298 1.358 . S
C299 C300 1.405 . S
C300 H266 0.932 . S
C300 C299 1.405 . S
C300 C301 1.383 . S
C301 C300 1.383 . S
C301 C302 1.393 . S
C302 H267 0.931 1_556 S
C302 C301 1.393 . S
C302 C303 1.382 . S
C303 H268 0.929 . S
C303 C298 1.371 . S
C303 C302 1.382 . S
C304 N272 1.423 . S
C304 C305 1.362 . S
C304 C309 1.388 . S
C305 H269 0.929 . S
C305 C304 1.362 . S
C305 C306 1.406 . S
C306 H270 0.905 1_655 S
C306 C305 1.406 . S
C306 C307 1.393 1_655 S
C307 C289 1.472 . S
C307 C306 1.393 1_455 S
C307 C308 1.348 1_455 S
C308 H271 0.929 . S
C308 C307 1.348 1_655 S
C308 C309 1.443 . S
C309 H273 0.932 . S
C309 C304 1.388 . S
C309 C308 1.443 . S
H310 C337 0.929 . S
N311 C336 1.433 . S
N311 C342 1.435 . S
N311 C348 1.423 . S
H312 C338 0.930 . S
H313 C341 0.931 . S
H314 C340 0.929 . S
H315 C343 0.930 . S
H316 C344 0.932 . S
H317 C347 0.929 . S
H318 C346 0.931 . S
H319 C349 0.929 . S
H320 C353 0.932 . S
H321 C350 0.931 . S
H322 C352 0.929 . S
H323 C355 0.929 . S
H324 C356 0.930 . S
H325 C358 0.929 . S
H326 C359 0.931 . S
H327 C361 0.930 . S
H328 C362 0.932 . S
H329 C364 0.931 . S
H330 C365 0.929 . S
H331 C367 0.929 . S
H332 C368 0.931 . S
H333 C370 0.929 . S
N334 C354 1.433 . S
N334 C360 1.435 . S
N334 C366 1.423 . S
H335 C371 0.932 . S
C336 N311 1.433 . S
C336 C337 1.363 . S
C336 C341 1.370 . S
C337 H310 0.929 . S
C337 C336 1.363 . S
C337 C338 1.385 . S
C338 H312 0.930 . S
C338 C337 1.385 . S
C338 C339 1.357 . S
C339 C338 1.357 . S
C339 C340 1.406 . S
C340 H314 0.929 . S
C340 C339 1.406 . S
C340 C341 1.391 . S
C341 H313 0.931 . S
C341 C336 1.370 . S
C341 C340 1.391 . S
C342 N311 1.435 . S
C342 C343 1.358 . S
C342 C347 1.371 . S
C343 H315 0.930 . S
C343 C342 1.358 . S
C343 C344 1.405 . S
C344 H316 0.932 . S
C344 C343 1.405 . S
C344 C345 1.383 . S
C345 C344 1.383 . S
C345 C346 1.393 . S
C346 H318 0.931 . S
C346 C345 1.393 . S
C346 C347 1.382 . S
C347 H317 0.929 . S
C347 C342 1.371 . S
C347 C346 1.382 . S
C348 N311 1.423 . S
C348 C349 1.362 . S
C348 C353 1.388 . S
C349 H319 0.929 . S
C349 C348 1.362 . S
C349 C350 1.376 . S
C350 H321 0.931 . S
C350 C349 1.376 . S
C350 C351 1.396 . S
C351 C350 1.396 . S
C351 C352 1.348 . S
C351 C369 1.472 . S
C352 H322 0.929 . S
C352 C351 1.348 . S
C352 C353 1.443 . S
C353 H320 0.932 . S
C353 C348 1.388 . S
C353 C352 1.443 . S
C354 N334 1.433 . S
C354 C355 1.363 . S
C354 C359 1.370 . S
C355 H323 0.929 . S
C355 C354 1.363 . S
C355 C356 1.385 . S
C356 H324 0.930 . S
C356 C355 1.385 . S
C356 C357 1.357 . S
C357 C356 1.357 . S
C357 C358 1.406 . S
C358 H325 0.929 . S
C358 C357 1.406 . S
C358 C359 1.391 . S
C359 H326 0.931 . S
C359 C354 1.370 . S
C359 C358 1.391 . S
C360 N334 1.435 . S
C360 C361 1.358 . S
C360 C365 1.371 . S
C361 H327 0.930 . S
C361 C360 1.358 . S
C361 C362 1.405 . S
C362 H328 0.932 . S
C362 C361 1.405 . S
C362 C363 1.383 . S
C363 C362 1.383 . S
C363 C364 1.393 . S
C364 H329 0.931 . S
C364 C363 1.393 . S
C364 C365 1.382 . S
C365 H330 0.929 . S
C365 C360 1.371 . S
C365 C364 1.382 . S
C366 N334 1.423 . S
C366 C367 1.362 . S
C366 C371 1.388 . S
C367 H331 0.929 . S
C367 C366 1.362 . S
C367 C368 1.376 . S
C368 H332 0.931 . S
C368 C367 1.376 . S
C368 C369 1.396 . S
C369 C351 1.472 . S
C369 C368 1.396 . S
C369 C370 1.348 . S
C370 H333 0.929 . S
C370 C369 1.348 . S
C370 C371 1.443 . S
C371 H335 0.932 . S
C371 C366 1.388 . S
C371 C370 1.443 . S
H372 C399 0.929 . S
N373 C398 1.433 . S
N373 C404 1.435 . S
N373 C410 1.423 . S
H374 C400 0.930 . S
H375 C403 0.931 . S
H376 C402 0.929 . S
H377 C405 0.930 . S
H378 C406 0.932 . S
H379 C409 0.929 . S
H380 C408 0.931 . S
H381 C411 0.928 1_545 S
H382 C415 0.932 . S
H383 C412 0.931 . S
H384 C414 0.929 . S
H385 C417 0.929 . S
H386 C418 0.930 . S
H387 C420 0.929 . S
H388 C421 0.931 . S
H389 C423 0.930 . S
H390 C424 0.932 . S
H391 C426 0.931 . S
H392 C427 0.929 . S
H393 C429 0.929 . S
H394 C430 0.931 . S
H395 C432 0.929 . S
N396 C416 1.433 . S
N396 C422 1.435 . S
N396 C428 1.423 . S
H397 C433 0.932 . S
C398 N373 1.433 . S
C398 C399 1.363 . S
C398 C403 1.370 . S
C399 H372 0.929 . S
C399 C398 1.363 . S
C399 C400 1.385 . S
C400 H374 0.930 . S
C400 C399 1.385 . S
C400 C401 1.357 . S
C401 C400 1.357 . S
C401 C402 1.406 . S
C402 H376 0.929 . S
C402 C401 1.406 . S
C402 C403 1.391 . S
C403 H375 0.931 . S
C403 C398 1.370 . S
C403 C402 1.391 . S
C404 N373 1.435 . S
C404 C405 1.358 . S
C404 C409 1.371 . S
C405 H377 0.930 . S
C405 C404 1.358 . S
C405 C406 1.405 . S
C406 H378 0.932 . S
C406 C405 1.405 . S
C406 C407 1.383 . S
C407 C406 1.383 . S
C407 C408 1.393 . S
C408 H380 0.931 . S
C408 C407 1.393 . S
C408 C409 1.382 . S
C409 H379 0.929 . S
C409 C404 1.371 . S
C409 C408 1.382 . S
C410 N373 1.423 . S
C410 C411 1.366 . S
C410 C415 1.388 . S
C411 H381 0.928 1_565 S
C411 C410 1.366 . S
C411 C412 1.374 1_565 S
C412 H383 0.931 . S
C412 C411 1.374 1_545 S
C412 C413 1.396 . S
C413 C412 1.396 . S
C413 C414 1.348 1_545 S
C413 C431 1.472 . S
C414 H384 0.929 . S
C414 C413 1.348 1_565 S
C414 C415 1.443 . S
C415 H382 0.932 . S
C415 C410 1.388 . S
C415 C414 1.443 . S
C416 N396 1.433 . S
C416 C417 1.363 . S
C416 C421 1.370 . S
C417 H385 0.929 . S
C417 C416 1.363 . S
C417 C418 1.385 . S
C418 H386 0.930 . S
C418 C417 1.385 . S
C418 C419 1.357 . S
C419 C418 1.357 . S
C419 C420 1.406 . S
C420 H387 0.929 . S
C420 C419 1.406 . S
C420 C421 1.391 . S
C421 H388 0.931 . S
C421 C416 1.370 . S
C421 C420 1.391 . S
C422 N396 1.435 . S
C422 C423 1.358 . S
C422 C427 1.371 . S
C423 H389 0.930 . S
C423 C422 1.358 . S
C423 C424 1.405 . S
C424 H390 0.932 . S
C424 C423 1.405 . S
C424 C425 1.383 . S
C425 C424 1.383 . S
C425 C426 1.393 . S
C426 H391 0.931 . S
C426 C425 1.393 . S
C426 C427 1.382 . S
C427 H392 0.929 . S
C427 C422 1.371 . S
C427 C426 1.382 . S
C428 N396 1.423 . S
C428 C429 1.362 . S
C428 C433 1.388 . S
C429 H393 0.929 . S
C429 C428 1.362 . S
C429 C430 1.376 . S
C430 H394 0.931 . S
C430 C429 1.376 . S
C430 C431 1.396 . S
C431 C413 1.472 . S
C431 C430 1.396 . S
C431 C432 1.348 . S
C432 H395 0.929 . S
C432 C431 1.348 . S
C432 C433 1.443 . S
C433 H397 0.932 . S
C433 C428 1.388 . S
C433 C432 1.443 . S
H434 C461 0.929 . S
N435 C460 1.433 . S
N435 C466 1.435 . S
N435 C472 1.423 . S
H436 C462 0.930 . S
H437 C465 0.931 . S
H438 C464 0.929 . S
H439 C467 0.930 . S
H440 C468 0.932 . S
H441 C471 0.929 . S
H442 C470 0.931 . S
H443 C473 0.929 . S
H444 C477 0.932 . S
H445 C474 0.931 1_655 S
H446 C476 0.929 1_545 S
H447 C479 0.929 . S
H448 C480 0.930 . S
H449 C482 0.929 . S
H450 C483 0.931 . S
H451 C485 0.930 . S
H452 C486 0.932 . S
H453 C488 0.931 . S
H454 C489 0.929 . S
H455 C491 0.929 . S
H456 C492 0.931 . S
H457 C494 0.929 1_455 S
N458 C478 1.433 . S
N458 C484 1.435 . S
N458 C490 1.423 . S
H459 C495 0.932 . S
C460 N435 1.433 . S
C460 C461 1.363 . S
C460 C465 1.370 . S
C461 H434 0.929 . S
C461 C460 1.363 . S
C461 C462 1.385 . S
C462 H436 0.930 . S
C462 C461 1.385 . S
C462 C463 1.357 . S
C463 C462 1.357 . S
C463 C464 1.406 . S
C464 H438 0.929 . S
C464 C463 1.406 . S
C464 C465 1.391 . S
C465 H437 0.931 . S
C465 C460 1.370 . S
C465 C464 1.391 . S
C466 N435 1.435 . S
C466 C467 1.358 . S
C466 C471 1.371 . S
C467 H439 0.930 . S
C467 C466 1.358 . S
C467 C468 1.405 . S
C468 H440 0.932 . S
C468 C467 1.405 . S
C468 C469 1.383 . S
C469 C468 1.383 . S
C469 C470 1.393 . S
C470 H442 0.931 . S
C470 C469 1.393 . S
C470 C471 1.382 . S
C471 H441 0.929 . S
C471 C466 1.371 . S
C471 C470 1.382 . S
C472 N435 1.423 . S
C472 C473 1.362 . S
C472 C477 1.388 . S
C473 H443 0.929 . S
C473 C472 1.362 . S
C473 C474 1.376 . S
C474 H445 0.931 1_455 S
C474 C473 1.376 . S
C474 C475 1.396 . S
C475 C474 1.396 . S
C475 C476 1.348 . S
C475 C493 1.472 1_465 S
C476 H446 0.929 1_565 S
C476 C475 1.348 . S
C476 C477 1.443 . S
C477 H444 0.932 . S
C477 C472 1.388 . S
C477 C476 1.443 . S
C478 N458 1.433 . S
C478 C479 1.363 . S
C478 C483 1.370 . S
C479 H447 0.929 . S
C479 C478 1.363 . S
C479 C480 1.385 . S
C480 H448 0.930 . S
C480 C479 1.385 . S
C480 C481 1.357 . S
C481 C480 1.357 . S
C481 C482 1.406 . S
C482 H449 0.929 . S
C482 C481 1.406 . S
C482 C483 1.391 . S
C483 H450 0.931 . S
C483 C478 1.370 . S
C483 C482 1.391 . S
C484 N458 1.435 . S
C484 C485 1.358 . S
C484 C489 1.371 . S
C485 H451 0.930 . S
C485 C484 1.358 . S
C485 C486 1.405 . S
C486 H452 0.932 . S
C486 C485 1.405 . S
C486 C487 1.383 . S
C487 C486 1.383 . S
C487 C488 1.393 . S
C488 H453 0.931 . S
C488 C487 1.393 . S
C488 C489 1.382 . S
C489 H454 0.929 . S
C489 C484 1.371 . S
C489 C488 1.382 . S
C490 N458 1.423 . S
C490 C491 1.362 . S
C490 C495 1.388 . S
C491 H455 0.929 . S
C491 C490 1.362 . S
C491 C492 1.376 . S
C492 H456 0.931 . S
C492 C491 1.376 . S
C492 C493 1.396 . S
C493 C475 1.472 1_645 S
C493 C492 1.396 . S
C493 C494 1.348 . S
C494 H457 0.929 1_655 S
C494 C493 1.348 . S
C494 C495 1.443 . S
C495 H459 0.932 . S
C495 C490 1.388 . S
C495 C494 1.443 . S
C496 O497 1.306 . S
C496 O499 1.160 . S
O497 C496 1.306 . S
O497 Cd498 2.228 . S
Cd498 O497 2.228 . S
Cd498 O502 2.273 1_554 S
Cd498 O506 2.277 . S
O499 C496 1.160 . S
O499 Cd500 2.203 . S
Cd500 O499 2.203 . S
Cd500 O502 2.411 1_554 S
Cd500 O503 2.333 1_554 S
Cd500 O504 2.352 . S
Cd500 O508 2.277 . S
Cd500 O509 2.356 1_554 S
C501 O506 1.209 . S
C501 O508 1.226 . S
O502 Cd498 2.273 1_556 S
O502 Cd500 2.411 1_556 S
O502 C505 1.320 . S
O503 Cd500 2.333 1_556 S
O503 C505 1.214 . S
O504 Cd500 2.352 . S
O504 C507 1.258 1_554 S
C505 O502 1.320 . S
C505 O503 1.214 . S
O506 Cd498 2.277 . S
O506 C501 1.209 . S
C507 O504 1.258 1_556 S
C507 O509 1.283 . S
O508 Cd500 2.277 . S
O508 C501 1.226 . S
O509 Cd500 2.356 1_556 S
O509 C507 1.283 . S
C510 O511 1.306 . S
C510 O513 1.160 . S
O511 C510 1.306 . S
O511 Cd512 2.228 . S
Cd512 O511 2.228 . S
Cd512 O516 2.273 . S
Cd512 O520 2.277 . S
O513 C510 1.160 . S
O513 Cd514 2.203 . S
Cd514 O513 2.203 . S
Cd514 O516 2.411 . S
Cd514 O517 2.333 . S
Cd514 O518 2.352 . S
Cd514 O522 2.277 . S
Cd514 O523 2.356 . S
C515 O520 1.209 . S
C515 O522 1.226 . S
O516 Cd512 2.273 . S
O516 Cd514 2.411 . S
O516 C519 1.320 . S
O517 Cd514 2.333 . S
O517 C519 1.214 . S
O518 Cd514 2.352 . S
O518 C521 1.258 . S
C519 O516 1.320 . S
C519 O517 1.214 . S
O520 Cd512 2.277 . S
O520 C515 1.209 . S
C521 O518 1.258 . S
C521 O523 1.282 . S
O522 Cd514 2.277 . S
O522 C515 1.226 . S
O523 Cd514 2.356 . S
O523 C521 1.282 . S
C524 O525 1.306 . S
C524 O527 1.160 . S
O525 C524 1.306 . S
O525 Cd526 2.228 . S
Cd526 O525 2.228 . S
Cd526 O530 2.273 . S
Cd526 O534 2.277 . S
O527 C524 1.160 . S
O527 Cd528 2.203 . S
Cd528 O527 2.203 . S
Cd528 O530 2.411 . S
Cd528 O531 2.333 . S
Cd528 O532 2.352 . S
Cd528 O536 2.277 . S
Cd528 O537 2.356 . S
C529 O534 1.209 . S
C529 O536 1.226 . S
O530 Cd526 2.273 . S
O530 Cd528 2.411 . S
O530 C533 1.320 . S
O531 Cd528 2.333 . S
O531 C533 1.214 . S
O532 Cd528 2.352 . S
O532 C535 1.258 . S
C533 O530 1.320 . S
C533 O531 1.214 . S
O534 Cd526 2.277 . S
O534 C529 1.209 . S
C535 O532 1.258 . S
C535 O537 1.282 . S
O536 Cd528 2.277 . S
O536 C529 1.226 . S
O537 Cd528 2.356 . S
O537 C535 1.282 . S
C538 O539 1.306 . S
C538 O541 1.160 . S
O539 C538 1.306 . S
O539 Cd540 2.228 . S
Cd540 O539 2.228 . S
Cd540 O544 2.273 . S
Cd540 O548 2.277 . S
O541 C538 1.160 . S
O541 Cd542 2.203 . S
Cd542 O541 2.203 . S
Cd542 O544 2.411 . S
Cd542 O545 2.333 . S
Cd542 O546 2.352 . S
Cd542 O550 2.277 . S
Cd542 O551 2.356 . S
C543 O548 1.209 . S
C543 O550 1.226 . S
O544 Cd540 2.273 . S
O544 Cd542 2.411 . S
O544 C547 1.320 . S
O545 Cd542 2.333 . S
O545 C547 1.214 . S
O546 Cd542 2.352 . S
O546 C549 1.258 . S
C547 O544 1.320 . S
C547 O545 1.214 . S
O548 Cd540 2.277 . S
O548 C543 1.209 . S
C549 O546 1.258 . S
C549 O551 1.282 . S
O550 Cd542 2.277 . S
O550 C543 1.226 . S
O551 Cd542 2.356 . S
O551 C549 1.282 . S
C552 O553 1.306 . S
C552 O555 1.160 . S
O553 C552 1.306 . S
O553 Cd554 2.228 . S
Cd554 O553 2.228 . S
Cd554 O558 2.273 . S
Cd554 O562 2.277 . S
O555 C552 1.160 . S
O555 Cd556 2.203 . S
Cd556 O555 2.203 . S
Cd556 O558 2.411 . S
Cd556 O559 2.333 . S
Cd556 O560 2.352 . S
Cd556 O564 2.277 . S
Cd556 O565 2.356 . S
C557 O562 1.209 . S
C557 O564 1.226 . S
O558 Cd554 2.273 . S
O558 Cd556 2.411 . S
O558 C561 1.320 . S
O559 Cd556 2.333 . S
O559 C561 1.214 . S
O560 Cd556 2.352 . S
O560 C563 1.258 . S
C561 O558 1.320 . S
C561 O559 1.214 . S
O562 Cd554 2.277 . S
O562 C557 1.209 . S
C563 O560 1.258 . S
C563 O565 1.282 . S
O564 Cd556 2.277 . S
O564 C557 1.226 . S
O565 Cd556 2.356 . S
O565 C563 1.282 . S
C566 O567 1.306 . S
C566 O569 1.160 . S
O567 C566 1.306 . S
O567 Cd568 2.228 . S
Cd568 O567 2.228 . S
Cd568 O572 2.273 . S
Cd568 O576 2.277 . S
O569 C566 1.160 . S
O569 Cd570 2.203 . S
Cd570 O569 2.203 . S
Cd570 O572 2.411 . S
Cd570 O573 2.333 . S
Cd570 O574 2.352 . S
Cd570 O578 2.277 . S
Cd570 O579 2.356 . S
C571 O576 1.209 . S
C571 O578 1.226 . S
O572 Cd568 2.273 . S
O572 Cd570 2.411 . S
O572 C575 1.320 . S
O573 Cd570 2.333 . S
O573 C575 1.214 . S
O574 Cd570 2.352 . S
O574 C577 1.258 . S
C575 O572 1.320 . S
C575 O573 1.214 . S
O576 Cd568 2.277 . S
O576 C571 1.209 . S
C577 O574 1.258 . S
C577 O579 1.282 . S
O578 Cd570 2.277 . S
O578 C571 1.226 . S
O579 Cd570 2.356 . S
O579 C577 1.282 . S
C580 O581 1.306 . S
C580 O583 1.160 . S
O581 C580 1.306 . S
O581 Cd582 2.196 1_556 S
Cd582 O581 2.196 1_554 S
Cd582 O586 2.298 . S
Cd582 O590 2.273 1_554 S
O583 C580 1.160 . S
O583 Cd584 2.203 1_556 S
Cd584 O583 2.203 1_554 S
Cd584 O586 2.411 . S
Cd584 O587 2.333 . S
Cd584 O588 2.352 . S
Cd584 O592 2.277 1_554 S
Cd584 O593 2.356 . S
C585 O590 1.209 . S
C585 O592 1.226 . S
O586 Cd582 2.298 . S
O586 Cd584 2.411 . S
O586 C589 1.320 . S
O587 Cd584 2.333 . S
O587 C589 1.214 . S
O588 Cd584 2.352 . S
O588 C591 1.258 . S
C589 O586 1.320 . S
C589 O587 1.214 . S
O590 Cd582 2.273 1_556 S
O590 C585 1.209 . S
C591 O588 1.258 . S
C591 O593 1.282 . S
O592 Cd584 2.277 1_556 S
O592 C585 1.226 . S
O593 Cd584 2.356 . S
O593 C591 1.282 . S
C594 O595 1.306 . S
C594 O597 1.160 . S
O595 C594 1.306 . S
O595 Cd596 2.228 . S
Cd596 O595 2.228 . S
Cd596 O600 2.273 . S
Cd596 O604 2.277 . S
O597 C594 1.160 . S
O597 Cd598 2.203 . S
Cd598 O597 2.203 . S
Cd598 O600 2.411 . S
Cd598 O601 2.333 . S
Cd598 O602 2.352 . S
Cd598 O606 2.277 . S
Cd598 O607 2.356 . S
C599 O604 1.209 . S
C599 O606 1.226 . S
O600 Cd596 2.273 . S
O600 Cd598 2.411 . S
O600 C603 1.320 . S
O601 Cd598 2.333 . S
O601 C603 1.214 . S
O602 Cd598 2.352 . S
O602 C605 1.258 . S
C603 O600 1.320 . S
C603 O601 1.214 . S
O604 Cd596 2.277 . S
O604 C599 1.209 . S
C605 O602 1.258 . S
C605 O607 1.282 . S
O606 Cd598 2.277 . S
O606 C599 1.226 . S
O607 Cd598 2.356 . S
O607 C605 1.282 . S
C608 C609 1.387 . S
C608 H612 0.950 . S
C608 C617 1.390 . S
C609 C608 1.387 . S
C609 C611 1.387 . S
H610 C617 0.950 . S
C611 C609 1.387 . S
C611 C613 1.390 . S
C611 H615 0.950 . S
H612 C608 0.950 . S
C613 C611 1.390 . S
C613 C614 1.387 . S
C613 H616 0.950 . S
C614 C613 1.387 . S
C614 C617 1.387 . S
H615 C611 0.950 . S
H616 C613 0.950 . S
C617 C608 1.390 . S
C617 H610 0.950 . S
C617 C614 1.387 . S
C618 C619 1.387 . S
C618 H622 0.950 . S
C618 C627 1.390 . S
C619 C618 1.387 . S
C619 C621 1.387 . S
H620 C627 0.950 . S
C621 C619 1.387 . S
C621 C623 1.390 . S
C621 H625 0.950 . S
H622 C618 0.950 . S
C623 C621 1.390 . S
C623 C624 1.387 . S
C623 H626 0.950 . S
C624 C623 1.387 . S
C624 C627 1.387 . S
H625 C621 0.950 . S
H626 C623 0.950 . S
C627 C618 1.390 . S
C627 H620 0.950 . S
C627 C624 1.387 . S
C628 C629 1.387 . S
C628 H632 0.950 . S
C628 C637 1.390 . S
C629 C628 1.387 . S
C629 C631 1.387 . S
H630 C637 0.950 . S
C631 C629 1.387 . S
C631 C633 1.390 . S
C631 H635 0.950 . S
H632 C628 0.950 . S
C633 C631 1.390 . S
C633 C634 1.387 . S
C633 H636 0.950 . S
C634 C633 1.387 . S
C634 C637 1.387 . S
H635 C631 0.950 . S
H636 C633 0.950 . S
C637 C628 1.390 . S
C637 H630 0.950 . S
C637 C634 1.387 . S
C638 C639 1.387 . S
C638 H642 0.950 . S
C638 C647 1.390 . S
C639 C638 1.387 . S
C639 C641 1.387 1_554 S
H640 C647 0.950 . S
C641 C639 1.387 1_556 S
C641 C643 1.390 . S
C641 H645 0.950 . S
H642 C638 0.950 . S
C643 C641 1.390 . S
C643 C644 1.387 1_556 S
C643 H646 0.950 . S
C644 C643 1.387 1_554 S
C644 C647 1.387 . S
H645 C641 0.950 . S
H646 C643 0.950 . S
C647 C638 1.390 . S
C647 H640 0.950 . S
C647 C644 1.387 . S
C648 C649 1.387 1_556 S
C648 H652 0.950 . S
C648 C657 1.390 . S
C649 C648 1.387 1_554 S
C649 C651 1.387 . S
H650 C657 0.950 . S
C651 C649 1.387 . S
C651 C653 1.390 . S
C651 H655 0.950 . S
H652 C648 0.950 . S
C653 C651 1.390 . S
C653 C654 1.387 . S
C653 H656 0.950 . S
C654 C653 1.387 . S
C654 C657 1.387 1_554 S
H655 C651 0.950 . S
H656 C653 0.950 . S
C657 C648 1.390 . S
C657 H650 0.950 . S
C657 C654 1.387 1_556 S
C658 C659 1.387 . S
C658 H662 0.950 . S
C658 C667 1.390 . S
C659 C658 1.387 . S
C659 C661 1.387 . S
H660 C667 0.950 . S
C661 C659 1.387 . S
C661 C663 1.390 . S
C661 H665 0.950 . S
H662 C658 0.950 . S
C663 C661 1.390 . S
C663 C664 1.387 . S
C663 H666 0.950 . S
C664 C663 1.387 . S
C664 C667 1.387 . S
H665 C661 0.950 . S
H666 C663 0.950 . S
C667 C658 1.390 . S
C667 H660 0.950 . S
C667 C664 1.387 . S
C668 C669 1.387 . S
C668 H672 0.950 . S
C668 C677 1.390 . S
C669 C668 1.387 . S
C669 C671 1.387 . S
H670 C677 0.950 . S
C671 C669 1.387 . S
C671 C673 1.390 . S
C671 H675 0.950 . S
H672 C668 0.950 . S
C673 C671 1.390 . S
C673 C674 1.387 . S
C673 H676 0.950 . S
C674 C673 1.387 . S
C674 C677 1.387 . S
H675 C671 0.950 . S
H676 C673 0.950 . S
C677 C668 1.390 . S
C677 H670 0.950 . S
C677 C674 1.387 . S
C678 C679 1.387 . S
C678 H682 0.950 . S
C678 C687 1.390 . S
C679 C678 1.387 . S
C679 C681 1.387 . S
H680 C687 0.950 . S
C681 C679 1.387 . S
C681 C683 1.390 . S
C681 H685 0.950 . S
H682 C678 0.950 . S
C683 C681 1.390 . S
C683 C684 1.387 . S
C683 H686 0.950 . S
C684 C683 1.387 . S
C684 C687 1.387 . S
H685 C681 0.950 . S
H686 C683 0.950 . S
C687 C678 1.390 . S
C687 H680 0.950 . S
C687 C684 1.387 . S
C688 C689 1.387 . S
C688 H692 0.950 . S
C688 C697 1.390 . S
C689 C688 1.387 . S
C689 C691 1.387 . S
H690 C697 0.950 . S
C691 C689 1.387 . S
C691 C693 1.390 . S
C691 H695 0.950 . S
H692 C688 0.950 . S
C693 C691 1.390 . S
C693 C694 1.387 . S
C693 H696 0.950 . S
C694 C693 1.387 . S
C694 C697 1.387 . S
H695 C691 0.950 . S
H696 C693 0.950 . S
C697 C688 1.390 . S
C697 H690 0.950 . S
C697 C694 1.387 . S
C698 C699 1.387 . S
C698 H702 0.950 . S
C698 C707 1.390 . S
C699 C698 1.387 . S
C699 C701 1.387 1_554 S
H700 C707 0.950 . S
C701 C699 1.387 1_556 S
C701 C703 1.390 . S
C701 H705 0.950 . S
H702 C698 0.950 . S
C703 C701 1.390 . S
C703 C704 1.387 1_556 S
C703 H706 0.950 . S
C704 C703 1.387 1_554 S
C704 C707 1.387 . S
H705 C701 0.950 . S
H706 C703 0.950 . S
C707 C698 1.390 . S
C707 H700 0.950 . S
C707 C704 1.387 . S
C708 C709 1.387 . S
C708 H712 0.950 . S
C708 C717 1.390 . S
C709 C708 1.387 . S
C709 C711 1.387 . S
H710 C717 0.950 . S
C711 C709 1.387 . S
C711 C713 1.390 . S
C711 H715 0.950 . S
H712 C708 0.950 . S
C713 C711 1.390 . S
C713 C714 1.387 . S
C713 H716 0.950 . S
C714 C713 1.387 . S
C714 C717 1.387 . S
H715 C711 0.950 . S
H716 C713 0.950 . S
C717 C708 1.390 . S
C717 H710 0.950 . S
C717 C714 1.387 . S
C718 C719 1.387 . S
C718 H722 0.950 . S
C718 C727 1.390 . S
C719 C718 1.387 . S
C719 C721 1.387 . S
H720 C727 0.950 . S
C721 C719 1.387 . S
C721 C723 1.390 . S
C721 H725 0.950 . S
H722 C718 0.950 . S
C723 C721 1.390 . S
C723 C724 1.387 . S
C723 H726 0.950 . S
C724 C723 1.387 . S
C724 C727 1.387 . S
H725 C721 0.950 . S
H726 C723 0.950 . S
C727 C718 1.390 . S
C727 H720 0.950 . S
C727 C724 1.387 . S
C728 C729 1.387 . S
C728 H732 0.950 . S
C728 C737 1.390 . S
C729 C728 1.387 . S
C729 C731 1.387 . S
H730 C737 0.950 . S
C731 C729 1.387 . S
C731 C733 1.390 . S
C731 H735 0.950 . S
H732 C728 0.950 . S
C733 C731 1.390 . S
C733 C734 1.387 . S
C733 H736 0.950 . S
C734 C733 1.387 . S
C734 C737 1.387 . S
H735 C731 0.950 . S
H736 C733 0.950 . S
C737 C728 1.390 . S
C737 H730 0.950 . S
C737 C734 1.387 . S
C738 C739 1.387 . S
C738 H742 0.950 . S
C738 C747 1.390 . S
C739 C738 1.387 . S
C739 C741 1.387 . S
H740 C747 0.950 . S
C741 C739 1.387 . S
C741 C743 1.390 . S
C741 H745 0.950 . S
H742 C738 0.950 . S
C743 C741 1.390 . S
C743 C744 1.387 . S
C743 H746 0.950 . S
C744 C743 1.387 . S
C744 C747 1.387 . S
H745 C741 0.950 . S
H746 C743 0.950 . S
C747 C738 1.390 . S
C747 H740 0.950 . S
C747 C744 1.387 . S
C748 C749 1.387 . S
C748 H752 0.950 . S
C748 C757 1.390 . S
C749 C748 1.387 . S
C749 C751 1.387 1_554 S
H750 C757 0.950 . S
C751 C749 1.387 1_556 S
C751 C753 1.390 . S
C751 H755 0.950 . S
H752 C748 0.950 . S
C753 C751 1.390 . S
C753 C754 1.387 . S
C753 H756 0.950 . S
C754 C753 1.387 . S
C754 C757 1.387 1_556 S
H755 C751 0.950 . S
H756 C753 0.950 . S
C757 C748 1.390 . S
C757 H750 0.950 . S
C757 C754 1.387 1_554 S
C758 C759 1.387 . S
C758 H762 0.950 . S
C758 C767 1.390 . S
C759 C758 1.387 . S
C759 C761 1.387 . S
H760 C767 0.950 . S
C761 C759 1.387 . S
C761 C763 1.390 . S
C761 H765 0.950 . S
H762 C758 0.950 . S
C763 C761 1.390 . S
C763 C764 1.387 . S
C763 H766 0.950 . S
C764 C763 1.387 . S
C764 C767 1.387 . S
H765 C761 0.950 . S
H766 C763 0.950 . S
C767 C758 1.390 . S
C767 H760 0.950 . S
C767 C764 1.387 . S
C768 C769 1.387 . S
C768 H772 0.950 . S
C768 C777 1.390 . S
C769 C768 1.387 . S
C769 C771 1.387 . S
H770 C777 0.950 . S
C771 C769 1.387 . S
C771 C773 1.390 . S
C771 H775 0.950 . S
H772 C768 0.950 . S
C773 C771 1.390 . S
C773 C774 1.387 . S
C773 H776 0.950 . S
C774 C773 1.387 . S
C774 C777 1.387 . S
H775 C771 0.950 . S
H776 C773 0.950 . S
C777 C768 1.390 . S
C777 H770 0.950 . S
C777 C774 1.387 . S
C778 C779 1.387 . S
C778 H782 0.950 . S
C778 C787 1.390 . S
C779 C778 1.387 . S
C779 C781 1.387 . S
H780 C787 0.950 . S
C781 C779 1.387 . S
C781 C783 1.390 . S
C781 H785 0.950 . S
H782 C778 0.950 . S
C783 C781 1.390 . S
C783 C784 1.387 . S
C783 H786 0.950 . S
C784 C783 1.387 . S
C784 C787 1.387 . S
H785 C781 0.950 . S
H786 C783 0.950 . S
C787 C778 1.390 . S
C787 H780 0.950 . S
C787 C784 1.387 . S
C788 C789 1.387 . S
C788 H792 0.950 . S
C788 C797 1.390 . S
C789 C788 1.387 . S
C789 C791 1.387 . S
H790 C797 0.950 . S
C791 C789 1.387 . S
C791 C793 1.390 . S
C791 H795 0.950 . S
H792 C788 0.950 . S
C793 C791 1.390 . S
C793 C794 1.387 . S
C793 H796 0.950 . S
C794 C793 1.387 . S
C794 C797 1.387 . S
H795 C791 0.950 . S
H796 C793 0.950 . S
C797 C788 1.390 . S
C797 H790 0.950 . S
C797 C794 1.387 . S
C798 C799 1.387 . S
C798 H802 0.950 . S
C798 C807 1.390 . S
C799 C798 1.387 . S
C799 C801 1.387 . S
H800 C807 0.950 . S
C801 C799 1.387 . S
C801 C803 1.390 . S
C801 H805 0.950 . S
H802 C798 0.950 . S
C803 C801 1.390 . S
C803 C804 1.387 . S
C803 H806 0.950 . S
C804 C803 1.387 . S
C804 C807 1.387 . S
H805 C801 0.950 . S
H806 C803 0.950 . S
C807 C798 1.390 . S
C807 H800 0.950 . S
C807 C804 1.387 . S
C808 C809 1.387 . S
C808 H812 0.950 . S
C808 C817 1.390 . S
C809 C808 1.387 . S
C809 C811 1.387 . S
H810 C817 0.950 . S
C811 C809 1.387 . S
C811 C813 1.390 . S
C811 H815 0.950 . S
H812 C808 0.950 . S
C813 C811 1.390 . S
C813 C814 1.387 . S
C813 H816 0.950 . S
C814 C813 1.387 . S
C814 C817 1.387 . S
H815 C811 0.950 . S
H816 C813 0.950 . S
C817 C808 1.390 . S
C817 H810 0.950 . S
C817 C814 1.387 . S
C818 C819 1.387 . S
C818 H822 0.950 . S
C818 C827 1.390 . S
C819 C818 1.387 . S
C819 C821 1.387 . S
H820 C827 0.950 . S
C821 C819 1.387 . S
C821 C823 1.390 . S
C821 H825 0.950 . S
H822 C818 0.950 . S
C823 C821 1.390 . S
C823 C824 1.387 . S
C823 H826 0.950 . S
C824 C823 1.387 . S
C824 C827 1.387 . S
H825 C821 0.950 . S
H826 C823 0.950 . S
C827 C818 1.390 . S
C827 H820 0.950 . S
C827 C824 1.387 . S
C828 C829 1.387 . S
C828 H832 0.950 . S
C828 C837 1.390 . S
C829 C828 1.387 . S
C829 C831 1.387 . S
H830 C837 0.950 . S
C831 C829 1.387 . S
C831 C833 1.390 . S
C831 H835 0.950 . S
H832 C828 0.950 . S
C833 C831 1.390 . S
C833 C834 1.387 . S
C833 H836 0.950 . S
C834 C833 1.387 . S
C834 C837 1.387 . S
H835 C831 0.950 . S
H836 C833 0.950 . S
C837 C828 1.390 . S
C837 H830 0.950 . S
C837 C834 1.387 . S
C838 C839 1.387 . S
C838 H842 0.950 . S
C838 C847 1.390 . S
C839 C838 1.387 . S
C839 C841 1.387 . S
H840 C847 0.950 . S
C841 C839 1.387 . S
C841 C843 1.390 . S
C841 H845 0.950 . S
H842 C838 0.950 . S
C843 C841 1.390 . S
C843 C844 1.387 . S
C843 H846 0.950 . S
C844 C843 1.387 . S
C844 C847 1.387 . S
H845 C841 0.950 . S
H846 C843 0.950 . S
C847 C838 1.390 . S
C847 H840 0.950 . S
C847 C844 1.387 . S
C848 C849 1.387 . S
C848 H852 0.950 . S
C848 C857 1.390 . S
C849 C848 1.387 . S
C849 C851 1.387 . S
H850 C857 0.950 . S
C851 C849 1.387 . S
C851 C853 1.390 . S
C851 H855 0.950 . S
H852 C848 0.950 . S
C853 C851 1.390 . S
C853 C854 1.387 . S
C853 H856 0.950 . S
C854 C853 1.387 . S
C854 C857 1.387 . S
H855 C851 0.950 . S
H856 C853 0.950 . S
C857 C848 1.390 . S
C857 H850 0.950 . S
C857 C854 1.387 . S
C858 C859 1.387 . S
C858 H862 0.950 . S
C858 C867 1.390 . S
C859 C858 1.387 . S
C859 C861 1.387 . S
H860 C867 0.950 . S
C861 C859 1.387 . S
C861 C863 1.390 . S
C861 H865 0.950 . S
H862 C858 0.950 . S
C863 C861 1.390 . S
C863 C864 1.387 . S
C863 H866 0.950 . S
C864 C863 1.387 . S
C864 C867 1.387 . S
H865 C861 0.950 . S
H866 C863 0.950 . S
C867 C858 1.390 . S
C867 H860 0.950 . S
C867 C864 1.387 . S
C868 C869 1.387 . S
C868 H872 0.950 . S
C868 C877 1.390 . S
C869 C868 1.387 . S
C869 C871 1.387 . S
H870 C877 0.950 . S
C871 C869 1.387 . S
C871 C873 1.390 . S
C871 H875 0.950 . S
H872 C868 0.950 . S
C873 C871 1.390 . S
C873 C874 1.387 . S
C873 H876 0.950 . S
C874 C873 1.387 . S
C874 C877 1.387 . S
H875 C871 0.950 . S
H876 C873 0.950 . S
C877 C868 1.390 . S
C877 H870 0.950 . S
C877 C874 1.387 . S
C878 C879 1.387 . S
C878 H882 0.950 . S
C878 C887 1.390 . S
C879 C878 1.387 . S
C879 C881 1.387 . S
H880 C887 0.950 . S
C881 C879 1.387 . S
C881 C883 1.390 . S
C881 H885 0.950 . S
H882 C878 0.950 . S
C883 C881 1.390 . S
C883 C884 1.387 . S
C883 H886 0.950 . S
C884 C883 1.387 . S
C884 C887 1.387 . S
H885 C881 0.950 . S
H886 C883 0.950 . S
C887 C878 1.390 . S
C887 H880 0.950 . S
C887 C884 1.387 . S
C888 C889 1.387 . S
C888 H892 0.950 . S
C888 C897 1.390 . S
C889 C888 1.387 . S
C889 C891 1.387 . S
H890 C897 0.950 . S
C891 C889 1.387 . S
C891 C893 1.390 . S
C891 H895 0.950 . S
H892 C888 0.950 . S
C893 C891 1.390 . S
C893 C894 1.387 . S
C893 H896 0.950 . S
C894 C893 1.387 . S
C894 C897 1.387 . S
H895 C891 0.950 . S
H896 C893 0.950 . S
C897 C888 1.390 . S
C897 H890 0.950 . S
C897 C894 1.387 . S
C898 C899 1.387 . S
C898 H902 0.950 . S
C898 C907 1.390 . S
C899 C898 1.387 . S
C899 C901 1.387 . S
H900 C907 0.950 . S
C901 C899 1.387 . S
C901 C903 1.390 . S
C901 H905 0.950 . S
H902 C898 0.950 . S
C903 C901 1.390 . S
C903 C904 1.387 . S
C903 H906 0.950 . S
C904 C903 1.387 . S
C904 C907 1.387 . S
H905 C901 0.950 . S
H906 C903 0.950 . S
C907 C898 1.390 . S
C907 H900 0.950 . S
C907 C904 1.387 . S
C908 C909 1.387 . S
C908 H912 0.950 . S
C908 C917 1.390 . S
C909 C908 1.387 . S
C909 C911 1.387 . S
H910 C917 0.950 . S
C911 C909 1.387 . S
C911 C913 1.390 . S
C911 H915 0.950 . S
H912 C908 0.950 . S
C913 C911 1.390 . S
C913 C914 1.387 . S
C913 H916 0.950 . S
C914 C913 1.387 . S
C914 C917 1.387 . S
H915 C911 0.950 . S
H916 C913 0.950 . S
C917 C908 1.390 . S
C917 H910 0.950 . S
C917 C914 1.387 . S
C918 C919 1.387 . S
C918 H922 0.950 . S
C918 C927 1.390 . S
C919 C918 1.387 . S
C919 C921 1.387 . S
H920 C927 0.950 . S
C921 C919 1.387 . S
C921 C923 1.390 . S
C921 H925 0.950 . S
H922 C918 0.950 . S
C923 C921 1.390 . S
C923 C924 1.387 . S
C923 H926 0.950 . S
C924 C923 1.387 . S
C924 C927 1.387 . S
H925 C921 0.950 . S
H926 C923 0.950 . S
C927 C918 1.390 . S
C927 H920 0.950 . S
C927 C924 1.387 . S
C614 C521 1.616 . S
C609 C35 1.362 . S
C624 C535 1.586 . S
C619 C115 1.373 . S
C634 C543 1.618 . S
C629 C177 1.398 . S
C639 C221 1.360 . S
C644 C501 1.600 . S
C649 C283 1.337 1_554 S
C654 C507 1.588 1_554 S
C659 C363 1.374 . S
C664 C515 1.600 . S
C674 C529 1.690 . S
C669 C407 1.435 . S
C684 C549 1.625 . S
C679 C469 1.386 . S
C689 C159 1.347 . S
C694 C577 1.592 . S
C704 C591 1.663 . S
C699 C239 1.438 . S
C709 C53 1.383 . S
C714 C599 1.612 . S
C724 C563 1.551 . S
C719 C97 1.313 . S
C729 C425 1.397 . S
C734 C557 1.630 . S
C739 C487 1.391 . S
C744 C571 1.606 . S
C754 C585 1.614 . S
C749 C301 1.398 1_554 S
C759 C345 1.404 . S
C764 C605 1.648 . S
C774 C524 1.841 . S
C769 C29 1.887 . S
C784 C547 1.884 . S
C779 C109 1.854 . S
C789 C171 1.867 . S
C794 C505 1.902 . S
C799 C215 1.930 . S
C804 C510 1.878 . S
C809 C277 1.884 . S
C814 C538 1.832 . S
C824 C496 1.860 . S
C819 C357 1.853 . S
C834 C519 1.888 . S
C829 C401 1.915 . S
C844 C533 1.885 . S
C839 C463 1.910 . S
C854 C580 1.837 . S
C849 C153 1.886 . S
C864 C603 1.871 . S
C859 C233 1.849 . S
C869 C47 1.839 . S
C874 C552 1.845 . S
C884 C566 1.828 . S
C879 C91 1.881 . S
C894 C594 1.876 . S
C889 C419 1.869 . S
C899 C481 1.879 . S
C904 C561 1.917 . S
C914 C575 1.907 . S
C909 C295 1.873 . S
C924 C589 1.887 . S
C919 C339 1.909 . S
