# Generated by pormake.
# Topology zzz, (3,6)-cn, num edge types: 1
# Building blocks:
#     Node 0, Type 0, BuildingBlock: BETDAH_clean_linker_0, # of connection points: 3
#     Node 1, Type 0, BuildingBlock: BETDAH_clean_linker_0, # of connection points: 3
#     Node 2, Type 0, BuildingBlock: BETDAH_clean_linker_0, # of connection points: 3
#     Node 3, Type 0, BuildingBlock: BETDAH_clean_linker_0, # of connection points: 3
#     Node 4, Type 0, BuildingBlock: BETDAH_clean_linker_0, # of connection points: 3
#     Node 5, Type 0, BuildingBlock: BETDAH_clean_linker_0, # of connection points: 3
#     Node 6, Type 0, BuildingBlock: BETDAH_clean_linker_0, # of connection points: 3
#     Node 7, Type 0, BuildingBlock: BETDAH_clean_linker_0, # of connection points: 3
#     Node 8, Type 1, BuildingBlock: BETDIP_clean_sbu_0, # of connection points: 6
#     Node 9, Type 1, BuildingBlock: BETDIP_clean_sbu_0, # of connection points: 6
#     Node 10, Type 1, BuildingBlock: BETDIP_clean_sbu_0, # of connection points: 6
#     Node 11, Type 1, BuildingBlock: BETDIP_clean_sbu_0, # of connection points: 6
#     Edge 12, Type (0, 1), BuildingBlock: KIFKEQ_clean_linker_1, # of connection points: 2
#     Edge 13, Type (0, 1), BuildingBlock: KIFKEQ_clean_linker_1, # of connection points: 2
#     Edge 14, Type (0, 1), BuildingBlock: KIFKEQ_clean_linker_1, # of connection points: 2
#     Edge 15, Type (0, 1), BuildingBlock: KIFKEQ_clean_linker_1, # of connection points: 2
#     Edge 16, Type (0, 1), BuildingBlock: KIFKEQ_clean_linker_1, # of connection points: 2
#     Edge 17, Type (0, 1), BuildingBlock: KIFKEQ_clean_linker_1, # of connection points: 2
#     Edge 18, Type (0, 1), BuildingBlock: KIFKEQ_clean_linker_1, # of connection points: 2
#     Edge 19, Type (0, 1), BuildingBlock: KIFKEQ_clean_linker_1, # of connection points: 2
#     Edge 20, Type (0, 1), BuildingBlock: KIFKEQ_clean_linker_1, # of connection points: 2
#     Edge 21, Type (0, 1), BuildingBlock: KIFKEQ_clean_linker_1, # of connection points: 2
#     Edge 22, Type (0, 1), BuildingBlock: KIFKEQ_clean_linker_1, # of connection points: 2
#     Edge 23, Type (0, 1), BuildingBlock: KIFKEQ_clean_linker_1, # of connection points: 2
#     Edge 24, Type (0, 1), BuildingBlock: KIFKEQ_clean_linker_1, # of connection points: 2
#     Edge 25, Type (0, 1), BuildingBlock: KIFKEQ_clean_linker_1, # of connection points: 2
#     Edge 26, Type (0, 1), BuildingBlock: KIFKEQ_clean_linker_1, # of connection points: 2
#     Edge 27, Type (0, 1), BuildingBlock: KIFKEQ_clean_linker_1, # of connection points: 2
#     Edge 28, Type (0, 1), BuildingBlock: KIFKEQ_clean_linker_1, # of connection points: 2
#     Edge 29, Type (0, 1), BuildingBlock: KIFKEQ_clean_linker_1, # of connection points: 2
#     Edge 30, Type (0, 1), BuildingBlock: KIFKEQ_clean_linker_1, # of connection points: 2
#     Edge 31, Type (0, 1), BuildingBlock: KIFKEQ_clean_linker_1, # of connection points: 2
#     Edge 32, Type (0, 1), BuildingBlock: KIFKEQ_clean_linker_1, # of connection points: 2
#     Edge 33, Type (0, 1), BuildingBlock: KIFKEQ_clean_linker_1, # of connection points: 2
#     Edge 34, Type (0, 1), BuildingBlock: KIFKEQ_clean_linker_1, # of connection points: 2
#     Edge 35, Type (0, 1), BuildingBlock: KIFKEQ_clean_linker_1, # of connection points: 2
# Relax obj value: 0.265
# Max RMSD: 0.167
# Mean RMSD: 0.149
data_MOF--net-zzz--node1-BETDIP_clean_sbu_0--node2-BETDAH_clean_linker_0--edge1-KIFKEQ_clean_linker_1
_symmetry_space_group_name_H-M    P1
_symmetry_Int_Tables_number       1
_symmetry_cell_setting            triclinic
loop_
_symmetry_equiv_pos_as_xyz
'x, y, z'
_cell_length_a     52.514516
_cell_length_b     52.451112
_cell_length_c     13.868586
_cell_angle_alpha  89.995933
_cell_angle_beta   89.676583
_cell_angle_gamma 90.29308
loop_
_atom_site_label
_atom_site_type_symbol
_atom_site_fract_x
_atom_site_fract_y
_atom_site_fract_z
_atom_type_partial_charge
H0 H 0.81127 0.47619 0.35198 0.0
H1 H 0.73841 0.49618 0.23765 0.0
H2 H 0.76944 0.53805 0.47867 0.0
C3 C 0.79402 0.48745 0.35711 0.0
C4 C 0.79269 0.50716 0.42491 0.0
C5 C 0.77468 0.4836 0.28941 0.0
C6 C 0.75299 0.499 0.2916 0.0
C7 C 0.7506 0.51834 0.36156 0.0
C8 C 0.77079 0.52265 0.42688 0.0
N9 N 0.72858 0.53412 0.36615 0.0
C10 C 0.70779 0.53213 0.30393 0.0
H11 H 0.05991 0.80716 0.34937 0.0
H12 H 0.04305 0.73128 0.25296 0.0
H13 H 1.00103 0.76397 0.49103 0.0
C14 C 0.04977 0.78927 0.35925 0.0
C15 C 0.03066 0.78791 0.42985 0.0
C16 C 0.05416 0.7691 0.29478 0.0
C17 C 0.03985 0.74661 0.30383 0.0
C18 C 1.02083 0.74439 0.37543 0.0
C19 C 1.0161 0.76529 0.43758 0.0
N20 N 1.0057 0.72181 0.384 0.0
C21 C 1.00716 0.70107 0.3207 0.0
H22 H 0.7368 0.06311 0.39455 0.0
H23 H 0.80788 0.04588 0.25701 0.0
H24 H 0.77967 0.99827 0.48884 0.0
C25 C 0.75405 0.0518 0.3918 0.0
C26 C 0.75603 0.03045 0.45162 0.0
C27 C 0.77251 0.05726 0.32139 0.0
C28 C 0.79411 0.04185 0.31333 0.0
C29 C 0.79732 1.02089 0.37562 0.0
C30 C 0.77785 1.01494 0.44332 0.0
N31 N 0.81938 1.00512 0.3697 0.0
C32 C 0.83969 1.00898 0.30532 0.0
H33 H 0.47923 0.72775 0.39458 0.0
H34 H 0.50073 0.79908 0.26587 0.0
H35 H 0.54375 0.76885 0.50431 0.0
C36 C 0.49103 0.74481 0.39535 0.0
C37 C 0.51147 0.74614 0.45927 0.0
C38 C 0.48726 0.7636 0.3251 0.0
C39 C 0.50342 0.78494 0.32175 0.0
C40 C 0.52347 0.78739 0.3884 0.0
C41 C 0.52772 0.7676 0.45567 0.0
N42 N 0.54014 0.80895 0.38742 0.0
C43 C 0.53848 0.82937 0.32296 0.0
H44 H 0.23233 0.56455 0.13545 0.0
H45 H 0.30413 0.54702 0.26328 0.0
H46 H 0.27538 0.50081 0.02978 0.0
C47 C 0.24966 0.55335 0.13519 0.0
C48 C 0.25161 0.53249 0.07272 0.0
C49 C 0.26838 0.55847 0.20414 0.0
C50 C 0.29012 0.54319 0.20832 0.0
C51 C 0.29322 0.52267 0.14382 0.0
C52 C 0.27358 0.5171 0.07731 0.0
N53 N 0.31536 0.50698 0.14619 0.0
C54 C 0.3357 0.51025 0.21003 0.0
H55 H 0.97588 0.23158 0.10646 0.0
H56 H 0.99628 0.30264 0.23865 0.0
H57 H 0.0397 0.27426 0.99613 0.0
C58 C 0.98747 0.24878 0.10621 0.0
C59 C 1.00783 0.25074 0.04116 0.0
C60 C 0.98341 0.26723 0.17769 0.0
C61 C 0.99924 0.28877 0.18185 0.0
C62 C 1.01924 0.29187 0.11458 0.0
C63 C 0.02376 0.27247 0.0456 0.0
N64 N 0.03551 0.31373 0.11638 0.0
C65 C 0.03356 0.33379 0.18253 0.0
H66 H 0.31815 0.03566 0.20504 0.0
H67 H 0.23849 0.02951 0.2658 0.0
H68 H 0.26509 0.03134 0.97033 0.0
C69 C 0.29869 0.03485 0.17917 0.0
C70 C 0.29429 0.03372 0.07995 0.0
C71 C 0.27859 0.03341 0.24571 0.0
C72 C 0.2536 0.03133 0.21315 0.0
C73 C 0.24828 0.03135 0.11388 0.0
C74 C 0.26887 0.032 0.04699 0.0
N75 N 0.22256 0.03057 0.08073 0.0
C76 C 0.20133 0.0317 0.14243 0.0
H77 H 0.56331 0.30453 0.14977 0.0
H78 H 0.54552 0.23188 0.2741 0.0
H79 H 0.50071 0.2607 0.0379 0.0
C80 C 0.55226 0.28699 0.14805 0.0
C81 C 0.53184 0.28493 0.08406 0.0
C82 C 0.55711 0.26805 0.21661 0.0
C83 C 0.54199 0.24602 0.21905 0.0
C84 C 0.52197 0.24278 0.15285 0.0
C85 C 0.51664 0.26263 0.0867 0.0
N86 N 0.50659 0.22024 0.15323 0.0
C87 C 0.51021 0.19956 0.21543 0.0
Tb88 Tb 0.03594 1.0158 0.79954 0.0
Tb89 Tb 1.00278 0.02788 0.62463 0.0
C90 C 0.0557 0.99538 0.94419 0.0
C91 C 0.05828 0.96829 0.96899 0.0
C92 C 0.03909 0.9509 0.94373 0.0
C93 C 0.0433 0.92479 0.95039 0.0
C94 C 0.06661 0.91536 0.98461 0.0
C95 C 0.08542 0.93293 0.01392 0.0
C96 C 0.08135 0.95917 0.00538 0.0
C97 C 0.06027 0.03139 0.64267 0.0
C98 C 1.01618 0.97041 0.65993 0.0
C99 C 0.98914 0.04627 0.46744 0.0
C100 C 0.9731 0.06864 0.45096 0.0
C101 C 0.97404 0.08144 0.3626 0.0
C102 C 0.96205 0.10502 0.35251 0.0
C103 C 0.94897 0.11617 0.43089 0.0
C104 C 0.94712 0.10261 0.51794 0.0
C105 C 0.95917 0.07912 0.52798 0.0
C106 C 0.973 0.02277 0.7801 0.0
C107 C 1.0191 0.07213 0.77443 0.0
O108 O 0.03252 1.00455 0.94425 0.0
O109 O 0.06869 1.00233 0.86788 0.0
O110 O 0.04137 1.01641 0.64594 0.0
O111 O 0.06628 0.03789 0.72991 0.0
O112 O 0.02648 0.97764 0.7429 0.0
O113 O 1.00715 0.98714 0.59739 0.0
O114 O 1.01117 0.05157 0.5072 0.0
O115 O 0.97772 0.02661 0.50769 0.0
O116 O 0.99684 1.0207 0.77385 0.0
O117 O 0.96501 0.0276 0.69413 0.0
O118 O 1.01154 0.06578 0.68624 0.0
O119 O 0.02694 0.05487 0.8371 0.0
H120 H 0.02114 0.95741 0.91493 0.0
H121 H 0.02845 0.91207 0.92537 0.0
H122 H 0.10335 0.9265 0.04316 0.0
H123 H 0.09644 0.97233 0.02483 0.0
H124 H 0.98499 0.0738 0.30291 0.0
H125 H 0.96431 0.11514 0.28491 0.0
H126 H 0.93707 0.11052 0.57936 0.0
H127 H 0.95851 0.0697 0.59733 0.0
Tb128 Tb 0.53449 0.03276 0.87705 0.0
Tb129 Tb 0.52026 1.00171 0.69803 0.0
C130 C 0.55364 0.04493 0.0348 0.0
C131 C 0.57571 0.06147 0.05285 0.0
C132 C 0.58854 0.06025 0.14074 0.0
C133 C 0.61154 0.07337 0.15257 0.0
C134 C 0.62206 0.08794 0.07649 0.0
C135 C 0.60847 0.08994 0.98993 0.0
C136 C 0.5856 0.0767 0.97807 0.0
C137 C 0.52863 0.06413 0.72709 0.0
C138 C 0.57723 1.0172 0.71941 0.0
C139 C 0.49656 0.98438 0.55729 0.0
C140 C 0.46883 0.98609 0.54208 0.0
C141 C 0.45731 1.00994 0.52844 0.0
C142 C 0.43105 1.01254 0.53796 0.0
C143 C 0.41569 0.99139 0.56136 0.0
C144 C 0.42698 0.96728 0.56948 0.0
C145 C 0.45332 0.96465 0.55961 0.0
C146 C 0.53645 0.97527 0.84758 0.0
C147 C 0.47648 0.02161 0.84427 0.0
O148 O 0.5591 0.0236 0.98989 0.0
O149 O 0.53362 0.05633 0.99888 0.0
O150 O 0.52618 0.04029 0.73061 0.0
O151 O 0.53461 0.0713 0.81317 0.0
O152 O 0.57159 0.02402 0.80939 0.0
O153 O 0.55942 1.01019 0.65726 0.0
O154 O 0.5095 1.00584 0.55342 0.0
O155 O 0.50306 0.97034 0.63113 0.0
O156 O 0.52197 0.99446 0.85034 0.0
O157 O 0.5419 0.97021 0.75828 0.0
O158 O 0.48282 1.01253 0.75809 0.0
O159 O 0.49389 0.02874 0.90766 0.0
H160 H 0.58133 0.04834 0.19872 0.0
H161 H 0.62171 0.07096 0.21963 0.0
H162 H 0.61588 0.1011 0.93027 0.0
H163 H 0.57615 0.07763 0.9091 0.0
H164 H 0.46861 0.02689 0.51467 0.0
H165 H 0.4228 0.03123 0.52798 0.0
H166 H 0.4156 0.95061 0.58684 0.0
H167 H 0.46171 0.94606 0.57094 0.0
Tb168 Tb 0.5052 0.52262 0.86521 0.0
Tb169 Tb 0.53492 0.50953 0.68141 0.0
C170 C 0.49447 0.5419 0.02464 0.0
C171 C 0.47921 0.56474 0.04337 0.0
C172 C 0.48083 0.57738 0.13189 0.0
C173 C 0.46924 0.60112 0.144 0.0
C174 C 0.45589 0.61259 0.06753 0.0
C175 C 0.45347 0.59926 0.98025 0.0
C176 C 0.46512 0.57563 0.9682 0.0
C177 C 0.47288 0.5187 0.71762 0.0
C178 C 0.51921 0.56597 0.70981 0.0
C179 C 0.5526 0.48907 0.53215 0.0
C180 C 0.56293 0.46338 0.51536 0.0
C181 C 0.54924 0.44159 0.54416 0.0
C182 C 0.56034 0.41756 0.53833 0.0
C183 C 0.58528 0.41477 0.50286 0.0
C184 C 0.59879 0.43648 0.47185 0.0
C185 C 0.58773 0.46063 0.47852 0.0
C186 C 0.5624 0.52462 0.83051 0.0
C187 C 0.51788 0.46476 0.82989 0.0
O188 O 0.51598 0.54644 0.97905 0.0
O189 O 0.482 0.52237 0.98866 0.0
O190 O 0.49667 0.51607 0.71775 0.0
O191 O 0.46635 0.52329 0.80583 0.0
O192 O 0.51445 0.56002 0.80122 0.0
O193 O 0.52417 0.54827 0.64435 0.0
O194 O 0.52814 0.49068 0.55058 0.0
O195 O 0.56616 0.5033 0.58987 0.0
O196 O 0.5431 0.51014 0.83325 0.0
O197 O 0.5671 0.53053 0.74151 0.0
O198 O 0.52815 0.47153 0.74567 0.0
O199 O 0.50894 0.48182 0.8918 0.0
H200 H 0.49192 0.56942 0.19016 0.0
H201 H 0.47191 0.61105 0.21167 0.0
H202 H 0.4432 0.60741 0.92026 0.0
H203 H 0.46394 0.56633 0.89873 0.0
H204 H 0.53007 0.44308 0.57269 0.0
H205 H 0.54922 0.40108 0.56028 0.0
H206 H 0.61795 0.4348 0.44334 0.0
H207 H 0.59868 0.47721 0.45638 0.0
Tb208 Tb 1.01662 0.50198 0.82628 0.0
Tb209 Tb 0.02821 0.53527 0.66831 0.0
C210 C 0.99579 0.47999 0.96728 0.0
C211 C 0.9696 0.47043 0.98166 0.0
C212 C 0.94863 0.48601 0.96146 0.0
C213 C 0.92397 0.47613 0.96568 0.0
C214 C 0.91971 0.45055 0.99108 0.0
C215 C 0.9406 0.43507 0.01373 0.0
C216 C 0.9654 0.44492 0.0084 0.0
C217 C 0.032 0.47734 0.66996 0.0
C218 C 0.9718 0.51966 0.68377 0.0
C219 C 0.04847 0.55767 0.52689 0.0
C220 C 0.0741 0.56858 0.51201 0.0
C221 C 0.09588 0.55444 0.53468 0.0
C222 C 0.11996 0.56561 0.52895 0.0
C223 C 0.12284 0.59103 0.49901 0.0
C224 C 0.10114 0.60507 0.47407 0.0
C225 C 0.07691 0.59396 0.48129 0.0
C226 C 1.01268 0.55972 0.82512 0.0
C227 C 0.07312 0.5175 0.81075 0.0
O228 O 0.99872 0.50475 0.96144 0.0
O229 O 1.00895 0.46803 0.90143 0.0
O230 O 1.01691 0.49605 0.67217 0.0
O231 O 0.03874 0.47203 0.75718 0.0
O232 O 0.9783 0.51111 0.77009 0.0
O233 O 0.98946 0.52753 0.62259 0.0
O234 O 0.04687 0.53283 0.53452 0.0
O235 O 0.03461 0.56923 0.59166 0.0
O236 O 0.02792 0.54117 0.82232 0.0
O237 O 1.006 0.56515 0.73798 0.0
O238 O 0.06659 0.52637 0.72483 0.0
O239 O 0.05549 0.50932 0.87153 0.0
H240 H 0.9512 0.50578 0.94092 0.0
H241 H 0.90816 0.48866 0.95043 0.0
H242 H 0.93775 0.41537 0.03474 0.0
H243 H 0.98132 0.43255 0.024 0.0
H244 H 0.09436 0.53476 0.55761 0.0
H245 H 0.13644 0.55413 0.54594 0.0
H246 H 0.10294 0.6246 0.44951 0.0
H247 H 0.06034 0.60523 0.4636 0.0
H248 H 0.15189 1.01946 0.1075 0.0
H249 H 0.20225 0.04714 0.32869 0.0
H250 H 0.11602 1.02134 0.22104 0.0
H251 H 0.16725 0.04755 0.44365 0.0
H252 H 0.09856 0.06596 0.62054 0.0
H253 H 0.13097 0.06781 0.49458 0.0
H254 H 0.09622 1.00275 0.35489 0.0
H255 H 0.06296 1.00202 0.47888 0.0
C256 C 0.15528 0.02577 0.18072 0.0
C257 C 0.17987 0.03297 0.20944 0.0
C258 C 0.13476 0.02668 0.24631 0.0
C259 C 0.13842 0.03463 0.34257 0.0
C260 C 0.16326 0.04182 0.37031 0.0
C261 C 0.18359 0.04122 0.30449 0.0
C262 C 0.09768 0.05229 0.5621 0.0
C263 C 0.07826 0.03381 0.55993 0.0
C264 C 0.11649 0.05311 0.49008 0.0
C265 C 0.11679 0.03512 0.41445 0.0
C266 C 0.09674 1.01711 0.41086 0.0
C267 C 0.07763 1.01659 0.48231 0.0
H268 H 0.47532 0.16342 0.2636 0.0
H269 H 0.55282 0.18719 0.31323 0.0
H270 H 0.4804 0.12845 0.37977 0.0
H271 H 0.55807 0.1524 0.42875 0.0
H272 H 0.54538 0.11262 0.71968 0.0
H273 H 0.5415 0.14351 0.59039 0.0
H274 H 0.50324 0.08724 0.41523 0.0
H275 H 0.50714 0.05598 0.54691 0.0
C276 C 0.49349 0.161 0.299 0.0
C277 C 0.5136 0.17809 0.28049 0.0
C278 C 0.49647 0.1409 0.36498 0.0
C279 C 0.5196 0.13763 0.41429 0.0
C280 C 0.53988 0.15451 0.39332 0.0
C281 C 0.53691 0.17445 0.32707 0.0
C282 C 0.53626 0.10667 0.65343 0.0
C283 C 0.52667 0.08174 0.64347 0.0
C284 C 0.53418 0.12441 0.57883 0.0
C285 C 0.52222 0.11792 0.49179 0.0
C286 C 0.51253 0.09292 0.48141 0.0
C287 C 0.5149 0.07493 0.55638 0.0
H288 H 0.34248 0.54573 0.3497 0.0
H289 H 0.37721 0.47989 0.21887 0.0
H290 H 0.37731 0.54844 0.46509 0.0
H291 H 0.41221 0.48229 0.3355 0.0
H292 H 0.48173 0.50934 0.5226 0.0
H293 H 0.44973 0.50794 0.39332 0.0
H294 H 0.39066 0.52355 0.60267 0.0
H295 H 0.42218 0.52499 0.72948 0.0
C296 C 0.35762 0.53185 0.34555 0.0
C297 C 0.35708 0.5125 0.27592 0.0
C298 C 0.3776 0.53332 0.41193 0.0
C299 C 0.39757 0.51544 0.41043 0.0
C300 C 0.39732 0.49648 0.33853 0.0
C301 C 0.37722 0.49499 0.27216 0.0
C302 C 0.4619 0.51235 0.54053 0.0
C303 C 0.45454 0.51722 0.63636 0.0
C304 C 0.44354 0.51153 0.46666 0.0
C305 C 0.41755 0.51588 0.48724 0.0
C306 C 0.41044 0.52061 0.58337 0.0
C307 C 0.4286 0.52124 0.65649 0.0
H308 H 0.99305 0.36228 0.23874 0.0
H309 H 0.07396 0.3537 0.27521 0.0
H310 H 0.99326 0.39842 0.35132 0.0
H311 H 0.07452 0.38996 0.38606 0.0
H312 H 0.06098 0.43466 0.66544 0.0
H313 H 0.06128 0.40078 0.54571 0.0
H314 H 1.00701 0.44247 0.37479 0.0
H315 H 1.00642 0.47638 0.49676 0.0
C316 C 1.01088 0.36824 0.27084 0.0
C317 C 0.03346 0.3552 0.24919 0.0
C318 C 1.01109 0.38907 0.33471 0.0
C319 C 0.03391 0.39723 0.37842 0.0
C320 C 0.05651 0.3841 0.35532 0.0
C321 C 0.05626 0.36336 0.29153 0.0
C322 C 0.04925 0.43674 0.60193 0.0
C323 C 0.03366 0.45823 0.59082 0.0
C324 C 0.0495 0.4173 0.53277 0.0
C325 C 0.03414 0.4187 0.45008 0.0
C326 C 1.01885 0.44051 0.43798 0.0
C327 C 1.01868 0.46009 0.5074 0.0
H328 H 0.85137 0.05049 0.19738 0.0
H329 H 0.87624 0.97434 0.26355 0.0
H330 H 0.88591 0.0549 0.07944 0.0
H331 H 0.9109 0.97853 0.14472 0.0
H332 H 0.98225 1.00372 0.96432 0.0
H333 H 0.95167 1.00127 0.09971 0.0
H334 H 0.89451 0.03649 0.9219 0.0
H335 H 0.92466 0.03903 0.78934 0.0
C336 C 0.8643 0.03471 0.1867 0.0
C337 C 0.86102 1.012 0.23864 0.0
C338 C 0.88411 0.03718 0.11903 0.0
C339 C 0.90119 1.017 0.10174 0.0
C340 C 0.8983 0.99453 0.15647 0.0
C341 C 0.87836 0.99205 0.22398 0.0
C342 C 0.96325 1.01116 0.95505 0.0
C343 C 0.95597 0.02167 0.8662 0.0
C344 C 0.94565 1.0096 0.0322 0.0
C345 C 0.92058 1.01887 0.02218 0.0
C346 C 0.91366 0.02957 0.93333 0.0
C347 C 0.93099 0.03086 0.85678 0.0
H348 H 0.49857 0.85949 0.2762 0.0
H349 H 0.57871 0.84829 0.22471 0.0
H350 H 0.49905 0.89628 0.16671 0.0
H351 H 0.57955 0.88519 0.11675 0.0
H352 H 0.56425 0.93182 0.84281 0.0
H353 H 0.5649 0.89733 0.96011 0.0
H354 H 0.51444 0.94001 0.14599 0.0
H355 H 0.51351 0.97455 0.0267 0.0
C356 C 0.51629 0.86502 0.24146 0.0
C357 C 0.53856 0.85109 0.25801 0.0
C358 C 0.51666 0.8862 0.1794 0.0
C359 C 0.53935 0.89382 0.13247 0.0
C360 C 0.56165 0.87977 0.15028 0.0
C361 C 0.56124 0.85867 0.21233 0.0
C362 C 0.55349 0.93399 0.90916 0.0
C363 C 0.53879 0.95591 0.9253 0.0
C364 C 0.55393 0.9142 0.97683 0.0
C365 C 0.53966 0.91571 0.06284 0.0
C366 C 0.5254 0.93798 0.08009 0.0
C367 C 0.52504 0.9579 0.01222 0.0
H368 H 0.67819 0.49125 0.26029 0.0
H369 H 0.68798 0.57155 0.20554 0.0
H370 H 0.64144 0.49025 0.15166 0.0
H371 H 0.65111 0.57093 0.09844 0.0
H372 H 0.60549 0.55327 0.82499 0.0
H373 H 0.63966 0.55525 0.94244 0.0
H374 H 0.5975 0.50423 0.12947 0.0
H375 H 0.56325 0.50197 0.00989 0.0
C376 C 0.67233 0.50869 0.22513 0.0
C377 C 0.68588 0.53144 0.24043 0.0
C378 C 0.65118 0.50822 0.16353 0.0
C379 C 0.64321 0.5305 0.11574 0.0
C380 C 0.65681 0.5533 0.13258 0.0
C381 C 0.67789 0.55374 0.19419 0.0
C382 C 0.60337 0.54264 0.89156 0.0
C383 C 0.58167 0.52743 0.90797 0.0
C384 C 0.62297 0.54386 0.95936 0.0
C385 C 0.62151 0.52988 0.04585 0.0
C386 C 0.59948 0.51502 0.06325 0.0
C387 C 0.57974 0.51388 0.9952 0.0
H388 H 0.04803 0.67281 0.2676 0.0
H389 H 0.96727 0.68085 0.22546 0.0
H390 H 0.04874 0.63708 0.15325 0.0
H391 H 0.96762 0.64498 0.11269 0.0
H392 H 0.98337 0.60215 0.83047 0.0
H393 H 0.98195 0.63527 0.95314 0.0
H394 H 0.03557 0.59306 0.1252 0.0
H395 H 0.03727 0.55992 1.00034 0.0
C396 C 0.03042 0.66676 0.23409 0.0
C397 C 1.00762 0.67954 0.25465 0.0
C398 C 0.03074 0.64619 0.16912 0.0
C399 C 1.00824 0.63804 0.12307 0.0
C400 C 0.98539 0.65084 0.14529 0.0
C401 C 0.98511 0.67134 0.21024 0.0
C402 C 0.99472 0.5998 0.89481 0.0
C403 C 1.01046 0.5784 0.90546 0.0
C404 C 0.99382 0.61879 0.96567 0.0
C405 C 1.00865 0.61701 0.04962 0.0
C406 C 0.02411 0.5953 0.06114 0.0
C407 C 0.02494 0.57617 0.99001 0.0
H408 H 0.99604 0.25786 0.36219 0.0
H409 H 0.93207 0.25929 0.16917 0.0
H410 H 0.97522 0.22534 0.45799 0.0
H411 H 0.91018 0.22751 0.26816 0.0
H412 H 0.92582 0.13961 0.27884 0.0
H413 H 0.92256 0.18498 0.25213 0.0
H414 H 0.94723 0.19916 0.5445 0.0
H415 H 0.95216 0.15356 0.56872 0.0
C416 C 0.97668 0.25247 0.34425 0.0
C417 C 0.96591 0.26042 0.25718 0.0
C418 C 0.96461 0.23363 0.39921 0.0
C419 C 0.94147 0.22278 0.36799 0.0
C420 C 0.92849 0.23466 0.2918 0.0
C421 C 0.94081 0.25316 0.2358 0.0
C422 C 0.93016 0.15238 0.33794 0.0
C423 C 0.94008 0.14296 0.42454 0.0
C424 C 0.92784 0.17857 0.3234 0.0
C425 C 0.93521 0.19599 0.39557 0.0
C426 C 0.94199 0.18637 0.48651 0.0
C427 C 0.94461 0.16013 0.50065 0.0
H428 H 0.30555 0.06707 0.35273 0.0
H429 H 0.26582 0.99506 0.36908 0.0
H430 H 0.33053 0.05572 0.49188 0.0
H431 H 0.29051 0.98357 0.51119 0.0
H432 H 0.37787 0.96037 0.49476 0.0
H433 H 0.33347 0.97112 0.47808 0.0
H434 H 0.34566 0.04026 0.64174 0.0
H435 H 0.39062 0.02981 0.65515 0.0
C436 C 0.30129 0.04933 0.38971 0.0
C437 C 0.2846 0.03151 0.34891 0.0
C438 C 0.31547 0.04279 0.47032 0.0
C439 C 0.31329 1.01817 0.51019 0.0
C440 C 0.29314 1.00234 0.47999 0.0
C441 C 0.27893 1.00893 0.39896 0.0
C442 C 0.37096 0.97741 0.53013 0.0
C443 C 0.38787 0.99466 0.57335 0.0
C444 C 0.34528 0.98352 0.52161 0.0
C445 C 0.33608 1.007 0.5563 0.0
C446 C 0.35231 0.02239 0.61193 0.0
C447 C 0.37809 1.01649 0.61894 0.0
H448 H 0.60796 0.27863 0.20439 0.0
H449 H 0.54508 0.27366 0.40454 0.0
H450 H 0.6293 0.30901 0.31019 0.0
H451 H 0.56529 0.30482 0.50741 0.0
H452 H 0.58539 0.3756 0.63339 0.0
H453 H 0.59253 0.33061 0.59759 0.0
H454 H 0.61506 0.35107 0.30689 0.0
H455 H 0.60879 0.39554 0.34419 0.0
C456 C 0.59936 0.28308 0.27354 0.0
C457 C 0.57467 0.27448 0.29558 0.0
C458 C 0.61138 0.30073 0.33366 0.0
C459 C 0.59841 0.31051 0.4146 0.0
C460 C 0.57584 0.29819 0.4451 0.0
C461 C 0.56411 0.28016 0.38597 0.0
C462 C 0.59266 0.37036 0.56289 0.0
C463 C 0.59592 0.3889 0.49063 0.0
C464 C 0.59676 0.34461 0.54232 0.0
C465 C 0.60368 0.33696 0.44855 0.0
C466 C 0.60985 0.35595 0.38018 0.0
C467 C 0.60606 0.38164 0.40118 0.0
H468 H 0.26227 0.54763 0.39279 0.0
H469 H 0.25828 0.60932 0.18839 0.0
H470 H 0.23178 0.56885 0.49557 0.0
H471 H 0.22864 0.63175 0.29413 0.0
H472 H 0.14173 0.61441 0.33943 0.0
H473 H 0.18617 0.61932 0.2973 0.0
H474 H 0.20739 0.59681 0.58613 0.0
H475 H 0.16243 0.59077 0.62624 0.0
C476 C 0.2561 0.56661 0.37307 0.0
C477 C 0.26194 0.57656 0.28183 0.0
C478 C 0.23846 0.57894 0.43217 0.0
C479 C 0.22666 0.60155 0.40095 0.0
C480 C 0.23648 0.61382 0.31834 0.0
C481 C 0.25374 0.60119 0.25825 0.0
C482 C 0.15585 0.61142 0.3949 0.0
C483 C 0.14877 0.60156 0.48503 0.0
C484 C 0.18153 0.6144 0.37114 0.0
C485 C 0.20065 0.60775 0.4375 0.0
C486 C 0.19327 0.60131 0.53219 0.0
C487 C 0.16754 0.59792 0.55538 0.0
H488 H 0.04087 0.76095 0.10792 0.0
H489 H 0.10183 0.79042 0.2837 0.0
H490 H 0.05242 0.79074 0.98079 0.0
H491 H 0.11281 0.82082 0.15782 0.0
H492 H 0.11148 0.8885 0.9615 0.0
H493 H 0.1183 0.84307 0.99225 0.0
H494 H 0.03789 0.83359 0.04927 0.0
H495 H 0.03128 0.87839 0.02547 0.0
C496 C 0.05777 0.77261 0.11717 0.0
C497 C 0.06964 0.77443 0.20741 0.0
C498 C 0.06434 0.78978 0.0442 0.0
C499 C 0.08252 0.80895 0.062 0.0
C500 C 0.09828 0.80664 0.14299 0.0
C501 C 0.0919 0.78927 0.21555 0.0
C502 C 0.09525 0.87668 0.9804 0.0
C503 C 0.07082 0.88736 0.99183 0.0
C504 C 0.09916 0.85061 0.99615 0.0
C505 C 0.0786 0.83468 0.02121 0.0
C506 C 0.05406 0.84512 0.02698 0.0
C507 C 0.05026 0.87106 0.01358 0.0
H508 H 0.76331 0.10816 0.34197 0.0
H509 H 0.76445 0.0473 0.13345 0.0
H510 H 0.73137 0.1304 0.24721 0.0
H511 H 0.73181 0.06838 0.04161 0.0
H512 H 0.65947 0.08898 0.93753 0.0
H513 H 0.70469 0.09626 0.96223 0.0
H514 H 0.68935 0.11606 0.25975 0.0
H515 H 0.64427 0.11057 0.23283 0.0
C516 C 0.7577 0.10026 0.27305 0.0
C517 C 0.76567 0.07577 0.24597 0.0
C518 C 0.73912 0.11277 0.21936 0.0
C519 C 0.72788 0.10052 0.13979 0.0
C520 C 0.73954 0.07836 0.10323 0.0
C521 C 0.75846 0.06614 0.15593 0.0
C522 C 0.66564 0.09599 0.00706 0.0
C523 C 0.64831 0.09842 0.08429 0.0
C524 C 0.69169 0.09996 0.02143 0.0
C525 C 0.70095 0.10596 0.11368 0.0
C526 C 0.68322 0.11139 0.18748 0.0
C527 C 0.65722 0.10776 0.17274 0.0
H528 H 0.43596 0.75517 0.33366 0.0
H529 H 0.50028 0.75553 0.13946 0.0
H530 H 0.41504 0.72296 0.23466 0.0
H531 H 0.48035 0.72269 0.04331 0.0
H532 H 0.43331 0.63547 0.22294 0.0
H533 H 0.42919 0.68075 0.25099 0.0
H534 H 0.4528 0.6959 0.95707 0.0
H535 H 0.45848 0.65042 0.93117 0.0
C536 C 0.44494 0.7494 0.26667 0.0
C537 C 0.46995 0.75718 0.24525 0.0
C538 C 0.43318 0.73064 0.21066 0.0
C539 C 0.4466 0.71916 0.13414 0.0
C540 C 0.46947 0.73065 0.10249 0.0
C541 C 0.48101 0.7497 0.1576 0.0
C542 C 0.43726 0.64843 0.16384 0.0
C543 C 0.44699 0.63935 0.07603 0.0
C544 C 0.43443 0.67454 0.17918 0.0
C545 C 0.44114 0.69222 0.1067 0.0
C546 C 0.44797 0.6829 0.01511 0.0
C547 C 0.45105 0.65674 1.00009 0.0
H548 H 0.7814 0.49764 0.10425 0.0
H549 H 0.78258 0.43223 0.29201 0.0
H550 H 0.81146 0.47726 0.99713 0.0
H551 H 0.81171 0.41072 0.18159 0.0
H552 H 0.89929 0.42562 0.1446 0.0
H553 H 0.85457 0.42183 0.18385 0.0
H554 H 0.83521 0.45009 0.90039 0.0
H555 H 0.88049 0.45487 0.8633 0.0
C556 C 0.7868 0.47812 0.11902 0.0
C557 C 0.78034 0.46673 0.2072 0.0
C558 C 0.8042 0.46627 0.05743 0.0
C559 C 0.8151 0.44274 0.08309 0.0
C560 C 0.80457 0.42932 0.16185 0.0
C561 C 0.78759 0.44144 0.22452 0.0
C562 C 0.88548 0.43015 0.0895 0.0
C563 C 0.89326 0.44117 1.00213 0.0
C564 C 0.85964 0.42782 0.11155 0.0
C565 C 0.84101 0.43631 0.04619 0.0
C566 C 0.84895 0.44411 0.95361 0.0
C567 C 0.87487 0.44681 0.93219 0.0
H568 H 0.97502 0.22727 0.91745 0.0
H569 H 0.05162 0.22271 0.02592 0.0
H570 H 0.97936 0.18516 0.84463 0.0
H571 H 0.05622 0.18049 0.95205 0.0
H572 H 0.9996 0.11324 0.67625 0.0
H573 H 0.99964 0.15803 0.72487 0.0
H574 H 0.03877 0.13819 0.98717 0.0
H575 H 0.03897 0.09357 0.93837 0.0
C576 C 0.9931 0.21754 0.92318 0.0
C577 C 1.01302 0.22842 0.97711 0.0
C578 C 0.9956 0.19333 0.88146 0.0
C579 C 1.01805 0.17913 0.89319 0.0
C580 C 0.03851 0.19064 0.94267 0.0
C581 C 0.03606 0.21503 0.98378 0.0
C582 C 1.00833 0.11841 0.74412 0.0
C583 C 1.01923 0.09961 0.80334 0.0
C584 C 1.00829 0.14416 0.7722 0.0
C585 C 1.01932 0.15191 0.85994 0.0
C586 C 0.03047 0.13312 0.91844 0.0
C587 C 0.03035 0.10739 0.89075 0.0
H588 H 0.32668 0.07303 0.04194 0.0
H589 H 0.31486 0.9933 0.9827 0.0
H590 H 0.36993 0.07038 0.97735 0.0
H591 H 0.35847 0.99015 0.92051 0.0
H592 H 0.43587 0.99636 0.76349 0.0
H593 H 0.3908 0.99946 0.80618 0.0
H594 H 0.40939 0.05411 0.02805 0.0
H595 H 0.45436 0.05073 0.98597 0.0
C596 C 0.33314 0.05508 0.01218 0.0
C597 C 0.31716 0.03352 0.01554 0.0
C598 C 0.35817 0.05336 0.97689 0.0
C599 C 0.3682 0.0299 0.9452 0.0
C600 C 0.35163 1.00861 0.94352 0.0
C601 C 0.32646 1.01041 0.97847 0.0
C602 C 0.43031 1.00919 0.82093 0.0
C603 C 0.44886 0.02347 0.87057 0.0
C604 C 0.40436 1.01093 0.84571 0.0
C605 C 0.39603 0.02753 0.91917 0.0
C606 C 0.41472 0.04164 0.96921 0.0
C607 C 0.44069 0.03953 0.94569 0.0
H608 H 0.48717 0.31177 0.07126 0.0
H609 H 0.56423 0.3102 0.96303 0.0
H610 H 0.48152 0.35428 1.00095 0.0
H611 H 0.55903 0.3526 0.89506 0.0
H612 H 0.54024 0.42459 0.7356 0.0
H613 H 0.5402 0.37975 0.77987 0.0
H614 H 0.49569 0.39718 0.03409 0.0
H615 H 0.49494 0.44202 0.98729 0.0
C616 C 0.50264 0.3202 0.03007 0.0
C617 C 0.52609 0.30753 0.02229 0.0
C618 C 0.4996 0.34478 0.99113 0.0
C619 C 0.5199 0.35724 0.94302 0.0
C620 C 0.54282 0.34377 0.93057 0.0
C621 C 0.54586 0.31936 0.96965 0.0
C622 C 0.53009 0.4189 0.80006 0.0
C623 C 0.5175 0.43713 0.85721 0.0
C624 C 0.53026 0.39306 0.82622 0.0
C625 C 0.51796 0.38456 0.91093 0.0
C626 C 0.50506 0.40276 0.96758 0.0
C627 C 0.50485 0.42864 0.94117 0.0
H628 H 0.22758 0.56416 0.94752 0.0
H629 H 0.22395 0.48798 0.06347 0.0
H630 H 0.18544 0.55872 0.87788 0.0
H631 H 0.18169 0.48214 0.99193 0.0
H632 H 0.09442 0.49662 0.97329 0.0
H633 H 0.13897 0.49753 0.02258 0.0
H634 H 0.1587 0.53855 0.76242 0.0
H635 H 0.11416 0.53825 0.71514 0.0
C636 C 0.21803 0.54591 0.95555 0.0
C637 C 0.2292 0.52647 0.01067 0.0
C638 C 0.19378 0.54276 0.91558 0.0
C639 C 0.17983 0.52005 0.92981 0.0
C640 C 0.19161 0.50004 0.98063 0.0
C641 C 0.21604 0.50319 0.02032 0.0
C642 C 0.10825 0.50579 0.9264 0.0
C643 C 0.10052 0.51737 0.83984 0.0
C644 C 0.13394 0.50609 0.95429 0.0
C645 C 0.15269 0.51805 0.89661 0.0
C646 C 0.14493 0.52934 0.80948 0.0
C647 C 0.11928 0.52901 0.78172 0.0
H648 H 0.98558 0.81397 0.45033 0.0
H649 H 0.0645 0.81599 0.5337 0.0
H650 H 0.97999 0.85727 0.51396 0.0
H651 H 0.05931 0.85911 0.59481 0.0
H652 H 0.04174 0.93186 0.74961 0.0
H653 H 0.04195 0.88666 0.71174 0.0
H654 H 0.99192 0.90044 0.47131 0.0
H655 H 0.99072 0.94573 0.51298 0.0
C656 C 1.00154 0.82339 0.48463 0.0
C657 C 0.02544 0.81144 0.48756 0.0
C658 C 0.99849 0.84841 0.51966 0.0
C659 C 1.01924 0.86203 0.559 0.0
C660 C 0.04275 0.84939 0.56627 0.0
C661 C 0.04578 0.82456 0.53109 0.0
C662 C 0.03029 0.92526 0.69008 0.0
C663 C 1.01595 0.9426 0.63548 0.0
C664 C 0.03069 0.89923 0.66724 0.0
C665 C 1.01701 0.8896 0.58801 0.0
C666 C 1.00243 0.90691 0.5337 0.0
C667 C 1.00194 0.93302 0.55703 0.0
H668 H 0.72661 0.9871 0.45081 0.0
H669 H 0.73373 0.06051 0.58775 0.0
H670 H 0.68411 0.98178 0.52277 0.0
H671 H 0.6914 0.05553 0.65866 0.0
H672 H 0.61909 0.03363 0.82064 0.0
H673 H 0.66366 0.03351 0.77027 0.0
H674 H 0.64226 1.00054 0.49703 0.0
H675 H 0.5977 1.0003 0.54787 0.0
C676 C 0.71943 1.00172 0.49883 0.0
C677 C 0.73365 0.0241 0.51438 0.0
C678 C 0.69488 0.99891 0.53881 0.0
C679 C 0.68402 1.01836 0.59588 0.0
C680 C 0.69902 0.04003 0.61595 0.0
C681 C 0.72339 0.04289 0.57548 0.0
C682 C 0.62382 0.02623 0.74989 0.0
C683 C 0.60459 1.01703 0.6884 0.0
C684 C 0.64949 0.02624 0.7208 0.0
C685 C 0.65678 1.01695 0.62945 0.0
C686 C 0.63756 1.00748 0.56844 0.0
C687 C 0.61187 1.00757 0.59735 0.0
H688 H 0.47937 0.72349 0.58874 0.0
H689 H 0.554 0.71625 0.46113 0.0
H690 H 0.48277 0.68067 0.65644 0.0
H691 H 0.5576 0.67325 0.52913 0.0
H692 H 0.53588 0.58705 0.53927 0.0
H693 H 0.53673 0.63197 0.49321 0.0
H694 H 0.50449 0.65226 0.76963 0.0
H695 H 0.50349 0.60733 0.81566 0.0
C696 C 0.49686 0.71299 0.57785 0.0
C697 C 0.51651 0.72334 0.52039 0.0
C698 C 0.49881 0.68838 0.61638 0.0
C699 C 0.52034 0.67329 0.59744 0.0
C700 C 0.54059 0.68418 0.54411 0.0
C701 C 0.53874 0.70897 0.50641 0.0
C702 C 0.52897 0.60105 0.59038 0.0
C703 C 0.51956 0.59342 0.68117 0.0
C704 C 0.5297 0.6269 0.56427 0.0
C705 C 0.52084 0.64587 0.62783 0.0
C706 C 0.51139 0.63823 0.7186 0.0
C707 C 0.51087 0.6124 0.74509 0.0
H708 H 0.82007 0.55159 0.44449 0.0
H709 H 0.8179 0.47321 0.53778 0.0
H710 H 0.86254 0.55652 0.51517 0.0
H711 H 0.86022 0.47783 0.60683 0.0
H712 H 0.95012 0.5426 0.52614 0.0
H713 H 0.90548 0.54189 0.4775 0.0
H714 H 0.88664 0.49661 0.72831 0.0
H715 H 0.93129 0.49676 0.77483 0.0
C716 C 0.82837 0.53564 0.48243 0.0
C717 C 0.81555 0.51206 0.48597 0.0
C718 C 0.85289 0.53831 0.52164 0.0
C719 C 0.86509 0.5175 0.56602 0.0
C720 C 0.85154 0.49437 0.57412 0.0
C721 C 0.8272 0.49168 0.53445 0.0
C722 C 0.93646 0.53253 0.57106 0.0
C723 C 0.94442 0.51978 0.65489 0.0
C724 C 0.91074 0.53233 0.54363 0.0
C725 C 0.89224 0.51927 0.59895 0.0
C726 C 0.90024 0.50673 0.68325 0.0
C727 C 0.92591 0.50699 0.71064 0.0
loop_
_geom_bond_atom_site_label_1
_geom_bond_atom_site_label_2
_geom_bond_distance
_geom_bond_site_symmetry_2
_ccdc_geom_bond_type
H0 C3 0.929 . S
H1 C6 0.929 . S
H2 C8 0.930 . S
C3 H0 0.929 . S
C3 C4 1.398 . S
C3 C5 1.396 . S
C4 C3 1.398 . S
C4 C8 1.407 . S
C5 C3 1.396 . S
C5 C6 1.394 . S
C6 H1 0.929 . S
C6 C5 1.394 . S
C6 C7 1.382 . S
C7 C6 1.382 . S
C7 C8 1.392 . S
C7 N9 1.420 . S
C8 H2 0.930 . S
C8 C4 1.407 . S
C8 C7 1.392 . S
N9 C7 1.420 . S
N9 C10 1.244 . S
C10 N9 1.244 . S
H11 C14 0.929 . S
H12 C17 0.929 . S
H13 C19 0.930 . S
C14 H11 0.929 . S
C14 C15 1.395 1_655 S
C14 C16 1.395 1_655 S
C15 C14 1.395 1_455 S
C15 C19 1.413 . S
C16 C14 1.395 1_455 S
C16 C17 1.397 . S
C17 H12 0.929 . S
C17 C16 1.397 . S
C17 C18 1.382 . S
C18 C17 1.382 . S
C18 C19 1.392 . S
C18 N20 1.420 . S
C19 H13 0.930 . S
C19 C15 1.413 . S
C19 C18 1.392 . S
N20 C18 1.420 . S
N20 C21 1.232 1_455 S
C21 N20 1.232 1_655 S
H22 C25 0.929 . S
H23 C28 0.929 . S
H24 C30 0.930 . S
C25 H22 0.929 . S
C25 C26 1.395 1_565 S
C25 C27 1.395 1_565 S
C26 C25 1.395 1_545 S
C26 C30 1.413 . S
C27 C25 1.395 1_545 S
C27 C28 1.397 . S
C28 H23 0.929 . S
C28 C27 1.397 . S
C28 C29 1.382 . S
C29 C28 1.382 . S
C29 C30 1.392 . S
C29 N31 1.420 . S
C30 H24 0.930 . S
C30 C26 1.413 . S
C30 C29 1.392 . S
N31 C29 1.420 . S
N31 C32 1.231 1_545 S
C32 N31 1.231 1_565 S
H33 C36 0.929 . S
H34 C39 0.929 . S
H35 C41 0.930 . S
C36 H33 0.929 . S
C36 C37 1.398 . S
C36 C38 1.396 . S
C37 C36 1.398 . S
C37 C41 1.407 . S
C38 C36 1.396 . S
C38 C39 1.394 . S
C39 H34 0.929 . S
C39 C38 1.394 . S
C39 C40 1.382 . S
C40 C39 1.382 . S
C40 C41 1.392 . S
C40 N42 1.420 . S
C41 H35 0.930 . S
C41 C37 1.407 . S
C41 C40 1.392 . S
N42 C40 1.420 . S
N42 C43 1.244 . S
C43 N42 1.244 . S
H44 C47 0.929 . S
H45 C50 0.929 . S
H46 C52 0.930 . S
C47 H44 0.929 . S
C47 C48 1.398 1_554 S
C47 C49 1.396 . S
C48 C47 1.398 1_556 S
C48 C52 1.407 . S
C49 C47 1.396 . S
C49 C50 1.394 . S
C50 H45 0.929 . S
C50 C49 1.394 . S
C50 C51 1.382 . S
C51 C50 1.382 . S
C51 C52 1.392 1_554 S
C51 N53 1.420 . S
C52 H46 0.930 . S
C52 C48 1.407 . S
C52 C51 1.392 1_556 S
N53 C51 1.420 . S
N53 C54 1.244 . S
C54 N53 1.244 . S
H55 C58 0.929 . S
H56 C61 0.929 . S
H57 C63 0.930 . S
C58 H55 0.929 . S
C58 C59 1.395 1_654 S
C58 C60 1.394 1_655 S
C59 C58 1.395 1_456 S
C59 C63 1.416 . S
C60 C58 1.394 1_455 S
C60 C61 1.398 . S
C61 H56 0.929 . S
C61 C60 1.398 . S
C61 C62 1.382 . S
C62 C61 1.382 . S
C62 C63 1.392 1_554 S
C62 N64 1.420 . S
C63 H57 0.930 . S
C63 C59 1.416 . S
C63 C62 1.392 1_556 S
N64 C62 1.420 . S
N64 C65 1.237 1_455 S
C65 N64 1.237 1_655 S
H66 C69 0.929 . S
H67 C72 0.929 . S
H68 C74 0.930 . S
C69 H66 0.929 . S
C69 C70 1.395 1_564 S
C69 C71 1.394 1_565 S
C70 C69 1.395 1_546 S
C70 C74 1.416 . S
C71 C69 1.394 1_545 S
C71 C72 1.398 . S
C72 H67 0.929 . S
C72 C71 1.398 . S
C72 C73 1.382 . S
C73 C72 1.382 . S
C73 C74 1.392 1_554 S
C73 N75 1.420 . S
C74 H68 0.930 . S
C74 C70 1.416 . S
C74 C73 1.392 1_556 S
N75 C73 1.420 . S
N75 C76 1.237 1_545 S
C76 N75 1.237 1_565 S
H77 C80 0.929 . S
H78 C83 0.929 . S
H79 C85 0.930 . S
C80 H77 0.929 . S
C80 C81 1.398 1_554 S
C80 C82 1.396 . S
C81 C80 1.398 1_556 S
C81 C85 1.407 . S
C82 C80 1.396 . S
C82 C83 1.394 . S
C83 H78 0.929 . S
C83 C82 1.394 . S
C83 C84 1.382 . S
C84 C83 1.382 . S
C84 C85 1.392 1_554 S
C84 N86 1.420 . S
C85 H79 0.930 . S
C85 C81 1.407 . S
C85 C84 1.392 1_556 S
N86 C84 1.420 . S
N86 C87 1.244 . S
C87 N86 1.244 . S
Tb88 C90 2.809 . S
Tb88 O108 2.484 . S
Tb88 O109 2.440 . S
Tb88 O110 2.658 1_565 S
Tb88 O111 2.409 . S
Tb88 O112 2.378 . S
Tb88 O116 2.325 1_455 S
Tb88 O119 2.341 1_565 S
Tb89 C99 2.809 . S
Tb89 O110 2.325 1_655 S
Tb89 O113 2.341 1_545 S
Tb89 O114 2.484 . S
Tb89 O115 2.440 . S
Tb89 O116 2.658 1_545 S
Tb89 O117 2.409 . S
Tb89 O118 2.378 . S
C90 Tb88 2.809 . S
C90 C91 1.514 . S
C90 O108 1.248 . S
C90 O109 1.266 . S
C91 C90 1.514 . S
C91 C92 1.359 1_556 S
C91 C96 1.348 . S
C92 C91 1.359 1_554 S
C92 C93 1.380 . S
C92 H120 0.929 1_455 S
C93 C92 1.380 . S
C93 C94 1.347 . S
C93 H121 0.931 1_455 S
C94 C93 1.347 . S
C94 C95 1.369 . S
C95 C94 1.369 . S
C95 C96 1.407 1_554 S
C95 H122 0.930 . S
C96 C91 1.348 . S
C96 C95 1.407 1_556 S
C96 H123 0.932 . S
C97 O110 1.281 1_565 S
C97 O111 1.254 . S
C98 O112 1.236 1_655 S
C98 O113 1.266 . S
C99 Tb89 2.809 . S
C99 C100 1.514 . S
C99 O114 1.248 . S
C99 O115 1.266 . S
C100 C99 1.514 . S
C100 C101 1.359 . S
C100 C105 1.348 . S
C101 C100 1.359 . S
C101 C102 1.380 . S
C101 H124 0.929 1_655 S
C102 C101 1.380 . S
C102 C103 1.347 . S
C102 H125 0.931 1_655 S
C103 C102 1.347 . S
C103 C104 1.369 . S
C104 C103 1.369 . S
C104 C105 1.408 . S
C104 H126 0.930 . S
C105 C100 1.348 . S
C105 C104 1.408 . S
C105 H127 0.930 . S
C106 O116 1.281 1_545 S
C106 O117 1.254 . S
C107 O118 1.236 1_455 S
C107 O119 1.266 . S
O108 Tb88 2.484 . S
O108 C90 1.248 . S
O109 Tb88 2.440 . S
O109 C90 1.266 . S
O110 Tb88 2.658 1_545 S
O110 Tb89 2.325 1_455 S
O110 C97 1.281 1_545 S
O111 Tb88 2.409 . S
O111 C97 1.254 . S
O112 Tb88 2.378 . S
O112 C98 1.236 1_455 S
O113 Tb89 2.341 1_565 S
O113 C98 1.266 . S
O114 Tb89 2.484 . S
O114 C99 1.248 . S
O115 Tb89 2.440 . S
O115 C99 1.266 . S
O116 Tb88 2.325 1_655 S
O116 Tb89 2.658 1_565 S
O116 C106 1.281 1_565 S
O117 Tb89 2.409 . S
O117 C106 1.254 . S
O118 Tb89 2.378 . S
O118 C107 1.236 1_655 S
O119 Tb88 2.341 1_545 S
O119 C107 1.266 . S
H120 C92 0.929 1_655 S
H121 C93 0.931 1_655 S
H122 C95 0.930 . S
H123 C96 0.932 . S
H124 C101 0.929 1_455 S
H125 C102 0.931 1_455 S
H126 C104 0.930 . S
H127 C105 0.930 . S
Tb128 C130 2.809 . S
Tb128 O148 2.502 . S
Tb128 O149 2.440 . S
Tb128 O150 2.658 . S
Tb128 O151 2.409 . S
Tb128 O152 2.378 . S
Tb128 O156 2.325 1_545 S
Tb128 O159 2.341 . S
Tb129 C139 2.809 . S
Tb129 O150 2.325 1_565 S
Tb129 O153 2.341 . S
Tb129 O154 2.498 . S
Tb129 O155 2.440 . S
Tb129 O156 2.658 . S
Tb129 O157 2.409 . S
Tb129 O158 2.378 . S
C130 Tb128 2.809 . S
C130 C131 1.514 . S
C130 O148 1.289 . S
C130 O149 1.266 . S
C131 C130 1.514 . S
C131 C132 1.359 1_556 S
C131 C136 1.348 1_556 S
C132 C131 1.359 1_554 S
C132 C133 1.380 . S
C132 H160 0.929 1_545 S
C133 C132 1.380 . S
C133 C134 1.347 . S
C133 H161 0.931 1_545 S
C134 C133 1.347 . S
C134 C135 1.369 . S
C135 C134 1.369 . S
C135 C136 1.410 . S
C135 H162 0.930 . S
C136 C131 1.348 1_554 S
C136 C135 1.410 . S
C136 H163 0.929 1_554 S
C137 O150 1.281 . S
C137 O151 1.254 . S
C138 O152 1.236 1_565 S
C138 O153 1.266 . S
C139 Tb129 2.809 . S
C139 C140 1.514 . S
C139 O154 1.279 . S
C139 O155 1.266 . S
C140 C139 1.514 . S
C140 C141 1.359 . S
C140 C145 1.348 . S
C141 C140 1.359 . S
C141 C142 1.380 . S
C141 H164 0.929 1_565 S
C142 C141 1.380 . S
C142 C143 1.347 . S
C142 H165 0.931 1_565 S
C143 C142 1.347 . S
C143 C144 1.369 . S
C144 C143 1.369 . S
C144 C145 1.408 . S
C144 H166 0.930 . S
C145 C140 1.348 . S
C145 C144 1.408 . S
C145 H167 0.930 . S
C146 O156 1.281 . S
C146 O157 1.254 . S
C147 O158 1.236 1_545 S
C147 O159 1.266 . S
O148 Tb128 2.502 . S
O148 C130 1.289 . S
O149 Tb128 2.440 . S
O149 C130 1.266 . S
O150 Tb128 2.658 . S
O150 Tb129 2.325 1_545 S
O150 C137 1.281 . S
O151 Tb128 2.409 . S
O151 C137 1.254 . S
O152 Tb128 2.378 . S
O152 C138 1.236 1_545 S
O153 Tb129 2.341 . S
O153 C138 1.266 . S
O154 Tb129 2.498 . S
O154 C139 1.279 . S
O155 Tb129 2.440 . S
O155 C139 1.266 . S
O156 Tb128 2.325 1_565 S
O156 Tb129 2.658 . S
O156 C146 1.281 . S
O157 Tb129 2.409 . S
O157 C146 1.254 . S
O158 Tb129 2.378 . S
O158 C147 1.236 1_565 S
O159 Tb128 2.341 . S
O159 C147 1.266 . S
H160 C132 0.929 1_565 S
H161 C133 0.931 1_565 S
H162 C135 0.930 . S
H163 C136 0.929 1_556 S
H164 C141 0.929 1_545 S
H165 C142 0.931 1_545 S
H166 C144 0.930 . S
H167 C145 0.930 . S
Tb168 C170 2.809 . S
Tb168 O188 2.484 . S
Tb168 O189 2.440 . S
Tb168 O190 2.658 . S
Tb168 O191 2.409 . S
Tb168 O192 2.378 . S
Tb168 O196 2.325 . S
Tb168 O199 2.341 . S
Tb169 C179 2.809 . S
Tb169 O190 2.325 . S
Tb169 O193 2.341 . S
Tb169 O194 2.484 . S
Tb169 O195 2.440 . S
Tb169 O196 2.658 . S
Tb169 O197 2.409 . S
Tb169 O198 2.378 . S
C170 Tb168 2.809 . S
C170 C171 1.514 . S
C170 O188 1.248 . S
C170 O189 1.266 . S
C171 C170 1.514 . S
C171 C172 1.359 1_556 S
C171 C176 1.348 1_556 S
C172 C171 1.359 1_554 S
C172 C173 1.380 . S
C172 H200 0.929 . S
C173 C172 1.380 . S
C173 C174 1.347 . S
C173 H201 0.931 . S
C174 C173 1.347 . S
C174 C175 1.369 . S
C175 C174 1.369 . S
C175 C176 1.408 . S
C175 H202 0.930 . S
C176 C171 1.348 1_554 S
C176 C175 1.408 . S
C176 H203 0.930 1_554 S
C177 O190 1.281 . S
C177 O191 1.254 . S
C178 O192 1.236 . S
C178 O193 1.266 . S
C179 Tb169 2.809 . S
C179 C180 1.514 . S
C179 O194 1.248 . S
C179 O195 1.266 . S
C180 C179 1.514 . S
C180 C181 1.359 . S
C180 C185 1.348 . S
C181 C180 1.359 . S
C181 C182 1.380 . S
C181 H204 0.929 . S
C182 C181 1.380 . S
C182 C183 1.347 . S
C182 H205 0.931 . S
C183 C182 1.347 . S
C183 C184 1.369 . S
C184 C183 1.369 . S
C184 C185 1.408 . S
C184 H206 0.930 . S
C185 C180 1.348 . S
C185 C184 1.408 . S
C185 H207 0.930 . S
C186 O196 1.281 . S
C186 O197 1.254 . S
C187 O198 1.236 . S
C187 O199 1.266 . S
O188 Tb168 2.484 . S
O188 C170 1.248 . S
O189 Tb168 2.440 . S
O189 C170 1.266 . S
O190 Tb168 2.658 . S
O190 Tb169 2.325 . S
O190 C177 1.281 . S
O191 Tb168 2.409 . S
O191 C177 1.254 . S
O192 Tb168 2.378 . S
O192 C178 1.236 . S
O193 Tb169 2.341 . S
O193 C178 1.266 . S
O194 Tb169 2.484 . S
O194 C179 1.248 . S
O195 Tb169 2.440 . S
O195 C179 1.266 . S
O196 Tb168 2.325 . S
O196 Tb169 2.658 . S
O196 C186 1.281 . S
O197 Tb169 2.409 . S
O197 C186 1.254 . S
O198 Tb169 2.378 . S
O198 C187 1.236 . S
O199 Tb168 2.341 . S
O199 C187 1.266 . S
H200 C172 0.929 . S
H201 C173 0.931 . S
H202 C175 0.930 . S
H203 C176 0.930 1_556 S
H204 C181 0.929 . S
H205 C182 0.931 . S
H206 C184 0.930 . S
H207 C185 0.930 . S
Tb208 C210 2.809 . S
Tb208 O228 2.484 . S
Tb208 O229 2.440 . S
Tb208 O230 2.658 1_655 S
Tb208 O231 2.409 . S
Tb208 O232 2.378 . S
Tb208 O236 2.325 . S
Tb208 O239 2.341 1_655 S
Tb209 C219 2.809 . S
Tb209 O230 2.325 . S
Tb209 O233 2.341 1_455 S
Tb209 O234 2.484 . S
Tb209 O235 2.440 . S
Tb209 O236 2.658 1_455 S
Tb209 O237 2.409 . S
Tb209 O238 2.378 . S
C210 Tb208 2.809 . S
C210 C211 1.514 . S
C210 O228 1.248 . S
C210 O229 1.266 . S
C211 C210 1.514 . S
C211 C212 1.359 1_556 S
C211 C216 1.348 1_556 S
C212 C211 1.359 1_554 S
C212 C213 1.380 . S
C212 H240 0.929 . S
C213 C212 1.380 . S
C213 C214 1.347 . S
C213 H241 0.931 . S
C214 C213 1.347 . S
C214 C215 1.369 . S
C215 C214 1.369 . S
C215 C216 1.408 . S
C215 H242 0.930 . S
C216 C211 1.348 1_554 S
C216 C215 1.408 . S
C216 H243 0.930 1_554 S
C217 O230 1.273 1_655 S
C217 O231 1.264 . S
C218 O232 1.236 . S
C218 O233 1.266 . S
C219 Tb209 2.809 . S
C219 C220 1.514 . S
C219 O234 1.248 . S
C219 O235 1.266 . S
C220 C219 1.514 . S
C220 C221 1.359 . S
C220 C225 1.348 . S
C221 C220 1.359 . S
C221 C222 1.380 . S
C221 H244 0.929 . S
C222 C221 1.380 . S
C222 C223 1.347 . S
C222 H245 0.931 . S
C223 C222 1.347 . S
C223 C224 1.369 . S
C224 C223 1.369 . S
C224 C225 1.408 . S
C224 H246 0.930 . S
C225 C220 1.348 . S
C225 C224 1.408 . S
C225 H247 0.930 . S
C226 O236 1.270 1_455 S
C226 O237 1.269 . S
C227 O238 1.236 . S
C227 O239 1.266 . S
O228 Tb208 2.484 . S
O228 C210 1.248 . S
O229 Tb208 2.440 . S
O229 C210 1.266 . S
O230 Tb208 2.658 1_455 S
O230 Tb209 2.325 . S
O230 C217 1.273 1_455 S
O231 Tb208 2.409 . S
O231 C217 1.264 . S
O232 Tb208 2.378 . S
O232 C218 1.236 . S
O233 Tb209 2.341 1_655 S
O233 C218 1.266 . S
O234 Tb209 2.484 . S
O234 C219 1.248 . S
O235 Tb209 2.440 . S
O235 C219 1.266 . S
O236 Tb208 2.325 . S
O236 Tb209 2.658 1_655 S
O236 C226 1.270 1_655 S
O237 Tb209 2.409 . S
O237 C226 1.269 . S
O238 Tb209 2.378 . S
O238 C227 1.236 . S
O239 Tb208 2.341 1_455 S
O239 C227 1.266 . S
H240 C212 0.929 . S
H241 C213 0.931 . S
H242 C215 0.930 . S
H243 C216 0.930 1_556 S
H244 C221 0.929 . S
H245 C222 0.931 . S
H246 C224 0.930 . S
H247 C225 0.930 . S
H248 C256 0.950 . S
H249 C261 0.950 . S
H250 C258 0.950 . S
H251 C260 0.951 . S
H252 C262 0.950 . S
H253 C264 0.950 . S
H254 C266 0.952 . S
H255 C267 0.950 . S
C256 H248 0.950 . S
C256 C257 1.387 . S
C256 C258 1.391 . S
C257 C256 1.387 . S
C257 C261 1.393 . S
C258 H250 0.950 . S
C258 C256 1.391 . S
C258 C259 1.401 . S
C259 C258 1.401 . S
C259 C260 1.398 . S
C259 C265 1.490 1_565 S
C260 H251 0.951 . S
C260 C259 1.398 . S
C260 C261 1.391 . S
C261 H249 0.950 . S
C261 C257 1.393 . S
C261 C260 1.391 . S
C262 H252 0.950 . S
C262 C263 1.386 . S
C262 C264 1.391 . S
C263 C262 1.386 . S
C263 C267 1.394 . S
C264 H253 0.950 . S
C264 C262 1.391 . S
C264 C265 1.401 . S
C265 C259 1.490 1_545 S
C265 C264 1.401 . S
C265 C266 1.398 . S
C266 H254 0.952 . S
C266 C265 1.398 . S
C266 C267 1.391 . S
C267 H255 0.950 . S
C267 C263 1.394 . S
C267 C266 1.391 . S
H268 C276 0.950 . S
H269 C281 0.950 . S
H270 C278 0.950 . S
H271 C280 0.950 . S
H272 C282 0.950 . S
H273 C284 0.950 . S
H274 C286 0.950 . S
H275 C287 0.950 . S
C276 H268 0.950 . S
C276 C277 1.386 . S
C276 C278 1.391 . S
C277 C276 1.386 . S
C277 C281 1.393 . S
C278 H270 0.950 . S
C278 C276 1.391 . S
C278 C279 1.400 . S
C279 C278 1.400 . S
C279 C280 1.398 . S
C279 C285 1.491 . S
C280 H271 0.950 . S
C280 C279 1.398 . S
C280 C281 1.391 . S
C281 H269 0.950 . S
C281 C277 1.393 . S
C281 C280 1.391 . S
C282 H272 0.950 . S
C282 C283 1.386 . S
C282 C284 1.391 . S
C283 C282 1.386 . S
C283 C287 1.393 . S
C284 H273 0.950 . S
C284 C282 1.391 . S
C284 C285 1.400 . S
C285 C279 1.491 . S
C285 C284 1.400 . S
C285 C286 1.398 . S
C286 H274 0.950 . S
C286 C285 1.398 . S
C286 C287 1.391 . S
C287 H275 0.950 . S
C287 C283 1.393 . S
C287 C286 1.391 . S
H288 C296 0.950 . S
H289 C301 0.950 . S
H290 C298 0.950 . S
H291 C300 0.950 . S
H292 C302 0.950 . S
H293 C304 0.950 . S
H294 C306 0.950 . S
H295 C307 0.950 . S
C296 H288 0.950 . S
C296 C297 1.386 . S
C296 C298 1.391 . S
C297 C296 1.386 . S
C297 C301 1.393 . S
C298 H290 0.950 . S
C298 C296 1.391 . S
C298 C299 1.400 . S
C299 C298 1.400 . S
C299 C300 1.398 . S
C299 C305 1.491 . S
C300 H291 0.950 . S
C300 C299 1.398 . S
C300 C301 1.391 . S
C301 H289 0.950 . S
C301 C297 1.393 . S
C301 C300 1.391 . S
C302 H292 0.950 . S
C302 C303 1.386 . S
C302 C304 1.391 . S
C303 C302 1.386 . S
C303 C307 1.393 . S
C304 H293 0.950 . S
C304 C302 1.391 . S
C304 C305 1.400 . S
C305 C299 1.491 . S
C305 C304 1.400 . S
C305 C306 1.398 . S
C306 H294 0.950 . S
C306 C305 1.398 . S
C306 C307 1.391 . S
C307 H295 0.950 . S
C307 C303 1.393 . S
C307 C306 1.391 . S
H308 C316 0.950 . S
H309 C321 0.950 . S
H310 C318 0.950 . S
H311 C320 0.950 . S
H312 C322 0.950 . S
H313 C324 0.950 . S
H314 C326 0.950 . S
H315 C327 0.950 . S
C316 H308 0.950 . S
C316 C317 1.384 1_655 S
C316 C318 1.391 . S
C317 C316 1.384 1_455 S
C317 C321 1.394 . S
C318 H310 0.950 . S
C318 C316 1.391 . S
C318 C319 1.384 1_655 S
C319 C318 1.384 1_455 S
C319 C320 1.414 . S
C319 C325 1.490 . S
C320 H311 0.950 . S
C320 C319 1.414 . S
C320 C321 1.391 . S
C321 H309 0.950 . S
C321 C317 1.394 . S
C321 C320 1.391 . S
C322 H312 0.950 . S
C322 C323 1.386 . S
C322 C324 1.391 . S
C323 C322 1.386 . S
C323 C327 1.393 1_455 S
C324 H313 0.950 . S
C324 C322 1.391 . S
C324 C325 1.428 . S
C325 C319 1.490 . S
C325 C324 1.428 . S
C325 C326 1.371 1_455 S
C326 H314 0.950 . S
C326 C325 1.371 1_655 S
C326 C327 1.391 . S
C327 H315 0.950 . S
C327 C323 1.393 1_655 S
C327 C326 1.391 . S
H328 C336 0.950 . S
H329 C341 0.950 . S
H330 C338 0.950 . S
H331 C340 0.950 . S
H332 C342 0.950 . S
H333 C344 0.950 . S
H334 C346 0.951 . S
H335 C347 0.950 . S
C336 H328 0.950 . S
C336 C337 1.404 . S
C336 C338 1.391 . S
C337 C336 1.404 . S
C337 C341 1.375 1_545 S
C338 H330 0.950 . S
C338 C336 1.391 . S
C338 C339 1.409 . S
C339 C338 1.409 . S
C339 C340 1.390 1_545 S
C339 C345 1.490 1_545 S
C340 H331 0.950 . S
C340 C339 1.390 1_565 S
C340 C341 1.391 . S
C341 H329 0.950 . S
C341 C337 1.375 1_565 S
C341 C340 1.391 . S
C342 H332 0.950 . S
C342 C343 1.400 1_554 S
C342 C344 1.391 . S
C343 C342 1.400 1_556 S
C343 C347 1.379 1_565 S
C344 H333 0.950 . S
C344 C342 1.391 . S
C344 C345 1.406 . S
C345 C339 1.490 1_565 S
C345 C344 1.406 . S
C345 C346 1.387 1_564 S
C346 H334 0.951 . S
C346 C345 1.387 1_546 S
C346 C347 1.396 . S
C347 H335 0.950 . S
C347 C343 1.379 1_545 S
C347 C346 1.396 . S
H348 C356 0.950 . S
H349 C361 0.950 . S
H350 C358 0.950 . S
H351 C360 0.950 . S
H352 C362 0.950 . S
H353 C364 0.950 . S
H354 C366 0.950 . S
H355 C367 0.951 . S
C356 H348 0.950 . S
C356 C357 1.386 . S
C356 C358 1.391 . S
C357 C356 1.386 . S
C357 C361 1.393 . S
C358 H350 0.950 . S
C358 C356 1.391 . S
C358 C359 1.400 . S
C359 C358 1.400 . S
C359 C360 1.398 . S
C359 C365 1.491 . S
C360 H351 0.950 . S
C360 C359 1.398 . S
C360 C361 1.391 . S
C361 H349 0.950 . S
C361 C357 1.393 . S
C361 C360 1.391 . S
C362 H352 0.950 . S
C362 C363 1.386 . S
C362 C364 1.391 1_556 S
C363 C362 1.386 . S
C363 C367 1.401 . S
C364 H353 0.950 . S
C364 C362 1.391 1_554 S
C364 C365 1.400 . S
C365 C359 1.491 . S
C365 C364 1.400 . S
C365 C366 1.398 . S
C366 H354 0.950 . S
C366 C365 1.398 . S
C366 C367 1.382 1_554 S
C367 H355 0.951 . S
C367 C363 1.401 . S
C367 C366 1.382 1_556 S
H368 C376 0.950 . S
H369 C381 0.950 . S
H370 C378 0.950 . S
H371 C380 0.950 . S
H372 C382 0.950 . S
H373 C384 0.950 . S
H374 C386 0.950 . S
H375 C387 0.950 . S
C376 H368 0.950 . S
C376 C377 1.386 . S
C376 C378 1.391 . S
C377 C376 1.386 . S
C377 C381 1.393 . S
C378 H370 0.950 . S
C378 C376 1.391 . S
C378 C379 1.400 . S
C379 C378 1.400 . S
C379 C380 1.398 . S
C379 C385 1.491 . S
C380 H371 0.950 . S
C380 C379 1.398 . S
C380 C381 1.391 . S
C381 H369 0.950 . S
C381 C377 1.393 . S
C381 C380 1.391 . S
C382 H372 0.950 . S
C382 C383 1.386 . S
C382 C384 1.391 1_556 S
C383 C382 1.386 . S
C383 C387 1.393 1_556 S
C384 H373 0.950 . S
C384 C382 1.391 1_554 S
C384 C385 1.400 . S
C385 C379 1.491 . S
C385 C384 1.400 . S
C385 C386 1.398 . S
C386 H374 0.950 . S
C386 C385 1.398 . S
C386 C387 1.391 . S
C387 H375 0.950 . S
C387 C383 1.393 1_554 S
C387 C386 1.391 . S
H388 C396 0.950 . S
H389 C401 0.950 . S
H390 C398 0.950 . S
H391 C400 0.950 . S
H392 C402 0.950 . S
H393 C404 0.950 1_556 S
H394 C406 0.950 . S
H395 C407 0.950 . S
C396 H388 0.950 . S
C396 C397 1.360 1_455 S
C396 C398 1.391 . S
C397 C396 1.360 1_655 S
C397 C401 1.421 . S
C398 H390 0.950 . S
C398 C396 1.391 . S
C398 C399 1.377 1_455 S
C399 C398 1.377 1_655 S
C399 C400 1.424 . S
C399 C405 1.490 . S
C400 H391 0.950 . S
C400 C399 1.424 . S
C400 C401 1.391 . S
C401 H389 0.950 . S
C401 C397 1.421 . S
C401 C400 1.391 . S
C402 H392 0.950 . S
C402 C403 1.388 . S
C402 C404 1.391 1_556 S
C403 C402 1.388 . S
C403 C407 1.390 1_656 S
C404 H393 0.950 1_554 S
C404 C402 1.391 1_554 S
C404 C405 1.405 . S
C405 C399 1.490 . S
C405 C404 1.405 . S
C405 C406 1.393 1_655 S
C406 H394 0.950 . S
C406 C405 1.393 1_455 S
C406 C407 1.391 . S
C407 H395 0.950 . S
C407 C403 1.390 1_454 S
C407 C406 1.391 . S
H408 C416 0.950 . S
H409 C421 0.950 . S
H410 C418 0.950 1_455 S
H411 C420 0.950 . S
H412 C422 0.950 . S
H413 C424 0.950 . S
H414 C426 0.950 . S
H415 C427 0.950 . S
C416 H408 0.950 . S
C416 C417 1.392 . S
C416 C418 1.391 1_455 S
C417 C416 1.392 . S
C417 C421 1.377 1_455 S
C418 H410 0.950 1_655 S
C418 C416 1.391 1_655 S
C418 C419 1.400 . S
C419 C418 1.400 . S
C419 C420 1.398 . S
C419 C425 1.491 . S
C420 H411 0.950 . S
C420 C419 1.398 . S
C420 C421 1.391 . S
C421 H409 0.950 . S
C421 C417 1.377 1_655 S
C421 C420 1.391 . S
C422 H412 0.950 . S
C422 C423 1.386 . S
C422 C424 1.391 . S
C423 C422 1.386 . S
C423 C427 1.393 . S
C424 H413 0.950 . S
C424 C422 1.391 . S
C424 C425 1.400 . S
C425 C419 1.491 . S
C425 C424 1.400 . S
C425 C426 1.398 . S
C426 H414 0.950 . S
C426 C425 1.398 . S
C426 C427 1.391 . S
C427 H415 0.950 . S
C427 C423 1.393 . S
C427 C426 1.391 . S
H428 C436 0.950 . S
H429 C441 0.950 . S
H430 C438 0.950 . S
H431 C440 0.950 . S
H432 C442 0.950 . S
H433 C444 0.950 . S
H434 C446 0.930 1_545 S
H435 C447 0.950 1_545 S
C436 H428 0.950 . S
C436 C437 1.386 . S
C436 C438 1.391 . S
C437 C436 1.386 . S
C437 C441 1.393 1_545 S
C438 H430 0.950 . S
C438 C436 1.391 . S
C438 C439 1.400 1_545 S
C439 C438 1.400 1_565 S
C439 C440 1.398 . S
C439 C445 1.491 . S
C440 H431 0.950 . S
C440 C439 1.398 . S
C440 C441 1.391 . S
C441 H429 0.950 . S
C441 C437 1.393 1_565 S
C441 C440 1.391 . S
C442 H432 0.950 . S
C442 C443 1.386 . S
C442 C444 1.391 . S
C443 C442 1.386 . S
C443 C447 1.393 . S
C444 H433 0.950 . S
C444 C442 1.391 . S
C444 C445 1.400 . S
C445 C439 1.491 . S
C445 C444 1.400 . S
C445 C446 1.413 . S
C446 H434 0.930 1_565 S
C446 C445 1.413 . S
C446 C447 1.396 . S
C447 H435 0.950 1_565 S
C447 C443 1.393 . S
C447 C446 1.396 . S
H448 C456 0.950 . S
H449 C461 0.950 . S
H450 C458 0.950 . S
H451 C460 0.950 . S
H452 C462 0.950 . S
H453 C464 0.950 . S
H454 C466 0.950 . S
H455 C467 0.950 . S
C456 H448 0.950 . S
C456 C457 1.386 . S
C456 C458 1.391 . S
C457 C456 1.386 . S
C457 C461 1.393 . S
C458 H450 0.950 . S
C458 C456 1.391 . S
C458 C459 1.400 . S
C459 C458 1.400 . S
C459 C460 1.398 . S
C459 C465 1.491 . S
C460 H451 0.950 . S
C460 C459 1.398 . S
C460 C461 1.391 . S
C461 H449 0.950 . S
C461 C457 1.393 . S
C461 C460 1.391 . S
C462 H452 0.950 . S
C462 C463 1.386 . S
C462 C464 1.391 . S
C463 C462 1.386 . S
C463 C467 1.393 . S
C464 H453 0.950 . S
C464 C462 1.391 . S
C464 C465 1.400 . S
C465 C459 1.491 . S
C465 C464 1.400 . S
C465 C466 1.398 . S
C466 H454 0.950 . S
C466 C465 1.398 . S
C466 C467 1.391 . S
C467 H455 0.950 . S
C467 C463 1.393 . S
C467 C466 1.391 . S
H468 C476 0.950 . S
H469 C481 0.950 . S
H470 C478 0.950 . S
H471 C480 0.950 . S
H472 C482 0.950 . S
H473 C484 0.950 . S
H474 C486 0.950 . S
H475 C487 0.950 . S
C476 H468 0.950 . S
C476 C477 1.386 . S
C476 C478 1.391 . S
C477 C476 1.386 . S
C477 C481 1.393 . S
C478 H470 0.950 . S
C478 C476 1.391 . S
C478 C479 1.400 . S
C479 C478 1.400 . S
C479 C480 1.398 . S
C479 C485 1.491 . S
C480 H471 0.950 . S
C480 C479 1.398 . S
C480 C481 1.391 . S
C481 H469 0.950 . S
C481 C477 1.393 . S
C481 C480 1.391 . S
C482 H472 0.950 . S
C482 C483 1.386 . S
C482 C484 1.391 . S
C483 C482 1.386 . S
C483 C487 1.393 . S
C484 H473 0.950 . S
C484 C482 1.391 . S
C484 C485 1.400 . S
C485 C479 1.491 . S
C485 C484 1.400 . S
C485 C486 1.398 . S
C486 H474 0.950 . S
C486 C485 1.398 . S
C486 C487 1.391 . S
C487 H475 0.950 . S
C487 C483 1.393 . S
C487 C486 1.391 . S
H488 C496 0.950 . S
H489 C501 0.950 . S
H490 C498 0.950 . S
H491 C500 0.950 . S
H492 C502 0.950 . S
H493 C504 0.950 . S
H494 C506 0.950 1_655 S
H495 C507 0.950 1_655 S
C496 H488 0.950 . S
C496 C497 1.386 . S
C496 C498 1.391 . S
C497 C496 1.386 . S
C497 C501 1.393 1_655 S
C498 H490 0.950 . S
C498 C496 1.391 . S
C498 C499 1.400 1_655 S
C499 C498 1.400 1_455 S
C499 C500 1.398 . S
C499 C505 1.491 . S
C500 H491 0.950 . S
C500 C499 1.398 . S
C500 C501 1.391 . S
C501 H489 0.950 . S
C501 C497 1.393 1_455 S
C501 C500 1.391 . S
C502 H492 0.950 . S
C502 C503 1.386 . S
C502 C504 1.391 . S
C503 C502 1.386 . S
C503 C507 1.393 . S
C504 H493 0.950 . S
C504 C502 1.391 . S
C504 C505 1.400 . S
C505 C499 1.491 . S
C505 C504 1.400 . S
C505 C506 1.398 . S
C506 H494 0.950 1_455 S
C506 C505 1.398 . S
C506 C507 1.391 . S
C507 H495 0.950 1_455 S
C507 C503 1.393 . S
C507 C506 1.391 . S
H508 C516 0.950 . S
H509 C521 0.950 . S
H510 C518 0.950 . S
H511 C520 0.948 1_565 S
H512 C522 0.950 1_556 S
H513 C524 0.950 . S
H514 C526 0.950 . S
H515 C527 0.950 . S
C516 H508 0.950 . S
C516 C517 1.373 1_545 S
C516 C518 1.391 . S
C517 C516 1.373 1_565 S
C517 C521 1.399 . S
C518 H510 0.950 . S
C518 C516 1.391 . S
C518 C519 1.400 . S
C519 C518 1.400 . S
C519 C520 1.402 . S
C519 C525 1.491 . S
C520 H511 0.948 1_545 S
C520 C519 1.402 . S
C520 C521 1.389 1_545 S
C521 H509 0.950 . S
C521 C517 1.399 . S
C521 C520 1.389 1_565 S
C522 H512 0.950 1_554 S
C522 C523 1.386 . S
C522 C524 1.391 . S
C523 C522 1.386 . S
C523 C527 1.393 . S
C524 H513 0.950 . S
C524 C522 1.391 . S
C524 C525 1.400 . S
C525 C519 1.491 . S
C525 C524 1.400 . S
C525 C526 1.398 . S
C526 H514 0.950 . S
C526 C525 1.398 . S
C526 C527 1.391 . S
C527 H515 0.950 . S
C527 C523 1.393 . S
C527 C526 1.391 . S
H528 C536 0.950 . S
H529 C541 0.950 . S
H530 C538 0.950 . S
H531 C540 0.950 . S
H532 C542 0.950 . S
H533 C544 0.950 . S
H534 C546 0.950 . S
H535 C547 0.950 . S
C536 H528 0.950 . S
C536 C537 1.386 . S
C536 C538 1.391 . S
C537 C536 1.386 . S
C537 C541 1.393 . S
C538 H530 0.950 . S
C538 C536 1.391 . S
C538 C539 1.400 . S
C539 C538 1.400 . S
C539 C540 1.398 . S
C539 C545 1.491 . S
C540 H531 0.950 . S
C540 C539 1.398 . S
C540 C541 1.391 . S
C541 H529 0.950 . S
C541 C537 1.393 . S
C541 C540 1.391 . S
C542 H532 0.950 . S
C542 C543 1.386 . S
C542 C544 1.391 . S
C543 C542 1.386 . S
C543 C547 1.393 . S
C544 H533 0.950 . S
C544 C542 1.391 . S
C544 C545 1.400 . S
C545 C539 1.491 . S
C545 C544 1.400 . S
C545 C546 1.398 . S
C546 H534 0.950 . S
C546 C545 1.398 . S
C546 C547 1.391 . S
C547 H535 0.950 . S
C547 C543 1.393 . S
C547 C546 1.391 . S
H548 C556 0.950 . S
H549 C561 0.950 . S
H550 C558 0.950 . S
H551 C560 0.950 . S
H552 C562 0.950 . S
H553 C564 0.950 . S
H554 C566 0.950 . S
H555 C567 0.950 1_556 S
C556 H548 0.950 . S
C556 C557 1.386 . S
C556 C558 1.391 . S
C557 C556 1.386 . S
C557 C561 1.393 . S
C558 H550 0.950 . S
C558 C556 1.391 . S
C558 C559 1.400 . S
C559 C558 1.400 . S
C559 C560 1.398 . S
C559 C565 1.491 . S
C560 H551 0.950 . S
C560 C559 1.398 . S
C560 C561 1.391 . S
C561 H549 0.950 . S
C561 C557 1.393 . S
C561 C560 1.391 . S
C562 H552 0.950 . S
C562 C563 1.386 . S
C562 C564 1.391 . S
C563 C562 1.386 . S
C563 C567 1.393 . S
C564 H553 0.950 . S
C564 C562 1.391 . S
C564 C565 1.400 . S
C565 C559 1.491 . S
C565 C564 1.400 . S
C565 C566 1.398 . S
C566 H554 0.950 . S
C566 C565 1.398 . S
C566 C567 1.391 . S
C567 H555 0.950 1_554 S
C567 C563 1.393 . S
C567 C566 1.391 . S
H568 C576 0.950 . S
H569 C581 0.950 . S
H570 C578 0.950 . S
H571 C580 0.950 . S
H572 C582 0.950 . S
H573 C584 0.950 . S
H574 C586 0.950 . S
H575 C587 0.950 . S
C576 H568 0.950 . S
C576 C577 1.386 1_655 S
C576 C578 1.391 . S
C577 C576 1.386 1_455 S
C577 C581 1.393 . S
C578 H570 0.950 . S
C578 C576 1.391 . S
C578 C579 1.400 1_655 S
C579 C578 1.400 1_455 S
C579 C580 1.398 . S
C579 C585 1.491 . S
C580 H571 0.950 . S
C580 C579 1.398 . S
C580 C581 1.391 . S
C581 H569 0.950 . S
C581 C577 1.393 . S
C581 C580 1.391 . S
C582 H572 0.950 . S
C582 C583 1.386 . S
C582 C584 1.391 . S
C583 C582 1.386 . S
C583 C587 1.393 1_455 S
C584 H573 0.950 . S
C584 C582 1.391 . S
C584 C585 1.400 . S
C585 C579 1.491 . S
C585 C584 1.400 . S
C585 C586 1.398 1_455 S
C586 H574 0.950 . S
C586 C585 1.398 1_655 S
C586 C587 1.391 . S
C587 H575 0.950 . S
C587 C583 1.393 1_655 S
C587 C586 1.391 . S
H588 C596 0.950 . S
H589 C601 0.950 . S
H590 C598 0.950 . S
H591 C600 0.950 . S
H592 C602 0.950 . S
H593 C604 0.950 . S
H594 C606 0.950 . S
H595 C607 0.950 . S
C596 H588 0.950 . S
C596 C597 1.386 . S
C596 C598 1.391 . S
C597 C596 1.386 . S
C597 C601 1.393 1_545 S
C598 H590 0.950 . S
C598 C596 1.391 . S
C598 C599 1.400 . S
C599 C598 1.400 . S
C599 C600 1.398 1_545 S
C599 C605 1.491 . S
C600 H591 0.950 . S
C600 C599 1.398 1_565 S
C600 C601 1.391 . S
C601 H589 0.950 . S
C601 C597 1.393 1_565 S
C601 C600 1.391 . S
C602 H592 0.950 . S
C602 C603 1.386 1_565 S
C602 C604 1.391 . S
C603 C602 1.386 1_545 S
C603 C607 1.393 . S
C604 H593 0.950 . S
C604 C602 1.391 . S
C604 C605 1.400 1_565 S
C605 C599 1.491 . S
C605 C604 1.400 1_545 S
C605 C606 1.398 . S
C606 H594 0.950 . S
C606 C605 1.398 . S
C606 C607 1.391 . S
C607 H595 0.950 . S
C607 C603 1.393 . S
C607 C606 1.391 . S
H608 C616 0.950 . S
H609 C621 0.950 . S
H610 C618 0.950 . S
H611 C620 0.950 . S
H612 C622 0.950 . S
H613 C624 0.950 . S
H614 C626 0.950 . S
H615 C627 0.950 . S
C616 H608 0.950 . S
C616 C617 1.386 . S
C616 C618 1.391 . S
C617 C616 1.386 . S
C617 C621 1.393 . S
C618 H610 0.950 . S
C618 C616 1.391 . S
C618 C619 1.400 . S
C619 C618 1.400 . S
C619 C620 1.398 . S
C619 C625 1.491 . S
C620 H611 0.950 . S
C620 C619 1.398 . S
C620 C621 1.391 . S
C621 H609 0.950 . S
C621 C617 1.393 . S
C621 C620 1.391 . S
C622 H612 0.950 . S
C622 C623 1.386 . S
C622 C624 1.391 . S
C623 C622 1.386 . S
C623 C627 1.393 . S
C624 H613 0.950 . S
C624 C622 1.391 . S
C624 C625 1.400 . S
C625 C619 1.491 . S
C625 C624 1.400 . S
C625 C626 1.398 . S
C626 H614 0.950 . S
C626 C625 1.398 . S
C626 C627 1.391 . S
C627 H615 0.950 . S
C627 C623 1.393 . S
C627 C626 1.391 . S
H628 C636 0.950 . S
H629 C641 0.950 . S
H630 C638 0.950 . S
H631 C640 0.950 . S
H632 C642 0.950 . S
H633 C644 0.950 . S
H634 C646 0.950 . S
H635 C647 0.950 . S
C636 H628 0.950 . S
C636 C637 1.386 . S
C636 C638 1.391 . S
C637 C636 1.386 . S
C637 C641 1.393 . S
C638 H630 0.950 . S
C638 C636 1.391 . S
C638 C639 1.400 . S
C639 C638 1.400 . S
C639 C640 1.398 . S
C639 C645 1.491 . S
C640 H631 0.950 . S
C640 C639 1.398 . S
C640 C641 1.391 . S
C641 H629 0.950 . S
C641 C637 1.393 . S
C641 C640 1.391 . S
C642 H632 0.950 . S
C642 C643 1.386 . S
C642 C644 1.391 . S
C643 C642 1.386 . S
C643 C647 1.393 . S
C644 H633 0.950 . S
C644 C642 1.391 . S
C644 C645 1.400 . S
C645 C639 1.491 . S
C645 C644 1.400 . S
C645 C646 1.398 . S
C646 H634 0.950 . S
C646 C645 1.398 . S
C646 C647 1.391 . S
C647 H635 0.950 . S
C647 C643 1.393 . S
C647 C646 1.391 . S
H648 C656 0.950 . S
H649 C661 0.950 . S
H650 C658 0.950 . S
H651 C660 0.959 . S
H652 C662 0.950 1_455 S
H653 C664 0.950 1_455 S
H654 C666 0.950 . S
H655 C667 0.950 . S
C656 H648 0.950 . S
C656 C657 1.386 . S
C656 C658 1.391 . S
C657 C656 1.386 . S
C657 C661 1.393 1_655 S
C658 H650 0.950 . S
C658 C656 1.391 . S
C658 C659 1.400 . S
C659 C658 1.400 . S
C659 C660 1.388 1_655 S
C659 C665 1.491 . S
C660 H651 0.959 . S
C660 C659 1.388 1_455 S
C660 C661 1.394 . S
C661 H649 0.950 . S
C661 C657 1.393 1_455 S
C661 C660 1.394 . S
C662 H652 0.950 1_655 S
C662 C663 1.386 . S
C662 C664 1.391 . S
C663 C662 1.386 . S
C663 C667 1.393 . S
C664 H653 0.950 1_655 S
C664 C662 1.391 . S
C664 C665 1.400 . S
C665 C659 1.491 . S
C665 C664 1.400 . S
C665 C666 1.398 . S
C666 H654 0.950 . S
C666 C665 1.398 . S
C666 C667 1.391 . S
C667 H655 0.950 . S
C667 C663 1.393 . S
C667 C666 1.391 . S
H668 C676 0.950 . S
H669 C681 0.950 . S
H670 C678 0.950 . S
H671 C680 0.950 . S
H672 C682 0.950 . S
H673 C684 0.950 . S
H674 C686 0.950 . S
H675 C687 0.950 . S
C676 H668 0.950 . S
C676 C677 1.386 . S
C676 C678 1.391 . S
C677 C676 1.386 . S
C677 C681 1.393 1_565 S
C678 H670 0.950 . S
C678 C676 1.391 . S
C678 C679 1.400 . S
C679 C678 1.400 . S
C679 C680 1.398 1_565 S
C679 C685 1.491 . S
C680 H671 0.950 . S
C680 C679 1.398 1_545 S
C680 C681 1.391 . S
C681 H669 0.950 . S
C681 C677 1.393 1_545 S
C681 C680 1.391 . S
C682 H672 0.950 . S
C682 C683 1.386 1_545 S
C682 C684 1.391 . S
C683 C682 1.386 1_565 S
C683 C687 1.393 . S
C684 H673 0.950 . S
C684 C682 1.391 . S
C684 C685 1.400 1_545 S
C685 C679 1.491 . S
C685 C684 1.400 1_565 S
C685 C686 1.398 . S
C686 H674 0.950 . S
C686 C685 1.398 . S
C686 C687 1.391 . S
C687 H675 0.950 . S
C687 C683 1.393 . S
C687 C686 1.391 . S
H688 C696 0.950 . S
H689 C701 0.950 . S
H690 C698 0.950 . S
H691 C700 0.950 . S
H692 C702 0.950 . S
H693 C704 0.950 . S
H694 C706 0.950 . S
H695 C707 0.950 . S
C696 H688 0.950 . S
C696 C697 1.386 . S
C696 C698 1.391 . S
C697 C696 1.386 . S
C697 C701 1.393 . S
C698 H690 0.950 . S
C698 C696 1.391 . S
C698 C699 1.400 . S
C699 C698 1.400 . S
C699 C700 1.398 . S
C699 C705 1.491 . S
C700 H691 0.950 . S
C700 C699 1.398 . S
C700 C701 1.391 . S
C701 H689 0.950 . S
C701 C697 1.393 . S
C701 C700 1.391 . S
C702 H692 0.950 . S
C702 C703 1.386 . S
C702 C704 1.391 . S
C703 C702 1.386 . S
C703 C707 1.393 . S
C704 H693 0.950 . S
C704 C702 1.391 . S
C704 C705 1.400 . S
C705 C699 1.491 . S
C705 C704 1.400 . S
C705 C706 1.398 . S
C706 H694 0.950 . S
C706 C705 1.398 . S
C706 C707 1.391 . S
C707 H695 0.950 . S
C707 C703 1.393 . S
C707 C706 1.391 . S
H708 C716 0.950 . S
H709 C721 0.950 . S
H710 C718 0.950 . S
H711 C720 0.950 . S
H712 C722 0.950 . S
H713 C724 0.950 . S
H714 C726 0.950 . S
H715 C727 0.950 . S
C716 H708 0.950 . S
C716 C717 1.386 . S
C716 C718 1.391 . S
C717 C716 1.386 . S
C717 C721 1.393 . S
C718 H710 0.950 . S
C718 C716 1.391 . S
C718 C719 1.400 . S
C719 C718 1.400 . S
C719 C720 1.398 . S
C719 C725 1.491 . S
C720 H711 0.950 . S
C720 C719 1.398 . S
C720 C721 1.391 . S
C721 H709 0.950 . S
C721 C717 1.393 . S
C721 C720 1.391 . S
C722 H712 0.950 . S
C722 C723 1.386 . S
C722 C724 1.391 . S
C723 C722 1.386 . S
C723 C727 1.393 . S
C724 H713 0.950 . S
C724 C722 1.391 . S
C724 C725 1.400 . S
C725 C719 1.491 . S
C725 C724 1.400 . S
C725 C726 1.398 . S
C726 H714 0.950 . S
C726 C725 1.398 . S
C726 C727 1.391 . S
C727 H715 0.950 . S
C727 C723 1.393 . S
C727 C726 1.391 . S
C257 C76 1.809 . S
C263 C97 1.943 1_545 S
C283 C137 1.958 . S
C277 C87 1.839 . S
C303 C177 1.967 . S
C297 C54 1.832 . S
C323 C217 1.955 1_455 S
C317 C65 1.808 1_455 S
C343 C106 1.943 1_565 S
C337 C32 1.826 1_545 S
C357 C43 1.835 . S
C363 C146 1.957 . S
C377 C10 1.842 . S
C383 C186 1.964 . S
C397 C21 1.830 . S
C403 C226 1.951 1_655 S
C423 C103 0.443 . S
C417 C60 0.480 . S
C443 C143 0.479 . S
C437 C71 0.531 . S
C463 C183 0.521 . S
C457 C82 0.512 . S
C477 C49 0.520 . S
C483 C223 0.468 . S
C497 C16 0.458 1_655 S
C503 C94 0.464 . S
C523 C134 0.462 . S
C517 C27 0.508 1_565 S
C543 C174 0.522 . S
C537 C38 0.538 . S
C557 C5 0.509 . S
C563 C214 0.512 . S
C577 C59 2.062 . S
C583 C107 2.288 . S
C597 C70 1.998 . S
C603 C147 2.248 . S
C623 C187 2.236 . S
C617 C81 1.985 . S
C643 C227 2.266 . S
C637 C48 2.036 . S
C657 C15 2.058 1_655 S
C663 C98 2.290 . S
C683 C138 2.252 . S
C677 C26 2.029 1_565 S
C703 C178 2.228 . S
C697 C37 1.982 . S
C717 C4 2.047 . S
C723 C218 2.278 . S
