# Generated by pormake.
# Topology ant, (3,6)-cn, num edge types: 1
# Building blocks:
#     Node 0, Type 0, BuildingBlock: VETTIZ_charged_linker_0, # of connection points: 3
#     Node 1, Type 0, BuildingBlock: VETTIZ_charged_linker_0, # of connection points: 3
#     Node 2, Type 0, BuildingBlock: VETTIZ_charged_linker_0, # of connection points: 3
#     Node 3, Type 0, BuildingBlock: VETTIZ_charged_linker_0, # of connection points: 3
#     Node 4, Type 0, BuildingBlock: VETTIZ_charged_linker_0, # of connection points: 3
#     Node 5, Type 0, BuildingBlock: VETTIZ_charged_linker_0, # of connection points: 3
#     Node 6, Type 0, BuildingBlock: VETTIZ_charged_linker_0, # of connection points: 3
#     Node 7, Type 0, BuildingBlock: VETTIZ_charged_linker_0, # of connection points: 3
#     Node 8, Type 1, BuildingBlock: MIDCAF_clean_sbu_0, # of connection points: 6
#     Node 9, Type 1, BuildingBlock: MIDCAF_clean_sbu_0, # of connection points: 6
#     Node 10, Type 1, BuildingBlock: MIDCAF_clean_sbu_0, # of connection points: 6
#     Node 11, Type 1, BuildingBlock: MIDCAF_clean_sbu_0, # of connection points: 6
#     Edge 12, Type (0, 1), None
#     Edge 13, Type (0, 1), None
#     Edge 14, Type (0, 1), None
#     Edge 15, Type (0, 1), None
#     Edge 16, Type (0, 1), None
#     Edge 17, Type (0, 1), None
#     Edge 18, Type (0, 1), None
#     Edge 19, Type (0, 1), None
#     Edge 20, Type (0, 1), None
#     Edge 21, Type (0, 1), None
#     Edge 22, Type (0, 1), None
#     Edge 23, Type (0, 1), None
#     Edge 24, Type (0, 1), None
#     Edge 25, Type (0, 1), None
#     Edge 26, Type (0, 1), None
#     Edge 27, Type (0, 1), None
#     Edge 28, Type (0, 1), None
#     Edge 29, Type (0, 1), None
#     Edge 30, Type (0, 1), None
#     Edge 31, Type (0, 1), None
#     Edge 32, Type (0, 1), None
#     Edge 33, Type (0, 1), None
#     Edge 34, Type (0, 1), None
#     Edge 35, Type (0, 1), None
# Relax obj value: 0.106
# Max RMSD: 0.161
# Mean RMSD: 0.107
data_MOF--net-ant--node1-MIDCAF_clean_sbu_0--node2-VETTIZ_charged_linker_0--edge1-none
_symmetry_space_group_name_H-M    P1
_symmetry_Int_Tables_number       1
_symmetry_cell_setting            triclinic
loop_
_symmetry_equiv_pos_as_xyz
'x, y, z'
_cell_length_a     18.6082
_cell_length_b     18.482653
_cell_length_c     51.213716
_cell_angle_alpha  90.124156
_cell_angle_beta   93.789663
_cell_angle_gamma 89.872936
loop_
_atom_site_label
_atom_site_type_symbol
_atom_site_fract_x
_atom_site_fract_y
_atom_site_fract_z
_atom_type_partial_charge
C0 C 0.19093 0.02216 0.11488 0.0
C1 C 0.20334 0.95404 0.10351 0.0
C2 C 0.22487 0.95103 0.0777 0.0
C3 C 0.19688 0.07812 0.07244 0.0
C4 C 0.18949 0.08412 0.099 0.0
C5 C 0.17279 0.1611 0.10677 0.0
H6 H 0.0878 0.50359 0.06643 0.0
C7 C 0.17168 0.14618 0.06004 0.0
C8 C 0.15952 0.19615 0.07998 0.0
H9 H 0.15973 0.43161 0.14392 0.0
H10 H 0.16029 0.3081 0.12906 0.0
H11 H 0.19236 0.39949 0.03275 0.0
H12 H 0.97574 0.38502 0.05549 0.0
H13 H 0.97943 0.32113 0.03001 0.0
H14 H 0.99407 0.41593 0.02357 0.0
H15 H 0.11877 0.45954 0.02364 0.0
H16 H 0.13163 0.37852 0.00557 0.0
C17 C 0.24011 0.19276 0.12225 0.0
C18 C 0.10414 0.16236 0.12219 0.0
C19 C 0.11703 0.15775 0.9616 0.0
C20 C 0.08642 0.21288 0.94571 0.0
C21 C 0.04925 0.26997 0.95713 0.0
C22 C 0.05139 0.27776 0.98425 0.0
C23 C 0.09087 0.22779 -0.0001 0.0
C24 C 0.11803 0.16612 0.98883 0.0
C25 C 0.15331 0.11651 0.0091 0.0
C26 C 0.14725 0.16162 0.03381 0.0
C27 C 0.11228 0.22753 0.02797 0.0
C28 C 0.23276 0.10366 0.00287 0.0
C29 C 0.10724 0.0469 0.0089 0.0
C30 C 0.10374 0.46148 0.08004 0.0
C31 C 0.12546 0.47858 0.10605 0.0
C32 C 0.14385 0.42104 0.12354 0.0
C33 C 0.14497 0.34907 0.11496 0.0
C34 C 0.12724 0.33361 0.08859 0.0
C35 C 0.10531 0.38894 0.07169 0.0
C36 C 0.08722 0.3614 0.04437 0.0
C37 C 0.10852 0.28193 0.04741 0.0
C38 C 0.13156 0.26602 0.07336 0.0
C39 C 0.13476 0.40176 0.02545 0.0
C40 C 0.00509 0.3715 0.03787 0.0
H41 H 0.23352 0.00691 0.04195 0.0
H42 H 0.17593 0.02587 0.13491 0.0
H43 H 0.06051 0.13047 0.11173 0.0
H44 H 0.08292 0.2177 0.12456 0.0
H45 H 0.11483 0.13874 0.142 0.0
H46 H 0.28928 0.15978 0.11972 0.0
H47 H 0.23253 0.19518 0.14357 0.0
H48 H 0.25362 0.2476 0.11538 0.0
H49 H 0.14668 0.11387 0.95322 0.0
H50 H 0.02561 0.31309 0.94504 0.0
H51 H 0.02663 0.32489 0.99187 0.0
H52 H 0.25441 0.15046 0.99226 0.0
H53 H 0.23805 0.05478 0.99047 0.0
H54 H 0.26912 0.09841 0.02075 0.0
H55 H 0.04989 0.06043 0.01154 0.0
H56 H 0.1238 0.0083 0.02444 0.0
H57 H 0.10951 0.01826 0.98986 0.0
H58 H 0.23572 0.89944 0.06865 0.0
C59 C 0.22127 0.01297 0.062 0.0
C60 C 0.32727 0.76372 0.35925 0.0
C61 C 0.39151 0.78253 0.34792 0.0
C62 C 0.39059 0.83828 0.32918 0.0
C63 C 0.26118 0.83416 0.32624 0.0
C64 C 0.26209 0.79266 0.34855 0.0
C65 C 0.18663 0.77758 0.35636 0.0
H66 H 0.83541 0.7371 0.31494 0.0
C67 C 0.18796 0.83404 0.31401 0.0
C68 C 0.14246 0.8058 0.33228 0.0
H69 H 0.92556 0.74169 0.395 0.0
H70 H 0.04285 0.77134 0.38017 0.0
H71 H 0.9164 0.87935 0.29614 0.0
H72 H 0.95433 0.65222 0.29309 0.0
H73 H 0.00795 0.68443 0.26871 0.0
H74 H 0.91178 0.69713 0.26548 0.0
H75 H 0.86518 0.81467 0.27669 0.0
H76 H 0.94281 0.85872 0.26453 0.0
C77 C 0.17336 0.82172 0.38142 0.0
C78 C 0.17628 0.69536 0.35996 0.0
C79 C 0.16916 0.80295 0.21586 0.0
C80 C 0.11505 0.77102 0.19929 0.0
C81 C 0.04569 0.76257 0.20796 0.0
C82 C 0.0311 0.78323 0.23331 0.0
C83 C 0.08768 0.80818 0.25057 0.0
C84 C 0.15515 0.81919 0.24166 0.0
C85 C 0.21082 0.83766 0.26334 0.0
C86 C 0.16505 0.83462 0.28699 0.0
C87 C 0.09372 0.8162 0.27917 0.0
C88 C 0.24119 0.91435 0.25876 0.0
C89 C 0.26947 0.7777 0.26402 0.0
C90 C 0.88012 0.74438 0.3293 0.0
C91 C 0.87075 0.73697 0.35598 0.0
C92 C 0.93106 0.74642 0.37415 0.0
C93 C -0.00089 0.7636 0.36575 0.0
C94 C 0.00738 0.77028 0.33899 0.0
C95 C 0.94862 0.76129 0.32135 0.0
C96 C 0.96774 0.77239 0.2938 0.0
C97 C 0.04547 0.796 0.29801 0.0
C98 C 0.06926 0.79209 0.32443 0.0
C99 C 0.9204 0.83424 0.28188 0.0
C100 C 0.95986 0.69825 0.27939 0.0
H101 H 0.32492 0.90318 0.30253 0.0
H102 H 0.32753 0.72259 0.37427 0.0
H103 H 0.19044 0.66542 0.34214 0.0
H104 H 0.11993 0.68197 0.36362 0.0
H105 H 0.21081 0.67499 0.37689 0.0
H106 H 0.22106 0.85429 0.38841 0.0
H107 H 0.16099 0.78588 0.39792 0.0
H108 H 0.12825 0.86076 0.37799 0.0
H109 H 0.22283 0.8106 0.20934 0.0
H110 H 0.00392 0.73626 0.1957 0.0
H111 H 0.97727 0.77512 0.23884 0.0
H112 H 0.21227 0.9423 0.24195 0.0
H113 H 0.299 0.91219 0.25457 0.0
H114 H 0.23556 0.95007 0.27598 0.0
H115 H 0.24558 0.72401 0.26793 0.0
H116 H 0.31391 0.78695 0.27881 0.0
H117 H 0.29529 0.7744 0.24513 0.0
H118 H 0.43984 0.85454 0.32068 0.0
C119 C 0.32479 0.86489 0.31829 0.0
C120 C 0.68932 0.54576 0.61377 0.0
C121 C 0.70586 0.47764 0.60315 0.0
C122 C 0.73674 0.47465 0.57882 0.0
C123 C 0.70728 0.60063 0.57204 0.0
C124 C 0.69246 0.60742 0.59792 0.0
C125 C 0.67368 0.68471 0.60455 0.0
H126 H 0.61957 0.02784 0.55961 0.0
C127 C 0.68476 0.66762 0.55847 0.0
C128 C 0.66875 0.71893 0.57739 0.0
H129 H 0.64876 0.95418 0.63969 0.0
H130 H 0.65095 0.83086 0.62515 0.0
H131 H 0.7198 0.91334 0.52885 0.0
H132 H 0.49802 0.91599 0.54549 0.0
H133 H 0.50326 0.84646 0.522 0.0
H134 H 0.52467 0.93843 0.51366 0.0
H135 H 0.65134 0.977 0.51751 0.0
H136 H 0.6613 0.89254 0.50077 0.0
C137 C 0.73651 0.71637 0.62244 0.0
C138 C 0.60012 0.68626 0.61695 0.0
C139 C 0.60683 0.64906 0.46233 0.0
C140 C 0.57725 0.69858 0.44378 0.0
C141 C 0.55465 0.76664 0.45251 0.0
C142 C 0.57011 0.78839 0.47866 0.0
C143 C 0.60644 0.74034 0.49626 0.0
C144 C 0.62184 0.67109 0.48814 0.0
C145 C 0.65998 0.62641 0.50922 0.0
C146 C 0.66251 0.67972 0.53186 0.0
C147 C 0.63208 0.74661 0.52408 0.0
C148 C 0.73641 0.60665 0.50092 0.0
C149 C 0.61231 0.55974 0.51389 0.0
C150 C 0.62427 0.98532 0.57393 0.0
C151 C 0.63477 0.00178 0.60076 0.0
C152 C 0.64199 0.94393 0.61884 0.0
C153 C 0.64388 0.87205 0.61047 0.0
C154 C 0.63689 0.85686 0.58371 0.0
C155 C 0.62387 0.91231 0.56587 0.0
C156 C 0.61042 0.88333 0.53836 0.0
C157 C 0.62729 0.80325 0.54266 0.0
C158 C 0.64333 0.78854 0.56927 0.0
C159 C 0.66353 0.91854 0.52028 0.0
C160 C 0.53021 0.89677 0.52928 0.0
H161 H 0.75603 0.53069 0.54382 0.0
H162 H 0.66788 0.54963 0.63288 0.0
H163 H 0.56025 0.65245 0.60532 0.0
H164 H 0.57682 0.74119 0.61752 0.0
H165 H 0.60503 0.66481 0.63723 0.0
H166 H 0.78736 0.68539 0.62078 0.0
H167 H 0.72406 0.71534 0.64335 0.0
H168 H 0.75001 0.77242 0.617 0.0
H169 H 0.62443 0.59593 0.45634 0.0
H170 H 0.52883 0.80404 0.43882 0.0
H171 H 0.55594 0.84238 0.48403 0.0
H172 H 0.75249 0.64002 0.48423 0.0
H173 H 0.73947 0.54902 0.49484 0.0
H174 H 0.7785 0.61709 0.51683 0.0
H175 H 0.55901 0.57697 0.52037 0.0
H176 H 0.63624 0.52212 0.52863 0.0
H177 H 0.603 0.5278 0.49561 0.0
H178 H 0.75154 0.42316 0.57051 0.0
C179 C 0.73739 0.53636 0.56308 0.0
C180 C 0.84854 0.24411 0.85716 0.0
C181 C 0.90951 0.27748 0.84716 0.0
C182 C 0.89927 0.33739 0.83038 0.0
C183 C 0.77234 0.31184 0.82625 0.0
C184 C 0.77936 0.26522 0.84709 0.0
C185 C 0.70554 0.24434 0.85571 0.0
H186 H 0.34516 0.22484 0.81687 0.0
C187 C 0.6985 0.3083 0.81494 0.0
C188 C 0.65667 0.27215 0.83263 0.0
H189 H 0.43921 0.20483 0.89586 0.0
H190 H 0.55961 0.21436 0.88008 0.0
H191 H 0.43786 0.35905 0.80026 0.0
H192 H 0.45403 0.1303 0.7902 0.0
H193 H 0.51011 0.16413 0.76677 0.0
H194 H 0.41489 0.18521 0.76443 0.0
H195 H 0.37571 0.30167 0.7818 0.0
H196 H 0.45246 0.33884 0.76719 0.0
C197 C 0.69316 0.28631 0.88121 0.0
C198 C 0.70036 0.16167 0.85887 0.0
C199 C 0.67584 0.30233 0.71657 0.0
C200 C 0.62234 0.27286 0.69918 0.0
C201 C 0.55402 0.25805 0.70786 0.0
C202 C 0.53987 0.2705 0.73394 0.0
C203 C 0.59603 0.29351 0.75171 0.0
C204 C 0.66241 0.31043 0.74285 0.0
C205 C 0.71814 0.3266 0.76467 0.0
C206 C 0.67389 0.3144 0.78831 0.0
C207 C 0.60327 0.29402 0.78044 0.0
C208 C 0.74412 0.40589 0.76227 0.0
C209 C 0.78015 0.27075 0.76325 0.0
C210 C 0.39157 0.22135 0.83074 0.0
C211 C 0.38275 0.21482 0.85751 0.0
C212 C 0.44474 0.21066 0.87505 0.0
C213 C 0.51425 0.2179 0.86608 0.0
C214 C 0.52157 0.23143 0.83947 0.0
C215 C 0.46082 0.23137 0.82228 0.0
C216 C 0.47788 0.24828 0.79484 0.0
C217 C 0.55719 0.2666 0.7989 0.0
C218 C 0.58345 0.25528 0.82492 0.0
C219 C 0.43351 0.31529 0.7853 0.0
C220 C 0.46342 0.17887 0.77809 0.0
H221 H 0.82358 0.39906 0.80629 0.0
H222 H 0.85499 0.20164 0.87166 0.0
H223 H 0.71391 0.13388 0.84055 0.0
H224 H 0.64552 0.14475 0.86328 0.0
H225 H 0.73829 0.14243 0.87505 0.0
H226 H 0.72047 0.33984 0.88152 0.0
H227 H 0.7147 0.25577 0.89869 0.0
H228 H 0.63587 0.29908 0.88325 0.0
H229 H 0.72877 0.31455 0.71012 0.0
H230 H 0.51282 0.23336 0.69487 0.0
H231 H 0.48663 0.25895 0.73939 0.0
H232 H 0.72298 0.43192 0.74375 0.0
H233 H 0.80374 0.40895 0.76227 0.0
H234 H 0.72618 0.44012 0.77848 0.0
H235 H 0.7594 0.21467 0.76489 0.0
H236 H 0.8234 0.27838 0.77872 0.0
H237 H 0.80644 0.27528 0.74449 0.0
H238 H 0.94489 0.36715 0.82397 0.0
C239 C 0.83024 0.35482 0.81978 0.0
C240 C 0.09646 0.9264 0.87188 0.0
C241 C 0.09432 0.99443 0.88459 0.0
C242 C 0.07006 0.99824 0.90992 0.0
C243 C 0.05973 0.86784 0.9109 0.0
C244 C 0.07791 0.86382 0.88534 0.0
C245 C 0.07713 0.78656 0.87539 0.0
H246 H 0.05552 0.42895 0.90585 0.0
C247 C 0.05103 0.79379 0.92049 0.0
C248 C 0.05826 0.74528 0.89975 0.0
H249 H 0.1126 0.52104 0.83288 0.0
H250 H 0.08318 0.64144 0.84838 0.0
H251 H 0.15315 0.51523 0.93392 0.0
H252 H 0.92481 0.55174 0.92532 0.0
H253 H 0.95655 0.55789 0.95873 0.0
H254 H 0.96903 0.47516 0.94096 0.0
H255 H 0.09449 0.47887 0.95689 0.0
H256 H 0.13425 0.56749 0.96111 0.0
C257 C 0.15348 0.76766 0.86716 0.0
C258 C 0.01755 0.77974 0.85306 0.0
C259 C 0.07326 0.7598 0.01729 0.0
C260 C 0.08121 0.69982 0.03396 0.0
C261 C 0.06903 0.6303 0.02333 0.0
C262 C 0.0531 0.62135 -0.00383 0.0
C263 C 0.05036 0.68277 0.97976 0.0
C264 C 0.05894 0.75035 0.99076 0.0
C265 C 0.0557 0.81058 0.9714 0.0
C266 C 0.04718 0.76796 0.94624 0.0
C267 C 0.04408 0.6934 0.95107 0.0
C268 C 0.1288 0.8514 0.9745 0.0
C269 C 0.98856 0.85792 0.97609 0.0
C270 C 0.05752 0.47479 0.89271 0.0
C271 C 0.08364 0.46608 0.86791 0.0
C272 C 0.09063 0.52694 0.85184 0.0
C273 C 0.07502 0.59661 0.86111 0.0
C274 C 0.05633 0.60514 0.88716 0.0
C275 C 0.0474 0.54438 0.9024 0.0
C276 C 0.04246 0.56233 0.93083 0.0
C277 C 0.04508 0.64403 0.92995 0.0
C278 C 0.0527 0.66943 0.90436 0.0
C279 C 0.10895 0.52922 0.94665 0.0
C280 C 0.96941 0.53516 0.93961 0.0
H281 H 0.03494 0.9421 0.94233 0.0
H282 H 0.11232 0.92182 0.85198 0.0
H283 H 0.9678 0.8083 0.85832 0.0
H284 H 0.00138 0.72319 0.84909 0.0
H285 H 0.03503 0.80418 0.83473 0.0
H286 H 0.19534 0.79171 0.88106 0.0
H287 H 0.162 0.78897 0.84734 0.0
H288 H 0.16468 0.70906 0.86744 0.0
H289 H 0.07894 0.81473 0.02452 0.0
H290 H 0.07212 0.58349 0.03574 0.0
H291 H 0.04457 0.5673 0.9889 0.0
H292 H 0.17449 0.81236 0.97517 0.0
H293 H 0.13311 0.88342 -0.0071 0.0
H294 H 0.13838 0.88874 0.95846 0.0
H295 H 0.95053 0.83056 0.98873 0.0
H296 H 0.9561 0.86943 0.95759 0.0
H297 H 0.00427 0.90983 0.98582 0.0
H298 H 0.06506 0.04974 0.91973 0.0
C299 C 0.052 0.93547 0.92297 0.0
C300 C 0.83276 0.7663 0.12829 0.0
C301 C 0.90216 0.78035 0.1402 0.0
C302 C 0.90835 0.81886 0.16389 0.0
C303 C 0.77966 0.81341 0.16656 0.0
C304 C 0.7719 0.78456 0.14178 0.0
C305 C 0.69332 0.78122 0.132 0.0
H306 H 0.34301 0.8027 0.16343 0.0
C307 C 0.70846 0.82243 0.17643 0.0
C308 C 0.65642 0.80737 0.15607 0.0
H309 H 0.42031 0.74145 0.08906 0.0
H310 H 0.54304 0.77062 0.10497 0.0
H311 H 0.43373 0.71042 0.19081 0.0
H312 H 0.45887 0.9374 0.18236 0.0
H313 H 0.47973 0.91445 0.21553 0.0
H314 H 0.39287 0.89109 0.20021 0.0
H315 H 0.41123 0.77002 0.21645 0.0
H316 H 0.49945 0.72935 0.21593 0.0
C317 C 0.67461 0.70182 0.12504 0.0
C318 C 0.68118 0.83414 0.1088 0.0
C319 C 0.69245 0.7886 0.2733 0.0
C320 C 0.63283 0.77621 0.28778 0.0
C321 C 0.56346 0.79508 0.2772 0.0
C322 C 0.55284 0.81949 0.25152 0.0
C323 C 0.61191 0.82299 0.23603 0.0
C324 C 0.68069 0.81116 0.2472 0.0
C325 C 0.73675 0.81878 0.22763 0.0
C326 C 0.68897 0.82895 0.2025 0.0
C327 C 0.61603 0.83051 0.20759 0.0
C328 C 0.78124 0.74786 0.22708 0.0
C329 C 0.78273 0.88669 0.23494 0.0
C330 C 0.38601 0.79936 0.15017 0.0
C331 C 0.37217 0.77288 0.12471 0.0
C332 C 0.42987 0.76403 0.10851 0.0
C333 C 0.50099 0.77984 0.11795 0.0
C334 C 0.51457 0.80125 0.14422 0.0
C335 C 0.45719 0.81073 0.15978 0.0
C336 C 0.48092 0.82131 0.18811 0.0
C337 C 0.56215 0.82316 0.18676 0.0
C338 C 0.58198 0.81094 0.16105 0.0
C339 C 0.45504 0.75493 0.20375 0.0
C340 C 0.45137 0.89478 0.19724 0.0
H341 H 0.85338 0.86992 0.1939 0.0
H342 H 0.82621 0.74292 0.10887 0.0
H343 H 0.71266 0.88467 0.11251 0.0
H344 H 0.62459 0.85185 0.10573 0.0
H345 H 0.69855 0.80961 0.09042 0.0
H346 H 0.6964 0.66498 0.1408 0.0
H347 H 0.6983 0.68556 0.10655 0.0
H348 H 0.61616 0.69176 0.12298 0.0
H349 H 0.74582 0.77528 0.28145 0.0
H350 H 0.51669 0.78698 0.2884 0.0
H351 H 0.49873 0.83113 0.24433 0.0
H352 H 0.74717 0.70243 0.21922 0.0
H353 H 0.80289 0.73237 0.24689 0.0
H354 H 0.82827 0.75244 0.21517 0.0
H355 H 0.7735 0.90785 0.2548 0.0
H356 H 0.77051 0.9318 0.22101 0.0
H357 H 0.84102 0.87474 0.23521 0.0
H358 H 0.96018 0.83863 0.1716 0.0
C359 C 0.84711 0.83667 0.17685 0.0
C360 C 0.58088 0.38432 0.35924 0.0
C361 C 0.59466 0.45436 0.36975 0.0
C362 C 0.61252 0.46209 0.39664 0.0
C363 C 0.59669 0.3342 0.40286 0.0
C364 C 0.58304 0.32442 0.3763 0.0
C365 C 0.57441 0.24456 0.36957 0.0
H366 H 0.55487 0.9031 0.42002 0.0
C367 C 0.58914 0.26448 0.41583 0.0
C368 C 0.57511 0.21076 0.39683 0.0
H369 H 0.59226 0.95692 0.34054 0.0
H370 H 0.57088 0.08511 0.34988 0.0
H371 H 0.6549 0.99645 0.44302 0.0
H372 H 0.42762 0.03746 0.43023 0.0
H373 H 0.45471 0.07135 0.46145 0.0
H374 H 0.46485 0.976 0.45465 0.0
H375 H 0.59008 0.95828 0.46342 0.0
H376 H 0.6306 0.04472 0.47036 0.0
C377 C 0.64048 0.22108 0.3548 0.0
C378 C 0.50212 0.23207 0.35376 0.0
C379 C 0.61647 0.26077 0.51389 0.0
C380 C 0.59824 0.21087 0.53285 0.0
C381 C 0.56762 0.14417 0.525 0.0
C382 C 0.55768 0.12682 0.4983 0.0
C383 C 0.57684 0.17785 0.47958 0.0
C384 C 0.60314 0.24424 0.4877 0.0
C385 C 0.60953 0.29641 0.46581 0.0
C386 C 0.58923 0.24819 0.44269 0.0
C387 C 0.57119 0.17891 0.45075 0.0
C388 C 0.68922 0.32172 0.46622 0.0
C389 C 0.55318 0.35772 0.46905 0.0
C390 C 0.5552 0.94175 0.40438 0.0
C391 C 0.57426 0.92041 0.37974 0.0
C392 C 0.57755 0.97276 0.35985 0.0
C393 C 0.56677 0.04679 0.36542 0.0
C394 C 0.55518 0.06783 0.39126 0.0
C395 C 0.54762 0.01487 0.41001 0.0
C396 C 0.54578 0.0446 0.43711 0.0
C397 C 0.55838 0.12363 0.43202 0.0
C398 C 0.56146 0.13845 0.4051 0.0
C399 C 0.60796 0.0094 0.45459 0.0
C400 C 0.46958 0.03145 0.44661 0.0
H401 H 0.62604 0.41375 0.43342 0.0
H402 H 0.56835 0.37667 0.33847 0.0
H403 H 0.45705 0.25555 0.36424 0.0
H404 H 0.49062 0.1739 0.35078 0.0
H405 H 0.50215 0.25809 0.33422 0.0
H406 H 0.68989 0.24994 0.36249 0.0
H407 H 0.63227 0.23342 0.33359 0.0
H408 H 0.65337 0.16318 0.35731 0.0
H409 H 0.63749 0.31383 0.51924 0.0
H410 H 0.54799 0.10751 0.53927 0.0
H411 H 0.53476 0.07503 0.49323 0.0
H412 H 0.72669 0.27793 0.47331 0.0
H413 H 0.69882 0.36906 0.47938 0.0
H414 H 0.70661 0.33527 0.4466 0.0
H415 H 0.50797 0.33963 0.48063 0.0
H416 H 0.52638 0.37531 0.45018 0.0
H417 H 0.57803 0.40534 0.47928 0.0
H418 H 0.62313 0.51464 0.40531 0.0
C419 C 0.61326 0.40288 0.41314 0.0
C420 C 0.33693 0.2805 0.62938 0.0
C421 C 0.40649 0.2915 0.64162 0.0
C422 C 0.41301 0.32297 0.6666 0.0
C423 C 0.28334 0.32386 0.66822 0.0
C424 C 0.27605 0.29827 0.64292 0.0
C425 C 0.19793 0.29717 0.63254 0.0
H426 H 0.84567 0.34448 0.65855 0.0
C427 C 0.21123 0.33797 0.67707 0.0
C428 C 0.16031 0.32592 0.65605 0.0
H429 H 0.92763 0.2574 0.58829 0.0
H430 H 0.05 0.28526 0.60465 0.0
H431 H 0.92369 0.25782 0.69023 0.0
H432 H 0.97273 0.47735 0.67473 0.0
H433 H 0.9855 0.46119 0.70883 0.0
H434 H 0.89924 0.44271 0.69206 0.0
H435 H 0.90612 0.32615 0.71358 0.0
H436 H 0.9898 0.27611 0.71522 0.0
C437 C 0.1772 0.21783 0.62611 0.0
C438 C 0.18882 0.3488 0.60885 0.0
C439 C 0.17874 0.32427 0.77318 0.0
C440 C 0.11651 0.32021 0.78693 0.0
C441 C 0.05082 0.3461 0.77542 0.0
C442 C 0.04606 0.36856 0.74922 0.0
C443 C 0.10699 0.36225 0.73452 0.0
C444 C 0.17282 0.3445 0.7469 0.0
C445 C 0.23211 0.34157 0.72847 0.0
C446 C 0.18892 0.35195 0.70243 0.0
C447 C 0.11561 0.36276 0.70609 0.0
C448 C 0.26826 0.26586 0.7303 0.0
C449 C 0.28483 0.40488 0.73533 0.0
C450 C 0.88979 0.33529 0.64612 0.0
C451 C 0.87719 0.30141 0.62177 0.0
C452 C 0.93621 0.28539 0.60683 0.0
C453 C 0.00717 0.30032 0.61661 0.0
C454 C 0.0193 0.32833 0.64211 0.0
C455 C 0.96077 0.34549 0.65633 0.0
C456 C 0.98232 0.36176 0.68451 0.0
C457 C 0.06378 0.35599 0.68457 0.0
C458 C 0.08561 0.3367 0.65967 0.0
C459 C 0.94887 0.30306 0.70188 0.0
C460 C 0.95848 0.43985 0.69055 0.0
H461 H 0.35988 0.36523 0.69849 0.0
H462 H 0.33019 0.2607 0.60945 0.0
H463 H 0.21991 0.39945 0.61278 0.0
H464 H 0.13253 0.36615 0.60459 0.0
H465 H 0.20875 0.32325 0.59105 0.0
H466 H 0.20074 0.18078 0.64151 0.0
H467 H 0.19765 0.20082 0.60714 0.0
H468 H 0.11864 0.20837 0.62546 0.0
H469 H 0.22982 0.30581 0.78217 0.0
H470 H 0.00218 0.34285 0.78578 0.0
H471 H 0.99439 0.3855 0.74092 0.0
H472 H 0.22788 0.22271 0.72557 0.0
H473 H 0.29297 0.25532 0.75019 0.0
H474 H 0.3118 0.25944 0.71691 0.0
H475 H 0.26812 0.43858 0.75192 0.0
H476 H 0.28819 0.44261 0.71859 0.0
H477 H 0.33972 0.38469 0.74123 0.0
H478 H 0.46518 0.33907 0.67517 0.0
C479 C 0.35186 0.33939 0.67989 0.0
Zn480 Zn 0.21181 0.65671 0.14109 0.0
Zn481 Zn 0.06558 0.80931 0.09983 0.0
Zn482 Zn 0.13137 0.72391 0.11736 0.0
C483 C 0.09906 0.71578 0.06192 0.0
C484 C 0.16967 0.88911 0.11392 0.0
O485 O 0.08779 0.73375 0.15479 0.0
O486 O 0.19818 0.71915 0.17226 0.0
C487 C 0.13565 0.55466 0.11529 0.0
O488 O 0.09608 0.67025 0.08068 0.0
O489 O 0.10949 0.78149 0.06761 0.0
O490 O 0.10513 0.89551 0.11973 0.0
O491 O 0.1937 0.82496 0.10923 0.0
O492 O 0.16214 0.5634 0.13837 0.0
O493 O 0.12624 0.61089 0.10046 0.0
O494 O 0.24316 0.77027 0.11914 0.0
O495 O 0.30298 0.66813 0.12283 0.0
C496 C 0.30325 0.73548 0.11908 0.0
O497 O 0.02892 0.75209 0.1377 0.0
O498 O 0.96374 0.78258 0.1019 0.0
C499 C 0.13418 0.74016 0.17436 0.0
C500 C 0.96702 0.76757 0.1259 0.0
Zn501 Zn 0.51297 0.61426 0.31769 0.0
Zn502 Zn 0.69964 0.72672 0.3944 0.0
Zn503 Zn 0.62251 0.69639 0.36075 0.0
C504 C 0.60474 0.84751 0.37729 0.0
C505 C 0.79937 0.72073 0.36559 0.0
O506 O 0.60993 0.58081 0.36314 0.0
O507 O 0.54268 0.51914 0.3335 0.0
C508 C 0.45044 0.72996 0.34802 0.0
O509 O 0.56423 0.79241 0.37186 0.0
O510 O 0.66808 0.83537 0.38701 0.0
O511 O 0.79771 0.70421 0.38935 0.0
O512 O 0.73931 0.72749 0.35131 0.0
O513 O 0.43764 0.67224 0.33495 0.0
O514 O 0.51477 0.74829 0.3565 0.0
O515 O 0.68231 0.74381 0.33105 0.0
O516 O 0.58942 0.68618 0.31394 0.0
C517 C 0.63803 0.73209 0.31146 0.0
O518 O 0.57001 0.72737 0.39738 0.0
O519 O 0.64695 0.64883 0.41257 0.0
C520 C 0.58439 0.52074 0.35403 0.0
C521 C 0.59178 0.6857 0.41612 0.0
Zn522 Zn 0.5639 0.32954 0.59778 0.0
Zn523 Zn 0.71998 0.17822 0.63725 0.0
Zn524 Zn 0.63621 0.24672 0.61591 0.0
C525 C 0.80816 0.26333 0.61683 0.0
C526 C 0.64617 0.0768 0.61085 0.0
O527 O 0.53431 0.26947 0.6374 0.0
O528 O 0.46469 0.30003 0.60272 0.0
C529 C 0.66921 0.41249 0.6119 0.0
O530 O 0.74738 0.29637 0.61828 0.0
O531 O 0.80954 0.19537 0.61865 0.0
O532 O 0.67507 0.08313 0.63369 0.0
O533 O 0.63351 0.13476 0.5972 0.0
O534 O 0.60331 0.41858 0.61589 0.0
O535 O 0.69487 0.34865 0.60809 0.0
O536 O 0.60618 0.19276 0.57965 0.0
O537 O 0.59833 0.30317 0.56378 0.0
C538 C 0.6018 0.23576 0.55999 0.0
O539 O 0.59458 0.2474 0.65369 0.0
O540 O 0.70622 0.23352 0.67003 0.0
C541 C 0.47086 0.28332 0.62655 0.0
C542 C 0.64158 0.25069 0.67315 0.0
Zn543 Zn 0.09168 0.15042 0.83482 0.0
Zn544 Zn 0.21113 0.30498 0.88954 0.0
Zn545 Zn 0.14124 0.22811 0.86465 0.0
C546 C 0.11636 0.22796 0.92074 0.0
C547 C 0.12487 0.39992 0.86409 0.0
O548 O 0.09568 0.29211 0.83157 0.0
O549 O 0.13706 0.20736 0.80665 0.0
C550 C 0.11283 0.06135 0.87091 0.0
O551 O 0.10996 0.1853 0.90104 0.0
O552 O 0.15315 0.28504 0.91969 0.0
O553 O 0.19021 0.40053 0.87252 0.0
O554 O 0.09239 0.33862 0.86052 0.0
O555 O 0.13055 0.05696 0.84758 0.0
O556 O 0.10531 0.12437 0.88136 0.0
O557 O 0.03965 0.28398 0.85157 0.0
O558 O 0.98889 0.17764 0.84639 0.0
C559 C 0.98195 0.24469 0.85071 0.0
O560 O 0.25239 0.21556 0.85322 0.0
O561 O 0.30776 0.25996 0.88885 0.0
C562 C 0.11797 0.27237 0.80954 0.0
C563 C 0.31081 0.22684 0.8674 0.0
loop_
_geom_bond_atom_site_label_1
_geom_bond_atom_site_label_2
_geom_bond_distance
_geom_bond_site_symmetry_2
_ccdc_geom_bond_type
C0 C1 1.391 1_545 S
C0 C4 1.391 . S
C0 H42 0.948 . S
C1 C0 1.391 1_565 S
C1 C2 1.391 . S
C2 C1 1.391 . S
C2 H58 0.947 . S
C2 C59 1.392 1_565 S
C3 C4 1.391 . S
C3 C7 1.397 . S
C3 C59 1.419 . S
C4 C0 1.391 . S
C4 C3 1.391 . S
C4 C5 1.399 . S
C5 C4 1.399 . S
C5 C8 1.396 . S
C5 C17 1.453 . S
C5 C18 1.684 . S
H6 C30 0.948 . S
C7 C3 1.397 . S
C7 C8 1.394 . S
C7 C26 1.723 . S
C8 C5 1.396 . S
C8 C7 1.394 . S
C8 C38 1.723 . S
H9 C32 0.947 . S
H10 C33 0.948 . S
H11 C39 0.982 . S
H12 C40 0.979 . S
H13 C40 0.980 . S
H14 C40 0.983 . S
H15 C39 0.979 . S
H16 C39 0.977 . S
C17 C5 1.453 . S
C17 H46 0.982 . S
C17 H47 0.979 . S
C17 H48 0.977 . S
C18 C5 1.684 . S
C18 H43 0.979 . S
C18 H44 0.980 . S
C18 H45 0.983 . S
C19 C20 1.391 . S
C19 C24 1.391 . S
C19 H49 0.948 . S
C20 C19 1.391 . S
C20 C21 1.391 . S
C21 C20 1.391 . S
C21 C22 1.392 . S
C21 H50 0.947 . S
C22 C21 1.392 . S
C22 C23 1.419 1_556 S
C22 H51 0.948 1_556 S
C23 C22 1.419 1_554 S
C23 C24 1.391 1_554 S
C23 C27 1.397 . S
C24 C19 1.391 . S
C24 C23 1.391 1_556 S
C24 C25 1.399 1_556 S
C25 C24 1.399 1_554 S
C25 C26 1.396 . S
C25 C28 1.453 . S
C25 C29 1.684 . S
C26 C7 1.723 . S
C26 C25 1.396 . S
C26 C27 1.394 . S
C27 C23 1.397 . S
C27 C26 1.394 . S
C27 C37 1.723 . S
C28 C25 1.453 . S
C28 H52 0.982 . S
C28 H53 0.979 . S
C28 H54 0.977 . S
C29 C25 1.684 . S
C29 H55 0.979 . S
C29 H56 0.980 . S
C29 H57 0.983 1_554 S
C30 H6 0.948 . S
C30 C31 1.391 . S
C30 C35 1.391 . S
C31 C30 1.391 . S
C31 C32 1.391 . S
C32 H9 0.947 . S
C32 C31 1.391 . S
C32 C33 1.392 . S
C33 H10 0.948 . S
C33 C32 1.392 . S
C33 C34 1.419 . S
C34 C33 1.419 . S
C34 C35 1.391 . S
C34 C38 1.397 . S
C35 C30 1.391 . S
C35 C34 1.391 . S
C35 C36 1.399 . S
C36 C35 1.399 . S
C36 C37 1.396 . S
C36 C39 1.453 . S
C36 C40 1.684 . S
C37 C27 1.723 . S
C37 C36 1.396 . S
C37 C38 1.394 . S
C38 C8 1.723 . S
C38 C34 1.397 . S
C38 C37 1.394 . S
C39 H11 0.982 . S
C39 H15 0.979 . S
C39 H16 0.977 . S
C39 C36 1.453 . S
C40 H12 0.979 . S
C40 H13 0.980 . S
C40 H14 0.983 . S
C40 C36 1.684 . S
H41 C59 0.948 . S
H42 C0 0.948 . S
H43 C18 0.979 . S
H44 C18 0.980 . S
H45 C18 0.983 . S
H46 C17 0.982 . S
H47 C17 0.979 . S
H48 C17 0.977 . S
H49 C19 0.948 . S
H50 C21 0.947 . S
H51 C22 0.948 1_554 S
H52 C28 0.982 . S
H53 C28 0.979 . S
H54 C28 0.977 . S
H55 C29 0.979 . S
H56 C29 0.980 . S
H57 C29 0.983 1_556 S
H58 C2 0.947 . S
C59 C2 1.392 1_545 S
C59 C3 1.419 . S
C59 H41 0.948 . S
C60 C61 1.391 . S
C60 C64 1.391 . S
C60 H102 0.948 . S
C61 C60 1.391 . S
C61 C62 1.391 . S
C62 C61 1.391 . S
C62 H118 0.947 . S
C62 C119 1.392 . S
C63 C64 1.391 . S
C63 C67 1.397 . S
C63 C119 1.419 . S
C64 C60 1.391 . S
C64 C63 1.391 . S
C64 C65 1.399 . S
C65 C64 1.399 . S
C65 C68 1.396 . S
C65 C77 1.453 . S
C65 C78 1.684 . S
H66 C90 0.948 . S
C67 C63 1.397 . S
C67 C68 1.394 . S
C67 C86 1.723 . S
C68 C65 1.396 . S
C68 C67 1.394 . S
C68 C98 1.723 . S
H69 C92 0.947 . S
H70 C93 0.948 1_455 S
H71 C99 0.982 . S
H72 C100 0.979 . S
H73 C100 0.980 . S
H74 C100 0.983 . S
H75 C99 0.979 . S
H76 C99 0.977 . S
C77 C65 1.453 . S
C77 H106 0.982 . S
C77 H107 0.979 . S
C77 H108 0.977 . S
C78 C65 1.684 . S
C78 H103 0.979 . S
C78 H104 0.980 . S
C78 H105 0.983 . S
C79 C80 1.391 . S
C79 C84 1.391 . S
C79 H109 0.948 . S
C80 C79 1.391 . S
C80 C81 1.391 . S
C81 C80 1.391 . S
C81 C82 1.392 . S
C81 H110 0.947 1_455 S
C82 C81 1.392 . S
C82 C83 1.419 . S
C82 H111 0.948 1_455 S
C83 C82 1.419 . S
C83 C84 1.391 . S
C83 C87 1.397 . S
C84 C79 1.391 . S
C84 C83 1.391 . S
C84 C85 1.399 . S
C85 C84 1.399 . S
C85 C86 1.396 . S
C85 C88 1.453 . S
C85 C89 1.684 . S
C86 C67 1.723 . S
C86 C85 1.396 . S
C86 C87 1.394 . S
C87 C83 1.397 . S
C87 C86 1.394 . S
C87 C97 1.723 . S
C88 C85 1.453 . S
C88 H112 0.982 . S
C88 H113 0.979 . S
C88 H114 0.977 . S
C89 C85 1.684 . S
C89 H115 0.979 . S
C89 H116 0.980 . S
C89 H117 0.983 . S
C90 H66 0.948 . S
C90 C91 1.391 . S
C90 C95 1.391 . S
C91 C90 1.391 . S
C91 C92 1.391 . S
C92 H69 0.947 . S
C92 C91 1.391 . S
C92 C93 1.392 . S
C93 H70 0.948 1_655 S
C93 C92 1.392 . S
C93 C94 1.419 . S
C94 C93 1.419 . S
C94 C95 1.391 . S
C94 C98 1.397 1_655 S
C95 C90 1.391 . S
C95 C94 1.391 . S
C95 C96 1.399 . S
C96 C95 1.399 . S
C96 C97 1.396 1_655 S
C96 C99 1.453 . S
C96 C100 1.684 . S
C97 C87 1.723 . S
C97 C96 1.396 1_455 S
C97 C98 1.394 . S
C98 C68 1.723 . S
C98 C94 1.397 1_455 S
C98 C97 1.394 . S
C99 H71 0.982 . S
C99 H75 0.979 . S
C99 H76 0.977 . S
C99 C96 1.453 . S
C100 H72 0.979 . S
C100 H73 0.980 . S
C100 H74 0.983 . S
C100 C96 1.684 . S
H101 C119 0.948 . S
H102 C60 0.948 . S
H103 C78 0.979 . S
H104 C78 0.980 . S
H105 C78 0.983 . S
H106 C77 0.982 . S
H107 C77 0.979 . S
H108 C77 0.977 . S
H109 C79 0.948 . S
H110 C81 0.947 1_655 S
H111 C82 0.948 1_655 S
H112 C88 0.982 . S
H113 C88 0.979 . S
H114 C88 0.977 . S
H115 C89 0.979 . S
H116 C89 0.980 . S
H117 C89 0.983 . S
H118 C62 0.947 . S
C119 C62 1.392 . S
C119 C63 1.419 . S
C119 H101 0.948 . S
C120 C121 1.391 . S
C120 C124 1.391 . S
C120 H162 0.948 . S
C121 C120 1.391 . S
C121 C122 1.391 . S
C122 C121 1.391 . S
C122 H178 0.947 . S
C122 C179 1.392 . S
C123 C124 1.391 . S
C123 C127 1.397 . S
C123 C179 1.419 . S
C124 C120 1.391 . S
C124 C123 1.391 . S
C124 C125 1.399 . S
C125 C124 1.399 . S
C125 C128 1.396 . S
C125 C137 1.453 . S
C125 C138 1.684 . S
H126 C150 0.948 1_545 S
C127 C123 1.397 . S
C127 C128 1.394 . S
C127 C146 1.723 . S
C128 C125 1.396 . S
C128 C127 1.394 . S
C128 C158 1.723 . S
H129 C152 0.947 . S
H130 C153 0.948 . S
H131 C159 0.982 . S
H132 C160 0.979 . S
H133 C160 0.980 . S
H134 C160 0.983 . S
H135 C159 0.979 . S
H136 C159 0.977 . S
C137 C125 1.453 . S
C137 H166 0.982 . S
C137 H167 0.979 . S
C137 H168 0.977 . S
C138 C125 1.684 . S
C138 H163 0.979 . S
C138 H164 0.980 . S
C138 H165 0.983 . S
C139 C140 1.391 . S
C139 C144 1.391 . S
C139 H169 0.948 . S
C140 C139 1.391 . S
C140 C141 1.391 . S
C141 C140 1.391 . S
C141 C142 1.392 . S
C141 H170 0.947 . S
C142 C141 1.392 . S
C142 C143 1.419 . S
C142 H171 0.948 . S
C143 C142 1.419 . S
C143 C144 1.391 . S
C143 C147 1.397 . S
C144 C139 1.391 . S
C144 C143 1.391 . S
C144 C145 1.399 . S
C145 C144 1.399 . S
C145 C146 1.396 . S
C145 C148 1.453 . S
C145 C149 1.684 . S
C146 C127 1.723 . S
C146 C145 1.396 . S
C146 C147 1.394 . S
C147 C143 1.397 . S
C147 C146 1.394 . S
C147 C157 1.723 . S
C148 C145 1.453 . S
C148 H172 0.982 . S
C148 H173 0.979 . S
C148 H174 0.977 . S
C149 C145 1.684 . S
C149 H175 0.979 . S
C149 H176 0.980 . S
C149 H177 0.983 . S
C150 H126 0.948 1_565 S
C150 C151 1.391 . S
C150 C155 1.391 . S
C151 C150 1.391 . S
C151 C152 1.391 . S
C152 H129 0.947 . S
C152 C151 1.391 . S
C152 C153 1.392 . S
C153 H130 0.948 . S
C153 C152 1.392 . S
C153 C154 1.419 . S
C154 C153 1.419 . S
C154 C155 1.391 . S
C154 C158 1.397 . S
C155 C150 1.391 . S
C155 C154 1.391 . S
C155 C156 1.399 . S
C156 C155 1.399 . S
C156 C157 1.396 . S
C156 C159 1.453 . S
C156 C160 1.684 . S
C157 C147 1.723 . S
C157 C156 1.396 . S
C157 C158 1.394 . S
C158 C128 1.723 . S
C158 C154 1.397 . S
C158 C157 1.394 . S
C159 H131 0.982 . S
C159 H135 0.979 . S
C159 H136 0.977 . S
C159 C156 1.453 . S
C160 H132 0.979 . S
C160 H133 0.980 . S
C160 H134 0.983 . S
C160 C156 1.684 . S
H161 C179 0.948 . S
H162 C120 0.948 . S
H163 C138 0.979 . S
H164 C138 0.980 . S
H165 C138 0.983 . S
H166 C137 0.982 . S
H167 C137 0.979 . S
H168 C137 0.977 . S
H169 C139 0.948 . S
H170 C141 0.947 . S
H171 C142 0.948 . S
H172 C148 0.982 . S
H173 C148 0.979 . S
H174 C148 0.977 . S
H175 C149 0.979 . S
H176 C149 0.980 . S
H177 C149 0.983 . S
H178 C122 0.947 . S
C179 C122 1.392 . S
C179 C123 1.419 . S
C179 H161 0.948 . S
C180 C181 1.391 . S
C180 C184 1.391 . S
C180 H222 0.948 . S
C181 C180 1.391 . S
C181 C182 1.391 . S
C182 C181 1.391 . S
C182 H238 0.947 . S
C182 C239 1.392 . S
C183 C184 1.391 . S
C183 C187 1.397 . S
C183 C239 1.419 . S
C184 C180 1.391 . S
C184 C183 1.391 . S
C184 C185 1.399 . S
C185 C184 1.399 . S
C185 C188 1.396 . S
C185 C197 1.453 . S
C185 C198 1.684 . S
H186 C210 0.948 . S
C187 C183 1.397 . S
C187 C188 1.394 . S
C187 C206 1.723 . S
C188 C185 1.396 . S
C188 C187 1.394 . S
C188 C218 1.723 . S
H189 C212 0.947 . S
H190 C213 0.948 . S
H191 C219 0.982 . S
H192 C220 0.979 . S
H193 C220 0.980 . S
H194 C220 0.983 . S
H195 C219 0.979 . S
H196 C219 0.977 . S
C197 C185 1.453 . S
C197 H226 0.982 . S
C197 H227 0.979 . S
C197 H228 0.977 . S
C198 C185 1.684 . S
C198 H223 0.979 . S
C198 H224 0.980 . S
C198 H225 0.983 . S
C199 C200 1.391 . S
C199 C204 1.391 . S
C199 H229 0.948 . S
C200 C199 1.391 . S
C200 C201 1.391 . S
C201 C200 1.391 . S
C201 C202 1.392 . S
C201 H230 0.947 . S
C202 C201 1.392 . S
C202 C203 1.419 . S
C202 H231 0.948 . S
C203 C202 1.419 . S
C203 C204 1.391 . S
C203 C207 1.397 . S
C204 C199 1.391 . S
C204 C203 1.391 . S
C204 C205 1.399 . S
C205 C204 1.399 . S
C205 C206 1.396 . S
C205 C208 1.453 . S
C205 C209 1.684 . S
C206 C187 1.723 . S
C206 C205 1.396 . S
C206 C207 1.394 . S
C207 C203 1.397 . S
C207 C206 1.394 . S
C207 C217 1.723 . S
C208 C205 1.453 . S
C208 H232 0.982 . S
C208 H233 0.979 . S
C208 H234 0.977 . S
C209 C205 1.684 . S
C209 H235 0.979 . S
C209 H236 0.980 . S
C209 H237 0.983 . S
C210 H186 0.948 . S
C210 C211 1.391 . S
C210 C215 1.391 . S
C211 C210 1.391 . S
C211 C212 1.391 . S
C212 H189 0.947 . S
C212 C211 1.391 . S
C212 C213 1.392 . S
C213 H190 0.948 . S
C213 C212 1.392 . S
C213 C214 1.419 . S
C214 C213 1.419 . S
C214 C215 1.391 . S
C214 C218 1.397 . S
C215 C210 1.391 . S
C215 C214 1.391 . S
C215 C216 1.399 . S
C216 C215 1.399 . S
C216 C217 1.396 . S
C216 C219 1.453 . S
C216 C220 1.684 . S
C217 C207 1.723 . S
C217 C216 1.396 . S
C217 C218 1.394 . S
C218 C188 1.723 . S
C218 C214 1.397 . S
C218 C217 1.394 . S
C219 H191 0.982 . S
C219 H195 0.979 . S
C219 H196 0.977 . S
C219 C216 1.453 . S
C220 H192 0.979 . S
C220 H193 0.980 . S
C220 H194 0.983 . S
C220 C216 1.684 . S
H221 C239 0.948 . S
H222 C180 0.948 . S
H223 C198 0.979 . S
H224 C198 0.980 . S
H225 C198 0.983 . S
H226 C197 0.982 . S
H227 C197 0.979 . S
H228 C197 0.977 . S
H229 C199 0.948 . S
H230 C201 0.947 . S
H231 C202 0.948 . S
H232 C208 0.982 . S
H233 C208 0.979 . S
H234 C208 0.977 . S
H235 C209 0.979 . S
H236 C209 0.980 . S
H237 C209 0.983 . S
H238 C182 0.947 . S
C239 C182 1.392 . S
C239 C183 1.419 . S
C239 H221 0.948 . S
C240 C241 1.391 1_565 S
C240 C244 1.391 . S
C240 H282 0.948 . S
C241 C240 1.391 1_545 S
C241 C242 1.391 . S
C242 C241 1.391 . S
C242 H298 0.947 . S
C242 C299 1.392 1_545 S
C243 C244 1.391 . S
C243 C247 1.397 . S
C243 C299 1.419 . S
C244 C240 1.391 . S
C244 C243 1.391 . S
C244 C245 1.399 . S
C245 C244 1.399 . S
C245 C248 1.396 . S
C245 C257 1.453 . S
C245 C258 1.684 1_455 S
H246 C270 0.948 . S
C247 C243 1.397 . S
C247 C248 1.394 . S
C247 C266 1.723 . S
C248 C245 1.396 . S
C248 C247 1.394 . S
C248 C278 1.723 . S
H249 C272 0.947 . S
H250 C273 0.948 . S
H251 C279 0.982 . S
H252 C280 0.979 . S
H253 C280 0.980 . S
H254 C280 0.983 . S
H255 C279 0.979 . S
H256 C279 0.977 . S
C257 C245 1.453 . S
C257 H286 0.982 . S
C257 H287 0.979 . S
C257 H288 0.977 . S
C258 C245 1.684 1_655 S
C258 H283 0.979 . S
C258 H284 0.980 . S
C258 H285 0.983 . S
C259 C260 1.391 . S
C259 C264 1.391 1_554 S
C259 H289 0.948 . S
C260 C259 1.391 . S
C260 C261 1.391 . S
C261 C260 1.391 . S
C261 C262 1.392 . S
C261 H290 0.947 . S
C262 C261 1.392 . S
C262 C263 1.419 1_554 S
C262 H291 0.948 1_554 S
C263 C262 1.419 1_556 S
C263 C264 1.391 . S
C263 C267 1.397 . S
C264 C259 1.391 1_556 S
C264 C263 1.391 . S
C264 C265 1.399 . S
C265 C264 1.399 . S
C265 C266 1.396 . S
C265 C268 1.453 . S
C265 C269 1.684 1_455 S
C266 C247 1.723 . S
C266 C265 1.396 . S
C266 C267 1.394 . S
C267 C263 1.397 . S
C267 C266 1.394 . S
C267 C277 1.723 . S
C268 C265 1.453 . S
C268 H292 0.982 . S
C268 H293 0.979 . S
C268 H294 0.977 . S
C269 C265 1.684 1_655 S
C269 H295 0.979 . S
C269 H296 0.980 . S
C269 H297 0.983 . S
C270 H246 0.948 . S
C270 C271 1.391 . S
C270 C275 1.391 . S
C271 C270 1.391 . S
C271 C272 1.391 . S
C272 H249 0.947 . S
C272 C271 1.391 . S
C272 C273 1.392 . S
C273 H250 0.948 . S
C273 C272 1.392 . S
C273 C274 1.419 . S
C274 C273 1.419 . S
C274 C275 1.391 . S
C274 C278 1.397 . S
C275 C270 1.391 . S
C275 C274 1.391 . S
C275 C276 1.399 . S
C276 C275 1.399 . S
C276 C277 1.396 . S
C276 C279 1.453 . S
C276 C280 1.684 1_455 S
C277 C267 1.723 . S
C277 C276 1.396 . S
C277 C278 1.394 . S
C278 C248 1.723 . S
C278 C274 1.397 . S
C278 C277 1.394 . S
C279 H251 0.982 . S
C279 H255 0.979 . S
C279 H256 0.977 . S
C279 C276 1.453 . S
C280 H252 0.979 . S
C280 H253 0.980 . S
C280 H254 0.983 . S
C280 C276 1.684 1_655 S
H281 C299 0.948 . S
H282 C240 0.948 . S
H283 C258 0.979 . S
H284 C258 0.980 . S
H285 C258 0.983 . S
H286 C257 0.982 . S
H287 C257 0.979 . S
H288 C257 0.977 . S
H289 C259 0.948 . S
H290 C261 0.947 . S
H291 C262 0.948 1_556 S
H292 C268 0.982 . S
H293 C268 0.979 . S
H294 C268 0.977 . S
H295 C269 0.979 . S
H296 C269 0.980 . S
H297 C269 0.983 . S
H298 C242 0.947 . S
C299 C242 1.392 1_565 S
C299 C243 1.419 . S
C299 H281 0.948 . S
C300 C301 1.391 . S
C300 C304 1.391 . S
C300 H342 0.948 . S
C301 C300 1.391 . S
C301 C302 1.391 . S
C302 C301 1.391 . S
C302 H358 0.947 . S
C302 C359 1.392 . S
C303 C304 1.391 . S
C303 C307 1.397 . S
C303 C359 1.419 . S
C304 C300 1.391 . S
C304 C303 1.391 . S
C304 C305 1.399 . S
C305 C304 1.399 . S
C305 C308 1.396 . S
C305 C317 1.453 . S
C305 C318 1.684 . S
H306 C330 0.948 . S
C307 C303 1.397 . S
C307 C308 1.394 . S
C307 C326 1.723 . S
C308 C305 1.396 . S
C308 C307 1.394 . S
C308 C338 1.723 . S
H309 C332 0.947 . S
H310 C333 0.948 . S
H311 C339 0.982 . S
H312 C340 0.979 . S
H313 C340 0.980 . S
H314 C340 0.983 . S
H315 C339 0.979 . S
H316 C339 0.977 . S
C317 C305 1.453 . S
C317 H346 0.982 . S
C317 H347 0.979 . S
C317 H348 0.977 . S
C318 C305 1.684 . S
C318 H343 0.979 . S
C318 H344 0.980 . S
C318 H345 0.983 . S
C319 C320 1.391 . S
C319 C324 1.391 . S
C319 H349 0.948 . S
C320 C319 1.391 . S
C320 C321 1.391 . S
C321 C320 1.391 . S
C321 C322 1.392 . S
C321 H350 0.947 . S
C322 C321 1.392 . S
C322 C323 1.419 . S
C322 H351 0.948 . S
C323 C322 1.419 . S
C323 C324 1.391 . S
C323 C327 1.397 . S
C324 C319 1.391 . S
C324 C323 1.391 . S
C324 C325 1.399 . S
C325 C324 1.399 . S
C325 C326 1.396 . S
C325 C328 1.453 . S
C325 C329 1.684 . S
C326 C307 1.723 . S
C326 C325 1.396 . S
C326 C327 1.394 . S
C327 C323 1.397 . S
C327 C326 1.394 . S
C327 C337 1.723 . S
C328 C325 1.453 . S
C328 H352 0.982 . S
C328 H353 0.979 . S
C328 H354 0.977 . S
C329 C325 1.684 . S
C329 H355 0.979 . S
C329 H356 0.980 . S
C329 H357 0.983 . S
C330 H306 0.948 . S
C330 C331 1.391 . S
C330 C335 1.391 . S
C331 C330 1.391 . S
C331 C332 1.391 . S
C332 H309 0.947 . S
C332 C331 1.391 . S
C332 C333 1.392 . S
C333 H310 0.948 . S
C333 C332 1.392 . S
C333 C334 1.419 . S
C334 C333 1.419 . S
C334 C335 1.391 . S
C334 C338 1.397 . S
C335 C330 1.391 . S
C335 C334 1.391 . S
C335 C336 1.399 . S
C336 C335 1.399 . S
C336 C337 1.396 . S
C336 C339 1.453 . S
C336 C340 1.684 . S
C337 C327 1.723 . S
C337 C336 1.396 . S
C337 C338 1.394 . S
C338 C308 1.723 . S
C338 C334 1.397 . S
C338 C337 1.394 . S
C339 H311 0.982 . S
C339 H315 0.979 . S
C339 H316 0.977 . S
C339 C336 1.453 . S
C340 H312 0.979 . S
C340 H313 0.980 . S
C340 H314 0.983 . S
C340 C336 1.684 . S
H341 C359 0.948 . S
H342 C300 0.948 . S
H343 C318 0.979 . S
H344 C318 0.980 . S
H345 C318 0.983 . S
H346 C317 0.982 . S
H347 C317 0.979 . S
H348 C317 0.977 . S
H349 C319 0.948 . S
H350 C321 0.947 . S
H351 C322 0.948 . S
H352 C328 0.982 . S
H353 C328 0.979 . S
H354 C328 0.977 . S
H355 C329 0.979 . S
H356 C329 0.980 . S
H357 C329 0.983 . S
H358 C302 0.947 . S
C359 C302 1.392 . S
C359 C303 1.419 . S
C359 H341 0.948 . S
C360 C361 1.391 . S
C360 C364 1.391 . S
C360 H402 0.948 . S
C361 C360 1.391 . S
C361 C362 1.391 . S
C362 C361 1.391 . S
C362 H418 0.947 . S
C362 C419 1.392 . S
C363 C364 1.391 . S
C363 C367 1.397 . S
C363 C419 1.419 . S
C364 C360 1.391 . S
C364 C363 1.391 . S
C364 C365 1.399 . S
C365 C364 1.399 . S
C365 C368 1.396 . S
C365 C377 1.453 . S
C365 C378 1.684 . S
H366 C390 0.948 . S
C367 C363 1.397 . S
C367 C368 1.394 . S
C367 C386 1.723 . S
C368 C365 1.396 . S
C368 C367 1.394 . S
C368 C398 1.723 . S
H369 C392 0.947 . S
H370 C393 0.948 . S
H371 C399 0.982 . S
H372 C400 0.979 . S
H373 C400 0.980 . S
H374 C400 0.983 1_565 S
H375 C399 0.979 1_565 S
H376 C399 0.977 . S
C377 C365 1.453 . S
C377 H406 0.982 . S
C377 H407 0.979 . S
C377 H408 0.977 . S
C378 C365 1.684 . S
C378 H403 0.979 . S
C378 H404 0.980 . S
C378 H405 0.983 . S
C379 C380 1.391 . S
C379 C384 1.391 . S
C379 H409 0.948 . S
C380 C379 1.391 . S
C380 C381 1.391 . S
C381 C380 1.391 . S
C381 C382 1.392 . S
C381 H410 0.947 . S
C382 C381 1.392 . S
C382 C383 1.419 . S
C382 H411 0.948 . S
C383 C382 1.419 . S
C383 C384 1.391 . S
C383 C387 1.397 . S
C384 C379 1.391 . S
C384 C383 1.391 . S
C384 C385 1.399 . S
C385 C384 1.399 . S
C385 C386 1.396 . S
C385 C388 1.453 . S
C385 C389 1.684 . S
C386 C367 1.723 . S
C386 C385 1.396 . S
C386 C387 1.394 . S
C387 C383 1.397 . S
C387 C386 1.394 . S
C387 C397 1.723 . S
C388 C385 1.453 . S
C388 H412 0.982 . S
C388 H413 0.979 . S
C388 H414 0.977 . S
C389 C385 1.684 . S
C389 H415 0.979 . S
C389 H416 0.980 . S
C389 H417 0.983 . S
C390 H366 0.948 . S
C390 C391 1.391 . S
C390 C395 1.391 1_565 S
C391 C390 1.391 . S
C391 C392 1.391 1_565 S
C392 H369 0.947 . S
C392 C391 1.391 1_545 S
C392 C393 1.392 . S
C393 H370 0.948 . S
C393 C392 1.392 . S
C393 C394 1.419 . S
C394 C393 1.419 . S
C394 C395 1.391 . S
C394 C398 1.397 . S
C395 C390 1.391 1_545 S
C395 C394 1.391 . S
C395 C396 1.399 . S
C396 C395 1.399 . S
C396 C397 1.396 . S
C396 C399 1.453 . S
C396 C400 1.684 . S
C397 C387 1.723 . S
C397 C396 1.396 . S
C397 C398 1.394 . S
C398 C368 1.723 . S
C398 C394 1.397 . S
C398 C397 1.394 . S
C399 H371 0.982 . S
C399 H375 0.979 1_545 S
C399 H376 0.977 . S
C399 C396 1.453 . S
C400 H372 0.979 . S
C400 H373 0.980 . S
C400 H374 0.983 1_545 S
C400 C396 1.684 . S
H401 C419 0.948 . S
H402 C360 0.948 . S
H403 C378 0.979 . S
H404 C378 0.980 . S
H405 C378 0.983 . S
H406 C377 0.982 . S
H407 C377 0.979 . S
H408 C377 0.977 . S
H409 C379 0.948 . S
H410 C381 0.947 . S
H411 C382 0.948 . S
H412 C388 0.982 . S
H413 C388 0.979 . S
H414 C388 0.977 . S
H415 C389 0.979 . S
H416 C389 0.980 . S
H417 C389 0.983 . S
H418 C362 0.947 . S
C419 C362 1.392 . S
C419 C363 1.419 . S
C419 H401 0.948 . S
C420 C421 1.391 . S
C420 C424 1.391 . S
C420 H462 0.948 . S
C421 C420 1.391 . S
C421 C422 1.391 . S
C422 C421 1.391 . S
C422 H478 0.947 . S
C422 C479 1.392 . S
C423 C424 1.391 . S
C423 C427 1.397 . S
C423 C479 1.419 . S
C424 C420 1.391 . S
C424 C423 1.391 . S
C424 C425 1.399 . S
C425 C424 1.399 . S
C425 C428 1.396 . S
C425 C437 1.453 . S
C425 C438 1.684 . S
H426 C450 0.948 . S
C427 C423 1.397 . S
C427 C428 1.394 . S
C427 C446 1.723 . S
C428 C425 1.396 . S
C428 C427 1.394 . S
C428 C458 1.723 . S
H429 C452 0.947 . S
H430 C453 0.948 . S
H431 C459 0.982 . S
H432 C460 0.979 . S
H433 C460 0.980 . S
H434 C460 0.983 . S
H435 C459 0.979 . S
H436 C459 0.977 . S
C437 C425 1.453 . S
C437 H466 0.982 . S
C437 H467 0.979 . S
C437 H468 0.977 . S
C438 C425 1.684 . S
C438 H463 0.979 . S
C438 H464 0.980 . S
C438 H465 0.983 . S
C439 C440 1.391 . S
C439 C444 1.391 . S
C439 H469 0.948 . S
C440 C439 1.391 . S
C440 C441 1.391 . S
C441 C440 1.391 . S
C441 C442 1.392 . S
C441 H470 0.947 . S
C442 C441 1.392 . S
C442 C443 1.419 . S
C442 H471 0.948 . S
C443 C442 1.419 . S
C443 C444 1.391 . S
C443 C447 1.397 . S
C444 C439 1.391 . S
C444 C443 1.391 . S
C444 C445 1.399 . S
C445 C444 1.399 . S
C445 C446 1.396 . S
C445 C448 1.453 . S
C445 C449 1.684 . S
C446 C427 1.723 . S
C446 C445 1.396 . S
C446 C447 1.394 . S
C447 C443 1.397 . S
C447 C446 1.394 . S
C447 C457 1.723 . S
C448 C445 1.453 . S
C448 H472 0.982 . S
C448 H473 0.979 . S
C448 H474 0.977 . S
C449 C445 1.684 . S
C449 H475 0.979 . S
C449 H476 0.980 . S
C449 H477 0.983 . S
C450 H426 0.948 . S
C450 C451 1.391 . S
C450 C455 1.391 . S
C451 C450 1.391 . S
C451 C452 1.391 . S
C452 H429 0.947 . S
C452 C451 1.391 . S
C452 C453 1.392 1_655 S
C453 H430 0.948 . S
C453 C452 1.392 1_455 S
C453 C454 1.419 . S
C454 C453 1.419 . S
C454 C455 1.391 1_455 S
C454 C458 1.397 . S
C455 C450 1.391 . S
C455 C454 1.391 1_655 S
C455 C456 1.399 . S
C456 C455 1.399 . S
C456 C457 1.396 1_655 S
C456 C459 1.453 . S
C456 C460 1.684 . S
C457 C447 1.723 . S
C457 C456 1.396 1_455 S
C457 C458 1.394 . S
C458 C428 1.723 . S
C458 C454 1.397 . S
C458 C457 1.394 . S
C459 H431 0.982 . S
C459 H435 0.979 . S
C459 H436 0.977 . S
C459 C456 1.453 . S
C460 H432 0.979 . S
C460 H433 0.980 . S
C460 H434 0.983 . S
C460 C456 1.684 . S
H461 C479 0.948 . S
H462 C420 0.948 . S
H463 C438 0.979 . S
H464 C438 0.980 . S
H465 C438 0.983 . S
H466 C437 0.982 . S
H467 C437 0.979 . S
H468 C437 0.977 . S
H469 C439 0.948 . S
H470 C441 0.947 . S
H471 C442 0.948 . S
H472 C448 0.982 . S
H473 C448 0.979 . S
H474 C448 0.977 . S
H475 C449 0.979 . S
H476 C449 0.980 . S
H477 C449 0.983 . S
H478 C422 0.947 . S
C479 C422 1.392 . S
C479 C423 1.419 . S
C479 H461 0.948 . S
Zn480 O486 1.920 . S
Zn480 O492 1.898 . S
Zn480 O495 1.905 . S
Zn481 O489 1.905 . S
Zn481 O490 1.898 . S
Zn481 O498 1.920 1_455 S
Zn482 O485 2.080 . S
Zn482 O488 2.114 . S
Zn482 O491 2.120 . S
Zn482 O493 2.120 . S
Zn482 O494 2.114 . S
Zn482 O497 2.080 . S
C483 O488 1.166 . S
C483 O489 1.182 . S
C484 O490 1.167 . S
C484 O491 1.299 . S
O485 Zn482 2.080 . S
O485 C499 1.305 . S
O486 Zn480 1.920 . S
O486 C499 1.234 . S
C487 O492 1.167 . S
C487 O493 1.299 . S
O488 Zn482 2.114 . S
O488 C483 1.166 . S
O489 Zn481 1.905 . S
O489 C483 1.182 . S
O490 Zn481 1.898 . S
O490 C484 1.167 . S
O491 Zn482 2.120 . S
O491 C484 1.299 . S
O492 Zn480 1.898 . S
O492 C487 1.167 . S
O493 Zn482 2.120 . S
O493 C487 1.299 . S
O494 Zn482 2.114 . S
O494 C496 1.166 . S
O495 Zn480 1.905 . S
O495 C496 1.182 . S
C496 O494 1.166 . S
C496 O495 1.182 . S
O497 Zn482 2.080 . S
O497 C500 1.305 1_455 S
O498 Zn481 1.920 1_655 S
O498 C500 1.234 . S
C499 O485 1.305 . S
C499 O486 1.234 . S
C500 O497 1.305 1_655 S
C500 O498 1.234 . S
Zn501 O507 1.920 . S
Zn501 O513 1.898 . S
Zn501 O516 1.905 . S
Zn502 O510 1.905 . S
Zn502 O511 1.898 . S
Zn502 O519 1.920 . S
Zn503 O506 2.080 . S
Zn503 O509 2.114 . S
Zn503 O512 2.120 . S
Zn503 O514 2.120 . S
Zn503 O515 2.114 . S
Zn503 O518 2.080 . S
C504 O509 1.166 . S
C504 O510 1.182 . S
C505 O511 1.167 . S
C505 O512 1.299 . S
O506 Zn503 2.080 . S
O506 C520 1.305 . S
O507 Zn501 1.920 . S
O507 C520 1.234 . S
C508 O513 1.167 . S
C508 O514 1.299 . S
O509 Zn503 2.114 . S
O509 C504 1.166 . S
O510 Zn502 1.905 . S
O510 C504 1.182 . S
O511 Zn502 1.898 . S
O511 C505 1.167 . S
O512 Zn503 2.120 . S
O512 C505 1.299 . S
O513 Zn501 1.898 . S
O513 C508 1.167 . S
O514 Zn503 2.120 . S
O514 C508 1.299 . S
O515 Zn503 2.114 . S
O515 C517 1.166 . S
O516 Zn501 1.905 . S
O516 C517 1.182 . S
C517 O515 1.166 . S
C517 O516 1.182 . S
O518 Zn503 2.080 . S
O518 C521 1.305 . S
O519 Zn502 1.920 . S
O519 C521 1.234 . S
C520 O506 1.305 . S
C520 O507 1.234 . S
C521 O518 1.305 . S
C521 O519 1.234 . S
Zn522 O528 1.920 . S
Zn522 O534 1.898 . S
Zn522 O537 1.905 . S
Zn523 O531 1.905 . S
Zn523 O532 1.898 . S
Zn523 O540 1.920 . S
Zn524 O527 2.080 . S
Zn524 O530 2.114 . S
Zn524 O533 2.120 . S
Zn524 O535 2.120 . S
Zn524 O536 2.114 . S
Zn524 O539 2.080 . S
C525 O530 1.166 . S
C525 O531 1.182 . S
C526 O532 1.167 . S
C526 O533 1.299 . S
O527 Zn524 2.080 . S
O527 C541 1.305 . S
O528 Zn522 1.920 . S
O528 C541 1.234 . S
C529 O534 1.167 . S
C529 O535 1.299 . S
O530 Zn524 2.114 . S
O530 C525 1.166 . S
O531 Zn523 1.905 . S
O531 C525 1.182 . S
O532 Zn523 1.898 . S
O532 C526 1.167 . S
O533 Zn524 2.120 . S
O533 C526 1.299 . S
O534 Zn522 1.898 . S
O534 C529 1.167 . S
O535 Zn524 2.120 . S
O535 C529 1.299 . S
O536 Zn524 2.114 . S
O536 C538 1.166 . S
O537 Zn522 1.905 . S
O537 C538 1.182 . S
C538 O536 1.166 . S
C538 O537 1.182 . S
O539 Zn524 2.080 . S
O539 C542 1.305 . S
O540 Zn523 1.920 . S
O540 C542 1.234 . S
C541 O527 1.305 . S
C541 O528 1.234 . S
C542 O539 1.305 . S
C542 O540 1.234 . S
Zn543 O549 1.920 . S
Zn543 O555 1.898 . S
Zn543 O558 1.905 1_455 S
Zn544 O552 1.905 . S
Zn544 O553 1.898 . S
Zn544 O561 1.920 . S
Zn545 O548 2.080 . S
Zn545 O551 2.114 . S
Zn545 O554 2.120 . S
Zn545 O556 2.120 . S
Zn545 O557 2.114 . S
Zn545 O560 2.080 . S
C546 O551 1.166 . S
C546 O552 1.182 . S
C547 O553 1.167 . S
C547 O554 1.299 . S
O548 Zn545 2.080 . S
O548 C562 1.305 . S
O549 Zn543 1.920 . S
O549 C562 1.234 . S
C550 O555 1.167 . S
C550 O556 1.299 . S
O551 Zn545 2.114 . S
O551 C546 1.166 . S
O552 Zn544 1.905 . S
O552 C546 1.182 . S
O553 Zn544 1.898 . S
O553 C547 1.167 . S
O554 Zn545 2.120 . S
O554 C547 1.299 . S
O555 Zn543 1.898 . S
O555 C550 1.167 . S
O556 Zn545 2.120 . S
O556 C550 1.299 . S
O557 Zn545 2.114 . S
O557 C559 1.166 1_455 S
O558 Zn543 1.905 1_655 S
O558 C559 1.182 . S
C559 O557 1.166 1_655 S
C559 O558 1.182 . S
O560 Zn545 2.080 . S
O560 C563 1.305 . S
O561 Zn544 1.920 . S
O561 C563 1.234 . S
C562 O548 1.305 . S
C562 O549 1.234 . S
C563 O560 1.305 . S
C563 O561 1.234 . S
C487 C31 1.682 . S
C505 C91 1.401 . S
C121 C529 1.768 . S
C559 C181 1.504 . S
C547 C271 2.227 . S
C301 C500 1.237 . S
C361 C520 1.608 . S
C451 C525 1.959 . S
C421 C541 1.221 . S
C331 C496 1.915 . S
C563 C211 1.454 . S
C508 C61 1.489 . S
C151 C526 1.693 1_565 S
C1 C484 1.768 . S
C504 C391 2.203 . S
C550 C241 1.624 . S
C546 C20 1.214 . S
C499 C80 1.752 . S
C140 C521 1.175 . S
C200 C542 1.728 . S
C483 C260 1.401 . S
C320 C517 1.763 . S
C538 C380 1.392 . S
C562 C440 1.749 . S
