# Generated by pormake.
# Topology ftw, (4,12)-cn, num edge types: 1
# Building blocks:
#     Node 0, Type 0, BuildingBlock: GIZVER_clean_linker_0, # of connection points: 4
#     Node 1, Type 0, BuildingBlock: GIZVER_clean_linker_0, # of connection points: 4
#     Node 2, Type 0, BuildingBlock: GIZVER_clean_linker_0, # of connection points: 4
#     Node 3, Type 1, BuildingBlock: QEWDON_clean_sbu_0, # of connection points: 12
#     Edge 4, Type (0, 1), BuildingBlock: MIFKUJ_clean_linker_0, # of connection points: 2
#     Edge 5, Type (0, 1), BuildingBlock: MIFKUJ_clean_linker_0, # of connection points: 2
#     Edge 6, Type (0, 1), BuildingBlock: MIFKUJ_clean_linker_0, # of connection points: 2
#     Edge 7, Type (0, 1), BuildingBlock: MIFKUJ_clean_linker_0, # of connection points: 2
#     Edge 8, Type (0, 1), BuildingBlock: MIFKUJ_clean_linker_0, # of connection points: 2
#     Edge 9, Type (0, 1), BuildingBlock: MIFKUJ_clean_linker_0, # of connection points: 2
#     Edge 10, Type (0, 1), BuildingBlock: MIFKUJ_clean_linker_0, # of connection points: 2
#     Edge 11, Type (0, 1), BuildingBlock: MIFKUJ_clean_linker_0, # of connection points: 2
#     Edge 12, Type (0, 1), BuildingBlock: MIFKUJ_clean_linker_0, # of connection points: 2
#     Edge 13, Type (0, 1), BuildingBlock: MIFKUJ_clean_linker_0, # of connection points: 2
#     Edge 14, Type (0, 1), BuildingBlock: MIFKUJ_clean_linker_0, # of connection points: 2
#     Edge 15, Type (0, 1), BuildingBlock: MIFKUJ_clean_linker_0, # of connection points: 2
# Relax obj value: 0.120
# Max RMSD: 0.268
# Mean RMSD: 0.216
data_MOF--net-ftw--node1-QEWDON_clean_sbu_0--node2-GIZVER_clean_linker_0--edge1-MIFKUJ_clean_linker_0
_symmetry_space_group_name_H-M    P1
_symmetry_Int_Tables_number       1
_symmetry_cell_setting            triclinic
loop_
_symmetry_equiv_pos_as_xyz
'x, y, z'
_cell_length_a     32.812768
_cell_length_b     30.521074
_cell_length_c     29.884397
_cell_angle_alpha  89.891583
_cell_angle_beta   89.823468
_cell_angle_gamma 90.215443
loop_
_atom_site_label
_atom_site_type_symbol
_atom_site_fract_x
_atom_site_fract_y
_atom_site_fract_z
_atom_type_partial_charge
H0 H 0.9605 0.44869 0.43316 0.0
H1 H 0.94817 0.44993 0.57635 0.0
H2 H 0.02528 0.35468 0.51256 0.0
H3 H 0.90007 0.48147 0.47018 0.0
H4 H 0.89649 0.48368 0.52974 0.0
H5 H 0.93551 0.53802 0.42869 0.0
H6 H 0.97644 0.65246 0.49906 0.0
H7 H 0.93753 0.53829 0.57271 0.0
C8 C 0.96953 0.43634 0.46569 0.0
C9 C 0.99637 0.40071 0.46854 0.0
C10 C 0.95172 0.45383 0.50455 0.0
C11 C 0.96221 0.43656 0.5465 0.0
C12 C 0.98874 0.40068 0.5499 0.0
C13 C 0.00604 0.38342 0.51069 0.0
C14 C 0.91808 0.48719 0.50114 0.0
C15 C 0.93511 0.53303 0.50078 0.0
C16 C 0.94195 0.55464 0.45993 0.0
C17 C 0.95681 0.5977 0.45927 0.0
C18 C 0.96501 0.61909 0.49975 0.0
C19 C 0.95789 0.59823 0.54098 0.0
C20 C 0.94348 0.55479 0.54121 0.0
H21 H 0.45747 0.03813 0.41902 0.0
H22 H 0.46023 0.03755 0.56277 0.0
H23 H 0.3633 0.97148 0.49338 0.0
H24 H 0.49547 0.09427 0.46014 0.0
H25 H 0.49599 0.09463 0.51967 0.0
H26 H 0.54811 0.05687 0.41844 0.0
H27 H 0.65124 0.00842 0.49092 0.0
H28 H 0.54148 0.0432 0.56174 0.0
C29 C 0.44498 0.02686 0.45065 0.0
C30 C 0.40879 0.00191 0.45119 0.0
C31 C 0.46383 0.03965 0.49078 0.0
C32 C 0.44649 0.0266 0.53177 0.0
C33 C 0.41036 0.00165 0.53305 0.0
C34 C 0.39223 0.98874 0.49258 0.0
C35 C 0.4983 0.07272 0.49005 0.0
C36 C 0.53984 0.05146 0.49007 0.0
C37 C 0.5618 0.04699 0.44983 0.0
C38 C 0.60177 0.03088 0.45011 0.0
C39 C 0.61977 0.01908 0.49089 0.0
C40 C 0.59858 0.02361 0.5316 0.0
C41 C 0.55828 0.03933 0.53074 0.0
H42 H 0.53568 0.41967 0.12412 0.0
H43 H 0.57503 0.55395 0.11902 0.0
H44 H 0.63515 0.45717 0.03822 0.0
H45 H 0.51318 0.47201 0.1802 0.0
H46 H 0.53073 0.52735 0.17909 0.0
H47 H 0.45576 0.44828 0.13166 0.0
H48 H 0.37328 0.55021 0.09194 0.0
H49 H 0.49257 0.58369 0.1401 0.0
C50 C 0.55497 0.44476 0.1094 0.0
C51 C 0.58669 0.43288 0.0802 0.0
C52 C 0.54991 0.48873 0.12237 0.0
C53 C 0.57731 0.52078 0.10644 0.0
C54 C 0.60916 0.50943 0.07709 0.0
C55 C 0.61181 0.46592 0.06227 0.0
C56 C 0.5188 0.50047 0.15763 0.0
C57 C 0.47895 0.51435 0.13698 0.0
C58 C 0.44927 0.48266 0.12619 0.0
C59 C 0.41067 0.4954 0.1107 0.0
C60 C 0.4026 0.54012 0.10493 0.0
C61 C 0.43159 0.5722 0.11591 0.0
C62 C 0.47014 0.55913 0.13105 0.0
Zn63 Zn 0.09701 0.08101 0.96324 0.0
Zn64 Zn 0.05804 0.09794 0.06051 0.0
O65 O 0.06089 0.05362 0.01066 0.0
H66 H 0.04044 0.03142 0.00514 0.0
C67 C 0.93376 0.07832 0.88265 0.0
O68 O 0.96141 0.05371 0.90194 0.0
Zn69 Zn 0.95569 0.91531 0.0595 0.0
Zn70 Zn 0.93267 0.91248 0.95347 0.0
O71 O 0.94874 0.95322 0.00492 0.0
H72 H 0.95977 0.98245 0.00141 0.0
Zn73 Zn 0.88949 0.05337 0.96218 0.0
O74 O 0.93523 0.07094 0.00405 0.0
Zn75 Zn 0.91066 0.06623 0.06424 0.0
H76 H 0.96049 0.08538 0.99599 0.0
Zn77 Zn 0.11896 0.93686 0.95688 0.0
O78 O 0.07526 0.94634 0.00362 0.0
H79 H 0.04628 0.94825 0.99814 0.0
Zn80 Zn 0.10308 0.95025 0.06245 0.0
C81 C 0.07939 0.86578 0.91125 0.0
O82 O 0.07175 0.8557 0.95322 0.0
O83 O 0.12066 0.14028 0.98162 0.0
O84 O 0.08416 0.15683 0.04227 0.0
O85 O 0.91874 0.84972 0.9742 0.0
O86 O 0.93435 0.85381 0.04644 0.0
O87 O 0.83237 0.06254 0.99018 0.0
O88 O 0.84958 0.07661 0.06063 0.0
C89 C 0.10533 0.03773 0.11455 0.0
O90 O 0.17571 0.92493 0.98407 0.0
O91 O 0.16339 0.93533 0.05657 0.0
O92 O 0.8973 0.93537 0.90033 0.0
C93 C 0.11086 0.16682 0.01265 0.0
O94 O 0.12566 0.04646 0.91188 0.0
C95 C 0.90834 0.97765 0.11228 0.0
O96 O 0.8986 0.08108 0.90029 0.0
C97 C 0.92075 0.83246 0.01296 0.0
O98 O 0.1004 0.89985 0.90264 0.0
C99 C 0.97432 0.12256 0.10263 0.0
O100 O 0.09177 0.07663 0.11318 0.0
O101 O 0.09429 0.01177 0.08365 0.0
C102 C 0.82265 0.07304 0.03009 0.0
O103 O 0.92049 0.93827 0.11014 0.0
O104 O 0.9222 0.00459 0.08352 0.0
C105 C 0.03894 0.8974 0.10446 0.0
O106 O 0.93666 0.11234 0.10347 0.0
O107 O 0.99794 0.10089 0.07711 0.0
C108 C 0.18776 0.92593 0.02462 0.0
O109 O 0.07664 0.90724 0.10455 0.0
O110 O 0.01583 0.91637 0.07625 0.0
C111 C 0.86598 0.95905 0.90658 0.0
O112 O 0.85668 0.97127 0.94747 0.0
C113 C 0.15829 0.02517 0.91885 0.0
O114 O 0.17254 0.02273 0.95982 0.0
H115 H 0.03214 0.43514 0.39305 0.0
H116 H 0.04909 0.39609 0.32363 0.0
H117 H 0.00522 0.27538 0.38239 0.0
H118 H 0.98994 0.31373 0.45169 0.0
H119 H 0.0662 0.25661 0.33165 0.0
H120 H 0.94417 0.34612 0.31605 0.0
H121 H 0.90659 0.41599 0.31633 0.0
H122 H 0.98583 0.46665 0.21379 0.0
H123 H 0.02428 0.39721 0.21345 0.0
H124 H 0.92743 0.17909 0.14975 0.0
H125 H 0.94892 0.2359 0.20115 0.0
H126 H 0.07489 0.20803 0.17121 0.0
H127 H 0.05336 0.14942 0.12065 0.0
H128 H 0.99165 0.31011 0.19818 0.0
H129 H 0.12655 0.21699 0.26928 0.0
H130 H 0.15377 0.14195 0.26393 0.0
H131 H 0.03207 0.08995 0.26064 0.0
H132 H 0.00413 0.16473 0.26569 0.0
C133 C 0.02674 0.40016 0.3911 0.0
C134 C 0.00967 0.37744 0.42758 0.0
C135 C 0.03643 0.37787 0.35156 0.0
C136 C 0.02801 0.3328 0.3475 0.0
C137 C 0.01236 0.31 0.38464 0.0
C138 C 1.00343 0.33201 0.42425 0.0
C139 C 0.03113 0.30976 0.30382 0.0
C140 C 0.05048 0.26872 0.30227 0.0
C141 C 0.01062 0.32526 0.26527 0.0
C142 C 0.98738 0.3668 0.26514 0.0
C143 C 0.9537 0.37228 0.29377 0.0
C144 C 0.93226 0.41178 0.29395 0.0
C145 C 0.94392 0.4458 0.26524 0.0
C146 C 0.97695 0.44033 0.23614 0.0
C147 C 0.99859 0.40093 0.23595 0.0
C148 C 0.95979 0.18496 0.15372 0.0
C149 C 0.98872 0.15916 0.13117 0.0
C150 C 0.97202 0.21799 0.18283 0.0
C151 C 0.01349 0.22623 0.19019 0.0
C152 C 0.04266 0.20209 0.16619 0.0
C153 C 0.03033 0.16858 0.13716 0.0
C154 C 0.0251 0.25646 0.22687 0.0
C155 C 0.00871 0.29884 0.22702 0.0
C156 C 0.04689 0.24153 0.2647 0.0
C157 C 0.06333 0.19646 0.26693 0.0
C158 C 0.10562 0.18957 0.26756 0.0
C159 C 0.12116 0.14711 0.2644 0.0
C160 C 0.09462 0.11134 0.26129 0.0
C161 C 0.05253 0.11777 0.26256 0.0
C162 C 0.03685 0.16015 0.26559 0.0
H163 H 0.10662 0.07857 0.25819 0.0
H164 H 0.92729 0.47634 0.26549 0.0
H165 H 0.62315 0.09812 0.39433 0.0
H166 H 0.67301 0.09604 0.33297 0.0
H167 H 0.68509 0.95628 0.35114 0.0
H168 H 0.6369 0.95893 0.41365 0.0
H169 H 0.75567 0.99011 0.34973 0.0
H170 H 0.63704 0.00956 0.25714 0.0
H171 H 0.57506 0.04587 0.22935 0.0
H172 H 0.64463 0.16122 0.19733 0.0
H173 H 0.70701 0.1258 0.22544 0.0
H174 H 0.86113 0.92129 0.16005 0.0
H175 H 0.80808 0.93795 0.2142 0.0
H176 H 0.82855 0.07625 0.19418 0.0
H177 H 0.88262 0.05967 0.13986 0.0
H178 H 0.74519 0.05329 0.19721 0.0
H179 H 0.86425 0.03065 0.28706 0.0
H180 H 0.92557 0.99256 0.31425 0.0
H181 H 0.85303 0.88025 0.34949 0.0
H182 H 0.79131 0.91751 0.32221 0.0
C183 C 0.63597 0.06692 0.38445 0.0
C184 C 0.62633 0.02865 0.40852 0.0
C185 C 0.66437 0.06569 0.34932 0.0
C186 C 0.68291 0.02596 0.33712 0.0
C187 C 0.67154 0.98742 0.35996 0.0
C188 C 0.64387 0.98883 0.39552 0.0
C189 C 0.71672 0.02454 0.30365 0.0
C190 C 0.75294 0.00347 0.3162 0.0
C191 C 0.71421 0.04367 0.26042 0.0
C192 C 0.67662 0.06522 0.24404 0.0
C193 C 0.63907 0.04284 0.24464 0.0
C194 C 0.60389 0.06322 0.2287 0.0
C195 C 0.60589 0.10586 0.21172 0.0
C196 C 0.64311 0.12822 0.21056 0.0
C197 C 0.6784 0.108 0.22649 0.0
C198 C 0.85463 0.95537 0.16707 0.0
C199 C 0.87614 0.98922 0.14521 0.0
C200 C 0.82417 0.9648 0.19814 0.0
C201 C 0.81456 0.00832 0.20858 0.0
C202 C 0.83546 0.04239 0.18655 0.0
C203 C 0.86626 0.0329 0.15536 0.0
C204 C 0.783 0.0174 0.24306 0.0
C205 C 0.74762 0.04019 0.23088 0.0
C206 C 0.78594 -0.00042 0.28664 0.0
C207 C 0.82318 0.97683 0.30239 0.0
C208 C 0.86142 0.9977 0.30027 0.0
C209 C 0.89624 0.97628 0.31579 0.0
C210 C 0.89317 0.93401 0.3336 0.0
C211 C 0.85533 0.91301 0.33575 0.0
C212 C 0.82042 0.93429 0.32036 0.0
H213 H 0.92006 0.91758 0.34592 0.0
H214 H 0.57861 0.12146 0.19935 0.0
H215 H 0.90124 0.60856 0.39249 0.0
H216 H 0.90753 0.65654 0.32685 0.0
H217 H 0.03104 0.68815 0.3648 0.0
H218 H 0.02435 0.64131 0.43085 0.0
H219 H 0.98969 0.7598 0.34994 0.0
H220 H 0.00435 0.62018 0.27402 0.0
H221 H 0.98286 0.54649 0.24974 0.0
H222 H 0.87771 0.60134 0.18571 0.0
H223 H 0.89809 0.67516 0.21037 0.0
H224 H 0.08457 0.84979 0.16242 0.0
H225 H 0.06161 0.79666 0.21778 0.0
H226 H 0.93724 0.81514 0.17612 0.0
H227 H 0.95989 0.86985 0.12169 0.0
H228 H 0.96641 0.72165 0.19072 0.0
H229 H 0.95462 0.86111 0.2605 0.0
H230 H 0.97758 0.93527 0.28105 0.0
H231 H 0.07643 0.88088 0.35643 0.0
H232 H 0.05514 0.80629 0.33476 0.0
C233 C 0.92991 0.62521 0.38619 0.0
C234 C 0.96229 0.62155 0.41662 0.0
C235 C 0.93349 0.65254 0.34875 0.0
C236 C 0.96977 0.67594 0.3409 0.0
C237 C 1.00266 0.67067 0.37037 0.0
C238 C 0.99891 0.6439 0.40798 0.0
C239 C 0.97302 0.70835 0.30405 0.0
C240 C 0.9849 0.75122 0.31512 0.0
C241 C 0.96495 0.69778 0.25876 0.0
C242 C 0.95248 0.65316 0.24457 0.0
C243 C 0.97638 0.61645 0.25523 0.0
C244 C 0.96442 0.57463 0.24131 0.0
C245 C 0.92884 0.56916 0.21631 0.0
C246 C 0.90515 0.6055 0.2052 0.0
C247 C 0.91688 0.64735 0.21916 0.0
C248 C 0.05226 0.8427 0.16469 0.0
C249 C 0.024 0.86416 0.13695 0.0
C250 C 0.03929 0.81211 0.19632 0.0
C251 C 0.99783 0.802 0.20079 0.0
C252 C 0.96946 0.82233 0.17274 0.0
C253 C 0.98247 0.85358 0.14145 0.0
C254 C 0.98464 0.77203 0.23682 0.0
C255 C 0.97068 0.73001 0.22567 0.0
C256 C 0.99067 0.78323 0.28213 0.0
C257 C 1.00346 0.82804 0.29563 0.0
C258 C 0.98159 0.8649 0.28096 0.0
C259 C 0.9943 0.90703 0.29281 0.0
C260 C 0.02832 0.91274 0.32015 0.0
C261 C 0.05001 0.87636 0.33532 0.0
C262 C 0.03771 0.83413 0.32313 0.0
H263 H 0.03773 0.94536 0.3297 0.0
H264 H 0.9197 0.5368 0.20538 0.0
H265 H 0.37017 0.9271 0.42201 0.0
H266 H 0.32117 0.92102 0.36016 0.0
H267 H 0.34251 0.05644 0.32621 0.0
H268 H 0.39146 0.06274 0.38729 0.0
H269 H 0.25617 0.02096 0.35577 0.0
H270 H 0.37298 -0.00043 0.25706 0.0
H271 H 0.43286 0.9601 0.22817 0.0
H272 H 0.3585 0.84701 0.20205 0.0
H273 H 0.2983 0.88543 0.23186 0.0
H274 H 0.1439 0.09221 0.17249 0.0
H275 H 0.19418 0.0742 0.22903 0.0
H276 H 0.18502 0.93746 0.19416 0.0
H277 H 0.13432 0.95548 0.13702 0.0
H278 H 0.26227 0.95953 0.20243 0.0
H279 H 0.14729 0.97391 0.29628 0.0
H280 H 0.08584 0.00287 0.33339 0.0
H281 H 0.15219 0.11723 0.37435 0.0
H282 H 0.214 0.08936 0.3371 0.0
C283 C 0.3651 0.95524 0.40062 0.0
C284 C 0.38475 0.99539 0.40951 0.0
C285 C 0.33732 0.95163 0.36522 0.0
C286 C 0.32855 0.98819 0.33847 0.0
C287 C 0.34933 0.0277 0.34613 0.0
C288 C 0.3774 0.03119 0.381 0.0
C289 C 0.29344 0.9878 0.30742 0.0
C290 C 0.25752 0.00793 0.32202 0.0
C291 C 0.29471 0.96849 0.26445 0.0
C292 C 0.33123 0.94513 0.24764 0.0
C293 C 0.36949 0.96601 0.24605 0.0
C294 C 0.40348 0.94387 0.22928 0.0
C295 C 0.39953 0.90099 0.21355 0.0
C296 C 0.36157 0.88015 0.21447 0.0
C297 C 0.32752 0.90208 0.23136 0.0
C298 C 0.15212 0.05815 0.17697 0.0
C299 C 0.13484 0.02525 0.15001 0.0
C300 C 0.18086 0.04787 0.20964 0.0
C301 C 0.19303 0.00436 0.21655 0.0
C302 C 0.17597 0.97128 0.1897 0.0
C303 C 0.14702 0.98162 0.15688 0.0
C304 C 0.22523 0.99451 0.25011 0.0
C305 C 0.26056 0.97228 0.23624 0.0
C306 C 0.22319 0.01095 0.29436 0.0
C307 C 0.18527 0.02961 0.31361 0.0
C308 C 0.14869 0.00549 0.31269 0.0
C309 C 0.11386 0.02152 0.3341 0.0
C310 C 0.11518 0.06162 0.35652 0.0
C311 C 0.15127 0.08601 0.35725 0.0
C312 C 0.1862 0.07014 0.33596 0.0
H313 H 0.08814 0.07398 0.37296 0.0
H314 H 0.42585 0.88403 0.20048 0.0
H315 H 0.93753 0.68302 0.55944 0.0
H316 H 0.9541 0.72543 0.62629 0.0
H317 H 0.00865 0.61129 0.686 0.0
H318 H 0.99338 0.56868 0.61846 0.0
H319 H 0.93661 0.69852 0.72949 0.0
H320 H 0.0814 0.64223 0.68962 0.0
H321 H 0.13067 0.62692 0.629 0.0
H322 H 0.10747 0.75341 0.5714 0.0
H323 H 0.05778 0.76912 0.63153 0.0
H324 H 0.03905 0.78763 0.91874 0.0
H325 H 0.01368 0.74119 0.8584 0.0
H326 H 0.05718 0.83503 0.76102 0.0
H327 H 0.08336 0.88127 0.82117 0.0
H328 H 0.07791 0.75679 0.7362 0.0
H329 H 0.95519 0.82337 0.78633 0.0
H330 H 0.90169 0.84644 0.83928 0.0
H331 H 0.87468 0.71193 0.86978 0.0
H332 H 0.92858 0.68797 0.81756 0.0
C333 C 0.95317 0.66687 0.5867 0.0
C334 C 0.96471 0.62261 0.58335 0.0
C335 C 0.96219 0.69106 0.62501 0.0
C336 C 0.98269 0.67145 0.66077 0.0
C337 C 0.99287 0.6269 0.65851 0.0
C338 C 0.98398 0.60262 0.62005 0.0
C339 C 0.99601 0.69866 0.69884 0.0
C340 C 0.96764 0.71069 0.73174 0.0
C341 C 0.03588 0.71592 0.70032 0.0
C342 C 0.06586 0.70664 0.66467 0.0
C343 C 0.08675 0.66661 0.66386 0.0
C344 C 0.11472 0.65789 0.62965 0.0
C345 C 0.12214 0.68914 0.59632 0.0
C346 C 0.10165 0.72921 0.59718 0.0
C347 C 0.0736 0.73802 0.63128 0.0
C348 C 0.04315 0.79846 0.88448 0.0
C349 C 0.0634 0.83805 0.87472 0.0
C350 C 0.02838 0.77198 0.85002 0.0
C351 C 0.03318 0.78479 0.80517 0.0
C352 C 0.05319 0.82444 0.79538 0.0
C353 C 0.06813 0.85084 0.8298 0.0
C354 C 0.01888 0.75604 0.76838 0.0
C355 C 0.04698 0.74414 0.73506 0.0
C356 C 0.97841 0.73961 0.76638 0.0
C357 C 0.94629 0.75387 0.79832 0.0
C358 C 0.93817 0.79868 0.80465 0.0
C359 C 0.90768 0.81192 0.83444 0.0
C360 C 0.8848 0.78067 0.85783 0.0
C361 C 0.89242 0.73608 0.85158 0.0
C362 C 0.92296 0.72265 0.82189 0.0
H363 H 0.86121 0.79099 0.88086 0.0
H364 H 0.1438 0.68234 0.56987 0.0
H365 H 0.39555 0.06092 0.59913 0.0
H366 H 0.35528 0.05082 0.66702 0.0
H367 H 0.33488 0.91528 0.63252 0.0
H368 H 0.37454 0.9257 0.56351 0.0
H369 H 0.26721 0.94718 0.66056 0.0
H370 H 0.40025 0.9462 0.71993 0.0
H371 H 0.47112 0.97054 0.73182 0.0
H372 H 0.42831 0.0914 0.78791 0.0
H373 H 0.35717 0.06808 0.77576 0.0
H374 H 0.22794 0.97606 0.92175 0.0
H375 H 0.27191 0.9555 0.85904 0.0
H376 H 0.18866 0.01746 0.76727 0.0
H377 H 0.14407 0.03675 0.82947 0.0
H378 H 0.31313 0.00493 0.80709 0.0
H379 H 0.19344 0.97617 0.66503 0.0
H380 H 0.12588 0.94157 0.6563 0.0
H381 H 0.14779 0.86095 0.77157 0.0
H382 H 0.21555 0.89479 0.78082 0.0
C383 C 0.38315 0.02872 0.60636 0.0
C384 C 0.38866 0.99396 0.57619 0.0
C385 C 0.36006 0.02295 0.64528 0.0
C386 C 0.34249 0.98205 0.65551 0.0
C387 C 0.34814 0.94713 0.62554 0.0
C388 C 0.3709 0.95305 0.58619 0.0
C389 C 0.31701 0.97669 0.69661 0.0
C390 C 0.27736 0.95954 0.69266 0.0
C391 C 0.33057 0.99126 0.73905 0.0
C392 C 0.37333 0.00546 0.74668 0.0
C393 C 0.40594 0.97809 0.73455 0.0
C394 C 0.44617 0.9917 0.74136 0.0
C395 C 0.45421 0.03252 0.76055 0.0
C396 C 0.42203 0.05979 0.77304 0.0
C397 C 0.38174 0.04636 0.76626 0.0
C398 C 0.21861 0.98455 0.88812 0.0
C399 C 0.18254 0.0082 0.88068 0.0
C400 C 0.24388 0.9729 0.85227 0.0
C401 C 0.23367 0.9847 0.80823 0.0
C402 C 0.19698 0.00714 0.8007 0.0
C403 C 0.17155 0.01843 0.83644 0.0
C404 C 0.26276 0.97716 0.77061 0.0
C405 C 0.30311 0.99195 0.77519 0.0
C406 C 0.25029 0.9589 0.72928 0.0
C407 C 0.20953 0.93829 0.72377 0.0
C408 C 0.18392 0.95095 0.68842 0.0
C409 C 0.14553 0.93153 0.68344 0.0
C410 C 0.13248 0.8992 0.71346 0.0
C411 C 0.15781 0.88617 0.74849 0.0
C412 C 0.19619 0.90554 0.75367 0.0
H413 H 0.10278 0.88419 0.7095 0.0
H414 H 0.48538 0.04299 0.76579 0.0
H415 H 0.05767 0.36152 0.58331 0.0
H416 H 0.06101 0.30953 0.64572 0.0
H417 H 0.93468 0.33415 0.67632 0.0
H418 H 0.93051 0.38461 0.6135 0.0
H419 H 0.98399 0.32308 0.75302 0.0
H420 H 0.95675 0.25422 0.60862 0.0
H421 H 0.97413 0.23743 0.53017 0.0
H422 H 0.08561 0.17715 0.57259 0.0
H423 H 0.06921 0.19438 0.6513 0.0
H424 H 0.88756 0.14301 0.84609 0.0
H425 H 0.9095 0.19949 0.79353 0.0
H426 H 0.02832 0.14017 0.78484 0.0
H427 H 0.00652 0.08293 0.83754 0.0
H428 H 0.99878 0.16912 0.70211 0.0
H429 H 0.02077 0.22641 0.84752 0.0
H430 H 0.00384 0.24296 0.9261 0.0
H431 H 0.9049 0.32446 0.88328 0.0
H432 H 0.92087 0.3079 0.8044 0.0
C433 C 0.03074 0.35628 0.60369 0.0
C434 C 0.99368 0.37688 0.59297 0.0
C435 C 0.03281 0.32679 0.63943 0.0
C436 C 0.99796 0.31777 0.66516 0.0
C437 C 0.96193 0.34085 0.65686 0.0
C438 C 0.95969 0.36993 0.62096 0.0
C439 C 0.99709 0.28088 0.69722 0.0
C440 C 0.98733 0.28942 0.74203 0.0
C441 C 1.00255 0.23708 0.68292 0.0
C442 C 0.01203 0.22608 0.63573 0.0
C443 C 0.98512 0.2377 0.60117 0.0
C444 C 0.99477 0.22808 0.55667 0.0
C445 C 0.03101 0.20635 0.54639 0.0
C446 C 0.0576 0.19408 0.5806 0.0
C447 C 0.04816 0.20378 0.62515 0.0
C448 C 0.91819 0.14146 0.83258 0.0
C449 C 0.94539 0.10862 0.84617 0.0
C450 C 0.93074 0.17396 0.80276 0.0
C451 C 0.97073 0.1744 0.78609 0.0
C452 C 0.99742 0.14048 0.79769 0.0
C453 C 0.98489 0.10786 0.82773 0.0
C454 C 0.98446 0.21129 0.75764 0.0
C455 C 0.99653 0.20276 0.7135 0.0
C456 C 0.9814 0.25512 0.77263 0.0
C457 C 0.97191 0.26571 0.82001 0.0
C458 C 0.99524 0.24766 0.85485 0.0
C459 C 0.98584 0.25706 0.89945 0.0
C460 C 0.95328 0.2847 0.90967 0.0
C461 C 0.93012 0.30306 0.8753 0.0
C462 C 0.93939 0.29374 0.83062 0.0
H463 H 0.94602 0.29192 0.94423 0.0
H464 H 0.03844 0.19893 0.51192 0.0
H465 H 0.65192 0.95727 0.55094 0.0
H466 H 0.69324 0.94828 0.6179 0.0
H467 H 0.63468 0.06015 0.67786 0.0
H468 H 0.59466 0.07079 0.60979 0.0
H469 H 0.71293 0.06623 0.69043 0.0
H470 H 0.61566 0.95283 0.71406 0.0
H471 H 0.57353 0.88825 0.69593 0.0
H472 H 0.68147 0.81134 0.67673 0.0
H473 H 0.72429 0.87564 0.69413 0.0
H474 H 0.80358 0.01844 0.90483 0.0
H475 H 0.75503 0.03142 0.8441 0.0
H476 H 0.81658 0.93539 0.76292 0.0
H477 H 0.86533 0.92246 0.82317 0.0
H478 H 0.73217 0.92323 0.76646 0.0
H479 H 0.82837 0.04076 0.73845 0.0
H480 H 0.86867 0.10629 0.75781 0.0
H481 H 0.7589 0.17594 0.78957 0.0
H482 H 0.71791 0.11061 0.77071 0.0
C483 C 0.64773 0.98001 0.57833 0.0
C484 C 0.61998 0.01488 0.57473 0.0
C485 C 0.67113 0.97452 0.61693 0.0
C486 C 0.66691 0.00325 0.65332 0.0
C487 C 0.63851 0.03747 0.65033 0.0
C488 C 0.61526 0.04321 0.61152 0.0
C489 C 0.69358 -0.00132 0.69338 0.0
C490 C 0.71648 0.03511 0.70755 0.0
C491 C 0.69883 0.958 0.71556 0.0
C492 C 0.6732 0.91919 0.70505 0.0
C493 C 0.63043 0.92224 0.70563 0.0
C494 C 0.60642 0.88566 0.69554 0.0
C495 C 0.62481 0.84574 0.68508 0.0
C496 C 0.66726 0.8423 0.6848 0.0
C497 C 0.69142 0.87879 0.69482 0.0
C498 C 0.80697 0.00033 0.87391 0.0
C499 C 0.8383 0.96935 0.86888 0.0
C500 C 0.77924 0.00786 0.83922 0.0
C501 C 0.78217 0.98434 0.79898 0.0
C502 C 0.8137 0.95381 0.79372 0.0
C503 C 0.84167 0.94662 0.82814 0.0
C504 C 0.7518 0.99049 0.76274 0.0
C505 C 0.72821 0.95436 0.74946 0.0
C506 C 0.74553 0.03152 0.74183 0.0
C507 C 0.77012 0.07066 0.75362 0.0
C508 C 0.81285 0.06991 0.74999 0.0
C509 C 0.83581 0.10705 0.76082 0.0
C510 C 0.81637 0.1452 0.77521 0.0
C511 C 0.77391 0.14631 0.77862 0.0
C512 C 0.7508 0.10927 0.76778 0.0
H513 H 0.83415 0.17396 0.78353 0.0
H514 H 0.60617 0.81746 0.67729 0.0
H515 H 0.41661 0.41502 0.0698 0.0
H516 H 0.3611 0.36391 0.05264 0.0
H517 H 0.27481 0.45182 0.11396 0.0
H518 H 0.33013 0.50178 0.13308 0.0
H519 H 0.25575 0.37197 0.13554 0.0
H520 H 0.28649 0.44609 0.99882 0.0
H521 H 0.32978 0.47344 0.93715 0.0
H522 H 0.36123 0.34144 0.90205 0.0
H523 H 0.31855 0.3133 0.96393 0.0
H524 H 0.08926 0.24483 0.05233 0.0
H525 H 0.13363 0.30849 0.06529 0.0
H526 H 0.23329 0.24061 0.00133 0.0
H527 H 0.18862 0.17928 0.98531 0.0
H528 H 0.23914 0.31952 0.9797 0.0
H529 H 0.21051 0.24791 0.12577 0.0
H530 H 0.16224 0.22497 0.18505 0.0
H531 H 0.12229 0.35796 0.20008 0.0
H532 H 0.16996 0.38157 0.14063 0.0
C533 C 0.38589 0.42314 0.08014 0.0
C534 C 0.37776 0.4628 0.1022 0.0
C535 C 0.35411 0.39415 0.0699 0.0
C536 C 0.3136 0.40446 0.08117 0.0
C537 C 0.30569 0.44327 0.10457 0.0
C538 C 0.33737 0.47203 0.11507 0.0
C539 C 0.27936 0.37512 0.06821 0.0
C540 C 0.25195 0.36074 0.10137 0.0
C541 C 0.27398 0.36082 0.02361 0.0
C542 C 0.2996 0.37762 0.98627 0.0
C543 C 0.30287 0.42291 0.97816 0.0
C544 C 0.32727 0.43855 0.94313 0.0
C545 C 0.34832 0.4092 0.91576 0.0
C546 C 0.34494 0.36413 0.9233 0.0
C547 C 0.32063 0.34832 0.95832 0.0
C548 C 0.12048 0.24405 0.04045 0.0
C549 C 0.13545 0.20714 0.01779 0.0
C550 C 0.14598 0.2802 0.04826 0.0
C551 C 0.18731 0.27909 0.03537 0.0
C552 C 0.20167 0.24258 0.01168 0.0
C553 C 0.176 0.20735 0.00256 0.0
C554 C 0.21663 0.31455 0.04739 0.0
C555 C 0.24298 0.33057 0.01392 0.0
C556 C 0.22075 0.33064 0.09163 0.0
C557 C 0.19354 0.31642 0.12859 0.0
C558 C 0.19144 0.27221 0.14179 0.0
C559 C 0.16416 0.25911 0.17534 0.0
C560 C 0.13919 0.29003 0.19618 0.0
C561 C 0.14164 0.3341 0.18383 0.0
C562 C 0.16879 0.34735 0.15028 0.0
H563 H 0.11795 0.27999 0.22193 0.0
H564 H 0.36718 0.42137 0.88866 0.0
H565 H 0.47366 0.64135 0.07807 0.0
H566 H 0.44752 0.71594 0.06494 0.0
H567 H 0.33661 0.6821 0.13479 0.0
H568 H 0.36251 0.60859 0.14862 0.0
H569 H 0.32973 0.71074 0.04076 0.0
H570 H 0.38863 0.74937 0.18526 0.0
H571 H 0.44591 0.75761 0.23788 0.0
H572 H 0.5068 0.84377 0.14541 0.0
H573 H 0.44987 0.83583 0.09216 0.0
H574 H 0.22055 0.91012 0.10738 0.0
H575 H 0.28018 0.86517 0.12325 0.0
H576 H 0.30877 0.86055 0.98242 0.0
H577 H 0.24893 0.90487 0.96602 0.0
H578 H 0.36567 0.8554 0.10569 0.0
H579 H 0.31461 0.7539 0.95611 0.0
H580 H 0.25495 0.74534 0.90664 0.0
H581 H 0.17533 0.78169 0.01457 0.0
H582 H 0.23445 0.78979 0.06474 0.0
C583 C 0.44416 0.65034 0.0915 0.0
C584 C 0.41974 0.61902 0.11358 0.0
C585 C 0.42931 0.69279 0.08398 0.0
C586 C 0.39005 0.70419 0.09865 0.0
C587 C 0.36687 0.67376 0.12302 0.0
C588 C 0.38163 0.63174 0.13066 0.0
C589 C 0.37053 0.74552 0.08455 0.0
C590 C 0.33804 0.74247 0.05441 0.0
C591 C 0.38126 0.78673 0.10259 0.0
C592 C 0.41532 0.79156 0.13456 0.0
C593 C 0.41443 0.76973 0.176 0.0
C594 C 0.44674 0.77447 0.20599 0.0
C595 C 0.48007 0.80104 0.19491 0.0
C596 C 0.48104 0.82308 0.15388 0.0
C597 C 0.44871 0.81857 0.12385 0.0
C598 C 0.24016 0.90072 0.07983 0.0
C599 C 0.22921 0.90989 0.03526 0.0
C600 C 0.27449 0.87528 0.08906 0.0
C601 C 0.29831 0.85879 0.05391 0.0
C602 C 0.29042 0.87258 0.00996 0.0
C603 C 0.25602 0.89774 1.00065 0.0
C604 C 0.32479 0.82041 0.06202 0.0
C605 C 0.35824 0.82388 0.09104 0.0
C606 C 0.31481 0.77916 0.04331 0.0
C607 C 0.27894 0.77289 0.01393 0.0
C608 C 0.28433 0.75982 0.96927 0.0
C609 C 0.25063 0.75508 0.94113 0.0
C610 C 0.21139 0.76311 0.95741 0.0
C611 C 0.20574 0.7756 0.00196 0.0
C612 C 0.23932 0.78025 0.03025 0.0
H613 H 0.18536 0.75958 0.93553 0.0
H614 H 0.50506 0.80467 0.21818 0.0
H615 H 0.53581 0.36101 0.06844 0.0
H616 H 0.55644 0.28419 0.05731 0.0
H617 H 0.68271 0.32295 0.06465 0.0
H618 H 0.66288 0.39823 0.07744 0.0
H619 H 0.66362 0.26981 0.98972 0.0
H620 H 0.64383 0.27834 0.15256 0.0
H621 H 0.60176 0.28966 0.22011 0.0
H622 H 0.51982 0.18793 0.17778 0.0
H623 H 0.56139 0.17622 0.10984 0.0
H624 H 0.79376 0.11214 0.10608 0.0
H625 H 0.7317 0.15514 0.11238 0.0
H626 H 0.693 0.10956 0.98268 0.0
H627 H 0.75588 0.06754 0.97531 0.0
H628 H 0.64964 0.15584 0.1075 0.0
H629 H 0.66471 0.19541 0.92303 0.0
H630 H 0.71359 0.18674 0.86067 0.0
H631 H 0.81353 0.19869 0.95237 0.0
H632 H 0.76518 0.20775 0.01513 0.0
C633 C 0.56793 0.35301 0.06783 0.0
C634 C 0.59765 0.38608 0.07283 0.0
C635 C 0.57961 0.30922 0.06133 0.0
C636 C 0.6211 0.29814 0.05956 0.0
C637 C 0.65055 0.33095 0.0651 0.0
C638 C 0.63905 0.37418 0.07205 0.0
C639 C 0.63518 0.25266 0.05241 0.0
C640 C 0.65965 0.24442 0.01485 0.0
C641 C 0.63026 0.21972 0.08532 0.0
C642 C 0.60531 0.22686 0.12593 0.0
C643 C 0.61664 0.25868 0.15751 0.0
C644 C 0.59298 0.26506 0.19591 0.0
C645 C 0.55805 0.23964 0.20315 0.0
C646 C 0.54679 0.20771 0.17205 0.0
C647 C 0.57041 0.20114 0.13364 0.0
C648 C 0.77163 0.11025 0.07932 0.0
C649 C 0.78049 0.08774 0.03944 0.0
C650 C 0.73588 0.13465 0.08317 0.0
C651 C 0.70832 0.13665 0.04739 0.0
C652 C 0.71435 0.10927 0.01026 0.0
C653 C 0.7504 0.08533 0.00607 0.0
C654 C 0.67902 0.17354 0.04541 0.0
C655 C 0.65193 0.18029 0.08122 0.0
C656 C 0.68209 0.20569 0.01126 0.0
C657 C 0.71139 0.20183 0.97366 0.0
C658 C 0.69713 0.19639 0.92976 0.0
C659 C 0.72473 0.19135 0.89439 0.0
C660 C 0.76665 0.19204 0.90256 0.0
C661 C 0.78107 0.19807 0.94609 0.0
C662 C 0.7536 0.20318 0.98155 0.0
H663 H 0.78797 0.18799 0.87519 0.0
H664 H 0.53978 0.2446 0.23291 0.0
H665 H 0.69059 0.49181 0.06839 0.0
H666 H 0.74604 0.5424 0.05371 0.0
H667 H 0.66136 0.6501 0.05109 0.0
H668 H 0.60459 0.59882 0.06244 0.0
H669 H 0.71759 0.66236 0.98942 0.0
H670 H 0.72019 0.62628 0.14563 0.0
H671 H 0.72107 0.57728 0.21135 0.0
H672 H 0.83409 0.52176 0.16661 0.0
H673 H 0.83369 0.57017 0.10038 0.0
H674 H 0.88952 0.80145 0.09147 0.0
H675 H 0.84098 0.74149 0.10046 0.0
H676 H 0.85723 0.70651 0.96165 0.0
H677 H 0.90471 0.76789 0.95207 0.0
H678 H 0.8348 0.65823 0.094 0.0
H679 H 0.76961 0.67572 0.91666 0.0
H680 H 0.76717 0.73074 0.85606 0.0
H681 H 0.77334 0.83435 0.95284 0.0
H682 H 0.77546 0.77995 0.01398 0.0
C683 C 0.68323 0.52602 0.06347 0.0
C684 C 0.6427 0.54099 0.06631 0.0
C685 C 0.71532 0.55512 0.05583 0.0
C686 C 0.70809 0.6002 0.05224 0.0
C687 C 0.66773 0.61542 0.05403 0.0
C688 C 0.63532 0.5861 0.06096 0.0
C689 C 0.7429 0.63127 0.04782 0.0
C690 C 0.74318 0.66143 0.01231 0.0
C691 C 0.77622 0.63052 0.07792 0.0
C692 C 0.77671 0.60158 0.11787 0.0
C693 C 0.7451 0.60344 0.14969 0.0
C694 C 0.74554 0.57581 0.18705 0.0
C695 C 0.77756 0.54635 0.19309 0.0
C696 C 0.80925 0.54451 0.16182 0.0
C697 C 0.80898 0.5721 0.12442 0.0
C698 C 0.88346 0.78046 0.06304 0.0
C699 C 0.90018 0.78996 0.02073 0.0
C700 C 0.8556 0.74613 0.06823 0.0
C701 C 0.84438 0.72031 0.0314 0.0
C702 C 0.86433 0.72691 0.99022 0.0
C703 C 0.89162 0.76181 0.98479 0.0
C704 C 0.8096 0.68918 0.03551 0.0
C705 C 0.80931 0.65899 0.07097 0.0
C706 C 0.77577 0.69079 0.00615 0.0
C707 C 0.77292 0.72377 0.96979 0.0
C708 C 0.77013 0.71025 0.92498 0.0
C709 C 0.76889 0.74132 0.89055 0.0
C710 C 0.77011 0.786 0.9006 0.0
C711 C 0.77242 0.79973 0.9451 0.0
C712 C 0.77365 0.7688 0.97964 0.0
H713 H 0.7693 0.80999 0.87389 0.0
H714 H 0.77786 0.525 0.22205 0.0
loop_
_geom_bond_atom_site_label_1
_geom_bond_atom_site_label_2
_geom_bond_distance
_geom_bond_site_symmetry_2
_ccdc_geom_bond_type
H0 C8 0.930 . S
H1 C11 0.930 . S
H2 C13 0.930 . S
H3 C14 0.970 . S
H4 C14 0.970 . S
H5 C16 0.930 . S
H6 C18 0.930 . S
H7 C20 0.930 . S
C8 H0 0.930 . S
C8 C9 1.382 . S
C8 C10 1.426 . S
C9 C8 1.382 . S
C9 C13 1.389 1_655 S
C10 C8 1.426 . S
C10 C11 1.375 . S
C10 C14 1.532 . S
C11 H1 0.930 . S
C11 C10 1.375 . S
C11 C12 1.416 . S
C12 C11 1.416 . S
C12 C13 1.371 1_655 S
C13 H2 0.930 . S
C13 C9 1.389 1_455 S
C13 C12 1.371 1_455 S
C14 H3 0.970 . S
C14 H4 0.970 . S
C14 C10 1.532 . S
C14 C15 1.499 . S
C15 C14 1.499 . S
C15 C16 1.370 . S
C15 C20 1.415 . S
C16 H5 0.930 . S
C16 C15 1.370 . S
C16 C17 1.407 . S
C17 C16 1.407 . S
C17 C18 1.365 1_655 S
C18 H6 0.930 . S
C18 C17 1.365 1_455 S
C18 C19 1.393 1_455 S
C19 C18 1.393 1_655 S
C19 C20 1.387 . S
C20 H7 0.930 . S
C20 C15 1.415 . S
C20 C19 1.387 . S
H21 C29 0.930 . S
H22 C32 0.930 . S
H23 C34 0.930 . S
H24 C35 0.970 . S
H25 C35 0.970 . S
H26 C37 0.930 . S
H27 C39 0.930 . S
H28 C41 0.930 . S
C29 H21 0.930 . S
C29 C30 1.382 . S
C29 C31 1.426 . S
C30 C29 1.382 . S
C30 C34 1.389 1_545 S
C31 C29 1.426 . S
C31 C32 1.375 . S
C31 C35 1.532 . S
C32 H22 0.930 . S
C32 C31 1.375 . S
C32 C33 1.416 . S
C33 C32 1.416 . S
C33 C34 1.371 1_545 S
C34 H23 0.930 . S
C34 C30 1.389 1_565 S
C34 C33 1.371 1_565 S
C35 H24 0.970 . S
C35 H25 0.970 . S
C35 C31 1.532 . S
C35 C36 1.499 . S
C36 C35 1.499 . S
C36 C37 1.370 . S
C36 C41 1.415 . S
C37 H26 0.930 . S
C37 C36 1.370 . S
C37 C38 1.407 . S
C38 C37 1.407 . S
C38 C39 1.365 1_545 S
C39 H27 0.930 . S
C39 C38 1.365 1_565 S
C39 C40 1.393 1_565 S
C40 C39 1.393 1_545 S
C40 C41 1.387 . S
C41 H28 0.930 . S
C41 C36 1.415 . S
C41 C40 1.387 . S
H42 C50 0.930 . S
H43 C53 0.930 . S
H44 C55 0.930 . S
H45 C56 0.970 . S
H46 C56 0.970 . S
H47 C58 0.930 . S
H48 C60 0.930 1_556 S
H49 C62 0.930 . S
C50 H42 0.930 . S
C50 C51 1.382 . S
C50 C52 1.426 . S
C51 C50 1.382 . S
C51 C55 1.389 . S
C52 C50 1.426 . S
C52 C53 1.375 . S
C52 C56 1.532 . S
C53 H43 0.930 . S
C53 C52 1.375 . S
C53 C54 1.416 . S
C54 C53 1.416 . S
C54 C55 1.371 . S
C55 H44 0.930 . S
C55 C51 1.389 . S
C55 C54 1.371 . S
C56 H45 0.970 . S
C56 H46 0.970 . S
C56 C52 1.532 . S
C56 C57 1.499 . S
C57 C56 1.499 . S
C57 C58 1.370 . S
C57 C62 1.415 . S
C58 H47 0.930 . S
C58 C57 1.370 . S
C58 C59 1.407 . S
C59 C58 1.407 . S
C59 C60 1.365 . S
C60 H48 0.930 1_554 S
C60 C59 1.365 . S
C60 C61 1.393 . S
C61 C60 1.393 . S
C61 C62 1.387 . S
C62 H49 0.930 . S
C62 C57 1.415 . S
C62 C61 1.387 . S
Zn63 O65 1.933 1_556 S
Zn63 O83 1.985 . S
Zn63 O94 1.955 . S
Zn64 O65 1.911 . S
Zn64 O84 1.970 . S
Zn64 O100 1.945 . S
Zn64 O107 1.981 . S
O65 Zn63 1.933 1_554 S
O65 Zn64 1.911 . S
O65 H66 0.841 . S
H66 O65 0.841 . S
C67 O68 1.246 . S
C67 O96 1.276 1_455 S
O68 C67 1.246 . S
Zn69 O71 1.911 . S
Zn69 O86 1.970 . S
Zn69 O103 1.945 . S
Zn69 O110 1.981 . S
Zn70 O71 1.933 1_556 S
Zn70 O85 1.985 . S
Zn70 O92 1.955 . S
O71 Zn69 1.911 . S
O71 Zn70 1.933 1_554 S
O71 H72 0.841 . S
H72 O71 0.841 . S
Zn73 O74 1.933 1_556 S
Zn73 O87 1.985 . S
Zn73 O96 1.955 . S
O74 Zn73 1.933 1_554 S
O74 Zn75 1.911 . S
O74 H76 0.841 . S
Zn75 O74 1.911 . S
Zn75 O88 1.970 . S
Zn75 O104 1.981 . S
Zn75 O106 1.945 . S
H76 O74 0.841 . S
Zn77 O78 1.933 1_556 S
Zn77 O90 1.985 . S
Zn77 O98 1.955 . S
O78 Zn77 1.933 1_554 S
O78 H79 0.841 . S
O78 Zn80 1.911 . S
H79 O78 0.841 . S
Zn80 O78 1.911 . S
Zn80 O91 1.970 . S
Zn80 O101 1.981 . S
Zn80 O109 1.945 . S
C81 O82 1.246 . S
C81 O98 1.276 1_655 S
O82 C81 1.246 . S
O83 Zn63 1.985 . S
O83 C93 1.245 1_556 S
O84 Zn64 1.970 . S
O84 C93 1.263 . S
O85 Zn70 1.985 . S
O85 C97 1.245 1_556 S
O86 Zn69 1.970 . S
O86 C97 1.263 . S
O87 Zn73 1.985 . S
O87 C102 1.245 1_556 S
O88 Zn75 1.970 . S
O88 C102 1.263 . S
C89 O100 1.277 . S
C89 O101 1.236 1_545 S
O90 Zn77 1.985 . S
O90 C108 1.245 1_556 S
O91 Zn80 1.970 . S
O91 C108 1.263 . S
O92 Zn70 1.955 . S
O92 C111 1.276 1_565 S
C93 O83 1.245 1_554 S
C93 O84 1.263 . S
O94 Zn63 1.955 . S
O94 C113 1.276 1_545 S
C95 O103 1.274 . S
C95 O104 1.238 1_565 S
O96 C67 1.276 1_655 S
O96 Zn73 1.955 . S
C97 O85 1.245 1_554 S
C97 O86 1.263 . S
O98 Zn77 1.955 . S
O98 C81 1.276 1_455 S
C99 O106 1.265 1_455 S
C99 O107 1.243 . S
O100 Zn64 1.945 . S
O100 C89 1.277 . S
O101 Zn80 1.981 . S
O101 C89 1.236 1_565 S
C102 O87 1.245 1_554 S
C102 O88 1.263 . S
O103 Zn69 1.945 . S
O103 C95 1.274 . S
O104 Zn75 1.981 . S
O104 C95 1.238 1_545 S
C105 O109 1.267 . S
C105 O110 1.242 1_455 S
O106 Zn75 1.945 . S
O106 C99 1.265 1_655 S
O107 Zn64 1.981 . S
O107 C99 1.243 . S
C108 O90 1.245 1_554 S
C108 O91 1.263 . S
O109 Zn80 1.945 . S
O109 C105 1.267 . S
O110 Zn69 1.981 . S
O110 C105 1.242 1_655 S
C111 O92 1.276 1_545 S
C111 O112 1.246 . S
O112 C111 1.246 . S
C113 O94 1.276 1_565 S
C113 O114 1.246 . S
O114 C113 1.246 . S
H115 C133 0.951 . S
H116 C135 0.951 . S
H117 C137 0.950 . S
H118 C138 0.950 . S
H119 C140 0.950 . S
H120 C143 0.950 . S
H121 C144 0.950 . S
H122 C146 0.950 . S
H123 C147 0.950 . S
H124 C148 0.951 . S
H125 C150 0.951 . S
H126 C152 0.950 . S
H127 C153 0.950 . S
H128 C155 0.950 . S
H129 C158 0.950 . S
H130 C159 0.950 . S
H131 C161 0.950 . S
H132 C162 0.950 . S
C133 H115 0.951 . S
C133 C134 1.366 1_455 S
C133 C135 1.388 . S
C134 C133 1.366 1_655 S
C134 C138 1.385 . S
C135 H116 0.951 . S
C135 C133 1.388 . S
C135 C136 1.366 1_455 S
C136 C135 1.366 1_655 S
C136 C137 1.414 . S
C136 C139 1.499 . S
C137 H117 0.950 . S
C137 C136 1.414 . S
C137 C138 1.374 . S
C138 H118 0.950 . S
C138 C134 1.385 . S
C138 C137 1.374 . S
C139 C136 1.499 . S
C139 C140 1.363 1_655 S
C139 C141 1.398 . S
C140 H119 0.950 . S
C140 C139 1.363 1_455 S
C140 C156 1.377 . S
C141 C139 1.398 . S
C141 C142 1.524 . S
C141 C155 1.377 . S
C142 C141 1.524 . S
C142 C143 1.397 . S
C142 C147 1.363 . S
C143 H120 0.950 . S
C143 C142 1.397 . S
C143 C144 1.334 . S
C144 H121 0.950 . S
C144 C143 1.334 . S
C144 C145 1.287 . S
C145 C144 1.287 . S
C145 C146 1.524 . S
C145 H164 0.913 . S
C146 H122 0.950 . S
C146 C145 1.524 . S
C146 C147 1.415 . S
C147 H123 0.950 . S
C147 C142 1.363 . S
C147 C146 1.415 . S
C148 H124 0.951 . S
C148 C149 1.366 . S
C148 C150 1.388 . S
C149 C148 1.366 . S
C149 C153 1.385 . S
C150 H125 0.951 . S
C150 C148 1.388 . S
C150 C151 1.366 . S
C151 C150 1.366 . S
C151 C152 1.414 . S
C151 C154 1.499 . S
C152 H126 0.950 . S
C152 C151 1.414 . S
C152 C153 1.374 . S
C153 H127 0.950 . S
C153 C149 1.385 . S
C153 C152 1.374 . S
C154 C151 1.499 . S
C154 C155 1.373 1_455 S
C154 C156 1.389 . S
C155 H128 0.950 . S
C155 C141 1.377 . S
C155 C154 1.373 1_655 S
C156 C140 1.377 . S
C156 C154 1.389 . S
C156 C157 1.524 . S
C157 C156 1.524 . S
C157 C158 1.397 . S
C157 C162 1.363 . S
C158 H129 0.950 . S
C158 C157 1.397 . S
C158 C159 1.334 . S
C159 H130 0.950 . S
C159 C158 1.334 . S
C159 C160 1.287 . S
C160 C159 1.287 . S
C160 C161 1.524 . S
C160 H163 0.999 . S
C161 H131 0.950 . S
C161 C160 1.524 . S
C161 C162 1.415 . S
C162 H132 0.950 . S
C162 C157 1.363 . S
C162 C161 1.415 . S
H163 C160 0.999 . S
H164 C145 0.913 . S
H165 C183 0.951 . S
H166 C185 0.951 . S
H167 C187 0.950 . S
H168 C188 0.950 . S
H169 C190 0.950 . S
H170 C193 0.950 . S
H171 C194 0.950 . S
H172 C196 0.950 . S
H173 C197 0.950 . S
H174 C198 0.951 . S
H175 C200 0.951 . S
H176 C202 0.950 . S
H177 C203 0.950 . S
H178 C205 0.950 . S
H179 C208 0.950 . S
H180 C209 0.950 . S
H181 C211 0.950 . S
H182 C212 0.950 . S
C183 H165 0.951 . S
C183 C184 1.366 1_545 S
C183 C185 1.388 . S
C184 C183 1.366 1_565 S
C184 C188 1.385 . S
C185 H166 0.951 . S
C185 C183 1.388 . S
C185 C186 1.366 . S
C186 C185 1.366 . S
C186 C187 1.414 1_545 S
C186 C189 1.499 . S
C187 H167 0.950 . S
C187 C186 1.414 1_565 S
C187 C188 1.374 . S
C188 H168 0.950 . S
C188 C184 1.385 . S
C188 C187 1.374 . S
C189 C186 1.499 . S
C189 C190 1.373 1_545 S
C189 C191 1.389 . S
C190 H169 0.950 . S
C190 C189 1.373 1_565 S
C190 C206 1.377 . S
C191 C189 1.389 . S
C191 C192 1.524 . S
C191 C205 1.377 . S
C192 C191 1.524 . S
C192 C193 1.397 . S
C192 C197 1.363 . S
C193 H170 0.950 . S
C193 C192 1.397 . S
C193 C194 1.334 . S
C194 H171 0.950 . S
C194 C193 1.334 . S
C194 C195 1.287 . S
C195 C194 1.287 . S
C195 C196 1.524 . S
C195 H214 0.913 . S
C196 H172 0.950 . S
C196 C195 1.524 . S
C196 C197 1.415 . S
C197 H173 0.950 . S
C197 C192 1.363 . S
C197 C196 1.415 . S
C198 H174 0.951 . S
C198 C199 1.366 1_565 S
C198 C200 1.388 . S
C199 C198 1.366 1_545 S
C199 C203 1.385 . S
C200 H175 0.951 . S
C200 C198 1.388 . S
C200 C201 1.366 1_565 S
C201 C200 1.366 1_545 S
C201 C202 1.414 . S
C201 C204 1.499 . S
C202 H176 0.950 . S
C202 C201 1.414 . S
C202 C203 1.374 . S
C203 H177 0.950 . S
C203 C199 1.385 . S
C203 C202 1.374 . S
C204 C201 1.499 . S
C204 C205 1.373 . S
C204 C206 1.389 1_545 S
C205 H178 0.950 . S
C205 C191 1.377 . S
C205 C204 1.373 . S
C206 C190 1.377 . S
C206 C204 1.389 1_565 S
C206 C207 1.524 . S
C207 C206 1.524 . S
C207 C208 1.397 . S
C207 C212 1.363 . S
C208 H179 0.950 . S
C208 C207 1.397 . S
C208 C209 1.334 . S
C209 H180 0.950 . S
C209 C208 1.334 . S
C209 C210 1.287 . S
C210 C209 1.287 . S
C210 C211 1.524 . S
C210 H213 0.999 . S
C211 H181 0.950 . S
C211 C210 1.524 . S
C211 C212 1.415 . S
C212 H182 0.950 . S
C212 C207 1.363 . S
C212 C211 1.415 . S
H213 C210 0.999 . S
H214 C195 0.913 . S
H215 C233 0.951 . S
H216 C235 0.951 . S
H217 C237 0.950 . S
H218 C238 0.950 . S
H219 C240 0.950 . S
H220 C243 0.950 . S
H221 C244 0.950 1_455 S
H222 C246 0.950 . S
H223 C247 0.950 . S
H224 C248 0.951 . S
H225 C250 0.951 . S
H226 C252 0.950 . S
H227 C253 0.950 . S
H228 C255 0.950 . S
H229 C258 0.950 . S
H230 C259 0.950 1_655 S
H231 C261 0.950 . S
H232 C262 0.950 . S
C233 H215 0.951 . S
C233 C234 1.366 1_655 S
C233 C235 1.388 . S
C234 C233 1.366 1_455 S
C234 C238 1.385 . S
C235 H216 0.951 . S
C235 C233 1.388 . S
C235 C236 1.347 1_655 S
C236 C235 1.347 1_455 S
C236 C237 1.434 . S
C236 C239 1.499 . S
C237 H217 0.950 . S
C237 C236 1.434 . S
C237 C238 1.374 . S
C238 H218 0.950 . S
C238 C234 1.385 . S
C238 C237 1.374 . S
C239 C236 1.499 . S
C239 C240 1.378 . S
C239 C241 1.384 1_455 S
C240 H219 0.950 . S
C240 C239 1.378 . S
C240 C256 1.377 . S
C241 C239 1.384 1_655 S
C241 C242 1.524 . S
C241 C255 1.377 . S
C242 C241 1.524 . S
C242 C243 1.397 1_655 S
C242 C247 1.363 . S
C243 H220 0.950 . S
C243 C242 1.397 1_455 S
C243 C244 1.334 1_455 S
C244 H221 0.950 1_655 S
C244 C243 1.334 1_655 S
C244 C245 1.287 . S
C245 C244 1.287 . S
C245 C246 1.524 . S
C245 H264 0.913 . S
C246 H222 0.950 . S
C246 C245 1.524 . S
C246 C247 1.415 . S
C247 H223 0.950 . S
C247 C242 1.363 . S
C247 C246 1.415 . S
C248 H224 0.951 . S
C248 C249 1.366 1_455 S
C248 C250 1.388 . S
C249 C248 1.366 1_655 S
C249 C253 1.385 . S
C250 H225 0.951 . S
C250 C248 1.388 . S
C250 C251 1.366 1_455 S
C251 C250 1.366 1_655 S
C251 C252 1.414 . S
C251 C254 1.499 . S
C252 H226 0.950 . S
C252 C251 1.414 . S
C252 C253 1.374 . S
C253 H227 0.950 . S
C253 C249 1.385 . S
C253 C252 1.374 . S
C254 C251 1.499 . S
C254 C255 1.373 . S
C254 C256 1.389 1_655 S
C255 H228 0.950 . S
C255 C241 1.377 . S
C255 C254 1.373 . S
C256 C240 1.377 . S
C256 C254 1.389 1_455 S
C256 C257 1.524 . S
C257 C256 1.524 . S
C257 C258 1.397 1_455 S
C257 C262 1.363 . S
C258 H229 0.950 . S
C258 C257 1.397 1_655 S
C258 C259 1.334 1_655 S
C259 H230 0.950 1_455 S
C259 C258 1.334 1_455 S
C259 C260 1.288 . S
C260 C259 1.288 . S
C260 C261 1.524 . S
C260 H263 0.999 . S
C261 H231 0.950 . S
C261 C260 1.524 . S
C261 C262 1.415 . S
C262 H232 0.950 . S
C262 C257 1.363 . S
C262 C261 1.415 . S
H263 C260 0.999 . S
H264 C245 0.913 . S
H265 C283 0.951 . S
H266 C285 0.951 . S
H267 C287 0.950 . S
H268 C288 0.950 . S
H269 C290 0.950 . S
H270 C293 0.950 . S
H271 C294 0.950 . S
H272 C296 0.950 . S
H273 C297 0.950 . S
H274 C298 0.951 . S
H275 C300 0.951 . S
H276 C302 0.950 . S
H277 C303 0.950 . S
H278 C305 0.950 . S
H279 C308 0.950 . S
H280 C309 0.950 . S
H281 C311 0.950 . S
H282 C312 0.950 . S
C283 H265 0.951 . S
C283 C284 1.366 1_565 S
C283 C285 1.388 . S
C284 C283 1.366 1_545 S
C284 C288 1.385 . S
C285 H266 0.951 . S
C285 C283 1.388 . S
C285 C286 1.380 . S
C286 C285 1.380 . S
C286 C287 1.399 1_565 S
C286 C289 1.499 . S
C287 H267 0.950 . S
C287 C286 1.399 1_545 S
C287 C288 1.374 . S
C288 H268 0.950 . S
C288 C284 1.385 . S
C288 C287 1.374 . S
C289 C286 1.499 . S
C289 C290 1.353 1_565 S
C289 C291 1.410 . S
C290 H269 0.950 . S
C290 C289 1.353 1_545 S
C290 C306 1.377 . S
C291 C289 1.410 . S
C291 C292 1.524 . S
C291 C305 1.377 . S
C292 C291 1.524 . S
C292 C293 1.397 . S
C292 C297 1.363 . S
C293 H270 0.950 . S
C293 C292 1.397 . S
C293 C294 1.334 . S
C294 H271 0.950 . S
C294 C293 1.334 . S
C294 C295 1.287 . S
C295 C294 1.287 . S
C295 C296 1.524 . S
C295 H314 0.913 . S
C296 H272 0.950 . S
C296 C295 1.524 . S
C296 C297 1.415 . S
C297 H273 0.950 . S
C297 C292 1.363 . S
C297 C296 1.415 . S
C298 H274 0.951 . S
C298 C299 1.366 1_545 S
C298 C300 1.388 . S
C299 C298 1.366 1_565 S
C299 C303 1.385 . S
C300 H275 0.951 . S
C300 C298 1.388 . S
C300 C301 1.366 1_545 S
C301 C300 1.366 1_565 S
C301 C302 1.414 . S
C301 C304 1.499 . S
C302 H276 0.950 . S
C302 C301 1.414 . S
C302 C303 1.374 . S
C303 H277 0.950 . S
C303 C299 1.385 . S
C303 C302 1.374 . S
C304 C301 1.499 . S
C304 C305 1.373 . S
C304 C306 1.389 1_565 S
C305 H278 0.950 . S
C305 C291 1.377 . S
C305 C304 1.373 . S
C306 C290 1.377 . S
C306 C304 1.389 1_545 S
C306 C307 1.524 . S
C307 C306 1.524 . S
C307 C308 1.397 . S
C307 C312 1.363 . S
C308 H279 0.950 . S
C308 C307 1.397 . S
C308 C309 1.334 . S
C309 H280 0.950 . S
C309 C308 1.334 . S
C309 C310 1.287 . S
C310 C309 1.287 . S
C310 C311 1.524 . S
C310 H313 0.999 . S
C311 H281 0.950 . S
C311 C310 1.524 . S
C311 C312 1.415 . S
C312 H282 0.950 . S
C312 C307 1.363 . S
C312 C311 1.415 . S
H313 C310 0.999 . S
H314 C295 0.913 . S
H315 C333 0.951 . S
H316 C335 0.951 . S
H317 C337 0.950 . S
H318 C338 0.950 . S
H319 C340 0.950 . S
H320 C343 0.950 . S
H321 C344 0.950 . S
H322 C346 0.950 . S
H323 C347 0.950 . S
H324 C348 0.951 . S
H325 C350 0.951 . S
H326 C352 0.950 1_455 S
H327 C353 0.950 1_455 S
H328 C355 0.950 . S
H329 C358 0.950 . S
H330 C359 0.950 . S
H331 C361 0.950 . S
H332 C362 0.950 . S
C333 H315 0.951 . S
C333 C334 1.366 1_455 S
C333 C335 1.388 . S
C334 C333 1.366 1_655 S
C334 C338 1.385 . S
C335 H316 0.951 . S
C335 C333 1.388 . S
C335 C336 1.366 1_455 S
C336 C335 1.366 1_655 S
C336 C337 1.414 . S
C336 C339 1.499 . S
C337 H317 0.950 . S
C337 C336 1.414 . S
C337 C338 1.374 . S
C338 H318 0.950 . S
C338 C334 1.385 . S
C338 C337 1.374 . S
C339 C336 1.499 . S
C339 C340 1.373 . S
C339 C341 1.389 1_655 S
C340 H319 0.950 . S
C340 C339 1.373 . S
C340 C356 1.377 . S
C341 C339 1.389 1_455 S
C341 C342 1.524 . S
C341 C355 1.377 . S
C342 C341 1.524 . S
C342 C343 1.397 . S
C342 C347 1.363 . S
C343 H320 0.950 . S
C343 C342 1.397 . S
C343 C344 1.334 . S
C344 H321 0.950 . S
C344 C343 1.334 . S
C344 C345 1.287 . S
C345 C344 1.287 . S
C345 C346 1.524 . S
C345 H364 0.913 . S
C346 H322 0.950 . S
C346 C345 1.524 . S
C346 C347 1.415 . S
C347 H323 0.950 . S
C347 C342 1.363 . S
C347 C346 1.415 . S
C348 H324 0.951 . S
C348 C349 1.366 . S
C348 C350 1.388 . S
C349 C348 1.366 . S
C349 C353 1.385 . S
C350 H325 0.951 . S
C350 C348 1.388 . S
C350 C351 1.366 . S
C351 C350 1.366 . S
C351 C352 1.414 . S
C351 C354 1.499 . S
C352 H326 0.950 1_655 S
C352 C351 1.414 . S
C352 C353 1.374 . S
C353 H327 0.950 1_655 S
C353 C349 1.385 . S
C353 C352 1.374 . S
C354 C351 1.499 . S
C354 C355 1.373 1_655 S
C354 C356 1.389 . S
C355 H328 0.950 . S
C355 C341 1.377 . S
C355 C354 1.373 1_455 S
C356 C340 1.377 . S
C356 C354 1.389 . S
C356 C357 1.524 . S
C357 C356 1.524 . S
C357 C358 1.397 . S
C357 C362 1.363 . S
C358 H329 0.950 . S
C358 C357 1.397 . S
C358 C359 1.334 . S
C359 H330 0.950 . S
C359 C358 1.334 . S
C359 C360 1.287 . S
C360 C359 1.287 . S
C360 C361 1.524 . S
C360 H363 0.999 . S
C361 H331 0.950 . S
C361 C360 1.524 . S
C361 C362 1.415 . S
C362 H332 0.950 . S
C362 C357 1.363 . S
C362 C361 1.415 . S
H363 C360 0.999 . S
H364 C345 0.913 . S
H365 C383 0.951 . S
H366 C385 0.951 . S
H367 C387 0.950 . S
H368 C388 0.950 . S
H369 C390 0.950 . S
H370 C393 0.950 . S
H371 C394 0.950 . S
H372 C396 0.950 . S
H373 C397 0.950 . S
H374 C398 0.951 . S
H375 C400 0.951 . S
H376 C402 0.950 . S
H377 C403 0.950 . S
H378 C405 0.950 . S
H379 C408 0.950 . S
H380 C409 0.950 . S
H381 C411 0.950 . S
H382 C412 0.950 . S
C383 H365 0.951 . S
C383 C384 1.366 1_545 S
C383 C385 1.388 . S
C384 C383 1.366 1_565 S
C384 C388 1.385 . S
C385 H366 0.951 . S
C385 C383 1.388 . S
C385 C386 1.366 1_545 S
C386 C385 1.366 1_565 S
C386 C387 1.414 . S
C386 C389 1.499 . S
C387 H367 0.950 . S
C387 C386 1.414 . S
C387 C388 1.374 . S
C388 H368 0.950 . S
C388 C384 1.385 . S
C388 C387 1.374 . S
C389 C386 1.499 . S
C389 C390 1.373 . S
C389 C391 1.389 1_565 S
C390 H369 0.950 . S
C390 C389 1.373 . S
C390 C406 1.377 . S
C391 C389 1.389 1_545 S
C391 C392 1.524 . S
C391 C405 1.377 . S
C392 C391 1.524 . S
C392 C393 1.397 1_545 S
C392 C397 1.363 . S
C393 H370 0.950 . S
C393 C392 1.397 1_565 S
C393 C394 1.334 . S
C394 H371 0.950 . S
C394 C393 1.334 . S
C394 C395 1.287 1_565 S
C395 C394 1.287 1_545 S
C395 C396 1.524 . S
C395 H414 0.913 . S
C396 H372 0.950 . S
C396 C395 1.524 . S
C396 C397 1.415 . S
C397 H373 0.950 . S
C397 C392 1.363 . S
C397 C396 1.415 . S
C398 H374 0.951 . S
C398 C399 1.366 . S
C398 C400 1.388 . S
C399 C398 1.366 . S
C399 C403 1.385 1_565 S
C400 H375 0.951 . S
C400 C398 1.388 . S
C400 C401 1.366 . S
C401 C400 1.366 . S
C401 C402 1.414 1_565 S
C401 C404 1.499 . S
C402 H376 0.950 . S
C402 C401 1.414 1_545 S
C402 C403 1.374 . S
C403 H377 0.950 . S
C403 C399 1.385 1_545 S
C403 C402 1.374 . S
C404 C401 1.499 . S
C404 C405 1.373 1_565 S
C404 C406 1.389 . S
C405 H378 0.950 . S
C405 C391 1.377 . S
C405 C404 1.373 1_545 S
C406 C390 1.377 . S
C406 C404 1.389 . S
C406 C407 1.524 . S
C407 C406 1.524 . S
C407 C408 1.397 1_565 S
C407 C412 1.363 . S
C408 H379 0.950 . S
C408 C407 1.397 1_545 S
C408 C409 1.334 . S
C409 H380 0.950 . S
C409 C408 1.334 . S
C409 C410 1.287 1_545 S
C410 C409 1.287 1_565 S
C410 C411 1.524 . S
C410 H413 0.999 . S
C411 H381 0.950 . S
C411 C410 1.524 . S
C411 C412 1.415 . S
C412 H382 0.950 . S
C412 C407 1.363 . S
C412 C411 1.415 . S
H413 C410 0.999 . S
H414 C395 0.913 . S
H415 C433 0.951 . S
H416 C435 0.951 . S
H417 C437 0.950 . S
H418 C438 0.950 . S
H419 C440 0.950 1_655 S
H420 C443 0.950 . S
H421 C444 0.950 . S
H422 C446 0.950 . S
H423 C447 0.950 . S
H424 C448 0.951 . S
H425 C450 0.951 . S
H426 C452 0.950 . S
H427 C453 0.950 . S
H428 C455 0.950 . S
H429 C458 0.950 . S
H430 C459 0.950 . S
H431 C461 0.950 . S
H432 C462 0.950 . S
C433 H415 0.951 . S
C433 C434 1.366 . S
C433 C435 1.388 . S
C434 C433 1.366 . S
C434 C438 1.385 1_455 S
C435 H416 0.951 . S
C435 C433 1.388 . S
C435 C436 1.366 . S
C436 C435 1.366 . S
C436 C437 1.414 1_455 S
C436 C439 1.499 . S
C437 H417 0.950 . S
C437 C436 1.414 1_655 S
C437 C438 1.374 . S
C438 H418 0.950 . S
C438 C434 1.385 1_655 S
C438 C437 1.374 . S
C439 C436 1.499 . S
C439 C440 1.373 . S
C439 C441 1.389 . S
C440 H419 0.950 1_455 S
C440 C439 1.373 . S
C440 C456 1.377 . S
C441 C439 1.389 . S
C441 C442 1.524 . S
C441 C455 1.377 . S
C442 C441 1.524 . S
C442 C443 1.397 1_455 S
C442 C447 1.363 . S
C443 H420 0.950 . S
C443 C442 1.397 1_655 S
C443 C444 1.334 . S
C444 H421 0.950 . S
C444 C443 1.334 . S
C444 C445 1.287 1_655 S
C445 C444 1.287 1_455 S
C445 C446 1.524 . S
C445 H464 0.913 . S
C446 H422 0.950 . S
C446 C445 1.524 . S
C446 C447 1.415 . S
C447 H423 0.950 . S
C447 C442 1.363 . S
C447 C446 1.415 . S
C448 H424 0.951 . S
C448 C449 1.366 1_655 S
C448 C450 1.388 . S
C449 C448 1.366 1_455 S
C449 C453 1.385 . S
C450 H425 0.951 . S
C450 C448 1.388 . S
C450 C451 1.366 1_655 S
C451 C450 1.366 1_455 S
C451 C452 1.414 . S
C451 C454 1.499 . S
C452 H426 0.950 . S
C452 C451 1.414 . S
C452 C453 1.374 . S
C453 H427 0.950 . S
C453 C449 1.385 . S
C453 C452 1.374 . S
C454 C451 1.499 . S
C454 C455 1.373 . S
C454 C456 1.389 . S
C455 H428 0.950 . S
C455 C441 1.377 . S
C455 C454 1.373 . S
C456 C440 1.377 . S
C456 C454 1.389 . S
C456 C457 1.524 . S
C457 C456 1.524 . S
C457 C458 1.397 . S
C457 C462 1.363 1_455 S
C458 H429 0.950 . S
C458 C457 1.397 . S
C458 C459 1.334 . S
C459 H430 0.950 . S
C459 C458 1.334 . S
C459 C460 1.287 . S
C460 C459 1.287 . S
C460 C461 1.524 1_455 S
C460 H463 0.999 . S
C461 H431 0.950 . S
C461 C460 1.524 1_655 S
C461 C462 1.415 . S
C462 H432 0.950 . S
C462 C457 1.363 1_655 S
C462 C461 1.415 . S
H463 C460 0.999 . S
H464 C445 0.913 . S
H465 C483 0.951 . S
H466 C485 0.951 . S
H467 C487 0.950 . S
H468 C488 0.950 . S
H469 C490 0.950 . S
H470 C493 0.950 . S
H471 C494 0.950 . S
H472 C496 0.950 . S
H473 C497 0.950 . S
H474 C498 0.951 . S
H475 C500 0.951 . S
H476 C502 0.950 . S
H477 C503 0.950 . S
H478 C505 0.950 . S
H479 C508 0.950 . S
H480 C509 0.950 . S
H481 C511 0.950 . S
H482 C512 0.950 . S
C483 H465 0.951 . S
C483 C484 1.366 1_565 S
C483 C485 1.388 . S
C484 C483 1.366 1_545 S
C484 C488 1.385 . S
C485 H466 0.951 . S
C485 C483 1.388 . S
C485 C486 1.366 1_565 S
C486 C485 1.366 1_545 S
C486 C487 1.414 . S
C486 C489 1.499 . S
C487 H467 0.950 . S
C487 C486 1.414 . S
C487 C488 1.374 . S
C488 H468 0.950 . S
C488 C484 1.385 . S
C488 C487 1.374 . S
C489 C486 1.499 . S
C489 C490 1.373 . S
C489 C491 1.389 1_545 S
C490 H469 0.950 . S
C490 C489 1.373 . S
C490 C506 1.377 . S
C491 C489 1.389 1_565 S
C491 C492 1.524 . S
C491 C505 1.377 . S
C492 C491 1.524 . S
C492 C493 1.397 . S
C492 C497 1.363 . S
C493 H470 0.950 . S
C493 C492 1.397 . S
C493 C494 1.334 . S
C494 H471 0.950 . S
C494 C493 1.334 . S
C494 C495 1.287 . S
C495 C494 1.287 . S
C495 C496 1.524 . S
C495 H514 0.913 . S
C496 H472 0.950 . S
C496 C495 1.524 . S
C496 C497 1.415 . S
C497 H473 0.950 . S
C497 C492 1.363 . S
C497 C496 1.415 . S
C498 H474 0.951 . S
C498 C499 1.366 . S
C498 C500 1.388 . S
C499 C498 1.366 . S
C499 C503 1.385 1_545 S
C500 H475 0.951 . S
C500 C498 1.388 . S
C500 C501 1.366 . S
C501 C500 1.366 . S
C501 C502 1.414 1_545 S
C501 C504 1.499 . S
C502 H476 0.950 . S
C502 C501 1.414 1_565 S
C502 C503 1.374 . S
C503 H477 0.950 . S
C503 C499 1.385 1_565 S
C503 C502 1.374 . S
C504 C501 1.499 . S
C504 C505 1.373 1_545 S
C504 C506 1.389 . S
C505 H478 0.950 . S
C505 C491 1.377 . S
C505 C504 1.373 1_565 S
C506 C490 1.377 . S
C506 C504 1.389 . S
C506 C507 1.524 . S
C507 C506 1.524 . S
C507 C508 1.397 . S
C507 C512 1.363 . S
C508 H479 0.950 . S
C508 C507 1.397 . S
C508 C509 1.334 . S
C509 H480 0.950 . S
C509 C508 1.334 . S
C509 C510 1.287 . S
C510 C509 1.287 . S
C510 C511 1.524 . S
C510 H513 0.999 . S
C511 H481 0.950 . S
C511 C510 1.524 . S
C511 C512 1.415 . S
C512 H482 0.950 . S
C512 C507 1.363 . S
C512 C511 1.415 . S
H513 C510 0.999 . S
H514 C495 0.913 . S
H515 C533 0.951 . S
H516 C535 0.951 . S
H517 C537 0.950 . S
H518 C538 0.950 . S
H519 C540 0.950 . S
H520 C543 0.950 . S
H521 C544 0.950 . S
H522 C546 0.950 . S
H523 C547 0.950 . S
H524 C548 0.951 . S
H525 C550 0.951 . S
H526 C552 0.950 . S
H527 C553 0.950 . S
H528 C555 0.950 . S
H529 C558 0.950 . S
H530 C559 0.950 . S
H531 C561 0.950 . S
H532 C562 0.950 . S
C533 H515 0.951 . S
C533 C534 1.366 . S
C533 C535 1.388 . S
C534 C533 1.366 . S
C534 C538 1.385 . S
C535 H516 0.951 . S
C535 C533 1.388 . S
C535 C536 1.366 . S
C536 C535 1.366 . S
C536 C537 1.414 . S
C536 C539 1.499 . S
C537 H517 0.950 . S
C537 C536 1.414 . S
C537 C538 1.374 . S
C538 H518 0.950 . S
C538 C534 1.385 . S
C538 C537 1.374 . S
C539 C536 1.499 . S
C539 C540 1.373 . S
C539 C541 1.389 1_554 S
C540 H519 0.950 . S
C540 C539 1.373 . S
C540 C556 1.377 . S
C541 C539 1.389 1_556 S
C541 C542 1.524 . S
C541 C555 1.377 . S
C542 C541 1.524 . S
C542 C543 1.397 . S
C542 C547 1.363 . S
C543 H520 0.950 . S
C543 C542 1.397 . S
C543 C544 1.334 . S
C544 H521 0.950 . S
C544 C543 1.334 . S
C544 C545 1.287 . S
C545 C544 1.287 . S
C545 C546 1.524 . S
C545 H564 0.913 . S
C546 H522 0.950 . S
C546 C545 1.524 . S
C546 C547 1.415 . S
C547 H523 0.950 . S
C547 C542 1.363 . S
C547 C546 1.415 . S
C548 H524 0.951 . S
C548 C549 1.366 . S
C548 C550 1.388 . S
C549 C548 1.366 . S
C549 C553 1.385 . S
C550 H525 0.951 . S
C550 C548 1.388 . S
C550 C551 1.366 . S
C551 C550 1.366 . S
C551 C552 1.414 . S
C551 C554 1.499 . S
C552 H526 0.950 . S
C552 C551 1.414 . S
C552 C553 1.374 . S
C553 H527 0.950 . S
C553 C549 1.385 . S
C553 C552 1.374 . S
C554 C551 1.499 . S
C554 C555 1.373 1_554 S
C554 C556 1.389 . S
C555 H528 0.950 . S
C555 C541 1.377 . S
C555 C554 1.373 1_556 S
C556 C540 1.377 . S
C556 C554 1.389 . S
C556 C557 1.524 . S
C557 C556 1.524 . S
C557 C558 1.397 . S
C557 C562 1.363 . S
C558 H529 0.950 . S
C558 C557 1.397 . S
C558 C559 1.334 . S
C559 H530 0.950 . S
C559 C558 1.334 . S
C559 C560 1.287 . S
C560 C559 1.287 . S
C560 C561 1.524 . S
C560 H563 0.999 . S
C561 H531 0.950 . S
C561 C560 1.524 . S
C561 C562 1.415 . S
C562 H532 0.950 . S
C562 C557 1.363 . S
C562 C561 1.415 . S
H563 C560 0.999 . S
H564 C545 0.913 . S
H565 C583 0.951 . S
H566 C585 0.951 . S
H567 C587 0.950 . S
H568 C588 0.950 . S
H569 C590 0.950 1_556 S
H570 C593 0.950 . S
H571 C594 0.950 . S
H572 C596 0.950 . S
H573 C597 0.950 . S
H574 C598 0.951 . S
H575 C600 0.951 . S
H576 C602 0.950 1_556 S
H577 C603 0.950 1_556 S
H578 C605 0.950 . S
H579 C608 0.950 . S
H580 C609 0.950 . S
H581 C611 0.950 . S
H582 C612 0.950 1_554 S
C583 H565 0.951 . S
C583 C584 1.366 . S
C583 C585 1.388 . S
C584 C583 1.366 . S
C584 C588 1.385 . S
C585 H566 0.951 . S
C585 C583 1.388 . S
C585 C586 1.366 . S
C586 C585 1.366 . S
C586 C587 1.414 . S
C586 C589 1.499 . S
C587 H567 0.950 . S
C587 C586 1.414 . S
C587 C588 1.374 . S
C588 H568 0.950 . S
C588 C584 1.385 . S
C588 C587 1.374 . S
C589 C586 1.499 . S
C589 C590 1.373 . S
C589 C591 1.389 . S
C590 H569 0.950 1_554 S
C590 C589 1.373 . S
C590 C606 1.377 . S
C591 C589 1.389 . S
C591 C592 1.524 . S
C591 C605 1.377 . S
C592 C591 1.524 . S
C592 C593 1.397 . S
C592 C597 1.363 . S
C593 H570 0.950 . S
C593 C592 1.397 . S
C593 C594 1.334 . S
C594 H571 0.950 . S
C594 C593 1.334 . S
C594 C595 1.287 . S
C595 C594 1.287 . S
C595 C596 1.524 . S
C595 H614 0.913 . S
C596 H572 0.950 . S
C596 C595 1.524 . S
C596 C597 1.415 . S
C597 H573 0.950 . S
C597 C592 1.363 . S
C597 C596 1.415 . S
C598 H574 0.951 . S
C598 C599 1.366 . S
C598 C600 1.388 . S
C599 C598 1.366 . S
C599 C603 1.385 . S
C600 H575 0.951 . S
C600 C598 1.388 . S
C600 C601 1.366 . S
C601 C600 1.366 . S
C601 C602 1.414 . S
C601 C604 1.499 . S
C602 H576 0.950 1_554 S
C602 C601 1.414 . S
C602 C603 1.374 . S
C603 H577 0.950 1_554 S
C603 C599 1.385 . S
C603 C602 1.374 . S
C604 C601 1.499 . S
C604 C605 1.373 . S
C604 C606 1.389 . S
C605 H578 0.950 . S
C605 C591 1.377 . S
C605 C604 1.373 . S
C606 C590 1.377 . S
C606 C604 1.389 . S
C606 C607 1.524 1_554 S
C607 C606 1.524 1_556 S
C607 C608 1.397 . S
C607 C612 1.363 . S
C608 H579 0.950 . S
C608 C607 1.397 . S
C608 C609 1.334 . S
C609 H580 0.950 . S
C609 C608 1.334 . S
C609 C610 1.287 . S
C610 C609 1.287 . S
C610 C611 1.524 . S
C610 H613 0.999 . S
C611 H581 0.950 . S
C611 C610 1.524 . S
C611 C612 1.415 . S
C612 H582 0.950 1_556 S
C612 C607 1.363 . S
C612 C611 1.415 . S
H613 C610 0.999 . S
H614 C595 0.913 . S
H615 C633 0.951 . S
H616 C635 0.951 . S
H617 C637 0.950 . S
H618 C638 0.950 . S
H619 C640 0.950 . S
H620 C643 0.950 . S
H621 C644 0.950 . S
H622 C646 0.950 . S
H623 C647 0.950 . S
H624 C648 0.951 . S
H625 C650 0.951 . S
H626 C652 0.950 . S
H627 C653 0.950 . S
H628 C655 0.950 . S
H629 C658 0.950 . S
H630 C659 0.950 . S
H631 C661 0.950 . S
H632 C662 0.950 . S
C633 H615 0.951 . S
C633 C634 1.366 . S
C633 C635 1.388 . S
C634 C633 1.366 . S
C634 C638 1.385 . S
C635 H616 0.951 . S
C635 C633 1.388 . S
C635 C636 1.366 . S
C636 C635 1.366 . S
C636 C637 1.414 . S
C636 C639 1.499 . S
C637 H617 0.950 . S
C637 C636 1.414 . S
C637 C638 1.374 . S
C638 H618 0.950 . S
C638 C634 1.385 . S
C638 C637 1.374 . S
C639 C636 1.499 . S
C639 C640 1.373 1_554 S
C639 C641 1.389 . S
C640 H619 0.950 . S
C640 C639 1.373 1_556 S
C640 C656 1.377 . S
C641 C639 1.389 . S
C641 C642 1.524 . S
C641 C655 1.377 . S
C642 C641 1.524 . S
C642 C643 1.397 . S
C642 C647 1.363 . S
C643 H620 0.950 . S
C643 C642 1.397 . S
C643 C644 1.334 . S
C644 H621 0.950 . S
C644 C643 1.334 . S
C644 C645 1.287 . S
C645 C644 1.287 . S
C645 C646 1.524 . S
C645 H664 0.913 . S
C646 H622 0.950 . S
C646 C645 1.524 . S
C646 C647 1.415 . S
C647 H623 0.950 . S
C647 C642 1.363 . S
C647 C646 1.415 . S
C648 H624 0.951 . S
C648 C649 1.366 . S
C648 C650 1.388 . S
C649 C648 1.366 . S
C649 C653 1.385 . S
C650 H625 0.951 . S
C650 C648 1.388 . S
C650 C651 1.366 . S
C651 C650 1.366 . S
C651 C652 1.414 . S
C651 C654 1.499 . S
C652 H626 0.950 . S
C652 C651 1.414 . S
C652 C653 1.374 . S
C653 H627 0.950 . S
C653 C649 1.385 . S
C653 C652 1.374 . S
C654 C651 1.499 . S
C654 C655 1.373 . S
C654 C656 1.389 1_554 S
C655 H628 0.950 . S
C655 C641 1.377 . S
C655 C654 1.373 . S
C656 C640 1.377 . S
C656 C654 1.389 1_556 S
C656 C657 1.524 . S
C657 C656 1.524 . S
C657 C658 1.397 . S
C657 C662 1.363 . S
C658 H629 0.950 . S
C658 C657 1.397 . S
C658 C659 1.334 . S
C659 H630 0.950 . S
C659 C658 1.334 . S
C659 C660 1.287 . S
C660 C659 1.287 . S
C660 C661 1.524 . S
C660 H663 0.999 . S
C661 H631 0.950 . S
C661 C660 1.524 . S
C661 C662 1.415 . S
C662 H632 0.950 . S
C662 C657 1.363 . S
C662 C661 1.415 . S
H663 C660 0.999 . S
H664 C645 0.913 . S
H665 C683 0.951 . S
H666 C685 0.951 . S
H667 C687 0.950 . S
H668 C688 0.950 . S
H669 C690 0.950 . S
H670 C693 0.950 . S
H671 C694 0.950 . S
H672 C696 0.950 . S
H673 C697 0.950 . S
H674 C698 0.951 . S
H675 C700 0.951 . S
H676 C702 0.950 . S
H677 C703 0.950 . S
H678 C705 0.950 . S
H679 C708 0.950 . S
H680 C709 0.950 . S
H681 C711 0.950 . S
H682 C712 0.950 . S
C683 H665 0.951 . S
C683 C684 1.366 . S
C683 C685 1.388 . S
C684 C683 1.366 . S
C684 C688 1.385 . S
C685 H666 0.951 . S
C685 C683 1.388 . S
C685 C686 1.366 . S
C686 C685 1.366 . S
C686 C687 1.414 . S
C686 C689 1.499 . S
C687 H667 0.950 . S
C687 C686 1.414 . S
C687 C688 1.374 . S
C688 H668 0.950 . S
C688 C684 1.385 . S
C688 C687 1.374 . S
C689 C686 1.499 . S
C689 C690 1.373 1_554 S
C689 C691 1.389 . S
C690 H669 0.950 . S
C690 C689 1.373 1_556 S
C690 C706 1.377 . S
C691 C689 1.389 . S
C691 C692 1.524 . S
C691 C705 1.377 . S
C692 C691 1.524 . S
C692 C693 1.397 . S
C692 C697 1.363 . S
C693 H670 0.950 . S
C693 C692 1.397 . S
C693 C694 1.334 . S
C694 H671 0.950 . S
C694 C693 1.334 . S
C694 C695 1.287 . S
C695 C694 1.287 . S
C695 C696 1.524 . S
C695 H714 0.913 . S
C696 H672 0.950 . S
C696 C695 1.524 . S
C696 C697 1.415 . S
C697 H673 0.950 . S
C697 C692 1.363 . S
C697 C696 1.415 . S
C698 H674 0.951 . S
C698 C699 1.366 . S
C698 C700 1.388 . S
C699 C698 1.366 . S
C699 C703 1.385 . S
C700 H675 0.951 . S
C700 C698 1.388 . S
C700 C701 1.366 . S
C701 C700 1.366 . S
C701 C702 1.414 . S
C701 C704 1.499 . S
C702 H676 0.950 . S
C702 C701 1.414 . S
C702 C703 1.374 . S
C703 H677 0.950 . S
C703 C699 1.385 . S
C703 C702 1.374 . S
C704 C701 1.499 . S
C704 C705 1.373 . S
C704 C706 1.389 1_554 S
C705 H678 0.950 . S
C705 C691 1.377 . S
C705 C704 1.373 . S
C706 C690 1.377 . S
C706 C704 1.389 1_556 S
C706 C707 1.524 . S
C707 C706 1.524 . S
C707 C708 1.397 . S
C707 C712 1.363 . S
C708 H679 0.950 . S
C708 C707 1.397 . S
C708 C709 1.334 . S
C709 H680 0.950 . S
C709 C708 1.334 . S
C709 C710 1.287 . S
C710 C709 1.287 . S
C710 C711 1.524 . S
C710 H713 0.999 . S
C711 H681 0.950 . S
C711 C710 1.524 . S
C711 C712 1.415 . S
C712 H682 0.950 . S
C712 C707 1.363 . S
C712 C711 1.415 . S
H713 C710 0.999 . S
H714 C695 0.913 . S
C149 C99 1.241 . S
C134 C9 1.280 . S
C199 C95 1.686 1_545 S
C184 C38 1.722 1_565 S
C249 C105 1.255 1_655 S
C234 C17 1.281 1_455 S
C299 C89 1.670 1_565 S
C284 C30 1.726 . S
C334 C19 1.402 . S
C349 C81 1.348 . S
C399 C113 1.801 . S
C384 C33 1.847 1_565 S
C434 C12 1.408 1_455 S
C449 C67 1.371 . S
C484 C40 1.851 . S
C499 C111 1.778 . S
C534 C59 1.409 . S
C549 C93 1.428 . S
C584 C61 1.418 . S
C599 C108 1.403 . S
C649 C102 1.413 . S
C634 C51 1.420 . S
C699 C97 1.424 . S
C684 C54 1.397 . S
