# Generated by pormake.
# Topology zzz, (3,6)-cn, num edge types: 1
# Building blocks:
#     Node 0, Type 0, BuildingBlock: PAMTOO_clean_linker_0, # of connection points: 3
#     Node 1, Type 0, BuildingBlock: PAMTOO_clean_linker_0, # of connection points: 3
#     Node 2, Type 0, BuildingBlock: PAMTOO_clean_linker_0, # of connection points: 3
#     Node 3, Type 0, BuildingBlock: PAMTOO_clean_linker_0, # of connection points: 3
#     Node 4, Type 0, BuildingBlock: PAMTOO_clean_linker_0, # of connection points: 3
#     Node 5, Type 0, BuildingBlock: PAMTOO_clean_linker_0, # of connection points: 3
#     Node 6, Type 0, BuildingBlock: PAMTOO_clean_linker_0, # of connection points: 3
#     Node 7, Type 0, BuildingBlock: PAMTOO_clean_linker_0, # of connection points: 3
#     Node 8, Type 1, BuildingBlock: PAMTUU_clean_sbu_0, # of connection points: 6
#     Node 9, Type 1, BuildingBlock: PAMTUU_clean_sbu_0, # of connection points: 6
#     Node 10, Type 1, BuildingBlock: PAMTUU_clean_sbu_0, # of connection points: 6
#     Node 11, Type 1, BuildingBlock: PAMTUU_clean_sbu_0, # of connection points: 6
#     Edge 12, Type (0, 1), BuildingBlock: TEMPAE_clean_linker_10, # of connection points: 2
#     Edge 13, Type (0, 1), BuildingBlock: TEMPAE_clean_linker_10, # of connection points: 2
#     Edge 14, Type (0, 1), BuildingBlock: TEMPAE_clean_linker_10, # of connection points: 2
#     Edge 15, Type (0, 1), BuildingBlock: TEMPAE_clean_linker_10, # of connection points: 2
#     Edge 16, Type (0, 1), BuildingBlock: TEMPAE_clean_linker_10, # of connection points: 2
#     Edge 17, Type (0, 1), BuildingBlock: TEMPAE_clean_linker_10, # of connection points: 2
#     Edge 18, Type (0, 1), BuildingBlock: TEMPAE_clean_linker_10, # of connection points: 2
#     Edge 19, Type (0, 1), BuildingBlock: TEMPAE_clean_linker_10, # of connection points: 2
#     Edge 20, Type (0, 1), BuildingBlock: TEMPAE_clean_linker_10, # of connection points: 2
#     Edge 21, Type (0, 1), BuildingBlock: TEMPAE_clean_linker_10, # of connection points: 2
#     Edge 22, Type (0, 1), BuildingBlock: TEMPAE_clean_linker_10, # of connection points: 2
#     Edge 23, Type (0, 1), BuildingBlock: TEMPAE_clean_linker_10, # of connection points: 2
#     Edge 24, Type (0, 1), BuildingBlock: TEMPAE_clean_linker_10, # of connection points: 2
#     Edge 25, Type (0, 1), BuildingBlock: TEMPAE_clean_linker_10, # of connection points: 2
#     Edge 26, Type (0, 1), BuildingBlock: TEMPAE_clean_linker_10, # of connection points: 2
#     Edge 27, Type (0, 1), BuildingBlock: TEMPAE_clean_linker_10, # of connection points: 2
#     Edge 28, Type (0, 1), BuildingBlock: TEMPAE_clean_linker_10, # of connection points: 2
#     Edge 29, Type (0, 1), BuildingBlock: TEMPAE_clean_linker_10, # of connection points: 2
#     Edge 30, Type (0, 1), BuildingBlock: TEMPAE_clean_linker_10, # of connection points: 2
#     Edge 31, Type (0, 1), BuildingBlock: TEMPAE_clean_linker_10, # of connection points: 2
#     Edge 32, Type (0, 1), BuildingBlock: TEMPAE_clean_linker_10, # of connection points: 2
#     Edge 33, Type (0, 1), BuildingBlock: TEMPAE_clean_linker_10, # of connection points: 2
#     Edge 34, Type (0, 1), BuildingBlock: TEMPAE_clean_linker_10, # of connection points: 2
#     Edge 35, Type (0, 1), BuildingBlock: TEMPAE_clean_linker_10, # of connection points: 2
# Relax obj value: 0.212
# Max RMSD: 0.224
# Mean RMSD: 0.119
data_MOF--net-zzz--node1-PAMTUU_clean_sbu_0--node2-PAMTOO_clean_linker_0--edge1-TEMPAE_clean_linker_10
_symmetry_space_group_name_H-M    P1
_symmetry_Int_Tables_number       1
_symmetry_cell_setting            triclinic
loop_
_symmetry_equiv_pos_as_xyz
'x, y, z'
_cell_length_a     50.77088
_cell_length_b     54.911858
_cell_length_c     15.699055
_cell_angle_alpha  101.04875
_cell_angle_beta   90.000716
_cell_angle_gamma 91.055519
loop_
_atom_site_label
_atom_site_type_symbol
_atom_site_fract_x
_atom_site_fract_y
_atom_site_fract_z
_atom_type_partial_charge
H0 H 0.82266 0.56268 0.50675 0.0
H1 H 0.75123 0.5566 0.35605 0.0
H2 H 0.77145 0.49912 0.49498 0.0
H3 H 0.73616 0.48078 0.31806 0.0
C4 C 0.73318 0.50039 0.31207 0.0
O5 O 0.73505 0.51505 0.39467 0.0
H6 H 0.74906 0.50549 0.26939 0.0
C7 C 0.80403 0.55339 0.48673 0.0
C8 C 0.79887 0.53052 0.51061 0.0
C9 C 0.78794 0.56234 0.4271 0.0
C10 C 0.764 0.54989 0.4015 0.0
C11 C 0.7577 0.52727 0.42612 0.0
C12 C 0.77558 0.51714 0.47908 0.0
H13 H 0.03269 0.80338 0.38337 0.0
H14 H 1.00313 0.73239 0.25262 0.0
H15 H 0.98677 0.75762 0.52401 0.0
H16 H 0.97543 0.69286 0.45422 0.0
C17 C 0.98984 0.70028 0.41204 0.0
O18 O 0.97964 0.72139 0.38988 0.0
H19 H 1.00828 0.70483 0.45089 0.0
C20 C 1.02268 0.78595 0.38666 0.0
C21 C 1.01079 0.78265 0.46429 0.0
C22 C 1.02009 0.76805 0.31064 0.0
C23 C 1.00581 0.74608 0.31174 0.0
C24 C 0.99419 0.74221 0.38931 0.0
C25 C 0.99642 0.76056 0.46518 0.0
H26 H 0.72542 0.98157 0.35433 0.0
H27 H 0.80621 0.98638 0.27681 0.0
H28 H 0.78567 0.00385 0.54735 0.0
H29 H 0.83896 0.96618 0.40823 0.0
C30 C 0.84598 0.9859 0.42109 0.0
O31 O 0.82484 1.00194 0.43008 0.0
H32 H 0.85674 0.98871 0.48394 0.0
C33 C 0.74612 0.98429 0.37129 0.0
C34 C 0.75285 0.99231 0.45888 0.0
C35 C 0.76507 0.98215 0.30508 0.0
C36 C 0.79153 0.98713 0.32728 0.0
C37 C 0.79928 0.9945 0.41383 0.0
C38 C 0.77992 0.99696 0.48055 0.0
H39 H 0.53144 0.71157 0.21898 0.0
H40 H 0.53013 0.76477 0.05098 0.0
H41 H 0.55092 0.78812 0.32151 0.0
H42 H 0.51773 0.8247 0.25276 0.0
C43 C 0.52262 0.81969 0.18256 0.0
O44 O 0.54326 0.80324 0.17271 0.0
H45 H 0.50491 0.81067 0.14735 0.0
C46 C 0.53358 0.73064 0.20992 0.0
C47 C 0.54134 0.74907 0.27993 0.0
C48 C 0.52969 0.73599 0.1276 0.0
C49 C 0.53295 0.76049 0.11488 0.0
C50 C 0.54014 0.77953 0.18523 0.0
C51 C 0.54471 0.77369 0.26781 0.0
H52 H 0.23322 0.45223 0.16279 0.0
H53 H 0.30103 0.4647 0.33036 0.0
H54 H 0.2838 0.5157 0.16218 0.0
H55 H 0.35014 0.51284 0.21675 0.0
C56 C 0.34328 0.49947 0.25726 0.0
O57 O 0.31733 0.50466 0.28115 0.0
H58 H 0.34471 0.48066 0.21569 0.0
C59 C 0.25139 0.46232 0.18315 0.0
C60 C 0.25672 0.48414 0.15193 0.0
C61 C 0.26643 0.45559 0.24985 0.0
C62 C 0.28936 0.4694 0.27822 0.0
C63 C 0.29624 0.49063 0.24537 0.0
C64 C 0.27949 0.49844 0.18352 0.0
H65 H 1.02114 0.20283 0.28631 0.0
H66 H 0.0315 0.27893 0.41361 0.0
H67 H 0.05293 0.25625 0.14457 0.0
H68 H 0.08292 0.3109 0.2451 0.0
C69 C 0.07285 0.30572 0.30201 0.0
O70 O 0.04902 0.2942 0.27501 0.0
H71 H 0.08593 0.29288 0.32867 0.0
C72 C 0.02698 0.2218 0.28368 0.0
C73 C 0.03691 0.22729 0.20637 0.0
C74 C 1.02513 0.24013 0.35848 0.0
C75 C 0.03306 0.26454 0.35613 0.0
C76 C 0.04298 0.27037 0.27872 0.0
C77 C 0.0453 0.25167 0.2041 0.0
H78 H 0.32928 0.97074 0.251 0.0
H79 H 0.25537 0.97831 0.38521 0.0
H80 H 0.26706 0.01183 0.16083 0.0
H81 H 0.22137 0.03927 0.31007 0.0
C82 C 0.22448 0.0236 0.34428 0.0
O83 O 0.23252 1.0033 0.28316 0.0
H84 H 0.24016 0.02963 0.39384 0.0
C85 C 0.30943 0.97785 0.25698 0.0
C86 C 0.30047 0.99157 0.19641 0.0
C87 C 0.29364 0.97337 0.32588 0.0
C88 C 0.26778 0.98183 0.33262 0.0
C89 C 0.25802 0.99581 0.27418 0.0
C90 C 0.27456 1.0011 0.20635 0.0
H91 H 0.5246 0.31283 0.46605 0.0
H92 H 0.53278 0.2564 0.61919 0.0
H93 H 0.50569 0.23682 0.3535 0.0
H94 H 0.47958 0.20795 0.47576 0.0
C95 C 0.49554 0.20886 0.5249 0.0
O96 O 0.51786 0.2193 0.49469 0.0
H97 H 0.48886 0.22075 0.58632 0.0
C98 C 0.52331 0.29341 0.47154 0.0
C99 C 0.51466 0.27579 0.40048 0.0
C100 C 0.52968 0.28673 0.55025 0.0
C101 C 0.52787 0.26173 0.55823 0.0
C102 C 0.51926 0.24355 0.48713 0.0
C103 C 0.51247 0.25068 0.40811 0.0
Tb104 Tb 1.0076 0.01087 0.78722 0.0
Tb105 Tb 0.04922 0.99686 0.92778 0.0
C106 C 0.98885 1.00023 0.96999 0.0
C107 C 0.98007 0.05036 0.65072 0.0
C108 C 0.9881 0.09795 0.61235 0.0
C109 C 0.96334 0.09086 0.64033 0.0
C110 C 0.95933 0.06718 0.65895 0.0
C111 C 1.0047 0.05729 0.62109 0.0
C112 C 1.0086 0.08082 0.60138 0.0
C113 C 0.97711 0.02767 0.68699 0.0
O114 O 0.0318 0.04366 0.83191 0.0
O115 O 0.04257 0.03661 0.96621 0.0
O116 O 0.07358 0.00932 0.82864 0.0
O117 O 0.04431 1.00141 0.71518 0.0
O118 O 0.06019 0.99687 0.05701 0.0
O119 O 0.08494 0.98052 0.95065 0.0
O120 O 0.03881 0.96212 0.84118 0.0
O121 O 1.00014 0.97149 0.77849 0.0
O122 O 0.98642 0.01412 0.91096 0.0
O123 O 1.01042 0.98771 0.97436 0.0
C124 C 0.0392 0.05189 0.91222 0.0
O125 O 0.99354 0.00984 0.66033 0.0
O126 O 0.97455 0.03183 0.7709 0.0
C127 C 0.06861 0.00559 0.74474 0.0
C128 C 0.07798 0.9579 0.05964 0.0
C129 C 0.07565 0.90905 0.08885 0.0
C130 C 0.09805 0.9241 0.11431 0.0
C131 C 0.09932 0.94843 0.0989 0.0
C132 C 0.05533 0.94302 0.0373 0.0
C133 C 0.05421 0.9188 0.05147 0.0
C134 C 0.07971 0.98202 0.03269 0.0
C135 C 1.01707 0.95541 0.79676 0.0
H136 H 0.94719 0.10371 0.64849 0.0
H137 H 0.94033 0.06234 0.68312 0.0
H138 H 1.02124 0.04491 0.61621 0.0
H139 H 0.02791 0.08595 0.58042 0.0
H140 H 0.11467 0.91685 0.14415 0.0
H141 H 0.11703 0.95961 0.11591 0.0
H142 H 0.03866 0.94997 0.00691 0.0
H143 H 0.03657 0.90762 0.03321 0.0
Tb144 Tb 0.51233 0.98927 0.7278 0.0
Tb145 Tb 0.53112 0.02688 0.90064 0.0
C146 C 0.52865 0.97016 0.89452 0.0
C147 C 0.47415 0.93931 0.59646 0.0
C148 C 0.42596 0.91287 0.591 0.0
C149 C 0.4397 0.92 0.66985 0.0
C150 C 0.46351 0.93329 0.67263 0.0
C151 C 0.46183 0.93037 0.51687 0.0
C152 C 0.43797 0.91724 0.514 0.0
C153 C 0.49598 0.95735 0.60138 0.0
O154 O 0.47531 1.00162 0.79479 0.0
O155 O 0.49115 0.01624 0.93255 0.0
O156 O 0.5087 0.04723 0.81994 0.0
O157 O 0.52049 0.02489 0.68945 0.0
O158 O 0.5387 0.03603 0.03463 0.0
O159 O 0.54263 0.0635 0.95383 0.0
O160 O 0.56663 0.0233 0.81917 0.0
O161 O 0.55543 0.98859 0.71828 0.0
O162 O 0.51054 0.96935 0.83465 0.0
O163 O 0.54373 0.99007 0.91646 0.0
C164 C 0.47136 0.00886 0.87897 0.0
O165 O 0.48898 0.98054 0.61537 0.0
O166 O 0.51572 0.95385 0.65045 0.0
C167 C 0.51333 0.04601 0.73717 0.0
C168 C 0.57611 0.06208 0.05621 0.0
C169 C 0.62959 0.05384 0.08146 0.0
C170 C 0.6217 0.0644 0.01133 0.0
C171 C 0.59514 0.0685 0.99865 0.0
C172 C 0.58438 0.05451 0.13206 0.0
C173 C 0.61096 0.05029 0.14447 0.0
C174 C 0.5485 0.05774 0.02823 0.0
C175 C 0.57306 0.0053 0.7546 0.0
H176 H 0.43125 0.91674 0.73011 0.0
H177 H 0.47283 0.94007 0.73492 0.0
H178 H 0.46975 0.93491 0.45761 0.0
H179 H 0.42796 0.9125 0.45199 0.0
H180 H 0.63582 0.06788 0.96316 0.0
H181 H 0.58947 0.0747 0.93992 0.0
H182 H 0.5701 0.04958 0.17749 0.0
H183 H 0.6165 0.04215 0.19935 0.0
Tb184 Tb 0.50838 0.50205 0.90522 0.0
Tb185 Tb 0.5475 0.51908 0.75818 0.0
C186 C 0.48713 0.50657 0.71918 0.0
C187 C 0.48159 0.46115 0.04451 0.0
C188 C 0.48483 0.41565 0.10372 0.0
C189 C 0.47188 0.43609 0.15331 0.0
C190 C 0.47026 0.4586 0.12389 0.0
C191 C 0.49465 0.44086 0.99522 0.0
C192 C 0.49619 0.41839 0.02428 0.0
C193 C 0.48005 0.48484 0.01312 0.0
O194 O 0.52114 0.46835 0.82097 0.0
O195 O 0.55778 0.48043 0.75046 0.0
O196 O 0.57023 0.52375 0.87951 0.0
O197 O 0.54821 0.49662 0.9494 0.0
O198 O 0.55868 0.52128 0.63032 0.0
O199 O 0.57907 0.54278 0.74053 0.0
O200 O 0.52061 0.54874 0.80344 0.0
O201 O 0.51319 0.54246 0.94095 0.0
O202 O 0.48245 0.51082 0.80342 0.0
O203 O 0.51142 0.50421 0.68941 0.0
C204 C 0.54273 0.46334 0.77541 0.0
O205 O 0.49946 0.50066 0.03549 0.0
O206 O 0.47409 0.48285 0.93129 0.0
C207 C 0.5692 0.51019 0.94017 0.0
C208 C 0.57183 0.56303 0.6241 0.0
C209 C 0.56473 0.60954 0.5751 0.0
C210 C 0.58752 0.60503 0.62004 0.0
C211 C 0.59107 0.582 0.64378 0.0
C212 C 0.54899 0.56749 0.57915 0.0
C213 C 0.54558 0.59045 0.55441 0.0
C214 C 0.57511 0.53971 0.6573 0.0
C215 C 0.51475 0.55731 0.88451 0.0
H216 H 0.46274 0.43461 0.2145 0.0
H217 H 0.46015 0.474 0.16309 0.0
H218 H 0.50371 0.44236 0.93405 0.0
H219 H 0.50667 0.40326 0.98503 0.0
H220 H 0.60274 0.61925 0.63609 0.0
H221 H 0.60876 0.57913 0.6789 0.0
H222 H 0.53357 0.55342 0.56412 0.0
H223 H 0.52772 0.59344 0.52038 0.0
Tb224 Tb 0.03944 0.52402 0.75299 0.0
Tb225 Tb 1.0175 0.49492 0.90021 0.0
C226 C 1.01731 0.55286 0.92745 0.0
C227 C 0.08088 0.52794 0.57743 0.0
C228 C 0.11529 0.4917 0.4925 0.0
C229 C 0.09417 0.49938 0.44693 0.0
C230 C 0.07688 0.51725 0.48949 0.0
C231 C 0.10319 0.52135 0.62047 0.0
C232 C 0.12003 0.50325 0.57872 0.0
C233 C 0.05909 0.54048 0.62923 0.0
O234 O 0.07511 0.51121 0.80826 0.0
O235 O 0.05851 0.50451 0.93766 0.0
O236 O 0.03796 0.46587 0.81407 0.0
O237 O 0.03778 0.48469 0.69556 0.0
O238 O 1.01682 0.4941 0.03313 0.0
O239 O 0.99288 0.46837 0.94253 0.0
O240 O 0.9858 0.49304 0.80372 0.0
O241 O 0.99658 0.52765 0.74928 0.0
O242 O 0.03554 0.55279 0.86829 0.0
O243 O 1.00374 0.53269 0.93235 0.0
C244 C 0.07867 0.50752 0.88781 0.0
O245 O 0.03714 0.52756 0.62224 0.0
O246 O 0.06451 0.5501 0.71016 0.0
C247 C 0.04136 0.46517 0.73082 0.0
C248 C 0.97287 0.49091 0.0682 0.0
C249 C 0.93603 0.52473 0.1532 0.0
C250 C 0.93589 0.51798 0.06246 0.0
C251 C 0.95411 0.50126 0.02039 0.0
C252 C 0.9725 0.49694 0.15908 0.0
C253 C 0.9541 0.51367 0.20141 0.0
C254 C 0.99618 0.47939 0.0234 0.0
C255 C 0.97925 0.51046 0.76088 0.0
H256 H 0.09056 0.49091 0.37967 0.0
H257 H 0.05964 0.52173 0.45526 0.0
H258 H 0.10693 0.52915 0.68809 0.0
H259 H 0.13671 0.49811 0.61416 0.0
H260 H 0.92182 0.52582 0.02384 0.0
H261 H 0.95432 0.49743 0.95013 0.0
H262 H 0.98727 0.48975 0.19699 0.0
H263 H 0.95455 0.51859 0.2716 0.0
C264 C 0.19424 0.99556 0.41717 0.0
C265 C 0.19931 0.01847 0.39241 0.0
C266 C 0.17256 0.99214 0.47078 0.0
C267 C 0.15562 0.01219 0.50206 0.0
C268 C 0.1606 0.03528 0.47666 0.0
C269 C 0.18229 0.03812 0.42291 0.0
C270 C 0.16814 0.96718 0.49563 0.0
C271 C 0.14342 0.0573 0.50834 0.0
C272 C 0.08675 1.00125 0.59188 0.0
C273 C 0.09091 0.00671 0.68223 0.0
C274 C 0.10757 1.00246 0.53278 0.0
C275 C 0.13338 0.00949 0.56401 0.0
C276 C 0.13773 0.01489 0.65507 0.0
C277 C 0.11662 0.01337 0.71264 0.0
C278 C 0.10186 0.9964 0.43662 0.0
C279 C 0.16471 0.02264 0.69199 0.0
H280 H 0.20744 0.98035 0.39576 0.0
H281 H 0.18633 0.05607 0.4061 0.0
H282 H 0.17055 0.96895 0.5668 0.0
H283 H 0.1477 0.96039 0.47915 0.0
H284 H 0.18207 0.95309 0.46255 0.0
H285 H 0.14921 0.0737 0.48025 0.0
H286 H 0.12252 0.05242 0.49146 0.0
H287 H 0.14469 0.06252 0.58011 0.0
H288 H 0.06712 0.99602 0.567 0.0
H289 H 0.12029 0.01767 0.78194 0.0
H290 H 0.11498 0.98148 0.40445 0.0
H291 H 0.10601 0.01294 0.40748 0.0
H292 H 0.08107 0.99033 0.42231 0.0
H293 H 0.17924 0.00827 0.66611 0.0
H294 H 0.1651 0.02567 0.76401 0.0
H295 H 0.1712 0.04007 0.67172 0.0
C296 C 0.52343 0.17814 0.58648 0.0
C297 C 0.50054 0.18311 0.54319 0.0
C298 C 0.52663 0.15515 0.61248 0.0
C299 C 0.50622 0.13681 0.5966 0.0
C300 C 0.48321 0.14169 0.55208 0.0
C301 C 0.48064 0.16472 0.52629 0.0
C302 C 0.55152 0.15078 0.65945 0.0
C303 C 0.4608 0.12292 0.53452 0.0
C304 C 0.51984 0.06956 0.61504 0.0
C305 C 0.5109 0.06884 0.69924 0.0
C306 C 0.51864 0.09152 0.58091 0.0
C307 C 0.50806 0.1133 0.63173 0.0
C308 C 0.4988 0.11257 0.71638 0.0
C309 C 0.50043 0.09049 0.74904 0.0
C310 C 0.52887 0.09147 0.49063 0.0
C311 C 0.48713 0.13517 0.77277 0.0
H312 H 0.53862 0.19245 0.60162 0.0
H313 H 0.46265 0.16862 0.49465 0.0
H314 H 0.54681 0.14935 0.72733 0.0
H315 H 0.56035 0.13297 0.62809 0.0
H316 H 0.56638 0.16595 0.66059 0.0
H317 H 0.44494 0.12889 0.49475 0.0
H318 H 0.46814 0.10475 0.50036 0.0
H319 H 0.45221 0.12004 0.5969 0.0
H320 H 0.52812 0.05305 0.57609 0.0
H321 H 0.49344 0.09025 0.81411 0.0
H322 H 0.54478 0.10572 0.49307 0.0
H323 H 0.51289 0.09641 0.44919 0.0
H324 H 0.53669 0.07315 0.45955 0.0
H325 H 0.50183 0.15066 0.78361 0.0
H326 H 0.48066 0.13156 0.83687 0.0
H327 H 0.46994 0.14142 0.73955 0.0
C328 C 0.37422 0.52361 0.37259 0.0
C329 C 0.36141 0.50115 0.33603 0.0
C330 C 0.39348 0.5248 0.43837 0.0
C331 C 0.40019 0.50302 0.46919 0.0
C332 C 0.38646 0.4805 0.43495 0.0
C333 C 0.36725 0.47987 0.36931 0.0
C334 C 0.4073 0.54926 0.47285 0.0
C335 C 0.3927 0.45682 0.46552 0.0
C336 C 0.46932 0.50011 0.56567 0.0
C337 C 0.46468 0.50522 0.65567 0.0
C338 C 0.44863 0.49918 0.50489 0.0
C339 C 0.42236 0.50356 0.53392 0.0
C340 C 0.41748 0.50862 0.6246 0.0
C341 C 0.43857 0.50936 0.68406 0.0
C342 C 0.45496 0.49359 0.4092 0.0
C343 C 0.38993 0.51342 0.65896 0.0
H344 H 0.36975 0.54016 0.34759 0.0
H345 H 0.35737 0.46248 0.34179 0.0
H346 H 0.40608 0.55372 0.5447 0.0
H347 H 0.4285 0.54794 0.45566 0.0
H348 H 0.39881 0.56478 0.44636 0.0
H349 H 0.37917 0.44126 0.43701 0.0
H350 H 0.41319 0.45141 0.44731 0.0
H351 H 0.39144 0.45969 0.53728 0.0
H352 H 0.48927 0.49684 0.54226 0.0
H353 H 0.43455 0.51335 0.75307 0.0
H354 H 0.44887 0.50923 0.37864 0.0
H355 H 0.44372 0.47685 0.37674 0.0
H356 H 0.47628 0.4904 0.3968 0.0
H357 H 0.38191 0.5298 0.63675 0.0
H358 H 0.38923 0.51678 0.73098 0.0
H359 H 0.3768 0.49734 0.63288 0.0
C360 C 0.08945 0.33864 0.42587 0.0
C361 C 0.06873 0.32896 0.36971 0.0
C362 C 0.08664 0.36074 0.48711 0.0
C363 C 0.06246 0.37338 0.49256 0.0
C364 C 0.04156 0.36383 0.43542 0.0
C365 C 0.04505 0.34195 0.37396 0.0
C366 C 0.10953 0.37052 0.54598 0.0
C367 C 1.01551 0.37683 0.43881 0.0
C368 C 0.04395 0.41871 0.6979 0.0
C369 C 0.04848 0.44161 0.67298 0.0
C370 C 0.04897 0.39632 0.64048 0.0
C371 C 0.05903 0.39688 0.55667 0.0
C372 C 0.06458 0.41998 0.53248 0.0
C373 C 0.05916 0.44204 0.59075 0.0
C374 C 0.04275 0.37204 0.66847 0.0
C375 C 0.0758 0.4214 0.4444 0.0
H376 H 0.10795 0.32893 0.42146 0.0
H377 H 0.02916 0.33502 0.32932 0.0
H378 H 0.11335 0.39043 0.54526 0.0
H379 H 0.10461 0.36907 0.6137 0.0
H380 H 0.12785 0.36012 0.52706 0.0
H381 H 1.001 0.36664 0.39147 0.0
H382 H 1.00703 0.37894 0.50491 0.0
H383 H 1.01854 0.39575 0.42492 0.0
H384 H 0.03574 0.41826 0.76132 0.0
H385 H 0.06317 0.45968 0.57153 0.0
H386 H 0.06038 0.36019 0.661 0.0
H387 H 0.02705 0.36182 0.6262 0.0
H388 H 0.03607 0.37474 0.73698 0.0
H389 H 0.09464 0.41132 0.43469 0.0
H390 H 0.07943 0.44083 0.43624 0.0
H391 H 0.06204 0.41225 0.39266 0.0
C392 C 0.88457 0.00906 0.36624 0.0
C393 C 0.86496 0.99036 0.34954 0.0
C394 C 0.90403 0.01165 0.3039 0.0
C395 C 0.90398 0.99525 0.22205 0.0
C396 C 0.88359 0.97692 0.20383 0.0
C397 C 0.86442 0.97473 0.26743 0.0
C398 C 0.92513 0.03155 0.32671 0.0
C399 C 0.88244 0.95908 0.11783 0.0
C400 C 0.94386 0.01259 0.03291 0.0
C401 C 0.96698 0.99889 0.03392 0.0
C402 C 0.92335 0.01164 0.09332 0.0
C403 C 0.92573 0.99661 0.157 0.0
C404 C 0.94898 0.9827 0.15822 0.0
C405 C 0.96918 0.984 0.09715 0.0
C406 C 0.89907 0.02681 0.08902 0.0
C407 C 0.95258 0.96636 0.22433 0.0
H408 H 0.88512 0.02125 0.42933 0.0
H409 H 0.84936 0.96026 0.25375 0.0
H410 H 0.94465 0.02284 0.3276 0.0
H411 H 0.92593 0.04334 0.2767 0.0
H412 H 0.92179 0.04359 0.39105 0.0
H413 H 0.86464 0.94678 0.11165 0.0
H414 H 0.88252 0.96944 0.06372 0.0
H415 H 0.90016 0.94734 0.11042 0.0
H416 H 0.94176 0.0242 0.98482 0.0
H417 H 0.9868 0.97328 0.09918 0.0
H418 H 0.89644 0.03992 0.15149 0.0
H419 H 0.88134 0.01447 0.0789 0.0
H420 H 0.9001 0.03756 0.03591 0.0
H421 H 0.95151 0.97767 0.29083 0.0
H422 H 0.97171 0.95669 0.21701 0.0
H423 H 0.93643 0.95223 0.21798 0.0
C424 C 0.5424 0.84174 0.06793 0.0
C425 C 0.52914 0.84297 0.14706 0.0
C426 C 0.54526 0.86284 0.02942 0.0
C427 C 0.53406 0.88564 0.0698 0.0
C428 C 0.52111 0.88705 0.15053 0.0
C429 C 0.51877 0.86576 0.18785 0.0
C430 C 0.55933 0.86046 0.94364 0.0
C431 C 0.50853 0.91076 0.19559 0.0
C432 C 0.55168 0.94662 0.99604 0.0
C433 C 0.53073 0.94862 0.9395 0.0
C434 C 0.55335 0.92609 0.0379 0.0
C435 C 0.53345 0.90722 0.02381 0.0
C436 C 0.5123 0.90924 0.96688 0.0
C437 C 0.51128 0.92971 0.92538 0.0
C438 C 0.57635 0.92458 0.09737 0.0
C439 C 0.49044 0.88985 0.95042 0.0
H440 H 0.54995 0.82409 0.03498 0.0
H441 H 0.50799 0.86674 0.248 0.0
H442 H 0.54495 0.86203 0.89186 0.0
H443 H 0.57411 0.87572 0.94614 0.0
H444 H 0.56942 0.84243 0.92545 0.0
H445 H 0.50107 0.90943 0.26111 0.0
H446 H 0.52286 0.9265 0.20213 0.0
H447 H 0.49179 0.91513 0.15595 0.0
H448 H 0.56686 0.96102 0.00728 0.0
H449 H 0.49491 0.93099 0.88227 0.0
H450 H 0.58676 0.90689 0.07573 0.0
H451 H 0.56918 0.92467 0.16416 0.0
H452 H 0.59065 0.94025 0.09939 0.0
H453 H 0.4987 0.87137 0.92423 0.0
H454 H 0.47546 0.89403 0.90393 0.0
H455 H 0.48046 0.88857 0.01234 0.0
C456 C 0.69896 0.4833 0.19832 0.0
C457 C 0.70684 0.50248 0.26676 0.0
C458 C 0.6763 0.48507 0.1481 0.0
C459 C 0.66077 0.50664 0.16601 0.0
C460 C 0.66851 0.52611 0.2354 0.0
C461 C 0.69157 0.52396 0.28406 0.0
C462 C 0.66928 0.46395 0.07441 0.0
C463 C 0.65258 0.54937 0.25757 0.0
C464 C 0.61704 0.51998 0.98105 0.0
C465 C 0.59241 0.51011 0.99962 0.0
C466 C 0.6392 0.51932 0.035 0.0
C467 C 0.63687 0.50885 0.1107 0.0
C468 C 0.61193 0.49934 0.13079 0.0
C469 C 0.59019 0.4999 0.07501 0.0
C470 C 0.66534 0.52935 0.00977 0.0
C471 C 0.60826 0.48829 0.21101 0.0
H472 H 0.71096 0.46692 0.18294 0.0
H473 H 0.69774 0.53919 0.33513 0.0
H474 H 0.6491 0.45682 0.08349 0.0
H475 H 0.66937 0.47069 0.01214 0.0
H476 H 0.68318 0.44835 0.06919 0.0
H477 H 0.66036 0.56229 0.31573 0.0
H478 H 0.65263 0.55916 0.20198 0.0
H479 H 0.63177 0.54452 0.26963 0.0
H480 H 0.61918 0.52786 0.92314 0.0
H481 H 0.57134 0.49233 0.09077 0.0
H482 H 0.67987 0.51423 0.99787 0.0
H483 H 0.67315 0.54378 0.06357 0.0
H484 H 0.66385 0.53751 0.95048 0.0
H485 H 0.62046 0.47153 0.20628 0.0
H486 H 0.58739 0.483 0.22049 0.0
H487 H 0.61502 0.50174 0.26926 0.0
C488 C 1.01643 0.66526 0.32939 0.0
C489 C 0.99454 0.68056 0.33247 0.0
C490 C 1.02004 0.64537 0.25983 0.0
C491 C 1.00125 0.64062 0.19168 0.0
C492 C 0.97922 0.65618 0.19398 0.0
C493 C 0.97598 0.67582 0.26485 0.0
C494 C 0.04352 0.62892 0.26073 0.0
C495 C 0.95882 0.65177 0.12244 0.0
C496 C 1.02303 0.59875 0.98247 0.0
C497 C 1.01194 0.5758 0.99153 0.0
C498 C 1.01906 0.6202 0.04587 0.0
C499 C 1.00402 0.61856 0.12065 0.0
C500 C 0.99249 0.59551 0.12953 0.0
C501 C 0.99637 0.57451 0.06457 0.0
C502 C 0.03134 0.64453 0.03363 0.0
C503 C 0.97651 0.59287 0.20857 0.0
H504 H 0.03051 0.66859 0.38247 0.0
H505 H 0.95875 0.68732 0.26798 0.0
H506 H 0.03669 0.60975 0.26325 0.0
H507 H 0.05504 0.62797 0.2002 0.0
H508 H 0.05675 0.63559 0.31705 0.0
H509 H 0.94356 0.66627 0.13173 0.0
H510 H 0.96844 0.65137 0.05873 0.0
H511 H 0.94897 0.63344 0.11978 0.0
H512 H 0.03496 0.59993 0.92611 0.0
H513 H 0.98771 0.55688 0.0724 0.0
H514 H 0.04621 0.65091 0.08523 0.0
H515 H 1.0161 0.65899 0.03965 0.0
H516 H 0.04108 0.64304 0.96951 0.0
H517 H 0.98803 0.59989 0.26858 0.0
H518 H 0.97047 0.57331 0.20829 0.0
H519 H 0.95854 0.60418 0.21148 0.0
C520 C 0.03471 0.22626 0.49546 0.0
C521 C 1.01594 0.23223 0.43793 0.0
C522 C 0.02896 0.20827 0.54567 0.0
C523 C 1.00399 0.19609 0.53694 0.0
C524 C 0.9839 0.20477 0.48845 0.0
C525 C 0.99017 0.22282 0.43924 0.0
C526 C 0.0507 0.2 0.59851 0.0
C527 C 0.9569 0.19259 0.47832 0.0
C528 C 1.00377 0.12627 0.51609 0.0
C529 C 0.99265 0.1232 0.59494 0.0
C530 C 1.00782 0.14997 0.49734 0.0
C531 C 1.0009 0.17116 0.55969 0.0
C532 C 0.9903 0.16818 0.64052 0.0
C533 C 0.98604 0.14415 0.65687 0.0
C534 C 1.01908 0.15225 0.40995 0.0
C535 C 0.98307 0.19026 0.70898 0.0
H536 H 0.0547 0.23344 0.4937 0.0
H537 H 0.97577 0.2274 0.39403 0.0
H538 H 0.04292 0.19528 0.65947 0.0
H539 H 0.05973 0.18309 0.5605 0.0
H540 H 0.06638 0.21454 0.6148 0.0
H541 H 0.94235 0.20433 0.45308 0.0
H542 H 0.95801 0.17464 0.43186 0.0
H543 H 0.94972 0.18861 0.54102 0.0
H544 H 1.00878 0.11003 0.46823 0.0
H545 H 0.97775 0.14171 0.7184 0.0
H546 H 0.03738 0.16382 0.41874 0.0
H547 H 1.00484 0.16161 0.37392 0.0
H548 H 1.02371 0.13394 0.36945 0.0
H549 H 0.99884 0.20478 0.71643 0.0
H550 H 0.97948 0.18503 0.773 0.0
H551 H 0.96488 0.19856 0.6889 0.0
C552 C 0.33075 0.96676 0.42097 0.0
C553 C 0.30504 0.96053 0.39178 0.0
C554 C 0.34387 0.95287 0.47272 0.0
C555 C 0.33055 0.93261 0.49928 0.0
C556 C 0.3037 0.92762 0.47675 0.0
C557 C 0.2913 0.94149 0.42209 0.0
C558 C 0.37251 0.95933 0.49483 0.0
C559 C 0.28809 0.90724 0.50688 0.0
C560 C 0.38606 0.89206 0.51449 0.0
C561 C 0.39737 0.90634 0.58975 0.0
C562 C 0.36053 0.89697 0.48934 0.0
C563 C 0.34621 0.91588 0.54261 0.0
C564 C 0.35469 0.92468 0.62884 0.0
C565 C 0.38065 0.92025 0.65136 0.0
C566 C 0.3511 0.88543 0.39935 0.0
C567 C 0.33838 0.94254 0.69125 0.0
H568 H 0.34104 0.98214 0.40056 0.0
H569 H 0.27122 0.93681 0.40074 0.0
H570 H 0.37505 0.96477 0.56611 0.0
H571 H 0.38497 0.94304 0.47164 0.0
H572 H 0.38 0.97491 0.46518 0.0
H573 H 0.268 0.91374 0.52658 0.0
H574 H 0.28573 0.89126 0.4521 0.0
H575 H 0.29755 0.90081 0.5621 0.0
H576 H 0.39838 0.87988 0.46926 0.0
H577 H 0.38857 0.93057 0.71201 0.0
H578 H 0.35365 0.89905 0.35593 0.0
H579 H 0.32988 0.88038 0.40025 0.0
H580 H 0.3623 0.86856 0.3718 0.0
H581 H 0.34274 0.96178 0.6824 0.0
H582 H 0.34312 0.94146 0.75951 0.0
H583 H 0.31701 0.93866 0.67927 0.0
C584 C 0.5626 0.31664 0.62872 0.0
C585 C 0.53671 0.3072 0.62243 0.0
C586 C 0.56798 0.34152 0.66726 0.0
C587 C 0.54685 0.35727 0.698 0.0
C588 C 0.52105 0.34706 0.69954 0.0
C589 C 0.51635 0.32205 0.66213 0.0
C590 C 0.59587 0.35145 0.66712 0.0
C591 C 0.49787 0.36311 0.73152 0.0
C592 C 0.55324 0.4238 0.82013 0.0
C593 C 0.5496 0.43701 0.75314 0.0
C594 C 0.55426 0.39779 0.80269 0.0
C595 C 0.55073 0.38475 0.71645 0.0
C596 C 0.54816 0.39818 0.64808 0.0
C597 C 0.5479 0.42425 0.6673 0.0
C598 C 0.55784 0.38425 0.87688 0.0
C599 C 0.5438 0.38499 0.55534 0.0
H600 H 0.57826 0.30526 0.59644 0.0
H601 H 0.49627 0.31482 0.65545 0.0
H602 H 0.59835 0.3615 0.61262 0.0
H603 H 0.60034 0.36478 0.7282 0.0
H604 H 0.61039 0.33629 0.65896 0.0
H605 H 0.47975 0.3519 0.7373 0.0
H606 H 0.50225 0.37496 0.79562 0.0
H607 H 0.49388 0.37562 0.6854 0.0
H608 H 0.55435 0.43383 0.88669 0.0
H609 H 0.54458 0.43456 0.61601 0.0
H610 H 0.5625 0.39713 0.9389 0.0
H611 H 0.5739 0.37067 0.86194 0.0
H612 H 0.53959 0.37362 0.8859 0.0
H613 H 0.55945 0.37128 0.5352 0.0
H614 H 0.54357 0.39806 0.50939 0.0
H615 H 0.5247 0.37463 0.55003 0.0
C616 C 0.23583 0.4207 0.26655 0.0
C617 C 0.25332 0.4398 0.30506 0.0
C618 C 0.21125 0.41792 0.30489 0.0
C619 C 0.20497 0.43422 0.38288 0.0
C620 C 0.22546 0.44794 0.43254 0.0
C621 C 0.24981 0.4504 0.3929 0.0
C622 C 0.19064 0.40087 0.255 0.0
C623 C 0.22022 0.46406 0.51988 0.0
C624 C 0.14854 0.47756 0.38013 0.0
C625 C 0.13374 0.47286 0.45011 0.0
C626 C 0.17081 0.46363 0.35291 0.0
C627 C 0.1779 0.44402 0.39552 0.0
C628 C 0.16115 0.43747 0.45987 0.0
C629 C 0.13935 0.45226 0.48735 0.0
C630 C 0.18786 0.47142 0.28347 0.0
C631 C 0.1665 0.41542 0.50133 0.0
H632 H 0.23922 0.41118 0.20043 0.0
H633 H 0.26384 0.46419 0.42555 0.0
H634 H 0.17661 0.39406 0.29979 0.0
H635 H 0.17935 0.41114 0.21317 0.0
H636 H 0.19986 0.38478 0.21251 0.0
H637 H 0.23879 0.47007 0.55585 0.0
H638 H 0.20965 0.48088 0.5105 0.0
H639 H 0.20761 0.45406 0.56008 0.0
H640 H 0.14395 0.49346 0.35143 0.0
H641 H 0.12728 0.44838 0.54036 0.0
H642 H 0.18928 0.45586 0.22723 0.0
H643 H 0.20801 0.4764 0.30896 0.0
H644 H 0.18005 0.48772 0.26006 0.0
H645 H 0.15874 0.39842 0.45801 0.0
H646 H 0.15655 0.41703 0.56515 0.0
H647 H 0.18787 0.41288 0.51038 0.0
C648 C 0.05672 0.77655 0.21646 0.0
C649 C 0.02954 0.77516 0.23017 0.0
C650 C 0.06734 0.79404 0.17087 0.0
C651 C 0.0503 0.8108 0.14139 0.0
C652 C 1.02267 0.80699 0.14455 0.0
C653 C 1.01259 0.78893 0.18842 0.0
C654 C 0.09684 0.79661 0.16409 0.0
C655 C 1.00376 0.82426 0.11308 0.0
C656 C 0.07052 0.87876 0.18634 0.0
C657 C 0.07378 0.88331 0.10248 0.0
C658 C 0.06375 0.85492 0.1997 0.0
C659 C 0.0608 0.83514 0.12718 0.0
C660 C 0.06574 0.83945 0.04253 0.0
C661 C 0.07175 0.86366 0.0311 0.0
C662 C 0.05823 0.85129 0.29115 0.0
C663 C 0.06345 0.81897 0.96355 0.0
H664 H 0.0698 0.76593 0.24933 0.0
H665 H 0.99157 0.78793 0.2 0.0
H666 H 0.10244 0.80144 0.10094 0.0
H667 H 0.10413 0.81179 0.21637 0.0
H668 H 0.1068 0.77925 0.17112 0.0
H669 H 0.98322 0.81679 0.10911 0.0
H670 H 1.0042 0.84243 0.15866 0.0
H671 H 1.00963 0.82764 0.0483 0.0
H672 H 0.07181 0.89415 0.24107 0.0
H673 H 0.07419 0.8674 0.96616 0.0
H674 H 0.07093 0.83662 0.30756 0.0
H675 H 0.03745 0.84511 0.29625 0.0
H676 H 0.06167 0.86855 0.34014 0.0
H677 H 0.06909 0.80079 0.97832 0.0
H678 H 0.07599 0.82306 0.90982 0.0
H679 H 0.04275 0.81738 0.94025 0.0
C680 C 0.73309 0.96672 0.18605 0.0
C681 C 0.75601 0.98052 0.21445 0.0
C682 C 0.71574 0.9752 0.12946 0.0
C683 C 0.72232 0.99729 0.09981 0.0
C684 C 0.74837 0.00679 0.10917 0.0
C685 C 0.76507 0.99849 0.16807 0.0
C686 C 0.68861 0.96344 0.11566 0.0
C687 C 0.75681 0.02875 0.07046 0.0
C688 C 0.66557 0.02774 0.00698 0.0
C689 C 0.6559 0.04294 0.0823 0.0
C690 C 0.68801 0.01346 0.00999 0.0
C691 C 0.70088 0.01443 0.09032 0.0
C692 C 0.69189 0.03073 0.16577 0.0
C693 C 0.66962 0.04492 0.16043 0.0
C694 C 0.69735 0.99712 0.92752 0.0
C695 C 0.70483 0.0323 0.25355 0.0
H696 H 0.72679 0.95182 0.21827 0.0
H697 H 0.78333 0.00866 0.18651 0.0
H698 H 0.67479 0.97415 0.16275 0.0
H699 H 0.68124 0.96371 0.04934 0.0
H700 H 0.68847 0.94397 0.12585 0.0
H701 H 0.77857 0.02961 0.06337 0.0
H702 H 0.74743 0.02791 0.00606 0.0
H703 H 0.75059 0.04609 0.11382 0.0
H704 H 0.65475 0.0259 0.94655 0.0
H705 H 0.66226 0.05686 0.21831 0.0
H706 H 0.70691 0.98009 0.93948 0.0
H707 H 0.71202 0.00768 0.89596 0.0
H708 H 0.68074 0.99162 0.88147 0.0
H709 H 0.70383 0.0139 0.27285 0.0
H710 H 0.69529 0.04595 0.30518 0.0
H711 H 0.7259 0.03774 0.25054 0.0
C712 C 0.54522 0.70038 0.02044 0.0
C713 C 0.52406 0.7147 0.05688 0.0
C714 C 0.54147 0.6753 0.9819 0.0
C715 C 0.51589 0.66443 0.97952 0.0
C716 C 0.4941 0.67953 0.00857 0.0
C717 C 0.4985 0.7045 0.04787 0.0
C718 C 0.56526 0.65994 0.95163 0.0
C719 C 0.46646 0.66882 0.00513 0.0
C720 C 0.50858 0.59908 0.84706 0.0
C721 C 0.51144 0.58451 0.91098 0.0
C722 C 0.50897 0.62509 0.86856 0.0
C723 C 0.51251 0.63693 0.95612 0.0
C724 C 0.5144 0.62236 0.02141 0.0
C725 C 0.5137 0.59631 0.99808 0.0
C726 C 0.5066 0.63985 0.79708 0.0
C727 C 0.51842 0.63429 0.1156 0.0
H728 H 0.56504 0.70817 0.02951 0.0
H729 H 0.48224 0.71546 0.07794 0.0
H730 H 0.56899 0.6471 0.99679 0.0
H731 H 0.56173 0.64844 0.88632 0.0
H732 H 0.58323 0.67163 0.94913 0.0
H733 H 0.45146 0.68357 0.0168 0.0
H734 H 0.46249 0.65665 0.94126 0.0
H735 H 0.46419 0.65728 0.05554 0.0
H736 H 0.50668 0.59016 0.77944 0.0
H737 H 0.51609 0.58523 0.04766 0.0
H738 H 0.52576 0.64909 0.7884 0.0
H739 H 0.49185 0.65462 0.81451 0.0
H740 H 0.50086 0.62798 0.73405 0.0
H741 H 0.53771 0.64432 0.12369 0.0
H742 H 0.51797 0.62046 0.1588 0.0
H743 H 0.50297 0.64814 0.13697 0.0
C744 C 0.81983 0.59627 0.41065 0.0
C745 C 0.80054 0.57878 0.37315 0.0
C746 C 0.84368 0.59832 0.36711 0.0
C747 C 0.8474 0.58301 0.28497 0.0
C748 C 0.82522 0.57143 0.23852 0.0
C749 C 0.80165 0.56964 0.2834 0.0
C750 C 0.86621 0.61318 0.4149 0.0
C751 C 0.82774 0.55671 0.14744 0.0
C752 C 0.91096 0.56417 0.16599 0.0
C753 C 0.91644 0.54242 0.19683 0.0
C754 C 0.88984 0.57917 0.19942 0.0
C755 C 0.87352 0.57176 0.26328 0.0
C756 C 0.88028 0.55071 0.29872 0.0
C757 C 0.90176 0.53646 0.26536 0.0
C758 C 0.88465 0.6021 0.16289 0.0
C759 C 0.864 0.54217 0.36843 0.0
H760 H 0.81835 0.60478 0.47873 0.0
H761 H 0.78621 0.55723 0.2518 0.0
H762 H 0.87733 0.60129 0.45149 0.0
H763 H 0.87997 0.61985 0.36901 0.0
H764 H 0.85888 0.62932 0.46214 0.0
H765 H 0.80819 0.55235 0.11581 0.0
H766 H 0.83989 0.56708 0.10724 0.0
H767 H 0.83765 0.53896 0.14943 0.0
H768 H 0.92281 0.56917 0.11425 0.0
H769 H 0.90608 0.51973 0.28942 0.0
H770 H 0.87131 0.61511 0.2043 0.0
H771 H 0.8757 0.59657 0.09737 0.0
H772 H 0.9035 0.61202 0.15501 0.0
H773 H 0.86374 0.55697 0.42731 0.0
H774 H 0.87182 0.52517 0.3871 0.0
H775 H 0.84342 0.53813 0.34564 0.0
C776 C 0.06315 0.19755 0.10108 0.0
C777 C 0.03858 0.20663 0.13098 0.0
C778 C 0.06531 0.17349 0.05115 0.0
C779 C 0.04235 0.15834 0.03182 0.0
C780 C 1.01731 0.16845 0.05485 0.0
C781 C 1.01576 0.19252 0.10399 0.0
C782 C 0.09229 0.16357 0.02594 0.0
C783 C 0.9923 0.15306 0.03543 0.0
C784 C 0.04145 0.09509 0.88222 0.0
C785 C 0.04272 0.07907 0.94205 0.0
C786 C 0.04241 0.12098 0.90983 0.0
C787 C 0.04449 0.13112 0.99951 0.0
C788 C 0.04655 0.11507 0.05997 0.0
C789 C 0.04579 0.08925 0.03045 0.0
C790 C 0.04027 0.13742 0.84329 0.0
C791 C 0.04845 0.12515 0.15641 0.0
H792 H 0.08081 0.2084 0.12265 0.0
H793 H 0.99676 0.19961 0.12754 0.0
H794 H 0.09806 0.15078 0.0692 0.0
H795 H 0.09218 0.15286 0.95841 0.0
H796 H 0.1074 0.17869 0.03161 0.0
H797 H 0.97441 0.16455 0.04765 0.0
H798 H 0.99195 0.14309 0.96698 0.0
H799 H 0.99145 0.13889 0.07721 0.0
H800 H 0.03919 0.08744 0.81359 0.0
H801 H 0.04672 0.07706 0.07706 0.0
H802 H 0.05617 0.15182 0.85327 0.0
H803 H 1.02124 0.14719 0.85101 0.0
H804 H 0.04139 0.12673 0.77574 0.0
H805 H 0.0653 0.13846 0.17059 0.0
H806 H 0.05096 0.11026 0.19452 0.0
H807 H 0.03032 0.1354 0.17896 0.0
C808 C 0.32778 0.01909 0.11549 0.0
C809 C 0.31945 0.99531 0.12589 0.0
C810 C 0.35048 0.02253 0.06598 0.0
C811 C 0.36553 1.00177 0.02675 0.0
C812 C 0.35608 0.97768 0.03235 0.0
C813 C 0.33323 0.97479 0.08077 0.0
C814 C 0.35918 0.04852 0.05979 0.0
C815 C 0.37115 0.95488 0.99232 0.0
C816 C 0.42144 0.00511 0.8625 0.0
C817 C 0.44402 0.00798 0.9158 0.0
C818 C 0.39581 0.00383 0.89746 0.0
C819 C 0.39242 0.00506 0.98806 0.0
C820 C 0.41517 0.00795 0.04192 0.0
C821 C 0.44043 0.00958 0.00554 0.0
C822 C 0.37233 1.0013 0.83732 0.0
C823 C 0.41292 0.00864 0.13827 0.0
H824 H 0.31754 0.03511 0.1503 0.0
H825 H 0.32696 0.9563 0.08787 0.0
H826 H 0.37699 0.05384 0.10054 0.0
H827 H 0.36454 0.04947 0.99195 0.0
H828 H 0.34364 0.06225 0.08204 0.0
H829 H 0.36035 0.93743 0.99725 0.0
H830 H 0.3752 0.95487 0.92289 0.0
H831 H 0.39045 0.95504 0.02565 0.0
H832 H 0.42376 0.00397 0.79324 0.0
H833 H 0.45753 0.0116 0.04777 0.0
H834 H 0.36042 0.01831 0.85295 0.0
H835 H 0.35944 0.98551 0.84669 0.0
H836 H 0.37818 0.9985 0.76798 0.0
H837 H 0.40006 0.02402 0.16835 0.0
H838 H 0.43236 0.01114 0.17158 0.0
H839 H 0.40363 0.9911 0.14975 0.0
C840 C 0.48163 0.29289 0.31264 0.0
C841 C 0.50751 0.28535 0.32176 0.0
C842 C 0.4761 0.31135 0.26446 0.0
C843 C 0.49702 0.32261 0.22526 0.0
C844 C 0.52279 0.31324 0.22731 0.0
C845 C 0.52771 0.29473 0.27561 0.0
C846 C 0.4483 0.32051 0.26314 0.0
C847 C 0.54571 0.32453 0.18639 0.0
C848 C 0.48389 0.36884 0.07741 0.0
C849 C 0.48696 0.39171 0.13507 0.0
C850 C 0.48669 0.34619 0.10572 0.0
C851 C 0.49282 0.34631 0.19379 0.0
C852 C 0.49574 0.36932 0.25243 0.0
C853 C 0.49272 0.39166 0.22246 0.0
C854 C 0.48327 0.32213 0.0413 0.0
C855 C 0.50254 0.37039 0.34681 0.0
H856 H 0.46611 0.28612 0.35 0.0
H857 H 0.54782 0.28933 0.28434 0.0
H858 H 0.44678 0.33855 0.30877 0.0
H859 H 0.44299 0.3236 0.19754 0.0
H860 H 0.43378 0.30727 0.28288 0.0
H861 H 0.56344 0.3128 0.1819 0.0
H862 H 0.5405 0.32736 0.12043 0.0
H863 H 0.55078 0.343 0.22618 0.0
H864 H 0.47914 0.36864 0.00997 0.0
H865 H 0.49551 0.40916 0.26726 0.0
H866 H 0.46767 0.31046 0.06376 0.0
H867 H 0.50177 0.31153 0.03667 0.0
H868 H 0.47797 0.32516 0.97551 0.0
H869 H 0.48765 0.35976 0.3772 0.0
H870 H 0.50354 0.38971 0.3844 0.0
H871 H 0.52187 0.36167 0.35203 0.0
C872 C 0.22234 0.51463 0.1245 0.0
C873 C 0.2357 0.49236 0.09643 0.0
C874 C 0.1979 0.51916 0.08722 0.0
C875 C 0.18623 0.50091 0.02071 0.0
C876 C 0.20041 0.47904 0.98906 0.0
C877 C 0.22486 0.47517 0.02659 0.0
C878 C 0.1839 0.54292 0.12257 0.0
C879 C 0.1889 0.4588 0.91955 0.0
C880 C 0.11076 0.4968 0.99794 0.0
C881 C 0.10621 0.50635 0.92238 0.0
C882 C 0.13647 0.4951 0.03061 0.0
C883 C 0.15854 0.50366 0.98827 0.0
C884 C 0.15405 0.51376 0.91288 0.0
C885 C 0.12813 0.51476 0.88061 0.0
C886 C 0.1399 0.48412 0.11089 0.0
C887 C 0.17669 0.52353 0.86611 0.0
H888 H 0.23012 0.52784 0.17941 0.0
H889 H 0.23481 0.45779 1.00486 0.0
H890 H 0.17599 0.55119 0.06888 0.0
H891 H 0.16697 0.53888 0.16266 0.0
H892 H 0.19708 0.55677 0.16356 0.0
H893 H 0.20304 0.44369 0.89773 0.0
H894 H 0.17105 0.4507 0.94502 0.0
H895 H 0.18274 0.46651 0.86249 0.0
H896 H 0.09416 0.49024 0.03126 0.0
H897 H 0.12507 0.52241 0.82286 0.0
H898 H 0.14582 0.49905 0.16594 0.0
H899 H 0.15568 0.47014 0.10136 0.0
H900 H 0.12147 0.47517 0.12903 0.0
H901 H 0.18804 0.53782 0.91193 0.0
H902 H 0.16996 0.5318 0.81078 0.0
H903 H 0.19036 0.5083 0.84116 0.0
C904 C 0.0347 0.81838 0.55643 0.0
C905 C 1.01162 0.80377 0.53958 0.0
C906 C 0.03432 0.842 0.60933 0.0
C907 C 1.01048 0.8509 0.64926 0.0
C908 C 0.98784 0.83513 0.64056 0.0
C909 C 0.98856 0.81179 0.58485 0.0
C910 C 0.05893 0.85816 0.61656 0.0
C911 C 0.96244 0.84352 0.68575 0.0
C912 C 1.01919 0.91112 0.81277 0.0
C913 C 1.0124 0.9287 0.76286 0.0
C914 C 1.01693 0.88558 0.77886 0.0
C915 C 1.00876 0.87751 0.69165 0.0
C916 C 1.00127 0.89523 0.64168 0.0
C917 C 1.00274 0.92063 0.67853 0.0
C918 C 1.02432 0.86739 0.83546 0.0
C919 C 0.99313 0.88747 0.5477 0.0
H920 H 0.05277 0.81198 0.52343 0.0
H921 H 0.97065 0.80062 0.57259 0.0
H922 H 0.05546 0.87439 0.58566 0.0
H923 H 0.06389 0.86538 0.68565 0.0
H924 H 0.07616 0.84804 0.58477 0.0
H925 H 0.94816 0.82786 0.68407 0.0
H926 H 0.96629 0.85239 0.75439 0.0
H927 H 0.95326 0.85757 0.65356 0.0
H928 H 1.02643 0.91736 0.87831 0.0
H929 H 0.99766 0.93423 0.63977 0.0
H930 H 0.04497 0.86165 0.8221 0.0
H931 H 1.01157 0.85045 0.82198 0.0
H932 H 1.02284 0.87578 0.90545 0.0
H933 H 1.00977 0.87815 0.5095 0.0
H934 H 0.98717 0.90347 0.51868 0.0
H935 H 0.97646 0.8739 0.5415 0.0
C936 C 0.72526 0.98396 0.58597 0.0
C937 C 0.73037 0.99805 0.5219 0.0
C938 C 0.70084 0.98541 0.63064 0.0
C939 C 0.68081 1.00141 0.61115 0.0
C940 C 0.68641 0.01629 0.54852 0.0
C941 C 0.71092 0.01452 0.5055 0.0
C942 C 0.6965 0.96851 0.69469 0.0
C943 C 0.66585 0.03303 0.52256 0.0
C944 C 0.60777 0.98601 0.64713 0.0
C945 C 0.60097 0.0039 0.72032 0.0
C946 C 0.63355 0.98476 0.6124 0.0
C947 C 0.65353 1.00172 0.65123 0.0
C948 C 0.64699 0.01953 0.72604 0.0
C949 C 0.62098 0.02045 0.75942 0.0
C950 C 0.63939 0.96532 0.5332 0.0
C951 C 0.66759 0.03771 0.77066 0.0
H952 H 0.73974 0.97074 0.59798 0.0
H953 H 0.71445 0.02523 0.45518 0.0
H954 H 0.67785 0.97186 0.73129 0.0
H955 H 0.69632 0.94894 0.6594 0.0
H956 H 0.7132 0.97067 0.7414 0.0
H957 H 0.67353 0.04415 0.4755 0.0
H958 H 0.64876 0.02166 0.49257 0.0
H959 H 0.6585 0.0459 0.58051 0.0
H960 H 0.5928 0.973 0.61596 0.0
H961 H 0.61633 0.03427 0.81622 0.0
H962 H 0.65517 0.9531 0.54855 0.0
H963 H 0.64671 0.97436 0.48006 0.0
H964 H 0.62179 0.95365 0.50955 0.0
H965 H 0.6844 0.02746 0.79075 0.0
H966 H 0.65974 0.05031 0.8285 0.0
H967 H 0.67541 0.04915 0.725 0.0
C968 C 0.5262 0.73331 0.40953 0.0
C969 C 0.54723 0.74067 0.36181 0.0
C970 C 0.5295 0.71522 0.46089 0.0
C971 C 0.55435 0.70405 0.46351 0.0
C972 C 0.57625 0.71343 0.42303 0.0
C973 C 0.57241 0.73168 0.37265 0.0
C974 C 0.50569 0.70617 0.50411 0.0
C975 C 0.60311 0.7022 0.42417 0.0
C976 C 0.56609 0.65629 0.6068 0.0
C977 C 0.56129 0.63389 0.54823 0.0
C978 C 0.56353 0.67934 0.58103 0.0
C979 C 0.55636 0.68 0.4943 0.0
C980 C 0.55136 0.65739 0.43518 0.0
C981 C 0.55372 0.63469 0.463 0.0
C982 C 0.56861 0.70294 0.64635 0.0
C983 C 0.54381 0.65713 0.34188 0.0
H984 H 0.50661 0.73986 0.39973 0.0
H985 H 0.58854 0.73692 0.33419 0.0
H986 H 0.49839 0.68839 0.46441 0.0
H987 H 0.5108 0.70263 0.5693 0.0
H988 H 0.48946 0.7197 0.51078 0.0
H989 H 0.61874 0.71412 0.40292 0.0
H990 H 0.60806 0.6991 0.49001 0.0
H991 H 0.60307 0.68388 0.37958 0.0
H992 H 0.57166 0.65577 0.67309 0.0
H993 H 0.55022 0.61746 0.41731 0.0
H994 H 0.55141 0.71526 0.64961 0.0
H995 H 0.58578 0.71315 0.62569 0.0
H996 H 0.5726 0.69932 0.71235 0.0
H997 H 0.52522 0.66728 0.33929 0.0
H998 H 0.54105 0.63798 0.30401 0.0
H999 H 0.55927 0.66674 0.31 0.0
C1000 C 0.8375 0.50272 0.51393 0.0
C1001 C 0.82045 0.52056 0.55868 0.0
C1002 C 0.86262 0.49891 0.54779 0.0
C1003 C 0.87105 0.51323 0.62872 0.0
C1004 C 0.85319 0.5302 0.67637 0.0
C1005 C 0.82835 0.53377 0.64065 0.0
C1006 C 0.88082 0.48072 0.494 0.0
C1007 C 0.86096 0.54585 0.76286 0.0
C1008 C 0.93182 0.49472 0.74681 0.0
C1009 C 0.95166 0.51081 0.72581 0.0
C1010 C 0.90574 0.49512 0.71537 0.0
C1011 C 0.89902 0.51189 0.66075 0.0
C1012 C 0.919 0.528 0.63857 0.0
C1013 C 0.94488 0.52732 0.67137 0.0
C1014 C 0.88527 0.47768 0.7413 0.0
C1015 C 0.91306 0.54604 0.57994 0.0
H1016 H 0.83201 0.49304 0.44937 0.0
H1017 H 0.81563 0.54806 0.67463 0.0
H1018 H 0.89717 0.49102 0.46894 0.0
H1019 H 0.88971 0.46847 0.53431 0.0
H1020 H 0.87049 0.46902 0.43791 0.0
H1021 H 0.84409 0.55632 0.79578 0.0
H1022 H 0.86902 0.53406 0.80626 0.0
H1023 H 0.8767 0.55933 0.75313 0.0
H1024 H 0.93659 0.48186 0.78871 0.0
H1025 H 0.95986 0.53978 0.65398 0.0
H1026 H 0.8764 0.46593 0.68255 0.0
H1027 H 0.86913 0.48849 0.77724 0.0
H1028 H 0.89359 0.46543 0.78279 0.0
H1029 H 0.9063 0.53572 0.51567 0.0
H1030 H 0.93048 0.55772 0.5702 0.0
H1031 H 0.89686 0.55838 0.60755 0.0
loop_
_geom_bond_atom_site_label_1
_geom_bond_atom_site_label_2
_geom_bond_distance
_geom_bond_site_symmetry_2
_ccdc_geom_bond_type
H0 C7 0.929 . S
H1 C10 0.930 . S
H2 C12 0.929 . S
H3 C4 0.969 . S
C4 H3 0.969 . S
C4 O5 1.550 . S
C4 H6 0.973 . S
O5 C4 1.550 . S
O5 C11 1.412 . S
H6 C4 0.973 . S
C7 H0 0.929 . S
C7 C8 1.400 . S
C7 C9 1.364 . S
C8 C7 1.400 . S
C8 C12 1.377 . S
C9 C7 1.364 . S
C9 C10 1.374 . S
C10 H1 0.930 . S
C10 C9 1.374 . S
C10 C11 1.383 . S
C11 O5 1.412 . S
C11 C10 1.383 . S
C11 C12 1.394 . S
C12 H2 0.929 . S
C12 C8 1.377 . S
C12 C11 1.394 . S
H13 C20 0.928 . S
H14 C23 0.932 . S
H15 C25 0.928 . S
H16 C17 0.969 . S
C17 H16 0.969 . S
C17 O18 1.550 1_455 S
C17 H19 0.973 1_455 S
O18 C17 1.550 1_655 S
O18 C24 1.411 1_655 S
H19 C17 0.973 1_655 S
C20 H13 0.928 . S
C20 C21 1.399 . S
C20 C22 1.364 . S
C21 C20 1.399 . S
C21 C25 1.377 . S
C22 C20 1.364 . S
C22 C23 1.375 . S
C23 H14 0.932 . S
C23 C22 1.375 . S
C23 C24 1.382 1_655 S
C24 O18 1.411 1_455 S
C24 C23 1.382 1_455 S
C24 C25 1.394 1_455 S
C25 H15 0.928 . S
C25 C21 1.377 . S
C25 C24 1.394 1_655 S
H26 C33 0.928 1_565 S
H27 C36 0.937 . S
H28 C38 0.925 1_565 S
H29 C30 0.969 . S
C30 H29 0.969 . S
C30 O31 1.550 1_545 S
C30 H32 0.973 1_545 S
O31 C30 1.550 1_565 S
O31 C37 1.404 1_565 S
H32 C30 0.973 1_565 S
C33 H26 0.928 1_545 S
C33 C34 1.402 . S
C33 C35 1.363 . S
C34 C33 1.402 . S
C34 C38 1.377 . S
C35 C33 1.363 . S
C35 C36 1.374 1_545 S
C36 H27 0.937 . S
C36 C35 1.374 1_565 S
C36 C37 1.389 1_565 S
C37 O31 1.404 1_545 S
C37 C36 1.389 1_545 S
C37 C38 1.389 . S
C38 H28 0.925 1_545 S
C38 C34 1.377 . S
C38 C37 1.389 . S
H39 C46 0.929 . S
H40 C49 0.930 . S
H41 C51 0.929 . S
H42 C43 0.969 . S
C43 H42 0.969 . S
C43 O44 1.550 1_556 S
C43 H45 0.973 . S
O44 C43 1.550 1_554 S
O44 C50 1.412 . S
H45 C43 0.973 . S
C46 H39 0.929 . S
C46 C47 1.400 . S
C46 C48 1.364 1_554 S
C47 C46 1.400 . S
C47 C51 1.377 . S
C48 C46 1.364 1_556 S
C48 C49 1.374 . S
C49 H40 0.930 . S
C49 C48 1.374 . S
C49 C50 1.383 1_556 S
C50 O44 1.412 . S
C50 C49 1.383 1_554 S
C50 C51 1.394 . S
C51 H41 0.929 . S
C51 C47 1.377 . S
C51 C50 1.394 . S
H52 C59 0.929 . S
H53 C62 0.930 . S
H54 C64 0.929 . S
H55 C56 0.969 . S
C56 H55 0.969 . S
C56 O57 1.550 . S
C56 H58 0.973 . S
O57 C56 1.550 . S
O57 C63 1.412 . S
H58 C56 0.973 . S
C59 H52 0.929 . S
C59 C60 1.400 . S
C59 C61 1.364 . S
C60 C59 1.400 . S
C60 C64 1.377 . S
C61 C59 1.364 . S
C61 C62 1.374 . S
C62 H53 0.930 . S
C62 C61 1.374 . S
C62 C63 1.383 . S
C63 O57 1.412 . S
C63 C62 1.383 . S
C63 C64 1.394 . S
C64 H54 0.929 . S
C64 C60 1.377 . S
C64 C63 1.394 . S
H65 C72 0.929 . S
H66 C75 0.930 . S
H67 C77 0.929 . S
H68 C69 0.969 . S
C69 H68 0.969 . S
C69 O70 1.550 1_455 S
C69 H71 0.973 1_455 S
O70 C69 1.550 1_655 S
O70 C76 1.412 1_655 S
H71 C69 0.973 1_655 S
C72 H65 0.929 . S
C72 C73 1.400 . S
C72 C74 1.364 . S
C73 C72 1.400 . S
C73 C77 1.377 . S
C74 C72 1.364 . S
C74 C75 1.374 . S
C75 H66 0.930 . S
C75 C74 1.374 . S
C75 C76 1.383 . S
C76 O70 1.412 1_455 S
C76 C75 1.383 . S
C76 C77 1.394 . S
C77 H67 0.929 . S
C77 C73 1.377 . S
C77 C76 1.394 . S
H78 C85 0.928 1_565 S
H79 C88 0.922 . S
H80 C90 0.932 1_565 S
H81 C82 0.969 . S
C82 H81 0.969 . S
C82 O83 1.550 1_545 S
C82 H84 0.973 1_545 S
O83 C82 1.550 1_565 S
O83 C89 1.403 1_565 S
H84 C82 0.973 1_565 S
C85 H78 0.928 1_545 S
C85 C86 1.397 . S
C85 C87 1.365 . S
C86 C85 1.397 . S
C86 C90 1.377 . S
C87 C85 1.365 . S
C87 C88 1.374 1_545 S
C88 H79 0.922 . S
C88 C87 1.374 1_565 S
C88 C89 1.376 1_565 S
C89 O83 1.403 1_545 S
C89 C88 1.376 1_545 S
C89 C90 1.400 . S
C90 H80 0.932 1_545 S
C90 C86 1.377 . S
C90 C89 1.400 . S
H91 C98 0.929 . S
H92 C101 0.930 . S
H93 C103 0.929 . S
H94 C95 0.969 . S
C95 H94 0.969 . S
C95 O96 1.550 . S
C95 H97 0.973 . S
O96 C95 1.550 . S
O96 C102 1.412 . S
H97 C95 0.973 . S
C98 H91 0.929 . S
C98 C99 1.400 . S
C98 C100 1.364 . S
C99 C98 1.400 . S
C99 C103 1.377 . S
C100 C98 1.364 . S
C100 C101 1.374 . S
C101 H92 0.930 . S
C101 C100 1.374 . S
C101 C102 1.383 . S
C102 O96 1.412 . S
C102 C101 1.383 . S
C102 C103 1.394 . S
C103 H93 0.929 . S
C103 C99 1.377 . S
C103 C102 1.394 . S
Tb104 C113 2.764 . S
Tb104 O114 2.325 . S
Tb104 O117 2.303 1_655 S
Tb104 O121 2.322 1_545 S
Tb104 O122 2.349 . S
Tb104 O125 2.415 . S
Tb104 O126 2.399 . S
Tb105 O115 2.322 1_565 S
Tb105 O116 2.349 . S
Tb105 O118 2.415 . S
Tb105 O119 2.399 . S
Tb105 O120 2.325 . S
Tb105 O123 2.303 1_455 S
Tb105 C134 2.764 . S
C106 O122 1.267 . S
C106 O123 1.255 1_545 S
C107 C110 1.358 . S
C107 C111 1.332 . S
C107 C113 1.504 . S
C108 C109 1.373 . S
C108 C112 1.308 . S
C109 C108 1.373 . S
C109 C110 1.429 . S
C109 H136 0.932 . S
C110 C107 1.358 . S
C110 C109 1.429 . S
C110 H137 0.930 . S
C111 C107 1.332 . S
C111 C112 1.394 . S
C111 H138 0.932 1_655 S
C112 C108 1.308 . S
C112 C111 1.394 . S
C112 H139 0.929 1_655 S
C113 Tb104 2.764 . S
C113 C107 1.504 . S
C113 O125 1.239 . S
C113 O126 1.263 . S
O114 Tb104 2.325 . S
O114 C124 1.236 1_655 S
O115 Tb105 2.322 1_545 S
O115 C124 1.257 . S
O116 Tb105 2.349 . S
O116 C127 1.260 . S
O117 Tb104 2.303 1_455 S
O117 C127 1.257 1_545 S
O118 Tb105 2.415 . S
O118 C134 1.239 . S
O119 Tb105 2.399 . S
O119 C134 1.263 . S
O120 Tb105 2.325 . S
O120 C135 1.236 1_455 S
O121 Tb104 2.322 1_565 S
O121 C135 1.257 . S
O122 Tb104 2.349 . S
O122 C106 1.267 . S
O123 Tb105 2.303 1_655 S
O123 C106 1.255 1_565 S
C124 O114 1.236 1_455 S
C124 O115 1.257 . S
O125 Tb104 2.415 . S
O125 C113 1.239 . S
O126 Tb104 2.399 . S
O126 C113 1.263 . S
C127 O116 1.260 . S
C127 O117 1.257 1_565 S
C128 C131 1.358 . S
C128 C132 1.332 . S
C128 C134 1.504 1_554 S
C129 C130 1.373 . S
C129 C133 1.308 . S
C130 C129 1.373 . S
C130 C131 1.429 . S
C130 H140 0.932 . S
C131 C128 1.358 . S
C131 C130 1.429 . S
C131 H141 0.930 . S
C132 C128 1.332 . S
C132 C133 1.394 . S
C132 H142 0.932 1_455 S
C133 C129 1.308 . S
C133 C132 1.394 . S
C133 H143 0.929 1_455 S
C134 Tb105 2.764 . S
C134 O118 1.239 . S
C134 O119 1.263 . S
C134 C128 1.504 1_556 S
C135 O120 1.236 1_655 S
C135 O121 1.257 . S
H136 C109 0.932 . S
H137 C110 0.930 . S
H138 C111 0.932 1_455 S
H139 C112 0.929 1_455 S
H140 C130 0.932 . S
H141 C131 0.930 . S
H142 C132 0.932 1_655 S
H143 C133 0.929 1_655 S
Tb144 C153 2.764 . S
Tb144 O154 2.325 . S
Tb144 O157 2.303 1_565 S
Tb144 O161 2.322 . S
Tb144 O162 2.349 . S
Tb144 O165 2.415 1_565 S
Tb144 O166 2.399 . S
Tb145 O155 2.322 . S
Tb145 O156 2.349 . S
Tb145 O158 2.415 1_545 S
Tb145 O159 2.399 1_556 S
Tb145 O160 2.325 . S
Tb145 O163 2.303 1_545 S
Tb145 C174 2.764 1_556 S
C146 O162 1.261 . S
C146 O163 1.257 . S
C147 C150 1.358 . S
C147 C151 1.332 1_565 S
C147 C153 1.504 . S
C148 C149 1.373 . S
C148 C152 1.308 1_565 S
C149 C148 1.373 . S
C149 C150 1.429 . S
C149 H176 0.932 . S
C150 C147 1.358 . S
C150 C149 1.429 . S
C150 H177 0.930 . S
C151 C147 1.332 1_545 S
C151 C152 1.394 . S
C151 H178 0.932 . S
C152 C148 1.308 1_545 S
C152 C151 1.394 . S
C152 H179 0.929 . S
C153 Tb144 2.764 . S
C153 C147 1.504 . S
C153 O165 1.239 1_565 S
C153 O166 1.263 . S
O154 Tb144 2.325 . S
O154 C164 1.236 1_565 S
O155 Tb145 2.322 . S
O155 C164 1.257 . S
O156 Tb145 2.349 . S
O156 C167 1.261 . S
O157 Tb144 2.303 1_545 S
O157 C167 1.257 . S
O158 Tb145 2.415 1_565 S
O158 C174 1.239 1_566 S
O159 Tb145 2.399 1_554 S
O159 C174 1.263 . S
O160 Tb145 2.325 . S
O160 C175 1.236 1_545 S
O161 Tb144 2.322 . S
O161 C175 1.257 . S
O162 Tb144 2.349 . S
O162 C146 1.261 . S
O163 Tb145 2.303 1_565 S
O163 C146 1.257 . S
C164 O154 1.236 1_545 S
C164 O155 1.257 . S
O165 Tb144 2.415 1_545 S
O165 C153 1.239 1_545 S
O166 Tb144 2.399 . S
O166 C153 1.263 . S
C167 O156 1.261 . S
C167 O157 1.257 . S
C168 C171 1.358 . S
C168 C172 1.332 1_545 S
C168 C174 1.504 . S
C169 C170 1.373 . S
C169 C173 1.308 1_545 S
C170 C169 1.373 . S
C170 C171 1.429 . S
C170 H180 0.932 . S
C171 C168 1.358 . S
C171 C170 1.429 . S
C171 H181 0.930 . S
C172 C168 1.332 1_565 S
C172 C173 1.394 . S
C172 H182 0.932 . S
C173 C169 1.308 1_565 S
C173 C172 1.394 . S
C173 H183 0.929 . S
C174 Tb145 2.764 1_554 S
C174 O158 1.239 1_544 S
C174 O159 1.263 . S
C174 C168 1.504 . S
C175 O160 1.236 1_565 S
C175 O161 1.257 . S
H176 C149 0.932 . S
H177 C150 0.930 . S
H178 C151 0.932 . S
H179 C152 0.929 . S
H180 C170 0.932 . S
H181 C171 0.930 . S
H182 C172 0.932 . S
H183 C173 0.929 . S
Tb184 C193 2.764 1_556 S
Tb184 O194 2.325 . S
Tb184 O197 2.303 . S
Tb184 O201 2.322 . S
Tb184 O202 2.349 . S
Tb184 O205 2.415 1_556 S
Tb184 O206 2.399 . S
Tb185 O195 2.322 . S
Tb185 O196 2.349 . S
Tb185 O198 2.415 . S
Tb185 O199 2.399 . S
Tb185 O200 2.325 . S
Tb185 O203 2.303 . S
Tb185 C214 2.764 . S
C186 O202 1.261 . S
C186 O203 1.257 . S
C187 C190 1.358 . S
C187 C191 1.332 . S
C187 C193 1.504 . S
C188 C189 1.373 . S
C188 C192 1.308 . S
C189 C188 1.373 . S
C189 C190 1.429 . S
C189 H216 0.932 . S
C190 C187 1.358 . S
C190 C189 1.429 . S
C190 H217 0.930 . S
C191 C187 1.332 . S
C191 C192 1.394 . S
C191 H218 0.932 . S
C192 C188 1.308 . S
C192 C191 1.394 . S
C192 H219 0.929 . S
C193 Tb184 2.764 1_554 S
C193 C187 1.504 . S
C193 O205 1.239 . S
C193 O206 1.263 1_554 S
O194 Tb184 2.325 . S
O194 C204 1.236 . S
O195 Tb185 2.322 . S
O195 C204 1.257 . S
O196 Tb185 2.349 . S
O196 C207 1.261 . S
O197 Tb184 2.303 . S
O197 C207 1.257 . S
O198 Tb185 2.415 . S
O198 C214 1.239 . S
O199 Tb185 2.399 . S
O199 C214 1.263 . S
O200 Tb185 2.325 . S
O200 C215 1.236 . S
O201 Tb184 2.322 . S
O201 C215 1.257 . S
O202 Tb184 2.349 . S
O202 C186 1.261 . S
O203 Tb185 2.303 . S
O203 C186 1.257 . S
C204 O194 1.236 . S
C204 O195 1.257 . S
O205 Tb184 2.415 1_554 S
O205 C193 1.239 . S
O206 Tb184 2.399 . S
O206 C193 1.263 1_556 S
C207 O196 1.261 . S
C207 O197 1.257 . S
C208 C211 1.358 . S
C208 C212 1.332 . S
C208 C214 1.504 . S
C209 C210 1.373 . S
C209 C213 1.308 . S
C210 C209 1.373 . S
C210 C211 1.429 . S
C210 H220 0.932 . S
C211 C208 1.358 . S
C211 C210 1.429 . S
C211 H221 0.930 . S
C212 C208 1.332 . S
C212 C213 1.394 . S
C212 H222 0.932 . S
C213 C209 1.308 . S
C213 C212 1.394 . S
C213 H223 0.929 . S
C214 Tb185 2.764 . S
C214 O198 1.239 . S
C214 O199 1.263 . S
C214 C208 1.504 . S
C215 O200 1.236 . S
C215 O201 1.257 . S
H216 C189 0.932 . S
H217 C190 0.930 . S
H218 C191 0.932 . S
H219 C192 0.929 . S
H220 C210 0.932 . S
H221 C211 0.930 . S
H222 C212 0.932 . S
H223 C213 0.929 . S
Tb224 C233 2.764 . S
Tb224 O234 2.325 . S
Tb224 O237 2.303 . S
Tb224 O241 2.322 1_455 S
Tb224 O242 2.349 . S
Tb224 O245 2.415 . S
Tb224 O246 2.399 . S
Tb225 O235 2.322 1_655 S
Tb225 O236 2.349 . S
Tb225 O238 2.415 1_556 S
Tb225 O239 2.399 . S
Tb225 O240 2.325 . S
Tb225 O243 2.303 . S
Tb225 C254 2.764 1_556 S
C226 O242 1.261 . S
C226 O243 1.257 1_455 S
C227 C230 1.358 . S
C227 C231 1.332 . S
C227 C233 1.504 . S
C228 C229 1.373 . S
C228 C232 1.308 . S
C229 C228 1.373 . S
C229 C230 1.429 . S
C229 H256 0.932 . S
C230 C227 1.358 . S
C230 C229 1.429 . S
C230 H257 0.930 . S
C231 C227 1.332 . S
C231 C232 1.394 . S
C231 H258 0.932 . S
C232 C228 1.308 . S
C232 C231 1.394 . S
C232 H259 0.929 . S
C233 Tb224 2.764 . S
C233 C227 1.504 . S
C233 O245 1.239 . S
C233 O246 1.263 . S
O234 Tb224 2.325 . S
O234 C244 1.236 . S
O235 Tb225 2.322 1_455 S
O235 C244 1.257 . S
O236 Tb225 2.349 . S
O236 C247 1.261 . S
O237 Tb224 2.303 . S
O237 C247 1.257 1_455 S
O238 Tb225 2.415 1_554 S
O238 C254 1.239 . S
O239 Tb225 2.399 . S
O239 C254 1.263 1_556 S
O240 Tb225 2.325 . S
O240 C255 1.236 . S
O241 Tb224 2.322 1_655 S
O241 C255 1.257 . S
O242 Tb224 2.349 . S
O242 C226 1.261 . S
O243 Tb225 2.303 . S
O243 C226 1.257 1_655 S
C244 O234 1.236 . S
C244 O235 1.257 . S
O245 Tb224 2.415 . S
O245 C233 1.239 . S
O246 Tb224 2.399 . S
O246 C233 1.263 . S
C247 O236 1.261 . S
C247 O237 1.257 1_655 S
C248 C251 1.358 . S
C248 C252 1.332 . S
C248 C254 1.504 . S
C249 C250 1.373 . S
C249 C253 1.308 . S
C250 C249 1.373 . S
C250 C251 1.429 . S
C250 H260 0.932 . S
C251 C248 1.358 . S
C251 C250 1.429 . S
C251 H261 0.930 . S
C252 C248 1.332 . S
C252 C253 1.394 . S
C252 H262 0.932 . S
C253 C249 1.308 . S
C253 C252 1.394 . S
C253 H263 0.929 . S
C254 Tb225 2.764 1_554 S
C254 O238 1.239 . S
C254 O239 1.263 1_554 S
C254 C248 1.504 . S
C255 O240 1.236 . S
C255 O241 1.257 . S
H256 C229 0.932 . S
H257 C230 0.930 . S
H258 C231 0.932 . S
H259 C232 0.929 . S
H260 C250 0.932 . S
H261 C251 0.930 . S
H262 C252 0.932 . S
H263 C253 0.929 . S
C264 C265 1.391 1_565 S
C264 C266 1.393 . S
C264 H280 0.931 . S
C265 C264 1.391 1_545 S
C265 C269 1.376 . S
C266 C264 1.393 . S
C266 C267 1.367 1_565 S
C266 C270 1.533 . S
C267 C266 1.367 1_545 S
C267 C268 1.410 . S
C267 C275 1.503 . S
C268 C267 1.410 . S
C268 C269 1.392 . S
C268 C271 1.511 . S
C269 C265 1.376 . S
C269 C268 1.392 . S
C269 H281 0.929 . S
C270 C266 1.533 . S
C270 H282 0.960 1_565 S
C270 H283 0.962 . S
C270 H284 0.960 . S
C271 C268 1.511 . S
C271 H285 0.961 . S
C271 H286 0.961 . S
C271 H287 0.961 . S
C272 C273 1.370 1_565 S
C272 C274 1.363 . S
C272 H288 0.931 . S
C273 C272 1.370 1_545 S
C273 C277 1.408 . S
C274 C272 1.363 . S
C274 C275 1.370 1_565 S
C274 C278 1.524 . S
C275 C267 1.503 . S
C275 C274 1.370 1_545 S
C275 C276 1.403 . S
C276 C275 1.403 . S
C276 C277 1.404 . S
C276 C279 1.539 . S
C277 C273 1.408 . S
C277 C276 1.404 . S
C277 H289 0.930 . S
C278 C274 1.524 . S
C278 H290 0.956 . S
C278 H291 0.961 . S
C278 H292 0.961 . S
C279 C276 1.539 . S
C279 H293 0.958 . S
C279 H294 0.961 . S
C279 H295 0.960 . S
H280 C264 0.931 . S
H281 C269 0.929 . S
H282 C270 0.960 1_545 S
H283 C270 0.962 . S
H284 C270 0.960 . S
H285 C271 0.961 . S
H286 C271 0.961 . S
H287 C271 0.961 . S
H288 C272 0.931 . S
H289 C277 0.930 . S
H290 C278 0.956 . S
H291 C278 0.961 . S
H292 C278 0.961 . S
H293 C279 0.958 . S
H294 C279 0.961 . S
H295 C279 0.960 . S
C296 C297 1.391 . S
C296 C298 1.394 . S
C296 H312 0.931 . S
C297 C296 1.391 . S
C297 C301 1.376 . S
C298 C296 1.394 . S
C298 C299 1.369 . S
C298 C302 1.531 . S
C299 C298 1.369 . S
C299 C300 1.410 . S
C299 C307 1.503 . S
C300 C299 1.410 . S
C300 C301 1.392 . S
C300 C303 1.511 . S
C301 C297 1.376 . S
C301 C300 1.392 . S
C301 H313 0.929 . S
C302 C298 1.531 . S
C302 H314 0.960 . S
C302 H315 0.962 . S
C302 H316 0.960 . S
C303 C300 1.511 . S
C303 H317 0.961 . S
C303 H318 0.961 . S
C303 H319 0.961 . S
C304 C305 1.370 . S
C304 C306 1.363 . S
C304 H320 0.931 . S
C305 C304 1.370 . S
C305 C309 1.408 . S
C306 C304 1.363 . S
C306 C307 1.370 . S
C306 C310 1.524 . S
C307 C299 1.503 . S
C307 C306 1.370 . S
C307 C308 1.403 . S
C308 C307 1.403 . S
C308 C309 1.404 . S
C308 C311 1.539 . S
C309 C305 1.408 . S
C309 C308 1.404 . S
C309 H321 0.930 . S
C310 C306 1.524 . S
C310 H322 0.956 . S
C310 H323 0.961 . S
C310 H324 0.961 . S
C311 C308 1.539 . S
C311 H325 0.958 . S
C311 H326 0.961 . S
C311 H327 0.960 . S
H312 C296 0.931 . S
H313 C301 0.929 . S
H314 C302 0.960 . S
H315 C302 0.962 . S
H316 C302 0.960 . S
H317 C303 0.961 . S
H318 C303 0.961 . S
H319 C303 0.961 . S
H320 C304 0.931 . S
H321 C309 0.930 . S
H322 C310 0.956 . S
H323 C310 0.961 . S
H324 C310 0.961 . S
H325 C311 0.958 . S
H326 C311 0.961 . S
H327 C311 0.960 . S
C328 C329 1.391 . S
C328 C330 1.394 . S
C328 H344 0.931 . S
C329 C328 1.391 . S
C329 C333 1.376 . S
C330 C328 1.394 . S
C330 C331 1.369 . S
C330 C334 1.531 . S
C331 C330 1.369 . S
C331 C332 1.410 . S
C331 C339 1.503 . S
C332 C331 1.410 . S
C332 C333 1.392 . S
C332 C335 1.511 . S
C333 C329 1.376 . S
C333 C332 1.392 . S
C333 H345 0.929 . S
C334 C330 1.531 . S
C334 H346 0.960 . S
C334 H347 0.962 . S
C334 H348 0.960 . S
C335 C332 1.511 . S
C335 H349 0.961 . S
C335 H350 0.961 . S
C335 H351 0.961 . S
C336 C337 1.370 . S
C336 C338 1.363 . S
C336 H352 0.931 . S
C337 C336 1.370 . S
C337 C341 1.408 . S
C338 C336 1.363 . S
C338 C339 1.370 . S
C338 C342 1.524 . S
C339 C331 1.503 . S
C339 C338 1.370 . S
C339 C340 1.403 . S
C340 C339 1.403 . S
C340 C341 1.404 . S
C340 C343 1.539 . S
C341 C337 1.408 . S
C341 C340 1.404 . S
C341 H353 0.930 . S
C342 C338 1.524 . S
C342 H354 0.956 . S
C342 H355 0.961 . S
C342 H356 0.961 . S
C343 C340 1.539 . S
C343 H357 0.958 . S
C343 H358 0.961 . S
C343 H359 0.960 . S
H344 C328 0.931 . S
H345 C333 0.929 . S
H346 C334 0.960 . S
H347 C334 0.962 . S
H348 C334 0.960 . S
H349 C335 0.961 . S
H350 C335 0.961 . S
H351 C335 0.961 . S
H352 C336 0.931 . S
H353 C341 0.930 . S
H354 C342 0.956 . S
H355 C342 0.961 . S
H356 C342 0.961 . S
H357 C343 0.958 . S
H358 C343 0.961 . S
H359 C343 0.960 . S
C360 C361 1.391 . S
C360 C362 1.394 . S
C360 H376 0.931 . S
C361 C360 1.391 . S
C361 C365 1.376 1_455 S
C362 C360 1.394 . S
C362 C363 1.369 . S
C362 C366 1.531 . S
C363 C362 1.369 . S
C363 C364 1.410 1_455 S
C363 C371 1.503 . S
C364 C363 1.410 1_655 S
C364 C365 1.392 . S
C364 C367 1.511 . S
C365 C361 1.376 1_655 S
C365 C364 1.392 . S
C365 H377 0.929 . S
C366 C362 1.531 . S
C366 H378 0.960 . S
C366 H379 0.962 . S
C366 H380 0.960 . S
C367 C364 1.511 . S
C367 H381 0.961 . S
C367 H382 0.961 . S
C367 H383 0.961 . S
C368 C369 1.370 . S
C368 C370 1.363 . S
C368 H384 0.931 . S
C369 C368 1.370 . S
C369 C373 1.408 . S
C370 C368 1.363 . S
C370 C371 1.370 . S
C370 C374 1.524 . S
C371 C363 1.503 . S
C371 C370 1.370 . S
C371 C372 1.403 . S
C372 C371 1.403 . S
C372 C373 1.404 . S
C372 C375 1.539 1_455 S
C373 C369 1.408 . S
C373 C372 1.404 . S
C373 H385 0.930 1_455 S
C374 C370 1.524 . S
C374 H386 0.956 . S
C374 H387 0.961 1_455 S
C374 H388 0.961 . S
C375 C372 1.539 1_655 S
C375 H389 0.958 1_655 S
C375 H390 0.961 . S
C375 H391 0.960 . S
H376 C360 0.931 . S
H377 C365 0.929 . S
H378 C366 0.960 . S
H379 C366 0.962 . S
H380 C366 0.960 . S
H381 C367 0.961 . S
H382 C367 0.961 . S
H383 C367 0.961 . S
H384 C368 0.931 . S
H385 C373 0.930 1_655 S
H386 C374 0.956 . S
H387 C374 0.961 1_655 S
H388 C374 0.961 . S
H389 C375 0.958 1_455 S
H390 C375 0.961 . S
H391 C375 0.960 . S
C392 C393 1.391 . S
C392 C394 1.394 . S
C392 H408 0.931 . S
C393 C392 1.391 . S
C393 C397 1.360 1_565 S
C394 C392 1.394 . S
C394 C395 1.369 . S
C394 C398 1.531 . S
C395 C394 1.369 . S
C395 C396 1.410 . S
C395 C403 1.503 . S
C396 C395 1.410 . S
C396 C397 1.397 1_565 S
C396 C399 1.511 1_565 S
C397 C393 1.360 1_545 S
C397 C396 1.397 1_545 S
C397 H409 0.943 . S
C398 C394 1.531 . S
C398 H410 0.960 . S
C398 H411 0.962 . S
C398 H412 0.960 . S
C399 C396 1.511 1_545 S
C399 H413 0.961 . S
C399 H414 0.961 . S
C399 H415 0.961 1_545 S
C400 C401 1.370 1_544 S
C400 C402 1.363 . S
C400 H416 0.931 . S
C401 C400 1.370 1_566 S
C401 C405 1.408 . S
C402 C400 1.363 . S
C402 C403 1.370 1_545 S
C402 C406 1.524 . S
C403 C395 1.503 . S
C403 C402 1.370 1_565 S
C403 C404 1.403 . S
C404 C403 1.403 . S
C404 C405 1.404 1_554 S
C404 C407 1.539 . S
C405 C401 1.408 . S
C405 C404 1.404 1_556 S
C405 H417 0.930 . S
C406 C402 1.524 . S
C406 H418 0.956 . S
C406 H419 0.961 . S
C406 H420 0.961 . S
C407 C404 1.539 . S
C407 H421 0.958 . S
C407 H422 0.968 . S
C407 H423 0.960 . S
H408 C392 0.931 . S
H409 C397 0.943 . S
H410 C398 0.960 . S
H411 C398 0.962 . S
H412 C398 0.960 . S
H413 C399 0.961 . S
H414 C399 0.961 . S
H415 C399 0.961 1_565 S
H416 C400 0.931 . S
H417 C405 0.930 . S
H418 C406 0.956 . S
H419 C406 0.961 . S
H420 C406 0.961 . S
H421 C407 0.958 . S
H422 C407 0.968 . S
H423 C407 0.960 . S
C424 C425 1.391 . S
C424 C426 1.394 . S
C424 H440 0.931 . S
C425 C424 1.391 . S
C425 C429 1.376 . S
C426 C424 1.394 . S
C426 C427 1.369 . S
C426 C430 1.531 . S
C427 C426 1.369 . S
C427 C428 1.410 . S
C427 C435 1.503 . S
C428 C427 1.410 . S
C428 C429 1.392 . S
C428 C431 1.511 . S
C429 C425 1.376 . S
C429 C428 1.392 . S
C429 H441 0.929 1_556 S
C430 C426 1.531 . S
C430 H442 0.960 . S
C430 H443 0.962 . S
C430 H444 0.960 . S
C431 C428 1.511 . S
C431 H445 0.961 1_556 S
C431 H446 0.961 1_556 S
C431 H447 0.961 . S
C432 C433 1.370 . S
C432 C434 1.363 . S
C432 H448 0.931 . S
C433 C432 1.370 . S
C433 C437 1.408 . S
C434 C432 1.363 . S
C434 C435 1.370 . S
C434 C438 1.523 . S
C435 C427 1.503 . S
C435 C434 1.370 . S
C435 C436 1.403 . S
C436 C435 1.403 . S
C436 C437 1.404 . S
C436 C439 1.539 . S
C437 C433 1.408 . S
C437 C436 1.404 . S
C437 H449 0.930 . S
C438 C434 1.523 . S
C438 H450 0.956 . S
C438 H451 0.962 1_556 S
C438 H452 0.961 1_556 S
C439 C436 1.539 . S
C439 H453 0.958 . S
C439 H454 0.961 . S
C439 H455 0.960 . S
H440 C424 0.931 . S
H441 C429 0.929 1_554 S
H442 C430 0.960 . S
H443 C430 0.962 . S
H444 C430 0.960 . S
H445 C431 0.961 1_554 S
H446 C431 0.961 1_554 S
H447 C431 0.961 . S
H448 C432 0.931 . S
H449 C437 0.930 . S
H450 C438 0.956 . S
H451 C438 0.962 1_554 S
H452 C438 0.961 1_554 S
H453 C439 0.958 . S
H454 C439 0.961 . S
H455 C439 0.960 . S
C456 C457 1.391 . S
C456 C458 1.394 . S
C456 H472 0.931 . S
C457 C456 1.391 . S
C457 C461 1.376 . S
C458 C456 1.394 . S
C458 C459 1.369 . S
C458 C462 1.531 . S
C459 C458 1.369 . S
C459 C460 1.410 . S
C459 C467 1.503 . S
C460 C459 1.410 . S
C460 C461 1.392 . S
C460 C463 1.511 . S
C461 C457 1.376 . S
C461 C460 1.392 . S
C461 H473 0.929 . S
C462 C458 1.531 . S
C462 H474 0.960 . S
C462 H475 0.962 . S
C462 H476 0.960 . S
C463 C460 1.511 . S
C463 H477 0.961 . S
C463 H478 0.961 . S
C463 H479 0.961 . S
C464 C465 1.370 1_554 S
C464 C466 1.363 . S
C464 H480 0.931 1_554 S
C465 C464 1.370 1_556 S
C465 C469 1.408 1_556 S
C466 C464 1.363 . S
C466 C467 1.370 . S
C466 C470 1.524 . S
C467 C459 1.503 . S
C467 C466 1.370 . S
C467 C468 1.403 . S
C468 C467 1.403 . S
C468 C469 1.404 . S
C468 C471 1.539 . S
C469 C465 1.408 1_554 S
C469 C468 1.404 . S
C469 H481 0.930 . S
C470 C466 1.524 . S
C470 H482 0.956 . S
C470 H483 0.961 . S
C470 H484 0.961 . S
C471 C468 1.539 . S
C471 H485 0.958 . S
C471 H486 0.961 . S
C471 H487 0.960 . S
H472 C456 0.931 . S
H473 C461 0.929 . S
H474 C462 0.960 . S
H475 C462 0.962 . S
H476 C462 0.960 . S
H477 C463 0.961 . S
H478 C463 0.961 . S
H479 C463 0.961 . S
H480 C464 0.931 1_556 S
H481 C469 0.930 . S
H482 C470 0.956 . S
H483 C470 0.961 . S
H484 C470 0.961 . S
H485 C471 0.958 . S
H486 C471 0.961 . S
H487 C471 0.960 . S
C488 C489 1.391 1_455 S
C488 C490 1.394 . S
C488 H504 0.931 . S
C489 C488 1.391 1_655 S
C489 C493 1.376 . S
C490 C488 1.394 . S
C490 C491 1.369 1_455 S
C490 C494 1.531 . S
C491 C490 1.369 1_655 S
C491 C492 1.410 . S
C491 C499 1.503 . S
C492 C491 1.410 . S
C492 C493 1.392 . S
C492 C495 1.511 . S
C493 C489 1.376 . S
C493 C492 1.392 . S
C493 H505 0.929 . S
C494 C490 1.531 . S
C494 H506 0.960 . S
C494 H507 0.962 . S
C494 H508 0.960 . S
C495 C492 1.511 . S
C495 H509 0.961 . S
C495 H510 0.961 . S
C495 H511 0.961 . S
C496 C497 1.356 1_455 S
C496 C498 1.363 1_556 S
C496 H512 0.931 . S
C497 C496 1.356 1_655 S
C497 C501 1.424 1_556 S
C498 C496 1.363 1_554 S
C498 C499 1.370 1_455 S
C498 C502 1.524 . S
C499 C491 1.503 . S
C499 C498 1.370 1_655 S
C499 C500 1.403 . S
C500 C499 1.403 . S
C500 C501 1.404 . S
C500 C503 1.539 . S
C501 C497 1.424 1_554 S
C501 C500 1.404 . S
C501 H513 0.930 . S
C502 C498 1.524 . S
C502 H514 0.956 . S
C502 H515 0.961 . S
C502 H516 0.961 1_554 S
C503 C500 1.539 . S
C503 H517 0.958 . S
C503 H518 0.961 . S
C503 H519 0.960 . S
H504 C488 0.931 . S
H505 C493 0.929 . S
H506 C494 0.960 . S
H507 C494 0.962 . S
H508 C494 0.960 . S
H509 C495 0.961 . S
H510 C495 0.961 . S
H511 C495 0.961 . S
H512 C496 0.931 . S
H513 C501 0.930 . S
H514 C502 0.956 . S
H515 C502 0.961 . S
H516 C502 0.961 1_556 S
H517 C503 0.958 . S
H518 C503 0.961 . S
H519 C503 0.960 . S
C520 C521 1.391 . S
C520 C522 1.394 . S
C520 H536 0.931 . S
C521 C520 1.391 . S
C521 C525 1.376 1_455 S
C522 C520 1.394 . S
C522 C523 1.369 1_455 S
C522 C526 1.531 . S
C523 C522 1.369 1_655 S
C523 C524 1.410 . S
C523 C531 1.503 . S
C524 C523 1.410 . S
C524 C525 1.392 . S
C524 C527 1.511 . S
C525 C521 1.376 1_655 S
C525 C524 1.392 . S
C525 H537 0.929 . S
C526 C522 1.531 . S
C526 H538 0.960 . S
C526 H539 0.962 . S
C526 H540 0.960 . S
C527 C524 1.511 . S
C527 H541 0.961 . S
C527 H542 0.961 . S
C527 H543 0.961 . S
C528 C529 1.370 . S
C528 C530 1.363 . S
C528 H544 0.931 . S
C529 C528 1.370 . S
C529 C533 1.408 . S
C530 C528 1.363 . S
C530 C531 1.370 . S
C530 C534 1.524 . S
C531 C523 1.503 . S
C531 C530 1.370 . S
C531 C532 1.403 . S
C532 C531 1.403 . S
C532 C533 1.404 . S
C532 C535 1.539 . S
C533 C529 1.408 . S
C533 C532 1.404 . S
C533 H545 0.930 . S
C534 C530 1.524 . S
C534 H546 0.956 1_655 S
C534 H547 0.961 . S
C534 H548 0.961 . S
C535 C532 1.539 . S
C535 H549 0.958 . S
C535 H550 0.961 . S
C535 H551 0.960 . S
H536 C520 0.931 . S
H537 C525 0.929 . S
H538 C526 0.960 . S
H539 C526 0.962 . S
H540 C526 0.960 . S
H541 C527 0.961 . S
H542 C527 0.961 . S
H543 C527 0.961 . S
H544 C528 0.931 . S
H545 C533 0.930 . S
H546 C534 0.956 1_455 S
H547 C534 0.961 . S
H548 C534 0.961 . S
H549 C535 0.958 . S
H550 C535 0.961 . S
H551 C535 0.960 . S
C552 C553 1.391 1_545 S
C552 C554 1.394 . S
C552 H568 0.931 . S
C553 C552 1.391 1_565 S
C553 C557 1.377 . S
C554 C552 1.394 . S
C554 C555 1.369 1_545 S
C554 C558 1.531 . S
C555 C554 1.369 1_565 S
C555 C556 1.410 . S
C555 C563 1.503 . S
C556 C555 1.410 . S
C556 C557 1.392 . S
C556 C559 1.511 . S
C557 C553 1.377 . S
C557 C556 1.392 . S
C557 H569 0.929 . S
C558 C554 1.531 . S
C558 H570 0.960 . S
C558 H571 0.962 . S
C558 H572 0.960 . S
C559 C556 1.511 . S
C559 H573 0.961 . S
C559 H574 0.961 . S
C559 H575 0.961 . S
C560 C561 1.370 . S
C560 C562 1.360 1_565 S
C560 H576 0.931 1_565 S
C561 C560 1.370 . S
C561 C565 1.408 . S
C562 C560 1.360 1_545 S
C562 C563 1.362 1_545 S
C562 C566 1.535 . S
C563 C555 1.503 . S
C563 C562 1.362 1_565 S
C563 C564 1.403 . S
C564 C563 1.403 . S
C564 C565 1.404 . S
C564 C567 1.539 . S
C565 C561 1.408 . S
C565 C564 1.404 . S
C565 H577 0.930 . S
C566 C562 1.535 . S
C566 H578 0.956 . S
C566 H579 0.961 . S
C566 H580 0.961 . S
C567 C564 1.539 . S
C567 H581 0.958 . S
C567 H582 0.961 . S
C567 H583 0.960 . S
H568 C552 0.931 . S
H569 C557 0.929 . S
H570 C558 0.960 . S
H571 C558 0.962 . S
H572 C558 0.960 . S
H573 C559 0.961 . S
H574 C559 0.961 . S
H575 C559 0.961 . S
H576 C560 0.931 1_545 S
H577 C565 0.930 . S
H578 C566 0.956 . S
H579 C566 0.961 . S
H580 C566 0.961 . S
H581 C567 0.958 . S
H582 C567 0.961 . S
H583 C567 0.960 . S
C584 C585 1.391 . S
C584 C586 1.394 . S
C584 H600 0.931 . S
C585 C584 1.391 . S
C585 C589 1.376 . S
C586 C584 1.394 . S
C586 C587 1.369 . S
C586 C590 1.531 . S
C587 C586 1.369 . S
C587 C588 1.410 . S
C587 C595 1.503 . S
C588 C587 1.410 . S
C588 C589 1.392 . S
C588 C591 1.511 . S
C589 C585 1.376 . S
C589 C588 1.392 . S
C589 H601 0.929 . S
C590 C586 1.531 . S
C590 H602 0.960 . S
C590 H603 0.962 . S
C590 H604 0.960 . S
C591 C588 1.511 . S
C591 H605 0.961 . S
C591 H606 0.961 . S
C591 H607 0.961 . S
C592 C593 1.370 . S
C592 C594 1.363 . S
C592 H608 0.931 . S
C593 C592 1.370 . S
C593 C597 1.408 . S
C594 C592 1.363 . S
C594 C595 1.370 . S
C594 C598 1.524 . S
C595 C587 1.503 . S
C595 C594 1.370 . S
C595 C596 1.403 . S
C596 C595 1.403 . S
C596 C597 1.404 . S
C596 C599 1.539 . S
C597 C593 1.408 . S
C597 C596 1.404 . S
C597 H609 0.930 . S
C598 C594 1.524 . S
C598 H610 0.956 . S
C598 H611 0.961 . S
C598 H612 0.961 . S
C599 C596 1.539 . S
C599 H613 0.958 . S
C599 H614 0.961 . S
C599 H615 0.960 . S
H600 C584 0.931 . S
H601 C589 0.929 . S
H602 C590 0.960 . S
H603 C590 0.962 . S
H604 C590 0.960 . S
H605 C591 0.961 . S
H606 C591 0.961 . S
H607 C591 0.961 . S
H608 C592 0.931 . S
H609 C597 0.930 . S
H610 C598 0.956 . S
H611 C598 0.961 . S
H612 C598 0.961 . S
H613 C599 0.958 . S
H614 C599 0.961 . S
H615 C599 0.960 . S
C616 C617 1.391 . S
C616 C618 1.394 . S
C616 H632 0.931 . S
C617 C616 1.391 . S
C617 C621 1.376 . S
C618 C616 1.394 . S
C618 C619 1.369 . S
C618 C622 1.531 . S
C619 C618 1.369 . S
C619 C620 1.410 . S
C619 C627 1.503 . S
C620 C619 1.410 . S
C620 C621 1.392 . S
C620 C623 1.511 . S
C621 C617 1.376 . S
C621 C620 1.392 . S
C621 H633 0.929 . S
C622 C618 1.531 . S
C622 H634 0.960 . S
C622 H635 0.962 . S
C622 H636 0.960 . S
C623 C620 1.511 . S
C623 H637 0.961 . S
C623 H638 0.961 . S
C623 H639 0.961 . S
C624 C625 1.370 . S
C624 C626 1.363 . S
C624 H640 0.931 . S
C625 C624 1.370 . S
C625 C629 1.408 . S
C626 C624 1.363 . S
C626 C627 1.370 . S
C626 C630 1.524 . S
C627 C619 1.503 . S
C627 C626 1.370 . S
C627 C628 1.403 . S
C628 C627 1.403 . S
C628 C629 1.404 . S
C628 C631 1.539 . S
C629 C625 1.408 . S
C629 C628 1.404 . S
C629 H641 0.930 . S
C630 C626 1.524 . S
C630 H642 0.956 . S
C630 H643 0.961 . S
C630 H644 0.961 . S
C631 C628 1.539 . S
C631 H645 0.958 . S
C631 H646 0.961 . S
C631 H647 0.960 . S
H632 C616 0.931 . S
H633 C621 0.929 . S
H634 C622 0.960 . S
H635 C622 0.962 . S
H636 C622 0.960 . S
H637 C623 0.961 . S
H638 C623 0.961 . S
H639 C623 0.961 . S
H640 C624 0.931 . S
H641 C629 0.930 . S
H642 C630 0.956 . S
H643 C630 0.961 . S
H644 C630 0.961 . S
H645 C631 0.958 . S
H646 C631 0.961 . S
H647 C631 0.960 . S
C648 C649 1.377 1_455 S
C648 C650 1.394 . S
C648 H664 0.931 . S
C649 C648 1.377 1_655 S
C649 C653 1.386 . S
C650 C648 1.394 . S
C650 C651 1.369 . S
C650 C654 1.531 . S
C651 C650 1.369 . S
C651 C652 1.410 1_455 S
C651 C659 1.503 . S
C652 C651 1.410 1_655 S
C652 C653 1.392 . S
C652 C655 1.511 . S
C653 C649 1.386 . S
C653 C652 1.392 . S
C653 H665 0.929 . S
C654 C650 1.531 . S
C654 H666 0.960 . S
C654 H667 0.962 . S
C654 H668 0.960 . S
C655 C652 1.511 . S
C655 H669 0.961 . S
C655 H670 0.961 . S
C655 H671 0.961 . S
C656 C657 1.370 . S
C656 C658 1.363 . S
C656 H672 0.931 . S
C657 C656 1.370 . S
C657 C661 1.408 . S
C658 C656 1.363 . S
C658 C659 1.370 . S
C658 C662 1.524 . S
C659 C651 1.503 . S
C659 C658 1.370 . S
C659 C660 1.403 . S
C660 C659 1.403 . S
C660 C661 1.404 . S
C660 C663 1.539 . S
C661 C657 1.408 . S
C661 C660 1.404 . S
C661 H673 0.930 . S
C662 C658 1.524 . S
C662 H674 0.956 . S
C662 H675 0.961 . S
C662 H676 0.961 . S
C663 C660 1.539 . S
C663 H677 0.958 . S
C663 H678 0.961 . S
C663 H679 0.960 1_455 S
H664 C648 0.931 . S
H665 C653 0.929 . S
H666 C654 0.960 . S
H667 C654 0.962 . S
H668 C654 0.960 . S
H669 C655 0.961 . S
H670 C655 0.961 . S
H671 C655 0.961 . S
H672 C656 0.931 . S
H673 C661 0.930 . S
H674 C662 0.956 . S
H675 C662 0.961 . S
H676 C662 0.961 . S
H677 C663 0.958 . S
H678 C663 0.961 . S
H679 C663 0.960 1_655 S
C680 C681 1.391 . S
C680 C682 1.394 . S
C680 H696 0.931 . S
C681 C680 1.391 . S
C681 C685 1.376 1_565 S
C682 C680 1.394 . S
C682 C683 1.369 1_565 S
C682 C686 1.531 . S
C683 C682 1.369 1_545 S
C683 C684 1.410 . S
C683 C691 1.503 . S
C684 C683 1.410 . S
C684 C685 1.392 . S
C684 C687 1.511 . S
C685 C681 1.376 1_545 S
C685 C684 1.392 . S
C685 H697 0.929 . S
C686 C682 1.531 . S
C686 H698 0.960 . S
C686 H699 0.962 . S
C686 H700 0.960 . S
C687 C684 1.511 . S
C687 H701 0.961 . S
C687 H702 0.961 . S
C687 H703 0.961 . S
C688 C689 1.370 . S
C688 C690 1.363 . S
C688 H704 0.931 . S
C689 C688 1.370 . S
C689 C693 1.395 1_545 S
C690 C688 1.363 . S
C690 C691 1.370 . S
C690 C694 1.524 . S
C691 C683 1.503 . S
C691 C690 1.370 . S
C691 C692 1.403 1_545 S
C692 C691 1.403 1_565 S
C692 C693 1.409 . S
C692 C695 1.539 . S
C693 C689 1.395 1_565 S
C693 C692 1.409 . S
C693 H705 0.938 . S
C694 C690 1.524 . S
C694 H706 0.956 . S
C694 H707 0.961 . S
C694 H708 0.961 . S
C695 C692 1.539 . S
C695 H709 0.958 . S
C695 H710 0.961 . S
C695 H711 0.960 . S
H696 C680 0.931 . S
H697 C685 0.929 . S
H698 C686 0.960 . S
H699 C686 0.962 . S
H700 C686 0.960 . S
H701 C687 0.961 . S
H702 C687 0.961 . S
H703 C687 0.961 . S
H704 C688 0.931 . S
H705 C693 0.938 . S
H706 C694 0.956 . S
H707 C694 0.961 . S
H708 C694 0.961 . S
H709 C695 0.958 . S
H710 C695 0.961 . S
H711 C695 0.960 . S
C712 C713 1.391 . S
C712 C714 1.394 . S
C712 H728 0.931 . S
C713 C712 1.391 . S
C713 C717 1.376 . S
C714 C712 1.394 . S
C714 C715 1.369 . S
C714 C718 1.531 1_556 S
C715 C714 1.369 . S
C715 C716 1.410 . S
C715 C723 1.503 . S
C716 C715 1.410 . S
C716 C717 1.392 . S
C716 C719 1.511 . S
C717 C713 1.376 . S
C717 C716 1.392 . S
C717 H729 0.929 . S
C718 C714 1.531 1_554 S
C718 H730 0.960 . S
C718 H731 0.962 1_554 S
C718 H732 0.960 . S
C719 C716 1.511 . S
C719 H733 0.961 . S
C719 H734 0.961 . S
C719 H735 0.961 . S
C720 C721 1.370 . S
C720 C722 1.363 . S
C720 H736 0.931 . S
C721 C720 1.370 . S
C721 C725 1.408 . S
C722 C720 1.363 . S
C722 C723 1.370 . S
C722 C726 1.524 . S
C723 C715 1.503 . S
C723 C722 1.370 . S
C723 C724 1.403 . S
C724 C723 1.403 . S
C724 C725 1.404 . S
C724 C727 1.539 1_556 S
C725 C721 1.408 . S
C725 C724 1.404 . S
C725 H737 0.930 . S
C726 C722 1.524 . S
C726 H738 0.956 . S
C726 H739 0.961 . S
C726 H740 0.961 . S
C727 C724 1.539 1_554 S
C727 H741 0.958 . S
C727 H742 0.961 . S
C727 H743 0.960 . S
H728 C712 0.931 . S
H729 C717 0.929 . S
H730 C718 0.960 . S
H731 C718 0.962 1_556 S
H732 C718 0.960 . S
H733 C719 0.961 . S
H734 C719 0.961 . S
H735 C719 0.961 . S
H736 C720 0.931 . S
H737 C725 0.930 . S
H738 C726 0.956 . S
H739 C726 0.961 . S
H740 C726 0.961 . S
H741 C727 0.958 . S
H742 C727 0.961 . S
H743 C727 0.960 . S
C744 C745 1.391 . S
C744 C746 1.394 . S
C744 H760 0.931 . S
C745 C744 1.391 . S
C745 C749 1.376 . S
C746 C744 1.394 . S
C746 C747 1.369 . S
C746 C750 1.531 . S
C747 C746 1.369 . S
C747 C748 1.410 . S
C747 C755 1.503 . S
C748 C747 1.410 . S
C748 C749 1.392 . S
C748 C751 1.511 . S
C749 C745 1.376 . S
C749 C748 1.392 . S
C749 H761 0.929 . S
C750 C746 1.531 . S
C750 H762 0.960 . S
C750 H763 0.962 . S
C750 H764 0.960 . S
C751 C748 1.511 . S
C751 H765 0.961 . S
C751 H766 0.961 . S
C751 H767 0.961 . S
C752 C753 1.370 . S
C752 C754 1.363 . S
C752 H768 0.931 . S
C753 C752 1.370 . S
C753 C757 1.408 . S
C754 C752 1.363 . S
C754 C755 1.370 . S
C754 C758 1.524 . S
C755 C747 1.503 . S
C755 C754 1.370 . S
C755 C756 1.403 . S
C756 C755 1.403 . S
C756 C757 1.404 . S
C756 C759 1.539 . S
C757 C753 1.408 . S
C757 C756 1.404 . S
C757 H769 0.930 . S
C758 C754 1.524 . S
C758 H770 0.956 . S
C758 H771 0.961 . S
C758 H772 0.961 . S
C759 C756 1.539 . S
C759 H773 0.958 . S
C759 H774 0.961 . S
C759 H775 0.960 . S
H760 C744 0.931 . S
H761 C749 0.929 . S
H762 C750 0.960 . S
H763 C750 0.962 . S
H764 C750 0.960 . S
H765 C751 0.961 . S
H766 C751 0.961 . S
H767 C751 0.961 . S
H768 C752 0.931 . S
H769 C757 0.930 . S
H770 C758 0.956 . S
H771 C758 0.961 . S
H772 C758 0.961 . S
H773 C759 0.958 . S
H774 C759 0.961 . S
H775 C759 0.960 . S
C776 C777 1.391 . S
C776 C778 1.394 . S
C776 H792 0.931 . S
C777 C776 1.391 . S
C777 C781 1.376 1_455 S
C778 C776 1.394 . S
C778 C779 1.369 . S
C778 C782 1.531 . S
C779 C778 1.369 . S
C779 C780 1.410 1_455 S
C779 C787 1.503 1_554 S
C780 C779 1.410 1_655 S
C780 C781 1.392 . S
C780 C783 1.511 1_554 S
C781 C777 1.376 1_655 S
C781 C780 1.392 . S
C781 H793 0.929 . S
C782 C778 1.531 . S
C782 H794 0.960 . S
C782 H795 0.962 . S
C782 H796 0.960 . S
C783 C780 1.511 1_556 S
C783 H797 0.961 . S
C783 H798 0.961 . S
C783 H799 0.961 . S
C784 C785 1.370 . S
C784 C786 1.363 . S
C784 H800 0.931 . S
C785 C784 1.370 . S
C785 C789 1.408 1_556 S
C786 C784 1.363 . S
C786 C787 1.370 . S
C786 C790 1.524 . S
C787 C779 1.503 1_556 S
C787 C786 1.370 . S
C787 C788 1.400 1_456 S
C788 C787 1.400 1_654 S
C788 C789 1.403 1_655 S
C788 C791 1.545 . S
C789 C785 1.408 1_554 S
C789 C788 1.403 1_455 S
C789 H801 0.930 1_455 S
C790 C786 1.524 . S
C790 H802 0.956 . S
C790 H803 0.961 . S
C790 H804 0.961 . S
C791 C788 1.545 . S
C791 H805 0.958 . S
C791 H806 0.961 . S
C791 H807 0.960 . S
H792 C776 0.931 . S
H793 C781 0.929 . S
H794 C782 0.960 . S
H795 C782 0.962 . S
H796 C782 0.960 . S
H797 C783 0.961 . S
H798 C783 0.961 . S
H799 C783 0.961 . S
H800 C784 0.931 . S
H801 C789 0.930 1_655 S
H802 C790 0.956 . S
H803 C790 0.961 . S
H804 C790 0.961 . S
H805 C791 0.958 . S
H806 C791 0.961 . S
H807 C791 0.960 . S
C808 C809 1.391 1_556 S
C808 C810 1.394 . S
C808 H824 0.931 . S
C809 C808 1.391 1_554 S
C809 C813 1.376 1_545 S
C810 C808 1.394 . S
C810 C811 1.369 1_556 S
C810 C814 1.531 . S
C811 C810 1.369 1_554 S
C811 C812 1.410 1_545 S
C811 C819 1.503 1_554 S
C812 C811 1.410 1_565 S
C812 C813 1.392 . S
C812 C815 1.511 . S
C813 C809 1.376 1_565 S
C813 C812 1.392 . S
C813 H825 0.929 . S
C814 C810 1.531 . S
C814 H826 0.960 . S
C814 H827 0.962 . S
C814 H828 0.960 . S
C815 C812 1.511 . S
C815 H829 0.961 . S
C815 H830 0.961 . S
C815 H831 0.961 . S
C816 C817 1.370 1_565 S
C816 C818 1.363 . S
C816 H832 0.931 . S
C817 C816 1.370 1_545 S
C817 C821 1.408 1_556 S
C818 C816 1.363 . S
C818 C819 1.370 1_565 S
C818 C822 1.524 . S
C819 C811 1.503 1_556 S
C819 C818 1.370 1_545 S
C819 C820 1.403 1_556 S
C820 C819 1.403 1_554 S
C820 C821 1.404 . S
C820 C823 1.539 . S
C821 C817 1.408 1_554 S
C821 C820 1.404 . S
C821 H833 0.930 . S
C822 C818 1.524 . S
C822 H834 0.956 . S
C822 H835 0.961 . S
C822 H836 0.961 . S
C823 C820 1.539 . S
C823 H837 0.958 . S
C823 H838 0.961 . S
C823 H839 0.960 . S
H824 C808 0.931 . S
H825 C813 0.929 . S
H826 C814 0.960 . S
H827 C814 0.962 . S
H828 C814 0.960 . S
H829 C815 0.961 . S
H830 C815 0.961 . S
H831 C815 0.961 . S
H832 C816 0.931 . S
H833 C821 0.930 . S
H834 C822 0.956 . S
H835 C822 0.961 . S
H836 C822 0.961 . S
H837 C823 0.958 . S
H838 C823 0.961 . S
H839 C823 0.960 . S
C840 C841 1.391 . S
C840 C842 1.394 . S
C840 H856 0.931 . S
C841 C840 1.391 . S
C841 C845 1.376 . S
C842 C840 1.394 . S
C842 C843 1.369 . S
C842 C846 1.531 . S
C843 C842 1.369 . S
C843 C844 1.410 . S
C843 C851 1.503 . S
C844 C843 1.410 . S
C844 C845 1.392 . S
C844 C847 1.511 . S
C845 C841 1.376 . S
C845 C844 1.392 . S
C845 H857 0.929 . S
C846 C842 1.531 . S
C846 H858 0.960 . S
C846 H859 0.962 . S
C846 H860 0.960 . S
C847 C844 1.511 . S
C847 H861 0.961 . S
C847 H862 0.961 . S
C847 H863 0.961 . S
C848 C849 1.370 . S
C848 C850 1.363 . S
C848 H864 0.931 . S
C849 C848 1.370 . S
C849 C853 1.408 . S
C850 C848 1.363 . S
C850 C851 1.370 . S
C850 C854 1.524 . S
C851 C843 1.503 . S
C851 C850 1.370 . S
C851 C852 1.403 . S
C852 C851 1.403 . S
C852 C853 1.404 . S
C852 C855 1.539 . S
C853 C849 1.408 . S
C853 C852 1.404 . S
C853 H865 0.930 . S
C854 C850 1.524 . S
C854 H866 0.956 . S
C854 H867 0.961 . S
C854 H868 0.961 . S
C855 C852 1.539 . S
C855 H869 0.958 . S
C855 H870 0.961 . S
C855 H871 0.960 . S
H856 C840 0.931 . S
H857 C845 0.929 . S
H858 C846 0.960 . S
H859 C846 0.962 . S
H860 C846 0.960 . S
H861 C847 0.961 . S
H862 C847 0.961 . S
H863 C847 0.961 . S
H864 C848 0.931 . S
H865 C853 0.930 . S
H866 C854 0.956 . S
H867 C854 0.961 . S
H868 C854 0.961 . S
H869 C855 0.958 . S
H870 C855 0.961 . S
H871 C855 0.960 . S
C872 C873 1.391 . S
C872 C874 1.394 . S
C872 H888 0.931 . S
C873 C872 1.391 . S
C873 C877 1.376 1_554 S
C874 C872 1.394 . S
C874 C875 1.369 1_554 S
C874 C878 1.531 . S
C875 C874 1.369 1_556 S
C875 C876 1.410 . S
C875 C883 1.503 . S
C876 C875 1.410 . S
C876 C877 1.392 . S
C876 C879 1.511 . S
C877 C873 1.376 1_556 S
C877 C876 1.392 . S
C877 H889 0.929 . S
C878 C874 1.531 . S
C878 H890 0.960 . S
C878 H891 0.962 . S
C878 H892 0.960 . S
C879 C876 1.511 . S
C879 H893 0.961 . S
C879 H894 0.961 . S
C879 H895 0.961 . S
C880 C881 1.370 . S
C880 C882 1.363 . S
C880 H896 0.931 . S
C881 C880 1.370 . S
C881 C885 1.408 . S
C882 C880 1.363 . S
C882 C883 1.370 . S
C882 C886 1.524 1_556 S
C883 C875 1.503 . S
C883 C882 1.370 . S
C883 C884 1.403 . S
C884 C883 1.403 . S
C884 C885 1.404 . S
C884 C887 1.539 . S
C885 C881 1.408 . S
C885 C884 1.404 . S
C885 H897 0.930 . S
C886 C882 1.524 1_554 S
C886 H898 0.956 . S
C886 H899 0.961 . S
C886 H900 0.961 . S
C887 C884 1.539 . S
C887 H901 0.958 . S
C887 H902 0.961 . S
C887 H903 0.960 . S
H888 C872 0.931 . S
H889 C877 0.929 . S
H890 C878 0.960 . S
H891 C878 0.962 . S
H892 C878 0.960 . S
H893 C879 0.961 . S
H894 C879 0.961 . S
H895 C879 0.961 . S
H896 C880 0.931 . S
H897 C885 0.930 . S
H898 C886 0.956 . S
H899 C886 0.961 . S
H900 C886 0.961 . S
H901 C887 0.958 . S
H902 C887 0.961 . S
H903 C887 0.960 . S
C904 C905 1.391 1_455 S
C904 C906 1.394 . S
C904 H920 0.931 . S
C905 C904 1.391 1_655 S
C905 C909 1.376 . S
C906 C904 1.394 . S
C906 C907 1.369 1_455 S
C906 C910 1.531 . S
C907 C906 1.369 1_655 S
C907 C908 1.410 . S
C907 C915 1.503 . S
C908 C907 1.410 . S
C908 C909 1.392 . S
C908 C911 1.511 . S
C909 C905 1.376 . S
C909 C908 1.392 . S
C909 H921 0.929 . S
C910 C906 1.531 . S
C910 H922 0.960 . S
C910 H923 0.962 . S
C910 H924 0.960 . S
C911 C908 1.511 . S
C911 H925 0.961 . S
C911 H926 0.961 . S
C911 H927 0.961 . S
C912 C913 1.370 . S
C912 C914 1.364 . S
C912 H928 0.931 1_655 S
C913 C912 1.370 . S
C913 C917 1.408 . S
C914 C912 1.364 . S
C914 C915 1.376 . S
C914 C918 1.518 1_655 S
C915 C907 1.503 . S
C915 C914 1.376 . S
C915 C916 1.403 . S
C916 C915 1.403 . S
C916 C917 1.404 . S
C916 C919 1.539 . S
C917 C913 1.408 . S
C917 C916 1.404 . S
C917 H929 0.930 . S
C918 C914 1.518 1_455 S
C918 H930 0.956 . S
C918 H931 0.932 1_455 S
C918 H932 0.961 . S
C919 C916 1.539 . S
C919 H933 0.958 . S
C919 H934 0.961 . S
C919 H935 0.960 . S
H920 C904 0.931 . S
H921 C909 0.929 . S
H922 C910 0.960 . S
H923 C910 0.962 . S
H924 C910 0.960 . S
H925 C911 0.961 . S
H926 C911 0.961 . S
H927 C911 0.961 . S
H928 C912 0.931 1_455 S
H929 C917 0.930 . S
H930 C918 0.956 . S
H931 C918 0.932 1_655 S
H932 C918 0.961 . S
H933 C919 0.958 . S
H934 C919 0.961 . S
H935 C919 0.960 . S
C936 C937 1.391 . S
C936 C938 1.394 . S
C936 H952 0.931 . S
C937 C936 1.391 . S
C937 C941 1.376 . S
C938 C936 1.394 . S
C938 C939 1.369 . S
C938 C942 1.531 . S
C939 C938 1.369 . S
C939 C940 1.410 . S
C939 C947 1.505 . S
C940 C939 1.410 . S
C940 C941 1.392 . S
C940 C943 1.511 . S
C941 C937 1.376 . S
C941 C940 1.392 . S
C941 H953 0.923 . S
C942 C938 1.531 . S
C942 H954 0.960 . S
C942 H955 0.962 1_545 S
C942 H956 0.960 . S
C943 C940 1.511 . S
C943 H957 0.961 1_545 S
C943 H958 0.961 1_545 S
C943 H959 0.961 . S
C944 C945 1.370 . S
C944 C946 1.363 . S
C944 H960 0.931 . S
C945 C944 1.370 . S
C945 C949 1.408 1_565 S
C946 C944 1.363 . S
C946 C947 1.357 1_565 S
C946 C950 1.524 . S
C947 C939 1.505 . S
C947 C946 1.357 1_545 S
C947 C948 1.415 . S
C948 C947 1.415 . S
C948 C949 1.404 . S
C948 C951 1.539 . S
C949 C945 1.408 1_545 S
C949 C948 1.404 . S
C949 H961 0.930 . S
C950 C946 1.524 . S
C950 H962 0.956 . S
C950 H963 0.961 . S
C950 H964 0.961 . S
C951 C948 1.539 . S
C951 H965 0.958 . S
C951 H966 0.961 . S
C951 H967 0.960 . S
H952 C936 0.931 . S
H953 C941 0.923 . S
H954 C942 0.960 . S
H955 C942 0.962 1_565 S
H956 C942 0.960 . S
H957 C943 0.961 1_565 S
H958 C943 0.961 1_565 S
H959 C943 0.961 . S
H960 C944 0.931 . S
H961 C949 0.930 . S
H962 C950 0.956 . S
H963 C950 0.961 . S
H964 C950 0.961 . S
H965 C951 0.958 . S
H966 C951 0.961 . S
H967 C951 0.960 . S
C968 C969 1.391 . S
C968 C970 1.394 . S
C968 H984 0.931 . S
C969 C968 1.391 . S
C969 C973 1.376 . S
C970 C968 1.394 . S
C970 C971 1.369 . S
C970 C974 1.531 . S
C971 C970 1.369 . S
C971 C972 1.410 . S
C971 C979 1.503 . S
C972 C971 1.410 . S
C972 C973 1.392 . S
C972 C975 1.511 . S
C973 C969 1.376 . S
C973 C972 1.392 . S
C973 H985 0.929 . S
C974 C970 1.531 . S
C974 H986 0.960 . S
C974 H987 0.962 . S
C974 H988 0.960 . S
C975 C972 1.511 . S
C975 H989 0.961 . S
C975 H990 0.961 . S
C975 H991 0.961 . S
C976 C977 1.370 . S
C976 C978 1.363 . S
C976 H992 0.931 . S
C977 C976 1.370 . S
C977 C981 1.408 . S
C978 C976 1.363 . S
C978 C979 1.370 . S
C978 C982 1.524 . S
C979 C971 1.503 . S
C979 C978 1.370 . S
C979 C980 1.403 . S
C980 C979 1.403 . S
C980 C981 1.404 . S
C980 C983 1.539 . S
C981 C977 1.408 . S
C981 C980 1.404 . S
C981 H993 0.930 . S
C982 C978 1.524 . S
C982 H994 0.956 . S
C982 H995 0.961 . S
C982 H996 0.961 . S
C983 C980 1.539 . S
C983 H997 0.958 . S
C983 H998 0.961 . S
C983 H999 0.960 . S
H984 C968 0.931 . S
H985 C973 0.929 . S
H986 C974 0.960 . S
H987 C974 0.962 . S
H988 C974 0.960 . S
H989 C975 0.961 . S
H990 C975 0.961 . S
H991 C975 0.961 . S
H992 C976 0.931 . S
H993 C981 0.930 . S
H994 C982 0.956 . S
H995 C982 0.961 . S
H996 C982 0.961 . S
H997 C983 0.958 . S
H998 C983 0.961 . S
H999 C983 0.960 . S
C1000 C1001 1.391 . S
C1000 C1002 1.394 . S
C1000 H1016 0.931 . S
C1001 C1000 1.391 . S
C1001 C1005 1.376 . S
C1002 C1000 1.394 . S
C1002 C1003 1.369 . S
C1002 C1006 1.531 . S
C1003 C1002 1.369 . S
C1003 C1004 1.410 . S
C1003 C1011 1.503 . S
C1004 C1003 1.410 . S
C1004 C1005 1.392 . S
C1004 C1007 1.511 . S
C1005 C1001 1.376 . S
C1005 C1004 1.392 . S
C1005 H1017 0.929 . S
C1006 C1002 1.531 . S
C1006 H1018 0.960 . S
C1006 H1019 0.962 . S
C1006 H1020 0.960 . S
C1007 C1004 1.511 . S
C1007 H1021 0.961 . S
C1007 H1022 0.961 . S
C1007 H1023 0.961 . S
C1008 C1009 1.370 . S
C1008 C1010 1.363 . S
C1008 H1024 0.931 . S
C1009 C1008 1.370 . S
C1009 C1013 1.408 . S
C1010 C1008 1.363 . S
C1010 C1011 1.370 . S
C1010 C1014 1.524 . S
C1011 C1003 1.503 . S
C1011 C1010 1.370 . S
C1011 C1012 1.403 . S
C1012 C1011 1.403 . S
C1012 C1013 1.404 . S
C1012 C1015 1.539 . S
C1013 C1009 1.408 . S
C1013 C1012 1.404 . S
C1013 H1025 0.930 . S
C1014 C1010 1.524 . S
C1014 H1026 0.956 . S
C1014 H1027 0.961 . S
C1014 H1028 0.961 . S
C1015 C1012 1.539 . S
C1015 H1029 0.958 . S
C1015 H1030 0.961 . S
C1015 H1031 0.960 . S
H1016 C1000 0.931 . S
H1017 C1005 0.929 . S
H1018 C1006 0.960 . S
H1019 C1006 0.962 . S
H1020 C1006 0.960 . S
H1021 C1007 0.961 . S
H1022 C1007 0.961 . S
H1023 C1007 0.961 . S
H1024 C1008 0.931 . S
H1025 C1013 0.930 . S
H1026 C1014 0.956 . S
H1027 C1014 0.961 . S
H1028 C1014 0.961 . S
H1029 C1015 0.958 . S
H1030 C1015 0.961 . S
H1031 C1015 0.960 . S
C265 C82 1.686 . S
C273 C127 2.012 1_545 S
C305 C167 1.723 . S
C297 C95 1.672 . S
C337 C186 2.018 . S
C329 C56 1.733 . S
C369 C247 1.414 1_455 S
C361 C69 1.293 . S
C401 C106 2.009 1_565 S
C393 C30 1.721 1_565 S
C425 C43 1.623 . S
C433 C146 1.729 . S
C457 C4 1.732 . S
C465 C207 2.019 . S
C489 C17 1.293 1_655 S
C497 C226 1.414 1_655 S
C529 C108 0.874 . S
C521 C74 0.898 . S
C561 C148 0.392 . S
C553 C87 0.416 1_565 S
C593 C204 0.947 . S
C585 C100 0.834 . S
C617 C61 0.502 . S
C625 C228 0.409 . S
C649 C22 0.914 . S
C657 C129 0.860 . S
C689 C169 0.351 . S
C681 C35 0.387 1_565 S
C721 C215 0.946 . S
C713 C48 0.801 . S
C745 C9 0.491 . S
C753 C249 0.420 . S
C777 C73 1.417 . S
C785 C124 1.592 . S
C809 C86 2.125 . S
C817 C164 2.355 . S
C849 C188 1.523 . S
C841 C99 1.480 . S
C881 C244 2.334 . S
C873 C60 2.163 . S
C905 C21 1.416 . S
C913 C135 1.613 . S
C945 C175 2.347 . S
C937 C34 2.143 . S
C977 C209 1.513 . S
C969 C47 1.474 . S
C1001 C8 2.117 . S
C1009 C255 2.343 . S
