# Generated by pormake.
# Topology dag, (6,3)-cn, num edge types: 1
# Building blocks:
#     Node 0, Type 0, BuildingBlock: OJICUG_clean_sbu_0, # of connection points: 6
#     Node 1, Type 0, BuildingBlock: OJICUG_clean_sbu_0, # of connection points: 6
#     Node 2, Type 0, BuildingBlock: OJICUG_clean_sbu_0, # of connection points: 6
#     Node 3, Type 0, BuildingBlock: OJICUG_clean_sbu_0, # of connection points: 6
#     Node 4, Type 1, BuildingBlock: VETTIZ_charged_linker_0, # of connection points: 3
#     Node 5, Type 1, BuildingBlock: VETTIZ_charged_linker_0, # of connection points: 3
#     Node 6, Type 1, BuildingBlock: VETTIZ_charged_linker_0, # of connection points: 3
#     Node 7, Type 1, BuildingBlock: VETTIZ_charged_linker_0, # of connection points: 3
#     Node 8, Type 1, BuildingBlock: VETTIZ_charged_linker_0, # of connection points: 3
#     Node 9, Type 1, BuildingBlock: VETTIZ_charged_linker_0, # of connection points: 3
#     Node 10, Type 1, BuildingBlock: VETTIZ_charged_linker_0, # of connection points: 3
#     Node 11, Type 1, BuildingBlock: VETTIZ_charged_linker_0, # of connection points: 3
#     Edge 12, Type (0, 1), None
#     Edge 13, Type (0, 1), None
#     Edge 14, Type (0, 1), None
#     Edge 15, Type (0, 1), None
#     Edge 16, Type (0, 1), None
#     Edge 17, Type (0, 1), None
#     Edge 18, Type (0, 1), None
#     Edge 19, Type (0, 1), None
#     Edge 20, Type (0, 1), None
#     Edge 21, Type (0, 1), None
#     Edge 22, Type (0, 1), None
#     Edge 23, Type (0, 1), None
#     Edge 24, Type (0, 1), None
#     Edge 25, Type (0, 1), None
#     Edge 26, Type (0, 1), None
#     Edge 27, Type (0, 1), None
#     Edge 28, Type (0, 1), None
#     Edge 29, Type (0, 1), None
#     Edge 30, Type (0, 1), None
#     Edge 31, Type (0, 1), None
#     Edge 32, Type (0, 1), None
#     Edge 33, Type (0, 1), None
#     Edge 34, Type (0, 1), None
#     Edge 35, Type (0, 1), None
# Relax obj value: 0.268
# Max RMSD: 0.196
# Mean RMSD: 0.162
data_MOF--net-dag--node1-OJICUG_clean_sbu_0--node2-VETTIZ_charged_linker_0--edge1-none
_symmetry_space_group_name_H-M    P1
_symmetry_Int_Tables_number       1
_symmetry_cell_setting            triclinic
loop_
_symmetry_equiv_pos_as_xyz
'x, y, z'
_cell_length_a     25.14523
_cell_length_b     25.17008
_cell_length_c     26.21846
_cell_angle_alpha  89.864631
_cell_angle_beta   89.999538
_cell_angle_gamma 89.9986
loop_
_atom_site_label
_atom_site_type_symbol
_atom_site_fract_x
_atom_site_fract_y
_atom_site_fract_z
_atom_type_partial_charge
Sc0 Sc 0.13735 0.85374 0.00236 0.0
Sc1 Sc 0.16117 0.71893 -0.0029 0.0
Sc2 Sc 0.26387 0.81036 0.01219 0.0
O3 O 0.18685 0.79375 0.00367 0.0
C4 C 0.22693 0.90836 0.94607 0.0
C5 C 0.08832 0.77605 0.91857 0.0
C6 C 0.25866 0.73117 0.92309 0.0
C7 C 0.07084 0.7731 0.06505 0.0
C8 C 0.21128 0.87928 0.09399 0.0
C9 C 0.25245 0.70621 0.07495 0.0
O10 O 0.18075 0.88914 0.9407 0.0
O11 O 0.11749 0.7355 0.92681 0.0
O12 O 0.27496 0.77691 0.93747 0.0
O13 O 0.09138 0.81916 0.06254 0.0
O14 O 0.24533 0.84217 0.08767 0.0
O15 O 0.20279 0.69954 0.06752 0.0
O16 O 0.18346 0.89713 0.05731 0.0
O17 O 0.08837 0.73362 0.0397 0.0
O18 O 0.28045 0.73384 0.0447 0.0
O19 O 0.08834 0.81629 0.94767 0.0
O20 O 0.25875 0.88997 0.97939 0.0
O21 O 0.23054 0.70084 0.95152 0.0
Sc22 Sc 0.76389 0.6858 0.48201 0.0
Sc23 Sc 0.66106 0.77712 0.49701 0.0
Sc24 Sc 0.63746 0.64223 0.49204 0.0
O25 O 0.68684 0.70232 0.49056 0.0
C26 C 0.7113 0.61681 0.40028 0.0
C27 C 0.75234 0.78983 0.41916 0.0
C28 C 0.57076 0.72271 0.4292 0.0
C29 C 0.75862 0.76506 0.57105 0.0
C30 C 0.72722 0.58778 0.5482 0.0
C31 C 0.5883 0.72004 0.57571 0.0
O32 O 0.74531 0.65396 0.40657 0.0
O33 O 0.70269 0.79645 0.42657 0.0
O34 O 0.59123 0.67662 0.43194 0.0
O35 O 0.77497 0.71933 0.5567 0.0
O36 O 0.68105 0.607 0.55366 0.0
O37 O 0.61729 0.76068 0.56728 0.0
O38 O 0.75894 0.60618 0.5148 0.0
O39 O 0.73037 0.79531 0.54266 0.0
O40 O 0.58855 0.67964 0.54681 0.0
O41 O 0.78037 0.76234 0.44951 0.0
O42 O 0.68355 0.59892 0.43699 0.0
O43 O 0.58833 0.7623 0.45435 0.0
Sc44 Sc 0.84792 0.26343 0.00172 0.0
Sc45 Sc 0.73394 0.17917 0.98777 0.0
Sc46 Sc 0.85952 0.1328 0.97041 0.0
O47 O 0.81404 0.19253 0.98998 0.0
C48 C 0.93436 0.22259 0.92484 0.0
C49 C 0.75331 0.28237 0.91987 0.0
C50 C 0.77749 0.10483 0.8986 0.0
C51 C 0.74623 0.26838 0.07359 0.0
C52 C 0.91579 0.17807 0.068 0.0
C53 C 0.76647 0.07738 0.03797 0.0
O54 O 0.90922 0.26139 0.94357 0.0
O55 O 0.72888 0.23914 0.93014 0.0
O56 O 0.81705 0.13511 0.90025 0.0
O57 O 0.79412 0.27791 0.06203 0.0
O58 O 0.90155 0.13888 0.04036 0.0
O59 O 0.73818 0.11841 0.04527 0.0
O60 O 0.90221 0.22648 0.05835 0.0
O61 O 0.71699 0.23698 0.0478 0.0
O62 O 0.80573 0.07749 0.00733 0.0
O63 O 0.79441 0.29868 0.94452 0.0
O64 O 0.92122 0.17512 0.93338 0.0
O65 O 0.73997 0.1138 0.93022 0.0
Sc66 Sc 0.35941 0.36348 0.5238 0.0
Sc67 Sc 0.23387 0.317 0.50649 0.0
Sc68 Sc 0.34791 0.2328 0.49261 0.0
O69 O 0.31397 0.30369 0.50429 0.0
C70 C 0.41571 0.31815 0.42626 0.0
C71 C 0.2663 0.41877 0.45621 0.0
C72 C 0.24623 0.22773 0.42073 0.0
C73 C 0.27736 0.39145 0.59561 0.0
C74 C 0.43432 0.27378 0.56945 0.0
C75 C 0.2533 0.21386 0.57445 0.0
O76 O 0.40143 0.35736 0.45385 0.0
O77 O 0.23805 0.37771 0.44894 0.0
O78 O 0.29413 0.21823 0.43229 0.0
O79 O 0.31695 0.36121 0.59398 0.0
O80 O 0.40919 0.23494 0.55077 0.0
O81 O 0.22884 0.25706 0.56416 0.0
O82 O 0.42115 0.32123 0.56086 0.0
O83 O 0.23984 0.38241 0.56399 0.0
O84 O 0.29442 0.19755 0.54982 0.0
O85 O 0.30558 0.4187 0.48684 0.0
O86 O 0.40218 0.26974 0.43596 0.0
O87 O 0.21697 0.25913 0.4465 0.0
C88 C 0.22487 0.94107 0.16732 0.0
C89 C 0.19597 0.89951 0.14442 0.0
C90 C 0.14179 0.89293 0.15748 0.0
C91 C 0.14162 0.97973 0.19427 0.0
C92 C 0.19631 0.97978 0.19471 0.0
C93 C 0.21694 0.02472 0.22721 0.0
H94 H 0.1525 0.24396 0.36565 0.0
C95 C 0.12247 0.03038 0.2134 0.0
C96 C 0.16536 0.05577 0.23657 0.0
H97 H 0.29417 0.14568 0.37272 0.0
H98 H 0.26349 0.09484 0.30203 0.0
H99 H 0.15604 0.25353 0.24748 0.0
H100 H 0.05922 0.15337 0.3407 0.0
H101 H 0.02234 0.18756 0.29236 0.0
H102 H 0.06 0.22488 0.33807 0.0
H103 H 0.08747 0.26857 0.25754 0.0
H104 H 0.10829 0.22776 0.20473 0.0
C105 C 0.25755 0.05779 0.19646 0.0
C106 C 0.2404 0.00031 0.2769 0.0
C107 C 0.97039 0.11234 0.1162 0.0
C108 C 0.9517 0.16493 0.11147 0.0
C109 C 0.96936 0.20304 0.14708 0.0
C110 C 0.00646 0.18908 0.18526 0.0
C111 C 0.0266 0.13691 0.18719 0.0
C112 C 0.00799 0.09935 0.15328 0.0
C113 C 0.0366 0.04691 0.15741 0.0
C114 C 0.07696 0.05998 0.19884 0.0
C115 C 0.07105 0.11265 0.21586 0.0
C116 C 0.06372 0.03466 0.10571 0.0
C117 C 0.99672 0.00287 0.17338 0.0
C118 C 0.17622 0.21079 0.35257 0.0
C119 C 0.22503 0.19813 0.37632 0.0
C120 C 0.25591 0.15598 0.35648 0.0
C121 C 0.23798 0.12554 0.31587 0.0
C122 C 0.1885 0.13657 0.29466 0.0
C123 C 0.15887 0.17947 0.31128 0.0
C124 C 0.10901 0.18623 0.27951 0.0
C125 C 0.11026 0.13514 0.2483 0.0
C126 C 0.15764 0.10718 0.25705 0.0
C127 C 0.11523 0.23657 0.24564 0.0
C128 C 0.05977 0.18822 0.31455 0.0
H129 H 0.07231 0.9292 0.18976 0.0
H130 H 0.26711 0.94555 0.16062 0.0
H131 H 0.21994 0.01564 0.3114 0.0
H132 H 0.28368 0.00844 0.28038 0.0
H133 H 0.23595 0.95636 0.27867 0.0
H134 H 0.24049 0.06968 0.15899 0.0
H135 H 0.29434 0.03452 0.18936 0.0
H136 H 0.26884 0.09466 0.21666 0.0
H137 H 0.95766 0.08165 0.09004 0.0
H138 H 0.95517 0.24361 0.14496 0.0
H139 H 0.01885 0.21926 0.21155 0.0
H140 H 0.09164 0.06705 0.09487 0.0
H141 H 0.03379 0.03036 0.07485 0.0
H142 H 0.08631 0.99704 0.10673 0.0
H143 H 0.95484 0.01416 0.16515 0.0
H144 H -0.00071 0.99412 0.21488 0.0
H145 H 0.00346 0.96556 0.15188 0.0
H146 H 0.11959 0.8592 0.14368 0.0
C147 C 0.11403 0.93363 0.18192 0.0
C148 C 0.26407 0.47872 0.64382 0.0
C149 C 0.2911 0.44741 0.60748 0.0
C150 C 0.33837 0.46741 0.58575 0.0
C151 C 0.3336 0.54587 0.63685 0.0
C152 C 0.28649 0.5282 0.65808 0.0
C153 C 0.268 0.56573 0.69948 0.0
H154 H 0.3335 0.76929 0.85627 0.0
C155 C 0.34912 0.59609 0.66065 0.0
C156 C 0.31054 0.60945 0.6965 0.0
H157 H 0.208 0.65279 0.87153 0.0
H158 H 0.22589 0.62059 0.78711 0.0
H159 H 0.43105 0.69611 0.79566 0.0
H160 H 0.30554 0.7874 0.72024 0.0
H161 H 0.37253 0.8029 0.70436 0.0
H162 H 0.34778 0.81947 0.7663 0.0
H163 H 0.41664 0.76214 0.8181 0.0
H164 H 0.44942 0.75388 0.75907 0.0
C165 C 0.26876 0.53533 0.75123 0.0
C166 C 0.21266 0.58736 0.6846 0.0
C167 C 0.53357 0.665 0.63134 0.0
C168 C 0.55014 0.71659 0.61859 0.0
C169 C 0.51958 0.76005 0.63572 0.0
C170 C 0.47098 0.75098 0.66163 0.0
C171 C 0.4527 0.69841 0.66846 0.0
C172 C 0.48236 0.65725 0.64905 0.0
C173 C 0.44841 0.61147 0.63257 0.0
C174 C 0.39549 0.62737 0.6552 0.0
C175 C 0.39906 0.6771 0.67888 0.0
C176 C 0.47128 0.56016 0.65684 0.0
C177 C 0.44655 0.61114 0.57304 0.0
C178 C 0.31083 0.73611 0.84163 0.0
C179 C 0.271 0.71213 0.87135 0.0
C180 C 0.24038 0.67064 0.85028 0.0
C181 C 0.25071 0.65175 0.80134 0.0
C182 C 0.29284 0.6735 0.77352 0.0
C183 C 0.32162 0.71571 0.79301 0.0
C184 C 0.36389 0.73443 0.75653 0.0
C185 C 0.36062 0.69127 0.71597 0.0
C186 C 0.31742 0.65674 0.72551 0.0
C187 C 0.41832 0.73657 0.78371 0.0
C188 C 0.34675 0.78909 0.7356 0.0
H189 H 0.39571 0.52697 0.58221 0.0
H190 H 0.22855 0.46402 0.66244 0.0
H191 H 0.21274 0.60146 0.64435 0.0
H192 H 0.20062 0.62168 0.70816 0.0
H193 H 0.18193 0.55585 0.68824 0.0
H194 H 0.28768 0.49552 0.74822 0.0
H195 H 0.22792 0.52876 0.76612 0.0
H196 H 0.29237 0.5565 0.78055 0.0
H197 H 0.55503 0.63062 0.61736 0.0
H198 H 0.53067 0.80021 0.62536 0.0
H199 H 0.44674 0.78462 0.671 0.0
H200 H 0.47832 0.56599 0.69835 0.0
H201 H 0.50976 0.54929 0.63887 0.0
H202 H 0.44456 0.52565 0.65347 0.0
H203 H 0.46194 0.64851 0.55578 0.0
H204 H 0.40527 0.6085 0.55836 0.0
H205 H 0.47058 0.57809 0.55707 0.0
H206 H 0.36176 0.44444 0.55942 0.0
C207 C 0.35893 0.51616 0.59943 0.0
C208 C 0.75373 0.8447 0.33817 0.0
C209 C 0.77908 0.8101 0.37274 0.0
C210 C 0.83061 0.79108 0.36108 0.0
C211 C 0.82738 0.83375 0.27912 0.0
C212 C 0.77901 0.85645 0.29165 0.0
C213 C 0.75956 0.89304 0.24996 0.0
H214 H 0.79669 0.98041 0.00828 0.0
C215 C 0.8391 0.84589 0.22569 0.0
C216 C 0.79908 0.87989 0.20775 0.0
H217 H 0.71522 0.06108 0.13064 0.0
H218 H 0.72394 0.98181 0.18377 0.0
H219 H 0.8966 0.95012 0.08184 0.0
H220 H 0.76375 0.8638 0.02085 0.0
H221 H 0.80965 0.81457 0.04024 0.0
H222 H 0.82748 0.86129 0.99075 0.0
H223 H 0.87896 0.94294 0.01571 0.0
H224 H 0.91572 0.89288 0.04662 0.0
C225 C 0.76504 0.95128 0.26886 0.0
C226 C 0.70219 0.8781 0.23469 0.0
C227 C 0.00424 0.77628 0.1358 0.0
C228 C 0.01606 0.77153 0.0836 0.0
C229 C 0.97539 0.77809 0.04722 0.0
C230 C 0.92503 0.79552 0.06209 0.0
C231 C 0.91604 0.80704 0.11355 0.0
C232 C 0.95281 0.79229 0.14995 0.0
C233 C 0.93019 0.79703 0.20304 0.0
C234 C 0.87708 0.82404 0.19168 0.0
C235 C 0.87094 0.83221 0.13926 0.0
C236 C 0.96673 0.83317 0.23528 0.0
C237 C 0.92333 0.74018 0.22539 0.0
C238 C 0.78048 0.98108 0.04655 0.0
C239 C 0.75708 0.02739 0.06605 0.0
C240 C 0.73439 0.02613 0.11513 0.0
C241 C 0.74062 0.98084 0.1462 0.0
C242 C 0.77129 0.93793 0.12837 0.0
C243 C 0.79014 0.93833 0.0789 0.0
C244 C 0.82983 0.89498 0.06861 0.0
C245 C 0.83325 0.86956 0.12107 0.0
C246 C 0.79816 0.89415 0.15545 0.0
C247 C 0.88317 0.92129 0.05242 0.0
C248 C 0.8068 0.85669 0.02794 0.0
H249 H 0.8935 0.78676 0.30763 0.0
H250 H 0.71503 0.8613 0.34673 0.0
H251 H 0.6995 0.83504 0.22563 0.0
H252 H 0.6888 0.90035 0.20059 0.0
H253 H 0.67398 0.88678 0.26619 0.0
H254 H 0.78523 0.95405 0.30652 0.0
H255 H 0.72557 0.97054 0.27341 0.0
H256 H 0.78953 0.97568 0.24248 0.0
H257 H 0.03469 0.76992 0.16436 0.0
H258 H 0.98389 0.77399 0.00687 0.0
H259 H 0.89578 0.80242 0.03304 0.0
H260 H 0.97563 0.87068 0.21442 0.0
H261 H 0.00504 0.81302 0.24377 0.0
H262 H 0.94815 0.84456 0.27189 0.0
H263 H 0.93125 0.70862 0.19673 0.0
H264 H 0.88205 0.73293 0.23865 0.0
H265 H 0.95106 0.73294 0.25765 0.0
H266 H 0.85193 0.76534 0.38718 0.0
C267 C 0.85467 0.80265 0.31453 0.0
C268 C 0.69102 0.29203 0.84622 0.0
C269 C 0.73505 0.31158 0.87374 0.0
C270 C 0.7638 0.35492 0.85348 0.0
C271 C 0.70838 0.3541 0.77759 0.0
C272 C 0.67911 0.31295 0.79823 0.0
C273 C 0.63726 0.29252 0.76215 0.0
H274 H 0.5245 0.30567 0.52849 0.0
C275 C 0.69041 0.36174 0.72453 0.0
C276 C 0.65005 0.32451 0.7147 0.0
H277 H 0.46096 0.23082 0.66323 0.0
H278 H 0.5436 0.24872 0.70866 0.0
H279 H 0.5577 0.40881 0.59193 0.0
H280 H 0.64406 0.276 0.53176 0.0
H281 H 0.69202 0.32659 0.53835 0.0
H282 H 0.63654 0.33587 0.49544 0.0
H283 H 0.56249 0.39045 0.52583 0.0
H284 H 0.61167 0.43087 0.55434 0.0
C285 C 0.58177 0.30661 0.78427 0.0
C286 C 0.646 0.23234 0.75349 0.0
C287 C 0.7426 0.52199 0.61838 0.0
C288 C 0.73442 0.53324 0.56635 0.0
C289 C 0.72135 0.49189 0.53265 0.0
C290 C 0.70951 0.44132 0.5514 0.0
C291 C 0.71 0.43284 0.60419 0.0
C292 C 0.73177 0.47041 0.63625 0.0
C293 C 0.73839 0.44875 0.68971 0.0
C294 C 0.70791 0.3965 0.68535 0.0
C295 C 0.68962 0.38893 0.6354 0.0
C296 C 0.71203 0.48675 0.72837 0.0
C297 C 0.79857 0.43981 0.69992 0.0
C298 C 0.52942 0.29154 0.56731 0.0
C299 C 0.48707 0.26655 0.5924 0.0
C300 C 0.49364 0.24949 0.6431 0.0
C301 C 0.54103 0.26109 0.66955 0.0
C302 C 0.58092 0.29147 0.64531 0.0
C303 C 0.57482 0.30556 0.59467 0.0
C304 C 0.61575 0.34503 0.57695 0.0
C305 C 0.64814 0.35211 0.6254 0.0
C306 C 0.62779 0.32056 0.6651 0.0
C307 C 0.58578 0.39657 0.56133 0.0
C308 C 0.64875 0.31993 0.53322 0.0
H309 H 0.77396 0.40875 0.79135 0.0
H310 H 0.66756 0.25913 0.8605 0.0
H311 H 0.68875 0.22394 0.74609 0.0
H312 H 0.62399 0.21709 0.72018 0.0
H313 H 0.63372 0.20901 0.78752 0.0
H314 H 0.58401 0.33983 0.81212 0.0
H315 H 0.56379 0.27211 0.80437 0.0
H316 H 0.55389 0.32083 0.75454 0.0
H317 H 0.75441 0.55309 0.64449 0.0
H318 H 0.71576 0.49986 0.49235 0.0
H319 H 0.69673 0.41175 0.52471 0.0
H320 H 0.6702 0.49514 0.71718 0.0
H321 H 0.73383 0.52508 0.73019 0.0
H322 H 0.7113 0.46973 0.76728 0.0
H323 H 0.82319 0.44565 0.66509 0.0
H324 H 0.8069 0.39856 0.71272 0.0
H325 H 0.814 0.46781 0.72909 0.0
H326 H 0.79768 0.37098 0.87375 0.0
C327 C 0.75052 0.37637 0.80552 0.0
C328 C 0.72483 0.55504 0.32694 0.0
C329 C 0.69595 0.5966 0.34987 0.0
C330 C 0.64176 0.60319 0.33684 0.0
C331 C 0.64156 0.51642 0.29998 0.0
C332 C 0.69626 0.51635 0.29954 0.0
C333 C 0.71688 0.47141 0.26705 0.0
H334 H 0.65246 0.25215 0.12864 0.0
C335 C 0.62241 0.46577 0.28085 0.0
C336 C 0.6653 0.44036 0.25769 0.0
H337 H 0.79415 0.35041 0.12162 0.0
H338 H 0.76344 0.40126 0.19227 0.0
H339 H 0.65595 0.24258 0.2468 0.0
H340 H 0.55918 0.34276 0.15355 0.0
H341 H 0.52228 0.30857 0.2019 0.0
H342 H 0.55996 0.27125 0.1562 0.0
H343 H 0.58737 0.22758 0.23677 0.0
H344 H 0.60823 0.2684 0.28956 0.0
C345 C 0.75748 0.43833 0.2978 0.0
C346 C 0.74034 0.4958 0.21735 0.0
C347 C 0.4703 0.38386 0.37804 0.0
C348 C 0.45162 0.33127 0.38278 0.0
C349 C 0.46928 0.29314 0.34719 0.0
C350 C 0.50639 0.30709 0.30901 0.0
C351 C 0.52652 0.35926 0.30705 0.0
C352 C 0.5079 0.39683 0.34096 0.0
C353 C 0.53652 0.44926 0.33682 0.0
C354 C 0.5769 0.43618 0.29541 0.0
C355 C 0.57098 0.38351 0.27839 0.0
C356 C 0.56363 0.46151 0.38853 0.0
C357 C 0.49666 0.49332 0.32084 0.0
C358 C 0.67619 0.28532 0.14172 0.0
C359 C 0.72501 0.29797 0.118 0.0
C360 C 0.75588 0.34012 0.13784 0.0
C361 C 0.73794 0.37057 0.17844 0.0
C362 C 0.68844 0.35955 0.19963 0.0
C363 C 0.65882 0.31665 0.183 0.0
C364 C 0.60895 0.30991 0.21476 0.0
C365 C 0.61019 0.361 0.24596 0.0
C366 C 0.65758 0.38895 0.23722 0.0
C367 C 0.61515 0.25957 0.24864 0.0
C368 C 0.55972 0.30791 0.17971 0.0
H369 H 0.57226 0.56695 0.30457 0.0
H370 H 0.76707 0.55054 0.33363 0.0
H371 H 0.7199 0.48046 0.18285 0.0
H372 H 0.78362 0.4877 0.21389 0.0
H373 H 0.73587 0.53975 0.21556 0.0
H374 H 0.74043 0.42648 0.33529 0.0
H375 H 0.79428 0.46159 0.30489 0.0
H376 H 0.76876 0.40144 0.27763 0.0
H377 H 0.45756 0.41456 0.40418 0.0
H378 H 0.4551 0.25258 0.34932 0.0
H379 H 0.51878 0.2769 0.28272 0.0
H380 H 0.59154 0.42911 0.39938 0.0
H381 H 0.53369 0.46582 0.41938 0.0
H382 H 0.58623 0.49912 0.38752 0.0
H383 H 0.45477 0.482 0.32897 0.0
H384 H 0.4993 0.50213 0.27936 0.0
H385 H 0.50334 0.5306 0.3424 0.0
H386 H 0.61957 0.63691 0.35067 0.0
C387 C 0.61399 0.56251 0.31237 0.0
C388 C 0.19102 0.20424 0.6481 0.0
C389 C 0.23503 0.18466 0.62058 0.0
C390 C 0.26375 0.14129 0.64084 0.0
C391 C 0.20832 0.14214 0.71672 0.0
C392 C 0.17909 0.18332 0.69609 0.0
C393 C 0.13726 0.20379 0.73217 0.0
H394 H 0.02454 0.19077 0.96585 0.0
C395 C 0.19034 0.1345 0.76977 0.0
C396 C 0.15003 0.17178 0.77962 0.0
H397 H 0.96101 0.26557 0.83108 0.0
H398 H 0.04364 0.24764 0.78565 0.0
H399 H 0.05755 0.08762 0.9024 0.0
H400 H 0.14415 0.22028 0.96255 0.0
H401 H 0.19203 0.1696 0.95597 0.0
H402 H 0.13653 0.16043 -0.00112 0.0
H403 H 0.06243 0.10594 0.96851 0.0
H404 H 0.11151 0.06545 0.93994 0.0
C405 C 0.08176 0.18976 0.71005 0.0
C406 C 0.14607 0.26396 0.74084 0.0
C407 C 0.2423 0.97415 0.87588 0.0
C408 C 0.2341 0.96289 0.92791 0.0
C409 C 0.22108 0.00426 0.96162 0.0
C410 C 0.20933 0.05484 0.94288 0.0
C411 C 0.20983 0.06334 0.89009 0.0
C412 C 0.23155 0.02575 0.85802 0.0
C413 C 0.2382 0.04742 0.80457 0.0
C414 C 0.2078 0.09971 0.80894 0.0
C415 C 0.18952 0.1073 0.8589 0.0
C416 C 0.21179 0.00947 0.7659 0.0
C417 C 0.2984 0.05627 0.79437 0.0
C418 C 0.02946 0.20489 0.92702 0.0
C419 C 0.98711 0.22987 0.90193 0.0
C420 C 0.99368 0.24691 0.85121 0.0
C421 C 0.04107 0.23529 0.82477 0.0
C422 C 0.08095 0.2049 0.84902 0.0
C423 C 0.07485 0.19083 0.89966 0.0
C424 C 0.11572 0.1513 0.91737 0.0
C425 C 0.14809 0.14417 0.86892 0.0
C426 C 0.12778 0.17575 0.82921 0.0
C427 C 0.08568 0.09979 0.93299 0.0
C428 C 0.14877 0.17634 0.9611 0.0
H429 H 0.27386 0.08744 0.70295 0.0
H430 H 0.16759 0.23716 0.63383 0.0
H431 H 0.18882 0.27231 0.74826 0.0
H432 H 0.12406 0.27923 0.77415 0.0
H433 H 0.13382 0.28731 0.70681 0.0
H434 H 0.08397 0.15659 0.68215 0.0
H435 H 0.06378 0.2243 0.69002 0.0
H436 H 0.05388 0.17551 0.73978 0.0
H437 H 0.25408 0.94304 0.84977 0.0
H438 H 0.2155 0.99628 0.00192 0.0
H439 H 0.19659 0.08443 0.96958 0.0
H440 H 0.16993 0.00116 0.77706 0.0
H441 H 0.23352 0.97111 0.76407 0.0
H442 H 0.21111 0.0265 0.72699 0.0
H443 H 0.32301 0.05033 0.82919 0.0
H444 H 0.3068 0.09751 0.78161 0.0
H445 H 0.31377 0.02828 0.76516 0.0
H446 H 0.29762 0.1252 0.62057 0.0
C447 C 0.25045 0.11985 0.68879 0.0
C448 C 0.2538 0.65122 0.15587 0.0
C449 C 0.27921 0.68579 0.1213 0.0
C450 C 0.33081 0.70466 0.13293 0.0
C451 C 0.32751 0.662 0.21489 0.0
C452 C 0.27909 0.6394 0.20237 0.0
C453 C 0.25956 0.60288 0.24408 0.0
H454 H 0.29638 0.51578 0.48588 0.0
C455 C 0.33919 0.64989 0.26833 0.0
C456 C 0.29909 0.61599 0.28628 0.0
H457 H 0.21511 0.43496 0.3635 0.0
H458 H 0.22387 0.51417 0.31031 0.0
H459 H 0.39639 0.54586 0.4124 0.0
H460 H 0.26359 0.63235 0.47322 0.0
H461 H 0.30943 0.68156 0.45367 0.0
H462 H 0.32734 0.63499 0.50326 0.0
H463 H 0.37868 0.55318 0.4785 0.0
H464 H 0.41553 0.60314 0.44755 0.0
C465 C 0.26496 0.54462 0.22521 0.0
C466 C 0.20221 0.61791 0.25932 0.0
C467 C 0.50429 0.71943 0.35833 0.0
C468 C 0.51602 0.72428 0.41054 0.0
C469 C 0.47529 0.71786 0.44687 0.0
C470 C 0.42492 0.70047 0.43194 0.0
C471 C 0.41601 0.68885 0.3805 0.0
C472 C 0.45287 0.70347 0.34413 0.0
C473 C 0.43032 0.69866 0.29101 0.0
C474 C 0.37715 0.67175 0.30234 0.0
C475 C 0.37093 0.66369 0.35477 0.0
C476 C 0.46685 0.6624 0.25888 0.0
C477 C 0.42359 0.75547 0.26855 0.0
C478 C 0.28022 0.51507 0.44759 0.0
C479 C 0.25686 0.46873 0.42811 0.0
C480 C 0.23424 0.46993 0.379 0.0
C481 C 0.2405 0.51518 0.3479 0.0
C482 C 0.27114 0.55812 0.36571 0.0
C483 C 0.28993 0.55777 0.41521 0.0
C484 C 0.32966 0.6011 0.42548 0.0
C485 C 0.33316 0.62643 0.37298 0.0
C486 C 0.29809 0.60182 0.3386 0.0
C487 C 0.38295 0.57475 0.44176 0.0
C488 C 0.30662 0.63947 0.46608 0.0
H489 H 0.39374 0.7088 0.18635 0.0
H490 H 0.21506 0.63473 0.14733 0.0
H491 H 0.19958 0.66097 0.26837 0.0
H492 H 0.18878 0.59568 0.29342 0.0
H493 H 0.17399 0.60926 0.22781 0.0
H494 H 0.28509 0.5418 0.18752 0.0
H495 H 0.22546 0.52539 0.22072 0.0
H496 H 0.28946 0.52021 0.25157 0.0
H497 H 0.53481 0.72569 0.3298 0.0
H498 H 0.48372 0.72205 0.48722 0.0
H499 H 0.39561 0.69369 0.46095 0.0
H500 H 0.47563 0.6249 0.2798 0.0
H501 H 0.50521 0.68246 0.25043 0.0
H502 H 0.44831 0.65101 0.22226 0.0
H503 H 0.43158 0.78708 0.29714 0.0
H504 H 0.38232 0.76279 0.25528 0.0
H505 H 0.45133 0.76258 0.23626 0.0
H506 H 0.35217 0.73035 0.10682 0.0
C507 C 0.35487 0.69302 0.17946 0.0
C508 C 0.76426 0.0176 0.85032 0.0
C509 C 0.79128 0.0489 0.88666 0.0
C510 C 0.8386 0.02894 0.90834 0.0
C511 C 0.83387 0.95051 0.85719 0.0
C512 C 0.78672 0.96815 0.836 0.0
C513 C 0.76824 0.93065 0.79458 0.0
H514 H 0.83356 0.727 0.63781 0.0
C515 C 0.8494 0.90031 0.83335 0.0
C516 C 0.81081 0.88696 0.79751 0.0
H517 H 0.7081 0.84357 0.62257 0.0
H518 H 0.72613 0.87586 0.70692 0.0
H519 H 0.93121 0.8002 0.69823 0.0
H520 H 0.80567 0.70902 0.77373 0.0
H521 H 0.87261 0.69359 0.78979 0.0
H522 H 0.84804 0.67688 0.72782 0.0
H523 H 0.91676 0.73415 0.6759 0.0
H524 H 0.94962 0.74249 0.73489 0.0
C525 C 0.76896 0.9611 0.74286 0.0
C526 C 0.71292 0.90897 0.80947 0.0
C527 C 0.03374 0.83123 0.86295 0.0
C528 C 0.05027 0.77961 0.8756 0.0
C529 C 0.01976 0.7362 0.8583 0.0
C530 C 0.97122 0.74535 0.8323 0.0
C531 C 0.95295 0.79793 0.82558 0.0
C532 C 0.98258 0.83904 0.84513 0.0
C533 C 0.94864 0.88485 0.86156 0.0
C534 C 0.89576 0.86902 0.83879 0.0
C535 C 0.89934 0.8193 0.81508 0.0
C536 C 0.97161 0.93614 0.83735 0.0
C537 C 0.94663 0.88513 0.92108 0.0
C538 C 0.81093 0.76022 0.65244 0.0
C539 C 0.77106 0.78418 0.62274 0.0
C540 C 0.7405 0.82573 0.6438 0.0
C541 C 0.7509 0.84466 0.69271 0.0
C542 C 0.79305 0.82291 0.7205 0.0
C543 C 0.82179 0.78067 0.70102 0.0
C544 C 0.86408 0.76195 0.73748 0.0
C545 C 0.86088 0.80514 0.77801 0.0
C546 C 0.81768 0.83968 0.76848 0.0
C547 C 0.91849 0.75976 0.71026 0.0
C548 C 0.84692 0.70732 0.75846 0.0
H549 H 0.89603 0.96945 0.91177 0.0
H550 H 0.72871 0.03229 0.83173 0.0
H551 H 0.71302 0.89485 0.84971 0.0
H552 H 0.7009 0.87467 0.78589 0.0
H553 H 0.68217 0.94047 0.80587 0.0
H554 H 0.78793 0.00089 0.74588 0.0
H555 H 0.72811 0.96773 0.72802 0.0
H556 H 0.79252 0.93994 0.71349 0.0
H557 H 0.05518 0.86557 0.87706 0.0
H558 H 0.03082 0.69601 0.86858 0.0
H559 H 0.94702 0.71173 0.82278 0.0
H560 H 0.97886 0.93029 0.79589 0.0
H561 H 0.01001 0.94703 0.85549 0.0
H562 H 0.94486 0.97065 0.84057 0.0
H563 H 0.96185 0.84769 0.93834 0.0
H564 H 0.90532 0.8879 0.93567 0.0
H565 H 0.97073 0.91809 0.93713 0.0
H566 H 0.86198 0.0519 0.93468 0.0
C567 C 0.85921 0.98022 0.89461 0.0
loop_
_geom_bond_atom_site_label_1
_geom_bond_atom_site_label_2
_geom_bond_distance
_geom_bond_site_symmetry_2
_ccdc_geom_bond_type
Sc0 O3 2.025 . S
Sc0 O10 2.105 1_554 S
Sc0 O13 2.105 . S
Sc0 O16 2.105 . S
Sc0 O19 2.105 1_554 S
Sc1 O3 2.025 . S
Sc1 O11 2.105 1_554 S
Sc1 O15 2.105 . S
Sc1 O17 2.105 . S
Sc1 O21 2.105 1_554 S
Sc2 O3 2.025 . S
Sc2 O12 2.105 1_554 S
Sc2 O14 2.105 . S
Sc2 O18 2.105 . S
Sc2 O20 2.105 1_554 S
O3 Sc0 2.025 . S
O3 Sc1 2.025 . S
O3 Sc2 2.025 . S
C4 O10 1.268 . S
C4 O20 1.268 . S
C5 O11 1.268 . S
C5 O19 1.268 . S
C6 O12 1.268 . S
C6 O21 1.268 . S
C7 O13 1.268 . S
C7 O17 1.268 . S
C8 O14 1.268 . S
C8 O16 1.268 . S
C9 O15 1.268 . S
C9 O18 1.268 . S
O10 Sc0 2.105 1_556 S
O10 C4 1.268 . S
O11 Sc1 2.105 1_556 S
O11 C5 1.268 . S
O12 Sc2 2.105 1_556 S
O12 C6 1.268 . S
O13 Sc0 2.105 . S
O13 C7 1.268 . S
O14 Sc2 2.105 . S
O14 C8 1.268 . S
O15 Sc1 2.105 . S
O15 C9 1.268 . S
O16 Sc0 2.105 . S
O16 C8 1.268 . S
O17 Sc1 2.105 . S
O17 C7 1.268 . S
O18 Sc2 2.105 . S
O18 C9 1.268 . S
O19 Sc0 2.105 1_556 S
O19 C5 1.268 . S
O20 Sc2 2.105 1_556 S
O20 C4 1.268 . S
O21 Sc1 2.105 1_556 S
O21 C6 1.268 . S
Sc22 O25 2.025 . S
Sc22 O32 2.105 . S
Sc22 O35 2.105 . S
Sc22 O38 2.105 . S
Sc22 O41 2.105 . S
Sc23 O25 2.025 . S
Sc23 O33 2.105 . S
Sc23 O37 2.105 . S
Sc23 O39 2.105 . S
Sc23 O43 2.105 . S
Sc24 O25 2.025 . S
Sc24 O34 2.105 . S
Sc24 O36 2.105 . S
Sc24 O40 2.105 . S
Sc24 O42 2.105 . S
O25 Sc22 2.025 . S
O25 Sc23 2.025 . S
O25 Sc24 2.025 . S
C26 O32 1.268 . S
C26 O42 1.268 . S
C27 O33 1.268 . S
C27 O41 1.268 . S
C28 O34 1.268 . S
C28 O43 1.268 . S
C29 O35 1.268 . S
C29 O39 1.268 . S
C30 O36 1.268 . S
C30 O38 1.268 . S
C31 O37 1.268 . S
C31 O40 1.268 . S
O32 Sc22 2.105 . S
O32 C26 1.268 . S
O33 Sc23 2.105 . S
O33 C27 1.268 . S
O34 Sc24 2.105 . S
O34 C28 1.268 . S
O35 Sc22 2.105 . S
O35 C29 1.268 . S
O36 Sc24 2.105 . S
O36 C30 1.268 . S
O37 Sc23 2.105 . S
O37 C31 1.268 . S
O38 Sc22 2.105 . S
O38 C30 1.268 . S
O39 Sc23 2.105 . S
O39 C29 1.268 . S
O40 Sc24 2.105 . S
O40 C31 1.268 . S
O41 Sc22 2.105 . S
O41 C27 1.268 . S
O42 Sc24 2.105 . S
O42 C26 1.268 . S
O43 Sc23 2.105 . S
O43 C28 1.268 . S
Sc44 O47 2.025 . S
Sc44 O54 2.105 1_554 S
Sc44 O57 2.105 . S
Sc44 O60 2.105 . S
Sc44 O63 2.105 1_554 S
Sc45 O47 2.025 . S
Sc45 O55 2.105 1_554 S
Sc45 O59 2.105 . S
Sc45 O61 2.105 . S
Sc45 O65 2.105 1_554 S
Sc46 O47 2.025 . S
Sc46 O56 2.105 1_554 S
Sc46 O58 2.105 . S
Sc46 O62 2.105 . S
Sc46 O64 2.105 1_554 S
O47 Sc44 2.025 . S
O47 Sc45 2.025 . S
O47 Sc46 2.025 . S
C48 O54 1.268 . S
C48 O64 1.268 . S
C49 O55 1.268 . S
C49 O63 1.268 . S
C50 O56 1.268 . S
C50 O65 1.268 . S
C51 O57 1.268 . S
C51 O61 1.268 . S
C52 O58 1.268 . S
C52 O60 1.268 . S
C53 O59 1.268 . S
C53 O62 1.268 . S
O54 Sc44 2.105 1_556 S
O54 C48 1.268 . S
O55 Sc45 2.105 1_556 S
O55 C49 1.268 . S
O56 Sc46 2.105 1_556 S
O56 C50 1.268 . S
O57 Sc44 2.105 . S
O57 C51 1.268 . S
O58 Sc46 2.105 . S
O58 C52 1.268 . S
O59 Sc45 2.105 . S
O59 C53 1.268 . S
O60 Sc44 2.105 . S
O60 C52 1.268 . S
O61 Sc45 2.105 . S
O61 C51 1.268 . S
O62 Sc46 2.105 . S
O62 C53 1.268 . S
O63 Sc44 2.105 1_556 S
O63 C49 1.268 . S
O64 Sc46 2.105 1_556 S
O64 C48 1.268 . S
O65 Sc45 2.105 1_556 S
O65 C50 1.268 . S
Sc66 O69 2.025 . S
Sc66 O76 2.105 . S
Sc66 O79 2.105 . S
Sc66 O82 2.105 . S
Sc66 O85 2.105 . S
Sc67 O69 2.025 . S
Sc67 O77 2.105 . S
Sc67 O81 2.105 . S
Sc67 O83 2.105 . S
Sc67 O87 2.105 . S
Sc68 O69 2.025 . S
Sc68 O78 2.105 . S
Sc68 O80 2.105 . S
Sc68 O84 2.105 . S
Sc68 O86 2.105 . S
O69 Sc66 2.025 . S
O69 Sc67 2.025 . S
O69 Sc68 2.025 . S
C70 O76 1.268 . S
C70 O86 1.268 . S
C71 O77 1.268 . S
C71 O85 1.268 . S
C72 O78 1.268 . S
C72 O87 1.268 . S
C73 O79 1.268 . S
C73 O83 1.268 . S
C74 O80 1.268 . S
C74 O82 1.268 . S
C75 O81 1.268 . S
C75 O84 1.268 . S
O76 Sc66 2.105 . S
O76 C70 1.268 . S
O77 Sc67 2.105 . S
O77 C71 1.268 . S
O78 Sc68 2.105 . S
O78 C72 1.268 . S
O79 Sc66 2.105 . S
O79 C73 1.268 . S
O80 Sc68 2.105 . S
O80 C74 1.268 . S
O81 Sc67 2.105 . S
O81 C75 1.268 . S
O82 Sc66 2.105 . S
O82 C74 1.268 . S
O83 Sc67 2.105 . S
O83 C73 1.268 . S
O84 Sc68 2.105 . S
O84 C75 1.268 . S
O85 Sc66 2.105 . S
O85 C71 1.268 . S
O86 Sc68 2.105 . S
O86 C70 1.268 . S
O87 Sc67 2.105 . S
O87 C72 1.268 . S
C88 C89 1.391 . S
C88 C92 1.391 1_565 S
C88 H130 0.948 . S
C89 C88 1.391 . S
C89 C90 1.391 . S
C90 C89 1.391 . S
C90 H146 0.947 . S
C90 C147 1.392 1_565 S
C91 C92 1.391 . S
C91 C95 1.397 . S
C91 C147 1.419 . S
C92 C88 1.391 1_545 S
C92 C91 1.391 . S
C92 C93 1.399 . S
C93 C92 1.399 . S
C93 C96 1.396 . S
C93 C105 1.453 . S
C93 C106 1.684 . S
H94 C118 0.948 . S
C95 C91 1.397 . S
C95 C96 1.394 . S
C95 C114 1.723 . S
C96 C93 1.396 . S
C96 C95 1.394 . S
C96 C126 1.723 . S
H97 C120 0.947 . S
H98 C121 0.948 . S
H99 C127 0.982 . S
H100 C128 0.979 . S
H101 C128 0.980 . S
H102 C128 0.983 . S
H103 C127 0.979 . S
H104 C127 0.977 . S
C105 C93 1.453 . S
C105 H134 0.982 . S
C105 H135 0.979 . S
C105 H136 0.977 . S
C106 C93 1.684 . S
C106 H131 0.979 . S
C106 H132 0.980 . S
C106 H133 0.983 . S
C107 C108 1.391 . S
C107 C112 1.391 1_655 S
C107 H137 0.948 . S
C108 C107 1.391 . S
C108 C109 1.391 . S
C109 C108 1.391 . S
C109 C110 1.392 1_655 S
C109 H138 0.947 . S
C110 C109 1.392 1_455 S
C110 C111 1.419 . S
C110 H139 0.948 . S
C111 C110 1.419 . S
C111 C112 1.391 . S
C111 C115 1.397 . S
C112 C107 1.391 1_455 S
C112 C111 1.391 . S
C112 C113 1.399 . S
C113 C112 1.399 . S
C113 C114 1.396 . S
C113 C116 1.453 . S
C113 C117 1.684 . S
C114 C95 1.723 . S
C114 C113 1.396 . S
C114 C115 1.394 . S
C115 C111 1.397 . S
C115 C114 1.394 . S
C115 C125 1.723 . S
C116 C113 1.453 . S
C116 H140 0.982 . S
C116 H141 0.979 . S
C116 H142 0.977 . S
C117 C113 1.684 . S
C117 H143 0.979 . S
C117 H144 0.980 . S
C117 H145 0.983 . S
C118 H94 0.948 . S
C118 C119 1.391 . S
C118 C123 1.391 . S
C119 C118 1.391 . S
C119 C120 1.391 . S
C120 H97 0.947 . S
C120 C119 1.391 . S
C120 C121 1.392 . S
C121 H98 0.948 . S
C121 C120 1.392 . S
C121 C122 1.419 . S
C122 C121 1.419 . S
C122 C123 1.391 . S
C122 C126 1.397 . S
C123 C118 1.391 . S
C123 C122 1.391 . S
C123 C124 1.399 . S
C124 C123 1.399 . S
C124 C125 1.396 . S
C124 C127 1.453 . S
C124 C128 1.684 . S
C125 C115 1.723 . S
C125 C124 1.396 . S
C125 C126 1.394 . S
C126 C96 1.723 . S
C126 C122 1.397 . S
C126 C125 1.394 . S
C127 H99 0.982 . S
C127 H103 0.979 . S
C127 H104 0.977 . S
C127 C124 1.453 . S
C128 H100 0.979 . S
C128 H101 0.980 . S
C128 H102 0.983 . S
C128 C124 1.684 . S
H129 C147 0.948 . S
H130 C88 0.948 . S
H131 C106 0.979 . S
H132 C106 0.980 . S
H133 C106 0.983 . S
H134 C105 0.982 . S
H135 C105 0.979 . S
H136 C105 0.977 . S
H137 C107 0.948 . S
H138 C109 0.947 . S
H139 C110 0.948 . S
H140 C116 0.982 . S
H141 C116 0.979 . S
H142 C116 0.977 . S
H143 C117 0.979 . S
H144 C117 0.980 . S
H145 C117 0.983 . S
H146 C90 0.947 . S
C147 C90 1.392 1_545 S
C147 C91 1.419 . S
C147 H129 0.948 . S
C148 C149 1.391 . S
C148 C152 1.391 . S
C148 H190 0.948 . S
C149 C148 1.391 . S
C149 C150 1.391 . S
C150 C149 1.391 . S
C150 H206 0.947 . S
C150 C207 1.392 . S
C151 C152 1.391 . S
C151 C155 1.397 . S
C151 C207 1.419 . S
C152 C148 1.391 . S
C152 C151 1.391 . S
C152 C153 1.399 . S
C153 C152 1.399 . S
C153 C156 1.396 . S
C153 C165 1.453 . S
C153 C166 1.684 . S
H154 C178 0.948 . S
C155 C151 1.397 . S
C155 C156 1.394 . S
C155 C174 1.723 . S
C156 C153 1.396 . S
C156 C155 1.394 . S
C156 C186 1.723 . S
H157 C180 0.947 . S
H158 C181 0.948 . S
H159 C187 0.982 . S
H160 C188 0.979 . S
H161 C188 0.980 . S
H162 C188 0.983 . S
H163 C187 0.979 . S
H164 C187 0.977 . S
C165 C153 1.453 . S
C165 H194 0.982 . S
C165 H195 0.979 . S
C165 H196 0.977 . S
C166 C153 1.684 . S
C166 H191 0.979 . S
C166 H192 0.980 . S
C166 H193 0.983 . S
C167 C168 1.391 . S
C167 C172 1.391 . S
C167 H197 0.948 . S
C168 C167 1.391 . S
C168 C169 1.391 . S
C169 C168 1.391 . S
C169 C170 1.392 . S
C169 H198 0.947 . S
C170 C169 1.392 . S
C170 C171 1.419 . S
C170 H199 0.948 . S
C171 C170 1.419 . S
C171 C172 1.391 . S
C171 C175 1.397 . S
C172 C167 1.391 . S
C172 C171 1.391 . S
C172 C173 1.399 . S
C173 C172 1.399 . S
C173 C174 1.396 . S
C173 C176 1.453 . S
C173 C177 1.684 . S
C174 C155 1.723 . S
C174 C173 1.396 . S
C174 C175 1.394 . S
C175 C171 1.397 . S
C175 C174 1.394 . S
C175 C185 1.723 . S
C176 C173 1.453 . S
C176 H200 0.982 . S
C176 H201 0.979 . S
C176 H202 0.977 . S
C177 C173 1.684 . S
C177 H203 0.979 . S
C177 H204 0.980 . S
C177 H205 0.983 . S
C178 H154 0.948 . S
C178 C179 1.391 . S
C178 C183 1.391 . S
C179 C178 1.391 . S
C179 C180 1.391 . S
C180 H157 0.947 . S
C180 C179 1.391 . S
C180 C181 1.392 . S
C181 H158 0.948 . S
C181 C180 1.392 . S
C181 C182 1.419 . S
C182 C181 1.419 . S
C182 C183 1.391 . S
C182 C186 1.397 . S
C183 C178 1.391 . S
C183 C182 1.391 . S
C183 C184 1.399 . S
C184 C183 1.399 . S
C184 C185 1.396 . S
C184 C187 1.453 . S
C184 C188 1.684 . S
C185 C175 1.723 . S
C185 C184 1.396 . S
C185 C186 1.394 . S
C186 C156 1.723 . S
C186 C182 1.397 . S
C186 C185 1.394 . S
C187 H159 0.982 . S
C187 H163 0.979 . S
C187 H164 0.977 . S
C187 C184 1.453 . S
C188 H160 0.979 . S
C188 H161 0.980 . S
C188 H162 0.983 . S
C188 C184 1.684 . S
H189 C207 0.948 . S
H190 C148 0.948 . S
H191 C166 0.979 . S
H192 C166 0.980 . S
H193 C166 0.983 . S
H194 C165 0.982 . S
H195 C165 0.979 . S
H196 C165 0.977 . S
H197 C167 0.948 . S
H198 C169 0.947 . S
H199 C170 0.948 . S
H200 C176 0.982 . S
H201 C176 0.979 . S
H202 C176 0.977 . S
H203 C177 0.979 . S
H204 C177 0.980 . S
H205 C177 0.983 . S
H206 C150 0.947 . S
C207 C150 1.392 . S
C207 C151 1.419 . S
C207 H189 0.948 . S
C208 C209 1.391 . S
C208 C212 1.391 . S
C208 H250 0.948 . S
C209 C208 1.391 . S
C209 C210 1.391 . S
C210 C209 1.391 . S
C210 H266 0.947 . S
C210 C267 1.392 . S
C211 C212 1.391 . S
C211 C215 1.397 . S
C211 C267 1.419 . S
C212 C208 1.391 . S
C212 C211 1.391 . S
C212 C213 1.399 . S
C213 C212 1.399 . S
C213 C216 1.396 . S
C213 C225 1.453 . S
C213 C226 1.684 . S
H214 C238 0.948 . S
C215 C211 1.397 . S
C215 C216 1.394 . S
C215 C234 1.723 . S
C216 C213 1.396 . S
C216 C215 1.394 . S
C216 C246 1.723 . S
H217 C240 0.947 . S
H218 C241 0.948 . S
H219 C247 0.982 . S
H220 C248 0.979 . S
H221 C248 0.980 . S
H222 C248 0.983 . S
H223 C247 0.979 . S
H224 C247 0.977 . S
C225 C213 1.453 . S
C225 H254 0.982 . S
C225 H255 0.979 . S
C225 H256 0.977 . S
C226 C213 1.684 . S
C226 H251 0.979 . S
C226 H252 0.980 . S
C226 H253 0.983 . S
C227 C228 1.391 . S
C227 C232 1.391 1_455 S
C227 H257 0.948 . S
C228 C227 1.391 . S
C228 C229 1.391 . S
C229 C228 1.391 . S
C229 C230 1.392 1_455 S
C229 H258 0.947 . S
C230 C229 1.392 1_655 S
C230 C231 1.419 . S
C230 H259 0.948 . S
C231 C230 1.419 . S
C231 C232 1.391 . S
C231 C235 1.397 . S
C232 C227 1.391 1_655 S
C232 C231 1.391 . S
C232 C233 1.399 . S
C233 C232 1.399 . S
C233 C234 1.396 . S
C233 C236 1.453 . S
C233 C237 1.684 . S
C234 C215 1.723 . S
C234 C233 1.396 . S
C234 C235 1.394 . S
C235 C231 1.397 . S
C235 C234 1.394 . S
C235 C245 1.723 . S
C236 C233 1.453 . S
C236 H260 0.982 . S
C236 H261 0.979 . S
C236 H262 0.977 . S
C237 C233 1.684 . S
C237 H263 0.979 . S
C237 H264 0.980 . S
C237 H265 0.983 . S
C238 H214 0.948 . S
C238 C239 1.391 . S
C238 C243 1.391 1_545 S
C239 C238 1.391 . S
C239 C240 1.391 . S
C240 H217 0.947 . S
C240 C239 1.391 . S
C240 C241 1.392 1_545 S
C241 H218 0.948 . S
C241 C240 1.392 1_565 S
C241 C242 1.419 . S
C242 C241 1.419 . S
C242 C243 1.391 . S
C242 C246 1.397 . S
C243 C238 1.391 1_565 S
C243 C242 1.391 . S
C243 C244 1.399 . S
C244 C243 1.399 . S
C244 C245 1.396 . S
C244 C247 1.453 . S
C244 C248 1.684 . S
C245 C235 1.723 . S
C245 C244 1.396 . S
C245 C246 1.394 . S
C246 C216 1.723 . S
C246 C242 1.397 . S
C246 C245 1.394 . S
C247 H219 0.982 . S
C247 H223 0.979 . S
C247 H224 0.977 . S
C247 C244 1.453 . S
C248 H220 0.979 . S
C248 H221 0.980 . S
C248 H222 0.983 . S
C248 C244 1.684 . S
H249 C267 0.948 . S
H250 C208 0.948 . S
H251 C226 0.979 . S
H252 C226 0.980 . S
H253 C226 0.983 . S
H254 C225 0.982 . S
H255 C225 0.979 . S
H256 C225 0.977 . S
H257 C227 0.948 . S
H258 C229 0.947 . S
H259 C230 0.948 . S
H260 C236 0.982 . S
H261 C236 0.979 . S
H262 C236 0.977 . S
H263 C237 0.979 . S
H264 C237 0.980 . S
H265 C237 0.983 . S
H266 C210 0.947 . S
C267 C210 1.392 . S
C267 C211 1.419 . S
C267 H249 0.948 . S
C268 C269 1.391 . S
C268 C272 1.391 . S
C268 H310 0.948 . S
C269 C268 1.391 . S
C269 C270 1.391 . S
C270 C269 1.391 . S
C270 H326 0.947 . S
C270 C327 1.392 . S
C271 C272 1.391 . S
C271 C275 1.397 . S
C271 C327 1.419 . S
C272 C268 1.391 . S
C272 C271 1.391 . S
C272 C273 1.399 . S
C273 C272 1.399 . S
C273 C276 1.396 . S
C273 C285 1.453 . S
C273 C286 1.684 . S
H274 C298 0.948 . S
C275 C271 1.397 . S
C275 C276 1.394 . S
C275 C294 1.723 . S
C276 C273 1.396 . S
C276 C275 1.394 . S
C276 C306 1.723 . S
H277 C300 0.947 . S
H278 C301 0.948 . S
H279 C307 0.982 . S
H280 C308 0.979 . S
H281 C308 0.980 . S
H282 C308 0.983 . S
H283 C307 0.979 . S
H284 C307 0.977 . S
C285 C273 1.453 . S
C285 H314 0.982 . S
C285 H315 0.979 . S
C285 H316 0.977 . S
C286 C273 1.684 . S
C286 H311 0.979 . S
C286 H312 0.980 . S
C286 H313 0.983 . S
C287 C288 1.391 . S
C287 C292 1.391 . S
C287 H317 0.948 . S
C288 C287 1.391 . S
C288 C289 1.391 . S
C289 C288 1.391 . S
C289 C290 1.392 . S
C289 H318 0.947 . S
C290 C289 1.392 . S
C290 C291 1.419 . S
C290 H319 0.948 . S
C291 C290 1.419 . S
C291 C292 1.391 . S
C291 C295 1.397 . S
C292 C287 1.391 . S
C292 C291 1.391 . S
C292 C293 1.399 . S
C293 C292 1.399 . S
C293 C294 1.396 . S
C293 C296 1.453 . S
C293 C297 1.684 . S
C294 C275 1.723 . S
C294 C293 1.396 . S
C294 C295 1.394 . S
C295 C291 1.397 . S
C295 C294 1.394 . S
C295 C305 1.723 . S
C296 C293 1.453 . S
C296 H320 0.982 . S
C296 H321 0.979 . S
C296 H322 0.977 . S
C297 C293 1.684 . S
C297 H323 0.979 . S
C297 H324 0.980 . S
C297 H325 0.983 . S
C298 H274 0.948 . S
C298 C299 1.391 . S
C298 C303 1.391 . S
C299 C298 1.391 . S
C299 C300 1.391 . S
C300 H277 0.947 . S
C300 C299 1.391 . S
C300 C301 1.392 . S
C301 H278 0.948 . S
C301 C300 1.392 . S
C301 C302 1.419 . S
C302 C301 1.419 . S
C302 C303 1.391 . S
C302 C306 1.397 . S
C303 C298 1.391 . S
C303 C302 1.391 . S
C303 C304 1.399 . S
C304 C303 1.399 . S
C304 C305 1.396 . S
C304 C307 1.453 . S
C304 C308 1.684 . S
C305 C295 1.723 . S
C305 C304 1.396 . S
C305 C306 1.394 . S
C306 C276 1.723 . S
C306 C302 1.397 . S
C306 C305 1.394 . S
C307 H279 0.982 . S
C307 H283 0.979 . S
C307 H284 0.977 . S
C307 C304 1.453 . S
C308 H280 0.979 . S
C308 H281 0.980 . S
C308 H282 0.983 . S
C308 C304 1.684 . S
H309 C327 0.948 . S
H310 C268 0.948 . S
H311 C286 0.979 . S
H312 C286 0.980 . S
H313 C286 0.983 . S
H314 C285 0.982 . S
H315 C285 0.979 . S
H316 C285 0.977 . S
H317 C287 0.948 . S
H318 C289 0.947 . S
H319 C290 0.948 . S
H320 C296 0.982 . S
H321 C296 0.979 . S
H322 C296 0.977 . S
H323 C297 0.979 . S
H324 C297 0.980 . S
H325 C297 0.983 . S
H326 C270 0.947 . S
C327 C270 1.392 . S
C327 C271 1.419 . S
C327 H309 0.948 . S
C328 C329 1.391 . S
C328 C332 1.391 . S
C328 H370 0.948 . S
C329 C328 1.391 . S
C329 C330 1.391 . S
C330 C329 1.391 . S
C330 H386 0.947 . S
C330 C387 1.392 . S
C331 C332 1.391 . S
C331 C335 1.397 . S
C331 C387 1.419 . S
C332 C328 1.391 . S
C332 C331 1.391 . S
C332 C333 1.399 . S
C333 C332 1.399 . S
C333 C336 1.396 . S
C333 C345 1.453 . S
C333 C346 1.684 . S
H334 C358 0.948 . S
C335 C331 1.397 . S
C335 C336 1.394 . S
C335 C354 1.723 . S
C336 C333 1.396 . S
C336 C335 1.394 . S
C336 C366 1.723 . S
H337 C360 0.947 . S
H338 C361 0.948 . S
H339 C367 0.982 . S
H340 C368 0.979 . S
H341 C368 0.980 . S
H342 C368 0.983 . S
H343 C367 0.979 . S
H344 C367 0.977 . S
C345 C333 1.453 . S
C345 H374 0.982 . S
C345 H375 0.979 . S
C345 H376 0.977 . S
C346 C333 1.684 . S
C346 H371 0.979 . S
C346 H372 0.980 . S
C346 H373 0.983 . S
C347 C348 1.391 . S
C347 C352 1.391 . S
C347 H377 0.948 . S
C348 C347 1.391 . S
C348 C349 1.391 . S
C349 C348 1.391 . S
C349 C350 1.392 . S
C349 H378 0.947 . S
C350 C349 1.392 . S
C350 C351 1.419 . S
C350 H379 0.948 . S
C351 C350 1.419 . S
C351 C352 1.391 . S
C351 C355 1.397 . S
C352 C347 1.391 . S
C352 C351 1.391 . S
C352 C353 1.399 . S
C353 C352 1.399 . S
C353 C354 1.396 . S
C353 C356 1.453 . S
C353 C357 1.684 . S
C354 C335 1.723 . S
C354 C353 1.396 . S
C354 C355 1.394 . S
C355 C351 1.397 . S
C355 C354 1.394 . S
C355 C365 1.723 . S
C356 C353 1.453 . S
C356 H380 0.982 . S
C356 H381 0.979 . S
C356 H382 0.977 . S
C357 C353 1.684 . S
C357 H383 0.979 . S
C357 H384 0.980 . S
C357 H385 0.983 . S
C358 H334 0.948 . S
C358 C359 1.391 . S
C358 C363 1.391 . S
C359 C358 1.391 . S
C359 C360 1.391 . S
C360 H337 0.947 . S
C360 C359 1.391 . S
C360 C361 1.392 . S
C361 H338 0.948 . S
C361 C360 1.392 . S
C361 C362 1.419 . S
C362 C361 1.419 . S
C362 C363 1.391 . S
C362 C366 1.397 . S
C363 C358 1.391 . S
C363 C362 1.391 . S
C363 C364 1.399 . S
C364 C363 1.399 . S
C364 C365 1.396 . S
C364 C367 1.453 . S
C364 C368 1.684 . S
C365 C355 1.723 . S
C365 C364 1.396 . S
C365 C366 1.394 . S
C366 C336 1.723 . S
C366 C362 1.397 . S
C366 C365 1.394 . S
C367 H339 0.982 . S
C367 H343 0.979 . S
C367 H344 0.977 . S
C367 C364 1.453 . S
C368 H340 0.979 . S
C368 H341 0.980 . S
C368 H342 0.983 . S
C368 C364 1.684 . S
H369 C387 0.948 . S
H370 C328 0.948 . S
H371 C346 0.979 . S
H372 C346 0.980 . S
H373 C346 0.983 . S
H374 C345 0.982 . S
H375 C345 0.979 . S
H376 C345 0.977 . S
H377 C347 0.948 . S
H378 C349 0.947 . S
H379 C350 0.948 . S
H380 C356 0.982 . S
H381 C356 0.979 . S
H382 C356 0.977 . S
H383 C357 0.979 . S
H384 C357 0.980 . S
H385 C357 0.983 . S
H386 C330 0.947 . S
C387 C330 1.392 . S
C387 C331 1.419 . S
C387 H369 0.948 . S
C388 C389 1.391 . S
C388 C392 1.391 . S
C388 H430 0.948 . S
C389 C388 1.391 . S
C389 C390 1.391 . S
C390 C389 1.391 . S
C390 H446 0.947 . S
C390 C447 1.392 . S
C391 C392 1.391 . S
C391 C395 1.397 . S
C391 C447 1.419 . S
C392 C388 1.391 . S
C392 C391 1.391 . S
C392 C393 1.399 . S
C393 C392 1.399 . S
C393 C396 1.396 . S
C393 C405 1.453 . S
C393 C406 1.684 . S
H394 C418 0.948 . S
C395 C391 1.397 . S
C395 C396 1.394 . S
C395 C414 1.723 . S
C396 C393 1.396 . S
C396 C395 1.394 . S
C396 C426 1.723 . S
H397 C420 0.947 . S
H398 C421 0.948 . S
H399 C427 0.982 . S
H400 C428 0.979 . S
H401 C428 0.980 . S
H402 C428 0.983 . S
H403 C427 0.979 . S
H404 C427 0.977 . S
C405 C393 1.453 . S
C405 H434 0.982 . S
C405 H435 0.979 . S
C405 H436 0.977 . S
C406 C393 1.684 . S
C406 H431 0.979 . S
C406 H432 0.980 . S
C406 H433 0.983 . S
C407 C408 1.391 . S
C407 C412 1.391 1_565 S
C407 H437 0.948 . S
C408 C407 1.391 . S
C408 C409 1.391 . S
C409 C408 1.391 . S
C409 C410 1.392 1_565 S
C409 H438 0.947 . S
C410 C409 1.392 1_545 S
C410 C411 1.419 . S
C410 H439 0.948 . S
C411 C410 1.419 . S
C411 C412 1.391 . S
C411 C415 1.397 . S
C412 C407 1.391 1_545 S
C412 C411 1.391 . S
C412 C413 1.399 . S
C413 C412 1.399 . S
C413 C414 1.396 . S
C413 C416 1.453 . S
C413 C417 1.684 . S
C414 C395 1.723 . S
C414 C413 1.396 . S
C414 C415 1.394 . S
C415 C411 1.397 . S
C415 C414 1.394 . S
C415 C425 1.723 . S
C416 C413 1.453 . S
C416 H440 0.982 . S
C416 H441 0.979 . S
C416 H442 0.977 . S
C417 C413 1.684 . S
C417 H443 0.979 . S
C417 H444 0.980 . S
C417 H445 0.983 . S
C418 H394 0.948 . S
C418 C419 1.391 . S
C418 C423 1.391 1_655 S
C419 C418 1.391 . S
C419 C420 1.391 . S
C420 H397 0.947 . S
C420 C419 1.391 . S
C420 C421 1.392 1_655 S
C421 H398 0.948 . S
C421 C420 1.392 1_455 S
C421 C422 1.419 . S
C422 C421 1.419 . S
C422 C423 1.391 . S
C422 C426 1.397 . S
C423 C418 1.391 1_455 S
C423 C422 1.391 . S
C423 C424 1.399 . S
C424 C423 1.399 . S
C424 C425 1.396 . S
C424 C427 1.453 . S
C424 C428 1.684 . S
C425 C415 1.723 . S
C425 C424 1.396 . S
C425 C426 1.394 . S
C426 C396 1.723 . S
C426 C422 1.397 . S
C426 C425 1.394 . S
C427 H399 0.982 . S
C427 H403 0.979 . S
C427 H404 0.977 . S
C427 C424 1.453 . S
C428 H400 0.979 . S
C428 H401 0.980 . S
C428 H402 0.983 . S
C428 C424 1.684 . S
H429 C447 0.948 . S
H430 C388 0.948 . S
H431 C406 0.979 . S
H432 C406 0.980 . S
H433 C406 0.983 . S
H434 C405 0.982 . S
H435 C405 0.979 . S
H436 C405 0.977 . S
H437 C407 0.948 . S
H438 C409 0.947 . S
H439 C410 0.948 . S
H440 C416 0.982 . S
H441 C416 0.979 . S
H442 C416 0.977 . S
H443 C417 0.979 . S
H444 C417 0.980 . S
H445 C417 0.983 . S
H446 C390 0.947 . S
C447 C390 1.392 . S
C447 C391 1.419 . S
C447 H429 0.948 . S
C448 C449 1.391 . S
C448 C452 1.391 . S
C448 H490 0.948 . S
C449 C448 1.391 . S
C449 C450 1.391 . S
C450 C449 1.391 . S
C450 H506 0.947 . S
C450 C507 1.392 . S
C451 C452 1.391 . S
C451 C455 1.397 . S
C451 C507 1.419 . S
C452 C448 1.391 . S
C452 C451 1.391 . S
C452 C453 1.399 . S
C453 C452 1.399 . S
C453 C456 1.396 . S
C453 C465 1.453 . S
C453 C466 1.684 . S
H454 C478 0.948 . S
C455 C451 1.397 . S
C455 C456 1.394 . S
C455 C474 1.723 . S
C456 C453 1.396 . S
C456 C455 1.394 . S
C456 C486 1.723 . S
H457 C480 0.947 . S
H458 C481 0.948 . S
H459 C487 0.982 . S
H460 C488 0.979 . S
H461 C488 0.980 . S
H462 C488 0.983 . S
H463 C487 0.979 . S
H464 C487 0.977 . S
C465 C453 1.453 . S
C465 H494 0.982 . S
C465 H495 0.979 . S
C465 H496 0.977 . S
C466 C453 1.684 . S
C466 H491 0.979 . S
C466 H492 0.980 . S
C466 H493 0.983 . S
C467 C468 1.391 . S
C467 C472 1.391 . S
C467 H497 0.948 . S
C468 C467 1.391 . S
C468 C469 1.391 . S
C469 C468 1.391 . S
C469 C470 1.392 . S
C469 H498 0.947 . S
C470 C469 1.392 . S
C470 C471 1.419 . S
C470 H499 0.948 . S
C471 C470 1.419 . S
C471 C472 1.391 . S
C471 C475 1.397 . S
C472 C467 1.391 . S
C472 C471 1.391 . S
C472 C473 1.399 . S
C473 C472 1.399 . S
C473 C474 1.396 . S
C473 C476 1.453 . S
C473 C477 1.684 . S
C474 C455 1.723 . S
C474 C473 1.396 . S
C474 C475 1.394 . S
C475 C471 1.397 . S
C475 C474 1.394 . S
C475 C485 1.723 . S
C476 C473 1.453 . S
C476 H500 0.982 . S
C476 H501 0.979 . S
C476 H502 0.977 . S
C477 C473 1.684 . S
C477 H503 0.979 . S
C477 H504 0.980 . S
C477 H505 0.983 . S
C478 H454 0.948 . S
C478 C479 1.391 . S
C478 C483 1.391 . S
C479 C478 1.391 . S
C479 C480 1.391 . S
C480 H457 0.947 . S
C480 C479 1.391 . S
C480 C481 1.392 . S
C481 H458 0.948 . S
C481 C480 1.392 . S
C481 C482 1.419 . S
C482 C481 1.419 . S
C482 C483 1.391 . S
C482 C486 1.397 . S
C483 C478 1.391 . S
C483 C482 1.391 . S
C483 C484 1.399 . S
C484 C483 1.399 . S
C484 C485 1.396 . S
C484 C487 1.453 . S
C484 C488 1.684 . S
C485 C475 1.723 . S
C485 C484 1.396 . S
C485 C486 1.394 . S
C486 C456 1.723 . S
C486 C482 1.397 . S
C486 C485 1.394 . S
C487 H459 0.982 . S
C487 H463 0.979 . S
C487 H464 0.977 . S
C487 C484 1.453 . S
C488 H460 0.979 . S
C488 H461 0.980 . S
C488 H462 0.983 . S
C488 C484 1.684 . S
H489 C507 0.948 . S
H490 C448 0.948 . S
H491 C466 0.979 . S
H492 C466 0.980 . S
H493 C466 0.983 . S
H494 C465 0.982 . S
H495 C465 0.979 . S
H496 C465 0.977 . S
H497 C467 0.948 . S
H498 C469 0.947 . S
H499 C470 0.948 . S
H500 C476 0.982 . S
H501 C476 0.979 . S
H502 C476 0.977 . S
H503 C477 0.979 . S
H504 C477 0.980 . S
H505 C477 0.983 . S
H506 C450 0.947 . S
C507 C450 1.392 . S
C507 C451 1.419 . S
C507 H489 0.948 . S
C508 C509 1.391 . S
C508 C512 1.391 1_545 S
C508 H550 0.948 . S
C509 C508 1.391 . S
C509 C510 1.391 . S
C510 C509 1.391 . S
C510 H566 0.947 . S
C510 C567 1.392 1_545 S
C511 C512 1.391 . S
C511 C515 1.397 . S
C511 C567 1.419 . S
C512 C508 1.391 1_565 S
C512 C511 1.391 . S
C512 C513 1.399 . S
C513 C512 1.399 . S
C513 C516 1.396 . S
C513 C525 1.453 . S
C513 C526 1.684 . S
H514 C538 0.948 . S
C515 C511 1.397 . S
C515 C516 1.394 . S
C515 C534 1.723 . S
C516 C513 1.396 . S
C516 C515 1.394 . S
C516 C546 1.723 . S
H517 C540 0.947 . S
H518 C541 0.948 . S
H519 C547 0.982 . S
H520 C548 0.979 . S
H521 C548 0.980 . S
H522 C548 0.983 . S
H523 C547 0.979 . S
H524 C547 0.977 . S
C525 C513 1.453 . S
C525 H554 0.982 . S
C525 H555 0.979 . S
C525 H556 0.977 . S
C526 C513 1.684 . S
C526 H551 0.979 . S
C526 H552 0.980 . S
C526 H553 0.983 . S
C527 C528 1.391 . S
C527 C532 1.391 1_455 S
C527 H557 0.948 . S
C528 C527 1.391 . S
C528 C529 1.391 . S
C529 C528 1.391 . S
C529 C530 1.392 1_455 S
C529 H558 0.947 . S
C530 C529 1.392 1_655 S
C530 C531 1.419 . S
C530 H559 0.948 . S
C531 C530 1.419 . S
C531 C532 1.391 . S
C531 C535 1.397 . S
C532 C527 1.391 1_655 S
C532 C531 1.391 . S
C532 C533 1.399 . S
C533 C532 1.399 . S
C533 C534 1.396 . S
C533 C536 1.453 . S
C533 C537 1.684 . S
C534 C515 1.723 . S
C534 C533 1.396 . S
C534 C535 1.394 . S
C535 C531 1.397 . S
C535 C534 1.394 . S
C535 C545 1.723 . S
C536 C533 1.453 . S
C536 H560 0.982 . S
C536 H561 0.979 . S
C536 H562 0.977 . S
C537 C533 1.684 . S
C537 H563 0.979 . S
C537 H564 0.980 . S
C537 H565 0.983 . S
C538 H514 0.948 . S
C538 C539 1.391 . S
C538 C543 1.391 . S
C539 C538 1.391 . S
C539 C540 1.391 . S
C540 H517 0.947 . S
C540 C539 1.391 . S
C540 C541 1.392 . S
C541 H518 0.948 . S
C541 C540 1.392 . S
C541 C542 1.419 . S
C542 C541 1.419 . S
C542 C543 1.391 . S
C542 C546 1.397 . S
C543 C538 1.391 . S
C543 C542 1.391 . S
C543 C544 1.399 . S
C544 C543 1.399 . S
C544 C545 1.396 . S
C544 C547 1.453 . S
C544 C548 1.684 . S
C545 C535 1.723 . S
C545 C544 1.396 . S
C545 C546 1.394 . S
C546 C516 1.723 . S
C546 C542 1.397 . S
C546 C545 1.394 . S
C547 H519 0.982 . S
C547 H523 0.979 . S
C547 H524 0.977 . S
C547 C544 1.453 . S
C548 H520 0.979 . S
C548 H521 0.980 . S
C548 H522 0.983 . S
C548 C544 1.684 . S
H549 C567 0.948 . S
H550 C508 0.948 . S
H551 C526 0.979 . S
H552 C526 0.980 . S
H553 C526 0.983 . S
H554 C525 0.982 . S
H555 C525 0.979 . S
H556 C525 0.977 . S
H557 C527 0.948 . S
H558 C529 0.947 . S
H559 C530 0.948 . S
H560 C536 0.982 . S
H561 C536 0.979 . S
H562 C536 0.977 . S
H563 C537 0.979 . S
H564 C537 0.980 . S
H565 C537 0.983 . S
H566 C510 0.947 . S
C567 C510 1.392 1_565 S
C567 C511 1.419 . S
C567 H549 0.948 . S
C8 C89 1.713 . S
C31 C168 2.075 . S
C53 C239 2.073 . S
C299 C74 2.075 . S
C329 C26 1.715 . S
C48 C419 2.077 . S
C71 C479 2.075 . S
C5 C528 2.077 . S
C50 C509 1.677 . S
C348 C70 2.107 . S
C408 C4 1.677 . S
C28 C468 1.676 . S
C149 C73 1.676 . S
C7 C228 1.674 . S
C288 C30 1.676 . S
C108 C52 2.105 . S
C449 C9 1.288 . S
C539 C29 1.291 . S
C51 C359 1.120 . S
C389 C75 1.291 . S
C209 C27 1.291 . S
C49 C269 1.293 . S
C119 C72 1.122 . S
C179 C6 1.293 . S
