# Generated by pormake.
# Topology ptr, (4,4)-cn, num edge types: 1
# Building blocks:
#     Node 0, Type 0, BuildingBlock: NAHDIM_clean_sbu_0, # of connection points: 4
#     Node 1, Type 0, BuildingBlock: NAHDIM_clean_sbu_0, # of connection points: 4
#     Node 2, Type 0, BuildingBlock: NAHDIM_clean_sbu_0, # of connection points: 4
#     Node 3, Type 0, BuildingBlock: NAHDIM_clean_sbu_0, # of connection points: 4
#     Node 4, Type 0, BuildingBlock: NAHDIM_clean_sbu_0, # of connection points: 4
#     Node 5, Type 0, BuildingBlock: NAHDIM_clean_sbu_0, # of connection points: 4
#     Node 6, Type 0, BuildingBlock: NAHDIM_clean_sbu_0, # of connection points: 4
#     Node 7, Type 0, BuildingBlock: NAHDIM_clean_sbu_0, # of connection points: 4
#     Node 8, Type 0, BuildingBlock: NAHDIM_clean_sbu_0, # of connection points: 4
#     Node 9, Type 0, BuildingBlock: NAHDIM_clean_sbu_0, # of connection points: 4
#     Node 10, Type 0, BuildingBlock: NAHDIM_clean_sbu_0, # of connection points: 4
#     Node 11, Type 0, BuildingBlock: NAHDIM_clean_sbu_0, # of connection points: 4
#     Node 12, Type 0, BuildingBlock: NAHDIM_clean_sbu_0, # of connection points: 4
#     Node 13, Type 0, BuildingBlock: NAHDIM_clean_sbu_0, # of connection points: 4
#     Node 14, Type 0, BuildingBlock: NAHDIM_clean_sbu_0, # of connection points: 4
#     Node 15, Type 0, BuildingBlock: NAHDIM_clean_sbu_0, # of connection points: 4
#     Node 16, Type 0, BuildingBlock: NAHDIM_clean_sbu_0, # of connection points: 4
#     Node 17, Type 0, BuildingBlock: NAHDIM_clean_sbu_0, # of connection points: 4
#     Node 18, Type 1, BuildingBlock: NAHDIM_clean_linker_0, # of connection points: 4
#     Node 19, Type 1, BuildingBlock: NAHDIM_clean_linker_0, # of connection points: 4
#     Node 20, Type 1, BuildingBlock: NAHDIM_clean_linker_0, # of connection points: 4
#     Node 21, Type 1, BuildingBlock: NAHDIM_clean_linker_0, # of connection points: 4
#     Node 22, Type 1, BuildingBlock: NAHDIM_clean_linker_0, # of connection points: 4
#     Node 23, Type 1, BuildingBlock: NAHDIM_clean_linker_0, # of connection points: 4
#     Node 24, Type 1, BuildingBlock: NAHDIM_clean_linker_0, # of connection points: 4
#     Node 25, Type 1, BuildingBlock: NAHDIM_clean_linker_0, # of connection points: 4
#     Node 26, Type 1, BuildingBlock: NAHDIM_clean_linker_0, # of connection points: 4
#     Node 27, Type 1, BuildingBlock: NAHDIM_clean_linker_0, # of connection points: 4
#     Node 28, Type 1, BuildingBlock: NAHDIM_clean_linker_0, # of connection points: 4
#     Node 29, Type 1, BuildingBlock: NAHDIM_clean_linker_0, # of connection points: 4
#     Node 30, Type 1, BuildingBlock: NAHDIM_clean_linker_0, # of connection points: 4
#     Node 31, Type 1, BuildingBlock: NAHDIM_clean_linker_0, # of connection points: 4
#     Node 32, Type 1, BuildingBlock: NAHDIM_clean_linker_0, # of connection points: 4
#     Node 33, Type 1, BuildingBlock: NAHDIM_clean_linker_0, # of connection points: 4
#     Node 34, Type 1, BuildingBlock: NAHDIM_clean_linker_0, # of connection points: 4
#     Node 35, Type 1, BuildingBlock: NAHDIM_clean_linker_0, # of connection points: 4
#     Edge 36, Type (0, 1), BuildingBlock: OJICUG_clean_linker_0, # of connection points: 2
#     Edge 37, Type (0, 1), BuildingBlock: OJICUG_clean_linker_0, # of connection points: 2
#     Edge 38, Type (0, 1), BuildingBlock: OJICUG_clean_linker_0, # of connection points: 2
#     Edge 39, Type (0, 1), BuildingBlock: OJICUG_clean_linker_0, # of connection points: 2
#     Edge 40, Type (0, 1), BuildingBlock: OJICUG_clean_linker_0, # of connection points: 2
#     Edge 41, Type (0, 1), BuildingBlock: OJICUG_clean_linker_0, # of connection points: 2
#     Edge 42, Type (0, 1), BuildingBlock: OJICUG_clean_linker_0, # of connection points: 2
#     Edge 43, Type (0, 1), BuildingBlock: OJICUG_clean_linker_0, # of connection points: 2
#     Edge 44, Type (0, 1), BuildingBlock: OJICUG_clean_linker_0, # of connection points: 2
#     Edge 45, Type (0, 1), BuildingBlock: OJICUG_clean_linker_0, # of connection points: 2
#     Edge 46, Type (0, 1), BuildingBlock: OJICUG_clean_linker_0, # of connection points: 2
#     Edge 47, Type (0, 1), BuildingBlock: OJICUG_clean_linker_0, # of connection points: 2
#     Edge 48, Type (0, 1), BuildingBlock: OJICUG_clean_linker_0, # of connection points: 2
#     Edge 49, Type (0, 1), BuildingBlock: OJICUG_clean_linker_0, # of connection points: 2
#     Edge 50, Type (0, 1), BuildingBlock: OJICUG_clean_linker_0, # of connection points: 2
#     Edge 51, Type (0, 1), BuildingBlock: OJICUG_clean_linker_0, # of connection points: 2
#     Edge 52, Type (0, 1), BuildingBlock: OJICUG_clean_linker_0, # of connection points: 2
#     Edge 53, Type (0, 1), BuildingBlock: OJICUG_clean_linker_0, # of connection points: 2
#     Edge 54, Type (0, 1), BuildingBlock: OJICUG_clean_linker_0, # of connection points: 2
#     Edge 55, Type (0, 1), BuildingBlock: OJICUG_clean_linker_0, # of connection points: 2
#     Edge 56, Type (0, 1), BuildingBlock: OJICUG_clean_linker_0, # of connection points: 2
#     Edge 57, Type (0, 1), BuildingBlock: OJICUG_clean_linker_0, # of connection points: 2
#     Edge 58, Type (0, 1), BuildingBlock: OJICUG_clean_linker_0, # of connection points: 2
#     Edge 59, Type (0, 1), BuildingBlock: OJICUG_clean_linker_0, # of connection points: 2
#     Edge 60, Type (0, 1), BuildingBlock: OJICUG_clean_linker_0, # of connection points: 2
#     Edge 61, Type (0, 1), BuildingBlock: OJICUG_clean_linker_0, # of connection points: 2
#     Edge 62, Type (0, 1), BuildingBlock: OJICUG_clean_linker_0, # of connection points: 2
#     Edge 63, Type (0, 1), BuildingBlock: OJICUG_clean_linker_0, # of connection points: 2
#     Edge 64, Type (0, 1), BuildingBlock: OJICUG_clean_linker_0, # of connection points: 2
#     Edge 65, Type (0, 1), BuildingBlock: OJICUG_clean_linker_0, # of connection points: 2
#     Edge 66, Type (0, 1), BuildingBlock: OJICUG_clean_linker_0, # of connection points: 2
#     Edge 67, Type (0, 1), BuildingBlock: OJICUG_clean_linker_0, # of connection points: 2
#     Edge 68, Type (0, 1), BuildingBlock: OJICUG_clean_linker_0, # of connection points: 2
#     Edge 69, Type (0, 1), BuildingBlock: OJICUG_clean_linker_0, # of connection points: 2
#     Edge 70, Type (0, 1), BuildingBlock: OJICUG_clean_linker_0, # of connection points: 2
#     Edge 71, Type (0, 1), BuildingBlock: OJICUG_clean_linker_0, # of connection points: 2
#     Edge 72, Type (0, 1), BuildingBlock: OJICUG_clean_linker_0, # of connection points: 2
#     Edge 73, Type (0, 1), BuildingBlock: OJICUG_clean_linker_0, # of connection points: 2
#     Edge 74, Type (0, 1), BuildingBlock: OJICUG_clean_linker_0, # of connection points: 2
#     Edge 75, Type (0, 1), BuildingBlock: OJICUG_clean_linker_0, # of connection points: 2
#     Edge 76, Type (0, 1), BuildingBlock: OJICUG_clean_linker_0, # of connection points: 2
#     Edge 77, Type (0, 1), BuildingBlock: OJICUG_clean_linker_0, # of connection points: 2
#     Edge 78, Type (0, 1), BuildingBlock: OJICUG_clean_linker_0, # of connection points: 2
#     Edge 79, Type (0, 1), BuildingBlock: OJICUG_clean_linker_0, # of connection points: 2
#     Edge 80, Type (0, 1), BuildingBlock: OJICUG_clean_linker_0, # of connection points: 2
#     Edge 81, Type (0, 1), BuildingBlock: OJICUG_clean_linker_0, # of connection points: 2
#     Edge 82, Type (0, 1), BuildingBlock: OJICUG_clean_linker_0, # of connection points: 2
#     Edge 83, Type (0, 1), BuildingBlock: OJICUG_clean_linker_0, # of connection points: 2
#     Edge 84, Type (0, 1), BuildingBlock: OJICUG_clean_linker_0, # of connection points: 2
#     Edge 85, Type (0, 1), BuildingBlock: OJICUG_clean_linker_0, # of connection points: 2
#     Edge 86, Type (0, 1), BuildingBlock: OJICUG_clean_linker_0, # of connection points: 2
#     Edge 87, Type (0, 1), BuildingBlock: OJICUG_clean_linker_0, # of connection points: 2
#     Edge 88, Type (0, 1), BuildingBlock: OJICUG_clean_linker_0, # of connection points: 2
#     Edge 89, Type (0, 1), BuildingBlock: OJICUG_clean_linker_0, # of connection points: 2
#     Edge 90, Type (0, 1), BuildingBlock: OJICUG_clean_linker_0, # of connection points: 2
#     Edge 91, Type (0, 1), BuildingBlock: OJICUG_clean_linker_0, # of connection points: 2
#     Edge 92, Type (0, 1), BuildingBlock: OJICUG_clean_linker_0, # of connection points: 2
#     Edge 93, Type (0, 1), BuildingBlock: OJICUG_clean_linker_0, # of connection points: 2
#     Edge 94, Type (0, 1), BuildingBlock: OJICUG_clean_linker_0, # of connection points: 2
#     Edge 95, Type (0, 1), BuildingBlock: OJICUG_clean_linker_0, # of connection points: 2
#     Edge 96, Type (0, 1), BuildingBlock: OJICUG_clean_linker_0, # of connection points: 2
#     Edge 97, Type (0, 1), BuildingBlock: OJICUG_clean_linker_0, # of connection points: 2
#     Edge 98, Type (0, 1), BuildingBlock: OJICUG_clean_linker_0, # of connection points: 2
#     Edge 99, Type (0, 1), BuildingBlock: OJICUG_clean_linker_0, # of connection points: 2
#     Edge 100, Type (0, 1), BuildingBlock: OJICUG_clean_linker_0, # of connection points: 2
#     Edge 101, Type (0, 1), BuildingBlock: OJICUG_clean_linker_0, # of connection points: 2
#     Edge 102, Type (0, 1), BuildingBlock: OJICUG_clean_linker_0, # of connection points: 2
#     Edge 103, Type (0, 1), BuildingBlock: OJICUG_clean_linker_0, # of connection points: 2
#     Edge 104, Type (0, 1), BuildingBlock: OJICUG_clean_linker_0, # of connection points: 2
#     Edge 105, Type (0, 1), BuildingBlock: OJICUG_clean_linker_0, # of connection points: 2
#     Edge 106, Type (0, 1), BuildingBlock: OJICUG_clean_linker_0, # of connection points: 2
#     Edge 107, Type (0, 1), BuildingBlock: OJICUG_clean_linker_0, # of connection points: 2
# Relax obj value: 0.084
# Max RMSD: 0.308
# Mean RMSD: 0.119
data_MOF--net-ptr--node1-NAHDIM_clean_sbu_0--node2-NAHDIM_clean_linker_0--edge1-OJICUG_clean_linker_0
_symmetry_space_group_name_H-M    P1
_symmetry_Int_Tables_number       1
_symmetry_cell_setting            triclinic
loop_
_symmetry_equiv_pos_as_xyz
'x, y, z'
_cell_length_a     77.278007
_cell_length_b     75.459202
_cell_length_c     63.719889
_cell_angle_alpha  92.733406
_cell_angle_beta   89.629215
_cell_angle_gamma 122.22772
loop_
_atom_site_label
_atom_site_type_symbol
_atom_site_fract_x
_atom_site_fract_y
_atom_site_fract_z
_atom_type_partial_charge
C0 C 0.02507 0.31997 0.01697 0.0
O1 O 0.01486 0.31197 0.9991 0.0
O2 O 0.97868 0.32154 0.01114 0.0
Zn3 Zn 0.00753 0.34578 0.01731 0.0
O4 O 0.00809 0.36515 0.0403 0.0
C5 C 0.0047 0.36498 0.98228 0.0
O6 O 0.98633 0.35649 0.99011 0.0
O7 O 0.02481 0.33489 0.02672 0.0
C8 C 0.9946 0.35962 0.05427 0.0
O9 O 0.9791 0.34007 0.05403 0.0
C10 C 0.97044 0.30356 0.01862 0.0
O11 O 0.9806 0.29967 0.03212 0.0
O12 O 0.01779 0.36242 0.99131 0.0
C13 C 0.70089 0.682 0.98542 0.0
O14 O 0.69323 0.69368 0.98935 0.0
O15 O 0.68173 0.68528 0.0341 0.0
Zn16 Zn 0.67154 0.65938 0.01503 0.0
O17 O 0.64704 0.65289 0.99762 0.0
C18 C 0.64935 0.63098 0.04573 0.0
O19 O 0.64198 0.64315 0.04645 0.0
O20 O 0.69411 0.66525 0.99507 0.0
C21 C 0.64206 0.6391 0.98273 0.0
O22 O 0.65293 0.63048 0.9801 0.0
C23 C 0.67108 0.69266 0.04035 0.0
O24 O 0.65184 0.6834 0.03427 0.0
O25 O 0.66327 0.63463 0.03269 0.0
C26 C 0.32842 0.0327 0.99413 0.0
O27 O 0.31926 0.01315 0.98668 0.0
O28 O 0.31584 0.99368 0.02682 0.0
Zn29 Zn 0.3442 0.01508 0.01809 0.0
O30 O 0.35384 0.00441 0.99416 0.0
C31 C 0.37796 0.04086 0.04868 0.0
O32 O 0.38119 0.05712 0.0386 0.0
O33 O 0.342 0.0389 0.0086 0.0
C34 C 0.36995 0.01812 0.98526 0.0
O35 O 0.37874 0.0379 0.99184 0.0
C36 C 0.30502 0.97419 0.02181 0.0
O37 O 0.31271 0.96543 0.00994 0.0
O38 O 0.36333 0.02262 0.04275 0.0
C39 C 0.97371 0.67393 0.98772 0.0
O40 O 0.99134 0.68006 0.97895 0.0
O41 O 0.00975 0.68271 0.02485 0.0
Zn42 Zn 0.9884 0.65444 0.01185 0.0
O43 O 0.99883 0.64509 0.98734 0.0
C44 C 0.98774 0.63576 0.05028 0.0
O45 O 0.0066 0.65208 0.05173 0.0
O46 O 0.96745 0.66034 0.0016 0.0
C47 C 0.01287 0.64123 0.98904 0.0
O48 O 0.02128 0.64341 0.00761 0.0
C49 C 0.02578 0.69651 0.01594 0.0
O50 O 0.03103 0.69149 0.99804 0.0
O51 O 0.9768 0.6331 0.03418 0.0
C52 C 0.30504 0.33659 0.03213 0.0
O53 O 0.31679 0.33057 0.03963 0.0
O54 O 0.33212 0.33089 0.99145 0.0
Zn55 Zn 0.3394 0.35816 0.00672 0.0
O56 O 0.35989 0.36592 0.03022 0.0
C57 C 0.35555 0.37999 0.96863 0.0
O58 O 0.35747 0.364 0.96386 0.0
O59 O 0.31233 0.35065 0.01871 0.0
C60 C 0.37757 0.36906 0.02726 0.0
O61 O 0.38333 0.36832 0.00796 0.0
C62 C 0.33477 0.31742 0.99954 0.0
O63 O 0.34547 0.3225 0.01717 0.0
O64 O 0.34863 0.38115 0.98645 0.0
C65 C 0.67193 0.98161 0.03655 0.0
O66 O 0.68062 0.00109 0.04408 0.0
O67 O 0.68013 0.01742 0.0005 0.0
Zn68 Zn 0.65294 0.99689 0.01292 0.0
O69 O 0.64565 0.00906 0.03779 0.0
C70 C 0.63305 0.99692 0.97529 0.0
O71 O 0.64911 0.01618 0.97559 0.0
O72 O 0.65746 0.97473 0.02296 0.0
C73 C 0.64127 0.02303 0.03691 0.0
O74 O 0.64181 0.03085 0.01876 0.0
C75 C 0.69382 0.03546 0.00805 0.0
O76 O 0.69011 0.04329 0.02509 0.0
O77 O 0.63098 0.98525 0.9901 0.0
C78 C 0.67749 0.65823 0.37035 0.0
O79 O 0.6575 0.6462 0.36841 0.0
O80 O 0.64936 0.65046 0.32574 0.0
Zn81 Zn 0.66894 0.67848 0.34049 0.0
O82 O 0.65382 0.68795 0.35884 0.0
C83 C 0.67414 0.70307 0.30643 0.0
O84 O 0.65409 0.69117 0.30702 0.0
O85 O 0.6871 0.67426 0.35943 0.0
C86 C 0.66398 0.70199 0.37326 0.0
O87 O 0.68371 0.70978 0.3753 0.0
C88 C 0.63005 0.6412 0.32708 0.0
O89 O 0.62222 0.65089 0.33703 0.0
O90 O 0.68476 0.70039 0.31956 0.0
C91 C 0.36827 0.99219 0.34061 0.0
O92 O 0.37411 0.00456 0.35774 0.0
O93 O 0.34425 0.01846 0.36087 0.0
Zn94 Zn 0.32973 0.98877 0.34838 0.0
O95 O 0.30753 0.9834 0.32777 0.0
C96 C 0.29924 0.96107 0.37747 0.0
O97 O 0.28803 0.96712 0.3687 0.0
O98 O 0.35009 0.98398 0.33355 0.0
C99 C 0.30239 0.96947 0.31299 0.0
O100 O 0.31182 0.95925 0.31154 0.0
C101 C 0.33625 0.02398 0.37512 0.0
O102 O 0.31792 0.01034 0.38167 0.0
O103 O 0.3174 0.96827 0.37134 0.0
C104 C 0.03293 0.3876 0.32386 0.0
O105 O 0.04864 0.3862 0.31864 0.0
O106 O 0.99232 0.32741 0.35551 0.0
Zn107 Zn 0.01982 0.34902 0.34439 0.0
O108 O 0.02639 0.33541 0.32031 0.0
C109 C 0.04329 0.3479 0.37911 0.0
O110 O 0.03023 0.32754 0.37688 0.0
O111 O 0.01881 0.37345 0.33459 0.0
C112 C 0.04446 0.33973 0.31707 0.0
O113 O 0.05949 0.35376 0.32958 0.0
C114 C 0.9762 0.32606 0.34872 0.0
O115 O 0.97781 0.33911 0.33477 0.0
O116 O 0.04159 0.3599 0.36714 0.0
C117 C 0.64495 0.9855 0.31294 0.0
O118 O 0.66298 0.00264 0.31095 0.0
O119 O 0.67994 0.00945 0.356 0.0
Zn120 Zn 0.66642 0.97925 0.34479 0.0
O121 O 0.68484 0.97551 0.32511 0.0
C122 C 0.66198 0.96452 0.38704 0.0
O123 O 0.67758 0.98363 0.39157 0.0
O124 O 0.6424 0.9729 0.32687 0.0
C125 C 0.69854 0.97158 0.32892 0.0
O126 O 0.70207 0.96907 0.34836 0.0
C127 C 0.69838 0.02333 0.35215 0.0
O128 O 0.70952 0.01778 0.34151 0.0
O129 O 0.65553 0.95913 0.36811 0.0
C130 C 0.96702 0.66856 0.3649 0.0
O131 O 0.97755 0.66102 0.3722 0.0
O132 O 0.00115 0.66672 0.33129 0.0
Zn133 Zn 0.00447 0.69331 0.34462 0.0
O134 O 0.02289 0.70297 0.37036 0.0
C135 C 0.02176 0.71471 0.30627 0.0
O136 O 0.02414 0.69891 0.30222 0.0
O137 O 0.9759 0.68412 0.35324 0.0
C138 C 0.04197 0.71033 0.36934 0.0
O139 O 0.05035 0.7131 0.35081 0.0
C140 C 0.00837 0.65683 0.33934 0.0
O141 O 0.0203 0.66499 0.35616 0.0
O142 O 0.01416 0.71585 0.32367 0.0
C143 C 0.33121 0.31626 0.3705 0.0
O144 O 0.34037 0.33602 0.37724 0.0
O145 O 0.33494 0.3495 0.33243 0.0
Zn146 Zn 0.3093 0.32933 0.34757 0.0
O147 O 0.30414 0.34363 0.37219 0.0
C148 C 0.28599 0.32342 0.31003 0.0
O149 O 0.30138 0.34262 0.30736 0.0
O150 O 0.31572 0.30874 0.35817 0.0
C151 C 0.30077 0.35826 0.37055 0.0
O152 O 0.29989 0.36428 0.35178 0.0
C153 C 0.34874 0.36782 0.33925 0.0
O154 O 0.34605 0.37561 0.35695 0.0
O155 O 0.28553 0.31456 0.3267 0.0
C156 C 0.35734 0.00424 0.70029 0.0
O157 O 0.3381 0.9945 0.70571 0.0
O158 O 0.32001 0.99355 0.66236 0.0
Zn159 Zn 0.34245 0.02222 0.67406 0.0
O160 O 0.33182 0.03328 0.69677 0.0
C161 C 0.34447 0.04142 0.63514 0.0
O162 O 0.3255 0.02545 0.63273 0.0
O163 O 0.36375 0.0181 0.68675 0.0
C164 C 0.3186 0.03784 0.69273 0.0
O165 O 0.31183 0.03542 0.67329 0.0
C166 C 0.30278 0.98273 0.67104 0.0
O167 O 0.29865 0.99082 0.68755 0.0
O168 O 0.35475 0.043 0.65139 0.0
C169 C 0.03095 0.32873 0.67336 0.0
O170 O 0.02031 0.30825 0.6746 0.0
O171 O 0.98776 0.34454 0.70286 0.0
Zn172 Zn 0.99307 0.32449 0.68658 0.0
O173 O 0.97491 0.31546 0.6608 0.0
C174 C 0.96571 0.28743 0.707 0.0
O175 O 0.95289 0.29243 0.70035 0.0
O176 O 0.02255 0.33895 0.67809 0.0
C177 C 0.97036 0.29976 0.6485 0.0
O178 O 0.9783 0.2885 0.65204 0.0
C179 C 0.9927 0.36146 0.69432 0.0
O180 O 0.00261 0.36575 0.6766 0.0
O181 O 0.98462 0.29917 0.70327 0.0
C182 C 0.66592 0.68966 0.64993 0.0
O183 O 0.65567 0.66912 0.64708 0.0
O184 O 0.66041 0.66054 0.69272 0.0
Zn185 Zn 0.68656 0.67905 0.67764 0.0
O186 O 0.6934 0.66229 0.65743 0.0
C187 C 0.7116 0.68373 0.71219 0.0
O188 O 0.69882 0.66327 0.711 0.0
O189 O 0.68157 0.6986 0.66215 0.0
C190 C 0.71209 0.66952 0.65349 0.0
O191 O 0.72628 0.6877 0.66217 0.0
C192 C 0.64926 0.64065 0.69105 0.0
O193 O 0.65506 0.63017 0.67907 0.0
O194 O 0.7094 0.69472 0.69923 0.0
C195 C 0.31492 0.34219 0.65286 0.0
O196 O 0.33403 0.35104 0.6471 0.0
O197 O 0.34998 0.34665 0.68792 0.0
Zn198 Zn 0.32734 0.31918 0.67465 0.0
O199 O 0.33848 0.31055 0.65036 0.0
C200 C 0.3229 0.29825 0.71306 0.0
O201 O 0.3419 0.31386 0.71648 0.0
O202 O 0.30739 0.32623 0.66396 0.0
C203 C 0.35494 0.31078 0.65249 0.0
O204 O 0.36397 0.31556 0.67111 0.0
C205 C 0.34473 0.35667 0.70023 0.0
O206 O 0.3255 0.34747 0.70567 0.0
O207 O 0.3138 0.29702 0.69599 0.0
C208 C 0.64833 0.00871 0.69182 0.0
O209 O 0.65311 0.9949 0.69588 0.0
O210 O 0.67069 0.99411 0.65344 0.0
Zn211 Zn 0.68326 0.02368 0.66597 0.0
O212 O 0.70547 0.03064 0.68741 0.0
C213 C 0.69618 0.04094 0.62476 0.0
O214 O 0.69375 0.02268 0.61953 0.0
O215 O 0.6598 0.02351 0.68 0.0
C216 C 0.70759 0.04131 0.70433 0.0
O217 O 0.69578 0.04879 0.70735 0.0
C218 C 0.67455 0.98118 0.66078 0.0
O219 O 0.68889 0.98783 0.67542 0.0
O220 O 0.69326 0.04481 0.64363 0.0
C221 C 0.987 0.64666 0.69616 0.0
O222 O 0.00321 0.66575 0.69874 0.0
O223 O 0.00081 0.68432 0.66022 0.0
Zn224 Zn 0.97283 0.66824 0.673 0.0
O225 O 0.96965 0.68622 0.69538 0.0
C226 C 0.95389 0.66292 0.63207 0.0
O227 O 0.97204 0.67894 0.62767 0.0
O228 O 0.97152 0.64381 0.68604 0.0
C229 C 0.96217 0.67904 0.7131 0.0
O230 O 0.95536 0.65933 0.71635 0.0
C231 C 0.01471 0.70278 0.66658 0.0
O232 O 0.01041 0.71283 0.68097 0.0
O233 O 0.95061 0.65639 0.65058 0.0
C234 C 0.21323 0.2643 0.016 0.0
C235 C 0.21724 0.28002 0.03425 0.0
C236 C 0.20013 0.27381 0.06774 0.0
C237 C 0.20583 0.2945 0.07313 0.0
C238 C 0.19479 0.29868 0.08795 0.0
C239 C 0.17748 0.28179 0.09719 0.0
C240 C 0.17219 0.26094 0.09233 0.0
C241 C 0.18392 0.25729 0.07795 0.0
C242 C 0.20122 0.32113 0.09315 0.0
C243 C 0.15361 0.24248 0.10151 0.0
C244 C 0.06374 0.30716 0.0332 0.0
C245 C 0.07455 0.29773 0.04225 0.0
C246 C 0.10101 0.30658 0.06897 0.0
C247 C 0.09513 0.28575 0.07196 0.0
C248 C 0.10628 0.28132 0.08574 0.0
C249 C 0.12387 0.29803 0.09641 0.0
C250 C 0.12982 0.31899 0.09343 0.0
C251 C 0.11813 0.32295 0.07992 0.0
C252 C 0.09942 0.25877 0.08868 0.0
C253 C 0.14877 0.33722 0.10415 0.0
C254 C 0.09325 0.3061 0.23118 0.0
C255 C 0.08715 0.28529 0.22545 0.0
C256 C 0.10061 0.28084 0.21511 0.0
C257 C 0.12049 0.29749 0.21037 0.0
C258 C 0.12676 0.31838 0.21641 0.0
C259 C 0.11301 0.32239 0.22671 0.0
C260 C 0.09349 0.25838 0.20885 0.0
C261 C 0.14787 0.3365 0.21163 0.0
C262 C 0.23519 0.25544 0.23546 0.0
C263 C 0.23161 0.27336 0.23972 0.0
C264 C 0.19913 0.27061 0.23339 0.0
C265 C 0.17862 0.25525 0.22906 0.0
C266 C 0.16596 0.25981 0.21792 0.0
C267 C 0.17399 0.28043 0.21146 0.0
C268 C 0.19448 0.29633 0.21679 0.0
C269 C 0.20689 0.29123 0.22763 0.0
C270 C 0.14413 0.24252 0.21274 0.0
C271 C 0.20331 0.31864 0.21081 0.0
C272 C 0.16363 0.28579 0.10987 0.0
C273 C 0.15055 0.28975 0.09892 0.0
C274 C 0.1369 0.29362 0.10941 0.0
C275 C 0.13604 0.29337 0.13156 0.0
C276 C 0.12225 0.29687 0.14262 0.0
C277 C 0.1217 0.29684 0.16444 0.0
C278 C 0.13482 0.29316 0.17604 0.0
C279 C 0.13441 0.29317 0.19823 0.0
C280 C 0.14744 0.28918 0.20928 0.0
C281 C 0.16104 0.28519 0.19876 0.0
C282 C 0.16188 0.28539 0.17656 0.0
C283 C 0.17554 0.28167 0.16543 0.0
C284 C 0.17633 0.28204 0.14361 0.0
C285 C 0.16322 0.28572 0.13205 0.0
C286 C 0.14931 0.28948 0.14292 0.0
C287 C 0.14869 0.28936 0.16519 0.0
C288 C 0.04599 0.2914 0.22836 0.0
C289 C 0.06082 0.29804 0.24729 0.0
O290 O 0.20965 0.26924 0.05244 0.0
O291 O 0.21097 0.26498 0.24306 0.0
O292 O 0.08062 0.31134 0.2406 0.0
O293 O 0.0907 0.31157 0.05573 0.0
H294 H 0.20882 0.28774 0.03035 0.0
H295 H 0.19652 0.25268 0.0141 0.0
H296 H 0.221 0.25577 0.01896 0.0
H297 H 0.21885 0.27249 0.00111 0.0
H298 H 0.21875 0.30738 0.06565 0.0
H299 H 0.17984 0.2414 0.07379 0.0
H300 H 0.19043 0.32434 0.08535 0.0
H301 H 0.2169 0.33244 0.08774 0.0
H302 H 0.20067 0.32386 0.11036 0.0
H303 H 0.1508 0.22723 0.09497 0.0
H304 H 0.13983 0.24312 0.09839 0.0
H305 H 0.15567 0.24316 0.11881 0.0
H306 H 0.07862 0.28896 0.03078 0.0
H307 H 0.06646 0.3072 0.01581 0.0
H308 H 0.07412 0.32469 0.03584 0.0
H309 H 0.0344 0.29003 0.04582 0.0
H310 H 0.08193 0.27289 0.06358 0.0
H311 H 0.12253 0.33895 0.07753 0.0
H312 H 0.11065 0.25553 0.08149 0.0
H313 H 0.08412 0.24758 0.08135 0.0
H314 H 0.09887 0.25592 0.10569 0.0
H315 H 0.15189 0.3526 0.09931 0.0
H316 H 0.16224 0.33612 0.10044 0.0
H317 H 0.14698 0.33663 0.12144 0.0
H318 H 0.05927 0.28388 0.25386 0.0
H319 H 0.07188 0.27246 0.22865 0.0
H320 H 0.11758 0.33837 0.23119 0.0
H321 H 0.09397 0.25651 0.1915 0.0
H322 H 0.07769 0.24714 0.21398 0.0
H323 H 0.10399 0.25432 0.21583 0.0
H324 H 0.15069 0.35176 0.21815 0.0
H325 H 0.14979 0.3373 0.19435 0.0
H326 H 0.15962 0.33398 0.21821 0.0
H327 H 0.23645 0.2825 0.22528 0.0
H328 H 0.2517 0.2618 0.23295 0.0
H329 H 0.22648 0.24605 0.22106 0.0
H330 H 0.22999 0.24489 0.24877 0.0
H331 H 0.17271 0.23946 0.23387 0.0
H332 H 0.22259 0.30337 0.23165 0.0
H333 H 0.14115 0.24125 0.19554 0.0
H334 H 0.13356 0.24635 0.22059 0.0
H335 H 0.14056 0.22707 0.21787 0.0
H336 H 0.21882 0.32954 0.21785 0.0
H337 H 0.19308 0.32411 0.21594 0.0
H338 H 0.20434 0.31934 0.19345 0.0
H339 H 0.15102 0.28986 0.08189 0.0
H340 H 0.11176 0.29972 0.13451 0.0
H341 H 0.1108 0.2997 0.1721 0.0
H342 H 0.14693 0.28911 0.22631 0.0
H343 H 0.18585 0.27854 0.17347 0.0
H344 H 0.18727 0.27929 0.13589 0.0
H345 H 0.03063 0.27787 0.23198 0.0
H346 H 0.05149 0.28632 0.21461 0.0
H347 H 0.04471 0.3047 0.22379 0.0
C348 C 0.72718 0.94351 0.02688 0.0
C349 C 0.71372 0.93749 0.0462 0.0
C350 C 0.72358 0.93091 0.07978 0.0
C351 C 0.70411 0.91611 0.08691 0.0
C352 C 0.70171 0.90197 0.10188 0.0
C353 C 0.71914 0.90251 0.10962 0.0
C354 C 0.73888 0.91819 0.10327 0.0
C355 C 0.74084 0.93247 0.08866 0.0
C356 C 0.68047 0.88584 0.10873 0.0
C357 C 0.75778 0.91915 0.11102 0.0
C358 C 0.69516 0.74909 0.05644 0.0
C359 C 0.7057 0.77024 0.06736 0.0
C360 C 0.69802 0.79614 0.08063 0.0
C361 C 0.7172 0.80975 0.09052 0.0
C362 C 0.7208 0.82714 0.10322 0.0
C363 C 0.70472 0.83065 0.10661 0.0
C364 C 0.68537 0.81695 0.09671 0.0
C365 C 0.68238 0.8 0.08363 0.0
C366 C 0.74187 0.84181 0.1129 0.0
C367 C 0.66786 0.82018 0.09993 0.0
C368 C 0.70446 0.79695 0.23842 0.0
C369 C 0.72421 0.8119 0.23184 0.0
C370 C 0.72809 0.83018 0.22264 0.0
C371 C 0.71195 0.83363 0.22006 0.0
C372 C 0.69223 0.81894 0.22724 0.0
C373 C 0.68877 0.80078 0.23634 0.0
C374 C 0.74932 0.84561 0.21519 0.0
C375 C 0.67471 0.82217 0.22478 0.0
C376 C 0.77052 0.00027 0.26329 0.0
C377 C 0.75165 0.97802 0.2608 0.0
C378 C 0.74949 0.94565 0.2489 0.0
C379 C 0.76211 0.93835 0.24292 0.0
C380 C 0.75462 0.92002 0.23003 0.0
C381 C 0.73374 0.90831 0.22358 0.0
C382 C 0.72068 0.91522 0.23023 0.0
C383 C 0.72875 0.93398 0.24262 0.0
C384 C 0.76906 0.91319 0.22339 0.0
C385 C 0.69818 0.90271 0.22437 0.0
C386 C 0.7164 0.8849 0.12173 0.0
C387 C 0.71169 0.8666 0.11018 0.0
C388 C 0.70836 0.84898 0.12009 0.0
C389 C 0.7094 0.84938 0.14225 0.0
C390 C 0.70525 0.83161 0.15276 0.0
C391 C 0.707 0.83235 0.17451 0.0
C392 C 0.713 0.8509 0.18661 0.0
C393 C 0.7154 0.85193 0.20869 0.0
C394 C 0.72163 0.87065 0.22026 0.0
C395 C 0.72563 0.88859 0.21036 0.0
C396 C 0.72301 0.88779 0.18827 0.0
C397 C 0.72662 0.9054 0.17773 0.0
C398 C 0.72403 0.9044 0.15598 0.0
C399 C 0.71841 0.88597 0.14388 0.0
C400 C 0.71481 0.86807 0.15416 0.0
C401 C 0.71683 0.86889 0.17638 0.0
C402 C 0.71474 0.76218 0.22723 0.0
C403 C 0.71208 0.77057 0.24862 0.0
O404 O 0.72616 0.94356 0.06407 0.0
O405 O 0.75783 0.96384 0.26086 0.0
O406 O 0.69967 0.77855 0.24655 0.0
O407 O 0.694 0.77919 0.06817 0.0
H408 H 0.70308 0.92011 0.04492 0.0
H409 H 0.73589 0.93563 0.02666 0.0
H410 H 0.73823 0.96075 0.02715 0.0
H411 H 0.71761 0.93847 0.01225 0.0
H412 H 0.69078 0.91542 0.08053 0.0
H413 H 0.75583 0.94421 0.08323 0.0
H414 H 0.6758 0.87029 0.10124 0.0
H415 H 0.66905 0.88972 0.1042 0.0
H416 H 0.68027 0.88453 0.12602 0.0
H417 H 0.77201 0.9323 0.10453 0.0
H418 H 0.75674 0.9042 0.10652 0.0
H419 H 0.75887 0.92106 0.12843 0.0
H420 H 0.7217 0.7812 0.06238 0.0
H421 H 0.70463 0.75093 0.04224 0.0
H422 H 0.68198 0.74742 0.04711 0.0
H423 H 0.69112 0.7291 0.08037 0.0
H424 H 0.72952 0.80705 0.08821 0.0
H425 H 0.66766 0.78945 0.0759 0.0
H426 H 0.74703 0.85837 0.11037 0.0
H427 H 0.75336 0.83865 0.1063 0.0
H428 H 0.74134 0.83996 0.1301 0.0
H429 H 0.65311 0.80655 0.09363 0.0
H430 H 0.67109 0.83428 0.09178 0.0
H431 H 0.66626 0.82295 0.1169 0.0
H432 H 0.72732 0.7831 0.25521 0.0
H433 H 0.73662 0.80935 0.23355 0.0
H434 H 0.67363 0.78924 0.24156 0.0
H435 H 0.74886 0.84677 0.19792 0.0
H436 H 0.76039 0.84102 0.21893 0.0
H437 H 0.75492 0.86141 0.2226 0.0
H438 H 0.66048 0.80969 0.23194 0.0
H439 H 0.6716 0.82234 0.20783 0.0
H440 H 0.67891 0.83761 0.23221 0.0
H441 H 0.74444 0.97681 0.24526 0.0
H442 H 0.76598 0.01198 0.26304 0.0
H443 H 0.78102 0.0031 0.2501 0.0
H444 H 0.77888 0.00257 0.2783 0.0
H445 H 0.77803 0.94737 0.24804 0.0
H446 H 0.71878 0.9393 0.24764 0.0
H447 H 0.76739 0.90908 0.20624 0.0
H448 H 0.76521 0.89897 0.23168 0.0
H449 H 0.7853 0.92553 0.22713 0.0
H450 H 0.6897 0.90901 0.23259 0.0
H451 H 0.69127 0.88608 0.22823 0.0
H452 H 0.69621 0.90297 0.20718 0.0
H453 H 0.71075 0.86611 0.09315 0.0
H454 H 0.70067 0.81694 0.14426 0.0
H455 H 0.70374 0.81819 0.1817 0.0
H456 H 0.72372 0.87137 0.23717 0.0
H457 H 0.73139 0.92014 0.1862 0.0
H458 H 0.72682 0.91835 0.14871 0.0
H459 H 0.69964 0.74992 0.22018 0.0
H460 H 0.72428 0.75536 0.22906 0.0
H461 H 0.72249 0.77499 0.21618 0.0
C462 C 0.20594 0.91917 0.02668 0.0
C463 C 0.21991 0.92776 0.04635 0.0
C464 C 0.20074 0.90171 0.07277 0.0
C465 C 0.18646 0.90751 0.07706 0.0
C466 C 0.17068 0.89657 0.09123 0.0
C467 C 0.16886 0.87924 0.10101 0.0
C468 C 0.18325 0.87345 0.09688 0.0
C469 C 0.19913 0.88493 0.08295 0.0
C470 C 0.15563 0.90322 0.09537 0.0
C471 C 0.18152 0.85477 0.10671 0.0
C472 C 0.04408 0.78832 0.01814 0.0
C473 C 0.05574 0.78419 0.03449 0.0
C474 C 0.0655 0.79912 0.07022 0.0
C475 C 0.08011 0.79409 0.0745 0.0
C476 C 0.09541 0.80568 0.08998 0.0
C477 C 0.09642 0.823 0.10095 0.0
C478 C 0.0812 0.82759 0.09714 0.0
C479 C 0.0656 0.81519 0.08213 0.0
C480 C 0.11099 0.79991 0.09397 0.0
C481 C 0.082 0.84623 0.10803 0.0
C482 C 0.06181 0.80317 0.23622 0.0
C483 C 0.07454 0.79604 0.22962 0.0
C484 C 0.09287 0.80929 0.2194 0.0
C485 C 0.09843 0.82999 0.21554 0.0
C486 C 0.08605 0.83746 0.22299 0.0
C487 C 0.06799 0.82398 0.23349 0.0
C488 C 0.10612 0.80107 0.21238 0.0
C489 C 0.09166 0.85952 0.21941 0.0
C490 C 0.24462 0.96272 0.2355 0.0
C491 C 0.23622 0.94802 0.25376 0.0
C492 C 0.20914 0.91434 0.23668 0.0
C493 C 0.20427 0.89424 0.23009 0.0
C494 C 0.18576 0.88 0.21945 0.0
C495 C 0.17178 0.88611 0.21521 0.0
C496 C 0.17639 0.9063 0.22213 0.0
C497 C 0.19502 0.92023 0.23285 0.0
C498 C 0.18128 0.85854 0.21244 0.0
C499 C 0.16175 0.91323 0.21785 0.0
C500 C 0.15079 0.86599 0.1139 0.0
C501 C 0.13264 0.8513 0.1032 0.0
C502 C 0.11489 0.83792 0.11395 0.0
C503 C 0.11516 0.83912 0.13617 0.0
C504 C 0.09769 0.8257 0.14756 0.0
C505 C 0.09808 0.82727 0.16943 0.0
C506 C 0.11609 0.84203 0.18077 0.0
C507 C 0.11674 0.84356 0.20302 0.0
C508 C 0.13498 0.8582 0.21376 0.0
C509 C 0.1527 0.87157 0.20287 0.0
C510 C 0.15228 0.87051 0.18064 0.0
C511 C 0.16976 0.88397 0.16921 0.0
C512 C 0.16929 0.88262 0.14735 0.0
C513 C 0.15136 0.8677 0.13609 0.0
C514 C 0.13348 0.85415 0.14727 0.0
C515 C 0.13394 0.85558 0.16958 0.0
C516 C 0.00887 0.76449 0.23613 0.0
C517 C 0.03043 0.76914 0.24022 0.0
O518 O 0.21604 0.91152 0.05881 0.0
O519 O 0.22765 0.92736 0.24637 0.0
O520 O 0.04348 0.79041 0.24514 0.0
O521 O 0.0515 0.78911 0.05433 0.0
H522 H 0.21703 0.93893 0.05527 0.0
H523 H 0.20793 0.90744 0.01764 0.0
H524 H 0.18968 0.91145 0.03117 0.0
H525 H 0.20946 0.93215 0.01643 0.0
H526 H 0.18722 0.92032 0.0693 0.0
H527 H 0.21016 0.88054 0.07957 0.0
H528 H 0.14056 0.89127 0.08806 0.0
H529 H 0.16069 0.91861 0.08885 0.0
H530 H 0.15344 0.90423 0.11253 0.0
H531 H 0.19358 0.85192 0.10134 0.0
H532 H 0.1663 0.8405 0.10277 0.0
H533 H 0.18276 0.85731 0.12408 0.0
H534 H 0.07237 0.79472 0.03137 0.0
H535 H 0.0476 0.78507 0.002 0.0
H536 H 0.04869 0.80502 0.01967 0.0
H537 H 0.02731 0.77827 0.02044 0.0
H538 H 0.07968 0.78127 0.06559 0.0
H539 H 0.05408 0.81874 0.07876 0.0
H540 H 0.11443 0.80112 0.11106 0.0
H541 H 0.12543 0.811 0.08613 0.0
H542 H 0.10567 0.78376 0.08772 0.0
H543 H 0.07008 0.84872 0.10186 0.0
H544 H 0.09725 0.86068 0.10607 0.0
H545 H 0.07972 0.84387 0.12511 0.0
H546 H 0.03497 0.76456 0.22528 0.0
H547 H 0.07018 0.78014 0.23244 0.0
H548 H 0.05821 0.82941 0.23897 0.0
H549 H 0.10585 0.79958 0.19495 0.0
H550 H 0.10086 0.7855 0.21857 0.0
H551 H 0.12223 0.81229 0.21764 0.0
H552 H 0.08001 0.86269 0.22552 0.0
H553 H 0.0934 0.86227 0.20235 0.0
H554 H 0.1066 0.87091 0.22731 0.0
H555 H 0.22448 0.94982 0.26203 0.0
H556 H 0.25176 0.97929 0.24151 0.0
H557 H 0.23213 0.95912 0.22424 0.0
H558 H 0.25625 0.96099 0.22693 0.0
H559 H 0.21521 0.88981 0.23318 0.0
H560 H 0.19845 0.93567 0.23796 0.0
H561 H 0.18032 0.8568 0.19501 0.0
H562 H 0.16624 0.84625 0.21841 0.0
H563 H 0.19321 0.85578 0.218 0.0
H564 H 0.16758 0.92948 0.22418 0.0
H565 H 0.1468 0.90243 0.22503 0.0
H566 H 0.15901 0.91243 0.20065 0.0
H567 H 0.13234 0.85025 0.08613 0.0
H568 H 0.0835 0.8139 0.13966 0.0
H569 H 0.0841 0.81665 0.17734 0.0
H570 H 0.13543 0.85911 0.23081 0.0
H571 H 0.18402 0.89571 0.17704 0.0
H572 H 0.18318 0.89337 0.13937 0.0
H573 H 0.0033 0.76927 0.25008 0.0
H574 H 0.99808 0.74747 0.23227 0.0
H575 H 0.00898 0.77332 0.22261 0.0
C576 C 0.29046 0.09095 0.99127 0.0
C577 C 0.29607 0.08334 0.97113 0.0
C578 C 0.30534 0.11086 0.94619 0.0
C579 C 0.28526 0.10571 0.94193 0.0
C580 C 0.28153 0.1173 0.92813 0.0
C581 C 0.29817 0.13465 0.91869 0.0
C582 C 0.31837 0.13989 0.9229 0.0
C583 C 0.32164 0.12778 0.93646 0.0
C584 C 0.25977 0.11122 0.92394 0.0
C585 C 0.33651 0.15856 0.91343 0.0
C586 C 0.25897 0.22509 0.99615 0.0
C587 C 0.27618 0.22917 0.98126 0.0
C588 C 0.27351 0.21338 0.94643 0.0
C589 C 0.29385 0.21896 0.94416 0.0
C590 C 0.29877 0.20764 0.92992 0.0
C591 C 0.28293 0.19004 0.91818 0.0
C592 C 0.26242 0.18468 0.92016 0.0
C593 C 0.25809 0.19684 0.93391 0.0
C594 C 0.32085 0.21417 0.92787 0.0
C595 C 0.24495 0.16566 0.90848 0.0
C596 C 0.27171 0.21072 0.78401 0.0
C597 C 0.29195 0.21776 0.78991 0.0
C598 C 0.29658 0.20449 0.79978 0.0
C599 C 0.2806 0.18387 0.80397 0.0
C600 C 0.26035 0.17647 0.79716 0.0
C601 C 0.25623 0.18996 0.78699 0.0
C602 C 0.31845 0.21263 0.80615 0.0
C603 C 0.24297 0.15448 0.80108 0.0
C604 C 0.27358 0.0438 0.77646 0.0
C605 C 0.28313 0.06133 0.76088 0.0
C606 C 0.29556 0.09448 0.78166 0.0
C607 C 0.3131 0.11363 0.78801 0.0
C608 C 0.31174 0.1293 0.79921 0.0
C609 C 0.29228 0.12552 0.80445 0.0
C610 C 0.27443 0.10613 0.79821 0.0
C611 C 0.27622 0.09084 0.78679 0.0
C612 C 0.33108 0.14983 0.80557 0.0
C613 C 0.25344 0.10151 0.80375 0.0
C614 C 0.2945 0.14822 0.90575 0.0
C615 C 0.29132 0.16282 0.91637 0.0
C616 C 0.28752 0.17607 0.9055 0.0
C617 C 0.28732 0.17514 0.88328 0.0
C618 C 0.28423 0.18872 0.87183 0.0
C619 C 0.28338 0.1872 0.84997 0.0
C620 C 0.28587 0.17222 0.83871 0.0
C621 C 0.28484 0.17042 0.81648 0.0
C622 C 0.28725 0.15528 0.80581 0.0
C623 C 0.29056 0.14169 0.81676 0.0
C624 C 0.29167 0.14325 0.83898 0.0
C625 C 0.29487 0.12974 0.85049 0.0
C626 C 0.29588 0.13136 0.87235 0.0
C627 C 0.29363 0.14649 0.88355 0.0
C628 C 0.29017 0.16013 0.87228 0.0
C629 C 0.28933 0.15859 0.84997 0.0
C630 C 0.25937 0.24971 0.78523 0.0
C631 C 0.27588 0.24483 0.78044 0.0
O632 O 0.30976 0.10024 0.95966 0.0
O633 O 0.2981 0.08005 0.77088 0.0
O634 O 0.26656 0.22352 0.77557 0.0
O635 O 0.26826 0.22334 0.96091 0.0
H636 H 0.28179 0.07289 0.9617 0.0
H637 H 0.28237 0.09891 0.98731 0.0
H638 H 0.30437 0.10227 0.0008 0.0
H639 H 0.28014 0.07744 0.00086 0.0
H640 H 0.27236 0.09287 0.94939 0.0
H641 H 0.33706 0.13171 0.93984 0.0
H642 H 0.25736 0.12329 0.93149 0.0
H643 H 0.24841 0.09578 0.93018 0.0
H644 H 0.25686 0.11059 0.9068 0.0
H645 H 0.35129 0.16109 0.91901 0.0
H646 H 0.33631 0.17293 0.91744 0.0
H647 H 0.33553 0.15623 0.89605 0.0
H648 H 0.28195 0.21917 0.98606 0.0
H649 H 0.26483 0.22927 0.01267 0.0
H650 H 0.24667 0.20819 0.99492 0.0
H651 H 0.25231 0.23443 0.99208 0.0
H652 H 0.30586 0.23211 0.95356 0.0
H653 H 0.24246 0.19281 0.93574 0.0
H654 H 0.32458 0.21356 0.9111 0.0
H655 H 0.32342 0.20312 0.93615 0.0
H656 H 0.33151 0.23026 0.93481 0.0
H657 H 0.2298 0.16197 0.91414 0.0
H658 H 0.24609 0.15174 0.91021 0.0
H659 H 0.2457 0.16853 0.89149 0.0
H660 H 0.28546 0.24943 0.79508 0.0
H661 H 0.30413 0.23362 0.78688 0.0
H662 H 0.24073 0.18459 0.78202 0.0
H663 H 0.32004 0.21442 0.82355 0.0
H664 H 0.32936 0.22806 0.79961 0.0
H665 H 0.32268 0.20124 0.80079 0.0
H666 H 0.22792 0.15153 0.79587 0.0
H667 H 0.24237 0.15163 0.81809 0.0
H668 H 0.24563 0.14303 0.79251 0.0
H669 H 0.27087 0.0631 0.75426 0.0
H670 H 0.26196 0.02871 0.76827 0.0
H671 H 0.26589 0.04745 0.78915 0.0
H672 H 0.28546 0.04192 0.78383 0.0
H673 H 0.32795 0.11631 0.78405 0.0
H674 H 0.26245 0.07608 0.78218 0.0
H675 H 0.33254 0.15176 0.82297 0.0
H676 H 0.33032 0.16308 0.79987 0.0
H677 H 0.34497 0.15077 0.79928 0.0
H678 H 0.24111 0.08526 0.79876 0.0
H679 H 0.2506 0.11263 0.79604 0.0
H680 H 0.25263 0.10384 0.82099 0.0
H681 H 0.29151 0.16366 0.93343 0.0
H682 H 0.28232 0.2006 0.87965 0.0
H683 H 0.28071 0.19791 0.84202 0.0
H684 H 0.28631 0.1539 0.78877 0.0
H685 H 0.29663 0.11773 0.84272 0.0
H686 H 0.29835 0.12055 0.88039 0.0
H687 H 0.2486 0.24493 0.77163 0.0
H688 H 0.26648 0.26676 0.78907 0.0
H689 H 0.25052 0.24101 0.79898 0.0
C690 C 0.7869 0.06507 0.99791 0.0
C691 C 0.77768 0.07214 0.98161 0.0
C692 C 0.79162 0.07795 0.94666 0.0
C693 C 0.78999 0.09466 0.94086 0.0
C694 C 0.80348 0.10883 0.92645 0.0
C695 C 0.81914 0.10639 0.91801 0.0
C696 C 0.82016 0.08891 0.92313 0.0
C697 C 0.80607 0.07464 0.93716 0.0
C698 C 0.80154 0.12695 0.92102 0.0
C699 C 0.83675 0.08589 0.91465 0.0
C700 C 0.93669 0.26385 0.97861 0.0
C701 C 0.91984 0.24775 0.96454 0.0
C702 C 0.90711 0.2129 0.94822 0.0
C703 C 0.91116 0.19709 0.94435 0.0
C704 C 0.89815 0.17932 0.93127 0.0
C705 C 0.88065 0.17739 0.92191 0.0
C706 C 0.87631 0.19322 0.92592 0.0
C707 C 0.88956 0.2108 0.93905 0.0
C708 C 0.90311 0.16264 0.92738 0.0
C709 C 0.85763 0.19154 0.91635 0.0
C710 C 0.91202 0.2137 0.78746 0.0
C711 C 0.91622 0.198 0.79052 0.0
C712 C 0.90227 0.17984 0.80088 0.0
C713 C 0.88386 0.1774 0.80831 0.0
C714 C 0.87967 0.19322 0.80528 0.0
C715 C 0.89386 0.21118 0.79493 0.0
C716 C 0.90721 0.16331 0.804 0.0
C717 C 0.8602 0.19116 0.81301 0.0
C718 C 0.74831 0.01863 0.77692 0.0
C719 C 0.7566 0.0417 0.77325 0.0
C720 C 0.7922 0.06977 0.78009 0.0
C721 C 0.81125 0.07235 0.78361 0.0
C722 C 0.82666 0.08982 0.79548 0.0
C723 C 0.82297 0.10524 0.80363 0.0
C724 C 0.80409 0.10329 0.79915 0.0
C725 C 0.78887 0.08554 0.78743 0.0
C726 C 0.84673 0.09158 0.7997 0.0
C727 C 0.79993 0.11984 0.80697 0.0
C728 C 0.83586 0.12352 0.90621 0.0
C729 C 0.85084 0.14118 0.918 0.0
C730 C 0.86651 0.1586 0.90831 0.0
C731 C 0.86765 0.15841 0.88618 0.0
C732 C 0.8833 0.17569 0.87596 0.0
C733 C 0.8839 0.17567 0.85415 0.0
C734 C 0.8689 0.15834 0.84171 0.0
C735 C 0.86901 0.15848 0.81953 0.0
C736 C 0.85404 0.14089 0.80761 0.0
C737 C 0.83865 0.12316 0.81726 0.0
C738 C 0.83804 0.12288 0.83946 0.0
C739 C 0.8225 0.10549 0.84973 0.0
C740 C 0.8217 0.10565 0.87159 0.0
C741 C 0.8366 0.12303 0.884 0.0
C742 C 0.85259 0.14059 0.87398 0.0
C743 C 0.85325 0.14055 0.8517 0.0
C744 C 0.94972 0.25339 0.75263 0.0
C745 C 0.94276 0.23618 0.76733 0.0
O746 O 0.77974 0.06514 0.96177 0.0
O747 O 0.77741 0.05191 0.76968 0.0
O748 O 0.92488 0.23139 0.77732 0.0
O749 O 0.92046 0.22986 0.96077 0.0
H750 H 0.78636 0.08962 0.98299 0.0
H751 H 0.8033 0.07158 0.9946 0.0
H752 H 0.77877 0.04767 0.99738 0.0
H753 H 0.78585 0.07081 0.01396 0.0
H754 H 0.77836 0.09677 0.94789 0.0
H755 H 0.80697 0.06147 0.94162 0.0
H756 H 0.81341 0.14135 0.92996 0.0
H757 H 0.78631 0.12417 0.92509 0.0
H758 H 0.80401 0.1298 0.90401 0.0
H759 H 0.83558 0.07162 0.92038 0.0
H760 H 0.852 0.09976 0.91937 0.0
H761 H 0.83585 0.08461 0.89722 0.0
H762 H 0.91749 0.25389 0.94993 0.0
H763 H 0.94853 0.25949 0.97929 0.0
H764 H 0.92155 0.26566 0.00529 0.0
H765 H 0.9461 0.27759 0.96854 0.0
H766 H 0.92467 0.19878 0.95157 0.0
H767 H 0.88604 0.22275 0.94213 0.0
H768 H 0.89059 0.14758 0.93329 0.0
H769 H 0.91772 0.16685 0.93519 0.0
H770 H 0.90414 0.16009 0.91022 0.0
H771 H 0.85608 0.20488 0.92153 0.0
H772 H 0.84366 0.17671 0.92069 0.0
H773 H 0.8585 0.19106 0.89895 0.0
H774 H 0.95475 0.23774 0.7783 0.0
H775 H 0.93032 0.19985 0.78493 0.0
H776 H 0.8908 0.22339 0.79251 0.0
H777 H 0.90714 0.1607 0.82102 0.0
H778 H 0.92234 0.16769 0.79766 0.0
H779 H 0.89524 0.14822 0.7961 0.0
H780 H 0.85883 0.20443 0.80859 0.0
H781 H 0.85977 0.19055 0.83039 0.0
H782 H 0.84674 0.17628 0.80645 0.0
H783 H 0.75368 0.04815 0.788 0.0
H784 H 0.73156 0.01004 0.77949 0.0
H785 H 0.75587 0.01751 0.79112 0.0
H786 H 0.75135 0.01097 0.76333 0.0
H787 H 0.81377 0.06025 0.77756 0.0
H788 H 0.77442 0.08403 0.784 0.0
H789 H 0.84949 0.09252 0.81691 0.0
H790 H 0.85944 0.10625 0.79333 0.0
H791 H 0.84709 0.07807 0.79253 0.0
H792 H 0.78511 0.1168 0.80083 0.0
H793 H 0.8124 0.13552 0.80224 0.0
H794 H 0.79966 0.12035 0.8244 0.0
H795 H 0.85 0.14159 0.93502 0.0
H796 H 0.89521 0.18949 0.88473 0.0
H797 H 0.89625 0.18946 0.84715 0.0
H798 H 0.85414 0.14116 0.79059 0.0
H799 H 0.81065 0.09164 0.84099 0.0
H800 H 0.80925 0.09198 0.87865 0.0
H801 H 0.96482 0.26657 0.75949 0.0
H802 H 0.94131 0.26149 0.75674 0.0
H803 H 0.94703 0.23871 0.72297 0.0
C804 C 0.75389 0.70683 0.96591 0.0
C805 C 0.77285 0.7161 0.95346 0.0
C806 C 0.80041 0.71045 0.94485 0.0
C807 C 0.81328 0.72949 0.9353 0.0
C808 C 0.83029 0.73274 0.92396 0.0
C809 C 0.83403 0.71633 0.92144 0.0
C810 C 0.82098 0.69709 0.93094 0.0
C811 C 0.80456 0.69459 0.94286 0.0
C812 C 0.84434 0.75383 0.91489 0.0
C813 C 0.8244 0.67919 0.9287 0.0
C814 C 0.95399 0.74365 0.00692 0.0
C815 C 0.94257 0.7287 0.98792 0.0
C816 C 0.93316 0.7365 0.95474 0.0
C817 C 0.91738 0.71605 0.9485 0.0
C818 C 0.90277 0.71256 0.9332 0.0
C819 C 0.90375 0.72991 0.92431 0.0
C820 C 0.9201 0.75052 0.93004 0.0
C821 C 0.93485 0.75349 0.94492 0.0
C822 C 0.88593 0.69034 0.92703 0.0
C823 C 0.92155 0.76942 0.92107 0.0
C824 C 0.94384 0.74121 0.78963 0.0
C825 C 0.92949 0.72069 0.7953 0.0
C826 C 0.91144 0.71604 0.8054 0.0
C827 C 0.9078 0.73228 0.81013 0.0
C828 C 0.92195 0.75283 0.80387 0.0
C829 C 0.93969 0.75694 0.79346 0.0
C830 C 0.89633 0.69381 0.81118 0.0
C831 C 0.9185 0.7705 0.80848 0.0
C832 C 0.77184 0.72667 0.79403 0.0
C833 C 0.77905 0.72168 0.77336 0.0
C834 C 0.8028 0.71188 0.78615 0.0
C835 C 0.8048 0.69487 0.78937 0.0
C836 C 0.82191 0.69755 0.80008 0.0
C837 C 0.83743 0.71784 0.80773 0.0
C838 C 0.83585 0.73527 0.804 0.0
C839 C 0.81857 0.73214 0.7932 0.0
C840 C 0.82318 0.67866 0.8037 0.0
C841 C 0.85224 0.75714 0.81184 0.0
C842 C 0.85196 0.71951 0.90946 0.0
C843 C 0.86902 0.72316 0.92087 0.0
C844 C 0.88657 0.72654 0.91079 0.0
C845 C 0.88737 0.72664 0.88861 0.0
C846 C 0.90484 0.7302 0.87794 0.0
C847 C 0.90561 0.73074 0.85612 0.0
C848 C 0.88878 0.72735 0.84411 0.0
C849 C 0.88939 0.7279 0.82192 0.0
C850 C 0.87242 0.72461 0.81052 0.0
C851 C 0.85472 0.7207 0.82067 0.0
C852 C 0.85374 0.71989 0.8428 0.0
C853 C 0.83603 0.71566 0.85345 0.0
C854 C 0.83529 0.7152 0.87523 0.0
C855 C 0.85233 0.71925 0.88726 0.0
C856 C 0.8702 0.72309 0.87682 0.0
C857 C 0.87089 0.72339 0.85456 0.0
C858 C 0.99524 0.75292 0.78493 0.0
C859 C 0.97231 0.73643 0.78293 0.0
O860 O 0.78407 0.7069 0.95631 0.0
O861 O 0.78534 0.70786 0.77646 0.0
O862 O 0.96179 0.74642 0.78051 0.0
O863 O 0.94679 0.7404 0.97034 0.0
H864 H 0.78224 0.73358 0.95446 0.0
H865 H 0.7556 0.69781 0.97848 0.0
H866 H 0.73034 0.69259 0.94298 0.0
H867 H 0.75618 0.71996 0.97711 0.0
H868 H 0.81048 0.74206 0.93702 0.0
H869 H 0.79461 0.68001 0.9504 0.0
H870 H 0.8606 0.75935 0.91825 0.0
H871 H 0.84138 0.76591 0.92127 0.0
H872 H 0.84207 0.75238 0.89758 0.0
H873 H 0.81084 0.66419 0.93345 0.0
H874 H 0.8376 0.68283 0.93889 0.0
H875 H 0.82805 0.67709 0.91223 0.0
H876 H 0.92592 0.72047 0.9913 0.0
H877 H 0.95055 0.73478 0.02139 0.0
H878 H 0.9491 0.75502 0.00921 0.0
H879 H 0.97078 0.75254 0.00452 0.0
H880 H 0.91638 0.7028 0.95565 0.0
H881 H 0.94727 0.7692 0.94969 0.0
H882 H 0.88341 0.68824 0.90972 0.0
H883 H 0.87149 0.68703 0.93431 0.0
H884 H 0.88939 0.67871 0.93233 0.0
H885 H 0.93468 0.78441 0.92793 0.0
H886 H 0.90723 0.76913 0.92404 0.0
H887 H 0.92333 0.76895 0.9038 0.0
H888 H 0.9681 0.72824 0.79796 0.0
H889 H 0.93227 0.70825 0.79178 0.0
H890 H 0.95073 0.77265 0.78876 0.0
H891 H 0.89586 0.69306 0.82855 0.0
H892 H 0.90037 0.68262 0.80456 0.0
H893 H 0.88072 0.68874 0.80546 0.0
H894 H 0.93162 0.78585 0.80382 0.0
H895 H 0.9159 0.77167 0.82551 0.0
H896 H 0.90456 0.76716 0.79983 0.0
H897 H 0.79194 0.73645 0.76724 0.0
H898 H 0.76637 0.73735 0.79136 0.0
H899 H 0.78455 0.73456 0.80585 0.0
H900 H 0.7592 0.71205 0.80059 0.0
H901 H 0.79265 0.67932 0.78375 0.0
H902 H 0.81745 0.74555 0.79062 0.0
H903 H 0.82323 0.67661 0.82084 0.0
H904 H 0.83774 0.68116 0.79749 0.0
H905 H 0.8102 0.66403 0.79609 0.0
H906 H 0.84919 0.76918 0.80693 0.0
H907 H 0.86732 0.76102 0.80582 0.0
H908 H 0.85326 0.75789 0.82926 0.0
H909 H 0.86864 0.72339 0.93791 0.0
H910 H 0.91819 0.73281 0.88637 0.0
H911 H 0.91957 0.73383 0.8488 0.0
H912 H 0.87304 0.7252 0.79353 0.0
H913 H 0.8225 0.71265 0.84507 0.0
H914 H 0.82122 0.71178 0.88255 0.0
H915 H 0.00401 0.74524 0.78675 0.0
H916 H 0.99835 0.76354 0.79901 0.0
H917 H 0.00069 0.76254 0.7709 0.0
C918 C 0.87332 0.60208 0.34631 0.0
C919 C 0.87846 0.61771 0.36498 0.0
C920 C 0.86046 0.6115 0.39799 0.0
C921 C 0.86646 0.6323 0.40336 0.0
C922 C 0.85556 0.63674 0.41813 0.0
C923 C 0.83817 0.62003 0.42746 0.0
C924 C 0.83255 0.59909 0.42262 0.0
C925 C 0.84405 0.59515 0.40818 0.0
C926 C 0.86232 0.65928 0.42334 0.0
C927 C 0.814 0.58086 0.4321 0.0
C928 C 0.70807 0.63647 0.3874 0.0
C929 C 0.71875 0.62827 0.39901 0.0
C930 C 0.75319 0.63636 0.4064 0.0
C931 C 0.74731 0.61853 0.41776 0.0
C932 C 0.76182 0.61682 0.42903 0.0
C933 C 0.78255 0.63362 0.42963 0.0
C934 C 0.78852 0.6516 0.41822 0.0
C935 C 0.77377 0.65255 0.40647 0.0
C936 C 0.75494 0.59693 0.44016 0.0
C937 C 0.81046 0.66981 0.41841 0.0
C938 C 0.76375 0.65128 0.56782 0.0
C939 C 0.75632 0.63047 0.56064 0.0
C940 C 0.76862 0.62551 0.54863 0.0
C941 C 0.78867 0.64166 0.54362 0.0
C942 C 0.79613 0.66259 0.55078 0.0
C943 C 0.78354 0.66711 0.56279 0.0
C944 C 0.76021 0.60302 0.5412 0.0
C945 C 0.81739 0.68019 0.54564 0.0
C946 C 0.89998 0.59235 0.56149 0.0
C947 C 0.89681 0.61065 0.56447 0.0
C948 C 0.86484 0.60959 0.56056 0.0
C949 C 0.84386 0.59524 0.55772 0.0
C950 C 0.83134 0.60089 0.54809 0.0
C951 C 0.84006 0.62163 0.54165 0.0
C952 C 0.8611 0.6366 0.54567 0.0
C953 C 0.87333 0.63039 0.55496 0.0
C954 C 0.80892 0.58458 0.5443 0.0
C955 C 0.87071 0.65903 0.53972 0.0
C956 C 0.8249 0.62441 0.44075 0.0
C957 C 0.81082 0.62742 0.43047 0.0
C958 C 0.798 0.63203 0.4417 0.0
C959 C 0.79936 0.63398 0.4639 0.0
C960 C 0.78728 0.63944 0.4757 0.0
C961 C 0.78816 0.64052 0.49756 0.0
C962 C 0.80116 0.63621 0.50846 0.0
C963 C 0.80175 0.63671 0.53067 0.0
C964 C 0.81477 0.63223 0.54102 0.0
C965 C 0.82736 0.62727 0.52976 0.0
C966 C 0.82716 0.62692 0.50753 0.0
C967 C 0.83978 0.6222 0.49569 0.0
C968 C 0.83939 0.62179 0.47384 0.0
C969 C 0.82595 0.62549 0.46296 0.0
C970 C 0.81311 0.6303 0.47456 0.0
C971 C 0.81388 0.63123 0.49687 0.0
C972 C 0.72736 0.65344 0.60419 0.0
C973 C 0.73311 0.6433 0.58732 0.0
O974 O 0.86994 0.60667 0.38286 0.0
O975 O 0.87639 0.60277 0.56858 0.0
O976 O 0.75248 0.65677 0.57969 0.0
O977 O 0.73952 0.63846 0.39523 0.0
H978 H 0.87142 0.62686 0.36133 0.0
H979 H 0.85645 0.59174 0.34416 0.0
H980 H 0.87963 0.59212 0.34897 0.0
H981 H 0.87972 0.6105 0.33166 0.0
H982 H 0.87957 0.64506 0.39595 0.0
H983 H 0.83973 0.57917 0.40408 0.0
H984 H 0.85109 0.66241 0.4165 0.0
H985 H 0.87764 0.67047 0.41706 0.0
H986 H 0.86277 0.66223 0.44063 0.0
H987 H 0.81122 0.56549 0.42604 0.0
H988 H 0.80022 0.5814 0.42864 0.0
H989 H 0.81603 0.58201 0.44944 0.0
H990 H 0.71079 0.61083 0.39804 0.0
H991 H 0.69679 0.62299 0.37653 0.0
H992 H 0.71849 0.64583 0.37443 0.0
H993 H 0.69892 0.64973 0.41126 0.0
H994 H 0.73148 0.60572 0.41763 0.0
H995 H 0.77818 0.66619 0.39758 0.0
H996 H 0.76563 0.59153 0.43725 0.0
H997 H 0.73928 0.58406 0.43504 0.0
H998 H 0.75487 0.60002 0.45734 0.0
H999 H 0.81199 0.68387 0.41164 0.0
H1000 H 0.81972 0.6652 0.40901 0.0
H1001 H 0.81692 0.67405 0.4347 0.0
H1002 H 0.72132 0.63428 0.57462 0.0
H1003 H 0.74098 0.61807 0.56432 0.0
H1004 H 0.78913 0.6831 0.5684 0.0
H1005 H 0.7599 0.60174 0.52376 0.0
H1006 H 0.74449 0.59218 0.54681 0.0
H1007 H 0.77036 0.59791 0.54685 0.0
H1008 H 0.82086 0.69568 0.55224 0.0
H1009 H 0.81906 0.68088 0.52833 0.0
H1010 H 0.82884 0.67711 0.55197 0.0
H1011 H 0.90099 0.61871 0.54937 0.0
H1012 H 0.91624 0.59824 0.55802 0.0
H1013 H 0.89031 0.58175 0.54808 0.0
H1014 H 0.89568 0.58317 0.57582 0.0
H1015 H 0.83743 0.57932 0.56242 0.0
H1016 H 0.88947 0.64177 0.55781 0.0
H1017 H 0.80495 0.5832 0.52734 0.0
H1018 H 0.79958 0.58952 0.55303 0.0
H1019 H 0.80472 0.5689 0.54939 0.0
H1020 H 0.88657 0.66929 0.54618 0.0
H1021 H 0.86136 0.66536 0.54549 0.0
H1022 H 0.87115 0.65962 0.52234 0.0
H1023 H 0.80971 0.62597 0.41343 0.0
H1024 H 0.77694 0.64284 0.46815 0.0
H1025 H 0.77838 0.64463 0.5058 0.0
H1026 H 0.81498 0.63242 0.55806 0.0
H1027 H 0.85017 0.61883 0.50317 0.0
H1028 H 0.84953 0.61822 0.46555 0.0
H1029 H 0.72517 0.63721 0.63092 0.0
H1030 H 0.71393 0.65343 0.59741 0.0
H1031 H 0.73826 0.67091 0.60336 0.0
C1032 C 0.38905 0.28219 0.35535 0.0
C1033 C 0.37514 0.27386 0.37427 0.0
C1034 C 0.38414 0.26456 0.40674 0.0
C1035 C 0.36444 0.24877 0.41243 0.0
C1036 C 0.3617 0.23371 0.42641 0.0
C1037 C 0.37902 0.23437 0.43465 0.0
C1038 C 0.39892 0.25082 0.42959 0.0
C1039 C 0.40119 0.26595 0.41596 0.0
C1040 C 0.34028 0.21672 0.43188 0.0
C1041 C 0.41774 0.25194 0.43789 0.0
C1042 C 0.35419 0.08051 0.38223 0.0
C1043 C 0.36451 0.10319 0.38864 0.0
C1044 C 0.35607 0.1266 0.4075 0.0
C1045 C 0.37645 0.14275 0.41212 0.0
C1046 C 0.38093 0.16066 0.42449 0.0
C1047 C 0.36474 0.16248 0.43228 0.0
C1048 C 0.34423 0.14639 0.4274 0.0
C1049 C 0.34019 0.12863 0.41507 0.0
C1050 C 0.40297 0.17762 0.42934 0.0
C1051 C 0.32662 0.14794 0.43534 0.0
C1052 C 0.36885 0.13159 0.56416 0.0
C1053 C 0.38841 0.14774 0.55831 0.0
C1054 C 0.39118 0.1656 0.54911 0.0
C1055 C 0.37411 0.16739 0.54574 0.0
C1056 C 0.35454 0.15148 0.55216 0.0
C1057 C 0.35219 0.13379 0.56129 0.0
C1058 C 0.41228 0.18236 0.5425 0.0
C1059 C 0.33603 0.15294 0.54887 0.0
C1060 C 0.41458 0.33161 0.57574 0.0
C1061 C 0.3981 0.30859 0.57852 0.0
C1062 C 0.40102 0.27828 0.57058 0.0
C1063 C 0.41566 0.27335 0.56573 0.0
C1064 C 0.41023 0.25453 0.5546 0.0
C1065 C 0.38951 0.2401 0.54864 0.0
C1066 C 0.37442 0.24449 0.55452 0.0
C1067 C 0.38034 0.26361 0.56535 0.0
C1068 C 0.4267 0.25027 0.54884 0.0
C1069 C 0.35211 0.22913 0.54904 0.0
C1070 C 0.37626 0.21677 0.4468 0.0
C1071 C 0.37196 0.19853 0.4354 0.0
C1072 C 0.36925 0.18124 0.44549 0.0
C1073 C 0.3709 0.18204 0.46763 0.0
C1074 C 0.3683 0.16491 0.47826 0.0
C1075 C 0.37005 0.16586 0.50004 0.0
C1076 C 0.37451 0.18401 0.51205 0.0
C1077 C 0.37649 0.18517 0.5342 0.0
C1078 C 0.38107 0.20347 0.54569 0.0
C1079 C 0.3838 0.22083 0.5356 0.0
C1080 C 0.38175 0.21993 0.51345 0.0
C1081 C 0.38432 0.23706 0.50276 0.0
C1082 C 0.38228 0.23599 0.48097 0.0
C1083 C 0.37797 0.21791 0.46898 0.0
C1084 C 0.37531 0.20046 0.47941 0.0
C1085 C 0.37713 0.20145 0.50166 0.0
C1086 C 0.38349 0.09974 0.55494 0.0
C1087 C 0.379 0.10756 0.57568 0.0
O1088 O 0.3872 0.27844 0.39218 0.0
O1089 O 0.40742 0.2973 0.5802 0.0
O1090 O 0.36518 0.11358 0.57231 0.0
O1091 O 0.35105 0.10877 0.39602 0.0
H1092 H 0.36498 0.25655 0.37125 0.0
H1093 H 0.39808 0.27469 0.35373 0.0
H1094 H 0.39983 0.29946 0.35734 0.0
H1095 H 0.37977 0.27849 0.34068 0.0
H1096 H 0.35122 0.24812 0.40582 0.0
H1097 H 0.41632 0.27841 0.41164 0.0
H1098 H 0.33653 0.20163 0.42393 0.0
H1099 H 0.32871 0.22021 0.42689 0.0
H1100 H 0.33921 0.21466 0.44908 0.0
H1101 H 0.43207 0.26516 0.43163 0.0
H1102 H 0.41692 0.23705 0.43364 0.0
H1103 H 0.41846 0.25389 0.45529 0.0
H1104 H 0.37552 0.11422 0.37718 0.0
H1105 H 0.35663 0.0801 0.36481 0.0
H1106 H 0.33735 0.07427 0.3805 0.0
H1107 H 0.36588 0.06905 0.40377 0.0
H1108 H 0.38892 0.14146 0.40619 0.0
H1109 H 0.32453 0.11613 0.41137 0.0
H1110 H 0.40623 0.19267 0.42338 0.0
H1111 H 0.41384 0.17381 0.42222 0.0
H1112 H 0.4057 0.17997 0.44662 0.0
H1113 H 0.31154 0.13417 0.42999 0.0
H1114 H 0.32801 0.16236 0.4298 0.0
H1115 H 0.32717 0.1492 0.45279 0.0
H1116 H 0.39353 0.12112 0.58256 0.0
H1117 H 0.40155 0.14647 0.56053 0.0
H1118 H 0.33718 0.12134 0.56595 0.0
H1119 H 0.41232 0.18362 0.5252 0.0
H1120 H 0.42414 0.17905 0.54688 0.0
H1121 H 0.41644 0.19779 0.54991 0.0
H1122 H 0.32203 0.13976 0.55567 0.0
H1123 H 0.33325 0.15287 0.53178 0.0
H1124 H 0.33887 0.16797 0.55614 0.0
H1125 H 0.38809 0.30312 0.56413 0.0
H1126 H 0.40749 0.34102 0.57423 0.0
H1127 H 0.42318 0.33299 0.56123 0.0
H1128 H 0.42556 0.33818 0.58932 0.0
H1129 H 0.43152 0.28464 0.57014 0.0
H1130 H 0.36882 0.26702 0.56975 0.0
H1131 H 0.42636 0.24715 0.53158 0.0
H1132 H 0.42376 0.23604 0.55651 0.0
H1133 H 0.44223 0.26357 0.55372 0.0
H1134 H 0.34207 0.23387 0.55657 0.0
H1135 H 0.34739 0.21327 0.55398 0.0
H1136 H 0.34975 0.22801 0.53174 0.0
H1137 H 0.37073 0.19779 0.41838 0.0
H1138 H 0.3649 0.15055 0.46985 0.0
H1139 H 0.3679 0.15217 0.50733 0.0
H1140 H 0.38272 0.20429 0.56266 0.0
H1141 H 0.38788 0.25148 0.51113 0.0
H1142 H 0.38427 0.24958 0.4736 0.0
H1143 H 0.39416 0.09442 0.55781 0.0
H1144 H 0.39076 0.11249 0.54378 0.0
H1145 H 0.36915 0.08649 0.54746 0.0
C1146 C 0.88714 0.24246 0.35639 0.0
C1147 C 0.89536 0.26002 0.37369 0.0
C1148 C 0.87933 0.24033 0.40477 0.0
C1149 C 0.86451 0.24538 0.4087 0.0
C1150 C 0.84743 0.23259 0.42083 0.0
C1151 C 0.8451 0.21436 0.42906 0.0
C1152 C 0.86022 0.20946 0.4254 0.0
C1153 C 0.87734 0.22277 0.41358 0.0
C1154 C 0.83184 0.23852 0.42483 0.0
C1155 C 0.85814 0.19003 0.43371 0.0
C1156 C 0.71438 0.11497 0.34821 0.0
C1157 C 0.7269 0.1116 0.3642 0.0
C1158 C 0.73977 0.12997 0.39824 0.0
C1159 C 0.75539 0.12616 0.40161 0.0
C1160 C 0.77172 0.13919 0.41567 0.0
C1161 C 0.77263 0.15666 0.42618 0.0
C1162 C 0.7567 0.16034 0.42297 0.0
C1163 C 0.7402 0.14659 0.40937 0.0
C1164 C 0.78814 0.13447 0.41903 0.0
C1165 C 0.75736 0.17907 0.43341 0.0
C1166 C 0.7337 0.13011 0.55798 0.0
C1167 C 0.74686 0.12344 0.55165 0.0
C1168 C 0.76585 0.13744 0.54291 0.0
C1169 C 0.77161 0.15841 0.54027 0.0
C1170 C 0.7588 0.16539 0.5476 0.0
C1171 C 0.74007 0.15115 0.5566 0.0
C1172 C 0.7795 0.1297 0.53599 0.0
C1173 C 0.76461 0.18772 0.5453 0.0
C1174 C 0.92106 0.28758 0.56145 0.0
C1175 C 0.91032 0.27559 0.58097 0.0
C1176 C 0.8819 0.24176 0.56577 0.0
C1177 C 0.8757 0.22094 0.5608 0.0
C1178 C 0.8575 0.2073 0.54937 0.0
C1179 C 0.84502 0.21465 0.54299 0.0
C1180 C 0.85087 0.23555 0.54842 0.0
C1181 C 0.86934 0.24898 0.55959 0.0
C1182 C 0.85176 0.18512 0.54378 0.0
C1183 C 0.83771 0.24377 0.54215 0.0
C1184 C 0.82659 0.20014 0.441 0.0
C1185 C 0.80874 0.18581 0.42955 0.0
C1186 C 0.79078 0.17162 0.43961 0.0
C1187 C 0.79051 0.17173 0.46182 0.0
C1188 C 0.77278 0.1576 0.47249 0.0
C1189 C 0.77259 0.15805 0.49434 0.0
C1190 C 0.79028 0.17229 0.50638 0.0
C1191 C 0.79032 0.17265 0.52861 0.0
C1192 C 0.80827 0.18673 0.54008 0.0
C1193 C 0.82629 0.20068 0.52993 0.0
C1194 C 0.82646 0.2008 0.50773 0.0
C1195 C 0.84426 0.21483 0.49704 0.0
C1196 C 0.84428 0.21483 0.47521 0.0
C1197 C 0.82661 0.20056 0.4632 0.0
C1198 C 0.80849 0.18628 0.47364 0.0
C1199 C 0.8084 0.18648 0.49593 0.0
C1200 C 0.68048 0.08975 0.55652 0.0
C1201 C 0.70248 0.09545 0.55995 0.0
O1202 O 0.89582 0.2522 0.3928 0.0
O1203 O 0.90006 0.25415 0.57634 0.0
O1204 O 0.71474 0.11673 0.56532 0.0
O1205 O 0.72433 0.11809 0.38405 0.0
H1206 H 0.88516 0.26622 0.37439 0.0
H1207 H 0.87127 0.2298 0.35989 0.0
H1208 H 0.89684 0.23566 0.35532 0.0
H1209 H 0.88685 0.24857 0.34096 0.0
H1210 H 0.86637 0.25943 0.40267 0.0
H1211 H 0.88901 0.21918 0.41064 0.0
H1212 H 0.81712 0.22663 0.41685 0.0
H1213 H 0.83679 0.25416 0.419 0.0
H1214 H 0.82899 0.23866 0.44192 0.0
H1215 H 0.87032 0.18753 0.42798 0.0
H1216 H 0.843 0.17601 0.42895 0.0
H1217 H 0.85896 0.19139 0.45114 0.0
H1218 H 0.74321 0.12159 0.35962 0.0
H1219 H 0.71629 0.10998 0.33212 0.0
H1220 H 0.71974 0.13188 0.34839 0.0
H1221 H 0.69787 0.10594 0.35203 0.0
H1222 H 0.7548 0.113 0.39327 0.0
H1223 H 0.72796 0.14928 0.40669 0.0
H1224 H 0.79163 0.13537 0.43607 0.0
H1225 H 0.80238 0.14637 0.41143 0.0
H1226 H 0.78365 0.1187 0.41226 0.0
H1227 H 0.74515 0.18112 0.42723 0.0
H1228 H 0.77245 0.1936 0.43106 0.0
H1229 H 0.75538 0.17711 0.45057 0.0
H1230 H 0.70728 0.09171 0.5447 0.0
H1231 H 0.74233 0.10733 0.55343 0.0
H1232 H 0.72993 0.15619 0.56188 0.0
H1233 H 0.78005 0.12914 0.51857 0.0
H1234 H 0.77401 0.11379 0.54139 0.0
H1235 H 0.79536 0.1407 0.54212 0.0
H1236 H 0.75286 0.19062 0.55163 0.0
H1237 H 0.76677 0.19137 0.52845 0.0
H1238 H 0.77939 0.19866 0.55371 0.0
H1239 H 0.8993 0.27993 0.58648 0.0
H1240 H 0.92941 0.30476 0.56519 0.0
H1241 H 0.90969 0.28371 0.54869 0.0
H1242 H 0.93208 0.28338 0.55566 0.0
H1243 H 0.88542 0.21548 0.56567 0.0
H1244 H 0.87379 0.26501 0.56327 0.0
H1245 H 0.84989 0.1821 0.52647 0.0
H1246 H 0.83686 0.17391 0.5508 0.0
H1247 H 0.86341 0.18199 0.54943 0.0
H1248 H 0.84345 0.25979 0.5491 0.0
H1249 H 0.82174 0.23308 0.54716 0.0
H1250 H 0.83736 0.24421 0.52477 0.0
H1251 H 0.80887 0.18561 0.4125 0.0
H1252 H 0.75878 0.14611 0.46407 0.0
H1253 H 0.7584 0.14696 0.50164 0.0
H1254 H 0.80823 0.18678 0.55711 0.0
H1255 H 0.85838 0.22604 0.50543 0.0
H1256 H 0.85837 0.22609 0.46786 0.0
H1257 H 0.67033 0.07278 0.55199 0.0
H1258 H 0.67988 0.09887 0.54368 0.0
H1259 H 0.67467 0.09341 0.57104 0.0
C1260 C 0.04642 0.4791 0.32156 0.0
C1261 C 0.03151 0.46161 0.30584 0.0
C1262 C 0.02873 0.47542 0.27319 0.0
C1263 C 0.00743 0.46515 0.27061 0.0
C1264 C 0.99876 0.47366 0.25849 0.0
C1265 C 0.0117 0.49282 0.24884 0.0
C1266 C 0.0332 0.50277 0.25081 0.0
C1267 C 0.04144 0.49372 0.26274 0.0
C1268 C 0.97578 0.46235 0.25624 0.0
C1269 C 0.04746 0.52324 0.24078 0.0
C1270 C 0.95435 0.55845 0.33899 0.0
C1271 C 0.97046 0.5676 0.32199 0.0
C1272 C 0.96776 0.5529 0.28652 0.0
C1273 C 0.98866 0.56291 0.28223 0.0
C1274 C 0.99556 0.55465 0.26648 0.0
C1275 C 0.98126 0.53576 0.25516 0.0
C1276 C 0.96009 0.52599 0.2591 0.0
C1277 C 0.95361 0.53504 0.27443 0.0
C1278 C 0.01817 0.56581 0.26235 0.0
C1279 C 0.94436 0.50555 0.2478 0.0
C1280 C 0.95378 0.55246 0.12419 0.0
C1281 C 0.97494 0.563 0.1283 0.0
C1282 C 0.98358 0.55252 0.13678 0.0
C1283 C 0.97078 0.53114 0.14134 0.0
C1284 C 0.94959 0.5203 0.13638 0.0
C1285 C 0.94142 0.53109 0.12761 0.0
C1286 C 0.00633 0.56435 0.14121 0.0
C1287 C 0.93551 0.49745 0.14076 0.0
C1288 C 0.01933 0.4242 0.13539 0.0
C1289 C 0.00313 0.42068 0.11917 0.0
C1290 C 0.00385 0.45328 0.11778 0.0
C1291 C 0.01897 0.47464 0.11919 0.0
C1292 C 0.01493 0.48929 0.12839 0.0
C1293 C 0.99518 0.48229 0.13603 0.0
C1294 C 0.9794 0.4609 0.13313 0.0
C1295 C 0.98389 0.4466 0.12392 0.0
C1296 C 0.03198 0.51205 0.13095 0.0
C1297 C 0.95802 0.45303 0.14054 0.0
C1298 C 0.00276 0.50309 0.23776 0.0
C1299 C 0.99672 0.51463 0.24999 0.0
C1300 C 0.98855 0.52513 0.2408 0.0
C1301 C 0.98671 0.52454 0.21868 0.0
C1302 C 0.97932 0.53558 0.20884 0.0
C1303 C 0.97695 0.53432 0.18707 0.0
C1304 C 0.98202 0.52207 0.17429 0.0
C1305 C 0.97934 0.52037 0.15216 0.0
C1306 C 0.98415 0.50769 0.14 0.0
C1307 C 0.99163 0.49664 0.14938 0.0
C1308 C 0.99476 0.49844 0.17142 0.0
C1309 C 0.00247 0.48766 0.18129 0.0
C1310 C 0.00522 0.48925 0.20299 0.0
C1311 C 0.00022 0.50155 0.21568 0.0
C1312 C 0.99232 0.51246 0.2061 0.0
C1313 C 0.9898 0.51109 0.18391 0.0
C1314 C 0.93305 0.58473 0.1278 0.0
C1315 C 0.95135 0.58324 0.12133 0.0
O1316 O 0.03741 0.46798 0.28558 0.0
O1317 O 0.00898 0.43955 0.11046 0.0
O1318 O 0.94475 0.56237 0.11703 0.0
O1319 O 0.96082 0.55982 0.30249 0.0
H1320 H 0.01606 0.45879 0.30896 0.0
H1321 H 0.04607 0.49344 0.31947 0.0
H1322 H 0.0623 0.48297 0.31913 0.0
H1323 H 0.042 0.47427 0.33792 0.0
H1324 H 0.9976 0.45048 0.27801 0.0
H1325 H 0.05787 0.5013 0.2646 0.0
H1326 H 0.97042 0.47171 0.26468 0.0
H1327 H 0.96794 0.44653 0.26271 0.0
H1328 H 0.97122 0.46069 0.23942 0.0
H1329 H 0.06379 0.52942 0.24458 0.0
H1330 H 0.04389 0.53514 0.24615 0.0
H1331 H 0.04518 0.52098 0.22345 0.0
H1332 H 0.98119 0.56228 0.32479 0.0
H1333 H 0.96171 0.56412 0.35485 0.0
H1334 H 0.9462 0.54106 0.3379 0.0
H1335 H 0.94297 0.563 0.33702 0.0
H1336 H 0.99958 0.5771 0.29127 0.0
H1337 H 0.93749 0.5276 0.2778 0.0
H1338 H 0.02087 0.56641 0.24518 0.0
H1339 H 0.02443 0.55701 0.2691 0.0
H1340 H 0.0267 0.58205 0.26953 0.0
H1341 H 0.92893 0.49873 0.25459 0.0
H1342 H 0.94897 0.49394 0.24846 0.0
H1343 H 0.94329 0.5082 0.23101 0.0
H1344 H 0.96216 0.58978 0.13513 0.0
H1345 H 0.98472 0.57937 0.12492 0.0
H1346 H 0.92517 0.52303 0.12404 0.0
H1347 H 0.00925 0.56609 0.15845 0.0
H1348 H 0.01445 0.58022 0.13483 0.0
H1349 H 0.01285 0.55541 0.1343 0.0
H1350 H 0.91924 0.4916 0.13706 0.0
H1351 H 0.93697 0.49502 0.15755 0.0
H1352 H 0.94002 0.48793 0.13118 0.0
H1353 H 0.98845 0.41431 0.12751 0.0
H1354 H 0.01499 0.40915 0.1423 0.0
H1355 H 0.02056 0.43528 0.14828 0.0
H1356 H 0.03454 0.43092 0.12809 0.0
H1357 H 0.03422 0.47967 0.11392 0.0
H1358 H 0.97183 0.43023 0.1217 0.0
H1359 H 0.03608 0.51639 0.14789 0.0
H1360 H 0.0268 0.52217 0.12516 0.0
H1361 H 0.04588 0.51532 0.1224 0.0
H1362 H 0.94717 0.4362 0.13595 0.0
H1363 H 0.95229 0.46236 0.13391 0.0
H1364 H 0.95825 0.45513 0.15792 0.0
H1365 H 0.99824 0.5153 0.26698 0.0
H1366 H 0.97519 0.54525 0.2179 0.0
H1367 H 0.97098 0.54299 0.18041 0.0
H1368 H 0.98173 0.50615 0.12309 0.0
H1369 H 0.0065 0.47784 0.17238 0.0
H1370 H 0.01116 0.48057 0.20971 0.0
H1371 H 0.93795 0.60139 0.13111 0.0
H1372 H 0.9264 0.57612 0.14229 0.0
H1373 H 0.92095 0.57773 0.11525 0.0
C1374 C 0.4423 0.40438 0.31951 0.0
C1375 C 0.42997 0.40886 0.30435 0.0
C1376 C 0.44421 0.41315 0.2698 0.0
C1377 C 0.44492 0.43081 0.26279 0.0
C1378 C 0.46006 0.44401 0.24895 0.0
C1379 C 0.47489 0.43951 0.24227 0.0
C1380 C 0.47367 0.42119 0.24872 0.0
C1381 C 0.45805 0.408 0.2622 0.0
C1382 C 0.46064 0.46318 0.24207 0.0
C1383 C 0.48935 0.41603 0.24211 0.0
C1384 C 0.58547 0.54287 0.33083 0.0
C1385 C 0.58053 0.55107 0.31173 0.0
C1386 C 0.57176 0.53171 0.27767 0.0
C1387 C 0.57383 0.51622 0.2674 0.0
C1388 C 0.55944 0.50227 0.25207 0.0
C1389 C 0.5429 0.50433 0.24658 0.0
C1390 C 0.54151 0.5209 0.25594 0.0
C1391 C 0.55599 0.53447 0.27142 0.0
C1392 C 0.56144 0.48481 0.24239 0.0
C1393 C 0.52438 0.52388 0.25004 0.0
C1394 C 0.57944 0.5377 0.11325 0.0
C1395 C 0.58117 0.52067 0.11788 0.0
C1396 C 0.56516 0.50326 0.12761 0.0
C1397 C 0.54706 0.50281 0.13257 0.0
C1398 C 0.54508 0.51965 0.12735 0.0
C1399 C 0.56133 0.53689 0.11779 0.0
C1400 C 0.56769 0.48548 0.13293 0.0
C1401 C 0.52591 0.5196 0.13221 0.0
C1402 C 0.41259 0.3411 0.09949 0.0
C1403 C 0.421 0.36454 0.0986 0.0
C1404 C 0.45573 0.39401 0.10672 0.0
C1405 C 0.47509 0.39811 0.11191 0.0
C1406 C 0.48943 0.41666 0.12321 0.0
C1407 C 0.48441 0.43173 0.12888 0.0
C1408 C 0.46524 0.42821 0.1226 0.0
C1409 C 0.45098 0.40925 0.11174 0.0
C1410 C 0.50979 0.41994 0.12945 0.0
C1411 C 0.4597 0.4443 0.12765 0.0
C1412 C 0.49286 0.4552 0.23058 0.0
C1413 C 0.5089 0.47196 0.24235 0.0
C1414 C 0.52607 0.48795 0.23269 0.0
C1415 C 0.52719 0.48757 0.21056 0.0
C1416 C 0.54377 0.50393 0.20028 0.0
C1417 C 0.54481 0.50328 0.17848 0.0
C1418 C 0.52944 0.4861 0.16615 0.0
C1419 C 0.53048 0.48518 0.14399 0.0
C1420 C 0.5154 0.46751 0.13226 0.0
C1421 C 0.49898 0.45072 0.14207 0.0
C1422 C 0.49719 0.45175 0.16415 0.0
C1423 C 0.48047 0.43551 0.17449 0.0
C1424 C 0.47877 0.43679 0.1962 0.0
C1425 C 0.49413 0.45395 0.20848 0.0
C1426 C 0.51129 0.47033 0.19843 0.0
C1427 C 0.51261 0.46942 0.17622 0.0
C1428 C 0.62748 0.56695 0.12042 0.0
C1429 C 0.61446 0.56066 0.10016 0.0
O1430 O 0.43056 0.40122 0.2843 0.0
O1431 O 0.44207 0.37521 0.09695 0.0
O1432 O 0.59471 0.55532 0.10468 0.0
O1433 O 0.5851 0.54354 0.29364 0.0
H1434 H 0.43707 0.42619 0.30466 0.0
H1435 H 0.45841 0.41213 0.31442 0.0
H1436 H 0.43577 0.38722 0.31978 0.0
H1437 H 0.44226 0.41059 0.33566 0.0
H1438 H 0.4338 0.43438 0.26843 0.0
H1439 H 0.45716 0.39415 0.26765 0.0
H1440 H 0.47384 0.47741 0.24993 0.0
H1441 H 0.44645 0.46282 0.24611 0.0
H1442 H 0.46279 0.46452 0.22484 0.0
H1443 H 0.48632 0.40126 0.24864 0.0
H1444 H 0.50484 0.42904 0.24745 0.0
H1445 H 0.48942 0.41444 0.22471 0.0
H1446 H 0.56388 0.54502 0.3123 0.0
H1447 H 0.57606 0.52545 0.33008 0.0
H1448 H 0.58193 0.54868 0.34558 0.0
H1449 H 0.60189 0.54801 0.33124 0.0
H1450 H 0.58631 0.51452 0.2721 0.0
H1451 H 0.55489 0.54709 0.27869 0.0
H1452 H 0.56278 0.48609 0.2251 0.0
H1453 H 0.5475 0.46939 0.24542 0.0
H1454 H 0.575 0.48515 0.24868 0.0
H1455 H 0.52712 0.53918 0.25632 0.0
H1456 H 0.50985 0.51114 0.25645 0.0
H1457 H 0.52244 0.52287 0.23268 0.0
H1458 H 0.61403 0.54713 0.09182 0.0
H1459 H 0.59496 0.5209 0.11417 0.0
H1460 H 0.56009 0.55003 0.11402 0.0
H1461 H 0.56602 0.4833 0.1501 0.0
H1462 H 0.58279 0.48827 0.12828 0.0
H1463 H 0.55545 0.47068 0.12484 0.0
H1464 H 0.52631 0.53335 0.12607 0.0
H1465 H 0.52398 0.51975 0.14948 0.0
H1466 H 0.51232 0.50503 0.1253 0.0
H1467 H 0.41691 0.36942 0.11366 0.0
H1468 H 0.39569 0.33217 0.10111 0.0
H1469 H 0.41938 0.33831 0.11329 0.0
H1470 H 0.4164 0.33513 0.08504 0.0
H1471 H 0.47867 0.38636 0.10767 0.0
H1472 H 0.4362 0.40642 0.10717 0.0
H1473 H 0.51247 0.42337 0.14667 0.0
H1474 H 0.52224 0.43368 0.12157 0.0
H1475 H 0.51076 0.40607 0.12509 0.0
H1476 H 0.44539 0.44042 0.11938 0.0
H1477 H 0.4723 0.46005 0.12327 0.0
H1478 H 0.45756 0.44517 0.14483 0.0
H1479 H 0.50804 0.47253 0.25937 0.0
H1480 H 0.55608 0.51745 0.20901 0.0
H1481 H 0.55794 0.51633 0.17142 0.0
H1482 H 0.51652 0.46675 0.1153 0.0
H1483 H 0.46837 0.42172 0.16591 0.0
H1484 H 0.46544 0.424 0.20329 0.0
H1485 H 0.64342 0.57175 0.11666 0.0
H1486 H 0.62124 0.5536 0.13084 0.0
H1487 H 0.62773 0.5802 0.12914 0.0
C1488 C 0.4145 0.94555 0.3142 0.0
C1489 C 0.42115 0.96636 0.30453 0.0
C1490 C 0.43517 0.97253 0.26941 0.0
C1491 C 0.4508 0.99375 0.27216 0.0
C1492 C 0.46776 0.00252 0.25902 0.0
C1493 C 0.46908 0.98973 0.24292 0.0
C1494 C 0.4528 0.96859 0.23948 0.0
C1495 C 0.43586 0.96037 0.25262 0.0
C1496 C 0.48457 0.02525 0.26276 0.0
C1497 C 0.45373 0.95444 0.22257 0.0
C1498 C 0.59793 0.98302 0.29547 0.0
C1499 C 0.57914 0.979 0.28456 0.0
C1500 C 0.56632 0.99826 0.26752 0.0
C1501 C 0.55032 0.98063 0.25629 0.0
C1502 C 0.53634 0.98234 0.24401 0.0
C1503 C 0.53817 0.00198 0.24325 0.0
C1504 C 0.55424 0.01975 0.25453 0.0
C1505 C 0.56827 0.01767 0.26634 0.0
C1506 C 0.51944 0.96309 0.23206 0.0
C1507 C 0.55638 0.04083 0.25442 0.0
C1508 C 0.59175 0.05421 0.11909 0.0
C1509 C 0.57709 0.03265 0.11943 0.0
C1510 C 0.55796 0.02538 0.12848 0.0
C1511 C 0.55365 0.04001 0.13782 0.0
C1512 C 0.56824 0.06178 0.13689 0.0
C1513 C 0.58698 0.06857 0.12718 0.0
C1514 C 0.54247 0.00208 0.12829 0.0
C1515 C 0.56423 0.07789 0.14651 0.0
C1516 C 0.42316 0.04703 0.13691 0.0
C1517 C 0.43342 0.04987 0.11558 0.0
C1518 C 0.45412 0.03425 0.12049 0.0
C1519 C 0.45508 0.01654 0.11571 0.0
C1520 C 0.47035 0.01435 0.12464 0.0
C1521 C 0.48509 0.0304 0.13863 0.0
C1522 C 0.48461 0.04868 0.14308 0.0
C1523 C 0.4691 0.05042 0.13402 0.0
C1524 C 0.47049 0.9947 0.11951 0.0
C1525 C 0.50025 0.06621 0.15778 0.0
C1526 C 0.48841 0.99769 0.2314 0.0
C1527 C 0.5041 0.99712 0.24142 0.0
C1528 C 0.52258 0.00359 0.23157 0.0
C1529 C 0.52566 0.01088 0.21103 0.0
C1530 C 0.54402 0.01735 0.20059 0.0
C1531 C 0.54695 0.02464 0.18043 0.0
C1532 C 0.5315 0.02542 0.16977 0.0
C1533 C 0.53425 0.03263 0.14917 0.0
C1534 C 0.51871 0.03365 0.13929 0.0
C1535 C 0.50043 0.02771 0.14944 0.0
C1536 C 0.49723 0.02006 0.16985 0.0
C1537 C 0.47885 0.01359 0.18035 0.0
C1538 C 0.47593 0.00631 0.20053 0.0
C1539 C 0.49124 0.00517 0.21095 0.0
C1540 C 0.50992 0.01169 0.2007 0.0
C1541 C 0.51286 0.019 0.18006 0.0
C1542 C 0.64323 0.07076 0.12365 0.0
C1543 C 0.62263 0.05343 0.11403 0.0
O1544 O 0.41939 0.9633 0.28282 0.0
O1545 O 0.43839 0.03486 0.11187 0.0
O1546 O 0.61053 0.06162 0.11096 0.0
O1547 O 0.58009 0.9972 0.27967 0.0
H1548 H 0.43738 0.97757 0.30963 0.0
H1549 H 0.42448 0.93991 0.30863 0.0
H1550 H 0.3984 0.93343 0.30959 0.0
H1551 H 0.41587 0.94761 0.33162 0.0
H1552 H 0.44985 0.00339 0.2847 0.0
H1553 H 0.4235 0.94408 0.25047 0.0
H1554 H 0.4983 0.02622 0.26945 0.0
H1555 H 0.47999 0.03379 0.27382 0.0
H1556 H 0.48896 0.0332 0.24767 0.0
H1557 H 0.43991 0.93831 0.22211 0.0
H1558 H 0.46742 0.95355 0.22525 0.0
H1559 H 0.45525 0.96106 0.20699 0.0
H1560 H 0.56443 0.96743 0.29186 0.0
H1561 H 0.5928 0.97687 0.31157 0.0
H1562 H 0.6067 2e-05 0.30126 0.0
H1563 H 0.60996 0.97055 0.27402 0.0
H1564 H 0.54861 0.96548 0.25702 0.0
H1565 H 0.58066 0.03117 0.27504 0.0
H1566 H 0.51873 0.96661 0.21548 0.0
H1567 H 0.50452 0.95839 0.23917 0.0
H1568 H 0.52152 0.94963 0.23228 0.0
H1569 H 0.569 0.0528 0.26502 0.0
H1570 H 0.54187 0.03934 0.25934 0.0
H1571 H 0.55942 0.04645 0.23823 0.0
H1572 H 0.61551 0.04085 0.12552 0.0
H1573 H 0.58057 0.02154 0.1125 0.0
H1574 H 0.59832 0.08519 0.12651 0.0
H1575 H 0.54134 0.99654 0.14435 0.0
H1576 H 0.54673 0.9931 0.11746 0.0
H1577 H 0.5271 0.99858 0.12353 0.0
H1578 H 0.57793 0.09408 0.14637 0.0
H1579 H 0.55928 0.0743 0.16299 0.0
H1580 H 0.55164 0.07733 0.13758 0.0
H1581 H 0.44749 0.06584 0.11543 0.0
H1582 H 0.41869 0.05871 0.13957 0.0
H1583 H 0.43383 0.04937 0.14985 0.0
H1584 H 0.40931 0.031 0.13758 0.0
H1585 H 0.44355 0.0042 0.10518 0.0
H1586 H 0.46876 0.06434 0.13779 0.0
H1587 H 0.469 0.98664 0.13417 0.0
H1588 H 0.48533 0.9989 0.11251 0.0
H1589 H 0.45791 0.98361 0.10837 0.0
H1590 H 0.49888 0.08015 0.15822 0.0
H1591 H 0.51594 0.07103 0.15292 0.0
H1592 H 0.49825 0.06056 0.17392 0.0
H1593 H 0.50181 0.99134 0.25712 0.0
H1594 H 0.55639 0.01693 0.20793 0.0
H1595 H 0.5615 0.02961 0.17329 0.0
H1596 H 0.52101 0.03947 0.12362 0.0
H1597 H 0.46649 0.01406 0.17309 0.0
H1598 H 0.46151 0.00158 0.20788 0.0
H1599 H 0.65314 0.06455 0.12659 0.0
H1600 H 0.64082 0.07685 0.13888 0.0
H1601 H 0.65118 0.08396 0.113 0.0
C1602 C 0.55433 0.97767 0.69031 0.0
C1603 C 0.56723 0.99151 0.70934 0.0
C1604 C 0.54958 0.98581 0.74258 0.0
C1605 C 0.55719 0.00666 0.74954 0.0
C1606 C 0.54672 0.01143 0.76459 0.0
C1607 C 0.52836 0.99499 0.77281 0.0
C1608 C 0.52112 0.9739 0.76637 0.0
C1609 C 0.53204 0.96959 0.75153 0.0
C1610 C 0.55509 0.03403 0.77149 0.0
C1611 C 0.50156 0.95594 0.77474 0.0
C1612 C 0.39339 0.00256 0.73774 0.0
C1613 C 0.40627 0.9971 0.74961 0.0
C1614 C 0.44163 0.01135 0.76072 0.0
C1615 C 0.43798 0.99206 0.7671 0.0
C1616 C 0.45359 0.99073 0.77642 0.0
C1617 C 0.47327 0.00906 0.7796 0.0
C1618 C 0.47715 0.02844 0.7729 0.0
C1619 C 0.46124 0.02931 0.76348 0.0
C1620 C 0.44896 0.96969 0.78304 0.0
C1621 C 0.498 0.04821 0.776 0.0
C1622 C 0.44281 0.00402 0.91238 0.0
C1623 C 0.4377 0.98538 0.90095 0.0
C1624 C 0.45277 0.98352 0.89058 0.0
C1625 C 0.47331 0.0007 0.89143 0.0
C1626 C 0.47863 0.0192 0.90348 0.0
C1627 C 0.46328 0.02054 0.91392 0.0
C1628 C 0.44658 0.9634 0.87812 0.0
C1629 C 0.50038 0.03778 0.90472 0.0
C1630 C 0.57876 0.94441 0.89301 0.0
C1631 C 0.57795 0.96301 0.90235 0.0
C1632 C 0.54767 0.96529 0.90069 0.0
C1633 C 0.5268 0.95232 0.89588 0.0
C1634 C 0.51575 0.96048 0.88785 0.0
C1635 C 0.52579 0.98231 0.88515 0.0
C1636 C 0.54665 0.99571 0.89125 0.0
C1637 C 0.55743 0.98704 0.89884 0.0
C1638 C 0.49345 0.9457 0.88183 0.0
C1639 C 0.55761 0.01912 0.88935 0.0
C1640 C 0.5161 -0.00014 0.78717 0.0
C1641 C 0.50255 0.00437 0.77807 0.0
C1642 C 0.4895 0.00778 0.7904 0.0
C1643 C 0.49031 0.00731 0.8125 0.0
C1644 C 0.47772 0.01118 0.82536 0.0
C1645 C 0.47761 0.00932 0.84695 0.0
C1646 C 0.48993 0.00329 0.8565 0.0
C1647 C 0.48878 -0.00015 0.87822 0.0
C1648 C 0.5012 0.99385 0.88726 0.0
C1649 C 0.51462 0.99082 0.87506 0.0
C1650 C 0.5159 0.99408 0.85325 0.0
C1651 C 0.52902 0.99093 0.8404 0.0
C1652 C 0.52956 0.99339 0.81884 0.0
C1653 C 0.51667 0.99864 0.80922 0.0
C1654 C 0.50365 0.00231 0.82191 0.0
C1655 C 0.50336 0.00016 0.84395 0.0
C1656 C 0.4004 0.99657 0.89813 0.0
C1657 C 0.40748 0.99425 0.9197 0.0
O1658 O 0.55884 0.98076 0.72741 0.0
O1659 O 0.55787 0.95629 0.90695 0.0
O1660 O 0.42862 0.00692 0.92186 0.0
O1661 O 0.42666 0.01318 0.75197 0.0
H1662 H 0.56683 0.00604 0.70942 0.0
H1663 H 0.5384 0.97394 0.69174 0.0
H1664 H 0.55395 0.96272 0.6893 0.0
H1665 H 0.56068 0.98597 0.67559 0.0
H1666 H 0.5713 0.01921 0.7433 0.0
H1667 H 0.52654 0.95354 0.74626 0.0
H1668 H 0.54446 0.03865 0.76614 0.0
H1669 H 0.57044 0.04484 0.76506 0.0
H1670 H 0.55615 0.03591 0.78892 0.0
H1671 H 0.49764 0.9405 0.76753 0.0
H1672 H 0.48872 0.95814 0.77163 0.0
H1673 H 0.50306 0.95571 0.79201 0.0
H1674 H 0.39958 0.98927 0.76457 0.0
H1675 H 0.38443 0.98261 0.71053 0.0
H1676 H 0.40238 0.02019 0.73727 0.0
H1677 H 0.38208 0.00188 0.74942 0.0
H1678 H 0.42297 0.97793 0.76492 0.0
H1679 H 0.46398 0.04409 0.75843 0.0
H1680 H 0.45023 0.97002 0.80041 0.0
H1681 H 0.4603 0.96636 0.77633 0.0
H1682 H 0.43337 0.95667 0.77795 0.0
H1683 H 0.4985 0.06213 0.77019 0.0
H1684 H 0.50954 0.04624 0.76758 0.0
H1685 H 0.50239 0.05115 0.79296 0.0
H1686 H 0.40249 0.97758 0.9214 0.0
H1687 H 0.42201 0.9723 0.89975 0.0
H1688 H 0.46712 0.03479 0.92289 0.0
H1689 H 0.44744 0.96613 0.86108 0.0
H1690 H 0.43074 0.95055 0.88147 0.0
H1691 H 0.45722 0.95823 0.88163 0.0
H1692 H 0.50206 0.05099 0.91493 0.0
H1693 H 0.50556 0.04336 0.88871 0.0
H1694 H 0.5106 0.033 0.91094 0.0
H1695 H 0.58372 0.9747 0.88996 0.0
H1696 H 0.59479 0.9494 0.88941 0.0
H1697 H 0.56952 0.93831 0.87816 0.0
H1698 H 0.57249 0.9315 0.90403 0.0
H1699 H 0.51935 0.93561 0.89773 0.0
H1700 H 0.57344 0.99724 0.90334 0.0
H1701 H 0.49059 0.94792 0.86539 0.0
H1702 H 0.48397 0.94928 0.89217 0.0
H1703 H 0.48837 0.929 0.88329 0.0
H1704 H 0.57302 0.02759 0.89706 0.0
H1705 H 0.54844 0.02514 0.89647 0.0
H1706 H 0.55939 0.02268 0.87249 0.0
H1707 H 0.5016 0.00443 0.76109 0.0
H1708 H 0.46766 0.01553 0.81884 0.0
H1709 H 0.46747 0.01235 0.85601 0.0
H1710 H 0.49991 0.99081 0.90385 0.0
H1711 H 0.53895 0.98639 0.84683 0.0
H1712 H 0.5399 0.99071 0.80974 0.0
H1713 H 0.38343 0.9868 0.89665 0.0
H1714 H 0.40672 0.9913 0.88536 0.0
H1715 H 0.40559 0.01321 0.89596 0.0
C1716 C 0.9969 0.56797 0.70131 0.0
C1717 C 0.98945 0.57484 0.72049 0.0
C1718 C 0.00117 0.5655 0.75088 0.0
C1719 C 0.98271 0.55159 0.7605 0.0
C1720 C 0.98135 0.53658 0.77374 0.0
C1721 C 0.99881 0.53551 0.77734 0.0
C1722 C 0.01762 0.55 0.76816 0.0
C1723 C 0.01861 0.56507 0.75528 0.0
C1724 C 0.96119 0.52169 0.78367 0.0
C1725 C 0.0365 0.54921 0.77152 0.0
C1726 C 0.9323 0.39322 0.70513 0.0
C1727 C 0.95275 0.40604 0.71719 0.0
C1728 C 0.95908 0.42455 0.7514 0.0
C1729 C 0.97989 0.43978 0.74909 0.0
C1730 C 0.98961 0.45823 0.76207 0.0
C1731 C 0.9782 0.46159 0.77744 0.0
C1732 C 0.95735 0.44595 0.78015 0.0
C1733 C 0.94819 0.42742 0.76731 0.0
C1734 C 0.01197 0.47433 0.75907 0.0
C1735 C 0.94454 0.4491 0.79605 0.0
C1736 C 0.01283 0.44382 0.90501 0.0
C1737 C 0.03029 0.45846 0.8943 0.0
C1738 C 0.03095 0.47521 0.88478 0.0
C1739 C 0.01384 0.47733 0.88596 0.0
C1740 C 0.99643 0.46287 0.89707 0.0
C1741 C 0.9962 0.44632 0.90648 0.0
C1742 C 0.04978 0.49045 0.87309 0.0
C1743 C 0.97791 0.46465 0.89859 0.0
C1744 C 0.06102 0.64308 0.9064 0.0
C1745 C 0.04373 0.62189 0.91362 0.0
C1746 C 0.04368 0.58965 0.90794 0.0
C1747 C 0.0573 0.58375 0.90156 0.0
C1748 C 0.05026 0.56418 0.89117 0.0
C1749 C 0.02898 0.54996 0.8877 0.0
C1750 C 0.01504 0.55538 0.8953 0.0
C1751 C 0.02256 0.57528 0.90519 0.0
C1752 C 0.0656 0.55892 0.88347 0.0
C1753 C 0.99222 0.54029 0.89271 0.0
C1754 C 0.99711 0.51847 0.78962 0.0
C1755 C 0.9892 0.49885 0.77925 0.0
C1756 C 0.98757 0.48208 0.78948 0.0
C1757 C 0.99428 0.48496 0.81066 0.0
C1758 C 0.99361 0.46868 0.82121 0.0
C1759 C 1e-05 0.47161 0.84214 0.0
C1760 C 0.00729 0.49092 0.85333 0.0
C1761 C 0.01375 0.49402 0.87463 0.0
C1762 C 0.0205 0.51325 0.88544 0.0
C1763 C 0.0214 0.52981 0.87541 0.0
C1764 C 0.01548 0.52718 0.85394 0.0
C1765 C 0.01676 0.54366 0.84313 0.0
C1766 C 0.01071 0.54085 0.8221 0.0
C1767 C 0.00326 0.52149 0.811 0.0
C1768 C 0.00191 0.50468 0.82153 0.0
C1769 C 0.0082 0.50759 0.84296 0.0
C1770 C 0.02372 0.40948 0.89245 0.0
C1771 C 0.0249 0.42051 0.91371 0.0
O1772 O 0.00265 0.57962 0.73745 0.0
O1773 O 0.05141 0.60926 0.91673 0.0
O1774 O 0.01113 0.42697 0.91397 0.0
O1775 O 0.949 0.40709 0.73837 0.0
H1776 H 0.97375 0.56168 0.72391 0.0
H1777 H 0.99701 0.55372 0.70466 0.0
H1778 H 0.01266 0.58058 0.69734 0.0
H1779 H 0.98652 0.56416 0.68753 0.0
H1780 H 0.96941 0.55252 0.75778 0.0
H1781 H 0.03284 0.57613 0.74798 0.0
H1782 H 0.95494 0.50557 0.77674 0.0
H1783 H 0.94972 0.52603 0.78122 0.0
H1784 H 0.96349 0.5214 0.8008 0.0
H1785 H 0.04966 0.56094 0.76243 0.0
H1786 H 0.03322 0.53332 0.76681 0.0
H1787 H 0.04095 0.55223 0.78845 0.0
H1788 H 0.96084 0.42204 0.71095 0.0
H1789 H 0.93487 0.39235 0.68803 0.0
H1790 H 0.92341 0.40081 0.70749 0.0
H1791 H 0.92313 0.37705 0.71075 0.0
H1792 H 0.98852 0.43731 0.73713 0.0
H1793 H 0.93218 0.41543 0.76905 0.0
H1794 H 0.0135 0.48815 0.75177 0.0
H1795 H 0.01938 0.46806 0.74879 0.0
H1796 H 0.02026 0.47979 0.77449 0.0
H1797 H 0.92816 0.43621 0.79493 0.0
H1798 H 0.94568 0.46419 0.7938 0.0
H1799 H 0.95039 0.44989 0.81215 0.0
H1800 H 0.04071 0.4343 0.91663 0.0
H1801 H 0.04336 0.45686 0.89308 0.0
H1802 H 0.98283 0.43499 0.91482 0.0
H1803 H 0.04577 0.48941 0.85618 0.0
H1804 H 0.06224 0.48734 0.87452 0.0
H1805 H 0.05555 0.50675 0.87917 0.0
H1806 H 0.96573 0.45237 0.90817 0.0
H1807 H 0.97156 0.46327 0.88259 0.0
H1808 H 0.98244 0.48031 0.90568 0.0
H1809 H 0.03187 0.61492 0.90075 0.0
H1810 H 0.05522 0.65344 0.90352 0.0
H1811 H 0.06728 0.64074 0.89151 0.0
H1812 H 0.0736 0.65093 0.91843 0.0
H1813 H 0.07356 0.59486 0.9041 0.0
H1814 H 0.01195 0.57958 0.91083 0.0
H1815 H 0.06287 0.55409 0.86647 0.0
H1816 H 0.06366 0.54551 0.89198 0.0
H1817 H 0.08163 0.57235 0.8859 0.0
H1818 H 0.9835 0.54553 0.90223 0.0
H1819 H 0.98785 0.52444 0.89733 0.0
H1820 H 0.98768 0.53894 0.87594 0.0
H1821 H 0.9842 0.49659 0.76292 0.0
H1822 H 0.98815 0.45349 0.81338 0.0
H1823 H 0.99909 0.45847 0.84944 0.0
H1824 H 0.02525 0.51542 0.90183 0.0
H1825 H 0.02246 0.55895 0.85081 0.0
H1826 H 0.01191 0.55405 0.81463 0.0
H1827 H 0.03453 0.40402 0.89239 0.0
H1828 H 0.02791 0.42039 0.87959 0.0
H1829 H 0.00796 0.39577 0.88918 0.0
C1830 C 0.55319 0.59289 0.70664 0.0
C1831 C 0.56777 0.59908 0.72565 0.0
C1832 C 0.5467 0.57078 0.74938 0.0
C1833 C 0.53337 0.5775 0.75503 0.0
C1834 C 0.51641 0.56539 0.76755 0.0
C1835 C 0.51267 0.54619 0.77461 0.0
C1836 C 0.52629 0.53962 0.76943 0.0
C1837 C 0.54318 0.55207 0.75693 0.0
C1838 C 0.50221 0.57289 0.77292 0.0
C1839 C 0.52273 0.51923 0.77675 0.0
C1840 C 0.38833 0.4531 0.68735 0.0
C1841 C 0.39589 0.44723 0.70634 0.0
C1842 C 0.40823 0.46725 0.73988 0.0
C1843 C 0.42149 0.46084 0.7456 0.0
C1844 C 0.43707 0.47256 0.76081 0.0
C1845 C 0.43952 0.49114 0.77028 0.0
C1846 C 0.42566 0.49718 0.76507 0.0
C1847 C 0.40993 0.48488 0.75016 0.0
C1848 C 0.45126 0.46538 0.76636 0.0
C1849 C 0.42792 0.51702 0.77463 0.0
C1850 C 0.39636 0.46939 0.90219 0.0
C1851 C 0.40861 0.46143 0.89644 0.0
C1852 C 0.42786 0.47434 0.88766 0.0
C1853 C 0.43482 0.49553 0.88431 0.0
C1854 C 0.42286 0.50377 0.89092 0.0
C1855 C 0.40386 0.49061 0.90005 0.0
C1856 C 0.44058 0.46525 0.88158 0.0
C1857 C 0.4299 0.52634 0.88784 0.0
C1858 C 0.58025 0.62634 0.90718 0.0
C1859 C 0.5726 0.6131 0.92658 0.0
C1860 C 0.54532 0.57872 0.91096 0.0
C1861 C 0.54059 0.55854 0.905 0.0
C1862 C 0.52242 0.54419 0.89388 0.0
C1863 C 0.50869 0.5503 0.88849 0.0
C1864 C 0.51304 0.57049 0.895 0.0
C1865 C 0.53127 0.58449 0.9063 0.0
C1866 C 0.51813 0.52267 0.88745 0.0
C1867 C 0.49861 0.5774 0.88959 0.0
C1868 C 0.4938 0.53241 0.78626 0.0
C1869 C 0.47612 0.51837 0.77447 0.0
C1870 C 0.45758 0.50517 0.78415 0.0
C1871 C 0.45656 0.50583 0.80631 0.0
C1872 C 0.43819 0.49273 0.81658 0.0
C1873 C 0.43729 0.49378 0.83839 0.0
C1874 C 0.45482 0.50772 0.8508 0.0
C1875 C 0.45411 0.50878 0.87301 0.0
C1876 C 0.47184 0.52279 0.88483 0.0
C1877 C 0.49036 0.53596 0.87506 0.0
C1878 C 0.49136 0.53522 0.85289 0.0
C1879 C 0.50973 0.5484 0.84257 0.0
C1880 C 0.51059 0.5475 0.82076 0.0
C1881 C 0.49311 0.53342 0.80843 0.0
C1882 C 0.47441 0.52005 0.81848 0.0
C1883 C 0.47353 0.52098 0.84074 0.0
C1884 C 0.34246 0.4317 0.90071 0.0
C1885 C 0.36393 0.43594 0.90435 0.0
O1886 O 0.56283 0.58153 0.73652 0.0
O1887 O 0.56368 0.59199 0.92083 0.0
O1888 O 0.37724 0.45707 0.90968 0.0
O1889 O 0.39386 0.45702 0.7243 0.0
H1890 H 0.56658 0.61051 0.73624 0.0
H1891 H 0.53722 0.58614 0.7118 0.0
H1892 H 0.55366 0.58103 0.69606 0.0
H1893 H 0.55754 0.60691 0.69767 0.0
H1894 H 0.53583 0.592 0.74957 0.0
H1895 H 0.55355 0.54703 0.75263 0.0
H1896 H 0.48684 0.56171 0.76574 0.0
H1897 H 0.50783 0.58874 0.76724 0.0
H1898 H 0.50041 0.57333 0.7902 0.0
H1899 H 0.53504 0.51659 0.77187 0.0
H1900 H 0.50788 0.50597 0.77023 0.0
H1901 H 0.52181 0.51915 0.79415 0.0
H1902 H 0.41234 0.4531 0.70369 0.0
H1903 H 0.39001 0.44565 0.67266 0.0
H1904 H 0.39752 0.47038 0.68604 0.0
H1905 H 0.37199 0.44796 0.689 0.0
H1906 H 0.41977 0.44678 0.73812 0.0
H1907 H 0.39942 0.48951 0.74577 0.0
H1908 H 0.45313 0.46593 0.78369 0.0
H1909 H 0.46659 0.47616 0.75988 0.0
H1910 H 0.44562 0.44921 0.75994 0.0
H1911 H 0.41656 0.5201 0.76802 0.0
H1912 H 0.44353 0.53063 0.77193 0.0
H1913 H 0.42592 0.51582 0.79187 0.0
H1914 H 0.36833 0.43167 0.88912 0.0
H1915 H 0.40317 0.44516 0.89876 0.0
H1916 H 0.39441 0.49666 0.90486 0.0
H1917 H 0.44109 0.46393 0.8642 0.0
H1918 H 0.43429 0.44944 0.88769 0.0
H1919 H 0.45656 0.47579 0.88761 0.0
H1920 H 0.4183 0.53003 0.89281 0.0
H1921 H 0.43331 0.52984 0.87104 0.0
H1922 H 0.44424 0.53683 0.89711 0.0
H1923 H 0.56125 0.61559 0.9348 0.0
H1924 H 0.58794 0.64328 0.91198 0.0
H1925 H 0.56733 0.62227 0.89633 0.0
H1926 H 0.59124 0.62367 0.89849 0.0
H1927 H 0.55143 0.55417 0.90883 0.0
H1928 H 0.5345 0.59991 0.91114 0.0
H1929 H 0.51834 0.52101 0.87006 0.0
H1930 H 0.50264 0.51044 0.8925 0.0
H1931 H 0.52954 0.51978 0.89426 0.0
H1932 H 0.50422 0.59367 0.89569 0.0
H1933 H 0.48337 0.56663 0.89625 0.0
H1934 H 0.49654 0.57653 0.87227 0.0
H1935 H 0.47675 0.51784 0.75744 0.0
H1936 H 0.42426 0.48159 0.80785 0.0
H1937 H 0.42266 0.48345 0.84539 0.0
H1938 H 0.47121 0.52346 0.90185 0.0
H1939 H 0.52368 0.55959 0.85123 0.0
H1940 H 0.52513 0.55799 0.81367 0.0
H1941 H 0.3371 0.43623 0.915 0.0
H1942 H 0.3315 0.4148 0.89645 0.0
H1943 H 0.34264 0.44097 0.88759 0.0
C1944 C 0.61903 0.73737 0.64404 0.0
C1945 C 0.62827 0.73437 0.6238 0.0
C1946 C 0.6371 0.76566 0.60467 0.0
C1947 C 0.61689 0.75942 0.59935 0.0
C1948 C 0.61284 0.77263 0.58851 0.0
C1949 C 0.62927 0.79242 0.58281 0.0
C1950 C 0.6496 0.79867 0.58793 0.0
C1951 C 0.65323 0.78516 0.59877 0.0
C1952 C 0.59097 0.7655 0.58321 0.0
C1953 C 0.66748 0.81968 0.58203 0.0
C1954 C 0.59828 0.88933 0.66857 0.0
C1955 C 0.61393 0.89207 0.65215 0.0
C1956 C 0.60798 0.87344 0.61816 0.0
C1957 C 0.6279 0.87803 0.6148 0.0
C1958 C 0.63149 0.86594 0.60014 0.0
C1959 C 0.61476 0.84862 0.58899 0.0
C1960 C 0.59467 0.84411 0.59223 0.0
C1961 C 0.59164 0.85694 0.60645 0.0
C1962 C 0.65316 0.87153 0.59681 0.0
C1963 C 0.57635 0.82546 0.58112 0.0
C1964 C 0.60491 0.87941 0.45754 0.0
C1965 C 0.6249 0.88595 0.46395 0.0
C1966 C 0.62908 0.87183 0.47264 0.0
C1967 C 0.61291 0.85086 0.47513 0.0
C1968 C 0.59292 0.84406 0.46793 0.0
C1969 C 0.58925 0.85843 0.45901 0.0
C1970 C 0.65071 0.87939 0.47949 0.0
C1971 C 0.57536 0.82175 0.47009 0.0
C1972 C 0.61827 0.71749 0.4505 0.0
C1973 C 0.62406 0.73044 0.43092 0.0
C1974 C 0.633 0.76502 0.44637 0.0
C1975 C 0.64942 0.7851 0.45227 0.0
C1976 C 0.64639 0.79954 0.46367 0.0
C1977 C 0.62635 0.79367 0.46927 0.0
C1978 C 0.60953 0.77362 0.46274 0.0
C1979 C 0.613 0.75948 0.45129 0.0
C1980 C 0.66463 0.82088 0.47024 0.0
C1981 C 0.58795 0.76698 0.46834 0.0
C1982 C 0.62517 0.80675 0.5718 0.0
C1983 C 0.6218 0.82043 0.58404 0.0
C1984 C 0.6182 0.83465 0.5748 0.0
C1985 C 0.61797 0.83531 0.55266 0.0
C1986 C 0.61478 0.84966 0.54281 0.0
C1987 C 0.6142 0.8499 0.52101 0.0
C1988 C 0.61715 0.83605 0.5082 0.0
C1989 C 0.61671 0.83625 0.48601 0.0
C1990 C 0.6197 0.82227 0.47376 0.0
C1991 C 0.62313 0.80799 0.48309 0.0
C1992 C 0.62364 0.80755 0.50523 0.0
C1993 C 0.62711 0.79339 0.51509 0.0
C1994 C 0.62763 0.7931 0.53687 0.0
C1995 C 0.62465 0.80692 0.54965 0.0
C1996 C 0.62106 0.82128 0.54005 0.0
C1997 C 0.62062 0.82163 0.51781 0.0
C1998 C 0.59519 0.921 0.45638 0.0
C1999 C 0.61065 0.91431 0.45409 0.0
O2000 O 0.64179 0.75361 0.61556 0.0
O2001 O 0.63731 0.75158 0.43629 0.0
O2002 O 0.6001 0.8928 0.44992 0.0
O2003 O 0.60404 0.88445 0.63274 0.0
H2004 H 0.61576 0.72432 0.61212 0.0
H2005 H 0.61014 0.74463 0.64078 0.0
H2006 H 0.63126 0.7477 0.65584 0.0
H2007 H 0.6085 0.72196 0.65082 0.0
H2008 H 0.60414 0.74438 0.60365 0.0
H2009 H 0.66876 0.78985 0.60286 0.0
H2010 H 0.58722 0.77651 0.59095 0.0
H2011 H 0.57989 0.74944 0.58828 0.0
H2012 H 0.58909 0.76577 0.56599 0.0
H2013 H 0.68239 0.82226 0.58724 0.0
H2014 H 0.66588 0.83242 0.5892 0.0
H2015 H 0.66753 0.82081 0.56472 0.0
H2016 H 0.62023 0.88255 0.65699 0.0
H2017 H 0.60576 0.89504 0.68438 0.0
H2018 H 0.58612 0.87246 0.6692 0.0
H2019 H 0.59103 0.89813 0.66455 0.0
H2020 H 0.64064 0.8911 0.62354 0.0
H2021 H 0.57635 0.85364 0.60912 0.0
H2022 H 0.65616 0.87127 0.57976 0.0
H2023 H 0.65533 0.85972 0.604 0.0
H2024 H 0.6646 0.88725 0.60402 0.0
H2025 H 0.56168 0.82251 0.5875 0.0
H2026 H 0.57687 0.81114 0.58253 0.0
H2027 H 0.5766 0.82824 0.56415 0.0
H2028 H 0.61914 0.91855 0.46942 0.0
H2029 H 0.63727 0.90202 0.46218 0.0
H2030 H 0.57394 0.85348 0.4537 0.0
H2031 H 0.65161 0.87953 0.49688 0.0
H2032 H 0.66188 0.89545 0.47443 0.0
H2033 H 0.65516 0.86851 0.47294 0.0
H2034 H 0.56057 0.81917 0.46447 0.0
H2035 H 0.57394 0.81768 0.4868 0.0
H2036 H 0.57845 0.81089 0.46091 0.0
H2037 H 0.60999 0.72794 0.42321 0.0
H2038 H 0.60812 0.70051 0.44601 0.0
H2039 H 0.60994 0.72187 0.46168 0.0
H2040 H 0.63219 0.72015 0.45868 0.0
H2041 H 0.66476 0.7893 0.44825 0.0
H2042 H 0.60006 0.74412 0.44655 0.0
H2043 H 0.66609 0.82259 0.48765 0.0
H2044 H 0.66238 0.83331 0.46488 0.0
H2045 H 0.67912 0.82341 0.46376 0.0
H2046 H 0.57643 0.75115 0.46142 0.0
H2047 H 0.58446 0.77847 0.46274 0.0
H2048 H 0.58651 0.76684 0.48569 0.0
H2049 H 0.62203 0.82005 0.60104 0.0
H2050 H 0.61261 0.86081 0.55186 0.0
H2051 H 0.61147 0.86114 0.51434 0.0
H2052 H 0.61936 0.82251 0.45676 0.0
H2053 H 0.62947 0.78235 0.50609 0.0
H2054 H 0.63037 0.78187 0.54358 0.0
H2055 H 0.58587 0.91697 0.44169 0.0
H2056 H 0.6032 0.93818 0.46004 0.0
H2057 H 0.58474 0.9128 0.46944 0.0
C2058 C 0.10401 0.72004 0.66796 0.0
C2059 C 0.09963 0.73166 0.65189 0.0
C2060 C 0.11564 0.74142 0.61794 0.0
C2061 C 0.11393 0.7587 0.61488 0.0
C2062 C 0.12699 0.77418 0.60122 0.0
C2063 C 0.14229 0.77246 0.59073 0.0
C2064 C 0.14362 0.75469 0.59335 0.0
C2065 C 0.12992 0.73914 0.60662 0.0
C2066 C 0.1248 0.79264 0.59847 0.0
C2067 C 0.15996 0.75248 0.58279 0.0
C2068 C 0.25768 0.88374 0.66962 0.0
C2069 C 0.25083 0.89298 0.65314 0.0
C2070 C 0.23789 0.87228 0.61994 0.0
C2071 C 0.24037 0.85761 0.60845 0.0
C2072 C 0.22468 0.84214 0.59509 0.0
C2073 C 0.20631 0.84182 0.59278 0.0
C2074 C 0.20409 0.85726 0.60365 0.0
C2075 C 0.21994 0.87239 0.61713 0.0
C2076 C 0.22758 0.82589 0.58379 0.0
C2077 C 0.18489 0.85765 0.60114 0.0
C2078 C 0.23258 0.87745 0.45744 0.0
C2079 C 0.23719 0.86326 0.46524 0.0
C2080 C 0.22243 0.84571 0.4758 0.0
C2081 C 0.20286 0.84255 0.47906 0.0
C2082 C 0.19818 0.85675 0.47119 0.0
C2083 C 0.21307 0.87392 0.46033 0.0
C2084 C 0.22779 0.83059 0.48359 0.0
C2085 C 0.17749 0.85391 0.47444 0.0
C2086 C 0.07231 0.67952 0.44235 0.0
C2087 C 0.08076 0.70305 0.44301 0.0
C2088 C 0.11505 0.73242 0.45342 0.0
C2089 C 0.13475 0.73717 0.45807 0.0
C2090 C 0.14877 0.75562 0.4697 0.0
C2091 C 0.143 0.76986 0.47645 0.0
C2092 C 0.12336 0.7656 0.471 0.0
C2093 C 0.10951 0.74684 0.45961 0.0
C2094 C 0.16965 0.75975 0.47506 0.0
C2095 C 0.11698 0.78076 0.47744 0.0
C2096 C 0.15791 0.7901 0.57853 0.0
C2097 C 0.17389 0.80741 0.58985 0.0
C2098 C 0.18915 0.82477 0.5797 0.0
C2099 C 0.18839 0.82517 0.55759 0.0
C2100 C 0.20304 0.84275 0.54695 0.0
C2101 C 0.20251 0.84274 0.52513 0.0
C2102 C 0.18751 0.82502 0.51311 0.0
C2103 C 0.18734 0.82452 0.4909 0.0
C2104 C 0.17242 0.80652 0.47944 0.0
C2105 C 0.15743 0.78893 0.48957 0.0
C2106 C 0.15704 0.78929 0.51178 0.0
C2107 C 0.14189 0.77204 0.5225 0.0
C2108 C 0.14183 0.77245 0.54437 0.0
C2109 C 0.15728 0.78985 0.55634 0.0
C2110 C 0.17262 0.80747 0.54585 0.0
C2111 C 0.17233 0.8073 0.52357 0.0
C2112 C 0.27876 0.91455 0.46518 0.0
C2113 C 0.26703 0.90287 0.44474 0.0
O2114 O 0.10402 0.72698 0.63202 0.0
O2115 O 0.10192 0.71383 0.44297 0.0
O2116 O 0.24629 0.89469 0.44712 0.0
O2117 O 0.25323 0.88629 0.63331 0.0
H2118 H 0.10997 0.74874 0.65617 0.0
H2119 H 0.12036 0.72502 0.6674 0.0
H2120 H 0.09442 0.7028 0.66451 0.0
H2121 H 0.10084 0.72372 0.68409 0.0
H2122 H 0.10247 0.76015 0.62328 0.0
H2123 H 0.13094 0.72559 0.609 0.0
H2124 H 0.13775 0.80679 0.60673 0.0
H2125 H 0.11028 0.79002 0.60495 0.0
H2126 H 0.12538 0.79587 0.58157 0.0
H2127 H 0.15999 0.73861 0.58788 0.0
H2128 H 0.17528 0.76676 0.58633 0.0
H2129 H 0.15747 0.75084 0.5655 0.0
H2130 H 0.23448 0.88721 0.65608 0.0
H2131 H 0.24819 0.86634 0.66799 0.0
H2132 H 0.25576 0.88873 0.68571 0.0
H2133 H 0.27398 0.88891 0.66758 0.0
H2134 H 0.25445 0.85793 0.61049 0.0
H2135 H 0.21836 0.88435 0.6253 0.0
H2136 H 0.22718 0.82726 0.56656 0.0
H2137 H 0.21488 0.8099 0.58742 0.0
H2138 H 0.24233 0.82764 0.58819 0.0
H2139 H 0.18635 0.87187 0.60896 0.0
H2140 H 0.17189 0.8436 0.60807 0.0
H2141 H 0.18118 0.857 0.5842 0.0
H2142 H 0.26964 0.89001 0.44056 0.0
H2143 H 0.25217 0.86566 0.46318 0.0
H2144 H 0.20963 0.8849 0.45423 0.0
H2145 H 0.22844 0.83161 0.50103 0.0
H2146 H 0.24279 0.83394 0.47781 0.0
H2147 H 0.21579 0.81424 0.47849 0.0
H2148 H 0.17669 0.86706 0.46848 0.0
H2149 H 0.17395 0.85266 0.49142 0.0
H2150 H 0.16552 0.83907 0.46617 0.0
H2151 H 0.07556 0.70683 0.45797 0.0
H2152 H 0.05533 0.67043 0.44277 0.0
H2153 H 0.07818 0.67573 0.45621 0.0
H2154 H 0.07711 0.67463 0.42786 0.0
H2155 H 0.13893 0.72606 0.45298 0.0
H2156 H 0.09448 0.74357 0.4555 0.0
H2157 H 0.1723 0.76206 0.49236 0.0
H2158 H 0.18161 0.7744 0.46798 0.0
H2159 H 0.17149 0.74672 0.46931 0.0
H2160 H 0.10177 0.77592 0.47068 0.0
H2161 H 0.1285 0.79667 0.47232 0.0
H2162 H 0.11633 0.78185 0.49483 0.0
H2163 H 0.17457 0.80727 0.60685 0.0
H2164 H 0.21509 0.85671 0.55539 0.0
H2165 H 0.21419 0.85672 0.5178 0.0
H2166 H 0.17263 0.8061 0.4624 0.0
H2167 H 0.12984 0.75805 0.51411 0.0
H2168 H 0.12971 0.75881 0.55177 0.0
H2169 H 0.29539 0.92113 0.46339 0.0
H2170 H 0.27339 0.90368 0.47822 0.0
H2171 H 0.27638 0.92753 0.46949 0.0
C2172 C 0.12901 0.3775 0.66269 0.0
C2173 C 0.11456 0.37205 0.64375 0.0
C2174 C 0.13287 0.36533 0.61573 0.0
C2175 C 0.14843 0.38639 0.61322 0.0
C2176 C 0.16495 0.3915 0.60007 0.0
C2177 C 0.16602 0.37529 0.58932 0.0
C2178 C 0.15022 0.35412 0.59152 0.0
C2179 C 0.13375 0.34946 0.60455 0.0
C2180 C 0.18147 0.41426 0.59793 0.0
C2181 C 0.15098 0.3364 0.58049 0.0
C2182 C 0.28608 0.40489 0.67261 0.0
C2183 C 0.27659 0.39039 0.6529 0.0
C2184 C 0.26676 0.3987 0.62031 0.0
C2185 C 0.25152 0.37823 0.6134 0.0
C2186 C 0.2366 0.37473 0.59848 0.0
C2187 C 0.23682 0.39206 0.59056 0.0
C2188 C 0.25268 0.41273 0.5969 0.0
C2189 C 0.2677 0.41575 0.61144 0.0
C2190 C 0.22024 0.3525 0.59167 0.0
C2191 C 0.25328 0.4316 0.58903 0.0
C2192 C 0.27634 0.41029 0.45498 0.0
C2193 C 0.26263 0.38936 0.45993 0.0
C2194 C 0.24458 0.38364 0.47068 0.0
C2195 C 0.24032 0.3992 0.47677 0.0
C2196 C 0.25389 0.42018 0.47133 0.0
C2197 C 0.27161 0.42537 0.46027 0.0
C2198 C 0.23012 0.36101 0.47563 0.0
C2199 C 0.24978 0.43716 0.47742 0.0
C2200 C 0.10069 0.38676 0.46295 0.0
C2201 C 0.10904 0.38348 0.4422 0.0
C2202 C 0.13377 0.37484 0.45449 0.0
C2203 C 0.13674 0.35836 0.45711 0.0
C2204 C 0.15413 0.36165 0.46776 0.0
C2205 C 0.16899 0.38202 0.47589 0.0
C2206 C 0.16642 0.39893 0.47281 0.0
C2207 C 0.14882 0.39519 0.46218 0.0
C2208 C 0.15645 0.34329 0.47073 0.0
C2209 C 0.18211 0.42089 0.48111 0.0
C2210 C 0.18433 0.3804 0.57693 0.0
C2211 C 0.20153 0.38387 0.58788 0.0
C2212 C 0.21933 0.38853 0.57746 0.0
C2213 C 0.2201 0.38975 0.55537 0.0
C2214 C 0.23768 0.39423 0.54433 0.0
C2215 C 0.23834 0.39567 0.5226 0.0
C2216 C 0.2213 0.39232 0.51103 0.0
C2217 C 0.22175 0.39363 0.48892 0.0
C2218 C 0.20449 0.39012 0.47794 0.0
C2219 C 0.18673 0.38546 0.48846 0.0
C2220 C 0.18601 0.38421 0.51055 0.0
C2221 C 0.16841 0.37972 0.52162 0.0
C2222 C 0.16785 0.37857 0.54336 0.0
C2223 C 0.18481 0.38172 0.55486 0.0
C2224 C 0.20275 0.38636 0.54404 0.0
C2225 C 0.20335 0.3876 0.52185 0.0
C2226 C 0.32818 0.42445 0.44813 0.0
C2227 C 0.3055 0.40722 0.44591 0.0
O2228 O 0.11693 0.35952 0.62885 0.0
O2229 O 0.11614 0.37025 0.44471 0.0
O2230 O 0.29416 0.41651 0.44505 0.0
O2231 O 0.28053 0.40254 0.63574 0.0
H2232 H 0.11796 0.38674 0.63666 0.0
H2233 H 0.1452 0.38662 0.65786 0.0
H2234 H 0.12607 0.36299 0.66978 0.0
H2235 H 0.12681 0.38719 0.67479 0.0
H2236 H 0.14798 0.39894 0.62157 0.0
H2237 H 0.12166 0.33328 0.60648 0.0
H2238 H 0.19589 0.41749 0.60536 0.0
H2239 H 0.17737 0.42507 0.60548 0.0
H2240 H 0.18445 0.41766 0.58107 0.0
H2241 H 0.13784 0.32075 0.58444 0.0
H2242 H 0.16541 0.33748 0.58486 0.0
H2243 H 0.15089 0.33773 0.56322 0.0
H2244 H 0.25979 0.38055 0.65545 0.0
H2245 H 0.28291 0.39554 0.68669 0.0
H2246 H 0.27938 0.41468 0.67497 0.0
H2247 H 0.30291 0.41544 0.6711 0.0
H2248 H 0.25116 0.36499 0.61978 0.0
H2249 H 0.27971 0.43148 0.61673 0.0
H2250 H 0.21804 0.3509 0.57432 0.0
H2251 H 0.20551 0.34856 0.59875 0.0
H2252 H 0.224 0.341 0.59663 0.0
H2253 H 0.26608 0.44658 0.59631 0.0
H2254 H 0.23865 0.43053 0.59246 0.0
H2255 H 0.25502 0.43192 0.57173 0.0
H2256 H 0.30166 0.39796 0.4602 0.0
H2257 H 0.26587 0.37746 0.45526 0.0
H2258 H 0.28217 0.44141 0.45613 0.0
H2259 H 0.22967 0.35956 0.49291 0.0
H2260 H 0.23474 0.35054 0.46829 0.0
H2261 H 0.21437 0.35558 0.47007 0.0
H2262 H 0.26253 0.45294 0.47326 0.0
H2263 H 0.24735 0.43743 0.4946 0.0
H2264 H 0.23558 0.43375 0.46931 0.0
H2265 H 0.12172 0.3989 0.43704 0.0
H2266 H 0.09469 0.39708 0.4608 0.0
H2267 H 0.11296 0.39437 0.47526 0.0
H2268 H 0.08819 0.3715 0.46854 0.0
H2269 H 0.12514 0.34275 0.45106 0.0
H2270 H 0.14695 0.40822 0.46018 0.0
H2271 H 0.15692 0.34107 0.48777 0.0
H2272 H 0.17114 0.34657 0.4641 0.0
H2273 H 0.14373 0.32849 0.46309 0.0
H2274 H 0.17836 0.43254 0.47663 0.0
H2275 H 0.19742 0.42563 0.47505 0.0
H2276 H 0.18311 0.42126 0.49852 0.0
H2277 H 0.20106 0.38291 0.60484 0.0
H2278 H 0.25118 0.39679 0.55241 0.0
H2279 H 0.25236 0.39936 0.51497 0.0
H2280 H 0.20493 0.39115 0.461 0.0
H2281 H 0.15485 0.37706 0.51361 0.0
H2282 H 0.15393 0.37514 0.55105 0.0
H2283 H 0.33764 0.41744 0.44914 0.0
H2284 H 0.33089 0.43434 0.46272 0.0
H2285 H 0.33312 0.43464 0.43452 0.0
C2286 C 0.9817 0.36942 0.08614 0.0
C2287 C 0.99657 0.37515 0.07068 0.0
H2288 H 0.97214 0.37931 0.11352 0.0
C2289 C 0.01352 0.39591 0.07109 0.0
H2290 H 0.9685 0.35355 0.08628 0.0
C2291 C 0.01555 0.41061 0.08663 0.0
C2292 C 0.00063 0.40492 0.10201 0.0
H2293 H 0.0253 0.40083 0.05947 0.0
H2294 H 0.02885 0.42644 0.0867 0.0
C2295 C 0.98374 0.38415 0.10169 0.0
C2296 C 0.64547 0.59747 0.05672 0.0
C2297 C 0.64119 0.61332 0.05979 0.0
H2298 H 0.64025 0.56833 0.06702 0.0
C2299 C 0.62857 0.61207 0.07637 0.0
H2300 H 0.65523 0.59808 0.04414 0.0
C2301 C 0.62016 0.59523 0.08942 0.0
C2302 C 0.62382 0.57897 0.08598 0.0
H2303 H 0.62518 0.62414 0.07935 0.0
H2304 H 0.61063 0.59482 0.10216 0.0
C2305 C 0.63685 0.58044 0.06973 0.0
C2306 C 0.40806 0.06335 0.07318 0.0
C2307 C 0.39179 0.04338 0.06613 0.0
H2308 H 0.43388 0.08103 0.09433 0.0
C2309 C 0.38904 0.02562 0.07562 0.0
H2310 H 0.41051 0.07735 0.0663 0.0
C2311 C 0.40243 0.02774 0.09153 0.0
C2312 C 0.41897 0.04765 0.09827 0.0
H2313 H 0.37661 0.00999 0.07065 0.0
H2314 H 0.39994 0.01377 0.09852 0.0
C2315 C 0.42147 0.06547 0.08916 0.0
C2316 C 0.3967 0.0274 0.95823 0.0
C2317 C 0.37917 0.01199 0.96828 0.0
H2318 H 0.41924 0.03392 0.93502 0.0
C2319 C 0.37082 0.99076 0.96215 0.0
H2320 H 0.40342 0.0439 0.96245 0.0
C2321 C 0.38001 0.98506 0.94654 0.0
C2322 C 0.39779 0.00046 0.93684 0.0
H2323 H 0.35725 0.97852 0.9695 0.0
H2324 H 0.37326 0.9686 0.94208 0.0
C2325 C 0.40583 0.0217 0.94259 0.0
C2326 C 0.99448 0.3776 0.95215 0.0
C2327 C 0.01005 0.37819 0.96401 0.0
H2328 H 0.9869 0.39012 0.92689 0.0
C2329 C 0.03055 0.39206 0.95875 0.0
H2330 H 0.97852 0.36688 0.95561 0.0
C2331 C 0.03536 0.40564 0.94242 0.0
C2332 C 0.01977 0.40556 0.93108 0.0
H2333 H 0.04288 0.39278 0.96755 0.0
H2334 H 0.05127 0.41641 0.93882 0.0
C2335 C 0.99926 0.39097 0.93574 0.0
C2336 C 0.62052 0.61904 0.95094 0.0
C2337 C 0.62441 0.63272 0.96852 0.0
H2338 H 0.60138 0.60237 0.92394 0.0
C2339 C 0.61132 0.6401 0.97228 0.0
H2340 H 0.63041 0.61322 0.94747 0.0
C2341 C 0.59452 0.63371 0.95883 0.0
C2342 C 0.59048 0.61976 0.94144 0.0
H2343 H 0.61399 0.65075 0.98565 0.0
H2344 H 0.58467 0.63963 0.96201 0.0
C2345 C 0.60385 0.61276 0.93748 0.0
C2346 C 0.03712 0.63305 0.97134 0.0
C2347 C 0.02009 0.63507 0.97012 0.0
H2348 H 0.05796 0.62735 0.95453 0.0
C2349 C 0.01031 0.6317 0.95049 0.0
H2350 H 0.04505 0.63563 0.9862 0.0
C2351 C 0.0176 0.62677 0.93244 0.0
C2352 C 0.03475 0.625 0.9336 0.0
H2353 H 0.99717 0.63315 0.94897 0.0
H2354 H 0.01004 0.62472 0.91746 0.0
C2355 C 0.04446 0.6282 0.95324 0.0
C2356 C 0.36344 0.39187 0.93184 0.0
C2357 C 0.35958 0.39537 0.95273 0.0
H2358 H 0.36776 0.40187 0.90029 0.0
C2359 C 0.35852 0.41308 0.95797 0.0
H2360 H 0.36435 0.37838 0.92726 0.0
C2361 C 0.36065 0.42662 0.94252 0.0
C2362 C 0.36379 0.42267 0.92151 0.0
H2363 H 0.35564 0.41627 0.97394 0.0
H2364 H 0.35932 0.43989 0.94687 0.0
C2365 C 0.3654 0.40531 0.91638 0.0
C2366 C 0.62271 0.00041 0.93935 0.0
C2367 C 0.61828 0.98872 0.95733 0.0
H2368 H 0.61352 0.00143 0.90802 0.0
C2369 C 0.59998 0.96897 0.95765 0.0
H2370 H 0.63667 0.01568 0.93858 0.0
C2371 C 0.58661 0.96092 0.94017 0.0
C2372 C 0.59139 0.97237 0.92197 0.0
H2373 H 0.59607 0.95963 0.9713 0.0
H2374 H 0.57273 0.94555 0.94069 0.0
C2375 C 0.60946 0.99227 0.92183 0.0
C2376 C 0.63298 0.02036 0.07513 0.0
C2377 C 0.6357 0.03038 0.05625 0.0
H2378 H 0.62651 0.01968 0.10793 0.0
C2379 C 0.63328 0.04758 0.05617 0.0
H2380 H 0.63473 0.00708 0.07578 0.0
C2381 C 0.62858 0.05479 0.07465 0.0
C2382 C 0.62586 0.04472 0.09351 0.0
H2383 H 0.63538 0.05571 0.04192 0.0
H2384 H 0.62736 0.06842 0.07427 0.0
C2385 C 0.62814 0.02747 0.09354 0.0
C2386 C 0.95968 0.60283 0.0657 0.0
C2387 C 0.97901 0.62152 0.06782 0.0
H2388 H 0.93598 0.57591 0.0808 0.0
C2389 C 0.98968 0.62693 0.0872 0.0
H2390 H 0.95112 0.59816 0.05095 0.0
C2391 C 0.98092 0.61432 0.10429 0.0
C2392 C 0.96141 0.5959 0.10231 0.0
H2393 H 0.0046 0.64121 0.08937 0.0
H2394 H 0.98927 0.61917 0.11917 0.0
C2395 C 0.95101 0.59009 0.08275 0.0
C2396 C 0.38364 0.37083 0.06605 0.0
C2397 C 0.39013 0.37046 0.04545 0.0
H2398 H 0.38841 0.36937 0.09883 0.0
C2399 C 0.40781 0.36976 0.04245 0.0
H2400 H 0.37008 0.37134 0.06893 0.0
C2401 C 0.41827 0.3686 0.05963 0.0
C2402 C 0.41141 0.36838 0.08016 0.0
H2403 H 0.41316 0.36936 0.02679 0.0
H2404 H 0.43138 0.36727 0.05683 0.0
C2405 C 0.39414 0.36974 0.08319 0.0
C2406 C 0.66478 0.72343 0.4048 0.0
C2407 C 0.65378 0.70931 0.38775 0.0
H2408 H 0.66402 0.74096 0.4318 0.0
C2409 C 0.63298 0.70214 0.38486 0.0
H2410 H 0.68077 0.72911 0.40758 0.0
C2411 C 0.62343 0.70908 0.39868 0.0
C2412 C 0.63451 0.72339 0.41558 0.0
H2413 H 0.62406 0.69116 0.37194 0.0
H2414 H 0.60736 0.70325 0.3962 0.0
C2415 C 0.65522 0.73028 0.41864 0.0
C2416 C 0.3005 0.93569 0.40035 0.0
C2417 C 0.29095 0.94623 0.39451 0.0
H2418 H 0.30021 0.91363 0.42057 0.0
C2419 C 0.27347 0.94258 0.4052 0.0
H2420 H 0.31404 0.93823 0.39245 0.0
C2421 C 0.26572 0.9287 0.42144 0.0
C2422 C 0.27497 0.91773 0.42696 0.0
H2423 H 0.26592 0.95067 0.40123 0.0
H2424 H 0.25246 0.92655 0.42964 0.0
C2425 C 0.29256 0.92156 0.41637 0.0
C2426 C 0.0749 0.37847 0.39636 0.0
C2427 C 0.06005 0.35684 0.39512 0.0
H2428 H 0.1019 0.40369 0.41209 0.0
C2429 C 0.06141 0.3439 0.4093 0.0
H2430 H 0.07427 0.3889 0.38572 0.0
C2431 C 0.07727 0.35241 0.42438 0.0
C2432 C 0.09226 0.374 0.42542 0.0
H2433 H 0.05015 0.3272 0.40886 0.0
H2434 H 0.07779 0.34213 0.43531 0.0
C2435 C 0.09078 0.38695 0.41138 0.0
C2436 C 0.03232 0.31304 0.28686 0.0
C2437 C 0.0485 0.32906 0.2994 0.0
H2438 H 0.02317 0.29047 0.26123 0.0
C2439 C 0.06857 0.33463 0.29506 0.0
H2440 H 0.01662 0.3081 0.29002 0.0
C2441 C 0.07243 0.32469 0.2783 0.0
C2442 C 0.05634 0.3091 0.26518 0.0
H2443 H 0.08138 0.3467 0.30462 0.0
H2444 H 0.08811 0.32928 0.27567 0.0
C2445 C 0.03615 0.30299 0.27016 0.0
C2446 C 0.70527 0.73436 0.29217 0.0
C2447 C 0.68401 0.71988 0.29135 0.0
H2448 H 0.73074 0.7617 0.27938 0.0
C2449 C 0.67207 0.72187 0.27623 0.0
H2450 H 0.71491 0.7332 0.30358 0.0
C2451 C 0.68113 0.73814 0.26244 0.0
C2452 C 0.70231 0.75297 0.26362 0.0
H2453 H 0.65568 0.71089 0.27504 0.0
H2454 H 0.67155 0.73923 0.25089 0.0
C2455 C 0.71433 0.75072 0.2784 0.0
C2456 C 0.28244 0.95149 0.27974 0.0
C2457 C 0.28581 0.96448 0.29778 0.0
H2458 H 0.26448 0.93642 0.25166 0.0
C2459 C 0.27309 0.97237 0.30118 0.0
H2460 H 0.2921 0.94534 0.27653 0.0
C2461 C 0.25707 0.96702 0.28701 0.0
C2462 C 0.25344 0.95367 0.26921 0.0
H2463 H 0.27537 0.9825 0.3149 0.0
H2464 H 0.24743 0.97324 0.29 0.0
C2465 C 0.26657 0.94631 0.26552 0.0
C2466 C 0.72805 0.96946 0.31527 0.0
C2467 C 0.71129 0.97148 0.3115 0.0
H2468 H 0.75394 0.96987 0.30219 0.0
C2469 C 0.70724 0.9744 0.29088 0.0
H2470 H 0.73161 0.96724 0.33096 0.0
C2471 C 0.71995 0.97586 0.27452 0.0
C2472 C 0.73692 0.97427 0.27831 0.0
H2473 H 0.69446 0.976 0.28737 0.0
H2474 H 0.71673 0.97865 0.25892 0.0
C2475 C 0.74079 0.97091 0.29882 0.0
C2476 C 0.03052 0.72622 0.26942 0.0
C2477 C 0.02601 0.72983 0.29 0.0
H2478 H 0.03539 0.73575 0.23768 0.0
C2479 C 0.02446 0.74736 0.29452 0.0
H2480 H 0.03183 0.71288 0.26539 0.0
C2481 C 0.02669 0.76055 0.27865 0.0
C2482 C 0.03039 0.75643 0.25791 0.0
H2483 H 0.0211 0.75064 0.31023 0.0
H2484 H 0.02495 0.77366 0.28243 0.0
C2485 C 0.03257 0.73931 0.25353 0.0
C2486 C 0.27401 0.31964 0.27275 0.0
C2487 C 0.27077 0.31148 0.29278 0.0
H2488 H 0.26427 0.31399 0.24042 0.0
C2489 C 0.25364 0.29132 0.29571 0.0
H2490 H 0.28704 0.33512 0.26994 0.0
C2491 C 0.24047 0.27931 0.27878 0.0
C2492 C 0.24429 0.28714 0.25856 0.0
H2493 H 0.25066 0.28462 0.31096 0.0
H2494 H 0.22764 0.26365 0.28133 0.0
C2495 C 0.26098 0.30756 0.25581 0.0
C2496 C 0.30072 0.36306 0.40972 0.0
C2497 C 0.29992 0.36969 0.38969 0.0
H2498 H 0.30294 0.36965 0.44302 0.0
C2499 C 0.29951 0.388 0.38821 0.0
H2500 H 0.30108 0.34905 0.41145 0.0
C2501 C 0.30058 0.39978 0.40635 0.0
C2502 C 0.30182 0.39335 0.42634 0.0
H2503 H 0.29898 0.39359 0.37303 0.0
H2504 H 0.30097 0.41422 0.40474 0.0
C2505 C 0.30172 0.3748 0.42782 0.0
C2506 C 0.63188 0.93116 0.39936 0.0
C2507 C 0.65023 0.95043 0.40404 0.0
H2508 H 0.60499 0.90472 0.41141 0.0
C2509 C 0.6563 0.95685 0.4252 0.0
H2510 H 0.6267 0.92575 0.38324 0.0
C2511 C 0.64388 0.9447 0.44131 0.0
C2512 C 0.62521 0.92582 0.43662 0.0
H2513 H 0.67032 0.97161 0.42936 0.0
H2514 H 0.64856 0.95037 0.45749 0.0
C2515 C 0.61944 0.91905 0.41548 0.0
C2516 C 0.07237 0.71327 0.38693 0.0
C2517 C 0.05346 0.71173 0.38849 0.0
H2518 H 0.09575 0.71155 0.40281 0.0
C2519 C 0.04463 0.70932 0.40834 0.0
H2520 H 0.07952 0.71498 0.37185 0.0
C2521 C 0.05403 0.70755 0.42606 0.0
C2522 C 0.07247 0.70819 0.42436 0.0
H2523 H 0.03007 0.70807 0.41008 0.0
H2524 H 0.04651 0.70491 0.44102 0.0
C2525 C 0.08169 0.71132 0.40465 0.0
C2526 C 0.31864 0.04923 0.7303 0.0
C2527 C 0.30997 0.04446 0.70992 0.0
H2528 H 0.31711 0.0585 0.76223 0.0
C2529 C 0.29267 0.04556 0.70622 0.0
H2530 H 0.332 0.04855 0.73366 0.0
C2531 C 0.28405 0.05105 0.72264 0.0
C2532 C 0.29268 0.05576 0.74303 0.0
H2533 H 0.28558 0.0419 0.69071 0.0
H2534 H 0.27057 0.05153 0.71939 0.0
C2535 C 0.31013 0.0549 0.74667 0.0
C2536 C 0.93075 0.25136 0.72139 0.0
C2537 C 0.95802 0.26813 0.7181 0.0
H2538 H 0.90412 0.21814 0.73836 0.0
C2539 C 0.9757 0.26107 0.72671 0.0
H2540 H 0.92059 0.2557 0.71525 0.0
C2541 C 0.96672 0.23745 0.74045 0.0
C2542 C 0.93954 0.22423 0.74853 0.0
H2543 H 0.99184 0.27113 0.72371 0.0
H2544 H 0.97735 0.23407 0.74734 0.0
C2545 C 0.92023 0.22744 0.73488 0.0
C2546 C 0.72991 0.68142 0.74312 0.0
C2547 C 0.72861 0.69357 0.72791 0.0
H2548 H 0.74663 0.68074 0.7694 0.0
C2549 C 0.74384 0.71504 0.72774 0.0
H2550 H 0.71835 0.66488 0.74381 0.0
C2551 C 0.76017 0.72407 0.74232 0.0
C2552 C 0.76164 0.71181 0.75728 0.0
H2553 H 0.74324 0.72484 0.71626 0.0
H2554 H 0.77169 0.74065 0.74189 0.0
C2555 C 0.74615 0.69046 0.75773 0.0
C2556 C 0.74484 0.66678 0.63815 0.0
C2557 C 0.71799 0.6575 0.63989 0.0
H2558 H 0.7693 0.65912 0.61931 0.0
C2559 C 0.69839 0.6333 0.62663 0.0
H2560 H 0.75606 0.68088 0.64703 0.0
C2561 C 0.70515 0.61818 0.60973 0.0
C2562 C 0.73291 0.63167 0.60398 0.0
H2563 H 0.68244 0.62786 0.62872 0.0
H2564 H 0.69366 0.60475 0.60023 0.0
C2565 C 0.75321 0.65284 0.62172 0.0
C2566 C 0.34157 0.05713 0.6026 0.0
C2567 C 0.35344 0.05793 0.61967 0.0
H2568 H 0.34031 0.07213 0.57544 0.0
C2569 C 0.37382 0.07492 0.62208 0.0
H2570 H 0.32585 0.04424 0.60024 0.0
C2571 C 0.38206 0.09088 0.60787 0.0
C2572 C 0.37007 0.09028 0.59106 0.0
H2573 H 0.38341 0.07597 0.635 0.0
H2574 H 0.39781 0.10377 0.6101 0.0
C2575 C 0.3498 0.07311 0.58843 0.0
C2576 C 0.95124 0.27741 0.61626 0.0
C2577 C 0.95546 0.29378 0.63098 0.0
H2578 H 0.93394 0.259 0.58882 0.0
C2579 C 0.94504 0.30425 0.62904 0.0
H2580 H 0.95913 0.26916 0.61722 0.0
C2581 C 0.93047 0.29826 0.61297 0.0
C2582 C 0.92591 0.28163 0.59851 0.0
H2583 H 0.94799 0.317 0.64004 0.0
H2584 H 0.92267 0.30661 0.61185 0.0
C2585 C 0.93675 0.27153 0.60007 0.0
C2586 C 0.38379 0.3095 0.63589 0.0
C2587 C 0.3649 0.30792 0.63383 0.0
H2588 H 0.40902 0.31086 0.62008 0.0
C2589 C 0.3563 0.30499 0.61361 0.0
H2590 H 0.39085 0.31178 0.65123 0.0
C2591 C 0.36671 0.30444 0.59582 0.0
C2592 C 0.38585 0.30663 0.59787 0.0
H2593 H 0.34179 0.30373 0.61144 0.0
H2594 H 0.36004 0.30285 0.58041 0.0
C2595 C 0.39418 0.30892 0.61809 0.0
C2596 C 0.70095 0.07474 0.61388 0.0
C2597 C 0.70005 0.05596 0.60849 0.0
H2598 H 0.70243 0.10189 0.60283 0.0
C2599 C 0.70147 0.05103 0.58725 0.0
H2600 H 0.69986 0.079 0.63008 0.0
C2601 C 0.70302 0.06422 0.57168 0.0
C2602 C 0.70334 0.08267 0.57703 0.0
H2603 H 0.70079 0.03669 0.58255 0.0
H2604 H 0.70344 0.05973 0.55537 0.0
C2605 C 0.70248 0.0879 0.5983 0.0
C2606 C 0.91937 0.63294 0.61956 0.0
C2607 C 0.9383 0.65097 0.61514 0.0
H2608 H 0.89143 0.60614 0.60707 0.0
C2609 C 0.94279 0.65654 0.59416 0.0
H2610 H 0.91542 0.62819 0.63555 0.0
C2611 C 0.92902 0.64389 0.5779 0.0
C2612 C 0.91041 0.62554 0.58228 0.0
H2613 H 0.95723 0.67029 0.59019 0.0
H2614 H 0.93317 0.64816 0.56182 0.0
C2615 C 0.9056 0.62032 0.60329 0.0
C2616 C 0.95924 0.68647 0.75121 0.0
C2617 C 0.96297 0.69317 0.73054 0.0
H2618 H 0.9594 0.69488 0.78382 0.0
C2619 C 0.96856 0.71379 0.72695 0.0
H2620 H 0.95495 0.6707 0.75454 0.0
C2621 C 0.97087 0.72757 0.74376 0.0
C2622 C 0.96787 0.72106 0.76449 0.0
H2623 H 0.97146 0.71941 0.7112 0.0
H2624 H 0.9755 0.74348 0.74063 0.0
C2625 C 0.9618 0.70031 0.76801 0.0
C2626 C 0.29168 0.266 0.72572 0.0
C2627 C 0.31161 0.28343 0.72967 0.0
H2628 H 0.26492 0.24 0.73857 0.0
C2629 C 0.32023 0.28723 0.75001 0.0
H2630 H 0.28462 0.26258 0.71022 0.0
C2631 C 0.30889 0.27439 0.76622 0.0
C2632 C 0.28877 0.25734 0.76241 0.0
H2633 H 0.33554 0.30052 0.75359 0.0
H2634 H 0.31569 0.27807 0.78188 0.0
C2635 C 0.2804 0.25305 0.74192 0.0
C2636 C 0.73518 0.0365 0.71784 0.0
C2637 C 0.72167 0.04341 0.7213 0.0
H2638 H 0.75709 0.03095 0.73141 0.0
C2639 C 0.72087 0.05124 0.74151 0.0
H2640 H 0.73626 0.0305 0.70242 0.0
C2641 C 0.73261 0.05125 0.75811 0.0
C2642 C 0.74556 0.04365 0.75482 0.0
H2643 H 0.71068 0.05673 0.74471 0.0
H2644 H 0.7312 0.05675 0.77365 0.0
C2645 C 0.7471 0.03674 0.73441 0.0
C2646 C 0.0306 0.28584 0.0154 0.0
C2647 C 0.03399 0.30969 0.0274 0.0
H2648 H 0.03922 0.25831 0.02082 0.0
C2649 C 0.04507 0.31945 0.05347 0.0
H2650 H 0.02292 0.27989 0.00024 0.0
C2651 C 0.05456 0.30638 0.06798 0.0
C2652 C 0.05592 0.28564 0.05243 0.0
H2653 H 0.04582 0.33315 0.06059 0.0
H2654 H 0.06256 0.31291 0.08293 0.0
C2655 C 0.03962 0.27159 0.02859 0.0
C2656 C 0.70768 0.7258 0.05927 0.0
C2657 C 0.68033 0.71133 0.05464 0.0
H2658 H 0.73653 0.75882 0.07785 0.0
C2659 C 0.66406 0.71841 0.06811 0.0
H2660 H 0.71681 0.7206 0.0515 0.0
C2661 C 0.67489 0.74137 0.08571 0.0
C2662 C 0.70331 0.75872 0.08499 0.0
H2663 H 0.64766 0.70884 0.06556 0.0
H2664 H 0.66549 0.74669 0.09258 0.0
C2665 C 0.72002 0.74902 0.0765 0.0
C2666 C 0.2747 0.97249 0.03794 0.0
C2667 C 0.28349 0.962 0.02841 0.0
H2668 H 0.24792 0.96999 0.05081 0.0
C2669 C 0.27139 0.9401 0.02494 0.0
H2670 H 0.28352 0.98938 0.04074 0.0
C2671 C 0.25091 0.92895 0.03091 0.0
C2672 C 0.24214 0.93953 0.04031 0.0
H2673 H 0.27772 0.93159 0.01762 0.0
H2674 H 0.24186 0.91207 0.02809 0.0
C2675 C 0.25427 0.9614 0.04371 0.0
C2676 C 0.3033 0.03741 0.97487 0.0
C2677 C 0.32129 0.04624 0.98725 0.0
H2678 H 0.28127 0.04205 0.96034 0.0
C2679 C 0.3316 0.06763 0.99362 0.0
H2680 H 0.29495 0.02098 0.96969 0.0
C2681 C 0.3238 0.07982 0.98802 0.0
C2682 C 0.30539 0.07074 0.97624 0.0
H2683 H 0.34555 0.0749 0.00308 0.0
H2684 H 0.33196 0.09625 0.99317 0.0
C2685 C 0.2954 0.04948 0.96953 0.0
C2686 C 0.9417 0.25983 0.01526 0.0
C2687 C 0.95048 0.28671 0.01028 0.0
H2688 H 0.91415 0.22239 0.00413 0.0
C2689 C 0.93594 0.29347 0.99408 0.0
H2690 H 0.95061 0.25645 0.02543 0.0
C2691 C 0.91269 0.27334 0.98084 0.0
C2692 C 0.90778 0.24642 0.9817 0.0
H2693 H 0.94151 0.30977 0.99182 0.0
H2694 H 0.90502 0.27723 0.96952 0.0
C2695 C 0.91862 0.23852 0.00271 0.0
C2696 C 0.72709 0.71346 0.9585 0.0
C2697 C 0.71696 0.68841 0.96993 0.0
H2698 H 0.75445 0.73828 0.93411 0.0
C2699 C 0.72516 0.67078 0.96186 0.0
H2700 H 0.72123 0.72323 0.96316 0.0
C2701 C 0.74507 0.67838 0.94297 0.0
C2702 C 0.75876 0.70655 0.93655 0.0
H2703 H 0.71813 0.65555 0.96845 0.0
H2704 H 0.75124 0.6687 0.93926 0.0
C2705 C 0.74706 0.72255 0.93958 0.0
C2706 C 0.97379 0.70433 0.97362 0.0
C2707 C 0.96385 0.68596 0.9849 0.0
H2708 H 0.97509 0.73231 0.96589 0.0
C2709 C 0.94582 0.68074 0.99542 0.0
H2710 H 0.98779 0.70891 0.96544 0.0
C2711 C 0.93846 0.69412 0.99549 0.0
C2712 C 0.94892 0.71294 0.98501 0.0
H2713 H 0.93784 0.66676 0.00432 0.0
H2714 H 0.92498 0.69017 0.00441 0.0
C2715 C 0.96653 0.71778 0.97384 0.0
C2716 C 0.32396 0.27987 0.00171 0.0
C2717 C 0.32209 0.29513 0.99202 0.0
H2718 H 0.31092 0.24713 0.00577 0.0
C2719 C 0.30624 0.2886 0.97704 0.0
H2720 H 0.33597 0.28437 0.01333 0.0
C2721 C 0.29185 0.26727 0.97283 0.0
C2722 C 0.29322 0.25206 0.98325 0.0
H2723 H 0.30428 0.29994 0.96936 0.0
H2724 H 0.27921 0.26269 0.96203 0.0
C2725 C 0.30963 0.25856 0.99741 0.0
C2726 C 0.73013 0.06598 0.00719 0.0
C2727 C 0.71468 0.04589 0.99945 0.0
H2728 H 0.76204 0.08999 0.00735 0.0
C2729 C 0.71971 0.03505 0.98456 0.0
H2730 H 0.72678 0.07471 0.01871 0.0
C2731 C 0.73989 0.04372 0.97822 0.0
C2732 C 0.75542 0.06364 0.98627 0.0
H2733 H 0.70822 0.01947 0.97838 0.0
H2734 H 0.7434 0.03458 0.96745 0.0
C2735 C 0.75029 0.07475 0.00066 0.0
C2736 C 0.67245 0.94861 0.03302 0.0
C2737 C 0.68106 0.96927 0.04137 0.0
H2738 H 0.67602 0.92241 0.02827 0.0
C2739 C 0.69964 0.97882 0.05289 0.0
H2740 H 0.6582 0.94085 0.02401 0.0
C2741 C 0.70986 0.96834 0.05518 0.0
C2742 C 0.70153 0.9479 0.04636 0.0
H2743 H 0.70678 0.99476 0.05945 0.0
H2744 H 0.7246 0.97649 0.06331 0.0
C2745 C 0.68261 0.93805 0.03548 0.0
C2746 C 0.02592 0.7247 0.03842 0.0
C2747 C 0.03545 0.71881 0.02318 0.0
H2748 H 0.02457 0.74979 0.05376 0.0
C2749 C 0.05278 0.73457 0.01321 0.0
H2750 H 0.01244 0.71298 0.04631 0.0
C2751 C 0.05985 0.75571 0.01771 0.0
C2752 C 0.04976 0.76153 0.03223 0.0
H2753 H 0.06042 0.73056 0.00136 0.0
H2754 H 0.07278 0.76753 0.00923 0.0
C2755 C 0.03286 0.74582 0.04273 0.0
C2756 C 0.26963 0.32891 0.02592 0.0
C2757 C 0.28275 0.32406 0.03568 0.0
H2758 H 0.23867 0.31877 0.01795 0.0
C2759 C 0.27418 0.30562 0.04676 0.0
H2760 H 0.27573 0.34296 0.0172 0.0
C2761 C 0.25299 0.29175 0.04707 0.0
C2762 C 0.23992 0.2962 0.03658 0.0
H2763 H 0.28384 0.30134 0.05438 0.0
H2764 H 0.24685 0.27719 0.05488 0.0
C2765 C 0.24843 0.31508 0.02632 0.0
C2766 C 0.67395 0.62777 0.39673 0.0
C2767 C 0.68829 0.65289 0.38501 0.0
H2768 H 0.67815 0.6042 0.42028 0.0
C2769 C 0.71483 0.67176 0.3919 0.0
H2770 H 0.65788 0.61722 0.39279 0.0
C2771 C 0.72847 0.66544 0.40981 0.0
C2772 C 0.71447 0.6373 0.41643 0.0
H2773 H 0.72265 0.68697 0.38519 0.0
H2774 H 0.74474 0.67591 0.41279 0.0
C2775 C 0.68614 0.61992 0.41472 0.0
C2776 C 0.37322 0.06358 0.37599 0.0
C2777 C 0.34765 0.04532 0.38467 0.0
H2778 H 0.40232 0.10157 0.38088 0.0
C2779 C 0.33621 0.05207 0.40584 0.0
H2780 H 0.37985 0.05868 0.36383 0.0
C2781 C 0.34949 0.07806 0.41817 0.0
C2782 C 0.37296 0.09756 0.40449 0.0
H2783 H 0.32121 0.04043 0.41118 0.0
H2784 H 0.34215 0.08275 0.4297 0.0
C2785 C 0.38779 0.09001 0.38727 0.0
C2786 C 0.95349 0.29335 0.36783 0.0
C2787 C 0.9558 0.30963 0.35586 0.0
H2788 H 0.93268 0.2648 0.38262 0.0
C2789 C 0.93833 0.30979 0.35025 0.0
H2790 H 0.96663 0.29267 0.37224 0.0
C2791 C 0.91896 0.294 0.35642 0.0
C2792 C 0.91661 0.27771 0.36837 0.0
H2793 H 0.93957 0.32206 0.34097 0.0
H2794 H 0.90573 0.29437 0.35165 0.0
C2795 C 0.93406 0.27743 0.37385 0.0
C2796 C 0.01563 0.4078 0.32456 0.0
C2797 C 0.03206 0.40592 0.31819 0.0
H2798 H 0.00263 0.42677 0.32563 0.0
C2799 C 0.04793 0.42201 0.30692 0.0
H2800 H 0.00317 0.39571 0.33329 0.0
C2801 C 0.04754 0.43976 0.30247 0.0
C2802 C 0.03122 0.44173 0.30908 0.0
H2803 H 0.06082 0.42107 0.30181 0.0
H2804 H 0.06017 0.45214 0.29416 0.0
C2805 C 0.01527 0.42555 0.32013 0.0
C2806 C 0.62562 0.60776 0.31193 0.0
C2807 C 0.6169 0.61871 0.32046 0.0
H2808 H 0.621 0.57788 0.30251 0.0
C2809 C 0.59582 0.60755 0.32437 0.0
H2810 H 0.64182 0.61587 0.30876 0.0
C2811 C 0.58392 0.58578 0.32073 0.0
C2812 C 0.59281 0.57477 0.31295 0.0
H2813 H 0.58863 0.61549 0.33097 0.0
H2814 H 0.56788 0.57745 0.32462 0.0
C2815 C 0.61372 0.58602 0.3083 0.0
C2816 C 0.37539 0.97211 0.31316 0.0
C2817 C 0.38224 0.98678 0.3304 0.0
H2818 H 0.38224 0.95416 0.29153 0.0
C2819 C 0.40228 0.99555 0.33831 0.0
H2820 H 0.36002 0.965 0.30672 0.0
C2821 C 0.41502 0.98942 0.3295 0.0
C2822 C 0.40805 0.97449 0.31252 0.0
H2823 H 0.40803 0.00687 0.35158 0.0
H2824 H 0.43022 0.99603 0.33624 0.0
C2825 C 0.38812 0.96595 0.30439 0.0
C2826 C 0.60451 0.95528 0.29952 0.0
C2827 C 0.62799 0.98065 0.2988 0.0
H2828 H 0.56841 0.93426 0.28426 0.0
C2829 C 0.63165 0.99967 0.28026 0.0
H2830 H 0.60319 0.944 0.31031 0.0
C2831 C 0.61118 0.99454 0.26268 0.0
C2832 C 0.58587 0.97094 0.26841 0.0
H2833 H 0.64622 0.01436 0.27975 0.0
H2834 H 0.61264 0.00645 0.2527 0.0
C2835 C 0.5831 0.94861 0.2826 0.0
C2836 C 0.98318 0.62372 0.31882 0.0
C2837 C 0.00055 0.63484 0.3322 0.0
H2838 H 0.95993 0.59376 0.30523 0.0
C2839 C 0.00904 0.62413 0.3405 0.0
H2840 H 0.97618 0.63149 0.31228 0.0
C2841 C -0.00019 0.60258 0.3363 0.0
C2842 C 0.98194 0.59129 0.32369 0.0
H2843 H 0.0224 0.63224 0.35086 0.0
H2844 H 0.00621 0.59455 0.34355 0.0
C2845 C 0.97386 0.60212 0.31476 0.0
C2846 C 0.38366 0.39977 0.3351 0.0
C2847 C 0.36871 0.37897 0.32879 0.0
H2848 H 0.41459 0.42546 0.33208 0.0
C2849 C 0.37353 0.36835 0.31342 0.0
H2850 H 0.38045 0.40835 0.34696 0.0
C2851 C 0.3931 0.37808 0.30508 0.0
C2852 C 0.40814 0.39881 0.31156 0.0
H2853 H 0.36242 0.35223 0.30835 0.0
H2854 H 0.39657 0.36919 0.2939 0.0
C2855 C 0.40317 0.40959 0.32656 0.0
C2856 C 0.36002 0.31399 0.38479 0.0
C2857 C 0.34091 0.30423 0.37426 0.0
H2858 H 0.38584 0.31217 0.39298 0.0
C2859 C 0.33227 0.28368 0.36557 0.0
H2860 H 0.36715 0.32984 0.39161 0.0
C2861 C 0.34296 0.27352 0.36651 0.0
C2862 C 0.36244 0.28364 0.37625 0.0
H2863 H 0.3176 0.27573 0.35732 0.0
H2864 H 0.33634 0.25803 0.35894 0.0
C2865 C 0.37073 0.30387 0.38564 0.0
C2866 C 0.69446 0.05206 0.36812 0.0
C2867 C 0.70649 0.0458 0.35742 0.0
H2868 H 0.69156 0.07774 0.37883 0.0
C2869 C 0.72586 0.0613 0.35051 0.0
H2870 H 0.67948 0.04052 0.37368 0.0
C2871 C 0.73268 0.08253 0.35341 0.0
C2872 C 0.7204 0.08876 0.36346 0.0
H2873 H 0.73553 0.05706 0.34224 0.0
H2874 H 0.74737 0.09409 0.34727 0.0
C2875 C 0.70136 0.07334 0.37111 0.0
C2876 C 0.93446 0.63798 0.37754 0.0
C2877 C 0.94459 0.65707 0.36747 0.0
H2878 H 0.90571 0.61057 0.38461 0.0
C2879 C 0.93289 0.66399 0.35823 0.0
H2880 H 0.94299 0.63215 0.38476 0.0
C2881 C 0.91152 0.65164 0.35826 0.0
C2882 C 0.90142 0.6322 0.36764 0.0
H2883 H 0.9402 0.67859 0.35031 0.0
H2884 H 0.90286 0.65696 0.35035 0.0
C2885 C 0.9131 0.62562 0.37751 0.0
C2886 C 0.3971 0.011 0.70104 0.0
C2887 C 0.37068 0.99789 0.70874 0.0
H2888 H 0.42981 0.0116 0.70741 0.0
C2889 C 0.35935 0.97547 0.72488 0.0
H2890 H 0.40306 0.02375 0.69055 0.0
C2891 C 0.37452 0.9662 0.73523 0.0
C2892 C 0.40251 0.98383 0.73175 0.0
H2893 H 0.34325 0.96746 0.72838 0.0
H2894 H 0.36828 0.95397 0.74636 0.0
C2895 C 0.41362 0.00293 0.7106 0.0
C2896 C 0.98961 0.39269 0.69229 0.0
C2897 C 0.98469 0.37441 0.70231 0.0
H2898 H 0.98343 0.41696 0.68928 0.0
C2899 C 0.97056 0.36763 0.71866 0.0
H2900 H 0.00043 0.39835 0.67965 0.0
C2901 C 0.96083 0.37832 0.72413 0.0
C2902 C 0.96521 0.39613 0.71354 0.0
H2903 H 0.96637 0.35356 0.72665 0.0
H2904 H 0.94936 0.37225 0.73614 0.0
C2905 C 0.97992 0.40338 0.69781 0.0
C2906 C 0.61619 0.60776 0.69939 0.0
C2907 C 0.62911 0.62972 0.70123 0.0
H2908 H 0.58675 0.58084 0.70578 0.0
C2909 C 0.6222 0.6414 0.71208 0.0
H2910 H 0.62104 0.59831 0.6911 0.0
C2911 C 0.60263 0.63141 0.7204 0.0
C2912 C 0.58958 0.60951 0.71828 0.0
H2913 H 0.63171 0.65835 0.71376 0.0
H2914 H 0.59756 0.6409 0.72816 0.0
C2915 C 0.5966 0.59774 0.70782 0.0
C2916 C 0.66744 0.72339 0.64567 0.0
C2917 C 0.65769 0.70165 0.64127 0.0
H2918 H 0.66583 0.75077 0.64354 0.0
C2919 C 0.63904 0.69108 0.62983 0.0
H2920 H 0.68179 0.73198 0.6545 0.0
C2921 C 0.62993 0.70181 0.62364 0.0
C2922 C 0.63937 0.72342 0.62851 0.0
H2923 H 0.63108 0.67434 0.62621 0.0
H2924 H 0.61522 0.6931 0.61547 0.0
C2925 C 0.65834 0.73415 0.63939 0.0
C2926 C 0.26917 0.94879 0.67314 0.0
C2927 C 0.28869 0.96037 0.66446 0.0
H2928 H 0.24195 0.91852 0.67616 0.0
C2929 C 0.2952 0.94998 0.65079 0.0
H2930 H 0.26371 0.95632 0.68375 0.0
C2931 C 0.28277 0.92833 0.64656 0.0
C2932 C 0.2634 0.91668 0.65559 0.0
H2933 H 0.31023 0.95842 0.64398 0.0
H2934 H 0.28853 0.92061 0.63667 0.0
C2935 C 0.25667 0.92717 0.66876 0.0
C2936 C 0.06187 0.3286 0.6614 0.0
C2937 C 0.05227 0.33973 0.66596 0.0
H2938 H 0.08898 0.33002 0.65098 0.0
C2939 C 0.06318 0.36143 0.66318 0.0
H2940 H 0.05396 0.31191 0.66351 0.0
C2941 C 0.08316 0.37174 0.65582 0.0
C2942 C 0.09264 0.36057 0.65095 0.0
H2943 H 0.05628 0.3705 0.66665 0.0
H2944 H 0.09125 0.38849 0.65396 0.0
C2945 C 0.08189 0.33894 0.65412 0.0
C2946 C 0.31374 0.37269 0.64107 0.0
C2947 C 0.30383 0.35298 0.64994 0.0
H2948 H 0.313 0.39998 0.63511 0.0
C2949 C 0.28416 0.34483 0.65798 0.0
H2950 H 0.32895 0.37948 0.63483 0.0
C2951 C 0.275 0.35657 0.65802 0.0
C2952 C 0.28527 0.37662 0.64992 0.0
H2953 H 0.27613 0.32973 0.66499 0.0
H2954 H 0.26018 0.35029 0.66506 0.0
C2955 C 0.30462 0.38445 0.64118 0.0
C2956 C 0.66385 0.94391 0.66523 0.0
C2957 C 0.66058 0.95839 0.65583 0.0
H2958 H 0.65169 0.9117 0.67132 0.0
C2959 C 0.6427 0.95082 0.6435 0.0
H2960 H 0.67742 0.94918 0.67483 0.0
C2961 C 0.62796 0.92932 0.64153 0.0
C2962 C 0.6309 0.91495 0.65166 0.0
H2963 H 0.63966 0.96154 0.6361 0.0
H2964 H 0.61394 0.92398 0.63271 0.0
C2965 C 0.64913 0.92244 0.66322 0.0
C2966 C 0.05193 0.73104 0.66876 0.0
C2967 C 0.03616 0.71141 0.66033 0.0
H2968 H 0.08427 0.75276 0.67256 0.0
C2969 C 0.04129 0.69929 0.64743 0.0
H2970 H 0.04853 0.74077 0.67876 0.0
C2971 C 0.06177 0.7062 0.64389 0.0
C2972 C 0.07754 0.72546 0.653 0.0
H2973 H 0.02952 0.68407 0.64072 0.0
H2974 H 0.06531 0.69614 0.63466 0.0
C2975 C 0.0724 0.73795 0.66519 0.0
C2976 C 0.96966 0.6083 0.70198 0.0
C2977 C 0.98731 0.62859 0.70365 0.0
H2978 H 0.95658 0.57555 0.70609 0.0
C2979 C 0.00554 0.63132 0.71164 0.0
H2980 H 0.95539 0.60566 0.6958 0.0
C2981 C 0.0062 0.61407 0.71744 0.0
C2982 C 0.98856 0.59377 0.71572 0.0
H2983 H 0.01945 0.64673 0.71296 0.0
H2984 H 0.0206 0.61657 0.72299 0.0
C2985 C 0.97029 0.59107 0.70791 0.0
C2986 C 0.35184 0.39133 0.7149 0.0
C2987 C 0.35893 0.37944 0.70487 0.0
H2988 H 0.35788 0.42201 0.72317 0.0
C2989 C 0.37895 0.38987 0.69728 0.0
H2990 H 0.33647 0.38381 0.72086 0.0
C2991 C 0.39123 0.41177 0.69871 0.0
C2992 C 0.38379 0.42366 0.70787 0.0
H2993 H 0.38487 0.38119 0.68943 0.0
H2994 H 0.40628 0.41945 0.69193 0.0
C2995 C 0.3641 0.41322 0.71627 0.0
C2996 C 0.61415 0.98701 0.70819 0.0
C2997 C 0.62855 0.0055 0.69857 0.0
H2998 H 0.58352 0.96803 0.71899 0.0
C2999 C 0.6232 0.02004 0.69396 0.0
H3000 H 0.61773 0.97543 0.71183 0.0
C3001 C 0.60364 0.01583 0.69822 0.0
C3002 C 0.58905 0.99708 0.70726 0.0
H3003 H 0.63393 0.0344 0.68651 0.0
H3004 H 0.59969 0.02699 0.69389 0.0
C3005 C 0.59456 0.98278 0.71234 0.0
loop_
_geom_bond_atom_site_label_1
_geom_bond_atom_site_label_2
_geom_bond_distance
_geom_bond_site_symmetry_2
_ccdc_geom_bond_type
C0 O1 1.160 . S
C0 O7 1.185 . S
O1 C0 1.160 . S
O2 Zn3 1.899 1_656 S
O2 C10 1.284 . S
Zn3 O2 1.899 1_454 S
Zn3 O4 2.032 . S
Zn3 O7 2.086 . S
Zn3 O12 1.977 1_554 S
O4 Zn3 2.032 . S
O4 C8 1.278 1_455 S
C5 O6 1.203 1_455 S
C5 O12 1.267 . S
O6 C5 1.203 1_655 S
O7 C0 1.185 . S
O7 Zn3 2.086 . S
C8 O4 1.278 1_655 S
C8 O9 1.211 . S
O9 C8 1.211 . S
C10 O2 1.284 . S
C10 O11 1.273 1_556 S
O11 C10 1.273 1_554 S
O12 Zn3 1.977 1_556 S
O12 C5 1.267 . S
C13 O14 1.160 . S
C13 O20 1.185 1_556 S
O14 C13 1.160 . S
O15 Zn16 1.899 . S
O15 C23 1.284 . S
Zn16 O15 1.899 . S
Zn16 O17 2.032 1_554 S
Zn16 O20 2.086 . S
Zn16 O25 1.977 . S
O17 Zn16 2.032 1_556 S
O17 C21 1.278 . S
C18 O19 1.203 . S
C18 O25 1.267 . S
O19 C18 1.203 . S
O20 C13 1.185 1_554 S
O20 Zn16 2.086 . S
C21 O17 1.278 . S
C21 O22 1.211 1_556 S
O22 C21 1.211 1_554 S
C23 O15 1.284 . S
C23 O24 1.273 . S
O24 C23 1.273 . S
O25 Zn16 1.977 . S
O25 C18 1.267 . S
C26 O27 1.160 . S
C26 O33 1.185 1_556 S
O27 C26 1.160 . S
O28 Zn29 1.896 1_565 S
O28 C36 1.307 . S
Zn29 O28 1.896 1_545 S
Zn29 O30 2.032 1_554 S
Zn29 O33 2.086 . S
Zn29 O38 1.977 . S
O30 Zn29 2.032 1_556 S
O30 C34 1.278 1_545 S
C31 O32 1.251 . S
C31 O38 1.267 . S
O32 C31 1.251 . S
O33 C26 1.185 1_554 S
O33 Zn29 2.086 . S
C34 O30 1.278 1_565 S
C34 O35 1.211 . S
O35 C34 1.211 . S
C36 O28 1.307 . S
C36 O37 1.273 . S
O37 C36 1.273 . S
O38 Zn29 1.977 . S
O38 C31 1.267 . S
C39 O40 1.160 . S
C39 O46 1.185 1_556 S
O40 C39 1.160 . S
O41 Zn42 1.899 1_455 S
O41 C49 1.284 . S
Zn42 O41 1.899 1_655 S
Zn42 O43 2.032 1_654 S
Zn42 O46 2.086 . S
Zn42 O51 1.977 . S
O43 Zn42 2.032 1_456 S
O43 C47 1.278 . S
C44 O45 1.203 1_655 S
C44 O51 1.267 . S
O45 C44 1.203 1_455 S
O46 C39 1.185 1_554 S
O46 Zn42 2.086 . S
C47 O43 1.278 . S
C47 O48 1.211 . S
O48 C47 1.211 . S
C49 O41 1.284 . S
C49 O50 1.273 . S
O50 C49 1.273 . S
O51 Zn42 1.977 . S
O51 C44 1.267 . S
C52 O53 1.160 . S
C52 O59 1.185 . S
O53 C52 1.160 . S
O54 Zn55 1.872 1_556 S
O54 C62 1.284 . S
Zn55 O54 1.872 1_554 S
Zn55 O56 2.079 . S
Zn55 O59 2.109 . S
Zn55 O64 1.947 1_554 S
O56 Zn55 2.079 . S
O56 C60 1.278 . S
C57 O58 1.203 . S
C57 O64 1.267 . S
O58 C57 1.203 . S
O59 C52 1.185 . S
O59 Zn55 2.109 . S
C60 O56 1.278 . S
C60 O61 1.211 . S
O61 C60 1.211 . S
C62 O54 1.284 . S
C62 O63 1.273 . S
O63 C62 1.273 . S
O64 Zn55 1.947 1_556 S
O64 C57 1.267 . S
C65 O66 1.160 . S
C65 O72 1.185 . S
O66 C65 1.160 . S
O67 Zn68 1.899 1_546 S
O67 C75 1.288 . S
Zn68 O67 1.899 1_564 S
Zn68 O69 2.032 1_565 S
Zn68 O72 2.086 . S
Zn68 O77 1.977 1_554 S
O69 Zn68 2.032 1_545 S
O69 C73 1.278 . S
C70 O71 1.203 1_565 S
C70 O77 1.267 . S
O71 C70 1.203 1_545 S
O72 C65 1.185 . S
O72 Zn68 2.086 . S
C73 O69 1.278 . S
C73 O74 1.211 . S
O74 C73 1.211 . S
C75 O67 1.288 . S
C75 O76 1.261 1_556 S
O76 C75 1.261 1_554 S
O77 Zn68 1.977 1_556 S
O77 C70 1.267 . S
C78 O79 1.160 . S
C78 O85 1.185 . S
O79 C78 1.160 . S
O80 Zn81 1.899 . S
O80 C88 1.284 . S
Zn81 O80 1.899 . S
Zn81 O82 2.032 . S
Zn81 O85 2.086 . S
Zn81 O90 1.977 . S
O82 Zn81 2.032 . S
O82 C86 1.278 . S
C83 O84 1.203 . S
C83 O90 1.267 . S
O84 C83 1.203 . S
O85 C78 1.185 . S
O85 Zn81 2.086 . S
C86 O82 1.278 . S
C86 O87 1.211 . S
O87 C86 1.211 . S
C88 O80 1.284 . S
C88 O89 1.273 . S
O89 C88 1.273 . S
O90 Zn81 1.977 . S
O90 C83 1.267 . S
C91 O92 1.160 1_565 S
C91 O98 1.185 . S
O92 C91 1.160 1_545 S
O93 Zn94 1.899 1_545 S
O93 C101 1.284 . S
Zn94 O93 1.899 1_565 S
Zn94 O95 2.032 . S
Zn94 O98 2.086 . S
Zn94 O103 1.977 . S
O95 Zn94 2.032 . S
O95 C99 1.278 . S
C96 O97 1.203 . S
C96 O103 1.267 . S
O97 C96 1.203 . S
O98 C91 1.185 . S
O98 Zn94 2.086 . S
C99 O95 1.278 . S
C99 O100 1.211 . S
O100 C99 1.211 . S
C101 O93 1.284 . S
C101 O102 1.273 . S
O102 C101 1.273 . S
O103 Zn94 1.977 . S
O103 C96 1.267 . S
C104 O105 1.160 . S
C104 O111 1.185 . S
O105 C104 1.160 . S
O106 Zn107 1.899 . S
O106 C114 1.284 1_455 S
Zn107 O106 1.899 . S
Zn107 O108 2.032 . S
Zn107 O111 2.086 . S
Zn107 O116 1.977 . S
O108 Zn107 2.032 . S
O108 C112 1.278 . S
C109 O110 1.203 . S
C109 O116 1.267 . S
O110 C109 1.203 . S
O111 C104 1.185 . S
O111 Zn107 2.086 . S
C112 O108 1.278 . S
C112 O113 1.211 . S
O113 C112 1.211 . S
C114 O106 1.284 1_655 S
C114 O115 1.244 1_655 S
O115 C114 1.244 1_455 S
O116 Zn107 1.977 . S
O116 C109 1.267 . S
C117 O118 1.160 1_565 S
C117 O124 1.185 . S
O118 C117 1.160 1_545 S
O119 Zn120 1.899 1_545 S
O119 C127 1.284 . S
Zn120 O119 1.899 1_565 S
Zn120 O121 2.032 . S
Zn120 O124 2.086 . S
Zn120 O129 1.977 . S
O121 Zn120 2.032 . S
O121 C125 1.278 . S
C122 O123 1.203 . S
C122 O129 1.267 . S
O123 C122 1.203 . S
O124 C117 1.185 . S
O124 Zn120 2.086 . S
C125 O121 1.278 . S
C125 O126 1.211 . S
O126 C125 1.211 . S
C127 O119 1.284 . S
C127 O128 1.273 . S
O128 C127 1.273 . S
O129 Zn120 1.977 . S
O129 C122 1.267 . S
C130 O131 1.160 . S
C130 O137 1.185 . S
O131 C130 1.160 . S
O132 Zn133 1.899 . S
O132 C140 1.284 . S
Zn133 O132 1.899 . S
Zn133 O134 2.032 . S
Zn133 O137 2.086 1_455 S
Zn133 O142 1.977 . S
O134 Zn133 2.032 . S
O134 C138 1.278 . S
C135 O136 1.203 . S
C135 O142 1.267 . S
O136 C135 1.203 . S
O137 C130 1.185 . S
O137 Zn133 2.086 1_655 S
C138 O134 1.278 . S
C138 O139 1.211 . S
O139 C138 1.211 . S
C140 O132 1.284 . S
C140 O141 1.273 . S
O141 C140 1.273 . S
O142 Zn133 1.977 . S
O142 C135 1.267 . S
C143 O144 1.160 . S
C143 O150 1.185 . S
O144 C143 1.160 . S
O145 Zn146 1.899 . S
O145 C153 1.284 . S
Zn146 O145 1.899 . S
Zn146 O147 2.032 . S
Zn146 O150 2.086 . S
Zn146 O155 1.977 . S
O147 Zn146 2.032 . S
O147 C151 1.278 . S
C148 O149 1.203 . S
C148 O155 1.267 . S
O149 C148 1.203 . S
O150 C143 1.185 . S
O150 Zn146 2.086 . S
C151 O147 1.278 . S
C151 O152 1.211 . S
O152 C151 1.211 . S
C153 O145 1.284 . S
C153 O154 1.273 . S
O154 C153 1.273 . S
O155 Zn146 1.977 . S
O155 C148 1.267 . S
C156 O157 1.160 1_545 S
C156 O163 1.185 . S
O157 C156 1.160 1_565 S
O158 Zn159 1.899 1_565 S
O158 C166 1.284 . S
Zn159 O158 1.899 1_545 S
Zn159 O160 2.032 . S
Zn159 O163 2.086 . S
Zn159 O168 1.977 . S
O160 Zn159 2.032 . S
O160 C164 1.278 . S
C161 O162 1.203 . S
C161 O168 1.267 . S
O162 C161 1.203 . S
O163 C156 1.185 . S
O163 Zn159 2.086 . S
C164 O160 1.278 . S
C164 O165 1.211 . S
O165 C164 1.211 . S
C166 O158 1.284 . S
C166 O167 1.273 . S
O167 C166 1.273 . S
O168 Zn159 1.977 . S
O168 C161 1.267 . S
C169 O170 1.160 . S
C169 O176 1.185 . S
O170 C169 1.160 . S
O171 Zn172 1.908 1_455 S
O171 C179 1.245 1_455 S
Zn172 O171 1.908 1_655 S
Zn172 O173 2.032 . S
Zn172 O176 2.086 1_655 S
Zn172 O181 1.977 . S
O173 Zn172 2.032 . S
O173 C177 1.278 . S
C174 O175 1.203 . S
C174 O181 1.267 . S
O175 C174 1.203 . S
O176 C169 1.185 . S
O176 Zn172 2.086 1_455 S
C177 O173 1.278 . S
C177 O178 1.211 . S
O178 C177 1.211 . S
C179 O171 1.245 1_655 S
C179 O180 1.273 . S
O180 C179 1.273 . S
O181 Zn172 1.977 . S
O181 C174 1.267 . S
C182 O183 1.160 . S
C182 O189 1.185 . S
O183 C182 1.160 . S
O184 Zn185 1.899 . S
O184 C192 1.284 . S
Zn185 O184 1.899 . S
Zn185 O186 2.032 . S
Zn185 O189 2.086 . S
Zn185 O194 1.977 . S
O186 Zn185 2.032 . S
O186 C190 1.278 . S
C187 O188 1.203 . S
C187 O194 1.267 . S
O188 C187 1.203 . S
O189 C182 1.185 . S
O189 Zn185 2.086 . S
C190 O186 1.278 . S
C190 O191 1.211 . S
O191 C190 1.211 . S
C192 O184 1.284 . S
C192 O193 1.273 . S
O193 C192 1.273 . S
O194 Zn185 1.977 . S
O194 C187 1.267 . S
C195 O196 1.160 . S
C195 O202 1.185 . S
O196 C195 1.160 . S
O197 Zn198 1.899 . S
O197 C205 1.284 . S
Zn198 O197 1.899 . S
Zn198 O199 2.032 . S
Zn198 O202 2.086 . S
Zn198 O207 1.977 . S
O199 Zn198 2.032 . S
O199 C203 1.278 . S
C200 O201 1.203 . S
C200 O207 1.267 . S
O201 C200 1.203 . S
O202 C195 1.185 . S
O202 Zn198 2.086 . S
C203 O199 1.278 . S
C203 O204 1.211 . S
O204 C203 1.211 . S
C205 O197 1.284 . S
C205 O206 1.273 . S
O206 C205 1.273 . S
O207 Zn198 1.977 . S
O207 C200 1.267 . S
C208 O209 1.160 1_545 S
C208 O215 1.185 . S
O209 C208 1.160 1_565 S
O210 Zn211 1.899 1_565 S
O210 C218 1.284 . S
Zn211 O210 1.899 1_545 S
Zn211 O212 2.032 . S
Zn211 O215 2.086 . S
Zn211 O220 1.977 . S
O212 Zn211 2.032 . S
O212 C216 1.278 . S
C213 O214 1.203 . S
C213 O220 1.267 . S
O214 C213 1.203 . S
O215 C208 1.185 . S
O215 Zn211 2.086 . S
C216 O212 1.278 . S
C216 O217 1.211 . S
O217 C216 1.211 . S
C218 O210 1.284 . S
C218 O219 1.273 . S
O219 C218 1.273 . S
O220 Zn211 1.977 . S
O220 C213 1.267 . S
C221 O222 1.160 . S
C221 O228 1.185 . S
O222 C221 1.160 . S
O223 Zn224 1.899 . S
O223 C231 1.284 1_655 S
Zn224 O223 1.899 . S
Zn224 O225 2.032 . S
Zn224 O228 2.086 . S
Zn224 O233 1.977 . S
O225 Zn224 2.032 . S
O225 C229 1.278 . S
C226 O227 1.203 . S
C226 O233 1.267 . S
O227 C226 1.203 . S
O228 C221 1.185 . S
O228 Zn224 2.086 . S
C229 O225 1.278 . S
C229 O230 1.211 . S
O230 C229 1.211 . S
C231 O223 1.284 1_455 S
C231 O232 1.273 . S
O232 C231 1.273 . S
O233 Zn224 1.977 . S
O233 C226 1.267 . S
C234 C235 1.560 . S
C234 H295 0.959 . S
C234 H296 0.959 . S
C234 H297 0.960 . S
C235 C234 1.560 . S
C235 O290 1.426 . S
C235 H294 0.980 . S
C236 C237 1.407 . S
C236 C241 1.418 . S
C236 O290 1.334 . S
C237 C236 1.407 . S
C237 C238 1.360 . S
C237 H298 0.929 . S
C238 C237 1.360 . S
C238 C239 1.401 . S
C238 C242 1.527 . S
C239 C238 1.401 . S
C239 C240 1.405 . S
C239 C272 1.587 . S
C240 C239 1.405 . S
C240 C241 1.332 . S
C240 C243 1.496 . S
C241 C236 1.418 . S
C241 C240 1.332 . S
C241 H299 0.929 . S
C242 C238 1.527 . S
C242 H300 0.959 . S
C242 H301 0.961 . S
C242 H302 0.961 . S
C243 C240 1.496 . S
C243 H303 0.960 . S
C243 H304 0.960 . S
C243 H305 0.961 . S
C244 C245 1.517 . S
C244 H307 0.961 . S
C244 H308 0.960 . S
C244 H309 0.959 . S
C245 C244 1.517 . S
C245 O293 1.468 . S
C245 H306 0.980 . S
C246 C247 1.349 . S
C246 C251 1.367 . S
C246 O293 1.408 . S
C247 C246 1.349 . S
C247 C248 1.407 . S
C247 H310 0.930 . S
C248 C247 1.407 . S
C248 C249 1.449 . S
C248 C252 1.535 . S
C249 C248 1.449 . S
C249 C250 1.384 . S
C249 C274 1.553 . S
C250 C249 1.384 . S
C250 C251 1.364 . S
C250 C253 1.450 . S
C251 C246 1.367 . S
C251 C250 1.364 . S
C251 H311 0.931 . S
C252 C248 1.535 . S
C252 H312 0.959 . S
C252 H313 0.961 . S
C252 H314 0.959 . S
C253 C250 1.450 . S
C253 H315 0.960 . S
C253 H316 0.960 . S
C253 H317 0.960 . S
C254 C255 1.309 . S
C254 C259 1.304 . S
C254 O292 1.435 . S
C255 C254 1.309 . S
C255 C256 1.476 . S
C255 H319 0.930 . S
C256 C255 1.476 . S
C256 C257 1.400 . S
C256 C260 1.567 . S
C257 C256 1.400 . S
C257 C258 1.373 . S
C257 C279 1.432 . S
C258 C257 1.373 . S
C258 C259 1.339 . S
C258 C261 1.530 . S
C259 C254 1.304 . S
C259 C258 1.339 . S
C259 H320 0.930 . S
C260 C256 1.567 . S
C260 H321 0.961 . S
C260 H322 0.960 . S
C260 H323 0.958 . S
C261 C258 1.530 . S
C261 H324 0.961 . S
C261 H325 0.960 . S
C261 H326 0.960 . S
C262 C263 1.530 . S
C262 H328 0.961 . S
C262 H329 0.961 . S
C262 H330 0.959 . S
C263 C262 1.530 . S
C263 O291 1.412 . S
C263 H327 0.980 . S
C264 C265 1.288 . S
C264 C269 1.377 . S
C264 O291 1.393 . S
C265 C264 1.288 . S
C265 C266 1.369 . S
C265 H331 0.932 . S
C266 C265 1.369 . S
C266 C267 1.398 . S
C266 C270 1.527 . S
C267 C266 1.398 . S
C267 C268 1.380 . S
C267 C281 1.497 . S
C268 C267 1.380 . S
C268 C269 1.383 . S
C268 C271 1.603 . S
C269 C264 1.377 . S
C269 C268 1.383 . S
C269 H332 0.929 . S
C270 C266 1.527 . S
C270 H333 0.961 . S
C270 H334 0.959 . S
C270 H335 0.959 . S
C271 C268 1.603 . S
C271 H336 0.960 . S
C271 H337 0.962 . S
C271 H338 0.961 . S
C272 C239 1.587 . S
C272 C273 1.360 . S
C272 C285 1.412 . S
C273 C272 1.360 . S
C273 C274 1.365 . S
C273 H339 0.929 . S
C274 C249 1.553 . S
C274 C273 1.365 . S
C274 C275 1.404 . S
C275 C274 1.404 . S
C275 C276 1.395 . S
C275 C286 1.451 . S
C276 C275 1.395 . S
C276 C277 1.322 . S
C276 H340 0.930 . S
C277 C276 1.322 . S
C277 C278 1.459 . S
C277 H341 0.929 . S
C278 C277 1.459 . S
C278 C279 1.445 . S
C278 C287 1.395 . S
C279 C257 1.432 . S
C279 C278 1.445 . S
C279 C280 1.370 . S
C280 C279 1.370 . S
C280 C281 1.438 . S
C280 H342 0.930 . S
C281 C267 1.497 . S
C281 C280 1.438 . S
C281 C282 1.360 . S
C282 C281 1.360 . S
C282 C283 1.401 . S
C282 C287 1.446 . S
C283 C282 1.401 . S
C283 C284 1.347 . S
C283 H343 0.929 . S
C284 C283 1.347 . S
C284 C285 1.455 . S
C284 H344 0.930 . S
C285 C272 1.412 . S
C285 C284 1.455 . S
C285 C286 1.331 . S
C286 C275 1.451 . S
C286 C285 1.331 . S
C286 C287 1.497 . S
C287 C278 1.395 . S
C287 C282 1.446 . S
C287 C286 1.497 . S
C288 C289 1.582 . S
C288 H345 0.962 . S
C288 H346 0.959 . S
C288 H347 0.958 . S
C289 C288 1.582 . S
C289 O292 1.458 . S
C289 H318 0.980 . S
O290 C235 1.426 . S
O290 C236 1.334 . S
O291 C263 1.412 . S
O291 C264 1.393 . S
O292 C254 1.435 . S
O292 C289 1.458 . S
O293 C245 1.468 . S
O293 C246 1.408 . S
H294 C235 0.980 . S
H295 C234 0.959 . S
H296 C234 0.959 . S
H297 C234 0.960 . S
H298 C237 0.929 . S
H299 C241 0.929 . S
H300 C242 0.959 . S
H301 C242 0.961 . S
H302 C242 0.961 . S
H303 C243 0.960 . S
H304 C243 0.960 . S
H305 C243 0.961 . S
H306 C245 0.980 . S
H307 C244 0.961 . S
H308 C244 0.960 . S
H309 C244 0.959 . S
H310 C247 0.930 . S
H311 C251 0.931 . S
H312 C252 0.959 . S
H313 C252 0.961 . S
H314 C252 0.959 . S
H315 C253 0.960 . S
H316 C253 0.960 . S
H317 C253 0.960 . S
H318 C289 0.980 . S
H319 C255 0.930 . S
H320 C259 0.930 . S
H321 C260 0.961 . S
H322 C260 0.960 . S
H323 C260 0.958 . S
H324 C261 0.961 . S
H325 C261 0.960 . S
H326 C261 0.960 . S
H327 C263 0.980 . S
H328 C262 0.961 . S
H329 C262 0.961 . S
H330 C262 0.959 . S
H331 C265 0.932 . S
H332 C269 0.929 . S
H333 C270 0.961 . S
H334 C270 0.959 . S
H335 C270 0.959 . S
H336 C271 0.960 . S
H337 C271 0.962 . S
H338 C271 0.961 . S
H339 C273 0.929 . S
H340 C276 0.930 . S
H341 C277 0.929 . S
H342 C280 0.930 . S
H343 C283 0.929 . S
H344 C284 0.930 . S
H345 C288 0.962 . S
H346 C288 0.959 . S
H347 C288 0.958 . S
C348 C349 1.560 . S
C348 H409 0.959 . S
C348 H410 0.959 . S
C348 H411 0.960 . S
C349 C348 1.560 . S
C349 O404 1.426 . S
C349 H408 0.980 . S
C350 C351 1.407 . S
C350 C355 1.418 . S
C350 O404 1.334 . S
C351 C350 1.407 . S
C351 C352 1.360 . S
C351 H412 0.929 . S
C352 C351 1.360 . S
C352 C353 1.401 . S
C352 C356 1.527 . S
C353 C352 1.401 . S
C353 C354 1.405 . S
C353 C386 1.587 . S
C354 C353 1.405 . S
C354 C355 1.332 . S
C354 C357 1.496 . S
C355 C350 1.418 . S
C355 C354 1.332 . S
C355 H413 0.929 . S
C356 C352 1.527 . S
C356 H414 0.959 . S
C356 H415 0.961 . S
C356 H416 0.961 . S
C357 C354 1.496 . S
C357 H417 0.960 . S
C357 H418 0.960 . S
C357 H419 0.961 . S
C358 C359 1.517 . S
C358 H421 0.961 . S
C358 H422 0.960 . S
C358 H423 0.959 . S
C359 C358 1.517 . S
C359 O407 1.468 . S
C359 H420 0.980 . S
C360 C361 1.349 . S
C360 C365 1.367 . S
C360 O407 1.408 . S
C361 C360 1.349 . S
C361 C362 1.407 . S
C361 H424 0.930 . S
C362 C361 1.407 . S
C362 C363 1.449 . S
C362 C366 1.535 . S
C363 C362 1.449 . S
C363 C364 1.384 . S
C363 C388 1.553 . S
C364 C363 1.384 . S
C364 C365 1.364 . S
C364 C367 1.450 . S
C365 C360 1.367 . S
C365 C364 1.364 . S
C365 H425 0.931 . S
C366 C362 1.535 . S
C366 H426 0.959 . S
C366 H427 0.961 . S
C366 H428 0.959 . S
C367 C364 1.450 . S
C367 H429 0.960 . S
C367 H430 0.960 . S
C367 H431 0.960 . S
C368 C369 1.309 . S
C368 C373 1.304 . S
C368 O406 1.435 . S
C369 C368 1.309 . S
C369 C370 1.476 . S
C369 H433 0.930 . S
C370 C369 1.476 . S
C370 C371 1.400 . S
C370 C374 1.567 . S
C371 C370 1.400 . S
C371 C372 1.373 . S
C371 C393 1.432 . S
C372 C371 1.373 . S
C372 C373 1.339 . S
C372 C375 1.530 . S
C373 C368 1.304 . S
C373 C372 1.339 . S
C373 H434 0.930 . S
C374 C370 1.567 . S
C374 H435 0.961 . S
C374 H436 0.960 . S
C374 H437 0.958 . S
C375 C372 1.530 . S
C375 H438 0.961 . S
C375 H439 0.960 . S
C375 H440 0.960 . S
C376 C377 1.530 . S
C376 H442 0.961 . S
C376 H443 0.961 . S
C376 H444 0.959 . S
C377 C376 1.530 . S
C377 O405 1.412 . S
C377 H441 0.980 . S
C378 C379 1.288 . S
C378 C383 1.377 . S
C378 O405 1.393 . S
C379 C378 1.288 . S
C379 C380 1.369 . S
C379 H445 0.932 . S
C380 C379 1.369 . S
C380 C381 1.398 . S
C380 C384 1.527 . S
C381 C380 1.398 . S
C381 C382 1.380 . S
C381 C395 1.497 . S
C382 C381 1.380 . S
C382 C383 1.383 . S
C382 C385 1.603 . S
C383 C378 1.377 . S
C383 C382 1.383 . S
C383 H446 0.929 . S
C384 C380 1.527 . S
C384 H447 0.961 . S
C384 H448 0.959 . S
C384 H449 0.959 . S
C385 C382 1.603 . S
C385 H450 0.960 . S
C385 H451 0.962 . S
C385 H452 0.961 . S
C386 C353 1.587 . S
C386 C387 1.360 . S
C386 C399 1.412 . S
C387 C386 1.360 . S
C387 C388 1.365 . S
C387 H453 0.929 . S
C388 C363 1.553 . S
C388 C387 1.365 . S
C388 C389 1.404 . S
C389 C388 1.404 . S
C389 C390 1.395 . S
C389 C400 1.451 . S
C390 C389 1.395 . S
C390 C391 1.322 . S
C390 H454 0.930 . S
C391 C390 1.322 . S
C391 C392 1.459 . S
C391 H455 0.929 . S
C392 C391 1.459 . S
C392 C393 1.445 . S
C392 C401 1.395 . S
C393 C371 1.432 . S
C393 C392 1.445 . S
C393 C394 1.370 . S
C394 C393 1.370 . S
C394 C395 1.438 . S
C394 H456 0.930 . S
C395 C381 1.497 . S
C395 C394 1.438 . S
C395 C396 1.360 . S
C396 C395 1.360 . S
C396 C397 1.401 . S
C396 C401 1.446 . S
C397 C396 1.401 . S
C397 C398 1.347 . S
C397 H457 0.929 . S
C398 C397 1.347 . S
C398 C399 1.455 . S
C398 H458 0.930 . S
C399 C386 1.412 . S
C399 C398 1.455 . S
C399 C400 1.331 . S
C400 C389 1.451 . S
C400 C399 1.331 . S
C400 C401 1.497 . S
C401 C392 1.395 . S
C401 C396 1.446 . S
C401 C400 1.497 . S
C402 C403 1.582 . S
C402 H459 0.962 . S
C402 H460 0.959 . S
C402 H461 0.958 . S
C403 C402 1.582 . S
C403 O406 1.458 . S
C403 H432 0.980 . S
O404 C349 1.426 . S
O404 C350 1.334 . S
O405 C377 1.412 . S
O405 C378 1.393 . S
O406 C368 1.435 . S
O406 C403 1.458 . S
O407 C359 1.468 . S
O407 C360 1.408 . S
H408 C349 0.980 . S
H409 C348 0.959 . S
H410 C348 0.959 . S
H411 C348 0.960 . S
H412 C351 0.929 . S
H413 C355 0.929 . S
H414 C356 0.959 . S
H415 C356 0.961 . S
H416 C356 0.961 . S
H417 C357 0.960 . S
H418 C357 0.960 . S
H419 C357 0.961 . S
H420 C359 0.980 . S
H421 C358 0.961 . S
H422 C358 0.960 . S
H423 C358 0.959 . S
H424 C361 0.930 . S
H425 C365 0.931 . S
H426 C366 0.959 . S
H427 C366 0.961 . S
H428 C366 0.959 . S
H429 C367 0.960 . S
H430 C367 0.960 . S
H431 C367 0.960 . S
H432 C403 0.980 . S
H433 C369 0.930 . S
H434 C373 0.930 . S
H435 C374 0.961 . S
H436 C374 0.960 . S
H437 C374 0.958 . S
H438 C375 0.961 . S
H439 C375 0.960 . S
H440 C375 0.960 . S
H441 C377 0.980 . S
H442 C376 0.961 . S
H443 C376 0.961 . S
H444 C376 0.959 . S
H445 C379 0.932 . S
H446 C383 0.929 . S
H447 C384 0.961 . S
H448 C384 0.959 . S
H449 C384 0.959 . S
H450 C385 0.960 . S
H451 C385 0.962 . S
H452 C385 0.961 . S
H453 C387 0.929 . S
H454 C390 0.930 . S
H455 C391 0.929 . S
H456 C394 0.930 . S
H457 C397 0.929 . S
H458 C398 0.930 . S
H459 C402 0.962 . S
H460 C402 0.959 . S
H461 C402 0.958 . S
C462 C463 1.560 . S
C462 H523 0.959 . S
C462 H524 0.959 . S
C462 H525 0.960 . S
C463 C462 1.560 . S
C463 O518 1.426 . S
C463 H522 0.980 . S
C464 C465 1.407 . S
C464 C469 1.418 . S
C464 O518 1.334 . S
C465 C464 1.407 . S
C465 C466 1.360 . S
C465 H526 0.929 . S
C466 C465 1.360 . S
C466 C467 1.401 . S
C466 C470 1.527 . S
C467 C466 1.401 . S
C467 C468 1.405 . S
C467 C500 1.587 . S
C468 C467 1.405 . S
C468 C469 1.332 . S
C468 C471 1.496 . S
C469 C464 1.418 . S
C469 C468 1.332 . S
C469 H527 0.929 . S
C470 C466 1.527 . S
C470 H528 0.959 . S
C470 H529 0.961 . S
C470 H530 0.961 . S
C471 C468 1.496 . S
C471 H531 0.960 . S
C471 H532 0.960 . S
C471 H533 0.961 . S
C472 C473 1.517 . S
C472 H535 0.961 . S
C472 H536 0.960 . S
C472 H537 0.959 . S
C473 C472 1.517 . S
C473 O521 1.468 . S
C473 H534 0.980 . S
C474 C475 1.349 . S
C474 C479 1.367 . S
C474 O521 1.408 . S
C475 C474 1.349 . S
C475 C476 1.407 . S
C475 H538 0.930 . S
C476 C475 1.407 . S
C476 C477 1.449 . S
C476 C480 1.535 . S
C477 C476 1.449 . S
C477 C478 1.384 . S
C477 C502 1.553 . S
C478 C477 1.384 . S
C478 C479 1.364 . S
C478 C481 1.450 . S
C479 C474 1.367 . S
C479 C478 1.364 . S
C479 H539 0.931 . S
C480 C476 1.535 . S
C480 H540 0.959 . S
C480 H541 0.961 . S
C480 H542 0.959 . S
C481 C478 1.450 . S
C481 H543 0.960 . S
C481 H544 0.960 . S
C481 H545 0.960 . S
C482 C483 1.309 . S
C482 C487 1.304 . S
C482 O520 1.435 . S
C483 C482 1.309 . S
C483 C484 1.476 . S
C483 H547 0.930 . S
C484 C483 1.476 . S
C484 C485 1.400 . S
C484 C488 1.567 . S
C485 C484 1.400 . S
C485 C486 1.373 . S
C485 C507 1.432 . S
C486 C485 1.373 . S
C486 C487 1.339 . S
C486 C489 1.530 . S
C487 C482 1.304 . S
C487 C486 1.339 . S
C487 H548 0.930 . S
C488 C484 1.567 . S
C488 H549 0.961 . S
C488 H550 0.960 . S
C488 H551 0.958 . S
C489 C486 1.530 . S
C489 H552 0.961 . S
C489 H553 0.960 . S
C489 H554 0.960 . S
C490 C491 1.530 . S
C490 H556 0.961 . S
C490 H557 0.961 . S
C490 H558 0.959 . S
C491 C490 1.530 . S
C491 O519 1.412 . S
C491 H555 0.980 . S
C492 C493 1.288 . S
C492 C497 1.377 . S
C492 O519 1.393 . S
C493 C492 1.288 . S
C493 C494 1.369 . S
C493 H559 0.932 . S
C494 C493 1.369 . S
C494 C495 1.398 . S
C494 C498 1.527 . S
C495 C494 1.398 . S
C495 C496 1.380 . S
C495 C509 1.497 . S
C496 C495 1.380 . S
C496 C497 1.383 . S
C496 C499 1.603 . S
C497 C492 1.377 . S
C497 C496 1.383 . S
C497 H560 0.929 . S
C498 C494 1.527 . S
C498 H561 0.961 . S
C498 H562 0.959 . S
C498 H563 0.959 . S
C499 C496 1.603 . S
C499 H564 0.960 . S
C499 H565 0.962 . S
C499 H566 0.961 . S
C500 C467 1.587 . S
C500 C501 1.360 . S
C500 C513 1.412 . S
C501 C500 1.360 . S
C501 C502 1.365 . S
C501 H567 0.929 . S
C502 C477 1.553 . S
C502 C501 1.365 . S
C502 C503 1.404 . S
C503 C502 1.404 . S
C503 C504 1.395 . S
C503 C514 1.451 . S
C504 C503 1.395 . S
C504 C505 1.322 . S
C504 H568 0.930 . S
C505 C504 1.322 . S
C505 C506 1.459 . S
C505 H569 0.929 . S
C506 C505 1.459 . S
C506 C507 1.445 . S
C506 C515 1.395 . S
C507 C485 1.432 . S
C507 C506 1.445 . S
C507 C508 1.370 . S
C508 C507 1.370 . S
C508 C509 1.438 . S
C508 H570 0.930 . S
C509 C495 1.497 . S
C509 C508 1.438 . S
C509 C510 1.360 . S
C510 C509 1.360 . S
C510 C511 1.401 . S
C510 C515 1.446 . S
C511 C510 1.401 . S
C511 C512 1.347 . S
C511 H571 0.929 . S
C512 C511 1.347 . S
C512 C513 1.455 . S
C512 H572 0.930 . S
C513 C500 1.412 . S
C513 C512 1.455 . S
C513 C514 1.331 . S
C514 C503 1.451 . S
C514 C513 1.331 . S
C514 C515 1.497 . S
C515 C506 1.395 . S
C515 C510 1.446 . S
C515 C514 1.497 . S
C516 C517 1.582 . S
C516 H573 0.962 . S
C516 H574 0.959 . S
C516 H575 0.958 . S
C517 C516 1.582 . S
C517 O520 1.458 . S
C517 H546 0.980 . S
O518 C463 1.426 . S
O518 C464 1.334 . S
O519 C491 1.412 . S
O519 C492 1.393 . S
O520 C482 1.435 . S
O520 C517 1.458 . S
O521 C473 1.468 . S
O521 C474 1.408 . S
H522 C463 0.980 . S
H523 C462 0.959 . S
H524 C462 0.959 . S
H525 C462 0.960 . S
H526 C465 0.929 . S
H527 C469 0.929 . S
H528 C470 0.959 . S
H529 C470 0.961 . S
H530 C470 0.961 . S
H531 C471 0.960 . S
H532 C471 0.960 . S
H533 C471 0.961 . S
H534 C473 0.980 . S
H535 C472 0.961 . S
H536 C472 0.960 . S
H537 C472 0.959 . S
H538 C475 0.930 . S
H539 C479 0.931 . S
H540 C480 0.959 . S
H541 C480 0.961 . S
H542 C480 0.959 . S
H543 C481 0.960 . S
H544 C481 0.960 . S
H545 C481 0.960 . S
H546 C517 0.980 . S
H547 C483 0.930 . S
H548 C487 0.930 . S
H549 C488 0.961 . S
H550 C488 0.960 . S
H551 C488 0.958 . S
H552 C489 0.961 . S
H553 C489 0.960 . S
H554 C489 0.960 . S
H555 C491 0.980 . S
H556 C490 0.961 . S
H557 C490 0.961 . S
H558 C490 0.959 . S
H559 C493 0.932 . S
H560 C497 0.929 . S
H561 C498 0.961 . S
H562 C498 0.959 . S
H563 C498 0.959 . S
H564 C499 0.960 . S
H565 C499 0.962 . S
H566 C499 0.961 . S
H567 C501 0.929 . S
H568 C504 0.930 . S
H569 C505 0.929 . S
H570 C508 0.930 . S
H571 C511 0.929 . S
H572 C512 0.930 . S
H573 C516 0.962 . S
H574 C516 0.959 . S
H575 C516 0.958 . S
C576 C577 1.560 . S
C576 H637 0.959 . S
C576 H638 0.959 . S
C576 H639 0.960 . S
C577 C576 1.560 . S
C577 O632 1.426 . S
C577 H636 0.980 . S
C578 C579 1.407 . S
C578 C583 1.418 . S
C578 O632 1.334 . S
C579 C578 1.407 . S
C579 C580 1.360 . S
C579 H640 0.929 . S
C580 C579 1.360 . S
C580 C581 1.401 . S
C580 C584 1.527 . S
C581 C580 1.401 . S
C581 C582 1.405 . S
C581 C614 1.587 . S
C582 C581 1.405 . S
C582 C583 1.332 . S
C582 C585 1.496 . S
C583 C578 1.418 . S
C583 C582 1.332 . S
C583 H641 0.929 . S
C584 C580 1.527 . S
C584 H642 0.959 . S
C584 H643 0.961 . S
C584 H644 0.961 . S
C585 C582 1.496 . S
C585 H645 0.960 . S
C585 H646 0.960 . S
C585 H647 0.961 . S
C586 C587 1.517 . S
C586 H649 0.961 . S
C586 H650 0.960 . S
C586 H651 0.959 . S
C587 C586 1.517 . S
C587 O635 1.468 . S
C587 H648 0.980 . S
C588 C589 1.349 . S
C588 C593 1.367 . S
C588 O635 1.408 . S
C589 C588 1.349 . S
C589 C590 1.407 . S
C589 H652 0.930 . S
C590 C589 1.407 . S
C590 C591 1.449 . S
C590 C594 1.535 . S
C591 C590 1.449 . S
C591 C592 1.384 . S
C591 C616 1.553 . S
C592 C591 1.384 . S
C592 C593 1.364 . S
C592 C595 1.450 . S
C593 C588 1.367 . S
C593 C592 1.364 . S
C593 H653 0.931 . S
C594 C590 1.535 . S
C594 H654 0.959 . S
C594 H655 0.961 . S
C594 H656 0.959 . S
C595 C592 1.450 . S
C595 H657 0.960 . S
C595 H658 0.960 . S
C595 H659 0.960 . S
C596 C597 1.309 . S
C596 C601 1.304 . S
C596 O634 1.435 . S
C597 C596 1.309 . S
C597 C598 1.476 . S
C597 H661 0.930 . S
C598 C597 1.476 . S
C598 C599 1.400 . S
C598 C602 1.567 . S
C599 C598 1.400 . S
C599 C600 1.373 . S
C599 C621 1.432 . S
C600 C599 1.373 . S
C600 C601 1.339 . S
C600 C603 1.530 . S
C601 C596 1.304 . S
C601 C600 1.339 . S
C601 H662 0.930 . S
C602 C598 1.567 . S
C602 H663 0.961 . S
C602 H664 0.960 . S
C602 H665 0.958 . S
C603 C600 1.530 . S
C603 H666 0.961 . S
C603 H667 0.960 . S
C603 H668 0.960 . S
C604 C605 1.530 . S
C604 H670 0.961 . S
C604 H671 0.961 . S
C604 H672 0.959 . S
C605 C604 1.530 . S
C605 O633 1.412 . S
C605 H669 0.980 . S
C606 C607 1.288 . S
C606 C611 1.377 . S
C606 O633 1.393 . S
C607 C606 1.288 . S
C607 C608 1.369 . S
C607 H673 0.932 . S
C608 C607 1.369 . S
C608 C609 1.398 . S
C608 C612 1.527 . S
C609 C608 1.398 . S
C609 C610 1.380 . S
C609 C623 1.497 . S
C610 C609 1.380 . S
C610 C611 1.383 . S
C610 C613 1.603 . S
C611 C606 1.377 . S
C611 C610 1.383 . S
C611 H674 0.929 . S
C612 C608 1.527 . S
C612 H675 0.961 . S
C612 H676 0.959 . S
C612 H677 0.959 . S
C613 C610 1.603 . S
C613 H678 0.960 . S
C613 H679 0.962 . S
C613 H680 0.961 . S
C614 C581 1.587 . S
C614 C615 1.360 . S
C614 C627 1.412 . S
C615 C614 1.360 . S
C615 C616 1.365 . S
C615 H681 0.929 . S
C616 C591 1.553 . S
C616 C615 1.365 . S
C616 C617 1.404 . S
C617 C616 1.404 . S
C617 C618 1.395 . S
C617 C628 1.451 . S
C618 C617 1.395 . S
C618 C619 1.322 . S
C618 H682 0.930 . S
C619 C618 1.322 . S
C619 C620 1.459 . S
C619 H683 0.929 . S
C620 C619 1.459 . S
C620 C621 1.445 . S
C620 C629 1.395 . S
C621 C599 1.432 . S
C621 C620 1.445 . S
C621 C622 1.370 . S
C622 C621 1.370 . S
C622 C623 1.438 . S
C622 H684 0.930 . S
C623 C609 1.497 . S
C623 C622 1.438 . S
C623 C624 1.360 . S
C624 C623 1.360 . S
C624 C625 1.401 . S
C624 C629 1.446 . S
C625 C624 1.401 . S
C625 C626 1.347 . S
C625 H685 0.929 . S
C626 C625 1.347 . S
C626 C627 1.455 . S
C626 H686 0.930 . S
C627 C614 1.412 . S
C627 C626 1.455 . S
C627 C628 1.331 . S
C628 C617 1.451 . S
C628 C627 1.331 . S
C628 C629 1.497 . S
C629 C620 1.395 . S
C629 C624 1.446 . S
C629 C628 1.497 . S
C630 C631 1.582 . S
C630 H687 0.962 . S
C630 H688 0.959 . S
C630 H689 0.958 . S
C631 C630 1.582 . S
C631 O634 1.458 . S
C631 H660 0.980 . S
O632 C577 1.426 . S
O632 C578 1.334 . S
O633 C605 1.412 . S
O633 C606 1.393 . S
O634 C596 1.435 . S
O634 C631 1.458 . S
O635 C587 1.468 . S
O635 C588 1.408 . S
H636 C577 0.980 . S
H637 C576 0.959 . S
H638 C576 0.959 . S
H639 C576 0.960 . S
H640 C579 0.929 . S
H641 C583 0.929 . S
H642 C584 0.959 . S
H643 C584 0.961 . S
H644 C584 0.961 . S
H645 C585 0.960 . S
H646 C585 0.960 . S
H647 C585 0.961 . S
H648 C587 0.980 . S
H649 C586 0.961 . S
H650 C586 0.960 . S
H651 C586 0.959 . S
H652 C589 0.930 . S
H653 C593 0.931 . S
H654 C594 0.959 . S
H655 C594 0.961 . S
H656 C594 0.959 . S
H657 C595 0.960 . S
H658 C595 0.960 . S
H659 C595 0.960 . S
H660 C631 0.980 . S
H661 C597 0.930 . S
H662 C601 0.930 . S
H663 C602 0.961 . S
H664 C602 0.960 . S
H665 C602 0.958 . S
H666 C603 0.961 . S
H667 C603 0.960 . S
H668 C603 0.960 . S
H669 C605 0.980 . S
H670 C604 0.961 . S
H671 C604 0.961 . S
H672 C604 0.959 . S
H673 C607 0.932 . S
H674 C611 0.929 . S
H675 C612 0.961 . S
H676 C612 0.959 . S
H677 C612 0.959 . S
H678 C613 0.960 . S
H679 C613 0.962 . S
H680 C613 0.961 . S
H681 C615 0.929 . S
H682 C618 0.930 . S
H683 C619 0.929 . S
H684 C622 0.930 . S
H685 C625 0.929 . S
H686 C626 0.930 . S
H687 C630 0.962 . S
H688 C630 0.959 . S
H689 C630 0.958 . S
C690 C691 1.560 . S
C690 H751 0.959 . S
C690 H752 0.959 . S
C690 H753 0.960 . S
C691 C690 1.560 . S
C691 O746 1.426 . S
C691 H750 0.980 . S
C692 C693 1.407 . S
C692 C697 1.418 . S
C692 O746 1.334 . S
C693 C692 1.407 . S
C693 C694 1.360 . S
C693 H754 0.929 . S
C694 C693 1.360 . S
C694 C695 1.401 . S
C694 C698 1.527 . S
C695 C694 1.401 . S
C695 C696 1.405 . S
C695 C728 1.587 . S
C696 C695 1.405 . S
C696 C697 1.332 . S
C696 C699 1.496 . S
C697 C692 1.418 . S
C697 C696 1.332 . S
C697 H755 0.929 . S
C698 C694 1.527 . S
C698 H756 0.959 . S
C698 H757 0.961 . S
C698 H758 0.961 . S
C699 C696 1.496 . S
C699 H759 0.960 . S
C699 H760 0.960 . S
C699 H761 0.961 . S
C700 C701 1.517 . S
C700 H763 0.961 . S
C700 H764 0.960 . S
C700 H765 0.959 . S
C701 C700 1.517 . S
C701 O749 1.468 . S
C701 H762 0.980 . S
C702 C703 1.349 . S
C702 C707 1.367 . S
C702 O749 1.408 . S
C703 C702 1.349 . S
C703 C704 1.407 . S
C703 H766 0.930 . S
C704 C703 1.407 . S
C704 C705 1.449 . S
C704 C708 1.535 . S
C705 C704 1.449 . S
C705 C706 1.384 . S
C705 C730 1.553 . S
C706 C705 1.384 . S
C706 C707 1.364 . S
C706 C709 1.450 . S
C707 C702 1.367 . S
C707 C706 1.364 . S
C707 H767 0.931 . S
C708 C704 1.535 . S
C708 H768 0.959 . S
C708 H769 0.961 . S
C708 H770 0.959 . S
C709 C706 1.450 . S
C709 H771 0.960 . S
C709 H772 0.960 . S
C709 H773 0.960 . S
C710 C711 1.309 . S
C710 C715 1.304 . S
C710 O748 1.435 . S
C711 C710 1.309 . S
C711 C712 1.476 . S
C711 H775 0.930 . S
C712 C711 1.476 . S
C712 C713 1.400 . S
C712 C716 1.567 . S
C713 C712 1.400 . S
C713 C714 1.373 . S
C713 C735 1.432 . S
C714 C713 1.373 . S
C714 C715 1.339 . S
C714 C717 1.530 . S
C715 C710 1.304 . S
C715 C714 1.339 . S
C715 H776 0.930 . S
C716 C712 1.567 . S
C716 H777 0.961 . S
C716 H778 0.960 . S
C716 H779 0.958 . S
C717 C714 1.530 . S
C717 H780 0.961 . S
C717 H781 0.960 . S
C717 H782 0.960 . S
C718 C719 1.530 . S
C718 H784 0.961 . S
C718 H785 0.961 . S
C718 H786 0.959 . S
C719 C718 1.530 . S
C719 O747 1.412 . S
C719 H783 0.980 . S
C720 C721 1.288 . S
C720 C725 1.377 . S
C720 O747 1.393 . S
C721 C720 1.288 . S
C721 C722 1.369 . S
C721 H787 0.932 . S
C722 C721 1.369 . S
C722 C723 1.398 . S
C722 C726 1.527 . S
C723 C722 1.398 . S
C723 C724 1.380 . S
C723 C737 1.497 . S
C724 C723 1.380 . S
C724 C725 1.383 . S
C724 C727 1.603 . S
C725 C720 1.377 . S
C725 C724 1.383 . S
C725 H788 0.929 . S
C726 C722 1.527 . S
C726 H789 0.961 . S
C726 H790 0.959 . S
C726 H791 0.959 . S
C727 C724 1.603 . S
C727 H792 0.960 . S
C727 H793 0.962 . S
C727 H794 0.961 . S
C728 C695 1.587 . S
C728 C729 1.360 . S
C728 C741 1.412 . S
C729 C728 1.360 . S
C729 C730 1.365 . S
C729 H795 0.929 . S
C730 C705 1.553 . S
C730 C729 1.365 . S
C730 C731 1.404 . S
C731 C730 1.404 . S
C731 C732 1.395 . S
C731 C742 1.451 . S
C732 C731 1.395 . S
C732 C733 1.322 . S
C732 H796 0.930 . S
C733 C732 1.322 . S
C733 C734 1.459 . S
C733 H797 0.929 . S
C734 C733 1.459 . S
C734 C735 1.445 . S
C734 C743 1.395 . S
C735 C713 1.432 . S
C735 C734 1.445 . S
C735 C736 1.370 . S
C736 C735 1.370 . S
C736 C737 1.438 . S
C736 H798 0.930 . S
C737 C723 1.497 . S
C737 C736 1.438 . S
C737 C738 1.360 . S
C738 C737 1.360 . S
C738 C739 1.401 . S
C738 C743 1.446 . S
C739 C738 1.401 . S
C739 C740 1.347 . S
C739 H799 0.929 . S
C740 C739 1.347 . S
C740 C741 1.455 . S
C740 H800 0.930 . S
C741 C728 1.412 . S
C741 C740 1.455 . S
C741 C742 1.331 . S
C742 C731 1.451 . S
C742 C741 1.331 . S
C742 C743 1.497 . S
C743 C734 1.395 . S
C743 C738 1.446 . S
C743 C742 1.497 . S
C744 C745 1.582 . S
C744 H801 0.962 . S
C744 H802 0.959 . S
C744 H803 0.958 . S
C745 C744 1.582 . S
C745 O748 1.458 . S
C745 H774 0.980 . S
O746 C691 1.426 . S
O746 C692 1.334 . S
O747 C719 1.412 . S
O747 C720 1.393 . S
O748 C710 1.435 . S
O748 C745 1.458 . S
O749 C701 1.468 . S
O749 C702 1.408 . S
H750 C691 0.980 . S
H751 C690 0.959 . S
H752 C690 0.959 . S
H753 C690 0.960 . S
H754 C693 0.929 . S
H755 C697 0.929 . S
H756 C698 0.959 . S
H757 C698 0.961 . S
H758 C698 0.961 . S
H759 C699 0.960 . S
H760 C699 0.960 . S
H761 C699 0.961 . S
H762 C701 0.980 . S
H763 C700 0.961 . S
H764 C700 0.960 . S
H765 C700 0.959 . S
H766 C703 0.930 . S
H767 C707 0.931 . S
H768 C708 0.959 . S
H769 C708 0.961 . S
H770 C708 0.959 . S
H771 C709 0.960 . S
H772 C709 0.960 . S
H773 C709 0.960 . S
H774 C745 0.980 . S
H775 C711 0.930 . S
H776 C715 0.930 . S
H777 C716 0.961 . S
H778 C716 0.960 . S
H779 C716 0.958 . S
H780 C717 0.961 . S
H781 C717 0.960 . S
H782 C717 0.960 . S
H783 C719 0.980 . S
H784 C718 0.961 . S
H785 C718 0.961 . S
H786 C718 0.959 . S
H787 C721 0.932 . S
H788 C725 0.929 . S
H789 C726 0.961 . S
H790 C726 0.959 . S
H791 C726 0.959 . S
H792 C727 0.960 . S
H793 C727 0.962 . S
H794 C727 0.961 . S
H795 C729 0.929 . S
H796 C732 0.930 . S
H797 C733 0.929 . S
H798 C736 0.930 . S
H799 C739 0.929 . S
H800 C740 0.930 . S
H801 C744 0.962 . S
H802 C744 0.959 . S
H803 C744 0.958 . S
C804 C805 1.560 . S
C804 H865 0.959 . S
C804 H866 0.959 . S
C804 H867 0.960 . S
C805 C804 1.560 . S
C805 O860 1.426 . S
C805 H864 0.980 . S
C806 C807 1.407 . S
C806 C811 1.418 . S
C806 O860 1.334 . S
C807 C806 1.407 . S
C807 C808 1.360 . S
C807 H868 0.929 . S
C808 C807 1.360 . S
C808 C809 1.401 . S
C808 C812 1.527 . S
C809 C808 1.401 . S
C809 C810 1.405 . S
C809 C842 1.587 . S
C810 C809 1.405 . S
C810 C811 1.332 . S
C810 C813 1.496 . S
C811 C806 1.418 . S
C811 C810 1.332 . S
C811 H869 0.929 . S
C812 C808 1.527 . S
C812 H870 0.959 . S
C812 H871 0.961 . S
C812 H872 0.961 . S
C813 C810 1.496 . S
C813 H873 0.960 . S
C813 H874 0.960 . S
C813 H875 0.961 . S
C814 C815 1.517 . S
C814 H877 0.961 . S
C814 H878 0.960 . S
C814 H879 0.959 . S
C815 C814 1.517 . S
C815 O863 1.468 . S
C815 H876 0.980 . S
C816 C817 1.349 . S
C816 C821 1.367 . S
C816 O863 1.408 . S
C817 C816 1.349 . S
C817 C818 1.407 . S
C817 H880 0.930 . S
C818 C817 1.407 . S
C818 C819 1.449 . S
C818 C822 1.535 . S
C819 C818 1.449 . S
C819 C820 1.384 . S
C819 C844 1.553 . S
C820 C819 1.384 . S
C820 C821 1.364 . S
C820 C823 1.450 . S
C821 C816 1.367 . S
C821 C820 1.364 . S
C821 H881 0.931 . S
C822 C818 1.535 . S
C822 H882 0.959 . S
C822 H883 0.961 . S
C822 H884 0.959 . S
C823 C820 1.450 . S
C823 H885 0.960 . S
C823 H886 0.960 . S
C823 H887 0.960 . S
C824 C825 1.309 . S
C824 C829 1.304 . S
C824 O862 1.435 . S
C825 C824 1.309 . S
C825 C826 1.476 . S
C825 H889 0.930 . S
C826 C825 1.476 . S
C826 C827 1.400 . S
C826 C830 1.567 . S
C827 C826 1.400 . S
C827 C828 1.373 . S
C827 C849 1.432 . S
C828 C827 1.373 . S
C828 C829 1.339 . S
C828 C831 1.530 . S
C829 C824 1.304 . S
C829 C828 1.339 . S
C829 H890 0.930 . S
C830 C826 1.567 . S
C830 H891 0.961 . S
C830 H892 0.960 . S
C830 H893 0.958 . S
C831 C828 1.530 . S
C831 H894 0.961 . S
C831 H895 0.960 . S
C831 H896 0.960 . S
C832 C833 1.530 . S
C832 H898 0.961 . S
C832 H899 0.961 . S
C832 H900 0.959 . S
C833 C832 1.530 . S
C833 O861 1.412 . S
C833 H897 0.980 . S
C834 C835 1.288 . S
C834 C839 1.377 . S
C834 O861 1.393 . S
C835 C834 1.288 . S
C835 C836 1.369 . S
C835 H901 0.932 . S
C836 C835 1.369 . S
C836 C837 1.398 . S
C836 C840 1.527 . S
C837 C836 1.398 . S
C837 C838 1.380 . S
C837 C851 1.497 . S
C838 C837 1.380 . S
C838 C839 1.383 . S
C838 C841 1.603 . S
C839 C834 1.377 . S
C839 C838 1.383 . S
C839 H902 0.929 . S
C840 C836 1.527 . S
C840 H903 0.961 . S
C840 H904 0.959 . S
C840 H905 0.959 . S
C841 C838 1.603 . S
C841 H906 0.960 . S
C841 H907 0.962 . S
C841 H908 0.961 . S
C842 C809 1.587 . S
C842 C843 1.360 . S
C842 C855 1.412 . S
C843 C842 1.360 . S
C843 C844 1.365 . S
C843 H909 0.929 . S
C844 C819 1.553 . S
C844 C843 1.365 . S
C844 C845 1.404 . S
C845 C844 1.404 . S
C845 C846 1.395 . S
C845 C856 1.451 . S
C846 C845 1.395 . S
C846 C847 1.322 . S
C846 H910 0.930 . S
C847 C846 1.322 . S
C847 C848 1.459 . S
C847 H911 0.929 . S
C848 C847 1.459 . S
C848 C849 1.445 . S
C848 C857 1.395 . S
C849 C827 1.432 . S
C849 C848 1.445 . S
C849 C850 1.370 . S
C850 C849 1.370 . S
C850 C851 1.438 . S
C850 H912 0.930 . S
C851 C837 1.497 . S
C851 C850 1.438 . S
C851 C852 1.360 . S
C852 C851 1.360 . S
C852 C853 1.401 . S
C852 C857 1.446 . S
C853 C852 1.401 . S
C853 C854 1.347 . S
C853 H913 0.929 . S
C854 C853 1.347 . S
C854 C855 1.455 . S
C854 H914 0.930 . S
C855 C842 1.412 . S
C855 C854 1.455 . S
C855 C856 1.331 . S
C856 C845 1.451 . S
C856 C855 1.331 . S
C856 C857 1.497 . S
C857 C848 1.395 . S
C857 C852 1.446 . S
C857 C856 1.497 . S
C858 C859 1.582 . S
C858 H915 0.962 . S
C858 H916 0.959 . S
C858 H917 0.958 . S
C859 C858 1.582 . S
C859 O862 1.458 . S
C859 H888 0.980 . S
O860 C805 1.426 . S
O860 C806 1.334 . S
O861 C833 1.412 . S
O861 C834 1.393 . S
O862 C824 1.435 . S
O862 C859 1.458 . S
O863 C815 1.468 . S
O863 C816 1.408 . S
H864 C805 0.980 . S
H865 C804 0.959 . S
H866 C804 0.959 . S
H867 C804 0.960 . S
H868 C807 0.929 . S
H869 C811 0.929 . S
H870 C812 0.959 . S
H871 C812 0.961 . S
H872 C812 0.961 . S
H873 C813 0.960 . S
H874 C813 0.960 . S
H875 C813 0.961 . S
H876 C815 0.980 . S
H877 C814 0.961 . S
H878 C814 0.960 . S
H879 C814 0.959 . S
H880 C817 0.930 . S
H881 C821 0.931 . S
H882 C822 0.959 . S
H883 C822 0.961 . S
H884 C822 0.959 . S
H885 C823 0.960 . S
H886 C823 0.960 . S
H887 C823 0.960 . S
H888 C859 0.980 . S
H889 C825 0.930 . S
H890 C829 0.930 . S
H891 C830 0.961 . S
H892 C830 0.960 . S
H893 C830 0.958 . S
H894 C831 0.961 . S
H895 C831 0.960 . S
H896 C831 0.960 . S
H897 C833 0.980 . S
H898 C832 0.961 . S
H899 C832 0.961 . S
H900 C832 0.959 . S
H901 C835 0.932 . S
H902 C839 0.929 . S
H903 C840 0.961 . S
H904 C840 0.959 . S
H905 C840 0.959 . S
H906 C841 0.960 . S
H907 C841 0.962 . S
H908 C841 0.961 . S
H909 C843 0.929 . S
H910 C846 0.930 . S
H911 C847 0.929 . S
H912 C850 0.930 . S
H913 C853 0.929 . S
H914 C854 0.930 . S
H915 C858 0.962 . S
H916 C858 0.959 . S
H917 C858 0.958 . S
C918 C919 1.560 . S
C918 H979 0.959 . S
C918 H980 0.959 . S
C918 H981 0.960 . S
C919 C918 1.560 . S
C919 O974 1.426 . S
C919 H978 0.980 . S
C920 C921 1.407 . S
C920 C925 1.418 . S
C920 O974 1.334 . S
C921 C920 1.407 . S
C921 C922 1.360 . S
C921 H982 0.929 . S
C922 C921 1.360 . S
C922 C923 1.401 . S
C922 C926 1.527 . S
C923 C922 1.401 . S
C923 C924 1.405 . S
C923 C956 1.587 . S
C924 C923 1.405 . S
C924 C925 1.332 . S
C924 C927 1.496 . S
C925 C920 1.418 . S
C925 C924 1.332 . S
C925 H983 0.929 . S
C926 C922 1.527 . S
C926 H984 0.959 . S
C926 H985 0.961 . S
C926 H986 0.961 . S
C927 C924 1.496 . S
C927 H987 0.960 . S
C927 H988 0.960 . S
C927 H989 0.961 . S
C928 C929 1.517 . S
C928 H991 0.961 . S
C928 H992 0.960 . S
C928 H993 0.959 . S
C929 C928 1.517 . S
C929 O977 1.468 . S
C929 H990 0.980 . S
C930 C931 1.349 . S
C930 C935 1.367 . S
C930 O977 1.408 . S
C931 C930 1.349 . S
C931 C932 1.407 . S
C931 H994 0.930 . S
C932 C931 1.407 . S
C932 C933 1.449 . S
C932 C936 1.535 . S
C933 C932 1.449 . S
C933 C934 1.384 . S
C933 C958 1.553 . S
C934 C933 1.384 . S
C934 C935 1.364 . S
C934 C937 1.450 . S
C935 C930 1.367 . S
C935 C934 1.364 . S
C935 H995 0.931 . S
C936 C932 1.535 . S
C936 H996 0.959 . S
C936 H997 0.961 . S
C936 H998 0.959 . S
C937 C934 1.450 . S
C937 H999 0.960 . S
C937 H1000 0.960 . S
C937 H1001 0.960 . S
C938 C939 1.309 . S
C938 C943 1.304 . S
C938 O976 1.435 . S
C939 C938 1.309 . S
C939 C940 1.476 . S
C939 H1003 0.930 . S
C940 C939 1.476 . S
C940 C941 1.400 . S
C940 C944 1.567 . S
C941 C940 1.400 . S
C941 C942 1.373 . S
C941 C963 1.432 . S
C942 C941 1.373 . S
C942 C943 1.339 . S
C942 C945 1.530 . S
C943 C938 1.304 . S
C943 C942 1.339 . S
C943 H1004 0.930 . S
C944 C940 1.567 . S
C944 H1005 0.961 . S
C944 H1006 0.960 . S
C944 H1007 0.958 . S
C945 C942 1.530 . S
C945 H1008 0.961 . S
C945 H1009 0.960 . S
C945 H1010 0.960 . S
C946 C947 1.530 . S
C946 H1012 0.961 . S
C946 H1013 0.961 . S
C946 H1014 0.959 . S
C947 C946 1.530 . S
C947 O975 1.412 . S
C947 H1011 0.980 . S
C948 C949 1.288 . S
C948 C953 1.377 . S
C948 O975 1.393 . S
C949 C948 1.288 . S
C949 C950 1.369 . S
C949 H1015 0.932 . S
C950 C949 1.369 . S
C950 C951 1.398 . S
C950 C954 1.527 . S
C951 C950 1.398 . S
C951 C952 1.380 . S
C951 C965 1.497 . S
C952 C951 1.380 . S
C952 C953 1.383 . S
C952 C955 1.603 . S
C953 C948 1.377 . S
C953 C952 1.383 . S
C953 H1016 0.929 . S
C954 C950 1.527 . S
C954 H1017 0.961 . S
C954 H1018 0.959 . S
C954 H1019 0.959 . S
C955 C952 1.603 . S
C955 H1020 0.960 . S
C955 H1021 0.962 . S
C955 H1022 0.961 . S
C956 C923 1.587 . S
C956 C957 1.360 . S
C956 C969 1.412 . S
C957 C956 1.360 . S
C957 C958 1.365 . S
C957 H1023 0.929 . S
C958 C933 1.553 . S
C958 C957 1.365 . S
C958 C959 1.404 . S
C959 C958 1.404 . S
C959 C960 1.395 . S
C959 C970 1.451 . S
C960 C959 1.395 . S
C960 C961 1.322 . S
C960 H1024 0.930 . S
C961 C960 1.322 . S
C961 C962 1.459 . S
C961 H1025 0.929 . S
C962 C961 1.459 . S
C962 C963 1.445 . S
C962 C971 1.395 . S
C963 C941 1.432 . S
C963 C962 1.445 . S
C963 C964 1.370 . S
C964 C963 1.370 . S
C964 C965 1.438 . S
C964 H1026 0.930 . S
C965 C951 1.497 . S
C965 C964 1.438 . S
C965 C966 1.360 . S
C966 C965 1.360 . S
C966 C967 1.401 . S
C966 C971 1.446 . S
C967 C966 1.401 . S
C967 C968 1.347 . S
C967 H1027 0.929 . S
C968 C967 1.347 . S
C968 C969 1.455 . S
C968 H1028 0.930 . S
C969 C956 1.412 . S
C969 C968 1.455 . S
C969 C970 1.331 . S
C970 C959 1.451 . S
C970 C969 1.331 . S
C970 C971 1.497 . S
C971 C962 1.395 . S
C971 C966 1.446 . S
C971 C970 1.497 . S
C972 C973 1.582 . S
C972 H1029 0.962 . S
C972 H1030 0.959 . S
C972 H1031 0.958 . S
C973 C972 1.582 . S
C973 O976 1.458 . S
C973 H1002 0.980 . S
O974 C919 1.426 . S
O974 C920 1.334 . S
O975 C947 1.412 . S
O975 C948 1.393 . S
O976 C938 1.435 . S
O976 C973 1.458 . S
O977 C929 1.468 . S
O977 C930 1.408 . S
H978 C919 0.980 . S
H979 C918 0.959 . S
H980 C918 0.959 . S
H981 C918 0.960 . S
H982 C921 0.929 . S
H983 C925 0.929 . S
H984 C926 0.959 . S
H985 C926 0.961 . S
H986 C926 0.961 . S
H987 C927 0.960 . S
H988 C927 0.960 . S
H989 C927 0.961 . S
H990 C929 0.980 . S
H991 C928 0.961 . S
H992 C928 0.960 . S
H993 C928 0.959 . S
H994 C931 0.930 . S
H995 C935 0.931 . S
H996 C936 0.959 . S
H997 C936 0.961 . S
H998 C936 0.959 . S
H999 C937 0.960 . S
H1000 C937 0.960 . S
H1001 C937 0.960 . S
H1002 C973 0.980 . S
H1003 C939 0.930 . S
H1004 C943 0.930 . S
H1005 C944 0.961 . S
H1006 C944 0.960 . S
H1007 C944 0.958 . S
H1008 C945 0.961 . S
H1009 C945 0.960 . S
H1010 C945 0.960 . S
H1011 C947 0.980 . S
H1012 C946 0.961 . S
H1013 C946 0.961 . S
H1014 C946 0.959 . S
H1015 C949 0.932 . S
H1016 C953 0.929 . S
H1017 C954 0.961 . S
H1018 C954 0.959 . S
H1019 C954 0.959 . S
H1020 C955 0.960 . S
H1021 C955 0.962 . S
H1022 C955 0.961 . S
H1023 C957 0.929 . S
H1024 C960 0.930 . S
H1025 C961 0.929 . S
H1026 C964 0.930 . S
H1027 C967 0.929 . S
H1028 C968 0.930 . S
H1029 C972 0.962 . S
H1030 C972 0.959 . S
H1031 C972 0.958 . S
C1032 C1033 1.560 . S
C1032 H1093 0.959 . S
C1032 H1094 0.959 . S
C1032 H1095 0.960 . S
C1033 C1032 1.560 . S
C1033 O1088 1.426 . S
C1033 H1092 0.980 . S
C1034 C1035 1.407 . S
C1034 C1039 1.418 . S
C1034 O1088 1.334 . S
C1035 C1034 1.407 . S
C1035 C1036 1.360 . S
C1035 H1096 0.929 . S
C1036 C1035 1.360 . S
C1036 C1037 1.401 . S
C1036 C1040 1.527 . S
C1037 C1036 1.401 . S
C1037 C1038 1.405 . S
C1037 C1070 1.587 . S
C1038 C1037 1.405 . S
C1038 C1039 1.332 . S
C1038 C1041 1.496 . S
C1039 C1034 1.418 . S
C1039 C1038 1.332 . S
C1039 H1097 0.929 . S
C1040 C1036 1.527 . S
C1040 H1098 0.959 . S
C1040 H1099 0.961 . S
C1040 H1100 0.961 . S
C1041 C1038 1.496 . S
C1041 H1101 0.960 . S
C1041 H1102 0.960 . S
C1041 H1103 0.961 . S
C1042 C1043 1.517 . S
C1042 H1105 0.961 . S
C1042 H1106 0.960 . S
C1042 H1107 0.959 . S
C1043 C1042 1.517 . S
C1043 O1091 1.468 . S
C1043 H1104 0.980 . S
C1044 C1045 1.349 . S
C1044 C1049 1.367 . S
C1044 O1091 1.408 . S
C1045 C1044 1.349 . S
C1045 C1046 1.407 . S
C1045 H1108 0.930 . S
C1046 C1045 1.407 . S
C1046 C1047 1.449 . S
C1046 C1050 1.535 . S
C1047 C1046 1.449 . S
C1047 C1048 1.384 . S
C1047 C1072 1.553 . S
C1048 C1047 1.384 . S
C1048 C1049 1.364 . S
C1048 C1051 1.450 . S
C1049 C1044 1.367 . S
C1049 C1048 1.364 . S
C1049 H1109 0.931 . S
C1050 C1046 1.535 . S
C1050 H1110 0.959 . S
C1050 H1111 0.961 . S
C1050 H1112 0.959 . S
C1051 C1048 1.450 . S
C1051 H1113 0.960 . S
C1051 H1114 0.960 . S
C1051 H1115 0.960 . S
C1052 C1053 1.309 . S
C1052 C1057 1.304 . S
C1052 O1090 1.435 . S
C1053 C1052 1.309 . S
C1053 C1054 1.476 . S
C1053 H1117 0.930 . S
C1054 C1053 1.476 . S
C1054 C1055 1.400 . S
C1054 C1058 1.567 . S
C1055 C1054 1.400 . S
C1055 C1056 1.373 . S
C1055 C1077 1.432 . S
C1056 C1055 1.373 . S
C1056 C1057 1.339 . S
C1056 C1059 1.530 . S
C1057 C1052 1.304 . S
C1057 C1056 1.339 . S
C1057 H1118 0.930 . S
C1058 C1054 1.567 . S
C1058 H1119 0.961 . S
C1058 H1120 0.960 . S
C1058 H1121 0.958 . S
C1059 C1056 1.530 . S
C1059 H1122 0.961 . S
C1059 H1123 0.960 . S
C1059 H1124 0.960 . S
C1060 C1061 1.530 . S
C1060 H1126 0.961 . S
C1060 H1127 0.961 . S
C1060 H1128 0.959 . S
C1061 C1060 1.530 . S
C1061 O1089 1.412 . S
C1061 H1125 0.980 . S
C1062 C1063 1.288 . S
C1062 C1067 1.377 . S
C1062 O1089 1.393 . S
C1063 C1062 1.288 . S
C1063 C1064 1.369 . S
C1063 H1129 0.932 . S
C1064 C1063 1.369 . S
C1064 C1065 1.398 . S
C1064 C1068 1.527 . S
C1065 C1064 1.398 . S
C1065 C1066 1.380 . S
C1065 C1079 1.497 . S
C1066 C1065 1.380 . S
C1066 C1067 1.383 . S
C1066 C1069 1.603 . S
C1067 C1062 1.377 . S
C1067 C1066 1.383 . S
C1067 H1130 0.929 . S
C1068 C1064 1.527 . S
C1068 H1131 0.961 . S
C1068 H1132 0.959 . S
C1068 H1133 0.959 . S
C1069 C1066 1.603 . S
C1069 H1134 0.960 . S
C1069 H1135 0.962 . S
C1069 H1136 0.961 . S
C1070 C1037 1.587 . S
C1070 C1071 1.360 . S
C1070 C1083 1.412 . S
C1071 C1070 1.360 . S
C1071 C1072 1.365 . S
C1071 H1137 0.929 . S
C1072 C1047 1.553 . S
C1072 C1071 1.365 . S
C1072 C1073 1.404 . S
C1073 C1072 1.404 . S
C1073 C1074 1.395 . S
C1073 C1084 1.451 . S
C1074 C1073 1.395 . S
C1074 C1075 1.322 . S
C1074 H1138 0.930 . S
C1075 C1074 1.322 . S
C1075 C1076 1.459 . S
C1075 H1139 0.929 . S
C1076 C1075 1.459 . S
C1076 C1077 1.445 . S
C1076 C1085 1.395 . S
C1077 C1055 1.432 . S
C1077 C1076 1.445 . S
C1077 C1078 1.370 . S
C1078 C1077 1.370 . S
C1078 C1079 1.438 . S
C1078 H1140 0.930 . S
C1079 C1065 1.497 . S
C1079 C1078 1.438 . S
C1079 C1080 1.360 . S
C1080 C1079 1.360 . S
C1080 C1081 1.401 . S
C1080 C1085 1.446 . S
C1081 C1080 1.401 . S
C1081 C1082 1.347 . S
C1081 H1141 0.929 . S
C1082 C1081 1.347 . S
C1082 C1083 1.455 . S
C1082 H1142 0.930 . S
C1083 C1070 1.412 . S
C1083 C1082 1.455 . S
C1083 C1084 1.331 . S
C1084 C1073 1.451 . S
C1084 C1083 1.331 . S
C1084 C1085 1.497 . S
C1085 C1076 1.395 . S
C1085 C1080 1.446 . S
C1085 C1084 1.497 . S
C1086 C1087 1.582 . S
C1086 H1143 0.962 . S
C1086 H1144 0.959 . S
C1086 H1145 0.958 . S
C1087 C1086 1.582 . S
C1087 O1090 1.458 . S
C1087 H1116 0.980 . S
O1088 C1033 1.426 . S
O1088 C1034 1.334 . S
O1089 C1061 1.412 . S
O1089 C1062 1.393 . S
O1090 C1052 1.435 . S
O1090 C1087 1.458 . S
O1091 C1043 1.468 . S
O1091 C1044 1.408 . S
H1092 C1033 0.980 . S
H1093 C1032 0.959 . S
H1094 C1032 0.959 . S
H1095 C1032 0.960 . S
H1096 C1035 0.929 . S
H1097 C1039 0.929 . S
H1098 C1040 0.959 . S
H1099 C1040 0.961 . S
H1100 C1040 0.961 . S
H1101 C1041 0.960 . S
H1102 C1041 0.960 . S
H1103 C1041 0.961 . S
H1104 C1043 0.980 . S
H1105 C1042 0.961 . S
H1106 C1042 0.960 . S
H1107 C1042 0.959 . S
H1108 C1045 0.930 . S
H1109 C1049 0.931 . S
H1110 C1050 0.959 . S
H1111 C1050 0.961 . S
H1112 C1050 0.959 . S
H1113 C1051 0.960 . S
H1114 C1051 0.960 . S
H1115 C1051 0.960 . S
H1116 C1087 0.980 . S
H1117 C1053 0.930 . S
H1118 C1057 0.930 . S
H1119 C1058 0.961 . S
H1120 C1058 0.960 . S
H1121 C1058 0.958 . S
H1122 C1059 0.961 . S
H1123 C1059 0.960 . S
H1124 C1059 0.960 . S
H1125 C1061 0.980 . S
H1126 C1060 0.961 . S
H1127 C1060 0.961 . S
H1128 C1060 0.959 . S
H1129 C1063 0.932 . S
H1130 C1067 0.929 . S
H1131 C1068 0.961 . S
H1132 C1068 0.959 . S
H1133 C1068 0.959 . S
H1134 C1069 0.960 . S
H1135 C1069 0.962 . S
H1136 C1069 0.961 . S
H1137 C1071 0.929 . S
H1138 C1074 0.930 . S
H1139 C1075 0.929 . S
H1140 C1078 0.930 . S
H1141 C1081 0.929 . S
H1142 C1082 0.930 . S
H1143 C1086 0.962 . S
H1144 C1086 0.959 . S
H1145 C1086 0.958 . S
C1146 C1147 1.560 . S
C1146 H1207 0.959 . S
C1146 H1208 0.959 . S
C1146 H1209 0.960 . S
C1147 C1146 1.560 . S
C1147 O1202 1.426 . S
C1147 H1206 0.980 . S
C1148 C1149 1.407 . S
C1148 C1153 1.418 . S
C1148 O1202 1.334 . S
C1149 C1148 1.407 . S
C1149 C1150 1.360 . S
C1149 H1210 0.929 . S
C1150 C1149 1.360 . S
C1150 C1151 1.401 . S
C1150 C1154 1.527 . S
C1151 C1150 1.401 . S
C1151 C1152 1.405 . S
C1151 C1184 1.587 . S
C1152 C1151 1.405 . S
C1152 C1153 1.332 . S
C1152 C1155 1.496 . S
C1153 C1148 1.418 . S
C1153 C1152 1.332 . S
C1153 H1211 0.929 . S
C1154 C1150 1.527 . S
C1154 H1212 0.959 . S
C1154 H1213 0.961 . S
C1154 H1214 0.961 . S
C1155 C1152 1.496 . S
C1155 H1215 0.960 . S
C1155 H1216 0.960 . S
C1155 H1217 0.961 . S
C1156 C1157 1.517 . S
C1156 H1219 0.961 . S
C1156 H1220 0.960 . S
C1156 H1221 0.959 . S
C1157 C1156 1.517 . S
C1157 O1205 1.468 . S
C1157 H1218 0.980 . S
C1158 C1159 1.349 . S
C1158 C1163 1.367 . S
C1158 O1205 1.408 . S
C1159 C1158 1.349 . S
C1159 C1160 1.407 . S
C1159 H1222 0.930 . S
C1160 C1159 1.407 . S
C1160 C1161 1.449 . S
C1160 C1164 1.535 . S
C1161 C1160 1.449 . S
C1161 C1162 1.384 . S
C1161 C1186 1.553 . S
C1162 C1161 1.384 . S
C1162 C1163 1.364 . S
C1162 C1165 1.450 . S
C1163 C1158 1.367 . S
C1163 C1162 1.364 . S
C1163 H1223 0.931 . S
C1164 C1160 1.535 . S
C1164 H1224 0.959 . S
C1164 H1225 0.961 . S
C1164 H1226 0.959 . S
C1165 C1162 1.450 . S
C1165 H1227 0.960 . S
C1165 H1228 0.960 . S
C1165 H1229 0.960 . S
C1166 C1167 1.309 . S
C1166 C1171 1.304 . S
C1166 O1204 1.435 . S
C1167 C1166 1.309 . S
C1167 C1168 1.476 . S
C1167 H1231 0.930 . S
C1168 C1167 1.476 . S
C1168 C1169 1.400 . S
C1168 C1172 1.567 . S
C1169 C1168 1.400 . S
C1169 C1170 1.373 . S
C1169 C1191 1.432 . S
C1170 C1169 1.373 . S
C1170 C1171 1.339 . S
C1170 C1173 1.530 . S
C1171 C1166 1.304 . S
C1171 C1170 1.339 . S
C1171 H1232 0.930 . S
C1172 C1168 1.567 . S
C1172 H1233 0.961 . S
C1172 H1234 0.960 . S
C1172 H1235 0.958 . S
C1173 C1170 1.530 . S
C1173 H1236 0.961 . S
C1173 H1237 0.960 . S
C1173 H1238 0.960 . S
C1174 C1175 1.530 . S
C1174 H1240 0.961 . S
C1174 H1241 0.961 . S
C1174 H1242 0.959 . S
C1175 C1174 1.530 . S
C1175 O1203 1.412 . S
C1175 H1239 0.980 . S
C1176 C1177 1.288 . S
C1176 C1181 1.377 . S
C1176 O1203 1.393 . S
C1177 C1176 1.288 . S
C1177 C1178 1.369 . S
C1177 H1243 0.932 . S
C1178 C1177 1.369 . S
C1178 C1179 1.398 . S
C1178 C1182 1.527 . S
C1179 C1178 1.398 . S
C1179 C1180 1.380 . S
C1179 C1193 1.497 . S
C1180 C1179 1.380 . S
C1180 C1181 1.383 . S
C1180 C1183 1.603 . S
C1181 C1176 1.377 . S
C1181 C1180 1.383 . S
C1181 H1244 0.929 . S
C1182 C1178 1.527 . S
C1182 H1245 0.961 . S
C1182 H1246 0.959 . S
C1182 H1247 0.959 . S
C1183 C1180 1.603 . S
C1183 H1248 0.960 . S
C1183 H1249 0.962 . S
C1183 H1250 0.961 . S
C1184 C1151 1.587 . S
C1184 C1185 1.360 . S
C1184 C1197 1.412 . S
C1185 C1184 1.360 . S
C1185 C1186 1.365 . S
C1185 H1251 0.929 . S
C1186 C1161 1.553 . S
C1186 C1185 1.365 . S
C1186 C1187 1.404 . S
C1187 C1186 1.404 . S
C1187 C1188 1.395 . S
C1187 C1198 1.451 . S
C1188 C1187 1.395 . S
C1188 C1189 1.322 . S
C1188 H1252 0.930 . S
C1189 C1188 1.322 . S
C1189 C1190 1.459 . S
C1189 H1253 0.929 . S
C1190 C1189 1.459 . S
C1190 C1191 1.445 . S
C1190 C1199 1.395 . S
C1191 C1169 1.432 . S
C1191 C1190 1.445 . S
C1191 C1192 1.370 . S
C1192 C1191 1.370 . S
C1192 C1193 1.438 . S
C1192 H1254 0.930 . S
C1193 C1179 1.497 . S
C1193 C1192 1.438 . S
C1193 C1194 1.360 . S
C1194 C1193 1.360 . S
C1194 C1195 1.401 . S
C1194 C1199 1.446 . S
C1195 C1194 1.401 . S
C1195 C1196 1.347 . S
C1195 H1255 0.929 . S
C1196 C1195 1.347 . S
C1196 C1197 1.455 . S
C1196 H1256 0.930 . S
C1197 C1184 1.412 . S
C1197 C1196 1.455 . S
C1197 C1198 1.331 . S
C1198 C1187 1.451 . S
C1198 C1197 1.331 . S
C1198 C1199 1.497 . S
C1199 C1190 1.395 . S
C1199 C1194 1.446 . S
C1199 C1198 1.497 . S
C1200 C1201 1.582 . S
C1200 H1257 0.962 . S
C1200 H1258 0.959 . S
C1200 H1259 0.958 . S
C1201 C1200 1.582 . S
C1201 O1204 1.458 . S
C1201 H1230 0.980 . S
O1202 C1147 1.426 . S
O1202 C1148 1.334 . S
O1203 C1175 1.412 . S
O1203 C1176 1.393 . S
O1204 C1166 1.435 . S
O1204 C1201 1.458 . S
O1205 C1157 1.468 . S
O1205 C1158 1.408 . S
H1206 C1147 0.980 . S
H1207 C1146 0.959 . S
H1208 C1146 0.959 . S
H1209 C1146 0.960 . S
H1210 C1149 0.929 . S
H1211 C1153 0.929 . S
H1212 C1154 0.959 . S
H1213 C1154 0.961 . S
H1214 C1154 0.961 . S
H1215 C1155 0.960 . S
H1216 C1155 0.960 . S
H1217 C1155 0.961 . S
H1218 C1157 0.980 . S
H1219 C1156 0.961 . S
H1220 C1156 0.960 . S
H1221 C1156 0.959 . S
H1222 C1159 0.930 . S
H1223 C1163 0.931 . S
H1224 C1164 0.959 . S
H1225 C1164 0.961 . S
H1226 C1164 0.959 . S
H1227 C1165 0.960 . S
H1228 C1165 0.960 . S
H1229 C1165 0.960 . S
H1230 C1201 0.980 . S
H1231 C1167 0.930 . S
H1232 C1171 0.930 . S
H1233 C1172 0.961 . S
H1234 C1172 0.960 . S
H1235 C1172 0.958 . S
H1236 C1173 0.961 . S
H1237 C1173 0.960 . S
H1238 C1173 0.960 . S
H1239 C1175 0.980 . S
H1240 C1174 0.961 . S
H1241 C1174 0.961 . S
H1242 C1174 0.959 . S
H1243 C1177 0.932 . S
H1244 C1181 0.929 . S
H1245 C1182 0.961 . S
H1246 C1182 0.959 . S
H1247 C1182 0.959 . S
H1248 C1183 0.960 . S
H1249 C1183 0.962 . S
H1250 C1183 0.961 . S
H1251 C1185 0.929 . S
H1252 C1188 0.930 . S
H1253 C1189 0.929 . S
H1254 C1192 0.930 . S
H1255 C1195 0.929 . S
H1256 C1196 0.930 . S
H1257 C1200 0.962 . S
H1258 C1200 0.959 . S
H1259 C1200 0.958 . S
C1260 C1261 1.560 . S
C1260 H1321 0.959 . S
C1260 H1322 0.959 . S
C1260 H1323 0.960 . S
C1261 C1260 1.560 . S
C1261 O1316 1.426 . S
C1261 H1320 0.980 . S
C1262 C1263 1.407 1_455 S
C1262 C1267 1.418 . S
C1262 O1316 1.334 . S
C1263 C1262 1.407 1_655 S
C1263 C1264 1.360 . S
C1263 H1324 0.929 . S
C1264 C1263 1.360 . S
C1264 C1265 1.401 1_655 S
C1264 C1268 1.527 . S
C1265 C1264 1.401 1_455 S
C1265 C1266 1.405 . S
C1265 C1298 1.587 1_455 S
C1266 C1265 1.405 . S
C1266 C1267 1.332 . S
C1266 C1269 1.496 . S
C1267 C1262 1.418 . S
C1267 C1266 1.332 . S
C1267 H1325 0.929 . S
C1268 C1264 1.527 . S
C1268 H1326 0.959 . S
C1268 H1327 0.961 . S
C1268 H1328 0.961 . S
C1269 C1266 1.496 . S
C1269 H1329 0.960 . S
C1269 H1330 0.960 . S
C1269 H1331 0.961 . S
C1270 C1271 1.517 . S
C1270 H1333 0.961 . S
C1270 H1334 0.960 . S
C1270 H1335 0.959 . S
C1271 C1270 1.517 . S
C1271 O1319 1.468 . S
C1271 H1332 0.930 1_655 S
C1272 C1273 1.349 . S
C1272 C1277 1.367 . S
C1272 O1319 1.408 . S
C1273 C1272 1.349 . S
C1273 C1274 1.391 1_655 S
C1273 H1336 0.930 1_655 S
C1274 C1273 1.391 1_455 S
C1274 C1275 1.437 1_455 S
C1274 C1278 1.561 . S
C1275 C1274 1.437 1_655 S
C1275 C1276 1.384 . S
C1275 C1300 1.553 . S
C1276 C1275 1.384 . S
C1276 C1277 1.364 . S
C1276 C1279 1.450 . S
C1277 C1272 1.367 . S
C1277 C1276 1.364 . S
C1277 H1337 0.931 . S
C1278 C1274 1.561 . S
C1278 H1338 0.959 . S
C1278 H1339 0.961 . S
C1278 H1340 0.959 . S
C1279 C1276 1.450 . S
C1279 H1341 0.960 . S
C1279 H1342 0.960 . S
C1279 H1343 0.960 . S
C1280 C1281 1.309 . S
C1280 C1285 1.304 . S
C1280 O1318 1.435 . S
C1281 C1280 1.309 . S
C1281 C1282 1.491 . S
C1281 H1345 0.930 1_655 S
C1282 C1281 1.491 . S
C1282 C1283 1.408 . S
C1282 C1286 1.544 1_655 S
C1283 C1282 1.408 . S
C1283 C1284 1.373 . S
C1283 C1305 1.432 . S
C1284 C1283 1.373 . S
C1284 C1285 1.339 . S
C1284 C1287 1.530 . S
C1285 C1280 1.304 . S
C1285 C1284 1.339 . S
C1285 H1346 0.930 . S
C1286 C1282 1.544 1_455 S
C1286 H1347 0.961 . S
C1286 H1348 0.960 . S
C1286 H1349 0.958 . S
C1287 C1284 1.530 . S
C1287 H1350 0.961 . S
C1287 H1351 0.960 . S
C1287 H1352 0.960 . S
C1288 C1289 1.530 . S
C1288 H1354 0.961 . S
C1288 H1355 0.961 . S
C1288 H1356 0.959 . S
C1289 C1288 1.530 . S
C1289 O1317 1.412 . S
C1289 H1353 0.980 1_455 S
C1290 C1291 1.288 . S
C1290 C1295 1.377 1_455 S
C1290 O1317 1.393 . S
C1291 C1290 1.288 . S
C1291 C1292 1.369 . S
C1291 H1357 0.932 . S
C1292 C1291 1.369 . S
C1292 C1293 1.398 1_455 S
C1292 C1296 1.527 . S
C1293 C1292 1.398 1_655 S
C1293 C1294 1.380 . S
C1293 C1307 1.497 . S
C1294 C1293 1.380 . S
C1294 C1295 1.383 . S
C1294 C1297 1.603 . S
C1295 C1290 1.377 1_655 S
C1295 C1294 1.383 . S
C1295 H1358 0.929 . S
C1296 C1292 1.527 . S
C1296 H1359 0.961 . S
C1296 H1360 0.959 . S
C1296 H1361 0.959 . S
C1297 C1294 1.603 . S
C1297 H1362 0.960 . S
C1297 H1363 0.962 . S
C1297 H1364 0.961 . S
C1298 C1265 1.587 1_655 S
C1298 C1299 1.360 . S
C1298 C1311 1.412 . S
C1299 C1298 1.360 . S
C1299 C1300 1.365 . S
C1299 H1365 0.929 . S
C1300 C1275 1.553 . S
C1300 C1299 1.365 . S
C1300 C1301 1.404 . S
C1301 C1300 1.404 . S
C1301 C1302 1.395 . S
C1301 C1312 1.451 . S
C1302 C1301 1.395 . S
C1302 C1303 1.322 . S
C1302 H1366 0.930 . S
C1303 C1302 1.322 . S
C1303 C1304 1.459 . S
C1303 H1367 0.929 . S
C1304 C1303 1.459 . S
C1304 C1305 1.445 . S
C1304 C1313 1.395 . S
C1305 C1283 1.432 . S
C1305 C1304 1.445 . S
C1305 C1306 1.370 . S
C1306 C1305 1.370 . S
C1306 C1307 1.438 . S
C1306 H1368 0.930 . S
C1307 C1293 1.497 . S
C1307 C1306 1.438 . S
C1307 C1308 1.360 . S
C1308 C1307 1.360 . S
C1308 C1309 1.401 . S
C1308 C1313 1.446 . S
C1309 C1308 1.401 . S
C1309 C1310 1.347 . S
C1309 H1369 0.929 . S
C1310 C1309 1.347 . S
C1310 C1311 1.455 . S
C1310 H1370 0.972 . S
C1311 C1298 1.412 . S
C1311 C1310 1.455 . S
C1311 C1312 1.331 . S
C1312 C1301 1.451 . S
C1312 C1311 1.331 . S
C1312 C1313 1.497 . S
C1313 C1304 1.395 . S
C1313 C1308 1.446 . S
C1313 C1312 1.497 . S
C1314 C1315 1.582 . S
C1314 H1371 0.962 . S
C1314 H1372 0.959 . S
C1314 H1373 0.958 . S
C1315 C1314 1.582 . S
C1315 O1318 1.458 . S
C1315 H1344 0.980 . S
O1316 C1261 1.426 . S
O1316 C1262 1.334 . S
O1317 C1289 1.412 . S
O1317 C1290 1.393 . S
O1318 C1280 1.435 . S
O1318 C1315 1.458 . S
O1319 C1271 1.468 . S
O1319 C1272 1.408 . S
H1320 C1261 0.980 . S
H1321 C1260 0.959 . S
H1322 C1260 0.959 . S
H1323 C1260 0.960 . S
H1324 C1263 0.929 . S
H1325 C1267 0.929 . S
H1326 C1268 0.959 . S
H1327 C1268 0.961 . S
H1328 C1268 0.961 . S
H1329 C1269 0.960 . S
H1330 C1269 0.960 . S
H1331 C1269 0.961 . S
H1332 C1271 0.930 1_455 S
H1333 C1270 0.961 . S
H1334 C1270 0.960 . S
H1335 C1270 0.959 . S
H1336 C1273 0.930 1_455 S
H1337 C1277 0.931 . S
H1338 C1278 0.959 . S
H1339 C1278 0.961 . S
H1340 C1278 0.959 . S
H1341 C1279 0.960 . S
H1342 C1279 0.960 . S
H1343 C1279 0.960 . S
H1344 C1315 0.980 . S
H1345 C1281 0.930 1_455 S
H1346 C1285 0.930 . S
H1347 C1286 0.961 . S
H1348 C1286 0.960 . S
H1349 C1286 0.958 . S
H1350 C1287 0.961 . S
H1351 C1287 0.960 . S
H1352 C1287 0.960 . S
H1353 C1289 0.980 1_655 S
H1354 C1288 0.961 . S
H1355 C1288 0.961 . S
H1356 C1288 0.959 . S
H1357 C1291 0.932 . S
H1358 C1295 0.929 . S
H1359 C1296 0.961 . S
H1360 C1296 0.959 . S
H1361 C1296 0.959 . S
H1362 C1297 0.960 . S
H1363 C1297 0.962 . S
H1364 C1297 0.961 . S
H1365 C1299 0.929 . S
H1366 C1302 0.930 . S
H1367 C1303 0.929 . S
H1368 C1306 0.930 . S
H1369 C1309 0.929 . S
H1370 C1310 0.972 . S
H1371 C1314 0.962 . S
H1372 C1314 0.959 . S
H1373 C1314 0.958 . S
C1374 C1375 1.560 . S
C1374 H1435 0.959 . S
C1374 H1436 0.959 . S
C1374 H1437 0.960 . S
C1375 C1374 1.560 . S
C1375 O1430 1.426 . S
C1375 H1434 0.980 . S
C1376 C1377 1.407 . S
C1376 C1381 1.418 . S
C1376 O1430 1.334 . S
C1377 C1376 1.407 . S
C1377 C1378 1.360 . S
C1377 H1438 0.929 . S
C1378 C1377 1.360 . S
C1378 C1379 1.401 . S
C1378 C1382 1.527 . S
C1379 C1378 1.401 . S
C1379 C1380 1.405 . S
C1379 C1412 1.587 . S
C1380 C1379 1.405 . S
C1380 C1381 1.332 . S
C1380 C1383 1.496 . S
C1381 C1376 1.418 . S
C1381 C1380 1.332 . S
C1381 H1439 0.929 . S
C1382 C1378 1.527 . S
C1382 H1440 0.959 . S
C1382 H1441 0.961 . S
C1382 H1442 0.961 . S
C1383 C1380 1.496 . S
C1383 H1443 0.960 . S
C1383 H1444 0.960 . S
C1383 H1445 0.961 . S
C1384 C1385 1.517 . S
C1384 H1447 0.961 . S
C1384 H1448 0.960 . S
C1384 H1449 0.959 . S
C1385 C1384 1.517 . S
C1385 O1433 1.468 . S
C1385 H1446 0.980 . S
C1386 C1387 1.349 . S
C1386 C1391 1.367 . S
C1386 O1433 1.408 . S
C1387 C1386 1.349 . S
C1387 C1388 1.407 . S
C1387 H1450 0.930 . S
C1388 C1387 1.407 . S
C1388 C1389 1.449 . S
C1388 C1392 1.535 . S
C1389 C1388 1.449 . S
C1389 C1390 1.384 . S
C1389 C1414 1.553 . S
C1390 C1389 1.384 . S
C1390 C1391 1.364 . S
C1390 C1393 1.450 . S
C1391 C1386 1.367 . S
C1391 C1390 1.364 . S
C1391 H1451 0.931 . S
C1392 C1388 1.535 . S
C1392 H1452 0.959 . S
C1392 H1453 0.961 . S
C1392 H1454 0.959 . S
C1393 C1390 1.450 . S
C1393 H1455 0.960 . S
C1393 H1456 0.960 . S
C1393 H1457 0.960 . S
C1394 C1395 1.309 . S
C1394 C1399 1.304 . S
C1394 O1432 1.435 . S
C1395 C1394 1.309 . S
C1395 C1396 1.476 . S
C1395 H1459 0.930 . S
C1396 C1395 1.476 . S
C1396 C1397 1.400 . S
C1396 C1400 1.567 . S
C1397 C1396 1.400 . S
C1397 C1398 1.373 . S
C1397 C1419 1.432 . S
C1398 C1397 1.373 . S
C1398 C1399 1.339 . S
C1398 C1401 1.530 . S
C1399 C1394 1.304 . S
C1399 C1398 1.339 . S
C1399 H1460 0.930 . S
C1400 C1396 1.567 . S
C1400 H1461 0.961 . S
C1400 H1462 0.960 . S
C1400 H1463 0.958 . S
C1401 C1398 1.530 . S
C1401 H1464 0.961 . S
C1401 H1465 0.960 . S
C1401 H1466 0.960 . S
C1402 C1403 1.530 . S
C1402 H1468 0.961 . S
C1402 H1469 0.961 . S
C1402 H1470 0.959 . S
C1403 C1402 1.530 . S
C1403 O1431 1.412 . S
C1403 H1467 0.980 . S
C1404 C1405 1.288 . S
C1404 C1409 1.377 . S
C1404 O1431 1.393 . S
C1405 C1404 1.288 . S
C1405 C1406 1.369 . S
C1405 H1471 0.932 . S
C1406 C1405 1.369 . S
C1406 C1407 1.398 . S
C1406 C1410 1.527 . S
C1407 C1406 1.398 . S
C1407 C1408 1.380 . S
C1407 C1421 1.497 . S
C1408 C1407 1.380 . S
C1408 C1409 1.383 . S
C1408 C1411 1.603 . S
C1409 C1404 1.377 . S
C1409 C1408 1.383 . S
C1409 H1472 0.929 . S
C1410 C1406 1.527 . S
C1410 H1473 0.961 . S
C1410 H1474 0.959 . S
C1410 H1475 0.959 . S
C1411 C1408 1.603 . S
C1411 H1476 0.960 . S
C1411 H1477 0.962 . S
C1411 H1478 0.961 . S
C1412 C1379 1.587 . S
C1412 C1413 1.360 . S
C1412 C1425 1.412 . S
C1413 C1412 1.360 . S
C1413 C1414 1.365 . S
C1413 H1479 0.929 . S
C1414 C1389 1.553 . S
C1414 C1413 1.365 . S
C1414 C1415 1.404 . S
C1415 C1414 1.404 . S
C1415 C1416 1.395 . S
C1415 C1426 1.451 . S
C1416 C1415 1.395 . S
C1416 C1417 1.322 . S
C1416 H1480 0.930 . S
C1417 C1416 1.322 . S
C1417 C1418 1.459 . S
C1417 H1481 0.929 . S
C1418 C1417 1.459 . S
C1418 C1419 1.445 . S
C1418 C1427 1.395 . S
C1419 C1397 1.432 . S
C1419 C1418 1.445 . S
C1419 C1420 1.370 . S
C1420 C1419 1.370 . S
C1420 C1421 1.438 . S
C1420 H1482 0.930 . S
C1421 C1407 1.497 . S
C1421 C1420 1.438 . S
C1421 C1422 1.360 . S
C1422 C1421 1.360 . S
C1422 C1423 1.401 . S
C1422 C1427 1.446 . S
C1423 C1422 1.401 . S
C1423 C1424 1.347 . S
C1423 H1483 0.929 . S
C1424 C1423 1.347 . S
C1424 C1425 1.455 . S
C1424 H1484 0.930 . S
C1425 C1412 1.412 . S
C1425 C1424 1.455 . S
C1425 C1426 1.331 . S
C1426 C1415 1.451 . S
C1426 C1425 1.331 . S
C1426 C1427 1.497 . S
C1427 C1418 1.395 . S
C1427 C1422 1.446 . S
C1427 C1426 1.497 . S
C1428 C1429 1.582 . S
C1428 H1485 0.962 . S
C1428 H1486 0.959 . S
C1428 H1487 0.958 . S
C1429 C1428 1.582 . S
C1429 O1432 1.458 . S
C1429 H1458 0.980 . S
O1430 C1375 1.426 . S
O1430 C1376 1.334 . S
O1431 C1403 1.412 . S
O1431 C1404 1.393 . S
O1432 C1394 1.435 . S
O1432 C1429 1.458 . S
O1433 C1385 1.468 . S
O1433 C1386 1.408 . S
H1434 C1375 0.980 . S
H1435 C1374 0.959 . S
H1436 C1374 0.959 . S
H1437 C1374 0.960 . S
H1438 C1377 0.929 . S
H1439 C1381 0.929 . S
H1440 C1382 0.959 . S
H1441 C1382 0.961 . S
H1442 C1382 0.961 . S
H1443 C1383 0.960 . S
H1444 C1383 0.960 . S
H1445 C1383 0.961 . S
H1446 C1385 0.980 . S
H1447 C1384 0.961 . S
H1448 C1384 0.960 . S
H1449 C1384 0.959 . S
H1450 C1387 0.930 . S
H1451 C1391 0.931 . S
H1452 C1392 0.959 . S
H1453 C1392 0.961 . S
H1454 C1392 0.959 . S
H1455 C1393 0.960 . S
H1456 C1393 0.960 . S
H1457 C1393 0.960 . S
H1458 C1429 0.980 . S
H1459 C1395 0.930 . S
H1460 C1399 0.930 . S
H1461 C1400 0.961 . S
H1462 C1400 0.960 . S
H1463 C1400 0.958 . S
H1464 C1401 0.961 . S
H1465 C1401 0.960 . S
H1466 C1401 0.960 . S
H1467 C1403 0.980 . S
H1468 C1402 0.961 . S
H1469 C1402 0.961 . S
H1470 C1402 0.959 . S
H1471 C1405 0.932 . S
H1472 C1409 0.929 . S
H1473 C1410 0.961 . S
H1474 C1410 0.959 . S
H1475 C1410 0.959 . S
H1476 C1411 0.960 . S
H1477 C1411 0.962 . S
H1478 C1411 0.961 . S
H1479 C1413 0.929 . S
H1480 C1416 0.930 . S
H1481 C1417 0.929 . S
H1482 C1420 0.930 . S
H1483 C1423 0.929 . S
H1484 C1424 0.930 . S
H1485 C1428 0.962 . S
H1486 C1428 0.959 . S
H1487 C1428 0.958 . S
C1488 C1489 1.560 . S
C1488 H1549 0.959 . S
C1488 H1550 0.959 . S
C1488 H1551 0.960 . S
C1489 C1488 1.560 . S
C1489 O1544 1.426 . S
C1489 H1548 0.980 . S
C1490 C1491 1.407 1_565 S
C1490 C1495 1.418 . S
C1490 O1544 1.334 . S
C1491 C1490 1.407 1_545 S
C1491 C1492 1.360 . S
C1491 H1552 0.929 . S
C1492 C1491 1.360 . S
C1492 C1493 1.401 1_545 S
C1492 C1496 1.527 . S
C1493 C1492 1.401 1_565 S
C1493 C1494 1.405 . S
C1493 C1526 1.587 1_565 S
C1494 C1493 1.405 . S
C1494 C1495 1.332 . S
C1494 C1497 1.496 . S
C1495 C1490 1.418 . S
C1495 C1494 1.332 . S
C1495 H1553 0.929 . S
C1496 C1492 1.527 . S
C1496 H1554 0.959 . S
C1496 H1555 0.961 . S
C1496 H1556 0.961 . S
C1497 C1494 1.496 . S
C1497 H1557 0.960 . S
C1497 H1558 0.960 . S
C1497 H1559 0.961 . S
C1498 C1499 1.517 . S
C1498 H1561 0.961 1_545 S
C1498 H1562 0.960 . S
C1498 H1563 0.959 . S
C1499 C1498 1.517 . S
C1499 O1547 1.468 . S
C1499 H1560 0.980 1_545 S
C1500 C1501 1.334 1_545 S
C1500 C1505 1.367 . S
C1500 O1547 1.408 . S
C1501 C1500 1.334 1_565 S
C1501 C1502 1.396 . S
C1501 H1564 0.958 . S
C1502 C1501 1.396 . S
C1502 C1503 1.449 1_565 S
C1502 C1506 1.535 . S
C1503 C1502 1.449 1_545 S
C1503 C1504 1.384 . S
C1503 C1528 1.553 . S
C1504 C1503 1.384 . S
C1504 C1505 1.364 . S
C1504 C1507 1.450 . S
C1505 C1500 1.367 . S
C1505 C1504 1.364 . S
C1505 H1565 0.931 . S
C1506 C1502 1.535 . S
C1506 H1566 0.959 . S
C1506 H1567 0.961 . S
C1506 H1568 0.959 . S
C1507 C1504 1.450 . S
C1507 H1569 0.960 . S
C1507 H1570 0.960 . S
C1507 H1571 0.960 . S
C1508 C1509 1.309 . S
C1508 C1513 1.304 . S
C1508 O1546 1.435 . S
C1509 C1508 1.309 . S
C1509 C1510 1.493 1_545 S
C1509 H1573 0.930 1_545 S
C1510 C1509 1.493 1_565 S
C1510 C1511 1.346 1_565 S
C1510 C1514 1.603 . S
C1511 C1510 1.346 1_545 S
C1511 C1512 1.373 . S
C1511 C1533 1.432 . S
C1512 C1511 1.373 . S
C1512 C1513 1.339 . S
C1512 C1515 1.530 . S
C1513 C1508 1.304 . S
C1513 C1512 1.339 . S
C1513 H1574 0.930 . S
C1514 C1510 1.603 . S
C1514 H1575 0.961 . S
C1514 H1576 0.960 . S
C1514 H1577 0.958 . S
C1515 C1512 1.530 . S
C1515 H1578 0.961 . S
C1515 H1579 0.960 . S
C1515 H1580 0.960 . S
C1516 C1517 1.530 1_565 S
C1516 H1582 0.961 . S
C1516 H1583 0.961 . S
C1516 H1584 0.959 . S
C1517 C1516 1.530 1_545 S
C1517 O1545 1.412 1_545 S
C1517 H1581 0.980 . S
C1518 C1519 1.288 . S
C1518 C1523 1.377 1_565 S
C1518 O1545 1.393 . S
C1519 C1518 1.288 . S
C1519 C1520 1.369 . S
C1519 H1585 0.932 . S
C1520 C1519 1.369 . S
C1520 C1521 1.398 1_565 S
C1520 C1524 1.527 . S
C1521 C1520 1.398 1_545 S
C1521 C1522 1.380 . S
C1521 C1535 1.497 . S
C1522 C1521 1.380 . S
C1522 C1523 1.383 . S
C1522 C1525 1.603 . S
C1523 C1518 1.377 1_545 S
C1523 C1522 1.383 . S
C1523 H1586 0.929 . S
C1524 C1520 1.527 . S
C1524 H1587 0.961 . S
C1524 H1588 0.959 . S
C1524 H1589 0.959 . S
C1525 C1522 1.603 . S
C1525 H1590 0.960 . S
C1525 H1591 0.962 . S
C1525 H1592 0.961 . S
C1526 C1493 1.587 1_545 S
C1526 C1527 1.360 . S
C1526 C1539 1.412 . S
C1527 C1526 1.360 . S
C1527 C1528 1.365 . S
C1527 H1593 0.929 . S
C1528 C1503 1.553 . S
C1528 C1527 1.365 . S
C1528 C1529 1.404 . S
C1529 C1528 1.404 . S
C1529 C1530 1.395 . S
C1529 C1540 1.451 . S
C1530 C1529 1.395 . S
C1530 C1531 1.322 . S
C1530 H1594 0.930 . S
C1531 C1530 1.322 . S
C1531 C1532 1.459 . S
C1531 H1595 0.929 . S
C1532 C1531 1.459 . S
C1532 C1533 1.445 . S
C1532 C1541 1.395 . S
C1533 C1511 1.432 . S
C1533 C1532 1.445 . S
C1533 C1534 1.370 . S
C1534 C1533 1.370 . S
C1534 C1535 1.438 . S
C1534 H1596 0.930 . S
C1535 C1521 1.497 . S
C1535 C1534 1.438 . S
C1535 C1536 1.360 . S
C1536 C1535 1.360 . S
C1536 C1537 1.401 . S
C1536 C1541 1.446 . S
C1537 C1536 1.401 . S
C1537 C1538 1.347 . S
C1537 H1597 0.929 . S
C1538 C1537 1.347 . S
C1538 C1539 1.455 . S
C1538 H1598 0.930 . S
C1539 C1526 1.412 . S
C1539 C1538 1.455 . S
C1539 C1540 1.331 . S
C1540 C1529 1.451 . S
C1540 C1539 1.331 . S
C1540 C1541 1.497 . S
C1541 C1532 1.395 . S
C1541 C1536 1.446 . S
C1541 C1540 1.497 . S
C1542 C1543 1.582 . S
C1542 H1599 0.962 . S
C1542 H1600 0.959 . S
C1542 H1601 0.958 . S
C1543 C1542 1.582 . S
C1543 O1546 1.458 . S
C1543 H1572 0.980 . S
O1544 C1489 1.426 . S
O1544 C1490 1.334 . S
O1545 C1517 1.412 1_565 S
O1545 C1518 1.393 . S
O1546 C1508 1.435 . S
O1546 C1543 1.458 . S
O1547 C1499 1.468 . S
O1547 C1500 1.408 . S
H1548 C1489 0.980 . S
H1549 C1488 0.959 . S
H1550 C1488 0.959 . S
H1551 C1488 0.960 . S
H1552 C1491 0.929 . S
H1553 C1495 0.929 . S
H1554 C1496 0.959 . S
H1555 C1496 0.961 . S
H1556 C1496 0.961 . S
H1557 C1497 0.960 . S
H1558 C1497 0.960 . S
H1559 C1497 0.961 . S
H1560 C1499 0.980 1_565 S
H1561 C1498 0.961 1_565 S
H1562 C1498 0.960 . S
H1563 C1498 0.959 . S
H1564 C1501 0.958 . S
H1565 C1505 0.931 . S
H1566 C1506 0.959 . S
H1567 C1506 0.961 . S
H1568 C1506 0.959 . S
H1569 C1507 0.960 . S
H1570 C1507 0.960 . S
H1571 C1507 0.960 . S
H1572 C1543 0.980 . S
H1573 C1509 0.930 1_565 S
H1574 C1513 0.930 . S
H1575 C1514 0.961 . S
H1576 C1514 0.960 . S
H1577 C1514 0.958 . S
H1578 C1515 0.961 . S
H1579 C1515 0.960 . S
H1580 C1515 0.960 . S
H1581 C1517 0.980 . S
H1582 C1516 0.961 . S
H1583 C1516 0.961 . S
H1584 C1516 0.959 . S
H1585 C1519 0.932 . S
H1586 C1523 0.929 . S
H1587 C1524 0.961 . S
H1588 C1524 0.959 . S
H1589 C1524 0.959 . S
H1590 C1525 0.960 . S
H1591 C1525 0.962 . S
H1592 C1525 0.961 . S
H1593 C1527 0.929 . S
H1594 C1530 0.930 . S
H1595 C1531 0.929 . S
H1596 C1534 0.930 . S
H1597 C1537 0.929 . S
H1598 C1538 0.930 . S
H1599 C1542 0.962 . S
H1600 C1542 0.959 . S
H1601 C1542 0.958 . S
C1602 C1603 1.560 . S
C1602 H1663 0.959 . S
C1602 H1664 0.959 . S
C1602 H1665 0.960 . S
C1603 C1602 1.560 . S
C1603 O1658 1.426 . S
C1603 H1662 0.980 1_565 S
C1604 C1605 1.407 1_565 S
C1604 C1609 1.418 . S
C1604 O1658 1.334 . S
C1605 C1604 1.407 1_545 S
C1605 C1606 1.360 . S
C1605 H1666 0.929 . S
C1606 C1605 1.360 . S
C1606 C1607 1.401 . S
C1606 C1610 1.527 . S
C1607 C1606 1.401 . S
C1607 C1608 1.405 1_545 S
C1607 C1640 1.587 . S
C1608 C1607 1.405 1_565 S
C1608 C1609 1.332 . S
C1608 C1611 1.496 . S
C1609 C1604 1.418 . S
C1609 C1608 1.332 . S
C1609 H1667 0.929 . S
C1610 C1606 1.527 . S
C1610 H1668 0.959 . S
C1610 H1669 0.961 . S
C1610 H1670 0.961 . S
C1611 C1608 1.496 . S
C1611 H1671 0.960 . S
C1611 H1672 0.960 . S
C1611 H1673 0.961 . S
C1612 C1613 1.517 . S
C1612 H1675 0.961 . S
C1612 H1676 0.960 . S
C1612 H1677 0.959 . S
C1613 C1612 1.517 . S
C1613 O1661 1.468 . S
C1613 H1674 0.980 . S
C1614 C1615 1.349 . S
C1614 C1619 1.367 . S
C1614 O1661 1.408 . S
C1615 C1614 1.349 . S
C1615 C1616 1.407 . S
C1615 H1678 0.944 . S
C1616 C1615 1.407 . S
C1616 C1617 1.449 . S
C1616 C1620 1.535 1_545 S
C1617 C1616 1.449 . S
C1617 C1618 1.384 . S
C1617 C1642 1.553 . S
C1618 C1617 1.384 . S
C1618 C1619 1.364 . S
C1618 C1621 1.450 . S
C1619 C1614 1.367 . S
C1619 C1618 1.364 . S
C1619 H1679 0.931 . S
C1620 C1616 1.535 1_565 S
C1620 H1680 0.959 . S
C1620 H1681 0.961 . S
C1620 H1682 0.959 . S
C1621 C1618 1.450 . S
C1621 H1683 0.960 . S
C1621 H1684 0.960 . S
C1621 H1685 0.960 . S
C1622 C1623 1.309 1_545 S
C1622 C1627 1.304 . S
C1622 O1660 1.435 . S
C1623 C1622 1.309 1_565 S
C1623 C1624 1.476 . S
C1623 H1687 0.930 . S
C1624 C1623 1.476 . S
C1624 C1625 1.400 1_565 S
C1624 C1628 1.567 . S
C1625 C1624 1.400 1_545 S
C1625 C1626 1.373 . S
C1625 C1647 1.432 . S
C1626 C1625 1.373 . S
C1626 C1627 1.339 . S
C1626 C1629 1.530 . S
C1627 C1622 1.304 . S
C1627 C1626 1.339 . S
C1627 H1688 0.930 . S
C1628 C1624 1.567 . S
C1628 H1689 0.961 . S
C1628 H1690 0.960 . S
C1628 H1691 0.958 . S
C1629 C1626 1.530 . S
C1629 H1692 0.961 . S
C1629 H1693 0.960 . S
C1629 H1694 0.960 . S
C1630 C1631 1.530 . S
C1630 H1696 0.961 . S
C1630 H1697 0.961 . S
C1630 H1698 0.959 . S
C1631 C1630 1.530 . S
C1631 O1659 1.412 . S
C1631 H1695 0.980 . S
C1632 C1633 1.288 . S
C1632 C1637 1.377 1_565 S
C1632 O1659 1.393 . S
C1633 C1632 1.288 . S
C1633 C1634 1.369 . S
C1633 H1699 0.932 . S
C1634 C1633 1.369 . S
C1634 C1635 1.398 . S
C1634 C1638 1.527 . S
C1635 C1634 1.398 . S
C1635 C1636 1.380 1_565 S
C1635 C1649 1.497 1_565 S
C1636 C1635 1.380 1_545 S
C1636 C1637 1.383 . S
C1636 C1639 1.603 . S
C1637 C1632 1.377 1_545 S
C1637 C1636 1.383 . S
C1637 H1700 0.929 . S
C1638 C1634 1.527 . S
C1638 H1701 0.961 . S
C1638 H1702 0.959 . S
C1638 H1703 0.959 . S
C1639 C1636 1.603 . S
C1639 H1704 0.960 . S
C1639 H1705 0.962 . S
C1639 H1706 0.961 . S
C1640 C1607 1.587 . S
C1640 C1641 1.360 . S
C1640 C1653 1.412 . S
C1641 C1640 1.360 . S
C1641 C1642 1.365 . S
C1641 H1707 0.929 . S
C1642 C1617 1.553 . S
C1642 C1641 1.365 . S
C1642 C1643 1.404 . S
C1643 C1642 1.404 . S
C1643 C1644 1.395 . S
C1643 C1654 1.451 . S
C1644 C1643 1.395 . S
C1644 C1645 1.322 . S
C1644 H1708 0.930 . S
C1645 C1644 1.322 . S
C1645 C1646 1.459 . S
C1645 H1709 0.929 . S
C1646 C1645 1.459 . S
C1646 C1647 1.445 . S
C1646 C1655 1.395 . S
C1647 C1625 1.432 . S
C1647 C1646 1.445 . S
C1647 C1648 1.370 . S
C1648 C1647 1.370 . S
C1648 C1649 1.438 . S
C1648 H1710 0.930 . S
C1649 C1635 1.497 1_545 S
C1649 C1648 1.438 . S
C1649 C1650 1.360 . S
C1650 C1649 1.360 . S
C1650 C1651 1.401 . S
C1650 C1655 1.446 . S
C1651 C1650 1.401 . S
C1651 C1652 1.347 . S
C1651 H1711 0.937 . S
C1652 C1651 1.347 . S
C1652 C1653 1.455 . S
C1652 H1712 0.930 . S
C1653 C1640 1.412 . S
C1653 C1652 1.455 . S
C1653 C1654 1.331 . S
C1654 C1643 1.451 . S
C1654 C1653 1.331 . S
C1654 C1655 1.497 . S
C1655 C1646 1.395 . S
C1655 C1650 1.446 . S
C1655 C1654 1.497 . S
C1656 C1657 1.582 . S
C1656 H1713 0.962 . S
C1656 H1714 0.959 . S
C1656 H1715 0.958 . S
C1657 C1656 1.582 . S
C1657 O1660 1.458 . S
C1657 H1686 0.980 1_545 S
O1658 C1603 1.426 . S
O1658 C1604 1.334 . S
O1659 C1631 1.412 . S
O1659 C1632 1.393 . S
O1660 C1622 1.435 . S
O1660 C1657 1.458 . S
O1661 C1613 1.468 . S
O1661 C1614 1.408 . S
H1662 C1603 0.980 1_545 S
H1663 C1602 0.959 . S
H1664 C1602 0.959 . S
H1665 C1602 0.960 . S
H1666 C1605 0.929 . S
H1667 C1609 0.929 . S
H1668 C1610 0.959 . S
H1669 C1610 0.961 . S
H1670 C1610 0.961 . S
H1671 C1611 0.960 . S
H1672 C1611 0.960 . S
H1673 C1611 0.961 . S
H1674 C1613 0.980 . S
H1675 C1612 0.961 . S
H1676 C1612 0.960 . S
H1677 C1612 0.959 . S
H1678 C1615 0.944 . S
H1679 C1619 0.931 . S
H1680 C1620 0.959 . S
H1681 C1620 0.961 . S
H1682 C1620 0.959 . S
H1683 C1621 0.960 . S
H1684 C1621 0.960 . S
H1685 C1621 0.960 . S
H1686 C1657 0.980 1_565 S
H1687 C1623 0.930 . S
H1688 C1627 0.930 . S
H1689 C1628 0.961 . S
H1690 C1628 0.960 . S
H1691 C1628 0.958 . S
H1692 C1629 0.961 . S
H1693 C1629 0.960 . S
H1694 C1629 0.960 . S
H1695 C1631 0.980 . S
H1696 C1630 0.961 . S
H1697 C1630 0.961 . S
H1698 C1630 0.959 . S
H1699 C1633 0.932 . S
H1700 C1637 0.929 . S
H1701 C1638 0.961 . S
H1702 C1638 0.959 . S
H1703 C1638 0.959 . S
H1704 C1639 0.960 . S
H1705 C1639 0.962 . S
H1706 C1639 0.961 . S
H1707 C1641 0.929 . S
H1708 C1644 0.930 . S
H1709 C1645 0.929 . S
H1710 C1648 0.930 . S
H1711 C1651 0.937 . S
H1712 C1652 0.930 . S
H1713 C1656 0.962 . S
H1714 C1656 0.959 . S
H1715 C1656 0.958 . S
C1716 C1717 1.566 . S
C1716 H1777 0.959 . S
C1716 H1778 0.959 . S
C1716 H1779 0.960 . S
C1717 C1716 1.566 . S
C1717 O1772 1.438 . S
C1717 H1776 0.977 1_455 S
C1718 C1719 1.407 1_455 S
C1718 C1723 1.418 . S
C1718 O1772 1.334 . S
C1719 C1718 1.407 1_655 S
C1719 C1720 1.360 . S
C1719 H1780 0.929 . S
C1720 C1719 1.360 . S
C1720 C1721 1.401 . S
C1720 C1724 1.527 . S
C1721 C1720 1.401 . S
C1721 C1722 1.405 1_655 S
C1721 C1754 1.587 . S
C1722 C1721 1.405 1_455 S
C1722 C1723 1.332 . S
C1722 C1725 1.496 . S
C1723 C1718 1.418 . S
C1723 C1722 1.332 . S
C1723 H1781 0.929 . S
C1724 C1720 1.527 . S
C1724 H1782 0.959 . S
C1724 H1783 0.961 . S
C1724 H1784 0.961 . S
C1725 C1722 1.496 . S
C1725 H1785 0.960 . S
C1725 H1786 0.960 . S
C1725 H1787 0.961 . S
C1726 C1727 1.517 . S
C1726 H1789 0.961 . S
C1726 H1790 0.960 . S
C1726 H1791 0.959 . S
C1727 C1726 1.517 . S
C1727 O1775 1.468 . S
C1727 H1788 0.980 . S
C1728 C1729 1.349 . S
C1728 C1733 1.367 . S
C1728 O1775 1.408 . S
C1729 C1728 1.349 . S
C1729 C1730 1.407 . S
C1729 H1792 0.869 1_655 S
C1730 C1729 1.407 . S
C1730 C1731 1.449 . S
C1730 C1734 1.535 1_655 S
C1731 C1730 1.449 . S
C1731 C1732 1.384 . S
C1731 C1756 1.553 . S
C1732 C1731 1.384 . S
C1732 C1733 1.364 . S
C1732 C1735 1.450 . S
C1733 C1728 1.367 . S
C1733 C1732 1.364 . S
C1733 H1793 0.931 . S
C1734 C1730 1.535 1_455 S
C1734 H1794 0.959 . S
C1734 H1795 0.961 . S
C1734 H1796 0.959 . S
C1735 C1732 1.450 . S
C1735 H1797 0.960 . S
C1735 H1798 0.960 . S
C1735 H1799 0.960 . S
C1736 C1737 1.309 1_655 S
C1736 C1741 1.304 . S
C1736 O1774 1.435 . S
C1737 C1736 1.309 1_455 S
C1737 C1738 1.476 . S
C1737 H1801 0.930 . S
C1738 C1737 1.476 . S
C1738 C1739 1.400 1_455 S
C1738 C1742 1.567 . S
C1739 C1738 1.400 1_655 S
C1739 C1740 1.373 . S
C1739 C1761 1.432 . S
C1740 C1739 1.373 . S
C1740 C1741 1.339 . S
C1740 C1743 1.530 . S
C1741 C1736 1.304 . S
C1741 C1740 1.339 . S
C1741 H1802 0.930 . S
C1742 C1738 1.567 . S
C1742 H1803 0.961 . S
C1742 H1804 0.960 . S
C1742 H1805 0.958 . S
C1743 C1740 1.530 . S
C1743 H1806 0.961 . S
C1743 H1807 0.960 . S
C1743 H1808 0.960 . S
C1744 C1745 1.530 . S
C1744 H1810 0.961 . S
C1744 H1811 0.961 . S
C1744 H1812 0.959 . S
C1745 C1744 1.530 . S
C1745 O1773 1.412 . S
C1745 H1809 0.980 1_455 S
C1746 C1747 1.288 . S
C1746 C1751 1.377 1_455 S
C1746 O1773 1.393 . S
C1747 C1746 1.288 . S
C1747 C1748 1.369 . S
C1747 H1813 0.932 . S
C1748 C1747 1.369 . S
C1748 C1749 1.398 . S
C1748 C1752 1.527 . S
C1749 C1748 1.398 . S
C1749 C1750 1.380 1_455 S
C1749 C1763 1.497 1_455 S
C1750 C1749 1.380 1_655 S
C1750 C1751 1.383 . S
C1750 C1753 1.603 . S
C1751 C1746 1.377 1_655 S
C1751 C1750 1.383 . S
C1751 H1814 0.929 . S
C1752 C1748 1.527 . S
C1752 H1815 0.961 . S
C1752 H1816 0.959 . S
C1752 H1817 0.959 . S
C1753 C1750 1.603 . S
C1753 H1818 0.960 . S
C1753 H1819 0.962 . S
C1753 H1820 0.961 . S
C1754 C1721 1.587 . S
C1754 C1755 1.360 . S
C1754 C1767 1.412 . S
C1755 C1754 1.360 . S
C1755 C1756 1.365 . S
C1755 H1821 0.929 . S
C1756 C1731 1.553 . S
C1756 C1755 1.365 . S
C1756 C1757 1.404 . S
C1757 C1756 1.404 . S
C1757 C1758 1.395 . S
C1757 C1768 1.451 . S
C1758 C1757 1.395 . S
C1758 C1759 1.322 . S
C1758 H1822 0.930 . S
C1759 C1758 1.322 . S
C1759 C1760 1.459 . S
C1759 H1823 0.929 . S
C1760 C1759 1.459 . S
C1760 C1761 1.445 . S
C1760 C1769 1.395 . S
C1761 C1739 1.432 . S
C1761 C1760 1.445 . S
C1761 C1762 1.370 . S
C1762 C1761 1.370 . S
C1762 C1763 1.438 . S
C1762 H1824 0.930 . S
C1763 C1749 1.497 1_655 S
C1763 C1762 1.438 . S
C1763 C1764 1.360 . S
C1764 C1763 1.360 . S
C1764 C1765 1.401 . S
C1764 C1769 1.446 . S
C1765 C1764 1.401 . S
C1765 C1766 1.347 . S
C1765 H1825 0.929 . S
C1766 C1765 1.347 . S
C1766 C1767 1.455 . S
C1766 H1826 0.930 . S
C1767 C1754 1.412 . S
C1767 C1766 1.455 . S
C1767 C1768 1.331 . S
C1768 C1757 1.451 . S
C1768 C1767 1.331 . S
C1768 C1769 1.497 . S
C1769 C1760 1.395 . S
C1769 C1764 1.446 . S
C1769 C1768 1.497 . S
C1770 C1771 1.582 1_655 S
C1770 H1827 0.962 1_655 S
C1770 H1828 0.959 . S
C1770 H1829 0.958 . S
C1771 C1770 1.582 1_455 S
C1771 O1774 1.458 1_455 S
C1771 H1800 0.980 . S
O1772 C1717 1.438 . S
O1772 C1718 1.334 . S
O1773 C1745 1.412 . S
O1773 C1746 1.393 . S
O1774 C1736 1.435 . S
O1774 C1771 1.458 1_655 S
O1775 C1727 1.468 . S
O1775 C1728 1.408 . S
H1776 C1717 0.977 1_655 S
H1777 C1716 0.959 . S
H1778 C1716 0.959 . S
H1779 C1716 0.960 . S
H1780 C1719 0.929 . S
H1781 C1723 0.929 . S
H1782 C1724 0.959 . S
H1783 C1724 0.961 . S
H1784 C1724 0.961 . S
H1785 C1725 0.960 . S
H1786 C1725 0.960 . S
H1787 C1725 0.961 . S
H1788 C1727 0.980 . S
H1789 C1726 0.961 . S
H1790 C1726 0.960 . S
H1791 C1726 0.959 . S
H1792 C1729 0.869 1_455 S
H1793 C1733 0.931 . S
H1794 C1734 0.959 . S
H1795 C1734 0.961 . S
H1796 C1734 0.959 . S
H1797 C1735 0.960 . S
H1798 C1735 0.960 . S
H1799 C1735 0.960 . S
H1800 C1771 0.980 . S
H1801 C1737 0.930 . S
H1802 C1741 0.930 . S
H1803 C1742 0.961 . S
H1804 C1742 0.960 . S
H1805 C1742 0.958 . S
H1806 C1743 0.961 . S
H1807 C1743 0.960 . S
H1808 C1743 0.960 . S
H1809 C1745 0.980 1_655 S
H1810 C1744 0.961 . S
H1811 C1744 0.961 . S
H1812 C1744 0.959 . S
H1813 C1747 0.932 . S
H1814 C1751 0.929 . S
H1815 C1752 0.961 . S
H1816 C1752 0.959 . S
H1817 C1752 0.959 . S
H1818 C1753 0.960 . S
H1819 C1753 0.962 . S
H1820 C1753 0.961 . S
H1821 C1755 0.929 . S
H1822 C1758 0.930 . S
H1823 C1759 0.929 . S
H1824 C1762 0.930 . S
H1825 C1765 0.929 . S
H1826 C1766 0.930 . S
H1827 C1770 0.962 1_455 S
H1828 C1770 0.959 . S
H1829 C1770 0.958 . S
C1830 C1831 1.560 . S
C1830 H1891 0.959 . S
C1830 H1892 0.959 . S
C1830 H1893 0.960 . S
C1831 C1830 1.560 . S
C1831 O1886 1.426 . S
C1831 H1890 0.980 . S
C1832 C1833 1.407 . S
C1832 C1837 1.418 . S
C1832 O1886 1.334 . S
C1833 C1832 1.407 . S
C1833 C1834 1.360 . S
C1833 H1894 0.929 . S
C1834 C1833 1.360 . S
C1834 C1835 1.401 . S
C1834 C1838 1.527 . S
C1835 C1834 1.401 . S
C1835 C1836 1.405 . S
C1835 C1868 1.587 . S
C1836 C1835 1.405 . S
C1836 C1837 1.332 . S
C1836 C1839 1.496 . S
C1837 C1832 1.418 . S
C1837 C1836 1.332 . S
C1837 H1895 0.929 . S
C1838 C1834 1.527 . S
C1838 H1896 0.959 . S
C1838 H1897 0.961 . S
C1838 H1898 0.961 . S
C1839 C1836 1.496 . S
C1839 H1899 0.960 . S
C1839 H1900 0.960 . S
C1839 H1901 0.961 . S
C1840 C1841 1.517 . S
C1840 H1903 0.961 . S
C1840 H1904 0.960 . S
C1840 H1905 0.959 . S
C1841 C1840 1.517 . S
C1841 O1889 1.468 . S
C1841 H1902 0.980 . S
C1842 C1843 1.349 . S
C1842 C1847 1.367 . S
C1842 O1889 1.408 . S
C1843 C1842 1.349 . S
C1843 C1844 1.407 . S
C1843 H1906 0.930 . S
C1844 C1843 1.407 . S
C1844 C1845 1.449 . S
C1844 C1848 1.535 . S
C1845 C1844 1.449 . S
C1845 C1846 1.384 . S
C1845 C1870 1.553 . S
C1846 C1845 1.384 . S
C1846 C1847 1.364 . S
C1846 C1849 1.450 . S
C1847 C1842 1.367 . S
C1847 C1846 1.364 . S
C1847 H1907 0.931 . S
C1848 C1844 1.535 . S
C1848 H1908 0.959 . S
C1848 H1909 0.961 . S
C1848 H1910 0.959 . S
C1849 C1846 1.450 . S
C1849 H1911 0.960 . S
C1849 H1912 0.960 . S
C1849 H1913 0.960 . S
C1850 C1851 1.309 . S
C1850 C1855 1.304 . S
C1850 O1888 1.435 . S
C1851 C1850 1.309 . S
C1851 C1852 1.476 . S
C1851 H1915 0.930 . S
C1852 C1851 1.476 . S
C1852 C1853 1.400 . S
C1852 C1856 1.567 . S
C1853 C1852 1.400 . S
C1853 C1854 1.373 . S
C1853 C1875 1.432 . S
C1854 C1853 1.373 . S
C1854 C1855 1.339 . S
C1854 C1857 1.530 . S
C1855 C1850 1.304 . S
C1855 C1854 1.339 . S
C1855 H1916 0.930 . S
C1856 C1852 1.567 . S
C1856 H1917 0.961 . S
C1856 H1918 0.960 . S
C1856 H1919 0.958 . S
C1857 C1854 1.530 . S
C1857 H1920 0.961 . S
C1857 H1921 0.960 . S
C1857 H1922 0.960 . S
C1858 C1859 1.530 . S
C1858 H1924 0.961 . S
C1858 H1925 0.961 . S
C1858 H1926 0.959 . S
C1859 C1858 1.530 . S
C1859 O1887 1.412 . S
C1859 H1923 0.980 . S
C1860 C1861 1.288 . S
C1860 C1865 1.377 . S
C1860 O1887 1.393 . S
C1861 C1860 1.288 . S
C1861 C1862 1.369 . S
C1861 H1927 0.932 . S
C1862 C1861 1.369 . S
C1862 C1863 1.398 . S
C1862 C1866 1.527 . S
C1863 C1862 1.398 . S
C1863 C1864 1.380 . S
C1863 C1877 1.497 . S
C1864 C1863 1.380 . S
C1864 C1865 1.383 . S
C1864 C1867 1.603 . S
C1865 C1860 1.377 . S
C1865 C1864 1.383 . S
C1865 H1928 0.929 . S
C1866 C1862 1.527 . S
C1866 H1929 0.961 . S
C1866 H1930 0.959 . S
C1866 H1931 0.959 . S
C1867 C1864 1.603 . S
C1867 H1932 0.960 . S
C1867 H1933 0.962 . S
C1867 H1934 0.961 . S
C1868 C1835 1.587 . S
C1868 C1869 1.360 . S
C1868 C1881 1.412 . S
C1869 C1868 1.360 . S
C1869 C1870 1.365 . S
C1869 H1935 0.929 . S
C1870 C1845 1.553 . S
C1870 C1869 1.365 . S
C1870 C1871 1.404 . S
C1871 C1870 1.404 . S
C1871 C1872 1.395 . S
C1871 C1882 1.451 . S
C1872 C1871 1.395 . S
C1872 C1873 1.322 . S
C1872 H1936 0.930 . S
C1873 C1872 1.322 . S
C1873 C1874 1.459 . S
C1873 H1937 0.929 . S
C1874 C1873 1.459 . S
C1874 C1875 1.445 . S
C1874 C1883 1.395 . S
C1875 C1853 1.432 . S
C1875 C1874 1.445 . S
C1875 C1876 1.370 . S
C1876 C1875 1.370 . S
C1876 C1877 1.438 . S
C1876 H1938 0.930 . S
C1877 C1863 1.497 . S
C1877 C1876 1.438 . S
C1877 C1878 1.360 . S
C1878 C1877 1.360 . S
C1878 C1879 1.401 . S
C1878 C1883 1.446 . S
C1879 C1878 1.401 . S
C1879 C1880 1.347 . S
C1879 H1939 0.929 . S
C1880 C1879 1.347 . S
C1880 C1881 1.455 . S
C1880 H1940 0.930 . S
C1881 C1868 1.412 . S
C1881 C1880 1.455 . S
C1881 C1882 1.331 . S
C1882 C1871 1.451 . S
C1882 C1881 1.331 . S
C1882 C1883 1.497 . S
C1883 C1874 1.395 . S
C1883 C1878 1.446 . S
C1883 C1882 1.497 . S
C1884 C1885 1.582 . S
C1884 H1941 0.962 . S
C1884 H1942 0.959 . S
C1884 H1943 0.958 . S
C1885 C1884 1.582 . S
C1885 O1888 1.458 . S
C1885 H1914 0.980 . S
O1886 C1831 1.426 . S
O1886 C1832 1.334 . S
O1887 C1859 1.412 . S
O1887 C1860 1.393 . S
O1888 C1850 1.435 . S
O1888 C1885 1.458 . S
O1889 C1841 1.468 . S
O1889 C1842 1.408 . S
H1890 C1831 0.980 . S
H1891 C1830 0.959 . S
H1892 C1830 0.959 . S
H1893 C1830 0.960 . S
H1894 C1833 0.929 . S
H1895 C1837 0.929 . S
H1896 C1838 0.959 . S
H1897 C1838 0.961 . S
H1898 C1838 0.961 . S
H1899 C1839 0.960 . S
H1900 C1839 0.960 . S
H1901 C1839 0.961 . S
H1902 C1841 0.980 . S
H1903 C1840 0.961 . S
H1904 C1840 0.960 . S
H1905 C1840 0.959 . S
H1906 C1843 0.930 . S
H1907 C1847 0.931 . S
H1908 C1848 0.959 . S
H1909 C1848 0.961 . S
H1910 C1848 0.959 . S
H1911 C1849 0.960 . S
H1912 C1849 0.960 . S
H1913 C1849 0.960 . S
H1914 C1885 0.980 . S
H1915 C1851 0.930 . S
H1916 C1855 0.930 . S
H1917 C1856 0.961 . S
H1918 C1856 0.960 . S
H1919 C1856 0.958 . S
H1920 C1857 0.961 . S
H1921 C1857 0.960 . S
H1922 C1857 0.960 . S
H1923 C1859 0.980 . S
H1924 C1858 0.961 . S
H1925 C1858 0.961 . S
H1926 C1858 0.959 . S
H1927 C1861 0.932 . S
H1928 C1865 0.929 . S
H1929 C1866 0.961 . S
H1930 C1866 0.959 . S
H1931 C1866 0.959 . S
H1932 C1867 0.960 . S
H1933 C1867 0.962 . S
H1934 C1867 0.961 . S
H1935 C1869 0.929 . S
H1936 C1872 0.930 . S
H1937 C1873 0.929 . S
H1938 C1876 0.930 . S
H1939 C1879 0.929 . S
H1940 C1880 0.930 . S
H1941 C1884 0.962 . S
H1942 C1884 0.959 . S
H1943 C1884 0.958 . S
C1944 C1945 1.560 . S
C1944 H2005 0.959 . S
C1944 H2006 0.959 . S
C1944 H2007 0.960 . S
C1945 C1944 1.560 . S
C1945 O2000 1.426 . S
C1945 H2004 0.980 . S
C1946 C1947 1.407 . S
C1946 C1951 1.418 . S
C1946 O2000 1.334 . S
C1947 C1946 1.407 . S
C1947 C1948 1.360 . S
C1947 H2008 0.929 . S
C1948 C1947 1.360 . S
C1948 C1949 1.401 . S
C1948 C1952 1.527 . S
C1949 C1948 1.401 . S
C1949 C1950 1.405 . S
C1949 C1982 1.587 . S
C1950 C1949 1.405 . S
C1950 C1951 1.332 . S
C1950 C1953 1.496 . S
C1951 C1946 1.418 . S
C1951 C1950 1.332 . S
C1951 H2009 0.929 . S
C1952 C1948 1.527 . S
C1952 H2010 0.959 . S
C1952 H2011 0.961 . S
C1952 H2012 0.961 . S
C1953 C1950 1.496 . S
C1953 H2013 0.960 . S
C1953 H2014 0.960 . S
C1953 H2015 0.961 . S
C1954 C1955 1.517 . S
C1954 H2017 0.961 . S
C1954 H2018 0.960 . S
C1954 H2019 0.959 . S
C1955 C1954 1.517 . S
C1955 O2003 1.468 . S
C1955 H2016 0.980 . S
C1956 C1957 1.349 . S
C1956 C1961 1.367 . S
C1956 O2003 1.408 . S
C1957 C1956 1.349 . S
C1957 C1958 1.407 . S
C1957 H2020 0.930 . S
C1958 C1957 1.407 . S
C1958 C1959 1.449 . S
C1958 C1962 1.535 . S
C1959 C1958 1.449 . S
C1959 C1960 1.384 . S
C1959 C1984 1.553 . S
C1960 C1959 1.384 . S
C1960 C1961 1.364 . S
C1960 C1963 1.450 . S
C1961 C1956 1.367 . S
C1961 C1960 1.364 . S
C1961 H2021 0.931 . S
C1962 C1958 1.535 . S
C1962 H2022 0.959 . S
C1962 H2023 0.961 . S
C1962 H2024 0.959 . S
C1963 C1960 1.450 . S
C1963 H2025 0.960 . S
C1963 H2026 0.960 . S
C1963 H2027 0.960 . S
C1964 C1965 1.309 . S
C1964 C1969 1.304 . S
C1964 O2002 1.435 . S
C1965 C1964 1.309 . S
C1965 C1966 1.476 . S
C1965 H2029 0.930 . S
C1966 C1965 1.476 . S
C1966 C1967 1.400 . S
C1966 C1970 1.567 . S
C1967 C1966 1.400 . S
C1967 C1968 1.373 . S
C1967 C1989 1.432 . S
C1968 C1967 1.373 . S
C1968 C1969 1.339 . S
C1968 C1971 1.530 . S
C1969 C1964 1.304 . S
C1969 C1968 1.339 . S
C1969 H2030 0.930 . S
C1970 C1966 1.567 . S
C1970 H2031 0.961 . S
C1970 H2032 0.960 . S
C1970 H2033 0.958 . S
C1971 C1968 1.530 . S
C1971 H2034 0.961 . S
C1971 H2035 0.960 . S
C1971 H2036 0.960 . S
C1972 C1973 1.530 . S
C1972 H2038 0.961 . S
C1972 H2039 0.961 . S
C1972 H2040 0.959 . S
C1973 C1972 1.530 . S
C1973 O2001 1.412 . S
C1973 H2037 0.980 . S
C1974 C1975 1.288 . S
C1974 C1979 1.377 . S
C1974 O2001 1.393 . S
C1975 C1974 1.288 . S
C1975 C1976 1.369 . S
C1975 H2041 0.932 . S
C1976 C1975 1.369 . S
C1976 C1977 1.398 . S
C1976 C1980 1.527 . S
C1977 C1976 1.398 . S
C1977 C1978 1.380 . S
C1977 C1991 1.497 . S
C1978 C1977 1.380 . S
C1978 C1979 1.383 . S
C1978 C1981 1.603 . S
C1979 C1974 1.377 . S
C1979 C1978 1.383 . S
C1979 H2042 0.929 . S
C1980 C1976 1.527 . S
C1980 H2043 0.961 . S
C1980 H2044 0.959 . S
C1980 H2045 0.959 . S
C1981 C1978 1.603 . S
C1981 H2046 0.960 . S
C1981 H2047 0.962 . S
C1981 H2048 0.961 . S
C1982 C1949 1.587 . S
C1982 C1983 1.360 . S
C1982 C1995 1.412 . S
C1983 C1982 1.360 . S
C1983 C1984 1.365 . S
C1983 H2049 0.929 . S
C1984 C1959 1.553 . S
C1984 C1983 1.365 . S
C1984 C1985 1.404 . S
C1985 C1984 1.404 . S
C1985 C1986 1.395 . S
C1985 C1996 1.451 . S
C1986 C1985 1.395 . S
C1986 C1987 1.322 . S
C1986 H2050 0.930 . S
C1987 C1986 1.322 . S
C1987 C1988 1.459 . S
C1987 H2051 0.929 . S
C1988 C1987 1.459 . S
C1988 C1989 1.445 . S
C1988 C1997 1.395 . S
C1989 C1967 1.432 . S
C1989 C1988 1.445 . S
C1989 C1990 1.370 . S
C1990 C1989 1.370 . S
C1990 C1991 1.438 . S
C1990 H2052 0.930 . S
C1991 C1977 1.497 . S
C1991 C1990 1.438 . S
C1991 C1992 1.360 . S
C1992 C1991 1.360 . S
C1992 C1993 1.401 . S
C1992 C1997 1.446 . S
C1993 C1992 1.401 . S
C1993 C1994 1.347 . S
C1993 H2053 0.929 . S
C1994 C1993 1.347 . S
C1994 C1995 1.455 . S
C1994 H2054 0.930 . S
C1995 C1982 1.412 . S
C1995 C1994 1.455 . S
C1995 C1996 1.331 . S
C1996 C1985 1.451 . S
C1996 C1995 1.331 . S
C1996 C1997 1.497 . S
C1997 C1988 1.395 . S
C1997 C1992 1.446 . S
C1997 C1996 1.497 . S
C1998 C1999 1.582 . S
C1998 H2055 0.962 . S
C1998 H2056 0.959 . S
C1998 H2057 0.958 . S
C1999 C1998 1.582 . S
C1999 O2002 1.458 . S
C1999 H2028 0.980 . S
O2000 C1945 1.426 . S
O2000 C1946 1.334 . S
O2001 C1973 1.412 . S
O2001 C1974 1.393 . S
O2002 C1964 1.435 . S
O2002 C1999 1.458 . S
O2003 C1955 1.468 . S
O2003 C1956 1.408 . S
H2004 C1945 0.980 . S
H2005 C1944 0.959 . S
H2006 C1944 0.959 . S
H2007 C1944 0.960 . S
H2008 C1947 0.929 . S
H2009 C1951 0.929 . S
H2010 C1952 0.959 . S
H2011 C1952 0.961 . S
H2012 C1952 0.961 . S
H2013 C1953 0.960 . S
H2014 C1953 0.960 . S
H2015 C1953 0.961 . S
H2016 C1955 0.980 . S
H2017 C1954 0.961 . S
H2018 C1954 0.960 . S
H2019 C1954 0.959 . S
H2020 C1957 0.930 . S
H2021 C1961 0.931 . S
H2022 C1962 0.959 . S
H2023 C1962 0.961 . S
H2024 C1962 0.959 . S
H2025 C1963 0.960 . S
H2026 C1963 0.960 . S
H2027 C1963 0.960 . S
H2028 C1999 0.980 . S
H2029 C1965 0.930 . S
H2030 C1969 0.930 . S
H2031 C1970 0.961 . S
H2032 C1970 0.960 . S
H2033 C1970 0.958 . S
H2034 C1971 0.961 . S
H2035 C1971 0.960 . S
H2036 C1971 0.960 . S
H2037 C1973 0.980 . S
H2038 C1972 0.961 . S
H2039 C1972 0.961 . S
H2040 C1972 0.959 . S
H2041 C1975 0.932 . S
H2042 C1979 0.929 . S
H2043 C1980 0.961 . S
H2044 C1980 0.959 . S
H2045 C1980 0.959 . S
H2046 C1981 0.960 . S
H2047 C1981 0.962 . S
H2048 C1981 0.961 . S
H2049 C1983 0.929 . S
H2050 C1986 0.930 . S
H2051 C1987 0.929 . S
H2052 C1990 0.930 . S
H2053 C1993 0.929 . S
H2054 C1994 0.930 . S
H2055 C1998 0.962 . S
H2056 C1998 0.959 . S
H2057 C1998 0.958 . S
C2058 C2059 1.560 . S
C2058 H2119 0.959 . S
C2058 H2120 0.959 . S
C2058 H2121 0.960 . S
C2059 C2058 1.560 . S
C2059 O2114 1.426 . S
C2059 H2118 0.980 . S
C2060 C2061 1.407 . S
C2060 C2065 1.418 . S
C2060 O2114 1.334 . S
C2061 C2060 1.407 . S
C2061 C2062 1.360 . S
C2061 H2122 0.929 . S
C2062 C2061 1.360 . S
C2062 C2063 1.401 . S
C2062 C2066 1.527 . S
C2063 C2062 1.401 . S
C2063 C2064 1.405 . S
C2063 C2096 1.587 . S
C2064 C2063 1.405 . S
C2064 C2065 1.332 . S
C2064 C2067 1.496 . S
C2065 C2060 1.418 . S
C2065 C2064 1.332 . S
C2065 H2123 0.929 . S
C2066 C2062 1.527 . S
C2066 H2124 0.959 . S
C2066 H2125 0.961 . S
C2066 H2126 0.961 . S
C2067 C2064 1.496 . S
C2067 H2127 0.960 . S
C2067 H2128 0.960 . S
C2067 H2129 0.961 . S
C2068 C2069 1.517 . S
C2068 H2131 0.961 . S
C2068 H2132 0.960 . S
C2068 H2133 0.959 . S
C2069 C2068 1.517 . S
C2069 O2117 1.468 . S
C2069 H2130 0.980 . S
C2070 C2071 1.349 . S
C2070 C2075 1.367 . S
C2070 O2117 1.408 . S
C2071 C2070 1.349 . S
C2071 C2072 1.407 . S
C2071 H2134 0.930 . S
C2072 C2071 1.407 . S
C2072 C2073 1.449 . S
C2072 C2076 1.535 . S
C2073 C2072 1.449 . S
C2073 C2074 1.384 . S
C2073 C2098 1.553 . S
C2074 C2073 1.384 . S
C2074 C2075 1.364 . S
C2074 C2077 1.450 . S
C2075 C2070 1.367 . S
C2075 C2074 1.364 . S
C2075 H2135 0.931 . S
C2076 C2072 1.535 . S
C2076 H2136 0.959 . S
C2076 H2137 0.961 . S
C2076 H2138 0.959 . S
C2077 C2074 1.450 . S
C2077 H2139 0.960 . S
C2077 H2140 0.960 . S
C2077 H2141 0.960 . S
C2078 C2079 1.309 . S
C2078 C2083 1.304 . S
C2078 O2116 1.435 . S
C2079 C2078 1.309 . S
C2079 C2080 1.476 . S
C2079 H2143 0.930 . S
C2080 C2079 1.476 . S
C2080 C2081 1.400 . S
C2080 C2084 1.567 . S
C2081 C2080 1.400 . S
C2081 C2082 1.373 . S
C2081 C2103 1.432 . S
C2082 C2081 1.373 . S
C2082 C2083 1.339 . S
C2082 C2085 1.530 . S
C2083 C2078 1.304 . S
C2083 C2082 1.339 . S
C2083 H2144 0.930 . S
C2084 C2080 1.567 . S
C2084 H2145 0.961 . S
C2084 H2146 0.960 . S
C2084 H2147 0.958 . S
C2085 C2082 1.530 . S
C2085 H2148 0.961 . S
C2085 H2149 0.960 . S
C2085 H2150 0.960 . S
C2086 C2087 1.530 . S
C2086 H2152 0.961 . S
C2086 H2153 0.961 . S
C2086 H2154 0.959 . S
C2087 C2086 1.530 . S
C2087 O2115 1.412 . S
C2087 H2151 0.980 . S
C2088 C2089 1.288 . S
C2088 C2093 1.377 . S
C2088 O2115 1.393 . S
C2089 C2088 1.288 . S
C2089 C2090 1.369 . S
C2089 H2155 0.932 . S
C2090 C2089 1.369 . S
C2090 C2091 1.398 . S
C2090 C2094 1.527 . S
C2091 C2090 1.398 . S
C2091 C2092 1.380 . S
C2091 C2105 1.497 . S
C2092 C2091 1.380 . S
C2092 C2093 1.383 . S
C2092 C2095 1.603 . S
C2093 C2088 1.377 . S
C2093 C2092 1.383 . S
C2093 H2156 0.929 . S
C2094 C2090 1.527 . S
C2094 H2157 0.961 . S
C2094 H2158 0.959 . S
C2094 H2159 0.959 . S
C2095 C2092 1.603 . S
C2095 H2160 0.960 . S
C2095 H2161 0.962 . S
C2095 H2162 0.961 . S
C2096 C2063 1.587 . S
C2096 C2097 1.360 . S
C2096 C2109 1.412 . S
C2097 C2096 1.360 . S
C2097 C2098 1.365 . S
C2097 H2163 0.929 . S
C2098 C2073 1.553 . S
C2098 C2097 1.365 . S
C2098 C2099 1.404 . S
C2099 C2098 1.404 . S
C2099 C2100 1.395 . S
C2099 C2110 1.451 . S
C2100 C2099 1.395 . S
C2100 C2101 1.322 . S
C2100 H2164 0.930 . S
C2101 C2100 1.322 . S
C2101 C2102 1.459 . S
C2101 H2165 0.929 . S
C2102 C2101 1.459 . S
C2102 C2103 1.445 . S
C2102 C2111 1.395 . S
C2103 C2081 1.432 . S
C2103 C2102 1.445 . S
C2103 C2104 1.370 . S
C2104 C2103 1.370 . S
C2104 C2105 1.438 . S
C2104 H2166 0.930 . S
C2105 C2091 1.497 . S
C2105 C2104 1.438 . S
C2105 C2106 1.360 . S
C2106 C2105 1.360 . S
C2106 C2107 1.401 . S
C2106 C2111 1.446 . S
C2107 C2106 1.401 . S
C2107 C2108 1.347 . S
C2107 H2167 0.929 . S
C2108 C2107 1.347 . S
C2108 C2109 1.455 . S
C2108 H2168 0.930 . S
C2109 C2096 1.412 . S
C2109 C2108 1.455 . S
C2109 C2110 1.331 . S
C2110 C2099 1.451 . S
C2110 C2109 1.331 . S
C2110 C2111 1.497 . S
C2111 C2102 1.395 . S
C2111 C2106 1.446 . S
C2111 C2110 1.497 . S
C2112 C2113 1.582 . S
C2112 H2169 0.962 . S
C2112 H2170 0.959 . S
C2112 H2171 0.958 . S
C2113 C2112 1.582 . S
C2113 O2116 1.458 . S
C2113 H2142 0.980 . S
O2114 C2059 1.426 . S
O2114 C2060 1.334 . S
O2115 C2087 1.412 . S
O2115 C2088 1.393 . S
O2116 C2078 1.435 . S
O2116 C2113 1.458 . S
O2117 C2069 1.468 . S
O2117 C2070 1.408 . S
H2118 C2059 0.980 . S
H2119 C2058 0.959 . S
H2120 C2058 0.959 . S
H2121 C2058 0.960 . S
H2122 C2061 0.929 . S
H2123 C2065 0.929 . S
H2124 C2066 0.959 . S
H2125 C2066 0.961 . S
H2126 C2066 0.961 . S
H2127 C2067 0.960 . S
H2128 C2067 0.960 . S
H2129 C2067 0.961 . S
H2130 C2069 0.980 . S
H2131 C2068 0.961 . S
H2132 C2068 0.960 . S
H2133 C2068 0.959 . S
H2134 C2071 0.930 . S
H2135 C2075 0.931 . S
H2136 C2076 0.959 . S
H2137 C2076 0.961 . S
H2138 C2076 0.959 . S
H2139 C2077 0.960 . S
H2140 C2077 0.960 . S
H2141 C2077 0.960 . S
H2142 C2113 0.980 . S
H2143 C2079 0.930 . S
H2144 C2083 0.930 . S
H2145 C2084 0.961 . S
H2146 C2084 0.960 . S
H2147 C2084 0.958 . S
H2148 C2085 0.961 . S
H2149 C2085 0.960 . S
H2150 C2085 0.960 . S
H2151 C2087 0.980 . S
H2152 C2086 0.961 . S
H2153 C2086 0.961 . S
H2154 C2086 0.959 . S
H2155 C2089 0.932 . S
H2156 C2093 0.929 . S
H2157 C2094 0.961 . S
H2158 C2094 0.959 . S
H2159 C2094 0.959 . S
H2160 C2095 0.960 . S
H2161 C2095 0.962 . S
H2162 C2095 0.961 . S
H2163 C2097 0.929 . S
H2164 C2100 0.930 . S
H2165 C2101 0.929 . S
H2166 C2104 0.930 . S
H2167 C2107 0.929 . S
H2168 C2108 0.930 . S
H2169 C2112 0.962 . S
H2170 C2112 0.959 . S
H2171 C2112 0.958 . S
C2172 C2173 1.560 . S
C2172 H2233 0.959 . S
C2172 H2234 0.959 . S
C2172 H2235 0.960 . S
C2173 C2172 1.560 . S
C2173 O2228 1.426 . S
C2173 H2232 0.980 . S
C2174 C2175 1.407 . S
C2174 C2179 1.418 . S
C2174 O2228 1.334 . S
C2175 C2174 1.407 . S
C2175 C2176 1.360 . S
C2175 H2236 0.929 . S
C2176 C2175 1.360 . S
C2176 C2177 1.401 . S
C2176 C2180 1.527 . S
C2177 C2176 1.401 . S
C2177 C2178 1.405 . S
C2177 C2210 1.587 . S
C2178 C2177 1.405 . S
C2178 C2179 1.332 . S
C2178 C2181 1.496 . S
C2179 C2174 1.418 . S
C2179 C2178 1.332 . S
C2179 H2237 0.929 . S
C2180 C2176 1.527 . S
C2180 H2238 0.959 . S
C2180 H2239 0.961 . S
C2180 H2240 0.961 . S
C2181 C2178 1.496 . S
C2181 H2241 0.960 . S
C2181 H2242 0.960 . S
C2181 H2243 0.961 . S
C2182 C2183 1.517 . S
C2182 H2245 0.961 . S
C2182 H2246 0.960 . S
C2182 H2247 0.959 . S
C2183 C2182 1.517 . S
C2183 O2231 1.468 . S
C2183 H2244 0.980 . S
C2184 C2185 1.349 . S
C2184 C2189 1.367 . S
C2184 O2231 1.408 . S
C2185 C2184 1.349 . S
C2185 C2186 1.407 . S
C2185 H2248 0.930 . S
C2186 C2185 1.407 . S
C2186 C2187 1.449 . S
C2186 C2190 1.535 . S
C2187 C2186 1.449 . S
C2187 C2188 1.384 . S
C2187 C2212 1.553 . S
C2188 C2187 1.384 . S
C2188 C2189 1.364 . S
C2188 C2191 1.450 . S
C2189 C2184 1.367 . S
C2189 C2188 1.364 . S
C2189 H2249 0.931 . S
C2190 C2186 1.535 . S
C2190 H2250 0.959 . S
C2190 H2251 0.961 . S
C2190 H2252 0.959 . S
C2191 C2188 1.450 . S
C2191 H2253 0.960 . S
C2191 H2254 0.960 . S
C2191 H2255 0.960 . S
C2192 C2193 1.309 . S
C2192 C2197 1.304 . S
C2192 O2230 1.435 . S
C2193 C2192 1.309 . S
C2193 C2194 1.476 . S
C2193 H2257 0.930 . S
C2194 C2193 1.476 . S
C2194 C2195 1.400 . S
C2194 C2198 1.567 . S
C2195 C2194 1.400 . S
C2195 C2196 1.373 . S
C2195 C2217 1.432 . S
C2196 C2195 1.373 . S
C2196 C2197 1.339 . S
C2196 C2199 1.530 . S
C2197 C2192 1.304 . S
C2197 C2196 1.339 . S
C2197 H2258 0.930 . S
C2198 C2194 1.567 . S
C2198 H2259 0.961 . S
C2198 H2260 0.960 . S
C2198 H2261 0.958 . S
C2199 C2196 1.530 . S
C2199 H2262 0.961 . S
C2199 H2263 0.960 . S
C2199 H2264 0.960 . S
C2200 C2201 1.530 . S
C2200 H2266 0.961 . S
C2200 H2267 0.961 . S
C2200 H2268 0.959 . S
C2201 C2200 1.530 . S
C2201 O2229 1.412 . S
C2201 H2265 0.980 . S
C2202 C2203 1.288 . S
C2202 C2207 1.377 . S
C2202 O2229 1.393 . S
C2203 C2202 1.288 . S
C2203 C2204 1.369 . S
C2203 H2269 0.932 . S
C2204 C2203 1.369 . S
C2204 C2205 1.398 . S
C2204 C2208 1.527 . S
C2205 C2204 1.398 . S
C2205 C2206 1.380 . S
C2205 C2219 1.497 . S
C2206 C2205 1.380 . S
C2206 C2207 1.383 . S
C2206 C2209 1.603 . S
C2207 C2202 1.377 . S
C2207 C2206 1.383 . S
C2207 H2270 0.929 . S
C2208 C2204 1.527 . S
C2208 H2271 0.961 . S
C2208 H2272 0.959 . S
C2208 H2273 0.959 . S
C2209 C2206 1.603 . S
C2209 H2274 0.960 . S
C2209 H2275 0.962 . S
C2209 H2276 0.961 . S
C2210 C2177 1.587 . S
C2210 C2211 1.360 . S
C2210 C2223 1.412 . S
C2211 C2210 1.360 . S
C2211 C2212 1.365 . S
C2211 H2277 0.929 . S
C2212 C2187 1.553 . S
C2212 C2211 1.365 . S
C2212 C2213 1.404 . S
C2213 C2212 1.404 . S
C2213 C2214 1.395 . S
C2213 C2224 1.451 . S
C2214 C2213 1.395 . S
C2214 C2215 1.322 . S
C2214 H2278 0.930 . S
C2215 C2214 1.322 . S
C2215 C2216 1.459 . S
C2215 H2279 0.929 . S
C2216 C2215 1.459 . S
C2216 C2217 1.445 . S
C2216 C2225 1.395 . S
C2217 C2195 1.432 . S
C2217 C2216 1.445 . S
C2217 C2218 1.370 . S
C2218 C2217 1.370 . S
C2218 C2219 1.438 . S
C2218 H2280 0.930 . S
C2219 C2205 1.497 . S
C2219 C2218 1.438 . S
C2219 C2220 1.360 . S
C2220 C2219 1.360 . S
C2220 C2221 1.401 . S
C2220 C2225 1.446 . S
C2221 C2220 1.401 . S
C2221 C2222 1.347 . S
C2221 H2281 0.929 . S
C2222 C2221 1.347 . S
C2222 C2223 1.455 . S
C2222 H2282 0.930 . S
C2223 C2210 1.412 . S
C2223 C2222 1.455 . S
C2223 C2224 1.331 . S
C2224 C2213 1.451 . S
C2224 C2223 1.331 . S
C2224 C2225 1.497 . S
C2225 C2216 1.395 . S
C2225 C2220 1.446 . S
C2225 C2224 1.497 . S
C2226 C2227 1.582 . S
C2226 H2283 0.962 . S
C2226 H2284 0.959 . S
C2226 H2285 0.958 . S
C2227 C2226 1.582 . S
C2227 O2230 1.458 . S
C2227 H2256 0.980 . S
O2228 C2173 1.426 . S
O2228 C2174 1.334 . S
O2229 C2201 1.412 . S
O2229 C2202 1.393 . S
O2230 C2192 1.435 . S
O2230 C2227 1.458 . S
O2231 C2183 1.468 . S
O2231 C2184 1.408 . S
H2232 C2173 0.980 . S
H2233 C2172 0.959 . S
H2234 C2172 0.959 . S
H2235 C2172 0.960 . S
H2236 C2175 0.929 . S
H2237 C2179 0.929 . S
H2238 C2180 0.959 . S
H2239 C2180 0.961 . S
H2240 C2180 0.961 . S
H2241 C2181 0.960 . S
H2242 C2181 0.960 . S
H2243 C2181 0.961 . S
H2244 C2183 0.980 . S
H2245 C2182 0.961 . S
H2246 C2182 0.960 . S
H2247 C2182 0.959 . S
H2248 C2185 0.930 . S
H2249 C2189 0.931 . S
H2250 C2190 0.959 . S
H2251 C2190 0.961 . S
H2252 C2190 0.959 . S
H2253 C2191 0.960 . S
H2254 C2191 0.960 . S
H2255 C2191 0.960 . S
H2256 C2227 0.980 . S
H2257 C2193 0.930 . S
H2258 C2197 0.930 . S
H2259 C2198 0.961 . S
H2260 C2198 0.960 . S
H2261 C2198 0.958 . S
H2262 C2199 0.961 . S
H2263 C2199 0.960 . S
H2264 C2199 0.960 . S
H2265 C2201 0.980 . S
H2266 C2200 0.961 . S
H2267 C2200 0.961 . S
H2268 C2200 0.959 . S
H2269 C2203 0.932 . S
H2270 C2207 0.929 . S
H2271 C2208 0.961 . S
H2272 C2208 0.959 . S
H2273 C2208 0.959 . S
H2274 C2209 0.960 . S
H2275 C2209 0.962 . S
H2276 C2209 0.961 . S
H2277 C2211 0.929 . S
H2278 C2214 0.930 . S
H2279 C2215 0.929 . S
H2280 C2218 0.930 . S
H2281 C2221 0.929 . S
H2282 C2222 0.930 . S
H2283 C2226 0.962 . S
H2284 C2226 0.959 . S
H2285 C2226 0.958 . S
C2286 C2287 1.387 . S
C2286 H2290 0.950 . S
C2286 C2295 1.390 . S
C2287 C2286 1.387 . S
C2287 C2289 1.387 1_655 S
H2288 C2295 0.950 . S
C2289 C2287 1.387 1_455 S
C2289 C2291 1.390 . S
C2289 H2293 0.950 . S
H2290 C2286 0.950 . S
C2291 C2289 1.390 . S
C2291 C2292 1.387 1_455 S
C2291 H2294 0.950 . S
C2292 C2291 1.387 1_655 S
C2292 C2295 1.387 . S
H2293 C2289 0.950 . S
H2294 C2291 0.950 . S
C2295 C2286 1.390 . S
C2295 H2288 0.950 . S
C2295 C2292 1.387 . S
C2296 C2297 1.387 . S
C2296 H2300 0.950 . S
C2296 C2305 1.390 . S
C2297 C2296 1.387 . S
C2297 C2299 1.387 . S
H2298 C2305 0.950 . S
C2299 C2297 1.387 . S
C2299 C2301 1.390 . S
C2299 H2303 0.950 . S
H2300 C2296 0.950 . S
C2301 C2299 1.390 . S
C2301 C2302 1.387 . S
C2301 H2304 0.950 . S
C2302 C2301 1.387 . S
C2302 C2305 1.387 . S
H2303 C2299 0.950 . S
H2304 C2301 0.950 . S
C2305 C2296 1.390 . S
C2305 H2298 0.950 . S
C2305 C2302 1.387 . S
C2306 C2307 1.387 . S
C2306 H2310 0.950 . S
C2306 C2315 1.390 . S
C2307 C2306 1.387 . S
C2307 C2309 1.387 . S
H2308 C2315 0.950 . S
C2309 C2307 1.387 . S
C2309 C2311 1.364 1_545 S
C2309 H2313 0.950 1_545 S
H2310 C2306 0.950 . S
C2311 C2309 1.364 1_565 S
C2311 C2312 1.378 1_565 S
C2311 H2314 0.986 . S
C2312 C2311 1.378 1_545 S
C2312 C2315 1.387 . S
H2313 C2309 0.950 1_565 S
H2314 C2311 0.986 . S
C2315 C2306 1.390 . S
C2315 H2308 0.950 . S
C2315 C2312 1.387 . S
C2316 C2317 1.387 1_545 S
C2316 H2320 0.950 . S
C2316 C2325 1.390 . S
C2317 C2316 1.387 1_565 S
C2317 C2319 1.387 . S
H2318 C2325 0.950 . S
C2319 C2317 1.387 . S
C2319 C2321 1.390 . S
C2319 H2323 0.950 . S
H2320 C2316 0.950 . S
C2321 C2319 1.390 . S
C2321 C2322 1.387 . S
C2321 H2324 0.950 . S
C2322 C2321 1.387 . S
C2322 C2325 1.387 1_565 S
H2323 C2319 0.950 . S
H2324 C2321 0.950 . S
C2325 C2316 1.390 . S
C2325 H2318 0.950 . S
C2325 C2322 1.387 1_545 S
C2326 C2327 1.351 1_655 S
C2326 H2330 0.969 . S
C2326 C2335 1.408 . S
C2327 C2326 1.351 1_455 S
C2327 C2329 1.387 . S
H2328 C2335 0.950 . S
C2329 C2327 1.387 . S
C2329 C2331 1.390 . S
C2329 H2333 0.950 . S
H2330 C2326 0.969 . S
C2331 C2329 1.390 . S
C2331 C2332 1.387 . S
C2331 H2334 0.950 . S
C2332 C2331 1.387 . S
C2332 C2335 1.387 1_455 S
H2333 C2329 0.950 . S
H2334 C2331 0.950 . S
C2335 C2326 1.408 . S
C2335 H2328 0.950 . S
C2335 C2332 1.387 1_655 S
C2336 C2337 1.387 . S
C2336 H2340 0.950 . S
C2336 C2345 1.390 . S
C2337 C2336 1.387 . S
C2337 C2339 1.387 . S
H2338 C2345 0.950 . S
C2339 C2337 1.387 . S
C2339 C2341 1.390 . S
C2339 H2343 0.950 . S
H2340 C2336 0.950 . S
C2341 C2339 1.390 . S
C2341 C2342 1.387 . S
C2341 H2344 0.950 . S
C2342 C2341 1.387 . S
C2342 C2345 1.387 . S
H2343 C2339 0.950 . S
H2344 C2341 0.950 . S
C2345 C2336 1.390 . S
C2345 H2338 0.950 . S
C2345 C2342 1.387 . S
C2346 C2347 1.387 . S
C2346 H2350 0.950 . S
C2346 C2355 1.390 . S
C2347 C2346 1.387 . S
C2347 C2349 1.387 1_455 S
H2348 C2355 0.950 . S
C2349 C2347 1.387 1_655 S
C2349 C2351 1.390 . S
C2349 H2353 0.950 . S
H2350 C2346 0.950 . S
C2351 C2349 1.390 . S
C2351 C2352 1.387 1_655 S
C2351 H2354 0.950 . S
C2352 C2351 1.387 1_455 S
C2352 C2355 1.387 . S
H2353 C2349 0.950 . S
H2354 C2351 0.950 . S
C2355 C2346 1.390 . S
C2355 H2348 0.950 . S
C2355 C2352 1.387 . S
C2356 C2357 1.387 . S
C2356 H2360 0.950 . S
C2356 C2365 1.390 . S
C2357 C2356 1.387 . S
C2357 C2359 1.387 . S
H2358 C2365 0.950 . S
C2359 C2357 1.387 . S
C2359 C2361 1.390 . S
C2359 H2363 0.950 . S
H2360 C2356 0.950 . S
C2361 C2359 1.390 . S
C2361 C2362 1.387 . S
C2361 H2364 0.950 . S
C2362 C2361 1.387 . S
C2362 C2365 1.387 . S
H2363 C2359 0.950 . S
H2364 C2361 0.950 . S
C2365 C2356 1.390 . S
C2365 H2358 0.950 . S
C2365 C2362 1.387 . S
C2366 C2367 1.387 . S
C2366 H2370 0.950 . S
C2366 C2375 1.390 . S
C2367 C2366 1.387 . S
C2367 C2369 1.387 . S
H2368 C2375 0.950 . S
C2369 C2367 1.387 . S
C2369 C2371 1.390 . S
C2369 H2373 0.950 . S
H2370 C2366 0.950 . S
C2371 C2369 1.390 . S
C2371 C2372 1.387 . S
C2371 H2374 0.950 . S
C2372 C2371 1.387 . S
C2372 C2375 1.387 . S
H2373 C2369 0.950 . S
H2374 C2371 0.950 . S
C2375 C2366 1.390 . S
C2375 H2368 0.950 . S
C2375 C2372 1.387 . S
C2376 C2377 1.387 1_565 S
C2376 H2380 0.950 . S
C2376 C2385 1.390 . S
C2377 C2376 1.387 1_545 S
C2377 C2379 1.387 . S
H2378 C2385 0.950 . S
C2379 C2377 1.387 . S
C2379 C2381 1.390 . S
C2379 H2383 0.950 . S
H2380 C2376 0.950 . S
C2381 C2379 1.390 . S
C2381 C2382 1.387 . S
C2381 H2384 0.950 . S
C2382 C2381 1.387 . S
C2382 C2385 1.387 1_545 S
H2383 C2379 0.950 . S
H2384 C2381 0.950 . S
C2385 C2376 1.390 . S
C2385 H2378 0.950 . S
C2385 C2382 1.387 1_565 S
C2386 C2387 1.387 . S
C2386 H2390 0.950 . S
C2386 C2395 1.390 . S
C2387 C2386 1.387 . S
C2387 C2389 1.387 1_655 S
H2388 C2395 0.950 . S
C2389 C2387 1.387 1_455 S
C2389 C2391 1.390 . S
C2389 H2393 0.950 . S
H2390 C2386 0.950 . S
C2391 C2389 1.390 . S
C2391 C2392 1.387 1_455 S
C2391 H2394 0.950 . S
C2392 C2391 1.387 1_655 S
C2392 C2395 1.387 . S
H2393 C2389 0.950 . S
H2394 C2391 0.950 . S
C2395 C2386 1.390 . S
C2395 H2388 0.950 . S
C2395 C2392 1.387 . S
C2396 C2397 1.387 . S
C2396 H2400 0.950 . S
C2396 C2405 1.390 . S
C2397 C2396 1.387 . S
C2397 C2399 1.387 . S
H2398 C2405 0.950 . S
C2399 C2397 1.387 . S
C2399 C2401 1.390 . S
C2399 H2403 0.950 . S
H2400 C2396 0.950 . S
C2401 C2399 1.390 . S
C2401 C2402 1.387 . S
C2401 H2404 0.950 . S
C2402 C2401 1.387 . S
C2402 C2405 1.387 . S
H2403 C2399 0.950 . S
H2404 C2401 0.950 . S
C2405 C2396 1.390 . S
C2405 H2398 0.950 . S
C2405 C2402 1.387 . S
C2406 C2407 1.387 . S
C2406 H2410 0.950 . S
C2406 C2415 1.390 . S
C2407 C2406 1.387 . S
C2407 C2409 1.387 . S
H2408 C2415 0.950 . S
C2409 C2407 1.387 . S
C2409 C2411 1.390 . S
C2409 H2413 0.950 . S
H2410 C2406 0.950 . S
C2411 C2409 1.390 . S
C2411 C2412 1.387 . S
C2411 H2414 0.950 . S
C2412 C2411 1.387 . S
C2412 C2415 1.387 . S
H2413 C2409 0.950 . S
H2414 C2411 0.950 . S
C2415 C2406 1.390 . S
C2415 H2408 0.950 . S
C2415 C2412 1.387 . S
C2416 C2417 1.387 . S
C2416 H2420 0.950 . S
C2416 C2425 1.390 . S
C2417 C2416 1.387 . S
C2417 C2419 1.387 . S
H2418 C2425 0.950 . S
C2419 C2417 1.387 . S
C2419 C2421 1.390 . S
C2419 H2423 0.950 . S
H2420 C2416 0.950 . S
C2421 C2419 1.390 . S
C2421 C2422 1.387 . S
C2421 H2424 0.950 . S
C2422 C2421 1.387 . S
C2422 C2425 1.387 . S
H2423 C2419 0.950 . S
H2424 C2421 0.950 . S
C2425 C2416 1.390 . S
C2425 H2418 0.950 . S
C2425 C2422 1.387 . S
C2426 C2427 1.387 . S
C2426 H2430 0.950 . S
C2426 C2435 1.390 . S
C2427 C2426 1.387 . S
C2427 C2429 1.387 . S
H2428 C2435 0.950 . S
C2429 C2427 1.387 . S
C2429 C2431 1.390 . S
C2429 H2433 0.950 . S
H2430 C2426 0.950 . S
C2431 C2429 1.390 . S
C2431 C2432 1.387 . S
C2431 H2434 0.950 . S
C2432 C2431 1.387 . S
C2432 C2435 1.387 . S
H2433 C2429 0.950 . S
H2434 C2431 0.950 . S
C2435 C2426 1.390 . S
C2435 H2428 0.950 . S
C2435 C2432 1.387 . S
C2436 C2437 1.387 . S
C2436 H2440 0.950 . S
C2436 C2445 1.390 . S
C2437 C2436 1.387 . S
C2437 C2439 1.387 . S
H2438 C2445 0.950 . S
C2439 C2437 1.387 . S
C2439 C2441 1.390 . S
C2439 H2443 0.950 . S
H2440 C2436 0.950 . S
C2441 C2439 1.390 . S
C2441 C2442 1.387 . S
C2441 H2444 0.950 . S
C2442 C2441 1.387 . S
C2442 C2445 1.387 . S
H2443 C2439 0.950 . S
H2444 C2441 0.950 . S
C2445 C2436 1.390 . S
C2445 H2438 0.950 . S
C2445 C2442 1.387 . S
C2446 C2447 1.387 . S
C2446 H2450 0.950 . S
C2446 C2455 1.390 . S
C2447 C2446 1.387 . S
C2447 C2449 1.387 . S
H2448 C2455 0.950 . S
C2449 C2447 1.387 . S
C2449 C2451 1.390 . S
C2449 H2453 0.950 . S
H2450 C2446 0.950 . S
C2451 C2449 1.390 . S
C2451 C2452 1.387 . S
C2451 H2454 0.950 . S
C2452 C2451 1.387 . S
C2452 C2455 1.387 . S
H2453 C2449 0.950 . S
H2454 C2451 0.950 . S
C2455 C2446 1.390 . S
C2455 H2448 0.950 . S
C2455 C2452 1.387 . S
C2456 C2457 1.387 . S
C2456 H2460 0.950 . S
C2456 C2465 1.390 . S
C2457 C2456 1.387 . S
C2457 C2459 1.387 . S
H2458 C2465 0.950 . S
C2459 C2457 1.387 . S
C2459 C2461 1.390 . S
C2459 H2463 0.950 . S
H2460 C2456 0.950 . S
C2461 C2459 1.390 . S
C2461 C2462 1.387 . S
C2461 H2464 0.950 . S
C2462 C2461 1.387 . S
C2462 C2465 1.387 . S
H2463 C2459 0.950 . S
H2464 C2461 0.950 . S
C2465 C2456 1.390 . S
C2465 H2458 0.950 . S
C2465 C2462 1.387 . S
C2466 C2467 1.387 . S
C2466 H2470 0.950 . S
C2466 C2475 1.390 . S
C2467 C2466 1.387 . S
C2467 C2469 1.387 . S
H2468 C2475 0.950 . S
C2469 C2467 1.387 . S
C2469 C2471 1.390 . S
C2469 H2473 0.950 . S
H2470 C2466 0.950 . S
C2471 C2469 1.390 . S
C2471 C2472 1.387 . S
C2471 H2474 0.950 . S
C2472 C2471 1.387 . S
C2472 C2475 1.387 . S
H2473 C2469 0.950 . S
H2474 C2471 0.950 . S
C2475 C2466 1.390 . S
C2475 H2468 0.950 . S
C2475 C2472 1.387 . S
C2476 C2477 1.387 . S
C2476 H2480 0.950 . S
C2476 C2485 1.390 . S
C2477 C2476 1.387 . S
C2477 C2479 1.387 . S
H2478 C2485 0.950 . S
C2479 C2477 1.387 . S
C2479 C2481 1.390 . S
C2479 H2483 0.950 . S
H2480 C2476 0.950 . S
C2481 C2479 1.390 . S
C2481 C2482 1.387 . S
C2481 H2484 0.950 . S
C2482 C2481 1.387 . S
C2482 C2485 1.387 . S
H2483 C2479 0.950 . S
H2484 C2481 0.950 . S
C2485 C2476 1.390 . S
C2485 H2478 0.950 . S
C2485 C2482 1.387 . S
C2486 C2487 1.387 . S
C2486 H2490 0.950 . S
C2486 C2495 1.390 . S
C2487 C2486 1.387 . S
C2487 C2489 1.387 . S
H2488 C2495 0.950 . S
C2489 C2487 1.387 . S
C2489 C2491 1.390 . S
C2489 H2493 0.950 . S
H2490 C2486 0.950 . S
C2491 C2489 1.390 . S
C2491 C2492 1.387 . S
C2491 H2494 0.950 . S
C2492 C2491 1.387 . S
C2492 C2495 1.387 . S
H2493 C2489 0.950 . S
H2494 C2491 0.950 . S
C2495 C2486 1.390 . S
C2495 H2488 0.950 . S
C2495 C2492 1.387 . S
C2496 C2497 1.387 . S
C2496 H2500 0.950 . S
C2496 C2505 1.390 . S
C2497 C2496 1.387 . S
C2497 C2499 1.387 . S
H2498 C2505 0.950 . S
C2499 C2497 1.387 . S
C2499 C2501 1.390 . S
C2499 H2503 0.950 . S
H2500 C2496 0.950 . S
C2501 C2499 1.390 . S
C2501 C2502 1.387 . S
C2501 H2504 0.950 . S
C2502 C2501 1.387 . S
C2502 C2505 1.387 . S
H2503 C2499 0.950 . S
H2504 C2501 0.950 . S
C2505 C2496 1.390 . S
C2505 H2498 0.950 . S
C2505 C2502 1.387 . S
C2506 C2507 1.387 . S
C2506 H2510 0.950 . S
C2506 C2515 1.390 . S
C2507 C2506 1.387 . S
C2507 C2509 1.387 . S
H2508 C2515 0.950 . S
C2509 C2507 1.387 . S
C2509 C2511 1.390 . S
C2509 H2513 0.950 . S
H2510 C2506 0.950 . S
C2511 C2509 1.390 . S
C2511 C2512 1.387 . S
C2511 H2514 0.950 . S
C2512 C2511 1.387 . S
C2512 C2515 1.387 . S
H2513 C2509 0.950 . S
H2514 C2511 0.950 . S
C2515 C2506 1.390 . S
C2515 H2508 0.950 . S
C2515 C2512 1.387 . S
C2516 C2517 1.387 . S
C2516 H2520 0.950 . S
C2516 C2525 1.390 . S
C2517 C2516 1.387 . S
C2517 C2519 1.387 . S
H2518 C2525 0.950 . S
C2519 C2517 1.387 . S
C2519 C2521 1.390 . S
C2519 H2523 0.950 . S
H2520 C2516 0.950 . S
C2521 C2519 1.390 . S
C2521 C2522 1.387 . S
C2521 H2524 0.950 . S
C2522 C2521 1.387 . S
C2522 C2525 1.387 . S
H2523 C2519 0.950 . S
H2524 C2521 0.950 . S
C2525 C2516 1.390 . S
C2525 H2518 0.950 . S
C2525 C2522 1.387 . S
C2526 C2527 1.387 . S
C2526 H2530 0.950 . S
C2526 C2535 1.390 . S
C2527 C2526 1.387 . S
C2527 C2529 1.387 . S
H2528 C2535 0.950 . S
C2529 C2527 1.387 . S
C2529 C2531 1.390 . S
C2529 H2533 0.950 . S
H2530 C2526 0.950 . S
C2531 C2529 1.390 . S
C2531 C2532 1.387 . S
C2531 H2534 0.950 . S
C2532 C2531 1.387 . S
C2532 C2535 1.387 . S
H2533 C2529 0.950 . S
H2534 C2531 0.950 . S
C2535 C2526 1.390 . S
C2535 H2528 0.950 . S
C2535 C2532 1.387 . S
C2536 C2537 1.387 . S
C2536 H2540 0.950 . S
C2536 C2545 1.390 . S
C2537 C2536 1.387 . S
C2537 C2539 1.387 . S
H2538 C2545 0.950 . S
C2539 C2537 1.387 . S
C2539 C2541 1.390 . S
C2539 H2543 0.950 . S
H2540 C2536 0.950 . S
C2541 C2539 1.390 . S
C2541 C2542 1.387 . S
C2541 H2544 0.950 . S
C2542 C2541 1.387 . S
C2542 C2545 1.387 . S
H2543 C2539 0.950 . S
H2544 C2541 0.950 . S
C2545 C2536 1.390 . S
C2545 H2538 0.950 . S
C2545 C2542 1.387 . S
C2546 C2547 1.387 . S
C2546 H2550 0.950 . S
C2546 C2555 1.390 . S
C2547 C2546 1.387 . S
C2547 C2549 1.387 . S
H2548 C2555 0.950 . S
C2549 C2547 1.387 . S
C2549 C2551 1.390 . S
C2549 H2553 0.950 . S
H2550 C2546 0.950 . S
C2551 C2549 1.390 . S
C2551 C2552 1.387 . S
C2551 H2554 0.950 . S
C2552 C2551 1.387 . S
C2552 C2555 1.387 . S
H2553 C2549 0.950 . S
H2554 C2551 0.950 . S
C2555 C2546 1.390 . S
C2555 H2548 0.950 . S
C2555 C2552 1.387 . S
C2556 C2557 1.387 . S
C2556 H2560 0.950 . S
C2556 C2565 1.390 . S
C2557 C2556 1.387 . S
C2557 C2559 1.387 . S
H2558 C2565 0.950 . S
C2559 C2557 1.387 . S
C2559 C2561 1.390 . S
C2559 H2563 0.950 . S
H2560 C2556 0.950 . S
C2561 C2559 1.390 . S
C2561 C2562 1.387 . S
C2561 H2564 0.950 . S
C2562 C2561 1.387 . S
C2562 C2565 1.387 . S
H2563 C2559 0.950 . S
H2564 C2561 0.950 . S
C2565 C2556 1.390 . S
C2565 H2558 0.950 . S
C2565 C2562 1.387 . S
C2566 C2567 1.387 . S
C2566 H2570 0.950 . S
C2566 C2575 1.390 . S
C2567 C2566 1.387 . S
C2567 C2569 1.387 . S
H2568 C2575 0.950 . S
C2569 C2567 1.387 . S
C2569 C2571 1.390 . S
C2569 H2573 0.950 . S
H2570 C2566 0.950 . S
C2571 C2569 1.390 . S
C2571 C2572 1.387 . S
C2571 H2574 0.950 . S
C2572 C2571 1.387 . S
C2572 C2575 1.387 . S
H2573 C2569 0.950 . S
H2574 C2571 0.950 . S
C2575 C2566 1.390 . S
C2575 H2568 0.950 . S
C2575 C2572 1.387 . S
C2576 C2577 1.387 . S
C2576 H2580 0.950 . S
C2576 C2585 1.390 . S
C2577 C2576 1.387 . S
C2577 C2579 1.387 . S
H2578 C2585 0.950 . S
C2579 C2577 1.387 . S
C2579 C2581 1.390 . S
C2579 H2583 0.950 . S
H2580 C2576 0.950 . S
C2581 C2579 1.390 . S
C2581 C2582 1.387 . S
C2581 H2584 0.950 . S
C2582 C2581 1.387 . S
C2582 C2585 1.387 . S
H2583 C2579 0.950 . S
H2584 C2581 0.950 . S
C2585 C2576 1.390 . S
C2585 H2578 0.950 . S
C2585 C2582 1.387 . S
C2586 C2587 1.387 . S
C2586 H2590 0.950 . S
C2586 C2595 1.390 . S
C2587 C2586 1.387 . S
C2587 C2589 1.387 . S
H2588 C2595 0.950 . S
C2589 C2587 1.387 . S
C2589 C2591 1.390 . S
C2589 H2593 0.950 . S
H2590 C2586 0.950 . S
C2591 C2589 1.390 . S
C2591 C2592 1.387 . S
C2591 H2594 0.950 . S
C2592 C2591 1.387 . S
C2592 C2595 1.387 . S
H2593 C2589 0.950 . S
H2594 C2591 0.950 . S
C2595 C2586 1.390 . S
C2595 H2588 0.950 . S
C2595 C2592 1.387 . S
C2596 C2597 1.387 . S
C2596 H2600 0.950 . S
C2596 C2605 1.390 . S
C2597 C2596 1.387 . S
C2597 C2599 1.387 . S
H2598 C2605 0.950 . S
C2599 C2597 1.387 . S
C2599 C2601 1.390 . S
C2599 H2603 0.950 . S
H2600 C2596 0.950 . S
C2601 C2599 1.390 . S
C2601 C2602 1.387 . S
C2601 H2604 0.950 . S
C2602 C2601 1.387 . S
C2602 C2605 1.387 . S
H2603 C2599 0.950 . S
H2604 C2601 0.950 . S
C2605 C2596 1.390 . S
C2605 H2598 0.950 . S
C2605 C2602 1.387 . S
C2606 C2607 1.387 . S
C2606 H2610 0.950 . S
C2606 C2615 1.390 . S
C2607 C2606 1.387 . S
C2607 C2609 1.387 . S
H2608 C2615 0.950 . S
C2609 C2607 1.387 . S
C2609 C2611 1.390 . S
C2609 H2613 0.950 . S
H2610 C2606 0.950 . S
C2611 C2609 1.390 . S
C2611 C2612 1.387 . S
C2611 H2614 0.950 . S
C2612 C2611 1.387 . S
C2612 C2615 1.387 . S
H2613 C2609 0.950 . S
H2614 C2611 0.950 . S
C2615 C2606 1.390 . S
C2615 H2608 0.950 . S
C2615 C2612 1.387 . S
C2616 C2617 1.387 . S
C2616 H2620 0.950 . S
C2616 C2625 1.390 . S
C2617 C2616 1.387 . S
C2617 C2619 1.387 . S
H2618 C2625 0.950 . S
C2619 C2617 1.387 . S
C2619 C2621 1.390 . S
C2619 H2623 0.950 . S
H2620 C2616 0.950 . S
C2621 C2619 1.390 . S
C2621 C2622 1.387 . S
C2621 H2624 0.950 . S
C2622 C2621 1.387 . S
C2622 C2625 1.387 . S
H2623 C2619 0.950 . S
H2624 C2621 0.950 . S
C2625 C2616 1.390 . S
C2625 H2618 0.950 . S
C2625 C2622 1.387 . S
C2626 C2627 1.387 . S
C2626 H2630 0.950 . S
C2626 C2635 1.390 . S
C2627 C2626 1.387 . S
C2627 C2629 1.387 . S
H2628 C2635 0.950 . S
C2629 C2627 1.387 . S
C2629 C2631 1.390 . S
C2629 H2633 0.950 . S
H2630 C2626 0.950 . S
C2631 C2629 1.390 . S
C2631 C2632 1.387 . S
C2631 H2634 0.950 . S
C2632 C2631 1.387 . S
C2632 C2635 1.387 . S
H2633 C2629 0.950 . S
H2634 C2631 0.950 . S
C2635 C2626 1.390 . S
C2635 H2628 0.950 . S
C2635 C2632 1.387 . S
C2636 C2637 1.387 . S
C2636 H2640 0.950 . S
C2636 C2645 1.390 . S
C2637 C2636 1.387 . S
C2637 C2639 1.387 . S
H2638 C2645 0.950 . S
C2639 C2637 1.387 . S
C2639 C2641 1.390 . S
C2639 H2643 0.950 . S
H2640 C2636 0.950 . S
C2641 C2639 1.390 . S
C2641 C2642 1.387 . S
C2641 H2644 0.950 . S
C2642 C2641 1.387 . S
C2642 C2645 1.387 . S
H2643 C2639 0.950 . S
H2644 C2641 0.950 . S
C2645 C2636 1.390 . S
C2645 H2638 0.950 . S
C2645 C2642 1.387 . S
C2646 C2647 1.387 . S
C2646 H2650 0.950 . S
C2646 C2655 1.390 . S
C2647 C2646 1.387 . S
C2647 C2649 1.387 . S
H2648 C2655 0.950 . S
C2649 C2647 1.387 . S
C2649 C2651 1.390 . S
C2649 H2653 0.950 . S
H2650 C2646 0.950 . S
C2651 C2649 1.390 . S
C2651 C2652 1.387 . S
C2651 H2654 0.950 . S
C2652 C2651 1.387 . S
C2652 C2655 1.387 . S
H2653 C2649 0.950 . S
H2654 C2651 0.950 . S
C2655 C2646 1.390 . S
C2655 H2648 0.950 . S
C2655 C2652 1.387 . S
C2656 C2657 1.387 . S
C2656 H2660 0.950 . S
C2656 C2665 1.390 . S
C2657 C2656 1.387 . S
C2657 C2659 1.387 . S
H2658 C2665 0.950 . S
C2659 C2657 1.387 . S
C2659 C2661 1.390 . S
C2659 H2663 0.950 . S
H2660 C2656 0.950 . S
C2661 C2659 1.390 . S
C2661 C2662 1.387 . S
C2661 H2664 0.950 . S
C2662 C2661 1.387 . S
C2662 C2665 1.387 . S
H2663 C2659 0.950 . S
H2664 C2661 0.950 . S
C2665 C2656 1.390 . S
C2665 H2658 0.950 . S
C2665 C2662 1.387 . S
C2666 C2667 1.387 . S
C2666 H2670 0.950 . S
C2666 C2675 1.390 . S
C2667 C2666 1.387 . S
C2667 C2669 1.387 . S
H2668 C2675 0.950 . S
C2669 C2667 1.387 . S
C2669 C2671 1.390 . S
C2669 H2673 0.950 . S
H2670 C2666 0.950 . S
C2671 C2669 1.390 . S
C2671 C2672 1.387 . S
C2671 H2674 0.950 . S
C2672 C2671 1.387 . S
C2672 C2675 1.387 . S
H2673 C2669 0.950 . S
H2674 C2671 0.950 . S
C2675 C2666 1.390 . S
C2675 H2668 0.950 . S
C2675 C2672 1.387 . S
C2676 C2677 1.387 . S
C2676 H2680 0.950 . S
C2676 C2685 1.390 . S
C2677 C2676 1.387 . S
C2677 C2679 1.387 . S
H2678 C2685 0.950 . S
C2679 C2677 1.387 . S
C2679 C2681 1.390 . S
C2679 H2683 0.950 1_556 S
H2680 C2676 0.950 . S
C2681 C2679 1.390 . S
C2681 C2682 1.387 . S
C2681 H2684 0.950 . S
C2682 C2681 1.387 . S
C2682 C2685 1.387 . S
H2683 C2679 0.950 1_554 S
H2684 C2681 0.950 . S
C2685 C2676 1.390 . S
C2685 H2678 0.950 . S
C2685 C2682 1.387 . S
C2686 C2687 1.387 . S
C2686 H2690 0.950 1_556 S
C2686 C2695 1.390 . S
C2687 C2686 1.387 . S
C2687 C2689 1.387 . S
H2688 C2695 0.950 . S
C2689 C2687 1.387 . S
C2689 C2691 1.390 . S
C2689 H2693 0.950 . S
H2690 C2686 0.950 1_554 S
C2691 C2689 1.390 . S
C2691 C2692 1.387 . S
C2691 H2694 0.950 . S
C2692 C2691 1.387 . S
C2692 C2695 1.387 . S
H2693 C2689 0.950 . S
H2694 C2691 0.950 . S
C2695 C2686 1.390 . S
C2695 H2688 0.950 . S
C2695 C2692 1.387 . S
C2696 C2697 1.387 . S
C2696 H2700 0.950 . S
C2696 C2705 1.390 . S
C2697 C2696 1.387 . S
C2697 C2699 1.387 . S
H2698 C2705 0.950 . S
C2699 C2697 1.387 . S
C2699 C2701 1.390 . S
C2699 H2703 0.950 . S
H2700 C2696 0.950 . S
C2701 C2699 1.390 . S
C2701 C2702 1.387 . S
C2701 H2704 0.950 . S
C2702 C2701 1.387 . S
C2702 C2705 1.387 . S
H2703 C2699 0.950 . S
H2704 C2701 0.950 . S
C2705 C2696 1.390 . S
C2705 H2698 0.950 . S
C2705 C2702 1.387 . S
C2706 C2707 1.387 . S
C2706 H2710 0.950 . S
C2706 C2715 1.390 . S
C2707 C2706 1.387 . S
C2707 C2709 1.387 . S
H2708 C2715 0.950 . S
C2709 C2707 1.387 . S
C2709 C2711 1.390 . S
C2709 H2713 0.950 1_556 S
H2710 C2706 0.950 . S
C2711 C2709 1.390 . S
C2711 C2712 1.387 . S
C2711 H2714 0.950 . S
C2712 C2711 1.387 . S
C2712 C2715 1.387 . S
H2713 C2709 0.950 1_554 S
H2714 C2711 0.950 . S
C2715 C2706 1.390 . S
C2715 H2708 0.950 . S
C2715 C2712 1.387 . S
C2716 C2717 1.387 . S
C2716 H2720 0.950 . S
C2716 C2725 1.390 . S
C2717 C2716 1.387 . S
C2717 C2719 1.387 . S
H2718 C2725 0.950 . S
C2719 C2717 1.387 . S
C2719 C2721 1.390 . S
C2719 H2723 0.950 . S
H2720 C2716 0.950 . S
C2721 C2719 1.390 . S
C2721 C2722 1.387 . S
C2721 H2724 0.950 . S
C2722 C2721 1.387 . S
C2722 C2725 1.387 . S
H2723 C2719 0.950 . S
H2724 C2721 0.950 . S
C2725 C2716 1.390 . S
C2725 H2718 0.950 . S
C2725 C2722 1.387 . S
C2726 C2727 1.387 . S
C2726 H2730 0.950 . S
C2726 C2735 1.390 . S
C2727 C2726 1.387 . S
C2727 C2729 1.387 . S
H2728 C2735 0.950 . S
C2729 C2727 1.387 . S
C2729 C2731 1.390 . S
C2729 H2733 0.950 . S
H2730 C2726 0.950 . S
C2731 C2729 1.390 . S
C2731 C2732 1.387 . S
C2731 H2734 0.950 . S
C2732 C2731 1.387 . S
C2732 C2735 1.387 . S
H2733 C2729 0.950 . S
H2734 C2731 0.950 . S
C2735 C2726 1.390 . S
C2735 H2728 0.950 . S
C2735 C2732 1.387 . S
C2736 C2737 1.387 . S
C2736 H2740 0.950 . S
C2736 C2745 1.390 . S
C2737 C2736 1.387 . S
C2737 C2739 1.387 . S
H2738 C2745 0.950 . S
C2739 C2737 1.387 . S
C2739 C2741 1.390 . S
C2739 H2743 0.950 . S
H2740 C2736 0.950 . S
C2741 C2739 1.390 . S
C2741 C2742 1.387 . S
C2741 H2744 0.950 . S
C2742 C2741 1.387 . S
C2742 C2745 1.387 . S
H2743 C2739 0.950 . S
H2744 C2741 0.950 . S
C2745 C2736 1.390 . S
C2745 H2738 0.950 . S
C2745 C2742 1.387 . S
C2746 C2747 1.387 . S
C2746 H2750 0.950 . S
C2746 C2755 1.390 . S
C2747 C2746 1.387 . S
C2747 C2749 1.387 . S
H2748 C2755 0.950 . S
C2749 C2747 1.387 . S
C2749 C2751 1.390 . S
C2749 H2753 0.950 . S
H2750 C2746 0.950 . S
C2751 C2749 1.390 . S
C2751 C2752 1.387 . S
C2751 H2754 0.950 . S
C2752 C2751 1.387 . S
C2752 C2755 1.387 . S
H2753 C2749 0.950 . S
H2754 C2751 0.950 . S
C2755 C2746 1.390 . S
C2755 H2748 0.950 . S
C2755 C2752 1.387 . S
C2756 C2757 1.387 . S
C2756 H2760 0.950 . S
C2756 C2765 1.390 . S
C2757 C2756 1.387 . S
C2757 C2759 1.387 . S
H2758 C2765 0.950 . S
C2759 C2757 1.387 . S
C2759 C2761 1.390 . S
C2759 H2763 0.950 . S
H2760 C2756 0.950 . S
C2761 C2759 1.390 . S
C2761 C2762 1.387 . S
C2761 H2764 0.950 . S
C2762 C2761 1.387 . S
C2762 C2765 1.387 . S
H2763 C2759 0.950 . S
H2764 C2761 0.950 . S
C2765 C2756 1.390 . S
C2765 H2758 0.950 . S
C2765 C2762 1.387 . S
C2766 C2767 1.387 . S
C2766 H2770 0.950 . S
C2766 C2775 1.390 . S
C2767 C2766 1.387 . S
C2767 C2769 1.387 . S
H2768 C2775 0.950 . S
C2769 C2767 1.387 . S
C2769 C2771 1.390 . S
C2769 H2773 0.950 . S
H2770 C2766 0.950 . S
C2771 C2769 1.390 . S
C2771 C2772 1.387 . S
C2771 H2774 0.950 . S
C2772 C2771 1.387 . S
C2772 C2775 1.387 . S
H2773 C2769 0.950 . S
H2774 C2771 0.950 . S
C2775 C2766 1.390 . S
C2775 H2768 0.950 . S
C2775 C2772 1.387 . S
C2776 C2777 1.387 . S
C2776 H2780 0.950 . S
C2776 C2785 1.390 . S
C2777 C2776 1.387 . S
C2777 C2779 1.387 . S
H2778 C2785 0.950 . S
C2779 C2777 1.387 . S
C2779 C2781 1.390 . S
C2779 H2783 0.950 . S
H2780 C2776 0.950 . S
C2781 C2779 1.390 . S
C2781 C2782 1.387 . S
C2781 H2784 0.950 . S
C2782 C2781 1.387 . S
C2782 C2785 1.387 . S
H2783 C2779 0.950 . S
H2784 C2781 0.950 . S
C2785 C2776 1.390 . S
C2785 H2778 0.950 . S
C2785 C2782 1.387 . S
C2786 C2787 1.387 . S
C2786 H2790 0.950 . S
C2786 C2795 1.390 . S
C2787 C2786 1.387 . S
C2787 C2789 1.387 . S
H2788 C2795 0.950 . S
C2789 C2787 1.387 . S
C2789 C2791 1.390 . S
C2789 H2793 0.950 . S
H2790 C2786 0.950 . S
C2791 C2789 1.390 . S
C2791 C2792 1.387 . S
C2791 H2794 0.950 . S
C2792 C2791 1.387 . S
C2792 C2795 1.387 . S
H2793 C2789 0.950 . S
H2794 C2791 0.950 . S
C2795 C2786 1.390 . S
C2795 H2788 0.950 . S
C2795 C2792 1.387 . S
C2796 C2797 1.387 . S
C2796 H2800 0.950 . S
C2796 C2805 1.390 . S
C2797 C2796 1.387 . S
C2797 C2799 1.387 . S
H2798 C2805 0.950 . S
C2799 C2797 1.387 . S
C2799 C2801 1.390 . S
C2799 H2803 0.950 . S
H2800 C2796 0.950 . S
C2801 C2799 1.390 . S
C2801 C2802 1.387 . S
C2801 H2804 0.950 . S
C2802 C2801 1.387 . S
C2802 C2805 1.387 . S
H2803 C2799 0.950 . S
H2804 C2801 0.950 . S
C2805 C2796 1.390 . S
C2805 H2798 0.950 . S
C2805 C2802 1.387 . S
C2806 C2807 1.387 . S
C2806 H2810 0.950 . S
C2806 C2815 1.390 . S
C2807 C2806 1.387 . S
C2807 C2809 1.387 . S
H2808 C2815 0.950 . S
C2809 C2807 1.387 . S
C2809 C2811 1.390 . S
C2809 H2813 0.950 . S
H2810 C2806 0.950 . S
C2811 C2809 1.390 . S
C2811 C2812 1.387 . S
C2811 H2814 0.950 . S
C2812 C2811 1.387 . S
C2812 C2815 1.387 . S
H2813 C2809 0.950 . S
H2814 C2811 0.950 . S
C2815 C2806 1.390 . S
C2815 H2808 0.950 . S
C2815 C2812 1.387 . S
C2816 C2817 1.387 . S
C2816 H2820 0.950 . S
C2816 C2825 1.390 . S
C2817 C2816 1.387 . S
C2817 C2819 1.387 1_565 S
H2818 C2825 0.950 . S
C2819 C2817 1.387 1_545 S
C2819 C2821 1.390 . S
C2819 H2823 0.950 . S
H2820 C2816 0.950 . S
C2821 C2819 1.390 . S
C2821 C2822 1.387 1_545 S
C2821 H2824 0.950 . S
C2822 C2821 1.387 1_565 S
C2822 C2825 1.387 . S
H2823 C2819 0.950 . S
H2824 C2821 0.950 . S
C2825 C2816 1.390 . S
C2825 H2818 0.950 . S
C2825 C2822 1.387 . S
C2826 C2827 1.387 . S
C2826 H2830 0.950 . S
C2826 C2835 1.390 . S
C2827 C2826 1.387 . S
C2827 C2829 1.387 1_565 S
H2828 C2835 0.950 . S
C2829 C2827 1.387 1_545 S
C2829 C2831 1.390 . S
C2829 H2833 0.950 . S
H2830 C2826 0.950 . S
C2831 C2829 1.390 . S
C2831 C2832 1.387 1_545 S
C2831 H2834 0.950 . S
C2832 C2831 1.387 1_565 S
C2832 C2835 1.387 . S
H2833 C2829 0.950 . S
H2834 C2831 0.950 . S
C2835 C2826 1.390 . S
C2835 H2828 0.950 . S
C2835 C2832 1.387 . S
C2836 C2837 1.387 1_655 S
C2836 H2840 0.950 . S
C2836 C2845 1.390 . S
C2837 C2836 1.387 1_455 S
C2837 C2839 1.387 . S
H2838 C2845 0.950 . S
C2839 C2837 1.387 . S
C2839 C2841 1.390 . S
C2839 H2843 0.950 . S
H2840 C2836 0.950 . S
C2841 C2839 1.390 . S
C2841 C2842 1.399 . S
C2841 H2844 0.950 . S
C2842 C2841 1.399 . S
C2842 C2845 1.371 1_455 S
H2843 C2839 0.950 . S
H2844 C2841 0.950 . S
C2845 C2836 1.390 . S
C2845 H2838 0.950 . S
C2845 C2842 1.371 1_655 S
C2846 C2847 1.387 . S
C2846 H2850 0.950 . S
C2846 C2855 1.390 . S
C2847 C2846 1.387 . S
C2847 C2849 1.387 . S
H2848 C2855 0.950 . S
C2849 C2847 1.387 . S
C2849 C2851 1.390 . S
C2849 H2853 0.950 . S
H2850 C2846 0.950 . S
C2851 C2849 1.390 . S
C2851 C2852 1.387 . S
C2851 H2854 0.950 . S
C2852 C2851 1.387 . S
C2852 C2855 1.387 . S
H2853 C2849 0.950 . S
H2854 C2851 0.950 . S
C2855 C2846 1.390 . S
C2855 H2848 0.950 . S
C2855 C2852 1.387 . S
C2856 C2857 1.387 . S
C2856 H2860 0.950 . S
C2856 C2865 1.390 . S
C2857 C2856 1.387 . S
C2857 C2859 1.387 . S
H2858 C2865 0.950 . S
C2859 C2857 1.387 . S
C2859 C2861 1.390 . S
C2859 H2863 0.950 . S
H2860 C2856 0.950 . S
C2861 C2859 1.390 . S
C2861 C2862 1.387 . S
C2861 H2864 0.950 . S
C2862 C2861 1.387 . S
C2862 C2865 1.387 . S
H2863 C2859 0.950 . S
H2864 C2861 0.950 . S
C2865 C2856 1.390 . S
C2865 H2858 0.950 . S
C2865 C2862 1.387 . S
C2866 C2867 1.387 . S
C2866 H2870 0.950 . S
C2866 C2875 1.390 . S
C2867 C2866 1.387 . S
C2867 C2869 1.387 . S
H2868 C2875 0.950 . S
C2869 C2867 1.387 . S
C2869 C2871 1.390 . S
C2869 H2873 0.950 . S
H2870 C2866 0.950 . S
C2871 C2869 1.390 . S
C2871 C2872 1.387 . S
C2871 H2874 0.950 . S
C2872 C2871 1.387 . S
C2872 C2875 1.387 . S
H2873 C2869 0.950 . S
H2874 C2871 0.950 . S
C2875 C2866 1.390 . S
C2875 H2868 0.950 . S
C2875 C2872 1.387 . S
C2876 C2877 1.387 . S
C2876 H2880 0.950 . S
C2876 C2885 1.390 . S
C2877 C2876 1.387 . S
C2877 C2879 1.387 . S
H2878 C2885 0.950 . S
C2879 C2877 1.387 . S
C2879 C2881 1.390 . S
C2879 H2883 0.950 . S
H2880 C2876 0.950 . S
C2881 C2879 1.390 . S
C2881 C2882 1.387 . S
C2881 H2884 0.950 . S
C2882 C2881 1.387 . S
C2882 C2885 1.387 . S
H2883 C2879 0.950 . S
H2884 C2881 0.950 . S
C2885 C2876 1.390 . S
C2885 H2878 0.950 . S
C2885 C2882 1.387 . S
C2886 C2887 1.387 . S
C2886 H2890 0.950 . S
C2886 C2895 1.390 . S
C2887 C2886 1.387 . S
C2887 C2889 1.387 . S
H2888 C2895 0.950 . S
C2889 C2887 1.387 . S
C2889 C2891 1.390 . S
C2889 H2893 0.950 1_545 S
H2890 C2886 0.950 . S
C2891 C2889 1.390 . S
C2891 C2892 1.387 . S
C2891 H2894 0.950 1_545 S
C2892 C2891 1.387 . S
C2892 C2895 1.387 . S
H2893 C2889 0.950 1_565 S
H2894 C2891 0.950 1_565 S
C2895 C2886 1.390 . S
C2895 H2888 0.950 . S
C2895 C2892 1.387 . S
C2896 C2897 1.387 . S
C2896 H2900 0.950 . S
C2896 C2905 1.390 . S
C2897 C2896 1.387 . S
C2897 C2899 1.387 . S
H2898 C2905 0.950 . S
C2899 C2897 1.387 . S
C2899 C2901 1.390 . S
C2899 H2903 0.950 . S
H2900 C2896 0.950 . S
C2901 C2899 1.390 . S
C2901 C2902 1.387 . S
C2901 H2904 0.950 . S
C2902 C2901 1.387 . S
C2902 C2905 1.387 . S
H2903 C2899 0.950 . S
H2904 C2901 0.950 . S
C2905 C2896 1.390 . S
C2905 H2898 0.950 . S
C2905 C2902 1.387 . S
C2906 C2907 1.387 . S
C2906 H2910 0.950 . S
C2906 C2915 1.390 . S
C2907 C2906 1.387 . S
C2907 C2909 1.387 . S
H2908 C2915 0.950 . S
C2909 C2907 1.387 . S
C2909 C2911 1.390 . S
C2909 H2913 0.950 . S
H2910 C2906 0.950 . S
C2911 C2909 1.390 . S
C2911 C2912 1.387 . S
C2911 H2914 0.950 . S
C2912 C2911 1.387 . S
C2912 C2915 1.387 . S
H2913 C2909 0.950 . S
H2914 C2911 0.950 . S
C2915 C2906 1.390 . S
C2915 H2908 0.950 . S
C2915 C2912 1.387 . S
C2916 C2917 1.387 . S
C2916 H2920 0.950 . S
C2916 C2925 1.390 . S
C2917 C2916 1.387 . S
C2917 C2919 1.387 . S
H2918 C2925 0.950 . S
C2919 C2917 1.387 . S
C2919 C2921 1.390 . S
C2919 H2923 0.950 . S
H2920 C2916 0.950 . S
C2921 C2919 1.390 . S
C2921 C2922 1.387 . S
C2921 H2924 0.950 . S
C2922 C2921 1.387 . S
C2922 C2925 1.387 . S
H2923 C2919 0.950 . S
H2924 C2921 0.950 . S
C2925 C2916 1.390 . S
C2925 H2918 0.950 . S
C2925 C2922 1.387 . S
C2926 C2927 1.387 . S
C2926 H2930 0.950 . S
C2926 C2935 1.390 . S
C2927 C2926 1.387 . S
C2927 C2929 1.387 . S
H2928 C2935 0.950 . S
C2929 C2927 1.387 . S
C2929 C2931 1.390 . S
C2929 H2933 0.950 . S
H2930 C2926 0.950 . S
C2931 C2929 1.390 . S
C2931 C2932 1.387 . S
C2931 H2934 0.950 . S
C2932 C2931 1.387 . S
C2932 C2935 1.387 . S
H2933 C2929 0.950 . S
H2934 C2931 0.950 . S
C2935 C2926 1.390 . S
C2935 H2928 0.950 . S
C2935 C2932 1.387 . S
C2936 C2937 1.387 . S
C2936 H2940 0.950 . S
C2936 C2945 1.390 . S
C2937 C2936 1.387 . S
C2937 C2939 1.387 . S
H2938 C2945 0.950 . S
C2939 C2937 1.387 . S
C2939 C2941 1.390 . S
C2939 H2943 0.950 . S
H2940 C2936 0.950 . S
C2941 C2939 1.390 . S
C2941 C2942 1.387 . S
C2941 H2944 0.950 . S
C2942 C2941 1.387 . S
C2942 C2945 1.387 . S
H2943 C2939 0.950 . S
H2944 C2941 0.950 . S
C2945 C2936 1.390 . S
C2945 H2938 0.950 . S
C2945 C2942 1.387 . S
C2946 C2947 1.387 . S
C2946 H2950 0.950 . S
C2946 C2955 1.390 . S
C2947 C2946 1.387 . S
C2947 C2949 1.387 . S
H2948 C2955 0.950 . S
C2949 C2947 1.387 . S
C2949 C2951 1.390 . S
C2949 H2953 0.950 . S
H2950 C2946 0.950 . S
C2951 C2949 1.390 . S
C2951 C2952 1.387 . S
C2951 H2954 0.950 . S
C2952 C2951 1.387 . S
C2952 C2955 1.387 . S
H2953 C2949 0.950 . S
H2954 C2951 0.950 . S
C2955 C2946 1.390 . S
C2955 H2948 0.950 . S
C2955 C2952 1.387 . S
C2956 C2957 1.387 . S
C2956 H2960 0.950 . S
C2956 C2965 1.390 . S
C2957 C2956 1.387 . S
C2957 C2959 1.387 . S
H2958 C2965 0.950 . S
C2959 C2957 1.387 . S
C2959 C2961 1.390 . S
C2959 H2963 0.950 . S
H2960 C2956 0.950 . S
C2961 C2959 1.390 . S
C2961 C2962 1.387 . S
C2961 H2964 0.950 . S
C2962 C2961 1.387 . S
C2962 C2965 1.387 . S
H2963 C2959 0.950 . S
H2964 C2961 0.950 . S
C2965 C2956 1.390 . S
C2965 H2958 0.950 . S
C2965 C2962 1.387 . S
C2966 C2967 1.387 . S
C2966 H2970 0.950 . S
C2966 C2975 1.390 . S
C2967 C2966 1.387 . S
C2967 C2969 1.387 . S
H2968 C2975 0.950 . S
C2969 C2967 1.387 . S
C2969 C2971 1.390 . S
C2969 H2973 0.950 . S
H2970 C2966 0.950 . S
C2971 C2969 1.390 . S
C2971 C2972 1.387 . S
C2971 H2974 0.950 . S
C2972 C2971 1.387 . S
C2972 C2975 1.387 . S
H2973 C2969 0.950 . S
H2974 C2971 0.950 . S
C2975 C2966 1.390 . S
C2975 H2968 0.950 . S
C2975 C2972 1.387 . S
C2976 C2977 1.387 . S
C2976 H2980 0.950 . S
C2976 C2985 1.390 . S
C2977 C2976 1.387 . S
C2977 C2979 1.387 . S
H2978 C2985 0.950 . S
C2979 C2977 1.387 . S
C2979 C2981 1.390 . S
C2979 H2983 0.950 . S
H2980 C2976 0.950 . S
C2981 C2979 1.390 . S
C2981 C2982 1.387 . S
C2981 H2984 0.950 . S
C2982 C2981 1.387 . S
C2982 C2985 1.387 . S
H2983 C2979 0.950 . S
H2984 C2981 0.950 . S
C2985 C2976 1.390 . S
C2985 H2978 0.950 . S
C2985 C2982 1.387 . S
C2986 C2987 1.387 . S
C2986 H2990 0.950 . S
C2986 C2995 1.390 . S
C2987 C2986 1.387 . S
C2987 C2989 1.387 . S
H2988 C2995 0.950 . S
C2989 C2987 1.387 . S
C2989 C2991 1.390 . S
C2989 H2993 0.950 . S
H2990 C2986 0.950 . S
C2991 C2989 1.390 . S
C2991 C2992 1.387 . S
C2991 H2994 0.950 . S
C2992 C2991 1.387 . S
C2992 C2995 1.387 . S
H2993 C2989 0.950 . S
H2994 C2991 0.950 . S
C2995 C2986 1.390 . S
C2995 H2988 0.950 . S
C2995 C2992 1.387 . S
C2996 C2997 1.387 1_565 S
C2996 H3000 0.950 . S
C2996 C3005 1.390 . S
C2997 C2996 1.387 1_545 S
C2997 C2999 1.387 . S
H2998 C3005 0.950 . S
C2999 C2997 1.387 . S
C2999 C3001 1.390 . S
C2999 H3003 0.950 . S
H3000 C2996 0.950 . S
C3001 C2999 1.390 . S
C3001 C3002 1.387 . S
C3001 H3004 0.950 . S
C3002 C3001 1.387 . S
C3002 C3005 1.387 1_545 S
H3003 C2999 0.950 . S
H3004 C3001 0.950 . S
C3005 C2996 1.390 . S
C3005 H2998 0.950 . S
C3005 C3002 1.387 1_565 S
C2287 C8 1.278 . S
C2292 C1289 1.104 1_655 S
C2297 C18 1.648 . S
C2302 C1429 1.026 . S
C2312 C1517 1.196 . S
C2307 C31 1.321 . S
C2317 C34 1.388 . S
C2322 C1657 1.078 1_565 S
C2327 C5 1.348 . S
C2332 C1771 1.100 . S
C2337 C21 1.698 . S
C2342 C1859 1.235 . S
C2347 C47 1.285 . S
C2352 C1745 1.059 . S
C2362 C1885 1.301 . S
C2357 C57 1.527 . S
C2372 C1631 1.124 . S
C2367 C70 1.340 . S
C2377 C73 1.359 . S
C2382 C1543 1.011 . S
C2392 C1315 1.051 . S
C2387 C44 1.357 . S
C2397 C60 1.573 . S
C2402 C1403 1.461 . S
C2407 C86 1.775 . S
C2412 C1973 1.257 . S
C2417 C96 1.774 . S
C2422 C2113 1.101 . S
C2432 C2201 1.238 . S
C2427 C109 1.823 . S
C2437 C112 1.907 . S
C2442 C289 1.168 . S
C2447 C83 1.866 . S
C2452 C403 1.136 . S
C2457 C99 1.836 . S
C2462 C491 1.323 . S
C2467 C125 1.520 . S
C2472 C377 1.424 . S
C2477 C135 1.644 . S
C2482 C517 1.459 . S
C2492 C263 1.528 . S
C2487 C148 1.686 . S
C2502 C2227 1.709 . S
C2497 C151 1.876 . S
C2512 C1999 1.508 . S
C2507 C122 1.706 . S
C2522 C2087 1.628 . S
C2517 C138 1.715 . S
C2527 C164 1.657 . S
C2532 C605 1.147 . S
C2537 C174 1.776 . S
C2542 C745 1.098 . S
C2547 C187 1.822 . S
C2552 C833 1.262 . S
C2557 C190 2.015 . S
C2562 C973 1.274 . S
C2572 C1087 1.122 . S
C2567 C161 1.867 . S
C2582 C1175 1.350 . S
C2577 C177 1.859 . S
C2592 C1061 1.545 . S
C2587 C203 1.650 . S
C2602 C1201 1.465 . S
C2597 C213 1.651 . S
C2607 C226 1.667 . S
C2612 C947 1.518 . S
C2622 C859 1.607 . S
C2617 C229 1.760 . S
C2627 C200 1.725 . S
C2632 C631 1.516 . S
C2642 C719 1.610 . S
C2637 C216 1.698 . S
C2652 C245 0.923 . S
C2647 C0 1.717 . S
C2657 C23 1.721 . S
C2662 C359 0.908 . S
C2672 C463 1.275 . S
C2667 C36 1.837 . S
C2682 C577 1.235 . S
C2677 C26 1.615 . S
C2692 C701 0.978 . S
C2687 C10 1.865 . S
C2702 C805 1.238 . S
C2697 C13 1.649 . S
C2707 C39 1.837 . S
C2712 C815 1.658 . S
C2717 C62 1.853 . S
C2722 C587 1.574 . S
C2727 C75 1.995 . S
C2732 C691 1.834 . S
C2737 C65 1.761 . S
C2742 C349 1.833 . S
C2752 C473 1.741 . S
C2747 C49 2.036 . S
C2757 C52 1.782 . S
C2762 C235 1.840 . S
C2772 C929 0.907 . S
C2767 C78 1.643 . S
C2777 C101 1.806 . S
C2782 C1043 0.995 . S
C2787 C114 1.810 . S
C2792 C1147 1.347 . S
C2802 C1261 1.009 . S
C2797 C104 1.197 . S
C2807 C88 1.694 . S
C2812 C1385 0.909 . S
C2817 C91 1.213 . S
C2822 C1489 1.007 . S
C2827 C117 1.318 . S
C2832 C1499 0.852 1_565 S
C2837 C140 1.263 . S
C2842 C1271 0.899 1_455 S
C2852 C1375 1.655 . S
C2847 C153 1.808 . S
C2857 C143 1.697 . S
C2862 C1033 1.784 . S
C2867 C127 1.974 . S
C2872 C1157 1.684 . S
C2882 C919 1.878 . S
C2877 C130 1.869 . S
C2892 C1613 0.809 . S
C2887 C156 1.327 . S
C2897 C179 1.221 . S
C2902 C1727 0.827 . S
C2907 C192 1.668 . S
C2912 C1831 1.197 . S
C2922 C1945 1.221 . S
C2917 C182 1.551 . S
C2932 C2069 1.059 . S
C2927 C166 1.836 . S
C2937 C169 1.739 . S
C2942 C2173 1.317 . S
C2947 C195 1.772 . S
C2952 C2183 1.602 . S
C2957 C218 1.945 . S
C2962 C1955 1.629 . S
C2972 C2059 1.792 . S
C2967 C231 1.923 . S
C2982 C1717 1.068 1_655 S
C2977 C221 1.202 . S
C2992 C1841 1.538 . S
C2987 C205 1.844 . S
C2997 C208 1.253 . S
C3002 C1603 1.109 1_545 S
