# Generated by pormake.
# Topology rtl, (3,6)-cn, num edge types: 1
# Building blocks:
#     Node 0, Type 0, BuildingBlock: VETTIZ_charged_linker_0, # of connection points: 3
#     Node 1, Type 0, BuildingBlock: VETTIZ_charged_linker_0, # of connection points: 3
#     Node 2, Type 0, BuildingBlock: VETTIZ_charged_linker_0, # of connection points: 3
#     Node 3, Type 0, BuildingBlock: VETTIZ_charged_linker_0, # of connection points: 3
#     Node 4, Type 1, BuildingBlock: LEVNOQ01_clean_sbu_1, # of connection points: 6
#     Node 5, Type 1, BuildingBlock: LEVNOQ01_clean_sbu_1, # of connection points: 6
#     Edge 6, Type (0, 1), BuildingBlock: EZIPEK_clean_linker_0, # of connection points: 2
#     Edge 7, Type (0, 1), BuildingBlock: EZIPEK_clean_linker_0, # of connection points: 2
#     Edge 8, Type (0, 1), BuildingBlock: EZIPEK_clean_linker_0, # of connection points: 2
#     Edge 9, Type (0, 1), BuildingBlock: EZIPEK_clean_linker_0, # of connection points: 2
#     Edge 10, Type (0, 1), BuildingBlock: EZIPEK_clean_linker_0, # of connection points: 2
#     Edge 11, Type (0, 1), BuildingBlock: EZIPEK_clean_linker_0, # of connection points: 2
#     Edge 12, Type (0, 1), BuildingBlock: EZIPEK_clean_linker_0, # of connection points: 2
#     Edge 13, Type (0, 1), BuildingBlock: EZIPEK_clean_linker_0, # of connection points: 2
#     Edge 14, Type (0, 1), BuildingBlock: EZIPEK_clean_linker_0, # of connection points: 2
#     Edge 15, Type (0, 1), BuildingBlock: EZIPEK_clean_linker_0, # of connection points: 2
#     Edge 16, Type (0, 1), BuildingBlock: EZIPEK_clean_linker_0, # of connection points: 2
#     Edge 17, Type (0, 1), BuildingBlock: EZIPEK_clean_linker_0, # of connection points: 2
# Relax obj value: 0.027
# Max RMSD: 0.061
# Mean RMSD: 0.047
data_MOF--net-rtl--node1-LEVNOQ01_clean_sbu_1--node2-VETTIZ_charged_linker_0--edge1-EZIPEK_clean_linker_0
_symmetry_space_group_name_H-M    P1
_symmetry_Int_Tables_number       1
_symmetry_cell_setting            triclinic
loop_
_symmetry_equiv_pos_as_xyz
'x, y, z'
_cell_length_a     28.866543
_cell_length_b     32.883213
_cell_length_c     23.203697
_cell_angle_alpha  90.183516
_cell_angle_beta   97.937536
_cell_angle_gamma 90.225236
loop_
_atom_site_label
_atom_site_type_symbol
_atom_site_fract_x
_atom_site_fract_y
_atom_site_fract_z
_atom_type_partial_charge
C0 C 0.20378 0.90806 0.88672 0.0
C1 C 0.16199 0.93019 0.87674 0.0
C2 C 0.13861 0.94046 0.92422 0.0
C3 C 0.20127 0.91095 0.99092 0.0
C4 C 0.22233 0.89824 0.94398 0.0
C5 C 0.26532 0.8733 0.96243 0.0
H6 H 0.41121 0.78534 0.17918 0.0
C7 C 0.23156 0.89885 0.04465 0.0
C8 C 0.26893 0.8765 0.0283 0.0
H9 H 0.39698 0.76232 0.99425 0.0
H10 H 0.34251 0.81757 0.97644 0.0
H11 H 0.40581 0.88451 0.17156 0.0
H12 H 0.30026 0.79326 0.18517 0.0
H13 H 0.29819 0.83161 0.23841 0.0
H14 H 0.35015 0.80213 0.23932 0.0
H15 H 0.39719 0.86354 0.24055 0.0
H16 H 0.36395 0.90673 0.21 0.0
C17 C 0.30749 0.89393 0.93963 0.0
C18 C 0.25532 0.82909 0.93996 0.0
C19 C 0.18997 0.93989 0.24215 0.0
C20 C 0.21331 0.93596 0.29908 0.0
C21 C 0.25936 0.92089 0.30775 0.0
C22 C 0.28033 0.9067 0.26045 0.0
C23 C 0.25518 0.90824 0.20408 0.0
C24 C 0.21174 0.92644 0.19542 0.0
C25 C 0.19208 0.92903 0.13208 0.0
C26 C 0.2299 0.90763 0.10429 0.0
C27 C 0.26624 0.89466 0.14682 0.0
C28 C 0.18824 0.97461 0.11549 0.0
C29 C 0.14507 0.9054 0.12229 0.0
C30 C 0.39623 0.79259 0.13504 0.0
C31 C 0.40717 0.76907 0.0881 0.0
C32 C 0.38812 0.77962 0.03101 0.0
C33 C 0.3561 0.81132 0.02079 0.0
C34 C 0.34209 0.83217 0.0682 0.0
C35 C 0.36265 0.82339 0.12419 0.0
C36 C 0.34127 0.84754 0.16905 0.0
C37 C 0.30271 0.87007 0.13066 0.0
C38 C 0.30391 0.86119 0.07169 0.0
C39 C 0.37886 0.87701 0.19987 0.0
C40 C 0.32144 0.81729 0.21053 0.0
H41 H 0.13944 0.94093 0.01568 0.0
H42 H 0.22196 0.89928 0.85081 0.0
H43 H 0.21738 0.82332 0.92622 0.0
H44 H 0.26575 0.80617 0.97418 0.0
H45 H 0.27342 0.82241 0.90177 0.0
H46 H 0.30736 0.92728 0.9478 0.0
H47 H 0.30614 0.88907 0.89202 0.0
H48 H 0.34149 0.88284 0.96151 0.0
H49 H 0.155 0.95241 0.23432 0.0
H50 H 0.27819 0.91856 0.35135 0.0
H51 H 0.31485 0.89427 0.26956 0.0
H52 H 0.21863 0.9921 0.1379 0.0
H53 H 0.156 0.98819 0.12839 0.0
H54 H 0.18883 0.98006 0.06873 0.0
H55 H 0.14617 0.87846 0.15135 0.0
H56 H 0.13697 0.89283 0.07782 0.0
H57 H 0.11563 0.92489 0.13157 0.0
H58 H 0.10609 0.95724 0.91714 0.0
C59 C 0.15824 0.93132 0.98128 0.0
C60 C 0.72307 0.59764 0.77492 0.0
C61 C 0.68534 0.57015 0.77145 0.0
C62 C 0.66704 0.55343 0.71714 0.0
C63 C 0.71859 0.59632 0.66969 0.0
C64 C 0.73825 0.61116 0.72341 0.0
C65 C 0.77134 0.64604 0.71805 0.0
H66 H 0.86124 0.78291 0.54574 0.0
C67 C 0.73727 0.62041 0.62443 0.0
C68 C 0.76799 0.64978 0.65238 0.0
H69 H 0.88578 0.77611 0.7331 0.0
H70 H 0.8382 0.71477 0.73033 0.0
H71 H 0.87357 0.68729 0.52303 0.0
H72 H 0.75169 0.76119 0.53086 0.0
H73 H 0.73967 0.72824 0.4708 0.0
H74 H 0.7866 0.76466 0.47272 0.0
H75 H 0.85133 0.72094 0.4651 0.0
H76 H 0.82978 0.66951 0.46858 0.0
C77 C 0.82084 0.63311 0.74599 0.0
C78 C 0.75214 0.68422 0.74609 0.0
C79 C 0.67845 0.59208 0.41188 0.0
C80 C 0.68727 0.6103 0.35998 0.0
C81 C 0.71877 0.64317 0.3619 0.0
C82 C 0.74127 0.65786 0.4155 0.0
C83 C 0.73184 0.63951 0.46745 0.0
C84 C 0.70109 0.60701 0.46488 0.0
C85 C 0.69471 0.59148 0.52408 0.0
C86 C 0.72733 0.61955 0.56282 0.0
C87 C 0.74866 0.64782 0.52957 0.0
C88 C 0.71156 0.54679 0.52867 0.0
C89 C 0.6427 0.59751 0.53244 0.0
C90 C 0.85609 0.76809 0.58604 0.0
C91 C 0.87654 0.78406 0.63971 0.0
C92 C 0.86983 0.76414 0.69147 0.0
C93 C 0.84227 0.72871 0.68958 0.0
C94 C 0.82103 0.71349 0.63541 0.0
C95 C 0.82864 0.73293 0.58482 0.0
C96 C 0.80393 0.71243 0.53115 0.0
C97 C 0.77943 0.67779 0.55774 0.0
C98 C 0.78936 0.6786 0.6188 0.0
C99 C 0.84128 0.69686 0.49453 0.0
C100 C 0.76874 0.74306 0.49915 0.0
H101 H 0.66748 0.55306 0.6261 0.0
H102 H 0.73727 0.61116 0.81628 0.0
H103 H 0.71323 0.68459 0.73844 0.0
H104 H 0.76265 0.71302 0.72732 0.0
H105 H 0.7632 0.68487 0.79388 0.0
H106 H 0.82733 0.60065 0.73611 0.0
H107 H 0.82501 0.63659 0.79406 0.0
H108 H 0.84891 0.65025 0.72885 0.0
H109 H 0.65415 0.56681 0.41112 0.0
H110 H 0.72576 0.65743 0.32196 0.0
H111 H 0.76483 0.68308 0.41444 0.0
H112 H 0.74396 0.54301 0.50821 0.0
H113 H 0.6846 0.52588 0.50606 0.0
H114 H 0.72092 0.53657 0.57404 0.0
H115 H 0.62634 0.62275 0.50508 0.0
H116 H 0.63848 0.60648 0.57739 0.0
H117 H 0.62171 0.56962 0.52037 0.0
H118 H 0.63805 0.53213 0.71379 0.0
C119 C 0.68382 0.56603 0.66631 0.0
C120 C 0.79821 0.11311 0.19298 0.0
C121 C 0.8267 0.07884 0.20501 0.0
C122 C 0.83503 0.05285 0.15938 0.0
C123 C 0.79039 0.09722 0.08967 0.0
C124 C 0.78038 0.12168 0.13496 0.0
C125 C 0.75055 0.15745 0.11362 0.0
H126 H 0.65101 0.27283 0.88855 0.0
C127 C 0.77026 0.1164 0.0344 0.0
C128 C 0.74652 0.15154 0.04806 0.0
H129 H 0.64279 0.28783 0.07173 0.0
H130 H 0.68868 0.22721 0.09366 0.0
H131 H 0.75423 0.25357 0.90113 0.0
H132 H 0.63761 0.17094 0.88483 0.0
H133 H 0.67672 0.15632 0.83621 0.0
H134 H 0.65044 0.20585 0.82967 0.0
H135 H 0.72626 0.23718 0.83116 0.0
H136 H 0.77432 0.20926 0.87048 0.0
C137 C 0.77775 0.19682 0.1339 0.0
C138 C 0.7026 0.15301 0.13605 0.0
C139 C 0.81468 0.06297 0.84426 0.0
C140 C 0.81478 0.08189 0.79002 0.0
C141 C 0.78815 0.11738 0.7775 0.0
C142 C 0.76406 0.13506 0.81961 0.0
C143 C 0.76806 0.11797 0.87551 0.0
C144 C 0.79303 0.08245 0.88708 0.0
C145 C 0.80037 0.07248 0.95093 0.0
C146 C 0.77462 0.10724 0.97551 0.0
C147 C 0.75522 0.13343 0.93098 0.0
C148 C 0.85377 0.074 0.9723 0.0
C149 C 0.77694 0.03091 0.95935 0.0
C150 C 0.65913 0.26267 0.93314 0.0
C151 C 0.6437 0.28471 0.97868 0.0
C152 C 0.65471 0.27105 0.03631 0.0
C153 C 0.68123 0.23592 0.04888 0.0
C154 C 0.69716 0.2143 0.00329 0.0
C155 C 0.68579 0.22749 0.94651 0.0
C156 C 0.7064 0.20069 0.90404 0.0
C157 C 0.73031 0.16851 0.94455 0.0
C158 C 0.72538 0.17707 0.00267 0.0
C159 C 0.74195 0.22629 0.87476 0.0
C160 C 0.66586 0.18248 0.861 0.0
H161 H 0.8245 0.04083 0.06883 0.0
H162 H 0.79102 0.13315 0.22777 0.0
H163 H 0.69434 0.12063 0.14428 0.0
H164 H 0.67315 0.16331 0.10382 0.0
H165 H 0.7021 0.16993 0.17747 0.0
H166 H 0.8151 0.19417 0.1274 0.0
H167 H 0.77669 0.20265 0.18088 0.0
H168 H 0.76459 0.22398 0.10923 0.0
H169 H 0.83545 0.03599 0.85517 0.0
H170 H 0.7878 0.13246 0.736 0.0
H171 H 0.74516 0.16248 0.80789 0.0
H172 H 0.87102 0.09822 0.94939 0.0
H173 H 0.87067 0.04466 0.96404 0.0
H174 H 0.86252 0.08198 0.01867 0.0
H175 H 0.74386 0.0275 0.92882 0.0
H176 H 0.76662 0.02744 0.0032 0.0
H177 H 0.80026 0.0054 0.95097 0.0
H178 H 0.85655 0.02607 0.16836 0.0
C179 C 0.81665 0.06163 0.1018 0.0
C180 C 0.27499 0.42651 0.30487 0.0
C181 C 0.31602 0.4493 0.30349 0.0
C182 C 0.34147 0.46312 0.35611 0.0
C183 C 0.28819 0.42741 0.41068 0.0
C184 C 0.26242 0.41513 0.35874 0.0
C185 C 0.2246 0.38527 0.36779 0.0
H186 H 0.13124 0.25787 0.54753 0.0
C187 C 0.26824 0.40726 0.45871 0.0
C188 C 0.23114 0.38239 0.43369 0.0
H189 H 0.10311 0.26377 0.3603 0.0
H190 H 0.15065 0.32477 0.36091 0.0
H191 H 0.24172 0.27799 0.56192 0.0
H192 H 0.12169 0.35409 0.56925 0.0
H193 H 0.16841 0.37761 0.61385 0.0
H194 H 0.14891 0.32759 0.63227 0.0
H195 H 0.20222 0.27357 0.61512 0.0
H196 H 0.25007 0.30878 0.62528 0.0
C197 C 0.235 0.34437 0.33835 0.0
C198 C 0.17686 0.40433 0.34406 0.0
C199 C 0.33892 0.4326 0.66915 0.0
C200 C 0.32432 0.42224 0.72268 0.0
C201 C 0.28486 0.39688 0.72272 0.0
C202 C 0.2604 0.38202 0.67031 0.0
C203 C 0.27502 0.39319 0.61715 0.0
C204 C 0.31311 0.41875 0.61716 0.0
C205 C 0.32049 0.43098 0.55659 0.0
C206 C 0.28071 0.40833 0.5202 0.0
C207 C 0.25503 0.38535 0.55588 0.0
C208 C 0.36897 0.41514 0.54556 0.0
C209 C 0.31473 0.4777 0.55129 0.0
C210 C 0.13516 0.27283 0.50694 0.0
C211 C 0.1143 0.25627 0.45374 0.0
C212 C 0.11931 0.27623 0.40151 0.0
C213 C 0.14716 0.31129 0.40211 0.0
C214 C 0.17057 0.32603 0.45541 0.0
C215 C 0.16324 0.30762 0.50685 0.0
C216 C 0.19074 0.3277 0.55928 0.0
C217 C 0.21844 0.35924 0.5304 0.0
C218 C 0.20636 0.35808 0.46967 0.0
C219 C 0.2229 0.29547 0.59257 0.0
C220 C 0.1559 0.34764 0.59599 0.0
H221 H 0.34905 0.46315 0.44834 0.0
H222 H 0.25521 0.41523 0.26489 0.0
H223 H 0.17609 0.43703 0.35639 0.0
H224 H 0.14731 0.39009 0.36216 0.0
H225 H 0.17021 0.40237 0.29582 0.0
H226 H 0.27267 0.34148 0.33354 0.0
H227 H 0.21473 0.34153 0.29422 0.0
H228 H 0.2279 0.31755 0.36442 0.0
H229 H 0.36854 0.45275 0.66781 0.0
H230 H 0.27261 0.3891 0.76338 0.0
H231 H 0.23065 0.36285 0.67304 0.0
H232 H 0.37635 0.38495 0.56629 0.0
H233 H 0.39731 0.43631 0.56398 0.0
H234 H 0.37133 0.41008 0.49902 0.0
H235 H 0.28668 0.48852 0.57596 0.0
H236 H 0.30381 0.4878 0.50615 0.0
H237 H 0.34759 0.49373 0.56905 0.0
H238 H 0.37311 0.48089 0.35568 0.0
C239 C 0.32762 0.45253 0.40972 0.0
O240 O 0.98921 0.06609 0.65567 0.0
Mg241 Mg 0.04811 0.06699 0.61121 0.0
O242 O 0.94834 0.02621 0.59089 0.0
Mg243 Mg 0.00653 0.00858 0.53569 0.0
O244 O 0.03444 0.07611 0.52471 0.0
O245 O 0.06465 0.12352 0.59014 0.0
O246 O 0.06698 0.99002 0.48287 0.0
O247 O 0.95632 0.02801 0.45245 0.0
Mg248 Mg 0.97691 0.93625 0.4502 0.0
O249 O 0.97675 0.9434 0.53804 0.0
O250 O 0.04511 0.93578 0.42861 0.0
O251 O 0.9287 0.97438 0.40052 0.0
O252 O 0.95324 0.88643 0.48951 0.0
C253 C 0.0916 -0.00089 0.6521 0.0
C254 C 0.95149 0.04755 0.63721 0.0
C255 C 0.05145 0.11241 0.53705 0.0
C256 C 0.07529 0.96263 0.44652 0.0
C257 C 0.93013 0.01241 0.40911 0.0
C258 C 0.96005 0.90667 0.53769 0.0
O259 O 0.10792 0.0333 0.64108 0.0
O260 O 0.05333 0.9872 0.62269 0.0
O261 O 0.58326 0.48609 0.18353 0.0
Mg262 Mg 0.53438 0.44739 0.13522 0.0
O263 O 0.55555 0.53684 0.12686 0.0
Mg264 Mg 0.50633 0.51421 0.04443 0.0
O265 O 0.53605 0.44882 0.04706 0.0
O266 O 0.55764 0.39492 0.10323 0.0
O267 O 0.45884 0.48894 0.95804 0.0
O268 O 0.56628 0.52959 0.99123 0.0
Mg269 Mg 0.46624 0.5646 0.96772 0.0
O270 O 0.48384 0.58396 0.05115 0.0
O271 O 0.40265 0.53336 0.94645 0.0
O272 O 0.52156 0.55682 0.91688 0.0
O273 O 0.45529 0.6245 0.97691 0.0
C274 C 0.43516 0.47218 0.13513 0.0
C275 C 0.58164 0.52359 0.17164 0.0
C276 C 0.55241 0.41207 0.05283 0.0
C277 C 0.41847 0.49953 0.9331 0.0
C278 C 0.561 0.54367 0.93975 0.0
C279 C 0.47012 0.61962 0.03141 0.0
O280 O 0.46651 0.44757 0.15642 0.0
O281 O 0.44334 0.49792 0.09645 0.0
C282 C 0.04416 0.21329 0.46364 0.0
C283 C 0.09135 0.21588 0.45352 0.0
C284 C 0.10101 0.14266 0.46964 0.0
C285 C 0.05765 0.14212 0.49136 0.0
N286 N 0.98415 0.17304 0.50158 0.0
N287 N 0.16379 0.18349 0.43977 0.0
C288 C 0.02753 0.17614 0.48465 0.0
C289 C 0.11913 0.18038 0.45281 0.0
N290 N 0.01609 0.24666 0.45435 0.0
N291 N 0.12527 0.10721 0.46749 0.0
H292 H 0.17748 0.2105 0.42561 0.0
H293 H 0.1879 0.15991 0.44434 0.0
H294 H 0.11261 0.0796 0.48111 0.0
H295 H 0.15571 0.10432 0.44855 0.0
H296 H 0.9806 0.24677 0.45802 0.0
H297 H 0.028 0.27406 0.43903 0.0
H298 H 0.96142 0.19731 0.50345 0.0
H299 H 0.97107 0.14537 0.51452 0.0
C300 C 0.41915 0.69605 0.12011 0.0
C301 C 0.43651 0.73201 0.09655 0.0
C302 C 0.49313 0.69201 0.05178 0.0
C303 C 0.4719 0.6561 0.06955 0.0
N304 N 0.43382 0.62519 0.14392 0.0
N305 N 0.50029 0.76559 0.05955 0.0
C306 C 0.44147 0.65853 0.11193 0.0
C307 C 0.47751 0.73037 0.06948 0.0
N308 N 0.3793 0.6968 0.1457 0.0
N309 N 0.52663 0.68913 0.0159 0.0
H310 H 0.48907 0.79384 0.07283 0.0
H311 H 0.5321 0.76654 0.04322 0.0
H312 H 0.54023 0.66112 0.00573 0.0
H313 H 0.5399 0.7139 0.99552 0.0
H314 H 0.36257 0.67048 0.15711 0.0
H315 H 0.36106 0.72331 0.15207 0.0
H316 H 0.41533 0.62651 0.1794 0.0
H317 H 0.45155 0.59803 0.13984 0.0
C318 C 0.95287 0.81872 0.63324 0.0
C319 C 0.90493 0.82173 0.63981 0.0
C320 C 0.90287 0.89214 0.60571 0.0
C321 C 0.94817 0.88656 0.59042 0.0
N322 N 0.02191 0.85251 0.60618 0.0
N323 N 0.83844 0.86344 0.65017 0.0
C324 C 0.97527 0.85254 0.61078 0.0
C325 C 0.88152 0.85958 0.63277 0.0
N326 N 0.97562 0.78266 0.64458 0.0
N327 N 0.87954 0.92739 0.59045 0.0
H328 H 0.82261 0.83963 0.66994 0.0
H329 H 0.81986 0.89053 0.64897 0.0
H330 H 0.89562 0.9518 0.57235 0.0
H331 H 0.84471 0.93255 0.59501 0.0
H332 H 0.00911 0.77677 0.63502 0.0
H333 H 0.96014 0.75795 0.66275 0.0
H334 H 0.04499 0.82994 0.62309 0.0
H335 H 0.03802 0.87734 0.58904 0.0
C336 C 0.63957 0.36022 0.97534 0.0
C337 C 0.61592 0.32239 0.9682 0.0
C338 C 0.54265 0.35511 0.98302 0.0
C339 C 0.56878 0.38965 0.00454 0.0
N340 N 0.63962 0.42908 0.01391 0.0
N341 N 0.54425 0.28401 0.95407 0.0
C342 C 0.61626 0.39397 0.99651 0.0
C343 C 0.56678 0.3202 0.96687 0.0
N344 N 0.68462 0.36303 0.96394 0.0
N345 N 0.49518 0.35561 0.98095 0.0
H346 H 0.56143 0.25862 0.94034 0.0
H347 H 0.50919 0.27883 0.95759 0.0
H348 H 0.47788 0.38125 0.99368 0.0
H349 H 0.47299 0.33242 0.96322 0.0
H350 H 0.70334 0.39017 0.96476 0.0
H351 H 0.70199 0.33822 0.94884 0.0
H352 H 0.67553 0.43306 0.01543 0.0
H353 H 0.6225 0.45442 0.02791 0.0
C354 C 0.17511 0.91475 0.38582 0.0
C355 C 0.1879 0.94602 0.34883 0.0
C356 C 0.1331 0.99268 0.38633 0.0
C357 C 0.1204 0.96131 0.42306 0.0
N358 N 0.14019 0.89813 0.47204 0.0
N359 N 0.19027 0.01756 0.32737 0.0
C360 C 0.14547 0.92433 0.42781 0.0
C361 C 0.17077 0.98607 0.35397 0.0
N362 N 0.18791 0.87534 0.37805 0.0
N363 N 0.10718 0.02741 0.37876 0.0
H364 H 0.2182 0.01343 0.30377 0.0
H365 H 0.18198 0.04792 0.33363 0.0
H366 H 0.07902 0.03335 0.4011 0.0
H367 H 0.11162 0.04911 0.34735 0.0
H368 H 0.17494 0.85097 0.39964 0.0
H369 H 0.20814 0.86627 0.34651 0.0
H370 H 0.16061 0.87223 0.48077 0.0
H371 H 0.11881 0.9048 0.50362 0.0
C372 C 0.6378 0.59639 0.84646 0.0
C373 C 0.66026 0.56325 0.82241 0.0
C374 C 0.62184 0.51575 0.8823 0.0
C375 C 0.6013 0.54925 0.90761 0.0
N376 N 0.60241 0.62091 0.92835 0.0
N377 N 0.68269 0.49262 0.82761 0.0
C378 C 0.61375 0.58941 0.89458 0.0
C379 C 0.6553 0.52322 0.84381 0.0
N380 N 0.63611 0.63389 0.82093 0.0
N381 N 0.60768 0.47708 0.8926 0.0
H382 H 0.70785 0.49742 0.80006 0.0
H383 H 0.68349 0.46362 0.84564 0.0
H384 H 0.5833 0.47075 0.92064 0.0
H385 H 0.61777 0.45166 0.87059 0.0
H386 H 0.6161 0.65768 0.83386 0.0
H387 H 0.6502 0.64021 0.78296 0.0
H388 H 0.61401 0.65064 0.92383 0.0
H389 H 0.58613 0.61611 0.96518 0.0
C390 C 0.89715 0.08272 0.28055 0.0
C391 C 0.84997 0.07041 0.26477 0.0
C392 C 0.8528 0.03264 0.3559 0.0
C393 C 0.90193 0.03855 0.36598 0.0
N394 N 0.97197 0.06856 0.33789 0.0
N395 N 0.78174 0.03438 0.28654 0.0
C396 C 0.92438 0.06418 0.32907 0.0
C397 C 0.82719 0.04607 0.30268 0.0
N398 N 0.91584 0.11194 0.24876 0.0
N399 N 0.83085 0.01449 0.39769 0.0
H400 H 0.76156 0.0449 0.2488 0.0
H401 H 0.76475 0.01274 0.30881 0.0
H402 H 0.84894 0.00501 0.43744 0.0
H403 H 0.79467 0.01228 0.39549 0.0
H404 H 0.94853 0.12518 0.26116 0.0
H405 H 0.89682 0.12567 0.21253 0.0
H406 H 0.99087 0.0826 0.30835 0.0
H407 H 0.99327 0.05597 0.37318 0.0
C408 C 0.35075 0.48398 0.78249 0.0
C409 C 0.34792 0.44102 0.77786 0.0
C410 C 0.38754 0.4358 0.87849 0.0
C411 C 0.39564 0.47841 0.87962 0.0
N412 N 0.39772 0.5403 0.82352 0.0
N413 N 0.3723 0.37559 0.81817 0.0
C414 C 0.38095 0.50177 0.82899 0.0
C415 C 0.36876 0.41667 0.82499 0.0
N416 N 0.32359 0.50805 0.74366 0.0
N417 N 0.3961 0.4138 0.9286 0.0
H418 H 0.36032 0.36064 0.77922 0.0
H419 H 0.39115 0.35703 0.84926 0.0
H420 H 0.40867 0.42698 0.96869 0.0
H421 H 0.38661 0.38332 0.93123 0.0
H422 H 0.32178 0.53951 0.74865 0.0
H423 H 0.29896 0.49637 0.71056 0.0
H424 H 0.39078 0.55691 0.78512 0.0
H425 H 0.42325 0.55357 0.85405 0.0
C426 C 0.6851 0.56613 0.27122 0.0
C427 C 0.66267 0.5946 0.304 0.0
C428 C 0.58738 0.58068 0.2445 0.0
C429 C 0.60982 0.5521 0.21173 0.0
N430 N 0.68087 0.5254 0.18326 0.0
N431 N 0.5961 0.63671 0.31356 0.0
C432 C 0.65907 0.54737 0.22172 0.0
C433 C 0.61494 0.60452 0.28762 0.0
N434 N 0.7306 0.55563 0.28898 0.0
N435 N 0.53964 0.58315 0.23722 0.0
H436 H 0.61548 0.65451 0.34564 0.0
H437 H 0.56281 0.64804 0.2997 0.0
H438 H 0.51803 0.56595 0.20662 0.0
H439 H 0.52111 0.60001 0.26438 0.0
H440 H 0.74716 0.53152 0.27114 0.0
H441 H 0.75113 0.56945 0.32421 0.0
H442 H 0.71706 0.5239 0.18499 0.0
H443 H 0.66266 0.51177 0.14613 0.0
C444 C 0.83222 0.05998 0.69039 0.0
C445 C 0.84797 0.06821 0.75009 0.0
C446 C 0.92644 0.0476 0.73522 0.0
C447 C 0.91333 0.04864 0.67411 0.0
N448 N 0.85271 0.06032 0.5927 0.0
N449 N 0.91441 0.08008 0.82461 0.0
C450 C 0.86576 0.05559 0.65112 0.0
C451 C 0.89628 0.06464 0.77148 0.0
N452 N 0.78554 0.05576 0.67138 0.0
N453 N 0.9676 0.03019 0.75882 0.0
H454 H 0.89485 0.09705 0.85048 0.0
H455 H 0.95023 0.08056 0.83928 0.0
H456 H 0.98941 0.01501 0.73361 0.0
H457 H 0.97681 0.02655 0.80357 0.0
H458 H 0.77255 0.04626 0.62933 0.0
H459 H 0.76026 0.05761 0.69936 0.0
H460 H 0.81929 0.06954 0.57493 0.0
H461 H 0.87601 0.05861 0.56232 0.0
C462 C 0.35221 0.42195 0.21858 0.0
C463 C 0.33516 0.4556 0.24781 0.0
C464 C 0.36858 0.50258 0.18229 0.0
C465 C 0.38915 0.46887 0.15731 0.0
N466 N 0.38216 0.39816 0.13195 0.0
N467 N 0.3143 0.52639 0.24659 0.0
C468 C 0.37408 0.42911 0.16858 0.0
C469 C 0.33909 0.49555 0.2259 0.0
N470 N 0.3512 0.38358 0.24092 0.0
N471 N 0.37818 0.54104 0.16571 0.0
H472 H 0.29219 0.52168 0.27796 0.0
H473 H 0.31238 0.55567 0.2296 0.0
H474 H 0.39444 0.54681 0.12927 0.0
H475 H 0.36945 0.56704 0.18737 0.0
H476 H 0.36778 0.35893 0.22438 0.0
H477 H 0.33764 0.37677 0.2791 0.0
H478 H 0.36882 0.36887 0.13505 0.0
H479 H 0.39792 0.40334 0.0947 0.0
C480 C 0.13119 0.92037 0.76965 0.0
C481 C 0.14505 0.94656 0.81793 0.0
C482 C 0.11633 0.00491 0.75941 0.0
C483 C 0.10894 0.97996 0.70882 0.0
N484 N 0.11576 0.91422 0.66442 0.0
N485 N 0.16294 0.01503 0.85265 0.0
C486 C 0.11811 0.93764 0.71345 0.0
C487 C 0.14142 0.98922 0.81091 0.0
N488 N 0.12889 0.87933 0.77768 0.0
N489 N 0.09708 0.04281 0.75978 0.0
H490 H 0.18377 0.00492 0.89014 0.0
H491 H 0.16438 0.04641 0.84663 0.0
H492 H 0.07459 0.05453 0.72485 0.0
H493 H 0.09846 0.06034 0.79752 0.0
H494 H 0.11464 0.85926 0.74509 0.0
H495 H 0.13727 0.86576 0.81832 0.0
H496 H 0.12639 0.88397 0.66494 0.0
H497 H 0.10703 0.92606 0.62269 0.0
loop_
_geom_bond_atom_site_label_1
_geom_bond_atom_site_label_2
_geom_bond_distance
_geom_bond_site_symmetry_2
_ccdc_geom_bond_type
C0 C1 1.391 . S
C0 C4 1.391 . S
C0 H42 0.948 . S
C1 C0 1.391 . S
C1 C2 1.391 . S
C2 C1 1.391 . S
C2 H58 0.947 1_565 S
C2 C59 1.392 . S
C3 C4 1.391 . S
C3 C7 1.397 1_556 S
C3 C59 1.419 . S
C4 C0 1.391 . S
C4 C3 1.391 . S
C4 C5 1.399 . S
C5 C4 1.399 . S
C5 C8 1.396 1_556 S
C5 C17 1.453 . S
C5 C18 1.684 . S
H6 C30 0.948 . S
C7 C3 1.397 1_554 S
C7 C8 1.394 . S
C7 C26 1.723 . S
C8 C5 1.396 1_554 S
C8 C7 1.394 . S
C8 C38 1.723 . S
H9 C32 0.947 1_556 S
H10 C33 0.948 1_556 S
H11 C39 0.982 . S
H12 C40 0.979 . S
H13 C40 0.980 . S
H14 C40 0.983 . S
H15 C39 0.979 . S
H16 C39 0.977 . S
C17 C5 1.453 . S
C17 H46 0.982 . S
C17 H47 0.979 . S
C17 H48 0.977 . S
C18 C5 1.684 . S
C18 H43 0.979 . S
C18 H44 0.980 . S
C18 H45 0.983 . S
C19 C20 1.391 . S
C19 C24 1.391 . S
C19 H49 0.948 . S
C20 C19 1.391 . S
C20 C21 1.391 . S
C21 C20 1.391 . S
C21 C22 1.392 . S
C21 H50 0.947 . S
C22 C21 1.392 . S
C22 C23 1.419 . S
C22 H51 0.948 . S
C23 C22 1.419 . S
C23 C24 1.391 . S
C23 C27 1.397 . S
C24 C19 1.391 . S
C24 C23 1.391 . S
C24 C25 1.399 . S
C25 C24 1.399 . S
C25 C26 1.396 . S
C25 C28 1.453 . S
C25 C29 1.684 . S
C26 C7 1.723 . S
C26 C25 1.396 . S
C26 C27 1.394 . S
C27 C23 1.397 . S
C27 C26 1.394 . S
C27 C37 1.723 . S
C28 C25 1.453 . S
C28 H52 0.982 . S
C28 H53 0.979 1_565 S
C28 H54 0.977 . S
C29 C25 1.684 . S
C29 H55 0.979 . S
C29 H56 0.980 . S
C29 H57 0.983 . S
C30 H6 0.948 . S
C30 C31 1.391 . S
C30 C35 1.391 . S
C31 C30 1.391 . S
C31 C32 1.391 . S
C32 H9 0.947 1_554 S
C32 C31 1.391 . S
C32 C33 1.392 . S
C33 H10 0.948 1_554 S
C33 C32 1.392 . S
C33 C34 1.419 . S
C34 C33 1.419 . S
C34 C35 1.391 . S
C34 C38 1.397 . S
C35 C30 1.391 . S
C35 C34 1.391 . S
C35 C36 1.399 . S
C36 C35 1.399 . S
C36 C37 1.396 . S
C36 C39 1.453 . S
C36 C40 1.684 . S
C37 C27 1.723 . S
C37 C36 1.396 . S
C37 C38 1.394 . S
C38 C8 1.723 . S
C38 C34 1.397 . S
C38 C37 1.394 . S
C39 H11 0.982 . S
C39 H15 0.979 . S
C39 H16 0.977 . S
C39 C36 1.453 . S
C40 H12 0.979 . S
C40 H13 0.980 . S
C40 H14 0.983 . S
C40 C36 1.684 . S
H41 C59 0.948 1_554 S
H42 C0 0.948 . S
H43 C18 0.979 . S
H44 C18 0.980 . S
H45 C18 0.983 . S
H46 C17 0.982 . S
H47 C17 0.979 . S
H48 C17 0.977 . S
H49 C19 0.948 . S
H50 C21 0.947 . S
H51 C22 0.948 . S
H52 C28 0.982 . S
H53 C28 0.979 1_545 S
H54 C28 0.977 . S
H55 C29 0.979 . S
H56 C29 0.980 . S
H57 C29 0.983 . S
H58 C2 0.947 1_545 S
C59 C2 1.392 . S
C59 C3 1.419 . S
C59 H41 0.948 1_556 S
C60 C61 1.391 . S
C60 C64 1.391 . S
C60 H102 0.948 . S
C61 C60 1.391 . S
C61 C62 1.391 . S
C62 C61 1.391 . S
C62 H118 0.947 . S
C62 C119 1.392 . S
C63 C64 1.391 . S
C63 C67 1.397 . S
C63 C119 1.419 . S
C64 C60 1.391 . S
C64 C63 1.391 . S
C64 C65 1.399 . S
C65 C64 1.399 . S
C65 C68 1.396 . S
C65 C77 1.453 . S
C65 C78 1.684 . S
H66 C90 0.948 . S
C67 C63 1.397 . S
C67 C68 1.394 . S
C67 C86 1.723 . S
C68 C65 1.396 . S
C68 C67 1.394 . S
C68 C98 1.723 . S
H69 C92 0.947 . S
H70 C93 0.948 . S
H71 C99 0.982 . S
H72 C100 0.979 . S
H73 C100 0.980 . S
H74 C100 0.983 . S
H75 C99 0.979 . S
H76 C99 0.977 . S
C77 C65 1.453 . S
C77 H106 0.982 . S
C77 H107 0.979 . S
C77 H108 0.977 . S
C78 C65 1.684 . S
C78 H103 0.979 . S
C78 H104 0.980 . S
C78 H105 0.983 . S
C79 C80 1.391 . S
C79 C84 1.391 . S
C79 H109 0.948 . S
C80 C79 1.391 . S
C80 C81 1.391 . S
C81 C80 1.391 . S
C81 C82 1.392 . S
C81 H110 0.947 . S
C82 C81 1.392 . S
C82 C83 1.419 . S
C82 H111 0.948 . S
C83 C82 1.419 . S
C83 C84 1.391 . S
C83 C87 1.397 . S
C84 C79 1.391 . S
C84 C83 1.391 . S
C84 C85 1.399 . S
C85 C84 1.399 . S
C85 C86 1.396 . S
C85 C88 1.453 . S
C85 C89 1.684 . S
C86 C67 1.723 . S
C86 C85 1.396 . S
C86 C87 1.394 . S
C87 C83 1.397 . S
C87 C86 1.394 . S
C87 C97 1.723 . S
C88 C85 1.453 . S
C88 H112 0.982 . S
C88 H113 0.979 . S
C88 H114 0.977 . S
C89 C85 1.684 . S
C89 H115 0.979 . S
C89 H116 0.980 . S
C89 H117 0.983 . S
C90 H66 0.948 . S
C90 C91 1.391 . S
C90 C95 1.391 . S
C91 C90 1.391 . S
C91 C92 1.391 . S
C92 H69 0.947 . S
C92 C91 1.391 . S
C92 C93 1.392 . S
C93 H70 0.948 . S
C93 C92 1.392 . S
C93 C94 1.419 . S
C94 C93 1.419 . S
C94 C95 1.391 . S
C94 C98 1.397 . S
C95 C90 1.391 . S
C95 C94 1.391 . S
C95 C96 1.399 . S
C96 C95 1.399 . S
C96 C97 1.396 . S
C96 C99 1.453 . S
C96 C100 1.684 . S
C97 C87 1.723 . S
C97 C96 1.396 . S
C97 C98 1.394 . S
C98 C68 1.723 . S
C98 C94 1.397 . S
C98 C97 1.394 . S
C99 H71 0.982 . S
C99 H75 0.979 . S
C99 H76 0.977 . S
C99 C96 1.453 . S
C100 H72 0.979 . S
C100 H73 0.980 . S
C100 H74 0.983 . S
C100 C96 1.684 . S
H101 C119 0.948 . S
H102 C60 0.948 . S
H103 C78 0.979 . S
H104 C78 0.980 . S
H105 C78 0.983 . S
H106 C77 0.982 . S
H107 C77 0.979 . S
H108 C77 0.977 . S
H109 C79 0.948 . S
H110 C81 0.947 . S
H111 C82 0.948 . S
H112 C88 0.982 . S
H113 C88 0.979 . S
H114 C88 0.977 . S
H115 C89 0.979 . S
H116 C89 0.980 . S
H117 C89 0.983 . S
H118 C62 0.947 . S
C119 C62 1.392 . S
C119 C63 1.419 . S
C119 H101 0.948 . S
C120 C121 1.391 . S
C120 C124 1.391 . S
C120 H162 0.948 . S
C121 C120 1.391 . S
C121 C122 1.391 . S
C122 C121 1.391 . S
C122 H178 0.947 . S
C122 C179 1.392 . S
C123 C124 1.391 . S
C123 C127 1.397 . S
C123 C179 1.419 . S
C124 C120 1.391 . S
C124 C123 1.391 . S
C124 C125 1.399 . S
C125 C124 1.399 . S
C125 C128 1.396 . S
C125 C137 1.453 . S
C125 C138 1.684 . S
H126 C150 0.948 . S
C127 C123 1.397 . S
C127 C128 1.394 . S
C127 C146 1.723 1_554 S
C128 C125 1.396 . S
C128 C127 1.394 . S
C128 C158 1.723 . S
H129 C152 0.947 . S
H130 C153 0.948 . S
H131 C159 0.982 . S
H132 C160 0.979 . S
H133 C160 0.980 . S
H134 C160 0.983 . S
H135 C159 0.979 . S
H136 C159 0.977 . S
C137 C125 1.453 . S
C137 H166 0.982 . S
C137 H167 0.979 . S
C137 H168 0.977 . S
C138 C125 1.684 . S
C138 H163 0.979 . S
C138 H164 0.980 . S
C138 H165 0.983 . S
C139 C140 1.391 . S
C139 C144 1.391 . S
C139 H169 0.948 . S
C140 C139 1.391 . S
C140 C141 1.391 . S
C141 C140 1.391 . S
C141 C142 1.392 . S
C141 H170 0.947 . S
C142 C141 1.392 . S
C142 C143 1.419 . S
C142 H171 0.948 . S
C143 C142 1.419 . S
C143 C144 1.391 . S
C143 C147 1.397 . S
C144 C139 1.391 . S
C144 C143 1.391 . S
C144 C145 1.399 . S
C145 C144 1.399 . S
C145 C146 1.396 . S
C145 C148 1.453 . S
C145 C149 1.684 . S
C146 C127 1.723 1_556 S
C146 C145 1.396 . S
C146 C147 1.394 . S
C147 C143 1.397 . S
C147 C146 1.394 . S
C147 C157 1.723 . S
C148 C145 1.453 . S
C148 H172 0.982 . S
C148 H173 0.979 . S
C148 H174 0.977 1_556 S
C149 C145 1.684 . S
C149 H175 0.979 . S
C149 H176 0.980 1_556 S
C149 H177 0.983 . S
C150 H126 0.948 . S
C150 C151 1.390 . S
C150 C155 1.391 . S
C151 C150 1.390 . S
C151 C152 1.393 1_556 S
C152 H129 0.947 . S
C152 C151 1.393 1_554 S
C152 C153 1.392 . S
C153 H130 0.948 . S
C153 C152 1.392 . S
C153 C154 1.419 . S
C154 C153 1.419 . S
C154 C155 1.391 1_554 S
C154 C158 1.397 . S
C155 C150 1.391 . S
C155 C154 1.391 1_556 S
C155 C156 1.399 . S
C156 C155 1.399 . S
C156 C157 1.396 . S
C156 C159 1.453 . S
C156 C160 1.684 . S
C157 C147 1.723 . S
C157 C156 1.396 . S
C157 C158 1.394 1_556 S
C158 C128 1.723 . S
C158 C154 1.397 . S
C158 C157 1.394 1_554 S
C159 H131 0.982 . S
C159 H135 0.979 . S
C159 H136 0.977 . S
C159 C156 1.453 . S
C160 H132 0.979 . S
C160 H133 0.980 . S
C160 H134 0.983 . S
C160 C156 1.684 . S
H161 C179 0.948 . S
H162 C120 0.948 . S
H163 C138 0.979 . S
H164 C138 0.980 . S
H165 C138 0.983 . S
H166 C137 0.982 . S
H167 C137 0.979 . S
H168 C137 0.977 . S
H169 C139 0.948 . S
H170 C141 0.947 . S
H171 C142 0.948 . S
H172 C148 0.982 . S
H173 C148 0.979 . S
H174 C148 0.977 1_554 S
H175 C149 0.979 . S
H176 C149 0.980 1_554 S
H177 C149 0.983 . S
H178 C122 0.947 . S
C179 C122 1.392 . S
C179 C123 1.419 . S
C179 H161 0.948 . S
C180 C181 1.391 . S
C180 C184 1.391 . S
C180 H222 0.948 . S
C181 C180 1.391 . S
C181 C182 1.391 . S
C182 C181 1.391 . S
C182 H238 0.947 . S
C182 C239 1.392 . S
C183 C184 1.391 . S
C183 C187 1.397 . S
C183 C239 1.419 . S
C184 C180 1.391 . S
C184 C183 1.391 . S
C184 C185 1.399 . S
C185 C184 1.399 . S
C185 C188 1.396 . S
C185 C197 1.453 . S
C185 C198 1.684 . S
H186 C210 0.948 . S
C187 C183 1.397 . S
C187 C188 1.394 . S
C187 C206 1.723 . S
C188 C185 1.396 . S
C188 C187 1.394 . S
C188 C218 1.723 . S
H189 C212 0.947 . S
H190 C213 0.948 . S
H191 C219 0.982 . S
H192 C220 0.979 . S
H193 C220 0.980 . S
H194 C220 0.983 . S
H195 C219 0.979 . S
H196 C219 0.977 . S
C197 C185 1.453 . S
C197 H226 0.982 . S
C197 H227 0.979 . S
C197 H228 0.977 . S
C198 C185 1.684 . S
C198 H223 0.979 . S
C198 H224 0.980 . S
C198 H225 0.983 . S
C199 C200 1.391 . S
C199 C204 1.391 . S
C199 H229 0.948 . S
C200 C199 1.391 . S
C200 C201 1.391 . S
C201 C200 1.391 . S
C201 C202 1.392 . S
C201 H230 0.947 . S
C202 C201 1.392 . S
C202 C203 1.419 . S
C202 H231 0.948 . S
C203 C202 1.419 . S
C203 C204 1.391 . S
C203 C207 1.397 . S
C204 C199 1.391 . S
C204 C203 1.391 . S
C204 C205 1.399 . S
C205 C204 1.399 . S
C205 C206 1.396 . S
C205 C208 1.453 . S
C205 C209 1.684 . S
C206 C187 1.723 . S
C206 C205 1.396 . S
C206 C207 1.394 . S
C207 C203 1.397 . S
C207 C206 1.394 . S
C207 C217 1.723 . S
C208 C205 1.453 . S
C208 H232 0.982 . S
C208 H233 0.979 . S
C208 H234 0.977 . S
C209 C205 1.684 . S
C209 H235 0.979 . S
C209 H236 0.980 . S
C209 H237 0.983 . S
C210 H186 0.948 . S
C210 C211 1.391 . S
C210 C215 1.391 . S
C211 C210 1.391 . S
C211 C212 1.391 . S
C212 H189 0.947 . S
C212 C211 1.391 . S
C212 C213 1.392 . S
C213 H190 0.948 . S
C213 C212 1.392 . S
C213 C214 1.419 . S
C214 C213 1.419 . S
C214 C215 1.391 . S
C214 C218 1.397 . S
C215 C210 1.391 . S
C215 C214 1.391 . S
C215 C216 1.399 . S
C216 C215 1.399 . S
C216 C217 1.396 . S
C216 C219 1.453 . S
C216 C220 1.684 . S
C217 C207 1.723 . S
C217 C216 1.396 . S
C217 C218 1.394 . S
C218 C188 1.723 . S
C218 C214 1.397 . S
C218 C217 1.394 . S
C219 H191 0.982 . S
C219 H195 0.979 . S
C219 H196 0.977 . S
C219 C216 1.453 . S
C220 H192 0.979 . S
C220 H193 0.980 . S
C220 H194 0.983 . S
C220 C216 1.684 . S
H221 C239 0.948 . S
H222 C180 0.948 . S
H223 C198 0.979 . S
H224 C198 0.980 . S
H225 C198 0.983 . S
H226 C197 0.982 . S
H227 C197 0.979 . S
H228 C197 0.977 . S
H229 C199 0.948 . S
H230 C201 0.947 . S
H231 C202 0.948 . S
H232 C208 0.982 . S
H233 C208 0.979 . S
H234 C208 0.977 . S
H235 C209 0.979 . S
H236 C209 0.980 . S
H237 C209 0.983 . S
H238 C182 0.947 . S
C239 C182 1.392 . S
C239 C183 1.419 . S
C239 H221 0.948 . S
O240 Mg241 1.990 1_655 S
O240 C254 1.253 . S
Mg241 O240 1.990 1_455 S
Mg241 O244 2.180 . S
Mg241 O245 2.117 . S
Mg241 O259 2.030 . S
O242 Mg243 2.072 1_655 S
O242 C254 1.260 . S
Mg243 O242 2.072 1_455 S
Mg243 O244 2.099 . S
Mg243 O246 2.079 1_545 S
Mg243 O247 2.072 1_455 S
Mg243 O249 2.099 1_445 S
Mg243 O260 2.079 1_545 S
O244 Mg241 2.180 . S
O244 Mg243 2.099 . S
O244 C255 1.279 . S
O245 Mg241 2.117 . S
O245 C255 1.250 . S
O246 Mg243 2.079 1_565 S
O246 C256 1.264 . S
O247 Mg243 2.072 1_655 S
O247 C257 1.260 . S
Mg248 O249 2.180 . S
Mg248 O250 2.030 1_655 S
Mg248 O251 1.990 . S
Mg248 O252 2.117 . S
O249 Mg243 2.099 1_665 S
O249 Mg248 2.180 . S
O249 C258 1.279 . S
O250 Mg248 2.030 1_455 S
O250 C256 1.248 . S
O251 Mg248 1.990 . S
O251 C257 1.253 1_565 S
O252 Mg248 2.117 . S
O252 C258 1.250 . S
C253 O259 1.248 1_565 S
C253 O260 1.264 . S
C254 O240 1.253 . S
C254 O242 1.260 . S
C255 O244 1.279 . S
C255 O245 1.250 . S
C256 O246 1.264 . S
C256 O250 1.248 . S
C257 O247 1.260 . S
C257 O251 1.253 1_545 S
C258 O249 1.279 . S
C258 O252 1.250 . S
O259 Mg241 2.030 . S
O259 C253 1.248 1_545 S
O260 Mg243 2.079 1_565 S
O260 C253 1.264 . S
O261 Mg262 1.990 . S
O261 C275 1.253 . S
Mg262 O261 1.990 . S
Mg262 O265 2.180 . S
Mg262 O266 2.117 . S
Mg262 O280 2.030 . S
O263 Mg264 2.072 . S
O263 C275 1.260 . S
Mg264 O263 2.072 . S
Mg264 O265 2.099 . S
Mg264 O267 2.079 1_554 S
Mg264 O268 2.072 1_554 S
Mg264 O270 2.099 . S
Mg264 O281 2.079 . S
O265 Mg262 2.180 . S
O265 Mg264 2.099 . S
O265 C276 1.279 . S
O266 Mg262 2.117 . S
O266 C276 1.250 . S
O267 Mg264 2.079 1_556 S
O267 C277 1.264 . S
O268 Mg264 2.072 1_556 S
O268 C278 1.260 . S
Mg269 O270 2.180 1_556 S
Mg269 O271 2.030 . S
Mg269 O272 1.990 . S
Mg269 O273 2.117 . S
O270 Mg264 2.099 . S
O270 Mg269 2.180 1_554 S
O270 C279 1.279 . S
O271 Mg269 2.030 . S
O271 C277 1.248 . S
O272 Mg269 1.990 . S
O272 C278 1.253 . S
O273 Mg269 2.117 . S
O273 C279 1.250 1_556 S
C274 O280 1.248 . S
C274 O281 1.264 . S
C275 O261 1.253 . S
C275 O263 1.260 . S
C276 O265 1.279 . S
C276 O266 1.250 . S
C277 O267 1.264 . S
C277 O271 1.248 . S
C278 O268 1.260 . S
C278 O272 1.253 . S
C279 O270 1.279 . S
C279 O273 1.250 1_554 S
O280 Mg262 2.030 . S
O280 C274 1.248 . S
O281 Mg264 2.079 . S
O281 C274 1.264 . S
C282 C283 1.363 . S
C282 C288 1.379 . S
C282 N290 1.356 . S
C283 C282 1.363 . S
C283 C289 1.363 . S
C284 C285 1.363 . S
C284 C289 1.379 . S
C284 N291 1.356 . S
C285 C284 1.363 . S
C285 C288 1.363 . S
N286 C288 1.356 . S
N286 H298 0.984 . S
N286 H299 0.985 . S
N287 C289 1.356 . S
N287 H292 0.984 . S
N287 H293 0.985 . S
C288 C282 1.379 . S
C288 C285 1.363 . S
C288 N286 1.356 . S
C289 C283 1.363 . S
C289 C284 1.379 . S
C289 N287 1.356 . S
N290 C282 1.356 . S
N290 H296 0.984 . S
N290 H297 0.984 . S
N291 C284 1.356 . S
N291 H294 0.984 . S
N291 H295 0.985 . S
H292 N287 0.984 . S
H293 N287 0.985 . S
H294 N291 0.984 . S
H295 N291 0.985 . S
H296 N290 0.984 . S
H297 N290 0.984 . S
H298 N286 0.984 . S
H299 N286 0.985 . S
C300 C301 1.363 . S
C300 C306 1.379 . S
C300 N308 1.356 . S
C301 C300 1.363 . S
C301 C307 1.363 . S
C302 C303 1.363 . S
C302 C307 1.379 . S
C302 N309 1.356 1_554 S
C303 C302 1.363 . S
C303 C306 1.363 . S
N304 C306 1.356 . S
N304 H316 0.984 . S
N304 H317 0.985 . S
N305 C307 1.356 . S
N305 H310 0.984 . S
N305 H311 0.985 1_554 S
C306 C300 1.379 . S
C306 C303 1.363 . S
C306 N304 1.356 . S
C307 C301 1.363 . S
C307 C302 1.379 . S
C307 N305 1.356 . S
N308 C300 1.356 . S
N308 H314 0.984 . S
N308 H315 0.984 . S
N309 C302 1.356 1_556 S
N309 H312 0.984 . S
N309 H313 0.985 . S
H310 N305 0.984 . S
H311 N305 0.985 1_556 S
H312 N309 0.984 . S
H313 N309 0.985 . S
H314 N308 0.984 . S
H315 N308 0.984 . S
H316 N304 0.984 . S
H317 N304 0.985 . S
C318 C319 1.363 . S
C318 C324 1.379 . S
C318 N326 1.356 . S
C319 C318 1.363 . S
C319 C325 1.363 . S
C320 C321 1.363 . S
C320 C325 1.379 . S
C320 N327 1.356 . S
C321 C320 1.363 . S
C321 C324 1.363 . S
N322 C324 1.356 . S
N322 H334 0.984 . S
N322 H335 0.985 . S
N323 C325 1.356 . S
N323 H328 0.984 . S
N323 H329 0.985 . S
C324 C318 1.379 . S
C324 C321 1.363 . S
C324 N322 1.356 . S
C325 C319 1.363 . S
C325 C320 1.379 . S
C325 N323 1.356 . S
N326 C318 1.356 . S
N326 H332 0.984 . S
N326 H333 0.984 . S
N327 C320 1.356 . S
N327 H330 0.984 . S
N327 H331 0.985 . S
H328 N323 0.984 . S
H329 N323 0.985 . S
H330 N327 0.984 . S
H331 N327 0.985 . S
H332 N326 0.984 . S
H333 N326 0.984 . S
H334 N322 0.984 . S
H335 N322 0.985 . S
C336 C337 1.363 . S
C336 C342 1.379 . S
C336 N344 1.356 . S
C337 C336 1.363 . S
C337 C343 1.363 1_556 S
C338 C339 1.363 . S
C338 C343 1.379 . S
C338 N345 1.356 . S
C339 C338 1.363 . S
C339 C342 1.363 1_554 S
N340 C342 1.356 . S
N340 H352 0.984 . S
N340 H353 0.985 . S
N341 C343 1.356 . S
N341 H346 0.984 . S
N341 H347 0.985 . S
C342 C336 1.379 . S
C342 C339 1.363 1_556 S
C342 N340 1.356 . S
C343 C337 1.363 1_554 S
C343 C338 1.379 . S
C343 N341 1.356 . S
N344 C336 1.356 . S
N344 H350 0.984 . S
N344 H351 0.984 . S
N345 C338 1.356 . S
N345 H348 0.984 . S
N345 H349 0.985 . S
H346 N341 0.984 . S
H347 N341 0.985 . S
H348 N345 0.984 . S
H349 N345 0.985 . S
H350 N344 0.984 . S
H351 N344 0.984 . S
H352 N340 0.984 . S
H353 N340 0.985 . S
C354 C355 1.363 . S
C354 C360 1.379 . S
C354 N362 1.356 . S
C355 C354 1.363 . S
C355 C361 1.365 1_565 S
C356 C357 1.363 1_545 S
C356 C361 1.378 . S
C356 N363 1.356 . S
C357 C356 1.363 1_565 S
C357 C360 1.363 . S
N358 C360 1.356 . S
N358 H370 0.984 . S
N358 H371 0.985 . S
N359 C361 1.355 . S
N359 H364 0.984 . S
N359 H365 0.985 . S
C360 C354 1.379 . S
C360 C357 1.363 . S
C360 N358 1.356 . S
C361 C355 1.365 1_545 S
C361 C356 1.378 . S
C361 N359 1.355 . S
N362 C354 1.356 . S
N362 H368 0.984 . S
N362 H369 0.984 . S
N363 C356 1.356 . S
N363 H366 0.984 . S
N363 H367 0.985 . S
H364 N359 0.984 . S
H365 N359 0.985 . S
H366 N363 0.984 . S
H367 N363 0.985 . S
H368 N362 0.984 . S
H369 N362 0.984 . S
H370 N358 0.984 . S
H371 N358 0.985 . S
C372 C373 1.363 . S
C372 C378 1.379 . S
C372 N380 1.356 . S
C373 C372 1.363 . S
C373 C379 1.363 . S
C374 C375 1.363 . S
C374 C379 1.379 . S
C374 N381 1.356 . S
C375 C374 1.363 . S
C375 C378 1.363 . S
N376 C378 1.356 . S
N376 H388 0.984 . S
N376 H389 0.985 . S
N377 C379 1.356 . S
N377 H382 0.984 . S
N377 H383 0.985 . S
C378 C372 1.379 . S
C378 C375 1.363 . S
C378 N376 1.356 . S
C379 C373 1.363 . S
C379 C374 1.379 . S
C379 N377 1.356 . S
N380 C372 1.356 . S
N380 H386 0.984 . S
N380 H387 0.984 . S
N381 C374 1.356 . S
N381 H384 0.984 . S
N381 H385 0.985 . S
H382 N377 0.984 . S
H383 N377 0.985 . S
H384 N381 0.984 . S
H385 N381 0.985 . S
H386 N380 0.984 . S
H387 N380 0.984 . S
H388 N376 0.984 . S
H389 N376 0.985 . S
C390 C391 1.363 . S
C390 C396 1.379 . S
C390 N398 1.356 . S
C391 C390 1.363 . S
C391 C397 1.363 . S
C392 C393 1.363 . S
C392 C397 1.379 . S
C392 N399 1.345 1_545 S
C393 C392 1.363 . S
C393 C396 1.363 . S
N394 C396 1.356 . S
N394 H406 0.984 . S
N394 H407 0.985 . S
N395 C397 1.356 . S
N395 H400 0.984 . S
N395 H401 0.985 1_545 S
C396 C390 1.379 . S
C396 C393 1.363 . S
C396 N394 1.356 . S
C397 C391 1.363 . S
C397 C392 1.379 . S
C397 N395 1.356 . S
N398 C390 1.356 . S
N398 H404 0.984 . S
N398 H405 0.984 . S
N399 C392 1.345 1_565 S
N399 H402 0.982 1_565 S
N399 H403 0.998 . S
H400 N395 0.984 . S
H401 N395 0.985 1_565 S
H402 N399 0.982 1_545 S
H403 N399 0.998 . S
H404 N398 0.984 . S
H405 N398 0.984 . S
H406 N394 0.984 . S
H407 N394 0.985 . S
C408 C409 1.363 . S
C408 C414 1.379 . S
C408 N416 1.356 . S
C409 C408 1.363 . S
C409 C415 1.363 . S
C410 C411 1.363 . S
C410 C415 1.379 . S
C410 N417 1.356 . S
C411 C410 1.363 . S
C411 C414 1.363 . S
N412 C414 1.356 . S
N412 H424 0.984 . S
N412 H425 0.985 . S
N413 C415 1.356 . S
N413 H418 0.984 . S
N413 H419 0.985 . S
C414 C408 1.379 . S
C414 C411 1.363 . S
C414 N412 1.356 . S
C415 C409 1.363 . S
C415 C410 1.379 . S
C415 N413 1.356 . S
N416 C408 1.356 . S
N416 H422 0.984 . S
N416 H423 0.984 . S
N417 C410 1.356 . S
N417 H420 0.984 . S
N417 H421 0.985 . S
H418 N413 0.984 . S
H419 N413 0.985 . S
H420 N417 0.984 . S
H421 N417 0.985 . S
H422 N416 0.984 . S
H423 N416 0.984 . S
H424 N412 0.984 . S
H425 N412 0.985 . S
C426 C427 1.363 . S
C426 C432 1.379 . S
C426 N434 1.356 . S
C427 C426 1.363 . S
C427 C433 1.363 . S
C428 C429 1.363 . S
C428 C433 1.379 . S
C428 N435 1.356 . S
C429 C428 1.363 . S
C429 C432 1.363 . S
N430 C432 1.356 . S
N430 H442 0.984 . S
N430 H443 0.985 . S
N431 C433 1.356 . S
N431 H436 0.984 . S
N431 H437 0.985 . S
C432 C426 1.379 . S
C432 C429 1.363 . S
C432 N430 1.356 . S
C433 C427 1.363 . S
C433 C428 1.379 . S
C433 N431 1.356 . S
N434 C426 1.356 . S
N434 H440 0.984 . S
N434 H441 0.984 . S
N435 C428 1.356 . S
N435 H438 0.984 . S
N435 H439 0.985 . S
H436 N431 0.984 . S
H437 N431 0.985 . S
H438 N435 0.984 . S
H439 N435 0.985 . S
H440 N434 0.984 . S
H441 N434 0.984 . S
H442 N430 0.984 . S
H443 N430 0.985 . S
C444 C445 1.363 . S
C444 C450 1.379 . S
C444 N452 1.356 . S
C445 C444 1.363 . S
C445 C451 1.363 . S
C446 C447 1.363 . S
C446 C451 1.379 . S
C446 N453 1.356 . S
C447 C446 1.363 . S
C447 C450 1.363 . S
N448 C450 1.356 . S
N448 H460 0.984 . S
N448 H461 0.985 . S
N449 C451 1.356 . S
N449 H454 0.984 . S
N449 H455 0.985 . S
C450 C444 1.379 . S
C450 C447 1.363 . S
C450 N448 1.356 . S
C451 C445 1.363 . S
C451 C446 1.379 . S
C451 N449 1.356 . S
N452 C444 1.356 . S
N452 H458 0.984 . S
N452 H459 0.984 . S
N453 C446 1.356 . S
N453 H456 0.984 . S
N453 H457 0.983 1_655 S
H454 N449 0.984 . S
H455 N449 0.985 . S
H456 N453 0.984 . S
H457 N453 0.983 1_455 S
H458 N452 0.984 . S
H459 N452 0.984 . S
H460 N448 0.984 . S
H461 N448 0.985 . S
C462 C463 1.363 . S
C462 C468 1.379 . S
C462 N470 1.356 . S
C463 C462 1.363 . S
C463 C469 1.363 . S
C464 C465 1.363 . S
C464 C469 1.379 . S
C464 N471 1.356 . S
C465 C464 1.363 . S
C465 C468 1.363 . S
N466 C468 1.356 . S
N466 H478 0.984 . S
N466 H479 0.985 . S
N467 C469 1.356 . S
N467 H472 0.984 . S
N467 H473 0.985 . S
C468 C462 1.379 . S
C468 C465 1.363 . S
C468 N466 1.356 . S
C469 C463 1.363 . S
C469 C464 1.379 . S
C469 N467 1.356 . S
N470 C462 1.356 . S
N470 H476 0.984 . S
N470 H477 0.984 . S
N471 C464 1.356 . S
N471 H474 0.984 . S
N471 H475 0.985 . S
H472 N467 0.984 . S
H473 N467 0.985 . S
H474 N471 0.984 . S
H475 N471 0.985 . S
H476 N470 0.984 . S
H477 N470 0.984 . S
H478 N466 0.984 . S
H479 N466 0.985 . S
C480 C481 1.363 . S
C480 C486 1.379 . S
C480 N488 1.356 . S
C481 C480 1.363 . S
C481 C487 1.363 1_565 S
C482 C483 1.363 1_545 S
C482 C487 1.379 . S
C482 N489 1.356 . S
C483 C482 1.363 1_565 S
C483 C486 1.363 . S
N484 C486 1.356 . S
N484 H496 0.984 . S
N484 H497 0.985 . S
N485 C487 1.356 . S
N485 H490 0.984 . S
N485 H491 0.985 . S
C486 C480 1.379 . S
C486 C483 1.363 . S
C486 N484 1.356 . S
C487 C481 1.363 1_545 S
C487 C482 1.379 . S
C487 N485 1.356 . S
N488 C480 1.356 . S
N488 H494 0.984 . S
N488 H495 0.984 . S
N489 C482 1.356 . S
N489 H492 0.984 . S
N489 H493 0.985 . S
H490 N485 0.984 . S
H491 N485 0.985 . S
H492 N489 0.984 . S
H493 N489 0.985 . S
H494 N488 0.984 . S
H495 N488 0.984 . S
H496 N484 0.984 . S
H497 N484 0.985 . S
C285 C255 1.432 . S
C283 C211 1.608 . S
C301 C31 1.484 . S
C303 C279 1.433 . S
C319 C91 1.634 . S
C321 C258 1.506 . S
C337 C151 1.659 . S
C339 C276 1.506 . S
C357 C256 1.692 . S
C355 C20 1.602 . S
C375 C278 1.628 . S
C373 C61 1.540 . S
C391 C121 1.612 . S
C393 C257 1.525 . S
C409 C200 1.640 . S
C411 C277 1.550 . S
C429 C275 1.525 . S
C427 C80 1.559 . S
C447 C254 1.628 . S
C445 C140 1.660 . S
C465 C274 1.692 . S
C463 C181 1.619 . S
C481 C1 1.552 . S
C483 C253 1.550 . S
