# Generated by pormake.
# Topology csq, (4,8)-cn, num edge types: 1
# Building blocks:
#     Node 0, Type 0, BuildingBlock: GIZVER_clean_linker_0, # of connection points: 4
#     Node 1, Type 0, BuildingBlock: GIZVER_clean_linker_0, # of connection points: 4
#     Node 2, Type 0, BuildingBlock: GIZVER_clean_linker_0, # of connection points: 4
#     Node 3, Type 0, BuildingBlock: GIZVER_clean_linker_0, # of connection points: 4
#     Node 4, Type 0, BuildingBlock: GIZVER_clean_linker_0, # of connection points: 4
#     Node 5, Type 0, BuildingBlock: GIZVER_clean_linker_0, # of connection points: 4
#     Node 6, Type 1, BuildingBlock: TAGTUT_clean_sbu_3, # of connection points: 8
#     Node 7, Type 1, BuildingBlock: TAGTUT_clean_sbu_3, # of connection points: 8
#     Node 8, Type 1, BuildingBlock: TAGTUT_clean_sbu_3, # of connection points: 8
#     Edge 9, Type (0, 1), BuildingBlock: XUDNAN_clean_linker_2, # of connection points: 2
#     Edge 10, Type (0, 1), BuildingBlock: XUDNAN_clean_linker_2, # of connection points: 2
#     Edge 11, Type (0, 1), BuildingBlock: XUDNAN_clean_linker_2, # of connection points: 2
#     Edge 12, Type (0, 1), BuildingBlock: XUDNAN_clean_linker_2, # of connection points: 2
#     Edge 13, Type (0, 1), BuildingBlock: XUDNAN_clean_linker_2, # of connection points: 2
#     Edge 14, Type (0, 1), BuildingBlock: XUDNAN_clean_linker_2, # of connection points: 2
#     Edge 15, Type (0, 1), BuildingBlock: XUDNAN_clean_linker_2, # of connection points: 2
#     Edge 16, Type (0, 1), BuildingBlock: XUDNAN_clean_linker_2, # of connection points: 2
#     Edge 17, Type (0, 1), BuildingBlock: XUDNAN_clean_linker_2, # of connection points: 2
#     Edge 18, Type (0, 1), BuildingBlock: XUDNAN_clean_linker_2, # of connection points: 2
#     Edge 19, Type (0, 1), BuildingBlock: XUDNAN_clean_linker_2, # of connection points: 2
#     Edge 20, Type (0, 1), BuildingBlock: XUDNAN_clean_linker_2, # of connection points: 2
#     Edge 21, Type (0, 1), BuildingBlock: XUDNAN_clean_linker_2, # of connection points: 2
#     Edge 22, Type (0, 1), BuildingBlock: XUDNAN_clean_linker_2, # of connection points: 2
#     Edge 23, Type (0, 1), BuildingBlock: XUDNAN_clean_linker_2, # of connection points: 2
#     Edge 24, Type (0, 1), BuildingBlock: XUDNAN_clean_linker_2, # of connection points: 2
#     Edge 25, Type (0, 1), BuildingBlock: XUDNAN_clean_linker_2, # of connection points: 2
#     Edge 26, Type (0, 1), BuildingBlock: XUDNAN_clean_linker_2, # of connection points: 2
#     Edge 27, Type (0, 1), BuildingBlock: XUDNAN_clean_linker_2, # of connection points: 2
#     Edge 28, Type (0, 1), BuildingBlock: XUDNAN_clean_linker_2, # of connection points: 2
#     Edge 29, Type (0, 1), BuildingBlock: XUDNAN_clean_linker_2, # of connection points: 2
#     Edge 30, Type (0, 1), BuildingBlock: XUDNAN_clean_linker_2, # of connection points: 2
#     Edge 31, Type (0, 1), BuildingBlock: XUDNAN_clean_linker_2, # of connection points: 2
#     Edge 32, Type (0, 1), BuildingBlock: XUDNAN_clean_linker_2, # of connection points: 2
# Relax obj value: 0.038
# Max RMSD: 0.114
# Mean RMSD: 0.081
data_MOF--net-csq--node1-TAGTUT_clean_sbu_3--node2-GIZVER_clean_linker_0--edge1-XUDNAN_clean_linker_2
_symmetry_space_group_name_H-M    P1
_symmetry_Int_Tables_number       1
_symmetry_cell_setting            triclinic
loop_
_symmetry_equiv_pos_as_xyz
'x, y, z'
_cell_length_a     55.14859
_cell_length_b     54.51233
_cell_length_c     17.963066
_cell_angle_alpha  93.229175
_cell_angle_beta   92.601132
_cell_angle_gamma 119.9109
loop_
_atom_site_label
_atom_site_type_symbol
_atom_site_fract_x
_atom_site_fract_y
_atom_site_fract_z
_atom_type_partial_charge
H0 H 0.22841 0.50841 0.04684 0.0
H1 H 0.23963 0.54106 0.27787 0.0
H2 H 0.15785 0.47794 0.17953 0.0
H3 H 0.26902 0.55582 0.09697 0.0
H4 H 0.27582 0.56598 0.19513 0.0
H5 H 0.29402 0.53544 0.04047 0.0
H6 H 0.34342 0.51237 0.17943 0.0
H7 H 0.28578 0.533 0.27889 0.0
C8 C 0.22012 0.50762 0.1008 0.0
C9 C 0.19128 0.48998 0.10721 0.0
C10 C 0.23794 0.52567 0.16276 0.0
C11 C 0.22644 0.52614 0.23107 0.0
C12 C 0.19748 0.50908 0.23682 0.0
C13 C 0.18035 0.49046 0.17564 0.0
C14 C 0.26803 0.54747 0.15257 0.0
C15 C 0.28745 0.5355 0.15889 0.0
C16 C 0.29985 0.53168 0.09528 0.0
C17 C 0.32053 0.52392 0.10321 0.0
C18 C 0.328 0.51916 0.17368 0.0
C19 C 0.31554 0.52217 0.23673 0.0
C20 C 0.29509 0.53017 0.22965 0.0
H21 H 0.78328 0.26894 0.98022 0.0
H22 H 0.81137 0.26516 0.20489 0.0
H23 H 0.8513 0.34356 0.10296 0.0
H24 H 0.77453 0.22344 0.02558 0.0
H25 H 0.78512 0.22198 0.11952 0.0
H26 H 0.73195 0.22647 0.995 0.0
H27 H 0.66888 0.19158 0.15 0.0
H28 H 0.75274 0.20992 0.21255 0.0
C29 C 0.79684 0.27956 0.031 0.0
C30 C 0.81719 0.3086 0.0341 0.0
C31 C 0.79463 0.26377 0.09243 0.0
C32 C 0.81254 0.27735 0.15817 0.0
C33 C 0.83313 0.30618 0.16165 0.0
C34 C 0.83493 0.32148 0.10006 0.0
C35 C 0.77582 0.2319 0.08438 0.0
C36 C 0.74653 0.22296 0.10542 0.0
C37 C 0.72629 0.2212 0.05132 0.0
C38 C 0.69802 0.20901 0.06668 0.0
C39 C 0.69077 0.20123 0.13864 0.0
C40 C 0.70964 0.19914 0.18925 0.0
C41 C 0.73796 0.21157 0.17428 0.0
H42 H 0.55721 0.81595 0.98164 0.0
H43 H 0.55214 0.80123 0.21489 0.0
H44 H 0.51954 0.85121 0.12538 0.0
H45 H 0.58782 0.80077 0.04778 0.0
H46 H 0.58325 0.79217 0.14246 0.0
H47 H 0.56091 0.76564 0.94625 0.0
H48 H 0.50618 0.67978 0.99307 0.0
H49 H 0.54244 0.74658 0.17326 0.0
C50 C 0.55047 0.81857 0.03577 0.0
C51 C 0.53716 0.83477 0.04507 0.0
C52 C 0.5557 0.8062 0.09676 0.0
C53 C 0.54748 0.80998 0.16721 0.0
C54 C 0.53403 0.82576 0.17693 0.0
C55 C 0.52872 0.83786 0.11601 0.0
C56 C 0.57172 0.79066 0.08835 0.0
C57 C 0.55215 0.75978 0.06211 0.0
C58 C 0.54912 0.75062 0.98585 0.0
C59 C 0.53273 0.72178 0.96162 0.0
C60 C 0.51845 0.70212 0.01301 0.0
C61 C 0.52239 0.71044 0.08999 0.0
C62 C 0.53869 0.73963 0.11407 0.0
H63 H 0.74923 0.54034 0.91752 0.0
H64 H 0.75717 0.55623 0.15721 0.0
H65 H 0.67668 0.52117 0.03405 0.0
H66 H 0.79311 0.57878 0.98845 0.0
H67 H 0.79746 0.58026 0.08726 0.0
H68 H 0.79283 0.53911 0.90706 0.0
H69 H 0.85253 0.51816 0.001 0.0
H70 H 0.81818 0.5563 0.14318 0.0
C71 C 0.73954 0.53795 0.96979 0.0
C72 C 0.71067 0.52822 0.96826 0.0
C73 C 0.7565 0.54794 0.0377 0.0
C74 C 0.74404 0.54718 0.1051 0.0
C75 C 0.71499 0.53688 0.10443 0.0
C76 C 0.69855 0.52679 0.03582 0.0
C77 C 0.78801 0.56521 0.03593 0.0
C78 C 0.80186 0.54737 0.02715 0.0
C79 C 0.80367 0.53668 0.95537 0.0
C80 C 0.82175 0.52565 0.94515 0.0
C81 C 0.83676 0.52422 0.00828 0.0
C82 C 0.83598 0.53559 0.07912 0.0
C83 C 0.81785 0.54634 0.08887 0.0
H84 H 0.25608 0.78251 0.96053 0.0
H85 H 0.30272 0.79107 0.16914 0.0
H86 H 0.32377 0.86429 0.04942 0.0
H87 H 0.25733 0.74053 0.01544 0.0
H88 H 0.27146 0.74464 0.10959 0.0
H89 H 0.21181 0.73511 0.98754 0.0
H90 H 0.15709 0.71536 0.16574 0.0
H91 H 0.24468 0.74514 0.21564 0.0
C92 C 0.2722 0.7957 0.00482 0.0
C93 C 0.28873 0.82504 -0.00036 0.0
C94 C 0.27694 0.78336 0.0667 0.0
C95 C 0.29877 0.80054 0.122 0.0
C96 C 0.31574 0.82978 0.11623 0.0
C97 C 0.31026 0.84185 0.05551 0.0
C98 C 0.26009 0.75173 0.07164 0.0
C99 C 0.23168 0.74315 0.09886 0.0
C100 C 0.20867 0.73509 0.04664 0.0
C101 C 0.18147 0.72434 0.06981 0.0
C102 C 0.17794 0.72377 0.14677 0.0
C103 C 0.20045 0.73072 0.19935 0.0
C104 C 0.22741 0.74068 0.17543 0.0
H105 H 0.53564 0.29977 0.05447 0.0
H106 H 0.50506 0.28226 0.27207 0.0
H107 H 0.48505 0.33315 0.13442 0.0
H108 H 0.55319 0.27789 0.13686 0.0
H109 H 0.55326 0.28687 0.23433 0.0
H110 H 0.50401 0.23439 0.07664 0.0
H111 H 0.47616 0.16345 0.20921 0.0
H112 H 0.53579 0.2472 0.30805 0.0
C113 C 0.52326 0.30158 0.09729 0.0
C114 C 0.50873 0.31628 0.08494 0.0
C115 C 0.5221 0.28955 0.16539 0.0
C116 C 0.50604 0.292 0.22057 0.0
C117 C 0.49245 0.30775 0.2109 0.0
C118 C 0.49388 0.31958 0.14231 0.0
C119 C 0.53938 0.27571 0.18227 0.0
C120 C 0.5208 0.24459 0.19228 0.0
C121 C 0.50375 0.22613 0.13031 0.0
C122 C 0.48732 0.19694 0.1365 0.0
C123 C 0.48775 0.18624 0.20524 0.0
C124 C 0.50527 0.20405 0.26696 0.0
C125 C 0.52167 0.2334 0.2609 0.0
C126 C 0.05461 0.4976 0.55348 0.0
C127 C 0.03077 0.45991 0.80563 0.0
C128 C 0.9461 0.44695 0.74587 0.0
Mg129 Mg 0.03068 0.52886 0.44776 0.0
Mg130 Mg 0.01341 0.57191 0.53255 0.0
O131 O 0.00589 0.53459 0.51699 0.0
Mg132 Mg 0.01004 0.51674 0.60674 0.0
O133 O 0.01485 0.49636 0.69035 0.0
Mg134 Mg 0.99916 0.45701 0.63935 0.0
Mg135 Mg 0.00473 0.49887 0.78707 0.0
C136 C 0.96787 0.54135 0.64823 0.0
O137 O 0.03738 0.55885 0.68225 0.0
O138 O 0.00978 0.543 0.35571 0.0
O139 O 0.02443 0.545 0.7974 0.0
O140 O 0.06772 0.57553 0.46903 0.0
O141 O 1.0005 0.57357 0.42102 0.0
O142 O 0.05756 0.60179 0.54635 0.0
O143 O 0.98244 0.47315 0.54414 0.0
O144 O 0.99444 0.48216 0.42789 0.0
C145 C 0.97968 0.46492 0.47478 0.0
C146 C 1.00034 0.56039 0.35963 0.0
O147 O 0.9725 0.52036 0.65043 0.0
O148 O 0.01997 0.44729 0.74014 0.0
O149 O 0.9834 0.56362 0.61501 0.0
O150 O 0.95758 0.44001 0.69496 0.0
O151 O 0.02798 0.48042 0.83373 0.0
O152 O 0.95993 0.47029 0.78744 0.0
O153 O 0.04688 0.51615 0.5525 0.0
O154 O 0.04065 0.47468 0.58489 0.0
C155 C 0.07489 0.59902 0.50717 0.0
C156 C 0.03756 0.56441 0.75316 0.0
C157 C 0.50109 0.04988 0.51993 0.0
C158 C 0.59133 0.04309 0.4821 0.0
C159 C 0.5373 0.95498 0.53868 0.0
Mg160 Mg 0.44853 0.01229 0.62238 0.0
Mg161 Mg 0.45901 0.98651 0.77649 0.0
O162 O 0.46428 0.99115 0.67565 0.0
Mg163 Mg 0.50134 0.00595 0.63436 0.0
O164 O 0.5368 0.02026 0.58426 0.0
Mg165 Mg 0.52062 0.00294 0.48004 0.0
Mg166 Mg 0.56498 0.0136 0.62345 0.0
C167 C 0.49904 0.96069 0.75662 0.0
O168 O 0.52897 0.03703 0.73636 0.0
O169 O 0.40459 0.98009 0.66485 0.0
O170 O 0.56791 0.03321 0.73444 0.0
O171 O 0.45809 0.04284 0.72703 0.0
O172 O 0.41457 0.96076 0.76105 0.0
O173 O 0.46856 0.02693 0.8289 0.0
O174 O 0.47764 0.97719 0.52716 0.0
O175 O 0.43973 0.98186 0.52081 0.0
C176 C 0.45421 0.97163 0.49393 0.0
C177 C 0.39706 0.96225 0.71504 0.0
O178 O 0.5066 0.97149 0.69383 0.0
O179 O 0.5666 0.03129 0.44761 0.0
O180 O 0.48319 0.96572 0.79741 0.0
O181 O 0.52681 0.96487 0.49266 0.0
O182 O 0.59548 0.03896 0.54979 0.0
O183 O 0.55235 0.96952 0.59798 0.0
O184 O 0.49396 0.03988 0.58347 0.0
O185 O 0.51212 0.03993 0.47477 0.0
C186 C 0.46529 0.04551 0.79688 0.0
C187 C 0.55365 0.0435 0.76387 0.0
C188 C 0.51768 0.56543 0.68708 0.0
C189 C 0.44268 0.47903 0.82236 0.0
C190 C 0.48826 0.43724 0.74446 0.0
Mg191 Mg 0.54555 0.56322 0.53443 0.0
Mg192 Mg 0.51048 0.50939 0.40533 0.0
O193 O 0.52557 0.52131 0.50535 0.0
Mg194 Mg 0.50138 0.50691 0.5898 0.0
O195 O 0.47858 0.49435 0.67589 0.0
Mg196 Mg 0.50798 0.5078 0.76076 0.0
Mg197 Mg 0.45059 0.45569 0.66873 0.0
C198 C 0.48316 0.45009 0.47906 0.0
O199 O 0.46061 0.49677 0.52276 0.0
O200 O 0.57614 0.56585 0.44379 0.0
O201 O 0.42879 0.45525 0.56396 0.0
O202 O 0.51903 0.57179 0.44999 0.0
O203 O 0.55134 0.52614 0.36502 0.0
O204 O 0.49262 0.5347 0.36692 0.0
O205 O 0.54005 0.51536 0.66887 0.0
O206 O 0.57064 0.5547 0.61972 0.0
C207 C 0.56515 0.5362 0.66649 0.0
C208 C 0.57443 0.54881 0.38829 0.0
O209 O 0.4904 0.46225 0.54608 0.0
O210 O 0.46923 0.49744 0.83416 0.0
O211 O 0.48618 0.46378 0.42072 0.0
O212 O 0.5024 0.46316 0.77176 0.0
O213 O 0.43254 0.46104 0.76467 0.0
O214 O 0.46751 0.4287 0.69562 0.0
O215 O 0.51295 0.55251 0.6221 0.0
O216 O 0.51562 0.55273 0.74634 0.0
C217 C 0.50086 0.56006 0.39399 0.0
C218 C 0.43552 0.4754 0.52096 0.0
H219 H 0.15824 0.52511 0.23519 0.0
H220 H 0.20504 0.50042 0.38296 0.0
H221 H 0.17584 0.49918 0.48561 0.0
H222 H 0.14627 0.56908 0.37997 0.0
H223 H 0.11168 0.55762 0.3371 0.0
H224 H 0.13893 0.56048 0.28012 0.0
H225 H 0.10662 0.50782 0.22777 0.0
H226 H 0.07967 0.50488 0.28559 0.0
H227 H 0.0928 0.48063 0.29193 0.0
H228 H 0.13694 0.49351 0.56421 0.0
H229 H 0.09403 0.48779 0.61729 0.0
H230 H 0.07394 0.51853 0.41981 0.0
C231 C 0.16276 0.52018 0.28988 0.0
C232 C 0.18383 0.51293 0.30184 0.0
C233 C 0.18914 0.5063 0.37342 0.0
C234 C 0.17262 0.50547 0.43166 0.0
C235 C 0.1513 0.51179 0.41724 0.0
C236 C 0.14669 0.5195 0.34839 0.0
C237 C 0.1214 0.52355 0.34551 0.0
C238 C 0.1301 0.55455 0.33498 0.0
C239 C 0.0988 0.50299 0.28408 0.0
C240 C 0.11188 0.51607 0.4228 0.0
C241 C 0.12941 0.50936 0.46333 0.0
C242 C 0.12348 0.49934 0.53366 0.0
C243 C 0.09903 0.49603 0.56312 0.0
C244 C 0.081 0.50306 0.52279 0.0
C245 C 0.08775 0.51363 0.45231 0.0
H246 H 0.6619 0.14733 0.16985 0.0
H247 H 0.7314 0.20205 0.33405 0.0
H248 H 0.71102 0.16513 0.42359 0.0
H249 H 0.60938 0.12445 0.29753 0.0
H250 H 0.58887 0.08934 0.2497 0.0
H251 H 0.61059 0.11893 0.19818 0.0
H252 H 0.63567 0.09243 0.14957 0.0
H253 H 0.61428 0.06284 0.20173 0.0
H254 H 0.65201 0.08024 0.2156 0.0
H255 H 0.6814 0.12242 0.49567 0.0
H256 H 0.644 0.08063 0.54831 0.0
H257 H 0.59304 0.05641 0.33662 0.0
C258 C 0.67278 0.15206 0.22505 0.0
C259 C 0.69802 0.17801 0.24551 0.0
C260 C 0.71199 0.18245 0.31731 0.0
C261 C 0.70058 0.16158 0.36829 0.0
C262 C 0.67534 0.13651 0.34623 0.0
C263 C 0.66157 0.13191 0.27639 0.0
C264 C 0.6339 0.10426 0.26702 0.0
C265 C 0.60924 0.10957 0.25229 0.0
C266 C 0.63399 0.08374 0.2048 0.0
C267 C 0.6339 0.09391 0.34314 0.0
C268 C 0.65815 0.11251 0.38771 0.0
C269 C 0.66242 0.10771 0.46113 0.0
C270 C 0.64103 0.08379 0.49037 0.0
C271 C 0.61548 0.06516 0.44656 0.0
C272 C 0.61229 0.07009 0.37148 0.0
H273 H 0.52308 0.66048 0.07685 0.0
H274 H 0.50124 0.71031 0.22718 0.0
H275 H 0.48753 0.67364 0.31719 0.0
H276 H 0.46594 0.59071 0.11287 0.0
H277 H 0.48776 0.57478 0.10585 0.0
H278 H 0.49429 0.60425 0.0528 0.0
H279 H 0.5456 0.63217 0.11154 0.0
H280 H 0.53929 0.60281 0.16445 0.0
H281 H 0.55238 0.63764 0.21199 0.0
H282 H 0.48158 0.63389 0.39597 0.0
H283 H 0.48383 0.59511 0.45542 0.0
H284 H 0.5042 0.56896 0.24672 0.0
C285 C 0.51457 0.66346 0.12747 0.0
C286 C 0.51279 0.6882 0.14405 0.0
C287 C 0.5028 0.6916 0.21297 0.0
C288 C 0.49475 0.67076 0.26415 0.0
C289 C 0.49656 0.64653 0.24528 0.0
C290 C 0.50615 0.64284 0.17831 0.0
C291 C 0.50768 0.61585 0.17235 0.0
C292 C 0.4877 0.59515 0.10707 0.0
C293 C 0.53804 0.62253 0.16468 0.0
C294 C 0.49777 0.60489 0.24709 0.0
C295 C 0.49157 0.62294 0.28866 0.0
C296 C 0.4855 0.61918 0.3631 0.0
C297 C 0.48663 0.59701 0.3963 0.0
C298 C 0.493 0.57842 0.35463 0.0
C299 C 0.49789 0.58201 0.2786 0.0
H300 H 0.85502 0.50108 0.12934 0.0
H301 H 0.87219 0.58811 0.14684 0.0
H302 H 0.9198 0.60433 0.20407 0.0
H303 H 0.89466 0.50679 0.3056 0.0
H304 H 0.90645 0.4837 0.26686 0.0
H305 H 0.87338 0.47946 0.23169 0.0
H306 H 0.89024 0.48439 0.09798 0.0
H307 H 0.92389 0.49003 0.13351 0.0
H308 H 0.92195 0.51596 0.07943 0.0
H309 H 0.96612 0.61168 0.24941 0.0
H310 H 0.0047 0.60862 0.31441 0.0
H311 H 0.95816 0.51697 0.26852 0.0
C312 C 0.86855 0.52341 0.14759 0.0
C313 C 0.8599 0.54334 0.1344 0.0
C314 C 0.8782 0.57245 0.15788 0.0
C315 C 0.90548 0.58192 0.18888 0.0
C316 C 0.91399 0.56199 0.19625 0.0
C317 C 0.89586 0.53325 0.17871 0.0
C318 C 0.91016 0.51626 0.19443 0.0
C319 C 0.89529 0.49534 0.25317 0.0
C320 C 0.91164 0.50075 0.12203 0.0
C321 C 0.93907 0.53999 0.22489 0.0
C322 C 0.94093 0.56622 0.2233 0.0
C323 C 0.96499 0.59132 0.25106 0.0
C324 C 0.98692 0.58942 0.28693 0.0
C325 C 0.9844 0.56262 0.29548 0.0
C326 C 0.96089 0.53773 0.26059 0.0
H327 H 0.33077 0.88226 0.18164 0.0
H328 H 0.35551 0.81816 0.17439 0.0
H329 H 0.39738 0.84991 0.26121 0.0
H330 H 0.40093 0.94365 0.18837 0.0
H331 H 0.39277 0.96494 0.25138 0.0
H332 H 0.36563 0.93758 0.18639 0.0
H333 H 0.33532 0.91436 0.29591 0.0
H334 H 0.36214 0.94185 0.36087 0.0
H335 H 0.35017 0.90508 0.37336 0.0
H336 H 0.43626 0.88903 0.35199 0.0
H337 H 0.46501 0.92926 0.44791 0.0
H338 H 0.41413 0.96682 0.39152 0.0
C339 C 0.34513 0.87498 0.19776 0.0
C340 C 0.34001 0.84785 0.17125 0.0
C341 C 0.35897 0.83884 0.19472 0.0
C342 C 0.38294 0.85683 0.24322 0.0
C343 C 0.38757 0.8837 0.26741 0.0
C344 C 0.36901 0.89257 0.24578 0.0
C345 C 0.3777 0.92169 0.28231 0.0
C346 C 0.38467 0.94323 0.2236 0.0
C347 C 0.35499 0.92066 0.33102 0.0
C348 C 0.40377 0.92766 0.32933 0.0
C349 C 0.40951 0.90581 0.31936 0.0
C350 C 0.43201 0.90632 0.35985 0.0
C351 C 0.44833 0.92928 0.41387 0.0
C352 C 0.44167 0.95099 0.42728 0.0
C353 C 0.41972 0.95051 0.38256 0.0
H354 H 0.45032 0.32127 0.20578 0.0
H355 H 0.50764 0.31294 0.36262 0.0
H356 H 0.4965 0.33682 0.46232 0.0
H357 H 0.47958 0.38906 0.24952 0.0
H358 H 0.44891 0.39274 0.2388 0.0
H359 H 0.44933 0.36365 0.18874 0.0
H360 H 0.40423 0.32798 0.24718 0.0
H361 H 0.40359 0.35721 0.2975 0.0
H362 H 0.40324 0.32929 0.34744 0.0
H363 H 0.49121 0.37256 0.53583 0.0
H364 H 0.49653 0.41942 0.56984 0.0
H365 H 0.44997 0.41262 0.36126 0.0
C366 C 0.4602 0.3239 0.26129 0.0
C367 C 0.48018 0.31525 0.2749 0.0
C368 C 0.49183 0.31858 0.34942 0.0
C369 C 0.48564 0.33235 0.40722 0.0
C370 C 0.46814 0.3432 0.39001 0.0
C371 C 0.45556 0.33914 0.3185 0.0
C372 C 0.44412 0.35903 0.30885 0.0
C373 C 0.45624 0.37719 0.24268 0.0
C374 C 0.41187 0.34238 0.29974 0.0
C375 C 0.4548 0.37679 0.38337 0.0
C376 C 0.467 0.36616 0.43107 0.0
C377 C 0.48115 0.38071 0.49974 0.0
C378 C 0.48414 0.40739 0.51855 0.0
C379 C 0.4738 0.41959 0.4677 0.0
C380 C 0.45793 0.40358 0.40101 0.0
H381 H 0.49271 0.84267 0.00891 0.0
H382 H 0.57535 0.86388 0.94431 0.0
H383 H 0.57303 0.89552 0.85462 0.0
H384 H 0.46303 0.84615 0.82365 0.0
H385 H 0.44408 0.86185 0.86426 0.0
H386 H 0.45073 0.83798 0.91529 0.0
H387 H 0.47446 0.87663 0.02708 0.0
H388 H 0.46809 0.90065 0.97629 0.0
H389 H 0.5033 0.91111 0.01201 0.0
H390 H 0.56391 0.92934 0.78266 0.0
H391 H 0.54805 0.96091 0.73303 0.0
H392 H 0.4717 0.91757 0.84536 0.0
C393 C 0.51019 0.85364 0.97518 0.0
C394 C 0.53418 0.85064 0.98365 0.0
C395 C 0.55652 0.86536 0.93808 0.0
C396 C 0.55547 0.88356 0.88723 0.0
C397 C 0.53187 0.88671 0.88218 0.0
C398 C 0.50952 0.87192 0.92453 0.0
C399 C 0.48742 0.88039 0.91262 0.0
C400 C 0.45968 0.85508 0.87681 0.0
C401 C 0.48309 0.89294 0.98637 0.0
C402 C 0.50115 0.90284 0.85858 0.0
C403 C 0.52663 0.90602 0.84091 0.0
C404 C 0.54369 0.92656 0.79484 0.0
C405 C 0.53442 0.94424 0.76618 0.0
C406 C 0.50839 0.94129 0.78364 0.0
C407 C 0.49163 0.92023 0.8304 0.0
H408 H 0.65606 0.48862 0.91677 0.0
H409 H 0.72854 0.56744 0.8672 0.0
H410 H 0.69872 0.57544 0.77831 0.0
H411 H 0.62068 0.47195 0.71772 0.0
H412 H 0.58606 0.45676 0.74895 0.0
H413 H 0.61267 0.4531 0.80066 0.0
H414 H 0.60614 0.47561 0.92178 0.0
H415 H 0.57902 0.47951 0.87428 0.0
H416 H 0.6091 0.51011 0.92322 0.0
H417 H 0.66135 0.58148 0.72332 0.0
H418 H 0.61863 0.58003 0.675 0.0
H419 H 0.56818 0.49577 0.74968 0.0
C420 C 0.66575 0.50688 0.88459 0.0
C421 C 0.69467 0.52733 0.89865 0.0
C422 C 0.70664 0.55118 0.85641 0.0
C423 C 0.68977 0.55612 0.80634 0.0
C424 C 0.6611 0.5367 0.79797 0.0
C425 C 0.64918 0.51202 0.83351 0.0
C426 C 0.61747 0.49548 0.81632 0.0
C427 C 0.60868 0.46767 0.76814 0.0
C428 C 0.60204 0.48986 0.88819 0.0
C429 C 0.61335 0.51615 0.77161 0.0
C430 C 0.639 0.53957 0.76148 0.0
C431 C 0.64117 0.56283 0.72825 0.0
C432 C 0.61656 0.5618 0.70157 0.0
C433 C 0.58984 0.53747 0.70705 0.0
C434 C 0.58822 0.51447 0.74386 0.0
H435 H 0.13338 0.67472 0.08613 0.0
H436 H 0.17392 0.7368 0.9261 0.0
H437 H 0.13691 0.70452 0.82787 0.0
H438 H 0.11788 0.61703 0.97589 0.0
H439 H 0.08425 0.59363 0.00904 0.0
H440 H 0.11036 0.62351 0.06926 0.0
H441 H 0.07583 0.64213 0.08738 0.0
H442 H 0.04922 0.61191 0.02814 0.0
H443 H 0.05887 0.64739 0.00667 0.0
H444 H 0.10044 0.66165 0.74349 0.0
H445 H 0.0667 0.61374 0.68356 0.0
H446 H 0.0495 0.5819 0.90215 0.0
C447 C 0.13391 0.68241 0.03166 0.0
C448 C 0.15659 0.70852 0.01432 0.0
C449 C 0.15686 0.71686 0.94085 0.0
C450 C 0.13581 0.69874 0.88479 0.0
C451 C 0.11438 0.67264 0.90349 0.0
C452 C 0.11304 0.66482 0.97571 0.0
C453 C 0.08975 0.63465 0.98057 0.0
C454 C 0.10127 0.61615 0.01039 0.0
C455 C 0.06707 0.63399 0.02852 0.0
C456 C 0.079 0.62615 0.89913 0.0
C457 C 0.09315 0.64833 0.85538 0.0
C458 C 0.08873 0.64437 0.7775 0.0
C459 C 0.0696 0.61702 0.74376 0.0
C460 C 0.05524 0.59398 0.78773 0.0
C461 C 0.05968 0.59901 0.86651 0.0
H462 H 0.51145 0.19479 0.01003 0.0
H463 H 0.43382 0.15212 0.11724 0.0
H464 H 0.41727 0.10983 0.02784 0.0
H465 H 0.47937 0.15791 0.81048 0.0
H466 H 0.51076 0.15673 0.79359 0.0
H467 H 0.51304 0.18608 0.85135 0.0
H468 H 0.53937 0.17617 0.95817 0.0
H469 H 0.53659 0.14666 0.90109 0.0
H470 H 0.52314 0.14138 0.99202 0.0
H471 H 0.41491 0.06951 0.95367 0.0
H472 H 0.42284 0.03479 0.88049 0.0
H473 H 0.50117 0.10315 0.81605 0.0
C474 C 0.4903 0.17717 0.01153 0.0
C475 C 0.47373 0.1766 0.06975 0.0
C476 C 0.4466 0.15287 0.07239 0.0
C477 C 0.4371 0.1288 0.022 0.0
C478 C 0.45485 0.12915 0.9688 0.0
C479 C 0.48053 0.15299 0.96146 0.0
C480 C 0.49695 0.14659 0.90575 0.0
C481 C 0.50021 0.16279 0.83615 0.0
C482 C 0.52569 0.15307 0.94152 0.0
C483 C 0.47744 0.115 0.88748 0.0
C484 C 0.45314 0.1055 0.9239 0.0
C485 C 0.43336 0.07676 0.92294 0.0
C486 C 0.43822 0.05723 0.88237 0.0
C487 C 0.46256 0.06661 0.84348 0.0
C488 C 0.48234 0.09576 0.8453 0.0
H489 H 0.37641 0.55056 0.084 0.0
H490 H 0.29505 0.48367 0.9859 0.0
H491 H 0.31836 0.46436 0.90683 0.0
H492 H 0.41537 0.56014 0.91339 0.0
H493 H 0.44646 0.56573 0.96669 0.0
H494 H 0.42356 0.57631 0.00829 0.0
H495 H 0.41934 0.54596 0.11765 0.0
H496 H 0.44087 0.53355 0.07591 0.0
H497 H 0.40609 0.50845 0.09856 0.0
H498 H 0.34941 0.44761 0.85838 0.0
H499 H 0.38676 0.44067 0.81262 0.0
H500 H 0.44963 0.52066 0.93365 0.0
C501 C 0.36365 0.53267 0.0431 0.0
C502 C 0.33397 0.51878 0.03969 0.0
C503 C 0.31776 0.4949 0.98773 0.0
C504 C 0.33084 0.48359 0.94364 0.0
C505 C 0.36007 0.49673 0.95184 0.0
C506 C 0.37639 0.52129 -0.00173 0.0
C507 C 0.40732 0.53041 -0.00114 0.0
C508 C 0.42417 0.5599 0.97009 0.0
C509 C 0.41911 0.52959 0.07741 0.0
C510 C 0.40591 0.50729 0.94467 0.0
C511 C 0.37831 0.48772 0.92032 0.0
C512 C 0.37113 0.46325 0.875 0.0
C513 C 0.39272 0.4595 0.84975 0.0
C514 C 0.42143 0.48053 0.86766 0.0
C515 C 0.42805 0.50433 0.91811 0.0
H516 H 0.83582 0.36564 0.03046 0.0
H517 H 0.81345 0.28958 0.88591 0.0
H518 H 0.83513 0.31911 0.78312 0.0
H519 H 0.83787 0.41366 0.88524 0.0
H520 H 0.86931 0.443 0.93334 0.0
H521 H 0.84356 0.41625 0.98567 0.0
H522 H 0.88212 0.40793 0.04557 0.0
H523 H 0.90777 0.43449 0.99314 0.0
H524 H 0.90254 0.39901 0.98591 0.0
H525 H 0.86778 0.35629 0.70588 0.0
H526 H 0.91023 0.39637 0.66475 0.0
H527 H 0.91733 0.44831 0.86593 0.0
C528 C 0.83488 0.355 0.9768 0.0
C529 C 0.82299 0.32513 0.96705 0.0
C530 C 0.82188 0.31228 0.89517 0.0
C531 C 0.83436 0.32899 0.83624 0.0
C532 C 0.84808 0.35852 0.85007 0.0
C533 C 0.84845 0.37139 0.91891 0.0
C534 C 0.86931 0.403 0.92538 0.0
C535 C 0.85407 0.41998 0.93274 0.0
C536 C 0.89175 0.41157 0.99133 0.0
C537 C 0.88173 0.4058 0.85069 0.0
C538 C 0.86846 0.38008 0.80704 0.0
C539 C 0.87798 0.37662 0.73896 0.0
C540 C 0.90228 0.39957 0.71624 0.0
C541 C 0.91727 0.42557 0.76224 0.0
C542 C 0.90617 0.42893 0.82897 0.0
H543 H 0.83714 0.48707 0.89512 0.0
H544 H 0.83043 0.55896 0.82878 0.0
H545 H 0.86255 0.56578 0.73157 0.0
H546 H 0.90926 0.52362 0.89655 0.0
H547 H 0.91133 0.49236 0.87032 0.0
H548 H 0.88202 0.4894 0.9177 0.0
H549 H 0.84886 0.45255 0.80445 0.0
H550 H 0.87934 0.45771 0.7589 0.0
H551 H 0.85356 0.46367 0.71114 0.0
H552 H 0.90344 0.57268 0.6653 0.0
H553 H 0.94639 0.57588 0.62271 0.0
H554 H 0.93089 0.50229 0.73932 0.0
C555 C 0.84156 0.50359 0.85821 0.0
C556 C 0.83124 0.52255 0.87037 0.0
C557 C 0.83751 0.54379 0.82051 0.0
C558 C 0.85614 0.54809 0.76544 0.0
C559 C 0.86837 0.53105 0.76096 0.0
C560 C 0.86109 0.50895 0.80536 0.0
C561 C 0.88075 0.49708 0.79918 0.0
C562 C 0.89676 0.50078 0.87537 0.0
C563 C 0.86468 0.46589 0.76649 0.0
C564 C 0.90045 0.51617 0.74506 0.0
C565 C 0.8928 0.53552 0.72365 0.0
C566 C 0.90924 0.55721 0.6802 0.0
C567 C 0.93389 0.559 0.65705 0.0
C568 C 0.94217 0.53926 0.67738 0.0
C569 C 0.92505 0.51748 0.72195 0.0
H570 H 0.30641 0.82045 0.86523 0.0
H571 H 0.27055 0.86293 0.98942 0.0
H572 H 0.28383 0.89807 0.89602 0.0
H573 H 0.36444 0.87649 0.84401 0.0
H574 H 0.37059 0.86749 0.75134 0.0
H575 H 0.34872 0.83984 0.80706 0.0
H576 H 0.30795 0.8197 0.70255 0.0
H577 H 0.32995 0.84741 0.64572 0.0
H578 H 0.29622 0.84254 0.66631 0.0
H579 H 0.31306 0.93566 0.81615 0.0
H580 H 0.35561 0.97147 0.76181 0.0
H581 H 0.37393 0.90597 0.68938 0.0
C582 C 0.29969 0.83602 0.8693 0.0
C583 C 0.28674 0.83861 0.93263 0.0
C584 C 0.27968 0.86019 0.9397 0.0
C585 C 0.28723 0.88026 0.88688 0.0
C586 C 0.30187 0.87846 0.82737 0.0
C587 C 0.30766 0.85651 0.81768 0.0
C588 C 0.32874 0.86253 0.76013 0.0
C589 C 0.35463 0.86157 0.79266 0.0
C590 C 0.31488 0.84181 0.68947 0.0
C591 C 0.33598 0.89235 0.74455 0.0
C592 C 0.31945 0.90079 0.78126 0.0
C593 C 0.32538 0.92898 0.78477 0.0
C594 C 0.34949 0.94923 0.75342 0.0
C595 C 0.36739 0.94112 0.71994 0.0
C596 C 0.3598 0.91224 0.71238 0.0
H597 H 0.46584 0.31488 -0.00169 0.0
H598 H 0.55622 0.35164 0.01844 0.0
H599 H 0.56017 0.38262 0.91859 0.0
H600 H 0.45799 0.31886 0.79062 0.0
H601 H 0.43069 0.32757 0.80015 0.0
H602 H 0.43473 0.30525 0.86404 0.0
H603 H 0.43881 0.33957 0.97603 0.0
H604 H 0.43498 0.36204 0.91274 0.0
H605 H 0.46522 0.37664 0.97976 0.0
H606 H 0.55492 0.41549 0.83535 0.0
H607 H 0.54042 0.44494 0.7671 0.0
H608 H 0.45337 0.38541 0.79451 0.0
C609 C 0.48638 0.32886 0.97999 0.0
C610 C 0.51074 0.33074 0.01568 0.0
C611 C 0.53728 0.34952 0.99102 0.0
C612 C 0.53971 0.36727 0.93456 0.0
C613 C 0.51534 0.3656 0.90237 0.0
C614 C 0.4891 0.34647 0.92325 0.0
C615 C 0.46641 0.35038 0.88433 0.0
C616 C 0.44626 0.32394 0.83164 0.0
C617 C 0.45043 0.35759 0.94163 0.0
C618 C 0.48404 0.37548 0.84061 0.0
C619 C 0.51222 0.38386 0.85158 0.0
C620 C 0.53287 0.40854 0.82432 0.0
C621 C 0.52454 0.42516 0.78575 0.0
C622 C 0.49589 0.41698 0.77383 0.0
C623 C 0.47535 0.39151 0.80033 0.0
H624 H 0.18246 0.51635 -0.00353 0.0
H625 H 0.15243 0.43355 0.0767 0.0
H626 H 0.10902 0.41415 0.99187 0.0
H627 H 0.12286 0.51613 0.00775 0.0
H628 H 0.12409 0.53469 0.92679 0.0
H629 H 0.15609 0.54015 0.97348 0.0
H630 H 0.17008 0.52528 0.85045 0.0
H631 H 0.13845 0.5206 0.80225 0.0
H632 H 0.14584 0.49189 0.79817 0.0
H633 H 0.06548 0.40615 0.91426 0.0
H634 H 0.02673 0.41073 0.85255 0.0
H635 H 0.08455 0.50012 0.83635 0.0
C636 C 0.1675 0.49376 0.99242 0.0
C637 C 0.17103 0.47616 0.04081 0.0
C638 C 0.15034 0.44704 0.03797 0.0
C639 C 0.12559 0.43595 0.99033 0.0
C640 C 0.12188 0.45436 0.94653 0.0
C641 C 0.1425 0.48265 0.94671 0.0
C642 C 0.13184 0.49925 0.90529 0.0
C643 C 0.13384 0.52398 0.95642 0.0
C644 C 0.14748 0.50987 0.83485 0.0
C645 C 0.1017 0.47635 0.88508 0.0
C646 C 0.0964 0.45036 0.90707 0.0
C647 C 0.06952 0.42635 0.89616 0.0
C648 C 0.04764 0.42911 0.86174 0.0
C649 C 0.0528 0.45586 0.84145 0.0
C650 C 0.08013 0.47954 0.85269 0.0
H651 H 0.69455 0.16954 0.96469 0.0
H652 H 0.64898 0.21042 0.04136 0.0
H653 H 0.60526 0.17148 0.97271 0.0
H654 H 0.65465 0.1363 0.78088 0.0
H655 H 0.6569 0.10485 0.7925 0.0
H656 H 0.68452 0.1389 0.8339 0.0
H657 H 0.67808 0.1181 0.96269 0.0
H658 H 0.64952 0.08441 0.92266 0.0
H659 H 0.64432 0.10326 0.00021 0.0
H660 H 0.56549 0.12444 0.90393 0.0
H661 H 0.53531 0.07736 0.83321 0.0
H662 H 0.60804 0.06672 0.81983 0.0
C663 C 0.67577 0.17122 0.96347 0.0
C664 C 0.6753 0.19347 0.00603 0.0
C665 C 0.64987 0.194 0.00687 0.0
C666 C 0.62493 0.17175 0.96903 0.0
C667 C 0.62583 0.14907 0.9318 0.0
C668 C 0.65077 0.14893 0.92834 0.0
C669 C 0.64614 0.12107 0.89256 0.0
C670 C 0.66145 0.12555 0.82068 0.0
C671 C 0.65504 0.10583 0.94785 0.0
C672 C 0.61472 0.10546 0.87563 0.0
C673 C 0.60318 0.12178 0.89806 0.0
C674 C 0.57439 0.11158 0.88593 0.0
C675 C 0.55734 0.08465 0.84653 0.0
C676 C 0.56917 0.06815 0.82082 0.0
C677 C 0.59807 0.07849 0.83862 0.0
H678 H 0.56931 0.70463 0.94057 0.0
H679 H 0.50199 0.71051 0.82658 0.0
H680 H 0.49966 0.67776 0.72114 0.0
H681 H 0.60005 0.68762 0.76999 0.0
H682 H 0.60444 0.66223 0.82039 0.0
H683 H 0.60841 0.69391 0.86992 0.0
H684 H 0.57113 0.66269 0.95775 0.0
H685 H 0.56659 0.63107 0.90817 0.0
H686 H 0.53672 0.63576 0.91786 0.0
H687 H 0.49771 0.6369 0.64368 0.0
H688 H 0.49283 0.58987 0.60968 0.0
H689 H 0.55732 0.60716 0.78473 0.0
C690 C 0.55536 0.70031 0.89096 0.0
C691 C 0.53651 0.71058 0.88959 0.0
C692 C 0.5172 0.70345 0.82672 0.0
C693 C 0.51578 0.68486 0.76693 0.0
C694 C 0.53357 0.67352 0.772 0.0
C695 C 0.55307 0.68109 0.83283 0.0
C696 C 0.56489 0.66138 0.83533 0.0
C697 C 0.59631 0.67724 0.82314 0.0
C698 C 0.55947 0.64687 0.90904 0.0
C699 C 0.54786 0.64045 0.76915 0.0
C700 C 0.5308 0.64838 0.73118 0.0
C701 C 0.51138 0.63083 0.67207 0.0
C702 C 0.50872 0.6042 0.65315 0.0
C703 C 0.52473 0.59522 0.69504 0.0
C704 C 0.54506 0.61386 0.75187 0.0
H705 H 0.53463 0.17702 0.2715 0.0
H706 H 0.48148 0.19695 0.40095 0.0
H707 H 0.47729 0.16174 0.48925 0.0
H708 H 0.4953 0.10561 0.27557 0.0
H709 H 0.524 0.09862 0.28018 0.0
H710 H 0.52791 0.12938 0.23808 0.0
H711 H 0.57178 0.1622 0.32894 0.0
H712 H 0.56843 0.13142 0.37027 0.0
H713 H 0.56955 0.16008 0.42842 0.0
H714 H 0.47442 0.11922 0.55372 0.0
H715 H 0.47417 0.07556 0.58809 0.0
H716 H 0.52695 0.08311 0.40866 0.0
C717 C 0.52329 0.17493 0.32067 0.0
C718 C 0.50914 0.19022 0.33126 0.0
C719 C 0.49322 0.18604 0.39371 0.0
C720 C 0.49057 0.16592 0.44356 0.0
C721 C 0.50384 0.15017 0.42957 0.0
C722 C 0.52016 0.15478 0.36982 0.0
C723 C 0.52959 0.13316 0.36083 0.0
C724 C 0.51852 0.11567 0.28415 0.0
C725 C 0.56175 0.14758 0.37288 0.0
C726 C 0.51559 0.11518 0.4237 0.0
C727 C 0.50111 0.12534 0.46367 0.0
C728 C 0.48592 0.1113 0.52301 0.0
C729 C 0.48577 0.08645 0.54196 0.0
C730 C 0.50032 0.07569 0.50083 0.0
C731 C 0.51538 0.09048 0.44117 0.0
H732 H 0.36706 0.55231 0.30815 0.0
H733 H 0.2861 0.47676 0.3162 0.0
H734 H 0.30813 0.45651 0.39651 0.0
H735 H 0.40106 0.51805 0.27472 0.0
H736 H 0.43392 0.54149 0.32818 0.0
H737 H 0.41263 0.55532 0.29239 0.0
H738 H 0.41031 0.57528 0.42266 0.0
H739 H 0.43279 0.56339 0.46272 0.0
H740 H 0.39928 0.55265 0.49829 0.0
H741 H 0.3405 0.44115 0.45432 0.0
H742 H 0.37946 0.43481 0.50267 0.0
H743 H 0.43937 0.51964 0.44707 0.0
C744 C 0.35378 0.53235 0.33117 0.0
C745 C 0.32488 0.5163 0.30805 0.0
C746 C 0.30813 0.48962 0.33556 0.0
C747 C 0.32059 0.47783 0.3801 0.0
C748 C 0.34967 0.49316 0.39622 0.0
C749 C 0.36597 0.52017 0.37402 0.0
C750 C 0.39696 0.53077 0.3896 0.0
C751 C 0.412 0.53677 0.31692 0.0
C752 C 0.41064 0.55709 0.44669 0.0
C753 C 0.39567 0.50533 0.42261 0.0
C754 C 0.36828 0.4839 0.42638 0.0
C755 C 0.36202 0.45801 0.45281 0.0
C756 C 0.38433 0.45449 0.47935 0.0
C757 C 0.41256 0.47672 0.47882 0.0
C758 C 0.41812 0.50213 0.44813 0.0
H759 H 0.88948 0.34088 0.15934 0.0
H760 H 0.82376 0.30567 0.31098 0.0
H761 H 0.85748 0.33839 0.41528 0.0
H762 H 0.95109 0.35978 0.2951 0.0
H763 H 0.9724 0.39236 0.25328 0.0
H764 H 0.94534 0.36164 0.19648 0.0
H765 H 0.92348 0.39148 0.15289 0.0
H766 H 0.95017 0.42211 0.20995 0.0
H767 H 0.91365 0.40948 0.22193 0.0
H768 H 0.89628 0.38025 0.49723 0.0
H769 H 0.93552 0.42711 0.54832 0.0
H770 H 0.9742 0.43655 0.33887 0.0
C771 C 0.88232 0.33954 0.21493 0.0
C772 C 0.854 0.32085 0.22721 0.0
C773 C 0.84545 0.31963 0.30063 0.0
C774 C 0.86446 0.3382 0.36001 0.0
C775 C 0.89186 0.35763 0.34479 0.0
C776 C 0.90076 0.35821 0.27389 0.0
C777 C 0.92972 0.38345 0.26879 0.0
C778 C 0.95089 0.37371 0.25247 0.0
C779 C 0.9292 0.40275 0.20996 0.0
C780 C 0.93544 0.39771 0.34722 0.0
C781 C 0.91371 0.38222 0.39087 0.0
C782 C 0.9136 0.39225 0.46389 0.0
C783 C 0.93602 0.41891 0.49246 0.0
C784 C 0.95801 0.43546 0.44766 0.0
C785 C 0.95782 0.42437 0.37465 0.0
H786 H 0.57283 0.86039 0.28781 0.0
H787 H 0.4833 0.80937 0.23056 0.0
H788 H 0.47474 0.82966 0.34625 0.0
H789 H 0.57105 0.86499 0.50353 0.0
H790 H 0.59891 0.90155 0.51076 0.0
H791 H 0.59792 0.87651 0.43887 0.0
H792 H 0.59945 0.90927 0.33788 0.0
H793 H 0.60041 0.93421 0.40899 0.0
H794 H 0.57324 0.91984 0.33288 0.0
H795 H 0.47593 0.86255 0.44666 0.0
H796 H 0.48656 0.9073 0.51775 0.0
H797 H 0.57548 0.93894 0.51013 0.0
C798 C 0.55148 0.85253 0.30221 0.0
C799 C 0.52864 0.83291 0.25222 0.0
C800 C 0.50092 0.82396 0.26963 0.0
C801 C 0.49595 0.83527 0.3353 0.0
C802 C 0.51897 0.85557 0.38246 0.0
C803 C 0.54627 0.86408 0.36686 0.0
C804 C 0.56723 0.89011 0.41739 0.0
C805 C 0.58481 0.88284 0.47082 0.0
C806 C 0.58615 0.91479 0.37153 0.0
C807 C 0.54745 0.89633 0.45952 0.0
C808 C 0.51973 0.87548 0.44064 0.0
C809 C 0.4975 0.87852 0.4637 0.0
C810 C 0.50369 0.904 0.50378 0.0
C811 C 0.53178 0.92607 0.5199 0.0
C812 C 0.55392 0.92177 0.50064 0.0
H813 H 0.66355 0.50031 0.15034 0.0
H814 H 0.73593 0.58445 0.20424 0.0
H815 H 0.7088 0.59633 0.29034 0.0
H816 H 0.61621 0.52309 0.13192 0.0
H817 H 0.58762 0.4932 0.16932 0.0
H818 H 0.61416 0.48897 0.12557 0.0
H819 H 0.62476 0.47037 0.24534 0.0
H820 H 0.59768 0.47379 0.28896 0.0
H821 H 0.63282 0.49114 0.33408 0.0
H822 H 0.6711 0.6008 0.35861 0.0
H823 H 0.62773 0.5962 0.40705 0.0
H824 H 0.58011 0.51058 0.29705 0.0
C825 C 0.67401 0.52095 0.18207 0.0
C826 C 0.70194 0.54135 0.17083 0.0
C827 C 0.71477 0.56821 0.21295 0.0
C828 C 0.69938 0.57527 0.26142 0.0
C829 C 0.67124 0.55524 0.26709 0.0
C830 C 0.65884 0.52848 0.22908 0.0
C831 C 0.62771 0.51172 0.23788 0.0
C832 C 0.61043 0.5038 0.16166 0.0
C833 C 0.62032 0.48519 0.27905 0.0
C834 C 0.62431 0.53337 0.2856 0.0
C835 C 0.6496 0.55824 0.30289 0.0
C836 C 0.65124 0.58131 0.34574 0.0
C837 C 0.62648 0.57859 0.3726 0.0
C838 C 0.60039 0.55316 0.35544 0.0
C839 C 0.59954 0.53048 0.31081 0.0
H840 H 0.19309 0.68156 0.24409 0.0
H841 H 0.1887 0.75602 0.31733 0.0
H842 H 0.16403 0.73227 0.42656 0.0
H843 H 0.12719 0.63586 0.26783 0.0
H844 H 0.13149 0.60723 0.29808 0.0
H845 H 0.15656 0.63233 0.24156 0.0
H846 H 0.197 0.64424 0.34053 0.0
H847 H 0.17277 0.61928 0.39981 0.0
H848 H 0.19571 0.6557 0.43566 0.0
H849 H 0.13204 0.69729 0.51177 0.0
H850 H 0.09365 0.65455 0.55848 0.0
H851 H 0.11661 0.60172 0.42438 0.0
C852 C 0.18839 0.69337 0.28585 0.0
C853 C 0.19369 0.72092 0.27456 0.0
C854 C 0.18568 0.73527 0.32702 0.0
C855 C 0.1716 0.72187 0.38895 0.0
C856 C 0.16552 0.69405 0.39692 0.0
C857 C 0.17381 0.68002 0.34671 0.0
C858 C 0.1604 0.64879 0.35871 0.0
C859 C 0.14288 0.62997 0.28737 0.0
C860 C 0.1828 0.64157 0.38522 0.0
C861 C 0.14196 0.64695 0.42059 0.0
C862 C 0.14587 0.67341 0.44362 0.0
C863 C 0.12922 0.67658 0.49513 0.0
C864 C 0.10739 0.65209 0.52142 0.0
C865 C 0.10196 0.62466 0.49501 0.0
C866 C 0.1203 0.62232 0.4463 0.0
loop_
_geom_bond_atom_site_label_1
_geom_bond_atom_site_label_2
_geom_bond_distance
_geom_bond_site_symmetry_2
_ccdc_geom_bond_type
H0 C8 0.930 . S
H1 C11 0.930 . S
H2 C13 0.930 . S
H3 C14 0.970 . S
H4 C14 0.970 . S
H5 C16 0.930 . S
H6 C18 0.930 . S
H7 C20 0.930 . S
C8 H0 0.930 . S
C8 C9 1.382 . S
C8 C10 1.426 . S
C9 C8 1.382 . S
C9 C13 1.389 . S
C10 C8 1.426 . S
C10 C11 1.375 . S
C10 C14 1.532 . S
C11 H1 0.930 . S
C11 C10 1.375 . S
C11 C12 1.416 . S
C12 C11 1.416 . S
C12 C13 1.371 . S
C13 H2 0.930 . S
C13 C9 1.389 . S
C13 C12 1.371 . S
C14 H3 0.970 . S
C14 H4 0.970 . S
C14 C10 1.532 . S
C14 C15 1.499 . S
C15 C14 1.499 . S
C15 C16 1.370 . S
C15 C20 1.415 . S
C16 H5 0.930 . S
C16 C15 1.370 . S
C16 C17 1.407 . S
C17 C16 1.407 . S
C17 C18 1.365 . S
C18 H6 0.930 . S
C18 C17 1.365 . S
C18 C19 1.393 . S
C19 C18 1.393 . S
C19 C20 1.387 . S
C20 H7 0.930 . S
C20 C15 1.415 . S
C20 C19 1.387 . S
H21 C29 0.930 1_556 S
H22 C32 0.930 . S
H23 C34 0.930 . S
H24 C35 0.970 . S
H25 C35 0.970 . S
H26 C37 0.930 1_556 S
H27 C39 0.930 . S
H28 C41 0.930 . S
C29 H21 0.930 1_554 S
C29 C30 1.382 . S
C29 C31 1.426 . S
C30 C29 1.382 . S
C30 C34 1.389 . S
C31 C29 1.426 . S
C31 C32 1.375 . S
C31 C35 1.532 . S
C32 H22 0.930 . S
C32 C31 1.375 . S
C32 C33 1.416 . S
C33 C32 1.416 . S
C33 C34 1.371 . S
C34 H23 0.930 . S
C34 C30 1.389 . S
C34 C33 1.371 . S
C35 H24 0.970 . S
C35 H25 0.970 . S
C35 C31 1.532 . S
C35 C36 1.499 . S
C36 C35 1.499 . S
C36 C37 1.370 . S
C36 C41 1.415 . S
C37 H26 0.930 1_554 S
C37 C36 1.370 . S
C37 C38 1.407 . S
C38 C37 1.407 . S
C38 C39 1.365 . S
C39 H27 0.930 . S
C39 C38 1.365 . S
C39 C40 1.393 . S
C40 C39 1.393 . S
C40 C41 1.387 . S
C41 H28 0.930 . S
C41 C36 1.415 . S
C41 C40 1.387 . S
H42 C50 0.930 . S
H43 C53 0.930 . S
H44 C55 0.930 . S
H45 C56 0.970 . S
H46 C56 0.970 . S
H47 C58 0.930 . S
H48 C60 0.930 . S
H49 C62 0.930 . S
C50 H42 0.930 . S
C50 C51 1.382 . S
C50 C52 1.426 1_556 S
C51 C50 1.382 . S
C51 C55 1.389 1_556 S
C52 C50 1.426 1_554 S
C52 C53 1.375 . S
C52 C56 1.532 . S
C53 H43 0.930 . S
C53 C52 1.375 . S
C53 C54 1.416 . S
C54 C53 1.416 . S
C54 C55 1.371 . S
C55 H44 0.930 . S
C55 C51 1.389 1_554 S
C55 C54 1.371 . S
C56 H45 0.970 . S
C56 H46 0.970 . S
C56 C52 1.532 . S
C56 C57 1.499 . S
C57 C56 1.499 . S
C57 C58 1.370 1_554 S
C57 C62 1.415 . S
C58 H47 0.930 . S
C58 C57 1.370 1_556 S
C58 C59 1.407 . S
C59 C58 1.407 . S
C59 C60 1.365 1_556 S
C60 H48 0.930 . S
C60 C59 1.365 1_554 S
C60 C61 1.393 . S
C61 C60 1.393 . S
C61 C62 1.387 . S
C62 H49 0.930 . S
C62 C57 1.415 . S
C62 C61 1.387 . S
H63 C71 0.930 . S
H64 C74 0.930 . S
H65 C76 0.930 . S
H66 C77 0.970 1_556 S
H67 C77 0.970 . S
H68 C79 0.930 . S
H69 C81 0.930 . S
H70 C83 0.930 . S
C71 H63 0.930 . S
C71 C72 1.382 . S
C71 C73 1.426 1_556 S
C72 C71 1.382 . S
C72 C76 1.389 1_556 S
C73 C71 1.426 1_554 S
C73 C74 1.375 . S
C73 C77 1.532 . S
C74 H64 0.930 . S
C74 C73 1.375 . S
C74 C75 1.416 . S
C75 C74 1.416 . S
C75 C76 1.371 . S
C76 H65 0.930 . S
C76 C72 1.389 1_554 S
C76 C75 1.371 . S
C77 H66 0.970 1_554 S
C77 H67 0.970 . S
C77 C73 1.532 . S
C77 C78 1.499 . S
C78 C77 1.499 . S
C78 C79 1.370 1_554 S
C78 C83 1.415 . S
C79 H68 0.930 . S
C79 C78 1.370 1_556 S
C79 C80 1.407 . S
C80 C79 1.407 . S
C80 C81 1.365 1_556 S
C81 H69 0.930 . S
C81 C80 1.365 1_554 S
C81 C82 1.393 . S
C82 C81 1.393 . S
C82 C83 1.387 . S
C83 H70 0.930 . S
C83 C78 1.415 . S
C83 C82 1.387 . S
H84 C92 0.930 . S
H85 C95 0.930 . S
H86 C97 0.930 . S
H87 C98 0.970 . S
H88 C98 0.970 . S
H89 C100 0.930 . S
H90 C102 0.930 . S
H91 C104 0.930 . S
C92 H84 0.930 . S
C92 C93 1.382 . S
C92 C94 1.426 . S
C93 C92 1.382 . S
C93 C97 1.389 . S
C94 C92 1.426 . S
C94 C95 1.375 . S
C94 C98 1.532 . S
C95 H85 0.930 . S
C95 C94 1.375 . S
C95 C96 1.416 . S
C96 C95 1.416 . S
C96 C97 1.371 . S
C97 H86 0.930 . S
C97 C93 1.389 . S
C97 C96 1.371 . S
C98 H87 0.970 . S
C98 H88 0.970 . S
C98 C94 1.532 . S
C98 C99 1.499 . S
C99 C98 1.499 . S
C99 C100 1.370 . S
C99 C104 1.415 . S
C100 H89 0.930 . S
C100 C99 1.370 . S
C100 C101 1.407 . S
C101 C100 1.407 . S
C101 C102 1.365 . S
C102 H90 0.930 . S
C102 C101 1.365 . S
C102 C103 1.393 . S
C103 C102 1.393 . S
C103 C104 1.387 . S
C104 H91 0.930 . S
C104 C99 1.415 . S
C104 C103 1.387 . S
H105 C113 0.930 . S
H106 C116 0.930 . S
H107 C118 0.930 . S
H108 C119 0.970 . S
H109 C119 0.970 . S
H110 C121 0.930 . S
H111 C123 0.930 . S
H112 C125 0.930 . S
C113 H105 0.930 . S
C113 C114 1.382 . S
C113 C115 1.426 . S
C114 C113 1.382 . S
C114 C118 1.389 . S
C115 C113 1.426 . S
C115 C116 1.375 . S
C115 C119 1.532 . S
C116 H106 0.930 . S
C116 C115 1.375 . S
C116 C117 1.416 . S
C117 C116 1.416 . S
C117 C118 1.371 . S
C118 H107 0.930 . S
C118 C114 1.389 . S
C118 C117 1.371 . S
C119 H108 0.970 . S
C119 H109 0.970 . S
C119 C115 1.532 . S
C119 C120 1.499 . S
C120 C119 1.499 . S
C120 C121 1.370 . S
C120 C125 1.415 . S
C121 H110 0.930 . S
C121 C120 1.370 . S
C121 C122 1.407 . S
C122 C121 1.407 . S
C122 C123 1.365 . S
C123 H111 0.930 . S
C123 C122 1.365 . S
C123 C124 1.393 . S
C124 C123 1.393 . S
C124 C125 1.387 . S
C125 H112 0.930 . S
C125 C120 1.415 . S
C125 C124 1.387 . S
C126 O153 1.312 . S
C126 O154 1.208 . S
C127 O148 1.331 . S
C127 O151 1.244 . S
C128 O150 1.264 . S
C128 O152 1.273 . S
Mg129 O131 1.936 1_455 S
Mg129 O138 2.081 1_455 S
Mg129 O140 2.023 . S
Mg129 O144 2.031 1_455 S
Mg129 O153 2.291 . S
Mg130 O131 1.963 . S
Mg130 O141 1.942 . S
Mg130 O142 1.955 1_655 S
Mg130 O149 1.986 . S
O131 Mg129 1.936 1_655 S
O131 Mg130 1.963 . S
O131 Mg132 1.915 1_655 S
Mg132 O131 1.915 1_455 S
Mg132 O133 1.915 . S
Mg132 O137 2.013 . S
Mg132 O143 2.114 1_455 S
Mg132 O147 2.013 1_455 S
Mg132 O153 2.114 . S
O133 Mg132 1.915 . S
O133 Mg134 1.936 . S
O133 Mg135 1.963 . S
Mg134 O133 1.936 . S
Mg134 O143 2.291 1_455 S
Mg134 O148 2.081 . S
Mg134 O150 2.023 1_455 S
Mg134 O154 2.031 . S
Mg135 O133 1.963 . S
Mg135 O139 1.986 . S
Mg135 O151 1.942 . S
Mg135 O152 1.955 1_455 S
C136 O147 1.191 . S
C136 O149 1.307 . S
O137 Mg132 2.013 . S
O137 C156 1.191 . S
O138 Mg129 2.081 1_655 S
O138 C146 1.331 . S
O139 Mg135 1.986 . S
O139 C156 1.307 . S
O140 Mg129 2.023 . S
O140 C155 1.264 . S
O141 Mg130 1.942 . S
O141 C146 1.244 . S
O142 Mg130 1.955 1_455 S
O142 C155 1.273 . S
O143 Mg132 2.114 1_655 S
O143 Mg134 2.291 1_655 S
O143 C145 1.312 . S
O144 Mg129 2.031 1_655 S
O144 C145 1.208 . S
C145 O143 1.312 . S
C145 O144 1.208 . S
C146 O138 1.331 . S
C146 O141 1.244 . S
O147 Mg132 2.013 1_655 S
O147 C136 1.191 . S
O148 C127 1.331 . S
O148 Mg134 2.081 . S
O149 Mg130 1.986 . S
O149 C136 1.307 . S
O150 C128 1.264 . S
O150 Mg134 2.023 1_655 S
O151 C127 1.244 . S
O151 Mg135 1.942 . S
O152 C128 1.273 . S
O152 Mg135 1.955 1_655 S
O153 C126 1.312 . S
O153 Mg129 2.291 . S
O153 Mg132 2.114 . S
O154 C126 1.208 . S
O154 Mg134 2.031 . S
C155 O140 1.264 . S
C155 O142 1.273 . S
C156 O137 1.191 . S
C156 O139 1.307 . S
C157 O184 1.312 . S
C157 O185 1.208 . S
C158 O179 1.331 . S
C158 O182 1.244 . S
C159 O181 1.264 . S
C159 O183 1.273 . S
Mg160 O162 1.965 . S
Mg160 O169 2.081 1_545 S
Mg160 O171 2.023 . S
Mg160 O175 2.031 1_545 S
Mg160 O184 2.291 . S
Mg161 O162 1.957 . S
Mg161 O172 1.942 1_545 S
Mg161 O173 1.955 . S
Mg161 O180 1.986 1_545 S
O162 Mg160 1.965 . S
O162 Mg161 1.957 . S
O162 Mg163 1.913 . S
Mg163 O162 1.913 . S
Mg163 O164 1.915 . S
Mg163 O168 2.013 . S
Mg163 O174 2.114 1_545 S
Mg163 O178 2.013 1_545 S
Mg163 O184 2.114 . S
O164 Mg163 1.915 . S
O164 Mg165 1.936 . S
O164 Mg166 1.963 . S
Mg165 O164 1.936 . S
Mg165 O174 2.291 1_545 S
Mg165 O179 2.081 . S
Mg165 O181 2.023 1_545 S
Mg165 O185 2.031 . S
Mg166 O164 1.963 . S
Mg166 O170 1.986 . S
Mg166 O182 1.942 . S
Mg166 O183 1.955 1_545 S
C167 O178 1.191 . S
C167 O180 1.307 . S
O168 Mg163 2.013 . S
O168 C187 1.191 . S
O169 Mg160 2.081 1_565 S
O169 C177 1.331 . S
O170 Mg166 1.986 . S
O170 C187 1.307 . S
O171 Mg160 2.023 . S
O171 C186 1.264 . S
O172 Mg161 1.942 1_565 S
O172 C177 1.244 . S
O173 Mg161 1.955 . S
O173 C186 1.273 . S
O174 Mg163 2.114 1_565 S
O174 Mg165 2.291 1_565 S
O174 C176 1.312 . S
O175 Mg160 2.031 1_565 S
O175 C176 1.208 . S
C176 O174 1.312 . S
C176 O175 1.208 . S
C177 O169 1.331 . S
C177 O172 1.244 . S
O178 Mg163 2.013 1_565 S
O178 C167 1.191 . S
O179 C158 1.331 . S
O179 Mg165 2.081 . S
O180 Mg161 1.986 1_565 S
O180 C167 1.307 . S
O181 C159 1.264 . S
O181 Mg165 2.023 1_565 S
O182 C158 1.244 . S
O182 Mg166 1.942 . S
O183 C159 1.273 . S
O183 Mg166 1.955 1_565 S
O184 C157 1.312 . S
O184 Mg160 2.291 . S
O184 Mg163 2.114 . S
O185 C157 1.208 . S
O185 Mg165 2.031 . S
C186 O171 1.264 . S
C186 O173 1.273 . S
C187 O168 1.191 . S
C187 O170 1.307 . S
C188 O215 1.312 . S
C188 O216 1.208 . S
C189 O210 1.331 . S
C189 O213 1.244 . S
C190 O212 1.264 . S
C190 O214 1.273 . S
Mg191 O193 1.936 . S
Mg191 O200 2.081 . S
Mg191 O202 2.023 . S
Mg191 O206 2.031 . S
Mg191 O215 2.291 . S
Mg192 O193 1.963 . S
Mg192 O203 1.942 . S
Mg192 O204 1.955 . S
Mg192 O211 1.986 . S
O193 Mg191 1.936 . S
O193 Mg192 1.963 . S
O193 Mg194 1.915 . S
Mg194 O193 1.915 . S
Mg194 O195 1.915 . S
Mg194 O199 2.013 . S
Mg194 O205 2.114 . S
Mg194 O209 2.013 . S
Mg194 O215 2.114 . S
O195 Mg194 1.915 . S
O195 Mg196 1.936 . S
O195 Mg197 1.963 . S
Mg196 O195 1.936 . S
Mg196 O205 2.291 . S
Mg196 O210 2.081 . S
Mg196 O212 2.023 . S
Mg196 O216 2.031 . S
Mg197 O195 1.963 . S
Mg197 O201 1.986 . S
Mg197 O213 1.942 . S
Mg197 O214 1.955 . S
C198 O209 1.191 . S
C198 O211 1.307 . S
O199 Mg194 2.013 . S
O199 C218 1.191 . S
O200 Mg191 2.081 . S
O200 C208 1.331 . S
O201 Mg197 1.986 . S
O201 C218 1.307 . S
O202 Mg191 2.023 . S
O202 C217 1.264 . S
O203 Mg192 1.942 . S
O203 C208 1.244 . S
O204 Mg192 1.955 . S
O204 C217 1.273 . S
O205 Mg194 2.114 . S
O205 Mg196 2.291 . S
O205 C207 1.312 . S
O206 Mg191 2.031 . S
O206 C207 1.208 . S
C207 O205 1.312 . S
C207 O206 1.208 . S
C208 O200 1.331 . S
C208 O203 1.244 . S
O209 Mg194 2.013 . S
O209 C198 1.191 . S
O210 C189 1.331 . S
O210 Mg196 2.081 . S
O211 Mg192 1.986 . S
O211 C198 1.307 . S
O212 C190 1.264 . S
O212 Mg196 2.023 . S
O213 C189 1.244 . S
O213 Mg197 1.942 . S
O214 C190 1.273 . S
O214 Mg197 1.955 . S
O215 C188 1.312 . S
O215 Mg191 2.291 . S
O215 Mg194 2.114 . S
O216 C188 1.208 . S
O216 Mg196 2.031 . S
C217 O202 1.264 . S
C217 O204 1.273 . S
C218 O199 1.191 . S
C218 O201 1.307 . S
H219 C231 0.930 . S
H220 C233 0.930 . S
H221 C234 0.930 . S
H222 C238 0.959 . S
H223 C238 0.959 . S
H224 C238 0.961 . S
H225 C239 0.960 . S
H226 C239 0.961 . S
H227 C239 0.959 . S
H228 C242 0.929 . S
H229 C243 0.931 . S
H230 C245 0.930 . S
C231 H219 0.930 . S
C231 C232 1.399 . S
C231 C236 1.399 . S
C232 C231 1.399 . S
C232 C233 1.376 . S
C233 H220 0.930 . S
C233 C232 1.376 . S
C233 C234 1.388 . S
C234 H221 0.930 . S
C234 C233 1.388 . S
C234 C235 1.390 . S
C235 C234 1.390 . S
C235 C236 1.394 . S
C235 C241 1.465 . S
C236 C231 1.399 . S
C236 C235 1.394 . S
C236 C237 1.516 . S
C237 C236 1.516 . S
C237 C238 1.502 . S
C237 C239 1.561 . S
C237 C240 1.526 . S
C238 H222 0.959 . S
C238 H223 0.959 . S
C238 H224 0.961 . S
C238 C237 1.502 . S
C239 H225 0.960 . S
C239 H226 0.961 . S
C239 H227 0.959 . S
C239 C237 1.561 . S
C240 C237 1.526 . S
C240 C241 1.396 . S
C240 C245 1.390 . S
C241 C235 1.465 . S
C241 C240 1.396 . S
C241 C242 1.399 . S
C242 H228 0.929 . S
C242 C241 1.399 . S
C242 C243 1.385 . S
C243 H229 0.931 . S
C243 C242 1.385 . S
C243 C244 1.389 . S
C244 C243 1.389 . S
C244 C245 1.387 . S
C245 H230 0.930 . S
C245 C240 1.390 . S
C245 C244 1.387 . S
H246 C258 0.930 . S
H247 C260 0.930 . S
H248 C261 0.930 . S
H249 C265 0.959 . S
H250 C265 0.959 . S
H251 C265 0.961 . S
H252 C266 0.960 . S
H253 C266 0.961 . S
H254 C266 0.959 . S
H255 C269 0.929 . S
H256 C270 0.931 . S
H257 C272 0.930 . S
C258 H246 0.930 . S
C258 C259 1.399 . S
C258 C263 1.399 . S
C259 C258 1.399 . S
C259 C260 1.376 . S
C260 H247 0.930 . S
C260 C259 1.376 . S
C260 C261 1.388 . S
C261 H248 0.930 . S
C261 C260 1.388 . S
C261 C262 1.390 . S
C262 C261 1.390 . S
C262 C263 1.394 . S
C262 C268 1.465 . S
C263 C258 1.399 . S
C263 C262 1.394 . S
C263 C264 1.516 . S
C264 C263 1.516 . S
C264 C265 1.502 . S
C264 C266 1.561 . S
C264 C267 1.526 . S
C265 H249 0.959 . S
C265 H250 0.959 . S
C265 H251 0.961 . S
C265 C264 1.502 . S
C266 H252 0.960 . S
C266 H253 0.961 . S
C266 H254 0.959 . S
C266 C264 1.561 . S
C267 C264 1.526 . S
C267 C268 1.396 . S
C267 C272 1.390 . S
C268 C262 1.465 . S
C268 C267 1.396 . S
C268 C269 1.399 . S
C269 H255 0.929 . S
C269 C268 1.399 . S
C269 C270 1.385 . S
C270 H256 0.931 . S
C270 C269 1.385 . S
C270 C271 1.389 . S
C271 C270 1.389 . S
C271 C272 1.387 . S
C272 H257 0.930 . S
C272 C267 1.390 . S
C272 C271 1.387 . S
H273 C285 0.930 . S
H274 C287 0.930 . S
H275 C288 0.930 . S
H276 C292 0.959 . S
H277 C292 0.959 . S
H278 C292 0.961 . S
H279 C293 0.960 . S
H280 C293 0.961 . S
H281 C293 0.959 . S
H282 C296 0.929 . S
H283 C297 0.931 . S
H284 C299 0.930 . S
C285 H273 0.930 . S
C285 C286 1.399 . S
C285 C290 1.399 . S
C286 C285 1.399 . S
C286 C287 1.376 . S
C287 H274 0.930 . S
C287 C286 1.376 . S
C287 C288 1.388 . S
C288 H275 0.930 . S
C288 C287 1.388 . S
C288 C289 1.390 . S
C289 C288 1.390 . S
C289 C290 1.394 . S
C289 C295 1.465 . S
C290 C285 1.399 . S
C290 C289 1.394 . S
C290 C291 1.516 . S
C291 C290 1.516 . S
C291 C292 1.502 . S
C291 C293 1.561 . S
C291 C294 1.526 . S
C292 H276 0.959 . S
C292 H277 0.959 . S
C292 H278 0.961 . S
C292 C291 1.502 . S
C293 H279 0.960 . S
C293 H280 0.961 . S
C293 H281 0.959 . S
C293 C291 1.561 . S
C294 C291 1.526 . S
C294 C295 1.396 . S
C294 C299 1.390 . S
C295 C289 1.465 . S
C295 C294 1.396 . S
C295 C296 1.399 . S
C296 H282 0.929 . S
C296 C295 1.399 . S
C296 C297 1.385 . S
C297 H283 0.931 . S
C297 C296 1.385 . S
C297 C298 1.389 . S
C298 C297 1.389 . S
C298 C299 1.387 . S
C299 H284 0.930 . S
C299 C294 1.390 . S
C299 C298 1.387 . S
H300 C312 0.930 . S
H301 C314 0.930 . S
H302 C315 0.930 . S
H303 C319 0.959 . S
H304 C319 0.959 . S
H305 C319 0.961 . S
H306 C320 0.960 . S
H307 C320 0.961 . S
H308 C320 0.959 . S
H309 C323 0.929 . S
H310 C324 0.931 . S
H311 C326 0.930 . S
C312 H300 0.930 . S
C312 C313 1.399 . S
C312 C317 1.399 . S
C313 C312 1.399 . S
C313 C314 1.376 . S
C314 H301 0.930 . S
C314 C313 1.376 . S
C314 C315 1.388 . S
C315 H302 0.930 . S
C315 C314 1.388 . S
C315 C316 1.390 . S
C316 C315 1.390 . S
C316 C317 1.394 . S
C316 C322 1.465 . S
C317 C312 1.399 . S
C317 C316 1.394 . S
C317 C318 1.516 . S
C318 C317 1.516 . S
C318 C319 1.502 . S
C318 C320 1.561 . S
C318 C321 1.526 . S
C319 H303 0.959 . S
C319 H304 0.959 . S
C319 H305 0.961 . S
C319 C318 1.502 . S
C320 H306 0.960 . S
C320 H307 0.961 . S
C320 H308 0.959 . S
C320 C318 1.561 . S
C321 C318 1.526 . S
C321 C322 1.396 . S
C321 C326 1.390 . S
C322 C316 1.465 . S
C322 C321 1.396 . S
C322 C323 1.399 . S
C323 H309 0.929 . S
C323 C322 1.399 . S
C323 C324 1.385 . S
C324 H310 0.931 . S
C324 C323 1.385 . S
C324 C325 1.389 . S
C325 C324 1.389 . S
C325 C326 1.387 . S
C326 H311 0.930 . S
C326 C321 1.390 . S
C326 C325 1.387 . S
H327 C339 0.930 . S
H328 C341 0.930 . S
H329 C342 0.930 . S
H330 C346 0.959 . S
H331 C346 0.959 . S
H332 C346 0.961 . S
H333 C347 0.960 . S
H334 C347 0.961 . S
H335 C347 0.959 . S
H336 C350 0.929 . S
H337 C351 0.931 . S
H338 C353 0.930 . S
C339 H327 0.930 . S
C339 C340 1.399 . S
C339 C344 1.399 . S
C340 C339 1.399 . S
C340 C341 1.376 . S
C341 H328 0.930 . S
C341 C340 1.376 . S
C341 C342 1.388 . S
C342 H329 0.930 . S
C342 C341 1.388 . S
C342 C343 1.390 . S
C343 C342 1.390 . S
C343 C344 1.394 . S
C343 C349 1.465 . S
C344 C339 1.399 . S
C344 C343 1.394 . S
C344 C345 1.516 . S
C345 C344 1.516 . S
C345 C346 1.502 . S
C345 C347 1.561 . S
C345 C348 1.526 . S
C346 H330 0.959 . S
C346 H331 0.959 . S
C346 H332 0.961 . S
C346 C345 1.502 . S
C347 H333 0.960 . S
C347 H334 0.961 . S
C347 H335 0.959 . S
C347 C345 1.561 . S
C348 C345 1.526 . S
C348 C349 1.396 . S
C348 C353 1.390 . S
C349 C343 1.465 . S
C349 C348 1.396 . S
C349 C350 1.399 . S
C350 H336 0.929 . S
C350 C349 1.399 . S
C350 C351 1.385 . S
C351 H337 0.931 . S
C351 C350 1.385 . S
C351 C352 1.389 . S
C352 C351 1.389 . S
C352 C353 1.387 . S
C353 H338 0.930 . S
C353 C348 1.390 . S
C353 C352 1.387 . S
H354 C366 0.930 . S
H355 C368 0.930 . S
H356 C369 0.930 . S
H357 C373 0.959 . S
H358 C373 0.959 . S
H359 C373 0.961 . S
H360 C374 0.960 . S
H361 C374 0.961 . S
H362 C374 0.959 . S
H363 C377 0.929 . S
H364 C378 0.931 . S
H365 C380 0.930 . S
C366 H354 0.930 . S
C366 C367 1.399 . S
C366 C371 1.399 . S
C367 C366 1.399 . S
C367 C368 1.376 . S
C368 H355 0.930 . S
C368 C367 1.376 . S
C368 C369 1.388 . S
C369 H356 0.930 . S
C369 C368 1.388 . S
C369 C370 1.390 . S
C370 C369 1.390 . S
C370 C371 1.394 . S
C370 C376 1.465 . S
C371 C366 1.399 . S
C371 C370 1.394 . S
C371 C372 1.516 . S
C372 C371 1.516 . S
C372 C373 1.502 . S
C372 C374 1.561 . S
C372 C375 1.526 . S
C373 H357 0.959 . S
C373 H358 0.959 . S
C373 H359 0.961 . S
C373 C372 1.502 . S
C374 H360 0.960 . S
C374 H361 0.961 . S
C374 H362 0.959 . S
C374 C372 1.561 . S
C375 C372 1.526 . S
C375 C376 1.396 . S
C375 C380 1.390 . S
C376 C370 1.465 . S
C376 C375 1.396 . S
C376 C377 1.399 . S
C377 H363 0.929 . S
C377 C376 1.399 . S
C377 C378 1.385 . S
C378 H364 0.931 . S
C378 C377 1.385 . S
C378 C379 1.389 . S
C379 C378 1.389 . S
C379 C380 1.387 . S
C380 H365 0.930 . S
C380 C375 1.390 . S
C380 C379 1.387 . S
H381 C393 0.930 . S
H382 C395 0.930 . S
H383 C396 0.930 . S
H384 C400 0.959 . S
H385 C400 0.959 . S
H386 C400 0.961 . S
H387 C401 0.960 . S
H388 C401 0.961 . S
H389 C401 0.959 . S
H390 C404 0.929 . S
H391 C405 0.931 . S
H392 C407 0.930 . S
C393 H381 0.930 . S
C393 C394 1.399 . S
C393 C398 1.399 . S
C394 C393 1.399 . S
C394 C395 1.376 . S
C395 H382 0.930 . S
C395 C394 1.376 . S
C395 C396 1.388 . S
C396 H383 0.930 . S
C396 C395 1.388 . S
C396 C397 1.390 . S
C397 C396 1.390 . S
C397 C398 1.394 . S
C397 C403 1.465 . S
C398 C393 1.399 . S
C398 C397 1.394 . S
C398 C399 1.516 . S
C399 C398 1.516 . S
C399 C400 1.502 . S
C399 C401 1.561 . S
C399 C402 1.526 . S
C400 H384 0.959 . S
C400 H385 0.959 . S
C400 H386 0.961 . S
C400 C399 1.502 . S
C401 H387 0.960 . S
C401 H388 0.961 . S
C401 H389 0.959 . S
C401 C399 1.561 . S
C402 C399 1.526 . S
C402 C403 1.396 . S
C402 C407 1.390 . S
C403 C397 1.465 . S
C403 C402 1.396 . S
C403 C404 1.399 . S
C404 H390 0.929 . S
C404 C403 1.399 . S
C404 C405 1.385 . S
C405 H391 0.931 . S
C405 C404 1.385 . S
C405 C406 1.389 . S
C406 C405 1.389 . S
C406 C407 1.387 . S
C407 H392 0.930 . S
C407 C402 1.390 . S
C407 C406 1.387 . S
H408 C420 0.930 . S
H409 C422 0.930 . S
H410 C423 0.930 . S
H411 C427 0.959 . S
H412 C427 0.959 . S
H413 C427 0.961 . S
H414 C428 0.960 . S
H415 C428 0.961 . S
H416 C428 0.959 . S
H417 C431 0.929 . S
H418 C432 0.931 . S
H419 C434 0.930 . S
C420 H408 0.930 . S
C420 C421 1.399 . S
C420 C425 1.399 . S
C421 C420 1.399 . S
C421 C422 1.376 . S
C422 H409 0.930 . S
C422 C421 1.376 . S
C422 C423 1.388 . S
C423 H410 0.930 . S
C423 C422 1.388 . S
C423 C424 1.390 . S
C424 C423 1.390 . S
C424 C425 1.394 . S
C424 C430 1.465 . S
C425 C420 1.399 . S
C425 C424 1.394 . S
C425 C426 1.516 . S
C426 C425 1.516 . S
C426 C427 1.502 . S
C426 C428 1.561 . S
C426 C429 1.526 . S
C427 H411 0.959 . S
C427 H412 0.959 . S
C427 H413 0.961 . S
C427 C426 1.502 . S
C428 H414 0.960 . S
C428 H415 0.961 . S
C428 H416 0.959 . S
C428 C426 1.561 . S
C429 C426 1.526 . S
C429 C430 1.396 . S
C429 C434 1.390 . S
C430 C424 1.465 . S
C430 C429 1.396 . S
C430 C431 1.399 . S
C431 H417 0.929 . S
C431 C430 1.399 . S
C431 C432 1.385 . S
C432 H418 0.931 . S
C432 C431 1.385 . S
C432 C433 1.389 . S
C433 C432 1.389 . S
C433 C434 1.387 . S
C434 H419 0.930 . S
C434 C429 1.390 . S
C434 C433 1.387 . S
H435 C447 0.930 1_554 S
H436 C449 0.930 . S
H437 C450 0.930 . S
H438 C454 0.959 . S
H439 C454 0.959 . S
H440 C454 0.961 1_554 S
H441 C455 0.960 1_554 S
H442 C455 0.961 . S
H443 C455 0.959 . S
H444 C458 0.929 . S
H445 C459 0.931 . S
H446 C461 0.930 . S
C447 H435 0.930 1_556 S
C447 C448 1.399 . S
C447 C452 1.399 . S
C448 C447 1.399 . S
C448 C449 1.376 . S
C449 H436 0.930 . S
C449 C448 1.376 . S
C449 C450 1.388 . S
C450 H437 0.930 . S
C450 C449 1.388 . S
C450 C451 1.390 . S
C451 C450 1.390 . S
C451 C452 1.394 . S
C451 C457 1.465 . S
C452 C447 1.399 . S
C452 C451 1.394 . S
C452 C453 1.516 . S
C453 C452 1.516 . S
C453 C454 1.502 . S
C453 C455 1.561 . S
C453 C456 1.526 . S
C454 H438 0.959 . S
C454 H439 0.959 . S
C454 H440 0.961 1_556 S
C454 C453 1.502 . S
C455 H441 0.960 1_556 S
C455 H442 0.961 . S
C455 H443 0.959 . S
C455 C453 1.561 . S
C456 C453 1.526 . S
C456 C457 1.396 . S
C456 C461 1.390 . S
C457 C451 1.465 . S
C457 C456 1.396 . S
C457 C458 1.399 . S
C458 H444 0.929 . S
C458 C457 1.399 . S
C458 C459 1.385 . S
C459 H445 0.931 . S
C459 C458 1.385 . S
C459 C460 1.389 . S
C460 C459 1.389 . S
C460 C461 1.387 . S
C461 H446 0.930 . S
C461 C456 1.390 . S
C461 C460 1.387 . S
H462 C474 0.930 . S
H463 C476 0.930 . S
H464 C477 0.930 . S
H465 C481 0.959 . S
H466 C481 0.959 . S
H467 C481 0.961 . S
H468 C482 0.960 . S
H469 C482 0.961 . S
H470 C482 0.959 . S
H471 C485 0.929 . S
H472 C486 0.931 . S
H473 C488 0.930 . S
C474 H462 0.930 . S
C474 C475 1.399 1_556 S
C474 C479 1.399 . S
C475 C474 1.399 1_554 S
C475 C476 1.376 . S
C476 H463 0.930 . S
C476 C475 1.376 . S
C476 C477 1.388 . S
C477 H464 0.930 . S
C477 C476 1.388 . S
C477 C478 1.390 1_554 S
C478 C477 1.390 1_556 S
C478 C479 1.394 . S
C478 C484 1.465 . S
C479 C474 1.399 . S
C479 C478 1.394 . S
C479 C480 1.516 . S
C480 C479 1.516 . S
C480 C481 1.502 . S
C480 C482 1.561 . S
C480 C483 1.526 . S
C481 H465 0.959 . S
C481 H466 0.959 . S
C481 H467 0.961 . S
C481 C480 1.502 . S
C482 H468 0.960 . S
C482 H469 0.961 . S
C482 H470 0.959 . S
C482 C480 1.561 . S
C483 C480 1.526 . S
C483 C484 1.396 . S
C483 C488 1.390 . S
C484 C478 1.465 . S
C484 C483 1.396 . S
C484 C485 1.399 . S
C485 H471 0.929 . S
C485 C484 1.399 . S
C485 C486 1.385 . S
C486 H472 0.931 . S
C486 C485 1.385 . S
C486 C487 1.389 . S
C487 C486 1.389 . S
C487 C488 1.387 . S
C488 H473 0.930 . S
C488 C483 1.390 . S
C488 C487 1.387 . S
H489 C501 0.930 . S
H490 C503 0.930 . S
H491 C504 0.930 . S
H492 C508 0.959 . S
H493 C508 0.959 . S
H494 C508 0.961 . S
H495 C509 0.960 . S
H496 C509 0.961 . S
H497 C509 0.959 . S
H498 C512 0.929 . S
H499 C513 0.931 . S
H500 C515 0.930 . S
C501 H489 0.930 . S
C501 C502 1.399 . S
C501 C506 1.399 . S
C502 C501 1.399 . S
C502 C503 1.376 . S
C503 H490 0.930 . S
C503 C502 1.376 . S
C503 C504 1.388 . S
C504 H491 0.930 . S
C504 C503 1.388 . S
C504 C505 1.390 1_554 S
C505 C504 1.390 1_556 S
C505 C506 1.394 1_556 S
C505 C511 1.465 . S
C506 C501 1.399 . S
C506 C505 1.394 1_554 S
C506 C507 1.516 1_554 S
C507 C506 1.516 1_556 S
C507 C508 1.502 . S
C507 C509 1.561 1_556 S
C507 C510 1.526 . S
C508 H492 0.959 . S
C508 H493 0.959 . S
C508 H494 0.961 . S
C508 C507 1.502 . S
C509 H495 0.960 . S
C509 H496 0.961 . S
C509 H497 0.959 . S
C509 C507 1.561 1_554 S
C510 C507 1.526 . S
C510 C511 1.396 . S
C510 C515 1.390 . S
C511 C505 1.465 . S
C511 C510 1.396 . S
C511 C512 1.399 . S
C512 H498 0.929 . S
C512 C511 1.399 . S
C512 C513 1.385 . S
C513 H499 0.931 . S
C513 C512 1.385 . S
C513 C514 1.389 . S
C514 C513 1.389 . S
C514 C515 1.387 . S
C515 H500 0.930 . S
C515 C510 1.390 . S
C515 C514 1.387 . S
H516 C528 0.930 1_554 S
H517 C530 0.930 . S
H518 C531 0.930 . S
H519 C535 0.959 . S
H520 C535 0.959 . S
H521 C535 0.961 1_554 S
H522 C536 0.960 . S
H523 C536 0.961 . S
H524 C536 0.959 . S
H525 C539 0.929 . S
H526 C540 0.931 . S
H527 C542 0.930 . S
C528 H516 0.930 1_556 S
C528 C529 1.399 . S
C528 C533 1.399 . S
C529 C528 1.399 . S
C529 C530 1.376 . S
C530 H517 0.930 . S
C530 C529 1.376 . S
C530 C531 1.388 . S
C531 H518 0.930 . S
C531 C530 1.388 . S
C531 C532 1.390 . S
C532 C531 1.390 . S
C532 C533 1.394 . S
C532 C538 1.465 . S
C533 C528 1.399 . S
C533 C532 1.394 . S
C533 C534 1.516 . S
C534 C533 1.516 . S
C534 C535 1.502 . S
C534 C536 1.561 1_556 S
C534 C537 1.526 . S
C535 H519 0.959 . S
C535 H520 0.959 . S
C535 H521 0.961 1_556 S
C535 C534 1.502 . S
C536 H522 0.960 . S
C536 H523 0.961 . S
C536 H524 0.959 . S
C536 C534 1.561 1_554 S
C537 C534 1.526 . S
C537 C538 1.396 . S
C537 C542 1.390 . S
C538 C532 1.465 . S
C538 C537 1.396 . S
C538 C539 1.399 . S
C539 H525 0.929 . S
C539 C538 1.399 . S
C539 C540 1.385 . S
C540 H526 0.931 . S
C540 C539 1.385 . S
C540 C541 1.389 . S
C541 C540 1.389 . S
C541 C542 1.387 . S
C542 H527 0.930 . S
C542 C537 1.390 . S
C542 C541 1.387 . S
H543 C555 0.930 . S
H544 C557 0.930 . S
H545 C558 0.930 . S
H546 C562 0.959 . S
H547 C562 0.959 . S
H548 C562 0.961 . S
H549 C563 0.960 . S
H550 C563 0.961 . S
H551 C563 0.959 . S
H552 C566 0.929 . S
H553 C567 0.931 . S
H554 C569 0.930 . S
C555 H543 0.930 . S
C555 C556 1.399 . S
C555 C560 1.399 . S
C556 C555 1.399 . S
C556 C557 1.376 . S
C557 H544 0.930 . S
C557 C556 1.376 . S
C557 C558 1.388 . S
C558 H545 0.930 . S
C558 C557 1.388 . S
C558 C559 1.390 . S
C559 C558 1.390 . S
C559 C560 1.394 . S
C559 C565 1.465 . S
C560 C555 1.399 . S
C560 C559 1.394 . S
C560 C561 1.516 . S
C561 C560 1.516 . S
C561 C562 1.502 . S
C561 C563 1.561 . S
C561 C564 1.526 . S
C562 H546 0.959 . S
C562 H547 0.959 . S
C562 H548 0.961 . S
C562 C561 1.502 . S
C563 H549 0.960 . S
C563 H550 0.961 . S
C563 H551 0.959 . S
C563 C561 1.561 . S
C564 C561 1.526 . S
C564 C565 1.396 . S
C564 C569 1.390 . S
C565 C559 1.465 . S
C565 C564 1.396 . S
C565 C566 1.399 . S
C566 H552 0.929 . S
C566 C565 1.399 . S
C566 C567 1.385 . S
C567 H553 0.931 . S
C567 C566 1.385 . S
C567 C568 1.389 . S
C568 C567 1.389 . S
C568 C569 1.387 . S
C569 H554 0.930 . S
C569 C564 1.390 . S
C569 C568 1.387 . S
H570 C582 0.930 . S
H571 C584 0.930 . S
H572 C585 0.930 . S
H573 C589 0.959 . S
H574 C589 0.959 . S
H575 C589 0.961 . S
H576 C590 0.960 . S
H577 C590 0.961 . S
H578 C590 0.959 . S
H579 C593 0.929 . S
H580 C594 0.931 . S
H581 C596 0.930 . S
C582 H570 0.930 . S
C582 C583 1.399 1_556 S
C582 C587 1.399 . S
C583 C582 1.399 1_554 S
C583 C584 1.376 . S
C584 H571 0.930 . S
C584 C583 1.376 . S
C584 C585 1.388 . S
C585 H572 0.930 . S
C585 C584 1.388 . S
C585 C586 1.390 1_554 S
C586 C585 1.390 1_556 S
C586 C587 1.394 . S
C586 C592 1.465 . S
C587 C582 1.399 . S
C587 C586 1.394 . S
C587 C588 1.516 . S
C588 C587 1.516 . S
C588 C589 1.502 . S
C588 C590 1.561 . S
C588 C591 1.526 . S
C589 H573 0.959 . S
C589 H574 0.959 . S
C589 H575 0.961 . S
C589 C588 1.502 . S
C590 H576 0.960 . S
C590 H577 0.961 . S
C590 H578 0.959 . S
C590 C588 1.561 . S
C591 C588 1.526 . S
C591 C592 1.396 . S
C591 C596 1.390 . S
C592 C586 1.465 . S
C592 C591 1.396 . S
C592 C593 1.399 . S
C593 H579 0.929 . S
C593 C592 1.399 . S
C593 C594 1.385 . S
C594 H580 0.931 . S
C594 C593 1.385 . S
C594 C595 1.389 . S
C595 C594 1.389 . S
C595 C596 1.387 . S
C596 H581 0.930 . S
C596 C591 1.390 . S
C596 C595 1.387 . S
H597 C609 0.930 . S
H598 C611 0.930 . S
H599 C612 0.930 . S
H600 C616 0.959 . S
H601 C616 0.959 . S
H602 C616 0.961 . S
H603 C617 0.960 . S
H604 C617 0.961 . S
H605 C617 0.959 . S
H606 C620 0.929 1_554 S
H607 C621 0.931 . S
H608 C623 0.930 . S
C609 H597 0.930 . S
C609 C610 1.399 1_556 S
C609 C614 1.399 . S
C610 C609 1.399 1_554 S
C610 C611 1.376 . S
C611 H598 0.930 . S
C611 C610 1.376 . S
C611 C612 1.388 . S
C612 H599 0.930 . S
C612 C611 1.388 . S
C612 C613 1.390 1_554 S
C613 C612 1.390 1_556 S
C613 C614 1.394 . S
C613 C619 1.465 . S
C614 C609 1.399 . S
C614 C613 1.394 . S
C614 C615 1.516 . S
C615 C614 1.516 . S
C615 C616 1.502 . S
C615 C617 1.561 . S
C615 C618 1.526 . S
C616 H600 0.959 . S
C616 H601 0.959 . S
C616 H602 0.961 . S
C616 C615 1.502 . S
C617 H603 0.960 . S
C617 H604 0.961 . S
C617 H605 0.959 . S
C617 C615 1.561 . S
C618 C615 1.526 . S
C618 C619 1.396 . S
C618 C623 1.390 . S
C619 C613 1.465 . S
C619 C618 1.396 . S
C619 C620 1.399 . S
C620 H606 0.929 1_556 S
C620 C619 1.399 . S
C620 C621 1.385 . S
C621 H607 0.931 . S
C621 C620 1.385 . S
C621 C622 1.389 . S
C622 C621 1.389 . S
C622 C623 1.387 . S
C623 H608 0.930 . S
C623 C618 1.390 . S
C623 C622 1.387 . S
H624 C636 0.930 . S
H625 C638 0.930 . S
H626 C639 0.930 . S
H627 C643 0.959 . S
H628 C643 0.959 . S
H629 C643 0.961 . S
H630 C644 0.960 . S
H631 C644 0.961 . S
H632 C644 0.959 . S
H633 C647 0.929 1_554 S
H634 C648 0.931 . S
H635 C650 0.930 . S
C636 H624 0.930 . S
C636 C637 1.399 1_556 S
C636 C641 1.399 . S
C637 C636 1.399 1_554 S
C637 C638 1.376 . S
C638 H625 0.930 . S
C638 C637 1.376 . S
C638 C639 1.388 . S
C639 H626 0.930 . S
C639 C638 1.388 . S
C639 C640 1.390 . S
C640 C639 1.390 . S
C640 C641 1.394 1_554 S
C640 C646 1.465 1_554 S
C641 C636 1.399 . S
C641 C640 1.394 1_556 S
C641 C642 1.516 . S
C642 C641 1.516 . S
C642 C643 1.502 . S
C642 C644 1.561 . S
C642 C645 1.526 . S
C643 H627 0.959 . S
C643 H628 0.959 . S
C643 H629 0.961 . S
C643 C642 1.502 . S
C644 H630 0.960 . S
C644 H631 0.961 . S
C644 H632 0.959 . S
C644 C642 1.561 . S
C645 C642 1.526 . S
C645 C646 1.396 . S
C645 C650 1.390 . S
C646 C640 1.465 1_556 S
C646 C645 1.396 . S
C646 C647 1.399 . S
C647 H633 0.929 1_556 S
C647 C646 1.399 . S
C647 C648 1.385 . S
C648 H634 0.931 . S
C648 C647 1.385 . S
C648 C649 1.389 . S
C649 C648 1.389 . S
C649 C650 1.387 . S
C650 H635 0.930 . S
C650 C645 1.390 . S
C650 C649 1.387 . S
H651 C663 0.928 1_554 S
H652 C665 0.930 . S
H653 C666 0.930 . S
H654 C670 0.959 . S
H655 C670 0.959 . S
H656 C670 0.961 . S
H657 C671 0.960 1_554 S
H658 C671 0.961 . S
H659 C671 0.959 . S
H660 C674 0.929 . S
H661 C675 0.931 . S
H662 C677 0.930 . S
C663 H651 0.928 1_556 S
C663 C664 1.399 . S
C663 C668 1.399 . S
C664 C663 1.399 . S
C664 C665 1.376 . S
C665 H652 0.930 . S
C665 C664 1.376 . S
C665 C666 1.388 . S
C666 H653 0.930 . S
C666 C665 1.388 . S
C666 C667 1.390 . S
C667 C666 1.390 . S
C667 C668 1.394 . S
C667 C673 1.465 . S
C668 C663 1.399 . S
C668 C667 1.394 . S
C668 C669 1.516 . S
C669 C668 1.516 . S
C669 C670 1.502 . S
C669 C671 1.561 . S
C669 C672 1.526 . S
C670 H654 0.959 . S
C670 H655 0.959 . S
C670 H656 0.961 . S
C670 C669 1.502 . S
C671 H657 0.960 1_556 S
C671 H658 0.961 . S
C671 H659 0.959 . S
C671 C669 1.561 . S
C672 C669 1.526 . S
C672 C673 1.396 . S
C672 C677 1.390 . S
C673 C667 1.465 . S
C673 C672 1.396 . S
C673 C674 1.399 . S
C674 H660 0.929 . S
C674 C673 1.399 . S
C674 C675 1.385 . S
C675 H661 0.931 . S
C675 C674 1.385 . S
C675 C676 1.389 . S
C676 C675 1.389 . S
C676 C677 1.387 . S
C677 H662 0.930 . S
C677 C672 1.390 . S
C677 C676 1.387 . S
H678 C690 0.930 . S
H679 C692 0.930 . S
H680 C693 0.930 . S
H681 C697 0.959 . S
H682 C697 0.959 . S
H683 C697 0.961 . S
H684 C698 0.960 . S
H685 C698 0.961 . S
H686 C698 0.959 . S
H687 C701 0.929 . S
H688 C702 0.931 . S
H689 C704 0.930 . S
C690 H678 0.930 . S
C690 C691 1.399 . S
C690 C695 1.399 . S
C691 C690 1.399 . S
C691 C692 1.376 . S
C692 H679 0.930 . S
C692 C691 1.376 . S
C692 C693 1.388 . S
C693 H680 0.930 . S
C693 C692 1.388 . S
C693 C694 1.390 . S
C694 C693 1.390 . S
C694 C695 1.394 . S
C694 C700 1.465 . S
C695 C690 1.399 . S
C695 C694 1.394 . S
C695 C696 1.516 . S
C696 C695 1.516 . S
C696 C697 1.502 . S
C696 C698 1.561 . S
C696 C699 1.526 . S
C697 H681 0.959 . S
C697 H682 0.959 . S
C697 H683 0.961 . S
C697 C696 1.502 . S
C698 H684 0.960 . S
C698 H685 0.961 . S
C698 H686 0.959 . S
C698 C696 1.561 . S
C699 C696 1.526 . S
C699 C700 1.396 . S
C699 C704 1.390 . S
C700 C694 1.465 . S
C700 C699 1.396 . S
C700 C701 1.399 . S
C701 H687 0.929 . S
C701 C700 1.399 . S
C701 C702 1.385 . S
C702 H688 0.931 . S
C702 C701 1.385 . S
C702 C703 1.389 . S
C703 C702 1.389 . S
C703 C704 1.387 . S
C704 H689 0.930 . S
C704 C699 1.390 . S
C704 C703 1.387 . S
H705 C717 0.930 . S
H706 C719 0.930 . S
H707 C720 0.930 . S
H708 C724 0.959 . S
H709 C724 0.959 . S
H710 C724 0.961 . S
H711 C725 0.960 . S
H712 C725 0.961 . S
H713 C725 0.959 . S
H714 C728 0.929 . S
H715 C729 0.931 . S
H716 C731 0.930 . S
C717 H705 0.930 . S
C717 C718 1.399 . S
C717 C722 1.399 . S
C718 C717 1.399 . S
C718 C719 1.376 . S
C719 H706 0.930 . S
C719 C718 1.376 . S
C719 C720 1.388 . S
C720 H707 0.930 . S
C720 C719 1.388 . S
C720 C721 1.390 . S
C721 C720 1.390 . S
C721 C722 1.394 . S
C721 C727 1.465 . S
C722 C717 1.399 . S
C722 C721 1.394 . S
C722 C723 1.516 . S
C723 C722 1.516 . S
C723 C724 1.502 . S
C723 C725 1.561 . S
C723 C726 1.526 . S
C724 H708 0.959 . S
C724 H709 0.959 . S
C724 H710 0.961 . S
C724 C723 1.502 . S
C725 H711 0.960 . S
C725 H712 0.961 . S
C725 H713 0.959 . S
C725 C723 1.561 . S
C726 C723 1.526 . S
C726 C727 1.396 . S
C726 C731 1.390 . S
C727 C721 1.465 . S
C727 C726 1.396 . S
C727 C728 1.399 . S
C728 H714 0.929 . S
C728 C727 1.399 . S
C728 C729 1.385 . S
C729 H715 0.931 . S
C729 C728 1.385 . S
C729 C730 1.389 . S
C730 C729 1.389 . S
C730 C731 1.387 . S
C731 H716 0.930 . S
C731 C726 1.390 . S
C731 C730 1.387 . S
H732 C744 0.930 . S
H733 C746 0.930 . S
H734 C747 0.930 . S
H735 C751 0.959 . S
H736 C751 0.959 . S
H737 C751 0.961 . S
H738 C752 0.960 . S
H739 C752 0.961 . S
H740 C752 0.959 . S
H741 C755 0.929 . S
H742 C756 0.931 . S
H743 C758 0.930 . S
C744 H732 0.930 . S
C744 C745 1.399 . S
C744 C749 1.399 . S
C745 C744 1.399 . S
C745 C746 1.376 . S
C746 H733 0.930 . S
C746 C745 1.376 . S
C746 C747 1.388 . S
C747 H734 0.930 . S
C747 C746 1.388 . S
C747 C748 1.390 . S
C748 C747 1.390 . S
C748 C749 1.394 . S
C748 C754 1.465 . S
C749 C744 1.399 . S
C749 C748 1.394 . S
C749 C750 1.516 . S
C750 C749 1.516 . S
C750 C751 1.502 . S
C750 C752 1.561 . S
C750 C753 1.526 . S
C751 H735 0.959 . S
C751 H736 0.959 . S
C751 H737 0.961 . S
C751 C750 1.502 . S
C752 H738 0.960 . S
C752 H739 0.961 . S
C752 H740 0.959 . S
C752 C750 1.561 . S
C753 C750 1.526 . S
C753 C754 1.396 . S
C753 C758 1.390 . S
C754 C748 1.465 . S
C754 C753 1.396 . S
C754 C755 1.399 . S
C755 H741 0.929 . S
C755 C754 1.399 . S
C755 C756 1.385 . S
C756 H742 0.931 . S
C756 C755 1.385 . S
C756 C757 1.389 . S
C757 C756 1.389 . S
C757 C758 1.387 . S
C758 H743 0.930 . S
C758 C753 1.390 . S
C758 C757 1.387 . S
H759 C771 0.930 . S
H760 C773 0.930 . S
H761 C774 0.930 . S
H762 C778 0.959 . S
H763 C778 0.959 . S
H764 C778 0.961 . S
H765 C779 0.960 . S
H766 C779 0.961 . S
H767 C779 0.959 . S
H768 C782 0.929 . S
H769 C783 0.931 . S
H770 C785 0.930 . S
C771 H759 0.930 . S
C771 C772 1.399 . S
C771 C776 1.399 . S
C772 C771 1.399 . S
C772 C773 1.376 . S
C773 H760 0.930 . S
C773 C772 1.376 . S
C773 C774 1.388 . S
C774 H761 0.930 . S
C774 C773 1.388 . S
C774 C775 1.390 . S
C775 C774 1.390 . S
C775 C776 1.394 . S
C775 C781 1.465 . S
C776 C771 1.399 . S
C776 C775 1.394 . S
C776 C777 1.516 . S
C777 C776 1.516 . S
C777 C778 1.502 . S
C777 C779 1.561 . S
C777 C780 1.526 . S
C778 H762 0.959 . S
C778 H763 0.959 . S
C778 H764 0.961 . S
C778 C777 1.502 . S
C779 H765 0.960 . S
C779 H766 0.961 . S
C779 H767 0.959 . S
C779 C777 1.561 . S
C780 C777 1.526 . S
C780 C781 1.396 . S
C780 C785 1.390 . S
C781 C775 1.465 . S
C781 C780 1.396 . S
C781 C782 1.399 . S
C782 H768 0.929 . S
C782 C781 1.399 . S
C782 C783 1.385 . S
C783 H769 0.931 . S
C783 C782 1.385 . S
C783 C784 1.389 . S
C784 C783 1.389 . S
C784 C785 1.387 . S
C785 H770 0.930 . S
C785 C780 1.390 . S
C785 C784 1.387 . S
H786 C798 0.930 . S
H787 C800 0.930 . S
H788 C801 0.930 . S
H789 C805 0.959 . S
H790 C805 0.959 . S
H791 C805 0.961 . S
H792 C806 0.960 . S
H793 C806 0.961 . S
H794 C806 0.959 . S
H795 C809 0.929 . S
H796 C810 0.931 . S
H797 C812 0.930 . S
C798 H786 0.930 . S
C798 C799 1.399 . S
C798 C803 1.399 . S
C799 C798 1.399 . S
C799 C800 1.376 . S
C800 H787 0.930 . S
C800 C799 1.376 . S
C800 C801 1.388 . S
C801 H788 0.930 . S
C801 C800 1.388 . S
C801 C802 1.390 . S
C802 C801 1.390 . S
C802 C803 1.394 . S
C802 C808 1.465 . S
C803 C798 1.399 . S
C803 C802 1.394 . S
C803 C804 1.516 . S
C804 C803 1.516 . S
C804 C805 1.502 . S
C804 C806 1.561 . S
C804 C807 1.526 . S
C805 H789 0.959 . S
C805 H790 0.959 . S
C805 H791 0.961 . S
C805 C804 1.502 . S
C806 H792 0.960 . S
C806 H793 0.961 . S
C806 H794 0.959 . S
C806 C804 1.561 . S
C807 C804 1.526 . S
C807 C808 1.396 . S
C807 C812 1.390 . S
C808 C802 1.465 . S
C808 C807 1.396 . S
C808 C809 1.399 . S
C809 H795 0.929 . S
C809 C808 1.399 . S
C809 C810 1.385 . S
C810 H796 0.931 . S
C810 C809 1.385 . S
C810 C811 1.389 . S
C811 C810 1.389 . S
C811 C812 1.387 . S
C812 H797 0.930 . S
C812 C807 1.390 . S
C812 C811 1.387 . S
H813 C825 0.930 . S
H814 C827 0.930 . S
H815 C828 0.930 . S
H816 C832 0.959 . S
H817 C832 0.959 . S
H818 C832 0.961 . S
H819 C833 0.960 . S
H820 C833 0.961 . S
H821 C833 0.959 . S
H822 C836 0.929 . S
H823 C837 0.931 . S
H824 C839 0.930 . S
C825 H813 0.930 . S
C825 C826 1.399 . S
C825 C830 1.399 . S
C826 C825 1.399 . S
C826 C827 1.376 . S
C827 H814 0.930 . S
C827 C826 1.376 . S
C827 C828 1.388 . S
C828 H815 0.930 . S
C828 C827 1.388 . S
C828 C829 1.390 . S
C829 C828 1.390 . S
C829 C830 1.394 . S
C829 C835 1.465 . S
C830 C825 1.399 . S
C830 C829 1.394 . S
C830 C831 1.516 . S
C831 C830 1.516 . S
C831 C832 1.502 . S
C831 C833 1.561 . S
C831 C834 1.526 . S
C832 H816 0.959 . S
C832 H817 0.959 . S
C832 H818 0.961 . S
C832 C831 1.502 . S
C833 H819 0.960 . S
C833 H820 0.961 . S
C833 H821 0.959 . S
C833 C831 1.561 . S
C834 C831 1.526 . S
C834 C835 1.396 . S
C834 C839 1.390 . S
C835 C829 1.465 . S
C835 C834 1.396 . S
C835 C836 1.399 . S
C836 H822 0.929 . S
C836 C835 1.399 . S
C836 C837 1.385 . S
C837 H823 0.931 . S
C837 C836 1.385 . S
C837 C838 1.389 . S
C838 C837 1.389 . S
C838 C839 1.387 . S
C839 H824 0.930 . S
C839 C834 1.390 . S
C839 C838 1.387 . S
H840 C852 0.930 . S
H841 C854 0.930 . S
H842 C855 0.930 . S
H843 C859 0.959 . S
H844 C859 0.959 . S
H845 C859 0.961 . S
H846 C860 0.960 . S
H847 C860 0.961 . S
H848 C860 0.959 . S
H849 C863 0.929 . S
H850 C864 0.931 . S
H851 C866 0.930 . S
C852 H840 0.930 . S
C852 C853 1.399 . S
C852 C857 1.399 . S
C853 C852 1.399 . S
C853 C854 1.376 . S
C854 H841 0.930 . S
C854 C853 1.376 . S
C854 C855 1.388 . S
C855 H842 0.930 . S
C855 C854 1.388 . S
C855 C856 1.390 . S
C856 C855 1.390 . S
C856 C857 1.394 . S
C856 C862 1.465 . S
C857 C852 1.399 . S
C857 C856 1.394 . S
C857 C858 1.516 . S
C858 C857 1.516 . S
C858 C859 1.502 . S
C858 C860 1.561 . S
C858 C861 1.526 . S
C859 H843 0.959 . S
C859 H844 0.959 . S
C859 H845 0.961 . S
C859 C858 1.502 . S
C860 H846 0.960 . S
C860 H847 0.961 . S
C860 H848 0.959 . S
C860 C858 1.561 . S
C861 C858 1.526 . S
C861 C862 1.396 . S
C861 C866 1.390 . S
C862 C856 1.465 . S
C862 C861 1.396 . S
C862 C863 1.399 . S
C863 H849 0.929 . S
C863 C862 1.399 . S
C863 C864 1.385 . S
C864 H850 0.931 . S
C864 C863 1.385 . S
C864 C865 1.389 . S
C865 C864 1.389 . S
C865 C866 1.387 . S
C866 H851 0.930 . S
C866 C861 1.390 . S
C866 C865 1.387 . S
C232 C12 1.696 . S
C244 C126 1.723 . S
C259 C40 1.544 . S
C271 C158 1.537 . S
C298 C217 1.869 . S
C286 C61 1.897 . S
C325 C146 1.386 . S
C313 C82 1.404 . S
C340 C96 1.575 . S
C352 C176 1.650 . S
C379 C198 1.331 . S
C367 C117 1.208 . S
C406 C167 1.741 . S
C394 C51 1.702 . S
C421 C72 1.301 . S
C433 C207 1.278 . S
C460 C156 1.639 . S
C448 C101 1.575 1_556 S
C475 C122 1.403 . S
C487 C186 1.487 . S
C502 C17 1.747 . S
C514 C189 1.794 . S
C541 C128 1.605 . S
C529 C30 1.593 1_556 S
C568 C136 1.651 . S
C556 C80 1.657 . S
C595 C177 1.485 . S
C583 C93 1.427 . S
C622 C190 1.867 . S
C610 C114 1.824 . S
C649 C127 1.405 . S
C637 C9 1.372 . S
C676 C187 1.594 . S
C664 C38 1.597 1_556 S
C691 C59 1.306 . S
C703 C188 1.315 . S
C730 C157 1.693 . S
C718 C124 1.615 . S
C757 C218 1.225 . S
C745 C19 1.270 . S
C784 C145 1.604 . S
C772 C33 1.617 . S
C811 C159 1.539 . S
C799 C54 1.508 . S
C826 C75 1.762 . S
C838 C208 1.774 . S
C853 C103 1.536 . S
C865 C155 1.621 . S
