# Generated by pormake.
# Topology hwx, (6,3)-cn, num edge types: 1
# Building blocks:
#     Node 0, Type 0, BuildingBlock: IZENUY_clean_sbu_0, # of connection points: 6
#     Node 1, Type 0, BuildingBlock: IZENUY_clean_sbu_0, # of connection points: 6
#     Node 2, Type 0, BuildingBlock: IZENUY_clean_sbu_0, # of connection points: 6
#     Node 3, Type 0, BuildingBlock: IZENUY_clean_sbu_0, # of connection points: 6
#     Node 4, Type 1, BuildingBlock: PAMTOO_clean_linker_0, # of connection points: 3
#     Node 5, Type 1, BuildingBlock: PAMTOO_clean_linker_0, # of connection points: 3
#     Node 6, Type 1, BuildingBlock: PAMTOO_clean_linker_0, # of connection points: 3
#     Node 7, Type 1, BuildingBlock: PAMTOO_clean_linker_0, # of connection points: 3
#     Node 8, Type 1, BuildingBlock: PAMTOO_clean_linker_0, # of connection points: 3
#     Node 9, Type 1, BuildingBlock: PAMTOO_clean_linker_0, # of connection points: 3
#     Node 10, Type 1, BuildingBlock: PAMTOO_clean_linker_0, # of connection points: 3
#     Node 11, Type 1, BuildingBlock: PAMTOO_clean_linker_0, # of connection points: 3
#     Edge 12, Type (0, 1), BuildingBlock: XUDNAN_clean_linker_2, # of connection points: 2
#     Edge 13, Type (0, 1), BuildingBlock: XUDNAN_clean_linker_2, # of connection points: 2
#     Edge 14, Type (0, 1), BuildingBlock: XUDNAN_clean_linker_2, # of connection points: 2
#     Edge 15, Type (0, 1), BuildingBlock: XUDNAN_clean_linker_2, # of connection points: 2
#     Edge 16, Type (0, 1), BuildingBlock: XUDNAN_clean_linker_2, # of connection points: 2
#     Edge 17, Type (0, 1), BuildingBlock: XUDNAN_clean_linker_2, # of connection points: 2
#     Edge 18, Type (0, 1), BuildingBlock: XUDNAN_clean_linker_2, # of connection points: 2
#     Edge 19, Type (0, 1), BuildingBlock: XUDNAN_clean_linker_2, # of connection points: 2
#     Edge 20, Type (0, 1), BuildingBlock: XUDNAN_clean_linker_2, # of connection points: 2
#     Edge 21, Type (0, 1), BuildingBlock: XUDNAN_clean_linker_2, # of connection points: 2
#     Edge 22, Type (0, 1), BuildingBlock: XUDNAN_clean_linker_2, # of connection points: 2
#     Edge 23, Type (0, 1), BuildingBlock: XUDNAN_clean_linker_2, # of connection points: 2
#     Edge 24, Type (0, 1), BuildingBlock: XUDNAN_clean_linker_2, # of connection points: 2
#     Edge 25, Type (0, 1), BuildingBlock: XUDNAN_clean_linker_2, # of connection points: 2
#     Edge 26, Type (0, 1), BuildingBlock: XUDNAN_clean_linker_2, # of connection points: 2
#     Edge 27, Type (0, 1), BuildingBlock: XUDNAN_clean_linker_2, # of connection points: 2
#     Edge 28, Type (0, 1), BuildingBlock: XUDNAN_clean_linker_2, # of connection points: 2
#     Edge 29, Type (0, 1), BuildingBlock: XUDNAN_clean_linker_2, # of connection points: 2
#     Edge 30, Type (0, 1), BuildingBlock: XUDNAN_clean_linker_2, # of connection points: 2
#     Edge 31, Type (0, 1), BuildingBlock: XUDNAN_clean_linker_2, # of connection points: 2
#     Edge 32, Type (0, 1), BuildingBlock: XUDNAN_clean_linker_2, # of connection points: 2
#     Edge 33, Type (0, 1), BuildingBlock: XUDNAN_clean_linker_2, # of connection points: 2
#     Edge 34, Type (0, 1), BuildingBlock: XUDNAN_clean_linker_2, # of connection points: 2
#     Edge 35, Type (0, 1), BuildingBlock: XUDNAN_clean_linker_2, # of connection points: 2
# Relax obj value: 0.003
# Max RMSD: 0.062
# Mean RMSD: 0.049
data_MOF--net-hwx--node1-IZENUY_clean_sbu_0--node2-PAMTOO_clean_linker_0--edge1-XUDNAN_clean_linker_2
_symmetry_space_group_name_H-M    P1
_symmetry_Int_Tables_number       1
_symmetry_cell_setting            triclinic
loop_
_symmetry_equiv_pos_as_xyz
'x, y, z'
_cell_length_a     51.077502
_cell_length_b     50.947764
_cell_length_c     20.697773
_cell_angle_alpha  88.104085
_cell_angle_beta   92.02859
_cell_angle_gamma 90.076079
loop_
_atom_site_label
_atom_site_type_symbol
_atom_site_fract_x
_atom_site_fract_y
_atom_site_fract_z
_atom_type_partial_charge
Fe0 Fe 0.25065 0.24905 0.07518 0.0
Fe1 Fe 0.24879 0.24721 0.92681 0.0
O2 O 0.23569 0.23781 0.00229 0.0
Fe3 Fe 0.2076 0.21719 0.00474 0.0
O4 O 0.18892 0.24146 0.0457 0.0
O5 O 0.21988 0.25088 0.11811 0.0
O6 O 0.24527 0.28326 0.05027 0.0
C7 C 0.25266 0.29381 0.99796 0.0
C8 C 0.23981 0.19775 0.10955 0.0
O9 O 0.25965 0.27982 0.95212 0.0
C10 C 0.23471 0.19378 0.91058 0.0
O11 O 0.28423 0.24953 0.04516 0.0
O12 O 0.2803 0.23252 0.94912 0.0
O13 O 0.21757 0.20041 0.08118 0.0
O14 O 0.25697 0.21556 0.10545 0.0
C15 C 0.19624 0.25153 0.89693 0.0
O16 O 0.24029 0.21632 0.88724 0.0
O17 O 0.22419 0.19129 0.96457 0.0
C18 C 0.2943 0.23853 0.99787 0.0
O19 O 0.21826 0.26272 0.89946 0.0
O20 O 0.1925 0.23015 0.92816 0.0
C21 C 0.19621 0.25191 0.0977 0.0
Fe22 Fe 0.26626 0.74977 0.58458 0.0
Fe23 Fe 0.29907 0.70657 0.52501 0.0
O24 O 0.27783 0.73409 0.51575 0.0
Fe25 Fe 0.26831 0.74595 0.437 0.0
O26 O 0.28286 0.77784 0.45125 0.0
O27 O 0.26597 0.78304 0.54643 0.0
O28 O 0.29946 0.7568 0.61432 0.0
C29 C 0.31754 0.74003 0.62253 0.0
C30 C 0.2219 0.75049 0.50573 0.0
O31 O 0.3153 0.71744 0.59948 0.0
C32 C 0.26489 0.69315 0.42046 0.0
O33 O 0.26451 0.71926 0.63428 0.0
O34 O 0.27522 0.68767 0.5697 0.0
O35 O 0.23599 0.7573 0.4591 0.0
O36 O 0.23221 0.74386 0.56012 0.0
C37 C 0.3216 0.73325 0.42512 0.0
O38 O 0.28661 0.69048 0.45153 0.0
O39 O 0.25303 0.71486 0.41825 0.0
C40 C 0.26431 0.69528 0.61954 0.0
O41 O 0.32456 0.72382 0.48188 0.0
O42 O 0.29896 0.73678 0.39964 0.0
C43 C 0.27724 0.79241 0.497 0.0
Fe44 Fe 0.76537 0.77365 0.90445 0.0
Fe45 Fe 0.76835 0.77284 0.05321 0.0
O46 O 0.77775 0.78657 0.97768 0.0
Fe47 Fe 0.79962 0.81349 0.97498 0.0
O48 O 0.78589 0.82814 0.89856 0.0
O49 O 0.75057 0.80483 0.87939 0.0
O50 O 0.73349 0.76422 0.9361 0.0
C51 C 0.72148 0.77219 0.9842 0.0
C52 C 0.8186 0.78357 0.88096 0.0
O53 O 0.73396 0.77955 0.03409 0.0
C54 C 0.82032 0.78197 0.07942 0.0
O55 O 0.77916 0.74171 0.92497 0.0
O56 O 0.76571 0.73881 0.02486 0.0
O57 O 0.82337 0.79442 0.93385 0.0
O58 O 0.79527 0.78066 0.85948 0.0
C59 C 0.76823 0.82793 0.07128 0.0
O60 O 0.8021 0.76525 0.07776 0.0
O61 O 0.81756 0.80412 0.05048 0.0
C62 C 0.77469 0.72818 0.97551 0.0
O63 O 0.7694 0.80452 0.09441 0.0
O64 O 0.77697 0.83375 0.0164 0.0
C65 C 0.7632 0.82593 0.87265 0.0
Fe66 Fe 0.71413 0.30645 0.56978 0.0
Fe67 Fe 0.75475 0.26838 0.63245 0.0
O68 O 0.7398 0.28337 0.56211 0.0
Fe69 Fe 0.75023 0.27524 0.48418 0.0
O70 O 0.75869 0.30922 0.46463 0.0
O71 O 0.72202 0.32604 0.49715 0.0
O72 O 0.73539 0.32828 0.61544 0.0
C73 C 0.74854 0.32144 0.66595 0.0
C74 C 0.69482 0.27875 0.46786 0.0
O75 O 0.75177 0.29739 0.68187 0.0
C76 C 0.75052 0.22655 0.54579 0.0
O77 O 0.70136 0.29136 0.64405 0.0
O78 O 0.72372 0.25483 0.65828 0.0
O79 O 0.7175 0.27903 0.44475 0.0
O80 O 0.69126 0.28606 0.52457 0.0
C81 C 0.79795 0.27696 0.55945 0.0
O82 O 0.76057 0.23685 0.59563 0.0
O83 O 0.74247 0.24061 0.49776 0.0
C84 C 0.70354 0.26822 0.66757 0.0
O85 O 0.78681 0.28063 0.61182 0.0
O86 O 0.78486 0.27009 0.5096 0.0
C87 C 0.74288 0.32821 0.46615 0.0
H88 H 0.2314 0.60069 0.03184 0.0
H89 H 0.24158 0.53092 0.92339 0.0
H90 H 0.24281 0.52608 0.13161 0.0
H91 H 0.27668 0.48722 0.08262 0.0
C92 C 0.2689 0.48624 0.03187 0.0
O93 O 0.24508 0.49901 0.02595 0.0
H94 H 0.28333 0.4961 1.00003 0.0
C95 C 0.23454 0.57966 0.03028 0.0
C96 C 0.23715 0.56492 0.08839 0.0
C97 C 0.23611 0.56774 0.97039 0.0
C98 C 0.24065 0.54053 0.96917 0.0
C99 C 0.24287 0.52546 0.02734 0.0
C100 C 0.24128 0.53775 0.0869 0.0
H101 H 0.91353 0.75016 0.48293 0.0
H102 H 0.98917 0.74972 0.39767 0.0
H103 H 0.98418 0.74852 0.60344 0.0
H104 H 0.0284 0.77658 0.56809 0.0
C105 C 0.03024 0.77042 0.51738 0.0
O106 O 0.01575 0.74789 0.50804 0.0
H107 H 0.02266 0.78673 0.48476 0.0
C108 C 0.93467 0.74961 0.48834 0.0
C109 C 0.94666 0.74922 0.55071 0.0
C110 C 0.94964 0.75021 0.43256 0.0
C111 C 0.97713 0.74943 0.43975 0.0
C112 C 0.98933 0.74838 0.50144 0.0
C113 C 0.97419 0.74832 0.55647 0.0
H114 H 0.77173 0.4192 0.05972 0.0
H115 H 0.76564 0.49542 0.14245 0.0
H116 H 0.77764 0.48912 0.93917 0.0
H117 H 0.81094 0.52787 0.02165 0.0
C118 C 0.79399 0.53633 0.04622 0.0
O119 O 0.77168 0.52176 0.03357 0.0
H120 H 0.79871 0.53554 0.09915 0.0
C121 C 0.77211 0.44045 0.05493 0.0
C122 C 0.77543 0.45225 0.99357 0.0
C123 C 0.7685 0.45563 0.10935 0.0
C124 C 0.7681 0.48318 0.10129 0.0
C125 C 0.77156 0.49523 0.0402 0.0
C126 C 0.77498 0.47975 0.98624 0.0
H127 H 0.10321 0.28817 0.49328 0.0
H128 H 0.02945 0.27625 0.58356 0.0
H129 H 0.03321 0.27601 0.37601 0.0
H130 H 0.98333 0.29762 0.40891 0.0
C131 C 0.98523 0.29381 0.46208 0.0
O132 O 1.0019 0.27271 0.47438 0.0
H133 H 0.99344 0.31191 0.48379 0.0
C134 C 0.08225 0.2848 0.4891 0.0
C135 C 0.07008 0.28254 0.42772 0.0
C136 C 0.06792 0.28233 0.54539 0.0
C137 C 0.04083 0.27777 0.54039 0.0
C138 C 0.02826 0.27575 0.47922 0.0
C139 C 0.043 0.27755 0.42303 0.0
H140 H 0.73212 0.92143 0.4694 0.0
H141 H 0.73607 0.99466 0.56605 0.0
H142 H 0.74236 0.99411 0.35986 0.0
H143 H 0.76973 0.03917 0.40839 0.0
C144 C 0.76278 0.03793 0.45871 0.0
O145 O 0.73964 0.02391 0.45968 0.0
H146 H 0.77826 0.02778 0.48948 0.0
C147 C 0.73451 0.94258 0.46681 0.0
C148 C 0.73796 0.95569 0.40685 0.0
C149 C 0.73415 0.95637 0.52419 0.0
C150 C 0.73655 0.9838 0.52196 0.0
C151 C 0.73892 0.99733 0.46232 0.0
C152 C 0.73979 0.98332 0.40514 0.0
H153 H 0.60489 0.24231 0.05601 0.0
H154 H 0.52962 0.24729 0.14389 0.0
H155 H 0.53407 0.23516 0.94033 0.0
H156 H 0.49227 0.2712 0.98181 0.0
C157 C 0.48626 0.26 0.02591 0.0
O158 O 0.50249 0.23856 0.03737 0.0
H159 H 0.48807 0.27321 0.06758 0.0
C160 C 0.58367 0.24248 0.05275 0.0
C161 C 0.57125 0.23905 0.99221 0.0
C162 C 0.5691 0.24583 0.1084 0.0
C163 C 0.54152 0.24476 0.10228 0.0
C164 C 0.52892 0.24072 0.04196 0.0
C165 C 0.54383 0.23812 0.98687 0.0
H166 H 0.25762 0.09868 0.51448 0.0
H167 H 0.27182 0.02669 0.41841 0.0
H168 H 0.26786 0.02589 0.62475 0.0
H169 H 0.30286 0.98551 0.58532 0.0
C170 C 0.29649 0.98454 0.5335 0.0
O171 O 0.27262 0.997 0.52387 0.0
H172 H 0.31165 0.99467 0.50437 0.0
C173 C 0.26209 0.07789 0.51695 0.0
C174 C 0.26302 0.06432 0.57738 0.0
C175 C 0.26534 0.0647 0.45916 0.0
C176 C 0.26942 0.03736 0.46223 0.0
C177 C 0.27013 0.02349 0.52186 0.0
C178 C 0.26705 0.03694 0.57912 0.0
H179 H 0.41419 0.76667 0.02196 0.0
H180 H 0.48796 0.77114 0.92795 0.0
H181 H 0.48708 0.76414 0.13398 0.0
H182 H 0.53099 0.79801 0.08881 0.0
C183 C 0.53137 0.7909 0.03862 0.0
O184 O 0.51659 0.76828 0.03458 0.0
H185 H 0.5231 0.80655 0.00508 0.0
C186 C 0.43536 0.76724 0.02488 0.0
C187 C 0.44858 0.76559 0.08589 0.0
C188 C 0.44921 0.76864 0.96726 0.0
C189 C 0.47673 0.76974 0.97136 0.0
C190 C 0.49012 0.76856 0.03151 0.0
C191 C 0.47616 0.76619 0.08831 0.0
H192 H 0.14834 0.23185 0.12978 0.0
H193 H 0.20084 0.29749 0.1608 0.0
H194 H 0.17018 0.31574 0.23743 0.0
H195 H 0.08528 0.26719 0.14973 0.0
H196 H 0.07113 0.23983 0.19361 0.0
H197 H 0.09482 0.2341 0.13307 0.0
H198 H 0.12354 0.20754 0.21761 0.0
H199 H 0.09997 0.21314 0.2782 0.0
H200 H 0.13368 0.22253 0.29214 0.0
H201 H 0.13648 0.32483 0.3168 0.0
H202 H 0.10376 0.32246 0.40153 0.0
H203 H 0.07365 0.24971 0.32508 0.0
C204 C 0.15291 0.25044 0.15147 0.0
C205 C 0.17665 0.2636 0.13885 0.0
C206 C 0.1826 0.28733 0.16967 0.0
C207 C 0.16525 0.29788 0.21288 0.0
C208 C 0.14218 0.28427 0.22529 0.0
C209 C 0.13601 0.26096 0.19596 0.0
C210 C 0.11157 0.24869 0.22387 0.0
C211 C 0.08938 0.24738 0.17197 0.0
C212 C 0.11756 0.22137 0.2548 0.0
C213 C 0.10538 0.26841 0.27457 0.0
C214 C 0.12302 0.28903 0.27343 0.0
C215 C 0.12242 0.30893 0.3178 0.0
C216 C 0.10382 0.30738 0.36582 0.0
C217 C 0.08621 0.28593 0.36974 0.0
C218 C 0.08657 0.26656 0.32242 0.0
H219 H 0.28434 0.64711 0.65827 0.0
H220 H 0.21967 0.7002 0.68522 0.0
H221 H 0.20212 0.66941 0.76773 0.0
H222 H 0.24883 0.58423 0.68938 0.0
H223 H 0.2764 0.56959 0.73378 0.0
H224 H 0.28172 0.59356 0.66954 0.0
H225 H 0.3093 0.62174 0.74863 0.0
H226 H 0.30412 0.59787 0.8129 0.0
H227 H 0.29522 0.6317 0.82264 0.0
H228 H 0.19357 0.63534 0.85255 0.0
H229 H 0.19642 0.60205 0.94167 0.0
H230 H 0.26786 0.57154 0.86543 0.0
C231 C 0.26611 0.65181 0.68045 0.0
C232 C 0.25305 0.67577 0.66493 0.0
C233 C 0.22979 0.68183 0.69633 0.0
C234 C 0.21962 0.66441 0.74288 0.0
C235 C 0.23313 0.64112 0.75797 0.0
C236 C 0.25599 0.63484 0.72816 0.0
C237 C 0.26826 0.61009 0.75886 0.0
C238 C 0.26883 0.58806 0.70996 0.0
C239 C 0.29585 0.6157 0.78746 0.0
C240 C 0.24907 0.60383 0.81156 0.0
C241 C 0.22869 0.62173 0.80911 0.0
C242 C 0.20928 0.62108 0.85464 0.0
C243 C 0.2111 0.60215 0.90515 0.0
C244 C 0.23234 0.58426 0.91034 0.0
C245 C 0.25119 0.58469 0.86192 0.0
H246 H 0.82729 0.74686 0.18288 0.0
H247 H 0.86744 0.80642 0.06878 0.0
H248 H 0.90682 0.80097 0.14028 0.0
H249 H 0.85123 0.76738 0.3334 0.0
H250 H 0.85457 0.73494 0.37015 0.0
H251 H 0.83062 0.741 0.30558 0.0
H252 H 0.85082 0.704 0.24029 0.0
H253 H 0.87486 0.69779 0.30483 0.0
H254 H 0.88524 0.70498 0.22382 0.0
H255 H 0.9403 0.79218 0.22891 0.0
H256 H 0.96497 0.78179 0.33101 0.0
H257 H 0.90368 0.72747 0.38782 0.0
C258 C 0.84456 0.75835 0.17223 0.0
C259 C 0.84433 0.77701 0.12014 0.0
C260 C 0.86715 0.79205 0.10852 0.0
C261 C 0.88968 0.789 0.14862 0.0
C262 C 0.88914 0.7708 0.20024 0.0
C263 C 0.86721 0.75571 0.21223 0.0
C264 C 0.8711 0.73916 0.27404 0.0
C265 C 0.85067 0.74604 0.32371 0.0
C266 C 0.87048 0.70974 0.25987 0.0
C267 C 0.89836 0.74782 0.29561 0.0
C268 C 0.90853 0.76581 0.25188 0.0
C269 C 0.93274 0.77779 0.26307 0.0
C270 C 0.94671 0.77162 0.32112 0.0
C271 C 0.9364 0.75372 0.36755 0.0
C272 C 0.91212 0.7413 0.35358 0.0
H273 H 0.7284 0.37029 0.68986 0.0
H274 H 0.79256 0.31717 0.74244 0.0
H275 H 0.80967 0.34847 0.82181 0.0
H276 H 0.76496 0.43289 0.71379 0.0
H277 H 0.7374 0.44861 0.74841 0.0
H278 H 0.73206 0.42393 0.68888 0.0
H279 H 0.70332 0.39736 0.76837 0.0
H280 H 0.7085 0.42195 0.8279 0.0
H281 H 0.71661 0.38814 0.84773 0.0
H282 H 0.8175 0.38258 0.90221 0.0
H283 H 0.81427 0.41672 0.98345 0.0
H284 H 0.74493 0.44823 0.88222 0.0
C285 C 0.74637 0.36561 0.71711 0.0
C286 C 0.75928 0.3414 0.70985 0.0
C287 C 0.78237 0.3356 0.74741 0.0
C288 C 0.79235 0.35333 0.79225 0.0
C289 C 0.77897 0.37681 0.79924 0.0
C290 C 0.75644 0.38302 0.763 0.0
C291 C 0.74448 0.40836 0.78496 0.0
C292 C 0.74475 0.42972 0.73077 0.0
C293 C 0.71659 0.40366 0.80866 0.0
C294 C 0.7634 0.41494 0.84034 0.0
C295 C 0.78338 0.39665 0.84682 0.0
C296 C 0.80222 0.39727 0.89706 0.0
C297 C 0.80026 0.41669 0.94291 0.0
C298 C 0.7796 0.4352 0.93836 0.0
C299 C 0.76128 0.43468 0.88564 0.0
H300 H 0.68989 0.28782 0.33743 0.0
H301 H 0.64816 0.25646 0.5017 0.0
H302 H 0.61047 0.24549 0.42857 0.0
H303 H 0.63288 0.31769 0.25498 0.0
H304 H 0.6441 0.31078 0.17572 0.0
H305 H 0.66749 0.3159 0.24128 0.0
H306 H 0.68863 0.27076 0.22176 0.0
H307 H 0.66528 0.26546 0.15631 0.0
H308 H 0.6685 0.24166 0.22249 0.0
H309 H 0.5786 0.23534 0.33473 0.0
H310 H 0.55442 0.22944 0.23086 0.0
H311 H 0.61565 0.27208 0.13123 0.0
C312 C 0.67283 0.2786 0.35801 0.0
C313 C 0.67197 0.27271 0.42504 0.0
C314 C 0.64916 0.26108 0.45038 0.0
C315 C 0.62772 0.25477 0.40924 0.0
C316 C 0.62926 0.26074 0.34317 0.0
C317 C 0.65112 0.27275 0.31799 0.0
C318 C 0.64779 0.27768 0.2457 0.0
C319 C 0.64807 0.30727 0.22843 0.0
C320 C 0.6688 0.26301 0.20945 0.0
C321 C 0.62088 0.266 0.23369 0.0
C322 C 0.6105 0.25621 0.29028 0.0
C323 C 0.58639 0.24333 0.29027 0.0
C324 C 0.57267 0.24025 0.23087 0.0
C325 C 0.58294 0.25023 0.17211 0.0
C326 C 0.60723 0.26368 0.17447 0.0
H327 H 0.26073 0.19033 0.79708 0.0
H328 H 0.21666 0.14383 0.93534 0.0
H329 H 0.22089 0.10509 0.86803 0.0
H330 H 0.2336 0.16241 0.65537 0.0
H331 H 0.2638 0.16286 0.61284 0.0
H332 H 0.2583 0.18668 0.67325 0.0
H333 H 0.3013 0.17233 0.73465 0.0
H334 H 0.30698 0.14851 0.67425 0.0
H335 H 0.30608 0.13825 0.75833 0.0
H336 H 0.22739 0.07212 0.78176 0.0
H337 H 0.23668 0.04726 0.68499 0.0
H338 H 0.27884 0.11453 0.60644 0.0
C339 C 0.25208 0.17198 0.81346 0.0
C340 C 0.23825 0.17022 0.87146 0.0
C341 C 0.22734 0.14575 0.89115 0.0
C342 C 0.22964 0.12359 0.85324 0.0
C343 C 0.24316 0.12609 0.79607 0.0
C344 C 0.25438 0.14961 0.77652 0.0
C345 C 0.26757 0.14715 0.71258 0.0
C346 C 0.25506 0.16589 0.66045 0.0
C347 C 0.29724 0.15184 0.72045 0.0
C348 C 0.26157 0.11873 0.69861 0.0
C349 C 0.24751 0.1069 0.74735 0.0
C350 C 0.23874 0.08106 0.74373 0.0
C351 C 0.2443 0.06701 0.68861 0.0
C352 C 0.25864 0.07875 0.63775 0.0
C353 C 0.26762 0.10491 0.64379 0.0
H354 H 0.32655 0.72379 0.29746 0.0
H355 H 0.36839 0.75417 0.46487 0.0
H356 H 0.40602 0.76564 0.39682 0.0
H357 H 0.38405 0.69438 0.22878 0.0
H358 H 0.37269 0.70158 0.14668 0.0
H359 H 0.34942 0.69592 0.20903 0.0
H360 H 0.32786 0.74098 0.17948 0.0
H361 H 0.35123 0.7469 0.11754 0.0
H362 H 0.34769 0.77028 0.18012 0.0
H363 H 0.43713 0.77731 0.30737 0.0
H364 H 0.46154 0.78362 0.20754 0.0
H365 H 0.40127 0.74012 0.10267 0.0
C366 C 0.34371 0.73277 0.31971 0.0
C367 C 0.34466 0.73836 0.38601 0.0
C368 C 0.36746 0.74975 0.41399 0.0
C369 C 0.3888 0.75639 0.37574 0.0
C370 C 0.38715 0.7509 0.31014 0.0
C371 C 0.36539 0.73883 0.28272 0.0
C372 C 0.36875 0.73432 0.21164 0.0
C373 C 0.36874 0.7048 0.19827 0.0
C374 C 0.34763 0.749 0.16975 0.0
C375 C 0.39554 0.74632 0.20287 0.0
C376 C 0.40575 0.756 0.25996 0.0
C377 C 0.42958 0.76929 0.26265 0.0
C378 C 0.44342 0.77261 0.20553 0.0
C379 C 0.43364 0.76228 0.14649 0.0
C380 C 0.40938 0.74877 0.146 0.0
H381 H 0.78979 0.86765 0.81868 0.0
H382 H 0.71283 0.83157 0.82475 0.0
H383 H 0.69568 0.86513 0.74559 0.0
H384 H 0.76748 0.9365 0.79671 0.0
H385 H 0.79302 0.94477 0.74167 0.0
H386 H 0.7986 0.91983 0.80445 0.0
H387 H 0.811 0.88656 0.71853 0.0
H388 H 0.80559 0.91139 0.65568 0.0
H389 H 0.78833 0.88056 0.65188 0.0
H390 H 0.68793 0.89952 0.65812 0.0
H391 H 0.69062 0.93157 0.566 0.0
H392 H 0.77225 0.94572 0.61679 0.0
C393 C 0.76921 0.8671 0.80434 0.0
C394 C 0.75262 0.84702 0.82814 0.0
C395 C 0.72592 0.84673 0.80717 0.0
C396 C 0.71596 0.86581 0.7625 0.0
C397 C 0.73291 0.8851 0.73931 0.0
C398 C 0.75898 0.8859 0.75946 0.0
C399 C 0.77355 0.90735 0.72307 0.0
C400 C 0.78376 0.92836 0.76924 0.0
C401 C 0.79593 0.89577 0.68504 0.0
C402 C 0.75175 0.91808 0.67818 0.0
C403 C 0.72838 0.90516 0.68891 0.0
C404 C 0.70595 0.91014 0.65013 0.0
C405 C 0.70759 0.92838 0.59818 0.0
C406 C 0.73142 0.94142 0.5858 0.0
C407 C 0.75362 0.93656 0.6269 0.0
H408 H 0.82367 0.79237 0.7513 0.0
H409 H 0.86298 0.75809 0.92287 0.0
H410 H 0.89974 0.74422 0.85682 0.0
H411 H 0.84315 0.74533 0.63713 0.0
H412 H 0.84843 0.7695 0.57334 0.0
H413 H 0.82474 0.77555 0.63354 0.0
H414 H 0.84817 0.81914 0.66126 0.0
H415 H 0.8718 0.81332 0.60081 0.0
H416 H 0.88266 0.81874 0.68311 0.0
H417 H 0.93094 0.73226 0.77038 0.0
H418 H 0.95679 0.72746 0.67328 0.0
H419 H 0.89953 0.77506 0.56181 0.0
C420 C 0.84 0.78181 0.77465 0.0
C421 C 0.84056 0.77594 0.84169 0.0
C422 C 0.86235 0.76263 0.87132 0.0
C423 C 0.88319 0.75463 0.83425 0.0
C424 C 0.88208 0.76065 0.76803 0.0
C425 C 0.86128 0.77437 0.73873 0.0
C426 C 0.8656 0.7798 0.66762 0.0
C427 C 0.84421 0.76676 0.62544 0.0
C428 C 0.86716 0.80951 0.65233 0.0
C429 C 0.89189 0.76665 0.66127 0.0
C430 C 0.9009 0.75541 0.71942 0.0
C431 C 0.92429 0.74136 0.72475 0.0
C432 C 0.93897 0.73894 0.66922 0.0
C433 C 0.93051 0.75098 0.60922 0.0
C434 C 0.90659 0.76508 0.60595 0.0
H435 H 0.77737 0.33594 0.36756 0.0
H436 H 0.71648 0.37461 0.47054 0.0
H437 H 0.71935 0.4132 0.39628 0.0
H438 H 0.81572 0.3959 0.32849 0.0
H439 H 0.82342 0.38476 0.24963 0.0
H440 H 0.81867 0.36125 0.31519 0.0
H441 H 0.78298 0.33791 0.24594 0.0
H442 H 0.7875 0.36137 0.1804 0.0
H443 H 0.75544 0.35655 0.21252 0.0
H444 H 0.72555 0.44576 0.30488 0.0
H445 H 0.73487 0.46987 0.20293 0.0
H446 H 0.79269 0.41096 0.16089 0.0
C447 C 0.76503 0.35274 0.37533 0.0
C448 C 0.74671 0.3522 0.42501 0.0
C449 C 0.73064 0.37448 0.43281 0.0
C450 C 0.73218 0.39658 0.391 0.0
C451 C 0.74999 0.39625 0.34169 0.0
C452 C 0.76626 0.375 0.33384 0.0
C453 C 0.78245 0.379 0.27435 0.0
C454 C 0.81181 0.38031 0.29305 0.0
C455 C 0.77674 0.35743 0.22543 0.0
C456 C 0.77221 0.40546 0.24919 0.0
C457 C 0.75368 0.41519 0.28903 0.0
C458 C 0.74037 0.43857 0.2738 0.0
C459 C 0.7459 0.45223 0.21586 0.0
C460 C 0.76455 0.44244 0.17365 0.0
C461 C 0.77816 0.41895 0.19159 0.0
H462 H 0.15379 0.22562 0.84406 0.0
H463 H 0.19188 0.30179 0.84764 0.0
H464 H 0.15856 0.31951 0.76867 0.0
H465 H 0.14077 0.22657 0.67743 0.0
H466 H 0.10958 0.21009 0.68128 0.0
H467 H 0.13416 0.20437 0.74453 0.0
H468 H 0.10124 0.21812 0.82962 0.0
H469 H 0.07656 0.22405 0.76639 0.0
H470 H 0.08542 0.24972 0.82093 0.0
H471 H 0.12424 0.32789 0.68214 0.0
H472 H 0.09274 0.32561 0.58902 0.0
H473 H 0.07668 0.24418 0.63984 0.0
C474 C 0.15478 0.24617 0.82925 0.0
C475 C 0.17535 0.26239 0.85234 0.0
C476 C 0.17631 0.28901 0.83063 0.0
C477 C 0.15737 0.2993 0.78612 0.0
C478 C 0.13756 0.28273 0.76367 0.0
C479 C 0.13616 0.25671 0.78427 0.0
C480 C 0.1144 0.24248 0.74787 0.0
C481 C 0.12539 0.21953 0.71056 0.0
C482 C 0.09314 0.23304 0.79397 0.0
C483 C 0.10427 0.26439 0.70232 0.0
C484 C 0.11765 0.28756 0.71309 0.0
C485 C 0.11329 0.31003 0.67402 0.0
C486 C 0.09535 0.30861 0.62146 0.0
C487 C 0.08201 0.28491 0.60846 0.0
C488 C 0.08606 0.26272 0.65022 0.0
H489 H 0.29264 0.65283 0.37061 0.0
H490 H 0.21443 0.68554 0.3774 0.0
H491 H 0.19777 0.65153 0.30422 0.0
H492 H 0.28958 0.64128 0.2054 0.0
H493 H 0.3083 0.61127 0.21092 0.0
H494 H 0.31335 0.6357 0.27087 0.0
H495 H 0.30369 0.60098 0.36126 0.0
H496 H 0.29847 0.57642 0.30138 0.0
H497 H 0.27334 0.58288 0.35775 0.0
H498 H 0.19037 0.61728 0.22251 0.0
H499 H 0.19324 0.58656 0.13297 0.0
H500 H 0.27612 0.576 0.1773 0.0
C501 C 0.2719 0.65244 0.35787 0.0
C502 C 0.25476 0.67168 0.38012 0.0
C503 C 0.22788 0.67095 0.36101 0.0
C504 C 0.21822 0.65162 0.3198 0.0
C505 C 0.23568 0.63316 0.29797 0.0
C506 C 0.26198 0.63344 0.3161 0.0
C507 C 0.27704 0.61307 0.28058 0.0
C508 C 0.29831 0.62612 0.23951 0.0
C509 C 0.28883 0.59209 0.32809 0.0
C510 C 0.2552 0.60173 0.23849 0.0
C511 C 0.23143 0.61335 0.25011 0.0
C512 C 0.20874 0.60767 0.21385 0.0
C513 C 0.2105 0.59018 0.16335 0.0
C514 C 0.23473 0.57859 0.14967 0.0
C515 C 0.25723 0.58401 0.18845 0.0
H516 H 0.3233 0.77272 0.72618 0.0
H517 H 0.36577 0.71972 0.60774 0.0
H518 H 0.40553 0.7256 0.67648 0.0
H519 H 0.37944 0.81705 0.76542 0.0
H520 H 0.36962 0.82083 0.84739 0.0
H521 H 0.34526 0.81538 0.78408 0.0
H522 H 0.32793 0.77504 0.84908 0.0
H523 H 0.35225 0.7803 0.91236 0.0
H524 H 0.35026 0.749 0.87437 0.0
H525 H 0.43909 0.73321 0.76267 0.0
H526 H 0.46435 0.74125 0.8633 0.0
H527 H 0.40119 0.79005 0.92737 0.0
C528 C 0.34116 0.76287 0.71405 0.0
C529 C 0.34151 0.74581 0.6616 0.0
C530 C 0.36506 0.73279 0.6479 0.0
C531 C 0.3878 0.73612 0.68638 0.0
C532 C 0.38674 0.75255 0.73859 0.0
C533 C 0.3641 0.76576 0.75263 0.0
C534 C 0.36782 0.78038 0.81501 0.0
C535 C 0.36539 0.81018 0.80219 0.0
C536 C 0.34841 0.77059 0.86568 0.0
C537 C 0.39576 0.77266 0.8345 0.0
C538 C 0.40637 0.75691 0.78915 0.0
C539 C 0.43123 0.74594 0.79806 0.0
C540 C 0.44553 0.7508 0.85538 0.0
C541 C 0.43498 0.76649 0.90344 0.0
C542 C 0.40989 0.77792 0.89191 0.0
H543 H 0.77432 0.83113 0.20266 0.0
H544 H 0.74405 0.87356 0.03096 0.0
H545 H 0.73199 0.91076 0.09792 0.0
H546 H 0.72699 0.85363 0.31501 0.0
H547 H 0.75096 0.85652 0.3804 0.0
H548 H 0.75543 0.83265 0.31948 0.0
H549 H 0.80102 0.85246 0.29598 0.0
H550 H 0.79667 0.87641 0.35671 0.0
H551 H 0.80372 0.88698 0.27518 0.0
H552 H 0.72321 0.94331 0.18453 0.0
H553 H 0.72008 0.96927 0.28255 0.0
H554 H 0.76024 0.90693 0.39488 0.0
C555 C 0.76478 0.84809 0.17939 0.0
C556 C 0.75979 0.84943 0.11187 0.0
C557 C 0.74791 0.87219 0.08277 0.0
C558 C 0.74097 0.89336 0.12037 0.0
C559 C 0.74644 0.89158 0.18682 0.0
C560 C 0.75826 0.8696 0.21597 0.0
C561 C 0.76342 0.87322 0.28757 0.0
C562 C 0.74829 0.85279 0.32798 0.0
C563 C 0.79296 0.87221 0.30485 0.0
C564 C 0.75251 0.90057 0.29424 0.0
C565 C 0.74259 0.91077 0.23582 0.0
C566 C 0.7311 0.93559 0.2305 0.0
C567 C 0.72962 0.95031 0.28648 0.0
C568 C 0.73987 0.94031 0.34698 0.0
C569 C 0.75167 0.91513 0.35011 0.0
H570 H 0.66419 0.2956 0.72188 0.0
H571 H 0.69708 0.21735 0.71247 0.0
H572 H 0.66373 0.20043 0.78703 0.0
H573 H 0.65213 0.29196 0.88888 0.0
H574 H 0.62222 0.31071 0.88169 0.0
H575 H 0.64729 0.31603 0.82375 0.0
H576 H 0.61364 0.30675 0.73061 0.0
H577 H 0.58847 0.30123 0.78839 0.0
H578 H 0.59562 0.27629 0.73179 0.0
H579 H 0.62837 0.19263 0.86796 0.0
H580 H 0.59512 0.19511 0.9521 0.0
H581 H 0.58561 0.2783 0.90852 0.0
C582 C 0.66423 0.27482 0.73478 0.0
C583 C 0.68323 0.25777 0.71105 0.0
C584 C 0.68276 0.2308 0.73003 0.0
C585 C 0.66381 0.22099 0.77212 0.0
C586 C 0.64547 0.23839 0.79486 0.0
C587 C 0.64561 0.26477 0.777 0.0
C588 C 0.62486 0.27969 0.81128 0.0
C589 C 0.63738 0.30084 0.85393 0.0
C590 C 0.60443 0.29169 0.7626 0.0
C591 C 0.61315 0.25766 0.85182 0.0
C592 C 0.62515 0.23393 0.84129 0.0
C593 C 0.61859 0.21102 0.87587 0.0
C594 C 0.59967 0.21254 0.92323 0.0
C595 C 0.58755 0.23673 0.93523 0.0
C596 C 0.59415 0.25946 0.89865 0.0
H597 H 0.27011 0.19201 0.22248 0.0
H598 H 0.21965 0.14941 0.08935 0.0
H599 H 0.2242 0.10955 0.15964 0.0
H600 H 0.31358 0.13636 0.2737 0.0
H601 H 0.31577 0.1461 0.35665 0.0
H602 H 0.31115 0.17057 0.29236 0.0
H603 H 0.26963 0.18736 0.34633 0.0
H604 H 0.27407 0.16293 0.41057 0.0
H605 H 0.24356 0.16464 0.36411 0.0
H606 H 0.23138 0.0753 0.24711 0.0
H607 H 0.23932 0.04937 0.34862 0.0
H608 H 0.28471 0.11381 0.42705 0.0
C609 C 0.26052 0.17411 0.20764 0.0
C610 C 0.24464 0.17372 0.15033 0.0
C611 C 0.23187 0.15012 0.13314 0.0
C612 C 0.23443 0.12734 0.17256 0.0
C613 C 0.24976 0.12843 0.22934 0.0
C614 C 0.26257 0.15117 0.24709 0.0
C615 C 0.27607 0.14751 0.31326 0.0
C616 C 0.30592 0.1503 0.30869 0.0
C617 C 0.26517 0.16675 0.36139 0.0
C618 C 0.26839 0.11939 0.33022 0.0
C619 C 0.25353 0.10866 0.28072 0.0
C620 C 0.24328 0.08335 0.28597 0.0
C621 C 0.24802 0.0687 0.34375 0.0
C622 C 0.26274 0.07943 0.39584 0.0
C623 C 0.27332 0.10503 0.38828 0.0
H624 H 0.24908 0.33088 0.09205 0.0
H625 H 0.26074 0.32263 0.88686 0.0
H626 H 0.26452 0.37067 0.87295 0.0
H627 H 0.21092 0.39111 0.07726 0.0
H628 H 0.22574 0.40481 0.14894 0.0
H629 H 0.22298 0.36971 0.14276 0.0
H630 H 0.27302 0.36496 0.16464 0.0
H631 H 0.27594 0.40002 0.17088 0.0
H632 H 0.29521 0.38308 0.11403 0.0
H633 H 0.26757 0.41957 0.88075 0.0
H634 H 0.27138 0.46605 0.91134 0.0
H635 H 0.25853 0.44304 0.11117 0.0
C636 C 0.25231 0.33918 0.04414 0.0
C637 C 0.25466 0.32286 0.99057 0.0
C638 C 0.25901 0.3346 0.92878 0.0
C639 C 0.26109 0.36193 0.92026 0.0
C640 C 0.25883 0.3774 0.97397 0.0
C641 C 0.25462 0.36651 0.03477 0.0
C642 C 0.25373 0.38762 0.08469 0.0
C643 C 0.22673 0.38835 0.1152 0.0
C644 C 0.27579 0.38368 0.13662 0.0
C645 C 0.2583 0.41202 0.04249 0.0
C646 C 0.26101 0.40566 0.97868 0.0
C647 C 0.26556 0.42478 0.93059 0.0
C648 C 0.26773 0.45107 0.9483 0.0
C649 C 0.26565 0.45797 0.01357 0.0
C650 C 0.26045 0.4382 0.06101 0.0
H651 H 0.184 0.75039 0.59812 0.0
H652 H 0.19448 0.75345 0.39064 0.0
H653 H 0.14676 0.75668 0.37168 0.0
H654 H 0.12332 0.71221 0.59471 0.0
H655 H 0.10909 0.73013 0.65841 0.0
H656 H 0.14414 0.72656 0.65623 0.0
H657 H 0.14947 0.77713 0.65747 0.0
H658 H 0.11446 0.78085 0.65957 0.0
H659 H 0.13235 0.79735 0.59662 0.0
H660 H 0.09825 0.76096 0.37416 0.0
H661 H 0.05165 0.76733 0.39905 0.0
H662 H 0.07204 0.76215 0.60415 0.0
C663 C 0.17622 0.75152 0.54875 0.0
C664 C 0.19304 0.75174 0.4959 0.0
C665 C 0.18206 0.75344 0.43199 0.0
C666 C 0.15494 0.75516 0.42061 0.0
C667 C 0.13893 0.75519 0.47358 0.0
C668 C 0.14908 0.75346 0.53641 0.0
C669 C 0.12745 0.75499 0.58452 0.0
C670 C 0.12591 0.72945 0.6259 0.0
C671 C 0.13116 0.77901 0.62703 0.0
C672 C 0.10369 0.75817 0.53882 0.0
C673 C 0.11078 0.75801 0.47503 0.0
C674 C 0.09242 0.76109 0.4239 0.0
C675 C 0.06608 0.76472 0.43835 0.0
C676 C 0.05846 0.76548 0.50325 0.0
C677 C 0.07746 0.76177 0.55408 0.0
H678 H 0.77141 0.69149 0.07657 0.0
H679 H 0.78508 0.69908 0.87079 0.0
H680 H 0.78973 0.65113 0.86624 0.0
H681 H 0.8182 0.63978 0.11066 0.0
H682 H 0.79856 0.62291 0.16961 0.0
H683 H 0.79546 0.65791 0.1567 0.0
H684 H 0.7456 0.6526 0.13336 0.0
H685 H 0.74857 0.61755 0.14595 0.0
H686 H 0.73424 0.63095 0.07115 0.0
H687 H 0.79297 0.60238 0.88301 0.0
H688 H 0.79694 0.55604 0.92231 0.0
H689 H 0.78199 0.57957 0.11692 0.0
C690 C 0.77529 0.68307 0.03052 0.0
C691 C 0.77775 0.69919 0.97403 0.0
C692 C 0.78307 0.68729 0.91485 0.0
C693 C 0.78568 0.66 0.91162 0.0
C694 C 0.78306 0.64471 0.96798 0.0
C695 C 0.77813 0.65576 0.02643 0.0
C696 C 0.77698 0.63481 0.0801 0.0
C697 C 0.79859 0.63911 0.13234 0.0
C698 C 0.74972 0.63393 0.10935 0.0
C699 C 0.78209 0.61033 0.04263 0.0
C700 C 0.78538 0.61651 0.97792 0.0
C701 C 0.7905 0.59729 0.9336 0.0
C702 C 0.7927 0.57109 0.9562 0.0
C703 C 0.79005 0.5644 0.02249 0.0
C704 C 0.78426 0.58425 0.066 0.0
H705 H 0.82901 0.27625 0.45323 0.0
H706 H 0.83277 0.28194 0.66225 0.0
H707 H 0.88097 0.28445 0.66045 0.0
H708 H 0.8874 0.23682 0.43976 0.0
H709 H 0.89734 0.25364 0.36666 0.0
H710 H 0.86311 0.25137 0.38434 0.0
H711 H 0.85899 0.30204 0.37424 0.0
H712 H 0.89315 0.30446 0.35618 0.0
H713 H 0.8806 0.32214 0.42246 0.0
H714 H 0.92896 0.28674 0.63608 0.0
H715 H 0.9729 0.29135 0.58965 0.0
H716 H 0.93799 0.28494 0.39693 0.0
C717 C 0.83995 0.27788 0.4987 0.0
C718 C 0.82699 0.27873 0.55794 0.0
C719 C 0.84214 0.28119 0.61621 0.0
C720 C 0.86958 0.28255 0.61575 0.0
C721 C 0.88171 0.28155 0.55663 0.0
C722 C 0.86739 0.27944 0.49911 0.0
C723 C 0.88518 0.27977 0.44195 0.0
C724 C 0.88313 0.25386 0.40607 0.0
C725 C 0.87912 0.30352 0.39602 0.0
C726 C 0.91173 0.28249 0.47628 0.0
C727 C 0.90931 0.28328 0.5425 0.0
C728 C 0.93109 0.28611 0.58432 0.0
C729 C 0.95592 0.28864 0.5577 0.0
C730 C 0.95875 0.2885 0.48997 0.0
C731 C 0.93637 0.28502 0.44894 0.0
H732 H 0.74857 0.19517 0.43898 0.0
H733 H 0.75088 0.19218 0.64898 0.0
H734 H 0.75173 0.14386 0.64898 0.0
H735 H 0.70802 0.1363 0.41658 0.0
H736 H 0.72591 0.12582 0.34849 0.0
H737 H 0.72346 0.16028 0.36443 0.0
H738 H 0.77407 0.16406 0.36734 0.0
H739 H 0.77668 0.12964 0.35159 0.0
H740 H 0.79323 0.14275 0.42179 0.0
H741 H 0.75413 0.09606 0.62735 0.0
H742 H 0.7593 0.05162 0.58446 0.0
H743 H 0.75641 0.08491 0.3889 0.0
C744 C 0.74888 0.18431 0.48486 0.0
C745 C 0.74965 0.19749 0.54399 0.0
C746 C 0.75044 0.18255 0.60306 0.0
C747 C 0.7508 0.15506 0.60362 0.0
C748 C 0.75044 0.14266 0.54471 0.0
C749 C 0.74954 0.15672 0.48636 0.0
C750 C 0.75074 0.13843 0.43011 0.0
C751 C 0.72553 0.14032 0.38739 0.0
C752 C 0.77513 0.14406 0.39038 0.0
C753 C 0.7528 0.11202 0.46611 0.0
C754 C 0.75234 0.11494 0.53218 0.0
C755 C 0.75447 0.0935 0.5757 0.0
C756 C 0.75744 0.0684 0.55107 0.0
C757 C 0.75853 0.06499 0.4837 0.0
C758 C 0.75578 0.08706 0.4407 0.0
H759 H 0.33173 0.25893 0.08108 0.0
H760 H 0.3226 0.21259 0.9094 0.0
H761 H 0.37069 0.21087 0.90153 0.0
H762 H 0.384 0.29795 0.02615 0.0
H763 H 0.40086 0.2993 0.10396 0.0
H764 H 0.36586 0.29508 0.09921 0.0
H765 H 0.37009 0.25265 0.17131 0.0
H766 H 0.40514 0.25677 0.17648 0.0
H767 H 0.39124 0.22658 0.14786 0.0
H768 H 0.41992 0.21646 0.9086 0.0
H769 H 0.46624 0.229 0.9305 0.0
H770 H 0.44316 0.27175 0.09684 0.0
C771 C 0.33979 0.24806 0.04236 0.0
C772 C 0.32326 0.23582 0.99597 0.0
C773 C 0.33476 0.22211 0.94559 0.0
C774 C 0.3621 0.22099 0.94076 0.0
C775 C 0.37778 0.23363 0.98667 0.0
C776 C 0.36704 0.24684 0.03663 0.0
C777 C 0.38814 0.25982 0.07792 0.0
C778 C 0.38449 0.28981 0.0767 0.0
C779 C 0.38868 0.24826 0.14752 0.0
C780 C 0.41241 0.25217 0.04291 0.0
C781 C 0.40605 0.23691 0.99063 0.0
C782 C 0.42513 0.22818 0.94976 0.0
C783 C 0.45133 0.23536 0.96248 0.0
C784 C 0.45823 0.25111 0.01551 0.0
C785 C 0.43847 0.25946 0.05633 0.0
H786 H 0.27051 0.83003 0.58776 0.0
H787 H 0.29411 0.82018 0.39047 0.0
H788 H 0.30057 0.86804 0.37772 0.0
H789 H 0.2354 0.89078 0.55872 0.0
H790 H 0.24613 0.90451 0.63433 0.0
H791 H 0.2431 0.86945 0.62801 0.0
H792 H 0.29149 0.86359 0.66765 0.0
H793 H 0.29465 0.89862 0.67433 0.0
H794 H 0.31687 0.88102 0.62568 0.0
H795 H 0.30391 0.9172 0.38562 0.0
H796 H 0.30612 0.9638 0.41605 0.0
H797 H 0.28117 0.94178 0.60831 0.0
C798 C 0.277 0.8379 0.5418 0.0
C799 C 0.28168 0.82122 0.49003 0.0
C800 C 0.29035 0.83243 0.4309 0.0
C801 C 0.29403 0.85965 0.42309 0.0
C802 C 0.28909 0.87549 0.47489 0.0
C803 C 0.28092 0.86503 0.53324 0.0
C804 C 0.27745 0.88637 0.58166 0.0
C805 C 0.24882 0.88786 0.60185 0.0
C806 C 0.29624 0.88214 0.64082 0.0
C807 C 0.28496 0.91046 0.54143 0.0
C808 C 0.29149 0.90376 0.47985 0.0
C809 C 0.29899 0.92265 0.43381 0.0
C810 C 0.3002 0.94902 0.45142 0.0
C811 C 0.29422 0.95622 0.51468 0.0
C812 C 0.28612 0.9367 0.55983 0.0
H813 H 0.68818 0.78745 0.07815 0.0
H814 H 0.68886 0.75661 0.88499 0.0
H815 H 0.64064 0.75741 0.87898 0.0
H816 H 0.63089 0.75155 0.13051 0.0
H817 H 0.61872 0.77832 0.17568 0.0
H818 H 0.65341 0.77481 0.16562 0.0
H819 H 0.65541 0.82222 0.11671 0.0
H820 H 0.62073 0.82587 0.12649 0.0
H821 H 0.63431 0.83135 0.04799 0.0
H822 H 0.59241 0.76273 0.89201 0.0
H823 H 0.54718 0.77153 0.92494 0.0
H824 H 0.57754 0.79837 0.10954 0.0
C825 C 0.67821 0.78069 0.03475 0.0
C826 C 0.69242 0.77188 0.98215 0.0
C827 C 0.67852 0.76337 0.92609 0.0
C828 C 0.65108 0.76376 0.92212 0.0
C829 C 0.63772 0.77266 0.9746 0.0
C830 C 0.65077 0.78091 0.02994 0.0
C831 C 0.63166 0.78987 0.07909 0.0
C832 C 0.6338 0.7726 0.1414 0.0
C833 C 0.63578 0.81906 0.09338 0.0
C834 C 0.60587 0.78549 0.04254 0.0
C835 C 0.60983 0.77555 0.98233 0.0
C836 C 0.58904 0.77034 0.9392 0.0
C837 C 0.56349 0.77536 0.9582 0.0
C838 C 0.55898 0.78533 0.01981 0.0
C839 C 0.58047 0.79051 0.06237 0.0
loop_
_geom_bond_atom_site_label_1
_geom_bond_atom_site_label_2
_geom_bond_distance
_geom_bond_site_symmetry_2
_ccdc_geom_bond_type
Fe0 O2 1.918 . S
Fe0 O5 1.997 . S
Fe0 O6 2.002 . S
Fe0 O11 1.976 . S
Fe0 O14 1.996 . S
Fe1 O2 1.918 1_556 S
Fe1 O9 1.997 . S
Fe1 O12 1.996 . S
Fe1 O16 1.976 . S
Fe1 O19 2.002 . S
O2 Fe0 1.918 . S
O2 Fe1 1.918 1_554 S
O2 Fe3 1.918 . S
Fe3 O2 1.918 . S
Fe3 O4 2.002 . S
Fe3 O13 1.976 . S
Fe3 O17 1.996 1_554 S
Fe3 O20 1.997 1_554 S
O4 Fe3 2.002 . S
O4 C21 1.295 . S
O5 Fe0 1.997 . S
O5 C21 1.235 . S
O6 Fe0 2.002 . S
O6 C7 1.295 . S
C7 O6 1.295 . S
C7 O9 1.235 1_554 S
C8 O13 1.287 . S
C8 O14 1.255 . S
O9 Fe1 1.997 . S
O9 C7 1.235 1_556 S
C10 O16 1.287 . S
C10 O17 1.255 . S
O11 Fe0 1.976 . S
O11 C18 1.287 . S
O12 Fe1 1.996 . S
O12 C18 1.255 1_556 S
O13 Fe3 1.976 . S
O13 C8 1.287 . S
O14 Fe0 1.996 . S
O14 C8 1.255 . S
C15 O19 1.295 . S
C15 O20 1.235 . S
O16 Fe1 1.976 . S
O16 C10 1.287 . S
O17 Fe3 1.996 1_556 S
O17 C10 1.255 . S
C18 O11 1.287 . S
C18 O12 1.255 1_554 S
O19 Fe1 2.002 . S
O19 C15 1.295 . S
O20 Fe3 1.997 1_556 S
O20 C15 1.235 . S
C21 O4 1.295 . S
C21 O5 1.235 . S
Fe22 O24 1.918 . S
Fe22 O27 1.997 . S
Fe22 O28 2.002 . S
Fe22 O33 1.976 . S
Fe22 O36 1.996 . S
Fe23 O24 1.918 . S
Fe23 O31 1.997 . S
Fe23 O34 1.996 . S
Fe23 O38 1.976 . S
Fe23 O41 2.002 . S
O24 Fe22 1.918 . S
O24 Fe23 1.918 . S
O24 Fe25 1.918 . S
Fe25 O24 1.918 . S
Fe25 O26 2.002 . S
Fe25 O35 1.976 . S
Fe25 O39 1.996 . S
Fe25 O42 1.997 . S
O26 Fe25 2.002 . S
O26 C43 1.295 . S
O27 Fe22 1.997 . S
O27 C43 1.235 . S
O28 Fe22 2.002 . S
O28 C29 1.295 . S
C29 O28 1.295 . S
C29 O31 1.235 . S
C30 O35 1.287 . S
C30 O36 1.255 . S
O31 Fe23 1.997 . S
O31 C29 1.235 . S
C32 O38 1.287 . S
C32 O39 1.255 . S
O33 Fe22 1.976 . S
O33 C40 1.287 . S
O34 Fe23 1.996 . S
O34 C40 1.255 . S
O35 Fe25 1.976 . S
O35 C30 1.287 . S
O36 Fe22 1.996 . S
O36 C30 1.255 . S
C37 O41 1.295 . S
C37 O42 1.235 . S
O38 Fe23 1.976 . S
O38 C32 1.287 . S
O39 Fe25 1.996 . S
O39 C32 1.255 . S
C40 O33 1.287 . S
C40 O34 1.255 . S
O41 Fe23 2.002 . S
O41 C37 1.295 . S
O42 Fe25 1.997 . S
O42 C37 1.235 . S
C43 O26 1.295 . S
C43 O27 1.235 . S
Fe44 O46 1.918 1_556 S
Fe44 O49 1.997 . S
Fe44 O50 2.002 . S
Fe44 O55 1.976 . S
Fe44 O58 1.996 . S
Fe45 O46 1.918 . S
Fe45 O53 1.997 . S
Fe45 O56 1.996 . S
Fe45 O60 1.976 . S
Fe45 O63 2.002 . S
O46 Fe44 1.918 1_554 S
O46 Fe45 1.918 . S
O46 Fe47 1.918 . S
Fe47 O46 1.918 . S
Fe47 O48 2.002 1_554 S
Fe47 O57 1.976 1_554 S
Fe47 O61 1.996 . S
Fe47 O64 1.997 . S
O48 Fe47 2.002 1_556 S
O48 C65 1.295 . S
O49 Fe44 1.997 . S
O49 C65 1.235 . S
O50 Fe44 2.002 . S
O50 C51 1.295 1_556 S
C51 O50 1.295 1_554 S
C51 O53 1.235 . S
C52 O57 1.287 . S
C52 O58 1.255 . S
O53 Fe45 1.997 . S
O53 C51 1.235 . S
C54 O60 1.287 . S
C54 O61 1.255 . S
O55 Fe44 1.976 . S
O55 C62 1.287 1_556 S
O56 Fe45 1.996 . S
O56 C62 1.255 . S
O57 Fe47 1.976 1_556 S
O57 C52 1.287 . S
O58 Fe44 1.996 . S
O58 C52 1.255 . S
C59 O63 1.295 . S
C59 O64 1.235 . S
O60 Fe45 1.976 . S
O60 C54 1.287 . S
O61 Fe47 1.996 . S
O61 C54 1.255 . S
C62 O55 1.287 1_554 S
C62 O56 1.255 . S
O63 Fe45 2.002 . S
O63 C59 1.295 . S
O64 Fe47 1.997 . S
O64 C59 1.235 . S
C65 O48 1.295 . S
C65 O49 1.235 . S
Fe66 O68 1.918 . S
Fe66 O71 1.997 . S
Fe66 O72 2.002 . S
Fe66 O77 1.976 . S
Fe66 O80 1.996 . S
Fe67 O68 1.918 . S
Fe67 O75 1.997 . S
Fe67 O78 1.996 . S
Fe67 O82 1.976 . S
Fe67 O85 2.002 . S
O68 Fe66 1.918 . S
O68 Fe67 1.918 . S
O68 Fe69 1.918 . S
Fe69 O68 1.918 . S
Fe69 O70 2.002 . S
Fe69 O79 1.976 . S
Fe69 O83 1.996 . S
Fe69 O86 1.997 . S
O70 Fe69 2.002 . S
O70 C87 1.295 . S
O71 Fe66 1.997 . S
O71 C87 1.235 . S
O72 Fe66 2.002 . S
O72 C73 1.295 . S
C73 O72 1.295 . S
C73 O75 1.235 . S
C74 O79 1.287 . S
C74 O80 1.255 . S
O75 Fe67 1.997 . S
O75 C73 1.235 . S
C76 O82 1.287 . S
C76 O83 1.255 . S
O77 Fe66 1.976 . S
O77 C84 1.287 . S
O78 Fe67 1.996 . S
O78 C84 1.255 . S
O79 Fe69 1.976 . S
O79 C74 1.287 . S
O80 Fe66 1.996 . S
O80 C74 1.255 . S
C81 O85 1.295 . S
C81 O86 1.235 . S
O82 Fe67 1.976 . S
O82 C76 1.287 . S
O83 Fe69 1.996 . S
O83 C76 1.255 . S
C84 O77 1.287 . S
C84 O78 1.255 . S
O85 Fe67 2.002 . S
O85 C81 1.295 . S
O86 Fe69 1.997 . S
O86 C81 1.235 . S
C87 O70 1.295 . S
C87 O71 1.235 . S
H88 C95 0.929 . S
H89 C98 0.930 . S
H90 C100 0.929 . S
H91 C92 0.969 . S
C92 H91 0.969 . S
C92 O93 1.550 1_556 S
C92 H94 0.973 . S
O93 C92 1.550 1_554 S
O93 C99 1.412 . S
H94 C92 0.973 . S
C95 H88 0.929 . S
C95 C96 1.400 . S
C95 C97 1.364 1_554 S
C96 C95 1.400 . S
C96 C100 1.377 . S
C97 C95 1.364 1_556 S
C97 C98 1.374 . S
C98 H89 0.930 . S
C98 C97 1.374 . S
C98 C99 1.383 1_556 S
C99 O93 1.412 . S
C99 C98 1.383 1_554 S
C99 C100 1.394 . S
C100 H90 0.929 . S
C100 C96 1.377 . S
C100 C99 1.394 . S
H101 C108 0.929 . S
H102 C111 0.944 . S
H103 C113 0.929 . S
H104 C105 0.969 . S
C105 H104 0.969 . S
C105 O106 1.550 . S
C105 H107 0.973 . S
O106 C105 1.550 . S
O106 C112 1.436 . S
H107 C105 0.973 . S
C108 H101 0.929 . S
C108 C109 1.400 . S
C108 C110 1.364 . S
C109 C108 1.400 . S
C109 C113 1.377 . S
C110 C108 1.364 . S
C110 C111 1.374 . S
C111 H102 0.944 . S
C111 C110 1.374 . S
C111 C112 1.373 1_655 S
C112 O106 1.436 . S
C112 C111 1.373 1_455 S
C112 C113 1.379 1_455 S
C113 H103 0.929 . S
C113 C109 1.377 . S
C113 C112 1.379 1_655 S
H114 C121 0.929 . S
H115 C124 0.930 . S
H116 C126 0.929 . S
H117 C118 0.969 . S
C118 H117 0.969 . S
C118 O119 1.550 1_554 S
C118 H120 0.973 . S
O119 C118 1.550 1_556 S
O119 C125 1.412 . S
H120 C118 0.973 . S
C121 H114 0.929 . S
C121 C122 1.400 1_554 S
C121 C123 1.364 . S
C122 C121 1.400 1_556 S
C122 C126 1.377 . S
C123 C121 1.364 . S
C123 C124 1.374 . S
C124 H115 0.930 . S
C124 C123 1.374 . S
C124 C125 1.383 1_554 S
C125 O119 1.412 . S
C125 C124 1.383 1_556 S
C125 C126 1.394 . S
C126 H116 0.929 . S
C126 C122 1.377 . S
C126 C125 1.394 . S
H127 C134 0.929 . S
H128 C137 0.920 1_655 S
H129 C139 0.929 . S
H130 C131 0.969 . S
C131 H130 0.969 . S
C131 O132 1.550 . S
C131 H133 0.973 . S
O132 C131 1.550 . S
O132 C138 1.412 . S
H133 C131 0.973 . S
C134 H127 0.929 . S
C134 C135 1.400 . S
C134 C136 1.364 . S
C135 C134 1.400 . S
C135 C139 1.377 . S
C136 C134 1.364 . S
C136 C137 1.374 . S
C137 H128 0.920 1_455 S
C137 C136 1.374 . S
C137 C138 1.383 1_455 S
C138 O132 1.412 . S
C138 C137 1.383 1_655 S
C138 C139 1.394 1_655 S
C139 H129 0.929 . S
C139 C135 1.377 . S
C139 C138 1.394 1_455 S
H140 C147 0.929 . S
H141 C150 0.930 1_545 S
H142 C152 0.929 . S
H143 C144 0.969 . S
C144 H143 0.969 . S
C144 O145 1.550 . S
C144 H146 0.973 . S
O145 C144 1.550 . S
O145 C151 1.412 . S
H146 C144 0.973 . S
C147 H140 0.929 . S
C147 C148 1.400 . S
C147 C149 1.364 . S
C148 C147 1.400 . S
C148 C152 1.377 . S
C149 C147 1.364 . S
C149 C150 1.374 . S
C150 H141 0.930 1_565 S
C150 C149 1.374 . S
C150 C151 1.383 1_565 S
C151 O145 1.412 . S
C151 C150 1.383 1_545 S
C151 C152 1.394 1_545 S
C152 H142 0.929 . S
C152 C148 1.377 . S
C152 C151 1.394 1_565 S
H153 C160 0.929 1_554 S
H154 C163 0.930 . S
H155 C165 0.929 . S
H156 C157 0.969 . S
C157 H156 0.969 . S
C157 O158 1.550 1_554 S
C157 H159 0.973 . S
O158 C157 1.550 1_556 S
O158 C164 1.412 . S
H159 C157 0.973 . S
C160 H153 0.929 1_556 S
C160 C161 1.400 . S
C160 C162 1.364 1_556 S
C161 C160 1.400 . S
C161 C165 1.377 . S
C162 C160 1.364 1_554 S
C162 C163 1.374 . S
C163 H154 0.930 . S
C163 C162 1.374 . S
C163 C164 1.383 1_554 S
C164 O158 1.412 . S
C164 C163 1.383 1_556 S
C164 C165 1.394 . S
C165 H155 0.929 . S
C165 C161 1.377 . S
C165 C164 1.394 . S
H166 C173 0.929 . S
H167 C176 0.930 1_565 S
H168 C178 0.929 . S
H169 C170 0.969 . S
C170 H169 0.969 . S
C170 O171 1.550 . S
C170 H172 0.973 . S
O171 C170 1.550 . S
O171 C177 1.412 . S
H172 C170 0.973 . S
C173 H166 0.929 . S
C173 C174 1.400 . S
C173 C175 1.364 . S
C174 C173 1.400 . S
C174 C178 1.377 . S
C175 C173 1.364 . S
C175 C176 1.374 . S
C176 H167 0.930 1_545 S
C176 C175 1.374 . S
C176 C177 1.383 1_545 S
C177 O171 1.412 . S
C177 C176 1.383 1_565 S
C177 C178 1.394 1_565 S
C178 H168 0.929 . S
C178 C174 1.377 . S
C178 C177 1.394 1_545 S
H179 C186 0.929 . S
H180 C189 0.930 . S
H181 C191 0.929 . S
H182 C183 0.969 . S
C183 H182 0.969 . S
C183 O184 1.550 1_556 S
C183 H185 0.973 . S
O184 C183 1.550 1_554 S
O184 C190 1.412 . S
H185 C183 0.973 . S
C186 H179 0.929 . S
C186 C187 1.400 . S
C186 C188 1.364 1_554 S
C187 C186 1.400 . S
C187 C191 1.377 . S
C188 C186 1.364 1_556 S
C188 C189 1.374 . S
C189 H180 0.930 . S
C189 C188 1.374 . S
C189 C190 1.383 1_556 S
C190 O184 1.412 . S
C190 C189 1.383 1_554 S
C190 C191 1.394 . S
C191 H181 0.929 . S
C191 C187 1.377 . S
C191 C190 1.394 . S
H192 C204 0.930 . S
H193 C206 0.930 . S
H194 C207 0.930 . S
H195 C211 0.959 . S
H196 C211 0.959 . S
H197 C211 0.961 . S
H198 C212 0.960 . S
H199 C212 0.961 . S
H200 C212 0.959 . S
H201 C215 0.929 . S
H202 C216 0.931 . S
H203 C218 0.930 . S
C204 H192 0.930 . S
C204 C205 1.399 . S
C204 C209 1.399 . S
C205 C204 1.399 . S
C205 C206 1.376 . S
C206 H193 0.930 . S
C206 C205 1.376 . S
C206 C207 1.388 . S
C207 H194 0.930 . S
C207 C206 1.388 . S
C207 C208 1.390 . S
C208 C207 1.390 . S
C208 C209 1.394 . S
C208 C214 1.465 . S
C209 C204 1.399 . S
C209 C208 1.394 . S
C209 C210 1.516 . S
C210 C209 1.516 . S
C210 C211 1.502 . S
C210 C212 1.561 . S
C210 C213 1.526 . S
C211 H195 0.959 . S
C211 H196 0.959 . S
C211 H197 0.961 . S
C211 C210 1.502 . S
C212 H198 0.960 . S
C212 H199 0.961 . S
C212 H200 0.959 . S
C212 C210 1.561 . S
C213 C210 1.526 . S
C213 C214 1.396 . S
C213 C218 1.390 . S
C214 C208 1.465 . S
C214 C213 1.396 . S
C214 C215 1.399 . S
C215 H201 0.929 . S
C215 C214 1.399 . S
C215 C216 1.385 . S
C216 H202 0.931 . S
C216 C215 1.385 . S
C216 C217 1.389 . S
C217 C216 1.389 . S
C217 C218 1.387 . S
C218 H203 0.930 . S
C218 C213 1.390 . S
C218 C217 1.387 . S
H219 C231 0.930 . S
H220 C233 0.930 . S
H221 C234 0.930 . S
H222 C238 0.959 . S
H223 C238 0.959 . S
H224 C238 0.961 . S
H225 C239 0.960 . S
H226 C239 0.961 . S
H227 C239 0.959 . S
H228 C242 0.929 . S
H229 C243 0.931 . S
H230 C245 0.930 . S
C231 H219 0.930 . S
C231 C232 1.399 . S
C231 C236 1.399 . S
C232 C231 1.399 . S
C232 C233 1.376 . S
C233 H220 0.930 . S
C233 C232 1.376 . S
C233 C234 1.388 . S
C234 H221 0.930 . S
C234 C233 1.388 . S
C234 C235 1.390 . S
C235 C234 1.390 . S
C235 C236 1.394 . S
C235 C241 1.465 . S
C236 C231 1.399 . S
C236 C235 1.394 . S
C236 C237 1.516 . S
C237 C236 1.516 . S
C237 C238 1.502 . S
C237 C239 1.561 . S
C237 C240 1.526 . S
C238 H222 0.959 . S
C238 H223 0.959 . S
C238 H224 0.961 . S
C238 C237 1.502 . S
C239 H225 0.960 . S
C239 H226 0.961 . S
C239 H227 0.959 . S
C239 C237 1.561 . S
C240 C237 1.526 . S
C240 C241 1.396 . S
C240 C245 1.390 . S
C241 C235 1.465 . S
C241 C240 1.396 . S
C241 C242 1.399 . S
C242 H228 0.929 . S
C242 C241 1.399 . S
C242 C243 1.385 . S
C243 H229 0.931 . S
C243 C242 1.385 . S
C243 C244 1.389 . S
C244 C243 1.389 . S
C244 C245 1.387 . S
C245 H230 0.930 . S
C245 C240 1.390 . S
C245 C244 1.387 . S
H246 C258 0.930 . S
H247 C260 0.930 . S
H248 C261 0.930 . S
H249 C265 0.959 . S
H250 C265 0.959 . S
H251 C265 0.961 . S
H252 C266 0.960 . S
H253 C266 0.961 . S
H254 C266 0.959 . S
H255 C269 0.929 . S
H256 C270 0.931 . S
H257 C272 0.930 . S
C258 H246 0.930 . S
C258 C259 1.399 . S
C258 C263 1.399 . S
C259 C258 1.399 . S
C259 C260 1.376 . S
C260 H247 0.930 . S
C260 C259 1.376 . S
C260 C261 1.388 . S
C261 H248 0.930 . S
C261 C260 1.388 . S
C261 C262 1.390 . S
C262 C261 1.390 . S
C262 C263 1.394 . S
C262 C268 1.465 . S
C263 C258 1.399 . S
C263 C262 1.394 . S
C263 C264 1.516 . S
C264 C263 1.516 . S
C264 C265 1.502 . S
C264 C266 1.561 . S
C264 C267 1.526 . S
C265 H249 0.959 . S
C265 H250 0.959 . S
C265 H251 0.961 . S
C265 C264 1.502 . S
C266 H252 0.960 . S
C266 H253 0.961 . S
C266 H254 0.959 . S
C266 C264 1.561 . S
C267 C264 1.526 . S
C267 C268 1.396 . S
C267 C272 1.390 . S
C268 C262 1.465 . S
C268 C267 1.396 . S
C268 C269 1.399 . S
C269 H255 0.929 . S
C269 C268 1.399 . S
C269 C270 1.385 . S
C270 H256 0.931 . S
C270 C269 1.385 . S
C270 C271 1.389 . S
C271 C270 1.389 . S
C271 C272 1.387 . S
C272 H257 0.930 . S
C272 C267 1.390 . S
C272 C271 1.387 . S
H273 C285 0.930 . S
H274 C287 0.930 . S
H275 C288 0.930 . S
H276 C292 0.959 . S
H277 C292 0.959 . S
H278 C292 0.961 . S
H279 C293 0.960 . S
H280 C293 0.961 . S
H281 C293 0.959 . S
H282 C296 0.929 . S
H283 C297 0.931 . S
H284 C299 0.930 . S
C285 H273 0.930 . S
C285 C286 1.399 . S
C285 C290 1.399 . S
C286 C285 1.399 . S
C286 C287 1.376 . S
C287 H274 0.930 . S
C287 C286 1.376 . S
C287 C288 1.388 . S
C288 H275 0.930 . S
C288 C287 1.388 . S
C288 C289 1.390 . S
C289 C288 1.390 . S
C289 C290 1.394 . S
C289 C295 1.465 . S
C290 C285 1.399 . S
C290 C289 1.394 . S
C290 C291 1.516 . S
C291 C290 1.516 . S
C291 C292 1.502 . S
C291 C293 1.561 . S
C291 C294 1.526 . S
C292 H276 0.959 . S
C292 H277 0.959 . S
C292 H278 0.961 . S
C292 C291 1.502 . S
C293 H279 0.960 . S
C293 H280 0.961 . S
C293 H281 0.959 . S
C293 C291 1.561 . S
C294 C291 1.526 . S
C294 C295 1.396 . S
C294 C299 1.390 . S
C295 C289 1.465 . S
C295 C294 1.396 . S
C295 C296 1.399 . S
C296 H282 0.929 . S
C296 C295 1.399 . S
C296 C297 1.385 . S
C297 H283 0.931 . S
C297 C296 1.385 . S
C297 C298 1.389 . S
C298 C297 1.389 . S
C298 C299 1.387 . S
C299 H284 0.930 . S
C299 C294 1.390 . S
C299 C298 1.387 . S
H300 C312 0.930 . S
H301 C314 0.930 . S
H302 C315 0.930 . S
H303 C319 0.959 . S
H304 C319 0.959 . S
H305 C319 0.961 . S
H306 C320 0.960 . S
H307 C320 0.961 . S
H308 C320 0.959 . S
H309 C323 0.929 . S
H310 C324 0.931 . S
H311 C326 0.930 . S
C312 H300 0.930 . S
C312 C313 1.399 . S
C312 C317 1.399 . S
C313 C312 1.399 . S
C313 C314 1.376 . S
C314 H301 0.930 . S
C314 C313 1.376 . S
C314 C315 1.388 . S
C315 H302 0.930 . S
C315 C314 1.388 . S
C315 C316 1.390 . S
C316 C315 1.390 . S
C316 C317 1.394 . S
C316 C322 1.465 . S
C317 C312 1.399 . S
C317 C316 1.394 . S
C317 C318 1.516 . S
C318 C317 1.516 . S
C318 C319 1.502 . S
C318 C320 1.561 . S
C318 C321 1.526 . S
C319 H303 0.959 . S
C319 H304 0.959 . S
C319 H305 0.961 . S
C319 C318 1.502 . S
C320 H306 0.960 . S
C320 H307 0.961 . S
C320 H308 0.959 . S
C320 C318 1.561 . S
C321 C318 1.526 . S
C321 C322 1.396 . S
C321 C326 1.390 . S
C322 C316 1.465 . S
C322 C321 1.396 . S
C322 C323 1.399 . S
C323 H309 0.929 . S
C323 C322 1.399 . S
C323 C324 1.385 . S
C324 H310 0.931 . S
C324 C323 1.385 . S
C324 C325 1.389 . S
C325 C324 1.389 . S
C325 C326 1.387 . S
C326 H311 0.930 . S
C326 C321 1.390 . S
C326 C325 1.387 . S
H327 C339 0.930 . S
H328 C341 0.930 . S
H329 C342 0.930 . S
H330 C346 0.959 . S
H331 C346 0.959 . S
H332 C346 0.961 . S
H333 C347 0.960 . S
H334 C347 0.961 . S
H335 C347 0.959 . S
H336 C350 0.929 . S
H337 C351 0.931 . S
H338 C353 0.930 . S
C339 H327 0.930 . S
C339 C340 1.399 . S
C339 C344 1.399 . S
C340 C339 1.399 . S
C340 C341 1.376 . S
C341 H328 0.930 . S
C341 C340 1.376 . S
C341 C342 1.388 . S
C342 H329 0.930 . S
C342 C341 1.388 . S
C342 C343 1.390 . S
C343 C342 1.390 . S
C343 C344 1.394 . S
C343 C349 1.465 . S
C344 C339 1.399 . S
C344 C343 1.394 . S
C344 C345 1.516 . S
C345 C344 1.516 . S
C345 C346 1.502 . S
C345 C347 1.561 . S
C345 C348 1.526 . S
C346 H330 0.959 . S
C346 H331 0.959 . S
C346 H332 0.961 . S
C346 C345 1.502 . S
C347 H333 0.960 . S
C347 H334 0.961 . S
C347 H335 0.959 . S
C347 C345 1.561 . S
C348 C345 1.526 . S
C348 C349 1.396 . S
C348 C353 1.390 . S
C349 C343 1.465 . S
C349 C348 1.396 . S
C349 C350 1.399 . S
C350 H336 0.929 . S
C350 C349 1.399 . S
C350 C351 1.385 . S
C351 H337 0.931 . S
C351 C350 1.385 . S
C351 C352 1.389 . S
C352 C351 1.389 . S
C352 C353 1.387 . S
C353 H338 0.930 . S
C353 C348 1.390 . S
C353 C352 1.387 . S
H354 C366 0.930 . S
H355 C368 0.930 . S
H356 C369 0.930 . S
H357 C373 0.959 . S
H358 C373 0.959 . S
H359 C373 0.961 . S
H360 C374 0.960 . S
H361 C374 0.961 . S
H362 C374 0.959 . S
H363 C377 0.929 . S
H364 C378 0.931 . S
H365 C380 0.930 . S
C366 H354 0.930 . S
C366 C367 1.399 . S
C366 C371 1.399 . S
C367 C366 1.399 . S
C367 C368 1.376 . S
C368 H355 0.930 . S
C368 C367 1.376 . S
C368 C369 1.388 . S
C369 H356 0.930 . S
C369 C368 1.388 . S
C369 C370 1.390 . S
C370 C369 1.390 . S
C370 C371 1.394 . S
C370 C376 1.465 . S
C371 C366 1.399 . S
C371 C370 1.394 . S
C371 C372 1.516 . S
C372 C371 1.516 . S
C372 C373 1.502 . S
C372 C374 1.561 . S
C372 C375 1.526 . S
C373 H357 0.959 . S
C373 H358 0.959 . S
C373 H359 0.961 . S
C373 C372 1.502 . S
C374 H360 0.960 . S
C374 H361 0.961 . S
C374 H362 0.959 . S
C374 C372 1.561 . S
C375 C372 1.526 . S
C375 C376 1.396 . S
C375 C380 1.390 . S
C376 C370 1.465 . S
C376 C375 1.396 . S
C376 C377 1.399 . S
C377 H363 0.929 . S
C377 C376 1.399 . S
C377 C378 1.385 . S
C378 H364 0.931 . S
C378 C377 1.385 . S
C378 C379 1.389 . S
C379 C378 1.389 . S
C379 C380 1.387 . S
C380 H365 0.930 . S
C380 C375 1.390 . S
C380 C379 1.387 . S
H381 C393 0.930 . S
H382 C395 0.930 . S
H383 C396 0.930 . S
H384 C400 0.959 . S
H385 C400 0.959 . S
H386 C400 0.961 . S
H387 C401 0.960 . S
H388 C401 0.961 . S
H389 C401 0.959 . S
H390 C404 0.929 . S
H391 C405 0.931 . S
H392 C407 0.930 . S
C393 H381 0.930 . S
C393 C394 1.399 . S
C393 C398 1.399 . S
C394 C393 1.399 . S
C394 C395 1.376 . S
C395 H382 0.930 . S
C395 C394 1.376 . S
C395 C396 1.388 . S
C396 H383 0.930 . S
C396 C395 1.388 . S
C396 C397 1.390 . S
C397 C396 1.390 . S
C397 C398 1.394 . S
C397 C403 1.465 . S
C398 C393 1.399 . S
C398 C397 1.394 . S
C398 C399 1.516 . S
C399 C398 1.516 . S
C399 C400 1.502 . S
C399 C401 1.561 . S
C399 C402 1.526 . S
C400 H384 0.959 . S
C400 H385 0.959 . S
C400 H386 0.961 . S
C400 C399 1.502 . S
C401 H387 0.960 . S
C401 H388 0.961 . S
C401 H389 0.959 . S
C401 C399 1.561 . S
C402 C399 1.526 . S
C402 C403 1.396 . S
C402 C407 1.390 . S
C403 C397 1.465 . S
C403 C402 1.396 . S
C403 C404 1.399 . S
C404 H390 0.929 . S
C404 C403 1.399 . S
C404 C405 1.385 . S
C405 H391 0.931 . S
C405 C404 1.385 . S
C405 C406 1.389 . S
C406 C405 1.389 . S
C406 C407 1.387 . S
C407 H392 0.930 . S
C407 C402 1.390 . S
C407 C406 1.387 . S
H408 C420 0.930 . S
H409 C422 0.930 . S
H410 C423 0.930 . S
H411 C427 0.959 . S
H412 C427 0.959 . S
H413 C427 0.961 . S
H414 C428 0.960 . S
H415 C428 0.961 . S
H416 C428 0.959 . S
H417 C431 0.929 . S
H418 C432 0.931 . S
H419 C434 0.930 . S
C420 H408 0.930 . S
C420 C421 1.399 . S
C420 C425 1.399 . S
C421 C420 1.399 . S
C421 C422 1.376 . S
C422 H409 0.930 . S
C422 C421 1.376 . S
C422 C423 1.388 . S
C423 H410 0.930 . S
C423 C422 1.388 . S
C423 C424 1.390 . S
C424 C423 1.390 . S
C424 C425 1.394 . S
C424 C430 1.465 . S
C425 C420 1.399 . S
C425 C424 1.394 . S
C425 C426 1.516 . S
C426 C425 1.516 . S
C426 C427 1.502 . S
C426 C428 1.561 . S
C426 C429 1.526 . S
C427 H411 0.959 . S
C427 H412 0.959 . S
C427 H413 0.961 . S
C427 C426 1.502 . S
C428 H414 0.960 . S
C428 H415 0.961 . S
C428 H416 0.959 . S
C428 C426 1.561 . S
C429 C426 1.526 . S
C429 C430 1.396 . S
C429 C434 1.390 . S
C430 C424 1.465 . S
C430 C429 1.396 . S
C430 C431 1.399 . S
C431 H417 0.929 . S
C431 C430 1.399 . S
C431 C432 1.385 . S
C432 H418 0.931 . S
C432 C431 1.385 . S
C432 C433 1.389 . S
C433 C432 1.389 . S
C433 C434 1.387 . S
C434 H419 0.930 . S
C434 C429 1.390 . S
C434 C433 1.387 . S
H435 C447 0.930 . S
H436 C449 0.930 . S
H437 C450 0.930 . S
H438 C454 0.959 . S
H439 C454 0.959 . S
H440 C454 0.961 . S
H441 C455 0.960 . S
H442 C455 0.961 . S
H443 C455 0.959 . S
H444 C458 0.929 . S
H445 C459 0.931 . S
H446 C461 0.930 . S
C447 H435 0.930 . S
C447 C448 1.399 . S
C447 C452 1.399 . S
C448 C447 1.399 . S
C448 C449 1.376 . S
C449 H436 0.930 . S
C449 C448 1.376 . S
C449 C450 1.388 . S
C450 H437 0.930 . S
C450 C449 1.388 . S
C450 C451 1.390 . S
C451 C450 1.390 . S
C451 C452 1.394 . S
C451 C457 1.465 . S
C452 C447 1.399 . S
C452 C451 1.394 . S
C452 C453 1.516 . S
C453 C452 1.516 . S
C453 C454 1.502 . S
C453 C455 1.561 . S
C453 C456 1.526 . S
C454 H438 0.959 . S
C454 H439 0.959 . S
C454 H440 0.961 . S
C454 C453 1.502 . S
C455 H441 0.960 . S
C455 H442 0.961 . S
C455 H443 0.959 . S
C455 C453 1.561 . S
C456 C453 1.526 . S
C456 C457 1.396 . S
C456 C461 1.390 . S
C457 C451 1.465 . S
C457 C456 1.396 . S
C457 C458 1.399 . S
C458 H444 0.929 . S
C458 C457 1.399 . S
C458 C459 1.385 . S
C459 H445 0.931 . S
C459 C458 1.385 . S
C459 C460 1.389 . S
C460 C459 1.389 . S
C460 C461 1.387 . S
C461 H446 0.930 . S
C461 C456 1.390 . S
C461 C460 1.387 . S
H462 C474 0.930 . S
H463 C476 0.930 . S
H464 C477 0.930 . S
H465 C481 0.959 . S
H466 C481 0.959 . S
H467 C481 0.961 . S
H468 C482 0.960 . S
H469 C482 0.961 . S
H470 C482 0.959 . S
H471 C485 0.929 . S
H472 C486 0.931 . S
H473 C488 0.930 . S
C474 H462 0.930 . S
C474 C475 1.399 . S
C474 C479 1.399 . S
C475 C474 1.399 . S
C475 C476 1.376 . S
C476 H463 0.930 . S
C476 C475 1.376 . S
C476 C477 1.388 . S
C477 H464 0.930 . S
C477 C476 1.388 . S
C477 C478 1.390 . S
C478 C477 1.390 . S
C478 C479 1.394 . S
C478 C484 1.465 . S
C479 C474 1.399 . S
C479 C478 1.394 . S
C479 C480 1.516 . S
C480 C479 1.516 . S
C480 C481 1.502 . S
C480 C482 1.561 . S
C480 C483 1.526 . S
C481 H465 0.959 . S
C481 H466 0.959 . S
C481 H467 0.961 . S
C481 C480 1.502 . S
C482 H468 0.960 . S
C482 H469 0.961 . S
C482 H470 0.959 . S
C482 C480 1.561 . S
C483 C480 1.526 . S
C483 C484 1.396 . S
C483 C488 1.390 . S
C484 C478 1.465 . S
C484 C483 1.396 . S
C484 C485 1.399 . S
C485 H471 0.929 . S
C485 C484 1.399 . S
C485 C486 1.385 . S
C486 H472 0.931 . S
C486 C485 1.385 . S
C486 C487 1.389 . S
C487 C486 1.389 . S
C487 C488 1.387 . S
C488 H473 0.930 . S
C488 C483 1.390 . S
C488 C487 1.387 . S
H489 C501 0.930 . S
H490 C503 0.930 . S
H491 C504 0.930 . S
H492 C508 0.959 . S
H493 C508 0.959 . S
H494 C508 0.961 . S
H495 C509 0.960 . S
H496 C509 0.961 . S
H497 C509 0.959 . S
H498 C512 0.929 . S
H499 C513 0.931 . S
H500 C515 0.930 . S
C501 H489 0.930 . S
C501 C502 1.399 . S
C501 C506 1.399 . S
C502 C501 1.399 . S
C502 C503 1.376 . S
C503 H490 0.930 . S
C503 C502 1.376 . S
C503 C504 1.388 . S
C504 H491 0.930 . S
C504 C503 1.388 . S
C504 C505 1.390 . S
C505 C504 1.390 . S
C505 C506 1.394 . S
C505 C511 1.465 . S
C506 C501 1.399 . S
C506 C505 1.394 . S
C506 C507 1.516 . S
C507 C506 1.516 . S
C507 C508 1.502 . S
C507 C509 1.561 . S
C507 C510 1.526 . S
C508 H492 0.959 . S
C508 H493 0.959 . S
C508 H494 0.961 . S
C508 C507 1.502 . S
C509 H495 0.960 . S
C509 H496 0.961 . S
C509 H497 0.959 . S
C509 C507 1.561 . S
C510 C507 1.526 . S
C510 C511 1.396 . S
C510 C515 1.390 . S
C511 C505 1.465 . S
C511 C510 1.396 . S
C511 C512 1.399 . S
C512 H498 0.929 . S
C512 C511 1.399 . S
C512 C513 1.385 . S
C513 H499 0.931 . S
C513 C512 1.385 . S
C513 C514 1.389 . S
C514 C513 1.389 . S
C514 C515 1.387 . S
C515 H500 0.930 . S
C515 C510 1.390 . S
C515 C514 1.387 . S
H516 C528 0.930 . S
H517 C530 0.930 . S
H518 C531 0.930 . S
H519 C535 0.959 . S
H520 C535 0.959 . S
H521 C535 0.961 . S
H522 C536 0.960 . S
H523 C536 0.961 . S
H524 C536 0.959 . S
H525 C539 0.929 . S
H526 C540 0.931 . S
H527 C542 0.930 . S
C528 H516 0.930 . S
C528 C529 1.399 . S
C528 C533 1.399 . S
C529 C528 1.399 . S
C529 C530 1.376 . S
C530 H517 0.930 . S
C530 C529 1.376 . S
C530 C531 1.388 . S
C531 H518 0.930 . S
C531 C530 1.388 . S
C531 C532 1.390 . S
C532 C531 1.390 . S
C532 C533 1.394 . S
C532 C538 1.465 . S
C533 C528 1.399 . S
C533 C532 1.394 . S
C533 C534 1.516 . S
C534 C533 1.516 . S
C534 C535 1.502 . S
C534 C536 1.561 . S
C534 C537 1.526 . S
C535 H519 0.959 . S
C535 H520 0.959 . S
C535 H521 0.961 . S
C535 C534 1.502 . S
C536 H522 0.960 . S
C536 H523 0.961 . S
C536 H524 0.959 . S
C536 C534 1.561 . S
C537 C534 1.526 . S
C537 C538 1.396 . S
C537 C542 1.390 . S
C538 C532 1.465 . S
C538 C537 1.396 . S
C538 C539 1.399 . S
C539 H525 0.929 . S
C539 C538 1.399 . S
C539 C540 1.385 . S
C540 H526 0.931 . S
C540 C539 1.385 . S
C540 C541 1.389 . S
C541 C540 1.389 . S
C541 C542 1.387 . S
C542 H527 0.930 . S
C542 C537 1.390 . S
C542 C541 1.387 . S
H543 C555 0.930 . S
H544 C557 0.930 . S
H545 C558 0.930 . S
H546 C562 0.959 . S
H547 C562 0.959 . S
H548 C562 0.961 . S
H549 C563 0.960 . S
H550 C563 0.961 . S
H551 C563 0.959 . S
H552 C566 0.929 . S
H553 C567 0.931 . S
H554 C569 0.930 . S
C555 H543 0.930 . S
C555 C556 1.399 . S
C555 C560 1.399 . S
C556 C555 1.399 . S
C556 C557 1.376 . S
C557 H544 0.930 . S
C557 C556 1.376 . S
C557 C558 1.388 . S
C558 H545 0.930 . S
C558 C557 1.388 . S
C558 C559 1.390 . S
C559 C558 1.390 . S
C559 C560 1.394 . S
C559 C565 1.465 . S
C560 C555 1.399 . S
C560 C559 1.394 . S
C560 C561 1.516 . S
C561 C560 1.516 . S
C561 C562 1.502 . S
C561 C563 1.561 . S
C561 C564 1.526 . S
C562 H546 0.959 . S
C562 H547 0.959 . S
C562 H548 0.961 . S
C562 C561 1.502 . S
C563 H549 0.960 . S
C563 H550 0.961 . S
C563 H551 0.959 . S
C563 C561 1.561 . S
C564 C561 1.526 . S
C564 C565 1.396 . S
C564 C569 1.390 . S
C565 C559 1.465 . S
C565 C564 1.396 . S
C565 C566 1.399 . S
C566 H552 0.929 . S
C566 C565 1.399 . S
C566 C567 1.385 . S
C567 H553 0.931 . S
C567 C566 1.385 . S
C567 C568 1.389 . S
C568 C567 1.389 . S
C568 C569 1.387 . S
C569 H554 0.930 . S
C569 C564 1.390 . S
C569 C568 1.387 . S
H570 C582 0.930 . S
H571 C584 0.930 . S
H572 C585 0.930 . S
H573 C589 0.959 . S
H574 C589 0.959 . S
H575 C589 0.961 . S
H576 C590 0.960 . S
H577 C590 0.961 . S
H578 C590 0.959 . S
H579 C593 0.929 . S
H580 C594 0.931 . S
H581 C596 0.930 . S
C582 H570 0.930 . S
C582 C583 1.399 . S
C582 C587 1.399 . S
C583 C582 1.399 . S
C583 C584 1.376 . S
C584 H571 0.930 . S
C584 C583 1.376 . S
C584 C585 1.388 . S
C585 H572 0.930 . S
C585 C584 1.388 . S
C585 C586 1.390 . S
C586 C585 1.390 . S
C586 C587 1.394 . S
C586 C592 1.465 . S
C587 C582 1.399 . S
C587 C586 1.394 . S
C587 C588 1.516 . S
C588 C587 1.516 . S
C588 C589 1.502 . S
C588 C590 1.561 . S
C588 C591 1.526 . S
C589 H573 0.959 . S
C589 H574 0.959 . S
C589 H575 0.961 . S
C589 C588 1.502 . S
C590 H576 0.960 . S
C590 H577 0.961 . S
C590 H578 0.959 . S
C590 C588 1.561 . S
C591 C588 1.526 . S
C591 C592 1.396 . S
C591 C596 1.390 . S
C592 C586 1.465 . S
C592 C591 1.396 . S
C592 C593 1.399 . S
C593 H579 0.929 . S
C593 C592 1.399 . S
C593 C594 1.385 . S
C594 H580 0.931 . S
C594 C593 1.385 . S
C594 C595 1.389 . S
C595 C594 1.389 . S
C595 C596 1.387 . S
C596 H581 0.930 . S
C596 C591 1.390 . S
C596 C595 1.387 . S
H597 C609 0.930 . S
H598 C611 0.930 . S
H599 C612 0.930 . S
H600 C616 0.959 . S
H601 C616 0.959 . S
H602 C616 0.961 . S
H603 C617 0.960 . S
H604 C617 0.961 . S
H605 C617 0.959 . S
H606 C620 0.929 . S
H607 C621 0.931 . S
H608 C623 0.930 . S
C609 H597 0.930 . S
C609 C610 1.399 . S
C609 C614 1.399 . S
C610 C609 1.399 . S
C610 C611 1.376 . S
C611 H598 0.930 . S
C611 C610 1.376 . S
C611 C612 1.388 . S
C612 H599 0.930 . S
C612 C611 1.388 . S
C612 C613 1.390 . S
C613 C612 1.390 . S
C613 C614 1.394 . S
C613 C619 1.465 . S
C614 C609 1.399 . S
C614 C613 1.394 . S
C614 C615 1.516 . S
C615 C614 1.516 . S
C615 C616 1.502 . S
C615 C617 1.561 . S
C615 C618 1.526 . S
C616 H600 0.959 . S
C616 H601 0.959 . S
C616 H602 0.961 . S
C616 C615 1.502 . S
C617 H603 0.960 . S
C617 H604 0.961 . S
C617 H605 0.959 . S
C617 C615 1.561 . S
C618 C615 1.526 . S
C618 C619 1.396 . S
C618 C623 1.390 . S
C619 C613 1.465 . S
C619 C618 1.396 . S
C619 C620 1.399 . S
C620 H606 0.929 . S
C620 C619 1.399 . S
C620 C621 1.385 . S
C621 H607 0.931 . S
C621 C620 1.385 . S
C621 C622 1.389 . S
C622 C621 1.389 . S
C622 C623 1.387 . S
C623 H608 0.930 . S
C623 C618 1.390 . S
C623 C622 1.387 . S
H624 C636 0.930 . S
H625 C638 0.930 . S
H626 C639 0.930 . S
H627 C643 0.959 . S
H628 C643 0.959 . S
H629 C643 0.961 . S
H630 C644 0.960 . S
H631 C644 0.961 . S
H632 C644 0.959 . S
H633 C647 0.929 . S
H634 C648 0.931 . S
H635 C650 0.930 . S
C636 H624 0.930 . S
C636 C637 1.399 . S
C636 C641 1.399 . S
C637 C636 1.399 . S
C637 C638 1.376 1_554 S
C638 H625 0.930 . S
C638 C637 1.376 1_556 S
C638 C639 1.388 . S
C639 H626 0.930 . S
C639 C638 1.388 . S
C639 C640 1.390 . S
C640 C639 1.390 . S
C640 C641 1.394 1_556 S
C640 C646 1.465 . S
C641 C636 1.399 . S
C641 C640 1.394 1_554 S
C641 C642 1.516 . S
C642 C641 1.516 . S
C642 C643 1.502 . S
C642 C644 1.561 . S
C642 C645 1.526 . S
C643 H627 0.959 . S
C643 H628 0.959 . S
C643 H629 0.961 . S
C643 C642 1.502 . S
C644 H630 0.960 . S
C644 H631 0.961 . S
C644 H632 0.959 . S
C644 C642 1.561 . S
C645 C642 1.526 . S
C645 C646 1.396 1_554 S
C645 C650 1.390 . S
C646 C640 1.465 . S
C646 C645 1.396 1_556 S
C646 C647 1.399 . S
C647 H633 0.929 . S
C647 C646 1.399 . S
C647 C648 1.385 . S
C648 H634 0.931 . S
C648 C647 1.385 . S
C648 C649 1.389 1_556 S
C649 C648 1.389 1_554 S
C649 C650 1.387 . S
C650 H635 0.930 . S
C650 C645 1.390 . S
C650 C649 1.387 . S
H651 C663 0.930 . S
H652 C665 0.930 . S
H653 C666 0.930 . S
H654 C670 0.959 . S
H655 C670 0.959 . S
H656 C670 0.961 . S
H657 C671 0.960 . S
H658 C671 0.961 . S
H659 C671 0.959 . S
H660 C674 0.929 . S
H661 C675 0.931 . S
H662 C677 0.930 . S
C663 H651 0.930 . S
C663 C664 1.399 . S
C663 C668 1.399 . S
C664 C663 1.399 . S
C664 C665 1.376 . S
C665 H652 0.930 . S
C665 C664 1.376 . S
C665 C666 1.388 . S
C666 H653 0.930 . S
C666 C665 1.388 . S
C666 C667 1.390 . S
C667 C666 1.390 . S
C667 C668 1.394 . S
C667 C673 1.465 . S
C668 C663 1.399 . S
C668 C667 1.394 . S
C668 C669 1.516 . S
C669 C668 1.516 . S
C669 C670 1.502 . S
C669 C671 1.561 . S
C669 C672 1.526 . S
C670 H654 0.959 . S
C670 H655 0.959 . S
C670 H656 0.961 . S
C670 C669 1.502 . S
C671 H657 0.960 . S
C671 H658 0.961 . S
C671 H659 0.959 . S
C671 C669 1.561 . S
C672 C669 1.526 . S
C672 C673 1.396 . S
C672 C677 1.390 . S
C673 C667 1.465 . S
C673 C672 1.396 . S
C673 C674 1.399 . S
C674 H660 0.929 . S
C674 C673 1.399 . S
C674 C675 1.385 . S
C675 H661 0.931 . S
C675 C674 1.385 . S
C675 C676 1.389 . S
C676 C675 1.389 . S
C676 C677 1.387 . S
C677 H662 0.930 . S
C677 C672 1.390 . S
C677 C676 1.387 . S
H678 C690 0.930 . S
H679 C692 0.930 . S
H680 C693 0.930 . S
H681 C697 0.959 . S
H682 C697 0.959 . S
H683 C697 0.961 . S
H684 C698 0.960 . S
H685 C698 0.961 . S
H686 C698 0.959 . S
H687 C701 0.929 . S
H688 C702 0.931 . S
H689 C704 0.930 . S
C690 H678 0.930 . S
C690 C691 1.399 . S
C690 C695 1.399 . S
C691 C690 1.399 . S
C691 C692 1.376 1_554 S
C692 H679 0.930 . S
C692 C691 1.376 1_556 S
C692 C693 1.388 . S
C693 H680 0.930 . S
C693 C692 1.388 . S
C693 C694 1.390 . S
C694 C693 1.390 . S
C694 C695 1.394 1_556 S
C694 C700 1.465 . S
C695 C690 1.399 . S
C695 C694 1.394 1_554 S
C695 C696 1.516 . S
C696 C695 1.516 . S
C696 C697 1.502 . S
C696 C698 1.561 . S
C696 C699 1.526 . S
C697 H681 0.959 . S
C697 H682 0.959 . S
C697 H683 0.961 . S
C697 C696 1.502 . S
C698 H684 0.960 . S
C698 H685 0.961 . S
C698 H686 0.959 . S
C698 C696 1.561 . S
C699 C696 1.526 . S
C699 C700 1.396 1_554 S
C699 C704 1.390 . S
C700 C694 1.465 . S
C700 C699 1.396 1_556 S
C700 C701 1.399 . S
C701 H687 0.929 . S
C701 C700 1.399 . S
C701 C702 1.385 . S
C702 H688 0.931 . S
C702 C701 1.385 . S
C702 C703 1.389 1_556 S
C703 C702 1.389 1_554 S
C703 C704 1.387 . S
C704 H689 0.930 . S
C704 C699 1.390 . S
C704 C703 1.387 . S
H705 C717 0.930 . S
H706 C719 0.930 . S
H707 C720 0.930 . S
H708 C724 0.959 . S
H709 C724 0.959 . S
H710 C724 0.961 . S
H711 C725 0.960 . S
H712 C725 0.961 . S
H713 C725 0.959 . S
H714 C728 0.929 . S
H715 C729 0.931 . S
H716 C731 0.930 . S
C717 H705 0.930 . S
C717 C718 1.399 . S
C717 C722 1.399 . S
C718 C717 1.399 . S
C718 C719 1.376 . S
C719 H706 0.930 . S
C719 C718 1.376 . S
C719 C720 1.388 . S
C720 H707 0.930 . S
C720 C719 1.388 . S
C720 C721 1.390 . S
C721 C720 1.390 . S
C721 C722 1.394 . S
C721 C727 1.465 . S
C722 C717 1.399 . S
C722 C721 1.394 . S
C722 C723 1.516 . S
C723 C722 1.516 . S
C723 C724 1.502 . S
C723 C725 1.561 . S
C723 C726 1.526 . S
C724 H708 0.959 . S
C724 H709 0.959 . S
C724 H710 0.961 . S
C724 C723 1.502 . S
C725 H711 0.960 . S
C725 H712 0.961 . S
C725 H713 0.959 . S
C725 C723 1.561 . S
C726 C723 1.526 . S
C726 C727 1.396 . S
C726 C731 1.390 . S
C727 C721 1.465 . S
C727 C726 1.396 . S
C727 C728 1.399 . S
C728 H714 0.929 . S
C728 C727 1.399 . S
C728 C729 1.385 . S
C729 H715 0.931 . S
C729 C728 1.385 . S
C729 C730 1.389 . S
C730 C729 1.389 . S
C730 C731 1.387 . S
C731 H716 0.930 . S
C731 C726 1.390 . S
C731 C730 1.387 . S
H732 C744 0.930 . S
H733 C746 0.930 . S
H734 C747 0.930 . S
H735 C751 0.959 . S
H736 C751 0.959 . S
H737 C751 0.961 . S
H738 C752 0.960 . S
H739 C752 0.961 . S
H740 C752 0.959 . S
H741 C755 0.929 . S
H742 C756 0.931 . S
H743 C758 0.930 . S
C744 H732 0.930 . S
C744 C745 1.399 . S
C744 C749 1.399 . S
C745 C744 1.399 . S
C745 C746 1.376 . S
C746 H733 0.930 . S
C746 C745 1.376 . S
C746 C747 1.388 . S
C747 H734 0.930 . S
C747 C746 1.388 . S
C747 C748 1.390 . S
C748 C747 1.390 . S
C748 C749 1.394 . S
C748 C754 1.465 . S
C749 C744 1.399 . S
C749 C748 1.394 . S
C749 C750 1.516 . S
C750 C749 1.516 . S
C750 C751 1.502 . S
C750 C752 1.561 . S
C750 C753 1.526 . S
C751 H735 0.959 . S
C751 H736 0.959 . S
C751 H737 0.961 . S
C751 C750 1.502 . S
C752 H738 0.960 . S
C752 H739 0.961 . S
C752 H740 0.959 . S
C752 C750 1.561 . S
C753 C750 1.526 . S
C753 C754 1.396 . S
C753 C758 1.390 . S
C754 C748 1.465 . S
C754 C753 1.396 . S
C754 C755 1.399 . S
C755 H741 0.929 . S
C755 C754 1.399 . S
C755 C756 1.385 . S
C756 H742 0.931 . S
C756 C755 1.385 . S
C756 C757 1.389 . S
C757 C756 1.389 . S
C757 C758 1.387 . S
C758 H743 0.930 . S
C758 C753 1.390 . S
C758 C757 1.387 . S
H759 C771 0.930 . S
H760 C773 0.930 . S
H761 C774 0.930 . S
H762 C778 0.959 . S
H763 C778 0.959 . S
H764 C778 0.961 . S
H765 C779 0.960 . S
H766 C779 0.961 . S
H767 C779 0.959 . S
H768 C782 0.929 . S
H769 C783 0.931 . S
H770 C785 0.930 . S
C771 H759 0.930 . S
C771 C772 1.399 . S
C771 C776 1.399 . S
C772 C771 1.399 . S
C772 C773 1.376 1_554 S
C773 H760 0.930 . S
C773 C772 1.376 1_556 S
C773 C774 1.388 . S
C774 H761 0.930 . S
C774 C773 1.388 . S
C774 C775 1.390 . S
C775 C774 1.390 . S
C775 C776 1.394 1_556 S
C775 C781 1.465 . S
C776 C771 1.399 . S
C776 C775 1.394 1_554 S
C776 C777 1.516 . S
C777 C776 1.516 . S
C777 C778 1.502 . S
C777 C779 1.561 . S
C777 C780 1.526 . S
C778 H762 0.959 . S
C778 H763 0.959 . S
C778 H764 0.961 . S
C778 C777 1.502 . S
C779 H765 0.960 . S
C779 H766 0.961 . S
C779 H767 0.959 . S
C779 C777 1.561 . S
C780 C777 1.526 . S
C780 C781 1.396 1_554 S
C780 C785 1.390 . S
C781 C775 1.465 . S
C781 C780 1.396 1_556 S
C781 C782 1.399 . S
C782 H768 0.929 . S
C782 C781 1.399 . S
C782 C783 1.385 . S
C783 H769 0.931 . S
C783 C782 1.385 . S
C783 C784 1.389 1_556 S
C784 C783 1.389 1_554 S
C784 C785 1.387 . S
C785 H770 0.930 . S
C785 C780 1.390 . S
C785 C784 1.387 . S
H786 C798 0.930 . S
H787 C800 0.930 . S
H788 C801 0.930 . S
H789 C805 0.959 . S
H790 C805 0.959 . S
H791 C805 0.961 . S
H792 C806 0.960 . S
H793 C806 0.961 . S
H794 C806 0.959 . S
H795 C809 0.929 . S
H796 C810 0.931 . S
H797 C812 0.930 . S
C798 H786 0.930 . S
C798 C799 1.399 . S
C798 C803 1.399 . S
C799 C798 1.399 . S
C799 C800 1.376 . S
C800 H787 0.930 . S
C800 C799 1.376 . S
C800 C801 1.388 . S
C801 H788 0.930 . S
C801 C800 1.388 . S
C801 C802 1.390 . S
C802 C801 1.390 . S
C802 C803 1.394 . S
C802 C808 1.465 . S
C803 C798 1.399 . S
C803 C802 1.394 . S
C803 C804 1.516 . S
C804 C803 1.516 . S
C804 C805 1.502 . S
C804 C806 1.561 . S
C804 C807 1.526 . S
C805 H789 0.959 . S
C805 H790 0.959 . S
C805 H791 0.961 . S
C805 C804 1.502 . S
C806 H792 0.960 . S
C806 H793 0.961 . S
C806 H794 0.959 . S
C806 C804 1.561 . S
C807 C804 1.526 . S
C807 C808 1.396 . S
C807 C812 1.390 . S
C808 C802 1.465 . S
C808 C807 1.396 . S
C808 C809 1.399 . S
C809 H795 0.929 . S
C809 C808 1.399 . S
C809 C810 1.385 . S
C810 H796 0.931 . S
C810 C809 1.385 . S
C810 C811 1.389 . S
C811 C810 1.389 . S
C811 C812 1.387 . S
C812 H797 0.930 . S
C812 C807 1.390 . S
C812 C811 1.387 . S
H813 C825 0.930 . S
H814 C827 0.930 . S
H815 C828 0.930 . S
H816 C832 0.959 . S
H817 C832 0.959 . S
H818 C832 0.961 . S
H819 C833 0.960 . S
H820 C833 0.961 . S
H821 C833 0.959 . S
H822 C836 0.929 . S
H823 C837 0.931 . S
H824 C839 0.930 . S
C825 H813 0.930 . S
C825 C826 1.399 . S
C825 C830 1.399 . S
C826 C825 1.399 . S
C826 C827 1.376 1_554 S
C827 H814 0.930 . S
C827 C826 1.376 1_556 S
C827 C828 1.388 . S
C828 H815 0.930 . S
C828 C827 1.388 . S
C828 C829 1.390 . S
C829 C828 1.390 . S
C829 C830 1.394 1_556 S
C829 C835 1.465 . S
C830 C825 1.399 . S
C830 C829 1.394 1_554 S
C830 C831 1.516 . S
C831 C830 1.516 . S
C831 C832 1.502 . S
C831 C833 1.561 . S
C831 C834 1.526 . S
C832 H816 0.959 . S
C832 H817 0.959 . S
C832 H818 0.961 . S
C832 C831 1.502 . S
C833 H819 0.960 . S
C833 H820 0.961 . S
C833 H821 0.959 . S
C833 C831 1.561 . S
C834 C831 1.526 . S
C834 C835 1.396 1_554 S
C834 C839 1.390 . S
C835 C829 1.465 . S
C835 C834 1.396 1_556 S
C835 C836 1.399 . S
C836 H822 0.929 . S
C836 C835 1.399 . S
C836 C837 1.385 . S
C837 H823 0.931 . S
C837 C836 1.385 . S
C837 C838 1.389 1_556 S
C838 C837 1.389 1_554 S
C838 C839 1.387 . S
C839 H824 0.930 . S
C839 C834 1.390 . S
C839 C838 1.387 . S
C205 C21 1.491 . S
C217 C135 1.485 . S
C232 C40 1.504 . S
C244 C97 1.458 . S
C271 C110 1.459 . S
C259 C54 1.458 . S
C286 C73 1.503 . S
C298 C122 1.508 . S
C325 C162 1.434 . S
C313 C74 1.470 . S
C352 C174 1.462 . S
C340 C10 1.482 . S
C379 C187 1.486 . S
C367 C37 1.495 . S
C406 C149 1.515 . S
C394 C65 1.528 . S
C421 C52 1.452 . S
C433 C109 1.448 . S
C448 C87 1.522 . S
C460 C123 1.513 . S
C475 C15 1.515 . S
C487 C136 1.484 . S
C514 C96 1.461 . S
C502 C32 1.470 . S
C529 C29 1.493 . S
C541 C188 1.481 . S
C568 C148 1.520 . S
C556 C59 1.521 . S
C595 C161 1.433 . S
C583 C84 1.445 . S
C610 C8 1.493 . S
C622 C175 1.473 . S
C649 C92 1.420 1_554 S
C637 C7 1.517 . S
C676 C105 1.410 . S
C664 C30 1.474 . S
C691 C62 1.529 . S
C703 C118 1.520 . S
C718 C81 1.512 . S
C730 C131 1.413 . S
C757 C144 1.414 . S
C745 C76 1.531 . S
C772 C18 1.484 . S
C784 C157 1.477 . S
C799 C43 1.538 . S
C811 C170 1.467 . S
C826 C51 1.510 . S
C838 C183 1.413 1_554 S
