# Generated by pormake.
# Topology pyr, (3,6)-cn, num edge types: 1
# Building blocks:
#     Node 0, Type 0, BuildingBlock: CUQRIR_clean_linker_1, # of connection points: 3
#     Node 1, Type 0, BuildingBlock: CUQRIR_clean_linker_1, # of connection points: 3
#     Node 2, Type 0, BuildingBlock: CUQRIR_clean_linker_1, # of connection points: 3
#     Node 3, Type 0, BuildingBlock: CUQRIR_clean_linker_1, # of connection points: 3
#     Node 4, Type 0, BuildingBlock: CUQRIR_clean_linker_1, # of connection points: 3
#     Node 5, Type 0, BuildingBlock: CUQRIR_clean_linker_1, # of connection points: 3
#     Node 6, Type 0, BuildingBlock: CUQRIR_clean_linker_1, # of connection points: 3
#     Node 7, Type 0, BuildingBlock: CUQRIR_clean_linker_1, # of connection points: 3
#     Node 8, Type 1, BuildingBlock: BETDEL_clean_sbu_0, # of connection points: 6
#     Node 9, Type 1, BuildingBlock: BETDEL_clean_sbu_0, # of connection points: 6
#     Node 10, Type 1, BuildingBlock: BETDEL_clean_sbu_0, # of connection points: 6
#     Node 11, Type 1, BuildingBlock: BETDEL_clean_sbu_0, # of connection points: 6
#     Edge 12, Type (0, 1), BuildingBlock: TEMPAE_clean_linker_10, # of connection points: 2
#     Edge 13, Type (0, 1), BuildingBlock: TEMPAE_clean_linker_10, # of connection points: 2
#     Edge 14, Type (0, 1), BuildingBlock: TEMPAE_clean_linker_10, # of connection points: 2
#     Edge 15, Type (0, 1), BuildingBlock: TEMPAE_clean_linker_10, # of connection points: 2
#     Edge 16, Type (0, 1), BuildingBlock: TEMPAE_clean_linker_10, # of connection points: 2
#     Edge 17, Type (0, 1), BuildingBlock: TEMPAE_clean_linker_10, # of connection points: 2
#     Edge 18, Type (0, 1), BuildingBlock: TEMPAE_clean_linker_10, # of connection points: 2
#     Edge 19, Type (0, 1), BuildingBlock: TEMPAE_clean_linker_10, # of connection points: 2
#     Edge 20, Type (0, 1), BuildingBlock: TEMPAE_clean_linker_10, # of connection points: 2
#     Edge 21, Type (0, 1), BuildingBlock: TEMPAE_clean_linker_10, # of connection points: 2
#     Edge 22, Type (0, 1), BuildingBlock: TEMPAE_clean_linker_10, # of connection points: 2
#     Edge 23, Type (0, 1), BuildingBlock: TEMPAE_clean_linker_10, # of connection points: 2
#     Edge 24, Type (0, 1), BuildingBlock: TEMPAE_clean_linker_10, # of connection points: 2
#     Edge 25, Type (0, 1), BuildingBlock: TEMPAE_clean_linker_10, # of connection points: 2
#     Edge 26, Type (0, 1), BuildingBlock: TEMPAE_clean_linker_10, # of connection points: 2
#     Edge 27, Type (0, 1), BuildingBlock: TEMPAE_clean_linker_10, # of connection points: 2
#     Edge 28, Type (0, 1), BuildingBlock: TEMPAE_clean_linker_10, # of connection points: 2
#     Edge 29, Type (0, 1), BuildingBlock: TEMPAE_clean_linker_10, # of connection points: 2
#     Edge 30, Type (0, 1), BuildingBlock: TEMPAE_clean_linker_10, # of connection points: 2
#     Edge 31, Type (0, 1), BuildingBlock: TEMPAE_clean_linker_10, # of connection points: 2
#     Edge 32, Type (0, 1), BuildingBlock: TEMPAE_clean_linker_10, # of connection points: 2
#     Edge 33, Type (0, 1), BuildingBlock: TEMPAE_clean_linker_10, # of connection points: 2
#     Edge 34, Type (0, 1), BuildingBlock: TEMPAE_clean_linker_10, # of connection points: 2
#     Edge 35, Type (0, 1), BuildingBlock: TEMPAE_clean_linker_10, # of connection points: 2
# Relax obj value: 0.101
# Max RMSD: 0.229
# Mean RMSD: 0.155
data_MOF--net-pyr--node1-BETDEL_clean_sbu_0--node2-CUQRIR_clean_linker_1--edge1-TEMPAE_clean_linker_10
_symmetry_space_group_name_H-M    P1
_symmetry_Int_Tables_number       1
_symmetry_cell_setting            triclinic
loop_
_symmetry_equiv_pos_as_xyz
'x, y, z'
_cell_length_a     34.287594
_cell_length_b     35.797009
_cell_length_c     32.349018
_cell_angle_alpha  90.352014
_cell_angle_beta   90.686535
_cell_angle_gamma 99.234328
loop_
_atom_site_label
_atom_site_type_symbol
_atom_site_fract_x
_atom_site_fract_y
_atom_site_fract_z
_atom_type_partial_charge
C0 C 0.22589 0.27368 0.18327 0.0
N1 N 0.24724 0.24583 0.19056 0.0
N2 N 0.23444 0.2895 0.146 0.0
C3 C 0.19282 0.2821 0.21029 0.0
C4 C 0.26241 0.27067 0.13092 0.0
N5 N 0.27026 0.24409 0.15807 0.0
C6 C 0.27832 0.27498 0.08778 0.0
H7 H 0.16557 0.26191 0.20266 0.0
H8 H 0.18689 0.31132 0.20519 0.0
H9 H 0.20023 0.27851 0.24337 0.0
H10 H 0.30695 0.29447 0.08868 0.0
H11 H 0.25792 0.28713 0.06676 0.0
H12 H 0.28355 0.2473 0.07526 0.0
C13 C 0.26476 0.82818 0.65931 0.0
N14 N 0.25887 0.85788 0.68335 0.0
N15 N 0.29351 0.81068 0.67575 0.0
C16 C 0.24281 0.81688 0.61944 0.0
C17 C 0.30509 0.83094 0.71043 0.0
N18 N 0.2842 0.85969 0.71499 0.0
C19 C 0.33778 0.82337 0.73916 0.0
H20 H 0.21061 0.81098 0.62522 0.0
H21 H 0.25169 0.79133 0.60526 0.0
H22 H 0.24812 0.84077 0.59743 0.0
H23 H 0.36066 0.81115 0.72203 0.0
H24 H 0.32514 0.80266 0.76273 0.0
H25 H 0.3519 0.8495 0.75544 0.0
C26 C 0.60535 0.34696 0.85107 0.0
N27 N 0.6303 0.34158 0.88253 0.0
N28 N 0.6187 0.37954 0.83087 0.0
C29 C 0.56983 0.31881 0.83802 0.0
C30 C 0.65267 0.39365 0.85124 0.0
N31 N 0.65993 0.3704 0.88217 0.0
C32 C 0.67794 0.43113 0.84241 0.0
H33 H 0.57394 0.28953 0.8458 0.0
H34 H 0.56404 0.32042 0.80432 0.0
H35 H 0.54361 0.32525 0.85476 0.0
H36 H 0.66026 0.451 0.82786 0.0
H37 H 0.70185 0.42648 0.8211 0.0
H38 H 0.69197 0.44418 0.87126 0.0
C39 C 0.82882 0.66434 0.32924 0.0
N40 N 0.86028 0.69029 0.31815 0.0
N41 N 0.81047 0.67658 0.36238 0.0
C42 C 0.81475 0.62812 0.30583 0.0
C43 C 0.83193 0.71091 0.37116 0.0
N44 N 0.8622 0.71946 0.3444 0.0
C45 C 0.82357 0.73595 0.40645 0.0
H46 H 0.80075 0.63489 0.2763 0.0
H47 H 0.79287 0.60846 0.32339 0.0
H48 H 0.84026 0.61391 0.29811 0.0
H49 H 0.80737 0.71909 0.43137 0.0
H50 H 0.80504 0.75647 0.39486 0.0
H51 H 0.85141 0.75213 0.41938 0.0
C52 C 0.79076 0.85325 0.88418 0.0
N53 N 0.8228 0.8458 0.86379 0.0
N54 N 0.7707 0.87532 0.86095 0.0
C55 C 0.78084 0.84121 0.92788 0.0
C56 C 0.79165 0.88081 0.82568 0.0
N57 N 0.82312 0.86234 0.82721 0.0
C58 C 0.78312 0.90637 0.79102 0.0
H59 H 0.74894 0.83926 0.93414 0.0
H60 H 0.79724 0.86245 0.94951 0.0
H61 H 0.78982 0.81337 0.93436 0.0
H62 H 0.80898 0.92894 0.7868 0.0
H63 H 0.75641 0.91935 0.79665 0.0
H64 H 0.77835 0.88989 0.76178 0.0
C65 C 0.77179 0.2527 0.40655 0.0
N66 N 0.7803 0.22346 0.38291 0.0
N67 N 0.74187 0.26821 0.38917 0.0
C68 C 0.7922 0.2658 0.44664 0.0
C69 C 0.73217 0.24722 0.35467 0.0
N70 N 0.75528 0.22024 0.35087 0.0
C71 C 0.69944 0.25271 0.32487 0.0
H72 H 0.80061 0.24148 0.46379 0.0
H73 H 0.77326 0.28072 0.4663 0.0
H74 H 0.81951 0.28585 0.43991 0.0
H75 H 0.67589 0.26511 0.34063 0.0
H76 H 0.68606 0.22562 0.31004 0.0
H77 H 0.7119 0.27232 0.3002 0.0
C78 C 0.35334 0.66843 0.16693 0.0
N79 N 0.38444 0.69267 0.18271 0.0
N80 N 0.33787 0.68329 0.13337 0.0
C81 C 0.3374 0.63033 0.18466 0.0
C82 C 0.3608 0.71735 0.12886 0.0
N83 N 0.38922 0.72309 0.15871 0.0
C84 C 0.35217 0.74709 0.09885 0.0
H85 H 0.3616 0.61714 0.19851 0.0
H86 H 0.32181 0.61126 0.16043 0.0
H87 H 0.31602 0.63394 0.20928 0.0
H88 H 0.33172 0.76415 0.11352 0.0
H89 H 0.33787 0.73412 0.07018 0.0
H90 H 0.37959 0.7664 0.09069 0.0
C91 C 0.13708 0.36012 0.70794 0.0
N92 N 0.16105 0.35526 0.67596 0.0
N93 N 0.1476 0.3947 0.72587 0.0
C94 C 0.10424 0.3303 0.72258 0.0
C95 C 0.17909 0.41074 0.70335 0.0
N96 N 0.18733 0.38681 0.67298 0.0
C97 C 0.20149 0.44994 0.71096 0.0
H98 H 0.07679 0.3328 0.70502 0.0
H99 H 0.09881 0.33384 0.75601 0.0
H100 H 0.11134 0.30154 0.71695 0.0
H101 H 0.22425 0.44855 0.73533 0.0
H102 H 0.18134 0.46914 0.72195 0.0
H103 H 0.21671 0.46202 0.68292 0.0
Dy104 Dy 0.05765 0.0444 0.46115 0.0
C105 C 0.99374 0.98568 0.61385 0.0
C106 C 0.09576 0.07866 0.39486 0.0
Dy107 Dy 0.01206 0.02114 0.54106 0.0
O108 O 0.10571 0.05003 0.41425 0.0
O109 O 0.06428 0.08824 0.41107 0.0
O110 O 0.09357 0.99818 0.47468 0.0
O111 O 0.07324 0.02801 0.52338 0.0
C112 C 0.09143 1.00132 0.51451 0.0
C113 C 0.96495 0.05577 0.49238 0.0
O114 O 0.04763 0.07679 0.56255 0.0
O115 O 0.07506 0.09721 0.49946 0.0
O116 O 0.98643 0.01915 0.60444 0.0
O117 O 0.01135 0.97159 0.5835 0.0
O118 O 0.95498 0.04196 0.52849 0.0
O119 O 0.99928 0.04922 0.48419 0.0
O120 O 0.01486 0.99595 0.4356 0.0
O121 O 0.99728 0.96923 0.49932 0.0
C122 C 0.06861 0.10308 0.53921 0.0
C123 C 0.998 0.96717 0.45817 0.0
Dy124 Dy 0.54991 0.05472 0.07506 0.0
C125 C 0.42083 0.981 0.96067 0.0
C126 C 0.61251 0.09588 0.11582 0.0
Dy127 Dy 0.48125 0.02016 0.00699 0.0
O128 O 0.61246 0.06294 0.09876 0.0
O129 O 0.57835 0.10667 0.11012 0.0
O130 O 0.53764 1.0078 0.12128 0.0
O131 O 0.50413 1.00546 0.06729 0.0
C132 C 0.50948 0.98761 0.0999 0.0
C133 C 0.52491 0.08705 0.98403 0.0
O134 O 0.44797 0.04553 0.05579 0.0
O135 O 0.4997 0.08488 0.09064 0.0
O136 O 0.4219 0.01503 0.97534 0.0
O137 O 0.45235 0.96773 0.97262 0.0
O138 O 0.4967 0.06857 0.96125 0.0
O139 O 0.5271 0.06793 0.01592 0.0
O140 O 0.58296 0.03091 0.02457 0.0
O141 O 0.53173 0.99236 0.98819 0.0
C142 C 0.46169 0.07383 0.08151 0.0
C143 C 0.56961 1.00425 0.9968 0.0
Dy144 Dy 0.5043 0.49569 0.47832 0.0
C145 C 0.43813 0.60974 0.56596 0.0
C146 C 0.55734 0.45175 0.45102 0.0
Dy147 Dy 0.48119 0.56083 0.5301 0.0
O148 O 0.51964 0.44571 0.44188 0.0
O149 O 0.56557 0.48192 0.47387 0.0
O150 O 0.44094 0.46697 0.47234 0.0
O151 O 0.4593 0.5002 0.52465 0.0
C152 C 0.42945 0.48205 0.50603 0.0
C153 C 0.55617 0.57211 0.50346 0.0
O154 O 0.49706 0.5258 0.58263 0.0
O155 O 0.52485 0.48298 0.5426 0.0
O156 O 0.47623 0.61188 0.56939 0.0
O157 O 0.42354 0.58071 0.54317 0.0
O158 O 0.54544 0.58671 0.53762 0.0
O159 O 0.52592 0.55581 0.48434 0.0
O160 O 0.48901 0.5323 0.42581 0.0
O161 O 0.4613 0.57513 0.46624 0.0
C162 C 0.5173 0.49742 0.57899 0.0
C163 C 0.46985 0.56167 0.42964 0.0
Dy164 Dy 0.99891 0.50418 0.04032 0.0
C165 C 0.95562 0.64297 0.97838 0.0
C166 C 0.03369 0.44422 0.06204 0.0
Dy167 Dy 0.97965 0.57612 0.99525 0.0
O168 O 0.02922 0.47194 0.08675 0.0
O169 O 0.01791 0.44867 0.02616 0.0
O170 O 0.9576 0.51465 0.09127 0.0
O171 O 0.98855 0.56077 0.05962 0.0
C172 C 0.96264 0.55125 0.08671 0.0
C173 C 0.00787 0.53024 0.93998 0.0
O174 O 0.03988 0.59798 0.02146 0.0
O175 O 0.05823 0.53967 0.0359 0.0
O176 O 0.98922 0.63387 0.96755 0.0
O177 O 0.93502 0.6155 0.9987 0.0
O178 O 0.99732 0.56237 0.93027 0.0
O179 O 1.00144 0.52522 0.97799 0.0
O180 O 0.94131 0.47976 0.01214 0.0
O181 O 0.92096 0.53666 0.99407 0.0
C182 C 0.06687 0.57679 0.03162 0.0
C183 C 0.91403 0.49924 0.99889 0.0
C184 C 0.24785 0.21601 0.25853 0.0
C185 C 0.23399 0.21518 0.21776 0.0
C186 C 0.22839 0.19106 0.28776 0.0
C187 C 0.19462 0.16497 0.27537 0.0
C188 C 0.18207 0.1628 0.23353 0.0
C189 C 0.20152 0.1885 0.20543 0.0
C190 C 0.24221 0.19441 0.33228 0.0
C191 C 0.14654 0.13511 0.21894 0.0
C192 C 0.15165 0.08526 0.34593 0.0
C193 C 0.11986 0.09992 0.36301 0.0
C194 C 0.1766 0.10624 0.3175 0.0
C195 C 0.16971 0.14281 0.30654 0.0
C196 C 0.13762 0.15773 0.3238 0.0
C197 C 0.11283 0.1359 0.35168 0.0
C198 C 0.21009 0.08928 0.29903 0.0
C199 C 0.12952 0.19676 0.31285 0.0
H200 H 0.27233 0.23756 0.26785 0.0
H201 H 0.19055 0.18897 0.17389 0.0
H202 H 0.22025 0.20643 0.35103 0.0
H203 H 0.24449 0.16612 0.34498 0.0
H204 H 0.27132 0.21296 0.33594 0.0
H205 H 0.14391 0.13387 0.18468 0.0
H206 H 0.14822 0.1063 0.23053 0.0
H207 H 0.11927 0.14366 0.23143 0.0
H208 H 0.15706 0.05738 0.35486 0.0
H209 H 0.08842 0.1473 0.36524 0.0
H210 H 0.23865 0.10784 0.30564 0.0
H211 H 0.20643 0.08731 0.26491 0.0
H212 H 0.21165 0.06059 0.31119 0.0
H213 H 0.15617 0.21811 0.31928 0.0
H214 H 0.10439 0.20475 0.33038 0.0
H215 H 0.12268 0.198 0.27933 0.0
C216 C 0.31932 0.91772 0.74665 0.0
C217 C 0.28914 0.88652 0.74855 0.0
C218 C 0.33545 0.93614 0.7829 0.0
C219 C 0.32088 0.92287 0.82188 0.0
C220 C 0.28777 0.89364 0.82353 0.0
C221 C 0.27245 0.87564 0.78673 0.0
C222 C 0.37062 0.96722 0.77957 0.0
C223 C 0.27089 0.87894 0.86424 0.0
C224 C 0.39831 0.93053 0.90805 0.0
C225 C 0.39208 0.96342 0.9289 0.0
C226 C 0.3746 0.91655 0.87387 0.0
C227 C 0.34369 0.93577 0.86039 0.0
C228 C 0.33617 0.96803 0.88254 0.0
C229 C 0.36059 0.98158 0.91644 0.0
C230 C 0.38373 0.88206 0.85112 0.0
C231 C 0.30327 0.98901 0.86954 0.0
H232 H 0.33273 0.92532 0.71707 0.0
H233 H 0.24967 0.85091 0.78798 0.0
H234 H 0.36726 0.99138 0.80012 0.0
H235 H 0.3977 0.95632 0.78967 0.0
H236 H 0.37485 0.97766 0.7474 0.0
H237 H 0.24142 0.86112 0.86019 0.0
H238 H 0.29113 0.86153 0.87897 0.0
H239 H 0.26819 0.90265 0.88571 0.0
H240 H 0.42269 0.91649 0.91748 0.0
H241 H 0.35567 1.00706 0.93248 0.0
H242 H 0.39331 0.88997 0.81926 0.0
H243 H 0.35684 0.86031 0.84845 0.0
H244 H 0.4074 0.86929 0.86672 0.0
H245 H 0.31027 1.00263 0.83922 0.0
H246 H 0.29877 0.01124 0.8923 0.0
H247 H 0.27517 0.96904 0.86556 0.0
C248 C 0.62655 0.40629 0.76098 0.0
C249 C 0.6023 0.39466 0.79457 0.0
C250 C 0.61184 0.42315 0.72638 0.0
C251 C 0.57145 0.42716 0.72466 0.0
C252 C 0.54644 0.41426 0.75792 0.0
C253 C 0.56235 0.39866 0.79281 0.0
C254 C 0.63968 0.43714 0.69194 0.0
C255 C 0.50298 0.41705 0.75669 0.0
C256 C 0.5413 0.50111 0.65229 0.0
C257 C 0.52983 0.47943 0.61673 0.0
C258 C 0.55482 0.48444 0.68777 0.0
C259 C 0.5556 0.44498 0.688 0.0
C260 C 0.54279 0.4228 0.65253 0.0
C261 C 0.53068 0.44042 0.61706 0.0
C262 C 0.56932 0.50919 0.72455 0.0
C263 C 0.54209 0.38051 0.65196 0.0
H264 H 0.65723 0.40242 0.76202 0.0
H265 H 0.54371 0.38988 0.81894 0.0
H266 H 0.62987 0.4219 0.66276 0.0
H267 H 0.63928 0.46767 0.68659 0.0
H268 H 0.67056 0.43318 0.69885 0.0
H269 H 0.48719 0.40381 0.78403 0.0
H270 H 0.49904 0.44717 0.75553 0.0
H271 H 0.489 0.40304 0.7283 0.0
H272 H 0.54084 0.53132 0.65191 0.0
H273 H 0.52135 0.42355 0.58969 0.0
H274 H 0.6008 0.50734 0.7311 0.0
H275 H 0.55239 0.49913 0.75243 0.0
H276 H 0.5666 0.53934 0.71948 0.0
H277 H 0.57262 0.3742 0.65493 0.0
H278 H 0.52856 0.36702 0.62307 0.0
H279 H 0.52526 0.36739 0.6787 0.0
C280 C 0.91894 0.6706 0.28706 0.0
C281 C 0.88443 0.68656 0.28249 0.0
C282 C 0.93518 0.65356 0.25322 0.0
C283 C 0.91611 0.65191 0.21386 0.0
C284 C 0.88297 0.67066 0.20857 0.0
C285 C 0.86768 0.68776 0.24286 0.0
C286 C 0.97086 0.6346 0.26046 0.0
C287 C 0.86137 0.66973 0.16757 0.0
C288 C 0.96589 0.61635 0.11866 0.0
C289 C 0.94943 0.57777 0.1175 0.0
C290 C 0.95547 0.64086 0.14964 0.0
C291 C 0.92753 0.62671 0.18005 0.0
C292 C 0.91021 0.58794 0.17831 0.0
C293 C 0.92149 0.56404 0.14736 0.0
C294 C 0.97487 0.68179 0.15027 0.0
C295 C 0.87987 0.57151 0.20949 0.0
H296 H 0.93134 0.66877 0.31781 0.0
H297 H 0.84043 0.69923 0.23953 0.0
H298 H 0.96162 0.60344 0.26033 0.0
H299 H 0.9925 0.6415 0.23533 0.0
H300 H 0.9857 0.64315 0.29055 0.0
H301 H 0.83995 0.68994 0.16684 0.0
H302 H 0.88248 0.67645 0.14195 0.0
H303 H 0.84496 0.6408 0.16182 0.0
H304 H 0.98757 0.62726 0.09581 0.0
H305 H 0.90851 0.53436 0.14669 0.0
H306 H 0.99164 0.68824 0.17969 0.0
H307 H 0.95208 0.70053 0.14891 0.0
H308 H 0.9954 0.68869 0.1241 0.0
H309 H 0.89311 0.57428 0.24104 0.0
H310 H 0.86835 0.54116 0.20332 0.0
H311 H 0.85468 0.58748 0.20919 0.0
C312 C 0.33781 0.23364 0.14403 0.0
C313 C 0.29858 0.21881 0.15303 0.0
C314 C 0.36538 0.20973 0.1356 0.0
C315 C 0.35361 0.17005 0.13777 0.0
C316 C 0.31448 0.15497 0.14882 0.0
C317 C 0.28715 0.17953 0.1551 0.0
C318 C 0.40643 0.22687 0.12242 0.0
C319 C 0.30102 0.11284 0.15245 0.0
C320 C 0.40506 0.10733 0.06989 0.0
C321 C 0.43316 0.09669 0.09722 0.0
C322 C 0.37935 0.13161 0.08268 0.0
C323 C 0.38087 0.14432 0.12427 0.0
C324 C 0.40848 0.13272 0.15239 0.0
C325 C 0.43504 0.10958 0.13823 0.0
C326 C 0.35124 0.14437 0.05141 0.0
C327 C 0.4098 0.14459 0.1973 0.0
H328 H 0.34651 0.26406 0.14251 0.0
H329 H 0.25666 0.16771 0.16009 0.0
H330 H 0.42895 0.21651 0.14226 0.0
H331 H 0.4113 0.21796 0.09021 0.0
H332 H 0.41127 0.2583 0.12386 0.0
H333 H 0.27198 0.10618 0.16789 0.0
H334 H 0.29823 0.09968 0.12121 0.0
H335 H 0.32307 0.09962 0.17017 0.0
H336 H 0.40418 0.09772 0.03797 0.0
H337 H 0.45688 0.10117 0.15923 0.0
H338 H 0.35586 0.17574 0.05014 0.0
H339 H 0.32025 0.13485 0.06078 0.0
H340 H 0.3551 0.13315 0.01988 0.0
H341 H 0.41752 0.1758 0.2 0.0
H342 H 0.43166 0.13153 0.21556 0.0
H343 H 0.38019 0.13646 0.2111 0.0
C344 C 0.24815 0.91982 0.65772 0.0
C345 C 0.23275 0.88434 0.67357 0.0
C346 C 0.22356 0.94168 0.63695 0.0
C347 C 0.18274 0.92737 0.63168 0.0
C348 C 0.16668 0.89283 0.65065 0.0
C349 C 0.19196 0.87179 0.67146 0.0
C350 C 0.24184 0.97861 0.61783 0.0
C351 C 0.12345 0.87645 0.64597 0.0
C352 C 0.11382 0.99108 0.58699 0.0
C353 C 0.11322 0.98138 0.54486 0.0
C354 C 0.13609 0.97369 0.61578 0.0
C355 C 0.15814 0.94583 0.6021 0.0
C356 C 0.15695 0.93548 0.55966 0.0
C357 C 0.1346 0.95343 0.53158 0.0
C358 C 0.1365 0.98549 0.66067 0.0
C359 C 0.17964 0.9056 0.54379 0.0
H360 H 0.27981 0.92911 0.65893 0.0
H361 H 0.18034 0.84416 0.68364 0.0
H362 H 0.24296 0.97499 0.58379 0.0
H363 H 0.22365 1.00095 0.62406 0.0
H364 H 0.27236 0.98836 0.62964 0.0
H365 H 0.11465 0.85239 0.66722 0.0
H366 H 0.10467 0.89837 0.6519 0.0
H367 H 0.11734 0.86616 0.61374 0.0
H368 H 0.09728 0.01269 0.59741 0.0
H369 H 0.13411 0.94577 0.49908 0.0
H370 H 0.16704 0.99765 0.67049 0.0
H371 H 0.12695 0.96048 0.68032 0.0
H372 H 0.11689 1.00678 0.66652 0.0
H373 H 0.21172 0.91457 0.54974 0.0
H374 H 0.17488 0.90016 0.51011 0.0
H375 H 0.17061 0.87867 0.56047 0.0
C376 C 0.73115 0.37409 0.89004 0.0
C377 C 0.69464 0.37583 0.90807 0.0
C378 C 0.76646 0.39102 0.90929 0.0
C379 C 0.76503 0.41011 0.94758 0.0
C380 C 0.72829 0.40911 0.96756 0.0
C381 C 0.69335 0.39201 0.94735 0.0
C382 C 0.80489 0.39122 0.88691 0.0
C383 C 0.72554 0.42861 0.00864 0.0
C384 C 0.86403 0.44013 1.00182 0.0
C385 C 0.87438 0.47771 0.98857 0.0
C386 C 0.82783 0.41823 0.99018 0.0
C387 C 0.80141 0.43409 0.96429 0.0
C388 C 0.81109 0.47233 0.95179 0.0
C389 C 0.84737 0.49376 0.96428 0.0
C390 C 0.81841 0.37776 1.00454 0.0
C391 C 0.78372 0.49022 0.92396 0.0
H392 H 0.73166 0.36201 0.85927 0.0
H393 H 0.66486 0.39381 0.96068 0.0
H394 H 0.81612 0.42033 0.87624 0.0
H395 H 0.82759 0.38272 0.90799 0.0
H396 H 0.80138 0.37193 0.85961 0.0
H397 H 0.69613 0.42027 0.02289 0.0
H398 H 0.74868 0.422 0.03043 0.0
H399 H 0.73053 0.45971 1.00417 0.0
H400 H 0.88446 0.42753 0.02103 0.0
H401 H 0.85506 0.52271 0.95391 0.0
H402 H 0.81801 0.35827 0.97769 0.0
H403 H 0.78861 0.37238 0.01839 0.0
H404 H 0.84033 0.37076 0.02762 0.0
H405 H 0.78045 0.47527 0.89365 0.0
H406 H 0.79469 0.5207 0.91856 0.0
H407 H 0.75389 0.4874 0.93766 0.0
C408 C 0.74116 0.67725 0.38111 0.0
C409 C 0.77442 0.65913 0.38171 0.0
C410 C 0.70615 0.66143 0.40093 0.0
C411 C 0.70438 0.62662 0.42207 0.0
C412 C 0.738 0.6081 0.42255 0.0
C413 C 0.77266 0.62466 0.40242 0.0
C414 C 0.67111 0.68212 0.39946 0.0
C415 C 0.73746 0.57104 0.44469 0.0
C416 C 0.62573 0.60696 0.50508 0.0
C417 C 0.59522 0.58344 0.48391 0.0
C418 C 0.66177 0.62038 0.48571 0.0
C419 C 0.66751 0.61007 0.44409 0.0
C420 C 0.63718 0.58536 0.42301 0.0
C421 C 0.60146 0.57235 0.44315 0.0
C422 C 0.69334 0.64644 0.50944 0.0
C423 C 0.64199 0.57353 0.37873 0.0
H424 H 0.74274 0.70393 0.36506 0.0
H425 H 0.79865 0.61098 0.40315 0.0
H426 H 0.64514 0.66357 0.38561 0.0
H427 H 0.66305 0.68939 0.43129 0.0
H428 H 0.67706 0.70857 0.38122 0.0
H429 H 0.76565 0.55981 0.44134 0.0
H430 H 0.73204 0.57485 0.47808 0.0
H431 H 0.71295 0.54965 0.43248 0.0
H432 H 0.62115 0.61553 0.53662 0.0
H433 H 0.57803 0.55411 0.42661 0.0
H434 H 0.69851 0.67463 0.49458 0.0
H435 H 0.72165 0.63519 0.5088 0.0
H436 H 0.68521 0.65017 0.54218 0.0
H437 H 0.64471 0.5987 0.3585 0.0
H438 H 0.61664 0.55247 0.3675 0.0
H439 H 0.66949 0.56119 0.37554 0.0
C440 C 0.17014 0.29051 0.1136 0.0
C441 C 0.20837 0.30902 0.12276 0.0
C442 C 0.14118 0.31065 0.09909 0.0
C443 C 0.15124 0.35004 0.09282 0.0
C444 C 0.19082 0.36824 0.09873 0.0
C445 C 0.21905 0.34738 0.11411 0.0
C446 C 0.09926 0.29033 0.09371 0.0
C447 C 0.20271 0.41008 0.09134 0.0
C448 C 0.07724 0.40025 0.037 0.0
C449 C 0.06043 0.41701 0.07019 0.0
C450 C 0.10713 0.37845 0.04377 0.0
C451 C 0.11958 0.37272 0.08473 0.0
C452 C 0.10159 0.38848 0.11843 0.0
C453 C 0.07246 0.41091 0.11067 0.0
C454 C 0.12619 0.36262 0.00715 0.0
C455 C 0.11352 0.38213 0.16263 0.0
H456 H 0.16249 0.26062 0.12037 0.0
H457 H 0.24884 0.36125 0.12133 0.0
H458 H 0.08054 0.29992 0.1181 0.0
H459 H 0.08678 0.2972 0.06344 0.0
H460 H 0.09728 0.25911 0.09587 0.0
H461 H 0.23532 0.41867 0.09175 0.0
H462 H 0.19079 0.41805 0.06118 0.0
H463 H 0.19009 0.42631 0.11574 0.0
H464 H 0.06824 0.4055 1.00561 0.0
H465 H 0.05943 0.42407 0.13621 0.0
H466 H 0.12398 0.33148 0.00982 0.0
H467 H 0.1581 0.37461 0.00667 0.0
H468 H 0.11246 0.36909 0.97729 0.0
H469 H 0.11065 0.35136 0.16881 0.0
H470 H 0.09531 0.39494 0.18524 0.0
H471 H 0.14498 0.39457 0.16784 0.0
C472 C 0.59317 0.30246 0.93515 0.0
C473 C 0.62612 0.30953 0.90963 0.0
C474 C 0.58226 0.267 0.95357 0.0
C475 C 0.6047 0.23778 0.94581 0.0
C476 C 0.64001 0.24594 0.92285 0.0
C477 C 0.65032 0.28188 0.90498 0.0
C478 C 0.54464 0.25984 0.97806 0.0
C479 C 0.6649 0.21579 0.91392 0.0
C480 C 0.57471 0.14444 1.00259 0.0
C481 C 0.54807 0.12434 0.97405 0.0
C482 C 0.59443 0.1811 0.99363 0.0
C483 C 0.58737 0.19778 0.95516 0.0
C484 C 0.56141 0.17691 0.92583 0.0
C485 C 0.54208 0.14058 0.9357 0.0
C486 C 0.62182 0.20235 0.02571 0.0
C487 C 0.55307 0.19337 0.88434 0.0
H488 H 0.57453 0.32403 0.93836 0.0
H489 H 0.67558 0.28747 0.88482 0.0
H490 H 0.52117 0.2423 0.9593 0.0
H491 H 0.54898 0.24398 0.00665 0.0
H492 H 0.53412 0.2866 0.98666 0.0
H493 H 0.6946 0.2281 0.90252 0.0
H494 H 0.66849 0.19892 0.94196 0.0
H495 H 0.6499 0.19613 0.8899 0.0
H496 H 0.57947 0.13185 0.03219 0.0
H497 H 0.52164 0.12505 0.91346 0.0
H498 H 0.60902 0.22694 0.03726 0.0
H499 H 0.65072 0.21362 0.01182 0.0
H500 H 0.6269 0.18428 0.05243 0.0
H501 H 0.53848 0.21859 0.88885 0.0
H502 H 0.53368 0.17275 0.86427 0.0
H503 H 0.58112 0.2028 0.86795 0.0
C504 C 0.92662 0.75714 0.36314 0.0
C505 C 0.8892 0.75491 0.34455 0.0
C506 C 0.94765 0.79209 0.37758 0.0
C507 C 0.93054 0.82556 0.37397 0.0
C508 C 0.89397 0.82367 0.35248 0.0
C509 C 0.87399 0.78851 0.33791 0.0
C510 C 0.98686 0.79265 0.39939 0.0
C511 C 0.87419 0.8582 0.34795 0.0
C512 C 0.95511 0.90271 0.4573 0.0
C513 C 0.98066 0.93095 0.43666 0.0
C514 C 0.93883 0.86845 0.43733 0.0
C515 C 0.94875 0.86163 0.39576 0.0
C516 C 0.97495 0.88979 0.37495 0.0
C517 C 0.99025 0.92407 0.39542 0.0
C518 C 0.91058 0.83963 0.46068 0.0
C519 C 0.9869 0.88368 0.33098 0.0
H520 H 0.93799 0.73114 0.36925 0.0
H521 H 0.84464 0.78664 0.32444 0.0
H522 H 0.00873 0.81679 0.38868 0.0
H523 H 0.98318 0.79645 0.43311 0.0
H524 H 0.99887 0.76598 0.39428 0.0
H525 H 0.84802 0.85295 0.32689 0.0
H526 H 0.86443 0.86667 0.37873 0.0
H527 H 0.89525 0.88237 0.336 0.0
H528 H 0.94737 0.90754 0.48905 0.0
H529 H 0.01024 0.94536 0.37912 0.0
H530 H 0.92216 0.81246 0.46219 0.0
H531 H 0.88167 0.83399 0.44413 0.0
H532 H 0.90566 0.84913 0.49269 0.0
H533 H 0.99997 0.85733 0.32873 0.0
H534 H 0.00864 0.90764 0.31952 0.0
H535 H 0.96049 0.88006 0.31033 0.0
C536 C 0.32889 0.78341 0.62038 0.0
C537 C 0.31067 0.77988 0.65893 0.0
C538 C 0.34818 0.75466 0.60486 0.0
C539 C 0.34963 0.7219 0.62883 0.0
C540 C 0.33084 0.71812 0.66768 0.0
C541 C 0.3115 0.74722 0.68223 0.0
C542 C 0.36773 0.7597 0.56324 0.0
C543 C 0.33193 0.68378 0.69425 0.0
C544 C 0.37463 0.63437 0.57467 0.0
C545 C 0.41513 0.6374 0.58343 0.0
C546 C 0.35279 0.66153 0.58951 0.0
C547 C 0.37197 0.69223 0.61385 0.0
C548 C 0.41278 0.695 0.62335 0.0
C549 C 0.4339 0.66757 0.6079 0.0
C550 C 0.30939 0.65771 0.57863 0.0
C551 C 0.43422 0.72719 0.64943 0.0
H552 H 0.3286 0.80907 0.60286 0.0
H553 H 0.2974 0.74484 0.71211 0.0
H554 H 0.40009 0.76079 0.56704 0.0
H555 H 0.35671 0.73517 0.54282 0.0
H556 H 0.36227 0.78599 0.54768 0.0
H557 H 0.31484 0.6847 0.72309 0.0
H558 H 0.31979 0.65767 0.67674 0.0
H559 H 0.36297 0.68174 0.70269 0.0
H560 H 0.36008 0.61104 0.55571 0.0
H561 H 0.46524 0.66991 0.61474 0.0
H562 H 0.3038 0.68268 0.56068 0.0
H563 H 0.29172 0.657 0.6072 0.0
H564 H 0.29872 0.63174 0.56015 0.0
H565 H 0.43299 0.75453 0.63389 0.0
H566 H 0.4657 0.7246 0.65503 0.0
H567 H 0.41952 0.72817 0.67969 0.0
C568 C 0.84975 0.86037 0.75737 0.0
C569 C 0.85595 0.86778 0.79957 0.0
C570 C 0.87867 0.87445 0.72879 0.0
C571 C 0.9148 0.89564 0.74319 0.0
C572 C 0.92293 0.899 0.78616 0.0
C573 C 0.89306 0.88535 0.81397 0.0
C574 C 0.86885 0.87008 0.68322 0.0
C575 C 0.96162 0.92013 0.80273 0.0
C576 C 0.98823 0.92887 0.65908 0.0
C577 C 0.97846 0.96462 0.65064 0.0
C578 C 0.96948 0.90663 0.69097 0.0
C579 C 0.93979 0.92033 0.71395 0.0
C580 C 0.9313 0.9572 0.70667 0.0
C581 C 0.95109 0.97904 0.67534 0.0
C582 C 0.98018 0.86798 0.69867 0.0
C583 C 0.89971 0.97288 0.73041 0.0
H584 H 0.82124 0.84576 0.74669 0.0
H585 H 0.89771 0.89083 0.84679 0.0
H586 H 0.86378 0.89773 0.6707 0.0
H587 H 0.8938 0.8614 0.66612 0.0
H588 H 0.8419 0.84893 0.67717 0.0
H589 H 0.96669 0.91296 0.83552 0.0
H590 H 0.98672 0.91377 0.78404 0.0
H591 H 0.96131 0.95102 0.80094 0.0
H592 H 0.00972 0.91788 0.6401 0.0
H593 H 0.94365 1.00675 0.66888 0.0
H594 H 0.95745 0.84612 0.68418 0.0
H595 H 0.98101 0.86201 0.73226 0.0
H596 H 0.00928 0.86519 0.68527 0.0
H597 H 0.87056 0.95502 0.72453 0.0
H598 H 0.89755 1.00244 0.72165 0.0
H599 H 0.90589 0.97225 0.7641 0.0
C600 C 0.76909 0.20447 0.27964 0.0
C601 C 0.7521 0.19327 0.31758 0.0
C602 C 0.75431 0.18635 0.24276 0.0
C603 C 0.72169 0.15662 0.24429 0.0
C604 C 0.70737 0.14272 0.28307 0.0
C605 C 0.72264 0.16148 0.31928 0.0
C606 C 0.7707 0.20177 0.20213 0.0
C607 C 0.67287 0.1109 0.28625 0.0
C608 C 0.63941 0.14823 0.16415 0.0
C609 C 0.64416 0.11489 0.14344 0.0
C610 C 0.66597 0.16335 0.19552 0.0
C611 C 0.69802 0.14458 0.20633 0.0
C612 C 0.70442 0.11229 0.18358 0.0
C613 C 0.67729 0.09775 0.15235 0.0
C614 C 0.65805 0.19795 0.21891 0.0
C615 C 0.73845 0.09181 0.19383 0.0
H616 H 0.79128 0.22968 0.27858 0.0
H617 H 0.70881 0.15379 0.34864 0.0
H618 H 0.7725 0.17853 0.17973 0.0
H619 H 0.75068 0.22005 0.18861 0.0
H620 H 0.8005 0.21898 0.20614 0.0
H621 H 0.66928 0.09988 0.31825 0.0
H622 H 0.6453 0.12132 0.27689 0.0
H623 H 0.67657 0.08723 0.26514 0.0
H624 H 0.61392 0.16161 0.15713 0.0
H625 H 0.68111 0.072 0.13617 0.0
H626 H 0.68549 0.21888 0.22251 0.0
H627 H 0.64754 0.18953 0.25033 0.0
H628 H 0.63524 0.21189 0.20331 0.0
H629 H 0.76616 0.11219 0.19851 0.0
H630 H 0.74311 0.07127 0.1692 0.0
H631 H 0.73235 0.07613 0.22313 0.0
C632 C 0.38189 0.68108 0.25709 0.0
C633 C 0.40435 0.68746 0.22121 0.0
C634 C 0.39578 0.66316 0.29146 0.0
C635 C 0.43378 0.65244 0.29048 0.0
C636 C 0.45816 0.66228 0.25578 0.0
C637 C 0.44291 0.67932 0.22124 0.0
C638 C 0.36846 0.65299 0.32737 0.0
C639 C 0.49939 0.65276 0.25405 0.0
C640 C 0.47101 0.62382 0.39509 0.0
C641 C 0.46271 0.58416 0.39279 0.0
C642 C 0.46382 0.64634 0.36128 0.0
C643 C 0.44652 0.62888 0.32465 0.0
C644 C 0.43858 0.58873 0.32196 0.0
C645 C 0.44748 0.56681 0.35584 0.0
C646 C 0.4741 0.68885 0.36508 0.0
C647 C 0.41928 0.56895 0.28386 0.0
H648 H 0.35196 0.68727 0.25673 0.0
H649 H 0.46005 0.68391 0.19327 0.0
H650 H 0.36085 0.62174 0.32944 0.0
H651 H 0.38327 0.66333 0.35686 0.0
H652 H 0.34063 0.66498 0.3242 0.0
H653 H 0.51662 0.66765 0.22847 0.0
H654 H 0.51547 0.66031 0.28368 0.0
H655 H 0.49778 0.62184 0.24924 0.0
H656 H 0.48348 0.63732 0.42343 0.0
H657 H 0.44112 0.53619 0.35402 0.0
H658 H 0.44666 0.70156 0.36541 0.0
H659 H 0.49143 0.70052 0.338 0.0
H660 H 0.49139 0.69779 0.39371 0.0
H661 H 0.38981 0.57733 0.27869 0.0
H662 H 0.41548 0.53764 0.28637 0.0
H663 H 0.43724 0.57769 0.25625 0.0
C664 C 0.08702 0.41095 0.75758 0.0
C665 C 0.12799 0.41134 0.75921 0.0
C666 C 0.06742 0.42733 0.78932 0.0
C667 C 0.08934 0.44541 0.82336 0.0
C668 C 0.13073 0.44555 0.82537 0.0
C669 C 0.14945 0.42826 0.79351 0.0
C670 C 0.02328 0.42602 0.7859 0.0
C671 C 0.15544 0.46485 0.86065 0.0
C672 C 0.0452 0.52476 0.87517 0.0
C673 C 0.0292 0.5078 0.91154 0.0
C674 C 0.06546 0.50506 0.84699 0.0
C675 C 0.06942 0.46693 0.85468 0.0
C676 C 0.05331 0.44951 0.89142 0.0
C677 C 0.03365 0.47026 0.91956 0.0
C678 C 0.08251 0.52514 0.80874 0.0
C679 C 0.05645 0.40886 0.90075 0.0
H680 H 0.07035 0.39832 0.73097 0.0
H681 H 0.18098 0.42812 0.79526 0.0
H682 H 0.00889 0.41497 0.81488 0.0
H683 H 0.01656 0.45504 0.78151 0.0
H684 H 0.01004 0.408 0.75963 0.0
H685 H 0.18695 0.46126 0.85859 0.0
H686 H 0.15381 0.49556 0.86068 0.0
H687 H 0.14371 0.45342 0.8906 0.0
H688 H 0.04211 0.55384 0.86876 0.0
H689 H 0.02104 0.45685 0.94727 0.0
H690 H 0.06811 0.51084 0.78071 0.0
H691 H 0.11455 0.52377 0.80691 0.0
H692 H 0.07852 0.55532 0.8082 0.0
H693 H 0.0444 0.39033 0.87444 0.0
H694 H 0.04037 0.39871 0.9292 0.0
H695 H 0.08795 0.40582 0.90479 0.0
C696 C 0.70334 0.8741 0.88582 0.0
C697 C 0.73968 0.89469 0.87448 0.0
C698 C 0.67449 0.89231 0.90381 0.0
C699 C 0.68191 0.93214 0.90886 0.0
C700 C 0.71778 0.95325 0.89506 0.0
C701 C 0.74664 0.93409 0.87871 0.0
C702 C 0.63701 0.86881 0.9192 0.0
C703 C 0.72614 0.99587 0.89875 0.0
C704 C 0.59375 0.97999 0.93155 0.0
C705 C 0.59867 0.98677 0.97408 0.0
C706 C 0.62127 0.96302 0.90954 0.0
C707 C 0.65335 0.95142 0.93112 0.0
C708 C 0.6581 0.95791 0.97424 0.0
C709 C 0.63098 0.97623 0.99513 0.0
C710 C 0.61621 0.95774 0.86333 0.0
C711 C 0.69136 0.94489 0.99841 0.0
H712 H 0.69828 0.8436 0.88197 0.0
H713 H 0.77503 0.94969 0.86988 0.0
H714 H 0.6353 0.87218 0.95323 0.0
H715 H 0.61077 0.87873 0.90543 0.0
H716 H 0.63544 0.83825 0.91182 0.0
H717 H 0.75332 1.00816 0.88213 0.0
H718 H 0.70089 1.00834 0.88621 0.0
H719 H 0.72988 1.0043 0.93179 0.0
H720 H 0.56876 0.98858 0.91544 0.0
H721 H 0.63434 0.98132 0.02816 0.0
H722 H 0.61188 0.92719 0.85528 0.0
H723 H 0.64333 0.97136 0.84756 0.0
H724 H 0.59062 0.96992 0.85105 0.0
H725 H 0.69036 0.91398 0.99394 0.0
H726 H 0.6899 0.95091 0.03204 0.0
H727 H 0.72025 0.95914 0.98689 0.0
C728 C 0.84929 0.21588 0.3996 0.0
C729 C 0.81003 0.19973 0.3908 0.0
C730 C 0.87769 0.1933 0.41102 0.0
C731 C 0.86681 0.15341 0.4128 0.0
C732 C 0.8277 0.1369 0.40159 0.0
C733 C 0.79974 0.16025 0.39142 0.0
C734 C 0.91868 0.21231 0.42348 0.0
C735 C 0.81473 0.09458 0.40249 0.0
C736 C 0.94573 0.08953 0.42834 0.0
C737 C 0.94198 0.08171 0.47064 0.0
C738 C 0.92163 0.11297 0.40877 0.0
C739 C 0.89405 0.12958 0.43235 0.0
C740 C 0.89133 0.12255 0.47528 0.0
C741 C 0.91484 0.09847 0.49362 0.0
C742 C 0.92488 0.11917 0.3628 0.0
C743 C 0.86318 0.14016 0.50203 0.0
H744 H 0.85752 0.24636 0.39852 0.0
H745 H 0.76937 0.14759 0.38565 0.0
H746 H 0.923 0.20904 0.45725 0.0
H747 H 0.94133 0.1987 0.40768 0.0
H748 H 0.92375 0.24299 0.41624 0.0
H749 H 0.78564 0.0859 0.38682 0.0
H750 H 0.83691 0.07983 0.38736 0.0
H751 H 0.81226 0.08497 0.43503 0.0
H752 H 0.9666 0.07658 0.41045 0.0
H753 H 0.91203 0.09292 0.52645 0.0
H754 H 0.93054 0.14988 0.35603 0.0
H755 H 0.89646 0.10723 0.34741 0.0
H756 H 0.94881 0.10571 0.34913 0.0
H757 H 0.86826 0.17135 0.49831 0.0
H758 H 0.86642 0.1337 0.53532 0.0
H759 H 0.83225 0.12957 0.49223 0.0
C760 C 0.2661 0.66832 0.13991 0.0
C761 C 0.29959 0.6711 0.11521 0.0
C762 C 0.22844 0.65558 0.12329 0.0
C763 C 0.22437 0.64576 0.08082 0.0
C764 C 0.25814 0.64964 0.05544 0.0
C765 C 0.29557 0.6621 0.07313 0.0
C766 C 0.19321 0.65147 0.15145 0.0
C767 C 0.25483 0.63968 0.01 0.0
C768 C 0.13554 0.57235 0.0546 0.0
C769 C 0.10798 0.59477 0.04087 0.0
C770 C 0.17389 0.5886 0.06643 0.0
C771 C 0.18519 0.62826 0.06416 0.0
C772 C 0.15816 0.65103 0.04887 0.0
C773 C 0.11969 0.634 0.03752 0.0
C774 C 0.2018 0.56337 0.08288 0.0
C775 C 0.16951 0.69342 0.04567 0.0
H776 H 0.26964 0.67585 0.1724 0.0
H777 H 0.32181 0.66438 0.05437 0.0
H778 H 0.17037 0.66709 0.13878 0.0
H779 H 0.17971 0.62121 0.1533 0.0
H780 H 0.2013 0.66212 0.18325 0.0
H781 H 0.28335 0.64766 0.99388 0.0
H782 H 0.24508 0.60877 0.00608 0.0
H783 H 0.23221 0.6541 0.99483 0.0
H784 H 0.12699 0.54198 0.05714 0.0
H785 H 0.09868 0.65148 0.02669 0.0
H786 H 0.2092 0.57055 0.11576 0.0
H787 H 0.22986 0.56805 0.06555 0.0
H788 H 0.18901 0.53286 0.08074 0.0
H789 H 0.17433 0.70604 0.07709 0.0
H790 H 0.14641 0.70664 0.0296 0.0
H791 H 0.19768 0.70061 0.02882 0.0
C792 C 0.21608 0.4216 0.612 0.0
C793 C 0.21836 0.39464 0.64281 0.0
C794 C 0.2489 0.43505 0.58728 0.0
C795 C 0.28493 0.42094 0.59318 0.0
C796 C 0.28663 0.39227 0.62302 0.0
C797 C 0.25343 0.3797 0.64762 0.0
C798 C 0.24553 0.46569 0.55624 0.0
C799 C 0.32406 0.37597 0.63018 0.0
C800 C 0.36449 0.43783 0.50993 0.0
C801 C 0.39135 0.46792 0.52695 0.0
C802 C 0.32982 0.42235 0.53095 0.0
C803 C 0.32132 0.43754 0.56981 0.0
C804 C 0.34794 0.46853 0.58663 0.0
C805 C 0.38261 0.48312 0.5652 0.0
C806 C 0.30263 0.38923 0.51189 0.0
C807 C 0.34002 0.4861 0.6276 0.0
H808 H 0.18903 0.43342 0.60871 0.0
H809 H 0.25536 0.35935 0.6719 0.0
H810 H 0.26536 0.49205 0.56568 0.0
H811 H 0.25516 0.45737 0.52538 0.0
H812 H 0.21489 0.47191 0.55345 0.0
H813 H 0.31964 0.3517 0.65179 0.0
H814 H 0.3351 0.36642 0.60045 0.0
H815 H 0.34734 0.39817 0.64323 0.0
H816 H 0.37098 0.42576 0.48048 0.0
H817 H 0.40314 0.50631 0.57866 0.0
H818 H 0.27244 0.39626 0.50809 0.0
H819 H 0.3004 0.36451 0.53276 0.0
H820 H 0.31301 0.38095 0.48128 0.0
H821 H 0.31056 0.49517 0.62681 0.0
H822 H 0.36266 0.51098 0.63569 0.0
H823 H 0.33955 0.46483 0.65247 0.0
C824 C 0.87119 0.83072 0.91496 0.0
C825 C 0.85034 0.82236 0.87777 0.0
C826 C 0.89323 0.80488 0.93222 0.0
C827 C 0.89414 0.77009 0.91156 0.0
C828 C 0.8752 0.76279 0.87252 0.0
C829 C 0.85354 0.78926 0.85598 0.0
C830 C 0.91357 0.81384 0.97357 0.0
C831 C 0.87567 0.72605 0.84949 0.0
C832 C 0.96573 0.70458 0.94195 0.0
C833 C 0.94138 0.67762 0.9653 0.0
C834 C 0.95122 0.7358 0.92542 0.0
C835 C 0.91147 0.73979 0.93234 0.0
C836 C 0.88726 0.71341 0.95729 0.0
C837 C 0.90261 0.68258 0.97361 0.0
C838 C 0.9779 0.76365 0.89931 0.0
C839 C 0.84467 0.71687 0.96536 0.0
H840 H 0.86894 0.85688 0.93112 0.0
H841 H 0.83728 0.78331 0.82712 0.0
H842 H 0.89783 0.79541 0.99756 0.0
H843 H 0.94436 0.80799 0.97275 0.0
H844 H 0.91411 0.84383 0.98294 0.0
H845 H 0.8625 0.7263 0.81796 0.0
H846 H 0.90636 0.72024 0.84684 0.0
H847 H 0.85871 0.70237 0.86696 0.0
H848 H 0.99584 0.70075 0.93569 0.0
H849 H 0.88387 0.66173 0.99175 0.0
H850 H 0.97717 0.79304 0.90996 0.0
H851 H 0.96722 0.7615 0.86674 0.0
H852 H 0.009 0.75849 0.90018 0.0
H853 H 0.8427 0.74526 0.97833 0.0
H854 H 0.83051 0.69507 0.98712 0.0
H855 H 0.82762 0.71389 0.93582 0.0
C856 C 0.39706 0.78849 0.18263 0.0
C857 C 0.4141 0.75876 0.16615 0.0
C858 C 0.41294 0.82637 0.17459 0.0
C859 C 0.44695 0.83456 0.14975 0.0
C860 C 0.46623 0.80459 0.13615 0.0
C861 C 0.44939 0.76698 0.14441 0.0
C862 C 0.39152 0.85734 0.18992 0.0
C863 C 0.50298 0.81206 0.11033 0.0
C864 C 0.46315 0.92609 0.08746 0.0
C865 C 0.49109 0.94908 0.11224 0.0
C866 C 0.44811 0.88877 0.0995 0.0
C867 C 0.46162 0.87428 0.13694 0.0
C868 C 0.4895 0.89768 0.16209 0.0
C869 C 0.5037 0.93469 0.14954 0.0
C870 C 0.41809 0.86468 0.07202 0.0
C871 C 0.50484 0.88344 0.20203 0.0
H872 H 0.3691 0.78187 0.19839 0.0
H873 H 0.46179 0.74383 0.13079 0.0
H874 H 0.41247 0.88015 0.20535 0.0
H875 H 0.37804 0.87015 0.16325 0.0
H876 H 0.36778 0.8466 0.21194 0.0
H877 H 0.5165 0.78616 0.10572 0.0
H878 H 0.49548 0.82272 0.07958 0.0
H879 H 0.52522 0.83422 0.12508 0.0
H880 H 0.45342 0.93709 0.05864 0.0
H881 H 0.52535 0.95229 0.16892 0.0
H882 H 0.39101 0.85444 0.08975 0.0
H883 H 0.43011 0.83937 0.06128 0.0
H884 H 0.40983 0.88034 0.04456 0.0
H885 H 0.47994 0.87389 0.22304 0.0
H886 H 0.52625 0.9054 0.2183 0.0
H887 H 0.51957 0.85862 0.19568 0.0
C888 C 0.17915 0.29483 0.65195 0.0
C889 C 0.15553 0.32311 0.6481 0.0
C890 C 0.16824 0.25925 0.63242 0.0
C891 C 0.13256 0.25168 0.60892 0.0
C892 C 0.10962 0.28096 0.60354 0.0
C893 C 0.1214 0.3162 0.6232 0.0
C894 C 0.19381 0.22913 0.63877 0.0
C895 C 0.07145 0.27444 0.57889 0.0
C896 C 0.11151 0.16706 0.53474 0.0
C897 C 0.08624 0.14043 0.55794 0.0
C898 C 0.12747 0.20288 0.55118 0.0
C899 C 0.11792 0.21276 0.59185 0.0
C900 C 0.09289 0.18589 0.61566 0.0
C901 C 0.07749 0.15014 0.59853 0.0
C902 C 0.15412 0.23041 0.52471 0.0
C903 C 0.08174 0.1952 0.6591 0.0
H904 H 0.20492 0.29984 0.67213 0.0
H905 H 0.1028 0.33792 0.62103 0.0
H906 H 0.17805 0.20629 0.65827 0.0
H907 H 0.19971 0.21615 0.60872 0.0
H908 H 0.22247 0.24055 0.65405 0.0
H909 H 0.05849 0.30078 0.57527 0.0
H910 H 0.07635 0.26306 0.54774 0.0
H911 H 0.04965 0.25308 0.59457 0.0
H912 H 0.11877 0.16007 0.50342 0.0
H913 H 0.05807 0.12999 0.61684 0.0
H914 H 0.1826 0.24003 0.54111 0.0
H915 H 0.14021 0.25585 0.51895 0.0
H916 H 0.16027 0.21787 0.49445 0.0
H917 H 0.10876 0.20355 0.67836 0.0
H918 H 0.06291 0.17099 0.67402 0.0
H919 H 0.06553 0.21965 0.6586 0.0
C920 C 0.6985 0.29423 0.43811 0.0
C921 C 0.72262 0.29879 0.40333 0.0
C922 C 0.67304 0.32029 0.44722 0.0
C923 C 0.67126 0.35122 0.42042 0.0
C924 C 0.6967 0.35656 0.38604 0.0
C925 C 0.72216 0.33035 0.37807 0.0
C926 C 0.64688 0.31384 0.48452 0.0
C927 C 0.6957 0.3889 0.35652 0.0
C928 C 0.57593 0.39371 0.41731 0.0
C929 C 0.58644 0.4266 0.44125 0.0
C930 C 0.60333 0.36904 0.41005 0.0
C931 C 0.64197 0.3773 0.42751 0.0
C932 C 0.65267 0.41065 0.45149 0.0
C933 C 0.62489 0.43492 0.45786 0.0
C934 C 0.5909 0.33402 0.38384 0.0
C935 C 0.69334 0.42047 0.47087 0.0
H936 H 0.69826 0.26931 0.457 0.0
H937 H 0.74046 0.33336 0.35083 0.0
H938 H 0.6499 0.33995 0.50374 0.0
H939 H 0.61551 0.30705 0.47436 0.0
H940 H 0.65401 0.2903 0.50398 0.0
H941 H 0.71872 0.39014 0.33246 0.0
H942 H 0.66631 0.38575 0.34098 0.0
H943 H 0.70001 0.41623 0.37362 0.0
H944 H 0.54625 0.38714 0.40449 0.0
H945 H 0.6332 0.46028 0.47652 0.0
H946 H 0.593 0.30839 0.40231 0.0
H947 H 0.61113 0.3339 0.35734 0.0
H948 H 0.56018 0.33206 0.37173 0.0
H949 H 0.6989 0.39754 0.49201 0.0
H950 H 0.69706 0.44751 0.48861 0.0
H951 H 0.71617 0.4228 0.44661 0.0
loop_
_geom_bond_atom_site_label_1
_geom_bond_atom_site_label_2
_geom_bond_distance
_geom_bond_site_symmetry_2
_ccdc_geom_bond_type
C0 N1 1.317 . S
C0 N2 1.348 . S
C0 C3 1.485 . S
N1 C0 1.317 . S
N1 N5 1.370 . S
N2 C0 1.348 . S
N2 C4 1.346 . S
C3 C0 1.485 . S
C3 H7 0.960 . S
C3 H8 0.961 . S
C3 H9 0.960 . S
C4 N2 1.346 . S
C4 N5 1.307 . S
C4 C6 1.486 . S
N5 N1 1.370 . S
N5 C4 1.307 . S
C6 C4 1.486 . S
C6 H10 0.960 . S
C6 H11 0.960 . S
C6 H12 0.959 . S
H7 C3 0.960 . S
H8 C3 0.961 . S
H9 C3 0.960 . S
H10 C6 0.960 . S
H11 C6 0.960 . S
H12 C6 0.959 . S
C13 N14 1.317 . S
C13 N15 1.348 . S
C13 C16 1.485 . S
N14 C13 1.317 . S
N14 N18 1.370 . S
N15 C13 1.348 . S
N15 C17 1.346 . S
C16 C13 1.485 . S
C16 H20 0.960 . S
C16 H21 0.961 . S
C16 H22 0.960 . S
C17 N15 1.346 . S
C17 N18 1.307 . S
C17 C19 1.486 . S
N18 N14 1.370 . S
N18 C17 1.307 . S
C19 C17 1.486 . S
C19 H23 0.960 . S
C19 H24 0.960 . S
C19 H25 0.959 . S
H20 C16 0.960 . S
H21 C16 0.961 . S
H22 C16 0.960 . S
H23 C19 0.960 . S
H24 C19 0.960 . S
H25 C19 0.959 . S
C26 N27 1.317 . S
C26 N28 1.348 . S
C26 C29 1.485 . S
N27 C26 1.317 . S
N27 N31 1.370 . S
N28 C26 1.348 . S
N28 C30 1.346 . S
C29 C26 1.485 . S
C29 H33 0.960 . S
C29 H34 0.961 . S
C29 H35 0.960 . S
C30 N28 1.346 . S
C30 N31 1.307 . S
C30 C32 1.486 . S
N31 N27 1.370 . S
N31 C30 1.307 . S
C32 C30 1.486 . S
C32 H36 0.960 . S
C32 H37 0.960 . S
C32 H38 0.959 . S
H33 C29 0.960 . S
H34 C29 0.961 . S
H35 C29 0.960 . S
H36 C32 0.960 . S
H37 C32 0.960 . S
H38 C32 0.959 . S
C39 N40 1.317 . S
C39 N41 1.348 . S
C39 C42 1.485 . S
N40 C39 1.317 . S
N40 N44 1.370 . S
N41 C39 1.348 . S
N41 C43 1.346 . S
C42 C39 1.485 . S
C42 H46 0.960 . S
C42 H47 0.961 . S
C42 H48 0.960 . S
C43 N41 1.346 . S
C43 N44 1.307 . S
C43 C45 1.486 . S
N44 N40 1.370 . S
N44 C43 1.307 . S
C45 C43 1.486 . S
C45 H49 0.960 . S
C45 H50 0.960 . S
C45 H51 0.959 . S
H46 C42 0.960 . S
H47 C42 0.961 . S
H48 C42 0.960 . S
H49 C45 0.960 . S
H50 C45 0.960 . S
H51 C45 0.959 . S
C52 N53 1.317 . S
C52 N54 1.348 . S
C52 C55 1.485 . S
N53 C52 1.317 . S
N53 N57 1.370 . S
N54 C52 1.348 . S
N54 C56 1.346 . S
C55 C52 1.485 . S
C55 H59 0.960 . S
C55 H60 0.961 . S
C55 H61 0.960 . S
C56 N54 1.346 . S
C56 N57 1.307 . S
C56 C58 1.486 . S
N57 N53 1.370 . S
N57 C56 1.307 . S
C58 C56 1.486 . S
C58 H62 0.960 . S
C58 H63 0.960 . S
C58 H64 0.959 . S
H59 C55 0.960 . S
H60 C55 0.961 . S
H61 C55 0.960 . S
H62 C58 0.960 . S
H63 C58 0.960 . S
H64 C58 0.959 . S
C65 N66 1.317 . S
C65 N67 1.348 . S
C65 C68 1.485 . S
N66 C65 1.317 . S
N66 N70 1.370 . S
N67 C65 1.348 . S
N67 C69 1.346 . S
C68 C65 1.485 . S
C68 H72 0.960 . S
C68 H73 0.961 . S
C68 H74 0.960 . S
C69 N67 1.346 . S
C69 N70 1.307 . S
C69 C71 1.486 . S
N70 N66 1.370 . S
N70 C69 1.307 . S
C71 C69 1.486 . S
C71 H75 0.960 . S
C71 H76 0.960 . S
C71 H77 0.959 . S
H72 C68 0.960 . S
H73 C68 0.961 . S
H74 C68 0.960 . S
H75 C71 0.960 . S
H76 C71 0.960 . S
H77 C71 0.959 . S
C78 N79 1.317 . S
C78 N80 1.348 . S
C78 C81 1.485 . S
N79 C78 1.317 . S
N79 N83 1.370 . S
N80 C78 1.348 . S
N80 C82 1.346 . S
C81 C78 1.485 . S
C81 H85 0.960 . S
C81 H86 0.961 . S
C81 H87 0.960 . S
C82 N80 1.346 . S
C82 N83 1.307 . S
C82 C84 1.486 . S
N83 N79 1.370 . S
N83 C82 1.307 . S
C84 C82 1.486 . S
C84 H88 0.960 . S
C84 H89 0.960 . S
C84 H90 0.959 . S
H85 C81 0.960 . S
H86 C81 0.961 . S
H87 C81 0.960 . S
H88 C84 0.960 . S
H89 C84 0.960 . S
H90 C84 0.959 . S
C91 N92 1.317 . S
C91 N93 1.348 . S
C91 C94 1.485 . S
N92 C91 1.317 . S
N92 N96 1.370 . S
N93 C91 1.348 . S
N93 C95 1.346 . S
C94 C91 1.485 . S
C94 H98 0.960 . S
C94 H99 0.961 . S
C94 H100 0.960 . S
C95 N93 1.346 . S
C95 N96 1.307 . S
C95 C97 1.486 . S
N96 N92 1.370 . S
N96 C95 1.307 . S
C97 C95 1.486 . S
C97 H101 0.960 . S
C97 H102 0.960 . S
C97 H103 0.959 . S
H98 C94 0.960 . S
H99 C94 0.961 . S
H100 C94 0.960 . S
H101 C97 0.960 . S
H102 C97 0.960 . S
H103 C97 0.959 . S
Dy104 O108 2.398 . S
Dy104 O109 2.491 . S
Dy104 O110 2.402 . S
Dy104 O111 2.664 1_545 S
Dy104 O115 2.326 . S
Dy104 O119 2.310 . S
Dy104 O120 2.351 1_545 S
C105 O116 1.185 . S
C105 O117 1.355 1_655 S
C106 O108 1.185 . S
C106 O109 1.355 . S
Dy107 O111 2.310 1_545 S
Dy107 O114 2.351 . S
Dy107 O116 2.398 1_445 S
Dy107 O117 2.491 1_545 S
Dy107 O118 2.403 1_455 S
Dy107 O119 2.664 . S
Dy107 O121 2.326 1_445 S
O108 Dy104 2.398 . S
O108 C106 1.185 . S
O109 Dy104 2.491 . S
O109 C106 1.355 . S
O110 Dy104 2.402 . S
O110 C112 1.255 1_545 S
O111 Dy104 2.664 1_565 S
O111 Dy107 2.310 1_565 S
O111 C112 1.268 . S
C112 O110 1.255 1_565 S
C112 O111 1.268 . S
C113 O118 1.254 . S
C113 O119 1.268 1_655 S
O114 Dy107 2.351 . S
O114 C122 1.249 . S
O115 Dy104 2.326 . S
O115 C122 1.267 . S
O116 C105 1.185 . S
O116 Dy107 2.398 1_665 S
O117 C105 1.355 1_455 S
O117 Dy107 2.491 1_565 S
O118 Dy107 2.403 1_655 S
O118 C113 1.254 . S
O119 Dy104 2.310 . S
O119 Dy107 2.664 . S
O119 C113 1.268 1_455 S
O120 Dy104 2.351 1_565 S
O120 C123 1.240 1_455 S
O121 Dy107 2.326 1_665 S
O121 C123 1.275 . S
C122 O114 1.249 . S
C122 O115 1.267 . S
C123 O120 1.240 1_655 S
C123 O121 1.275 . S
Dy124 O128 2.398 . S
Dy124 O129 2.491 . S
Dy124 O130 2.403 1_545 S
Dy124 O131 2.664 1_545 S
Dy124 O135 2.326 . S
Dy124 O139 2.310 . S
Dy124 O140 2.351 1_545 S
C125 O136 1.185 1_565 S
C125 O137 1.355 . S
C126 O128 1.185 . S
C126 O129 1.355 . S
Dy127 O131 2.310 1_546 S
Dy127 O134 2.351 1_556 S
Dy127 O136 2.398 . S
Dy127 O137 2.491 1_545 S
Dy127 O138 2.403 . S
Dy127 O139 2.664 1_556 S
Dy127 O141 2.326 . S
O128 Dy124 2.398 . S
O128 C126 1.185 . S
O129 Dy124 2.491 . S
O129 C126 1.355 . S
O130 Dy124 2.403 1_565 S
O130 C132 1.254 . S
O131 Dy124 2.664 1_565 S
O131 Dy127 2.310 1_564 S
O131 C132 1.268 . S
C132 O130 1.254 . S
C132 O131 1.268 . S
C133 O138 1.254 . S
C133 O139 1.268 1_556 S
O134 Dy127 2.351 1_554 S
O134 C142 1.249 . S
O135 Dy124 2.326 . S
O135 C142 1.267 . S
O136 C125 1.185 1_545 S
O136 Dy127 2.398 . S
O137 C125 1.355 . S
O137 Dy127 2.491 1_565 S
O138 Dy127 2.403 . S
O138 C133 1.254 . S
O139 Dy124 2.310 . S
O139 Dy127 2.664 1_554 S
O139 C133 1.268 1_554 S
O140 Dy124 2.351 1_565 S
O140 C143 1.249 1_554 S
O141 Dy127 2.326 . S
O141 C143 1.267 1_545 S
C142 O134 1.249 . S
C142 O135 1.267 . S
C143 O140 1.249 1_556 S
C143 O141 1.267 1_565 S
Dy144 O148 2.398 . S
Dy144 O149 2.491 . S
Dy144 O150 2.403 . S
Dy144 O151 2.664 . S
Dy144 O155 2.326 . S
Dy144 O159 2.310 . S
Dy144 O160 2.351 . S
C145 O156 1.185 . S
C145 O157 1.355 . S
C146 O148 1.185 . S
C146 O149 1.355 . S
Dy147 O151 2.310 . S
Dy147 O154 2.351 . S
Dy147 O156 2.398 . S
Dy147 O157 2.491 . S
Dy147 O158 2.403 . S
Dy147 O159 2.664 . S
Dy147 O161 2.326 . S
O148 Dy144 2.398 . S
O148 C146 1.185 . S
O149 Dy144 2.491 . S
O149 C146 1.355 . S
O150 Dy144 2.403 . S
O150 C152 1.254 . S
O151 Dy144 2.664 . S
O151 Dy147 2.310 . S
O151 C152 1.268 . S
C152 O150 1.254 . S
C152 O151 1.268 . S
C153 O158 1.254 . S
C153 O159 1.268 . S
O154 Dy147 2.351 . S
O154 C162 1.249 . S
O155 Dy144 2.326 . S
O155 C162 1.267 . S
O156 C145 1.185 . S
O156 Dy147 2.398 . S
O157 C145 1.355 . S
O157 Dy147 2.491 . S
O158 Dy147 2.403 . S
O158 C153 1.254 . S
O159 Dy144 2.310 . S
O159 Dy147 2.664 . S
O159 C153 1.268 . S
O160 Dy144 2.351 . S
O160 C163 1.249 . S
O161 Dy147 2.326 . S
O161 C163 1.267 . S
C162 O154 1.249 . S
C162 O155 1.267 . S
C163 O160 1.249 . S
C163 O161 1.267 . S
Dy164 O168 2.398 . S
Dy164 O169 2.491 . S
Dy164 O170 2.403 1_455 S
Dy164 O171 2.664 1_455 S
Dy164 O175 2.326 . S
Dy164 O179 2.310 1_554 S
Dy164 O180 2.351 1_454 S
C165 O176 1.185 . S
C165 O177 1.355 . S
C166 O168 1.185 . S
C166 O169 1.355 . S
Dy167 O171 2.310 1_556 S
Dy167 O174 2.351 1_656 S
Dy167 O176 2.398 . S
Dy167 O177 2.491 . S
Dy167 O178 2.403 1_655 S
Dy167 O179 2.664 1_655 S
Dy167 O181 2.326 . S
O168 Dy164 2.398 . S
O168 C166 1.185 . S
O169 Dy164 2.491 . S
O169 C166 1.355 . S
O170 Dy164 2.403 1_655 S
O170 C172 1.254 . S
O171 Dy164 2.664 1_655 S
O171 Dy167 2.310 1_554 S
O171 C172 1.268 . S
C172 O170 1.254 . S
C172 O171 1.268 . S
C173 O178 1.254 . S
C173 O179 1.268 . S
O174 Dy167 2.351 1_454 S
O174 C182 1.249 . S
O175 Dy164 2.326 . S
O175 C182 1.267 . S
O176 C165 1.185 . S
O176 Dy167 2.398 . S
O177 C165 1.355 . S
O177 Dy167 2.491 . S
O178 Dy167 2.403 1_455 S
O178 C173 1.254 . S
O179 Dy164 2.310 1_556 S
O179 Dy167 2.664 1_455 S
O179 C173 1.268 . S
O180 Dy164 2.351 1_656 S
O180 C183 1.249 . S
O181 Dy167 2.326 . S
O181 C183 1.267 . S
C182 O174 1.249 . S
C182 O175 1.267 . S
C183 O180 1.249 . S
C183 O181 1.267 . S
C184 C185 1.391 . S
C184 C186 1.394 . S
C184 H200 0.931 . S
C185 C184 1.391 . S
C185 C189 1.376 . S
C186 C184 1.394 . S
C186 C187 1.369 . S
C186 C190 1.531 . S
C187 C186 1.369 . S
C187 C188 1.410 . S
C187 C195 1.503 . S
C188 C187 1.410 . S
C188 C189 1.392 . S
C188 C191 1.511 . S
C189 C185 1.376 . S
C189 C188 1.392 . S
C189 H201 0.929 . S
C190 C186 1.531 . S
C190 H202 0.960 . S
C190 H203 0.962 . S
C190 H204 0.960 . S
C191 C188 1.511 . S
C191 H205 0.961 . S
C191 H206 0.961 . S
C191 H207 0.961 . S
C192 C193 1.370 . S
C192 C194 1.363 . S
C192 H208 0.931 . S
C193 C192 1.370 . S
C193 C197 1.408 . S
C194 C192 1.363 . S
C194 C195 1.370 . S
C194 C198 1.524 . S
C195 C187 1.503 . S
C195 C194 1.370 . S
C195 C196 1.403 . S
C196 C195 1.403 . S
C196 C197 1.404 . S
C196 C199 1.539 . S
C197 C193 1.408 . S
C197 C196 1.404 . S
C197 H209 0.930 . S
C198 C194 1.524 . S
C198 H210 0.956 . S
C198 H211 0.961 . S
C198 H212 0.961 . S
C199 C196 1.539 . S
C199 H213 0.958 . S
C199 H214 0.961 . S
C199 H215 0.960 . S
H200 C184 0.931 . S
H201 C189 0.929 . S
H202 C190 0.960 . S
H203 C190 0.962 . S
H204 C190 0.960 . S
H205 C191 0.961 . S
H206 C191 0.961 . S
H207 C191 0.961 . S
H208 C192 0.931 . S
H209 C197 0.930 . S
H210 C198 0.956 . S
H211 C198 0.961 . S
H212 C198 0.961 . S
H213 C199 0.958 . S
H214 C199 0.961 . S
H215 C199 0.960 . S
C216 C217 1.391 . S
C216 C218 1.394 . S
C216 H232 0.931 . S
C217 C216 1.391 . S
C217 C221 1.376 . S
C218 C216 1.394 . S
C218 C219 1.369 . S
C218 C222 1.531 . S
C219 C218 1.369 . S
C219 C220 1.410 . S
C219 C227 1.503 . S
C220 C219 1.410 . S
C220 C221 1.392 . S
C220 C223 1.511 . S
C221 C217 1.376 . S
C221 C220 1.392 . S
C221 H233 0.929 . S
C222 C218 1.531 . S
C222 H234 0.960 . S
C222 H235 0.962 . S
C222 H236 0.960 . S
C223 C220 1.511 . S
C223 H237 0.961 . S
C223 H238 0.961 . S
C223 H239 0.961 . S
C224 C225 1.370 . S
C224 C226 1.363 . S
C224 H240 0.931 . S
C225 C224 1.370 . S
C225 C229 1.408 . S
C226 C224 1.363 . S
C226 C227 1.370 . S
C226 C230 1.524 . S
C227 C219 1.503 . S
C227 C226 1.370 . S
C227 C228 1.403 . S
C228 C227 1.403 . S
C228 C229 1.404 . S
C228 C231 1.539 1_565 S
C229 C225 1.408 . S
C229 C228 1.404 . S
C229 H241 0.930 1_565 S
C230 C226 1.524 . S
C230 H242 0.956 . S
C230 H243 0.961 . S
C230 H244 0.961 . S
C231 C228 1.539 1_545 S
C231 H245 0.958 . S
C231 H246 0.961 . S
C231 H247 0.960 1_545 S
H232 C216 0.931 . S
H233 C221 0.929 . S
H234 C222 0.960 . S
H235 C222 0.962 . S
H236 C222 0.960 . S
H237 C223 0.961 . S
H238 C223 0.961 . S
H239 C223 0.961 . S
H240 C224 0.931 . S
H241 C229 0.930 1_545 S
H242 C230 0.956 . S
H243 C230 0.961 . S
H244 C230 0.961 . S
H245 C231 0.958 . S
H246 C231 0.961 . S
H247 C231 0.960 1_565 S
C248 C249 1.391 . S
C248 C250 1.394 . S
C248 H264 0.931 . S
C249 C248 1.391 . S
C249 C253 1.376 . S
C250 C248 1.394 . S
C250 C251 1.369 . S
C250 C254 1.531 . S
C251 C250 1.369 . S
C251 C252 1.410 . S
C251 C259 1.503 . S
C252 C251 1.410 . S
C252 C253 1.392 . S
C252 C255 1.511 . S
C253 C249 1.376 . S
C253 C252 1.392 . S
C253 H265 0.929 . S
C254 C250 1.531 . S
C254 H266 0.960 . S
C254 H267 0.962 . S
C254 H268 0.960 . S
C255 C252 1.511 . S
C255 H269 0.961 . S
C255 H270 0.961 . S
C255 H271 0.961 . S
C256 C257 1.370 . S
C256 C258 1.363 . S
C256 H272 0.931 . S
C257 C256 1.370 . S
C257 C261 1.408 . S
C258 C256 1.363 . S
C258 C259 1.370 . S
C258 C262 1.524 . S
C259 C251 1.503 . S
C259 C258 1.370 . S
C259 C260 1.403 . S
C260 C259 1.403 . S
C260 C261 1.404 . S
C260 C263 1.539 . S
C261 C257 1.408 . S
C261 C260 1.404 . S
C261 H273 0.930 . S
C262 C258 1.524 . S
C262 H274 0.956 . S
C262 H275 0.961 . S
C262 H276 0.961 . S
C263 C260 1.539 . S
C263 H277 0.958 . S
C263 H278 0.961 . S
C263 H279 0.960 . S
H264 C248 0.931 . S
H265 C253 0.929 . S
H266 C254 0.960 . S
H267 C254 0.962 . S
H268 C254 0.960 . S
H269 C255 0.961 . S
H270 C255 0.961 . S
H271 C255 0.961 . S
H272 C256 0.931 . S
H273 C261 0.930 . S
H274 C262 0.956 . S
H275 C262 0.961 . S
H276 C262 0.961 . S
H277 C263 0.958 . S
H278 C263 0.961 . S
H279 C263 0.960 . S
C280 C281 1.391 . S
C280 C282 1.394 . S
C280 H296 0.931 . S
C281 C280 1.391 . S
C281 C285 1.376 . S
C282 C280 1.394 . S
C282 C283 1.369 . S
C282 C286 1.531 . S
C283 C282 1.369 . S
C283 C284 1.410 . S
C283 C291 1.503 . S
C284 C283 1.410 . S
C284 C285 1.392 . S
C284 C287 1.511 . S
C285 C281 1.376 . S
C285 C284 1.392 . S
C285 H297 0.929 . S
C286 C282 1.531 . S
C286 H298 0.960 . S
C286 H299 0.962 . S
C286 H300 0.960 . S
C287 C284 1.511 . S
C287 H301 0.961 . S
C287 H302 0.961 . S
C287 H303 0.961 . S
C288 C289 1.370 . S
C288 C290 1.363 . S
C288 H304 0.931 . S
C289 C288 1.370 . S
C289 C293 1.408 . S
C290 C288 1.363 . S
C290 C291 1.370 . S
C290 C294 1.524 . S
C291 C283 1.503 . S
C291 C290 1.370 . S
C291 C292 1.403 . S
C292 C291 1.403 . S
C292 C293 1.404 . S
C292 C295 1.539 . S
C293 C289 1.408 . S
C293 C292 1.404 . S
C293 H305 0.930 . S
C294 C290 1.524 . S
C294 H306 0.956 . S
C294 H307 0.961 . S
C294 H308 0.961 . S
C295 C292 1.539 . S
C295 H309 0.958 . S
C295 H310 0.961 . S
C295 H311 0.960 . S
H296 C280 0.931 . S
H297 C285 0.929 . S
H298 C286 0.960 . S
H299 C286 0.962 . S
H300 C286 0.960 . S
H301 C287 0.961 . S
H302 C287 0.961 . S
H303 C287 0.961 . S
H304 C288 0.931 . S
H305 C293 0.930 . S
H306 C294 0.956 . S
H307 C294 0.961 . S
H308 C294 0.961 . S
H309 C295 0.958 . S
H310 C295 0.961 . S
H311 C295 0.960 . S
C312 C313 1.391 . S
C312 C314 1.394 . S
C312 H328 0.931 . S
C313 C312 1.391 . S
C313 C317 1.376 . S
C314 C312 1.394 . S
C314 C315 1.369 . S
C314 C318 1.531 . S
C315 C314 1.369 . S
C315 C316 1.410 . S
C315 C323 1.503 . S
C316 C315 1.410 . S
C316 C317 1.392 . S
C316 C319 1.511 . S
C317 C313 1.376 . S
C317 C316 1.392 . S
C317 H329 0.929 . S
C318 C314 1.531 . S
C318 H330 0.960 . S
C318 H331 0.962 . S
C318 H332 0.960 . S
C319 C316 1.511 . S
C319 H333 0.961 . S
C319 H334 0.961 . S
C319 H335 0.961 . S
C320 C321 1.370 . S
C320 C322 1.363 . S
C320 H336 0.931 . S
C321 C320 1.370 . S
C321 C325 1.408 . S
C322 C320 1.363 . S
C322 C323 1.370 . S
C322 C326 1.524 . S
C323 C315 1.503 . S
C323 C322 1.370 . S
C323 C324 1.403 . S
C324 C323 1.403 . S
C324 C325 1.404 . S
C324 C327 1.539 . S
C325 C321 1.408 . S
C325 C324 1.404 . S
C325 H337 0.930 . S
C326 C322 1.524 . S
C326 H338 0.956 . S
C326 H339 0.961 . S
C326 H340 0.961 . S
C327 C324 1.539 . S
C327 H341 0.958 . S
C327 H342 0.961 . S
C327 H343 0.960 . S
H328 C312 0.931 . S
H329 C317 0.929 . S
H330 C318 0.960 . S
H331 C318 0.962 . S
H332 C318 0.960 . S
H333 C319 0.961 . S
H334 C319 0.961 . S
H335 C319 0.961 . S
H336 C320 0.931 . S
H337 C325 0.930 . S
H338 C326 0.956 . S
H339 C326 0.961 . S
H340 C326 0.961 . S
H341 C327 0.958 . S
H342 C327 0.961 . S
H343 C327 0.960 . S
C344 C345 1.391 . S
C344 C346 1.394 . S
C344 H360 0.931 . S
C345 C344 1.391 . S
C345 C349 1.376 . S
C346 C344 1.394 . S
C346 C347 1.369 . S
C346 C350 1.531 . S
C347 C346 1.369 . S
C347 C348 1.410 . S
C347 C355 1.503 . S
C348 C347 1.410 . S
C348 C349 1.392 . S
C348 C351 1.511 . S
C349 C345 1.376 . S
C349 C348 1.392 . S
C349 H361 0.929 . S
C350 C346 1.531 . S
C350 H362 0.960 1_565 S
C350 H363 0.965 . S
C350 H364 0.960 1_565 S
C351 C348 1.511 . S
C351 H365 0.961 . S
C351 H366 0.961 . S
C351 H367 0.961 . S
C352 C353 1.370 . S
C352 C354 1.363 . S
C352 H368 0.931 . S
C353 C352 1.370 . S
C353 C357 1.408 . S
C354 C352 1.363 . S
C354 C355 1.370 . S
C354 C358 1.524 . S
C355 C347 1.503 . S
C355 C354 1.370 . S
C355 C356 1.403 . S
C356 C355 1.403 . S
C356 C357 1.404 . S
C356 C359 1.539 . S
C357 C353 1.408 . S
C357 C356 1.404 . S
C357 H369 0.930 . S
C358 C354 1.524 . S
C358 H370 0.956 . S
C358 H371 0.961 . S
C358 H372 0.961 . S
C359 C356 1.539 . S
C359 H373 0.958 . S
C359 H374 0.961 . S
C359 H375 0.960 . S
H360 C344 0.931 . S
H361 C349 0.929 . S
H362 C350 0.960 1_545 S
H363 C350 0.965 . S
H364 C350 0.960 1_545 S
H365 C351 0.961 . S
H366 C351 0.961 . S
H367 C351 0.961 . S
H368 C352 0.931 . S
H369 C357 0.930 . S
H370 C358 0.956 . S
H371 C358 0.961 . S
H372 C358 0.961 . S
H373 C359 0.958 . S
H374 C359 0.961 . S
H375 C359 0.960 . S
C376 C377 1.391 . S
C376 C378 1.394 . S
C376 H392 0.931 . S
C377 C376 1.391 . S
C377 C381 1.376 . S
C378 C376 1.394 . S
C378 C379 1.369 . S
C378 C382 1.531 . S
C379 C378 1.369 . S
C379 C380 1.410 . S
C379 C387 1.503 . S
C380 C379 1.410 . S
C380 C381 1.392 . S
C380 C383 1.511 . S
C381 C377 1.376 . S
C381 C380 1.392 . S
C381 H393 0.929 . S
C382 C378 1.531 . S
C382 H394 0.960 . S
C382 H395 0.962 . S
C382 H396 0.960 . S
C383 C380 1.511 . S
C383 H397 0.961 . S
C383 H398 0.961 . S
C383 H399 0.961 . S
C384 C385 1.370 . S
C384 C386 1.363 . S
C384 H400 0.931 . S
C385 C384 1.370 . S
C385 C389 1.408 . S
C386 C384 1.363 . S
C386 C387 1.370 . S
C386 C390 1.524 . S
C387 C379 1.503 . S
C387 C386 1.370 . S
C387 C388 1.403 . S
C388 C387 1.403 . S
C388 C389 1.404 . S
C388 C391 1.539 . S
C389 C385 1.408 . S
C389 C388 1.404 . S
C389 H401 0.930 . S
C390 C386 1.524 . S
C390 H402 0.956 . S
C390 H403 0.961 . S
C390 H404 0.961 . S
C391 C388 1.539 . S
C391 H405 0.958 . S
C391 H406 0.961 . S
C391 H407 0.960 . S
H392 C376 0.931 . S
H393 C381 0.929 . S
H394 C382 0.960 . S
H395 C382 0.962 . S
H396 C382 0.960 . S
H397 C383 0.961 . S
H398 C383 0.961 . S
H399 C383 0.961 . S
H400 C384 0.931 . S
H401 C389 0.930 . S
H402 C390 0.956 . S
H403 C390 0.961 . S
H404 C390 0.961 . S
H405 C391 0.958 . S
H406 C391 0.961 . S
H407 C391 0.960 . S
C408 C409 1.391 . S
C408 C410 1.394 . S
C408 H424 0.931 . S
C409 C408 1.391 . S
C409 C413 1.376 . S
C410 C408 1.394 . S
C410 C411 1.369 . S
C410 C414 1.531 . S
C411 C410 1.369 . S
C411 C412 1.410 . S
C411 C419 1.503 . S
C412 C411 1.410 . S
C412 C413 1.392 . S
C412 C415 1.511 . S
C413 C409 1.376 . S
C413 C412 1.392 . S
C413 H425 0.929 . S
C414 C410 1.531 . S
C414 H426 0.960 . S
C414 H427 0.962 . S
C414 H428 0.960 . S
C415 C412 1.511 . S
C415 H429 0.961 . S
C415 H430 0.961 . S
C415 H431 0.961 . S
C416 C417 1.370 . S
C416 C418 1.363 . S
C416 H432 0.931 . S
C417 C416 1.370 . S
C417 C421 1.408 . S
C418 C416 1.363 . S
C418 C419 1.370 . S
C418 C422 1.524 . S
C419 C411 1.503 . S
C419 C418 1.370 . S
C419 C420 1.403 . S
C420 C419 1.403 . S
C420 C421 1.404 . S
C420 C423 1.539 . S
C421 C417 1.408 . S
C421 C420 1.404 . S
C421 H433 0.930 . S
C422 C418 1.524 . S
C422 H434 0.956 . S
C422 H435 0.961 . S
C422 H436 0.961 . S
C423 C420 1.539 . S
C423 H437 0.958 . S
C423 H438 0.961 . S
C423 H439 0.960 . S
H424 C408 0.931 . S
H425 C413 0.929 . S
H426 C414 0.960 . S
H427 C414 0.962 . S
H428 C414 0.960 . S
H429 C415 0.961 . S
H430 C415 0.961 . S
H431 C415 0.961 . S
H432 C416 0.931 . S
H433 C421 0.930 . S
H434 C422 0.956 . S
H435 C422 0.961 . S
H436 C422 0.961 . S
H437 C423 0.958 . S
H438 C423 0.961 . S
H439 C423 0.960 . S
C440 C441 1.391 . S
C440 C442 1.394 . S
C440 H456 0.931 . S
C441 C440 1.391 . S
C441 C445 1.376 . S
C442 C440 1.394 . S
C442 C443 1.369 . S
C442 C446 1.531 . S
C443 C442 1.369 . S
C443 C444 1.410 . S
C443 C451 1.503 . S
C444 C443 1.410 . S
C444 C445 1.392 . S
C444 C447 1.511 . S
C445 C441 1.376 . S
C445 C444 1.392 . S
C445 H457 0.929 . S
C446 C442 1.531 . S
C446 H458 0.960 . S
C446 H459 0.962 . S
C446 H460 0.960 . S
C447 C444 1.511 . S
C447 H461 0.961 . S
C447 H462 0.961 . S
C447 H463 0.961 . S
C448 C449 1.370 . S
C448 C450 1.363 . S
C448 H464 0.931 . S
C449 C448 1.370 . S
C449 C453 1.408 . S
C450 C448 1.363 . S
C450 C451 1.370 . S
C450 C454 1.524 . S
C451 C443 1.503 . S
C451 C450 1.370 . S
C451 C452 1.403 . S
C452 C451 1.403 . S
C452 C453 1.404 . S
C452 C455 1.539 . S
C453 C449 1.408 . S
C453 C452 1.404 . S
C453 H465 0.930 . S
C454 C450 1.524 . S
C454 H466 0.956 . S
C454 H467 0.961 . S
C454 H468 0.961 . S
C455 C452 1.539 . S
C455 H469 0.958 . S
C455 H470 0.961 . S
C455 H471 0.960 . S
H456 C440 0.931 . S
H457 C445 0.929 . S
H458 C446 0.960 . S
H459 C446 0.962 . S
H460 C446 0.960 . S
H461 C447 0.961 . S
H462 C447 0.961 . S
H463 C447 0.961 . S
H464 C448 0.931 . S
H465 C453 0.930 . S
H466 C454 0.956 . S
H467 C454 0.961 . S
H468 C454 0.961 . S
H469 C455 0.958 . S
H470 C455 0.961 . S
H471 C455 0.960 . S
C472 C473 1.391 . S
C472 C474 1.394 . S
C472 H488 0.931 . S
C473 C472 1.391 . S
C473 C477 1.376 . S
C474 C472 1.394 . S
C474 C475 1.369 . S
C474 C478 1.531 . S
C475 C474 1.369 . S
C475 C476 1.410 . S
C475 C483 1.503 . S
C476 C475 1.410 . S
C476 C477 1.392 . S
C476 C479 1.511 . S
C477 C473 1.376 . S
C477 C476 1.392 . S
C477 H489 0.929 . S
C478 C474 1.531 . S
C478 H490 0.960 . S
C478 H491 0.962 . S
C478 H492 0.960 . S
C479 C476 1.511 . S
C479 H493 0.961 . S
C479 H494 0.961 . S
C479 H495 0.961 . S
C480 C481 1.370 . S
C480 C482 1.363 . S
C480 H496 0.931 1_556 S
C481 C480 1.370 . S
C481 C485 1.408 . S
C482 C480 1.363 . S
C482 C483 1.370 . S
C482 C486 1.524 . S
C483 C475 1.503 . S
C483 C482 1.370 . S
C483 C484 1.403 . S
C484 C483 1.403 . S
C484 C485 1.404 . S
C484 C487 1.539 . S
C485 C481 1.408 . S
C485 C484 1.404 . S
C485 H497 0.930 . S
C486 C482 1.524 . S
C486 H498 0.956 . S
C486 H499 0.961 . S
C486 H500 0.961 1_556 S
C487 C484 1.539 . S
C487 H501 0.958 . S
C487 H502 0.961 . S
C487 H503 0.960 . S
H488 C472 0.931 . S
H489 C477 0.929 . S
H490 C478 0.960 . S
H491 C478 0.962 . S
H492 C478 0.960 . S
H493 C479 0.961 . S
H494 C479 0.961 . S
H495 C479 0.961 . S
H496 C480 0.931 1_554 S
H497 C485 0.930 . S
H498 C486 0.956 . S
H499 C486 0.961 . S
H500 C486 0.961 1_554 S
H501 C487 0.958 . S
H502 C487 0.961 . S
H503 C487 0.960 . S
C504 C505 1.391 . S
C504 C506 1.394 . S
C504 H520 0.931 . S
C505 C504 1.391 . S
C505 C509 1.376 . S
C506 C504 1.394 . S
C506 C507 1.369 . S
C506 C510 1.531 . S
C507 C506 1.369 . S
C507 C508 1.410 . S
C507 C515 1.503 . S
C508 C507 1.410 . S
C508 C509 1.392 . S
C508 C511 1.511 . S
C509 C505 1.376 . S
C509 C508 1.392 . S
C509 H521 0.929 . S
C510 C506 1.531 . S
C510 H522 0.960 . S
C510 H523 0.962 1_655 S
C510 H524 0.960 . S
C511 C508 1.511 . S
C511 H525 0.961 . S
C511 H526 0.961 . S
C511 H527 0.961 . S
C512 C513 1.370 . S
C512 C514 1.363 . S
C512 H528 0.931 . S
C513 C512 1.370 . S
C513 C517 1.408 . S
C514 C512 1.363 . S
C514 C515 1.370 . S
C514 C518 1.524 . S
C515 C507 1.503 . S
C515 C514 1.370 . S
C515 C516 1.403 . S
C516 C515 1.403 . S
C516 C517 1.404 . S
C516 C519 1.539 . S
C517 C513 1.408 . S
C517 C516 1.404 . S
C517 H529 0.930 . S
C518 C514 1.524 . S
C518 H530 0.956 . S
C518 H531 0.961 . S
C518 H532 0.961 . S
C519 C516 1.539 . S
C519 H533 0.958 . S
C519 H534 0.961 . S
C519 H535 0.960 . S
H520 C504 0.931 . S
H521 C509 0.929 . S
H522 C510 0.960 . S
H523 C510 0.962 1_455 S
H524 C510 0.960 . S
H525 C511 0.961 . S
H526 C511 0.961 . S
H527 C511 0.961 . S
H528 C512 0.931 . S
H529 C517 0.930 . S
H530 C518 0.956 . S
H531 C518 0.961 . S
H532 C518 0.961 . S
H533 C519 0.958 . S
H534 C519 0.961 . S
H535 C519 0.960 . S
C536 C537 1.391 . S
C536 C538 1.394 . S
C536 H552 0.931 . S
C537 C536 1.391 . S
C537 C541 1.376 . S
C538 C536 1.394 . S
C538 C539 1.369 . S
C538 C542 1.531 . S
C539 C538 1.369 . S
C539 C540 1.410 . S
C539 C547 1.503 . S
C540 C539 1.410 . S
C540 C541 1.392 . S
C540 C543 1.511 . S
C541 C537 1.376 . S
C541 C540 1.392 . S
C541 H553 0.929 . S
C542 C538 1.531 . S
C542 H554 0.960 . S
C542 H555 0.962 . S
C542 H556 0.960 . S
C543 C540 1.511 . S
C543 H557 0.961 . S
C543 H558 0.961 . S
C543 H559 0.961 . S
C544 C545 1.370 . S
C544 C546 1.363 . S
C544 H560 0.931 . S
C545 C544 1.370 . S
C545 C549 1.408 . S
C546 C544 1.363 . S
C546 C547 1.370 . S
C546 C550 1.524 . S
C547 C539 1.503 . S
C547 C546 1.370 . S
C547 C548 1.403 . S
C548 C547 1.403 . S
C548 C549 1.404 . S
C548 C551 1.539 . S
C549 C545 1.408 . S
C549 C548 1.404 . S
C549 H561 0.930 . S
C550 C546 1.524 . S
C550 H562 0.956 . S
C550 H563 0.961 . S
C550 H564 0.961 . S
C551 C548 1.539 . S
C551 H565 0.958 . S
C551 H566 0.961 . S
C551 H567 0.960 . S
H552 C536 0.931 . S
H553 C541 0.929 . S
H554 C542 0.960 . S
H555 C542 0.962 . S
H556 C542 0.960 . S
H557 C543 0.961 . S
H558 C543 0.961 . S
H559 C543 0.961 . S
H560 C544 0.931 . S
H561 C549 0.930 . S
H562 C550 0.956 . S
H563 C550 0.961 . S
H564 C550 0.961 . S
H565 C551 0.958 . S
H566 C551 0.961 . S
H567 C551 0.960 . S
C568 C569 1.391 . S
C568 C570 1.394 . S
C568 H584 0.931 . S
C569 C568 1.391 . S
C569 C573 1.376 . S
C570 C568 1.394 . S
C570 C571 1.369 . S
C570 C574 1.531 . S
C571 C570 1.369 . S
C571 C572 1.410 . S
C571 C579 1.503 . S
C572 C571 1.410 . S
C572 C573 1.392 . S
C572 C575 1.511 . S
C573 C569 1.376 . S
C573 C572 1.392 . S
C573 H585 0.929 . S
C574 C570 1.531 . S
C574 H586 0.960 . S
C574 H587 0.962 . S
C574 H588 0.960 . S
C575 C572 1.511 . S
C575 H589 0.961 . S
C575 H590 0.961 . S
C575 H591 0.961 . S
C576 C577 1.370 . S
C576 C578 1.363 . S
C576 H592 0.931 . S
C577 C576 1.370 . S
C577 C581 1.408 . S
C578 C576 1.363 . S
C578 C579 1.370 . S
C578 C582 1.524 . S
C579 C571 1.503 . S
C579 C578 1.370 . S
C579 C580 1.403 . S
C580 C579 1.403 . S
C580 C581 1.404 . S
C580 C583 1.539 . S
C581 C577 1.408 . S
C581 C580 1.404 . S
C581 H593 0.930 . S
C582 C578 1.524 . S
C582 H594 0.956 . S
C582 H595 0.961 . S
C582 H596 0.961 . S
C583 C580 1.539 . S
C583 H597 0.958 . S
C583 H598 0.961 . S
C583 H599 0.960 . S
H584 C568 0.931 . S
H585 C573 0.929 . S
H586 C574 0.960 . S
H587 C574 0.962 . S
H588 C574 0.960 . S
H589 C575 0.961 . S
H590 C575 0.961 . S
H591 C575 0.961 . S
H592 C576 0.931 . S
H593 C581 0.930 . S
H594 C582 0.956 . S
H595 C582 0.961 . S
H596 C582 0.961 . S
H597 C583 0.958 . S
H598 C583 0.961 . S
H599 C583 0.960 . S
C600 C601 1.391 . S
C600 C602 1.394 . S
C600 H616 0.931 . S
C601 C600 1.391 . S
C601 C605 1.376 . S
C602 C600 1.394 . S
C602 C603 1.369 . S
C602 C606 1.531 . S
C603 C602 1.369 . S
C603 C604 1.410 . S
C603 C611 1.503 . S
C604 C603 1.410 . S
C604 C605 1.392 . S
C604 C607 1.511 . S
C605 C601 1.376 . S
C605 C604 1.392 . S
C605 H617 0.929 . S
C606 C602 1.531 . S
C606 H618 0.960 . S
C606 H619 0.962 . S
C606 H620 0.960 . S
C607 C604 1.511 . S
C607 H621 0.961 . S
C607 H622 0.961 . S
C607 H623 0.961 . S
C608 C609 1.370 . S
C608 C610 1.363 . S
C608 H624 0.931 . S
C609 C608 1.370 . S
C609 C613 1.408 . S
C610 C608 1.363 . S
C610 C611 1.370 . S
C610 C614 1.524 . S
C611 C603 1.503 . S
C611 C610 1.370 . S
C611 C612 1.403 . S
C612 C611 1.403 . S
C612 C613 1.404 . S
C612 C615 1.539 . S
C613 C609 1.408 . S
C613 C612 1.404 . S
C613 H625 0.930 . S
C614 C610 1.524 . S
C614 H626 0.956 . S
C614 H627 0.961 . S
C614 H628 0.961 . S
C615 C612 1.539 . S
C615 H629 0.958 . S
C615 H630 0.961 . S
C615 H631 0.960 . S
H616 C600 0.931 . S
H617 C605 0.929 . S
H618 C606 0.960 . S
H619 C606 0.962 . S
H620 C606 0.960 . S
H621 C607 0.961 . S
H622 C607 0.961 . S
H623 C607 0.961 . S
H624 C608 0.931 . S
H625 C613 0.930 . S
H626 C614 0.956 . S
H627 C614 0.961 . S
H628 C614 0.961 . S
H629 C615 0.958 . S
H630 C615 0.961 . S
H631 C615 0.960 . S
C632 C633 1.391 . S
C632 C634 1.394 . S
C632 H648 0.931 . S
C633 C632 1.391 . S
C633 C637 1.376 . S
C634 C632 1.394 . S
C634 C635 1.369 . S
C634 C638 1.531 . S
C635 C634 1.369 . S
C635 C636 1.410 . S
C635 C643 1.503 . S
C636 C635 1.410 . S
C636 C637 1.392 . S
C636 C639 1.511 . S
C637 C633 1.376 . S
C637 C636 1.392 . S
C637 H649 0.929 . S
C638 C634 1.531 . S
C638 H650 0.960 . S
C638 H651 0.962 . S
C638 H652 0.960 . S
C639 C636 1.511 . S
C639 H653 0.961 . S
C639 H654 0.961 . S
C639 H655 0.961 . S
C640 C641 1.370 . S
C640 C642 1.363 . S
C640 H656 0.931 . S
C641 C640 1.370 . S
C641 C645 1.408 . S
C642 C640 1.363 . S
C642 C643 1.370 . S
C642 C646 1.524 . S
C643 C635 1.503 . S
C643 C642 1.370 . S
C643 C644 1.403 . S
C644 C643 1.403 . S
C644 C645 1.404 . S
C644 C647 1.539 . S
C645 C641 1.408 . S
C645 C644 1.404 . S
C645 H657 0.930 . S
C646 C642 1.524 . S
C646 H658 0.956 . S
C646 H659 0.961 . S
C646 H660 0.961 . S
C647 C644 1.539 . S
C647 H661 0.958 . S
C647 H662 0.961 . S
C647 H663 0.960 . S
H648 C632 0.931 . S
H649 C637 0.929 . S
H650 C638 0.960 . S
H651 C638 0.962 . S
H652 C638 0.960 . S
H653 C639 0.961 . S
H654 C639 0.961 . S
H655 C639 0.961 . S
H656 C640 0.931 . S
H657 C645 0.930 . S
H658 C646 0.956 . S
H659 C646 0.961 . S
H660 C646 0.961 . S
H661 C647 0.958 . S
H662 C647 0.961 . S
H663 C647 0.960 . S
C664 C665 1.391 . S
C664 C666 1.394 . S
C664 H680 0.931 . S
C665 C664 1.391 . S
C665 C669 1.376 . S
C666 C664 1.394 . S
C666 C667 1.369 . S
C666 C670 1.531 . S
C667 C666 1.369 . S
C667 C668 1.410 . S
C667 C675 1.503 . S
C668 C667 1.410 . S
C668 C669 1.392 . S
C668 C671 1.511 . S
C669 C665 1.376 . S
C669 C668 1.392 . S
C669 H681 0.929 . S
C670 C666 1.531 . S
C670 H682 0.960 . S
C670 H683 0.962 . S
C670 H684 0.960 . S
C671 C668 1.511 . S
C671 H685 0.961 . S
C671 H686 0.961 . S
C671 H687 0.961 . S
C672 C673 1.370 . S
C672 C674 1.363 . S
C672 H688 0.931 . S
C673 C672 1.370 . S
C673 C677 1.408 . S
C674 C672 1.363 . S
C674 C675 1.370 . S
C674 C678 1.524 . S
C675 C667 1.503 . S
C675 C674 1.370 . S
C675 C676 1.403 . S
C676 C675 1.403 . S
C676 C677 1.404 . S
C676 C679 1.539 . S
C677 C673 1.408 . S
C677 C676 1.404 . S
C677 H689 0.930 . S
C678 C674 1.524 . S
C678 H690 0.956 . S
C678 H691 0.961 . S
C678 H692 0.961 . S
C679 C676 1.539 . S
C679 H693 0.958 . S
C679 H694 0.961 . S
C679 H695 0.960 . S
H680 C664 0.931 . S
H681 C669 0.929 . S
H682 C670 0.960 . S
H683 C670 0.962 . S
H684 C670 0.960 . S
H685 C671 0.961 . S
H686 C671 0.961 . S
H687 C671 0.961 . S
H688 C672 0.931 . S
H689 C677 0.930 . S
H690 C678 0.956 . S
H691 C678 0.961 . S
H692 C678 0.961 . S
H693 C679 0.958 . S
H694 C679 0.961 . S
H695 C679 0.960 . S
C696 C697 1.391 . S
C696 C698 1.394 . S
C696 H712 0.931 . S
C697 C696 1.391 . S
C697 C701 1.376 . S
C698 C696 1.394 . S
C698 C699 1.369 . S
C698 C702 1.531 . S
C699 C698 1.369 . S
C699 C700 1.410 . S
C699 C707 1.503 . S
C700 C699 1.410 . S
C700 C701 1.392 . S
C700 C703 1.511 . S
C701 C697 1.376 . S
C701 C700 1.392 . S
C701 H713 0.929 . S
C702 C698 1.531 . S
C702 H714 0.960 . S
C702 H715 0.962 . S
C702 H716 0.960 . S
C703 C700 1.511 . S
C703 H717 0.961 . S
C703 H718 0.961 . S
C703 H719 0.961 . S
C704 C705 1.370 . S
C704 C706 1.363 . S
C704 H720 0.931 . S
C705 C704 1.370 . S
C705 C709 1.408 . S
C706 C704 1.363 . S
C706 C707 1.370 . S
C706 C710 1.524 . S
C707 C699 1.503 . S
C707 C706 1.370 . S
C707 C708 1.403 . S
C708 C707 1.403 . S
C708 C709 1.404 . S
C708 C711 1.539 . S
C709 C705 1.408 . S
C709 C708 1.404 . S
C709 H721 0.930 1_556 S
C710 C706 1.524 . S
C710 H722 0.956 . S
C710 H723 0.961 . S
C710 H724 0.961 . S
C711 C708 1.539 . S
C711 H725 0.965 . S
C711 H726 0.961 1_556 S
C711 H727 0.960 . S
H712 C696 0.931 . S
H713 C701 0.929 . S
H714 C702 0.960 . S
H715 C702 0.962 . S
H716 C702 0.960 . S
H717 C703 0.961 . S
H718 C703 0.961 . S
H719 C703 0.961 . S
H720 C704 0.931 . S
H721 C709 0.930 1_554 S
H722 C710 0.956 . S
H723 C710 0.961 . S
H724 C710 0.961 . S
H725 C711 0.965 . S
H726 C711 0.961 1_554 S
H727 C711 0.960 . S
C728 C729 1.391 . S
C728 C730 1.394 . S
C728 H744 0.931 . S
C729 C728 1.391 . S
C729 C733 1.376 . S
C730 C728 1.394 . S
C730 C731 1.369 . S
C730 C734 1.531 . S
C731 C730 1.369 . S
C731 C732 1.410 . S
C731 C739 1.503 . S
C732 C731 1.410 . S
C732 C733 1.392 . S
C732 C735 1.511 . S
C733 C729 1.376 . S
C733 C732 1.392 . S
C733 H745 0.929 . S
C734 C730 1.531 . S
C734 H746 0.960 . S
C734 H747 0.962 . S
C734 H748 0.960 . S
C735 C732 1.511 . S
C735 H749 0.961 . S
C735 H750 0.961 . S
C735 H751 0.961 . S
C736 C737 1.370 . S
C736 C738 1.363 . S
C736 H752 0.931 . S
C737 C736 1.370 . S
C737 C741 1.408 . S
C738 C736 1.363 . S
C738 C739 1.370 . S
C738 C742 1.524 . S
C739 C731 1.503 . S
C739 C738 1.370 . S
C739 C740 1.403 . S
C740 C739 1.403 . S
C740 C741 1.404 . S
C740 C743 1.539 . S
C741 C737 1.408 . S
C741 C740 1.404 . S
C741 H753 0.930 . S
C742 C738 1.524 . S
C742 H754 0.956 . S
C742 H755 0.961 . S
C742 H756 0.961 . S
C743 C740 1.539 . S
C743 H757 0.958 . S
C743 H758 0.961 . S
C743 H759 0.960 . S
H744 C728 0.931 . S
H745 C733 0.929 . S
H746 C734 0.960 . S
H747 C734 0.962 . S
H748 C734 0.960 . S
H749 C735 0.961 . S
H750 C735 0.961 . S
H751 C735 0.961 . S
H752 C736 0.931 . S
H753 C741 0.930 . S
H754 C742 0.956 . S
H755 C742 0.961 . S
H756 C742 0.961 . S
H757 C743 0.958 . S
H758 C743 0.961 . S
H759 C743 0.960 . S
C760 C761 1.391 . S
C760 C762 1.394 . S
C760 H776 0.931 . S
C761 C760 1.391 . S
C761 C765 1.376 . S
C762 C760 1.394 . S
C762 C763 1.369 . S
C762 C766 1.531 . S
C763 C762 1.369 . S
C763 C764 1.410 . S
C763 C771 1.503 . S
C764 C763 1.410 . S
C764 C765 1.392 . S
C764 C767 1.511 . S
C765 C761 1.376 . S
C765 C764 1.392 . S
C765 H777 0.929 . S
C766 C762 1.531 . S
C766 H778 0.960 . S
C766 H779 0.962 . S
C766 H780 0.960 . S
C767 C764 1.511 . S
C767 H781 0.961 . S
C767 H782 0.961 . S
C767 H783 0.961 . S
C768 C769 1.370 . S
C768 C770 1.363 . S
C768 H784 0.931 . S
C769 C768 1.370 . S
C769 C773 1.408 . S
C770 C768 1.363 . S
C770 C771 1.370 . S
C770 C774 1.524 . S
C771 C763 1.503 . S
C771 C770 1.370 . S
C771 C772 1.403 . S
C772 C771 1.403 . S
C772 C773 1.404 . S
C772 C775 1.539 . S
C773 C769 1.408 . S
C773 C772 1.404 . S
C773 H785 0.931 1_554 S
C774 C770 1.524 . S
C774 H786 0.956 . S
C774 H787 0.961 . S
C774 H788 0.961 . S
C775 C772 1.539 . S
C775 H789 0.958 . S
C775 H790 0.961 1_554 S
C775 H791 0.960 . S
H776 C760 0.931 . S
H777 C765 0.929 . S
H778 C766 0.960 . S
H779 C766 0.962 . S
H780 C766 0.960 . S
H781 C767 0.961 . S
H782 C767 0.961 . S
H783 C767 0.961 . S
H784 C768 0.931 . S
H785 C773 0.931 1_556 S
H786 C774 0.956 . S
H787 C774 0.961 . S
H788 C774 0.961 . S
H789 C775 0.958 . S
H790 C775 0.961 1_556 S
H791 C775 0.960 . S
C792 C793 1.391 . S
C792 C794 1.394 . S
C792 H808 0.931 . S
C793 C792 1.391 . S
C793 C797 1.376 . S
C794 C792 1.394 . S
C794 C795 1.369 . S
C794 C798 1.531 . S
C795 C794 1.369 . S
C795 C796 1.410 . S
C795 C803 1.503 . S
C796 C795 1.410 . S
C796 C797 1.392 . S
C796 C799 1.511 . S
C797 C793 1.376 . S
C797 C796 1.392 . S
C797 H809 0.929 . S
C798 C794 1.531 . S
C798 H810 0.960 . S
C798 H811 0.962 . S
C798 H812 0.960 . S
C799 C796 1.511 . S
C799 H813 0.961 . S
C799 H814 0.961 . S
C799 H815 0.961 . S
C800 C801 1.370 . S
C800 C802 1.363 . S
C800 H816 0.931 . S
C801 C800 1.370 . S
C801 C805 1.408 . S
C802 C800 1.363 . S
C802 C803 1.370 . S
C802 C806 1.524 . S
C803 C795 1.503 . S
C803 C802 1.370 . S
C803 C804 1.403 . S
C804 C803 1.403 . S
C804 C805 1.404 . S
C804 C807 1.539 . S
C805 C801 1.408 . S
C805 C804 1.404 . S
C805 H817 0.930 . S
C806 C802 1.524 . S
C806 H818 0.956 . S
C806 H819 0.961 . S
C806 H820 0.961 . S
C807 C804 1.539 . S
C807 H821 0.958 . S
C807 H822 0.961 . S
C807 H823 0.960 . S
H808 C792 0.931 . S
H809 C797 0.929 . S
H810 C798 0.960 . S
H811 C798 0.962 . S
H812 C798 0.960 . S
H813 C799 0.961 . S
H814 C799 0.961 . S
H815 C799 0.961 . S
H816 C800 0.931 . S
H817 C805 0.930 . S
H818 C806 0.956 . S
H819 C806 0.961 . S
H820 C806 0.961 . S
H821 C807 0.958 . S
H822 C807 0.961 . S
H823 C807 0.960 . S
C824 C825 1.391 . S
C824 C826 1.394 . S
C824 H840 0.931 . S
C825 C824 1.391 . S
C825 C829 1.376 . S
C826 C824 1.394 . S
C826 C827 1.369 . S
C826 C830 1.531 . S
C827 C826 1.369 . S
C827 C828 1.410 . S
C827 C835 1.503 . S
C828 C827 1.410 . S
C828 C829 1.392 . S
C828 C831 1.511 . S
C829 C825 1.376 . S
C829 C828 1.392 . S
C829 H841 0.929 . S
C830 C826 1.531 . S
C830 H842 0.960 . S
C830 H843 0.962 . S
C830 H844 0.960 . S
C831 C828 1.511 . S
C831 H845 0.961 . S
C831 H846 0.961 . S
C831 H847 0.961 . S
C832 C833 1.370 . S
C832 C834 1.363 . S
C832 H848 0.931 . S
C833 C832 1.370 . S
C833 C837 1.408 . S
C834 C832 1.363 . S
C834 C835 1.370 . S
C834 C838 1.524 . S
C835 C827 1.503 . S
C835 C834 1.370 . S
C835 C836 1.403 . S
C836 C835 1.403 . S
C836 C837 1.404 . S
C836 C839 1.539 . S
C837 C833 1.408 . S
C837 C836 1.404 . S
C837 H849 0.930 . S
C838 C834 1.524 . S
C838 H850 0.956 . S
C838 H851 0.961 . S
C838 H852 0.961 . S
C839 C836 1.539 . S
C839 H853 0.958 . S
C839 H854 0.961 . S
C839 H855 0.960 . S
H840 C824 0.931 . S
H841 C829 0.929 . S
H842 C830 0.960 . S
H843 C830 0.962 . S
H844 C830 0.960 . S
H845 C831 0.961 . S
H846 C831 0.961 . S
H847 C831 0.961 . S
H848 C832 0.931 . S
H849 C837 0.930 . S
H850 C838 0.956 . S
H851 C838 0.961 . S
H852 C838 0.961 . S
H853 C839 0.958 . S
H854 C839 0.961 . S
H855 C839 0.960 . S
C856 C857 1.391 . S
C856 C858 1.394 . S
C856 H872 0.931 . S
C857 C856 1.391 . S
C857 C861 1.376 . S
C858 C856 1.394 . S
C858 C859 1.369 . S
C858 C862 1.531 . S
C859 C858 1.369 . S
C859 C860 1.410 . S
C859 C867 1.503 . S
C860 C859 1.410 . S
C860 C861 1.392 . S
C860 C863 1.511 . S
C861 C857 1.376 . S
C861 C860 1.392 . S
C861 H873 0.929 . S
C862 C858 1.531 . S
C862 H874 0.960 . S
C862 H875 0.962 . S
C862 H876 0.960 . S
C863 C860 1.511 . S
C863 H877 0.961 . S
C863 H878 0.961 . S
C863 H879 0.961 . S
C864 C865 1.370 . S
C864 C866 1.363 . S
C864 H880 0.931 . S
C865 C864 1.370 . S
C865 C869 1.408 . S
C866 C864 1.363 . S
C866 C867 1.370 . S
C866 C870 1.524 . S
C867 C859 1.503 . S
C867 C866 1.370 . S
C867 C868 1.403 . S
C868 C867 1.403 . S
C868 C869 1.404 . S
C868 C871 1.539 . S
C869 C865 1.408 . S
C869 C868 1.404 . S
C869 H881 0.930 . S
C870 C866 1.524 . S
C870 H882 0.956 . S
C870 H883 0.961 . S
C870 H884 0.961 . S
C871 C868 1.539 . S
C871 H885 0.958 . S
C871 H886 0.961 . S
C871 H887 0.960 . S
H872 C856 0.931 . S
H873 C861 0.929 . S
H874 C862 0.960 . S
H875 C862 0.962 . S
H876 C862 0.960 . S
H877 C863 0.961 . S
H878 C863 0.961 . S
H879 C863 0.961 . S
H880 C864 0.931 . S
H881 C869 0.930 . S
H882 C870 0.956 . S
H883 C870 0.961 . S
H884 C870 0.961 . S
H885 C871 0.958 . S
H886 C871 0.961 . S
H887 C871 0.960 . S
C888 C889 1.391 . S
C888 C890 1.394 . S
C888 H904 0.931 . S
C889 C888 1.391 . S
C889 C893 1.376 . S
C890 C888 1.394 . S
C890 C891 1.369 . S
C890 C894 1.531 . S
C891 C890 1.369 . S
C891 C892 1.410 . S
C891 C899 1.503 . S
C892 C891 1.410 . S
C892 C893 1.392 . S
C892 C895 1.511 . S
C893 C889 1.376 . S
C893 C892 1.392 . S
C893 H905 0.929 . S
C894 C890 1.531 . S
C894 H906 0.960 . S
C894 H907 0.962 . S
C894 H908 0.960 . S
C895 C892 1.511 . S
C895 H909 0.961 . S
C895 H910 0.961 . S
C895 H911 0.961 . S
C896 C897 1.370 . S
C896 C898 1.363 . S
C896 H912 0.931 . S
C897 C896 1.370 . S
C897 C901 1.408 . S
C898 C896 1.363 . S
C898 C899 1.370 . S
C898 C902 1.524 . S
C899 C891 1.503 . S
C899 C898 1.370 . S
C899 C900 1.403 . S
C900 C899 1.403 . S
C900 C901 1.404 . S
C900 C903 1.539 . S
C901 C897 1.408 . S
C901 C900 1.404 . S
C901 H913 0.930 . S
C902 C898 1.524 . S
C902 H914 0.956 . S
C902 H915 0.961 . S
C902 H916 0.961 . S
C903 C900 1.539 . S
C903 H917 0.958 . S
C903 H918 0.961 . S
C903 H919 0.960 . S
H904 C888 0.931 . S
H905 C893 0.929 . S
H906 C894 0.960 . S
H907 C894 0.962 . S
H908 C894 0.960 . S
H909 C895 0.961 . S
H910 C895 0.961 . S
H911 C895 0.961 . S
H912 C896 0.931 . S
H913 C901 0.930 . S
H914 C902 0.956 . S
H915 C902 0.961 . S
H916 C902 0.961 . S
H917 C903 0.958 . S
H918 C903 0.961 . S
H919 C903 0.960 . S
C920 C921 1.391 . S
C920 C922 1.394 . S
C920 H936 0.931 . S
C921 C920 1.391 . S
C921 C925 1.376 . S
C922 C920 1.394 . S
C922 C923 1.369 . S
C922 C926 1.531 . S
C923 C922 1.369 . S
C923 C924 1.410 . S
C923 C931 1.503 . S
C924 C923 1.410 . S
C924 C925 1.392 . S
C924 C927 1.511 . S
C925 C921 1.376 . S
C925 C924 1.392 . S
C925 H937 0.929 . S
C926 C922 1.531 . S
C926 H938 0.960 . S
C926 H939 0.962 . S
C926 H940 0.960 . S
C927 C924 1.511 . S
C927 H941 0.961 . S
C927 H942 0.961 . S
C927 H943 0.961 . S
C928 C929 1.370 . S
C928 C930 1.363 . S
C928 H944 0.931 . S
C929 C928 1.370 . S
C929 C933 1.408 . S
C930 C928 1.363 . S
C930 C931 1.370 . S
C930 C934 1.524 . S
C931 C923 1.503 . S
C931 C930 1.370 . S
C931 C932 1.403 . S
C932 C931 1.403 . S
C932 C933 1.404 . S
C932 C935 1.539 . S
C933 C929 1.408 . S
C933 C932 1.404 . S
C933 H945 0.930 . S
C934 C930 1.524 . S
C934 H946 0.956 . S
C934 H947 0.961 . S
C934 H948 0.961 . S
C935 C932 1.539 . S
C935 H949 0.958 . S
C935 H950 0.961 . S
C935 H951 0.960 . S
H936 C920 0.931 . S
H937 C925 0.929 . S
H938 C926 0.960 . S
H939 C926 0.962 . S
H940 C926 0.960 . S
H941 C927 0.961 . S
H942 C927 0.961 . S
H943 C927 0.961 . S
H944 C928 0.931 . S
H945 C933 0.930 . S
H946 C934 0.956 . S
H947 C934 0.961 . S
H948 C934 0.961 . S
H949 C935 0.958 . S
H950 C935 0.961 . S
H951 C935 0.960 . S
C185 N1 1.319 . S
C193 C106 1.368 . S
C217 N18 1.564 . S
C225 C125 1.545 . S
C257 C162 1.379 . S
C249 N28 1.404 . S
C281 N40 1.825 . S
C289 C172 1.833 . S
C321 C142 2.152 . S
C313 N5 2.141 . S
C353 C112 1.431 . S
C345 N14 1.461 . S
C385 C183 1.601 . S
C377 N31 1.558 . S
C417 C153 1.139 . S
C409 N41 1.143 . S
C441 N2 1.500 . S
C449 C166 1.518 . S
C481 C133 1.783 . S
C473 N27 1.828 . S
C505 N44 1.792 . S
C513 C123 1.817 . S
C537 N15 1.090 . S
C545 C145 1.067 . S
C577 C105 1.646 . S
C569 N57 1.652 . S
C601 N70 1.243 . S
C609 C126 1.236 . S
C633 N79 1.615 . S
C641 C163 1.646 . S
C665 N93 1.623 . S
C673 C173 1.620 . S
C697 N54 1.656 . S
C705 C143 1.703 . S
C737 C113 1.828 . S
C729 N66 1.924 . S
C769 C182 1.035 . S
C761 N80 1.044 . S
C801 C152 1.469 . S
C793 N96 1.446 . S
C825 N53 1.514 . S
C833 C165 1.554 . S
C865 C132 1.616 . S
C857 N83 1.633 . S
C897 C122 1.949 . S
C889 N92 1.913 . S
C921 N67 1.202 . S
C929 C146 1.195 . S
